# Generated by pormake.
# Topology gme, (4)-cn, num edge types: 1
# Building blocks:
#     Node 0, Type 0, BuildingBlock: QUQFOY_clean_sbu_1, # of connection points: 4
#     Node 1, Type 0, BuildingBlock: QUQFOY_clean_sbu_1, # of connection points: 4
#     Node 2, Type 0, BuildingBlock: QUQFOY_clean_sbu_1, # of connection points: 4
#     Node 3, Type 0, BuildingBlock: QUQFOY_clean_sbu_1, # of connection points: 4
#     Node 4, Type 0, BuildingBlock: QUQFOY_clean_sbu_1, # of connection points: 4
#     Node 5, Type 0, BuildingBlock: QUQFOY_clean_sbu_1, # of connection points: 4
#     Node 6, Type 0, BuildingBlock: QUQFOY_clean_sbu_1, # of connection points: 4
#     Node 7, Type 0, BuildingBlock: QUQFOY_clean_sbu_1, # of connection points: 4
#     Node 8, Type 0, BuildingBlock: QUQFOY_clean_sbu_1, # of connection points: 4
#     Node 9, Type 0, BuildingBlock: QUQFOY_clean_sbu_1, # of connection points: 4
#     Node 10, Type 0, BuildingBlock: QUQFOY_clean_sbu_1, # of connection points: 4
#     Node 11, Type 0, BuildingBlock: QUQFOY_clean_sbu_1, # of connection points: 4
#     Node 12, Type 0, BuildingBlock: QUQFOY_clean_sbu_1, # of connection points: 4
#     Node 13, Type 0, BuildingBlock: QUQFOY_clean_sbu_1, # of connection points: 4
#     Node 14, Type 0, BuildingBlock: QUQFOY_clean_sbu_1, # of connection points: 4
#     Node 15, Type 0, BuildingBlock: QUQFOY_clean_sbu_1, # of connection points: 4
#     Node 16, Type 0, BuildingBlock: QUQFOY_clean_sbu_1, # of connection points: 4
#     Node 17, Type 0, BuildingBlock: QUQFOY_clean_sbu_1, # of connection points: 4
#     Node 18, Type 0, BuildingBlock: QUQFOY_clean_sbu_1, # of connection points: 4
#     Node 19, Type 0, BuildingBlock: QUQFOY_clean_sbu_1, # of connection points: 4
#     Node 20, Type 0, BuildingBlock: QUQFOY_clean_sbu_1, # of connection points: 4
#     Node 21, Type 0, BuildingBlock: QUQFOY_clean_sbu_1, # of connection points: 4
#     Node 22, Type 0, BuildingBlock: QUQFOY_clean_sbu_1, # of connection points: 4
#     Node 23, Type 0, BuildingBlock: QUQFOY_clean_sbu_1, # of connection points: 4
#     Edge 24, Type (0, 0), BuildingBlock: OJICUG_clean_linker_0, # of connection points: 2
#     Edge 25, Type (0, 0), BuildingBlock: OJICUG_clean_linker_0, # of connection points: 2
#     Edge 26, Type (0, 0), BuildingBlock: OJICUG_clean_linker_0, # of connection points: 2
#     Edge 27, Type (0, 0), BuildingBlock: OJICUG_clean_linker_0, # of connection points: 2
#     Edge 28, Type (0, 0), BuildingBlock: OJICUG_clean_linker_0, # of connection points: 2
#     Edge 29, Type (0, 0), BuildingBlock: OJICUG_clean_linker_0, # of connection points: 2
#     Edge 30, Type (0, 0), BuildingBlock: OJICUG_clean_linker_0, # of connection points: 2
#     Edge 31, Type (0, 0), BuildingBlock: OJICUG_clean_linker_0, # of connection points: 2
#     Edge 32, Type (0, 0), BuildingBlock: OJICUG_clean_linker_0, # of connection points: 2
#     Edge 33, Type (0, 0), BuildingBlock: OJICUG_clean_linker_0, # of connection points: 2
#     Edge 34, Type (0, 0), BuildingBlock: OJICUG_clean_linker_0, # of connection points: 2
#     Edge 35, Type (0, 0), BuildingBlock: OJICUG_clean_linker_0, # of connection points: 2
#     Edge 36, Type (0, 0), BuildingBlock: OJICUG_clean_linker_0, # of connection points: 2
#     Edge 37, Type (0, 0), BuildingBlock: OJICUG_clean_linker_0, # of connection points: 2
#     Edge 38, Type (0, 0), BuildingBlock: OJICUG_clean_linker_0, # of connection points: 2
#     Edge 39, Type (0, 0), BuildingBlock: OJICUG_clean_linker_0, # of connection points: 2
#     Edge 40, Type (0, 0), BuildingBlock: OJICUG_clean_linker_0, # of connection points: 2
#     Edge 41, Type (0, 0), BuildingBlock: OJICUG_clean_linker_0, # of connection points: 2
#     Edge 42, Type (0, 0), BuildingBlock: OJICUG_clean_linker_0, # of connection points: 2
#     Edge 43, Type (0, 0), BuildingBlock: OJICUG_clean_linker_0, # of connection points: 2
#     Edge 44, Type (0, 0), BuildingBlock: OJICUG_clean_linker_0, # of connection points: 2
#     Edge 45, Type (0, 0), BuildingBlock: OJICUG_clean_linker_0, # of connection points: 2
#     Edge 46, Type (0, 0), BuildingBlock: OJICUG_clean_linker_0, # of connection points: 2
#     Edge 47, Type (0, 0), BuildingBlock: OJICUG_clean_linker_0, # of connection points: 2
#     Edge 48, Type (0, 0), BuildingBlock: OJICUG_clean_linker_0, # of connection points: 2
#     Edge 49, Type (0, 0), BuildingBlock: OJICUG_clean_linker_0, # of connection points: 2
#     Edge 50, Type (0, 0), BuildingBlock: OJICUG_clean_linker_0, # of connection points: 2
#     Edge 51, Type (0, 0), BuildingBlock: OJICUG_clean_linker_0, # of connection points: 2
#     Edge 52, Type (0, 0), BuildingBlock: OJICUG_clean_linker_0, # of connection points: 2
#     Edge 53, Type (0, 0), BuildingBlock: OJICUG_clean_linker_0, # of connection points: 2
#     Edge 54, Type (0, 0), BuildingBlock: OJICUG_clean_linker_0, # of connection points: 2
#     Edge 55, Type (0, 0), BuildingBlock: OJICUG_clean_linker_0, # of connection points: 2
#     Edge 56, Type (0, 0), BuildingBlock: OJICUG_clean_linker_0, # of connection points: 2
#     Edge 57, Type (0, 0), BuildingBlock: OJICUG_clean_linker_0, # of connection points: 2
#     Edge 58, Type (0, 0), BuildingBlock: OJICUG_clean_linker_0, # of connection points: 2
#     Edge 59, Type (0, 0), BuildingBlock: OJICUG_clean_linker_0, # of connection points: 2
#     Edge 60, Type (0, 0), BuildingBlock: OJICUG_clean_linker_0, # of connection points: 2
#     Edge 61, Type (0, 0), BuildingBlock: OJICUG_clean_linker_0, # of connection points: 2
#     Edge 62, Type (0, 0), BuildingBlock: OJICUG_clean_linker_0, # of connection points: 2
#     Edge 63, Type (0, 0), BuildingBlock: OJICUG_clean_linker_0, # of connection points: 2
#     Edge 64, Type (0, 0), BuildingBlock: OJICUG_clean_linker_0, # of connection points: 2
#     Edge 65, Type (0, 0), BuildingBlock: OJICUG_clean_linker_0, # of connection points: 2
#     Edge 66, Type (0, 0), BuildingBlock: OJICUG_clean_linker_0, # of connection points: 2
#     Edge 67, Type (0, 0), BuildingBlock: OJICUG_clean_linker_0, # of connection points: 2
#     Edge 68, Type (0, 0), BuildingBlock: OJICUG_clean_linker_0, # of connection points: 2
#     Edge 69, Type (0, 0), BuildingBlock: OJICUG_clean_linker_0, # of connection points: 2
#     Edge 70, Type (0, 0), BuildingBlock: OJICUG_clean_linker_0, # of connection points: 2
#     Edge 71, Type (0, 0), BuildingBlock: OJICUG_clean_linker_0, # of connection points: 2
# Relax obj value: 0.037
# Max RMSD: 0.053
# Mean RMSD: 0.053
data_MOF--net-gme--node1-QUQFOY_clean_sbu_1--edge1-OJICUG_clean_linker_0
_symmetry_space_group_name_H-M    P1
_symmetry_Int_Tables_number       1
_symmetry_cell_setting            triclinic
loop_
_symmetry_equiv_pos_as_xyz
'x, y, z'
_cell_length_a     47.03258
_cell_length_b     47.030052
_cell_length_c     40.506101
_cell_angle_alpha  89.999825
_cell_angle_beta   90.000053
_cell_angle_gamma 120.0049
loop_
_atom_site_label
_atom_site_type_symbol
_atom_site_fract_x
_atom_site_fract_y
_atom_site_fract_z
_atom_type_partial_charge
O0 O 0.42269 0.09871 0.18957 0.0
Cd1 Cd 0.44251 0.11303 0.14285 0.0
Cd2 Cd 0.40764 0.04626 0.137 0.0
O3 O 0.38911 0.04552 0.18354 0.0
O4 O 0.46698 0.1616 0.14852 0.0
O5 O 0.42551 0.13681 0.11396 0.0
C6 C 0.44758 0.16367 0.12757 0.0
C7 C 0.37763 0.02694 0.08845 0.0
C8 C 0.4012 0.07119 0.20138 0.0
C9 C 0.48024 0.07764 0.13052 0.0
O10 O 0.45355 0.05093 0.13536 0.0
O11 O 0.48043 0.10478 0.12983 0.0
O12 O 0.37751 0.00694 0.11041 0.0
O13 O 0.39299 0.05798 0.0953 0.0
O14 O 0.32745 0.42213 0.6896 0.0
Cd15 Cd 0.3331 0.44184 0.64281 0.0
Cd16 Cd 0.36465 0.40669 0.63716 0.0
O17 O 0.34673 0.38827 0.68368 0.0
O18 O 0.3092 0.46654 0.64825 0.0
O19 O 0.2924 0.42493 0.61384 0.0
C20 C 0.28772 0.44713 0.6273 0.0
C21 C 0.3537 0.37666 0.5886 0.0
C22 C 0.33329 0.40053 0.70148 0.0
C23 C 0.40625 0.47922 0.63059 0.0
O24 O 0.4061 0.45246 0.63553 0.0
O25 O 0.37938 0.47957 0.6298 0.0
O26 O 0.3735 0.37635 0.61054 0.0
O27 O 0.33824 0.39223 0.59547 0.0
O28 O 0.90976 0.32536 0.18974 0.0
Cd29 Cd 0.89538 0.33092 0.14306 0.0
Cd30 Cd 0.96226 0.36308 0.13726 0.0
O31 O 0.963 0.34523 0.18376 0.0
O32 O 0.84683 0.30698 0.14889 0.0
O33 O 0.87138 0.29019 0.11415 0.0
C34 C 0.84459 0.28551 0.12784 0.0
C35 C 0.98163 0.35252 0.08868 0.0
C36 C 0.93731 0.3315 0.20157 0.0
C37 C 0.93071 0.40412 0.13081 0.0
O38 O 0.95747 0.40425 0.13567 0.0
O39 O 0.90362 0.37711 0.1301 0.0
O40 O 1.0016 0.3724 0.11065 0.0
O41 O 0.95058 0.33675 0.09553 0.0
O42 O 0.58612 0.90735 0.68958 0.0
Cd43 Cd 0.56637 0.89307 0.64283 0.0
Cd44 Cd 0.60123 0.95983 0.63704 0.0
O45 O 0.61974 0.96053 0.68357 0.0
O46 O 0.54191 0.84449 0.64844 0.0
O47 O 0.58343 0.86936 0.61395 0.0
C48 C 0.56136 0.84247 0.62751 0.0
C49 C 0.63124 0.97914 0.58849 0.0
C50 C 0.60761 0.93486 0.70141 0.0
C51 C 0.52864 0.92846 0.6305 0.0
O52 O 0.55532 0.95517 0.63539 0.0
O53 O 0.52845 0.90132 0.62978 0.0
O54 O 0.63137 0.99915 0.61045 0.0
O55 O 0.61587 0.9481 0.59534 0.0
O56 O 0.6818 0.58414 0.18962 0.0
Cd57 Cd 0.67615 0.5644 0.14284 0.0
Cd58 Cd 0.6446 0.59956 0.13716 0.0
O59 O 0.66251 0.61799 0.18369 0.0
O60 O 0.70002 0.53969 0.14831 0.0
O61 O 0.71684 0.58127 0.11387 0.0
C62 C 0.7215 0.55907 0.12735 0.0
C63 C 0.65553 0.6296 0.08861 0.0
C64 C 0.67596 0.60573 0.20149 0.0
C65 C 0.603 0.52703 0.13061 0.0
O66 O 0.60315 0.55379 0.13553 0.0
O67 O 0.62986 0.52667 0.12984 0.0
O68 O 0.63573 0.6299 0.11055 0.0
O69 O 0.671 0.61403 0.09547 0.0
O70 O 0.0993 0.68059 0.68971 0.0
Cd71 Cd 0.11365 0.67504 0.64301 0.0
Cd72 Cd 0.0468 0.64288 0.63725 0.0
O73 O 0.04607 0.66073 0.68375 0.0
O74 O 0.16221 0.69901 0.64878 0.0
O75 O 0.1376 0.71578 0.61409 0.0
C76 C 0.1644 0.72048 0.62774 0.0
C77 C 0.02747 0.65348 0.58866 0.0
C78 C 0.07176 0.67446 0.70155 0.0
C79 C 0.07834 0.60185 0.63077 0.0
O80 O 0.05159 0.60171 0.63566 0.0
O81 O 0.10543 0.62886 0.63004 0.0
O82 O 0.00747 0.63359 0.61062 0.0
O83 O 0.05851 0.66923 0.59553 0.0
O84 O 0.90841 0.58399 0.35477 0.0
Cd85 Cd 0.89431 0.56424 0.40154 0.0
Cd86 Cd 0.96102 0.59937 0.40723 0.0
O87 O 0.96155 0.61782 0.36071 0.0
O88 O 0.84572 0.53956 0.39608 0.0
O89 O 0.87052 0.58114 0.43052 0.0
C90 C 0.84365 0.55896 0.41704 0.0
C91 C 0.98011 0.62941 0.45578 0.0
C92 C 0.93585 0.60558 0.3429 0.0
C93 C 0.93005 0.52684 0.41377 0.0
O94 O 0.95667 0.55359 0.40886 0.0
O95 O 0.90284 0.52649 0.41454 0.0
O96 O 1.00022 0.62971 0.43385 0.0
O97 O 0.94907 0.61384 0.4489 0.0
O98 O 0.32701 0.90751 0.85458 0.0
Cd99 Cd 0.33251 0.89322 0.90132 0.0
Cd100 Cd 0.36447 0.96001 0.90709 0.0
O101 O 0.34665 0.96071 0.86056 0.0
O102 O 0.30841 0.84465 0.89568 0.0
O103 O 0.29175 0.86947 0.93022 0.0
C104 C 0.28695 0.8426 0.91664 0.0
C105 C 0.3538 0.97934 0.95564 0.0
C106 C 0.33306 0.93502 0.84273 0.0
C107 C 0.40565 0.9286 0.91362 0.0
O108 O 0.40569 0.95532 0.90874 0.0
O109 O 0.37868 0.90147 0.91434 0.0
O110 O 0.37367 0.99934 0.93368 0.0
O111 O 0.3381 0.9483 0.9488 0.0
O112 O 0.42175 0.32549 0.35465 0.0
Cd113 Cd 0.44168 0.33103 0.40133 0.0
Cd114 Cd 0.40697 0.36319 0.40714 0.0
O115 O 0.38838 0.34535 0.36064 0.0
O116 O 0.46627 0.30708 0.3955 0.0
O117 O 0.42492 0.29028 0.43022 0.0
C118 C 0.44702 0.2856 0.41653 0.0
C119 C 0.37704 0.3526 0.45573 0.0
C120 C 0.40034 0.33164 0.34282 0.0
C121 C 0.47956 0.40422 0.4136 0.0
O122 O 0.45293 0.40435 0.40874 0.0
O123 O 0.47963 0.37721 0.41431 0.0
O124 O 0.37694 0.37249 0.43377 0.0
O125 O 0.39232 0.33684 0.44886 0.0
O126 O 0.10079 0.42209 0.85479 0.0
Cd127 Cd 0.11487 0.44182 0.90158 0.0
Cd128 Cd 0.04816 0.40665 0.90725 0.0
O129 O 0.04765 0.38822 0.86073 0.0
O130 O 0.16346 0.46653 0.89614 0.0
O131 O 0.13867 0.42493 0.93055 0.0
C132 C 0.16554 0.44714 0.91709 0.0
C133 C 0.02906 0.37661 0.95581 0.0
C134 C 0.07335 0.40049 0.84292 0.0
C135 C 0.07908 0.47918 0.91381 0.0
O136 O 0.05247 0.45242 0.90888 0.0
O137 O 0.1063 0.47954 0.91459 0.0
O138 O 0.00895 0.3763 0.93387 0.0
O139 O 0.0601 0.39219 0.94895 0.0
O140 O 0.68186 0.09855 0.35459 0.0
Cd141 Cd 0.67637 0.11287 0.40131 0.0
Cd142 Cd 0.6444 0.04608 0.40713 0.0
O143 O 0.6622 0.04535 0.3606 0.0
O144 O 0.70049 0.16144 0.39565 0.0
O145 O 0.71713 0.13661 0.43021 0.0
C146 C 0.72195 0.16348 0.41662 0.0
C147 C 0.65506 0.02674 0.45568 0.0
C148 C 0.67581 0.07103 0.34276 0.0
C149 C 0.60323 0.07751 0.41362 0.0
O150 O 0.60318 0.05079 0.40876 0.0
O151 O 0.63019 0.10464 0.41432 0.0
O152 O 0.63517 0.00675 0.43372 0.0
O153 O 0.67077 0.05779 0.44883 0.0
O154 O 0.58742 0.68079 0.85467 0.0
Cd155 Cd 0.5675 0.67523 0.90136 0.0
Cd156 Cd 0.60225 0.64311 0.90716 0.0
O157 O 0.62082 0.66096 0.86065 0.0
O158 O 0.54286 0.69914 0.89555 0.0
O159 O 0.58423 0.71597 0.93026 0.0
C160 C 0.5621 0.72062 0.91659 0.0
C161 C 0.63218 0.65368 0.95574 0.0
C162 C 0.60884 0.67466 0.84284 0.0
C163 C 0.52967 0.60204 0.91362 0.0
O164 O 0.5563 0.60192 0.90874 0.0
O165 O 0.52957 0.62904 0.91434 0.0
O166 O 0.63229 0.63381 0.93377 0.0
O167 O 0.61689 0.66943 0.94889 0.0
O168 O 0.58615 0.90738 0.85461 0.0
Cd169 Cd 0.5664 0.89312 0.90136 0.0
Cd170 Cd 0.60127 0.95987 0.90713 0.0
O171 O 0.61977 0.96056 0.8606 0.0
O172 O 0.54194 0.84454 0.89577 0.0
O173 O 0.58346 0.86942 0.93026 0.0
C174 C 0.56139 0.84252 0.91671 0.0
C175 C 0.63128 0.97919 0.95568 0.0
C176 C 0.60764 0.93488 0.84277 0.0
C177 C 0.52868 0.92853 0.91366 0.0
O178 O 0.55537 0.95522 0.90877 0.0
O179 O 0.52848 0.90138 0.9144 0.0
O180 O 0.63142 0.99919 0.93372 0.0
O181 O 0.6159 0.94814 0.94884 0.0
O182 O 0.68178 0.58411 0.35472 0.0
Cd183 Cd 0.67611 0.56436 0.4015 0.0
Cd184 Cd 0.64455 0.59951 0.40718 0.0
O185 O 0.66248 0.61795 0.36066 0.0
O186 O 0.69999 0.53965 0.39604 0.0
O187 O 0.71679 0.58122 0.43048 0.0
C188 C 0.72147 0.55903 0.41701 0.0
C189 C 0.65548 0.62955 0.45574 0.0
C190 C 0.67593 0.6057 0.34285 0.0
C191 C 0.60296 0.52698 0.41372 0.0
O192 O 0.60311 0.55374 0.40881 0.0
O193 O 0.62982 0.52662 0.41449 0.0
O194 O 0.63568 0.62985 0.4338 0.0
O195 O 0.67096 0.61398 0.44887 0.0
O196 O 0.09934 0.68063 0.85472 0.0
Cd197 Cd 0.11371 0.6751 0.90141 0.0
Cd198 Cd 0.04686 0.64295 0.90721 0.0
O199 O 0.04611 0.66078 0.8607 0.0
O200 O 0.16226 0.69907 0.8956 0.0
O201 O 0.13768 0.71586 0.93029 0.0
C202 C 0.16447 0.72055 0.91662 0.0
C203 C 0.02752 0.65353 0.95579 0.0
C204 C 0.07179 0.67449 0.84289 0.0
C205 C 0.07841 0.60192 0.91369 0.0
O206 O 0.05165 0.60178 0.9088 0.0
O207 O 0.1055 0.62893 0.91441 0.0
O208 O 0.00753 0.63364 0.93383 0.0
O209 O 0.05856 0.66929 0.94892 0.0
O210 O 0.42265 0.09867 0.35456 0.0
Cd211 Cd 0.44245 0.11296 0.40129 0.0
Cd212 Cd 0.40759 0.04618 0.40709 0.0
O213 O 0.38907 0.04547 0.36056 0.0
O214 O 0.46693 0.16153 0.39564 0.0
O215 O 0.42545 0.13672 0.43019 0.0
C216 C 0.44752 0.16359 0.4166 0.0
C217 C 0.37757 0.02686 0.45564 0.0
C218 C 0.40117 0.07115 0.34273 0.0
C219 C 0.48018 0.07756 0.4136 0.0
O220 O 0.4535 0.05085 0.40874 0.0
O221 O 0.48037 0.1047 0.4143 0.0
O222 O 0.37745 0.00686 0.43368 0.0
O223 O 0.39294 0.05791 0.4488 0.0
O224 O 0.32747 0.42215 0.85472 0.0
Cd225 Cd 0.33314 0.44187 0.90151 0.0
Cd226 Cd 0.3647 0.40673 0.90716 0.0
O227 O 0.34677 0.3883 0.86064 0.0
O228 O 0.30924 0.46657 0.89609 0.0
O229 O 0.29245 0.42497 0.9305 0.0
C230 C 0.28777 0.44716 0.91705 0.0
C231 C 0.35374 0.3767 0.95572 0.0
C232 C 0.33332 0.40056 0.84284 0.0
C233 C 0.40629 0.47926 0.91373 0.0
O234 O 0.40614 0.4525 0.90879 0.0
O235 O 0.37942 0.47961 0.91452 0.0
O236 O 0.37355 0.37639 0.93378 0.0
O237 O 0.33828 0.39228 0.94884 0.0
O238 O 0.90973 0.32533 0.35472 0.0
Cd239 Cd 0.89532 0.33087 0.40139 0.0
Cd240 Cd 0.9622 0.36302 0.40723 0.0
O241 O 0.96296 0.34519 0.36073 0.0
O242 O 0.84677 0.30694 0.39553 0.0
O243 O 0.87129 0.29012 0.43027 0.0
C244 C 0.84452 0.28545 0.41657 0.0
C245 C 0.98157 0.35246 0.45582 0.0
C246 C 0.93728 0.33147 0.3429 0.0
C247 C 0.93065 0.40406 0.41367 0.0
O248 O 0.95741 0.40419 0.40882 0.0
O249 O 0.90356 0.37706 0.41437 0.0
O250 O 1.00154 0.37234 0.43385 0.0
O251 O 0.95052 0.33669 0.44896 0.0
O252 O 0.10076 0.42205 0.68967 0.0
Cd253 Cd 0.11481 0.44177 0.64288 0.0
Cd254 Cd 0.04811 0.40659 0.63723 0.0
O255 O 0.04762 0.38818 0.68376 0.0
O256 O 0.16341 0.46648 0.6483 0.0
O257 O 0.1386 0.42487 0.6139 0.0
C258 C 0.16548 0.44708 0.62734 0.0
C259 C 0.029 0.37655 0.58868 0.0
C260 C 0.07333 0.40045 0.70156 0.0
C261 C 0.07902 0.47912 0.63066 0.0
O262 O 0.05241 0.45235 0.6356 0.0
O263 O 0.10624 0.47948 0.62987 0.0
O264 O 0.0089 0.37623 0.61063 0.0
O265 O 0.06004 0.39213 0.59554 0.0
O266 O 0.68188 0.09859 0.18961 0.0
Cd267 Cd 0.67642 0.11293 0.14288 0.0
Cd268 Cd 0.64445 0.04614 0.13704 0.0
O269 O 0.66223 0.04539 0.18357 0.0
O270 O 0.70054 0.1615 0.14858 0.0
O271 O 0.7172 0.13669 0.11402 0.0
C272 C 0.72201 0.16356 0.12763 0.0
C273 C 0.6551 0.02679 0.08849 0.0
C274 C 0.67582 0.07106 0.20142 0.0
C275 C 0.60329 0.07758 0.13054 0.0
O276 O 0.60323 0.05086 0.13539 0.0
O277 O 0.63025 0.10471 0.12986 0.0
O278 O 0.63521 0.0068 0.11045 0.0
O279 O 0.67082 0.05784 0.09533 0.0
O280 O 0.5874 0.68075 0.68966 0.0
Cd281 Cd 0.56748 0.67518 0.64297 0.0
Cd282 Cd 0.60221 0.64305 0.63719 0.0
O283 O 0.62079 0.66091 0.68369 0.0
O284 O 0.54284 0.6991 0.64877 0.0
O285 O 0.5842 0.71592 0.61406 0.0
C286 C 0.56208 0.72057 0.62772 0.0
C287 C 0.63214 0.65363 0.58861 0.0
C288 C 0.60881 0.67463 0.7015 0.0
C289 C 0.52963 0.60199 0.63072 0.0
O290 O 0.55626 0.60187 0.63561 0.0
O291 O 0.52955 0.62899 0.63 0.0
O292 O 0.63226 0.63376 0.61058 0.0
O293 O 0.61685 0.66938 0.59546 0.0
O294 O 0.90843 0.58402 0.18967 0.0
Cd295 Cd 0.89435 0.56428 0.14289 0.0
Cd296 Cd 0.96105 0.59942 0.13722 0.0
O297 O 0.96157 0.61785 0.18375 0.0
O298 O 0.84576 0.5396 0.14833 0.0
O299 O 0.87057 0.58119 0.11391 0.0
C300 C 0.84369 0.559 0.12737 0.0
C301 C 0.98014 0.62946 0.08867 0.0
C302 C 0.93587 0.60561 0.20155 0.0
C303 C 0.9301 0.52689 0.13067 0.0
O304 O 0.95672 0.55365 0.13559 0.0
O305 O 0.90288 0.52654 0.1299 0.0
O306 O 1.00025 0.62976 0.1106 0.0
O307 O 0.9491 0.61389 0.09554 0.0
O308 O 0.32699 0.90746 0.68956 0.0
Cd309 Cd 0.33246 0.89314 0.64283 0.0
Cd310 Cd 0.36441 0.95993 0.63701 0.0
O311 O 0.34661 0.96065 0.68354 0.0
O312 O 0.30837 0.84458 0.6485 0.0
O313 O 0.29168 0.86937 0.61396 0.0
C314 C 0.2869 0.84251 0.62755 0.0
C315 C 0.35374 0.97926 0.58845 0.0
C316 C 0.33303 0.93498 0.70138 0.0
C317 C 0.4056 0.92852 0.63049 0.0
O318 O 0.40564 0.95523 0.63537 0.0
O319 O 0.37863 0.90138 0.62979 0.0
O320 O 0.37363 0.99925 0.61041 0.0
O321 O 0.33804 0.94821 0.5953 0.0
O322 O 0.42177 0.32552 0.18966 0.0
Cd323 Cd 0.44171 0.33109 0.14298 0.0
Cd324 Cd 0.407 0.36324 0.13718 0.0
O325 O 0.38841 0.3454 0.18368 0.0
O326 O 0.4663 0.30713 0.14879 0.0
O327 O 0.42495 0.29035 0.11407 0.0
C328 C 0.44705 0.28566 0.12775 0.0
C329 C 0.37707 0.35266 0.0886 0.0
C330 C 0.40036 0.33167 0.20149 0.0
C331 C 0.47959 0.40428 0.13073 0.0
O332 O 0.45297 0.40442 0.1356 0.0
O333 O 0.47966 0.37727 0.13002 0.0
O334 O 0.37697 0.37255 0.11056 0.0
O335 O 0.39236 0.3369 0.09546 0.0
C336 C 0.40302 0.09831 0.28927 0.0
C337 C 0.39363 0.06922 0.30696 0.0
H338 H 0.4121 0.12153 0.24213 0.0
C339 C 0.38141 0.03956 0.28938 0.0
H340 H 0.41208 0.12151 0.30201 0.0
C341 C 0.38142 0.03958 0.25471 0.0
C342 C 0.39365 0.06925 0.23715 0.0
H343 H 0.37393 0.01673 0.3023 0.0
H344 H 0.37395 0.01675 0.24178 0.0
C345 C 0.40303 0.09832 0.25485 0.0
C346 C 0.30822 0.40276 0.75496 0.0
C347 C 0.32765 0.39305 0.73726 0.0
H348 H 0.29429 0.41207 0.80211 0.0
C349 C 0.34483 0.38054 0.75483 0.0
H350 H 0.29428 0.41206 0.74223 0.0
C351 C 0.34483 0.38054 0.7895 0.0
C352 C 0.32766 0.39307 0.80707 0.0
H353 H 0.35998 0.37281 0.74191 0.0
H354 H 0.35999 0.37282 0.80242 0.0
C355 C 0.30823 0.40277 0.78938 0.0
C356 C 0.96891 0.34339 0.25491 0.0
C357 C 0.93926 0.32587 0.23733 0.0
H358 H 0.99172 0.3588 0.3025 0.0
C359 C 0.91021 0.30609 0.25502 0.0
H360 H 0.99173 0.35881 0.24199 0.0
C361 C 0.9102 0.30608 0.28944 0.0
C362 C 0.93925 0.32585 0.30714 0.0
H363 H 0.88701 0.29188 0.24228 0.0
H364 H 0.887 0.29187 0.30217 0.0
C365 C 0.96891 0.34338 0.28958 0.0
C366 C 0.62742 0.96645 0.75475 0.0
C367 C 0.61515 0.93678 0.73719 0.0
H368 H 0.63495 0.98931 0.80234 0.0
C369 C 0.60571 0.9077 0.75488 0.0
H370 H 0.63493 0.98929 0.74182 0.0
C371 C 0.60572 0.9077 0.7893 0.0
C372 C 0.61516 0.93679 0.80699 0.0
H373 H 0.5966 0.88448 0.74216 0.0
H374 H 0.59662 0.88449 0.80204 0.0
C375 C 0.62743 0.96646 0.78942 0.0
C376 C 0.70104 0.60353 0.28939 0.0
C377 C 0.68159 0.61321 0.30708 0.0
H378 H 0.71501 0.59426 0.24224 0.0
C379 C 0.66439 0.62571 0.28951 0.0
H380 H 0.715 0.59425 0.30212 0.0
C381 C 0.6644 0.62571 0.25484 0.0
C382 C 0.6816 0.61322 0.23727 0.0
H383 H 0.64922 0.63341 0.30243 0.0
H384 H 0.64923 0.63342 0.24192 0.0
C385 C 0.70105 0.60354 0.25497 0.0
C386 C 0.04017 0.6626 0.75489 0.0
C387 C 0.06982 0.68009 0.73732 0.0
H388 H 0.01735 0.6472 0.80248 0.0
C389 C 0.09888 0.69984 0.755 0.0
H390 H 0.01734 0.64719 0.74197 0.0
C391 C 0.09889 0.69985 0.78942 0.0
C392 C 0.06983 0.68011 0.80712 0.0
H393 H 0.12209 0.71403 0.74226 0.0
H394 H 0.1221 0.71404 0.80215 0.0
C395 C 0.04017 0.66261 0.78956 0.0
C396 C 0.9674 0.62558 0.25489 0.0
C397 C 0.93772 0.6131 0.23732 0.0
H398 H 0.99028 0.63326 0.30248 0.0
C399 C 0.90858 0.60343 0.25501 0.0
H400 H 0.99028 0.63328 0.24197 0.0
C401 C 0.90858 0.60342 0.28943 0.0
C402 C 0.93771 0.61308 0.30713 0.0
H403 H 0.88534 0.59416 0.24228 0.0
H404 H 0.88534 0.59414 0.30216 0.0
C405 C 0.9674 0.62557 0.28956 0.0
C406 C 0.34487 0.9666 0.78939 0.0
C407 C 0.32744 0.93694 0.80696 0.0
H408 H 0.36022 0.98943 0.74179 0.0
C409 C 0.30776 0.90786 0.78927 0.0
H410 H 0.36023 0.98944 0.8023 0.0
C411 C 0.30775 0.90785 0.75486 0.0
C412 C 0.32743 0.93692 0.73715 0.0
H413 H 0.29362 0.88465 0.80201 0.0
H414 H 0.29361 0.88463 0.74213 0.0
C415 C 0.34487 0.96659 0.75471 0.0
C416 C 0.38063 0.34354 0.2895 0.0
C417 C 0.39276 0.32602 0.30706 0.0
H418 H 0.37324 0.35897 0.24191 0.0
C419 C 0.40205 0.30625 0.28936 0.0
H420 H 0.37324 0.35896 0.30242 0.0
C421 C 0.40205 0.30626 0.25494 0.0
C422 C 0.39277 0.32603 0.23725 0.0
H423 H 0.41104 0.29204 0.30209 0.0
H424 H 0.41105 0.29205 0.24221 0.0
C425 C 0.38063 0.34355 0.25482 0.0
C426 C 0.04181 0.38046 0.75491 0.0
C427 C 0.0715 0.39298 0.73734 0.0
H428 H 0.01893 0.37274 0.8025 0.0
C429 C 0.10064 0.4027 0.75503 0.0
H430 H 0.01892 0.37272 0.74199 0.0
C431 C 0.10065 0.40271 0.78945 0.0
C432 C 0.07151 0.393 0.80715 0.0
H433 H 0.12388 0.412 0.74229 0.0
H434 H 0.1239 0.41202 0.80217 0.0
C435 C 0.04181 0.38047 0.78958 0.0
C436 C 0.70114 0.09816 0.28931 0.0
C437 C 0.68142 0.06909 0.30699 0.0
H438 H 0.71531 0.12138 0.24216 0.0
C439 C 0.66395 0.03943 0.28942 0.0
H440 H 0.71531 0.12137 0.30204 0.0
C441 C 0.66396 0.03944 0.25475 0.0
C442 C 0.68143 0.06911 0.23719 0.0
H443 H 0.64857 0.0166 0.30234 0.0
H444 H 0.64858 0.01661 0.24182 0.0
C445 C 0.70114 0.09817 0.25489 0.0
C446 C 0.62857 0.66279 0.75483 0.0
C447 C 0.61639 0.68026 0.73726 0.0
H448 H 0.63601 0.6474 0.80242 0.0
C449 C 0.60707 0.7 0.75495 0.0
H450 H 0.636 0.64739 0.74192 0.0
C451 C 0.60708 0.70001 0.78937 0.0
C452 C 0.61641 0.68028 0.80707 0.0
H453 H 0.59804 0.71418 0.74222 0.0
H454 H 0.59805 0.7142 0.8021 0.0
C455 C 0.62858 0.6628 0.78951 0.0
C456 C 0.47615 0.22436 0.13467 0.0
C457 C 0.4494 0.19567 0.12191 0.0
H458 H 0.49652 0.27517 0.146 0.0
C459 C 0.42341 0.19772 0.10713 0.0
H460 H 0.49675 0.22376 0.1459 0.0
C461 C 0.42328 0.22753 0.10718 0.0
C462 C 0.44913 0.25564 0.12202 0.0
H463 H 0.40246 0.17602 0.09706 0.0
H464 H 0.40223 0.22811 0.09715 0.0
C465 C 0.47601 0.25392 0.13473 0.0
C466 C 0.19964 0.42304 0.60689 0.0
C467 C 0.19753 0.44906 0.62153 0.0
H468 H 0.23014 0.40198 0.597 0.0
C469 C 0.22623 0.47599 0.63403 0.0
H470 H 0.17793 0.40196 0.59702 0.0
C471 C 0.25586 0.476 0.63402 0.0
C472 C 0.25764 0.44908 0.6215 0.0
H473 H 0.22559 0.49662 0.64514 0.0
H474 H 0.27713 0.49664 0.64512 0.0
C475 C 0.22951 0.42305 0.60688 0.0
C476 C 0.78388 0.25379 0.13483 0.0
C477 C 0.81248 0.2555 0.12211 0.0
H478 H 0.73299 0.22366 0.14601 0.0
C479 C 0.8102 0.22738 0.10726 0.0
H480 H 0.78466 0.27505 0.14611 0.0
C481 C 0.78024 0.19759 0.1072 0.0
C482 C 0.75221 0.19555 0.12199 0.0
H483 H 0.83182 0.22796 0.09722 0.0
H484 H 0.77947 0.17588 0.09712 0.0
C485 C 0.75418 0.22424 0.13477 0.0
C486 C 0.58581 0.77871 0.60717 0.0
C487 C 0.55996 0.75057 0.62198 0.0
H488 H 0.60657 0.83022 0.59707 0.0
C489 C 0.53303 0.75224 0.63464 0.0
H490 H 0.60688 0.77816 0.59717 0.0
C491 C 0.53285 0.78178 0.63457 0.0
C492 C 0.55959 0.8105 0.62185 0.0
H493 H 0.51253 0.73096 0.64588 0.0
H494 H 0.51221 0.78233 0.64577 0.0
C495 C 0.58563 0.80849 0.60711 0.0
C496 C 0.75333 0.53017 0.1341 0.0
C497 C 0.75157 0.55709 0.12156 0.0
H498 H 0.78358 0.50952 0.14524 0.0
C499 C 0.7797 0.58308 0.10691 0.0
H500 H 0.73206 0.50955 0.14522 0.0
C501 C 0.80956 0.58307 0.10691 0.0
C502 C 0.81165 0.55705 0.12157 0.0
H503 H 0.77908 0.60416 0.09701 0.0
H504 H 0.83127 0.60413 0.09702 0.0
C505 C 0.78295 0.53015 0.13411 0.0
C506 C 0.22866 0.80844 0.60714 0.0
C507 C 0.25672 0.8105 0.62189 0.0
H508 H 0.17708 0.77803 0.59719 0.0
C509 C 0.2548 0.78181 0.63462 0.0
H510 H 0.2294 0.83015 0.5971 0.0
C511 C 0.22511 0.75224 0.63467 0.0
C512 C 0.19649 0.75051 0.622 0.0
H513 H 0.27601 0.78241 0.64582 0.0
H514 H 0.22438 0.73098 0.64592 0.0
C515 C 0.19873 0.77863 0.60719 0.0
C516 C 0.78291 0.53011 0.41028 0.0
C517 C 0.81161 0.55701 0.42283 0.0
H518 H 0.73203 0.50951 0.39914 0.0
C519 C 0.80951 0.58302 0.43748 0.0
H520 H 0.78354 0.50948 0.39915 0.0
C521 C 0.77965 0.58304 0.43747 0.0
C522 C 0.75153 0.55704 0.42281 0.0
H523 H 0.83122 0.60408 0.44739 0.0
H524 H 0.77903 0.60411 0.44737 0.0
C525 C 0.7533 0.53012 0.41027 0.0
C526 C 0.22518 0.75233 0.90963 0.0
C527 C 0.19657 0.7506 0.92232 0.0
H528 H 0.27606 0.78249 0.89842 0.0
C529 C 0.19881 0.77873 0.9371 0.0
H530 H 0.22444 0.73105 0.89841 0.0
C531 C 0.22874 0.80855 0.93711 0.0
C532 C 0.25679 0.8106 0.92234 0.0
H533 H 0.17717 0.77814 0.94712 0.0
H534 H 0.22948 0.83026 0.94713 0.0
C535 C 0.25486 0.7819 0.90964 0.0
C536 C 0.4761 0.22428 0.40954 0.0
C537 C 0.44934 0.19558 0.42229 0.0
H538 H 0.49648 0.27511 0.39826 0.0
C539 C 0.42336 0.19763 0.43708 0.0
H540 H 0.4967 0.22369 0.3983 0.0
C541 C 0.42323 0.22744 0.43705 0.0
C542 C 0.44909 0.25556 0.42223 0.0
H543 H 0.4024 0.17592 0.44713 0.0
H544 H 0.40218 0.22803 0.44709 0.0
C545 C 0.47597 0.25384 0.40952 0.0
C546 C 0.22957 0.4231 0.9375 0.0
C547 C 0.25769 0.44912 0.92286 0.0
H548 H 0.178 0.40201 0.9474 0.0
C549 C 0.25591 0.47604 0.91035 0.0
H550 H 0.23021 0.40202 0.94738 0.0
C551 C 0.22628 0.47604 0.91036 0.0
C552 C 0.19759 0.44911 0.92289 0.0
H553 H 0.27717 0.49668 0.89924 0.0
H554 H 0.22564 0.49667 0.89926 0.0
C555 C 0.1997 0.42309 0.93751 0.0
C556 C 0.78016 0.1975 0.43711 0.0
C557 C 0.75214 0.19547 0.4223 0.0
H558 H 0.83172 0.22787 0.44715 0.0
C559 C 0.75411 0.22417 0.40954 0.0
H560 H 0.77938 0.17579 0.44718 0.0
C561 C 0.78382 0.25373 0.40952 0.0
C562 C 0.8124 0.25543 0.42226 0.0
H563 H 0.73293 0.2236 0.39828 0.0
H564 H 0.7846 0.275 0.39825 0.0
C565 C 0.81011 0.2273 0.43709 0.0
C566 C 0.53306 0.75229 0.90964 0.0
C567 C 0.55998 0.75063 0.92231 0.0
H568 H 0.51224 0.78238 0.89847 0.0
C569 C 0.58583 0.77877 0.93711 0.0
H570 H 0.51255 0.731 0.89841 0.0
C571 C 0.58565 0.80856 0.93714 0.0
C572 C 0.55962 0.81055 0.92239 0.0
H573 H 0.60691 0.77823 0.94711 0.0
H574 H 0.6066 0.83029 0.94717 0.0
C575 C 0.53288 0.78183 0.90968 0.0
C576 C 0.34041 0.96936 1.01588 0.0
C577 C 0.35278 0.99138 0.98921 0.0
H578 H 0.33841 0.96338 0.0684 0.0
C579 C 0.36856 0.02528 0.9957 0.0
H580 H 0.32808 0.9431 1.01176 0.0
C581 C 0.37422 0.03693 0.02821 0.0
C582 C 0.36456 0.01491 0.05488 0.0
H583 H 0.37818 0.0429 0.97569 0.0
H584 H 0.38817 0.06319 0.03233 0.0
C585 C 0.34641 0.98101 0.04839 0.0
C586 C 0.34609 0.36758 0.49586 0.0
C587 C 0.36405 0.35164 0.48932 0.0
H588 H 0.32803 0.38737 0.53254 0.0
C589 C 0.37364 0.33918 0.51596 0.0
H590 H 0.33815 0.37728 0.47588 0.0
C591 C 0.36809 0.34524 0.54849 0.0
C592 C 0.35252 0.36354 0.55503 0.0
H593 H 0.38744 0.32672 0.5118 0.0
H594 H 0.37767 0.33716 0.56847 0.0
C595 C 0.34021 0.3733 0.52839 0.0
C596 C 0.03917 0.37325 1.01603 0.0
C597 C 0.01711 0.36349 0.98938 0.0
H598 H 0.0452 0.37722 0.06854 0.0
C599 C 0.98323 0.34518 0.99591 0.0
H600 H 0.06542 0.38732 1.01187 0.0
C601 C 0.97162 0.33912 0.02844 0.0
C602 C 0.99367 0.35157 0.05508 0.0
H603 H 0.96558 0.3371 0.97592 0.0
H604 H 0.94536 0.32666 0.03259 0.0
C605 C 0.02756 0.36752 0.04855 0.0
C606 C 0.66846 0.03672 0.51592 0.0
C607 C 0.65608 0.0147 0.48925 0.0
H608 H 0.67047 0.0427 0.56844 0.0
C609 C 0.6403 0.9808 0.49574 0.0
H610 H 0.6808 0.06298 0.5118 0.0
C611 C 0.63464 0.96915 0.52825 0.0
C612 C 0.64431 0.99117 0.55492 0.0
H613 H 0.63066 0.96318 0.47573 0.0
H614 H 0.62069 0.94289 0.53237 0.0
C615 C 0.66246 0.02507 0.54843 0.0
C616 C 0.66901 0.63298 0.02839 0.0
C617 C 0.6567 0.64272 0.05503 0.0
H618 H 0.67108 0.62901 0.97588 0.0
C619 C 0.64111 0.66102 0.0485 0.0
H620 H 0.6812 0.61892 0.03254 0.0
C621 C 0.63557 0.66708 1.01598 0.0
C622 C 0.64517 0.65463 0.98933 0.0
H623 H 0.63154 0.66909 0.06849 0.0
H624 H 0.62176 0.67953 1.01183 0.0
C625 C 0.66313 0.63871 0.99586 0.0
C626 C 0.03751 0.66689 0.52843 0.0
C627 C 0.01545 0.65444 0.55507 0.0
H628 H 0.04358 0.6689 0.47592 0.0
C629 C 0.98156 0.63851 0.54852 0.0
H630 H 0.06376 0.67934 0.5326 0.0
C631 C 0.96996 0.63279 0.51599 0.0
C632 C 0.99204 0.64253 0.48936 0.0
H633 H 0.96391 0.62882 0.5685 0.0
H634 H 0.94371 0.61872 0.51183 0.0
C635 C 0.02592 0.66083 0.4959 0.0
C636 C 0.63467 0.9692 1.01592 0.0
C637 C 0.64435 0.99122 0.98925 0.0
H638 H 0.63069 0.96322 0.06844 0.0
C639 C 0.6625 0.02512 0.99574 0.0
H640 H 0.62071 0.94293 1.01181 0.0
C641 C 0.6685 0.03676 0.02825 0.0
C642 C 0.65612 0.01474 0.05492 0.0
H643 H 0.67052 0.04274 0.97573 0.0
H644 H 0.68085 0.06303 0.03236 0.0
C645 C 0.64033 0.98084 0.04843 0.0
C646 C 0.66897 0.63292 0.51595 0.0
C647 C 0.65666 0.64267 0.48931 0.0
H648 H 0.67104 0.62895 0.56847 0.0
C649 C 0.64107 0.66096 0.49584 0.0
H650 H 0.68116 0.61886 0.5118 0.0
C651 C 0.63553 0.66703 0.52837 0.0
C652 C 0.64513 0.65458 0.55501 0.0
H653 H 0.6315 0.66903 0.47586 0.0
H654 H 0.62172 0.67948 0.53252 0.0
C655 C 0.6631 0.63865 0.54848 0.0
C656 C 0.02596 0.66088 0.04855 0.0
C657 C 0.99208 0.64258 0.05509 0.0
H658 H 0.06381 0.67939 1.01187 0.0
C659 C 0.97001 0.63283 0.02846 0.0
H660 H 0.04361 0.66896 0.06853 0.0
C661 C 0.9816 0.63856 0.99593 0.0
C662 C 0.0155 0.65449 0.98938 0.0
H663 H 0.94376 0.61877 0.03262 0.0
H664 H 0.96395 0.62886 0.97595 0.0
C665 C 0.03755 0.66695 1.01602 0.0
C666 C 0.3685 0.0252 0.54839 0.0
C667 C 0.35272 0.9913 0.55488 0.0
H668 H 0.38811 0.06311 0.51177 0.0
C669 C 0.34036 0.96928 0.52821 0.0
H670 H 0.37812 0.04282 0.56841 0.0
C671 C 0.34636 0.98093 0.4957 0.0
C672 C 0.3645 0.01483 0.48921 0.0
H673 H 0.32803 0.94301 0.53233 0.0
H674 H 0.33836 0.9633 0.47569 0.0
C675 C 0.37416 0.03685 0.51588 0.0
C676 C 0.34613 0.36763 0.04846 0.0
C677 C 0.36409 0.3517 0.055 0.0
H678 H 0.32807 0.38741 1.01177 0.0
C679 C 0.37368 0.33923 0.02836 0.0
H680 H 0.33819 0.37733 0.06844 0.0
C681 C 0.36814 0.34528 0.99584 0.0
C682 C 0.35256 0.36358 0.98929 0.0
H683 H 0.38748 0.32678 0.03253 0.0
H684 H 0.37771 0.3372 0.97586 0.0
C685 C 0.34025 0.37334 1.01593 0.0
C686 C 0.98317 0.34512 0.54858 0.0
C687 C 0.01705 0.36342 0.55511 0.0
H688 H 0.9453 0.3266 0.51191 0.0
C689 C 0.03911 0.37318 0.52846 0.0
H690 H 0.96552 0.33704 0.56857 0.0
C691 C 0.0275 0.36745 0.49594 0.0
C692 C 0.9936 0.35151 0.48941 0.0
H693 H 0.06536 0.38725 0.53261 0.0
H694 H 0.04514 0.37715 0.47595 0.0
C695 C 0.97156 0.33905 0.51606 0.0
C696 C 0.54156 0.1069 0.12428 0.0
C697 C 0.51155 0.07737 0.12756 0.0
H698 H 0.59395 0.13017 0.12248 0.0
C699 C 0.51194 0.04772 0.12971 0.0
H700 H 0.54219 0.13019 0.12247 0.0
C701 C 0.54167 0.04771 0.12971 0.0
C702 C 0.57172 0.07734 0.12757 0.0
H703 H 0.4893 0.02449 0.13213 0.0
H704 H 0.54106 0.02447 0.13215 0.0
C705 C 0.57128 0.10689 0.12429 0.0
C706 C 0.46835 0.57016 0.62425 0.0
C707 C 0.49826 0.57048 0.62773 0.0
H708 H 0.41595 0.54124 0.62223 0.0
C709 C 0.49769 0.54036 0.63004 0.0
H710 H 0.46785 0.59288 0.6223 0.0
C711 C 0.46788 0.5107 0.63 0.0
C712 C 0.43792 0.51044 0.62765 0.0
H713 H 0.52025 0.53966 0.63263 0.0
H714 H 0.46835 0.48801 0.63257 0.0
C715 C 0.43854 0.5405 0.6242 0.0
C716 C 0.90125 0.43594 0.12437 0.0
C717 C 0.93084 0.43563 0.12783 0.0
H718 H 0.87777 0.46486 0.12239 0.0
C719 C 0.9604 0.46575 0.1301 0.0
H720 H 0.87803 0.41322 0.12246 0.0
C721 C 0.96025 0.49541 0.13006 0.0
C722 C 0.93054 0.49566 0.12774 0.0
H723 H 0.98367 0.46645 0.13266 0.0
H724 H 0.98341 0.5181 0.13259 0.0
C725 C 0.9011 0.4656 0.12433 0.0
C726 C 0.46722 0.9584 0.62971 0.0
C727 C 0.43716 0.92877 0.62753 0.0
H728 H 0.51958 0.9816 0.63218 0.0
C729 C 0.4376 0.89922 0.6242 0.0
H730 H 0.46782 0.98163 0.63218 0.0
C731 C 0.46733 0.89921 0.6242 0.0
C732 C 0.49733 0.92874 0.62753 0.0
H733 H 0.41494 0.87595 0.62235 0.0
H734 H 0.4667 0.87592 0.62236 0.0
C735 C 0.49694 0.95838 0.62971 0.0
C736 C 0.54136 0.49556 0.12999 0.0
C737 C 0.57132 0.49581 0.12768 0.0
H738 H 0.48899 0.46662 0.13259 0.0
C739 C 0.57069 0.46574 0.12426 0.0
H740 H 0.5409 0.51826 0.13253 0.0
C741 C 0.54088 0.43609 0.1243 0.0
C742 C 0.51097 0.43578 0.12775 0.0
H743 H 0.59328 0.465 0.12231 0.0
H744 H 0.54137 0.41337 0.12238 0.0
C745 C 0.51155 0.46591 0.13003 0.0
C746 C 0.04884 0.51057 0.63006 0.0
C747 C 0.07855 0.51033 0.62772 0.0
H748 H 0.02541 0.53951 0.63269 0.0
C749 C 0.10799 0.5404 0.62427 0.0
H750 H 0.02569 0.48788 0.63263 0.0
C751 C 0.10782 0.57005 0.6243 0.0
C752 C 0.07822 0.57035 0.62779 0.0
H753 H 0.13132 0.54115 0.6223 0.0
H754 H 0.13104 0.59277 0.62235 0.0
C755 C 0.04868 0.54022 0.6301 0.0
C756 C 0.90104 0.46555 0.42011 0.0
C757 C 0.93049 0.49561 0.41671 0.0
H758 H 0.87796 0.41317 0.42199 0.0
C759 C 0.9602 0.49535 0.41441 0.0
H760 H 0.87771 0.46481 0.42204 0.0
C761 C 0.96034 0.46569 0.41438 0.0
C762 C 0.93078 0.43557 0.41665 0.0
H763 H 0.98336 0.51804 0.41189 0.0
H764 H 0.98361 0.46639 0.41183 0.0
C765 C 0.90119 0.43589 0.42008 0.0
C766 C 0.46737 0.89928 0.91996 0.0
C767 C 0.49738 0.92881 0.91662 0.0
H768 H 0.41498 0.87603 0.9218 0.0
C769 C 0.49699 0.95846 0.91441 0.0
H770 H 0.46674 0.876 0.92182 0.0
C771 C 0.46727 0.95847 0.9144 0.0
C772 C 0.43721 0.92885 0.9166 0.0
H773 H 0.51963 0.98167 0.91194 0.0
H774 H 0.46788 0.9817 0.91192 0.0
C775 C 0.43765 0.8993 0.91995 0.0
C776 C 0.51151 0.46585 0.41431 0.0
C777 C 0.51094 0.43572 0.41658 0.0
H778 H 0.54086 0.5182 0.41181 0.0
C779 C 0.54085 0.43603 0.42003 0.0
H780 H 0.48895 0.46656 0.41175 0.0
C781 C 0.57066 0.46569 0.42007 0.0
C782 C 0.57129 0.49576 0.41665 0.0
H783 H 0.54135 0.41331 0.42195 0.0
H784 H 0.59325 0.46495 0.42201 0.0
C785 C 0.54132 0.4955 0.41435 0.0
C786 C 0.10806 0.54047 0.92018 0.0
C787 C 0.07862 0.51039 0.91675 0.0
H788 H 0.13111 0.59284 0.92208 0.0
C789 C 0.04891 0.51064 0.91442 0.0
H790 H 0.13139 0.54122 0.92214 0.0
C791 C 0.04875 0.54029 0.91438 0.0
C792 C 0.07829 0.57042 0.91667 0.0
H793 H 0.02576 0.48794 0.91186 0.0
H794 H 0.02548 0.53958 0.9118 0.0
C795 C 0.1079 0.57012 0.92015 0.0
C796 C 0.57122 0.10681 0.41987 0.0
C797 C 0.57166 0.07726 0.41657 0.0
H798 H 0.54213 0.13011 0.42169 0.0
C799 C 0.54161 0.04763 0.41441 0.0
H800 H 0.59388 0.13009 0.4217 0.0
C801 C 0.51188 0.04764 0.41441 0.0
C802 C 0.51149 0.07729 0.41657 0.0
H803 H 0.541 0.0244 0.41197 0.0
H804 H 0.48925 0.02442 0.41196 0.0
C805 C 0.54149 0.10682 0.41987 0.0
C806 C 0.46838 0.5702 0.92009 0.0
C807 C 0.49829 0.57052 0.9166 0.0
H808 H 0.41598 0.54128 0.92209 0.0
C809 C 0.49773 0.54041 0.9143 0.0
H810 H 0.46788 0.59292 0.92203 0.0
C811 C 0.46792 0.51075 0.91433 0.0
C812 C 0.43796 0.51048 0.91667 0.0
H813 H 0.52029 0.53971 0.91171 0.0
H814 H 0.46839 0.48806 0.91176 0.0
C815 C 0.43858 0.54054 0.92012 0.0
loop_
_geom_bond_atom_site_label_1
_geom_bond_atom_site_label_2
_geom_bond_distance
_geom_bond_site_symmetry_2
_ccdc_geom_bond_type
O0 Cd1 2.223 . S
O0 C8 1.315 . S
Cd1 O0 2.223 . S
Cd1 O4 2.297 . S
Cd1 O5 2.439 . S
Cd1 O11 2.240 . S
Cd2 O3 2.240 . S
Cd2 O10 2.223 . S
Cd2 O12 2.296 1_545 S
Cd2 O13 2.439 . S
O3 Cd2 2.240 . S
O3 C8 1.279 . S
O4 Cd1 2.297 . S
O4 C6 1.247 . S
O5 Cd1 2.439 . S
O5 C6 1.208 . S
C6 O4 1.247 . S
C6 O5 1.208 . S
C7 O12 1.245 1_545 S
C7 O13 1.208 . S
C8 O0 1.315 . S
C8 O3 1.279 . S
C9 O10 1.315 . S
C9 O11 1.279 . S
O10 Cd2 2.223 . S
O10 C9 1.315 . S
O11 Cd1 2.240 . S
O11 C9 1.279 . S
O12 Cd2 2.296 1_565 S
O12 C7 1.245 1_565 S
O13 Cd2 2.439 . S
O13 C7 1.208 . S
O14 Cd15 2.223 . S
O14 C22 1.315 . S
Cd15 O14 2.223 . S
Cd15 O18 2.297 . S
Cd15 O19 2.439 . S
Cd15 O25 2.240 . S
Cd16 O17 2.240 . S
Cd16 O24 2.223 . S
Cd16 O26 2.297 . S
Cd16 O27 2.439 . S
O17 Cd16 2.240 . S
O17 C22 1.279 . S
O18 Cd15 2.297 . S
O18 C20 1.247 . S
O19 Cd15 2.439 . S
O19 C20 1.208 . S
C20 O18 1.247 . S
C20 O19 1.208 . S
C21 O26 1.247 . S
C21 O27 1.208 . S
C22 O14 1.315 . S
C22 O17 1.279 . S
C23 O24 1.315 . S
C23 O25 1.279 . S
O24 Cd16 2.223 . S
O24 C23 1.315 . S
O25 Cd15 2.240 . S
O25 C23 1.279 . S
O26 Cd16 2.297 . S
O26 C21 1.247 . S
O27 Cd16 2.439 . S
O27 C21 1.208 . S
O28 Cd29 2.223 . S
O28 C36 1.315 . S
Cd29 O28 2.223 . S
Cd29 O32 2.297 . S
Cd29 O33 2.439 . S
Cd29 O39 2.240 . S
Cd30 O31 2.240 . S
Cd30 O38 2.223 . S
Cd30 O40 2.297 1_655 S
Cd30 O41 2.439 . S
O31 Cd30 2.240 . S
O31 C36 1.279 . S
O32 Cd29 2.297 . S
O32 C34 1.247 . S
O33 Cd29 2.439 . S
O33 C34 1.208 . S
C34 O32 1.247 . S
C34 O33 1.208 . S
C35 O40 1.246 1_655 S
C35 O41 1.208 . S
C36 O28 1.315 . S
C36 O31 1.279 . S
C37 O38 1.315 . S
C37 O39 1.279 . S
O38 Cd30 2.223 . S
O38 C37 1.315 . S
O39 Cd29 2.240 . S
O39 C37 1.279 . S
O40 Cd30 2.297 1_455 S
O40 C35 1.246 1_455 S
O41 Cd30 2.439 . S
O41 C35 1.208 . S
O42 Cd43 2.223 . S
O42 C50 1.315 . S
Cd43 O42 2.223 . S
Cd43 O46 2.297 . S
Cd43 O47 2.439 . S
Cd43 O53 2.240 . S
Cd44 O45 2.240 . S
Cd44 O52 2.223 . S
Cd44 O54 2.296 1_565 S
Cd44 O55 2.439 . S
O45 Cd44 2.240 . S
O45 C50 1.279 . S
O46 Cd43 2.297 . S
O46 C48 1.247 . S
O47 Cd43 2.439 . S
O47 C48 1.208 . S
C48 O46 1.247 . S
C48 O47 1.208 . S
C49 O54 1.245 1_565 S
C49 O55 1.208 . S
C50 O42 1.315 . S
C50 O45 1.279 . S
C51 O52 1.315 . S
C51 O53 1.279 . S
O52 Cd44 2.223 . S
O52 C51 1.315 . S
O53 Cd43 2.240 . S
O53 C51 1.279 . S
O54 Cd44 2.296 1_545 S
O54 C49 1.245 1_545 S
O55 Cd44 2.439 . S
O55 C49 1.208 . S
O56 Cd57 2.223 . S
O56 C64 1.315 . S
Cd57 O56 2.223 . S
Cd57 O60 2.297 . S
Cd57 O61 2.439 . S
Cd57 O67 2.240 . S
Cd58 O59 2.240 . S
Cd58 O66 2.223 . S
Cd58 O68 2.297 . S
Cd58 O69 2.439 . S
O59 Cd58 2.240 . S
O59 C64 1.279 . S
O60 Cd57 2.297 . S
O60 C62 1.247 . S
O61 Cd57 2.439 . S
O61 C62 1.208 . S
C62 O60 1.247 . S
C62 O61 1.208 . S
C63 O68 1.247 . S
C63 O69 1.208 . S
C64 O56 1.315 . S
C64 O59 1.279 . S
C65 O66 1.315 . S
C65 O67 1.279 . S
O66 Cd58 2.223 . S
O66 C65 1.315 . S
O67 Cd57 2.240 . S
O67 C65 1.279 . S
O68 Cd58 2.297 . S
O68 C63 1.247 . S
O69 Cd58 2.439 . S
O69 C63 1.208 . S
O70 Cd71 2.223 . S
O70 C78 1.315 . S
Cd71 O70 2.223 . S
Cd71 O74 2.297 . S
Cd71 O75 2.439 . S
Cd71 O81 2.240 . S
Cd72 O73 2.240 . S
Cd72 O80 2.223 . S
Cd72 O82 2.297 1_455 S
Cd72 O83 2.439 . S
O73 Cd72 2.240 . S
O73 C78 1.279 . S
O74 Cd71 2.297 . S
O74 C76 1.247 . S
O75 Cd71 2.439 . S
O75 C76 1.208 . S
C76 O74 1.247 . S
C76 O75 1.208 . S
C77 O82 1.246 1_455 S
C77 O83 1.208 . S
C78 O70 1.315 . S
C78 O73 1.279 . S
C79 O80 1.315 . S
C79 O81 1.279 . S
O80 Cd72 2.223 . S
O80 C79 1.315 . S
O81 Cd71 2.240 . S
O81 C79 1.279 . S
O82 Cd72 2.297 1_655 S
O82 C77 1.246 1_655 S
O83 Cd72 2.439 . S
O83 C77 1.208 . S
O84 Cd85 2.223 . S
O84 C92 1.315 . S
Cd85 O84 2.223 . S
Cd85 O88 2.297 . S
Cd85 O89 2.439 . S
Cd85 O95 2.240 . S
Cd86 O87 2.240 . S
Cd86 O94 2.223 . S
Cd86 O96 2.296 1_655 S
Cd86 O97 2.439 . S
O87 Cd86 2.240 . S
O87 C92 1.279 . S
O88 Cd85 2.297 . S
O88 C90 1.247 . S
O89 Cd85 2.439 . S
O89 C90 1.208 . S
C90 O88 1.247 . S
C90 O89 1.208 . S
C91 O96 1.245 1_655 S
C91 O97 1.208 . S
C92 O84 1.315 . S
C92 O87 1.279 . S
C93 O94 1.315 . S
C93 O95 1.279 . S
O94 Cd86 2.223 . S
O94 C93 1.315 . S
O95 Cd85 2.240 . S
O95 C93 1.279 . S
O96 Cd86 2.296 1_455 S
O96 C91 1.245 1_455 S
O97 Cd86 2.439 . S
O97 C91 1.208 . S
O98 Cd99 2.223 . S
O98 C106 1.315 . S
Cd99 O98 2.223 . S
Cd99 O102 2.297 . S
Cd99 O103 2.439 . S
Cd99 O109 2.240 . S
Cd100 O101 2.240 . S
Cd100 O108 2.223 . S
Cd100 O110 2.297 1_565 S
Cd100 O111 2.439 . S
O101 Cd100 2.240 . S
O101 C106 1.279 . S
O102 Cd99 2.297 . S
O102 C104 1.247 . S
O103 Cd99 2.439 . S
O103 C104 1.208 . S
C104 O102 1.247 . S
C104 O103 1.208 . S
C105 O110 1.246 1_565 S
C105 O111 1.208 . S
C106 O98 1.315 . S
C106 O101 1.279 . S
C107 O108 1.315 . S
C107 O109 1.279 . S
O108 Cd100 2.223 . S
O108 C107 1.315 . S
O109 Cd99 2.240 . S
O109 C107 1.279 . S
O110 Cd100 2.297 1_545 S
O110 C105 1.246 1_545 S
O111 Cd100 2.439 . S
O111 C105 1.208 . S
O112 Cd113 2.223 . S
O112 C120 1.315 . S
Cd113 O112 2.223 . S
Cd113 O116 2.297 . S
Cd113 O117 2.439 . S
Cd113 O123 2.240 . S
Cd114 O115 2.240 . S
Cd114 O122 2.223 . S
Cd114 O124 2.297 . S
Cd114 O125 2.439 . S
O115 Cd114 2.240 . S
O115 C120 1.279 . S
O116 Cd113 2.297 . S
O116 C118 1.247 . S
O117 Cd113 2.439 . S
O117 C118 1.208 . S
C118 O116 1.247 . S
C118 O117 1.208 . S
C119 O124 1.247 . S
C119 O125 1.208 . S
C120 O112 1.315 . S
C120 O115 1.279 . S
C121 O122 1.315 . S
C121 O123 1.279 . S
O122 Cd114 2.223 . S
O122 C121 1.315 . S
O123 Cd113 2.240 . S
O123 C121 1.279 . S
O124 Cd114 2.297 . S
O124 C119 1.247 . S
O125 Cd114 2.439 . S
O125 C119 1.208 . S
O126 Cd127 2.223 . S
O126 C134 1.315 . S
Cd127 O126 2.223 . S
Cd127 O130 2.297 . S
Cd127 O131 2.439 . S
Cd127 O137 2.240 . S
Cd128 O129 2.240 . S
Cd128 O136 2.223 . S
Cd128 O138 2.296 1_455 S
Cd128 O139 2.439 . S
O129 Cd128 2.240 . S
O129 C134 1.279 . S
O130 Cd127 2.297 . S
O130 C132 1.247 . S
O131 Cd127 2.439 . S
O131 C132 1.208 . S
C132 O130 1.247 . S
C132 O131 1.208 . S
C133 O138 1.245 1_455 S
C133 O139 1.208 . S
C134 O126 1.315 . S
C134 O129 1.279 . S
C135 O136 1.315 . S
C135 O137 1.279 . S
O136 Cd128 2.223 . S
O136 C135 1.315 . S
O137 Cd127 2.240 . S
O137 C135 1.279 . S
O138 Cd128 2.296 1_655 S
O138 C133 1.245 1_655 S
O139 Cd128 2.439 . S
O139 C133 1.208 . S
O140 Cd141 2.223 . S
O140 C148 1.315 . S
Cd141 O140 2.223 . S
Cd141 O144 2.297 . S
Cd141 O145 2.439 . S
Cd141 O151 2.240 . S
Cd142 O143 2.240 . S
Cd142 O150 2.223 . S
Cd142 O152 2.297 1_545 S
Cd142 O153 2.439 . S
O143 Cd142 2.240 . S
O143 C148 1.279 . S
O144 Cd141 2.297 . S
O144 C146 1.247 . S
O145 Cd141 2.439 . S
O145 C146 1.208 . S
C146 O144 1.247 . S
C146 O145 1.208 . S
C147 O152 1.246 1_545 S
C147 O153 1.208 . S
C148 O140 1.315 . S
C148 O143 1.279 . S
C149 O150 1.315 . S
C149 O151 1.279 . S
O150 Cd142 2.223 . S
O150 C149 1.315 . S
O151 Cd141 2.240 . S
O151 C149 1.279 . S
O152 Cd142 2.297 1_565 S
O152 C147 1.246 1_565 S
O153 Cd142 2.439 . S
O153 C147 1.208 . S
O154 Cd155 2.223 . S
O154 C162 1.315 . S
Cd155 O154 2.223 . S
Cd155 O158 2.297 . S
Cd155 O159 2.439 . S
Cd155 O165 2.240 . S
Cd156 O157 2.240 . S
Cd156 O164 2.223 . S
Cd156 O166 2.297 . S
Cd156 O167 2.439 . S
O157 Cd156 2.240 . S
O157 C162 1.279 . S
O158 Cd155 2.297 . S
O158 C160 1.247 . S
O159 Cd155 2.439 . S
O159 C160 1.208 . S
C160 O158 1.247 . S
C160 O159 1.208 . S
C161 O166 1.247 . S
C161 O167 1.208 . S
C162 O154 1.315 . S
C162 O157 1.279 . S
C163 O164 1.315 . S
C163 O165 1.279 . S
O164 Cd156 2.223 . S
O164 C163 1.315 . S
O165 Cd155 2.240 . S
O165 C163 1.279 . S
O166 Cd156 2.297 . S
O166 C161 1.247 . S
O167 Cd156 2.439 . S
O167 C161 1.208 . S
O168 Cd169 2.223 . S
O168 C176 1.315 . S
Cd169 O168 2.223 . S
Cd169 O172 2.297 . S
Cd169 O173 2.439 . S
Cd169 O179 2.240 . S
Cd170 O171 2.240 . S
Cd170 O178 2.223 . S
Cd170 O180 2.296 1_565 S
Cd170 O181 2.439 . S
O171 Cd170 2.240 . S
O171 C176 1.279 . S
O172 Cd169 2.297 . S
O172 C174 1.247 . S
O173 Cd169 2.439 . S
O173 C174 1.208 . S
C174 O172 1.247 . S
C174 O173 1.208 . S
C175 O180 1.245 1_565 S
C175 O181 1.208 . S
C176 O168 1.315 . S
C176 O171 1.279 . S
C177 O178 1.315 . S
C177 O179 1.279 . S
O178 Cd170 2.223 . S
O178 C177 1.315 . S
O179 Cd169 2.240 . S
O179 C177 1.279 . S
O180 Cd170 2.296 1_545 S
O180 C175 1.245 1_545 S
O181 Cd170 2.439 . S
O181 C175 1.208 . S
O182 Cd183 2.223 . S
O182 C190 1.315 . S
Cd183 O182 2.223 . S
Cd183 O186 2.297 . S
Cd183 O187 2.439 . S
Cd183 O193 2.240 . S
Cd184 O185 2.240 . S
Cd184 O192 2.223 . S
Cd184 O194 2.297 . S
Cd184 O195 2.439 . S
O185 Cd184 2.240 . S
O185 C190 1.279 . S
O186 Cd183 2.297 . S
O186 C188 1.247 . S
O187 Cd183 2.439 . S
O187 C188 1.208 . S
C188 O186 1.247 . S
C188 O187 1.208 . S
C189 O194 1.247 . S
C189 O195 1.208 . S
C190 O182 1.315 . S
C190 O185 1.279 . S
C191 O192 1.315 . S
C191 O193 1.279 . S
O192 Cd184 2.223 . S
O192 C191 1.315 . S
O193 Cd183 2.240 . S
O193 C191 1.279 . S
O194 Cd184 2.297 . S
O194 C189 1.247 . S
O195 Cd184 2.439 . S
O195 C189 1.208 . S
O196 Cd197 2.223 . S
O196 C204 1.315 . S
Cd197 O196 2.223 . S
Cd197 O200 2.297 . S
Cd197 O201 2.439 . S
Cd197 O207 2.240 . S
Cd198 O199 2.240 . S
Cd198 O206 2.223 . S
Cd198 O208 2.297 1_455 S
Cd198 O209 2.439 . S
O199 Cd198 2.240 . S
O199 C204 1.279 . S
O200 Cd197 2.297 . S
O200 C202 1.247 . S
O201 Cd197 2.439 . S
O201 C202 1.208 . S
C202 O200 1.247 . S
C202 O201 1.208 . S
C203 O208 1.246 1_455 S
C203 O209 1.208 . S
C204 O196 1.315 . S
C204 O199 1.279 . S
C205 O206 1.315 . S
C205 O207 1.279 . S
O206 Cd198 2.223 . S
O206 C205 1.315 . S
O207 Cd197 2.240 . S
O207 C205 1.279 . S
O208 Cd198 2.297 1_655 S
O208 C203 1.246 1_655 S
O209 Cd198 2.439 . S
O209 C203 1.208 . S
O210 Cd211 2.223 . S
O210 C218 1.315 . S
Cd211 O210 2.223 . S
Cd211 O214 2.297 . S
Cd211 O215 2.439 . S
Cd211 O221 2.240 . S
Cd212 O213 2.240 . S
Cd212 O220 2.223 . S
Cd212 O222 2.296 1_545 S
Cd212 O223 2.439 . S
O213 Cd212 2.240 . S
O213 C218 1.279 . S
O214 Cd211 2.297 . S
O214 C216 1.247 . S
O215 Cd211 2.439 . S
O215 C216 1.208 . S
C216 O214 1.247 . S
C216 O215 1.208 . S
C217 O222 1.245 1_545 S
C217 O223 1.208 . S
C218 O210 1.315 . S
C218 O213 1.279 . S
C219 O220 1.315 . S
C219 O221 1.279 . S
O220 Cd212 2.223 . S
O220 C219 1.315 . S
O221 Cd211 2.240 . S
O221 C219 1.279 . S
O222 Cd212 2.296 1_565 S
O222 C217 1.245 1_565 S
O223 Cd212 2.439 . S
O223 C217 1.208 . S
O224 Cd225 2.223 . S
O224 C232 1.315 . S
Cd225 O224 2.223 . S
Cd225 O228 2.297 . S
Cd225 O229 2.439 . S
Cd225 O235 2.240 . S
Cd226 O227 2.240 . S
Cd226 O234 2.223 . S
Cd226 O236 2.297 . S
Cd226 O237 2.439 . S
O227 Cd226 2.240 . S
O227 C232 1.279 . S
O228 Cd225 2.297 . S
O228 C230 1.247 . S
O229 Cd225 2.439 . S
O229 C230 1.208 . S
C230 O228 1.247 . S
C230 O229 1.208 . S
C231 O236 1.247 . S
C231 O237 1.208 . S
C232 O224 1.315 . S
C232 O227 1.279 . S
C233 O234 1.315 . S
C233 O235 1.279 . S
O234 Cd226 2.223 . S
O234 C233 1.315 . S
O235 Cd225 2.240 . S
O235 C233 1.279 . S
O236 Cd226 2.297 . S
O236 C231 1.247 . S
O237 Cd226 2.439 . S
O237 C231 1.208 . S
O238 Cd239 2.223 . S
O238 C246 1.315 . S
Cd239 O238 2.223 . S
Cd239 O242 2.297 . S
Cd239 O243 2.439 . S
Cd239 O249 2.240 . S
Cd240 O241 2.240 . S
Cd240 O248 2.223 . S
Cd240 O250 2.297 1_655 S
Cd240 O251 2.439 . S
O241 Cd240 2.240 . S
O241 C246 1.279 . S
O242 Cd239 2.297 . S
O242 C244 1.247 . S
O243 Cd239 2.439 . S
O243 C244 1.208 . S
C244 O242 1.247 . S
C244 O243 1.208 . S
C245 O250 1.246 1_655 S
C245 O251 1.208 . S
C246 O238 1.315 . S
C246 O241 1.279 . S
C247 O248 1.315 . S
C247 O249 1.279 . S
O248 Cd240 2.223 . S
O248 C247 1.315 . S
O249 Cd239 2.240 . S
O249 C247 1.279 . S
O250 Cd240 2.297 1_455 S
O250 C245 1.246 1_455 S
O251 Cd240 2.439 . S
O251 C245 1.208 . S
O252 Cd253 2.223 . S
O252 C260 1.315 . S
Cd253 O252 2.223 . S
Cd253 O256 2.297 . S
Cd253 O257 2.439 . S
Cd253 O263 2.240 . S
Cd254 O255 2.240 . S
Cd254 O262 2.223 . S
Cd254 O264 2.296 1_455 S
Cd254 O265 2.439 . S
O255 Cd254 2.240 . S
O255 C260 1.279 . S
O256 Cd253 2.297 . S
O256 C258 1.247 . S
O257 Cd253 2.439 . S
O257 C258 1.208 . S
C258 O256 1.247 . S
C258 O257 1.208 . S
C259 O264 1.245 1_455 S
C259 O265 1.208 . S
C260 O252 1.315 . S
C260 O255 1.279 . S
C261 O262 1.315 . S
C261 O263 1.279 . S
O262 Cd254 2.223 . S
O262 C261 1.315 . S
O263 Cd253 2.240 . S
O263 C261 1.279 . S
O264 Cd254 2.296 1_655 S
O264 C259 1.245 1_655 S
O265 Cd254 2.439 . S
O265 C259 1.208 . S
O266 Cd267 2.223 . S
O266 C274 1.315 . S
Cd267 O266 2.223 . S
Cd267 O270 2.297 . S
Cd267 O271 2.439 . S
Cd267 O277 2.240 . S
Cd268 O269 2.240 . S
Cd268 O276 2.223 . S
Cd268 O278 2.297 1_545 S
Cd268 O279 2.439 . S
O269 Cd268 2.240 . S
O269 C274 1.279 . S
O270 Cd267 2.297 . S
O270 C272 1.247 . S
O271 Cd267 2.439 . S
O271 C272 1.208 . S
C272 O270 1.247 . S
C272 O271 1.208 . S
C273 O278 1.246 1_545 S
C273 O279 1.208 . S
C274 O266 1.315 . S
C274 O269 1.279 . S
C275 O276 1.315 . S
C275 O277 1.279 . S
O276 Cd268 2.223 . S
O276 C275 1.315 . S
O277 Cd267 2.240 . S
O277 C275 1.279 . S
O278 Cd268 2.297 1_565 S
O278 C273 1.246 1_565 S
O279 Cd268 2.439 . S
O279 C273 1.208 . S
O280 Cd281 2.223 . S
O280 C288 1.315 . S
Cd281 O280 2.223 . S
Cd281 O284 2.297 . S
Cd281 O285 2.439 . S
Cd281 O291 2.240 . S
Cd282 O283 2.240 . S
Cd282 O290 2.223 . S
Cd282 O292 2.297 . S
Cd282 O293 2.439 . S
O283 Cd282 2.240 . S
O283 C288 1.279 . S
O284 Cd281 2.297 . S
O284 C286 1.247 . S
O285 Cd281 2.439 . S
O285 C286 1.208 . S
C286 O284 1.247 . S
C286 O285 1.208 . S
C287 O292 1.247 . S
C287 O293 1.208 . S
C288 O280 1.315 . S
C288 O283 1.279 . S
C289 O290 1.315 . S
C289 O291 1.279 . S
O290 Cd282 2.223 . S
O290 C289 1.315 . S
O291 Cd281 2.240 . S
O291 C289 1.279 . S
O292 Cd282 2.297 . S
O292 C287 1.247 . S
O293 Cd282 2.439 . S
O293 C287 1.208 . S
O294 Cd295 2.223 . S
O294 C302 1.315 . S
Cd295 O294 2.223 . S
Cd295 O298 2.297 . S
Cd295 O299 2.439 . S
Cd295 O305 2.240 . S
Cd296 O297 2.240 . S
Cd296 O304 2.223 . S
Cd296 O306 2.296 1_655 S
Cd296 O307 2.439 . S
O297 Cd296 2.240 . S
O297 C302 1.279 . S
O298 Cd295 2.297 . S
O298 C300 1.247 . S
O299 Cd295 2.439 . S
O299 C300 1.208 . S
C300 O298 1.247 . S
C300 O299 1.208 . S
C301 O306 1.245 1_655 S
C301 O307 1.208 . S
C302 O294 1.315 . S
C302 O297 1.279 . S
C303 O304 1.315 . S
C303 O305 1.279 . S
O304 Cd296 2.223 . S
O304 C303 1.315 . S
O305 Cd295 2.240 . S
O305 C303 1.279 . S
O306 Cd296 2.296 1_455 S
O306 C301 1.245 1_455 S
O307 Cd296 2.439 . S
O307 C301 1.208 . S
O308 Cd309 2.223 . S
O308 C316 1.315 . S
Cd309 O308 2.223 . S
Cd309 O312 2.297 . S
Cd309 O313 2.439 . S
Cd309 O319 2.240 . S
Cd310 O311 2.240 . S
Cd310 O318 2.223 . S
Cd310 O320 2.297 1_565 S
Cd310 O321 2.439 . S
O311 Cd310 2.240 . S
O311 C316 1.279 . S
O312 Cd309 2.297 . S
O312 C314 1.247 . S
O313 Cd309 2.439 . S
O313 C314 1.208 . S
C314 O312 1.247 . S
C314 O313 1.208 . S
C315 O320 1.246 1_565 S
C315 O321 1.208 . S
C316 O308 1.315 . S
C316 O311 1.279 . S
C317 O318 1.315 . S
C317 O319 1.279 . S
O318 Cd310 2.223 . S
O318 C317 1.315 . S
O319 Cd309 2.240 . S
O319 C317 1.279 . S
O320 Cd310 2.297 1_545 S
O320 C315 1.246 1_545 S
O321 Cd310 2.439 . S
O321 C315 1.208 . S
O322 Cd323 2.223 . S
O322 C330 1.315 . S
Cd323 O322 2.223 . S
Cd323 O326 2.297 . S
Cd323 O327 2.439 . S
Cd323 O333 2.240 . S
Cd324 O325 2.240 . S
Cd324 O332 2.223 . S
Cd324 O334 2.297 . S
Cd324 O335 2.439 . S
O325 Cd324 2.240 . S
O325 C330 1.279 . S
O326 Cd323 2.297 . S
O326 C328 1.247 . S
O327 Cd323 2.439 . S
O327 C328 1.208 . S
C328 O326 1.247 . S
C328 O327 1.208 . S
C329 O334 1.247 . S
C329 O335 1.208 . S
C330 O322 1.315 . S
C330 O325 1.279 . S
C331 O332 1.315 . S
C331 O333 1.279 . S
O332 Cd324 2.223 . S
O332 C331 1.315 . S
O333 Cd323 2.240 . S
O333 C331 1.279 . S
O334 Cd324 2.297 . S
O334 C329 1.247 . S
O335 Cd324 2.439 . S
O335 C329 1.208 . S
C336 C337 1.387 . S
C336 H340 0.950 . S
C336 C345 1.390 . S
C337 C336 1.387 . S
C337 C339 1.387 . S
H338 C345 0.950 . S
C339 C337 1.387 . S
C339 C341 1.390 . S
C339 H343 0.950 . S
H340 C336 0.950 . S
C341 C339 1.390 . S
C341 C342 1.387 . S
C341 H344 0.950 . S
C342 C341 1.387 . S
C342 C345 1.387 . S
H343 C339 0.950 . S
H344 C341 0.950 . S
C345 C336 1.390 . S
C345 H338 0.950 . S
C345 C342 1.387 . S
C346 C347 1.387 . S
C346 H350 0.950 . S
C346 C355 1.390 . S
C347 C346 1.387 . S
C347 C349 1.387 . S
H348 C355 0.950 . S
C349 C347 1.387 . S
C349 C351 1.390 . S
C349 H353 0.950 . S
H350 C346 0.950 . S
C351 C349 1.390 . S
C351 C352 1.387 . S
C351 H354 0.950 . S
C352 C351 1.387 . S
C352 C355 1.387 . S
H353 C349 0.950 . S
H354 C351 0.950 . S
C355 C346 1.390 . S
C355 H348 0.950 . S
C355 C352 1.387 . S
C356 C357 1.387 . S
C356 H360 0.950 . S
C356 C365 1.390 . S
C357 C356 1.387 . S
C357 C359 1.387 . S
H358 C365 0.950 . S
C359 C357 1.387 . S
C359 C361 1.390 . S
C359 H363 0.950 . S
H360 C356 0.950 . S
C361 C359 1.390 . S
C361 C362 1.387 . S
C361 H364 0.950 . S
C362 C361 1.387 . S
C362 C365 1.387 . S
H363 C359 0.950 . S
H364 C361 0.950 . S
C365 C356 1.390 . S
C365 H358 0.950 . S
C365 C362 1.387 . S
C366 C367 1.387 . S
C366 H370 0.950 . S
C366 C375 1.390 . S
C367 C366 1.387 . S
C367 C369 1.387 . S
H368 C375 0.950 . S
C369 C367 1.387 . S
C369 C371 1.390 . S
C369 H373 0.950 . S
H370 C366 0.950 . S
C371 C369 1.390 . S
C371 C372 1.387 . S
C371 H374 0.950 . S
C372 C371 1.387 . S
C372 C375 1.387 . S
H373 C369 0.950 . S
H374 C371 0.950 . S
C375 C366 1.390 . S
C375 H368 0.950 . S
C375 C372 1.387 . S
C376 C377 1.387 . S
C376 H380 0.950 . S
C376 C385 1.390 . S
C377 C376 1.387 . S
C377 C379 1.387 . S
H378 C385 0.950 . S
C379 C377 1.387 . S
C379 C381 1.390 . S
C379 H383 0.950 . S
H380 C376 0.950 . S
C381 C379 1.390 . S
C381 C382 1.387 . S
C381 H384 0.950 . S
C382 C381 1.387 . S
C382 C385 1.387 . S
H383 C379 0.950 . S
H384 C381 0.950 . S
C385 C376 1.390 . S
C385 H378 0.950 . S
C385 C382 1.387 . S
C386 C387 1.387 . S
C386 H390 0.950 . S
C386 C395 1.390 . S
C387 C386 1.387 . S
C387 C389 1.387 . S
H388 C395 0.950 . S
C389 C387 1.387 . S
C389 C391 1.390 . S
C389 H393 0.950 . S
H390 C386 0.950 . S
C391 C389 1.390 . S
C391 C392 1.387 . S
C391 H394 0.950 . S
C392 C391 1.387 . S
C392 C395 1.387 . S
H393 C389 0.950 . S
H394 C391 0.950 . S
C395 C386 1.390 . S
C395 H388 0.950 . S
C395 C392 1.387 . S
C396 C397 1.387 . S
C396 H400 0.950 . S
C396 C405 1.390 . S
C397 C396 1.387 . S
C397 C399 1.387 . S
H398 C405 0.950 . S
C399 C397 1.387 . S
C399 C401 1.390 . S
C399 H403 0.950 . S
H400 C396 0.950 . S
C401 C399 1.390 . S
C401 C402 1.387 . S
C401 H404 0.950 . S
C402 C401 1.387 . S
C402 C405 1.387 . S
H403 C399 0.950 . S
H404 C401 0.950 . S
C405 C396 1.390 . S
C405 H398 0.950 . S
C405 C402 1.387 . S
C406 C407 1.387 . S
C406 H410 0.950 . S
C406 C415 1.390 . S
C407 C406 1.387 . S
C407 C409 1.387 . S
H408 C415 0.950 . S
C409 C407 1.387 . S
C409 C411 1.390 . S
C409 H413 0.950 . S
H410 C406 0.950 . S
C411 C409 1.390 . S
C411 C412 1.387 . S
C411 H414 0.950 . S
C412 C411 1.387 . S
C412 C415 1.387 . S
H413 C409 0.950 . S
H414 C411 0.950 . S
C415 C406 1.390 . S
C415 H408 0.950 . S
C415 C412 1.387 . S
C416 C417 1.387 . S
C416 H420 0.950 . S
C416 C425 1.390 . S
C417 C416 1.387 . S
C417 C419 1.387 . S
H418 C425 0.950 . S
C419 C417 1.387 . S
C419 C421 1.390 . S
C419 H423 0.950 . S
H420 C416 0.950 . S
C421 C419 1.390 . S
C421 C422 1.387 . S
C421 H424 0.950 . S
C422 C421 1.387 . S
C422 C425 1.387 . S
H423 C419 0.950 . S
H424 C421 0.950 . S
C425 C416 1.390 . S
C425 H418 0.950 . S
C425 C422 1.387 . S
C426 C427 1.387 . S
C426 H430 0.950 . S
C426 C435 1.390 . S
C427 C426 1.387 . S
C427 C429 1.387 . S
H428 C435 0.950 . S
C429 C427 1.387 . S
C429 C431 1.390 . S
C429 H433 0.950 . S
H430 C426 0.950 . S
C431 C429 1.390 . S
C431 C432 1.387 . S
C431 H434 0.950 . S
C432 C431 1.387 . S
C432 C435 1.387 . S
H433 C429 0.950 . S
H434 C431 0.950 . S
C435 C426 1.390 . S
C435 H428 0.950 . S
C435 C432 1.387 . S
C436 C437 1.387 . S
C436 H440 0.950 . S
C436 C445 1.390 . S
C437 C436 1.387 . S
C437 C439 1.387 . S
H438 C445 0.950 . S
C439 C437 1.387 . S
C439 C441 1.390 . S
C439 H443 0.950 . S
H440 C436 0.950 . S
C441 C439 1.390 . S
C441 C442 1.387 . S
C441 H444 0.950 . S
C442 C441 1.387 . S
C442 C445 1.387 . S
H443 C439 0.950 . S
H444 C441 0.950 . S
C445 C436 1.390 . S
C445 H438 0.950 . S
C445 C442 1.387 . S
C446 C447 1.387 . S
C446 H450 0.950 . S
C446 C455 1.390 . S
C447 C446 1.387 . S
C447 C449 1.387 . S
H448 C455 0.950 . S
C449 C447 1.387 . S
C449 C451 1.390 . S
C449 H453 0.950 . S
H450 C446 0.950 . S
C451 C449 1.390 . S
C451 C452 1.387 . S
C451 H454 0.950 . S
C452 C451 1.387 . S
C452 C455 1.387 . S
H453 C449 0.950 . S
H454 C451 0.950 . S
C455 C446 1.390 . S
C455 H448 0.950 . S
C455 C452 1.387 . S
C456 C457 1.387 . S
C456 H460 0.950 . S
C456 C465 1.390 . S
C457 C456 1.387 . S
C457 C459 1.387 . S
H458 C465 0.950 . S
C459 C457 1.387 . S
C459 C461 1.390 . S
C459 H463 0.950 . S
H460 C456 0.950 . S
C461 C459 1.390 . S
C461 C462 1.387 . S
C461 H464 0.950 . S
C462 C461 1.387 . S
C462 C465 1.387 . S
H463 C459 0.950 . S
H464 C461 0.950 . S
C465 C456 1.390 . S
C465 H458 0.950 . S
C465 C462 1.387 . S
C466 C467 1.387 . S
C466 H470 0.950 . S
C466 C475 1.390 . S
C467 C466 1.387 . S
C467 C469 1.387 . S
H468 C475 0.950 . S
C469 C467 1.387 . S
C469 C471 1.390 . S
C469 H473 0.950 . S
H470 C466 0.950 . S
C471 C469 1.390 . S
C471 C472 1.387 . S
C471 H474 0.950 . S
C472 C471 1.387 . S
C472 C475 1.387 . S
H473 C469 0.950 . S
H474 C471 0.950 . S
C475 C466 1.390 . S
C475 H468 0.950 . S
C475 C472 1.387 . S
C476 C477 1.387 . S
C476 H480 0.950 . S
C476 C485 1.390 . S
C477 C476 1.387 . S
C477 C479 1.387 . S
H478 C485 0.950 . S
C479 C477 1.387 . S
C479 C481 1.390 . S
C479 H483 0.950 . S
H480 C476 0.950 . S
C481 C479 1.390 . S
C481 C482 1.387 . S
C481 H484 0.950 . S
C482 C481 1.387 . S
C482 C485 1.387 . S
H483 C479 0.950 . S
H484 C481 0.950 . S
C485 C476 1.390 . S
C485 H478 0.950 . S
C485 C482 1.387 . S
C486 C487 1.387 . S
C486 H490 0.950 . S
C486 C495 1.390 . S
C487 C486 1.387 . S
C487 C489 1.387 . S
H488 C495 0.950 . S
C489 C487 1.387 . S
C489 C491 1.390 . S
C489 H493 0.950 . S
H490 C486 0.950 . S
C491 C489 1.390 . S
C491 C492 1.387 . S
C491 H494 0.950 . S
C492 C491 1.387 . S
C492 C495 1.387 . S
H493 C489 0.950 . S
H494 C491 0.950 . S
C495 C486 1.390 . S
C495 H488 0.950 . S
C495 C492 1.387 . S
C496 C497 1.387 . S
C496 H500 0.950 . S
C496 C505 1.390 . S
C497 C496 1.387 . S
C497 C499 1.387 . S
H498 C505 0.950 . S
C499 C497 1.387 . S
C499 C501 1.390 . S
C499 H503 0.950 . S
H500 C496 0.950 . S
C501 C499 1.390 . S
C501 C502 1.387 . S
C501 H504 0.950 . S
C502 C501 1.387 . S
C502 C505 1.387 . S
H503 C499 0.950 . S
H504 C501 0.950 . S
C505 C496 1.390 . S
C505 H498 0.950 . S
C505 C502 1.387 . S
C506 C507 1.387 . S
C506 H510 0.950 . S
C506 C515 1.390 . S
C507 C506 1.387 . S
C507 C509 1.387 . S
H508 C515 0.950 . S
C509 C507 1.387 . S
C509 C511 1.390 . S
C509 H513 0.950 . S
H510 C506 0.950 . S
C511 C509 1.390 . S
C511 C512 1.387 . S
C511 H514 0.950 . S
C512 C511 1.387 . S
C512 C515 1.387 . S
H513 C509 0.950 . S
H514 C511 0.950 . S
C515 C506 1.390 . S
C515 H508 0.950 . S
C515 C512 1.387 . S
C516 C517 1.387 . S
C516 H520 0.950 . S
C516 C525 1.390 . S
C517 C516 1.387 . S
C517 C519 1.387 . S
H518 C525 0.950 . S
C519 C517 1.387 . S
C519 C521 1.390 . S
C519 H523 0.950 . S
H520 C516 0.950 . S
C521 C519 1.390 . S
C521 C522 1.387 . S
C521 H524 0.950 . S
C522 C521 1.387 . S
C522 C525 1.387 . S
H523 C519 0.950 . S
H524 C521 0.950 . S
C525 C516 1.390 . S
C525 H518 0.950 . S
C525 C522 1.387 . S
C526 C527 1.387 . S
C526 H530 0.950 . S
C526 C535 1.390 . S
C527 C526 1.387 . S
C527 C529 1.387 . S
H528 C535 0.950 . S
C529 C527 1.387 . S
C529 C531 1.390 . S
C529 H533 0.950 . S
H530 C526 0.950 . S
C531 C529 1.390 . S
C531 C532 1.387 . S
C531 H534 0.950 . S
C532 C531 1.387 . S
C532 C535 1.387 . S
H533 C529 0.950 . S
H534 C531 0.950 . S
C535 C526 1.390 . S
C535 H528 0.950 . S
C535 C532 1.387 . S
C536 C537 1.387 . S
C536 H540 0.950 . S
C536 C545 1.390 . S
C537 C536 1.387 . S
C537 C539 1.387 . S
H538 C545 0.950 . S
C539 C537 1.387 . S
C539 C541 1.390 . S
C539 H543 0.950 . S
H540 C536 0.950 . S
C541 C539 1.390 . S
C541 C542 1.387 . S
C541 H544 0.950 . S
C542 C541 1.387 . S
C542 C545 1.387 . S
H543 C539 0.950 . S
H544 C541 0.950 . S
C545 C536 1.390 . S
C545 H538 0.950 . S
C545 C542 1.387 . S
C546 C547 1.387 . S
C546 H550 0.950 . S
C546 C555 1.390 . S
C547 C546 1.387 . S
C547 C549 1.387 . S
H548 C555 0.950 . S
C549 C547 1.387 . S
C549 C551 1.390 . S
C549 H553 0.950 . S
H550 C546 0.950 . S
C551 C549 1.390 . S
C551 C552 1.387 . S
C551 H554 0.950 . S
C552 C551 1.387 . S
C552 C555 1.387 . S
H553 C549 0.950 . S
H554 C551 0.950 . S
C555 C546 1.390 . S
C555 H548 0.950 . S
C555 C552 1.387 . S
C556 C557 1.387 . S
C556 H560 0.950 . S
C556 C565 1.390 . S
C557 C556 1.387 . S
C557 C559 1.387 . S
H558 C565 0.950 . S
C559 C557 1.387 . S
C559 C561 1.390 . S
C559 H563 0.950 . S
H560 C556 0.950 . S
C561 C559 1.390 . S
C561 C562 1.387 . S
C561 H564 0.950 . S
C562 C561 1.387 . S
C562 C565 1.387 . S
H563 C559 0.950 . S
H564 C561 0.950 . S
C565 C556 1.390 . S
C565 H558 0.950 . S
C565 C562 1.387 . S
C566 C567 1.387 . S
C566 H570 0.950 . S
C566 C575 1.390 . S
C567 C566 1.387 . S
C567 C569 1.387 . S
H568 C575 0.950 . S
C569 C567 1.387 . S
C569 C571 1.390 . S
C569 H573 0.950 . S
H570 C566 0.950 . S
C571 C569 1.390 . S
C571 C572 1.387 . S
C571 H574 0.950 . S
C572 C571 1.387 . S
C572 C575 1.387 . S
H573 C569 0.950 . S
H574 C571 0.950 . S
C575 C566 1.390 . S
C575 H568 0.950 . S
C575 C572 1.387 . S
C576 C577 1.387 . S
C576 H580 0.950 . S
C576 C585 1.390 1_566 S
C577 C576 1.387 . S
C577 C579 1.387 . S
H578 C585 0.950 . S
C579 C577 1.387 . S
C579 C581 1.390 1_566 S
C579 H583 0.950 . S
H580 C576 0.950 . S
C581 C579 1.390 1_544 S
C581 C582 1.387 . S
C581 H584 0.950 . S
C582 C581 1.387 . S
C582 C585 1.387 . S
H583 C579 0.950 . S
H584 C581 0.950 . S
C585 C576 1.390 1_544 S
C585 H578 0.950 . S
C585 C582 1.387 . S
C586 C587 1.387 . S
C586 H590 0.950 . S
C586 C595 1.390 . S
C587 C586 1.387 . S
C587 C589 1.387 . S
H588 C595 0.950 . S
C589 C587 1.387 . S
C589 C591 1.390 . S
C589 H593 0.950 . S
H590 C586 0.950 . S
C591 C589 1.390 . S
C591 C592 1.387 . S
C591 H594 0.950 . S
C592 C591 1.387 . S
C592 C595 1.387 . S
H593 C589 0.950 . S
H594 C591 0.950 . S
C595 C586 1.390 . S
C595 H588 0.950 . S
C595 C592 1.387 . S
C596 C597 1.387 . S
C596 H600 0.950 . S
C596 C605 1.390 1_556 S
C597 C596 1.387 . S
C597 C599 1.387 1_455 S
H598 C605 0.950 . S
C599 C597 1.387 1_655 S
C599 C601 1.390 1_556 S
C599 H603 0.950 . S
H600 C596 0.950 . S
C601 C599 1.390 1_554 S
C601 C602 1.387 . S
C601 H604 0.950 . S
C602 C601 1.387 . S
C602 C605 1.387 1_655 S
H603 C599 0.950 . S
H604 C601 0.950 . S
C605 C596 1.390 1_554 S
C605 H598 0.950 . S
C605 C602 1.387 1_455 S
C606 C607 1.387 . S
C606 H610 0.950 . S
C606 C615 1.390 1_545 S
C607 C606 1.387 . S
C607 C609 1.387 . S
H608 C615 0.950 . S
C609 C607 1.387 . S
C609 C611 1.390 1_545 S
C609 H613 0.950 . S
H610 C606 0.950 . S
C611 C609 1.390 1_565 S
C611 C612 1.387 . S
C611 H614 0.950 . S
C612 C611 1.387 . S
C612 C615 1.387 . S
H613 C609 0.950 . S
H614 C611 0.950 . S
C615 C606 1.390 1_565 S
C615 H608 0.950 . S
C615 C612 1.387 . S
C616 C617 1.387 . S
C616 H620 0.950 . S
C616 C625 1.390 1_554 S
C617 C616 1.387 . S
C617 C619 1.387 . S
H618 C625 0.950 . S
C619 C617 1.387 . S
C619 C621 1.390 1_554 S
C619 H623 0.950 . S
H620 C616 0.950 . S
C621 C619 1.390 1_556 S
C621 C622 1.387 . S
C621 H624 0.950 . S
C622 C621 1.387 . S
C622 C625 1.387 . S
H623 C619 0.950 . S
H624 C621 0.950 . S
C625 C616 1.390 1_556 S
C625 H618 0.950 . S
C625 C622 1.387 . S
C626 C627 1.387 . S
C626 H630 0.950 . S
C626 C635 1.390 . S
C627 C626 1.387 . S
C627 C629 1.387 1_455 S
H628 C635 0.950 . S
C629 C627 1.387 1_655 S
C629 C631 1.390 . S
C629 H633 0.950 . S
H630 C626 0.950 . S
C631 C629 1.390 . S
C631 C632 1.387 . S
C631 H634 0.950 . S
C632 C631 1.387 . S
C632 C635 1.387 1_655 S
H633 C629 0.950 . S
H634 C631 0.950 . S
C635 C626 1.390 . S
C635 H628 0.950 . S
C635 C632 1.387 1_455 S
C636 C637 1.387 . S
C636 H640 0.950 . S
C636 C645 1.390 1_566 S
C637 C636 1.387 . S
C637 C639 1.387 . S
H638 C645 0.950 . S
C639 C637 1.387 . S
C639 C641 1.390 1_566 S
C639 H643 0.950 . S
H640 C636 0.950 . S
C641 C639 1.390 1_544 S
C641 C642 1.387 . S
C641 H644 0.950 . S
C642 C641 1.387 . S
C642 C645 1.387 . S
H643 C639 0.950 . S
H644 C641 0.950 . S
C645 C636 1.390 1_544 S
C645 H638 0.950 . S
C645 C642 1.387 . S
C646 C647 1.387 . S
C646 H650 0.950 . S
C646 C655 1.390 . S
C647 C646 1.387 . S
C647 C649 1.387 . S
H648 C655 0.950 . S
C649 C647 1.387 . S
C649 C651 1.390 . S
C649 H653 0.950 . S
H650 C646 0.950 . S
C651 C649 1.390 . S
C651 C652 1.387 . S
C651 H654 0.950 . S
C652 C651 1.387 . S
C652 C655 1.387 . S
H653 C649 0.950 . S
H654 C651 0.950 . S
C655 C646 1.390 . S
C655 H648 0.950 . S
C655 C652 1.387 . S
C656 C657 1.387 1_455 S
C656 H660 0.950 . S
C656 C665 1.390 1_554 S
C657 C656 1.387 1_655 S
C657 C659 1.387 . S
H658 C665 0.950 . S
C659 C657 1.387 . S
C659 C661 1.390 1_554 S
C659 H663 0.950 . S
H660 C656 0.950 . S
C661 C659 1.390 1_556 S
C661 C662 1.387 1_655 S
C661 H664 0.950 . S
C662 C661 1.387 1_455 S
C662 C665 1.387 . S
H663 C659 0.950 . S
H664 C661 0.950 . S
C665 C656 1.390 1_556 S
C665 H658 0.950 . S
C665 C662 1.387 . S
C666 C667 1.387 . S
C666 H670 0.950 . S
C666 C675 1.390 1_565 S
C667 C666 1.387 . S
C667 C669 1.387 . S
H668 C675 0.950 . S
C669 C667 1.387 . S
C669 C671 1.390 1_565 S
C669 H673 0.950 . S
H670 C666 0.950 . S
C671 C669 1.390 1_545 S
C671 C672 1.387 . S
C671 H674 0.950 . S
C672 C671 1.387 . S
C672 C675 1.387 . S
H673 C669 0.950 . S
H674 C671 0.950 . S
C675 C666 1.390 1_545 S
C675 H668 0.950 . S
C675 C672 1.387 . S
C676 C677 1.387 . S
C676 H680 0.950 . S
C676 C685 1.390 1_554 S
C677 C676 1.387 . S
C677 C679 1.387 . S
H678 C685 0.950 . S
C679 C677 1.387 . S
C679 C681 1.390 1_554 S
C679 H683 0.950 . S
H680 C676 0.950 . S
C681 C679 1.390 1_556 S
C681 C682 1.387 . S
C681 H684 0.950 . S
C682 C681 1.387 . S
C682 C685 1.387 . S
H683 C679 0.950 . S
H684 C681 0.950 . S
C685 C676 1.390 1_556 S
C685 H678 0.950 . S
C685 C682 1.387 . S
C686 C687 1.387 . S
C686 H690 0.950 . S
C686 C695 1.390 1_455 S
C687 C686 1.387 . S
C687 C689 1.387 . S
H688 C695 0.950 . S
C689 C687 1.387 . S
C689 C691 1.390 1_455 S
C689 H693 0.950 . S
H690 C686 0.950 . S
C691 C689 1.390 1_655 S
C691 C692 1.387 . S
C691 H694 0.950 . S
C692 C691 1.387 . S
C692 C695 1.387 . S
H693 C689 0.950 . S
H694 C691 0.950 . S
C695 C686 1.390 1_655 S
C695 H688 0.950 . S
C695 C692 1.387 . S
C696 C697 1.387 . S
C696 H700 0.950 . S
C696 C705 1.390 . S
C697 C696 1.387 . S
C697 C699 1.387 . S
H698 C705 0.950 . S
C699 C697 1.387 . S
C699 C701 1.390 . S
C699 H703 0.950 . S
H700 C696 0.950 . S
C701 C699 1.390 . S
C701 C702 1.387 . S
C701 H704 0.950 . S
C702 C701 1.387 . S
C702 C705 1.387 . S
H703 C699 0.950 . S
H704 C701 0.950 . S
C705 C696 1.390 . S
C705 H698 0.950 . S
C705 C702 1.387 . S
C706 C707 1.387 . S
C706 H710 0.950 . S
C706 C715 1.390 . S
C707 C706 1.387 . S
C707 C709 1.387 . S
H708 C715 0.950 . S
C709 C707 1.387 . S
C709 C711 1.390 . S
C709 H713 0.950 . S
H710 C706 0.950 . S
C711 C709 1.390 . S
C711 C712 1.387 . S
C711 H714 0.950 . S
C712 C711 1.387 . S
C712 C715 1.387 . S
H713 C709 0.950 . S
H714 C711 0.950 . S
C715 C706 1.390 . S
C715 H708 0.950 . S
C715 C712 1.387 . S
C716 C717 1.387 . S
C716 H720 0.950 . S
C716 C725 1.390 . S
C717 C716 1.387 . S
C717 C719 1.387 . S
H718 C725 0.950 . S
C719 C717 1.387 . S
C719 C721 1.390 . S
C719 H723 0.950 . S
H720 C716 0.950 . S
C721 C719 1.390 . S
C721 C722 1.387 . S
C721 H724 0.950 . S
C722 C721 1.387 . S
C722 C725 1.387 . S
H723 C719 0.950 . S
H724 C721 0.950 . S
C725 C716 1.390 . S
C725 H718 0.950 . S
C725 C722 1.387 . S
C726 C727 1.387 . S
C726 H730 0.950 . S
C726 C735 1.390 . S
C727 C726 1.387 . S
C727 C729 1.387 . S
H728 C735 0.950 . S
C729 C727 1.387 . S
C729 C731 1.390 . S
C729 H733 0.950 . S
H730 C726 0.950 . S
C731 C729 1.390 . S
C731 C732 1.387 . S
C731 H734 0.950 . S
C732 C731 1.387 . S
C732 C735 1.387 . S
H733 C729 0.950 . S
H734 C731 0.950 . S
C735 C726 1.390 . S
C735 H728 0.950 . S
C735 C732 1.387 . S
C736 C737 1.387 . S
C736 H740 0.950 . S
C736 C745 1.390 . S
C737 C736 1.387 . S
C737 C739 1.387 . S
H738 C745 0.950 . S
C739 C737 1.387 . S
C739 C741 1.390 . S
C739 H743 0.950 . S
H740 C736 0.950 . S
C741 C739 1.390 . S
C741 C742 1.387 . S
C741 H744 0.950 . S
C742 C741 1.387 . S
C742 C745 1.387 . S
H743 C739 0.950 . S
H744 C741 0.950 . S
C745 C736 1.390 . S
C745 H738 0.950 . S
C745 C742 1.387 . S
C746 C747 1.387 . S
C746 H750 0.950 . S
C746 C755 1.390 . S
C747 C746 1.387 . S
C747 C749 1.387 . S
H748 C755 0.950 . S
C749 C747 1.387 . S
C749 C751 1.390 . S
C749 H753 0.950 . S
H750 C746 0.950 . S
C751 C749 1.390 . S
C751 C752 1.387 . S
C751 H754 0.950 . S
C752 C751 1.387 . S
C752 C755 1.387 . S
H753 C749 0.950 . S
H754 C751 0.950 . S
C755 C746 1.390 . S
C755 H748 0.950 . S
C755 C752 1.387 . S
C756 C757 1.387 . S
C756 H760 0.950 . S
C756 C765 1.390 . S
C757 C756 1.387 . S
C757 C759 1.387 . S
H758 C765 0.950 . S
C759 C757 1.387 . S
C759 C761 1.390 . S
C759 H763 0.950 . S
H760 C756 0.950 . S
C761 C759 1.390 . S
C761 C762 1.387 . S
C761 H764 0.950 . S
C762 C761 1.387 . S
C762 C765 1.387 . S
H763 C759 0.950 . S
H764 C761 0.950 . S
C765 C756 1.390 . S
C765 H758 0.950 . S
C765 C762 1.387 . S
C766 C767 1.387 . S
C766 H770 0.950 . S
C766 C775 1.390 . S
C767 C766 1.387 . S
C767 C769 1.387 . S
H768 C775 0.950 . S
C769 C767 1.387 . S
C769 C771 1.390 . S
C769 H773 0.950 . S
H770 C766 0.950 . S
C771 C769 1.390 . S
C771 C772 1.387 . S
C771 H774 0.950 . S
C772 C771 1.387 . S
C772 C775 1.387 . S
H773 C769 0.950 . S
H774 C771 0.950 . S
C775 C766 1.390 . S
C775 H768 0.950 . S
C775 C772 1.387 . S
C776 C777 1.387 . S
C776 H780 0.950 . S
C776 C785 1.390 . S
C777 C776 1.387 . S
C777 C779 1.387 . S
H778 C785 0.950 . S
C779 C777 1.387 . S
C779 C781 1.390 . S
C779 H783 0.950 . S
H780 C776 0.950 . S
C781 C779 1.390 . S
C781 C782 1.387 . S
C781 H784 0.950 . S
C782 C781 1.387 . S
C782 C785 1.387 . S
H783 C779 0.950 . S
H784 C781 0.950 . S
C785 C776 1.390 . S
C785 H778 0.950 . S
C785 C782 1.387 . S
C786 C787 1.387 . S
C786 H790 0.950 . S
C786 C795 1.390 . S
C787 C786 1.387 . S
C787 C789 1.387 . S
H788 C795 0.950 . S
C789 C787 1.387 . S
C789 C791 1.390 . S
C789 H793 0.950 . S
H790 C786 0.950 . S
C791 C789 1.390 . S
C791 C792 1.387 . S
C791 H794 0.950 . S
C792 C791 1.387 . S
C792 C795 1.387 . S
H793 C789 0.950 . S
H794 C791 0.950 . S
C795 C786 1.390 . S
C795 H788 0.950 . S
C795 C792 1.387 . S
C796 C797 1.387 . S
C796 H800 0.950 . S
C796 C805 1.390 . S
C797 C796 1.387 . S
C797 C799 1.387 . S
H798 C805 0.950 . S
C799 C797 1.387 . S
C799 C801 1.390 . S
C799 H803 0.950 . S
H800 C796 0.950 . S
C801 C799 1.390 . S
C801 C802 1.387 . S
C801 H804 0.950 . S
C802 C801 1.387 . S
C802 C805 1.387 . S
H803 C799 0.950 . S
H804 C801 0.950 . S
C805 C796 1.390 . S
C805 H798 0.950 . S
C805 C802 1.387 . S
C806 C807 1.387 . S
C806 H810 0.950 . S
C806 C815 1.390 . S
C807 C806 1.387 . S
C807 C809 1.387 . S
H808 C815 0.950 . S
C809 C807 1.387 . S
C809 C811 1.390 . S
C809 H813 0.950 . S
H810 C806 0.950 . S
C811 C809 1.390 . S
C811 C812 1.387 . S
C811 H814 0.950 . S
C812 C811 1.387 . S
C812 C815 1.387 . S
H813 C809 0.950 . S
H814 C811 0.950 . S
C815 C806 1.390 . S
C815 H808 0.950 . S
C815 C812 1.387 . S
C337 C218 1.329 . S
C342 C8 1.326 . S
C347 C22 1.328 . S
C352 C232 1.326 . S
C357 C36 1.329 . S
C362 C246 1.326 . S
C367 C50 1.326 . S
C372 C176 1.328 . S
C377 C190 1.326 . S
C382 C64 1.328 . S
C387 C78 1.326 . S
C392 C204 1.329 . S
C397 C302 1.328 . S
C402 C92 1.327 . S
C407 C106 1.327 . S
C412 C316 1.327 . S
C417 C120 1.329 . S
C422 C330 1.326 . S
C427 C260 1.329 . S
C432 C134 1.326 . S
C437 C148 1.327 . S
C442 C274 1.327 . S
C447 C288 1.326 . S
C452 C162 1.329 . S
C457 C6 1.583 . S
C462 C328 1.580 . S
C467 C258 1.583 . S
C472 C20 1.581 . S
C477 C34 1.583 . S
C482 C272 1.580 . S
C487 C286 1.583 . S
C492 C48 1.581 . S
C497 C62 1.581 . S
C502 C300 1.582 . S
C507 C314 1.583 . S
C512 C76 1.580 . S
C517 C90 1.583 . S
C522 C188 1.581 . S
C527 C202 1.580 . S
C532 C104 1.583 . S
C537 C216 1.581 . S
C542 C118 1.583 . S
C547 C230 1.580 . S
C552 C132 1.583 . S
C557 C146 1.580 . S
C562 C244 1.583 . S
C567 C160 1.583 . S
C572 C174 1.580 . S
C577 C105 1.439 . S
C582 C7 1.439 . S
C587 C119 1.438 . S
C592 C21 1.439 . S
C597 C133 1.439 . S
C602 C35 1.439 . S
C607 C147 1.439 . S
C612 C49 1.439 . S
C617 C63 1.440 . S
C622 C161 1.439 . S
C627 C77 1.439 . S
C632 C91 1.438 . S
C637 C175 1.439 . S
C642 C273 1.439 . S
C647 C189 1.438 . S
C652 C287 1.439 . S
C657 C301 1.439 . S
C662 C203 1.439 . S
C667 C315 1.439 . S
C672 C217 1.439 . S
C677 C329 1.439 . S
C682 C231 1.438 . S
C687 C259 1.439 . S
C692 C245 1.439 . S
C697 C9 1.719 . S
C702 C275 1.719 . S
C707 C289 1.719 . S
C712 C23 1.718 . S
C717 C37 1.718 . S
C722 C303 1.719 . S
C727 C317 1.719 . S
C732 C51 1.718 . S
C737 C65 1.719 . S
C742 C331 1.718 . S
C747 C261 1.718 . S
C752 C79 1.719 . S
C757 C93 1.718 . S
C762 C247 1.719 . S
C767 C177 1.719 . S
C772 C107 1.719 . S
C777 C121 1.719 . S
C782 C191 1.718 . S
C787 C135 1.718 . S
C792 C205 1.719 . S
C797 C149 1.719 . S
C802 C219 1.719 . S
C807 C163 1.718 . S
C812 C233 1.719 . S
