# Generated by pormake.
# Topology wjd, (6)-cn, num edge types: 1
# Building blocks:
#     Node 0, Type 0, BuildingBlock: MAKGUD_clean_sbu_1, # of connection points: 6
#     Node 1, Type 0, BuildingBlock: MAKGUD_clean_sbu_1, # of connection points: 6
#     Node 2, Type 0, BuildingBlock: MAKGUD_clean_sbu_1, # of connection points: 6
#     Node 3, Type 0, BuildingBlock: MAKGUD_clean_sbu_1, # of connection points: 6
#     Node 4, Type 0, BuildingBlock: MAKGUD_clean_sbu_1, # of connection points: 6
#     Node 5, Type 0, BuildingBlock: MAKGUD_clean_sbu_1, # of connection points: 6
#     Node 6, Type 0, BuildingBlock: MAKGUD_clean_sbu_1, # of connection points: 6
#     Node 7, Type 0, BuildingBlock: MAKGUD_clean_sbu_1, # of connection points: 6
#     Node 8, Type 0, BuildingBlock: MAKGUD_clean_sbu_1, # of connection points: 6
#     Node 9, Type 0, BuildingBlock: MAKGUD_clean_sbu_1, # of connection points: 6
#     Node 10, Type 0, BuildingBlock: MAKGUD_clean_sbu_1, # of connection points: 6
#     Node 11, Type 0, BuildingBlock: MAKGUD_clean_sbu_1, # of connection points: 6
#     Edge 12, Type (0, 0), BuildingBlock: XUDNAN_clean_linker_2, # of connection points: 2
#     Edge 13, Type (0, 0), BuildingBlock: XUDNAN_clean_linker_2, # of connection points: 2
#     Edge 14, Type (0, 0), BuildingBlock: XUDNAN_clean_linker_2, # of connection points: 2
#     Edge 15, Type (0, 0), BuildingBlock: XUDNAN_clean_linker_2, # of connection points: 2
#     Edge 16, Type (0, 0), BuildingBlock: XUDNAN_clean_linker_2, # of connection points: 2
#     Edge 17, Type (0, 0), BuildingBlock: XUDNAN_clean_linker_2, # of connection points: 2
#     Edge 18, Type (0, 0), BuildingBlock: XUDNAN_clean_linker_2, # of connection points: 2
#     Edge 19, Type (0, 0), BuildingBlock: XUDNAN_clean_linker_2, # of connection points: 2
#     Edge 20, Type (0, 0), BuildingBlock: XUDNAN_clean_linker_2, # of connection points: 2
#     Edge 21, Type (0, 0), BuildingBlock: XUDNAN_clean_linker_2, # of connection points: 2
#     Edge 22, Type (0, 0), BuildingBlock: XUDNAN_clean_linker_2, # of connection points: 2
#     Edge 23, Type (0, 0), BuildingBlock: XUDNAN_clean_linker_2, # of connection points: 2
#     Edge 24, Type (0, 0), BuildingBlock: XUDNAN_clean_linker_2, # of connection points: 2
#     Edge 25, Type (0, 0), BuildingBlock: XUDNAN_clean_linker_2, # of connection points: 2
#     Edge 26, Type (0, 0), BuildingBlock: XUDNAN_clean_linker_2, # of connection points: 2
#     Edge 27, Type (0, 0), BuildingBlock: XUDNAN_clean_linker_2, # of connection points: 2
#     Edge 28, Type (0, 0), BuildingBlock: XUDNAN_clean_linker_2, # of connection points: 2
#     Edge 29, Type (0, 0), BuildingBlock: XUDNAN_clean_linker_2, # of connection points: 2
#     Edge 30, Type (0, 0), BuildingBlock: XUDNAN_clean_linker_2, # of connection points: 2
#     Edge 31, Type (0, 0), BuildingBlock: XUDNAN_clean_linker_2, # of connection points: 2
#     Edge 32, Type (0, 0), BuildingBlock: XUDNAN_clean_linker_2, # of connection points: 2
#     Edge 33, Type (0, 0), BuildingBlock: XUDNAN_clean_linker_2, # of connection points: 2
#     Edge 34, Type (0, 0), BuildingBlock: XUDNAN_clean_linker_2, # of connection points: 2
#     Edge 35, Type (0, 0), BuildingBlock: XUDNAN_clean_linker_2, # of connection points: 2
#     Edge 36, Type (0, 0), BuildingBlock: XUDNAN_clean_linker_2, # of connection points: 2
#     Edge 37, Type (0, 0), BuildingBlock: XUDNAN_clean_linker_2, # of connection points: 2
#     Edge 38, Type (0, 0), BuildingBlock: XUDNAN_clean_linker_2, # of connection points: 2
#     Edge 39, Type (0, 0), BuildingBlock: XUDNAN_clean_linker_2, # of connection points: 2
#     Edge 40, Type (0, 0), BuildingBlock: XUDNAN_clean_linker_2, # of connection points: 2
#     Edge 41, Type (0, 0), BuildingBlock: XUDNAN_clean_linker_2, # of connection points: 2
#     Edge 42, Type (0, 0), BuildingBlock: XUDNAN_clean_linker_2, # of connection points: 2
#     Edge 43, Type (0, 0), BuildingBlock: XUDNAN_clean_linker_2, # of connection points: 2
#     Edge 44, Type (0, 0), BuildingBlock: XUDNAN_clean_linker_2, # of connection points: 2
#     Edge 45, Type (0, 0), BuildingBlock: XUDNAN_clean_linker_2, # of connection points: 2
#     Edge 46, Type (0, 0), BuildingBlock: XUDNAN_clean_linker_2, # of connection points: 2
#     Edge 47, Type (0, 0), BuildingBlock: XUDNAN_clean_linker_2, # of connection points: 2
# Relax obj value: 0.156
# Max RMSD: 0.285
# Mean RMSD: 0.285
data_MOF--net-wjd--node1-MAKGUD_clean_sbu_1--edge1-XUDNAN_clean_linker_2
_symmetry_space_group_name_H-M    P1
_symmetry_Int_Tables_number       1
_symmetry_cell_setting            triclinic
loop_
_symmetry_equiv_pos_as_xyz
'x, y, z'
_cell_length_a     37.452235
_cell_length_b     37.4019
_cell_length_c     50.388203
_cell_angle_alpha  90.203271
_cell_angle_beta   89.602217
_cell_angle_gamma 120.09412
loop_
_atom_site_label
_atom_site_type_symbol
_atom_site_fract_x
_atom_site_fract_y
_atom_site_fract_z
_atom_type_partial_charge
O0 O 0.51919 0.21899 0.1238 0.0
Tb1 Tb 0.45396 0.1915 0.11369 0.0
C2 C 0.37866 0.14818 0.15695 0.0
O3 O 0.36524 0.15872 0.0926 0.0
Tb4 Tb 0.30905 0.1233 0.11534 0.0
C5 C 0.24588 0.05115 0.10003 0.0
O6 O 0.42217 0.16019 0.07722 0.0
O7 O 0.28385 0.1616 0.12889 0.0
C8 C 0.26365 0.17071 0.11135 0.0
O9 O 0.26411 0.16029 0.08647 0.0
O10 O 0.41742 0.17619 0.15077 0.0
O11 O 0.35426 0.11884 0.14027 0.0
O12 O 0.47879 0.25731 0.10582 0.0
C13 C 0.38209 0.14426 0.0759 0.0
C14 C 0.52252 0.18656 0.1197 0.0
O15 O 0.26676 0.08315 0.08454 0.0
O16 O 0.26156 0.05953 0.12385 0.0
C17 C 0.47914 0.28151 0.12505 0.0
O18 O 0.45804 0.2644 0.14684 0.0
O19 O 0.4867 0.15613 0.11258 0.0
O20 O 0.74104 0.55499 0.42042 0.0
Tb21 Tb 0.78399 0.61805 0.40724 0.0
C22 C 0.81753 0.68163 0.36079 0.0
O23 O 0.84989 0.71318 0.43205 0.0
Tb24 Tb 0.86063 0.75514 0.39926 0.0
C25 C 0.84651 0.81672 0.40998 0.0
O26 O 0.78445 0.659 0.4387 0.0
O27 O 0.92276 0.78181 0.38288 0.0
C28 C 0.95326 0.79901 0.40001 0.0
O29 O 0.9439 0.79431 0.42543 0.0
O30 O 0.80582 0.64337 0.36758 0.0
O31 O 0.81108 0.70489 0.37744 0.0
O32 O 0.82889 0.59795 0.4122 0.0
C33 C 0.81469 0.69621 0.44525 0.0
C34 C 0.71009 0.54911 0.40581 0.0
O35 O 0.86792 0.80582 0.42456 0.0
O36 O 0.83245 0.79247 0.3894 0.0
C37 C 0.82979 0.57305 0.39398 0.0
O38 O 0.80576 0.5643 0.37321 0.0
O39 O 0.72064 0.58238 0.39198 0.0
O40 O 0.89376 0.34099 0.09641 0.0
Tb41 Tb 0.90358 0.29442 0.11571 0.0
C42 C 0.92126 0.24984 0.17085 0.0
O43 O 0.94336 0.24939 0.10708 0.0
Tb44 Tb 0.95335 0.20559 0.12755 0.0
C45 C 1.02918 0.21627 0.13089 0.0
O46 O 0.94474 0.2983 0.08363 0.0
O47 O 0.91171 0.14024 0.11957 0.0
C48 C 0.91189 0.11271 0.13572 0.0
O49 O 0.93296 0.12572 0.15785 0.0
O50 O 0.9147 0.27515 0.1553 0.0
O51 O 0.93053 0.2209 0.16355 0.0
O52 O 0.83732 0.25139 0.11277 0.0
C53 C 0.95933 0.27371 0.08662 0.0
C54 C 0.90838 0.36834 0.11518 0.0
O55 O 1.00751 0.20764 0.10927 0.0
O56 O 1.00839 0.21981 0.15059 0.0
C57 C 0.81375 0.26049 0.12755 0.0
O58 O 0.83198 0.29196 0.14391 0.0
O59 O 0.9206 0.35425 0.13461 0.0
O60 O 0.46513 0.14563 0.40922 0.0
Tb61 Tb 0.42848 0.17497 0.39865 0.0
C62 C 0.36029 0.14489 0.35206 0.0
O63 O 0.34279 0.10427 0.41895 0.0
Tb64 Tb 0.29691 0.11263 0.39868 0.0
C65 C 0.23163 0.03867 0.3885 0.0
O66 O 0.39819 0.15758 0.4376 0.0
O67 O 0.27134 0.1502 0.41323 0.0
C68 C 0.24939 0.15747 0.39599 0.0
O69 O 0.2477 0.14449 0.37151 0.0
O70 O 0.39303 0.14529 0.3624 0.0
O71 O 0.33441 0.1517 0.36607 0.0
O72 O 0.44968 0.24094 0.39986 0.0
C73 C 0.36085 0.12553 0.44025 0.0
C74 C 0.49943 0.17305 0.39788 0.0
O75 O 0.24408 0.05464 0.41192 0.0
O76 O 0.25642 0.06433 0.37052 0.0
C77 C 0.47891 0.26356 0.41699 0.0
O78 O 0.48899 0.24439 0.43464 0.0
O79 O 0.49324 0.20069 0.38676 0.0
O80 O 0.75339 0.56592 0.11316 0.0
Tb81 Tb 0.79444 0.63242 0.11965 0.0
C82 C 0.84533 0.70947 0.16606 0.0
O83 O 0.84246 0.71207 0.09837 0.0
Tb84 Tb 0.88462 0.77193 0.11361 0.0
C85 C 0.87138 0.83557 0.11026 0.0
O86 O 0.78513 0.65969 0.08427 0.0
O87 O 0.95088 0.79733 0.10807 0.0
C88 C 0.96756 0.81176 0.0846 0.0
O89 O 0.94295 0.80472 0.06435 0.0
O90 O 0.81913 0.67203 0.1558 0.0
O91 O 0.87057 0.74484 0.15339 0.0
O92 O 0.84072 0.6139 0.11438 0.0
C93 C 0.81188 0.69862 0.08165 0.0
C94 C 0.72255 0.56181 0.12739 0.0
O95 O 0.87808 0.81764 0.09012 0.0
O96 O 0.87089 0.81674 0.13207 0.0
C97 C 0.84397 0.59037 0.13253 0.0
O98 O 0.82293 0.58335 0.15476 0.0
O99 O 0.73244 0.59756 0.13776 0.0
O100 O 0.89877 0.33693 0.42571 0.0
Tb101 Tb 0.88379 0.27906 0.40603 0.0
C102 C 0.91645 0.23513 0.36565 0.0
O103 O 0.91172 0.22129 0.42626 0.0
Tb104 Tb 0.94252 0.19134 0.40823 0.0
C105 C 1.02245 0.21449 0.41136 0.0
O106 O 0.90641 0.27231 0.44462 0.0
O107 O 0.90473 0.1249 0.41319 0.0
C108 C 0.91793 0.10402 0.42694 0.0
O109 O 0.95354 0.12416 0.43916 0.0
O110 O 0.92587 0.26387 0.38405 0.0
O111 O 0.9267 0.20635 0.36969 0.0
O112 O 0.81634 0.23871 0.40425 0.0
C113 C 0.92107 0.24702 0.44619 0.0
C114 C 0.90248 0.35794 0.40439 0.0
O115 O 0.99992 0.21538 0.43092 0.0
O116 O 1.00022 0.20223 0.38991 0.0
C117 C 0.79387 0.25353 0.3941 0.0
O118 O 0.81312 0.29066 0.38363 0.0
O119 O 0.89631 0.33464 0.38363 0.0
O120 O 0.17173 0.47136 0.60246 0.0
Tb121 Tb 0.17773 0.42463 0.6249 0.0
C122 C 0.16147 0.36459 0.67313 0.0
O123 O 0.15856 0.33887 0.59426 0.0
Tb124 Tb 0.14146 0.29689 0.6276 0.0
C125 C 0.06405 0.23257 0.62602 0.0
O126 O 0.13667 0.38547 0.59367 0.0
O127 O 0.18056 0.26895 0.63005 0.0
C128 C 0.18353 0.24779 0.60997 0.0
O129 O 0.16646 0.24763 0.58724 0.0
O130 O 0.14597 0.3827 0.65834 0.0
O131 O 0.16337 0.33188 0.6647 0.0
O132 O 0.24382 0.44606 0.62222 0.0
C133 C 0.13333 0.35067 0.58518 0.0
C134 C 0.17167 0.49319 0.62253 0.0
O135 O 0.09563 0.23583 0.61317 0.0
O136 O 0.07579 0.26622 0.63988 0.0
C137 C 0.26821 0.47637 0.63835 0.0
O138 O 0.25094 0.48752 0.65689 0.0
O139 O 0.17425 0.47595 0.64433 0.0
O140 O 0.33392 0.84614 0.92629 0.0
Tb141 Tb 0.291 0.8668 0.91508 0.0
C142 C 0.2496 0.8979 0.86435 0.0
O143 O 0.24163 0.89904 0.93072 0.0
Tb144 Tb 0.20445 0.92024 0.91266 0.0
C145 C 0.22146 0.99694 0.92366 0.0
O146 O 0.29565 0.90316 0.9498 0.0
O147 O 0.13827 0.87964 0.91813 0.0
C148 C 0.1125 0.88031 0.90077 0.0
O149 O 0.12762 0.90195 0.87891 0.0
O150 O 0.27016 0.88407 0.87871 0.0
O151 O 0.22468 0.91137 0.87335 0.0
O152 O 0.24539 0.80104 0.91606 0.0
C153 C 0.26865 0.9151 0.9498 0.0
C154 C 0.3631 0.86891 0.90963 0.0
O155 O 0.2184 0.96981 0.941 0.0
O156 O 0.21613 0.98119 0.89991 0.0
C157 C 0.24801 0.77732 0.89761 0.0
O158 O 0.27479 0.79517 0.87821 0.0
O159 O 0.35181 0.89093 0.89583 0.0
O160 O 0.59285 0.70549 0.61388 0.0
Tb161 Tb 0.627 0.77346 0.6179 0.0
C162 C 0.69477 0.81424 0.67017 0.0
O163 O 0.71212 0.82924 0.59953 0.0
Tb164 Tb 0.76689 0.85732 0.62345 0.0
C165 C 0.82328 0.83323 0.62113 0.0
O166 O 0.66052 0.7723 0.58292 0.0
O167 O 0.7996 0.92503 0.6264 0.0
C168 C 0.83088 0.94822 0.61042 0.0
O169 O 0.83967 0.93035 0.59101 0.0
O170 O 0.66049 0.79232 0.65595 0.0
O171 O 0.7332 0.83907 0.6613 0.0
O172 O 0.60624 0.81605 0.60614 0.0
C173 C 0.6998 0.79946 0.58195 0.0
C174 C 0.5577 0.6995 0.62306 0.0
O175 O 0.81415 0.8503 0.60196 0.0
O176 O 0.79937 0.8282 0.64134 0.0
C177 C 0.58945 0.82866 0.62429 0.0
O178 O 0.59148 0.81999 0.6493 0.0
O179 O 0.56196 0.73498 0.62963 0.0
O180 O 0.18187 0.46901 0.92533 0.0
Tb181 Tb 0.20066 0.42815 0.90675 0.0
C182 C 0.16619 0.35069 0.86741 0.0
O183 O 0.17801 0.34394 0.92775 0.0
Tb184 Tb 0.14557 0.28262 0.91059 0.0
C185 C 0.06715 0.22901 0.9231 0.0
O186 O 0.18044 0.3995 0.94586 0.0
O187 O 0.17952 0.24965 0.91366 0.0
C188 C 0.18492 0.23796 0.93718 0.0
O189 O 0.17311 0.25014 0.95829 0.0
O190 O 0.15772 0.36972 0.88652 0.0
O191 O 0.157 0.31183 0.87131 0.0
O192 O 0.26761 0.45411 0.90456 0.0
C193 C 0.16797 0.35993 0.94765 0.0
C194 C 0.18463 0.49016 0.90423 0.0
O195 O 0.09581 0.2525 0.93989 0.0
O196 O 0.08238 0.23732 0.89909 0.0
C197 C 0.28684 0.46512 0.88145 0.0
O198 O 0.26459 0.45571 0.85978 0.0
O199 O 0.19561 0.4757 0.88411 0.0
O200 O 0.32903 0.86618 0.59013 0.0
Tb201 Tb 0.28354 0.8744 0.61261 0.0
C202 C 0.24866 0.90192 0.66784 0.0
O203 O 0.22637 0.90502 0.59562 0.0
Tb204 Tb 0.20041 0.92851 0.62377 0.0
C205 C 0.22329 1.00865 0.62004 0.0
O206 O 0.28996 0.92093 0.58442 0.0
O207 O 0.13338 0.89225 0.62841 0.0
C208 C 0.1088 0.89233 0.60981 0.0
O209 O 0.12518 0.91224 0.58757 0.0
O210 O 0.26987 0.88983 0.65238 0.0
O211 O 0.22231 0.91423 0.66039 0.0
O212 O 0.23833 0.80858 0.60904 0.0
C213 C 0.26017 0.92907 0.58241 0.0
C214 C 0.35584 0.87619 0.60896 0.0
O215 O 0.2032 0.98074 0.60203 0.0
O216 O 0.2314 0.99151 0.63975 0.0
C217 C 0.24013 0.78365 0.62683 0.0
O218 O 0.26529 0.8004 0.64697 0.0
O219 O 0.34204 0.88542 0.63018 0.0
O220 O 0.5848 0.70944 0.91481 0.0
Tb221 Tb 0.63862 0.76666 0.90081 0.0
C222 C 0.71722 0.82253 0.86483 0.0
O223 O 0.71904 0.83095 0.92635 0.0
Tb224 Tb 0.78119 0.86616 0.91035 0.0
C225 C 0.8352 0.84005 0.91517 0.0
O226 O 0.66724 0.76891 0.93886 0.0
O227 O 0.81366 0.93306 0.91599 0.0
C228 C 0.8296 0.94933 0.93919 0.0
O229 O 0.82198 0.92454 0.95951 0.0
O230 O 0.69934 0.79085 0.88142 0.0
O231 O 0.7541 0.85418 0.87074 0.0
O232 O 0.61481 0.80898 0.89814 0.0
C233 C 0.70484 0.79975 0.94293 0.0
C234 C 0.57555 0.69006 0.89219 0.0
O235 O 0.81462 0.84423 0.93479 0.0
O236 O 0.82402 0.84909 0.89295 0.0
C237 C 0.58675 0.80478 0.91567 0.0
O238 O 0.57806 0.7785 0.93525 0.0
O239 O 0.60298 0.71337 0.87447 0.0
H240 H 0.07456 0.20857 0.09087 0.0
H241 H 0.07394 0.22666 0.17585 0.0
H242 H 0.13795 0.22311 0.17994 0.0
H243 H 0.10604 0.13496 0.09294 0.0
H244 H 0.13809 0.15317 0.06363 0.0
H245 H 0.09485 0.16126 0.06724 0.0
H246 H 0.14319 0.23999 0.06065 0.0
H247 H 0.18666 0.23211 0.05693 0.0
H248 H 0.18762 0.26752 0.08167 0.0
H249 H 0.1988 0.21105 0.17503 0.0
H250 H 0.251 0.19227 0.16147 0.0
H251 H 0.21195 0.18334 0.07964 0.0
C252 C 0.08831 0.21249 0.11027 0.0
C253 C 0.06944 0.21804 0.13306 0.0
C254 C 0.08808 0.22263 0.15814 0.0
C255 C 0.12443 0.22066 0.16063 0.0
C256 C 0.14195 0.21442 0.13782 0.0
C257 C 0.1246 0.21071 0.11308 0.0
C258 C 0.14811 0.20205 0.09185 0.0
C259 C 0.1201 0.16038 0.07812 0.0
C260 C 0.16755 0.23754 0.07158 0.0
C261 C 0.18078 0.20043 0.10855 0.0
C262 C 0.17698 0.20792 0.135 0.0
C263 C 0.20238 0.2057 0.15432 0.0
C264 C 0.23198 0.19502 0.14644 0.0
C265 C 0.23589 0.18659 0.11949 0.0
C266 C 0.21024 0.19006 0.10038 0.0
H267 H 0.18085 0.98347 0.42548 0.0
H268 H 0.19491 1.00542 0.34064 0.0
H269 H 0.12703 0.94219 0.33348 0.0
H270 H 0.12815 0.8701 0.42253 0.0
H271 H 0.09514 0.86424 0.45037 0.0
H272 H 0.14614 0.90889 0.44821 0.0
H273 H 0.11504 0.95683 0.45225 0.0
H274 H 0.06401 0.9125 0.4544 0.0
H275 H 0.07584 0.95104 0.42922 0.0
H276 H 0.05399 0.87922 0.33646 0.0
H277 H 0.98396 0.82333 0.3492 0.0
H278 H 1.01984 0.84325 0.43202 0.0
C279 C 0.16997 0.97462 0.40534 0.0
C280 C 0.19311 0.99917 0.38358 0.0
C281 C 0.17771 0.98681 0.35756 0.0
C282 C 0.13921 0.95098 0.35334 0.0
C283 C 0.11677 0.92773 0.37534 0.0
C284 C 0.13186 0.93904 0.40082 0.0
C285 C 0.10119 0.91034 0.42128 0.0
C286 C 0.11871 0.887 0.43649 0.0
C287 C 0.08826 0.9341 0.44039 0.0
C288 C 0.06595 0.88155 0.40346 0.0
C289 C 0.07544 0.89175 0.377 0.0
C290 C 0.04651 0.87069 0.35711 0.0
C291 C 1.0068 0.83892 0.36451 0.0
C292 C 0.99634 0.82861 0.39158 0.0
C293 C 1.02678 0.8499 0.41111 0.0
H294 H 0.90103 0.04757 0.16632 0.0
H295 H 0.8864 0.07934 0.08598 0.0
H296 H 0.86875 1.00933 0.07098 0.0
H297 H 0.94963 0.99225 0.15018 0.0
H298 H 0.92475 0.95335 0.17549 0.0
H299 H 0.9315 1.00402 0.18038 0.0
H300 H 0.85286 0.97202 0.18823 0.0
H301 H 0.84588 0.9211 0.18357 0.0
H302 H 0.81721 0.93787 0.16365 0.0
H303 H 0.86168 0.93857 0.06391 0.0
H304 H 0.86112 0.87208 0.06614 0.0
H305 H 0.87727 0.88585 0.15137 0.0
C306 C 0.8932 0.03956 0.14567 0.0
C307 C 0.89501 0.06901 0.12735 0.0
C308 C 0.88488 0.05728 0.10045 0.0
C309 C 0.87493 1.01757 0.09173 0.0
C310 C 0.87461 0.98968 0.11021 0.0
C311 C 0.88285 1.00002 0.13671 0.0
C312 C 0.88242 0.96531 0.1524 0.0
C313 C 0.92458 0.9796 0.16536 0.0
C314 C 0.8475 0.94805 0.17319 0.0
C315 C 0.87388 0.93424 0.1305 0.0
C316 C 0.86937 0.94874 0.10627 0.0
C317 C 0.86434 0.92662 0.08287 0.0
C318 C 0.8641 0.88892 0.08429 0.0
C319 C 0.86853 0.8736 0.10895 0.0
C320 C 0.87297 0.89642 0.13231 0.0
H321 H 0.19958 0.17173 0.36383 0.0
H322 H 0.23846 0.18228 0.44577 0.0
H323 H 0.18911 0.2055 0.45833 0.0
H324 H 0.18178 0.25974 0.36329 0.0
H325 H 0.13722 0.23309 0.34227 0.0
H326 H 0.1787 0.22197 0.33968 0.0
H327 H 0.12695 0.14428 0.34785 0.0
H328 H 0.0854 0.15512 0.35044 0.0
H329 H 0.09472 0.12894 0.37714 0.0
H330 H 0.13021 0.22194 0.46206 0.0
H331 H 0.06758 0.22785 0.45677 0.0
H332 H 0.06822 0.20558 0.37235 0.0
C333 C 0.19844 0.17962 0.3844 0.0
C334 C 0.2232 0.17538 0.4038 0.0
C335 C 0.2201 0.18556 0.43051 0.0
C336 C 0.19213 0.1988 0.43779 0.0
C337 C 0.16762 0.20187 0.41813 0.0
C338 C 0.17075 0.19263 0.39195 0.0
C339 C 0.13923 0.19542 0.37475 0.0
C340 C 0.16052 0.2296 0.35376 0.0
C341 C 0.10984 0.15345 0.3618 0.0
C342 C 0.11711 0.20687 0.39535 0.0
C343 C 0.13408 0.21094 0.42025 0.0
C344 C 0.11713 0.2193 0.44257 0.0
C345 C 0.08162 0.22274 0.43939 0.0
C346 C 0.06329 0.21756 0.41412 0.0
C347 C 0.08187 0.2103 0.39185 0.0
H348 H 0.18823 0.99138 0.13266 0.0
H349 H 0.21882 1.02357 0.04976 0.0
H350 H 0.15394 0.96091 0.03671 0.0
H351 H 0.1359 0.87782 0.12477 0.0
H352 H 0.09704 0.86891 0.14931 0.0
H353 H 0.14801 0.91343 0.15199 0.0
H354 H 0.11654 0.9613 0.15332 0.0
H355 H 0.06558 0.917 0.15069 0.0
H356 H 0.08292 0.95844 0.12694 0.0
H357 H 0.0831 0.89793 0.0329 0.0
H358 H 1.01117 0.84146 0.03836 0.0
H359 H 1.02554 0.85061 0.12394 0.0
C360 C 0.18161 0.98474 0.11176 0.0
C361 C 0.20864 1.01209 0.09218 0.0
C362 C 0.19856 1.00292 0.06505 0.0
C363 C 0.16185 0.96733 0.05748 0.0
C364 C 0.13543 0.9413 0.07728 0.0
C365 C 0.14483 0.9496 0.10389 0.0
C366 C 0.10972 0.91851 0.12127 0.0
C367 C 0.1235 0.89317 0.13781 0.0
C368 C 0.09269 0.94011 0.1391 0.0
C369 C 0.07868 0.89193 0.10034 0.0
C370 C 0.09436 0.90529 0.0751 0.0
C371 C 0.07072 0.88698 0.05257 0.0
C372 C 1.02979 0.85484 0.0559 0.0
C373 C 1.0126 0.84129 0.08158 0.0
C374 C 1.03784 0.85969 0.10404 0.0
H375 H 0.89542 0.88208 0.4417 0.0
H376 H 0.7938 0.83719 0.38636 0.0
H377 H 0.79549 0.90412 0.38933 0.0
H378 H 0.86918 0.94914 0.48241 0.0
H379 H 0.92262 0.98862 0.48551 0.0
H380 H 0.90877 0.93515 0.48252 0.0
H381 H 0.95785 0.95344 0.44199 0.0
H382 H 0.97168 1.0068 0.44476 0.0
H383 H 0.95148 0.97954 0.41398 0.0
H384 H 0.81288 0.97779 0.39477 0.0
H385 H 0.84629 0.05332 0.4005 0.0
H386 H 0.93878 0.05116 0.45087 0.0
C387 C 0.87277 0.886 0.43082 0.0
C388 C 0.84408 0.85447 0.41406 0.0
C389 C 0.81573 0.86097 0.39947 0.0
C390 C 0.81642 0.89879 0.40111 0.0
C391 C 0.84582 0.92974 0.41731 0.0
C392 C 0.87354 0.92377 0.4319 0.0
C393 C 0.90498 0.96334 0.44541 0.0
C394 C 0.90114 0.95878 0.47577 0.0
C395 C 0.94909 0.97654 0.43596 0.0
C396 C 0.8913 0.9928 0.4356 0.0
C397 C 0.8567 0.97265 0.41981 0.0
C398 C 0.8397 0.99381 0.40733 0.0
C399 C 0.85896 0.03677 0.41069 0.0
C400 C 0.89516 0.05824 0.42615 0.0
C401 C 0.91097 0.03568 0.43911 0.0
H402 H 0.1979 0.04486 0.58303 0.0
H403 H 0.2613 0.0675 0.65822 0.0
H404 H 0.26378 0.13463 0.66197 0.0
H405 H 0.25192 0.15416 0.55997 0.0
H406 H 0.20587 0.14877 0.54504 0.0
H407 H 0.21345 0.1049 0.54686 0.0
H408 H 0.14324 0.06317 0.57125 0.0
H409 H 0.13557 0.1069 0.56965 0.0
H410 H 0.13391 0.08369 0.60126 0.0
H411 H 0.25211 0.1955 0.66006 0.0
H412 H 0.22946 0.24624 0.65178 0.0
H413 H 0.17486 0.18489 0.5774 0.0
C414 C 0.21318 0.06444 0.59995 0.0
C415 C 0.22963 0.0511 0.62028 0.0
C416 C 0.24875 0.07724 0.64234 0.0
C417 C 0.25028 0.11544 0.64464 0.0
C418 C 0.23281 0.12728 0.62462 0.0
C419 C 0.21498 0.10273 0.60254 0.0
C420 C 0.19621 0.12143 0.58464 0.0
C421 C 0.21818 0.13301 0.55752 0.0
C422 C 0.14947 0.09205 0.58154 0.0
C423 C 0.20524 0.15967 0.60044 0.0
C424 C 0.22659 0.16264 0.62336 0.0
C425 C 0.23598 0.19386 0.64195 0.0
C426 C 0.22292 0.22253 0.63711 0.0
C427 C 0.20075 0.21994 0.61383 0.0
C428 C 0.19241 0.1883 0.59517 0.0
H429 H 0.05039 0.86977 0.86749 0.0
H430 H 0.07435 0.8525 0.94918 0.0
H431 H 1.0027 0.83287 0.96129 0.0
H432 H 0.99252 0.91624 0.88077 0.0
H433 H 0.95643 0.89203 0.85405 0.0
H434 H 1.00764 0.89955 0.8513 0.0
H435 H 0.97723 0.82122 0.84279 0.0
H436 H 0.92578 0.81345 0.8454 0.0
H437 H 0.941 0.78435 0.86623 0.0
H438 H 0.93139 0.82513 0.96549 0.0
H439 H 0.8661 0.8262 0.96066 0.0
H440 H 0.88767 0.84447 0.87593 0.0
C441 C 1.04034 0.86093 0.88782 0.0
C442 C 0.06804 0.86259 0.90736 0.0
C443 C 0.05367 0.85114 0.93379 0.0
C444 C 1.01298 0.84 0.94087 0.0
C445 C 0.98679 0.83978 0.92122 0.0
C446 C 0.99979 0.84935 0.89514 0.0
C447 C 0.96657 0.84912 0.87803 0.0
C448 C 0.9817 0.89177 0.86531 0.0
C449 C 0.95177 0.81499 0.85687 0.0
C450 C 0.93334 0.83935 0.89868 0.0
C451 C 0.9454 0.83387 0.92349 0.0
C452 C 0.92121 0.82826 0.94603 0.0
C453 C 0.88408 0.8287 0.94313 0.0
C454 C 0.87132 0.83427 0.91787 0.0
C455 C 0.89609 0.83904 0.8954 0.0
H456 H 0.90446 1.00018 0.58588 0.0
H457 H 0.8206 0.99841 0.64637 0.0
H458 H 0.86907 0.07255 0.65555 0.0
H459 H 0.99632 0.06344 0.62113 0.0
H460 H 1.0259 0.09025 0.59209 0.0
H461 H 0.98322 0.0383 0.58921 0.0
H462 H 0.95014 0.0625 0.55371 0.0
H463 H 0.99275 0.11459 0.55651 0.0
H464 H 0.94067 0.10418 0.56135 0.0
H465 H 0.92959 0.14772 0.659 0.0
H466 H 0.99606 0.21423 0.65726 0.0
H467 H 1.03926 0.16456 0.5951 0.0
C468 C 0.89584 1.01537 0.60084 0.0
C469 C 0.85839 0.99335 0.61526 0.0
C470 C 0.84892 1.01454 0.63495 0.0
C471 C 0.8763 0.05672 0.64027 0.0
C472 C 0.91316 0.07734 0.62581 0.0
C473 C 0.92285 0.05717 0.6065 0.0
C474 C 0.96511 0.08531 0.59456 0.0
C475 C 0.99435 0.06831 0.59956 0.0
C476 C 0.96195 0.09204 0.56477 0.0
C477 C 0.97798 0.12451 0.61022 0.0
C478 C 0.94764 0.11963 0.62805 0.0
C479 C 0.95337 0.15177 0.645 0.0
C480 C 0.99115 0.18948 0.64387 0.0
C481 C 1.02275 0.19459 0.62604 0.0
C482 C 1.01565 0.16169 0.6089 0.0
H483 H 0.19767 0.19433 0.89761 0.0
H484 H 0.20258 0.21134 0.98306 0.0
H485 H 0.21819 0.15512 0.98844 0.0
H486 H 0.14677 0.08638 0.89859 0.0
H487 H 0.17425 0.08104 0.87076 0.0
H488 H 0.168 0.12561 0.8732 0.0
H489 H 0.24724 0.17378 0.86998 0.0
H490 H 0.25373 0.12929 0.86739 0.0
H491 H 0.28022 0.16723 0.89295 0.0
H492 H 0.2259 0.09248 0.98509 0.0
H493 H 0.22748 0.02924 0.97296 0.0
H494 H 0.21919 0.05312 0.88972 0.0
C495 C 0.20296 0.18688 0.91741 0.0
C496 C 0.19907 0.20748 0.9399 0.0
C497 C 0.20551 0.1962 0.9655 0.0
C498 C 0.21445 0.16428 0.96878 0.0
C499 C 0.21713 0.14397 0.94628 0.0
C500 C 0.21191 0.15499 0.92106 0.0
C501 C 0.21401 0.12655 0.90032 0.0
C502 C 0.17334 0.10354 0.88481 0.0
C503 C 0.25101 0.15066 0.88155 0.0
C504 C 0.22025 0.09728 0.91787 0.0
C505 C 0.22218 0.10805 0.94432 0.0
C506 C 0.22516 0.08419 0.96442 0.0
C507 C 0.22603 0.04832 0.95734 0.0
C508 C 0.22423 0.03675 0.93041 0.0
C509 C 0.22157 0.06175 0.91044 0.0
H510 H 0.05136 0.8948 0.5774 0.0
H511 H 0.064 0.84797 0.65334 0.0
H512 H 0.98994 0.82126 0.66259 0.0
H513 H 0.98593 0.9304 0.59972 0.0
H514 H 0.95528 0.91671 0.57002 0.0
H515 H 1.008 0.92824 0.56825 0.0
H516 H 0.98422 0.8571 0.54626 0.0
H517 H 0.93132 0.8453 0.54804 0.0
H518 H 0.94598 0.81066 0.56266 0.0
H519 H 0.91563 0.80489 0.66518 0.0
H520 H 0.84817 0.80156 0.66114 0.0
H521 H 0.88402 0.85849 0.58341 0.0
C522 C 1.03848 0.87828 0.59579 0.0
C523 C 0.06361 0.87331 0.61459 0.0
C524 C 0.04546 0.85203 0.63856 0.0
C525 C 1.00335 0.83665 0.64397 0.0
C526 C 0.97962 0.8426 0.62517 0.0
C527 C 0.99655 0.86282 0.60151 0.0
C528 C 0.96513 0.86754 0.58534 0.0
C529 C 0.97945 0.91344 0.58057 0.0
C530 C 0.95613 0.84372 0.55901 0.0
C531 C 0.9281 0.84764 0.60384 0.0
C532 C 0.93692 0.83309 0.62662 0.0
C533 C 0.90825 0.81565 0.64726 0.0
C534 C 0.86997 0.8138 0.64479 0.0
C535 C 0.86072 0.82933 0.62187 0.0
C536 C 0.88995 0.8457 0.60097 0.0
H537 H 1.0083 0.17103 0.89012 0.0
H538 H 1.03692 0.20327 0.97304 0.0
H539 H 0.97466 0.13806 0.9861 0.0
H540 H 0.8938 0.11601 0.8969 0.0
H541 H 0.8869 0.07715 0.87297 0.0
H542 H 0.93041 0.12881 0.87013 0.0
H543 H 0.98003 0.09942 0.87026 0.0
H544 H 0.93678 0.04779 0.87322 0.0
H545 H 0.97764 0.06685 0.89731 0.0
H546 H 0.91374 0.06616 0.99021 0.0
H547 H 0.85878 0.99342 0.98517 0.0
H548 H 0.86945 1.00681 0.8995 0.0
C549 C 1.00076 0.16485 0.911 0.0
C550 C 1.02696 0.19267 0.9306 0.0
C551 C 1.01681 0.18287 0.95772 0.0
C552 C 0.98155 0.1458 0.96532 0.0
C553 C 0.95674 0.11864 0.94555 0.0
C554 C 0.96577 0.12776 0.91892 0.0
C555 C 0.93595 0.09182 0.90169 0.0
C556 C 0.91024 0.1042 0.8844 0.0
C557 C 0.95898 0.07552 0.88462 0.0
C558 C 0.90939 0.0607 0.92277 0.0
C559 C 0.9217 0.07696 0.94792 0.0
C560 C 0.90348 0.05333 0.9706 0.0
C561 C 0.87228 1.01194 0.96752 0.0
C562 C 0.85944 0.99434 0.94195 0.0
C563 C 0.87797 1.01944 0.91932 0.0
H564 H 0.41946 0.16606 0.3132 0.0
H565 H 0.28781 0.11466 0.325 0.0
H566 H 0.27757 0.1084 0.27644 0.0
H567 H 0.42713 0.22778 0.25685 0.0
H568 H 0.46574 0.22047 0.24018 0.0
H569 H 0.46235 0.21857 0.27586 0.0
H570 H 0.4547 0.14576 0.27537 0.0
H571 H 0.45819 0.14749 0.23969 0.0
H572 H 0.41439 0.10524 0.25593 0.0
H573 H 0.28175 0.10655 0.22612 0.0
H574 H 0.30087 0.11402 0.17841 0.0
H575 H 0.43004 0.17134 0.19988 0.0
C576 C 0.38843 0.15307 0.30557 0.0
C577 C 0.35436 0.14039 0.32291 0.0
C578 C 0.31435 0.12441 0.31211 0.0
C579 C 0.30821 0.12067 0.28454 0.0
C580 C 0.34247 0.13366 0.26797 0.0
C581 C 0.38185 0.14994 0.27809 0.0
C582 C 0.41369 0.16354 0.25603 0.0
C583 C 0.44401 0.21037 0.25731 0.0
C584 C 0.43658 0.13903 0.25681 0.0
C585 C 0.38609 0.1522 0.23193 0.0
C586 C 0.34506 0.13456 0.23918 0.0
C587 C 0.31383 0.12059 0.22024 0.0
C588 C 0.32492 0.12487 0.19321 0.0
C589 C 0.36688 0.14358 0.18542 0.0
C590 C 0.3977 0.15743 0.20515 0.0
H591 H 0.80574 0.63219 0.31746 0.0
H592 H 0.85348 0.7601 0.34052 0.0
H593 H 0.86784 0.78101 0.29338 0.0
H594 H 0.87723 0.65129 0.26256 0.0
H595 H 0.83844 0.61104 0.24216 0.0
H596 H 0.83464 0.60654 0.2778 0.0
H597 H 0.76135 0.59723 0.27601 0.0
H598 H 0.76499 0.60192 0.24041 0.0
H599 H 0.75386 0.63583 0.25977 0.0
H600 H 0.87498 0.78767 0.24388 0.0
H601 H 0.87357 0.78028 0.1954 0.0
H602 H 0.81889 0.64731 0.20392 0.0
C603 C 0.81977 0.66471 0.31266 0.0
C604 C 0.82873 0.69462 0.33274 0.0
C605 C 0.84642 0.7367 0.32553 0.0
C606 C 0.85472 0.74884 0.2988 0.0
C607 C 0.84491 0.7185 0.27951 0.0
C608 C 0.82778 0.67729 0.28607 0.0
C609 C 0.81838 0.65065 0.2614 0.0
C610 C 0.84369 0.62858 0.26096 0.0
C611 C 0.77188 0.61958 0.25928 0.0
C612 C 0.83266 0.68331 0.23988 0.0
C613 C 0.84816 0.72223 0.25083 0.0
C614 C 0.86308 0.75737 0.2351 0.0
C615 C 0.8622 0.75274 0.20746 0.0
C616 C 0.84624 0.71315 0.19557 0.0
C617 C 0.8312 0.67799 0.2122 0.0
H618 H 0.91253 0.19527 0.21052 0.0
H619 H 0.91883 0.31309 0.19763 0.0
H620 H 0.91232 0.31994 0.24592 0.0
H621 H 0.83765 0.16089 0.2648 0.0
H622 H 0.86163 0.13656 0.2823 0.0
H623 H 0.86482 0.14014 0.24662 0.0
H624 H 0.94463 0.1772 0.24897 0.0
H625 H 0.94166 0.17349 0.28458 0.0
H626 H 0.97199 0.22317 0.2689 0.0
H627 H 0.91027 0.31608 0.29669 0.0
H628 H 0.91307 0.30152 0.34429 0.0
H629 H 0.90445 0.18496 0.32308 0.0
C630 C 0.9124 0.22252 0.2177 0.0
C631 C 0.91633 0.25365 0.20001 0.0
C632 C 0.91575 0.28862 0.21056 0.0
C633 C 0.91202 0.29283 0.23805 0.0
C634 C 0.90839 0.26162 0.25486 0.0
C635 C 0.9083 0.22704 0.245 0.0
C636 C 0.90509 0.19835 0.26718 0.0
C637 C 0.8649 0.15651 0.26509 0.0
C638 C 0.94311 0.19275 0.26742 0.0
C639 C 0.9043 0.22256 0.29112 0.0
C640 C 0.90607 0.25893 0.28373 0.0
C641 C 0.90825 0.28736 0.30265 0.0
C642 C 0.90958 0.27874 0.32973 0.0
C643 C 0.90858 0.24196 0.33767 0.0
C644 C 0.90491 0.21326 0.31792 0.0
H645 H 0.17991 0.32464 0.71184 0.0
H646 H 0.15504 0.42513 0.70055 0.0
H647 H 0.16028 0.43744 0.74901 0.0
H648 H 0.12038 0.28442 0.76956 0.0
H649 H 0.1551 0.27067 0.78499 0.0
H650 H 0.15305 0.27254 0.74941 0.0
H651 H 0.23178 0.32423 0.74774 0.0
H652 H 0.23403 0.3226 0.7834 0.0
H653 H 0.25291 0.37141 0.7667 0.0
H654 H 0.16314 0.43501 0.79974 0.0
H655 H 0.16129 0.4166 0.84707 0.0
H656 H 0.18533 0.31862 0.8244 0.0
C657 C 0.176 0.34961 0.71939 0.0
C658 C 0.16688 0.37379 0.70217 0.0
C659 C 0.1619 0.406 0.71318 0.0
C660 C 0.16498 0.41335 0.74074 0.0
C661 C 0.17338 0.38847 0.75712 0.0
C662 C 0.17894 0.35732 0.74676 0.0
C663 C 0.18543 0.33339 0.76855 0.0
C664 C 0.15146 0.28756 0.76809 0.0
C665 C 0.22861 0.33821 0.76647 0.0
C666 C 0.18172 0.35523 0.79289 0.0
C667 C 0.17522 0.38723 0.78599 0.0
C668 C 0.16877 0.41034 0.8053 0.0
C669 C 0.16801 0.39983 0.83221 0.0
C670 C 0.17352 0.3664 0.83962 0.0
C671 C 0.18134 0.34458 0.81955 0.0
H672 H 0.21079 0.91651 0.82414 0.0
H673 H 0.30168 0.87858 0.83752 0.0
H674 H 0.3113 0.87676 0.7895 0.0
H675 H 0.1647 0.85298 0.76659 0.0
H676 H 0.15704 0.89077 0.7494 0.0
H677 H 0.15734 0.89012 0.78514 0.0
H678 H 0.21538 0.96686 0.78555 0.0
H679 H 0.21525 0.96774 0.74979 0.0
H680 H 0.26244 0.98223 0.76726 0.0
H681 H 0.31122 0.87786 0.74036 0.0
H682 H 0.3012 0.88165 0.69265 0.0
H683 H 0.21039 0.91887 0.70965 0.0
C684 C 0.23285 0.90798 0.81704 0.0
C685 C 0.25537 0.8977 0.83498 0.0
C686 C 0.2838 0.88656 0.82455 0.0
C687 C 0.28964 0.88546 0.79715 0.0
C688 C 0.26695 0.89557 0.78016 0.0
C689 C 0.23913 0.90665 0.78958 0.0
C690 C 0.21847 0.91559 0.76671 0.0
C691 C 0.17161 0.88557 0.76699 0.0
C692 C 0.2285 0.9608 0.76737 0.0
C693 C 0.23899 0.90759 0.74309 0.0
C694 C 0.26688 0.89617 0.75143 0.0
C695 C 0.28949 0.88684 0.73354 0.0
C696 C 0.28347 0.88909 0.70634 0.0
C697 C 0.25492 0.90059 0.69701 0.0
C698 C 0.23252 0.91007 0.71587 0.0
H699 H 0.75327 0.85503 0.70895 0.0
H700 H 0.623 0.76595 0.69845 0.0
H701 H 0.61351 0.76049 0.74697 0.0
H702 H 0.76854 0.80674 0.76498 0.0
H703 H 0.80369 0.85475 0.78107 0.0
H704 H 0.79981 0.85245 0.74545 0.0
H705 H 0.78342 0.91207 0.74603 0.0
H706 H 0.78707 0.91442 0.78169 0.0
H707 H 0.74085 0.90702 0.76583 0.0
H708 H 0.61857 0.76356 0.79739 0.0
H709 H 0.63886 0.77465 0.84475 0.0
H710 H 0.76502 0.86105 0.82149 0.0
C711 C 0.72264 0.83439 0.71669 0.0
C712 C 0.68899 0.81098 0.69957 0.0
C713 C 0.64948 0.78438 0.7109 0.0
C714 C 0.64366 0.78104 0.73854 0.0
C715 C 0.67752 0.80457 0.75474 0.0
C716 C 0.71622 0.83074 0.74419 0.0
C717 C 0.74774 0.85212 0.76585 0.0
C718 C 0.78195 0.84082 0.76424 0.0
C719 C 0.76582 0.8992 0.76478 0.0
C720 C 0.72084 0.83359 0.79022 0.0
C721 C 0.68039 0.80631 0.7835 0.0
C722 C 0.65023 0.78481 0.80284 0.0
C723 C 0.662 0.79095 0.82968 0.0
C724 C 0.70345 0.81816 0.83689 0.0
C725 C 0.73292 0.84016 0.81677 0.0
H726 H 0.31801 0.99917 0.9474 0.0
H727 H 0.22941 0.89941 0.9971 0.0
H728 H 0.24761 0.94787 0.0349 0.0
H729 H 0.39372 0.04702 0.99468 0.0
H730 H 0.4107 0.09968 0.98543 0.0
H731 H 0.38761 0.05921 0.96102 0.0
H732 H 0.32922 0.07715 0.9508 0.0
H733 H 0.35759 0.12033 0.97284 0.0
H734 H 0.30374 0.08539 0.97873 0.0
H735 H 0.2862 1.00344 0.06903 0.0
H736 H 0.32903 0.06735 0.09495 0.0
H737 H 0.38606 0.13364 0.02251 0.0
C738 C 0.30129 0.98811 0.96596 0.0
C739 C 0.27156 0.94588 0.96931 0.0
C740 C 0.25141 0.93189 0.99407 0.0
C741 C 0.26187 0.95911 0.01567 0.0
C742 C 0.29227 1.00033 1.01204 0.0
C743 C 0.31073 1.01519 0.98757 0.0
C744 C 0.34361 0.06059 0.98935 0.0
C745 C 0.38643 0.06697 0.98219 0.0
C746 C 0.33286 0.08738 0.97184 0.0
C747 C 0.34081 0.06879 0.01858 0.0
C748 C 0.31177 0.03333 0.03142 0.0
C749 C 0.3073 0.03194 0.05896 0.0
C750 C 0.3314 0.06833 0.07352 0.0
C751 C 0.35792 0.10589 0.06047 0.0
C752 C 0.36393 0.10574 0.03276 0.0
H753 H 0.74463 0.66977 0.47532 0.0
H754 H 0.86945 0.77261 0.46669 0.0
H755 H 0.85431 0.81229 0.49991 0.0
H756 H 0.69156 0.72397 0.48652 0.0
H757 H 0.65813 0.68933 0.51194 0.0
H758 H 0.67851 0.67055 0.48648 0.0
H759 H 0.70945 0.64467 0.5224 0.0
H760 H 0.68897 0.66319 0.54799 0.0
H761 H 0.74333 0.68028 0.54711 0.0
H762 H 0.82047 0.84315 0.53093 0.0
H763 H 0.77697 0.85645 0.56241 0.0
H764 H 0.68134 0.72797 0.55678 0.0
C765 C 0.76891 0.70069 0.48025 0.0
C766 C 0.80753 0.71903 0.46705 0.0
C767 C 0.83877 0.7589 0.47516 0.0
C768 C 0.83061 0.78145 0.49433 0.0
C769 C 0.79161 0.76289 0.50623 0.0
C770 C 0.76185 0.72282 0.50005 0.0
C771 C 0.72342 0.7085 0.51684 0.0
C772 C 0.68569 0.69746 0.4994 0.0
C773 C 0.71587 0.67201 0.53464 0.0
C774 C 0.73566 0.74704 0.53303 0.0
C775 C 0.77476 0.77849 0.52641 0.0
C776 C 0.79056 0.81815 0.53705 0.0
C777 C 0.76598 0.82537 0.55521 0.0
C778 C 0.72702 0.79276 0.56347 0.0
C779 C 0.71173 0.75332 0.55181 0.0
H780 H 0.08644 0.33585 0.95142 0.0
H781 H 0.1853 0.33171 0.9926 0.0
H782 H 0.14048 0.30317 0.03245 0.0
H783 H 0.05124 0.36848 1.00403 0.0
H784 H 0.997 0.33809 0.99669 0.0
H785 H 1.03446 0.35284 0.97037 0.0
H786 H 1.00575 0.27526 0.95693 0.0
H787 H 0.96653 0.26268 0.98194 0.0
H788 H 0.99764 0.2386 0.98275 0.0
H789 H 0.08977 0.28969 0.07028 0.0
H790 H 1.03321 0.28096 0.10036 0.0
H791 H 0.96347 0.28286 0.03314 0.0
C792 C 0.09797 0.32747 0.96856 0.0
C793 C 0.13891 0.33516 0.96897 0.0
C794 C 0.15368 0.32515 0.99186 0.0
C795 C 0.12849 0.30914 0.01457 0.0
C796 C 0.08842 0.30273 0.01381 0.0
C797 C 0.07286 0.31053 0.99111 0.0
C798 C 1.02962 0.3031 0.99583 0.0
C799 C 1.02802 0.343 0.99148 0.0
C800 C 0.99807 0.26783 0.97828 0.0
C801 C 1.02353 0.29072 0.02484 0.0
C802 C 0.05795 0.29117 0.03501 0.0
C803 C 0.06166 0.28659 0.06219 0.0
C804 C 1.02902 0.28047 0.07913 0.0
C805 C 0.99235 0.27671 0.06882 0.0
C806 C 0.9901 0.28281 0.04136 0.0
H807 H 0.28982 0.05285 0.45163 0.0
H808 H 0.39485 0.15629 0.48916 0.0
H809 H 0.37171 0.12128 0.53259 0.0
H810 H 0.21546 1.0269 0.50941 0.0
H811 H 0.19223 0.97235 0.50282 0.0
H812 H 0.21267 1.00888 0.47584 0.0
H813 H 0.25867 0.97873 0.46139 0.0
H814 H 0.23858 0.94234 0.48825 0.0
H815 H 0.29349 0.97658 0.48503 0.0
H816 H 0.34458 0.07004 0.56997 0.0
H817 H 0.31627 1.00703 0.59765 0.0
H818 H 0.22703 0.93767 0.53675 0.0
C819 C 0.30726 0.06886 0.46907 0.0
C820 C 0.3441 0.10755 0.4669 0.0
C821 C 0.36645 0.12683 0.49024 0.0
C822 C 0.3534 0.1072 0.51505 0.0
C823 C 0.31755 0.06853 0.51635 0.0
C824 C 0.29451 0.04977 0.49397 0.0
C825 C 0.25967 1.00638 0.50009 0.0
C826 C 0.21751 1.00348 0.49685 0.0
C827 C 0.26285 0.97414 0.48267 0.0
C828 C 0.26823 1.00262 0.52904 0.0
C829 C 0.30123 0.03916 0.53821 0.0
C830 C 0.318 0.04174 0.56327 0.0
C831 C 0.3017 1.00587 0.57892 0.0
C832 C 0.2687 0.96803 0.56962 0.0
C833 C 0.25104 0.96673 0.54473 0.0
H834 H 0.79378 0.68454 0.02936 0.0
H835 H 0.80214 0.76415 0.09408 0.0
H836 H 0.78619 0.80594 0.06334 0.0
H837 H 0.82808 0.75545 0.9748 0.0
H838 H 0.78837 0.72191 0.95198 0.0
H839 H 0.80576 0.70039 0.97735 0.0
H840 H 0.73284 0.65606 0.99656 0.0
H841 H 0.71333 0.67423 0.9705 0.0
H842 H 0.70242 0.6797 1.0047 0.0
H843 H 0.76984 0.83901 0.02478 0.0
H844 H 0.7377 0.85065 0.98531 0.0
H845 H 0.72741 0.74125 0.94826 0.0
C846 C 0.79361 0.7117 0.03675 0.0
C847 C 0.8036 0.72428 0.06341 0.0
C848 C 0.79924 0.75732 0.07307 0.0
C849 C 0.7894 0.78055 0.05583 0.0
C850 C 0.78171 0.76866 0.02925 0.0
C851 C 0.78208 0.73397 0.02003 0.0
C852 C 0.76581 0.72345 0.99194 0.0
C853 C 0.79896 0.72544 0.97287 0.0
C854 C 0.72626 0.68085 0.99088 0.0
C855 C 0.75671 0.75793 0.98662 0.0
C856 C 0.76706 0.7843 1.00814 0.0
C857 C 0.76139 0.81843 1.00789 0.0
C858 C 0.74338 0.82496 0.98542 0.0
C859 C 0.73032 0.79686 0.96396 0.0
C860 C 0.73744 0.76324 0.96446 0.0
H861 H 0.09022 0.37652 0.55508 0.0
H862 H 0.10696 0.2712 0.56744 0.0
H863 H 0.05223 0.23116 0.5345 0.0
H864 H 0.98136 0.32223 0.54574 0.0
H865 H 0.983 0.35629 0.51994 0.0
H866 H 1.02219 0.37547 0.54511 0.0
H867 H 0.07905 0.39985 0.50881 0.0
H868 H 1.04005 0.38101 0.48352 0.0
H869 H 0.07683 0.36336 0.48447 0.0
H870 H 0.99184 0.20187 0.5009 0.0
H871 H 0.93913 0.18963 0.46684 0.0
H872 H 0.96865 0.31699 0.47444 0.0
C873 C 0.08243 0.34498 0.551 0.0
C874 C 0.10231 0.32669 0.56439 0.0
C875 C 0.0916 0.28561 0.55791 0.0
C876 C 0.06059 0.26268 0.53915 0.0
C877 C 0.04121 0.28161 0.52661 0.0
C878 C 0.05237 0.32214 0.53203 0.0
C879 C 1.02861 0.33638 0.51516 0.0
C880 C 1.00222 0.34828 0.53253 0.0
C881 C 0.05788 0.37226 0.49691 0.0
C882 C 1.00194 0.29749 0.49945 0.0
C883 C 1.0091 0.26593 0.50643 0.0
C884 C 0.98668 0.2267 0.495 0.0
C885 C 0.95696 0.22004 0.47561 0.0
C886 C 0.95087 0.2527 0.46733 0.0
C887 C 0.97315 0.29155 0.47991 0.0
H888 H 0.7635 0.28934 0.14377 0.0
H889 H 0.76099 0.18506 0.10405 0.0
H890 H 0.68487 0.15213 0.09942 0.0
H891 H 0.66805 0.23366 0.17987 0.0
H892 H 0.65457 0.2732 0.17527 0.0
H893 H 0.70801 0.28693 0.17629 0.0
H894 H 0.72052 0.32261 0.13043 0.0
H895 H 0.66719 0.30916 0.12933 0.0
H896 H 0.68894 0.29376 0.10268 0.0
H897 H 0.60754 0.13116 0.09952 0.0
H898 H 0.53919 0.12692 0.10133 0.0
H899 H 0.5954 0.24693 0.1394 0.0
C900 C 0.74706 0.25935 0.1343 0.0
C901 C 0.7682 0.23952 0.12453 0.0
C902 C 0.74543 0.20071 0.11179 0.0
C903 C 0.70219 0.1818 0.10915 0.0
C904 C 0.68237 0.20234 0.11911 0.0
C905 C 0.70435 0.24051 0.1312 0.0
C906 C 0.67668 0.25748 0.13919 0.0
C907 C 0.67685 0.26313 0.16945 0.0
C908 C 0.68907 0.29814 0.12452 0.0
C909 C 0.63544 0.22291 0.1298 0.0
C910 C 0.63901 0.1911 0.11846 0.0
C911 C 0.60459 0.15597 0.10835 0.0
C912 C 0.56587 0.15371 0.10955 0.0
C913 C 0.56205 0.18655 0.12053 0.0
C914 C 0.59733 0.22129 0.13093 0.0
H915 H 0.68719 0.47861 0.43387 0.0
H916 H 0.64277 0.53113 0.37508 0.0
H917 H 0.57664 0.46461 0.37272 0.0
H918 H 0.64316 0.37826 0.40492 0.0
H919 H 0.63107 0.35177 0.43635 0.0
H920 H 0.67382 0.40377 0.43373 0.0
H921 H 0.64239 0.42679 0.47153 0.0
H922 H 0.59944 0.37486 0.47419 0.0
H923 H 0.59037 0.41719 0.46849 0.0
H924 H 0.51597 0.39001 0.37571 0.0
H925 H 0.46729 0.31555 0.3839 0.0
H926 H 0.55208 0.31414 0.44156 0.0
C927 C 0.66345 0.47624 0.42062 0.0
C928 C 0.66998 0.51001 0.4047 0.0
C929 C 0.63828 0.50561 0.3875 0.0
C930 C 0.60066 0.46796 0.38605 0.0
C931 C 0.59523 0.43511 0.402 0.0
C932 C 0.62586 0.43904 0.41898 0.0
C933 C 0.61305 0.3991 0.43363 0.0
C934 C 0.64198 0.38224 0.42674 0.0
C935 C 0.6112 0.40484 0.46374 0.0
C936 C 0.5704 0.37194 0.4223 0.0
C937 C 0.56055 0.39303 0.40402 0.0
C938 C 0.5233 0.3734 0.39019 0.0
C939 C 0.49578 0.3311 0.39499 0.0
C940 C 0.50553 0.30899 0.41358 0.0
C941 C 0.54321 0.33011 0.42753 0.0
H942 H 0.89453 0.40906 0.15603 0.0
H943 H 0.92099 0.41564 0.07178 0.0
H944 H 0.91562 0.47867 0.06824 0.0
H945 H 0.81668 0.43466 0.14951 0.0
H946 H 0.82805 0.46387 0.17989 0.0
H947 H 0.84032 0.42328 0.17677 0.0
H948 H 0.91651 0.47497 0.18852 0.0
H949 H 0.90444 0.51579 0.19168 0.0
H950 H 0.94492 0.52173 0.1694 0.0
H951 H 0.90283 0.53807 0.07307 0.0
H952 H 0.87784 0.58584 0.08507 0.0
H953 H 0.85533 0.53866 0.16571 0.0
C954 C 0.90035 0.42459 0.13705 0.0
C955 C 0.90907 0.40818 0.11424 0.0
C956 C 0.91481 0.42817 0.0895 0.0
C957 C 0.91194 0.46402 0.08733 0.0
C958 C 0.90264 0.47921 0.11004 0.0
C959 C 0.89656 0.45998 0.13442 0.0
C960 C 0.8823 0.47991 0.15502 0.0
C961 C 0.83929 0.44857 0.16592 0.0
C962 C 0.91394 0.49925 0.17748 0.0
C963 C 0.88086 0.51292 0.13835 0.0
C964 C 0.8934 0.51242 0.11258 0.0
C965 C 0.89324 0.53896 0.09325 0.0
C966 C 0.87905 0.5661 0.10027 0.0
C967 C 0.86468 0.56621 0.12633 0.0
C968 C 0.86639 0.53967 0.14566 0.0
H969 H 0.57261 0.23334 0.37743 0.0
H970 H 0.51845 0.11793 0.42093 0.0
H971 H 0.58741 0.12377 0.42365 0.0
H972 H 0.64669 0.2188 0.33933 0.0
H973 H 0.68597 0.27255 0.3412 0.0
H974 H 0.63227 0.25799 0.34208 0.0
H975 H 0.64371 0.29736 0.38651 0.0
H976 H 0.69741 0.31205 0.38574 0.0
H977 H 0.66595 0.28506 0.41414 0.0
H978 H 0.66469 0.14448 0.42235 0.0
H979 H 0.74085 0.17794 0.41762 0.0
H980 H 0.74232 0.27927 0.37501 0.0
C981 C 0.57513 0.20905 0.38734 0.0
C982 C 0.54008 0.175 0.39884 0.0
C983 C 0.54484 0.14416 0.41186 0.0
C984 C 0.58392 0.14728 0.4135 0.0
C985 C 0.61798 0.18147 0.40203 0.0
C986 C 0.61376 0.21177 0.38919 0.0
C987 C 0.65497 0.246 0.37905 0.0
C988 C 0.65496 0.24899 0.34861 0.0
C989 C 0.66616 0.28756 0.39215 0.0
C990 C 0.68325 0.23049 0.3882 0.0
C991 C 0.66158 0.19319 0.40137 0.0
C992 C 0.68179 0.1736 0.41194 0.0
C993 C 0.7251 0.19278 0.40913 0.0
C994 C 0.74783 0.23121 0.39587 0.0
C995 C 0.72617 0.24983 0.38518 0.0
H996 H 0.55421 0.32441 0.09917 0.0
H997 H 0.47132 0.34068 0.15177 0.0
H998 H 0.52366 0.41443 0.15714 0.0
H999 H 0.64452 0.38719 0.13589 0.0
H1000 H 0.67819 0.40869 0.1075 0.0
H1001 H 0.63285 0.35826 0.10537 0.0
H1002 H 0.60752 0.38175 0.06489 0.0
H1003 H 0.65306 0.43215 0.06667 0.0
H1004 H 0.60265 0.4272 0.06752 0.0
H1005 H 0.58666 0.48574 0.15896 0.0
H1006 H 0.65501 0.54948 0.15614 0.0
H1007 H 0.69819 0.48686 0.10361 0.0
C1008 C 0.54667 0.3438 0.11119 0.0
C1009 C 0.50831 0.32688 0.12471 0.0
C1010 C 0.50025 0.35302 0.14101 0.0
C1011 C 0.52987 0.39496 0.14423 0.0
C1012 C 0.56775 0.41047 0.13123 0.0
C1013 C 0.57623 0.38576 0.11494 0.0
C1014 C 0.62029 0.40957 0.10451 0.0
C1015 C 0.64543 0.38974 0.11388 0.0
C1016 C 0.6209 0.41286 0.07409 0.0
C1017 C 0.63522 0.4514 0.11752 0.0
C1018 C 0.60438 0.45129 0.13278 0.0
C1019 C 0.61096 0.48621 0.14696 0.0
C1020 C 0.64991 0.52227 0.14532 0.0
C1021 C 0.68192 0.52318 0.12972 0.0
C1022 C 0.67434 0.48712 0.11573 0.0
H1023 H 0.83365 0.51731 0.3605 0.0
H1024 H 0.87685 0.57733 0.43685 0.0
H1025 H 0.90812 0.53386 0.44538 0.0
H1026 H 0.80333 0.41819 0.38172 0.0
H1027 H 0.81878 0.40247 0.35198 0.0
H1028 H 0.80493 0.442 0.35035 0.0
H1029 H 0.87574 0.49219 0.32881 0.0
H1030 H 0.88983 0.45269 0.33032 0.0
H1031 H 0.92252 0.50245 0.34529 0.0
H1032 H 0.92638 0.47774 0.44802 0.0
H1033 H 0.93124 0.41438 0.44429 0.0
H1034 H 0.87775 0.39203 0.36576 0.0
C1035 C 0.85049 0.52206 0.37879 0.0
C1036 C 0.85294 0.55091 0.39799 0.0
C1037 C 0.87478 0.55566 0.42178 0.0
C1038 C 0.89268 0.53111 0.42677 0.0
C1039 C 0.8888 0.50227 0.40767 0.0
C1040 C 0.86851 0.49789 0.38405 0.0
C1041 C 0.86581 0.46253 0.36767 0.0
C1042 C 0.82054 0.42935 0.36265 0.0
C1043 C 0.88992 0.47843 0.34147 0.0
C1044 C 0.88667 0.4468 0.38609 0.0
C1045 C 0.9 0.47036 0.40899 0.0
C1046 C 0.91688 0.45965 0.42996 0.0
C1047 C 0.9195 0.42363 0.42768 0.0
C1048 C 0.90554 0.39885 0.40457 0.0
C1049 C 0.88974 0.41111 0.38332 0.0
H1050 H 0.23809 0.7258 0.66112 0.0
H1051 H 0.19694 0.73822 0.58318 0.0
H1052 H 0.17049 0.6638 0.57491 0.0
H1053 H 0.27404 0.65898 0.64241 0.0
H1054 H 0.25769 0.62858 0.67237 0.0
H1055 H 0.26987 0.68163 0.67308 0.0
H1056 H 0.19747 0.65926 0.69258 0.0
H1057 H 0.18511 0.60607 0.69206 0.0
H1058 H 0.15216 0.62103 0.67543 0.0
H1059 H 0.15502 0.58951 0.57353 0.0
H1060 H 0.14876 0.52107 0.57981 0.0
H1061 H 0.19805 0.55627 0.65924 0.0
C1062 C 0.22284 0.71282 0.64246 0.0
C1063 C 0.21948 0.73804 0.62281 0.0
C1064 C 0.19963 0.71965 0.59862 0.0
C1065 C 0.1846 0.67736 0.59374 0.0
C1066 C 0.18927 0.65368 0.61333 0.0
C1067 C 0.20756 0.67072 0.63733 0.0
C1068 C 0.21044 0.63911 0.65468 0.0
C1069 C 0.25569 0.65291 0.661 0.0
C1070 C 0.18476 0.63088 0.6802 0.0
C1071 C 0.19157 0.60168 0.63654 0.0
C1072 C 0.17955 0.61076 0.61277 0.0
C1073 C 0.16371 0.58196 0.59222 0.0
C1074 C 0.16031 0.54315 0.59596 0.0
C1075 C 0.17235 0.53312 0.62013 0.0
C1076 C 0.18775 0.56273 0.64077 0.0
H1077 H 0.38893 0.82688 0.94034 0.0
H1078 H 0.42501 0.90914 0.8726 0.0
H1079 H 0.48895 0.90511 0.86768 0.0
H1080 H 0.49144 0.86683 0.96758 0.0
H1081 H 0.48133 0.81654 0.97806 0.0
H1082 H 0.43973 0.82752 0.97649 0.0
H1083 H 0.39926 0.7646 0.94537 0.0
H1084 H 0.44065 0.75339 0.94689 0.0
H1085 H 0.42337 0.76091 0.91519 0.0
H1086 H 0.54765 0.88827 0.86927 0.0
H1087 H 0.59487 0.86101 0.87735 0.0
H1088 H 0.51958 0.79167 0.94481 0.0
C1089 C 0.41042 0.84433 0.92457 0.0
C1090 C 0.40217 0.86837 0.90685 0.0
C1091 C 0.43092 0.89064 0.88643 0.0
C1092 C 0.46726 0.88851 0.88352 0.0
C1093 C 0.47437 0.86423 0.90132 0.0
C1094 C 0.4467 0.84271 0.92152 0.0
C1095 C 0.46063 0.81804 0.93775 0.0
C1096 C 0.46877 0.83315 0.96668 0.0
C1097 C 0.42911 0.77149 0.93619 0.0
C1098 C 0.50031 0.82854 0.92342 0.0
C1099 C 0.50792 0.85522 0.90247 0.0
C1100 C 0.54211 0.86769 0.8858 0.0
C1101 C 0.5688 0.8521 0.89054 0.0
C1102 C 0.56118 0.82444 0.91182 0.0
C1103 C 0.52669 0.81311 0.92855 0.0
H1104 H 0.48645 0.68338 0.6483 0.0
H1105 H 0.53942 0.62585 0.59955 0.0
H1106 H 0.47155 0.561 0.59862 0.0
H1107 H 0.41981 0.59211 0.68778 0.0
H1108 H 0.37896 0.60424 0.68964 0.0
H1109 H 0.43183 0.64519 0.68671 0.0
H1110 H 0.41326 0.67251 0.64489 0.0
H1111 H 0.36041 0.6316 0.64765 0.0
H1112 H 0.38877 0.63816 0.61728 0.0
H1113 H 0.39486 0.50332 0.60079 0.0
H1114 H 0.31948 0.45807 0.6085 0.0
H1115 H 0.31963 0.55346 0.65777 0.0
C1116 C 0.48387 0.657 0.63762 0.0
C1117 C 0.51816 0.6596 0.62398 0.0
C1118 C 0.51355 0.62444 0.61023 0.0
C1119 C 0.47508 0.58753 0.60954 0.0
C1120 C 0.44164 0.58612 0.623 0.0
C1121 C 0.44596 0.61991 0.63705 0.0
C1122 C 0.4056 0.61081 0.64989 0.0
C1123 C 0.40929 0.61322 0.68031 0.0
C1124 C 0.39117 0.64 0.63929 0.0
C1125 C 0.37764 0.56682 0.64066 0.0
C1126 C 0.39869 0.55298 0.62503 0.0
C1127 C 0.37831 0.51378 0.61331 0.0
C1128 C 0.33548 0.48826 0.61775 0.0
C1129 C 0.31362 0.50185 0.63401 0.0
C1130 C 0.33537 0.54164 0.64561 0.0
H1131 H 0.25317 0.72166 0.86452 0.0
H1132 H 0.19535 0.72945 0.93757 0.0
H1133 H 0.16665 0.65451 0.94471 0.0
H1134 H 0.17099 0.61701 0.84453 0.0
H1135 H 0.20773 0.60344 0.83179 0.0
H1136 H 0.2195 0.65644 0.83089 0.0
H1137 H 0.28707 0.6787 0.85668 0.0
H1138 H 0.27549 0.62588 0.85776 0.0
H1139 H 0.28471 0.65474 0.88813 0.0
H1140 H 0.15111 0.58062 0.94646 0.0
H1141 H 0.14885 0.51365 0.94233 0.0
H1142 H 0.21568 0.55339 0.86772 0.0
C1143 C 0.2337 0.70753 0.88175 0.0
C1144 C 0.22635 0.73156 0.90044 0.0
C1145 C 0.20121 0.71177 0.92288 0.0
C1146 C 0.18477 0.66917 0.92709 0.0
C1147 C 0.19347 0.64665 0.90858 0.0
C1148 C 0.2171 0.66512 0.88623 0.0
C1149 C 0.22427 0.63473 0.8703 0.0
C1150 C 0.20443 0.62748 0.84275 0.0
C1151 C 0.27062 0.64939 0.86811 0.0
C1152 C 0.20188 0.59646 0.88751 0.0
C1153 C 0.18408 0.60393 0.90941 0.0
C1154 C 0.1643 0.57426 0.92915 0.0
C1155 C 0.16318 0.5363 0.92665 0.0
C1156 C 0.18156 0.52815 0.90454 0.0
C1157 C 0.20053 0.55842 0.88451 0.0
H1158 H 0.40587 0.87557 0.64864 0.0
H1159 H 0.39333 0.87435 0.56312 0.0
H1160 H 0.45626 0.86937 0.55765 0.0
H1161 H 0.51977 0.93355 0.65077 0.0
H1162 H 0.52187 0.9028 0.67752 0.0
H1163 H 0.47837 0.91073 0.67478 0.0
H1164 H 0.42865 0.83149 0.67457 0.0
H1165 H 0.47194 0.82338 0.6774 0.0
H1166 H 0.43615 0.80014 0.65042 0.0
H1167 H 0.51797 0.85999 0.56136 0.0
H1168 H 0.57141 0.84307 0.57407 0.0
H1169 H 0.54338 0.84882 0.65719 0.0
C1170 C 0.41691 0.87504 0.6288 0.0
C1171 C 0.39502 0.87576 0.60627 0.0
C1172 C 0.40978 0.87404 0.58063 0.0
C1173 C 0.44559 0.87135 0.57732 0.0
C1174 C 0.4663 0.87021 0.59988 0.0
C1175 C 0.45245 0.87184 0.62514 0.0
C1176 C 0.47859 0.8668 0.64602 0.0
C1177 C 0.50098 0.9058 0.66329 0.0
C1178 C 0.45226 0.82815 0.6631 0.0
C1179 C 0.50878 0.86145 0.62856 0.0
C1180 C 0.50149 0.86403 0.60201 0.0
C1181 C 0.52422 0.85827 0.58211 0.0
C1182 C 0.55461 0.84874 0.58952 0.0
C1183 C 0.56186 0.84477 0.61661 0.0
C1184 C 0.53903 0.85205 0.63629 0.0
H1185 H 0.51029 0.64608 0.9262 0.0
H1186 H 0.55184 0.64656 0.84561 0.0
H1187 H 0.48416 0.58533 0.83525 0.0
H1188 H 0.44666 0.53283 0.93379 0.0
H1189 H 0.40719 0.53601 0.95255 0.0
H1190 H 0.46004 0.57737 0.95427 0.0
H1191 H 0.43763 0.62969 0.94009 0.0
H1192 H 0.38481 0.58854 0.93828 0.0
H1193 H 0.40908 0.62102 0.9098 0.0
H1194 H 0.41 0.52767 0.83265 0.0
H1195 H 0.33556 0.47803 0.83786 0.0
H1196 H 0.34155 0.51412 0.92036 0.0
C1197 C 0.50542 0.63275 0.90652 0.0
C1198 C 0.53655 0.65086 0.88675 0.0
C1199 C 0.52865 0.63302 0.86111 0.0
C1200 C 0.49025 0.59823 0.85506 0.0
C1201 C 0.45998 0.5815 0.87487 0.0
C1202 C 0.46718 0.59807 0.90014 0.0
C1203 C 0.42867 0.57569 0.91738 0.0
C1204 C 0.43609 0.5542 0.94089 0.0
C1205 C 0.4142 0.60551 0.92694 0.0
C1206 C 0.39845 0.54434 0.89777 0.0
C1207 C 0.41725 0.54814 0.8734 0.0
C1208 C 0.39516 0.52414 0.85173 0.0
C1209 C 0.35278 0.49599 0.8549 0.0
C1210 C 0.33261 0.49174 0.87958 0.0
C1211 C 0.3561 0.51596 0.90138 0.0
loop_
_geom_bond_atom_site_label_1
_geom_bond_atom_site_label_2
_geom_bond_distance
_geom_bond_site_symmetry_2
_ccdc_geom_bond_type
O0 Tb1 2.506 . S
O0 C14 1.265 . S
Tb1 O0 2.506 . S
Tb1 O6 2.312 . S
Tb1 O10 2.271 . S
Tb1 O12 2.338 . S
Tb1 O19 2.441 . S
C2 O10 1.252 . S
C2 O11 1.253 . S
O3 Tb4 2.271 . S
O3 C13 1.252 . S
Tb4 O3 2.271 . S
Tb4 O7 2.338 . S
Tb4 O11 2.312 . S
Tb4 O15 2.441 . S
Tb4 O16 2.506 . S
C5 O15 1.244 . S
C5 O16 1.265 . S
O6 Tb1 2.312 . S
O6 C13 1.253 . S
O7 Tb4 2.338 . S
O7 C8 1.258 . S
C8 O7 1.258 . S
C8 O9 1.251 . S
O9 C8 1.251 . S
O10 Tb1 2.271 . S
O10 C2 1.252 . S
O11 C2 1.253 . S
O11 Tb4 2.312 . S
O12 Tb1 2.338 . S
O12 C17 1.258 . S
C13 O3 1.252 . S
C13 O6 1.253 . S
C14 O0 1.265 . S
C14 O19 1.244 . S
O15 Tb4 2.441 . S
O15 C5 1.244 . S
O16 Tb4 2.506 . S
O16 C5 1.265 . S
C17 O12 1.258 . S
C17 O18 1.251 . S
O18 C17 1.251 . S
O19 Tb1 2.441 . S
O19 C14 1.244 . S
O20 Tb21 2.506 . S
O20 C34 1.265 . S
Tb21 O20 2.506 . S
Tb21 O26 2.312 . S
Tb21 O30 2.271 . S
Tb21 O32 2.338 . S
Tb21 O39 2.441 . S
C22 O30 1.252 . S
C22 O31 1.253 . S
O23 Tb24 2.271 . S
O23 C33 1.252 . S
Tb24 O23 2.271 . S
Tb24 O27 2.338 . S
Tb24 O31 2.312 . S
Tb24 O35 2.441 . S
Tb24 O36 2.506 . S
C25 O35 1.244 . S
C25 O36 1.265 . S
O26 Tb21 2.312 . S
O26 C33 1.253 . S
O27 Tb24 2.338 . S
O27 C28 1.258 . S
C28 O27 1.258 . S
C28 O29 1.251 . S
O29 C28 1.251 . S
O30 Tb21 2.271 . S
O30 C22 1.252 . S
O31 C22 1.253 . S
O31 Tb24 2.312 . S
O32 Tb21 2.338 . S
O32 C37 1.258 . S
C33 O23 1.252 . S
C33 O26 1.253 . S
C34 O20 1.265 . S
C34 O39 1.244 . S
O35 Tb24 2.441 . S
O35 C25 1.244 . S
O36 Tb24 2.506 . S
O36 C25 1.265 . S
C37 O32 1.258 . S
C37 O38 1.251 . S
O38 C37 1.251 . S
O39 Tb21 2.441 . S
O39 C34 1.244 . S
O40 Tb41 2.506 . S
O40 C54 1.265 . S
Tb41 O40 2.506 . S
Tb41 O46 2.312 . S
Tb41 O50 2.271 . S
Tb41 O52 2.338 . S
Tb41 O59 2.441 . S
C42 O50 1.252 . S
C42 O51 1.253 . S
O43 Tb44 2.271 . S
O43 C53 1.252 . S
Tb44 O43 2.271 . S
Tb44 O47 2.338 . S
Tb44 O51 2.312 . S
Tb44 O55 2.441 . S
Tb44 O56 2.506 . S
C45 O55 1.244 . S
C45 O56 1.265 . S
O46 Tb41 2.312 . S
O46 C53 1.253 . S
O47 Tb44 2.338 . S
O47 C48 1.258 . S
C48 O47 1.258 . S
C48 O49 1.251 . S
O49 C48 1.251 . S
O50 Tb41 2.271 . S
O50 C42 1.252 . S
O51 C42 1.253 . S
O51 Tb44 2.312 . S
O52 Tb41 2.338 . S
O52 C57 1.258 . S
C53 O43 1.252 . S
C53 O46 1.253 . S
C54 O40 1.265 . S
C54 O59 1.244 . S
O55 Tb44 2.441 . S
O55 C45 1.244 . S
O56 Tb44 2.506 . S
O56 C45 1.265 . S
C57 O52 1.258 . S
C57 O58 1.251 . S
O58 C57 1.251 . S
O59 Tb41 2.441 . S
O59 C54 1.244 . S
O60 Tb61 2.506 . S
O60 C74 1.265 . S
Tb61 O60 2.506 . S
Tb61 O66 2.312 . S
Tb61 O70 2.271 . S
Tb61 O72 2.338 . S
Tb61 O79 2.441 . S
C62 O70 1.252 . S
C62 O71 1.253 . S
O63 Tb64 2.271 . S
O63 C73 1.252 . S
Tb64 O63 2.271 . S
Tb64 O67 2.338 . S
Tb64 O71 2.312 . S
Tb64 O75 2.441 . S
Tb64 O76 2.506 . S
C65 O75 1.244 . S
C65 O76 1.265 . S
O66 Tb61 2.312 . S
O66 C73 1.253 . S
O67 Tb64 2.338 . S
O67 C68 1.258 . S
C68 O67 1.258 . S
C68 O69 1.251 . S
O69 C68 1.251 . S
O70 Tb61 2.271 . S
O70 C62 1.252 . S
O71 C62 1.253 . S
O71 Tb64 2.312 . S
O72 Tb61 2.338 . S
O72 C77 1.258 . S
C73 O63 1.252 . S
C73 O66 1.253 . S
C74 O60 1.265 . S
C74 O79 1.244 . S
O75 Tb64 2.441 . S
O75 C65 1.244 . S
O76 Tb64 2.506 . S
O76 C65 1.265 . S
C77 O72 1.258 . S
C77 O78 1.251 . S
O78 C77 1.251 . S
O79 Tb61 2.441 . S
O79 C74 1.244 . S
O80 Tb81 2.506 . S
O80 C94 1.265 . S
Tb81 O80 2.506 . S
Tb81 O86 2.312 . S
Tb81 O90 2.271 . S
Tb81 O92 2.338 . S
Tb81 O99 2.441 . S
C82 O90 1.252 . S
C82 O91 1.253 . S
O83 Tb84 2.271 . S
O83 C93 1.252 . S
Tb84 O83 2.271 . S
Tb84 O87 2.338 . S
Tb84 O91 2.312 . S
Tb84 O95 2.441 . S
Tb84 O96 2.506 . S
C85 O95 1.244 . S
C85 O96 1.265 . S
O86 Tb81 2.312 . S
O86 C93 1.253 . S
O87 Tb84 2.338 . S
O87 C88 1.258 . S
C88 O87 1.258 . S
C88 O89 1.251 . S
O89 C88 1.251 . S
O90 Tb81 2.271 . S
O90 C82 1.252 . S
O91 C82 1.253 . S
O91 Tb84 2.312 . S
O92 Tb81 2.338 . S
O92 C97 1.258 . S
C93 O83 1.252 . S
C93 O86 1.253 . S
C94 O80 1.265 . S
C94 O99 1.244 . S
O95 Tb84 2.441 . S
O95 C85 1.244 . S
O96 Tb84 2.506 . S
O96 C85 1.265 . S
C97 O92 1.258 . S
C97 O98 1.251 . S
O98 C97 1.251 . S
O99 Tb81 2.441 . S
O99 C94 1.244 . S
O100 Tb101 2.506 . S
O100 C114 1.265 . S
Tb101 O100 2.506 . S
Tb101 O106 2.312 . S
Tb101 O110 2.271 . S
Tb101 O112 2.338 . S
Tb101 O119 2.441 . S
C102 O110 1.252 . S
C102 O111 1.253 . S
O103 Tb104 2.271 . S
O103 C113 1.252 . S
Tb104 O103 2.271 . S
Tb104 O107 2.338 . S
Tb104 O111 2.312 . S
Tb104 O115 2.441 . S
Tb104 O116 2.506 . S
C105 O115 1.244 . S
C105 O116 1.265 . S
O106 Tb101 2.312 . S
O106 C113 1.253 . S
O107 Tb104 2.338 . S
O107 C108 1.258 . S
C108 O107 1.258 . S
C108 O109 1.251 . S
O109 C108 1.251 . S
O110 Tb101 2.271 . S
O110 C102 1.252 . S
O111 C102 1.253 . S
O111 Tb104 2.312 . S
O112 Tb101 2.338 . S
O112 C117 1.258 . S
C113 O103 1.252 . S
C113 O106 1.253 . S
C114 O100 1.265 . S
C114 O119 1.244 . S
O115 Tb104 2.441 . S
O115 C105 1.244 . S
O116 Tb104 2.506 . S
O116 C105 1.265 . S
C117 O112 1.258 . S
C117 O118 1.251 . S
O118 C117 1.251 . S
O119 Tb101 2.441 . S
O119 C114 1.244 . S
O120 Tb121 2.506 . S
O120 C134 1.265 . S
Tb121 O120 2.506 . S
Tb121 O126 2.312 . S
Tb121 O130 2.271 . S
Tb121 O132 2.338 . S
Tb121 O139 2.441 . S
C122 O130 1.252 . S
C122 O131 1.253 . S
O123 Tb124 2.271 . S
O123 C133 1.252 . S
Tb124 O123 2.271 . S
Tb124 O127 2.338 . S
Tb124 O131 2.312 . S
Tb124 O135 2.441 . S
Tb124 O136 2.506 . S
C125 O135 1.244 . S
C125 O136 1.265 . S
O126 Tb121 2.312 . S
O126 C133 1.253 . S
O127 Tb124 2.338 . S
O127 C128 1.258 . S
C128 O127 1.258 . S
C128 O129 1.251 . S
O129 C128 1.251 . S
O130 Tb121 2.271 . S
O130 C122 1.252 . S
O131 C122 1.253 . S
O131 Tb124 2.312 . S
O132 Tb121 2.338 . S
O132 C137 1.258 . S
C133 O123 1.252 . S
C133 O126 1.253 . S
C134 O120 1.265 . S
C134 O139 1.244 . S
O135 Tb124 2.441 . S
O135 C125 1.244 . S
O136 Tb124 2.506 . S
O136 C125 1.265 . S
C137 O132 1.258 . S
C137 O138 1.251 . S
O138 C137 1.251 . S
O139 Tb121 2.441 . S
O139 C134 1.244 . S
O140 Tb141 2.506 . S
O140 C154 1.265 . S
Tb141 O140 2.506 . S
Tb141 O146 2.312 . S
Tb141 O150 2.271 . S
Tb141 O152 2.338 . S
Tb141 O159 2.441 . S
C142 O150 1.252 . S
C142 O151 1.253 . S
O143 Tb144 2.271 . S
O143 C153 1.252 . S
Tb144 O143 2.271 . S
Tb144 O147 2.338 . S
Tb144 O151 2.312 . S
Tb144 O155 2.441 . S
Tb144 O156 2.506 . S
C145 O155 1.244 . S
C145 O156 1.265 . S
O146 Tb141 2.312 . S
O146 C153 1.253 . S
O147 Tb144 2.338 . S
O147 C148 1.258 . S
C148 O147 1.258 . S
C148 O149 1.251 . S
O149 C148 1.251 . S
O150 Tb141 2.271 . S
O150 C142 1.252 . S
O151 C142 1.253 . S
O151 Tb144 2.312 . S
O152 Tb141 2.338 . S
O152 C157 1.258 . S
C153 O143 1.252 . S
C153 O146 1.253 . S
C154 O140 1.265 . S
C154 O159 1.244 . S
O155 Tb144 2.441 . S
O155 C145 1.244 . S
O156 Tb144 2.506 . S
O156 C145 1.265 . S
C157 O152 1.258 . S
C157 O158 1.251 . S
O158 C157 1.251 . S
O159 Tb141 2.441 . S
O159 C154 1.244 . S
O160 Tb161 2.506 . S
O160 C174 1.265 . S
Tb161 O160 2.506 . S
Tb161 O166 2.312 . S
Tb161 O170 2.271 . S
Tb161 O172 2.338 . S
Tb161 O179 2.441 . S
C162 O170 1.252 . S
C162 O171 1.253 . S
O163 Tb164 2.271 . S
O163 C173 1.252 . S
Tb164 O163 2.271 . S
Tb164 O167 2.338 . S
Tb164 O171 2.312 . S
Tb164 O175 2.441 . S
Tb164 O176 2.506 . S
C165 O175 1.244 . S
C165 O176 1.265 . S
O166 Tb161 2.312 . S
O166 C173 1.253 . S
O167 Tb164 2.338 . S
O167 C168 1.258 . S
C168 O167 1.258 . S
C168 O169 1.251 . S
O169 C168 1.251 . S
O170 Tb161 2.271 . S
O170 C162 1.252 . S
O171 C162 1.253 . S
O171 Tb164 2.312 . S
O172 Tb161 2.338 . S
O172 C177 1.258 . S
C173 O163 1.252 . S
C173 O166 1.253 . S
C174 O160 1.265 . S
C174 O179 1.244 . S
O175 Tb164 2.441 . S
O175 C165 1.244 . S
O176 Tb164 2.506 . S
O176 C165 1.265 . S
C177 O172 1.258 . S
C177 O178 1.251 . S
O178 C177 1.251 . S
O179 Tb161 2.441 . S
O179 C174 1.244 . S
O180 Tb181 2.506 . S
O180 C194 1.265 . S
Tb181 O180 2.506 . S
Tb181 O186 2.312 . S
Tb181 O190 2.271 . S
Tb181 O192 2.338 . S
Tb181 O199 2.441 . S
C182 O190 1.252 . S
C182 O191 1.253 . S
O183 Tb184 2.271 . S
O183 C193 1.252 . S
Tb184 O183 2.271 . S
Tb184 O187 2.338 . S
Tb184 O191 2.312 . S
Tb184 O195 2.441 . S
Tb184 O196 2.506 . S
C185 O195 1.244 . S
C185 O196 1.265 . S
O186 Tb181 2.312 . S
O186 C193 1.253 . S
O187 Tb184 2.338 . S
O187 C188 1.258 . S
C188 O187 1.258 . S
C188 O189 1.251 . S
O189 C188 1.251 . S
O190 Tb181 2.271 . S
O190 C182 1.252 . S
O191 C182 1.253 . S
O191 Tb184 2.312 . S
O192 Tb181 2.338 . S
O192 C197 1.258 . S
C193 O183 1.252 . S
C193 O186 1.253 . S
C194 O180 1.265 . S
C194 O199 1.244 . S
O195 Tb184 2.441 . S
O195 C185 1.244 . S
O196 Tb184 2.506 . S
O196 C185 1.265 . S
C197 O192 1.258 . S
C197 O198 1.251 . S
O198 C197 1.251 . S
O199 Tb181 2.441 . S
O199 C194 1.244 . S
O200 Tb201 2.506 . S
O200 C214 1.265 . S
Tb201 O200 2.506 . S
Tb201 O206 2.312 . S
Tb201 O210 2.271 . S
Tb201 O212 2.338 . S
Tb201 O219 2.441 . S
C202 O210 1.252 . S
C202 O211 1.253 . S
O203 Tb204 2.271 . S
O203 C213 1.252 . S
Tb204 O203 2.271 . S
Tb204 O207 2.338 . S
Tb204 O211 2.312 . S
Tb204 O215 2.441 . S
Tb204 O216 2.506 . S
C205 O215 1.244 . S
C205 O216 1.265 . S
O206 Tb201 2.312 . S
O206 C213 1.253 . S
O207 Tb204 2.338 . S
O207 C208 1.258 . S
C208 O207 1.258 . S
C208 O209 1.251 . S
O209 C208 1.251 . S
O210 Tb201 2.271 . S
O210 C202 1.252 . S
O211 C202 1.253 . S
O211 Tb204 2.312 . S
O212 Tb201 2.338 . S
O212 C217 1.258 . S
C213 O203 1.252 . S
C213 O206 1.253 . S
C214 O200 1.265 . S
C214 O219 1.244 . S
O215 Tb204 2.441 . S
O215 C205 1.244 . S
O216 Tb204 2.506 . S
O216 C205 1.265 . S
C217 O212 1.258 . S
C217 O218 1.251 . S
O218 C217 1.251 . S
O219 Tb201 2.441 . S
O219 C214 1.244 . S
O220 Tb221 2.506 . S
O220 C234 1.265 . S
Tb221 O220 2.506 . S
Tb221 O226 2.312 . S
Tb221 O230 2.271 . S
Tb221 O232 2.338 . S
Tb221 O239 2.441 . S
C222 O230 1.252 . S
C222 O231 1.253 . S
O223 Tb224 2.271 . S
O223 C233 1.252 . S
Tb224 O223 2.271 . S
Tb224 O227 2.338 . S
Tb224 O231 2.312 . S
Tb224 O235 2.441 . S
Tb224 O236 2.506 . S
C225 O235 1.244 . S
C225 O236 1.265 . S
O226 Tb221 2.312 . S
O226 C233 1.253 . S
O227 Tb224 2.338 . S
O227 C228 1.258 . S
C228 O227 1.258 . S
C228 O229 1.251 . S
O229 C228 1.251 . S
O230 Tb221 2.271 . S
O230 C222 1.252 . S
O231 C222 1.253 . S
O231 Tb224 2.312 . S
O232 Tb221 2.338 . S
O232 C237 1.258 . S
C233 O223 1.252 . S
C233 O226 1.253 . S
C234 O220 1.265 . S
C234 O239 1.244 . S
O235 Tb224 2.441 . S
O235 C225 1.244 . S
O236 Tb224 2.506 . S
O236 C225 1.265 . S
C237 O232 1.258 . S
C237 O238 1.251 . S
O238 C237 1.251 . S
O239 Tb221 2.441 . S
O239 C234 1.244 . S
H240 C252 0.930 . S
H241 C254 0.930 1_655 S
H242 C255 0.930 . S
H243 C259 0.959 . S
H244 C259 0.959 . S
H245 C259 0.961 . S
H246 C260 0.960 . S
H247 C260 0.961 . S
H248 C260 0.959 . S
H249 C263 0.929 . S
H250 C264 0.931 . S
H251 C266 0.930 . S
C252 H240 0.930 . S
C252 C253 1.399 . S
C252 C257 1.399 . S
C253 C252 1.399 . S
C253 C254 1.376 . S
C254 H241 0.930 1_455 S
C254 C253 1.376 . S
C254 C255 1.388 . S
C255 H242 0.930 . S
C255 C254 1.388 . S
C255 C256 1.390 . S
C256 C255 1.390 . S
C256 C257 1.394 . S
C256 C262 1.465 . S
C257 C252 1.399 . S
C257 C256 1.394 . S
C257 C258 1.516 . S
C258 C257 1.516 . S
C258 C259 1.502 . S
C258 C260 1.561 . S
C258 C261 1.526 . S
C259 H243 0.959 . S
C259 H244 0.959 . S
C259 H245 0.961 . S
C259 C258 1.502 . S
C260 H246 0.960 . S
C260 H247 0.961 . S
C260 H248 0.959 . S
C260 C258 1.561 . S
C261 C258 1.526 . S
C261 C262 1.396 . S
C261 C266 1.390 . S
C262 C256 1.465 . S
C262 C261 1.396 . S
C262 C263 1.399 . S
C263 H249 0.929 . S
C263 C262 1.399 . S
C263 C264 1.385 . S
C264 H250 0.931 . S
C264 C263 1.385 . S
C264 C265 1.389 . S
C265 C264 1.389 . S
C265 C266 1.387 . S
C266 H251 0.930 . S
C266 C261 1.390 . S
C266 C265 1.387 . S
H267 C279 0.930 . S
H268 C281 0.930 1_545 S
H269 C282 0.930 . S
H270 C286 0.959 . S
H271 C286 0.959 . S
H272 C286 0.961 . S
H273 C287 0.960 . S
H274 C287 0.961 . S
H275 C287 0.959 . S
H276 C290 0.929 . S
H277 C291 0.931 . S
H278 C293 0.930 . S
C279 H267 0.930 . S
C279 C280 1.399 . S
C279 C284 1.399 . S
C280 C279 1.399 . S
C280 C281 1.376 . S
C281 H268 0.930 1_565 S
C281 C280 1.376 . S
C281 C282 1.388 . S
C282 H269 0.930 . S
C282 C281 1.388 . S
C282 C283 1.390 . S
C283 C282 1.390 . S
C283 C284 1.394 . S
C283 C289 1.465 . S
C284 C279 1.399 . S
C284 C283 1.394 . S
C284 C285 1.516 . S
C285 C284 1.516 . S
C285 C286 1.502 . S
C285 C287 1.561 . S
C285 C288 1.526 . S
C286 H270 0.959 . S
C286 H271 0.959 . S
C286 H272 0.961 . S
C286 C285 1.502 . S
C287 H273 0.960 . S
C287 H274 0.961 . S
C287 H275 0.959 . S
C287 C285 1.561 . S
C288 C285 1.526 . S
C288 C289 1.396 . S
C288 C293 1.390 1_455 S
C289 C283 1.465 . S
C289 C288 1.396 . S
C289 C290 1.399 1_455 S
C290 H276 0.929 . S
C290 C289 1.399 1_655 S
C290 C291 1.385 . S
C291 H277 0.931 . S
C291 C290 1.385 . S
C291 C292 1.389 . S
C292 C291 1.389 . S
C292 C293 1.387 . S
C293 H278 0.930 . S
C293 C288 1.390 1_655 S
C293 C292 1.387 . S
H294 C306 0.930 . S
H295 C308 0.930 . S
H296 C309 0.930 . S
H297 C313 0.959 . S
H298 C313 0.959 . S
H299 C313 0.961 1_545 S
H300 C314 0.960 . S
H301 C314 0.961 . S
H302 C314 0.959 . S
H303 C317 0.929 . S
H304 C318 0.931 . S
H305 C320 0.930 . S
C306 H294 0.930 . S
C306 C307 1.399 . S
C306 C311 1.399 1_545 S
C307 C306 1.399 . S
C307 C308 1.376 . S
C308 H295 0.930 . S
C308 C307 1.376 . S
C308 C309 1.388 1_545 S
C309 H296 0.930 . S
C309 C308 1.388 1_565 S
C309 C310 1.390 . S
C310 C309 1.390 . S
C310 C311 1.394 . S
C310 C316 1.465 . S
C311 C306 1.399 1_565 S
C311 C310 1.394 . S
C311 C312 1.516 . S
C312 C311 1.516 . S
C312 C313 1.502 . S
C312 C314 1.561 . S
C312 C315 1.526 . S
C313 H297 0.959 . S
C313 H298 0.959 . S
C313 H299 0.961 1_565 S
C313 C312 1.502 . S
C314 H300 0.960 . S
C314 H301 0.961 . S
C314 H302 0.959 . S
C314 C312 1.561 . S
C315 C312 1.526 . S
C315 C316 1.396 . S
C315 C320 1.390 . S
C316 C310 1.465 . S
C316 C315 1.396 . S
C316 C317 1.399 . S
C317 H303 0.929 . S
C317 C316 1.399 . S
C317 C318 1.385 . S
C318 H304 0.931 . S
C318 C317 1.385 . S
C318 C319 1.389 . S
C319 C318 1.389 . S
C319 C320 1.387 . S
C320 H305 0.930 . S
C320 C315 1.390 . S
C320 C319 1.387 . S
H321 C333 0.930 . S
H322 C335 0.930 . S
H323 C336 0.930 . S
H324 C340 0.959 . S
H325 C340 0.959 . S
H326 C340 0.961 . S
H327 C341 0.960 . S
H328 C341 0.961 . S
H329 C341 0.959 . S
H330 C344 0.929 . S
H331 C345 0.931 . S
H332 C347 0.930 1_655 S
C333 H321 0.930 . S
C333 C334 1.399 . S
C333 C338 1.399 . S
C334 C333 1.399 . S
C334 C335 1.376 . S
C335 H322 0.930 . S
C335 C334 1.376 . S
C335 C336 1.388 . S
C336 H323 0.930 . S
C336 C335 1.388 . S
C336 C337 1.390 . S
C337 C336 1.390 . S
C337 C338 1.394 . S
C337 C343 1.465 . S
C338 C333 1.399 . S
C338 C337 1.394 . S
C338 C339 1.516 . S
C339 C338 1.516 . S
C339 C340 1.502 . S
C339 C341 1.561 . S
C339 C342 1.526 . S
C340 H324 0.959 . S
C340 H325 0.959 . S
C340 H326 0.961 . S
C340 C339 1.502 . S
C341 H327 0.960 . S
C341 H328 0.961 . S
C341 H329 0.959 . S
C341 C339 1.561 . S
C342 C339 1.526 . S
C342 C343 1.396 . S
C342 C347 1.390 . S
C343 C337 1.465 . S
C343 C342 1.396 . S
C343 C344 1.399 . S
C344 H330 0.929 . S
C344 C343 1.399 . S
C344 C345 1.385 . S
C345 H331 0.931 . S
C345 C344 1.385 . S
C345 C346 1.389 . S
C346 C345 1.389 . S
C346 C347 1.387 . S
C347 H332 0.930 1_455 S
C347 C342 1.390 . S
C347 C346 1.387 . S
H348 C360 0.930 . S
H349 C362 0.930 . S
H350 C363 0.930 . S
H351 C367 0.959 . S
H352 C367 0.959 . S
H353 C367 0.961 . S
H354 C368 0.960 . S
H355 C368 0.958 1_655 S
H356 C368 0.959 . S
H357 C371 0.929 1_455 S
H358 C372 0.931 . S
H359 C374 0.930 . S
C360 H348 0.930 . S
C360 C361 1.399 . S
C360 C365 1.399 . S
C361 C360 1.399 . S
C361 C362 1.376 1_565 S
C362 H349 0.930 . S
C362 C361 1.376 1_545 S
C362 C363 1.388 1_545 S
C363 H350 0.930 . S
C363 C362 1.388 1_565 S
C363 C364 1.390 . S
C364 C363 1.390 . S
C364 C365 1.394 . S
C364 C370 1.465 . S
C365 C360 1.399 . S
C365 C364 1.394 . S
C365 C366 1.516 . S
C366 C365 1.516 . S
C366 C367 1.502 . S
C366 C368 1.561 . S
C366 C369 1.526 . S
C367 H351 0.959 . S
C367 H352 0.959 . S
C367 H353 0.961 . S
C367 C366 1.502 . S
C368 H354 0.960 . S
C368 H355 0.958 1_455 S
C368 H356 0.959 . S
C368 C366 1.561 . S
C369 C366 1.526 . S
C369 C370 1.396 . S
C369 C374 1.390 1_455 S
C370 C364 1.465 . S
C370 C369 1.396 . S
C370 C371 1.399 1_455 S
C371 H357 0.929 1_655 S
C371 C370 1.399 1_655 S
C371 C372 1.385 . S
C372 H358 0.931 . S
C372 C371 1.385 . S
C372 C373 1.389 . S
C373 C372 1.389 . S
C373 C374 1.387 . S
C374 H359 0.930 . S
C374 C369 1.390 1_655 S
C374 C373 1.387 . S
H375 C387 0.930 . S
H376 C389 0.930 . S
H377 C390 0.930 . S
H378 C394 0.959 . S
H379 C394 0.959 . S
H380 C394 0.961 . S
H381 C395 0.960 . S
H382 C395 0.961 . S
H383 C395 0.959 . S
H384 C398 0.929 . S
H385 C399 0.931 . S
H386 C401 0.930 . S
C387 H375 0.930 . S
C387 C388 1.399 . S
C387 C392 1.399 . S
C388 C387 1.399 . S
C388 C389 1.376 . S
C389 H376 0.930 . S
C389 C388 1.376 . S
C389 C390 1.388 . S
C390 H377 0.930 . S
C390 C389 1.388 . S
C390 C391 1.390 . S
C391 C390 1.390 . S
C391 C392 1.394 . S
C391 C397 1.465 . S
C392 C387 1.399 . S
C392 C391 1.394 . S
C392 C393 1.516 . S
C393 C392 1.516 . S
C393 C394 1.502 . S
C393 C395 1.561 . S
C393 C396 1.526 . S
C394 H378 0.959 . S
C394 H379 0.959 . S
C394 H380 0.961 . S
C394 C393 1.502 . S
C395 H381 0.960 . S
C395 H382 0.961 . S
C395 H383 0.959 . S
C395 C393 1.561 . S
C396 C393 1.526 . S
C396 C397 1.396 . S
C396 C401 1.390 1_565 S
C397 C391 1.465 . S
C397 C396 1.396 . S
C397 C398 1.399 1_565 S
C398 H384 0.929 . S
C398 C397 1.399 1_545 S
C398 C399 1.385 . S
C399 H385 0.931 . S
C399 C398 1.385 . S
C399 C400 1.389 . S
C400 C399 1.389 . S
C400 C401 1.387 . S
C401 H386 0.930 . S
C401 C396 1.390 1_545 S
C401 C400 1.387 . S
H402 C414 0.930 . S
H403 C416 0.948 . S
H404 C417 0.930 . S
H405 C421 0.959 . S
H406 C421 0.959 . S
H407 C421 0.961 . S
H408 C422 0.960 . S
H409 C422 0.961 . S
H410 C422 0.959 . S
H411 C425 0.929 . S
H412 C426 0.931 . S
H413 C428 0.930 . S
C414 H402 0.930 . S
C414 C415 1.399 . S
C414 C419 1.399 . S
C415 C414 1.399 . S
C415 C416 1.376 . S
C416 H403 0.948 . S
C416 C415 1.376 . S
C416 C417 1.388 . S
C417 H404 0.930 . S
C417 C416 1.388 . S
C417 C418 1.390 . S
C418 C417 1.390 . S
C418 C419 1.394 . S
C418 C424 1.465 . S
C419 C414 1.399 . S
C419 C418 1.394 . S
C419 C420 1.516 . S
C420 C419 1.516 . S
C420 C421 1.502 . S
C420 C422 1.561 . S
C420 C423 1.526 . S
C421 H405 0.959 . S
C421 H406 0.959 . S
C421 H407 0.961 . S
C421 C420 1.502 . S
C422 H408 0.960 . S
C422 H409 0.961 . S
C422 H410 0.959 . S
C422 C420 1.561 . S
C423 C420 1.526 . S
C423 C424 1.396 . S
C423 C428 1.390 . S
C424 C418 1.465 . S
C424 C423 1.396 . S
C424 C425 1.399 . S
C425 H411 0.929 . S
C425 C424 1.399 . S
C425 C426 1.385 . S
C426 H412 0.931 . S
C426 C425 1.385 . S
C426 C427 1.389 . S
C427 C426 1.389 . S
C427 C428 1.387 . S
C428 H413 0.930 . S
C428 C423 1.390 . S
C428 C427 1.387 . S
H429 C441 0.930 . S
H430 C443 0.930 . S
H431 C444 0.930 . S
H432 C448 0.959 . S
H433 C448 0.959 . S
H434 C448 0.961 1_455 S
H435 C449 0.960 1_455 S
H436 C449 0.961 . S
H437 C449 0.959 . S
H438 C452 0.929 . S
H439 C453 0.931 . S
H440 C455 0.930 . S
C441 H429 0.930 . S
C441 C442 1.399 . S
C441 C446 1.367 1_455 S
C442 C441 1.399 . S
C442 C443 1.376 . S
C443 H430 0.930 . S
C443 C442 1.376 . S
C443 C444 1.388 1_455 S
C444 H431 0.930 . S
C444 C443 1.388 1_655 S
C444 C445 1.390 . S
C445 C444 1.390 . S
C445 C446 1.405 . S
C445 C451 1.465 . S
C446 C441 1.367 1_655 S
C446 C445 1.405 . S
C446 C447 1.540 . S
C447 C446 1.540 . S
C447 C448 1.502 . S
C447 C449 1.561 . S
C447 C450 1.526 . S
C448 H432 0.959 . S
C448 H433 0.959 . S
C448 H434 0.961 1_655 S
C448 C447 1.502 . S
C449 H435 0.960 1_655 S
C449 H436 0.961 . S
C449 H437 0.959 . S
C449 C447 1.561 . S
C450 C447 1.526 . S
C450 C451 1.396 . S
C450 C455 1.390 . S
C451 C445 1.465 . S
C451 C450 1.396 . S
C451 C452 1.399 . S
C452 H438 0.929 . S
C452 C451 1.399 . S
C452 C453 1.385 . S
C453 H439 0.931 . S
C453 C452 1.385 . S
C453 C454 1.389 . S
C454 C453 1.389 . S
C454 C455 1.387 . S
C455 H440 0.930 . S
C455 C450 1.390 . S
C455 C454 1.387 . S
H456 C468 0.930 . S
H457 C470 0.930 . S
H458 C471 0.930 . S
H459 C475 0.959 . S
H460 C475 0.959 . S
H461 C475 0.961 . S
H462 C476 0.960 . S
H463 C476 0.961 . S
H464 C476 0.959 . S
H465 C479 0.929 . S
H466 C480 0.931 . S
H467 C482 0.930 . S
C468 H456 0.930 . S
C468 C469 1.399 . S
C468 C473 1.399 1_565 S
C469 C468 1.399 . S
C469 C470 1.376 . S
C470 H457 0.930 . S
C470 C469 1.376 . S
C470 C471 1.388 . S
C471 H458 0.930 . S
C471 C470 1.388 . S
C471 C472 1.390 1_565 S
C472 C471 1.390 1_545 S
C472 C473 1.394 . S
C472 C478 1.465 . S
C473 C468 1.399 1_545 S
C473 C472 1.394 . S
C473 C474 1.516 . S
C474 C473 1.516 . S
C474 C475 1.502 . S
C474 C476 1.561 . S
C474 C477 1.526 . S
C475 H459 0.959 . S
C475 H460 0.959 . S
C475 H461 0.961 . S
C475 C474 1.502 . S
C476 H462 0.960 . S
C476 H463 0.961 . S
C476 H464 0.959 . S
C476 C474 1.561 . S
C477 C474 1.526 . S
C477 C478 1.396 . S
C477 C482 1.390 . S
C478 C472 1.465 . S
C478 C477 1.396 . S
C478 C479 1.399 . S
C479 H465 0.929 . S
C479 C478 1.399 . S
C479 C480 1.385 . S
C480 H466 0.931 . S
C480 C479 1.385 . S
C480 C481 1.389 . S
C481 C480 1.389 . S
C481 C482 1.387 . S
C482 H467 0.930 . S
C482 C477 1.390 . S
C482 C481 1.387 . S
H483 C495 0.930 . S
H484 C497 0.930 . S
H485 C498 0.930 . S
H486 C502 0.959 . S
H487 C502 0.959 . S
H488 C502 0.961 . S
H489 C503 0.960 . S
H490 C503 0.961 . S
H491 C503 0.959 . S
H492 C506 0.929 . S
H493 C507 0.909 1_565 S
H494 C509 0.930 . S
C495 H483 0.930 . S
C495 C496 1.399 . S
C495 C500 1.399 . S
C496 C495 1.399 . S
C496 C497 1.376 . S
C497 H484 0.930 . S
C497 C496 1.376 . S
C497 C498 1.388 . S
C498 H485 0.930 . S
C498 C497 1.388 . S
C498 C499 1.390 . S
C499 C498 1.390 . S
C499 C500 1.394 . S
C499 C505 1.465 . S
C500 C495 1.399 . S
C500 C499 1.394 . S
C500 C501 1.516 . S
C501 C500 1.516 . S
C501 C502 1.502 . S
C501 C503 1.561 . S
C501 C504 1.526 . S
C502 H486 0.959 . S
C502 H487 0.959 . S
C502 H488 0.961 . S
C502 C501 1.502 . S
C503 H489 0.960 . S
C503 H490 0.961 . S
C503 H491 0.959 . S
C503 C501 1.561 . S
C504 C501 1.526 . S
C504 C505 1.396 . S
C504 C509 1.390 . S
C505 C499 1.465 . S
C505 C504 1.396 . S
C505 C506 1.399 . S
C506 H492 0.929 . S
C506 C505 1.399 . S
C506 C507 1.409 . S
C507 H493 0.909 1_545 S
C507 C506 1.409 . S
C507 C508 1.388 . S
C508 C507 1.388 . S
C508 C509 1.387 . S
C509 H494 0.930 . S
C509 C504 1.390 . S
C509 C508 1.387 . S
H510 C522 0.930 . S
H511 C524 0.930 . S
H512 C525 0.930 . S
H513 C529 0.959 . S
H514 C529 0.959 . S
H515 C529 0.961 . S
H516 C530 0.960 . S
H517 C530 0.961 . S
H518 C530 0.959 . S
H519 C533 0.929 . S
H520 C534 0.931 . S
H521 C536 0.930 . S
C522 H510 0.930 . S
C522 C523 1.399 . S
C522 C527 1.399 1_455 S
C523 C522 1.399 . S
C523 C524 1.376 . S
C524 H511 0.930 . S
C524 C523 1.376 . S
C524 C525 1.388 . S
C525 H512 0.930 . S
C525 C524 1.388 . S
C525 C526 1.390 1_455 S
C526 C525 1.390 1_655 S
C526 C527 1.394 . S
C526 C532 1.465 . S
C527 C522 1.399 1_655 S
C527 C526 1.394 . S
C527 C528 1.516 . S
C528 C527 1.516 . S
C528 C529 1.502 . S
C528 C530 1.561 . S
C528 C531 1.526 . S
C529 H513 0.959 . S
C529 H514 0.959 . S
C529 H515 0.961 . S
C529 C528 1.502 . S
C530 H516 0.960 . S
C530 H517 0.961 . S
C530 H518 0.959 . S
C530 C528 1.561 . S
C531 C528 1.526 . S
C531 C532 1.396 . S
C531 C536 1.390 . S
C532 C526 1.465 . S
C532 C531 1.396 . S
C532 C533 1.399 . S
C533 H519 0.929 . S
C533 C532 1.399 . S
C533 C534 1.385 . S
C534 H520 0.931 . S
C534 C533 1.385 . S
C534 C535 1.389 . S
C535 C534 1.389 . S
C535 C536 1.387 . S
C536 H521 0.930 . S
C536 C531 1.390 . S
C536 C535 1.387 . S
H537 C549 0.930 . S
H538 C551 0.930 1_455 S
H539 C552 0.930 . S
H540 C556 0.959 . S
H541 C556 0.959 . S
H542 C556 0.961 . S
H543 C557 0.960 . S
H544 C557 0.961 1_565 S
H545 C557 0.959 1_565 S
H546 C560 0.929 . S
H547 C561 0.931 . S
H548 C563 0.930 . S
C549 H537 0.930 . S
C549 C550 1.399 . S
C549 C554 1.399 . S
C550 C549 1.399 . S
C550 C551 1.376 . S
C551 H538 0.930 1_655 S
C551 C550 1.376 . S
C551 C552 1.388 . S
C552 H539 0.930 . S
C552 C551 1.388 . S
C552 C553 1.390 . S
C553 C552 1.390 . S
C553 C554 1.394 . S
C553 C559 1.465 . S
C554 C549 1.399 . S
C554 C553 1.394 . S
C554 C555 1.516 . S
C555 C554 1.516 . S
C555 C556 1.502 . S
C555 C557 1.561 . S
C555 C558 1.526 . S
C556 H540 0.959 . S
C556 H541 0.959 . S
C556 H542 0.961 . S
C556 C555 1.502 . S
C557 H543 0.960 . S
C557 H544 0.961 1_545 S
C557 H545 0.959 1_545 S
C557 C555 1.561 . S
C558 C555 1.526 . S
C558 C559 1.396 . S
C558 C563 1.390 1_545 S
C559 C553 1.465 . S
C559 C558 1.396 . S
C559 C560 1.399 . S
C560 H546 0.929 . S
C560 C559 1.399 . S
C560 C561 1.385 1_545 S
C561 H547 0.931 . S
C561 C560 1.385 1_565 S
C561 C562 1.389 . S
C562 C561 1.389 . S
C562 C563 1.387 . S
C563 H548 0.930 . S
C563 C558 1.390 1_565 S
C563 C562 1.387 . S
H564 C576 0.930 . S
H565 C578 0.930 . S
H566 C579 0.930 . S
H567 C583 0.959 . S
H568 C583 0.959 . S
H569 C583 0.961 . S
H570 C584 0.960 . S
H571 C584 0.961 . S
H572 C584 0.959 . S
H573 C587 0.929 . S
H574 C588 0.931 . S
H575 C590 0.930 . S
C576 H564 0.930 . S
C576 C577 1.399 . S
C576 C581 1.399 . S
C577 C576 1.399 . S
C577 C578 1.376 . S
C578 H565 0.930 . S
C578 C577 1.376 . S
C578 C579 1.388 . S
C579 H566 0.930 . S
C579 C578 1.388 . S
C579 C580 1.390 . S
C580 C579 1.390 . S
C580 C581 1.394 . S
C580 C586 1.465 . S
C581 C576 1.399 . S
C581 C580 1.394 . S
C581 C582 1.516 . S
C582 C581 1.516 . S
C582 C583 1.502 . S
C582 C584 1.561 . S
C582 C585 1.526 . S
C583 H567 0.959 . S
C583 H568 0.959 . S
C583 H569 0.961 . S
C583 C582 1.502 . S
C584 H570 0.960 . S
C584 H571 0.961 . S
C584 H572 0.959 . S
C584 C582 1.561 . S
C585 C582 1.526 . S
C585 C586 1.396 . S
C585 C590 1.390 . S
C586 C580 1.465 . S
C586 C585 1.396 . S
C586 C587 1.399 . S
C587 H573 0.929 . S
C587 C586 1.399 . S
C587 C588 1.385 . S
C588 H574 0.931 . S
C588 C587 1.385 . S
C588 C589 1.389 . S
C589 C588 1.389 . S
C589 C590 1.387 . S
C590 H575 0.930 . S
C590 C585 1.390 . S
C590 C589 1.387 . S
H591 C603 0.930 . S
H592 C605 0.930 . S
H593 C606 0.930 . S
H594 C610 0.959 . S
H595 C610 0.959 . S
H596 C610 0.961 . S
H597 C611 0.960 . S
H598 C611 0.961 . S
H599 C611 0.959 . S
H600 C614 0.929 . S
H601 C615 0.931 . S
H602 C617 0.930 . S
C603 H591 0.930 . S
C603 C604 1.399 . S
C603 C608 1.399 . S
C604 C603 1.399 . S
C604 C605 1.376 . S
C605 H592 0.930 . S
C605 C604 1.376 . S
C605 C606 1.388 . S
C606 H593 0.930 . S
C606 C605 1.388 . S
C606 C607 1.390 . S
C607 C606 1.390 . S
C607 C608 1.394 . S
C607 C613 1.465 . S
C608 C603 1.399 . S
C608 C607 1.394 . S
C608 C609 1.516 . S
C609 C608 1.516 . S
C609 C610 1.502 . S
C609 C611 1.561 . S
C609 C612 1.526 . S
C610 H594 0.959 . S
C610 H595 0.959 . S
C610 H596 0.961 . S
C610 C609 1.502 . S
C611 H597 0.960 . S
C611 H598 0.961 . S
C611 H599 0.959 . S
C611 C609 1.561 . S
C612 C609 1.526 . S
C612 C613 1.396 . S
C612 C617 1.390 . S
C613 C607 1.465 . S
C613 C612 1.396 . S
C613 C614 1.399 . S
C614 H600 0.929 . S
C614 C613 1.399 . S
C614 C615 1.385 . S
C615 H601 0.931 . S
C615 C614 1.385 . S
C615 C616 1.389 . S
C616 C615 1.389 . S
C616 C617 1.387 . S
C617 H602 0.930 . S
C617 C612 1.390 . S
C617 C616 1.387 . S
H618 C630 0.930 . S
H619 C632 0.930 . S
H620 C633 0.930 . S
H621 C637 0.959 . S
H622 C637 0.959 . S
H623 C637 0.961 . S
H624 C638 0.960 . S
H625 C638 0.961 . S
H626 C638 0.959 . S
H627 C641 0.929 . S
H628 C642 0.931 . S
H629 C644 0.930 . S
C630 H618 0.930 . S
C630 C631 1.399 . S
C630 C635 1.399 . S
C631 C630 1.399 . S
C631 C632 1.376 . S
C632 H619 0.930 . S
C632 C631 1.376 . S
C632 C633 1.388 . S
C633 H620 0.930 . S
C633 C632 1.388 . S
C633 C634 1.390 . S
C634 C633 1.390 . S
C634 C635 1.394 . S
C634 C640 1.465 . S
C635 C630 1.399 . S
C635 C634 1.394 . S
C635 C636 1.516 . S
C636 C635 1.516 . S
C636 C637 1.502 . S
C636 C638 1.561 . S
C636 C639 1.526 . S
C637 H621 0.959 . S
C637 H622 0.959 . S
C637 H623 0.961 . S
C637 C636 1.502 . S
C638 H624 0.960 . S
C638 H625 0.961 . S
C638 H626 0.959 . S
C638 C636 1.561 . S
C639 C636 1.526 . S
C639 C640 1.396 . S
C639 C644 1.390 . S
C640 C634 1.465 . S
C640 C639 1.396 . S
C640 C641 1.399 . S
C641 H627 0.929 . S
C641 C640 1.399 . S
C641 C642 1.385 . S
C642 H628 0.931 . S
C642 C641 1.385 . S
C642 C643 1.389 . S
C643 C642 1.389 . S
C643 C644 1.387 . S
C644 H629 0.930 . S
C644 C639 1.390 . S
C644 C643 1.387 . S
H645 C657 0.930 . S
H646 C659 0.930 . S
H647 C660 0.930 . S
H648 C664 0.959 . S
H649 C664 0.959 . S
H650 C664 0.961 . S
H651 C665 0.960 . S
H652 C665 0.961 . S
H653 C665 0.959 . S
H654 C668 0.929 . S
H655 C669 0.931 . S
H656 C671 0.930 . S
C657 H645 0.930 . S
C657 C658 1.399 . S
C657 C662 1.399 . S
C658 C657 1.399 . S
C658 C659 1.376 . S
C659 H646 0.930 . S
C659 C658 1.376 . S
C659 C660 1.388 . S
C660 H647 0.930 . S
C660 C659 1.388 . S
C660 C661 1.390 . S
C661 C660 1.390 . S
C661 C662 1.394 . S
C661 C667 1.465 . S
C662 C657 1.399 . S
C662 C661 1.394 . S
C662 C663 1.516 . S
C663 C662 1.516 . S
C663 C664 1.502 . S
C663 C665 1.561 . S
C663 C666 1.526 . S
C664 H648 0.959 . S
C664 H649 0.959 . S
C664 H650 0.961 . S
C664 C663 1.502 . S
C665 H651 0.960 . S
C665 H652 0.961 . S
C665 H653 0.959 . S
C665 C663 1.561 . S
C666 C663 1.526 . S
C666 C667 1.396 . S
C666 C671 1.390 . S
C667 C661 1.465 . S
C667 C666 1.396 . S
C667 C668 1.399 . S
C668 H654 0.929 . S
C668 C667 1.399 . S
C668 C669 1.385 . S
C669 H655 0.931 . S
C669 C668 1.385 . S
C669 C670 1.389 . S
C670 C669 1.389 . S
C670 C671 1.387 . S
C671 H656 0.930 . S
C671 C666 1.390 . S
C671 C670 1.387 . S
H672 C684 0.930 . S
H673 C686 0.930 . S
H674 C687 0.930 . S
H675 C691 0.959 . S
H676 C691 0.959 . S
H677 C691 0.961 . S
H678 C692 0.960 . S
H679 C692 0.961 . S
H680 C692 0.959 . S
H681 C695 0.929 . S
H682 C696 0.931 . S
H683 C698 0.930 . S
C684 H672 0.930 . S
C684 C685 1.399 . S
C684 C689 1.399 . S
C685 C684 1.399 . S
C685 C686 1.376 . S
C686 H673 0.930 . S
C686 C685 1.376 . S
C686 C687 1.388 . S
C687 H674 0.930 . S
C687 C686 1.388 . S
C687 C688 1.390 . S
C688 C687 1.390 . S
C688 C689 1.394 . S
C688 C694 1.465 . S
C689 C684 1.399 . S
C689 C688 1.394 . S
C689 C690 1.516 . S
C690 C689 1.516 . S
C690 C691 1.502 . S
C690 C692 1.561 . S
C690 C693 1.526 . S
C691 H675 0.959 . S
C691 H676 0.959 . S
C691 H677 0.961 . S
C691 C690 1.502 . S
C692 H678 0.960 . S
C692 H679 0.961 . S
C692 H680 0.959 . S
C692 C690 1.561 . S
C693 C690 1.526 . S
C693 C694 1.396 . S
C693 C698 1.390 . S
C694 C688 1.465 . S
C694 C693 1.396 . S
C694 C695 1.399 . S
C695 H681 0.929 . S
C695 C694 1.399 . S
C695 C696 1.385 . S
C696 H682 0.931 . S
C696 C695 1.385 . S
C696 C697 1.389 . S
C697 C696 1.389 . S
C697 C698 1.387 . S
C698 H683 0.930 . S
C698 C693 1.390 . S
C698 C697 1.387 . S
H699 C711 0.930 . S
H700 C713 0.930 . S
H701 C714 0.930 . S
H702 C718 0.959 . S
H703 C718 0.959 . S
H704 C718 0.961 . S
H705 C719 0.960 . S
H706 C719 0.961 . S
H707 C719 0.959 . S
H708 C722 0.929 . S
H709 C723 0.931 . S
H710 C725 0.930 . S
C711 H699 0.930 . S
C711 C712 1.399 . S
C711 C716 1.399 . S
C712 C711 1.399 . S
C712 C713 1.376 . S
C713 H700 0.930 . S
C713 C712 1.376 . S
C713 C714 1.388 . S
C714 H701 0.930 . S
C714 C713 1.388 . S
C714 C715 1.390 . S
C715 C714 1.390 . S
C715 C716 1.394 . S
C715 C721 1.465 . S
C716 C711 1.399 . S
C716 C715 1.394 . S
C716 C717 1.516 . S
C717 C716 1.516 . S
C717 C718 1.502 . S
C717 C719 1.561 . S
C717 C720 1.526 . S
C718 H702 0.959 . S
C718 H703 0.959 . S
C718 H704 0.961 . S
C718 C717 1.502 . S
C719 H705 0.960 . S
C719 H706 0.961 . S
C719 H707 0.959 . S
C719 C717 1.561 . S
C720 C717 1.526 . S
C720 C721 1.396 . S
C720 C725 1.390 . S
C721 C715 1.465 . S
C721 C720 1.396 . S
C721 C722 1.399 . S
C722 H708 0.929 . S
C722 C721 1.399 . S
C722 C723 1.385 . S
C723 H709 0.931 . S
C723 C722 1.385 . S
C723 C724 1.389 . S
C724 C723 1.389 . S
C724 C725 1.387 . S
C725 H710 0.930 . S
C725 C720 1.390 . S
C725 C724 1.387 . S
H726 C738 0.930 . S
H727 C740 0.930 . S
H728 C741 0.950 . S
H729 C745 0.959 . S
H730 C745 0.959 . S
H731 C745 0.961 . S
H732 C746 0.960 . S
H733 C746 0.961 . S
H734 C746 0.963 1_554 S
H735 C749 0.929 1_565 S
H736 C750 0.931 . S
H737 C752 0.930 . S
C738 H726 0.930 . S
C738 C739 1.399 . S
C738 C743 1.399 . S
C739 C738 1.399 . S
C739 C740 1.376 . S
C740 H727 0.930 . S
C740 C739 1.376 . S
C740 C741 1.368 1_556 S
C741 H728 0.950 . S
C741 C740 1.368 1_554 S
C741 C742 1.390 1_554 S
C742 C741 1.390 1_556 S
C742 C743 1.392 . S
C742 C748 1.467 1_566 S
C743 C738 1.399 . S
C743 C742 1.392 . S
C743 C744 1.516 1_565 S
C744 C743 1.516 1_545 S
C744 C745 1.502 . S
C744 C746 1.561 . S
C744 C747 1.526 1_556 S
C745 H729 0.959 . S
C745 H730 0.959 . S
C745 H731 0.961 . S
C745 C744 1.502 . S
C746 H732 0.960 . S
C746 H733 0.961 . S
C746 H734 0.963 1_556 S
C746 C744 1.561 . S
C747 C744 1.526 1_554 S
C747 C748 1.396 . S
C747 C752 1.390 . S
C748 C742 1.467 1_544 S
C748 C747 1.396 . S
C748 C749 1.399 . S
C749 H735 0.929 1_545 S
C749 C748 1.399 . S
C749 C750 1.385 . S
C750 H736 0.931 . S
C750 C749 1.385 . S
C750 C751 1.389 . S
C751 C750 1.389 . S
C751 C752 1.387 . S
C752 H737 0.930 . S
C752 C747 1.390 . S
C752 C751 1.387 . S
H753 C765 0.930 . S
H754 C767 0.930 . S
H755 C768 0.930 . S
H756 C772 0.959 . S
H757 C772 0.959 . S
H758 C772 0.961 . S
H759 C773 0.960 . S
H760 C773 0.961 . S
H761 C773 0.959 . S
H762 C776 0.929 . S
H763 C777 0.931 . S
H764 C779 0.930 . S
C765 H753 0.930 . S
C765 C766 1.399 . S
C765 C770 1.399 . S
C766 C765 1.399 . S
C766 C767 1.376 . S
C767 H754 0.930 . S
C767 C766 1.376 . S
C767 C768 1.388 . S
C768 H755 0.930 . S
C768 C767 1.388 . S
C768 C769 1.390 . S
C769 C768 1.390 . S
C769 C770 1.394 . S
C769 C775 1.465 . S
C770 C765 1.399 . S
C770 C769 1.394 . S
C770 C771 1.516 . S
C771 C770 1.516 . S
C771 C772 1.502 . S
C771 C773 1.561 . S
C771 C774 1.526 . S
C772 H756 0.959 . S
C772 H757 0.959 . S
C772 H758 0.961 . S
C772 C771 1.502 . S
C773 H759 0.960 . S
C773 H760 0.961 . S
C773 H761 0.959 . S
C773 C771 1.561 . S
C774 C771 1.526 . S
C774 C775 1.396 . S
C774 C779 1.390 . S
C775 C769 1.465 . S
C775 C774 1.396 . S
C775 C776 1.399 . S
C776 H762 0.929 . S
C776 C775 1.399 . S
C776 C777 1.385 . S
C777 H763 0.931 . S
C777 C776 1.385 . S
C777 C778 1.389 . S
C778 C777 1.389 . S
C778 C779 1.387 . S
C779 H764 0.930 . S
C779 C774 1.390 . S
C779 C778 1.387 . S
H780 C792 0.930 . S
H781 C794 0.930 . S
H782 C795 0.930 . S
H783 C799 0.959 . S
H784 C799 0.959 . S
H785 C799 0.961 . S
H786 C800 0.960 . S
H787 C800 0.961 . S
H788 C800 0.959 . S
H789 C803 0.929 1_455 S
H790 C804 0.931 . S
H791 C806 0.930 . S
C792 H780 0.930 . S
C792 C793 1.399 . S
C792 C797 1.399 . S
C793 C792 1.399 . S
C793 C794 1.376 . S
C794 H781 0.930 . S
C794 C793 1.376 . S
C794 C795 1.388 1_556 S
C795 H782 0.930 . S
C795 C794 1.388 1_554 S
C795 C796 1.393 . S
C796 C795 1.393 . S
C796 C797 1.366 1_554 S
C796 C802 1.486 1_455 S
C797 C792 1.399 . S
C797 C796 1.366 1_556 S
C797 C798 1.516 1_455 S
C798 C797 1.516 1_655 S
C798 C799 1.502 . S
C798 C800 1.561 . S
C798 C801 1.526 1_556 S
C799 H783 0.959 . S
C799 H784 0.959 . S
C799 H785 0.961 . S
C799 C798 1.502 . S
C800 H786 0.960 . S
C800 H787 0.961 . S
C800 H788 0.959 . S
C800 C798 1.561 . S
C801 C798 1.526 1_554 S
C801 C802 1.396 . S
C801 C806 1.390 . S
C802 C796 1.486 1_655 S
C802 C801 1.396 . S
C802 C803 1.399 . S
C803 H789 0.929 1_655 S
C803 C802 1.399 . S
C803 C804 1.385 . S
C804 H790 0.931 . S
C804 C803 1.385 . S
C804 C805 1.389 . S
C805 C804 1.389 . S
C805 C806 1.387 . S
C806 H791 0.930 . S
C806 C801 1.390 . S
C806 C805 1.387 . S
H807 C819 0.930 . S
H808 C821 0.930 . S
H809 C822 0.930 . S
H810 C826 0.959 . S
H811 C826 0.959 . S
H812 C826 0.961 . S
H813 C827 0.960 . S
H814 C827 0.961 . S
H815 C827 0.959 . S
H816 C830 0.929 1_545 S
H817 C831 0.931 . S
H818 C833 0.930 . S
C819 H807 0.930 . S
C819 C820 1.399 . S
C819 C824 1.399 . S
C820 C819 1.399 . S
C820 C821 1.376 . S
C821 H808 0.930 . S
C821 C820 1.376 . S
C821 C822 1.388 . S
C822 H809 0.930 . S
C822 C821 1.388 . S
C822 C823 1.390 . S
C823 C822 1.390 . S
C823 C824 1.394 . S
C823 C829 1.465 1_545 S
C824 C819 1.399 . S
C824 C823 1.394 . S
C824 C825 1.516 1_545 S
C825 C824 1.516 1_565 S
C825 C826 1.502 . S
C825 C827 1.561 . S
C825 C828 1.526 . S
C826 H810 0.959 . S
C826 H811 0.959 . S
C826 H812 0.961 . S
C826 C825 1.502 . S
C827 H813 0.960 . S
C827 H814 0.961 . S
C827 H815 0.959 . S
C827 C825 1.561 . S
C828 C825 1.526 . S
C828 C829 1.396 . S
C828 C833 1.390 . S
C829 C823 1.465 1_565 S
C829 C828 1.396 . S
C829 C830 1.399 . S
C830 H816 0.929 1_565 S
C830 C829 1.399 . S
C830 C831 1.385 . S
C831 H817 0.931 . S
C831 C830 1.385 . S
C831 C832 1.389 . S
C832 C831 1.389 . S
C832 C833 1.387 . S
C833 H818 0.930 . S
C833 C828 1.390 . S
C833 C832 1.387 . S
H834 C846 0.930 . S
H835 C848 0.930 . S
H836 C849 0.930 . S
H837 C853 0.959 . S
H838 C853 0.959 . S
H839 C853 0.961 . S
H840 C854 0.960 . S
H841 C854 0.961 . S
H842 C854 0.959 . S
H843 C857 0.929 . S
H844 C858 0.931 . S
H845 C860 0.930 . S
C846 H834 0.930 . S
C846 C847 1.399 . S
C846 C851 1.399 . S
C847 C846 1.399 . S
C847 C848 1.376 . S
C848 H835 0.930 . S
C848 C847 1.376 . S
C848 C849 1.388 . S
C849 H836 0.930 . S
C849 C848 1.388 . S
C849 C850 1.390 . S
C850 C849 1.390 . S
C850 C851 1.394 . S
C850 C856 1.487 . S
C851 C846 1.399 . S
C851 C850 1.394 . S
C851 C852 1.516 1_554 S
C852 C851 1.516 1_556 S
C852 C853 1.502 . S
C852 C854 1.561 . S
C852 C855 1.526 . S
C853 H837 0.959 . S
C853 H838 0.959 . S
C853 H839 0.961 . S
C853 C852 1.502 . S
C854 H840 0.960 . S
C854 H841 0.961 . S
C854 H842 0.959 . S
C854 C852 1.561 . S
C855 C852 1.526 . S
C855 C856 1.368 1_556 S
C855 C860 1.390 . S
C856 C850 1.487 . S
C856 C855 1.368 1_554 S
C856 C857 1.402 . S
C857 H843 0.929 . S
C857 C856 1.402 . S
C857 C858 1.385 1_554 S
C858 H844 0.931 . S
C858 C857 1.385 1_556 S
C858 C859 1.389 . S
C859 C858 1.389 . S
C859 C860 1.387 . S
C860 H845 0.930 . S
C860 C855 1.390 . S
C860 C859 1.387 . S
H861 C873 0.930 . S
H862 C875 0.930 . S
H863 C876 0.930 . S
H864 C880 0.959 . S
H865 C880 0.959 . S
H866 C880 0.961 1_455 S
H867 C881 0.960 . S
H868 C881 0.961 . S
H869 C881 0.959 . S
H870 C884 0.929 . S
H871 C885 0.931 . S
H872 C887 0.930 . S
C873 H861 0.930 . S
C873 C874 1.399 . S
C873 C878 1.399 . S
C874 C873 1.399 . S
C874 C875 1.376 . S
C875 H862 0.930 . S
C875 C874 1.376 . S
C875 C876 1.388 . S
C876 H863 0.930 . S
C876 C875 1.388 . S
C876 C877 1.390 . S
C877 C876 1.390 . S
C877 C878 1.394 . S
C877 C883 1.465 1_455 S
C878 C873 1.399 . S
C878 C877 1.394 . S
C878 C879 1.516 . S
C879 C878 1.516 . S
C879 C880 1.502 1_455 S
C879 C881 1.561 . S
C879 C882 1.526 1_455 S
C880 H864 0.959 . S
C880 H865 0.959 . S
C880 H866 0.961 1_655 S
C880 C879 1.502 1_655 S
C881 H867 0.960 . S
C881 H868 0.961 . S
C881 H869 0.959 . S
C881 C879 1.561 . S
C882 C879 1.526 1_655 S
C882 C883 1.396 . S
C882 C887 1.390 . S
C883 C877 1.465 1_655 S
C883 C882 1.396 . S
C883 C884 1.399 . S
C884 H870 0.929 . S
C884 C883 1.399 . S
C884 C885 1.385 . S
C885 H871 0.931 . S
C885 C884 1.385 . S
C885 C886 1.389 . S
C886 C885 1.389 . S
C886 C887 1.387 . S
C887 H872 0.930 . S
C887 C882 1.390 . S
C887 C886 1.387 . S
H888 C900 0.930 . S
H889 C902 0.930 . S
H890 C903 0.930 . S
H891 C907 0.959 . S
H892 C907 0.959 . S
H893 C907 0.961 . S
H894 C908 0.960 . S
H895 C908 0.961 . S
H896 C908 0.959 . S
H897 C911 0.929 . S
H898 C912 0.931 . S
H899 C914 0.930 . S
C900 H888 0.930 . S
C900 C901 1.399 . S
C900 C905 1.399 . S
C901 C900 1.399 . S
C901 C902 1.376 . S
C902 H889 0.930 . S
C902 C901 1.376 . S
C902 C903 1.388 . S
C903 H890 0.930 . S
C903 C902 1.388 . S
C903 C904 1.390 . S
C904 C903 1.390 . S
C904 C905 1.394 . S
C904 C910 1.465 . S
C905 C900 1.399 . S
C905 C904 1.394 . S
C905 C906 1.516 . S
C906 C905 1.516 . S
C906 C907 1.502 . S
C906 C908 1.561 . S
C906 C909 1.526 . S
C907 H891 0.959 . S
C907 H892 0.959 . S
C907 H893 0.961 . S
C907 C906 1.502 . S
C908 H894 0.960 . S
C908 H895 0.961 . S
C908 H896 0.959 . S
C908 C906 1.561 . S
C909 C906 1.526 . S
C909 C910 1.396 . S
C909 C914 1.390 . S
C910 C904 1.465 . S
C910 C909 1.396 . S
C910 C911 1.399 . S
C911 H897 0.929 . S
C911 C910 1.399 . S
C911 C912 1.385 . S
C912 H898 0.931 . S
C912 C911 1.385 . S
C912 C913 1.389 . S
C913 C912 1.389 . S
C913 C914 1.387 . S
C914 H899 0.930 . S
C914 C909 1.390 . S
C914 C913 1.387 . S
H915 C927 0.930 . S
H916 C929 0.930 . S
H917 C930 0.930 . S
H918 C934 0.959 . S
H919 C934 0.959 . S
H920 C934 0.961 . S
H921 C935 0.960 . S
H922 C935 0.961 . S
H923 C935 0.959 . S
H924 C938 0.929 . S
H925 C939 0.931 . S
H926 C941 0.930 . S
C927 H915 0.930 . S
C927 C928 1.399 . S
C927 C932 1.399 . S
C928 C927 1.399 . S
C928 C929 1.376 . S
C929 H916 0.930 . S
C929 C928 1.376 . S
C929 C930 1.388 . S
C930 H917 0.930 . S
C930 C929 1.388 . S
C930 C931 1.390 . S
C931 C930 1.390 . S
C931 C932 1.394 . S
C931 C937 1.465 . S
C932 C927 1.399 . S
C932 C931 1.394 . S
C932 C933 1.516 . S
C933 C932 1.516 . S
C933 C934 1.502 . S
C933 C935 1.561 . S
C933 C936 1.526 . S
C934 H918 0.959 . S
C934 H919 0.959 . S
C934 H920 0.961 . S
C934 C933 1.502 . S
C935 H921 0.960 . S
C935 H922 0.961 . S
C935 H923 0.959 . S
C935 C933 1.561 . S
C936 C933 1.526 . S
C936 C937 1.396 . S
C936 C941 1.390 . S
C937 C931 1.465 . S
C937 C936 1.396 . S
C937 C938 1.399 . S
C938 H924 0.929 . S
C938 C937 1.399 . S
C938 C939 1.385 . S
C939 H925 0.931 . S
C939 C938 1.385 . S
C939 C940 1.389 . S
C940 C939 1.389 . S
C940 C941 1.387 . S
C941 H926 0.930 . S
C941 C936 1.390 . S
C941 C940 1.387 . S
H942 C954 0.930 . S
H943 C956 0.930 . S
H944 C957 0.930 . S
H945 C961 0.959 . S
H946 C961 0.959 . S
H947 C961 0.961 . S
H948 C962 0.960 . S
H949 C962 0.961 . S
H950 C962 0.959 . S
H951 C965 0.929 . S
H952 C966 0.931 . S
H953 C968 0.930 . S
C954 H942 0.930 . S
C954 C955 1.399 . S
C954 C959 1.399 . S
C955 C954 1.399 . S
C955 C956 1.376 . S
C956 H943 0.930 . S
C956 C955 1.376 . S
C956 C957 1.388 . S
C957 H944 0.930 . S
C957 C956 1.388 . S
C957 C958 1.390 . S
C958 C957 1.390 . S
C958 C959 1.394 . S
C958 C964 1.465 . S
C959 C954 1.399 . S
C959 C958 1.394 . S
C959 C960 1.516 . S
C960 C959 1.516 . S
C960 C961 1.502 . S
C960 C962 1.561 . S
C960 C963 1.526 . S
C961 H945 0.959 . S
C961 H946 0.959 . S
C961 H947 0.961 . S
C961 C960 1.502 . S
C962 H948 0.960 . S
C962 H949 0.961 . S
C962 H950 0.959 . S
C962 C960 1.561 . S
C963 C960 1.526 . S
C963 C964 1.396 . S
C963 C968 1.390 . S
C964 C958 1.465 . S
C964 C963 1.396 . S
C964 C965 1.399 . S
C965 H951 0.929 . S
C965 C964 1.399 . S
C965 C966 1.385 . S
C966 H952 0.931 . S
C966 C965 1.385 . S
C966 C967 1.389 . S
C967 C966 1.389 . S
C967 C968 1.387 . S
C968 H953 0.930 . S
C968 C963 1.390 . S
C968 C967 1.387 . S
H969 C981 0.930 . S
H970 C983 0.930 . S
H971 C984 0.930 . S
H972 C988 0.959 . S
H973 C988 0.959 . S
H974 C988 0.961 . S
H975 C989 0.960 . S
H976 C989 0.961 . S
H977 C989 0.959 . S
H978 C992 0.929 . S
H979 C993 0.931 . S
H980 C995 0.930 . S
C981 H969 0.930 . S
C981 C982 1.399 . S
C981 C986 1.399 . S
C982 C981 1.399 . S
C982 C983 1.376 . S
C983 H970 0.930 . S
C983 C982 1.376 . S
C983 C984 1.388 . S
C984 H971 0.930 . S
C984 C983 1.388 . S
C984 C985 1.390 . S
C985 C984 1.390 . S
C985 C986 1.394 . S
C985 C991 1.465 . S
C986 C981 1.399 . S
C986 C985 1.394 . S
C986 C987 1.516 . S
C987 C986 1.516 . S
C987 C988 1.502 . S
C987 C989 1.561 . S
C987 C990 1.526 . S
C988 H972 0.959 . S
C988 H973 0.959 . S
C988 H974 0.961 . S
C988 C987 1.502 . S
C989 H975 0.960 . S
C989 H976 0.961 . S
C989 H977 0.959 . S
C989 C987 1.561 . S
C990 C987 1.526 . S
C990 C991 1.396 . S
C990 C995 1.390 . S
C991 C985 1.465 . S
C991 C990 1.396 . S
C991 C992 1.399 . S
C992 H978 0.929 . S
C992 C991 1.399 . S
C992 C993 1.385 . S
C993 H979 0.931 . S
C993 C992 1.385 . S
C993 C994 1.389 . S
C994 C993 1.389 . S
C994 C995 1.387 . S
C995 H980 0.930 . S
C995 C990 1.390 . S
C995 C994 1.387 . S
H996 C1008 0.930 . S
H997 C1010 0.930 . S
H998 C1011 0.930 . S
H999 C1015 0.959 . S
H1000 C1015 0.959 . S
H1001 C1015 0.961 . S
H1002 C1016 0.960 . S
H1003 C1016 0.961 . S
H1004 C1016 0.959 . S
H1005 C1019 0.929 . S
H1006 C1020 0.931 . S
H1007 C1022 0.930 . S
C1008 H996 0.930 . S
C1008 C1009 1.399 . S
C1008 C1013 1.399 . S
C1009 C1008 1.399 . S
C1009 C1010 1.376 . S
C1010 H997 0.930 . S
C1010 C1009 1.376 . S
C1010 C1011 1.388 . S
C1011 H998 0.930 . S
C1011 C1010 1.388 . S
C1011 C1012 1.390 . S
C1012 C1011 1.390 . S
C1012 C1013 1.394 . S
C1012 C1018 1.465 . S
C1013 C1008 1.399 . S
C1013 C1012 1.394 . S
C1013 C1014 1.516 . S
C1014 C1013 1.516 . S
C1014 C1015 1.502 . S
C1014 C1016 1.561 . S
C1014 C1017 1.526 . S
C1015 H999 0.959 . S
C1015 H1000 0.959 . S
C1015 H1001 0.961 . S
C1015 C1014 1.502 . S
C1016 H1002 0.960 . S
C1016 H1003 0.961 . S
C1016 H1004 0.959 . S
C1016 C1014 1.561 . S
C1017 C1014 1.526 . S
C1017 C1018 1.396 . S
C1017 C1022 1.390 . S
C1018 C1012 1.465 . S
C1018 C1017 1.396 . S
C1018 C1019 1.399 . S
C1019 H1005 0.929 . S
C1019 C1018 1.399 . S
C1019 C1020 1.385 . S
C1020 H1006 0.931 . S
C1020 C1019 1.385 . S
C1020 C1021 1.389 . S
C1021 C1020 1.389 . S
C1021 C1022 1.387 . S
C1022 H1007 0.930 . S
C1022 C1017 1.390 . S
C1022 C1021 1.387 . S
H1023 C1035 0.930 . S
H1024 C1037 0.930 . S
H1025 C1038 0.930 . S
H1026 C1042 0.959 . S
H1027 C1042 0.959 . S
H1028 C1042 0.961 . S
H1029 C1043 0.960 . S
H1030 C1043 0.961 . S
H1031 C1043 0.959 . S
H1032 C1046 0.929 . S
H1033 C1047 0.931 . S
H1034 C1049 0.930 . S
C1035 H1023 0.930 . S
C1035 C1036 1.399 . S
C1035 C1040 1.399 . S
C1036 C1035 1.399 . S
C1036 C1037 1.376 . S
C1037 H1024 0.930 . S
C1037 C1036 1.376 . S
C1037 C1038 1.388 . S
C1038 H1025 0.930 . S
C1038 C1037 1.388 . S
C1038 C1039 1.390 . S
C1039 C1038 1.390 . S
C1039 C1040 1.394 . S
C1039 C1045 1.465 . S
C1040 C1035 1.399 . S
C1040 C1039 1.394 . S
C1040 C1041 1.516 . S
C1041 C1040 1.516 . S
C1041 C1042 1.502 . S
C1041 C1043 1.561 . S
C1041 C1044 1.526 . S
C1042 H1026 0.959 . S
C1042 H1027 0.959 . S
C1042 H1028 0.961 . S
C1042 C1041 1.502 . S
C1043 H1029 0.960 . S
C1043 H1030 0.961 . S
C1043 H1031 0.959 . S
C1043 C1041 1.561 . S
C1044 C1041 1.526 . S
C1044 C1045 1.396 . S
C1044 C1049 1.390 . S
C1045 C1039 1.465 . S
C1045 C1044 1.396 . S
C1045 C1046 1.399 . S
C1046 H1032 0.929 . S
C1046 C1045 1.399 . S
C1046 C1047 1.385 . S
C1047 H1033 0.931 . S
C1047 C1046 1.385 . S
C1047 C1048 1.389 . S
C1048 C1047 1.389 . S
C1048 C1049 1.387 . S
C1049 H1034 0.930 . S
C1049 C1044 1.390 . S
C1049 C1048 1.387 . S
H1050 C1062 0.930 . S
H1051 C1064 0.930 . S
H1052 C1065 0.930 . S
H1053 C1069 0.959 . S
H1054 C1069 0.959 . S
H1055 C1069 0.961 . S
H1056 C1070 0.960 . S
H1057 C1070 0.961 . S
H1058 C1070 0.959 . S
H1059 C1073 0.929 . S
H1060 C1074 0.931 . S
H1061 C1076 0.930 . S
C1062 H1050 0.930 . S
C1062 C1063 1.399 . S
C1062 C1067 1.399 . S
C1063 C1062 1.399 . S
C1063 C1064 1.376 . S
C1064 H1051 0.930 . S
C1064 C1063 1.376 . S
C1064 C1065 1.388 . S
C1065 H1052 0.930 . S
C1065 C1064 1.388 . S
C1065 C1066 1.390 . S
C1066 C1065 1.390 . S
C1066 C1067 1.394 . S
C1066 C1072 1.465 . S
C1067 C1062 1.399 . S
C1067 C1066 1.394 . S
C1067 C1068 1.516 . S
C1068 C1067 1.516 . S
C1068 C1069 1.502 . S
C1068 C1070 1.561 . S
C1068 C1071 1.526 . S
C1069 H1053 0.959 . S
C1069 H1054 0.959 . S
C1069 H1055 0.961 . S
C1069 C1068 1.502 . S
C1070 H1056 0.960 . S
C1070 H1057 0.961 . S
C1070 H1058 0.959 . S
C1070 C1068 1.561 . S
C1071 C1068 1.526 . S
C1071 C1072 1.396 . S
C1071 C1076 1.390 . S
C1072 C1066 1.465 . S
C1072 C1071 1.396 . S
C1072 C1073 1.399 . S
C1073 H1059 0.929 . S
C1073 C1072 1.399 . S
C1073 C1074 1.385 . S
C1074 H1060 0.931 . S
C1074 C1073 1.385 . S
C1074 C1075 1.389 . S
C1075 C1074 1.389 . S
C1075 C1076 1.387 . S
C1076 H1061 0.930 . S
C1076 C1071 1.390 . S
C1076 C1075 1.387 . S
H1077 C1089 0.930 . S
H1078 C1091 0.930 . S
H1079 C1092 0.930 . S
H1080 C1096 0.959 . S
H1081 C1096 0.959 . S
H1082 C1096 0.961 . S
H1083 C1097 0.960 . S
H1084 C1097 0.961 . S
H1085 C1097 0.959 . S
H1086 C1100 0.929 . S
H1087 C1101 0.931 . S
H1088 C1103 0.930 . S
C1089 H1077 0.930 . S
C1089 C1090 1.399 . S
C1089 C1094 1.399 . S
C1090 C1089 1.399 . S
C1090 C1091 1.376 . S
C1091 H1078 0.930 . S
C1091 C1090 1.376 . S
C1091 C1092 1.388 . S
C1092 H1079 0.930 . S
C1092 C1091 1.388 . S
C1092 C1093 1.390 . S
C1093 C1092 1.390 . S
C1093 C1094 1.394 . S
C1093 C1099 1.465 . S
C1094 C1089 1.399 . S
C1094 C1093 1.394 . S
C1094 C1095 1.516 . S
C1095 C1094 1.516 . S
C1095 C1096 1.502 . S
C1095 C1097 1.561 . S
C1095 C1098 1.526 . S
C1096 H1080 0.959 . S
C1096 H1081 0.959 . S
C1096 H1082 0.961 . S
C1096 C1095 1.502 . S
C1097 H1083 0.960 . S
C1097 H1084 0.961 . S
C1097 H1085 0.959 . S
C1097 C1095 1.561 . S
C1098 C1095 1.526 . S
C1098 C1099 1.396 . S
C1098 C1103 1.390 . S
C1099 C1093 1.465 . S
C1099 C1098 1.396 . S
C1099 C1100 1.399 . S
C1100 H1086 0.929 . S
C1100 C1099 1.399 . S
C1100 C1101 1.385 . S
C1101 H1087 0.931 . S
C1101 C1100 1.385 . S
C1101 C1102 1.389 . S
C1102 C1101 1.389 . S
C1102 C1103 1.387 . S
C1103 H1088 0.930 . S
C1103 C1098 1.390 . S
C1103 C1102 1.387 . S
H1104 C1116 0.930 . S
H1105 C1118 0.930 . S
H1106 C1119 0.930 . S
H1107 C1123 0.959 . S
H1108 C1123 0.959 . S
H1109 C1123 0.961 . S
H1110 C1124 0.960 . S
H1111 C1124 0.961 . S
H1112 C1124 0.959 . S
H1113 C1127 0.929 . S
H1114 C1128 0.931 . S
H1115 C1130 0.930 . S
C1116 H1104 0.930 . S
C1116 C1117 1.399 . S
C1116 C1121 1.399 . S
C1117 C1116 1.399 . S
C1117 C1118 1.376 . S
C1118 H1105 0.930 . S
C1118 C1117 1.376 . S
C1118 C1119 1.388 . S
C1119 H1106 0.930 . S
C1119 C1118 1.388 . S
C1119 C1120 1.390 . S
C1120 C1119 1.390 . S
C1120 C1121 1.394 . S
C1120 C1126 1.465 . S
C1121 C1116 1.399 . S
C1121 C1120 1.394 . S
C1121 C1122 1.516 . S
C1122 C1121 1.516 . S
C1122 C1123 1.502 . S
C1122 C1124 1.561 . S
C1122 C1125 1.526 . S
C1123 H1107 0.959 . S
C1123 H1108 0.959 . S
C1123 H1109 0.961 . S
C1123 C1122 1.502 . S
C1124 H1110 0.960 . S
C1124 H1111 0.961 . S
C1124 H1112 0.959 . S
C1124 C1122 1.561 . S
C1125 C1122 1.526 . S
C1125 C1126 1.396 . S
C1125 C1130 1.390 . S
C1126 C1120 1.465 . S
C1126 C1125 1.396 . S
C1126 C1127 1.399 . S
C1127 H1113 0.929 . S
C1127 C1126 1.399 . S
C1127 C1128 1.385 . S
C1128 H1114 0.931 . S
C1128 C1127 1.385 . S
C1128 C1129 1.389 . S
C1129 C1128 1.389 . S
C1129 C1130 1.387 . S
C1130 H1115 0.930 . S
C1130 C1125 1.390 . S
C1130 C1129 1.387 . S
H1131 C1143 0.930 . S
H1132 C1145 0.930 . S
H1133 C1146 0.930 . S
H1134 C1150 0.959 . S
H1135 C1150 0.959 . S
H1136 C1150 0.961 . S
H1137 C1151 0.960 . S
H1138 C1151 0.961 . S
H1139 C1151 0.959 . S
H1140 C1154 0.929 . S
H1141 C1155 0.931 . S
H1142 C1157 0.930 . S
C1143 H1131 0.930 . S
C1143 C1144 1.399 . S
C1143 C1148 1.399 . S
C1144 C1143 1.399 . S
C1144 C1145 1.376 . S
C1145 H1132 0.930 . S
C1145 C1144 1.376 . S
C1145 C1146 1.388 . S
C1146 H1133 0.930 . S
C1146 C1145 1.388 . S
C1146 C1147 1.390 . S
C1147 C1146 1.390 . S
C1147 C1148 1.394 . S
C1147 C1153 1.465 . S
C1148 C1143 1.399 . S
C1148 C1147 1.394 . S
C1148 C1149 1.516 . S
C1149 C1148 1.516 . S
C1149 C1150 1.502 . S
C1149 C1151 1.561 . S
C1149 C1152 1.526 . S
C1150 H1134 0.959 . S
C1150 H1135 0.959 . S
C1150 H1136 0.961 . S
C1150 C1149 1.502 . S
C1151 H1137 0.960 . S
C1151 H1138 0.961 . S
C1151 H1139 0.959 . S
C1151 C1149 1.561 . S
C1152 C1149 1.526 . S
C1152 C1153 1.396 . S
C1152 C1157 1.390 . S
C1153 C1147 1.465 . S
C1153 C1152 1.396 . S
C1153 C1154 1.399 . S
C1154 H1140 0.929 . S
C1154 C1153 1.399 . S
C1154 C1155 1.385 . S
C1155 H1141 0.931 . S
C1155 C1154 1.385 . S
C1155 C1156 1.389 . S
C1156 C1155 1.389 . S
C1156 C1157 1.387 . S
C1157 H1142 0.930 . S
C1157 C1152 1.390 . S
C1157 C1156 1.387 . S
H1158 C1170 0.930 . S
H1159 C1172 0.930 . S
H1160 C1173 0.930 . S
H1161 C1177 0.959 . S
H1162 C1177 0.959 . S
H1163 C1177 0.961 . S
H1164 C1178 0.960 . S
H1165 C1178 0.961 . S
H1166 C1178 0.959 . S
H1167 C1181 0.929 . S
H1168 C1182 0.931 . S
H1169 C1184 0.930 . S
C1170 H1158 0.930 . S
C1170 C1171 1.399 . S
C1170 C1175 1.399 . S
C1171 C1170 1.399 . S
C1171 C1172 1.376 . S
C1172 H1159 0.930 . S
C1172 C1171 1.376 . S
C1172 C1173 1.388 . S
C1173 H1160 0.930 . S
C1173 C1172 1.388 . S
C1173 C1174 1.390 . S
C1174 C1173 1.390 . S
C1174 C1175 1.394 . S
C1174 C1180 1.465 . S
C1175 C1170 1.399 . S
C1175 C1174 1.394 . S
C1175 C1176 1.516 . S
C1176 C1175 1.516 . S
C1176 C1177 1.502 . S
C1176 C1178 1.561 . S
C1176 C1179 1.526 . S
C1177 H1161 0.959 . S
C1177 H1162 0.959 . S
C1177 H1163 0.961 . S
C1177 C1176 1.502 . S
C1178 H1164 0.960 . S
C1178 H1165 0.961 . S
C1178 H1166 0.959 . S
C1178 C1176 1.561 . S
C1179 C1176 1.526 . S
C1179 C1180 1.396 . S
C1179 C1184 1.390 . S
C1180 C1174 1.465 . S
C1180 C1179 1.396 . S
C1180 C1181 1.399 . S
C1181 H1167 0.929 . S
C1181 C1180 1.399 . S
C1181 C1182 1.385 . S
C1182 H1168 0.931 . S
C1182 C1181 1.385 . S
C1182 C1183 1.389 . S
C1183 C1182 1.389 . S
C1183 C1184 1.387 . S
C1184 H1169 0.930 . S
C1184 C1179 1.390 . S
C1184 C1183 1.387 . S
H1185 C1197 0.930 . S
H1186 C1199 0.930 . S
H1187 C1200 0.930 . S
H1188 C1204 0.959 . S
H1189 C1204 0.959 . S
H1190 C1204 0.961 . S
H1191 C1205 0.960 . S
H1192 C1205 0.961 . S
H1193 C1205 0.959 . S
H1194 C1208 0.929 . S
H1195 C1209 0.931 . S
H1196 C1211 0.930 . S
C1197 H1185 0.930 . S
C1197 C1198 1.399 . S
C1197 C1202 1.399 . S
C1198 C1197 1.399 . S
C1198 C1199 1.376 . S
C1199 H1186 0.930 . S
C1199 C1198 1.376 . S
C1199 C1200 1.388 . S
C1200 H1187 0.930 . S
C1200 C1199 1.388 . S
C1200 C1201 1.390 . S
C1201 C1200 1.390 . S
C1201 C1202 1.394 . S
C1201 C1207 1.465 . S
C1202 C1197 1.399 . S
C1202 C1201 1.394 . S
C1202 C1203 1.516 . S
C1203 C1202 1.516 . S
C1203 C1204 1.502 . S
C1203 C1205 1.561 . S
C1203 C1206 1.526 . S
C1204 H1188 0.959 . S
C1204 H1189 0.959 . S
C1204 H1190 0.961 . S
C1204 C1203 1.502 . S
C1205 H1191 0.960 . S
C1205 H1192 0.961 . S
C1205 H1193 0.959 . S
C1205 C1203 1.561 . S
C1206 C1203 1.526 . S
C1206 C1207 1.396 . S
C1206 C1211 1.390 . S
C1207 C1201 1.465 . S
C1207 C1206 1.396 . S
C1207 C1208 1.399 . S
C1208 H1194 0.929 . S
C1208 C1207 1.399 . S
C1208 C1209 1.385 . S
C1209 H1195 0.931 . S
C1209 C1208 1.385 . S
C1209 C1210 1.389 . S
C1210 C1209 1.389 . S
C1210 C1211 1.387 . S
C1211 H1196 0.930 . S
C1211 C1206 1.390 . S
C1211 C1210 1.387 . S
C253 C45 2.051 1_455 S
C265 C8 1.718 . S
C280 C65 2.052 1_565 S
C292 C28 1.715 . S
C307 C48 1.747 . S
C319 C85 2.037 . S
C334 C68 1.714 . S
C346 C105 2.037 1_455 S
C361 C5 2.046 1_565 S
C373 C88 1.789 . S
C388 C25 2.052 . S
C400 C108 1.696 . S
C415 C205 2.052 1_545 S
C427 C128 1.710 . S
C442 C148 1.696 . S
C454 C225 2.036 . S
C469 C168 1.675 . S
C481 C125 2.049 1_655 S
C496 C188 1.783 . S
C508 C145 2.042 1_545 S
C523 C208 1.719 . S
C535 C165 2.052 . S
C550 C185 2.043 1_655 S
C562 C228 1.786 . S
C577 C62 1.819 . S
C589 C2 1.812 . S
C604 C22 1.807 . S
C616 C82 1.806 . S
C631 C42 1.829 . S
C643 C102 1.839 . S
C658 C122 1.871 . S
C670 C182 1.869 . S
C685 C142 1.861 . S
C697 C202 1.867 . S
C712 C162 1.855 . S
C724 C222 1.845 . S
C739 C153 1.922 . S
C751 C13 1.866 . S
C766 C33 1.933 . S
C778 C173 1.906 . S
C793 C193 1.927 . S
C805 C53 1.867 . S
C820 C73 1.913 . S
C832 C213 1.868 . S
C847 C93 1.871 . S
C859 C233 1.932 . S
C874 C133 1.927 . S
C886 C113 1.920 . S
C901 C57 1.720 . S
C913 C14 1.865 . S
C928 C34 1.870 . S
C940 C77 1.770 . S
C955 C54 1.867 . S
C967 C97 1.719 . S
C982 C74 1.904 . S
C994 C117 1.795 . S
C1009 C17 1.778 . S
C1021 C94 1.885 . S
C1036 C37 1.726 . S
C1048 C114 1.865 . S
C1063 C217 1.720 . S
C1075 C134 1.867 . S
C1090 C154 1.888 . S
C1102 C237 1.783 . S
C1117 C174 1.875 . S
C1129 C137 1.719 . S
C1144 C157 1.748 . S
C1156 C194 1.884 . S
C1171 C214 1.901 . S
C1183 C177 1.769 . S
C1198 C234 1.902 . S
C1210 C197 1.807 . S
