# Generated by pormake.
# Topology crr, (4)-cn, num edge types: 1
# Building blocks:
#     Node 0, Type 0, BuildingBlock: MUDLON_clean_sbu_0, # of connection points: 4
#     Node 1, Type 0, BuildingBlock: MUDLON_clean_sbu_0, # of connection points: 4
#     Node 2, Type 0, BuildingBlock: MUDLON_clean_sbu_0, # of connection points: 4
#     Node 3, Type 0, BuildingBlock: MUDLON_clean_sbu_0, # of connection points: 4
#     Node 4, Type 0, BuildingBlock: MUDLON_clean_sbu_0, # of connection points: 4
#     Node 5, Type 0, BuildingBlock: MUDLON_clean_sbu_0, # of connection points: 4
#     Node 6, Type 0, BuildingBlock: MUDLON_clean_sbu_0, # of connection points: 4
#     Node 7, Type 0, BuildingBlock: MUDLON_clean_sbu_0, # of connection points: 4
#     Node 8, Type 0, BuildingBlock: MUDLON_clean_sbu_0, # of connection points: 4
#     Node 9, Type 0, BuildingBlock: MUDLON_clean_sbu_0, # of connection points: 4
#     Node 10, Type 0, BuildingBlock: MUDLON_clean_sbu_0, # of connection points: 4
#     Node 11, Type 0, BuildingBlock: MUDLON_clean_sbu_0, # of connection points: 4
#     Edge 12, Type (0, 0), BuildingBlock: ZUJKAS_clean_linker_0, # of connection points: 2
#     Edge 13, Type (0, 0), BuildingBlock: ZUJKAS_clean_linker_0, # of connection points: 2
#     Edge 14, Type (0, 0), BuildingBlock: ZUJKAS_clean_linker_0, # of connection points: 2
#     Edge 15, Type (0, 0), BuildingBlock: ZUJKAS_clean_linker_0, # of connection points: 2
#     Edge 16, Type (0, 0), BuildingBlock: ZUJKAS_clean_linker_0, # of connection points: 2
#     Edge 17, Type (0, 0), BuildingBlock: ZUJKAS_clean_linker_0, # of connection points: 2
#     Edge 18, Type (0, 0), BuildingBlock: ZUJKAS_clean_linker_0, # of connection points: 2
#     Edge 19, Type (0, 0), BuildingBlock: ZUJKAS_clean_linker_0, # of connection points: 2
#     Edge 20, Type (0, 0), BuildingBlock: ZUJKAS_clean_linker_0, # of connection points: 2
#     Edge 21, Type (0, 0), BuildingBlock: ZUJKAS_clean_linker_0, # of connection points: 2
#     Edge 22, Type (0, 0), BuildingBlock: ZUJKAS_clean_linker_0, # of connection points: 2
#     Edge 23, Type (0, 0), BuildingBlock: ZUJKAS_clean_linker_0, # of connection points: 2
#     Edge 24, Type (0, 0), BuildingBlock: ZUJKAS_clean_linker_0, # of connection points: 2
#     Edge 25, Type (0, 0), BuildingBlock: ZUJKAS_clean_linker_0, # of connection points: 2
#     Edge 26, Type (0, 0), BuildingBlock: ZUJKAS_clean_linker_0, # of connection points: 2
#     Edge 27, Type (0, 0), BuildingBlock: ZUJKAS_clean_linker_0, # of connection points: 2
#     Edge 28, Type (0, 0), BuildingBlock: ZUJKAS_clean_linker_0, # of connection points: 2
#     Edge 29, Type (0, 0), BuildingBlock: ZUJKAS_clean_linker_0, # of connection points: 2
#     Edge 30, Type (0, 0), BuildingBlock: ZUJKAS_clean_linker_0, # of connection points: 2
#     Edge 31, Type (0, 0), BuildingBlock: ZUJKAS_clean_linker_0, # of connection points: 2
#     Edge 32, Type (0, 0), BuildingBlock: ZUJKAS_clean_linker_0, # of connection points: 2
#     Edge 33, Type (0, 0), BuildingBlock: ZUJKAS_clean_linker_0, # of connection points: 2
#     Edge 34, Type (0, 0), BuildingBlock: ZUJKAS_clean_linker_0, # of connection points: 2
#     Edge 35, Type (0, 0), BuildingBlock: ZUJKAS_clean_linker_0, # of connection points: 2
# Relax obj value: 0.153
# Max RMSD: 0.151
# Mean RMSD: 0.144
data_MOF--net-crr--node1-MUDLON_clean_sbu_0--edge1-ZUJKAS_clean_linker_0
_symmetry_space_group_name_H-M    P1
_symmetry_Int_Tables_number       1
_symmetry_cell_setting            triclinic
loop_
_symmetry_equiv_pos_as_xyz
'x, y, z'
_cell_length_a     50.800137
_cell_length_b     50.923758
_cell_length_c     50.905225
_cell_angle_alpha  89.648818
_cell_angle_beta   89.214939
_cell_angle_gamma 90.090931
loop_
_atom_site_label
_atom_site_type_symbol
_atom_site_fract_x
_atom_site_fract_y
_atom_site_fract_z
_atom_type_partial_charge
Mg0 Mg 0.08897 0.36626 0.33552 0.0
C1 C 0.12961 0.34038 0.37006 0.0
O2 O 0.10847 0.33588 0.38455 0.0
C3 C 0.07266 0.41856 0.31361 0.0
O4 O 0.05787 0.40284 0.2997 0.0
C5 C 0.08762 0.32334 0.29514 0.0
O6 O 0.09225 0.30914 0.31621 0.0
O7 O 0.08369 0.34784 0.29768 0.0
O8 O 0.12742 0.35347 0.34885 0.0
O9 O 0.0594 0.35504 0.36474 0.0
C10 C 0.03697 0.34512 0.36009 0.0
O11 O 0.03016 0.34089 0.33568 0.0
O12 O 0.08813 0.40862 0.33038 0.0
Mg13 Mg 0.32509 0.91417 0.71009 0.0
C14 C 0.32632 0.91141 0.76735 0.0
O15 O 0.34392 0.89421 0.75943 0.0
C16 C 0.33085 0.95976 0.67249 0.0
O17 O 0.35168 0.9633 0.68704 0.0
C18 C 0.28147 0.87643 0.71837 0.0
O19 O 0.27422 0.89663 0.73263 0.0
O20 O 0.30286 0.87785 0.70507 0.0
O21 O 0.31502 0.92558 0.75021 0.0
O22 O 0.36772 0.90873 0.70751 0.0
C23 C 0.38196 0.92374 0.72133 0.0
O24 O 0.3704 0.94094 0.73675 0.0
O25 O 0.31474 0.94154 0.67873 0.0
Mg26 Mg 0.94262 0.71166 0.31849 0.0
C27 C 0.93396 0.76339 0.29094 0.0
O28 O 0.92537 0.74728 0.27288 0.0
C29 C 0.99558 0.68521 0.31239 0.0
O30 O 1.00023 0.69881 0.33367 0.0
C31 C 0.90515 0.67646 0.28956 0.0
O32 O 0.92708 0.66325 0.286 0.0
O33 O 0.90556 0.69726 0.30324 0.0
O34 O 0.94396 0.75381 0.31164 0.0
O35 O 0.94525 0.7037 0.36025 0.0
C36 C 0.95833 0.71921 0.37458 0.0
O37 O 0.96813 0.74078 0.36403 0.0
O38 O 0.97409 0.68891 0.30041 0.0
Mg39 Mg 0.68544 0.03293 0.6536 0.0
C40 C 0.7002 0.01101 0.60049 0.0
O41 O 0.71917 1.00062 0.61441 0.0
C42 C 0.659 0.07767 0.68191 0.0
O43 O 0.64907 0.05776 0.69528 0.0
C44 C 0.64861 0.98677 0.66167 0.0
O45 O 0.6576 0.98114 0.63806 0.0
O46 O 0.6581 0.00644 0.67359 0.0
O47 O 0.68355 0.02594 0.61173 0.0
O48 O 0.72575 0.0308 0.66669 0.0
C49 C 0.7307 0.03604 0.69049 0.0
O50 O 0.71093 0.03855 0.7072 0.0
O51 O 0.67407 0.0731 0.66234 0.0
Mg52 Mg 0.10151 0.61435 0.66027 0.0
C53 C 0.07521 0.56292 0.65911 0.0
O54 O 0.08353 0.56637 0.63478 0.0
C55 C 0.11252 0.65172 0.70359 0.0
O56 O 0.12133 0.62996 0.71429 0.0
C57 C 0.06336 0.62796 0.61923 0.0
O58 O 0.04829 0.62507 0.64024 0.0
O59 O 0.08797 0.62409 0.62124 0.0
O60 O 0.07944 0.58095 0.6757 0.0
O61 O 0.14341 0.60692 0.66265 0.0
C62 C 0.15098 0.58988 0.67923 0.0
O63 O 0.13365 0.57286 0.68841 0.0
O64 O 0.09907 0.65017 0.68278 0.0
Mg65 Mg 0.71502 0.97666 0.27451 0.0
C66 C 0.77168 0.98018 0.29131 0.0
O67 O 0.76025 0.98329 0.31439 0.0
C68 C 0.66913 0.01119 0.26281 0.0
O69 O 0.66329 0.9902 0.24916 0.0
C70 C 0.69097 0.92941 0.24599 0.0
O71 O 0.67969 0.92443 0.26886 0.0
O72 O 0.70516 0.94982 0.24325 0.0
O73 O 0.7575 0.98041 0.27092 0.0
O74 O 0.70759 0.96033 0.31336 0.0
C75 C 0.68557 0.96405 0.32489 0.0
O76 O 0.66628 0.97472 0.31166 0.0
O77 O 0.69156 0.01239 0.27355 0.0
Mg78 Mg 0.8973 0.28988 0.65712 0.0
C79 C 0.94345 0.31855 0.68626 0.0
O80 O 0.94033 0.30175 0.70574 0.0
C81 C 0.90117 0.24164 0.69187 0.0
O82 O 0.89802 0.25938 0.71027 0.0
C83 C 0.91433 0.2804 0.60277 0.0
O84 O 0.93151 0.26752 0.61696 0.0
O85 O 0.8953 0.29178 0.61453 0.0
O86 O 0.9291 0.31687 0.66606 0.0
O87 O 0.8609 0.3011 0.6774 0.0
C88 C 0.86303 0.31213 0.69962 0.0
O89 O 0.88657 0.31862 0.70767 0.0
O90 O 0.90375 0.24918 0.66811 0.0
Mg91 Mg 0.3802 0.1323 0.38865 0.0
C92 C 0.36924 0.12492 0.33125 0.0
O93 O 0.39492 0.122 0.33069 0.0
C94 C 0.35846 0.08497 0.42123 0.0
O95 O 0.35274 0.07468 0.3984 0.0
C96 C 0.34967 0.17493 0.41491 0.0
O97 O 0.34241 0.15443 0.42904 0.0
O98 O 0.36789 0.17215 0.39776 0.0
O99 O 0.35745 0.12594 0.35342 0.0
O100 O 0.42198 0.1285 0.37901 0.0
C101 C 0.43107 0.10531 0.37721 0.0
O102 O 0.41528 0.08544 0.38247 0.0
O103 O 0.36965 0.10729 0.422 0.0
Mg104 Mg 0.28827 0.32608 0.07644 0.0
C105 C 0.33118 0.29968 0.04475 0.0
O106 O 0.33078 0.28422 0.06551 0.0
C107 C 0.24157 0.28978 0.0779 0.0
O108 O 0.26042 0.27223 0.07963 0.0
C109 C 0.3035 0.38315 0.0705 0.0
O110 O 0.32211 0.37247 0.05596 0.0
O111 O 0.28712 0.36828 0.08248 0.0
O112 O 0.3142 0.31793 0.04315 0.0
O113 O 0.30247 0.30509 0.11065 0.0
C114 C 0.28734 0.30129 0.13044 0.0
O115 O 0.26404 0.31245 0.13094 0.0
O116 O 0.24781 0.31344 0.0727 0.0
Mg117 Mg 0.29495 0.68799 0.95781 0.0
C118 C 0.26643 0.67744 0.90833 0.0
O119 O 0.24738 0.68626 0.9236 0.0
C120 C 0.34752 0.66774 0.9752 0.0
O121 O 0.33335 0.64635 0.97852 0.0
C122 C 0.29528 0.74659 0.96433 0.0
O123 O 0.31934 0.74104 0.97166 0.0
O124 O 0.27958 0.72779 0.95959 0.0
O125 O 0.28949 0.67563 0.91753 0.0
O126 O 0.27708 0.65969 0.98498 0.0
C127 C 0.27044 0.63746 0.97592 0.0
O128 O 0.27196 0.63372 0.95044 0.0
O129 O 0.33666 0.6883 0.96616 0.0
Mg130 Mg 0.67394 0.66328 0.06057 0.0
C131 C 0.61933 0.67926 0.04755 0.0
O132 O 0.63295 0.69938 0.03845 0.0
C133 C 0.70926 0.63605 0.09938 0.0
O134 O 0.72002 0.62739 0.07749 0.0
C135 C 0.67881 0.64008 0.00641 0.0
O136 O 0.66099 0.65813 0.0018 0.0
O137 O 0.68928 0.6391 0.02894 0.0
O138 O 0.63141 0.66062 0.05891 0.0
O139 O 0.68384 0.70468 0.0595 0.0
C140 C 0.70461 0.71276 0.07052 0.0
O141 O 0.72222 0.69547 0.07795 0.0
O142 O 0.68855 0.64994 0.09816 0.0
Mg143 Mg 0.62997 0.33587 0.88739 0.0
C144 C 0.67737 0.30544 0.91308 0.0
O145 O 0.68762 0.29297 0.93315 0.0
C146 C 0.58177 0.31251 0.9141 0.0
O147 O 0.59911 0.29443 0.92018 0.0
C148 C 0.63719 0.29134 0.85136 0.0
O149 O 0.63601 0.2801 0.87464 0.0
O150 O 0.63446 0.31611 0.84976 0.0
O151 O 0.6546 0.31562 0.91598 0.0
O152 O 0.64032 0.3776 0.8868 0.0
C153 C 0.65581 0.38591 0.90437 0.0
O154 O 0.66524 0.36908 0.92146 0.0
O155 O 0.58916 0.33219 0.90037 0.0
H156 H 0.17627 0.34182 0.34229 0.0
H157 H 0.21692 0.31813 0.35225 0.0
H158 H 0.18132 0.28811 0.42372 0.0
H159 H 0.14061 0.31142 0.41387 0.0
H160 H 0.25095 0.31838 0.39715 0.0
H161 H 0.20256 0.22189 0.38213 0.0
H162 H 0.18815 0.25244 0.37144 0.0
H163 H 0.18591 0.24265 0.40538 0.0
C164 C 0.17716 0.33037 0.36025 0.0
C165 C 0.15508 0.32829 0.37715 0.0
C166 C 0.20042 0.31689 0.36592 0.0
C167 C 0.20195 0.30107 0.3885 0.0
C168 C 0.18037 0.29988 0.40596 0.0
H169 H 0.31043 0.18721 0.44972 0.0
H170 H 0.27676 0.22092 0.44465 0.0
C171 C 0.15713 0.31329 0.40032 0.0
C172 C 0.22557 0.28476 0.39325 0.0
H173 H 0.24552 0.22111 0.39947 0.0
C174 C 0.24986 0.29711 0.39759 0.0
C175 C 0.22407 0.25703 0.39359 0.0
C176 C 0.19885 0.24264 0.38765 0.0
C177 C 0.27258 0.28237 0.40301 0.0
C178 C 0.2709 0.25466 0.40381 0.0
C179 C 0.24668 0.24239 0.39912 0.0
C180 C 0.2939 0.23767 0.40921 0.0
C181 C 0.29803 0.29649 0.40839 0.0
C182 C 0.31518 0.23642 0.39137 0.0
C183 C 0.33458 0.21715 0.39424 0.0
C184 C 0.33283 0.19867 0.41487 0.0
C185 C 0.31233 0.20104 0.43355 0.0
C186 C 0.29303 0.2203 0.43069 0.0
H187 H 0.29476 0.31756 0.41292 0.0
H188 H 0.30843 0.28715 0.42506 0.0
H189 H 0.31106 0.29533 0.39077 0.0
H190 H 0.31602 0.24938 0.37443 0.0
H191 H 0.35002 0.21578 0.37943 0.0
H192 H 0.27932 0.83765 0.68118 0.0
H193 H 0.24889 0.80014 0.68052 0.0
H194 H 0.21654 0.82361 0.75557 0.0
H195 H 0.24599 0.86144 0.75585 0.0
H196 H 0.24152 0.75863 0.71182 0.0
H197 H 0.15073 0.81855 0.71367 0.0
H198 H 0.18289 0.83278 0.70832 0.0
H199 H 0.17132 0.82529 0.74114 0.0
C200 C 0.26568 0.83475 0.69749 0.0
C201 C 0.26472 0.85268 0.71834 0.0
C202 C 0.24831 0.81336 0.69711 0.0
C203 C 0.22991 0.80946 0.71767 0.0
C204 C 0.22986 0.8267 0.73905 0.0
H205 H 0.1463 0.66174 0.7438 0.0
H206 H 0.17346 0.70096 0.74918 0.0
C207 C 0.24685 0.84824 0.73924 0.0
C208 C 0.21083 0.78734 0.71693 0.0
H209 H 0.14526 0.77266 0.72161 0.0
C210 C 0.22047 0.76171 0.71386 0.0
C211 C 0.1833 0.79138 0.71915 0.0
C212 C 0.17142 0.81851 0.72047 0.0
C213 C 0.20341 0.74001 0.71328 0.0
C214 C 0.17598 0.74397 0.71678 0.0
C215 C 0.16631 0.76961 0.71948 0.0
C216 C 0.15694 0.72186 0.7162 0.0
C217 C 0.2149 0.71317 0.70811 0.0
C218 C 0.13725 0.72145 0.69714 0.0
C219 C 0.12124 0.69933 0.69437 0.0
C220 C 0.12475 0.67713 0.71054 0.0
C221 C 0.14318 0.67839 0.73088 0.0
C222 C 0.15899 0.70066 0.73378 0.0
H223 H 0.23464 0.7145 0.69853 0.0
H224 H 0.21718 0.70258 0.72702 0.0
H225 H 0.20186 0.70134 0.69543 0.0
H226 H 0.1351 0.73774 0.68355 0.0
H227 H 0.10719 0.6991 0.67856 0.0
H228 H 0.80743 0.97559 0.33081 0.0
H229 H 0.84654 0.94769 0.33088 0.0
H230 H 0.83505 0.93035 0.24899 0.0
H231 H 0.79658 0.95874 0.24854 0.0
H232 H 0.8416 0.89692 0.32362 0.0
H233 H 0.91361 0.93352 0.24995 0.0
H234 H 0.88696 0.95363 0.26225 0.0
H235 H 0.88154 0.93073 0.236 0.0
C236 C 0.81377 0.96658 0.31257 0.0
C237 C 0.79867 0.96918 0.28975 0.0
C238 C 0.83614 0.95059 0.31265 0.0
C239 C 0.84386 0.9369 0.28994 0.0
C240 C 0.82994 0.94107 0.26664 0.0
H241 H 0.90973 0.78963 0.25098 0.0
H242 H 0.89275 0.8345 0.25169 0.0
C243 C 0.80773 0.95725 0.26647 0.0
C244 C 0.86322 0.9151 0.29165 0.0
H245 H 0.9157 0.88681 0.26006 0.0
C246 C 0.85819 0.89505 0.31013 0.0
C247 C 0.88477 0.91249 0.27392 0.0
C248 C 0.89218 0.93391 0.25461 0.0
C249 C 0.87314 0.87194 0.31048 0.0
C250 C 0.89397 0.86886 0.29205 0.0
C251 C 0.89969 0.88923 0.27415 0.0
C252 C 0.90836 0.84366 0.28987 0.0
C253 C 0.86561 0.85039 0.32968 0.0
C254 C 0.92366 0.83431 0.31067 0.0
C255 C 0.93334 0.8086 0.31039 0.0
C256 C 0.92789 0.79183 0.28926 0.0
C257 C 0.91413 0.80193 0.26765 0.0
C258 C 0.90447 0.82762 0.26796 0.0
H259 H 0.84627 0.85407 0.33941 0.0
H260 H 0.86473 0.83113 0.31959 0.0
H261 H 0.88073 0.84901 0.34515 0.0
H262 H 0.92714 0.84652 0.32762 0.0
H263 H 0.94405 0.80153 0.32727 0.0
H264 H 0.89701 0.20108 0.65714 0.0
H265 H 0.8776 0.15799 0.6659 0.0
H266 H 0.87341 0.17534 0.74864 0.0
H267 H 0.89232 0.21882 0.74004 0.0
H268 H 0.8865 0.1134 0.69905 0.0
H269 H 0.79608 0.16901 0.72698 0.0
H270 H 0.82411 0.18462 0.71137 0.0
H271 H 0.82497 0.17604 0.74564 0.0
C272 C 0.89255 0.19557 0.6773 0.0
C273 C 0.89565 0.21364 0.69783 0.0
C274 C 0.88151 0.17085 0.68228 0.0
C275 C 0.87353 0.16374 0.70783 0.0
C276 C 0.87898 0.1807 0.7287 0.0
H277 H 0.7477 0.05123 0.73886 0.0
H278 H 0.78711 0.07695 0.74808 0.0
C279 C 0.88986 0.20551 0.72374 0.0
C280 C 0.85643 0.14041 0.71183 0.0
H281 H 0.79261 0.12346 0.72496 0.0
C282 C 0.86606 0.11547 0.7051 0.0
C283 C 0.82975 0.14319 0.71968 0.0
C284 C 0.81794 0.16963 0.72616 0.0
C285 C 0.84949 0.09331 0.70539 0.0
C286 C 0.82255 0.09634 0.71213 0.0
C287 C 0.81329 0.12108 0.71997 0.0
C288 C 0.80275 0.07527 0.70837 0.0
C289 C 0.86092 0.06698 0.69815 0.0
C290 C 0.79895 0.06482 0.68324 0.0
C291 C 0.7765 0.04997 0.67794 0.0
C292 C 0.75721 0.04565 0.69758 0.0
C293 C 0.76207 0.05435 0.72323 0.0
C294 C 0.78462 0.06906 0.72855 0.0
H295 H 0.88213 0.06592 0.70309 0.0
H296 H 0.85032 0.05068 0.70832 0.0
H297 H 0.85929 0.06417 0.67663 0.0
H298 H 0.81228 0.06976 0.66718 0.0
H299 H 0.77341 0.04355 0.65797 0.0
H300 H 0.33243 0.27222 0.13342 0.0
H301 H 0.34306 0.23844 0.16586 0.0
H302 H 0.26954 0.25302 0.20652 0.0
H303 H 0.25856 0.28664 0.17397 0.0
H304 H 0.34849 0.24346 0.21933 0.0
H305 H 0.268 0.17341 0.19717 0.0
H306 H 0.27686 0.20029 0.17548 0.0
H307 H 0.2572 0.20617 0.20447 0.0
C308 C 0.31852 0.26831 0.14928 0.0
C309 C 0.29461 0.2821 0.15106 0.0
C310 C 0.32459 0.24893 0.16776 0.0
C311 C 0.30686 0.24285 0.18829 0.0
C312 C 0.28321 0.25693 0.19046 0.0
H313 H 0.3197 0.1459 0.32758 0.0
H314 H 0.30289 0.17202 0.29099 0.0
C315 C 0.2771 0.27633 0.17197 0.0
C316 C 0.31371 0.22246 0.20794 0.0
H317 H 0.29396 0.1637 0.23454 0.0
C318 C 0.33665 0.22596 0.22254 0.0
C319 C 0.29814 0.19969 0.21216 0.0
C320 C 0.27379 0.19445 0.19636 0.0
C321 C 0.34431 0.2075 0.24147 0.0
C322 C 0.32886 0.18466 0.2456 0.0
C323 C 0.30581 0.18116 0.23116 0.0
C324 C 0.33633 0.16467 0.26536 0.0
C325 C 0.36863 0.21285 0.25731 0.0
C326 C 0.35996 0.15072 0.26245 0.0
C327 C 0.36966 0.1358 0.28329 0.0
C328 C 0.35583 0.13455 0.30739 0.0
C329 C 0.33093 0.14654 0.30935 0.0
C330 C 0.32129 0.16153 0.28847 0.0
H331 H 0.37491 0.23372 0.25583 0.0
H332 H 0.3652 0.20785 0.27835 0.0
H333 H 0.38504 0.20047 0.24986 0.0
H334 H 0.37162 0.15256 0.24454 0.0
H335 H 0.38876 0.12659 0.28102 0.0
H336 H 0.30176 0.6647 0.8692 0.0
H337 H 0.29194 0.65168 0.82407 0.0
H338 H 0.20881 0.65774 0.84138 0.0
H339 H 0.21841 0.67142 0.88602 0.0
H340 H 0.26608 0.6104 0.80522 0.0
H341 H 0.21478 0.7006 0.77525 0.0
H342 H 0.23252 0.69845 0.80556 0.0
H343 H 0.19888 0.68718 0.80393 0.0
C344 C 0.2814 0.66341 0.8633 0.0
C345 C 0.26085 0.66931 0.88111 0.0
C346 C 0.27583 0.65597 0.83753 0.0
C347 C 0.24966 0.65431 0.82916 0.0
C348 C 0.22918 0.65967 0.84712 0.0
H349 H 0.1689 0.56248 0.72155 0.0
H350 H 0.1996 0.57819 0.75407 0.0
C351 C 0.2347 0.66732 0.87273 0.0
C352 C 0.24341 0.64601 0.80205 0.0
H353 H 0.20342 0.66095 0.75093 0.0
C354 C 0.2528 0.6217 0.79306 0.0
C355 C 0.22674 0.66104 0.78579 0.0
C356 C 0.21793 0.68838 0.79306 0.0
C357 C 0.24438 0.61117 0.76915 0.0
C358 C 0.22551 0.62499 0.75426 0.0
C359 C 0.21765 0.65014 0.76238 0.0
C360 C 0.2114 0.61286 0.732 0.0
C361 C 0.25551 0.58517 0.76038 0.0
C362 C 0.20796 0.62682 0.7084 0.0
C363 C 0.18997 0.61803 0.68982 0.0
C364 C 0.17499 0.59517 0.69458 0.0
C365 C 0.18009 0.58014 0.7172 0.0
C366 C 0.19788 0.58904 0.73582 0.0
H367 H 0.27611 0.5828 0.76706 0.0
H368 H 0.24371 0.56902 0.76938 0.0
H369 H 0.25517 0.58315 0.73869 0.0
H370 H 0.21809 0.6453 0.70501 0.0
H371 H 0.18654 0.63013 0.67264 0.0
H372 H 0.7455 0.7369 0.0952 0.0
H373 H 0.74351 0.77748 0.1206 0.0
H374 H 0.6635 0.78974 0.09617 0.0
H375 H 0.66553 0.7497 0.07012 0.0
H376 H 0.69045 0.83603 0.09987 0.0
H377 H 0.70316 0.77568 0.18992 0.0
H378 H 0.72992 0.77277 0.16676 0.0
H379 H 0.69765 0.76134 0.15817 0.0
C380 C 0.72767 0.74854 0.09475 0.0
C381 C 0.70553 0.73982 0.08098 0.0
C382 C 0.7265 0.77161 0.10945 0.0
C383 C 0.70307 0.78616 0.11094 0.0
C384 C 0.68168 0.77866 0.09553 0.0
H385 H 0.66066 0.88495 0.24349 0.0
H386 H 0.66149 0.85149 0.20917 0.0
C387 C 0.68291 0.75574 0.08061 0.0
C388 C 0.70011 0.80793 0.12998 0.0
H389 H 0.70239 0.82175 0.19545 0.0
C390 C 0.69305 0.83295 0.12077 0.0
C391 C 0.70285 0.8037 0.15733 0.0
C392 C 0.70854 0.77688 0.16872 0.0
C393 C 0.68914 0.85399 0.13814 0.0
C394 C 0.69294 0.84998 0.16537 0.0
C395 C 0.69962 0.82486 0.17457 0.0
C396 C 0.69055 0.87151 0.18479 0.0
C397 C 0.68044 0.88011 0.12717 0.0
C398 C 0.70644 0.89398 0.18243 0.0
C399 C 0.70581 0.91323 0.20186 0.0
C400 C 0.68959 0.9102 0.22432 0.0
C401 C 0.67337 0.88788 0.22646 0.0
C402 C 0.67385 0.86873 0.20688 0.0
H403 H 0.67052 0.8778 0.108 0.0
H404 H 0.66679 0.89027 0.14095 0.0
H405 H 0.69797 0.8928 0.12387 0.0
H406 H 0.71999 0.89628 0.16596 0.0
H407 H 0.71872 0.93007 0.19965 0.0
H408 H 0.71442 0.27111 0.89539 0.0
H409 H 0.74102 0.27396 0.85513 0.0
H410 H 0.69984 0.34451 0.83283 0.0
H411 H 0.67479 0.34276 0.87391 0.0
H412 H 0.73074 0.27318 0.80423 0.0
H413 H 0.77376 0.37007 0.82884 0.0
H414 H 0.75399 0.35148 0.85198 0.0
H415 H 0.73859 0.37061 0.82662 0.0
C416 C 0.71111 0.28732 0.88197 0.0
C417 C 0.69223 0.30665 0.88782 0.0
C418 C 0.72619 0.28881 0.85883 0.0
C419 C 0.72274 0.30966 0.84105 0.0
C420 C 0.70333 0.32853 0.84646 0.0
H421 H 0.8105 0.30404 0.6895 0.0
H422 H 0.77373 0.3048 0.72129 0.0
C423 C 0.68863 0.3273 0.86985 0.0
C424 C 0.74025 0.31208 0.81753 0.0
H425 H 0.78532 0.35252 0.78762 0.0
C426 C 0.74266 0.29055 0.80054 0.0
C427 C 0.75593 0.3347 0.81282 0.0
C428 C 0.75568 0.35792 0.83114 0.0
C429 C 0.76088 0.29066 0.77949 0.0
C430 C 0.77644 0.31336 0.77472 0.0
C431 C 0.77331 0.3352 0.79117 0.0
C432 C 0.79799 0.3141 0.75465 0.0
C433 C 0.76413 0.26599 0.76348 0.0
C434 C 0.82365 0.32018 0.76252 0.0
C435 C 0.84444 0.32039 0.74439 0.0
C436 C 0.8402 0.31425 0.7179 0.0
C437 C 0.81442 0.30871 0.7098 0.0
C438 C 0.79343 0.30888 0.728 0.0
H439 H 0.75602 0.2485 0.77396 0.0
H440 H 0.75336 0.26824 0.74479 0.0
H441 H 0.78518 0.26225 0.75873 0.0
H442 H 0.82772 0.32431 0.78293 0.0
H443 H 0.86402 0.32467 0.75138 0.0
H444 H 0.35424 0.89733 0.81 0.0
H445 H 0.33644 0.88292 0.85246 0.0
H446 H 0.25864 0.90626 0.82899 0.0
H447 H 0.27647 0.92097 0.78624 0.0
H448 H 0.30031 0.90474 0.89493 0.0
H449 H 0.25938 0.82333 0.83481 0.0
H450 H 0.28455 0.84494 0.82172 0.0
H451 H 0.25159 0.85676 0.82633 0.0
C452 C 0.33348 0.90023 0.8142 0.0
C453 C 0.31668 0.90998 0.79478 0.0
C454 C 0.32335 0.89208 0.8385 0.0
C455 C 0.29622 0.89326 0.8437 0.0
C456 C 0.27965 0.90515 0.82526 0.0
H457 H 0.24781 0.76548 0.94735 0.0
H458 H 0.2403 0.80687 0.92399 0.0
C459 C 0.28987 0.91363 0.80093 0.0
C460 C 0.28547 0.87789 0.86616 0.0
H461 H 0.26262 0.81632 0.87982 0.0
C462 C 0.29138 0.88567 0.89181 0.0
C463 C 0.2736 0.85315 0.86202 0.0
C464 C 0.2669 0.84383 0.83479 0.0
C465 C 0.28726 0.8686 0.91328 0.0
C466 C 0.27787 0.84282 0.90878 0.0
C467 C 0.26993 0.83598 0.88339 0.0
C468 C 0.28005 0.82137 0.92863 0.0
C469 C 0.29377 0.87816 0.94041 0.0
C470 C 0.30455 0.81611 0.93998 0.0
C471 C 0.30877 0.79267 0.95363 0.0
C472 C 0.28876 0.77364 0.95571 0.0
C473 C 0.26369 0.77966 0.94597 0.0
C474 C 0.25937 0.80334 0.9326 0.0
H475 H 0.28909 0.89937 0.94236 0.0
H476 H 0.28283 0.86707 0.95592 0.0
H477 H 0.31521 0.8759 0.94364 0.0
H478 H 0.32111 0.82918 0.93666 0.0
H479 H 0.32833 0.78872 0.96085 0.0
H480 H 0.75393 0.60796 0.1091 0.0
H481 H 0.78177 0.61076 0.14776 0.0
H482 H 0.72576 0.66286 0.18459 0.0
H483 H 0.69778 0.66027 0.14599 0.0
H484 H 0.77762 0.68277 0.17993 0.0
H485 H 0.77675 0.58294 0.22414 0.0
H486 H 0.78264 0.58363 0.18925 0.0
H487 H 0.75143 0.59437 0.20226 0.0
C488 C 0.74721 0.61953 0.12566 0.0
C489 C 0.7237 0.634 0.12439 0.0
C490 C 0.76308 0.62099 0.14781 0.0
C491 C 0.75571 0.63686 0.1691 0.0
C492 C 0.73169 0.65038 0.16841 0.0
H493 H 0.85566 0.69741 0.29446 0.0
H494 H 0.81698 0.68696 0.26831 0.0
C495 C 0.71573 0.64883 0.14633 0.0
C496 C 0.77454 0.64188 0.19044 0.0
H497 H 0.81108 0.61182 0.23765 0.0
C498 C 0.78468 0.66738 0.19285 0.0
C499 C 0.7838 0.62169 0.20706 0.0
C500 C 0.77296 0.59415 0.20578 0.0
C501 C 0.80467 0.67304 0.21069 0.0
C502 C 0.81428 0.65275 0.22709 0.0
C503 C 0.80364 0.62736 0.22513 0.0
C504 C 0.83656 0.65717 0.24507 0.0
C505 C 0.81617 0.70041 0.21085 0.0
C506 C 0.85999 0.643 0.24157 0.0
C507 C 0.88199 0.64866 0.25671 0.0
C508 C 0.881 0.66868 0.2756 0.0
C509 C 0.85715 0.68208 0.27987 0.0
C510 C 0.83506 0.67623 0.26485 0.0
H511 H 0.81112 0.71167 0.19285 0.0
H512 H 0.80815 0.71124 0.22802 0.0
H513 H 0.83794 0.69978 0.21245 0.0
H514 H 0.86155 0.62813 0.2265 0.0
H515 H 0.90001 0.63788 0.25298 0.0
H516 H 0.62684 0.09383 0.72195 0.0
H517 H 0.62408 0.1375 0.7411 0.0
H518 H 0.67966 0.16679 0.68317 0.0
H519 H 0.68281 0.12287 0.66394 0.0
H520 H 0.69335 0.17941 0.73342 0.0
H521 H 0.58918 0.20526 0.71776 0.0
H522 H 0.59215 0.17326 0.7323 0.0
H523 H 0.60546 0.17928 0.69984 0.0
C524 C 0.63818 0.10961 0.71296 0.0
C525 C 0.65507 0.10483 0.69142 0.0
C526 C 0.63641 0.13465 0.72383 0.0
C527 C 0.65135 0.15552 0.71332 0.0
C528 C 0.66779 0.15101 0.69143 0.0
H529 H 0.63013 0.30443 0.79945 0.0
H530 H 0.63652 0.27575 0.76117 0.0
C531 C 0.66952 0.12591 0.68046 0.0
C532 C 0.65153 0.18117 0.72696 0.0
H533 H 0.61039 0.22659 0.75443 0.0
C534 C 0.6753 0.19009 0.73751 0.0
C535 C 0.62811 0.19543 0.7319 0.0
C536 C 0.60235 0.18796 0.71959 0.0
C537 C 0.67587 0.21159 0.75461 0.0
C538 C 0.65202 0.22419 0.76156 0.0
C539 C 0.62862 0.21667 0.74933 0.0
C540 C 0.65035 0.24261 0.7839 0.0
C541 C 0.70183 0.22008 0.76586 0.0
C542 C 0.65595 0.23342 0.80922 0.0
C543 C 0.65206 0.24951 0.83096 0.0
C544 C 0.64248 0.27519 0.82786 0.0
C545 C 0.6375 0.2847 0.80241 0.0
C546 C 0.64116 0.2684 0.78057 0.0
H547 H 0.71856 0.21461 0.75272 0.0
H548 H 0.70231 0.24163 0.76909 0.0
H549 H 0.70468 0.21011 0.78505 0.0
H550 H 0.66262 0.21344 0.81226 0.0
H551 H 0.65628 0.24165 0.85027 0.0
H552 H 0.2007 0.32399 0.08526 0.0
H553 H 0.16456 0.31893 0.11688 0.0
H554 H 0.18692 0.2384 0.13046 0.0
H555 H 0.22367 0.24343 0.09928 0.0
H556 H 0.12116 0.28558 0.12824 0.0
H557 H 0.20196 0.2745 0.2004 0.0
H558 H 0.20807 0.28412 0.16675 0.0
H559 H 0.20109 0.25041 0.17483 0.0
C560 C 0.19756 0.30495 0.09438 0.0
C561 C 0.21552 0.28432 0.09025 0.0
C562 C 0.1768 0.30208 0.11244 0.0
C563 C 0.17354 0.27853 0.12653 0.0
C564 C 0.1895 0.25694 0.12019 0.0
H565 H 0.10057 0.27274 0.28264 0.0
H566 H 0.11592 0.25659 0.23998 0.0
C567 C 0.21042 0.25983 0.10224 0.0
C568 C 0.1563 0.27813 0.15026 0.0
H569 H 0.15917 0.27788 0.21719 0.0
C570 C 0.12934 0.28348 0.14771 0.0
C571 C 0.16707 0.27553 0.17566 0.0
C572 C 0.19614 0.27103 0.17975 0.0
C573 C 0.11299 0.28696 0.16993 0.0
C574 C 0.12402 0.28542 0.19526 0.0
C575 C 0.1507 0.2789 0.19776 0.0
C576 C 0.10938 0.29325 0.21939 0.0
C577 C 0.08418 0.29267 0.16605 0.0
C578 C 0.0999 0.31901 0.22185 0.0
C579 C 0.09109 0.3283 0.24619 0.0
C580 C 0.09187 0.31208 0.26864 0.0
C581 C 0.09981 0.28579 0.26579 0.0
C582 C 0.10857 0.2765 0.2414 0.0
H583 H 0.07714 0.2843 0.1473 0.0
H584 H 0.07197 0.28464 0.18249 0.0
H585 H 0.08125 0.31424 0.16516 0.0
H586 H 0.10087 0.33249 0.20533 0.0
H587 H 0.08509 0.34865 0.24767 0.0
H588 H 0.88642 0.31046 0.56778 0.0
H589 H 0.89803 0.31985 0.52173 0.0
H590 H 0.96535 0.26875 0.52767 0.0
H591 H 0.95366 0.25889 0.57316 0.0
H592 H 0.94221 0.34373 0.50478 0.0
H593 H 0.9369 0.2465 0.45798 0.0
H594 H 0.92223 0.25291 0.48981 0.0
H595 H 0.95672 0.24506 0.4868 0.0
C596 C 0.90336 0.30081 0.55908 0.0
C597 C 0.91912 0.28395 0.57418 0.0
C598 C 0.90999 0.30621 0.53278 0.0
C599 C 0.93235 0.2947 0.52108 0.0
C600 C 0.94763 0.27734 0.53596 0.0
H601 H 0.04561 0.35161 0.41244 0.0
H602 H 0.01632 0.34046 0.44914 0.0
C603 C 0.94101 0.2719 0.56213 0.0
C604 C 0.94153 0.30277 0.49439 0.0
H605 H 0.9661 0.27827 0.43676 0.0
C606 C 0.94693 0.32946 0.48971 0.0
C607 C 0.94732 0.28428 0.47448 0.0
C608 C 0.9402 0.25564 0.47742 0.0
C609 C 0.95955 0.33788 0.46645 0.0
C610 C 0.96746 0.31907 0.4476 0.0
C611 C 0.96045 0.29264 0.45143 0.0
C612 C 0.98477 0.32615 0.42491 0.0
C613 C 0.96475 0.36683 0.46253 0.0
C614 C 0.97709 0.32113 0.39903 0.0
C615 C 0.99394 0.32735 0.37785 0.0
C616 C 0.01885 0.3385 0.38226 0.0
C617 C 0.0265 0.34322 0.40826 0.0
C618 C 0.0097 0.33703 0.42932 0.0
H619 H 0.95033 0.37891 0.47374 0.0
H620 H 0.98468 0.37159 0.46981 0.0
H621 H 0.96389 0.37244 0.44144 0.0
H622 H 0.95802 0.3125 0.39521 0.0
H623 H 0.98748 0.32337 0.3581 0.0
H624 H 0.3622 0.1037 0.47116 0.0
H625 H 0.3524 0.08067 0.51234 0.0
H626 H 0.32987 0.01174 0.4693 0.0
H627 H 0.33966 0.03469 0.42775 0.0
H628 H 0.30301 0.05508 0.52951 0.0
H629 H 0.38875 0.98737 0.52134 0.0
H630 H 0.38672 0.01735 0.50236 0.0
H631 H 0.3672 0.98943 0.49363 0.0
C632 C 0.35515 0.08364 0.47035 0.0
C633 C 0.35189 0.07097 0.44611 0.0
C634 C 0.34945 0.07056 0.49394 0.0
C635 C 0.34058 0.04449 0.49385 0.0
C636 C 0.33691 0.03182 0.46975 0.0
H637 H 0.2922 0.95541 0.63541 0.0
H638 H 0.29177 0.97576 0.59156 0.0
C639 C 0.34247 0.04497 0.44605 0.0
C640 C 0.33599 0.03056 0.51915 0.0
H641 H 0.36221 0.98384 0.5594 0.0
C642 C 0.31572 0.03929 0.53597 0.0
C643 C 0.35279 0.01014 0.52753 0.0
C644 C 0.37523 1.00051 0.51044 0.0
C645 C 0.31207 0.02833 0.56118 0.0
C646 C 0.32915 0.00824 0.56969 0.0
C647 C 0.34911 0.99921 0.5527 0.0
C648 C 0.3279 0.99752 0.59678 0.0
C649 C 0.29063 0.03886 0.57896 0.0
C650 C 0.34816 0.0033 0.61424 0.0
C651 C 0.34841 0.99189 0.63925 0.0
C652 C 0.32851 0.97421 0.64723 0.0
C653 C 0.30779 0.96899 0.62992 0.0
C654 C 0.30749 0.98058 0.60487 0.0
H655 H 0.28081 0.05636 0.57042 0.0
H656 H 0.27557 0.02337 0.58247 0.0
H657 H 0.29889 0.04421 0.5983 0.0
H658 H 0.36407 0.01635 0.60833 0.0
H659 H 0.36468 0.99637 0.65201 0.0
H660 H 0.08912 0.63991 0.57301 0.0
H661 H 0.06979 0.65613 0.53221 0.0
H662 H 0.99233 0.65145 0.56767 0.0
H663 H 0.01143 0.63567 0.60858 0.0
H664 H 0.03305 0.63313 0.49993 0.0
H665 H 0.99514 0.72691 0.54033 0.0
H666 H 0.0185 0.70668 0.55754 0.0
H667 H 0.98408 0.69835 0.55817 0.0
C668 C 0.06797 0.64233 0.57213 0.0
C669 C 0.05183 0.63668 0.59411 0.0
C670 C 0.05697 0.6516 0.54881 0.0
C671 C 0.02968 0.65544 0.54709 0.0
C672 C 0.01349 0.64922 0.56878 0.0
H673 H 0.94334 0.67486 0.40163 0.0
H674 H 0.95948 0.65962 0.44412 0.0
C675 C 0.02445 0.64004 0.5921 0.0
C676 C 0.01812 0.66561 0.52248 0.0
H677 H 0.98154 0.71579 0.49732 0.0
C678 C 0.02183 0.65122 0.49932 0.0
C679 C 0.00376 0.68939 0.52173 0.0
C680 C 1.0003 0.70639 0.5457 0.0
C681 C 0.01129 0.65981 0.47542 0.0
C682 C 0.99622 0.68315 0.47483 0.0
C683 C 0.9928 0.69772 0.49793 0.0
C684 C 0.98471 0.69326 0.45018 0.0
C685 C 0.01687 0.6441 0.45092 0.0
C686 C 0.99262 0.71778 0.44011 0.0
C687 C 0.98324 0.72668 0.41598 0.0
C688 C 0.96573 0.71122 0.40149 0.0
C689 C 0.95695 0.68717 0.4122 0.0
C690 C 0.9663 0.67833 0.43639 0.0
H691 H 0.03391 0.63071 0.45344 0.0
H692 H 0.99939 0.63194 0.44638 0.0
H693 H 0.02095 0.65723 0.43385 0.0
H694 H 0.00667 0.72969 0.45057 0.0
H695 H 0.99033 0.74533 0.40836 0.0
H696 H 0.73445 0.98321 0.56947 0.0
H697 H 0.72975 0.97223 0.52304 0.0
H698 H 0.65491 0.01206 0.52178 0.0
H699 H 0.65968 0.02362 0.56797 0.0
H700 H 0.69134 0.94356 0.49812 0.0
H701 H 0.69399 0.04601 0.46037 0.0
H702 H 0.70322 0.03756 0.49346 0.0
H703 H 0.66904 0.04042 0.48509 0.0
C704 C 0.71706 0.98976 0.55928 0.0
C705 C 0.69756 0.0045 0.57235 0.0
C706 C 0.71437 0.9834 0.53277 0.0
C707 C 0.69218 0.99166 0.51887 0.0
C708 C 0.67248 0.00599 0.53198 0.0
H709 H 0.64435 0.97845 0.35668 0.0
H710 H 0.6442 0.98184 0.40454 0.0
C711 C 0.67521 0.01251 0.55842 0.0
C712 C 0.68959 0.98521 0.49067 0.0
H713 H 0.68289 0.01291 0.42992 0.0
C714 C 0.68955 0.9587 0.48318 0.0
C715 C 0.68732 0.00502 0.47123 0.0
C716 C 0.68864 0.03385 0.47785 0.0
C717 C 0.68696 0.95148 0.45674 0.0
C718 C 0.68455 0.9713 0.4374 0.0
C719 C 0.6845 0.99777 0.44489 0.0
C720 C 0.68308 0.9653 0.40905 0.0
C721 C 0.68652 0.92276 0.44972 0.0
C722 C 0.70478 0.95433 0.39582 0.0
C723 C 0.70498 0.9524 0.36844 0.0
C724 C 0.6835 0.96152 0.35383 0.0
C725 C 0.66121 0.97121 0.3673 0.0
C726 C 0.66109 0.97322 0.39466 0.0
H727 H 0.6822 0.91013 0.46713 0.0
H728 H 0.6716 0.91884 0.43448 0.0
H729 H 0.70608 0.91708 0.44163 0.0
H730 H 0.7221 0.94847 0.40655 0.0
H731 H 0.72247 0.94489 0.35868 0.0
H732 H 0.46831 0.14145 0.36109 0.0
H733 H 0.51196 0.13257 0.34195 0.0
H734 H 0.4983 0.04935 0.35069 0.0
H735 H 0.45507 0.05798 0.37014 0.0
H736 H 0.5479 0.06418 0.36619 0.0
H737 H 0.52525 0.10511 0.26753 0.0
H738 H 0.52045 0.12714 0.29461 0.0
H739 H 0.50002 0.09847 0.29199 0.0
C740 C 0.47468 0.12127 0.35907 0.0
C741 C 0.45813 0.10042 0.36705 0.0
C742 C 0.49955 0.11623 0.34796 0.0
C743 C 0.50822 0.09028 0.3445 0.0
C744 C 0.49199 0.06953 0.35307 0.0
H745 H 0.6184 0.012 0.24584 0.0
H746 H 0.5813 0.03549 0.26546 0.0
C747 C 0.46723 0.07452 0.36418 0.0
C748 C 0.53403 0.08436 0.33182 0.0
H749 H 0.56774 0.08774 0.27331 0.0
C750 C 0.55239 0.06957 0.34597 0.0
C751 C 0.5397 0.0912 0.30534 0.0
C752 C 0.52029 0.10617 0.28882 0.0
C753 C 0.57594 0.06083 0.33423 0.0
C754 C 0.58157 0.06756 0.3077 0.0
C755 C 0.5635 0.08287 0.29371 0.0
C756 C 0.60479 0.05661 0.29351 0.0
C757 C 0.59395 0.04338 0.34995 0.0
C758 C 0.63052 0.06157 0.30195 0.0
C759 C 0.65186 0.04806 0.29079 0.0
C760 C 0.64782 0.02945 0.2709 0.0
C761 C 0.62224 0.02604 0.26122 0.0
C762 C 0.60096 0.03948 0.27242 0.0
H763 H 0.58414 0.03567 0.36806 0.0
H764 H 0.60085 0.02648 0.33803 0.0
H765 H 0.61147 0.05482 0.35589 0.0
H766 H 0.63398 0.07515 0.31782 0.0
H767 H 0.67131 0.05128 0.29863 0.0
H768 H 0.05903 0.52385 0.62694 0.0
H769 H 0.03982 0.4816 0.63928 0.0
H770 H 0.04386 0.50233 0.72115 0.0
H771 H 0.06278 0.54515 0.70889 0.0
H772 H 0.06235 0.44279 0.66999 0.0
H773 H 0.96767 0.47731 0.71404 0.0
H774 H 0.98847 0.4984 0.69406 0.0
H775 H 0.99724 0.49101 0.72733 0.0
C776 C 0.05569 0.51958 0.64759 0.0
C777 C 0.0624 0.53789 0.66694 0.0
C778 C 0.04475 0.49537 0.65461 0.0
C779 C 0.04026 0.48887 0.6811 0.0
C780 C 0.04677 0.50711 0.70056 0.0
H781 H 0.96467 0.33961 0.73079 0.0
H782 H 0.99137 0.3798 0.73376 0.0
C783 C 0.05765 0.53152 0.69352 0.0
C784 C 0.02932 0.46264 0.68789 0.0
H785 H 0.97416 0.43167 0.71164 0.0
C786 C 0.04321 0.44035 0.67941 0.0
C787 C 0.00443 0.45949 0.70035 0.0
C788 C 0.98841 0.48276 0.70935 0.0
C789 C 0.03239 0.41511 0.682 0.0
C790 C 0.00699 0.4121 0.69323 0.0
C791 C 0.99368 0.43414 0.70308 0.0
C792 C 0.99264 0.38686 0.69182 0.0
C793 C 0.04784 0.39188 0.67198 0.0
C794 C 0.98468 0.37763 0.6673 0.0
C795 C 0.96937 0.35499 0.66556 0.0
C796 C 0.96178 0.34101 0.68833 0.0
C797 C 0.97038 0.34987 0.7129 0.0
C798 C 0.98551 0.37282 0.71465 0.0
H799 H 0.06923 0.39633 0.67044 0.0
H800 H 0.04493 0.37452 0.68502 0.0
H801 H 0.04084 0.38668 0.65212 0.0
H802 H 0.98975 0.38838 0.64949 0.0
H803 H 0.9631 0.34867 0.64634 0.0
H804 H 0.61974 0.94816 0.6384 0.0
H805 H 0.57635 0.9319 0.65217 0.0
H806 H 0.5799 0.97874 0.72229 0.0
H807 H 0.62314 0.99543 0.70857 0.0
H808 H 0.55502 0.90671 0.69887 0.0
H809 H 0.51542 0.00704 0.68221 0.0
H810 H 0.54759 0.99716 0.67058 0.0
H811 H 0.54243 0.00536 0.70455 0.0
C812 C 0.61152 0.95469 0.65698 0.0
C813 C 0.62473 0.97343 0.67219 0.0
C814 C 0.58673 0.94532 0.66482 0.0
C815 C 0.57476 0.95451 0.68796 0.0
C816 C 0.58866 0.97176 0.70411 0.0
H817 H 0.41696 0.94948 0.75191 0.0
H818 H 0.46437 0.95376 0.74508 0.0
C819 C 0.61341 0.98121 0.69627 0.0
C820 C 0.54691 0.94792 0.69401 0.0
H821 H 0.48599 0.97553 0.69988 0.0
C822 C 0.53987 0.92169 0.69912 0.0
C823 C 0.52722 0.96752 0.69402 0.0
C824 C 0.5334 0.99582 0.68732 0.0
C825 C 0.51362 0.91466 0.70491 0.0
C826 C 0.49401 0.93435 0.70517 0.0
C827 C 0.50111 0.9605 0.69984 0.0
C828 C 0.46591 0.92863 0.711 0.0
C829 C 0.50715 0.88638 0.71118 0.0
C830 C 0.45105 0.91272 0.6943 0.0
C831 C 0.42381 0.91016 0.69819 0.0
C832 C 0.41101 0.92372 0.71868 0.0
C833 C 0.42615 0.9389 0.73584 0.0
C834 C 0.45328 0.94134 0.73201 0.0
H835 H 0.525 0.875 0.71638 0.0
H836 H 0.49269 0.88497 0.72769 0.0
H837 H 0.49827 0.87714 0.69371 0.0
H838 H 0.46032 0.90313 0.67766 0.0
H839 H 0.41267 0.89841 0.68458 0.0
H840 H 0.04049 0.66899 0.33664 0.0
H841 H 0.06174 0.62616 0.33268 0.0
H842 H 0.00808 0.60513 0.27133 0.0
H843 H 0.987 0.648 0.27482 0.0
H844 H 0.03458 0.58121 0.34357 0.0
H845 H 0.07691 0.57573 0.24297 0.0
H846 H 0.06778 0.60646 0.25808 0.0
H847 H 0.04314 0.58602 0.24341 0.0
C848 C 0.03367 0.65556 0.32177 0.0
C849 C 0.01189 0.66188 0.30619 0.0
C850 C 0.04584 0.63105 0.31957 0.0
C851 C 0.0366 0.61247 0.30164 0.0
C852 C 0.0159 0.61931 0.28496 0.0
H853 H 0.04007 0.44575 0.281 0.0
H854 H 0.03432 0.49331 0.27794 0.0
C855 C 0.00375 0.64384 0.28709 0.0
C856 C 0.04607 0.58493 0.30284 0.0
H857 H 0.07007 0.53461 0.26552 0.0
C858 C 0.04277 0.57113 0.32662 0.0
C859 C 0.05652 0.57177 0.28065 0.0
C860 C 0.06155 0.58583 0.2549 0.0
C861 C 0.04866 0.5443 0.32859 0.0
C862 C 0.05859 0.53098 0.30626 0.0
C863 C 0.06246 0.54488 0.2826 0.0
C864 C 0.06374 0.50234 0.30686 0.0
C865 C 0.04312 0.53019 0.35425 0.0
C866 C 0.0826 0.49167 0.32375 0.0
C867 C 0.08585 0.46445 0.32566 0.0
C868 C 0.0704 0.44743 0.31058 0.0
C869 C 0.05219 0.45827 0.29301 0.0
C870 C 0.04893 0.48546 0.29115 0.0
H871 H 0.03017 0.54183 0.36752 0.0
H872 H 0.03364 0.51087 0.3508 0.0
H873 H 0.06195 0.52664 0.36447 0.0
H874 H 0.09455 0.50439 0.33571 0.0
H875 H 0.10021 0.45677 0.33922 0.0
H876 H 0.33117 0.41959 0.04192 0.0
H877 H 0.32174 0.46622 0.03726 0.0
H878 H 0.25806 0.45906 0.09379 0.0
H879 H 0.26696 0.41198 0.09807 0.0
H880 H 0.24219 0.48384 0.05103 0.0
H881 H 0.33526 0.52941 0.08145 0.0
H882 H 0.34169 0.50503 0.05698 0.0
H883 H 0.32766 0.49538 0.08832 0.0
C884 C 0.31544 0.42795 0.05374 0.0
C885 C 0.29978 0.41201 0.07032 0.0
C886 C 0.3102 0.45474 0.05121 0.0
C887 C 0.28947 0.46631 0.06551 0.0
C888 C 0.27427 0.45061 0.08269 0.0
H889 H 0.27646 0.63484 0.02945 0.0
H890 H 0.27615 0.5951 0.0569 0.0
C891 C 0.2794 0.42371 0.08513 0.0
C892 C 0.2822 0.49408 0.06028 0.0
H893 H 0.30909 0.55487 0.05067 0.0
C894 C 0.25666 0.4995 0.05152 0.0
C895 C 0.30078 0.51475 0.06149 0.0
C896 C 0.32777 0.51087 0.07287 0.0
C897 C 0.2499 0.52448 0.04198 0.0
C898 C 0.26937 0.54436 0.04057 0.0
C899 C 0.29423 0.53954 0.05131 0.0
C900 C 0.26551 0.56899 0.02536 0.0
C901 C 0.22214 0.52909 0.03291 0.0
C902 C 0.2592 0.56761 0.99865 0.0
C903 C 0.25924 0.5902 0.98301 0.0
C904 C 0.26591 0.61469 0.99365 0.0
C905 C 0.27112 0.61629 0.02068 0.0
C906 C 0.27104 0.59359 0.03637 0.0
H907 H 0.20793 0.51668 0.04422 0.0
H908 H 0.21632 0.54999 0.035 0.0
H909 H 0.22069 0.52356 0.01193 0.0
H910 H 0.25553 0.54884 0.98949 0.0
H911 H 0.25518 0.58822 0.96228 0.0
H912 H 0.37561 0.62821 0.99806 0.0
H913 H 0.42129 0.62957 0.01253 0.0
H914 H 0.42841 0.70931 0.98425 0.0
H915 H 0.38263 0.70832 0.9701 0.0
H916 H 0.46702 0.63865 0.98341 0.0
H917 H 0.45338 0.71474 0.05993 0.0
H918 H 0.42607 0.69786 0.0452 0.0
H919 H 0.44211 0.72457 0.02809 0.0
C920 C 0.38687 0.64606 0.99493 0.0
C921 C 0.37544 0.66821 0.98306 0.0
C922 C 0.41295 0.64679 0.00322 0.0
C923 C 0.42804 0.66968 0.99989 0.0
C924 C 0.41689 0.69165 0.98756 0.0
H925 H 0.58819 0.71638 0.02497 0.0
H926 H 0.54153 0.71289 0.01461 0.0
C927 C 0.39078 0.69098 0.97932 0.0
C928 C 0.45563 0.67042 0.00884 0.0
H929 H 0.49758 0.70332 0.04889 0.0
C930 C 0.47369 0.65262 0.99789 0.0
C931 C 0.46419 0.68865 0.02777 0.0
C932 C 0.44539 0.70738 0.04114 0.0
C933 C 0.50034 0.65309 0.00479 0.0
C934 C 0.50895 0.67161 0.02341 0.0
C935 C 0.49084 0.68917 0.03461 0.0
C936 C 0.53693 0.67374 0.03074 0.0
C937 C 0.5192 0.63435 0.99154 0.0
C938 C 0.54962 0.65304 0.04372 0.0
C939 C 0.57633 0.65495 0.04972 0.0
C940 C 0.59072 0.67765 0.04285 0.0
C941 C 0.57772 0.69859 0.03044 0.0
C942 C 0.55105 0.69666 0.02452 0.0
H943 H 0.51054 0.62524 0.97386 0.0
H944 H 0.5377 0.64458 0.98564 0.0
H945 H 0.52431 0.61841 0.00551 0.0
H946 H 0.53889 0.63535 0.04907 0.0
H947 H 0.58576 0.63853 0.05937 0.0
H948 H 0.63482 0.42754 0.87719 0.0
H949 H 0.64298 0.47442 0.88454 0.0
H950 H 0.69874 0.45485 0.94468 0.0
H951 H 0.691 0.40829 0.93734 0.0
H952 H 0.63324 0.4994 0.93147 0.0
H953 H 0.73813 0.51156 0.90359 0.0
H954 H 0.71888 0.48356 0.89364 0.0
H955 H 0.73298 0.48456 0.92588 0.0
C956 C 0.64916 0.43325 0.89165 0.0
C957 C 0.66219 0.41418 0.90674 0.0
C958 C 0.65381 0.46002 0.89581 0.0
C959 C 0.67178 0.46813 0.91487 0.0
C960 C 0.68528 0.44909 0.92943 0.0
H961 H 0.70843 0.59572 0.01301 0.0
H962 H 0.70793 0.55626 0.986 0.0
C963 C 0.68061 0.42243 0.92536 0.0
C964 C 0.67446 0.49626 0.92175 0.0
H965 H 0.71999 0.54423 0.93287 0.0
C966 C 0.65209 0.50944 0.93125 0.0
C967 C 0.69911 0.50926 0.92154 0.0
C968 C 0.72359 0.49658 0.91036 0.0
C969 C 0.65393 0.53467 0.94201 0.0
C970 C 0.67877 0.54727 0.94279 0.0
C971 C 0.70098 0.53453 0.93227 0.0
C972 C 0.68228 0.5726 0.95653 0.0
C973 C 0.6295 0.54697 0.95383 0.0
C974 C 0.66898 0.59526 0.9483 0.0
C975 C 0.6691 0.61785 0.96379 0.0
C976 C 0.6827 0.6182 0.98769 0.0
C977 C 0.69762 0.59609 0.99482 0.0
C978 C 0.69738 0.5735 0.97938 0.0
H979 H 0.6132 0.53256 0.9563 0.0
H980 H 0.63376 0.55562 0.97329 0.0
H981 H 0.62262 0.56296 0.94073 0.0
H982 H 0.65765 0.59514 0.93043 0.0
H983 H 0.65762 0.63463 0.95757 0.0
H984 H 0.3716 0.26433 0.04369 0.0
H985 H 0.41158 0.26613 0.01648 0.0
H986 H 0.38168 0.33408 0.97579 0.0
H987 H 0.34167 0.33266 0.00312 0.0
H988 H 0.42061 0.26585 0.96091 0.0
H989 H 0.45186 0.35945 0.00696 0.0
H990 H 0.42584 0.3392 0.02066 0.0
H991 H 0.41976 0.3597 0.99256 0.0
C992 C 0.37334 0.27949 0.02875 0.0
C993 C 0.35354 0.29852 0.02578 0.0
C994 C 0.39621 0.28047 0.0132 0.0
C995 C 0.39978 0.30052 0.99448 0.0
C996 C 0.37949 0.31873 0.99048 0.0
H997 H 0.54077 0.34616 0.90504 0.0
H998 H 0.49557 0.34278 0.92206 0.0
C999 C 0.35658 0.31778 0.00601 0.0
C1000 C 0.42527 0.30304 0.98016 0.0
H1001 H 0.47957 0.34231 0.97387 0.0
C1002 C 0.43348 0.2826 0.96362 0.0
C1003 C 0.44201 0.32493 0.98379 0.0
C1004 C 0.43462 0.34702 0.0021 0.0
C1005 C 0.45802 0.28347 0.95056 0.0
C1006 C 0.47496 0.30512 0.95459 0.0
C1007 C 0.46653 0.32576 0.97077 0.0
C1008 C 0.50195 0.30635 0.9431 0.0
C1009 C 0.46547 0.26129 0.93241 0.0
C1010 C 0.52059 0.28709 0.94945 0.0
C1011 C 0.5464 0.28894 0.93975 0.0
C1012 C 0.55417 0.31023 0.92368 0.0
C1013 C 0.53544 0.32949 0.91733 0.0
C1014 C 0.5096 0.32759 0.92702 0.0
H1015 H 0.44781 0.25065 0.92542 0.0
H1016 H 0.47687 0.26861 0.91509 0.0
H1017 H 0.47788 0.24703 0.94317 0.0
H1018 H 0.51531 0.27087 0.96234 0.0
H1019 H 0.56034 0.27384 0.94515 0.0
loop_
_geom_bond_atom_site_label_1
_geom_bond_atom_site_label_2
_geom_bond_distance
_geom_bond_site_symmetry_2
_ccdc_geom_bond_type
Mg0 O7 2.141 . S
Mg0 O8 2.048 . S
Mg0 O9 2.048 . S
Mg0 O12 2.141 . S
C1 O2 1.313 . S
C1 O8 1.195 . S
O2 C1 1.313 . S
C3 O4 1.245 . S
C3 O12 1.289 . S
O4 C3 1.245 . S
C5 O6 1.245 . S
C5 O7 1.289 . S
O6 C5 1.245 . S
O7 Mg0 2.141 . S
O7 C5 1.289 . S
O8 Mg0 2.048 . S
O8 C1 1.195 . S
O9 Mg0 2.048 . S
O9 C10 1.195 . S
C10 O9 1.195 . S
C10 O11 1.313 . S
O11 C10 1.313 . S
O12 Mg0 2.141 . S
O12 C3 1.289 . S
Mg13 O20 2.141 . S
Mg13 O21 2.048 . S
Mg13 O22 2.048 . S
Mg13 O25 2.141 . S
C14 O15 1.313 . S
C14 O21 1.195 . S
O15 C14 1.313 . S
C16 O17 1.245 . S
C16 O25 1.289 . S
O17 C16 1.245 . S
C18 O19 1.245 . S
C18 O20 1.289 . S
O19 C18 1.245 . S
O20 Mg13 2.141 . S
O20 C18 1.289 . S
O21 Mg13 2.048 . S
O21 C14 1.195 . S
O22 Mg13 2.048 . S
O22 C23 1.195 . S
C23 O22 1.195 . S
C23 O24 1.313 . S
O24 C23 1.313 . S
O25 Mg13 2.141 . S
O25 C16 1.289 . S
Mg26 O33 2.141 . S
Mg26 O34 2.048 . S
Mg26 O35 2.048 . S
Mg26 O38 2.141 . S
C27 O28 1.313 . S
C27 O34 1.195 . S
O28 C27 1.313 . S
C29 O30 1.245 . S
C29 O38 1.289 . S
O30 C29 1.245 . S
C31 O32 1.245 . S
C31 O33 1.289 . S
O32 C31 1.245 . S
O33 Mg26 2.141 . S
O33 C31 1.289 . S
O34 Mg26 2.048 . S
O34 C27 1.195 . S
O35 Mg26 2.048 . S
O35 C36 1.195 . S
C36 O35 1.195 . S
C36 O37 1.313 . S
O37 C36 1.313 . S
O38 Mg26 2.141 . S
O38 C29 1.289 . S
Mg39 O46 2.141 . S
Mg39 O47 2.048 . S
Mg39 O48 2.048 . S
Mg39 O51 2.141 . S
C40 O41 1.313 1_545 S
C40 O47 1.195 . S
O41 C40 1.313 1_565 S
C42 O43 1.245 . S
C42 O51 1.289 . S
O43 C42 1.245 . S
C44 O45 1.245 1_545 S
C44 O46 1.289 . S
O45 C44 1.245 1_565 S
O46 Mg39 2.141 . S
O46 C44 1.289 . S
O47 Mg39 2.048 . S
O47 C40 1.195 . S
O48 Mg39 2.048 . S
O48 C49 1.195 . S
C49 O48 1.195 . S
C49 O50 1.313 . S
O50 C49 1.313 . S
O51 Mg39 2.141 . S
O51 C42 1.289 . S
Mg52 O59 2.141 . S
Mg52 O60 2.048 . S
Mg52 O61 2.048 . S
Mg52 O64 2.141 . S
C53 O54 1.313 1_455 S
C53 O60 1.195 . S
O54 C53 1.313 1_655 S
C55 O56 1.245 . S
C55 O64 1.289 . S
O56 C55 1.245 . S
C57 O58 1.245 1_455 S
C57 O59 1.289 . S
O58 C57 1.245 1_655 S
O59 Mg52 2.141 . S
O59 C57 1.289 . S
O60 Mg52 2.048 . S
O60 C53 1.195 . S
O61 Mg52 2.048 . S
O61 C62 1.195 . S
C62 O61 1.195 . S
C62 O63 1.313 . S
O63 C62 1.313 . S
O64 Mg52 2.141 . S
O64 C55 1.289 . S
Mg65 O72 2.141 . S
Mg65 O73 2.048 . S
Mg65 O74 2.048 . S
Mg65 O77 2.141 . S
C66 O67 1.313 . S
C66 O73 1.195 . S
O67 C66 1.313 . S
C68 O69 1.245 . S
C68 O77 1.289 . S
O69 C68 1.245 . S
C70 O71 1.245 . S
C70 O72 1.289 . S
O71 C70 1.245 . S
O72 Mg65 2.141 . S
O72 C70 1.289 . S
O73 Mg65 2.048 . S
O73 C66 1.195 . S
O74 Mg65 2.048 . S
O74 C75 1.195 . S
C75 O74 1.195 . S
C75 O76 1.313 . S
O76 C75 1.313 . S
O77 Mg65 2.141 . S
O77 C68 1.289 . S
Mg78 O85 2.141 . S
Mg78 O86 2.048 . S
Mg78 O87 2.048 . S
Mg78 O90 2.141 . S
C79 O80 1.313 1_655 S
C79 O86 1.195 . S
O80 C79 1.313 1_455 S
C81 O82 1.245 . S
C81 O90 1.289 . S
O82 C81 1.245 . S
C83 O84 1.245 1_655 S
C83 O85 1.289 . S
O84 C83 1.245 1_455 S
O85 Mg78 2.141 . S
O85 C83 1.289 . S
O86 Mg78 2.048 . S
O86 C79 1.195 . S
O87 Mg78 2.048 . S
O87 C88 1.195 . S
C88 O87 1.195 . S
C88 O89 1.313 . S
O89 C88 1.313 . S
O90 Mg78 2.141 . S
O90 C81 1.289 . S
Mg91 O98 2.141 . S
Mg91 O99 2.048 . S
Mg91 O100 2.048 . S
Mg91 O103 2.141 . S
C92 O93 1.313 . S
C92 O99 1.195 . S
O93 C92 1.313 . S
C94 O95 1.245 . S
C94 O103 1.289 . S
O95 C94 1.245 . S
C96 O97 1.245 . S
C96 O98 1.289 . S
O97 C96 1.245 . S
O98 Mg91 2.141 . S
O98 C96 1.289 . S
O99 Mg91 2.048 . S
O99 C92 1.195 . S
O100 Mg91 2.048 . S
O100 C101 1.195 . S
C101 O100 1.195 . S
C101 O102 1.313 . S
O102 C101 1.313 . S
O103 Mg91 2.141 . S
O103 C94 1.289 . S
Mg104 O111 2.141 . S
Mg104 O112 2.048 . S
Mg104 O113 2.048 . S
Mg104 O116 2.141 . S
C105 O106 1.313 . S
C105 O112 1.195 . S
O106 C105 1.313 . S
C107 O108 1.245 . S
C107 O116 1.289 . S
O108 C107 1.245 . S
C109 O110 1.245 1_554 S
C109 O111 1.289 . S
O110 C109 1.245 1_556 S
O111 Mg104 2.141 . S
O111 C109 1.289 . S
O112 Mg104 2.048 . S
O112 C105 1.195 . S
O113 Mg104 2.048 . S
O113 C114 1.195 . S
C114 O113 1.195 . S
C114 O115 1.313 . S
O115 C114 1.313 . S
O116 Mg104 2.141 . S
O116 C107 1.289 . S
Mg117 O124 2.141 . S
Mg117 O125 2.048 . S
Mg117 O126 2.048 . S
Mg117 O129 2.141 . S
C118 O119 1.313 . S
C118 O125 1.195 . S
O119 C118 1.313 . S
C120 O121 1.245 . S
C120 O129 1.289 . S
O121 C120 1.245 . S
C122 O123 1.245 . S
C122 O124 1.289 . S
O123 C122 1.245 . S
O124 Mg117 2.141 . S
O124 C122 1.289 . S
O125 Mg117 2.048 . S
O125 C118 1.195 . S
O126 Mg117 2.048 . S
O126 C127 1.195 . S
C127 O126 1.195 . S
C127 O128 1.313 . S
O128 C127 1.313 . S
O129 Mg117 2.141 . S
O129 C120 1.289 . S
Mg130 O137 2.141 . S
Mg130 O138 2.048 . S
Mg130 O139 2.048 . S
Mg130 O142 2.141 . S
C131 O132 1.313 1_554 S
C131 O138 1.195 . S
O132 C131 1.313 1_556 S
C133 O134 1.245 . S
C133 O142 1.289 . S
O134 C133 1.245 . S
C135 O136 1.245 1_554 S
C135 O137 1.289 . S
O136 C135 1.245 1_556 S
O137 Mg130 2.141 . S
O137 C135 1.289 . S
O138 Mg130 2.048 . S
O138 C131 1.195 . S
O139 Mg130 2.048 . S
O139 C140 1.195 . S
C140 O139 1.195 . S
C140 O141 1.313 . S
O141 C140 1.313 . S
O142 Mg130 2.141 . S
O142 C133 1.289 . S
Mg143 O150 2.141 . S
Mg143 O151 2.048 . S
Mg143 O152 2.048 . S
Mg143 O155 2.141 . S
C144 O145 1.313 . S
C144 O151 1.195 . S
O145 C144 1.313 . S
C146 O147 1.214 1_556 S
C146 O155 1.289 . S
O147 C146 1.214 1_554 S
C148 O149 1.245 . S
C148 O150 1.289 . S
O149 C148 1.245 . S
O150 Mg143 2.141 . S
O150 C148 1.289 . S
O151 Mg143 2.048 . S
O151 C144 1.195 . S
O152 Mg143 2.048 . S
O152 C153 1.195 . S
C153 O152 1.195 . S
C153 O154 1.313 . S
O154 C153 1.313 . S
O155 Mg143 2.141 . S
O155 C146 1.289 . S
H156 C164 0.929 . S
H157 C166 0.930 . S
H158 C168 0.930 . S
H159 C171 0.929 . S
H160 C174 0.930 . S
H161 C176 0.960 . S
H162 C176 0.960 . S
H163 C176 0.960 . S
C164 H156 0.929 . S
C164 C165 1.377 . S
C164 C166 1.384 . S
C165 C164 1.377 . S
C165 C171 1.390 . S
C166 H157 0.930 . S
C166 C164 1.384 . S
C166 C167 1.372 . S
C167 C166 1.372 . S
C167 C168 1.400 . S
C167 C172 1.490 . S
C168 H158 0.930 . S
C168 C167 1.400 . S
C168 C171 1.386 . S
H169 C185 0.930 . S
H170 C186 0.931 . S
C171 H159 0.929 . S
C171 C165 1.390 . S
C171 C168 1.386 . S
C172 C167 1.490 . S
C172 C174 1.395 . S
C172 C175 1.403 . S
H173 C179 0.930 . S
C174 H160 0.930 . S
C174 C172 1.395 . S
C174 C177 1.403 . S
C175 C172 1.403 . S
C175 C176 1.524 . S
C175 C179 1.400 . S
C176 H161 0.960 . S
C176 H162 0.960 . S
C176 H163 0.960 . S
C176 C175 1.524 . S
C177 C174 1.403 . S
C177 C178 1.392 . S
C177 C181 1.495 . S
C178 C177 1.392 . S
C178 C179 1.385 . S
C178 C180 1.478 . S
C179 H173 0.930 . S
C179 C175 1.400 . S
C179 C178 1.385 . S
C180 C178 1.478 . S
C180 C182 1.381 . S
C180 C186 1.383 . S
C181 C177 1.495 . S
C181 H187 0.959 . S
C181 H188 0.961 . S
C181 H189 0.960 . S
C182 C180 1.381 . S
C182 C183 1.394 . S
C182 H190 0.930 . S
C183 C182 1.394 . S
C183 C184 1.383 . S
C183 H191 0.929 . S
C184 C183 1.383 . S
C184 C185 1.377 . S
C185 H169 0.930 . S
C185 C184 1.377 . S
C185 C186 1.379 . S
C186 H170 0.931 . S
C186 C180 1.383 . S
C186 C185 1.379 . S
H187 C181 0.959 . S
H188 C181 0.961 . S
H189 C181 0.960 . S
H190 C182 0.930 . S
H191 C183 0.929 . S
H192 C200 0.929 . S
H193 C202 0.930 . S
H194 C204 0.930 . S
H195 C207 0.929 . S
H196 C210 0.930 . S
H197 C212 0.960 . S
H198 C212 0.960 . S
H199 C212 0.960 . S
C200 H192 0.929 . S
C200 C201 1.377 . S
C200 C202 1.384 . S
C201 C200 1.377 . S
C201 C207 1.390 . S
C202 H193 0.930 . S
C202 C200 1.384 . S
C202 C203 1.372 . S
C203 C202 1.372 . S
C203 C204 1.400 . S
C203 C208 1.490 . S
C204 H194 0.930 . S
C204 C203 1.400 . S
C204 C207 1.386 . S
H205 C221 0.930 . S
H206 C222 0.931 . S
C207 H195 0.929 . S
C207 C201 1.390 . S
C207 C204 1.386 . S
C208 C203 1.490 . S
C208 C210 1.395 . S
C208 C211 1.403 . S
H209 C215 0.930 . S
C210 H196 0.930 . S
C210 C208 1.395 . S
C210 C213 1.403 . S
C211 C208 1.403 . S
C211 C212 1.524 . S
C211 C215 1.400 . S
C212 H197 0.960 . S
C212 H198 0.960 . S
C212 H199 0.960 . S
C212 C211 1.524 . S
C213 C210 1.403 . S
C213 C214 1.392 . S
C213 C217 1.495 . S
C214 C213 1.392 . S
C214 C215 1.385 . S
C214 C216 1.478 . S
C215 H209 0.930 . S
C215 C211 1.400 . S
C215 C214 1.385 . S
C216 C214 1.478 . S
C216 C218 1.381 . S
C216 C222 1.383 . S
C217 C213 1.495 . S
C217 H223 0.959 . S
C217 H224 0.961 . S
C217 H225 0.960 . S
C218 C216 1.381 . S
C218 C219 1.394 . S
C218 H226 0.930 . S
C219 C218 1.394 . S
C219 C220 1.383 . S
C219 H227 0.929 . S
C220 C219 1.383 . S
C220 C221 1.377 . S
C221 H205 0.930 . S
C221 C220 1.377 . S
C221 C222 1.379 . S
C222 H206 0.931 . S
C222 C216 1.383 . S
C222 C221 1.379 . S
H223 C217 0.959 . S
H224 C217 0.961 . S
H225 C217 0.960 . S
H226 C218 0.930 . S
H227 C219 0.929 . S
H228 C236 0.929 . S
H229 C238 0.930 . S
H230 C240 0.930 . S
H231 C243 0.929 . S
H232 C246 0.930 . S
H233 C248 0.960 . S
H234 C248 0.960 . S
H235 C248 0.960 . S
C236 H228 0.929 . S
C236 C237 1.377 . S
C236 C238 1.384 . S
C237 C236 1.377 . S
C237 C243 1.390 . S
C238 H229 0.930 . S
C238 C236 1.384 . S
C238 C239 1.372 . S
C239 C238 1.372 . S
C239 C240 1.400 . S
C239 C244 1.490 . S
C240 H230 0.930 . S
C240 C239 1.400 . S
C240 C243 1.386 . S
H241 C257 0.930 . S
H242 C258 0.931 . S
C243 H231 0.929 . S
C243 C237 1.390 . S
C243 C240 1.386 . S
C244 C239 1.490 . S
C244 C246 1.395 . S
C244 C247 1.403 . S
H245 C251 0.930 . S
C246 H232 0.930 . S
C246 C244 1.395 . S
C246 C249 1.403 . S
C247 C244 1.403 . S
C247 C248 1.524 . S
C247 C251 1.400 . S
C248 H233 0.960 . S
C248 H234 0.960 . S
C248 H235 0.960 . S
C248 C247 1.524 . S
C249 C246 1.403 . S
C249 C250 1.392 . S
C249 C253 1.495 . S
C250 C249 1.392 . S
C250 C251 1.385 . S
C250 C252 1.478 . S
C251 H245 0.930 . S
C251 C247 1.400 . S
C251 C250 1.385 . S
C252 C250 1.478 . S
C252 C254 1.381 . S
C252 C258 1.383 . S
C253 C249 1.495 . S
C253 H259 0.959 . S
C253 H260 0.961 . S
C253 H261 0.960 . S
C254 C252 1.381 . S
C254 C255 1.394 . S
C254 H262 0.930 . S
C255 C254 1.394 . S
C255 C256 1.383 . S
C255 H263 0.929 . S
C256 C255 1.383 . S
C256 C257 1.377 . S
C257 H241 0.930 . S
C257 C256 1.377 . S
C257 C258 1.379 . S
C258 H242 0.931 . S
C258 C252 1.383 . S
C258 C257 1.379 . S
H259 C253 0.959 . S
H260 C253 0.961 . S
H261 C253 0.960 . S
H262 C254 0.930 . S
H263 C255 0.929 . S
H264 C272 0.929 . S
H265 C274 0.930 . S
H266 C276 0.930 . S
H267 C279 0.929 . S
H268 C282 0.930 . S
H269 C284 0.960 . S
H270 C284 0.960 . S
H271 C284 0.960 . S
C272 H264 0.929 . S
C272 C273 1.377 . S
C272 C274 1.384 . S
C273 C272 1.377 . S
C273 C279 1.390 . S
C274 H265 0.930 . S
C274 C272 1.384 . S
C274 C275 1.372 . S
C275 C274 1.372 . S
C275 C276 1.400 . S
C275 C280 1.490 . S
C276 H266 0.930 . S
C276 C275 1.400 . S
C276 C279 1.386 . S
H277 C293 0.930 . S
H278 C294 0.931 . S
C279 H267 0.929 . S
C279 C273 1.390 . S
C279 C276 1.386 . S
C280 C275 1.490 . S
C280 C282 1.395 . S
C280 C283 1.403 . S
H281 C287 0.930 . S
C282 H268 0.930 . S
C282 C280 1.395 . S
C282 C285 1.403 . S
C283 C280 1.403 . S
C283 C284 1.524 . S
C283 C287 1.400 . S
C284 H269 0.960 . S
C284 H270 0.960 . S
C284 H271 0.960 . S
C284 C283 1.524 . S
C285 C282 1.403 . S
C285 C286 1.392 . S
C285 C289 1.495 . S
C286 C285 1.392 . S
C286 C287 1.385 . S
C286 C288 1.478 . S
C287 H281 0.930 . S
C287 C283 1.400 . S
C287 C286 1.385 . S
C288 C286 1.478 . S
C288 C290 1.381 . S
C288 C294 1.383 . S
C289 C285 1.495 . S
C289 H295 0.959 . S
C289 H296 0.961 . S
C289 H297 0.960 . S
C290 C288 1.381 . S
C290 C291 1.394 . S
C290 H298 0.930 . S
C291 C290 1.394 . S
C291 C292 1.383 . S
C291 H299 0.929 . S
C292 C291 1.383 . S
C292 C293 1.377 . S
C293 H277 0.930 . S
C293 C292 1.377 . S
C293 C294 1.379 . S
C294 H278 0.931 . S
C294 C288 1.383 . S
C294 C293 1.379 . S
H295 C289 0.959 . S
H296 C289 0.961 . S
H297 C289 0.960 . S
H298 C290 0.930 . S
H299 C291 0.929 . S
H300 C308 0.929 . S
H301 C310 0.930 . S
H302 C312 0.930 . S
H303 C315 0.929 . S
H304 C318 0.930 . S
H305 C320 0.960 . S
H306 C320 0.960 . S
H307 C320 0.960 . S
C308 H300 0.929 . S
C308 C309 1.377 . S
C308 C310 1.384 . S
C309 C308 1.377 . S
C309 C315 1.390 . S
C310 H301 0.930 . S
C310 C308 1.384 . S
C310 C311 1.372 . S
C311 C310 1.372 . S
C311 C312 1.400 . S
C311 C316 1.490 . S
C312 H302 0.930 . S
C312 C311 1.400 . S
C312 C315 1.386 . S
H313 C329 0.930 . S
H314 C330 0.931 . S
C315 H303 0.929 . S
C315 C309 1.390 . S
C315 C312 1.386 . S
C316 C311 1.490 . S
C316 C318 1.395 . S
C316 C319 1.403 . S
H317 C323 0.930 . S
C318 H304 0.930 . S
C318 C316 1.395 . S
C318 C321 1.403 . S
C319 C316 1.403 . S
C319 C320 1.524 . S
C319 C323 1.400 . S
C320 H305 0.960 . S
C320 H306 0.960 . S
C320 H307 0.960 . S
C320 C319 1.524 . S
C321 C318 1.403 . S
C321 C322 1.392 . S
C321 C325 1.495 . S
C322 C321 1.392 . S
C322 C323 1.385 . S
C322 C324 1.478 . S
C323 H317 0.930 . S
C323 C319 1.400 . S
C323 C322 1.385 . S
C324 C322 1.478 . S
C324 C326 1.381 . S
C324 C330 1.383 . S
C325 C321 1.495 . S
C325 H331 0.959 . S
C325 H332 0.961 . S
C325 H333 0.960 . S
C326 C324 1.381 . S
C326 C327 1.394 . S
C326 H334 0.930 . S
C327 C326 1.394 . S
C327 C328 1.383 . S
C327 H335 0.929 . S
C328 C327 1.383 . S
C328 C329 1.377 . S
C329 H313 0.930 . S
C329 C328 1.377 . S
C329 C330 1.379 . S
C330 H314 0.931 . S
C330 C324 1.383 . S
C330 C329 1.379 . S
H331 C325 0.959 . S
H332 C325 0.961 . S
H333 C325 0.960 . S
H334 C326 0.930 . S
H335 C327 0.929 . S
H336 C344 0.929 . S
H337 C346 0.930 . S
H338 C348 0.930 . S
H339 C351 0.929 . S
H340 C354 0.930 . S
H341 C356 0.960 . S
H342 C356 0.960 . S
H343 C356 0.960 . S
C344 H336 0.929 . S
C344 C345 1.377 . S
C344 C346 1.384 . S
C345 C344 1.377 . S
C345 C351 1.390 . S
C346 H337 0.930 . S
C346 C344 1.384 . S
C346 C347 1.372 . S
C347 C346 1.372 . S
C347 C348 1.400 . S
C347 C352 1.490 . S
C348 H338 0.930 . S
C348 C347 1.400 . S
C348 C351 1.386 . S
H349 C365 0.930 . S
H350 C366 0.931 . S
C351 H339 0.929 . S
C351 C345 1.390 . S
C351 C348 1.386 . S
C352 C347 1.490 . S
C352 C354 1.395 . S
C352 C355 1.403 . S
H353 C359 0.930 . S
C354 H340 0.930 . S
C354 C352 1.395 . S
C354 C357 1.403 . S
C355 C352 1.403 . S
C355 C356 1.524 . S
C355 C359 1.400 . S
C356 H341 0.960 . S
C356 H342 0.960 . S
C356 H343 0.960 . S
C356 C355 1.524 . S
C357 C354 1.403 . S
C357 C358 1.392 . S
C357 C361 1.495 . S
C358 C357 1.392 . S
C358 C359 1.385 . S
C358 C360 1.478 . S
C359 H353 0.930 . S
C359 C355 1.400 . S
C359 C358 1.385 . S
C360 C358 1.478 . S
C360 C362 1.381 . S
C360 C366 1.383 . S
C361 C357 1.495 . S
C361 H367 0.959 . S
C361 H368 0.961 . S
C361 H369 0.960 . S
C362 C360 1.381 . S
C362 C363 1.394 . S
C362 H370 0.930 . S
C363 C362 1.394 . S
C363 C364 1.383 . S
C363 H371 0.929 . S
C364 C363 1.383 . S
C364 C365 1.377 . S
C365 H349 0.930 . S
C365 C364 1.377 . S
C365 C366 1.379 . S
C366 H350 0.931 . S
C366 C360 1.383 . S
C366 C365 1.379 . S
H367 C361 0.959 . S
H368 C361 0.961 . S
H369 C361 0.960 . S
H370 C362 0.930 . S
H371 C363 0.929 . S
H372 C380 0.929 . S
H373 C382 0.930 . S
H374 C384 0.930 . S
H375 C387 0.929 . S
H376 C390 0.930 . S
H377 C392 0.960 . S
H378 C392 0.960 . S
H379 C392 0.960 . S
C380 H372 0.929 . S
C380 C381 1.377 . S
C380 C382 1.384 . S
C381 C380 1.377 . S
C381 C387 1.390 . S
C382 H373 0.930 . S
C382 C380 1.384 . S
C382 C383 1.372 . S
C383 C382 1.372 . S
C383 C384 1.400 . S
C383 C388 1.490 . S
C384 H374 0.930 . S
C384 C383 1.400 . S
C384 C387 1.386 . S
H385 C401 0.930 . S
H386 C402 0.931 . S
C387 H375 0.929 . S
C387 C381 1.390 . S
C387 C384 1.386 . S
C388 C383 1.490 . S
C388 C390 1.395 . S
C388 C391 1.403 . S
H389 C395 0.930 . S
C390 H376 0.930 . S
C390 C388 1.395 . S
C390 C393 1.403 . S
C391 C388 1.403 . S
C391 C392 1.524 . S
C391 C395 1.400 . S
C392 H377 0.960 . S
C392 H378 0.960 . S
C392 H379 0.960 . S
C392 C391 1.524 . S
C393 C390 1.403 . S
C393 C394 1.392 . S
C393 C397 1.495 . S
C394 C393 1.392 . S
C394 C395 1.385 . S
C394 C396 1.478 . S
C395 H389 0.930 . S
C395 C391 1.400 . S
C395 C394 1.385 . S
C396 C394 1.478 . S
C396 C398 1.381 . S
C396 C402 1.383 . S
C397 C393 1.495 . S
C397 H403 0.959 . S
C397 H404 0.961 . S
C397 H405 0.960 . S
C398 C396 1.381 . S
C398 C399 1.394 . S
C398 H406 0.930 . S
C399 C398 1.394 . S
C399 C400 1.383 . S
C399 H407 0.929 . S
C400 C399 1.383 . S
C400 C401 1.377 . S
C401 H385 0.930 . S
C401 C400 1.377 . S
C401 C402 1.379 . S
C402 H386 0.931 . S
C402 C396 1.383 . S
C402 C401 1.379 . S
H403 C397 0.959 . S
H404 C397 0.961 . S
H405 C397 0.960 . S
H406 C398 0.930 . S
H407 C399 0.929 . S
H408 C416 0.929 . S
H409 C418 0.930 . S
H410 C420 0.930 . S
H411 C423 0.929 . S
H412 C426 0.930 . S
H413 C428 0.960 . S
H414 C428 0.960 . S
H415 C428 0.960 . S
C416 H408 0.929 . S
C416 C417 1.377 . S
C416 C418 1.384 . S
C417 C416 1.377 . S
C417 C423 1.390 . S
C418 H409 0.930 . S
C418 C416 1.384 . S
C418 C419 1.372 . S
C419 C418 1.372 . S
C419 C420 1.400 . S
C419 C424 1.490 . S
C420 H410 0.930 . S
C420 C419 1.400 . S
C420 C423 1.386 . S
H421 C437 0.930 . S
H422 C438 0.931 . S
C423 H411 0.929 . S
C423 C417 1.390 . S
C423 C420 1.386 . S
C424 C419 1.490 . S
C424 C426 1.395 . S
C424 C427 1.403 . S
H425 C431 0.930 . S
C426 H412 0.930 . S
C426 C424 1.395 . S
C426 C429 1.403 . S
C427 C424 1.403 . S
C427 C428 1.524 . S
C427 C431 1.400 . S
C428 H413 0.960 . S
C428 H414 0.960 . S
C428 H415 0.960 . S
C428 C427 1.524 . S
C429 C426 1.403 . S
C429 C430 1.392 . S
C429 C433 1.495 . S
C430 C429 1.392 . S
C430 C431 1.385 . S
C430 C432 1.478 . S
C431 H425 0.930 . S
C431 C427 1.400 . S
C431 C430 1.385 . S
C432 C430 1.478 . S
C432 C434 1.381 . S
C432 C438 1.383 . S
C433 C429 1.495 . S
C433 H439 0.959 . S
C433 H440 0.961 . S
C433 H441 0.960 . S
C434 C432 1.381 . S
C434 C435 1.394 . S
C434 H442 0.930 . S
C435 C434 1.394 . S
C435 C436 1.383 . S
C435 H443 0.929 . S
C436 C435 1.383 . S
C436 C437 1.377 . S
C437 H421 0.930 . S
C437 C436 1.377 . S
C437 C438 1.379 . S
C438 H422 0.931 . S
C438 C432 1.383 . S
C438 C437 1.379 . S
H439 C433 0.959 . S
H440 C433 0.961 . S
H441 C433 0.960 . S
H442 C434 0.930 . S
H443 C435 0.929 . S
H444 C452 0.929 . S
H445 C454 0.930 . S
H446 C456 0.930 . S
H447 C459 0.929 . S
H448 C462 0.930 . S
H449 C464 0.960 . S
H450 C464 0.960 . S
H451 C464 0.960 . S
C452 H444 0.929 . S
C452 C453 1.377 . S
C452 C454 1.384 . S
C453 C452 1.377 . S
C453 C459 1.390 . S
C454 H445 0.930 . S
C454 C452 1.384 . S
C454 C455 1.372 . S
C455 C454 1.372 . S
C455 C456 1.400 . S
C455 C460 1.490 . S
C456 H446 0.930 . S
C456 C455 1.400 . S
C456 C459 1.386 . S
H457 C473 0.930 . S
H458 C474 0.931 . S
C459 H447 0.929 . S
C459 C453 1.390 . S
C459 C456 1.386 . S
C460 C455 1.490 . S
C460 C462 1.395 . S
C460 C463 1.403 . S
H461 C467 0.930 . S
C462 H448 0.930 . S
C462 C460 1.395 . S
C462 C465 1.403 . S
C463 C460 1.403 . S
C463 C464 1.524 . S
C463 C467 1.400 . S
C464 H449 0.960 . S
C464 H450 0.960 . S
C464 H451 0.960 . S
C464 C463 1.524 . S
C465 C462 1.403 . S
C465 C466 1.392 . S
C465 C469 1.495 . S
C466 C465 1.392 . S
C466 C467 1.385 . S
C466 C468 1.478 . S
C467 H461 0.930 . S
C467 C463 1.400 . S
C467 C466 1.385 . S
C468 C466 1.478 . S
C468 C470 1.381 . S
C468 C474 1.383 . S
C469 C465 1.495 . S
C469 H475 0.959 . S
C469 H476 0.961 . S
C469 H477 0.960 . S
C470 C468 1.381 . S
C470 C471 1.394 . S
C470 H478 0.930 . S
C471 C470 1.394 . S
C471 C472 1.383 . S
C471 H479 0.929 . S
C472 C471 1.383 . S
C472 C473 1.377 . S
C473 H457 0.930 . S
C473 C472 1.377 . S
C473 C474 1.379 . S
C474 H458 0.931 . S
C474 C468 1.383 . S
C474 C473 1.379 . S
H475 C469 0.959 . S
H476 C469 0.961 . S
H477 C469 0.960 . S
H478 C470 0.930 . S
H479 C471 0.929 . S
H480 C488 0.929 . S
H481 C490 0.930 . S
H482 C492 0.930 . S
H483 C495 0.929 . S
H484 C498 0.930 . S
H485 C500 0.960 . S
H486 C500 0.960 . S
H487 C500 0.960 . S
C488 H480 0.929 . S
C488 C489 1.377 . S
C488 C490 1.384 . S
C489 C488 1.377 . S
C489 C495 1.390 . S
C490 H481 0.930 . S
C490 C488 1.384 . S
C490 C491 1.372 . S
C491 C490 1.372 . S
C491 C492 1.400 . S
C491 C496 1.490 . S
C492 H482 0.930 . S
C492 C491 1.400 . S
C492 C495 1.386 . S
H493 C509 0.930 . S
H494 C510 0.931 . S
C495 H483 0.929 . S
C495 C489 1.390 . S
C495 C492 1.386 . S
C496 C491 1.490 . S
C496 C498 1.395 . S
C496 C499 1.403 . S
H497 C503 0.930 . S
C498 H484 0.930 . S
C498 C496 1.395 . S
C498 C501 1.403 . S
C499 C496 1.403 . S
C499 C500 1.524 . S
C499 C503 1.400 . S
C500 H485 0.960 . S
C500 H486 0.960 . S
C500 H487 0.960 . S
C500 C499 1.524 . S
C501 C498 1.403 . S
C501 C502 1.392 . S
C501 C505 1.495 . S
C502 C501 1.392 . S
C502 C503 1.385 . S
C502 C504 1.478 . S
C503 H497 0.930 . S
C503 C499 1.400 . S
C503 C502 1.385 . S
C504 C502 1.478 . S
C504 C506 1.381 . S
C504 C510 1.383 . S
C505 C501 1.495 . S
C505 H511 0.959 . S
C505 H512 0.961 . S
C505 H513 0.960 . S
C506 C504 1.381 . S
C506 C507 1.394 . S
C506 H514 0.930 . S
C507 C506 1.394 . S
C507 C508 1.383 . S
C507 H515 0.929 . S
C508 C507 1.383 . S
C508 C509 1.377 . S
C509 H493 0.930 . S
C509 C508 1.377 . S
C509 C510 1.379 . S
C510 H494 0.931 . S
C510 C504 1.383 . S
C510 C509 1.379 . S
H511 C505 0.959 . S
H512 C505 0.961 . S
H513 C505 0.960 . S
H514 C506 0.930 . S
H515 C507 0.929 . S
H516 C524 0.929 . S
H517 C526 0.930 . S
H518 C528 0.930 . S
H519 C531 0.929 . S
H520 C534 0.930 . S
H521 C536 0.960 . S
H522 C536 0.960 . S
H523 C536 0.960 . S
C524 H516 0.929 . S
C524 C525 1.377 . S
C524 C526 1.384 . S
C525 C524 1.377 . S
C525 C531 1.390 . S
C526 H517 0.930 . S
C526 C524 1.384 . S
C526 C527 1.372 . S
C527 C526 1.372 . S
C527 C528 1.400 . S
C527 C532 1.490 . S
C528 H518 0.930 . S
C528 C527 1.400 . S
C528 C531 1.386 . S
H529 C545 0.930 . S
H530 C546 0.931 . S
C531 H519 0.929 . S
C531 C525 1.390 . S
C531 C528 1.386 . S
C532 C527 1.490 . S
C532 C534 1.395 . S
C532 C535 1.403 . S
H533 C539 0.930 . S
C534 H520 0.930 . S
C534 C532 1.395 . S
C534 C537 1.403 . S
C535 C532 1.403 . S
C535 C536 1.524 . S
C535 C539 1.400 . S
C536 H521 0.960 . S
C536 H522 0.960 . S
C536 H523 0.960 . S
C536 C535 1.524 . S
C537 C534 1.403 . S
C537 C538 1.392 . S
C537 C541 1.495 . S
C538 C537 1.392 . S
C538 C539 1.385 . S
C538 C540 1.478 . S
C539 H533 0.930 . S
C539 C535 1.400 . S
C539 C538 1.385 . S
C540 C538 1.478 . S
C540 C542 1.381 . S
C540 C546 1.383 . S
C541 C537 1.495 . S
C541 H547 0.959 . S
C541 H548 0.961 . S
C541 H549 0.960 . S
C542 C540 1.381 . S
C542 C543 1.394 . S
C542 H550 0.930 . S
C543 C542 1.394 . S
C543 C544 1.383 . S
C543 H551 0.929 . S
C544 C543 1.383 . S
C544 C545 1.377 . S
C545 H529 0.930 . S
C545 C544 1.377 . S
C545 C546 1.379 . S
C546 H530 0.931 . S
C546 C540 1.383 . S
C546 C545 1.379 . S
H547 C541 0.959 . S
H548 C541 0.961 . S
H549 C541 0.960 . S
H550 C542 0.930 . S
H551 C543 0.929 . S
H552 C560 0.929 . S
H553 C562 0.930 . S
H554 C564 0.930 . S
H555 C567 0.929 . S
H556 C570 0.930 . S
H557 C572 0.960 . S
H558 C572 0.960 . S
H559 C572 0.960 . S
C560 H552 0.929 . S
C560 C561 1.377 . S
C560 C562 1.384 . S
C561 C560 1.377 . S
C561 C567 1.390 . S
C562 H553 0.930 . S
C562 C560 1.384 . S
C562 C563 1.372 . S
C563 C562 1.372 . S
C563 C564 1.400 . S
C563 C568 1.490 . S
C564 H554 0.930 . S
C564 C563 1.400 . S
C564 C567 1.386 . S
H565 C581 0.930 . S
H566 C582 0.931 . S
C567 H555 0.929 . S
C567 C561 1.390 . S
C567 C564 1.386 . S
C568 C563 1.490 . S
C568 C570 1.395 . S
C568 C571 1.403 . S
H569 C575 0.930 . S
C570 H556 0.930 . S
C570 C568 1.395 . S
C570 C573 1.403 . S
C571 C568 1.403 . S
C571 C572 1.524 . S
C571 C575 1.400 . S
C572 H557 0.960 . S
C572 H558 0.960 . S
C572 H559 0.960 . S
C572 C571 1.524 . S
C573 C570 1.403 . S
C573 C574 1.392 . S
C573 C577 1.495 . S
C574 C573 1.392 . S
C574 C575 1.385 . S
C574 C576 1.478 . S
C575 H569 0.930 . S
C575 C571 1.400 . S
C575 C574 1.385 . S
C576 C574 1.478 . S
C576 C578 1.381 . S
C576 C582 1.383 . S
C577 C573 1.495 . S
C577 H583 0.959 . S
C577 H584 0.961 . S
C577 H585 0.960 . S
C578 C576 1.381 . S
C578 C579 1.394 . S
C578 H586 0.930 . S
C579 C578 1.394 . S
C579 C580 1.383 . S
C579 H587 0.929 . S
C580 C579 1.383 . S
C580 C581 1.377 . S
C581 H565 0.930 . S
C581 C580 1.377 . S
C581 C582 1.379 . S
C582 H566 0.931 . S
C582 C576 1.383 . S
C582 C581 1.379 . S
H583 C577 0.959 . S
H584 C577 0.961 . S
H585 C577 0.960 . S
H586 C578 0.930 . S
H587 C579 0.929 . S
H588 C596 0.929 . S
H589 C598 0.930 . S
H590 C600 0.930 . S
H591 C603 0.929 . S
H592 C606 0.930 . S
H593 C608 0.960 . S
H594 C608 0.960 . S
H595 C608 0.960 . S
C596 H588 0.929 . S
C596 C597 1.377 . S
C596 C598 1.384 . S
C597 C596 1.377 . S
C597 C603 1.390 1_655 S
C598 H589 0.930 . S
C598 C596 1.384 . S
C598 C599 1.388 . S
C599 C598 1.388 . S
C599 C600 1.385 1_655 S
C599 C604 1.489 1_655 S
C600 H590 0.930 . S
C600 C599 1.385 1_455 S
C600 C603 1.386 . S
H601 C617 0.930 . S
H602 C618 0.931 . S
C603 H591 0.929 . S
C603 C597 1.390 1_455 S
C603 C600 1.386 . S
C604 C599 1.489 1_455 S
C604 C606 1.395 1_455 S
C604 C607 1.403 . S
H605 C611 0.930 . S
C606 H592 0.930 . S
C606 C604 1.395 1_655 S
C606 C609 1.403 . S
C607 C604 1.403 . S
C607 C608 1.524 . S
C607 C611 1.400 . S
C608 H593 0.960 . S
C608 H594 0.960 . S
C608 H595 0.960 . S
C608 C607 1.524 . S
C609 C606 1.403 . S
C609 C610 1.392 1_655 S
C609 C613 1.495 . S
C610 C609 1.392 1_455 S
C610 C611 1.385 . S
C610 C612 1.478 . S
C611 H605 0.930 . S
C611 C607 1.400 . S
C611 C610 1.385 . S
C612 C610 1.478 . S
C612 C614 1.381 1_455 S
C612 C618 1.383 . S
C613 C609 1.495 . S
C613 H619 0.959 . S
C613 H620 0.961 . S
C613 H621 0.960 . S
C614 C612 1.381 1_655 S
C614 C615 1.394 . S
C614 H622 0.930 . S
C615 C614 1.394 . S
C615 C616 1.383 1_655 S
C615 H623 0.929 . S
C616 C615 1.383 1_455 S
C616 C617 1.377 . S
C617 H601 0.930 . S
C617 C616 1.377 . S
C617 C618 1.379 . S
C618 H602 0.931 . S
C618 C612 1.383 . S
C618 C617 1.379 . S
H619 C613 0.959 . S
H620 C613 0.961 . S
H621 C613 0.960 . S
H622 C614 0.930 . S
H623 C615 0.929 . S
H624 C632 0.929 . S
H625 C634 0.930 . S
H626 C636 0.930 . S
H627 C639 0.929 . S
H628 C642 0.930 . S
H629 C644 0.960 . S
H630 C644 0.960 . S
H631 C644 0.960 . S
C632 H624 0.929 . S
C632 C633 1.377 . S
C632 C634 1.384 . S
C633 C632 1.377 . S
C633 C639 1.390 1_545 S
C634 H625 0.930 . S
C634 C632 1.384 . S
C634 C635 1.372 . S
C635 C634 1.372 . S
C635 C636 1.400 1_545 S
C635 C640 1.490 . S
C636 H626 0.930 . S
C636 C635 1.400 1_565 S
C636 C639 1.386 . S
H637 C653 0.930 . S
H638 C654 0.931 . S
C639 H627 0.929 . S
C639 C633 1.390 1_565 S
C639 C636 1.386 . S
C640 C635 1.490 . S
C640 C642 1.395 . S
C640 C643 1.403 1_545 S
H641 C647 0.930 . S
C642 H628 0.930 . S
C642 C640 1.395 . S
C642 C645 1.403 . S
C643 C640 1.403 1_565 S
C643 C644 1.524 . S
C643 C647 1.400 . S
C644 H629 0.960 . S
C644 H630 0.960 . S
C644 H631 0.960 . S
C644 C643 1.524 . S
C645 C642 1.403 . S
C645 C646 1.392 . S
C645 C649 1.495 . S
C646 C645 1.392 . S
C646 C647 1.385 1_545 S
C646 C648 1.478 1_545 S
C647 H641 0.930 . S
C647 C643 1.400 . S
C647 C646 1.385 1_565 S
C648 C646 1.478 1_565 S
C648 C650 1.381 1_565 S
C648 C654 1.383 . S
C649 C645 1.495 . S
C649 H655 0.959 . S
C649 H656 0.961 . S
C649 H657 0.960 . S
C650 C648 1.381 1_545 S
C650 C651 1.394 . S
C650 H658 0.930 . S
C651 C650 1.394 . S
C651 C652 1.383 1_545 S
C651 H659 0.929 . S
C652 C651 1.383 1_565 S
C652 C653 1.377 . S
C653 H637 0.930 . S
C653 C652 1.377 . S
C653 C654 1.379 . S
C654 H638 0.931 . S
C654 C648 1.383 . S
C654 C653 1.379 . S
H655 C649 0.959 . S
H656 C649 0.961 . S
H657 C649 0.960 . S
H658 C650 0.930 . S
H659 C651 0.929 . S
H660 C668 0.929 . S
H661 C670 0.930 . S
H662 C672 0.930 . S
H663 C675 0.929 . S
H664 C678 0.930 . S
H665 C680 0.960 . S
H666 C680 0.960 . S
H667 C680 0.960 . S
C668 H660 0.929 . S
C668 C669 1.344 1_455 S
C668 C670 1.384 . S
C669 C668 1.344 1_655 S
C669 C675 1.428 . S
C670 H661 0.930 . S
C670 C668 1.384 . S
C670 C671 1.372 1_455 S
C671 C670 1.372 1_655 S
C671 C672 1.400 . S
C671 C676 1.490 . S
C672 H662 0.930 . S
C672 C671 1.400 . S
C672 C675 1.386 . S
H673 C689 0.930 . S
H674 C690 0.931 . S
C675 H663 0.929 . S
C675 C669 1.428 . S
C675 C672 1.386 . S
C676 C671 1.490 . S
C676 C678 1.395 1_655 S
C676 C679 1.403 . S
H677 C683 0.930 . S
C678 H664 0.930 . S
C678 C676 1.395 1_455 S
C678 C681 1.403 . S
C679 C676 1.403 . S
C679 C680 1.524 . S
C679 C683 1.400 . S
C680 H665 0.960 . S
C680 H666 0.960 . S
C680 H667 0.960 . S
C680 C679 1.524 . S
C681 C678 1.403 . S
C681 C682 1.392 1_455 S
C681 C685 1.495 . S
C682 C681 1.392 1_655 S
C682 C683 1.385 . S
C682 C684 1.478 . S
C683 H677 0.930 . S
C683 C679 1.400 . S
C683 C682 1.385 . S
C684 C682 1.478 . S
C684 C686 1.381 1_655 S
C684 C690 1.383 . S
C685 C681 1.495 . S
C685 H691 0.959 . S
C685 H692 0.961 . S
C685 H693 0.960 . S
C686 C684 1.381 1_455 S
C686 C687 1.394 . S
C686 H694 0.930 . S
C687 C686 1.394 . S
C687 C688 1.383 1_455 S
C687 H695 0.929 . S
C688 C687 1.383 1_655 S
C688 C689 1.377 . S
C689 H673 0.930 . S
C689 C688 1.377 . S
C689 C690 1.379 . S
C690 H674 0.931 . S
C690 C684 1.383 . S
C690 C689 1.379 . S
H691 C685 0.959 . S
H692 C685 0.961 . S
H693 C685 0.960 . S
H694 C686 0.930 . S
H695 C687 0.929 . S
H696 C704 0.929 . S
H697 C706 0.930 . S
H698 C708 0.930 . S
H699 C711 0.929 . S
H700 C714 0.930 . S
H701 C716 0.960 . S
H702 C716 0.960 . S
H703 C716 0.960 . S
C704 H696 0.929 . S
C704 C705 1.379 . S
C704 C706 1.384 . S
C705 C704 1.379 . S
C705 C711 1.388 1_545 S
C706 H697 0.930 . S
C706 C704 1.384 . S
C706 C707 1.372 1_545 S
C707 C706 1.372 1_565 S
C707 C708 1.400 . S
C707 C712 1.490 . S
C708 H698 0.930 . S
C708 C707 1.400 . S
C708 C711 1.387 . S
H709 C725 0.930 . S
H710 C726 0.931 . S
C711 H699 0.929 . S
C711 C705 1.388 1_565 S
C711 C708 1.387 . S
C712 C707 1.490 . S
C712 C714 1.395 . S
C712 C715 1.403 1_565 S
H713 C719 0.930 . S
C714 H700 0.930 . S
C714 C712 1.395 . S
C714 C717 1.403 . S
C715 C712 1.403 1_545 S
C715 C716 1.524 . S
C715 C719 1.400 . S
C716 H701 0.960 . S
C716 H702 0.960 . S
C716 H703 0.960 . S
C716 C715 1.524 . S
C717 C714 1.403 . S
C717 C718 1.392 . S
C717 C721 1.495 . S
C718 C717 1.392 . S
C718 C719 1.385 1_565 S
C718 C720 1.478 . S
C719 H713 0.930 . S
C719 C715 1.400 . S
C719 C718 1.385 1_545 S
C720 C718 1.478 . S
C720 C722 1.381 . S
C720 C726 1.383 . S
C721 C717 1.495 . S
C721 H727 0.959 . S
C721 H728 0.961 . S
C721 H729 0.960 . S
C722 C720 1.381 . S
C722 C723 1.394 . S
C722 H730 0.930 . S
C723 C722 1.394 . S
C723 C724 1.383 . S
C723 H731 0.929 . S
C724 C723 1.383 . S
C724 C725 1.377 . S
C725 H709 0.930 . S
C725 C724 1.377 . S
C725 C726 1.379 . S
C726 H710 0.931 . S
C726 C720 1.383 . S
C726 C725 1.379 . S
H727 C721 0.959 . S
H728 C721 0.961 . S
H729 C721 0.960 . S
H730 C722 0.930 . S
H731 C723 0.929 . S
H732 C740 0.929 . S
H733 C742 0.930 . S
H734 C744 0.930 . S
H735 C747 0.929 1_565 S
H736 C750 0.930 . S
H737 C752 0.960 . S
H738 C752 0.960 . S
H739 C752 0.980 . S
C740 H732 0.929 . S
C740 C741 1.377 . S
C740 C742 1.384 . S
C741 C740 1.377 . S
C741 C747 1.390 . S
C742 H733 0.930 . S
C742 C740 1.384 . S
C742 C743 1.372 . S
C743 C742 1.372 . S
C743 C744 1.400 1_545 S
C743 C748 1.490 . S
C744 H734 0.930 . S
C744 C743 1.400 1_565 S
C744 C747 1.386 1_565 S
H745 C761 0.930 . S
H746 C762 0.931 . S
C747 H735 0.929 1_545 S
C747 C741 1.390 . S
C747 C744 1.386 1_545 S
C748 C743 1.490 . S
C748 C750 1.395 . S
C748 C751 1.403 . S
H749 C755 0.930 . S
C750 H736 0.930 . S
C750 C748 1.395 . S
C750 C753 1.403 . S
C751 C748 1.403 . S
C751 C752 1.524 . S
C751 C755 1.400 . S
C752 H737 0.960 . S
C752 H738 0.960 . S
C752 H739 0.980 . S
C752 C751 1.524 . S
C753 C750 1.403 . S
C753 C754 1.392 . S
C753 C757 1.495 . S
C754 C753 1.392 . S
C754 C755 1.385 . S
C754 C756 1.478 . S
C755 H749 0.930 . S
C755 C751 1.400 . S
C755 C754 1.385 . S
C756 C754 1.478 . S
C756 C758 1.381 . S
C756 C762 1.383 1_545 S
C757 C753 1.495 . S
C757 H763 0.959 . S
C757 H764 0.961 1_545 S
C757 H765 0.960 . S
C758 C756 1.381 . S
C758 C759 1.394 . S
C758 H766 0.930 . S
C759 C758 1.394 . S
C759 C760 1.383 1_545 S
C759 H767 0.929 . S
C760 C759 1.383 1_565 S
C760 C761 1.377 . S
C761 H745 0.930 . S
C761 C760 1.377 . S
C761 C762 1.379 . S
C762 H746 0.931 . S
C762 C756 1.383 1_565 S
C762 C761 1.379 . S
H763 C757 0.959 . S
H764 C757 0.961 1_565 S
H765 C757 0.960 . S
H766 C758 0.930 . S
H767 C759 0.929 . S
H768 C776 0.929 . S
H769 C778 0.930 . S
H770 C780 0.930 . S
H771 C783 0.929 . S
H772 C786 0.930 . S
H773 C788 0.960 . S
H774 C788 0.960 1_655 S
H775 C788 0.960 . S
C776 H768 0.929 . S
C776 C777 1.377 1_655 S
C776 C778 1.384 . S
C777 C776 1.377 1_455 S
C777 C783 1.390 . S
C778 H769 0.930 . S
C778 C776 1.384 . S
C778 C779 1.404 . S
C779 C778 1.404 . S
C779 C780 1.365 1_655 S
C779 C784 1.493 . S
C780 H770 0.930 . S
C780 C779 1.365 1_455 S
C780 C783 1.386 . S
H781 C797 0.930 . S
H782 C798 0.931 . S
C783 H771 0.929 . S
C783 C777 1.390 . S
C783 C780 1.386 . S
C784 C779 1.493 . S
C784 C786 1.395 . S
C784 C787 1.403 1_655 S
H785 C791 0.932 . S
C786 H772 0.930 . S
C786 C784 1.395 . S
C786 C789 1.403 . S
C787 C784 1.403 1_455 S
C787 C788 1.524 . S
C787 C791 1.401 . S
C788 H773 0.960 . S
C788 H774 0.960 1_455 S
C788 H775 0.960 . S
C788 C787 1.524 . S
C789 C786 1.403 . S
C789 C790 1.392 . S
C789 C793 1.495 . S
C790 C789 1.392 . S
C790 C791 1.382 1_655 S
C790 C792 1.478 . S
C791 H785 0.932 . S
C791 C787 1.401 . S
C791 C790 1.382 1_455 S
C792 C790 1.478 . S
C792 C794 1.381 . S
C792 C798 1.383 1_655 S
C793 C789 1.495 . S
C793 H799 0.959 . S
C793 H800 0.961 . S
C793 H801 0.960 . S
C794 C792 1.381 . S
C794 C795 1.394 . S
C794 H802 0.930 . S
C795 C794 1.394 . S
C795 C796 1.383 . S
C795 H803 0.929 . S
C796 C795 1.383 . S
C796 C797 1.377 1_655 S
C797 H781 0.930 . S
C797 C796 1.377 1_455 S
C797 C798 1.379 . S
C798 H782 0.931 . S
C798 C792 1.383 1_455 S
C798 C797 1.379 . S
H799 C793 0.959 . S
H800 C793 0.961 . S
H801 C793 0.960 . S
H802 C794 0.930 . S
H803 C795 0.929 . S
H804 C812 0.929 . S
H805 C814 0.930 . S
H806 C816 0.930 . S
H807 C819 0.929 . S
H808 C822 0.930 . S
H809 C824 0.960 . S
H810 C824 0.960 . S
H811 C824 0.960 . S
C812 H804 0.929 . S
C812 C813 1.377 . S
C812 C814 1.384 . S
C813 C812 1.377 . S
C813 C819 1.390 1_565 S
C814 H805 0.930 . S
C814 C812 1.384 . S
C814 C815 1.372 . S
C815 C814 1.372 . S
C815 C816 1.400 1_565 S
C815 C820 1.490 . S
C816 H806 0.930 . S
C816 C815 1.400 1_545 S
C816 C819 1.386 . S
H817 C833 0.930 1_545 S
H818 C834 0.931 1_545 S
C819 H807 0.929 . S
C819 C813 1.390 1_545 S
C819 C816 1.386 . S
C820 C815 1.490 . S
C820 C822 1.395 . S
C820 C823 1.403 1_565 S
H821 C827 0.930 . S
C822 H808 0.930 . S
C822 C820 1.395 . S
C822 C825 1.403 . S
C823 C820 1.403 1_545 S
C823 C824 1.524 . S
C823 C827 1.400 . S
C824 H809 0.960 . S
C824 H810 0.960 . S
C824 H811 0.960 . S
C824 C823 1.524 . S
C825 C822 1.403 . S
C825 C826 1.392 . S
C825 C829 1.495 . S
C826 C825 1.392 . S
C826 C827 1.385 1_565 S
C826 C828 1.478 . S
C827 H821 0.930 . S
C827 C823 1.400 . S
C827 C826 1.385 1_545 S
C828 C826 1.478 . S
C828 C830 1.381 . S
C828 C834 1.383 . S
C829 C825 1.495 . S
C829 H835 0.959 . S
C829 H836 0.961 . S
C829 H837 0.960 . S
C830 C828 1.381 . S
C830 C831 1.394 . S
C830 H838 0.930 . S
C831 C830 1.394 . S
C831 C832 1.383 . S
C831 H839 0.929 . S
C832 C831 1.383 . S
C832 C833 1.377 . S
C833 H817 0.930 1_565 S
C833 C832 1.377 . S
C833 C834 1.379 . S
C834 H818 0.931 1_565 S
C834 C828 1.383 . S
C834 C833 1.379 . S
H835 C829 0.959 . S
H836 C829 0.961 . S
H837 C829 0.960 . S
H838 C830 0.930 . S
H839 C831 0.929 . S
H840 C848 0.929 . S
H841 C850 0.930 . S
H842 C852 0.930 . S
H843 C855 0.929 . S
H844 C858 0.930 . S
H845 C860 0.960 . S
H846 C860 0.960 . S
H847 C860 0.960 . S
C848 H840 0.929 . S
C848 C849 1.377 1_455 S
C848 C850 1.384 . S
C849 C848 1.377 1_655 S
C849 C855 1.390 . S
C850 H841 0.930 . S
C850 C848 1.384 . S
C850 C851 1.372 1_455 S
C851 C850 1.372 1_655 S
C851 C852 1.400 . S
C851 C856 1.490 . S
C852 H842 0.930 . S
C852 C851 1.400 . S
C852 C855 1.386 . S
H853 C869 0.930 . S
H854 C870 0.931 . S
C855 H843 0.929 . S
C855 C849 1.390 . S
C855 C852 1.386 . S
C856 C851 1.490 . S
C856 C858 1.395 1_655 S
C856 C859 1.403 . S
H857 C863 0.930 . S
C858 H844 0.930 . S
C858 C856 1.395 1_455 S
C858 C861 1.403 . S
C859 C856 1.403 . S
C859 C860 1.524 . S
C859 C863 1.400 . S
C860 H845 0.960 . S
C860 H846 0.960 . S
C860 H847 0.960 . S
C860 C859 1.524 . S
C861 C858 1.403 . S
C861 C862 1.392 . S
C861 C865 1.495 . S
C862 C861 1.392 . S
C862 C863 1.385 1_455 S
C862 C864 1.478 . S
C863 H857 0.930 . S
C863 C859 1.400 . S
C863 C862 1.385 1_655 S
C864 C862 1.478 . S
C864 C866 1.381 . S
C864 C870 1.383 1_455 S
C865 C861 1.495 . S
C865 H871 0.959 . S
C865 H872 0.961 . S
C865 H873 0.960 . S
C866 C864 1.381 . S
C866 C867 1.394 . S
C866 H874 0.930 . S
C867 C866 1.394 . S
C867 C868 1.383 . S
C867 H875 0.929 . S
C868 C867 1.383 . S
C868 C869 1.377 1_455 S
C869 H853 0.930 . S
C869 C868 1.377 1_655 S
C869 C870 1.379 . S
C870 H854 0.931 . S
C870 C864 1.383 1_655 S
C870 C869 1.379 . S
H871 C865 0.959 . S
H872 C865 0.961 . S
H873 C865 0.960 . S
H874 C866 0.930 . S
H875 C867 0.929 . S
H876 C884 0.929 . S
H877 C886 0.932 . S
H878 C888 0.930 . S
H879 C891 0.929 . S
H880 C894 0.930 . S
H881 C896 0.960 . S
H882 C896 0.960 . S
H883 C896 0.960 . S
C884 H876 0.929 . S
C884 C885 1.377 . S
C884 C886 1.384 . S
C885 C884 1.377 . S
C885 C891 1.390 . S
C886 H877 0.932 . S
C886 C884 1.384 . S
C886 C887 1.372 . S
C887 C886 1.372 . S
C887 C888 1.400 . S
C887 C892 1.490 1_554 S
C888 H878 0.930 . S
C888 C887 1.400 . S
C888 C891 1.386 . S
H889 C905 0.930 . S
H890 C906 0.931 1_554 S
C891 H879 0.929 . S
C891 C885 1.390 . S
C891 C888 1.386 . S
C892 C887 1.490 1_556 S
C892 C894 1.393 1_556 S
C892 C895 1.405 . S
H893 C899 0.930 . S
C894 H880 0.930 . S
C894 C892 1.393 1_554 S
C894 C897 1.403 . S
C895 C892 1.405 . S
C895 C896 1.524 . S
C895 C899 1.400 . S
C896 H881 0.960 . S
C896 H882 0.960 . S
C896 H883 0.960 . S
C896 C895 1.524 . S
C897 C894 1.403 . S
C897 C898 1.392 1_554 S
C897 C901 1.495 . S
C898 C897 1.392 1_556 S
C898 C899 1.385 . S
C898 C900 1.478 . S
C899 H893 0.930 . S
C899 C895 1.400 . S
C899 C898 1.385 . S
C900 C898 1.478 . S
C900 C902 1.381 . S
C900 C906 1.383 . S
C901 C897 1.495 . S
C901 H907 0.959 . S
C901 H908 0.961 . S
C901 H909 0.960 . S
C902 C900 1.381 . S
C902 C903 1.394 . S
C902 H910 0.930 . S
C903 C902 1.394 . S
C903 C904 1.383 . S
C903 H911 0.929 . S
C904 C903 1.383 . S
C904 C905 1.377 . S
C905 H889 0.930 . S
C905 C904 1.377 . S
C905 C906 1.379 . S
C906 H890 0.931 1_556 S
C906 C900 1.383 . S
C906 C905 1.379 . S
H907 C901 0.959 . S
H908 C901 0.961 . S
H909 C901 0.960 . S
H910 C902 0.930 . S
H911 C903 0.929 . S
H912 C920 0.929 . S
H913 C922 0.930 . S
H914 C924 0.930 . S
H915 C927 0.929 . S
H916 C930 0.930 . S
H917 C932 0.960 . S
H918 C932 0.960 . S
H919 C932 0.960 . S
C920 H912 0.929 . S
C920 C921 1.377 1_554 S
C920 C922 1.384 . S
C921 C920 1.377 1_556 S
C921 C927 1.390 . S
C922 H913 0.930 . S
C922 C920 1.384 . S
C922 C923 1.372 1_554 S
C923 C922 1.372 1_556 S
C923 C924 1.400 . S
C923 C928 1.490 . S
C924 H914 0.930 . S
C924 C923 1.400 . S
C924 C927 1.386 . S
H925 C941 0.930 . S
H926 C942 0.931 . S
C927 H915 0.929 . S
C927 C921 1.390 . S
C927 C924 1.386 . S
C928 C923 1.490 . S
C928 C930 1.395 1_556 S
C928 C931 1.403 . S
H929 C935 0.930 . S
C930 H916 0.930 . S
C930 C928 1.395 1_554 S
C930 C933 1.403 . S
C931 C928 1.403 . S
C931 C932 1.524 . S
C931 C935 1.400 . S
C932 H917 0.960 . S
C932 H918 0.960 . S
C932 H919 0.960 . S
C932 C931 1.524 . S
C933 C930 1.403 . S
C933 C934 1.392 . S
C933 C937 1.495 . S
C934 C933 1.392 . S
C934 C935 1.385 1_554 S
C934 C936 1.478 . S
C935 H929 0.930 . S
C935 C931 1.400 . S
C935 C934 1.385 1_556 S
C936 C934 1.478 . S
C936 C938 1.381 . S
C936 C942 1.383 1_554 S
C937 C933 1.495 . S
C937 H943 0.959 . S
C937 H944 0.961 . S
C937 H945 0.960 . S
C938 C936 1.381 . S
C938 C939 1.394 . S
C938 H946 0.930 . S
C939 C938 1.394 . S
C939 C940 1.383 . S
C939 H947 0.929 . S
C940 C939 1.383 . S
C940 C941 1.377 1_554 S
C941 H925 0.930 . S
C941 C940 1.377 1_556 S
C941 C942 1.379 . S
C942 H926 0.931 . S
C942 C936 1.383 1_556 S
C942 C941 1.379 . S
H943 C937 0.959 . S
H944 C937 0.961 . S
H945 C937 0.960 . S
H946 C938 0.930 . S
H947 C939 0.929 . S
H948 C956 0.929 . S
H949 C958 0.930 . S
H950 C960 0.930 . S
H951 C963 0.929 . S
H952 C966 0.930 . S
H953 C968 0.960 . S
H954 C968 0.960 . S
H955 C968 0.960 . S
C956 H948 0.929 . S
C956 C957 1.377 . S
C956 C958 1.384 . S
C957 C956 1.377 . S
C957 C963 1.390 1_556 S
C958 H949 0.930 . S
C958 C956 1.384 . S
C958 C959 1.372 . S
C959 C958 1.372 . S
C959 C960 1.400 1_556 S
C959 C964 1.490 . S
C960 H950 0.930 . S
C960 C959 1.400 1_554 S
C960 C963 1.386 . S
H961 C977 0.930 . S
H962 C978 0.931 . S
C963 H951 0.929 . S
C963 C957 1.390 1_554 S
C963 C960 1.386 . S
C964 C959 1.490 . S
C964 C966 1.395 1_556 S
C964 C967 1.403 . S
H965 C971 0.930 . S
C966 H952 0.930 . S
C966 C964 1.395 1_554 S
C966 C969 1.403 . S
C967 C964 1.403 . S
C967 C968 1.524 . S
C967 C971 1.400 . S
C968 H953 0.960 . S
C968 H954 0.960 . S
C968 H955 0.960 . S
C968 C967 1.524 . S
C969 C966 1.403 . S
C969 C970 1.396 . S
C969 C973 1.495 . S
C970 C969 1.396 . S
C970 C971 1.380 1_554 S
C970 C972 1.479 . S
C971 H965 0.930 . S
C971 C967 1.400 . S
C971 C970 1.380 1_556 S
C972 C970 1.479 . S
C972 C974 1.381 1_554 S
C972 C978 1.383 . S
C973 C969 1.495 . S
C973 H979 0.959 . S
C973 H980 0.961 . S
C973 H981 0.960 . S
C974 C972 1.381 1_556 S
C974 C975 1.394 . S
C974 H982 0.930 . S
C975 C974 1.394 . S
C975 C976 1.383 1_556 S
C975 H983 0.929 . S
C976 C975 1.383 1_554 S
C976 C977 1.377 . S
C977 H961 0.930 . S
C977 C976 1.377 . S
C977 C978 1.379 . S
C978 H962 0.931 . S
C978 C972 1.383 . S
C978 C977 1.379 . S
H979 C973 0.959 . S
H980 C973 0.961 . S
H981 C973 0.960 . S
H982 C974 0.930 . S
H983 C975 0.929 . S
H984 C992 0.929 . S
H985 C994 0.930 . S
H986 C996 0.920 1_556 S
H987 C999 0.926 1_556 S
H988 C1002 0.930 . S
H989 C1004 0.960 . S
H990 C1004 0.960 . S
H991 C1004 0.960 . S
C992 H984 0.929 . S
C992 C993 1.377 . S
C992 C994 1.384 . S
C993 C992 1.377 . S
C993 C999 1.390 . S
C994 H985 0.930 . S
C994 C992 1.384 . S
C994 C995 1.372 . S
C995 C994 1.372 . S
C995 C996 1.408 . S
C995 C1000 1.490 . S
C996 H986 0.920 1_554 S
C996 C995 1.408 . S
C996 C999 1.390 . S
H997 C1013 0.930 . S
H998 C1014 0.931 . S
C999 H987 0.926 1_554 S
C999 C993 1.390 . S
C999 C996 1.390 . S
C1000 C995 1.490 . S
C1000 C1002 1.395 1_554 S
C1000 C1003 1.403 . S
H1001 C1007 0.930 . S
C1002 H988 0.930 . S
C1002 C1000 1.395 1_556 S
C1002 C1005 1.403 . S
C1003 C1000 1.403 . S
C1003 C1004 1.524 . S
C1003 C1007 1.400 . S
C1004 H989 0.960 . S
C1004 H990 0.960 . S
C1004 H991 0.960 . S
C1004 C1003 1.524 . S
C1005 C1002 1.403 . S
C1005 C1006 1.392 . S
C1005 C1009 1.495 . S
C1006 C1005 1.392 . S
C1006 C1007 1.385 1_556 S
C1006 C1008 1.478 . S
C1007 H1001 0.930 . S
C1007 C1003 1.400 . S
C1007 C1006 1.385 1_554 S
C1008 C1006 1.478 . S
C1008 C1010 1.381 . S
C1008 C1014 1.383 . S
C1009 C1005 1.495 . S
C1009 H1015 0.959 . S
C1009 H1016 0.961 . S
C1009 H1017 0.960 . S
C1010 C1008 1.381 . S
C1010 C1011 1.394 . S
C1010 H1018 0.930 1_556 S
C1011 C1010 1.394 . S
C1011 C1012 1.383 . S
C1011 H1019 0.929 1_556 S
C1012 C1011 1.383 . S
C1012 C1013 1.377 . S
C1013 H997 0.930 . S
C1013 C1012 1.377 . S
C1013 C1014 1.379 . S
C1014 H998 0.931 . S
C1014 C1008 1.383 . S
C1014 C1013 1.379 . S
H1015 C1009 0.959 . S
H1016 C1009 0.961 . S
H1017 C1009 0.960 . S
H1018 C1010 0.930 1_554 S
H1019 C1011 0.929 1_554 S
C165 C1 0.945 . S
C184 C96 0.942 . S
C201 C18 1.261 . S
C220 C55 1.252 . S
C237 C66 1.017 . S
C256 C27 1.024 . S
C273 C81 1.330 . S
C292 C49 1.334 . S
C309 C114 1.016 . S
C328 C92 1.013 . S
C345 C118 1.224 . S
C364 C62 1.208 . S
C381 C140 1.317 . S
C400 C70 1.299 . S
C417 C144 1.172 . S
C436 C88 1.160 . S
C453 C14 0.970 . S
C472 C122 0.969 . S
C489 C133 1.093 . S
C508 C31 1.088 . S
C525 C42 1.271 . S
C544 C148 1.267 . S
C561 C107 1.113 . S
C580 C5 1.116 . S
C597 C83 1.686 . S
C616 C10 1.688 . S
C633 C94 1.552 . S
C652 C16 1.551 . S
C669 C57 1.681 1_655 S
C688 C36 1.693 . S
C705 C40 1.827 . S
C724 C75 1.738 . S
C741 C101 1.734 . S
C760 C68 1.654 . S
C777 C53 1.727 . S
C796 C79 1.723 . S
C813 C44 1.635 1_565 S
C832 C23 1.615 . S
C849 C29 1.645 . S
C868 C3 1.639 . S
C885 C109 1.834 . S
C904 C127 1.832 . S
C921 C120 1.688 . S
C940 C131 1.668 . S
C957 C153 1.529 . S
C976 C135 1.531 . S
C993 C105 1.673 . S
C1012 C146 1.669 . S
