# Generated by pormake.
# Topology fnu, (5)-cn, num edge types: 1
# Building blocks:
#     Node 0, Type 0, BuildingBlock: BEQFEK_clean_sbu_0, # of connection points: 5
#     Node 1, Type 0, BuildingBlock: BEQFEK_clean_sbu_0, # of connection points: 5
#     Node 2, Type 0, BuildingBlock: BEQFEK_clean_sbu_0, # of connection points: 5
#     Node 3, Type 0, BuildingBlock: BEQFEK_clean_sbu_0, # of connection points: 5
#     Node 4, Type 0, BuildingBlock: BEQFEK_clean_sbu_0, # of connection points: 5
#     Node 5, Type 0, BuildingBlock: BEQFEK_clean_sbu_0, # of connection points: 5
#     Edge 6, Type (0, 0), BuildingBlock: XIVTED_clean_linker_0, # of connection points: 2
#     Edge 7, Type (0, 0), BuildingBlock: XIVTED_clean_linker_0, # of connection points: 2
#     Edge 8, Type (0, 0), BuildingBlock: XIVTED_clean_linker_0, # of connection points: 2
#     Edge 9, Type (0, 0), BuildingBlock: XIVTED_clean_linker_0, # of connection points: 2
#     Edge 10, Type (0, 0), BuildingBlock: XIVTED_clean_linker_0, # of connection points: 2
#     Edge 11, Type (0, 0), BuildingBlock: XIVTED_clean_linker_0, # of connection points: 2
#     Edge 12, Type (0, 0), BuildingBlock: XIVTED_clean_linker_0, # of connection points: 2
#     Edge 13, Type (0, 0), BuildingBlock: XIVTED_clean_linker_0, # of connection points: 2
#     Edge 14, Type (0, 0), BuildingBlock: XIVTED_clean_linker_0, # of connection points: 2
#     Edge 15, Type (0, 0), BuildingBlock: XIVTED_clean_linker_0, # of connection points: 2
#     Edge 16, Type (0, 0), BuildingBlock: XIVTED_clean_linker_0, # of connection points: 2
#     Edge 17, Type (0, 0), BuildingBlock: XIVTED_clean_linker_0, # of connection points: 2
#     Edge 18, Type (0, 0), BuildingBlock: XIVTED_clean_linker_0, # of connection points: 2
#     Edge 19, Type (0, 0), BuildingBlock: XIVTED_clean_linker_0, # of connection points: 2
#     Edge 20, Type (0, 0), BuildingBlock: XIVTED_clean_linker_0, # of connection points: 2
# Relax obj value: 0.175
# Max RMSD: 0.165
# Mean RMSD: 0.165
data_MOF--net-fnu--node1-BEQFEK_clean_sbu_0--edge1-XIVTED_clean_linker_0
_symmetry_space_group_name_H-M    P1
_symmetry_Int_Tables_number       1
_symmetry_cell_setting            triclinic
loop_
_symmetry_equiv_pos_as_xyz
'x, y, z'
_cell_length_a     24.593823
_cell_length_b     29.329658
_cell_length_c     36.809335
_cell_angle_alpha  90.022003
_cell_angle_beta   97.891468
_cell_angle_gamma 126.61341
loop_
_atom_site_label
_atom_site_type_symbol
_atom_site_fract_x
_atom_site_fract_y
_atom_site_fract_z
_atom_type_partial_charge
Co0 Co 0.99094 0.01959 0.18144 0.0
Co1 Co 0.04545 0.04917 0.26625 0.0
C2 C 0.97316 0.93086 0.22816 0.0
O3 O 0.96585 0.94854 0.19799 0.0
O4 O 1.00395 0.96424 0.25811 0.0
C5 C 0.88816 0.95123 0.11865 0.0
O6 O 0.85694 0.91265 0.14157 0.0
C7 C 0.03712 0.0473 0.34648 0.0
C8 C 0.14038 0.12454 0.37013 0.0
C9 C 0.07927 0.07913 0.37994 0.0
N10 N 0.07198 0.07296 0.31867 0.0
N11 N 0.13355 0.11927 0.33314 0.0
C12 C 0.96631 0.99201 0.3408 0.0
H13 H 0.95294 0.9701 0.31294 0.0
H14 H 0.92869 1.00069 0.34309 0.0
H15 H 0.96227 0.96383 0.3621 0.0
C16 C 0.92638 0.07188 0.19584 0.0
N17 N 0.96089 0.0514 0.20845 0.0
N18 N 0.98424 0.06674 0.24399 0.0
C19 C 0.96578 0.09915 0.255 0.0
C20 C 0.92742 0.10251 0.2248 0.0
C21 C 0.90353 0.07041 0.15562 0.0
H22 H 0.94652 0.08522 0.14051 0.0
H23 H 0.86017 0.02586 0.14453 0.0
H24 H 0.88674 0.09779 0.15031 0.0
O25 O 0.09136 0.07302 0.1834 0.0
O26 O 0.13204 0.09411 0.24357 0.0
H27 H 0.04673 0.15755 0.299 0.0
H28 H 0.97212 0.15734 0.29458 0.0
C29 C 0.98976 0.13045 0.29257 0.0
H30 H 0.96965 0.09913 0.31326 0.0
H31 H 0.17136 0.14689 0.31777 0.0
O32 O 0.94497 0.99949 0.13032 0.0
C33 C 0.14182 0.09931 0.21009 0.0
Co34 Co 0.07977 1.00746 0.83976 0.0
Co35 Co 0.03241 1.00442 0.75637 0.0
C36 C 0.10773 0.95463 0.78581 0.0
O37 O 0.11521 0.97291 0.81858 0.0
O38 O 0.07469 0.96094 0.7588 0.0
C39 C 0.06857 0.96466 0.90425 0.0
O40 O 0.04808 0.9207 0.88147 0.0
C41 C 0.04855 0.02763 0.67749 0.0
C42 C 0.95159 1.01518 0.65659 0.0
C43 C 1.01026 0.02736 0.6455 0.0
N44 N 1.01361 1.0159 0.70567 0.0
N45 N 0.95601 1.00901 0.69285 0.0
C46 C 0.11547 0.0362 0.68106 0.0
H47 H 0.12555 0.02144 0.70701 0.0
H48 H 0.15769 0.08242 0.6817 0.0
H49 H 0.11552 1.01317 0.65714 0.0
C50 C 0.14611 0.12855 0.84029 0.0
N51 N 0.11187 0.07675 0.82179 0.0
N52 N 0.09055 0.07746 0.78715 0.0
C53 C 0.10977 0.13082 0.78287 0.0
C54 C 0.1462 0.16503 0.81644 0.0
C55 C 0.16869 0.1398 0.88128 0.0
H56 H 0.12256 0.11572 0.89476 0.0
H57 H 0.19942 0.12405 0.88958 0.0
H58 H 0.19943 0.18566 0.89126 0.0
O59 O 0.97915 0.95773 0.8319 0.0
O60 O 0.94015 0.95484 0.77358 0.0
H61 H 0.03265 0.12117 0.74156 0.0
H62 H 0.11176 0.19342 0.75078 0.0
C63 C 0.08956 0.14746 0.74816 0.0
H64 H 0.10738 0.13827 0.72506 0.0
H65 H 0.91895 0.99905 0.70877 0.0
O66 O 0.10163 1.01383 0.8929 0.0
C67 C 0.9293 0.94045 0.80602 0.0
Co68 Co 0.66982 0.30976 0.51378 0.0
Co69 Co 0.71511 0.35184 0.59757 0.0
C70 C 0.6407 0.22743 0.56674 0.0
O71 O 0.63385 0.23919 0.53419 0.0
O72 O 0.6732 0.26607 0.59421 0.0
C73 C 0.6813 0.27806 0.4495 0.0
O74 O 0.69946 0.25314 0.47234 0.0
C75 C 0.70173 0.35795 0.67738 0.0
C76 C 0.79621 0.44463 0.69683 0.0
C77 C 0.74025 0.39694 0.70894 0.0
N78 N 0.73403 0.38181 0.64841 0.0
N79 N 0.7901 0.43378 0.66041 0.0
C80 C 0.63737 0.29822 0.675 0.0
H81 H 0.62756 0.2733 0.64915 0.0
H82 H 0.59321 0.2995 0.67509 0.0
H83 H 0.64086 0.2768 0.69909 0.0
C84 C 0.60252 0.36362 0.51375 0.0
N85 N 0.63708 0.34622 0.53203 0.0
N86 N 0.65713 0.36704 0.56692 0.0
C87 C 0.63663 0.40016 0.5716 0.0
C88 C 0.60074 0.39855 0.53802 0.0
C89 C 0.58079 0.35329 0.4727 0.0
H90 H 0.62729 0.37551 0.45952 0.0
H91 H 0.5499 0.30691 0.46396 0.0
H92 H 0.55053 0.36887 0.46284 0.0
O93 O 0.77042 0.36058 0.52227 0.0
O94 O 0.80778 0.39536 0.58084 0.0
H95 H 0.71161 0.46781 0.61335 0.0
H96 H 0.63024 0.45722 0.60473 0.0
C97 C 0.65494 0.43546 0.60677 0.0
H98 H 0.63861 0.40774 0.62958 0.0
H99 H 0.82509 0.46163 0.64379 0.0
O100 O 0.64934 0.29547 0.46055 0.0
C101 C 0.81963 0.39268 0.54853 0.0
Co102 Co 0.76971 0.4087 0.17381 0.0
Co103 Co 0.7144 0.3835 0.08906 0.0
C104 C 0.78711 0.33769 0.12678 0.0
O105 O 0.79461 0.36271 0.15701 0.0
O106 O 0.7561 0.34021 0.09691 0.0
C107 C 0.87192 0.44224 0.23697 0.0
O108 O 0.90259 0.43349 0.21445 0.0
C109 C 0.71954 0.3883 1.00831 0.0
C110 C 0.61618 0.3632 0.98611 0.0
C111 C 0.67613 0.37771 0.97534 0.0
N112 N 0.68642 0.38032 0.03677 0.0
N113 N 0.62481 0.36563 0.02314 0.0
C114 C 0.78982 0.4029 0.0129 0.0
H115 H 0.80419 0.39466 0.04061 0.0
H116 H 0.82773 0.449 1.01012 0.0
H117 H 0.79216 0.37793 0.99132 0.0
C118 C 0.83414 0.52551 0.15931 0.0
N119 N 0.79944 0.47046 0.14674 0.0
N120 N 0.77578 0.46234 0.11123 0.0
C121 C 0.79421 0.51319 0.10022 0.0
C122 C 0.83284 0.55501 0.13038 0.0
C123 C 0.85747 0.54701 0.19953 0.0
H124 H 0.81451 0.51914 0.21473 0.0
H125 H 0.90047 0.54532 0.2105 0.0
H126 H 0.87488 0.59136 0.20487 0.0
O127 O 0.66938 0.36172 0.17223 0.0
O128 O 0.62831 0.34192 0.11213 0.0
H129 H 0.71295 0.49128 0.05667 0.0
H130 H 0.78863 0.56517 0.06049 0.0
C131 C 0.76999 0.52041 0.06269 0.0
H132 H 0.78883 0.5081 0.04186 0.0
H133 H 0.58814 0.35637 0.03913 0.0
O134 O 0.81588 0.43475 0.2249 0.0
C135 C 0.61876 0.33744 0.14564 0.0
Co136 Co 0.30841 0.61839 0.8485 0.0
Co137 Co 0.35973 0.66718 0.93116 0.0
C138 C 0.28296 0.54136 0.90562 0.0
O139 O 0.27415 0.55068 0.87264 0.0
O140 O 0.31758 0.58192 0.93184 0.0
C141 C 0.29712 0.56563 0.78467 0.0
O142 O 0.30833 0.5377 0.80859 0.0
C143 C 0.35571 0.67673 0.01139 0.0
C144 C 0.43611 0.76911 0.02682 0.0
C145 C 0.38934 0.71886 0.04119 0.0
N146 N 0.38191 0.7011 0.98107 0.0
N147 N 0.43008 0.7563 0.99066 0.0
C148 C 0.29711 0.61506 0.01109 0.0
H149 H 0.26286 0.59875 0.98384 0.0
H150 H 0.26722 0.60873 0.0331 0.0
H151 H 0.3177 0.59025 0.01587 0.0
C152 C 0.24583 0.67634 0.84661 0.0
N153 N 0.27875 0.65803 0.86564 0.0
N154 N 0.30023 0.68063 0.90017 0.0
C155 C 0.28161 0.7153 0.90396 0.0
C156 C 0.24615 0.71339 0.87012 0.0
C157 C 0.22495 0.66534 0.8055 0.0
H158 H 0.27085 0.68127 0.79271 0.0
H159 H 0.18767 0.61862 0.79756 0.0
H160 H 0.2019 0.68642 0.79438 0.0
O161 O 0.40907 0.66874 0.85403 0.0
O162 O 0.44974 0.70762 0.91192 0.0
H163 H 0.35712 0.78836 0.94211 0.0
H164 H 0.27198 0.77019 0.93707 0.0
C165 C 0.30143 0.75255 0.93841 0.0
H166 H 0.29212 0.72769 0.96254 0.0
H167 H 0.4589 0.78539 0.97243 0.0
O168 O 0.28055 0.59614 0.79572 0.0
C169 C 0.45953 0.70252 0.87944 0.0
Co170 Co 0.44292 0.69693 0.50494 0.0
Co171 Co 0.38643 0.68685 0.4217 0.0
C172 C 0.45905 0.63573 0.44867 0.0
O173 O 0.46784 0.65541 0.48118 0.0
O174 O 0.42717 0.64282 0.42158 0.0
C175 C 0.51992 0.69636 0.57101 0.0
O176 O 0.53501 0.67049 0.55002 0.0
C177 C 0.38638 0.69523 0.34111 0.0
C178 C 0.30234 0.70255 0.3246 0.0
C179 C 0.35047 0.70039 0.31071 0.0
N180 N 0.36018 0.69394 0.3713 0.0
N181 N 0.30983 0.6982 0.36109 0.0
C182 C 0.44733 0.69518 0.34209 0.0
H183 H 0.48143 0.71471 0.36932 0.0
H184 H 0.47659 0.71887 0.31992 0.0
H185 H 0.42938 0.65042 0.338 0.0
C186 C 0.50793 0.81694 0.50117 0.0
N187 N 0.47327 0.7641 0.4841 0.0
N188 N 0.44881 0.76209 0.44955 0.0
C189 C 0.46682 0.81476 0.44383 0.0
C190 C 0.50539 0.85132 0.47637 0.0
C191 C 0.53199 0.83082 0.54207 0.0
H192 H 0.48778 0.80213 0.55632 0.0
H193 H 0.57069 0.82298 0.55017 0.0
H194 H 0.55478 0.87553 0.55157 0.0
O195 O 0.3427 0.64978 0.50332 0.0
O196 O 0.29987 0.64059 0.44433 0.0
H197 H 0.38644 0.80685 0.40659 0.0
H198 H 0.46961 0.87529 0.40912 0.0
C199 C 0.44247 0.82857 0.40913 0.0
H200 H 0.45098 0.81227 0.38502 0.0
H201 H 0.28069 0.69837 0.37911 0.0
O202 O 0.48464 0.71238 0.55669 0.0
C203 C 0.29147 0.63038 0.47769 0.0
H204 H 0.26551 0.16225 0.25824 0.0
H205 H 0.49502 0.27697 0.09761 0.0
H206 H 0.1806 0.1198 0.14205 0.0
H207 H 0.58021 0.31905 0.21377 0.0
H208 H 0.37939 0.21993 0.11335 0.0
H209 H 0.38124 0.22069 0.24257 0.0
C210 C 0.27104 0.16521 0.22947 0.0
C211 C 0.21289 0.13587 0.20149 0.0
C212 C 0.42343 0.24171 0.13539 0.0
C213 C 0.34557 0.20284 0.18329 0.0
C214 C 0.48957 0.27436 0.1264 0.0
C215 C 0.54777 0.30301 0.15433 0.0
C216 C 0.41516 0.23756 0.17262 0.0
C217 C 0.53713 0.29784 0.19119 0.0
C218 C 0.33723 0.19861 0.22051 0.0
C219 C 0.22362 0.14148 0.16465 0.0
N220 N 0.47237 0.26585 0.1992 0.0
N221 N 0.2884 0.17414 0.15669 0.0
H222 H 1.01087 0.21868 0.22836 0.0
H223 H 0.71086 0.22182 0.11374 0.0
H224 H 0.79841 0.07155 0.20528 0.0
H225 H 0.91678 0.37372 0.15068 0.0
H226 H 0.74484 0.16438 0.14165 0.0
H227 H 0.97886 0.27652 0.19902 0.0
C228 C 0.95712 0.19918 0.2184 0.0
C229 C 0.90697 0.14066 0.21974 0.0
C230 C 0.78303 0.21019 0.14298 0.0
C231 C 0.87025 0.20543 0.18439 0.0
C232 C 0.76399 0.24275 0.12624 0.0
C233 C 0.81151 0.30238 0.12927 0.0
C234 C 0.84997 0.23766 0.16295 0.0
C235 C 0.87904 0.32769 0.14716 0.0
C236 C 0.93895 0.23181 0.20096 0.0
C237 C 0.83828 0.11686 0.20533 0.0
N238 N 0.89612 0.29535 0.16357 0.0
N239 N 0.822 0.1491 0.18784 0.0
H240 H 0.74939 0.58771 0.12678 0.0
H241 H 0.04927 0.89113 0.24133 0.0
H242 H 0.96186 0.65315 0.14988 0.0
H243 H 0.84358 0.83728 0.2039 0.0
H244 H 1.0153 0.79964 0.21348 0.0
H245 H 0.7814 0.67768 0.15597 0.0
C246 C 0.80313 0.622 0.13672 0.0
C247 C 0.85329 0.61363 0.13544 0.0
C248 C 0.97716 0.80732 0.21203 0.0
C249 C 0.89002 0.71527 0.17061 0.0
C250 C 0.99619 0.85896 0.22872 0.0
C251 C 0.94873 0.87113 0.22555 0.0
C252 C 0.9103 0.76787 0.19196 0.0
C253 C 0.88127 0.82895 0.20753 0.0
C254 C 0.82131 0.67288 0.15407 0.0
C255 C 0.92199 0.65859 0.14981 0.0
N256 N 0.8642 0.77948 0.19118 0.0
N257 N 0.93827 0.70719 0.16721 0.0
H258 H 0.27519 0.25929 0.84376 0.0
H259 H 0.15156 0.446 0.89365 0.0
H260 H 0.06507 0.19963 0.81809 0.0
H261 H 0.36076 0.50432 0.92229 0.0
H262 H 0.11659 0.35173 0.87236 0.0
H263 H 0.30702 0.34795 0.87491 0.0
C264 C 0.23612 0.26565 0.84402 0.0
C265 C 0.16769 0.22271 0.82798 0.0
C266 C 0.16988 0.38451 0.88423 0.0
C267 C 0.20297 0.32303 0.86455 0.0
C268 C 0.18956 0.43797 0.89718 0.0
C269 C 0.25891 0.48263 0.91041 0.0
C270 C 0.22019 0.37588 0.88391 0.0
C271 C 0.30654 0.47064 0.9131 0.0
C272 C 0.25401 0.31579 0.86225 0.0
C273 C 0.11859 0.23224 0.82963 0.0
N274 N 0.28655 0.41871 0.89932 0.0
N275 N 0.13712 0.28131 0.84772 0.0
H276 H 0.58542 0.77498 0.92517 0.0
H277 H 0.80329 0.88301 0.75946 0.0
H278 H 0.49389 0.71076 0.81086 0.0
H279 H 0.89429 0.91703 0.87447 0.0
H280 H 0.6889 0.82519 0.77742 0.0
H281 H 0.69926 0.83308 0.90686 0.0
C282 C 0.58913 0.77296 0.89631 0.0
C283 C 0.52974 0.73765 0.86966 0.0
C284 C 0.73408 0.84535 0.79864 0.0
C285 C 0.65992 0.80449 0.84838 0.0
C286 C 0.79937 0.8784 0.78837 0.0
C287 C 0.85875 0.90488 0.81535 0.0
C288 C 0.72815 0.8392 0.83617 0.0
C289 C 0.85027 0.89736 0.85252 0.0
C290 C 0.65414 0.80614 0.88583 0.0
C291 C 0.53799 0.73705 0.83255 0.0
N292 N 0.78652 0.86551 0.86175 0.0
N293 N 0.60158 0.76998 0.82306 0.0
H294 H 0.03317 0.84138 0.76255 0.0
H295 H 0.3278 0.82993 0.87501 0.0
H296 H 0.23832 0.99045 0.80507 0.0
H297 H 0.12044 0.68073 0.83669 0.0
H298 H 0.29821 0.8894 0.84592 0.0
H299 H 0.06805 0.78098 0.78194 0.0
C300 C 0.08641 0.86137 0.77431 0.0
C301 C 0.13327 0.92088 0.78176 0.0
C302 C 0.25897 0.84368 0.84399 0.0
C303 C 0.17272 0.85245 0.80578 0.0
C304 C 0.27567 0.80994 0.86106 0.0
C305 C 0.22626 0.75059 0.85842 0.0
C306 C 0.19235 0.81777 0.82409 0.0
C307 C 0.15978 0.72651 0.83944 0.0
C308 C 0.106 0.82696 0.78616 0.0
C309 C 0.201 0.94467 0.79838 0.0
N310 N 0.14478 0.7601 0.82288 0.0
N311 N 0.21846 0.91047 0.81028 0.0
H312 H 0.94432 0.46505 0.59571 0.0
H313 H 0.16568 0.57036 0.43152 0.0
H314 H 0.85706 0.40199 0.48088 0.0
H315 H 0.25712 0.61154 0.54674 0.0
H316 H 0.05165 0.51324 0.44932 0.0
H317 H 0.05944 0.52369 0.57865 0.0
C318 C 0.94921 0.46339 0.56703 0.0
C319 C 0.89063 0.42829 0.53983 0.0
C320 C 0.09673 0.53478 0.47071 0.0
C321 C 1.02206 0.49557 0.52004 0.0
C322 C 0.16192 0.56751 0.46052 0.0
C323 C 0.22136 0.59578 0.48757 0.0
C324 C 0.09069 0.53049 0.50827 0.0
C325 C 0.21295 0.5904 0.52481 0.0
C326 C 1.01491 0.49686 0.55727 0.0
C327 C 0.90037 0.42811 0.50299 0.0
N328 N 0.14907 0.55858 0.53401 0.0
N329 N 0.96447 0.46118 0.49426 0.0
H330 H 0.47106 0.36195 0.51043 0.0
H331 H 0.59021 0.67164 0.4611 0.0
H332 H 0.6795 0.51446 0.53786 0.0
H333 H 0.38096 0.52023 0.4343 0.0
H334 H 0.62592 0.61305 0.48287 0.0
H335 H 0.43742 0.41805 0.48003 0.0
C336 C 0.50933 0.40763 0.51074 0.0
C337 C 0.57785 0.43393 0.52704 0.0
C338 C 0.57242 0.59225 0.47135 0.0
C339 C 0.54054 0.49816 0.49129 0.0
C340 C 0.5523 0.6256 0.45814 0.0
C341 C 0.4828 0.60055 0.44511 0.0
C342 C 0.52244 0.53336 0.47213 0.0
C343 C 0.43528 0.54098 0.44324 0.0
C344 C 0.49042 0.43949 0.49295 0.0
C345 C 0.62593 0.49289 0.5261 0.0
N346 N 0.45578 0.50945 0.45716 0.0
N347 N 0.60644 0.52301 0.50837 0.0
H348 H 0.42072 0.88279 0.47502 0.0
H349 H 0.71686 0.18948 0.58683 0.0
H350 H 0.63255 0.94776 0.50403 0.0
H351 H 0.51008 0.13219 0.54814 0.0
H352 H 0.68291 0.09556 0.5646 0.0
H353 H 0.44998 0.97113 0.50534 0.0
C354 C 0.47372 0.9164 0.48697 0.0
C355 C 0.52453 0.90855 0.48674 0.0
C356 C 0.64443 0.10297 0.56183 0.0
C357 C 0.5581 1.00856 0.5227 0.0
C358 C 0.66348 0.15613 0.57536 0.0
C359 C 0.61587 0.16814 0.56984 0.0
C360 C 0.57741 0.06186 0.54251 0.0
C361 C 0.54796 0.12416 0.55345 0.0
C362 C 0.49028 0.96638 0.5048 0.0
C363 C 0.59216 0.95269 0.50336 0.0
N364 N 0.53094 0.07328 0.53992 0.0
N365 N 0.60694 1.00063 0.52088 0.0
H366 H 0.13452 0.09101 0.61906 0.0
H367 H 0.95662 0.02469 0.40725 0.0
H368 H 0.91475 0.98159 0.58255 0.0
H369 H 0.17435 0.11207 0.44196 0.0
H370 H 0.94064 1.01018 0.47126 0.0
H371 H 0.15057 0.10089 0.55481 0.0
C372 C 0.08952 0.06804 0.59776 0.0
C373 C 1.02304 0.03422 0.60662 0.0
C374 C 0.99188 0.03209 0.46484 0.0
C375 C 0.0413 0.04719 0.53245 0.0
C376 C 1.001 0.03981 0.42802 0.0
C377 C 0.06681 0.06844 0.4187 0.0
C378 C 0.04902 0.05372 0.49285 0.0
C379 C 0.12254 0.08948 0.44762 0.0
C380 C 0.09881 0.07432 0.56087 0.0
C381 C 0.96704 1.00795 0.57729 0.0
N382 N 0.11242 0.08171 0.48323 0.0
N383 N 0.9774 1.01495 0.54171 0.0
H384 H 0.57801 0.31381 0.91473 0.0
H385 H 0.83928 0.44922 0.77033 0.0
H386 H 0.79655 0.44429 0.94587 0.0
H387 H 0.61876 0.33357 0.7379 0.0
H388 H 0.82494 0.44351 0.83484 0.0
H389 H 0.59235 0.31613 0.85023 0.0
C390 C 0.6292 0.34272 0.90815 0.0
C391 C 0.6863 0.37811 0.93622 0.0
C392 C 0.77964 0.419 0.81364 0.0
C393 C 0.70304 0.3811 0.8619 0.0
C394 C 0.78771 0.42224 0.77666 0.0
C395 C 0.73023 0.39102 0.74826 0.0
C396 C 0.71343 0.38446 0.82267 0.0
C397 C 0.66482 0.35701 0.75848 0.0
C398 C 0.63728 0.34394 0.8712 0.0
C399 C 0.75119 0.41477 0.92571 0.0
N400 N 0.65827 0.35467 0.79476 0.0
N401 N 0.75772 0.41528 0.88951 0.0
H402 H 0.37787 0.63991 0.26937 0.0
H403 H 0.394 0.79396 0.08741 0.0
H404 H 0.33947 0.76539 0.26192 0.0
H405 H 0.36734 0.6347 0.08495 0.0
H406 H 0.38552 0.78966 0.15295 0.0
H407 H 0.38629 0.64316 0.20359 0.0
C408 C 0.37234 0.66882 0.25409 0.0
C409 C 0.35908 0.70317 0.27135 0.0
C410 C 0.38095 0.75537 0.13805 0.0
C411 C 0.36758 0.70642 0.19593 0.0
C412 C 0.38585 0.75782 0.10063 0.0
C413 C 0.38015 0.71413 0.08046 0.0
C414 C 0.37169 0.70942 0.15586 0.0
C415 C 0.37025 0.66858 0.09914 0.0
C416 C 0.37632 0.67014 0.21643 0.0
C417 C 0.35008 0.7384 0.2498 0.0
N418 N 0.36671 0.66756 0.13582 0.0
N419 N 0.35492 0.7394 0.21338 0.0
H420 H 0.89012 1.01447 0.06482 0.0
H421 H 0.97979 0.86354 0.93213 0.0
H422 H 0.85119 0.85298 0.0832 0.0
H423 H 0.06754 0.04277 0.94352 0.0
H424 H 0.90334 0.84644 0.97535 0.0
H425 H 0.91479 1.00773 1.00394 0.0
C426 C 0.88398 0.97643 0.05526 0.0
C427 C 0.87059 0.93496 0.07901 0.0
C428 C 0.93922 0.88932 0.96809 0.0
C429 C 0.90189 0.92834 0.01087 0.0
C430 C 0.98351 0.89932 0.94396 0.0
C431 C 0.0306 0.95478 0.9345 0.0
C432 C 0.94186 0.93503 0.98238 0.0
C433 C 0.03263 0.99941 0.95023 0.0
C434 C 0.89891 0.97291 0.02083 0.0
C435 C 0.86242 0.88617 0.06559 0.0
N436 N 0.98876 0.98847 0.9733 0.0
N437 N 0.88059 0.88498 0.03261 0.0
H438 H 0.87171 0.50556 0.29015 0.0
H439 H 0.76689 0.26152 0.42194 0.0
H440 H 0.90475 0.37893 0.27325 0.0
H441 H 0.68908 0.36056 0.41104 0.0
H442 H 0.84597 0.31974 0.37953 0.0
H443 H 0.84427 0.47455 0.35077 0.0
C444 C 0.87602 0.47283 0.30001 0.0
C445 C 0.88851 0.44354 0.2767 0.0
C446 C 0.81168 0.32864 0.3867 0.0
C447 C 0.85399 0.40608 0.34452 0.0
C448 C 0.7659 0.29502 0.41037 0.0
C449 C 0.72078 0.30579 0.4197 0.0
C450 C 0.81249 0.37345 0.37269 0.0
C451 C 0.72228 0.35018 0.40436 0.0
C452 C 0.85946 0.45459 0.33428 0.0
C453 C 0.89426 0.40185 0.2905 0.0
N454 N 0.7675 0.38239 0.38168 0.0
N455 N 0.87454 0.38278 0.32328 0.0
H456 H 0.53208 0.76667 0.6245 0.0
H457 H 0.35144 0.51828 0.75527 0.0
H458 H 0.50732 0.6095 0.60618 0.0
H459 H 0.32132 0.64848 0.74066 0.0
H460 H 0.42894 0.55847 0.7099 0.0
H461 H 0.48547 0.73545 0.68137 0.0
C462 C 0.51913 0.72649 0.63325 0.0
C463 C 0.52165 0.68984 0.61042 0.0
C464 C 0.40505 0.57791 0.71673 0.0
C465 C 0.4662 0.65311 0.67416 0.0
C466 C 0.36022 0.55467 0.74214 0.0
C467 C 0.3301 0.58022 0.75184 0.0
C468 C 0.4201 0.62719 0.70142 0.0
C469 C 0.34334 0.62734 0.7341 0.0
C470 C 0.49164 0.70832 0.66532 0.0
C471 C 0.50519 0.63856 0.62297 0.0
N472 N 0.3879 0.6496 0.71 0.0
N473 N 0.47616 0.62077 0.65372 0.0
loop_
_geom_bond_atom_site_label_1
_geom_bond_atom_site_label_2
_geom_bond_distance
_geom_bond_site_symmetry_2
_ccdc_geom_bond_type
Co0 O3 1.970 1_455 S
Co0 N17 1.989 1_465 S
Co0 O25 1.967 1_565 S
Co0 O32 1.920 1_565 S
Co1 O4 1.966 1_445 S
Co1 N10 2.022 . S
Co1 N18 1.993 1_455 S
Co1 O26 1.941 . S
C2 O3 1.258 . S
C2 O4 1.263 . S
O3 Co0 1.970 1_655 S
O3 C2 1.258 . S
O4 Co1 1.966 1_665 S
O4 C2 1.263 . S
C5 O6 1.235 . S
C5 O32 1.289 1_665 S
O6 C5 1.235 . S
C7 C9 1.400 1_565 S
C7 N10 1.351 1_665 S
C7 C12 1.501 . S
C8 C9 1.387 1_455 S
C8 N11 1.341 . S
C9 C7 1.400 1_545 S
C9 C8 1.387 1_655 S
N10 Co1 2.022 . S
N10 C7 1.351 1_445 S
N10 N11 1.365 . S
N11 C8 1.341 . S
N11 N10 1.365 . S
N11 H31 0.862 . S
C12 C7 1.501 . S
C12 H13 0.961 . S
C12 H14 0.961 . S
C12 H15 0.960 . S
H13 C12 0.961 . S
H14 C12 0.961 . S
H15 C12 0.960 . S
C16 N17 1.342 . S
C16 C20 1.401 . S
C16 C21 1.499 . S
N17 Co0 1.989 1_645 S
N17 C16 1.342 . S
N17 N18 1.388 . S
N18 Co1 1.993 1_655 S
N18 N17 1.388 . S
N18 C19 1.346 . S
C19 N18 1.346 . S
C19 C20 1.396 . S
C19 C29 1.510 . S
C20 C16 1.401 . S
C20 C19 1.396 . S
C21 C16 1.499 . S
C21 H22 0.959 . S
C21 H23 0.960 . S
C21 H24 0.961 . S
H22 C21 0.959 . S
H23 C21 0.960 . S
H24 C21 0.961 . S
O25 Co0 1.967 1_545 S
O25 C33 1.258 . S
O26 Co1 1.941 . S
O26 C33 1.266 . S
H27 C29 0.959 . S
H28 C29 0.961 . S
C29 C19 1.510 . S
C29 H27 0.959 . S
C29 H28 0.961 . S
C29 H30 0.960 . S
H30 C29 0.960 . S
H31 N11 0.862 . S
O32 Co0 1.920 1_545 S
O32 C5 1.289 1_445 S
C33 O25 1.258 . S
C33 O26 1.266 . S
Co34 O37 1.970 1_545 S
Co34 N51 1.989 . S
Co34 O59 1.967 1_445 S
Co34 O66 1.920 . S
Co35 O38 1.966 1_655 S
Co35 N44 2.022 . S
Co35 N52 1.993 1_665 S
Co35 O60 1.941 . S
C36 O37 1.258 . S
C36 O38 1.263 . S
O37 Co34 1.970 1_565 S
O37 C36 1.258 . S
O38 Co35 1.966 1_455 S
O38 C36 1.263 . S
C39 O40 1.235 . S
C39 O66 1.289 . S
O40 C39 1.235 . S
C41 C43 1.400 . S
C41 N44 1.351 1_445 S
C41 C46 1.501 1_545 S
C42 C43 1.387 1_655 S
C42 N45 1.341 . S
C43 C41 1.400 . S
C43 C42 1.387 1_455 S
N44 Co35 2.022 . S
N44 C41 1.351 1_665 S
N44 N45 1.365 1_565 S
N45 C42 1.341 . S
N45 N44 1.365 1_545 S
N45 H65 0.862 . S
C46 C41 1.501 1_565 S
C46 H47 0.961 . S
C46 H48 0.961 1_565 S
C46 H49 0.960 . S
H47 C46 0.961 . S
H48 C46 0.961 1_545 S
H49 C46 0.960 . S
C50 N51 1.342 . S
C50 C54 1.401 . S
C50 C55 1.499 . S
N51 Co34 1.989 . S
N51 C50 1.342 . S
N51 N52 1.388 . S
N52 Co35 1.993 1_445 S
N52 N51 1.388 . S
N52 C53 1.346 . S
C53 N52 1.346 . S
C53 C54 1.396 . S
C53 C63 1.510 . S
C54 C50 1.401 . S
C54 C53 1.396 . S
C55 C50 1.499 . S
C55 H56 0.959 . S
C55 H57 0.960 . S
C55 H58 0.961 . S
H56 C55 0.959 . S
H57 C55 0.960 . S
H58 C55 0.961 . S
O59 Co34 1.967 1_665 S
O59 C67 1.258 . S
O60 Co35 1.941 . S
O60 C67 1.266 . S
H61 C63 0.959 . S
H62 C63 0.961 . S
C63 C53 1.510 . S
C63 H61 0.959 . S
C63 H62 0.961 . S
C63 H64 0.960 . S
H64 C63 0.960 . S
H65 N45 0.862 . S
O66 Co34 1.920 . S
O66 C39 1.289 . S
C67 O59 1.258 . S
C67 O60 1.266 . S
Co68 O71 1.970 . S
Co68 N85 1.989 . S
Co68 O93 1.967 . S
Co68 O100 1.920 . S
Co69 O72 1.966 . S
Co69 N78 2.022 . S
Co69 N86 1.993 . S
Co69 O94 1.941 . S
C70 O71 1.258 . S
C70 O72 1.263 . S
O71 Co68 1.970 . S
O71 C70 1.258 . S
O72 Co69 1.966 . S
O72 C70 1.263 . S
C73 O74 1.235 . S
C73 O100 1.289 . S
O74 C73 1.235 . S
C75 C77 1.400 . S
C75 N78 1.351 . S
C75 C80 1.501 . S
C76 C77 1.387 . S
C76 N79 1.341 . S
C77 C75 1.400 . S
C77 C76 1.387 . S
N78 Co69 2.022 . S
N78 C75 1.351 . S
N78 N79 1.365 . S
N79 C76 1.341 . S
N79 N78 1.365 . S
N79 H99 0.862 . S
C80 C75 1.501 . S
C80 H81 0.961 . S
C80 H82 0.961 . S
C80 H83 0.960 . S
H81 C80 0.961 . S
H82 C80 0.961 . S
H83 C80 0.960 . S
C84 N85 1.342 . S
C84 C88 1.401 . S
C84 C89 1.499 . S
N85 Co68 1.989 . S
N85 C84 1.342 . S
N85 N86 1.388 . S
N86 Co69 1.993 . S
N86 N85 1.388 . S
N86 C87 1.346 . S
C87 N86 1.346 . S
C87 C88 1.396 . S
C87 C97 1.510 . S
C88 C84 1.401 . S
C88 C87 1.396 . S
C89 C84 1.499 . S
C89 H90 0.959 . S
C89 H91 0.960 . S
C89 H92 0.961 . S
H90 C89 0.959 . S
H91 C89 0.960 . S
H92 C89 0.961 . S
O93 Co68 1.967 . S
O93 C101 1.258 . S
O94 Co69 1.941 . S
O94 C101 1.266 . S
H95 C97 0.959 . S
H96 C97 0.961 . S
C97 C87 1.510 . S
C97 H95 0.959 . S
C97 H96 0.961 . S
C97 H98 0.960 . S
H98 C97 0.960 . S
H99 N79 0.862 . S
O100 Co68 1.920 . S
O100 C73 1.289 . S
C101 O93 1.258 . S
C101 O94 1.266 . S
Co102 O105 1.970 . S
Co102 N119 1.989 . S
Co102 O127 1.967 . S
Co102 O134 1.920 . S
Co103 O106 1.966 . S
Co103 N112 2.022 . S
Co103 N120 1.993 . S
Co103 O128 1.941 . S
C104 O105 1.258 . S
C104 O106 1.263 . S
O105 Co102 1.970 . S
O105 C104 1.258 . S
O106 Co103 1.966 . S
O106 C104 1.263 . S
C107 O108 1.235 . S
C107 O134 1.289 . S
O108 C107 1.235 . S
C109 C111 1.400 1_554 S
C109 N112 1.351 . S
C109 C114 1.501 . S
C110 C111 1.387 . S
C110 N113 1.341 1_556 S
C111 C109 1.400 1_556 S
C111 C110 1.387 . S
N112 Co103 2.022 . S
N112 C109 1.351 . S
N112 N113 1.365 . S
N113 C110 1.341 1_554 S
N113 N112 1.365 . S
N113 H133 0.862 . S
C114 C109 1.501 . S
C114 H115 0.961 . S
C114 H116 0.961 . S
C114 H117 0.960 . S
H115 C114 0.961 . S
H116 C114 0.961 . S
H117 C114 0.960 . S
C118 N119 1.342 . S
C118 C122 1.401 . S
C118 C123 1.499 . S
N119 Co102 1.989 . S
N119 C118 1.342 . S
N119 N120 1.388 . S
N120 Co103 1.993 . S
N120 N119 1.388 . S
N120 C121 1.346 . S
C121 N120 1.346 . S
C121 C122 1.396 . S
C121 C131 1.510 . S
C122 C118 1.401 . S
C122 C121 1.396 . S
C123 C118 1.499 . S
C123 H124 0.959 . S
C123 H125 0.960 . S
C123 H126 0.961 . S
H124 C123 0.959 . S
H125 C123 0.960 . S
H126 C123 0.961 . S
O127 Co102 1.967 . S
O127 C135 1.258 . S
O128 Co103 1.941 . S
O128 C135 1.266 . S
H129 C131 0.959 . S
H130 C131 0.961 . S
C131 C121 1.510 . S
C131 H129 0.959 . S
C131 H130 0.961 . S
C131 H132 0.960 . S
H132 C131 0.960 . S
H133 N113 0.862 . S
O134 Co102 1.920 . S
O134 C107 1.289 . S
C135 O127 1.258 . S
C135 O128 1.266 . S
Co136 O139 1.970 . S
Co136 N153 1.989 . S
Co136 O161 1.967 . S
Co136 O168 1.920 . S
Co137 O140 1.966 . S
Co137 N146 2.022 . S
Co137 N154 1.993 . S
Co137 O162 1.941 . S
C138 O139 1.258 . S
C138 O140 1.263 . S
O139 Co136 1.970 . S
O139 C138 1.258 . S
O140 Co137 1.966 . S
O140 C138 1.263 . S
C141 O142 1.235 . S
C141 O168 1.289 . S
O142 C141 1.235 . S
C143 C145 1.400 1_556 S
C143 N146 1.351 . S
C143 C148 1.501 . S
C144 C145 1.387 . S
C144 N147 1.341 1_554 S
C145 C143 1.400 1_554 S
C145 C144 1.387 . S
N146 Co137 2.022 . S
N146 C143 1.351 . S
N146 N147 1.365 . S
N147 C144 1.341 1_556 S
N147 N146 1.365 . S
N147 H167 0.862 . S
C148 C143 1.501 . S
C148 H149 0.961 . S
C148 H150 0.961 . S
C148 H151 0.960 . S
H149 C148 0.961 . S
H150 C148 0.961 . S
H151 C148 0.960 . S
C152 N153 1.342 . S
C152 C156 1.401 . S
C152 C157 1.499 . S
N153 Co136 1.989 . S
N153 C152 1.342 . S
N153 N154 1.388 . S
N154 Co137 1.993 . S
N154 N153 1.388 . S
N154 C155 1.346 . S
C155 N154 1.346 . S
C155 C156 1.396 . S
C155 C165 1.510 . S
C156 C152 1.401 . S
C156 C155 1.396 . S
C157 C152 1.499 . S
C157 H158 0.959 . S
C157 H159 0.960 . S
C157 H160 0.961 . S
H158 C157 0.959 . S
H159 C157 0.960 . S
H160 C157 0.961 . S
O161 Co136 1.967 . S
O161 C169 1.258 . S
O162 Co137 1.941 . S
O162 C169 1.266 . S
H163 C165 0.959 . S
H164 C165 0.961 . S
C165 C155 1.510 . S
C165 H163 0.959 . S
C165 H164 0.961 . S
C165 H166 0.960 . S
H166 C165 0.960 . S
H167 N147 0.862 . S
O168 Co136 1.920 . S
O168 C141 1.289 . S
C169 O161 1.258 . S
C169 O162 1.266 . S
Co170 O173 1.970 . S
Co170 N187 1.989 . S
Co170 O195 1.967 . S
Co170 O202 1.920 . S
Co171 O174 1.966 . S
Co171 N180 2.022 . S
Co171 N188 1.993 . S
Co171 O196 1.941 . S
C172 O173 1.258 . S
C172 O174 1.263 . S
O173 Co170 1.970 . S
O173 C172 1.258 . S
O174 Co171 1.966 . S
O174 C172 1.263 . S
C175 O176 1.235 . S
C175 O202 1.289 . S
O176 C175 1.235 . S
C177 C179 1.400 . S
C177 N180 1.351 . S
C177 C182 1.501 . S
C178 C179 1.387 . S
C178 N181 1.341 . S
C179 C177 1.400 . S
C179 C178 1.387 . S
N180 Co171 2.022 . S
N180 C177 1.351 . S
N180 N181 1.365 . S
N181 C178 1.341 . S
N181 N180 1.365 . S
N181 H201 0.862 . S
C182 C177 1.501 . S
C182 H183 0.961 . S
C182 H184 0.961 . S
C182 H185 0.960 . S
H183 C182 0.961 . S
H184 C182 0.961 . S
H185 C182 0.960 . S
C186 N187 1.342 . S
C186 C190 1.401 . S
C186 C191 1.499 . S
N187 Co170 1.989 . S
N187 C186 1.342 . S
N187 N188 1.388 . S
N188 Co171 1.993 . S
N188 N187 1.388 . S
N188 C189 1.346 . S
C189 N188 1.346 . S
C189 C190 1.396 . S
C189 C199 1.510 . S
C190 C186 1.401 . S
C190 C189 1.396 . S
C191 C186 1.499 . S
C191 H192 0.959 . S
C191 H193 0.960 . S
C191 H194 0.961 . S
H192 C191 0.959 . S
H193 C191 0.960 . S
H194 C191 0.961 . S
O195 Co170 1.967 . S
O195 C203 1.258 . S
O196 Co171 1.941 . S
O196 C203 1.266 . S
H197 C199 0.959 . S
H198 C199 0.961 . S
C199 C189 1.510 . S
C199 H197 0.959 . S
C199 H198 0.961 . S
C199 H200 0.960 . S
H200 C199 0.960 . S
H201 N181 0.862 . S
O202 Co170 1.920 . S
O202 C175 1.289 . S
C203 O195 1.258 . S
C203 O196 1.266 . S
H204 C210 0.930 . S
H205 C214 0.930 . S
H206 C219 0.929 . S
H207 C217 0.929 . S
H208 C212 0.929 . S
H209 C218 0.929 . S
C210 H204 0.930 . S
C210 C211 1.367 . S
C210 C218 1.378 . S
C211 C210 1.367 . S
C211 C219 1.433 . S
C212 H208 0.929 . S
C212 C214 1.378 . S
C212 C216 1.350 . S
C213 C216 1.463 . S
C213 C218 1.350 . S
C213 N221 1.427 . S
C214 H205 0.930 . S
C214 C212 1.378 . S
C214 C215 1.367 . S
C215 C214 1.367 . S
C215 C217 1.433 . S
C216 C212 1.350 . S
C216 C213 1.463 . S
C216 N220 1.427 . S
C217 H207 0.929 . S
C217 C215 1.433 . S
C217 N220 1.384 . S
C218 H209 0.929 . S
C218 C210 1.378 . S
C218 C213 1.350 . S
C219 H206 0.929 . S
C219 C211 1.433 . S
C219 N221 1.384 . S
N220 C216 1.427 . S
N220 C217 1.384 . S
N221 C213 1.427 . S
N221 C219 1.384 . S
H222 C228 0.930 . S
H223 C232 0.930 . S
H224 C237 0.929 . S
H225 C235 0.929 . S
H226 C230 0.929 . S
H227 C236 0.929 . S
C228 H222 0.930 . S
C228 C229 1.367 . S
C228 C236 1.378 . S
C229 C228 1.367 . S
C229 C237 1.433 . S
C230 H226 0.929 . S
C230 C232 1.378 . S
C230 C234 1.350 . S
C231 C234 1.463 . S
C231 C236 1.350 . S
C231 N239 1.427 . S
C232 H223 0.930 . S
C232 C230 1.378 . S
C232 C233 1.367 . S
C233 C232 1.367 . S
C233 C235 1.433 . S
C234 C230 1.350 . S
C234 C231 1.463 . S
C234 N238 1.427 . S
C235 H225 0.929 . S
C235 C233 1.433 . S
C235 N238 1.384 . S
C236 H227 0.929 . S
C236 C228 1.378 . S
C236 C231 1.350 . S
C237 H224 0.929 . S
C237 C229 1.433 . S
C237 N239 1.384 . S
N238 C234 1.427 . S
N238 C235 1.384 . S
N239 C231 1.427 . S
N239 C237 1.384 . S
H240 C246 0.930 . S
H241 C250 0.930 1_455 S
H242 C255 0.929 . S
H243 C253 0.929 . S
H244 C248 0.929 . S
H245 C254 0.929 . S
C246 H240 0.930 . S
C246 C247 1.367 . S
C246 C254 1.378 . S
C247 C246 1.367 . S
C247 C255 1.433 . S
C248 H244 0.929 . S
C248 C250 1.378 . S
C248 C252 1.350 . S
C249 C252 1.463 . S
C249 C254 1.350 . S
C249 N257 1.427 . S
C250 H241 0.930 1_655 S
C250 C248 1.378 . S
C250 C251 1.367 . S
C251 C250 1.367 . S
C251 C253 1.433 . S
C252 C248 1.350 . S
C252 C249 1.463 . S
C252 N256 1.427 . S
C253 H243 0.929 . S
C253 C251 1.433 . S
C253 N256 1.384 . S
C254 H245 0.929 . S
C254 C246 1.378 . S
C254 C249 1.350 . S
C255 H242 0.929 . S
C255 C247 1.433 . S
C255 N257 1.384 . S
N256 C252 1.427 . S
N256 C253 1.384 . S
N257 C249 1.427 . S
N257 C255 1.384 . S
H258 C264 0.930 . S
H259 C268 0.930 . S
H260 C273 0.929 . S
H261 C271 0.929 . S
H262 C266 0.929 . S
H263 C272 0.929 . S
C264 H258 0.930 . S
C264 C265 1.367 . S
C264 C272 1.378 . S
C265 C264 1.367 . S
C265 C273 1.433 . S
C266 H262 0.929 . S
C266 C268 1.378 . S
C266 C270 1.350 . S
C267 C270 1.463 . S
C267 C272 1.350 . S
C267 N275 1.427 . S
C268 H259 0.930 . S
C268 C266 1.378 . S
C268 C269 1.367 . S
C269 C268 1.367 . S
C269 C271 1.433 . S
C270 C266 1.350 . S
C270 C267 1.463 . S
C270 N274 1.427 . S
C271 H261 0.929 . S
C271 C269 1.433 . S
C271 N274 1.384 . S
C272 H263 0.929 . S
C272 C264 1.378 . S
C272 C267 1.350 . S
C273 H260 0.929 . S
C273 C265 1.433 . S
C273 N275 1.384 . S
N274 C270 1.427 . S
N274 C271 1.384 . S
N275 C267 1.427 . S
N275 C273 1.384 . S
H276 C282 0.930 . S
H277 C286 0.930 . S
H278 C291 0.929 . S
H279 C289 0.929 . S
H280 C284 0.929 . S
H281 C290 0.929 . S
C282 H276 0.930 . S
C282 C283 1.367 . S
C282 C290 1.378 . S
C283 C282 1.367 . S
C283 C291 1.433 . S
C284 H280 0.929 . S
C284 C286 1.378 . S
C284 C288 1.350 . S
C285 C288 1.463 . S
C285 C290 1.350 . S
C285 N293 1.427 . S
C286 H277 0.930 . S
C286 C284 1.378 . S
C286 C287 1.367 . S
C287 C286 1.367 . S
C287 C289 1.433 . S
C288 C284 1.350 . S
C288 C285 1.463 . S
C288 N292 1.427 . S
C289 H279 0.929 . S
C289 C287 1.433 . S
C289 N292 1.384 . S
C290 H281 0.929 . S
C290 C282 1.378 . S
C290 C285 1.350 . S
C291 H278 0.929 . S
C291 C283 1.433 . S
C291 N293 1.384 . S
N292 C288 1.427 . S
N292 C289 1.384 . S
N293 C285 1.427 . S
N293 C291 1.384 . S
H294 C300 0.930 . S
H295 C304 0.930 . S
H296 C309 0.929 . S
H297 C307 0.929 . S
H298 C302 0.929 . S
H299 C308 0.929 . S
C300 H294 0.930 . S
C300 C301 1.367 . S
C300 C308 1.378 . S
C301 C300 1.367 . S
C301 C309 1.433 . S
C302 H298 0.929 . S
C302 C304 1.378 . S
C302 C306 1.350 . S
C303 C306 1.463 . S
C303 C308 1.350 . S
C303 N311 1.427 . S
C304 H295 0.930 . S
C304 C302 1.378 . S
C304 C305 1.367 . S
C305 C304 1.367 . S
C305 C307 1.433 . S
C306 C302 1.350 . S
C306 C303 1.463 . S
C306 N310 1.427 . S
C307 H297 0.929 . S
C307 C305 1.433 . S
C307 N310 1.384 . S
C308 H299 0.929 . S
C308 C300 1.378 . S
C308 C303 1.350 . S
C309 H296 0.929 . S
C309 C301 1.433 . S
C309 N311 1.384 . S
N310 C306 1.427 . S
N310 C307 1.384 . S
N311 C303 1.427 . S
N311 C309 1.384 . S
H312 C318 0.930 . S
H313 C322 0.930 . S
H314 C327 0.929 . S
H315 C325 0.929 . S
H316 C320 0.929 . S
H317 C326 0.929 1_455 S
C318 H312 0.930 . S
C318 C319 1.367 . S
C318 C326 1.378 . S
C319 C318 1.367 . S
C319 C327 1.433 . S
C320 H316 0.929 . S
C320 C322 1.378 . S
C320 C324 1.350 . S
C321 C324 1.463 1_655 S
C321 C326 1.350 . S
C321 N329 1.427 . S
C322 H313 0.930 . S
C322 C320 1.378 . S
C322 C323 1.367 . S
C323 C322 1.367 . S
C323 C325 1.433 . S
C324 C320 1.350 . S
C324 C321 1.463 1_455 S
C324 N328 1.427 . S
C325 H315 0.929 . S
C325 C323 1.433 . S
C325 N328 1.384 . S
C326 H317 0.929 1_655 S
C326 C318 1.378 . S
C326 C321 1.350 . S
C327 H314 0.929 . S
C327 C319 1.433 . S
C327 N329 1.384 . S
N328 C324 1.427 . S
N328 C325 1.384 . S
N329 C321 1.427 . S
N329 C327 1.384 . S
H330 C336 0.930 . S
H331 C340 0.930 . S
H332 C345 0.929 . S
H333 C343 0.929 . S
H334 C338 0.929 . S
H335 C344 0.929 . S
C336 H330 0.930 . S
C336 C337 1.367 . S
C336 C344 1.378 . S
C337 C336 1.367 . S
C337 C345 1.433 . S
C338 H334 0.929 . S
C338 C340 1.378 . S
C338 C342 1.350 . S
C339 C342 1.463 . S
C339 C344 1.350 . S
C339 N347 1.427 . S
C340 H331 0.930 . S
C340 C338 1.378 . S
C340 C341 1.367 . S
C341 C340 1.367 . S
C341 C343 1.433 . S
C342 C338 1.350 . S
C342 C339 1.463 . S
C342 N346 1.427 . S
C343 H333 0.929 . S
C343 C341 1.433 . S
C343 N346 1.384 . S
C344 H335 0.929 . S
C344 C336 1.378 . S
C344 C339 1.350 . S
C345 H332 0.929 . S
C345 C337 1.433 . S
C345 N347 1.384 . S
N346 C342 1.427 . S
N346 C343 1.384 . S
N347 C339 1.427 . S
N347 C345 1.384 . S
H348 C354 0.930 . S
H349 C358 0.930 . S
H350 C363 0.929 . S
H351 C361 0.929 . S
H352 C356 0.929 . S
H353 C362 0.929 . S
C354 H348 0.930 . S
C354 C355 1.367 . S
C354 C362 1.378 . S
C355 C354 1.367 . S
C355 C363 1.433 . S
C356 H352 0.929 . S
C356 C358 1.378 . S
C356 C360 1.350 . S
C357 C360 1.463 . S
C357 C362 1.350 1_545 S
C357 N365 1.427 1_545 S
C358 H349 0.930 . S
C358 C356 1.378 . S
C358 C359 1.367 . S
C359 C358 1.367 . S
C359 C361 1.433 . S
C360 C356 1.350 . S
C360 C357 1.463 . S
C360 N364 1.427 . S
C361 H351 0.929 . S
C361 C359 1.433 . S
C361 N364 1.384 . S
C362 H353 0.929 . S
C362 C354 1.378 . S
C362 C357 1.350 1_565 S
C363 H350 0.929 . S
C363 C355 1.433 . S
C363 N365 1.384 . S
N364 C360 1.427 . S
N364 C361 1.384 . S
N365 C357 1.427 1_565 S
N365 C363 1.384 . S
H366 C372 0.930 . S
H367 C376 0.930 . S
H368 C381 0.929 . S
H369 C379 0.929 . S
H370 C374 0.933 . S
H371 C380 0.929 . S
C372 H366 0.930 . S
C372 C373 1.367 . S
C372 C380 1.378 . S
C373 C372 1.367 . S
C373 C381 1.433 1_455 S
C374 H370 0.933 . S
C374 C376 1.378 1_545 S
C374 C378 1.346 1_655 S
C375 C378 1.463 . S
C375 C380 1.350 . S
C375 N383 1.427 1_455 S
C376 H367 0.930 . S
C376 C374 1.378 1_565 S
C376 C377 1.367 . S
C377 C376 1.367 . S
C377 C379 1.433 1_655 S
C378 C374 1.346 1_455 S
C378 C375 1.463 . S
C378 N382 1.427 . S
C379 H369 0.929 . S
C379 C377 1.433 1_455 S
C379 N382 1.384 1_565 S
C380 H371 0.929 . S
C380 C372 1.378 . S
C380 C375 1.350 . S
C381 H368 0.929 . S
C381 C373 1.433 1_655 S
C381 N383 1.384 . S
N382 C378 1.427 . S
N382 C379 1.384 1_545 S
N383 C375 1.427 1_655 S
N383 C381 1.384 . S
H384 C390 0.930 . S
H385 C394 0.930 . S
H386 C399 0.929 . S
H387 C397 0.929 . S
H388 C392 0.929 . S
H389 C398 0.929 . S
C390 H384 0.930 . S
C390 C391 1.367 . S
C390 C398 1.378 . S
C391 C390 1.367 . S
C391 C399 1.433 . S
C392 H388 0.929 . S
C392 C394 1.378 . S
C392 C396 1.350 . S
C393 C396 1.463 . S
C393 C398 1.350 . S
C393 N401 1.427 . S
C394 H385 0.930 . S
C394 C392 1.378 . S
C394 C395 1.367 . S
C395 C394 1.367 . S
C395 C397 1.433 . S
C396 C392 1.350 . S
C396 C393 1.463 . S
C396 N400 1.427 . S
C397 H387 0.929 . S
C397 C395 1.433 . S
C397 N400 1.384 . S
C398 H389 0.929 . S
C398 C390 1.378 . S
C398 C393 1.350 . S
C399 H386 0.929 . S
C399 C391 1.433 . S
C399 N401 1.384 . S
N400 C396 1.427 . S
N400 C397 1.384 . S
N401 C393 1.427 . S
N401 C399 1.384 . S
H402 C408 0.930 . S
H403 C412 0.930 . S
H404 C417 0.929 . S
H405 C415 0.929 . S
H406 C410 0.929 . S
H407 C416 0.929 . S
C408 H402 0.930 . S
C408 C409 1.367 . S
C408 C416 1.378 . S
C409 C408 1.367 . S
C409 C417 1.433 . S
C410 H406 0.929 . S
C410 C412 1.378 . S
C410 C414 1.350 . S
C411 C414 1.463 . S
C411 C416 1.350 . S
C411 N419 1.427 . S
C412 H403 0.930 . S
C412 C410 1.378 . S
C412 C413 1.367 . S
C413 C412 1.367 . S
C413 C415 1.433 . S
C414 C410 1.350 . S
C414 C411 1.463 . S
C414 N418 1.427 . S
C415 H405 0.929 . S
C415 C413 1.433 . S
C415 N418 1.384 . S
C416 H407 0.929 . S
C416 C408 1.378 . S
C416 C411 1.350 . S
C417 H404 0.929 . S
C417 C409 1.433 . S
C417 N419 1.384 . S
N418 C414 1.427 . S
N418 C415 1.384 . S
N419 C411 1.427 . S
N419 C417 1.384 . S
H420 C426 0.930 . S
H421 C430 0.930 . S
H422 C435 0.929 . S
H423 C433 0.929 . S
H424 C428 0.929 1_655 S
H425 C434 0.929 . S
C426 H420 0.930 . S
C426 C427 1.367 1_545 S
C426 C434 1.378 1_655 S
C427 C426 1.367 1_565 S
C427 C435 1.433 . S
C428 H424 0.929 1_455 S
C428 C430 1.378 . S
C428 C432 1.350 1_565 S
C429 C432 1.463 1_554 S
C429 C434 1.350 . S
C429 N437 1.427 1_445 S
C430 H421 0.930 . S
C430 C428 1.378 . S
C430 C431 1.367 1_565 S
C431 C430 1.367 1_545 S
C431 C433 1.433 . S
C432 C428 1.350 1_545 S
C432 C429 1.463 1_556 S
C432 N436 1.427 . S
C433 H423 0.929 . S
C433 C431 1.433 . S
C433 N436 1.384 . S
C434 H425 0.929 . S
C434 C426 1.378 1_455 S
C434 C429 1.350 . S
C435 H422 0.929 . S
C435 C427 1.433 . S
C435 N437 1.384 . S
N436 C432 1.427 . S
N436 C433 1.384 . S
N437 C429 1.427 1_665 S
N437 C435 1.384 . S
H438 C444 0.930 . S
H439 C448 0.930 . S
H440 C453 0.929 . S
H441 C451 0.929 . S
H442 C446 0.929 . S
H443 C452 0.929 . S
C444 H438 0.930 . S
C444 C445 1.367 . S
C444 C452 1.378 . S
C445 C444 1.367 . S
C445 C453 1.433 . S
C446 H442 0.929 . S
C446 C448 1.378 . S
C446 C450 1.350 . S
C447 C450 1.463 . S
C447 C452 1.350 . S
C447 N455 1.427 . S
C448 H439 0.930 . S
C448 C446 1.378 . S
C448 C449 1.367 . S
C449 C448 1.367 . S
C449 C451 1.433 . S
C450 C446 1.350 . S
C450 C447 1.463 . S
C450 N454 1.427 . S
C451 H441 0.929 . S
C451 C449 1.433 . S
C451 N454 1.384 . S
C452 H443 0.929 . S
C452 C444 1.378 . S
C452 C447 1.350 . S
C453 H440 0.929 . S
C453 C445 1.433 . S
C453 N455 1.384 . S
N454 C450 1.427 . S
N454 C451 1.384 . S
N455 C447 1.427 . S
N455 C453 1.384 . S
H456 C462 0.930 . S
H457 C466 0.930 . S
H458 C471 0.929 . S
H459 C469 0.929 . S
H460 C464 0.929 . S
H461 C470 0.929 . S
C462 H456 0.930 . S
C462 C463 1.367 . S
C462 C470 1.378 . S
C463 C462 1.367 . S
C463 C471 1.433 . S
C464 H460 0.929 . S
C464 C466 1.378 . S
C464 C468 1.350 . S
C465 C468 1.463 . S
C465 C470 1.350 . S
C465 N473 1.427 . S
C466 H457 0.930 . S
C466 C464 1.378 . S
C466 C467 1.367 . S
C467 C466 1.367 . S
C467 C469 1.433 . S
C468 C464 1.350 . S
C468 C465 1.463 . S
C468 N472 1.427 . S
C469 H459 0.929 . S
C469 C467 1.433 . S
C469 N472 1.384 . S
C470 H461 0.929 . S
C470 C462 1.378 . S
C470 C465 1.350 . S
C471 H458 0.929 . S
C471 C463 1.433 . S
C471 N473 1.384 . S
N472 C468 1.427 . S
N472 C469 1.384 . S
N473 C465 1.427 . S
N473 C471 1.384 . S
C211 C33 1.301 . S
C215 C135 1.301 . S
C229 C20 1.819 . S
C233 C104 1.817 . S
C247 C122 1.815 . S
C251 C2 1.813 . S
C265 C54 1.811 . S
C269 C138 1.809 . S
C283 C169 1.300 . S
C287 C67 1.298 . S
C301 C36 1.814 . S
C305 C156 1.815 . S
C319 C101 1.299 . S
C323 C203 1.301 . S
C337 C88 1.811 . S
C341 C172 1.809 . S
C355 C190 1.818 . S
C359 C70 1.816 . S
C373 C43 1.931 . S
C377 C9 1.929 1_565 S
C391 C111 1.918 . S
C395 C77 1.916 . S
C409 C179 1.923 . S
C413 C145 1.919 . S
C427 C5 0.417 . S
C431 C39 0.412 . S
C445 C107 0.424 . S
C449 C73 0.417 . S
C463 C175 0.415 . S
C467 C141 0.410 . S
