# Generated by pormake.
# Topology why, (6)-cn, num edge types: 1
# Building blocks:
#     Node 0, Type 0, BuildingBlock: MIFKUJ_clean_sbu_0, # of connection points: 6
#     Node 1, Type 0, BuildingBlock: MIFKUJ_clean_sbu_0, # of connection points: 6
#     Node 2, Type 0, BuildingBlock: MIFKUJ_clean_sbu_0, # of connection points: 6
#     Node 3, Type 0, BuildingBlock: MIFKUJ_clean_sbu_0, # of connection points: 6
#     Node 4, Type 0, BuildingBlock: MIFKUJ_clean_sbu_0, # of connection points: 6
#     Node 5, Type 0, BuildingBlock: MIFKUJ_clean_sbu_0, # of connection points: 6
#     Node 6, Type 0, BuildingBlock: MIFKUJ_clean_sbu_0, # of connection points: 6
#     Node 7, Type 0, BuildingBlock: MIFKUJ_clean_sbu_0, # of connection points: 6
#     Node 8, Type 0, BuildingBlock: MIFKUJ_clean_sbu_0, # of connection points: 6
#     Node 9, Type 0, BuildingBlock: MIFKUJ_clean_sbu_0, # of connection points: 6
#     Node 10, Type 0, BuildingBlock: MIFKUJ_clean_sbu_0, # of connection points: 6
#     Node 11, Type 0, BuildingBlock: MIFKUJ_clean_sbu_0, # of connection points: 6
#     Node 12, Type 0, BuildingBlock: MIFKUJ_clean_sbu_0, # of connection points: 6
#     Node 13, Type 0, BuildingBlock: MIFKUJ_clean_sbu_0, # of connection points: 6
#     Node 14, Type 0, BuildingBlock: MIFKUJ_clean_sbu_0, # of connection points: 6
#     Node 15, Type 0, BuildingBlock: MIFKUJ_clean_sbu_0, # of connection points: 6
#     Edge 16, Type (0, 0), BuildingBlock: XUDNAN_clean_linker_2, # of connection points: 2
#     Edge 17, Type (0, 0), BuildingBlock: XUDNAN_clean_linker_2, # of connection points: 2
#     Edge 18, Type (0, 0), BuildingBlock: XUDNAN_clean_linker_2, # of connection points: 2
#     Edge 19, Type (0, 0), BuildingBlock: XUDNAN_clean_linker_2, # of connection points: 2
#     Edge 20, Type (0, 0), BuildingBlock: XUDNAN_clean_linker_2, # of connection points: 2
#     Edge 21, Type (0, 0), BuildingBlock: XUDNAN_clean_linker_2, # of connection points: 2
#     Edge 22, Type (0, 0), BuildingBlock: XUDNAN_clean_linker_2, # of connection points: 2
#     Edge 23, Type (0, 0), BuildingBlock: XUDNAN_clean_linker_2, # of connection points: 2
#     Edge 24, Type (0, 0), BuildingBlock: XUDNAN_clean_linker_2, # of connection points: 2
#     Edge 25, Type (0, 0), BuildingBlock: XUDNAN_clean_linker_2, # of connection points: 2
#     Edge 26, Type (0, 0), BuildingBlock: XUDNAN_clean_linker_2, # of connection points: 2
#     Edge 27, Type (0, 0), BuildingBlock: XUDNAN_clean_linker_2, # of connection points: 2
#     Edge 28, Type (0, 0), BuildingBlock: XUDNAN_clean_linker_2, # of connection points: 2
#     Edge 29, Type (0, 0), BuildingBlock: XUDNAN_clean_linker_2, # of connection points: 2
#     Edge 30, Type (0, 0), BuildingBlock: XUDNAN_clean_linker_2, # of connection points: 2
#     Edge 31, Type (0, 0), BuildingBlock: XUDNAN_clean_linker_2, # of connection points: 2
#     Edge 32, Type (0, 0), BuildingBlock: XUDNAN_clean_linker_2, # of connection points: 2
#     Edge 33, Type (0, 0), BuildingBlock: XUDNAN_clean_linker_2, # of connection points: 2
#     Edge 34, Type (0, 0), BuildingBlock: XUDNAN_clean_linker_2, # of connection points: 2
#     Edge 35, Type (0, 0), BuildingBlock: XUDNAN_clean_linker_2, # of connection points: 2
#     Edge 36, Type (0, 0), BuildingBlock: XUDNAN_clean_linker_2, # of connection points: 2
#     Edge 37, Type (0, 0), BuildingBlock: XUDNAN_clean_linker_2, # of connection points: 2
#     Edge 38, Type (0, 0), BuildingBlock: XUDNAN_clean_linker_2, # of connection points: 2
#     Edge 39, Type (0, 0), BuildingBlock: XUDNAN_clean_linker_2, # of connection points: 2
#     Edge 40, Type (0, 0), BuildingBlock: XUDNAN_clean_linker_2, # of connection points: 2
#     Edge 41, Type (0, 0), BuildingBlock: XUDNAN_clean_linker_2, # of connection points: 2
#     Edge 42, Type (0, 0), BuildingBlock: XUDNAN_clean_linker_2, # of connection points: 2
#     Edge 43, Type (0, 0), BuildingBlock: XUDNAN_clean_linker_2, # of connection points: 2
#     Edge 44, Type (0, 0), BuildingBlock: XUDNAN_clean_linker_2, # of connection points: 2
#     Edge 45, Type (0, 0), BuildingBlock: XUDNAN_clean_linker_2, # of connection points: 2
#     Edge 46, Type (0, 0), BuildingBlock: XUDNAN_clean_linker_2, # of connection points: 2
#     Edge 47, Type (0, 0), BuildingBlock: XUDNAN_clean_linker_2, # of connection points: 2
#     Edge 48, Type (0, 0), BuildingBlock: XUDNAN_clean_linker_2, # of connection points: 2
#     Edge 49, Type (0, 0), BuildingBlock: XUDNAN_clean_linker_2, # of connection points: 2
#     Edge 50, Type (0, 0), BuildingBlock: XUDNAN_clean_linker_2, # of connection points: 2
#     Edge 51, Type (0, 0), BuildingBlock: XUDNAN_clean_linker_2, # of connection points: 2
#     Edge 52, Type (0, 0), BuildingBlock: XUDNAN_clean_linker_2, # of connection points: 2
#     Edge 53, Type (0, 0), BuildingBlock: XUDNAN_clean_linker_2, # of connection points: 2
#     Edge 54, Type (0, 0), BuildingBlock: XUDNAN_clean_linker_2, # of connection points: 2
#     Edge 55, Type (0, 0), BuildingBlock: XUDNAN_clean_linker_2, # of connection points: 2
#     Edge 56, Type (0, 0), BuildingBlock: XUDNAN_clean_linker_2, # of connection points: 2
#     Edge 57, Type (0, 0), BuildingBlock: XUDNAN_clean_linker_2, # of connection points: 2
#     Edge 58, Type (0, 0), BuildingBlock: XUDNAN_clean_linker_2, # of connection points: 2
#     Edge 59, Type (0, 0), BuildingBlock: XUDNAN_clean_linker_2, # of connection points: 2
#     Edge 60, Type (0, 0), BuildingBlock: XUDNAN_clean_linker_2, # of connection points: 2
#     Edge 61, Type (0, 0), BuildingBlock: XUDNAN_clean_linker_2, # of connection points: 2
#     Edge 62, Type (0, 0), BuildingBlock: XUDNAN_clean_linker_2, # of connection points: 2
#     Edge 63, Type (0, 0), BuildingBlock: XUDNAN_clean_linker_2, # of connection points: 2
# Relax obj value: 0.197
# Max RMSD: 0.172
# Mean RMSD: 0.172
data_MOF--net-why--node1-MIFKUJ_clean_sbu_0--edge1-XUDNAN_clean_linker_2
_symmetry_space_group_name_H-M    P1
_symmetry_Int_Tables_number       1
_symmetry_cell_setting            triclinic
loop_
_symmetry_equiv_pos_as_xyz
'x, y, z'
_cell_length_a     51.167235
_cell_length_b     51.142438
_cell_length_c     30.23965
_cell_angle_alpha  90.055716
_cell_angle_beta   89.927629
_cell_angle_gamma 90.025984
loop_
_atom_site_label
_atom_site_type_symbol
_atom_site_fract_x
_atom_site_fract_y
_atom_site_fract_z
_atom_type_partial_charge
Zn0 Zn 0.31612 0.17843 0.0784 0.0
Zn1 Zn 0.38589 0.16447 0.02913 0.0
C2 C 0.26702 0.18061 0.03628 0.0
O3 O 0.26817 0.20389 0.05457 0.0
C4 C 0.43347 0.18956 0.05346 0.0
O5 O 0.44268 0.16663 0.04164 0.0
O6 O 0.2995 0.19704 0.13015 0.0
O7 O 0.33636 0.14778 0.10414 0.0
O8 O 0.37621 0.13978 0.07773 0.0
C9 C 0.28153 0.186 0.1524 0.0
O10 O 0.27485 0.16188 0.14255 0.0
O11 O 0.28634 0.16517 0.04044 0.0
C12 C 0.41113 0.14791 0.9452 0.0
O13 O 0.39577 0.16453 0.92481 0.0
O14 O 0.40849 0.14428 0.98651 0.0
O15 O 0.35546 0.18005 0.99772 0.0
O16 O 0.3352 0.20627 0.04395 0.0
O17 O 0.4089 0.1934 0.05299 0.0
C18 C 0.35745 0.13454 0.1039 0.0
C19 C 0.34924 0.20297 0.0098 0.0
Zn20 Zn 0.58448 0.5735 0.31509 0.0
Zn21 Zn 0.60294 0.63665 0.262 0.0
C22 C 0.57764 0.52344 0.27886 0.0
O23 O 0.55341 0.53035 0.28727 0.0
C24 C 0.57495 0.67813 0.30336 0.0
O25 O 0.5977 0.68968 0.29839 0.0
O26 O 0.55839 0.56535 0.36307 0.0
O27 O 0.61637 0.59052 0.34212 0.0
O28 O 0.62915 0.62663 0.30763 0.0
C29 C 0.56076 0.5474 0.39179 0.0
O30 O 0.5826 0.53395 0.39367 0.0
O31 O 0.59597 0.53916 0.28863 0.0
C32 C 0.60732 0.67683 0.19578 0.0
O33 O 0.58207 0.67275 0.19254 0.0
O34 O 0.62051 0.66366 0.22352 0.0
O35 O 0.58963 0.60888 0.22077 0.0
O36 O 0.56234 0.59023 0.26772 0.0
O37 O 0.57239 0.65443 0.29143 0.0
C38 C 0.63224 0.60946 0.33745 0.0
C39 C 0.56782 0.59811 0.22902 0.0
Zn40 Zn 0.17658 0.84175 0.56987 0.0
Zn41 Zn 0.11993 0.86151 0.50908 0.0
C42 C 0.22454 0.8439 0.52087 0.0
O43 O 0.22331 0.8185 0.52714 0.0
C44 C 0.07547 0.83303 0.54247 0.0
O45 O 0.06285 0.85421 0.53034 0.0
O46 O 0.19307 0.81933 0.61733 0.0
O47 O 0.15768 0.87155 0.59998 0.0
O48 O 0.1272 0.8884 0.5561 0.0
C49 C 0.20986 0.82935 0.64322 0.0
O50 O 0.2155 0.85431 0.63919 0.0
O51 O 0.20622 0.85821 0.53565 0.0
C52 C 0.08603 0.86516 0.4321 0.0
O53 O 0.09245 0.84047 0.42722 0.0
O54 O 0.09582 0.87813 0.46399 0.0
O55 O 0.1503 0.84555 0.47639 0.0
O56 O 0.15756 0.81695 0.5291 0.0
O57 O 0.1001 0.832 0.53747 0.0
C58 C 0.14079 0.88906 0.5913 0.0
C59 C 0.15528 0.8223 0.48833 0.0
Zn60 Zn 0.91918 0.42912 0.82364 0.0
Zn61 Zn 0.91114 0.34582 0.80483 0.0
C62 C 0.91077 0.47478 0.77637 0.0
O63 O 0.93634 0.47252 0.77805 0.0
C64 C 0.94168 0.29885 0.81642 0.0
O65 O 0.92287 0.28924 0.79179 0.0
O66 O 0.94118 0.44766 0.87034 0.0
O67 O 0.89645 0.40003 0.85571 0.0
O68 O 0.88807 0.35686 0.85443 0.0
C69 C 0.95429 0.43498 0.89887 0.0
O70 O 0.9534 0.4093 0.89817 0.0
O71 O 0.89691 0.45732 0.79508 0.0
C72 C 0.88924 0.32716 0.71623 0.0
O73 O 0.90094 0.34657 0.6958 0.0
O74 O 0.8905 0.32555 0.75821 0.0
O75 O 0.92464 0.38013 0.78874 0.0
O76 O 0.94438 0.41599 0.77469 0.0
O77 O 0.9407 0.32279 0.82792 0.0
C78 C 0.88438 0.37974 0.87042 0.0
C79 C 0.94197 0.39183 0.76683 0.0
Zn80 Zn 0.61616 0.85029 0.97739 0.0
Zn81 Zn 0.67448 0.83807 0.91081 0.0
C82 C 0.57298 0.82305 0.94087 0.0
O83 O 0.56441 0.84726 0.93998 0.0
C84 C 0.71962 0.83087 0.96137 0.0
O85 O 0.71212 0.80705 0.95109 0.0
O86 O 0.59245 0.86373 0.02607 0.0
O87 O 0.65005 0.8395 0.00511 0.0
O88 O 0.65574 0.81208 0.95073 0.0
C89 C 0.5849 0.8455 0.05167 0.0
O90 O 0.59466 0.82198 0.04613 0.0
O91 O 0.59631 0.81884 0.95361 0.0
C92 C 0.70926 0.81476 0.84192 0.0
O93 O 0.72663 0.83252 0.85296 0.0
O94 O 0.68691 0.81489 0.86047 0.0
O95 O 0.65306 0.86862 0.8849 0.0
O96 O 0.61862 0.87606 0.92848 0.0
O97 O 0.70657 0.85004 0.94605 0.0
C98 C 0.65625 0.81689 0.99187 0.0
C99 C 0.63244 0.88145 0.89475 0.0
Zn100 Zn 0.42344 0.35283 0.70728 0.0
Zn101 Zn 0.42276 0.43321 0.66129 0.0
C102 C 0.44657 0.31168 0.65281 0.0
O103 O 0.42684 0.31616 0.62613 0.0
C104 C 0.41306 0.48033 0.70538 0.0
O105 O 0.43869 0.48021 0.70287 0.0
O106 O 0.40817 0.34131 0.76619 0.0
O107 O 0.43907 0.38787 0.70863 0.0
O108 O 0.45302 0.42743 0.70334 0.0
C109 C 0.4189 0.32262 0.78723 0.0
O110 O 0.44048 0.31227 0.77159 0.0
O111 O 0.44942 0.32576 0.68709 0.0
C112 C 0.42867 0.46561 0.58313 0.0
O113 O 0.40474 0.47305 0.5926 0.0
O114 O 0.43934 0.44784 0.60622 0.0
O115 O 0.40157 0.39942 0.64938 0.0
O116 O 0.39461 0.35732 0.6627 0.0
O117 O 0.40037 0.46135 0.68872 0.0
C118 C 0.45571 0.40486 0.71966 0.0
C119 C 0.38866 0.37839 0.64235 0.0
Zn120 Zn 0.88148 0.15062 0.47219 0.0
Zn121 Zn 0.82418 0.17124 0.42338 0.0
C122 C 0.92372 0.18045 0.4359 0.0
O123 O 0.93565 0.15784 0.43998 0.0
C124 C 0.78006 0.16662 0.48307 0.0
O125 O 0.78338 0.19197 0.48728 0.0
O126 O 0.90823 0.13286 0.50973 0.0
O127 O 0.85229 0.16276 0.51171 0.0
O128 O 0.84452 0.19482 0.46576 0.0
C129 C 0.91292 0.13948 0.54935 0.0
O130 O 0.89897 0.15809 0.56784 0.0
O131 O 0.89966 0.18209 0.44607 0.0
C132 C 0.78484 0.18721 0.36267 0.0
O133 O 0.77656 0.16339 0.37096 0.0
O134 O 0.80575 0.19518 0.38086 0.0
O135 O 0.84057 0.14201 0.38667 0.0
O136 O 0.87321 0.12499 0.42506 0.0
O137 O 0.79563 0.1537 0.45865 0.0
C138 C 0.84787 0.18683 0.50513 0.0
C139 C 0.85798 0.12454 0.39205 0.0
Zn140 Zn 0.08469 0.65378 0.20898 0.0
Zn141 Zn 0.08095 0.57123 0.1797 0.0
C142 C 0.05744 0.69104 0.15118 0.0
O143 O 0.07423 0.68377 0.12066 0.0
C144 C 0.09042 0.52624 0.22871 0.0
O145 O 0.06522 0.5254 0.22047 0.0
O146 O 0.10438 0.6703 0.26043 0.0
O147 O 0.06991 0.61894 0.21738 0.0
O148 O 0.05186 0.5814 0.22411 0.0
C149 C 0.09334 0.6882 0.28311 0.0
O150 O 0.06876 0.69396 0.2753 0.0
O151 O 0.05777 0.67994 0.18875 0.0
C152 C 0.04893 0.55421 0.10001 0.0
O153 O 0.04173 0.57857 0.09377 0.0
O154 O 0.06457 0.54873 0.13138 0.0
O155 O 0.10444 0.60184 0.15323 0.0
O156 O 0.10989 0.64517 0.16111 0.0
O157 O 0.10354 0.54553 0.21393 0.0
C158 C 0.05304 0.60498 0.23638 0.0
C159 C 0.11588 0.62343 0.14271 0.0
Zn160 Zn 0.82534 0.6732 0.57383 0.0
Zn161 Zn 0.90754 0.6724 0.55568 0.0
C162 C 0.78066 0.66453 0.52054 0.0
O163 O 0.78237 0.69013 0.51848 0.0
C164 C 0.9529 0.6909 0.59678 0.0
O165 O 0.95896 0.66613 0.59142 0.0
O166 O 0.80834 0.69217 0.6255 0.0
O167 O 0.85509 0.64751 0.59619 0.0
O168 O 0.89842 0.64177 0.59262 0.0
C169 C 0.78774 0.68328 0.64363 0.0
O170 O 0.77865 0.66048 0.6308 0.0
O171 O 0.7974 0.65198 0.5432 0.0
C172 C 0.92554 0.64696 0.46967 0.0
O173 O 0.90514 0.63137 0.46888 0.0
O174 O 0.92822 0.66329 0.50102 0.0
O175 O 0.87323 0.68607 0.54365 0.0
O176 O 0.8358 0.7021 0.52943 0.0
O177 O 0.92979 0.6983 0.58799 0.0
C178 C 0.87583 0.63455 0.60613 0.0
C179 C 0.86014 0.70286 0.52307 0.0
Zn180 Zn 0.07647 0.08288 0.82939 0.0
Zn181 Zn 0.10192 0.12789 0.77018 0.0
C182 C 0.08425 0.03845 0.77265 0.0
O183 O 0.0589 0.04134 0.76783 0.0
C184 C 0.08258 0.16961 0.82517 0.0
O185 O 0.10763 0.17501 0.82804 0.0
O186 O 0.05213 0.0657 0.8736 0.0
O187 O 0.10136 0.10618 0.86365 0.0
O188 O 0.13018 0.11588 0.81158 0.0
C189 C 0.05542 0.04295 0.8897 0.0
O190 O 0.07629 0.02949 0.87864 0.0
O191 O 0.09659 0.05412 0.79785 0.0
C192 C 0.09733 0.16864 0.70941 0.0
O193 O 0.07288 0.16261 0.71799 0.0
O194 O 0.11549 0.15507 0.72678 0.0
O195 O 0.08311 0.10084 0.73417 0.0
O196 O 0.0526 0.10005 0.78516 0.0
O197 O 0.07546 0.14888 0.80524 0.0
C198 C 0.12411 0.11372 0.85219 0.0
C199 C 0.05914 0.09957 0.74466 0.0
Zn200 Zn 0.6844 0.33834 0.08391 0.0
Zn201 Zn 0.61668 0.34184 0.01657 0.0
C202 C 0.73764 0.34112 0.05804 0.0
O203 O 0.73634 0.31705 0.07298 0.0
C204 C 0.5734 0.31985 0.05746 0.0
O205 O 0.56981 0.34513 0.06211 0.0
O206 O 0.69361 0.31784 0.13848 0.0
O207 O 0.65731 0.36569 0.10367 0.0
O208 O 0.61972 0.36732 0.06612 0.0
C209 C 0.7118 0.32119 0.16648 0.0
O210 O 0.72739 0.3415 0.16289 0.0
O211 O 0.71718 0.35524 0.05868 0.0
C212 C 0.57962 0.34564 0.94497 0.0
O213 O 0.57428 0.32151 0.95653 0.0
O214 O 0.59704 0.35836 0.96599 0.0
O215 O 0.65178 0.33201 0.99437 0.0
O216 O 0.67374 0.3091 0.04262 0.0
O217 O 0.59428 0.31188 0.03881 0.0
C218 C 0.63465 0.37532 0.09688 0.0
C219 C 0.66113 0.31038 0.00671 0.0
Zn220 Zn 0.4215 0.93345 0.3192 0.0
Zn221 Zn 0.41756 0.85196 0.29208 0.0
C222 C 0.41275 0.9814 0.27552 0.0
O223 O 0.43842 0.98065 0.27612 0.0
C224 C 0.4352 0.80595 0.33689 0.0
O225 O 0.4099 0.80215 0.34086 0.0
O226 O 0.44081 0.94885 0.37122 0.0
O227 O 0.39617 0.90346 0.34151 0.0
O228 O 0.38946 0.86041 0.3344 0.0
C229 C 0.42881 0.96236 0.40007 0.0
O230 O 0.40335 0.96508 0.39679 0.0
O231 O 0.40006 0.9626 0.29273 0.0
C232 C 0.41155 0.81587 0.21883 0.0
O233 O 0.43174 0.80466 0.23765 0.0
O234 O 0.40213 0.83665 0.23571 0.0
O235 O 0.43226 0.88664 0.2838 0.0
O236 O 0.44982 0.92389 0.27294 0.0
O237 O 0.4433 0.82697 0.31921 0.0
C238 C 0.38328 0.88257 0.3509 0.0
C239 C 0.44948 0.89979 0.26414 0.0
Zn240 Zn 0.09723 0.3359 0.4669 0.0
Zn241 Zn 0.17908 0.33341 0.44056 0.0
C242 C 0.05256 0.32024 0.4211 0.0
O243 O 0.04837 0.34537 0.42687 0.0
C244 C 0.23017 0.33846 0.47323 0.0
O245 O 0.22655 0.31303 0.47464 0.0
O246 O 0.0763 0.34648 0.52095 0.0
O247 O 0.1318 0.32197 0.48123 0.0
O248 O 0.17107 0.30906 0.49276 0.0
C249 C 0.06247 0.3283 0.5377 0.0
O250 O 0.06401 0.30471 0.52068 0.0
O251 O 0.07455 0.31085 0.43259 0.0
C252 C 0.20582 0.31157 0.36286 0.0
O253 O 0.22053 0.33259 0.36486 0.0
O254 O 0.18713 0.30885 0.39019 0.0
O255 O 0.14958 0.35972 0.42132 0.0
O256 O 0.10662 0.3664 0.42923 0.0
O257 O 0.21202 0.35279 0.45783 0.0
C258 C 0.14726 0.30801 0.50344 0.0
C259 C 0.12886 0.37315 0.4136 0.0
Zn260 Zn 0.90383 0.8669 0.23278 0.0
Zn261 Zn 0.90929 0.92403 0.16151 0.0
C262 C 0.94019 0.84259 0.16787 0.0
O263 O 0.92815 0.8561 0.13711 0.0
C264 C 0.9051 0.96879 0.21883 0.0
O265 O 0.93068 0.96781 0.21549 0.0
O266 O 0.89251 0.84565 0.28593 0.0
O267 O 0.91787 0.90119 0.25455 0.0
O268 O 0.94082 0.90979 0.19504 0.0
C269 C 0.91133 0.83948 0.31134 0.0
O270 O 0.93464 0.84898 0.30288 0.0
O271 O 0.93334 0.8452 0.208 0.0
C272 C 0.94551 0.93924 0.09122 0.0
O273 O 0.95822 0.91804 0.103 0.0
O274 O 0.92403 0.94476 0.11028 0.0
O275 O 0.88108 0.89924 0.13807 0.0
O276 O 0.87518 0.86756 0.18756 0.0
O277 O 0.89144 0.95142 0.19948 0.0
C278 C 0.93952 0.90682 0.23663 0.0
C279 C 0.8687 0.87922 0.15204 0.0
Zn280 Zn 0.39094 0.65843 0.95973 0.0
Zn281 Zn 0.31771 0.67367 0.91436 0.0
C282 C 0.4197 0.7085 0.93138 0.0
O283 O 0.39875 0.72302 0.93638 0.0
C284 C 0.26867 0.66979 0.9621 0.0
O285 O 0.26962 0.69539 0.9587 0.0
O286 O 0.4122 0.63605 0.00189 0.0
O287 O 0.36229 0.67419 0.99616 0.0
O288 O 0.33574 0.69854 0.95641 0.0
C289 C 0.4301 0.64785 0.02331 0.0
O290 O 0.43264 0.67325 0.01901 0.0
O291 O 0.41828 0.68393 0.9371 0.0
C292 C 0.28557 0.69598 0.84004 0.0
O293 O 0.27312 0.67359 0.83674 0.0
O294 O 0.3038 0.69851 0.86824 0.0
O295 O 0.33879 0.64492 0.88442 0.0
O296 O 0.37863 0.63583 0.91 0.0
O297 O 0.28719 0.6563 0.94575 0.0
C298 C 0.35202 0.69615 0.98774 0.0
C299 C 0.35987 0.63165 0.88334 0.0
Zn300 Zn 0.59945 0.13376 0.73541 0.0
Zn301 Zn 0.57635 0.07853 0.67392 0.0
C302 C 0.56141 0.15844 0.67404 0.0
O303 O 0.56944 0.1416 0.64417 0.0
C304 C 0.57055 0.03048 0.71888 0.0
O305 O 0.54619 0.03637 0.70949 0.0
O306 O 0.61852 0.15488 0.78162 0.0
O307 O 0.5837 0.10284 0.76617 0.0
O308 O 0.55356 0.09978 0.71534 0.0
C309 C 0.60565 0.17188 0.80333 0.0
O310 O 0.58047 0.17439 0.79618 0.0
O311 O 0.57097 0.15767 0.71275 0.0
C312 C 0.55462 0.0484 0.59869 0.0
O313 O 0.57784 0.03764 0.59505 0.0
O314 O 0.55083 0.06605 0.62763 0.0
O315 O 0.60798 0.09481 0.64398 0.0
O316 O 0.62439 0.12642 0.68621 0.0
O317 O 0.58845 0.04631 0.70735 0.0
C318 C 0.55982 0.10117 0.75581 0.0
C319 C 0.62537 0.11201 0.652 0.0
H320 H 0.48397 0.19383 0.02624 0.0
H321 H 0.42397 0.23415 0.10138 0.0
H322 H 0.45487 0.27049 0.11575 0.0
H323 H 0.54061 0.2133 0.09013 0.0
H324 H 0.56077 0.21788 0.04181 0.0
H325 H 0.53467 0.19423 0.04097 0.0
H326 H 0.51514 0.21662 0.97174 0.0
H327 H 0.54086 0.24056 0.97251 0.0
H328 H 0.5073 0.25098 0.97368 0.0
H329 H 0.49197 0.30268 0.11998 0.0
H330 H 0.53103 0.33019 0.10911 0.0
H331 H 0.56618 0.26933 0.02846 0.0
C332 C 0.47746 0.21007 0.04645 0.0
C333 C 0.45176 0.21105 0.06342 0.0
C334 C 0.44368 0.233 0.08843 0.0
C335 C 0.46111 0.25362 0.09687 0.0
C336 C 0.48636 0.25202 0.07961 0.0
C337 C 0.49441 0.23092 0.05457 0.0
C338 C 0.52169 0.23495 0.03642 0.0
C339 C 0.54055 0.21383 0.05336 0.0
C340 C 0.52119 0.23583 0.98558 0.0
C341 C 0.52805 0.26147 0.05583 0.0
C342 C 0.50742 0.27092 0.08077 0.0
C343 C 0.50827 0.29543 0.10072 0.0
C344 C 0.53057 0.31088 0.09435 0.0
C345 C 0.55172 0.30183 0.06817 0.0
C346 C 0.55054 0.2766 0.04926 0.0
H347 H 0.56948 0.73118 0.30313 0.0
H348 H 0.52844 0.6594 0.33533 0.0
H349 H 0.4892 0.6851 0.35535 0.0
H350 H 0.53984 0.77314 0.38794 0.0
H351 H 0.538 0.80087 0.35133 0.0
H352 H 0.56366 0.77708 0.34448 0.0
H353 H 0.54977 0.77007 0.26285 0.0
H354 H 0.52414 0.79382 0.26945 0.0
H355 H 0.51643 0.76128 0.25062 0.0
H356 H 0.4537 0.71844 0.36718 0.0
H357 H 0.42386 0.75636 0.3654 0.0
H358 H 0.48811 0.80598 0.3233 0.0
C359 C 0.55244 0.72089 0.31533 0.0
C360 C 0.55207 0.69334 0.31829 0.0
C361 C 0.52915 0.68053 0.33315 0.0
C362 C 0.50684 0.69496 0.34473 0.0
C363 C 0.50777 0.72211 0.34098 0.0
C364 C 0.52995 0.73493 0.3264 0.0
C365 C 0.52523 0.764 0.32153 0.0
C366 C 0.54272 0.77969 0.35322 0.0
C367 C 0.52912 0.77279 0.27326 0.0
C368 C 0.49683 0.76551 0.33516 0.0
C369 C 0.48718 0.74122 0.34678 0.0
C370 C 0.46109 0.7376 0.35856 0.0
C371 C 0.44431 0.75927 0.35752 0.0
C372 C 0.45366 0.78417 0.34441 0.0
C373 C 0.4804 0.7873 0.33397 0.0
H374 H 0.02248 0.82571 0.54408 0.0
H375 H 0.0959 0.78826 0.578 0.0
H376 H 0.07177 0.74924 0.60345 0.0
H377 H 0.9833 0.79901 0.63467 0.0
H378 H 0.95482 0.79464 0.6004 0.0
H379 H 0.97767 0.82052 0.58846 0.0
H380 H 0.98341 0.80289 0.50848 0.0
H381 H 0.96034 0.77729 0.52024 0.0
H382 H 0.99254 0.7692 0.50025 0.0
H383 H 0.03999 0.71333 0.62054 0.0
H384 H 0.00305 0.68229 0.62413 0.0
H385 H 0.95051 0.74329 0.57902 0.0
C386 C 0.03348 0.80949 0.55756 0.0
C387 C 0.06105 0.81014 0.55955 0.0
C388 C 0.07475 0.78827 0.57649 0.0
C389 C 0.06122 0.76606 0.59115 0.0
C390 C 0.03404 0.76604 0.58862 0.0
C391 C 0.02032 0.78713 0.57205 0.0
C392 C 0.99131 0.78145 0.56985 0.0
C393 C 0.97587 0.80001 0.60016 0.0
C394 C 0.98133 0.78277 0.52186 0.0
C395 C 0.99089 0.75373 0.58733 0.0
C396 C 0.0157 0.74528 0.59831 0.0
C397 C 0.02042 0.71982 0.61258 0.0
C398 C 0.99933 0.70235 0.61458 0.0
C399 C 0.97389 0.71044 0.60234 0.0
C400 C 0.96961 0.73666 0.58956 0.0
H401 H 0.9521 0.2497 0.78603 0.0
H402 H 0.98306 0.31064 0.87119 0.0
H403 H 0.02159 0.2829 0.8872 0.0
H404 H 0.9723 0.19501 0.84958 0.0
H405 H 0.98186 0.17491 0.80356 0.0
H406 H 0.95613 0.19866 0.79701 0.0
H407 H 0.97957 0.22052 0.73255 0.0
H408 H 0.00673 0.19817 0.73564 0.0
H409 H 0.01238 0.23274 0.7393 0.0
H410 H 0.05796 0.24879 0.89044 0.0
H411 H 0.08883 0.21201 0.87976 0.0
H412 H 0.0328 0.17381 0.79364 0.0
C413 C 0.96677 0.25719 0.80853 0.0
C414 C 0.96443 0.28227 0.82772 0.0
C415 C 0.98436 0.29141 0.85632 0.0
C416 C 0.00629 0.27578 0.86563 0.0
C417 C 0.00795 0.25113 0.84602 0.0
C418 C 0.9887 0.24198 0.81799 0.0
C419 C 0.99554 0.21542 0.79934 0.0
C420 C 0.97524 0.19479 0.81314 0.0
C421 C 0.99869 0.21679 0.74873 0.0
C422 C 0.0215 0.21075 0.82166 0.0
C423 C 0.0285 0.23159 0.84827 0.0
C424 C 0.05249 0.23226 0.87008 0.0
C425 C 0.06987 0.21128 0.86389 0.0
C426 C 0.06306 0.18988 0.83642 0.0
C427 C 0.03836 0.18956 0.8157 0.0
H428 H 0.52153 0.82622 0.91651 0.0
H429 H 0.58235 0.77034 0.94908 0.0
H430 H 0.55014 0.73448 0.94445 0.0
H431 H 0.47205 0.79823 0.9796 0.0
H432 H 0.44613 0.80453 0.94075 0.0
H433 H 0.47443 0.8254 0.94184 0.0
H434 H 0.48245 0.81644 0.85849 0.0
H435 H 0.45405 0.79558 0.85712 0.0
H436 H 0.4853 0.78318 0.83928 0.0
H437 H 0.51069 0.7052 0.94126 0.0
H438 H 0.46718 0.6847 0.94135 0.0
H439 H 0.43169 0.75985 0.91219 0.0
C440 C 0.52824 0.8064 0.92185 0.0
C441 C 0.55456 0.80112 0.93308 0.0
C442 C 0.56239 0.7749 0.94026 0.0
C443 C 0.54421 0.75438 0.93762 0.0
C444 C 0.51833 0.76036 0.92728 0.0
C445 C 0.51038 0.78572 0.91925 0.0
C446 C 0.48117 0.78711 0.9112 0.0
C447 C 0.46766 0.80486 0.9454 0.0
C448 C 0.47541 0.79611 0.8637 0.0
C449 C 0.47371 0.75871 0.91762 0.0
C450 C 0.49552 0.74355 0.92606 0.0
C451 C 0.49354 0.71685 0.93421 0.0
C452 C 0.46865 0.70538 0.93411 0.0
C453 C 0.44591 0.72063 0.92656 0.0
C454 C 0.44863 0.74763 0.9178 0.0
H455 H 0.48007 0.28947 0.7125 0.0
H456 H 0.4508 0.28131 0.57849 0.0
H457 H 0.47693 0.24101 0.56928 0.0
H458 H 0.5455 0.26597 0.6923 0.0
H459 H 0.54747 0.24893 0.74434 0.0
H460 H 0.52728 0.2776 0.73943 0.0
H461 H 0.48741 0.25112 0.7674 0.0
H462 H 0.50738 0.22226 0.77196 0.0
H463 H 0.47807 0.22154 0.73902 0.0
H464 H 0.50585 0.2013 0.57513 0.0
H465 H 0.53574 0.16531 0.59532 0.0
H466 H 0.54471 0.19898 0.72636 0.0
C467 C 0.47936 0.27941 0.681 0.0
C468 C 0.46352 0.28862 0.64605 0.0
C469 C 0.46286 0.27464 0.60563 0.0
C470 C 0.4776 0.25173 0.60012 0.0
C471 C 0.4927 0.24299 0.63548 0.0
C472 C 0.49366 0.25639 0.67514 0.0
C473 C 0.51086 0.24251 0.70839 0.0
C474 C 0.53416 0.25978 0.72188 0.0
C475 C 0.49497 0.23385 0.74908 0.0
C476 C 0.51957 0.21926 0.68107 0.0
C477 C 0.5089 0.21989 0.63913 0.0
C478 C 0.51432 0.20058 0.60788 0.0
C479 C 0.53129 0.18021 0.61967 0.0
C480 C 0.54258 0.17928 0.66238 0.0
C481 C 0.53638 0.19903 0.69345 0.0
H482 H 0.97678 0.18503 0.42782 0.0
H483 H 0.90478 0.22958 0.41874 0.0
H484 H 0.93038 0.26971 0.40478 0.0
H485 H 0.0114 0.23162 0.48776 0.0
H486 H 0.04243 0.2255 0.46144 0.0
H487 H 0.01845 0.19986 0.46473 0.0
H488 H 0.02023 0.19422 0.37954 0.0
H489 H 0.04424 0.21995 0.376 0.0
H490 H 0.01447 0.22209 0.34441 0.0
H491 H 0.96379 0.30538 0.39764 0.0
H492 H 0.00222 0.33431 0.40254 0.0
H493 H 0.05242 0.26654 0.41829 0.0
C494 C 0.96633 0.2031 0.42189 0.0
C495 C 0.93875 0.20411 0.42384 0.0
C496 C 0.92588 0.22829 0.41698 0.0
C497 C 0.94026 0.25117 0.4089 0.0
C498 C 0.96745 0.24952 0.40773 0.0
C499 C 0.98036 0.22611 0.41415 0.0
C500 C 0.00971 0.22997 0.41528 0.0
C501 C 0.02115 0.22123 0.45996 0.0
C502 C 0.02294 0.21571 0.37649 0.0
C503 C 0.01129 0.25933 0.40967 0.0
C504 C 0.98674 0.27018 0.4046 0.0
C505 C 0.98313 0.29708 0.40109 0.0
C506 C 0.00512 0.31336 0.40388 0.0
C507 C 0.03038 0.30271 0.41064 0.0
C508 C 0.03345 0.27528 0.41255 0.0
H509 H 0.03198 0.72002 0.21389 0.0
H510 H 0.04447 0.714 0.07225 0.0
H511 H 0.0171 0.75332 0.06092 0.0
H512 H 0.96561 0.74128 0.21111 0.0
H513 H 0.96927 0.76358 0.25689 0.0
H514 H 0.98965 0.73498 0.25332 0.0
H515 H 0.03104 0.76423 0.2578 0.0
H516 H 0.0106 0.79278 0.26143 0.0
H517 H 0.03512 0.79058 0.21881 0.0
H518 H 0.98754 0.79295 0.06535 0.0
H519 H 0.95781 0.82926 0.085 0.0
H520 H 0.96648 0.80986 0.224 0.0
C521 C 0.02883 0.72682 0.18042 0.0
C522 C 0.04019 0.71383 0.14386 0.0
C523 C 0.03589 0.72362 0.10069 0.0
C524 C 0.02044 0.74595 0.09397 0.0
C525 C 0.00973 0.75842 0.13081 0.0
C526 C 0.01382 0.74922 0.17319 0.0
C527 C 1.00041 0.76628 0.20727 0.0
C528 C 0.98002 0.75059 0.23368 0.0
C529 C 0.0205 0.77923 0.23812 0.0
C530 C 0.98759 0.7862 0.17736 0.0
C531 C 0.99329 0.78146 0.1334 0.0
C532 C 0.98305 0.79693 0.09968 0.0
C533 C 0.96621 0.81754 0.11116 0.0
C534 C 0.95977 0.82244 0.15599 0.0
C535 C 0.97101 0.80672 0.1894 0.0
H536 H 0.1774 0.10811 0.85711 0.0
H537 H 0.11074 0.14327 0.92295 0.0
H538 H 0.1402 0.16367 0.97764 0.0
H539 H 0.21285 0.09353 0.9599 0.0
H540 H 0.24445 0.09985 0.93574 0.0
H541 H 0.21813 0.08789 0.90172 0.0
H542 H 0.22397 0.12742 0.84913 0.0
H543 H 0.2502 0.13958 0.88306 0.0
H544 H 0.22246 0.16013 0.8713 0.0
H545 H 0.17663 0.18295 0.021 0.0
H546 H 0.2179 0.19646 0.05631 0.0
H547 H 0.26123 0.14585 0.96731 0.0
C548 C 0.16912 0.11998 0.88328 0.0
C549 C 0.1419 0.12422 0.88601 0.0
C550 C 0.13156 0.13967 0.92069 0.0
C551 C 0.14812 0.1514 0.95171 0.0
C552 C 0.17489 0.14698 0.94811 0.0
C553 C 0.18535 0.13126 0.91536 0.0
C554 C 0.2148 0.12923 0.91989 0.0
C555 C 0.22304 0.10094 0.92992 0.0
C556 C 0.22867 0.13972 0.87838 0.0
C557 C 0.21929 0.1469 0.95947 0.0
C558 C 0.19595 0.15703 0.97494 0.0
C559 C 0.19501 0.17488 0.00966 0.0
C560 C 0.21854 0.18253 0.02932 0.0
C561 C 0.24265 0.17206 0.01467 0.0
C562 C 0.243 0.15387 0.97948 0.0
H563 H 0.65784 0.41885 0.13453 0.0
H564 H 0.58599 0.37383 0.13072 0.0
H565 H 0.565 0.40538 0.18079 0.0
H566 H 0.6526 0.44059 0.25047 0.0
H567 H 0.66484 0.47293 0.23896 0.0
H568 H 0.67533 0.44562 0.20568 0.0
H569 H 0.65999 0.4697 0.13501 0.0
H570 H 0.64942 0.49704 0.16804 0.0
H571 H 0.62671 0.48104 0.1314 0.0
H572 H 0.55079 0.4421 0.22711 0.0
H573 H 0.54346 0.4834 0.26689 0.0
H574 H 0.62381 0.50637 0.24105 0.0
C575 C 0.63784 0.41556 0.14492 0.0
C576 C 0.62345 0.39399 0.12881 0.0
C577 C 0.59721 0.3904 0.14237 0.0
C578 C 0.58518 0.4081 0.17104 0.0
C579 C 0.5996 0.42943 0.18575 0.0
C580 C 0.6253 0.4334 0.17323 0.0
C581 C 0.63554 0.45902 0.19179 0.0
C582 C 0.65844 0.45424 0.22362 0.0
C583 C 0.64337 0.47781 0.15433 0.0
C584 C 0.6115 0.46875 0.21629 0.0
C585 C 0.59113 0.45118 0.21249 0.0
C586 C 0.56661 0.45599 0.23066 0.0
C587 C 0.56263 0.47956 0.2531 0.0
C588 C 0.58304 0.4981 0.25716 0.0
C589 C 0.6079 0.49246 0.23886 0.0
H590 H 0.35807 0.84099 0.3873 0.0
H591 H 0.35615 0.92579 0.38154 0.0
H592 H 0.31551 0.92559 0.42648 0.0
H593 H 0.29077 0.83048 0.37516 0.0
H594 H 0.28967 0.80302 0.41244 0.0
H595 H 0.31925 0.81022 0.38259 0.0
H596 H 0.34498 0.81271 0.45627 0.0
H597 H 0.31552 0.8053 0.48642 0.0
H598 H 0.33389 0.83438 0.49944 0.0
H599 H 0.27325 0.9152 0.46879 0.0
H600 H 0.23483 0.89604 0.50664 0.0
H601 H 0.26582 0.81825 0.48326 0.0
C602 C 0.34933 0.85964 0.39563 0.0
C603 C 0.36027 0.88344 0.3807 0.0
C604 C 0.34816 0.90732 0.39269 0.0
C605 C 0.32506 0.90737 0.4181 0.0
C606 C 0.31455 0.8834 0.43141 0.0
C607 C 0.32652 0.86003 0.4208 0.0
C608 C 0.3113 0.83681 0.43795 0.0
C609 C 0.30221 0.8191 0.39975 0.0
C610 C 0.32738 0.8214 0.47205 0.0
C611 C 0.28854 0.85065 0.45947 0.0
C612 C 0.29069 0.87751 0.45556 0.0
C613 C 0.27152 0.89421 0.47224 0.0
C614 C 0.24974 0.88313 0.49356 0.0
C615 C 0.24731 0.85563 0.49797 0.0
C616 C 0.26706 0.83933 0.48062 0.0
H617 H 0.91636 0.60338 0.63093 0.0
H618 H 0.83214 0.61088 0.6431 0.0
H619 H 0.83111 0.57025 0.68805 0.0
H620 H 0.91829 0.53399 0.62002 0.0
H621 H 0.94817 0.53092 0.6511 0.0
H622 H 0.94173 0.56033 0.62032 0.0
H623 H 0.94785 0.58797 0.69151 0.0
H624 H 0.95435 0.55867 0.72253 0.0
H625 H 0.92863 0.58047 0.73989 0.0
H626 H 0.84034 0.52777 0.73236 0.0
H627 H 0.85869 0.48918 0.77128 0.0
H628 H 0.93644 0.5116 0.72819 0.0
C629 C 0.89757 0.59665 0.6429 0.0
C630 C 0.8743 0.61042 0.63337 0.0
C631 C 0.85024 0.6007 0.64991 0.0
C632 C 0.84949 0.57763 0.67544 0.0
C633 C 0.87293 0.56458 0.68405 0.0
C634 C 0.89648 0.57391 0.66814 0.0
C635 C 0.91908 0.55671 0.68162 0.0
C636 C 0.9326 0.54478 0.64084 0.0
C637 C 0.93862 0.57186 0.71062 0.0
C638 C 0.90474 0.53616 0.70794 0.0
C639 C 0.87813 0.5408 0.70905 0.0
C640 C 0.86115 0.52405 0.73162 0.0
C641 C 0.87173 0.50218 0.75359 0.0
C642 C 0.89901 0.49736 0.75292 0.0
C643 C 0.91551 0.51467 0.7296 0.0
H644 H 0.74913 0.87562 0.97833 0.0
H645 H 0.74036 0.79394 0.01491 0.0
H646 H 0.77712 0.79797 0.06646 0.0
H647 H 0.81999 0.87614 0.98162 0.0
H648 H 0.82243 0.90859 0.00459 0.0
H649 H 0.79484 0.89993 0.9706 0.0
H650 H 0.7633 0.91366 0.0335 0.0
H651 H 0.7908 0.9224 0.06763 0.0
H652 H 0.76692 0.89931 0.08759 0.0
H653 H 0.81381 0.81005 0.11456 0.0
H654 H 0.8501 0.82955 0.15617 0.0
H655 H 0.83776 0.90347 0.08861 0.0
C656 C 0.75496 0.85866 0.99732 0.0
C657 C 0.74182 0.83442 0.99239 0.0
C658 C 0.75014 0.81266 0.01771 0.0
C659 C 0.771 0.81474 0.04728 0.0
C660 C 0.78363 0.83869 0.05118 0.0
C661 C 0.77613 0.8603 0.02694 0.0
C662 C 0.79364 0.88356 0.03748 0.0
C663 C 0.80861 0.89258 0.99611 0.0
C664 C 0.77771 0.90606 0.05776 0.0
C665 C 0.81199 0.8715 0.07138 0.0
C666 C 0.80561 0.84563 0.07877 0.0
C667 C 0.81908 0.83028 0.10905 0.0
C668 C 0.83966 0.84161 0.13265 0.0
C669 C 0.84685 0.86806 0.12578 0.0
C670 C 0.83286 0.88316 0.09442 0.0
H671 H 0.40417 0.60431 0.86294 0.0
H672 H 0.32148 0.6094 0.83187 0.0
H673 H 0.32584 0.57117 0.78222 0.0
H674 H 0.42591 0.58593 0.75371 0.0
H675 H 0.45084 0.56427 0.77433 0.0
H676 H 0.44104 0.59226 0.80646 0.0
H677 H 0.43068 0.562 0.87294 0.0
H678 H 0.4403 0.5339 0.84097 0.0
H679 H 0.40827 0.53513 0.86575 0.0
H680 H 0.33919 0.53072 0.73863 0.0
H681 H 0.361 0.49345 0.70138 0.0
H682 H 0.43479 0.51645 0.76042 0.0
C683 C 0.38693 0.59754 0.84559 0.0
C684 C 0.36245 0.60984 0.85142 0.0
C685 C 0.34047 0.60035 0.82786 0.0
C686 C 0.34273 0.5786 0.79969 0.0
C687 C 0.36713 0.56675 0.79524 0.0
C688 C 0.38887 0.57607 0.81728 0.0
C689 C 0.41288 0.55996 0.80709 0.0
C690 C 0.4339 0.5766 0.78401 0.0
C691 C 0.42365 0.54698 0.84919 0.0
C692 C 0.40129 0.53998 0.77594 0.0
C693 C 0.37485 0.54405 0.76964 0.0
C694 C 0.35992 0.52749 0.74307 0.0
C695 C 0.37243 0.50635 0.72218 0.0
C696 C 0.39958 0.50218 0.72778 0.0
C697 C 0.41405 0.51927 0.75507 0.0
H698 H 0.65686 0.15487 0.64348 0.0
H699 H 0.64383 0.07702 0.59057 0.0
H700 H 0.68223 0.08238 0.54154 0.0
H701 H 0.67659 0.18422 0.53959 0.0
H702 H 0.70036 0.20534 0.56528 0.0
H703 H 0.67177 0.19525 0.59564 0.0
H704 H 0.70132 0.17701 0.65794 0.0
H705 H 0.73 0.18686 0.62769 0.0
H706 H 0.72615 0.15328 0.64455 0.0
H707 H 0.72335 0.09568 0.50093 0.0
H708 H 0.76203 0.11697 0.4678 0.0
H709 H 0.7469 0.18666 0.54582 0.0
C710 C 0.66205 0.13892 0.62158 0.0
C711 C 0.64749 0.11544 0.62104 0.0
C712 C 0.65471 0.09519 0.59147 0.0
C713 C 0.67652 0.09803 0.56364 0.0
C714 C 0.69062 0.12135 0.56542 0.0
C715 C 0.68347 0.14155 0.59326 0.0
C716 C 0.70159 0.16478 0.58844 0.0
C717 C 0.68668 0.18881 0.5712 0.0
C718 C 0.71559 0.17082 0.63226 0.0
C719 C 0.72039 0.15435 0.55406 0.0
C720 C 0.71379 0.12924 0.54128 0.0
C721 C 0.72861 0.11539 0.51049 0.0
C722 C 0.7506 0.12762 0.492 0.0
C723 C 0.75748 0.1535 0.50417 0.0
C724 C 0.74212 0.16692 0.53569 0.0
H725 H 0.08775 0.3971 0.37362 0.0
H726 H 0.17199 0.40208 0.38762 0.0
H727 H 0.17211 0.44202 0.34091 0.0
H728 H 0.08525 0.41767 0.25987 0.0
H729 H 0.05498 0.43514 0.26737 0.0
H730 H 0.06213 0.40708 0.30118 0.0
H731 H 0.05538 0.43507 0.37182 0.0
H732 H 0.04828 0.46323 0.33829 0.0
H733 H 0.074 0.46472 0.3789 0.0
H734 H 0.16181 0.48307 0.29382 0.0
H735 H 0.14261 0.51918 0.24968 0.0
H736 H 0.06564 0.48507 0.2673 0.0
C737 C 0.10632 0.40651 0.36705 0.0
C738 C 0.12986 0.39655 0.38462 0.0
C739 C 0.1537 0.40937 0.37455 0.0
C740 C 0.15393 0.43207 0.34812 0.0
C741 C 0.1302 0.44147 0.3317 0.0
C742 C 0.10691 0.42883 0.34063 0.0
C743 C 0.08398 0.4424 0.3192 0.0
C744 C 0.07082 0.42451 0.28487 0.0
C745 C 0.06426 0.45192 0.35414 0.0
C746 C 0.09782 0.46501 0.29726 0.0
C747 C 0.12447 0.4643 0.3046 0.0
C748 C 0.14098 0.48366 0.28776 0.0
C749 C 0.12991 0.50412 0.2628 0.0
C750 C 0.10262 0.50498 0.25491 0.0
C751 C 0.08658 0.48505 0.27248 0.0
H752 H 0.66279 0.6526 0.35063 0.0
H753 H 0.65218 0.57236 0.39386 0.0
H754 H 0.68961 0.57724 0.44498 0.0
H755 H 0.73285 0.65365 0.35381 0.0
H756 H 0.73445 0.68676 0.37413 0.0
H757 H 0.70727 0.67656 0.34049 0.0
H758 H 0.67505 0.6914 0.40178 0.0
H759 H 0.7021 0.70166 0.43562 0.0
H760 H 0.6786 0.67864 0.457 0.0
H761 H 0.72885 0.59112 0.49084 0.0
H762 H 0.76508 0.61339 0.52991 0.0
H763 H 0.74831 0.68469 0.45757 0.0
C764 C 0.66839 0.63595 0.37059 0.0
C765 C 0.65467 0.61203 0.36801 0.0
C766 C 0.66244 0.59087 0.39524 0.0
C767 C 0.68369 0.59344 0.42429 0.0
C768 C 0.69678 0.61734 0.42593 0.0
C769 C 0.68928 0.63825 0.39997 0.0
C770 C 0.70601 0.66207 0.40866 0.0
C771 C 0.72104 0.67023 0.36678 0.0
C772 C 0.68945 0.68478 0.42686 0.0
C773 C 0.72421 0.65133 0.44351 0.0
C774 C 0.71873 0.62546 0.45293 0.0
C775 C 0.73325 0.61139 0.48381 0.0
C776 C 0.7538 0.62417 0.50575 0.0
C777 C 0.75945 0.65078 0.49689 0.0
C778 C 0.7444 0.66439 0.4653 0.0
H779 H 0.06648 0.00963 0.70262 0.0
H780 H 0.13284 0.01846 0.79062 0.0
H781 H 0.1547 0.98118 0.75371 0.0
H782 H 0.06635 0.93997 0.69778 0.0
H783 H 0.05777 0.93848 0.64004 0.0
H784 H 0.04754 0.96593 0.67311 0.0
H785 H 0.07 0.99768 0.61811 0.0
H786 H 0.0802 0.97031 0.58478 0.0
H787 H 0.1041 0.99329 0.60497 0.0
H788 H 0.16832 0.94159 0.70914 0.0
H789 H 0.17402 0.90467 0.65728 0.0
H790 H 0.09939 0.92309 0.59665 0.0
C791 C 0.08563 0.00375 0.71414 0.0
C792 C 0.09792 0.01685 0.74965 0.0
C793 C 0.12309 0.00872 0.76343 0.0
C794 C 0.13561 0.98754 0.74275 0.0
C795 C 0.12282 0.97492 0.70806 0.0
C796 C 0.0985 0.9829 0.69356 0.0
C797 C 0.08908 0.96628 0.65528 0.0
C798 C 0.06369 0.95181 0.66729 0.0
C799 C 0.08565 0.98289 0.6133 0.0
C800 C 0.11178 0.94751 0.65072 0.0
C801 C 0.13099 0.9527 0.68161 0.0
C802 C 0.15349 0.93748 0.6846 0.0
C803 C 0.1565 0.91649 0.65508 0.0
C804 C 0.13722 0.91105 0.62271 0.0
C805 C 0.11461 0.92687 0.62068 0.0
H806 H 0.74649 0.37402 0.98762 0.0
H807 H 0.78558 0.32989 0.09042 0.0
H808 H 0.82838 0.34255 0.05961 0.0
H809 H 0.78691 0.35372 0.90306 0.0
H810 H 0.78727 0.38411 0.87291 0.0
H811 H 0.7599 0.37619 0.90772 0.0
H812 H 0.76622 0.41966 0.95047 0.0
H813 H 0.79378 0.42766 0.91576 0.0
H814 H 0.79749 0.42694 0.97501 0.0
H815 H 0.86618 0.35459 0.01352 0.0
H816 H 0.89663 0.36257 0.9516 0.0
H817 H 0.83415 0.39795 0.87608 0.0
C818 C 0.76414 0.3678 0.0043 0.0
C819 C 0.76286 0.35131 0.04173 0.0
C820 C 0.78623 0.34267 0.06188 0.0
C821 C 0.81061 0.34992 0.0448 0.0
C822 C 0.81133 0.36571 0.00732 0.0
C823 C 0.78876 0.37449 0.98707 0.0
C824 C 0.79505 0.38828 0.94387 0.0
C825 C 0.78148 0.37475 0.90459 0.0
C826 C 0.78769 0.41737 0.94645 0.0
C827 C 0.8245 0.38479 0.94211 0.0
C828 C 0.83349 0.37234 0.97973 0.0
C829 C 0.85952 0.3649 0.9844 0.0
C830 C 0.8767 0.36957 0.94922 0.0
C831 C 0.86778 0.3815 0.90994 0.0
C832 C 0.84153 0.38972 0.9066 0.0
H833 H 0.43436 0.01972 0.22442 0.0
H834 H 0.36037 0.99329 0.27871 0.0
H835 H 0.33803 0.0306 0.24284 0.0
H836 H 0.42252 0.089 0.23499 0.0
H837 H 0.43868 0.09679 0.18367 0.0
H838 H 0.44873 0.06861 0.21499 0.0
H839 H 0.44108 0.03905 0.14649 0.0
H840 H 0.43105 0.06713 0.11496 0.0
H841 H 0.40963 0.03928 0.11967 0.0
H842 H 0.32396 0.07113 0.20034 0.0
H843 H 0.31904 0.10987 0.1521 0.0
H844 H 0.40236 0.10827 0.12472 0.0
C845 C 0.41347 0.02181 0.22905 0.0
C846 C 0.39911 0.00365 0.25451 0.0
C847 C 0.37176 0.00698 0.25933 0.0
C848 C 0.35893 0.02814 0.2392 0.0
C849 C 0.37373 0.04567 0.21424 0.0
C850 C 0.40038 0.0426 0.20898 0.0
C851 C 0.41177 0.06356 0.17943 0.0
C852 C 0.43159 0.08049 0.2048 0.0
C853 C 0.4241 0.05153 0.13767 0.0
C854 C 0.38734 0.07884 0.16852 0.0
C855 C 0.36561 0.06843 0.18919 0.0
C856 C 0.34086 0.07941 0.18396 0.0
C857 C 0.33827 0.10144 0.15657 0.0
C858 C 0.36028 0.11207 0.13442 0.0
C859 C 0.38509 0.10058 0.14089 0.0
H860 H 0.26811 0.3131 0.51954 0.0
H861 H 0.24661 0.38978 0.47023 0.0
H862 H 0.28623 0.40858 0.50508 0.0
H863 H 0.29041 0.33441 0.62386 0.0
H864 H 0.31654 0.31087 0.62691 0.0
H865 H 0.28759 0.3035 0.59555 0.0
H866 H 0.31598 0.29478 0.52596 0.0
H867 H 0.34504 0.3021 0.55716 0.0
H868 H 0.33824 0.31968 0.50684 0.0
H869 H 0.32798 0.41895 0.54851 0.0
H870 H 0.36689 0.41992 0.59722 0.0
H871 H 0.3594 0.33624 0.61772 0.0
C872 C 0.27181 0.33381 0.51551 0.0
C873 C 0.25432 0.34995 0.49195 0.0
C874 C 0.25979 0.37702 0.48806 0.0
C875 C 0.28225 0.38785 0.50768 0.0
C876 C 0.29895 0.37134 0.5311 0.0
C877 C 0.2939 0.34489 0.53503 0.0
C878 C 0.31407 0.33141 0.56347 0.0
C879 C 0.30139 0.31935 0.60489 0.0
C880 C 0.32923 0.31078 0.53675 0.0
C881 C 0.33125 0.35439 0.57527 0.0
C882 C 0.32242 0.37728 0.55621 0.0
C883 C 0.33507 0.40109 0.56344 0.0
C884 C 0.35716 0.40146 0.59115 0.0
C885 C 0.36621 0.37818 0.61141 0.0
C886 C 0.35307 0.35442 0.60285 0.0
H887 H 0.90001 0.09242 0.37931 0.0
H888 H 0.8208 0.10647 0.33402 0.0
H889 H 0.8237 0.0674 0.28578 0.0
H890 H 0.9256 0.0712 0.27382 0.0
H891 H 0.94696 0.04718 0.29813 0.0
H892 H 0.93838 0.07615 0.32873 0.0
H893 H 0.92145 0.04733 0.39313 0.0
H894 H 0.92976 0.01824 0.36258 0.0
H895 H 0.89684 0.0229 0.38238 0.0
H896 H 0.83483 0.02524 0.24526 0.0
H897 H 0.8547 0.98631 0.21008 0.0
H898 H 0.92717 0.00148 0.27995 0.0
C899 C 0.88326 0.08737 0.35914 0.0
C900 C 0.86012 0.10244 0.36054 0.0
C901 C 0.83876 0.09527 0.33333 0.0
C902 C 0.84018 0.07304 0.30604 0.0
C903 C 0.8632 0.0584 0.306 0.0
C904 C 0.88447 0.06552 0.33141 0.0
C905 C 0.90714 0.04691 0.32483 0.0
C906 C 0.93092 0.06122 0.30519 0.0
C907 C 0.9142 0.03303 0.36831 0.0
C908 C 0.89531 0.02806 0.29186 0.0
C909 C 0.86986 0.03482 0.28172 0.0
C910 C 0.8548 0.01989 0.25274 0.0
C911 C 0.86621 0.99775 0.23309 0.0
C912 C 0.89251 0.99094 0.24211 0.0
C913 C 0.90708 0.00628 0.27213 0.0
H914 H 0.13868 0.6664 0.10595 0.0
H915 H 0.14273 0.58162 0.10608 0.0
H916 H 0.18166 0.58379 0.05716 0.0
H917 H 0.15913 0.67631 0.99214 0.0
H918 H 0.17734 0.70542 0.00564 0.0
H919 H 0.14901 0.69664 0.03779 0.0
H920 H 0.17697 0.69781 0.1092 0.0
H921 H 0.20542 0.70638 0.07733 0.0
H922 H 0.20603 0.67799 0.11257 0.0
H923 H 0.22235 0.59615 0.01161 0.0
H924 H 0.25939 0.61707 0.97245 0.0
H925 H 0.22751 0.69349 0.0038 0.0
C926 C 0.14748 0.64816 0.09547 0.0
C927 C 0.13759 0.62379 0.11001 0.0
C928 C 0.14983 0.60051 0.09526 0.0
C929 C 0.172 0.60158 0.06757 0.0
C930 C 0.18151 0.62606 0.05476 0.0
C931 C 0.16942 0.64888 0.06807 0.0
C932 C 0.18367 0.67281 0.05129 0.0
C933 C 0.16625 0.68873 0.01984 0.0
C934 C 0.19361 0.68973 0.0899 0.0
C935 C 0.20601 0.66003 0.02675 0.0
C936 C 0.2045 0.63306 0.02891 0.0
C937 C 0.22354 0.61724 0.00952 0.0
C938 C 0.24455 0.62931 0.98742 0.0
C939 C 0.24638 0.65696 0.98492 0.0
C940 C 0.2267 0.67235 0.00484 0.0
H941 H 0.61767 0.014 0.75474 0.0
H942 H 0.53701 0.99034 0.73425 0.0
H943 H 0.54568 0.94888 0.77234 0.0
H944 H 0.64676 0.94893 0.74101 0.0
H945 H 0.67059 0.95359 0.78415 0.0
H946 H 0.65885 0.98126 0.75312 0.0
H947 H 0.64496 0.00413 0.82589 0.0
H948 H 0.65673 0.97658 0.85711 0.0
H949 H 0.62342 0.98737 0.86365 0.0
H950 H 0.56139 0.91157 0.81537 0.0
H951 H 0.58371 0.87961 0.86293 0.0
H952 H 0.65502 0.92535 0.85621 0.0
C953 C 0.60194 0.99996 0.75797 0.0
C954 C 0.57662 0.00547 0.74139 0.0
C955 C 0.55651 0.9867 0.74667 0.0
C956 C 0.56126 0.96298 0.76814 0.0
C957 C 0.58625 0.9582 0.78424 0.0
C958 C 0.60633 0.97604 0.77961 0.0
C959 C 0.63106 0.96613 0.80192 0.0
C960 C 0.65312 0.96225 0.76802 0.0
C961 C 0.63953 0.98466 0.83936 0.0
C962 C 0.62154 0.9401 0.82009 0.0
C963 C 0.59561 0.93607 0.80919 0.0
C964 C 0.58176 0.91433 0.82378 0.0
C965 C 0.59458 0.89634 0.85082 0.0
C966 C 0.62104 0.89999 0.86285 0.0
C967 C 0.6349 0.92194 0.84675 0.0
H968 H 0.42566 0.15376 0.85793 0.0
H969 H 0.44862 0.11638 0.98089 0.0
H970 H 0.48886 0.10044 0.94544 0.0
H971 H 0.45029 0.10279 0.7848 0.0
H972 H 0.46134 0.12556 0.74332 0.0
H973 H 0.43388 0.13372 0.77803 0.0
H974 H 0.45726 0.17642 0.80212 0.0
H975 H 0.48485 0.16827 0.76772 0.0
H976 H 0.48952 0.17461 0.82579 0.0
H977 H 0.52794 0.09112 0.89898 0.0
H978 H 0.56177 0.08529 0.84135 0.0
H979 H 0.51284 0.1264 0.74723 0.0
C980 C 0.43897 0.14192 0.87722 0.0
C981 C 0.43389 0.13629 0.9222 0.0
C982 C 0.45196 0.12091 0.94636 0.0
C983 C 0.47497 0.11181 0.92659 0.0
C984 C 0.47958 0.11807 0.88252 0.0
C985 C 0.46202 0.1325 0.85788 0.0
C986 C 0.47187 0.13645 0.81104 0.0
C987 C 0.45324 0.12387 0.77731 0.0
C988 C 0.47612 0.16567 0.80111 0.0
C989 C 0.49764 0.12191 0.81332 0.0
C990 C 0.50183 0.11178 0.85506 0.0
C991 C 0.52477 0.09864 0.86599 0.0
C992 C 0.54387 0.09551 0.8332 0.0
C993 C 0.53968 0.10509 0.78994 0.0
C994 C 0.51627 0.11846 0.77991 0.0
H995 H 0.58871 0.69922 0.11991 0.0
H996 H 0.65452 0.70037 0.21038 0.0
H997 H 0.67507 0.73548 0.16631 0.0
H998 H 0.62638 0.70973 0.01995 0.0
H999 H 0.60185 0.73013 0.99475 0.0
H1000 H 0.59235 0.70506 0.03334 0.0
H1001 H 0.5683 0.73966 0.08094 0.0
H1002 H 0.57777 0.76484 0.04256 0.0
H1003 H 0.58593 0.76797 0.10029 0.0
H1004 H 0.68672 0.77276 0.11579 0.0
H1005 H 0.69013 0.80736 0.05861 0.0
H1006 H 0.61903 0.77905 0.99763 0.0
C1007 C 0.60749 0.70681 0.13037 0.0
C1008 C 0.62002 0.69717 0.16862 0.0
C1009 C 0.64464 0.70745 0.1811 0.0
C1010 C 0.65642 0.72741 0.15635 0.0
C1011 C 0.6435 0.73657 0.11892 0.0
C1012 C 0.61972 0.72643 0.10566 0.0
C1013 C 0.60999 0.73963 0.064 0.0
C1014 C 0.60752 0.71996 0.02575 0.0
C1015 C 0.58396 0.75387 0.07247 0.0
C1016 C 0.63201 0.75883 0.05601 0.0
C1017 C 0.65098 0.75701 0.0884 0.0
C1018 C 0.67224 0.77408 0.08984 0.0
C1019 C 0.67404 0.79359 0.05742 0.0
C1020 C 0.65503 0.79539 0.02376 0.0
C1021 C 0.63401 0.77762 0.02268 0.0
H1022 H 0.97493 0.86728 0.24627 0.0
H1023 H 0.9566 0.94594 0.28947 0.0
H1024 H 0.99447 0.94507 0.34042 0.0
H1025 H 0.99061 0.84427 0.35468 0.0
H1026 H 0.01562 0.82216 0.33563 0.0
H1027 H 0.98877 0.83052 0.29987 0.0
H1028 H 0.02208 0.84574 0.24022 0.0
H1029 H 0.04879 0.83782 0.27658 0.0
H1030 H 0.04595 0.87036 0.25418 0.0
H1031 H 0.03255 0.93471 0.38934 0.0
H1032 H 0.06731 0.91528 0.43518 0.0
H1033 H 0.05952 0.84219 0.36309 0.0
C1034 C 0.97925 0.88442 0.26595 0.0
C1035 C 0.96331 0.90687 0.26371 0.0
C1036 C 0.96898 0.92877 0.2905 0.0
C1037 C 0.99037 0.9284 0.31947 0.0
C1038 C 0.00556 0.9058 0.32158 0.0
C1039 C 1.00017 0.88412 0.29579 0.0
C1040 C 0.01808 0.86151 0.30726 0.0
C1041 C 0.00233 0.83824 0.32542 0.0
C1042 C 0.03472 0.8534 0.26716 0.0
C1043 C 0.03459 0.87398 0.34316 0.0
C1044 C 0.02708 0.89955 0.35078 0.0
C1045 C 0.03873 0.91477 0.3835 0.0
C1046 C 0.05846 0.90354 0.40941 0.0
C1047 C 0.06627 0.87725 0.40269 0.0
C1048 C 0.05421 0.86241 0.36884 0.0
H1049 H 0.86219 0.23869 0.50203 0.0
H1050 H 0.8392 0.17693 0.59234 0.0
H1051 H 0.84422 0.20727 0.65535 0.0
H1052 H 0.91197 0.26488 0.5711 0.0
H1053 H 0.90619 0.29845 0.55586 0.0
H1054 H 0.89866 0.27258 0.51751 0.0
H1055 H 0.85104 0.28943 0.51171 0.0
H1056 H 0.8584 0.31533 0.55019 0.0
H1057 H 0.83177 0.29319 0.56126 0.0
H1058 H 0.85268 0.24363 0.70852 0.0
H1059 H 0.86707 0.28266 0.74942 0.0
H1060 H 0.88657 0.32087 0.62543 0.0
C1061 C 0.85782 0.23172 0.53503 0.0
C1062 C 0.85003 0.20552 0.54234 0.0
C1063 C 0.84511 0.19692 0.58604 0.0
C1064 C 0.84781 0.21404 0.622 0.0
C1065 C 0.85567 0.23967 0.61377 0.0
C1066 C 0.86082 0.24847 0.57145 0.0
C1067 C 0.87069 0.27647 0.57215 0.0
C1068 C 0.89853 0.27819 0.55303 0.0
C1069 C 0.85185 0.29468 0.54735 0.0
C1070 C 0.87043 0.28196 0.6215 0.0
C1071 C 0.86138 0.26053 0.64474 0.0
C1072 C 0.85973 0.26057 0.69069 0.0
C1073 C 0.86793 0.28293 0.71364 0.0
C1074 C 0.87795 0.30498 0.69078 0.0
C1075 C 0.87886 0.30448 0.64396 0.0
H1076 H 0.56701 0.8919 0.08797 0.0
H1077 H 0.55458 0.80786 0.08834 0.0
H1078 H 0.51878 0.81312 0.14178 0.0
H1079 H 0.55465 0.90071 0.20537 0.0
H1080 H 0.5384 0.93172 0.19877 0.0
H1081 H 0.56312 0.92175 0.15975 0.0
H1082 H 0.53026 0.92782 0.09544 0.0
H1083 H 0.50545 0.93779 0.13427 0.0
H1084 H 0.49934 0.9109 0.0971 0.0
H1085 H 0.4849 0.82668 0.19472 0.0
H1086 H 0.4545 0.84822 0.24575 0.0
H1087 H 0.4876 0.92369 0.21312 0.0
C1088 C 0.55669 0.87467 0.09934 0.0
C1089 C 0.56368 0.84945 0.08415 0.0
C1090 C 0.54981 0.82734 0.09986 0.0
C1091 C 0.52934 0.83011 0.13009 0.0
C1092 C 0.52302 0.85512 0.14461 0.0
C1093 C 0.53624 0.87705 0.13009 0.0
C1094 C 0.52561 0.90156 0.1521 0.0
C1095 C 0.5467 0.91471 0.18069 0.0
C1096 C 0.5145 0.92064 0.11766 0.0
C1097 C 0.50411 0.8899 0.18056 0.0
C1098 C 0.50315 0.86307 0.17566 0.0
C1099 C 0.48536 0.84771 0.19868 0.0
C1100 C 0.46802 0.86011 0.22753 0.0
C1101 C 0.4683 0.88754 0.23317 0.0
C1102 C 0.48674 0.90265 0.20937 0.0
H1103 H 0.43551 0.28026 0.83456 0.0
H1104 H 0.37312 0.33762 0.82755 0.0
H1105 H 0.35003 0.31491 0.88827 0.0
H1106 H 0.39587 0.22562 0.84991 0.0
H1107 H 0.41782 0.20928 0.8874 0.0
H1108 H 0.43054 0.23182 0.84722 0.0
H1109 H 0.45273 0.25818 0.91036 0.0
H1110 H 0.4397 0.23565 0.95055 0.0
H1111 H 0.43319 0.27014 0.95569 0.0
H1112 H 0.33249 0.28435 0.94648 0.0
H1113 H 0.32116 0.24748 0.9959 0.0
H1114 H 0.3945 0.20971 0.96309 0.0
C1115 C 0.41722 0.28837 0.84625 0.0
C1116 C 0.40615 0.31079 0.82637 0.0
C1117 C 0.38203 0.32056 0.84241 0.0
C1118 C 0.3688 0.30781 0.87691 0.0
C1119 C 0.38001 0.28542 0.89509 0.0
C1120 C 0.40375 0.27584 0.88044 0.0
C1121 C 0.4108 0.2505 0.90344 0.0
C1122 C 0.41391 0.22799 0.86999 0.0
C1123 C 0.43557 0.25383 0.93168 0.0
C1124 C 0.38686 0.24684 0.93221 0.0
C1125 C 0.36957 0.26743 0.9276 0.0
C1126 C 0.34593 0.2682 0.95051 0.0
C1127 C 0.33968 0.24724 0.9785 0.0
C1128 C 0.35681 0.22566 0.98264 0.0
C1129 C 0.38082 0.22569 0.95966 0.0
H1130 H 0.01047 0.12058 0.75101 0.0
H1131 H 0.06276 0.08059 0.66046 0.0
H1132 H 0.02918 0.08322 0.60171 0.0
H1133 H 0.94902 0.09286 0.7113 0.0
H1134 H 0.9316 0.12328 0.7175 0.0
H1135 H 0.95869 0.1159 0.75338 0.0
H1136 H 0.98137 0.1589 0.73043 0.0
H1137 H 0.95428 0.16674 0.69506 0.0
H1138 H 0.98699 0.1658 0.6728 0.0
H1139 H 0.99065 0.09188 0.55249 0.0
H1140 H 0.95134 0.10846 0.51459 0.0
H1141 H 0.9253 0.14456 0.63698 0.0
C1142 C 0.01463 0.11193 0.71904 0.0
C1143 C 0.03897 0.10011 0.71016 0.0
C1144 C 0.04411 0.08967 0.66771 0.0
C1145 C 0.02516 0.09095 0.63434 0.0
C1146 C 0.00137 0.10295 0.64406 0.0
C1147 C 0.99614 0.11342 0.68527 0.0
C1148 C 0.97 0.12719 0.68618 0.0
C1149 C 0.95122 0.114 0.71903 0.0
C1150 C 0.97335 0.15642 0.69666 0.0
C1151 C 0.96137 0.12303 0.63896 0.0
C1152 C 0.97957 0.10871 0.61534 0.0
C1153 C 0.9762 0.103 0.5707 0.0
C1154 C 0.95381 0.1125 0.5495 0.0
C1155 C 0.93527 0.12781 0.57289 0.0
C1156 C 0.93907 0.13287 0.61828 0.0
H1157 H 0.11012 0.79624 0.47096 0.0
H1158 H 0.19203 0.80035 0.43542 0.0
H1159 H 0.18589 0.76373 0.38246 0.0
H1160 H 0.10296 0.72575 0.46267 0.0
H1161 H 0.07062 0.72753 0.43931 0.0
H1162 H 0.0819 0.75289 0.47606 0.0
H1163 H 0.07189 0.78771 0.4166 0.0
H1164 H 0.06064 0.76268 0.37937 0.0
H1165 H 0.08625 0.78471 0.36234 0.0
H1166 H 0.17044 0.72705 0.33305 0.0
H1167 H 0.14629 0.6958 0.2858 0.0
H1168 H 0.07398 0.71733 0.35149 0.0
C1169 C 0.12667 0.78937 0.45189 0.0
C1170 C 0.15151 0.80092 0.45671 0.0
C1171 C 0.17288 0.79157 0.43172 0.0
C1172 C 0.16956 0.7708 0.40186 0.0
C1173 C 0.14474 0.75978 0.39759 0.0
C1174 C 0.12361 0.76889 0.42166 0.0
C1175 C 0.09875 0.75456 0.40942 0.0
C1176 C 0.08793 0.73928 0.44923 0.0
C1177 C 0.07819 0.77355 0.3908 0.0
C1178 C 0.10908 0.73628 0.37405 0.0
C1179 C 0.13573 0.73923 0.3683 0.0
C1180 C 0.14958 0.72453 0.33728 0.0
C1181 C 0.13575 0.70675 0.31076 0.0
C1182 C 0.10831 0.70419 0.31497 0.0
C1183 C 0.09496 0.71891 0.34749 0.0
H1184 H 0.92901 0.61302 0.39843 0.0
H1185 H 0.9693 0.67717 0.46367 0.0
H1186 H 0.00504 0.67395 0.40967 0.0
H1187 H 0.98561 0.57524 0.37401 0.0
H1188 H 0.97455 0.56444 0.32044 0.0
H1189 H 0.95112 0.57233 0.36288 0.0
H1190 H 0.92888 0.60562 0.31049 0.0
H1191 H 0.95222 0.59776 0.2678 0.0
H1192 H 0.9482 0.63117 0.28558 0.0
H1193 H 0.03759 0.6626 0.3523 0.0
H1194 H 0.0647 0.64397 0.29263 0.0
H1195 H 0.00383 0.58825 0.26162 0.0
C1196 C 0.94525 0.62651 0.40111 0.0
C1197 C 0.94627 0.64532 0.43544 0.0
C1198 C 0.96796 0.66255 0.43782 0.0
C1199 C 0.98842 0.66093 0.40723 0.0
C1200 C 0.98695 0.64207 0.37418 0.0
C1201 C 0.96594 0.62522 0.37064 0.0
C1202 C 0.96969 0.60642 0.33223 0.0
C1203 C 0.97028 0.57792 0.34837 0.0
C1204 C 0.94848 0.6105 0.29694 0.0
C1205 C 0.99628 0.61508 0.31543 0.0
C1206 C 0.00572 0.6358 0.34008 0.0
C1207 C 0.03015 0.64677 0.33212 0.0
C1208 C 0.04529 0.63641 0.29779 0.0
C1209 C 0.036 0.61557 0.27153 0.0
C1210 C 0.01124 0.60455 0.28077 0.0
H1211 H 0.13628 0.17741 0.64807 0.0
H1212 H 0.07047 0.214 0.71417 0.0
H1213 H 0.07799 0.25455 0.67183 0.0
H1214 H 0.17759 0.23538 0.63804 0.0
H1215 H 0.18881 0.22718 0.58323 0.0
H1216 H 0.17979 0.20161 0.62127 0.0
H1217 H 0.14678 0.18332 0.56411 0.0
H1218 H 0.15575 0.20879 0.52592 0.0
H1219 H 0.12204 0.20462 0.54178 0.0
H1220 H 0.09275 0.29121 0.62342 0.0
H1221 H 0.11139 0.32027 0.56601 0.0
H1222 H 0.16444 0.25897 0.5254 0.0
C1223 C 0.12377 0.19413 0.65392 0.0
C1224 C 0.10297 0.19278 0.68458 0.0
C1225 C 0.08653 0.21474 0.69079 0.0
C1226 C 0.09071 0.23787 0.66709 0.0
C1227 C 0.1112 0.2386 0.63681 0.0
C1228 C 0.12729 0.21727 0.62967 0.0
C1229 C 0.14663 0.22272 0.59272 0.0
C1230 C 0.17488 0.22166 0.60985 0.0
C1231 C 0.14254 0.20374 0.55384 0.0
C1232 C 0.13886 0.25038 0.58035 0.0
C1233 C 0.11861 0.25924 0.60665 0.0
C1234 C 0.10825 0.28429 0.60202 0.0
C1235 C 0.1185 0.30048 0.56891 0.0
C1236 C 0.13822 0.29136 0.54014 0.0
C1237 C 0.14901 0.26623 0.54665 0.0
H1238 H 0.46417 0.36054 0.76936 0.0
H1239 H 0.49728 0.43632 0.73684 0.0
H1240 H 0.53363 0.42826 0.78817 0.0
H1241 H 0.47864 0.36284 0.88386 0.0
H1242 H 0.4866 0.32863 0.88869 0.0
H1243 H 0.46398 0.33936 0.84698 0.0
H1244 H 0.49264 0.31749 0.78616 0.0
H1245 H 0.51505 0.30662 0.82815 0.0
H1246 H 0.52676 0.32585 0.78229 0.0
H1247 H 0.56484 0.41365 0.84547 0.0
H1248 H 0.58966 0.39272 0.90569 0.0
H1249 H 0.53677 0.32628 0.90159 0.0
C1250 C 0.47924 0.37524 0.77273 0.0
C1251 C 0.4779 0.39903 0.74914 0.0
C1252 C 0.49786 0.41797 0.75466 0.0
C1253 C 0.51865 0.41356 0.78363 0.0
C1254 C 0.51924 0.39012 0.80684 0.0
C1255 C 0.50017 0.37119 0.80173 0.0
C1256 C 0.50502 0.34819 0.83221 0.0
C1257 C 0.48221 0.34456 0.86486 0.0
C1258 C 0.51017 0.32306 0.80562 0.0
C1259 C 0.52953 0.35746 0.8556 0.0
C1260 C 0.53743 0.38162 0.84023 0.0
C1261 C 0.55902 0.39463 0.85765 0.0
C1262 C 0.57293 0.38263 0.8919 0.0
C1263 C 0.56518 0.3579 0.90827 0.0
C1264 C 0.54328 0.34514 0.88958 0.0
H1265 H 0.39378 0.70286 0.04196 0.0
H1266 H 0.32151 0.73972 0.00081 0.0
H1267 H 0.32986 0.77621 0.05283 0.0
H1268 H 0.39083 0.71788 0.15433 0.0
H1269 H 0.42529 0.72439 0.16008 0.0
H1270 H 0.41404 0.70214 0.11812 0.0
H1271 H 0.43762 0.72942 0.05794 0.0
H1272 H 0.44907 0.75183 0.09969 0.0
H1273 H 0.43075 0.76385 0.05309 0.0
H1274 H 0.34515 0.80715 0.1134 0.0
H1275 H 0.36639 0.83021 0.17579 0.0
H1276 H 0.42926 0.77323 0.17377 0.0
C1277 C 0.37978 0.71865 0.0437 0.0
C1278 C 0.35697 0.71842 0.01764 0.0
C1279 C 0.33916 0.73955 0.02055 0.0
C1280 C 0.34375 0.76034 0.04992 0.0
C1281 C 0.36646 0.75986 0.07536 0.0
C1282 C 0.3843 0.73966 0.07206 0.0
C1283 C 0.40711 0.7435 0.10303 0.0
C1284 C 0.40943 0.72063 0.13583 0.0
C1285 C 0.43264 0.74739 0.07688 0.0
C1286 C 0.39879 0.76846 0.12582 0.0
C1287 C 0.37546 0.77782 0.10917 0.0
C1288 C 0.36356 0.80016 0.12638 0.0
C1289 C 0.37575 0.81311 0.16179 0.0
C1290 C 0.39947 0.80353 0.17965 0.0
C1291 C 0.41117 0.78111 0.16089 0.0
H1292 H 0.05137 0.3752 0.57906 0.0
H1293 H 0.03387 0.29207 0.58232 0.0
H1294 H 0.00275 0.29942 0.64302 0.0
H1295 H 0.04659 0.38567 0.69922 0.0
H1296 H 0.03166 0.4174 0.69351 0.0
H1297 H 0.05387 0.40565 0.65168 0.0
H1298 H 0.01834 0.41274 0.59191 0.0
H1299 H 0.996 0.4244 0.63354 0.0
H1300 H 0.98682 0.39742 0.59842 0.0
H1301 H 0.97162 0.3155 0.69902 0.0
H1302 H 0.943 0.33947 0.74969 0.0
H1303 H 0.98063 0.41236 0.71343 0.0
C1304 C 0.04119 0.35854 0.5929 0.0
C1305 C 0.04502 0.33307 0.57583 0.0
C1306 C 0.03123 0.31178 0.59468 0.0
C1307 C 0.01353 0.31572 0.62927 0.0
C1308 C 0.0099 0.34104 0.64489 0.0
C1309 C 0.0234 0.36211 0.62768 0.0
C1310 C 0.01516 0.38738 0.65007 0.0
C1311 C 0.03819 0.39975 0.67511 0.0
C1312 C 0.00338 0.40661 0.61647 0.0
C1313 C 0.99456 0.37719 0.68179 0.0
C1314 C 0.99202 0.35038 0.67822 0.0
C1315 C 0.9737 0.33646 0.70263 0.0
C1316 C 0.95752 0.35028 0.73161 0.0
C1317 C 0.95972 0.37773 0.73631 0.0
C1318 C 0.97861 0.39133 0.711 0.0
H1319 H 0.86567 0.81706 0.34227 0.0
H1320 H 0.94983 0.81737 0.36083 0.0
H1321 H 0.94568 0.78294 0.41704 0.0
H1322 H 0.84922 0.80628 0.45847 0.0
H1323 H 0.82186 0.78533 0.44599 0.0
H1324 H 0.83126 0.81065 0.40775 0.0
H1325 H 0.83551 0.77612 0.34538 0.0
H1326 H 0.82629 0.75068 0.38349 0.0
H1327 H 0.8566 0.74828 0.3533 0.0
H1328 H 0.9331 0.74672 0.46745 0.0
H1329 H 0.91228 0.71329 0.51393 0.0
H1330 H 0.83601 0.73696 0.46597 0.0
C1331 C 0.88318 0.81002 0.35843 0.0
C1332 C 0.90809 0.81998 0.34709 0.0
C1333 C 0.93053 0.8102 0.36899 0.0
C1334 C 0.92841 0.79054 0.40092 0.0
C1335 C 0.90367 0.78093 0.41091 0.0
C1336 C 0.8814 0.79047 0.39078 0.0
C1337 C 0.8572 0.77659 0.40783 0.0
C1338 C 0.8388 0.79587 0.43142 0.0
C1339 C 0.84307 0.76206 0.37026 0.0
C1340 C 0.86945 0.75763 0.44026 0.0
C1341 C 0.89629 0.76041 0.44125 0.0
C1342 C 0.91205 0.74457 0.46741 0.0
C1343 C 0.90003 0.72554 0.49371 0.0
C1344 C 0.87252 0.7226 0.49404 0.0
C1345 C 0.85708 0.73888 0.46678 0.0
H1346 H 0.47931 0.66299 0.0447 0.0
H1347 H 0.423 0.60074 0.06534 0.0
H1348 H 0.45395 0.57892 0.11649 0.0
H1349 H 0.53769 0.62138 0.04708 0.0
H1350 H 0.55692 0.64596 0.07484 0.0
H1351 H 0.53086 0.65556 0.03828 0.0
H1352 H 0.50989 0.68282 0.1014 0.0
H1353 H 0.53595 0.67332 0.13782 0.0
H1354 H 0.50248 0.66723 0.15337 0.0
H1355 H 0.48906 0.56708 0.17182 0.0
H1356 H 0.52666 0.56438 0.22292 0.0
H1357 H 0.56141 0.63215 0.16004 0.0
C1358 C 0.47355 0.64463 0.05969 0.0
C1359 C 0.44875 0.63356 0.05145 0.0
C1360 C 0.44198 0.60945 0.07128 0.0
C1361 C 0.4594 0.59698 0.1003 0.0
C1362 C 0.48362 0.60865 0.10818 0.0
C1363 C 0.49083 0.63175 0.08788 0.0
C1364 C 0.5177 0.64064 0.10243 0.0
C1365 C 0.53693 0.64088 0.06332 0.0
C1366 C 0.51641 0.66758 0.12511 0.0
C1367 C 0.52429 0.61925 0.13505 0.0
C1368 C 0.50436 0.60106 0.13811 0.0
C1369 C 0.50501 0.5809 0.16905 0.0
C1370 C 0.52638 0.57956 0.19796 0.0
C1371 C 0.54697 0.59803 0.19529 0.0
C1372 C 0.54612 0.61766 0.16263 0.0
H1373 H 0.6211 0.30019 0.94994 0.0
H1374 H 0.69283 0.26746 0.0021 0.0
H1375 H 0.68715 0.22849 0.95441 0.0
H1376 H 0.58665 0.23816 0.94729 0.0
H1377 H 0.56849 0.24648 0.8982 0.0
H1378 H 0.57879 0.27176 0.93573 0.0
H1379 H 0.60231 0.29546 0.87102 0.0
H1380 H 0.59229 0.27002 0.8335 0.0
H1381 H 0.62645 0.27803 0.83902 0.0
H1382 H 0.67413 0.19383 0.89871 0.0
H1383 H 0.65282 0.16444 0.84449 0.0
H1384 H 0.5882 0.21897 0.83343 0.0
C1385 C 0.63558 0.28483 0.95125 0.0
C1386 C 0.65746 0.28682 0.97934 0.0
C1387 C 0.6759 0.26621 0.98072 0.0
C1388 C 0.67289 0.2441 0.95368 0.0
C1389 C 0.65109 0.24278 0.92618 0.0
C1390 C 0.63255 0.26243 0.92534 0.0
C1391 C 0.61023 0.25574 0.89461 0.0
C1392 C 0.58453 0.25288 0.92048 0.0
C1393 C 0.60769 0.27602 0.85733 0.0
C1394 C 0.61944 0.22957 0.87733 0.0
C1395 C 0.64308 0.22243 0.89576 0.0
C1396 C 0.65552 0.19913 0.88432 0.0
C1397 C 0.64332 0.1826 0.8535 0.0
C1398 C 0.61881 0.18936 0.83512 0.0
C1399 C 0.60683 0.21316 0.84728 0.0
H1400 H 0.28981 0.23658 0.17964 0.0
H1401 H 0.24001 0.16906 0.20189 0.0
H1402 H 0.21447 0.1943 0.25649 0.0
H1403 H 0.29149 0.25859 0.29256 0.0
H1404 H 0.29089 0.29278 0.27815 0.0
H1405 H 0.30512 0.26938 0.24068 0.0
H1406 H 0.27412 0.28528 0.17854 0.0
H1407 H 0.25967 0.30863 0.21591 0.0
H1408 H 0.23931 0.28514 0.18781 0.0
H1409 H 0.19413 0.22693 0.30812 0.0
H1410 H 0.18164 0.26398 0.35587 0.0
H1411 H 0.24491 0.3102 0.30038 0.0
C1412 C 0.27359 0.22704 0.19608 0.0
C1413 C 0.26693 0.20081 0.18648 0.0
C1414 C 0.24553 0.1891 0.20872 0.0
C1415 C 0.23085 0.2033 0.2397 0.0
C1416 C 0.23782 0.22917 0.24809 0.0
C1417 C 0.25875 0.2409 0.22712 0.0
C1418 C 0.2623 0.26889 0.24244 0.0
C1419 C 0.28903 0.27262 0.26479 0.0
C1420 C 0.25862 0.28812 0.20388 0.0
C1421 C 0.24016 0.27102 0.27554 0.0
C1422 C 0.22619 0.24794 0.27807 0.0
C1423 C 0.20493 0.2451 0.30644 0.0
C1424 C 0.19796 0.26631 0.33337 0.0
C1425 C 0.21228 0.29004 0.33192 0.0
C1426 C 0.23352 0.29238 0.30226 0.0
H1427 H 0.55892 0.51193 0.46006 0.0
H1428 H 0.51053 0.56502 0.38373 0.0
H1429 H 0.47152 0.54961 0.42385 0.0
H1430 H 0.51467 0.45891 0.46352 0.0
H1431 H 0.52195 0.44974 0.51972 0.0
H1432 H 0.54644 0.46572 0.48655 0.0
H1433 H 0.55127 0.50206 0.54577 0.0
H1434 H 0.527 0.48603 0.57939 0.0
H1435 H 0.52272 0.51976 0.56383 0.0
H1436 H 0.43745 0.52733 0.47022 0.0
H1437 H 0.41106 0.50128 0.52262 0.0
H1438 H 0.48156 0.46272 0.56862 0.0
C1439 C 0.54016 0.52049 0.45206 0.0
C1440 C 0.53783 0.53967 0.41871 0.0
C1441 C 0.51289 0.55038 0.40927 0.0
C1442 C 0.49056 0.5417 0.43177 0.0
C1443 C 0.49348 0.52245 0.4639 0.0
C1444 C 0.51766 0.51218 0.47443 0.0
C1445 C 0.51538 0.49168 0.51035 0.0
C1446 C 0.52519 0.46493 0.49403 0.0
C1447 C 0.52996 0.50041 0.55232 0.0
C1448 C 0.48608 0.49159 0.51755 0.0
C1449 C 0.47382 0.50959 0.49062 0.0
C1450 C 0.44683 0.51321 0.49158 0.0
C1451 C 0.432 0.49828 0.52135 0.0
C1452 C 0.44418 0.47987 0.54956 0.0
C1453 C 0.47158 0.47643 0.54722 0.0
H1454 H 0.20519 0.77625 0.65746 0.0
H1455 H 0.24575 0.84561 0.7041 0.0
H1456 H 0.2696 0.81883 0.75837 0.0
H1457 H 0.19792 0.74532 0.76397 0.0
H1458 H 0.20344 0.71276 0.7431 0.0
H1459 H 0.18944 0.73733 0.7077 0.0
H1460 H 0.22625 0.72948 0.65031 0.0
H1461 H 0.24043 0.70495 0.68563 0.0
H1462 H 0.2599 0.73225 0.66726 0.0
H1463 H 0.28946 0.78494 0.8067 0.0
H1464 H 0.30327 0.74606 0.84834 0.0
H1465 H 0.24976 0.69814 0.77165 0.0
C1466 C 0.21902 0.78583 0.67918 0.0
C1467 C 0.22358 0.81309 0.67646 0.0
C1468 C 0.24191 0.82481 0.70545 0.0
C1469 C 0.25559 0.80975 0.7364 0.0
C1470 C 0.25077 0.78297 0.73803 0.0
C1471 C 0.2329 0.77106 0.71036 0.0
C1472 C 0.23147 0.74187 0.71913 0.0
C1473 C 0.20393 0.73386 0.7344 0.0
C1474 C 0.24003 0.72622 0.67814 0.0
C1475 C 0.2512 0.73931 0.75629 0.0
C1476 C 0.26217 0.76328 0.76637 0.0
C1477 C 0.281 0.76605 0.79918 0.0
C1478 C 0.28875 0.74378 0.8226 0.0
C1479 C 0.27761 0.71896 0.81338 0.0
C1480 C 0.25862 0.71679 0.77959 0.0
H1481 H 0.01713 0.55784 0.02621 0.0
H1482 H 0.05503 0.50165 0.11257 0.0
H1483 H 0.03527 0.46557 0.0703 0.0
H1484 H 0.95707 0.52296 0.01282 0.0
H1485 H 0.95312 0.53119 0.95527 0.0
H1486 H 0.9707 0.55292 0.99149 0.0
H1487 H 0.0109 0.55097 0.93945 0.0
H1488 H 0.99339 0.5293 0.90297 0.0
H1489 H 0.02466 0.51966 0.92495 0.0
H1490 H 0.01066 0.43541 0.0204 0.0
H1491 H 0.98361 0.41305 0.96459 0.0
H1492 H 0.96166 0.48824 0.90929 0.0
C1493 C 0.02138 0.53795 0.03609 0.0
C1494 C 0.0377 0.53269 0.07283 0.0
C1495 C 0.04272 0.50631 0.08456 0.0
C1496 C 0.03153 0.48561 0.06077 0.0
C1497 C 0.01544 0.49146 0.02502 0.0
C1498 C 0.01046 0.51694 0.01246 0.0
C1499 C 0.99239 0.51769 0.97265 0.0
C1500 C 0.9668 0.53204 0.98374 0.0
C1501 C 0.00616 0.53014 0.93264 0.0
C1502 C 0.98773 0.48868 0.9653 0.0
C1503 C 0.0013 0.47394 0.99587 0.0
C1504 C 1.00002 0.44673 0.99615 0.0
C1505 C 0.98455 0.4342 0.96427 0.0
C1506 C 0.97047 0.4488 0.9324 0.0
C1507 C 0.97216 0.47646 0.93311 0.0
H1508 H 0.75443 0.80872 0.79286 0.0
H1509 H 0.68036 0.77118 0.82313 0.0
H1510 H 0.69294 0.73346 0.77715 0.0
H1511 H 0.75779 0.78688 0.67854 0.0
H1512 H 0.79269 0.78218 0.67958 0.0
H1513 H 0.77783 0.80647 0.71468 0.0
H1514 H 0.79933 0.78501 0.78315 0.0
H1515 H 0.81408 0.76053 0.7483 0.0
H1516 H 0.79373 0.75082 0.79413 0.0
H1517 H 0.71381 0.69916 0.73018 0.0
H1518 H 0.74044 0.67167 0.68069 0.0
H1519 H 0.80079 0.73143 0.67879 0.0
C1520 C 0.74078 0.79264 0.7896 0.0
C1521 C 0.71638 0.79298 0.81172 0.0
C1522 C 0.69912 0.7715 0.8065 0.0
C1523 C 0.70612 0.74989 0.78054 0.0
C1524 C 0.73039 0.75004 0.75969 0.0
C1525 C 0.74738 0.77092 0.76348 0.0
C1526 C 0.77218 0.76613 0.7371 0.0
C1527 C 0.7753 0.78663 0.70029 0.0
C1528 C 0.79625 0.76559 0.76749 0.0
C1529 C 0.76648 0.73925 0.71812 0.0
C1530 C 0.74231 0.73032 0.73183 0.0
C1531 C 0.73273 0.70598 0.71906 0.0
C1532 C 0.74808 0.69045 0.691 0.0
C1533 C 0.77273 0.69933 0.67573 0.0
C1534 C 0.78205 0.72404 0.68984 0.0
H1535 H 0.75516 0.31512 0.21944 0.0
H1536 H 0.68058 0.27958 0.18626 0.0
H1537 H 0.69082 0.24219 0.23439 0.0
H1538 H 0.79182 0.25673 0.21916 0.0
H1539 H 0.81235 0.26549 0.26526 0.0
H1540 H 0.79857 0.29065 0.23083 0.0
H1541 H 0.77752 0.31245 0.29959 0.0
H1542 H 0.79145 0.28748 0.33431 0.0
H1543 H 0.75672 0.29335 0.33529 0.0
H1544 H 0.71002 0.20739 0.28162 0.0
H1545 H 0.73632 0.17809 0.32848 0.0
H1546 H 0.79842 0.236 0.33198 0.0
C1547 C 0.74078 0.29972 0.22295 0.0
C1548 C 0.71703 0.30034 0.19913 0.0
C1549 C 0.6989 0.27958 0.20416 0.0
C1550 C 0.70452 0.25822 0.23143 0.0
C1551 C 0.72831 0.25792 0.25363 0.0
C1552 C 0.74608 0.27817 0.25007 0.0
C1553 C 0.77061 0.27246 0.27641 0.0
C1554 C 0.79475 0.27126 0.24609 0.0
C1555 C 0.77428 0.29263 0.31361 0.0
C1556 C 0.76391 0.24573 0.29481 0.0
C1557 C 0.7394 0.23776 0.28124 0.0
C1558 C 0.72916 0.21348 0.29282 0.0
C1559 C 0.7443 0.19694 0.31931 0.0
C1560 C 0.76939 0.20476 0.33401 0.0
C1561 C 0.77925 0.22952 0.3215 0.0
H1562 H 0.05542 0.99413 0.92775 0.0
H1563 H 0.01007 0.06569 0.91889 0.0
H1564 H 0.97639 0.04638 0.96736 0.0
H1565 H 1.0005 0.94971 0.92695 0.0
H1566 H 0.01506 0.92734 0.96579 0.0
H1567 H 0.03555 0.94664 0.92994 0.0
H1568 H 0.06012 0.96514 0.99803 0.0
H1569 H 0.03981 0.94582 0.03405 0.0
H1570 H 0.04183 0.98072 0.04172 0.0
H1571 H 0.94769 0.0194 0.0171 0.0
H1572 H 0.9268 0.98728 0.06669 0.0
H1573 H 0.99091 0.93333 0.04345 0.0
C1574 C 0.03842 0.00578 0.93598 0.0
C1575 C 0.03542 0.03146 0.91945 0.0
C1576 C 0.01284 0.04599 0.93109 0.0
C1577 C 0.99356 0.03517 0.95855 0.0
C1578 C 0.99708 0.00978 0.97409 0.0
C1579 C 0.01897 0.99528 0.96334 0.0
C1580 C 0.01814 0.96855 0.98489 0.0
C1581 C 0.01726 0.94678 0.9498 0.0
C1582 C 0.04135 0.96485 0.01656 0.0
C1583 C 0.99252 0.97039 0.00985 0.0
C1584 C 0.98059 0.99427 0.00291 0.0
C1585 C 0.95683 1.00061 0.02273 0.0
C1586 C 0.94509 0.98219 0.05079 0.0
C1587 C 0.95717 0.95774 0.05901 0.0
C1588 C 0.98112 0.9518 0.03785 0.0
H1589 H 0.55562 0.01535 0.52662 0.0
H1590 H 0.50285 0.05877 0.612 0.0
H1591 H 0.46517 0.04076 0.57152 0.0
H1592 H 0.51779 0.02423 0.4262 0.0
H1593 H 0.52513 0.99208 0.40514 0.0
H1594 H 0.54807 0.00847 0.44082 0.0
H1595 H 0.54731 0.9688 0.49405 0.0
H1596 H 0.52422 0.95238 0.45872 0.0
H1597 H 0.51655 0.95764 0.51624 0.0
H1598 H 0.4331 0.01749 0.52311 0.0
H1599 H 0.40878 0.99228 0.46705 0.0
H1600 H 0.48211 0.96436 0.41206 0.0
C1601 C 0.53615 0.02113 0.53669 0.0
C1602 C 0.53224 0.03848 0.57253 0.0
C1603 C 0.50641 0.04562 0.58455 0.0
C1604 C 0.48483 0.03541 0.56187 0.0
C1605 C 0.48934 0.01822 0.52698 0.0
C1606 C 0.51433 0.0113 0.51412 0.0
C1607 C 0.51369 0.99276 0.47497 0.0
C1608 C 0.52695 0.00513 0.43438 0.0
C1609 C 0.52618 0.96633 0.48672 0.0
C1610 C 0.48444 0.99015 0.46823 0.0
C1611 C 0.47078 0.00499 0.49865 0.0
C1612 C 0.44357 0.00585 0.49901 0.0
C1613 C 0.42992 0.99142 0.46705 0.0
C1614 C 0.44349 0.97633 0.4351 0.0
C1615 C 0.47113 0.97562 0.43607 0.0
loop_
_geom_bond_atom_site_label_1
_geom_bond_atom_site_label_2
_geom_bond_distance
_geom_bond_site_symmetry_2
_ccdc_geom_bond_type
Zn0 O6 1.969 . S
Zn0 O7 1.965 . S
Zn0 O11 2.024 . S
Zn0 O16 1.969 . S
Zn1 O8 1.969 . S
Zn1 O14 1.969 1_554 S
Zn1 O15 1.965 1_554 S
Zn1 O17 2.024 . S
C2 O3 1.229 . S
C2 O11 1.058 . S
O3 C2 1.229 . S
C4 O5 1.229 . S
C4 O17 1.058 . S
O5 C4 1.229 . S
O6 Zn0 1.969 . S
O6 C9 1.267 . S
O7 Zn0 1.965 . S
O7 C18 1.260 . S
O8 Zn1 1.969 . S
O8 C18 1.258 . S
C9 O6 1.267 . S
C9 O10 1.228 . S
O10 C9 1.228 . S
O11 Zn0 2.024 . S
O11 C2 1.058 . S
C12 O13 1.228 . S
C12 O14 1.267 . S
O13 C12 1.228 . S
O14 Zn1 1.969 1_556 S
O14 C12 1.267 . S
O15 Zn1 1.965 1_556 S
O15 C19 1.260 1_556 S
O16 Zn0 1.969 . S
O16 C19 1.258 . S
O17 Zn1 2.024 . S
O17 C4 1.058 . S
C18 O7 1.260 . S
C18 O8 1.258 . S
C19 O15 1.260 1_554 S
C19 O16 1.258 . S
Zn20 O26 1.969 . S
Zn20 O27 1.965 . S
Zn20 O31 2.024 . S
Zn20 O36 1.969 . S
Zn21 O28 1.969 . S
Zn21 O34 1.969 . S
Zn21 O35 1.965 . S
Zn21 O37 2.024 . S
C22 O23 1.229 . S
C22 O31 1.058 . S
O23 C22 1.229 . S
C24 O25 1.229 . S
C24 O37 1.058 . S
O25 C24 1.229 . S
O26 Zn20 1.969 . S
O26 C29 1.267 . S
O27 Zn20 1.965 . S
O27 C38 1.260 . S
O28 Zn21 1.969 . S
O28 C38 1.258 . S
C29 O26 1.267 . S
C29 O30 1.228 . S
O30 C29 1.228 . S
O31 Zn20 2.024 . S
O31 C22 1.058 . S
C32 O33 1.228 . S
C32 O34 1.267 . S
O33 C32 1.228 . S
O34 Zn21 1.969 . S
O34 C32 1.267 . S
O35 Zn21 1.965 . S
O35 C39 1.260 . S
O36 Zn20 1.969 . S
O36 C39 1.258 . S
O37 Zn21 2.024 . S
O37 C24 1.058 . S
C38 O27 1.260 . S
C38 O28 1.258 . S
C39 O35 1.260 . S
C39 O36 1.258 . S
Zn40 O46 1.969 . S
Zn40 O47 1.965 . S
Zn40 O51 2.024 . S
Zn40 O56 1.969 . S
Zn41 O48 1.969 . S
Zn41 O54 1.969 . S
Zn41 O55 1.965 . S
Zn41 O57 2.024 . S
C42 O43 1.229 . S
C42 O51 1.058 . S
O43 C42 1.229 . S
C44 O45 1.229 . S
C44 O57 1.058 . S
O45 C44 1.229 . S
O46 Zn40 1.969 . S
O46 C49 1.267 . S
O47 Zn40 1.965 . S
O47 C58 1.260 . S
O48 Zn41 1.969 . S
O48 C58 1.258 . S
C49 O46 1.267 . S
C49 O50 1.228 . S
O50 C49 1.228 . S
O51 Zn40 2.024 . S
O51 C42 1.058 . S
C52 O53 1.228 . S
C52 O54 1.267 . S
O53 C52 1.228 . S
O54 Zn41 1.969 . S
O54 C52 1.267 . S
O55 Zn41 1.965 . S
O55 C59 1.260 . S
O56 Zn40 1.969 . S
O56 C59 1.258 . S
O57 Zn41 2.024 . S
O57 C44 1.058 . S
C58 O47 1.260 . S
C58 O48 1.258 . S
C59 O55 1.260 . S
C59 O56 1.258 . S
Zn60 O66 1.969 . S
Zn60 O67 1.965 . S
Zn60 O71 2.024 . S
Zn60 O76 1.969 . S
Zn61 O68 1.969 . S
Zn61 O74 1.969 . S
Zn61 O75 1.965 . S
Zn61 O77 2.024 . S
C62 O63 1.229 . S
C62 O71 1.058 . S
O63 C62 1.229 . S
C64 O65 1.229 . S
C64 O77 1.058 . S
O65 C64 1.229 . S
O66 Zn60 1.969 . S
O66 C69 1.267 . S
O67 Zn60 1.965 . S
O67 C78 1.260 . S
O68 Zn61 1.969 . S
O68 C78 1.258 . S
C69 O66 1.267 . S
C69 O70 1.228 . S
O70 C69 1.228 . S
O71 Zn60 2.024 . S
O71 C62 1.058 . S
C72 O73 1.228 . S
C72 O74 1.267 . S
O73 C72 1.228 . S
O74 Zn61 1.969 . S
O74 C72 1.267 . S
O75 Zn61 1.965 . S
O75 C79 1.260 . S
O76 Zn60 1.969 . S
O76 C79 1.258 . S
O77 Zn61 2.024 . S
O77 C64 1.058 . S
C78 O67 1.260 . S
C78 O68 1.258 . S
C79 O75 1.260 . S
C79 O76 1.258 . S
Zn80 O86 1.969 1_556 S
Zn80 O87 1.965 1_556 S
Zn80 O91 2.024 . S
Zn80 O96 1.969 . S
Zn81 O88 1.969 . S
Zn81 O94 1.969 . S
Zn81 O95 1.965 . S
Zn81 O97 2.024 . S
C82 O83 1.229 . S
C82 O91 1.058 . S
O83 C82 1.229 . S
C84 O85 1.229 . S
C84 O97 1.058 . S
O85 C84 1.229 . S
O86 Zn80 1.969 1_554 S
O86 C89 1.267 . S
O87 Zn80 1.965 1_554 S
O87 C98 1.260 1_554 S
O88 Zn81 1.969 . S
O88 C98 1.258 . S
C89 O86 1.267 . S
C89 O90 1.228 . S
O90 C89 1.228 . S
O91 Zn80 2.024 . S
O91 C82 1.058 . S
C92 O93 1.228 . S
C92 O94 1.267 . S
O93 C92 1.228 . S
O94 Zn81 1.969 . S
O94 C92 1.267 . S
O95 Zn81 1.965 . S
O95 C99 1.260 . S
O96 Zn80 1.969 . S
O96 C99 1.258 . S
O97 Zn81 2.024 . S
O97 C84 1.058 . S
C98 O87 1.260 1_556 S
C98 O88 1.258 . S
C99 O95 1.260 . S
C99 O96 1.258 . S
Zn100 O106 1.969 . S
Zn100 O107 1.965 . S
Zn100 O111 2.024 . S
Zn100 O116 1.969 . S
Zn101 O108 1.969 . S
Zn101 O114 1.969 . S
Zn101 O115 1.965 . S
Zn101 O117 2.024 . S
C102 O103 1.229 . S
C102 O111 1.058 . S
O103 C102 1.229 . S
C104 O105 1.229 . S
C104 O117 1.058 . S
O105 C104 1.229 . S
O106 Zn100 1.969 . S
O106 C109 1.267 . S
O107 Zn100 1.965 . S
O107 C118 1.260 . S
O108 Zn101 1.969 . S
O108 C118 1.258 . S
C109 O106 1.267 . S
C109 O110 1.228 . S
O110 C109 1.228 . S
O111 Zn100 2.024 . S
O111 C102 1.058 . S
C112 O113 1.228 . S
C112 O114 1.267 . S
O113 C112 1.228 . S
O114 Zn101 1.969 . S
O114 C112 1.267 . S
O115 Zn101 1.965 . S
O115 C119 1.260 . S
O116 Zn100 1.969 . S
O116 C119 1.258 . S
O117 Zn101 2.024 . S
O117 C104 1.058 . S
C118 O107 1.260 . S
C118 O108 1.258 . S
C119 O115 1.260 . S
C119 O116 1.258 . S
Zn120 O126 1.969 . S
Zn120 O127 1.965 . S
Zn120 O131 2.024 . S
Zn120 O136 1.969 . S
Zn121 O128 1.969 . S
Zn121 O134 1.969 . S
Zn121 O135 1.965 . S
Zn121 O137 2.024 . S
C122 O123 1.229 . S
C122 O131 1.058 . S
O123 C122 1.229 . S
C124 O125 1.229 . S
C124 O137 1.058 . S
O125 C124 1.229 . S
O126 Zn120 1.969 . S
O126 C129 1.267 . S
O127 Zn120 1.965 . S
O127 C138 1.260 . S
O128 Zn121 1.969 . S
O128 C138 1.258 . S
C129 O126 1.267 . S
C129 O130 1.228 . S
O130 C129 1.228 . S
O131 Zn120 2.024 . S
O131 C122 1.058 . S
C132 O133 1.228 . S
C132 O134 1.267 . S
O133 C132 1.228 . S
O134 Zn121 1.969 . S
O134 C132 1.267 . S
O135 Zn121 1.965 . S
O135 C139 1.260 . S
O136 Zn120 1.969 . S
O136 C139 1.258 . S
O137 Zn121 2.024 . S
O137 C124 1.058 . S
C138 O127 1.260 . S
C138 O128 1.258 . S
C139 O135 1.260 . S
C139 O136 1.258 . S
Zn140 O146 1.969 . S
Zn140 O147 1.965 . S
Zn140 O151 2.024 . S
Zn140 O156 1.969 . S
Zn141 O148 1.969 . S
Zn141 O154 1.969 . S
Zn141 O155 1.965 . S
Zn141 O157 2.024 . S
C142 O143 1.229 . S
C142 O151 1.058 . S
O143 C142 1.229 . S
C144 O145 1.229 . S
C144 O157 1.058 . S
O145 C144 1.229 . S
O146 Zn140 1.969 . S
O146 C149 1.267 . S
O147 Zn140 1.965 . S
O147 C158 1.260 . S
O148 Zn141 1.969 . S
O148 C158 1.258 . S
C149 O146 1.267 . S
C149 O150 1.228 . S
O150 C149 1.228 . S
O151 Zn140 2.024 . S
O151 C142 1.058 . S
C152 O153 1.228 . S
C152 O154 1.267 . S
O153 C152 1.228 . S
O154 Zn141 1.969 . S
O154 C152 1.267 . S
O155 Zn141 1.965 . S
O155 C159 1.260 . S
O156 Zn140 1.969 . S
O156 C159 1.258 . S
O157 Zn141 2.024 . S
O157 C144 1.058 . S
C158 O147 1.260 . S
C158 O148 1.258 . S
C159 O155 1.260 . S
C159 O156 1.258 . S
Zn160 O166 1.969 . S
Zn160 O167 1.965 . S
Zn160 O171 2.024 . S
Zn160 O176 1.969 . S
Zn161 O168 1.969 . S
Zn161 O174 1.969 . S
Zn161 O175 1.965 . S
Zn161 O177 2.024 . S
C162 O163 1.229 . S
C162 O171 1.058 . S
O163 C162 1.229 . S
C164 O165 1.229 . S
C164 O177 1.058 . S
O165 C164 1.229 . S
O166 Zn160 1.969 . S
O166 C169 1.267 . S
O167 Zn160 1.965 . S
O167 C178 1.260 . S
O168 Zn161 1.969 . S
O168 C178 1.258 . S
C169 O166 1.267 . S
C169 O170 1.228 . S
O170 C169 1.228 . S
O171 Zn160 2.024 . S
O171 C162 1.058 . S
C172 O173 1.228 . S
C172 O174 1.267 . S
O173 C172 1.228 . S
O174 Zn161 1.969 . S
O174 C172 1.267 . S
O175 Zn161 1.965 . S
O175 C179 1.260 . S
O176 Zn160 1.969 . S
O176 C179 1.258 . S
O177 Zn161 2.024 . S
O177 C164 1.058 . S
C178 O167 1.260 . S
C178 O168 1.258 . S
C179 O175 1.260 . S
C179 O176 1.258 . S
Zn180 O186 1.969 . S
Zn180 O187 1.965 . S
Zn180 O191 2.024 . S
Zn180 O196 1.969 . S
Zn181 O188 1.969 . S
Zn181 O194 1.969 . S
Zn181 O195 1.965 . S
Zn181 O197 2.024 . S
C182 O183 1.229 . S
C182 O191 1.058 . S
O183 C182 1.229 . S
C184 O185 1.229 . S
C184 O197 1.058 . S
O185 C184 1.229 . S
O186 Zn180 1.969 . S
O186 C189 1.267 . S
O187 Zn180 1.965 . S
O187 C198 1.260 . S
O188 Zn181 1.969 . S
O188 C198 1.258 . S
C189 O186 1.267 . S
C189 O190 1.228 . S
O190 C189 1.228 . S
O191 Zn180 2.024 . S
O191 C182 1.058 . S
C192 O193 1.228 . S
C192 O194 1.267 . S
O193 C192 1.228 . S
O194 Zn181 1.969 . S
O194 C192 1.267 . S
O195 Zn181 1.965 . S
O195 C199 1.260 . S
O196 Zn180 1.969 . S
O196 C199 1.258 . S
O197 Zn181 2.024 . S
O197 C184 1.058 . S
C198 O187 1.260 . S
C198 O188 1.258 . S
C199 O195 1.260 . S
C199 O196 1.258 . S
Zn200 O206 1.969 . S
Zn200 O207 1.965 . S
Zn200 O211 2.024 . S
Zn200 O216 1.969 . S
Zn201 O208 1.969 . S
Zn201 O214 1.969 1_554 S
Zn201 O215 1.965 1_554 S
Zn201 O217 2.024 . S
C202 O203 1.229 . S
C202 O211 1.058 . S
O203 C202 1.229 . S
C204 O205 1.229 . S
C204 O217 1.058 . S
O205 C204 1.229 . S
O206 Zn200 1.969 . S
O206 C209 1.267 . S
O207 Zn200 1.965 . S
O207 C218 1.260 . S
O208 Zn201 1.969 . S
O208 C218 1.258 . S
C209 O206 1.267 . S
C209 O210 1.228 . S
O210 C209 1.228 . S
O211 Zn200 2.024 . S
O211 C202 1.058 . S
C212 O213 1.228 . S
C212 O214 1.267 . S
O213 C212 1.228 . S
O214 Zn201 1.969 1_556 S
O214 C212 1.267 . S
O215 Zn201 1.965 1_556 S
O215 C219 1.260 1_556 S
O216 Zn200 1.969 . S
O216 C219 1.258 . S
O217 Zn201 2.024 . S
O217 C204 1.058 . S
C218 O207 1.260 . S
C218 O208 1.258 . S
C219 O215 1.260 1_554 S
C219 O216 1.258 . S
Zn220 O226 1.969 . S
Zn220 O227 1.965 . S
Zn220 O231 2.024 . S
Zn220 O236 1.969 . S
Zn221 O228 1.969 . S
Zn221 O234 1.969 . S
Zn221 O235 1.965 . S
Zn221 O237 2.024 . S
C222 O223 1.229 . S
C222 O231 1.058 . S
O223 C222 1.229 . S
C224 O225 1.229 . S
C224 O237 1.058 . S
O225 C224 1.229 . S
O226 Zn220 1.969 . S
O226 C229 1.267 . S
O227 Zn220 1.965 . S
O227 C238 1.260 . S
O228 Zn221 1.969 . S
O228 C238 1.258 . S
C229 O226 1.267 . S
C229 O230 1.228 . S
O230 C229 1.228 . S
O231 Zn220 2.024 . S
O231 C222 1.058 . S
C232 O233 1.228 . S
C232 O234 1.267 . S
O233 C232 1.228 . S
O234 Zn221 1.969 . S
O234 C232 1.267 . S
O235 Zn221 1.965 . S
O235 C239 1.260 . S
O236 Zn220 1.969 . S
O236 C239 1.258 . S
O237 Zn221 2.024 . S
O237 C224 1.058 . S
C238 O227 1.260 . S
C238 O228 1.258 . S
C239 O235 1.260 . S
C239 O236 1.258 . S
Zn240 O246 1.969 . S
Zn240 O247 1.965 . S
Zn240 O251 2.024 . S
Zn240 O256 1.969 . S
Zn241 O248 1.969 . S
Zn241 O254 1.969 . S
Zn241 O255 1.965 . S
Zn241 O257 2.024 . S
C242 O243 1.229 . S
C242 O251 1.058 . S
O243 C242 1.229 . S
C244 O245 1.229 . S
C244 O257 1.058 . S
O245 C244 1.229 . S
O246 Zn240 1.969 . S
O246 C249 1.267 . S
O247 Zn240 1.965 . S
O247 C258 1.260 . S
O248 Zn241 1.969 . S
O248 C258 1.258 . S
C249 O246 1.267 . S
C249 O250 1.228 . S
O250 C249 1.228 . S
O251 Zn240 2.024 . S
O251 C242 1.058 . S
C252 O253 1.228 . S
C252 O254 1.267 . S
O253 C252 1.228 . S
O254 Zn241 1.969 . S
O254 C252 1.267 . S
O255 Zn241 1.965 . S
O255 C259 1.260 . S
O256 Zn240 1.969 . S
O256 C259 1.258 . S
O257 Zn241 2.024 . S
O257 C244 1.058 . S
C258 O247 1.260 . S
C258 O248 1.258 . S
C259 O255 1.260 . S
C259 O256 1.258 . S
Zn260 O266 1.969 . S
Zn260 O267 1.965 . S
Zn260 O271 2.024 . S
Zn260 O276 1.969 . S
Zn261 O268 1.969 . S
Zn261 O274 1.969 . S
Zn261 O275 1.965 . S
Zn261 O277 2.024 . S
C262 O263 1.229 . S
C262 O271 1.058 . S
O263 C262 1.229 . S
C264 O265 1.229 . S
C264 O277 1.058 . S
O265 C264 1.229 . S
O266 Zn260 1.969 . S
O266 C269 1.267 . S
O267 Zn260 1.965 . S
O267 C278 1.260 . S
O268 Zn261 1.969 . S
O268 C278 1.258 . S
C269 O266 1.267 . S
C269 O270 1.228 . S
O270 C269 1.228 . S
O271 Zn260 2.024 . S
O271 C262 1.058 . S
C272 O273 1.228 . S
C272 O274 1.267 . S
O273 C272 1.228 . S
O274 Zn261 1.969 . S
O274 C272 1.267 . S
O275 Zn261 1.965 . S
O275 C279 1.260 . S
O276 Zn260 1.969 . S
O276 C279 1.258 . S
O277 Zn261 2.024 . S
O277 C264 1.058 . S
C278 O267 1.260 . S
C278 O268 1.258 . S
C279 O275 1.260 . S
C279 O276 1.258 . S
Zn280 O286 1.969 1_556 S
Zn280 O287 1.965 1_556 S
Zn280 O291 2.024 . S
Zn280 O296 1.969 . S
Zn281 O288 1.969 . S
Zn281 O294 1.969 . S
Zn281 O295 1.965 . S
Zn281 O297 2.024 . S
C282 O283 1.229 . S
C282 O291 1.058 . S
O283 C282 1.229 . S
C284 O285 1.229 . S
C284 O297 1.058 . S
O285 C284 1.229 . S
O286 Zn280 1.969 1_554 S
O286 C289 1.267 . S
O287 Zn280 1.965 1_554 S
O287 C298 1.260 1_554 S
O288 Zn281 1.969 . S
O288 C298 1.258 . S
C289 O286 1.267 . S
C289 O290 1.228 . S
O290 C289 1.228 . S
O291 Zn280 2.024 . S
O291 C282 1.058 . S
C292 O293 1.228 . S
C292 O294 1.267 . S
O293 C292 1.228 . S
O294 Zn281 1.969 . S
O294 C292 1.267 . S
O295 Zn281 1.965 . S
O295 C299 1.260 . S
O296 Zn280 1.969 . S
O296 C299 1.258 . S
O297 Zn281 2.024 . S
O297 C284 1.058 . S
C298 O287 1.260 1_556 S
C298 O288 1.258 . S
C299 O295 1.260 . S
C299 O296 1.258 . S
Zn300 O306 1.969 . S
Zn300 O307 1.965 . S
Zn300 O311 2.024 . S
Zn300 O316 1.969 . S
Zn301 O308 1.969 . S
Zn301 O314 1.969 . S
Zn301 O315 1.965 . S
Zn301 O317 2.024 . S
C302 O303 1.229 . S
C302 O311 1.058 . S
O303 C302 1.229 . S
C304 O305 1.229 . S
C304 O317 1.058 . S
O305 C304 1.229 . S
O306 Zn300 1.969 . S
O306 C309 1.267 . S
O307 Zn300 1.965 . S
O307 C318 1.260 . S
O308 Zn301 1.969 . S
O308 C318 1.258 . S
C309 O306 1.267 . S
C309 O310 1.228 . S
O310 C309 1.228 . S
O311 Zn300 2.024 . S
O311 C302 1.058 . S
C312 O313 1.228 . S
C312 O314 1.267 . S
O313 C312 1.228 . S
O314 Zn301 1.969 . S
O314 C312 1.267 . S
O315 Zn301 1.965 . S
O315 C319 1.260 . S
O316 Zn300 1.969 . S
O316 C319 1.258 . S
O317 Zn301 2.024 . S
O317 C304 1.058 . S
C318 O307 1.260 . S
C318 O308 1.258 . S
C319 O315 1.260 . S
C319 O316 1.258 . S
H320 C332 0.930 . S
H321 C334 0.930 . S
H322 C335 0.930 . S
H323 C339 0.959 . S
H324 C339 0.959 . S
H325 C339 0.961 . S
H326 C340 0.960 . S
H327 C340 0.961 . S
H328 C340 0.959 . S
H329 C343 0.929 . S
H330 C344 0.931 . S
H331 C346 0.930 . S
C332 H320 0.930 . S
C332 C333 1.399 . S
C332 C337 1.399 . S
C333 C332 1.399 . S
C333 C334 1.376 . S
C334 H321 0.930 . S
C334 C333 1.376 . S
C334 C335 1.388 . S
C335 H322 0.930 . S
C335 C334 1.388 . S
C335 C336 1.390 . S
C336 C335 1.390 . S
C336 C337 1.394 . S
C336 C342 1.465 . S
C337 C332 1.399 . S
C337 C336 1.394 . S
C337 C338 1.516 . S
C338 C337 1.516 . S
C338 C339 1.502 . S
C338 C340 1.561 1_554 S
C338 C341 1.526 . S
C339 H323 0.959 . S
C339 H324 0.959 . S
C339 H325 0.961 . S
C339 C338 1.502 . S
C340 H326 0.960 . S
C340 H327 0.961 . S
C340 H328 0.959 . S
C340 C338 1.561 1_556 S
C341 C338 1.526 . S
C341 C342 1.396 . S
C341 C346 1.390 . S
C342 C336 1.465 . S
C342 C341 1.396 . S
C342 C343 1.399 . S
C343 H329 0.929 . S
C343 C342 1.399 . S
C343 C344 1.385 . S
C344 H330 0.931 . S
C344 C343 1.385 . S
C344 C345 1.389 . S
C345 C344 1.389 . S
C345 C346 1.387 . S
C346 H331 0.930 . S
C346 C341 1.390 . S
C346 C345 1.387 . S
H347 C359 0.930 . S
H348 C361 0.930 . S
H349 C362 0.930 . S
H350 C366 0.959 . S
H351 C366 0.959 . S
H352 C366 0.961 . S
H353 C367 0.960 . S
H354 C367 0.961 . S
H355 C367 0.959 . S
H356 C370 0.929 . S
H357 C371 0.931 . S
H358 C373 0.930 . S
C359 H347 0.930 . S
C359 C360 1.399 . S
C359 C364 1.399 . S
C360 C359 1.399 . S
C360 C361 1.376 . S
C361 H348 0.930 . S
C361 C360 1.376 . S
C361 C362 1.388 . S
C362 H349 0.930 . S
C362 C361 1.388 . S
C362 C363 1.390 . S
C363 C362 1.390 . S
C363 C364 1.394 . S
C363 C369 1.465 . S
C364 C359 1.399 . S
C364 C363 1.394 . S
C364 C365 1.516 . S
C365 C364 1.516 . S
C365 C366 1.502 . S
C365 C367 1.561 . S
C365 C368 1.526 . S
C366 H350 0.959 . S
C366 H351 0.959 . S
C366 H352 0.961 . S
C366 C365 1.502 . S
C367 H353 0.960 . S
C367 H354 0.961 . S
C367 H355 0.959 . S
C367 C365 1.561 . S
C368 C365 1.526 . S
C368 C369 1.396 . S
C368 C373 1.390 . S
C369 C363 1.465 . S
C369 C368 1.396 . S
C369 C370 1.399 . S
C370 H356 0.929 . S
C370 C369 1.399 . S
C370 C371 1.385 . S
C371 H357 0.931 . S
C371 C370 1.385 . S
C371 C372 1.389 . S
C372 C371 1.389 . S
C372 C373 1.387 . S
C373 H358 0.930 . S
C373 C368 1.390 . S
C373 C372 1.387 . S
H374 C386 0.930 . S
H375 C388 0.930 . S
H376 C389 0.930 . S
H377 C393 0.959 . S
H378 C393 0.959 . S
H379 C393 0.961 . S
H380 C394 0.960 . S
H381 C394 0.961 1_655 S
H382 C394 0.959 . S
H383 C397 0.950 . S
H384 C398 0.931 . S
H385 C400 0.930 . S
C386 H374 0.930 . S
C386 C387 1.399 . S
C386 C391 1.399 . S
C387 C386 1.399 . S
C387 C388 1.376 . S
C388 H375 0.930 . S
C388 C387 1.376 . S
C388 C389 1.388 . S
C389 H376 0.930 . S
C389 C388 1.388 . S
C389 C390 1.390 . S
C390 C389 1.390 . S
C390 C391 1.394 . S
C390 C396 1.465 1_455 S
C391 C386 1.399 . S
C391 C390 1.394 . S
C391 C392 1.516 1_455 S
C392 C391 1.516 1_655 S
C392 C393 1.502 . S
C392 C394 1.561 1_655 S
C392 C395 1.526 . S
C393 H377 0.959 . S
C393 H378 0.959 . S
C393 H379 0.961 . S
C393 C392 1.502 . S
C394 H380 0.960 . S
C394 H381 0.961 1_455 S
C394 H382 0.959 . S
C394 C392 1.561 1_455 S
C395 C392 1.526 . S
C395 C396 1.396 . S
C395 C400 1.390 . S
C396 C390 1.465 1_655 S
C396 C395 1.396 . S
C396 C397 1.399 . S
C397 H383 0.950 . S
C397 C396 1.399 . S
C397 C398 1.385 . S
C398 H384 0.931 . S
C398 C397 1.385 . S
C398 C399 1.389 . S
C399 C398 1.389 . S
C399 C400 1.387 . S
C400 H385 0.930 . S
C400 C395 1.390 . S
C400 C399 1.387 . S
H401 C413 0.930 . S
H402 C415 0.930 . S
H403 C416 0.930 . S
H404 C420 0.959 . S
H405 C420 0.959 . S
H406 C420 0.961 . S
H407 C421 0.960 1_655 S
H408 C421 0.961 . S
H409 C421 0.959 . S
H410 C424 0.929 . S
H411 C425 0.931 . S
H412 C427 0.930 . S
C413 H401 0.930 . S
C413 C414 1.399 . S
C413 C418 1.399 . S
C414 C413 1.399 . S
C414 C415 1.376 . S
C415 H402 0.930 . S
C415 C414 1.376 . S
C415 C416 1.388 . S
C416 H403 0.930 . S
C416 C415 1.388 . S
C416 C417 1.390 . S
C417 C416 1.390 . S
C417 C418 1.394 . S
C417 C423 1.465 1_655 S
C418 C413 1.399 . S
C418 C417 1.394 . S
C418 C419 1.516 . S
C419 C418 1.516 . S
C419 C420 1.502 . S
C419 C421 1.561 1_655 S
C419 C422 1.526 1_655 S
C420 H404 0.959 . S
C420 H405 0.959 . S
C420 H406 0.961 . S
C420 C419 1.502 . S
C421 H407 0.960 1_455 S
C421 H408 0.961 . S
C421 H409 0.959 . S
C421 C419 1.561 1_455 S
C422 C419 1.526 1_455 S
C422 C423 1.396 . S
C422 C427 1.390 . S
C423 C417 1.465 1_455 S
C423 C422 1.396 . S
C423 C424 1.399 . S
C424 H410 0.929 . S
C424 C423 1.399 . S
C424 C425 1.385 . S
C425 H411 0.931 . S
C425 C424 1.385 . S
C425 C426 1.389 . S
C426 C425 1.389 . S
C426 C427 1.387 . S
C427 H412 0.930 . S
C427 C422 1.390 . S
C427 C426 1.387 . S
H428 C440 0.930 . S
H429 C442 0.930 . S
H430 C443 0.944 . S
H431 C447 0.959 . S
H432 C447 0.959 . S
H433 C447 0.961 . S
H434 C448 0.960 . S
H435 C448 0.961 . S
H436 C448 0.959 . S
H437 C451 0.926 1_554 S
H438 C452 0.931 . S
H439 C454 0.930 . S
C440 H428 0.930 . S
C440 C441 1.399 . S
C440 C445 1.399 . S
C441 C440 1.399 . S
C441 C442 1.376 . S
C442 H429 0.930 . S
C442 C441 1.376 . S
C442 C443 1.388 . S
C443 H430 0.944 . S
C443 C442 1.388 . S
C443 C444 1.390 . S
C444 C443 1.390 . S
C444 C445 1.394 . S
C444 C450 1.465 . S
C445 C440 1.399 . S
C445 C444 1.394 . S
C445 C446 1.516 . S
C446 C445 1.516 . S
C446 C447 1.502 . S
C446 C448 1.561 . S
C446 C449 1.526 . S
C447 H431 0.959 . S
C447 H432 0.959 . S
C447 H433 0.961 . S
C447 C446 1.502 . S
C448 H434 0.960 . S
C448 H435 0.961 . S
C448 H436 0.959 . S
C448 C446 1.561 . S
C449 C446 1.526 . S
C449 C450 1.396 . S
C449 C454 1.390 . S
C450 C444 1.465 . S
C450 C449 1.396 . S
C450 C451 1.399 . S
C451 H437 0.926 1_556 S
C451 C450 1.399 . S
C451 C452 1.385 . S
C452 H438 0.931 . S
C452 C451 1.385 . S
C452 C453 1.389 . S
C453 C452 1.389 . S
C453 C454 1.387 . S
C454 H439 0.930 . S
C454 C449 1.390 . S
C454 C453 1.387 . S
H455 C467 0.930 . S
H456 C469 0.930 . S
H457 C470 0.930 . S
H458 C474 0.959 . S
H459 C474 0.959 . S
H460 C474 0.961 . S
H461 C475 0.960 . S
H462 C475 0.961 . S
H463 C475 0.959 . S
H464 C478 0.929 . S
H465 C479 0.931 . S
H466 C481 0.930 . S
C467 H455 0.930 . S
C467 C468 1.399 . S
C467 C472 1.399 . S
C468 C467 1.399 . S
C468 C469 1.376 . S
C469 H456 0.930 . S
C469 C468 1.376 . S
C469 C470 1.388 . S
C470 H457 0.930 . S
C470 C469 1.388 . S
C470 C471 1.390 . S
C471 C470 1.390 . S
C471 C472 1.394 . S
C471 C477 1.465 . S
C472 C467 1.399 . S
C472 C471 1.394 . S
C472 C473 1.516 . S
C473 C472 1.516 . S
C473 C474 1.502 . S
C473 C475 1.561 . S
C473 C476 1.526 . S
C474 H458 0.959 . S
C474 H459 0.959 . S
C474 H460 0.961 . S
C474 C473 1.502 . S
C475 H461 0.960 . S
C475 H462 0.961 . S
C475 H463 0.959 . S
C475 C473 1.561 . S
C476 C473 1.526 . S
C476 C477 1.396 . S
C476 C481 1.390 . S
C477 C471 1.465 . S
C477 C476 1.396 . S
C477 C478 1.399 . S
C478 H464 0.929 . S
C478 C477 1.399 . S
C478 C479 1.385 . S
C479 H465 0.931 . S
C479 C478 1.385 . S
C479 C480 1.389 . S
C480 C479 1.389 . S
C480 C481 1.387 . S
C481 H466 0.930 . S
C481 C476 1.390 . S
C481 C480 1.387 . S
H482 C494 0.930 . S
H483 C496 0.930 . S
H484 C497 0.930 . S
H485 C501 0.959 . S
H486 C501 0.959 . S
H487 C501 0.961 . S
H488 C502 0.960 . S
H489 C502 0.961 . S
H490 C502 0.959 . S
H491 C505 0.929 . S
H492 C506 0.931 . S
H493 C508 0.930 . S
C494 H482 0.930 . S
C494 C495 1.399 . S
C494 C499 1.399 . S
C495 C494 1.399 . S
C495 C496 1.376 . S
C496 H483 0.930 . S
C496 C495 1.376 . S
C496 C497 1.388 . S
C497 H484 0.930 . S
C497 C496 1.388 . S
C497 C498 1.390 . S
C498 C497 1.390 . S
C498 C499 1.394 . S
C498 C504 1.465 1_655 S
C499 C494 1.399 . S
C499 C498 1.394 . S
C499 C500 1.516 . S
C500 C499 1.516 . S
C500 C501 1.502 1_655 S
C500 C502 1.561 . S
C500 C503 1.526 1_655 S
C501 H485 0.959 . S
C501 H486 0.959 . S
C501 H487 0.961 . S
C501 C500 1.502 1_455 S
C502 H488 0.960 . S
C502 H489 0.961 . S
C502 H490 0.959 . S
C502 C500 1.561 . S
C503 C500 1.526 1_455 S
C503 C504 1.396 . S
C503 C508 1.390 . S
C504 C498 1.465 1_455 S
C504 C503 1.396 . S
C504 C505 1.399 . S
C505 H491 0.929 . S
C505 C504 1.399 . S
C505 C506 1.385 . S
C506 H492 0.931 . S
C506 C505 1.385 . S
C506 C507 1.389 . S
C507 C506 1.389 . S
C507 C508 1.387 . S
C508 H493 0.930 . S
C508 C503 1.390 . S
C508 C507 1.387 . S
H509 C521 0.930 . S
H510 C523 0.930 . S
H511 C524 0.930 . S
H512 C528 0.959 . S
H513 C528 0.959 . S
H514 C528 0.961 . S
H515 C529 0.960 . S
H516 C529 0.961 . S
H517 C529 0.959 . S
H518 C532 0.929 . S
H519 C533 0.931 . S
H520 C535 0.930 . S
C521 H509 0.930 . S
C521 C522 1.399 . S
C521 C526 1.399 . S
C522 C521 1.399 . S
C522 C523 1.376 . S
C523 H510 0.930 . S
C523 C522 1.376 . S
C523 C524 1.388 . S
C524 H511 0.930 . S
C524 C523 1.388 . S
C524 C525 1.390 . S
C525 C524 1.390 . S
C525 C526 1.394 . S
C525 C531 1.465 1_455 S
C526 C521 1.399 . S
C526 C525 1.394 . S
C526 C527 1.496 1_455 S
C527 C526 1.496 1_655 S
C527 C528 1.523 . S
C527 C529 1.541 1_655 S
C527 C530 1.544 . S
C528 H512 0.959 . S
C528 H513 0.959 . S
C528 H514 0.961 . S
C528 C527 1.523 . S
C529 H515 0.960 . S
C529 H516 0.961 . S
C529 H517 0.959 . S
C529 C527 1.541 1_455 S
C530 C527 1.544 . S
C530 C531 1.396 . S
C530 C535 1.390 . S
C531 C525 1.465 1_655 S
C531 C530 1.396 . S
C531 C532 1.399 . S
C532 H518 0.929 . S
C532 C531 1.399 . S
C532 C533 1.385 . S
C533 H519 0.931 . S
C533 C532 1.385 . S
C533 C534 1.389 . S
C534 C533 1.389 . S
C534 C535 1.387 . S
C535 H520 0.930 . S
C535 C530 1.390 . S
C535 C534 1.387 . S
H536 C548 0.930 . S
H537 C550 0.930 . S
H538 C551 0.930 . S
H539 C555 0.959 . S
H540 C555 0.959 . S
H541 C555 0.961 . S
H542 C556 0.960 . S
H543 C556 0.961 . S
H544 C556 0.959 . S
H545 C559 0.929 . S
H546 C560 0.938 . S
H547 C562 0.930 . S
C548 H536 0.930 . S
C548 C549 1.399 . S
C548 C553 1.399 . S
C549 C548 1.399 . S
C549 C550 1.376 . S
C550 H537 0.930 . S
C550 C549 1.376 . S
C550 C551 1.388 . S
C551 H538 0.930 . S
C551 C550 1.388 . S
C551 C552 1.390 . S
C552 C551 1.390 . S
C552 C553 1.394 . S
C552 C558 1.465 . S
C553 C548 1.399 . S
C553 C552 1.394 . S
C553 C554 1.516 . S
C554 C553 1.516 . S
C554 C555 1.502 . S
C554 C556 1.561 . S
C554 C557 1.526 . S
C555 H539 0.959 . S
C555 H540 0.959 . S
C555 H541 0.961 . S
C555 C554 1.502 . S
C556 H542 0.960 . S
C556 H543 0.961 . S
C556 H544 0.959 . S
C556 C554 1.561 . S
C557 C554 1.526 . S
C557 C558 1.396 . S
C557 C562 1.390 . S
C558 C552 1.465 . S
C558 C557 1.396 . S
C558 C559 1.399 . S
C559 H545 0.929 . S
C559 C558 1.399 . S
C559 C560 1.385 . S
C560 H546 0.938 . S
C560 C559 1.385 . S
C560 C561 1.389 . S
C561 C560 1.389 . S
C561 C562 1.387 . S
C562 H547 0.930 . S
C562 C557 1.390 . S
C562 C561 1.387 . S
H563 C575 0.930 . S
H564 C577 0.930 . S
H565 C578 0.930 . S
H566 C582 0.959 . S
H567 C582 0.959 . S
H568 C582 0.961 . S
H569 C583 0.960 . S
H570 C583 0.961 . S
H571 C583 0.959 . S
H572 C586 0.929 . S
H573 C587 0.931 . S
H574 C589 0.930 . S
C575 H563 0.930 . S
C575 C576 1.399 . S
C575 C580 1.399 . S
C576 C575 1.399 . S
C576 C577 1.376 . S
C577 H564 0.930 . S
C577 C576 1.376 . S
C577 C578 1.388 . S
C578 H565 0.930 . S
C578 C577 1.388 . S
C578 C579 1.390 . S
C579 C578 1.390 . S
C579 C580 1.394 . S
C579 C585 1.465 . S
C580 C575 1.399 . S
C580 C579 1.394 . S
C580 C581 1.516 . S
C581 C580 1.516 . S
C581 C582 1.502 . S
C581 C583 1.561 . S
C581 C584 1.526 . S
C582 H566 0.959 . S
C582 H567 0.959 . S
C582 H568 0.961 . S
C582 C581 1.502 . S
C583 H569 0.960 . S
C583 H570 0.961 . S
C583 H571 0.959 . S
C583 C581 1.561 . S
C584 C581 1.526 . S
C584 C585 1.396 . S
C584 C589 1.390 . S
C585 C579 1.465 . S
C585 C584 1.396 . S
C585 C586 1.399 . S
C586 H572 0.929 . S
C586 C585 1.399 . S
C586 C587 1.385 . S
C587 H573 0.931 . S
C587 C586 1.385 . S
C587 C588 1.389 . S
C588 C587 1.389 . S
C588 C589 1.387 . S
C589 H574 0.930 . S
C589 C584 1.390 . S
C589 C588 1.387 . S
H590 C602 0.930 . S
H591 C604 0.930 . S
H592 C605 0.930 . S
H593 C609 0.959 . S
H594 C609 0.959 . S
H595 C609 0.961 . S
H596 C610 0.960 . S
H597 C610 0.961 . S
H598 C610 0.959 . S
H599 C613 0.929 . S
H600 C614 0.931 . S
H601 C616 0.930 . S
C602 H590 0.930 . S
C602 C603 1.399 . S
C602 C607 1.399 . S
C603 C602 1.399 . S
C603 C604 1.376 . S
C604 H591 0.930 . S
C604 C603 1.376 . S
C604 C605 1.388 . S
C605 H592 0.930 . S
C605 C604 1.388 . S
C605 C606 1.390 . S
C606 C605 1.390 . S
C606 C607 1.394 . S
C606 C612 1.465 . S
C607 C602 1.399 . S
C607 C606 1.394 . S
C607 C608 1.516 . S
C608 C607 1.516 . S
C608 C609 1.502 . S
C608 C610 1.561 . S
C608 C611 1.526 . S
C609 H593 0.959 . S
C609 H594 0.959 . S
C609 H595 0.961 . S
C609 C608 1.502 . S
C610 H596 0.960 . S
C610 H597 0.961 . S
C610 H598 0.959 . S
C610 C608 1.561 . S
C611 C608 1.526 . S
C611 C612 1.396 . S
C611 C616 1.390 . S
C612 C606 1.465 . S
C612 C611 1.396 . S
C612 C613 1.399 . S
C613 H599 0.929 . S
C613 C612 1.399 . S
C613 C614 1.385 . S
C614 H600 0.931 . S
C614 C613 1.385 . S
C614 C615 1.389 . S
C615 C614 1.389 . S
C615 C616 1.387 . S
C616 H601 0.930 . S
C616 C611 1.390 . S
C616 C615 1.387 . S
H617 C629 0.930 . S
H618 C631 0.930 . S
H619 C632 0.930 . S
H620 C636 0.959 . S
H621 C636 0.959 . S
H622 C636 0.961 . S
H623 C637 0.960 . S
H624 C637 0.961 . S
H625 C637 0.959 . S
H626 C640 0.929 . S
H627 C641 0.931 . S
H628 C643 0.930 . S
C629 H617 0.930 . S
C629 C630 1.399 . S
C629 C634 1.399 . S
C630 C629 1.399 . S
C630 C631 1.376 . S
C631 H618 0.930 . S
C631 C630 1.376 . S
C631 C632 1.388 . S
C632 H619 0.930 . S
C632 C631 1.388 . S
C632 C633 1.390 . S
C633 C632 1.390 . S
C633 C634 1.394 . S
C633 C639 1.465 . S
C634 C629 1.399 . S
C634 C633 1.394 . S
C634 C635 1.516 . S
C635 C634 1.516 . S
C635 C636 1.502 . S
C635 C637 1.561 . S
C635 C638 1.526 . S
C636 H620 0.959 . S
C636 H621 0.959 . S
C636 H622 0.961 . S
C636 C635 1.502 . S
C637 H623 0.960 . S
C637 H624 0.961 . S
C637 H625 0.959 . S
C637 C635 1.561 . S
C638 C635 1.526 . S
C638 C639 1.396 . S
C638 C643 1.390 . S
C639 C633 1.465 . S
C639 C638 1.396 . S
C639 C640 1.399 . S
C640 H626 0.929 . S
C640 C639 1.399 . S
C640 C641 1.385 . S
C641 H627 0.931 . S
C641 C640 1.385 . S
C641 C642 1.389 . S
C642 C641 1.389 . S
C642 C643 1.387 . S
C643 H628 0.930 . S
C643 C638 1.390 . S
C643 C642 1.387 . S
H644 C656 0.930 . S
H645 C658 0.930 . S
H646 C659 0.930 . S
H647 C663 0.959 . S
H648 C663 0.959 . S
H649 C663 0.961 . S
H650 C664 0.960 . S
H651 C664 0.961 . S
H652 C664 0.959 . S
H653 C667 0.929 . S
H654 C668 0.931 . S
H655 C670 0.930 . S
C656 H644 0.930 . S
C656 C657 1.399 . S
C656 C661 1.399 . S
C657 C656 1.399 . S
C657 C658 1.376 . S
C658 H645 0.930 . S
C658 C657 1.376 . S
C658 C659 1.388 . S
C659 H646 0.930 . S
C659 C658 1.388 . S
C659 C660 1.390 . S
C660 C659 1.390 . S
C660 C661 1.394 . S
C660 C666 1.465 . S
C661 C656 1.399 . S
C661 C660 1.394 . S
C661 C662 1.516 . S
C662 C661 1.516 . S
C662 C663 1.502 . S
C662 C664 1.561 . S
C662 C665 1.526 . S
C663 H647 0.959 . S
C663 H648 0.959 . S
C663 H649 0.961 . S
C663 C662 1.502 . S
C664 H650 0.960 . S
C664 H651 0.961 . S
C664 H652 0.959 . S
C664 C662 1.561 . S
C665 C662 1.526 . S
C665 C666 1.396 . S
C665 C670 1.390 . S
C666 C660 1.465 . S
C666 C665 1.396 . S
C666 C667 1.399 . S
C667 H653 0.929 . S
C667 C666 1.399 . S
C667 C668 1.385 . S
C668 H654 0.931 . S
C668 C667 1.385 . S
C668 C669 1.389 . S
C669 C668 1.389 . S
C669 C670 1.387 . S
C670 H655 0.930 . S
C670 C665 1.390 . S
C670 C669 1.387 . S
H671 C683 0.930 . S
H672 C685 0.930 . S
H673 C686 0.930 . S
H674 C690 0.959 . S
H675 C690 0.959 . S
H676 C690 0.961 . S
H677 C691 0.960 . S
H678 C691 0.961 . S
H679 C691 0.959 . S
H680 C694 0.929 . S
H681 C695 0.931 . S
H682 C697 0.930 . S
C683 H671 0.930 . S
C683 C684 1.399 . S
C683 C688 1.399 . S
C684 C683 1.399 . S
C684 C685 1.376 . S
C685 H672 0.930 . S
C685 C684 1.376 . S
C685 C686 1.388 . S
C686 H673 0.930 . S
C686 C685 1.388 . S
C686 C687 1.390 . S
C687 C686 1.390 . S
C687 C688 1.394 . S
C687 C693 1.465 . S
C688 C683 1.399 . S
C688 C687 1.394 . S
C688 C689 1.516 . S
C689 C688 1.516 . S
C689 C690 1.502 . S
C689 C691 1.561 . S
C689 C692 1.526 . S
C690 H674 0.959 . S
C690 H675 0.959 . S
C690 H676 0.961 . S
C690 C689 1.502 . S
C691 H677 0.960 . S
C691 H678 0.961 . S
C691 H679 0.959 . S
C691 C689 1.561 . S
C692 C689 1.526 . S
C692 C693 1.396 . S
C692 C697 1.390 . S
C693 C687 1.465 . S
C693 C692 1.396 . S
C693 C694 1.399 . S
C694 H680 0.929 . S
C694 C693 1.399 . S
C694 C695 1.385 . S
C695 H681 0.931 . S
C695 C694 1.385 . S
C695 C696 1.389 . S
C696 C695 1.389 . S
C696 C697 1.387 . S
C697 H682 0.930 . S
C697 C692 1.390 . S
C697 C696 1.387 . S
H698 C710 0.930 . S
H699 C712 0.930 . S
H700 C713 0.930 . S
H701 C717 0.959 . S
H702 C717 0.959 . S
H703 C717 0.961 . S
H704 C718 0.960 . S
H705 C718 0.961 . S
H706 C718 0.959 . S
H707 C721 0.929 . S
H708 C722 0.931 . S
H709 C724 0.930 . S
C710 H698 0.930 . S
C710 C711 1.399 . S
C710 C715 1.399 . S
C711 C710 1.399 . S
C711 C712 1.376 . S
C712 H699 0.930 . S
C712 C711 1.376 . S
C712 C713 1.388 . S
C713 H700 0.930 . S
C713 C712 1.388 . S
C713 C714 1.390 . S
C714 C713 1.390 . S
C714 C715 1.394 . S
C714 C720 1.465 . S
C715 C710 1.399 . S
C715 C714 1.394 . S
C715 C716 1.516 . S
C716 C715 1.516 . S
C716 C717 1.502 . S
C716 C718 1.561 . S
C716 C719 1.526 . S
C717 H701 0.959 . S
C717 H702 0.959 . S
C717 H703 0.961 . S
C717 C716 1.502 . S
C718 H704 0.960 . S
C718 H705 0.961 . S
C718 H706 0.959 . S
C718 C716 1.561 . S
C719 C716 1.526 . S
C719 C720 1.396 . S
C719 C724 1.390 . S
C720 C714 1.465 . S
C720 C719 1.396 . S
C720 C721 1.399 . S
C721 H707 0.929 . S
C721 C720 1.399 . S
C721 C722 1.385 . S
C722 H708 0.931 . S
C722 C721 1.385 . S
C722 C723 1.389 . S
C723 C722 1.389 . S
C723 C724 1.387 . S
C724 H709 0.930 . S
C724 C719 1.390 . S
C724 C723 1.387 . S
H725 C737 0.930 . S
H726 C739 0.930 . S
H727 C740 0.930 . S
H728 C744 0.959 . S
H729 C744 0.959 . S
H730 C744 0.961 . S
H731 C745 0.960 . S
H732 C745 0.961 . S
H733 C745 0.959 . S
H734 C748 0.929 . S
H735 C749 0.931 . S
H736 C751 0.930 . S
C737 H725 0.930 . S
C737 C738 1.399 . S
C737 C742 1.399 . S
C738 C737 1.399 . S
C738 C739 1.376 . S
C739 H726 0.930 . S
C739 C738 1.376 . S
C739 C740 1.388 . S
C740 H727 0.930 . S
C740 C739 1.388 . S
C740 C741 1.390 . S
C741 C740 1.390 . S
C741 C742 1.394 . S
C741 C747 1.465 . S
C742 C737 1.399 . S
C742 C741 1.394 . S
C742 C743 1.516 . S
C743 C742 1.516 . S
C743 C744 1.502 . S
C743 C745 1.561 . S
C743 C746 1.526 . S
C744 H728 0.959 . S
C744 H729 0.959 . S
C744 H730 0.961 . S
C744 C743 1.502 . S
C745 H731 0.960 . S
C745 H732 0.961 . S
C745 H733 0.959 . S
C745 C743 1.561 . S
C746 C743 1.526 . S
C746 C747 1.396 . S
C746 C751 1.390 . S
C747 C741 1.465 . S
C747 C746 1.396 . S
C747 C748 1.399 . S
C748 H734 0.929 . S
C748 C747 1.399 . S
C748 C749 1.385 . S
C749 H735 0.931 . S
C749 C748 1.385 . S
C749 C750 1.389 . S
C750 C749 1.389 . S
C750 C751 1.387 . S
C751 H736 0.930 . S
C751 C746 1.390 . S
C751 C750 1.387 . S
H752 C764 0.930 . S
H753 C766 0.930 . S
H754 C767 0.930 . S
H755 C771 0.959 . S
H756 C771 0.959 . S
H757 C771 0.961 . S
H758 C772 0.960 . S
H759 C772 0.961 . S
H760 C772 0.959 . S
H761 C775 0.929 . S
H762 C776 0.931 . S
H763 C778 0.930 . S
C764 H752 0.930 . S
C764 C765 1.399 . S
C764 C769 1.399 . S
C765 C764 1.399 . S
C765 C766 1.376 . S
C766 H753 0.930 . S
C766 C765 1.376 . S
C766 C767 1.388 . S
C767 H754 0.930 . S
C767 C766 1.388 . S
C767 C768 1.390 . S
C768 C767 1.390 . S
C768 C769 1.394 . S
C768 C774 1.465 . S
C769 C764 1.399 . S
C769 C768 1.394 . S
C769 C770 1.516 . S
C770 C769 1.516 . S
C770 C771 1.502 . S
C770 C772 1.561 . S
C770 C773 1.526 . S
C771 H755 0.959 . S
C771 H756 0.959 . S
C771 H757 0.961 . S
C771 C770 1.502 . S
C772 H758 0.960 . S
C772 H759 0.961 . S
C772 H760 0.959 . S
C772 C770 1.561 . S
C773 C770 1.526 . S
C773 C774 1.396 . S
C773 C778 1.390 . S
C774 C768 1.465 . S
C774 C773 1.396 . S
C774 C775 1.399 . S
C775 H761 0.929 . S
C775 C774 1.399 . S
C775 C776 1.385 . S
C776 H762 0.931 . S
C776 C775 1.385 . S
C776 C777 1.389 . S
C777 C776 1.389 . S
C777 C778 1.387 . S
C778 H763 0.930 . S
C778 C773 1.390 . S
C778 C777 1.387 . S
H779 C791 0.927 1_545 S
H780 C793 0.930 1_545 S
H781 C794 0.930 . S
H782 C798 0.959 . S
H783 C798 0.959 . S
H784 C798 0.961 . S
H785 C799 0.960 . S
H786 C799 0.961 . S
H787 C799 0.959 . S
H788 C802 0.929 . S
H789 C803 0.931 . S
H790 C805 0.930 . S
C791 H779 0.927 1_565 S
C791 C792 1.399 1_565 S
C791 C796 1.399 . S
C792 C791 1.399 1_545 S
C792 C793 1.376 1_545 S
C793 H780 0.930 1_565 S
C793 C792 1.376 1_565 S
C793 C794 1.388 . S
C794 H781 0.930 . S
C794 C793 1.388 . S
C794 C795 1.390 . S
C795 C794 1.390 . S
C795 C796 1.394 . S
C795 C801 1.465 . S
C796 C791 1.399 . S
C796 C795 1.394 . S
C796 C797 1.516 . S
C797 C796 1.516 . S
C797 C798 1.502 . S
C797 C799 1.561 . S
C797 C800 1.526 . S
C798 H782 0.959 . S
C798 H783 0.959 . S
C798 H784 0.961 . S
C798 C797 1.502 . S
C799 H785 0.960 . S
C799 H786 0.961 . S
C799 H787 0.959 . S
C799 C797 1.561 . S
C800 C797 1.526 . S
C800 C801 1.396 . S
C800 C805 1.390 . S
C801 C795 1.465 . S
C801 C800 1.396 . S
C801 C802 1.399 . S
C802 H788 0.929 . S
C802 C801 1.399 . S
C802 C803 1.385 . S
C803 H789 0.931 . S
C803 C802 1.385 . S
C803 C804 1.389 . S
C804 C803 1.389 . S
C804 C805 1.387 . S
C805 H790 0.930 . S
C805 C800 1.390 . S
C805 C804 1.387 . S
H806 C818 0.930 . S
H807 C820 0.930 1_554 S
H808 C821 0.930 . S
H809 C825 0.959 . S
H810 C825 0.959 . S
H811 C825 0.961 . S
H812 C826 0.960 . S
H813 C826 0.961 . S
H814 C826 0.959 . S
H815 C829 0.929 . S
H816 C830 0.931 . S
H817 C832 0.930 . S
C818 H806 0.930 . S
C818 C819 1.399 . S
C818 C823 1.399 . S
C819 C818 1.399 . S
C819 C820 1.376 . S
C820 H807 0.930 1_556 S
C820 C819 1.376 . S
C820 C821 1.388 . S
C821 H808 0.930 . S
C821 C820 1.388 . S
C821 C822 1.390 . S
C822 C821 1.390 . S
C822 C823 1.394 . S
C822 C828 1.465 . S
C823 C818 1.399 . S
C823 C822 1.394 . S
C823 C824 1.516 . S
C824 C823 1.516 . S
C824 C825 1.502 . S
C824 C826 1.561 . S
C824 C827 1.526 . S
C825 H809 0.959 . S
C825 H810 0.959 . S
C825 H811 0.961 . S
C825 C824 1.502 . S
C826 H812 0.960 . S
C826 H813 0.961 . S
C826 H814 0.959 . S
C826 C824 1.561 . S
C827 C824 1.526 . S
C827 C828 1.396 . S
C827 C832 1.390 . S
C828 C822 1.465 . S
C828 C827 1.396 . S
C828 C829 1.399 . S
C829 H815 0.929 . S
C829 C828 1.399 . S
C829 C830 1.385 . S
C830 H816 0.931 . S
C830 C829 1.385 . S
C830 C831 1.389 . S
C831 C830 1.389 . S
C831 C832 1.387 . S
C832 H817 0.930 . S
C832 C827 1.390 . S
C832 C831 1.387 . S
H833 C845 0.930 . S
H834 C847 0.930 . S
H835 C848 0.930 . S
H836 C852 0.959 . S
H837 C852 0.959 . S
H838 C852 0.961 . S
H839 C853 0.960 . S
H840 C853 0.961 . S
H841 C853 0.959 . S
H842 C856 0.929 . S
H843 C857 0.931 . S
H844 C859 0.930 . S
C845 H833 0.930 . S
C845 C846 1.399 1_545 S
C845 C850 1.399 . S
C846 C845 1.399 1_565 S
C846 C847 1.376 . S
C847 H834 0.930 . S
C847 C846 1.376 . S
C847 C848 1.388 1_565 S
C848 H835 0.930 . S
C848 C847 1.388 1_545 S
C848 C849 1.390 . S
C849 C848 1.390 . S
C849 C850 1.394 . S
C849 C855 1.465 . S
C850 C845 1.399 . S
C850 C849 1.394 . S
C850 C851 1.516 . S
C851 C850 1.516 . S
C851 C852 1.502 . S
C851 C853 1.561 . S
C851 C854 1.526 . S
C852 H836 0.959 . S
C852 H837 0.959 . S
C852 H838 0.961 . S
C852 C851 1.502 . S
C853 H839 0.960 . S
C853 H840 0.961 . S
C853 H841 0.959 . S
C853 C851 1.561 . S
C854 C851 1.526 . S
C854 C855 1.396 . S
C854 C859 1.390 . S
C855 C849 1.465 . S
C855 C854 1.396 . S
C855 C856 1.399 . S
C856 H842 0.929 . S
C856 C855 1.399 . S
C856 C857 1.385 . S
C857 H843 0.931 . S
C857 C856 1.385 . S
C857 C858 1.389 . S
C858 C857 1.389 . S
C858 C859 1.387 . S
C859 H844 0.930 . S
C859 C854 1.390 . S
C859 C858 1.387 . S
H860 C872 0.930 . S
H861 C874 0.930 . S
H862 C875 0.930 . S
H863 C879 0.959 . S
H864 C879 0.959 . S
H865 C879 0.961 . S
H866 C880 0.960 . S
H867 C880 0.961 . S
H868 C880 0.959 . S
H869 C883 0.929 . S
H870 C884 0.931 . S
H871 C886 0.930 . S
C872 H860 0.930 . S
C872 C873 1.399 . S
C872 C877 1.399 . S
C873 C872 1.399 . S
C873 C874 1.376 . S
C874 H861 0.930 . S
C874 C873 1.376 . S
C874 C875 1.388 . S
C875 H862 0.930 . S
C875 C874 1.388 . S
C875 C876 1.390 . S
C876 C875 1.390 . S
C876 C877 1.394 . S
C876 C882 1.465 . S
C877 C872 1.399 . S
C877 C876 1.394 . S
C877 C878 1.516 . S
C878 C877 1.516 . S
C878 C879 1.502 . S
C878 C880 1.561 . S
C878 C881 1.526 . S
C879 H863 0.959 . S
C879 H864 0.959 . S
C879 H865 0.961 . S
C879 C878 1.502 . S
C880 H866 0.960 . S
C880 H867 0.961 . S
C880 H868 0.959 . S
C880 C878 1.561 . S
C881 C878 1.526 . S
C881 C882 1.396 . S
C881 C886 1.390 . S
C882 C876 1.465 . S
C882 C881 1.396 . S
C882 C883 1.399 . S
C883 H869 0.929 . S
C883 C882 1.399 . S
C883 C884 1.385 . S
C884 H870 0.931 . S
C884 C883 1.385 . S
C884 C885 1.389 . S
C885 C884 1.389 . S
C885 C886 1.387 . S
C886 H871 0.930 . S
C886 C881 1.390 . S
C886 C885 1.387 . S
H887 C899 0.930 . S
H888 C901 0.930 . S
H889 C902 0.930 . S
H890 C906 0.959 . S
H891 C906 0.959 . S
H892 C906 0.961 . S
H893 C907 0.960 . S
H894 C907 0.961 . S
H895 C907 0.959 . S
H896 C910 0.929 . S
H897 C911 0.931 . S
H898 C913 0.930 1_565 S
C899 H887 0.930 . S
C899 C900 1.399 . S
C899 C904 1.399 . S
C900 C899 1.399 . S
C900 C901 1.376 . S
C901 H888 0.930 . S
C901 C900 1.376 . S
C901 C902 1.388 . S
C902 H889 0.930 . S
C902 C901 1.388 . S
C902 C903 1.390 . S
C903 C902 1.390 . S
C903 C904 1.394 . S
C903 C909 1.465 . S
C904 C899 1.399 . S
C904 C903 1.394 . S
C904 C905 1.516 . S
C905 C904 1.516 . S
C905 C906 1.502 . S
C905 C907 1.561 . S
C905 C908 1.526 . S
C906 H890 0.959 . S
C906 H891 0.959 . S
C906 H892 0.961 . S
C906 C905 1.502 . S
C907 H893 0.960 . S
C907 H894 0.961 . S
C907 H895 0.959 . S
C907 C905 1.561 . S
C908 C905 1.526 . S
C908 C909 1.396 . S
C908 C913 1.390 . S
C909 C903 1.465 . S
C909 C908 1.396 . S
C909 C910 1.399 . S
C910 H896 0.929 . S
C910 C909 1.399 . S
C910 C911 1.385 . S
C911 H897 0.931 . S
C911 C910 1.385 . S
C911 C912 1.389 1_545 S
C912 C911 1.389 1_565 S
C912 C913 1.387 1_565 S
C913 H898 0.930 1_545 S
C913 C908 1.390 . S
C913 C912 1.387 1_545 S
H914 C926 0.930 . S
H915 C928 0.930 . S
H916 C929 0.930 . S
H917 C933 0.959 . S
H918 C933 0.959 . S
H919 C933 0.961 . S
H920 C934 0.960 . S
H921 C934 0.961 . S
H922 C934 0.959 . S
H923 C937 0.929 . S
H924 C938 0.931 . S
H925 C940 0.930 . S
C926 H914 0.930 . S
C926 C927 1.399 . S
C926 C931 1.399 . S
C927 C926 1.399 . S
C927 C928 1.376 . S
C928 H915 0.930 . S
C928 C927 1.376 . S
C928 C929 1.388 . S
C929 H916 0.930 . S
C929 C928 1.388 . S
C929 C930 1.390 . S
C930 C929 1.390 . S
C930 C931 1.394 . S
C930 C936 1.465 . S
C931 C926 1.399 . S
C931 C930 1.394 . S
C931 C932 1.516 . S
C932 C931 1.516 . S
C932 C933 1.502 . S
C932 C934 1.561 . S
C932 C935 1.526 . S
C933 H917 0.959 . S
C933 H918 0.959 . S
C933 H919 0.961 . S
C933 C932 1.502 . S
C934 H920 0.960 . S
C934 H921 0.961 . S
C934 H922 0.959 . S
C934 C932 1.561 . S
C935 C932 1.526 . S
C935 C936 1.396 . S
C935 C940 1.390 . S
C936 C930 1.465 . S
C936 C935 1.396 . S
C936 C937 1.399 . S
C937 H923 0.929 . S
C937 C936 1.399 . S
C937 C938 1.385 . S
C938 H924 0.931 . S
C938 C937 1.385 . S
C938 C939 1.389 . S
C939 C938 1.389 . S
C939 C940 1.387 . S
C940 H925 0.930 . S
C940 C935 1.390 . S
C940 C939 1.387 . S
H941 C953 0.930 1_545 S
H942 C955 0.930 . S
H943 C956 0.930 . S
H944 C960 0.959 . S
H945 C960 0.959 . S
H946 C960 0.961 . S
H947 C961 0.960 . S
H948 C961 0.961 . S
H949 C961 0.959 . S
H950 C964 0.929 . S
H951 C965 0.931 . S
H952 C967 0.930 . S
C953 H941 0.930 1_565 S
C953 C954 1.399 1_565 S
C953 C958 1.399 . S
C954 C953 1.399 1_545 S
C954 C955 1.376 1_545 S
C955 H942 0.930 . S
C955 C954 1.376 1_565 S
C955 C956 1.388 . S
C956 H943 0.930 . S
C956 C955 1.388 . S
C956 C957 1.390 . S
C957 C956 1.390 . S
C957 C958 1.394 . S
C957 C963 1.465 . S
C958 C953 1.399 . S
C958 C957 1.394 . S
C958 C959 1.516 . S
C959 C958 1.516 . S
C959 C960 1.502 . S
C959 C961 1.561 . S
C959 C962 1.526 . S
C960 H944 0.959 . S
C960 H945 0.959 . S
C960 H946 0.961 . S
C960 C959 1.502 . S
C961 H947 0.960 . S
C961 H948 0.961 . S
C961 H949 0.959 . S
C961 C959 1.561 . S
C962 C959 1.526 . S
C962 C963 1.396 . S
C962 C967 1.390 . S
C963 C957 1.465 . S
C963 C962 1.396 . S
C963 C964 1.399 . S
C964 H950 0.929 . S
C964 C963 1.399 . S
C964 C965 1.385 . S
C965 H951 0.931 . S
C965 C964 1.385 . S
C965 C966 1.389 . S
C966 C965 1.389 . S
C966 C967 1.387 . S
C967 H952 0.930 . S
C967 C962 1.390 . S
C967 C966 1.387 . S
H968 C980 0.930 . S
H969 C982 0.930 . S
H970 C983 0.930 . S
H971 C987 0.959 . S
H972 C987 0.959 . S
H973 C987 0.961 . S
H974 C988 0.960 . S
H975 C988 0.961 . S
H976 C988 0.959 . S
H977 C991 0.929 . S
H978 C992 0.931 . S
H979 C994 0.930 . S
C980 H968 0.930 . S
C980 C981 1.399 . S
C980 C985 1.399 . S
C981 C980 1.399 . S
C981 C982 1.376 . S
C982 H969 0.930 . S
C982 C981 1.376 . S
C982 C983 1.388 . S
C983 H970 0.930 . S
C983 C982 1.388 . S
C983 C984 1.390 . S
C984 C983 1.390 . S
C984 C985 1.394 . S
C984 C990 1.465 . S
C985 C980 1.399 . S
C985 C984 1.394 . S
C985 C986 1.516 . S
C986 C985 1.516 . S
C986 C987 1.502 . S
C986 C988 1.561 . S
C986 C989 1.526 . S
C987 H971 0.959 . S
C987 H972 0.959 . S
C987 H973 0.961 . S
C987 C986 1.502 . S
C988 H974 0.960 . S
C988 H975 0.961 . S
C988 H976 0.959 . S
C988 C986 1.561 . S
C989 C986 1.526 . S
C989 C990 1.396 . S
C989 C994 1.390 . S
C990 C984 1.465 . S
C990 C989 1.396 . S
C990 C991 1.399 . S
C991 H977 0.929 . S
C991 C990 1.399 . S
C991 C992 1.385 . S
C992 H978 0.931 . S
C992 C991 1.385 . S
C992 C993 1.389 . S
C993 C992 1.389 . S
C993 C994 1.387 . S
C994 H979 0.930 . S
C994 C989 1.390 . S
C994 C993 1.387 . S
H995 C1007 0.930 . S
H996 C1009 0.930 . S
H997 C1010 0.930 . S
H998 C1014 0.959 . S
H999 C1014 0.959 . S
H1000 C1014 0.961 . S
H1001 C1015 0.960 . S
H1002 C1015 0.961 . S
H1003 C1015 0.959 . S
H1004 C1018 0.929 . S
H1005 C1019 0.931 . S
H1006 C1021 0.930 . S
C1007 H995 0.930 . S
C1007 C1008 1.399 . S
C1007 C1012 1.399 . S
C1008 C1007 1.399 . S
C1008 C1009 1.376 . S
C1009 H996 0.930 . S
C1009 C1008 1.376 . S
C1009 C1010 1.388 . S
C1010 H997 0.930 . S
C1010 C1009 1.388 . S
C1010 C1011 1.390 . S
C1011 C1010 1.390 . S
C1011 C1012 1.394 . S
C1011 C1017 1.465 . S
C1012 C1007 1.399 . S
C1012 C1011 1.394 . S
C1012 C1013 1.516 . S
C1013 C1012 1.516 . S
C1013 C1014 1.502 . S
C1013 C1015 1.561 . S
C1013 C1016 1.526 . S
C1014 H998 0.959 . S
C1014 H999 0.959 . S
C1014 H1000 0.961 . S
C1014 C1013 1.502 . S
C1015 H1001 0.960 . S
C1015 H1002 0.961 . S
C1015 H1003 0.959 . S
C1015 C1013 1.561 . S
C1016 C1013 1.526 . S
C1016 C1017 1.396 . S
C1016 C1021 1.390 . S
C1017 C1011 1.465 . S
C1017 C1016 1.396 . S
C1017 C1018 1.399 . S
C1018 H1004 0.929 . S
C1018 C1017 1.399 . S
C1018 C1019 1.385 . S
C1019 H1005 0.931 . S
C1019 C1018 1.385 . S
C1019 C1020 1.389 . S
C1020 C1019 1.389 . S
C1020 C1021 1.387 . S
C1021 H1006 0.930 . S
C1021 C1016 1.390 . S
C1021 C1020 1.387 . S
H1022 C1034 0.930 . S
H1023 C1036 0.930 . S
H1024 C1037 0.930 . S
H1025 C1041 0.959 . S
H1026 C1041 0.959 1_455 S
H1027 C1041 0.961 . S
H1028 C1042 0.960 . S
H1029 C1042 0.961 . S
H1030 C1042 0.959 . S
H1031 C1045 0.929 . S
H1032 C1046 0.931 . S
H1033 C1048 0.930 . S
C1034 H1022 0.930 . S
C1034 C1035 1.399 . S
C1034 C1039 1.399 1_655 S
C1035 C1034 1.399 . S
C1035 C1036 1.376 . S
C1036 H1023 0.930 . S
C1036 C1035 1.376 . S
C1036 C1037 1.388 1_655 S
C1037 H1024 0.930 . S
C1037 C1036 1.388 1_455 S
C1037 C1038 1.390 . S
C1038 C1037 1.390 . S
C1038 C1039 1.394 . S
C1038 C1044 1.465 . S
C1039 C1034 1.399 1_455 S
C1039 C1038 1.394 . S
C1039 C1040 1.516 . S
C1040 C1039 1.516 . S
C1040 C1041 1.502 1_455 S
C1040 C1042 1.561 . S
C1040 C1043 1.526 . S
C1041 H1025 0.959 . S
C1041 H1026 0.959 1_655 S
C1041 H1027 0.961 . S
C1041 C1040 1.502 1_655 S
C1042 H1028 0.960 . S
C1042 H1029 0.961 . S
C1042 H1030 0.959 . S
C1042 C1040 1.561 . S
C1043 C1040 1.526 . S
C1043 C1044 1.396 . S
C1043 C1048 1.390 . S
C1044 C1038 1.465 . S
C1044 C1043 1.396 . S
C1044 C1045 1.399 . S
C1045 H1031 0.929 . S
C1045 C1044 1.399 . S
C1045 C1046 1.385 . S
C1046 H1032 0.931 . S
C1046 C1045 1.385 . S
C1046 C1047 1.389 . S
C1047 C1046 1.389 . S
C1047 C1048 1.387 . S
C1048 H1033 0.930 . S
C1048 C1043 1.390 . S
C1048 C1047 1.387 . S
H1049 C1061 0.930 . S
H1050 C1063 0.930 . S
H1051 C1064 0.930 . S
H1052 C1068 0.959 . S
H1053 C1068 0.959 . S
H1054 C1068 0.961 . S
H1055 C1069 0.960 . S
H1056 C1069 0.961 . S
H1057 C1069 0.959 . S
H1058 C1072 0.929 . S
H1059 C1073 0.931 . S
H1060 C1075 0.930 . S
C1061 H1049 0.930 . S
C1061 C1062 1.399 . S
C1061 C1066 1.399 . S
C1062 C1061 1.399 . S
C1062 C1063 1.376 . S
C1063 H1050 0.930 . S
C1063 C1062 1.376 . S
C1063 C1064 1.388 . S
C1064 H1051 0.930 . S
C1064 C1063 1.388 . S
C1064 C1065 1.390 . S
C1065 C1064 1.390 . S
C1065 C1066 1.394 . S
C1065 C1071 1.465 . S
C1066 C1061 1.399 . S
C1066 C1065 1.394 . S
C1066 C1067 1.516 . S
C1067 C1066 1.516 . S
C1067 C1068 1.502 . S
C1067 C1069 1.561 . S
C1067 C1070 1.526 . S
C1068 H1052 0.959 . S
C1068 H1053 0.959 . S
C1068 H1054 0.961 . S
C1068 C1067 1.502 . S
C1069 H1055 0.960 . S
C1069 H1056 0.961 . S
C1069 H1057 0.959 . S
C1069 C1067 1.561 . S
C1070 C1067 1.526 . S
C1070 C1071 1.396 . S
C1070 C1075 1.390 . S
C1071 C1065 1.465 . S
C1071 C1070 1.396 . S
C1071 C1072 1.399 . S
C1072 H1058 0.929 . S
C1072 C1071 1.399 . S
C1072 C1073 1.385 . S
C1073 H1059 0.931 . S
C1073 C1072 1.385 . S
C1073 C1074 1.389 . S
C1074 C1073 1.389 . S
C1074 C1075 1.387 . S
C1075 H1060 0.930 . S
C1075 C1070 1.390 . S
C1075 C1074 1.387 . S
H1076 C1088 0.930 . S
H1077 C1090 0.930 . S
H1078 C1091 0.930 . S
H1079 C1095 0.959 . S
H1080 C1095 0.959 . S
H1081 C1095 0.961 . S
H1082 C1096 0.960 . S
H1083 C1096 0.961 . S
H1084 C1096 0.959 . S
H1085 C1099 0.929 . S
H1086 C1100 0.931 . S
H1087 C1102 0.930 . S
C1088 H1076 0.930 . S
C1088 C1089 1.399 . S
C1088 C1093 1.399 . S
C1089 C1088 1.399 . S
C1089 C1090 1.376 . S
C1090 H1077 0.930 . S
C1090 C1089 1.376 . S
C1090 C1091 1.388 . S
C1091 H1078 0.930 . S
C1091 C1090 1.388 . S
C1091 C1092 1.390 . S
C1092 C1091 1.390 . S
C1092 C1093 1.394 . S
C1092 C1098 1.465 . S
C1093 C1088 1.399 . S
C1093 C1092 1.394 . S
C1093 C1094 1.516 . S
C1094 C1093 1.516 . S
C1094 C1095 1.502 . S
C1094 C1096 1.561 . S
C1094 C1097 1.526 . S
C1095 H1079 0.959 . S
C1095 H1080 0.959 . S
C1095 H1081 0.961 . S
C1095 C1094 1.502 . S
C1096 H1082 0.960 . S
C1096 H1083 0.961 . S
C1096 H1084 0.959 . S
C1096 C1094 1.561 . S
C1097 C1094 1.526 . S
C1097 C1098 1.396 . S
C1097 C1102 1.390 . S
C1098 C1092 1.465 . S
C1098 C1097 1.396 . S
C1098 C1099 1.399 . S
C1099 H1085 0.929 . S
C1099 C1098 1.399 . S
C1099 C1100 1.385 . S
C1100 H1086 0.931 . S
C1100 C1099 1.385 . S
C1100 C1101 1.389 . S
C1101 C1100 1.389 . S
C1101 C1102 1.387 . S
C1102 H1087 0.930 . S
C1102 C1097 1.390 . S
C1102 C1101 1.387 . S
H1103 C1115 0.930 . S
H1104 C1117 0.930 . S
H1105 C1118 0.930 . S
H1106 C1122 0.959 . S
H1107 C1122 0.959 . S
H1108 C1122 0.961 . S
H1109 C1123 0.960 . S
H1110 C1123 0.961 . S
H1111 C1123 0.959 . S
H1112 C1126 0.929 . S
H1113 C1127 0.931 . S
H1114 C1129 0.930 . S
C1115 H1103 0.930 . S
C1115 C1116 1.399 . S
C1115 C1120 1.399 . S
C1116 C1115 1.399 . S
C1116 C1117 1.376 . S
C1117 H1104 0.930 . S
C1117 C1116 1.376 . S
C1117 C1118 1.388 . S
C1118 H1105 0.930 . S
C1118 C1117 1.388 . S
C1118 C1119 1.390 . S
C1119 C1118 1.390 . S
C1119 C1120 1.394 . S
C1119 C1125 1.465 . S
C1120 C1115 1.399 . S
C1120 C1119 1.394 . S
C1120 C1121 1.516 . S
C1121 C1120 1.516 . S
C1121 C1122 1.502 . S
C1121 C1123 1.561 . S
C1121 C1124 1.526 . S
C1122 H1106 0.959 . S
C1122 H1107 0.959 . S
C1122 H1108 0.961 . S
C1122 C1121 1.502 . S
C1123 H1109 0.960 . S
C1123 H1110 0.961 . S
C1123 H1111 0.959 . S
C1123 C1121 1.561 . S
C1124 C1121 1.526 . S
C1124 C1125 1.396 . S
C1124 C1129 1.390 . S
C1125 C1119 1.465 . S
C1125 C1124 1.396 . S
C1125 C1126 1.399 . S
C1126 H1112 0.929 . S
C1126 C1125 1.399 . S
C1126 C1127 1.385 . S
C1127 H1113 0.931 . S
C1127 C1126 1.385 . S
C1127 C1128 1.389 . S
C1128 C1127 1.389 . S
C1128 C1129 1.387 . S
C1129 H1114 0.930 . S
C1129 C1124 1.390 . S
C1129 C1128 1.387 . S
H1130 C1142 0.930 . S
H1131 C1144 0.930 . S
H1132 C1145 0.930 . S
H1133 C1149 0.959 . S
H1134 C1149 0.959 . S
H1135 C1149 0.961 . S
H1136 C1150 0.960 1_455 S
H1137 C1150 0.961 . S
H1138 C1150 0.959 1_455 S
H1139 C1153 0.929 . S
H1140 C1154 0.931 . S
H1141 C1156 0.930 . S
C1142 H1130 0.930 . S
C1142 C1143 1.399 . S
C1142 C1147 1.399 1_455 S
C1143 C1142 1.399 . S
C1143 C1144 1.376 . S
C1144 H1131 0.930 . S
C1144 C1143 1.376 . S
C1144 C1145 1.388 . S
C1145 H1132 0.930 . S
C1145 C1144 1.388 . S
C1145 C1146 1.390 1_455 S
C1146 C1145 1.390 1_655 S
C1146 C1147 1.394 . S
C1146 C1152 1.465 . S
C1147 C1142 1.399 1_655 S
C1147 C1146 1.394 . S
C1147 C1148 1.516 . S
C1148 C1147 1.516 . S
C1148 C1149 1.502 . S
C1148 C1150 1.561 . S
C1148 C1151 1.526 . S
C1149 H1133 0.959 . S
C1149 H1134 0.959 . S
C1149 H1135 0.961 . S
C1149 C1148 1.502 . S
C1150 H1136 0.960 1_655 S
C1150 H1137 0.961 . S
C1150 H1138 0.959 1_655 S
C1150 C1148 1.561 . S
C1151 C1148 1.526 . S
C1151 C1152 1.396 . S
C1151 C1156 1.390 . S
C1152 C1146 1.465 . S
C1152 C1151 1.396 . S
C1152 C1153 1.399 . S
C1153 H1139 0.929 . S
C1153 C1152 1.399 . S
C1153 C1154 1.385 . S
C1154 H1140 0.931 . S
C1154 C1153 1.385 . S
C1154 C1155 1.389 . S
C1155 C1154 1.389 . S
C1155 C1156 1.387 . S
C1156 H1141 0.930 . S
C1156 C1151 1.390 . S
C1156 C1155 1.387 . S
H1157 C1169 0.930 . S
H1158 C1171 0.930 . S
H1159 C1172 0.930 . S
H1160 C1176 0.959 . S
H1161 C1176 0.959 . S
H1162 C1176 0.961 . S
H1163 C1177 0.960 . S
H1164 C1177 0.961 . S
H1165 C1177 0.959 . S
H1166 C1180 0.929 . S
H1167 C1181 0.931 . S
H1168 C1183 0.930 . S
C1169 H1157 0.930 . S
C1169 C1170 1.399 . S
C1169 C1174 1.399 . S
C1170 C1169 1.399 . S
C1170 C1171 1.376 . S
C1171 H1158 0.930 . S
C1171 C1170 1.376 . S
C1171 C1172 1.388 . S
C1172 H1159 0.930 . S
C1172 C1171 1.388 . S
C1172 C1173 1.390 . S
C1173 C1172 1.390 . S
C1173 C1174 1.394 . S
C1173 C1179 1.465 . S
C1174 C1169 1.399 . S
C1174 C1173 1.394 . S
C1174 C1175 1.516 . S
C1175 C1174 1.516 . S
C1175 C1176 1.502 . S
C1175 C1177 1.561 . S
C1175 C1178 1.526 . S
C1176 H1160 0.959 . S
C1176 H1161 0.959 . S
C1176 H1162 0.961 . S
C1176 C1175 1.502 . S
C1177 H1163 0.960 . S
C1177 H1164 0.961 . S
C1177 H1165 0.959 . S
C1177 C1175 1.561 . S
C1178 C1175 1.526 . S
C1178 C1179 1.396 . S
C1178 C1183 1.390 . S
C1179 C1173 1.465 . S
C1179 C1178 1.396 . S
C1179 C1180 1.399 . S
C1180 H1166 0.929 . S
C1180 C1179 1.399 . S
C1180 C1181 1.385 . S
C1181 H1167 0.931 . S
C1181 C1180 1.385 . S
C1181 C1182 1.389 . S
C1182 C1181 1.389 . S
C1182 C1183 1.387 . S
C1183 H1168 0.930 . S
C1183 C1178 1.390 . S
C1183 C1182 1.387 . S
H1184 C1196 0.930 . S
H1185 C1198 0.930 . S
H1186 C1199 0.933 1_455 S
H1187 C1203 0.959 . S
H1188 C1203 0.959 . S
H1189 C1203 0.961 . S
H1190 C1204 0.960 . S
H1191 C1204 0.961 . S
H1192 C1204 0.959 . S
H1193 C1207 0.929 . S
H1194 C1208 0.931 . S
H1195 C1210 0.930 1_655 S
C1196 H1184 0.930 . S
C1196 C1197 1.399 . S
C1196 C1201 1.399 . S
C1197 C1196 1.399 . S
C1197 C1198 1.376 . S
C1198 H1185 0.930 . S
C1198 C1197 1.376 . S
C1198 C1199 1.388 . S
C1199 H1186 0.933 1_655 S
C1199 C1198 1.388 . S
C1199 C1200 1.390 . S
C1200 C1199 1.390 . S
C1200 C1201 1.394 . S
C1200 C1206 1.465 1_655 S
C1201 C1196 1.399 . S
C1201 C1200 1.394 . S
C1201 C1202 1.516 . S
C1202 C1201 1.516 . S
C1202 C1203 1.502 . S
C1202 C1204 1.561 . S
C1202 C1205 1.526 . S
C1203 H1187 0.959 . S
C1203 H1188 0.959 . S
C1203 H1189 0.961 . S
C1203 C1202 1.502 . S
C1204 H1190 0.960 . S
C1204 H1191 0.961 . S
C1204 H1192 0.959 . S
C1204 C1202 1.561 . S
C1205 C1202 1.526 . S
C1205 C1206 1.396 1_655 S
C1205 C1210 1.390 1_655 S
C1206 C1200 1.465 1_455 S
C1206 C1205 1.396 1_455 S
C1206 C1207 1.399 . S
C1207 H1193 0.929 . S
C1207 C1206 1.399 . S
C1207 C1208 1.385 . S
C1208 H1194 0.931 . S
C1208 C1207 1.385 . S
C1208 C1209 1.389 . S
C1209 C1208 1.389 . S
C1209 C1210 1.387 . S
C1210 H1195 0.930 1_455 S
C1210 C1205 1.390 1_455 S
C1210 C1209 1.387 . S
H1211 C1223 0.930 . S
H1212 C1225 0.930 . S
H1213 C1226 0.930 . S
H1214 C1230 0.959 . S
H1215 C1230 0.959 . S
H1216 C1230 0.961 . S
H1217 C1231 0.960 . S
H1218 C1231 0.961 . S
H1219 C1231 0.959 . S
H1220 C1234 0.929 . S
H1221 C1235 0.931 . S
H1222 C1237 0.930 . S
C1223 H1211 0.930 . S
C1223 C1224 1.399 . S
C1223 C1228 1.399 . S
C1224 C1223 1.399 . S
C1224 C1225 1.376 . S
C1225 H1212 0.930 . S
C1225 C1224 1.376 . S
C1225 C1226 1.388 . S
C1226 H1213 0.930 . S
C1226 C1225 1.388 . S
C1226 C1227 1.390 . S
C1227 C1226 1.390 . S
C1227 C1228 1.394 . S
C1227 C1233 1.465 . S
C1228 C1223 1.399 . S
C1228 C1227 1.394 . S
C1228 C1229 1.516 . S
C1229 C1228 1.516 . S
C1229 C1230 1.502 . S
C1229 C1231 1.561 . S
C1229 C1232 1.526 . S
C1230 H1214 0.959 . S
C1230 H1215 0.959 . S
C1230 H1216 0.961 . S
C1230 C1229 1.502 . S
C1231 H1217 0.960 . S
C1231 H1218 0.961 . S
C1231 H1219 0.959 . S
C1231 C1229 1.561 . S
C1232 C1229 1.526 . S
C1232 C1233 1.396 . S
C1232 C1237 1.390 . S
C1233 C1227 1.465 . S
C1233 C1232 1.396 . S
C1233 C1234 1.399 . S
C1234 H1220 0.929 . S
C1234 C1233 1.399 . S
C1234 C1235 1.385 . S
C1235 H1221 0.931 . S
C1235 C1234 1.385 . S
C1235 C1236 1.389 . S
C1236 C1235 1.389 . S
C1236 C1237 1.387 . S
C1237 H1222 0.930 . S
C1237 C1232 1.390 . S
C1237 C1236 1.387 . S
H1238 C1250 0.930 . S
H1239 C1252 0.930 . S
H1240 C1253 0.930 . S
H1241 C1257 0.959 . S
H1242 C1257 0.959 . S
H1243 C1257 0.961 . S
H1244 C1258 0.960 . S
H1245 C1258 0.961 . S
H1246 C1258 0.959 . S
H1247 C1261 0.929 . S
H1248 C1262 0.931 . S
H1249 C1264 0.930 . S
C1250 H1238 0.930 . S
C1250 C1251 1.399 . S
C1250 C1255 1.399 . S
C1251 C1250 1.399 . S
C1251 C1252 1.376 . S
C1252 H1239 0.930 . S
C1252 C1251 1.376 . S
C1252 C1253 1.388 . S
C1253 H1240 0.930 . S
C1253 C1252 1.388 . S
C1253 C1254 1.390 . S
C1254 C1253 1.390 . S
C1254 C1255 1.394 . S
C1254 C1260 1.465 . S
C1255 C1250 1.399 . S
C1255 C1254 1.394 . S
C1255 C1256 1.516 . S
C1256 C1255 1.516 . S
C1256 C1257 1.502 . S
C1256 C1258 1.561 . S
C1256 C1259 1.526 . S
C1257 H1241 0.959 . S
C1257 H1242 0.959 . S
C1257 H1243 0.961 . S
C1257 C1256 1.502 . S
C1258 H1244 0.960 . S
C1258 H1245 0.961 . S
C1258 H1246 0.959 . S
C1258 C1256 1.561 . S
C1259 C1256 1.526 . S
C1259 C1260 1.396 . S
C1259 C1264 1.390 . S
C1260 C1254 1.465 . S
C1260 C1259 1.396 . S
C1260 C1261 1.399 . S
C1261 H1247 0.929 . S
C1261 C1260 1.399 . S
C1261 C1262 1.385 . S
C1262 H1248 0.931 . S
C1262 C1261 1.385 . S
C1262 C1263 1.389 . S
C1263 C1262 1.389 . S
C1263 C1264 1.387 . S
C1264 H1249 0.930 . S
C1264 C1259 1.390 . S
C1264 C1263 1.387 . S
H1265 C1277 0.930 . S
H1266 C1279 0.930 . S
H1267 C1280 0.930 . S
H1268 C1284 0.959 . S
H1269 C1284 0.959 . S
H1270 C1284 0.961 . S
H1271 C1285 0.960 . S
H1272 C1285 0.961 . S
H1273 C1285 0.959 . S
H1274 C1288 0.929 . S
H1275 C1289 0.931 . S
H1276 C1291 0.930 . S
C1277 H1265 0.930 . S
C1277 C1278 1.399 . S
C1277 C1282 1.399 . S
C1278 C1277 1.399 . S
C1278 C1279 1.376 . S
C1279 H1266 0.930 . S
C1279 C1278 1.376 . S
C1279 C1280 1.388 . S
C1280 H1267 0.930 . S
C1280 C1279 1.388 . S
C1280 C1281 1.390 . S
C1281 C1280 1.390 . S
C1281 C1282 1.394 . S
C1281 C1287 1.465 . S
C1282 C1277 1.399 . S
C1282 C1281 1.394 . S
C1282 C1283 1.516 . S
C1283 C1282 1.516 . S
C1283 C1284 1.502 . S
C1283 C1285 1.561 . S
C1283 C1286 1.526 . S
C1284 H1268 0.959 . S
C1284 H1269 0.959 . S
C1284 H1270 0.961 . S
C1284 C1283 1.502 . S
C1285 H1271 0.960 . S
C1285 H1272 0.961 . S
C1285 H1273 0.959 . S
C1285 C1283 1.561 . S
C1286 C1283 1.526 . S
C1286 C1287 1.396 . S
C1286 C1291 1.390 . S
C1287 C1281 1.465 . S
C1287 C1286 1.396 . S
C1287 C1288 1.399 . S
C1288 H1274 0.929 . S
C1288 C1287 1.399 . S
C1288 C1289 1.385 . S
C1289 H1275 0.931 . S
C1289 C1288 1.385 . S
C1289 C1290 1.389 . S
C1290 C1289 1.389 . S
C1290 C1291 1.387 . S
C1291 H1276 0.930 . S
C1291 C1286 1.390 . S
C1291 C1290 1.387 . S
H1292 C1304 0.930 . S
H1293 C1306 0.930 . S
H1294 C1307 0.930 . S
H1295 C1311 0.959 . S
H1296 C1311 0.959 . S
H1297 C1311 0.961 . S
H1298 C1312 0.960 . S
H1299 C1312 0.979 . S
H1300 C1312 0.959 1_655 S
H1301 C1315 0.929 . S
H1302 C1316 0.931 . S
H1303 C1318 0.930 . S
C1304 H1292 0.930 . S
C1304 C1305 1.399 . S
C1304 C1309 1.399 . S
C1305 C1304 1.399 . S
C1305 C1306 1.376 . S
C1306 H1293 0.930 . S
C1306 C1305 1.376 . S
C1306 C1307 1.388 . S
C1307 H1294 0.930 . S
C1307 C1306 1.388 . S
C1307 C1308 1.390 . S
C1308 C1307 1.390 . S
C1308 C1309 1.394 . S
C1308 C1314 1.465 . S
C1309 C1304 1.399 . S
C1309 C1308 1.394 . S
C1309 C1310 1.516 . S
C1310 C1309 1.516 . S
C1310 C1311 1.502 . S
C1310 C1312 1.561 . S
C1310 C1313 1.526 . S
C1311 H1295 0.959 . S
C1311 H1296 0.959 . S
C1311 H1297 0.961 . S
C1311 C1310 1.502 . S
C1312 H1298 0.960 . S
C1312 H1299 0.979 . S
C1312 H1300 0.959 1_455 S
C1312 C1310 1.561 . S
C1313 C1310 1.526 . S
C1313 C1314 1.396 . S
C1313 C1318 1.390 1_455 S
C1314 C1308 1.465 . S
C1314 C1313 1.396 . S
C1314 C1315 1.399 1_455 S
C1315 H1301 0.929 . S
C1315 C1314 1.399 1_655 S
C1315 C1316 1.385 . S
C1316 H1302 0.931 . S
C1316 C1315 1.385 . S
C1316 C1317 1.389 . S
C1317 C1316 1.389 . S
C1317 C1318 1.387 . S
C1318 H1303 0.930 . S
C1318 C1313 1.390 1_655 S
C1318 C1317 1.387 . S
H1319 C1331 0.930 . S
H1320 C1333 0.930 . S
H1321 C1334 0.930 . S
H1322 C1338 0.959 . S
H1323 C1338 0.959 . S
H1324 C1338 0.961 . S
H1325 C1339 0.960 . S
H1326 C1339 0.961 . S
H1327 C1339 0.959 . S
H1328 C1342 0.929 . S
H1329 C1343 0.931 . S
H1330 C1345 0.930 . S
C1331 H1319 0.930 . S
C1331 C1332 1.399 . S
C1331 C1336 1.399 . S
C1332 C1331 1.399 . S
C1332 C1333 1.376 . S
C1333 H1320 0.930 . S
C1333 C1332 1.376 . S
C1333 C1334 1.388 . S
C1334 H1321 0.930 . S
C1334 C1333 1.388 . S
C1334 C1335 1.390 . S
C1335 C1334 1.390 . S
C1335 C1336 1.394 . S
C1335 C1341 1.465 . S
C1336 C1331 1.399 . S
C1336 C1335 1.394 . S
C1336 C1337 1.516 . S
C1337 C1336 1.516 . S
C1337 C1338 1.502 . S
C1337 C1339 1.561 . S
C1337 C1340 1.526 . S
C1338 H1322 0.959 . S
C1338 H1323 0.959 . S
C1338 H1324 0.961 . S
C1338 C1337 1.502 . S
C1339 H1325 0.960 . S
C1339 H1326 0.961 . S
C1339 H1327 0.959 . S
C1339 C1337 1.561 . S
C1340 C1337 1.526 . S
C1340 C1341 1.396 . S
C1340 C1345 1.390 . S
C1341 C1335 1.465 . S
C1341 C1340 1.396 . S
C1341 C1342 1.399 . S
C1342 H1328 0.929 . S
C1342 C1341 1.399 . S
C1342 C1343 1.385 . S
C1343 H1329 0.931 . S
C1343 C1342 1.385 . S
C1343 C1344 1.389 . S
C1344 C1343 1.389 . S
C1344 C1345 1.387 . S
C1345 H1330 0.930 . S
C1345 C1340 1.390 . S
C1345 C1344 1.387 . S
H1346 C1358 0.930 . S
H1347 C1360 0.930 . S
H1348 C1361 0.930 . S
H1349 C1365 0.959 . S
H1350 C1365 0.959 . S
H1351 C1365 0.961 . S
H1352 C1366 0.960 . S
H1353 C1366 0.961 . S
H1354 C1366 0.959 . S
H1355 C1369 0.929 . S
H1356 C1370 0.931 . S
H1357 C1372 0.930 . S
C1358 H1346 0.930 . S
C1358 C1359 1.399 . S
C1358 C1363 1.399 . S
C1359 C1358 1.399 . S
C1359 C1360 1.376 . S
C1360 H1347 0.930 . S
C1360 C1359 1.376 . S
C1360 C1361 1.388 . S
C1361 H1348 0.930 . S
C1361 C1360 1.388 . S
C1361 C1362 1.390 . S
C1362 C1361 1.390 . S
C1362 C1363 1.394 . S
C1362 C1368 1.465 . S
C1363 C1358 1.399 . S
C1363 C1362 1.394 . S
C1363 C1364 1.516 . S
C1364 C1363 1.516 . S
C1364 C1365 1.502 . S
C1364 C1366 1.561 . S
C1364 C1367 1.526 . S
C1365 H1349 0.959 . S
C1365 H1350 0.959 . S
C1365 H1351 0.961 . S
C1365 C1364 1.502 . S
C1366 H1352 0.960 . S
C1366 H1353 0.961 . S
C1366 H1354 0.959 . S
C1366 C1364 1.561 . S
C1367 C1364 1.526 . S
C1367 C1368 1.396 . S
C1367 C1372 1.390 . S
C1368 C1362 1.465 . S
C1368 C1367 1.396 . S
C1368 C1369 1.399 . S
C1369 H1355 0.929 . S
C1369 C1368 1.399 . S
C1369 C1370 1.385 . S
C1370 H1356 0.931 . S
C1370 C1369 1.385 . S
C1370 C1371 1.389 . S
C1371 C1370 1.389 . S
C1371 C1372 1.387 . S
C1372 H1357 0.930 . S
C1372 C1367 1.390 . S
C1372 C1371 1.387 . S
H1373 C1385 0.930 . S
H1374 C1387 0.930 1_554 S
H1375 C1388 0.930 . S
H1376 C1392 0.959 . S
H1377 C1392 0.959 . S
H1378 C1392 0.961 . S
H1379 C1393 0.960 . S
H1380 C1393 0.961 . S
H1381 C1393 0.959 . S
H1382 C1396 0.929 . S
H1383 C1397 0.931 . S
H1384 C1399 0.930 . S
C1385 H1373 0.930 . S
C1385 C1386 1.399 . S
C1385 C1390 1.399 . S
C1386 C1385 1.399 . S
C1386 C1387 1.376 . S
C1387 H1374 0.930 1_556 S
C1387 C1386 1.376 . S
C1387 C1388 1.388 . S
C1388 H1375 0.930 . S
C1388 C1387 1.388 . S
C1388 C1389 1.390 . S
C1389 C1388 1.390 . S
C1389 C1390 1.394 . S
C1389 C1395 1.465 . S
C1390 C1385 1.399 . S
C1390 C1389 1.394 . S
C1390 C1391 1.516 . S
C1391 C1390 1.516 . S
C1391 C1392 1.502 . S
C1391 C1393 1.561 . S
C1391 C1394 1.526 . S
C1392 H1376 0.959 . S
C1392 H1377 0.959 . S
C1392 H1378 0.961 . S
C1392 C1391 1.502 . S
C1393 H1379 0.960 . S
C1393 H1380 0.961 . S
C1393 H1381 0.959 . S
C1393 C1391 1.561 . S
C1394 C1391 1.526 . S
C1394 C1395 1.396 . S
C1394 C1399 1.390 . S
C1395 C1389 1.465 . S
C1395 C1394 1.396 . S
C1395 C1396 1.399 . S
C1396 H1382 0.929 . S
C1396 C1395 1.399 . S
C1396 C1397 1.385 . S
C1397 H1383 0.931 . S
C1397 C1396 1.385 . S
C1397 C1398 1.389 . S
C1398 C1397 1.389 . S
C1398 C1399 1.387 . S
C1399 H1384 0.930 . S
C1399 C1394 1.390 . S
C1399 C1398 1.387 . S
H1400 C1412 0.930 . S
H1401 C1414 0.930 . S
H1402 C1415 0.930 . S
H1403 C1419 0.959 . S
H1404 C1419 0.959 . S
H1405 C1419 0.961 . S
H1406 C1420 0.960 . S
H1407 C1420 0.961 . S
H1408 C1420 0.959 . S
H1409 C1423 0.929 . S
H1410 C1424 0.931 . S
H1411 C1426 0.930 . S
C1412 H1400 0.930 . S
C1412 C1413 1.399 . S
C1412 C1417 1.399 . S
C1413 C1412 1.399 . S
C1413 C1414 1.376 . S
C1414 H1401 0.930 . S
C1414 C1413 1.376 . S
C1414 C1415 1.388 . S
C1415 H1402 0.930 . S
C1415 C1414 1.388 . S
C1415 C1416 1.390 . S
C1416 C1415 1.390 . S
C1416 C1417 1.394 . S
C1416 C1422 1.465 . S
C1417 C1412 1.399 . S
C1417 C1416 1.394 . S
C1417 C1418 1.516 . S
C1418 C1417 1.516 . S
C1418 C1419 1.502 . S
C1418 C1420 1.561 . S
C1418 C1421 1.526 . S
C1419 H1403 0.959 . S
C1419 H1404 0.959 . S
C1419 H1405 0.961 . S
C1419 C1418 1.502 . S
C1420 H1406 0.960 . S
C1420 H1407 0.961 . S
C1420 H1408 0.959 . S
C1420 C1418 1.561 . S
C1421 C1418 1.526 . S
C1421 C1422 1.396 . S
C1421 C1426 1.390 . S
C1422 C1416 1.465 . S
C1422 C1421 1.396 . S
C1422 C1423 1.399 . S
C1423 H1409 0.929 . S
C1423 C1422 1.399 . S
C1423 C1424 1.385 . S
C1424 H1410 0.931 . S
C1424 C1423 1.385 . S
C1424 C1425 1.389 . S
C1425 C1424 1.389 . S
C1425 C1426 1.387 . S
C1426 H1411 0.930 . S
C1426 C1421 1.390 . S
C1426 C1425 1.387 . S
H1427 C1439 0.930 . S
H1428 C1441 0.930 . S
H1429 C1442 0.930 . S
H1430 C1446 0.959 . S
H1431 C1446 0.959 . S
H1432 C1446 0.961 . S
H1433 C1447 0.960 . S
H1434 C1447 0.961 . S
H1435 C1447 0.959 . S
H1436 C1450 0.929 . S
H1437 C1451 0.931 . S
H1438 C1453 0.930 . S
C1439 H1427 0.930 . S
C1439 C1440 1.399 . S
C1439 C1444 1.399 . S
C1440 C1439 1.399 . S
C1440 C1441 1.376 . S
C1441 H1428 0.930 . S
C1441 C1440 1.376 . S
C1441 C1442 1.388 . S
C1442 H1429 0.930 . S
C1442 C1441 1.388 . S
C1442 C1443 1.390 . S
C1443 C1442 1.390 . S
C1443 C1444 1.394 . S
C1443 C1449 1.465 . S
C1444 C1439 1.399 . S
C1444 C1443 1.394 . S
C1444 C1445 1.516 . S
C1445 C1444 1.516 . S
C1445 C1446 1.502 . S
C1445 C1447 1.561 . S
C1445 C1448 1.526 . S
C1446 H1430 0.959 . S
C1446 H1431 0.959 . S
C1446 H1432 0.961 . S
C1446 C1445 1.502 . S
C1447 H1433 0.960 . S
C1447 H1434 0.961 . S
C1447 H1435 0.959 . S
C1447 C1445 1.561 . S
C1448 C1445 1.526 . S
C1448 C1449 1.396 . S
C1448 C1453 1.390 . S
C1449 C1443 1.465 . S
C1449 C1448 1.396 . S
C1449 C1450 1.399 . S
C1450 H1436 0.929 . S
C1450 C1449 1.399 . S
C1450 C1451 1.385 . S
C1451 H1437 0.931 . S
C1451 C1450 1.385 . S
C1451 C1452 1.389 . S
C1452 C1451 1.389 . S
C1452 C1453 1.387 . S
C1453 H1438 0.930 . S
C1453 C1448 1.390 . S
C1453 C1452 1.387 . S
H1454 C1466 0.930 . S
H1455 C1468 0.930 . S
H1456 C1469 0.930 . S
H1457 C1473 0.959 . S
H1458 C1473 0.959 . S
H1459 C1473 0.961 . S
H1460 C1474 0.960 . S
H1461 C1474 0.961 . S
H1462 C1474 0.959 . S
H1463 C1477 0.929 . S
H1464 C1478 0.931 . S
H1465 C1480 0.930 . S
C1466 H1454 0.930 . S
C1466 C1467 1.399 . S
C1466 C1471 1.399 . S
C1467 C1466 1.399 . S
C1467 C1468 1.376 . S
C1468 H1455 0.930 . S
C1468 C1467 1.376 . S
C1468 C1469 1.388 . S
C1469 H1456 0.930 . S
C1469 C1468 1.388 . S
C1469 C1470 1.390 . S
C1470 C1469 1.390 . S
C1470 C1471 1.394 . S
C1470 C1476 1.465 . S
C1471 C1466 1.399 . S
C1471 C1470 1.394 . S
C1471 C1472 1.516 . S
C1472 C1471 1.516 . S
C1472 C1473 1.502 . S
C1472 C1474 1.561 . S
C1472 C1475 1.526 . S
C1473 H1457 0.959 . S
C1473 H1458 0.959 . S
C1473 H1459 0.961 . S
C1473 C1472 1.502 . S
C1474 H1460 0.960 . S
C1474 H1461 0.961 . S
C1474 H1462 0.959 . S
C1474 C1472 1.561 . S
C1475 C1472 1.526 . S
C1475 C1476 1.396 . S
C1475 C1480 1.390 . S
C1476 C1470 1.465 . S
C1476 C1475 1.396 . S
C1476 C1477 1.399 . S
C1477 H1463 0.929 . S
C1477 C1476 1.399 . S
C1477 C1478 1.385 . S
C1478 H1464 0.931 . S
C1478 C1477 1.385 . S
C1478 C1479 1.389 . S
C1479 C1478 1.389 . S
C1479 C1480 1.387 . S
C1480 H1465 0.930 . S
C1480 C1475 1.390 . S
C1480 C1479 1.387 . S
H1481 C1493 0.930 . S
H1482 C1495 0.930 . S
H1483 C1496 0.930 . S
H1484 C1500 0.959 . S
H1485 C1500 0.959 . S
H1486 C1500 0.961 . S
H1487 C1501 0.960 . S
H1488 C1501 0.961 . S
H1489 C1501 0.959 . S
H1490 C1504 0.912 1_554 S
H1491 C1505 0.931 . S
H1492 C1507 0.930 . S
C1493 H1481 0.930 . S
C1493 C1494 1.399 . S
C1493 C1498 1.399 . S
C1494 C1493 1.399 . S
C1494 C1495 1.376 . S
C1495 H1482 0.930 . S
C1495 C1494 1.376 . S
C1495 C1496 1.388 . S
C1496 H1483 0.930 . S
C1496 C1495 1.388 . S
C1496 C1497 1.390 . S
C1497 C1496 1.390 . S
C1497 C1498 1.394 . S
C1497 C1503 1.465 1_454 S
C1498 C1493 1.399 . S
C1498 C1497 1.394 . S
C1498 C1499 1.516 1_554 S
C1499 C1498 1.516 1_556 S
C1499 C1500 1.502 1_455 S
C1499 C1501 1.561 . S
C1499 C1502 1.526 1_455 S
C1500 H1484 0.959 . S
C1500 H1485 0.959 . S
C1500 H1486 0.961 . S
C1500 C1499 1.502 1_655 S
C1501 H1487 0.960 . S
C1501 H1488 0.961 . S
C1501 H1489 0.959 . S
C1501 C1499 1.561 . S
C1502 C1499 1.526 1_655 S
C1502 C1503 1.396 . S
C1502 C1507 1.390 . S
C1503 C1497 1.465 1_656 S
C1503 C1502 1.396 . S
C1503 C1504 1.400 . S
C1504 H1490 0.912 1_556 S
C1504 C1503 1.400 . S
C1504 C1505 1.402 . S
C1505 H1491 0.931 . S
C1505 C1504 1.402 . S
C1505 C1506 1.389 . S
C1506 C1505 1.389 . S
C1506 C1507 1.387 . S
C1507 H1492 0.930 . S
C1507 C1502 1.390 . S
C1507 C1506 1.387 . S
H1508 C1520 0.930 . S
H1509 C1522 0.930 . S
H1510 C1523 0.930 . S
H1511 C1527 0.959 . S
H1512 C1527 0.959 . S
H1513 C1527 0.961 . S
H1514 C1528 0.960 . S
H1515 C1528 0.961 . S
H1516 C1528 0.959 . S
H1517 C1531 0.929 . S
H1518 C1532 0.931 . S
H1519 C1534 0.930 . S
C1520 H1508 0.930 . S
C1520 C1521 1.399 . S
C1520 C1525 1.399 . S
C1521 C1520 1.399 . S
C1521 C1522 1.376 . S
C1522 H1509 0.930 . S
C1522 C1521 1.376 . S
C1522 C1523 1.388 . S
C1523 H1510 0.930 . S
C1523 C1522 1.388 . S
C1523 C1524 1.390 . S
C1524 C1523 1.390 . S
C1524 C1525 1.394 . S
C1524 C1530 1.465 . S
C1525 C1520 1.399 . S
C1525 C1524 1.394 . S
C1525 C1526 1.516 . S
C1526 C1525 1.516 . S
C1526 C1527 1.502 . S
C1526 C1528 1.561 . S
C1526 C1529 1.526 . S
C1527 H1511 0.959 . S
C1527 H1512 0.959 . S
C1527 H1513 0.961 . S
C1527 C1526 1.502 . S
C1528 H1514 0.960 . S
C1528 H1515 0.961 . S
C1528 H1516 0.959 . S
C1528 C1526 1.561 . S
C1529 C1526 1.526 . S
C1529 C1530 1.396 . S
C1529 C1534 1.390 . S
C1530 C1524 1.465 . S
C1530 C1529 1.396 . S
C1530 C1531 1.399 . S
C1531 H1517 0.929 . S
C1531 C1530 1.399 . S
C1531 C1532 1.385 . S
C1532 H1518 0.931 . S
C1532 C1531 1.385 . S
C1532 C1533 1.389 . S
C1533 C1532 1.389 . S
C1533 C1534 1.387 . S
C1534 H1519 0.930 . S
C1534 C1529 1.390 . S
C1534 C1533 1.387 . S
H1535 C1547 0.930 . S
H1536 C1549 0.930 . S
H1537 C1550 0.930 . S
H1538 C1554 0.959 . S
H1539 C1554 0.959 . S
H1540 C1554 0.961 . S
H1541 C1555 0.960 . S
H1542 C1555 0.961 . S
H1543 C1555 0.959 . S
H1544 C1558 0.929 . S
H1545 C1559 0.931 . S
H1546 C1561 0.930 . S
C1547 H1535 0.930 . S
C1547 C1548 1.399 . S
C1547 C1552 1.399 . S
C1548 C1547 1.399 . S
C1548 C1549 1.376 . S
C1549 H1536 0.930 . S
C1549 C1548 1.376 . S
C1549 C1550 1.388 . S
C1550 H1537 0.930 . S
C1550 C1549 1.388 . S
C1550 C1551 1.390 . S
C1551 C1550 1.390 . S
C1551 C1552 1.394 . S
C1551 C1557 1.465 . S
C1552 C1547 1.399 . S
C1552 C1551 1.394 . S
C1552 C1553 1.516 . S
C1553 C1552 1.516 . S
C1553 C1554 1.502 . S
C1553 C1555 1.561 . S
C1553 C1556 1.526 . S
C1554 H1538 0.959 . S
C1554 H1539 0.959 . S
C1554 H1540 0.961 . S
C1554 C1553 1.502 . S
C1555 H1541 0.960 . S
C1555 H1542 0.961 . S
C1555 H1543 0.959 . S
C1555 C1553 1.561 . S
C1556 C1553 1.526 . S
C1556 C1557 1.396 . S
C1556 C1561 1.390 . S
C1557 C1551 1.465 . S
C1557 C1556 1.396 . S
C1557 C1558 1.399 . S
C1558 H1544 0.929 . S
C1558 C1557 1.399 . S
C1558 C1559 1.385 . S
C1559 H1545 0.931 . S
C1559 C1558 1.385 . S
C1559 C1560 1.389 . S
C1560 C1559 1.389 . S
C1560 C1561 1.387 . S
C1561 H1546 0.930 . S
C1561 C1556 1.390 . S
C1561 C1560 1.387 . S
H1562 C1574 0.930 1_565 S
H1563 C1576 0.930 . S
H1564 C1577 0.930 1_554 S
H1565 C1581 0.959 . S
H1566 C1581 0.959 . S
H1567 C1581 0.961 1_455 S
H1568 C1582 0.960 . S
H1569 C1582 0.961 . S
H1570 C1582 0.959 1_554 S
H1571 C1585 0.929 . S
H1572 C1586 0.923 1_545 S
H1573 C1588 0.930 . S
C1574 H1562 0.930 1_545 S
C1574 C1575 1.399 . S
C1574 C1579 1.402 . S
C1575 C1574 1.399 . S
C1575 C1576 1.376 . S
C1576 H1563 0.930 . S
C1576 C1575 1.376 . S
C1576 C1577 1.388 . S
C1577 H1564 0.930 1_556 S
C1577 C1576 1.388 . S
C1577 C1578 1.390 . S
C1578 C1577 1.390 . S
C1578 C1579 1.399 . S
C1578 C1584 1.465 1_456 S
C1579 C1574 1.402 . S
C1579 C1578 1.399 . S
C1579 C1580 1.509 1_545 S
C1580 C1579 1.509 1_565 S
C1580 C1581 1.502 1_455 S
C1580 C1582 1.561 . S
C1580 C1583 1.526 1_456 S
C1581 H1565 0.959 . S
C1581 H1566 0.959 . S
C1581 H1567 0.961 1_655 S
C1581 C1580 1.502 1_655 S
C1582 H1568 0.960 . S
C1582 H1569 0.961 . S
C1582 H1570 0.959 1_556 S
C1582 C1580 1.561 . S
C1583 C1580 1.526 1_654 S
C1583 C1584 1.396 1_565 S
C1583 C1588 1.390 . S
C1584 C1578 1.465 1_654 S
C1584 C1583 1.396 1_545 S
C1584 C1585 1.399 . S
C1585 H1571 0.929 . S
C1585 C1584 1.399 . S
C1585 C1586 1.385 1_545 S
C1586 H1572 0.923 1_565 S
C1586 C1585 1.385 1_565 S
C1586 C1587 1.389 . S
C1587 C1586 1.389 . S
C1587 C1588 1.387 . S
C1588 H1573 0.930 . S
C1588 C1583 1.390 . S
C1588 C1587 1.387 . S
H1589 C1601 0.930 . S
H1590 C1603 0.930 . S
H1591 C1604 0.930 1_565 S
H1592 C1608 0.959 . S
H1593 C1608 0.959 . S
H1594 C1608 0.961 . S
H1595 C1609 0.960 . S
H1596 C1609 0.961 . S
H1597 C1609 0.959 . S
H1598 C1612 0.929 . S
H1599 C1613 0.931 . S
H1600 C1615 0.930 . S
C1601 H1589 0.930 . S
C1601 C1602 1.399 . S
C1601 C1606 1.399 . S
C1602 C1601 1.399 . S
C1602 C1603 1.376 . S
C1603 H1590 0.930 . S
C1603 C1602 1.376 . S
C1603 C1604 1.388 . S
C1604 H1591 0.930 1_545 S
C1604 C1603 1.388 . S
C1604 C1605 1.390 . S
C1605 C1604 1.390 . S
C1605 C1606 1.394 . S
C1605 C1611 1.465 1_545 S
C1606 C1601 1.399 . S
C1606 C1605 1.394 . S
C1606 C1607 1.516 . S
C1607 C1606 1.516 . S
C1607 C1608 1.502 . S
C1607 C1609 1.561 1_545 S
C1607 C1610 1.526 1_545 S
C1608 H1592 0.959 . S
C1608 H1593 0.959 . S
C1608 H1594 0.961 . S
C1608 C1607 1.502 . S
C1609 H1595 0.960 . S
C1609 H1596 0.961 . S
C1609 H1597 0.959 . S
C1609 C1607 1.561 1_565 S
C1610 C1607 1.526 1_565 S
C1610 C1611 1.396 . S
C1610 C1615 1.390 . S
C1611 C1605 1.465 1_565 S
C1611 C1610 1.396 . S
C1611 C1612 1.399 . S
C1612 H1598 0.929 . S
C1612 C1611 1.399 . S
C1612 C1613 1.385 . S
C1613 H1599 0.931 . S
C1613 C1612 1.385 . S
C1613 C1614 1.389 . S
C1614 C1613 1.389 . S
C1614 C1615 1.387 . S
C1615 H1600 0.930 . S
C1615 C1610 1.390 . S
C1615 C1614 1.387 . S
C333 C4 1.155 . S
C345 C204 1.156 . S
C360 C24 1.075 . S
C372 C224 1.077 . S
C387 C44 1.163 . S
C399 C164 1.163 . S
C414 C64 1.167 . S
C426 C184 1.167 . S
C441 C82 1.076 . S
C453 C282 1.060 . S
C468 C102 1.153 . S
C480 C302 1.173 . S
C495 C122 1.066 . S
C507 C242 1.058 . S
C522 C142 1.165 . S
C534 C262 1.177 . S
C549 C198 2.060 . S
C561 C2 2.030 1_556 S
C576 C218 2.064 . S
C588 C22 2.029 . S
C603 C238 2.106 . S
C615 C42 2.080 . S
C630 C178 2.099 . S
C642 C62 2.067 . S
C657 C84 2.037 1_554 S
C669 C279 2.061 . S
C684 C299 2.096 . S
C696 C104 2.084 . S
C711 C319 2.098 . S
C723 C124 2.084 . S
C738 C259 2.080 . S
C750 C144 2.076 . S
C765 C38 2.099 . S
C777 C162 2.067 . S
C792 C182 2.077 . S
C804 C58 2.105 . S
C819 C202 2.027 1_556 S
C831 C78 2.063 . S
C846 C222 2.084 . S
C858 C18 2.105 . S
C873 C244 2.058 . S
C885 C119 2.103 . S
C900 C139 2.098 . S
C912 C264 2.048 . S
C927 C159 2.099 . S
C939 C284 2.084 1_554 S
C954 C304 2.029 . S
C966 C99 2.064 . S
C981 C12 1.036 . S
C993 C318 1.067 . S
C1008 C32 1.079 . S
C1020 C98 1.080 1_554 S
C1035 C278 1.097 . S
C1047 C52 1.107 . S
C1062 C138 1.067 . S
C1074 C72 1.036 . S
C1089 C89 1.032 . S
C1101 C239 1.072 . S
C1116 C109 1.108 . S
C1128 C19 1.083 1_556 S
C1143 C199 1.071 . S
C1155 C129 1.084 . S
C1170 C59 1.067 . S
C1182 C149 1.049 . S
C1197 C172 1.023 . S
C1209 C158 1.072 . S
C1224 C192 1.024 . S
C1236 C258 1.075 . S
C1251 C118 1.101 . S
C1263 C212 1.111 . S
C1278 C298 1.090 1_554 S
C1290 C232 1.099 . S
C1305 C249 1.023 . S
C1317 C79 1.085 . S
C1332 C269 1.023 . S
C1344 C179 1.083 . S
C1359 C289 1.094 . S
C1371 C39 1.111 . S
C1386 C219 1.097 1_556 S
C1398 C309 1.115 . S
C1413 C9 1.620 . S
C1425 C252 1.622 . S
C1440 C29 1.620 . S
C1452 C112 1.629 . S
C1467 C49 1.620 . S
C1479 C292 1.622 . S
C1494 C152 1.612 . S
C1506 C69 1.634 . S
C1521 C92 1.626 . S
C1533 C169 1.617 . S
C1548 C209 1.632 . S
C1560 C132 1.615 . S
C1575 C189 1.634 . S
C1587 C272 1.612 . S
C1602 C312 1.612 . S
C1614 C229 1.631 . S
