# Generated by pormake.
# Topology snk, (6)-cn, num edge types: 1
# Building blocks:
#     Node 0, Type 0, BuildingBlock: JUFBIX_clean_sbu_0, # of connection points: 6
#     Node 1, Type 0, BuildingBlock: JUFBIX_clean_sbu_0, # of connection points: 6
#     Node 2, Type 0, BuildingBlock: JUFBIX_clean_sbu_0, # of connection points: 6
#     Node 3, Type 0, BuildingBlock: JUFBIX_clean_sbu_0, # of connection points: 6
#     Node 4, Type 0, BuildingBlock: JUFBIX_clean_sbu_0, # of connection points: 6
#     Node 5, Type 0, BuildingBlock: JUFBIX_clean_sbu_0, # of connection points: 6
#     Node 6, Type 0, BuildingBlock: JUFBIX_clean_sbu_0, # of connection points: 6
#     Node 7, Type 0, BuildingBlock: JUFBIX_clean_sbu_0, # of connection points: 6
#     Edge 8, Type (0, 0), BuildingBlock: UVAHIK_clean_linker_0, # of connection points: 2
#     Edge 9, Type (0, 0), BuildingBlock: UVAHIK_clean_linker_0, # of connection points: 2
#     Edge 10, Type (0, 0), BuildingBlock: UVAHIK_clean_linker_0, # of connection points: 2
#     Edge 11, Type (0, 0), BuildingBlock: UVAHIK_clean_linker_0, # of connection points: 2
#     Edge 12, Type (0, 0), BuildingBlock: UVAHIK_clean_linker_0, # of connection points: 2
#     Edge 13, Type (0, 0), BuildingBlock: UVAHIK_clean_linker_0, # of connection points: 2
#     Edge 14, Type (0, 0), BuildingBlock: UVAHIK_clean_linker_0, # of connection points: 2
#     Edge 15, Type (0, 0), BuildingBlock: UVAHIK_clean_linker_0, # of connection points: 2
#     Edge 16, Type (0, 0), BuildingBlock: UVAHIK_clean_linker_0, # of connection points: 2
#     Edge 17, Type (0, 0), BuildingBlock: UVAHIK_clean_linker_0, # of connection points: 2
#     Edge 18, Type (0, 0), BuildingBlock: UVAHIK_clean_linker_0, # of connection points: 2
#     Edge 19, Type (0, 0), BuildingBlock: UVAHIK_clean_linker_0, # of connection points: 2
#     Edge 20, Type (0, 0), BuildingBlock: UVAHIK_clean_linker_0, # of connection points: 2
#     Edge 21, Type (0, 0), BuildingBlock: UVAHIK_clean_linker_0, # of connection points: 2
#     Edge 22, Type (0, 0), BuildingBlock: UVAHIK_clean_linker_0, # of connection points: 2
#     Edge 23, Type (0, 0), BuildingBlock: UVAHIK_clean_linker_0, # of connection points: 2
#     Edge 24, Type (0, 0), BuildingBlock: UVAHIK_clean_linker_0, # of connection points: 2
#     Edge 25, Type (0, 0), BuildingBlock: UVAHIK_clean_linker_0, # of connection points: 2
#     Edge 26, Type (0, 0), BuildingBlock: UVAHIK_clean_linker_0, # of connection points: 2
#     Edge 27, Type (0, 0), BuildingBlock: UVAHIK_clean_linker_0, # of connection points: 2
#     Edge 28, Type (0, 0), BuildingBlock: UVAHIK_clean_linker_0, # of connection points: 2
#     Edge 29, Type (0, 0), BuildingBlock: UVAHIK_clean_linker_0, # of connection points: 2
#     Edge 30, Type (0, 0), BuildingBlock: UVAHIK_clean_linker_0, # of connection points: 2
#     Edge 31, Type (0, 0), BuildingBlock: UVAHIK_clean_linker_0, # of connection points: 2
# Relax obj value: 0.093
# Max RMSD: 0.103
# Mean RMSD: 0.066
data_MOF--net-snk--node1-JUFBIX_clean_sbu_0--edge1-UVAHIK_clean_linker_0
_symmetry_space_group_name_H-M    P1
_symmetry_Int_Tables_number       1
_symmetry_cell_setting            triclinic
loop_
_symmetry_equiv_pos_as_xyz
'x, y, z'
_cell_length_a     59.108566
_cell_length_b     59.002209
_cell_length_c     19.453115
_cell_angle_alpha  98.854433
_cell_angle_beta   98.925461
_cell_angle_gamma 92.357907
loop_
_atom_site_label
_atom_site_type_symbol
_atom_site_fract_x
_atom_site_fract_y
_atom_site_fract_z
_atom_type_partial_charge
Co0 Co 1.0214 1.01844 0.47684 0.0
C1 C 1.00062 0.05887 0.47745 0.0
Co2 Co 0.04692 0.04776 0.50486 0.0
C3 C 1.00481 0.97434 0.49164 0.0
C4 C 0.98282 0.98668 0.40935 0.0
N5 N 1.002 0.99239 0.45731 0.0
N6 N 0.98811 0.95748 0.46796 0.0
C7 C 0.97417 0.96519 0.41591 0.0
H8 H 1.01894 0.97381 0.53376 0.0
H9 H 0.97546 0.99755 0.37291 0.0
C10 C 0.06765 1.0073 0.50403 0.0
N11 N 0.0662 0.07395 0.52464 0.0
C12 C 0.06426 0.09101 0.48606 0.0
C13 C 0.08276 0.08183 0.58015 0.0
N14 N 0.0788 0.10929 0.5148 0.0
C15 C 0.09056 0.10374 0.57427 0.0
C16 C 0.0322 0.03506 0.62114 0.0
O17 O 0.04682 0.99974 0.48607 0.0
O18 O 0.07237 0.02891 0.51562 0.0
O19 O 0.04534 0.04948 0.60162 0.0
O20 O 1.02007 1.02004 0.57482 0.0
O21 O 1.02143 0.06658 0.49452 0.0
H22 H 0.08841 0.07249 0.62271 0.0
H23 H 0.05176 0.09034 0.43867 0.0
O24 O 0.99604 0.03726 0.46711 0.0
O25 O 1.02267 1.01685 0.37998 0.0
O26 O 0.04846 0.04587 0.40684 0.0
C27 C 0.03606 0.03105 0.36049 0.0
H28 H 0.95843 0.95639 0.38621 0.0
H29 H 0.10384 0.11462 0.61043 0.0
Co30 Co 0.2877 0.76218 0.73781 0.0
C31 C 0.2402 0.74597 0.70488 0.0
Co32 Co 0.26322 0.78963 0.74001 0.0
C33 C 0.32335 0.73083 0.77441 0.0
C34 C 0.30494 0.72188 0.6692 0.0
N35 N 0.30666 0.7378 0.72781 0.0
N36 N 0.33213 0.71128 0.74665 0.0
C37 C 0.32053 0.70572 0.68043 0.0
H38 H 0.32876 0.73976 0.82774 0.0
H39 H 0.29263 0.72162 0.6217 0.0
C40 C 0.31068 0.80585 0.77266 0.0
N41 N 0.24437 0.81417 0.75057 0.0
C42 C 0.22854 0.82224 0.70379 0.0
C43 C 0.24574 0.82935 0.81075 0.0
N44 N 0.21992 0.84168 0.73307 0.0
C45 C 0.23076 0.84607 0.80035 0.0
C46 C 0.27595 0.77323 0.86812 0.0
O47 O 0.31419 0.78445 0.7631 0.0
O48 O 0.28993 0.81153 0.76544 0.0
O49 O 0.26391 0.78697 0.83636 0.0
O50 O 0.2883 0.76003 0.83425 0.0
O51 O 0.23672 0.76739 0.71433 0.0
H52 H 0.25751 0.82885 0.85886 0.0
H53 H 0.22369 0.81423 0.64924 0.0
O54 O 0.26095 0.74025 0.71256 0.0
O55 O 0.28695 0.76468 0.64137 0.0
O56 O 0.26272 0.79182 0.64363 0.0
C57 C 0.27499 0.77851 0.60969 0.0
H58 H 0.32251 0.69053 0.64342 0.0
H59 H 0.22875 0.8609 0.83871 0.0
Co60 Co 0.5389 1.01366 0.98415 0.0
C61 C 0.55523 0.06119 0.01726 0.0
Co62 Co 0.51158 0.03825 0.98173 0.0
C63 C 0.56987 0.9776 0.94821 0.0
C64 C 0.57915 0.99641 0.05281 0.0
N65 N 0.56315 0.99459 -0.00564 0.0
N66 N 0.58933 0.96872 0.9761 0.0
C67 C 0.5951 0.98058 0.04193 0.0
H68 H 0.56078 0.97202 0.89514 0.0
H69 H 0.57956 1.00891 0.09998 0.0
C70 C 0.49527 0.99074 0.94894 0.0
N71 N 0.48715 0.0572 0.9709 0.0
C72 C 0.4794 0.07348 0.01703 0.0
C73 C 0.47181 0.05554 0.91097 0.0
N74 N 0.45999 0.0821 -0.01245 0.0
C75 C 0.4553 0.07079 0.92084 0.0
C76 C 0.52799 1.0255 0.8538 0.0
O77 O 0.51662 0.9872 0.95867 0.0
O78 O 0.48963 1.01153 0.95613 0.0
O79 O 0.51428 0.03758 0.88543 0.0
O80 O 0.54111 1.01308 0.88776 0.0
O81 O 0.53386 0.06475 0.00759 0.0
H82 H 0.4721 0.04344 0.8634 0.0
H83 H 0.48763 0.07869 0.07123 0.0
O84 O 0.56087 0.04039 0.00961 0.0
O85 O 0.53634 1.01439 0.08053 0.0
O86 O 0.50932 0.03874 0.07805 0.0
C87 C 0.52254 0.0264 0.11208 0.0
H88 H 0.61028 0.97858 0.07891 0.0
H89 H 0.44042 0.0727 0.88255 0.0
Co90 Co 0.28604 0.28439 0.24439 0.0
C91 C 0.24586 0.3053 0.2449 0.0
Co92 Co 0.25672 0.25888 0.2151 0.0
C93 C 0.33077 0.30191 0.23785 0.0
C94 C 0.31871 0.31935 0.32857 0.0
N95 N 0.31228 0.30349 0.27031 0.0
N96 N 0.34878 0.31586 0.27369 0.0
C97 C 0.34117 0.32703 0.33076 0.0
H98 H 0.33093 0.29042 0.18896 0.0
H99 H 0.30804 0.3244 0.36799 0.0
C100 C 0.29698 0.23804 0.21465 0.0
N101 N 0.23037 0.23988 0.18933 0.0
C102 C 0.21172 0.24251 0.22072 0.0
C103 C 0.22368 0.22377 0.13178 0.0
N104 N 0.19338 0.22914 0.1847 0.0
C105 C 0.20088 0.21703 0.12894 0.0
C106 C 0.27059 0.27523 0.10084 0.0
O107 O 0.30458 0.25889 0.23281 0.0
O108 O 0.2754 0.23333 0.20376 0.0
O109 O 0.25632 0.26174 0.11964 0.0
O110 O 0.28545 0.28737 0.14772 0.0
O111 O 0.23818 0.2845 0.22604 0.0
H112 H 0.23437 0.21806 0.09295 0.0
H113 H 0.2116 0.25447 0.26875 0.0
O114 O 0.26743 0.3099 0.25641 0.0
O115 O 0.28654 0.28135 0.3398 0.0
O116 O 0.25716 0.25604 0.31178 0.0
C117 C 0.27214 0.26802 0.35863 0.0
H118 H 0.35116 0.3395 0.37205 0.0
H119 H 0.19053 0.20474 0.08794 0.0
Co120 Co 0.78799 0.26166 0.23811 0.0
C121 C 0.74029 0.24579 0.20583 0.0
Co122 Co 0.76364 0.28919 0.24008 0.0
C123 C 0.8231 0.22997 0.27666 0.0
C124 C 0.80378 0.22009 0.17292 0.0
N125 N 0.80655 0.23691 0.22957 0.0
N126 N 0.83046 0.20936 0.25155 0.0
C127 C 0.81838 0.20324 0.18618 0.0
H128 H 0.82886 0.23929 0.32935 0.0
H129 H 0.79132 0.21968 0.12566 0.0
C130 C 0.81136 0.30506 0.27217 0.0
N131 N 0.74511 0.31393 0.24892 0.0
C132 C 0.72809 0.32071 0.20296 0.0
C133 C 0.74833 0.3309 0.30525 0.0
N134 N 0.7209 0.34135 0.22851 0.0
C135 C 0.73356 0.34767 0.29293 0.0
C136 C 0.77612 0.27345 0.3686 0.0
O137 O 0.81475 0.28363 0.263 0.0
O138 O 0.79065 0.31083 0.2647 0.0
O139 O 0.76416 0.28724 0.33675 0.0
O140 O 0.78832 0.26005 0.33475 0.0
O141 O 0.7369 0.26722 0.2152 0.0
H142 H 0.76118 0.33143 0.35166 0.0
H143 H 0.72184 0.31123 0.15077 0.0
O144 O 0.761 0.24001 0.21335 0.0
O145 O 0.78748 0.26362 0.14145 0.0
O146 O 0.76328 0.2908 0.14345 0.0
C147 C 0.77549 0.2774 0.1096 0.0
H148 H 0.81977 0.18749 0.15072 0.0
H149 H 0.73243 0.3635 0.32833 0.0
Co150 Co 0.79032 0.79344 0.72608 0.0
C151 C 0.74766 0.81072 0.72558 0.0
Co152 Co 0.76251 0.76632 0.6977 0.0
C153 C 0.83306 0.81552 0.71868 0.0
C154 C 0.81869 0.83252 0.8056 0.0
N155 N 0.81438 0.81526 0.7502 0.0
N156 N 0.84903 0.83206 0.75236 0.0
C157 C 0.84012 0.8429 0.80717 0.0
H158 H 0.83524 0.8032 0.67322 0.0
H159 H 0.80726 0.83686 0.84329 0.0
C160 C 0.80517 0.74899 0.69882 0.0
N161 N 0.73861 0.74432 0.67409 0.0
C162 C 0.72131 0.74233 0.71061 0.0
C163 C 0.73462 0.72666 0.61987 0.0
N164 N 0.70674 0.72398 0.68218 0.0
C165 C 0.71494 0.71408 0.62471 0.0
C166 C 0.77458 0.78307 0.58232 0.0
O167 O 0.81162 0.77014 0.71697 0.0
O168 O 0.78382 0.74313 0.68741 0.0
O169 O 0.761 0.76897 0.60152 0.0
O170 O 0.789 0.79587 0.6289 0.0
O171 O 0.7412 0.78953 0.70798 0.0
H172 H 0.74558 0.72292 0.58045 0.0
H173 H 0.71961 0.75406 0.75782 0.0
O174 O 0.76899 0.81665 0.73558 0.0
O175 O 0.79164 0.79102 0.82233 0.0
O176 O 0.76411 0.76371 0.79489 0.0
C177 C 0.7783 0.77672 0.84152 0.0
H178 H 0.84846 0.85725 0.8454 0.0
H179 H 0.7078 0.69837 0.59043 0.0
Co180 Co 0.50626 0.50943 0.00054 0.0
C181 C 0.48824 0.55165 0.0004 0.0
Co182 Co 0.53306 0.5376 0.0286 0.0
C183 C 0.48527 0.46695 0.0146 0.0
C184 C 0.46825 0.47884 0.92282 0.0
N185 N 0.48503 0.48478 0.97909 0.0
N186 N 0.46955 0.44996 0.98273 0.0
C187 C 0.45871 0.45726 0.92481 0.0
H188 H 0.49749 0.46603 0.06154 0.0
H189 H 0.46375 0.48919 0.88203 0.0
C190 C 0.55113 0.49537 0.02805 0.0
N191 N 0.55453 0.56201 0.04909 0.0
C192 C 0.55496 0.57915 0.01104 0.0
C193 C 0.57366 0.56606 0.09804 0.0
N194 N 0.57386 0.59354 0.03262 0.0
C195 C 0.58565 0.5855 0.08794 0.0
C196 C 0.51714 0.52591 0.1447 0.0
O197 O 0.53006 0.48865 0.01037 0.0
O198 O 0.55673 0.51679 0.0389 0.0
O199 O 0.53113 0.53956 0.12528 0.0
O200 O 0.50437 0.5114 0.09831 0.0
O201 O 0.50933 0.55835 0.01829 0.0
H202 H 0.57901 0.55506 0.13637 0.0
H203 H 0.54189 0.58051 0.96662 0.0
O204 O 0.48255 0.53022 -0.00977 0.0
O205 O 0.5082 0.50757 0.9038 0.0
O206 O 0.53503 0.53556 0.93087 0.0
C207 C 0.52223 0.52115 0.88441 0.0
H208 H 0.44499 0.44768 0.88675 0.0
H209 H 0.60234 0.59232 0.1164 0.0
Co210 Co 0.03945 0.51345 0.48615 0.0
C211 C 0.05533 0.56122 0.51836 0.0
Co212 Co 1.01199 0.53787 0.48395 0.0
C213 C 0.07158 0.47879 0.44772 0.0
C214 C 0.08069 0.49745 0.5526 0.0
N215 N 0.0642 0.49491 0.49513 0.0
N216 N 0.09215 0.4715 0.47346 0.0
C217 C 0.09777 0.48315 0.53955 0.0
H218 H 0.06266 0.47336 0.39438 0.0
H219 H 0.08077 0.50963 0.60028 0.0
C220 C 0.99613 0.49006 0.45192 0.0
N221 N 0.98731 0.55644 0.47486 0.0
C222 C 0.98051 0.5734 0.52092 0.0
C223 C 0.97041 0.5533 0.41838 0.0
N224 N 0.95992 0.58065 0.4953 0.0
C225 C 0.95365 0.56808 0.43072 0.0
C226 C 0.02774 0.52535 0.35558 0.0
O227 O 1.01753 0.48666 0.46116 0.0
O228 O 0.99037 0.51082 0.45933 0.0
O229 O 1.01397 0.53733 0.38731 0.0
O230 O 0.04112 0.51313 0.38954 0.0
O231 O 0.03394 0.56465 0.50883 0.0
H232 H 0.9699 0.54049 0.37188 0.0
H233 H 0.98993 0.57956 0.57325 0.0
O234 O 0.06106 0.54046 0.51101 0.0
O235 O 0.0374 0.51396 0.58275 0.0
O236 O 1.01034 0.53826 0.58057 0.0
C237 C 1.02366 0.52599 0.6145 0.0
H238 H 0.11336 0.48173 0.57559 0.0
H239 H 0.93786 0.56924 0.39525 0.0
C240 C 0.08661 0.15138 0.52881 0.0
C241 C 0.08114 0.12995 0.4854 0.0
C242 C 0.08908 0.17126 0.49892 0.0
C243 C 0.08272 0.19189 0.32369 0.0
H244 H 0.14067 0.22551 0.40618 0.0
C245 C 0.15636 0.20788 0.18247 0.0
C246 C 0.17091 0.22795 0.20429 0.0
C247 C 0.13663 0.2051 0.21226 0.0
C248 C 0.12408 0.21686 0.38316 0.0
H249 H 0.07378 0.11242 0.37728 0.0
H250 H 0.07887 0.14647 0.3254 0.0
H251 H 0.12168 0.20254 0.47594 0.0
H252 H 0.17436 0.26216 0.26687 0.0
H253 H 0.14062 0.25664 0.32165 0.0
H254 H 0.08691 0.20414 0.22793 0.0
C255 C 0.08037 0.14844 0.38222 0.0
C256 C 0.11311 0.20366 0.42331 0.0
C257 C 0.07771 0.12877 0.41197 0.0
C258 C 0.16407 0.24608 0.25106 0.0
C259 C 0.14455 0.24315 0.28163 0.0
C260 C 0.094 0.20469 0.28302 0.0
C261 C 0.08639 0.16994 0.42515 0.0
C262 C 0.09316 0.18974 0.39238 0.0
C263 C 0.13127 0.22226 0.2647 0.0
C264 C 0.11544 0.2161 0.31138 0.0
H265 H 0.08898 0.15271 0.58564 0.0
H266 H 0.09357 0.18756 0.53351 0.0
H267 H 0.0669 0.18201 0.29916 0.0
H268 H 0.161 0.19366 0.14637 0.0
H269 H 0.12675 0.1887 0.19888 0.0
C270 C 0.07978 0.96702 0.49744 0.0
C271 C 0.08567 0.9908 0.51442 0.0
C272 C 0.096 0.95114 0.51219 0.0
C273 C 0.13579 0.92019 0.52299 0.0
H274 H 0.17333 0.93293 0.70819 0.0
C275 C 0.20306 0.85864 0.62899 0.0
C276 C 0.20399 0.85625 0.70019 0.0
C277 C 0.18944 0.87492 0.60026 0.0
C278 C 0.16292 0.92906 0.65632 0.0
H279 H 0.11352 1.01649 0.55826 0.0
H280 H 0.14199 0.98867 0.58389 0.0
H281 H 0.14885 0.96199 0.66764 0.0
H282 H 0.19019 0.86794 0.79544 0.0
H283 H 0.16653 0.89603 0.74568 0.0
H284 H 0.14939 0.8869 0.51289 0.0
C285 C 0.12468 0.98237 0.55966 0.0
C286 C 0.14911 0.94587 0.63267 0.0
C287 C 0.10842 0.99831 0.54463 0.0
C288 C 0.19027 0.86972 0.74092 0.0
C289 C 0.17676 0.8859 0.71242 0.0
C290 C 0.1497 0.90336 0.54663 0.0
C291 C 0.11857 0.95858 0.54448 0.0
C292 C 0.13505 0.94153 0.56621 0.0
C293 C 0.17653 0.88909 0.64224 0.0
C294 C 0.16308 0.90744 0.61419 0.0
H295 H 0.06242 0.96057 0.4741 0.0
H296 H 0.09056 0.93301 0.50063 0.0
H297 H 0.12538 0.91637 0.47114 0.0
H298 H 0.21353 0.84862 0.59639 0.0
H299 H 0.18965 0.87696 0.54597 0.0
C300 C 0.35344 0.81865 0.79926 0.0
C301 C 0.33028 0.82418 0.79122 0.0
C302 C 0.37155 0.83601 0.81583 0.0
C303 C 0.3842 0.89937 0.81544 0.0
H304 H 0.44083 0.89101 0.93601 0.0
C305 C 0.45347 0.97546 0.92021 0.0
C306 C 0.47695 0.97112 0.93003 0.0
C307 C 0.43619 0.95738 0.90295 0.0
C308 C 0.4253 0.89367 0.90147 0.0
H309 H 0.30847 0.85285 0.79539 0.0
H310 H 0.33964 0.88276 0.82456 0.0
H311 H 0.41024 0.86035 0.90721 0.0
H312 H 0.50026 0.94373 0.92885 0.0
H313 H 0.47029 0.9123 0.89814 0.0
H314 H 0.39917 0.9326 0.80942 0.0
C315 C 0.344 0.86501 0.81705 0.0
C316 C 0.40758 0.87592 0.88482 0.0
C317 C 0.32595 0.8477 0.80067 0.0
C318 C 0.48247 0.94793 0.92195 0.0
C319 C 0.46514 0.92979 0.90467 0.0
C320 C 0.40188 0.91708 0.832 0.0
C321 C 0.36722 0.85959 0.82478 0.0
C322 C 0.38658 0.87843 0.84175 0.0
C323 C 0.44159 0.93412 0.89465 0.0
C324 C 0.42279 0.91471 0.87573 0.0
H325 H 0.35762 0.80083 0.7924 0.0
H326 H 0.38902 0.83087 0.82039 0.0
H327 H 0.36869 0.90207 0.78089 0.0
H328 H 0.44833 0.99297 0.92615 0.0
H329 H 0.41847 0.96177 0.89719 0.0
C330 C 0.43233 0.11206 0.97809 0.0
C331 C 0.44577 0.09855 0.01977 0.0
C332 C 0.41649 0.12611 0.00618 0.0
C333 C 0.4001 0.15506 0.17125 0.0
H334 H 0.34114 0.15554 0.05183 0.0
C335 C 0.33714 0.22584 0.21865 0.0
C336 C 0.31338 0.21996 0.20354 0.0
C337 C 0.35286 0.20947 0.2038 0.0
C338 C 0.35737 0.1554 0.08635 0.0
H339 H 0.45372 0.08994 0.12477 0.0
H340 H 0.42599 0.11476 0.17446 0.0
H341 H 0.36973 0.13034 0.01193 0.0
H342 H 0.28755 0.19198 0.16268 0.0
H343 H 0.31509 0.16326 0.13689 0.0
H344 H 0.38767 0.18021 0.24565 0.0
C345 C 0.42778 0.11439 0.11973 0.0
C346 C 0.3739 0.14117 0.06306 0.0
C347 C 0.44371 0.10023 0.09141 0.0
C348 C 0.30573 0.19709 0.17486 0.0
C349 C 0.32151 0.18068 0.15974 0.0
C350 C 0.38355 0.16939 0.19452 0.0
C351 C 0.41363 0.1271 0.0769 0.0
C352 C 0.39561 0.1411 0.10461 0.0
C353 C 0.34527 0.18675 0.17326 0.0
C354 C 0.3621 0.16999 0.15187 0.0
H355 H 0.43387 0.11158 0.92317 0.0
H356 H 0.40637 0.13616 0.9722 0.0
H357 H 0.41665 0.15545 0.20451 0.0
H358 H 0.34369 0.24329 0.24071 0.0
H359 H 0.37096 0.21487 0.21402 0.0
C360 C 0.96904 0.9189 0.46172 0.0
C361 C 0.98472 0.93696 0.49792 0.0
C362 C 0.96335 0.90064 0.4951 0.0
C363 C 0.95729 0.89351 0.67175 0.0
H364 H 0.93459 0.83185 0.58164 0.0
C365 C 0.88992 0.84556 0.78414 0.0
C366 C 0.87092 0.83689 0.73277 0.0
C367 C 0.91084 0.85129 0.76417 0.0
C368 C 0.94101 0.84897 0.60778 0.0
H369 H 1.00823 0.94862 0.59623 0.0
H370 H 0.9986 0.91676 0.65291 0.0
H371 H 0.9602 0.85412 0.52595 0.0
H372 H 0.85897 0.82673 0.62072 0.0
H373 H 0.89499 0.83736 0.58564 0.0
H374 H 0.93684 0.88935 0.75038 0.0
C375 C 0.99044 0.91697 0.59916 0.0
C376 C 0.95567 0.86164 0.57598 0.0
C377 C 0.996 0.93527 0.56613 0.0
C378 C 0.8734 0.83321 0.66143 0.0
C379 C 0.89417 0.83912 0.64143 0.0
C380 C 0.94253 0.88096 0.70314 0.0
C381 C 0.97334 0.90004 0.56518 0.0
C382 C 0.96305 0.88442 0.6061 0.0
C383 C 0.913 0.8487 0.69241 0.0
C384 C 0.93329 0.85901 0.66964 0.0
H385 H 0.96045 0.91927 0.40864 0.0
H386 H 0.95 0.88787 0.4676 0.0
H387 H 0.96251 0.91111 0.69603 0.0
H388 H 0.88853 0.84809 0.8396 0.0
H389 H 0.92512 0.85837 0.80475 0.0
C390 C 0.98744 0.09888 0.48562 0.0
C391 C 0.98228 0.07502 0.46693 0.0
C392 C 0.97065 0.11434 0.47196 0.0
C393 C 0.9075 0.1183 0.42428 0.0
H394 H 0.92587 0.17344 0.35561 0.0
C395 C 0.84336 0.17151 0.27358 0.0
C396 C 0.84656 0.19563 0.28742 0.0
C397 C 0.8595 0.15791 0.30442 0.0
C398 C 0.92051 0.15831 0.37575 0.0
H399 H 0.95527 0.04873 0.42001 0.0
H400 H 0.92607 0.07568 0.39471 0.0
H401 H 0.9547 0.14735 0.39136 0.0
H402 H 0.86898 0.2244 0.34573 0.0
H403 H 0.89754 0.20052 0.39969 0.0
H404 H 0.87317 0.12901 0.40635 0.0
C405 C 0.943 0.08248 0.42123 0.0
C406 C 0.93705 0.14331 0.39635 0.0
C407 C 0.95979 0.06699 0.43541 0.0
C408 C 0.86607 0.20587 0.33431 0.0
C409 C 0.88245 0.19221 0.36468 0.0
C410 C 0.89095 0.13322 0.40319 0.0
C411 C 0.94827 0.10639 0.43868 0.0
C412 C 0.93075 0.12295 0.42021 0.0
C413 C 0.8794 0.16805 0.3496 0.0
C414 C 0.89722 0.15327 0.37792 0.0
H415 H 1.00457 0.10568 0.5104 0.0
H416 H 0.97528 0.13256 0.48742 0.0
H417 H 0.90203 0.10307 0.44366 0.0
H418 H 0.82835 0.16311 0.23846 0.0
H419 H 0.85671 0.13939 0.29118 0.0
C420 C 0.69747 0.23312 0.17775 0.0
C421 C 0.72061 0.22752 0.18658 0.0
C422 C 0.6793 0.2158 0.16002 0.0
C423 C 0.66629 0.15226 0.15751 0.0
H424 H 0.6101 0.16123 0.03586 0.0
C425 C 0.59704 0.07645 0.04738 0.0
C426 C 0.57357 0.08081 0.03705 0.0
C427 C 0.61435 0.09451 0.06587 0.0
C428 C 0.6255 0.15839 0.07066 0.0
H429 H 0.74231 0.19876 0.18259 0.0
H430 H 0.71107 0.16896 0.15144 0.0
H431 H 0.64075 0.19183 0.06702 0.0
H432 H 0.55031 0.10824 0.0386 0.0
H433 H 0.58031 0.13963 0.07136 0.0
H434 H 0.65115 0.11891 0.16139 0.0
C435 C 0.70675 0.18672 0.15923 0.0
C436 C 0.64326 0.17611 0.0887 0.0
C437 C 0.72485 0.20398 0.17679 0.0
C438 C 0.56809 0.10402 0.04583 0.0
C439 C 0.58545 0.12214 0.06432 0.0
C440 C 0.64858 0.13458 0.13954 0.0
C441 C 0.68355 0.19219 0.15063 0.0
C442 C 0.66412 0.17339 0.13221 0.0
C443 C 0.60898 0.11778 0.07495 0.0
C444 C 0.62782 0.13716 0.09536 0.0
H445 H 0.69334 0.25095 0.18478 0.0
H446 H 0.66185 0.22101 0.15483 0.0
H447 H 0.68167 0.14938 0.19234 0.0
H448 H 0.60216 0.05893 0.04099 0.0
H449 H 0.63206 0.09009 0.07203 0.0
C450 C 0.73766 0.85121 0.7637 0.0
C451 C 0.73058 0.82799 0.73838 0.0
C452 C 0.72169 0.86707 0.78145 0.0
C453 C 0.65929 0.87648 0.761 0.0
H454 H 0.67702 0.91765 0.93866 0.0
C455 C 0.60283 0.94838 0.86983 0.0
C456 C 0.60249 0.95141 0.94282 0.0
C457 C 0.61759 0.9332 0.83958 0.0
C458 C 0.67174 0.90621 0.88905 0.0
H459 H 0.701 0.80342 0.70966 0.0
H460 H 0.67326 0.83102 0.74101 0.0
H461 H 0.70454 0.89202 0.89427 0.0
H462 H 0.61624 0.93967 0.04017 0.0
H463 H 0.64178 0.91338 -0.01217 0.0
H464 H 0.62622 0.89045 0.75697 0.0
C465 C 0.69111 0.83704 0.74662 0.0
C466 C 0.68764 0.8917 0.86311 0.0
C467 C 0.70707 0.82117 0.72901 0.0
C468 C 0.61647 0.93819 0.98414 0.0
C469 C 0.63115 0.92312 0.95411 0.0
C470 C 0.64336 0.89112 0.78689 0.0
C471 C 0.69826 0.86011 0.7742 0.0
C472 C 0.68158 0.87649 0.7991 0.0
C473 C 0.63229 0.92078 0.88178 0.0
C474 C 0.64932 0.90594 0.85175 0.0
H475 H 0.75561 0.85708 0.77132 0.0
H476 H 0.72775 0.88478 0.80158 0.0
H477 H 0.65412 0.86512 0.71119 0.0
H478 H 0.59238 0.95839 0.8366 0.0
H479 H 0.61808 0.93182 0.78368 0.0
C480 C 0.59776 0.62881 0.03134 0.0
C481 C 0.58146 0.61116 -0.00375 0.0
C482 C 0.60664 0.64455 -0.00599 0.0
C483 C 0.61799 0.64705 0.8168 0.0
H484 H 0.6334 0.71179 0.8878 0.0
C485 C 0.6888 0.71945 0.78567 0.0
C486 C 0.68808 0.71539 0.71225 0.0
C487 C 0.67165 0.70978 0.81576 0.0
C488 C 0.62917 0.69373 0.86734 0.0
H489 H 0.56128 0.5967 0.89442 0.0
H490 H 0.57633 0.62432 0.83049 0.0
H491 H 0.61089 0.68912 0.95163 0.0
H492 H 0.66832 0.69899 0.61253 0.0
H493 H 0.63812 0.68202 0.66525 0.0
H494 H 0.63698 0.65124 0.73439 0.0
C495 C 0.58238 0.62587 0.88663 0.0
C496 C 0.61633 0.68081 0.90386 0.0
C497 C 0.57357 0.61017 0.9237 0.0
C498 C 0.66944 0.7021 0.6693 0.0
C499 C 0.65218 0.69246 0.69946 0.0
C500 C 0.63087 0.65991 0.78055 0.0
C501 C 0.59939 0.64285 0.92098 0.0
C502 C 0.61098 0.65726 0.87949 0.0
C503 C 0.65337 0.69587 0.77312 0.0
C504 C 0.63699 0.68327 0.80619 0.0
H505 H 0.60396 0.63018 0.08725 0.0
H506 H 0.61989 0.65742 0.02171 0.0
H507 H 0.61442 0.62884 0.79738 0.0
H508 H 0.70313 0.72928 0.82035 0.0
H509 H 0.67333 0.71235 0.87272 0.0
C510 C 0.70798 0.37907 0.20579 0.0
C511 C 0.70441 0.355 0.19391 0.0
C512 C 0.69145 0.39269 0.17702 0.0
C513 C 0.62977 0.39318 0.11815 0.0
H514 H 0.64707 0.44736 0.04292 0.0
C515 C 0.56249 0.45466 0.02071 0.0
C516 C 0.56871 0.47837 0.03752 0.0
C517 C 0.57885 0.43855 0.03174 0.0
C518 C 0.64195 0.43244 0.0644 0.0
H519 H 0.68095 0.32626 0.14122 0.0
H520 H 0.65167 0.35021 0.09095 0.0
H521 H 0.67598 0.4208 0.07455 0.0
H522 H 0.59707 0.50371 0.07893 0.0
H523 H 0.62549 0.4757 0.0995 0.0
H524 H 0.59591 0.40513 0.11024 0.0
C525 C 0.66736 0.35847 0.12275 0.0
C526 C 0.65851 0.41715 0.08219 0.0
C527 C 0.68413 0.34477 0.15097 0.0
C528 C 0.59172 0.48559 0.06504 0.0
C529 C 0.60806 0.46948 0.07642 0.0
C530 C 0.61321 0.40856 0.10079 0.0
C531 C 0.6708 0.38262 0.13598 0.0
C532 C 0.6527 0.39752 0.11025 0.0
C533 C 0.60183 0.44572 0.06021 0.0
C534 C 0.61914 0.42859 0.07461 0.0
H535 H 0.72356 0.38743 0.23795 0.0
H536 H 0.69458 0.41121 0.18879 0.0
H537 H 0.6248 0.37837 0.14045 0.0
H538 H 0.54492 0.44848 -0.00084 0.0
H539 H 0.57345 0.42045 0.01762 0.0
C540 C 0.95437 0.47464 0.42365 0.0
C541 C 0.97787 0.47036 0.43324 0.0
C542 C 0.93711 0.45652 0.40691 0.0
C543 C 0.92633 0.3928 0.33867 0.0
H544 H 0.86949 0.40118 0.41242 0.0
C545 C 0.85418 0.31777 0.29962 0.0
C546 C 0.83104 0.32334 0.29111 0.0
C547 C 0.87235 0.3351 0.31723 0.0
C548 C 0.88506 0.39847 0.39028 0.0
H549 H 1.00122 0.44302 0.43192 0.0
H550 H 0.97128 0.41151 0.40337 0.0
H551 H 0.89996 0.4317 0.44172 0.0
H552 H 0.80932 0.35208 0.29457 0.0
H553 H 0.84052 0.38192 0.32407 0.0
H554 H 0.91132 0.3595 0.2872 0.0
C555 C 0.96611 0.42899 0.40808 0.0
C556 C 0.90274 0.41618 0.40729 0.0
C557 C 0.98342 0.44718 0.42499 0.0
C558 C 0.82678 0.34688 0.3008 0.0
C559 C 0.84487 0.36416 0.3184 0.0
C560 C 0.90859 0.37504 0.32158 0.0
C561 C 0.94254 0.43327 0.39897 0.0
C562 C 0.92374 0.41384 0.38157 0.0
C563 C 0.86808 0.35871 0.32721 0.0
C564 C 0.88749 0.37753 0.34668 0.0
H565 H 0.94918 0.49213 0.42902 0.0
H566 H 0.91938 0.46087 0.39927 0.0
H567 H 0.94194 0.39015 0.31672 0.0
H568 H 0.85833 0.29994 0.29285 0.0
H569 H 0.88979 0.3299 0.32409 0.0
C570 C 0.81535 0.70854 0.66135 0.0
C571 C 0.82234 0.7316 0.68932 0.0
C572 C 0.83159 0.69237 0.64987 0.0
C573 C 0.89245 0.68787 0.62584 0.0
H574 H 0.88065 0.62474 0.65048 0.0
C575 C 0.95643 0.61726 0.5736 0.0
C576 C 0.94625 0.59704 0.53009 0.0
C577 C 0.94272 0.63392 0.60227 0.0
C578 C 0.88418 0.64231 0.6433 0.0
H579 H 0.85196 0.75566 0.72835 0.0
H580 H 0.88025 0.7274 0.70969 0.0
H581 H 0.85399 0.65342 0.68292 0.0
H582 H 0.91391 0.57787 0.48543 0.0
H583 H 0.89011 0.60666 0.53538 0.0
H584 H 0.92262 0.6766 0.58581 0.0
C585 C 0.86221 0.72185 0.69533 0.0
C586 C 0.86884 0.65875 0.66156 0.0
C587 C 0.84597 0.73804 0.70647 0.0
C588 C 0.92222 0.59342 0.51802 0.0
C589 C 0.90859 0.60982 0.54725 0.0
C590 C 0.90789 0.67143 0.60802 0.0
C591 C 0.85526 0.69881 0.66643 0.0
C592 C 0.87252 0.68167 0.65186 0.0
C593 C 0.91862 0.63041 0.58893 0.0
C594 C 0.9037 0.64838 0.6153 0.0
H595 H 0.79729 0.70302 0.64718 0.0
H596 H 0.82554 0.6749 0.62644 0.0
H597 H 0.89575 0.70527 0.61681 0.0
H598 H 0.9749 0.62048 0.5835 0.0
H599 H 0.95093 0.64957 0.63454 0.0
C600 C 0.38532 0.33866 0.28054 0.0
C601 C 0.37091 0.31878 0.25261 0.0
C602 C 0.40484 0.3433 0.25172 0.0
C603 C 0.41799 0.33859 0.08106 0.0
H604 H 0.47543 0.37079 0.17654 0.0
C605 C 0.45954 0.40815 0.95844 0.0
C606 C 0.46575 0.42853 0.0066 0.0
C607 C 0.45566 0.38744 0.98264 0.0
C608 C 0.45951 0.36173 0.14886 0.0
H609 H 0.36761 0.28673 0.17839 0.0
H610 H 0.40092 0.29567 0.12567 0.0
H611 H 0.45449 0.34586 0.23783 0.0
H612 H 0.47305 0.44337 0.11724 0.0
H613 H 0.46542 0.40783 0.15951 0.0
H614 H 0.42135 0.35629 -0.00463 0.0
C615 C 0.39699 0.30753 0.16988 0.0
C616 C 0.44772 0.34733 0.18377 0.0
C617 C 0.37768 0.30268 0.19949 0.0
C618 C 0.4685 0.42783 0.07908 0.0
C619 C 0.46437 0.40732 0.10323 0.0
C620 C 0.42952 0.35334 0.04671 0.0
C621 C 0.4102 0.32828 0.19406 0.0
C622 C 0.42625 0.33669 0.15142 0.0
C623 C 0.45762 0.38689 0.05542 0.0
C624 C 0.44966 0.3662 0.082 0.0
H625 H 0.38086 0.35142 0.3215 0.0
H626 H 0.41466 0.35959 0.27077 0.0
H627 H 0.40138 0.33062 0.05514 0.0
H628 H 0.45773 0.40826 0.90225 0.0
H629 H 0.4507 0.37199 0.94439 0.0
C630 C 0.47754 0.59224 -0.00232 0.0
C631 C 0.47087 0.56863 -0.01261 0.0
C632 C 0.46169 0.60818 0.97983 0.0
C633 C 0.40753 0.61179 0.86132 0.0
H634 H 0.40856 0.67313 0.96827 0.0
C635 C 0.3623 0.68371 0.73961 0.0
C636 C 0.34907 0.69781 0.7804 0.0
C637 C 0.377 0.66876 0.77 0.0
C638 C 0.40794 0.65601 0.93811 0.0
H639 H 0.44203 0.54341 0.95245 0.0
H640 H 0.41431 0.57128 0.92172 0.0
H641 H 0.43348 0.64498 0.01464 0.0
H642 H 0.34164 0.70783 0.88607 0.0
H643 H 0.36754 0.68166 0.93963 0.0
H644 H 0.38204 0.62269 0.78491 0.0
C645 C 0.43192 0.57741 0.94283 0.0
C646 C 0.42235 0.63994 0.96436 0.0
C647 C 0.44778 0.56144 0.96085 0.0
C648 C 0.35167 0.6973 0.85326 0.0
C649 C 0.36647 0.68227 0.88386 0.0
C650 C 0.39324 0.62784 0.83504 0.0
C651 C 0.43876 0.60094 0.95106 0.0
C652 C 0.42246 0.61768 0.92594 0.0
C653 C 0.37893 0.66747 0.84217 0.0
C654 C 0.39345 0.65024 0.8726 0.0
H655 H 0.4952 0.5984 0.01796 0.0
H656 H 0.46764 0.62611 0.98618 0.0
H657 H 0.40731 0.59493 0.82991 0.0
H658 H 0.36114 0.68406 0.68372 0.0
H659 H 0.38679 0.65807 0.73669 0.0
C660 C 0.22483 0.70413 0.67567 0.0
C661 C 0.22056 0.72766 0.68554 0.0
C662 C 0.20673 0.68685 0.65822 0.0
C663 C 0.1432 0.67622 0.58828 0.0
H664 H 0.1512 0.61907 0.66121 0.0
C665 C 0.06809 0.60408 0.5465 0.0
C666 C 0.07361 0.58089 0.53775 0.0
C667 C 0.08543 0.62223 0.56473 0.0
C668 C 0.1486 0.63473 0.63929 0.0
H669 H 0.19327 0.75107 0.68399 0.0
H670 H 0.16181 0.72111 0.65423 0.0
H671 H 0.18173 0.64953 0.69171 0.0
H672 H 0.10225 0.55906 0.54141 0.0
H673 H 0.13209 0.59025 0.57196 0.0
H674 H 0.11001 0.66133 0.53584 0.0
C675 C 0.17926 0.71591 0.65925 0.0
C676 C 0.16632 0.6524 0.657 0.0
C677 C 0.19742 0.73324 0.67687 0.0
C678 C 0.09709 0.57657 0.5478 0.0
C679 C 0.11437 0.59464 0.56601 0.0
C680 C 0.12545 0.6585 0.5705 0.0
C681 C 0.18353 0.69232 0.64981 0.0
C682 C 0.16411 0.67351 0.63161 0.0
C683 C 0.10898 0.6179 0.57511 0.0
C684 C 0.1278 0.63729 0.59529 0.0
H685 H 0.24229 0.69894 0.68136 0.0
H686 H 0.21107 0.6691 0.65039 0.0
H687 H 0.14066 0.69192 0.56656 0.0
H688 H 0.0503 0.60827 0.53948 0.0
H689 H 0.08027 0.63972 0.57178 0.0
C690 C 0.20583 0.31818 0.23575 0.0
C691 C 0.22959 0.32349 0.25598 0.0
C692 C 0.19018 0.3347 0.24992 0.0
C693 C 0.18543 0.39759 0.30227 0.0
H694 H 0.13 0.37746 0.36568 0.0
C695 C 0.13037 0.45956 0.45296 0.0
C696 C 0.10633 0.45597 0.43752 0.0
C697 C 0.1444 0.44393 0.42203 0.0
C698 C 0.14521 0.38331 0.34701 0.0
H699 H 0.25551 0.35049 0.30616 0.0
H700 H 0.22819 0.37925 0.33233 0.0
H701 H 0.15668 0.34933 0.32971 0.0
H702 H 0.07815 0.43341 0.37622 0.0
H703 H 0.10278 0.40574 0.32208 0.0
H704 H 0.17418 0.43171 0.32188 0.0
C705 C 0.22164 0.3624 0.30424 0.0
C706 C 0.16055 0.36718 0.3263 0.0
C707 C 0.23734 0.34588 0.28955 0.0
C708 C 0.0966 0.43661 0.38892 0.0
C709 C 0.1107 0.42074 0.35844 0.0
C710 C 0.17015 0.41374 0.32347 0.0
C711 C 0.19782 0.35695 0.28527 0.0
C712 C 0.181 0.3741 0.30426 0.0
C713 C 0.13478 0.42416 0.37516 0.0
C714 C 0.14999 0.40682 0.3468 0.0
H715 H 0.19923 0.30113 0.20939 0.0
H716 H 0.17204 0.32996 0.23323 0.0
H717 H 0.20073 0.40354 0.28436 0.0
H718 H 0.13837 0.47449 0.48941 0.0
H719 H 0.16284 0.447 0.43654 0.0
C720 C 0.04523 0.05188 0.74792 0.0
C721 C 0.0317 0.03525 0.69693 0.0
C722 C 0.04557 0.05152 0.81965 0.0
C723 C 1.01311 0.02926 0.94514 0.0
H724 H 0.07161 0.03959 0.07076 0.0
C725 C 1.02294 1.01431 0.23369 0.0
C726 C 0.03655 0.03086 0.2847 0.0
C727 C 1.02259 1.01469 0.16197 0.0
C728 C 0.05512 0.03692 0.03649 0.0
H729 H 1.00777 1.0053 0.6812 0.0
H730 H 1.00849 1.00462 0.80655 0.0
H731 H 0.07014 0.04083 0.94544 0.0
H732 H 0.06062 0.0607 0.30048 0.0
H733 H 0.05988 0.06144 0.17516 0.0
H734 H 0.99808 1.02536 0.03619 0.0
C735 C 1.01864 1.01808 0.79099 0.0
C736 C 0.05427 0.03764 0.96473 0.0
C737 C 1.0183 1.01842 0.71919 0.0
C738 C 0.05003 0.04764 0.26248 0.0
C739 C 0.04968 0.04801 0.19068 0.0
C740 C 1.01395 0.02855 0.01691 0.0
C741 C 0.0324 0.03453 0.842 0.0
C742 C 0.03325 0.03383 0.91826 0.0
C743 C 0.03583 0.03163 0.13965 0.0
C744 C 0.03497 0.03235 0.06338 0.0
H745 H 0.05571 0.06512 0.73251 0.0
H746 H 0.05608 0.06463 0.85766 0.0
H747 H 0.99661 0.02658 0.91086 0.0
H748 H 1.0124 1.00112 0.24908 0.0
H749 H 1.01201 1.00163 0.12395 0.0
C750 C 0.26154 0.79304 0.49661 0.0
C751 C 0.27525 0.77859 0.53389 0.0
C752 C 0.26158 0.79252 0.4245 0.0
C753 C 0.27528 0.7555 0.26729 0.0
H754 H 0.27608 0.81218 0.18969 0.0
C755 C 0.28945 0.75873 0.98122 0.0
C756 C 0.27567 0.77312 0.94389 0.0
C757 C 0.2894 0.75923 0.05331 0.0
C758 C 0.27562 0.79618 0.21045 0.0
H759 H 0.29997 0.75249 0.52495 0.0
H760 H 0.3002 0.75183 0.39987 0.0
H761 H 0.27575 0.81363 0.31548 0.0
H762 H 0.25082 0.79909 0.95274 0.0
H763 H 0.25059 0.79974 0.07783 0.0
H764 H 0.27517 0.73806 0.16226 0.0
C765 C 0.28915 0.76328 0.42591 0.0
C766 C 0.27541 0.79702 0.28248 0.0
C767 C 0.28911 0.76379 0.49778 0.0
C768 C 0.26173 0.78784 0.97995 0.0
C769 C 0.26169 0.78834 0.05181 0.0
C770 C 0.27551 0.75466 0.19526 0.0
C771 C 0.27532 0.77755 0.38835 0.0
C772 C 0.27525 0.77669 0.3117 0.0
C773 C 0.27559 0.77414 0.08941 0.0
C774 C 0.27566 0.77499 0.16605 0.0
H775 H 0.25063 0.80459 0.52291 0.0
H776 H 0.25057 0.80358 0.39682 0.0
H777 H 0.27482 0.7395 0.28804 0.0
H778 H 0.30042 0.74724 0.95495 0.0
H779 H 0.30046 0.74822 0.08103 0.0
C780 C 0.51355 0.03987 0.74193 0.0
C781 C 0.52817 1.02582 0.77806 0.0
C782 C 0.51315 0.03999 0.67014 0.0
C783 C 0.52671 1.00528 0.50971 0.0
H784 H 0.52309 0.06283 0.43664 0.0
C785 C 0.53704 1.01208 0.22398 0.0
C786 C 0.52237 0.02608 0.18782 0.0
C787 C 0.53743 1.01195 0.29577 0.0
C788 C 0.52381 0.0466 0.45612 0.0
H789 H 0.55395 1.00098 0.7672 0.0
H790 H 0.55337 1.00133 0.64146 0.0
H791 H 0.52518 0.06297 0.56289 0.0
H792 H 0.49649 0.05082 0.1986 0.0
H793 H 0.49707 0.05045 0.32434 0.0
H794 H 0.52535 0.98891 0.40294 0.0
C795 C 0.54205 1.01207 0.66878 0.0
C796 C 0.52506 0.04667 0.52844 0.0
C797 C 0.54249 1.01197 0.74083 0.0
C798 C 0.50799 0.03987 0.225 0.0
C799 C 0.50842 0.03976 0.29704 0.0
C800 C 0.52547 1.0052 0.4374 0.0
C801 C 0.52734 0.02606 0.63267 0.0
C802 C 0.52651 1.02601 0.55602 0.0
C803 C 0.52319 1.02582 0.33318 0.0
C804 C 0.52402 1.02586 0.40982 0.0
H805 H 0.50224 0.05071 0.76895 0.0
H806 H 0.50139 0.05071 0.64369 0.0
H807 H 0.52743 0.98904 0.52919 0.0
H808 H 0.5484 1.00129 0.197 0.0
H809 H 0.54923 1.00127 0.32225 0.0
C810 C 0.28731 0.28872 0.00197 0.0
C811 C 0.27025 0.27587 0.025 0.0
C812 C 0.28745 0.28815 0.92986 0.0
C813 C 0.25053 0.2737 0.75511 0.0
H814 H 0.3084 0.26767 0.68574 0.0
C815 C 0.25535 0.25459 0.45747 0.0
C816 C 0.27246 0.26739 0.43447 0.0
C817 C 0.25519 0.25516 0.52957 0.0
C818 C 0.29213 0.26956 0.70435 0.0
H819 H 0.23976 0.25263 -0.00958 0.0
H820 H 0.24012 0.25157 0.86524 0.0
H821 H 0.30774 0.27074 0.81185 0.0
H822 H 0.30299 0.29056 0.4691 0.0
H823 H 0.30259 0.29163 0.59426 0.0
H824 H 0.23492 0.27253 0.64761 0.0
C825 C 0.25326 0.26226 0.90266 0.0
C826 C 0.29176 0.27138 0.77662 0.0
C827 C 0.25314 0.26278 0.97452 0.0
C828 C 0.28958 0.28044 0.48497 0.0
C829 C 0.28944 0.28097 0.55683 0.0
C830 C 0.25089 0.27188 0.68284 0.0
C831 C 0.27049 0.27479 0.87943 0.0
C832 C 0.27096 0.27346 0.80282 0.0
C833 C 0.27217 0.26848 0.58002 0.0
C834 C 0.2717 0.26981 0.65664 0.0
H835 H 0.30073 0.29896 0.03955 0.0
H836 H 0.30081 0.2982 0.91358 0.0
H837 H 0.23426 0.27558 0.77372 0.0
H838 H 0.24192 0.24437 0.41986 0.0
H839 H 0.2418 0.24513 0.54581 0.0
C840 C 0.76223 0.29222 -0.00297 0.0
C841 C 0.77567 0.27745 0.03377 0.0
C842 C 0.76225 0.29184 0.92501 0.0
C843 C 0.77513 0.25493 0.76663 0.0
H844 H 0.77724 0.31199 0.69143 0.0
C845 C 0.78934 0.25861 0.48117 0.0
C846 C 0.77592 0.2734 0.44442 0.0
C847 C 0.7893 0.25898 0.55317 0.0
C848 C 0.77641 0.2959 0.71152 0.0
H849 H 0.7998 0.25082 0.02391 0.0
H850 H 0.79998 0.25036 0.89878 0.0
H851 H 0.777 0.31305 0.81711 0.0
H852 H 0.75181 0.30004 0.45425 0.0
H853 H 0.75159 0.30048 0.57935 0.0
H854 H 0.77454 0.23777 0.66104 0.0
C855 C 0.78919 0.262 0.92529 0.0
C856 C 0.77625 0.29652 0.78348 0.0
C857 C 0.78919 0.26239 -0.00286 0.0
C858 C 0.7624 0.28846 0.48102 0.0
C859 C 0.76238 0.28884 0.55287 0.0
C860 C 0.77529 0.25431 0.69468 0.0
C861 C 0.77568 0.27666 0.88835 0.0
C862 C 0.77562 0.27604 0.81182 0.0
C863 C 0.77587 0.27417 0.58981 0.0
C864 C 0.77591 0.27479 0.66633 0.0
H865 H 0.75159 0.30398 0.02373 0.0
H866 H 0.75148 0.30318 0.8978 0.0
H867 H 0.77429 0.23883 0.78673 0.0
H868 H 0.79999 0.24685 0.45448 0.0
H869 H 0.80006 0.24763 0.58039 0.0
C870 C 0.7582 0.76934 0.45559 0.0
C871 C 0.7742 0.78369 0.50644 0.0
C872 C 0.75852 0.76887 0.38379 0.0
C873 C 0.79679 0.78136 0.26008 0.0
H874 H 0.74005 0.77778 0.1274 0.0
C875 C 0.79461 0.79053 0.96822 0.0
C876 C 0.77867 0.77611 0.91738 0.0
C877 C 0.79427 0.79102 0.04001 0.0
C878 C 0.75603 0.77848 0.16368 0.0
H879 H 0.80288 0.80911 0.52174 0.0
H880 H 0.80327 0.80845 0.39611 0.0
H881 H 0.73874 0.78046 0.25304 0.0
H882 H 0.75007 0.75059 0.90205 0.0
H883 H 0.74964 0.75129 0.02769 0.0
H884 H 0.81409 0.77939 0.17072 0.0
C885 C 0.79065 0.79735 0.41194 0.0
C886 C 0.75529 0.78007 0.23568 0.0
C887 C 0.79032 0.79785 0.48388 0.0
C888 C 0.76259 0.7619 0.93992 0.0
C889 C 0.76223 0.76242 0.01186 0.0
C890 C 0.79754 0.77978 0.18809 0.0
C891 C 0.77486 0.78273 0.36111 0.0
C892 C 0.77566 0.78152 0.28471 0.0
C893 C 0.77797 0.77711 0.06268 0.0
C894 C 0.77717 0.77832 0.13907 0.0
H895 H 0.74559 0.75816 0.47115 0.0
H896 H 0.74629 0.75721 0.34606 0.0
H897 H 0.81278 0.78206 0.29636 0.0
H898 H 0.80719 0.80175 0.95265 0.0
H899 H 0.80645 0.80272 0.07775 0.0
C900 C 0.50846 0.50498 0.75748 0.0
C901 C 0.52284 0.52086 0.80862 0.0
C902 C 0.50809 0.50544 0.68578 0.0
C903 C 0.52109 0.54397 0.563 0.0
H904 H 0.51771 0.4873 0.42992 0.0
C905 C 0.53091 0.54217 0.27161 0.0
C906 C 0.51654 0.52625 0.22056 0.0
C907 C 0.5313 0.54176 0.34336 0.0
C908 C 0.51836 0.50327 0.46631 0.0
H909 H 0.54837 0.54949 0.82459 0.0
H910 H 0.54788 0.55012 0.69925 0.0
H911 H 0.51992 0.48578 0.55531 0.0
H912 H 0.49102 0.49763 0.20482 0.0
H913 H 0.49153 0.4971 0.3302 0.0
H914 H 0.51953 0.56146 0.47398 0.0
C915 C 0.53669 0.53749 0.71471 0.0
C916 C 0.51967 0.5024 0.53815 0.0
C917 C 0.53709 0.53702 0.78649 0.0
C918 C 0.5023 0.51012 0.24283 0.0
C919 C 0.50271 0.50971 0.31465 0.0
C920 C 0.51978 0.54484 0.49114 0.0
C921 C 0.52206 0.52181 0.66356 0.0
C922 C 0.52104 0.52273 0.58731 0.0
C923 C 0.51734 0.52541 0.3657 0.0
C924 C 0.5184 0.5245 0.44198 0.0
H925 H 0.49722 0.49236 0.77277 0.0
H926 H 0.49644 0.49329 0.64775 0.0
H927 H 0.52174 0.55993 0.59939 0.0
H928 H 0.54215 0.55478 0.25623 0.0
H929 H 0.54295 0.55393 0.38132 0.0
C930 C 1.00889 0.53929 0.72701 0.0
C931 C 1.0236 0.52579 0.69032 0.0
C932 C 1.00927 0.53925 0.79903 0.0
C933 C 0.04612 0.52626 0.95745 0.0
H934 H 0.98918 0.52428 0.03271 0.0
C935 C 0.04252 0.51207 0.24306 0.0
C936 C 0.02779 0.52555 0.27975 0.0
C937 C 0.04212 0.5121 0.17104 0.0
C938 C 1.00524 0.52508 0.0126 0.0
H939 H 0.0501 0.50153 0.70026 0.0
H940 H 0.05056 0.50133 0.82537 0.0
H941 H 0.98808 0.52454 0.907 0.0
H942 H 1.00123 0.54975 0.2698 0.0
H943 H 1.00076 0.54995 0.14468 0.0
H944 H 0.06328 0.5268 0.06305 0.0
C945 C 0.03897 0.51217 0.79883 0.0
C946 C 1.0046 0.52524 0.94063 0.0
C947 C 0.03859 0.51219 0.72698 0.0
C948 C 1.01277 0.53911 0.24308 0.0
C949 C 1.01237 0.53913 0.17122 0.0
C950 C 0.04676 0.5261 0.02942 0.0
C951 C 1.02439 0.52576 0.83573 0.0
C952 C 1.02503 0.52581 0.91227 0.0
C953 C 0.02697 0.52557 0.13433 0.0
C954 C 0.02633 0.52552 0.05778 0.0
H955 H 0.99719 0.55 0.70027 0.0
H956 H 0.99798 0.55008 0.82621 0.0
H957 H 0.06217 0.52705 0.93734 0.0
H958 H 0.05424 0.50139 0.26981 0.0
H959 H 0.05342 0.50129 0.14386 0.0
loop_
_geom_bond_atom_site_label_1
_geom_bond_atom_site_label_2
_geom_bond_distance
_geom_bond_site_symmetry_2
_ccdc_geom_bond_type
Co0 N5 2.057 . S
Co0 O17 2.021 1_655 S
Co0 O20 2.062 . S
Co0 O24 2.117 1_565 S
Co0 O25 2.020 . S
C1 O21 1.259 . S
C1 O24 1.258 . S
Co2 N11 2.057 . S
Co2 O18 2.117 1_545 S
Co2 O19 2.020 . S
Co2 O21 2.021 1_455 S
Co2 O26 2.062 . S
C3 N5 1.316 . S
C3 N6 1.347 . S
C3 H8 0.931 . S
C4 N5 1.375 . S
C4 C7 1.350 . S
C4 H9 0.930 . S
N5 Co0 2.057 . S
N5 C3 1.316 . S
N5 C4 1.375 . S
N6 C3 1.347 . S
N6 C7 1.373 . S
C7 C4 1.350 . S
C7 N6 1.373 . S
C7 H28 0.931 . S
H8 C3 0.931 . S
H9 C4 0.930 . S
C10 O17 1.259 . S
C10 O18 1.258 . S
N11 Co2 2.057 . S
N11 C12 1.316 . S
N11 C13 1.375 . S
C12 N11 1.316 . S
C12 N14 1.347 . S
C12 H23 0.931 . S
C13 N11 1.375 . S
C13 C15 1.350 . S
C13 H22 0.930 . S
N14 C12 1.347 . S
N14 C15 1.373 . S
C15 C13 1.350 . S
C15 N14 1.373 . S
C15 H29 0.931 . S
C16 O19 1.290 . S
C16 O20 1.227 1_445 S
O17 Co0 2.021 1_455 S
O17 C10 1.259 . S
O18 Co2 2.117 1_565 S
O18 C10 1.258 . S
O19 Co2 2.020 . S
O19 C16 1.290 . S
O20 Co0 2.062 . S
O20 C16 1.227 1_665 S
O21 C1 1.259 . S
O21 Co2 2.021 1_655 S
H22 C13 0.930 . S
H23 C12 0.931 . S
O24 Co0 2.117 1_545 S
O24 C1 1.258 . S
O25 Co0 2.020 . S
O25 C27 1.282 . S
O26 Co2 2.062 . S
O26 C27 1.233 1_445 S
C27 O25 1.282 . S
C27 O26 1.233 1_665 S
H28 C7 0.931 . S
H29 C15 0.931 . S
Co30 N35 2.057 . S
Co30 O47 2.021 . S
Co30 O50 2.062 . S
Co30 O54 2.117 . S
Co30 O55 2.020 . S
C31 O51 1.259 . S
C31 O54 1.258 . S
Co32 N41 2.057 . S
Co32 O48 2.117 . S
Co32 O49 2.020 . S
Co32 O51 2.021 . S
Co32 O56 2.062 . S
C33 N35 1.316 . S
C33 N36 1.347 . S
C33 H38 0.931 . S
C34 N35 1.375 . S
C34 C37 1.350 . S
C34 H39 0.930 . S
N35 Co30 2.057 . S
N35 C33 1.316 . S
N35 C34 1.375 . S
N36 C33 1.347 . S
N36 C37 1.373 . S
C37 C34 1.350 . S
C37 N36 1.373 . S
C37 H58 0.931 . S
H38 C33 0.931 . S
H39 C34 0.930 . S
C40 O47 1.259 . S
C40 O48 1.258 . S
N41 Co32 2.057 . S
N41 C42 1.316 . S
N41 C43 1.375 . S
C42 N41 1.316 . S
C42 N44 1.347 . S
C42 H53 0.931 . S
C43 N41 1.375 . S
C43 C45 1.350 . S
C43 H52 0.930 . S
N44 C42 1.347 . S
N44 C45 1.373 . S
C45 C43 1.350 . S
C45 N44 1.373 . S
C45 H59 0.931 . S
C46 O49 1.256 . S
C46 O50 1.255 . S
O47 Co30 2.021 . S
O47 C40 1.259 . S
O48 Co32 2.117 . S
O48 C40 1.258 . S
O49 Co32 2.020 . S
O49 C46 1.256 . S
O50 Co30 2.062 . S
O50 C46 1.255 . S
O51 C31 1.259 . S
O51 Co32 2.021 . S
H52 C43 0.930 . S
H53 C42 0.931 . S
O54 Co30 2.117 . S
O54 C31 1.258 . S
O55 Co30 2.020 . S
O55 C57 1.256 . S
O56 Co32 2.062 . S
O56 C57 1.255 . S
C57 O55 1.256 . S
C57 O56 1.255 . S
H58 C37 0.931 . S
H59 C45 0.931 . S
Co60 N65 2.057 . S
Co60 O77 2.021 . S
Co60 O80 2.062 . S
Co60 O84 2.117 1_566 S
Co60 O85 2.020 1_556 S
C61 O81 1.259 . S
C61 O84 1.258 . S
Co62 N71 2.057 . S
Co62 O78 2.117 1_544 S
Co62 O79 2.020 1_554 S
Co62 O81 2.021 . S
Co62 O86 2.062 . S
C63 N65 1.316 . S
C63 N66 1.347 . S
C63 H68 0.931 . S
C64 N65 1.375 1_554 S
C64 C67 1.350 1_554 S
C64 H69 0.930 . S
N65 Co60 2.057 . S
N65 C63 1.316 . S
N65 C64 1.375 1_556 S
N66 C63 1.347 . S
N66 C67 1.373 . S
C67 C64 1.350 1_556 S
C67 N66 1.373 . S
C67 H88 0.931 . S
H68 C63 0.931 . S
H69 C64 0.930 . S
C70 O77 1.259 . S
C70 O78 1.258 . S
N71 Co62 2.057 . S
N71 C72 1.316 . S
N71 C73 1.375 1_554 S
C72 N71 1.316 . S
C72 N74 1.347 . S
C72 H83 0.931 . S
C73 N71 1.375 1_556 S
C73 C75 1.350 1_556 S
C73 H82 0.930 . S
N74 C72 1.347 . S
N74 C75 1.373 . S
C75 C73 1.350 1_554 S
C75 N74 1.373 . S
C75 H89 0.931 . S
C76 O79 1.256 . S
C76 O80 1.255 1_545 S
O77 Co60 2.021 . S
O77 C70 1.259 . S
O78 Co62 2.117 1_566 S
O78 C70 1.258 . S
O79 Co62 2.020 1_556 S
O79 C76 1.256 . S
O80 Co60 2.062 . S
O80 C76 1.255 1_565 S
O81 C61 1.259 . S
O81 Co62 2.021 . S
H82 C73 0.930 . S
H83 C72 0.931 . S
O84 Co60 2.117 1_544 S
O84 C61 1.258 . S
O85 Co60 2.020 1_554 S
O85 C87 1.285 . S
O86 Co62 2.062 . S
O86 C87 1.221 1_545 S
C87 O85 1.285 . S
C87 O86 1.221 1_565 S
H88 C67 0.931 . S
H89 C75 0.931 . S
Co90 N95 2.057 . S
Co90 O107 2.021 . S
Co90 O110 2.062 . S
Co90 O114 2.117 . S
Co90 O115 2.020 . S
C91 O111 1.259 . S
C91 O114 1.258 . S
Co92 N101 2.057 . S
Co92 O108 2.117 . S
Co92 O109 2.020 . S
Co92 O111 2.021 . S
Co92 O116 2.062 . S
C93 N95 1.316 . S
C93 N96 1.347 . S
C93 H98 0.931 . S
C94 N95 1.375 . S
C94 C97 1.350 . S
C94 H99 0.930 . S
N95 Co90 2.057 . S
N95 C93 1.316 . S
N95 C94 1.375 . S
N96 C93 1.347 . S
N96 C97 1.373 . S
C97 C94 1.350 . S
C97 N96 1.373 . S
C97 H118 0.931 . S
H98 C93 0.931 . S
H99 C94 0.930 . S
C100 O107 1.259 . S
C100 O108 1.258 . S
N101 Co92 2.057 . S
N101 C102 1.316 . S
N101 C103 1.375 . S
C102 N101 1.316 . S
C102 N104 1.347 . S
C102 H113 0.931 . S
C103 N101 1.375 . S
C103 C105 1.350 . S
C103 H112 0.930 . S
N104 C102 1.347 . S
N104 C105 1.373 . S
C105 C103 1.350 . S
C105 N104 1.373 . S
C105 H119 0.931 . S
C106 O109 1.256 . S
C106 O110 1.255 . S
O107 Co90 2.021 . S
O107 C100 1.259 . S
O108 Co92 2.117 . S
O108 C100 1.258 . S
O109 Co92 2.020 . S
O109 C106 1.256 . S
O110 Co90 2.062 . S
O110 C106 1.255 . S
O111 C91 1.259 . S
O111 Co92 2.021 . S
H112 C103 0.930 . S
H113 C102 0.931 . S
O114 Co90 2.117 . S
O114 C91 1.258 . S
O115 Co90 2.020 . S
O115 C117 1.256 . S
O116 Co92 2.062 . S
O116 C117 1.255 . S
C117 O115 1.256 . S
C117 O116 1.255 . S
H118 C97 0.931 . S
H119 C105 0.931 . S
Co120 N125 2.057 . S
Co120 O137 2.021 . S
Co120 O140 2.062 . S
Co120 O144 2.117 . S
Co120 O145 2.020 . S
C121 O141 1.259 . S
C121 O144 1.258 . S
Co122 N131 2.057 . S
Co122 O138 2.117 . S
Co122 O139 2.020 . S
Co122 O141 2.021 . S
Co122 O146 2.062 . S
C123 N125 1.316 . S
C123 N126 1.347 . S
C123 H128 0.931 . S
C124 N125 1.375 . S
C124 C127 1.350 . S
C124 H129 0.930 . S
N125 Co120 2.057 . S
N125 C123 1.316 . S
N125 C124 1.375 . S
N126 C123 1.347 . S
N126 C127 1.373 . S
C127 C124 1.350 . S
C127 N126 1.373 . S
C127 H148 0.931 . S
H128 C123 0.931 . S
H129 C124 0.930 . S
C130 O137 1.259 . S
C130 O138 1.258 . S
N131 Co122 2.057 . S
N131 C132 1.316 . S
N131 C133 1.375 . S
C132 N131 1.316 . S
C132 N134 1.347 . S
C132 H143 0.931 . S
C133 N131 1.375 . S
C133 C135 1.350 . S
C133 H142 0.930 . S
N134 C132 1.347 . S
N134 C135 1.373 . S
C135 C133 1.350 . S
C135 N134 1.373 . S
C135 H149 0.931 . S
C136 O139 1.256 . S
C136 O140 1.255 . S
O137 Co120 2.021 . S
O137 C130 1.259 . S
O138 Co122 2.117 . S
O138 C130 1.258 . S
O139 Co122 2.020 . S
O139 C136 1.256 . S
O140 Co120 2.062 . S
O140 C136 1.255 . S
O141 C121 1.259 . S
O141 Co122 2.021 . S
H142 C133 0.930 . S
H143 C132 0.931 . S
O144 Co120 2.117 . S
O144 C121 1.258 . S
O145 Co120 2.020 . S
O145 C147 1.256 . S
O146 Co122 2.062 . S
O146 C147 1.255 . S
C147 O145 1.256 . S
C147 O146 1.255 . S
H148 C127 0.931 . S
H149 C135 0.931 . S
Co150 N155 2.057 . S
Co150 O167 2.021 . S
Co150 O170 2.062 . S
Co150 O174 2.117 . S
Co150 O175 2.020 . S
C151 O171 1.259 . S
C151 O174 1.258 . S
Co152 N161 2.057 . S
Co152 O168 2.117 . S
Co152 O169 2.020 . S
Co152 O171 2.021 . S
Co152 O176 2.062 . S
C153 N155 1.316 . S
C153 N156 1.347 . S
C153 H158 0.931 . S
C154 N155 1.375 . S
C154 C157 1.350 . S
C154 H159 0.930 . S
N155 Co150 2.057 . S
N155 C153 1.316 . S
N155 C154 1.375 . S
N156 C153 1.347 . S
N156 C157 1.373 . S
C157 C154 1.350 . S
C157 N156 1.373 . S
C157 H178 0.931 . S
H158 C153 0.931 . S
H159 C154 0.930 . S
C160 O167 1.259 . S
C160 O168 1.258 . S
N161 Co152 2.057 . S
N161 C162 1.316 . S
N161 C163 1.375 . S
C162 N161 1.316 . S
C162 N164 1.347 . S
C162 H173 0.931 . S
C163 N161 1.375 . S
C163 C165 1.350 . S
C163 H172 0.930 . S
N164 C162 1.347 . S
N164 C165 1.373 . S
C165 C163 1.350 . S
C165 N164 1.373 . S
C165 H179 0.931 . S
C166 O169 1.256 . S
C166 O170 1.255 . S
O167 Co150 2.021 . S
O167 C160 1.259 . S
O168 Co152 2.117 . S
O168 C160 1.258 . S
O169 Co152 2.020 . S
O169 C166 1.256 . S
O170 Co150 2.062 . S
O170 C166 1.255 . S
O171 C151 1.259 . S
O171 Co152 2.021 . S
H172 C163 0.930 . S
H173 C162 0.931 . S
O174 Co150 2.117 . S
O174 C151 1.258 . S
O175 Co150 2.020 . S
O175 C177 1.256 . S
O176 Co152 2.062 . S
O176 C177 1.255 . S
C177 O175 1.256 . S
C177 O176 1.255 . S
H178 C157 0.931 . S
H179 C165 0.931 . S
Co180 N185 2.057 . S
Co180 O197 2.021 1_556 S
Co180 O200 2.062 1_556 S
Co180 O204 2.117 . S
Co180 O205 2.020 . S
C181 O201 1.259 . S
C181 O204 1.258 . S
Co182 N191 2.057 . S
Co182 O198 2.117 . S
Co182 O199 2.020 . S
Co182 O201 2.021 1_554 S
Co182 O206 2.062 1_554 S
C183 N185 1.316 1_554 S
C183 N186 1.347 . S
C183 H188 0.931 . S
C184 N185 1.375 . S
C184 C187 1.350 1_556 S
C184 H189 0.930 . S
N185 Co180 2.057 . S
N185 C183 1.316 1_556 S
N185 C184 1.375 . S
N186 C183 1.347 . S
N186 C187 1.373 . S
C187 C184 1.350 1_554 S
C187 N186 1.373 . S
C187 H208 0.931 1_554 S
H188 C183 0.931 . S
H189 C184 0.930 . S
C190 O197 1.259 . S
C190 O198 1.258 . S
N191 Co182 2.057 . S
N191 C192 1.316 1_554 S
N191 C193 1.375 . S
C192 N191 1.316 1_556 S
C192 N194 1.347 . S
C192 H203 0.931 . S
C193 N191 1.375 . S
C193 C195 1.350 1_554 S
C193 H202 0.930 . S
N194 C192 1.347 . S
N194 C195 1.373 . S
C195 C193 1.350 1_556 S
C195 N194 1.373 . S
C195 H209 0.931 1_556 S
C196 O199 1.256 . S
C196 O200 1.255 . S
O197 Co180 2.021 1_554 S
O197 C190 1.259 . S
O198 Co182 2.117 . S
O198 C190 1.258 . S
O199 Co182 2.020 . S
O199 C196 1.256 . S
O200 Co180 2.062 1_554 S
O200 C196 1.255 . S
O201 C181 1.259 . S
O201 Co182 2.021 1_556 S
H202 C193 0.930 . S
H203 C192 0.931 . S
O204 Co180 2.117 . S
O204 C181 1.258 . S
O205 Co180 2.020 . S
O205 C207 1.256 . S
O206 Co182 2.062 1_556 S
O206 C207 1.255 . S
C207 O205 1.256 . S
C207 O206 1.255 . S
H208 C187 0.931 1_556 S
H209 C195 0.931 1_554 S
Co210 N215 2.057 . S
Co210 O227 2.021 1_455 S
Co210 O230 2.062 . S
Co210 O234 2.117 . S
Co210 O235 2.020 . S
C211 O231 1.259 . S
C211 O234 1.258 . S
Co212 N221 2.057 . S
Co212 O228 2.117 . S
Co212 O229 2.020 . S
Co212 O231 2.021 1_655 S
Co212 O236 2.062 . S
C213 N215 1.316 . S
C213 N216 1.347 . S
C213 H218 0.931 . S
C214 N215 1.375 . S
C214 C217 1.350 . S
C214 H219 0.930 . S
N215 Co210 2.057 . S
N215 C213 1.316 . S
N215 C214 1.375 . S
N216 C213 1.347 . S
N216 C217 1.373 . S
C217 C214 1.350 . S
C217 N216 1.373 . S
C217 H238 0.931 . S
H218 C213 0.931 . S
H219 C214 0.930 . S
C220 O227 1.259 . S
C220 O228 1.258 . S
N221 Co212 2.057 . S
N221 C222 1.316 . S
N221 C223 1.375 . S
C222 N221 1.316 . S
C222 N224 1.347 . S
C222 H233 0.931 . S
C223 N221 1.375 . S
C223 C225 1.350 . S
C223 H232 0.930 . S
N224 C222 1.347 . S
N224 C225 1.373 . S
C225 C223 1.350 . S
C225 N224 1.373 . S
C225 H239 0.931 . S
C226 O229 1.286 . S
C226 O230 1.231 1_655 S
O227 Co210 2.021 1_655 S
O227 C220 1.259 . S
O228 Co212 2.117 . S
O228 C220 1.258 . S
O229 Co212 2.020 . S
O229 C226 1.286 . S
O230 Co210 2.062 . S
O230 C226 1.231 1_455 S
O231 C211 1.259 . S
O231 Co212 2.021 1_455 S
H232 C223 0.930 . S
H233 C222 0.931 . S
O234 Co210 2.117 . S
O234 C211 1.258 . S
O235 Co210 2.020 . S
O235 C237 1.256 . S
O236 Co212 2.062 . S
O236 C237 1.255 1_655 S
C237 O235 1.256 . S
C237 O236 1.255 1_455 S
H238 C217 0.931 . S
H239 C225 0.931 . S
C240 C241 1.349 . S
C240 C242 1.327 . S
C240 H265 0.950 . S
C241 C240 1.349 . S
C241 C257 1.349 . S
C242 C240 1.327 . S
C242 C261 1.429 . S
C242 H266 0.950 . S
C243 C260 1.574 . S
C243 C262 1.368 . S
C243 H267 0.949 . S
H244 C248 0.949 . S
C245 C246 1.349 . S
C245 C247 1.327 . S
C245 H268 0.950 . S
C246 C245 1.349 . S
C246 C258 1.349 . S
C247 C245 1.327 . S
C247 C263 1.429 . S
C247 H269 0.950 . S
C248 H244 0.949 . S
C248 C256 1.574 . S
C248 C264 1.368 . S
H249 C257 0.950 . S
H250 C255 0.950 . S
H251 C256 0.949 . S
H252 C258 0.950 . S
H253 C259 0.950 . S
H254 C260 0.949 . S
C255 H250 0.950 . S
C255 C257 1.327 . S
C255 C261 1.429 . S
C256 C248 1.574 . S
C256 H251 0.949 . S
C256 C262 1.368 . S
C257 C241 1.349 . S
C257 H249 0.950 . S
C257 C255 1.327 . S
C258 C246 1.349 . S
C258 H252 0.950 . S
C258 C259 1.327 . S
C259 H253 0.950 . S
C259 C258 1.327 . S
C259 C263 1.429 . S
C260 C243 1.574 . S
C260 H254 0.949 . S
C260 C264 1.368 . S
C261 C242 1.429 . S
C261 C255 1.429 . S
C261 C262 1.523 . S
C262 C243 1.368 . S
C262 C256 1.368 . S
C262 C261 1.523 . S
C263 C247 1.429 . S
C263 C259 1.429 . S
C263 C264 1.523 . S
C264 C248 1.368 . S
C264 C260 1.368 . S
C264 C263 1.523 . S
H265 C240 0.950 . S
H266 C242 0.950 . S
H267 C243 0.949 . S
H268 C245 0.950 . S
H269 C247 0.950 . S
C270 C271 1.349 . S
C270 C272 1.327 . S
C270 H295 0.950 . S
C271 C270 1.349 . S
C271 C287 1.349 . S
C272 C270 1.327 . S
C272 C291 1.429 . S
C272 H296 0.950 . S
C273 C290 1.574 . S
C273 C292 1.368 . S
C273 H297 0.949 . S
H274 C278 0.949 . S
C275 C276 1.349 . S
C275 C277 1.327 . S
C275 H298 0.950 . S
C276 C275 1.349 . S
C276 C288 1.349 . S
C277 C275 1.327 . S
C277 C293 1.429 . S
C277 H299 0.950 . S
C278 H274 0.949 . S
C278 C286 1.574 . S
C278 C294 1.368 . S
H279 C287 0.950 . S
H280 C285 0.950 . S
H281 C286 0.949 . S
H282 C288 0.950 . S
H283 C289 0.950 . S
H284 C290 0.949 . S
C285 H280 0.950 . S
C285 C287 1.327 . S
C285 C291 1.429 . S
C286 C278 1.574 . S
C286 H281 0.949 . S
C286 C292 1.368 . S
C287 C271 1.349 . S
C287 H279 0.950 . S
C287 C285 1.327 . S
C288 C276 1.349 . S
C288 H282 0.950 . S
C288 C289 1.327 . S
C289 H283 0.950 . S
C289 C288 1.327 . S
C289 C293 1.429 . S
C290 C273 1.574 . S
C290 H284 0.949 . S
C290 C294 1.368 . S
C291 C272 1.429 . S
C291 C285 1.429 . S
C291 C292 1.523 . S
C292 C273 1.368 . S
C292 C286 1.368 . S
C292 C291 1.523 . S
C293 C277 1.429 . S
C293 C289 1.429 . S
C293 C294 1.523 . S
C294 C278 1.368 . S
C294 C290 1.368 . S
C294 C293 1.523 . S
H295 C270 0.950 . S
H296 C272 0.950 . S
H297 C273 0.949 . S
H298 C275 0.950 . S
H299 C277 0.950 . S
C300 C301 1.349 . S
C300 C302 1.327 . S
C300 H325 0.950 . S
C301 C300 1.349 . S
C301 C317 1.349 . S
C302 C300 1.327 . S
C302 C321 1.429 . S
C302 H326 0.950 . S
C303 C320 1.574 . S
C303 C322 1.368 . S
C303 H327 0.949 . S
H304 C308 0.949 . S
C305 C306 1.349 . S
C305 C307 1.327 . S
C305 H328 0.950 . S
C306 C305 1.349 . S
C306 C318 1.349 . S
C307 C305 1.327 . S
C307 C323 1.429 . S
C307 H329 0.950 . S
C308 H304 0.949 . S
C308 C316 1.574 . S
C308 C324 1.368 . S
H309 C317 0.950 . S
H310 C315 0.950 . S
H311 C316 0.949 . S
H312 C318 0.950 1_554 S
H313 C319 0.950 . S
H314 C320 0.949 . S
C315 H310 0.950 . S
C315 C317 1.327 . S
C315 C321 1.429 . S
C316 C308 1.574 . S
C316 H311 0.949 . S
C316 C322 1.368 . S
C317 C301 1.349 . S
C317 H309 0.950 . S
C317 C315 1.327 . S
C318 C306 1.349 . S
C318 H312 0.950 1_556 S
C318 C319 1.327 . S
C319 H313 0.950 . S
C319 C318 1.327 . S
C319 C323 1.429 . S
C320 C303 1.574 . S
C320 H314 0.949 . S
C320 C324 1.368 . S
C321 C302 1.429 . S
C321 C315 1.429 . S
C321 C322 1.523 . S
C322 C303 1.368 . S
C322 C316 1.368 . S
C322 C321 1.523 . S
C323 C307 1.429 . S
C323 C319 1.429 . S
C323 C324 1.523 . S
C324 C308 1.368 . S
C324 C320 1.368 . S
C324 C323 1.523 . S
H325 C300 0.950 . S
H326 C302 0.950 . S
H327 C303 0.949 . S
H328 C305 0.950 . S
H329 C307 0.950 . S
C330 C331 1.349 . S
C330 C332 1.327 . S
C330 H355 0.950 1_554 S
C331 C330 1.349 . S
C331 C347 1.349 . S
C332 C330 1.327 . S
C332 C351 1.429 . S
C332 H356 0.950 . S
C333 C350 1.574 . S
C333 C352 1.368 . S
C333 H357 0.949 . S
H334 C338 0.949 . S
C335 C336 1.349 . S
C335 C337 1.327 . S
C335 H358 0.950 . S
C336 C335 1.349 . S
C336 C348 1.349 . S
C337 C335 1.327 . S
C337 C353 1.429 . S
C337 H359 0.950 . S
C338 H334 0.949 . S
C338 C346 1.574 . S
C338 C354 1.368 . S
H339 C347 0.950 . S
H340 C345 0.950 . S
H341 C346 0.949 . S
H342 C348 0.950 . S
H343 C349 0.950 . S
H344 C350 0.949 . S
C345 H340 0.950 . S
C345 C347 1.327 . S
C345 C351 1.429 . S
C346 C338 1.574 . S
C346 H341 0.949 . S
C346 C352 1.368 . S
C347 C331 1.349 . S
C347 H339 0.950 . S
C347 C345 1.327 . S
C348 C336 1.349 . S
C348 H342 0.950 . S
C348 C349 1.327 . S
C349 H343 0.950 . S
C349 C348 1.327 . S
C349 C353 1.429 . S
C350 C333 1.574 . S
C350 H344 0.949 . S
C350 C354 1.368 . S
C351 C332 1.429 . S
C351 C345 1.429 . S
C351 C352 1.523 . S
C352 C333 1.368 . S
C352 C346 1.368 . S
C352 C351 1.523 . S
C353 C337 1.429 . S
C353 C349 1.429 . S
C353 C354 1.523 . S
C354 C338 1.368 . S
C354 C350 1.368 . S
C354 C353 1.523 . S
H355 C330 0.950 1_556 S
H356 C332 0.950 . S
H357 C333 0.949 . S
H358 C335 0.950 . S
H359 C337 0.950 . S
C360 C361 1.349 . S
C360 C362 1.327 . S
C360 H385 0.950 . S
C361 C360 1.349 . S
C361 C377 1.349 . S
C362 C360 1.327 . S
C362 C381 1.429 . S
C362 H386 0.950 . S
C363 C380 1.574 . S
C363 C382 1.368 . S
C363 H387 0.949 . S
H364 C368 0.949 . S
C365 C366 1.349 . S
C365 C367 1.327 . S
C365 H388 0.950 . S
C366 C365 1.349 . S
C366 C378 1.349 . S
C367 C365 1.327 . S
C367 C383 1.429 . S
C367 H389 0.950 . S
C368 H364 0.949 . S
C368 C376 1.574 . S
C368 C384 1.368 . S
H369 C377 0.950 . S
H370 C375 0.950 . S
H371 C376 0.949 . S
H372 C378 0.950 . S
H373 C379 0.950 . S
H374 C380 0.949 . S
C375 H370 0.950 . S
C375 C377 1.327 . S
C375 C381 1.429 . S
C376 C368 1.574 . S
C376 H371 0.949 . S
C376 C382 1.368 . S
C377 C361 1.349 . S
C377 H369 0.950 . S
C377 C375 1.327 . S
C378 C366 1.349 . S
C378 H372 0.950 . S
C378 C379 1.327 . S
C379 H373 0.950 . S
C379 C378 1.327 . S
C379 C383 1.429 . S
C380 C363 1.574 . S
C380 H374 0.949 . S
C380 C384 1.368 . S
C381 C362 1.429 . S
C381 C375 1.429 . S
C381 C382 1.523 . S
C382 C363 1.368 . S
C382 C376 1.368 . S
C382 C381 1.523 . S
C383 C367 1.429 . S
C383 C379 1.429 . S
C383 C384 1.523 . S
C384 C368 1.368 . S
C384 C380 1.368 . S
C384 C383 1.523 . S
H385 C360 0.950 . S
H386 C362 0.950 . S
H387 C363 0.949 . S
H388 C365 0.950 . S
H389 C367 0.950 . S
C390 C391 1.349 . S
C390 C392 1.327 . S
C390 H415 0.950 . S
C391 C390 1.349 . S
C391 C407 1.349 . S
C392 C390 1.327 . S
C392 C411 1.429 . S
C392 H416 0.950 . S
C393 C410 1.574 . S
C393 C412 1.368 . S
C393 H417 0.949 . S
H394 C398 0.949 . S
C395 C396 1.349 . S
C395 C397 1.327 . S
C395 H418 0.950 . S
C396 C395 1.349 . S
C396 C408 1.349 . S
C397 C395 1.327 . S
C397 C413 1.429 . S
C397 H419 0.950 . S
C398 H394 0.949 . S
C398 C406 1.574 . S
C398 C414 1.368 . S
H399 C407 0.950 . S
H400 C405 0.950 . S
H401 C406 0.949 . S
H402 C408 0.950 . S
H403 C409 0.950 . S
H404 C410 0.949 . S
C405 H400 0.950 . S
C405 C407 1.327 . S
C405 C411 1.429 . S
C406 C398 1.574 . S
C406 H401 0.949 . S
C406 C412 1.368 . S
C407 C391 1.349 . S
C407 H399 0.950 . S
C407 C405 1.327 . S
C408 C396 1.349 . S
C408 H402 0.950 . S
C408 C409 1.327 . S
C409 H403 0.950 . S
C409 C408 1.327 . S
C409 C413 1.429 . S
C410 C393 1.574 . S
C410 H404 0.949 . S
C410 C414 1.368 . S
C411 C392 1.429 . S
C411 C405 1.429 . S
C411 C412 1.523 . S
C412 C393 1.368 . S
C412 C406 1.368 . S
C412 C411 1.523 . S
C413 C397 1.429 . S
C413 C409 1.429 . S
C413 C414 1.523 . S
C414 C398 1.368 . S
C414 C410 1.368 . S
C414 C413 1.523 . S
H415 C390 0.950 . S
H416 C392 0.950 . S
H417 C393 0.949 . S
H418 C395 0.950 . S
H419 C397 0.950 . S
C420 C421 1.349 . S
C420 C422 1.327 . S
C420 H445 0.950 . S
C421 C420 1.349 . S
C421 C437 1.349 . S
C422 C420 1.327 . S
C422 C441 1.429 . S
C422 H446 0.950 . S
C423 C440 1.574 . S
C423 C442 1.368 . S
C423 H447 0.949 . S
H424 C428 0.949 . S
C425 C426 1.349 . S
C425 C427 1.327 . S
C425 H448 0.950 1_554 S
C426 C425 1.349 . S
C426 C438 1.349 . S
C427 C425 1.327 . S
C427 C443 1.429 . S
C427 H449 0.950 1_554 S
C428 H424 0.949 . S
C428 C436 1.574 . S
C428 C444 1.368 . S
H429 C437 0.950 . S
H430 C435 0.950 . S
H431 C436 0.949 . S
H432 C438 0.950 . S
H433 C439 0.950 . S
H434 C440 0.949 . S
C435 H430 0.950 . S
C435 C437 1.327 . S
C435 C441 1.429 . S
C436 C428 1.574 . S
C436 H431 0.949 . S
C436 C442 1.368 . S
C437 C421 1.349 . S
C437 H429 0.950 . S
C437 C435 1.327 . S
C438 C426 1.349 . S
C438 H432 0.950 . S
C438 C439 1.327 . S
C439 H433 0.950 . S
C439 C438 1.327 . S
C439 C443 1.429 . S
C440 C423 1.574 . S
C440 H434 0.949 . S
C440 C444 1.368 . S
C441 C422 1.429 . S
C441 C435 1.429 . S
C441 C442 1.523 . S
C442 C423 1.368 . S
C442 C436 1.368 . S
C442 C441 1.523 . S
C443 C427 1.429 . S
C443 C439 1.429 . S
C443 C444 1.523 . S
C444 C428 1.368 . S
C444 C440 1.368 . S
C444 C443 1.523 . S
H445 C420 0.950 . S
H446 C422 0.950 . S
H447 C423 0.949 . S
H448 C425 0.950 1_556 S
H449 C427 0.950 1_556 S
C450 C451 1.349 . S
C450 C452 1.327 . S
C450 H475 0.950 . S
C451 C450 1.349 . S
C451 C467 1.349 . S
C452 C450 1.327 . S
C452 C471 1.429 . S
C452 H476 0.950 . S
C453 C470 1.574 . S
C453 C472 1.368 . S
C453 H477 0.949 . S
H454 C458 0.949 . S
C455 C456 1.349 . S
C455 C457 1.327 . S
C455 H478 0.950 . S
C456 C455 1.349 . S
C456 C468 1.349 . S
C457 C455 1.327 . S
C457 C473 1.429 . S
C457 H479 0.950 . S
C458 H454 0.949 . S
C458 C466 1.574 . S
C458 C474 1.368 . S
H459 C467 0.950 . S
H460 C465 0.950 . S
H461 C466 0.949 . S
H462 C468 0.950 1_554 S
H463 C469 0.950 1_554 S
H464 C470 0.949 . S
C465 H460 0.950 . S
C465 C467 1.327 . S
C465 C471 1.429 . S
C466 C458 1.574 . S
C466 H461 0.949 . S
C466 C472 1.368 . S
C467 C451 1.349 . S
C467 H459 0.950 . S
C467 C465 1.327 . S
C468 C456 1.349 . S
C468 H462 0.950 1_556 S
C468 C469 1.327 . S
C469 H463 0.950 1_556 S
C469 C468 1.327 . S
C469 C473 1.429 . S
C470 C453 1.574 . S
C470 H464 0.949 . S
C470 C474 1.368 . S
C471 C452 1.429 . S
C471 C465 1.429 . S
C471 C472 1.523 . S
C472 C453 1.368 . S
C472 C466 1.368 . S
C472 C471 1.523 . S
C473 C457 1.429 . S
C473 C469 1.429 . S
C473 C474 1.523 . S
C474 C458 1.368 . S
C474 C470 1.368 . S
C474 C473 1.523 . S
H475 C450 0.950 . S
H476 C452 0.950 . S
H477 C453 0.949 . S
H478 C455 0.950 . S
H479 C457 0.950 . S
C480 C481 1.349 . S
C480 C482 1.327 . S
C480 H505 0.950 . S
C481 C480 1.349 . S
C481 C497 1.349 . S
C482 C480 1.327 . S
C482 C501 1.429 . S
C482 H506 0.950 . S
C483 C500 1.574 . S
C483 C502 1.368 . S
C483 H507 0.949 . S
H484 C488 0.949 . S
C485 C486 1.349 . S
C485 C487 1.327 . S
C485 H508 0.950 . S
C486 C485 1.349 . S
C486 C498 1.349 . S
C487 C485 1.327 . S
C487 C503 1.429 . S
C487 H509 0.950 . S
C488 H484 0.949 . S
C488 C496 1.574 . S
C488 C504 1.368 . S
H489 C497 0.950 . S
H490 C495 0.950 . S
H491 C496 0.949 . S
H492 C498 0.950 . S
H493 C499 0.950 . S
H494 C500 0.949 . S
C495 H490 0.950 . S
C495 C497 1.327 . S
C495 C501 1.429 . S
C496 C488 1.574 . S
C496 H491 0.949 . S
C496 C502 1.368 . S
C497 C481 1.349 . S
C497 H489 0.950 . S
C497 C495 1.327 . S
C498 C486 1.349 . S
C498 H492 0.950 . S
C498 C499 1.327 . S
C499 H493 0.950 . S
C499 C498 1.327 . S
C499 C503 1.429 . S
C500 C483 1.574 . S
C500 H494 0.949 . S
C500 C504 1.368 . S
C501 C482 1.429 . S
C501 C495 1.429 . S
C501 C502 1.523 . S
C502 C483 1.368 . S
C502 C496 1.368 . S
C502 C501 1.523 . S
C503 C487 1.429 . S
C503 C499 1.429 . S
C503 C504 1.523 . S
C504 C488 1.368 . S
C504 C500 1.368 . S
C504 C503 1.523 . S
H505 C480 0.950 . S
H506 C482 0.950 . S
H507 C483 0.949 . S
H508 C485 0.950 . S
H509 C487 0.950 . S
C510 C511 1.349 . S
C510 C512 1.327 . S
C510 H535 0.950 . S
C511 C510 1.349 . S
C511 C527 1.349 . S
C512 C510 1.327 . S
C512 C531 1.429 . S
C512 H536 0.950 . S
C513 C530 1.574 . S
C513 C532 1.368 . S
C513 H537 0.949 . S
H514 C518 0.949 . S
C515 C516 1.349 1_556 S
C515 C517 1.327 1_556 S
C515 H538 0.950 . S
C516 C515 1.349 1_554 S
C516 C528 1.349 . S
C517 C515 1.327 1_554 S
C517 C533 1.429 . S
C517 H539 0.950 1_554 S
C518 H514 0.949 . S
C518 C526 1.574 . S
C518 C534 1.368 . S
H519 C527 0.950 . S
H520 C525 0.950 . S
H521 C526 0.949 . S
H522 C528 0.950 . S
H523 C529 0.950 . S
H524 C530 0.949 . S
C525 H520 0.950 . S
C525 C527 1.327 . S
C525 C531 1.429 . S
C526 C518 1.574 . S
C526 H521 0.949 . S
C526 C532 1.368 . S
C527 C511 1.349 . S
C527 H519 0.950 . S
C527 C525 1.327 . S
C528 C516 1.349 . S
C528 H522 0.950 . S
C528 C529 1.327 . S
C529 H523 0.950 . S
C529 C528 1.327 . S
C529 C533 1.429 . S
C530 C513 1.574 . S
C530 H524 0.949 . S
C530 C534 1.368 . S
C531 C512 1.429 . S
C531 C525 1.429 . S
C531 C532 1.523 . S
C532 C513 1.368 . S
C532 C526 1.368 . S
C532 C531 1.523 . S
C533 C517 1.429 . S
C533 C529 1.429 . S
C533 C534 1.523 . S
C534 C518 1.368 . S
C534 C530 1.368 . S
C534 C533 1.523 . S
H535 C510 0.950 . S
H536 C512 0.950 . S
H537 C513 0.949 . S
H538 C515 0.950 . S
H539 C517 0.950 1_556 S
C540 C541 1.349 . S
C540 C542 1.327 . S
C540 H565 0.950 . S
C541 C540 1.349 . S
C541 C557 1.349 . S
C542 C540 1.327 . S
C542 C561 1.429 . S
C542 H566 0.950 . S
C543 C560 1.574 . S
C543 C562 1.368 . S
C543 H567 0.949 . S
H544 C548 0.949 . S
C545 C546 1.349 . S
C545 C547 1.327 . S
C545 H568 0.950 . S
C546 C545 1.349 . S
C546 C558 1.349 . S
C547 C545 1.327 . S
C547 C563 1.429 . S
C547 H569 0.950 . S
C548 H544 0.949 . S
C548 C556 1.574 . S
C548 C564 1.368 . S
H549 C557 0.950 . S
H550 C555 0.950 . S
H551 C556 0.949 . S
H552 C558 0.950 . S
H553 C559 0.950 . S
H554 C560 0.949 . S
C555 H550 0.950 . S
C555 C557 1.327 . S
C555 C561 1.429 . S
C556 C548 1.574 . S
C556 H551 0.949 . S
C556 C562 1.368 . S
C557 C541 1.349 . S
C557 H549 0.950 . S
C557 C555 1.327 . S
C558 C546 1.349 . S
C558 H552 0.950 . S
C558 C559 1.327 . S
C559 H553 0.950 . S
C559 C558 1.327 . S
C559 C563 1.429 . S
C560 C543 1.574 . S
C560 H554 0.949 . S
C560 C564 1.368 . S
C561 C542 1.429 . S
C561 C555 1.429 . S
C561 C562 1.523 . S
C562 C543 1.368 . S
C562 C556 1.368 . S
C562 C561 1.523 . S
C563 C547 1.429 . S
C563 C559 1.429 . S
C563 C564 1.523 . S
C564 C548 1.368 . S
C564 C560 1.368 . S
C564 C563 1.523 . S
H565 C540 0.950 . S
H566 C542 0.950 . S
H567 C543 0.949 . S
H568 C545 0.950 . S
H569 C547 0.950 . S
C570 C571 1.349 . S
C570 C572 1.327 . S
C570 H595 0.950 . S
C571 C570 1.349 . S
C571 C587 1.349 . S
C572 C570 1.327 . S
C572 C591 1.429 . S
C572 H596 0.950 . S
C573 C590 1.574 . S
C573 C592 1.368 . S
C573 H597 0.949 . S
H574 C578 0.949 . S
C575 C576 1.349 . S
C575 C577 1.327 . S
C575 H598 0.950 . S
C576 C575 1.349 . S
C576 C588 1.349 . S
C577 C575 1.327 . S
C577 C593 1.429 . S
C577 H599 0.950 . S
C578 H574 0.949 . S
C578 C586 1.574 . S
C578 C594 1.368 . S
H579 C587 0.950 . S
H580 C585 0.950 . S
H581 C586 0.949 . S
H582 C588 0.950 . S
H583 C589 0.950 . S
H584 C590 0.949 . S
C585 H580 0.950 . S
C585 C587 1.327 . S
C585 C591 1.429 . S
C586 C578 1.574 . S
C586 H581 0.949 . S
C586 C592 1.368 . S
C587 C571 1.349 . S
C587 H579 0.950 . S
C587 C585 1.327 . S
C588 C576 1.349 . S
C588 H582 0.950 . S
C588 C589 1.327 . S
C589 H583 0.950 . S
C589 C588 1.327 . S
C589 C593 1.429 . S
C590 C573 1.574 . S
C590 H584 0.949 . S
C590 C594 1.368 . S
C591 C572 1.429 . S
C591 C585 1.429 . S
C591 C592 1.523 . S
C592 C573 1.368 . S
C592 C586 1.368 . S
C592 C591 1.523 . S
C593 C577 1.429 . S
C593 C589 1.429 . S
C593 C594 1.523 . S
C594 C578 1.368 . S
C594 C590 1.368 . S
C594 C593 1.523 . S
H595 C570 0.950 . S
H596 C572 0.950 . S
H597 C573 0.949 . S
H598 C575 0.950 . S
H599 C577 0.950 . S
C600 C601 1.349 . S
C600 C602 1.327 . S
C600 H625 0.950 . S
C601 C600 1.349 . S
C601 C617 1.349 . S
C602 C600 1.327 . S
C602 C621 1.429 . S
C602 H626 0.950 . S
C603 C620 1.574 . S
C603 C622 1.368 . S
C603 H627 0.949 . S
H604 C608 0.949 . S
C605 C606 1.349 1_556 S
C605 C607 1.327 1_556 S
C605 H628 0.950 . S
C606 C605 1.349 1_554 S
C606 C618 1.349 . S
C607 C605 1.327 1_554 S
C607 C623 1.429 . S
C607 H629 0.950 1_554 S
C608 H604 0.949 . S
C608 C616 1.574 . S
C608 C624 1.368 . S
H609 C617 0.950 . S
H610 C615 0.950 . S
H611 C616 0.949 . S
H612 C618 0.950 . S
H613 C619 0.950 . S
H614 C620 0.949 . S
C615 H610 0.950 . S
C615 C617 1.327 . S
C615 C621 1.429 . S
C616 C608 1.574 . S
C616 H611 0.949 . S
C616 C622 1.368 . S
C617 C601 1.349 . S
C617 H609 0.950 . S
C617 C615 1.327 . S
C618 C606 1.349 . S
C618 H612 0.950 . S
C618 C619 1.327 . S
C619 H613 0.950 . S
C619 C618 1.327 . S
C619 C623 1.429 . S
C620 C603 1.574 . S
C620 H614 0.949 . S
C620 C624 1.368 . S
C621 C602 1.429 . S
C621 C615 1.429 . S
C621 C622 1.523 . S
C622 C603 1.368 . S
C622 C616 1.368 . S
C622 C621 1.523 . S
C623 C607 1.429 . S
C623 C619 1.429 . S
C623 C624 1.523 . S
C624 C608 1.368 . S
C624 C620 1.368 . S
C624 C623 1.523 . S
H625 C600 0.950 . S
H626 C602 0.950 . S
H627 C603 0.949 . S
H628 C605 0.950 . S
H629 C607 0.950 1_556 S
C630 C631 1.349 1_554 S
C630 C632 1.327 1_554 S
C630 H655 0.950 . S
C631 C630 1.349 1_556 S
C631 C647 1.349 . S
C632 C630 1.327 1_556 S
C632 C651 1.429 . S
C632 H656 0.950 1_556 S
C633 C650 1.574 . S
C633 C652 1.368 . S
C633 H657 0.949 . S
H634 C638 0.949 . S
C635 C636 1.349 . S
C635 C637 1.327 . S
C635 H658 0.950 . S
C636 C635 1.349 . S
C636 C648 1.349 . S
C637 C635 1.327 . S
C637 C653 1.429 . S
C637 H659 0.950 . S
C638 H634 0.949 . S
C638 C646 1.574 . S
C638 C654 1.368 . S
H639 C647 0.950 . S
H640 C645 0.950 . S
H641 C646 0.949 1_554 S
H642 C648 0.950 . S
H643 C649 0.950 . S
H644 C650 0.949 . S
C645 H640 0.950 . S
C645 C647 1.327 . S
C645 C651 1.429 . S
C646 C638 1.574 . S
C646 H641 0.949 1_556 S
C646 C652 1.368 . S
C647 C631 1.349 . S
C647 H639 0.950 . S
C647 C645 1.327 . S
C648 C636 1.349 . S
C648 H642 0.950 . S
C648 C649 1.327 . S
C649 H643 0.950 . S
C649 C648 1.327 . S
C649 C653 1.429 . S
C650 C633 1.574 . S
C650 H644 0.949 . S
C650 C654 1.368 . S
C651 C632 1.429 . S
C651 C645 1.429 . S
C651 C652 1.523 . S
C652 C633 1.368 . S
C652 C646 1.368 . S
C652 C651 1.523 . S
C653 C637 1.429 . S
C653 C649 1.429 . S
C653 C654 1.523 . S
C654 C638 1.368 . S
C654 C650 1.368 . S
C654 C653 1.523 . S
H655 C630 0.950 . S
H656 C632 0.950 1_554 S
H657 C633 0.949 . S
H658 C635 0.950 . S
H659 C637 0.950 . S
C660 C661 1.349 . S
C660 C662 1.327 . S
C660 H685 0.950 . S
C661 C660 1.349 . S
C661 C677 1.349 . S
C662 C660 1.327 . S
C662 C681 1.429 . S
C662 H686 0.950 . S
C663 C680 1.574 . S
C663 C682 1.368 . S
C663 H687 0.949 . S
H664 C668 0.949 . S
C665 C666 1.349 . S
C665 C667 1.327 . S
C665 H688 0.950 . S
C666 C665 1.349 . S
C666 C678 1.349 . S
C667 C665 1.327 . S
C667 C683 1.429 . S
C667 H689 0.950 . S
C668 H664 0.949 . S
C668 C676 1.574 . S
C668 C684 1.368 . S
H669 C677 0.950 . S
H670 C675 0.950 . S
H671 C676 0.949 . S
H672 C678 0.950 . S
H673 C679 0.950 . S
H674 C680 0.949 . S
C675 H670 0.950 . S
C675 C677 1.327 . S
C675 C681 1.429 . S
C676 C668 1.574 . S
C676 H671 0.949 . S
C676 C682 1.368 . S
C677 C661 1.349 . S
C677 H669 0.950 . S
C677 C675 1.327 . S
C678 C666 1.349 . S
C678 H672 0.950 . S
C678 C679 1.327 . S
C679 H673 0.950 . S
C679 C678 1.327 . S
C679 C683 1.429 . S
C680 C663 1.574 . S
C680 H674 0.949 . S
C680 C684 1.368 . S
C681 C662 1.429 . S
C681 C675 1.429 . S
C681 C682 1.523 . S
C682 C663 1.368 . S
C682 C676 1.368 . S
C682 C681 1.523 . S
C683 C667 1.429 . S
C683 C679 1.429 . S
C683 C684 1.523 . S
C684 C668 1.368 . S
C684 C680 1.368 . S
C684 C683 1.523 . S
H685 C660 0.950 . S
H686 C662 0.950 . S
H687 C663 0.949 . S
H688 C665 0.950 . S
H689 C667 0.950 . S
C690 C691 1.349 . S
C690 C692 1.327 . S
C690 H715 0.950 . S
C691 C690 1.349 . S
C691 C707 1.349 . S
C692 C690 1.327 . S
C692 C711 1.429 . S
C692 H716 0.950 . S
C693 C710 1.574 . S
C693 C712 1.368 . S
C693 H717 0.949 . S
H694 C698 0.949 . S
C695 C696 1.349 . S
C695 C697 1.327 . S
C695 H718 0.950 . S
C696 C695 1.349 . S
C696 C708 1.349 . S
C697 C695 1.327 . S
C697 C713 1.429 . S
C697 H719 0.950 . S
C698 H694 0.949 . S
C698 C706 1.574 . S
C698 C714 1.368 . S
H699 C707 0.950 . S
H700 C705 0.950 . S
H701 C706 0.949 . S
H702 C708 0.950 . S
H703 C709 0.950 . S
H704 C710 0.949 . S
C705 H700 0.950 . S
C705 C707 1.327 . S
C705 C711 1.429 . S
C706 C698 1.574 . S
C706 H701 0.949 . S
C706 C712 1.368 . S
C707 C691 1.349 . S
C707 H699 0.950 . S
C707 C705 1.327 . S
C708 C696 1.349 . S
C708 H702 0.950 . S
C708 C709 1.327 . S
C709 H703 0.950 . S
C709 C708 1.327 . S
C709 C713 1.429 . S
C710 C693 1.574 . S
C710 H704 0.949 . S
C710 C714 1.368 . S
C711 C692 1.429 . S
C711 C705 1.429 . S
C711 C712 1.523 . S
C712 C693 1.368 . S
C712 C706 1.368 . S
C712 C711 1.523 . S
C713 C697 1.429 . S
C713 C709 1.429 . S
C713 C714 1.523 . S
C714 C698 1.368 . S
C714 C710 1.368 . S
C714 C713 1.523 . S
H715 C690 0.950 . S
H716 C692 0.950 . S
H717 C693 0.949 . S
H718 C695 0.950 . S
H719 C697 0.950 . S
C720 C721 1.373 1_565 S
C720 C722 1.327 . S
C720 H745 0.950 . S
C721 C720 1.373 1_545 S
C721 C737 1.321 1_455 S
C722 C720 1.327 . S
C722 C741 1.443 1_565 S
C722 H746 0.950 . S
C723 C740 1.574 1_556 S
C723 C742 1.361 1_655 S
C723 H747 0.949 . S
H724 C728 0.949 . S
C725 C726 1.366 1_545 S
C725 C727 1.327 . S
C725 H748 0.950 . S
C726 C725 1.366 1_565 S
C726 C738 1.329 1_655 S
C727 C725 1.327 . S
C727 C743 1.435 1_545 S
C727 H749 0.950 . S
C728 H724 0.949 . S
C728 C736 1.574 1_554 S
C728 C744 1.370 1_455 S
H729 C737 0.950 . S
H730 C735 0.950 . S
H731 C736 0.949 . S
H732 C738 0.950 . S
H733 C739 0.950 . S
H734 C740 0.949 . S
C735 H730 0.950 . S
C735 C737 1.327 . S
C735 C741 1.417 1_655 S
C736 C728 1.574 1_556 S
C736 H731 0.949 . S
C736 C742 1.374 1_565 S
C737 C721 1.321 1_655 S
C737 H729 0.950 . S
C737 C735 1.327 . S
C738 C726 1.329 1_455 S
C738 H732 0.950 . S
C738 C739 1.327 . S
C739 H733 0.950 . S
C739 C738 1.327 . S
C739 C743 1.424 1_455 S
C740 C723 1.574 1_554 S
C740 H734 0.949 . S
C740 C744 1.367 1_545 S
C741 C722 1.443 1_545 S
C741 C735 1.417 1_455 S
C741 C742 1.522 . S
C742 C723 1.361 1_455 S
C742 C736 1.374 1_545 S
C742 C741 1.522 . S
C743 C727 1.435 1_565 S
C743 C739 1.424 1_655 S
C743 C744 1.522 . S
C744 C728 1.370 1_655 S
C744 C740 1.367 1_565 S
C744 C743 1.522 . S
H745 C720 0.950 . S
H746 C722 0.950 . S
H747 C723 0.949 . S
H748 C725 0.950 . S
H749 C727 0.950 . S
C750 C751 1.349 . S
C750 C752 1.327 . S
C750 H775 0.950 . S
C751 C750 1.349 . S
C751 C767 1.349 . S
C752 C750 1.327 . S
C752 C771 1.429 . S
C752 H776 0.950 . S
C753 C770 1.574 . S
C753 C772 1.368 . S
C753 H777 0.949 . S
H754 C758 0.949 . S
C755 C756 1.349 . S
C755 C757 1.327 1_556 S
C755 H778 0.950 . S
C756 C755 1.349 . S
C756 C768 1.349 . S
C757 C755 1.327 1_554 S
C757 C773 1.429 . S
C757 H779 0.950 . S
C758 H754 0.949 . S
C758 C766 1.574 . S
C758 C774 1.368 . S
H759 C767 0.950 . S
H760 C765 0.950 . S
H761 C766 0.949 . S
H762 C768 0.950 . S
H763 C769 0.950 . S
H764 C770 0.949 . S
C765 H760 0.950 . S
C765 C767 1.327 . S
C765 C771 1.429 . S
C766 C758 1.574 . S
C766 H761 0.949 . S
C766 C772 1.368 . S
C767 C751 1.349 . S
C767 H759 0.950 . S
C767 C765 1.327 . S
C768 C756 1.349 . S
C768 H762 0.950 . S
C768 C769 1.327 1_556 S
C769 H763 0.950 . S
C769 C768 1.327 1_554 S
C769 C773 1.429 . S
C770 C753 1.574 . S
C770 H764 0.949 . S
C770 C774 1.368 . S
C771 C752 1.429 . S
C771 C765 1.429 . S
C771 C772 1.523 . S
C772 C753 1.368 . S
C772 C766 1.368 . S
C772 C771 1.523 . S
C773 C757 1.429 . S
C773 C769 1.429 . S
C773 C774 1.523 . S
C774 C758 1.368 . S
C774 C770 1.368 . S
C774 C773 1.523 . S
H775 C750 0.950 . S
H776 C752 0.950 . S
H777 C753 0.949 . S
H778 C755 0.950 . S
H779 C757 0.950 . S
C780 C781 1.349 . S
C780 C782 1.327 . S
C780 H805 0.950 . S
C781 C780 1.349 . S
C781 C797 1.349 1_545 S
C782 C780 1.327 . S
C782 C801 1.455 . S
C782 H806 0.950 . S
C783 C800 1.574 . S
C783 C802 1.355 1_565 S
C783 H807 0.949 . S
H784 C788 0.949 . S
C785 C786 1.349 . S
C785 C787 1.327 . S
C785 H808 0.950 . S
C786 C785 1.349 . S
C786 C798 1.349 1_565 S
C787 C785 1.327 . S
C787 C803 1.447 . S
C787 H809 0.950 . S
C788 H784 0.949 . S
C788 C796 1.574 . S
C788 C804 1.364 1_545 S
H789 C797 0.950 . S
H790 C795 0.950 . S
H791 C796 0.949 . S
H792 C798 0.950 . S
H793 C799 0.950 . S
H794 C800 0.949 . S
C795 H790 0.950 . S
C795 C797 1.327 . S
C795 C801 1.399 1_565 S
C796 C788 1.574 . S
C796 H791 0.949 . S
C796 C802 1.383 . S
C797 C781 1.349 1_565 S
C797 H789 0.950 . S
C797 C795 1.327 . S
C798 C786 1.349 1_545 S
C798 H792 0.950 . S
C798 C799 1.327 . S
C799 H793 0.950 . S
C799 C798 1.327 . S
C799 C803 1.408 1_545 S
C800 C783 1.574 . S
C800 H794 0.949 . S
C800 C804 1.373 . S
C801 C782 1.455 . S
C801 C795 1.399 1_545 S
C801 C802 1.525 . S
C802 C783 1.355 1_545 S
C802 C796 1.383 . S
C802 C801 1.525 . S
C803 C787 1.447 . S
C803 C799 1.408 1_565 S
C803 C804 1.525 . S
C804 C788 1.364 1_565 S
C804 C800 1.373 . S
C804 C803 1.525 . S
H805 C780 0.950 . S
H806 C782 0.950 . S
H807 C783 0.949 . S
H808 C785 0.950 . S
H809 C787 0.950 . S
C810 C811 1.349 . S
C810 C812 1.327 1_554 S
C810 H835 0.950 . S
C811 C810 1.349 . S
C811 C827 1.357 . S
C812 C810 1.327 1_556 S
C812 C831 1.429 . S
C812 H836 0.950 . S
C813 C830 1.574 . S
C813 C832 1.368 . S
C813 H837 0.949 . S
H814 C818 0.949 . S
C815 C816 1.349 . S
C815 C817 1.327 . S
C815 H838 0.950 . S
C816 C815 1.349 . S
C816 C828 1.349 . S
C817 C815 1.327 . S
C817 C833 1.429 . S
C817 H839 0.950 . S
C818 H814 0.949 . S
C818 C826 1.574 . S
C818 C834 1.368 . S
H819 C827 0.957 . S
H820 C825 0.950 . S
H821 C826 0.949 . S
H822 C828 0.950 . S
H823 C829 0.950 . S
H824 C830 0.949 . S
C825 H820 0.950 . S
C825 C827 1.312 1_556 S
C825 C831 1.429 . S
C826 C818 1.574 . S
C826 H821 0.949 . S
C826 C832 1.368 . S
C827 C811 1.357 . S
C827 H819 0.957 . S
C827 C825 1.312 1_554 S
C828 C816 1.349 . S
C828 H822 0.950 . S
C828 C829 1.327 . S
C829 H823 0.950 . S
C829 C828 1.327 . S
C829 C833 1.429 . S
C830 C813 1.574 . S
C830 H824 0.949 . S
C830 C834 1.368 . S
C831 C812 1.429 . S
C831 C825 1.429 . S
C831 C832 1.523 . S
C832 C813 1.368 . S
C832 C826 1.368 . S
C832 C831 1.523 . S
C833 C817 1.429 . S
C833 C829 1.429 . S
C833 C834 1.523 . S
C834 C818 1.368 . S
C834 C830 1.368 . S
C834 C833 1.523 . S
H835 C810 0.950 . S
H836 C812 0.950 . S
H837 C813 0.949 . S
H838 C815 0.950 . S
H839 C817 0.950 . S
C840 C841 1.349 . S
C840 C842 1.327 1_554 S
C840 H865 0.950 . S
C841 C840 1.349 . S
C841 C857 1.349 . S
C842 C840 1.327 1_556 S
C842 C861 1.429 . S
C842 H866 0.950 . S
C843 C860 1.574 . S
C843 C862 1.368 . S
C843 H867 0.949 . S
H844 C848 0.949 . S
C845 C846 1.349 . S
C845 C847 1.327 . S
C845 H868 0.950 . S
C846 C845 1.349 . S
C846 C858 1.349 . S
C847 C845 1.327 . S
C847 C863 1.429 . S
C847 H869 0.950 . S
C848 H844 0.949 . S
C848 C856 1.574 . S
C848 C864 1.368 . S
H849 C857 0.950 . S
H850 C855 0.950 . S
H851 C856 0.949 . S
H852 C858 0.950 . S
H853 C859 0.950 . S
H854 C860 0.949 . S
C855 H850 0.950 . S
C855 C857 1.327 1_556 S
C855 C861 1.429 . S
C856 C848 1.574 . S
C856 H851 0.949 . S
C856 C862 1.368 . S
C857 C841 1.349 . S
C857 H849 0.950 . S
C857 C855 1.327 1_554 S
C858 C846 1.349 . S
C858 H852 0.950 . S
C858 C859 1.327 . S
C859 H853 0.950 . S
C859 C858 1.327 . S
C859 C863 1.429 . S
C860 C843 1.574 . S
C860 H854 0.949 . S
C860 C864 1.368 . S
C861 C842 1.429 . S
C861 C855 1.429 . S
C861 C862 1.523 . S
C862 C843 1.368 . S
C862 C856 1.368 . S
C862 C861 1.523 . S
C863 C847 1.429 . S
C863 C859 1.429 . S
C863 C864 1.523 . S
C864 C848 1.368 . S
C864 C860 1.368 . S
C864 C863 1.523 . S
H865 C840 0.950 . S
H866 C842 0.950 . S
H867 C843 0.949 . S
H868 C845 0.950 . S
H869 C847 0.950 . S
C870 C871 1.349 . S
C870 C872 1.327 . S
C870 H895 0.950 . S
C871 C870 1.349 . S
C871 C887 1.349 . S
C872 C870 1.327 . S
C872 C891 1.429 . S
C872 H896 0.950 . S
C873 C890 1.574 . S
C873 C892 1.368 . S
C873 H897 0.949 . S
H874 C878 0.949 . S
C875 C876 1.340 1_554 S
C875 C877 1.344 . S
C875 H898 0.942 1_554 S
C876 C875 1.340 1_556 S
C876 C888 1.349 . S
C877 C875 1.344 . S
C877 C893 1.429 . S
C877 H899 0.950 . S
C878 H874 0.949 . S
C878 C886 1.574 . S
C878 C894 1.368 . S
H879 C887 0.950 . S
H880 C885 0.950 . S
H881 C886 0.949 . S
H882 C888 0.950 . S
H883 C889 0.950 . S
H884 C890 0.949 . S
C885 H880 0.950 . S
C885 C887 1.327 . S
C885 C891 1.429 . S
C886 C878 1.574 . S
C886 H881 0.949 . S
C886 C892 1.368 . S
C887 C871 1.349 . S
C887 H879 0.950 . S
C887 C885 1.327 . S
C888 C876 1.349 . S
C888 H882 0.950 . S
C888 C889 1.327 1_556 S
C889 H883 0.950 . S
C889 C888 1.327 1_554 S
C889 C893 1.429 . S
C890 C873 1.574 . S
C890 H884 0.949 . S
C890 C894 1.368 . S
C891 C872 1.429 . S
C891 C885 1.429 . S
C891 C892 1.523 . S
C892 C873 1.368 . S
C892 C886 1.368 . S
C892 C891 1.523 . S
C893 C877 1.429 . S
C893 C889 1.429 . S
C893 C894 1.523 . S
C894 C878 1.368 . S
C894 C890 1.368 . S
C894 C893 1.523 . S
H895 C870 0.950 . S
H896 C872 0.950 . S
H897 C873 0.949 . S
H898 C875 0.942 1_556 S
H899 C877 0.950 . S
C900 C901 1.349 . S
C900 C902 1.327 . S
C900 H925 0.950 . S
C901 C900 1.349 . S
C901 C917 1.349 . S
C902 C900 1.327 . S
C902 C921 1.429 . S
C902 H926 0.950 . S
C903 C920 1.574 . S
C903 C922 1.368 . S
C903 H927 0.949 . S
H904 C908 0.949 . S
C905 C906 1.349 . S
C905 C907 1.327 . S
C905 H928 0.950 . S
C906 C905 1.349 . S
C906 C918 1.349 . S
C907 C905 1.327 . S
C907 C923 1.429 . S
C907 H929 0.950 . S
C908 H904 0.949 . S
C908 C916 1.574 . S
C908 C924 1.368 . S
H909 C917 0.950 . S
H910 C915 0.950 . S
H911 C916 0.949 . S
H912 C918 0.950 . S
H913 C919 0.950 . S
H914 C920 0.949 . S
C915 H910 0.950 . S
C915 C917 1.327 . S
C915 C921 1.429 . S
C916 C908 1.574 . S
C916 H911 0.949 . S
C916 C922 1.368 . S
C917 C901 1.349 . S
C917 H909 0.950 . S
C917 C915 1.327 . S
C918 C906 1.349 . S
C918 H912 0.950 . S
C918 C919 1.327 . S
C919 H913 0.950 . S
C919 C918 1.327 . S
C919 C923 1.429 . S
C920 C903 1.574 . S
C920 H914 0.949 . S
C920 C924 1.368 . S
C921 C902 1.429 . S
C921 C915 1.429 . S
C921 C922 1.523 . S
C922 C903 1.368 . S
C922 C916 1.368 . S
C922 C921 1.523 . S
C923 C907 1.429 . S
C923 C919 1.429 . S
C923 C924 1.523 . S
C924 C908 1.368 . S
C924 C920 1.368 . S
C924 C923 1.523 . S
H925 C900 0.950 . S
H926 C902 0.950 . S
H927 C903 0.949 . S
H928 C905 0.950 . S
H929 C907 0.950 . S
C930 C931 1.323 1_655 S
C930 C932 1.327 . S
C930 H955 0.950 . S
C931 C930 1.323 1_455 S
C931 C947 1.370 . S
C932 C930 1.327 . S
C932 C951 1.419 1_655 S
C932 H956 0.950 . S
C933 C950 1.574 1_556 S
C933 C952 1.374 . S
C933 H957 0.949 . S
H934 C938 0.949 . S
C935 C936 1.330 1_455 S
C935 C937 1.327 . S
C935 H958 0.950 . S
C936 C935 1.330 1_655 S
C936 C948 1.365 . S
C937 C935 1.327 . S
C937 C953 1.424 1_455 S
C937 H959 0.950 . S
C938 H934 0.949 . S
C938 C946 1.574 1_554 S
C938 C954 1.368 . S
H939 C947 0.950 . S
H940 C945 0.950 . S
H941 C946 0.949 . S
H942 C948 0.950 . S
H943 C949 0.950 . S
H944 C950 0.949 . S
C945 H940 0.950 . S
C945 C947 1.327 . S
C945 C951 1.442 . S
C946 C938 1.574 1_556 S
C946 H941 0.949 . S
C946 C952 1.362 1_655 S
C947 C931 1.370 . S
C947 H939 0.950 . S
C947 C945 1.327 . S
C948 C936 1.365 . S
C948 H942 0.950 . S
C948 C949 1.327 . S
C949 H943 0.950 . S
C949 C948 1.327 . S
C949 C953 1.435 . S
C950 C933 1.574 1_554 S
C950 H944 0.949 . S
C950 C954 1.369 1_455 S
C951 C932 1.419 1_455 S
C951 C945 1.442 . S
C951 C952 1.521 . S
C952 C933 1.374 . S
C952 C946 1.362 1_455 S
C952 C951 1.521 . S
C953 C937 1.424 1_655 S
C953 C949 1.435 . S
C953 C954 1.521 . S
C954 C938 1.368 . S
C954 C950 1.369 1_655 S
C954 C953 1.521 . S
H955 C930 0.950 . S
H956 C932 0.950 . S
H957 C933 0.949 . S
H958 C935 0.950 . S
H959 C937 0.950 . S
C241 N14 0.552 . S
C246 N104 0.545 . S
C271 C10 1.506 . S
C276 N44 1.475 . S
C301 C40 2.710 . S
C306 C70 2.714 . S
C331 N74 1.477 . S
C336 C100 1.501 . S
C361 N6 0.552 . S
C366 N156 0.559 . S
C391 C1 1.506 . S
C396 N126 1.478 . S
C421 C121 2.710 . S
C426 C61 2.706 . S
C451 C151 1.506 . S
C456 N66 1.482 . S
C481 N194 0.552 . S
C486 N164 0.552 . S
C511 N134 1.477 . S
C516 C190 1.505 . S
C541 C220 2.710 . S
C546 C130 2.714 . S
C571 C160 1.506 . S
C576 N224 1.480 . S
C601 N96 0.552 . S
C606 N186 0.551 . S
C631 C181 1.506 . S
C636 N36 1.477 . S
C661 C31 2.710 . S
C666 C211 2.706 . S
C691 C91 1.506 . S
C696 N216 1.473 . S
C721 C16 1.172 . S
C726 C27 1.172 . S
C751 C57 1.139 . S
C756 C46 1.139 . S
C781 C76 1.139 . S
C786 C87 1.146 . S
C811 C106 1.174 . S
C816 C117 1.174 . S
C841 C147 1.139 . S
C846 C136 1.139 . S
C871 C166 1.174 . S
C876 C177 1.174 . S
C901 C207 1.174 . S
C906 C196 1.174 . S
C931 C237 1.146 . S
C936 C226 1.138 . S
