# Generated by pormake.
# Topology umh, (4)-cn, num edge types: 1
# Building blocks:
#     Node 0, Type 0, BuildingBlock: GALJAG_clean_sbu_0, # of connection points: 4
#     Node 1, Type 0, BuildingBlock: GALJAG_clean_sbu_0, # of connection points: 4
#     Node 2, Type 0, BuildingBlock: GALJAG_clean_sbu_0, # of connection points: 4
#     Node 3, Type 0, BuildingBlock: GALJAG_clean_sbu_0, # of connection points: 4
#     Node 4, Type 0, BuildingBlock: GALJAG_clean_sbu_0, # of connection points: 4
#     Node 5, Type 0, BuildingBlock: GALJAG_clean_sbu_0, # of connection points: 4
#     Node 6, Type 0, BuildingBlock: GALJAG_clean_sbu_0, # of connection points: 4
#     Node 7, Type 0, BuildingBlock: GALJAG_clean_sbu_0, # of connection points: 4
#     Node 8, Type 0, BuildingBlock: GALJAG_clean_sbu_0, # of connection points: 4
#     Node 9, Type 0, BuildingBlock: GALJAG_clean_sbu_0, # of connection points: 4
#     Node 10, Type 0, BuildingBlock: GALJAG_clean_sbu_0, # of connection points: 4
#     Node 11, Type 0, BuildingBlock: GALJAG_clean_sbu_0, # of connection points: 4
#     Node 12, Type 0, BuildingBlock: GALJAG_clean_sbu_0, # of connection points: 4
#     Node 13, Type 0, BuildingBlock: GALJAG_clean_sbu_0, # of connection points: 4
#     Node 14, Type 0, BuildingBlock: GALJAG_clean_sbu_0, # of connection points: 4
#     Node 15, Type 0, BuildingBlock: GALJAG_clean_sbu_0, # of connection points: 4
#     Edge 16, Type (0, 0), BuildingBlock: EZIPEK_clean_linker_0, # of connection points: 2
#     Edge 17, Type (0, 0), BuildingBlock: EZIPEK_clean_linker_0, # of connection points: 2
#     Edge 18, Type (0, 0), BuildingBlock: EZIPEK_clean_linker_0, # of connection points: 2
#     Edge 19, Type (0, 0), BuildingBlock: EZIPEK_clean_linker_0, # of connection points: 2
#     Edge 20, Type (0, 0), BuildingBlock: EZIPEK_clean_linker_0, # of connection points: 2
#     Edge 21, Type (0, 0), BuildingBlock: EZIPEK_clean_linker_0, # of connection points: 2
#     Edge 22, Type (0, 0), BuildingBlock: EZIPEK_clean_linker_0, # of connection points: 2
#     Edge 23, Type (0, 0), BuildingBlock: EZIPEK_clean_linker_0, # of connection points: 2
#     Edge 24, Type (0, 0), BuildingBlock: EZIPEK_clean_linker_0, # of connection points: 2
#     Edge 25, Type (0, 0), BuildingBlock: EZIPEK_clean_linker_0, # of connection points: 2
#     Edge 26, Type (0, 0), BuildingBlock: EZIPEK_clean_linker_0, # of connection points: 2
#     Edge 27, Type (0, 0), BuildingBlock: EZIPEK_clean_linker_0, # of connection points: 2
#     Edge 28, Type (0, 0), BuildingBlock: EZIPEK_clean_linker_0, # of connection points: 2
#     Edge 29, Type (0, 0), BuildingBlock: EZIPEK_clean_linker_0, # of connection points: 2
#     Edge 30, Type (0, 0), BuildingBlock: EZIPEK_clean_linker_0, # of connection points: 2
#     Edge 31, Type (0, 0), BuildingBlock: EZIPEK_clean_linker_0, # of connection points: 2
#     Edge 32, Type (0, 0), BuildingBlock: EZIPEK_clean_linker_0, # of connection points: 2
#     Edge 33, Type (0, 0), BuildingBlock: EZIPEK_clean_linker_0, # of connection points: 2
#     Edge 34, Type (0, 0), BuildingBlock: EZIPEK_clean_linker_0, # of connection points: 2
#     Edge 35, Type (0, 0), BuildingBlock: EZIPEK_clean_linker_0, # of connection points: 2
#     Edge 36, Type (0, 0), BuildingBlock: EZIPEK_clean_linker_0, # of connection points: 2
#     Edge 37, Type (0, 0), BuildingBlock: EZIPEK_clean_linker_0, # of connection points: 2
#     Edge 38, Type (0, 0), BuildingBlock: EZIPEK_clean_linker_0, # of connection points: 2
#     Edge 39, Type (0, 0), BuildingBlock: EZIPEK_clean_linker_0, # of connection points: 2
#     Edge 40, Type (0, 0), BuildingBlock: EZIPEK_clean_linker_0, # of connection points: 2
#     Edge 41, Type (0, 0), BuildingBlock: EZIPEK_clean_linker_0, # of connection points: 2
#     Edge 42, Type (0, 0), BuildingBlock: EZIPEK_clean_linker_0, # of connection points: 2
#     Edge 43, Type (0, 0), BuildingBlock: EZIPEK_clean_linker_0, # of connection points: 2
#     Edge 44, Type (0, 0), BuildingBlock: EZIPEK_clean_linker_0, # of connection points: 2
#     Edge 45, Type (0, 0), BuildingBlock: EZIPEK_clean_linker_0, # of connection points: 2
#     Edge 46, Type (0, 0), BuildingBlock: EZIPEK_clean_linker_0, # of connection points: 2
#     Edge 47, Type (0, 0), BuildingBlock: EZIPEK_clean_linker_0, # of connection points: 2
# Relax obj value: 0.114
# Max RMSD: 0.279
# Mean RMSD: 0.279
data_MOF--net-umh--node1-GALJAG_clean_sbu_0--edge1-EZIPEK_clean_linker_0
_symmetry_space_group_name_H-M    P1
_symmetry_Int_Tables_number       1
_symmetry_cell_setting            triclinic
loop_
_symmetry_equiv_pos_as_xyz
'x, y, z'
_cell_length_a     29.835195
_cell_length_b     29.894984
_cell_length_c     38.681564
_cell_angle_alpha  90.234191
_cell_angle_beta   90.005404
_cell_angle_gamma 90.165029
loop_
_atom_site_label
_atom_site_type_symbol
_atom_site_fract_x
_atom_site_fract_y
_atom_site_fract_z
_atom_type_partial_charge
In0 In 0.33021 0.0834 0.14011 0.0
O1 O 0.32829 0.06343 0.08295 0.0
O2 O 0.36029 0.12501 0.09742 0.0
C3 C 0.27917 0.0423 0.18694 0.0
C4 C 0.40815 0.04723 0.157 0.0
C5 C 0.27661 0.15332 0.1464 0.0
O6 O 0.27585 0.03271 0.15493 0.0
O7 O 0.30963 0.07006 0.19476 0.0
O8 O 0.31617 0.154 0.15878 0.0
O9 O 0.26541 0.11805 0.13035 0.0
C10 C 0.34949 0.09828 0.0734 0.0
O11 O 0.39954 0.08776 0.16438 0.0
O12 O 0.37757 0.02567 0.14149 0.0
In13 In 0.39798 0.35814 0.65234 0.0
O14 O 0.38175 0.42676 0.6757 0.0
O15 O 0.44813 0.41351 0.65694 0.0
C16 C 0.32798 0.30294 0.65464 0.0
C17 C 0.394 0.37186 0.58403 0.0
C18 C 0.4445 0.31236 0.69969 0.0
O19 O 0.32644 0.34134 0.6687 0.0
O20 O 0.36412 0.29313 0.63951 0.0
O21 O 0.45709 0.31369 0.66836 0.0
O22 O 0.41025 0.33537 0.70672 0.0
C23 C 0.4213 0.44091 0.67066 0.0
O24 O 0.42519 0.34891 0.59741 0.0
O25 O 0.36582 0.38794 0.60497 0.0
In26 In 0.12756 0.38687 0.15045 0.0
O27 O 0.05406 0.38727 0.1662 0.0
O28 O 0.08405 0.44718 0.14557 0.0
C29 C 0.16243 0.30586 0.15845 0.0
C30 C 0.12766 0.38659 0.08119 0.0
C31 C 0.17011 0.42133 0.20605 0.0
O32 O 0.12112 0.31272 0.16432 0.0
O33 O 0.18507 0.33941 0.14926 0.0
O34 O 0.18852 0.42009 0.17648 0.0
O35 O 0.12969 0.40907 0.20623 0.0
C36 C 0.04966 0.42807 0.15782 0.0
O37 O 0.14976 0.41567 0.09821 0.0
O38 O 0.10599 0.35868 0.09902 0.0
In39 In 0.11341 0.12108 0.64882 0.0
O40 O 0.09256 0.12726 0.59228 0.0
O41 O 0.14259 0.07897 0.60589 0.0
C42 C 0.07941 0.17519 0.69727 0.0
C43 C 0.07245 0.04708 0.66877 0.0
C44 C 0.18678 0.17129 0.64837 0.0
O45 O 0.06547 0.17664 0.66617 0.0
O46 O 0.10832 0.14546 0.7036 0.0
O47 O 0.18655 0.1333 0.66316 0.0
O48 O 0.1511 0.1819 0.63283 0.0
C49 C 0.11998 0.09736 0.58222 0.0
O50 O 0.11421 0.05253 0.67394 0.0
O51 O 0.052 0.07902 0.65433 0.0
In52 In 0.33863 0.39267 0.37065 0.0
O53 O 0.40878 0.38336 0.34837 0.0
O54 O 0.38709 0.4491 0.36318 0.0
C55 C 0.29302 0.31619 0.36736 0.0
C56 C 0.35514 0.39284 0.43882 0.0
C57 C 0.28455 0.43052 0.32399 0.0
O58 O 0.33105 0.32017 0.35303 0.0
O59 O 0.27902 0.34999 0.3837 0.0
O60 O 0.2829 0.44158 0.35569 0.0
O61 O 0.31482 0.40291 0.31614 0.0
C62 C 0.41795 0.4246 0.35137 0.0
O63 O 0.33124 0.42294 0.42501 0.0
O64 O 0.36994 0.36331 0.41844 0.0
In65 In 0.1045 0.3536 0.86422 0.0
O66 O 0.08668 0.33316 0.91965 0.0
O67 O 0.12954 0.38985 0.91164 0.0
C68 C 0.08183 0.29933 0.81161 0.0
C69 C 0.04239 0.41622 0.85709 0.0
C70 C 0.19064 0.33334 0.85832 0.0
O71 O 0.07815 0.28683 0.84289 0.0
O72 O 0.09461 0.33943 0.80759 0.0
O73 O 0.1761 0.37064 0.84729 0.0
O74 O 0.16178 0.30754 0.87155 0.0
C75 C 0.10976 0.36473 0.93296 0.0
O76 O 0.0835 0.42461 0.85128 0.0
O77 O 0.03314 0.37614 0.86483 0.0
In78 In 0.13307 0.08474 0.36637 0.0
O79 O 0.15419 0.04632 0.4151 0.0
O80 O 0.11343 0.10481 0.42037 0.0
C81 C 0.17075 0.05183 0.30811 0.0
C82 C 0.04948 0.05653 0.35825 0.0
C83 C 0.17689 0.16262 0.36401 0.0
O84 O 0.18893 0.047 0.33749 0.0
O85 O 0.13248 0.06957 0.30907 0.0
O86 O 0.13517 0.16055 0.35783 0.0
O87 O 0.19542 0.12599 0.37119 0.0
C88 C 0.13368 0.07319 0.43506 0.0
O89 O 0.05962 0.09736 0.35374 0.0
O90 O 0.08135 0.03065 0.36616 0.0
In91 In 0.40539 0.16135 0.86382 0.0
O92 O 0.39316 0.09292 0.83962 0.0
O93 O 0.45751 0.10816 0.86247 0.0
C94 C 0.34424 0.22516 0.86274 0.0
C95 C 0.38912 0.14074 0.92982 0.0
C96 C 0.45094 0.20377 0.81479 0.0
O97 O 0.33721 0.18747 0.84822 0.0
O98 O 0.38164 0.23004 0.87774 0.0
O99 O 0.46521 0.2031 0.84585 0.0
O100 O 0.41592 0.18093 0.80887 0.0
C101 C 0.4325 0.07995 0.84727 0.0
O102 O 0.42192 0.16575 0.92124 0.0
O103 O 0.36562 0.12605 0.90497 0.0
In104 In 0.62457 0.89566 0.8706 0.0
O105 O 0.55374 0.89572 0.84813 0.0
O106 O 0.58321 0.9577 0.86481 0.0
C107 C 0.65991 0.81394 0.86832 0.0
C108 C 0.6124 0.89587 0.93923 0.0
C109 C 0.68338 0.92695 0.82398 0.0
O110 O 0.62312 0.82227 0.8532 0.0
O111 O 0.6772 0.84606 0.88482 0.0
O112 O 0.68566 0.93841 0.85554 0.0
O113 O 0.65092 0.90169 0.8163 0.0
C114 C 0.54972 0.9376 0.85212 0.0
O115 O 0.6403 0.922 0.92488 0.0
O116 O 0.59006 0.8712 0.91897 0.0
In117 In 0.60273 0.62036 0.36561 0.0
O118 O 0.58308 0.64356 0.41999 0.0
O119 O 0.61706 0.58157 0.41413 0.0
C120 C 0.57371 0.66677 0.31126 0.0
C121 C 0.55899 0.54622 0.35004 0.0
C122 C 0.6816 0.66215 0.36536 0.0
O123 O 0.56095 0.67649 0.34177 0.0
O124 O 0.59788 0.63219 0.30871 0.0
O125 O 0.6791 0.6208 0.35765 0.0
O126 O 0.64501 0.68067 0.37306 0.0
C127 C 0.60087 0.6101 0.43473 0.0
O128 O 0.60105 0.54933 0.3451 0.0
O129 O 0.53963 0.58058 0.36223 0.0
In130 In 0.81805 0.58249 0.87494 0.0
O131 O 0.81182 0.56574 0.93214 0.0
O132 O 0.85227 0.62195 0.91701 0.0
C133 C 0.77106 0.54258 0.82521 0.0
C134 C 0.893 0.53746 0.86387 0.0
C135 C 0.76791 0.65486 0.86967 0.0
O136 O 0.76628 0.53138 0.85674 0.0
O137 O 0.80041 0.57237 0.81942 0.0
O138 O 0.80688 0.65329 0.85624 0.0
O139 O 0.75492 0.62014 0.88555 0.0
C140 C 0.83741 0.59786 0.94132 0.0
O141 O 0.88995 0.57846 0.8554 0.0
O142 O 0.85823 0.52 0.8769 0.0
In143 In 0.89585 0.84349 0.37617 0.0
O144 O 0.92685 0.83488 0.43002 0.0
O145 O 0.86234 0.86595 0.425 0.0
C146 C 0.93565 0.80573 0.32103 0.0
C147 C 0.92124 0.92688 0.36559 0.0
C148 C 0.82614 0.78897 0.3691 0.0
O149 O 0.93881 0.78852 0.35091 0.0
O150 O 0.91745 0.84371 0.32061 0.0
O151 O 0.82345 0.82979 0.36023 0.0
O152 O 0.86304 0.77673 0.38183 0.0
C153 C 0.89362 0.8536 0.44477 0.0
O154 O 0.88145 0.91437 0.35855 0.0
O155 O 0.94732 0.8974 0.37767 0.0
In156 In 0.63135 0.59027 0.65402 0.0
O157 O 0.65138 0.57044 0.59892 0.0
O158 O 0.59298 0.60958 0.6059 0.0
C159 C 0.67159 0.54453 0.70437 0.0
C160 C 0.54846 0.56762 0.67153 0.0
C161 C 0.68781 0.65913 0.65701 0.0
O162 O 0.651 0.58085 0.70919 0.0
O163 O 0.67076 0.52947 0.67359 0.0
O164 O 0.64828 0.66246 0.6689 0.0
O165 O 0.69772 0.62223 0.64321 0.0
C166 C 0.61933 0.59124 0.58473 0.0
O167 O 0.5618 0.60787 0.67451 0.0
O168 O 0.57679 0.53981 0.66008 0.0
In169 In 0.89894 0.65259 0.15137 0.0
O170 O 0.89164 0.58218 0.17264 0.0
O171 O 0.95316 0.60167 0.14744 0.0
C172 C 0.83315 0.71166 0.15663 0.0
C173 C 0.88135 0.63686 0.08477 0.0
C174 C 0.94422 0.69636 0.20036 0.0
O175 O 0.82891 0.67233 0.16881 0.0
O176 O 0.87012 0.72022 0.14209 0.0
O177 O 0.95545 0.69927 0.16869 0.0
O178 O 0.91264 0.66928 0.20685 0.0
C179 C 0.9306 0.57134 0.16229 0.0
O180 O 0.9143 0.66131 0.09406 0.0
O181 O 0.85828 0.62047 0.10912 0.0
In182 In 0.85828 0.88094 0.65964 0.0
O183 O 0.84367 0.91116 0.60645 0.0
O184 O 0.88835 0.85528 0.61012 0.0
C185 C 0.80967 0.91394 0.71224 0.0
C186 C 0.9367 0.91869 0.67395 0.0
C187 C 0.8159 0.80215 0.66149 0.0
O188 O 0.7989 0.92134 0.68101 0.0
O189 O 0.84615 0.89319 0.7162 0.0
O190 O 0.85651 0.80559 0.67105 0.0
O191 O 0.79805 0.83785 0.65104 0.0
C192 C 0.86886 0.88328 0.59101 0.0
O193 O 0.92988 0.87744 0.67974 0.0
O194 O 0.90392 0.94035 0.66184 0.0
In195 In 0.59595 0.85328 0.15473 0.0
O196 O 0.56852 0.83815 0.10051 0.0
O197 O 0.62179 0.88574 0.10596 0.0
C198 C 0.56453 0.792 0.19923 0.0
C199 C 0.55096 0.9274 0.17045 0.0
C200 C 0.68007 0.82483 0.16072 0.0
O201 O 0.5577 0.78847 0.167 0.0
O202 O 0.58519 0.82686 0.20858 0.0
O203 O 0.66719 0.85979 0.17644 0.0
O204 O 0.6513 0.80607 0.14167 0.0
C205 C 0.5952 0.86532 0.086 0.0
O206 O 0.59295 0.92523 0.1748 0.0
O207 O 0.53232 0.8923 0.15925 0.0
C208 C 0.41375 0.11768 0.98942 0.0
C209 C 0.37864 0.12915 0.96643 0.0
C210 C 0.32383 0.11465 0.0127 0.0
C211 C 0.35946 0.10859 0.03655 0.0
N212 N 0.43887 0.11602 0.04863 0.0
N213 N 0.30016 0.1472 0.9586 0.0
C214 C 0.40456 0.11384 0.0253 0.0
C215 C 0.33354 0.12972 0.97861 0.0
N216 N 0.45549 0.10794 0.97697 0.0
N217 N 0.28049 0.10708 0.02265 0.0
H218 H 0.30531 0.15999 0.93395 0.0
H219 H 0.26792 0.15334 0.96775 0.0
H220 H 0.27119 0.09979 0.04797 0.0
H221 H 0.25391 0.10533 1.00522 0.0
H222 H 0.48098 0.09507 0.99241 0.0
H223 H 0.46314 0.1074 0.95067 0.0
H224 H 0.47163 0.12416 0.04165 0.0
H225 H 0.43418 0.11449 0.07523 0.0
C226 C 0.39063 0.42215 0.49362 0.0
C227 C 0.36349 0.38988 0.47651 0.0
C228 C 0.36427 0.34264 0.52809 0.0
C229 C 0.38773 0.3766 0.54629 0.0
N230 N 0.41928 0.45085 0.54821 0.0
N231 N 0.31578 0.32491 0.47978 0.0
C232 C 0.39967 0.41712 0.5296 0.0
C233 C 0.34795 0.35157 0.49439 0.0
N234 N 0.40922 0.45647 0.47524 0.0
N235 N 0.35794 0.30165 0.54286 0.0
H236 H 0.30133 0.33197 0.45587 0.0
H237 H 0.29994 0.29889 0.49285 0.0
H238 H 0.36936 0.29388 0.56758 0.0
H239 H 0.34492 0.27422 0.52949 0.0
H240 H 0.43318 0.47827 0.48536 0.0
H241 H 0.40304 0.46131 0.44898 0.0
H242 H 0.42411 0.48302 0.53865 0.0
H243 H 0.42852 0.4473 0.57408 0.0
C244 C 0.10176 0.41202 0.98681 0.0
C245 C 0.11547 0.37122 0.97088 0.0
C246 C 0.14607 0.34591 0.02644 0.0
C247 C 0.1272 0.38392 0.04292 0.0
N248 N 0.08213 0.4505 0.04002 0.0
N249 N 0.14979 0.29838 0.97557 0.0
C250 C 0.10396 0.41645 0.02343 0.0
C251 C 0.13718 0.33777 0.99078 0.0
N252 N 0.08714 0.44689 0.96707 0.0
N253 N 0.17413 0.31867 0.04471 0.0
H254 H 0.1474 0.29235 0.94907 0.0
H255 H 0.16061 0.27063 0.98939 0.0
H256 H 0.18229 0.32457 0.07056 0.0
H257 H 0.19258 0.29279 0.0337 0.0
H258 H 0.08163 0.47888 0.97691 0.0
H259 H 0.0839 0.44524 0.94031 0.0
H260 H 0.0598 0.47191 0.02772 0.0
H261 H 0.08359 0.45536 0.06671 0.0
C262 C 0.08796 0.06862 0.52609 0.0
C263 C 0.12548 0.08468 0.54518 0.0
C264 C 0.17135 0.08442 0.49229 0.0
C265 C 0.13354 0.06967 0.47323 0.0
N266 N 0.05956 0.03791 0.47192 0.0
N267 N 0.20556 0.09806 0.54809 0.0
C268 C 0.0929 0.05878 0.4902 0.0
C269 C 0.1681 0.08916 0.52885 0.0
N270 N 0.04767 0.06274 0.54235 0.0
N271 N 0.20965 0.09635 0.47517 0.0
H272 H 0.20502 0.10424 0.57455 0.0
H273 H 0.238 0.09627 0.5383 0.0
H274 H 0.214 0.09141 0.44868 0.0
H275 H 0.2362 0.11351 0.48666 0.0
H276 H 0.0177 0.05642 0.52945 0.0
H277 H 0.04373 0.0655 0.56906 0.0
H278 H 0.03019 0.02557 0.48283 0.0
H279 H 0.06305 0.02945 0.44585 0.0
C280 C 0.63562 0.85486 0.03014 0.0
C281 C 0.59766 0.87137 0.0481 0.0
C282 C 0.56889 0.90418 0.99445 0.0
C283 C 0.6087 0.89073 0.97719 0.0
N284 N 0.68263 0.85815 0.97915 0.0
N285 N 0.53023 0.91545 0.0491 0.0
C286 C 0.64297 0.86771 0.99527 0.0
C287 C 0.56468 0.89691 0.0307 0.0
N288 N 0.66355 0.82513 0.04605 0.0
N289 N 0.53504 0.92363 0.97606 0.0
H290 H 0.5254 0.9096 0.07541 0.0
H291 H 0.50798 0.93871 0.03896 0.0
H292 H 0.53812 0.93206 0.95002 0.0
H293 H 0.50317 0.92946 0.98601 0.0
H294 H 0.68922 0.80812 0.03344 0.0
H295 H 0.65843 0.81409 0.07128 0.0
H296 H 0.71072 0.84604 0.992 0.0
H297 H 0.68887 0.86535 0.95326 0.0
C298 C 0.63563 0.56571 0.5232 0.0
C299 C 0.61374 0.59558 0.5463 0.0
C300 C 0.5759 0.62842 0.49616 0.0
C301 C 0.60487 0.60518 0.47319 0.0
N302 N 0.67483 0.56358 0.46905 0.0
N303 N 0.57474 0.66702 0.55069 0.0
C304 C 0.63851 0.5772 0.48777 0.0
C305 C 0.58714 0.63044 0.53178 0.0
N306 N 0.65244 0.52579 0.53414 0.0
N307 N 0.53709 0.64747 0.48484 0.0
H308 H 0.58747 0.6743 0.57512 0.0
H309 H 0.55741 0.69372 0.53975 0.0
H310 H 0.5247 0.64301 0.4599 0.0
H311 H 0.51427 0.66229 0.50179 0.0
H312 H 0.66642 0.50266 0.517 0.0
H313 H 0.64657 0.51298 0.55872 0.0
H314 H 0.70075 0.54511 0.48008 0.0
H315 H 0.68275 0.57631 0.44479 0.0
C316 C 0.81392 0.61771 1.00197 0.0
C317 C 0.84865 0.60773 0.97805 0.0
C318 C 0.90417 0.61297 0.02483 0.0
C319 C 0.87021 0.62735 0.04796 0.0
N320 N 0.79361 0.65109 0.05684 0.0
N321 N 0.92825 0.60502 0.96556 0.0
C322 C 0.82523 0.63157 0.03614 0.0
C323 C 0.89419 0.6084 0.98906 0.0
N324 N 0.77 0.61463 0.99208 0.0
N325 N 0.94536 0.60096 0.03719 0.0
H326 H 0.92327 0.60042 0.93917 0.0
H327 H 0.96174 0.6106 0.97196 0.0
H328 H 0.95373 0.60188 0.06334 0.0
H329 H 0.96962 0.58537 0.02201 0.0
H330 H 0.7434 0.61549 1.0095 0.0
H331 H 0.75983 0.60861 0.96672 0.0
H332 H 0.76192 0.66027 0.04815 0.0
H333 H 0.79999 0.66209 0.08192 0.0
C334 C 0.92083 0.88712 0.50107 0.0
C335 C 0.88966 0.86001 0.4827 0.0
C336 C 0.84052 0.85831 0.53347 0.0
C337 C 0.87382 0.88082 0.553 0.0
N338 N 0.94773 0.91323 0.55691 0.0
N339 N 0.82504 0.81145 0.48375 0.0
C340 C 0.91471 0.89413 0.53725 0.0
C341 C 0.85084 0.8434 0.49955 0.0
N342 N 0.95498 0.90784 0.48378 0.0
N343 N 0.79893 0.8513 0.54724 0.0
H344 H 0.83327 0.79771 0.45975 0.0
H345 H 0.79865 0.79502 0.49599 0.0
H346 H 0.7902 0.86162 0.57212 0.0
H347 H 0.77201 0.83891 0.53293 0.0
H348 H 0.9757 0.93192 0.49503 0.0
H349 H 0.96049 0.90362 0.45736 0.0
H350 H 0.98015 0.91886 0.54791 0.0
H351 H 0.94331 0.92132 0.58296 0.0
C352 C 0.21104 0.24895 0.18681 0.0
C353 C 0.18338 0.26141 0.15875 0.0
C354 C 0.2189 0.20523 0.12209 0.0
C355 C 0.24455 0.19053 0.15083 0.0
N356 N 0.2547 0.19008 0.21289 0.0
N357 N 0.15249 0.24423 0.10278 0.0
C358 C 0.23766 0.20989 0.18397 0.0
C359 C 0.18426 0.23681 0.12749 0.0
N360 N 0.21304 0.27514 0.21574 0.0
N361 N 0.22955 0.1916 0.08932 0.0
H362 H 0.1267 0.26735 0.10613 0.0
H363 H 0.14924 0.22451 0.08064 0.0
H364 H 0.25685 0.17112 0.08378 0.0
H365 H 0.21451 0.20471 0.06728 0.0
H366 H 0.23736 0.27087 0.23478 0.0
H367 H 0.19242 0.30288 0.21939 0.0
H368 H 0.24703 0.20085 0.23785 0.0
H369 H 0.2724 0.16007 0.2122 0.0
C370 C 0.27832 0.24751 0.68445 0.0
C371 C 0.28985 0.2716 0.65428 0.0
C372 C 0.23919 0.22509 0.61987 0.0
C373 C 0.22453 0.20342 0.6505 0.0
N374 N 0.22258 0.20207 0.7131 0.0
N375 N 0.27452 0.29049 0.59502 0.0
C376 C 0.24206 0.21667 0.68319 0.0
C377 C 0.26827 0.26249 0.62247 0.0
N378 N 0.30276 0.25308 0.71403 0.0
N379 N 0.22651 0.20911 0.58817 0.0
H380 H 0.29471 0.319 0.59645 0.0
H381 H 0.25631 0.28808 0.57211 0.0
H382 H 0.20566 0.18142 0.58499 0.0
H383 H 0.24005 0.22063 0.56502 0.0
H384 H 0.29913 0.23252 0.73554 0.0
H385 H 0.32912 0.27595 0.71608 0.0
H386 H 0.23101 0.21477 0.73738 0.0
H387 H 0.19496 0.18072 0.71364 0.0
C388 C 0.23644 0.26945 0.33601 0.0
C389 C 0.2654 0.27548 0.36473 0.0
C390 C 0.22895 0.2139 0.39495 0.0
C391 C 0.20302 0.20467 0.36499 0.0
N392 N 0.18463 0.22058 0.30554 0.0
N393 N 0.29577 0.24869 0.41837 0.0
C394 C 0.20719 0.23177 0.3351 0.0
C395 C 0.26358 0.24627 0.3933 0.0
N396 N 0.2364 0.30018 0.30995 0.0
N397 N 0.21915 0.19294 0.42539 0.0
H398 H 0.3225 0.27122 0.41717 0.0
H399 H 0.29856 0.22556 0.43832 0.0
H400 H 0.19236 0.17069 0.42795 0.0
H401 H 0.23424 0.20125 0.44885 0.0
H402 H 0.21268 0.30056 0.29029 0.0
H403 H 0.25874 0.32705 0.30902 0.0
H404 H 0.19002 0.23592 0.28181 0.0
H405 H 0.16202 0.19407 0.30413 0.0
C406 C 0.29038 0.27558 0.89342 0.0
C407 C 0.31105 0.26158 0.86218 0.0
C408 C 0.262 0.31063 0.82867 0.0
C409 C 0.23837 0.32061 0.85946 0.0
N410 N 0.23864 0.32686 0.92132 0.0
N411 N 0.32742 0.27632 0.80233 0.0
C412 C 0.25568 0.30779 0.89197 0.0
C413 C 0.30026 0.28245 0.8304 0.0
N414 N 0.30238 0.25662 0.92415 0.0
N415 N 0.24682 0.32656 0.79782 0.0
H416 H 0.35577 0.25599 0.80295 0.0
H417 H 0.32441 0.29453 0.7796 0.0
H418 H 0.22152 0.35044 0.79631 0.0
H419 H 0.25858 0.31564 0.7739 0.0
H420 H 0.28467 0.26111 0.94708 0.0
H421 H 0.32903 0.23443 0.9266 0.0
H422 H 0.25171 0.32186 0.94594 0.0
H423 H 0.21385 0.35141 0.92044 0.0
C424 C 0.69317 0.74962 0.89938 0.0
C425 C 0.68236 0.77005 0.86747 0.0
C426 C 0.7242 0.71207 0.83643 0.0
C427 C 0.73956 0.69522 0.86853 0.0
N428 N 0.7453 0.70291 0.93054 0.0
N429 N 0.69294 0.77513 0.80569 0.0
C430 C 0.72574 0.71524 0.90006 0.0
C431 C 0.69905 0.75238 0.8359 0.0
N432 N 0.67163 0.76259 0.92895 0.0
N433 N 0.73228 0.68887 0.80658 0.0
H434 H 0.67474 0.80476 0.80412 0.0
H435 H 0.70889 0.76648 0.78266 0.0
H436 H 0.75056 0.65919 0.80587 0.0
H437 H 0.71739 0.69695 0.78307 0.0
H438 H 0.67512 0.74612 0.95247 0.0
H439 H 0.6467 0.78702 0.92919 0.0
H440 H 0.73975 0.71949 0.95387 0.0
H441 H 0.77068 0.67909 0.93196 0.0
C442 C 0.72896 0.71712 0.3964 0.0
C443 C 0.7236 0.68853 0.36731 0.0
C444 C 0.7882 0.72447 0.33967 0.0
C445 C 0.78864 0.75707 0.36647 0.0
N446 N 0.75526 0.78865 0.41773 0.0
N447 N 0.74627 0.66667 0.30966 0.0
C448 C 0.75769 0.7547 0.39404 0.0
C449 C 0.75298 0.69226 0.33855 0.0
N450 N 0.70759 0.70733 0.42673 0.0
N451 N 0.82171 0.72401 0.31556 0.0
H452 H 0.72224 0.64144 0.30817 0.0
H453 H 0.76284 0.67222 0.28636 0.0
H454 H 0.84697 0.74816 0.31479 0.0
H455 H 0.82612 0.69818 0.29775 0.0
H456 H 0.71334 0.72472 0.44971 0.0
H457 H 0.68805 0.6786 0.42985 0.0
H458 H 0.73036 0.79058 0.43656 0.0
H459 H 0.77555 0.81707 0.41654 0.0
C460 C 0.76763 0.74977 0.6285 0.0
C461 C 0.79038 0.75962 0.65979 0.0
C462 C 0.74901 0.69941 0.68859 0.0
C463 C 0.72129 0.69528 0.65892 0.0
N464 N 0.70187 0.71786 0.60109 0.0
N465 N 0.80409 0.74335 0.71995 0.0
C466 C 0.73 0.72078 0.62893 0.0
C467 C 0.78191 0.73395 0.6899 0.0
N468 N 0.78344 0.76686 0.59814 0.0
N469 N 0.74487 0.66941 0.71499 0.0
H470 H 0.83098 0.76554 0.72127 0.0
H471 H 0.7948 0.73032 0.74383 0.0
H472 H 0.72015 0.64467 0.71551 0.0
H473 H 0.76789 0.66691 0.73512 0.0
H474 H 0.77081 0.75802 0.57395 0.0
H475 H 0.81275 0.78595 0.59701 0.0
H476 H 0.70391 0.73909 0.57986 0.0
H477 H 0.6741 0.69656 0.60039 0.0
C478 C 0.77837 0.75617 0.19197 0.0
C479 C 0.79769 0.74603 0.15928 0.0
C480 C 0.75066 0.80307 0.13232 0.0
C481 C 0.7256 0.80624 0.16315 0.0
N482 N 0.71477 0.78704 0.22299 0.0
N483 N 0.80048 0.75851 0.09736 0.0
C484 C 0.73955 0.78365 0.1934 0.0
C485 C 0.78393 0.76963 0.12922 0.0
N486 N 0.79792 0.74075 0.22157 0.0
N487 N 0.74264 0.8325 0.1061 0.0
H488 H 0.82486 0.73425 0.09331 0.0
H489 H 0.78732 0.77082 0.07436 0.0
H490 H 0.71878 0.85785 0.1082 0.0
H491 H 0.76253 0.8348 0.08405 0.0
H492 H 0.78787 0.75043 0.24625 0.0
H493 H 0.82725 0.72185 0.22154 0.0
H494 H 0.72058 0.76788 0.24493 0.0
H495 H 0.68682 0.80773 0.2251 0.0
C496 C 0.22485 0.00666 0.2711 0.0
C497 C 0.19439 0.043 0.27467 0.0
C498 C 0.20675 0.0612 0.2137 0.0
C499 C 0.24391 0.03217 0.21269 0.0
N500 N 0.29035 0.97797 0.24101 0.0
N501 N 0.16696 0.11263 0.25003 0.0
C502 C 0.25347 0.00485 0.24156 0.0
C503 C 0.1876 0.07216 0.24604 0.0
N504 N 0.22571 0.9734 0.29516 0.0
N505 N 0.1909 0.07988 0.184 0.0
H506 H 0.15743 0.12572 0.27383 0.0
H507 H 0.16524 0.13619 0.23027 0.0
H508 H 0.20338 0.07122 0.15974 0.0
H509 H 0.16194 0.0993 0.1833 0.0
H510 H 0.24494 0.94458 0.29232 0.0
H511 H 0.20353 0.97221 0.31596 0.0
H512 H 0.30201 0.96108 0.26272 0.0
H513 H 0.31039 0.97453 0.21903 0.0
C514 C 0.47325 0.30551 0.75956 0.0
C515 C 0.46592 0.28495 0.72699 0.0
C516 C 0.47546 0.2117 0.75397 0.0
C517 C 0.47009 0.23189 0.78687 0.0
N518 N 0.46583 0.29922 0.82159 0.0
N519 N 0.46192 0.21739 0.69248 0.0
C520 C 0.47091 0.27922 0.79004 0.0
C521 C 0.46889 0.23773 0.72371 0.0
N522 N 0.48175 0.35038 0.7611 0.0
N523 N 0.48595 0.16735 0.75199 0.0
H524 H 0.45794 0.23489 0.6695 0.0
H525 H 0.45785 0.18296 0.68962 0.0
H526 H 0.49157 0.14834 0.77415 0.0
H527 H 0.49366 0.15101 0.72892 0.0
H528 H 0.49085 0.36705 0.78375 0.0
H529 H 0.48432 0.36982 0.73881 0.0
H530 H 0.45989 0.33332 0.82469 0.0
H531 H 0.46547 0.28165 0.84475 0.0
C532 C 0.23062 0.46302 0.23909 0.0
C533 C 0.19512 0.43115 0.23876 0.0
C534 C 0.20812 0.41804 0.30065 0.0
C535 C 0.24928 0.44134 0.29844 0.0
N536 N 0.3009 0.48598 0.26548 0.0
N537 N 0.15618 0.37143 0.26944 0.0
C538 C 0.26077 0.46409 0.26764 0.0
C539 C 0.18481 0.40729 0.26974 0.0
N540 N 0.23475 0.49316 0.21283 0.0
N541 N 0.19237 0.40411 0.33198 0.0
H542 H 0.14295 0.35706 0.24716 0.0
H543 H 0.1501 0.35162 0.29103 0.0
H544 H 0.20893 0.41069 0.35515 0.0
H545 H 0.16045 0.39056 0.33532 0.0
H546 H 0.25795 0.51927 0.21317 0.0
H547 H 0.21167 0.49527 0.19267 0.0
H548 H 0.31362 0.49865 0.24241 0.0
H549 H 0.32234 0.48948 0.28666 0.0
C550 C 0.04143 0.20556 0.75071 0.0
C551 C 0.07166 0.21142 0.7228 0.0
C552 C 0.1102 0.27045 0.75474 0.0
C553 C 0.07757 0.26825 0.78146 0.0
N554 N 0.0065 0.23902 0.80125 0.0
N555 N 0.12579 0.25841 0.69426 0.0
C556 C 0.04141 0.23728 0.77847 0.0
C557 C 0.10276 0.24711 0.72344 0.0
N558 N 0.01339 0.1694 0.75093 0.0
N559 N 0.15019 0.29172 0.76012 0.0
H560 H 0.11958 0.24314 0.67049 0.0
H561 H 0.14673 0.28632 0.69286 0.0
H562 H 0.15938 0.30489 0.78404 0.0
H563 H 0.17652 0.29072 0.74242 0.0
H564 H -0.00588 0.16047 0.77229 0.0
H565 H 0.01139 0.14699 0.73021 0.0
H566 H 0.97751 0.21985 0.79845 0.0
H567 H 0.00463 0.26263 0.8211 0.0
C568 C 0.75153 0.895 0.79803 0.0
C569 C 0.72142 0.93124 0.79972 0.0
C570 C 0.75415 0.96141 0.74639 0.0
C571 C 0.77871 0.92105 0.74198 0.0
N572 N 0.78801 0.84384 0.7594 0.0
N573 N 0.69077 -0.00224 0.77434 0.0
C574 C 0.77423 0.88635 0.76678 0.0
C575 C 0.72178 0.9643 0.77356 0.0
N576 N 0.75779 0.86814 0.82606 0.0
N577 N 0.7625 -0.00283 0.7255 0.0
H578 H 0.66811 0.00149 0.79471 0.0
H579 H 0.68609 0.02008 0.75405 0.0
H580 H 0.78675 -0.00344 0.7061 0.0
H581 H 0.74831 0.02856 0.72948 0.0
H582 H 0.78185 0.84292 0.82672 0.0
H583 H 0.74285 0.87473 0.84986 0.0
H584 H 0.78199 0.8168 0.7757 0.0
H585 H 0.79944 0.83435 0.73506 0.0
C586 C 0.60546 0.70464 0.25918 0.0
C587 C 0.56806 0.6972 0.28123 0.0
C588 C 0.52436 0.75028 0.24661 0.0
C589 C 0.56073 0.75386 0.22322 0.0
N590 N 0.63012 0.72354 0.20169 0.0
N591 N 0.48876 0.70628 0.29163 0.0
C592 C 0.59913 0.72699 0.22753 0.0
C593 C 0.52641 0.71809 0.27375 0.0
N594 N 0.64784 0.69391 0.2696 0.0
N595 N 0.48841 0.77805 0.24323 0.0
H596 H 0.48883 0.68189 0.31082 0.0
H597 H 0.45686 0.71761 0.28522 0.0
H598 H 0.48539 0.8004 0.2227 0.0
H599 H 0.46305 0.78048 0.26165 0.0
H600 H 0.67638 0.70132 0.2552 0.0
H601 H 0.65519 0.6834 0.29457 0.0
H602 H 0.65712 0.70153 0.20269 0.0
H603 H 0.62584 0.73873 0.17774 0.0
C604 C 0.76659 0.51503 0.76464 0.0
C605 C 0.74399 0.52429 0.79613 0.0
C606 C 0.67254 0.51994 0.76525 0.0
C607 C 0.69584 0.52363 0.73355 0.0
N608 N 0.76595 0.52253 0.70237 0.0
N609 N 0.67379 0.53456 0.82669 0.0
C610 C 0.74312 0.51925 0.73285 0.0
C611 C 0.69636 0.52515 0.79682 0.0
N612 N 0.81066 0.50281 0.76535 0.0
N613 N 0.62739 0.51245 0.76484 0.0
H614 H 0.68922 0.53814 0.85063 0.0
H615 H 0.63958 0.54138 0.82738 0.0
H616 H 0.60988 0.50794 0.74169 0.0
H617 H 0.60864 0.50596 0.78699 0.0
H618 H 0.82822 0.49228 0.74352 0.0
H619 H 0.82812 0.49873 0.78853 0.0
H620 H 0.80069 0.52563 0.70098 0.0
H621 H 0.75012 0.52428 0.67843 0.0
C622 C 0.9791 0.74769 0.28609 0.0
C623 C 0.94501 0.78089 0.28816 0.0
C624 C 0.93059 0.77011 0.2264 0.0
C625 C 0.95618 0.73057 0.22655 0.0
N626 N 0.004 0.67977 0.25717 0.0
N627 N 0.87844 0.81188 0.26052 0.0
C628 C 0.98045 0.7188 0.25661 0.0
C629 C 0.91827 0.7895 0.2583 0.0
N630 N 0.01068 0.74437 0.31146 0.0
N631 N 0.91591 0.78784 0.19602 0.0
H632 H 0.86289 0.82011 0.28375 0.0
H633 H 0.85713 0.81584 0.23939 0.0
H634 H 0.92571 0.7751 0.17209 0.0
H635 H 0.899 0.81829 0.19478 0.0
H636 H 0.03796 0.72278 0.30979 0.0
H637 H 0.01247 0.76664 0.33222 0.0
H638 H 0.01836 0.66693 0.27959 0.0
H639 H 0.00709 0.65938 0.23532 0.0
C640 C 0.46363 0.01159 0.19679 0.0
C641 C 0.45218 0.02654 0.16317 0.0
C642 C 0.51975 -0.00816 0.13972 0.0
C643 C 0.52582 0.96956 0.17144 0.0
N644 N 0.50619 0.95829 0.23095 0.0
N645 N 0.46709 0.02802 0.10176 0.0
C646 C 0.49903 0.98011 0.2005 0.0
C647 C 0.48003 0.01653 0.13442 0.0
N648 N 0.43987 0.02639 0.22476 0.0
N649 N 0.55154 0.98828 0.11444 0.0
H650 H 0.4376 0.04528 0.09669 0.0
H651 H 0.48352 0.01722 0.0795 0.0
H652 H 0.581 0.9701 0.11787 0.0
H653 H 0.55083 0.00674 0.09166 0.0
H654 H 0.44867 0.01948 0.25022 0.0
H655 H 0.41299 0.04844 0.22257 0.0
H656 H 0.48487 0.96037 0.25218 0.0
H657 H 0.53317 0.93658 0.23439 0.0
C658 C 0.49459 0.52853 0.70943 0.0
C659 C 0.5023 0.55289 0.67879 0.0
C660 C 0.43685 0.51819 0.65173 0.0
C661 C 0.43639 0.48664 0.67884 0.0
N662 N 0.45738 0.46488 0.73619 0.0
N663 N 0.47748 0.57841 0.62327 0.0
C664 C 0.4622 0.49359 0.70906 0.0
C665 C 0.47144 0.55097 0.65104 0.0
N666 N 0.51949 0.53822 0.73812 0.0
N667 N 0.40527 0.51519 0.62626 0.0
H668 H 0.50169 0.60369 0.62325 0.0
H669 H 0.45919 0.57623 0.60043 0.0
H670 H 0.3799 0.49106 0.62686 0.0
H671 H 0.40216 0.53787 0.6061 0.0
H672 H 0.51499 0.5231 0.76204 0.0
H673 H 0.54298 0.56421 0.73826 0.0
H674 H 0.47786 0.4649 0.75795 0.0
H675 H 0.43242 0.44031 0.73647 0.0
C676 C 0.98317 0.46397 0.13175 0.0
C677 C 0.00753 0.45307 0.1619 0.0
C678 C 0.96607 0.50913 0.19529 0.0
C679 C 0.94807 0.5253 0.16389 0.0
N680 N 0.93322 0.51615 0.10312 0.0
N681 N 0.02038 0.46045 0.22304 0.0
C682 C 0.95412 0.50151 0.13242 0.0
C683 C -0.00241 0.47349 0.19414 0.0
N684 N 0.98856 0.43848 0.10261 0.0
N685 N 0.95377 0.52872 0.22583 0.0
H686 H 0.04214 0.4332 0.22302 0.0
H687 H 0.01874 0.4768 0.24679 0.0
H688 H 0.9312 0.55526 0.22703 0.0
H689 H 0.96322 0.51708 0.25004 0.0
H690 H 0.97049 0.44273 0.07989 0.0
H691 H 0.00949 0.41055 0.10199 0.0
H692 H 0.93945 0.5038 0.07842 0.0
H693 H 0.90947 0.54169 0.10354 0.0
C694 C 0.01502 0.93579 0.65596 0.0
C695 C 0.97994 0.94126 0.68027 0.0
C696 C 0.01819 0.00615 0.70553 0.0
C697 C 0.04832 0.00555 0.67731 0.0
N698 N 0.07831 0.96988 0.62647 0.0
N699 N 0.94895 0.9777 0.73036 0.0
C700 C 0.04834 0.96969 0.65322 0.0
C701 C 0.98225 0.97487 0.70617 0.0
N702 N 0.0156 0.89887 0.63499 0.0
N703 N 0.02399 0.0371 0.73128 0.0
H704 H 0.92372 0.95359 0.73245 0.0
H705 H 0.94549 0.00408 0.74776 0.0
H706 H 0.05044 0.06006 0.73113 0.0
H707 H 0.00511 0.0381 0.75387 0.0
H708 H 0.04194 0.89093 0.61847 0.0
H709 H 0.99104 0.87404 0.63605 0.0
H710 H 0.07683 0.94807 0.60548 0.0
H711 H 0.10411 -0.00663 0.6246 0.0
C712 C 0.53465 0.46922 0.36578 0.0
C713 C 0.53294 0.50546 0.34236 0.0
C714 C 0.4653 0.47439 0.31569 0.0
C715 C 0.46218 0.44384 0.3434 0.0
N716 N 0.49367 0.40935 0.39403 0.0
N717 N 0.50075 0.54119 0.29264 0.0
C718 C 0.49746 0.43951 0.3677 0.0
C719 C 0.49987 0.50712 0.31611 0.0
N720 N 0.57116 0.46418 0.38674 0.0
N721 N 0.43469 0.4721 0.28944 0.0
H722 H 0.52724 0.56403 0.2913 0.0
H723 H 0.47513 0.54766 0.27513 0.0
H724 H 0.40937 0.44791 0.28882 0.0
H725 H 0.43625 0.4914 0.26716 0.0
H726 H 0.57627 0.43651 0.40247 0.0
H727 H 0.59842 0.48606 0.38626 0.0
H728 H 0.51522 0.40825 0.41515 0.0
H729 H 0.46749 0.38626 0.39553 0.0
C730 C -0.00382 0.47664 0.82932 0.0
C731 C 0.00774 0.45145 0.85906 0.0
C732 C 0.95062 0.49087 0.89285 0.0
C733 C 0.93523 0.51176 0.86222 0.0
N734 N 0.93988 0.52164 0.80049 0.0
N735 N -0.00638 0.43169 0.9188 0.0
C736 C 0.95747 0.5045 0.83026 0.0
C737 C 0.9844 0.45785 0.89073 0.0
N738 N 0.02151 0.47323 0.79998 0.0
N739 N 0.93375 0.5035 0.92429 0.0
H740 H 0.02012 0.4092 0.91986 0.0
H741 H 0.97328 0.43027 0.94064 0.0
H742 H 0.90815 0.52679 0.92718 0.0
H743 H 0.94773 0.49401 0.94781 0.0
H744 H 0.01795 0.49441 0.77887 0.0
H745 H 0.04818 0.45103 0.79746 0.0
H746 H 0.9513 0.51329 0.77588 0.0
H747 H 0.91144 0.54181 0.80007 0.0
C748 C 0.94637 0.0001 0.38902 0.0
C749 C 0.93786 0.9726 0.35986 0.0
C750 C 0.99097 0.01546 0.32516 0.0
C751 C 0.00353 0.03898 0.35547 0.0
N752 N 0.98516 0.0652 0.41242 0.0
N753 N 0.94057 0.96132 0.29838 0.0
C754 C 0.97798 0.03544 0.3861 0.0
C755 C 0.95595 0.98325 0.32709 0.0
N756 N 0.9262 0.99039 0.41982 0.0
N757 N 0.01449 0.02227 0.29532 0.0
H758 H 0.9149 0.93759 0.29964 0.0
H759 H 0.95046 0.96883 0.27328 0.0
H760 H 0.03893 0.04719 0.29329 0.0
H761 H 0.01062 0.00311 0.27301 0.0
H762 H 0.9346 0.00556 0.44321 0.0
H763 H 0.90147 0.96576 0.42197 0.0
H764 H 0.96601 0.06642 0.43488 0.0
H765 H 0.00847 0.09118 0.41038 0.0
C766 C 0.50896 0.99123 0.81452 0.0
C767 C 0.50868 0.96248 0.84355 0.0
C768 C 0.44505 0.00255 0.86842 0.0
C769 C 0.44855 0.03404 0.84128 0.0
N770 N 0.47267 0.05222 0.78391 0.0
N771 N 0.47001 0.9319 0.89264 0.0
C772 C 0.47668 0.02598 0.81256 0.0
C773 C 0.47406 0.96492 0.8685 0.0
N774 N 0.5415 0.98642 0.78993 0.0
N775 N 0.41592 0.01037 0.89503 0.0
H776 H 0.49128 0.90427 0.89316 0.0
H777 H 0.44384 0.92988 0.91033 0.0
H778 H 0.39298 0.03665 0.89461 0.0
H779 H 0.41512 -0.00808 0.91776 0.0
H780 H 0.54693 0.00904 0.76998 0.0
H781 H 0.56414 0.95986 0.79015 0.0
H782 H 0.49026 0.04696 0.76104 0.0
H783 H 0.44847 0.07729 0.78225 0.0
loop_
_geom_bond_atom_site_label_1
_geom_bond_atom_site_label_2
_geom_bond_distance
_geom_bond_site_symmetry_2
_ccdc_geom_bond_type
In0 O1 2.294 . S
In0 O2 2.326 . S
In0 O6 2.266 . S
In0 O7 2.326 . S
In0 O8 2.266 . S
In0 O9 2.326 . S
In0 O11 2.294 . S
In0 O12 2.326 . S
O1 In0 2.294 . S
O1 C10 1.240 . S
O2 In0 2.326 . S
O2 C10 1.252 . S
C3 O6 1.252 . S
C3 O7 1.260 . S
C4 O11 1.240 . S
C4 O12 1.252 . S
C5 O8 1.252 . S
C5 O9 1.260 . S
O6 In0 2.266 . S
O6 C3 1.252 . S
O7 In0 2.326 . S
O7 C3 1.260 . S
O8 In0 2.266 . S
O8 C5 1.252 . S
O9 In0 2.326 . S
O9 C5 1.260 . S
C10 O1 1.240 . S
C10 O2 1.252 . S
O11 In0 2.294 . S
O11 C4 1.240 . S
O12 In0 2.326 . S
O12 C4 1.252 . S
In13 O14 2.294 . S
In13 O15 2.326 . S
In13 O19 2.266 . S
In13 O20 2.326 . S
In13 O21 2.266 . S
In13 O22 2.326 . S
In13 O24 2.294 . S
In13 O25 2.326 . S
O14 In13 2.294 . S
O14 C23 1.240 . S
O15 In13 2.326 . S
O15 C23 1.252 . S
C16 O19 1.252 . S
C16 O20 1.260 . S
C17 O24 1.240 . S
C17 O25 1.252 . S
C18 O21 1.252 . S
C18 O22 1.260 . S
O19 In13 2.266 . S
O19 C16 1.252 . S
O20 In13 2.326 . S
O20 C16 1.260 . S
O21 In13 2.266 . S
O21 C18 1.252 . S
O22 In13 2.326 . S
O22 C18 1.260 . S
C23 O14 1.240 . S
C23 O15 1.252 . S
O24 In13 2.294 . S
O24 C17 1.240 . S
O25 In13 2.326 . S
O25 C17 1.252 . S
In26 O27 2.294 . S
In26 O28 2.326 . S
In26 O32 2.266 . S
In26 O33 2.326 . S
In26 O34 2.266 . S
In26 O35 2.326 . S
In26 O37 2.294 . S
In26 O38 2.326 . S
O27 In26 2.294 . S
O27 C36 1.240 . S
O28 In26 2.326 . S
O28 C36 1.252 . S
C29 O32 1.252 . S
C29 O33 1.260 . S
C30 O37 1.240 . S
C30 O38 1.252 . S
C31 O34 1.252 . S
C31 O35 1.260 . S
O32 In26 2.266 . S
O32 C29 1.252 . S
O33 In26 2.326 . S
O33 C29 1.260 . S
O34 In26 2.266 . S
O34 C31 1.252 . S
O35 In26 2.326 . S
O35 C31 1.260 . S
C36 O27 1.240 . S
C36 O28 1.252 . S
O37 In26 2.294 . S
O37 C30 1.240 . S
O38 In26 2.326 . S
O38 C30 1.252 . S
In39 O40 2.294 . S
In39 O41 2.326 . S
In39 O45 2.266 . S
In39 O46 2.326 . S
In39 O47 2.266 . S
In39 O48 2.326 . S
In39 O50 2.294 . S
In39 O51 2.326 . S
O40 In39 2.294 . S
O40 C49 1.240 . S
O41 In39 2.326 . S
O41 C49 1.252 . S
C42 O45 1.252 . S
C42 O46 1.260 . S
C43 O50 1.240 . S
C43 O51 1.252 . S
C44 O47 1.252 . S
C44 O48 1.260 . S
O45 In39 2.266 . S
O45 C42 1.252 . S
O46 In39 2.326 . S
O46 C42 1.260 . S
O47 In39 2.266 . S
O47 C44 1.252 . S
O48 In39 2.326 . S
O48 C44 1.260 . S
C49 O40 1.240 . S
C49 O41 1.252 . S
O50 In39 2.294 . S
O50 C43 1.240 . S
O51 In39 2.326 . S
O51 C43 1.252 . S
In52 O53 2.294 . S
In52 O54 2.326 . S
In52 O58 2.266 . S
In52 O59 2.326 . S
In52 O60 2.266 . S
In52 O61 2.326 . S
In52 O63 2.294 . S
In52 O64 2.326 . S
O53 In52 2.294 . S
O53 C62 1.240 . S
O54 In52 2.326 . S
O54 C62 1.252 . S
C55 O58 1.252 . S
C55 O59 1.260 . S
C56 O63 1.240 . S
C56 O64 1.252 . S
C57 O60 1.252 . S
C57 O61 1.260 . S
O58 In52 2.266 . S
O58 C55 1.252 . S
O59 In52 2.326 . S
O59 C55 1.260 . S
O60 In52 2.266 . S
O60 C57 1.252 . S
O61 In52 2.326 . S
O61 C57 1.260 . S
C62 O53 1.240 . S
C62 O54 1.252 . S
O63 In52 2.294 . S
O63 C56 1.240 . S
O64 In52 2.326 . S
O64 C56 1.252 . S
In65 O66 2.294 . S
In65 O67 2.326 . S
In65 O71 2.266 . S
In65 O72 2.326 . S
In65 O73 2.266 . S
In65 O74 2.326 . S
In65 O76 2.294 . S
In65 O77 2.326 . S
O66 In65 2.294 . S
O66 C75 1.240 . S
O67 In65 2.326 . S
O67 C75 1.252 . S
C68 O71 1.252 . S
C68 O72 1.260 . S
C69 O76 1.240 . S
C69 O77 1.252 . S
C70 O73 1.252 . S
C70 O74 1.260 . S
O71 In65 2.266 . S
O71 C68 1.252 . S
O72 In65 2.326 . S
O72 C68 1.260 . S
O73 In65 2.266 . S
O73 C70 1.252 . S
O74 In65 2.326 . S
O74 C70 1.260 . S
C75 O66 1.240 . S
C75 O67 1.252 . S
O76 In65 2.294 . S
O76 C69 1.240 . S
O77 In65 2.326 . S
O77 C69 1.252 . S
In78 O79 2.294 . S
In78 O80 2.326 . S
In78 O84 2.266 . S
In78 O85 2.326 . S
In78 O86 2.266 . S
In78 O87 2.326 . S
In78 O89 2.294 . S
In78 O90 2.326 . S
O79 In78 2.294 . S
O79 C88 1.240 . S
O80 In78 2.326 . S
O80 C88 1.252 . S
C81 O84 1.252 . S
C81 O85 1.260 . S
C82 O89 1.240 . S
C82 O90 1.252 . S
C83 O86 1.252 . S
C83 O87 1.260 . S
O84 In78 2.266 . S
O84 C81 1.252 . S
O85 In78 2.326 . S
O85 C81 1.260 . S
O86 In78 2.266 . S
O86 C83 1.252 . S
O87 In78 2.326 . S
O87 C83 1.260 . S
C88 O79 1.240 . S
C88 O80 1.252 . S
O89 In78 2.294 . S
O89 C82 1.240 . S
O90 In78 2.326 . S
O90 C82 1.252 . S
In91 O92 2.294 . S
In91 O93 2.326 . S
In91 O97 2.266 . S
In91 O98 2.326 . S
In91 O99 2.266 . S
In91 O100 2.326 . S
In91 O102 2.294 . S
In91 O103 2.326 . S
O92 In91 2.294 . S
O92 C101 1.240 . S
O93 In91 2.326 . S
O93 C101 1.252 . S
C94 O97 1.252 . S
C94 O98 1.260 . S
C95 O102 1.240 . S
C95 O103 1.252 . S
C96 O99 1.252 . S
C96 O100 1.260 . S
O97 In91 2.266 . S
O97 C94 1.252 . S
O98 In91 2.326 . S
O98 C94 1.260 . S
O99 In91 2.266 . S
O99 C96 1.252 . S
O100 In91 2.326 . S
O100 C96 1.260 . S
C101 O92 1.240 . S
C101 O93 1.252 . S
O102 In91 2.294 . S
O102 C95 1.240 . S
O103 In91 2.326 . S
O103 C95 1.252 . S
In104 O105 2.294 . S
In104 O106 2.326 . S
In104 O110 2.266 . S
In104 O111 2.326 . S
In104 O112 2.266 . S
In104 O113 2.326 . S
In104 O115 2.294 . S
In104 O116 2.326 . S
O105 In104 2.294 . S
O105 C114 1.240 . S
O106 In104 2.326 . S
O106 C114 1.252 . S
C107 O110 1.252 . S
C107 O111 1.260 . S
C108 O115 1.240 . S
C108 O116 1.252 . S
C109 O112 1.252 . S
C109 O113 1.260 . S
O110 In104 2.266 . S
O110 C107 1.252 . S
O111 In104 2.326 . S
O111 C107 1.260 . S
O112 In104 2.266 . S
O112 C109 1.252 . S
O113 In104 2.326 . S
O113 C109 1.260 . S
C114 O105 1.240 . S
C114 O106 1.252 . S
O115 In104 2.294 . S
O115 C108 1.240 . S
O116 In104 2.326 . S
O116 C108 1.252 . S
In117 O118 2.294 . S
In117 O119 2.326 . S
In117 O123 2.266 . S
In117 O124 2.326 . S
In117 O125 2.266 . S
In117 O126 2.326 . S
In117 O128 2.294 . S
In117 O129 2.326 . S
O118 In117 2.294 . S
O118 C127 1.240 . S
O119 In117 2.326 . S
O119 C127 1.252 . S
C120 O123 1.252 . S
C120 O124 1.260 . S
C121 O128 1.240 . S
C121 O129 1.252 . S
C122 O125 1.252 . S
C122 O126 1.260 . S
O123 In117 2.266 . S
O123 C120 1.252 . S
O124 In117 2.326 . S
O124 C120 1.260 . S
O125 In117 2.266 . S
O125 C122 1.252 . S
O126 In117 2.326 . S
O126 C122 1.260 . S
C127 O118 1.240 . S
C127 O119 1.252 . S
O128 In117 2.294 . S
O128 C121 1.240 . S
O129 In117 2.326 . S
O129 C121 1.252 . S
In130 O131 2.294 . S
In130 O132 2.326 . S
In130 O136 2.266 . S
In130 O137 2.326 . S
In130 O138 2.266 . S
In130 O139 2.326 . S
In130 O141 2.294 . S
In130 O142 2.326 . S
O131 In130 2.294 . S
O131 C140 1.240 . S
O132 In130 2.326 . S
O132 C140 1.252 . S
C133 O136 1.252 . S
C133 O137 1.260 . S
C134 O141 1.240 . S
C134 O142 1.252 . S
C135 O138 1.252 . S
C135 O139 1.260 . S
O136 In130 2.266 . S
O136 C133 1.252 . S
O137 In130 2.326 . S
O137 C133 1.260 . S
O138 In130 2.266 . S
O138 C135 1.252 . S
O139 In130 2.326 . S
O139 C135 1.260 . S
C140 O131 1.240 . S
C140 O132 1.252 . S
O141 In130 2.294 . S
O141 C134 1.240 . S
O142 In130 2.326 . S
O142 C134 1.252 . S
In143 O144 2.294 . S
In143 O145 2.326 . S
In143 O149 2.266 . S
In143 O150 2.326 . S
In143 O151 2.266 . S
In143 O152 2.326 . S
In143 O154 2.294 . S
In143 O155 2.326 . S
O144 In143 2.294 . S
O144 C153 1.240 . S
O145 In143 2.326 . S
O145 C153 1.252 . S
C146 O149 1.252 . S
C146 O150 1.260 . S
C147 O154 1.240 . S
C147 O155 1.252 . S
C148 O151 1.252 . S
C148 O152 1.260 . S
O149 In143 2.266 . S
O149 C146 1.252 . S
O150 In143 2.326 . S
O150 C146 1.260 . S
O151 In143 2.266 . S
O151 C148 1.252 . S
O152 In143 2.326 . S
O152 C148 1.260 . S
C153 O144 1.240 . S
C153 O145 1.252 . S
O154 In143 2.294 . S
O154 C147 1.240 . S
O155 In143 2.326 . S
O155 C147 1.252 . S
In156 O157 2.294 . S
In156 O158 2.326 . S
In156 O162 2.266 . S
In156 O163 2.326 . S
In156 O164 2.266 . S
In156 O165 2.326 . S
In156 O167 2.294 . S
In156 O168 2.326 . S
O157 In156 2.294 . S
O157 C166 1.240 . S
O158 In156 2.326 . S
O158 C166 1.252 . S
C159 O162 1.252 . S
C159 O163 1.260 . S
C160 O167 1.240 . S
C160 O168 1.252 . S
C161 O164 1.252 . S
C161 O165 1.260 . S
O162 In156 2.266 . S
O162 C159 1.252 . S
O163 In156 2.326 . S
O163 C159 1.260 . S
O164 In156 2.266 . S
O164 C161 1.252 . S
O165 In156 2.326 . S
O165 C161 1.260 . S
C166 O157 1.240 . S
C166 O158 1.252 . S
O167 In156 2.294 . S
O167 C160 1.240 . S
O168 In156 2.326 . S
O168 C160 1.252 . S
In169 O170 2.294 . S
In169 O171 2.326 . S
In169 O175 2.266 . S
In169 O176 2.326 . S
In169 O177 2.266 . S
In169 O178 2.326 . S
In169 O180 2.294 . S
In169 O181 2.326 . S
O170 In169 2.294 . S
O170 C179 1.240 . S
O171 In169 2.326 . S
O171 C179 1.252 . S
C172 O175 1.252 . S
C172 O176 1.260 . S
C173 O180 1.240 . S
C173 O181 1.252 . S
C174 O177 1.252 . S
C174 O178 1.260 . S
O175 In169 2.266 . S
O175 C172 1.252 . S
O176 In169 2.326 . S
O176 C172 1.260 . S
O177 In169 2.266 . S
O177 C174 1.252 . S
O178 In169 2.326 . S
O178 C174 1.260 . S
C179 O170 1.240 . S
C179 O171 1.252 . S
O180 In169 2.294 . S
O180 C173 1.240 . S
O181 In169 2.326 . S
O181 C173 1.252 . S
In182 O183 2.294 . S
In182 O184 2.326 . S
In182 O188 2.266 . S
In182 O189 2.326 . S
In182 O190 2.266 . S
In182 O191 2.326 . S
In182 O193 2.294 . S
In182 O194 2.326 . S
O183 In182 2.294 . S
O183 C192 1.240 . S
O184 In182 2.326 . S
O184 C192 1.252 . S
C185 O188 1.252 . S
C185 O189 1.260 . S
C186 O193 1.240 . S
C186 O194 1.252 . S
C187 O190 1.252 . S
C187 O191 1.260 . S
O188 In182 2.266 . S
O188 C185 1.252 . S
O189 In182 2.326 . S
O189 C185 1.260 . S
O190 In182 2.266 . S
O190 C187 1.252 . S
O191 In182 2.326 . S
O191 C187 1.260 . S
C192 O183 1.240 . S
C192 O184 1.252 . S
O193 In182 2.294 . S
O193 C186 1.240 . S
O194 In182 2.326 . S
O194 C186 1.252 . S
In195 O196 2.294 . S
In195 O197 2.326 . S
In195 O201 2.266 . S
In195 O202 2.326 . S
In195 O203 2.266 . S
In195 O204 2.326 . S
In195 O206 2.294 . S
In195 O207 2.326 . S
O196 In195 2.294 . S
O196 C205 1.240 . S
O197 In195 2.326 . S
O197 C205 1.252 . S
C198 O201 1.252 . S
C198 O202 1.260 . S
C199 O206 1.240 . S
C199 O207 1.252 . S
C200 O203 1.252 . S
C200 O204 1.260 . S
O201 In195 2.266 . S
O201 C198 1.252 . S
O202 In195 2.326 . S
O202 C198 1.260 . S
O203 In195 2.266 . S
O203 C200 1.252 . S
O204 In195 2.326 . S
O204 C200 1.260 . S
C205 O196 1.240 . S
C205 O197 1.252 . S
O206 In195 2.294 . S
O206 C199 1.240 . S
O207 In195 2.326 . S
O207 C199 1.252 . S
C208 C209 1.363 1_554 S
C208 C214 1.379 . S
C208 N216 1.356 1_554 S
C209 C208 1.363 1_556 S
C209 C215 1.363 . S
C210 C211 1.363 1_556 S
C210 C215 1.379 . S
C210 N217 1.356 1_556 S
C211 C210 1.363 1_554 S
C211 C214 1.363 . S
N212 C214 1.356 . S
N212 H224 0.984 . S
N212 H225 0.985 . S
N213 C215 1.356 . S
N213 H218 0.984 . S
N213 H219 0.985 . S
C214 C208 1.379 . S
C214 C211 1.363 . S
C214 N212 1.356 . S
C215 C209 1.363 . S
C215 C210 1.379 . S
C215 N213 1.356 . S
N216 C208 1.356 1_556 S
N216 H222 0.984 1_556 S
N216 H223 0.984 . S
N217 C210 1.356 1_554 S
N217 H220 0.984 . S
N217 H221 0.985 1_554 S
H218 N213 0.984 . S
H219 N213 0.985 . S
H220 N217 0.984 . S
H221 N217 0.985 1_556 S
H222 N216 0.984 1_554 S
H223 N216 0.984 . S
H224 N212 0.984 . S
H225 N212 0.985 . S
C226 C227 1.363 . S
C226 C232 1.379 . S
C226 N234 1.356 . S
C227 C226 1.363 . S
C227 C233 1.363 . S
C228 C229 1.363 . S
C228 C233 1.379 . S
C228 N235 1.356 . S
C229 C228 1.363 . S
C229 C232 1.363 . S
N230 C232 1.356 . S
N230 H242 0.984 . S
N230 H243 0.985 . S
N231 C233 1.356 . S
N231 H236 0.984 . S
N231 H237 0.985 . S
C232 C226 1.379 . S
C232 C229 1.363 . S
C232 N230 1.356 . S
C233 C227 1.363 . S
C233 C228 1.379 . S
C233 N231 1.356 . S
N234 C226 1.356 . S
N234 H240 0.984 . S
N234 H241 0.984 . S
N235 C228 1.356 . S
N235 H238 0.984 . S
N235 H239 0.985 . S
H236 N231 0.984 . S
H237 N231 0.985 . S
H238 N235 0.984 . S
H239 N235 0.985 . S
H240 N234 0.984 . S
H241 N234 0.984 . S
H242 N230 0.984 . S
H243 N230 0.985 . S
C244 C245 1.363 . S
C244 C250 1.379 1_556 S
C244 N252 1.356 . S
C245 C244 1.363 . S
C245 C251 1.363 . S
C246 C247 1.363 . S
C246 C251 1.379 1_554 S
C246 N253 1.356 . S
C247 C246 1.363 . S
C247 C250 1.363 . S
N248 C250 1.356 . S
N248 H260 0.984 1_554 S
N248 H261 0.985 . S
N249 C251 1.356 . S
N249 H254 0.984 . S
N249 H255 0.985 1_556 S
C250 C244 1.379 1_554 S
C250 C247 1.363 . S
C250 N248 1.356 . S
C251 C245 1.363 . S
C251 C246 1.379 1_556 S
C251 N249 1.356 . S
N252 C244 1.356 . S
N252 H258 0.984 . S
N252 H259 0.984 . S
N253 C246 1.356 . S
N253 H256 0.984 . S
N253 H257 0.985 . S
H254 N249 0.984 . S
H255 N249 0.985 1_554 S
H256 N253 0.984 . S
H257 N253 0.985 . S
H258 N252 0.984 . S
H259 N252 0.984 . S
H260 N248 0.984 1_556 S
H261 N248 0.985 . S
C262 C263 1.363 . S
C262 C268 1.379 . S
C262 N270 1.356 . S
C263 C262 1.363 . S
C263 C269 1.363 . S
C264 C265 1.363 . S
C264 C269 1.379 . S
C264 N271 1.356 . S
C265 C264 1.363 . S
C265 C268 1.363 . S
N266 C268 1.356 . S
N266 H278 0.984 . S
N266 H279 0.985 . S
N267 C269 1.356 . S
N267 H272 0.984 . S
N267 H273 0.985 . S
C268 C262 1.379 . S
C268 C265 1.363 . S
C268 N266 1.356 . S
C269 C263 1.363 . S
C269 C264 1.379 . S
C269 N267 1.356 . S
N270 C262 1.356 . S
N270 H276 0.984 . S
N270 H277 0.984 . S
N271 C264 1.356 . S
N271 H274 0.984 . S
N271 H275 0.985 . S
H272 N267 0.984 . S
H273 N267 0.985 . S
H274 N271 0.984 . S
H275 N271 0.985 . S
H276 N270 0.984 . S
H277 N270 0.984 . S
H278 N266 0.984 . S
H279 N266 0.985 . S
C280 C281 1.363 . S
C280 C286 1.379 1_554 S
C280 N288 1.356 . S
C281 C280 1.363 . S
C281 C287 1.363 . S
C282 C283 1.363 . S
C282 C287 1.379 1_556 S
C282 N289 1.356 . S
C283 C282 1.363 . S
C283 C286 1.363 . S
N284 C286 1.356 . S
N284 H296 0.984 . S
N284 H297 0.985 . S
N285 C287 1.356 . S
N285 H290 0.984 . S
N285 H291 0.985 . S
C286 C280 1.379 1_556 S
C286 C283 1.363 . S
C286 N284 1.356 . S
C287 C281 1.363 . S
C287 C282 1.379 1_554 S
C287 N285 1.356 . S
N288 C280 1.356 . S
N288 H294 0.984 . S
N288 H295 0.984 . S
N289 C282 1.356 . S
N289 H292 0.984 . S
N289 H293 0.985 . S
H290 N285 0.984 . S
H291 N285 0.985 . S
H292 N289 0.984 . S
H293 N289 0.985 . S
H294 N288 0.984 . S
H295 N288 0.984 . S
H296 N284 0.984 . S
H297 N284 0.985 . S
C298 C299 1.363 . S
C298 C304 1.379 . S
C298 N306 1.356 . S
C299 C298 1.363 . S
C299 C305 1.363 . S
C300 C301 1.363 . S
C300 C305 1.379 . S
C300 N307 1.356 . S
C301 C300 1.363 . S
C301 C304 1.363 . S
N302 C304 1.356 . S
N302 H314 0.984 . S
N302 H315 0.985 . S
N303 C305 1.356 . S
N303 H308 0.984 . S
N303 H309 0.985 . S
C304 C298 1.379 . S
C304 C301 1.363 . S
C304 N302 1.356 . S
C305 C299 1.363 . S
C305 C300 1.379 . S
C305 N303 1.356 . S
N306 C298 1.356 . S
N306 H312 0.984 . S
N306 H313 0.984 . S
N307 C300 1.356 . S
N307 H310 0.984 . S
N307 H311 0.985 . S
H308 N303 0.984 . S
H309 N303 0.985 . S
H310 N307 0.984 . S
H311 N307 0.985 . S
H312 N306 0.984 . S
H313 N306 0.984 . S
H314 N302 0.984 . S
H315 N302 0.985 . S
C316 C317 1.363 1_554 S
C316 C322 1.379 . S
C316 N324 1.356 1_554 S
C317 C316 1.363 1_556 S
C317 C323 1.363 . S
C318 C319 1.363 1_556 S
C318 C323 1.379 . S
C318 N325 1.356 1_556 S
C319 C318 1.363 1_554 S
C319 C322 1.363 . S
N320 C322 1.356 . S
N320 H332 0.984 . S
N320 H333 0.985 . S
N321 C323 1.356 . S
N321 H326 0.984 . S
N321 H327 0.985 . S
C322 C316 1.379 . S
C322 C319 1.363 . S
C322 N320 1.356 . S
C323 C317 1.363 . S
C323 C318 1.379 . S
C323 N321 1.356 . S
N324 C316 1.356 1_556 S
N324 H330 0.984 1_556 S
N324 H331 0.984 . S
N325 C318 1.356 1_554 S
N325 H328 0.984 . S
N325 H329 0.985 1_554 S
H326 N321 0.984 . S
H327 N321 0.985 . S
H328 N325 0.984 . S
H329 N325 0.985 1_556 S
H330 N324 0.984 1_554 S
H331 N324 0.984 . S
H332 N320 0.984 . S
H333 N320 0.985 . S
C334 C335 1.363 . S
C334 C340 1.379 . S
C334 N342 1.356 . S
C335 C334 1.363 . S
C335 C341 1.363 . S
C336 C337 1.363 . S
C336 C341 1.379 . S
C336 N343 1.356 . S
C337 C336 1.363 . S
C337 C340 1.363 . S
N338 C340 1.356 . S
N338 H350 0.984 . S
N338 H351 0.985 . S
N339 C341 1.356 . S
N339 H344 0.984 . S
N339 H345 0.985 . S
C340 C334 1.379 . S
C340 C337 1.363 . S
C340 N338 1.356 . S
C341 C335 1.363 . S
C341 C336 1.379 . S
C341 N339 1.356 . S
N342 C334 1.356 . S
N342 H348 0.984 . S
N342 H349 0.984 . S
N343 C336 1.356 . S
N343 H346 0.984 . S
N343 H347 0.985 . S
H344 N339 0.984 . S
H345 N339 0.985 . S
H346 N343 0.984 . S
H347 N343 0.985 . S
H348 N342 0.984 . S
H349 N342 0.984 . S
H350 N338 0.984 . S
H351 N338 0.985 . S
C352 C353 1.363 . S
C352 C358 1.379 . S
C352 N360 1.356 . S
C353 C352 1.363 . S
C353 C359 1.363 . S
C354 C355 1.363 . S
C354 C359 1.379 . S
C354 N361 1.356 . S
C355 C354 1.363 . S
C355 C358 1.363 . S
N356 C358 1.356 . S
N356 H368 0.984 . S
N356 H369 0.985 . S
N357 C359 1.356 . S
N357 H362 0.984 . S
N357 H363 0.985 . S
C358 C352 1.379 . S
C358 C355 1.363 . S
C358 N356 1.356 . S
C359 C353 1.363 . S
C359 C354 1.379 . S
C359 N357 1.356 . S
N360 C352 1.356 . S
N360 H366 0.984 . S
N360 H367 0.984 . S
N361 C354 1.356 . S
N361 H364 0.984 . S
N361 H365 0.985 . S
H362 N357 0.984 . S
H363 N357 0.985 . S
H364 N361 0.984 . S
H365 N361 0.985 . S
H366 N360 0.984 . S
H367 N360 0.984 . S
H368 N356 0.984 . S
H369 N356 0.985 . S
C370 C371 1.363 . S
C370 C376 1.379 . S
C370 N378 1.356 . S
C371 C370 1.363 . S
C371 C377 1.363 . S
C372 C373 1.363 . S
C372 C377 1.379 . S
C372 N379 1.356 . S
C373 C372 1.363 . S
C373 C376 1.363 . S
N374 C376 1.356 . S
N374 H386 0.984 . S
N374 H387 0.985 . S
N375 C377 1.356 . S
N375 H380 0.984 . S
N375 H381 0.985 . S
C376 C370 1.379 . S
C376 C373 1.363 . S
C376 N374 1.356 . S
C377 C371 1.363 . S
C377 C372 1.379 . S
C377 N375 1.356 . S
N378 C370 1.356 . S
N378 H384 0.984 . S
N378 H385 0.984 . S
N379 C372 1.356 . S
N379 H382 0.984 . S
N379 H383 0.985 . S
H380 N375 0.984 . S
H381 N375 0.985 . S
H382 N379 0.984 . S
H383 N379 0.985 . S
H384 N378 0.984 . S
H385 N378 0.984 . S
H386 N374 0.984 . S
H387 N374 0.985 . S
C388 C389 1.363 . S
C388 C394 1.379 . S
C388 N396 1.356 . S
C389 C388 1.363 . S
C389 C395 1.363 . S
C390 C391 1.363 . S
C390 C395 1.379 . S
C390 N397 1.356 . S
C391 C390 1.363 . S
C391 C394 1.363 . S
N392 C394 1.356 . S
N392 H404 0.984 . S
N392 H405 0.985 . S
N393 C395 1.356 . S
N393 H398 0.984 . S
N393 H399 0.985 . S
C394 C388 1.379 . S
C394 C391 1.363 . S
C394 N392 1.356 . S
C395 C389 1.363 . S
C395 C390 1.379 . S
C395 N393 1.356 . S
N396 C388 1.356 . S
N396 H402 0.984 . S
N396 H403 0.984 . S
N397 C390 1.356 . S
N397 H400 0.984 . S
N397 H401 0.985 . S
H398 N393 0.984 . S
H399 N393 0.985 . S
H400 N397 0.984 . S
H401 N397 0.985 . S
H402 N396 0.984 . S
H403 N396 0.984 . S
H404 N392 0.984 . S
H405 N392 0.985 . S
C406 C407 1.363 . S
C406 C412 1.379 . S
C406 N414 1.356 . S
C407 C406 1.363 . S
C407 C413 1.363 . S
C408 C409 1.363 . S
C408 C413 1.379 . S
C408 N415 1.356 . S
C409 C408 1.363 . S
C409 C412 1.363 . S
N410 C412 1.356 . S
N410 H422 0.984 . S
N410 H423 0.985 . S
N411 C413 1.356 . S
N411 H416 0.984 . S
N411 H417 0.985 . S
C412 C406 1.379 . S
C412 C409 1.363 . S
C412 N410 1.356 . S
C413 C407 1.363 . S
C413 C408 1.379 . S
C413 N411 1.356 . S
N414 C406 1.356 . S
N414 H420 0.984 . S
N414 H421 0.984 . S
N415 C408 1.356 . S
N415 H418 0.984 . S
N415 H419 0.985 . S
H416 N411 0.984 . S
H417 N411 0.985 . S
H418 N415 0.984 . S
H419 N415 0.985 . S
H420 N414 0.984 . S
H421 N414 0.984 . S
H422 N410 0.984 . S
H423 N410 0.985 . S
C424 C425 1.363 . S
C424 C430 1.379 . S
C424 N432 1.356 . S
C425 C424 1.363 . S
C425 C431 1.363 . S
C426 C427 1.363 . S
C426 C431 1.379 . S
C426 N433 1.356 . S
C427 C426 1.363 . S
C427 C430 1.363 . S
N428 C430 1.356 . S
N428 H440 0.984 . S
N428 H441 0.985 . S
N429 C431 1.356 . S
N429 H434 0.984 . S
N429 H435 0.985 . S
C430 C424 1.379 . S
C430 C427 1.363 . S
C430 N428 1.356 . S
C431 C425 1.363 . S
C431 C426 1.379 . S
C431 N429 1.356 . S
N432 C424 1.356 . S
N432 H438 0.984 . S
N432 H439 0.984 . S
N433 C426 1.356 . S
N433 H436 0.984 . S
N433 H437 0.985 . S
H434 N429 0.984 . S
H435 N429 0.985 . S
H436 N433 0.984 . S
H437 N433 0.985 . S
H438 N432 0.984 . S
H439 N432 0.984 . S
H440 N428 0.984 . S
H441 N428 0.985 . S
C442 C443 1.363 . S
C442 C448 1.379 . S
C442 N450 1.356 . S
C443 C442 1.363 . S
C443 C449 1.363 . S
C444 C445 1.363 . S
C444 C449 1.379 . S
C444 N451 1.356 . S
C445 C444 1.363 . S
C445 C448 1.363 . S
N446 C448 1.356 . S
N446 H458 0.984 . S
N446 H459 0.985 . S
N447 C449 1.356 . S
N447 H452 0.984 . S
N447 H453 0.985 . S
C448 C442 1.379 . S
C448 C445 1.363 . S
C448 N446 1.356 . S
C449 C443 1.363 . S
C449 C444 1.379 . S
C449 N447 1.356 . S
N450 C442 1.356 . S
N450 H456 0.984 . S
N450 H457 0.984 . S
N451 C444 1.356 . S
N451 H454 0.984 . S
N451 H455 0.985 . S
H452 N447 0.984 . S
H453 N447 0.985 . S
H454 N451 0.984 . S
H455 N451 0.985 . S
H456 N450 0.984 . S
H457 N450 0.984 . S
H458 N446 0.984 . S
H459 N446 0.985 . S
C460 C461 1.363 . S
C460 C466 1.379 . S
C460 N468 1.356 . S
C461 C460 1.363 . S
C461 C467 1.363 . S
C462 C463 1.363 . S
C462 C467 1.379 . S
C462 N469 1.356 . S
C463 C462 1.363 . S
C463 C466 1.363 . S
N464 C466 1.356 . S
N464 H476 0.984 . S
N464 H477 0.985 . S
N465 C467 1.356 . S
N465 H470 0.984 . S
N465 H471 0.985 . S
C466 C460 1.379 . S
C466 C463 1.363 . S
C466 N464 1.356 . S
C467 C461 1.363 . S
C467 C462 1.379 . S
C467 N465 1.356 . S
N468 C460 1.356 . S
N468 H474 0.984 . S
N468 H475 0.984 . S
N469 C462 1.356 . S
N469 H472 0.984 . S
N469 H473 0.985 . S
H470 N465 0.984 . S
H471 N465 0.985 . S
H472 N469 0.984 . S
H473 N469 0.985 . S
H474 N468 0.984 . S
H475 N468 0.984 . S
H476 N464 0.984 . S
H477 N464 0.985 . S
C478 C479 1.363 . S
C478 C484 1.379 . S
C478 N486 1.356 . S
C479 C478 1.363 . S
C479 C485 1.363 . S
C480 C481 1.363 . S
C480 C485 1.379 . S
C480 N487 1.356 . S
C481 C480 1.363 . S
C481 C484 1.363 . S
N482 C484 1.356 . S
N482 H494 0.984 . S
N482 H495 0.985 . S
N483 C485 1.356 . S
N483 H488 0.984 . S
N483 H489 0.985 . S
C484 C478 1.379 . S
C484 C481 1.363 . S
C484 N482 1.356 . S
C485 C479 1.363 . S
C485 C480 1.379 . S
C485 N483 1.356 . S
N486 C478 1.356 . S
N486 H492 0.984 . S
N486 H493 0.984 . S
N487 C480 1.356 . S
N487 H490 0.984 . S
N487 H491 0.985 . S
H488 N483 0.984 . S
H489 N483 0.985 . S
H490 N487 0.984 . S
H491 N487 0.985 . S
H492 N486 0.984 . S
H493 N486 0.984 . S
H494 N482 0.984 . S
H495 N482 0.985 . S
C496 C497 1.363 . S
C496 C502 1.379 . S
C496 N504 1.356 . S
C497 C496 1.363 . S
C497 C503 1.363 . S
C498 C499 1.363 . S
C498 C503 1.379 . S
C498 N505 1.356 . S
C499 C498 1.363 . S
C499 C502 1.363 . S
N500 C502 1.356 . S
N500 H512 0.984 1_545 S
N500 H513 0.985 . S
N501 C503 1.356 . S
N501 H506 0.984 . S
N501 H507 0.985 . S
C502 C496 1.379 . S
C502 C499 1.363 . S
C502 N500 1.356 . S
C503 C497 1.363 . S
C503 C498 1.379 . S
C503 N501 1.356 . S
N504 C496 1.356 . S
N504 H510 0.984 1_545 S
N504 H511 0.984 . S
N505 C498 1.356 . S
N505 H508 0.984 . S
N505 H509 0.985 . S
H506 N501 0.984 . S
H507 N501 0.985 . S
H508 N505 0.984 . S
H509 N505 0.985 . S
H510 N504 0.984 1_565 S
H511 N504 0.984 . S
H512 N500 0.984 1_565 S
H513 N500 0.985 . S
C514 C515 1.363 . S
C514 C520 1.379 . S
C514 N522 1.356 . S
C515 C514 1.363 . S
C515 C521 1.363 . S
C516 C517 1.363 . S
C516 C521 1.379 . S
C516 N523 1.356 . S
C517 C516 1.363 . S
C517 C520 1.363 . S
N518 C520 1.356 . S
N518 H530 0.984 . S
N518 H531 0.985 . S
N519 C521 1.356 . S
N519 H524 0.984 . S
N519 H525 0.985 . S
C520 C514 1.379 . S
C520 C517 1.363 . S
C520 N518 1.356 . S
C521 C515 1.363 . S
C521 C516 1.379 . S
C521 N519 1.356 . S
N522 C514 1.356 . S
N522 H528 0.984 . S
N522 H529 0.984 . S
N523 C516 1.356 . S
N523 H526 0.984 . S
N523 H527 0.985 . S
H524 N519 0.984 . S
H525 N519 0.985 . S
H526 N523 0.984 . S
H527 N523 0.985 . S
H528 N522 0.984 . S
H529 N522 0.984 . S
H530 N518 0.984 . S
H531 N518 0.985 . S
C532 C533 1.363 . S
C532 C538 1.379 . S
C532 N540 1.356 . S
C533 C532 1.363 . S
C533 C539 1.363 . S
C534 C535 1.363 . S
C534 C539 1.379 . S
C534 N541 1.356 . S
C535 C534 1.363 . S
C535 C538 1.363 . S
N536 C538 1.356 . S
N536 H548 0.984 . S
N536 H549 0.985 . S
N537 C539 1.356 . S
N537 H542 0.984 . S
N537 H543 0.985 . S
C538 C532 1.379 . S
C538 C535 1.363 . S
C538 N536 1.356 . S
C539 C533 1.363 . S
C539 C534 1.379 . S
C539 N537 1.356 . S
N540 C532 1.356 . S
N540 H546 0.984 . S
N540 H547 0.984 . S
N541 C534 1.356 . S
N541 H544 0.984 . S
N541 H545 0.985 . S
H542 N537 0.984 . S
H543 N537 0.985 . S
H544 N541 0.984 . S
H545 N541 0.985 . S
H546 N540 0.984 . S
H547 N540 0.984 . S
H548 N536 0.984 . S
H549 N536 0.985 . S
C550 C551 1.363 . S
C550 C556 1.379 . S
C550 N558 1.356 . S
C551 C550 1.363 . S
C551 C557 1.363 . S
C552 C553 1.363 . S
C552 C557 1.379 . S
C552 N559 1.356 . S
C553 C552 1.363 . S
C553 C556 1.363 . S
N554 C556 1.356 . S
N554 H566 0.984 . S
N554 H567 0.985 . S
N555 C557 1.356 . S
N555 H560 0.984 . S
N555 H561 0.985 . S
C556 C550 1.379 . S
C556 C553 1.363 . S
C556 N554 1.356 . S
C557 C551 1.363 . S
C557 C552 1.379 . S
C557 N555 1.356 . S
N558 C550 1.356 . S
N558 H564 0.984 . S
N558 H565 0.984 . S
N559 C552 1.356 . S
N559 H562 0.984 . S
N559 H563 0.985 . S
H560 N555 0.984 . S
H561 N555 0.985 . S
H562 N559 0.984 . S
H563 N559 0.985 . S
H564 N558 0.984 . S
H565 N558 0.984 . S
H566 N554 0.984 . S
H567 N554 0.985 . S
C568 C569 1.363 . S
C568 C574 1.379 . S
C568 N576 1.356 . S
C569 C568 1.363 . S
C569 C575 1.363 . S
C570 C571 1.363 . S
C570 C575 1.379 . S
C570 N577 1.356 . S
C571 C570 1.363 . S
C571 C574 1.363 . S
N572 C574 1.356 . S
N572 H584 0.984 . S
N572 H585 0.985 . S
N573 C575 1.356 . S
N573 H578 0.984 . S
N573 H579 0.985 1_565 S
C574 C568 1.379 . S
C574 C571 1.363 . S
C574 N572 1.356 . S
C575 C569 1.363 . S
C575 C570 1.379 . S
C575 N573 1.356 . S
N576 C568 1.356 . S
N576 H582 0.984 . S
N576 H583 0.984 . S
N577 C570 1.356 . S
N577 H580 0.984 . S
N577 H581 0.985 1_565 S
H578 N573 0.984 . S
H579 N573 0.985 1_545 S
H580 N577 0.984 . S
H581 N577 0.985 1_545 S
H582 N576 0.984 . S
H583 N576 0.984 . S
H584 N572 0.984 . S
H585 N572 0.985 . S
C586 C587 1.363 . S
C586 C592 1.379 . S
C586 N594 1.356 . S
C587 C586 1.363 . S
C587 C593 1.363 . S
C588 C589 1.363 . S
C588 C593 1.379 . S
C588 N595 1.356 . S
C589 C588 1.363 . S
C589 C592 1.363 . S
N590 C592 1.356 . S
N590 H602 0.984 . S
N590 H603 0.985 . S
N591 C593 1.356 . S
N591 H596 0.984 . S
N591 H597 0.985 . S
C592 C586 1.379 . S
C592 C589 1.363 . S
C592 N590 1.356 . S
C593 C587 1.363 . S
C593 C588 1.379 . S
C593 N591 1.356 . S
N594 C586 1.356 . S
N594 H600 0.984 . S
N594 H601 0.984 . S
N595 C588 1.356 . S
N595 H598 0.984 . S
N595 H599 0.985 . S
H596 N591 0.984 . S
H597 N591 0.985 . S
H598 N595 0.984 . S
H599 N595 0.985 . S
H600 N594 0.984 . S
H601 N594 0.984 . S
H602 N590 0.984 . S
H603 N590 0.985 . S
C604 C605 1.363 . S
C604 C610 1.379 . S
C604 N612 1.356 . S
C605 C604 1.363 . S
C605 C611 1.363 . S
C606 C607 1.363 . S
C606 C611 1.379 . S
C606 N613 1.356 . S
C607 C606 1.363 . S
C607 C610 1.363 . S
N608 C610 1.356 . S
N608 H620 0.984 . S
N608 H621 0.985 . S
N609 C611 1.356 . S
N609 H614 0.984 . S
N609 H615 0.985 . S
C610 C604 1.379 . S
C610 C607 1.363 . S
C610 N608 1.356 . S
C611 C605 1.363 . S
C611 C606 1.379 . S
C611 N609 1.356 . S
N612 C604 1.356 . S
N612 H618 0.984 . S
N612 H619 0.984 . S
N613 C606 1.356 . S
N613 H616 0.984 . S
N613 H617 0.985 . S
H614 N609 0.984 . S
H615 N609 0.985 . S
H616 N613 0.984 . S
H617 N613 0.985 . S
H618 N612 0.984 . S
H619 N612 0.984 . S
H620 N608 0.984 . S
H621 N608 0.985 . S
C622 C623 1.363 . S
C622 C628 1.379 . S
C622 N630 1.356 . S
C623 C622 1.363 . S
C623 C629 1.363 . S
C624 C625 1.363 . S
C624 C629 1.379 . S
C624 N631 1.356 . S
C625 C624 1.363 . S
C625 C628 1.363 . S
N626 C628 1.356 . S
N626 H638 0.984 . S
N626 H639 0.985 . S
N627 C629 1.356 . S
N627 H632 0.984 . S
N627 H633 0.985 . S
C628 C622 1.379 . S
C628 C625 1.363 . S
C628 N626 1.356 . S
C629 C623 1.363 . S
C629 C624 1.379 . S
C629 N627 1.356 . S
N630 C622 1.356 . S
N630 H636 0.984 . S
N630 H637 0.984 . S
N631 C624 1.356 . S
N631 H634 0.984 . S
N631 H635 0.985 . S
H632 N627 0.984 . S
H633 N627 0.985 . S
H634 N631 0.984 . S
H635 N631 0.985 . S
H636 N630 0.984 . S
H637 N630 0.984 . S
H638 N626 0.984 . S
H639 N626 0.985 . S
C640 C641 1.363 . S
C640 C646 1.379 1_545 S
C640 N648 1.356 . S
C641 C640 1.363 . S
C641 C647 1.363 1_545 S
C642 C643 1.363 . S
C642 C647 1.379 . S
C642 N649 1.356 . S
C643 C642 1.363 . S
C643 C646 1.363 . S
N644 C646 1.356 . S
N644 H656 0.984 . S
N644 H657 0.985 . S
N645 C647 1.356 1_545 S
N645 H650 0.984 . S
N645 H651 0.985 1_545 S
C646 C640 1.379 1_565 S
C646 C643 1.363 . S
C646 N644 1.356 . S
C647 C641 1.363 1_565 S
C647 C642 1.379 . S
C647 N645 1.356 1_565 S
N648 C640 1.356 . S
N648 H654 0.984 . S
N648 H655 0.984 . S
N649 C642 1.356 . S
N649 H652 0.984 . S
N649 H653 0.985 . S
H650 N645 0.984 . S
H651 N645 0.985 1_565 S
H652 N649 0.984 . S
H653 N649 0.985 . S
H654 N648 0.984 . S
H655 N648 0.984 . S
H656 N644 0.984 . S
H657 N644 0.985 . S
C658 C659 1.363 . S
C658 C664 1.379 . S
C658 N666 1.356 . S
C659 C658 1.363 . S
C659 C665 1.363 . S
C660 C661 1.363 . S
C660 C665 1.379 . S
C660 N667 1.356 . S
C661 C660 1.363 . S
C661 C664 1.363 . S
N662 C664 1.356 . S
N662 H674 0.984 . S
N662 H675 0.985 . S
N663 C665 1.356 . S
N663 H668 0.984 . S
N663 H669 0.985 . S
C664 C658 1.379 . S
C664 C661 1.363 . S
C664 N662 1.356 . S
C665 C659 1.363 . S
C665 C660 1.379 . S
C665 N663 1.356 . S
N666 C658 1.356 . S
N666 H672 0.984 . S
N666 H673 0.984 . S
N667 C660 1.356 . S
N667 H670 0.984 . S
N667 H671 0.985 . S
H668 N663 0.984 . S
H669 N663 0.985 . S
H670 N667 0.984 . S
H671 N667 0.985 . S
H672 N666 0.984 . S
H673 N666 0.984 . S
H674 N662 0.984 . S
H675 N662 0.985 . S
C676 C677 1.363 . S
C676 C682 1.379 . S
C676 N684 1.356 . S
C677 C676 1.363 . S
C677 C683 1.363 . S
C678 C679 1.363 . S
C678 C683 1.379 1_655 S
C678 N685 1.356 . S
C679 C678 1.363 . S
C679 C682 1.363 1_655 S
N680 C682 1.356 1_655 S
N680 H692 0.984 1_655 S
N680 H693 0.985 . S
N681 C683 1.356 . S
N681 H686 0.984 . S
N681 H687 0.985 . S
C682 C676 1.379 . S
C682 C679 1.363 1_455 S
C682 N680 1.356 1_455 S
C683 C677 1.363 . S
C683 C678 1.379 1_455 S
C683 N681 1.356 . S
N684 C676 1.356 . S
N684 H690 0.984 . S
N684 H691 0.984 . S
N685 C678 1.356 . S
N685 H688 0.984 . S
N685 H689 0.985 . S
H686 N681 0.984 . S
H687 N681 0.985 . S
H688 N685 0.984 . S
H689 N685 0.985 . S
H690 N684 0.984 . S
H691 N684 0.984 . S
H692 N680 0.984 1_455 S
H693 N680 0.985 . S
C694 C695 1.363 . S
C694 C700 1.379 1_665 S
C694 N702 1.356 . S
C695 C694 1.363 . S
C695 C701 1.363 1_565 S
C696 C697 1.363 1_655 S
C696 C701 1.379 . S
C696 N703 1.356 1_655 S
C697 C696 1.363 1_455 S
C697 C700 1.363 . S
N698 C700 1.356 . S
N698 H710 0.984 . S
N698 H711 0.985 . S
N699 C701 1.356 1_565 S
N699 H704 0.984 . S
N699 H705 0.985 1_565 S
C700 C694 1.379 1_445 S
C700 C697 1.363 . S
C700 N698 1.356 . S
C701 C695 1.363 1_545 S
C701 C696 1.379 . S
C701 N699 1.356 1_545 S
N702 C694 1.356 . S
N702 H708 0.984 . S
N702 H709 0.984 . S
N703 C696 1.356 1_455 S
N703 H706 0.984 . S
N703 H707 0.985 1_455 S
H704 N699 0.984 . S
H705 N699 0.985 1_545 S
H706 N703 0.984 . S
H707 N703 0.985 1_655 S
H708 N702 0.984 . S
H709 N702 0.984 . S
H710 N698 0.984 . S
H711 N698 0.985 . S
C712 C713 1.363 . S
C712 C718 1.379 . S
C712 N720 1.356 . S
C713 C712 1.363 . S
C713 C719 1.363 . S
C714 C715 1.363 . S
C714 C719 1.379 . S
C714 N721 1.356 . S
C715 C714 1.363 . S
C715 C718 1.363 . S
N716 C718 1.356 . S
N716 H728 0.984 . S
N716 H729 0.985 . S
N717 C719 1.356 . S
N717 H722 0.984 . S
N717 H723 0.985 . S
C718 C712 1.379 . S
C718 C715 1.363 . S
C718 N716 1.356 . S
C719 C713 1.363 . S
C719 C714 1.379 . S
C719 N717 1.356 . S
N720 C712 1.356 . S
N720 H726 0.984 . S
N720 H727 0.984 . S
N721 C714 1.356 . S
N721 H724 0.984 . S
N721 H725 0.985 . S
H722 N717 0.984 . S
H723 N717 0.985 . S
H724 N721 0.984 . S
H725 N721 0.985 . S
H726 N720 0.984 . S
H727 N720 0.984 . S
H728 N716 0.984 . S
H729 N716 0.985 . S
C730 C731 1.363 . S
C730 C736 1.379 1_455 S
C730 N738 1.356 . S
C731 C730 1.363 . S
C731 C737 1.363 1_455 S
C732 C733 1.363 . S
C732 C737 1.379 . S
C732 N739 1.356 . S
C733 C732 1.363 . S
C733 C736 1.363 . S
N734 C736 1.356 . S
N734 H746 0.984 . S
N734 H747 0.985 . S
N735 C737 1.356 1_455 S
N735 H740 0.984 . S
N735 H741 0.985 1_455 S
C736 C730 1.379 1_655 S
C736 C733 1.363 . S
C736 N734 1.356 . S
C737 C731 1.363 1_655 S
C737 C732 1.379 . S
C737 N735 1.356 1_655 S
N738 C730 1.356 . S
N738 H744 0.984 . S
N738 H745 0.984 . S
N739 C732 1.356 . S
N739 H742 0.984 . S
N739 H743 0.985 . S
H740 N735 0.984 . S
H741 N735 0.985 1_655 S
H742 N739 0.984 . S
H743 N739 0.985 . S
H744 N738 0.984 . S
H745 N738 0.984 . S
H746 N734 0.984 . S
H747 N734 0.985 . S
C748 C749 1.363 . S
C748 C754 1.379 1_665 S
C748 N756 1.356 . S
C749 C748 1.363 . S
C749 C755 1.363 1_655 S
C750 C751 1.363 1_565 S
C750 C755 1.379 . S
C750 N757 1.356 1_565 S
C751 C750 1.363 1_545 S
C751 C754 1.363 . S
N752 C754 1.356 . S
N752 H764 0.984 . S
N752 H765 0.985 . S
N753 C755 1.356 1_655 S
N753 H758 0.984 . S
N753 H759 0.985 1_655 S
C754 C748 1.379 1_445 S
C754 C751 1.363 . S
C754 N752 1.356 . S
C755 C749 1.363 1_455 S
C755 C750 1.379 . S
C755 N753 1.356 1_455 S
N756 C748 1.356 . S
N756 H762 0.984 . S
N756 H763 0.984 . S
N757 C750 1.356 1_545 S
N757 H760 0.984 . S
N757 H761 0.985 1_545 S
H758 N753 0.984 . S
H759 N753 0.985 1_455 S
H760 N757 0.984 . S
H761 N757 0.985 1_565 S
H762 N756 0.984 . S
H763 N756 0.984 . S
H764 N752 0.984 . S
H765 N752 0.985 . S
C766 C767 1.363 1_545 S
C766 C772 1.379 . S
C766 N774 1.356 1_545 S
C767 C766 1.363 1_565 S
C767 C773 1.363 . S
C768 C769 1.363 . S
C768 C773 1.379 1_545 S
C768 N775 1.356 . S
C769 C768 1.363 . S
C769 C772 1.363 . S
N770 C772 1.356 . S
N770 H782 0.984 . S
N770 H783 0.985 . S
N771 C773 1.356 . S
N771 H776 0.984 . S
N771 H777 0.985 . S
C772 C766 1.379 . S
C772 C769 1.363 . S
C772 N770 1.356 . S
C773 C767 1.363 . S
C773 C768 1.379 1_565 S
C773 N771 1.356 . S
N774 C766 1.356 1_565 S
N774 H780 0.984 1_565 S
N774 H781 0.984 . S
N775 C768 1.356 . S
N775 H778 0.984 . S
N775 H779 0.985 . S
H776 N771 0.984 . S
H777 N771 0.985 . S
H778 N775 0.984 . S
H779 N775 0.985 . S
H780 N774 0.984 1_545 S
H781 N774 0.984 . S
H782 N770 0.984 . S
H783 N770 0.985 . S
C209 C95 1.611 . S
C211 C10 1.611 . S
C227 C56 1.611 . S
C229 C17 1.611 . S
C245 C75 1.611 . S
C247 C30 1.611 . S
C263 C49 1.611 . S
C265 C88 1.611 . S
C281 C205 1.611 . S
C283 C108 1.611 . S
C299 C166 1.611 . S
C301 C127 1.611 . S
C317 C140 1.611 . S
C319 C173 1.611 . S
C335 C153 1.611 . S
C337 C192 1.611 . S
C353 C29 1.376 . S
C355 C5 1.376 . S
C371 C16 1.376 . S
C373 C44 1.376 . S
C389 C55 1.376 . S
C391 C83 1.376 . S
C407 C94 1.376 . S
C409 C70 1.376 . S
C425 C107 1.376 . S
C427 C135 1.376 . S
C443 C122 1.376 . S
C445 C148 1.376 . S
C461 C187 1.376 . S
C463 C161 1.376 . S
C479 C172 1.376 . S
C481 C200 1.376 . S
C497 C81 1.445 . S
C499 C3 1.445 . S
C515 C18 1.445 . S
C517 C96 1.445 . S
C533 C31 1.445 . S
C535 C57 1.445 . S
C551 C42 1.445 . S
C553 C68 1.445 . S
C569 C109 1.445 . S
C571 C185 1.445 . S
C587 C120 1.445 . S
C589 C198 1.445 . S
C605 C133 1.445 . S
C607 C159 1.445 . S
C623 C146 1.445 . S
C625 C174 1.445 . S
C641 C4 1.373 . S
C643 C199 1.373 . S
C659 C160 1.373 . S
C661 C23 1.373 . S
C677 C36 1.373 . S
C679 C179 1.373 . S
C695 C186 1.373 . S
C697 C43 1.373 . S
C713 C121 1.373 . S
C715 C62 1.373 . S
C731 C69 1.373 . S
C733 C134 1.373 . S
C749 C147 1.373 . S
C751 C82 1.373 . S
C767 C114 1.373 . S
C769 C101 1.373 . S
