# Generated by pormake.
# Topology vbr, (6)-cn, num edge types: 1
# Building blocks:
#     Node 0, Type 0, BuildingBlock: OJICUG_clean_sbu_0, # of connection points: 6
#     Node 1, Type 0, BuildingBlock: OJICUG_clean_sbu_0, # of connection points: 6
#     Node 2, Type 0, BuildingBlock: OJICUG_clean_sbu_0, # of connection points: 6
#     Node 3, Type 0, BuildingBlock: OJICUG_clean_sbu_0, # of connection points: 6
#     Node 4, Type 0, BuildingBlock: OJICUG_clean_sbu_0, # of connection points: 6
#     Node 5, Type 0, BuildingBlock: OJICUG_clean_sbu_0, # of connection points: 6
#     Node 6, Type 0, BuildingBlock: OJICUG_clean_sbu_0, # of connection points: 6
#     Node 7, Type 0, BuildingBlock: OJICUG_clean_sbu_0, # of connection points: 6
#     Node 8, Type 0, BuildingBlock: OJICUG_clean_sbu_0, # of connection points: 6
#     Node 9, Type 0, BuildingBlock: OJICUG_clean_sbu_0, # of connection points: 6
#     Node 10, Type 0, BuildingBlock: OJICUG_clean_sbu_0, # of connection points: 6
#     Node 11, Type 0, BuildingBlock: OJICUG_clean_sbu_0, # of connection points: 6
#     Node 12, Type 0, BuildingBlock: OJICUG_clean_sbu_0, # of connection points: 6
#     Node 13, Type 0, BuildingBlock: OJICUG_clean_sbu_0, # of connection points: 6
#     Node 14, Type 0, BuildingBlock: OJICUG_clean_sbu_0, # of connection points: 6
#     Node 15, Type 0, BuildingBlock: OJICUG_clean_sbu_0, # of connection points: 6
#     Edge 16, Type (0, 0), BuildingBlock: ZUJKAS_clean_linker_0, # of connection points: 2
#     Edge 17, Type (0, 0), BuildingBlock: ZUJKAS_clean_linker_0, # of connection points: 2
#     Edge 18, Type (0, 0), BuildingBlock: ZUJKAS_clean_linker_0, # of connection points: 2
#     Edge 19, Type (0, 0), BuildingBlock: ZUJKAS_clean_linker_0, # of connection points: 2
#     Edge 20, Type (0, 0), BuildingBlock: ZUJKAS_clean_linker_0, # of connection points: 2
#     Edge 21, Type (0, 0), BuildingBlock: ZUJKAS_clean_linker_0, # of connection points: 2
#     Edge 22, Type (0, 0), BuildingBlock: ZUJKAS_clean_linker_0, # of connection points: 2
#     Edge 23, Type (0, 0), BuildingBlock: ZUJKAS_clean_linker_0, # of connection points: 2
#     Edge 24, Type (0, 0), BuildingBlock: ZUJKAS_clean_linker_0, # of connection points: 2
#     Edge 25, Type (0, 0), BuildingBlock: ZUJKAS_clean_linker_0, # of connection points: 2
#     Edge 26, Type (0, 0), BuildingBlock: ZUJKAS_clean_linker_0, # of connection points: 2
#     Edge 27, Type (0, 0), BuildingBlock: ZUJKAS_clean_linker_0, # of connection points: 2
#     Edge 28, Type (0, 0), BuildingBlock: ZUJKAS_clean_linker_0, # of connection points: 2
#     Edge 29, Type (0, 0), BuildingBlock: ZUJKAS_clean_linker_0, # of connection points: 2
#     Edge 30, Type (0, 0), BuildingBlock: ZUJKAS_clean_linker_0, # of connection points: 2
#     Edge 31, Type (0, 0), BuildingBlock: ZUJKAS_clean_linker_0, # of connection points: 2
#     Edge 32, Type (0, 0), BuildingBlock: ZUJKAS_clean_linker_0, # of connection points: 2
#     Edge 33, Type (0, 0), BuildingBlock: ZUJKAS_clean_linker_0, # of connection points: 2
#     Edge 34, Type (0, 0), BuildingBlock: ZUJKAS_clean_linker_0, # of connection points: 2
#     Edge 35, Type (0, 0), BuildingBlock: ZUJKAS_clean_linker_0, # of connection points: 2
#     Edge 36, Type (0, 0), BuildingBlock: ZUJKAS_clean_linker_0, # of connection points: 2
#     Edge 37, Type (0, 0), BuildingBlock: ZUJKAS_clean_linker_0, # of connection points: 2
#     Edge 38, Type (0, 0), BuildingBlock: ZUJKAS_clean_linker_0, # of connection points: 2
#     Edge 39, Type (0, 0), BuildingBlock: ZUJKAS_clean_linker_0, # of connection points: 2
#     Edge 40, Type (0, 0), BuildingBlock: ZUJKAS_clean_linker_0, # of connection points: 2
#     Edge 41, Type (0, 0), BuildingBlock: ZUJKAS_clean_linker_0, # of connection points: 2
#     Edge 42, Type (0, 0), BuildingBlock: ZUJKAS_clean_linker_0, # of connection points: 2
#     Edge 43, Type (0, 0), BuildingBlock: ZUJKAS_clean_linker_0, # of connection points: 2
#     Edge 44, Type (0, 0), BuildingBlock: ZUJKAS_clean_linker_0, # of connection points: 2
#     Edge 45, Type (0, 0), BuildingBlock: ZUJKAS_clean_linker_0, # of connection points: 2
#     Edge 46, Type (0, 0), BuildingBlock: ZUJKAS_clean_linker_0, # of connection points: 2
#     Edge 47, Type (0, 0), BuildingBlock: ZUJKAS_clean_linker_0, # of connection points: 2
#     Edge 48, Type (0, 0), BuildingBlock: ZUJKAS_clean_linker_0, # of connection points: 2
#     Edge 49, Type (0, 0), BuildingBlock: ZUJKAS_clean_linker_0, # of connection points: 2
#     Edge 50, Type (0, 0), BuildingBlock: ZUJKAS_clean_linker_0, # of connection points: 2
#     Edge 51, Type (0, 0), BuildingBlock: ZUJKAS_clean_linker_0, # of connection points: 2
#     Edge 52, Type (0, 0), BuildingBlock: ZUJKAS_clean_linker_0, # of connection points: 2
#     Edge 53, Type (0, 0), BuildingBlock: ZUJKAS_clean_linker_0, # of connection points: 2
#     Edge 54, Type (0, 0), BuildingBlock: ZUJKAS_clean_linker_0, # of connection points: 2
#     Edge 55, Type (0, 0), BuildingBlock: ZUJKAS_clean_linker_0, # of connection points: 2
#     Edge 56, Type (0, 0), BuildingBlock: ZUJKAS_clean_linker_0, # of connection points: 2
#     Edge 57, Type (0, 0), BuildingBlock: ZUJKAS_clean_linker_0, # of connection points: 2
#     Edge 58, Type (0, 0), BuildingBlock: ZUJKAS_clean_linker_0, # of connection points: 2
#     Edge 59, Type (0, 0), BuildingBlock: ZUJKAS_clean_linker_0, # of connection points: 2
#     Edge 60, Type (0, 0), BuildingBlock: ZUJKAS_clean_linker_0, # of connection points: 2
#     Edge 61, Type (0, 0), BuildingBlock: ZUJKAS_clean_linker_0, # of connection points: 2
#     Edge 62, Type (0, 0), BuildingBlock: ZUJKAS_clean_linker_0, # of connection points: 2
#     Edge 63, Type (0, 0), BuildingBlock: ZUJKAS_clean_linker_0, # of connection points: 2
# Relax obj value: 0.306
# Max RMSD: 0.281
# Mean RMSD: 0.281
data_MOF--net-vbr--node1-OJICUG_clean_sbu_0--edge1-ZUJKAS_clean_linker_0
_symmetry_space_group_name_H-M    P1
_symmetry_Int_Tables_number       1
_symmetry_cell_setting            triclinic
loop_
_symmetry_equiv_pos_as_xyz
'x, y, z'
_cell_length_a     55.809257
_cell_length_b     37.220248
_cell_length_c     72.647198
_cell_angle_alpha  89.992971
_cell_angle_beta   90.002943
_cell_angle_gamma 89.998519
loop_
_atom_site_label
_atom_site_type_symbol
_atom_site_fract_x
_atom_site_fract_y
_atom_site_fract_z
_atom_type_partial_charge
Sc0 Sc 0.34773 0.15194 0.09908 0.0
Sc1 Sc 0.2874 0.13803 0.11122 0.0
Sc2 Sc 0.33162 0.07556 0.12471 0.0
O3 O 0.32218 0.12191 0.11174 0.0
C4 C 0.36184 0.07169 0.08759 0.0
C5 C 0.30463 0.15619 0.0704 0.0
C6 C 0.28073 0.05356 0.10794 0.0
C7 C 0.31454 0.21323 0.11578 0.0
C8 C 0.37565 0.12674 0.1348 0.0
C9 C 0.29409 0.11021 0.15264 0.0
O10 O 0.36372 0.10563 0.08632 0.0
O11 O 0.28831 0.14912 0.08209 0.0
O12 O 0.30101 0.0465 0.11494 0.0
O13 O 0.33446 0.202 0.10961 0.0
O14 O 0.36383 0.0978 0.13658 0.0
O15 O 0.28337 0.12813 0.14019 0.0
O16 O 0.37126 0.14967 0.12233 0.0
O17 O 0.29627 0.19309 0.1174 0.0
O18 O 0.31249 0.09081 0.14948 0.0
O19 O 0.3267 0.15793 0.07459 0.0
O20 O 0.35039 0.05639 0.10057 0.0
O21 O 0.27343 0.08539 0.10516 0.0
Sc22 Sc 0.15341 0.84094 0.60031 0.0
Sc23 Sc 0.21018 0.85666 0.61951 0.0
Sc24 Sc 0.16509 0.923 0.62267 0.0
O25 O 0.17625 0.87355 0.61421 0.0
C26 C 0.14188 0.91746 0.58249 0.0
C27 C 0.20273 0.82959 0.57857 0.0
C28 C 0.21892 0.94023 0.61167 0.0
C29 C 0.18084 0.78306 0.62422 0.0
C30 C 0.11894 0.87503 0.63059 0.0
C31 C 0.19581 0.89457 0.65709 0.0
O32 O 0.14198 0.88336 0.58241 0.0
O33 O 0.21618 0.84127 0.59138 0.0
O34 O 0.1971 0.94906 0.61347 0.0
O35 O 0.16217 0.79424 0.6161 0.0
O36 O 0.13145 0.90311 0.63312 0.0
O37 O 0.20697 0.87069 0.64796 0.0
O38 O 0.12467 0.85055 0.61925 0.0
O39 O 0.19946 0.80238 0.62617 0.0
O40 O 0.18049 0.91582 0.6499 0.0
O41 O 0.18006 0.82735 0.58009 0.0
O42 O 0.14952 0.93582 0.59608 0.0
O43 O 0.22632 0.90822 0.61381 0.0
Sc44 Sc 0.33913 0.83798 0.89253 0.0
Sc45 Sc 0.28189 0.85282 0.87388 0.0
Sc46 Sc 0.32612 0.92045 0.87091 0.0
O47 O 0.31568 0.87043 0.87907 0.0
C48 C 0.35062 0.91447 0.91053 0.0
C49 C 0.29055 0.82485 0.91474 0.0
C50 C 0.2722 0.93568 0.88272 0.0
C51 C 0.31159 0.78006 0.86844 0.0
C52 C 0.37239 0.87319 0.86188 0.0
C53 C 0.29513 0.89285 0.83653 0.0
O54 O 0.35137 0.8804 0.91014 0.0
O55 O 0.27678 0.83517 0.90181 0.0
O56 O 0.29377 0.94543 0.88035 0.0
O57 O 0.32982 0.79077 0.87729 0.0
O58 O 0.3599 0.90156 0.86019 0.0
O59 O 0.28405 0.8689 0.84566 0.0
O60 O 0.36692 0.84782 0.8728 0.0
O61 O 0.29321 0.79959 0.86594 0.0
O62 O 0.31073 0.91367 0.84368 0.0
O63 O 0.31328 0.82449 0.91334 0.0
O64 O 0.34173 0.93304 0.89749 0.0
O65 O 0.26529 0.90338 0.88079 0.0
Sc66 Sc 0.16213 0.0799 0.36634 0.0
Sc67 Sc 0.20741 0.14345 0.37594 0.0
Sc68 Sc 0.14868 0.15728 0.39212 0.0
O69 O 0.17279 0.12692 0.37809 0.0
C70 C 0.11689 0.13023 0.35866 0.0
C71 C 0.19603 0.11396 0.3355 0.0
C72 C 0.17937 0.21823 0.3726 0.0
C73 C 0.21477 0.05905 0.37991 0.0
C74 C 0.13588 0.07753 0.40529 0.0
C75 C 0.19519 0.16348 0.41751 0.0
O76 O 0.12887 0.10163 0.35617 0.0
O77 O 0.20786 0.13292 0.34691 0.0
O78 O 0.16022 0.20683 0.37998 0.0
O79 O 0.19369 0.0515 0.37468 0.0
O80 O 0.13456 0.11153 0.40653 0.0
O81 O 0.21004 0.15551 0.40487 0.0
O82 O 0.14575 0.06171 0.39171 0.0
O83 O 0.22234 0.09108 0.38141 0.0
O84 O 0.17269 0.16501 0.41487 0.0
O85 O 0.17854 0.09389 0.34025 0.0
O86 O 0.12233 0.15344 0.37074 0.0
O87 O 0.1976 0.19835 0.37009 0.0
Sc88 Sc 0.66281 0.92023 0.871 0.0
Sc89 Sc 0.70658 0.85247 0.87368 0.0
Sc90 Sc 0.64965 0.83791 0.89253 0.0
O91 O 0.67297 0.87022 0.87904 0.0
C92 C 0.63865 0.91397 0.91086 0.0
C93 C 0.71641 0.93589 0.88138 0.0
C94 C 0.69902 0.82584 0.9144 0.0
C95 C 0.69332 0.89074 0.83647 0.0
C96 C 0.61628 0.87421 0.86205 0.0
C97 C 0.67651 0.77932 0.86931 0.0
O98 O 0.64589 0.93237 0.89717 0.0
O99 O 0.72336 0.90426 0.87757 0.0
O100 O 0.67648 0.8222 0.91231 0.0
O101 O 0.6797 0.91389 0.84417 0.0
O102 O 0.62099 0.84995 0.87382 0.0
O103 O 0.69564 0.79775 0.86847 0.0
O104 O 0.62964 0.90133 0.85932 0.0
O105 O 0.70253 0.86436 0.84507 0.0
O106 O 0.65724 0.79168 0.876 0.0
O107 O 0.69451 0.94487 0.88176 0.0
O108 O 0.63922 0.87988 0.91108 0.0
O109 O 0.7126 0.83941 0.90214 0.0
Sc110 Sc 0.8439 0.15621 0.39233 0.0
Sc111 Sc 0.78552 0.14071 0.37612 0.0
Sc112 Sc 0.83091 0.07614 0.36853 0.0
O113 O 0.82007 0.12435 0.37893 0.0
C114 C 0.87584 0.12618 0.35953 0.0
C115 C 0.81343 0.21552 0.37163 0.0
C116 C 0.79727 0.10775 0.33663 0.0
C117 C 0.79698 0.16377 0.41728 0.0
C118 C 0.85713 0.07806 0.40758 0.0
C119 C 0.77824 0.05637 0.382 0.0
O120 O 0.87055 0.14999 0.37135 0.0
O121 O 0.79506 0.1956 0.36993 0.0
O122 O 0.81382 0.08672 0.3422 0.0
O123 O 0.81943 0.16634 0.41456 0.0
O124 O 0.84799 0.06076 0.39418 0.0
O125 O 0.77049 0.08844 0.38179 0.0
O126 O 0.85762 0.11214 0.40815 0.0
O127 O 0.78232 0.15371 0.40489 0.0
O128 O 0.79971 0.04826 0.37805 0.0
O129 O 0.83283 0.20444 0.37872 0.0
O130 O 0.86382 0.09749 0.35743 0.0
O131 O 0.78603 0.12912 0.34724 0.0
Sc132 Sc 0.65879 0.07817 0.12552 0.0
Sc133 Sc 0.70368 0.14271 0.11658 0.0
Sc134 Sc 0.64478 0.15697 0.10095 0.0
O135 O 0.66912 0.12599 0.11442 0.0
C136 C 0.63156 0.07791 0.08692 0.0
C137 C 0.71117 0.05837 0.11135 0.0
C138 C 0.69098 0.16394 0.07526 0.0
C139 C 0.6933 0.11065 0.15655 0.0
C140 C 0.6139 0.12827 0.13462 0.0
C141 C 0.67564 0.21741 0.12066 0.0
O142 O 0.64132 0.06154 0.10035 0.0
O143 O 0.71875 0.09052 0.11093 0.0
O144 O 0.66855 0.16588 0.07816 0.0
O145 O 0.67638 0.08985 0.15143 0.0
O146 O 0.61881 0.15176 0.12253 0.0
O147 O 0.69395 0.19749 0.12265 0.0
O148 O 0.62603 0.0997 0.13677 0.0
O149 O 0.7043 0.13161 0.14558 0.0
O150 O 0.65625 0.20616 0.1136 0.0
O151 O 0.68992 0.05022 0.11592 0.0
O152 O 0.6306 0.11196 0.08593 0.0
O153 O 0.706 0.15518 0.08767 0.0
Sc154 Sc 0.82687 0.91735 0.62404 0.0
Sc155 Sc 0.78191 0.85058 0.62236 0.0
Sc156 Sc 0.83782 0.83498 0.60167 0.0
O157 O 0.81551 0.86764 0.61607 0.0
C158 C 0.84858 0.91131 0.58338 0.0
C159 C 0.77259 0.93377 0.61381 0.0
C160 C 0.78772 0.82237 0.58136 0.0
C161 C 0.79738 0.89003 0.65927 0.0
C162 C 0.87333 0.86957 0.63116 0.0
C163 C 0.81173 0.7775 0.62681 0.0
O164 O 0.84172 0.92983 0.59715 0.0
O165 O 0.76542 0.9017 0.61623 0.0
O166 O 0.81047 0.82112 0.58212 0.0
O167 O 0.81246 0.91104 0.65164 0.0
O168 O 0.86729 0.84501 0.61993 0.0
O169 O 0.79339 0.79698 0.62962 0.0
O170 O 0.86078 0.89753 0.63394 0.0
O171 O 0.78595 0.86595 0.65052 0.0
O172 O 0.82967 0.78816 0.61759 0.0
O173 O 0.79442 0.94295 0.61531 0.0
O174 O 0.84831 0.87723 0.58338 0.0
O175 O 0.7748 0.83354 0.5946 0.0
Sc176 Sc 0.84385 0.6578 0.10136 0.0
Sc177 Sc 0.78525 0.64328 0.11756 0.0
Sc178 Sc 0.83058 0.57932 0.12636 0.0
O179 O 0.81984 0.62683 0.11515 0.0
C180 C 0.85705 0.57866 0.08751 0.0
C181 C 0.79719 0.66366 0.07603 0.0
C182 C 0.77792 0.55872 0.11304 0.0
C183 C 0.81303 0.71832 0.12096 0.0
C184 C 0.87552 0.62984 0.1347 0.0
C185 C 0.79689 0.61267 0.15761 0.0
O186 O 0.85808 0.61269 0.08653 0.0
O187 O 0.78239 0.65498 0.0886 0.0
O188 O 0.79926 0.55096 0.11751 0.0
O189 O 0.83236 0.70701 0.11384 0.0
O190 O 0.86362 0.60109 0.13694 0.0
O191 O 0.7854 0.63297 0.14661 0.0
O192 O 0.87016 0.65335 0.12273 0.0
O193 O 0.79479 0.69836 0.12319 0.0
O194 O 0.81374 0.59179 0.15246 0.0
O195 O 0.81966 0.66594 0.07874 0.0
O196 O 0.84733 0.56227 0.10095 0.0
O197 O 0.77022 0.5908 0.11238 0.0
Sc198 Sc 0.64988 0.33403 0.60165 0.0
Sc199 Sc 0.70634 0.34861 0.62108 0.0
Sc200 Sc 0.66287 0.41648 0.62299 0.0
O201 O 0.67294 0.36638 0.61526 0.0
C202 C 0.63885 0.40981 0.58311 0.0
C203 C 0.69975 0.3231 0.58021 0.0
C204 C 0.71639 0.43211 0.61368 0.0
C205 C 0.67647 0.27518 0.62463 0.0
C206 C 0.61631 0.37065 0.63194 0.0
C207 C 0.69237 0.38643 0.65793 0.0
O208 O 0.6398 0.37575 0.58286 0.0
O209 O 0.71307 0.33712 0.59253 0.0
O210 O 0.69453 0.44065 0.61188 0.0
O211 O 0.65705 0.2879 0.6184 0.0
O212 O 0.62984 0.39755 0.63484 0.0
O213 O 0.70088 0.35905 0.64971 0.0
O214 O 0.62091 0.3465 0.62007 0.0
O215 O 0.69565 0.29351 0.6253 0.0
O216 O 0.67999 0.41057 0.6498 0.0
O217 O 0.67726 0.31844 0.58226 0.0
O218 O 0.64568 0.42829 0.59689 0.0
O219 O 0.72308 0.4008 0.61835 0.0
Sc220 Sc 0.83756 0.34061 0.89345 0.0
Sc221 Sc 0.78149 0.35454 0.87258 0.0
Sc222 Sc 0.82596 0.42199 0.87039 0.0
O223 O 0.81497 0.37239 0.87878 0.0
C224 C 0.84836 0.4179 0.91075 0.0
C225 C 0.78766 0.32886 0.91412 0.0
C226 C 0.77148 0.43786 0.88023 0.0
C227 C 0.81143 0.28156 0.86917 0.0
C228 C 0.87262 0.37428 0.86355 0.0
C229 C 0.79733 0.39249 0.83529 0.0
O230 O 0.84895 0.38382 0.91087 0.0
O231 O 0.77463 0.33836 0.90058 0.0
O232 O 0.79321 0.44732 0.87855 0.0
O233 O 0.82906 0.29264 0.87857 0.0
O234 O 0.86023 0.40253 0.86106 0.0
O235 O 0.78566 0.36886 0.8442 0.0
O236 O 0.86651 0.3494 0.87456 0.0
O237 O 0.79322 0.30092 0.86575 0.0
O238 O 0.81213 0.41406 0.8428 0.0
O239 O 0.81045 0.32844 0.91348 0.0
O240 O 0.84021 0.43583 0.89722 0.0
O241 O 0.76453 0.40557 0.87822 0.0
Sc242 Sc 0.66031 0.57561 0.36896 0.0
Sc243 Sc 0.70495 0.63989 0.37902 0.0
Sc244 Sc 0.64575 0.65331 0.39415 0.0
O245 O 0.67039 0.62297 0.38065 0.0
C246 C 0.61568 0.62621 0.35982 0.0
C247 C 0.69491 0.61007 0.33858 0.0
C248 C 0.67706 0.71481 0.37573 0.0
C249 C 0.71258 0.55536 0.38314 0.0
C250 C 0.63232 0.57363 0.40713 0.0
C251 C 0.69135 0.65837 0.42053 0.0
O252 O 0.62758 0.5974 0.35779 0.0
O253 O 0.70587 0.63039 0.3499 0.0
O254 O 0.6576 0.7032 0.38251 0.0
O255 O 0.69142 0.54735 0.37832 0.0
O256 O 0.63093 0.60763 0.40824 0.0
O257 O 0.70665 0.65066 0.40813 0.0
O258 O 0.64277 0.55774 0.39387 0.0
O259 O 0.72008 0.58751 0.38406 0.0
O260 O 0.66897 0.66048 0.4174 0.0
O261 O 0.67804 0.58886 0.34331 0.0
O262 O 0.62051 0.64953 0.37201 0.0
O263 O 0.69537 0.69498 0.37356 0.0
Sc264 Sc 0.16664 0.41484 0.87208 0.0
Sc265 Sc 0.20996 0.34703 0.86945 0.0
Sc266 Sc 0.15617 0.33103 0.89241 0.0
O267 O 0.17751 0.36432 0.878 0.0
C268 C 0.14704 0.40451 0.91324 0.0
C269 C 0.22069 0.42959 0.87877 0.0
C270 C 0.20846 0.31679 0.90955 0.0
C271 C 0.19257 0.38852 0.83481 0.0
C272 C 0.11938 0.37018 0.8652 0.0
C273 C 0.17911 0.27444 0.86624 0.0
O274 O 0.15092 0.42384 0.89908 0.0
O275 O 0.22679 0.39928 0.87221 0.0
O276 O 0.18584 0.3121 0.9088 0.0
O277 O 0.18181 0.41226 0.84445 0.0
O278 O 0.12488 0.34636 0.87703 0.0
O279 O 0.19855 0.29211 0.86506 0.0
O280 O 0.13303 0.39634 0.8611 0.0
O281 O 0.20099 0.35964 0.84159 0.0
O282 O 0.16039 0.28747 0.8735 0.0
O283 O 0.19915 0.43749 0.88261 0.0
O284 O 0.14957 0.37063 0.91314 0.0
O285 O 0.22024 0.33317 0.89709 0.0
Sc286 Sc 0.34705 0.65701 0.39285 0.0
Sc287 Sc 0.2883 0.64265 0.37703 0.0
Sc288 Sc 0.33326 0.57817 0.36825 0.0
O289 O 0.32283 0.62596 0.37932 0.0
C290 C 0.37793 0.62867 0.3591 0.0
C291 C 0.31624 0.7175 0.37325 0.0
C292 C 0.29908 0.61113 0.3371 0.0
C293 C 0.30069 0.66327 0.41843 0.0
C294 C 0.36042 0.57806 0.40689 0.0
C295 C 0.28084 0.55821 0.3821 0.0
O296 O 0.37302 0.65196 0.3713 0.0
O297 O 0.29791 0.69761 0.3713 0.0
O298 O 0.31569 0.58987 0.34231 0.0
O299 O 0.32312 0.66568 0.41557 0.0
O300 O 0.35072 0.56155 0.39347 0.0
O301 O 0.27321 0.59033 0.3823 0.0
O302 O 0.36128 0.6121 0.40784 0.0
O303 O 0.28577 0.65438 0.40598 0.0
O304 O 0.30219 0.55006 0.37784 0.0
O305 O 0.33566 0.70617 0.38021 0.0
O306 O 0.36589 0.60001 0.35694 0.0
O307 O 0.28811 0.63224 0.34801 0.0
Sc308 Sc 0.15988 0.57556 0.12639 0.0
Sc309 Sc 0.20521 0.63929 0.11709 0.0
Sc310 Sc 0.1466 0.65354 0.10092 0.0
O311 O 0.1706 0.62283 0.11486 0.0
C312 C 0.13293 0.57421 0.08768 0.0
C313 C 0.21219 0.55466 0.11252 0.0
C314 C 0.19312 0.65898 0.07549 0.0
C315 C 0.19423 0.60897 0.15727 0.0
C316 C 0.11533 0.62677 0.13483 0.0
C317 C 0.17752 0.71443 0.12017 0.0
O318 O 0.14241 0.55813 0.10132 0.0
O319 O 0.21999 0.58669 0.11198 0.0
O320 O 0.17065 0.66122 0.07819 0.0
O321 O 0.17739 0.58794 0.15226 0.0
O322 O 0.12045 0.6495 0.12241 0.0
O323 O 0.19573 0.69446 0.12255 0.0
O324 O 0.12726 0.59813 0.13739 0.0
O325 O 0.20539 0.62942 0.14616 0.0
O326 O 0.1582 0.70301 0.11308 0.0
O327 O 0.19087 0.54689 0.11707 0.0
O328 O 0.13232 0.60821 0.08635 0.0
O329 O 0.20792 0.65062 0.08811 0.0
Sc330 Sc 0.3269 0.42389 0.62352 0.0
Sc331 Sc 0.28248 0.35693 0.61938 0.0
Sc332 Sc 0.3399 0.34205 0.60135 0.0
O333 O 0.31642 0.37433 0.61477 0.0
C334 C 0.35177 0.41869 0.58389 0.0
C335 C 0.2735 0.44064 0.61176 0.0
C336 C 0.29128 0.33049 0.57859 0.0
C337 C 0.2953 0.39428 0.65727 0.0
C338 C 0.37285 0.37644 0.6326 0.0
C339 C 0.31201 0.28347 0.62422 0.0
O340 O 0.34392 0.43683 0.59748 0.0
O341 O 0.26624 0.40866 0.61425 0.0
O342 O 0.31384 0.32772 0.58076 0.0
O343 O 0.31001 0.41666 0.65023 0.0
O344 O 0.36796 0.35241 0.62077 0.0
O345 O 0.29312 0.30241 0.62542 0.0
O346 O 0.35992 0.40411 0.63511 0.0
O347 O 0.28517 0.36952 0.64804 0.0
O348 O 0.33119 0.29524 0.61709 0.0
O349 O 0.29534 0.44966 0.61321 0.0
O350 O 0.35143 0.3846 0.58356 0.0
O351 O 0.27736 0.34287 0.59094 0.0
H352 H 0.33415 0.17204 0.04141 0.0
H353 H 0.32249 0.19466 0.01115 0.0
H354 H 0.24797 0.18433 0.02587 0.0
H355 H 0.25931 0.16146 0.05616 0.0
H356 H 0.26086 0.1612 0.9887 0.0
H357 H 0.29402 0.29798 0.00685 0.0
H358 H 0.31474 0.2613 0.00942 0.0
H359 H 0.28886 0.26378 0.02402 0.0
C360 C 0.31525 0.17418 0.03819 0.0
C361 C 0.29764 0.16542 0.05134 0.0
C362 C 0.30867 0.18718 0.0209 0.0
C363 C 0.28444 0.19167 0.0165 0.0
C364 C 0.2668 0.18116 0.02914 0.0
H365 H 0.18938 0.28277 0.93941 0.0
H366 H 0.21066 0.2512 0.96375 0.0
C367 C 0.27333 0.16815 0.04644 0.0
C368 C 0.27729 0.20934 -0.0008 0.0
H369 H 0.27515 0.29125 0.97818 0.0
C370 C 0.26417 0.18953 0.98626 0.0
C371 C 0.28185 0.24623 0.99611 0.0
C372 C 0.2955 0.26878 0.00984 0.0
C373 C 0.25487 0.20597 0.97046 0.0
C374 C 0.25844 0.24323 0.96782 0.0
C375 C 0.27246 0.26269 0.98033 0.0
C376 C 0.24597 0.26305 0.95309 0.0
C377 C 0.24102 0.18347 0.95685 0.0
C378 C 0.25889 0.28141 0.93947 0.0
C379 C 0.24678 0.29982 0.92551 0.0
C380 C 0.22156 0.30026 0.92509 0.0
C381 C 0.2088 0.28277 0.93918 0.0
C382 C 0.2209 0.26444 0.95305 0.0
H383 H 0.24601 0.15463 0.95782 0.0
H384 H 0.22159 0.18576 0.95987 0.0
H385 H 0.24411 0.19279 0.94252 0.0
H386 H 0.27831 0.28096 0.93948 0.0
H387 H 0.25716 0.31304 0.9149 0.0
H388 H 0.32659 0.68369 0.44865 0.0
H389 H 0.31121 0.70868 0.47737 0.0
H390 H 0.2388 0.69313 0.45825 0.0
H391 H 0.25388 0.6678 0.42952 0.0
H392 H 0.28257 0.77065 0.4784 0.0
H393 H 0.23698 0.65467 0.51125 0.0
H394 H 0.25894 0.64943 0.49318 0.0
H395 H 0.22866 0.66191 0.48766 0.0
C396 C 0.30737 0.68499 0.45063 0.0
C397 C 0.29146 0.67396 0.4367 0.0
C398 C 0.29865 0.69928 0.46706 0.0
C399 C 0.27393 0.70249 0.46991 0.0
C400 C 0.25797 0.69029 0.45639 0.0
H401 H 0.18033 0.80401 0.54776 0.0
H402 H 0.19882 0.77478 0.52127 0.0
C403 C 0.26664 0.67599 0.43994 0.0
C404 C 0.26482 0.72159 0.48625 0.0
H405 H 0.22825 0.71262 0.52353 0.0
C406 C 0.27089 0.75794 0.4884 0.0
C407 C 0.24956 0.70482 0.49915 0.0
C408 C 0.24329 0.66547 0.49784 0.0
C409 C 0.26148 0.77836 0.50289 0.0
C410 C 0.24591 0.76173 0.51562 0.0
C411 C 0.24013 0.72524 0.51363 0.0
C412 C 0.23513 0.78176 0.53103 0.0
C413 C 0.26767 0.81776 0.50416 0.0
C414 C 0.24954 0.79568 0.54512 0.0
C415 C 0.23908 0.81254 0.56029 0.0
C416 C 0.214 0.81544 0.56164 0.0
C417 C 0.19969 0.8022 0.54721 0.0
C418 C 0.21018 0.78541 0.53207 0.0
H419 H 0.27537 0.82811 0.49108 0.0
H420 H 0.25158 0.83392 0.50768 0.0
H421 H 0.28114 0.82173 0.5152 0.0
H422 H 0.26884 0.79264 0.54464 0.0
H423 H 0.25063 0.82227 0.57117 0.0
H424 H 0.24005 0.66548 0.06495 0.0
H425 H 0.25518 0.6914 0.03634 0.0
H426 H 0.18292 0.70256 0.01616 0.0
H427 H 0.16747 0.67695 0.04472 0.0
H428 H 0.24796 0.67207 -0.00184 0.0
H429 H 0.21075 0.80622 0.01628 0.0
H430 H 0.2138 0.77049 0.03292 0.0
H431 H 0.18975 0.76961 0.0165 0.0
C432 C 0.22734 0.67298 0.05436 0.0
C433 C 0.20251 0.66964 0.05727 0.0
C434 C 0.23604 0.68778 0.03803 0.0
C435 C 0.22009 0.69948 0.0244 0.0
C436 C 0.19543 0.69428 0.02674 0.0
H437 H 0.24283 0.81649 0.92255 0.0
H438 H 0.22527 0.78586 0.94907 0.0
C439 C 0.18668 0.67952 0.04305 0.0
C440 C 0.22925 0.71872 0.00814 0.0
H441 H 0.22999 0.80104 0.98747 0.0
C442 C 0.24405 0.70024 0.99577 0.0
C443 C 0.22403 0.75546 0.00518 0.0
C444 C 0.20887 0.77681 0.01847 0.0
C445 C 0.25373 0.71758 0.98035 0.0
C446 C 0.24875 0.75442 0.97752 0.0
C447 C 0.23372 0.77279 0.98977 0.0
C448 C 0.25932 0.77451 0.96205 0.0
C449 C 0.26897 0.6963 0.9671 0.0
C450 C 0.28419 0.77918 0.96097 0.0
C451 C 0.2943 0.79671 0.9459 0.0
C452 C 0.27967 0.80997 0.93166 0.0
C453 C 0.25463 0.80651 0.93321 0.0
C454 C 0.24455 0.78896 0.94832 0.0
H455 H 0.26618 0.66691 0.9687 0.0
H456 H 0.265 0.70391 0.95264 0.0
H457 H 0.28815 0.70212 0.9698 0.0
H458 H 0.29579 0.76885 0.97169 0.0
H459 H 0.31363 0.79912 0.94525 0.0
H460 H 0.24368 0.32447 0.56974 0.0
H461 H 0.22645 0.29388 0.54306 0.0
H462 H 0.29736 0.27284 0.52214 0.0
H463 H 0.31486 0.303 0.54874 0.0
H464 H 0.23246 0.30725 0.50482 0.0
H465 H 0.266 0.17247 0.52518 0.0
H466 H 0.26514 0.21002 0.5409 0.0
H467 H 0.28866 0.20667 0.52409 0.0
C468 C 0.25564 0.31363 0.55941 0.0
C469 C 0.28067 0.31589 0.5615 0.0
C470 C 0.24575 0.2961 0.54421 0.0
C471 C 0.26069 0.28048 0.53094 0.0
C472 C 0.28559 0.28403 0.53252 0.0
H473 H 0.24209 0.16959 0.42826 0.0
H474 H 0.25716 0.19603 0.4568 0.0
C475 C 0.29552 0.30151 0.54768 0.0
C476 C 0.25028 0.26032 0.5154 0.0
H477 H 0.2489 0.17748 0.49529 0.0
C478 C 0.23587 0.27883 0.50277 0.0
C479 C 0.25481 0.22324 0.5129 0.0
C480 C 0.26932 0.20178 0.52656 0.0
C481 C 0.22635 0.2614 0.48732 0.0
C482 C 0.23114 0.22444 0.48469 0.0
C483 C 0.24534 0.20582 0.49742 0.0
C484 C 0.22202 0.20502 0.46847 0.0
C485 C 0.21181 0.28283 0.47367 0.0
C486 C 0.19734 0.20021 0.466 0.0
C487 C 0.18864 0.18513 0.44975 0.0
C488 C 0.20452 0.17456 0.43571 0.0
C489 C 0.22935 0.17762 0.43872 0.0
C490 C 0.23801 0.19271 0.455 0.0
H491 H 0.21395 0.31224 0.47572 0.0
H492 H 0.21706 0.27606 0.45934 0.0
H493 H 0.19256 0.27613 0.47535 0.0
H494 H 0.18479 0.20902 0.47645 0.0
H495 H 0.16942 0.18286 0.448 0.0
H496 H 0.7468 0.82062 0.92281 0.0
H497 H 0.76469 0.79052 0.94939 0.0
H498 H 0.69425 0.7678 0.97081 0.0
H499 H 0.67612 0.79744 0.94432 0.0
H500 H 0.759 0.80434 0.98749 0.0
H501 H 0.72665 0.66834 0.96828 0.0
H502 H 0.72683 0.70555 0.95233 0.0
H503 H 0.70355 0.70189 0.96932 0.0
C504 C 0.73509 0.80948 0.93322 0.0
C505 C 0.71001 0.81116 0.93132 0.0
C506 C 0.74535 0.79222 0.94836 0.0
C507 C 0.73073 0.7763 0.96177 0.0
C508 C 0.70578 0.77919 0.96033 0.0
H509 H 0.75027 0.6691 0.06523 0.0
H510 H 0.73511 0.69446 0.03647 0.0
C511 C 0.69549 0.79637 0.94523 0.0
C512 C 0.74152 0.75676 0.97735 0.0
H513 H 0.7436 0.67463 -0.00181 0.0
C514 C 0.75584 0.77593 0.98978 0.0
C515 C 0.73731 0.71969 0.98018 0.0
C516 C 0.72293 0.69752 0.96674 0.0
C517 C 0.76553 0.75918 0.00537 0.0
C518 C 0.76101 0.72225 0.00835 0.0
C519 C 0.74695 0.70296 0.9958 0.0
C520 C 0.77022 0.70357 0.02477 0.0
C521 C 0.77994 0.78131 0.01881 0.0
C522 C 0.79492 0.69923 0.02731 0.0
C523 C 0.80367 0.68478 0.04369 0.0
C524 C 0.78782 0.67437 0.05779 0.0
C525 C 0.76299 0.67701 0.05473 0.0
C526 C 0.75427 0.69148 0.03832 0.0
H527 H 0.77763 0.81061 0.01647 0.0
H528 H 0.77473 0.775 0.0332 0.0
H529 H 0.79923 0.77481 0.01719 0.0
H530 H 0.80744 0.70787 0.01681 0.0
H531 H 0.8229 0.68279 0.04548 0.0
H532 H 0.67711 0.29732 0.54961 0.0
H533 H 0.69538 0.27009 0.52252 0.0
H534 H 0.7657 0.29098 0.54466 0.0
H535 H 0.74764 0.31808 0.57204 0.0
H536 H 0.72898 0.30024 0.49711 0.0
H537 H 0.7648 0.18107 0.53435 0.0
H538 H 0.74208 0.20997 0.54404 0.0
H539 H 0.7728 0.22421 0.54364 0.0
C540 C 0.69648 0.29631 0.54876 0.0
C541 C 0.71092 0.30963 0.5631 0.0
C542 C 0.70685 0.28076 0.53324 0.0
C543 C 0.73181 0.27806 0.53181 0.0
C544 C 0.74636 0.29232 0.54574 0.0
H545 H 0.82239 0.18562 0.4475 0.0
H546 H 0.80659 0.21239 0.47566 0.0
C547 C 0.736 0.308 0.56129 0.0
C548 C 0.74244 0.26 0.51571 0.0
H549 H 0.77376 0.18551 0.50265 0.0
C550 C 0.73879 0.27518 0.49828 0.0
C551 C 0.75517 0.22733 0.5174 0.0
C552 C 0.75886 0.20941 0.53582 0.0
C553 C 0.74771 0.25858 0.48239 0.0
C554 C 0.76015 0.22565 0.48405 0.0
C555 C 0.76407 0.21068 0.5015 0.0
C556 C 0.76944 0.20662 0.46775 0.0
C557 C 0.74403 0.27663 0.464 0.0
C558 C 0.75367 0.19346 0.45433 0.0
C559 C 0.76258 0.17815 0.43819 0.0
C560 C 0.78744 0.17571 0.43526 0.0
C561 C 0.80314 0.18734 0.44922 0.0
C562 C 0.79419 0.20261 0.46534 0.0
H563 H 0.73923 0.30544 0.46555 0.0
H564 H 0.76042 0.27462 0.45539 0.0
H565 H 0.7292 0.26305 0.45657 0.0
H566 H 0.73446 0.19576 0.45618 0.0
H567 H 0.74998 0.16926 0.42782 0.0
H568 H 0.66472 0.18195 0.04481 0.0
H569 H 0.67953 0.20695 0.01592 0.0
H570 H 0.75219 0.1971 0.03546 0.0
H571 H 0.73768 0.17171 0.06436 0.0
H572 H 0.70587 0.27031 0.0136 0.0
H573 H 0.75591 0.15593 0.98331 0.0
H574 H 0.73421 0.15027 0.00152 0.0
H575 H 0.76403 0.1655 0.00671 0.0
C576 C 0.6839 0.18454 0.0429 0.0
C577 C 0.70002 0.17496 0.05697 0.0
C578 C 0.69228 0.19885 0.02637 0.0
C579 C 0.71691 0.20359 0.02355 0.0
C580 C 0.73312 0.19303 0.03728 0.0
H581 H 0.80913 0.30793 0.9462 0.0
H582 H 0.79034 0.27905 0.97263 0.0
C583 C 0.72477 0.17867 0.05382 0.0
C584 C 0.72557 0.22227 0.00691 0.0
H585 H 0.76326 0.21376 0.97025 0.0
C586 C 0.71821 0.25788 0.00398 0.0
C587 C 0.74165 0.20587 0.99447 0.0
C588 C 0.74926 0.16717 0.99652 0.0
C589 C 0.72718 0.27802 0.98921 0.0
C590 C 0.74368 0.26186 0.97702 0.0
C591 C 0.75068 0.22604 0.97974 0.0
C592 C 0.75443 0.28184 0.96157 0.0
C593 C 0.71958 0.3167 0.98707 0.0
C594 C 0.7403 0.29336 0.94674 0.0
C595 C 0.75094 0.30998 0.93157 0.0
C596 C 0.77592 0.3151 0.93096 0.0
C597 C 0.78986 0.30436 0.94614 0.0
C598 C 0.7792 0.28778 0.96126 0.0
H599 H 0.71065 0.32712 -0.00035 0.0
H600 H 0.73526 0.334 0.9839 0.0
H601 H 0.70678 0.31889 0.97544 0.0
H602 H 0.72115 0.28856 0.94668 0.0
H603 H 0.73969 0.31778 0.9201 0.0
H604 H 0.73781 0.66438 0.43227 0.0
H605 H 0.75173 0.68811 0.46169 0.0
H606 H 0.67865 0.69815 0.48026 0.0
H607 H 0.66443 0.67475 0.45086 0.0
H608 H 0.70532 0.76139 0.48287 0.0
H609 H 0.75398 0.64648 0.51393 0.0
H610 H 0.76255 0.65565 0.49057 0.0
H611 H 0.73252 0.64105 0.49552 0.0
C612 C 0.72467 0.67098 0.44271 0.0
C613 C 0.69999 0.66794 0.43912 0.0
C614 C 0.73269 0.68436 0.45955 0.0
C615 C 0.71619 0.69459 0.47313 0.0
C616 C 0.69162 0.69027 0.46992 0.0
H617 H 0.73966 0.81182 0.57573 0.0
H618 H 0.72072 0.78143 0.54969 0.0
C619 C 0.68357 0.67691 0.45309 0.0
C620 C 0.72454 0.71309 0.48989 0.0
H621 H 0.76186 0.70448 0.52675 0.0
C622 C 0.71743 0.74887 0.49263 0.0
C623 C 0.74033 0.69656 0.50249 0.0
C624 C 0.74764 0.6577 0.50062 0.0
C625 C 0.7265 0.76911 0.50731 0.0
C626 C 0.7428 0.75286 0.51962 0.0
C627 C 0.74943 0.71681 0.51716 0.0
C628 C 0.75385 0.77308 0.53485 0.0
C629 C 0.71928 0.80801 0.50917 0.0
C630 C 0.77869 0.77841 0.535 0.0
C631 C 0.78959 0.79565 0.54982 0.0
C632 C 0.77581 0.80767 0.56482 0.0
C633 C 0.75079 0.80305 0.56438 0.0
C634 C 0.73991 0.78575 0.54952 0.0
H635 H 0.71048 0.81832 0.49651 0.0
H636 H 0.70647 0.8108 0.52077 0.0
H637 H 0.73513 0.82504 0.51224 0.0
H638 H 0.78969 0.76881 0.52374 0.0
H639 H 0.80889 0.79881 0.54967 0.0
H640 H 0.37652 0.88529 0.93875 0.0
H641 H 0.38436 0.91144 0.96893 0.0
H642 H 0.35091 0.01031 0.95177 0.0
H643 H 0.34268 0.98424 0.92143 0.0
H644 H 0.40843 0.97515 0.98138 0.0
H645 H 0.31075 0.97524 0.99643 0.0
H646 H 0.32346 0.95091 0.97729 0.0
H647 H 0.31938 -0.0013 0.97585 0.0
C648 C 0.37105 0.91278 0.94124 0.0
C649 C 0.35866 0.9325 0.92769 0.0
C650 C 0.37565 0.9277 0.95852 0.0
C651 C 0.36787 0.96255 0.96267 0.0
C652 C 0.35675 0.98313 0.94889 0.0
H653 H 0.39006 0.09338 0.05884 0.0
H654 H 0.39476 0.06334 0.02927 0.0
C655 C 0.35218 0.96826 0.93153 0.0
C656 C 0.36986 0.97615 0.98179 0.0
H657 H 0.33613 0.00064 0.0189 0.0
C658 C 0.39266 0.98078 0.98962 0.0
C659 C 0.34924 0.98266 0.9926 0.0
C660 C 0.3243 0.97637 0.98524 0.0
C661 C 0.39536 0.99257 0.0079 0.0
C662 C 0.37472 9e-05 0.01852 0.0
C663 C 0.35195 0.99482 0.01075 0.0
C664 C 0.376 0.01505 0.03743 0.0
C665 C 0.42024 0.99648 0.01575 0.0
C666 C 0.36436 0.99756 0.05205 0.0
C667 C 0.36152 0.01475 0.06904 0.0
C668 C 0.37004 0.04997 0.07164 0.0
C669 C 0.38319 0.06632 0.05735 0.0
C670 C 0.38604 0.04909 0.04041 0.0
H671 H 0.43348 0.98011 0.008 0.0
H672 H 0.42582 0.02503 0.01482 0.0
H673 H 0.42072 0.98837 0.03046 0.0
H674 H 0.35644 0.97128 0.05002 0.0
H675 H 0.35126 0.00135 0.07967 0.0
H676 H 0.11918 0.88815 0.55274 0.0
H677 H 0.11268 0.91556 0.52268 0.0
H678 H 0.14112 0.0158 0.54281 0.0
H679 H 0.14803 0.98847 0.57306 0.0
H680 H 0.08728 0.97766 0.51012 0.0
H681 H 0.18578 0.98745 0.49959 0.0
H682 H 0.1727 0.96092 0.51779 0.0
H683 H 0.17456 0.00891 0.52 0.0
C684 C 0.12382 0.91618 0.55092 0.0
C685 C 0.13445 0.93596 0.5653 0.0
C686 C 0.11999 0.93181 0.5337 0.0
C687 C 0.12679 0.96747 0.53044 0.0
C688 C 0.13609 0.98802 0.545 0.0
H689 H 0.1074 0.09921 0.43382 0.0
H690 H 0.10236 0.06951 0.4635 0.0
C691 C 0.13989 0.97241 0.56231 0.0
C692 C 0.12572 0.98207 0.51147 0.0
H693 H 0.16112 0.0109 0.47612 0.0
C694 C 0.10339 0.98504 0.50267 0.0
C695 C 0.14682 0.99094 0.50168 0.0
C696 C 0.17137 0.98667 0.51013 0.0
C697 C 0.10161 0.99728 0.48441 0.0
C698 C 0.12268 0.00689 0.47479 0.0
C699 C 0.14499 0.00346 0.48353 0.0
C700 C 0.12219 0.02186 0.45588 0.0
C701 C 0.07727 -0.0006 0.47545 0.0
C702 C 0.13463 0.00462 0.44159 0.0
C703 C 0.13756 0.02153 0.42453 0.0
C704 C 0.12838 0.05626 0.42157 0.0
C705 C 0.11476 0.07251 0.43561 0.0
C706 C 0.11174 0.05549 0.4526 0.0
H707 H 0.06384 0.98274 0.48283 0.0
H708 H 0.07099 0.02768 0.47565 0.0
H709 H 0.07814 0.99051 0.46087 0.0
H710 H 0.14292 0.97868 0.44389 0.0
H711 H 0.14825 0.00831 0.41409 0.0
H712 H 0.64551 0.98466 0.92038 0.0
H713 H 0.63816 0.01227 0.95049 0.0
H714 H 0.60769 0.91308 0.97021 0.0
H715 H 0.61485 0.88523 0.94028 0.0
H716 H 0.58275 0.98022 0.98151 0.0
H717 H 0.68088 0.97796 0.99511 0.0
H718 H 0.67161 -0.00119 0.97394 0.0
H719 H 0.66718 0.95146 0.97715 0.0
C720 C 0.63683 0.96889 0.931 0.0
C721 C 0.63102 0.93259 0.92795 0.0
C722 C 0.63274 0.98468 0.9482 0.0
C723 C 0.62266 0.96452 0.96259 0.0
C724 C 0.61555 0.92902 0.95929 0.0
H725 H 0.64036 0.00698 0.07914 0.0
H726 H 0.63474 0.97676 0.04956 0.0
C727 C 0.61975 0.91315 0.94216 0.0
C728 C 0.62132 0.97934 0.98148 0.0
H729 H 0.65637 0.00459 0.01772 0.0
C730 C 0.5988 0.98563 0.98946 0.0
C731 C 0.6423 0.98566 0.99188 0.0
C732 C 0.66691 0.97792 0.98422 0.0
C733 C 0.59676 -0.00114 0.00754 0.0
C734 C 0.6178 0.00598 0.01777 0.0
C735 C 0.64026 -0.00093 0.00985 0.0
C736 C 0.61721 0.02188 0.03648 0.0
C737 C 0.57219 0.00476 0.01561 0.0
C738 C 0.60864 0.05692 0.03907 0.0
C739 C 0.61182 0.07431 0.05594 0.0
C740 C 0.62377 0.05703 0.07056 0.0
C741 C 0.63103 0.0211 0.06825 0.0
C742 C 0.62791 0.0038 0.05132 0.0
H743 H 0.55822 0.98954 0.008 0.0
H744 H 0.5717 0.99665 0.03032 0.0
H745 H 0.56766 0.03375 0.0148 0.0
H746 H 0.60066 0.07158 0.02774 0.0
H747 H 0.60596 0.10194 0.05721 0.0
H748 H 0.85636 0.98353 0.57738 0.0
H749 H 0.86453 0.01309 0.54789 0.0
H750 H 0.86374 0.91022 0.52058 0.0
H751 H 0.85648 0.8805 0.54984 0.0
H752 H 0.89852 0.95176 0.50689 0.0
H753 H 0.8134 0.02896 0.50979 0.0
H754 H 0.83321 0.03774 0.52871 0.0
H755 H 0.82032 0.99374 0.52597 0.0
C756 C 0.85815 0.9672 0.56512 0.0
C757 C 0.85554 0.92965 0.56602 0.0
C758 C 0.86267 0.98415 0.54825 0.0
C759 C 0.8642 0.96394 0.53193 0.0
C760 C 0.86254 0.92642 0.53294 0.0
H761 H 0.8522 0.00606 0.41552 0.0
H762 H 0.85776 0.97734 0.4456 0.0
C763 C 0.85832 0.90946 0.54975 0.0
C764 C 0.86656 0.98152 0.51365 0.0
H765 H 0.83867 0.03992 0.48436 0.0
C766 C 0.88546 0.97109 0.50199 0.0
C767 C 0.84936 0.00649 0.50716 0.0
C768 C 0.8278 0.01718 0.51846 0.0
C769 C 0.88758 0.985 0.48407 0.0
C770 C 0.87047 0.00998 0.47773 0.0
C771 C 0.8518 0.02078 0.48939 0.0
C772 C 0.87125 0.02518 0.45893 0.0
C773 C 0.90802 0.97309 0.47196 0.0
C774 C 0.87763 0.06121 0.45645 0.0
C775 C 0.87464 0.07763 0.43933 0.0
C776 C 0.86486 0.05844 0.42438 0.0
C777 C 0.85979 0.02165 0.42668 0.0
C778 C 0.86294 0.00518 0.44385 0.0
H779 H 0.9212 0.9563 0.47954 0.0
H780 H 0.90086 0.95724 0.46025 0.0
H781 H 0.91736 0.99687 0.46616 0.0
H782 H 0.88401 0.07704 0.46796 0.0
H783 H 0.8789 0.10592 0.43812 0.0
H784 H 0.88421 0.60216 0.05858 0.0
H785 H 0.88859 0.57337 0.02858 0.0
H786 H 0.85095 0.48014 0.04863 0.0
H787 H 0.84625 0.50878 0.07874 0.0
H788 H 0.90677 0.50404 0.01545 0.0
H789 H 0.80864 0.52315 0.00629 0.0
H790 H 0.82544 0.54568 0.02411 0.0
H791 H 0.81748 0.4992 0.02668 0.0
C792 C 0.87729 0.5752 0.05679 0.0
C793 C 0.86455 0.558 0.07102 0.0
C794 C 0.87987 0.55879 0.03961 0.0
C795 C 0.86971 0.52499 0.03633 0.0
C796 C 0.85864 0.5065 0.05087 0.0
H797 H 0.87225 0.38973 0.94024 0.0
H798 H 0.87993 0.41815 0.96985 0.0
C799 C 0.85612 0.52283 0.06811 0.0
C800 C 0.86855 0.51088 0.0173 0.0
H801 H 0.82919 0.49282 0.98256 0.0
C802 C 0.88985 0.5015 0.00823 0.0
C803 C 0.84648 0.50846 0.00782 0.0
C804 C 0.82318 0.51991 0.0166 0.0
C805 C 0.88955 0.48886 0.98999 0.0
C806 C 0.86737 0.48537 0.98072 0.0
C807 C 0.84617 0.49549 0.9897 0.0
C808 C 0.86543 0.46981 0.962 0.0
C809 C 0.91296 0.47972 0.98073 0.0
C810 C 0.85472 0.48944 0.94767 0.0
C811 C 0.85016 0.4732 0.93065 0.0
C812 C 0.85598 0.43686 0.92774 0.0
C813 C 0.86747 0.41773 0.94196 0.0
C814 C 0.87208 0.43401 0.9589 0.0
H815 H 0.92834 0.49321 0.98755 0.0
H816 H 0.91592 0.45028 0.98154 0.0
H817 H 0.91269 0.48752 0.96598 0.0
H818 H 0.84932 0.51708 0.94984 0.0
H819 H 0.84123 0.48869 0.92005 0.0
H820 H 0.60386 0.59579 0.43563 0.0
H821 H 0.59875 0.56616 0.46538 0.0
H822 H 0.63833 0.47453 0.44563 0.0
H823 H 0.64366 0.50391 0.41577 0.0
H824 H 0.58139 0.49334 0.4774 0.0
H825 H 0.67817 0.52088 0.48935 0.0
H826 H 0.66114 0.54326 0.4716 0.0
H827 H 0.67083 0.49771 0.46836 0.0
C828 C 0.61102 0.56897 0.43742 0.0
C829 C 0.62446 0.55245 0.42336 0.0
C830 C 0.60803 0.55208 0.45445 0.0
C831 C 0.61848 0.51848 0.45775 0.0
C832 C 0.63032 0.50067 0.44335 0.0
H833 H 0.61786 0.37995 0.55273 0.0
H834 H 0.61017 0.40841 0.5231 0.0
C835 C 0.63323 0.51745 0.42626 0.0
C836 C 0.61928 0.504 0.47671 0.0
H837 H 0.65771 0.48851 0.51239 0.0
C838 C 0.59803 0.4922 0.48508 0.0
C839 C 0.64095 0.50334 0.48679 0.0
C840 C 0.66409 0.5172 0.4787 0.0
C841 C 0.59804 0.47886 0.5032 0.0
C842 C 0.61988 0.47723 0.51308 0.0
C843 C 0.64099 0.48977 0.50479 0.0
C844 C 0.62164 0.46129 0.53174 0.0
C845 C 0.5747 0.46697 0.5117 0.0
C846 C 0.63061 0.48159 0.54651 0.0
C847 C 0.63514 0.46536 0.56354 0.0
C848 C 0.63106 0.42837 0.56602 0.0
C849 C 0.62127 0.40846 0.55134 0.0
C850 C 0.61667 0.42474 0.53439 0.0
H851 H 0.55905 0.47888 0.50448 0.0
H852 H 0.57325 0.4373 0.51069 0.0
H853 H 0.57386 0.47447 0.52648 0.0
H854 H 0.6347 0.50982 0.54469 0.0
H855 H 0.64274 0.48148 0.57449 0.0
H856 H 0.14128 0.50286 0.08028 0.0
H857 H 0.13669 0.47283 0.05048 0.0
H858 H 0.10362 0.56787 0.0281 0.0
H859 H 0.10793 0.59812 0.05772 0.0
H860 H 0.09167 0.46765 0.0226 0.0
H861 H 0.17191 0.5462 0.00089 0.0
H862 H 0.16568 0.53664 0.02479 0.0
H863 H 0.14817 0.56945 0.01273 0.0
C864 C 0.13238 0.51706 0.06921 0.0
C865 C 0.12527 0.55311 0.07136 0.0
C866 C 0.12981 0.49985 0.05218 0.0
C867 C 0.12007 0.51837 0.03713 0.0
C868 C 0.11129 0.55328 0.03959 0.0
H869 H 0.13636 0.47564 0.91963 0.0
H870 H 0.12663 0.50384 0.94917 0.0
C871 C 0.11381 0.57049 0.05655 0.0
C872 C 0.12166 0.503 0.01841 0.0
H873 H 0.15481 0.50755 0.97903 0.0
C874 C 0.1054 0.47632 0.01301 0.0
C875 C 0.13947 0.51475 0.00596 0.0
C876 C 0.15744 0.54322 0.01128 0.0
C877 C 0.10655 0.46093 0.99535 0.0
C878 C 0.12482 0.47198 0.98303 0.0
C879 C 0.1408 0.49913 0.98843 0.0
C880 C 0.12864 0.45452 0.96489 0.0
C881 C 0.088 0.43335 0.99001 0.0
C882 C 0.13309 0.4175 0.9639 0.0
C883 C 0.13853 0.40132 0.94709 0.0
C884 C 0.13998 0.42187 0.93084 0.0
C885 C 0.13538 0.45898 0.93183 0.0
C886 C 0.12979 0.47514 0.9487 0.0
H887 H 0.07125 0.43675 -0.00191 0.0
H888 H 0.08358 0.43504 0.97513 0.0
H889 H 0.0951 0.40609 0.99292 0.0
H890 H 0.13303 0.40118 0.97625 0.0
H891 H 0.14214 0.37273 0.94695 0.0
H892 H 0.37584 0.3901 0.55459 0.0
H893 H 0.38375 0.41824 0.52492 0.0
H894 H 0.35381 0.51774 0.54477 0.0
H895 H 0.34553 0.48966 0.5746 0.0
H896 H 0.33324 0.4931 0.51218 0.0
H897 H 0.43237 0.49273 0.5067 0.0
H898 H 0.41978 0.45005 0.51299 0.0
H899 H 0.41688 0.48761 0.52838 0.0
C900 C 0.3713 0.41819 0.55283 0.0
C901 C 0.35991 0.43756 0.567 0.0
C902 C 0.37602 0.4343 0.53585 0.0
C903 C 0.36958 0.47016 0.53268 0.0
C904 C 0.35906 0.49006 0.54699 0.0
H905 H 0.38771 0.60179 0.4357 0.0
H906 H 0.39229 0.5732 0.46575 0.0
C907 C 0.3544 0.47399 0.56405 0.0
C908 C 0.37142 0.48549 0.51388 0.0
H909 H 0.41059 0.50371 0.47893 0.0
C910 C 0.35017 0.49563 0.50496 0.0
C911 C 0.39353 0.48877 0.5045 0.0
C912 C 0.41698 0.47954 0.51367 0.0
C913 C 0.35037 0.50844 0.48681 0.0
C914 C 0.37238 0.51072 0.47722 0.0
C915 C 0.39372 0.5013 0.48623 0.0
C916 C 0.37341 0.52472 0.45815 0.0
C917 C 0.32703 0.51989 0.47809 0.0
C918 C 0.36227 0.50613 0.44367 0.0
C919 C 0.35965 0.52235 0.4264 0.0
C920 C 0.36804 0.55751 0.42339 0.0
C921 C 0.38083 0.57483 0.43757 0.0
C922 C 0.38352 0.55853 0.45477 0.0
H923 H 0.31254 0.52317 0.48844 0.0
H924 H 0.32925 0.54565 0.47056 0.0
H925 H 0.32127 0.49917 0.46804 0.0
H926 H 0.35461 0.47978 0.44599 0.0
H927 H 0.34973 0.50821 0.41583 0.0
H928 H 0.31336 0.08336 0.18469 0.0
H929 H 0.29509 0.08345 0.21535 0.0
H930 H 0.2329 0.13756 0.19356 0.0
H931 H 0.25112 0.13849 0.16316 0.0
H932 H 0.24738 0.16763 0.22494 0.0
H933 H 0.24133 0.01995 0.23384 0.0
H934 H 0.27121 0.03534 0.22923 0.0
H935 H 0.2483 0.0406 0.21201 0.0
C936 C 0.29581 0.09529 0.18643 0.0
C937 C 0.28373 0.11088 0.17143 0.0
C938 C 0.2853 0.09505 0.20393 0.0
C939 C 0.26243 0.1099 0.20665 0.0
C940 C 0.25051 0.1258 0.19176 0.0
H941 H 0.17539 0.08008 0.30575 0.0
H942 H 0.18983 0.07986 0.27387 0.0
C943 C 0.26103 0.12634 0.17436 0.0
C944 C 0.25106 0.11001 0.22508 0.0
H945 H 0.23302 0.05569 0.26033 0.0
C946 C 0.24413 0.14312 0.23263 0.0
C947 C 0.24638 0.07796 0.23493 0.0
C948 C 0.25196 0.04142 0.22703 0.0
C949 C 0.23317 0.14518 0.24995 0.0
C950 C 0.22961 0.11332 0.26021 0.0
C951 C 0.23596 0.0801 0.25248 0.0
C952 C 0.22035 0.11413 0.2793 0.0
C953 C 0.22532 0.18146 0.25701 0.0
C954 C 0.23282 0.13322 0.29287 0.0
C955 C 0.2246 0.13364 0.31097 0.0
C956 C 0.20383 0.11452 0.316 0.0
C957 C 0.19138 0.0952 0.30236 0.0
C958 C 0.19962 0.09497 0.28416 0.0
H959 H 0.22226 0.20068 0.24555 0.0
H960 H 0.20861 0.17936 0.26524 0.0
H961 H 0.23959 0.19275 0.26593 0.0
H962 H 0.24918 0.14746 0.28951 0.0
H963 H 0.23483 0.14855 0.32107 0.0
H964 H 0.30569 0.94963 0.8136 0.0
H965 H 0.28852 0.96145 0.78306 0.0
H966 H 0.25045 0.86078 0.78541 0.0
H967 H 0.26734 0.84865 0.81563 0.0
H968 H 0.28986 0.91868 0.74985 0.0
H969 H 0.19751 0.93712 0.77601 0.0
H970 H 0.2236 0.93972 0.79069 0.0
H971 H 0.21133 0.89674 0.78439 0.0
C972 C 0.2939 0.92982 0.8075 0.0
C973 C 0.2877 0.89836 0.81716 0.0
C974 C 0.28401 0.93674 0.79013 0.0
C975 C 0.26774 0.91242 0.78229 0.0
C976 C 0.26248 0.88032 0.79149 0.0
H977 H 0.22153 0.84842 0.67845 0.0
H978 H 0.23855 0.85982 0.70872 0.0
C979 C 0.27231 0.87335 0.80873 0.0
C980 C 0.25624 0.91974 0.76436 0.0
H981 H 0.20126 0.92222 0.74382 0.0
C982 C 0.27053 0.92023 0.74851 0.0
C983 C 0.23104 0.92245 0.76271 0.0
C984 C 0.21497 0.92437 0.77938 0.0
C985 C 0.26012 0.92053 0.73095 0.0
C986 C 0.23485 0.91981 0.72931 0.0
C987 C 0.22062 0.92221 0.74514 0.0
C988 C 0.22308 0.91283 0.71145 0.0
C989 C 0.27623 0.9204 0.71427 0.0
C990 C 0.20771 0.9382 0.7034 0.0
C991 C 0.19774 0.93168 0.68602 0.0
C992 C 0.20296 0.89962 0.67655 0.0
C993 C 0.21736 0.87359 0.68521 0.0
C994 C 0.22726 0.88013 0.70247 0.0
H995 H 0.29412 0.93188 0.7175 0.0
H996 H 0.27888 0.8923 0.70959 0.0
H997 H 0.26816 0.9359 0.70277 0.0
H998 H 0.20405 0.96341 0.7103 0.0
H999 H 0.18674 0.95228 0.67974 0.0
H1000 H 0.77343 0.84364 0.6816 0.0
H1001 H 0.75619 0.85614 0.71169 0.0
H1002 H 0.78826 0.9615 0.71144 0.0
H1003 H 0.80567 0.94936 0.68099 0.0
H1004 H 0.791 0.91814 0.74646 0.0
H1005 H 0.69949 0.93091 0.71743 0.0
H1006 H 0.71552 0.89195 0.70957 0.0
H1007 H 0.72627 0.93599 0.70367 0.0
C1008 C 0.77709 0.8694 0.68795 0.0
C1009 C 0.79071 0.89568 0.67877 0.0
C1010 C 0.76711 0.87652 0.70512 0.0
C1011 C 0.77051 0.91 0.71349 0.0
C1012 C 0.78525 0.93564 0.705 0.0
H1013 H 0.68618 0.95014 0.81452 0.0
H1014 H 0.70459 0.96204 0.78442 0.0
C1015 C 0.79529 0.92855 0.6877 0.0
C1016 C 0.75812 0.91771 0.73099 0.0
H1017 H 0.70212 0.91868 0.74987 0.0
C1018 C 0.7716 0.91911 0.74723 0.0
C1019 C 0.73283 0.91948 0.73187 0.0
C1020 C 0.71763 0.91986 0.71469 0.0
C1021 C 0.7603 0.91943 0.76447 0.0
C1022 C 0.735 0.91796 0.76535 0.0
C1023 C 0.72153 0.91942 0.74911 0.0
C1024 C 0.7225 0.91061 0.78285 0.0
C1025 C 0.77548 0.91984 0.78165 0.0
C1026 C 0.72572 0.87725 0.7914 0.0
C1027 C 0.71513 0.8702 0.80837 0.0
C1028 C 0.70108 0.89646 0.81719 0.0
C1029 C 0.69689 0.92932 0.80812 0.0
C1030 C 0.70749 0.93629 0.79101 0.0
H1031 H 0.79366 0.93077 0.77889 0.0
H1032 H 0.76689 0.93611 0.79264 0.0
H1033 H 0.77752 0.89195 0.78682 0.0
H1034 H 0.73683 0.85682 0.78507 0.0
H1035 H 0.7186 0.84448 0.81481 0.0
H1036 H 0.72353 0.15721 0.17397 0.0
H1037 H 0.74146 0.15074 0.20437 0.0
H1038 H 0.70156 0.053 0.21308 0.0
H1039 H 0.68314 0.05943 0.18264 0.0
H1040 H 0.70175 0.09733 0.24345 0.0
H1041 H 0.79401 0.07886 0.21715 0.0
H1042 H 0.78027 0.11907 0.20855 0.0
H1043 H 0.76795 0.07597 0.2025 0.0
C1044 C 0.71842 0.13437 0.18234 0.0
C1045 C 0.70204 0.10865 0.17577 0.0
C1046 C 0.72886 0.13058 0.19967 0.0
C1047 C 0.72335 0.10086 0.21073 0.0
C1048 C 0.70627 0.07589 0.20462 0.0
H1049 H 0.80599 0.05471 0.31114 0.0
H1050 H 0.78824 0.04927 0.28035 0.0
C1051 C 0.69569 0.07973 0.18726 0.0
C1052 C 0.73527 0.09639 0.22879 0.0
H1053 H 0.79034 0.09354 0.24923 0.0
C1054 C 0.7211 0.09606 0.24472 0.0
C1055 C 0.7605 0.09395 0.23039 0.0
C1056 C 0.77656 0.09158 0.21372 0.0
C1057 C 0.73156 0.09528 0.26226 0.0
C1058 C 0.75683 0.09555 0.26386 0.0
C1059 C 0.77098 0.09392 0.24794 0.0
C1060 C 0.76879 0.09947 0.28192 0.0
C1061 C 0.71543 0.09448 0.27893 0.0
C1062 C 0.76446 0.13011 0.29262 0.0
C1063 C 0.77449 0.1333 0.3101 0.0
C1064 C 0.7893 0.10603 0.31721 0.0
C1065 C 0.79465 0.07616 0.30607 0.0
C1066 C 0.78446 0.07293 0.28853 0.0
H1067 H 0.69749 0.08337 0.27553 0.0
H1068 H 0.7234 0.07817 0.29017 0.0
H1069 H 0.71286 0.12229 0.28407 0.0
H1070 H 0.75298 0.15139 0.28753 0.0
H1071 H 0.77025 0.15693 0.31817 0.0
H1072 H 0.68563 0.55992 0.31182 0.0
H1073 H 0.7037 0.55634 0.28115 0.0
H1074 H 0.74138 0.65561 0.29108 0.0
H1075 H 0.72384 0.65919 0.32174 0.0
H1076 H 0.70237 0.60212 0.25153 0.0
H1077 H 0.79542 0.58759 0.27693 0.0
H1078 H 0.76966 0.58273 0.29175 0.0
H1079 H 0.7808 0.6267 0.28599 0.0
C1080 C 0.69762 0.58114 0.30743 0.0
C1081 C 0.7035 0.60964 0.31932 0.0
C1082 C 0.70799 0.57896 0.28994 0.0
C1083 C 0.72436 0.6052 0.28408 0.0
C1084 C 0.72936 0.63451 0.29557 0.0
H1085 H 0.76891 0.66178 0.17531 0.0
H1086 H 0.75199 0.65738 0.20615 0.0
C1087 C 0.71916 0.63662 0.31305 0.0
C1088 C 0.73611 0.60236 0.2659 0.0
H1089 H 0.79091 0.6023 0.24501 0.0
C1090 C 0.72171 0.6018 0.25009 0.0
C1091 C 0.76135 0.6012 0.26409 0.0
C1092 C 0.77771 0.59919 0.2806 0.0
C1093 C 0.73192 0.6017 0.23246 0.0
C1094 C 0.75716 0.60297 0.23065 0.0
C1095 C 0.77156 0.60191 0.24645 0.0
C1096 C 0.76884 0.60652 0.21248 0.0
C1097 C 0.71556 0.60023 0.21593 0.0
C1098 C 0.78495 0.58028 0.20621 0.0
C1099 C 0.79496 0.58291 0.18861 0.0
C1100 C 0.78895 0.61184 0.17703 0.0
C1101 C 0.77365 0.63887 0.18375 0.0
C1102 C 0.76382 0.63631 0.20134 0.0
H1103 H 0.69783 0.58858 0.2195 0.0
H1104 H 0.71252 0.6279 0.21074 0.0
H1105 H 0.72359 0.58406 0.20466 0.0
H1106 H 0.78925 0.55727 0.21474 0.0
H1107 H 0.80668 0.56166 0.18385 0.0
H1108 H 0.78211 0.34037 0.81191 0.0
H1109 H 0.76716 0.34803 0.78057 0.0
H1110 H 0.78388 0.46103 0.78282 0.0
H1111 H 0.79926 0.45353 0.81431 0.0
H1112 H 0.73246 0.43659 0.77324 0.0
H1113 H 0.80481 0.37523 0.73115 0.0
H1114 H 0.79684 0.35128 0.75178 0.0
H1115 H 0.81019 0.39503 0.75351 0.0
C1116 C 0.78302 0.36674 0.80564 0.0
C1117 C 0.79182 0.39637 0.81553 0.0
C1118 C 0.77453 0.37104 0.78774 0.0
C1119 C 0.7745 0.40504 0.77948 0.0
C1120 C 0.78391 0.43457 0.78903 0.0
H1121 H 0.69685 0.45014 0.6764 0.0
H1122 H 0.71632 0.45952 0.70625 0.0
C1123 C 0.79278 0.43019 0.80692 0.0
C1124 C 0.76287 0.40957 0.7614 0.0
H1125 H 0.76667 0.38168 0.71686 0.0
C1126 C 0.74002 0.42525 0.76077 0.0
C1127 C 0.77288 0.39458 0.74533 0.0
C1128 C 0.79762 0.37828 0.74533 0.0
C1129 C 0.72625 0.42441 0.7446 0.0
C1130 C 0.73589 0.408 0.72867 0.0
C1131 C 0.75925 0.39397 0.72914 0.0
C1132 C 0.7217 0.40289 0.71166 0.0
C1133 C 0.7011 0.43927 0.74495 0.0
C1134 C 0.71805 0.368 0.70494 0.0
C1135 C 0.70719 0.3626 0.6879 0.0
C1136 C 0.69967 0.39202 0.67725 0.0
C1137 C 0.7022 0.42693 0.68441 0.0
C1138 C 0.71333 0.43234 0.70145 0.0
H1139 H 0.69465 0.44387 0.75923 0.0
H1140 H 0.70075 0.46537 0.73758 0.0
H1141 H 0.68848 0.42077 0.7379 0.0
H1142 H 0.72428 0.34491 0.71267 0.0
H1143 H 0.70542 0.33539 0.68277 0.0
H1144 H 0.20249 0.34016 0.80777 0.0
H1145 H 0.21793 0.35282 0.77699 0.0
H1146 H 0.21137 0.46654 0.78699 0.0
H1147 H 0.19567 0.45419 0.81794 0.0
H1148 H 0.19604 0.40493 0.74672 0.0
H1149 H 0.28618 0.43758 0.77546 0.0
H1150 H 0.26569 0.40884 0.78786 0.0
H1151 H 0.25947 0.45589 0.78586 0.0
C1152 C 0.20392 0.36788 0.80334 0.0
C1153 C 0.19797 0.39619 0.8153 0.0
C1154 C 0.21274 0.37503 0.78577 0.0
C1155 C 0.21595 0.41055 0.77991 0.0
C1156 C 0.20904 0.43896 0.79141 0.0
H1157 H 0.29834 0.45481 0.67877 0.0
H1158 H 0.27902 0.46454 0.70873 0.0
C1159 C 0.19996 0.43182 0.80899 0.0
C1160 C 0.22789 0.41723 0.76215 0.0
H1161 H 0.28338 0.42948 0.74342 0.0
C1162 C 0.21502 0.41098 0.74592 0.0
C1163 C 0.2526 0.42536 0.76127 0.0
C1164 C 0.26698 0.43233 0.77848 0.0
C1165 C 0.22652 0.41108 0.72878 0.0
C1166 C 0.2516 0.41657 0.72799 0.0
C1167 C 0.2642 0.42497 0.74412 0.0
C1168 C 0.26517 0.41041 0.71081 0.0
C1169 C 0.2118 0.40444 0.71169 0.0
C1170 C 0.2647 0.37635 0.7026 0.0
C1171 C 0.27566 0.37069 0.68562 0.0
C1172 C 0.28754 0.39895 0.67658 0.0
C1173 C 0.28935 0.4325 0.6854 0.0
C1174 C 0.27822 0.43818 0.70244 0.0
H1175 H 0.19275 0.41208 0.71381 0.0
H1176 H 0.21896 0.4197 0.69976 0.0
H1177 H 0.21232 0.37539 0.70828 0.0
H1178 H 0.2553 0.35429 0.70912 0.0
H1179 H 0.2742 0.3444 0.67933 0.0
H1180 H 0.22299 0.65767 0.17453 0.0
H1181 H 0.2407 0.65303 0.20508 0.0
H1182 H 0.20295 0.55356 0.21433 0.0
H1183 H 0.18475 0.55814 0.1837 0.0
H1184 H 0.20227 0.59916 0.24452 0.0
H1185 H 0.29467 0.5833 0.21796 0.0
H1186 H 0.2801 0.62266 0.20912 0.0
H1187 H 0.26855 0.57888 0.20347 0.0
C1188 C 0.2183 0.63484 0.18305 0.0
C1189 C 0.20263 0.60805 0.17658 0.0
C1190 C 0.2286 0.63213 0.20047 0.0
C1191 C 0.22366 0.60245 0.21171 0.0
C1192 C 0.2072 0.57646 0.20571 0.0
H1193 H 0.30799 0.55909 0.31119 0.0
H1194 H 0.28975 0.55381 0.28061 0.0
C1195 C 0.19675 0.57921 0.18826 0.0
C1196 C 0.23571 0.59892 0.22975 0.0
H1197 H 0.29094 0.59813 0.24995 0.0
C1198 C 0.22164 0.59853 0.24573 0.0
C1199 C 0.26098 0.59735 0.23125 0.0
C1200 C 0.27696 0.59517 0.21453 0.0
C1201 C 0.23222 0.59838 0.26324 0.0
C1202 C 0.25751 0.59937 0.26472 0.0
C1203 C 0.27157 0.59796 0.24875 0.0
C1204 C 0.2696 0.60331 0.28272 0.0
C1205 C 0.21623 0.59731 0.27997 0.0
C1206 C 0.265 0.63354 0.29365 0.0
C1207 C 0.27532 0.63665 0.31105 0.0
C1208 C 0.29067 0.60971 0.3178 0.0
C1209 C 0.29624 0.58029 0.30641 0.0
C1210 C 0.28576 0.57713 0.28899 0.0
H1211 H 0.19838 0.58575 0.27666 0.0
H1212 H 0.22444 0.58125 0.29121 0.0
H1213 H 0.2134 0.62508 0.28508 0.0
H1214 H 0.25313 0.65456 0.28882 0.0
H1215 H 0.27089 0.65991 0.31933 0.0
H1216 H 0.40386 0.07627 0.15135 0.0
H1217 H 0.44398 0.08581 0.16373 0.0
H1218 H 0.4354 0.20035 0.15732 0.0
H1219 H 0.39556 0.19087 0.14431 0.0
H1220 H 0.47043 0.1748 0.13683 0.0
H1221 H 0.48227 0.1214 0.20715 0.0
H1222 H 0.46737 0.08962 0.19255 0.0
H1223 H 0.45312 0.13187 0.19771 0.0
C1224 C 0.4102 0.10355 0.15318 0.0
C1225 C 0.39686 0.13279 0.1465 0.0
C1226 C 0.43308 0.10901 0.16046 0.0
C1227 C 0.44269 0.14382 0.16151 0.0
C1228 C 0.42831 0.17327 0.15665 0.0
H1229 H 0.59411 0.19153 0.1457 0.0
H1230 H 0.5538 0.20032 0.15817 0.0
C1231 C 0.40564 0.1678 0.14909 0.0
C1232 C 0.46892 0.14864 0.16326 0.0
H1233 H 0.51804 0.12241 0.18784 0.0
C1234 C 0.48081 0.16426 0.14825 0.0
C1235 C 0.48242 0.13441 0.17802 0.0
C1236 C 0.47058 0.1187 0.19484 0.0
C1237 C 0.50578 0.16404 0.14698 0.0
C1238 C 0.51936 0.1486 0.16141 0.0
C1239 C 0.50757 0.13437 0.17686 0.0
C1240 C 0.5455 0.14359 0.15941 0.0
C1241 C 0.51724 0.17812 0.12954 0.0
C1242 C 0.55474 0.10874 0.15743 0.0
C1243 C 0.57792 0.10364 0.15066 0.0
C1244 C 0.59193 0.13336 0.14556 0.0
C1245 C 0.58344 0.16818 0.14919 0.0
C1246 C 0.56048 0.17323 0.15634 0.0
H1247 H 0.50395 0.18216 0.11834 0.0
H1248 H 0.5258 0.20443 0.1324 0.0
H1249 H 0.53125 0.15937 0.1245 0.0
H1250 H 0.54345 0.08552 0.15979 0.0
H1251 H 0.58411 0.07651 0.14809 0.0
H1252 H 0.09551 0.81326 0.63937 0.0
H1253 H 0.05385 0.80759 0.64932 0.0
H1254 H 0.04803 0.92294 0.65268 0.0
H1255 H 0.08997 0.92886 0.64321 0.0
H1256 H 0.01939 0.88299 0.67973 0.0
H1257 H 0.00782 0.83741 0.60729 0.0
H1258 H 0.02869 0.8116 0.62066 0.0
H1259 H 0.03514 0.85779 0.61541 0.0
C1260 C 0.08553 0.83739 0.64266 0.0
C1261 C 0.09575 0.87154 0.64013 0.0
C1262 C 0.06181 0.83409 0.64841 0.0
C1263 C 0.04785 0.86487 0.65134 0.0
C1264 C 0.05858 0.89889 0.65044 0.0
H1265 H 0.9005 0.9232 0.64627 0.0
H1266 H 0.94235 0.91901 0.65589 0.0
C1267 C 0.08248 0.90223 0.64496 0.0
C1268 C 0.02152 0.86184 0.65218 0.0
H1269 H 0.97346 0.83951 0.62566 0.0
C1270 C 0.00926 0.87323 0.66801 0.0
C1271 C 0.00847 0.84944 0.63676 0.0
C1272 C 0.02062 0.83864 0.619 0.0
C1273 C 0.98409 0.87231 0.66881 0.0
C1274 C 0.97112 0.86012 0.6533 0.0
C1275 C 0.98349 0.84839 0.63762 0.0
C1276 C 0.9447 0.86142 0.65212 0.0
C1277 C 0.97162 0.8843 0.68616 0.0
C1278 C 0.93204 0.83036 0.64713 0.0
C1279 C 0.90832 0.83277 0.64127 0.0
C1280 C 0.89681 0.86631 0.64037 0.0
C1281 C 0.9089 0.89699 0.64679 0.0
C1282 C 0.93277 0.8946 0.65248 0.0
H1283 H 0.98366 0.8824 0.6983 0.0
H1284 H 0.96612 0.91279 0.68463 0.0
H1285 H 0.95531 0.86801 0.68879 0.0
H1286 H 0.94098 0.80453 0.64671 0.0
H1287 H 0.89936 0.80857 0.63666 0.0
H1288 H 0.58791 0.92915 0.85005 0.0
H1289 H 0.54615 0.92434 0.83994 0.0
H1290 H 0.55152 0.80876 0.84106 0.0
H1291 H 0.59293 0.81335 0.85179 0.0
H1292 H 0.51766 0.88837 0.81226 0.0
H1293 H 0.50498 0.83392 0.88295 0.0
H1294 H 0.53263 0.85442 0.87563 0.0
H1295 H 0.52563 0.80911 0.86893 0.0
C1296 C 0.58035 0.90275 0.84768 0.0
C1297 C 0.59336 0.87161 0.85212 0.0
C1298 C 0.55656 0.90004 0.84184 0.0
C1299 C 0.54572 0.8662 0.84014 0.0
C1300 C 0.55953 0.8351 0.84262 0.0
H1301 H 0.39673 0.81215 0.85313 0.0
H1302 H 0.43791 0.80789 0.84209 0.0
C1303 C 0.5831 0.83776 0.8488 0.0
C1304 C 0.51938 0.86351 0.83901 0.0
H1305 H 0.47089 0.83878 0.86448 0.0
C1306 C 0.50735 0.87724 0.82356 0.0
C1307 C 0.50607 0.84937 0.85391 0.0
C1308 C 0.5179 0.83616 0.87137 0.0
C1309 C 0.48218 0.87707 0.82264 0.0
C1310 C 0.46897 0.86313 0.83763 0.0
C1311 C 0.4811 0.84896 0.85289 0.0
C1312 C 0.4426 0.86526 0.83888 0.0
C1313 C 0.46994 0.89182 0.80576 0.0
C1314 C 0.43129 0.89887 0.84 0.0
C1315 C 0.40767 0.90139 0.84625 0.0
C1316 C 0.39524 0.87035 0.85177 0.0
C1317 C 0.406 0.83658 0.84926 0.0
C1318 C 0.42946 0.83407 0.84281 0.0
H1319 H 0.48202 0.89129 0.7936 0.0
H1320 H 0.45344 0.87639 0.80251 0.0
H1321 H 0.46478 0.92017 0.80832 0.0
H1322 H 0.44125 0.92333 0.83741 0.0
H1323 H 0.39982 0.92778 0.84803 0.0
H1324 H 0.90591 0.0743 0.34645 0.0
H1325 H 0.9469 0.08327 0.33539 0.0
H1326 H 0.93665 0.19808 0.33706 0.0
H1327 H 0.89598 0.18934 0.34877 0.0
H1328 H 0.97299 0.12198 0.30742 0.0
H1329 H 0.98534 0.17751 0.37801 0.0
H1330 H 0.95834 0.15464 0.37115 0.0
H1331 H 0.96358 0.20025 0.36405 0.0
C1332 C 0.91219 0.10141 0.344 0.0
C1333 C 0.89807 0.13116 0.3489 0.0
C1334 C 0.93555 0.1065 0.3376 0.0
C1335 C 0.94488 0.14133 0.33581 0.0
C1336 C 0.92986 0.171 0.3387 0.0
H1337 H 0.09425 0.19354 0.35141 0.0
H1338 H 0.05362 0.20124 0.3396 0.0
C1339 C 0.9067 0.16597 0.34543 0.0
C1340 C 0.97104 0.1464 0.33427 0.0
H1341 H 0.0193 0.17227 0.35969 0.0
C1342 C 0.98318 0.13342 0.3187 0.0
C1343 C 0.98422 0.16115 0.34909 0.0
C1344 C 0.97231 0.17393 0.36659 0.0
C1345 C 0.00834 0.13431 0.31773 0.0
C1346 C 0.02147 0.14803 0.33282 0.0
C1347 C 0.0092 0.16213 0.34803 0.0
C1348 C 0.0478 0.14463 0.33446 0.0
C1349 C 0.02058 0.12021 0.3007 0.0
C1350 C 0.05839 0.11041 0.33473 0.0
C1351 C 0.0817 0.10597 0.34134 0.0
C1352 C 0.09456 0.13561 0.34814 0.0
C1353 C 0.08461 0.17014 0.34652 0.0
C1354 C 0.06147 0.17462 0.33966 0.0
H1355 H 0.00888 0.12301 0.28841 0.0
H1356 H 0.03773 0.13444 0.29808 0.0
H1357 H 0.02447 0.0912 0.30256 0.0
H1358 H 0.04804 0.08678 0.33121 0.0
H1359 H 0.08892 0.07903 0.34242 0.0
H1360 H 0.89596 0.69327 0.14486 0.0
H1361 H 0.93654 0.70193 0.15681 0.0
H1362 H 0.94612 0.58707 0.15961 0.0
H1363 H 0.90523 0.57821 0.14841 0.0
H1364 H 0.97213 0.62491 0.18708 0.0
H1365 H 0.98569 0.68101 0.11672 0.0
H1366 H 0.96416 0.70426 0.13066 0.0
H1367 H 0.95833 0.65892 0.12338 0.0
C1368 C 0.90653 0.6699 0.14849 0.0
C1369 C 0.89773 0.63507 0.14532 0.0
C1370 C 0.92964 0.67489 0.15534 0.0
C1371 C 0.94446 0.64513 0.1586 0.0
C1372 C 0.93495 0.61037 0.1571 0.0
H1373 H 0.08654 0.57668 0.15113 0.0
H1374 H 0.04609 0.58648 0.1629 0.0
C1375 C 0.91164 0.60535 0.1506 0.0
C1376 C 0.97065 0.6498 0.16032 0.0
H1377 H 0.01942 0.67409 0.13507 0.0
C1378 C 0.98254 0.63616 0.17587 0.0
C1379 C 0.98413 0.6643 0.14559 0.0
C1380 C 0.97253 0.6777 0.12808 0.0
C1381 C 0.0077 0.63592 0.17685 0.0
C1382 C 0.02109 0.64925 0.16182 0.0
C1383 C 0.00911 0.66423 0.14668 0.0
C1384 C 0.0473 0.64439 0.16007 0.0
C1385 C 0.01966 0.62094 0.1938 0.0
C1386 C 0.06165 0.67371 0.15498 0.0
C1387 C 0.0845 0.66808 0.1478 0.0
C1388 C 0.09348 0.63304 0.14577 0.0
C1389 C 0.08004 0.60397 0.15253 0.0
C1390 C 0.05699 0.60959 0.15946 0.0
H1391 H 0.00804 0.62406 0.20612 0.0
H1392 H 0.02293 0.59179 0.19179 0.0
H1393 H 0.03711 0.63429 0.19647 0.0
H1394 H 0.0545 0.70077 0.15531 0.0
H1395 H 0.09465 0.69104 0.14296 0.0
H1396 H 0.59207 0.31005 0.64144 0.0
H1397 H 0.55069 0.3063 0.65233 0.0
H1398 H 0.54704 0.42194 0.65493 0.0
H1399 H 0.58876 0.42588 0.64468 0.0
H1400 H 0.51828 0.38575 0.68229 0.0
H1401 H 0.50415 0.335 0.61106 0.0
H1402 H 0.52454 0.30882 0.62465 0.0
H1403 H 0.53217 0.35418 0.61846 0.0
C1404 C 0.58262 0.33463 0.64478 0.0
C1405 C 0.59335 0.36828 0.64184 0.0
C1406 C 0.55907 0.33245 0.65105 0.0
C1407 C 0.54575 0.36387 0.654 0.0
C1408 C 0.55707 0.39741 0.65267 0.0
H1409 H 0.40059 0.42996 0.64711 0.0
H1410 H 0.44197 0.42415 0.6578 0.0
C1411 C 0.58083 0.39962 0.64673 0.0
C1412 C 0.51939 0.36201 0.65526 0.0
H1413 H 0.47033 0.34006 0.62978 0.0
C1414 C 0.50771 0.37547 0.67093 0.0
C1415 C 0.50575 0.34901 0.64026 0.0
C1416 C 0.51721 0.33623 0.62258 0.0
C1417 C 0.48255 0.3761 0.67198 0.0
C1418 C 0.46901 0.36324 0.65692 0.0
C1419 C 0.48079 0.34939 0.64143 0.0
C1420 C 0.44266 0.3661 0.65587 0.0
C1421 C 0.47067 0.39053 0.68908 0.0
C1422 C 0.42917 0.33537 0.6517 0.0
C1423 C 0.4058 0.33867 0.6452 0.0
C1424 C 0.39546 0.37279 0.64291 0.0
C1425 C 0.40816 0.40334 0.64873 0.0
C1426 C 0.43173 0.40003 0.65502 0.0
H1427 H 0.48289 0.38939 0.70114 0.0
H1428 H 0.4657 0.41905 0.68679 0.0
H1429 H 0.45408 0.37532 0.69232 0.0
H1430 H 0.43733 0.30896 0.65222 0.0
H1431 H 0.39627 0.31462 0.64108 0.0
H1432 H 0.09199 0.31035 0.86103 0.0
H1433 H 0.05027 0.30751 0.85118 0.0
H1434 H 0.05093 0.42145 0.84032 0.0
H1435 H 0.09298 0.42442 0.84979 0.0
H1436 H 0.01829 0.34612 0.87178 0.0
H1437 H 0.0096 0.38242 0.79795 0.0
H1438 H 0.03745 0.36708 0.80794 0.0
H1439 H 0.02772 0.41262 0.81131 0.0
C1440 C 0.08343 0.33469 0.85616 0.0
C1441 C 0.09558 0.36774 0.85648 0.0
C1442 C 0.05967 0.33295 0.8504 0.0
C1443 C 0.04759 0.36421 0.84495 0.0
C1444 C 0.06008 0.39689 0.84412 0.0
H1445 H 0.90085 0.42867 0.85055 0.0
H1446 H 0.94312 0.42419 0.84186 0.0
C1447 C 0.08403 0.3986 0.8497 0.0
C1448 C 0.0212 0.36365 0.84362 0.0
H1449 H 0.97351 0.38273 0.81582 0.0
C1450 C 0.00851 0.35362 0.85945 0.0
C1451 C 0.0086 0.37406 0.8276 0.0
C1452 C 0.0215 0.38439 0.81016 0.0
C1453 C 0.98352 0.35423 0.85988 0.0
C1454 C 0.97082 0.36447 0.84388 0.0
C1455 C 0.98341 0.37454 0.82796 0.0
C1456 C 0.94445 0.36628 0.84412 0.0
C1457 C 0.97094 0.345 0.87768 0.0
C1458 C 0.93108 0.33502 0.84732 0.0
C1459 C 0.90714 0.3375 0.85261 0.0
C1460 C 0.89615 0.37128 0.85445 0.0
C1461 C 0.90892 0.4023 0.84936 0.0
C1462 C 0.93301 0.3998 0.84431 0.0
H1463 H 0.98336 0.34541 0.88963 0.0
H1464 H 0.95605 0.36405 0.88044 0.0
H1465 H 0.96325 0.31758 0.87664 0.0
H1466 H 0.93964 0.3089 0.84701 0.0
H1467 H 0.89759 0.3131 0.85612 0.0
H1468 H 0.39836 0.69252 0.34982 0.0
H1469 H 0.43821 0.70167 0.33677 0.0
H1470 H 0.44661 0.587 0.3308 0.0
H1471 H 0.40645 0.57778 0.34322 0.0
H1472 H 0.47351 0.67665 0.35696 0.0
H1473 H 0.48421 0.62168 0.2869 0.0
H1474 H 0.45521 0.63233 0.29654 0.0
H1475 H 0.46952 0.59014 0.30175 0.0
C1476 C 0.40844 0.66934 0.34518 0.0
C1477 C 0.39957 0.6344 0.34785 0.0
C1478 C 0.4311 0.67462 0.33759 0.0
C1479 C 0.44539 0.64506 0.33276 0.0
C1480 C 0.43575 0.61028 0.33402 0.0
H1481 H 0.5854 0.5752 0.34633 0.0
H1482 H 0.54507 0.58536 0.33424 0.0
C1483 C 0.41288 0.605 0.34134 0.0
C1484 C 0.47157 0.6498 0.33074 0.0
H1485 H 0.52025 0.6224 0.306 0.0
C1486 C 0.4837 0.66573 0.34554 0.0
C1487 C 0.48482 0.63514 0.31596 0.0
C1488 C 0.4727 0.61919 0.29931 0.0
C1489 C 0.50868 0.66524 0.34665 0.0
C1490 C 0.522 0.64918 0.33226 0.0
C1491 C 0.50997 0.63481 0.31695 0.0
C1492 C 0.54804 0.64335 0.33426 0.0
C1493 C 0.5204 0.67957 0.36393 0.0
C1494 C 0.56346 0.67253 0.33722 0.0
C1495 C 0.58621 0.66684 0.34462 0.0
C1496 C 0.59406 0.63182 0.34858 0.0
C1497 C 0.57969 0.60247 0.34351 0.0
C1498 C 0.55671 0.60823 0.33651 0.0
H1499 H 0.50723 0.68439 0.37513 0.0
H1500 H 0.53418 0.66057 0.36911 0.0
H1501 H 0.5293 0.70552 0.36082 0.0
H1502 H 0.55723 0.6998 0.33516 0.0
H1503 H 0.5972 0.68988 0.34807 0.0
H1504 H 0.29237 0.98418 0.10029 0.0
H1505 H 0.26569 0.93214 0.10111 0.0
H1506 H 0.20523 0.00182 0.11058 0.0
H1507 H 0.23181 0.05432 0.10952 0.0
H1508 H 0.21632 0.94224 0.13829 0.0
H1509 H 0.20917 0.89751 0.06551 0.0
H1510 H 0.23865 0.91057 0.07301 0.0
H1511 H 0.21526 0.94361 0.07187 0.0
C1512 C 0.27332 0.98851 0.1021 0.0
C1513 C 0.26416 0.02326 0.10489 0.0
C1514 C 0.25812 0.9588 0.10253 0.0
C1515 C 0.23357 0.96331 0.10588 0.0
C1516 C 0.22414 -0.00201 0.10787 0.0
H1517 H 0.14711 0.76783 0.109 0.0
H1518 H 0.15583 0.83205 0.10764 0.0
C1519 C 0.23932 0.02787 0.10717 0.0
C1520 C 0.21856 0.93138 0.10922 0.0
H1521 H 0.19909 0.85451 0.08863 0.0
C1522 C 0.21206 0.92332 0.12742 0.0
C1523 C 0.21305 0.90699 0.09497 0.0
C1524 C 0.21919 0.91508 0.07519 0.0
C1525 C 0.20139 0.89032 0.13188 0.0
C1526 C 0.19723 0.86501 0.11777 0.0
C1527 C 0.20239 0.87402 0.09943 0.0
C1528 C 0.18977 0.82778 0.12179 0.0
C1529 C 0.19533 0.88226 0.15168 0.0
C1530 C 0.20571 0.80438 0.13068 0.0
C1531 C 0.20093 0.76757 0.13138 0.0
C1532 C 0.18009 0.7536 0.12317 0.0
C1533 C 0.16334 0.77759 0.11546 0.0
C1534 C 0.16827 0.81433 0.11462 0.0
H1535 H 0.19385 0.90722 0.15999 0.0
H1536 H 0.17823 0.86712 0.15267 0.0
H1537 H 0.20972 0.86541 0.15773 0.0
H1538 H 0.22255 0.81427 0.13611 0.0
H1539 H 0.21417 0.74992 0.13747 0.0
H1540 H 0.26661 0.9396 0.62066 0.0
H1541 H 0.29299 0.99205 0.62331 0.0
H1542 H 0.23726 0.05944 0.60099 0.0
H1543 H 0.21089 0.00746 0.59824 0.0
H1544 H 0.286 0.07494 0.58846 0.0
H1545 H 0.27568 0.06681 0.66471 0.0
H1546 H 0.28625 0.02765 0.65265 0.0
H1547 H 0.25607 0.04281 0.64925 0.0
C1548 C 0.26022 0.96542 0.61584 0.0
C1549 C 0.23656 0.96951 0.60944 0.0
C1550 C 0.27524 0.99534 0.6175 0.0
C1551 C 0.26685 0.02956 0.61264 0.0
C1552 C 0.24397 0.0332 0.60491 0.0
H1553 H 0.27354 0.24625 0.63782 0.0
H1554 H 0.26804 0.18124 0.63735 0.0
C1555 C 0.22892 0.00349 0.60337 0.0
C1556 C 0.28065 0.0623 0.61704 0.0
H1557 H 0.29336 0.11893 0.65271 0.0
C1558 C 0.28819 0.0843 0.6025 0.0
C1559 C 0.28314 0.07437 0.63541 0.0
C1560 C 0.2748 0.05191 0.65148 0.0
C1561 C 0.29715 0.1189 0.60579 0.0
C1562 C 0.29876 0.13154 0.62413 0.0
C1563 C 0.29225 0.10892 0.63872 0.0
C1564 C 0.30405 0.16965 0.62807 0.0
C1565 C 0.30337 0.14254 0.58959 0.0
C1566 C 0.32652 0.18436 0.62397 0.0
C1567 C 0.32977 0.22158 0.62422 0.0
C1568 C 0.31052 0.24461 0.62853 0.0
C1569 C 0.28868 0.22942 0.63426 0.0
C1570 C 0.28549 0.19223 0.63402 0.0
H1571 H 0.29812 0.13025 0.57625 0.0
H1572 H 0.29437 0.16904 0.59086 0.0
H1573 H 0.323 0.1473 0.58935 0.0
H1574 H 0.34114 0.16722 0.61961 0.0
H1575 H 0.34693 0.23227 0.61992 0.0
H1576 H 0.21532 0.23546 0.85047 0.0
H1577 H 0.21988 0.17033 0.85128 0.0
H1578 H 0.14885 0.15969 0.87397 0.0
H1579 H 0.14401 0.22483 0.87321 0.0
H1580 H 0.18583 0.13181 0.89625 0.0
H1581 H 0.19282 0.08095 0.82482 0.0
H1582 H 0.21067 0.12033 0.82882 0.0
H1583 H 0.17857 0.12318 0.83044 0.0
C1584 C 0.20034 0.2193 0.85508 0.0
C1585 C 0.17945 0.23549 0.86203 0.0
C1586 C 0.20294 0.182 0.85544 0.0
C1587 C 0.18469 0.16026 0.86269 0.0
C1588 C 0.1631 0.17606 0.86829 0.0
H1589 H 0.22475 0.93327 0.8735 0.0
H1590 H 0.19751 0.9846 0.87083 0.0
C1591 C 0.1604 0.21335 0.86781 0.0
C1592 C 0.18981 0.12229 0.86713 0.0
H1593 H 0.21165 0.04498 0.84843 0.0
C1594 C 0.19092 0.11247 0.88578 0.0
C1595 C 0.19624 0.09711 0.85347 0.0
C1596 C 0.19431 0.10577 0.83325 0.0
C1597 C 0.2 0.07897 0.89116 0.0
C1598 C 0.20822 0.05491 0.87754 0.0
C1599 C 0.20544 0.06364 0.85886 0.0
C1600 C 0.22255 0.02287 0.88228 0.0
C1601 C 0.20166 0.07015 0.91138 0.0
C1602 C 0.24535 0.02738 0.89006 0.0
C1603 C 0.26099 -0.00171 0.89148 0.0
C1604 C 0.25404 0.96414 0.8852 0.0
C1605 C 0.23056 0.95919 0.8786 0.0
C1606 C 0.21501 0.98848 0.87697 0.0
H1607 H 0.18852 0.08591 0.91956 0.0
H1608 H 0.19853 0.04107 0.91385 0.0
H1609 H 0.21988 0.07692 0.91642 0.0
H1610 H 0.2516 0.05384 0.89402 0.0
H1611 H 0.27894 0.00293 0.89664 0.0
H1612 H 0.34813 0.77104 0.38173 0.0
H1613 H 0.34013 0.8356 0.38216 0.0
H1614 H 0.2708 0.81719 0.35778 0.0
H1615 H 0.27851 0.75264 0.35723 0.0
H1616 H 0.29809 0.88177 0.34489 0.0
H1617 H 0.28806 0.86874 0.42101 0.0
H1618 H 0.31522 0.85238 0.4106 0.0
H1619 H 0.28735 0.83018 0.40595 0.0
C1620 C 0.3314 0.7807 0.37603 0.0
C1621 C 0.31377 0.75653 0.36973 0.0
C1622 C 0.32687 0.81761 0.37636 0.0
C1623 C 0.30476 0.83091 0.37029 0.0
C1624 C 0.28795 0.80728 0.3626 0.0
H1625 H 0.20364 0.98972 0.38809 0.0
H1626 H 0.23041 0.93789 0.38734 0.0
C1627 C 0.29238 0.77038 0.36233 0.0
C1628 C 0.29784 0.86859 0.37372 0.0
H1629 H 0.27689 0.9236 0.4077 0.0
C1630 C 0.29395 0.89133 0.35863 0.0
C1631 C 0.29232 0.88063 0.39169 0.0
C1632 C 0.29578 0.85681 0.40831 0.0
C1633 C 0.28372 0.92546 0.361 0.0
C1634 C 0.27727 0.93685 0.37889 0.0
C1635 C 0.2821 0.91474 0.39405 0.0
C1636 C 0.26229 0.96903 0.38173 0.0
C1637 C 0.2785 0.94828 0.34431 0.0
C1638 C 0.27163 0.00372 0.37946 0.0
C1639 C 0.25637 0.03355 0.38002 0.0
C1640 C 0.23158 0.02888 0.38266 0.0
C1641 C 0.22261 0.99416 0.38588 0.0
C1642 C 0.23786 0.96454 0.3855 0.0
H1643 H 0.28326 0.93448 0.33125 0.0
H1644 H 0.25918 0.95541 0.34392 0.0
H1645 H 0.28884 0.97369 0.34517 0.0
H1646 H 0.29052 0.00758 0.37665 0.0
H1647 H 0.26378 0.05996 0.37743 0.0
H1648 H 0.83284 0.22693 0.88762 0.0
H1649 H 0.82341 0.1635 0.88541 0.0
H1650 H 0.77847 0.18449 0.83823 0.0
H1651 H 0.78663 0.24884 0.84125 0.0
H1652 H 0.75434 0.15024 0.86101 0.0
H1653 H 0.83984 0.07743 0.85737 0.0
H1654 H 0.84092 0.10703 0.87675 0.0
H1655 H 0.83822 0.12533 0.85381 0.0
C1656 C 0.82152 0.21799 0.87641 0.0
C1657 C 0.81032 0.2429 0.86467 0.0
C1658 C 0.81629 0.18146 0.87505 0.0
C1659 C 0.80041 0.16886 0.86153 0.0
C1660 C 0.79075 0.19348 0.84883 0.0
H1661 H 0.75618 0.94306 0.86017 0.0
H1662 H 0.77864 -0.00142 0.85495 0.0
C1663 C 0.79544 0.23024 0.85051 0.0
C1664 C 0.7909 0.13161 0.86268 0.0
H1665 H 0.80675 0.0448 0.87198 0.0
C1666 C 0.76592 0.12716 0.86301 0.0
C1667 C 0.8058 0.10112 0.86507 0.0
C1668 C 0.83266 0.10301 0.863 0.0
C1669 C 0.75546 0.09366 0.86644 0.0
C1670 C 0.77035 0.06398 0.87065 0.0
C1671 C 0.79533 0.06783 0.86939 0.0
C1672 C 0.76008 0.02877 0.87605 0.0
C1673 C 0.72851 0.09056 0.86533 0.0
C1674 C 0.74329 0.02665 0.89043 0.0
C1675 C 0.7301 0.99525 0.89316 0.0
C1676 C 0.73418 0.96507 0.88204 0.0
C1677 C 0.75282 0.96593 0.86903 0.0
C1678 C 0.76557 0.99769 0.86596 0.0
H1679 H 0.72078 0.11156 0.85621 0.0
H1680 H 0.72293 0.06385 0.86005 0.0
H1681 H 0.72074 0.0944 0.87925 0.0
H1682 H 0.73942 0.04993 0.89886 0.0
H1683 H 0.71593 0.99511 0.90336 0.0
H1684 H 0.72977 0.05636 0.37634 0.0
H1685 H 0.70318 0.00388 0.37611 0.0
H1686 H 0.76176 0.93671 0.39378 0.0
H1687 H 0.78845 0.9887 0.39391 0.0
H1688 H 0.71467 0.94124 0.35296 0.0
H1689 H 0.70339 0.90671 0.42674 0.0
H1690 H 0.71138 0.95131 0.419 0.0
H1691 H 0.73373 0.91662 0.42015 0.0
C1692 C 0.73682 0.03057 0.38064 0.0
C1693 C 0.76122 0.02658 0.38509 0.0
C1694 C 0.72164 0.00067 0.38041 0.0
C1695 C 0.73053 0.9666 0.38501 0.0
C1696 C 0.75453 0.96291 0.3904 0.0
H1697 H 0.71369 0.75012 0.35835 0.0
H1698 H 0.7214 0.81467 0.35858 0.0
C1699 C 0.76976 0.9926 0.39039 0.0
C1700 C 0.71576 0.93409 0.38238 0.0
H1701 H 0.69586 0.8596 0.40497 0.0
C1702 C 0.71006 0.92367 0.36434 0.0
C1703 C 0.70968 0.91147 0.39726 0.0
C1704 C 0.71465 0.92216 0.41692 0.0
C1705 C 0.69978 0.89001 0.36071 0.0
C1706 C 0.69524 0.86635 0.3755 0.0
C1707 C 0.6995 0.87777 0.39363 0.0
C1708 C 0.68839 0.82845 0.37251 0.0
C1709 C 0.69452 0.87955 0.34107 0.0
C1710 C 0.66705 0.81494 0.37996 0.0
C1711 C 0.66252 0.77803 0.3798 0.0
C1712 C 0.6795 0.75394 0.37248 0.0
C1713 C 0.70027 0.76785 0.36414 0.0
C1714 C 0.70466 0.80478 0.36417 0.0
H1715 H 0.69256 0.90355 0.3321 0.0
H1716 H 0.70958 0.86317 0.33569 0.0
H1717 H 0.67791 0.8632 0.34019 0.0
H1718 H 0.65435 0.83284 0.38653 0.0
H1719 H 0.64635 0.76831 0.38637 0.0
H1720 H 0.75968 0.0591 0.11657 0.0
H1721 H 0.78641 0.00681 0.1175 0.0
H1722 H 0.72788 0.93832 0.10109 0.0
H1723 H 0.70105 0.99015 0.1003 0.0
H1724 H 0.7744 0.94519 0.14182 0.0
H1725 H 0.78679 0.90703 0.06857 0.0
H1726 H 0.77898 0.9521 0.07568 0.0
H1727 H 0.75645 0.91765 0.07487 0.0
C1728 C 0.75268 0.03305 0.11267 0.0
C1729 C 0.72826 0.02864 0.10842 0.0
C1730 C 0.76793 0.00325 0.1133 0.0
C1731 C 0.75907 0.96889 0.1093 0.0
C1732 C 0.73507 0.96475 0.10403 0.0
H1733 H 0.77607 0.75356 0.138 0.0
H1734 H 0.7682 0.81808 0.13742 0.0
C1735 C 0.71976 0.99434 0.10365 0.0
C1736 C 0.77388 0.93665 0.11248 0.0
H1737 H 0.79444 0.86133 0.09104 0.0
C1738 C 0.77929 0.92713 0.13071 0.0
C1739 C 0.78028 0.9134 0.09795 0.0
C1740 C 0.77554 0.9231 0.07813 0.0
C1741 C 0.78961 0.89373 0.13487 0.0
C1742 C 0.79452 0.86947 0.12041 0.0
C1743 C 0.79054 0.87999 0.1021 0.0
C1744 C 0.80153 0.83182 0.12392 0.0
C1745 C 0.79452 0.88417 0.15468 0.0
C1746 C 0.82311 0.81837 0.11691 0.0
C1747 C 0.82772 0.78151 0.11727 0.0
C1748 C 0.81058 0.7574 0.12435 0.0
C1749 C 0.78961 0.77129 0.13239 0.0
C1750 C 0.78513 0.8082 0.13215 0.0
H1751 H 0.79602 0.90855 0.16343 0.0
H1752 H 0.77951 0.86763 0.16003 0.0
H1753 H 0.81127 0.86826 0.15594 0.0
H1754 H 0.83592 0.83624 0.11043 0.0
H1755 H 0.84408 0.77182 0.11096 0.0
H1756 H 0.71425 0.23767 0.639 0.0
H1757 H 0.7198 0.1727 0.63847 0.0
H1758 H 0.64769 0.15888 0.61841 0.0
H1759 H 0.6419 0.224 0.61874 0.0
H1760 H 0.69411 0.11082 0.65308 0.0
H1761 H 0.6924 0.12115 0.57651 0.0
H1762 H 0.69532 0.1602 0.59105 0.0
H1763 H 0.66692 0.13798 0.58897 0.0
C1764 C 0.69934 0.22089 0.63487 0.0
C1765 C 0.67779 0.23617 0.62857 0.0
C1766 C 0.70254 0.18372 0.63461 0.0
C1767 C 0.68431 0.16118 0.62805 0.0
C1768 C 0.66208 0.17598 0.62326 0.0
H1769 H 0.72469 0.93196 0.62215 0.0
H1770 H 0.69753 0.98359 0.62421 0.0
C1771 C 0.65881 0.21322 0.62355 0.0
C1772 C 0.68982 0.12304 0.62434 0.0
H1773 H 0.70471 0.06638 0.58919 0.0
C1774 C 0.69591 0.10069 0.63915 0.0
C1775 C 0.69232 0.11022 0.6061 0.0
C1776 C 0.68655 0.13354 0.58967 0.0
C1777 C 0.70556 0.06635 0.63618 0.0
C1778 C 0.70902 0.05418 0.61792 0.0
C1779 C 0.70181 0.07582 0.60314 0.0
C1780 C 0.72348 0.02185 0.61397 0.0
C1781 C 0.71347 0.0443 0.65253 0.0
C1782 C 0.74656 0.02615 0.6067 0.0
C1783 C 0.76206 0.99689 0.60549 0.0
C1784 C 0.75469 0.9627 0.61145 0.0
C1785 C 0.73091 0.95795 0.61745 0.0
C1786 C 0.71542 0.98741 0.61876 0.0
H1787 H 0.71183 0.0593 0.66569 0.0
H1788 H 0.70228 0.01972 0.65348 0.0
H1789 H 0.73239 0.0357 0.65081 0.0
H1790 H 0.75303 0.05256 0.60285 0.0
H1791 H 0.78018 0.0014 0.60067 0.0
H1792 H 0.64397 0.27119 0.11202 0.0
H1793 H 0.65223 0.33568 0.11151 0.0
H1794 H 0.72132 0.3168 0.1362 0.0
H1795 H 0.71333 0.25234 0.13686 0.0
H1796 H 0.69484 0.38157 0.14883 0.0
H1797 H 0.70409 0.36826 0.07269 0.0
H1798 H 0.67678 0.35261 0.08314 0.0
H1799 H 0.70441 0.32972 0.08777 0.0
C1800 C 0.6607 0.28074 0.11778 0.0
C1801 C 0.67818 0.25645 0.1242 0.0
C1802 C 0.66538 0.31762 0.1174 0.0
C1803 C 0.68752 0.33076 0.12351 0.0
C1804 C 0.70416 0.30703 0.13133 0.0
H1805 H 0.78865 0.48963 0.10395 0.0
H1806 H 0.76191 0.43779 0.10499 0.0
C1807 C 0.69956 0.27017 0.13167 0.0
C1808 C 0.69464 0.36836 0.12002 0.0
H1809 H 0.71532 0.42322 0.08585 0.0
C1810 C 0.69885 0.39108 0.13506 0.0
C1811 C 0.70001 0.38034 0.10199 0.0
C1812 C 0.69626 0.35655 0.08541 0.0
C1813 C 0.7092 0.42511 0.1326 0.0
C1814 C 0.71541 0.43649 0.11465 0.0
C1815 C 0.7103 0.41438 0.09955 0.0
C1816 C 0.73029 0.46875 0.11165 0.0
C1817 C 0.71476 0.44785 0.14926 0.0
C1818 C 0.72107 0.50339 0.11439 0.0
C1819 C 0.73631 0.53323 0.11367 0.0
C1820 C 0.76098 0.52865 0.11038 0.0
C1821 C 0.76978 0.49402 0.10666 0.0
C1822 C 0.75454 0.46438 0.10721 0.0
H1823 H 0.71055 0.43379 0.16236 0.0
H1824 H 0.734 0.45543 0.14931 0.0
H1825 H 0.70411 0.47301 0.14868 0.0
H1826 H 0.70231 0.50718 0.11769 0.0
H1827 H 0.72902 0.55956 0.11665 0.0
H1828 H 0.75471 0.43983 0.6364 0.0
H1829 H 0.77693 0.49536 0.64215 0.0
H1830 H 0.74036 0.54614 0.59673 0.0
H1831 H 0.7171 0.4913 0.59163 0.0
H1832 H 0.80618 0.54078 0.62571 0.0
H1833 H 0.71988 0.60907 0.63835 0.0
H1834 H 0.72192 0.56124 0.63487 0.0
H1835 H 0.72096 0.59137 0.61544 0.0
C1836 C 0.75186 0.46259 0.62735 0.0
C1837 C 0.73403 0.46153 0.61369 0.0
C1838 C 0.76448 0.49435 0.63071 0.0
C1839 C 0.75967 0.52527 0.62029 0.0
C1840 C 0.74369 0.52299 0.60539 0.0
H1841 H 0.83404 0.72216 0.60957 0.0
H1842 H 0.82426 0.65889 0.61201 0.0
C1843 C 0.73062 0.49158 0.60233 0.0
C1844 C 0.76986 0.56047 0.62579 0.0
H1845 H 0.75392 0.64718 0.63438 0.0
C1846 C 0.79477 0.56402 0.6278 0.0
C1847 C 0.75496 0.59045 0.62935 0.0
C1848 C 0.72795 0.58775 0.62962 0.0
C1849 C 0.80523 0.59728 0.63222 0.0
C1850 C 0.79041 0.62802 0.63396 0.0
C1851 C 0.76544 0.62389 0.63289 0.0
C1852 C 0.80009 0.66517 0.63515 0.0
C1853 C 0.83198 0.59886 0.63508 0.0
C1854 C 0.78993 0.69024 0.64737 0.0
C1855 C 0.79486 0.72691 0.64553 0.0
C1856 C 0.81045 0.73903 0.6317 0.0
C1857 C 0.82215 0.71366 0.62052 0.0
C1858 C 0.81671 0.67722 0.62202 0.0
H1859 H 0.8387 0.57333 0.6411 0.0
H1860 H 0.84095 0.6024 0.62157 0.0
H1861 H 0.8372 0.62134 0.64428 0.0
H1862 H 0.77709 0.68168 0.65766 0.0
H1863 H 0.78565 0.74586 0.65437 0.0
H1864 H 0.64151 0.7284 0.87419 0.0
H1865 H 0.64699 0.66325 0.87426 0.0
H1866 H 0.71969 0.6767 0.85546 0.0
H1867 H 0.71447 0.74175 0.85521 0.0
H1868 H 0.69403 0.61512 0.84022 0.0
H1869 H 0.6905 0.62477 0.91679 0.0
H1870 H 0.66542 0.64204 0.90399 0.0
H1871 H 0.69399 0.66391 0.90238 0.0
C1872 C 0.6585 0.71755 0.8696 0.0
C1873 C 0.67773 0.74042 0.86504 0.0
C1874 C 0.66158 0.68029 0.86973 0.0
C1875 C 0.68387 0.66536 0.86523 0.0
C1876 C 0.70238 0.68783 0.85908 0.0
H1877 H 0.77863 0.50535 0.89357 0.0
H1878 H 0.75145 0.55641 0.89111 0.0
C1879 C 0.69936 0.72505 0.85898 0.0
C1880 C 0.68911 0.62712 0.86893 0.0
H1881 H 0.70286 0.57 0.90416 0.0
C1882 C 0.69544 0.60484 0.85415 0.0
C1883 C 0.69108 0.61411 0.88717 0.0
C1884 C 0.68505 0.63736 0.90357 0.0
C1885 C 0.70484 0.57037 0.85718 0.0
C1886 C 0.70781 0.55801 0.87546 0.0
C1887 C 0.70033 0.57958 0.89019 0.0
C1888 C 0.7222 0.52566 0.87956 0.0
C1889 C 0.71306 0.54837 0.84091 0.0
C1890 C 0.7143 0.49122 0.87461 0.0
C1891 C 0.72981 0.4618 0.87608 0.0
C1892 C 0.75345 0.46663 0.8824 0.0
C1893 C 0.76062 0.5008 0.8885 0.0
C1894 C 0.74511 0.53 0.88714 0.0
H1895 H 0.71167 0.56343 0.82775 0.0
H1896 H 0.73194 0.53976 0.84284 0.0
H1897 H 0.70188 0.52381 0.83981 0.0
H1898 H 0.69655 0.48738 0.86892 0.0
H1899 H 0.72377 0.43581 0.87125 0.0
H1900 H 0.70262 0.48689 0.39381 0.0
H1901 H 0.72939 0.43504 0.39227 0.0
H1902 H 0.78763 0.50393 0.37569 0.0
H1903 H 0.76098 0.55625 0.37742 0.0
H1904 H 0.77411 0.44226 0.35094 0.0
H1905 H 0.78985 0.40364 0.42379 0.0
H1906 H 0.75938 0.41504 0.41821 0.0
H1907 H 0.78222 0.44893 0.41692 0.0
C1908 C 0.72127 0.49115 0.39028 0.0
C1909 C 0.72971 0.52557 0.38569 0.0
C1910 C 0.73653 0.46155 0.38945 0.0
C1911 C 0.76042 0.46582 0.3839 0.0
C1912 C 0.76924 0.50028 0.3801 0.0
H1913 H 0.8453 0.26901 0.37997 0.0
H1914 H 0.83733 0.33347 0.38032 0.0
C1915 C 0.75404 0.53008 0.38119 0.0
C1916 C 0.7751 0.43366 0.38026 0.0
H1917 H 0.79679 0.35835 0.40105 0.0
C1918 C 0.77957 0.42418 0.36188 0.0
C1919 C 0.78222 0.41039 0.39458 0.0
C1920 C 0.77839 0.42003 0.41452 0.0
C1921 C 0.78971 0.39081 0.3574 0.0
C1922 C 0.79538 0.36656 0.37169 0.0
C1923 C 0.79231 0.37703 0.39011 0.0
C1924 C 0.80222 0.32892 0.36799 0.0
C1925 C 0.79358 0.38125 0.33746 0.0
C1926 C 0.78535 0.30522 0.36041 0.0
C1927 C 0.78972 0.26827 0.36028 0.0
C1928 C 0.81104 0.25445 0.3678 0.0
C1929 C 0.82864 0.27863 0.37411 0.0
C1930 C 0.82415 0.31553 0.37435 0.0
H1931 H 0.79451 0.40562 0.32865 0.0
H1932 H 0.81031 0.36547 0.33568 0.0
H1933 H 0.77836 0.36456 0.3326 0.0
H1934 H 0.76817 0.31506 0.35563 0.0
H1935 H 0.77582 0.25049 0.35526 0.0
H1936 H 0.28213 0.74753 0.84321 0.0
H1937 H 0.27322 0.68323 0.84124 0.0
H1938 H 0.32729 0.6615 0.8822 0.0
H1939 H 0.33719 0.7251 0.88347 0.0
H1940 H 0.32418 0.60667 0.8593 0.0
H1941 H 0.23295 0.64531 0.88234 0.0
H1942 H 0.24061 0.66362 0.86029 0.0
H1943 H 0.25696 0.67738 0.88049 0.0
C1944 C 0.29257 0.7289 0.85139 0.0
C1945 C 0.31003 0.74147 0.86374 0.0
C1946 C 0.28733 0.69221 0.85038 0.0
C1947 C 0.29894 0.66777 0.86212 0.0
C1948 C 0.3179 0.67989 0.87316 0.0
H1949 H 0.22527 0.48224 0.90448 0.0
H1950 H 0.2485 0.53765 0.90149 0.0
C1951 C 0.32353 0.71637 0.87386 0.0
C1952 C 0.28974 0.63069 0.86458 0.0
H1953 H 0.23963 0.58397 0.87668 0.0
C1954 C 0.30569 0.60162 0.8631 0.0
C1955 C 0.26577 0.62422 0.87006 0.0
C1956 C 0.24814 0.65427 0.87359 0.0
C1957 C 0.29831 0.56627 0.8669 0.0
C1958 C 0.2741 0.55976 0.8717 0.0
C1959 C 0.2582 0.58886 0.87304 0.0
C1960 C 0.26442 0.52325 0.87529 0.0
C1961 C 0.31671 0.5366 0.86629 0.0
C1962 C 0.26647 0.49598 0.86202 0.0
C1963 C 0.25381 0.46383 0.86406 0.0
C1964 C 0.23834 0.45893 0.87911 0.0
C1965 C 0.23715 0.48541 0.8928 0.0
C1966 C 0.25032 0.51709 0.89103 0.0
H1967 H 0.33505 0.54714 0.86878 0.0
H1968 H 0.31285 0.51546 0.87666 0.0
H1969 H 0.31656 0.52413 0.85242 0.0
H1970 H 0.27663 0.50032 0.84953 0.0
H1971 H 0.25465 0.44405 0.85314 0.0
H1972 H 0.23239 0.55903 0.37656 0.0
H1973 H 0.20559 0.50685 0.37556 0.0
H1974 H 0.26386 0.43822 0.39236 0.0
H1975 H 0.29077 0.48995 0.39323 0.0
H1976 H 0.21757 0.44508 0.35143 0.0
H1977 H 0.2047 0.40741 0.42469 0.0
H1978 H 0.21268 0.45239 0.41753 0.0
H1979 H 0.23511 0.41781 0.41849 0.0
C1980 C 0.23932 0.53297 0.38052 0.0
C1981 C 0.2637 0.5285 0.38491 0.0
C1982 C 0.22403 0.50324 0.37985 0.0
C1983 C 0.23279 0.46887 0.38396 0.0
C1984 C 0.25675 0.46466 0.38934 0.0
H1985 H 0.21607 0.25372 0.35537 0.0
H1986 H 0.22368 0.31828 0.35582 0.0
C1987 C 0.2721 0.4942 0.38976 0.0
C1988 C 0.21794 0.43669 0.38078 0.0
H1989 H 0.19721 0.36153 0.40228 0.0
C1990 C 0.21261 0.42709 0.36254 0.0
C1991 C 0.21143 0.41354 0.39532 0.0
C1992 C 0.21606 0.42335 0.41515 0.0
C1993 C 0.20228 0.39369 0.35841 0.0
C1994 C 0.19729 0.36951 0.37289 0.0
C1995 C 0.20118 0.38013 0.39119 0.0
C1996 C 0.19039 0.33181 0.36942 0.0
C1997 C 0.19746 0.38406 0.3386 0.0
C1998 C 0.1689 0.31821 0.37654 0.0
C1999 C 0.16445 0.2813 0.37627 0.0
C2000 C 0.18164 0.25731 0.36916 0.0
C2001 C 0.2025 0.27135 0.361 0.0
C2002 C 0.20683 0.3083 0.36116 0.0
H2003 H 0.19583 0.40843 0.32985 0.0
H2004 H 0.21258 0.36775 0.33326 0.0
H2005 H 0.18081 0.36792 0.33731 0.0
H2006 H 0.15607 0.336 0.38304 0.0
H2007 H 0.14817 0.2715 0.38265 0.0
H2008 H 0.26085 0.55458 0.11708 0.0
H2009 H 0.28742 0.50205 0.11681 0.0
H2010 H 0.22801 0.43467 0.10108 0.0
H2011 H 0.20134 0.48669 0.1015 0.0
H2012 H 0.27621 0.43849 0.14048 0.0
H2013 H 0.28559 0.40601 0.06624 0.0
H2014 H 0.27833 0.45058 0.07445 0.0
H2015 H 0.25559 0.41648 0.07352 0.0
C2016 C 0.25359 0.52871 0.11314 0.0
C2017 C 0.229 0.52467 0.10937 0.0
C2018 C 0.26876 0.49879 0.11307 0.0
C2019 C 0.25963 0.46469 0.10884 0.0
C2020 C 0.23539 0.46091 0.10419 0.0
H2021 H 0.27742 0.24748 0.13305 0.0
H2022 H 0.26933 0.31196 0.13334 0.0
C2023 C 0.22018 0.49061 0.10451 0.0
C2024 C 0.27454 0.43226 0.11102 0.0
H2025 H 0.29417 0.35866 0.08757 0.0
C2026 C 0.28064 0.42131 0.12891 0.0
C2027 C 0.28035 0.41017 0.09588 0.0
C2028 C 0.27483 0.42145 0.0764 0.0
C2029 C 0.29107 0.3876 0.13212 0.0
C2030 C 0.29537 0.36449 0.11707 0.0
C2031 C 0.29071 0.37644 0.09909 0.0
C2032 C 0.30237 0.32657 0.11966 0.0
C2033 C 0.29671 0.37645 0.1516 0.0
C2034 C 0.32381 0.3136 0.11216 0.0
C2035 C 0.32856 0.27676 0.11204 0.0
C2036 C 0.31168 0.25223 0.11911 0.0
C2037 C 0.29075 0.26558 0.12744 0.0
C2038 C 0.28615 0.30244 0.12771 0.0
H2039 H 0.2985 0.4001 0.16083 0.0
H2040 H 0.28192 0.35942 0.15691 0.0
H2041 H 0.31351 0.36051 0.15216 0.0
H2042 H 0.33645 0.33188 0.1058 0.0
H2043 H 0.34484 0.26744 0.10547 0.0
H2044 H 0.14639 0.73163 0.619 0.0
H2045 H 0.15217 0.66668 0.61951 0.0
H2046 H 0.22404 0.68139 0.63993 0.0
H2047 H 0.21854 0.74639 0.63951 0.0
H2048 H 0.1879 0.63729 0.59703 0.0
H2049 H 0.19969 0.59428 0.66944 0.0
H2050 H 0.18494 0.63578 0.66319 0.0
H2051 H 0.21712 0.63324 0.66367 0.0
C2052 C 0.16322 0.72114 0.62413 0.0
C2053 C 0.18216 0.74436 0.62895 0.0
C2054 C 0.16645 0.68395 0.62439 0.0
C2055 C 0.18849 0.66928 0.62976 0.0
C2056 C 0.20675 0.69218 0.63598 0.0
H2057 H 0.28037 0.50676 0.59654 0.0
H2058 H 0.25396 0.55879 0.59922 0.0
C2059 C 0.2036 0.7294 0.63564 0.0
C2060 C 0.19381 0.631 0.62619 0.0
H2061 H 0.21698 0.5558 0.64621 0.0
C2062 C 0.19374 0.61916 0.60783 0.0
C2063 C 0.20122 0.60736 0.64029 0.0
C2064 C 0.20054 0.61816 0.66028 0.0
C2065 C 0.20248 0.58509 0.60308 0.0
C2066 C 0.21157 0.56252 0.61704 0.0
C2067 C 0.2101 0.57334 0.63552 0.0
C2068 C 0.22531 0.52971 0.61266 0.0
C2069 C 0.20276 0.574 0.58312 0.0
C2070 C 0.21766 0.49602 0.61897 0.0
C2071 C 0.23264 0.46608 0.61729 0.0
C2072 C 0.25569 0.4697 0.60965 0.0
C2073 C 0.26273 0.50315 0.6025 0.0
C2074 C 0.24764 0.53287 0.60396 0.0
H2075 H 0.18935 0.58926 0.57495 0.0
H2076 H 0.22075 0.57952 0.57725 0.0
H2077 H 0.19909 0.54481 0.58165 0.0
H2078 H 0.20052 0.4932 0.62582 0.0
H2079 H 0.2268 0.44073 0.62308 0.0
loop_
_geom_bond_atom_site_label_1
_geom_bond_atom_site_label_2
_geom_bond_distance
_geom_bond_site_symmetry_2
_ccdc_geom_bond_type
Sc0 O3 2.025 . S
Sc0 O10 2.105 . S
Sc0 O13 2.105 . S
Sc0 O16 2.105 . S
Sc0 O19 2.105 . S
Sc1 O3 2.025 . S
Sc1 O11 2.105 . S
Sc1 O15 2.105 . S
Sc1 O17 2.105 . S
Sc1 O21 2.105 . S
Sc2 O3 2.025 . S
Sc2 O12 2.105 . S
Sc2 O14 2.105 . S
Sc2 O18 2.105 . S
Sc2 O20 2.105 . S
O3 Sc0 2.025 . S
O3 Sc1 2.025 . S
O3 Sc2 2.025 . S
C4 O10 1.268 . S
C4 O20 1.268 . S
C5 O11 1.268 . S
C5 O19 1.268 . S
C6 O12 1.268 . S
C6 O21 1.268 . S
C7 O13 1.268 . S
C7 O17 1.268 . S
C8 O14 1.268 . S
C8 O16 1.268 . S
C9 O15 1.268 . S
C9 O18 1.268 . S
O10 Sc0 2.105 . S
O10 C4 1.268 . S
O11 Sc1 2.105 . S
O11 C5 1.268 . S
O12 Sc2 2.105 . S
O12 C6 1.268 . S
O13 Sc0 2.105 . S
O13 C7 1.268 . S
O14 Sc2 2.105 . S
O14 C8 1.268 . S
O15 Sc1 2.105 . S
O15 C9 1.268 . S
O16 Sc0 2.105 . S
O16 C8 1.268 . S
O17 Sc1 2.105 . S
O17 C7 1.268 . S
O18 Sc2 2.105 . S
O18 C9 1.268 . S
O19 Sc0 2.105 . S
O19 C5 1.268 . S
O20 Sc2 2.105 . S
O20 C4 1.268 . S
O21 Sc1 2.105 . S
O21 C6 1.268 . S
Sc22 O25 2.025 . S
Sc22 O32 2.105 . S
Sc22 O35 2.105 . S
Sc22 O38 2.105 . S
Sc22 O41 2.105 . S
Sc23 O25 2.025 . S
Sc23 O33 2.105 . S
Sc23 O37 2.105 . S
Sc23 O39 2.105 . S
Sc23 O43 2.105 . S
Sc24 O25 2.025 . S
Sc24 O34 2.105 . S
Sc24 O36 2.105 . S
Sc24 O40 2.105 . S
Sc24 O42 2.105 . S
O25 Sc22 2.025 . S
O25 Sc23 2.025 . S
O25 Sc24 2.025 . S
C26 O32 1.268 . S
C26 O42 1.268 . S
C27 O33 1.268 . S
C27 O41 1.268 . S
C28 O34 1.268 . S
C28 O43 1.268 . S
C29 O35 1.268 . S
C29 O39 1.268 . S
C30 O36 1.268 . S
C30 O38 1.268 . S
C31 O37 1.268 . S
C31 O40 1.268 . S
O32 Sc22 2.105 . S
O32 C26 1.268 . S
O33 Sc23 2.105 . S
O33 C27 1.268 . S
O34 Sc24 2.105 . S
O34 C28 1.268 . S
O35 Sc22 2.105 . S
O35 C29 1.268 . S
O36 Sc24 2.105 . S
O36 C30 1.268 . S
O37 Sc23 2.105 . S
O37 C31 1.268 . S
O38 Sc22 2.105 . S
O38 C30 1.268 . S
O39 Sc23 2.105 . S
O39 C29 1.268 . S
O40 Sc24 2.105 . S
O40 C31 1.268 . S
O41 Sc22 2.105 . S
O41 C27 1.268 . S
O42 Sc24 2.105 . S
O42 C26 1.268 . S
O43 Sc23 2.105 . S
O43 C28 1.268 . S
Sc44 O47 2.025 . S
Sc44 O54 2.105 . S
Sc44 O57 2.105 . S
Sc44 O60 2.105 . S
Sc44 O63 2.105 . S
Sc45 O47 2.025 . S
Sc45 O55 2.105 . S
Sc45 O59 2.105 . S
Sc45 O61 2.105 . S
Sc45 O65 2.105 . S
Sc46 O47 2.025 . S
Sc46 O56 2.105 . S
Sc46 O58 2.105 . S
Sc46 O62 2.105 . S
Sc46 O64 2.105 . S
O47 Sc44 2.025 . S
O47 Sc45 2.025 . S
O47 Sc46 2.025 . S
C48 O54 1.268 . S
C48 O64 1.268 . S
C49 O55 1.268 . S
C49 O63 1.268 . S
C50 O56 1.268 . S
C50 O65 1.268 . S
C51 O57 1.268 . S
C51 O61 1.268 . S
C52 O58 1.268 . S
C52 O60 1.268 . S
C53 O59 1.268 . S
C53 O62 1.268 . S
O54 Sc44 2.105 . S
O54 C48 1.268 . S
O55 Sc45 2.105 . S
O55 C49 1.268 . S
O56 Sc46 2.105 . S
O56 C50 1.268 . S
O57 Sc44 2.105 . S
O57 C51 1.268 . S
O58 Sc46 2.105 . S
O58 C52 1.268 . S
O59 Sc45 2.105 . S
O59 C53 1.268 . S
O60 Sc44 2.105 . S
O60 C52 1.268 . S
O61 Sc45 2.105 . S
O61 C51 1.268 . S
O62 Sc46 2.105 . S
O62 C53 1.268 . S
O63 Sc44 2.105 . S
O63 C49 1.268 . S
O64 Sc46 2.105 . S
O64 C48 1.268 . S
O65 Sc45 2.105 . S
O65 C50 1.268 . S
Sc66 O69 2.025 . S
Sc66 O76 2.105 . S
Sc66 O79 2.105 . S
Sc66 O82 2.105 . S
Sc66 O85 2.105 . S
Sc67 O69 2.025 . S
Sc67 O77 2.105 . S
Sc67 O81 2.105 . S
Sc67 O83 2.105 . S
Sc67 O87 2.105 . S
Sc68 O69 2.025 . S
Sc68 O78 2.105 . S
Sc68 O80 2.105 . S
Sc68 O84 2.105 . S
Sc68 O86 2.105 . S
O69 Sc66 2.025 . S
O69 Sc67 2.025 . S
O69 Sc68 2.025 . S
C70 O76 1.268 . S
C70 O86 1.268 . S
C71 O77 1.268 . S
C71 O85 1.268 . S
C72 O78 1.268 . S
C72 O87 1.268 . S
C73 O79 1.268 . S
C73 O83 1.268 . S
C74 O80 1.268 . S
C74 O82 1.268 . S
C75 O81 1.268 . S
C75 O84 1.268 . S
O76 Sc66 2.105 . S
O76 C70 1.268 . S
O77 Sc67 2.105 . S
O77 C71 1.268 . S
O78 Sc68 2.105 . S
O78 C72 1.268 . S
O79 Sc66 2.105 . S
O79 C73 1.268 . S
O80 Sc68 2.105 . S
O80 C74 1.268 . S
O81 Sc67 2.105 . S
O81 C75 1.268 . S
O82 Sc66 2.105 . S
O82 C74 1.268 . S
O83 Sc67 2.105 . S
O83 C73 1.268 . S
O84 Sc68 2.105 . S
O84 C75 1.268 . S
O85 Sc66 2.105 . S
O85 C71 1.268 . S
O86 Sc68 2.105 . S
O86 C70 1.268 . S
O87 Sc67 2.105 . S
O87 C72 1.268 . S
Sc88 O91 2.025 . S
Sc88 O98 2.105 . S
Sc88 O101 2.105 . S
Sc88 O104 2.105 . S
Sc88 O107 2.105 . S
Sc89 O91 2.025 . S
Sc89 O99 2.105 . S
Sc89 O103 2.105 . S
Sc89 O105 2.105 . S
Sc89 O109 2.105 . S
Sc90 O91 2.025 . S
Sc90 O100 2.105 . S
Sc90 O102 2.105 . S
Sc90 O106 2.105 . S
Sc90 O108 2.105 . S
O91 Sc88 2.025 . S
O91 Sc89 2.025 . S
O91 Sc90 2.025 . S
C92 O98 1.268 . S
C92 O108 1.268 . S
C93 O99 1.268 . S
C93 O107 1.268 . S
C94 O100 1.268 . S
C94 O109 1.268 . S
C95 O101 1.268 . S
C95 O105 1.268 . S
C96 O102 1.268 . S
C96 O104 1.268 . S
C97 O103 1.268 . S
C97 O106 1.268 . S
O98 Sc88 2.105 . S
O98 C92 1.268 . S
O99 Sc89 2.105 . S
O99 C93 1.268 . S
O100 Sc90 2.105 . S
O100 C94 1.268 . S
O101 Sc88 2.105 . S
O101 C95 1.268 . S
O102 Sc90 2.105 . S
O102 C96 1.268 . S
O103 Sc89 2.105 . S
O103 C97 1.268 . S
O104 Sc88 2.105 . S
O104 C96 1.268 . S
O105 Sc89 2.105 . S
O105 C95 1.268 . S
O106 Sc90 2.105 . S
O106 C97 1.268 . S
O107 Sc88 2.105 . S
O107 C93 1.268 . S
O108 Sc90 2.105 . S
O108 C92 1.268 . S
O109 Sc89 2.105 . S
O109 C94 1.268 . S
Sc110 O113 2.025 . S
Sc110 O120 2.105 . S
Sc110 O123 2.105 . S
Sc110 O126 2.105 . S
Sc110 O129 2.105 . S
Sc111 O113 2.025 . S
Sc111 O121 2.105 . S
Sc111 O125 2.105 . S
Sc111 O127 2.105 . S
Sc111 O131 2.105 . S
Sc112 O113 2.025 . S
Sc112 O122 2.105 . S
Sc112 O124 2.105 . S
Sc112 O128 2.105 . S
Sc112 O130 2.105 . S
O113 Sc110 2.025 . S
O113 Sc111 2.025 . S
O113 Sc112 2.025 . S
C114 O120 1.268 . S
C114 O130 1.268 . S
C115 O121 1.268 . S
C115 O129 1.268 . S
C116 O122 1.268 . S
C116 O131 1.268 . S
C117 O123 1.268 . S
C117 O127 1.268 . S
C118 O124 1.268 . S
C118 O126 1.268 . S
C119 O125 1.268 . S
C119 O128 1.268 . S
O120 Sc110 2.105 . S
O120 C114 1.268 . S
O121 Sc111 2.105 . S
O121 C115 1.268 . S
O122 Sc112 2.105 . S
O122 C116 1.268 . S
O123 Sc110 2.105 . S
O123 C117 1.268 . S
O124 Sc112 2.105 . S
O124 C118 1.268 . S
O125 Sc111 2.105 . S
O125 C119 1.268 . S
O126 Sc110 2.105 . S
O126 C118 1.268 . S
O127 Sc111 2.105 . S
O127 C117 1.268 . S
O128 Sc112 2.105 . S
O128 C119 1.268 . S
O129 Sc110 2.105 . S
O129 C115 1.268 . S
O130 Sc112 2.105 . S
O130 C114 1.268 . S
O131 Sc111 2.105 . S
O131 C116 1.268 . S
Sc132 O135 2.025 . S
Sc132 O142 2.105 . S
Sc132 O145 2.105 . S
Sc132 O148 2.105 . S
Sc132 O151 2.105 . S
Sc133 O135 2.025 . S
Sc133 O143 2.105 . S
Sc133 O147 2.105 . S
Sc133 O149 2.105 . S
Sc133 O153 2.105 . S
Sc134 O135 2.025 . S
Sc134 O144 2.105 . S
Sc134 O146 2.105 . S
Sc134 O150 2.105 . S
Sc134 O152 2.105 . S
O135 Sc132 2.025 . S
O135 Sc133 2.025 . S
O135 Sc134 2.025 . S
C136 O142 1.268 . S
C136 O152 1.268 . S
C137 O143 1.268 . S
C137 O151 1.268 . S
C138 O144 1.268 . S
C138 O153 1.268 . S
C139 O145 1.268 . S
C139 O149 1.268 . S
C140 O146 1.268 . S
C140 O148 1.268 . S
C141 O147 1.268 . S
C141 O150 1.268 . S
O142 Sc132 2.105 . S
O142 C136 1.268 . S
O143 Sc133 2.105 . S
O143 C137 1.268 . S
O144 Sc134 2.105 . S
O144 C138 1.268 . S
O145 Sc132 2.105 . S
O145 C139 1.268 . S
O146 Sc134 2.105 . S
O146 C140 1.268 . S
O147 Sc133 2.105 . S
O147 C141 1.268 . S
O148 Sc132 2.105 . S
O148 C140 1.268 . S
O149 Sc133 2.105 . S
O149 C139 1.268 . S
O150 Sc134 2.105 . S
O150 C141 1.268 . S
O151 Sc132 2.105 . S
O151 C137 1.268 . S
O152 Sc134 2.105 . S
O152 C136 1.268 . S
O153 Sc133 2.105 . S
O153 C138 1.268 . S
Sc154 O157 2.025 . S
Sc154 O164 2.105 . S
Sc154 O167 2.105 . S
Sc154 O170 2.105 . S
Sc154 O173 2.105 . S
Sc155 O157 2.025 . S
Sc155 O165 2.105 . S
Sc155 O169 2.105 . S
Sc155 O171 2.105 . S
Sc155 O175 2.105 . S
Sc156 O157 2.025 . S
Sc156 O166 2.105 . S
Sc156 O168 2.105 . S
Sc156 O172 2.105 . S
Sc156 O174 2.105 . S
O157 Sc154 2.025 . S
O157 Sc155 2.025 . S
O157 Sc156 2.025 . S
C158 O164 1.268 . S
C158 O174 1.268 . S
C159 O165 1.268 . S
C159 O173 1.268 . S
C160 O166 1.268 . S
C160 O175 1.268 . S
C161 O167 1.268 . S
C161 O171 1.268 . S
C162 O168 1.268 . S
C162 O170 1.268 . S
C163 O169 1.268 . S
C163 O172 1.268 . S
O164 Sc154 2.105 . S
O164 C158 1.268 . S
O165 Sc155 2.105 . S
O165 C159 1.268 . S
O166 Sc156 2.105 . S
O166 C160 1.268 . S
O167 Sc154 2.105 . S
O167 C161 1.268 . S
O168 Sc156 2.105 . S
O168 C162 1.268 . S
O169 Sc155 2.105 . S
O169 C163 1.268 . S
O170 Sc154 2.105 . S
O170 C162 1.268 . S
O171 Sc155 2.105 . S
O171 C161 1.268 . S
O172 Sc156 2.105 . S
O172 C163 1.268 . S
O173 Sc154 2.105 . S
O173 C159 1.268 . S
O174 Sc156 2.105 . S
O174 C158 1.268 . S
O175 Sc155 2.105 . S
O175 C160 1.268 . S
Sc176 O179 2.025 . S
Sc176 O186 2.105 . S
Sc176 O189 2.105 . S
Sc176 O192 2.105 . S
Sc176 O195 2.105 . S
Sc177 O179 2.025 . S
Sc177 O187 2.105 . S
Sc177 O191 2.105 . S
Sc177 O193 2.105 . S
Sc177 O197 2.105 . S
Sc178 O179 2.025 . S
Sc178 O188 2.105 . S
Sc178 O190 2.105 . S
Sc178 O194 2.105 . S
Sc178 O196 2.105 . S
O179 Sc176 2.025 . S
O179 Sc177 2.025 . S
O179 Sc178 2.025 . S
C180 O186 1.268 . S
C180 O196 1.268 . S
C181 O187 1.268 . S
C181 O195 1.268 . S
C182 O188 1.268 . S
C182 O197 1.268 . S
C183 O189 1.268 . S
C183 O193 1.268 . S
C184 O190 1.268 . S
C184 O192 1.268 . S
C185 O191 1.268 . S
C185 O194 1.268 . S
O186 Sc176 2.105 . S
O186 C180 1.268 . S
O187 Sc177 2.105 . S
O187 C181 1.268 . S
O188 Sc178 2.105 . S
O188 C182 1.268 . S
O189 Sc176 2.105 . S
O189 C183 1.268 . S
O190 Sc178 2.105 . S
O190 C184 1.268 . S
O191 Sc177 2.105 . S
O191 C185 1.268 . S
O192 Sc176 2.105 . S
O192 C184 1.268 . S
O193 Sc177 2.105 . S
O193 C183 1.268 . S
O194 Sc178 2.105 . S
O194 C185 1.268 . S
O195 Sc176 2.105 . S
O195 C181 1.268 . S
O196 Sc178 2.105 . S
O196 C180 1.268 . S
O197 Sc177 2.105 . S
O197 C182 1.268 . S
Sc198 O201 2.025 . S
Sc198 O208 2.105 . S
Sc198 O211 2.105 . S
Sc198 O214 2.105 . S
Sc198 O217 2.105 . S
Sc199 O201 2.025 . S
Sc199 O209 2.105 . S
Sc199 O213 2.105 . S
Sc199 O215 2.105 . S
Sc199 O219 2.105 . S
Sc200 O201 2.025 . S
Sc200 O210 2.105 . S
Sc200 O212 2.105 . S
Sc200 O216 2.105 . S
Sc200 O218 2.105 . S
O201 Sc198 2.025 . S
O201 Sc199 2.025 . S
O201 Sc200 2.025 . S
C202 O208 1.268 . S
C202 O218 1.268 . S
C203 O209 1.268 . S
C203 O217 1.268 . S
C204 O210 1.268 . S
C204 O219 1.268 . S
C205 O211 1.268 . S
C205 O215 1.268 . S
C206 O212 1.268 . S
C206 O214 1.268 . S
C207 O213 1.268 . S
C207 O216 1.268 . S
O208 Sc198 2.105 . S
O208 C202 1.268 . S
O209 Sc199 2.105 . S
O209 C203 1.268 . S
O210 Sc200 2.105 . S
O210 C204 1.268 . S
O211 Sc198 2.105 . S
O211 C205 1.268 . S
O212 Sc200 2.105 . S
O212 C206 1.268 . S
O213 Sc199 2.105 . S
O213 C207 1.268 . S
O214 Sc198 2.105 . S
O214 C206 1.268 . S
O215 Sc199 2.105 . S
O215 C205 1.268 . S
O216 Sc200 2.105 . S
O216 C207 1.268 . S
O217 Sc198 2.105 . S
O217 C203 1.268 . S
O218 Sc200 2.105 . S
O218 C202 1.268 . S
O219 Sc199 2.105 . S
O219 C204 1.268 . S
Sc220 O223 2.025 . S
Sc220 O230 2.105 . S
Sc220 O233 2.105 . S
Sc220 O236 2.105 . S
Sc220 O239 2.105 . S
Sc221 O223 2.025 . S
Sc221 O231 2.105 . S
Sc221 O235 2.105 . S
Sc221 O237 2.105 . S
Sc221 O241 2.105 . S
Sc222 O223 2.025 . S
Sc222 O232 2.105 . S
Sc222 O234 2.105 . S
Sc222 O238 2.105 . S
Sc222 O240 2.105 . S
O223 Sc220 2.025 . S
O223 Sc221 2.025 . S
O223 Sc222 2.025 . S
C224 O230 1.268 . S
C224 O240 1.268 . S
C225 O231 1.268 . S
C225 O239 1.268 . S
C226 O232 1.268 . S
C226 O241 1.268 . S
C227 O233 1.268 . S
C227 O237 1.268 . S
C228 O234 1.268 . S
C228 O236 1.268 . S
C229 O235 1.268 . S
C229 O238 1.268 . S
O230 Sc220 2.105 . S
O230 C224 1.268 . S
O231 Sc221 2.105 . S
O231 C225 1.268 . S
O232 Sc222 2.105 . S
O232 C226 1.268 . S
O233 Sc220 2.105 . S
O233 C227 1.268 . S
O234 Sc222 2.105 . S
O234 C228 1.268 . S
O235 Sc221 2.105 . S
O235 C229 1.268 . S
O236 Sc220 2.105 . S
O236 C228 1.268 . S
O237 Sc221 2.105 . S
O237 C227 1.268 . S
O238 Sc222 2.105 . S
O238 C229 1.268 . S
O239 Sc220 2.105 . S
O239 C225 1.268 . S
O240 Sc222 2.105 . S
O240 C224 1.268 . S
O241 Sc221 2.105 . S
O241 C226 1.268 . S
Sc242 O245 2.025 . S
Sc242 O252 2.105 . S
Sc242 O255 2.105 . S
Sc242 O258 2.105 . S
Sc242 O261 2.105 . S
Sc243 O245 2.025 . S
Sc243 O253 2.105 . S
Sc243 O257 2.105 . S
Sc243 O259 2.105 . S
Sc243 O263 2.105 . S
Sc244 O245 2.025 . S
Sc244 O254 2.105 . S
Sc244 O256 2.105 . S
Sc244 O260 2.105 . S
Sc244 O262 2.105 . S
O245 Sc242 2.025 . S
O245 Sc243 2.025 . S
O245 Sc244 2.025 . S
C246 O252 1.268 . S
C246 O262 1.268 . S
C247 O253 1.268 . S
C247 O261 1.268 . S
C248 O254 1.268 . S
C248 O263 1.268 . S
C249 O255 1.268 . S
C249 O259 1.268 . S
C250 O256 1.268 . S
C250 O258 1.268 . S
C251 O257 1.268 . S
C251 O260 1.268 . S
O252 Sc242 2.105 . S
O252 C246 1.268 . S
O253 Sc243 2.105 . S
O253 C247 1.268 . S
O254 Sc244 2.105 . S
O254 C248 1.268 . S
O255 Sc242 2.105 . S
O255 C249 1.268 . S
O256 Sc244 2.105 . S
O256 C250 1.268 . S
O257 Sc243 2.105 . S
O257 C251 1.268 . S
O258 Sc242 2.105 . S
O258 C250 1.268 . S
O259 Sc243 2.105 . S
O259 C249 1.268 . S
O260 Sc244 2.105 . S
O260 C251 1.268 . S
O261 Sc242 2.105 . S
O261 C247 1.268 . S
O262 Sc244 2.105 . S
O262 C246 1.268 . S
O263 Sc243 2.105 . S
O263 C248 1.268 . S
Sc264 O267 2.025 . S
Sc264 O274 2.105 . S
Sc264 O277 2.105 . S
Sc264 O280 2.105 . S
Sc264 O283 2.105 . S
Sc265 O267 2.025 . S
Sc265 O275 2.105 . S
Sc265 O279 2.105 . S
Sc265 O281 2.105 . S
Sc265 O285 2.105 . S
Sc266 O267 2.025 . S
Sc266 O276 2.105 . S
Sc266 O278 2.105 . S
Sc266 O282 2.105 . S
Sc266 O284 2.105 . S
O267 Sc264 2.025 . S
O267 Sc265 2.025 . S
O267 Sc266 2.025 . S
C268 O274 1.268 . S
C268 O284 1.268 . S
C269 O275 1.268 . S
C269 O283 1.268 . S
C270 O276 1.268 . S
C270 O285 1.268 . S
C271 O277 1.268 . S
C271 O281 1.268 . S
C272 O278 1.268 . S
C272 O280 1.268 . S
C273 O279 1.268 . S
C273 O282 1.268 . S
O274 Sc264 2.105 . S
O274 C268 1.268 . S
O275 Sc265 2.105 . S
O275 C269 1.268 . S
O276 Sc266 2.105 . S
O276 C270 1.268 . S
O277 Sc264 2.105 . S
O277 C271 1.268 . S
O278 Sc266 2.105 . S
O278 C272 1.268 . S
O279 Sc265 2.105 . S
O279 C273 1.268 . S
O280 Sc264 2.105 . S
O280 C272 1.268 . S
O281 Sc265 2.105 . S
O281 C271 1.268 . S
O282 Sc266 2.105 . S
O282 C273 1.268 . S
O283 Sc264 2.105 . S
O283 C269 1.268 . S
O284 Sc266 2.105 . S
O284 C268 1.268 . S
O285 Sc265 2.105 . S
O285 C270 1.268 . S
Sc286 O289 2.025 . S
Sc286 O296 2.105 . S
Sc286 O299 2.105 . S
Sc286 O302 2.105 . S
Sc286 O305 2.105 . S
Sc287 O289 2.025 . S
Sc287 O297 2.105 . S
Sc287 O301 2.105 . S
Sc287 O303 2.105 . S
Sc287 O307 2.105 . S
Sc288 O289 2.025 . S
Sc288 O298 2.105 . S
Sc288 O300 2.105 . S
Sc288 O304 2.105 . S
Sc288 O306 2.105 . S
O289 Sc286 2.025 . S
O289 Sc287 2.025 . S
O289 Sc288 2.025 . S
C290 O296 1.268 . S
C290 O306 1.268 . S
C291 O297 1.268 . S
C291 O305 1.268 . S
C292 O298 1.268 . S
C292 O307 1.268 . S
C293 O299 1.268 . S
C293 O303 1.268 . S
C294 O300 1.268 . S
C294 O302 1.268 . S
C295 O301 1.268 . S
C295 O304 1.268 . S
O296 Sc286 2.105 . S
O296 C290 1.268 . S
O297 Sc287 2.105 . S
O297 C291 1.268 . S
O298 Sc288 2.105 . S
O298 C292 1.268 . S
O299 Sc286 2.105 . S
O299 C293 1.268 . S
O300 Sc288 2.105 . S
O300 C294 1.268 . S
O301 Sc287 2.105 . S
O301 C295 1.268 . S
O302 Sc286 2.105 . S
O302 C294 1.268 . S
O303 Sc287 2.105 . S
O303 C293 1.268 . S
O304 Sc288 2.105 . S
O304 C295 1.268 . S
O305 Sc286 2.105 . S
O305 C291 1.268 . S
O306 Sc288 2.105 . S
O306 C290 1.268 . S
O307 Sc287 2.105 . S
O307 C292 1.268 . S
Sc308 O311 2.025 . S
Sc308 O318 2.105 . S
Sc308 O321 2.105 . S
Sc308 O324 2.105 . S
Sc308 O327 2.105 . S
Sc309 O311 2.025 . S
Sc309 O319 2.105 . S
Sc309 O323 2.105 . S
Sc309 O325 2.105 . S
Sc309 O329 2.105 . S
Sc310 O311 2.025 . S
Sc310 O320 2.105 . S
Sc310 O322 2.105 . S
Sc310 O326 2.105 . S
Sc310 O328 2.105 . S
O311 Sc308 2.025 . S
O311 Sc309 2.025 . S
O311 Sc310 2.025 . S
C312 O318 1.268 . S
C312 O328 1.268 . S
C313 O319 1.268 . S
C313 O327 1.268 . S
C314 O320 1.268 . S
C314 O329 1.268 . S
C315 O321 1.268 . S
C315 O325 1.268 . S
C316 O322 1.268 . S
C316 O324 1.268 . S
C317 O323 1.268 . S
C317 O326 1.268 . S
O318 Sc308 2.105 . S
O318 C312 1.268 . S
O319 Sc309 2.105 . S
O319 C313 1.268 . S
O320 Sc310 2.105 . S
O320 C314 1.268 . S
O321 Sc308 2.105 . S
O321 C315 1.268 . S
O322 Sc310 2.105 . S
O322 C316 1.268 . S
O323 Sc309 2.105 . S
O323 C317 1.268 . S
O324 Sc308 2.105 . S
O324 C316 1.268 . S
O325 Sc309 2.105 . S
O325 C315 1.268 . S
O326 Sc310 2.105 . S
O326 C317 1.268 . S
O327 Sc308 2.105 . S
O327 C313 1.268 . S
O328 Sc310 2.105 . S
O328 C312 1.268 . S
O329 Sc309 2.105 . S
O329 C314 1.268 . S
Sc330 O333 2.025 . S
Sc330 O340 2.105 . S
Sc330 O343 2.105 . S
Sc330 O346 2.105 . S
Sc330 O349 2.105 . S
Sc331 O333 2.025 . S
Sc331 O341 2.105 . S
Sc331 O345 2.105 . S
Sc331 O347 2.105 . S
Sc331 O351 2.105 . S
Sc332 O333 2.025 . S
Sc332 O342 2.105 . S
Sc332 O344 2.105 . S
Sc332 O348 2.105 . S
Sc332 O350 2.105 . S
O333 Sc330 2.025 . S
O333 Sc331 2.025 . S
O333 Sc332 2.025 . S
C334 O340 1.268 . S
C334 O350 1.268 . S
C335 O341 1.268 . S
C335 O349 1.268 . S
C336 O342 1.268 . S
C336 O351 1.268 . S
C337 O343 1.268 . S
C337 O347 1.268 . S
C338 O344 1.268 . S
C338 O346 1.268 . S
C339 O345 1.268 . S
C339 O348 1.268 . S
O340 Sc330 2.105 . S
O340 C334 1.268 . S
O341 Sc331 2.105 . S
O341 C335 1.268 . S
O342 Sc332 2.105 . S
O342 C336 1.268 . S
O343 Sc330 2.105 . S
O343 C337 1.268 . S
O344 Sc332 2.105 . S
O344 C338 1.268 . S
O345 Sc331 2.105 . S
O345 C339 1.268 . S
O346 Sc330 2.105 . S
O346 C338 1.268 . S
O347 Sc331 2.105 . S
O347 C337 1.268 . S
O348 Sc332 2.105 . S
O348 C339 1.268 . S
O349 Sc330 2.105 . S
O349 C335 1.268 . S
O350 Sc332 2.105 . S
O350 C334 1.268 . S
O351 Sc331 2.105 . S
O351 C336 1.268 . S
H352 C360 0.929 . S
H353 C362 0.930 . S
H354 C364 0.930 . S
H355 C367 0.929 . S
H356 C370 0.930 . S
H357 C372 0.960 . S
H358 C372 0.960 . S
H359 C372 0.960 . S
C360 H352 0.929 . S
C360 C361 1.377 . S
C360 C362 1.384 . S
C361 C360 1.377 . S
C361 C367 1.390 . S
C362 H353 0.930 . S
C362 C360 1.384 . S
C362 C363 1.372 . S
C363 C362 1.372 . S
C363 C364 1.400 . S
C363 C368 1.490 . S
C364 H354 0.930 . S
C364 C363 1.400 . S
C364 C367 1.386 . S
H365 C381 0.930 . S
H366 C382 0.931 . S
C367 H355 0.929 . S
C367 C361 1.390 . S
C367 C364 1.386 . S
C368 C363 1.490 . S
C368 C370 1.395 . S
C368 C371 1.403 . S
H369 C375 0.930 . S
C370 H356 0.930 . S
C370 C368 1.395 . S
C370 C373 1.403 1_554 S
C371 C368 1.403 . S
C371 C372 1.524 . S
C371 C375 1.400 1_554 S
C372 H357 0.960 . S
C372 H358 0.960 . S
C372 H359 0.960 . S
C372 C371 1.524 . S
C373 C370 1.403 1_556 S
C373 C374 1.392 . S
C373 C377 1.495 . S
C374 C373 1.392 . S
C374 C375 1.385 . S
C374 C376 1.478 . S
C375 H369 0.930 . S
C375 C371 1.400 1_556 S
C375 C374 1.385 . S
C376 C374 1.478 . S
C376 C378 1.381 . S
C376 C382 1.383 . S
C377 C373 1.495 . S
C377 H383 0.959 . S
C377 H384 0.961 . S
C377 H385 0.960 . S
C378 C376 1.381 . S
C378 C379 1.394 . S
C378 H386 0.930 . S
C379 C378 1.394 . S
C379 C380 1.383 . S
C379 H387 0.929 . S
C380 C379 1.383 . S
C380 C381 1.377 . S
C381 H365 0.930 . S
C381 C380 1.377 . S
C381 C382 1.379 . S
C382 H366 0.931 . S
C382 C376 1.383 . S
C382 C381 1.379 . S
H383 C377 0.959 . S
H384 C377 0.961 . S
H385 C377 0.960 . S
H386 C378 0.930 . S
H387 C379 0.929 . S
H388 C396 0.929 . S
H389 C398 0.930 . S
H390 C400 0.930 . S
H391 C403 0.929 . S
H392 C406 0.930 . S
H393 C408 0.960 . S
H394 C408 0.960 . S
H395 C408 0.960 . S
C396 H388 0.929 . S
C396 C397 1.377 . S
C396 C398 1.384 . S
C397 C396 1.377 . S
C397 C403 1.390 . S
C398 H389 0.930 . S
C398 C396 1.384 . S
C398 C399 1.372 . S
C399 C398 1.372 . S
C399 C400 1.400 . S
C399 C404 1.490 . S
C400 H390 0.930 . S
C400 C399 1.400 . S
C400 C403 1.386 . S
H401 C417 0.930 . S
H402 C418 0.931 . S
C403 H391 0.929 . S
C403 C397 1.390 . S
C403 C400 1.386 . S
C404 C399 1.490 . S
C404 C406 1.395 . S
C404 C407 1.403 . S
H405 C411 0.930 . S
C406 H392 0.930 . S
C406 C404 1.395 . S
C406 C409 1.403 . S
C407 C404 1.403 . S
C407 C408 1.524 . S
C407 C411 1.400 . S
C408 H393 0.960 . S
C408 H394 0.960 . S
C408 H395 0.960 . S
C408 C407 1.524 . S
C409 C406 1.403 . S
C409 C410 1.392 . S
C409 C413 1.495 . S
C410 C409 1.392 . S
C410 C411 1.385 . S
C410 C412 1.478 . S
C411 H405 0.930 . S
C411 C407 1.400 . S
C411 C410 1.385 . S
C412 C410 1.478 . S
C412 C414 1.381 . S
C412 C418 1.383 . S
C413 C409 1.495 . S
C413 H419 0.959 . S
C413 H420 0.961 . S
C413 H421 0.960 . S
C414 C412 1.381 . S
C414 C415 1.394 . S
C414 H422 0.930 . S
C415 C414 1.394 . S
C415 C416 1.383 . S
C415 H423 0.929 . S
C416 C415 1.383 . S
C416 C417 1.377 . S
C417 H401 0.930 . S
C417 C416 1.377 . S
C417 C418 1.379 . S
C418 H402 0.931 . S
C418 C412 1.383 . S
C418 C417 1.379 . S
H419 C413 0.959 . S
H420 C413 0.961 . S
H421 C413 0.960 . S
H422 C414 0.930 . S
H423 C415 0.929 . S
H424 C432 0.929 . S
H425 C434 0.930 . S
H426 C436 0.930 . S
H427 C439 0.929 . S
H428 C442 0.930 . S
H429 C444 0.960 1_556 S
H430 C444 0.960 . S
H431 C444 0.960 . S
C432 H424 0.929 . S
C432 C433 1.377 . S
C432 C434 1.384 . S
C433 C432 1.377 . S
C433 C439 1.390 . S
C434 H425 0.930 . S
C434 C432 1.384 . S
C434 C435 1.372 . S
C435 C434 1.372 . S
C435 C436 1.400 . S
C435 C440 1.490 . S
C436 H426 0.930 . S
C436 C435 1.400 . S
C436 C439 1.386 . S
H437 C453 0.930 . S
H438 C454 0.931 . S
C439 H427 0.929 . S
C439 C433 1.390 . S
C439 C436 1.386 . S
C440 C435 1.490 . S
C440 C442 1.395 . S
C440 C443 1.403 . S
H441 C447 0.930 . S
C442 H428 0.930 . S
C442 C440 1.395 . S
C442 C445 1.403 1_554 S
C443 C440 1.403 . S
C443 C444 1.524 . S
C443 C447 1.400 1_554 S
C444 H429 0.960 1_554 S
C444 H430 0.960 . S
C444 H431 0.960 . S
C444 C443 1.524 . S
C445 C442 1.403 1_556 S
C445 C446 1.392 . S
C445 C449 1.495 . S
C446 C445 1.392 . S
C446 C447 1.385 . S
C446 C448 1.478 . S
C447 H441 0.930 . S
C447 C443 1.400 1_556 S
C447 C446 1.385 . S
C448 C446 1.478 . S
C448 C450 1.381 . S
C448 C454 1.383 . S
C449 C445 1.495 . S
C449 H455 0.959 1_556 S
C449 H456 0.961 . S
C449 H457 0.960 . S
C450 C448 1.381 . S
C450 C451 1.394 . S
C450 H458 0.930 . S
C451 C450 1.394 . S
C451 C452 1.383 . S
C451 H459 0.929 . S
C452 C451 1.383 . S
C452 C453 1.377 . S
C453 H437 0.930 . S
C453 C452 1.377 . S
C453 C454 1.379 . S
C454 H438 0.931 . S
C454 C448 1.383 . S
C454 C453 1.379 . S
H455 C449 0.959 1_554 S
H456 C449 0.961 . S
H457 C449 0.960 . S
H458 C450 0.930 . S
H459 C451 0.929 . S
H460 C468 0.929 . S
H461 C470 0.930 . S
H462 C472 0.930 . S
H463 C475 0.929 . S
H464 C478 0.930 . S
H465 C480 0.960 . S
H466 C480 0.960 . S
H467 C480 0.960 . S
C468 H460 0.929 . S
C468 C469 1.377 . S
C468 C470 1.384 . S
C469 C468 1.377 . S
C469 C475 1.390 . S
C470 H461 0.930 . S
C470 C468 1.384 . S
C470 C471 1.372 . S
C471 C470 1.372 . S
C471 C472 1.400 . S
C471 C476 1.490 . S
C472 H462 0.930 . S
C472 C471 1.400 . S
C472 C475 1.386 . S
H473 C489 0.930 . S
H474 C490 0.931 . S
C475 H463 0.929 . S
C475 C469 1.390 . S
C475 C472 1.386 . S
C476 C471 1.490 . S
C476 C478 1.395 . S
C476 C479 1.403 . S
H477 C483 0.930 . S
C478 H464 0.930 . S
C478 C476 1.395 . S
C478 C481 1.403 . S
C479 C476 1.403 . S
C479 C480 1.524 . S
C479 C483 1.400 . S
C480 H465 0.960 . S
C480 H466 0.960 . S
C480 H467 0.960 . S
C480 C479 1.524 . S
C481 C478 1.403 . S
C481 C482 1.392 . S
C481 C485 1.495 . S
C482 C481 1.392 . S
C482 C483 1.385 . S
C482 C484 1.478 . S
C483 H477 0.930 . S
C483 C479 1.400 . S
C483 C482 1.385 . S
C484 C482 1.478 . S
C484 C486 1.381 . S
C484 C490 1.383 . S
C485 C481 1.495 . S
C485 H491 0.959 . S
C485 H492 0.961 . S
C485 H493 0.960 . S
C486 C484 1.381 . S
C486 C487 1.394 . S
C486 H494 0.930 . S
C487 C486 1.394 . S
C487 C488 1.383 . S
C487 H495 0.929 . S
C488 C487 1.383 . S
C488 C489 1.377 . S
C489 H473 0.930 . S
C489 C488 1.377 . S
C489 C490 1.379 . S
C490 H474 0.931 . S
C490 C484 1.383 . S
C490 C489 1.379 . S
H491 C485 0.959 . S
H492 C485 0.961 . S
H493 C485 0.960 . S
H494 C486 0.930 . S
H495 C487 0.929 . S
H496 C504 0.929 . S
H497 C506 0.930 . S
H498 C508 0.930 . S
H499 C511 0.929 . S
H500 C514 0.930 . S
H501 C516 0.960 1_554 S
H502 C516 0.960 . S
H503 C516 0.960 . S
C504 H496 0.929 . S
C504 C505 1.377 . S
C504 C506 1.384 . S
C505 C504 1.377 . S
C505 C511 1.390 . S
C506 H497 0.930 . S
C506 C504 1.384 . S
C506 C507 1.372 . S
C507 C506 1.372 . S
C507 C508 1.400 . S
C507 C512 1.490 . S
C508 H498 0.930 . S
C508 C507 1.400 . S
C508 C511 1.386 . S
H509 C525 0.930 . S
H510 C526 0.931 . S
C511 H499 0.929 . S
C511 C505 1.390 . S
C511 C508 1.386 . S
C512 C507 1.490 . S
C512 C514 1.395 . S
C512 C515 1.403 . S
H513 C519 0.930 . S
C514 H500 0.930 . S
C514 C512 1.395 . S
C514 C517 1.378 1_556 S
C515 C512 1.403 . S
C515 C516 1.524 . S
C515 C519 1.400 1_556 S
C516 H501 0.960 1_556 S
C516 H502 0.960 . S
C516 H503 0.960 . S
C516 C515 1.524 . S
C517 C514 1.378 1_554 S
C517 C518 1.416 . S
C517 C521 1.496 . S
C518 C517 1.416 . S
C518 C519 1.385 . S
C518 C520 1.478 . S
C519 H513 0.930 . S
C519 C515 1.400 1_554 S
C519 C518 1.385 . S
C520 C518 1.478 . S
C520 C522 1.381 . S
C520 C526 1.383 . S
C521 C517 1.496 . S
C521 H527 0.959 1_554 S
C521 H528 0.961 . S
C521 H529 0.960 . S
C522 C520 1.381 . S
C522 C523 1.394 . S
C522 H530 0.930 . S
C523 C522 1.394 . S
C523 C524 1.383 . S
C523 H531 0.929 . S
C524 C523 1.383 . S
C524 C525 1.377 . S
C525 H509 0.930 . S
C525 C524 1.377 . S
C525 C526 1.379 . S
C526 H510 0.931 . S
C526 C520 1.383 . S
C526 C525 1.379 . S
H527 C521 0.959 1_556 S
H528 C521 0.961 . S
H529 C521 0.960 . S
H530 C522 0.930 . S
H531 C523 0.929 . S
H532 C540 0.929 . S
H533 C542 0.930 . S
H534 C544 0.930 . S
H535 C547 0.929 . S
H536 C550 0.930 . S
H537 C552 0.960 . S
H538 C552 0.960 . S
H539 C552 0.960 . S
C540 H532 0.929 . S
C540 C541 1.377 . S
C540 C542 1.384 . S
C541 C540 1.377 . S
C541 C547 1.390 . S
C542 H533 0.930 . S
C542 C540 1.384 . S
C542 C543 1.372 . S
C543 C542 1.372 . S
C543 C544 1.400 . S
C543 C548 1.490 . S
C544 H534 0.930 . S
C544 C543 1.400 . S
C544 C547 1.386 . S
H545 C561 0.930 . S
H546 C562 0.931 . S
C547 H535 0.929 . S
C547 C541 1.390 . S
C547 C544 1.386 . S
C548 C543 1.490 . S
C548 C550 1.395 . S
C548 C551 1.403 . S
H549 C555 0.930 . S
C550 H536 0.930 . S
C550 C548 1.395 . S
C550 C553 1.403 . S
C551 C548 1.403 . S
C551 C552 1.524 . S
C551 C555 1.400 . S
C552 H537 0.960 . S
C552 H538 0.960 . S
C552 H539 0.960 . S
C552 C551 1.524 . S
C553 C550 1.403 . S
C553 C554 1.392 . S
C553 C557 1.495 . S
C554 C553 1.392 . S
C554 C555 1.385 . S
C554 C556 1.478 . S
C555 H549 0.930 . S
C555 C551 1.400 . S
C555 C554 1.385 . S
C556 C554 1.478 . S
C556 C558 1.381 . S
C556 C562 1.383 . S
C557 C553 1.495 . S
C557 H563 0.959 . S
C557 H564 0.961 . S
C557 H565 0.960 . S
C558 C556 1.381 . S
C558 C559 1.394 . S
C558 H566 0.930 . S
C559 C558 1.394 . S
C559 C560 1.383 . S
C559 H567 0.929 . S
C560 C559 1.383 . S
C560 C561 1.377 . S
C561 H545 0.930 . S
C561 C560 1.377 . S
C561 C562 1.379 . S
C562 H546 0.931 . S
C562 C556 1.383 . S
C562 C561 1.379 . S
H563 C557 0.959 . S
H564 C557 0.961 . S
H565 C557 0.960 . S
H566 C558 0.930 . S
H567 C559 0.929 . S
H568 C576 0.929 . S
H569 C578 0.930 . S
H570 C580 0.930 . S
H571 C583 0.929 . S
H572 C586 0.930 . S
H573 C588 0.960 . S
H574 C588 0.960 . S
H575 C588 0.960 . S
C576 H568 0.929 . S
C576 C577 1.377 . S
C576 C578 1.384 . S
C577 C576 1.377 . S
C577 C583 1.390 . S
C578 H569 0.930 . S
C578 C576 1.384 . S
C578 C579 1.372 . S
C579 C578 1.372 . S
C579 C580 1.400 . S
C579 C584 1.490 . S
C580 H570 0.930 . S
C580 C579 1.400 . S
C580 C583 1.386 . S
H581 C597 0.930 . S
H582 C598 0.931 . S
C583 H571 0.929 . S
C583 C577 1.390 . S
C583 C580 1.386 . S
C584 C579 1.490 . S
C584 C586 1.395 . S
C584 C587 1.403 . S
H585 C591 0.930 . S
C586 H572 0.930 . S
C586 C584 1.395 . S
C586 C589 1.403 1_554 S
C587 C584 1.403 . S
C587 C588 1.524 . S
C587 C591 1.400 1_554 S
C588 H573 0.960 . S
C588 H574 0.960 . S
C588 H575 0.960 . S
C588 C587 1.524 . S
C589 C586 1.403 1_556 S
C589 C590 1.392 . S
C589 C593 1.495 . S
C590 C589 1.392 . S
C590 C591 1.385 . S
C590 C592 1.478 . S
C591 H585 0.930 . S
C591 C587 1.400 1_556 S
C591 C590 1.385 . S
C592 C590 1.478 . S
C592 C594 1.381 . S
C592 C598 1.383 . S
C593 C589 1.495 . S
C593 H599 0.959 . S
C593 H600 0.961 . S
C593 H601 0.960 . S
C594 C592 1.381 . S
C594 C595 1.394 . S
C594 H602 0.930 . S
C595 C594 1.394 . S
C595 C596 1.383 . S
C595 H603 0.929 . S
C596 C595 1.383 . S
C596 C597 1.377 . S
C597 H581 0.930 . S
C597 C596 1.377 . S
C597 C598 1.379 . S
C598 H582 0.931 . S
C598 C592 1.383 . S
C598 C597 1.379 . S
H599 C593 0.959 . S
H600 C593 0.961 . S
H601 C593 0.960 . S
H602 C594 0.930 . S
H603 C595 0.929 . S
H604 C612 0.929 . S
H605 C614 0.930 . S
H606 C616 0.930 . S
H607 C619 0.929 . S
H608 C622 0.930 . S
H609 C624 0.960 . S
H610 C624 0.960 . S
H611 C624 0.960 . S
C612 H604 0.929 . S
C612 C613 1.377 . S
C612 C614 1.384 . S
C613 C612 1.377 . S
C613 C619 1.390 . S
C614 H605 0.930 . S
C614 C612 1.384 . S
C614 C615 1.372 . S
C615 C614 1.372 . S
C615 C616 1.400 . S
C615 C620 1.490 . S
C616 H606 0.930 . S
C616 C615 1.400 . S
C616 C619 1.386 . S
H617 C633 0.930 . S
H618 C634 0.931 . S
C619 H607 0.929 . S
C619 C613 1.390 . S
C619 C616 1.386 . S
C620 C615 1.490 . S
C620 C622 1.395 . S
C620 C623 1.403 . S
H621 C627 0.930 . S
C622 H608 0.930 . S
C622 C620 1.395 . S
C622 C625 1.403 . S
C623 C620 1.403 . S
C623 C624 1.524 . S
C623 C627 1.400 . S
C624 H609 0.960 . S
C624 H610 0.960 . S
C624 H611 0.960 . S
C624 C623 1.524 . S
C625 C622 1.403 . S
C625 C626 1.392 . S
C625 C629 1.495 . S
C626 C625 1.392 . S
C626 C627 1.385 . S
C626 C628 1.478 . S
C627 H621 0.930 . S
C627 C623 1.400 . S
C627 C626 1.385 . S
C628 C626 1.478 . S
C628 C630 1.381 . S
C628 C634 1.383 . S
C629 C625 1.495 . S
C629 H635 0.959 . S
C629 H636 0.961 . S
C629 H637 0.960 . S
C630 C628 1.381 . S
C630 C631 1.394 . S
C630 H638 0.930 . S
C631 C630 1.394 . S
C631 C632 1.383 . S
C631 H639 0.929 . S
C632 C631 1.383 . S
C632 C633 1.377 . S
C633 H617 0.930 . S
C633 C632 1.377 . S
C633 C634 1.379 . S
C634 H618 0.931 . S
C634 C628 1.383 . S
C634 C633 1.379 . S
H635 C629 0.959 . S
H636 C629 0.961 . S
H637 C629 0.960 . S
H638 C630 0.930 . S
H639 C631 0.929 . S
H640 C648 0.929 . S
H641 C650 0.930 . S
H642 C652 0.930 . S
H643 C655 0.929 . S
H644 C658 0.930 . S
H645 C660 0.960 . S
H646 C660 0.960 . S
H647 C660 0.960 . S
C648 H640 0.929 . S
C648 C649 1.377 . S
C648 C650 1.384 . S
C649 C648 1.377 . S
C649 C655 1.390 . S
C650 H641 0.930 . S
C650 C648 1.384 . S
C650 C651 1.372 . S
C651 C650 1.372 . S
C651 C652 1.400 . S
C651 C656 1.490 . S
C652 H642 0.930 . S
C652 C651 1.400 . S
C652 C655 1.386 . S
H653 C669 0.930 . S
H654 C670 0.931 . S
C655 H643 0.929 . S
C655 C649 1.390 . S
C655 C652 1.386 . S
C656 C651 1.490 . S
C656 C658 1.395 1_556 S
C656 C659 1.403 1_565 S
H657 C663 0.930 . S
C658 H644 0.930 . S
C658 C656 1.395 1_554 S
C658 C661 1.403 . S
C659 C656 1.403 1_545 S
C659 C660 1.524 . S
C659 C663 1.400 1_556 S
C660 H645 0.960 . S
C660 H646 0.960 . S
C660 H647 0.960 . S
C660 C659 1.524 . S
C661 C658 1.403 . S
C661 C662 1.392 1_565 S
C661 C665 1.495 . S
C662 C661 1.392 1_545 S
C662 C663 1.385 . S
C662 C664 1.478 . S
C663 H657 0.930 . S
C663 C659 1.400 1_554 S
C663 C662 1.385 . S
C664 C662 1.478 . S
C664 C666 1.381 . S
C664 C670 1.383 . S
C665 C661 1.495 . S
C665 H671 0.959 . S
C665 H672 0.961 . S
C665 H673 0.960 . S
C666 C664 1.381 . S
C666 C667 1.394 . S
C666 H674 0.930 . S
C667 C666 1.394 . S
C667 C668 1.383 . S
C667 H675 0.929 . S
C668 C667 1.383 . S
C668 C669 1.377 . S
C669 H653 0.930 . S
C669 C668 1.377 . S
C669 C670 1.379 . S
C670 H654 0.931 . S
C670 C664 1.383 . S
C670 C669 1.379 . S
H671 C665 0.959 . S
H672 C665 0.961 . S
H673 C665 0.960 . S
H674 C666 0.930 . S
H675 C667 0.929 . S
H676 C684 0.929 . S
H677 C686 0.930 . S
H678 C688 0.930 . S
H679 C691 0.929 . S
H680 C694 0.930 . S
H681 C696 0.960 . S
H682 C696 0.960 . S
H683 C696 0.960 . S
C684 H676 0.929 . S
C684 C685 1.377 . S
C684 C686 1.384 . S
C685 C684 1.377 . S
C685 C691 1.390 . S
C686 H677 0.930 . S
C686 C684 1.384 . S
C686 C687 1.372 . S
C687 C686 1.372 . S
C687 C688 1.400 . S
C687 C692 1.490 . S
C688 H678 0.930 . S
C688 C687 1.400 . S
C688 C691 1.386 . S
H689 C705 0.930 . S
H690 C706 0.931 . S
C691 H679 0.929 . S
C691 C685 1.390 . S
C691 C688 1.386 . S
C692 C687 1.490 . S
C692 C694 1.395 . S
C692 C695 1.403 1_565 S
H693 C699 0.930 . S
C694 H680 0.930 . S
C694 C692 1.395 . S
C694 C697 1.403 . S
C695 C692 1.403 1_545 S
C695 C696 1.524 . S
C695 C699 1.400 . S
C696 H681 0.960 . S
C696 H682 0.960 . S
C696 H683 0.960 . S
C696 C695 1.524 . S
C697 C694 1.403 . S
C697 C698 1.392 1_565 S
C697 C701 1.495 . S
C698 C697 1.392 1_545 S
C698 C699 1.385 . S
C698 C700 1.478 . S
C699 H693 0.930 . S
C699 C695 1.400 . S
C699 C698 1.385 . S
C700 C698 1.478 . S
C700 C702 1.381 . S
C700 C706 1.383 . S
C701 C697 1.495 . S
C701 H707 0.959 . S
C701 H708 0.961 . S
C701 H709 0.960 . S
C702 C700 1.381 . S
C702 C703 1.394 . S
C702 H710 0.930 . S
C703 C702 1.394 . S
C703 C704 1.383 . S
C703 H711 0.929 . S
C704 C703 1.383 . S
C704 C705 1.377 . S
C705 H689 0.930 . S
C705 C704 1.377 . S
C705 C706 1.379 . S
C706 H690 0.931 . S
C706 C700 1.383 . S
C706 C705 1.379 . S
H707 C701 0.959 . S
H708 C701 0.961 . S
H709 C701 0.960 . S
H710 C702 0.930 . S
H711 C703 0.929 . S
H712 C720 0.929 . S
H713 C722 0.930 . S
H714 C724 0.930 . S
H715 C727 0.929 . S
H716 C730 0.930 . S
H717 C732 0.960 1_554 S
H718 C732 0.960 . S
H719 C732 0.960 . S
C720 H712 0.929 . S
C720 C721 1.377 . S
C720 C722 1.384 . S
C721 C720 1.377 . S
C721 C727 1.390 . S
C722 H713 0.930 . S
C722 C720 1.384 . S
C722 C723 1.372 . S
C723 C722 1.372 . S
C723 C724 1.400 . S
C723 C728 1.490 . S
C724 H714 0.930 . S
C724 C723 1.400 . S
C724 C727 1.386 . S
H725 C741 0.930 . S
H726 C742 0.931 . S
C727 H715 0.929 . S
C727 C721 1.390 . S
C727 C724 1.386 . S
C728 C723 1.490 . S
C728 C730 1.395 1_565 S
C728 C731 1.403 . S
H729 C735 0.930 . S
C730 H716 0.930 . S
C730 C728 1.395 1_545 S
C730 C733 1.430 . S
C731 C728 1.403 . S
C731 C732 1.524 . S
C731 C735 1.400 1_566 S
C732 H717 0.960 1_556 S
C732 H718 0.960 . S
C732 H719 0.960 . S
C732 C731 1.524 . S
C733 C730 1.430 . S
C733 C734 1.367 1_556 S
C733 C737 1.495 . S
C734 C733 1.367 1_554 S
C734 C735 1.385 . S
C734 C736 1.478 . S
C735 H729 0.930 . S
C735 C731 1.400 1_544 S
C735 C734 1.385 . S
C736 C734 1.478 . S
C736 C738 1.381 . S
C736 C742 1.383 . S
C737 C733 1.495 . S
C737 H743 0.987 . S
C737 H744 0.934 1_556 S
C737 H745 0.960 . S
C738 C736 1.381 . S
C738 C739 1.394 . S
C738 H746 0.930 . S
C739 C738 1.394 . S
C739 C740 1.383 . S
C739 H747 0.929 . S
C740 C739 1.383 . S
C740 C741 1.377 . S
C741 H725 0.930 . S
C741 C740 1.377 . S
C741 C742 1.379 . S
C742 H726 0.931 . S
C742 C736 1.383 . S
C742 C741 1.379 . S
H743 C737 0.987 . S
H744 C737 0.934 1_554 S
H745 C737 0.960 . S
H746 C738 0.930 . S
H747 C739 0.929 . S
H748 C756 0.929 . S
H749 C758 0.930 . S
H750 C760 0.930 . S
H751 C763 0.929 . S
H752 C766 0.930 . S
H753 C768 0.960 . S
H754 C768 0.960 . S
H755 C768 0.960 1_565 S
C756 H748 0.929 . S
C756 C757 1.377 . S
C756 C758 1.384 . S
C757 C756 1.377 . S
C757 C763 1.390 . S
C758 H749 0.930 . S
C758 C756 1.384 . S
C758 C759 1.372 . S
C759 C758 1.372 . S
C759 C760 1.400 . S
C759 C764 1.490 . S
C760 H750 0.930 . S
C760 C759 1.400 . S
C760 C763 1.386 . S
H761 C777 0.930 . S
H762 C778 0.931 . S
C763 H751 0.929 . S
C763 C757 1.390 . S
C763 C760 1.386 . S
C764 C759 1.490 . S
C764 C766 1.395 . S
C764 C767 1.403 1_565 S
H765 C771 0.930 . S
C766 H752 0.930 . S
C766 C764 1.395 . S
C766 C769 1.403 . S
C767 C764 1.403 1_545 S
C767 C768 1.524 . S
C767 C771 1.400 . S
C768 H753 0.960 . S
C768 H754 0.960 . S
C768 H755 0.960 1_545 S
C768 C767 1.524 . S
C769 C766 1.403 . S
C769 C770 1.392 1_565 S
C769 C773 1.495 . S
C770 C769 1.392 1_545 S
C770 C771 1.385 . S
C770 C772 1.478 . S
C771 H765 0.930 . S
C771 C767 1.400 . S
C771 C770 1.385 . S
C772 C770 1.478 . S
C772 C774 1.381 . S
C772 C778 1.383 . S
C773 C769 1.495 . S
C773 H779 0.959 . S
C773 H780 0.961 . S
C773 H781 0.960 1_565 S
C774 C772 1.381 . S
C774 C775 1.394 . S
C774 H782 0.930 . S
C775 C774 1.394 . S
C775 C776 1.383 . S
C775 H783 0.929 . S
C776 C775 1.383 . S
C776 C777 1.377 . S
C777 H761 0.930 . S
C777 C776 1.377 . S
C777 C778 1.379 . S
C778 H762 0.931 . S
C778 C772 1.383 . S
C778 C777 1.379 . S
H779 C773 0.959 . S
H780 C773 0.961 . S
H781 C773 0.960 1_545 S
H782 C774 0.930 . S
H783 C775 0.929 . S
H784 C792 0.929 . S
H785 C794 0.930 . S
H786 C796 0.930 . S
H787 C799 0.929 . S
H788 C802 0.930 . S
H789 C804 0.960 . S
H790 C804 0.960 . S
H791 C804 0.960 . S
C792 H784 0.929 . S
C792 C793 1.377 . S
C792 C794 1.384 . S
C793 C792 1.377 . S
C793 C799 1.390 . S
C794 H785 0.930 . S
C794 C792 1.384 . S
C794 C795 1.372 . S
C795 C794 1.372 . S
C795 C796 1.400 . S
C795 C800 1.490 . S
C796 H786 0.930 . S
C796 C795 1.400 . S
C796 C799 1.386 . S
H797 C813 0.930 . S
H798 C814 0.931 . S
C799 H787 0.929 . S
C799 C793 1.390 . S
C799 C796 1.386 . S
C800 C795 1.490 . S
C800 C802 1.395 1_554 S
C800 C803 1.403 . S
H801 C807 0.929 1_554 S
C802 H788 0.930 . S
C802 C800 1.395 1_556 S
C802 C805 1.403 . S
C803 C800 1.403 . S
C803 C804 1.524 . S
C803 C807 1.376 1_554 S
C804 H789 0.960 . S
C804 H790 0.960 . S
C804 H791 0.960 . S
C804 C803 1.524 . S
C805 C802 1.403 . S
C805 C806 1.392 . S
C805 C809 1.495 . S
C806 C805 1.392 . S
C806 C807 1.411 . S
C806 C808 1.478 . S
C807 H801 0.929 1_556 S
C807 C803 1.376 1_556 S
C807 C806 1.411 . S
C808 C806 1.478 . S
C808 C810 1.381 . S
C808 C814 1.383 . S
C809 C805 1.495 . S
C809 H815 0.959 . S
C809 H816 0.961 . S
C809 H817 0.960 . S
C810 C808 1.381 . S
C810 C811 1.394 . S
C810 H818 0.930 . S
C811 C810 1.394 . S
C811 C812 1.383 . S
C811 H819 0.929 . S
C812 C811 1.383 . S
C812 C813 1.377 . S
C813 H797 0.930 . S
C813 C812 1.377 . S
C813 C814 1.379 . S
C814 H798 0.931 . S
C814 C808 1.383 . S
C814 C813 1.379 . S
H815 C809 0.959 . S
H816 C809 0.961 . S
H817 C809 0.960 . S
H818 C810 0.930 . S
H819 C811 0.929 . S
H820 C828 0.929 . S
H821 C830 0.930 . S
H822 C832 0.930 . S
H823 C835 0.929 . S
H824 C838 0.930 . S
H825 C840 0.960 . S
H826 C840 0.960 . S
H827 C840 0.960 . S
C828 H820 0.929 . S
C828 C829 1.377 . S
C828 C830 1.384 . S
C829 C828 1.377 . S
C829 C835 1.390 . S
C830 H821 0.930 . S
C830 C828 1.384 . S
C830 C831 1.372 . S
C831 C830 1.372 . S
C831 C832 1.400 . S
C831 C836 1.490 . S
C832 H822 0.930 . S
C832 C831 1.400 . S
C832 C835 1.386 . S
H833 C849 0.930 . S
H834 C850 0.931 . S
C835 H823 0.929 . S
C835 C829 1.390 . S
C835 C832 1.386 . S
C836 C831 1.490 . S
C836 C838 1.395 . S
C836 C839 1.403 . S
H837 C843 0.930 . S
C838 H824 0.930 . S
C838 C836 1.395 . S
C838 C841 1.403 . S
C839 C836 1.403 . S
C839 C840 1.524 . S
C839 C843 1.400 . S
C840 H825 0.960 . S
C840 H826 0.960 . S
C840 H827 0.960 . S
C840 C839 1.524 . S
C841 C838 1.403 . S
C841 C842 1.392 . S
C841 C845 1.495 . S
C842 C841 1.392 . S
C842 C843 1.385 . S
C842 C844 1.478 . S
C843 H837 0.930 . S
C843 C839 1.400 . S
C843 C842 1.385 . S
C844 C842 1.478 . S
C844 C846 1.381 . S
C844 C850 1.383 . S
C845 C841 1.495 . S
C845 H851 0.959 . S
C845 H852 0.961 . S
C845 H853 0.960 . S
C846 C844 1.381 . S
C846 C847 1.394 . S
C846 H854 0.930 . S
C847 C846 1.394 . S
C847 C848 1.383 . S
C847 H855 0.929 . S
C848 C847 1.383 . S
C848 C849 1.377 . S
C849 H833 0.930 . S
C849 C848 1.377 . S
C849 C850 1.379 . S
C850 H834 0.931 . S
C850 C844 1.383 . S
C850 C849 1.379 . S
H851 C845 0.959 . S
H852 C845 0.961 . S
H853 C845 0.960 . S
H854 C846 0.930 . S
H855 C847 0.929 . S
H856 C864 0.929 . S
H857 C866 0.930 . S
H858 C868 0.930 . S
H859 C871 0.929 . S
H860 C874 0.930 . S
H861 C876 0.960 . S
H862 C876 0.960 1_554 S
H863 C876 0.960 . S
C864 H856 0.929 . S
C864 C865 1.377 . S
C864 C866 1.384 . S
C865 C864 1.377 . S
C865 C871 1.390 . S
C866 H857 0.930 . S
C866 C864 1.384 . S
C866 C867 1.372 . S
C867 C866 1.372 . S
C867 C868 1.400 . S
C867 C872 1.490 . S
C868 H858 0.930 . S
C868 C867 1.400 . S
C868 C871 1.386 . S
H869 C885 0.930 . S
H870 C886 0.931 . S
C871 H859 0.929 . S
C871 C865 1.390 . S
C871 C868 1.386 . S
C872 C867 1.490 . S
C872 C874 1.395 . S
C872 C875 1.403 1_554 S
H873 C879 0.930 . S
C874 H860 0.930 . S
C874 C872 1.395 . S
C874 C877 1.403 . S
C875 C872 1.403 1_556 S
C875 C876 1.524 . S
C875 C879 1.400 . S
C876 H861 0.960 . S
C876 H862 0.960 1_556 S
C876 H863 0.960 . S
C876 C875 1.524 . S
C877 C874 1.403 . S
C877 C878 1.392 1_554 S
C877 C881 1.495 . S
C878 C877 1.392 1_556 S
C878 C879 1.385 . S
C878 C880 1.478 . S
C879 H873 0.930 . S
C879 C875 1.400 . S
C879 C878 1.385 . S
C880 C878 1.478 . S
C880 C882 1.381 . S
C880 C886 1.383 . S
C881 C877 1.495 . S
C881 H887 0.959 . S
C881 H888 0.964 1_554 S
C881 H889 0.960 . S
C882 C880 1.381 . S
C882 C883 1.394 . S
C882 H890 0.930 . S
C883 C882 1.394 . S
C883 C884 1.383 . S
C883 H891 0.929 . S
C884 C883 1.383 . S
C884 C885 1.377 . S
C885 H869 0.930 . S
C885 C884 1.377 . S
C885 C886 1.379 . S
C886 H870 0.931 . S
C886 C880 1.383 . S
C886 C885 1.379 . S
H887 C881 0.959 . S
H888 C881 0.964 1_556 S
H889 C881 0.960 . S
H890 C882 0.930 . S
H891 C883 0.929 . S
H892 C900 0.929 . S
H893 C902 0.930 . S
H894 C904 0.930 . S
H895 C907 0.929 . S
H896 C910 0.930 . S
H897 C912 0.960 . S
H898 C912 0.960 . S
H899 C912 0.960 . S
C900 H892 0.929 . S
C900 C901 1.377 . S
C900 C902 1.384 . S
C901 C900 1.377 . S
C901 C907 1.390 . S
C902 H893 0.930 . S
C902 C900 1.384 . S
C902 C903 1.372 . S
C903 C902 1.372 . S
C903 C904 1.400 . S
C903 C908 1.490 . S
C904 H894 0.930 . S
C904 C903 1.400 . S
C904 C907 1.386 . S
H905 C921 0.930 . S
H906 C922 0.931 . S
C907 H895 0.929 . S
C907 C901 1.390 . S
C907 C904 1.386 . S
C908 C903 1.490 . S
C908 C910 1.395 . S
C908 C911 1.403 . S
H909 C915 0.930 . S
C910 H896 0.930 . S
C910 C908 1.395 . S
C910 C913 1.403 . S
C911 C908 1.403 . S
C911 C912 1.524 . S
C911 C915 1.400 . S
C912 H897 0.960 . S
C912 H898 0.960 . S
C912 H899 0.960 . S
C912 C911 1.524 . S
C913 C910 1.403 . S
C913 C914 1.392 . S
C913 C917 1.495 . S
C914 C913 1.392 . S
C914 C915 1.385 . S
C914 C916 1.478 . S
C915 H909 0.930 . S
C915 C911 1.400 . S
C915 C914 1.385 . S
C916 C914 1.478 . S
C916 C918 1.381 . S
C916 C922 1.383 . S
C917 C913 1.495 . S
C917 H923 0.959 . S
C917 H924 0.961 . S
C917 H925 0.960 . S
C918 C916 1.381 . S
C918 C919 1.394 . S
C918 H926 0.930 . S
C919 C918 1.394 . S
C919 C920 1.383 . S
C919 H927 0.929 . S
C920 C919 1.383 . S
C920 C921 1.377 . S
C921 H905 0.930 . S
C921 C920 1.377 . S
C921 C922 1.379 . S
C922 H906 0.931 . S
C922 C916 1.383 . S
C922 C921 1.379 . S
H923 C917 0.959 . S
H924 C917 0.961 . S
H925 C917 0.960 . S
H926 C918 0.930 . S
H927 C919 0.929 . S
H928 C936 0.929 . S
H929 C938 0.930 . S
H930 C940 0.930 . S
H931 C943 0.929 . S
H932 C946 0.930 . S
H933 C948 0.960 . S
H934 C948 0.960 . S
H935 C948 0.960 . S
C936 H928 0.929 . S
C936 C937 1.377 . S
C936 C938 1.384 . S
C937 C936 1.377 . S
C937 C943 1.390 . S
C938 H929 0.930 . S
C938 C936 1.384 . S
C938 C939 1.372 . S
C939 C938 1.372 . S
C939 C940 1.400 . S
C939 C944 1.490 . S
C940 H930 0.930 . S
C940 C939 1.400 . S
C940 C943 1.386 . S
H941 C957 0.930 . S
H942 C958 0.931 . S
C943 H931 0.929 . S
C943 C937 1.390 . S
C943 C940 1.386 . S
C944 C939 1.490 . S
C944 C946 1.395 . S
C944 C947 1.403 . S
H945 C951 0.930 . S
C946 H932 0.930 . S
C946 C944 1.395 . S
C946 C949 1.403 . S
C947 C944 1.403 . S
C947 C948 1.524 . S
C947 C951 1.400 . S
C948 H933 0.960 . S
C948 H934 0.960 . S
C948 H935 0.960 . S
C948 C947 1.524 . S
C949 C946 1.403 . S
C949 C950 1.392 . S
C949 C953 1.495 . S
C950 C949 1.392 . S
C950 C951 1.385 . S
C950 C952 1.478 . S
C951 H945 0.930 . S
C951 C947 1.400 . S
C951 C950 1.385 . S
C952 C950 1.478 . S
C952 C954 1.381 . S
C952 C958 1.383 . S
C953 C949 1.495 . S
C953 H959 0.959 . S
C953 H960 0.961 . S
C953 H961 0.960 . S
C954 C952 1.381 . S
C954 C955 1.394 . S
C954 H962 0.930 . S
C955 C954 1.394 . S
C955 C956 1.383 . S
C955 H963 0.929 . S
C956 C955 1.383 . S
C956 C957 1.377 . S
C957 H941 0.930 . S
C957 C956 1.377 . S
C957 C958 1.379 . S
C958 H942 0.931 . S
C958 C952 1.383 . S
C958 C957 1.379 . S
H959 C953 0.959 . S
H960 C953 0.961 . S
H961 C953 0.960 . S
H962 C954 0.930 . S
H963 C955 0.929 . S
H964 C972 0.929 . S
H965 C974 0.930 . S
H966 C976 0.930 . S
H967 C979 0.929 . S
H968 C982 0.930 . S
H969 C984 0.960 . S
H970 C984 0.960 . S
H971 C984 0.960 . S
C972 H964 0.929 . S
C972 C973 1.377 . S
C972 C974 1.384 . S
C973 C972 1.377 . S
C973 C979 1.390 . S
C974 H965 0.930 . S
C974 C972 1.384 . S
C974 C975 1.372 . S
C975 C974 1.372 . S
C975 C976 1.400 . S
C975 C980 1.490 . S
C976 H966 0.930 . S
C976 C975 1.400 . S
C976 C979 1.386 . S
H977 C993 0.930 . S
H978 C994 0.931 . S
C979 H967 0.929 . S
C979 C973 1.390 . S
C979 C976 1.386 . S
C980 C975 1.490 . S
C980 C982 1.395 . S
C980 C983 1.403 . S
H981 C987 0.930 . S
C982 H968 0.930 . S
C982 C980 1.395 . S
C982 C985 1.403 . S
C983 C980 1.403 . S
C983 C984 1.524 . S
C983 C987 1.400 . S
C984 H969 0.960 . S
C984 H970 0.960 . S
C984 H971 0.960 . S
C984 C983 1.524 . S
C985 C982 1.403 . S
C985 C986 1.392 . S
C985 C989 1.495 . S
C986 C985 1.392 . S
C986 C987 1.385 . S
C986 C988 1.478 . S
C987 H981 0.930 . S
C987 C983 1.400 . S
C987 C986 1.385 . S
C988 C986 1.478 . S
C988 C990 1.381 . S
C988 C994 1.383 . S
C989 C985 1.495 . S
C989 H995 0.959 . S
C989 H996 0.961 . S
C989 H997 0.960 . S
C990 C988 1.381 . S
C990 C991 1.394 . S
C990 H998 0.930 . S
C991 C990 1.394 . S
C991 C992 1.383 . S
C991 H999 0.929 . S
C992 C991 1.383 . S
C992 C993 1.377 . S
C993 H977 0.930 . S
C993 C992 1.377 . S
C993 C994 1.379 . S
C994 H978 0.931 . S
C994 C988 1.383 . S
C994 C993 1.379 . S
H995 C989 0.959 . S
H996 C989 0.961 . S
H997 C989 0.960 . S
H998 C990 0.930 . S
H999 C991 0.929 . S
H1000 C1008 0.929 . S
H1001 C1010 0.930 . S
H1002 C1012 0.930 . S
H1003 C1015 0.929 . S
H1004 C1018 0.930 . S
H1005 C1020 0.960 . S
H1006 C1020 0.960 . S
H1007 C1020 0.960 . S
C1008 H1000 0.929 . S
C1008 C1009 1.377 . S
C1008 C1010 1.384 . S
C1009 C1008 1.377 . S
C1009 C1015 1.390 . S
C1010 H1001 0.930 . S
C1010 C1008 1.384 . S
C1010 C1011 1.372 . S
C1011 C1010 1.372 . S
C1011 C1012 1.400 . S
C1011 C1016 1.490 . S
C1012 H1002 0.930 . S
C1012 C1011 1.400 . S
C1012 C1015 1.386 . S
H1013 C1029 0.930 . S
H1014 C1030 0.931 . S
C1015 H1003 0.929 . S
C1015 C1009 1.390 . S
C1015 C1012 1.386 . S
C1016 C1011 1.490 . S
C1016 C1018 1.395 . S
C1016 C1019 1.403 . S
H1017 C1023 0.930 . S
C1018 H1004 0.930 . S
C1018 C1016 1.395 . S
C1018 C1021 1.403 . S
C1019 C1016 1.403 . S
C1019 C1020 1.524 . S
C1019 C1023 1.400 . S
C1020 H1005 0.960 . S
C1020 H1006 0.960 . S
C1020 H1007 0.960 . S
C1020 C1019 1.524 . S
C1021 C1018 1.403 . S
C1021 C1022 1.392 . S
C1021 C1025 1.495 . S
C1022 C1021 1.392 . S
C1022 C1023 1.385 . S
C1022 C1024 1.478 . S
C1023 H1017 0.930 . S
C1023 C1019 1.400 . S
C1023 C1022 1.385 . S
C1024 C1022 1.478 . S
C1024 C1026 1.381 . S
C1024 C1030 1.383 . S
C1025 C1021 1.495 . S
C1025 H1031 0.959 . S
C1025 H1032 0.961 . S
C1025 H1033 0.960 . S
C1026 C1024 1.381 . S
C1026 C1027 1.394 . S
C1026 H1034 0.930 . S
C1027 C1026 1.394 . S
C1027 C1028 1.383 . S
C1027 H1035 0.929 . S
C1028 C1027 1.383 . S
C1028 C1029 1.377 . S
C1029 H1013 0.930 . S
C1029 C1028 1.377 . S
C1029 C1030 1.379 . S
C1030 H1014 0.931 . S
C1030 C1024 1.383 . S
C1030 C1029 1.379 . S
H1031 C1025 0.959 . S
H1032 C1025 0.961 . S
H1033 C1025 0.960 . S
H1034 C1026 0.930 . S
H1035 C1027 0.929 . S
H1036 C1044 0.929 . S
H1037 C1046 0.930 . S
H1038 C1048 0.930 . S
H1039 C1051 0.929 . S
H1040 C1054 0.930 . S
H1041 C1056 0.960 . S
H1042 C1056 0.960 . S
H1043 C1056 0.960 . S
C1044 H1036 0.929 . S
C1044 C1045 1.377 . S
C1044 C1046 1.384 . S
C1045 C1044 1.377 . S
C1045 C1051 1.390 . S
C1046 H1037 0.930 . S
C1046 C1044 1.384 . S
C1046 C1047 1.372 . S
C1047 C1046 1.372 . S
C1047 C1048 1.400 . S
C1047 C1052 1.490 . S
C1048 H1038 0.930 . S
C1048 C1047 1.400 . S
C1048 C1051 1.386 . S
H1049 C1065 0.930 . S
H1050 C1066 0.931 . S
C1051 H1039 0.929 . S
C1051 C1045 1.390 . S
C1051 C1048 1.386 . S
C1052 C1047 1.490 . S
C1052 C1054 1.395 . S
C1052 C1055 1.403 . S
H1053 C1059 0.930 . S
C1054 H1040 0.930 . S
C1054 C1052 1.395 . S
C1054 C1057 1.403 . S
C1055 C1052 1.403 . S
C1055 C1056 1.524 . S
C1055 C1059 1.400 . S
C1056 H1041 0.960 . S
C1056 H1042 0.960 . S
C1056 H1043 0.960 . S
C1056 C1055 1.524 . S
C1057 C1054 1.403 . S
C1057 C1058 1.392 . S
C1057 C1061 1.495 . S
C1058 C1057 1.392 . S
C1058 C1059 1.385 . S
C1058 C1060 1.478 . S
C1059 H1053 0.930 . S
C1059 C1055 1.400 . S
C1059 C1058 1.385 . S
C1060 C1058 1.478 . S
C1060 C1062 1.381 . S
C1060 C1066 1.383 . S
C1061 C1057 1.495 . S
C1061 H1067 0.959 . S
C1061 H1068 0.961 . S
C1061 H1069 0.960 . S
C1062 C1060 1.381 . S
C1062 C1063 1.394 . S
C1062 H1070 0.930 . S
C1063 C1062 1.394 . S
C1063 C1064 1.383 . S
C1063 H1071 0.929 . S
C1064 C1063 1.383 . S
C1064 C1065 1.377 . S
C1065 H1049 0.930 . S
C1065 C1064 1.377 . S
C1065 C1066 1.379 . S
C1066 H1050 0.931 . S
C1066 C1060 1.383 . S
C1066 C1065 1.379 . S
H1067 C1061 0.959 . S
H1068 C1061 0.961 . S
H1069 C1061 0.960 . S
H1070 C1062 0.930 . S
H1071 C1063 0.929 . S
H1072 C1080 0.929 . S
H1073 C1082 0.930 . S
H1074 C1084 0.930 . S
H1075 C1087 0.929 . S
H1076 C1090 0.930 . S
H1077 C1092 0.960 . S
H1078 C1092 0.960 . S
H1079 C1092 0.960 . S
C1080 H1072 0.929 . S
C1080 C1081 1.377 . S
C1080 C1082 1.384 . S
C1081 C1080 1.377 . S
C1081 C1087 1.390 . S
C1082 H1073 0.930 . S
C1082 C1080 1.384 . S
C1082 C1083 1.372 . S
C1083 C1082 1.372 . S
C1083 C1084 1.400 . S
C1083 C1088 1.490 . S
C1084 H1074 0.930 . S
C1084 C1083 1.400 . S
C1084 C1087 1.386 . S
H1085 C1101 0.930 . S
H1086 C1102 0.931 . S
C1087 H1075 0.929 . S
C1087 C1081 1.390 . S
C1087 C1084 1.386 . S
C1088 C1083 1.490 . S
C1088 C1090 1.395 . S
C1088 C1091 1.403 . S
H1089 C1095 0.930 . S
C1090 H1076 0.930 . S
C1090 C1088 1.395 . S
C1090 C1093 1.403 . S
C1091 C1088 1.403 . S
C1091 C1092 1.524 . S
C1091 C1095 1.400 . S
C1092 H1077 0.960 . S
C1092 H1078 0.960 . S
C1092 H1079 0.960 . S
C1092 C1091 1.524 . S
C1093 C1090 1.403 . S
C1093 C1094 1.392 . S
C1093 C1097 1.495 . S
C1094 C1093 1.392 . S
C1094 C1095 1.385 . S
C1094 C1096 1.478 . S
C1095 H1089 0.930 . S
C1095 C1091 1.400 . S
C1095 C1094 1.385 . S
C1096 C1094 1.478 . S
C1096 C1098 1.381 . S
C1096 C1102 1.383 . S
C1097 C1093 1.495 . S
C1097 H1103 0.959 . S
C1097 H1104 0.961 . S
C1097 H1105 0.960 . S
C1098 C1096 1.381 . S
C1098 C1099 1.394 . S
C1098 H1106 0.930 . S
C1099 C1098 1.394 . S
C1099 C1100 1.383 . S
C1099 H1107 0.929 . S
C1100 C1099 1.383 . S
C1100 C1101 1.377 . S
C1101 H1085 0.930 . S
C1101 C1100 1.377 . S
C1101 C1102 1.379 . S
C1102 H1086 0.931 . S
C1102 C1096 1.383 . S
C1102 C1101 1.379 . S
H1103 C1097 0.959 . S
H1104 C1097 0.961 . S
H1105 C1097 0.960 . S
H1106 C1098 0.930 . S
H1107 C1099 0.929 . S
H1108 C1116 0.929 . S
H1109 C1118 0.930 . S
H1110 C1120 0.930 . S
H1111 C1123 0.929 . S
H1112 C1126 0.930 . S
H1113 C1128 0.960 . S
H1114 C1128 0.960 . S
H1115 C1128 0.960 . S
C1116 H1108 0.929 . S
C1116 C1117 1.377 . S
C1116 C1118 1.384 . S
C1117 C1116 1.377 . S
C1117 C1123 1.390 . S
C1118 H1109 0.930 . S
C1118 C1116 1.384 . S
C1118 C1119 1.372 . S
C1119 C1118 1.372 . S
C1119 C1120 1.400 . S
C1119 C1124 1.490 . S
C1120 H1110 0.930 . S
C1120 C1119 1.400 . S
C1120 C1123 1.386 . S
H1121 C1137 0.930 . S
H1122 C1138 0.931 . S
C1123 H1111 0.929 . S
C1123 C1117 1.390 . S
C1123 C1120 1.386 . S
C1124 C1119 1.490 . S
C1124 C1126 1.395 . S
C1124 C1127 1.403 . S
H1125 C1131 0.930 . S
C1126 H1112 0.930 . S
C1126 C1124 1.395 . S
C1126 C1129 1.403 . S
C1127 C1124 1.403 . S
C1127 C1128 1.524 . S
C1127 C1131 1.400 . S
C1128 H1113 0.960 . S
C1128 H1114 0.960 . S
C1128 H1115 0.960 . S
C1128 C1127 1.524 . S
C1129 C1126 1.403 . S
C1129 C1130 1.392 . S
C1129 C1133 1.495 . S
C1130 C1129 1.392 . S
C1130 C1131 1.385 . S
C1130 C1132 1.478 . S
C1131 H1125 0.930 . S
C1131 C1127 1.400 . S
C1131 C1130 1.385 . S
C1132 C1130 1.478 . S
C1132 C1134 1.381 . S
C1132 C1138 1.383 . S
C1133 C1129 1.495 . S
C1133 H1139 0.959 . S
C1133 H1140 0.961 . S
C1133 H1141 0.960 . S
C1134 C1132 1.381 . S
C1134 C1135 1.394 . S
C1134 H1142 0.930 . S
C1135 C1134 1.394 . S
C1135 C1136 1.383 . S
C1135 H1143 0.929 . S
C1136 C1135 1.383 . S
C1136 C1137 1.377 . S
C1137 H1121 0.930 . S
C1137 C1136 1.377 . S
C1137 C1138 1.379 . S
C1138 H1122 0.931 . S
C1138 C1132 1.383 . S
C1138 C1137 1.379 . S
H1139 C1133 0.959 . S
H1140 C1133 0.961 . S
H1141 C1133 0.960 . S
H1142 C1134 0.930 . S
H1143 C1135 0.929 . S
H1144 C1152 0.929 . S
H1145 C1154 0.930 . S
H1146 C1156 0.930 . S
H1147 C1159 0.929 . S
H1148 C1162 0.930 . S
H1149 C1164 0.960 . S
H1150 C1164 0.960 . S
H1151 C1164 0.960 . S
C1152 H1144 0.929 . S
C1152 C1153 1.377 . S
C1152 C1154 1.384 . S
C1153 C1152 1.377 . S
C1153 C1159 1.390 . S
C1154 H1145 0.930 . S
C1154 C1152 1.384 . S
C1154 C1155 1.372 . S
C1155 C1154 1.372 . S
C1155 C1156 1.400 . S
C1155 C1160 1.490 . S
C1156 H1146 0.930 . S
C1156 C1155 1.400 . S
C1156 C1159 1.386 . S
H1157 C1173 0.930 . S
H1158 C1174 0.931 . S
C1159 H1147 0.929 . S
C1159 C1153 1.390 . S
C1159 C1156 1.386 . S
C1160 C1155 1.490 . S
C1160 C1162 1.395 . S
C1160 C1163 1.403 . S
H1161 C1167 0.930 . S
C1162 H1148 0.930 . S
C1162 C1160 1.395 . S
C1162 C1165 1.403 . S
C1163 C1160 1.403 . S
C1163 C1164 1.524 . S
C1163 C1167 1.400 . S
C1164 H1149 0.960 . S
C1164 H1150 0.960 . S
C1164 H1151 0.960 . S
C1164 C1163 1.524 . S
C1165 C1162 1.403 . S
C1165 C1166 1.392 . S
C1165 C1169 1.495 . S
C1166 C1165 1.392 . S
C1166 C1167 1.385 . S
C1166 C1168 1.478 . S
C1167 H1161 0.930 . S
C1167 C1163 1.400 . S
C1167 C1166 1.385 . S
C1168 C1166 1.478 . S
C1168 C1170 1.381 . S
C1168 C1174 1.383 . S
C1169 C1165 1.495 . S
C1169 H1175 0.959 . S
C1169 H1176 0.961 . S
C1169 H1177 0.960 . S
C1170 C1168 1.381 . S
C1170 C1171 1.394 . S
C1170 H1178 0.930 . S
C1171 C1170 1.394 . S
C1171 C1172 1.383 . S
C1171 H1179 0.929 . S
C1172 C1171 1.383 . S
C1172 C1173 1.377 . S
C1173 H1157 0.930 . S
C1173 C1172 1.377 . S
C1173 C1174 1.379 . S
C1174 H1158 0.931 . S
C1174 C1168 1.383 . S
C1174 C1173 1.379 . S
H1175 C1169 0.959 . S
H1176 C1169 0.961 . S
H1177 C1169 0.960 . S
H1178 C1170 0.930 . S
H1179 C1171 0.929 . S
H1180 C1188 0.929 . S
H1181 C1190 0.930 . S
H1182 C1192 0.930 . S
H1183 C1195 0.929 . S
H1184 C1198 0.930 . S
H1185 C1200 0.960 . S
H1186 C1200 0.960 . S
H1187 C1200 0.960 . S
C1188 H1180 0.929 . S
C1188 C1189 1.377 . S
C1188 C1190 1.384 . S
C1189 C1188 1.377 . S
C1189 C1195 1.390 . S
C1190 H1181 0.930 . S
C1190 C1188 1.384 . S
C1190 C1191 1.372 . S
C1191 C1190 1.372 . S
C1191 C1192 1.400 . S
C1191 C1196 1.490 . S
C1192 H1182 0.930 . S
C1192 C1191 1.400 . S
C1192 C1195 1.386 . S
H1193 C1209 0.930 . S
H1194 C1210 0.931 . S
C1195 H1183 0.929 . S
C1195 C1189 1.390 . S
C1195 C1192 1.386 . S
C1196 C1191 1.490 . S
C1196 C1198 1.395 . S
C1196 C1199 1.403 . S
H1197 C1203 0.930 . S
C1198 H1184 0.930 . S
C1198 C1196 1.395 . S
C1198 C1201 1.403 . S
C1199 C1196 1.403 . S
C1199 C1200 1.524 . S
C1199 C1203 1.400 . S
C1200 H1185 0.960 . S
C1200 H1186 0.960 . S
C1200 H1187 0.960 . S
C1200 C1199 1.524 . S
C1201 C1198 1.403 . S
C1201 C1202 1.392 . S
C1201 C1205 1.495 . S
C1202 C1201 1.392 . S
C1202 C1203 1.385 . S
C1202 C1204 1.478 . S
C1203 H1197 0.930 . S
C1203 C1199 1.400 . S
C1203 C1202 1.385 . S
C1204 C1202 1.478 . S
C1204 C1206 1.381 . S
C1204 C1210 1.383 . S
C1205 C1201 1.495 . S
C1205 H1211 0.959 . S
C1205 H1212 0.961 . S
C1205 H1213 0.960 . S
C1206 C1204 1.381 . S
C1206 C1207 1.394 . S
C1206 H1214 0.930 . S
C1207 C1206 1.394 . S
C1207 C1208 1.383 . S
C1207 H1215 0.929 . S
C1208 C1207 1.383 . S
C1208 C1209 1.377 . S
C1209 H1193 0.930 . S
C1209 C1208 1.377 . S
C1209 C1210 1.379 . S
C1210 H1194 0.931 . S
C1210 C1204 1.383 . S
C1210 C1209 1.379 . S
H1211 C1205 0.959 . S
H1212 C1205 0.961 . S
H1213 C1205 0.960 . S
H1214 C1206 0.930 . S
H1215 C1207 0.929 . S
H1216 C1224 0.929 . S
H1217 C1226 0.930 . S
H1218 C1228 0.930 . S
H1219 C1231 0.929 . S
H1220 C1234 0.930 . S
H1221 C1236 0.960 . S
H1222 C1236 0.960 . S
H1223 C1236 0.960 . S
C1224 H1216 0.929 . S
C1224 C1225 1.377 . S
C1224 C1226 1.384 . S
C1225 C1224 1.377 . S
C1225 C1231 1.390 . S
C1226 H1217 0.930 . S
C1226 C1224 1.384 . S
C1226 C1227 1.372 . S
C1227 C1226 1.372 . S
C1227 C1228 1.400 . S
C1227 C1232 1.490 . S
C1228 H1218 0.930 . S
C1228 C1227 1.400 . S
C1228 C1231 1.386 . S
H1229 C1245 0.930 . S
H1230 C1246 0.931 . S
C1231 H1219 0.929 . S
C1231 C1225 1.390 . S
C1231 C1228 1.386 . S
C1232 C1227 1.490 . S
C1232 C1234 1.395 . S
C1232 C1235 1.403 . S
H1233 C1239 0.930 . S
C1234 H1220 0.930 . S
C1234 C1232 1.395 . S
C1234 C1237 1.403 . S
C1235 C1232 1.403 . S
C1235 C1236 1.524 . S
C1235 C1239 1.400 . S
C1236 H1221 0.960 . S
C1236 H1222 0.960 . S
C1236 H1223 0.960 . S
C1236 C1235 1.524 . S
C1237 C1234 1.403 . S
C1237 C1238 1.392 . S
C1237 C1241 1.495 . S
C1238 C1237 1.392 . S
C1238 C1239 1.385 . S
C1238 C1240 1.478 . S
C1239 H1233 0.930 . S
C1239 C1235 1.400 . S
C1239 C1238 1.385 . S
C1240 C1238 1.478 . S
C1240 C1242 1.381 . S
C1240 C1246 1.383 . S
C1241 C1237 1.495 . S
C1241 H1247 0.959 . S
C1241 H1248 0.961 . S
C1241 H1249 0.960 . S
C1242 C1240 1.381 . S
C1242 C1243 1.394 . S
C1242 H1250 0.930 . S
C1243 C1242 1.394 . S
C1243 C1244 1.383 . S
C1243 H1251 0.929 . S
C1244 C1243 1.383 . S
C1244 C1245 1.377 . S
C1245 H1229 0.930 . S
C1245 C1244 1.377 . S
C1245 C1246 1.379 . S
C1246 H1230 0.931 . S
C1246 C1240 1.383 . S
C1246 C1245 1.379 . S
H1247 C1241 0.959 . S
H1248 C1241 0.961 . S
H1249 C1241 0.960 . S
H1250 C1242 0.930 . S
H1251 C1243 0.929 . S
H1252 C1260 0.929 . S
H1253 C1262 0.930 . S
H1254 C1264 0.930 . S
H1255 C1267 0.929 . S
H1256 C1270 0.930 . S
H1257 C1272 0.960 . S
H1258 C1272 0.960 . S
H1259 C1272 0.960 . S
C1260 H1252 0.929 . S
C1260 C1261 1.377 . S
C1260 C1262 1.384 . S
C1261 C1260 1.377 . S
C1261 C1267 1.390 . S
C1262 H1253 0.930 . S
C1262 C1260 1.384 . S
C1262 C1263 1.372 . S
C1263 C1262 1.372 . S
C1263 C1264 1.400 . S
C1263 C1268 1.490 . S
C1264 H1254 0.930 . S
C1264 C1263 1.400 . S
C1264 C1267 1.386 . S
H1265 C1281 0.930 . S
H1266 C1282 0.931 . S
C1267 H1255 0.929 . S
C1267 C1261 1.390 . S
C1267 C1264 1.386 . S
C1268 C1263 1.490 . S
C1268 C1270 1.395 . S
C1268 C1271 1.403 . S
H1269 C1275 0.930 . S
C1270 H1256 0.930 . S
C1270 C1268 1.395 . S
C1270 C1273 1.403 1_455 S
C1271 C1268 1.403 . S
C1271 C1272 1.524 . S
C1271 C1275 1.400 1_455 S
C1272 H1257 0.960 . S
C1272 H1258 0.960 . S
C1272 H1259 0.960 . S
C1272 C1271 1.524 . S
C1273 C1270 1.403 1_655 S
C1273 C1274 1.392 . S
C1273 C1277 1.495 . S
C1274 C1273 1.392 . S
C1274 C1275 1.385 . S
C1274 C1276 1.478 . S
C1275 H1269 0.930 . S
C1275 C1271 1.400 1_655 S
C1275 C1274 1.385 . S
C1276 C1274 1.478 . S
C1276 C1278 1.381 . S
C1276 C1282 1.383 . S
C1277 C1273 1.495 . S
C1277 H1283 0.959 . S
C1277 H1284 0.961 . S
C1277 H1285 0.960 . S
C1278 C1276 1.381 . S
C1278 C1279 1.394 . S
C1278 H1286 0.930 . S
C1279 C1278 1.394 . S
C1279 C1280 1.383 . S
C1279 H1287 0.929 . S
C1280 C1279 1.383 . S
C1280 C1281 1.377 . S
C1281 H1265 0.930 . S
C1281 C1280 1.377 . S
C1281 C1282 1.379 . S
C1282 H1266 0.931 . S
C1282 C1276 1.383 . S
C1282 C1281 1.379 . S
H1283 C1277 0.959 . S
H1284 C1277 0.961 . S
H1285 C1277 0.960 . S
H1286 C1278 0.930 . S
H1287 C1279 0.929 . S
H1288 C1296 0.929 . S
H1289 C1298 0.930 . S
H1290 C1300 0.930 . S
H1291 C1303 0.929 . S
H1292 C1306 0.930 . S
H1293 C1308 0.960 . S
H1294 C1308 0.960 . S
H1295 C1308 0.960 . S
C1296 H1288 0.929 . S
C1296 C1297 1.377 . S
C1296 C1298 1.384 . S
C1297 C1296 1.377 . S
C1297 C1303 1.390 . S
C1298 H1289 0.930 . S
C1298 C1296 1.384 . S
C1298 C1299 1.372 . S
C1299 C1298 1.372 . S
C1299 C1300 1.400 . S
C1299 C1304 1.490 . S
C1300 H1290 0.930 . S
C1300 C1299 1.400 . S
C1300 C1303 1.386 . S
H1301 C1317 0.930 . S
H1302 C1318 0.931 . S
C1303 H1291 0.929 . S
C1303 C1297 1.390 . S
C1303 C1300 1.386 . S
C1304 C1299 1.490 . S
C1304 C1306 1.395 . S
C1304 C1307 1.403 . S
H1305 C1311 0.930 . S
C1306 H1292 0.930 . S
C1306 C1304 1.395 . S
C1306 C1309 1.403 . S
C1307 C1304 1.403 . S
C1307 C1308 1.524 . S
C1307 C1311 1.400 . S
C1308 H1293 0.960 . S
C1308 H1294 0.960 . S
C1308 H1295 0.960 . S
C1308 C1307 1.524 . S
C1309 C1306 1.403 . S
C1309 C1310 1.392 . S
C1309 C1313 1.495 . S
C1310 C1309 1.392 . S
C1310 C1311 1.385 . S
C1310 C1312 1.478 . S
C1311 H1305 0.930 . S
C1311 C1307 1.400 . S
C1311 C1310 1.385 . S
C1312 C1310 1.478 . S
C1312 C1314 1.381 . S
C1312 C1318 1.383 . S
C1313 C1309 1.495 . S
C1313 H1319 0.959 . S
C1313 H1320 0.961 . S
C1313 H1321 0.960 . S
C1314 C1312 1.381 . S
C1314 C1315 1.394 . S
C1314 H1322 0.930 . S
C1315 C1314 1.394 . S
C1315 C1316 1.383 . S
C1315 H1323 0.929 . S
C1316 C1315 1.383 . S
C1316 C1317 1.377 . S
C1317 H1301 0.930 . S
C1317 C1316 1.377 . S
C1317 C1318 1.379 . S
C1318 H1302 0.931 . S
C1318 C1312 1.383 . S
C1318 C1317 1.379 . S
H1319 C1313 0.959 . S
H1320 C1313 0.961 . S
H1321 C1313 0.960 . S
H1322 C1314 0.930 . S
H1323 C1315 0.929 . S
H1324 C1332 0.929 . S
H1325 C1334 0.930 . S
H1326 C1336 0.930 . S
H1327 C1339 0.929 . S
H1328 C1342 0.930 . S
H1329 C1344 0.960 . S
H1330 C1344 0.960 . S
H1331 C1344 0.960 . S
C1332 H1324 0.929 . S
C1332 C1333 1.377 . S
C1332 C1334 1.384 . S
C1333 C1332 1.377 . S
C1333 C1339 1.390 . S
C1334 H1325 0.930 . S
C1334 C1332 1.384 . S
C1334 C1335 1.372 . S
C1335 C1334 1.372 . S
C1335 C1336 1.400 . S
C1335 C1340 1.490 . S
C1336 H1326 0.930 . S
C1336 C1335 1.400 . S
C1336 C1339 1.386 . S
H1337 C1353 0.930 . S
H1338 C1354 0.931 . S
C1339 H1327 0.929 . S
C1339 C1333 1.390 . S
C1339 C1336 1.386 . S
C1340 C1335 1.490 . S
C1340 C1342 1.395 . S
C1340 C1343 1.403 . S
H1341 C1347 0.930 . S
C1342 H1328 0.930 . S
C1342 C1340 1.395 . S
C1342 C1345 1.403 1_655 S
C1343 C1340 1.403 . S
C1343 C1344 1.524 . S
C1343 C1347 1.400 1_655 S
C1344 H1329 0.960 . S
C1344 H1330 0.960 . S
C1344 H1331 0.960 . S
C1344 C1343 1.524 . S
C1345 C1342 1.403 1_455 S
C1345 C1346 1.392 . S
C1345 C1349 1.495 . S
C1346 C1345 1.392 . S
C1346 C1347 1.385 . S
C1346 C1348 1.478 . S
C1347 H1341 0.930 . S
C1347 C1343 1.400 1_455 S
C1347 C1346 1.385 . S
C1348 C1346 1.478 . S
C1348 C1350 1.381 . S
C1348 C1354 1.383 . S
C1349 C1345 1.495 . S
C1349 H1355 0.959 . S
C1349 H1356 0.961 . S
C1349 H1357 0.960 . S
C1350 C1348 1.381 . S
C1350 C1351 1.394 . S
C1350 H1358 0.930 . S
C1351 C1350 1.394 . S
C1351 C1352 1.383 . S
C1351 H1359 0.929 . S
C1352 C1351 1.383 . S
C1352 C1353 1.377 . S
C1353 H1337 0.930 . S
C1353 C1352 1.377 . S
C1353 C1354 1.379 . S
C1354 H1338 0.931 . S
C1354 C1348 1.383 . S
C1354 C1353 1.379 . S
H1355 C1349 0.959 . S
H1356 C1349 0.961 . S
H1357 C1349 0.960 . S
H1358 C1350 0.930 . S
H1359 C1351 0.929 . S
H1360 C1368 0.929 . S
H1361 C1370 0.930 . S
H1362 C1372 0.930 . S
H1363 C1375 0.929 . S
H1364 C1378 0.930 . S
H1365 C1380 0.960 . S
H1366 C1380 0.960 . S
H1367 C1380 0.960 . S
C1368 H1360 0.929 . S
C1368 C1369 1.377 . S
C1368 C1370 1.384 . S
C1369 C1368 1.377 . S
C1369 C1375 1.390 . S
C1370 H1361 0.930 . S
C1370 C1368 1.384 . S
C1370 C1371 1.372 . S
C1371 C1370 1.372 . S
C1371 C1372 1.400 . S
C1371 C1376 1.490 . S
C1372 H1362 0.930 . S
C1372 C1371 1.400 . S
C1372 C1375 1.386 . S
H1373 C1389 0.930 . S
H1374 C1390 0.931 . S
C1375 H1363 0.929 . S
C1375 C1369 1.390 . S
C1375 C1372 1.386 . S
C1376 C1371 1.490 . S
C1376 C1378 1.395 . S
C1376 C1379 1.403 . S
H1377 C1383 0.930 . S
C1378 H1364 0.930 . S
C1378 C1376 1.395 . S
C1378 C1381 1.403 1_655 S
C1379 C1376 1.403 . S
C1379 C1380 1.524 . S
C1379 C1383 1.400 1_655 S
C1380 H1365 0.960 . S
C1380 H1366 0.960 . S
C1380 H1367 0.960 . S
C1380 C1379 1.524 . S
C1381 C1378 1.403 1_455 S
C1381 C1382 1.392 . S
C1381 C1385 1.495 . S
C1382 C1381 1.392 . S
C1382 C1383 1.385 . S
C1382 C1384 1.478 . S
C1383 H1377 0.930 . S
C1383 C1379 1.400 1_455 S
C1383 C1382 1.385 . S
C1384 C1382 1.478 . S
C1384 C1386 1.381 . S
C1384 C1390 1.383 . S
C1385 C1381 1.495 . S
C1385 H1391 0.959 . S
C1385 H1392 0.961 . S
C1385 H1393 0.960 . S
C1386 C1384 1.381 . S
C1386 C1387 1.394 . S
C1386 H1394 0.930 . S
C1387 C1386 1.394 . S
C1387 C1388 1.383 . S
C1387 H1395 0.929 . S
C1388 C1387 1.383 . S
C1388 C1389 1.377 . S
C1389 H1373 0.930 . S
C1389 C1388 1.377 . S
C1389 C1390 1.379 . S
C1390 H1374 0.931 . S
C1390 C1384 1.383 . S
C1390 C1389 1.379 . S
H1391 C1385 0.959 . S
H1392 C1385 0.961 . S
H1393 C1385 0.960 . S
H1394 C1386 0.930 . S
H1395 C1387 0.929 . S
H1396 C1404 0.929 . S
H1397 C1406 0.930 . S
H1398 C1408 0.930 . S
H1399 C1411 0.929 . S
H1400 C1414 0.930 . S
H1401 C1416 0.960 . S
H1402 C1416 0.960 . S
H1403 C1416 0.960 . S
C1404 H1396 0.929 . S
C1404 C1405 1.377 . S
C1404 C1406 1.384 . S
C1405 C1404 1.377 . S
C1405 C1411 1.390 . S
C1406 H1397 0.930 . S
C1406 C1404 1.384 . S
C1406 C1407 1.372 . S
C1407 C1406 1.372 . S
C1407 C1408 1.400 . S
C1407 C1412 1.490 . S
C1408 H1398 0.930 . S
C1408 C1407 1.400 . S
C1408 C1411 1.386 . S
H1409 C1425 0.930 . S
H1410 C1426 0.931 . S
C1411 H1399 0.929 . S
C1411 C1405 1.390 . S
C1411 C1408 1.386 . S
C1412 C1407 1.490 . S
C1412 C1414 1.395 . S
C1412 C1415 1.403 . S
H1413 C1419 0.930 . S
C1414 H1400 0.930 . S
C1414 C1412 1.395 . S
C1414 C1417 1.403 . S
C1415 C1412 1.403 . S
C1415 C1416 1.524 . S
C1415 C1419 1.400 . S
C1416 H1401 0.960 . S
C1416 H1402 0.960 . S
C1416 H1403 0.960 . S
C1416 C1415 1.524 . S
C1417 C1414 1.403 . S
C1417 C1418 1.392 . S
C1417 C1421 1.495 . S
C1418 C1417 1.392 . S
C1418 C1419 1.385 . S
C1418 C1420 1.478 . S
C1419 H1413 0.930 . S
C1419 C1415 1.400 . S
C1419 C1418 1.385 . S
C1420 C1418 1.478 . S
C1420 C1422 1.381 . S
C1420 C1426 1.383 . S
C1421 C1417 1.495 . S
C1421 H1427 0.959 . S
C1421 H1428 0.961 . S
C1421 H1429 0.960 . S
C1422 C1420 1.381 . S
C1422 C1423 1.394 . S
C1422 H1430 0.930 . S
C1423 C1422 1.394 . S
C1423 C1424 1.383 . S
C1423 H1431 0.929 . S
C1424 C1423 1.383 . S
C1424 C1425 1.377 . S
C1425 H1409 0.930 . S
C1425 C1424 1.377 . S
C1425 C1426 1.379 . S
C1426 H1410 0.931 . S
C1426 C1420 1.383 . S
C1426 C1425 1.379 . S
H1427 C1421 0.959 . S
H1428 C1421 0.961 . S
H1429 C1421 0.960 . S
H1430 C1422 0.930 . S
H1431 C1423 0.929 . S
H1432 C1440 0.929 . S
H1433 C1442 0.930 . S
H1434 C1444 0.930 . S
H1435 C1447 0.929 . S
H1436 C1450 0.930 . S
H1437 C1452 0.960 . S
H1438 C1452 0.960 . S
H1439 C1452 0.960 . S
C1440 H1432 0.929 . S
C1440 C1441 1.377 . S
C1440 C1442 1.384 . S
C1441 C1440 1.377 . S
C1441 C1447 1.390 . S
C1442 H1433 0.930 . S
C1442 C1440 1.384 . S
C1442 C1443 1.372 . S
C1443 C1442 1.372 . S
C1443 C1444 1.400 . S
C1443 C1448 1.490 . S
C1444 H1434 0.930 . S
C1444 C1443 1.400 . S
C1444 C1447 1.386 . S
H1445 C1461 0.930 . S
H1446 C1462 0.931 . S
C1447 H1435 0.929 . S
C1447 C1441 1.390 . S
C1447 C1444 1.386 . S
C1448 C1443 1.490 . S
C1448 C1450 1.395 . S
C1448 C1451 1.403 . S
H1449 C1455 0.930 . S
C1450 H1436 0.930 . S
C1450 C1448 1.395 . S
C1450 C1453 1.403 1_455 S
C1451 C1448 1.403 . S
C1451 C1452 1.524 . S
C1451 C1455 1.400 1_455 S
C1452 H1437 0.960 . S
C1452 H1438 0.960 . S
C1452 H1439 0.960 . S
C1452 C1451 1.524 . S
C1453 C1450 1.403 1_655 S
C1453 C1454 1.392 . S
C1453 C1457 1.495 . S
C1454 C1453 1.392 . S
C1454 C1455 1.385 . S
C1454 C1456 1.478 . S
C1455 H1449 0.930 . S
C1455 C1451 1.400 1_655 S
C1455 C1454 1.385 . S
C1456 C1454 1.478 . S
C1456 C1458 1.381 . S
C1456 C1462 1.383 . S
C1457 C1453 1.495 . S
C1457 H1463 0.959 . S
C1457 H1464 0.961 . S
C1457 H1465 0.960 . S
C1458 C1456 1.381 . S
C1458 C1459 1.394 . S
C1458 H1466 0.930 . S
C1459 C1458 1.394 . S
C1459 C1460 1.383 . S
C1459 H1467 0.929 . S
C1460 C1459 1.383 . S
C1460 C1461 1.377 . S
C1461 H1445 0.930 . S
C1461 C1460 1.377 . S
C1461 C1462 1.379 . S
C1462 H1446 0.931 . S
C1462 C1456 1.383 . S
C1462 C1461 1.379 . S
H1463 C1457 0.959 . S
H1464 C1457 0.961 . S
H1465 C1457 0.960 . S
H1466 C1458 0.930 . S
H1467 C1459 0.929 . S
H1468 C1476 0.929 . S
H1469 C1478 0.930 . S
H1470 C1480 0.930 . S
H1471 C1483 0.929 . S
H1472 C1486 0.930 . S
H1473 C1488 0.960 . S
H1474 C1488 0.960 . S
H1475 C1488 0.960 . S
C1476 H1468 0.929 . S
C1476 C1477 1.377 . S
C1476 C1478 1.384 . S
C1477 C1476 1.377 . S
C1477 C1483 1.390 . S
C1478 H1469 0.930 . S
C1478 C1476 1.384 . S
C1478 C1479 1.372 . S
C1479 C1478 1.372 . S
C1479 C1480 1.400 . S
C1479 C1484 1.490 . S
C1480 H1470 0.930 . S
C1480 C1479 1.400 . S
C1480 C1483 1.386 . S
H1481 C1497 0.930 . S
H1482 C1498 0.931 . S
C1483 H1471 0.929 . S
C1483 C1477 1.390 . S
C1483 C1480 1.386 . S
C1484 C1479 1.490 . S
C1484 C1486 1.395 . S
C1484 C1487 1.403 . S
H1485 C1491 0.930 . S
C1486 H1472 0.930 . S
C1486 C1484 1.395 . S
C1486 C1489 1.403 . S
C1487 C1484 1.403 . S
C1487 C1488 1.524 . S
C1487 C1491 1.400 . S
C1488 H1473 0.960 . S
C1488 H1474 0.960 . S
C1488 H1475 0.960 . S
C1488 C1487 1.524 . S
C1489 C1486 1.403 . S
C1489 C1490 1.392 . S
C1489 C1493 1.495 . S
C1490 C1489 1.392 . S
C1490 C1491 1.385 . S
C1490 C1492 1.478 . S
C1491 H1485 0.930 . S
C1491 C1487 1.400 . S
C1491 C1490 1.385 . S
C1492 C1490 1.478 . S
C1492 C1494 1.381 . S
C1492 C1498 1.383 . S
C1493 C1489 1.495 . S
C1493 H1499 0.959 . S
C1493 H1500 0.961 . S
C1493 H1501 0.960 . S
C1494 C1492 1.381 . S
C1494 C1495 1.394 . S
C1494 H1502 0.930 . S
C1495 C1494 1.394 . S
C1495 C1496 1.383 . S
C1495 H1503 0.929 . S
C1496 C1495 1.383 . S
C1496 C1497 1.377 . S
C1497 H1481 0.930 . S
C1497 C1496 1.377 . S
C1497 C1498 1.379 . S
C1498 H1482 0.931 . S
C1498 C1492 1.383 . S
C1498 C1497 1.379 . S
H1499 C1493 0.959 . S
H1500 C1493 0.961 . S
H1501 C1493 0.960 . S
H1502 C1494 0.930 . S
H1503 C1495 0.929 . S
H1504 C1512 0.929 . S
H1505 C1514 0.930 . S
H1506 C1516 0.930 . S
H1507 C1519 0.929 . S
H1508 C1522 0.930 . S
H1509 C1524 0.960 . S
H1510 C1524 0.960 . S
H1511 C1524 0.960 . S
C1512 H1504 0.929 . S
C1512 C1513 1.377 . S
C1512 C1514 1.384 . S
C1513 C1512 1.377 . S
C1513 C1519 1.390 . S
C1514 H1505 0.930 . S
C1514 C1512 1.384 . S
C1514 C1515 1.372 . S
C1515 C1514 1.372 . S
C1515 C1516 1.400 . S
C1515 C1520 1.490 1_545 S
C1516 H1506 0.930 . S
C1516 C1515 1.400 . S
C1516 C1519 1.386 . S
H1517 C1533 0.930 . S
H1518 C1534 0.931 . S
C1519 H1507 0.929 . S
C1519 C1513 1.390 . S
C1519 C1516 1.386 . S
C1520 C1515 1.490 1_565 S
C1520 C1522 1.395 . S
C1520 C1523 1.403 . S
H1521 C1527 0.930 . S
C1522 H1508 0.930 . S
C1522 C1520 1.395 . S
C1522 C1525 1.403 . S
C1523 C1520 1.403 . S
C1523 C1524 1.524 . S
C1523 C1527 1.400 . S
C1524 H1509 0.960 . S
C1524 H1510 0.960 . S
C1524 H1511 0.960 . S
C1524 C1523 1.524 . S
C1525 C1522 1.403 . S
C1525 C1526 1.392 . S
C1525 C1529 1.495 . S
C1526 C1525 1.392 . S
C1526 C1527 1.385 . S
C1526 C1528 1.478 . S
C1527 H1521 0.930 . S
C1527 C1523 1.400 . S
C1527 C1526 1.385 . S
C1528 C1526 1.478 . S
C1528 C1530 1.381 . S
C1528 C1534 1.383 . S
C1529 C1525 1.495 . S
C1529 H1535 0.959 . S
C1529 H1536 0.961 . S
C1529 H1537 0.960 . S
C1530 C1528 1.381 . S
C1530 C1531 1.394 . S
C1530 H1538 0.930 . S
C1531 C1530 1.394 . S
C1531 C1532 1.383 . S
C1531 H1539 0.929 . S
C1532 C1531 1.383 . S
C1532 C1533 1.377 . S
C1533 H1517 0.930 . S
C1533 C1532 1.377 . S
C1533 C1534 1.379 . S
C1534 H1518 0.931 . S
C1534 C1528 1.383 . S
C1534 C1533 1.379 . S
H1535 C1529 0.959 . S
H1536 C1529 0.961 . S
H1537 C1529 0.960 . S
H1538 C1530 0.930 . S
H1539 C1531 0.929 . S
H1540 C1548 0.929 . S
H1541 C1550 0.930 . S
H1542 C1552 0.930 . S
H1543 C1555 0.929 . S
H1544 C1558 0.930 . S
H1545 C1560 0.960 . S
H1546 C1560 0.960 1_565 S
H1547 C1560 0.960 . S
C1548 H1540 0.929 . S
C1548 C1549 1.377 . S
C1548 C1550 1.384 . S
C1549 C1548 1.377 . S
C1549 C1555 1.390 . S
C1550 H1541 0.930 . S
C1550 C1548 1.384 . S
C1550 C1551 1.372 . S
C1551 C1550 1.372 . S
C1551 C1552 1.400 . S
C1551 C1556 1.490 1_565 S
C1552 H1542 0.930 . S
C1552 C1551 1.400 . S
C1552 C1555 1.386 . S
H1553 C1569 0.930 . S
H1554 C1570 0.931 . S
C1555 H1543 0.929 . S
C1555 C1549 1.390 . S
C1555 C1552 1.386 . S
C1556 C1551 1.490 1_545 S
C1556 C1558 1.395 . S
C1556 C1559 1.403 . S
H1557 C1563 0.930 . S
C1558 H1544 0.930 . S
C1558 C1556 1.395 . S
C1558 C1561 1.403 . S
C1559 C1556 1.403 . S
C1559 C1560 1.524 . S
C1559 C1563 1.400 . S
C1560 H1545 0.960 . S
C1560 H1546 0.960 1_545 S
C1560 H1547 0.960 . S
C1560 C1559 1.524 . S
C1561 C1558 1.403 . S
C1561 C1562 1.392 . S
C1561 C1565 1.495 . S
C1562 C1561 1.392 . S
C1562 C1563 1.385 . S
C1562 C1564 1.478 . S
C1563 H1557 0.930 . S
C1563 C1559 1.400 . S
C1563 C1562 1.385 . S
C1564 C1562 1.478 . S
C1564 C1566 1.381 . S
C1564 C1570 1.383 . S
C1565 C1561 1.495 . S
C1565 H1571 0.959 . S
C1565 H1572 0.961 . S
C1565 H1573 0.960 . S
C1566 C1564 1.381 . S
C1566 C1567 1.394 . S
C1566 H1574 0.930 . S
C1567 C1566 1.394 . S
C1567 C1568 1.383 . S
C1567 H1575 0.929 . S
C1568 C1567 1.383 . S
C1568 C1569 1.377 . S
C1569 H1553 0.930 . S
C1569 C1568 1.377 . S
C1569 C1570 1.379 . S
C1570 H1554 0.931 . S
C1570 C1564 1.383 . S
C1570 C1569 1.379 . S
H1571 C1565 0.959 . S
H1572 C1565 0.961 . S
H1573 C1565 0.960 . S
H1574 C1566 0.930 . S
H1575 C1567 0.929 . S
H1576 C1584 0.929 . S
H1577 C1586 0.930 . S
H1578 C1588 0.930 . S
H1579 C1591 0.929 . S
H1580 C1594 0.930 . S
H1581 C1596 0.960 . S
H1582 C1596 0.960 . S
H1583 C1596 0.960 . S
C1584 H1576 0.929 . S
C1584 C1585 1.377 . S
C1584 C1586 1.384 . S
C1585 C1584 1.377 . S
C1585 C1591 1.390 . S
C1586 H1577 0.930 . S
C1586 C1584 1.384 . S
C1586 C1587 1.372 . S
C1587 C1586 1.372 . S
C1587 C1588 1.400 . S
C1587 C1592 1.490 . S
C1588 H1578 0.930 . S
C1588 C1587 1.400 . S
C1588 C1591 1.386 . S
H1589 C1605 0.930 . S
H1590 C1606 0.931 . S
C1591 H1579 0.929 . S
C1591 C1585 1.390 . S
C1591 C1588 1.386 . S
C1592 C1587 1.490 . S
C1592 C1594 1.395 . S
C1592 C1595 1.403 . S
H1593 C1599 0.930 . S
C1594 H1580 0.930 . S
C1594 C1592 1.395 . S
C1594 C1597 1.403 . S
C1595 C1592 1.403 . S
C1595 C1596 1.524 . S
C1595 C1599 1.400 . S
C1596 H1581 0.960 . S
C1596 H1582 0.960 . S
C1596 H1583 0.960 . S
C1596 C1595 1.524 . S
C1597 C1594 1.403 . S
C1597 C1598 1.392 . S
C1597 C1601 1.495 . S
C1598 C1597 1.392 . S
C1598 C1599 1.385 . S
C1598 C1600 1.478 1_545 S
C1599 H1593 0.930 . S
C1599 C1595 1.400 . S
C1599 C1598 1.385 . S
C1600 C1598 1.478 1_565 S
C1600 C1602 1.381 . S
C1600 C1606 1.383 . S
C1601 C1597 1.495 . S
C1601 H1607 0.959 . S
C1601 H1608 0.961 . S
C1601 H1609 0.960 . S
C1602 C1600 1.381 . S
C1602 C1603 1.394 . S
C1602 H1610 0.930 . S
C1603 C1602 1.394 . S
C1603 C1604 1.383 . S
C1603 H1611 0.929 . S
C1604 C1603 1.383 . S
C1604 C1605 1.377 . S
C1605 H1589 0.930 . S
C1605 C1604 1.377 . S
C1605 C1606 1.379 . S
C1606 H1590 0.931 . S
C1606 C1600 1.383 . S
C1606 C1605 1.379 . S
H1607 C1601 0.959 . S
H1608 C1601 0.961 . S
H1609 C1601 0.960 . S
H1610 C1602 0.930 . S
H1611 C1603 0.929 . S
H1612 C1620 0.929 . S
H1613 C1622 0.930 . S
H1614 C1624 0.930 . S
H1615 C1627 0.929 . S
H1616 C1630 0.930 . S
H1617 C1632 0.960 . S
H1618 C1632 0.960 . S
H1619 C1632 0.960 . S
C1620 H1612 0.929 . S
C1620 C1621 1.377 . S
C1620 C1622 1.384 . S
C1621 C1620 1.377 . S
C1621 C1627 1.390 . S
C1622 H1613 0.930 . S
C1622 C1620 1.384 . S
C1622 C1623 1.372 . S
C1623 C1622 1.372 . S
C1623 C1624 1.400 . S
C1623 C1628 1.490 . S
C1624 H1614 0.930 . S
C1624 C1623 1.400 . S
C1624 C1627 1.386 . S
H1625 C1641 0.930 . S
H1626 C1642 0.931 1_565 S
C1627 H1615 0.929 . S
C1627 C1621 1.390 . S
C1627 C1624 1.386 . S
C1628 C1623 1.490 . S
C1628 C1630 1.395 . S
C1628 C1631 1.403 . S
H1629 C1635 0.930 . S
C1630 H1616 0.930 . S
C1630 C1628 1.395 . S
C1630 C1633 1.403 . S
C1631 C1628 1.403 . S
C1631 C1632 1.524 . S
C1631 C1635 1.400 . S
C1632 H1617 0.960 . S
C1632 H1618 0.960 . S
C1632 H1619 0.960 . S
C1632 C1631 1.524 . S
C1633 C1630 1.403 . S
C1633 C1634 1.392 . S
C1633 C1637 1.495 . S
C1634 C1633 1.392 . S
C1634 C1635 1.385 . S
C1634 C1636 1.478 1_565 S
C1635 H1629 0.930 . S
C1635 C1631 1.400 . S
C1635 C1634 1.385 . S
C1636 C1634 1.478 1_545 S
C1636 C1638 1.381 . S
C1636 C1642 1.383 . S
C1637 C1633 1.495 . S
C1637 H1643 0.959 . S
C1637 H1644 0.961 . S
C1637 H1645 0.988 . S
C1638 C1636 1.381 . S
C1638 C1639 1.394 . S
C1638 H1646 0.930 . S
C1639 C1638 1.394 . S
C1639 C1640 1.383 . S
C1639 H1647 0.929 . S
C1640 C1639 1.383 . S
C1640 C1641 1.377 . S
C1641 H1625 0.930 . S
C1641 C1640 1.377 . S
C1641 C1642 1.379 . S
C1642 H1626 0.931 1_545 S
C1642 C1636 1.383 . S
C1642 C1641 1.379 . S
H1643 C1637 0.959 . S
H1644 C1637 0.961 . S
H1645 C1637 0.988 . S
H1646 C1638 0.930 . S
H1647 C1639 0.929 . S
H1648 C1656 0.929 . S
H1649 C1658 0.930 . S
H1650 C1660 0.930 . S
H1651 C1663 0.929 . S
H1652 C1666 0.930 . S
H1653 C1668 0.960 . S
H1654 C1668 0.960 . S
H1655 C1668 0.960 . S
C1656 H1648 0.929 . S
C1656 C1657 1.377 . S
C1656 C1658 1.384 . S
C1657 C1656 1.377 . S
C1657 C1663 1.390 . S
C1658 H1649 0.930 . S
C1658 C1656 1.384 . S
C1658 C1659 1.372 . S
C1659 C1658 1.372 . S
C1659 C1660 1.400 . S
C1659 C1664 1.490 . S
C1660 H1650 0.930 . S
C1660 C1659 1.400 . S
C1660 C1663 1.386 . S
H1661 C1677 0.930 . S
H1662 C1678 0.931 . S
C1663 H1651 0.929 . S
C1663 C1657 1.390 . S
C1663 C1660 1.386 . S
C1664 C1659 1.490 . S
C1664 C1666 1.395 . S
C1664 C1667 1.403 . S
H1665 C1671 0.930 . S
C1666 H1652 0.930 . S
C1666 C1664 1.395 . S
C1666 C1669 1.403 . S
C1667 C1664 1.403 . S
C1667 C1668 1.524 . S
C1667 C1671 1.400 . S
C1668 H1653 0.960 . S
C1668 H1654 0.960 . S
C1668 H1655 0.960 . S
C1668 C1667 1.524 . S
C1669 C1666 1.403 . S
C1669 C1670 1.392 . S
C1669 C1673 1.495 . S
C1670 C1669 1.392 . S
C1670 C1671 1.385 . S
C1670 C1672 1.478 1_545 S
C1671 H1665 0.930 . S
C1671 C1667 1.400 . S
C1671 C1670 1.385 . S
C1672 C1670 1.478 1_565 S
C1672 C1674 1.381 . S
C1672 C1678 1.383 . S
C1673 C1669 1.495 . S
C1673 H1679 0.959 . S
C1673 H1680 0.961 . S
C1673 H1681 0.960 . S
C1674 C1672 1.381 . S
C1674 C1675 1.394 . S
C1674 H1682 0.930 . S
C1675 C1674 1.394 . S
C1675 C1676 1.383 . S
C1675 H1683 0.929 . S
C1676 C1675 1.383 . S
C1676 C1677 1.377 . S
C1677 H1661 0.930 . S
C1677 C1676 1.377 . S
C1677 C1678 1.379 . S
C1678 H1662 0.931 . S
C1678 C1672 1.383 . S
C1678 C1677 1.379 . S
H1679 C1673 0.959 . S
H1680 C1673 0.961 . S
H1681 C1673 0.960 . S
H1682 C1674 0.930 . S
H1683 C1675 0.929 . S
H1684 C1692 0.929 . S
H1685 C1694 0.930 . S
H1686 C1696 0.930 . S
H1687 C1699 0.929 . S
H1688 C1702 0.930 . S
H1689 C1704 0.960 . S
H1690 C1704 0.960 . S
H1691 C1704 0.960 . S
C1692 H1684 0.929 . S
C1692 C1693 1.377 . S
C1692 C1694 1.384 . S
C1693 C1692 1.377 . S
C1693 C1699 1.390 . S
C1694 H1685 0.930 . S
C1694 C1692 1.384 . S
C1694 C1695 1.372 . S
C1695 C1694 1.372 . S
C1695 C1696 1.400 . S
C1695 C1700 1.490 1_545 S
C1696 H1686 0.930 . S
C1696 C1695 1.400 . S
C1696 C1699 1.386 . S
H1697 C1713 0.930 . S
H1698 C1714 0.931 . S
C1699 H1687 0.929 . S
C1699 C1693 1.390 . S
C1699 C1696 1.386 . S
C1700 C1695 1.490 1_565 S
C1700 C1702 1.395 . S
C1700 C1703 1.403 . S
H1701 C1707 0.930 . S
C1702 H1688 0.930 . S
C1702 C1700 1.395 . S
C1702 C1705 1.403 . S
C1703 C1700 1.403 . S
C1703 C1704 1.524 . S
C1703 C1707 1.400 . S
C1704 H1689 0.960 . S
C1704 H1690 0.960 . S
C1704 H1691 0.960 . S
C1704 C1703 1.524 . S
C1705 C1702 1.403 . S
C1705 C1706 1.392 . S
C1705 C1709 1.495 . S
C1706 C1705 1.392 . S
C1706 C1707 1.385 . S
C1706 C1708 1.478 . S
C1707 H1701 0.930 . S
C1707 C1703 1.400 . S
C1707 C1706 1.385 . S
C1708 C1706 1.478 . S
C1708 C1710 1.381 . S
C1708 C1714 1.383 . S
C1709 C1705 1.495 . S
C1709 H1715 0.959 . S
C1709 H1716 0.961 . S
C1709 H1717 0.960 . S
C1710 C1708 1.381 . S
C1710 C1711 1.394 . S
C1710 H1718 0.930 . S
C1711 C1710 1.394 . S
C1711 C1712 1.383 . S
C1711 H1719 0.929 . S
C1712 C1711 1.383 . S
C1712 C1713 1.377 . S
C1713 H1697 0.930 . S
C1713 C1712 1.377 . S
C1713 C1714 1.379 . S
C1714 H1698 0.931 . S
C1714 C1708 1.383 . S
C1714 C1713 1.379 . S
H1715 C1709 0.959 . S
H1716 C1709 0.961 . S
H1717 C1709 0.960 . S
H1718 C1710 0.930 . S
H1719 C1711 0.929 . S
H1720 C1728 0.929 . S
H1721 C1730 0.930 . S
H1722 C1732 0.950 . S
H1723 C1735 0.929 . S
H1724 C1738 0.930 . S
H1725 C1740 0.960 . S
H1726 C1740 0.960 . S
H1727 C1740 0.960 . S
C1728 H1720 0.929 . S
C1728 C1729 1.377 . S
C1728 C1730 1.384 . S
C1729 C1728 1.377 . S
C1729 C1735 1.390 . S
C1730 H1721 0.930 . S
C1730 C1728 1.384 . S
C1730 C1731 1.372 . S
C1731 C1730 1.372 . S
C1731 C1732 1.400 . S
C1731 C1736 1.490 1_545 S
C1732 H1722 0.950 . S
C1732 C1731 1.400 . S
C1732 C1735 1.386 . S
H1733 C1749 0.930 . S
H1734 C1750 0.931 . S
C1735 H1723 0.929 . S
C1735 C1729 1.390 . S
C1735 C1732 1.386 . S
C1736 C1731 1.490 1_565 S
C1736 C1738 1.395 . S
C1736 C1739 1.403 . S
H1737 C1743 0.930 . S
C1738 H1724 0.930 . S
C1738 C1736 1.395 . S
C1738 C1741 1.403 . S
C1739 C1736 1.403 . S
C1739 C1740 1.524 . S
C1739 C1743 1.400 . S
C1740 H1725 0.960 . S
C1740 H1726 0.960 . S
C1740 H1727 0.960 . S
C1740 C1739 1.524 . S
C1741 C1738 1.403 . S
C1741 C1742 1.392 . S
C1741 C1745 1.495 . S
C1742 C1741 1.392 . S
C1742 C1743 1.385 . S
C1742 C1744 1.478 . S
C1743 H1737 0.930 . S
C1743 C1739 1.400 . S
C1743 C1742 1.385 . S
C1744 C1742 1.478 . S
C1744 C1746 1.381 . S
C1744 C1750 1.383 . S
C1745 C1741 1.495 . S
C1745 H1751 0.959 . S
C1745 H1752 0.961 . S
C1745 H1753 0.960 . S
C1746 C1744 1.381 . S
C1746 C1747 1.394 . S
C1746 H1754 0.930 . S
C1747 C1746 1.394 . S
C1747 C1748 1.383 . S
C1747 H1755 0.929 . S
C1748 C1747 1.383 . S
C1748 C1749 1.377 . S
C1749 H1733 0.930 . S
C1749 C1748 1.377 . S
C1749 C1750 1.379 . S
C1750 H1734 0.931 . S
C1750 C1744 1.383 . S
C1750 C1749 1.379 . S
H1751 C1745 0.959 . S
H1752 C1745 0.961 . S
H1753 C1745 0.960 . S
H1754 C1746 0.930 . S
H1755 C1747 0.929 . S
H1756 C1764 0.929 . S
H1757 C1766 0.930 . S
H1758 C1768 0.930 . S
H1759 C1771 0.929 . S
H1760 C1774 0.930 . S
H1761 C1776 0.960 . S
H1762 C1776 0.960 . S
H1763 C1776 0.960 . S
C1764 H1756 0.929 . S
C1764 C1765 1.377 . S
C1764 C1766 1.384 . S
C1765 C1764 1.377 . S
C1765 C1771 1.390 . S
C1766 H1757 0.930 . S
C1766 C1764 1.384 . S
C1766 C1767 1.372 . S
C1767 C1766 1.372 . S
C1767 C1768 1.400 . S
C1767 C1772 1.490 . S
C1768 H1758 0.930 . S
C1768 C1767 1.400 . S
C1768 C1771 1.386 . S
H1769 C1785 0.930 . S
H1770 C1786 0.931 . S
C1771 H1759 0.929 . S
C1771 C1765 1.390 . S
C1771 C1768 1.386 . S
C1772 C1767 1.490 . S
C1772 C1774 1.395 . S
C1772 C1775 1.403 . S
H1773 C1779 0.930 . S
C1774 H1760 0.930 . S
C1774 C1772 1.395 . S
C1774 C1777 1.403 . S
C1775 C1772 1.403 . S
C1775 C1776 1.524 . S
C1775 C1779 1.400 . S
C1776 H1761 0.960 . S
C1776 H1762 0.960 . S
C1776 H1763 0.960 . S
C1776 C1775 1.524 . S
C1777 C1774 1.403 . S
C1777 C1778 1.392 . S
C1777 C1781 1.495 . S
C1778 C1777 1.392 . S
C1778 C1779 1.385 . S
C1778 C1780 1.478 1_545 S
C1779 H1773 0.930 . S
C1779 C1775 1.400 . S
C1779 C1778 1.385 . S
C1780 C1778 1.478 1_565 S
C1780 C1782 1.381 . S
C1780 C1786 1.383 . S
C1781 C1777 1.495 . S
C1781 H1787 0.959 . S
C1781 H1788 0.961 . S
C1781 H1789 0.960 . S
C1782 C1780 1.381 . S
C1782 C1783 1.394 . S
C1782 H1790 0.947 . S
C1783 C1782 1.394 . S
C1783 C1784 1.383 . S
C1783 H1791 0.929 . S
C1784 C1783 1.383 . S
C1784 C1785 1.377 . S
C1785 H1769 0.930 . S
C1785 C1784 1.377 . S
C1785 C1786 1.379 . S
C1786 H1770 0.931 . S
C1786 C1780 1.383 . S
C1786 C1785 1.379 . S
H1787 C1781 0.959 . S
H1788 C1781 0.961 . S
H1789 C1781 0.960 . S
H1790 C1782 0.947 . S
H1791 C1783 0.929 . S
H1792 C1800 0.929 . S
H1793 C1802 0.930 . S
H1794 C1804 0.930 . S
H1795 C1807 0.929 . S
H1796 C1810 0.930 . S
H1797 C1812 0.960 . S
H1798 C1812 0.960 . S
H1799 C1812 0.960 . S
C1800 H1792 0.929 . S
C1800 C1801 1.377 . S
C1800 C1802 1.384 . S
C1801 C1800 1.377 . S
C1801 C1807 1.390 . S
C1802 H1793 0.930 . S
C1802 C1800 1.384 . S
C1802 C1803 1.372 . S
C1803 C1802 1.372 . S
C1803 C1804 1.400 . S
C1803 C1808 1.490 . S
C1804 H1794 0.930 . S
C1804 C1803 1.400 . S
C1804 C1807 1.386 . S
H1805 C1821 0.930 . S
H1806 C1822 0.931 . S
C1807 H1795 0.929 . S
C1807 C1801 1.390 . S
C1807 C1804 1.386 . S
C1808 C1803 1.490 . S
C1808 C1810 1.395 . S
C1808 C1811 1.403 . S
H1809 C1815 0.930 . S
C1810 H1796 0.930 . S
C1810 C1808 1.395 . S
C1810 C1813 1.403 . S
C1811 C1808 1.403 . S
C1811 C1812 1.524 . S
C1811 C1815 1.400 . S
C1812 H1797 0.960 . S
C1812 H1798 0.960 . S
C1812 H1799 0.960 . S
C1812 C1811 1.524 . S
C1813 C1810 1.403 . S
C1813 C1814 1.392 . S
C1813 C1817 1.495 . S
C1814 C1813 1.392 . S
C1814 C1815 1.385 . S
C1814 C1816 1.478 . S
C1815 H1809 0.930 . S
C1815 C1811 1.400 . S
C1815 C1814 1.385 . S
C1816 C1814 1.478 . S
C1816 C1818 1.381 . S
C1816 C1822 1.383 . S
C1817 C1813 1.495 . S
C1817 H1823 0.959 . S
C1817 H1824 0.961 . S
C1817 H1825 0.960 . S
C1818 C1816 1.381 . S
C1818 C1819 1.394 . S
C1818 H1826 0.930 . S
C1819 C1818 1.394 . S
C1819 C1820 1.383 . S
C1819 H1827 0.929 . S
C1820 C1819 1.383 . S
C1820 C1821 1.377 . S
C1821 H1805 0.930 . S
C1821 C1820 1.377 . S
C1821 C1822 1.379 . S
C1822 H1806 0.931 . S
C1822 C1816 1.383 . S
C1822 C1821 1.379 . S
H1823 C1817 0.959 . S
H1824 C1817 0.961 . S
H1825 C1817 0.960 . S
H1826 C1818 0.930 . S
H1827 C1819 0.929 . S
H1828 C1836 0.929 . S
H1829 C1838 0.930 . S
H1830 C1840 0.930 . S
H1831 C1843 0.929 . S
H1832 C1846 0.930 . S
H1833 C1848 0.960 . S
H1834 C1848 0.960 . S
H1835 C1848 0.960 . S
C1836 H1828 0.929 . S
C1836 C1837 1.377 . S
C1836 C1838 1.384 . S
C1837 C1836 1.377 . S
C1837 C1843 1.390 . S
C1838 H1829 0.930 . S
C1838 C1836 1.384 . S
C1838 C1839 1.372 . S
C1839 C1838 1.372 . S
C1839 C1840 1.400 . S
C1839 C1844 1.490 . S
C1840 H1830 0.930 . S
C1840 C1839 1.400 . S
C1840 C1843 1.386 . S
H1841 C1857 0.930 . S
H1842 C1858 0.931 . S
C1843 H1831 0.929 . S
C1843 C1837 1.390 . S
C1843 C1840 1.386 . S
C1844 C1839 1.490 . S
C1844 C1846 1.395 . S
C1844 C1847 1.403 . S
H1845 C1851 0.930 . S
C1846 H1832 0.930 . S
C1846 C1844 1.395 . S
C1846 C1849 1.403 . S
C1847 C1844 1.403 . S
C1847 C1848 1.524 . S
C1847 C1851 1.400 . S
C1848 H1833 0.960 . S
C1848 H1834 0.960 . S
C1848 H1835 0.960 . S
C1848 C1847 1.524 . S
C1849 C1846 1.403 . S
C1849 C1850 1.392 . S
C1849 C1853 1.495 . S
C1850 C1849 1.392 . S
C1850 C1851 1.385 . S
C1850 C1852 1.478 . S
C1851 H1845 0.930 . S
C1851 C1847 1.400 . S
C1851 C1850 1.385 . S
C1852 C1850 1.478 . S
C1852 C1854 1.381 . S
C1852 C1858 1.383 . S
C1853 C1849 1.495 . S
C1853 H1859 0.959 . S
C1853 H1860 0.961 . S
C1853 H1861 0.960 . S
C1854 C1852 1.381 . S
C1854 C1855 1.394 . S
C1854 H1862 0.930 . S
C1855 C1854 1.394 . S
C1855 C1856 1.383 . S
C1855 H1863 0.929 . S
C1856 C1855 1.383 . S
C1856 C1857 1.377 . S
C1857 H1841 0.930 . S
C1857 C1856 1.377 . S
C1857 C1858 1.379 . S
C1858 H1842 0.931 . S
C1858 C1852 1.383 . S
C1858 C1857 1.379 . S
H1859 C1853 0.959 . S
H1860 C1853 0.961 . S
H1861 C1853 0.960 . S
H1862 C1854 0.930 . S
H1863 C1855 0.929 . S
H1864 C1872 0.929 . S
H1865 C1874 0.930 . S
H1866 C1876 0.930 . S
H1867 C1879 0.929 . S
H1868 C1882 0.930 . S
H1869 C1884 0.960 . S
H1870 C1884 0.960 . S
H1871 C1884 0.960 . S
C1872 H1864 0.929 . S
C1872 C1873 1.377 . S
C1872 C1874 1.384 . S
C1873 C1872 1.377 . S
C1873 C1879 1.390 . S
C1874 H1865 0.930 . S
C1874 C1872 1.384 . S
C1874 C1875 1.372 . S
C1875 C1874 1.372 . S
C1875 C1876 1.400 . S
C1875 C1880 1.490 . S
C1876 H1866 0.930 . S
C1876 C1875 1.400 . S
C1876 C1879 1.386 . S
H1877 C1893 0.930 . S
H1878 C1894 0.931 . S
C1879 H1867 0.929 . S
C1879 C1873 1.390 . S
C1879 C1876 1.386 . S
C1880 C1875 1.490 . S
C1880 C1882 1.395 . S
C1880 C1883 1.403 . S
H1881 C1887 0.930 . S
C1882 H1868 0.930 . S
C1882 C1880 1.395 . S
C1882 C1885 1.403 . S
C1883 C1880 1.403 . S
C1883 C1884 1.524 . S
C1883 C1887 1.400 . S
C1884 H1869 0.960 . S
C1884 H1870 0.960 . S
C1884 H1871 0.960 . S
C1884 C1883 1.524 . S
C1885 C1882 1.403 . S
C1885 C1886 1.392 . S
C1885 C1889 1.495 . S
C1886 C1885 1.392 . S
C1886 C1887 1.385 . S
C1886 C1888 1.478 . S
C1887 H1881 0.930 . S
C1887 C1883 1.400 . S
C1887 C1886 1.385 . S
C1888 C1886 1.478 . S
C1888 C1890 1.381 . S
C1888 C1894 1.383 . S
C1889 C1885 1.495 . S
C1889 H1895 0.959 . S
C1889 H1896 0.961 . S
C1889 H1897 0.960 . S
C1890 C1888 1.381 . S
C1890 C1891 1.394 . S
C1890 H1898 0.930 . S
C1891 C1890 1.394 . S
C1891 C1892 1.383 . S
C1891 H1899 0.929 . S
C1892 C1891 1.383 . S
C1892 C1893 1.377 . S
C1893 H1877 0.930 . S
C1893 C1892 1.377 . S
C1893 C1894 1.379 . S
C1894 H1878 0.931 . S
C1894 C1888 1.383 . S
C1894 C1893 1.379 . S
H1895 C1889 0.959 . S
H1896 C1889 0.961 . S
H1897 C1889 0.960 . S
H1898 C1890 0.930 . S
H1899 C1891 0.929 . S
H1900 C1908 0.929 . S
H1901 C1910 0.930 . S
H1902 C1912 0.930 . S
H1903 C1915 0.929 . S
H1904 C1918 0.930 . S
H1905 C1920 0.960 . S
H1906 C1920 0.960 . S
H1907 C1920 0.960 . S
C1908 H1900 0.929 . S
C1908 C1909 1.377 . S
C1908 C1910 1.384 . S
C1909 C1908 1.377 . S
C1909 C1915 1.390 . S
C1910 H1901 0.930 . S
C1910 C1908 1.384 . S
C1910 C1911 1.372 . S
C1911 C1910 1.372 . S
C1911 C1912 1.400 . S
C1911 C1916 1.490 . S
C1912 H1902 0.930 . S
C1912 C1911 1.400 . S
C1912 C1915 1.386 . S
H1913 C1929 0.930 . S
H1914 C1930 0.931 . S
C1915 H1903 0.929 . S
C1915 C1909 1.390 . S
C1915 C1912 1.386 . S
C1916 C1911 1.490 . S
C1916 C1918 1.395 . S
C1916 C1919 1.403 . S
H1917 C1923 0.930 . S
C1918 H1904 0.930 . S
C1918 C1916 1.395 . S
C1918 C1921 1.403 . S
C1919 C1916 1.403 . S
C1919 C1920 1.524 . S
C1919 C1923 1.400 . S
C1920 H1905 0.960 . S
C1920 H1906 0.960 . S
C1920 H1907 0.960 . S
C1920 C1919 1.524 . S
C1921 C1918 1.403 . S
C1921 C1922 1.392 . S
C1921 C1925 1.495 . S
C1922 C1921 1.392 . S
C1922 C1923 1.385 . S
C1922 C1924 1.478 . S
C1923 H1917 0.930 . S
C1923 C1919 1.400 . S
C1923 C1922 1.385 . S
C1924 C1922 1.478 . S
C1924 C1926 1.381 . S
C1924 C1930 1.383 . S
C1925 C1921 1.495 . S
C1925 H1931 0.959 . S
C1925 H1932 0.961 . S
C1925 H1933 0.960 . S
C1926 C1924 1.381 . S
C1926 C1927 1.394 . S
C1926 H1934 0.930 . S
C1927 C1926 1.394 . S
C1927 C1928 1.383 . S
C1927 H1935 0.929 . S
C1928 C1927 1.383 . S
C1928 C1929 1.377 . S
C1929 H1913 0.930 . S
C1929 C1928 1.377 . S
C1929 C1930 1.379 . S
C1930 H1914 0.931 . S
C1930 C1924 1.383 . S
C1930 C1929 1.379 . S
H1931 C1925 0.959 . S
H1932 C1925 0.961 . S
H1933 C1925 0.960 . S
H1934 C1926 0.930 . S
H1935 C1927 0.929 . S
H1936 C1944 0.929 . S
H1937 C1946 0.930 . S
H1938 C1948 0.930 . S
H1939 C1951 0.929 . S
H1940 C1954 0.930 . S
H1941 C1956 0.960 . S
H1942 C1956 0.960 . S
H1943 C1956 0.960 . S
C1944 H1936 0.929 . S
C1944 C1945 1.377 . S
C1944 C1946 1.384 . S
C1945 C1944 1.377 . S
C1945 C1951 1.390 . S
C1946 H1937 0.930 . S
C1946 C1944 1.384 . S
C1946 C1947 1.372 . S
C1947 C1946 1.372 . S
C1947 C1948 1.400 . S
C1947 C1952 1.490 . S
C1948 H1938 0.930 . S
C1948 C1947 1.400 . S
C1948 C1951 1.386 . S
H1949 C1965 0.930 . S
H1950 C1966 0.931 . S
C1951 H1939 0.929 . S
C1951 C1945 1.390 . S
C1951 C1948 1.386 . S
C1952 C1947 1.490 . S
C1952 C1954 1.395 . S
C1952 C1955 1.403 . S
H1953 C1959 0.930 . S
C1954 H1940 0.930 . S
C1954 C1952 1.395 . S
C1954 C1957 1.403 . S
C1955 C1952 1.403 . S
C1955 C1956 1.524 . S
C1955 C1959 1.400 . S
C1956 H1941 0.960 . S
C1956 H1942 0.960 . S
C1956 H1943 0.960 . S
C1956 C1955 1.524 . S
C1957 C1954 1.403 . S
C1957 C1958 1.392 . S
C1957 C1961 1.495 . S
C1958 C1957 1.392 . S
C1958 C1959 1.385 . S
C1958 C1960 1.478 . S
C1959 H1953 0.930 . S
C1959 C1955 1.400 . S
C1959 C1958 1.385 . S
C1960 C1958 1.478 . S
C1960 C1962 1.381 . S
C1960 C1966 1.383 . S
C1961 C1957 1.495 . S
C1961 H1967 0.959 . S
C1961 H1968 0.961 . S
C1961 H1969 0.960 . S
C1962 C1960 1.381 . S
C1962 C1963 1.394 . S
C1962 H1970 0.930 . S
C1963 C1962 1.394 . S
C1963 C1964 1.383 . S
C1963 H1971 0.929 . S
C1964 C1963 1.383 . S
C1964 C1965 1.377 . S
C1965 H1949 0.930 . S
C1965 C1964 1.377 . S
C1965 C1966 1.379 . S
C1966 H1950 0.931 . S
C1966 C1960 1.383 . S
C1966 C1965 1.379 . S
H1967 C1961 0.959 . S
H1968 C1961 0.961 . S
H1969 C1961 0.960 . S
H1970 C1962 0.930 . S
H1971 C1963 0.929 . S
H1972 C1980 0.929 . S
H1973 C1982 0.930 . S
H1974 C1984 0.930 . S
H1975 C1987 0.929 . S
H1976 C1990 0.930 . S
H1977 C1992 0.960 . S
H1978 C1992 0.960 . S
H1979 C1992 0.960 . S
C1980 H1972 0.929 . S
C1980 C1981 1.377 . S
C1980 C1982 1.384 . S
C1981 C1980 1.377 . S
C1981 C1987 1.390 . S
C1982 H1973 0.930 . S
C1982 C1980 1.384 . S
C1982 C1983 1.372 . S
C1983 C1982 1.372 . S
C1983 C1984 1.400 . S
C1983 C1988 1.490 . S
C1984 H1974 0.930 . S
C1984 C1983 1.400 . S
C1984 C1987 1.386 . S
H1985 C2001 0.930 . S
H1986 C2002 0.931 . S
C1987 H1975 0.929 . S
C1987 C1981 1.390 . S
C1987 C1984 1.386 . S
C1988 C1983 1.490 . S
C1988 C1990 1.395 . S
C1988 C1991 1.403 . S
H1989 C1995 0.930 . S
C1990 H1976 0.930 . S
C1990 C1988 1.395 . S
C1990 C1993 1.403 . S
C1991 C1988 1.403 . S
C1991 C1992 1.524 . S
C1991 C1995 1.400 . S
C1992 H1977 0.960 . S
C1992 H1978 0.960 . S
C1992 H1979 0.960 . S
C1992 C1991 1.524 . S
C1993 C1990 1.403 . S
C1993 C1994 1.392 . S
C1993 C1997 1.495 . S
C1994 C1993 1.392 . S
C1994 C1995 1.385 . S
C1994 C1996 1.478 . S
C1995 H1989 0.930 . S
C1995 C1991 1.400 . S
C1995 C1994 1.385 . S
C1996 C1994 1.478 . S
C1996 C1998 1.381 . S
C1996 C2002 1.383 . S
C1997 C1993 1.495 . S
C1997 H2003 0.959 . S
C1997 H2004 0.961 . S
C1997 H2005 0.960 . S
C1998 C1996 1.381 . S
C1998 C1999 1.394 . S
C1998 H2006 0.930 . S
C1999 C1998 1.394 . S
C1999 C2000 1.383 . S
C1999 H2007 0.929 . S
C2000 C1999 1.383 . S
C2000 C2001 1.377 . S
C2001 H1985 0.930 . S
C2001 C2000 1.377 . S
C2001 C2002 1.379 . S
C2002 H1986 0.931 . S
C2002 C1996 1.383 . S
C2002 C2001 1.379 . S
H2003 C1997 0.959 . S
H2004 C1997 0.961 . S
H2005 C1997 0.960 . S
H2006 C1998 0.930 . S
H2007 C1999 0.929 . S
H2008 C2016 0.929 . S
H2009 C2018 0.930 . S
H2010 C2020 0.930 . S
H2011 C2023 0.929 . S
H2012 C2026 0.930 . S
H2013 C2028 0.960 . S
H2014 C2028 0.960 . S
H2015 C2028 0.960 . S
C2016 H2008 0.929 . S
C2016 C2017 1.377 . S
C2016 C2018 1.384 . S
C2017 C2016 1.377 . S
C2017 C2023 1.390 . S
C2018 H2009 0.930 . S
C2018 C2016 1.384 . S
C2018 C2019 1.372 . S
C2019 C2018 1.372 . S
C2019 C2020 1.400 . S
C2019 C2024 1.490 . S
C2020 H2010 0.930 . S
C2020 C2019 1.400 . S
C2020 C2023 1.386 . S
H2021 C2037 0.930 . S
H2022 C2038 0.931 . S
C2023 H2011 0.929 . S
C2023 C2017 1.390 . S
C2023 C2020 1.386 . S
C2024 C2019 1.490 . S
C2024 C2026 1.395 . S
C2024 C2027 1.403 . S
H2025 C2031 0.930 . S
C2026 H2012 0.930 . S
C2026 C2024 1.395 . S
C2026 C2029 1.403 . S
C2027 C2024 1.403 . S
C2027 C2028 1.524 . S
C2027 C2031 1.400 . S
C2028 H2013 0.960 . S
C2028 H2014 0.960 . S
C2028 H2015 0.960 . S
C2028 C2027 1.524 . S
C2029 C2026 1.403 . S
C2029 C2030 1.392 . S
C2029 C2033 1.495 . S
C2030 C2029 1.392 . S
C2030 C2031 1.385 . S
C2030 C2032 1.478 . S
C2031 H2025 0.930 . S
C2031 C2027 1.400 . S
C2031 C2030 1.385 . S
C2032 C2030 1.478 . S
C2032 C2034 1.381 . S
C2032 C2038 1.383 . S
C2033 C2029 1.495 . S
C2033 H2039 0.959 . S
C2033 H2040 0.961 . S
C2033 H2041 0.960 . S
C2034 C2032 1.381 . S
C2034 C2035 1.394 . S
C2034 H2042 0.930 . S
C2035 C2034 1.394 . S
C2035 C2036 1.383 . S
C2035 H2043 0.929 . S
C2036 C2035 1.383 . S
C2036 C2037 1.377 . S
C2037 H2021 0.930 . S
C2037 C2036 1.377 . S
C2037 C2038 1.379 . S
C2038 H2022 0.931 . S
C2038 C2032 1.383 . S
C2038 C2037 1.379 . S
H2039 C2033 0.959 . S
H2040 C2033 0.961 . S
H2041 C2033 0.960 . S
H2042 C2034 0.930 . S
H2043 C2035 0.929 . S
H2044 C2052 0.929 . S
H2045 C2054 0.930 . S
H2046 C2056 0.930 . S
H2047 C2059 0.929 . S
H2048 C2062 0.930 . S
H2049 C2064 0.960 . S
H2050 C2064 0.960 . S
H2051 C2064 0.960 . S
C2052 H2044 0.929 . S
C2052 C2053 1.377 . S
C2052 C2054 1.384 . S
C2053 C2052 1.377 . S
C2053 C2059 1.390 . S
C2054 H2045 0.930 . S
C2054 C2052 1.384 . S
C2054 C2055 1.372 . S
C2055 C2054 1.372 . S
C2055 C2056 1.400 . S
C2055 C2060 1.490 . S
C2056 H2046 0.930 . S
C2056 C2055 1.400 . S
C2056 C2059 1.386 . S
H2057 C2073 0.930 . S
H2058 C2074 0.931 . S
C2059 H2047 0.929 . S
C2059 C2053 1.390 . S
C2059 C2056 1.386 . S
C2060 C2055 1.490 . S
C2060 C2062 1.395 . S
C2060 C2063 1.403 . S
H2061 C2067 0.930 . S
C2062 H2048 0.930 . S
C2062 C2060 1.395 . S
C2062 C2065 1.403 . S
C2063 C2060 1.403 . S
C2063 C2064 1.524 . S
C2063 C2067 1.400 . S
C2064 H2049 0.960 . S
C2064 H2050 0.960 . S
C2064 H2051 0.960 . S
C2064 C2063 1.524 . S
C2065 C2062 1.403 . S
C2065 C2066 1.392 . S
C2065 C2069 1.495 . S
C2066 C2065 1.392 . S
C2066 C2067 1.385 . S
C2066 C2068 1.478 . S
C2067 H2061 0.930 . S
C2067 C2063 1.400 . S
C2067 C2066 1.385 . S
C2068 C2066 1.478 . S
C2068 C2070 1.381 . S
C2068 C2074 1.383 . S
C2069 C2065 1.495 . S
C2069 H2075 0.959 . S
C2069 H2076 0.961 . S
C2069 H2077 0.960 . S
C2070 C2068 1.381 . S
C2070 C2071 1.394 . S
C2070 H2078 0.930 . S
C2071 C2070 1.394 . S
C2071 C2072 1.383 . S
C2071 H2079 0.929 . S
C2072 C2071 1.383 . S
C2072 C2073 1.377 . S
C2073 H2057 0.930 . S
C2073 C2072 1.377 . S
C2073 C2074 1.379 . S
C2074 H2058 0.931 . S
C2074 C2068 1.383 . S
C2074 C2073 1.379 . S
H2075 C2069 0.959 . S
H2076 C2069 0.961 . S
H2077 C2069 0.960 . S
H2078 C2070 0.930 . S
H2079 C2071 0.929 . S
C361 C5 0.543 . S
C380 C270 0.539 . S
C397 C293 0.572 . S
C416 C27 0.626 . S
C433 C314 0.542 . S
C452 C49 0.535 . S
C469 C336 0.542 . S
C488 C75 0.526 . S
C505 C94 0.544 . S
C524 C181 0.555 . S
C541 C203 0.545 . S
C560 C117 0.492 . S
C577 C138 0.570 . S
C596 C225 0.542 . S
C613 C251 0.549 . S
C632 C160 0.597 . S
C649 C48 1.846 . S
C668 C4 1.846 . S
C685 C26 1.846 . S
C704 C74 1.845 . S
C721 C92 1.846 . S
C740 C136 1.846 . S
C757 C158 1.847 . S
C776 C118 1.846 . S
C793 C180 1.846 . S
C812 C224 1.845 . S
C829 C250 1.846 . S
C848 C202 1.846 . S
C865 C312 1.846 . S
C884 C268 1.844 . S
C901 C334 1.847 . S
C920 C294 1.842 . S
C937 C9 1.794 . S
C956 C71 1.792 . S
C973 C53 1.790 . S
C992 C31 1.776 . S
C1009 C161 1.796 . S
C1028 C95 1.765 . S
C1045 C139 1.786 . S
C1064 C116 1.794 . S
C1081 C247 1.786 . S
C1100 C185 1.762 . S
C1117 C229 1.794 . S
C1136 C207 1.804 . S
C1153 C271 1.791 . S
C1172 C337 1.765 . S
C1189 C315 1.790 . S
C1208 C292 1.766 . S
C1225 C8 1.406 . S
C1244 C140 1.385 . S
C1261 C30 1.407 . S
C1280 C162 1.436 . S
C1297 C96 1.406 . S
C1316 C52 1.438 . S
C1333 C114 1.402 . S
C1352 C70 1.428 . S
C1369 C184 1.412 . S
C1388 C316 1.421 . S
C1405 C206 1.410 . S
C1424 C338 1.431 . S
C1441 C272 1.413 . S
C1460 C228 1.374 . S
C1477 C290 1.413 . S
C1496 C246 1.374 . S
C1513 C6 1.174 . S
C1532 C317 1.177 . S
C1549 C28 1.183 . S
C1568 C339 1.095 . S
C1585 C273 1.146 . S
C1604 C50 1.160 . S
C1621 C291 1.141 . S
C1640 C73 1.158 . S
C1657 C227 1.135 . S
C1676 C93 1.156 . S
C1693 C119 1.181 . S
C1712 C248 1.174 . S
C1729 C137 1.182 . S
C1748 C183 1.177 . S
C1765 C205 1.132 . S
C1784 C159 1.151 . S
C1801 C141 1.132 . S
C1820 C182 1.182 . S
C1837 C204 1.173 . S
C1856 C163 1.169 . S
C1873 C97 1.140 . S
C1892 C226 1.159 . S
C1909 C249 1.180 . S
C1928 C115 1.142 . S
C1945 C51 1.143 . S
C1964 C269 1.198 . S
C1981 C295 1.183 . S
C2000 C72 1.172 . S
C2017 C313 1.183 . S
C2036 C7 1.173 . S
C2053 C29 1.141 . S
C2072 C335 1.173 . S
