# Generated by pormake.
# Topology wmi, (6)-cn, num edge types: 1
# Building blocks:
#     Node 0, Type 0, BuildingBlock: KUMBOL_clean_sbu_1, # of connection points: 6
#     Node 1, Type 0, BuildingBlock: KUMBOL_clean_sbu_1, # of connection points: 6
#     Node 2, Type 0, BuildingBlock: KUMBOL_clean_sbu_1, # of connection points: 6
#     Node 3, Type 0, BuildingBlock: KUMBOL_clean_sbu_1, # of connection points: 6
#     Node 4, Type 0, BuildingBlock: KUMBOL_clean_sbu_1, # of connection points: 6
#     Node 5, Type 0, BuildingBlock: KUMBOL_clean_sbu_1, # of connection points: 6
#     Node 6, Type 0, BuildingBlock: KUMBOL_clean_sbu_1, # of connection points: 6
#     Node 7, Type 0, BuildingBlock: KUMBOL_clean_sbu_1, # of connection points: 6
#     Node 8, Type 0, BuildingBlock: KUMBOL_clean_sbu_1, # of connection points: 6
#     Node 9, Type 0, BuildingBlock: KUMBOL_clean_sbu_1, # of connection points: 6
#     Node 10, Type 0, BuildingBlock: KUMBOL_clean_sbu_1, # of connection points: 6
#     Node 11, Type 0, BuildingBlock: KUMBOL_clean_sbu_1, # of connection points: 6
#     Node 12, Type 0, BuildingBlock: KUMBOL_clean_sbu_1, # of connection points: 6
#     Node 13, Type 0, BuildingBlock: KUMBOL_clean_sbu_1, # of connection points: 6
#     Node 14, Type 0, BuildingBlock: KUMBOL_clean_sbu_1, # of connection points: 6
#     Node 15, Type 0, BuildingBlock: KUMBOL_clean_sbu_1, # of connection points: 6
#     Node 16, Type 0, BuildingBlock: KUMBOL_clean_sbu_1, # of connection points: 6
#     Node 17, Type 0, BuildingBlock: KUMBOL_clean_sbu_1, # of connection points: 6
#     Edge 18, Type (0, 0), BuildingBlock: CIFDUS_clean_linker_0, # of connection points: 2
#     Edge 19, Type (0, 0), BuildingBlock: CIFDUS_clean_linker_0, # of connection points: 2
#     Edge 20, Type (0, 0), BuildingBlock: CIFDUS_clean_linker_0, # of connection points: 2
#     Edge 21, Type (0, 0), BuildingBlock: CIFDUS_clean_linker_0, # of connection points: 2
#     Edge 22, Type (0, 0), BuildingBlock: CIFDUS_clean_linker_0, # of connection points: 2
#     Edge 23, Type (0, 0), BuildingBlock: CIFDUS_clean_linker_0, # of connection points: 2
#     Edge 24, Type (0, 0), BuildingBlock: CIFDUS_clean_linker_0, # of connection points: 2
#     Edge 25, Type (0, 0), BuildingBlock: CIFDUS_clean_linker_0, # of connection points: 2
#     Edge 26, Type (0, 0), BuildingBlock: CIFDUS_clean_linker_0, # of connection points: 2
#     Edge 27, Type (0, 0), BuildingBlock: CIFDUS_clean_linker_0, # of connection points: 2
#     Edge 28, Type (0, 0), BuildingBlock: CIFDUS_clean_linker_0, # of connection points: 2
#     Edge 29, Type (0, 0), BuildingBlock: CIFDUS_clean_linker_0, # of connection points: 2
#     Edge 30, Type (0, 0), BuildingBlock: CIFDUS_clean_linker_0, # of connection points: 2
#     Edge 31, Type (0, 0), BuildingBlock: CIFDUS_clean_linker_0, # of connection points: 2
#     Edge 32, Type (0, 0), BuildingBlock: CIFDUS_clean_linker_0, # of connection points: 2
#     Edge 33, Type (0, 0), BuildingBlock: CIFDUS_clean_linker_0, # of connection points: 2
#     Edge 34, Type (0, 0), BuildingBlock: CIFDUS_clean_linker_0, # of connection points: 2
#     Edge 35, Type (0, 0), BuildingBlock: CIFDUS_clean_linker_0, # of connection points: 2
#     Edge 36, Type (0, 0), BuildingBlock: CIFDUS_clean_linker_0, # of connection points: 2
#     Edge 37, Type (0, 0), BuildingBlock: CIFDUS_clean_linker_0, # of connection points: 2
#     Edge 38, Type (0, 0), BuildingBlock: CIFDUS_clean_linker_0, # of connection points: 2
#     Edge 39, Type (0, 0), BuildingBlock: CIFDUS_clean_linker_0, # of connection points: 2
#     Edge 40, Type (0, 0), BuildingBlock: CIFDUS_clean_linker_0, # of connection points: 2
#     Edge 41, Type (0, 0), BuildingBlock: CIFDUS_clean_linker_0, # of connection points: 2
#     Edge 42, Type (0, 0), BuildingBlock: CIFDUS_clean_linker_0, # of connection points: 2
#     Edge 43, Type (0, 0), BuildingBlock: CIFDUS_clean_linker_0, # of connection points: 2
#     Edge 44, Type (0, 0), BuildingBlock: CIFDUS_clean_linker_0, # of connection points: 2
#     Edge 45, Type (0, 0), BuildingBlock: CIFDUS_clean_linker_0, # of connection points: 2
#     Edge 46, Type (0, 0), BuildingBlock: CIFDUS_clean_linker_0, # of connection points: 2
#     Edge 47, Type (0, 0), BuildingBlock: CIFDUS_clean_linker_0, # of connection points: 2
#     Edge 48, Type (0, 0), BuildingBlock: CIFDUS_clean_linker_0, # of connection points: 2
#     Edge 49, Type (0, 0), BuildingBlock: CIFDUS_clean_linker_0, # of connection points: 2
#     Edge 50, Type (0, 0), BuildingBlock: CIFDUS_clean_linker_0, # of connection points: 2
#     Edge 51, Type (0, 0), BuildingBlock: CIFDUS_clean_linker_0, # of connection points: 2
#     Edge 52, Type (0, 0), BuildingBlock: CIFDUS_clean_linker_0, # of connection points: 2
#     Edge 53, Type (0, 0), BuildingBlock: CIFDUS_clean_linker_0, # of connection points: 2
#     Edge 54, Type (0, 0), BuildingBlock: CIFDUS_clean_linker_0, # of connection points: 2
#     Edge 55, Type (0, 0), BuildingBlock: CIFDUS_clean_linker_0, # of connection points: 2
#     Edge 56, Type (0, 0), BuildingBlock: CIFDUS_clean_linker_0, # of connection points: 2
#     Edge 57, Type (0, 0), BuildingBlock: CIFDUS_clean_linker_0, # of connection points: 2
#     Edge 58, Type (0, 0), BuildingBlock: CIFDUS_clean_linker_0, # of connection points: 2
#     Edge 59, Type (0, 0), BuildingBlock: CIFDUS_clean_linker_0, # of connection points: 2
#     Edge 60, Type (0, 0), BuildingBlock: CIFDUS_clean_linker_0, # of connection points: 2
#     Edge 61, Type (0, 0), BuildingBlock: CIFDUS_clean_linker_0, # of connection points: 2
#     Edge 62, Type (0, 0), BuildingBlock: CIFDUS_clean_linker_0, # of connection points: 2
#     Edge 63, Type (0, 0), BuildingBlock: CIFDUS_clean_linker_0, # of connection points: 2
#     Edge 64, Type (0, 0), BuildingBlock: CIFDUS_clean_linker_0, # of connection points: 2
#     Edge 65, Type (0, 0), BuildingBlock: CIFDUS_clean_linker_0, # of connection points: 2
#     Edge 66, Type (0, 0), BuildingBlock: CIFDUS_clean_linker_0, # of connection points: 2
#     Edge 67, Type (0, 0), BuildingBlock: CIFDUS_clean_linker_0, # of connection points: 2
#     Edge 68, Type (0, 0), BuildingBlock: CIFDUS_clean_linker_0, # of connection points: 2
#     Edge 69, Type (0, 0), BuildingBlock: CIFDUS_clean_linker_0, # of connection points: 2
#     Edge 70, Type (0, 0), BuildingBlock: CIFDUS_clean_linker_0, # of connection points: 2
#     Edge 71, Type (0, 0), BuildingBlock: CIFDUS_clean_linker_0, # of connection points: 2
# Relax obj value: 0.064
# Max RMSD: 0.183
# Mean RMSD: 0.183
data_MOF--net-wmi--node1-KUMBOL_clean_sbu_1--edge1-CIFDUS_clean_linker_0
_symmetry_space_group_name_H-M    P1
_symmetry_Int_Tables_number       1
_symmetry_cell_setting            triclinic
loop_
_symmetry_equiv_pos_as_xyz
'x, y, z'
_cell_length_a     35.435968
_cell_length_b     35.368909
_cell_length_c     70.986634
_cell_angle_alpha  89.96508
_cell_angle_beta   90.031676
_cell_angle_gamma 120.04036
loop_
_atom_site_label
_atom_site_type_symbol
_atom_site_fract_x
_atom_site_fract_y
_atom_site_fract_z
_atom_type_partial_charge
C0 C 0.56668 0.99587 0.12838 0.0
C1 C 0.59789 0.96527 0.10701 0.0
C2 C 0.57951 0.99196 0.11038 0.0
C3 C 0.60091 0.94059 0.12182 0.0
C4 C 0.572 0.97299 0.1435 0.0
C5 C 0.58792 0.94438 0.14003 0.0
N6 N 0.55222 0.02452 0.13133 0.0
C7 C 0.54732 0.03526 0.1493 0.0
C8 C 0.5631 0.98107 0.16178 0.0
C9 C 0.55169 1.01306 0.1647 0.0
Gd10 Gd 0.41626 0.99726 0.0874 0.0
Gd11 Gd 0.54474 0.05869 0.10409 0.0
N12 N 0.57547 0.01556 0.09624 0.0
C13 C 0.61348 0.9649 0.08892 0.0
C14 C 0.5928 0.01734 0.07886 0.0
C15 C 0.61147 0.99153 0.07485 0.0
H16 H 0.59134 0.03808 0.06803 0.0
H17 H 0.62423 0.99213 0.06094 0.0
H18 H 0.35083 0.95147 0.12454 0.0
H19 H 0.54072 0.06144 0.15197 0.0
H20 H 0.29432 0.9586 0.14196 0.0
H21 H 0.62782 0.94483 0.08576 0.0
H22 H 0.61428 0.91935 0.11945 0.0
H23 H 0.42958 0.04959 0.04654 0.0
H24 H 0.56695 0.96434 0.17378 0.0
H25 H 0.54703 0.02124 0.17883 0.0
H26 H 0.2807 0.0684 0.10778 0.0
H27 H 0.59172 0.92619 0.15144 0.0
H28 H 0.35794 0.11761 0.04927 0.0
H29 H 0.40736 0.09929 0.03206 0.0
N30 N 0.39507 0.04239 0.07201 0.0
C31 C 0.36629 0.05031 0.0813 0.0
C32 C 0.40821 0.05778 0.05413 0.0
C33 C 0.36785 0.09616 0.05572 0.0
C34 C 0.39565 0.08577 0.04592 0.0
C35 C 0.3521 0.0777 0.07347 0.0
H36 H 0.31112 0.10633 0.07774 0.0
N37 N 0.36245 1.00155 0.10489 0.0
C38 C 0.34961 0.02937 0.09831 0.0
C39 C 0.29845 1.00969 0.12401 0.0
C40 C 0.31769 0.03472 0.10785 0.0
C41 C 0.34228 0.97545 0.12006 0.0
C42 C 0.31009 0.9792 0.12988 0.0
O43 O 0.5098 0.99214 0.09026 0.0
O44 O 0.44322 0.96174 0.10403 0.0
O45 O 0.35053 0.94065 0.08385 0.0
O46 O 0.40315 0.95198 0.06441 0.0
O47 O 0.53346 0.06564 0.07267 0.0
O48 O 0.46465 1.00785 0.06475 0.0
O49 O 0.45748 0.07214 0.08506 0.0
O50 O 0.5074 0.09304 0.10929 0.0
O51 O 0.59551 0.11891 0.09089 0.0
O52 O 0.60778 0.09854 0.11754 0.0
O53 O 0.43133 0.99084 0.11759 0.0
O54 O 0.4941 0.05341 0.12657 0.0
C55 C 0.47618 0.95835 0.09782 0.0
C56 C 0.50436 0.03851 0.06029 0.0
C57 C 0.33305 0.8872 0.05862 0.0
C58 C 0.27654 0.80959 0.05762 0.0
C59 C 0.31618 0.84749 0.02914 0.0
C60 C 0.34022 0.88599 0.03927 0.0
C61 C 0.28518 0.80957 0.0382 0.0
C62 C 0.30062 0.84923 0.06771 0.0
C63 C 0.36276 0.92674 0.06943 0.0
C64 C 0.30483 0.06349 0.10055 0.0
C65 C 0.32207 0.08501 0.08342 0.0
H66 H 0.2736 1.0126 0.13168 0.0
C67 C 0.48675 0.10218 0.0964 0.0
C68 C 0.45297 0.02224 0.12979 0.0
C69 C 0.65188 0.17381 0.11016 0.0
C70 C 0.72264 0.24228 0.10959 0.0
C71 C 0.66416 0.2347 0.13009 0.0
C72 C 0.63694 0.19211 0.12368 0.0
C73 C 0.70662 0.25955 0.12315 0.0
C74 C 0.69494 0.19917 0.10305 0.0
C75 C 0.62384 0.12764 0.10425 0.0
H76 H 0.32241 0.84672 0.01426 0.0
H77 H 0.36509 0.91467 0.03203 0.0
H78 H 0.26901 0.77995 0.02993 0.0
H79 H 0.29522 0.85045 0.08265 0.0
H80 H 0.6523 0.24854 0.14052 0.0
H81 H 0.6043 0.1733 0.12939 0.0
H82 H 0.72696 0.2926 0.12826 0.0
H83 H 0.70684 0.18542 0.09257 0.0
C84 C 0.06999 0.6175 0.1139 0.0
C85 C 0.07281 0.66286 0.08766 0.0
C86 C 0.0579 0.6212 0.09565 0.0
C87 C 0.10031 0.70046 0.09813 0.0
C88 C 0.09712 0.65519 0.12454 0.0
C89 C 0.11236 0.69664 0.11652 0.0
N90 N 0.05616 0.57694 0.12106 0.0
C91 C 0.06556 0.5717 0.13919 0.0
C92 C 0.10824 0.65006 0.14291 0.0
C93 C 0.09206 0.60814 0.15031 0.0
Gd94 Gd 0.08122 0.46078 0.08432 0.0
Gd95 Gd 1.01075 0.518 0.10156 0.0
N96 N 0.03199 0.58419 0.08568 0.0
C97 C 0.05966 0.66553 0.06936 0.0
C98 C 1.01746 0.58675 0.06816 0.0
C99 C 0.03154 0.62731 0.05965 0.0
H100 H 0.99414 0.55775 0.06079 0.0
H101 H 0.02032 0.62907 0.04567 0.0
H102 H 0.04968 0.38293 0.11791 0.0
H103 H 0.05256 0.53948 0.14514 0.0
H104 H 1.0118 0.30246 0.11988 0.0
H105 H 0.07054 0.6969 0.06271 0.0
H106 H 0.11234 0.73268 0.09214 0.0
H107 H 0.11498 0.485 0.0399 0.0
H108 H 0.1289 0.67822 0.15155 0.0
H109 H 0.09988 0.60389 0.16462 0.0
H110 H 0.98915 0.25602 0.0554 0.0
H111 H 0.13348 0.72596 0.12443 0.0
H112 H 0.0599 0.36649 0.00832 0.0
H113 H 0.104 0.44682 0.00949 0.0
N114 N 0.07273 0.42722 0.05503 0.0
C115 C 0.04954 0.38292 0.05486 0.0
C116 C 0.09337 0.4501 0.03918 0.0
C117 C 0.06262 0.3831 0.02144 0.0
C118 C 0.0879 0.42853 0.02207 0.0
C119 C 0.04338 0.35961 0.03795 0.0
H120 H 1.01484 0.29528 0.02536 0.0
N121 N 0.04594 0.38432 0.08811 0.0
C122 C 0.03567 0.3608 0.07189 0.0
C123 C 1.00478 0.29365 0.0898 0.0
C124 C 1.01454 0.31476 0.07231 0.0
C125 C 0.03956 0.36395 0.10517 0.0
C126 C 1.01801 0.31841 0.1063 0.0
O127 O 0.08508 0.55283 0.10155 0.0
O128 O 0.10545 0.53036 0.07527 0.0
O129 O 0.14079 0.4873 0.10097 0.0
O130 O 0.13592 0.45341 0.07522 0.0
O131 O 1.00199 0.49727 0.07046 0.0
O132 O 0.06412 0.49468 0.06146 0.0
O133 O 1.01136 0.41704 0.09554 0.0
O134 O 0.97604 0.45338 0.08635 0.0
O135 O 0.95899 0.53469 0.09933 0.0
O136 O 0.96188 0.49862 0.12373 0.0
O137 O 0.08453 0.48529 0.11376 0.0
O138 O 1.01874 0.47461 0.12374 0.0
C139 C 0.1086 0.5619 0.08615 0.0
C140 C 0.02984 0.49877 0.05754 0.0
C141 C 0.1839 0.45361 0.09841 0.0
C142 C 0.25309 0.45838 0.10711 0.0
C143 C 0.184 0.39374 0.11502 0.0
C144 C 0.16127 0.41206 0.10662 0.0
C145 C 0.2295 0.41671 0.11537 0.0
C146 C 0.22988 0.47657 0.09851 0.0
C147 C 0.16009 0.47339 0.08969 0.0
C148 C 1.00569 0.29138 0.05535 0.0
C149 C 0.02028 0.31376 0.03822 0.0
H150 H 0.98851 0.25835 0.0907 0.0
C151 C 0.97501 0.41762 0.09203 0.0
C152 C 0.05305 0.46946 0.12614 0.0
C153 C 0.90298 0.51605 0.12359 0.0
C154 C 0.84254 0.53157 0.12195 0.0
C155 C 0.85845 0.50648 0.15121 0.0
C156 C 0.89271 0.50438 0.1426 0.0
C157 C 0.83379 0.52021 0.14106 0.0
C158 C 0.87725 0.52921 0.11316 0.0
C159 C 0.94214 0.51687 0.11544 0.0
H160 H 0.16626 0.36167 0.12139 0.0
H161 H 0.1261 0.39387 0.10659 0.0
H162 H 0.24632 0.40166 0.12196 0.0
H163 H 0.2475 0.50878 0.09221 0.0
H164 H 0.85111 0.49761 0.1659 0.0
H165 H 0.91173 0.49434 0.15098 0.0
H166 H 0.80724 0.52133 0.1481 0.0
H167 H 0.88455 0.53825 0.09847 0.0
C168 C 0.46966 0.46621 0.11659 0.0
C169 C 0.42339 0.42831 0.08986 0.0
C170 C 0.46502 0.45677 0.09743 0.0
C171 C 0.38675 0.40979 0.10173 0.0
C172 C 0.43295 0.44754 0.12855 0.0
C173 C 0.39154 0.4192 0.12103 0.0
N174 N 0.50984 0.49553 0.12334 0.0
C175 C 0.51585 0.50606 0.14203 0.0
C176 C 0.43881 0.45872 0.14767 0.0
C177 C 0.48044 0.48802 0.15443 0.0
Gd178 Gd 0.61003 0.64999 0.08915 0.0
Gd179 Gd 0.56759 0.52113 0.10169 0.0
N180 N 0.50105 0.47561 0.08621 0.0
C181 C 0.41978 0.41908 0.07057 0.0
C182 C 0.49786 0.46467 0.06759 0.0
C183 C 0.45724 0.43699 0.05944 0.0
H184 H 0.52653 0.47597 0.05899 0.0
H185 H 0.45494 0.42891 0.04462 0.0
H186 H 0.67601 0.70762 0.12415 0.0
H187 H 0.54799 0.52779 0.1475 0.0
H188 H 0.75547 0.753 0.13029 0.0
H189 H 0.38838 0.39746 0.06422 0.0
H190 H 0.35454 0.38804 0.09612 0.0
H191 H 0.59658 0.66036 0.04294 0.0
H192 H 0.4114 0.44505 0.15728 0.0
H193 H 0.48529 0.49657 0.16922 0.0
H194 H 0.81994 0.76803 0.06911 0.0
H195 H 0.36293 0.40482 0.12998 0.0
H196 H 0.72221 0.71775 0.0167 0.0
H197 H 0.64144 0.68489 0.01431 0.0
N198 N 0.65015 0.67644 0.06113 0.0
C199 C 0.69423 0.69836 0.06286 0.0
C200 C 0.63131 0.67338 0.04404 0.0
C201 C 0.70214 0.70662 0.02919 0.0
C202 C 0.65686 0.6878 0.02779 0.0
C203 C 0.7215 0.71351 0.04694 0.0
H204 H 0.78851 0.74852 0.03722 0.0
N205 N 0.68426 0.69699 0.09551 0.0
C206 C 0.71195 0.70951 0.08068 0.0
C207 C 0.77316 0.75027 0.10146 0.0
C208 C 0.7573 0.73581 0.08324 0.0
C209 C 0.69898 0.7143 0.11294 0.0
C210 C 0.74374 0.74035 0.11632 0.0
O211 O 0.52401 0.55018 0.10654 0.0
O212 O 0.53883 0.60032 0.08294 0.0
O213 O 0.59807 0.68907 0.10913 0.0
O214 O 0.60044 0.70325 0.07952 0.0
O215 O 0.58566 0.54285 0.07091 0.0
O216 O 0.57357 0.60102 0.06594 0.0
O217 O 0.66026 0.63062 0.0983 0.0
O218 O 0.63057 0.56221 0.08603 0.0
O219 O 0.56171 0.45893 0.09392 0.0
O220 O 0.59148 0.48873 0.12038 0.0
O221 O 0.58659 0.6188 0.11729 0.0
O222 O 0.60813 0.57013 0.12509 0.0
C223 C 0.511 0.56849 0.09399 0.0
C224 C 0.57656 0.56743 0.05977 0.0
C225 C 0.54998 0.71168 0.09824 0.0
C226 C 0.50995 0.75138 0.0979 0.0
C227 C 0.47261 0.67386 0.10546 0.0
C228 C 0.51153 0.67353 0.10339 0.0
C229 C 0.47172 0.71246 0.10275 0.0
C230 C 0.54909 0.75058 0.09548 0.0
C231 C 0.59107 0.71101 0.09627 0.0
C232 C 0.78491 0.74831 0.06747 0.0
C233 C 0.767 0.73713 0.04932 0.0
H234 H 0.8078 0.77064 0.10405 0.0
C235 C 0.66389 0.59666 0.09335 0.0
C236 C 0.60774 0.60671 0.12856 0.0
C237 C 0.54629 0.41091 0.1194 0.0
C238 C 0.50533 0.33072 0.1184 0.0
C239 C 0.49489 0.36959 0.14429 0.0
C240 C 0.52567 0.40945 0.13651 0.0
C241 C 0.48453 0.33055 0.13528 0.0
C242 C 0.53643 0.37121 0.11052 0.0
C243 C 0.57535 0.45341 0.11009 0.0
H244 H 0.44308 0.64415 0.10929 0.0
H245 H 0.51173 0.64358 0.10605 0.0
H246 H 0.44099 0.71179 0.10434 0.0
H247 H 0.57895 0.78026 0.09187 0.0
H248 H 0.47895 0.36896 0.15739 0.0
H249 H 0.53298 0.43909 0.14385 0.0
H250 H 0.46082 0.30002 0.14175 0.0
H251 H 0.55217 0.37183 0.09734 0.0
C252 C 0.02281 0.58009 0.86984 0.0
C253 C 0.99118 0.61788 0.88627 0.0
C254 C 1.01087 0.59174 0.88658 0.0
C255 C 0.98294 0.63149 0.86892 0.0
C256 C 1.01463 0.59378 0.85241 0.0
C257 C 0.99438 0.61925 0.85204 0.0
N258 N 0.04284 0.55586 0.87062 0.0
C259 C 0.05691 0.5455 0.8546 0.0
C260 C 0.02752 0.58185 0.83586 0.0
C261 C 0.04896 0.55782 0.83698 0.0
Gd262 Gd 0.98138 0.42268 0.92644 0.0
Gd263 Gd 0.05535 0.53818 0.90088 0.0
N264 N 1.01801 0.57699 0.90314 0.0
C265 C 0.98008 0.6293 0.90344 0.0
C266 C 1.00877 0.58928 0.91994 0.0
C267 C 0.98909 0.61508 0.92033 0.0
H268 H 1.01641 0.57903 0.93301 0.0
H269 H 0.98102 0.6241 0.93366 0.0
H270 H 0.0392 0.39145 0.89869 0.0
H271 H 0.07511 0.52856 0.8554 0.0
H272 H 0.06778 0.34102 0.9006 0.0
H273 H 0.96463 0.64909 0.90379 0.0
H274 H 0.9675 0.65129 0.8684 0.0
H275 H 0.94937 0.42955 0.96994 0.0
H276 H 0.02171 0.59163 0.82219 0.0
H277 H 0.05987 0.54926 0.82428 0.0
H278 H 0.03849 0.2886 0.96421 0.0
H279 H 0.98775 0.62998 0.83877 0.0
H280 H 0.97262 0.34586 0.00567 0.0
H281 H 0.9466 0.39846 1.00148 0.0
N282 N 0.98122 0.39892 0.95716 0.0
C283 C 0.9966 0.37086 0.9592 0.0
C284 C 0.96349 0.409 0.97202 0.0
C285 C 0.97559 0.36086 0.99203 0.0
C286 C 0.96092 0.39059 0.98974 0.0
C287 C 0.99356 0.35052 0.97667 0.0
H288 H 1.00491 0.30338 0.99135 0.0
N289 N 1.01719 0.38182 0.927 0.0
C290 C 1.01483 0.36186 0.9437 0.0
C291 C 0.04982 0.32496 0.92971 0.0
C292 C 0.03079 0.3326 0.94543 0.0
C293 C 0.03586 0.37451 0.91165 0.0
C294 C 0.05269 0.34632 0.91279 0.0
O295 O 0.98123 0.50498 0.89801 0.0
O296 O 0.95591 0.46973 0.92627 0.0
O297 O 0.93012 0.37594 0.90831 0.0
O298 O 0.91989 0.3729 0.93847 0.0
O299 O 0.06038 0.53294 0.93302 0.0
O300 O 0.99129 0.48176 0.94219 0.0
O301 O 0.05599 0.45322 0.92943 0.0
O302 O 0.08392 0.49441 0.90242 0.0
O303 O 0.0992 0.59943 0.91439 0.0
O304 O 0.11736 0.58474 0.8875 0.0
O305 O 0.98023 0.42961 0.89498 0.0
O306 O 0.04634 0.47975 0.88292 0.0
C307 C 0.9509 0.48828 0.91114 0.0
C308 C 0.03001 0.51457 0.94613 0.0
C309 C 0.88121 0.30717 0.92143 0.0
C310 C 0.81266 0.23828 0.92184 0.0
C311 C 0.88101 0.23884 0.91804 0.0
C312 C 0.90391 0.28446 0.91903 0.0
C313 C 0.83551 0.21573 0.91944 0.0
C314 C 0.83563 0.28398 0.92283 0.0
C315 C 0.90397 0.35497 0.92224 0.0
C316 C 0.02697 0.31163 0.9627 0.0
C317 C 1.00804 0.32023 0.9782 0.0
H318 H 0.06258 0.30284 0.93051 0.0
C319 C 0.08853 0.47604 0.91757 0.0
C320 C 1.01136 0.44009 0.88273 0.0
C321 C 0.17398 0.63689 0.9077 0.0
C322 C 0.23902 0.70721 0.91505 0.0
C323 C 0.23309 0.63898 0.92579 0.0
C324 C 0.19203 0.61515 0.91738 0.0
C325 C 0.25628 0.68467 0.92481 0.0
C326 C 0.19781 0.68288 0.90638 0.0
C327 C 0.12836 0.61313 0.90111 0.0
H328 H 0.89855 0.22136 0.91614 0.0
H329 H 0.93908 0.3019 0.91785 0.0
H330 H 0.81815 0.1804 0.91862 0.0
H331 H 0.81798 0.30145 0.92464 0.0
H332 H 0.24681 0.62199 0.93328 0.0
H333 H 0.17396 0.57995 0.91877 0.0
H334 H 0.28804 0.70239 0.93143 0.0
H335 H 0.18367 0.69982 0.89912 0.0
C336 C 0.47549 0.46163 0.88775 0.0
C337 C 0.44432 0.41 0.91358 0.0
C338 C 0.46584 0.45339 0.90688 0.0
C339 C 0.43326 0.37537 0.90099 0.0
C340 C 0.46391 0.42686 0.87505 0.0
C341 C 0.44289 0.38375 0.88178 0.0
N342 N 0.49802 0.50385 0.88171 0.0
C343 C 0.50686 0.51342 0.86305 0.0
C344 C 0.47432 0.43651 0.85597 0.0
C345 C 0.49552 0.47994 0.84993 0.0
Gd346 Gd 0.64225 0.61065 0.91952 0.0
Gd347 Gd 0.51492 0.5574 0.90473 0.0
N348 N 0.47781 0.48769 0.9189 0.0
C349 C 0.43436 0.40259 0.93277 0.0
C350 C 0.46565 0.48028 0.9374 0.0
C351 C 0.44454 0.43783 0.94466 0.0
H352 H 0.47098 0.50662 0.94664 0.0
H353 H 0.43562 0.43226 0.9594 0.0
H354 H 0.69381 0.67548 0.88286 0.0
H355 H 0.52251 0.54681 0.85822 0.0
H356 H 0.73374 0.75439 0.87537 0.0
H357 H 0.41796 0.36975 0.93847 0.0
H358 H 0.41703 0.3419 0.90595 0.0
H359 H 0.6496 0.6031 0.96638 0.0
H360 H 0.46591 0.41069 0.84578 0.0
H361 H 0.50307 0.48763 0.83517 0.0
H362 H 0.74582 0.82314 0.93524 0.0
H363 H 0.43406 0.35665 0.87225 0.0
H364 H 0.69761 0.73098 0.98953 0.0
H365 H 0.66876 0.65105 0.994 0.0
N366 N 0.66422 0.65385 0.94673 0.0
C367 C 0.684 0.69772 0.94397 0.0
C368 C 0.66065 0.6373 0.96439 0.0
C369 C 0.6889 0.70952 0.9775 0.0
C370 C 0.67222 0.66469 0.98006 0.0
C371 C 0.69641 0.72675 0.95929 0.0
H372 H 0.72684 0.79477 0.96761 0.0
N373 N 0.6837 0.6848 0.91144 0.0
C374 C 0.69475 0.71378 0.92579 0.0
C375 C 0.73122 0.7738 0.90393 0.0
C376 C 0.71807 0.75912 0.9224 0.0
C377 C 0.69897 0.69879 0.89368 0.0
C378 C 0.72234 0.74345 0.88956 0.0
O379 O 0.55453 0.52462 0.89908 0.0
O380 O 0.59691 0.53837 0.92516 0.0
O381 O 0.6796 0.58919 0.90308 0.0
O382 O 0.70218 0.61631 0.93077 0.0
O383 O 0.53041 0.57404 0.93619 0.0
O384 O 0.59308 0.57015 0.94193 0.0
O385 O 0.61571 0.65544 0.91036 0.0
O386 O 0.54598 0.61956 0.92172 0.0
O387 O 0.44499 0.5301 0.90746 0.0
O388 O 0.48086 0.5836 0.88834 0.0
O389 O 0.62123 0.59078 0.88977 0.0
O390 O 0.56489 0.60282 0.88235 0.0
C391 C 0.57126 0.51124 0.91215 0.0
C392 C 0.55778 0.57014 0.94779 0.0
C393 C 0.7547 0.61987 0.9089 0.0
C394 C 0.81585 0.61076 0.89925 0.0
C395 C 0.81932 0.68075 0.89527 0.0
C396 C 0.77784 0.66365 0.90318 0.0
C397 C 0.83815 0.65445 0.89317 0.0
C398 C 0.77402 0.59369 0.90712 0.0
C399 C 0.70963 0.59984 0.91581 0.0
C400 C 0.7284 0.78816 0.93756 0.0
C401 C 0.7175 0.77199 0.95598 0.0
H402 H 0.7493 0.80839 0.90073 0.0
C403 C 0.58072 0.65584 0.91648 0.0
C404 C 0.6031 0.60604 0.87833 0.0
C405 C 0.41518 0.57545 0.90215 0.0
C406 C 0.34274 0.5643 0.91013 0.0
C407 C 0.40783 0.63501 0.91505 0.0
C408 C 0.43384 0.61908 0.90783 0.0
C409 C 0.36269 0.60781 0.91635 0.0
C410 C 0.36937 0.54825 0.90306 0.0
C411 C 0.44292 0.55737 0.8959 0.0
H412 H 0.83696 0.71452 0.89076 0.0
H413 H 0.76389 0.68449 0.90475 0.0
H414 H 0.87048 0.66845 0.88712 0.0
H415 H 0.75616 0.5598 0.91154 0.0
H416 H 0.4227 0.66875 0.91949 0.0
H417 H 0.46849 0.64076 0.9066 0.0
H418 H 0.34317 0.62123 0.92164 0.0
H419 H 0.3545 0.51463 0.89837 0.0
C420 C 0.58979 0.04546 0.87862 0.0
C421 C 0.65135 0.06635 0.89955 0.0
C422 C 0.606 0.04704 0.89665 0.0
C423 C 0.67997 0.08416 0.8842 0.0
C424 C 0.61848 0.06353 0.86321 0.0
C425 C 0.6636 0.08279 0.8661 0.0
N426 N 0.54602 0.02752 0.87628 0.0
C427 C 0.52867 0.02558 0.8589 0.0
C428 C 0.60097 0.06211 0.84535 0.0
C429 C 0.55588 0.04299 0.8432 0.0
Gd430 Gd 0.45939 0.07077 0.92922 0.0
Gd431 Gd 0.50331 0.99778 0.90326 0.0
N432 N 0.57758 0.03064 0.91137 0.0
C433 C 0.66666 0.0674 0.91782 0.0
C434 C 0.59231 0.02958 0.92903 0.0
C435 C 0.63698 0.04859 0.93257 0.0
H436 H 0.57 1.01318 0.9404 0.0
H437 H 0.64847 0.04824 0.94667 0.0
H438 H 0.3737 0.02796 0.89992 0.0
H439 H 0.49381 1.01001 0.85705 0.0
H440 H 0.29336 0.98498 0.90196 0.0
H441 H 0.70126 0.0822 0.92063 0.0
H442 H 0.71489 0.09934 0.88621 0.0
H443 H 0.49604 0.0988 0.97331 0.0
H444 H 0.62194 0.07566 0.83316 0.0
H445 H 0.54205 0.04147 0.82943 0.0
H446 H 0.26453 0.9683 0.9685 0.0
H447 H 0.68615 0.09697 0.85445 0.0
H448 H 0.38655 0.03551 0.01061 0.0
H449 H 0.4661 0.08205 0.00575 0.0
N450 N 0.4343 0.06083 0.96031 0.0
C451 C 0.3904 0.03673 0.96265 0.0
C452 C 0.46138 0.07803 0.97543 0.0
C453 C 0.39957 0.04285 0.99644 0.0
C454 C 0.4445 0.06896 0.99374 0.0
C455 C 0.37183 0.02699 0.98081 0.0
H456 H 0.31146 0.99406 0.99662 0.0
N457 N 0.38298 0.03078 0.92951 0.0
C458 C 0.3639 0.0219 0.9468 0.0
C459 C 0.29269 0.98361 0.93233 0.0
C460 C 0.31822 0.99733 0.94868 0.0
C461 C 0.35833 0.01905 0.91352 0.0
C462 C 0.31284 0.99488 0.91468 0.0
O463 O 0.53894 0.07101 0.89886 0.0
O464 O 0.53256 0.0982 0.92728 0.0
O465 O 0.4465 0.11719 0.91481 0.0
O466 O 0.47609 0.13304 0.94239 0.0
O467 O 0.49305 0.9927 0.93559 0.0
O468 O 0.51058 0.06241 0.94399 0.0
O469 O 0.41757 0.9955 0.93177 0.0
O470 O 0.43113 0.9695 0.90446 0.0
O471 O 0.51273 0.94342 0.91193 0.0
O472 O 0.48721 0.94341 0.88447 0.0
O473 O 0.46787 0.07411 0.89772 0.0
O474 O 0.45357 1.00761 0.88598 0.0
C475 C 0.55518 0.1007 0.91214 0.0
C476 C 0.50446 0.02381 0.94846 0.0
C477 C 0.50103 0.18998 0.91989 0.0
C478 C 0.53475 0.26914 0.91566 0.0
C479 C 0.56538 0.22912 0.90024 0.0
C480 C 0.53267 0.19025 0.90791 0.0
C481 C 0.56647 0.26826 0.90404 0.0
C482 C 0.50224 0.2297 0.92387 0.0
C483 C 0.46633 0.14774 0.92741 0.0
C484 C 0.29958 0.98731 0.96676 0.0
C485 C 0.32632 1.00197 0.98277 0.0
H486 H 0.25745 0.96471 0.93317 0.0
C487 C 0.40804 0.96354 0.91964 0.0
C488 C 0.44995 0.04325 0.88504 0.0
C489 C 0.53381 0.91299 0.88662 0.0
C490 C 0.57169 0.87008 0.88584 0.0
C491 C 0.57897 0.91855 0.85982 0.0
C492 C 0.55225 0.93088 0.86902 0.0
C493 C 0.5881 0.88824 0.86793 0.0
C494 C 0.54389 0.88258 0.8951 0.0
C495 C 0.50288 0.92501 0.89541 0.0
H496 H 0.58971 0.22883 0.89112 0.0
H497 H 0.53169 0.1602 0.90423 0.0
H498 H 0.59224 0.29802 0.89783 0.0
H499 H 0.47747 0.22971 0.9328 0.0
H500 H 0.59218 0.93211 0.84611 0.0
H501 H 0.54537 0.95389 0.862 0.0
H502 H 0.60759 0.8785 0.85977 0.0
H503 H 0.53017 0.86894 0.90874 0.0
C504 C 0.25184 0.36044 0.45882 0.0
C505 C 0.29465 0.33758 0.44041 0.0
C506 C 0.26875 0.35744 0.44167 0.0
C507 C 0.30185 0.31915 0.45656 0.0
C508 C 0.26202 0.34502 0.47533 0.0
C509 C 0.28565 0.32296 0.47401 0.0
N510 N 0.22952 0.38247 0.45963 0.0
C511 C 0.22381 0.39676 0.47677 0.0
C512 C 0.25065 0.35468 0.49278 0.0
C513 C 0.23283 0.38195 0.49351 0.0
Gd514 Gd 0.08345 0.3094 0.42367 0.0
Gd515 Gd 0.21405 0.40374 0.43006 0.0
N516 N 0.2614 0.3757 0.42631 0.0
C517 C 0.31354 0.3379 0.42305 0.0
C518 C 0.28127 0.37779 0.40951 0.0
C519 C 0.30736 0.35869 0.4076 0.0
H520 H 0.2756 0.39289 0.39741 0.0
H521 H 0.32225 0.35957 0.39418 0.0
H522 H 0.04025 0.26217 0.46495 0.0
H523 H 0.21283 0.42019 0.47777 0.0
H524 H 0.9767 0.24758 0.48473 0.0
H525 H 0.33363 0.32296 0.42151 0.0
H526 H 0.32121 0.30327 0.45583 0.0
H527 H 0.07767 0.36052 0.38483 0.0
H528 H 0.25805 0.34364 0.50577 0.0
H529 H 0.22665 0.39217 0.50697 0.0
H530 H 0.90824 0.31458 0.45075 0.0
H531 H 0.29314 0.31034 0.48651 0.0
H532 H 0.96828 0.37974 0.39087 0.0
H533 H 0.0308 0.38773 0.37218 0.0
N534 N 0.04262 0.3383 0.41059 0.0
C535 C 1.00774 0.33245 0.42087 0.0
C536 C 0.05064 0.35705 0.39314 0.0
C537 C 0.98881 0.36782 0.39652 0.0
C538 C 0.02411 0.37245 0.38593 0.0
C539 C 0.98005 0.34737 0.41416 0.0
H540 H 0.92285 0.35248 0.42025 0.0
N541 N 0.0268 0.29704 0.44418 0.0
C542 C 0.99974 0.31139 0.43818 0.0
C543 C 0.95538 0.28122 0.46604 0.0
C544 C 0.96349 0.30426 0.44907 0.0
C545 C 1.01895 0.27426 0.4606 0.0
C546 C 0.98295 0.26573 0.47172 0.0
O547 O 0.19539 0.33626 0.41937 0.0
O548 O 0.13291 0.29326 0.43579 0.0
O549 O 0.0325 0.24173 0.42716 0.0
O550 O 0.06665 0.26353 0.40059 0.0
O551 O 0.19549 0.38926 0.39868 0.0
O552 O 0.12335 0.33126 0.39741 0.0
O553 O 0.0989 0.38028 0.42752 0.0
O554 O 0.16787 0.42003 0.41514 0.0
O555 O 0.27469 0.45509 0.41747 0.0
O556 O 0.24872 0.46973 0.44163 0.0
O557 O 0.12 0.32054 0.45038 0.0
O558 O 0.16301 0.39412 0.45287 0.0
C559 C 0.16637 0.29791 0.42596 0.0
C560 C 0.16074 0.3587 0.38943 0.0
C561 C 0.9928 0.20692 0.39986 0.0
C562 C 0.92816 0.13684 0.39263 0.0
C563 C 0.93635 0.20428 0.37964 0.0
C564 C 0.97641 0.22829 0.38877 0.0
C565 C 0.91236 0.15886 0.3815 0.0
C566 C 0.96853 0.16131 0.40183 0.0
C567 C 0.03468 0.23156 0.40977 0.0
C568 C 0.93614 0.31959 0.44254 0.0
C569 C 0.94443 0.34114 0.42515 0.0
H570 H 0.92775 0.27491 0.47478 0.0
C571 C 0.13287 0.41801 0.42235 0.0
C572 C 0.13129 0.35661 0.4595 0.0
C573 C 0.32587 0.50355 0.43973 0.0
C574 C 0.40494 0.5559 0.44014 0.0
C575 C 0.37022 0.50518 0.46619 0.0
C576 C 0.33001 0.48744 0.45722 0.0
C577 C 0.40724 0.53908 0.45782 0.0
C578 C 0.36364 0.5381 0.43118 0.0
C579 C 0.28223 0.48342 0.43055 0.0
H580 H 0.92379 0.22092 0.37113 0.0
H581 H 0.9945 0.26342 0.38716 0.0
H582 H 0.88117 0.14101 0.37442 0.0
H583 H 0.98138 0.14486 0.41035 0.0
H584 H 0.3727 0.4926 0.47976 0.0
H585 H 0.30207 0.46117 0.4641 0.0
H586 H 0.43782 0.55249 0.46539 0.0
H587 H 0.36098 0.55049 0.41758 0.0
C588 C 0.73761 0.93583 0.44626 0.0
C589 C 0.75678 0.98916 0.4211 0.0
C590 C 0.73651 0.94525 0.42718 0.0
C591 C 0.77889 0.02311 0.43414 0.0
C592 C 0.75909 0.9701 0.45939 0.0
C593 C 0.78001 1.01362 0.4532 0.0
N594 N 0.7178 0.89331 0.45198 0.0
C595 C 0.71537 0.8831 0.47066 0.0
C596 C 0.75869 0.95967 0.47844 0.0
C597 C 0.73632 0.91603 0.48411 0.0
Gd598 Gd 0.75796 0.78543 0.41533 0.0
Gd599 Gd 0.68385 0.84133 0.42808 0.0
N600 N 0.71499 0.91175 0.41468 0.0
C601 C 0.75384 0.99784 0.40211 0.0
C602 C 0.70933 0.9204 0.39644 0.0
C603 C 0.72951 0.96334 0.3898 0.0
H604 H 0.68831 0.89473 0.38692 0.0
H605 H 0.72561 0.96984 0.37524 0.0
H606 H 0.73056 0.71438 0.45099 0.0
H607 H 0.69683 0.84975 0.4754 0.0
H608 H 0.69578 0.63476 0.45581 0.0
H609 H 0.76925 0.03109 0.39691 0.0
H610 H 0.79496 0.05692 0.42963 0.0
H611 H 0.79108 0.80184 0.37047 0.0
H612 H 0.77481 0.98508 0.48892 0.0
H613 H 0.73484 0.90775 0.49887 0.0
H614 H 0.66602 0.5764 0.39308 0.0
H615 H 0.79691 0.04027 0.46308 0.0
H616 H 0.73181 0.67791 0.34267 0.0
H617 H 0.78029 0.75859 0.34187 0.0
N618 N 0.74819 0.74714 0.38716 0.0
C619 C 0.72502 0.70288 0.38836 0.0
C620 C 0.76881 0.76707 0.37082 0.0
C621 C 0.73612 0.69712 0.35518 0.0
C622 C 0.76305 0.74247 0.35462 0.0
C623 C 0.7176 0.67666 0.37229 0.0
H624 H 0.68809 0.61032 0.36178 0.0
N625 N 0.72419 0.7101 0.42135 0.0
C626 C 0.7129 0.68375 0.40601 0.0
C627 C 0.68559 0.62021 0.42615 0.0
C628 C 0.69265 0.63798 0.40799 0.0
C629 C 0.71972 0.69315 0.43902 0.0
C630 C 0.70001 0.64802 0.44173 0.0
O631 O 0.75636 0.873 0.43378 0.0
O632 O 0.78535 0.85672 0.4085 0.0
O633 O 0.81505 0.81125 0.43319 0.0
O634 O 0.81355 0.77838 0.40734 0.0
O635 O 0.68837 0.83172 0.39615 0.0
O636 O 0.74843 0.82207 0.39147 0.0
O637 O 0.68679 0.74223 0.42402 0.0
O638 O 0.6547 0.77867 0.4114 0.0
O639 O 0.64522 0.87323 0.42855 0.0
O640 O 0.61641 0.80757 0.43861 0.0
O641 O 0.75564 0.80632 0.44483 0.0
O642 O 0.68849 0.79807 0.45183 0.0
C643 C 0.78558 0.88529 0.42035 0.0
C644 C 0.71922 0.832 0.38536 0.0
C645 C 0.86209 0.78232 0.43127 0.0
C646 C 0.93446 0.79382 0.43806 0.0
C647 C 0.87058 0.73407 0.45292 0.0
C648 C 0.8437 0.74628 0.44345 0.0
C649 C 0.91581 0.7579 0.4504 0.0
C650 C 0.90726 0.8056 0.42848 0.0
C651 C 0.83593 0.79865 0.42219 0.0
C652 C 0.68211 0.61164 0.39186 0.0
C653 C 0.6946 0.63095 0.37403 0.0
H654 H 0.67035 0.58526 0.42825 0.0
C655 C 0.65167 0.74275 0.41819 0.0
C656 C 0.7224 0.79303 0.45624 0.0
C657 C 0.57096 0.83033 0.42286 0.0
C658 C 0.51064 0.8441 0.41586 0.0
C659 C 0.53173 0.80616 0.39323 0.0
C660 C 0.56499 0.81055 0.40516 0.0
C661 C 0.50485 0.82275 0.39847 0.0
C662 C 0.54372 0.84721 0.42815 0.0
C663 C 0.60972 0.83963 0.4343 0.0
H664 H 0.85639 0.7064 0.46242 0.0
H665 H 0.80892 0.72816 0.44585 0.0
H666 H 0.93615 0.74812 0.45792 0.0
H667 H 0.92142 0.83384 0.41924 0.0
H668 H 0.52725 0.79049 0.37967 0.0
H669 H 0.58695 0.79969 0.40031 0.0
H670 H 0.47932 0.81869 0.38887 0.0
H671 H 0.54942 0.8642 0.44147 0.0
C672 C 0.14665 0.81206 0.46176 0.0
C673 C 0.08879 0.77937 0.43857 0.0
C674 C 0.13362 0.80365 0.44304 0.0
C675 C 0.05761 0.76479 0.45304 0.0
C676 C 0.11544 0.79728 0.47635 0.0
C677 C 0.07089 0.7737 0.47188 0.0
N678 N 0.18997 0.83542 0.4657 0.0
C679 C 0.20441 0.84421 0.48386 0.0
C680 C 0.12997 0.80693 0.49501 0.0
C681 C 0.17465 0.83041 0.49878 0.0
Gd682 Gd 0.28457 0.98092 0.42062 0.0
Gd683 Gd 0.23776 0.85637 0.44001 0.0
N684 N 0.16463 0.81843 0.42929 0.0
C685 C 0.07657 0.7698 0.41969 0.0
C686 C 0.15263 0.80533 0.41108 0.0
C687 C 0.10866 0.78222 0.40593 0.0
H688 H 0.17638 0.81069 0.40045 0.0
H689 H 0.09957 0.77295 0.39138 0.0
H690 H 0.3434 0.04563 0.45678 0.0
H691 H 0.23892 0.86167 0.48686 0.0
H692 H 0.42073 0.09409 0.46485 0.0
H693 H 0.04251 0.75152 0.41567 0.0
H694 H 0.02309 0.74645 0.44982 0.0
H695 H 0.28075 0.97009 0.37384 0.0
H696 H 0.107 0.79626 0.5066 0.0
H697 H 0.1862 0.8377 0.51316 0.0
H698 H 0.4973 0.10036 0.40824 0.0
H699 H 0.04644 0.76224 0.48287 0.0
H700 H 0.41207 0.03137 0.35342 0.0
H701 H 0.33224 0.98814 0.34738 0.0
N702 N 0.33043 0.99982 0.39441 0.0
C703 C 0.37383 0.02539 0.39786 0.0
C704 C 0.31529 0.98752 0.37653 0.0
C705 C 0.38931 0.02284 0.36495 0.0
C706 C 0.34446 0.99837 0.36153 0.0
C707 C 0.40449 0.03721 0.38322 0.0
H708 H 0.4732 0.07259 0.37612 0.0
N709 N 0.35687 0.02879 0.42986 0.0
C710 C 0.38742 0.04004 0.41612 0.0
C711 C 0.44415 0.08648 0.43796 0.0
C712 C 0.43204 0.06833 0.41994 0.0
C713 C 0.36811 0.04973 0.44681 0.0
C714 C 0.41191 0.07809 0.45128 0.0
O715 O 0.2076 0.89539 0.45065 0.0
O716 O 0.21229 0.93375 0.42424 0.0
O717 O 0.2766 0.03368 0.432 0.0
O718 O 0.27433 0.02384 0.40197 0.0
O719 O 0.24691 0.87014 0.4079 0.0
O720 O 0.23104 0.92524 0.40487 0.0
O721 O 0.32302 0.94573 0.41361 0.0
O722 O 0.31009 0.90084 0.43909 0.0
O723 O 0.23232 0.7964 0.4284 0.0
O724 O 0.25066 0.81324 0.45729 0.0
O725 O 0.28298 0.97233 0.45209 0.0
O726 O 0.28602 0.90967 0.46017 0.0
C727 C 0.19247 0.91486 0.43998 0.0
C728 C 0.23469 0.89337 0.39753 0.0
C729 C 0.22582 0.04457 0.41492 0.0
C730 C 0.18354 0.0809 0.42089 0.0
C731 C 0.14722 1.0053 0.41048 0.0
C732 C 0.18715 1.00659 0.40973 0.0
C733 C 0.14531 0.04204 0.41615 0.0
C734 C 0.22396 0.08206 0.42026 0.0
C735 C 0.26725 0.0439 0.41571 0.0
C736 C 0.46285 0.07907 0.4055 0.0
C737 C 0.44912 0.06341 0.38719 0.0
H738 H 0.47803 0.10863 0.44143 0.0
C739 C 0.33354 0.92193 0.42444 0.0
C740 C 0.29259 0.94947 0.4638 0.0
C741 C 0.20657 0.73746 0.45033 0.0
C742 C 0.17459 0.65754 0.44735 0.0
C743 C 0.14834 0.68817 0.47131 0.0
C744 C 0.17807 0.7303 0.4654 0.0
C745 C 0.14673 0.65222 0.46252 0.0
C746 C 0.20464 0.70076 0.44129 0.0
C747 C 0.23874 0.78305 0.44451 0.0
H748 H 0.11762 0.97569 0.40662 0.0
H749 H 0.18769 0.97773 0.40514 0.0
H750 H 0.11395 0.04039 0.41645 0.0
H751 H 0.25359 0.11164 0.42418 0.0
H752 H 0.12689 0.68337 0.48305 0.0
H753 H 0.17908 0.75723 0.47294 0.0
H754 H 0.12426 0.62017 0.46809 0.0
H755 H 0.22649 0.70598 0.42966 0.0
C756 C 0.70387 0.92066 0.20408 0.0
C757 C 0.67472 0.95558 0.2241 0.0
C758 C 0.69614 0.93124 0.22201 0.0
C759 C 0.66075 0.96849 0.20807 0.0
C760 C 0.68954 0.93328 0.18797 0.0
C761 C 0.66803 0.95728 0.19007 0.0
N762 N 0.7239 0.89655 0.20244 0.0
C763 C 0.73156 0.88486 0.18516 0.0
C764 C 0.69678 0.92091 0.17021 0.0
C765 C 0.71796 0.89669 0.16881 0.0
Gd766 Gd 0.6697 0.75871 0.25163 0.0
Gd767 Gd 0.74604 0.8789 0.2306 0.0
N768 N 0.70874 0.91703 0.23735 0.0
C769 C 0.66778 0.96614 0.24226 0.0
C770 C 0.70436 0.92967 0.25501 0.0
C771 C 0.68308 0.95352 0.25775 0.0
H772 H 0.71833 0.92296 0.26707 0.0
H773 H 0.67909 0.96273 0.27183 0.0
H774 H 0.65411 0.69039 0.21552 0.0
H775 H 0.74862 0.86684 0.18393 0.0
H776 H 0.68292 0.64334 0.20482 0.0
H777 H 0.65123 0.98454 0.24445 0.0
H778 H 0.64394 0.98687 0.20945 0.0
H779 H 0.68567 0.77135 0.29793 0.0
H780 H 0.68616 0.92989 0.15751 0.0
H781 H 0.72396 0.88725 0.15513 0.0
H782 H 0.76574 0.64048 0.2578 0.0
H783 H 0.65669 0.96714 0.17785 0.0
H784 H 0.76131 0.71263 0.31408 0.0
H785 H 0.72464 0.75498 0.32241 0.0
N786 N 0.70065 0.73984 0.27627 0.0
C787 C 0.71791 0.71429 0.27164 0.0
C788 C 0.70165 0.75322 0.29432 0.0
C789 C 0.74364 0.71947 0.30349 0.0
C790 C 0.72348 0.7436 0.30819 0.0
C791 C 0.74029 0.70378 0.28512 0.0
H792 H 0.776 0.66971 0.29003 0.0
N793 N 0.69137 0.70981 0.24065 0.0
C794 C 0.71346 0.69919 0.25326 0.0
C795 C 0.71986 0.65248 0.23023 0.0
C796 C 0.72936 0.67116 0.24823 0.0
C797 C 0.67768 0.68765 0.22407 0.0
C798 C 0.69282 0.65979 0.21829 0.0
O799 O 0.67523 0.84133 0.22195 0.0
O800 O 0.64221 0.80435 0.24884 0.0
O801 O 0.60686 0.70902 0.24114 0.0
O802 O 0.6194 0.71544 0.27123 0.0
O803 O 0.74257 0.86979 0.26313 0.0
O804 O 0.67247 0.81382 0.26784 0.0
O805 O 0.74341 0.79442 0.25842 0.0
O806 O 0.77759 0.83789 0.23267 0.0
O807 O 0.79641 0.93915 0.24321 0.0
O808 O 0.80166 0.92567 0.21399 0.0
O809 O 0.67354 0.76833 0.22039 0.0
O810 O 0.74263 0.82328 0.21231 0.0
C811 C 0.64165 0.82415 0.23327 0.0
C812 C 0.70829 0.84707 0.27421 0.0
C813 C 0.56542 0.64626 0.25948 0.0
C814 C 0.49485 0.58075 0.25524 0.0
C815 C 0.55507 0.57583 0.26897 0.0
C816 C 0.58212 0.62104 0.26714 0.0
C817 C 0.51146 0.55572 0.26321 0.0
C818 C 0.52202 0.62591 0.25334 0.0
C819 C 0.59174 0.69384 0.25784 0.0
C820 C 0.75273 0.66145 0.26149 0.0
C821 C 0.75838 0.67791 0.27987 0.0
H822 H 0.73134 0.63066 0.22581 0.0
C823 C 0.77765 0.81545 0.2473 0.0
C824 C 0.70717 0.78496 0.209 0.0
C825 C 0.86686 0.97592 0.22984 0.0
C826 C 0.93596 0.04453 0.23246 0.0
C827 C 0.93464 0.97512 0.2328 0.0
C828 C 0.88928 0.9527 0.23083 0.0
C829 C 0.95792 0.02079 0.23353 0.0
C830 C 0.89032 0.02188 0.23071 0.0
C831 C 0.81915 0.95322 0.22781 0.0
H832 H 0.56782 0.55638 0.27501 0.0
H833 H 0.61571 0.63626 0.27179 0.0
H834 H 0.49071 0.52077 0.26494 0.0
H835 H 0.50902 0.64539 0.24745 0.0
H836 H 0.95185 0.95706 0.23352 0.0
H837 H 0.87175 0.91741 0.22992 0.0
H838 H 0.99314 0.03766 0.23467 0.0
H839 H 0.87319 0.04004 0.22967 0.0
C840 C 0.15192 0.80785 0.2217 0.0
C841 C 0.11815 0.74979 0.24496 0.0
C842 C 0.14304 0.79463 0.24047 0.0
C843 C 0.1022 0.71859 0.23048 0.0
C844 C 0.13529 0.77643 0.20714 0.0
C845 C 0.11063 0.73186 0.21165 0.0
N846 N 0.17706 0.8512 0.21768 0.0
C847 C 0.1836 0.86523 0.1994 0.0
C848 C 0.14374 0.79066 0.18844 0.0
C849 C 0.16755 0.83526 0.18456 0.0
Gd850 Gd 0.33421 0.95242 0.25311 0.0
Gd851 Gd 0.20134 0.89824 0.24395 0.0
N852 N 0.15969 0.82543 0.25431 0.0
C853 C 0.1103 0.73751 0.26392 0.0
C854 C 0.15082 0.81357 0.27281 0.0
C855 C 0.12646 0.76954 0.27787 0.0
H856 H 0.16174 0.83766 0.28382 0.0
H857 H 0.11992 0.76036 0.29257 0.0
H858 H 0.37902 0.01966 0.21612 0.0
H859 H 0.19994 0.89949 0.19596 0.0
H860 H 0.41817 0.09892 0.20958 0.0
H861 H 0.0915 0.70341 0.26792 0.0
H862 H 0.08324 0.68406 0.23371 0.0
H863 H 0.35757 0.94225 0.29799 0.0
H864 H 0.13139 0.76754 0.17688 0.0
H865 H 0.17315 0.84664 0.17013 0.0
H866 H 0.44643 0.16404 0.27108 0.0
H867 H 0.09788 0.70736 0.20064 0.0
H868 H 0.41688 0.06853 0.32369 0.0
H869 H 0.38796 0.98852 0.32599 0.0
N870 N 0.36562 0.99419 0.28032 0.0
C871 C 0.38483 0.03816 0.27829 0.0
C872 C 0.36834 0.9766 0.29701 0.0
C873 C 0.40266 0.04798 0.31143 0.0
C874 C 0.38622 1.003 0.31285 0.0
C875 C 0.40329 0.06628 0.29387 0.0
H876 H 0.43776 0.1338 0.30305 0.0
N877 N 0.37521 0.02713 0.24551 0.0
C878 C 0.39008 0.05523 0.2603 0.0
C879 C 0.42214 0.11658 0.23888 0.0
C880 C 0.41339 0.10079 0.2574 0.0
C881 C 0.38721 0.04225 0.22755 0.0
C882 C 0.40988 0.08712 0.22391 0.0
O883 O 0.23205 0.85517 0.24073 0.0
O884 O 0.29003 0.8818 0.26171 0.0
O885 O 0.36699 0.93321 0.23287 0.0
O886 O 0.39348 0.95165 0.2609 0.0
O887 O 0.21968 0.90722 0.27564 0.0
O888 O 0.29136 0.92028 0.27862 0.0
O889 O 0.30818 0.9976 0.24453 0.0
O890 O 0.24403 0.96035 0.2598 0.0
O891 O 0.13615 0.88236 0.25328 0.0
O892 O 0.1679 0.92918 0.23109 0.0
O893 O 0.29759 0.92001 0.22685 0.0
O894 O 0.24839 0.94034 0.21997 0.0
C895 C 0.25673 0.84918 0.25289 0.0
C896 C 0.2525 0.90917 0.28567 0.0
C897 C 0.44138 0.9552 0.23667 0.0
C898 C 0.50351 0.94452 0.23181 0.0
C899 C 0.50041 1.00407 0.21613 0.0
C900 C 0.46011 0.99127 0.22452 0.0
C901 C 0.52188 0.98061 0.21956 0.0
C902 C 0.46339 0.93232 0.24045 0.0
C903 C 0.39748 0.93809 0.24443 0.0
C904 C 0.42893 0.12893 0.273 0.0
C905 C 0.42393 0.1117 0.29121 0.0
H906 H 0.44002 0.15135 0.23605 0.0
C907 C 0.27262 0.99576 0.25112 0.0
C908 C 0.28376 0.93884 0.21526 0.0
C909 C 0.09029 0.88451 0.22926 0.0
C910 C 1.01006 0.84803 0.22708 0.0
C911 C 0.05407 0.85982 0.19896 0.0
C912 C 0.09204 0.87989 0.20967 0.0
C913 C 1.01359 0.84404 0.20752 0.0
C914 C 0.04891 0.86883 0.23796 0.0
C915 C 0.13164 0.90583 0.24037 0.0
H916 H 0.51478 0.03202 0.2068 0.0
H917 H 0.44342 1.00903 0.22131 0.0
H918 H 0.55291 0.99077 0.21279 0.0
H919 H 0.44847 0.90395 0.2496 0.0
H920 H 0.05603 0.85661 0.18388 0.0
H921 H 0.12286 0.89209 0.20248 0.0
H922 H 0.98477 0.82902 0.1987 0.0
H923 H 0.04694 0.87226 0.25304 0.0
C924 C 0.28831 0.39394 0.21181 0.0
C925 C 0.34632 0.41963 0.23499 0.0
C926 C 0.30149 0.39847 0.23051 0.0
C927 C 0.37746 0.43706 0.22053 0.0
C928 C 0.31956 0.41147 0.19724 0.0
C929 C 0.36413 0.43336 0.20173 0.0
N930 N 0.24501 0.37177 0.20784 0.0
C931 C 0.23076 0.36465 0.18962 0.0
C932 C 0.30507 0.40589 0.17855 0.0
C933 C 0.26046 0.38212 0.17473 0.0
Gd934 Gd 0.13584 0.40341 0.25852 0.0
Gd935 Gd 0.19775 0.34413 0.23374 0.0
N936 N 0.27059 0.38164 0.24427 0.0
C937 C 0.35858 0.42248 0.2539 0.0
C938 C 0.28253 0.38171 0.26255 0.0
C939 C 0.32651 0.40302 0.26771 0.0
H940 H 0.25859 0.36405 0.27316 0.0
H941 H 0.33562 0.40361 0.2823 0.0
H942 H 0.0445 0.34983 0.23268 0.0
H943 H 0.19645 0.34465 0.18652 0.0
H944 H 0.96568 0.30064 0.238 0.0
H945 H 0.39265 0.4388 0.25792 0.0
H946 H 0.41199 0.45367 0.22375 0.0
H947 H 0.17965 0.4427 0.3008 0.0
H948 H 0.32803 0.41904 0.16697 0.0
H949 H 0.24895 0.37675 0.16031 0.0
H950 H 0.95155 0.29092 0.30539 0.0
H951 H 0.38859 0.44714 0.19075 0.0
H952 H 0.07951 0.379 0.34236 0.0
H953 H 0.15629 0.4313 0.33418 0.0
N954 N 0.11684 0.39679 0.29041 0.0
C955 C 0.07426 0.36901 0.29452 0.0
C956 C 0.1461 0.41971 0.3043 0.0
C957 C 0.08955 0.3839 0.32773 0.0
C958 C 0.13293 0.4135 0.32317 0.0
C959 C 0.05949 0.36151 0.31333 0.0
H960 H 1.0033 0.32622 0.33149 0.0
N961 N 0.06021 0.35815 0.26181 0.0
C962 C 0.04503 0.3493 0.27979 0.0
C963 C 0.97169 0.30328 0.26826 0.0
C964 C 1.00036 0.32128 0.28351 0.0
C965 C 0.03223 0.34215 0.24688 0.0
C966 C 0.98766 0.31407 0.24987 0.0
O967 O 0.22964 0.41804 0.23138 0.0
O968 O 0.20927 0.43579 0.25905 0.0
O969 O 0.14794 0.4603 0.24196 0.0
O970 O 0.12373 0.453 0.27038 0.0
O971 O 0.1804 0.33382 0.26544 0.0
O972 O 0.18898 0.40011 0.27386 0.0
O973 O 0.10007 0.32856 0.25775 0.0
O974 O 0.12499 0.30996 0.23122 0.0
O975 O 0.20735 0.29216 0.24514 0.0
O976 O 0.19387 0.29254 0.21561 0.0
O977 O 0.12617 0.39585 0.22727 0.0
O978 O 0.15913 0.36052 0.21223 0.0
C979 C 0.23756 0.44543 0.2453 0.0
C980 C 0.1861 0.36304 0.2784 0.0
C981 C 0.17621 0.52369 0.26079 0.0
C982 C 0.20899 0.60338 0.26087 0.0
C983 C 0.24778 0.5693 0.27453 0.0
C984 C 0.21286 0.5282 0.27039 0.0
C985 C 0.24611 0.60656 0.26971 0.0
C986 C 0.17419 0.56144 0.25605 0.0
C987 C 0.14057 0.47932 0.2561 0.0
C988 C 0.98572 0.3126 0.30225 0.0
C989 C 1.0152 0.33268 0.31712 0.0
H990 H 0.93714 0.28151 0.27052 0.0
C991 C 0.09652 0.30015 0.24479 0.0
C992 C 0.13648 0.38144 0.21216 0.0
C993 C 0.17647 0.22385 0.22923 0.0
C994 C 0.17185 0.15299 0.23525 0.0
C995 C 0.10891 0.15622 0.22346 0.0
C996 C 0.13283 0.20173 0.22338 0.0
C997 C 0.12806 0.13209 0.22939 0.0
C998 C 0.19617 0.19926 0.235 0.0
C999 C 0.20171 0.27236 0.22906 0.0
H1000 H 0.27619 0.57228 0.28164 0.0
H1001 H 0.21446 0.49987 0.27481 0.0
H1002 H 0.27409 0.63805 0.27301 0.0
H1003 H 0.14545 0.55809 0.24909 0.0
H1004 H 0.0753 0.13941 0.21888 0.0
H1005 H 0.11738 0.21973 0.21861 0.0
H1006 H 0.10854 0.09676 0.22927 0.0
H1007 H 0.22989 0.21601 0.23956 0.0
C1008 C 0.90573 0.67527 0.78875 0.0
C1009 C 0.93762 0.6556 0.76307 0.0
C1010 C 0.91608 0.6774 0.76976 0.0
C1011 C 0.94698 0.63049 0.77553 0.0
C1012 C 0.91561 0.65061 0.80137 0.0
C1013 C 0.93607 0.62806 0.79463 0.0
N1014 N 0.88432 0.69596 0.79474 0.0
C1015 C 0.87339 0.69483 0.81326 0.0
C1016 C 0.90392 0.64875 0.82034 0.0
C1017 C 0.88289 0.67112 0.82631 0.0
Gd1018 Gd 0.74478 0.66256 0.74998 0.0
Gd1019 Gd 0.86802 0.7336 0.77187 0.0
N1020 N 0.90568 0.7012 0.75792 0.0
C1021 C 0.94986 0.6603 0.74412 0.0
C1022 C 0.92155 0.70927 0.73993 0.0
C1023 C 0.94263 0.68803 0.73261 0.0
H1024 H 0.91953 0.73308 0.73121 0.0
H1025 H 0.95409 0.69378 0.71819 0.0
H1026 H 0.6832 0.65784 0.78712 0.0
H1027 H 0.85702 0.712 0.8179 0.0
H1028 H 0.63734 0.68876 0.79651 0.0
H1029 H 0.9664 0.64407 0.73843 0.0
H1030 H 0.96308 0.61319 0.77057 0.0
H1031 H 0.75375 0.67056 0.70329 0.0
H1032 H 0.91089 0.6301 0.83046 0.0
H1033 H 0.87381 0.66994 0.84095 0.0
H1034 H 0.62504 0.75631 0.74011 0.0
H1035 H 0.94361 0.60865 0.80407 0.0
H1036 H 0.68607 0.73494 0.68391 0.0
H1037 H 0.73061 0.70038 0.67709 0.0
N1038 N 0.72478 0.69007 0.72434 0.0
C1039 C 0.69935 0.70778 0.72829 0.0
C1040 C 0.73582 0.687 0.70627 0.0
C1041 C 0.69715 0.72281 0.69532 0.0
C1042 C 0.72224 0.70335 0.69145 0.0
C1043 C 0.6854 0.72528 0.71387 0.0
H1044 H 0.64868 0.75761 0.70742 0.0
N1045 N 0.69861 0.68822 0.76024 0.0
C1046 C 0.68623 0.70722 0.74678 0.0
C1047 C 0.64239 0.71884 0.76955 0.0
C1048 C 0.65842 0.7238 0.75117 0.0
C1049 C 0.67919 0.67907 0.7775 0.0
C1050 C 0.6519 0.69533 0.78264 0.0
O1051 O 0.82619 0.66172 0.77818 0.0
O1052 O 0.79165 0.63642 0.75014 0.0
O1053 O 0.69359 0.60066 0.7613 0.0
O1054 O 0.69879 0.61149 0.73131 0.0
O1055 O 0.85779 0.73861 0.73997 0.0
O1056 O 0.80078 0.67023 0.73242 0.0
O1057 O 0.77863 0.73757 0.7464 0.0
O1058 O 0.8241 0.76194 0.77202 0.0
O1059 O 0.92965 0.79341 0.76382 0.0
O1060 O 0.90918 0.77938 0.7931 0.0
O1061 O 0.75255 0.66237 0.78152 0.0
O1062 O 0.8138 0.72614 0.792 0.0
C1063 C 0.80892 0.63095 0.76549 0.0
C1064 C 0.83471 0.70755 0.72745 0.0
C1065 C 0.67646 0.53998 0.74186 0.0
C1066 C 0.63394 0.46007 0.74183 0.0
C1067 C 0.7104 0.49758 0.73289 0.0
C1068 C 0.71296 0.53781 0.73565 0.0
C1069 C 0.67115 0.45896 0.73585 0.0
C1070 C 0.63681 0.50081 0.74509 0.0
C1071 C 0.68 0.58308 0.74476 0.0
C1072 C 0.64603 0.74303 0.73695 0.0
C1073 C 0.65939 0.74366 0.71833 0.0
H1074 H 0.62084 0.73098 0.77349 0.0
C1075 C 0.80651 0.76959 0.75742 0.0
C1076 C 0.77355 0.69274 0.79433 0.0
C1077 C 0.97747 0.8466 0.78806 0.0
C1078 C 0.05364 0.90636 0.78552 0.0
C1079 C 1.01147 0.89836 0.81377 0.0
C1080 C 0.97553 0.86189 0.80612 0.0
C1081 C 0.05021 0.92021 0.80366 0.0
C1082 C 1.01672 0.86959 0.77755 0.0
C1083 C 0.93872 0.80556 0.78132 0.0
H1084 H 0.73881 0.49635 0.72817 0.0
H1085 H 0.7434 0.56721 0.73268 0.0
H1086 H 0.66963 0.42803 0.73328 0.0
H1087 H 0.60823 0.50201 0.74962 0.0
H1088 H 1.00938 0.9096 0.8277 0.0
H1089 H 0.94608 0.84541 0.8145 0.0
H1090 H 0.07768 0.94845 0.81001 0.0
H1091 H 1.01899 0.85831 0.76363 0.0
C1092 C 0.38928 0.27715 0.78454 0.0
C1093 C 0.41198 0.32517 0.7573 0.0
C1094 C 0.3896 0.28272 0.76506 0.0
C1095 C 0.43479 0.36145 0.76918 0.0
C1096 C 0.41128 0.31368 0.79651 0.0
C1097 C 0.43431 0.35574 0.78871 0.0
N1098 N 0.36804 0.23596 0.79178 0.0
C1099 C 0.36472 0.22917 0.81077 0.0
C1100 C 0.40966 0.30682 0.81599 0.0
C1101 C 0.38592 0.26443 0.82315 0.0
Gd1102 Gd 0.40677 0.12294 0.75762 0.0
Gd1103 Gd 0.33384 0.17941 0.76987 0.0
N1104 N 0.36756 0.24692 0.75377 0.0
C1105 C 0.41025 0.33006 0.73782 0.0
C1106 C 0.3627 0.25209 0.73501 0.0
C1107 C 0.38484 0.29344 0.7267 0.0
H1108 H 0.34078 0.22491 0.72636 0.0
H1109 H 0.38159 0.29714 0.71175 0.0
H1110 H 0.40045 0.06081 0.79389 0.0
H1111 H 0.3456 0.19664 0.81644 0.0
H1112 H 0.36101 0.98217 0.80256 0.0
H1113 H 0.42714 0.36208 0.73133 0.0
H1114 H 0.45247 0.39417 0.7634 0.0
H1115 H 0.41472 0.12491 0.71002 0.0
H1116 H 0.42617 0.33405 0.82564 0.0
H1117 H 0.38379 0.25891 0.83821 0.0
H1118 H 0.2864 0.90978 0.7456 0.0
H1119 H 0.45175 0.38412 0.79768 0.0
H1120 H 0.32191 0.99732 0.69003 0.0
H1121 H 0.37608 0.07538 0.68355 0.0
N1122 N 0.37926 0.07741 0.731 0.0
C1123 C 0.35355 0.03408 0.73459 0.0
C1124 C 0.38977 0.09175 0.7129 0.0
C1125 C 0.33856 0.01951 0.7015 0.0
C1126 C 0.36865 0.06339 0.69786 0.0
C1127 C 0.33211 1.00396 0.71997 0.0
H1128 H 0.28941 0.93565 0.71311 0.0
N1129 N 0.37441 0.04937 0.76629 0.0
C1130 C 0.35171 0.01944 0.75279 0.0
C1131 C 0.33102 0.96113 0.77529 0.0
C1132 C 0.32853 0.97448 0.75698 0.0
C1133 C 0.37927 0.03663 0.7838 0.0
C1134 C 0.35737 0.99231 0.78863 0.0
O1135 O 0.40536 0.20966 0.77786 0.0
O1136 O 0.43308 0.19456 0.75206 0.0
O1137 O 0.46861 0.1482 0.77218 0.0
O1138 O 0.45788 0.11242 0.74622 0.0
O1139 O 0.33334 0.1596 0.73907 0.0
O1140 O 0.40034 0.16415 0.73472 0.0
O1141 O 0.33766 0.08215 0.76902 0.0
O1142 O 0.30292 0.11413 0.75498 0.0
O1143 O 0.29426 0.21004 0.76722 0.0
O1144 O 0.26908 0.15037 0.7829 0.0
O1145 O 0.40337 0.13701 0.78843 0.0
O1146 O 0.33989 0.14026 0.79469 0.0
C1147 C 0.4362 0.22195 0.76519 0.0
C1148 C 0.36532 0.16355 0.72807 0.0
C1149 C 0.51117 0.11493 0.76739 0.0
C1150 C 0.58266 0.12709 0.77684 0.0
C1151 C 0.5177 0.05654 0.78209 0.0
C1152 C 0.49197 0.07174 0.77384 0.0
C1153 C 0.56277 0.0841 0.78373 0.0
C1154 C 0.55657 0.14229 0.76869 0.0
C1155 C 0.48491 0.1331 0.75989 0.0
C1156 C 0.30493 0.94448 0.74265 0.0
C1157 C 0.30658 0.95923 0.72417 0.0
H1158 H 0.31399 0.92685 0.77907 0.0
C1159 C 0.30176 0.0797 0.76248 0.0
C1160 C 0.37214 0.13319 0.79981 0.0
C1161 C 0.21897 0.1643 0.76559 0.0
C1162 C 0.15805 0.17533 0.75637 0.0
C1163 C 0.17017 0.12149 0.74026 0.0
C1164 C 0.20649 0.13242 0.75154 0.0
C1165 C 0.14627 0.14281 0.74256 0.0
C1166 C 0.19451 0.18564 0.76802 0.0
C1167 C 0.26063 0.17946 0.77583 0.0
H1168 H 0.5027 0.02327 0.78718 0.0
H1169 H 0.4573 0.04987 0.77253 0.0
H1170 H 0.58219 0.07158 0.79003 0.0
H1171 H 0.57154 0.17565 0.76361 0.0
H1172 H 0.16081 0.09669 0.7295 0.0
H1173 H 0.22558 0.11685 0.74899 0.0
H1174 H 0.11815 0.13342 0.73363 0.0
H1175 H 0.20467 0.21112 0.77853 0.0
C1176 C 0.8034 0.15376 0.79476 0.0
C1177 C 0.74048 0.1166 0.77422 0.0
C1178 C 0.78599 0.14256 0.77672 0.0
C1179 C 0.71295 0.10199 0.79002 0.0
C1180 C 0.7758 0.13935 0.81065 0.0
C1181 C 0.73055 0.11339 0.80818 0.0
N1182 N 0.8474 0.17813 0.79678 0.0
C1183 C 0.86597 0.18839 0.81422 0.0
C1184 C 0.79459 0.15096 0.82859 0.0
C1185 C 0.83989 0.17548 0.83037 0.0
Gd1186 Gd 0.93706 0.31771 0.74688 0.0
Gd1187 Gd 0.88846 0.19616 0.76901 0.0
N1188 N 0.8135 0.15716 0.76166 0.0
C1189 C 0.72394 0.10595 0.75591 0.0
C1190 C 0.79753 0.14468 0.74384 0.0
C1191 C 0.75263 0.11981 0.74067 0.0
H1192 H 0.81897 0.1525 0.73199 0.0
H1193 H 0.74022 0.11062 0.72648 0.0
H1194 H 0.02525 0.33649 0.77317 0.0
H1195 H 0.90094 0.20543 0.81573 0.0
H1196 H 0.10511 0.38134 0.7709 0.0
H1197 H 0.68918 0.08642 0.7534 0.0
H1198 H 0.67794 0.08209 0.78834 0.0
H1199 H 0.89829 0.31744 0.70391 0.0
H1200 H 0.77449 0.14061 0.84114 0.0
H1201 H 0.85477 0.18384 0.8442 0.0
H1202 H 0.13009 0.44309 0.70888 0.0
H1203 H 0.70884 0.10196 0.8202 0.0
H1204 H 1.00655 0.40003 0.66862 0.0
H1205 H 0.92718 0.35125 0.67285 0.0
N1206 N 0.96084 0.34308 0.71636 0.0
C1207 C 1.00462 0.36881 0.71424 0.0
C1208 C 0.93307 0.33644 0.70179 0.0
C1209 C 0.99414 0.38392 0.68204 0.0
C1210 C 0.94931 0.35634 0.68435 0.0
C1211 C 0.02243 0.39047 0.69706 0.0
H1212 H 0.08196 0.436 0.68257 0.0
N1213 N 1.01369 0.35245 0.74573 0.0
C1214 C 0.03179 0.37375 0.72933 0.0
C1215 C 0.10394 0.40276 0.74261 0.0
C1216 C 0.07742 0.39985 0.72742 0.0
C1217 C 0.03952 0.35502 0.76054 0.0
C1218 C 0.08489 0.37986 0.75917 0.0
O1219 O 0.85246 0.23303 0.77462 0.0
O1220 O 0.86332 0.274 0.74787 0.0
O1221 O 0.94897 0.37223 0.76471 0.0
O1222 O 0.92326 0.36791 0.73677 0.0
O1223 O 0.89635 0.20532 0.7365 0.0
O1224 O 0.8847 0.26276 0.73062 0.0
O1225 O 0.97635 0.28234 0.74166 0.0
O1226 O 0.96062 0.23958 0.76806 0.0
O1227 O 0.88285 0.1373 0.75609 0.0
O1228 O 0.89878 0.15014 0.78546 0.0
O1229 O 0.92643 0.30609 0.77795 0.0
O1230 O 0.93861 0.25192 0.78832 0.0
C1231 C 0.83875 0.2509 0.76216 0.0
C1232 C 0.8864 0.22853 0.72488 0.0
C1233 C 0.89519 0.39213 0.7611 0.0
C1234 C 0.8564 0.4327 0.7648 0.0
C1235 C 0.83006 0.36277 0.78051 0.0
C1236 C 0.86467 0.35955 0.77309 0.0
C1237 C 0.82586 0.39898 0.77641 0.0
C1238 C 0.89087 0.42875 0.75688 0.0
C1239 C 0.93094 0.3871 0.7531 0.0
C1240 C 0.09516 0.42233 0.71049 0.0
C1241 C 0.06773 0.41809 0.69546 0.0
H1242 H 0.13913 0.42228 0.74164 0.0
C1243 C 0.98372 0.25666 0.75287 0.0
C1244 C 0.94515 0.29235 0.78971 0.0
C1245 C 0.85315 0.07556 0.7766 0.0
C1246 C 0.81542 0.99619 0.77066 0.0
C1247 C 0.79035 0.02573 0.79547 0.0
C1248 C 0.8239 0.06776 0.79144 0.0
C1249 C 0.78592 0.99032 0.78513 0.0
C1250 C 0.84925 0.03922 0.76637 0.0
C1251 C 0.88719 0.12145 0.77198 0.0
H1252 H 0.80652 0.33718 0.78957 0.0
H1253 H 0.86764 0.33158 0.77684 0.0
H1254 H 0.79854 0.40058 0.78235 0.0
H1255 H 0.91461 0.4543 0.74785 0.0
H1256 H 0.76794 0.0205 0.80686 0.0
H1257 H 0.82705 0.09406 0.80019 0.0
H1258 H 0.76002 0.9579 0.78889 0.0
H1259 H 0.87212 0.04436 0.75518 0.0
C1260 C 0.37831 0.25981 0.55101 0.0
C1261 C 0.3579 0.29631 0.57448 0.0
C1262 C 0.37462 0.26873 0.56982 0.0
C1263 C 0.34562 0.3152 0.56006 0.0
C1264 C 0.36536 0.27822 0.53653 0.0
C1265 C 0.34922 0.3061 0.54116 0.0
N1266 N 0.39394 0.23259 0.54691 0.0
C1267 C 0.39828 0.22314 0.52868 0.0
C1268 C 0.36901 0.26807 0.51781 0.0
C1269 C 0.38556 0.24044 0.51388 0.0
Gd1270 Gd 0.34117 0.08147 0.58994 0.0
Gd1271 Gd 0.41819 0.20935 0.57275 0.0
N1272 N 0.38531 0.24872 0.58351 0.0
C1273 C 0.35331 0.30348 0.5935 0.0
C1274 C 0.38212 0.2567 0.60207 0.0
C1275 C 0.36558 0.28368 0.60734 0.0
H1276 H 0.39326 0.24342 0.6129 0.0
H1277 H 0.36285 0.28965 0.62209 0.0
H1278 H 0.39069 0.05575 0.55583 0.0
H1279 H 0.41253 0.2032 0.52542 0.0
H1280 H 0.42578 1.01137 0.55205 0.0
H1281 H 0.34049 0.32435 0.59765 0.0
H1282 H 0.33274 0.33647 0.56339 0.0
H1283 H 0.30944 0.0711 0.63469 0.0
H1284 H 0.35939 0.28156 0.50629 0.0
H1285 H 0.38902 0.23287 0.49944 0.0
H1286 H 0.41642 0.95096 0.61355 0.0
H1287 H 0.33923 0.32063 0.53021 0.0
H1288 H 0.3454 0.98569 0.66206 0.0
H1289 H 0.31015 0.03146 0.66309 0.0
N1290 N 0.3437 0.04844 0.61796 0.0
C1291 C 0.3625 0.02316 0.61699 0.0
C1292 C 0.32548 0.05198 0.63428 0.0
C1293 C 0.34526 1.00347 0.64969 0.0
C1294 C 0.32564 0.0293 0.65034 0.0
C1295 C 0.36405 1.0002 0.63291 0.0
H1296 H 0.3852 0.95645 0.64367 0.0
N1297 N 0.37752 0.04215 0.58481 0.0
C1298 C 0.3798 0.0198 0.59995 0.0
C1299 C 0.41639 0.99095 0.58108 0.0
C1300 C 0.39948 0.99373 0.5985 0.0
C1301 C 0.39313 0.03876 0.56774 0.0
C1302 C 0.41309 1.01351 0.56562 0.0
O1303 O 0.34468 0.17892 0.5694 0.0
O1304 O 0.32032 0.13109 0.5941 0.0
O1305 O 0.29172 0.03317 0.57137 0.0
O1306 O 0.27668 0.03578 0.60073 0.0
O1307 O 0.42025 0.19313 0.60421 0.0
O1308 O 0.35186 0.13382 0.61073 0.0
O1309 O 0.41501 0.11123 0.59392 0.0
O1310 O 0.44233 0.16188 0.5701 0.0
O1311 O 0.47258 0.26721 0.58592 0.0
O1312 O 0.47473 0.25516 0.55643 0.0
O1313 O 0.34152 0.10437 0.56028 0.0
O1314 O 0.40963 0.15672 0.55119 0.0
C1315 C 0.31289 0.1511 0.58034 0.0
C1316 C 0.38933 0.16708 0.61625 0.0
C1317 C 0.23368 0.96866 0.58505 0.0
C1318 C 0.16008 0.90548 0.58703 0.0
C1319 C 0.22309 0.89543 0.58577 0.0
C1320 C 0.25098 0.94065 0.58492 0.0
C1321 C 0.17792 0.87789 0.58689 0.0
C1322 C 0.18816 0.95094 0.58603 0.0
C1323 C 0.26224 0.01641 0.58461 0.0
C1324 C 0.40145 0.97114 0.6144 0.0
C1325 C 0.38371 0.9743 0.63155 0.0
H1326 H 0.43177 0.9713 0.5794 0.0
C1327 C 0.44802 0.14054 0.58379 0.0
C1328 C 0.37326 0.11911 0.54809 0.0
C1329 C 0.50448 0.32969 0.56556 0.0
C1330 C 0.54487 0.40907 0.57194 0.0
C1331 C 0.49364 0.37989 0.54584 0.0
C1332 C 0.48499 0.33787 0.55 0.0
C1333 C 0.523 0.41507 0.55673 0.0
C1334 C 0.53542 0.36593 0.57639 0.0
C1335 C 0.49237 0.2835 0.57 0.0
H1336 H 0.23655 0.87389 0.58569 0.0
H1337 H 0.28589 0.95374 0.58424 0.0
H1338 H 0.15686 0.84278 0.58768 0.0
H1339 H 0.17463 0.97248 0.58626 0.0
H1340 H 0.47789 0.38529 0.53391 0.0
H1341 H 0.46317 0.31184 0.54077 0.0
H1342 H 0.5297 0.44749 0.55284 0.0
H1343 H 0.5518 0.36066 0.58812 0.0
C1344 C 0.83206 0.14214 0.54825 0.0
C1345 C 0.79445 0.08284 0.57077 0.0
C1346 C 0.82053 0.12791 0.56688 0.0
C1347 C 0.7801 0.05251 0.55596 0.0
C1348 C 0.81751 0.11148 0.5334 0.0
C1349 C 0.79149 0.06676 0.53736 0.0
N1350 N 0.85787 0.1857 0.54467 0.0
C1351 C 0.86773 0.20069 0.52659 0.0
C1352 C 0.82941 0.12661 0.51493 0.0
C1353 C 0.85433 0.17139 0.51151 0.0
Gd1354 Gd 1.00129 0.27832 0.58713 0.0
Gd1355 Gd 0.876 0.23114 0.57112 0.0
N1356 N 0.83473 0.15792 0.58112 0.0
C1357 C 0.78337 0.06941 0.58947 0.0
C1358 C 0.82172 0.1449 0.59925 0.0
C1359 C 0.79674 0.10059 0.60373 0.0
H1360 H 0.82901 0.16816 0.61036 0.0
H1361 H 0.7871 0.09054 0.61816 0.0
H1362 H 0.05796 0.35301 0.55431 0.0
H1363 H 0.88515 0.23517 0.52354 0.0
H1364 H 0.10366 0.43347 0.55186 0.0
H1365 H 0.76374 0.0351 0.59301 0.0
H1366 H 0.76024 0.01783 0.55875 0.0
H1367 H 1.0062 0.25467 0.63263 0.0
H1368 H 0.81895 0.10404 0.50318 0.0
H1369 H 0.86275 0.18342 0.49722 0.0
H1370 H 0.11462 0.48293 0.61564 0.0
H1371 H 0.78019 0.04284 0.52612 0.0
H1372 H 0.06473 0.37359 0.66367 0.0
H1373 H 0.02879 0.29335 0.663 0.0
N1374 N 0.02224 0.31175 0.61677 0.0
C1375 C 0.04419 0.35616 0.6167 0.0
C1376 C 1.01849 0.28936 0.63298 0.0
C1377 C 0.05235 0.35672 0.65049 0.0
C1378 C 0.03234 0.31132 0.65014 0.0
C1379 C 0.05922 0.37987 0.63365 0.0
H1380 H 0.09428 0.44447 0.64606 0.0
N1381 N 0.04547 0.35392 0.58345 0.0
C1382 C 0.05632 0.37792 0.59953 0.0
C1383 C 0.09868 0.44396 0.58146 0.0
C1384 C 0.08284 0.42376 0.59893 0.0
C1385 C 0.0641 0.37292 0.56666 0.0
C1386 C 0.09012 0.41833 0.56531 0.0
O1387 O 0.91183 0.19364 0.5658 0.0
O1388 O 0.95489 0.20618 0.59171 0.0
O1389 O 0.03648 0.25467 0.57025 0.0
O1390 O 0.0635 0.28778 0.59653 0.0
O1391 O 0.88658 0.23885 0.60325 0.0
O1392 O 0.95069 0.23737 0.60869 0.0
O1393 O 0.97938 0.326 0.57792 0.0
O1394 O 0.90929 0.29319 0.58847 0.0
O1395 O 0.80609 0.20242 0.57277 0.0
O1396 O 0.84339 0.26426 0.55886 0.0
O1397 O 0.98053 0.26083 0.55712 0.0
O1398 O 0.92777 0.27728 0.5494 0.0
C1399 C 0.92805 0.17946 0.57887 0.0
C1400 C 0.91336 0.23304 0.6144 0.0
C1401 C 0.07061 0.22727 0.58986 0.0
C1402 C 0.11202 0.18919 0.58997 0.0
C1403 C 0.05249 0.16903 0.61228 0.0
C1404 C 0.0448 0.20085 0.60473 0.0
C1405 C 0.08632 0.16375 0.60527 0.0
C1406 C 0.10287 0.22036 0.58209 0.0
C1407 C 0.06561 0.26373 0.58325 0.0
C1408 C 0.09469 0.44765 0.61582 0.0
C1409 C 0.08306 0.42573 0.63315 0.0
H1410 H 0.11917 0.47911 0.58041 0.0
C1411 C 0.94471 0.32829 0.58272 0.0
C1412 C 0.96571 0.27957 0.54581 0.0
C1413 C 0.77764 0.24851 0.57499 0.0
C1414 C 0.70469 0.23551 0.58285 0.0
C1415 C 0.76747 0.28494 0.60182 0.0
C1416 C 0.79449 0.2761 0.59064 0.0
C1417 C 0.72286 0.26471 0.59803 0.0
C1418 C 0.73263 0.22824 0.57111 0.0
C1419 C 0.80488 0.23462 0.56479 0.0
H1420 H 0.03306 0.14931 0.624 0.0
H1421 H 1.01946 0.20558 0.61082 0.0
H1422 H 0.09281 0.14053 0.61235 0.0
H1423 H 0.12113 0.2401 0.57016 0.0
H1424 H 0.78093 0.30661 0.61379 0.0
H1425 H 0.82813 0.28922 0.59462 0.0
H1426 H 0.70249 0.27172 0.60706 0.0
H1427 H 0.7191 0.20521 0.55956 0.0
C1428 C 0.95043 0.71933 0.55471 0.0
C1429 C 1.00133 0.73936 0.58067 0.0
C1430 C 0.95809 0.72013 0.57391 0.0
C1431 C 0.03639 0.75908 0.56799 0.0
C1432 C 0.98554 0.73849 0.54189 0.0
C1433 C 0.02851 0.7587 0.54865 0.0
N1434 N 0.9086 0.69981 0.54854 0.0
C1435 C 0.89946 0.69671 0.52975 0.0
C1436 C 0.97641 0.73669 0.52262 0.0
C1437 C 0.93315 0.71539 0.51652 0.0
Gd1438 Gd 0.80593 0.74655 0.59214 0.0
Gd1439 Gd 0.85382 0.6711 0.57151 0.0
N1440 N 0.92343 0.70125 0.5859 0.0
C1441 C 1.00813 0.73764 0.59997 0.0
C1442 C 0.93017 0.69611 0.60447 0.0
C1443 C 0.97237 0.71524 0.61185 0.0
H1444 H 0.9036 0.67591 0.6137 0.0
H1445 H 0.97727 0.71179 0.62667 0.0
H1446 H 0.71381 0.68541 0.56683 0.0
H1447 H 0.86614 0.67906 0.5249 0.0
H1448 H 0.63566 0.66045 0.56943 0.0
H1449 H 0.04079 0.75219 0.60571 0.0
H1450 H 0.06973 0.77446 0.573 0.0
H1451 H 0.85029 0.79306 0.63303 0.0
H1452 H 1.00247 0.75115 0.51235 0.0
H1453 H 0.92572 0.71311 0.50162 0.0
H1454 H 0.62132 0.71132 0.63014 0.0
H1455 H 0.05588 0.77389 0.53903 0.0
H1456 H 0.7504 0.79032 0.66777 0.0
H1457 H 0.82739 0.81075 0.66313 0.0
N1458 N 0.78615 0.75844 0.622 0.0
C1459 C 0.74346 0.74571 0.62446 0.0
C1460 C 0.81617 0.7812 0.63564 0.0
C1461 C 0.75982 0.78042 0.65501 0.0
C1462 C 0.80341 0.79214 0.65244 0.0
C1463 C 0.7291 0.75663 0.64101 0.0
H1464 H 0.67337 0.75374 0.65507 0.0
N1465 N 0.72971 0.71507 0.59394 0.0
C1466 C 0.71436 0.72329 0.61003 0.0
C1467 C 0.64128 0.68702 0.59725 0.0
C1468 C 0.6698 0.70995 0.61202 0.0
C1469 C 0.70201 0.69299 0.57941 0.0
C1470 C 0.65746 0.67833 0.58091 0.0
O1471 O 0.88632 0.7431 0.56465 0.0
O1472 O 0.87848 0.7692 0.59271 0.0
O1473 O 0.8253 0.79648 0.57056 0.0
O1474 O 0.81536 0.81047 0.59926 0.0
O1475 O 0.83569 0.66612 0.60305 0.0
O1476 O 0.85299 0.73637 0.60944 0.0
O1477 O 0.76049 0.67218 0.59659 0.0
O1478 O 0.78214 0.64718 0.57152 0.0
O1479 O 0.8596 0.61472 0.58016 0.0
O1480 O 0.83363 0.61534 0.55292 0.0
O1481 O 0.79113 0.73037 0.56151 0.0
O1482 O 0.82097 0.69031 0.54825 0.0
C1483 C 0.90161 0.7737 0.57751 0.0
C1484 C 0.84387 0.69761 0.61527 0.0
C1485 C 0.80455 0.84995 0.5752 0.0
C1486 C 0.81063 0.92038 0.56793 0.0
C1487 C 0.74307 0.85259 0.56169 0.0
C1488 C 0.76147 0.82845 0.56861 0.0
C1489 C 0.76753 0.89822 0.5612 0.0
C1490 C 0.82887 0.89594 0.5751 0.0
C1491 C 0.8248 0.82504 0.58209 0.0
C1492 C 0.6553 0.72067 0.62848 0.0
C1493 C 0.68496 0.74448 0.6428 0.0
H1494 H 0.6068 0.67605 0.59829 0.0
C1495 C 0.75694 0.63953 0.58612 0.0
C1496 C 0.79961 0.71244 0.54711 0.0
C1497 C 0.87247 0.57641 0.55558 0.0
C1498 C 0.89926 0.52385 0.55633 0.0
C1499 C 0.91187 0.57035 0.52886 0.0
C1500 C 0.89037 0.58951 0.5375 0.0
C1501 C 0.91585 0.53766 0.53799 0.0
C1502 C 0.87728 0.54364 0.56503 0.0
C1503 C 0.84674 0.59498 0.56405 0.0
H1504 H 0.70984 0.83588 0.55656 0.0
H1505 H 0.74225 0.7931 0.56873 0.0
H1506 H 0.75273 0.91629 0.55565 0.0
H1507 H 0.86223 0.91263 0.58015 0.0
H1508 H 0.92487 0.58035 0.51479 0.0
H1509 H 0.88698 0.61392 0.52975 0.0
H1510 H 0.93122 0.52258 0.53031 0.0
H1511 H 0.86377 0.53366 0.57903 0.0
H1512 H 0.51605 0.92732 0.07532 0.0
H1513 H 0.43691 0.89695 0.12526 0.0
H1514 H 0.44094 0.83043 0.12987 0.0
H1515 H 0.46833 0.78194 0.12001 0.0
H1516 H 0.54864 0.81317 0.07031 0.0
H1517 H 0.54417 0.87931 0.06566 0.0
C1518 C 0.49996 0.90623 0.08727 0.0
C1519 C 0.47655 0.91707 0.10003 0.0
C1520 C 0.50305 0.86857 0.08997 0.0
C1521 C 0.45499 0.8891 0.11523 0.0
C1522 C 0.45756 0.8513 0.11793 0.0
C1523 C 0.4846 0.80304 0.10807 0.0
C1524 C 0.50861 0.79246 0.09547 0.0
C1525 C 0.48166 0.84083 0.10542 0.0
C1526 C 0.53025 0.82068 0.0803 0.0
C1527 C 0.52741 0.85831 0.07755 0.0
H1528 H 0.20261 0.7408 0.04274 0.0
H1529 H 0.27735 0.78281 0.09429 0.0
H1530 H 0.22926 0.71158 0.10838 0.0
H1531 H 0.16986 0.63424 0.10505 0.0
H1532 H 0.1035 0.59132 0.0518 0.0
H1533 H 0.14538 0.66511 0.0392 0.0
C1534 C 0.20922 0.73456 0.05695 0.0
C1535 C 0.24449 0.76762 0.06716 0.0
C1536 C 0.18317 0.69268 0.06462 0.0
C1537 C 0.25054 0.75868 0.08594 0.0
C1538 C 0.22328 0.71753 0.09401 0.0
C1539 C 0.16474 0.64131 0.09071 0.0
C1540 C 0.1339 0.60738 0.07926 0.0
C1541 C 0.19015 0.68388 0.08332 0.0
C1542 C 0.12752 0.61672 0.06072 0.0
C1543 C 0.15128 0.65901 0.05356 0.0
H1544 H 0.31103 0.50035 0.07839 0.0
H1545 H 0.30428 0.47002 0.13761 0.0
H1546 H 0.38348 0.50433 0.13896 0.0
H1547 H 0.45441 0.53996 0.12318 0.0
H1548 H 0.46244 0.56751 0.06374 0.0
H1549 H 0.38338 0.53855 0.06266 0.0
C1550 C 0.32703 0.50178 0.09161 0.0
C1551 C 0.30168 0.48246 0.10786 0.0
C1552 C 0.37283 0.52104 0.09224 0.0
C1553 C 0.3229 0.48422 0.12487 0.0
C1554 C 0.36823 0.50396 0.12567 0.0
C1555 C 0.4388 0.53932 0.10995 0.0
C1556 C 0.46405 0.55498 0.09349 0.0
C1557 C 0.39344 0.52181 0.1094 0.0
C1558 C 0.44364 0.55544 0.07659 0.0
C1559 C 0.39843 0.53866 0.07597 0.0
H1560 H 0.92308 0.5166 0.88134 0.0
H1561 H 0.90136 0.48784 0.94075 0.0
H1562 H 0.8543 0.5198 0.94186 0.0
H1563 H 0.82585 0.56324 0.92678 0.0
H1564 H 0.85268 0.59744 0.86808 0.0
H1565 H 0.89111 0.55622 0.86584 0.0
C1566 C 0.90775 0.51698 0.8945 0.0
C1567 C 0.91648 0.50056 0.911 0.0
C1568 C 0.88195 0.53687 0.8952 0.0
C1569 C 0.89554 0.50046 0.92784 0.0
C1570 C 0.86884 0.51908 0.92853 0.0
C1571 C 0.83972 0.56118 0.91347 0.0
C1572 C 0.8366 0.58339 0.89764 0.0
C1573 C 0.8629 0.53856 0.91244 0.0
C1574 C 0.85501 0.58087 0.88049 0.0
C1575 C 0.87687 0.55725 0.8792 0.0
H1576 H 0.54342 0.32726 0.88888 0.0
H1577 H 0.52934 0.30627 0.94887 0.0
H1578 H 0.54049 0.38006 0.95339 0.0
H1579 H 0.5577 0.45228 0.94008 0.0
H1580 H 0.57049 0.4708 0.87988 0.0
H1581 H 0.55711 0.39671 0.87565 0.0
C1582 C 0.54275 0.3388 0.90296 0.0
C1583 C 0.53606 0.31152 0.91853 0.0
C1584 C 0.54961 0.38115 0.90541 0.0
C1585 C 0.53433 0.3266 0.93665 0.0
C1586 C 0.5411 0.36893 0.93924 0.0
C1587 C 0.55807 0.44007 0.92611 0.0
C1588 C 0.56571 0.46709 0.91032 0.0
C1589 C 0.54957 0.39685 0.92373 0.0
C1590 C 0.56502 0.45069 0.89224 0.0
C1591 C 0.55722 0.40828 0.8898 0.0
H1592 H 0.61237 0.13122 0.94114 0.0
H1593 H 0.60281 0.1412 0.88101 0.0
H1594 H 0.68217 0.18604 0.87868 0.0
H1595 H 0.75472 0.21826 0.8936 0.0
H1596 H 0.76439 0.20544 0.95346 0.0
H1597 H 0.68463 0.16548 0.95616 0.0
C1598 C 0.62771 0.14411 0.92762 0.0
C1599 C 0.60204 0.13317 0.91127 0.0
C1600 C 0.67336 0.16866 0.92635 0.0
C1601 C 0.62214 0.14935 0.89376 0.0
C1602 C 0.66745 0.17477 0.89242 0.0
C1603 C 0.7391 0.20673 0.90718 0.0
C1604 C 0.76479 0.2143 0.92331 0.0
C1605 C 0.69343 0.18379 0.90856 0.0
C1606 C 0.74479 0.19953 0.94091 0.0
C1607 C 0.69938 0.17694 0.94244 0.0
H1608 H 0.22306 0.16012 0.40375 0.0
H1609 H 0.13489 0.08805 0.44886 0.0
H1610 H 0.12181 0.1488 0.45479 0.0
H1611 H 0.13299 0.22151 0.44611 0.0
H1612 H 0.2173 0.29058 0.39935 0.0
H1613 H 0.23444 0.23255 0.39519 0.0
C1614 C 0.20163 0.15816 0.41508 0.0
C1615 C 0.18029 0.11994 0.42597 0.0
C1616 C 0.19325 0.19267 0.41802 0.0
C1617 C 0.15183 0.11733 0.44037 0.0
C1618 C 0.14418 0.15195 0.44369 0.0
C1619 C 0.155 0.22374 0.43499 0.0
C1620 C 0.17439 0.26084 0.42328 0.0
C1621 C 0.16414 0.18956 0.43239 0.0
C1622 C 0.20274 0.26305 0.4089 0.0
C1623 C 0.21241 0.22965 0.40641 0.0
H1624 H 0.91157 0.08876 0.42473 0.0
H1625 H 0.88691 0.07643 0.36489 0.0
H1626 H 0.84323 0.99708 0.36802 0.0
H1627 H 0.8099 0.93134 0.38793 0.0
H1628 H 0.83157 0.9437 0.44787 0.0
H1629 H 0.87949 0.02276 0.44455 0.0
C1630 C 0.89712 0.06864 0.41235 0.0
C1631 C 0.90255 0.0885 0.3946 0.0
C1632 C 0.87187 0.02304 0.41426 0.0
C1633 C 0.8829 0.06201 0.37874 0.0
C1634 C 0.85816 0.01662 0.38049 0.0
C1635 C 0.82589 0.95135 0.40016 0.0
C1636 C 0.81769 0.93201 0.41807 0.0
C1637 C 0.85224 0.9968 0.39818 0.0
C1638 C 0.83767 0.95814 0.43394 0.0
C1639 C 0.86491 1.00325 0.43204 0.0
H1640 H 0.13147 0.89443 0.41289 0.0
H1641 H 0.15031 0.90456 0.47307 0.0
H1642 H 0.07148 0.86909 0.47791 0.0
H1643 H 0.99708 0.8288 0.46499 0.0
H1644 H 0.97846 0.81705 0.40481 0.0
H1645 H 0.05735 0.85916 0.39995 0.0
C1646 C 0.11832 0.88997 0.42703 0.0
C1647 C 0.14639 0.90198 0.44262 0.0
C1648 C 0.07303 0.86843 0.42969 0.0
C1649 C 0.12907 0.89552 0.46089 0.0
C1650 C 0.08409 0.87503 0.46365 0.0
C1651 C 1.01043 0.83557 0.45084 0.0
C1652 C 0.98223 0.8196 0.43528 0.0
C1653 C 0.05572 0.86007 0.44817 0.0
C1654 C 0.99969 0.82904 0.41698 0.0
C1655 C 0.0447 0.85316 0.4142 0.0
H1656 H 0.53335 0.90968 0.20583 0.0
H1657 H 0.522 0.92139 0.26571 0.0
H1658 H 0.55909 0.87985 0.27166 0.0
H1659 H 0.59929 0.84461 0.25972 0.0
H1660 H 0.61096 0.83374 0.19978 0.0
H1661 H 0.56815 0.8693 0.19392 0.0
C1662 C 0.53899 0.90302 0.22016 0.0
C1663 C 0.52545 0.91886 0.23532 0.0
C1664 C 0.55977 0.87868 0.22345 0.0
C1665 C 0.53228 0.90952 0.25384 0.0
C1666 C 0.55336 0.88571 0.25724 0.0
C1667 C 0.59133 0.84894 0.24542 0.0
C1668 C 0.60822 0.83672 0.2302 0.0
C1669 C 0.56762 0.87046 0.24215 0.0
C1670 C 0.59824 0.84298 0.21171 0.0
C1671 C 0.57403 0.86354 0.20835 0.0
H1672 H 0.21386 0.77511 0.23099 0.0
H1673 H 0.27782 0.82153 0.28463 0.0
H1674 H 0.26381 0.74893 0.29254 0.0
H1675 H 0.23695 0.67334 0.28392 0.0
H1676 H 0.17766 0.62571 0.22957 0.0
H1677 H 0.18436 0.69685 0.2226 0.0
C1678 C 0.22423 0.76915 0.24448 0.0
C1679 C 0.24676 0.80399 0.25726 0.0
C1680 C 0.21666 0.72693 0.24886 0.0
C1681 C 0.26052 0.79568 0.27454 0.0
C1682 C 0.25243 0.75399 0.27911 0.0
C1683 C 0.22572 0.67842 0.27045 0.0
C1684 C 0.20765 0.64433 0.25715 0.0
C1685 C 0.23115 0.71959 0.26629 0.0
C1686 C 0.1918 0.65126 0.24008 0.0
C1687 C 0.19601 0.69212 0.23602 0.0
H1688 H 0.42644 0.55188 0.27861 0.0
H1689 H 0.46065 0.56587 0.21985 0.0
H1690 H 0.3832 0.52991 0.21109 0.0
H1691 H 0.3055 0.48782 0.22057 0.0
H1692 H 0.2731 0.47716 0.27971 0.0
H1693 H 0.34971 0.51886 0.28786 0.0
C1694 C 0.41671 0.547 0.26391 0.0
C1695 C 0.44857 0.56034 0.24987 0.0
C1696 C 0.37248 0.52693 0.25906 0.0
C1697 C 0.43621 0.55509 0.23084 0.0
C1698 C 0.39209 0.53482 0.22586 0.0
C1699 C 0.31529 0.49534 0.2352 0.0
C1700 C 0.28354 0.47825 0.24948 0.0
C1701 C 0.35983 0.51962 0.23989 0.0
C1702 C 0.29667 0.48909 0.26837 0.0
C1703 C 0.34064 0.51287 0.27312 0.0
H1704 H 0.82724 0.58767 0.73838 0.0
H1705 H 0.80525 0.58998 0.798 0.0
H1706 H 0.82036 0.53063 0.80311 0.0
H1707 H 0.83979 0.47825 0.79081 0.0
H1708 H 0.86265 0.47484 0.73136 0.0
H1709 H 0.84829 0.53509 0.726 0.0
C1710 C 0.82512 0.57456 0.7524 0.0
C1711 C 0.81458 0.59263 0.76778 0.0
C1712 C 0.83463 0.54077 0.75529 0.0
C1713 C 0.81295 0.57626 0.78596 0.0
C1714 C 0.82177 0.54249 0.7889 0.0
C1715 C 0.84146 0.49054 0.77665 0.0
C1716 C 0.8518 0.47177 0.76148 0.0
C1717 C 0.83272 0.5246 0.77369 0.0
C1718 C 0.85491 0.48882 0.74329 0.0
C1719 C 0.84632 0.52299 0.74021 0.0
H1720 H 0.58936 0.41809 0.77372 0.0
H1721 H 0.58669 0.40754 0.71323 0.0
H1722 H 0.52465 0.33311 0.71504 0.0
H1723 H 0.47441 0.26929 0.73383 0.0
H1724 H 0.47688 0.27824 0.79439 0.0
H1725 H 0.5356 0.35466 0.79267 0.0
C1726 C 0.57449 0.39963 0.76099 0.0
C1727 C 0.5922 0.41818 0.74334 0.0
C1728 C 0.53935 0.35633 0.76218 0.0
C1729 C 0.57327 0.39388 0.72692 0.0
C1730 C 0.53806 0.35127 0.72797 0.0
C1731 C 0.48801 0.28794 0.74665 0.0
C1732 C 0.47169 0.26813 0.76422 0.0
C1733 C 0.52149 0.33181 0.74551 0.0
C1734 C 0.48906 0.29284 0.7807 0.0
C1735 C 0.52257 0.33653 0.77971 0.0
H1736 H 0.63782 0.17102 0.74812 0.0
H1737 H 0.63478 0.14666 0.80776 0.0
H1738 H 0.71449 0.18956 0.80903 0.0
H1739 H 0.78492 0.22667 0.79251 0.0
H1740 H 0.78783 0.24651 0.73246 0.0
H1741 H 0.70857 0.21328 0.73201 0.0
C1742 C 0.65472 0.17558 0.76141 0.0
C1743 C 0.63067 0.15562 0.7778 0.0
C1744 C 0.70052 0.19908 0.7619 0.0
C1745 C 0.65276 0.16148 0.79494 0.0
C1746 C 0.69825 0.18606 0.79567 0.0
C1747 C 0.76818 0.22411 0.77936 0.0
C1748 C 0.7921 0.23822 0.76249 0.0
C1749 C 0.72249 0.20386 0.77914 0.0
C1750 C 0.77017 0.23564 0.74563 0.0
C1751 C 0.72478 0.21632 0.74534 0.0
H1752 H 0.12339 0.11781 0.59178 0.0
H1753 H 0.18781 0.25239 0.57288 0.0
H1754 H 0.25142 0.24804 0.56438 0.0
H1755 H 0.29238 0.20969 0.56581 0.0
H1756 H 0.23562 0.08339 0.59232 0.0
H1757 H 0.16563 0.08084 0.59447 0.0
C1758 C 0.15139 0.14671 0.58618 0.0
C1759 C 0.14997 0.18542 0.58324 0.0
C1760 C 0.18974 0.14558 0.58281 0.0
C1761 C 0.18659 0.22156 0.57506 0.0
C1762 C 0.22368 0.21948 0.5704 0.0
C1763 C 0.2651 0.18195 0.57227 0.0
C1764 C 0.26969 0.14753 0.57939 0.0
C1765 C 0.22608 0.18219 0.57476 0.0
C1766 C 0.23314 0.11076 0.58701 0.0
C1767 C 0.19315 0.10932 0.58828 0.0
H1768 H 0.85058 0.9786 0.59658 0.0
H1769 H 0.82845 0.97047 0.53665 0.0
H1770 H 0.86753 0.05018 0.53439 0.0
H1771 H 0.90277 0.12206 0.54975 0.0
H1772 H 0.92133 0.13081 0.60992 0.0
H1773 H 0.88931 0.05147 0.61185 0.0
C1774 C 0.8547 0.99445 0.58305 0.0
C1775 C 0.83661 0.96881 0.56679 0.0
C1776 C 0.87618 0.04043 0.58194 0.0
C1777 C 0.84189 0.9896 0.54934 0.0
C1778 C 0.86428 0.03513 0.54805 0.0
C1779 C 0.89991 0.10657 0.56328 0.0
C1780 C 0.91369 0.13221 0.5797 0.0
C1781 C 0.88068 0.06087 0.5643 0.0
C1782 C 0.91077 0.11182 0.59707 0.0
C1783 C 0.89221 0.06638 0.59819 0.0
H1784 H 0.10194 0.88965 0.55897 0.0
H1785 H 0.1115 0.87753 0.61887 0.0
H1786 H 0.03186 0.84036 0.62174 0.0
H1787 H 0.95923 0.80596 0.60676 0.0
H1788 H 0.94995 0.81317 0.54647 0.0
H1789 H 0.02925 0.85815 0.54415 0.0
C1790 C 0.08641 0.87943 0.57265 0.0
C1791 C 0.11225 0.88646 0.58873 0.0
C1792 C 0.04059 0.85735 0.57409 0.0
C1793 C 0.09204 0.87256 0.60636 0.0
C1794 C 0.04658 0.85136 0.60798 0.0
C1795 C 0.97458 0.81837 0.5932 0.0
C1796 C 0.94878 0.80649 0.57681 0.0
C1797 C 0.02043 0.84295 0.59191 0.0
C1798 C 0.96915 0.82204 0.55928 0.0
C1799 C 1.01452 0.84761 0.55794 0.0
H1800 H 0.46368 0.97485 0.0339 0.0
H1801 H 0.57092 0.10653 0.0406 0.0
H1802 H 0.58406 0.11111 0.00651 0.0
H1803 H 0.5604 0.08001 0.97455 0.0
H1804 H 0.45172 0.94933 0.96818 0.0
H1805 H 0.44428 0.9417 1.0025 0.0
C1806 C 0.49017 1.00465 0.02802 0.0
C1807 C 0.51592 0.04065 0.03991 0.0
C1808 C 0.49733 1.00704 0.00845 0.0
C1809 C 0.5505 0.07844 0.03189 0.0
C1810 C 0.55796 0.08105 0.01237 0.0
C1811 C 0.5357 0.0495 0.98073 0.0
C1812 C 0.50643 0.01528 0.96883 0.0
C1813 C 0.53104 0.04585 1.00048 0.0
C1814 C 0.47474 0.97595 0.97698 0.0
C1815 C 0.47022 0.97184 0.99661 0.0
H1816 H 0.97359 0.50603 0.97372 0.0
H1817 H 0.10888 0.54727 0.96395 0.0
H1818 H 0.12116 0.54937 0.99801 0.0
H1819 H 0.09165 0.53212 0.03009 0.0
H1820 H 0.95482 0.48402 0.03972 0.0
H1821 H 0.94473 0.49178 0.00607 0.0
C1822 C 1.00586 0.51573 0.97907 0.0
C1823 C 0.0401 0.52553 0.96633 0.0
C1824 C 1.01212 0.51497 0.99857 0.0
C1825 C 0.08198 0.53936 0.97343 0.0
C1826 C 0.08885 0.54011 0.99289 0.0
C1827 C 0.05944 0.5228 0.02488 0.0
C1828 C 0.0238 0.50649 0.03744 0.0
C1829 C 0.05382 0.52652 0.00552 0.0
C1830 C 0.98275 0.49641 0.03042 0.0
C1831 C 0.97699 0.50081 0.01118 0.0
H1832 H 0.58354 0.53007 0.97314 0.0
H1833 H 0.51405 0.60087 0.96894 0.0
H1834 H 0.51083 0.60326 1.00341 0.0
H1835 H 0.53308 0.59036 0.03464 0.0
H1836 H 0.60661 0.52351 0.03848 0.0
H1837 H 0.60279 0.51429 0.00426 0.0
C1838 C 0.56747 0.54589 0.97976 0.0
C1839 C 0.54963 0.5659 0.96845 0.0
C1840 C 0.56686 0.54816 0.99953 0.0
C1841 C 0.52809 0.58531 0.97727 0.0
C1842 C 0.52658 0.58697 0.99699 0.0
C1843 C 0.54845 0.5739 0.028 0.0
C1844 C 0.57085 0.55836 0.03915 0.0
C1845 C 0.5468 0.56944 0.00824 0.0
C1846 C 0.58939 0.536 0.03031 0.0
C1847 C 0.58732 0.53084 0.01071 0.0
H1848 H 0.22944 0.40144 0.36424 0.0
H1849 H 0.09377 0.30054 0.36729 0.0
H1850 H 0.09287 0.28659 0.33412 0.0
H1851 H 0.12731 0.30678 0.30316 0.0
H1852 H 0.25966 0.41215 0.2986 0.0
H1853 H 0.26529 0.41968 0.33287 0.0
C1854 C 0.19978 0.37637 0.35767 0.0
C1855 C 0.16198 0.35236 0.36864 0.0
C1856 C 0.19885 0.36858 0.33806 0.0
C1857 C 0.12383 0.31985 0.35962 0.0
C1858 C 0.12305 0.31143 0.34044 0.0
C1859 C 0.15791 0.32996 0.30977 0.0
C1860 C 0.19343 0.35773 0.29845 0.0
C1861 C 0.16009 0.33581 0.32944 0.0
C1862 C 0.23226 0.38939 0.3071 0.0
C1863 C 0.23527 0.39422 0.32671 0.0
H1864 H 0.65833 0.82898 0.35992 0.0
H1865 H 0.79484 0.87038 0.36554 0.0
H1866 H 0.80564 0.88425 0.33198 0.0
H1867 H 0.77486 0.8763 0.30005 0.0
H1868 H 0.63918 0.83759 0.29426 0.0
H1869 H 0.63013 0.83239 0.32836 0.0
C1870 C 0.69052 0.84175 0.35385 0.0
C1871 C 0.7252 0.84699 0.36531 0.0
C1872 C 0.69693 0.8503 0.33426 0.0
C1873 C 0.76691 0.86427 0.35709 0.0
C1874 C 0.7734 0.87265 0.33779 0.0
C1875 C 0.74379 0.86827 0.30629 0.0
C1876 C 0.70779 0.85704 0.29456 0.0
C1877 C 0.73844 0.86458 0.32608 0.0
C1878 C 0.66749 0.8461 0.30295 0.0
C1879 C 0.6621 0.8428 0.32251 0.0
H1880 H 0.19525 0.90989 0.31227 0.0
H1881 H 0.29664 0.87749 0.30514 0.0
H1882 H 0.29652 0.86402 0.33849 0.0
H1883 H 0.27359 0.86874 0.37068 0.0
H1884 H 0.17267 0.90129 0.37851 0.0
H1885 H 0.16602 0.90615 0.34448 0.0
C1886 C 0.21681 0.89929 0.31798 0.0
C1887 C 0.24667 0.89595 0.306 0.0
C1888 C 0.21675 0.89142 0.33759 0.0
C1889 C 0.27403 0.88168 0.31384 0.0
C1890 C 0.27393 0.87361 0.33307 0.0
C1891 C 0.2492 0.87545 0.3649 0.0
C1892 C 0.22383 0.88471 0.37715 0.0
C1893 C 0.24624 0.87936 0.34521 0.0
C1894 C 0.19282 0.89416 0.36938 0.0
C1895 C 0.18916 0.89727 0.34988 0.0
H1896 H 0.80933 0.64345 0.70106 0.0
H1897 H 0.88905 0.783 0.70803 0.0
H1898 H 0.9029 0.79116 0.67401 0.0
H1899 H 0.88822 0.75905 0.64215 0.0
H1900 H 0.80178 0.62067 0.63502 0.0
H1901 H 0.79563 0.61138 0.66933 0.0
C1902 C 0.82991 0.67577 0.69521 0.0
C1903 C 0.84759 0.71273 0.70716 0.0
C1904 C 0.83643 0.68029 0.67559 0.0
C1905 C 0.87481 0.75408 0.69925 0.0
C1906 C 0.88256 0.75873 0.67977 0.0
C1907 C 0.86744 0.72691 0.64808 0.0
C1908 C 0.84441 0.69074 0.63597 0.0
C1909 C 0.86273 0.72217 0.66778 0.0
C1910 C 0.81959 0.64905 0.64395 0.0
C1911 C 0.81587 0.64383 0.66357 0.0
H1912 H 0.3236 0.14551 0.64114 0.0
H1913 H 0.4639 0.21219 0.63754 0.0
H1914 H 0.46879 0.22087 0.67194 0.0
H1915 H 0.43271 0.20376 0.70314 0.0
H1916 H 0.29226 0.13352 0.70631 0.0
H1917 H 0.28788 0.13217 0.6719 0.0
C1918 C 0.35538 0.16191 0.64782 0.0
C1919 C 0.39341 0.17747 0.63675 0.0
C1920 C 0.35779 0.16597 0.66754 0.0
C1921 C 0.43418 0.19979 0.64568 0.0
C1922 C 0.43691 0.20452 0.66536 0.0
C1923 C 0.40111 0.18839 0.69629 0.0
C1924 C 0.36277 0.1681 0.70732 0.0
C1925 C 0.39889 0.18689 0.67646 0.0
C1926 C 0.32219 0.14916 0.69822 0.0
C1927 C 0.3197 0.14816 0.67853 0.0
H1928 H 0.85826 0.24341 0.63872 0.0
H1929 H 0.94092 0.18652 0.6349 0.0
H1930 H 0.93717 0.17564 0.66872 0.0
H1931 H 0.91877 0.19167 0.70023 0.0
H1932 H 0.82956 0.24076 0.70395 0.0
H1933 H 0.82667 0.24405 0.66978 0.0
C1934 C 0.87463 0.2278 0.64524 0.0
C1935 C 0.90158 0.21794 0.63429 0.0
C1936 C 0.87146 0.22034 0.66491 0.0
C1937 C 0.92154 0.19652 0.64301 0.0
C1938 C 0.91926 0.18989 0.66245 0.0
C1939 C 0.89764 0.2017 0.69355 0.0
C1940 C 0.87556 0.2172 0.70467 0.0
C1941 C 0.89565 0.20317 0.67369 0.0
C1942 C 0.84789 0.22966 0.69572 0.0
C1943 C 0.84624 0.23173 0.67611 0.0
H1944 H 0.34104 0.91957 0.19907 0.0
H1945 H 0.28894 1.00587 0.19264 0.0
H1946 H 0.34214 0.0449 0.16731 0.0
H1947 H 0.40298 0.05266 0.14632 0.0
H1948 H 0.45492 0.96689 0.15507 0.0
H1949 H 0.40475 0.93186 0.18124 0.0
C1950 C 0.34154 0.94742 0.19246 0.0
C1951 C 0.311 0.95987 0.19806 0.0
C1952 C 0.37343 0.97081 0.1787 0.0
C1953 C 0.31152 0.9951 0.18861 0.0
C1954 C 0.34257 0.01793 0.17434 0.0
C1955 C 0.40445 0.02755 0.15451 0.0
C1956 C 0.43383 1.01337 0.14906 0.0
C1957 C 0.37397 1.00622 0.16931 0.0
C1958 C 0.43398 0.97953 0.15933 0.0
C1959 C 0.40447 0.95874 0.17403 0.0
H1960 H 0.11613 0.44855 0.13248 0.0
H1961 H 1.00629 0.4466 0.15963 0.0
H1962 H 0.021 0.41695 0.18827 0.0
H1963 H 0.06715 0.39432 0.20579 0.0
H1964 H 0.17497 0.39459 0.17745 0.0
H1965 H 0.15847 0.42175 0.14893 0.0
C1966 C 0.09513 0.44178 0.14456 0.0
C1967 C 0.06013 0.45028 0.14374 0.0
C1968 C 0.10318 0.42383 0.16071 0.0
C1969 C 0.03336 0.44052 0.1597 0.0
C1970 C 0.0418 0.42347 0.17609 0.0
C1971 C 0.08658 0.39936 0.19328 0.0
C1972 C 0.12209 0.39143 0.19388 0.0
C1973 C 0.0768 0.41518 0.17677 0.0
C1974 C 0.14691 0.39891 0.17746 0.0
C1975 C 0.13772 0.41505 0.16112 0.0
H1976 H 0.63221 0.73993 0.19042 0.0
H1977 H 0.76592 0.76999 0.18888 0.0
H1978 H 0.74636 0.71163 0.16533 0.0
H1979 H 0.68895 0.64985 0.14579 0.0
H1980 H 0.55503 0.61794 0.15164 0.0
H1981 H 0.57635 0.67666 0.17427 0.0
C1982 C 0.65741 0.73417 0.18483 0.0
C1983 C 0.70055 0.75953 0.19137 0.0
C1984 C 0.6453 0.69857 0.1728 0.0
C1985 C 0.73264 0.75158 0.18387 0.0
C1986 C 0.72115 0.71743 0.17077 0.0
C1987 C 0.66443 0.65481 0.15259 0.0
C1988 C 0.62035 0.62953 0.14696 0.0
C1989 C 0.67723 0.6899 0.16546 0.0
C1990 C 0.58903 0.63677 0.15574 0.0
C1991 C 0.6013 0.67096 0.1684 0.0
H1992 H 0.03685 0.45334 0.84534 0.0
H1993 H 0.96557 0.35136 0.88594 0.0
H1994 H 0.94365 0.2962 0.86174 0.0
H1995 H 0.93863 0.27617 0.82812 0.0
H1996 H 1.00337 0.37933 0.78738 0.0
H1997 H 0.03398 0.43309 0.81201 0.0
C1998 C 1.01714 0.41912 0.84896 0.0
C1999 C 1.00292 0.40718 0.86761 0.0
C2000 C 1.00326 0.38692 0.83468 0.0
C2001 C 0.97667 0.36224 0.87177 0.0
C2002 C 0.96415 0.33021 0.85786 0.0
C2003 C 0.96041 0.31012 0.82464 0.0
C2004 C 0.96935 0.32276 0.80564 0.0
C2005 C 0.97641 0.34205 0.83911 0.0
C2006 C 0.99639 0.36763 0.80165 0.0
C2007 C 1.01385 0.39902 0.81587 0.0
H2008 H 0.65711 0.58443 0.86125 0.0
H2009 H 0.60786 0.67349 0.85639 0.0
H2010 H 0.66252 0.71419 0.83177 0.0
H2011 H 0.72521 0.72397 0.81169 0.0
H2012 H 0.77283 0.63396 0.81821 0.0
H2013 H 0.72023 0.59623 0.84333 0.0
C2014 C 0.65785 0.61257 0.85475 0.0
C2015 C 0.62791 0.62554 0.86059 0.0
C2016 C 0.69049 0.63676 0.8415 0.0
C2017 C 0.62963 0.66207 0.85189 0.0
C2018 C 0.66156 0.68585 0.83811 0.0
C2019 C 0.72474 0.69688 0.81905 0.0
C2020 C 0.75326 0.68201 0.81325 0.0
C2021 C 0.69261 0.67381 0.83297 0.0
C2022 C 0.75192 0.6465 0.82266 0.0
C2023 C 0.72116 0.62433 0.83673 0.0
H2024 H 0.3419 0.05222 0.81501 0.0
H2025 H 0.41673 0.18927 0.82804 0.0
H2026 H 0.44685 0.17307 0.85592 0.0
H2027 H 0.45901 0.12127 0.87419 0.0
H2028 H 0.39047 0.98447 0.85962 0.0
H2029 H 0.35198 0.99918 0.83444 0.0
C2030 C 0.3642 0.07837 0.82418 0.0
C2031 C 0.37665 0.12193 0.81953 0.0
C2032 C 0.38383 0.06892 0.83947 0.0
C2033 C 0.40563 0.15547 0.83154 0.0
C2034 C 0.42362 0.14623 0.84726 0.0
C2035 C 0.43572 0.09444 0.86553 0.0
C2036 C 0.42812 0.05168 0.86878 0.0
C2037 C 0.41423 0.10329 0.85093 0.0
C2038 C 0.3977 0.01771 0.85729 0.0
C2039 C 0.37546 0.02615 0.84294 0.0
H2040 H 0.03319 0.27167 0.53349 0.0
H2041 H 0.96124 0.33657 0.51957 0.0
H2042 H 1.01153 0.37336 0.49299 0.0
H2043 H 0.0741 0.38263 0.4725 0.0
H2044 H 0.14219 0.31491 0.48829 0.0
H2045 H 0.0967 0.28567 0.51606 0.0
C2046 C 0.02824 0.29416 0.52491 0.0
C2047 C 0.993 0.30103 0.52868 0.0
C2048 C 0.05771 0.31581 0.51025 0.0
C2049 C 0.98762 0.33013 0.517 0.0
C2050 C 1.01684 0.35165 0.50195 0.0
C2051 C 0.08008 0.36311 0.48254 0.0
C2052 C 0.11257 0.35203 0.47862 0.0
C2053 C 0.05209 0.3446 0.49836 0.0
C2054 C 0.11858 0.32505 0.49127 0.0
C2055 C 0.09192 0.30758 0.50698 0.0
H2056 H 0.78838 0.77949 0.46657 0.0
H2057 H 0.67015 0.7693 0.48869 0.0
H2058 H 0.68288 0.74213 0.51869 0.0
H2059 H 0.72897 0.72231 0.53845 0.0
H2060 H 0.84218 0.72639 0.51368 0.0
H2061 H 0.829 0.75387 0.48446 0.0
C2062 C 0.76472 0.7712 0.47772 0.0
C2063 C 0.72798 0.77655 0.47504 0.0
C2064 C 0.77102 0.75357 0.49434 0.0
C2065 C 0.69851 0.76551 0.49009 0.0
C2066 C 0.70577 0.74975 0.50723 0.0
C2067 C 0.75018 0.72807 0.52653 0.0
C2068 C 0.78635 0.72131 0.52835 0.0
C2069 C 0.74192 0.74346 0.50947 0.0
C2070 C 0.81361 0.72984 0.51271 0.0
C2071 C 0.80634 0.74618 0.496 0.0
H2072 H 0.37289 1.00501 0.4787 0.0
H2073 H 0.23551 0.93767 0.49114 0.0
H2074 H 0.24856 0.98572 0.51802 0.0
H2075 H 0.29711 0.05175 0.5354 0.0
H2076 H 0.43466 0.12305 0.52287 0.0
H2077 H 0.42327 0.07039 0.49782 0.0
C2078 C 0.3461 1.00041 0.48761 0.0
C2079 C 0.3033 0.96744 0.4831 0.0
C2080 C 0.35364 0.03019 0.50238 0.0
C2081 C 0.26878 0.9619 0.49463 0.0
C2082 C 0.27615 0.9901 0.50973 0.0
C2083 C 0.32487 0.05595 0.52731 0.0
C2084 C 0.36679 0.09159 0.53109 0.0
C2085 C 0.31814 0.02526 0.51327 0.0
C2086 C 0.40197 0.09651 0.52011 0.0
C2087 C 0.39549 0.066 0.50595 0.0
H2088 H 0.56189 0.30356 0.10816 0.0
H2089 H 0.42502 0.26194 0.10985 0.0
H2090 H 0.40666 0.18793 0.10065 0.0
H2091 H 0.42951 0.13293 0.09598 0.0
H2092 H 0.56627 0.17434 0.09616 0.0
H2093 H 0.58478 0.25004 0.10071 0.0
C2094 C 0.52813 0.27851 0.10607 0.0
C2095 C 0.4949 0.2882 0.10972 0.0
C2096 C 0.51778 0.23568 0.10132 0.0
C2097 C 0.4512 0.2552 0.10722 0.0
C2098 C 0.44067 0.21284 0.10201 0.0
C2099 C 0.46326 0.15872 0.0964 0.0
C2100 C 0.49648 0.14806 0.09561 0.0
C2101 C 0.47363 0.20232 0.09954 0.0
C2102 C 0.54015 0.18175 0.09677 0.0
C2103 C 0.55077 0.2251 0.0994 0.0
H2104 H 0.80076 0.25344 0.12238 0.0
H2105 H 0.74471 0.29804 0.08017 0.0
H2106 H 0.81763 0.35499 0.07042 0.0
H2107 H 0.89719 0.39576 0.07544 0.0
H2108 H 0.95423 0.35104 0.11723 0.0
H2109 H 0.88176 0.29064 0.12544 0.0
C2110 C 0.80472 0.27504 0.11076 0.0
C2111 C 0.76732 0.27116 0.10182 0.0
C2112 C 0.84706 0.30806 0.10528 0.0
C2113 C 0.7729 0.29994 0.08705 0.0
C2114 C 0.81464 0.33274 0.08158 0.0
C2115 C 0.89386 0.37256 0.08623 0.0
C2116 C 0.9314 0.37817 0.0957 0.0
C2117 C 0.85194 0.3377 0.09083 0.0
C2118 C 0.92623 0.34746 0.10955 0.0
C2119 C 0.8846 0.31298 0.11434 0.0
H2120 H 0.68958 0.54027 0.07999 0.0
H2121 H 0.72839 0.64845 0.11814 0.0
H2122 H 0.78895 0.6401 0.12933 0.0
H2123 H 0.82754 0.59808 0.13022 0.0
H2124 H 0.79157 0.49236 0.09112 0.0
H2125 H 0.73396 0.50404 0.07817 0.0
C2126 C 0.71153 0.56231 0.09063 0.0
C2127 C 0.70375 0.59455 0.09843 0.0
C2128 C 0.74696 0.55772 0.09683 0.0
C2129 C 0.73309 0.62315 0.11198 0.0
C2130 C 0.76785 0.61835 0.11842 0.0
C2131 C 0.80762 0.5782 0.1186 0.0
C2132 C 0.81384 0.54435 0.11163 0.0
C2133 C 0.77463 0.58523 0.11122 0.0
C2134 C 0.78777 0.51884 0.09659 0.0
C2135 C 0.75454 0.5253 0.08932 0.0
H2136 H 0.2853 0.54847 0.93902 0.0
H2137 H 0.2911 0.52077 0.88029 0.0
H2138 H 0.21182 0.48651 0.8779 0.0
H2139 H 0.14191 0.47168 0.89161 0.0
H2140 H 0.13448 0.49582 0.95057 0.0
H2141 H 0.21304 0.52353 0.95393 0.0
C2142 C 0.26903 0.53424 0.9258 0.0
C2143 C 0.29415 0.53741 0.9098 0.0
C2144 C 0.22318 0.51411 0.92458 0.0
C2145 C 0.27261 0.51857 0.8928 0.0
C2146 C 0.22726 0.4992 0.89141 0.0
C2147 C 0.15735 0.48204 0.9053 0.0
C2148 C 0.13254 0.48196 0.92081 0.0
C2149 C 0.20236 0.49773 0.90708 0.0
C2150 C 0.15281 0.49525 0.93847 0.0
C2151 C 0.19782 0.51152 0.94032 0.0
H2152 H 0.52334 0.79857 0.90934 0.0
H2153 H 0.64806 0.86837 0.88127 0.0
H2154 H 0.66209 0.80934 0.88803 0.0
H2155 H 0.63612 0.73419 0.89918 0.0
H2156 H 0.51868 0.67011 0.93234 0.0
H2157 H 0.50527 0.73041 0.92654 0.0
C2158 C 0.55402 0.80155 0.90499 0.0
C2159 C 0.5833 0.83748 0.89383 0.0
C2160 C 0.56317 0.76794 0.90966 0.0
C2161 C 0.62331 0.84035 0.88885 0.0
C2162 C 0.63183 0.80663 0.89291 0.0
C2163 C 0.60811 0.73372 0.9055 0.0
C2164 C 0.57759 0.69652 0.91553 0.0
C2165 C 0.60142 0.76956 0.90278 0.0
C2166 C 0.54192 0.69733 0.92386 0.0
C2167 C 0.53426 0.73205 0.92065 0.0
H2168 H 0.35805 0.90572 0.89286 0.0
H2169 H 0.37399 0.9206 0.95309 0.0
H2170 H 0.3218 0.84233 0.95721 0.0
H2171 H 0.27667 0.76814 0.94324 0.0
H2172 H 0.25941 0.75543 0.88298 0.0
H2173 H 0.30704 0.83424 0.8793 0.0
C2174 C 0.34967 0.89199 0.90694 0.0
C2175 C 0.37036 0.91886 0.92265 0.0
C2176 C 0.31973 0.84716 0.90914 0.0
C2177 C 0.35859 0.90068 0.94077 0.0
C2178 C 0.32901 0.85583 0.9431 0.0
C2179 C 0.28313 0.78279 0.92934 0.0
C2180 C 0.26481 0.75583 0.91336 0.0
C2181 C 0.31024 0.82849 0.92734 0.0
C2182 C 0.27299 0.77534 0.89547 0.0
C2183 C 0.30035 0.82042 0.89336 0.0
H2184 H 0.10314 0.57586 0.44203 0.0
H2185 H 0.2426 0.6485 0.43378 0.0
H2186 H 0.24116 0.58168 0.42385 0.0
H2187 H 0.20147 0.50162 0.42008 0.0
H2188 H 0.06316 0.42839 0.43113 0.0
H2189 H 0.06332 0.49626 0.43776 0.0
C2190 C 0.13344 0.57732 0.43821 0.0
C2191 C 0.17308 0.61769 0.43895 0.0
C2192 C 0.13265 0.53837 0.43318 0.0
C2193 C 0.21151 0.61846 0.43326 0.0
C2194 C 0.21079 0.58 0.42775 0.0
C2195 C 0.1712 0.50039 0.42378 0.0
C2196 C 0.13229 0.45959 0.42508 0.0
C2197 C 0.17171 0.53962 0.42803 0.0
C2198 C 0.09358 0.45901 0.43001 0.0
C2199 C 0.09367 0.49794 0.43382 0.0
H2200 H 0.56962 0.73192 0.41184 0.0
H2201 H 0.63378 0.66283 0.43094 0.0
H2202 H 0.56407 0.59858 0.43738 0.0
H2203 H 0.48481 0.56262 0.43941 0.0
H2204 H 0.41847 0.63108 0.42214 0.0
H2205 H 0.48847 0.69421 0.41275 0.0
C2206 C 0.56843 0.70285 0.4173 0.0
C2207 C 0.60772 0.70287 0.42093 0.0
C2208 C 0.52746 0.66559 0.42129 0.0
C2209 C 0.60485 0.66438 0.42798 0.0
C2210 C 0.56464 0.62733 0.43171 0.0
C2211 C 0.48547 0.5913 0.43358 0.0
C2212 C 0.4462 0.59207 0.43175 0.0
C2213 C 0.52579 0.62774 0.4287 0.0
C2214 C 0.44794 0.62929 0.42369 0.0
C2215 C 0.48811 0.66562 0.41847 0.0
H2216 H 0.48192 0.8879 0.39318 0.0
H2217 H 0.47335 0.84091 0.45005 0.0
H2218 H 0.42075 0.86391 0.45784 0.0
H2219 H 0.37338 0.89235 0.4481 0.0
H2220 H 0.38018 0.93882 0.39129 0.0
H2221 H 0.43737 0.92123 0.38394 0.0
C2222 C 0.46858 0.88266 0.4073 0.0
C2223 C 0.48157 0.86217 0.42096 0.0
C2224 C 0.43787 0.89576 0.41168 0.0
C2225 C 0.46445 0.8567 0.43926 0.0
C2226 C 0.43404 0.86961 0.4437 0.0
C2227 C 0.38742 0.89896 0.43409 0.0
C2228 C 0.37194 0.91656 0.42021 0.0
C2229 C 0.41997 0.88845 0.42996 0.0
C2230 C 0.39128 0.92538 0.40226 0.0
C2231 C 0.42386 0.91505 0.39804 0.0
H2232 H 0.80697 0.76095 0.23688 0.0
H2233 H 0.84472 0.88099 0.26629 0.0
H2234 H 0.92144 0.90027 0.26496 0.0
H2235 H 0.97873 0.88824 0.25065 0.0
H2236 H 0.93979 0.76744 0.22135 0.0
H2237 H 0.86332 0.74302 0.22764 0.0
C2238 C 0.83187 0.79038 0.2437 0.0
C2239 C 0.82018 0.81919 0.25193 0.0
C2240 C 0.87609 0.80162 0.24252 0.0
C2241 C 0.85288 0.85788 0.26023 0.0
C2242 C 0.89687 0.86916 0.25924 0.0
C2243 C 0.9536 0.85605 0.24616 0.0
C2244 C 0.96521 0.83009 0.23525 0.0
C2245 C 0.90913 0.84213 0.24973 0.0
C2246 C 0.93192 0.78846 0.2295 0.0
C2247 C 0.88803 0.77442 0.23307 0.0
H2248 H 0.20657 1.00498 0.26574 0.0
H2249 H 0.3157 0.0669 0.22765 0.0
H2250 H 0.29689 0.12322 0.22042 0.0
H2251 H 0.24642 0.15302 0.22369 0.0
H2252 H 0.1375 0.08952 0.26182 0.0
H2253 H 0.15939 0.03643 0.27033 0.0
C2254 C 0.22646 0.03086 0.25591 0.0
C2255 C 0.2625 0.03137 0.24723 0.0
C2256 C 0.21541 0.06317 0.25181 0.0
C2257 C 0.28785 0.06551 0.2346 0.0
C2258 C 0.27702 0.09781 0.23043 0.0
C2259 C 0.22803 0.12802 0.2341 0.0
C2260 C 0.1902 0.12531 0.24206 0.0
C2261 C 0.24057 0.09684 0.23881 0.0
C2262 C 0.16652 0.09231 0.25539 0.0
C2263 C 0.17897 0.0618 0.26024 0.0
H2264 H 0.95562 0.10288 0.26119 0.0
H2265 H 0.9733 0.09381 0.20167 0.0
H2266 H 0.02081 0.17313 0.19984 0.0
H2267 H 0.06187 0.24392 0.21553 0.0
H2268 H 0.0469 0.25425 0.27526 0.0
H2269 H 0.99308 0.17601 0.27665 0.0
C2270 C 0.9696 0.11857 0.24784 0.0
C2271 C 0.96127 0.09285 0.23156 0.0
C2272 C 0.99741 0.16429 0.24697 0.0
C2273 C 0.9794 0.11318 0.21432 0.0
C2274 C 1.00649 0.15844 0.21329 0.0
C2275 C 0.0467 0.22914 0.22887 0.0
C2276 C 0.05912 0.25471 0.24534 0.0
C2277 C 1.0165 0.18417 0.22958 0.0
C2278 C 0.03823 0.23526 0.26239 0.0
C2279 C 1.00765 0.19044 0.2632 0.0
H2280 H 0.7522 0.80148 0.74701 0.0
H2281 H 0.88426 0.84165 0.76321 0.0
H2282 H 0.90117 0.91713 0.76584 0.0
H2283 H 0.87605 0.97049 0.76797 0.0
H2284 H 0.74327 0.93065 0.75354 0.0
H2285 H 0.72931 0.85739 0.74557 0.0
C2286 C 0.78486 0.82692 0.75065 0.0
C2287 C 0.81677 0.81566 0.75504 0.0
C2288 C 0.79425 0.87069 0.75266 0.0
C2289 C 0.85892 0.84922 0.7599 0.0
C2290 C 0.86869 0.89256 0.76146 0.0
C2291 C 0.84452 0.94619 0.76249 0.0
C2292 C 0.81085 0.95617 0.76133 0.0
C2293 C 0.8363 0.90357 0.7585 0.0
C2294 C 0.76983 0.92388 0.75454 0.0
C2295 C 0.76172 0.88181 0.7501 0.0
H2296 H 0.22327 0.0505 0.74443 0.0
H2297 H 0.28342 0.01936 0.79008 0.0
H2298 H 0.2125 0.95943 0.79971 0.0
H2299 H 0.13242 0.92066 0.79737 0.0
H2300 H 0.071 0.95115 0.75216 0.0
H2301 H 0.14287 1.00633 0.74018 0.0
C2302 C 0.22076 0.03079 0.75656 0.0
C2303 C 0.2587 0.04045 0.76684 0.0
C2304 C 0.17947 0.99613 0.7621 0.0
C2305 C 0.25497 1.01321 0.78201 0.0
C2306 C 0.21427 0.97886 0.78758 0.0
C2307 C 0.13486 0.93868 0.78462 0.0
C2308 C 0.09639 0.9317 0.77562 0.0
C2309 C 0.17621 0.97066 0.77802 0.0
C2310 C 0.10003 0.95544 0.75918 0.0
C2311 C 0.14116 0.98735 0.75248 0.0
H2312 H 0.126 0.20699 0.72899 0.0
H2313 H 0.12883 0.19186 0.78921 0.0
H2314 H 0.07812 0.21903 0.79334 0.0
H2315 H 0.02851 0.24129 0.77988 0.0
H2316 H 0.02521 0.2578 0.71983 0.0
H2317 H 0.08087 0.23639 0.7156 0.0
C2318 C 0.11572 0.2099 0.74304 0.0
C2319 C 0.13111 0.19693 0.75879 0.0
C2320 C 0.08633 0.22565 0.74532 0.0
C2321 C 0.1179 0.2017 0.77687 0.0
C2322 C 0.08861 0.21701 0.77923 0.0
C2323 C 0.04015 0.2406 0.76583 0.0
C2324 C 0.02215 0.2506 0.75014 0.0
C2325 C 0.07198 0.22824 0.76356 0.0
C2326 C 0.03837 0.25028 0.73213 0.0
C2327 C 0.07002 0.23774 0.72973 0.0
H2328 H 0.51009 0.16391 0.55701 0.0
H2329 H 0.48621 0.13357 0.61617 0.0
H2330 H 0.56377 0.15828 0.621 0.0
H2331 H 0.63936 0.19491 0.60873 0.0
H2332 H 0.66213 0.22455 0.54945 0.0
H2333 H 0.58387 0.19332 0.54428 0.0
C2334 C 0.52174 0.16219 0.57095 0.0
C2335 C 0.49256 0.14742 0.58629 0.0
C2336 C 0.56621 0.17668 0.57358 0.0
C2337 C 0.50799 0.1447 0.60416 0.0
C2338 C 0.55239 0.15918 0.60692 0.0
C2339 C 0.62713 0.1944 0.59468 0.0
C2340 C 0.65669 0.21268 0.57952 0.0
C2341 C 0.58198 0.17634 0.59182 0.0
C2342 C 0.64022 0.21082 0.56133 0.0
C2343 C 0.59546 0.19311 0.55839 0.0
H2344 H 0.88662 0.35433 0.59463 0.0
H2345 H 1.00142 0.39587 0.5606 0.0
H2346 H 1.00083 0.46183 0.55195 0.0
H2347 H 0.96598 0.50609 0.55229 0.0
H2348 H 0.84375 0.45983 0.58153 0.0
H2349 H 0.84898 0.39792 0.59376 0.0
C2350 C 0.91083 0.37716 0.58499 0.0
C2351 C 0.94385 0.36932 0.57827 0.0
C2352 C 0.90901 0.41456 0.57917 0.0
C2353 C 0.97608 0.40081 0.5664 0.0
C2354 C 0.97551 0.43862 0.56122 0.0
C2355 C 0.9398 0.4823 0.56105 0.0
C2356 C 0.90404 0.48792 0.56556 0.0
C2357 C 0.94179 0.44553 0.56726 0.0
C2358 C 0.8719 0.45716 0.57776 0.0
C2359 C 0.87463 0.42126 0.58465 0.0
H2360 H 0.63155 0.43719 0.57645 0.0
H2361 H 0.53439 0.47286 0.58846 0.0
H2362 H 0.59134 0.54711 0.59654 0.0
H2363 H 0.66956 0.60518 0.59569 0.0
H2364 H 0.76575 0.56885 0.58237 0.0
H2365 H 0.70929 0.49253 0.57971 0.0
C2366 C 0.62285 0.46077 0.58148 0.0
C2367 C 0.57867 0.44927 0.58187 0.0
C2368 C 0.65596 0.504 0.58559 0.0
C2369 C 0.56812 0.48072 0.58808 0.0
C2370 C 0.60076 0.52341 0.59257 0.0
C2371 C 0.67816 0.58043 0.59263 0.0
C2372 C 0.72201 0.59309 0.58893 0.0
C2373 C 0.64497 0.53604 0.59069 0.0
C2374 C 0.73233 0.56029 0.58498 0.0
C2375 C 0.69994 0.51643 0.58345 0.0
loop_
_geom_bond_atom_site_label_1
_geom_bond_atom_site_label_2
_geom_bond_distance
_geom_bond_site_symmetry_2
_ccdc_geom_bond_type
C0 C2 1.430 1_565 S
C0 C4 1.432 . S
C0 N6 1.348 1_565 S
C1 C2 1.405 1_565 S
C1 C3 1.417 . S
C1 C13 1.422 . S
C2 C0 1.430 1_545 S
C2 C1 1.405 1_545 S
C2 N12 1.372 . S
C3 C1 1.417 . S
C3 C5 1.329 . S
C3 H22 0.930 . S
C4 C0 1.432 . S
C4 C5 1.437 . S
C4 C8 1.413 . S
C5 C3 1.329 . S
C5 C4 1.437 . S
C5 H27 0.929 . S
N6 C0 1.348 1_545 S
N6 C7 1.338 . S
N6 Gd11 2.622 . S
C7 N6 1.338 . S
C7 C9 1.378 1_545 S
C7 H19 0.929 . S
C8 C4 1.413 . S
C8 C9 1.348 . S
C8 H24 0.931 . S
C9 C7 1.378 1_565 S
C9 C8 1.348 . S
C9 H25 0.930 . S
Gd10 N30 2.622 . S
Gd10 N37 2.570 . S
Gd10 O44 2.353 . S
Gd10 O45 2.468 . S
Gd10 O46 2.427 . S
Gd10 O48 2.388 . S
Gd10 O49 2.386 1_565 S
Gd10 O53 2.307 . S
Gd10 C63 2.805 . S
Gd11 N6 2.622 . S
Gd11 N12 2.570 . S
Gd11 O43 2.386 1_545 S
Gd11 O47 2.307 . S
Gd11 O50 2.353 . S
Gd11 O51 2.468 . S
Gd11 O52 2.427 . S
Gd11 O54 2.388 . S
Gd11 C75 2.805 . S
N12 C2 1.372 . S
N12 Gd11 2.570 . S
N12 C14 1.343 . S
C13 C1 1.422 . S
C13 C15 1.321 1_565 S
C13 H21 0.931 . S
C14 N12 1.343 . S
C14 C15 1.390 . S
C14 H16 0.931 . S
C15 C13 1.321 1_545 S
C15 C14 1.390 . S
C15 H17 0.930 . S
H16 C14 0.931 . S
H17 C15 0.930 . S
H18 C41 0.931 . S
H19 C7 0.929 . S
H20 C42 0.930 . S
H21 C13 0.931 . S
H22 C3 0.930 . S
H23 C32 0.929 . S
H24 C8 0.931 . S
H25 C9 0.930 . S
H26 C64 0.930 . S
H27 C5 0.929 . S
H28 C33 0.931 . S
H29 C34 0.930 . S
N30 Gd10 2.622 . S
N30 C31 1.369 1_565 S
N30 C32 1.338 . S
C31 N30 1.369 1_545 S
C31 C35 1.415 . S
C31 C38 1.422 . S
C32 H23 0.929 . S
C32 N30 1.338 . S
C32 C34 1.378 1_565 S
C33 H28 0.931 . S
C33 C34 1.348 . S
C33 C35 1.413 . S
C34 H29 0.930 . S
C34 C32 1.378 1_545 S
C34 C33 1.348 . S
C35 C31 1.415 . S
C35 C33 1.413 . S
C35 C65 1.437 . S
H36 C65 0.929 . S
N37 Gd10 2.570 . S
N37 C38 1.359 1_565 S
N37 C41 1.343 . S
C38 C31 1.422 . S
C38 N37 1.359 1_545 S
C38 C40 1.421 . S
C39 C40 1.422 . S
C39 C42 1.321 . S
C39 H66 0.931 . S
C40 C38 1.421 . S
C40 C39 1.422 . S
C40 C64 1.417 . S
C41 H18 0.931 . S
C41 N37 1.343 . S
C41 C42 1.390 1_565 S
C42 H20 0.930 . S
C42 C39 1.321 . S
C42 C41 1.390 1_545 S
O43 Gd11 2.386 1_565 S
O43 C55 1.265 . S
O44 Gd10 2.353 . S
O44 C55 1.242 . S
O45 Gd10 2.468 . S
O45 C63 1.263 . S
O46 Gd10 2.427 . S
O46 C63 1.252 . S
O47 Gd11 2.307 . S
O47 C56 1.261 . S
O48 Gd10 2.388 . S
O48 C56 1.252 1_565 S
O49 Gd10 2.386 1_545 S
O49 C67 1.265 . S
O50 Gd11 2.353 . S
O50 C67 1.242 . S
O51 Gd11 2.468 . S
O51 C75 1.263 . S
O52 Gd11 2.427 . S
O52 C75 1.252 . S
O53 Gd10 2.307 . S
O53 C68 1.261 . S
O54 Gd11 2.388 . S
O54 C68 1.252 1_545 S
C55 O43 1.265 . S
C55 O44 1.242 . S
C56 O47 1.261 . S
C56 O48 1.252 1_545 S
C57 C60 1.394 . S
C57 C62 1.370 . S
C57 C63 1.500 . S
C58 C61 1.383 . S
C58 C62 1.395 . S
C59 C60 1.396 . S
C59 C61 1.365 . S
C59 H76 0.929 . S
C60 C57 1.394 . S
C60 C59 1.396 . S
C60 H77 0.930 . S
C61 C58 1.383 . S
C61 C59 1.365 . S
C61 H78 0.931 . S
C62 C57 1.370 . S
C62 C58 1.395 . S
C62 H79 0.930 . S
C63 Gd10 2.805 . S
C63 O45 1.263 . S
C63 O46 1.252 . S
C63 C57 1.500 . S
C64 H26 0.930 . S
C64 C40 1.417 . S
C64 C65 1.329 . S
C65 C35 1.437 . S
C65 H36 0.929 . S
C65 C64 1.329 . S
H66 C39 0.931 . S
C67 O49 1.265 . S
C67 O50 1.242 . S
C68 O53 1.261 . S
C68 O54 1.252 1_565 S
C69 C72 1.394 . S
C69 C74 1.370 . S
C69 C75 1.500 . S
C70 C73 1.383 . S
C70 C74 1.395 . S
C71 C72 1.396 . S
C71 C73 1.365 . S
C71 H80 0.929 . S
C72 C69 1.394 . S
C72 C71 1.396 . S
C72 H81 0.930 . S
C73 C70 1.383 . S
C73 C71 1.365 . S
C73 H82 0.931 . S
C74 C69 1.370 . S
C74 C70 1.395 . S
C74 H83 0.930 . S
C75 Gd11 2.805 . S
C75 O51 1.263 . S
C75 O52 1.252 . S
C75 C69 1.500 . S
H76 C59 0.929 . S
H77 C60 0.930 . S
H78 C61 0.931 . S
H79 C62 0.930 . S
H80 C71 0.929 . S
H81 C72 0.930 . S
H82 C73 0.931 . S
H83 C74 0.930 . S
C84 C86 1.422 . S
C84 C88 1.415 . S
C84 N90 1.369 . S
C85 C86 1.421 . S
C85 C87 1.417 . S
C85 C97 1.422 . S
C86 C84 1.422 . S
C86 C85 1.421 . S
C86 N96 1.359 . S
C87 C85 1.417 . S
C87 C89 1.329 . S
C87 H106 0.930 . S
C88 C84 1.415 . S
C88 C89 1.437 . S
C88 C92 1.413 . S
C89 C87 1.329 . S
C89 C88 1.437 . S
C89 H111 0.929 . S
N90 C84 1.369 . S
N90 C91 1.338 . S
N90 Gd95 2.622 1_455 S
C91 N90 1.338 . S
C91 C93 1.378 . S
C91 H103 0.929 . S
C92 C88 1.413 . S
C92 C93 1.348 . S
C92 H108 0.931 . S
C93 C91 1.378 . S
C93 C92 1.348 . S
C93 H109 0.930 . S
Gd94 N114 2.622 . S
Gd94 N121 2.570 . S
Gd94 O128 2.353 . S
Gd94 O129 2.468 . S
Gd94 O130 2.427 . S
Gd94 O132 2.388 . S
Gd94 O133 2.386 1_455 S
Gd94 O137 2.307 . S
Gd94 C147 2.805 . S
Gd95 N90 2.622 1_655 S
Gd95 N96 2.570 1_655 S
Gd95 O127 2.386 1_655 S
Gd95 O131 2.307 1_655 S
Gd95 O134 2.353 . S
Gd95 O135 2.468 . S
Gd95 O136 2.427 . S
Gd95 O138 2.388 1_655 S
Gd95 C159 2.805 . S
N96 C86 1.359 . S
N96 Gd95 2.570 1_455 S
N96 C98 1.343 . S
C97 C85 1.422 . S
C97 C99 1.321 . S
C97 H105 0.931 . S
C98 N96 1.343 . S
C98 C99 1.390 . S
C98 H100 0.931 . S
C99 C97 1.321 . S
C99 C98 1.390 . S
C99 H101 0.930 . S
H100 C98 0.931 . S
H101 C99 0.930 . S
H102 C125 0.931 . S
H103 C91 0.929 . S
H104 C126 0.930 . S
H105 C97 0.931 . S
H106 C87 0.930 . S
H107 C116 0.929 . S
H108 C92 0.931 . S
H109 C93 0.930 . S
H110 C148 0.930 . S
H111 C89 0.929 . S
H112 C117 0.931 1_655 S
H113 C118 0.930 . S
N114 Gd94 2.622 . S
N114 C115 1.369 . S
N114 C116 1.338 . S
C115 N114 1.369 . S
C115 C119 1.415 . S
C115 C122 1.422 . S
C116 H107 0.929 . S
C116 N114 1.338 . S
C116 C118 1.378 . S
C117 H112 0.931 1_455 S
C117 C118 1.348 . S
C117 C119 1.413 . S
C118 H113 0.930 . S
C118 C116 1.378 . S
C118 C117 1.348 . S
C119 C115 1.415 . S
C119 C117 1.413 . S
C119 C149 1.437 1_455 S
H120 C149 0.929 . S
N121 Gd94 2.570 . S
N121 C122 1.359 . S
N121 C125 1.343 . S
C122 C115 1.422 . S
C122 N121 1.359 . S
C122 C124 1.421 . S
C123 C124 1.422 . S
C123 C126 1.321 . S
C123 H150 0.934 1_455 S
C124 C122 1.421 . S
C124 C123 1.422 . S
C124 C148 1.417 1_455 S
C125 H102 0.931 . S
C125 N121 1.343 . S
C125 C126 1.390 . S
C126 H104 0.930 . S
C126 C123 1.321 . S
C126 C125 1.390 . S
O127 Gd95 2.386 1_455 S
O127 C139 1.265 . S
O128 Gd94 2.353 . S
O128 C139 1.242 . S
O129 Gd94 2.468 . S
O129 C147 1.263 . S
O130 Gd94 2.427 . S
O130 C147 1.252 . S
O131 Gd95 2.307 1_455 S
O131 C140 1.261 . S
O132 Gd94 2.388 . S
O132 C140 1.252 . S
O133 Gd94 2.386 1_655 S
O133 C151 1.265 . S
O134 Gd95 2.353 . S
O134 C151 1.242 . S
O135 Gd95 2.468 . S
O135 C159 1.263 . S
O136 Gd95 2.427 . S
O136 C159 1.252 . S
O137 Gd94 2.307 . S
O137 C152 1.261 . S
O138 Gd95 2.388 1_455 S
O138 C152 1.252 . S
C139 O127 1.265 . S
C139 O128 1.242 . S
C140 O131 1.261 . S
C140 O132 1.252 . S
C141 C144 1.394 . S
C141 C146 1.370 . S
C141 C147 1.500 . S
C142 C145 1.383 . S
C142 C146 1.395 . S
C143 C144 1.396 . S
C143 C145 1.365 . S
C143 H160 0.929 . S
C144 C141 1.394 . S
C144 C143 1.396 . S
C144 H161 0.930 . S
C145 C142 1.383 . S
C145 C143 1.365 . S
C145 H162 0.931 . S
C146 C141 1.370 . S
C146 C142 1.395 . S
C146 H163 0.930 . S
C147 Gd94 2.805 . S
C147 O129 1.263 . S
C147 O130 1.252 . S
C147 C141 1.500 . S
C148 H110 0.930 . S
C148 C124 1.417 1_655 S
C148 C149 1.329 . S
C149 C119 1.437 1_655 S
C149 H120 0.929 . S
C149 C148 1.329 . S
H150 C123 0.934 1_655 S
C151 O133 1.265 . S
C151 O134 1.242 . S
C152 O137 1.261 . S
C152 O138 1.252 . S
C153 C156 1.394 . S
C153 C158 1.370 . S
C153 C159 1.500 . S
C154 C157 1.383 . S
C154 C158 1.395 . S
C155 C156 1.396 . S
C155 C157 1.365 . S
C155 H164 0.929 . S
C156 C153 1.394 . S
C156 C155 1.396 . S
C156 H165 0.930 . S
C157 C154 1.383 . S
C157 C155 1.365 . S
C157 H166 0.931 . S
C158 C153 1.370 . S
C158 C154 1.395 . S
C158 H167 0.930 . S
C159 Gd95 2.805 . S
C159 O135 1.263 . S
C159 O136 1.252 . S
C159 C153 1.500 . S
H160 C143 0.929 . S
H161 C144 0.930 . S
H162 C145 0.931 . S
H163 C146 0.930 . S
H164 C155 0.929 . S
H165 C156 0.930 . S
H166 C157 0.931 . S
H167 C158 0.930 . S
C168 C170 1.422 . S
C168 C172 1.415 . S
C168 N174 1.369 . S
C169 C170 1.421 . S
C169 C171 1.417 . S
C169 C181 1.422 . S
C170 C168 1.422 . S
C170 C169 1.421 . S
C170 N180 1.359 . S
C171 C169 1.417 . S
C171 C173 1.329 . S
C171 H190 0.930 . S
C172 C168 1.415 . S
C172 C173 1.437 . S
C172 C176 1.413 . S
C173 C171 1.329 . S
C173 C172 1.437 . S
C173 H195 0.929 . S
N174 C168 1.369 . S
N174 C175 1.338 . S
N174 Gd179 2.622 . S
C175 N174 1.338 . S
C175 C177 1.378 . S
C175 H187 0.929 . S
C176 C172 1.413 . S
C176 C177 1.348 . S
C176 H192 0.931 . S
C177 C175 1.378 . S
C177 C176 1.348 . S
C177 H193 0.930 . S
Gd178 N198 2.622 . S
Gd178 N205 2.570 . S
Gd178 O212 2.353 . S
Gd178 O213 2.468 . S
Gd178 O214 2.427 . S
Gd178 O216 2.388 . S
Gd178 O217 2.386 . S
Gd178 O221 2.307 . S
Gd178 C231 2.805 . S
Gd179 N174 2.622 . S
Gd179 N180 2.570 . S
Gd179 O211 2.386 . S
Gd179 O215 2.307 . S
Gd179 O218 2.353 . S
Gd179 O219 2.468 . S
Gd179 O220 2.427 . S
Gd179 O222 2.388 . S
Gd179 C243 2.805 . S
N180 C170 1.359 . S
N180 Gd179 2.570 . S
N180 C182 1.343 . S
C181 C169 1.422 . S
C181 C183 1.321 . S
C181 H189 0.931 . S
C182 N180 1.343 . S
C182 C183 1.390 . S
C182 H184 0.931 . S
C183 C181 1.321 . S
C183 C182 1.390 . S
C183 H185 0.930 . S
H184 C182 0.931 . S
H185 C183 0.930 . S
H186 C209 0.931 . S
H187 C175 0.929 . S
H188 C210 0.930 . S
H189 C181 0.931 . S
H190 C171 0.930 . S
H191 C200 0.929 . S
H192 C176 0.931 . S
H193 C177 0.930 . S
H194 C232 0.930 . S
H195 C173 0.929 . S
H196 C201 0.931 . S
H197 C202 0.930 . S
N198 Gd178 2.622 . S
N198 C199 1.369 . S
N198 C200 1.338 . S
C199 N198 1.369 . S
C199 C203 1.415 . S
C199 C206 1.422 . S
C200 H191 0.929 . S
C200 N198 1.338 . S
C200 C202 1.378 . S
C201 H196 0.931 . S
C201 C202 1.348 . S
C201 C203 1.413 . S
C202 H197 0.930 . S
C202 C200 1.378 . S
C202 C201 1.348 . S
C203 C199 1.415 . S
C203 C201 1.413 . S
C203 C233 1.437 . S
H204 C233 0.929 . S
N205 Gd178 2.570 . S
N205 C206 1.359 . S
N205 C209 1.343 . S
C206 C199 1.422 . S
C206 N205 1.359 . S
C206 C208 1.421 . S
C207 C208 1.422 . S
C207 C210 1.321 . S
C207 H234 0.931 . S
C208 C206 1.421 . S
C208 C207 1.422 . S
C208 C232 1.417 . S
C209 H186 0.931 . S
C209 N205 1.343 . S
C209 C210 1.390 . S
C210 H188 0.930 . S
C210 C207 1.321 . S
C210 C209 1.390 . S
O211 Gd179 2.386 . S
O211 C223 1.265 . S
O212 Gd178 2.353 . S
O212 C223 1.242 . S
O213 Gd178 2.468 . S
O213 C231 1.263 . S
O214 Gd178 2.427 . S
O214 C231 1.252 . S
O215 Gd179 2.307 . S
O215 C224 1.261 . S
O216 Gd178 2.388 . S
O216 C224 1.252 . S
O217 Gd178 2.386 . S
O217 C235 1.265 . S
O218 Gd179 2.353 . S
O218 C235 1.242 . S
O219 Gd179 2.468 . S
O219 C243 1.263 . S
O220 Gd179 2.427 . S
O220 C243 1.252 . S
O221 Gd178 2.307 . S
O221 C236 1.261 . S
O222 Gd179 2.388 . S
O222 C236 1.252 . S
C223 O211 1.265 . S
C223 O212 1.242 . S
C224 O215 1.261 . S
C224 O216 1.252 . S
C225 C228 1.394 . S
C225 C230 1.370 . S
C225 C231 1.500 . S
C226 C229 1.383 . S
C226 C230 1.395 . S
C227 C228 1.396 . S
C227 C229 1.365 . S
C227 H244 0.929 . S
C228 C225 1.394 . S
C228 C227 1.396 . S
C228 H245 0.930 . S
C229 C226 1.383 . S
C229 C227 1.365 . S
C229 H246 0.931 . S
C230 C225 1.370 . S
C230 C226 1.395 . S
C230 H247 0.930 . S
C231 Gd178 2.805 . S
C231 O213 1.263 . S
C231 O214 1.252 . S
C231 C225 1.500 . S
C232 H194 0.930 . S
C232 C208 1.417 . S
C232 C233 1.329 . S
C233 C203 1.437 . S
C233 H204 0.929 . S
C233 C232 1.329 . S
H234 C207 0.931 . S
C235 O217 1.265 . S
C235 O218 1.242 . S
C236 O221 1.261 . S
C236 O222 1.252 . S
C237 C240 1.394 . S
C237 C242 1.370 . S
C237 C243 1.500 . S
C238 C241 1.383 . S
C238 C242 1.395 . S
C239 C240 1.396 . S
C239 C241 1.365 . S
C239 H248 0.929 . S
C240 C237 1.394 . S
C240 C239 1.396 . S
C240 H249 0.930 . S
C241 C238 1.383 . S
C241 C239 1.365 . S
C241 H250 0.931 . S
C242 C237 1.370 . S
C242 C238 1.395 . S
C242 H251 0.930 . S
C243 Gd179 2.805 . S
C243 O219 1.263 . S
C243 O220 1.252 . S
C243 C237 1.500 . S
H244 C227 0.929 . S
H245 C228 0.930 . S
H246 C229 0.931 . S
H247 C230 0.930 . S
H248 C239 0.929 . S
H249 C240 0.930 . S
H250 C241 0.931 . S
H251 C242 0.930 . S
C252 C254 1.430 1_655 S
C252 C256 1.432 . S
C252 N258 1.348 1_655 S
C253 C254 1.405 1_655 S
C253 C255 1.417 . S
C253 C265 1.422 . S
C254 C252 1.430 1_455 S
C254 C253 1.405 1_455 S
C254 N264 1.372 . S
C255 C253 1.417 . S
C255 C257 1.329 . S
C255 H274 0.930 . S
C256 C252 1.432 . S
C256 C257 1.437 . S
C256 C260 1.413 . S
C257 C255 1.329 . S
C257 C256 1.437 . S
C257 H279 0.929 . S
N258 C252 1.348 1_455 S
N258 C259 1.338 . S
N258 Gd263 2.622 . S
C259 N258 1.338 . S
C259 C261 1.378 1_455 S
C259 H271 0.929 . S
C260 C256 1.413 . S
C260 C261 1.348 . S
C260 H276 0.931 . S
C261 C259 1.378 1_655 S
C261 C260 1.348 . S
C261 H277 0.930 . S
Gd262 N282 2.622 . S
Gd262 N289 2.570 . S
Gd262 O296 2.353 . S
Gd262 O297 2.468 . S
Gd262 O298 2.427 . S
Gd262 O300 2.388 . S
Gd262 O301 2.386 1_655 S
Gd262 O305 2.307 . S
Gd262 C315 2.805 . S
Gd263 N258 2.622 . S
Gd263 N264 2.570 . S
Gd263 O295 2.386 1_455 S
Gd263 O299 2.307 . S
Gd263 O302 2.353 . S
Gd263 O303 2.468 . S
Gd263 O304 2.427 . S
Gd263 O306 2.388 . S
Gd263 C327 2.805 . S
N264 C254 1.372 . S
N264 Gd263 2.570 . S
N264 C266 1.343 . S
C265 C253 1.422 . S
C265 C267 1.321 1_655 S
C265 H273 0.931 . S
C266 N264 1.343 . S
C266 C267 1.390 . S
C266 H268 0.931 . S
C267 C265 1.321 1_455 S
C267 C266 1.390 . S
C267 H269 0.930 . S
H268 C266 0.931 . S
H269 C267 0.930 . S
H270 C293 0.931 . S
H271 C259 0.929 . S
H272 C294 0.930 . S
H273 C265 0.931 . S
H274 C255 0.930 . S
H275 C284 0.929 . S
H276 C260 0.931 . S
H277 C261 0.930 . S
H278 C316 0.930 . S
H279 C257 0.929 . S
H280 C285 0.931 . S
H281 C286 0.930 . S
N282 Gd262 2.622 . S
N282 C283 1.369 1_655 S
N282 C284 1.338 . S
C283 N282 1.369 1_455 S
C283 C287 1.415 . S
C283 C290 1.422 . S
C284 H275 0.929 . S
C284 N282 1.338 . S
C284 C286 1.378 1_655 S
C285 H280 0.931 . S
C285 C286 1.348 . S
C285 C287 1.413 . S
C286 H281 0.930 . S
C286 C284 1.378 1_455 S
C286 C285 1.348 . S
C287 C283 1.415 . S
C287 C285 1.413 . S
C287 C317 1.437 . S
H288 C317 0.929 . S
N289 Gd262 2.570 . S
N289 C290 1.359 1_655 S
N289 C293 1.343 . S
C290 C283 1.422 . S
C290 N289 1.359 1_455 S
C290 C292 1.421 . S
C291 C292 1.422 . S
C291 C294 1.321 . S
C291 H318 0.931 . S
C292 C290 1.421 . S
C292 C291 1.422 . S
C292 C316 1.417 . S
C293 H270 0.931 . S
C293 N289 1.343 . S
C293 C294 1.390 1_655 S
C294 H272 0.930 . S
C294 C291 1.321 . S
C294 C293 1.390 1_455 S
O295 Gd263 2.386 1_655 S
O295 C307 1.265 . S
O296 Gd262 2.353 . S
O296 C307 1.242 . S
O297 Gd262 2.468 . S
O297 C315 1.263 . S
O298 Gd262 2.427 . S
O298 C315 1.252 . S
O299 Gd263 2.307 . S
O299 C308 1.261 . S
O300 Gd262 2.388 . S
O300 C308 1.252 1_655 S
O301 Gd262 2.386 1_455 S
O301 C319 1.265 . S
O302 Gd263 2.353 . S
O302 C319 1.242 . S
O303 Gd263 2.468 . S
O303 C327 1.263 . S
O304 Gd263 2.427 . S
O304 C327 1.252 . S
O305 Gd262 2.307 . S
O305 C320 1.261 . S
O306 Gd263 2.388 . S
O306 C320 1.252 1_455 S
C307 O295 1.265 . S
C307 O296 1.242 . S
C308 O299 1.261 . S
C308 O300 1.252 1_455 S
C309 C312 1.394 . S
C309 C314 1.370 . S
C309 C315 1.500 . S
C310 C313 1.383 . S
C310 C314 1.395 . S
C311 C312 1.396 . S
C311 C313 1.365 . S
C311 H328 0.929 . S
C312 C309 1.394 . S
C312 C311 1.396 . S
C312 H329 0.930 . S
C313 C310 1.383 . S
C313 C311 1.365 . S
C313 H330 0.931 . S
C314 C309 1.370 . S
C314 C310 1.395 . S
C314 H331 0.930 . S
C315 Gd262 2.805 . S
C315 O297 1.263 . S
C315 O298 1.252 . S
C315 C309 1.500 . S
C316 H278 0.930 . S
C316 C292 1.417 . S
C316 C317 1.329 . S
C317 C287 1.437 . S
C317 H288 0.929 . S
C317 C316 1.329 . S
H318 C291 0.931 . S
C319 O301 1.265 . S
C319 O302 1.242 . S
C320 O305 1.261 . S
C320 O306 1.252 1_655 S
C321 C324 1.394 . S
C321 C326 1.370 . S
C321 C327 1.500 . S
C322 C325 1.383 . S
C322 C326 1.395 . S
C323 C324 1.396 . S
C323 C325 1.365 . S
C323 H332 0.929 . S
C324 C321 1.394 . S
C324 C323 1.396 . S
C324 H333 0.930 . S
C325 C322 1.383 . S
C325 C323 1.365 . S
C325 H334 0.931 . S
C326 C321 1.370 . S
C326 C322 1.395 . S
C326 H335 0.930 . S
C327 Gd263 2.805 . S
C327 O303 1.263 . S
C327 O304 1.252 . S
C327 C321 1.500 . S
H328 C311 0.929 . S
H329 C312 0.930 . S
H330 C313 0.931 . S
H331 C314 0.930 . S
H332 C323 0.929 . S
H333 C324 0.930 . S
H334 C325 0.931 . S
H335 C326 0.930 . S
C336 C338 1.422 . S
C336 C340 1.415 . S
C336 N342 1.369 . S
C337 C338 1.421 . S
C337 C339 1.417 . S
C337 C349 1.422 . S
C338 C336 1.422 . S
C338 C337 1.421 . S
C338 N348 1.359 . S
C339 C337 1.417 . S
C339 C341 1.329 . S
C339 H358 0.930 . S
C340 C336 1.415 . S
C340 C341 1.437 . S
C340 C344 1.413 . S
C341 C339 1.329 . S
C341 C340 1.437 . S
C341 H363 0.929 . S
N342 C336 1.369 . S
N342 C343 1.338 . S
N342 Gd347 2.622 . S
C343 N342 1.338 . S
C343 C345 1.378 . S
C343 H355 0.929 . S
C344 C340 1.413 . S
C344 C345 1.348 . S
C344 H360 0.931 . S
C345 C343 1.378 . S
C345 C344 1.348 . S
C345 H361 0.930 . S
Gd346 N366 2.622 . S
Gd346 N373 2.570 . S
Gd346 O380 2.353 . S
Gd346 O381 2.468 . S
Gd346 O382 2.427 . S
Gd346 O384 2.388 . S
Gd346 O385 2.386 . S
Gd346 O389 2.307 . S
Gd346 C399 2.805 . S
Gd347 N342 2.622 . S
Gd347 N348 2.570 . S
Gd347 O379 2.386 . S
Gd347 O383 2.307 . S
Gd347 O386 2.353 . S
Gd347 O387 2.468 . S
Gd347 O388 2.427 . S
Gd347 O390 2.388 . S
Gd347 C411 2.805 . S
N348 C338 1.359 . S
N348 Gd347 2.570 . S
N348 C350 1.343 . S
C349 C337 1.422 . S
C349 C351 1.321 . S
C349 H357 0.931 . S
C350 N348 1.343 . S
C350 C351 1.390 . S
C350 H352 0.931 . S
C351 C349 1.321 . S
C351 C350 1.390 . S
C351 H353 0.930 . S
H352 C350 0.931 . S
H353 C351 0.930 . S
H354 C377 0.931 . S
H355 C343 0.929 . S
H356 C378 0.930 . S
H357 C349 0.931 . S
H358 C339 0.930 . S
H359 C368 0.929 . S
H360 C344 0.931 . S
H361 C345 0.930 . S
H362 C400 0.930 . S
H363 C341 0.929 . S
H364 C369 0.931 . S
H365 C370 0.930 . S
N366 Gd346 2.622 . S
N366 C367 1.369 . S
N366 C368 1.338 . S
C367 N366 1.369 . S
C367 C371 1.415 . S
C367 C374 1.422 . S
C368 H359 0.929 . S
C368 N366 1.338 . S
C368 C370 1.378 . S
C369 H364 0.931 . S
C369 C370 1.348 . S
C369 C371 1.413 . S
C370 H365 0.930 . S
C370 C368 1.378 . S
C370 C369 1.348 . S
C371 C367 1.415 . S
C371 C369 1.413 . S
C371 C401 1.437 . S
H372 C401 0.929 . S
N373 Gd346 2.570 . S
N373 C374 1.359 . S
N373 C377 1.343 . S
C374 C367 1.422 . S
C374 N373 1.359 . S
C374 C376 1.421 . S
C375 C376 1.422 . S
C375 C378 1.321 . S
C375 H402 0.931 . S
C376 C374 1.421 . S
C376 C375 1.422 . S
C376 C400 1.417 . S
C377 H354 0.931 . S
C377 N373 1.343 . S
C377 C378 1.390 . S
C378 H356 0.930 . S
C378 C375 1.321 . S
C378 C377 1.390 . S
O379 Gd347 2.386 . S
O379 C391 1.265 . S
O380 Gd346 2.353 . S
O380 C391 1.242 . S
O381 Gd346 2.468 . S
O381 C399 1.263 . S
O382 Gd346 2.427 . S
O382 C399 1.252 . S
O383 Gd347 2.307 . S
O383 C392 1.261 . S
O384 Gd346 2.388 . S
O384 C392 1.252 . S
O385 Gd346 2.386 . S
O385 C403 1.265 . S
O386 Gd347 2.353 . S
O386 C403 1.242 . S
O387 Gd347 2.468 . S
O387 C411 1.263 . S
O388 Gd347 2.427 . S
O388 C411 1.252 . S
O389 Gd346 2.307 . S
O389 C404 1.261 . S
O390 Gd347 2.388 . S
O390 C404 1.252 . S
C391 O379 1.265 . S
C391 O380 1.242 . S
C392 O383 1.261 . S
C392 O384 1.252 . S
C393 C396 1.394 . S
C393 C398 1.370 . S
C393 C399 1.500 . S
C394 C397 1.383 . S
C394 C398 1.395 . S
C395 C396 1.396 . S
C395 C397 1.365 . S
C395 H412 0.929 . S
C396 C393 1.394 . S
C396 C395 1.396 . S
C396 H413 0.930 . S
C397 C394 1.383 . S
C397 C395 1.365 . S
C397 H414 0.931 . S
C398 C393 1.370 . S
C398 C394 1.395 . S
C398 H415 0.930 . S
C399 Gd346 2.805 . S
C399 O381 1.263 . S
C399 O382 1.252 . S
C399 C393 1.500 . S
C400 H362 0.930 . S
C400 C376 1.417 . S
C400 C401 1.329 . S
C401 C371 1.437 . S
C401 H372 0.929 . S
C401 C400 1.329 . S
H402 C375 0.931 . S
C403 O385 1.265 . S
C403 O386 1.242 . S
C404 O389 1.261 . S
C404 O390 1.252 . S
C405 C408 1.394 . S
C405 C410 1.370 . S
C405 C411 1.500 . S
C406 C409 1.383 . S
C406 C410 1.395 . S
C407 C408 1.396 . S
C407 C409 1.365 . S
C407 H416 0.929 . S
C408 C405 1.394 . S
C408 C407 1.396 . S
C408 H417 0.930 . S
C409 C406 1.383 . S
C409 C407 1.365 . S
C409 H418 0.931 . S
C410 C405 1.370 . S
C410 C406 1.395 . S
C410 H419 0.930 . S
C411 Gd347 2.805 . S
C411 O387 1.263 . S
C411 O388 1.252 . S
C411 C405 1.500 . S
H412 C395 0.929 . S
H413 C396 0.930 . S
H414 C397 0.931 . S
H415 C398 0.930 . S
H416 C407 0.929 . S
H417 C408 0.930 . S
H418 C409 0.931 . S
H419 C410 0.930 . S
C420 C422 1.422 . S
C420 C424 1.415 . S
C420 N426 1.369 . S
C421 C422 1.421 . S
C421 C423 1.417 . S
C421 C433 1.422 . S
C422 C420 1.422 . S
C422 C421 1.421 . S
C422 N432 1.359 . S
C423 C421 1.417 . S
C423 C425 1.329 . S
C423 H442 0.930 . S
C424 C420 1.415 . S
C424 C425 1.437 . S
C424 C428 1.413 . S
C425 C423 1.329 . S
C425 C424 1.437 . S
C425 H447 0.929 . S
N426 C420 1.369 . S
N426 C427 1.338 . S
N426 Gd431 2.622 1_545 S
C427 N426 1.338 . S
C427 C429 1.378 . S
C427 H439 0.929 . S
C428 C424 1.413 . S
C428 C429 1.348 . S
C428 H444 0.931 . S
C429 C427 1.378 . S
C429 C428 1.348 . S
C429 H445 0.930 . S
Gd430 N450 2.622 . S
Gd430 N457 2.570 . S
Gd430 O464 2.353 . S
Gd430 O465 2.468 . S
Gd430 O466 2.427 . S
Gd430 O468 2.388 . S
Gd430 O469 2.386 1_545 S
Gd430 O473 2.307 . S
Gd430 C483 2.805 . S
Gd431 N426 2.622 1_565 S
Gd431 N432 2.570 1_565 S
Gd431 O463 2.386 1_565 S
Gd431 O467 2.307 1_565 S
Gd431 O470 2.353 . S
Gd431 O471 2.468 . S
Gd431 O472 2.427 . S
Gd431 O474 2.388 1_565 S
Gd431 C495 2.805 . S
N432 C422 1.359 . S
N432 Gd431 2.570 1_545 S
N432 C434 1.343 . S
C433 C421 1.422 . S
C433 C435 1.321 . S
C433 H441 0.931 . S
C434 N432 1.343 . S
C434 C435 1.390 . S
C434 H436 0.931 . S
C435 C433 1.321 . S
C435 C434 1.390 . S
C435 H437 0.930 . S
H436 C434 0.931 . S
H437 C435 0.930 . S
H438 C461 0.931 . S
H439 C427 0.929 . S
H440 C462 0.930 . S
H441 C433 0.931 . S
H442 C423 0.930 . S
H443 C452 0.929 . S
H444 C428 0.931 . S
H445 C429 0.930 . S
H446 C484 0.930 . S
H447 C425 0.929 . S
H448 C453 0.931 1_565 S
H449 C454 0.930 . S
N450 Gd430 2.622 . S
N450 C451 1.369 . S
N450 C452 1.338 . S
C451 N450 1.369 . S
C451 C455 1.415 . S
C451 C458 1.422 . S
C452 H443 0.929 . S
C452 N450 1.338 . S
C452 C454 1.378 . S
C453 H448 0.931 1_545 S
C453 C454 1.348 . S
C453 C455 1.413 . S
C454 H449 0.930 . S
C454 C452 1.378 . S
C454 C453 1.348 . S
C455 C451 1.415 . S
C455 C453 1.413 . S
C455 C485 1.437 1_545 S
H456 C485 0.929 . S
N457 Gd430 2.570 . S
N457 C458 1.359 . S
N457 C461 1.343 . S
C458 C451 1.422 . S
C458 N457 1.359 . S
C458 C460 1.421 . S
C459 C460 1.422 . S
C459 C462 1.321 . S
C459 H486 0.934 1_545 S
C460 C458 1.421 . S
C460 C459 1.422 . S
C460 C484 1.417 1_545 S
C461 H438 0.931 . S
C461 N457 1.343 . S
C461 C462 1.390 . S
C462 H440 0.930 . S
C462 C459 1.321 . S
C462 C461 1.390 . S
O463 Gd431 2.386 1_545 S
O463 C475 1.265 . S
O464 Gd430 2.353 . S
O464 C475 1.242 . S
O465 Gd430 2.468 . S
O465 C483 1.263 . S
O466 Gd430 2.427 . S
O466 C483 1.252 . S
O467 Gd431 2.307 1_545 S
O467 C476 1.261 . S
O468 Gd430 2.388 . S
O468 C476 1.252 . S
O469 Gd430 2.386 1_565 S
O469 C487 1.265 . S
O470 Gd431 2.353 . S
O470 C487 1.242 . S
O471 Gd431 2.468 . S
O471 C495 1.263 . S
O472 Gd431 2.427 . S
O472 C495 1.252 . S
O473 Gd430 2.307 . S
O473 C488 1.261 . S
O474 Gd431 2.388 1_545 S
O474 C488 1.252 . S
C475 O463 1.265 . S
C475 O464 1.242 . S
C476 O467 1.261 . S
C476 O468 1.252 . S
C477 C480 1.394 . S
C477 C482 1.370 . S
C477 C483 1.500 . S
C478 C481 1.383 . S
C478 C482 1.395 . S
C479 C480 1.396 . S
C479 C481 1.365 . S
C479 H496 0.929 . S
C480 C477 1.394 . S
C480 C479 1.396 . S
C480 H497 0.930 . S
C481 C478 1.383 . S
C481 C479 1.365 . S
C481 H498 0.931 . S
C482 C477 1.370 . S
C482 C478 1.395 . S
C482 H499 0.930 . S
C483 Gd430 2.805 . S
C483 O465 1.263 . S
C483 O466 1.252 . S
C483 C477 1.500 . S
C484 H446 0.930 . S
C484 C460 1.417 1_565 S
C484 C485 1.329 . S
C485 C455 1.437 1_565 S
C485 H456 0.929 . S
C485 C484 1.329 . S
H486 C459 0.934 1_565 S
C487 O469 1.265 . S
C487 O470 1.242 . S
C488 O473 1.261 . S
C488 O474 1.252 . S
C489 C492 1.394 . S
C489 C494 1.370 . S
C489 C495 1.500 . S
C490 C493 1.383 . S
C490 C494 1.395 . S
C491 C492 1.396 . S
C491 C493 1.365 . S
C491 H500 0.929 . S
C492 C489 1.394 . S
C492 C491 1.396 . S
C492 H501 0.930 . S
C493 C490 1.383 . S
C493 C491 1.365 . S
C493 H502 0.931 . S
C494 C489 1.370 . S
C494 C490 1.395 . S
C494 H503 0.930 . S
C495 Gd431 2.805 . S
C495 O471 1.263 . S
C495 O472 1.252 . S
C495 C489 1.500 . S
H496 C479 0.929 . S
H497 C480 0.930 . S
H498 C481 0.931 . S
H499 C482 0.930 . S
H500 C491 0.929 . S
H501 C492 0.930 . S
H502 C493 0.931 . S
H503 C494 0.930 . S
C504 C506 1.422 . S
C504 C508 1.415 . S
C504 N510 1.369 . S
C505 C506 1.421 . S
C505 C507 1.417 . S
C505 C517 1.422 . S
C506 C504 1.422 . S
C506 C505 1.421 . S
C506 N516 1.359 . S
C507 C505 1.417 . S
C507 C509 1.329 . S
C507 H526 0.930 . S
C508 C504 1.415 . S
C508 C509 1.437 . S
C508 C512 1.413 . S
C509 C507 1.329 . S
C509 C508 1.437 . S
C509 H531 0.929 . S
N510 C504 1.369 . S
N510 C511 1.338 . S
N510 Gd515 2.622 . S
C511 N510 1.338 . S
C511 C513 1.378 . S
C511 H523 0.929 . S
C512 C508 1.413 . S
C512 C513 1.348 . S
C512 H528 0.931 . S
C513 C511 1.378 . S
C513 C512 1.348 . S
C513 H529 0.930 . S
Gd514 N534 2.622 . S
Gd514 N541 2.570 . S
Gd514 O548 2.353 . S
Gd514 O549 2.468 . S
Gd514 O550 2.427 . S
Gd514 O552 2.388 . S
Gd514 O553 2.386 . S
Gd514 O557 2.307 . S
Gd514 C567 2.805 . S
Gd515 N510 2.622 . S
Gd515 N516 2.570 . S
Gd515 O547 2.386 . S
Gd515 O551 2.307 . S
Gd515 O554 2.353 . S
Gd515 O555 2.468 . S
Gd515 O556 2.427 . S
Gd515 O558 2.388 . S
Gd515 C579 2.805 . S
N516 C506 1.359 . S
N516 Gd515 2.570 . S
N516 C518 1.343 . S
C517 C505 1.422 . S
C517 C519 1.321 . S
C517 H525 0.931 . S
C518 N516 1.343 . S
C518 C519 1.390 . S
C518 H520 0.931 . S
C519 C517 1.321 . S
C519 C518 1.390 . S
C519 H521 0.930 . S
H520 C518 0.931 . S
H521 C519 0.930 . S
H522 C545 0.931 . S
H523 C511 0.929 . S
H524 C546 0.930 1_655 S
H525 C517 0.931 . S
H526 C507 0.930 . S
H527 C536 0.929 . S
H528 C512 0.931 . S
H529 C513 0.930 . S
H530 C568 0.930 . S
H531 C509 0.929 . S
H532 C537 0.931 . S
H533 C538 0.930 . S
N534 Gd514 2.622 . S
N534 C535 1.369 . S
N534 C536 1.338 . S
C535 N534 1.369 . S
C535 C539 1.415 . S
C535 C542 1.422 . S
C536 H527 0.929 . S
C536 N534 1.338 . S
C536 C538 1.378 . S
C537 H532 0.931 . S
C537 C538 1.348 . S
C537 C539 1.413 . S
C538 H533 0.930 . S
C538 C536 1.378 . S
C538 C537 1.348 . S
C539 C535 1.415 . S
C539 C537 1.413 . S
C539 C569 1.437 . S
H540 C569 0.929 1_655 S
N541 Gd514 2.570 . S
N541 C542 1.359 . S
N541 C545 1.343 . S
C542 C535 1.422 . S
C542 N541 1.359 . S
C542 C544 1.421 . S
C543 C544 1.422 1_655 S
C543 C546 1.321 1_655 S
C543 H570 0.931 . S
C544 C542 1.421 . S
C544 C543 1.422 1_455 S
C544 C568 1.417 1_455 S
C545 H522 0.931 . S
C545 N541 1.343 . S
C545 C546 1.390 . S
C546 H524 0.930 1_455 S
C546 C543 1.321 1_455 S
C546 C545 1.390 . S
O547 Gd515 2.386 . S
O547 C559 1.265 . S
O548 Gd514 2.353 . S
O548 C559 1.242 . S
O549 Gd514 2.468 . S
O549 C567 1.263 . S
O550 Gd514 2.427 . S
O550 C567 1.252 . S
O551 Gd515 2.307 . S
O551 C560 1.261 . S
O552 Gd514 2.388 . S
O552 C560 1.252 . S
O553 Gd514 2.386 . S
O553 C571 1.265 . S
O554 Gd515 2.353 . S
O554 C571 1.242 . S
O555 Gd515 2.468 . S
O555 C579 1.263 . S
O556 Gd515 2.427 . S
O556 C579 1.252 . S
O557 Gd514 2.307 . S
O557 C572 1.261 . S
O558 Gd515 2.388 . S
O558 C572 1.252 . S
C559 O547 1.265 . S
C559 O548 1.242 . S
C560 O551 1.261 . S
C560 O552 1.252 . S
C561 C564 1.394 . S
C561 C566 1.370 . S
C561 C567 1.500 1_655 S
C562 C565 1.383 . S
C562 C566 1.395 . S
C563 C564 1.396 . S
C563 C565 1.365 . S
C563 H580 0.929 . S
C564 C561 1.394 . S
C564 C563 1.396 . S
C564 H581 0.930 . S
C565 C562 1.383 . S
C565 C563 1.365 . S
C565 H582 0.931 . S
C566 C561 1.370 . S
C566 C562 1.395 . S
C566 H583 0.930 . S
C567 Gd514 2.805 . S
C567 O549 1.263 . S
C567 O550 1.252 . S
C567 C561 1.500 1_455 S
C568 H530 0.930 . S
C568 C544 1.417 1_655 S
C568 C569 1.329 1_655 S
C569 C539 1.437 . S
C569 H540 0.929 1_455 S
C569 C568 1.329 1_455 S
H570 C543 0.931 . S
C571 O553 1.265 . S
C571 O554 1.242 . S
C572 O557 1.261 . S
C572 O558 1.252 . S
C573 C576 1.394 . S
C573 C578 1.370 . S
C573 C579 1.500 . S
C574 C577 1.383 . S
C574 C578 1.395 . S
C575 C576 1.396 . S
C575 C577 1.365 . S
C575 H584 0.929 . S
C576 C573 1.394 . S
C576 C575 1.396 . S
C576 H585 0.930 . S
C577 C574 1.383 . S
C577 C575 1.365 . S
C577 H586 0.931 . S
C578 C573 1.370 . S
C578 C574 1.395 . S
C578 H587 0.930 . S
C579 Gd515 2.805 . S
C579 O555 1.263 . S
C579 O556 1.252 . S
C579 C573 1.500 . S
H580 C563 0.929 . S
H581 C564 0.930 . S
H582 C565 0.931 . S
H583 C566 0.930 . S
H584 C575 0.929 . S
H585 C576 0.930 . S
H586 C577 0.931 . S
H587 C578 0.930 . S
C588 C590 1.422 . S
C588 C592 1.415 . S
C588 N594 1.369 . S
C589 C590 1.421 1_545 S
C589 C591 1.417 . S
C589 C601 1.422 . S
C590 C588 1.422 . S
C590 C589 1.421 1_565 S
C590 N600 1.359 . S
C591 C589 1.417 . S
C591 C593 1.329 . S
C591 H610 0.930 . S
C592 C588 1.415 . S
C592 C593 1.437 1_565 S
C592 C596 1.413 . S
C593 C591 1.329 . S
C593 C592 1.437 1_545 S
C593 H615 0.929 . S
N594 C588 1.369 . S
N594 C595 1.338 . S
N594 Gd599 2.622 . S
C595 N594 1.338 . S
C595 C597 1.378 . S
C595 H607 0.929 . S
C596 C592 1.413 . S
C596 C597 1.348 . S
C596 H612 0.931 1_565 S
C597 C595 1.378 . S
C597 C596 1.348 . S
C597 H613 0.930 . S
Gd598 N618 2.622 . S
Gd598 N625 2.570 . S
Gd598 O632 2.353 . S
Gd598 O633 2.468 . S
Gd598 O634 2.427 . S
Gd598 O636 2.388 . S
Gd598 O637 2.386 . S
Gd598 O641 2.307 . S
Gd598 C651 2.805 . S
Gd599 N594 2.622 . S
Gd599 N600 2.570 . S
Gd599 O631 2.386 . S
Gd599 O635 2.307 . S
Gd599 O638 2.353 . S
Gd599 O639 2.468 . S
Gd599 O640 2.427 . S
Gd599 O642 2.388 . S
Gd599 C663 2.805 . S
N600 C590 1.359 . S
N600 Gd599 2.570 . S
N600 C602 1.343 . S
C601 C589 1.422 . S
C601 C603 1.321 . S
C601 H609 0.931 . S
C602 N600 1.343 . S
C602 C603 1.390 1_565 S
C602 H604 0.931 . S
C603 C601 1.321 . S
C603 C602 1.390 1_545 S
C603 H605 0.930 . S
H604 C602 0.931 . S
H605 C603 0.930 . S
H606 C629 0.931 . S
H607 C595 0.929 . S
H608 C630 0.930 . S
H609 C601 0.931 . S
H610 C591 0.930 . S
H611 C620 0.929 . S
H612 C596 0.931 1_545 S
H613 C597 0.930 . S
H614 C652 0.930 . S
H615 C593 0.929 . S
H616 C621 0.931 . S
H617 C622 0.930 . S
N618 Gd598 2.622 . S
N618 C619 1.369 . S
N618 C620 1.338 . S
C619 N618 1.369 . S
C619 C623 1.415 . S
C619 C626 1.422 . S
C620 H611 0.929 . S
C620 N618 1.338 . S
C620 C622 1.378 . S
C621 H616 0.931 . S
C621 C622 1.348 . S
C621 C623 1.413 . S
C622 H617 0.930 . S
C622 C620 1.378 . S
C622 C621 1.348 . S
C623 C619 1.415 . S
C623 C621 1.413 . S
C623 C653 1.437 . S
H624 C653 0.929 . S
N625 Gd598 2.570 . S
N625 C626 1.359 . S
N625 C629 1.343 . S
C626 C619 1.422 . S
C626 N625 1.359 . S
C626 C628 1.421 . S
C627 C628 1.422 . S
C627 C630 1.321 . S
C627 H654 0.931 . S
C628 C626 1.421 . S
C628 C627 1.422 . S
C628 C652 1.417 . S
C629 H606 0.931 . S
C629 N625 1.343 . S
C629 C630 1.390 . S
C630 H608 0.930 . S
C630 C627 1.321 . S
C630 C629 1.390 . S
O631 Gd599 2.386 . S
O631 C643 1.265 . S
O632 Gd598 2.353 . S
O632 C643 1.242 . S
O633 Gd598 2.468 . S
O633 C651 1.263 . S
O634 Gd598 2.427 . S
O634 C651 1.252 . S
O635 Gd599 2.307 . S
O635 C644 1.261 . S
O636 Gd598 2.388 . S
O636 C644 1.252 . S
O637 Gd598 2.386 . S
O637 C655 1.265 . S
O638 Gd599 2.353 . S
O638 C655 1.242 . S
O639 Gd599 2.468 . S
O639 C663 1.263 . S
O640 Gd599 2.427 . S
O640 C663 1.252 . S
O641 Gd598 2.307 . S
O641 C656 1.261 . S
O642 Gd599 2.388 . S
O642 C656 1.252 . S
C643 O631 1.265 . S
C643 O632 1.242 . S
C644 O635 1.261 . S
C644 O636 1.252 . S
C645 C648 1.394 . S
C645 C650 1.370 . S
C645 C651 1.500 . S
C646 C649 1.383 . S
C646 C650 1.395 . S
C647 C648 1.396 . S
C647 C649 1.365 . S
C647 H664 0.929 . S
C648 C645 1.394 . S
C648 C647 1.396 . S
C648 H665 0.930 . S
C649 C646 1.383 . S
C649 C647 1.365 . S
C649 H666 0.931 . S
C650 C645 1.370 . S
C650 C646 1.395 . S
C650 H667 0.930 . S
C651 Gd598 2.805 . S
C651 O633 1.263 . S
C651 O634 1.252 . S
C651 C645 1.500 . S
C652 H614 0.930 . S
C652 C628 1.417 . S
C652 C653 1.329 . S
C653 C623 1.437 . S
C653 H624 0.929 . S
C653 C652 1.329 . S
H654 C627 0.931 . S
C655 O637 1.265 . S
C655 O638 1.242 . S
C656 O641 1.261 . S
C656 O642 1.252 . S
C657 C660 1.394 . S
C657 C662 1.370 . S
C657 C663 1.500 . S
C658 C661 1.383 . S
C658 C662 1.395 . S
C659 C660 1.396 . S
C659 C661 1.365 . S
C659 H668 0.929 . S
C660 C657 1.394 . S
C660 C659 1.396 . S
C660 H669 0.930 . S
C661 C658 1.383 . S
C661 C659 1.365 . S
C661 H670 0.931 . S
C662 C657 1.370 . S
C662 C658 1.395 . S
C662 H671 0.930 . S
C663 Gd599 2.805 . S
C663 O639 1.263 . S
C663 O640 1.252 . S
C663 C657 1.500 . S
H664 C647 0.929 . S
H665 C648 0.930 . S
H666 C649 0.931 . S
H667 C650 0.930 . S
H668 C659 0.929 . S
H669 C660 0.930 . S
H670 C661 0.931 . S
H671 C662 0.930 . S
C672 C674 1.422 . S
C672 C676 1.415 . S
C672 N678 1.369 . S
C673 C674 1.421 . S
C673 C675 1.417 1_455 S
C673 C685 1.422 1_455 S
C674 C672 1.422 . S
C674 C673 1.421 . S
C674 N684 1.359 . S
C675 C673 1.417 1_655 S
C675 C677 1.329 . S
C675 H694 0.930 . S
C676 C672 1.415 . S
C676 C677 1.437 1_455 S
C676 C680 1.413 . S
C677 C675 1.329 . S
C677 C676 1.437 1_655 S
C677 H699 0.929 . S
N678 C672 1.369 . S
N678 C679 1.338 . S
N678 Gd683 2.622 . S
C679 N678 1.338 . S
C679 C681 1.378 . S
C679 H691 0.929 . S
C680 C676 1.413 . S
C680 C681 1.348 . S
C680 H696 0.931 . S
C681 C679 1.378 . S
C681 C680 1.348 . S
C681 H697 0.930 . S
Gd682 N702 2.622 . S
Gd682 N709 2.570 . S
Gd682 O716 2.353 . S
Gd682 O717 2.468 . S
Gd682 O718 2.427 . S
Gd682 O720 2.388 . S
Gd682 O721 2.386 . S
Gd682 O725 2.307 . S
Gd682 C735 2.783 1_565 S
Gd683 N678 2.622 . S
Gd683 N684 2.570 . S
Gd683 O715 2.386 . S
Gd683 O719 2.307 . S
Gd683 O722 2.353 . S
Gd683 O723 2.468 . S
Gd683 O724 2.427 . S
Gd683 O726 2.388 . S
Gd683 C747 2.805 . S
N684 C674 1.359 . S
N684 Gd683 2.570 . S
N684 C686 1.343 . S
C685 C673 1.422 1_655 S
C685 C687 1.321 1_655 S
C685 H693 0.931 . S
C686 N684 1.343 . S
C686 C687 1.390 . S
C686 H688 0.931 . S
C687 C685 1.321 1_455 S
C687 C686 1.390 . S
C687 H689 0.930 . S
H688 C686 0.931 . S
H689 C687 0.930 . S
H690 C713 0.931 1_565 S
H691 C679 0.929 . S
H692 C714 0.930 . S
H693 C685 0.931 . S
H694 C675 0.930 . S
H695 C704 0.929 . S
H696 C680 0.931 . S
H697 C681 0.930 . S
H698 C736 0.930 . S
H699 C677 0.929 . S
H700 C705 0.931 . S
H701 C706 0.930 . S
N702 Gd682 2.622 . S
N702 C703 1.369 . S
N702 C704 1.338 . S
C703 N702 1.369 . S
C703 C707 1.415 . S
C703 C710 1.422 1_565 S
C704 H695 0.929 . S
C704 N702 1.338 . S
C704 C706 1.378 . S
C705 H700 0.931 . S
C705 C706 1.348 . S
C705 C707 1.414 . S
C706 H701 0.930 . S
C706 C704 1.378 . S
C706 C705 1.348 . S
C707 C703 1.415 . S
C707 C705 1.414 . S
C707 C737 1.437 1_565 S
H708 C737 0.929 . S
N709 Gd682 2.570 . S
N709 C710 1.359 1_565 S
N709 C713 1.343 1_565 S
C710 C703 1.422 1_545 S
C710 N709 1.359 1_545 S
C710 C712 1.421 . S
C711 C712 1.422 . S
C711 C714 1.321 . S
C711 H738 0.931 . S
C712 C710 1.421 . S
C712 C711 1.422 . S
C712 C736 1.417 . S
C713 H690 0.931 1_545 S
C713 N709 1.343 1_545 S
C713 C714 1.390 . S
C714 H692 0.930 . S
C714 C711 1.321 . S
C714 C713 1.390 . S
O715 Gd683 2.386 . S
O715 C727 1.265 . S
O716 Gd682 2.353 . S
O716 C727 1.242 . S
O717 Gd682 2.468 . S
O717 C735 1.254 1_565 S
O718 Gd682 2.427 . S
O718 C735 1.240 1_565 S
O719 Gd683 2.307 . S
O719 C728 1.261 . S
O720 Gd682 2.388 . S
O720 C728 1.252 . S
O721 Gd682 2.386 . S
O721 C739 1.265 . S
O722 Gd683 2.353 . S
O722 C739 1.242 . S
O723 Gd683 2.468 . S
O723 C747 1.263 . S
O724 Gd683 2.427 . S
O724 C747 1.252 . S
O725 Gd682 2.307 . S
O725 C740 1.261 . S
O726 Gd683 2.388 . S
O726 C740 1.252 . S
C727 O715 1.265 . S
C727 O716 1.242 . S
C728 O719 1.261 . S
C728 O720 1.252 . S
C729 C732 1.394 . S
C729 C734 1.370 . S
C729 C735 1.523 . S
C730 C733 1.383 . S
C730 C734 1.395 . S
C731 C732 1.396 . S
C731 C733 1.365 . S
C731 H748 0.929 . S
C732 C729 1.394 . S
C732 C731 1.396 . S
C732 H749 0.930 . S
C733 C730 1.383 . S
C733 C731 1.365 . S
C733 H750 0.931 . S
C734 C729 1.370 . S
C734 C730 1.395 . S
C734 H751 0.930 . S
C735 Gd682 2.783 1_545 S
C735 O717 1.254 1_545 S
C735 O718 1.240 1_545 S
C735 C729 1.523 . S
C736 H698 0.930 . S
C736 C712 1.417 . S
C736 C737 1.329 . S
C737 C707 1.437 1_545 S
C737 H708 0.929 . S
C737 C736 1.329 . S
H738 C711 0.931 . S
C739 O721 1.265 . S
C739 O722 1.242 . S
C740 O725 1.261 . S
C740 O726 1.252 . S
C741 C744 1.394 . S
C741 C746 1.370 . S
C741 C747 1.500 . S
C742 C745 1.383 . S
C742 C746 1.395 . S
C743 C744 1.396 . S
C743 C745 1.365 . S
C743 H752 0.929 . S
C744 C741 1.394 . S
C744 C743 1.396 . S
C744 H753 0.930 . S
C745 C742 1.383 . S
C745 C743 1.365 . S
C745 H754 0.931 . S
C746 C741 1.370 . S
C746 C742 1.395 . S
C746 H755 0.930 . S
C747 Gd683 2.805 . S
C747 O723 1.263 . S
C747 O724 1.252 . S
C747 C741 1.500 . S
H748 C731 0.929 . S
H749 C732 0.930 . S
H750 C733 0.931 . S
H751 C734 0.930 . S
H752 C743 0.929 . S
H753 C744 0.930 . S
H754 C745 0.931 . S
H755 C746 0.930 . S
C756 C758 1.422 . S
C756 C760 1.415 . S
C756 N762 1.369 . S
C757 C758 1.421 . S
C757 C759 1.417 1_565 S
C757 C769 1.422 1_565 S
C758 C756 1.422 . S
C758 C757 1.421 . S
C758 N768 1.359 . S
C759 C757 1.417 1_545 S
C759 C761 1.329 1_545 S
C759 H778 0.930 . S
C760 C756 1.415 . S
C760 C761 1.437 . S
C760 C764 1.413 . S
C761 C759 1.329 1_565 S
C761 C760 1.437 . S
C761 H783 0.929 . S
N762 C756 1.369 . S
N762 C763 1.338 . S
N762 Gd767 2.622 . S
C763 N762 1.338 . S
C763 C765 1.378 . S
C763 H775 0.929 . S
C764 C760 1.413 . S
C764 C765 1.348 . S
C764 H780 0.931 . S
C765 C763 1.378 . S
C765 C764 1.348 . S
C765 H781 0.930 . S
Gd766 N786 2.622 . S
Gd766 N793 2.570 . S
Gd766 O800 2.353 . S
Gd766 O801 2.468 . S
Gd766 O802 2.427 . S
Gd766 O804 2.388 . S
Gd766 O805 2.386 . S
Gd766 O809 2.307 . S
Gd766 C819 2.805 . S
Gd767 N762 2.622 . S
Gd767 N768 2.570 . S
Gd767 O799 2.386 . S
Gd767 O803 2.307 . S
Gd767 O806 2.353 . S
Gd767 O807 2.468 . S
Gd767 O808 2.427 . S
Gd767 O810 2.388 . S
Gd767 C831 2.805 . S
N768 C758 1.359 . S
N768 Gd767 2.570 . S
N768 C770 1.343 . S
C769 C757 1.422 1_545 S
C769 C771 1.321 1_545 S
C769 H777 0.931 . S
C770 N768 1.343 . S
C770 C771 1.390 . S
C770 H772 0.931 . S
C771 C769 1.321 1_565 S
C771 C770 1.390 . S
C771 H773 0.939 . S
H772 C770 0.931 . S
H773 C771 0.939 . S
H774 C797 0.931 . S
H775 C763 0.929 . S
H776 C798 0.930 . S
H777 C769 0.931 . S
H778 C759 0.930 . S
H779 C788 0.929 . S
H780 C764 0.931 . S
H781 C765 0.930 . S
H782 C820 0.930 . S
H783 C761 0.929 . S
H784 C789 0.931 . S
H785 C790 0.930 . S
N786 Gd766 2.622 . S
N786 C787 1.369 . S
N786 C788 1.338 . S
C787 N786 1.369 . S
C787 C791 1.415 . S
C787 C794 1.422 . S
C788 H779 0.929 . S
C788 N786 1.338 . S
C788 C790 1.378 . S
C789 H784 0.931 . S
C789 C790 1.348 . S
C789 C791 1.413 . S
C790 H785 0.930 . S
C790 C788 1.378 . S
C790 C789 1.348 . S
C791 C787 1.415 . S
C791 C789 1.413 . S
C791 C821 1.437 . S
H792 C821 0.929 . S
N793 Gd766 2.570 . S
N793 C794 1.359 . S
N793 C797 1.343 . S
C794 C787 1.422 . S
C794 N793 1.359 . S
C794 C796 1.421 . S
C795 C796 1.422 . S
C795 C798 1.321 . S
C795 H822 0.931 . S
C796 C794 1.421 . S
C796 C795 1.422 . S
C796 C820 1.417 . S
C797 H774 0.931 . S
C797 N793 1.343 . S
C797 C798 1.390 . S
C798 H776 0.930 . S
C798 C795 1.321 . S
C798 C797 1.390 . S
O799 Gd767 2.386 . S
O799 C811 1.265 . S
O800 Gd766 2.353 . S
O800 C811 1.242 . S
O801 Gd766 2.468 . S
O801 C819 1.263 . S
O802 Gd766 2.427 . S
O802 C819 1.252 . S
O803 Gd767 2.307 . S
O803 C812 1.261 . S
O804 Gd766 2.388 . S
O804 C812 1.252 . S
O805 Gd766 2.386 . S
O805 C823 1.265 . S
O806 Gd767 2.353 . S
O806 C823 1.242 . S
O807 Gd767 2.468 . S
O807 C831 1.263 . S
O808 Gd767 2.427 . S
O808 C831 1.252 . S
O809 Gd766 2.307 . S
O809 C824 1.261 . S
O810 Gd767 2.388 . S
O810 C824 1.252 . S
C811 O799 1.265 . S
C811 O800 1.242 . S
C812 O803 1.261 . S
C812 O804 1.252 . S
C813 C816 1.394 . S
C813 C818 1.370 . S
C813 C819 1.500 . S
C814 C817 1.383 . S
C814 C818 1.395 . S
C815 C816 1.396 . S
C815 C817 1.365 . S
C815 H832 0.929 . S
C816 C813 1.394 . S
C816 C815 1.396 . S
C816 H833 0.930 . S
C817 C814 1.383 . S
C817 C815 1.365 . S
C817 H834 0.931 . S
C818 C813 1.370 . S
C818 C814 1.395 . S
C818 H835 0.930 . S
C819 Gd766 2.805 . S
C819 O801 1.263 . S
C819 O802 1.252 . S
C819 C813 1.500 . S
C820 H782 0.930 . S
C820 C796 1.417 . S
C820 C821 1.329 . S
C821 C791 1.437 . S
C821 H792 0.929 . S
C821 C820 1.329 . S
H822 C795 0.931 . S
C823 O805 1.265 . S
C823 O806 1.242 . S
C824 O809 1.261 . S
C824 O810 1.252 . S
C825 C828 1.395 . S
C825 C830 1.373 . S
C825 C831 1.497 1_545 S
C826 C829 1.383 . S
C826 C830 1.395 . S
C827 C828 1.396 . S
C827 C829 1.365 . S
C827 H836 0.929 . S
C828 C825 1.395 . S
C828 C827 1.396 . S
C828 H837 0.930 1_545 S
C829 C826 1.383 . S
C829 C827 1.365 . S
C829 H838 0.931 . S
C830 C825 1.373 . S
C830 C826 1.395 . S
C830 H839 0.930 . S
C831 Gd767 2.805 . S
C831 O807 1.263 . S
C831 O808 1.252 . S
C831 C825 1.497 1_565 S
H832 C815 0.929 . S
H833 C816 0.930 . S
H834 C817 0.931 . S
H835 C818 0.930 . S
H836 C827 0.929 . S
H837 C828 0.930 1_565 S
H838 C829 0.931 . S
H839 C830 0.930 . S
C840 C842 1.422 . S
C840 C844 1.415 . S
C840 N846 1.369 . S
C841 C842 1.421 . S
C841 C843 1.417 . S
C841 C853 1.422 . S
C842 C840 1.422 . S
C842 C841 1.421 . S
C842 N852 1.359 . S
C843 C841 1.417 . S
C843 C845 1.329 . S
C843 H862 0.930 . S
C844 C840 1.415 . S
C844 C845 1.437 . S
C844 C848 1.413 . S
C845 C843 1.329 . S
C845 C844 1.437 . S
C845 H867 0.929 . S
N846 C840 1.369 . S
N846 C847 1.338 . S
N846 Gd851 2.622 . S
C847 N846 1.338 . S
C847 C849 1.378 . S
C847 H859 0.929 . S
C848 C844 1.413 . S
C848 C849 1.348 . S
C848 H864 0.931 . S
C849 C847 1.378 . S
C849 C848 1.348 . S
C849 H865 0.930 . S
Gd850 N870 2.622 . S
Gd850 N877 2.570 . S
Gd850 O884 2.353 . S
Gd850 O885 2.468 . S
Gd850 O886 2.427 . S
Gd850 O888 2.388 . S
Gd850 O889 2.386 . S
Gd850 O893 2.307 . S
Gd850 C903 2.805 . S
Gd851 N846 2.622 . S
Gd851 N852 2.570 . S
Gd851 O883 2.386 . S
Gd851 O887 2.307 . S
Gd851 O890 2.353 . S
Gd851 O891 2.468 . S
Gd851 O892 2.427 . S
Gd851 O894 2.388 . S
Gd851 C915 2.805 . S
N852 C842 1.359 . S
N852 Gd851 2.570 . S
N852 C854 1.343 . S
C853 C841 1.422 . S
C853 C855 1.321 . S
C853 H861 0.931 . S
C854 N852 1.343 . S
C854 C855 1.390 . S
C854 H856 0.931 . S
C855 C853 1.321 . S
C855 C854 1.390 . S
C855 H857 0.930 . S
H856 C854 0.931 . S
H857 C855 0.930 . S
H858 C881 0.931 . S
H859 C847 0.929 . S
H860 C882 0.930 . S
H861 C853 0.931 . S
H862 C843 0.930 . S
H863 C872 0.929 . S
H864 C848 0.931 . S
H865 C849 0.930 . S
H866 C904 0.930 . S
H867 C845 0.929 . S
H868 C873 0.931 1_545 S
H869 C874 0.930 . S
N870 Gd850 2.622 . S
N870 C871 1.369 . S
N870 C872 1.338 . S
C871 N870 1.369 . S
C871 C875 1.415 1_565 S
C871 C878 1.422 . S
C872 H863 0.929 . S
C872 N870 1.338 . S
C872 C874 1.378 . S
C873 H868 0.931 1_565 S
C873 C874 1.348 . S
C873 C875 1.413 1_565 S
C874 H869 0.930 . S
C874 C872 1.378 . S
C874 C873 1.348 . S
C875 C871 1.415 1_545 S
C875 C873 1.413 1_545 S
C875 C905 1.437 . S
H876 C905 0.929 . S
N877 Gd850 2.570 . S
N877 C878 1.359 . S
N877 C881 1.343 . S
C878 C871 1.422 . S
C878 N877 1.359 . S
C878 C880 1.421 1_565 S
C879 C880 1.422 . S
C879 C882 1.321 . S
C879 H906 0.931 . S
C880 C878 1.421 1_545 S
C880 C879 1.422 . S
C880 C904 1.417 . S
C881 H858 0.931 . S
C881 N877 1.343 . S
C881 C882 1.390 1_565 S
C882 H860 0.930 . S
C882 C879 1.321 . S
C882 C881 1.390 1_545 S
O883 Gd851 2.386 . S
O883 C895 1.265 . S
O884 Gd850 2.353 . S
O884 C895 1.242 . S
O885 Gd850 2.468 . S
O885 C903 1.263 . S
O886 Gd850 2.427 . S
O886 C903 1.252 . S
O887 Gd851 2.307 . S
O887 C896 1.261 . S
O888 Gd850 2.388 . S
O888 C896 1.252 . S
O889 Gd850 2.386 . S
O889 C907 1.265 . S
O890 Gd851 2.353 . S
O890 C907 1.242 . S
O891 Gd851 2.468 . S
O891 C915 1.263 . S
O892 Gd851 2.427 . S
O892 C915 1.252 . S
O893 Gd850 2.307 . S
O893 C908 1.261 . S
O894 Gd851 2.388 . S
O894 C908 1.252 . S
C895 O883 1.265 . S
C895 O884 1.242 . S
C896 O887 1.261 . S
C896 O888 1.252 . S
C897 C900 1.394 . S
C897 C902 1.370 . S
C897 C903 1.500 . S
C898 C901 1.383 . S
C898 C902 1.395 . S
C899 C900 1.396 . S
C899 C901 1.365 . S
C899 H916 0.929 . S
C900 C897 1.394 . S
C900 C899 1.396 . S
C900 H917 0.930 . S
C901 C898 1.383 . S
C901 C899 1.365 . S
C901 H918 0.931 . S
C902 C897 1.370 . S
C902 C898 1.395 . S
C902 H919 0.930 . S
C903 Gd850 2.805 . S
C903 O885 1.263 . S
C903 O886 1.252 . S
C903 C897 1.500 . S
C904 H866 0.930 . S
C904 C880 1.417 . S
C904 C905 1.329 . S
C905 C875 1.437 . S
C905 H876 0.929 . S
C905 C904 1.329 . S
H906 C879 0.931 . S
C907 O889 1.265 . S
C907 O890 1.242 . S
C908 O893 1.261 . S
C908 O894 1.252 . S
C909 C912 1.394 . S
C909 C914 1.370 . S
C909 C915 1.500 . S
C910 C913 1.383 . S
C910 C914 1.395 1_655 S
C911 C912 1.396 1_655 S
C911 C913 1.365 . S
C911 H920 0.929 . S
C912 C909 1.394 . S
C912 C911 1.396 1_455 S
C912 H921 0.930 . S
C913 C910 1.383 . S
C913 C911 1.365 . S
C913 H922 0.931 . S
C914 C909 1.370 . S
C914 C910 1.395 1_455 S
C914 H923 0.930 . S
C915 Gd851 2.805 . S
C915 O891 1.263 . S
C915 O892 1.252 . S
C915 C909 1.500 . S
H916 C899 0.929 . S
H917 C900 0.930 . S
H918 C901 0.931 . S
H919 C902 0.930 . S
H920 C911 0.929 . S
H921 C912 0.930 . S
H922 C913 0.931 . S
H923 C914 0.930 . S
C924 C926 1.422 . S
C924 C928 1.415 . S
C924 N930 1.369 . S
C925 C926 1.421 . S
C925 C927 1.417 . S
C925 C937 1.422 . S
C926 C924 1.422 . S
C926 C925 1.421 . S
C926 N936 1.359 . S
C927 C925 1.417 . S
C927 C929 1.329 . S
C927 H946 0.930 . S
C928 C924 1.415 . S
C928 C929 1.437 . S
C928 C932 1.413 . S
C929 C927 1.329 . S
C929 C928 1.437 . S
C929 H951 0.929 . S
N930 C924 1.369 . S
N930 C931 1.338 . S
N930 Gd935 2.622 . S
C931 N930 1.338 . S
C931 C933 1.378 . S
C931 H943 0.929 . S
C932 C928 1.413 . S
C932 C933 1.348 . S
C932 H948 0.931 . S
C933 C931 1.378 . S
C933 C932 1.348 . S
C933 H949 0.930 . S
Gd934 N954 2.622 . S
Gd934 N961 2.570 . S
Gd934 O968 2.353 . S
Gd934 O969 2.468 . S
Gd934 O970 2.427 . S
Gd934 O972 2.388 . S
Gd934 O973 2.386 . S
Gd934 O977 2.307 . S
Gd934 C987 2.805 . S
Gd935 N930 2.622 . S
Gd935 N936 2.570 . S
Gd935 O967 2.386 . S
Gd935 O971 2.307 . S
Gd935 O974 2.353 . S
Gd935 O975 2.468 . S
Gd935 O976 2.427 . S
Gd935 O978 2.388 . S
Gd935 C999 2.805 . S
N936 C926 1.359 . S
N936 Gd935 2.570 . S
N936 C938 1.343 . S
C937 C925 1.422 . S
C937 C939 1.321 . S
C937 H945 0.931 . S
C938 N936 1.343 . S
C938 C939 1.390 . S
C938 H940 0.931 . S
C939 C937 1.321 . S
C939 C938 1.390 . S
C939 H941 0.930 . S
H940 C938 0.931 . S
H941 C939 0.930 . S
H942 C965 0.931 . S
H943 C931 0.929 . S
H944 C966 0.930 . S
H945 C937 0.931 . S
H946 C927 0.930 . S
H947 C956 0.929 . S
H948 C932 0.931 . S
H949 C933 0.930 . S
H950 C988 0.930 . S
H951 C929 0.929 . S
H952 C957 0.931 . S
H953 C958 0.930 . S
N954 Gd934 2.622 . S
N954 C955 1.369 . S
N954 C956 1.338 . S
C955 N954 1.369 . S
C955 C959 1.415 . S
C955 C962 1.422 . S
C956 H947 0.929 . S
C956 N954 1.338 . S
C956 C958 1.378 . S
C957 H952 0.931 . S
C957 C958 1.348 . S
C957 C959 1.413 . S
C958 H953 0.930 . S
C958 C956 1.378 . S
C958 C957 1.348 . S
C959 C955 1.415 . S
C959 C957 1.413 . S
C959 C989 1.437 1_455 S
H960 C989 0.929 . S
N961 Gd934 2.570 . S
N961 C962 1.359 . S
N961 C965 1.343 . S
C962 C955 1.422 . S
C962 N961 1.359 . S
C962 C964 1.421 1_455 S
C963 C964 1.422 . S
C963 C966 1.321 1_655 S
C963 H990 0.931 . S
C964 C962 1.421 1_655 S
C964 C963 1.422 . S
C964 C988 1.417 . S
C965 H942 0.931 . S
C965 N961 1.343 . S
C965 C966 1.390 . S
C966 H944 0.930 . S
C966 C963 1.321 1_455 S
C966 C965 1.390 . S
O967 Gd935 2.386 . S
O967 C979 1.265 . S
O968 Gd934 2.353 . S
O968 C979 1.242 . S
O969 Gd934 2.468 . S
O969 C987 1.263 . S
O970 Gd934 2.427 . S
O970 C987 1.252 . S
O971 Gd935 2.307 . S
O971 C980 1.261 . S
O972 Gd934 2.388 . S
O972 C980 1.252 . S
O973 Gd934 2.386 . S
O973 C991 1.265 . S
O974 Gd935 2.353 . S
O974 C991 1.242 . S
O975 Gd935 2.468 . S
O975 C999 1.263 . S
O976 Gd935 2.427 . S
O976 C999 1.252 . S
O977 Gd934 2.307 . S
O977 C992 1.261 . S
O978 Gd935 2.388 . S
O978 C992 1.252 . S
C979 O967 1.265 . S
C979 O968 1.242 . S
C980 O971 1.261 . S
C980 O972 1.252 . S
C981 C984 1.394 . S
C981 C986 1.370 . S
C981 C987 1.500 . S
C982 C985 1.383 . S
C982 C986 1.395 . S
C983 C984 1.396 . S
C983 C985 1.365 . S
C983 H1000 0.929 . S
C984 C981 1.394 . S
C984 C983 1.396 . S
C984 H1001 0.930 . S
C985 C982 1.383 . S
C985 C983 1.365 . S
C985 H1002 0.931 . S
C986 C981 1.370 . S
C986 C982 1.395 . S
C986 H1003 0.930 . S
C987 Gd934 2.805 . S
C987 O969 1.263 . S
C987 O970 1.252 . S
C987 C981 1.500 . S
C988 H950 0.930 . S
C988 C964 1.417 . S
C988 C989 1.329 . S
C989 C959 1.437 1_655 S
C989 H960 0.929 . S
C989 C988 1.329 . S
H990 C963 0.931 . S
C991 O973 1.265 . S
C991 O974 1.242 . S
C992 O977 1.261 . S
C992 O978 1.252 . S
C993 C996 1.394 . S
C993 C998 1.370 . S
C993 C999 1.500 . S
C994 C997 1.383 . S
C994 C998 1.395 . S
C995 C996 1.396 . S
C995 C997 1.365 . S
C995 H1004 0.929 . S
C996 C993 1.394 . S
C996 C995 1.396 . S
C996 H1005 0.930 . S
C997 C994 1.383 . S
C997 C995 1.365 . S
C997 H1006 0.931 . S
C998 C993 1.370 . S
C998 C994 1.395 . S
C998 H1007 0.930 . S
C999 Gd935 2.805 . S
C999 O975 1.263 . S
C999 O976 1.252 . S
C999 C993 1.500 . S
H1000 C983 0.929 . S
H1001 C984 0.930 . S
H1002 C985 0.931 . S
H1003 C986 0.930 . S
H1004 C995 0.929 . S
H1005 C996 0.930 . S
H1006 C997 0.931 . S
H1007 C998 0.930 . S
C1008 C1010 1.422 . S
C1008 C1012 1.415 . S
C1008 N1014 1.369 . S
C1009 C1010 1.421 . S
C1009 C1011 1.417 1_655 S
C1009 C1021 1.422 1_655 S
C1010 C1008 1.422 . S
C1010 C1009 1.421 . S
C1010 N1020 1.359 . S
C1011 C1009 1.417 1_455 S
C1011 C1013 1.329 1_455 S
C1011 H1030 0.930 . S
C1012 C1008 1.415 . S
C1012 C1013 1.437 . S
C1012 C1016 1.413 . S
C1013 C1011 1.329 1_655 S
C1013 C1012 1.437 . S
C1013 H1035 0.929 . S
N1014 C1008 1.369 . S
N1014 C1015 1.338 . S
N1014 Gd1019 2.622 . S
C1015 N1014 1.338 . S
C1015 C1017 1.378 . S
C1015 H1027 0.929 . S
C1016 C1012 1.413 . S
C1016 C1017 1.348 . S
C1016 H1032 0.931 . S
C1017 C1015 1.378 . S
C1017 C1016 1.348 . S
C1017 H1033 0.930 . S
Gd1018 N1038 2.622 . S
Gd1018 N1045 2.570 . S
Gd1018 O1052 2.353 . S
Gd1018 O1053 2.468 . S
Gd1018 O1054 2.427 . S
Gd1018 O1056 2.388 . S
Gd1018 O1057 2.386 . S
Gd1018 O1061 2.307 . S
Gd1018 C1071 2.805 . S
Gd1019 N1014 2.622 . S
Gd1019 N1020 2.570 . S
Gd1019 O1051 2.386 . S
Gd1019 O1055 2.307 . S
Gd1019 O1058 2.353 . S
Gd1019 O1059 2.468 . S
Gd1019 O1060 2.427 . S
Gd1019 O1062 2.388 . S
Gd1019 C1083 2.805 . S
N1020 C1010 1.359 . S
N1020 Gd1019 2.570 . S
N1020 C1022 1.343 . S
C1021 C1009 1.422 1_455 S
C1021 C1023 1.321 1_455 S
C1021 H1029 0.931 . S
C1022 N1020 1.343 . S
C1022 C1023 1.390 . S
C1022 H1024 0.931 . S
C1023 C1021 1.321 1_655 S
C1023 C1022 1.390 . S
C1023 H1025 0.939 . S
H1024 C1022 0.931 . S
H1025 C1023 0.939 . S
H1026 C1049 0.931 . S
H1027 C1015 0.929 . S
H1028 C1050 0.930 . S
H1029 C1021 0.931 . S
H1030 C1011 0.930 . S
H1031 C1040 0.929 . S
H1032 C1016 0.931 . S
H1033 C1017 0.930 . S
H1034 C1072 0.930 . S
H1035 C1013 0.929 . S
H1036 C1041 0.931 . S
H1037 C1042 0.930 . S
N1038 Gd1018 2.622 . S
N1038 C1039 1.369 . S
N1038 C1040 1.338 . S
C1039 N1038 1.369 . S
C1039 C1043 1.415 . S
C1039 C1046 1.422 . S
C1040 H1031 0.929 . S
C1040 N1038 1.338 . S
C1040 C1042 1.378 . S
C1041 H1036 0.931 . S
C1041 C1042 1.348 . S
C1041 C1043 1.413 . S
C1042 H1037 0.930 . S
C1042 C1040 1.378 . S
C1042 C1041 1.348 . S
C1043 C1039 1.415 . S
C1043 C1041 1.413 . S
C1043 C1073 1.437 . S
H1044 C1073 0.929 . S
N1045 Gd1018 2.570 . S
N1045 C1046 1.359 . S
N1045 C1049 1.343 . S
C1046 C1039 1.422 . S
C1046 N1045 1.359 . S
C1046 C1048 1.421 . S
C1047 C1048 1.422 . S
C1047 C1050 1.321 . S
C1047 H1074 0.931 . S
C1048 C1046 1.421 . S
C1048 C1047 1.422 . S
C1048 C1072 1.417 . S
C1049 H1026 0.931 . S
C1049 N1045 1.343 . S
C1049 C1050 1.390 . S
C1050 H1028 0.930 . S
C1050 C1047 1.321 . S
C1050 C1049 1.390 . S
O1051 Gd1019 2.386 . S
O1051 C1063 1.265 . S
O1052 Gd1018 2.353 . S
O1052 C1063 1.242 . S
O1053 Gd1018 2.468 . S
O1053 C1071 1.263 . S
O1054 Gd1018 2.427 . S
O1054 C1071 1.252 . S
O1055 Gd1019 2.307 . S
O1055 C1064 1.261 . S
O1056 Gd1018 2.388 . S
O1056 C1064 1.252 . S
O1057 Gd1018 2.386 . S
O1057 C1075 1.265 . S
O1058 Gd1019 2.353 . S
O1058 C1075 1.242 . S
O1059 Gd1019 2.468 . S
O1059 C1083 1.263 . S
O1060 Gd1019 2.427 . S
O1060 C1083 1.252 . S
O1061 Gd1018 2.307 . S
O1061 C1076 1.261 . S
O1062 Gd1019 2.388 . S
O1062 C1076 1.252 . S
C1063 O1051 1.265 . S
C1063 O1052 1.242 . S
C1064 O1055 1.261 . S
C1064 O1056 1.252 . S
C1065 C1068 1.394 . S
C1065 C1070 1.370 . S
C1065 C1071 1.500 . S
C1066 C1069 1.383 . S
C1066 C1070 1.395 . S
C1067 C1068 1.396 . S
C1067 C1069 1.365 . S
C1067 H1084 0.929 . S
C1068 C1065 1.394 . S
C1068 C1067 1.396 . S
C1068 H1085 0.930 . S
C1069 C1066 1.383 . S
C1069 C1067 1.365 . S
C1069 H1086 0.931 . S
C1070 C1065 1.370 . S
C1070 C1066 1.395 . S
C1070 H1087 0.930 . S
C1071 Gd1018 2.805 . S
C1071 O1053 1.263 . S
C1071 O1054 1.252 . S
C1071 C1065 1.500 . S
C1072 H1034 0.930 . S
C1072 C1048 1.417 . S
C1072 C1073 1.329 . S
C1073 C1043 1.437 . S
C1073 H1044 0.929 . S
C1073 C1072 1.329 . S
H1074 C1047 0.931 . S
C1075 O1057 1.265 . S
C1075 O1058 1.242 . S
C1076 O1061 1.261 . S
C1076 O1062 1.252 . S
C1077 C1080 1.395 . S
C1077 C1082 1.373 . S
C1077 C1083 1.497 1_455 S
C1078 C1081 1.383 . S
C1078 C1082 1.395 . S
C1079 C1080 1.396 . S
C1079 C1081 1.365 . S
C1079 H1088 0.929 . S
C1080 C1077 1.395 . S
C1080 C1079 1.396 . S
C1080 H1089 0.930 1_455 S
C1081 C1078 1.383 . S
C1081 C1079 1.365 . S
C1081 H1090 0.931 . S
C1082 C1077 1.373 . S
C1082 C1078 1.395 . S
C1082 H1091 0.930 . S
C1083 Gd1019 2.805 . S
C1083 O1059 1.263 . S
C1083 O1060 1.252 . S
C1083 C1077 1.497 1_655 S
H1084 C1067 0.929 . S
H1085 C1068 0.930 . S
H1086 C1069 0.931 . S
H1087 C1070 0.930 . S
H1088 C1079 0.929 . S
H1089 C1080 0.930 1_655 S
H1090 C1081 0.931 . S
H1091 C1082 0.930 . S
C1092 C1094 1.422 . S
C1092 C1096 1.415 . S
C1092 N1098 1.369 . S
C1093 C1094 1.421 . S
C1093 C1095 1.417 . S
C1093 C1105 1.422 . S
C1094 C1092 1.422 . S
C1094 C1093 1.421 . S
C1094 N1104 1.359 . S
C1095 C1093 1.417 . S
C1095 C1097 1.329 . S
C1095 H1114 0.930 . S
C1096 C1092 1.415 . S
C1096 C1097 1.437 . S
C1096 C1100 1.413 . S
C1097 C1095 1.329 . S
C1097 C1096 1.437 . S
C1097 H1119 0.929 . S
N1098 C1092 1.369 . S
N1098 C1099 1.338 . S
N1098 Gd1103 2.622 . S
C1099 N1098 1.338 . S
C1099 C1101 1.378 . S
C1099 H1111 0.929 . S
C1100 C1096 1.413 . S
C1100 C1101 1.348 . S
C1100 H1116 0.931 . S
C1101 C1099 1.378 . S
C1101 C1100 1.348 . S
C1101 H1117 0.930 . S
Gd1102 N1122 2.622 . S
Gd1102 N1129 2.570 . S
Gd1102 O1136 2.353 . S
Gd1102 O1137 2.468 . S
Gd1102 O1138 2.427 . S
Gd1102 O1140 2.388 . S
Gd1102 O1141 2.386 . S
Gd1102 O1145 2.307 . S
Gd1102 C1155 2.805 . S
Gd1103 N1098 2.622 . S
Gd1103 N1104 2.570 . S
Gd1103 O1135 2.386 . S
Gd1103 O1139 2.307 . S
Gd1103 O1142 2.353 . S
Gd1103 O1143 2.468 . S
Gd1103 O1144 2.427 . S
Gd1103 O1146 2.388 . S
Gd1103 C1167 2.805 . S
N1104 C1094 1.359 . S
N1104 Gd1103 2.570 . S
N1104 C1106 1.343 . S
C1105 C1093 1.422 . S
C1105 C1107 1.321 . S
C1105 H1113 0.931 . S
C1106 N1104 1.343 . S
C1106 C1107 1.390 . S
C1106 H1108 0.931 . S
C1107 C1105 1.321 . S
C1107 C1106 1.390 . S
C1107 H1109 0.930 . S
H1108 C1106 0.931 . S
H1109 C1107 0.930 . S
H1110 C1133 0.931 . S
H1111 C1099 0.929 . S
H1112 C1134 0.930 . S
H1113 C1105 0.931 . S
H1114 C1095 0.930 . S
H1115 C1124 0.929 . S
H1116 C1100 0.931 . S
H1117 C1101 0.930 . S
H1118 C1156 0.930 . S
H1119 C1097 0.929 . S
H1120 C1125 0.931 . S
H1121 C1126 0.930 . S
N1122 Gd1102 2.622 . S
N1122 C1123 1.369 . S
N1122 C1124 1.338 . S
C1123 N1122 1.369 . S
C1123 C1127 1.415 . S
C1123 C1130 1.422 . S
C1124 H1115 0.929 . S
C1124 N1122 1.338 . S
C1124 C1126 1.378 . S
C1125 H1120 0.931 . S
C1125 C1126 1.348 . S
C1125 C1127 1.413 . S
C1126 H1121 0.930 . S
C1126 C1124 1.378 . S
C1126 C1125 1.348 . S
C1127 C1123 1.415 . S
C1127 C1125 1.413 . S
C1127 C1157 1.437 1_545 S
H1128 C1157 0.929 . S
N1129 Gd1102 2.570 . S
N1129 C1130 1.359 . S
N1129 C1133 1.343 . S
C1130 C1123 1.422 . S
C1130 N1129 1.359 . S
C1130 C1132 1.421 1_545 S
C1131 C1132 1.422 . S
C1131 C1134 1.321 1_565 S
C1131 H1158 0.931 . S
C1132 C1130 1.421 1_565 S
C1132 C1131 1.422 . S
C1132 C1156 1.417 . S
C1133 H1110 0.931 . S
C1133 N1129 1.343 . S
C1133 C1134 1.390 . S
C1134 H1112 0.930 . S
C1134 C1131 1.321 1_545 S
C1134 C1133 1.390 . S
O1135 Gd1103 2.386 . S
O1135 C1147 1.265 . S
O1136 Gd1102 2.353 . S
O1136 C1147 1.242 . S
O1137 Gd1102 2.468 . S
O1137 C1155 1.263 . S
O1138 Gd1102 2.427 . S
O1138 C1155 1.252 . S
O1139 Gd1103 2.307 . S
O1139 C1148 1.261 . S
O1140 Gd1102 2.388 . S
O1140 C1148 1.252 . S
O1141 Gd1102 2.386 . S
O1141 C1159 1.265 . S
O1142 Gd1103 2.353 . S
O1142 C1159 1.242 . S
O1143 Gd1103 2.468 . S
O1143 C1167 1.263 . S
O1144 Gd1103 2.427 . S
O1144 C1167 1.252 . S
O1145 Gd1102 2.307 . S
O1145 C1160 1.261 . S
O1146 Gd1103 2.388 . S
O1146 C1160 1.252 . S
C1147 O1135 1.265 . S
C1147 O1136 1.242 . S
C1148 O1139 1.261 . S
C1148 O1140 1.252 . S
C1149 C1152 1.394 . S
C1149 C1154 1.370 . S
C1149 C1155 1.500 . S
C1150 C1153 1.383 . S
C1150 C1154 1.395 . S
C1151 C1152 1.396 . S
C1151 C1153 1.365 . S
C1151 H1168 0.929 . S
C1152 C1149 1.394 . S
C1152 C1151 1.396 . S
C1152 H1169 0.930 . S
C1153 C1150 1.383 . S
C1153 C1151 1.365 . S
C1153 H1170 0.931 . S
C1154 C1149 1.370 . S
C1154 C1150 1.395 . S
C1154 H1171 0.930 . S
C1155 Gd1102 2.805 . S
C1155 O1137 1.263 . S
C1155 O1138 1.252 . S
C1155 C1149 1.500 . S
C1156 H1118 0.930 . S
C1156 C1132 1.417 . S
C1156 C1157 1.329 . S
C1157 C1127 1.437 1_565 S
C1157 H1128 0.929 . S
C1157 C1156 1.329 . S
H1158 C1131 0.931 . S
C1159 O1141 1.265 . S
C1159 O1142 1.242 . S
C1160 O1145 1.261 . S
C1160 O1146 1.252 . S
C1161 C1164 1.394 . S
C1161 C1166 1.370 . S
C1161 C1167 1.500 . S
C1162 C1165 1.383 . S
C1162 C1166 1.395 . S
C1163 C1164 1.396 . S
C1163 C1165 1.365 . S
C1163 H1172 0.929 . S
C1164 C1161 1.394 . S
C1164 C1163 1.396 . S
C1164 H1173 0.930 . S
C1165 C1162 1.383 . S
C1165 C1163 1.365 . S
C1165 H1174 0.931 . S
C1166 C1161 1.370 . S
C1166 C1162 1.395 . S
C1166 H1175 0.930 . S
C1167 Gd1103 2.805 . S
C1167 O1143 1.263 . S
C1167 O1144 1.252 . S
C1167 C1161 1.500 . S
H1168 C1151 0.929 . S
H1169 C1152 0.930 . S
H1170 C1153 0.931 . S
H1171 C1154 0.930 . S
H1172 C1163 0.929 . S
H1173 C1164 0.930 . S
H1174 C1165 0.931 . S
H1175 C1166 0.930 . S
C1176 C1178 1.422 . S
C1176 C1180 1.415 . S
C1176 N1182 1.369 . S
C1177 C1178 1.421 . S
C1177 C1179 1.417 . S
C1177 C1189 1.422 . S
C1178 C1176 1.422 . S
C1178 C1177 1.421 . S
C1178 N1188 1.359 . S
C1179 C1177 1.417 . S
C1179 C1181 1.329 . S
C1179 H1198 0.930 . S
C1180 C1176 1.415 . S
C1180 C1181 1.437 . S
C1180 C1184 1.413 . S
C1181 C1179 1.329 . S
C1181 C1180 1.437 . S
C1181 H1203 0.929 . S
N1182 C1176 1.369 . S
N1182 C1183 1.338 . S
N1182 Gd1187 2.622 . S
C1183 N1182 1.338 . S
C1183 C1185 1.378 . S
C1183 H1195 0.929 . S
C1184 C1180 1.413 . S
C1184 C1185 1.348 . S
C1184 H1200 0.931 . S
C1185 C1183 1.378 . S
C1185 C1184 1.348 . S
C1185 H1201 0.930 . S
Gd1186 N1206 2.622 . S
Gd1186 N1213 2.570 . S
Gd1186 O1220 2.353 . S
Gd1186 O1221 2.468 . S
Gd1186 O1222 2.427 . S
Gd1186 O1224 2.388 . S
Gd1186 O1225 2.386 . S
Gd1186 O1229 2.307 . S
Gd1186 C1239 2.805 . S
Gd1187 N1182 2.622 . S
Gd1187 N1188 2.570 . S
Gd1187 O1219 2.386 . S
Gd1187 O1223 2.307 . S
Gd1187 O1226 2.353 . S
Gd1187 O1227 2.468 . S
Gd1187 O1228 2.427 . S
Gd1187 O1230 2.388 . S
Gd1187 C1251 2.805 . S
N1188 C1178 1.359 . S
N1188 Gd1187 2.570 . S
N1188 C1190 1.343 . S
C1189 C1177 1.422 . S
C1189 C1191 1.321 . S
C1189 H1197 0.931 . S
C1190 N1188 1.343 . S
C1190 C1191 1.390 . S
C1190 H1192 0.931 . S
C1191 C1189 1.321 . S
C1191 C1190 1.390 . S
C1191 H1193 0.930 . S
H1192 C1190 0.931 . S
H1193 C1191 0.930 . S
H1194 C1217 0.931 . S
H1195 C1183 0.929 . S
H1196 C1218 0.930 . S
H1197 C1189 0.931 . S
H1198 C1179 0.930 . S
H1199 C1208 0.929 . S
H1200 C1184 0.931 . S
H1201 C1185 0.930 . S
H1202 C1240 0.930 . S
H1203 C1181 0.929 . S
H1204 C1209 0.931 1_455 S
H1205 C1210 0.930 . S
N1206 Gd1186 2.622 . S
N1206 C1207 1.369 . S
N1206 C1208 1.338 . S
C1207 N1206 1.369 . S
C1207 C1211 1.415 1_655 S
C1207 C1214 1.422 . S
C1208 H1199 0.929 . S
C1208 N1206 1.338 . S
C1208 C1210 1.378 . S
C1209 H1204 0.931 1_655 S
C1209 C1210 1.348 . S
C1209 C1211 1.413 1_655 S
C1210 H1205 0.930 . S
C1210 C1208 1.378 . S
C1210 C1209 1.348 . S
C1211 C1207 1.415 1_455 S
C1211 C1209 1.413 1_455 S
C1211 C1241 1.437 . S
H1212 C1241 0.929 . S
N1213 Gd1186 2.570 . S
N1213 C1214 1.359 . S
N1213 C1217 1.343 . S
C1214 C1207 1.422 . S
C1214 N1213 1.359 . S
C1214 C1216 1.421 1_655 S
C1215 C1216 1.422 . S
C1215 C1218 1.321 . S
C1215 H1242 0.931 . S
C1216 C1214 1.421 1_455 S
C1216 C1215 1.422 . S
C1216 C1240 1.417 . S
C1217 H1194 0.931 . S
C1217 N1213 1.343 . S
C1217 C1218 1.390 1_655 S
C1218 H1196 0.930 . S
C1218 C1215 1.321 . S
C1218 C1217 1.390 1_455 S
O1219 Gd1187 2.386 . S
O1219 C1231 1.265 . S
O1220 Gd1186 2.353 . S
O1220 C1231 1.242 . S
O1221 Gd1186 2.468 . S
O1221 C1239 1.263 . S
O1222 Gd1186 2.427 . S
O1222 C1239 1.252 . S
O1223 Gd1187 2.307 . S
O1223 C1232 1.261 . S
O1224 Gd1186 2.388 . S
O1224 C1232 1.252 . S
O1225 Gd1186 2.386 . S
O1225 C1243 1.265 . S
O1226 Gd1187 2.353 . S
O1226 C1243 1.242 . S
O1227 Gd1187 2.468 . S
O1227 C1251 1.263 . S
O1228 Gd1187 2.427 . S
O1228 C1251 1.252 . S
O1229 Gd1186 2.307 . S
O1229 C1244 1.261 . S
O1230 Gd1187 2.388 . S
O1230 C1244 1.252 . S
C1231 O1219 1.265 . S
C1231 O1220 1.242 . S
C1232 O1223 1.261 . S
C1232 O1224 1.252 . S
C1233 C1236 1.394 . S
C1233 C1238 1.370 . S
C1233 C1239 1.500 . S
C1234 C1237 1.383 . S
C1234 C1238 1.395 . S
C1235 C1236 1.396 . S
C1235 C1237 1.365 . S
C1235 H1252 0.929 . S
C1236 C1233 1.394 . S
C1236 C1235 1.396 . S
C1236 H1253 0.930 . S
C1237 C1234 1.383 . S
C1237 C1235 1.365 . S
C1237 H1254 0.931 . S
C1238 C1233 1.370 . S
C1238 C1234 1.395 . S
C1238 H1255 0.930 . S
C1239 Gd1186 2.805 . S
C1239 O1221 1.263 . S
C1239 O1222 1.252 . S
C1239 C1233 1.500 . S
C1240 H1202 0.930 . S
C1240 C1216 1.417 . S
C1240 C1241 1.329 . S
C1241 C1211 1.437 . S
C1241 H1212 0.929 . S
C1241 C1240 1.329 . S
H1242 C1215 0.931 . S
C1243 O1225 1.265 . S
C1243 O1226 1.242 . S
C1244 O1229 1.261 . S
C1244 O1230 1.252 . S
C1245 C1248 1.394 . S
C1245 C1250 1.370 . S
C1245 C1251 1.500 . S
C1246 C1249 1.383 . S
C1246 C1250 1.395 1_565 S
C1247 C1248 1.396 1_565 S
C1247 C1249 1.365 . S
C1247 H1256 0.929 . S
C1248 C1245 1.394 . S
C1248 C1247 1.396 1_545 S
C1248 H1257 0.930 . S
C1249 C1246 1.383 . S
C1249 C1247 1.365 . S
C1249 H1258 0.931 . S
C1250 C1245 1.370 . S
C1250 C1246 1.395 1_545 S
C1250 H1259 0.930 . S
C1251 Gd1187 2.805 . S
C1251 O1227 1.263 . S
C1251 O1228 1.252 . S
C1251 C1245 1.500 . S
H1252 C1235 0.929 . S
H1253 C1236 0.930 . S
H1254 C1237 0.931 . S
H1255 C1238 0.930 . S
H1256 C1247 0.929 . S
H1257 C1248 0.930 . S
H1258 C1249 0.931 . S
H1259 C1250 0.930 . S
C1260 C1262 1.422 . S
C1260 C1264 1.415 . S
C1260 N1266 1.369 . S
C1261 C1262 1.421 . S
C1261 C1263 1.417 . S
C1261 C1273 1.422 . S
C1262 C1260 1.422 . S
C1262 C1261 1.421 . S
C1262 N1272 1.359 . S
C1263 C1261 1.417 . S
C1263 C1265 1.329 . S
C1263 H1282 0.930 . S
C1264 C1260 1.415 . S
C1264 C1265 1.437 . S
C1264 C1268 1.413 . S
C1265 C1263 1.329 . S
C1265 C1264 1.437 . S
C1265 H1287 0.929 . S
N1266 C1260 1.369 . S
N1266 C1267 1.338 . S
N1266 Gd1271 2.622 . S
C1267 N1266 1.338 . S
C1267 C1269 1.378 . S
C1267 H1279 0.929 . S
C1268 C1264 1.413 . S
C1268 C1269 1.348 . S
C1268 H1284 0.931 . S
C1269 C1267 1.378 . S
C1269 C1268 1.348 . S
C1269 H1285 0.930 . S
Gd1270 N1290 2.622 . S
Gd1270 N1297 2.570 . S
Gd1270 O1304 2.353 . S
Gd1270 O1305 2.468 . S
Gd1270 O1306 2.427 . S
Gd1270 O1308 2.388 . S
Gd1270 O1309 2.386 . S
Gd1270 O1313 2.307 . S
Gd1270 C1323 2.805 . S
Gd1271 N1266 2.622 . S
Gd1271 N1272 2.570 . S
Gd1271 O1303 2.386 . S
Gd1271 O1307 2.307 . S
Gd1271 O1310 2.353 . S
Gd1271 O1311 2.468 . S
Gd1271 O1312 2.427 . S
Gd1271 O1314 2.388 . S
Gd1271 C1335 2.805 . S
N1272 C1262 1.359 . S
N1272 Gd1271 2.570 . S
N1272 C1274 1.343 . S
C1273 C1261 1.422 . S
C1273 C1275 1.321 . S
C1273 H1281 0.931 . S
C1274 N1272 1.343 . S
C1274 C1275 1.390 . S
C1274 H1276 0.931 . S
C1275 C1273 1.321 . S
C1275 C1274 1.390 . S
C1275 H1277 0.930 . S
H1276 C1274 0.931 . S
H1277 C1275 0.930 . S
H1278 C1301 0.931 . S
H1279 C1267 0.929 . S
H1280 C1302 0.930 1_565 S
H1281 C1273 0.931 . S
H1282 C1263 0.930 . S
H1283 C1292 0.929 . S
H1284 C1268 0.931 . S
H1285 C1269 0.930 . S
H1286 C1324 0.930 . S
H1287 C1265 0.929 . S
H1288 C1293 0.931 . S
H1289 C1294 0.930 . S
N1290 Gd1270 2.622 . S
N1290 C1291 1.369 . S
N1290 C1292 1.338 . S
C1291 N1290 1.369 . S
C1291 C1295 1.415 . S
C1291 C1298 1.422 . S
C1292 H1283 0.929 . S
C1292 N1290 1.338 . S
C1292 C1294 1.378 . S
C1293 H1288 0.931 . S
C1293 C1294 1.348 . S
C1293 C1295 1.413 . S
C1294 H1289 0.930 . S
C1294 C1292 1.378 . S
C1294 C1293 1.348 . S
C1295 C1291 1.415 . S
C1295 C1293 1.413 . S
C1295 C1325 1.437 . S
H1296 C1325 0.929 1_565 S
N1297 Gd1270 2.570 . S
N1297 C1298 1.359 . S
N1297 C1301 1.343 . S
C1298 C1291 1.422 . S
C1298 N1297 1.359 . S
C1298 C1300 1.421 . S
C1299 C1300 1.422 1_565 S
C1299 C1302 1.321 1_565 S
C1299 H1326 0.931 . S
C1300 C1298 1.421 . S
C1300 C1299 1.422 1_545 S
C1300 C1324 1.417 1_545 S
C1301 H1278 0.931 . S
C1301 N1297 1.343 . S
C1301 C1302 1.390 . S
C1302 H1280 0.930 1_545 S
C1302 C1299 1.321 1_545 S
C1302 C1301 1.390 . S
O1303 Gd1271 2.386 . S
O1303 C1315 1.265 . S
O1304 Gd1270 2.353 . S
O1304 C1315 1.242 . S
O1305 Gd1270 2.468 . S
O1305 C1323 1.263 . S
O1306 Gd1270 2.427 . S
O1306 C1323 1.252 . S
O1307 Gd1271 2.307 . S
O1307 C1316 1.261 . S
O1308 Gd1270 2.388 . S
O1308 C1316 1.252 . S
O1309 Gd1270 2.386 . S
O1309 C1327 1.265 . S
O1310 Gd1271 2.353 . S
O1310 C1327 1.242 . S
O1311 Gd1271 2.468 . S
O1311 C1335 1.263 . S
O1312 Gd1271 2.427 . S
O1312 C1335 1.252 . S
O1313 Gd1270 2.307 . S
O1313 C1328 1.261 . S
O1314 Gd1271 2.388 . S
O1314 C1328 1.252 . S
C1315 O1303 1.265 . S
C1315 O1304 1.242 . S
C1316 O1307 1.261 . S
C1316 O1308 1.252 . S
C1317 C1320 1.394 . S
C1317 C1322 1.370 . S
C1317 C1323 1.500 1_565 S
C1318 C1321 1.383 . S
C1318 C1322 1.395 . S
C1319 C1320 1.396 . S
C1319 C1321 1.365 . S
C1319 H1336 0.929 . S
C1320 C1317 1.394 . S
C1320 C1319 1.396 . S
C1320 H1337 0.930 . S
C1321 C1318 1.383 . S
C1321 C1319 1.365 . S
C1321 H1338 0.931 . S
C1322 C1317 1.370 . S
C1322 C1318 1.395 . S
C1322 H1339 0.930 . S
C1323 Gd1270 2.805 . S
C1323 O1305 1.263 . S
C1323 O1306 1.252 . S
C1323 C1317 1.500 1_545 S
C1324 H1286 0.930 . S
C1324 C1300 1.417 1_565 S
C1324 C1325 1.329 1_565 S
C1325 C1295 1.437 . S
C1325 H1296 0.929 1_545 S
C1325 C1324 1.329 1_545 S
H1326 C1299 0.931 . S
C1327 O1309 1.265 . S
C1327 O1310 1.242 . S
C1328 O1313 1.261 . S
C1328 O1314 1.252 . S
C1329 C1332 1.394 . S
C1329 C1334 1.370 . S
C1329 C1335 1.500 . S
C1330 C1333 1.383 . S
C1330 C1334 1.395 . S
C1331 C1332 1.396 . S
C1331 C1333 1.365 . S
C1331 H1340 0.929 . S
C1332 C1329 1.394 . S
C1332 C1331 1.396 . S
C1332 H1341 0.930 . S
C1333 C1330 1.383 . S
C1333 C1331 1.365 . S
C1333 H1342 0.931 . S
C1334 C1329 1.370 . S
C1334 C1330 1.395 . S
C1334 H1343 0.930 . S
C1335 Gd1271 2.805 . S
C1335 O1311 1.263 . S
C1335 O1312 1.252 . S
C1335 C1329 1.500 . S
H1336 C1319 0.929 . S
H1337 C1320 0.930 . S
H1338 C1321 0.931 . S
H1339 C1322 0.930 . S
H1340 C1331 0.929 . S
H1341 C1332 0.930 . S
H1342 C1333 0.931 . S
H1343 C1334 0.930 . S
C1344 C1346 1.422 . S
C1344 C1348 1.415 . S
C1344 N1350 1.369 . S
C1345 C1346 1.421 . S
C1345 C1347 1.417 1_545 S
C1345 C1357 1.422 1_545 S
C1346 C1344 1.422 . S
C1346 C1345 1.421 . S
C1346 N1356 1.359 . S
C1347 C1345 1.417 1_565 S
C1347 C1349 1.329 . S
C1347 H1366 0.930 . S
C1348 C1344 1.415 . S
C1348 C1349 1.437 1_545 S
C1348 C1352 1.413 . S
C1349 C1347 1.329 . S
C1349 C1348 1.437 1_565 S
C1349 H1371 0.929 . S
N1350 C1344 1.369 . S
N1350 C1351 1.338 . S
N1350 Gd1355 2.622 . S
C1351 N1350 1.338 . S
C1351 C1353 1.378 . S
C1351 H1363 0.929 . S
C1352 C1348 1.413 . S
C1352 C1353 1.348 . S
C1352 H1368 0.931 . S
C1353 C1351 1.378 . S
C1353 C1352 1.348 . S
C1353 H1369 0.930 . S
Gd1354 N1374 2.622 . S
Gd1354 N1381 2.570 . S
Gd1354 O1388 2.353 . S
Gd1354 O1389 2.468 . S
Gd1354 O1390 2.427 . S
Gd1354 O1392 2.388 . S
Gd1354 O1393 2.386 . S
Gd1354 O1397 2.307 . S
Gd1354 C1407 2.783 1_655 S
Gd1355 N1350 2.622 . S
Gd1355 N1356 2.570 . S
Gd1355 O1387 2.386 . S
Gd1355 O1391 2.307 . S
Gd1355 O1394 2.353 . S
Gd1355 O1395 2.468 . S
Gd1355 O1396 2.427 . S
Gd1355 O1398 2.388 . S
Gd1355 C1419 2.805 . S
N1356 C1346 1.359 . S
N1356 Gd1355 2.570 . S
N1356 C1358 1.343 . S
C1357 C1345 1.422 1_565 S
C1357 C1359 1.321 1_565 S
C1357 H1365 0.931 . S
C1358 N1356 1.343 . S
C1358 C1359 1.390 . S
C1358 H1360 0.931 . S
C1359 C1357 1.321 1_545 S
C1359 C1358 1.390 . S
C1359 H1361 0.930 . S
H1360 C1358 0.931 . S
H1361 C1359 0.930 . S
H1362 C1385 0.931 1_655 S
H1363 C1351 0.929 . S
H1364 C1386 0.930 . S
H1365 C1357 0.931 . S
H1366 C1347 0.930 . S
H1367 C1376 0.929 . S
H1368 C1352 0.931 . S
H1369 C1353 0.930 . S
H1370 C1408 0.930 . S
H1371 C1349 0.929 . S
H1372 C1377 0.931 . S
H1373 C1378 0.930 . S
N1374 Gd1354 2.622 . S
N1374 C1375 1.369 . S
N1374 C1376 1.338 . S
C1375 N1374 1.369 . S
C1375 C1379 1.415 . S
C1375 C1382 1.422 1_655 S
C1376 H1367 0.929 . S
C1376 N1374 1.338 . S
C1376 C1378 1.378 . S
C1377 H1372 0.931 . S
C1377 C1378 1.348 . S
C1377 C1379 1.414 . S
C1378 H1373 0.930 . S
C1378 C1376 1.378 . S
C1378 C1377 1.348 . S
C1379 C1375 1.415 . S
C1379 C1377 1.414 . S
C1379 C1409 1.437 1_655 S
H1380 C1409 0.929 . S
N1381 Gd1354 2.570 . S
N1381 C1382 1.359 1_655 S
N1381 C1385 1.343 1_655 S
C1382 C1375 1.422 1_455 S
C1382 N1381 1.359 1_455 S
C1382 C1384 1.421 . S
C1383 C1384 1.422 . S
C1383 C1386 1.321 . S
C1383 H1410 0.931 . S
C1384 C1382 1.421 . S
C1384 C1383 1.422 . S
C1384 C1408 1.417 . S
C1385 H1362 0.931 1_455 S
C1385 N1381 1.343 1_455 S
C1385 C1386 1.390 . S
C1386 H1364 0.930 . S
C1386 C1383 1.321 . S
C1386 C1385 1.390 . S
O1387 Gd1355 2.386 . S
O1387 C1399 1.265 . S
O1388 Gd1354 2.353 . S
O1388 C1399 1.242 . S
O1389 Gd1354 2.468 . S
O1389 C1407 1.254 1_655 S
O1390 Gd1354 2.427 . S
O1390 C1407 1.240 1_655 S
O1391 Gd1355 2.307 . S
O1391 C1400 1.261 . S
O1392 Gd1354 2.388 . S
O1392 C1400 1.252 . S
O1393 Gd1354 2.386 . S
O1393 C1411 1.265 . S
O1394 Gd1355 2.353 . S
O1394 C1411 1.242 . S
O1395 Gd1355 2.468 . S
O1395 C1419 1.263 . S
O1396 Gd1355 2.427 . S
O1396 C1419 1.252 . S
O1397 Gd1354 2.307 . S
O1397 C1412 1.261 . S
O1398 Gd1355 2.388 . S
O1398 C1412 1.252 . S
C1399 O1387 1.265 . S
C1399 O1388 1.242 . S
C1400 O1391 1.261 . S
C1400 O1392 1.252 . S
C1401 C1404 1.394 . S
C1401 C1406 1.370 . S
C1401 C1407 1.523 . S
C1402 C1405 1.383 . S
C1402 C1406 1.395 . S
C1403 C1404 1.396 . S
C1403 C1405 1.365 . S
C1403 H1420 0.929 . S
C1404 C1401 1.394 . S
C1404 C1403 1.396 . S
C1404 H1421 0.930 . S
C1405 C1402 1.383 . S
C1405 C1403 1.365 . S
C1405 H1422 0.931 . S
C1406 C1401 1.370 . S
C1406 C1402 1.395 . S
C1406 H1423 0.930 . S
C1407 Gd1354 2.783 1_455 S
C1407 O1389 1.254 1_455 S
C1407 O1390 1.240 1_455 S
C1407 C1401 1.523 . S
C1408 H1370 0.930 . S
C1408 C1384 1.417 . S
C1408 C1409 1.329 . S
C1409 C1379 1.437 1_455 S
C1409 H1380 0.929 . S
C1409 C1408 1.329 . S
H1410 C1383 0.931 . S
C1411 O1393 1.265 . S
C1411 O1394 1.242 . S
C1412 O1397 1.261 . S
C1412 O1398 1.252 . S
C1413 C1416 1.394 . S
C1413 C1418 1.370 . S
C1413 C1419 1.500 . S
C1414 C1417 1.383 . S
C1414 C1418 1.395 . S
C1415 C1416 1.396 . S
C1415 C1417 1.365 . S
C1415 H1424 0.929 . S
C1416 C1413 1.394 . S
C1416 C1415 1.396 . S
C1416 H1425 0.930 . S
C1417 C1414 1.383 . S
C1417 C1415 1.365 . S
C1417 H1426 0.931 . S
C1418 C1413 1.370 . S
C1418 C1414 1.395 . S
C1418 H1427 0.930 . S
C1419 Gd1355 2.805 . S
C1419 O1395 1.263 . S
C1419 O1396 1.252 . S
C1419 C1413 1.500 . S
H1420 C1403 0.929 . S
H1421 C1404 0.930 . S
H1422 C1405 0.931 . S
H1423 C1406 0.930 . S
H1424 C1415 0.929 . S
H1425 C1416 0.930 . S
H1426 C1417 0.931 . S
H1427 C1418 0.930 . S
C1428 C1430 1.422 . S
C1428 C1432 1.415 . S
C1428 N1434 1.369 . S
C1429 C1430 1.421 1_455 S
C1429 C1431 1.417 . S
C1429 C1441 1.422 . S
C1430 C1428 1.422 . S
C1430 C1429 1.421 1_655 S
C1430 N1440 1.359 . S
C1431 C1429 1.417 . S
C1431 C1433 1.329 . S
C1431 H1450 0.930 . S
C1432 C1428 1.415 . S
C1432 C1433 1.437 1_655 S
C1432 C1436 1.413 . S
C1433 C1431 1.329 . S
C1433 C1432 1.437 1_455 S
C1433 H1455 0.929 . S
N1434 C1428 1.369 . S
N1434 C1435 1.338 . S
N1434 Gd1439 2.622 . S
C1435 N1434 1.338 . S
C1435 C1437 1.378 . S
C1435 H1447 0.929 . S
C1436 C1432 1.413 . S
C1436 C1437 1.348 . S
C1436 H1452 0.931 1_655 S
C1437 C1435 1.378 . S
C1437 C1436 1.348 . S
C1437 H1453 0.930 . S
Gd1438 N1458 2.622 . S
Gd1438 N1465 2.570 . S
Gd1438 O1472 2.353 . S
Gd1438 O1473 2.468 . S
Gd1438 O1474 2.427 . S
Gd1438 O1476 2.388 . S
Gd1438 O1477 2.386 . S
Gd1438 O1481 2.307 . S
Gd1438 C1491 2.805 . S
Gd1439 N1434 2.622 . S
Gd1439 N1440 2.570 . S
Gd1439 O1471 2.386 . S
Gd1439 O1475 2.307 . S
Gd1439 O1478 2.353 . S
Gd1439 O1479 2.468 . S
Gd1439 O1480 2.427 . S
Gd1439 O1482 2.388 . S
Gd1439 C1503 2.805 . S
N1440 C1430 1.359 . S
N1440 Gd1439 2.570 . S
N1440 C1442 1.343 . S
C1441 C1429 1.422 . S
C1441 C1443 1.321 . S
C1441 H1449 0.931 . S
C1442 N1440 1.343 . S
C1442 C1443 1.390 1_655 S
C1442 H1444 0.931 . S
C1443 C1441 1.321 . S
C1443 C1442 1.390 1_455 S
C1443 H1445 0.930 . S
H1444 C1442 0.931 . S
H1445 C1443 0.930 . S
H1446 C1469 0.931 . S
H1447 C1435 0.929 . S
H1448 C1470 0.930 . S
H1449 C1441 0.931 . S
H1450 C1431 0.930 . S
H1451 C1460 0.929 . S
H1452 C1436 0.931 1_455 S
H1453 C1437 0.930 . S
H1454 C1492 0.930 . S
H1455 C1433 0.929 . S
H1456 C1461 0.931 . S
H1457 C1462 0.930 . S
N1458 Gd1438 2.622 . S
N1458 C1459 1.369 . S
N1458 C1460 1.338 . S
C1459 N1458 1.369 . S
C1459 C1463 1.415 . S
C1459 C1466 1.422 . S
C1460 H1451 0.929 . S
C1460 N1458 1.338 . S
C1460 C1462 1.378 . S
C1461 H1456 0.931 . S
C1461 C1462 1.348 . S
C1461 C1463 1.413 . S
C1462 H1457 0.930 . S
C1462 C1460 1.378 . S
C1462 C1461 1.348 . S
C1463 C1459 1.415 . S
C1463 C1461 1.413 . S
C1463 C1493 1.437 . S
H1464 C1493 0.929 . S
N1465 Gd1438 2.570 . S
N1465 C1466 1.359 . S
N1465 C1469 1.343 . S
C1466 C1459 1.422 . S
C1466 N1465 1.359 . S
C1466 C1468 1.421 . S
C1467 C1468 1.422 . S
C1467 C1470 1.321 . S
C1467 H1494 0.931 . S
C1468 C1466 1.421 . S
C1468 C1467 1.422 . S
C1468 C1492 1.417 . S
C1469 H1446 0.931 . S
C1469 N1465 1.343 . S
C1469 C1470 1.390 . S
C1470 H1448 0.930 . S
C1470 C1467 1.321 . S
C1470 C1469 1.390 . S
O1471 Gd1439 2.386 . S
O1471 C1483 1.265 . S
O1472 Gd1438 2.353 . S
O1472 C1483 1.242 . S
O1473 Gd1438 2.468 . S
O1473 C1491 1.263 . S
O1474 Gd1438 2.427 . S
O1474 C1491 1.252 . S
O1475 Gd1439 2.307 . S
O1475 C1484 1.261 . S
O1476 Gd1438 2.388 . S
O1476 C1484 1.252 . S
O1477 Gd1438 2.386 . S
O1477 C1495 1.265 . S
O1478 Gd1439 2.353 . S
O1478 C1495 1.242 . S
O1479 Gd1439 2.468 . S
O1479 C1503 1.263 . S
O1480 Gd1439 2.427 . S
O1480 C1503 1.252 . S
O1481 Gd1438 2.307 . S
O1481 C1496 1.261 . S
O1482 Gd1439 2.388 . S
O1482 C1496 1.252 . S
C1483 O1471 1.265 . S
C1483 O1472 1.242 . S
C1484 O1475 1.261 . S
C1484 O1476 1.252 . S
C1485 C1488 1.394 . S
C1485 C1490 1.370 . S
C1485 C1491 1.500 . S
C1486 C1489 1.383 . S
C1486 C1490 1.395 . S
C1487 C1488 1.396 . S
C1487 C1489 1.365 . S
C1487 H1504 0.929 . S
C1488 C1485 1.394 . S
C1488 C1487 1.396 . S
C1488 H1505 0.930 . S
C1489 C1486 1.383 . S
C1489 C1487 1.365 . S
C1489 H1506 0.931 . S
C1490 C1485 1.370 . S
C1490 C1486 1.395 . S
C1490 H1507 0.930 . S
C1491 Gd1438 2.805 . S
C1491 O1473 1.263 . S
C1491 O1474 1.252 . S
C1491 C1485 1.500 . S
C1492 H1454 0.930 . S
C1492 C1468 1.417 . S
C1492 C1493 1.329 . S
C1493 C1463 1.437 . S
C1493 H1464 0.929 . S
C1493 C1492 1.329 . S
H1494 C1467 0.931 . S
C1495 O1477 1.265 . S
C1495 O1478 1.242 . S
C1496 O1481 1.261 . S
C1496 O1482 1.252 . S
C1497 C1500 1.394 . S
C1497 C1502 1.370 . S
C1497 C1503 1.500 . S
C1498 C1501 1.383 . S
C1498 C1502 1.395 . S
C1499 C1500 1.396 . S
C1499 C1501 1.365 . S
C1499 H1508 0.929 . S
C1500 C1497 1.394 . S
C1500 C1499 1.396 . S
C1500 H1509 0.930 . S
C1501 C1498 1.383 . S
C1501 C1499 1.365 . S
C1501 H1510 0.931 . S
C1502 C1497 1.370 . S
C1502 C1498 1.395 . S
C1502 H1511 0.930 . S
C1503 Gd1439 2.805 . S
C1503 O1479 1.263 . S
C1503 O1480 1.252 . S
C1503 C1497 1.500 . S
H1504 C1487 0.929 . S
H1505 C1488 0.930 . S
H1506 C1489 0.931 . S
H1507 C1490 0.930 . S
H1508 C1499 0.929 . S
H1509 C1500 0.930 . S
H1510 C1501 0.931 . S
H1511 C1502 0.930 . S
H1512 C1518 0.930 . S
H1513 C1521 0.930 . S
H1514 C1522 0.930 . S
H1515 C1523 0.930 . S
H1516 C1526 0.930 . S
H1517 C1527 0.930 . S
C1518 H1512 0.930 . S
C1518 C1519 1.355 . S
C1518 C1520 1.415 . S
C1519 C1518 1.355 . S
C1519 C1521 1.419 . S
C1520 C1518 1.415 . S
C1520 C1525 1.425 . S
C1520 C1527 1.409 . S
C1521 H1513 0.930 . S
C1521 C1519 1.419 . S
C1521 C1522 1.362 . S
C1522 H1514 0.930 . S
C1522 C1521 1.362 . S
C1522 C1525 1.409 . S
C1523 H1515 0.930 . S
C1523 C1524 1.355 . S
C1523 C1525 1.415 . S
C1524 C1523 1.355 . S
C1524 C1526 1.419 . S
C1525 C1520 1.425 . S
C1525 C1522 1.409 . S
C1525 C1523 1.415 . S
C1526 H1516 0.930 . S
C1526 C1524 1.419 . S
C1526 C1527 1.362 . S
C1527 H1517 0.930 . S
C1527 C1520 1.409 . S
C1527 C1526 1.362 . S
H1528 C1534 0.930 . S
H1529 C1537 0.930 . S
H1530 C1538 0.930 . S
H1531 C1539 0.930 . S
H1532 C1542 0.930 . S
H1533 C1543 0.930 . S
C1534 H1528 0.930 . S
C1534 C1535 1.355 . S
C1534 C1536 1.415 . S
C1535 C1534 1.355 . S
C1535 C1537 1.419 . S
C1536 C1534 1.415 . S
C1536 C1541 1.425 . S
C1536 C1543 1.409 . S
C1537 H1529 0.930 . S
C1537 C1535 1.419 . S
C1537 C1538 1.362 . S
C1538 H1530 0.930 . S
C1538 C1537 1.362 . S
C1538 C1541 1.409 . S
C1539 H1531 0.930 . S
C1539 C1540 1.355 . S
C1539 C1541 1.415 . S
C1540 C1539 1.355 . S
C1540 C1542 1.419 . S
C1541 C1536 1.425 . S
C1541 C1538 1.409 . S
C1541 C1539 1.415 . S
C1542 H1532 0.930 . S
C1542 C1540 1.419 . S
C1542 C1543 1.362 . S
C1543 H1533 0.930 . S
C1543 C1536 1.409 . S
C1543 C1542 1.362 . S
H1544 C1550 0.930 . S
H1545 C1553 0.930 . S
H1546 C1554 0.930 . S
H1547 C1555 0.930 . S
H1548 C1558 0.930 . S
H1549 C1559 0.930 . S
C1550 H1544 0.930 . S
C1550 C1551 1.355 . S
C1550 C1552 1.415 . S
C1551 C1550 1.355 . S
C1551 C1553 1.419 . S
C1552 C1550 1.415 . S
C1552 C1557 1.425 . S
C1552 C1559 1.409 . S
C1553 H1545 0.930 . S
C1553 C1551 1.419 . S
C1553 C1554 1.362 . S
C1554 H1546 0.930 . S
C1554 C1553 1.362 . S
C1554 C1557 1.409 . S
C1555 H1547 0.930 . S
C1555 C1556 1.355 . S
C1555 C1557 1.415 . S
C1556 C1555 1.355 . S
C1556 C1558 1.419 . S
C1557 C1552 1.425 . S
C1557 C1554 1.409 . S
C1557 C1555 1.415 . S
C1558 H1548 0.930 . S
C1558 C1556 1.419 . S
C1558 C1559 1.362 . S
C1559 H1549 0.930 . S
C1559 C1552 1.409 . S
C1559 C1558 1.362 . S
H1560 C1566 0.930 . S
H1561 C1569 0.930 . S
H1562 C1570 0.930 . S
H1563 C1571 0.930 . S
H1564 C1574 0.930 . S
H1565 C1575 0.930 . S
C1566 H1560 0.930 . S
C1566 C1567 1.355 . S
C1566 C1568 1.415 . S
C1567 C1566 1.355 . S
C1567 C1569 1.419 . S
C1568 C1566 1.415 . S
C1568 C1573 1.425 . S
C1568 C1575 1.409 . S
C1569 H1561 0.930 . S
C1569 C1567 1.419 . S
C1569 C1570 1.362 . S
C1570 H1562 0.930 . S
C1570 C1569 1.362 . S
C1570 C1573 1.409 . S
C1571 H1563 0.930 . S
C1571 C1572 1.355 . S
C1571 C1573 1.415 . S
C1572 C1571 1.355 . S
C1572 C1574 1.419 . S
C1573 C1568 1.425 . S
C1573 C1570 1.409 . S
C1573 C1571 1.415 . S
C1574 H1564 0.930 . S
C1574 C1572 1.419 . S
C1574 C1575 1.362 . S
C1575 H1565 0.930 . S
C1575 C1568 1.409 . S
C1575 C1574 1.362 . S
H1576 C1582 0.930 . S
H1577 C1585 0.930 . S
H1578 C1586 0.930 . S
H1579 C1587 0.930 . S
H1580 C1590 0.930 . S
H1581 C1591 0.930 . S
C1582 H1576 0.930 . S
C1582 C1583 1.355 . S
C1582 C1584 1.415 . S
C1583 C1582 1.355 . S
C1583 C1585 1.419 . S
C1584 C1582 1.415 . S
C1584 C1589 1.425 . S
C1584 C1591 1.409 . S
C1585 H1577 0.930 . S
C1585 C1583 1.419 . S
C1585 C1586 1.362 . S
C1586 H1578 0.930 . S
C1586 C1585 1.362 . S
C1586 C1589 1.409 . S
C1587 H1579 0.930 . S
C1587 C1588 1.355 . S
C1587 C1589 1.415 . S
C1588 C1587 1.355 . S
C1588 C1590 1.419 . S
C1589 C1584 1.425 . S
C1589 C1586 1.409 . S
C1589 C1587 1.415 . S
C1590 H1580 0.930 . S
C1590 C1588 1.419 . S
C1590 C1591 1.362 . S
C1591 H1581 0.930 . S
C1591 C1584 1.409 . S
C1591 C1590 1.362 . S
H1592 C1598 0.930 . S
H1593 C1601 0.930 . S
H1594 C1602 0.930 . S
H1595 C1603 0.930 . S
H1596 C1606 0.930 . S
H1597 C1607 0.930 . S
C1598 H1592 0.930 . S
C1598 C1599 1.355 . S
C1598 C1600 1.415 . S
C1599 C1598 1.355 . S
C1599 C1601 1.419 . S
C1600 C1598 1.415 . S
C1600 C1605 1.425 . S
C1600 C1607 1.409 . S
C1601 H1593 0.930 . S
C1601 C1599 1.419 . S
C1601 C1602 1.362 . S
C1602 H1594 0.930 . S
C1602 C1601 1.362 . S
C1602 C1605 1.409 . S
C1603 H1595 0.930 . S
C1603 C1604 1.355 . S
C1603 C1605 1.415 . S
C1604 C1603 1.355 . S
C1604 C1606 1.419 . S
C1605 C1600 1.425 . S
C1605 C1602 1.409 . S
C1605 C1603 1.415 . S
C1606 H1596 0.930 . S
C1606 C1604 1.419 . S
C1606 C1607 1.362 . S
C1607 H1597 0.930 . S
C1607 C1600 1.409 . S
C1607 C1606 1.362 . S
H1608 C1614 0.930 . S
H1609 C1617 0.930 . S
H1610 C1618 0.930 . S
H1611 C1619 0.930 . S
H1612 C1622 0.930 . S
H1613 C1623 0.930 . S
C1614 H1608 0.930 . S
C1614 C1615 1.355 . S
C1614 C1616 1.415 . S
C1615 C1614 1.355 . S
C1615 C1617 1.419 . S
C1616 C1614 1.415 . S
C1616 C1621 1.425 . S
C1616 C1623 1.409 . S
C1617 H1609 0.930 . S
C1617 C1615 1.419 . S
C1617 C1618 1.362 . S
C1618 H1610 0.930 . S
C1618 C1617 1.362 . S
C1618 C1621 1.409 . S
C1619 H1611 0.930 . S
C1619 C1620 1.355 . S
C1619 C1621 1.415 . S
C1620 C1619 1.355 . S
C1620 C1622 1.419 . S
C1621 C1616 1.425 . S
C1621 C1618 1.409 . S
C1621 C1619 1.415 . S
C1622 H1612 0.930 . S
C1622 C1620 1.419 . S
C1622 C1623 1.362 . S
C1623 H1613 0.930 . S
C1623 C1616 1.409 . S
C1623 C1622 1.362 . S
H1624 C1630 0.930 . S
H1625 C1633 0.930 . S
H1626 C1634 0.930 . S
H1627 C1635 0.930 . S
H1628 C1638 0.930 . S
H1629 C1639 0.938 . S
C1630 H1624 0.930 . S
C1630 C1631 1.355 . S
C1630 C1632 1.415 . S
C1631 C1630 1.355 . S
C1631 C1633 1.419 . S
C1632 C1630 1.415 . S
C1632 C1637 1.425 . S
C1632 C1639 1.419 . S
C1633 H1625 0.930 . S
C1633 C1631 1.419 . S
C1633 C1634 1.362 . S
C1634 H1626 0.930 . S
C1634 C1633 1.362 . S
C1634 C1637 1.409 . S
C1635 H1627 0.930 . S
C1635 C1636 1.355 . S
C1635 C1637 1.415 1_565 S
C1636 C1635 1.355 . S
C1636 C1638 1.419 . S
C1637 C1632 1.425 . S
C1637 C1634 1.409 . S
C1637 C1635 1.415 1_545 S
C1638 H1628 0.930 . S
C1638 C1636 1.419 . S
C1638 C1639 1.345 1_565 S
C1639 H1629 0.938 . S
C1639 C1632 1.419 . S
C1639 C1638 1.345 1_545 S
H1640 C1646 0.930 . S
H1641 C1649 0.930 . S
H1642 C1650 0.930 . S
H1643 C1651 0.930 . S
H1644 C1654 0.930 . S
H1645 C1655 0.930 1_455 S
C1646 H1640 0.930 . S
C1646 C1647 1.355 . S
C1646 C1648 1.415 . S
C1647 C1646 1.355 . S
C1647 C1649 1.419 . S
C1648 C1646 1.415 . S
C1648 C1653 1.425 . S
C1648 C1655 1.409 1_455 S
C1649 H1641 0.930 . S
C1649 C1647 1.419 . S
C1649 C1650 1.362 . S
C1650 H1642 0.930 . S
C1650 C1649 1.362 . S
C1650 C1653 1.409 . S
C1651 H1643 0.930 . S
C1651 C1652 1.355 . S
C1651 C1653 1.415 1_655 S
C1652 C1651 1.355 . S
C1652 C1654 1.419 . S
C1653 C1648 1.425 . S
C1653 C1650 1.409 . S
C1653 C1651 1.415 1_455 S
C1654 H1644 0.930 . S
C1654 C1652 1.419 . S
C1654 C1655 1.362 . S
C1655 H1645 0.930 1_655 S
C1655 C1648 1.409 1_655 S
C1655 C1654 1.362 . S
H1656 C1662 0.930 . S
H1657 C1665 0.930 . S
H1658 C1666 0.930 . S
H1659 C1667 0.930 . S
H1660 C1670 0.930 . S
H1661 C1671 0.930 . S
C1662 H1656 0.930 . S
C1662 C1663 1.355 . S
C1662 C1664 1.415 . S
C1663 C1662 1.355 . S
C1663 C1665 1.419 . S
C1664 C1662 1.415 . S
C1664 C1669 1.425 . S
C1664 C1671 1.409 . S
C1665 H1657 0.930 . S
C1665 C1663 1.419 . S
C1665 C1666 1.362 . S
C1666 H1658 0.930 . S
C1666 C1665 1.362 . S
C1666 C1669 1.409 . S
C1667 H1659 0.930 . S
C1667 C1668 1.355 . S
C1667 C1669 1.415 . S
C1668 C1667 1.355 . S
C1668 C1670 1.419 . S
C1669 C1664 1.425 . S
C1669 C1666 1.409 . S
C1669 C1667 1.415 . S
C1670 H1660 0.930 . S
C1670 C1668 1.419 . S
C1670 C1671 1.362 . S
C1671 H1661 0.930 . S
C1671 C1664 1.409 . S
C1671 C1670 1.362 . S
H1672 C1678 0.930 . S
H1673 C1681 0.930 . S
H1674 C1682 0.930 . S
H1675 C1683 0.930 . S
H1676 C1686 0.930 . S
H1677 C1687 0.930 . S
C1678 H1672 0.930 . S
C1678 C1679 1.355 . S
C1678 C1680 1.415 . S
C1679 C1678 1.355 . S
C1679 C1681 1.419 . S
C1680 C1678 1.415 . S
C1680 C1685 1.425 . S
C1680 C1687 1.409 . S
C1681 H1673 0.930 . S
C1681 C1679 1.419 . S
C1681 C1682 1.362 . S
C1682 H1674 0.930 . S
C1682 C1681 1.362 . S
C1682 C1685 1.409 . S
C1683 H1675 0.930 . S
C1683 C1684 1.355 . S
C1683 C1685 1.415 . S
C1684 C1683 1.355 . S
C1684 C1686 1.419 . S
C1685 C1680 1.425 . S
C1685 C1682 1.409 . S
C1685 C1683 1.415 . S
C1686 H1676 0.930 . S
C1686 C1684 1.419 . S
C1686 C1687 1.362 . S
C1687 H1677 0.930 . S
C1687 C1680 1.409 . S
C1687 C1686 1.362 . S
H1688 C1694 0.930 . S
H1689 C1697 0.930 . S
H1690 C1698 0.930 . S
H1691 C1699 0.930 . S
H1692 C1702 0.930 . S
H1693 C1703 0.930 . S
C1694 H1688 0.930 . S
C1694 C1695 1.355 . S
C1694 C1696 1.415 . S
C1695 C1694 1.355 . S
C1695 C1697 1.419 . S
C1696 C1694 1.415 . S
C1696 C1701 1.425 . S
C1696 C1703 1.409 . S
C1697 H1689 0.930 . S
C1697 C1695 1.419 . S
C1697 C1698 1.362 . S
C1698 H1690 0.930 . S
C1698 C1697 1.362 . S
C1698 C1701 1.409 . S
C1699 H1691 0.930 . S
C1699 C1700 1.355 . S
C1699 C1701 1.415 . S
C1700 C1699 1.355 . S
C1700 C1702 1.419 . S
C1701 C1696 1.425 . S
C1701 C1698 1.409 . S
C1701 C1699 1.415 . S
C1702 H1692 0.930 . S
C1702 C1700 1.419 . S
C1702 C1703 1.362 . S
C1703 H1693 0.930 . S
C1703 C1696 1.409 . S
C1703 C1702 1.362 . S
H1704 C1710 0.930 . S
H1705 C1713 0.930 . S
H1706 C1714 0.930 . S
H1707 C1715 0.930 . S
H1708 C1718 0.930 . S
H1709 C1719 0.930 . S
C1710 H1704 0.930 . S
C1710 C1711 1.355 . S
C1710 C1712 1.415 . S
C1711 C1710 1.355 . S
C1711 C1713 1.419 . S
C1712 C1710 1.415 . S
C1712 C1717 1.425 . S
C1712 C1719 1.409 . S
C1713 H1705 0.930 . S
C1713 C1711 1.419 . S
C1713 C1714 1.362 . S
C1714 H1706 0.930 . S
C1714 C1713 1.362 . S
C1714 C1717 1.409 . S
C1715 H1707 0.930 . S
C1715 C1716 1.355 . S
C1715 C1717 1.415 . S
C1716 C1715 1.355 . S
C1716 C1718 1.419 . S
C1717 C1712 1.425 . S
C1717 C1714 1.409 . S
C1717 C1715 1.415 . S
C1718 H1708 0.930 . S
C1718 C1716 1.419 . S
C1718 C1719 1.362 . S
C1719 H1709 0.930 . S
C1719 C1712 1.409 . S
C1719 C1718 1.362 . S
H1720 C1726 0.930 . S
H1721 C1729 0.930 . S
H1722 C1730 0.930 . S
H1723 C1731 0.930 . S
H1724 C1734 0.930 . S
H1725 C1735 0.930 . S
C1726 H1720 0.930 . S
C1726 C1727 1.355 . S
C1726 C1728 1.415 . S
C1727 C1726 1.355 . S
C1727 C1729 1.419 . S
C1728 C1726 1.415 . S
C1728 C1733 1.425 . S
C1728 C1735 1.409 . S
C1729 H1721 0.930 . S
C1729 C1727 1.419 . S
C1729 C1730 1.362 . S
C1730 H1722 0.930 . S
C1730 C1729 1.362 . S
C1730 C1733 1.409 . S
C1731 H1723 0.930 . S
C1731 C1732 1.355 . S
C1731 C1733 1.415 . S
C1732 C1731 1.355 . S
C1732 C1734 1.419 . S
C1733 C1728 1.425 . S
C1733 C1730 1.409 . S
C1733 C1731 1.415 . S
C1734 H1724 0.930 . S
C1734 C1732 1.419 . S
C1734 C1735 1.362 . S
C1735 H1725 0.930 . S
C1735 C1728 1.409 . S
C1735 C1734 1.362 . S
H1736 C1742 0.930 . S
H1737 C1745 0.930 . S
H1738 C1746 0.930 . S
H1739 C1747 0.930 . S
H1740 C1750 0.930 . S
H1741 C1751 0.930 . S
C1742 H1736 0.930 . S
C1742 C1743 1.355 . S
C1742 C1744 1.415 . S
C1743 C1742 1.355 . S
C1743 C1745 1.419 . S
C1744 C1742 1.415 . S
C1744 C1749 1.425 . S
C1744 C1751 1.409 . S
C1745 H1737 0.930 . S
C1745 C1743 1.419 . S
C1745 C1746 1.362 . S
C1746 H1738 0.930 . S
C1746 C1745 1.362 . S
C1746 C1749 1.409 . S
C1747 H1739 0.930 . S
C1747 C1748 1.355 . S
C1747 C1749 1.415 . S
C1748 C1747 1.355 . S
C1748 C1750 1.419 . S
C1749 C1744 1.425 . S
C1749 C1746 1.409 . S
C1749 C1747 1.415 . S
C1750 H1740 0.930 . S
C1750 C1748 1.419 . S
C1750 C1751 1.362 . S
C1751 H1741 0.930 . S
C1751 C1744 1.409 . S
C1751 C1750 1.362 . S
H1752 C1758 0.930 . S
H1753 C1761 0.930 . S
H1754 C1762 0.930 . S
H1755 C1763 0.930 . S
H1756 C1766 0.930 . S
H1757 C1767 0.930 . S
C1758 H1752 0.930 . S
C1758 C1759 1.355 . S
C1758 C1760 1.415 . S
C1759 C1758 1.355 . S
C1759 C1761 1.419 . S
C1760 C1758 1.415 . S
C1760 C1765 1.425 . S
C1760 C1767 1.409 . S
C1761 H1753 0.930 . S
C1761 C1759 1.419 . S
C1761 C1762 1.362 . S
C1762 H1754 0.930 . S
C1762 C1761 1.362 . S
C1762 C1765 1.409 . S
C1763 H1755 0.930 . S
C1763 C1764 1.355 . S
C1763 C1765 1.415 . S
C1764 C1763 1.355 . S
C1764 C1766 1.419 . S
C1765 C1760 1.425 . S
C1765 C1762 1.409 . S
C1765 C1763 1.415 . S
C1766 H1756 0.930 . S
C1766 C1764 1.419 . S
C1766 C1767 1.362 . S
C1767 H1757 0.930 . S
C1767 C1760 1.409 . S
C1767 C1766 1.362 . S
H1768 C1774 0.930 . S
H1769 C1777 0.930 . S
H1770 C1778 0.930 . S
H1771 C1779 0.930 . S
H1772 C1782 0.930 . S
H1773 C1783 0.930 1_565 S
C1774 H1768 0.930 . S
C1774 C1775 1.355 . S
C1774 C1776 1.415 . S
C1775 C1774 1.355 . S
C1775 C1777 1.419 . S
C1776 C1774 1.415 . S
C1776 C1781 1.425 1_565 S
C1776 C1783 1.409 1_565 S
C1777 H1769 0.930 . S
C1777 C1775 1.419 . S
C1777 C1778 1.362 1_565 S
C1778 H1770 0.930 . S
C1778 C1777 1.362 1_545 S
C1778 C1781 1.409 . S
C1779 H1771 0.930 . S
C1779 C1780 1.355 . S
C1779 C1781 1.415 . S
C1780 C1779 1.355 . S
C1780 C1782 1.419 . S
C1781 C1776 1.425 1_545 S
C1781 C1778 1.409 . S
C1781 C1779 1.415 . S
C1782 H1772 0.930 . S
C1782 C1780 1.419 . S
C1782 C1783 1.362 . S
C1783 H1773 0.930 1_545 S
C1783 C1776 1.409 1_545 S
C1783 C1782 1.362 . S
H1784 C1790 0.930 . S
H1785 C1793 0.930 . S
H1786 C1794 0.930 . S
H1787 C1795 0.930 . S
H1788 C1798 0.930 . S
H1789 C1799 0.930 . S
C1790 H1784 0.930 . S
C1790 C1791 1.355 . S
C1790 C1792 1.415 . S
C1791 C1790 1.355 . S
C1791 C1793 1.419 . S
C1792 C1790 1.415 . S
C1792 C1797 1.425 . S
C1792 C1799 1.409 . S
C1793 H1785 0.930 . S
C1793 C1791 1.419 . S
C1793 C1794 1.362 . S
C1794 H1786 0.930 . S
C1794 C1793 1.362 . S
C1794 C1797 1.409 . S
C1795 H1787 0.930 . S
C1795 C1796 1.355 . S
C1795 C1797 1.415 1_655 S
C1796 C1795 1.355 . S
C1796 C1798 1.419 . S
C1797 C1792 1.425 . S
C1797 C1794 1.409 . S
C1797 C1795 1.415 1_455 S
C1798 H1788 0.930 . S
C1798 C1796 1.419 . S
C1798 C1799 1.362 1_655 S
C1799 H1789 0.930 . S
C1799 C1792 1.409 . S
C1799 C1798 1.362 1_455 S
H1800 C1806 0.930 . S
H1801 C1809 0.930 1_565 S
H1802 C1810 0.930 . S
H1803 C1811 0.930 . S
H1804 C1814 0.930 . S
H1805 C1815 0.930 . S
C1806 H1800 0.930 . S
C1806 C1807 1.355 . S
C1806 C1808 1.415 . S
C1807 C1806 1.355 . S
C1807 C1809 1.419 . S
C1808 C1806 1.415 . S
C1808 C1813 1.425 1_554 S
C1808 C1815 1.409 1_554 S
C1809 H1801 0.930 1_545 S
C1809 C1807 1.419 . S
C1809 C1810 1.362 1_545 S
C1810 H1802 0.930 . S
C1810 C1809 1.362 1_565 S
C1810 C1813 1.409 1_564 S
C1811 H1803 0.930 . S
C1811 C1812 1.355 1_565 S
C1811 C1813 1.415 1_565 S
C1812 C1811 1.355 1_545 S
C1812 C1814 1.419 . S
C1813 C1808 1.425 1_556 S
C1813 C1810 1.409 1_546 S
C1813 C1811 1.415 1_545 S
C1814 H1804 0.930 . S
C1814 C1812 1.419 . S
C1814 C1815 1.362 . S
C1815 H1805 0.930 . S
C1815 C1808 1.409 1_556 S
C1815 C1814 1.362 . S
H1816 C1822 0.930 . S
H1817 C1825 0.930 . S
H1818 C1826 0.930 . S
H1819 C1827 0.930 . S
H1820 C1830 0.930 . S
H1821 C1831 0.930 1_655 S
C1822 H1816 0.930 . S
C1822 C1823 1.355 . S
C1822 C1824 1.415 . S
C1823 C1822 1.355 . S
C1823 C1825 1.419 . S
C1824 C1822 1.415 . S
C1824 C1829 1.425 1_556 S
C1824 C1831 1.409 1_556 S
C1825 H1817 0.930 . S
C1825 C1823 1.419 . S
C1825 C1826 1.362 . S
C1826 H1818 0.930 . S
C1826 C1825 1.362 . S
C1826 C1829 1.409 1_556 S
C1827 H1819 0.930 . S
C1827 C1828 1.355 . S
C1827 C1829 1.415 . S
C1828 C1827 1.355 . S
C1828 C1830 1.419 1_455 S
C1829 C1824 1.425 1_554 S
C1829 C1826 1.409 1_554 S
C1829 C1827 1.415 . S
C1830 H1820 0.930 . S
C1830 C1828 1.419 1_655 S
C1830 C1831 1.362 1_655 S
C1831 H1821 0.930 1_455 S
C1831 C1824 1.409 1_554 S
C1831 C1830 1.362 1_455 S
H1832 C1838 0.930 . S
H1833 C1841 0.930 . S
H1834 C1842 0.930 . S
H1835 C1843 0.930 . S
H1836 C1846 0.930 . S
H1837 C1847 0.930 . S
C1838 H1832 0.930 . S
C1838 C1839 1.355 . S
C1838 C1840 1.415 . S
C1839 C1838 1.355 . S
C1839 C1841 1.419 . S
C1840 C1838 1.415 . S
C1840 C1845 1.425 1_556 S
C1840 C1847 1.409 1_556 S
C1841 H1833 0.930 . S
C1841 C1839 1.419 . S
C1841 C1842 1.362 . S
C1842 H1834 0.930 . S
C1842 C1841 1.362 . S
C1842 C1845 1.409 1_556 S
C1843 H1835 0.930 . S
C1843 C1844 1.355 . S
C1843 C1845 1.415 . S
C1844 C1843 1.355 . S
C1844 C1846 1.419 . S
C1845 C1840 1.425 1_554 S
C1845 C1842 1.409 1_554 S
C1845 C1843 1.415 . S
C1846 H1836 0.930 . S
C1846 C1844 1.419 . S
C1846 C1847 1.362 . S
C1847 H1837 0.930 . S
C1847 C1840 1.409 1_554 S
C1847 C1846 1.362 . S
H1848 C1854 0.930 . S
H1849 C1857 0.930 . S
H1850 C1858 0.930 . S
H1851 C1859 0.930 . S
H1852 C1862 0.930 . S
H1853 C1863 0.930 . S
C1854 H1848 0.930 . S
C1854 C1855 1.355 . S
C1854 C1856 1.415 . S
C1855 C1854 1.355 . S
C1855 C1857 1.419 . S
C1856 C1854 1.415 . S
C1856 C1861 1.425 . S
C1856 C1863 1.409 . S
C1857 H1849 0.930 . S
C1857 C1855 1.419 . S
C1857 C1858 1.362 . S
C1858 H1850 0.930 . S
C1858 C1857 1.362 . S
C1858 C1861 1.409 . S
C1859 H1851 0.930 . S
C1859 C1860 1.355 . S
C1859 C1861 1.415 . S
C1860 C1859 1.355 . S
C1860 C1862 1.419 . S
C1861 C1856 1.425 . S
C1861 C1858 1.409 . S
C1861 C1859 1.415 . S
C1862 H1852 0.930 . S
C1862 C1860 1.419 . S
C1862 C1863 1.362 . S
C1863 H1853 0.930 . S
C1863 C1856 1.409 . S
C1863 C1862 1.362 . S
H1864 C1870 0.930 . S
H1865 C1873 0.930 . S
H1866 C1874 0.930 . S
H1867 C1875 0.930 . S
H1868 C1878 0.930 . S
H1869 C1879 0.930 . S
C1870 H1864 0.930 . S
C1870 C1871 1.355 . S
C1870 C1872 1.415 . S
C1871 C1870 1.355 . S
C1871 C1873 1.419 . S
C1872 C1870 1.415 . S
C1872 C1877 1.425 . S
C1872 C1879 1.409 . S
C1873 H1865 0.930 . S
C1873 C1871 1.419 . S
C1873 C1874 1.362 . S
C1874 H1866 0.930 . S
C1874 C1873 1.362 . S
C1874 C1877 1.409 . S
C1875 H1867 0.930 . S
C1875 C1876 1.355 . S
C1875 C1877 1.415 . S
C1876 C1875 1.355 . S
C1876 C1878 1.419 . S
C1877 C1872 1.425 . S
C1877 C1874 1.409 . S
C1877 C1875 1.415 . S
C1878 H1868 0.930 . S
C1878 C1876 1.419 . S
C1878 C1879 1.362 . S
C1879 H1869 0.930 . S
C1879 C1872 1.409 . S
C1879 C1878 1.362 . S
H1880 C1886 0.930 . S
H1881 C1889 0.930 . S
H1882 C1890 0.930 . S
H1883 C1891 0.930 . S
H1884 C1894 0.930 . S
H1885 C1895 0.930 . S
C1886 H1880 0.930 . S
C1886 C1887 1.355 . S
C1886 C1888 1.415 . S
C1887 C1886 1.355 . S
C1887 C1889 1.419 . S
C1888 C1886 1.415 . S
C1888 C1893 1.425 . S
C1888 C1895 1.409 . S
C1889 H1881 0.930 . S
C1889 C1887 1.419 . S
C1889 C1890 1.362 . S
C1890 H1882 0.930 . S
C1890 C1889 1.362 . S
C1890 C1893 1.409 . S
C1891 H1883 0.930 . S
C1891 C1892 1.355 . S
C1891 C1893 1.415 . S
C1892 C1891 1.355 . S
C1892 C1894 1.419 . S
C1893 C1888 1.425 . S
C1893 C1890 1.409 . S
C1893 C1891 1.415 . S
C1894 H1884 0.930 . S
C1894 C1892 1.419 . S
C1894 C1895 1.362 . S
C1895 H1885 0.930 . S
C1895 C1888 1.409 . S
C1895 C1894 1.362 . S
H1896 C1902 0.930 . S
H1897 C1905 0.930 . S
H1898 C1906 0.930 . S
H1899 C1907 0.930 . S
H1900 C1910 0.930 . S
H1901 C1911 0.930 . S
C1902 H1896 0.930 . S
C1902 C1903 1.355 . S
C1902 C1904 1.415 . S
C1903 C1902 1.355 . S
C1903 C1905 1.419 . S
C1904 C1902 1.415 . S
C1904 C1909 1.425 . S
C1904 C1911 1.409 . S
C1905 H1897 0.930 . S
C1905 C1903 1.419 . S
C1905 C1906 1.362 . S
C1906 H1898 0.930 . S
C1906 C1905 1.362 . S
C1906 C1909 1.409 . S
C1907 H1899 0.930 . S
C1907 C1908 1.355 . S
C1907 C1909 1.415 . S
C1908 C1907 1.355 . S
C1908 C1910 1.419 . S
C1909 C1904 1.425 . S
C1909 C1906 1.409 . S
C1909 C1907 1.415 . S
C1910 H1900 0.930 . S
C1910 C1908 1.419 . S
C1910 C1911 1.362 . S
C1911 H1901 0.930 . S
C1911 C1904 1.409 . S
C1911 C1910 1.362 . S
H1912 C1918 0.930 . S
H1913 C1921 0.930 . S
H1914 C1922 0.930 . S
H1915 C1923 0.930 . S
H1916 C1926 0.930 . S
H1917 C1927 0.930 . S
C1918 H1912 0.930 . S
C1918 C1919 1.355 . S
C1918 C1920 1.415 . S
C1919 C1918 1.355 . S
C1919 C1921 1.419 . S
C1920 C1918 1.415 . S
C1920 C1925 1.425 . S
C1920 C1927 1.409 . S
C1921 H1913 0.930 . S
C1921 C1919 1.419 . S
C1921 C1922 1.362 . S
C1922 H1914 0.930 . S
C1922 C1921 1.362 . S
C1922 C1925 1.409 . S
C1923 H1915 0.930 . S
C1923 C1924 1.355 . S
C1923 C1925 1.415 . S
C1924 C1923 1.355 . S
C1924 C1926 1.419 . S
C1925 C1920 1.425 . S
C1925 C1922 1.409 . S
C1925 C1923 1.415 . S
C1926 H1916 0.930 . S
C1926 C1924 1.419 . S
C1926 C1927 1.362 . S
C1927 H1917 0.930 . S
C1927 C1920 1.409 . S
C1927 C1926 1.362 . S
H1928 C1934 0.930 . S
H1929 C1937 0.930 . S
H1930 C1938 0.930 . S
H1931 C1939 0.930 . S
H1932 C1942 0.930 . S
H1933 C1943 0.930 . S
C1934 H1928 0.930 . S
C1934 C1935 1.355 . S
C1934 C1936 1.415 . S
C1935 C1934 1.355 . S
C1935 C1937 1.419 . S
C1936 C1934 1.415 . S
C1936 C1941 1.425 . S
C1936 C1943 1.409 . S
C1937 H1929 0.930 . S
C1937 C1935 1.419 . S
C1937 C1938 1.362 . S
C1938 H1930 0.930 . S
C1938 C1937 1.362 . S
C1938 C1941 1.409 . S
C1939 H1931 0.930 . S
C1939 C1940 1.355 . S
C1939 C1941 1.415 . S
C1940 C1939 1.355 . S
C1940 C1942 1.419 . S
C1941 C1936 1.425 . S
C1941 C1938 1.409 . S
C1941 C1939 1.415 . S
C1942 H1932 0.930 . S
C1942 C1940 1.419 . S
C1942 C1943 1.362 . S
C1943 H1933 0.930 . S
C1943 C1936 1.409 . S
C1943 C1942 1.362 . S
H1944 C1950 0.930 . S
H1945 C1953 0.930 . S
H1946 C1954 0.930 . S
H1947 C1955 0.930 . S
H1948 C1958 0.930 . S
H1949 C1959 0.930 . S
C1950 H1944 0.930 . S
C1950 C1951 1.355 . S
C1950 C1952 1.415 . S
C1951 C1950 1.355 . S
C1951 C1953 1.419 . S
C1952 C1950 1.415 . S
C1952 C1957 1.425 . S
C1952 C1959 1.409 . S
C1953 H1945 0.930 . S
C1953 C1951 1.419 . S
C1953 C1954 1.362 . S
C1954 H1946 0.930 . S
C1954 C1953 1.362 . S
C1954 C1957 1.409 . S
C1955 H1947 0.930 . S
C1955 C1956 1.355 . S
C1955 C1957 1.415 . S
C1956 C1955 1.355 . S
C1956 C1958 1.419 . S
C1957 C1952 1.425 . S
C1957 C1954 1.409 . S
C1957 C1955 1.415 . S
C1958 H1948 0.930 . S
C1958 C1956 1.419 . S
C1958 C1959 1.362 . S
C1959 H1949 0.930 . S
C1959 C1952 1.409 . S
C1959 C1958 1.362 . S
H1960 C1966 0.930 . S
H1961 C1969 0.930 . S
H1962 C1970 0.930 . S
H1963 C1971 0.930 . S
H1964 C1974 0.930 . S
H1965 C1975 0.930 . S
C1966 H1960 0.930 . S
C1966 C1967 1.355 . S
C1966 C1968 1.415 . S
C1967 C1966 1.355 . S
C1967 C1969 1.419 . S
C1968 C1966 1.415 . S
C1968 C1973 1.425 . S
C1968 C1975 1.409 . S
C1969 H1961 0.930 . S
C1969 C1967 1.419 . S
C1969 C1970 1.362 . S
C1970 H1962 0.930 . S
C1970 C1969 1.362 . S
C1970 C1973 1.409 . S
C1971 H1963 0.930 . S
C1971 C1972 1.355 . S
C1971 C1973 1.415 . S
C1972 C1971 1.355 . S
C1972 C1974 1.419 . S
C1973 C1968 1.425 . S
C1973 C1970 1.409 . S
C1973 C1971 1.415 . S
C1974 H1964 0.930 . S
C1974 C1972 1.419 . S
C1974 C1975 1.362 . S
C1975 H1965 0.930 . S
C1975 C1968 1.409 . S
C1975 C1974 1.362 . S
H1976 C1982 0.930 . S
H1977 C1985 0.930 . S
H1978 C1986 0.930 . S
H1979 C1987 0.930 . S
H1980 C1990 0.930 . S
H1981 C1991 0.930 . S
C1982 H1976 0.930 . S
C1982 C1983 1.355 . S
C1982 C1984 1.415 . S
C1983 C1982 1.355 . S
C1983 C1985 1.419 . S
C1984 C1982 1.415 . S
C1984 C1989 1.425 . S
C1984 C1991 1.409 . S
C1985 H1977 0.930 . S
C1985 C1983 1.419 . S
C1985 C1986 1.362 . S
C1986 H1978 0.930 . S
C1986 C1985 1.362 . S
C1986 C1989 1.409 . S
C1987 H1979 0.930 . S
C1987 C1988 1.355 . S
C1987 C1989 1.415 . S
C1988 C1987 1.355 . S
C1988 C1990 1.419 . S
C1989 C1984 1.425 . S
C1989 C1986 1.409 . S
C1989 C1987 1.415 . S
C1990 H1980 0.930 . S
C1990 C1988 1.419 . S
C1990 C1991 1.362 . S
C1991 H1981 0.930 . S
C1991 C1984 1.409 . S
C1991 C1990 1.362 . S
H1992 C1998 0.930 . S
H1993 C2001 0.930 . S
H1994 C2002 0.930 . S
H1995 C2003 0.930 . S
H1996 C2006 0.930 . S
H1997 C2007 0.930 . S
C1998 H1992 0.930 . S
C1998 C1999 1.355 . S
C1998 C2000 1.415 . S
C1999 C1998 1.355 . S
C1999 C2001 1.419 . S
C2000 C1998 1.415 . S
C2000 C2005 1.425 . S
C2000 C2007 1.409 . S
C2001 H1993 0.930 . S
C2001 C1999 1.419 . S
C2001 C2002 1.362 . S
C2002 H1994 0.930 . S
C2002 C2001 1.362 . S
C2002 C2005 1.409 . S
C2003 H1995 0.930 . S
C2003 C2004 1.355 . S
C2003 C2005 1.415 . S
C2004 C2003 1.355 . S
C2004 C2006 1.419 . S
C2005 C2000 1.425 . S
C2005 C2002 1.409 . S
C2005 C2003 1.415 . S
C2006 H1996 0.930 . S
C2006 C2004 1.419 . S
C2006 C2007 1.362 . S
C2007 H1997 0.930 . S
C2007 C2000 1.409 . S
C2007 C2006 1.362 . S
H2008 C2014 0.930 . S
H2009 C2017 0.930 . S
H2010 C2018 0.930 . S
H2011 C2019 0.930 . S
H2012 C2022 0.930 . S
H2013 C2023 0.930 . S
C2014 H2008 0.930 . S
C2014 C2015 1.355 . S
C2014 C2016 1.415 . S
C2015 C2014 1.355 . S
C2015 C2017 1.419 . S
C2016 C2014 1.415 . S
C2016 C2021 1.425 . S
C2016 C2023 1.409 . S
C2017 H2009 0.930 . S
C2017 C2015 1.419 . S
C2017 C2018 1.362 . S
C2018 H2010 0.930 . S
C2018 C2017 1.362 . S
C2018 C2021 1.409 . S
C2019 H2011 0.930 . S
C2019 C2020 1.355 . S
C2019 C2021 1.415 . S
C2020 C2019 1.355 . S
C2020 C2022 1.419 . S
C2021 C2016 1.425 . S
C2021 C2018 1.409 . S
C2021 C2019 1.415 . S
C2022 H2012 0.930 . S
C2022 C2020 1.419 . S
C2022 C2023 1.362 . S
C2023 H2013 0.930 . S
C2023 C2016 1.409 . S
C2023 C2022 1.362 . S
H2024 C2030 0.930 . S
H2025 C2033 0.930 . S
H2026 C2034 0.930 . S
H2027 C2035 0.930 . S
H2028 C2038 0.930 . S
H2029 C2039 0.930 . S
C2030 H2024 0.930 . S
C2030 C2031 1.355 . S
C2030 C2032 1.415 . S
C2031 C2030 1.355 . S
C2031 C2033 1.419 . S
C2032 C2030 1.415 . S
C2032 C2037 1.425 . S
C2032 C2039 1.409 . S
C2033 H2025 0.930 . S
C2033 C2031 1.419 . S
C2033 C2034 1.362 . S
C2034 H2026 0.930 . S
C2034 C2033 1.362 . S
C2034 C2037 1.409 . S
C2035 H2027 0.930 . S
C2035 C2036 1.355 . S
C2035 C2037 1.415 . S
C2036 C2035 1.355 . S
C2036 C2038 1.419 . S
C2037 C2032 1.425 . S
C2037 C2034 1.409 . S
C2037 C2035 1.415 . S
C2038 H2028 0.930 . S
C2038 C2036 1.419 . S
C2038 C2039 1.362 . S
C2039 H2029 0.930 . S
C2039 C2032 1.409 . S
C2039 C2038 1.362 . S
H2040 C2046 0.930 . S
H2041 C2049 0.930 . S
H2042 C2050 0.930 . S
H2043 C2051 0.930 . S
H2044 C2054 0.930 . S
H2045 C2055 0.930 1_655 S
C2046 H2040 0.930 . S
C2046 C2047 1.355 . S
C2046 C2048 1.409 1_655 S
C2047 C2046 1.355 . S
C2047 C2049 1.419 . S
C2048 C2046 1.409 1_455 S
C2048 C2053 1.429 . S
C2048 C2055 1.411 . S
C2049 H2041 0.930 . S
C2049 C2047 1.419 . S
C2049 C2050 1.362 1_655 S
C2050 H2042 0.930 . S
C2050 C2049 1.362 1_455 S
C2050 C2053 1.409 . S
C2051 H2043 0.930 . S
C2051 C2052 1.355 . S
C2051 C2053 1.415 . S
C2052 C2051 1.355 . S
C2052 C2054 1.419 . S
C2053 C2048 1.429 . S
C2053 C2050 1.409 . S
C2053 C2051 1.415 . S
C2054 H2044 0.930 . S
C2054 C2052 1.419 . S
C2054 C2055 1.362 . S
C2055 H2045 0.930 1_455 S
C2055 C2048 1.411 . S
C2055 C2054 1.362 . S
H2056 C2062 0.930 . S
H2057 C2065 0.930 . S
H2058 C2066 0.930 . S
H2059 C2067 0.930 . S
H2060 C2070 0.930 . S
H2061 C2071 0.930 . S
C2062 H2056 0.930 . S
C2062 C2063 1.355 . S
C2062 C2064 1.415 . S
C2063 C2062 1.355 . S
C2063 C2065 1.419 . S
C2064 C2062 1.415 . S
C2064 C2069 1.425 . S
C2064 C2071 1.409 . S
C2065 H2057 0.930 . S
C2065 C2063 1.419 . S
C2065 C2066 1.362 . S
C2066 H2058 0.930 . S
C2066 C2065 1.362 . S
C2066 C2069 1.409 . S
C2067 H2059 0.930 . S
C2067 C2068 1.355 . S
C2067 C2069 1.415 . S
C2068 C2067 1.355 . S
C2068 C2070 1.419 . S
C2069 C2064 1.425 . S
C2069 C2066 1.409 . S
C2069 C2067 1.415 . S
C2070 H2060 0.930 . S
C2070 C2068 1.419 . S
C2070 C2071 1.362 . S
C2071 H2061 0.930 . S
C2071 C2064 1.409 . S
C2071 C2070 1.362 . S
H2072 C2078 0.930 . S
H2073 C2081 0.930 . S
H2074 C2082 0.930 . S
H2075 C2083 0.930 . S
H2076 C2086 0.930 . S
H2077 C2087 0.930 . S
C2078 H2072 0.930 . S
C2078 C2079 1.355 . S
C2078 C2080 1.415 1_565 S
C2079 C2078 1.355 . S
C2079 C2081 1.419 . S
C2080 C2078 1.415 1_545 S
C2080 C2085 1.425 . S
C2080 C2087 1.409 . S
C2081 H2073 0.930 . S
C2081 C2079 1.419 . S
C2081 C2082 1.362 1_565 S
C2082 H2074 0.930 . S
C2082 C2081 1.362 1_545 S
C2082 C2085 1.409 . S
C2083 H2075 0.930 . S
C2083 C2084 1.355 . S
C2083 C2085 1.415 . S
C2084 C2083 1.355 . S
C2084 C2086 1.419 . S
C2085 C2080 1.425 . S
C2085 C2082 1.409 . S
C2085 C2083 1.415 . S
C2086 H2076 0.930 . S
C2086 C2084 1.419 . S
C2086 C2087 1.362 . S
C2087 H2077 0.930 . S
C2087 C2080 1.409 . S
C2087 C2086 1.362 . S
H2088 C2094 0.930 . S
H2089 C2097 0.930 . S
H2090 C2098 0.930 . S
H2091 C2099 0.930 . S
H2092 C2102 0.930 . S
H2093 C2103 0.930 . S
C2094 H2088 0.930 . S
C2094 C2095 1.355 . S
C2094 C2096 1.415 . S
C2095 C2094 1.355 . S
C2095 C2097 1.419 . S
C2096 C2094 1.415 . S
C2096 C2101 1.425 . S
C2096 C2103 1.409 . S
C2097 H2089 0.930 . S
C2097 C2095 1.419 . S
C2097 C2098 1.362 . S
C2098 H2090 0.930 . S
C2098 C2097 1.362 . S
C2098 C2101 1.409 . S
C2099 H2091 0.930 . S
C2099 C2100 1.355 . S
C2099 C2101 1.415 . S
C2100 C2099 1.355 . S
C2100 C2102 1.419 . S
C2101 C2096 1.425 . S
C2101 C2098 1.409 . S
C2101 C2099 1.415 . S
C2102 H2092 0.930 . S
C2102 C2100 1.419 . S
C2102 C2103 1.362 . S
C2103 H2093 0.930 . S
C2103 C2096 1.409 . S
C2103 C2102 1.362 . S
H2104 C2110 0.930 . S
H2105 C2113 0.930 . S
H2106 C2114 0.930 . S
H2107 C2115 0.930 . S
H2108 C2118 0.930 . S
H2109 C2119 0.930 . S
C2110 H2104 0.930 . S
C2110 C2111 1.355 . S
C2110 C2112 1.415 . S
C2111 C2110 1.355 . S
C2111 C2113 1.419 . S
C2112 C2110 1.415 . S
C2112 C2117 1.425 . S
C2112 C2119 1.409 . S
C2113 H2105 0.930 . S
C2113 C2111 1.419 . S
C2113 C2114 1.362 . S
C2114 H2106 0.930 . S
C2114 C2113 1.362 . S
C2114 C2117 1.409 . S
C2115 H2107 0.930 . S
C2115 C2116 1.355 . S
C2115 C2117 1.415 . S
C2116 C2115 1.355 . S
C2116 C2118 1.419 . S
C2117 C2112 1.425 . S
C2117 C2114 1.409 . S
C2117 C2115 1.415 . S
C2118 H2108 0.930 . S
C2118 C2116 1.419 . S
C2118 C2119 1.362 . S
C2119 H2109 0.930 . S
C2119 C2112 1.409 . S
C2119 C2118 1.362 . S
H2120 C2126 0.930 . S
H2121 C2129 0.930 . S
H2122 C2130 0.930 . S
H2123 C2131 0.930 . S
H2124 C2134 0.930 . S
H2125 C2135 0.930 . S
C2126 H2120 0.930 . S
C2126 C2127 1.355 . S
C2126 C2128 1.415 . S
C2127 C2126 1.355 . S
C2127 C2129 1.419 . S
C2128 C2126 1.415 . S
C2128 C2133 1.425 . S
C2128 C2135 1.409 . S
C2129 H2121 0.930 . S
C2129 C2127 1.419 . S
C2129 C2130 1.362 . S
C2130 H2122 0.930 . S
C2130 C2129 1.362 . S
C2130 C2133 1.409 . S
C2131 H2123 0.930 . S
C2131 C2132 1.355 . S
C2131 C2133 1.415 . S
C2132 C2131 1.355 . S
C2132 C2134 1.419 . S
C2133 C2128 1.425 . S
C2133 C2130 1.409 . S
C2133 C2131 1.415 . S
C2134 H2124 0.930 . S
C2134 C2132 1.419 . S
C2134 C2135 1.362 . S
C2135 H2125 0.930 . S
C2135 C2128 1.409 . S
C2135 C2134 1.362 . S
H2136 C2142 0.930 . S
H2137 C2145 0.930 . S
H2138 C2146 0.930 . S
H2139 C2147 0.930 . S
H2140 C2150 0.930 . S
H2141 C2151 0.930 . S
C2142 H2136 0.930 . S
C2142 C2143 1.355 . S
C2142 C2144 1.415 . S
C2143 C2142 1.355 . S
C2143 C2145 1.419 . S
C2144 C2142 1.415 . S
C2144 C2149 1.425 . S
C2144 C2151 1.409 . S
C2145 H2137 0.930 . S
C2145 C2143 1.419 . S
C2145 C2146 1.362 . S
C2146 H2138 0.930 . S
C2146 C2145 1.362 . S
C2146 C2149 1.409 . S
C2147 H2139 0.930 . S
C2147 C2148 1.355 . S
C2147 C2149 1.415 . S
C2148 C2147 1.355 . S
C2148 C2150 1.419 . S
C2149 C2144 1.425 . S
C2149 C2146 1.409 . S
C2149 C2147 1.415 . S
C2150 H2140 0.930 . S
C2150 C2148 1.419 . S
C2150 C2151 1.362 . S
C2151 H2141 0.930 . S
C2151 C2144 1.409 . S
C2151 C2150 1.362 . S
H2152 C2158 0.930 . S
H2153 C2161 0.930 . S
H2154 C2162 0.930 . S
H2155 C2163 0.930 . S
H2156 C2166 0.930 . S
H2157 C2167 0.930 . S
C2158 H2152 0.930 . S
C2158 C2159 1.355 . S
C2158 C2160 1.415 . S
C2159 C2158 1.355 . S
C2159 C2161 1.419 . S
C2160 C2158 1.415 . S
C2160 C2165 1.425 . S
C2160 C2167 1.409 . S
C2161 H2153 0.930 . S
C2161 C2159 1.419 . S
C2161 C2162 1.362 . S
C2162 H2154 0.930 . S
C2162 C2161 1.362 . S
C2162 C2165 1.409 . S
C2163 H2155 0.930 . S
C2163 C2164 1.355 . S
C2163 C2165 1.415 . S
C2164 C2163 1.355 . S
C2164 C2166 1.419 . S
C2165 C2160 1.425 . S
C2165 C2162 1.409 . S
C2165 C2163 1.415 . S
C2166 H2156 0.930 . S
C2166 C2164 1.419 . S
C2166 C2167 1.362 . S
C2167 H2157 0.930 . S
C2167 C2160 1.409 . S
C2167 C2166 1.362 . S
H2168 C2174 0.930 . S
H2169 C2177 0.930 . S
H2170 C2178 0.930 . S
H2171 C2179 0.930 . S
H2172 C2182 0.930 . S
H2173 C2183 0.930 . S
C2174 H2168 0.930 . S
C2174 C2175 1.355 . S
C2174 C2176 1.415 . S
C2175 C2174 1.355 . S
C2175 C2177 1.419 . S
C2176 C2174 1.415 . S
C2176 C2181 1.425 . S
C2176 C2183 1.409 . S
C2177 H2169 0.930 . S
C2177 C2175 1.419 . S
C2177 C2178 1.362 . S
C2178 H2170 0.930 . S
C2178 C2177 1.362 . S
C2178 C2181 1.409 . S
C2179 H2171 0.930 . S
C2179 C2180 1.355 . S
C2179 C2181 1.415 . S
C2180 C2179 1.355 . S
C2180 C2182 1.419 . S
C2181 C2176 1.425 . S
C2181 C2178 1.409 . S
C2181 C2179 1.415 . S
C2182 H2172 0.930 . S
C2182 C2180 1.419 . S
C2182 C2183 1.362 . S
C2183 H2173 0.930 . S
C2183 C2176 1.409 . S
C2183 C2182 1.362 . S
H2184 C2190 0.930 . S
H2185 C2193 0.930 . S
H2186 C2194 0.930 . S
H2187 C2195 0.930 . S
H2188 C2198 0.930 . S
H2189 C2199 0.930 . S
C2190 H2184 0.930 . S
C2190 C2191 1.355 . S
C2190 C2192 1.415 . S
C2191 C2190 1.355 . S
C2191 C2193 1.419 . S
C2192 C2190 1.415 . S
C2192 C2197 1.425 . S
C2192 C2199 1.409 . S
C2193 H2185 0.930 . S
C2193 C2191 1.419 . S
C2193 C2194 1.362 . S
C2194 H2186 0.930 . S
C2194 C2193 1.362 . S
C2194 C2197 1.409 . S
C2195 H2187 0.930 . S
C2195 C2196 1.355 . S
C2195 C2197 1.415 . S
C2196 C2195 1.355 . S
C2196 C2198 1.419 . S
C2197 C2192 1.425 . S
C2197 C2194 1.409 . S
C2197 C2195 1.415 . S
C2198 H2188 0.930 . S
C2198 C2196 1.419 . S
C2198 C2199 1.362 . S
C2199 H2189 0.930 . S
C2199 C2192 1.409 . S
C2199 C2198 1.362 . S
H2200 C2206 0.930 . S
H2201 C2209 0.930 . S
H2202 C2210 0.930 . S
H2203 C2211 0.930 . S
H2204 C2214 0.930 . S
H2205 C2215 0.930 . S
C2206 H2200 0.930 . S
C2206 C2207 1.355 . S
C2206 C2208 1.415 . S
C2207 C2206 1.355 . S
C2207 C2209 1.419 . S
C2208 C2206 1.415 . S
C2208 C2213 1.425 . S
C2208 C2215 1.409 . S
C2209 H2201 0.930 . S
C2209 C2207 1.419 . S
C2209 C2210 1.362 . S
C2210 H2202 0.930 . S
C2210 C2209 1.362 . S
C2210 C2213 1.409 . S
C2211 H2203 0.930 . S
C2211 C2212 1.355 . S
C2211 C2213 1.415 . S
C2212 C2211 1.355 . S
C2212 C2214 1.419 . S
C2213 C2208 1.425 . S
C2213 C2210 1.409 . S
C2213 C2211 1.415 . S
C2214 H2204 0.930 . S
C2214 C2212 1.419 . S
C2214 C2215 1.362 . S
C2215 H2205 0.930 . S
C2215 C2208 1.409 . S
C2215 C2214 1.362 . S
H2216 C2222 0.930 . S
H2217 C2225 0.930 . S
H2218 C2226 0.930 . S
H2219 C2227 0.930 . S
H2220 C2230 0.930 . S
H2221 C2231 0.930 . S
C2222 H2216 0.930 . S
C2222 C2223 1.355 . S
C2222 C2224 1.415 . S
C2223 C2222 1.355 . S
C2223 C2225 1.419 . S
C2224 C2222 1.415 . S
C2224 C2229 1.425 . S
C2224 C2231 1.409 . S
C2225 H2217 0.930 . S
C2225 C2223 1.419 . S
C2225 C2226 1.362 . S
C2226 H2218 0.930 . S
C2226 C2225 1.362 . S
C2226 C2229 1.409 . S
C2227 H2219 0.930 . S
C2227 C2228 1.355 . S
C2227 C2229 1.415 . S
C2228 C2227 1.355 . S
C2228 C2230 1.419 . S
C2229 C2224 1.425 . S
C2229 C2226 1.409 . S
C2229 C2227 1.415 . S
C2230 H2220 0.930 . S
C2230 C2228 1.419 . S
C2230 C2231 1.362 . S
C2231 H2221 0.930 . S
C2231 C2224 1.409 . S
C2231 C2230 1.362 . S
H2232 C2238 0.930 . S
H2233 C2241 0.930 . S
H2234 C2242 0.930 . S
H2235 C2243 0.930 . S
H2236 C2246 0.930 . S
H2237 C2247 0.930 . S
C2238 H2232 0.930 . S
C2238 C2239 1.355 . S
C2238 C2240 1.415 . S
C2239 C2238 1.355 . S
C2239 C2241 1.419 . S
C2240 C2238 1.415 . S
C2240 C2245 1.425 . S
C2240 C2247 1.409 . S
C2241 H2233 0.930 . S
C2241 C2239 1.419 . S
C2241 C2242 1.362 . S
C2242 H2234 0.930 . S
C2242 C2241 1.362 . S
C2242 C2245 1.409 . S
C2243 H2235 0.930 . S
C2243 C2244 1.355 . S
C2243 C2245 1.415 . S
C2244 C2243 1.355 . S
C2244 C2246 1.419 . S
C2245 C2240 1.425 . S
C2245 C2242 1.409 . S
C2245 C2243 1.415 . S
C2246 H2236 0.930 . S
C2246 C2244 1.419 . S
C2246 C2247 1.362 . S
C2247 H2237 0.930 . S
C2247 C2240 1.409 . S
C2247 C2246 1.362 . S
H2248 C2254 0.930 . S
H2249 C2257 0.930 . S
H2250 C2258 0.930 . S
H2251 C2259 0.930 . S
H2252 C2262 0.930 . S
H2253 C2263 0.930 . S
C2254 H2248 0.930 . S
C2254 C2255 1.355 . S
C2254 C2256 1.415 1_565 S
C2255 C2254 1.355 . S
C2255 C2257 1.419 1_565 S
C2256 C2254 1.415 1_545 S
C2256 C2261 1.425 . S
C2256 C2263 1.409 . S
C2257 H2249 0.930 . S
C2257 C2255 1.419 1_545 S
C2257 C2258 1.362 . S
C2258 H2250 0.930 . S
C2258 C2257 1.362 . S
C2258 C2261 1.409 . S
C2259 H2251 0.930 . S
C2259 C2260 1.355 . S
C2259 C2261 1.415 . S
C2260 C2259 1.355 . S
C2260 C2262 1.419 . S
C2261 C2256 1.425 . S
C2261 C2258 1.409 . S
C2261 C2259 1.415 . S
C2262 H2252 0.930 . S
C2262 C2260 1.419 . S
C2262 C2263 1.362 . S
C2263 H2253 0.930 . S
C2263 C2256 1.409 . S
C2263 C2262 1.362 . S
H2264 C2270 0.930 . S
H2265 C2273 0.930 . S
H2266 C2274 0.930 . S
H2267 C2275 0.930 . S
H2268 C2278 0.930 . S
H2269 C2279 0.930 . S
C2270 H2264 0.930 . S
C2270 C2271 1.355 . S
C2270 C2272 1.415 . S
C2271 C2270 1.355 . S
C2271 C2273 1.419 . S
C2272 C2270 1.415 . S
C2272 C2277 1.425 . S
C2272 C2279 1.409 1_655 S
C2273 H2265 0.930 . S
C2273 C2271 1.419 . S
C2273 C2274 1.362 . S
C2274 H2266 0.930 . S
C2274 C2273 1.362 . S
C2274 C2277 1.409 . S
C2275 H2267 0.930 . S
C2275 C2276 1.355 . S
C2275 C2277 1.415 1_455 S
C2276 C2275 1.355 . S
C2276 C2278 1.419 . S
C2277 C2272 1.425 . S
C2277 C2274 1.409 . S
C2277 C2275 1.415 1_655 S
C2278 H2268 0.930 . S
C2278 C2276 1.419 . S
C2278 C2279 1.362 . S
C2279 H2269 0.930 . S
C2279 C2272 1.409 1_455 S
C2279 C2278 1.362 . S
H2280 C2286 0.930 . S
H2281 C2289 0.930 . S
H2282 C2290 0.930 . S
H2283 C2291 0.930 . S
H2284 C2294 0.930 . S
H2285 C2295 0.930 . S
C2286 H2280 0.930 . S
C2286 C2287 1.355 . S
C2286 C2288 1.415 . S
C2287 C2286 1.355 . S
C2287 C2289 1.419 . S
C2288 C2286 1.415 . S
C2288 C2293 1.425 . S
C2288 C2295 1.409 . S
C2289 H2281 0.930 . S
C2289 C2287 1.419 . S
C2289 C2290 1.362 . S
C2290 H2282 0.930 . S
C2290 C2289 1.362 . S
C2290 C2293 1.409 . S
C2291 H2283 0.930 . S
C2291 C2292 1.355 . S
C2291 C2293 1.415 . S
C2292 C2291 1.355 . S
C2292 C2294 1.419 . S
C2293 C2288 1.425 . S
C2293 C2290 1.409 . S
C2293 C2291 1.415 . S
C2294 H2284 0.930 . S
C2294 C2292 1.419 . S
C2294 C2295 1.362 . S
C2295 H2285 0.930 . S
C2295 C2288 1.409 . S
C2295 C2294 1.362 . S
H2296 C2302 0.930 . S
H2297 C2305 0.930 . S
H2298 C2306 0.930 . S
H2299 C2307 0.930 . S
H2300 C2310 0.930 . S
H2301 C2311 0.930 . S
C2302 H2296 0.930 . S
C2302 C2303 1.355 . S
C2302 C2304 1.415 . S
C2303 C2302 1.355 . S
C2303 C2305 1.419 . S
C2304 C2302 1.415 . S
C2304 C2309 1.425 1_545 S
C2304 C2311 1.409 . S
C2305 H2297 0.930 . S
C2305 C2303 1.419 . S
C2305 C2306 1.362 1_545 S
C2306 H2298 0.930 . S
C2306 C2305 1.362 1_565 S
C2306 C2309 1.409 . S
C2307 H2299 0.930 . S
C2307 C2308 1.355 . S
C2307 C2309 1.415 . S
C2308 C2307 1.355 . S
C2308 C2310 1.419 . S
C2309 C2304 1.425 1_565 S
C2309 C2306 1.409 . S
C2309 C2307 1.415 . S
C2310 H2300 0.930 . S
C2310 C2308 1.419 . S
C2310 C2311 1.362 1_565 S
C2311 H2301 0.930 . S
C2311 C2304 1.409 . S
C2311 C2310 1.362 1_545 S
H2312 C2318 0.930 . S
H2313 C2321 0.930 . S
H2314 C2322 0.930 . S
H2315 C2323 0.930 . S
H2316 C2326 0.930 . S
H2317 C2327 0.930 . S
C2318 H2312 0.930 . S
C2318 C2319 1.355 . S
C2318 C2320 1.415 . S
C2319 C2318 1.355 . S
C2319 C2321 1.419 . S
C2320 C2318 1.415 . S
C2320 C2325 1.425 . S
C2320 C2327 1.409 1_455 S
C2321 H2313 0.930 . S
C2321 C2319 1.419 . S
C2321 C2322 1.362 . S
C2322 H2314 0.930 . S
C2322 C2321 1.362 . S
C2322 C2325 1.409 . S
C2323 H2315 0.930 . S
C2323 C2324 1.355 1_455 S
C2323 C2325 1.415 . S
C2324 C2323 1.355 1_655 S
C2324 C2326 1.419 . S
C2325 C2320 1.425 . S
C2325 C2322 1.409 . S
C2325 C2323 1.415 . S
C2326 H2316 0.930 . S
C2326 C2324 1.419 . S
C2326 C2327 1.362 . S
C2327 H2317 0.930 . S
C2327 C2320 1.409 1_655 S
C2327 C2326 1.362 . S
H2328 C2334 0.930 . S
H2329 C2337 0.930 . S
H2330 C2338 0.930 . S
H2331 C2339 0.930 . S
H2332 C2342 0.930 . S
H2333 C2343 0.930 . S
C2334 H2328 0.930 . S
C2334 C2335 1.355 . S
C2334 C2336 1.415 . S
C2335 C2334 1.355 . S
C2335 C2337 1.419 . S
C2336 C2334 1.415 . S
C2336 C2341 1.425 . S
C2336 C2343 1.409 . S
C2337 H2329 0.930 . S
C2337 C2335 1.419 . S
C2337 C2338 1.362 . S
C2338 H2330 0.930 . S
C2338 C2337 1.362 . S
C2338 C2341 1.409 . S
C2339 H2331 0.930 . S
C2339 C2340 1.355 . S
C2339 C2341 1.415 . S
C2340 C2339 1.355 . S
C2340 C2342 1.419 . S
C2341 C2336 1.425 . S
C2341 C2338 1.409 . S
C2341 C2339 1.415 . S
C2342 H2332 0.930 . S
C2342 C2340 1.419 . S
C2342 C2343 1.362 . S
C2343 H2333 0.930 . S
C2343 C2336 1.409 . S
C2343 C2342 1.362 . S
H2344 C2350 0.930 . S
H2345 C2353 0.930 . S
H2346 C2354 0.930 . S
H2347 C2355 0.930 . S
H2348 C2358 0.930 . S
H2349 C2359 0.930 . S
C2350 H2344 0.930 . S
C2350 C2351 1.355 . S
C2350 C2352 1.415 . S
C2351 C2350 1.355 . S
C2351 C2353 1.419 . S
C2352 C2350 1.415 . S
C2352 C2357 1.425 . S
C2352 C2359 1.409 . S
C2353 H2345 0.930 . S
C2353 C2351 1.419 . S
C2353 C2354 1.362 . S
C2354 H2346 0.930 . S
C2354 C2353 1.362 . S
C2354 C2357 1.409 . S
C2355 H2347 0.930 . S
C2355 C2356 1.355 . S
C2355 C2357 1.415 . S
C2356 C2355 1.355 . S
C2356 C2358 1.419 . S
C2357 C2352 1.425 . S
C2357 C2354 1.409 . S
C2357 C2355 1.415 . S
C2358 H2348 0.930 . S
C2358 C2356 1.419 . S
C2358 C2359 1.362 . S
C2359 H2349 0.930 . S
C2359 C2352 1.409 . S
C2359 C2358 1.362 . S
H2360 C2366 0.930 . S
H2361 C2369 0.930 . S
H2362 C2370 0.930 . S
H2363 C2371 0.930 . S
H2364 C2374 0.930 . S
H2365 C2375 0.930 . S
C2366 H2360 0.930 . S
C2366 C2367 1.355 . S
C2366 C2368 1.415 . S
C2367 C2366 1.355 . S
C2367 C2369 1.419 . S
C2368 C2366 1.415 . S
C2368 C2373 1.425 . S
C2368 C2375 1.409 . S
C2369 H2361 0.930 . S
C2369 C2367 1.419 . S
C2369 C2370 1.362 . S
C2370 H2362 0.930 . S
C2370 C2369 1.362 . S
C2370 C2373 1.409 . S
C2371 H2363 0.930 . S
C2371 C2372 1.355 . S
C2371 C2373 1.415 . S
C2372 C2371 1.355 . S
C2372 C2374 1.419 . S
C2373 C2368 1.425 . S
C2373 C2370 1.409 . S
C2373 C2371 1.415 . S
C2374 H2364 0.930 . S
C2374 C2372 1.419 . S
C2374 C2375 1.362 . S
C2375 H2365 0.930 . S
C2375 C2368 1.409 . S
C2375 C2374 1.362 . S
C1519 C55 1.035 . S
C1524 C226 0.941 . S
C1535 C58 0.933 . S
C1540 C139 1.026 . S
C1551 C142 0.943 . S
C1556 C223 1.028 . S
C1567 C307 1.047 . S
C1572 C394 0.995 . S
C1583 C478 0.838 . S
C1588 C391 1.008 . S
C1599 C475 1.009 . S
C1604 C310 0.855 . S
C1615 C730 0.952 . S
C1620 C559 1.031 . S
C1631 C562 0.843 . S
C1636 C643 1.008 . S
C1647 C727 1.008 . S
C1652 C646 0.838 . S
C1663 C898 0.916 . S
C1668 C811 1.022 . S
C1679 C895 1.021 . S
C1684 C982 0.913 . S
C1695 C814 1.020 . S
C1700 C979 1.052 . S
C1711 C1063 1.024 . S
C1716 C1234 0.897 . S
C1727 C1066 0.849 . S
C1732 C1147 1.012 . S
C1743 C1150 0.981 . S
C1748 C1231 1.044 . S
C1759 C1402 0.889 . S
C1764 C1315 1.022 . S
C1775 C1486 0.968 . S
C1780 C1399 1.035 . S
C1791 C1318 0.881 . S
C1796 C1483 1.014 . S
C1807 C56 1.838 . S
C1812 C476 1.877 . S
C1823 C308 1.879 . S
C1828 C140 1.839 . S
C1839 C392 1.878 . S
C1844 C224 1.899 . S
C1855 C560 1.832 . S
C1860 C980 1.869 . S
C1871 C644 1.824 . S
C1876 C812 1.833 . S
C1887 C896 1.835 . S
C1892 C728 1.873 . S
C1903 C1064 1.850 . S
C1908 C1484 1.888 . S
C1919 C1316 1.872 . S
C1924 C1148 1.834 . S
C1935 C1400 1.823 . S
C1940 C1232 1.851 . S
C1951 C908 2.092 . S
C1956 C68 2.098 . S
C1967 C152 2.125 . S
C1972 C992 2.129 . S
C1983 C824 2.091 . S
C1988 C236 2.115 . S
C1999 C320 2.100 . S
C2004 C1244 2.091 . S
C2015 C404 2.096 . S
C2020 C1076 2.123 . S
C2031 C1160 2.115 . S
C2036 C488 2.091 . S
C2047 C1412 2.094 . S
C2052 C572 2.096 . S
C2063 C656 2.117 . S
C2068 C1496 2.132 . S
C2079 C740 2.126 . S
C2084 C1328 2.099 . S
C2095 C238 1.493 . S
C2100 C67 1.662 . S
C2111 C70 1.545 . S
C2116 C151 1.689 . S
C2127 C235 1.690 . S
C2132 C154 1.539 . S
C2143 C406 1.506 . S
C2148 C319 1.666 . S
C2159 C490 1.547 . S
C2164 C403 1.687 . S
C2175 C487 1.663 . S
C2180 C322 1.435 . S
C2191 C742 1.480 . S
C2196 C571 1.682 . S
C2207 C655 1.675 . S
C2212 C574 1.456 . S
C2223 C658 1.505 . S
C2228 C739 1.665 . S
C2239 C823 1.664 . S
C2244 C910 1.501 . S
C2255 C907 1.690 . S
C2260 C994 1.530 . S
C2271 C826 1.438 . S
C2276 C991 1.657 . S
C2287 C1075 1.670 . S
C2292 C1246 1.519 . S
C2303 C1159 1.689 . S
C2308 C1078 1.512 . S
C2319 C1162 1.509 . S
C2324 C1243 1.667 . S
C2335 C1327 1.657 . S
C2340 C1414 1.456 . S
C2351 C1411 1.686 . S
C2356 C1498 1.497 . S
C2367 C1330 1.544 . S
C2372 C1495 1.681 . S
