# Generated by pormake.
# Topology bcg, (8)-cn, num edge types: 1
# Building blocks:
#     Node 0, Type 0, BuildingBlock: EYACOX_clean_sbu_0, # of connection points: 8
#     Node 1, Type 0, BuildingBlock: EYACOX_clean_sbu_0, # of connection points: 8
#     Node 2, Type 0, BuildingBlock: EYACOX_clean_sbu_0, # of connection points: 8
#     Node 3, Type 0, BuildingBlock: EYACOX_clean_sbu_0, # of connection points: 8
#     Edge 4, Type (0, 0), BuildingBlock: KIFKEQ_clean_linker_1, # of connection points: 2
#     Edge 5, Type (0, 0), BuildingBlock: KIFKEQ_clean_linker_1, # of connection points: 2
#     Edge 6, Type (0, 0), BuildingBlock: KIFKEQ_clean_linker_1, # of connection points: 2
#     Edge 7, Type (0, 0), BuildingBlock: KIFKEQ_clean_linker_1, # of connection points: 2
#     Edge 8, Type (0, 0), BuildingBlock: KIFKEQ_clean_linker_1, # of connection points: 2
#     Edge 9, Type (0, 0), BuildingBlock: KIFKEQ_clean_linker_1, # of connection points: 2
#     Edge 10, Type (0, 0), BuildingBlock: KIFKEQ_clean_linker_1, # of connection points: 2
#     Edge 11, Type (0, 0), BuildingBlock: KIFKEQ_clean_linker_1, # of connection points: 2
#     Edge 12, Type (0, 0), BuildingBlock: KIFKEQ_clean_linker_1, # of connection points: 2
#     Edge 13, Type (0, 0), BuildingBlock: KIFKEQ_clean_linker_1, # of connection points: 2
#     Edge 14, Type (0, 0), BuildingBlock: KIFKEQ_clean_linker_1, # of connection points: 2
#     Edge 15, Type (0, 0), BuildingBlock: KIFKEQ_clean_linker_1, # of connection points: 2
#     Edge 16, Type (0, 0), BuildingBlock: KIFKEQ_clean_linker_1, # of connection points: 2
#     Edge 17, Type (0, 0), BuildingBlock: KIFKEQ_clean_linker_1, # of connection points: 2
#     Edge 18, Type (0, 0), BuildingBlock: KIFKEQ_clean_linker_1, # of connection points: 2
#     Edge 19, Type (0, 0), BuildingBlock: KIFKEQ_clean_linker_1, # of connection points: 2
# Relax obj value: 0.108
# Max RMSD: 0.199
# Mean RMSD: 0.199
data_MOF--net-bcg--node1-EYACOX_clean_sbu_0--edge1-KIFKEQ_clean_linker_1
_symmetry_space_group_name_H-M    P1
_symmetry_Int_Tables_number       1
_symmetry_cell_setting            triclinic
loop_
_symmetry_equiv_pos_as_xyz
'x, y, z'
_cell_length_a     22.332582
_cell_length_b     19.890122
_cell_length_c     33.06143
_cell_angle_alpha  89.58187
_cell_angle_beta   119.9987
_cell_angle_gamma 90.123465
loop_
_atom_site_label
_atom_site_type_symbol
_atom_site_fract_x
_atom_site_fract_y
_atom_site_fract_z
_atom_type_partial_charge
Eu0 Eu 0.35361 0.16866 0.97309 0.0
Eu1 Eu 0.28731 0.26639 0.02706 0.0
O2 O 0.35328 0.13465 0.9097 0.0
O3 O 0.43074 0.09718 0.97712 0.0
O4 O 0.25164 0.1609 0.02289 0.0
O5 O 0.24922 0.12509 0.9561 0.0
O6 O 0.38792 0.12545 0.04458 0.0
O7 O 0.38938 0.22429 0.08084 0.0
C8 C 0.46449 0.10821 0.91942 0.0
C9 C 0.56909 0.12119 0.89641 0.0
C10 C 0.57148 0.16073 0.93171 0.0
C11 C 0.51954 0.15413 0.94374 0.0
C12 C 0.51706 0.07393 0.87276 0.0
C13 C 0.46352 0.0682 0.88362 0.0
C14 C 0.40994 0.09943 0.93259 0.0
C15 C 0.22554 0.12356 0.98554 0.0
O16 O 0.27334 0.28412 0.08724 0.0
O17 O 0.22155 0.3486 0.02633 0.0
C18 C 0.40732 0.16111 0.08237 0.0
O19 O 0.36204 0.3327 0.01843 0.0
O20 O 0.42891 0.25252 0.00864 0.0
O21 O 0.21404 0.26457 0.94975 0.0
O22 O 0.2963 0.25784 0.92804 0.0
C23 C 0.16734 0.3343 0.07296 0.0
C24 C 0.1179 0.35844 0.12283 0.0
C25 C 0.17563 0.3536 0.11663 0.0
C26 C 0.05252 0.34394 0.08573 0.0
C27 C 0.04286 0.32297 0.04271 0.0
C28 C 0.10038 0.3176 0.03609 0.0
C29 C 0.22936 0.33316 0.06717 0.0
C30 C 0.41729 0.31465 0.01638 0.0
C31 C 0.23395 0.27461 0.919 0.0
H32 H 0.60962 0.12693 0.88756 0.0
H33 H 0.52213 0.18401 0.97181 0.0
H34 H 0.42244 0.03207 0.86519 0.0
H35 H 0.22662 0.36493 0.14555 0.0
H36 H 1.00834 0.34646 0.09108 0.0
H37 H 0.0931 0.30097 0.00279 0.0
Eu38 Eu 0.80548 0.75529 0.96423 0.0
Eu39 Eu 0.71065 0.84981 -0.00231 0.0
O40 O 0.8219 0.69271 0.91582 0.0
O41 O 0.9092 0.72616 0.98035 0.0
O42 O 0.66152 0.74761 0.97771 0.0
O43 O 0.75138 0.67984 0.98581 0.0
O44 O 0.86814 0.78027 0.04085 0.0
O45 O 0.77972 0.78027 0.05644 0.0
C46 C 0.92642 0.71774 0.91503 0.0
C47 C 1.0019 0.75258 0.87095 0.0
C48 C 1.0033 0.7955 0.90473 0.0
C49 C 0.96482 0.77825 0.9264 0.0
C50 C 0.96513 0.69223 0.85926 0.0
C51 C 0.92758 0.67434 0.88161 0.0
C52 C 0.88908 0.6978 0.94013 0.0
C53 C 0.69049 0.68817 0.98247 0.0
O54 O 0.70414 0.9004 0.05429 0.0
O55 O 0.61684 0.90322 0.98403 0.0
C56 C 0.84479 0.76961 0.06967 0.0
O57 O 0.79547 0.91512 -0.00094 0.0
O58 O 0.79976 0.8607 0.93998 0.0
O59 O 0.65823 0.86193 0.91941 0.0
O60 O 0.70044 0.76753 0.90115 0.0
C61 C 0.59019 0.90815 0.04562 0.0
C62 C 0.56387 0.88083 0.10765 0.0
C63 C 0.61229 0.88661 0.09219 0.0
C64 C 0.49484 0.8962 0.077 0.0
C65 C 0.47228 0.92075 0.03202 0.0
C66 C 0.5198 0.92573 0.01604 0.0
C67 C 0.63942 0.91759 0.02775 0.0
C68 C 0.8118 0.91374 0.96588 0.0
C69 C 0.65713 0.81838 0.88926 0.0
H70 H 0.03349 0.76407 0.85534 0.0
H71 H 0.96632 0.81118 0.95287 0.0
H72 H 0.8999 0.62704 0.87329 0.0
H73 H 0.66617 0.87508 0.11611 0.0
H74 H 0.45793 0.88963 0.08901 0.0
H75 H 0.5023 0.94459 0.98102 0.0
Eu76 Eu 0.21013 0.5964 0.50509 0.0
Eu77 Eu 0.28694 0.69625 0.45809 0.0
O78 O 0.20936 0.56157 0.56783 0.0
O79 O 0.13215 0.52465 0.50025 0.0
O80 O 0.36043 0.61728 0.50448 0.0
O81 O 0.28532 0.53182 0.49598 0.0
O82 O 0.13894 0.60787 0.42752 0.0
O83 O 0.22717 0.60993 0.41245 0.0
C84 C 0.10092 0.52951 0.56034 0.0
C85 C 1.00341 0.52504 0.59029 0.0
C86 C 0.98074 0.5257 0.5426 0.0
C87 C 1.02933 0.52787 0.52743 0.0
C88 C 0.07331 0.52904 0.62358 0.0
C89 C 0.12247 0.53144 0.6087 0.0
C90 C 0.15333 0.52596 0.54494 0.0
C91 C 0.34703 0.55347 0.50629 0.0
O92 O 0.28772 0.73098 0.39497 0.0
O93 O 0.37252 0.7561 0.46318 0.0
C94 C 0.1609 0.60563 0.39745 0.0
O95 O 0.1913 0.75249 0.4444 0.0
O96 O 0.16508 0.6988 0.49654 0.0
O97 O 0.30974 0.74489 0.52549 0.0
O98 O 0.30465 0.64754 0.56194 0.0
C99 C 0.39999 0.73976 0.40291 0.0
C100 C 0.44681 0.7578 0.35038 0.0
C101 C 0.39702 0.77242 0.36355 0.0
C102 C 0.49814 0.71055 0.37605 0.0
C103 C 0.50311 0.67941 0.4155 0.0
C104 C 0.45407 0.69352 0.42901 0.0
C105 C 0.34949 0.75702 0.41827 0.0
C106 C 0.15731 0.7479 0.46744 0.0
C107 C 0.32401 0.71043 0.56333 0.0
H108 H 0.96554 0.52592 0.60177 0.0
H109 H 1.01127 0.52809 0.4903 0.0
H110 H 0.17692 0.53451 0.63454 0.0
H111 H 0.35731 0.80962 0.34403 0.0
H112 H 0.5373 0.70033 0.36654 0.0
H113 H 0.45903 0.66986 0.46019 0.0
Eu114 Eu 0.77401 0.17594 0.51984 0.0
Eu115 Eu 0.84787 0.28307 0.47548 0.0
O116 O 0.77526 0.1288 0.58071 0.0
O117 O 0.68643 0.11648 0.51187 0.0
O118 O 0.88665 0.18065 0.47524 0.0
O119 O 0.86775 0.12075 0.52826 0.0
O120 O 0.74401 0.14001 0.44777 0.0
O121 O 0.74703 0.24386 0.41737 0.0
C122 C 0.66467 0.11907 0.5756 0.0
C123 C 0.57297 0.13716 0.6095 0.0
C124 C 0.56628 0.17764 0.57285 0.0
C125 C 0.61179 0.16842 0.55547 0.0
C126 C 0.62301 0.0868 0.62905 0.0
C127 C 0.66996 0.07833 0.61268 0.0
C128 C 0.71184 0.10683 0.5566 0.0
C129 C 0.89655 0.12801 0.50203 0.0
O130 O 0.85834 0.31976 0.41659 0.0
O131 O 0.92232 0.36211 0.4851 0.0
C132 C 0.72555 0.18113 0.41215 0.0
O133 O 0.77641 0.34367 0.49091 0.0
O134 O 0.70013 0.25842 0.48 0.0
O135 O 0.91921 0.26649 0.55197 0.0
O136 O 0.83392 0.25838 0.57046 0.0
C137 C 0.97042 0.35762 0.43432 0.0
C138 C 1.01596 0.37597 0.38134 0.0
C139 C 0.95987 0.37441 0.38948 0.0
C140 C 0.08202 0.36068 0.41766 0.0
C141 C 0.09372 0.34175 0.46167 0.0
C142 C 0.03801 0.3402 0.47038 0.0
C143 C 0.9102 0.35923 0.44222 0.0
C144 C 0.71589 0.32214 0.48321 0.0
C145 C 0.89769 0.27328 0.58198 0.0
H146 H 0.53673 0.14344 0.62207 0.0
H147 H 0.60563 0.19894 0.52632 0.0
H148 H 0.70901 0.03931 0.62776 0.0
H149 H 0.90843 0.38634 0.36118 0.0
H150 H 0.12496 0.36063 0.41094 0.0
H151 H 0.04717 0.3253 0.5046 0.0
H152 H 0.68976 0.13326 0.01209 0.0
H153 H 0.5934 0.28015 0.90147 0.0
H154 H 0.80369 0.17482 0.03073 0.0
H155 H 0.70696 0.32116 0.91901 0.0
H156 H 0.93286 0.40535 -0.00514 0.0
H157 H 0.81401 0.37495 0.97109 0.0
H158 H 0.87258 0.16522 -0.0066 0.0
H159 H 0.99206 0.19653 0.01844 0.0
C160 C 0.69303 0.17674 -0.00666 0.0
C161 C 0.63283 0.20445 0.95603 0.0
C162 C 0.75827 0.19927 0.00295 0.0
C163 C 0.7647 0.24993 0.97535 0.0
C164 C 0.70423 0.28191 0.94089 0.0
C165 C 0.63901 0.25931 0.93133 0.0
C166 C 0.9194 0.35256 -0.0077 0.0
C167 C 0.97146 0.30322 0.008 0.0
C168 C 0.85144 0.33509 0.97942 0.0
C169 C 0.83403 0.26777 0.98182 0.0
C170 C 0.88467 0.2178 -0.00734 0.0
C171 C 0.95275 0.2354 0.00569 0.0
H172 H 1.02739 0.88731 0.85223 0.0
H173 H 0.09699 0.82763 -0.00524 0.0
H174 H 0.13744 0.9444 0.87738 0.0
H175 H 0.20574 0.88586 0.01994 0.0
H176 H 0.37933 0.88644 0.94113 0.0
H177 H 0.25333 0.88489 0.90646 0.0
H178 H 0.27345 -0.01215 0.02709 0.0
H179 H 0.39707 -0.0062 0.05957 0.0
C180 C 0.06518 0.88856 0.88917 0.0
C181 C 0.05436 0.85135 0.92139 0.0
C182 C 0.12826 0.92082 0.90342 0.0
C183 C 0.1809 0.91791 0.95034 0.0
C184 C 0.16633 0.88869 0.98341 0.0
C185 C 0.10361 0.85566 0.96906 0.0
C186 C 0.35626 0.91207 0.9588 0.0
C187 C 0.39806 0.93918 0.0034 0.0
C188 C 0.28412 0.91094 0.93915 0.0
C189 C 0.25324 0.936 0.96422 0.0
C190 C 0.29499 0.9687 0.00661 0.0
C191 C 0.36618 0.9718 0.02533 0.0
H192 H 0.52796 0.54887 0.40453 0.0
H193 H 0.62179 0.72599 0.48657 0.0
H194 H 0.64319 0.5027 0.42906 0.0
H195 H 0.73657 0.6807 0.51039 0.0
H196 H 0.91172 0.62871 0.48287 0.0
H197 H 0.79052 0.65854 0.45473 0.0
H198 H 0.76145 0.47106 0.50829 0.0
H199 H 0.88158 0.44048 0.53578 0.0
C200 C 0.57331 0.57627 0.42957 0.0
C201 C 0.56645 0.64028 0.44445 0.0
C202 C 0.63896 0.55052 0.4429 0.0
C203 C 0.69823 0.58919 0.47043 0.0
C204 C 0.69141 0.6507 0.48828 0.0
C205 C 0.62601 0.67583 0.47564 0.0
C206 C 0.8783 0.59238 0.48634 0.0
C207 C 0.90547 0.53182 0.51071 0.0
C208 C 0.80954 0.60991 0.47112 0.0
C209 C 0.76709 0.56677 0.47973 0.0
C210 C 0.79275 0.50408 0.50055 0.0
C211 C 0.86127 0.48659 0.51589 0.0
H212 H 0.20515 0.41973 0.51558 0.0
H213 H 0.14287 0.21454 0.47654 0.0
H214 H 0.3245 0.39008 0.54128 0.0
H215 H 0.26248 0.18416 0.50155 0.0
H216 H 0.45074 0.16471 0.48814 0.0
H217 H 0.33633 0.20687 0.4681 0.0
H218 H 0.42874 0.32844 0.59252 0.0
H219 H 0.5429 0.28701 0.61172 0.0
C220 C 0.21762 0.36759 0.51486 0.0
C221 C 0.16484 0.31927 0.49517 0.0
C222 C 0.28599 0.35069 0.52857 0.0
C223 C 0.30281 0.28525 0.52185 0.0
C224 C 0.25098 0.23559 0.50588 0.0
C225 C 0.18276 0.25244 0.49276 0.0
C226 C 0.44672 0.2029 0.50987 0.0
C227 C 0.50555 0.22299 0.55124 0.0
C228 C 0.3811 0.22573 0.49917 0.0
C229 C 0.37309 0.26909 0.52967 0.0
C230 C 0.43278 0.29453 0.56851 0.0
C231 C 0.49833 0.2716 0.5792 0.0
H232 H 0.74404 0.56478 0.0205 0.0
H233 H 0.5543 0.68009 0.95529 0.0
H234 H 0.68415 0.47267 0.03483 0.0
H235 H 0.4946 0.58818 0.96858 0.0
H236 H 0.42002 0.44717 0.0386 0.0
H237 H 0.49177 0.53544 0.03361 0.0
H238 H 0.59491 0.38872 -0.00631 0.0
H239 H 0.52502 0.3003 0.00011 0.0
C240 C 0.68944 0.57003 0.00867 0.0
C241 C 0.65389 0.62965 0.98703 0.0
C242 C 0.65525 0.51748 0.01696 0.0
C243 C 0.585 0.52376 0.00354 0.0
C244 C 0.54921 0.5826 0.98055 0.0
C245 C 0.58331 0.63503 0.97254 0.0
C246 C 0.45862 0.43361 0.0294 0.0
C247 C 0.46617 0.36686 0.01921 0.0
C248 C 0.49941 0.48419 0.02624 0.0
C249 C 0.54809 0.46908 0.01247 0.0
C250 C 0.55807 0.4019 0.00458 0.0
C251 C 0.51766 0.35125 0.00807 0.0
H252 H 0.73838 0.38158 0.56192 0.0
H253 H 0.58595 0.35298 0.41703 0.0
H254 H 0.64927 0.42525 0.57685 0.0
H255 H 0.49682 0.39982 0.43089 0.0
H256 H 0.33792 0.42836 0.4701 0.0
H257 H 0.43317 0.36866 0.4695 0.0
H258 H 0.57613 0.51939 0.56057 0.0
H259 H 0.48245 0.57578 0.56337 0.0
C260 C 0.68609 0.3876 0.53297 0.0
C261 C 0.6686 0.36639 0.48813 0.0
C262 C 0.63502 0.4116 0.54151 0.0
C263 C 0.56591 0.41486 0.50518 0.0
C264 C 0.5493 0.39609 0.45984 0.0
C265 C 0.60026 0.37113 0.45154 0.0
C266 C 0.39023 0.44668 0.49151 0.0
C267 C 0.40318 0.50681 0.51625 0.0
C268 C 0.44444 0.41347 0.49051 0.0
C269 C 0.5116 0.44067 0.51385 0.0
C270 C 0.5251 0.49714 0.54222 0.0
C271 C 0.47135 0.52962 0.54365 0.0
H272 H 0.2042 0.05727 0.0482 0.0
H273 H 0.10528 0.11186 0.90225 0.0
H274 H 0.09484 0.01937 0.03844 0.0
H275 H 0.99345 0.07782 0.89264 0.0
H276 H 0.82625 0.93617 0.89044 0.0
H277 H 0.92443 -0.01165 0.89108 0.0
H278 H 0.99207 0.06463 0.02955 0.0
H279 H 0.89581 0.00721 0.03022 0.0
C280 C 0.15881 0.05998 0.01369 0.0
C281 C 0.1631 0.08631 0.97575 0.0
C282 C 0.09572 0.03996 0.00834 0.0
C283 C 0.03476 0.04776 0.96518 0.0
C284 C 0.03938 0.07132 0.92648 0.0
C285 C 0.10335 0.09009 0.9317 0.0
C286 C 0.86137 0.96519 0.92079 0.0
C287 C 0.8549 0.96568 0.96104 0.0
C288 C 0.91761 -0.00442 0.92096 0.0
C289 C 0.9676 0.02869 0.96097 0.0
C290 C 0.95588 0.03698 -0.00116 0.0
C291 C 0.90009 0.00524 -0.00097 0.0
H292 H 0.93749 0.00995 0.55225 0.0
H293 H 0.94724 0.12195 0.44282 0.0
H294 H 1.00022 0.91759 0.54159 0.0
H295 H 1.00639 0.02974 0.43118 0.0
H296 H 0.17586 0.8803 0.45722 0.0
H297 H 0.11503 0.97369 0.46811 0.0
H298 H 0.97937 0.83322 0.48351 0.0
H299 H 0.04209 0.74001 0.47442 0.0
C300 C 0.95293 0.01488 0.52609 0.0
C301 C 0.93739 0.0731 0.49847 0.0
C302 C 0.98823 0.96199 0.51971 0.0
C303 C 1.0078 0.96661 0.4854 0.0
C304 C 0.99289 0.02515 0.45832 0.0
C305 C 0.95852 0.07793 0.46497 0.0
C306 C 0.13214 0.86974 0.46198 0.0
C307 C 0.11334 0.80354 0.46502 0.0
C308 C 0.09756 0.92295 0.46844 0.0
C309 C 0.04307 0.91047 0.47724 0.0
C310 C 1.0223 0.84412 0.47798 0.0
C311 C 0.05749 0.79099 0.47219 0.0
H312 H 0.71348 0.0578 0.37255 0.0
H313 H 0.6218 0.25575 0.34672 0.0
H314 H 0.62986 0.02617 0.29151 0.0
H315 H 0.53807 0.22388 0.26727 0.0
H316 H 0.3644 0.14962 0.14452 0.0
H317 H 0.43794 0.13016 0.2283 0.0
H318 H 0.61039 0.08719 0.20798 0.0
H319 H 0.53562 0.10456 0.1234 0.0
C320 C 0.67477 0.09387 0.34974 0.0
C321 C 0.67385 0.15919 0.36532 0.0
C322 C 0.62726 0.07582 0.30372 0.0
C323 C 0.57728 0.12236 0.27376 0.0
C324 C 0.57553 0.18683 0.29008 0.0
C325 C 0.62371 0.20526 0.33528 0.0
C326 C 0.41724 0.13302 0.15785 0.0
C327 C 0.44525 0.1294 0.12833 0.0
C328 C 0.45905 0.1217 0.20553 0.0
C329 C 0.52961 0.10793 0.22423 0.0
C330 C 0.55585 0.09712 0.19405 0.0
C331 C 0.51345 0.10741 0.14595 0.0
H332 H 0.58785 0.9653 0.17751 0.0
H333 H 0.56392 0.75582 0.14161 0.0
H334 H 0.55224 0.94355 0.23513 0.0
H335 H 0.53205 0.73245 0.20107 0.0
H336 H 0.389 0.72016 0.25962 0.0
H337 H 0.43125 0.7501 0.20645 0.0
H338 H 0.56917 0.89584 0.30594 0.0
H339 H 0.52488 0.86674 0.35807 0.0
C340 C 0.57931 0.91385 0.18421 0.0
C341 C 0.58003 0.86221 0.15563 0.0
C342 C 0.55785 0.90133 0.21685 0.0
C343 C 0.53744 0.8364 0.22227 0.0
C344 C 0.54521 0.78351 0.19702 0.0
C345 C 0.56577 0.79636 0.16392 0.0
C346 C 0.42593 0.76077 0.26898 0.0
C347 C 0.45203 0.79253 0.31233 0.0
C348 C 0.45178 0.77674 0.23916 0.0
C349 C 0.50523 0.8243 0.2522 0.0
C350 C 0.52811 0.85908 0.29441 0.0
C351 C 0.502 0.84318 0.32411 0.0
H352 H 0.41966 0.64436 0.63969 0.0
H353 H 0.33118 0.84164 0.59042 0.0
H354 H 0.49818 0.69034 0.71632 0.0
H355 H 0.40907 0.88746 0.6688 0.0
H356 H 0.68262 0.80165 0.81872 0.0
H357 H 0.59783 0.79319 0.73583 0.0
H358 H 0.43482 0.84483 0.7641 0.0
H359 H 0.52045 0.85399 0.84788 0.0
C360 C 0.41675 0.69753 0.64543 0.0
C361 C 0.36992 0.73968 0.60929 0.0
C362 C 0.46169 0.72376 0.68912 0.0
C363 C 0.45987 0.79236 0.69782 0.0
C364 C 0.41177 0.83461 0.66232 0.0
C365 C 0.36761 0.8085 0.61783 0.0
C366 C 0.62887 0.81263 0.80712 0.0
C367 C 0.60739 0.82681 0.83939 0.0
C368 C 0.58072 0.80846 0.75983 0.0
C369 C 0.51029 0.81778 0.74416 0.0
C370 C 0.48915 0.83782 0.77573 0.0
C371 C 0.53777 0.84248 0.8234 0.0
H372 H 0.42536 0.06772 0.77858 0.0
H373 H 0.62451 -0.00435 0.88559 0.0
H374 H 0.45688 0.04272 0.71922 0.0
H375 H 0.65694 0.97232 0.82679 0.0
H376 H 0.52402 -0.00241 0.61741 0.0
H377 H 0.49408 0.96674 0.67673 0.0
H378 H 0.68423 0.05581 0.78264 0.0
H379 H 0.71346 0.08726 0.72296 0.0
C380 C 0.47442 0.04338 0.78918 0.0
C381 C 0.52238 0.03385 0.83675 0.0
C382 C 0.49301 0.02962 0.75523 0.0
C383 C 0.56022 0.00688 0.76834 0.0
C384 C 0.60536 -0.00902 0.81549 0.0
C385 C 0.58632 0.00343 0.84913 0.0
C386 C 0.561 0.00747 0.65375 0.0
C387 C 0.62145 0.04431 0.66566 0.0
C388 C 0.54332 -0.00937 0.68765 0.0
C389 C 0.58602 0.00955 0.73439 0.0
C390 C 0.65013 0.04 0.74703 0.0
C391 C 0.66746 0.05756 0.71293 0.0
H392 H 0.18824 0.6038 0.3256 0.0
H393 H 1.02297 0.63347 0.35579 0.0
H394 H 0.11074 0.63512 0.24446 0.0
H395 H 0.94677 0.66874 0.27567 0.0
H396 H 0.9854 0.77885 0.12222 0.0
H397 H 0.06021 0.73139 0.19974 0.0
H398 H 0.88193 0.64149 0.1975 0.0
H399 H 0.80735 0.69247 0.12144 0.0
C400 C 0.13525 0.61684 0.31487 0.0
C401 C 0.11178 0.61621 0.34717 0.0
C402 C 0.09093 0.63551 0.26839 0.0
C403 C 1.02253 0.65556 0.25336 0.0
C404 C 0.99864 0.65282 0.28551 0.0
C405 C 0.04257 0.6329 0.33173 0.0
C406 C 0.96246 0.7491 0.13852 0.0
C407 C 0.89063 0.74017 0.11622 0.0
C408 C 1.00531 0.72118 0.18278 0.0
C409 C 0.97733 0.68249 0.20523 0.0
C410 C 0.90539 0.67221 0.18202 0.0
C411 C 0.86253 0.70131 0.1383 0.0
H412 H 0.96693 0.29004 0.3083 0.0
H413 H 0.05913 0.48514 0.35402 0.0
H414 H 0.99835 0.29156 0.24711 0.0
H415 H 0.09111 0.48671 0.2931 0.0
H416 H 0.08563 0.47579 0.14898 0.0
H417 H 0.05009 0.48734 0.20774 0.0
H418 H 0.11405 0.28256 0.25271 0.0
H419 H 0.14961 0.27164 0.19403 0.0
C420 C 0.99092 0.33464 0.30373 0.0
C421 C 1.0092 0.38826 0.33506 0.0
C422 C 1.01042 0.33494 0.26948 0.0
C423 C 0.04846 0.38896 0.26591 0.0
C424 C 0.0616 0.44485 0.29484 0.0
C425 C 0.04252 0.44436 0.32923 0.0
C426 C 0.09498 0.43448 0.17298 0.0
C427 C 0.12202 0.3734 0.16789 0.0
C428 C 0.07361 0.44063 0.20608 0.0
C429 C 0.07764 0.38529 0.23409 0.0
C430 C 0.1088 0.32562 0.23092 0.0
C431 C 0.13082 0.3198 0.19819 0.0
H432 H 0.09427 0.26318 0.87618 0.0
H433 H 0.25909 0.33501 0.85474 0.0
H434 H 1.01195 0.28037 0.79392 0.0
H435 H 0.17591 0.35586 0.77249 0.0
H436 H 0.8682 0.32788 0.64538 0.0
H437 H 0.9491 0.34969 0.72768 0.0
H438 H 0.11783 0.28214 0.70912 0.0
H439 H 0.03763 0.26399 0.62683 0.0
C440 C 0.1125 0.28458 0.85405 0.0
C441 C 0.1831 0.29658 0.87147 0.0
C442 C 0.06518 0.29494 0.80686 0.0
C443 C 0.0875 0.3185 0.77638 0.0
C444 C 0.15742 0.33584 0.7948 0.0
C445 C 0.20496 0.32423 0.84186 0.0
C446 C 0.9228 0.31871 0.65896 0.0
C447 C 0.94673 0.29333 0.63011 0.0
C448 C 0.96906 0.33092 0.70605 0.0
C449 C 0.03986 0.31685 0.72521 0.0
C450 C 0.06388 0.29443 0.69558 0.0
C451 C 1.01783 0.28348 0.64839 0.0
H452 H 0.05859 0.43885 0.68016 0.0
H453 H 0.11442 0.64418 0.67335 0.0
H454 H 1.03245 0.46858 0.74162 0.0
H455 H 0.08758 0.67433 0.73413 0.0
H456 H 0.91922 0.72105 0.76858 0.0
H457 H 0.9626 0.67416 0.72015 0.0
H458 H 0.07504 0.52271 0.82531 0.0
H459 H 1.03196 0.57095 0.87448 0.0
C460 C 0.06907 0.48944 0.69379 0.0
C461 C 0.08952 0.53898 0.67248 0.0
C462 C 0.05308 0.50668 0.72841 0.0
C463 C 0.05624 0.57403 0.74177 0.0
C464 C 0.08351 0.62215 0.72391 0.0
C465 C 0.1003 0.60473 0.68978 0.0
C466 C 0.95123 0.67631 0.78066 0.0
C467 C 0.97149 0.64919 0.82503 0.0
C468 C 0.97722 0.65025 0.75338 0.0
C469 C 1.02388 0.596 0.76955 0.0
C470 C 0.03975 0.56503 0.81221 0.0
C471 C 1.01423 0.59186 0.83998 0.0
loop_
_geom_bond_atom_site_label_1
_geom_bond_atom_site_label_2
_geom_bond_distance
_geom_bond_site_symmetry_2
_ccdc_geom_bond_type
Eu0 O2 2.472 . S
Eu0 O3 2.507 1_556 S
Eu0 O5 2.336 1_556 S
Eu0 O6 2.389 1_556 S
Eu0 C14 2.835 . S
Eu0 O20 2.396 1_556 S
Eu0 O22 2.323 . S
Eu1 O4 2.396 1_554 S
Eu1 O7 2.323 . S
Eu1 O16 2.472 . S
Eu1 O17 2.507 1_554 S
Eu1 O19 2.336 1_554 S
Eu1 O21 2.389 1_554 S
Eu1 C29 2.835 . S
O2 Eu0 2.472 . S
O2 C14 1.258 . S
O3 Eu0 2.507 1_554 S
O3 C14 1.246 1_554 S
O4 Eu1 2.396 1_556 S
O4 C15 1.216 1_556 S
O5 Eu0 2.336 1_554 S
O5 C15 1.279 . S
O6 Eu0 2.389 1_554 S
O6 C18 1.239 . S
O7 Eu1 2.323 . S
O7 C18 1.249 . S
C8 C11 1.390 . S
C8 C13 1.370 . S
C8 C14 1.489 . S
C9 C10 1.344 . S
C9 C12 1.413 . S
C9 H32 0.931 . S
C10 C9 1.344 . S
C10 C11 1.423 . S
C11 C8 1.390 . S
C11 C10 1.423 . S
C11 H33 0.930 1_556 S
C12 C9 1.413 . S
C12 C13 1.397 . S
C13 C8 1.370 . S
C13 C12 1.397 . S
C13 H34 0.932 . S
C14 Eu0 2.835 . S
C14 O2 1.258 . S
C14 O3 1.246 1_556 S
C14 C8 1.489 . S
C15 O4 1.216 1_554 S
C15 O5 1.279 . S
O16 Eu1 2.472 . S
O16 C29 1.258 . S
O17 Eu1 2.507 1_556 S
O17 C29 1.246 1_556 S
C18 O6 1.239 . S
C18 O7 1.249 . S
O19 Eu1 2.336 1_556 S
O19 C30 1.288 1_556 S
O20 Eu0 2.396 1_554 S
O20 C30 1.211 . S
O21 Eu1 2.389 1_556 S
O21 C31 1.239 . S
O22 Eu0 2.323 . S
O22 C31 1.249 . S
C23 C25 1.370 . S
C23 C28 1.390 1_455 S
C23 C29 1.489 . S
C24 C25 1.397 . S
C24 C26 1.413 1_455 S
C25 C23 1.370 . S
C25 C24 1.397 . S
C25 H35 0.932 . S
C26 C24 1.413 1_655 S
C26 C27 1.344 . S
C26 H36 0.931 . S
C27 C26 1.344 . S
C27 C28 1.423 . S
C28 C23 1.390 1_655 S
C28 C27 1.423 . S
C28 H37 0.930 1_554 S
C29 Eu1 2.835 . S
C29 O16 1.258 . S
C29 O17 1.246 1_554 S
C29 C23 1.489 . S
C30 O19 1.288 1_554 S
C30 O20 1.211 . S
C31 O21 1.239 . S
C31 O22 1.249 . S
H32 C9 0.931 . S
H33 C11 0.930 1_554 S
H34 C13 0.932 . S
H35 C25 0.932 . S
H36 C26 0.931 . S
H37 C28 0.930 1_556 S
Eu38 O40 2.472 . S
Eu38 O41 2.507 1_556 S
Eu38 O43 2.336 1_556 S
Eu38 O44 2.389 1_556 S
Eu38 C52 2.835 . S
Eu38 O58 2.396 1_556 S
Eu38 O60 2.323 . S
Eu39 O42 2.396 1_554 S
Eu39 O45 2.323 . S
Eu39 O54 2.472 . S
Eu39 O55 2.507 1_554 S
Eu39 O57 2.336 1_554 S
Eu39 O59 2.389 1_554 S
Eu39 C67 2.835 . S
O40 Eu38 2.472 . S
O40 C52 1.258 . S
O41 Eu38 2.507 1_554 S
O41 C52 1.246 1_554 S
O42 Eu39 2.396 1_556 S
O42 C53 1.216 1_556 S
O43 Eu38 2.336 1_554 S
O43 C53 1.279 . S
O44 Eu38 2.389 1_554 S
O44 C56 1.239 . S
O45 Eu39 2.323 . S
O45 C56 1.249 . S
C46 C49 1.390 1_655 S
C46 C51 1.370 . S
C46 C52 1.489 . S
C47 C48 1.344 . S
C47 C50 1.413 1_455 S
C47 H70 0.931 . S
C48 C47 1.344 . S
C48 C49 1.423 . S
C49 C46 1.390 1_455 S
C49 C48 1.423 . S
C49 H71 0.930 1_556 S
C50 C47 1.413 1_655 S
C50 C51 1.397 . S
C51 C46 1.370 . S
C51 C50 1.397 . S
C51 H72 0.932 . S
C52 Eu38 2.835 . S
C52 O40 1.258 . S
C52 O41 1.246 1_556 S
C52 C46 1.489 . S
C53 O42 1.216 1_554 S
C53 O43 1.279 . S
O54 Eu39 2.472 . S
O54 C67 1.258 . S
O55 Eu39 2.507 1_556 S
O55 C67 1.246 1_556 S
C56 O44 1.239 . S
C56 O45 1.249 . S
O57 Eu39 2.336 1_556 S
O57 C68 1.288 1_556 S
O58 Eu38 2.396 1_554 S
O58 C68 1.211 . S
O59 Eu39 2.389 1_556 S
O59 C69 1.239 . S
O60 Eu38 2.323 . S
O60 C69 1.249 . S
C61 C63 1.370 . S
C61 C66 1.390 . S
C61 C67 1.489 . S
C62 C63 1.397 . S
C62 C64 1.413 . S
C63 C61 1.370 . S
C63 C62 1.397 . S
C63 H73 0.932 . S
C64 C62 1.413 . S
C64 C65 1.344 . S
C64 H74 0.931 . S
C65 C64 1.344 . S
C65 C66 1.423 . S
C66 C61 1.390 . S
C66 C65 1.423 . S
C66 H75 0.930 1_554 S
C67 Eu39 2.835 . S
C67 O54 1.258 . S
C67 O55 1.246 1_554 S
C67 C61 1.489 . S
C68 O57 1.288 1_554 S
C68 O58 1.211 . S
C69 O59 1.239 . S
C69 O60 1.249 . S
H70 C47 0.931 . S
H71 C49 0.930 1_554 S
H72 C51 0.932 . S
H73 C63 0.932 . S
H74 C64 0.931 . S
H75 C66 0.930 1_556 S
Eu76 O78 2.472 . S
Eu76 O79 2.507 . S
Eu76 O81 2.336 . S
Eu76 O82 2.389 . S
Eu76 C90 2.835 . S
Eu76 O96 2.396 . S
Eu76 O98 2.323 . S
Eu77 O80 2.396 . S
Eu77 O83 2.323 . S
Eu77 O92 2.472 . S
Eu77 O93 2.507 . S
Eu77 O95 2.336 . S
Eu77 O97 2.389 . S
Eu77 C105 2.835 . S
O78 Eu76 2.472 . S
O78 C90 1.258 . S
O79 Eu76 2.507 . S
O79 C90 1.246 . S
O80 Eu77 2.396 . S
O80 C91 1.216 . S
O81 Eu76 2.336 . S
O81 C91 1.279 . S
O82 Eu76 2.389 . S
O82 C94 1.239 . S
O83 Eu77 2.323 . S
O83 C94 1.249 . S
C84 C87 1.390 1_455 S
C84 C89 1.370 . S
C84 C90 1.489 . S
C85 C86 1.344 . S
C85 C88 1.413 1_655 S
C85 H108 0.931 . S
C86 C85 1.344 . S
C86 C87 1.423 . S
C87 C84 1.390 1_655 S
C87 C86 1.423 . S
C87 H109 0.930 . S
C88 C85 1.413 1_455 S
C88 C89 1.397 . S
C89 C84 1.370 . S
C89 C88 1.397 . S
C89 H110 0.932 . S
C90 Eu76 2.835 . S
C90 O78 1.258 . S
C90 O79 1.246 . S
C90 C84 1.489 . S
C91 O80 1.216 . S
C91 O81 1.279 . S
O92 Eu77 2.472 . S
O92 C105 1.258 . S
O93 Eu77 2.507 . S
O93 C105 1.246 . S
C94 O82 1.239 . S
C94 O83 1.249 . S
O95 Eu77 2.336 . S
O95 C106 1.279 . S
O96 Eu76 2.396 . S
O96 C106 1.216 . S
O97 Eu77 2.389 . S
O97 C107 1.239 . S
O98 Eu76 2.323 . S
O98 C107 1.249 . S
C99 C101 1.370 . S
C99 C104 1.390 . S
C99 C105 1.489 . S
C100 C101 1.397 . S
C100 C102 1.413 . S
C101 C99 1.370 . S
C101 C100 1.397 . S
C101 H111 0.932 . S
C102 C100 1.413 . S
C102 C103 1.344 . S
C102 H112 0.931 . S
C103 C102 1.344 . S
C103 C104 1.423 . S
C104 C99 1.390 . S
C104 C103 1.423 . S
C104 H113 0.930 . S
C105 Eu77 2.835 . S
C105 O92 1.258 . S
C105 O93 1.246 . S
C105 C99 1.489 . S
C106 O95 1.279 . S
C106 O96 1.216 . S
C107 O97 1.239 . S
C107 O98 1.249 . S
H108 C85 0.931 . S
H109 C87 0.930 . S
H110 C89 0.932 . S
H111 C101 0.932 . S
H112 C102 0.931 . S
H113 C104 0.930 . S
Eu114 O116 2.472 . S
Eu114 O117 2.507 . S
Eu114 O119 2.336 . S
Eu114 O120 2.389 . S
Eu114 C128 2.835 . S
Eu114 O134 2.396 . S
Eu114 O136 2.323 . S
Eu115 O118 2.396 . S
Eu115 O121 2.323 . S
Eu115 O130 2.472 . S
Eu115 O131 2.507 . S
Eu115 O133 2.336 . S
Eu115 O135 2.389 . S
Eu115 C143 2.835 . S
O116 Eu114 2.472 . S
O116 C128 1.258 . S
O117 Eu114 2.507 . S
O117 C128 1.246 . S
O118 Eu115 2.396 . S
O118 C129 1.216 . S
O119 Eu114 2.336 . S
O119 C129 1.279 . S
O120 Eu114 2.389 . S
O120 C132 1.239 . S
O121 Eu115 2.323 . S
O121 C132 1.249 . S
C122 C125 1.390 . S
C122 C127 1.370 . S
C122 C128 1.489 . S
C123 C124 1.344 . S
C123 C126 1.413 . S
C123 H146 0.931 . S
C124 C123 1.344 . S
C124 C125 1.423 . S
C125 C122 1.390 . S
C125 C124 1.423 . S
C125 H147 0.930 . S
C126 C123 1.413 . S
C126 C127 1.397 . S
C127 C122 1.370 . S
C127 C126 1.397 . S
C127 H148 0.932 . S
C128 Eu114 2.835 . S
C128 O116 1.258 . S
C128 O117 1.246 . S
C128 C122 1.489 . S
C129 O118 1.216 . S
C129 O119 1.279 . S
O130 Eu115 2.472 . S
O130 C143 1.258 . S
O131 Eu115 2.507 . S
O131 C143 1.246 . S
C132 O120 1.239 . S
C132 O121 1.249 . S
O133 Eu115 2.336 . S
O133 C144 1.279 . S
O134 Eu114 2.396 . S
O134 C144 1.216 . S
O135 Eu115 2.389 . S
O135 C145 1.239 . S
O136 Eu114 2.323 . S
O136 C145 1.249 . S
C137 C139 1.370 . S
C137 C142 1.390 1_655 S
C137 C143 1.489 . S
C138 C139 1.397 . S
C138 C140 1.413 1_655 S
C139 C137 1.370 . S
C139 C138 1.397 . S
C139 H149 0.932 . S
C140 C138 1.413 1_455 S
C140 C141 1.344 . S
C140 H150 0.931 . S
C141 C140 1.344 . S
C141 C142 1.423 . S
C142 C137 1.390 1_455 S
C142 C141 1.423 . S
C142 H151 0.930 . S
C143 Eu115 2.835 . S
C143 O130 1.258 . S
C143 O131 1.246 . S
C143 C137 1.489 . S
C144 O133 1.279 . S
C144 O134 1.216 . S
C145 O135 1.239 . S
C145 O136 1.249 . S
H146 C123 0.931 . S
H147 C125 0.930 . S
H148 C127 0.932 . S
H149 C139 0.932 . S
H150 C140 0.931 . S
H151 C142 0.930 . S
H152 C160 0.950 . S
H153 C165 0.950 . S
H154 C162 0.950 . S
H155 C164 0.950 . S
H156 C166 0.950 . S
H157 C168 0.950 . S
H158 C170 0.950 . S
H159 C171 0.950 . S
C160 H152 0.950 . S
C160 C161 1.386 . S
C160 C162 1.391 . S
C161 C160 1.386 . S
C161 C165 1.393 1_556 S
C162 H154 0.950 . S
C162 C160 1.391 . S
C162 C163 1.400 . S
C163 C162 1.400 . S
C163 C164 1.398 1_556 S
C163 C169 1.491 1_556 S
C164 H155 0.950 . S
C164 C163 1.398 1_554 S
C164 C165 1.391 . S
C165 H153 0.950 . S
C165 C161 1.393 1_554 S
C165 C164 1.391 . S
C166 H156 0.950 . S
C166 C167 1.386 . S
C166 C168 1.391 . S
C167 C166 1.386 . S
C167 C171 1.393 1_554 S
C168 H157 0.950 . S
C168 C166 1.391 . S
C168 C169 1.400 . S
C169 C163 1.491 1_554 S
C169 C168 1.400 . S
C169 C170 1.398 1_554 S
C170 H158 0.950 . S
C170 C169 1.398 1_556 S
C170 C171 1.391 . S
C171 H159 0.950 . S
C171 C167 1.393 1_556 S
C171 C170 1.391 . S
H172 C180 0.950 . S
H173 C185 0.950 . S
H174 C182 0.950 . S
H175 C184 0.950 . S
H176 C186 0.950 . S
H177 C188 0.950 . S
H178 C190 0.950 . S
H179 C191 0.950 . S
C180 H172 0.950 . S
C180 C181 1.386 1_554 S
C180 C182 1.391 . S
C181 C180 1.386 1_556 S
C181 C185 1.393 . S
C182 H174 0.950 . S
C182 C180 1.391 . S
C182 C183 1.400 1_554 S
C183 C182 1.400 1_556 S
C183 C184 1.398 . S
C183 C189 1.491 1_556 S
C184 H175 0.950 . S
C184 C183 1.398 . S
C184 C185 1.391 . S
C185 H173 0.950 . S
C185 C181 1.393 . S
C185 C184 1.391 . S
C186 H176 0.950 . S
C186 C187 1.386 1_556 S
C186 C188 1.391 . S
C187 C186 1.386 1_554 S
C187 C191 1.393 . S
C188 H177 0.950 . S
C188 C186 1.391 . S
C188 C189 1.400 1_556 S
C189 C183 1.491 1_554 S
C189 C188 1.400 1_554 S
C189 C190 1.398 . S
C190 H178 0.950 . S
C190 C189 1.398 . S
C190 C191 1.391 . S
C191 H179 0.950 . S
C191 C187 1.393 . S
C191 C190 1.391 . S
H192 C200 0.950 . S
H193 C205 0.950 . S
H194 C202 0.950 . S
H195 C204 0.950 . S
H196 C206 0.950 . S
H197 C208 0.950 . S
H198 C210 0.950 . S
H199 C211 0.950 . S
C200 H192 0.950 . S
C200 C201 1.386 . S
C200 C202 1.391 . S
C201 C200 1.386 . S
C201 C205 1.393 . S
C202 H194 0.950 . S
C202 C200 1.391 . S
C202 C203 1.400 . S
C203 C202 1.400 . S
C203 C204 1.398 . S
C203 C209 1.491 . S
C204 H195 0.950 . S
C204 C203 1.398 . S
C204 C205 1.391 . S
C205 H193 0.950 . S
C205 C201 1.393 . S
C205 C204 1.391 . S
C206 H196 0.950 . S
C206 C207 1.386 . S
C206 C208 1.391 . S
C207 C206 1.386 . S
C207 C211 1.393 . S
C208 H197 0.950 . S
C208 C206 1.391 . S
C208 C209 1.400 . S
C209 C203 1.491 . S
C209 C208 1.400 . S
C209 C210 1.398 . S
C210 H198 0.950 . S
C210 C209 1.398 . S
C210 C211 1.391 . S
C211 H199 0.950 . S
C211 C207 1.393 . S
C211 C210 1.391 . S
H212 C220 0.950 . S
H213 C225 0.950 . S
H214 C222 0.950 . S
H215 C224 0.950 . S
H216 C226 0.950 . S
H217 C228 0.950 . S
H218 C230 0.950 . S
H219 C231 0.950 . S
C220 H212 0.950 . S
C220 C221 1.386 . S
C220 C222 1.391 . S
C221 C220 1.386 . S
C221 C225 1.393 . S
C222 H214 0.950 . S
C222 C220 1.391 . S
C222 C223 1.400 . S
C223 C222 1.400 . S
C223 C224 1.398 . S
C223 C229 1.491 . S
C224 H215 0.950 . S
C224 C223 1.398 . S
C224 C225 1.391 . S
C225 H213 0.950 . S
C225 C221 1.393 . S
C225 C224 1.391 . S
C226 H216 0.950 . S
C226 C227 1.386 . S
C226 C228 1.391 . S
C227 C226 1.386 . S
C227 C231 1.393 . S
C228 H217 0.950 . S
C228 C226 1.391 . S
C228 C229 1.400 . S
C229 C223 1.491 . S
C229 C228 1.400 . S
C229 C230 1.398 . S
C230 H218 0.950 . S
C230 C229 1.398 . S
C230 C231 1.391 . S
C231 H219 0.950 . S
C231 C227 1.393 . S
C231 C230 1.391 . S
H232 C240 0.950 . S
H233 C245 0.950 . S
H234 C242 0.950 . S
H235 C244 0.950 . S
H236 C246 0.950 . S
H237 C248 0.950 . S
H238 C250 0.950 . S
H239 C251 0.950 . S
C240 H232 0.950 . S
C240 C241 1.386 . S
C240 C242 1.391 . S
C241 C240 1.386 . S
C241 C245 1.393 1_556 S
C242 H234 0.950 . S
C242 C240 1.391 . S
C242 C243 1.400 1_556 S
C243 C242 1.400 1_554 S
C243 C244 1.398 . S
C243 C249 1.491 . S
C244 H235 0.950 . S
C244 C243 1.398 . S
C244 C245 1.391 . S
C245 H233 0.950 . S
C245 C241 1.393 1_554 S
C245 C244 1.391 . S
C246 H236 0.950 . S
C246 C247 1.386 . S
C246 C248 1.391 . S
C247 C246 1.386 . S
C247 C251 1.393 1_554 S
C248 H237 0.950 . S
C248 C246 1.391 . S
C248 C249 1.400 . S
C249 C243 1.491 . S
C249 C248 1.400 . S
C249 C250 1.398 1_554 S
C250 H238 0.950 . S
C250 C249 1.398 1_556 S
C250 C251 1.391 . S
C251 H239 0.950 . S
C251 C247 1.393 1_556 S
C251 C250 1.391 . S
H252 C260 0.950 . S
H253 C265 0.950 . S
H254 C262 0.950 . S
H255 C264 0.950 . S
H256 C266 0.950 . S
H257 C268 0.950 . S
H258 C270 0.950 . S
H259 C271 0.950 . S
C260 H252 0.950 . S
C260 C261 1.386 . S
C260 C262 1.391 . S
C261 C260 1.386 . S
C261 C265 1.393 . S
C262 H254 0.950 . S
C262 C260 1.391 . S
C262 C263 1.400 . S
C263 C262 1.400 . S
C263 C264 1.398 . S
C263 C269 1.491 . S
C264 H255 0.950 . S
C264 C263 1.398 . S
C264 C265 1.391 . S
C265 H253 0.950 . S
C265 C261 1.393 . S
C265 C264 1.391 . S
C266 H256 0.950 . S
C266 C267 1.386 . S
C266 C268 1.391 . S
C267 C266 1.386 . S
C267 C271 1.393 . S
C268 H257 0.950 . S
C268 C266 1.391 . S
C268 C269 1.400 . S
C269 C263 1.491 . S
C269 C268 1.400 . S
C269 C270 1.398 . S
C270 H258 0.950 . S
C270 C269 1.398 . S
C270 C271 1.391 . S
C271 H259 0.950 . S
C271 C267 1.393 . S
C271 C270 1.391 . S
H272 C280 0.950 . S
H273 C285 0.950 . S
H274 C282 0.950 1_565 S
H275 C284 0.950 1_655 S
H276 C286 0.950 . S
H277 C288 0.950 1_545 S
H278 C290 0.950 1_455 S
H279 C291 0.950 . S
C280 H272 0.950 . S
C280 C281 1.386 1_554 S
C280 C282 1.391 . S
C281 C280 1.386 1_556 S
C281 C285 1.393 . S
C282 H274 0.950 1_545 S
C282 C280 1.391 . S
C282 C283 1.404 . S
C283 C282 1.404 . S
C283 C284 1.386 1_554 S
C283 C289 1.499 1_445 S
C284 H275 0.950 1_455 S
C284 C283 1.386 1_556 S
C284 C285 1.391 . S
C285 H273 0.950 . S
C285 C281 1.393 . S
C285 C284 1.391 . S
C286 H276 0.950 . S
C286 C287 1.386 1_556 S
C286 C288 1.391 . S
C287 C286 1.386 1_554 S
C287 C291 1.393 . S
C288 H277 0.950 1_565 S
C288 C286 1.391 . S
C288 C289 1.400 1_556 S
C289 C283 1.499 1_665 S
C289 C288 1.400 1_554 S
C289 C290 1.398 . S
C290 H278 0.950 1_655 S
C290 C289 1.398 . S
C290 C291 1.391 . S
C291 H279 0.950 . S
C291 C287 1.393 . S
C291 C290 1.391 . S
H292 C300 0.950 . S
H293 C305 0.950 . S
H294 C302 0.950 1_565 S
H295 C304 0.950 1_455 S
H296 C306 0.950 . S
H297 C308 0.950 1_545 S
H298 C310 0.950 1_655 S
H299 C311 0.950 . S
C300 H292 0.950 . S
C300 C301 1.386 . S
C300 C302 1.391 . S
C301 C300 1.386 . S
C301 C305 1.393 . S
C302 H294 0.950 1_545 S
C302 C300 1.391 . S
C302 C303 1.400 . S
C303 C302 1.400 . S
C303 C304 1.398 . S
C303 C309 1.491 1_645 S
C304 H295 0.950 1_655 S
C304 C303 1.398 . S
C304 C305 1.391 . S
C305 H293 0.950 . S
C305 C301 1.393 . S
C305 C304 1.391 . S
C306 H296 0.950 . S
C306 C307 1.386 . S
C306 C308 1.391 . S
C307 C306 1.386 . S
C307 C311 1.393 . S
C308 H297 0.950 1_565 S
C308 C306 1.391 . S
C308 C309 1.400 . S
C309 C303 1.491 1_465 S
C309 C308 1.400 . S
C309 C310 1.398 . S
C310 H298 0.950 1_455 S
C310 C309 1.398 . S
C310 C311 1.391 . S
C311 H299 0.950 . S
C311 C307 1.393 . S
C311 C310 1.391 . S
H312 C320 0.950 . S
H313 C325 0.950 . S
H314 C322 0.950 . S
H315 C324 0.950 . S
H316 C326 0.950 . S
H317 C328 0.950 . S
H318 C330 0.950 . S
H319 C331 0.950 . S
C320 H312 0.950 . S
C320 C321 1.386 . S
C320 C322 1.391 . S
C321 C320 1.386 . S
C321 C325 1.393 . S
C322 H314 0.950 . S
C322 C320 1.391 . S
C322 C323 1.400 . S
C323 C322 1.400 . S
C323 C324 1.398 . S
C323 C329 1.491 . S
C324 H315 0.950 . S
C324 C323 1.398 . S
C324 C325 1.391 . S
C325 H313 0.950 . S
C325 C321 1.393 . S
C325 C324 1.391 . S
C326 H316 0.950 . S
C326 C327 1.386 . S
C326 C328 1.391 . S
C327 C326 1.386 . S
C327 C331 1.393 . S
C328 H317 0.950 . S
C328 C326 1.391 . S
C328 C329 1.400 . S
C329 C323 1.491 . S
C329 C328 1.400 . S
C329 C330 1.398 . S
C330 H318 0.950 . S
C330 C329 1.398 . S
C330 C331 1.391 . S
C331 H319 0.950 . S
C331 C327 1.393 . S
C331 C330 1.391 . S
H332 C340 0.950 . S
H333 C345 0.950 . S
H334 C342 0.950 . S
H335 C344 0.950 . S
H336 C346 0.950 . S
H337 C348 0.950 . S
H338 C350 0.950 . S
H339 C351 0.950 . S
C340 H332 0.950 . S
C340 C341 1.386 . S
C340 C342 1.391 . S
C341 C340 1.386 . S
C341 C345 1.393 . S
C342 H334 0.950 . S
C342 C340 1.391 . S
C342 C343 1.400 . S
C343 C342 1.400 . S
C343 C344 1.398 . S
C343 C349 1.491 . S
C344 H335 0.950 . S
C344 C343 1.398 . S
C344 C345 1.391 . S
C345 H333 0.950 . S
C345 C341 1.393 . S
C345 C344 1.391 . S
C346 H336 0.950 . S
C346 C347 1.386 . S
C346 C348 1.391 . S
C347 C346 1.386 . S
C347 C351 1.393 . S
C348 H337 0.950 . S
C348 C346 1.391 . S
C348 C349 1.400 . S
C349 C343 1.491 . S
C349 C348 1.400 . S
C349 C350 1.398 . S
C350 H338 0.950 . S
C350 C349 1.398 . S
C350 C351 1.391 . S
C351 H339 0.950 . S
C351 C347 1.393 . S
C351 C350 1.391 . S
H352 C360 0.950 . S
H353 C365 0.950 . S
H354 C362 0.950 . S
H355 C364 0.950 . S
H356 C366 0.950 . S
H357 C368 0.950 . S
H358 C370 0.950 . S
H359 C371 0.950 . S
C360 H352 0.950 . S
C360 C361 1.386 . S
C360 C362 1.391 . S
C361 C360 1.386 . S
C361 C365 1.393 . S
C362 H354 0.950 . S
C362 C360 1.391 . S
C362 C363 1.400 . S
C363 C362 1.400 . S
C363 C364 1.398 . S
C363 C369 1.491 . S
C364 H355 0.950 . S
C364 C363 1.398 . S
C364 C365 1.391 . S
C365 H353 0.950 . S
C365 C361 1.393 . S
C365 C364 1.391 . S
C366 H356 0.950 . S
C366 C367 1.386 . S
C366 C368 1.391 . S
C367 C366 1.386 . S
C367 C371 1.393 . S
C368 H357 0.950 . S
C368 C366 1.391 . S
C368 C369 1.400 . S
C369 C363 1.491 . S
C369 C368 1.400 . S
C369 C370 1.398 . S
C370 H358 0.950 . S
C370 C369 1.398 . S
C370 C371 1.391 . S
C371 H359 0.950 . S
C371 C367 1.393 . S
C371 C370 1.391 . S
H372 C380 0.950 . S
H373 C385 0.950 . S
H374 C382 0.950 . S
H375 C384 0.950 . S
H376 C386 0.950 . S
H377 C388 0.950 . S
H378 C390 0.950 . S
H379 C391 0.950 . S
C380 H372 0.950 . S
C380 C381 1.386 . S
C380 C382 1.391 . S
C381 C380 1.386 . S
C381 C385 1.393 . S
C382 H374 0.950 . S
C382 C380 1.391 . S
C382 C383 1.400 . S
C383 C382 1.400 . S
C383 C384 1.398 . S
C383 C389 1.491 . S
C384 H375 0.950 . S
C384 C383 1.398 . S
C384 C385 1.391 . S
C385 H373 0.950 . S
C385 C381 1.393 . S
C385 C384 1.391 . S
C386 H376 0.950 . S
C386 C387 1.386 . S
C386 C388 1.391 . S
C387 C386 1.386 . S
C387 C391 1.393 . S
C388 H377 0.950 . S
C388 C386 1.391 . S
C388 C389 1.400 . S
C389 C383 1.491 . S
C389 C388 1.400 . S
C389 C390 1.398 . S
C390 H378 0.950 . S
C390 C389 1.398 . S
C390 C391 1.391 . S
C391 H379 0.950 . S
C391 C387 1.393 . S
C391 C390 1.391 . S
H392 C400 0.950 . S
H393 C405 0.950 . S
H394 C402 0.950 . S
H395 C404 0.950 . S
H396 C406 0.950 . S
H397 C408 0.950 . S
H398 C410 0.950 . S
H399 C411 0.950 . S
C400 H392 0.950 . S
C400 C401 1.386 . S
C400 C402 1.391 . S
C401 C400 1.386 . S
C401 C405 1.393 . S
C402 H394 0.950 . S
C402 C400 1.391 . S
C402 C403 1.400 . S
C403 C402 1.400 . S
C403 C404 1.398 . S
C403 C409 1.491 1_455 S
C404 H395 0.950 . S
C404 C403 1.398 . S
C404 C405 1.391 . S
C405 H393 0.950 . S
C405 C401 1.393 . S
C405 C404 1.391 . S
C406 H396 0.950 . S
C406 C407 1.386 . S
C406 C408 1.391 . S
C407 C406 1.386 . S
C407 C411 1.393 . S
C408 H397 0.950 . S
C408 C406 1.391 . S
C408 C409 1.400 . S
C409 C403 1.491 1_655 S
C409 C408 1.400 . S
C409 C410 1.398 . S
C410 H398 0.950 . S
C410 C409 1.398 . S
C410 C411 1.391 . S
C411 H399 0.950 . S
C411 C407 1.393 . S
C411 C410 1.391 . S
H412 C420 0.950 . S
H413 C425 0.950 . S
H414 C422 0.950 1_455 S
H415 C424 0.950 . S
H416 C426 0.950 . S
H417 C428 0.950 1_655 S
H418 C430 0.950 . S
H419 C431 0.950 . S
C420 H412 0.950 . S
C420 C421 1.386 . S
C420 C422 1.391 . S
C421 C420 1.386 . S
C421 C425 1.393 . S
C422 H414 0.950 1_655 S
C422 C420 1.391 . S
C422 C423 1.400 . S
C423 C422 1.400 . S
C423 C424 1.398 . S
C423 C429 1.491 1_655 S
C424 H415 0.950 . S
C424 C423 1.398 . S
C424 C425 1.391 . S
C425 H413 0.950 . S
C425 C421 1.393 . S
C425 C424 1.391 . S
C426 H416 0.950 . S
C426 C427 1.386 . S
C426 C428 1.391 . S
C427 C426 1.386 . S
C427 C431 1.393 . S
C428 H417 0.950 1_455 S
C428 C426 1.391 . S
C428 C429 1.400 . S
C429 C423 1.491 1_455 S
C429 C428 1.400 . S
C429 C430 1.398 . S
C430 H418 0.950 . S
C430 C429 1.398 . S
C430 C431 1.391 . S
C431 H419 0.950 . S
C431 C427 1.393 . S
C431 C430 1.391 . S
H432 C440 0.950 . S
H433 C445 0.950 . S
H434 C442 0.950 . S
H435 C444 0.950 . S
H436 C446 0.950 . S
H437 C448 0.950 . S
H438 C450 0.950 . S
H439 C451 0.950 . S
C440 H432 0.950 . S
C440 C441 1.386 . S
C440 C442 1.391 . S
C441 C440 1.386 . S
C441 C445 1.393 . S
C442 H434 0.950 . S
C442 C440 1.391 . S
C442 C443 1.400 . S
C443 C442 1.400 . S
C443 C444 1.398 . S
C443 C449 1.491 1_455 S
C444 H435 0.950 . S
C444 C443 1.398 . S
C444 C445 1.391 . S
C445 H433 0.950 . S
C445 C441 1.393 . S
C445 C444 1.391 . S
C446 H436 0.950 . S
C446 C447 1.386 . S
C446 C448 1.391 . S
C447 C446 1.386 . S
C447 C451 1.393 . S
C448 H437 0.950 . S
C448 C446 1.391 . S
C448 C449 1.400 . S
C449 C443 1.491 1_655 S
C449 C448 1.400 . S
C449 C450 1.398 . S
C450 H438 0.950 . S
C450 C449 1.398 . S
C450 C451 1.391 . S
C451 H439 0.950 . S
C451 C447 1.393 . S
C451 C450 1.391 . S
H452 C460 0.950 . S
H453 C465 0.950 . S
H454 C462 0.950 1_655 S
H455 C464 0.950 . S
H456 C466 0.950 . S
H457 C468 0.950 1_455 S
H458 C470 0.950 . S
H459 C471 0.950 . S
C460 H452 0.950 . S
C460 C461 1.386 . S
C460 C462 1.391 . S
C461 C460 1.386 . S
C461 C465 1.393 . S
C462 H454 0.950 1_455 S
C462 C460 1.391 . S
C462 C463 1.400 . S
C463 C462 1.400 . S
C463 C464 1.398 . S
C463 C469 1.491 1_455 S
C464 H455 0.950 . S
C464 C463 1.398 . S
C464 C465 1.391 . S
C465 H453 0.950 . S
C465 C461 1.393 . S
C465 C464 1.391 . S
C466 H456 0.950 . S
C466 C467 1.386 . S
C466 C468 1.391 . S
C467 C466 1.386 . S
C467 C471 1.393 . S
C468 H457 0.950 1_655 S
C468 C466 1.391 . S
C468 C469 1.400 . S
C469 C463 1.491 1_655 S
C469 C468 1.400 . S
C469 C470 1.398 . S
C470 H458 0.950 . S
C470 C469 1.398 . S
C470 C471 1.391 . S
C471 H459 0.950 . S
C471 C467 1.393 . S
C471 C470 1.391 . S
C161 C10 0.906 . S
C167 C27 0.906 . S
C181 C48 0.952 . S
C187 C65 0.952 . S
C201 C103 0.908 . S
C207 C86 0.908 . S
C221 C141 0.927 . S
C227 C124 0.927 . S
C241 C53 1.677 1_556 S
C247 C30 1.667 . S
C261 C144 1.689 . S
C267 C91 1.689 . S
C281 C15 1.662 1_556 S
C287 C68 1.652 . S
C301 C129 1.662 . S
C307 C106 1.662 . S
C321 C132 0.927 . S
C327 C18 0.929 . S
C341 C62 1.835 . S
C347 C100 1.835 . S
C361 C107 0.922 . S
C367 C69 0.921 . S
C381 C12 1.832 . S
C387 C126 1.832 . S
C401 C94 0.922 . S
C407 C56 0.921 . S
C421 C138 1.851 . S
C427 C24 1.851 . S
C441 C31 0.920 . S
C447 C145 0.920 . S
C461 C88 1.851 . S
C467 C50 1.851 . S
