# Generated by pormake.
# Topology wjz, (5)-cn, num edge types: 1
# Building blocks:
#     Node 0, Type 0, BuildingBlock: BEQFEK_clean_sbu_0, # of connection points: 5
#     Node 1, Type 0, BuildingBlock: BEQFEK_clean_sbu_0, # of connection points: 5
#     Node 2, Type 0, BuildingBlock: BEQFEK_clean_sbu_0, # of connection points: 5
#     Node 3, Type 0, BuildingBlock: BEQFEK_clean_sbu_0, # of connection points: 5
#     Node 4, Type 0, BuildingBlock: BEQFEK_clean_sbu_0, # of connection points: 5
#     Node 5, Type 0, BuildingBlock: BEQFEK_clean_sbu_0, # of connection points: 5
#     Node 6, Type 0, BuildingBlock: BEQFEK_clean_sbu_0, # of connection points: 5
#     Node 7, Type 0, BuildingBlock: BEQFEK_clean_sbu_0, # of connection points: 5
#     Node 8, Type 0, BuildingBlock: BEQFEK_clean_sbu_0, # of connection points: 5
#     Node 9, Type 0, BuildingBlock: BEQFEK_clean_sbu_0, # of connection points: 5
#     Node 10, Type 0, BuildingBlock: BEQFEK_clean_sbu_0, # of connection points: 5
#     Node 11, Type 0, BuildingBlock: BEQFEK_clean_sbu_0, # of connection points: 5
#     Edge 12, Type (0, 0), BuildingBlock: UVAHIK_clean_linker_0, # of connection points: 2
#     Edge 13, Type (0, 0), BuildingBlock: UVAHIK_clean_linker_0, # of connection points: 2
#     Edge 14, Type (0, 0), BuildingBlock: UVAHIK_clean_linker_0, # of connection points: 2
#     Edge 15, Type (0, 0), BuildingBlock: UVAHIK_clean_linker_0, # of connection points: 2
#     Edge 16, Type (0, 0), BuildingBlock: UVAHIK_clean_linker_0, # of connection points: 2
#     Edge 17, Type (0, 0), BuildingBlock: UVAHIK_clean_linker_0, # of connection points: 2
#     Edge 18, Type (0, 0), BuildingBlock: UVAHIK_clean_linker_0, # of connection points: 2
#     Edge 19, Type (0, 0), BuildingBlock: UVAHIK_clean_linker_0, # of connection points: 2
#     Edge 20, Type (0, 0), BuildingBlock: UVAHIK_clean_linker_0, # of connection points: 2
#     Edge 21, Type (0, 0), BuildingBlock: UVAHIK_clean_linker_0, # of connection points: 2
#     Edge 22, Type (0, 0), BuildingBlock: UVAHIK_clean_linker_0, # of connection points: 2
#     Edge 23, Type (0, 0), BuildingBlock: UVAHIK_clean_linker_0, # of connection points: 2
#     Edge 24, Type (0, 0), BuildingBlock: UVAHIK_clean_linker_0, # of connection points: 2
#     Edge 25, Type (0, 0), BuildingBlock: UVAHIK_clean_linker_0, # of connection points: 2
#     Edge 26, Type (0, 0), BuildingBlock: UVAHIK_clean_linker_0, # of connection points: 2
#     Edge 27, Type (0, 0), BuildingBlock: UVAHIK_clean_linker_0, # of connection points: 2
#     Edge 28, Type (0, 0), BuildingBlock: UVAHIK_clean_linker_0, # of connection points: 2
#     Edge 29, Type (0, 0), BuildingBlock: UVAHIK_clean_linker_0, # of connection points: 2
#     Edge 30, Type (0, 0), BuildingBlock: UVAHIK_clean_linker_0, # of connection points: 2
#     Edge 31, Type (0, 0), BuildingBlock: UVAHIK_clean_linker_0, # of connection points: 2
#     Edge 32, Type (0, 0), BuildingBlock: UVAHIK_clean_linker_0, # of connection points: 2
#     Edge 33, Type (0, 0), BuildingBlock: UVAHIK_clean_linker_0, # of connection points: 2
#     Edge 34, Type (0, 0), BuildingBlock: UVAHIK_clean_linker_0, # of connection points: 2
#     Edge 35, Type (0, 0), BuildingBlock: UVAHIK_clean_linker_0, # of connection points: 2
#     Edge 36, Type (0, 0), BuildingBlock: UVAHIK_clean_linker_0, # of connection points: 2
#     Edge 37, Type (0, 0), BuildingBlock: UVAHIK_clean_linker_0, # of connection points: 2
#     Edge 38, Type (0, 0), BuildingBlock: UVAHIK_clean_linker_0, # of connection points: 2
#     Edge 39, Type (0, 0), BuildingBlock: UVAHIK_clean_linker_0, # of connection points: 2
#     Edge 40, Type (0, 0), BuildingBlock: UVAHIK_clean_linker_0, # of connection points: 2
#     Edge 41, Type (0, 0), BuildingBlock: UVAHIK_clean_linker_0, # of connection points: 2
# Relax obj value: 0.200
# Max RMSD: 0.187
# Mean RMSD: 0.187
data_MOF--net-wjz--node1-BEQFEK_clean_sbu_0--edge1-UVAHIK_clean_linker_0
_symmetry_space_group_name_H-M    P1
_symmetry_Int_Tables_number       1
_symmetry_cell_setting            triclinic
loop_
_symmetry_equiv_pos_as_xyz
'x, y, z'
_cell_length_a     92.429535
_cell_length_b     92.402766
_cell_length_c     22.740315
_cell_angle_alpha  89.980276
_cell_angle_beta   89.996396
_cell_angle_gamma 120.00239
loop_
_atom_site_label
_atom_site_type_symbol
_atom_site_fract_x
_atom_site_fract_y
_atom_site_fract_z
_atom_type_partial_charge
Co0 Co 0.33645 0.45717 0.07447 0.0
Co1 Co 0.3515 0.47298 0.19613 0.0
C2 C 0.35278 0.44311 0.14882 0.0
O3 O 0.345 0.44258 0.10201 0.0
O4 O 0.35604 0.45417 0.18797 0.0
C5 C 0.3244 0.43713 0.96957 0.0
O6 O 0.33125 0.42882 0.99148 0.0
C7 C 0.3523 0.47096 0.32241 0.0
C8 C 0.3639 0.49732 0.35058 0.0
C9 C 0.35655 0.48108 0.37163 0.0
N10 N 0.35686 0.48073 0.27452 0.0
N11 N 0.36407 0.4965 0.29145 0.0
C12 C 0.34203 0.45228 0.32024 0.0
H13 H 0.33563 0.44808 0.27717 0.0
H14 H 0.33258 0.44747 0.35597 0.0
H15 H 0.35035 0.44695 0.32617 0.0
C16 C 0.30622 0.455 0.12741 0.0
N17 N 0.32229 0.45879 0.13041 0.0
N18 N 0.32864 0.46597 0.18119 0.0
C19 C 0.31682 0.4672 0.21195 0.0
C20 C 0.30222 0.46023 0.17897 0.0
C21 C 0.29548 0.44779 0.07408 0.0
H22 H 0.30133 0.45645 0.03645 0.0
H23 H 0.29478 0.43578 0.06258 0.0
H24 H 0.2827 0.44572 0.08093 0.0
O25 O 0.35551 0.47964 0.05613 0.0
O26 O 0.36625 0.49136 0.14224 0.0
H27 H 0.33096 0.48731 0.27189 0.0
H28 H 0.30874 0.4763 0.28603 0.0
C29 C 0.31944 0.4749 0.27177 0.0
H30 H 0.32092 0.46679 0.30416 0.0
H31 H 0.3684 0.50663 0.26267 0.0
O32 O 0.32462 0.44886 -0.00069 0.0
C33 C 0.36623 0.49196 0.08628 0.0
Co34 Co 0.87576 0.33848 0.24002 0.0
Co35 Co 0.87612 0.3535 0.36306 0.0
C36 C 0.90666 0.35431 0.31115 0.0
O37 O 0.89905 0.34667 0.26463 0.0
O38 O 0.89922 0.35763 0.35147 0.0
C39 C 0.88178 0.32336 0.13891 0.0
O40 O 0.89535 0.32606 0.16681 0.0
C41 C 0.88006 0.35299 0.4883 0.0
C42 C 0.86746 0.36614 0.52324 0.0
C43 C 0.87559 0.35761 0.54011 0.0
N44 N 0.87482 0.35849 0.44304 0.0
N45 N 0.86751 0.36657 0.46398 0.0
C46 C 0.88725 0.34171 0.48129 0.0
H47 H 0.88413 0.33566 0.43743 0.0
H48 H 0.88246 0.33195 0.51597 0.0
H49 H 0.90104 0.34921 0.48529 0.0
C50 C 0.84803 0.30827 0.29451 0.0
N51 N 0.86035 0.32433 0.29685 0.0
N52 N 0.85984 0.33077 0.34784 0.0
C53 C 0.84687 0.31906 0.37925 0.0
C54 C 0.83906 0.3044 0.34663 0.0
C55 C 0.84427 0.29737 0.24152 0.0
H56 H 0.84111 0.303 0.20414 0.0
H57 H 0.85558 0.2968 0.22905 0.0
H58 H 0.83372 0.28455 0.2494 0.0
O59 O 0.87257 0.3578 0.22488 0.0
O60 O 0.87245 0.36874 0.3116 0.0
H61 H 0.84231 0.33395 0.44054 0.0
H62 H 0.82946 0.31171 0.45235 0.0
C63 C 0.84203 0.32183 0.43926 0.0
H64 H 0.8511 0.32217 0.47184 0.0
H65 H 0.86202 0.37182 0.43792 0.0
O66 O 0.87171 0.32701 0.16376 0.0
C67 C 0.87143 0.36869 0.2557 0.0
Co68 Co 0.53639 0.87776 0.40777 0.0
Co69 Co 0.52112 0.8781 0.52949 0.0
C70 C 0.55149 0.90848 0.48048 0.0
O71 O 0.5516 0.90087 0.43404 0.0
O72 O 0.54046 0.90113 0.52013 0.0
C73 C 0.55647 0.88464 0.30326 0.0
O74 O 0.56565 0.89966 0.32558 0.0
C75 C 0.52345 0.88117 0.65572 0.0
C76 C 0.49708 0.86739 0.68442 0.0
C77 C 0.51337 0.8757 0.70516 0.0
N78 N 0.51361 0.87626 0.60803 0.0
N79 N 0.49784 0.8683 0.62527 0.0
C80 C 0.54207 0.88888 0.65314 0.0
H81 H 0.54599 0.88641 0.60995 0.0
H82 H 0.54659 0.88391 0.68873 0.0
H83 H 0.54792 0.90259 0.65898 0.0
C84 C 0.53775 0.84946 0.46221 0.0
N85 N 0.53436 0.86201 0.4645 0.0
N86 N 0.52733 0.86159 0.51524 0.0
C87 C 0.52576 0.84848 0.54666 0.0
C88 C 0.5324 0.84044 0.51419 0.0
C89 C 0.54477 0.84552 0.40926 0.0
H90 H 0.53616 0.84278 0.37158 0.0
H91 H 0.55691 0.85663 0.39743 0.0
H92 H 0.54655 0.83465 0.41674 0.0
O93 O 0.51421 0.87506 0.38986 0.0
O94 O 0.50285 0.87496 0.47587 0.0
H95 H 0.50603 0.84359 0.60709 0.0
H96 H 0.51605 0.83141 0.6209 0.0
C97 C 0.5181 0.84376 0.60665 0.0
H98 H 0.52659 0.85316 0.63885 0.0
H99 H 0.48765 0.86282 0.5967 0.0
O100 O 0.54423 0.8736 0.33264 0.0
C101 C 0.50214 0.87409 0.41996 0.0
Co102 Co 0.65695 0.5382 0.5729 0.0
Co103 Co 0.64175 0.52269 0.69483 0.0
C104 C 0.64053 0.55244 0.64589 0.0
O105 O 0.64832 0.55281 0.59927 0.0
O106 O 0.63727 0.54151 0.68559 0.0
C107 C 0.66963 0.55841 0.46843 0.0
O108 O 0.66331 0.56717 0.49074 0.0
C109 C 0.641 0.52498 0.82105 0.0
C110 C 0.62914 0.49864 0.84983 0.0
C111 C 0.63669 0.51493 0.87052 0.0
N112 N 0.6363 0.51513 0.77339 0.0
N113 N 0.62893 0.49937 0.79068 0.0
C114 C 0.65144 0.54364 0.81842 0.0
H115 H 0.65775 0.54771 0.77514 0.0
H116 H 0.66097 0.54841 0.85387 0.0
H117 H 0.64325 0.54912 0.82449 0.0
C118 C 0.68717 0.54069 0.62724 0.0
N119 N 0.67106 0.53678 0.62957 0.0
N120 N 0.66461 0.52964 0.68034 0.0
C121 C 0.6764 0.52848 0.71165 0.0
C122 C 0.69108 0.53553 0.67914 0.0
C123 C 0.69809 0.54803 0.57438 0.0
H124 H 0.69258 0.53928 0.53683 0.0
H125 H 0.69851 0.55986 0.56215 0.0
H126 H 0.71096 0.55046 0.58227 0.0
O127 O 0.63793 0.51566 0.555 0.0
O128 O 0.62707 0.5042 0.64135 0.0
H129 H 0.66197 0.50849 0.77177 0.0
H130 H 0.68419 0.51903 0.78546 0.0
C131 C 0.67367 0.52075 0.77147 0.0
H132 H 0.67249 0.52903 0.80395 0.0
H133 H 0.62446 0.48919 0.76214 0.0
O134 O 0.66887 0.54636 0.49777 0.0
C135 C 0.62716 0.50343 0.58545 0.0
Co136 Co 0.11722 0.65735 0.73393 0.0
Co137 Co 0.11652 0.64274 0.85783 0.0
C138 C 0.0861 0.6417 0.80246 0.0
O139 O 0.09386 0.64941 0.75628 0.0
O140 O 0.09345 0.63839 0.84317 0.0
C141 C 0.1125 0.67382 0.63453 0.0
O142 O 0.09972 0.67256 0.66419 0.0
C143 C 0.11436 0.64665 0.98254 0.0
C144 C 0.12165 0.62936 0.02183 0.0
C145 C 0.11725 0.64126 0.03568 0.0
N146 N 0.1173 0.63863 0.9391 0.0
N147 N 0.12152 0.62819 0.96269 0.0
C148 C 0.10841 0.65889 0.97304 0.0
H149 H 0.10231 0.65701 0.9297 0.0
H150 H 0.11916 0.67181 0.97407 0.0
H151 H 0.09957 0.65767 0.00834 0.0
C152 C 0.14494 0.68769 0.78785 0.0
N153 N 0.13242 0.67172 0.7908 0.0
N154 N 0.1331 0.66525 0.8415 0.0
C155 C 0.14657 0.67672 0.87154 0.0
C156 C 0.15432 0.69137 0.83891 0.0
C157 C 0.14862 0.69861 0.73494 0.0
H158 H 0.15204 0.69315 0.69769 0.0
H159 H 0.13721 0.69897 0.72216 0.0
H160 H 0.159 0.7115 0.74313 0.0
O161 O 0.1204 0.63782 0.72144 0.0
O162 O 0.12047 0.62727 0.80918 0.0
H163 H 0.14931 0.66024 0.93154 0.0
H164 H 0.16616 0.68157 0.93422 0.0
C165 C 0.15249 0.67347 0.92879 0.0
H166 H 0.14643 0.67625 0.96564 0.0
H167 H 0.12455 0.62048 0.93849 0.0
O168 O 0.12163 0.66867 0.65743 0.0
C169 C 0.12155 0.62709 0.75332 0.0
Co170 Co 0.45575 0.11724 0.90492 0.0
Co171 Co 0.4718 0.11779 0.02581 0.0
C172 C 0.44137 0.08691 0.97925 0.0
O173 O 0.44053 0.09427 0.93319 0.0
O174 O 0.45291 0.09455 0.01701 0.0
C175 C 0.43601 0.10974 0.79955 0.0
O176 O 0.42754 0.09454 0.82107 0.0
C177 C 0.46942 0.11509 0.15182 0.0
C178 C 0.49574 0.12883 0.18101 0.0
C179 C 0.47941 0.1206 0.20142 0.0
N180 N 0.47934 0.11987 0.10434 0.0
N181 N 0.49508 0.12783 0.12186 0.0
C182 C 0.4508 0.10732 0.14877 0.0
H183 H 0.44697 0.10984 0.1055 0.0
H184 H 0.44616 0.11218 0.18432 0.0
H185 H 0.44499 0.0936 0.15425 0.0
C186 C 0.45402 0.14545 0.95844 0.0
N187 N 0.45789 0.13322 0.96068 0.0
N188 N 0.46489 0.13377 0.01161 0.0
C189 C 0.46576 0.14651 0.04345 0.0
C190 C 0.45881 0.15421 0.01092 0.0
C191 C 0.44576 0.14847 0.90711 0.0
H192 H 0.43478 0.1365 0.89319 0.0
H193 H 0.44169 0.15761 0.91787 0.0
H194 H 0.45465 0.15327 0.8697 0.0
O195 O 0.47796 0.11996 0.88639 0.0
O196 O 0.4901 0.12131 0.97193 0.0
H197 H 0.47729 0.16509 0.11198 0.0
H198 H 0.4657 0.14378 0.13675 0.0
C199 C 0.47418 0.1521 0.10195 0.0
H200 H 0.48582 0.15144 0.10246 0.0
H201 H 0.50532 0.13322 0.09346 0.0
O202 O 0.44773 0.12112 0.82971 0.0
C203 C 0.49039 0.12159 0.91594 0.0
Co204 Co 0.53683 0.65694 0.78635 0.0
Co205 Co 0.5208 0.64184 0.66513 0.0
C206 C 0.55072 0.64046 0.71421 0.0
O207 O 0.55163 0.64853 0.76062 0.0
O208 O 0.53946 0.63713 0.6758 0.0
C209 C 0.55688 0.67026 0.89116 0.0
O210 O 0.56616 0.66442 0.86986 0.0
C211 C 0.52426 0.64431 0.5389 0.0
C212 C 0.49827 0.62935 0.50711 0.0
C213 C 0.51455 0.63983 0.48854 0.0
N214 N 0.51415 0.63726 0.58529 0.0
N215 N 0.49865 0.62812 0.5661 0.0
C216 C 0.54288 0.65511 0.54323 0.0
H217 H 0.5478 0.65102 0.57993 0.0
H218 H 0.54618 0.66821 0.5521 0.0
H219 H 0.54904 0.65473 0.50185 0.0
C220 C 0.53922 0.68723 0.73332 0.0
N221 N 0.53543 0.67116 0.73024 0.0
N222 N 0.52753 0.66459 0.68071 0.0
C223 C 0.52548 0.67616 0.65151 0.0
C224 C 0.53302 0.69092 0.68357 0.0
C225 C 0.54721 0.69824 0.78551 0.0
H226 H 0.53844 0.6934 0.82326 0.0
H227 H 0.55863 0.69786 0.79791 0.0
H228 H 0.55046 0.71134 0.77672 0.0
O229 O 0.51422 0.63777 0.80311 0.0
O230 O 0.50209 0.62697 0.71746 0.0
H231 H 0.50489 0.66016 0.59555 0.0
H232 H 0.51145 0.68204 0.58883 0.0
C233 C 0.51583 0.67298 0.59544 0.0
H234 H 0.52397 0.67428 0.55774 0.0
H235 H 0.48829 0.62153 0.59336 0.0
O236 O 0.54458 0.66877 0.86148 0.0
C237 C 0.50172 0.62707 0.77347 0.0
Co238 Co 0.87921 0.54048 0.95427 0.0
Co239 Co 0.87714 0.52371 0.83347 0.0
C240 C 0.9088 0.55395 0.87655 0.0
O241 O 0.90208 0.55492 0.92409 0.0
O242 O 0.90056 0.54255 0.83892 0.0
C243 C 0.88827 0.55979 0.06063 0.0
O244 O 0.90358 0.56661 0.04013 0.0
C245 C 0.87913 0.52524 0.70715 0.0
C246 C 0.86427 0.4988 0.67986 0.0
C247 C 0.87313 0.51499 0.65832 0.0
N248 N 0.87409 0.51561 0.75537 0.0
N249 N 0.86542 0.49978 0.73899 0.0
C250 C 0.88755 0.54392 0.70857 0.0
H251 H 0.88554 0.54828 0.75163 0.0
H252 H 0.88274 0.54859 0.67292 0.0
H253 H 0.90116 0.54922 0.70179 0.0
C254 C 0.85082 0.54255 0.90376 0.0
N255 N 0.86294 0.53856 0.89993 0.0
N256 N 0.86154 0.53092 0.84972 0.0
C257 C 0.84824 0.52953 0.82028 0.0
C258 C 0.84108 0.53693 0.85344 0.0
C259 C 0.84795 0.55039 0.95672 0.0
H260 H 0.84502 0.5419 -0.00506 0.0
H261 H 0.85957 0.56223 0.96716 0.0
H262 H 0.83753 0.55292 0.94999 0.0
O263 O 0.87592 0.51809 0.97359 0.0
O264 O 0.87389 0.50564 0.88815 0.0
H265 H 0.84159 0.50884 0.76241 0.0
H266 H 0.83018 0.5197 0.74896 0.0
C267 C 0.84245 0.52124 0.76162 0.0
H268 H 0.85165 0.52902 0.72761 0.0
H269 H 0.85975 0.48973 0.76813 0.0
O270 O 0.87625 0.54918 0.0294 0.0
C271 C 0.87389 0.50549 0.94416 0.0
Co272 Co 0.33669 0.8794 0.11803 0.0
Co273 Co 0.35208 0.87818 -0.00228 0.0
C274 C 0.35232 0.90923 0.04139 0.0
O275 O 0.34416 0.90211 0.08779 0.0
O276 O 0.35628 0.90143 0.00454 0.0
C277 C 0.32591 0.88787 0.2243 0.0
O278 O 0.33395 0.90318 0.20351 0.0
C279 C 0.35296 0.8808 0.87157 0.0
C280 C 0.36467 0.86612 0.84375 0.0
C281 C 0.35729 0.87496 0.82249 0.0
N282 N 0.35751 0.87565 0.91958 0.0
N283 N 0.36478 0.86712 0.90289 0.0
C284 C 0.34264 0.88916 0.87356 0.0
H285 H 0.33577 0.88646 0.91584 0.0
H286 H 0.33357 0.88492 0.83666 0.0
H287 H 0.35101 0.90288 0.86982 0.0
C288 C 0.30686 0.85052 0.06663 0.0
N289 N 0.32283 0.86299 0.06338 0.0
N290 N 0.32932 0.86206 0.01303 0.0
C291 C 0.31769 0.84874 0.98283 0.0
C292 C 0.30307 0.84104 0.01572 0.0
C293 C 0.29598 0.84715 0.11948 0.0
H294 H 0.30186 0.84471 0.15789 0.0
H295 H 0.29505 0.8584 0.12958 0.0
H296 H 0.2833 0.83626 0.11285 0.0
O297 O 0.35635 0.87698 0.13749 0.0
O298 O 0.36698 0.87515 0.05224 0.0
H299 H 0.33204 0.84274 0.9241 0.0
H300 H 0.30985 0.83136 0.90942 0.0
C301 C 0.32047 0.84353 0.92348 0.0
H302 H 0.32198 0.85303 0.89059 0.0
H303 H 0.36913 0.86138 0.93182 0.0
O304 O 0.32486 0.87598 0.19319 0.0
C305 C 0.36713 0.87523 0.10822 0.0
Co306 Co 0.4559 0.33797 0.29366 0.0
Co307 Co 0.47152 0.35253 0.17147 0.0
C308 C 0.44223 0.35476 0.22158 0.0
O309 O 0.44136 0.34676 0.26819 0.0
O310 O 0.45327 0.35778 0.18261 0.0
C311 C 0.4356 0.3245 0.39796 0.0
O312 O 0.42618 0.33011 0.37605 0.0
C313 C 0.46778 0.34978 0.04544 0.0
C314 C 0.49372 0.36449 0.0129 0.0
C315 C 0.47738 0.35408 -0.00518 0.0
N316 N 0.478 0.35689 0.09148 0.0
N317 N 0.49348 0.36587 0.07185 0.0
C318 C 0.44916 0.33916 0.05034 0.0
H319 H 0.44443 0.34323 0.08773 0.0
H320 H 0.44569 0.32599 0.0584 0.0
H321 H 0.44296 0.33979 0.00939 0.0
C322 C 0.4525 0.30722 0.24091 0.0
N323 N 0.45677 0.32342 0.23775 0.0
N324 N 0.46416 0.32965 0.18714 0.0
C325 C 0.46514 0.3176 0.15686 0.0
C326 C 0.45758 0.30299 0.18959 0.0
C327 C 0.44394 0.29615 0.29249 0.0
H328 H 0.43343 0.29787 0.30691 0.0
H329 H 0.43916 0.2828 0.28172 0.0
H330 H 0.45292 0.29981 0.32951 0.0
O331 O 0.4787 0.35685 0.30949 0.0
O332 O 0.49055 0.36721 0.22308 0.0
H333 H 0.4796 0.3114 0.09814 0.0
H334 H 0.46686 0.3184 0.06292 0.0
C335 C 0.47497 0.32038 0.10147 0.0
H336 H 0.48579 0.33326 0.10026 0.0
H337 H 0.50391 0.37246 0.0988 0.0
O338 O 0.44812 0.32628 0.36901 0.0
C339 C 0.49116 0.36729 0.27907 0.0
Co340 Co 0.11441 0.45535 0.45493 0.0
Co341 Co 0.1158 0.47203 0.3346 0.0
C342 C 0.08427 0.44196 0.3819 0.0
O343 O 0.09127 0.44072 0.42822 0.0
O344 O 0.09235 0.45344 0.34431 0.0
C345 C 0.10705 0.43567 0.56073 0.0
O346 O 0.09172 0.42719 0.54039 0.0
C347 C 0.11503 0.469 0.20826 0.0
C348 C 0.12621 0.49509 0.17736 0.0
C349 C 0.12036 0.47885 0.15823 0.0
N350 N 0.11806 0.47898 0.255 0.0
N351 N 0.12453 0.49455 0.23634 0.0
C352 C 0.10713 0.45035 0.21193 0.0
H353 H 0.11688 0.44696 0.22034 0.0
H354 H 0.10056 0.44433 0.17043 0.0
H355 H 0.09812 0.44535 0.24864 0.0
C356 C 0.14232 0.45298 0.40184 0.0
N357 N 0.13015 0.45693 0.39902 0.0
N358 N 0.13166 0.46508 0.34993 0.0
C359 C 0.14529 0.46715 0.32082 0.0
C360 C 0.15233 0.45935 0.35242 0.0
C361 C 0.1451 0.44464 0.4535 0.0
H362 H 0.14909 0.45325 0.49171 0.0
H363 H 0.13319 0.43327 0.4654 0.0
H364 H 0.15482 0.44123 0.44436 0.0
O365 O 0.11788 0.47793 0.47278 0.0
O366 O 0.11967 0.49057 0.38784 0.0
H367 H 0.15009 0.48799 0.26577 0.0
H368 H 0.16536 0.48138 0.25887 0.0
C369 C 0.15192 0.47702 0.26521 0.0
H370 H 0.14515 0.46904 0.22711 0.0
H371 H 0.12829 0.50484 0.26395 0.0
O372 O 0.11827 0.44733 0.5299 0.0
C373 C 0.1199 0.49063 0.44387 0.0
Co374 Co 0.65609 0.11614 0.62193 0.0
Co375 Co 0.64154 0.11726 0.49974 0.0
C376 C 0.64041 0.08607 0.54617 0.0
O377 O 0.64785 0.09311 0.5937 0.0
O378 O 0.63729 0.09399 0.50706 0.0
C379 C 0.66816 0.10811 0.72688 0.0
O380 O 0.6614 0.09294 0.70502 0.0
C381 C 0.64142 0.11496 0.3735 0.0
C382 C 0.62951 0.1294 0.34486 0.0
C383 C 0.63719 0.12079 0.32415 0.0
N384 N 0.6365 0.11988 0.42119 0.0
N385 N 0.62914 0.12828 0.40399 0.0
C386 C 0.65194 0.10683 0.37603 0.0
H387 H 0.65816 0.10899 0.41944 0.0
H388 H 0.66155 0.11175 0.34082 0.0
H389 H 0.64384 0.09318 0.36941 0.0
C390 C 0.68648 0.14446 0.57072 0.0
N391 N 0.67044 0.13216 0.5669 0.0
N392 N 0.66424 0.13321 0.51607 0.0
C393 C 0.67611 0.14646 0.48623 0.0
C394 C 0.6906 0.15394 0.51976 0.0
C395 C 0.69712 0.14773 0.62419 0.0
H396 H 0.69138 0.15072 0.6617 0.0
H397 H 0.69751 0.13627 0.63577 0.0
H398 H 0.71001 0.15825 0.61739 0.0
O399 O 0.63684 0.11931 0.63961 0.0
O400 O 0.62643 0.12047 0.553 0.0
H401 H 0.66192 0.15247 0.42665 0.0
H402 H 0.68421 0.16429 0.4142 0.0
C403 C 0.67363 0.15193 0.42691 0.0
H404 H 0.67259 0.14274 0.39353 0.0
H405 H 0.6245 0.13382 0.4326 0.0
O406 O 0.66776 0.11955 0.69731 0.0
C407 C 0.62618 0.12089 0.60895 0.0
C408 C 0.35314 0.4625 0.45653 0.0
C409 C 0.35163 0.4757 0.43286 0.0
C410 C 0.34727 0.4566 0.51304 0.0
C411 C 0.33591 0.46873 0.65242 0.0
H412 H 0.31446 0.42123 0.68564 0.0
C413 C 0.31318 0.44507 0.88341 0.0
C414 C 0.3201 0.43576 0.90656 0.0
C415 C 0.31296 0.4473 0.82286 0.0
C416 C 0.32038 0.43451 0.67685 0.0
H417 H 0.34315 0.49333 0.44939 0.0
H418 H 0.33268 0.48294 0.54796 0.0
H419 H 0.32311 0.43125 0.58513 0.0
H420 H 0.33048 0.41996 0.88432 0.0
H421 H 0.33018 0.42395 0.7785 0.0
H422 H 0.33341 0.47205 0.74399 0.0
C423 C 0.33855 0.47722 0.52332 0.0
C424 C 0.32543 0.44027 0.6195 0.0
C425 C 0.34455 0.4832 0.46698 0.0
C426 C 0.32519 0.42731 0.86783 0.0
C427 C 0.32497 0.42956 0.80715 0.0
C428 C 0.33077 0.46298 0.7095 0.0
C429 C 0.33974 0.46378 0.54685 0.0
C430 C 0.33347 0.45748 0.60687 0.0
C431 C 0.31962 0.44024 0.7844 0.0
C432 C 0.32315 0.44584 0.72247 0.0
H433 H 0.35887 0.45675 0.43137 0.0
H434 H 0.34876 0.44651 0.53039 0.0
H435 H 0.3423 0.48208 0.64448 0.0
H436 H 0.30889 0.4515 0.91214 0.0
H437 H 0.30843 0.4553 0.80631 0.0
C438 C 0.89333 0.32101 0.04213 0.0
C439 C 0.87986 0.31956 0.0754 0.0
C440 C 0.89277 0.32115 0.98073 0.0
C441 C 0.86511 0.31455 0.85237 0.0
H442 H 0.90431 0.35352 0.79017 0.0
C443 C 0.86342 0.34717 0.63942 0.0
C444 C 0.8769 0.35248 0.60039 0.0
C445 C 0.86407 0.3411 0.69501 0.0
C446 C 0.89337 0.34244 0.8065 0.0
H447 H 0.8546 0.31538 0.07067 0.0
H448 H 0.85369 0.31578 0.96405 0.0
H449 H 0.90459 0.34457 0.89053 0.0
H450 H 0.90199 0.35661 0.58986 0.0
H451 H 0.90306 0.34581 0.68669 0.0
H452 H 0.85372 0.3128 0.76872 0.0
C453 C 0.86469 0.31683 0.985 0.0
C454 C 0.89355 0.33724 0.86397 0.0
C455 C 0.86526 0.31672 0.04624 0.0
C456 C 0.89126 0.3522 0.61859 0.0
C457 C 0.89194 0.34617 0.6742 0.0
C458 C 0.86492 0.31976 0.79488 0.0
C459 C 0.8787 0.31976 0.95165 0.0
C460 C 0.8793 0.32346 0.88797 0.0
C461 C 0.87827 0.34038 0.71275 0.0
C462 C 0.87893 0.33398 0.77183 0.0
H463 H 0.9047 0.32308 0.06334 0.0
H464 H 0.90364 0.32312 0.95608 0.0
H465 H 0.85401 0.30376 0.86943 0.0
H466 H 0.85222 0.34732 0.62646 0.0
H467 H 0.85348 0.33706 0.72424 0.0
C468 C 0.54755 0.86554 0.21678 0.0
C469 C 0.55763 0.88161 0.2402 0.0
C470 C 0.54527 0.86325 0.1562 0.0
C471 C 0.55907 0.88347 0.01047 0.0
H472 H 0.51149 0.86016 0.97789 0.0
C473 C 0.53237 0.89019 0.78989 0.0
C474 C 0.51868 0.87586 0.76631 0.0
C475 C 0.53809 0.88987 0.84639 0.0
C476 C 0.52482 0.86645 0.98589 0.0
H477 H 0.5747 0.90759 0.21841 0.0
H478 H 0.57062 0.9036 0.11251 0.0
H479 H 0.52118 0.86061 0.0774 0.0
H480 H 0.50002 0.85006 0.78301 0.0
H481 H 0.51008 0.84937 0.88152 0.0
H482 H 0.56265 0.88949 0.91878 0.0
C483 C 0.56445 0.89278 0.14098 0.0
C484 C 0.53039 0.86667 0.04297 0.0
C485 C 0.56675 0.89507 0.20169 0.0
C486 C 0.51054 0.86131 0.8005 0.0
C487 C 0.51632 0.86093 0.85683 0.0
C488 C 0.55349 0.88316 0.9531 0.0
C489 C 0.55305 0.87699 0.11797 0.0
C490 C 0.54754 0.87534 0.05602 0.0
C491 C 0.53023 0.87518 0.8803 0.0
C492 C 0.53629 0.87483 0.94038 0.0
H493 H 0.54058 0.85486 0.24535 0.0
H494 H 0.5367 0.85088 0.13946 0.0
H495 H 0.57236 0.89018 0.01932 0.0
H496 H 0.53864 0.90166 0.76468 0.0
H497 H 0.54857 0.90117 0.8637 0.0
C498 C 0.6406 0.53374 0.95521 0.0
C499 C 0.64177 0.52034 0.93161 0.0
C500 C 0.64657 0.5396 0.01167 0.0
C501 C 0.65748 0.527 0.15105 0.0
H502 H 0.67978 0.57452 0.18456 0.0
C503 C 0.68049 0.55017 0.38206 0.0
C504 C 0.67392 0.55976 0.40542 0.0
C505 C 0.68065 0.54797 0.32148 0.0
C506 C 0.67362 0.56123 0.17568 0.0
H507 H 0.64979 0.50234 0.94819 0.0
H508 H 0.66041 0.51265 0.04662 0.0
H509 H 0.671 0.56466 0.084 0.0
H510 H 0.66412 0.57608 0.38353 0.0
H511 H 0.6643 0.57213 0.27764 0.0
H512 H 0.65985 0.52352 0.24256 0.0
C513 C 0.65473 0.51855 0.02199 0.0
C514 C 0.6685 0.55556 0.1183 0.0
C515 C 0.64865 0.51263 0.96572 0.0
C516 C 0.66914 0.56851 0.36687 0.0
C517 C 0.66929 0.56629 0.30615 0.0
C518 C 0.66268 0.53266 0.20814 0.0
C519 C 0.65385 0.53217 0.0455 0.0
C520 C 0.66015 0.53836 0.10556 0.0
C521 C 0.67427 0.55534 0.28319 0.0
C522 C 0.67062 0.54981 0.22122 0.0
H523 H 0.63504 0.53967 0.93007 0.0
H524 H 0.64532 0.54983 0.02901 0.0
H525 H 0.65084 0.51366 0.14304 0.0
H526 H 0.68455 0.5435 0.41067 0.0
H527 H 0.68491 0.53976 0.30478 0.0
C528 C 0.12354 0.66464 0.10493 0.0
C529 C 0.11673 0.64745 0.09488 0.0
C530 C 0.12283 0.67051 0.1607 0.0
C531 C 0.129 0.67957 0.2903 0.0
H532 H 0.08936 0.65481 0.38624 0.0
C533 C 0.12887 0.68056 0.54163 0.0
C534 C 0.1145 0.6781 0.57148 0.0
C535 C 0.12941 0.68098 0.4804 0.0
C536 C 0.10041 0.66208 0.35966 0.0
H537 H 0.10442 0.62295 0.13518 0.0
H538 H 0.10332 0.6332 0.23334 0.0
H539 H 0.08929 0.64637 0.28474 0.0
H540 H 0.0901 0.67577 0.56104 0.0
H541 H 0.09109 0.67655 0.45367 0.0
H542 H 0.14022 0.6951 0.36567 0.0
C543 C 0.10883 0.64211 0.1977 0.0
C544 C 0.10045 0.65708 0.30184 0.0
C545 C 0.10959 0.63624 0.14184 0.0
C546 C 0.10129 0.67755 0.53918 0.0
C547 C 0.1018 0.67789 0.47777 0.0
C548 C 0.12898 0.68456 0.34822 0.0
C549 C 0.11539 0.6593 0.20759 0.0
C550 C 0.11487 0.66553 0.26705 0.0
C551 C 0.1156 0.67893 0.44784 0.0
C552 C 0.11481 0.67562 0.38389 0.0
H553 H 0.12966 0.67361 0.06999 0.0
H554 H 0.12802 0.68382 0.16703 0.0
H555 H 0.14032 0.6863 0.26456 0.0
H556 H 0.13933 0.68121 0.56542 0.0
H557 H 0.14019 0.68172 0.45869 0.0
C558 C 0.44446 0.12904 0.71359 0.0
C559 C 0.43477 0.11283 0.73657 0.0
C560 C 0.4467 0.13152 0.65306 0.0
C561 C 0.43329 0.11166 0.50682 0.0
H562 H 0.48085 0.13591 0.47402 0.0
C563 C 0.46036 0.10591 0.28579 0.0
C564 C 0.47398 0.12035 0.26243 0.0
C565 C 0.45454 0.10609 0.34227 0.0
C566 C 0.46752 0.12937 0.48207 0.0
H567 H 0.41833 0.08679 0.71405 0.0
H568 H 0.42233 0.09114 0.60824 0.0
H569 H 0.47108 0.13501 0.57373 0.0
H570 H 0.4924 0.1462 0.2794 0.0
H571 H 0.48216 0.14665 0.37787 0.0
H572 H 0.42977 0.10584 0.415 0.0
C573 C 0.42823 0.1019 0.63703 0.0
C574 C 0.46191 0.12888 0.53928 0.0
C575 C 0.42599 0.0994 0.6977 0.0
C576 C 0.48194 0.13488 0.29676 0.0
C577 C 0.47605 0.13511 0.35305 0.0
C578 C 0.4389 0.11224 0.44933 0.0
C579 C 0.43926 0.11786 0.61442 0.0
C580 C 0.44476 0.11985 0.5524 0.0
C581 C 0.46223 0.12074 0.37636 0.0
C582 C 0.45611 0.1209 0.43652 0.0
H583 H 0.45117 0.1397 0.74242 0.0
H584 H 0.45498 0.14401 0.63662 0.0
H585 H 0.42 0.10467 0.51576 0.0
H586 H 0.45423 0.09447 0.26046 0.0
H587 H 0.44414 0.09469 0.35942 0.0
C588 C 0.53204 0.66277 0.41803 0.0
C589 C 0.51989 0.646 0.42815 0.0
C590 C 0.53747 0.66849 0.3611 0.0
C591 C 0.52516 0.65993 0.20708 0.0
H592 H 0.57277 0.68375 0.17442 0.0
C593 C 0.56706 0.67092 0.99349 0.0
C594 C 0.55813 0.67508 0.95354 0.0
C595 C 0.56478 0.67158 0.05395 0.0
C596 C 0.55947 0.67723 0.18311 0.0
H597 H 0.50312 0.62232 0.38676 0.0
H598 H 0.51249 0.63237 0.28659 0.0
H599 H 0.56289 0.67541 0.27546 0.0
H600 H 0.54148 0.68519 0.94525 0.0
H601 H 0.53758 0.68639 0.05066 0.0
H602 H 0.52164 0.66131 0.11491 0.0
C603 C 0.51797 0.641 0.32297 0.0
C604 C 0.55382 0.67252 0.24073 0.0
C605 C 0.51265 0.63525 0.38009 0.0
C606 C 0.54828 0.68159 0.97502 0.0
C607 C 0.54601 0.68224 0.0353 0.0
C608 C 0.53079 0.66477 0.14971 0.0
C609 C 0.53058 0.65763 0.31313 0.0
C610 C 0.53661 0.66358 0.25295 0.0
C611 C 0.55357 0.67646 0.07513 0.0
C612 C 0.54798 0.67326 0.13703 0.0
H613 H 0.53725 0.67158 0.45395 0.0
H614 H 0.54693 0.68145 0.35449 0.0
H615 H 0.51184 0.65319 0.21551 0.0
H616 H 0.57482 0.66596 0.97822 0.0
H617 H 0.57077 0.66705 0.08377 0.0
C618 C 0.88878 0.53314 0.57337 0.0
C619 C 0.87382 0.52028 0.59689 0.0
C620 C 0.88912 0.53914 0.51681 0.0
C621 C 0.8658 0.52792 0.37702 0.0
H622 H 0.89373 0.5753 0.34467 0.0
C623 C 0.86892 0.55268 0.14596 0.0
C624 C 0.88529 0.5612 0.12358 0.0
C625 C 0.86617 0.55039 0.20637 0.0
C626 C 0.88584 0.56206 0.35323 0.0
H627 H 0.84758 0.50331 0.58008 0.0
H628 H 0.84804 0.51391 0.48129 0.0
H629 H 0.89153 0.56499 0.44514 0.0
H630 H 0.91152 0.57561 0.14712 0.0
H631 H 0.90668 0.57157 0.25271 0.0
H632 H 0.86026 0.52496 0.28519 0.0
C633 C 0.85957 0.51927 0.50611 0.0
C634 C 0.88466 0.55612 0.41056 0.0
C635 C 0.85929 0.51318 0.56255 0.0
C636 C 0.89877 0.56886 0.16298 0.0
C637 C 0.89599 0.56659 0.22352 0.0
C638 C 0.86688 0.53387 0.31994 0.0
C639 C 0.87447 0.53243 0.4828 0.0
C640 C 0.87485 0.53894 0.42286 0.0
C641 C 0.87972 0.55665 0.24547 0.0
C642 C 0.8771 0.55095 0.30731 0.0
H643 H 0.90022 0.53857 0.59875 0.0
H644 H 0.9009 0.54896 0.49963 0.0
H645 H 0.85834 0.5146 0.38471 0.0
H646 H 0.85824 0.54685 0.11674 0.0
H647 H 0.85347 0.54296 0.22234 0.0
C648 C 0.31445 0.86861 0.31028 0.0
C649 C 0.32168 0.8849 0.28739 0.0
C650 C 0.31421 0.86606 0.37077 0.0
C651 C 0.32183 0.88607 0.51707 0.0
H652 H 0.34316 0.85987 0.5492 0.0
C653 C 0.3542 0.89028 0.73752 0.0
C654 C 0.35253 0.8755 0.76114 0.0
C655 C 0.34844 0.89041 0.68094 0.0
C656 C 0.33692 0.86697 0.54133 0.0
H657 H 0.33259 0.91111 0.31014 0.0
H658 H 0.3322 0.90662 0.41584 0.0
H659 H 0.33441 0.86124 0.44966 0.0
H660 H 0.34389 0.84936 0.74444 0.0
H661 H 0.33359 0.84946 0.64571 0.0
H662 H 0.32454 0.89196 0.60884 0.0
C663 C 0.3268 0.89585 0.387 0.0
C664 C 0.33187 0.86773 0.48424 0.0
C665 C 0.32707 0.89842 0.3264 0.0
C666 C 0.3454 0.86094 0.72688 0.0
C667 C 0.3395 0.86102 0.67045 0.0
C668 C 0.32677 0.88521 0.57442 0.0
C669 C 0.32111 0.87972 0.40946 0.0
C670 C 0.32449 0.87746 0.47137 0.0
C671 C 0.34084 0.87573 0.64699 0.0
C672 C 0.33463 0.87586 0.58697 0.0
H673 H 0.30993 0.85789 0.28138 0.0
H674 H 0.30944 0.85346 0.38711 0.0
H675 H 0.31608 0.89359 0.50834 0.0
H676 H 0.35995 0.90174 0.76285 0.0
H677 H 0.35005 0.90206 0.66365 0.0
C678 C 0.45953 0.33115 0.92483 0.0
C679 C 0.4719 0.34786 0.9346 0.0
C680 C 0.45403 0.3254 0.86799 0.0
C681 C 0.46649 0.33358 0.71402 0.0
H682 H 0.41892 0.31051 0.68077 0.0
C683 C 0.42518 0.32368 0.49999 0.0
C684 C 0.43408 0.31945 0.46013 0.0
C685 C 0.42726 0.32277 0.56047 0.0
C686 C 0.43221 0.31682 0.68963 0.0
H687 H 0.48894 0.37138 0.89273 0.0
H688 H 0.47946 0.36126 0.79277 0.0
H689 H 0.42876 0.31876 0.78189 0.0
H690 H 0.4504 0.30897 0.45183 0.0
H691 H 0.45393 0.30732 0.55729 0.0
H692 H 0.47006 0.33212 0.62197 0.0
C693 C 0.47386 0.35271 0.82933 0.0
C694 C 0.43783 0.32147 0.7473 0.0
C695 C 0.47925 0.35851 0.88633 0.0
C696 C 0.44364 0.31263 0.4816 0.0
C697 C 0.4457 0.31171 0.54189 0.0
C698 C 0.46089 0.3288 0.65663 0.0
C699 C 0.46107 0.33615 0.8198 0.0
C700 C 0.45504 0.33017 0.7597 0.0
C701 C 0.43821 0.31757 0.58173 0.0
C702 C 0.44372 0.3206 0.64372 0.0
H703 H 0.45421 0.32241 0.9609 0.0
H704 H 0.44442 0.31249 0.86162 0.0
H705 H 0.4798 0.34013 0.72261 0.0
H706 H 0.41764 0.32888 0.48469 0.0
H707 H 0.42133 0.32737 0.59029 0.0
C708 C 0.11766 0.48095 0.04985 0.0
C709 C 0.12119 0.47364 0.09766 0.0
C710 C 0.11793 0.47562 0.99261 0.0
C711 C 0.11287 0.43953 0.9104 0.0
H712 H 0.13386 0.47142 0.78366 0.0
C713 C 0.12699 0.44416 0.64456 0.0
C714 C 0.11058 0.43454 0.62328 0.0
C715 C 0.12998 0.44661 0.70478 0.0
C716 C 0.12815 0.46235 0.81873 0.0
H717 H 0.12934 0.45617 0.12285 0.0
H718 H 0.12923 0.44647 0.02322 0.0
H719 H 0.13593 0.48145 0.88418 0.0
H720 H 0.08469 0.41842 0.64842 0.0
H721 H 0.08996 0.42273 0.75384 0.0
H722 H 0.10472 0.42043 0.84447 0.0
C723 C 0.12584 0.456 0.03012 0.0
C724 C 0.12918 0.46811 0.87604 0.0
C725 C 0.12573 0.46144 0.08715 0.0
C726 C 0.09745 0.426 0.66349 0.0
C727 C 0.10047 0.42844 0.72387 0.0
C728 C 0.11168 0.43375 0.85285 0.0
C729 C 0.12179 0.46292 0.98243 0.0
C730 C 0.1214 0.45677 0.92224 0.0
C731 C 0.11665 0.43942 0.74475 0.0
C732 C 0.11921 0.44514 0.80648 0.0
H733 H 0.11433 0.49052 0.05684 0.0
H734 H 0.11474 0.48114 0.95644 0.0
H735 H 0.1067 0.43054 0.94539 0.0
H736 H 0.13743 0.45067 0.61466 0.0
H737 H 0.14262 0.45487 0.71994 0.0
C738 C 0.66767 0.09769 0.82872 0.0
C739 C 0.67272 0.11115 0.78963 0.0
C740 C 0.66819 0.10032 0.88935 0.0
C741 C 0.66305 0.12836 0.98659 0.0
H742 H 0.67082 0.10443 0.11117 0.0
C743 C 0.64933 0.13498 0.22897 0.0
C744 C 0.64223 0.12039 0.26309 0.0
C745 C 0.65541 0.13502 0.17276 0.0
C746 C 0.66848 0.1111 0.07675 0.0
H747 H 0.68421 0.13812 0.7832 0.0
H748 H 0.68519 0.14268 0.88895 0.0
H749 H 0.6792 0.1028 0.01051 0.0
H750 H 0.63505 0.09421 0.2648 0.0
H751 H 0.64526 0.09409 0.16598 0.0
H752 H 0.65171 0.13611 0.05166 0.0
C753 C 0.68045 0.13008 0.87275 0.0
C754 C 0.67338 0.11024 0.01932 0.0
C755 C 0.67993 0.12745 0.81226 0.0
C756 C 0.64079 0.1057 0.23961 0.0
C757 C 0.64673 0.10568 0.18323 0.0
C758 C 0.65805 0.12912 0.04374 0.0
C759 C 0.67382 0.11645 0.91165 0.0
C760 C 0.67054 0.11874 0.97363 0.0
C761 C 0.65426 0.12038 0.14937 0.0
C762 C 0.66051 0.12033 0.08937 0.0
H763 H 0.66216 0.08499 0.81259 0.0
H764 H 0.66299 0.08959 0.91837 0.0
H765 H 0.66037 0.13476 0.95204 0.0
H766 H 0.65067 0.14649 0.24646 0.0
H767 H 0.66127 0.14659 0.14807 0.0
C768 C 0.48607 0.61482 0.86709 0.0
C769 C 0.48675 0.61433 0.80538 0.0
C770 C 0.4724 0.60245 0.89785 0.0
C771 C 0.42842 0.56888 0.88141 0.0
H772 H 0.43783 0.55122 0.02189 0.0
C773 C 0.37937 0.50772 0.99344 0.0
C774 C 0.37914 0.50703 0.05526 0.0
C775 C 0.39193 0.52155 0.96383 0.0
C776 C 0.43495 0.55617 0.98328 0.0
H777 H 0.47336 0.60056 0.72756 0.0
H778 H 0.44953 0.57883 0.78146 0.0
H779 H 0.46071 0.57387 0.96809 0.0
H780 H 0.39176 0.52059 0.1344 0.0
H781 H 0.41361 0.54481 0.0826 0.0
H782 H 0.40264 0.55101 0.89643 0.0
C783 C 0.45954 0.58892 0.80594 0.0
C784 C 0.44808 0.56916 0.95237 0.0
C785 C 0.47324 0.60133 0.77507 0.0
C786 C 0.3916 0.52066 0.08678 0.0
C787 C 0.40418 0.53451 0.05709 0.0
C788 C 0.41527 0.55587 0.91237 0.0
C789 C 0.45906 0.58925 0.86774 0.0
C790 C 0.44498 0.57564 0.90097 0.0
C791 C 0.40457 0.53504 -0.00474 0.0
C792 C 0.4184 0.54932 0.96354 0.0
H793 H 0.49617 0.62471 0.89194 0.0
H794 H 0.47228 0.60324 0.94535 0.0
H795 H 0.42559 0.57375 0.84244 0.0
H796 H 0.36999 0.49745 0.96768 0.0
H797 H 0.39197 0.52147 0.9162 0.0
C798 C 0.87013 0.39526 0.25614 0.0
C799 C 0.86944 0.38176 0.22512 0.0
C800 C 0.86927 0.40804 0.22611 0.0
C801 C 0.87684 0.42739 0.07913 0.0
H802 H 0.85219 0.448 0.13935 0.0
C803 C 0.86972 0.47645 0.9452 0.0
C804 C 0.87182 0.49057 0.97602 0.0
C805 C 0.86834 0.46265 0.97551 0.0
C806 C 0.85924 0.44245 0.12222 0.0
H807 H 0.86666 0.37084 0.13835 0.0
H808 H 0.86499 0.39293 0.08651 0.0
H809 H 0.85173 0.42489 0.1932 0.0
H810 H 0.87386 0.50108 0.06309 0.0
H811 H 0.87164 0.47712 0.11566 0.0
H812 H 0.88448 0.44499 0.00851 0.0
C813 C 0.86653 0.39384 0.13383 0.0
C814 C 0.85898 0.42923 0.15309 0.0
C815 C 0.86741 0.38111 0.1637 0.0
C816 C 0.87224 0.49043 0.03786 0.0
C817 C 0.87086 0.47664 0.06811 0.0
C818 C 0.8771 0.44059 0.04833 0.0
C819 C 0.8677 0.40757 0.1645 0.0
C820 C 0.86779 0.42155 0.13187 0.0
C821 C 0.86902 0.46264 0.03731 0.0
C822 C 0.86832 0.4483 0.06951 0.0
H823 H 0.8717 0.39614 0.30345 0.0
H824 H 0.87032 0.41851 0.25099 0.0
H825 H 0.88401 0.42197 0.06212 0.0
H826 H 0.86925 0.47609 0.8976 0.0
H827 H 0.8667 0.45196 0.9505 0.0
C828 C 0.3807 0.87387 0.20196 0.0
C829 C 0.3802 0.87355 0.14011 0.0
C830 C 0.39329 0.87279 0.23214 0.0
C831 C 0.43596 0.88008 0.21253 0.0
H832 H 0.42649 0.85403 0.3557 0.0
C833 C 0.48622 0.87088 0.32718 0.0
C834 C 0.48728 0.87239 0.38879 0.0
C835 C 0.47267 0.87005 0.29712 0.0
C836 C 0.42935 0.86149 0.31609 0.0
H837 H 0.39243 0.87152 0.06161 0.0
H838 H 0.41432 0.86953 0.11437 0.0
H839 H 0.40369 0.85425 0.30221 0.0
H840 H 0.47469 0.87386 0.46717 0.0
H841 H 0.45107 0.87259 0.41447 0.0
H842 H 0.4616 0.88743 0.22647 0.0
C843 C 0.40508 0.87083 0.13945 0.0
C844 C 0.4163 0.8616 0.28543 0.0
C845 C 0.39247 0.87189 0.10922 0.0
C846 C 0.47427 0.8727 0.41972 0.0
C847 C 0.46069 0.87189 0.38955 0.0
C848 C 0.449 0.87997 0.24314 0.0
C849 C 0.4057 0.87139 0.20124 0.0
C850 C 0.41946 0.87092 0.23332 0.0
C851 C 0.45983 0.87074 0.32783 0.0
C852 C 0.44586 0.87068 0.29529 0.0
H853 H 0.37146 0.87514 0.22723 0.0
H854 H 0.39352 0.87345 0.27971 0.0
H855 H 0.43887 0.88763 0.17314 0.0
H856 H 0.49594 0.87047 0.30189 0.0
H857 H 0.47224 0.86887 0.24968 0.0
C858 C 0.50728 0.37966 0.37173 0.0
C859 C 0.50633 0.38002 0.31005 0.0
C860 C 0.52106 0.39211 0.40171 0.0
C861 C 0.56489 0.42585 0.38324 0.0
H862 H 0.55565 0.44377 0.52339 0.0
C863 C 0.61396 0.48743 0.49308 0.0
C864 C 0.61427 0.48826 0.55488 0.0
C865 C 0.60141 0.47349 0.46393 0.0
C866 C 0.55849 0.43876 0.48487 0.0
H867 H 0.51941 0.39358 0.23147 0.0
H868 H 0.54344 0.41547 0.28406 0.0
H869 H 0.53273 0.42088 0.47071 0.0
H870 H 0.60181 0.47484 0.63446 0.0
H871 H 0.57998 0.45045 0.58349 0.0
H872 H 0.59067 0.4439 0.39724 0.0
C873 C 0.53354 0.40543 0.30909 0.0
C874 C 0.54534 0.42563 0.4546 0.0
C875 C 0.51973 0.39292 0.27897 0.0
C876 C 0.6019 0.47466 0.58684 0.0
C877 C 0.58934 0.46071 0.55762 0.0
C878 C 0.57807 0.43901 0.41357 0.0
C879 C 0.53425 0.40527 0.37087 0.0
C880 C 0.54837 0.41904 0.40336 0.0
C881 C 0.58886 0.46004 0.49582 0.0
C882 C 0.575 0.44565 0.46463 0.0
H883 H 0.49727 0.36984 0.39715 0.0
H884 H 0.52135 0.39145 0.44922 0.0
H885 H 0.56766 0.42092 0.34434 0.0
H886 H 0.62328 0.49767 0.46699 0.0
H887 H 0.6013 0.47346 0.4163 0.0
C888 C 0.12359 0.51949 0.44688 0.0
C889 C 0.12218 0.5055 0.47662 0.0
C890 C 0.12508 0.53318 0.47836 0.0
C891 C 0.11589 0.54433 0.62379 0.0
H892 H 0.14534 0.58983 0.57195 0.0
C893 C 0.12395 0.60115 0.75689 0.0
C894 C 0.12372 0.61395 0.72414 0.0
C895 C 0.12518 0.58837 0.72852 0.0
C896 C 0.13697 0.57719 0.58677 0.0
H897 H 0.12166 0.49515 0.56292 0.0
H898 H 0.12439 0.51902 0.61744 0.0
H899 H 0.14475 0.56668 0.51824 0.0
H900 H 0.12498 0.62349 0.63582 0.0
H901 H 0.12695 0.60121 0.58672 0.0
H902 H 0.10793 0.55478 0.69181 0.0
C903 C 0.12408 0.51931 0.56985 0.0
C904 C 0.13662 0.56393 0.55595 0.0
C905 C 0.1226 0.50565 0.53848 0.0
C906 C 0.12511 0.61385 0.66255 0.0
C907 C 0.12636 0.60111 0.6343 0.0
C908 C 0.11622 0.55757 0.65457 0.0
C909 C 0.12519 0.53317 0.54023 0.0
C910 C 0.12599 0.54734 0.57387 0.0
C911 C 0.12626 0.58814 0.66685 0.0
C912 C 0.12667 0.57415 0.63615 0.0
H913 H 0.1233 0.51979 0.3993 0.0
H914 H 0.12574 0.5436 0.45423 0.0
H915 H 0.10737 0.53168 0.63826 0.0
H916 H 0.12296 0.60088 0.80439 0.0
H917 H 0.12528 0.57866 0.75491 0.0
C918 C 0.61264 0.12332 0.70105 0.0
C919 C 0.61308 0.12287 0.63927 0.0
C920 C 0.59998 0.12456 0.72995 0.0
C921 C 0.55701 0.11617 0.70876 0.0
H922 H 0.56624 0.14359 0.84819 0.0
C923 C 0.50586 0.12428 0.8224 0.0
C924 C 0.50523 0.12345 0.88418 0.0
C925 C 0.51948 0.12534 0.79199 0.0
C926 C 0.56344 0.13576 0.80962 0.0
H927 H 0.60065 0.12372 0.55944 0.0
H928 H 0.57859 0.12599 0.60999 0.0
H929 H 0.58923 0.14356 0.79549 0.0
H930 H 0.51863 0.12338 0.96244 0.0
H931 H 0.54233 0.12504 0.90922 0.0
H932 H 0.53124 0.10822 0.72312 0.0
C933 C 0.58797 0.12517 0.63602 0.0
C934 C 0.57661 0.13576 0.7794 0.0
C935 C 0.60067 0.12395 0.60706 0.0
C936 C 0.51871 0.12401 0.91487 0.0
C937 C 0.53234 0.12505 0.88437 0.0
C938 C 0.54386 0.11617 0.73897 0.0
C939 C 0.58742 0.12536 0.69781 0.0
C940 C 0.57354 0.1259 0.72876 0.0
C941 C 0.5328 0.12557 0.82255 0.0
C942 C 0.5469 0.12591 0.78988 0.0
H943 H 0.62199 0.1225 0.72733 0.0
H944 H 0.5998 0.12447 0.77757 0.0
H945 H 0.55418 0.10823 0.6705 0.0
H946 H 0.49577 0.124 0.79727 0.0
H947 H 0.51957 0.126 0.74443 0.0
C948 C 0.28624 0.47444 0.2054 0.0
C949 C 0.2864 0.45963 0.1938 0.0
C950 C 0.27142 0.47391 0.22156 0.0
C951 C 0.2298 0.44586 0.28464 0.0
H952 H 0.21985 0.47927 0.22523 0.0
C953 C 0.16678 0.44358 0.32601 0.0
C954 C 0.16763 0.45885 0.33818 0.0
C955 C 0.18113 0.44321 0.30899 0.0
C956 C 0.22254 0.46996 0.24269 0.0
H957 H 0.27138 0.43271 0.18846 0.0
H958 H 0.24525 0.4317 0.21597 0.0
H959 H 0.24496 0.47937 0.19208 0.0
H960 H 0.18395 0.48559 0.34511 0.0
H961 H 0.20911 0.48504 0.31549 0.0
H962 H 0.20732 0.43647 0.33526 0.0
C963 C 0.25661 0.44371 0.21358 0.0
C964 C 0.23692 0.47001 0.22366 0.0
C965 C 0.27148 0.44427 0.19742 0.0
C966 C 0.18304 0.4737 0.33494 0.0
C967 C 0.19737 0.47337 0.31782 0.0
C968 C 0.21538 0.4458 0.30362 0.0
C969 C 0.25644 0.45854 0.22615 0.0
C970 C 0.24079 0.45804 0.24472 0.0
C971 C 0.19654 0.45814 0.30393 0.0
C972 C 0.21166 0.45793 0.28317 0.0
H973 H 0.29764 0.48643 0.20239 0.0
H974 H 0.27177 0.48554 0.23154 0.0
H975 H 0.23253 0.43661 0.30229 0.0
H976 H 0.15495 0.43199 0.32838 0.0
H977 H 0.18007 0.4313 0.29827 0.0
C978 C 0.80892 0.28821 0.37349 0.0
C979 C 0.82403 0.28857 0.3627 0.0
C980 C 0.79484 0.27342 0.39138 0.0
C981 C 0.77656 0.22755 0.39521 0.0
H982 H 0.74854 0.2302 0.51681 0.0
C983 C 0.72126 0.16883 0.50002 0.0
C984 C 0.7064 0.16929 0.50602 0.0
C985 C 0.7361 0.18329 0.48459 0.0
C986 C 0.75618 0.22927 0.48253 0.0
H987 H 0.8364 0.27397 0.36054 0.0
H988 H 0.81177 0.24798 0.39242 0.0
H989 H 0.77348 0.25554 0.48456 0.0
H990 H 0.69522 0.18499 0.50243 0.0
H991 H 0.7211 0.2103 0.47517 0.0
H992 H 0.75919 0.20124 0.39331 0.0
C993 C 0.81072 0.25906 0.38669 0.0
C994 C 0.77045 0.24379 0.46394 0.0
C995 C 0.82481 0.27388 0.36867 0.0
C996 C 0.70658 0.18441 0.49767 0.0
C997 C 0.72139 0.19886 0.48251 0.0
C998 C 0.7623 0.213 0.41396 0.0
C999 C 0.79561 0.2587 0.39881 0.0
C1000 C 0.78073 0.24314 0.41966 0.0
C1001 C 0.73629 0.19844 0.4754 0.0
C1002 C 0.75187 0.21374 0.45745 0.0
H1003 H 0.80806 0.29941 0.36833 0.0
H1004 H 0.78332 0.27351 0.39914 0.0
H1005 H 0.78411 0.22664 0.36058 0.0
H1006 H 0.72132 0.15725 0.50646 0.0
H1007 H 0.74742 0.18263 0.48006 0.0
C1008 C 0.5179 0.81031 0.54195 0.0
C1009 C 0.5328 0.82518 0.53006 0.0
C1010 C 0.51825 0.79594 0.55836 0.0
C1011 C 0.54597 0.78191 0.62109 0.0
H1012 H 0.51269 0.73881 0.5595 0.0
C1013 C 0.54857 0.72124 0.65852 0.0
C1014 C 0.53335 0.70665 0.66967 0.0
C1015 C 0.54882 0.73597 0.64243 0.0
C1016 C 0.52196 0.75073 0.57761 0.0
H1017 H 0.55969 0.83683 0.5247 0.0
H1018 H 0.5604 0.81158 0.55274 0.0
H1019 H 0.51261 0.76397 0.52795 0.0
H1020 H 0.50656 0.69594 0.67559 0.0
H1021 H 0.50691 0.72168 0.64769 0.0
H1022 H 0.55531 0.76862 0.67078 0.0
C1023 C 0.54845 0.81106 0.55034 0.0
C1024 C 0.52192 0.76515 0.55949 0.0
C1025 C 0.54806 0.82545 0.5339 0.0
C1026 C 0.51841 0.70705 0.6662 0.0
C1027 C 0.51864 0.72173 0.65007 0.0
C1028 C 0.54602 0.76747 0.63921 0.0
C1029 C 0.53354 0.79616 0.56296 0.0
C1030 C 0.53387 0.7809 0.58121 0.0
C1031 C 0.53383 0.73632 0.63736 0.0
C1032 C 0.53395 0.75172 0.61788 0.0
H1033 H 0.50598 0.80986 0.53877 0.0
H1034 H 0.50657 0.78472 0.56836 0.0
H1035 H 0.55522 0.79383 0.63924 0.0
H1036 H 0.56022 0.72113 0.66109 0.0
H1037 H 0.56071 0.74695 0.63253 0.0
C1038 C 0.81057 0.52266 0.83247 0.0
C1039 C 0.82579 0.53753 0.83995 0.0
C1040 C 0.79619 0.52313 0.81724 0.0
C1041 C 0.78238 0.55 0.74713 0.0
H1042 H 0.73976 0.51899 0.81808 0.0
C1043 C 0.72161 0.55181 0.70091 0.0
C1044 C 0.70693 0.53634 0.69497 0.0
C1045 C 0.73642 0.55255 0.71905 0.0
C1046 C 0.75154 0.52761 0.79738 0.0
H1047 H 0.8381 0.56452 0.83885 0.0
H1048 H 0.81284 0.56545 0.81244 0.0
H1049 H 0.76501 0.51932 0.85096 0.0
H1050 H 0.69609 0.50953 0.7007 0.0
H1051 H 0.72197 0.5107 0.73181 0.0
H1052 H 0.76885 0.55818 0.69311 0.0
C1053 C 0.81204 0.55342 0.81765 0.0
C1054 C 0.766 0.52782 0.81632 0.0
C1055 C 0.82643 0.55291 0.83311 0.0
C1056 C 0.70729 0.5216 0.70582 0.0
C1057 C 0.72206 0.5223 0.72388 0.0
C1058 C 0.76788 0.54977 0.72807 0.0
C1059 C 0.79678 0.53852 0.80924 0.0
C1060 C 0.78156 0.53891 0.79107 0.0
C1061 C 0.73676 0.53779 0.73137 0.0
C1062 C 0.75228 0.53846 0.75263 0.0
H1063 H 0.80986 0.51067 0.83789 0.0
H1064 H 0.78468 0.51144 0.8105 0.0
H1065 H 0.79416 0.55856 0.72633 0.0
H1066 H 0.72152 0.56332 0.69275 0.0
H1067 H 0.7475 0.56467 0.72478 0.0
C1068 C 0.28736 0.81074 0.99072 0.0
C1069 C 0.28736 0.82569 0.00107 0.0
C1070 C 0.27265 0.79632 0.97456 0.0
C1071 C 0.23142 0.78236 0.9081 0.0
H1072 H 0.22107 0.73925 0.97136 0.0
C1073 C 0.16873 0.72165 0.86409 0.0
C1074 C 0.16954 0.7071 0.85421 0.0
C1075 C 0.18296 0.73637 0.88178 0.0
C1076 C 0.22388 0.75118 0.9528 0.0
H1077 H 0.27218 0.83743 0.00412 0.0
H1078 H 0.24625 0.81211 0.97639 0.0
H1079 H 0.24599 0.76442 0.00483 0.0
H1080 H 0.18572 0.69647 0.8521 0.0
H1081 H 0.21071 0.72219 0.88278 0.0
H1082 H 0.20931 0.76908 0.85589 0.0
C1083 C 0.25765 0.81156 0.97991 0.0
C1084 C 0.23814 0.7656 0.97204 0.0
C1085 C 0.27239 0.82598 -0.00383 0.0
C1086 C 0.18483 0.70753 0.86053 0.0
C1087 C 0.19906 0.72221 0.87824 0.0
C1088 C 0.21713 0.76793 0.88883 0.0
C1089 C 0.25764 0.79659 0.96858 0.0
C1090 C 0.24214 0.78134 0.94967 0.0
C1091 C 0.19825 0.73675 0.88972 0.0
C1092 C 0.21326 0.75216 0.9107 0.0
H1093 H 0.2988 0.81027 -0.00532 0.0
H1094 H 0.27311 0.78505 0.96558 0.0
H1095 H 0.23427 0.79429 0.88943 0.0
H1096 H 0.15699 0.72151 0.85932 0.0
H1097 H 0.1819 0.74732 0.89064 0.0
C1098 C 0.44808 0.27882 0.12174 0.0
C1099 C 0.45619 0.28688 0.1738 0.0
C1100 C 0.44733 0.26392 0.10502 0.0
C1101 C 0.45434 0.2299 0.16136 0.0
H1102 H 0.45596 0.22182 -0.00507 0.0
C1103 C 0.44831 0.1682 0.07798 0.0
C1104 C 0.45747 0.16886 0.02798 0.0
C1105 C 0.44738 0.18222 0.09527 0.0
C1106 C 0.45572 0.22393 0.04165 0.0
H1107 H 0.47005 0.28611 0.24911 0.0
H1108 H 0.46948 0.26047 0.219 0.0
H1109 H 0.45644 0.24707 0.02663 0.0
H1110 H 0.47304 0.18444 0.95709 0.0
H1111 H 0.47215 0.20925 0.9884 0.0
H1112 H 0.4547 0.20728 0.17649 0.0
C1113 C 0.46312 0.26518 0.19184 0.0
C1114 C 0.45568 0.23834 0.05991 0.0
C1115 C 0.46355 0.27991 0.20909 0.0
C1116 C 0.46576 0.18369 -0.0045 0.0
C1117 C 0.46512 0.19783 0.01336 0.0
C1118 C 0.45471 0.21565 0.14314 0.0
C1119 C 0.45504 0.25699 0.1394 0.0
C1120 C 0.45495 0.24152 0.12003 0.0
C1121 C 0.45591 0.1973 0.06353 0.0
C1122 C 0.45538 0.21244 0.083 0.0
H1123 H 0.44228 0.28404 0.09407 0.0
H1124 H 0.44067 0.25785 0.06513 0.0
H1125 H 0.45352 0.23173 0.20799 0.0
H1126 H 0.44179 0.15679 0.10344 0.0
H1127 H 0.43988 0.18115 0.13334 0.0
C1128 C 0.36066 0.42287 0.10768 0.0
C1129 C 0.35898 0.43125 0.15651 0.0
C1130 C 0.36789 0.41281 0.11396 0.0
C1131 C 0.37745 0.38875 0.21851 0.0
H1132 H 0.41541 0.39997 0.11743 0.0
C1133 C 0.42269 0.36376 0.26131 0.0
C1134 C 0.43057 0.36115 0.21299 0.0
C1135 C 0.41262 0.37094 0.25342 0.0
C1136 C 0.40464 0.39637 0.14527 0.0
H1137 H 0.3629 0.43507 0.25061 0.0
H1138 H 0.37522 0.41716 0.26164 0.0
H1139 H 0.39969 0.41441 0.10512 0.0
H1140 H 0.43346 0.36325 0.11823 0.0
H1141 H 0.41535 0.37501 0.10406 0.0
H1142 H 0.38212 0.37048 0.25806 0.0
C1143 C 0.37105 0.41853 0.21854 0.0
C1144 C 0.39569 0.40474 0.13832 0.0
C1145 C 0.36408 0.42883 0.21213 0.0
C1146 C 0.42771 0.3653 0.15643 0.0
C1147 C 0.4174 0.37217 0.14841 0.0
C1148 C 0.38623 0.38015 0.22487 0.0
C1149 C 0.37329 0.4107 0.16933 0.0
C1150 C 0.38212 0.40112 0.17516 0.0
C1151 C 0.40997 0.3754 0.19689 0.0
C1152 C 0.40005 0.38395 0.18866 0.0
H1153 H 0.35689 0.4245 0.06422 0.0
H1154 H 0.36941 0.40681 0.07542 0.0
H1155 H 0.36694 0.38568 0.24719 0.0
H1156 H 0.42473 0.36077 0.30549 0.0
H1157 H 0.40734 0.37343 0.29197 0.0
C1158 C 0.93446 0.3619 0.2676 0.0
C1159 C 0.92469 0.3602 0.31736 0.0
C1160 C 0.95174 0.36881 0.27276 0.0
C1161 C 0.98556 0.37718 0.37473 0.0
H1162 H 0.0125 0.41588 0.27685 0.0
C1163 C 0.05567 0.42188 0.41984 0.0
C1164 C 0.06627 0.43028 0.37226 0.0
C1165 C 0.03846 0.41183 0.41125 0.0
C1166 C 0.00527 0.40489 0.30371 0.0
H1167 H 0.92529 0.36373 0.41183 0.0
H1168 H 0.95547 0.37546 0.42086 0.0
H1169 H 0.98232 0.40047 0.26479 0.0
H1170 H 0.06728 0.43413 0.27796 0.0
H1171 H 0.03746 0.41604 0.26245 0.0
H1172 H 0.00844 0.38132 0.4131 0.0
C1173 C 0.94972 0.37156 0.37793 0.0
C1174 C 0.98794 0.39612 0.2969 0.0
C1175 C 0.93248 0.36494 0.37267 0.0
C1176 C 0.05941 0.42796 0.31562 0.0
C1177 C 0.04225 0.41767 0.30685 0.0
C1178 C 0.00295 0.38577 0.3809 0.0
C1179 C 0.95952 0.37384 0.32787 0.0
C1180 C 0.97793 0.38233 0.33278 0.0
C1181 C 0.03148 0.40972 0.35468 0.0
C1182 C 0.01304 0.39988 0.34595 0.0
H1183 H 0.92884 0.3584 0.22436 0.0
H1184 H 0.95905 0.37038 0.23358 0.0
H1185 H 0.97808 0.36648 0.40262 0.0
H1186 H 0.06059 0.42351 0.46409 0.0
H1187 H 0.03061 0.40617 0.44937 0.0
C1188 C 0.63194 0.05764 0.58565 0.0
C1189 C 0.63454 0.06813 0.53729 0.0
C1190 C 0.62507 0.04044 0.57775 0.0
C1191 C 0.60009 0.00698 0.46959 0.0
H1192 H 0.61032 0.98011 0.57405 0.0
C1193 C 0.57228 0.93612 0.43743 0.0
C1194 C 0.56379 0.92647 0.48693 0.0
C1195 C 0.58273 0.95338 0.4424 0.0
C1196 C 0.60738 0.98751 0.54462 0.0
H1197 H 0.63279 0.06896 0.44244 0.0
H1198 H 0.62152 0.03913 0.42823 0.0
H1199 H 0.62575 0.01053 0.58334 0.0
H1200 H 0.5602 0.92726 0.58092 0.0
H1201 H 0.57875 0.95745 0.58965 0.0
H1202 H 0.5819 0.9839 0.43043 0.0
C1203 C 0.62416 0.04402 0.4726 0.0
C1204 C 0.61613 0.00492 0.55006 0.0
C1205 C 0.63075 0.06117 0.48064 0.0
C1206 C 0.56651 0.93436 0.54194 0.0
C1207 C 0.57718 0.95161 0.54704 0.0
C1208 C 0.59157 0.98963 0.46357 0.0
C1209 C 0.62089 0.03335 0.52115 0.0
C1210 C 0.61244 0.01489 0.51309 0.0
C1211 C 0.58511 0.9613 0.4971 0.0
C1212 C 0.595 0.97973 0.50144 0.0
H1213 H 0.63465 0.06263 0.62993 0.0
H1214 H 0.62252 0.03267 0.61635 0.0
H1215 H 0.59659 0.01412 0.44113 0.0
H1216 H 0.57044 0.93042 0.39441 0.0
H1217 H 0.58879 0.9606 0.40333 0.0
C1218 C 0.63259 0.57248 0.60329 0.0
C1219 C 0.63435 0.56434 0.6527 0.0
C1220 C 0.62539 0.58258 0.60881 0.0
C1221 C 0.61605 0.60718 0.7115 0.0
H1222 H 0.57776 0.59533 0.61145 0.0
C1223 C 0.57068 0.63198 0.75368 0.0
C1224 C 0.56252 0.63425 0.70548 0.0
C1225 C 0.58084 0.62492 0.74588 0.0
C1226 C 0.58863 0.59911 0.63895 0.0
H1227 H 0.6306 0.56097 0.747 0.0
H1228 H 0.61832 0.57895 0.75668 0.0
H1229 H 0.59352 0.58089 0.59999 0.0
H1230 H 0.55923 0.63165 0.61093 0.0
H1231 H 0.57753 0.62008 0.59684 0.0
H1232 H 0.61145 0.62562 0.74987 0.0
C1233 C 0.62241 0.57736 0.71373 0.0
C1234 C 0.59759 0.59073 0.6325 0.0
C1235 C 0.62935 0.56703 0.7081 0.0
C1236 C 0.56521 0.62988 0.64905 0.0
C1237 C 0.57561 0.62312 0.64109 0.0
C1238 C 0.60726 0.61578 0.71734 0.0
C1239 C 0.62008 0.58497 0.66396 0.0
C1240 C 0.61127 0.59457 0.66905 0.0
C1241 C 0.58332 0.62022 0.68951 0.0
C1242 C 0.59331 0.61174 0.68152 0.0
H1243 H 0.63629 0.57064 0.55999 0.0
H1244 H 0.6238 0.58839 0.56985 0.0
H1245 H 0.62665 0.61043 0.73993 0.0
H1246 H 0.56876 0.63513 0.79778 0.0
H1247 H 0.58632 0.62267 0.78441 0.0
C1248 C 0.05838 0.63401 0.75808 0.0
C1249 C 0.06808 0.63585 0.80815 0.0
C1250 C 0.04111 0.62722 0.76295 0.0
C1251 C 0.00729 0.61932 0.86472 0.0
H1252 H 0.98018 0.5805 0.76773 0.0
C1253 C 0.93748 0.57436 0.91282 0.0
C1254 C 0.9267 0.56582 0.8658 0.0
C1255 C 0.95463 0.58455 0.90328 0.0
C1256 C 0.98746 0.59153 0.79432 0.0
H1257 H 0.0674 0.63271 0.90287 0.0
H1258 H 0.03723 0.62114 0.91136 0.0
H1259 H 0.01035 0.59584 0.75513 0.0
H1260 H 0.92532 0.56189 0.77154 0.0
H1261 H 0.95505 0.58019 0.75439 0.0
H1262 H 0.98447 0.61524 0.90349 0.0
C1263 C 0.04302 0.62484 0.8684 0.0
C1264 C 0.00478 0.60026 0.7872 0.0
C1265 C 0.06024 0.63136 0.86345 0.0
C1266 C 0.93333 0.56817 0.80876 0.0
C1267 C 0.95043 0.57858 0.79904 0.0
C1268 C 0.98992 0.61076 0.87123 0.0
C1269 C 0.03327 0.62244 0.81809 0.0
C1270 C 0.01486 0.61408 0.82286 0.0
C1271 C 0.96137 0.58666 0.84632 0.0
C1272 C 0.97977 0.59658 0.8367 0.0
H1273 H 0.06405 0.63735 0.71486 0.0
H1274 H 0.03384 0.62557 0.72357 0.0
H1275 H 0.01482 0.63005 0.8924 0.0
H1276 H 0.93276 0.57272 0.95738 0.0
H1277 H 0.96262 0.59031 0.94099 0.0
C1278 C 0.41574 0.06031 0.94895 0.0
C1279 C 0.42918 0.06894 0.98798 0.0
C1280 C 0.4049 0.04312 0.95524 0.0
C1281 C 0.39213 0.00772 0.05984 0.0
H1282 H 0.37927 0.98109 0.91748 0.0
C1283 C 0.35294 0.93583 0.06903 0.0
C1284 C 0.35802 0.92714 0.0314 0.0
C1285 C 0.35929 0.953 0.06198 0.0
C1286 C 0.3828 0.98833 0.95771 0.0
H1287 H 0.44151 0.0663 0.06511 0.0
H1288 H 0.42295 0.03638 0.07512 0.0
H1289 H 0.39498 0.01141 0.91047 0.0
H1290 H 0.37343 0.92961 0.95577 0.0
H1291 H 0.3848 0.9595 0.94449 0.0
H1292 H 0.38078 0.98465 0.10714 0.0
C1293 C 0.42053 0.04289 0.04028 0.0
C1294 C 0.39162 0.00575 0.95368 0.0
C1295 C 0.43129 0.06007 0.03426 0.0
C1296 C 0.36923 0.9359 0.98556 0.0
C1297 C 0.37567 0.95307 0.97881 0.0
C1298 C 0.38343 0.9903 0.06388 0.0
C1299 C 0.40731 0.03415 0.00048 0.0
C1300 C 0.39664 0.01567 0.00472 0.0
C1301 C 0.37096 0.96188 0.01739 0.0
C1302 C 0.37888 0.98038 0.01287 0.0
H1303 H 0.41368 0.06678 0.91308 0.0
H1304 H 0.39468 0.03685 0.92439 0.0
H1305 H 0.39555 0.01496 0.10006 0.0
H1306 H 0.34421 0.92944 0.10448 0.0
H1307 H 0.35516 0.95932 0.09183 0.0
loop_
_geom_bond_atom_site_label_1
_geom_bond_atom_site_label_2
_geom_bond_distance
_geom_bond_site_symmetry_2
_ccdc_geom_bond_type
Co0 O3 1.970 . S
Co0 N17 1.989 . S
Co0 O25 1.967 . S
Co0 O32 1.920 1_554 S
Co1 O4 1.966 . S
Co1 N10 2.022 . S
Co1 N18 1.993 . S
Co1 O26 1.941 . S
C2 O3 1.258 . S
C2 O4 1.263 . S
O3 Co0 1.970 . S
O3 C2 1.258 . S
O4 Co1 1.966 . S
O4 C2 1.263 . S
C5 O6 1.235 1_556 S
C5 O32 1.289 . S
O6 C5 1.235 1_554 S
C7 C9 1.400 . S
C7 N10 1.351 . S
C7 C12 1.501 . S
C8 C9 1.387 . S
C8 N11 1.341 . S
C9 C7 1.400 . S
C9 C8 1.387 . S
N10 Co1 2.022 . S
N10 C7 1.351 . S
N10 N11 1.365 . S
N11 C8 1.341 . S
N11 N10 1.365 . S
N11 H31 0.862 . S
C12 C7 1.501 . S
C12 H13 0.961 . S
C12 H14 0.961 . S
C12 H15 0.960 . S
H13 C12 0.961 . S
H14 C12 0.961 . S
H15 C12 0.960 . S
C16 N17 1.342 . S
C16 C20 1.401 . S
C16 C21 1.499 . S
N17 Co0 1.989 . S
N17 C16 1.342 . S
N17 N18 1.388 . S
N18 Co1 1.993 . S
N18 N17 1.388 . S
N18 C19 1.346 . S
C19 N18 1.346 . S
C19 C20 1.396 . S
C19 C29 1.510 . S
C20 C16 1.401 . S
C20 C19 1.396 . S
C21 C16 1.499 . S
C21 H22 0.959 . S
C21 H23 0.960 . S
C21 H24 0.961 . S
H22 C21 0.959 . S
H23 C21 0.960 . S
H24 C21 0.961 . S
O25 Co0 1.967 . S
O25 C33 1.258 . S
O26 Co1 1.941 . S
O26 C33 1.266 . S
H27 C29 0.959 . S
H28 C29 0.961 . S
C29 C19 1.510 . S
C29 H27 0.959 . S
C29 H28 0.961 . S
C29 H30 0.960 . S
H30 C29 0.960 . S
H31 N11 0.862 . S
O32 Co0 1.920 1_556 S
O32 C5 1.289 . S
C33 O25 1.258 . S
C33 O26 1.266 . S
Co34 O37 1.970 . S
Co34 N51 1.989 . S
Co34 O59 1.967 . S
Co34 O66 1.920 . S
Co35 O38 1.966 . S
Co35 N44 2.022 . S
Co35 N52 1.993 . S
Co35 O60 1.941 . S
C36 O37 1.258 . S
C36 O38 1.263 . S
O37 Co34 1.970 . S
O37 C36 1.258 . S
O38 Co35 1.966 . S
O38 C36 1.263 . S
C39 O40 1.235 . S
C39 O66 1.289 . S
O40 C39 1.235 . S
C41 C43 1.400 . S
C41 N44 1.351 . S
C41 C46 1.501 . S
C42 C43 1.387 . S
C42 N45 1.341 . S
C43 C41 1.400 . S
C43 C42 1.387 . S
N44 Co35 2.022 . S
N44 C41 1.351 . S
N44 N45 1.365 . S
N45 C42 1.341 . S
N45 N44 1.365 . S
N45 H65 0.862 . S
C46 C41 1.501 . S
C46 H47 0.961 . S
C46 H48 0.961 . S
C46 H49 0.960 . S
H47 C46 0.961 . S
H48 C46 0.961 . S
H49 C46 0.960 . S
C50 N51 1.342 . S
C50 C54 1.401 . S
C50 C55 1.499 . S
N51 Co34 1.989 . S
N51 C50 1.342 . S
N51 N52 1.388 . S
N52 Co35 1.993 . S
N52 N51 1.388 . S
N52 C53 1.346 . S
C53 N52 1.346 . S
C53 C54 1.396 . S
C53 C63 1.510 . S
C54 C50 1.401 . S
C54 C53 1.396 . S
C55 C50 1.499 . S
C55 H56 0.959 . S
C55 H57 0.960 . S
C55 H58 0.961 . S
H56 C55 0.959 . S
H57 C55 0.960 . S
H58 C55 0.961 . S
O59 Co34 1.967 . S
O59 C67 1.258 . S
O60 Co35 1.941 . S
O60 C67 1.266 . S
H61 C63 0.959 . S
H62 C63 0.961 . S
C63 C53 1.510 . S
C63 H61 0.959 . S
C63 H62 0.961 . S
C63 H64 0.960 . S
H64 C63 0.960 . S
H65 N45 0.862 . S
O66 Co34 1.920 . S
O66 C39 1.289 . S
C67 O59 1.258 . S
C67 O60 1.266 . S
Co68 O71 1.970 . S
Co68 N85 1.989 . S
Co68 O93 1.967 . S
Co68 O100 1.920 . S
Co69 O72 1.966 . S
Co69 N78 2.022 . S
Co69 N86 1.993 . S
Co69 O94 1.941 . S
C70 O71 1.258 . S
C70 O72 1.263 . S
O71 Co68 1.970 . S
O71 C70 1.258 . S
O72 Co69 1.966 . S
O72 C70 1.263 . S
C73 O74 1.235 . S
C73 O100 1.289 . S
O74 C73 1.235 . S
C75 C77 1.400 . S
C75 N78 1.351 . S
C75 C80 1.501 . S
C76 C77 1.387 . S
C76 N79 1.341 . S
C77 C75 1.400 . S
C77 C76 1.387 . S
N78 Co69 2.022 . S
N78 C75 1.351 . S
N78 N79 1.365 . S
N79 C76 1.341 . S
N79 N78 1.365 . S
N79 H99 0.862 . S
C80 C75 1.501 . S
C80 H81 0.961 . S
C80 H82 0.961 . S
C80 H83 0.960 . S
H81 C80 0.961 . S
H82 C80 0.961 . S
H83 C80 0.960 . S
C84 N85 1.342 . S
C84 C88 1.401 . S
C84 C89 1.499 . S
N85 Co68 1.989 . S
N85 C84 1.342 . S
N85 N86 1.388 . S
N86 Co69 1.993 . S
N86 N85 1.388 . S
N86 C87 1.346 . S
C87 N86 1.346 . S
C87 C88 1.396 . S
C87 C97 1.510 . S
C88 C84 1.401 . S
C88 C87 1.396 . S
C89 C84 1.499 . S
C89 H90 0.959 . S
C89 H91 0.960 . S
C89 H92 0.961 . S
H90 C89 0.959 . S
H91 C89 0.960 . S
H92 C89 0.961 . S
O93 Co68 1.967 . S
O93 C101 1.258 . S
O94 Co69 1.941 . S
O94 C101 1.266 . S
H95 C97 0.959 . S
H96 C97 0.961 . S
C97 C87 1.510 . S
C97 H95 0.959 . S
C97 H96 0.961 . S
C97 H98 0.960 . S
H98 C97 0.960 . S
H99 N79 0.862 . S
O100 Co68 1.920 . S
O100 C73 1.289 . S
C101 O93 1.258 . S
C101 O94 1.266 . S
Co102 O105 1.970 . S
Co102 N119 1.989 . S
Co102 O127 1.967 . S
Co102 O134 1.920 . S
Co103 O106 1.966 . S
Co103 N112 2.022 . S
Co103 N120 1.993 . S
Co103 O128 1.941 . S
C104 O105 1.258 . S
C104 O106 1.263 . S
O105 Co102 1.970 . S
O105 C104 1.258 . S
O106 Co103 1.966 . S
O106 C104 1.263 . S
C107 O108 1.235 . S
C107 O134 1.289 . S
O108 C107 1.235 . S
C109 C111 1.400 . S
C109 N112 1.351 . S
C109 C114 1.501 . S
C110 C111 1.387 . S
C110 N113 1.341 . S
C111 C109 1.400 . S
C111 C110 1.387 . S
N112 Co103 2.022 . S
N112 C109 1.351 . S
N112 N113 1.365 . S
N113 C110 1.341 . S
N113 N112 1.365 . S
N113 H133 0.862 . S
C114 C109 1.501 . S
C114 H115 0.961 . S
C114 H116 0.961 . S
C114 H117 0.960 . S
H115 C114 0.961 . S
H116 C114 0.961 . S
H117 C114 0.960 . S
C118 N119 1.342 . S
C118 C122 1.401 . S
C118 C123 1.499 . S
N119 Co102 1.989 . S
N119 C118 1.342 . S
N119 N120 1.388 . S
N120 Co103 1.993 . S
N120 N119 1.388 . S
N120 C121 1.346 . S
C121 N120 1.346 . S
C121 C122 1.396 . S
C121 C131 1.510 . S
C122 C118 1.401 . S
C122 C121 1.396 . S
C123 C118 1.499 . S
C123 H124 0.959 . S
C123 H125 0.960 . S
C123 H126 0.961 . S
H124 C123 0.959 . S
H125 C123 0.960 . S
H126 C123 0.961 . S
O127 Co102 1.967 . S
O127 C135 1.258 . S
O128 Co103 1.941 . S
O128 C135 1.266 . S
H129 C131 0.959 . S
H130 C131 0.961 . S
C131 C121 1.510 . S
C131 H129 0.959 . S
C131 H130 0.961 . S
C131 H132 0.960 . S
H132 C131 0.960 . S
H133 N113 0.862 . S
O134 Co102 1.920 . S
O134 C107 1.289 . S
C135 O127 1.258 . S
C135 O128 1.266 . S
Co136 O139 1.970 . S
Co136 N153 1.989 . S
Co136 O161 1.967 . S
Co136 O168 1.920 . S
Co137 O140 1.966 . S
Co137 N146 2.022 . S
Co137 N154 1.993 . S
Co137 O162 1.941 . S
C138 O139 1.258 . S
C138 O140 1.263 . S
O139 Co136 1.970 . S
O139 C138 1.258 . S
O140 Co137 1.966 . S
O140 C138 1.263 . S
C141 O142 1.235 . S
C141 O168 1.289 . S
O142 C141 1.235 . S
C143 C145 1.400 . S
C143 N146 1.351 1_554 S
C143 C148 1.501 . S
C144 C145 1.387 . S
C144 N147 1.341 . S
C145 C143 1.400 . S
C145 C144 1.387 . S
N146 Co137 2.022 . S
N146 C143 1.351 1_556 S
N146 N147 1.365 1_556 S
N147 C144 1.341 . S
N147 N146 1.365 1_554 S
N147 H167 0.862 1_554 S
C148 C143 1.501 . S
C148 H149 0.961 1_554 S
C148 H150 0.961 . S
C148 H151 0.960 . S
H149 C148 0.961 1_556 S
H150 C148 0.961 . S
H151 C148 0.960 . S
C152 N153 1.342 . S
C152 C156 1.401 . S
C152 C157 1.499 . S
N153 Co136 1.989 . S
N153 C152 1.342 . S
N153 N154 1.388 . S
N154 Co137 1.993 . S
N154 N153 1.388 . S
N154 C155 1.346 . S
C155 N154 1.346 . S
C155 C156 1.396 . S
C155 C165 1.510 . S
C156 C152 1.401 . S
C156 C155 1.396 . S
C157 C152 1.499 . S
C157 H158 0.959 . S
C157 H159 0.960 . S
C157 H160 0.961 . S
H158 C157 0.959 . S
H159 C157 0.960 . S
H160 C157 0.961 . S
O161 Co136 1.967 . S
O161 C169 1.258 . S
O162 Co137 1.941 . S
O162 C169 1.266 . S
H163 C165 0.959 . S
H164 C165 0.961 . S
C165 C155 1.510 . S
C165 H163 0.959 . S
C165 H164 0.961 . S
C165 H166 0.960 . S
H166 C165 0.960 . S
H167 N147 0.862 1_556 S
O168 Co136 1.920 . S
O168 C141 1.289 . S
C169 O161 1.258 . S
C169 O162 1.266 . S
Co170 O173 1.970 . S
Co170 N187 1.989 . S
Co170 O195 1.967 . S
Co170 O202 1.920 . S
Co171 O174 1.966 . S
Co171 N180 2.022 . S
Co171 N188 1.993 . S
Co171 O196 1.941 . S
C172 O173 1.258 . S
C172 O174 1.263 1_556 S
O173 Co170 1.970 . S
O173 C172 1.258 . S
O174 Co171 1.966 . S
O174 C172 1.263 1_554 S
C175 O176 1.235 . S
C175 O202 1.289 . S
O176 C175 1.235 . S
C177 C179 1.400 . S
C177 N180 1.351 . S
C177 C182 1.501 . S
C178 C179 1.387 . S
C178 N181 1.341 . S
C179 C177 1.400 . S
C179 C178 1.387 . S
N180 Co171 2.022 . S
N180 C177 1.351 . S
N180 N181 1.365 . S
N181 C178 1.341 . S
N181 N180 1.365 . S
N181 H201 0.862 . S
C182 C177 1.501 . S
C182 H183 0.961 . S
C182 H184 0.961 . S
C182 H185 0.960 . S
H183 C182 0.961 . S
H184 C182 0.961 . S
H185 C182 0.960 . S
C186 N187 1.342 . S
C186 C190 1.401 1_556 S
C186 C191 1.499 . S
N187 Co170 1.989 . S
N187 C186 1.342 . S
N187 N188 1.388 1_556 S
N188 Co171 1.993 . S
N188 N187 1.388 1_554 S
N188 C189 1.346 . S
C189 N188 1.346 . S
C189 C190 1.396 . S
C189 C199 1.510 . S
C190 C186 1.401 1_554 S
C190 C189 1.396 . S
C191 C186 1.499 . S
C191 H192 0.959 . S
C191 H193 0.960 . S
C191 H194 0.961 . S
H192 C191 0.959 . S
H193 C191 0.960 . S
H194 C191 0.961 . S
O195 Co170 1.967 . S
O195 C203 1.258 . S
O196 Co171 1.941 . S
O196 C203 1.266 1_554 S
H197 C199 0.959 . S
H198 C199 0.961 . S
C199 C189 1.510 . S
C199 H197 0.959 . S
C199 H198 0.961 . S
C199 H200 0.960 . S
H200 C199 0.960 . S
H201 N181 0.862 . S
O202 Co170 1.920 . S
O202 C175 1.289 . S
C203 O195 1.258 . S
C203 O196 1.266 1_556 S
Co204 O207 1.970 . S
Co204 N221 1.989 . S
Co204 O229 1.967 . S
Co204 O236 1.920 . S
Co205 O208 1.966 . S
Co205 N214 2.022 . S
Co205 N222 1.993 . S
Co205 O230 1.941 . S
C206 O207 1.258 . S
C206 O208 1.263 . S
O207 Co204 1.970 . S
O207 C206 1.258 . S
O208 Co205 1.966 . S
O208 C206 1.263 . S
C209 O210 1.235 . S
C209 O236 1.289 . S
O210 C209 1.235 . S
C211 C213 1.400 . S
C211 N214 1.351 . S
C211 C216 1.501 . S
C212 C213 1.387 . S
C212 N215 1.341 . S
C213 C211 1.400 . S
C213 C212 1.387 . S
N214 Co205 2.022 . S
N214 C211 1.351 . S
N214 N215 1.365 . S
N215 C212 1.341 . S
N215 N214 1.365 . S
N215 H235 0.862 . S
C216 C211 1.501 . S
C216 H217 0.961 . S
C216 H218 0.961 . S
C216 H219 0.960 . S
H217 C216 0.961 . S
H218 C216 0.961 . S
H219 C216 0.960 . S
C220 N221 1.342 . S
C220 C224 1.401 . S
C220 C225 1.499 . S
N221 Co204 1.989 . S
N221 C220 1.342 . S
N221 N222 1.388 . S
N222 Co205 1.993 . S
N222 N221 1.388 . S
N222 C223 1.346 . S
C223 N222 1.346 . S
C223 C224 1.396 . S
C223 C233 1.510 . S
C224 C220 1.401 . S
C224 C223 1.396 . S
C225 C220 1.499 . S
C225 H226 0.959 . S
C225 H227 0.960 . S
C225 H228 0.961 . S
H226 C225 0.959 . S
H227 C225 0.960 . S
H228 C225 0.961 . S
O229 Co204 1.967 . S
O229 C237 1.258 . S
O230 Co205 1.941 . S
O230 C237 1.266 . S
H231 C233 0.959 . S
H232 C233 0.961 . S
C233 C223 1.510 . S
C233 H231 0.959 . S
C233 H232 0.961 . S
C233 H234 0.960 . S
H234 C233 0.960 . S
H235 N215 0.862 . S
O236 Co204 1.920 . S
O236 C209 1.289 . S
C237 O229 1.258 . S
C237 O230 1.266 . S
Co238 O241 1.970 . S
Co238 N255 1.989 . S
Co238 O263 1.967 . S
Co238 O270 1.920 1_556 S
Co239 O242 1.966 . S
Co239 N248 2.022 . S
Co239 N256 1.993 . S
Co239 O264 1.941 . S
C240 O241 1.258 . S
C240 O242 1.263 . S
O241 Co238 1.970 . S
O241 C240 1.258 . S
O242 Co239 1.966 . S
O242 C240 1.263 . S
C243 O244 1.235 . S
C243 O270 1.289 . S
O244 C243 1.235 . S
C245 C247 1.400 . S
C245 N248 1.351 . S
C245 C250 1.501 . S
C246 C247 1.387 . S
C246 N249 1.341 . S
C247 C245 1.400 . S
C247 C246 1.387 . S
N248 Co239 2.022 . S
N248 C245 1.351 . S
N248 N249 1.365 . S
N249 C246 1.341 . S
N249 N248 1.365 . S
N249 H269 0.862 . S
C250 C245 1.501 . S
C250 H251 0.961 . S
C250 H252 0.961 . S
C250 H253 0.960 . S
H251 C250 0.961 . S
H252 C250 0.961 . S
H253 C250 0.960 . S
C254 N255 1.342 . S
C254 C258 1.401 . S
C254 C259 1.499 . S
N255 Co238 1.989 . S
N255 C254 1.342 . S
N255 N256 1.388 . S
N256 Co239 1.993 . S
N256 N255 1.388 . S
N256 C257 1.346 . S
C257 N256 1.346 . S
C257 C258 1.396 . S
C257 C267 1.510 . S
C258 C254 1.401 . S
C258 C257 1.396 . S
C259 C254 1.499 . S
C259 H260 0.959 1_556 S
C259 H261 0.960 . S
C259 H262 0.961 . S
H260 C259 0.959 1_554 S
H261 C259 0.960 . S
H262 C259 0.961 . S
O263 Co238 1.967 . S
O263 C271 1.258 . S
O264 Co239 1.941 . S
O264 C271 1.266 . S
H265 C267 0.959 . S
H266 C267 0.961 . S
C267 C257 1.510 . S
C267 H265 0.959 . S
C267 H266 0.961 . S
C267 H268 0.960 . S
H268 C267 0.960 . S
H269 N249 0.862 . S
O270 Co238 1.920 1_554 S
O270 C243 1.289 . S
C271 O263 1.258 . S
C271 O264 1.266 . S
Co272 O275 1.970 . S
Co272 N289 1.989 . S
Co272 O297 1.967 . S
Co272 O304 1.920 . S
Co273 O276 1.966 1_556 S
Co273 N282 2.022 . S
Co273 N290 1.993 1_556 S
Co273 O298 1.941 1_556 S
C274 O275 1.258 . S
C274 O276 1.263 . S
O275 Co272 1.970 . S
O275 C274 1.258 . S
O276 Co273 1.966 1_554 S
O276 C274 1.263 . S
C277 O278 1.235 . S
C277 O304 1.289 . S
O278 C277 1.235 . S
C279 C281 1.400 . S
C279 N282 1.351 . S
C279 C284 1.501 . S
C280 C281 1.387 . S
C280 N283 1.341 . S
C281 C279 1.400 . S
C281 C280 1.387 . S
N282 Co273 2.022 . S
N282 C279 1.351 . S
N282 N283 1.365 . S
N283 C280 1.341 . S
N283 N282 1.365 . S
N283 H303 0.862 . S
C284 C279 1.501 . S
C284 H285 0.961 . S
C284 H286 0.961 . S
C284 H287 0.960 . S
H285 C284 0.961 . S
H286 C284 0.961 . S
H287 C284 0.960 . S
C288 N289 1.342 . S
C288 C292 1.401 . S
C288 C293 1.499 . S
N289 Co272 1.989 . S
N289 C288 1.342 . S
N289 N290 1.388 . S
N290 Co273 1.993 1_554 S
N290 N289 1.388 . S
N290 C291 1.346 1_554 S
C291 N290 1.346 1_556 S
C291 C292 1.396 1_556 S
C291 C301 1.510 . S
C292 C288 1.401 . S
C292 C291 1.396 1_554 S
C293 C288 1.499 . S
C293 H294 0.959 . S
C293 H295 0.960 . S
C293 H296 0.961 . S
H294 C293 0.959 . S
H295 C293 0.960 . S
H296 C293 0.961 . S
O297 Co272 1.967 . S
O297 C305 1.258 . S
O298 Co273 1.941 1_554 S
O298 C305 1.266 . S
H299 C301 0.959 . S
H300 C301 0.961 . S
C301 C291 1.510 . S
C301 H299 0.959 . S
C301 H300 0.961 . S
C301 H302 0.960 . S
H302 C301 0.960 . S
H303 N283 0.862 . S
O304 Co272 1.920 . S
O304 C277 1.289 . S
C305 O297 1.258 . S
C305 O298 1.266 . S
Co306 O309 1.970 . S
Co306 N323 1.989 . S
Co306 O331 1.967 . S
Co306 O338 1.920 . S
Co307 O310 1.966 . S
Co307 N316 2.022 . S
Co307 N324 1.993 . S
Co307 O332 1.941 . S
C308 O309 1.258 . S
C308 O310 1.263 . S
O309 Co306 1.970 . S
O309 C308 1.258 . S
O310 Co307 1.966 . S
O310 C308 1.263 . S
C311 O312 1.235 . S
C311 O338 1.289 . S
O312 C311 1.235 . S
C313 C315 1.400 1_554 S
C313 N316 1.351 . S
C313 C318 1.501 . S
C314 C315 1.387 . S
C314 N317 1.341 1_556 S
C315 C313 1.400 1_556 S
C315 C314 1.387 . S
N316 Co307 2.022 . S
N316 C313 1.351 . S
N316 N317 1.365 . S
N317 C314 1.341 1_554 S
N317 N316 1.365 . S
N317 H337 0.862 . S
C318 C313 1.501 . S
C318 H319 0.961 . S
C318 H320 0.961 . S
C318 H321 0.960 . S
H319 C318 0.961 . S
H320 C318 0.961 . S
H321 C318 0.960 . S
C322 N323 1.342 . S
C322 C326 1.401 . S
C322 C327 1.499 . S
N323 Co306 1.989 . S
N323 C322 1.342 . S
N323 N324 1.388 . S
N324 Co307 1.993 . S
N324 N323 1.388 . S
N324 C325 1.346 . S
C325 N324 1.346 . S
C325 C326 1.396 . S
C325 C335 1.510 . S
C326 C322 1.401 . S
C326 C325 1.396 . S
C327 C322 1.499 . S
C327 H328 0.959 . S
C327 H329 0.960 . S
C327 H330 0.961 . S
H328 C327 0.959 . S
H329 C327 0.960 . S
H330 C327 0.961 . S
O331 Co306 1.967 . S
O331 C339 1.258 . S
O332 Co307 1.941 . S
O332 C339 1.266 . S
H333 C335 0.959 . S
H334 C335 0.961 . S
C335 C325 1.510 . S
C335 H333 0.959 . S
C335 H334 0.961 . S
C335 H336 0.960 . S
H336 C335 0.960 . S
H337 N317 0.862 . S
O338 Co306 1.920 . S
O338 C311 1.289 . S
C339 O331 1.258 . S
C339 O332 1.266 . S
Co340 O343 1.970 . S
Co340 N357 1.989 . S
Co340 O365 1.967 . S
Co340 O372 1.920 . S
Co341 O344 1.966 . S
Co341 N350 2.022 . S
Co341 N358 1.993 . S
Co341 O366 1.941 . S
C342 O343 1.258 . S
C342 O344 1.263 . S
O343 Co340 1.970 . S
O343 C342 1.258 . S
O344 Co341 1.966 . S
O344 C342 1.263 . S
C345 O346 1.235 . S
C345 O372 1.289 . S
O346 C345 1.235 . S
C347 C349 1.400 . S
C347 N350 1.351 . S
C347 C352 1.501 . S
C348 C349 1.387 . S
C348 N351 1.341 . S
C349 C347 1.400 . S
C349 C348 1.387 . S
N350 Co341 2.022 . S
N350 C347 1.351 . S
N350 N351 1.365 . S
N351 C348 1.341 . S
N351 N350 1.365 . S
N351 H371 0.862 . S
C352 C347 1.501 . S
C352 H353 0.961 . S
C352 H354 0.961 . S
C352 H355 0.960 . S
H353 C352 0.961 . S
H354 C352 0.961 . S
H355 C352 0.960 . S
C356 N357 1.342 . S
C356 C360 1.401 . S
C356 C361 1.499 . S
N357 Co340 1.989 . S
N357 C356 1.342 . S
N357 N358 1.388 . S
N358 Co341 1.993 . S
N358 N357 1.388 . S
N358 C359 1.346 . S
C359 N358 1.346 . S
C359 C360 1.396 . S
C359 C369 1.510 . S
C360 C356 1.401 . S
C360 C359 1.396 . S
C361 C356 1.499 . S
C361 H362 0.959 . S
C361 H363 0.960 . S
C361 H364 0.961 . S
H362 C361 0.959 . S
H363 C361 0.960 . S
H364 C361 0.961 . S
O365 Co340 1.967 . S
O365 C373 1.258 . S
O366 Co341 1.941 . S
O366 C373 1.266 . S
H367 C369 0.959 . S
H368 C369 0.961 . S
C369 C359 1.510 . S
C369 H367 0.959 . S
C369 H368 0.961 . S
C369 H370 0.960 . S
H370 C369 0.960 . S
H371 N351 0.862 . S
O372 Co340 1.920 . S
O372 C345 1.289 . S
C373 O365 1.258 . S
C373 O366 1.266 . S
Co374 O377 1.970 . S
Co374 N391 1.989 . S
Co374 O399 1.967 . S
Co374 O406 1.920 . S
Co375 O378 1.966 . S
Co375 N384 2.022 . S
Co375 N392 1.993 . S
Co375 O400 1.941 . S
C376 O377 1.258 . S
C376 O378 1.263 . S
O377 Co374 1.970 . S
O377 C376 1.258 . S
O378 Co375 1.966 . S
O378 C376 1.263 . S
C379 O380 1.235 . S
C379 O406 1.289 . S
O380 C379 1.235 . S
C381 C383 1.400 . S
C381 N384 1.351 . S
C381 C386 1.501 . S
C382 C383 1.387 . S
C382 N385 1.341 . S
C383 C381 1.400 . S
C383 C382 1.387 . S
N384 Co375 2.022 . S
N384 C381 1.351 . S
N384 N385 1.365 . S
N385 C382 1.341 . S
N385 N384 1.365 . S
N385 H405 0.862 . S
C386 C381 1.501 . S
C386 H387 0.961 . S
C386 H388 0.961 . S
C386 H389 0.960 . S
H387 C386 0.961 . S
H388 C386 0.961 . S
H389 C386 0.960 . S
C390 N391 1.342 . S
C390 C394 1.401 . S
C390 C395 1.499 . S
N391 Co374 1.989 . S
N391 C390 1.342 . S
N391 N392 1.388 . S
N392 Co375 1.993 . S
N392 N391 1.388 . S
N392 C393 1.346 . S
C393 N392 1.346 . S
C393 C394 1.396 . S
C393 C403 1.510 . S
C394 C390 1.401 . S
C394 C393 1.396 . S
C395 C390 1.499 . S
C395 H396 0.959 . S
C395 H397 0.960 . S
C395 H398 0.961 . S
H396 C395 0.959 . S
H397 C395 0.960 . S
H398 C395 0.961 . S
O399 Co374 1.967 . S
O399 C407 1.258 . S
O400 Co375 1.941 . S
O400 C407 1.266 . S
H401 C403 0.959 . S
H402 C403 0.961 . S
C403 C393 1.510 . S
C403 H401 0.959 . S
C403 H402 0.961 . S
C403 H404 0.960 . S
H404 C403 0.960 . S
H405 N385 0.862 . S
O406 Co374 1.920 . S
O406 C379 1.289 . S
C407 O399 1.258 . S
C407 O400 1.266 . S
C408 C409 1.349 . S
C408 C410 1.327 . S
C408 H433 0.950 . S
C409 C408 1.349 . S
C409 C425 1.349 . S
C410 C408 1.327 . S
C410 C429 1.429 . S
C410 H434 0.950 . S
C411 C428 1.574 . S
C411 C430 1.368 . S
C411 H435 0.949 . S
H412 C416 0.949 . S
C413 C414 1.349 . S
C413 C415 1.327 . S
C413 H436 0.950 . S
C414 C413 1.349 . S
C414 C426 1.349 . S
C415 C413 1.327 . S
C415 C431 1.429 . S
C415 H437 0.950 . S
C416 H412 0.949 . S
C416 C424 1.574 . S
C416 C432 1.368 . S
H417 C425 0.950 . S
H418 C423 0.950 . S
H419 C424 0.949 . S
H420 C426 0.950 . S
H421 C427 0.950 . S
H422 C428 0.949 . S
C423 H418 0.950 . S
C423 C425 1.327 . S
C423 C429 1.429 . S
C424 C416 1.574 . S
C424 H419 0.949 . S
C424 C430 1.368 . S
C425 C409 1.349 . S
C425 H417 0.950 . S
C425 C423 1.327 . S
C426 C414 1.349 . S
C426 H420 0.950 . S
C426 C427 1.327 . S
C427 H421 0.950 . S
C427 C426 1.327 . S
C427 C431 1.429 . S
C428 C411 1.574 . S
C428 H422 0.949 . S
C428 C432 1.368 . S
C429 C410 1.429 . S
C429 C423 1.429 . S
C429 C430 1.523 . S
C430 C411 1.368 . S
C430 C424 1.368 . S
C430 C429 1.523 . S
C431 C415 1.429 . S
C431 C427 1.429 . S
C431 C432 1.523 . S
C432 C416 1.368 . S
C432 C428 1.368 . S
C432 C431 1.523 . S
H433 C408 0.950 . S
H434 C410 0.950 . S
H435 C411 0.949 . S
H436 C413 0.950 . S
H437 C415 0.950 . S
C438 C439 1.349 . S
C438 C440 1.327 . S
C438 H463 0.950 . S
C439 C438 1.349 . S
C439 C455 1.349 . S
C440 C438 1.327 . S
C440 C459 1.429 1_554 S
C440 H464 0.949 1_554 S
C441 C458 1.574 . S
C441 C460 1.368 . S
C441 H465 0.949 . S
H442 C446 0.949 . S
C443 C444 1.349 . S
C443 C445 1.327 . S
C443 H466 0.950 . S
C444 C443 1.349 . S
C444 C456 1.349 . S
C445 C443 1.327 . S
C445 C461 1.429 . S
C445 H467 0.950 . S
C446 H442 0.949 . S
C446 C454 1.574 . S
C446 C462 1.368 . S
H447 C455 0.950 . S
H448 C453 0.950 1_556 S
H449 C454 0.949 . S
H450 C456 0.950 . S
H451 C457 0.950 . S
H452 C458 0.949 . S
C453 H448 0.950 1_554 S
C453 C455 1.327 . S
C453 C459 1.429 1_554 S
C454 C446 1.574 . S
C454 H449 0.949 . S
C454 C460 1.368 . S
C455 C439 1.349 . S
C455 H447 0.950 . S
C455 C453 1.327 . S
C456 C444 1.349 . S
C456 H450 0.950 . S
C456 C457 1.327 . S
C457 H451 0.950 . S
C457 C456 1.327 . S
C457 C461 1.429 . S
C458 C441 1.574 . S
C458 H452 0.949 . S
C458 C462 1.368 . S
C459 C440 1.429 1_556 S
C459 C453 1.429 1_556 S
C459 C460 1.523 . S
C460 C441 1.368 . S
C460 C454 1.368 . S
C460 C459 1.523 . S
C461 C445 1.429 . S
C461 C457 1.429 . S
C461 C462 1.523 . S
C462 C446 1.368 . S
C462 C458 1.368 . S
C462 C461 1.523 . S
H463 C438 0.950 . S
H464 C440 0.949 1_556 S
H465 C441 0.949 . S
H466 C443 0.950 . S
H467 C445 0.950 . S
C468 C469 1.349 . S
C468 C470 1.327 . S
C468 H493 0.950 . S
C469 C468 1.349 . S
C469 C485 1.349 . S
C470 C468 1.327 . S
C470 C489 1.429 . S
C470 H494 0.950 . S
C471 C488 1.574 1_554 S
C471 C490 1.368 . S
C471 H495 0.949 . S
H472 C476 0.949 . S
C473 C474 1.349 . S
C473 C475 1.327 . S
C473 H496 0.950 . S
C474 C473 1.349 . S
C474 C486 1.349 . S
C475 C473 1.327 . S
C475 C491 1.429 . S
C475 H497 0.950 . S
C476 H472 0.949 . S
C476 C484 1.574 1_556 S
C476 C492 1.368 . S
H477 C485 0.950 . S
H478 C483 0.950 . S
H479 C484 0.949 . S
H480 C486 0.950 . S
H481 C487 0.950 . S
H482 C488 0.949 . S
C483 H478 0.950 . S
C483 C485 1.327 . S
C483 C489 1.429 . S
C484 C476 1.574 1_554 S
C484 H479 0.949 . S
C484 C490 1.368 . S
C485 C469 1.349 . S
C485 H477 0.950 . S
C485 C483 1.327 . S
C486 C474 1.349 . S
C486 H480 0.950 . S
C486 C487 1.327 . S
C487 H481 0.950 . S
C487 C486 1.327 . S
C487 C491 1.429 . S
C488 C471 1.574 1_556 S
C488 H482 0.949 . S
C488 C492 1.368 . S
C489 C470 1.429 . S
C489 C483 1.429 . S
C489 C490 1.523 . S
C490 C471 1.368 . S
C490 C484 1.368 . S
C490 C489 1.523 . S
C491 C475 1.429 . S
C491 C487 1.429 . S
C491 C492 1.523 . S
C492 C476 1.368 . S
C492 C488 1.368 . S
C492 C491 1.523 . S
H493 C468 0.950 . S
H494 C470 0.950 . S
H495 C471 0.949 . S
H496 C473 0.950 . S
H497 C475 0.950 . S
C498 C499 1.349 . S
C498 C500 1.327 1_556 S
C498 H523 0.950 . S
C499 C498 1.349 . S
C499 C515 1.349 . S
C500 C498 1.327 1_554 S
C500 C519 1.429 . S
C500 H524 0.950 . S
C501 C518 1.574 . S
C501 C520 1.368 . S
C501 H525 0.949 . S
H502 C506 0.949 . S
C503 C504 1.349 . S
C503 C505 1.327 . S
C503 H526 0.950 . S
C504 C503 1.349 . S
C504 C516 1.349 . S
C505 C503 1.327 . S
C505 C521 1.429 . S
C505 H527 0.950 . S
C506 H502 0.949 . S
C506 C514 1.574 . S
C506 C522 1.368 . S
H507 C515 0.950 . S
H508 C513 0.950 . S
H509 C514 0.949 . S
H510 C516 0.950 . S
H511 C517 0.950 . S
H512 C518 0.949 . S
C513 H508 0.950 . S
C513 C515 1.327 1_554 S
C513 C519 1.429 . S
C514 C506 1.574 . S
C514 H509 0.949 . S
C514 C520 1.368 . S
C515 C499 1.349 . S
C515 H507 0.950 . S
C515 C513 1.327 1_556 S
C516 C504 1.349 . S
C516 H510 0.950 . S
C516 C517 1.327 . S
C517 H511 0.950 . S
C517 C516 1.327 . S
C517 C521 1.429 . S
C518 C501 1.574 . S
C518 H512 0.949 . S
C518 C522 1.368 . S
C519 C500 1.429 . S
C519 C513 1.429 . S
C519 C520 1.523 . S
C520 C501 1.368 . S
C520 C514 1.368 . S
C520 C519 1.523 . S
C521 C505 1.429 . S
C521 C517 1.429 . S
C521 C522 1.523 . S
C522 C506 1.368 . S
C522 C518 1.368 . S
C522 C521 1.523 . S
H523 C498 0.950 . S
H524 C500 0.950 . S
H525 C501 0.949 . S
H526 C503 0.950 . S
H527 C505 0.950 . S
C528 C529 1.349 . S
C528 C530 1.327 . S
C528 H553 0.950 . S
C529 C528 1.349 . S
C529 C545 1.349 . S
C530 C528 1.327 . S
C530 C549 1.429 . S
C530 H554 0.950 . S
C531 C548 1.574 . S
C531 C550 1.368 . S
C531 H555 0.949 . S
H532 C536 0.949 . S
C533 C534 1.349 . S
C533 C535 1.327 . S
C533 H556 0.950 . S
C534 C533 1.349 . S
C534 C546 1.349 . S
C535 C533 1.327 . S
C535 C551 1.429 . S
C535 H557 0.950 . S
C536 H532 0.949 . S
C536 C544 1.574 . S
C536 C552 1.368 . S
H537 C545 0.950 . S
H538 C543 0.950 . S
H539 C544 0.949 . S
H540 C546 0.950 . S
H541 C547 0.950 . S
H542 C548 0.949 . S
C543 H538 0.950 . S
C543 C545 1.327 . S
C543 C549 1.429 . S
C544 C536 1.574 . S
C544 H539 0.949 . S
C544 C550 1.368 . S
C545 C529 1.349 . S
C545 H537 0.950 . S
C545 C543 1.327 . S
C546 C534 1.349 . S
C546 H540 0.950 . S
C546 C547 1.327 . S
C547 H541 0.950 . S
C547 C546 1.327 . S
C547 C551 1.429 . S
C548 C531 1.574 . S
C548 H542 0.949 . S
C548 C552 1.368 . S
C549 C530 1.429 . S
C549 C543 1.429 . S
C549 C550 1.523 . S
C550 C531 1.368 . S
C550 C544 1.368 . S
C550 C549 1.523 . S
C551 C535 1.429 . S
C551 C547 1.429 . S
C551 C552 1.523 . S
C552 C536 1.368 . S
C552 C548 1.368 . S
C552 C551 1.523 . S
H553 C528 0.950 . S
H554 C530 0.950 . S
H555 C531 0.949 . S
H556 C533 0.950 . S
H557 C535 0.950 . S
C558 C559 1.349 . S
C558 C560 1.327 . S
C558 H583 0.950 . S
C559 C558 1.349 . S
C559 C575 1.349 . S
C560 C558 1.327 . S
C560 C579 1.429 . S
C560 H584 0.950 . S
C561 C578 1.574 . S
C561 C580 1.368 . S
C561 H585 0.949 . S
H562 C566 0.949 . S
C563 C564 1.349 . S
C563 C565 1.327 . S
C563 H586 0.950 . S
C564 C563 1.349 . S
C564 C576 1.349 . S
C565 C563 1.327 . S
C565 C581 1.429 . S
C565 H587 0.950 . S
C566 H562 0.949 . S
C566 C574 1.574 . S
C566 C582 1.368 . S
H567 C575 0.950 . S
H568 C573 0.950 . S
H569 C574 0.949 . S
H570 C576 0.950 . S
H571 C577 0.950 . S
H572 C578 0.949 . S
C573 H568 0.950 . S
C573 C575 1.327 . S
C573 C579 1.429 . S
C574 C566 1.574 . S
C574 H569 0.949 . S
C574 C580 1.368 . S
C575 C559 1.349 . S
C575 H567 0.950 . S
C575 C573 1.327 . S
C576 C564 1.349 . S
C576 H570 0.950 . S
C576 C577 1.327 . S
C577 H571 0.950 . S
C577 C576 1.327 . S
C577 C581 1.429 . S
C578 C561 1.574 . S
C578 H572 0.949 . S
C578 C582 1.368 . S
C579 C560 1.429 . S
C579 C573 1.429 . S
C579 C580 1.523 . S
C580 C561 1.368 . S
C580 C574 1.368 . S
C580 C579 1.523 . S
C581 C565 1.429 . S
C581 C577 1.429 . S
C581 C582 1.523 . S
C582 C566 1.368 . S
C582 C578 1.368 . S
C582 C581 1.523 . S
H583 C558 0.950 . S
H584 C560 0.950 . S
H585 C561 0.949 . S
H586 C563 0.950 . S
H587 C565 0.950 . S
C588 C589 1.349 . S
C588 C590 1.327 . S
C588 H613 0.950 . S
C589 C588 1.349 . S
C589 C605 1.349 . S
C590 C588 1.327 . S
C590 C609 1.429 . S
C590 H614 0.950 . S
C591 C608 1.574 . S
C591 C610 1.368 . S
C591 H615 0.949 . S
H592 C596 0.949 . S
C593 C594 1.349 . S
C593 C595 1.327 1_556 S
C593 H616 0.950 . S
C594 C593 1.349 . S
C594 C606 1.349 . S
C595 C593 1.327 1_554 S
C595 C611 1.429 . S
C595 H617 0.950 . S
C596 H592 0.949 . S
C596 C604 1.574 . S
C596 C612 1.368 . S
H597 C605 0.950 . S
H598 C603 0.950 . S
H599 C604 0.949 . S
H600 C606 0.950 . S
H601 C607 0.950 . S
H602 C608 0.949 . S
C603 H598 0.950 . S
C603 C605 1.327 . S
C603 C609 1.429 . S
C604 C596 1.574 . S
C604 H599 0.949 . S
C604 C610 1.368 . S
C605 C589 1.349 . S
C605 H597 0.950 . S
C605 C603 1.327 . S
C606 C594 1.349 . S
C606 H600 0.950 . S
C606 C607 1.327 1_556 S
C607 H601 0.950 . S
C607 C606 1.327 1_554 S
C607 C611 1.429 . S
C608 C591 1.574 . S
C608 H602 0.949 . S
C608 C612 1.368 . S
C609 C590 1.429 . S
C609 C603 1.429 . S
C609 C610 1.523 . S
C610 C591 1.368 . S
C610 C604 1.368 . S
C610 C609 1.523 . S
C611 C595 1.429 . S
C611 C607 1.429 . S
C611 C612 1.523 . S
C612 C596 1.368 . S
C612 C608 1.368 . S
C612 C611 1.523 . S
H613 C588 0.950 . S
H614 C590 0.950 . S
H615 C591 0.949 . S
H616 C593 0.950 . S
H617 C595 0.950 . S
C618 C619 1.349 . S
C618 C620 1.327 . S
C618 H643 0.950 . S
C619 C618 1.349 . S
C619 C635 1.349 . S
C620 C618 1.327 . S
C620 C639 1.429 . S
C620 H644 0.950 . S
C621 C638 1.574 . S
C621 C640 1.368 . S
C621 H645 0.949 . S
H622 C626 0.949 . S
C623 C624 1.349 . S
C623 C625 1.327 . S
C623 H646 0.950 . S
C624 C623 1.349 . S
C624 C636 1.349 . S
C625 C623 1.327 . S
C625 C641 1.429 . S
C625 H647 0.950 . S
C626 H622 0.949 . S
C626 C634 1.574 . S
C626 C642 1.368 . S
H627 C635 0.950 . S
H628 C633 0.950 . S
H629 C634 0.949 . S
H630 C636 0.950 . S
H631 C637 0.950 . S
H632 C638 0.949 . S
C633 H628 0.950 . S
C633 C635 1.327 . S
C633 C639 1.429 . S
C634 C626 1.574 . S
C634 H629 0.949 . S
C634 C640 1.368 . S
C635 C619 1.349 . S
C635 H627 0.950 . S
C635 C633 1.327 . S
C636 C624 1.349 . S
C636 H630 0.950 . S
C636 C637 1.327 . S
C637 H631 0.950 . S
C637 C636 1.327 . S
C637 C641 1.429 . S
C638 C621 1.574 . S
C638 H632 0.949 . S
C638 C642 1.368 . S
C639 C620 1.429 . S
C639 C633 1.429 . S
C639 C640 1.523 . S
C640 C621 1.368 . S
C640 C634 1.368 . S
C640 C639 1.523 . S
C641 C625 1.429 . S
C641 C637 1.429 . S
C641 C642 1.523 . S
C642 C626 1.368 . S
C642 C638 1.368 . S
C642 C641 1.523 . S
H643 C618 0.950 . S
H644 C620 0.950 . S
H645 C621 0.949 . S
H646 C623 0.950 . S
H647 C625 0.950 . S
C648 C649 1.349 . S
C648 C650 1.327 . S
C648 H673 0.950 . S
C649 C648 1.349 . S
C649 C665 1.349 . S
C650 C648 1.327 . S
C650 C669 1.429 . S
C650 H674 0.950 . S
C651 C668 1.574 . S
C651 C670 1.368 . S
C651 H675 0.949 . S
H652 C656 0.949 . S
C653 C654 1.349 . S
C653 C655 1.327 . S
C653 H676 0.950 . S
C654 C653 1.349 . S
C654 C666 1.349 . S
C655 C653 1.327 . S
C655 C671 1.429 . S
C655 H677 0.950 . S
C656 H652 0.949 . S
C656 C664 1.574 . S
C656 C672 1.368 . S
H657 C665 0.950 . S
H658 C663 0.950 . S
H659 C664 0.949 . S
H660 C666 0.950 . S
H661 C667 0.950 . S
H662 C668 0.949 . S
C663 H658 0.950 . S
C663 C665 1.327 . S
C663 C669 1.429 . S
C664 C656 1.574 . S
C664 H659 0.949 . S
C664 C670 1.368 . S
C665 C649 1.349 . S
C665 H657 0.950 . S
C665 C663 1.327 . S
C666 C654 1.349 . S
C666 H660 0.950 . S
C666 C667 1.327 . S
C667 H661 0.950 . S
C667 C666 1.327 . S
C667 C671 1.429 . S
C668 C651 1.574 . S
C668 H662 0.949 . S
C668 C672 1.368 . S
C669 C650 1.429 . S
C669 C663 1.429 . S
C669 C670 1.523 . S
C670 C651 1.368 . S
C670 C664 1.368 . S
C670 C669 1.523 . S
C671 C655 1.429 . S
C671 C667 1.429 . S
C671 C672 1.523 . S
C672 C656 1.368 . S
C672 C668 1.368 . S
C672 C671 1.523 . S
H673 C648 0.950 . S
H674 C650 0.950 . S
H675 C651 0.949 . S
H676 C653 0.950 . S
H677 C655 0.950 . S
C678 C679 1.349 . S
C678 C680 1.327 . S
C678 H703 0.950 . S
C679 C678 1.349 . S
C679 C695 1.349 . S
C680 C678 1.327 . S
C680 C699 1.429 . S
C680 H704 0.950 . S
C681 C698 1.574 . S
C681 C700 1.368 . S
C681 H705 0.949 . S
H682 C686 0.949 . S
C683 C684 1.349 . S
C683 C685 1.327 . S
C683 H706 0.950 . S
C684 C683 1.349 . S
C684 C696 1.349 . S
C685 C683 1.327 . S
C685 C701 1.429 . S
C685 H707 0.950 . S
C686 H682 0.949 . S
C686 C694 1.574 . S
C686 C702 1.368 . S
H687 C695 0.950 . S
H688 C693 0.950 . S
H689 C694 0.949 . S
H690 C696 0.950 . S
H691 C697 0.950 . S
H692 C698 0.949 . S
C693 H688 0.950 . S
C693 C695 1.327 . S
C693 C699 1.429 . S
C694 C686 1.574 . S
C694 H689 0.949 . S
C694 C700 1.368 . S
C695 C679 1.349 . S
C695 H687 0.950 . S
C695 C693 1.327 . S
C696 C684 1.349 . S
C696 H690 0.950 . S
C696 C697 1.327 . S
C697 H691 0.950 . S
C697 C696 1.327 . S
C697 C701 1.429 . S
C698 C681 1.574 . S
C698 H692 0.949 . S
C698 C702 1.368 . S
C699 C680 1.429 . S
C699 C693 1.429 . S
C699 C700 1.523 . S
C700 C681 1.368 . S
C700 C694 1.368 . S
C700 C699 1.523 . S
C701 C685 1.429 . S
C701 C697 1.429 . S
C701 C702 1.523 . S
C702 C686 1.368 . S
C702 C698 1.368 . S
C702 C701 1.523 . S
H703 C678 0.950 . S
H704 C680 0.950 . S
H705 C681 0.949 . S
H706 C683 0.950 . S
H707 C685 0.950 . S
C708 C709 1.349 . S
C708 C710 1.327 . S
C708 H733 0.950 . S
C709 C708 1.349 . S
C709 C725 1.349 . S
C710 C708 1.327 . S
C710 C729 1.429 1_554 S
C710 H734 0.950 1_554 S
C711 C728 1.574 . S
C711 C730 1.368 . S
C711 H735 0.949 . S
H712 C716 0.949 . S
C713 C714 1.349 . S
C713 C715 1.327 . S
C713 H736 0.950 . S
C714 C713 1.349 . S
C714 C726 1.349 . S
C715 C713 1.327 . S
C715 C731 1.429 . S
C715 H737 0.950 . S
C716 H712 0.949 . S
C716 C724 1.574 . S
C716 C732 1.368 . S
H717 C725 0.950 . S
H718 C723 0.950 . S
H719 C724 0.949 . S
H720 C726 0.950 . S
H721 C727 0.950 . S
H722 C728 0.949 . S
C723 H718 0.950 . S
C723 C725 1.327 . S
C723 C729 1.429 1_554 S
C724 C716 1.574 . S
C724 H719 0.949 . S
C724 C730 1.368 . S
C725 C709 1.349 . S
C725 H717 0.950 . S
C725 C723 1.327 . S
C726 C714 1.349 . S
C726 H720 0.950 . S
C726 C727 1.327 . S
C727 H721 0.950 . S
C727 C726 1.327 . S
C727 C731 1.429 . S
C728 C711 1.574 . S
C728 H722 0.949 . S
C728 C732 1.368 . S
C729 C710 1.429 1_556 S
C729 C723 1.429 1_556 S
C729 C730 1.523 . S
C730 C711 1.368 . S
C730 C724 1.368 . S
C730 C729 1.523 . S
C731 C715 1.429 . S
C731 C727 1.429 . S
C731 C732 1.523 . S
C732 C716 1.368 . S
C732 C728 1.368 . S
C732 C731 1.523 . S
H733 C708 0.950 . S
H734 C710 0.950 1_556 S
H735 C711 0.949 . S
H736 C713 0.950 . S
H737 C715 0.950 . S
C738 C739 1.349 . S
C738 C740 1.327 . S
C738 H763 0.950 . S
C739 C738 1.349 . S
C739 C755 1.349 . S
C740 C738 1.327 . S
C740 C759 1.429 . S
C740 H764 0.950 . S
C741 C758 1.574 1_556 S
C741 C760 1.368 . S
C741 H765 0.949 . S
H742 C746 0.949 . S
C743 C744 1.349 . S
C743 C745 1.327 . S
C743 H766 0.950 . S
C744 C743 1.349 . S
C744 C756 1.349 . S
C745 C743 1.327 . S
C745 C761 1.429 . S
C745 H767 0.950 . S
C746 H742 0.949 . S
C746 C754 1.574 1_554 S
C746 C762 1.368 . S
H747 C755 0.950 . S
H748 C753 0.950 . S
H749 C754 0.949 . S
H750 C756 0.950 . S
H751 C757 0.950 . S
H752 C758 0.949 . S
C753 H748 0.950 . S
C753 C755 1.327 . S
C753 C759 1.429 . S
C754 C746 1.574 1_556 S
C754 H749 0.949 . S
C754 C760 1.368 . S
C755 C739 1.349 . S
C755 H747 0.950 . S
C755 C753 1.327 . S
C756 C744 1.349 . S
C756 H750 0.950 . S
C756 C757 1.327 . S
C757 H751 0.950 . S
C757 C756 1.327 . S
C757 C761 1.429 . S
C758 C741 1.574 1_554 S
C758 H752 0.949 . S
C758 C762 1.368 . S
C759 C740 1.429 . S
C759 C753 1.429 . S
C759 C760 1.523 . S
C760 C741 1.368 . S
C760 C754 1.368 . S
C760 C759 1.523 . S
C761 C745 1.429 . S
C761 C757 1.429 . S
C761 C762 1.523 . S
C762 C746 1.368 . S
C762 C758 1.368 . S
C762 C761 1.523 . S
H763 C738 0.950 . S
H764 C740 0.950 . S
H765 C741 0.949 . S
H766 C743 0.950 . S
H767 C745 0.950 . S
C768 C769 1.349 . S
C768 C770 1.327 . S
C768 H793 0.950 . S
C769 C768 1.349 . S
C769 C785 1.349 . S
C770 C768 1.327 . S
C770 C789 1.429 . S
C770 H794 0.950 . S
C771 C788 1.574 . S
C771 C790 1.368 . S
C771 H795 0.949 . S
H772 C776 0.949 . S
C773 C774 1.349 . S
C773 C775 1.327 . S
C773 H796 0.950 . S
C774 C773 1.349 . S
C774 C786 1.349 . S
C775 C773 1.327 . S
C775 C791 1.429 . S
C775 H797 0.950 . S
C776 H772 0.949 . S
C776 C784 1.574 . S
C776 C792 1.368 . S
H777 C785 0.950 . S
H778 C783 0.950 . S
H779 C784 0.949 . S
H780 C786 0.950 . S
H781 C787 0.950 . S
H782 C788 0.949 . S
C783 H778 0.950 . S
C783 C785 1.327 . S
C783 C789 1.429 . S
C784 C776 1.574 . S
C784 H779 0.949 . S
C784 C790 1.368 . S
C785 C769 1.349 . S
C785 H777 0.950 . S
C785 C783 1.327 . S
C786 C774 1.349 . S
C786 H780 0.950 . S
C786 C787 1.327 . S
C787 H781 0.950 . S
C787 C786 1.327 . S
C787 C791 1.429 . S
C788 C771 1.574 . S
C788 H782 0.949 . S
C788 C792 1.368 . S
C789 C770 1.429 . S
C789 C783 1.429 . S
C789 C790 1.523 . S
C790 C771 1.368 . S
C790 C784 1.368 . S
C790 C789 1.523 . S
C791 C775 1.429 . S
C791 C787 1.429 . S
C791 C792 1.523 1_554 S
C792 C776 1.368 . S
C792 C788 1.368 . S
C792 C791 1.523 1_556 S
H793 C768 0.950 . S
H794 C770 0.950 . S
H795 C771 0.949 . S
H796 C773 0.950 . S
H797 C775 0.950 . S
C798 C799 1.349 . S
C798 C800 1.327 . S
C798 H823 0.950 . S
C799 C798 1.349 . S
C799 C815 1.349 . S
C800 C798 1.327 . S
C800 C819 1.429 . S
C800 H824 0.950 . S
C801 C818 1.574 . S
C801 C820 1.368 . S
C801 H825 0.949 . S
H802 C806 0.949 . S
C803 C804 1.349 . S
C803 C805 1.327 . S
C803 H826 0.950 . S
C804 C803 1.349 . S
C804 C816 1.349 . S
C805 C803 1.327 . S
C805 C821 1.429 1_556 S
C805 H827 0.950 . S
C806 H802 0.949 . S
C806 C814 1.574 . S
C806 C822 1.368 . S
H807 C815 0.950 . S
H808 C813 0.950 . S
H809 C814 0.949 . S
H810 C816 0.950 . S
H811 C817 0.950 . S
H812 C818 0.949 . S
C813 H808 0.950 . S
C813 C815 1.327 . S
C813 C819 1.429 . S
C814 C806 1.574 . S
C814 H809 0.949 . S
C814 C820 1.368 . S
C815 C799 1.349 . S
C815 H807 0.950 . S
C815 C813 1.327 . S
C816 C804 1.349 . S
C816 H810 0.950 . S
C816 C817 1.327 1_556 S
C817 H811 0.950 . S
C817 C816 1.327 1_554 S
C817 C821 1.429 . S
C818 C801 1.574 . S
C818 H812 0.949 . S
C818 C822 1.368 . S
C819 C800 1.429 . S
C819 C813 1.429 . S
C819 C820 1.523 . S
C820 C801 1.368 . S
C820 C814 1.368 . S
C820 C819 1.523 . S
C821 C805 1.429 1_554 S
C821 C817 1.429 . S
C821 C822 1.523 . S
C822 C806 1.368 . S
C822 C818 1.368 . S
C822 C821 1.523 . S
H823 C798 0.950 . S
H824 C800 0.950 . S
H825 C801 0.949 . S
H826 C803 0.950 . S
H827 C805 0.950 . S
C828 C829 1.349 . S
C828 C830 1.327 . S
C828 H853 0.950 . S
C829 C828 1.349 . S
C829 C845 1.349 . S
C830 C828 1.327 . S
C830 C849 1.429 . S
C830 H854 0.950 . S
C831 C848 1.574 . S
C831 C850 1.368 . S
C831 H855 0.949 . S
H832 C836 0.949 . S
C833 C834 1.349 . S
C833 C835 1.327 . S
C833 H856 0.950 . S
C834 C833 1.349 . S
C834 C846 1.349 . S
C835 C833 1.327 . S
C835 C851 1.429 . S
C835 H857 0.950 . S
C836 H832 0.949 . S
C836 C844 1.574 . S
C836 C852 1.368 . S
H837 C845 0.950 . S
H838 C843 0.950 . S
H839 C844 0.949 . S
H840 C846 0.950 . S
H841 C847 0.950 . S
H842 C848 0.949 . S
C843 H838 0.950 . S
C843 C845 1.327 . S
C843 C849 1.429 . S
C844 C836 1.574 . S
C844 H839 0.949 . S
C844 C850 1.368 . S
C845 C829 1.349 . S
C845 H837 0.950 . S
C845 C843 1.327 . S
C846 C834 1.349 . S
C846 H840 0.950 . S
C846 C847 1.327 . S
C847 H841 0.950 . S
C847 C846 1.327 . S
C847 C851 1.429 . S
C848 C831 1.574 . S
C848 H842 0.949 . S
C848 C852 1.368 . S
C849 C830 1.429 . S
C849 C843 1.429 . S
C849 C850 1.523 . S
C850 C831 1.368 . S
C850 C844 1.368 . S
C850 C849 1.523 . S
C851 C835 1.429 . S
C851 C847 1.429 . S
C851 C852 1.523 . S
C852 C836 1.368 . S
C852 C848 1.368 . S
C852 C851 1.523 . S
H853 C828 0.950 . S
H854 C830 0.950 . S
H855 C831 0.949 . S
H856 C833 0.950 . S
H857 C835 0.950 . S
C858 C859 1.349 . S
C858 C860 1.327 . S
C858 H883 0.950 . S
C859 C858 1.349 . S
C859 C875 1.349 . S
C860 C858 1.327 . S
C860 C879 1.429 . S
C860 H884 0.950 . S
C861 C878 1.574 . S
C861 C880 1.368 . S
C861 H885 0.949 . S
H862 C866 0.949 . S
C863 C864 1.349 . S
C863 C865 1.327 . S
C863 H886 0.950 . S
C864 C863 1.349 . S
C864 C876 1.349 . S
C865 C863 1.327 . S
C865 C881 1.429 . S
C865 H887 0.950 . S
C866 H862 0.949 . S
C866 C874 1.574 . S
C866 C882 1.368 . S
H867 C875 0.950 . S
H868 C873 0.950 . S
H869 C874 0.949 . S
H870 C876 0.950 . S
H871 C877 0.950 . S
H872 C878 0.949 . S
C873 H868 0.950 . S
C873 C875 1.327 . S
C873 C879 1.429 . S
C874 C866 1.574 . S
C874 H869 0.949 . S
C874 C880 1.368 . S
C875 C859 1.349 . S
C875 H867 0.950 . S
C875 C873 1.327 . S
C876 C864 1.349 . S
C876 H870 0.950 . S
C876 C877 1.327 . S
C877 H871 0.950 . S
C877 C876 1.327 . S
C877 C881 1.429 . S
C878 C861 1.574 . S
C878 H872 0.949 . S
C878 C882 1.368 . S
C879 C860 1.429 . S
C879 C873 1.429 . S
C879 C880 1.523 . S
C880 C861 1.368 . S
C880 C874 1.368 . S
C880 C879 1.523 . S
C881 C865 1.429 . S
C881 C877 1.429 . S
C881 C882 1.523 . S
C882 C866 1.368 . S
C882 C878 1.368 . S
C882 C881 1.523 . S
H883 C858 0.950 . S
H884 C860 0.950 . S
H885 C861 0.949 . S
H886 C863 0.950 . S
H887 C865 0.950 . S
C888 C889 1.349 . S
C888 C890 1.327 . S
C888 H913 0.950 . S
C889 C888 1.349 . S
C889 C905 1.349 . S
C890 C888 1.327 . S
C890 C909 1.429 . S
C890 H914 0.950 . S
C891 C908 1.574 . S
C891 C910 1.368 . S
C891 H915 0.949 . S
H892 C896 0.949 . S
C893 C894 1.349 . S
C893 C895 1.327 . S
C893 H916 0.950 . S
C894 C893 1.349 . S
C894 C906 1.349 . S
C895 C893 1.327 . S
C895 C911 1.429 . S
C895 H917 0.950 . S
C896 H892 0.949 . S
C896 C904 1.574 . S
C896 C912 1.368 . S
H897 C905 0.950 . S
H898 C903 0.950 . S
H899 C904 0.949 . S
H900 C906 0.950 . S
H901 C907 0.950 . S
H902 C908 0.949 . S
C903 H898 0.950 . S
C903 C905 1.327 . S
C903 C909 1.429 . S
C904 C896 1.574 . S
C904 H899 0.949 . S
C904 C910 1.368 . S
C905 C889 1.349 . S
C905 H897 0.950 . S
C905 C903 1.327 . S
C906 C894 1.349 . S
C906 H900 0.950 . S
C906 C907 1.327 . S
C907 H901 0.950 . S
C907 C906 1.327 . S
C907 C911 1.429 . S
C908 C891 1.574 . S
C908 H902 0.949 . S
C908 C912 1.368 . S
C909 C890 1.429 . S
C909 C903 1.429 . S
C909 C910 1.523 . S
C910 C891 1.368 . S
C910 C904 1.368 . S
C910 C909 1.523 . S
C911 C895 1.429 . S
C911 C907 1.429 . S
C911 C912 1.523 . S
C912 C896 1.368 . S
C912 C908 1.368 . S
C912 C911 1.523 . S
H913 C888 0.950 . S
H914 C890 0.950 . S
H915 C891 0.949 . S
H916 C893 0.950 . S
H917 C895 0.950 . S
C918 C919 1.349 . S
C918 C920 1.327 . S
C918 H943 0.950 . S
C919 C918 1.349 . S
C919 C935 1.349 . S
C920 C918 1.327 . S
C920 C939 1.429 . S
C920 H944 0.950 . S
C921 C938 1.574 . S
C921 C940 1.368 . S
C921 H945 0.949 . S
H922 C926 0.949 . S
C923 C924 1.349 . S
C923 C925 1.327 . S
C923 H946 0.950 . S
C924 C923 1.349 . S
C924 C936 1.349 . S
C925 C923 1.327 . S
C925 C941 1.429 . S
C925 H947 0.950 . S
C926 H922 0.949 . S
C926 C934 1.574 . S
C926 C942 1.368 . S
H927 C935 0.950 . S
H928 C933 0.950 . S
H929 C934 0.949 . S
H930 C936 0.950 . S
H931 C937 0.950 . S
H932 C938 0.949 . S
C933 H928 0.950 . S
C933 C935 1.327 . S
C933 C939 1.429 . S
C934 C926 1.574 . S
C934 H929 0.949 . S
C934 C940 1.368 . S
C935 C919 1.349 . S
C935 H927 0.950 . S
C935 C933 1.327 . S
C936 C924 1.349 . S
C936 H930 0.950 . S
C936 C937 1.327 . S
C937 H931 0.950 . S
C937 C936 1.327 . S
C937 C941 1.429 . S
C938 C921 1.574 . S
C938 H932 0.949 . S
C938 C942 1.368 . S
C939 C920 1.429 . S
C939 C933 1.429 . S
C939 C940 1.523 . S
C940 C921 1.368 . S
C940 C934 1.368 . S
C940 C939 1.523 . S
C941 C925 1.429 . S
C941 C937 1.429 . S
C941 C942 1.523 . S
C942 C926 1.368 . S
C942 C938 1.368 . S
C942 C941 1.523 . S
H943 C918 0.950 . S
H944 C920 0.950 . S
H945 C921 0.949 . S
H946 C923 0.950 . S
H947 C925 0.950 . S
C948 C949 1.349 . S
C948 C950 1.327 . S
C948 H973 0.950 . S
C949 C948 1.349 . S
C949 C965 1.349 . S
C950 C948 1.327 . S
C950 C969 1.429 . S
C950 H974 0.950 . S
C951 C968 1.574 . S
C951 C970 1.368 . S
C951 H975 0.949 . S
H952 C956 0.949 . S
C953 C954 1.349 . S
C953 C955 1.327 . S
C953 H976 0.950 . S
C954 C953 1.349 . S
C954 C966 1.349 . S
C955 C953 1.327 . S
C955 C971 1.429 . S
C955 H977 0.950 . S
C956 H952 0.949 . S
C956 C964 1.574 . S
C956 C972 1.368 . S
H957 C965 0.950 . S
H958 C963 0.950 . S
H959 C964 0.949 . S
H960 C966 0.950 . S
H961 C967 0.950 . S
H962 C968 0.949 . S
C963 H958 0.950 . S
C963 C965 1.327 . S
C963 C969 1.429 . S
C964 C956 1.574 . S
C964 H959 0.949 . S
C964 C970 1.368 . S
C965 C949 1.349 . S
C965 H957 0.950 . S
C965 C963 1.327 . S
C966 C954 1.349 . S
C966 H960 0.950 . S
C966 C967 1.327 . S
C967 H961 0.950 . S
C967 C966 1.327 . S
C967 C971 1.429 . S
C968 C951 1.574 . S
C968 H962 0.949 . S
C968 C972 1.368 . S
C969 C950 1.429 . S
C969 C963 1.429 . S
C969 C970 1.523 . S
C970 C951 1.368 . S
C970 C964 1.368 . S
C970 C969 1.523 . S
C971 C955 1.429 . S
C971 C967 1.429 . S
C971 C972 1.523 . S
C972 C956 1.368 . S
C972 C968 1.368 . S
C972 C971 1.523 . S
H973 C948 0.950 . S
H974 C950 0.950 . S
H975 C951 0.949 . S
H976 C953 0.950 . S
H977 C955 0.950 . S
C978 C979 1.349 . S
C978 C980 1.327 . S
C978 H1003 0.950 . S
C979 C978 1.349 . S
C979 C995 1.349 . S
C980 C978 1.327 . S
C980 C999 1.429 . S
C980 H1004 0.950 . S
C981 C998 1.574 . S
C981 C1000 1.368 . S
C981 H1005 0.949 . S
H982 C986 0.949 . S
C983 C984 1.349 . S
C983 C985 1.327 . S
C983 H1006 0.950 . S
C984 C983 1.349 . S
C984 C996 1.349 . S
C985 C983 1.327 . S
C985 C1001 1.429 . S
C985 H1007 0.950 . S
C986 H982 0.949 . S
C986 C994 1.574 . S
C986 C1002 1.368 . S
H987 C995 0.950 . S
H988 C993 0.950 . S
H989 C994 0.949 . S
H990 C996 0.950 . S
H991 C997 0.950 . S
H992 C998 0.949 . S
C993 H988 0.950 . S
C993 C995 1.327 . S
C993 C999 1.429 . S
C994 C986 1.574 . S
C994 H989 0.949 . S
C994 C1000 1.368 . S
C995 C979 1.349 . S
C995 H987 0.950 . S
C995 C993 1.327 . S
C996 C984 1.349 . S
C996 H990 0.950 . S
C996 C997 1.327 . S
C997 H991 0.950 . S
C997 C996 1.327 . S
C997 C1001 1.429 . S
C998 C981 1.574 . S
C998 H992 0.949 . S
C998 C1002 1.368 . S
C999 C980 1.429 . S
C999 C993 1.429 . S
C999 C1000 1.523 . S
C1000 C981 1.368 . S
C1000 C994 1.368 . S
C1000 C999 1.523 . S
C1001 C985 1.429 . S
C1001 C997 1.429 . S
C1001 C1002 1.523 . S
C1002 C986 1.368 . S
C1002 C998 1.368 . S
C1002 C1001 1.523 . S
H1003 C978 0.950 . S
H1004 C980 0.950 . S
H1005 C981 0.949 . S
H1006 C983 0.950 . S
H1007 C985 0.950 . S
C1008 C1009 1.349 . S
C1008 C1010 1.327 . S
C1008 H1033 0.950 . S
C1009 C1008 1.349 . S
C1009 C1025 1.349 . S
C1010 C1008 1.327 . S
C1010 C1029 1.429 . S
C1010 H1034 0.950 . S
C1011 C1028 1.574 . S
C1011 C1030 1.368 . S
C1011 H1035 0.949 . S
H1012 C1016 0.949 . S
C1013 C1014 1.349 . S
C1013 C1015 1.327 . S
C1013 H1036 0.950 . S
C1014 C1013 1.349 . S
C1014 C1026 1.349 . S
C1015 C1013 1.327 . S
C1015 C1031 1.429 . S
C1015 H1037 0.950 . S
C1016 H1012 0.949 . S
C1016 C1024 1.574 . S
C1016 C1032 1.368 . S
H1017 C1025 0.950 . S
H1018 C1023 0.950 . S
H1019 C1024 0.949 . S
H1020 C1026 0.950 . S
H1021 C1027 0.950 . S
H1022 C1028 0.949 . S
C1023 H1018 0.950 . S
C1023 C1025 1.327 . S
C1023 C1029 1.429 . S
C1024 C1016 1.574 . S
C1024 H1019 0.949 . S
C1024 C1030 1.368 . S
C1025 C1009 1.349 . S
C1025 H1017 0.950 . S
C1025 C1023 1.327 . S
C1026 C1014 1.349 . S
C1026 H1020 0.950 . S
C1026 C1027 1.327 . S
C1027 H1021 0.950 . S
C1027 C1026 1.327 . S
C1027 C1031 1.429 . S
C1028 C1011 1.574 . S
C1028 H1022 0.949 . S
C1028 C1032 1.368 . S
C1029 C1010 1.429 . S
C1029 C1023 1.429 . S
C1029 C1030 1.523 . S
C1030 C1011 1.368 . S
C1030 C1024 1.368 . S
C1030 C1029 1.523 . S
C1031 C1015 1.429 . S
C1031 C1027 1.429 . S
C1031 C1032 1.523 . S
C1032 C1016 1.368 . S
C1032 C1028 1.368 . S
C1032 C1031 1.523 . S
H1033 C1008 0.950 . S
H1034 C1010 0.950 . S
H1035 C1011 0.949 . S
H1036 C1013 0.950 . S
H1037 C1015 0.950 . S
C1038 C1039 1.349 . S
C1038 C1040 1.327 . S
C1038 H1063 0.950 . S
C1039 C1038 1.349 . S
C1039 C1055 1.349 . S
C1040 C1038 1.327 . S
C1040 C1059 1.429 . S
C1040 H1064 0.950 . S
C1041 C1058 1.574 . S
C1041 C1060 1.368 . S
C1041 H1065 0.949 . S
H1042 C1046 0.949 . S
C1043 C1044 1.349 . S
C1043 C1045 1.327 . S
C1043 H1066 0.950 . S
C1044 C1043 1.349 . S
C1044 C1056 1.349 . S
C1045 C1043 1.327 . S
C1045 C1061 1.429 . S
C1045 H1067 0.950 . S
C1046 H1042 0.949 . S
C1046 C1054 1.574 . S
C1046 C1062 1.368 . S
H1047 C1055 0.950 . S
H1048 C1053 0.950 . S
H1049 C1054 0.949 . S
H1050 C1056 0.950 . S
H1051 C1057 0.950 . S
H1052 C1058 0.949 . S
C1053 H1048 0.950 . S
C1053 C1055 1.327 . S
C1053 C1059 1.429 . S
C1054 C1046 1.574 . S
C1054 H1049 0.949 . S
C1054 C1060 1.368 . S
C1055 C1039 1.349 . S
C1055 H1047 0.950 . S
C1055 C1053 1.327 . S
C1056 C1044 1.349 . S
C1056 H1050 0.950 . S
C1056 C1057 1.327 . S
C1057 H1051 0.950 . S
C1057 C1056 1.327 . S
C1057 C1061 1.429 . S
C1058 C1041 1.574 . S
C1058 H1052 0.949 . S
C1058 C1062 1.368 . S
C1059 C1040 1.429 . S
C1059 C1053 1.429 . S
C1059 C1060 1.523 . S
C1060 C1041 1.368 . S
C1060 C1054 1.368 . S
C1060 C1059 1.523 . S
C1061 C1045 1.429 . S
C1061 C1057 1.429 . S
C1061 C1062 1.523 . S
C1062 C1046 1.368 . S
C1062 C1058 1.368 . S
C1062 C1061 1.523 . S
H1063 C1038 0.950 . S
H1064 C1040 0.950 . S
H1065 C1041 0.949 . S
H1066 C1043 0.950 . S
H1067 C1045 0.950 . S
C1068 C1069 1.349 . S
C1068 C1070 1.327 . S
C1068 H1093 0.950 . S
C1069 C1068 1.349 . S
C1069 C1085 1.349 1_554 S
C1070 C1068 1.327 . S
C1070 C1089 1.429 1_554 S
C1070 H1094 0.950 . S
C1071 C1088 1.574 . S
C1071 C1090 1.368 . S
C1071 H1095 0.949 . S
H1072 C1076 0.949 . S
C1073 C1074 1.349 . S
C1073 C1075 1.327 . S
C1073 H1096 0.950 . S
C1074 C1073 1.349 . S
C1074 C1086 1.349 . S
C1075 C1073 1.327 . S
C1075 C1091 1.429 . S
C1075 H1097 0.950 . S
C1076 H1072 0.949 . S
C1076 C1084 1.574 . S
C1076 C1092 1.368 . S
H1077 C1085 0.950 . S
H1078 C1083 0.950 . S
H1079 C1084 0.957 . S
H1080 C1086 0.950 . S
H1081 C1087 0.950 . S
H1082 C1088 0.949 . S
C1083 H1078 0.950 . S
C1083 C1085 1.327 . S
C1083 C1089 1.429 . S
C1084 C1076 1.574 . S
C1084 H1079 0.957 . S
C1084 C1090 1.368 . S
C1085 C1069 1.349 1_556 S
C1085 H1077 0.950 . S
C1085 C1083 1.327 . S
C1086 C1074 1.349 . S
C1086 H1080 0.950 . S
C1086 C1087 1.327 . S
C1087 H1081 0.950 . S
C1087 C1086 1.327 . S
C1087 C1091 1.429 . S
C1088 C1071 1.574 . S
C1088 H1082 0.949 . S
C1088 C1092 1.368 . S
C1089 C1070 1.429 1_556 S
C1089 C1083 1.429 . S
C1089 C1090 1.523 . S
C1090 C1071 1.368 . S
C1090 C1084 1.368 . S
C1090 C1089 1.523 . S
C1091 C1075 1.429 . S
C1091 C1087 1.429 . S
C1091 C1092 1.523 . S
C1092 C1076 1.368 . S
C1092 C1088 1.368 . S
C1092 C1091 1.523 . S
H1093 C1068 0.950 . S
H1094 C1070 0.950 . S
H1095 C1071 0.949 . S
H1096 C1073 0.950 . S
H1097 C1075 0.950 . S
C1098 C1099 1.349 . S
C1098 C1100 1.327 . S
C1098 H1123 0.950 . S
C1099 C1098 1.349 . S
C1099 C1115 1.349 . S
C1100 C1098 1.327 . S
C1100 C1119 1.429 . S
C1100 H1124 0.950 . S
C1101 C1118 1.574 . S
C1101 C1120 1.368 . S
C1101 H1125 0.949 . S
H1102 C1106 0.949 1_556 S
C1103 C1104 1.349 . S
C1103 C1105 1.327 . S
C1103 H1126 0.950 . S
C1104 C1103 1.349 . S
C1104 C1116 1.349 1_554 S
C1105 C1103 1.327 . S
C1105 C1121 1.429 . S
C1105 H1127 0.950 . S
C1106 H1102 0.949 1_554 S
C1106 C1114 1.574 . S
C1106 C1122 1.368 . S
H1107 C1115 0.950 . S
H1108 C1113 0.950 . S
H1109 C1114 0.949 . S
H1110 C1116 0.950 . S
H1111 C1117 0.950 1_556 S
H1112 C1118 0.949 . S
C1113 H1108 0.950 . S
C1113 C1115 1.327 . S
C1113 C1119 1.429 . S
C1114 C1106 1.574 . S
C1114 H1109 0.949 . S
C1114 C1120 1.368 . S
C1115 C1099 1.349 . S
C1115 H1107 0.950 . S
C1115 C1113 1.327 . S
C1116 C1104 1.349 1_556 S
C1116 H1110 0.950 . S
C1116 C1117 1.327 1_556 S
C1117 H1111 0.950 1_554 S
C1117 C1116 1.327 1_554 S
C1117 C1121 1.429 . S
C1118 C1101 1.574 . S
C1118 H1112 0.949 . S
C1118 C1122 1.368 . S
C1119 C1100 1.429 . S
C1119 C1113 1.429 . S
C1119 C1120 1.523 . S
C1120 C1101 1.368 . S
C1120 C1114 1.368 . S
C1120 C1119 1.523 . S
C1121 C1105 1.429 . S
C1121 C1117 1.429 . S
C1121 C1122 1.523 . S
C1122 C1106 1.368 . S
C1122 C1118 1.368 . S
C1122 C1121 1.523 . S
H1123 C1098 0.950 . S
H1124 C1100 0.950 . S
H1125 C1101 0.949 . S
H1126 C1103 0.950 . S
H1127 C1105 0.950 . S
C1128 C1129 1.349 . S
C1128 C1130 1.327 . S
C1128 H1153 0.950 . S
C1129 C1128 1.349 . S
C1129 C1145 1.349 . S
C1130 C1128 1.327 . S
C1130 C1149 1.429 . S
C1130 H1154 0.950 . S
C1131 C1148 1.574 . S
C1131 C1150 1.368 . S
C1131 H1155 0.949 . S
H1132 C1136 0.949 . S
C1133 C1134 1.349 . S
C1133 C1135 1.327 . S
C1133 H1156 0.950 . S
C1134 C1133 1.349 . S
C1134 C1146 1.349 . S
C1135 C1133 1.327 . S
C1135 C1151 1.429 . S
C1135 H1157 0.950 . S
C1136 H1132 0.949 . S
C1136 C1144 1.574 . S
C1136 C1152 1.368 . S
H1137 C1145 0.950 . S
H1138 C1143 0.950 . S
H1139 C1144 0.949 . S
H1140 C1146 0.950 . S
H1141 C1147 0.950 . S
H1142 C1148 0.949 . S
C1143 H1138 0.950 . S
C1143 C1145 1.327 . S
C1143 C1149 1.429 . S
C1144 C1136 1.574 . S
C1144 H1139 0.949 . S
C1144 C1150 1.368 . S
C1145 C1129 1.349 . S
C1145 H1137 0.950 . S
C1145 C1143 1.327 . S
C1146 C1134 1.349 . S
C1146 H1140 0.950 . S
C1146 C1147 1.327 . S
C1147 H1141 0.950 . S
C1147 C1146 1.327 . S
C1147 C1151 1.429 . S
C1148 C1131 1.574 . S
C1148 H1142 0.949 . S
C1148 C1152 1.368 . S
C1149 C1130 1.429 . S
C1149 C1143 1.429 . S
C1149 C1150 1.523 . S
C1150 C1131 1.368 . S
C1150 C1144 1.368 . S
C1150 C1149 1.523 . S
C1151 C1135 1.429 . S
C1151 C1147 1.429 . S
C1151 C1152 1.523 . S
C1152 C1136 1.368 . S
C1152 C1148 1.368 . S
C1152 C1151 1.523 . S
H1153 C1128 0.950 . S
H1154 C1130 0.950 . S
H1155 C1131 0.949 . S
H1156 C1133 0.950 . S
H1157 C1135 0.950 . S
C1158 C1159 1.349 . S
C1158 C1160 1.327 . S
C1158 H1183 0.950 . S
C1159 C1158 1.349 . S
C1159 C1175 1.349 . S
C1160 C1158 1.327 . S
C1160 C1179 1.429 . S
C1160 H1184 0.950 . S
C1161 C1178 1.574 1_655 S
C1161 C1180 1.368 . S
C1161 H1185 0.949 . S
H1162 C1166 0.949 . S
C1163 C1164 1.349 . S
C1163 C1165 1.327 . S
C1163 H1186 0.950 . S
C1164 C1163 1.349 . S
C1164 C1176 1.349 . S
C1165 C1163 1.327 . S
C1165 C1181 1.429 . S
C1165 H1187 0.950 . S
C1166 H1162 0.949 . S
C1166 C1174 1.574 1_455 S
C1166 C1182 1.368 . S
H1167 C1175 0.950 . S
H1168 C1173 0.950 . S
H1169 C1174 0.949 . S
H1170 C1176 0.950 . S
H1171 C1177 0.950 . S
H1172 C1178 0.949 . S
C1173 H1168 0.950 . S
C1173 C1175 1.327 . S
C1173 C1179 1.429 . S
C1174 C1166 1.574 1_655 S
C1174 H1169 0.949 . S
C1174 C1180 1.368 . S
C1175 C1159 1.349 . S
C1175 H1167 0.950 . S
C1175 C1173 1.327 . S
C1176 C1164 1.349 . S
C1176 H1170 0.950 . S
C1176 C1177 1.327 . S
C1177 H1171 0.950 . S
C1177 C1176 1.327 . S
C1177 C1181 1.429 . S
C1178 C1161 1.574 1_455 S
C1178 H1172 0.949 . S
C1178 C1182 1.368 . S
C1179 C1160 1.429 . S
C1179 C1173 1.429 . S
C1179 C1180 1.523 . S
C1180 C1161 1.368 . S
C1180 C1174 1.368 . S
C1180 C1179 1.523 . S
C1181 C1165 1.429 . S
C1181 C1177 1.429 . S
C1181 C1182 1.523 . S
C1182 C1166 1.368 . S
C1182 C1178 1.368 . S
C1182 C1181 1.523 . S
H1183 C1158 0.950 . S
H1184 C1160 0.950 . S
H1185 C1161 0.949 . S
H1186 C1163 0.950 . S
H1187 C1165 0.950 . S
C1188 C1189 1.349 . S
C1188 C1190 1.327 . S
C1188 H1213 0.950 . S
C1189 C1188 1.349 . S
C1189 C1205 1.349 . S
C1190 C1188 1.327 . S
C1190 C1209 1.429 . S
C1190 H1214 0.950 . S
C1191 C1208 1.574 1_545 S
C1191 C1210 1.368 . S
C1191 H1215 0.949 . S
H1192 C1196 0.949 . S
C1193 C1194 1.349 . S
C1193 C1195 1.327 . S
C1193 H1216 0.950 . S
C1194 C1193 1.349 . S
C1194 C1206 1.349 . S
C1195 C1193 1.327 . S
C1195 C1211 1.429 . S
C1195 H1217 0.950 . S
C1196 H1192 0.949 . S
C1196 C1204 1.574 1_565 S
C1196 C1212 1.368 . S
H1197 C1205 0.950 . S
H1198 C1203 0.950 . S
H1199 C1204 0.949 . S
H1200 C1206 0.950 . S
H1201 C1207 0.950 . S
H1202 C1208 0.949 . S
C1203 H1198 0.950 . S
C1203 C1205 1.327 . S
C1203 C1209 1.429 . S
C1204 C1196 1.574 1_545 S
C1204 H1199 0.949 . S
C1204 C1210 1.368 . S
C1205 C1189 1.349 . S
C1205 H1197 0.950 . S
C1205 C1203 1.327 . S
C1206 C1194 1.349 . S
C1206 H1200 0.950 . S
C1206 C1207 1.327 . S
C1207 H1201 0.950 . S
C1207 C1206 1.327 . S
C1207 C1211 1.429 . S
C1208 C1191 1.574 1_565 S
C1208 H1202 0.949 . S
C1208 C1212 1.368 . S
C1209 C1190 1.429 . S
C1209 C1203 1.429 . S
C1209 C1210 1.523 . S
C1210 C1191 1.368 . S
C1210 C1204 1.368 . S
C1210 C1209 1.523 . S
C1211 C1195 1.429 . S
C1211 C1207 1.429 . S
C1211 C1212 1.523 . S
C1212 C1196 1.368 . S
C1212 C1208 1.368 . S
C1212 C1211 1.523 . S
H1213 C1188 0.950 . S
H1214 C1190 0.950 . S
H1215 C1191 0.949 . S
H1216 C1193 0.950 . S
H1217 C1195 0.950 . S
C1218 C1219 1.349 . S
C1218 C1220 1.327 . S
C1218 H1243 0.950 . S
C1219 C1218 1.349 . S
C1219 C1235 1.349 . S
C1220 C1218 1.327 . S
C1220 C1239 1.429 . S
C1220 H1244 0.950 . S
C1221 C1238 1.574 . S
C1221 C1240 1.368 . S
C1221 H1245 0.949 . S
H1222 C1226 0.949 . S
C1223 C1224 1.349 . S
C1223 C1225 1.327 . S
C1223 H1246 0.950 . S
C1224 C1223 1.349 . S
C1224 C1236 1.349 . S
C1225 C1223 1.327 . S
C1225 C1241 1.429 . S
C1225 H1247 0.950 . S
C1226 H1222 0.949 . S
C1226 C1234 1.574 . S
C1226 C1242 1.368 . S
H1227 C1235 0.950 . S
H1228 C1233 0.950 . S
H1229 C1234 0.949 . S
H1230 C1236 0.950 . S
H1231 C1237 0.950 . S
H1232 C1238 0.949 . S
C1233 H1228 0.950 . S
C1233 C1235 1.327 . S
C1233 C1239 1.429 . S
C1234 C1226 1.574 . S
C1234 H1229 0.949 . S
C1234 C1240 1.368 . S
C1235 C1219 1.349 . S
C1235 H1227 0.950 . S
C1235 C1233 1.327 . S
C1236 C1224 1.349 . S
C1236 H1230 0.950 . S
C1236 C1237 1.327 . S
C1237 H1231 0.950 . S
C1237 C1236 1.327 . S
C1237 C1241 1.429 . S
C1238 C1221 1.574 . S
C1238 H1232 0.949 . S
C1238 C1242 1.368 . S
C1239 C1220 1.429 . S
C1239 C1233 1.429 . S
C1239 C1240 1.523 . S
C1240 C1221 1.368 . S
C1240 C1234 1.368 . S
C1240 C1239 1.523 . S
C1241 C1225 1.429 . S
C1241 C1237 1.429 . S
C1241 C1242 1.523 . S
C1242 C1226 1.368 . S
C1242 C1238 1.368 . S
C1242 C1241 1.523 . S
H1243 C1218 0.950 . S
H1244 C1220 0.950 . S
H1245 C1221 0.949 . S
H1246 C1223 0.950 . S
H1247 C1225 0.950 . S
C1248 C1249 1.349 . S
C1248 C1250 1.327 . S
C1248 H1273 0.950 . S
C1249 C1248 1.349 . S
C1249 C1265 1.349 . S
C1250 C1248 1.327 . S
C1250 C1269 1.429 . S
C1250 H1274 0.950 . S
C1251 C1268 1.574 1_455 S
C1251 C1270 1.368 . S
C1251 H1275 0.949 . S
H1252 C1256 0.949 . S
C1253 C1254 1.349 . S
C1253 C1255 1.327 . S
C1253 H1276 0.950 . S
C1254 C1253 1.349 . S
C1254 C1266 1.349 . S
C1255 C1253 1.327 . S
C1255 C1271 1.429 . S
C1255 H1277 0.950 . S
C1256 H1252 0.949 . S
C1256 C1264 1.574 1_655 S
C1256 C1272 1.368 . S
H1257 C1265 0.950 . S
H1258 C1263 0.950 . S
H1259 C1264 0.949 . S
H1260 C1266 0.950 . S
H1261 C1267 0.950 . S
H1262 C1268 0.949 . S
C1263 H1258 0.950 . S
C1263 C1265 1.327 . S
C1263 C1269 1.429 . S
C1264 C1256 1.574 1_455 S
C1264 H1259 0.949 . S
C1264 C1270 1.368 . S
C1265 C1249 1.349 . S
C1265 H1257 0.950 . S
C1265 C1263 1.327 . S
C1266 C1254 1.349 . S
C1266 H1260 0.950 . S
C1266 C1267 1.327 . S
C1267 H1261 0.950 . S
C1267 C1266 1.327 . S
C1267 C1271 1.429 . S
C1268 C1251 1.574 1_655 S
C1268 H1262 0.949 . S
C1268 C1272 1.368 . S
C1269 C1250 1.429 . S
C1269 C1263 1.429 . S
C1269 C1270 1.523 . S
C1270 C1251 1.368 . S
C1270 C1264 1.368 . S
C1270 C1269 1.523 . S
C1271 C1255 1.429 . S
C1271 C1267 1.429 . S
C1271 C1272 1.523 . S
C1272 C1256 1.368 . S
C1272 C1268 1.368 . S
C1272 C1271 1.523 . S
H1273 C1248 0.950 . S
H1274 C1250 0.950 . S
H1275 C1251 0.949 . S
H1276 C1253 0.950 . S
H1277 C1255 0.950 . S
C1278 C1279 1.349 . S
C1278 C1280 1.327 . S
C1278 H1303 0.950 . S
C1279 C1278 1.349 . S
C1279 C1295 1.349 1_556 S
C1280 C1278 1.327 . S
C1280 C1299 1.429 1_556 S
C1280 H1304 0.950 . S
C1281 C1298 1.574 1_545 S
C1281 C1300 1.368 . S
C1281 H1305 0.949 . S
H1282 C1286 0.949 . S
C1283 C1284 1.349 . S
C1283 C1285 1.327 . S
C1283 H1306 0.950 . S
C1284 C1283 1.349 . S
C1284 C1296 1.349 1_554 S
C1285 C1283 1.327 . S
C1285 C1301 1.429 . S
C1285 H1307 0.950 . S
C1286 H1282 0.949 . S
C1286 C1294 1.574 1_565 S
C1286 C1302 1.368 1_556 S
H1287 C1295 0.950 . S
H1288 C1293 0.950 . S
H1289 C1294 0.949 . S
H1290 C1296 0.950 . S
H1291 C1297 0.950 . S
H1292 C1298 0.949 . S
C1293 H1288 0.950 . S
C1293 C1295 1.327 . S
C1293 C1299 1.429 . S
C1294 C1286 1.574 1_545 S
C1294 H1289 0.949 . S
C1294 C1300 1.368 1_556 S
C1295 C1279 1.349 1_554 S
C1295 H1287 0.950 . S
C1295 C1293 1.327 . S
C1296 C1284 1.349 1_556 S
C1296 H1290 0.950 . S
C1296 C1297 1.327 . S
C1297 H1291 0.950 . S
C1297 C1296 1.327 . S
C1297 C1301 1.429 1_556 S
C1298 C1281 1.574 1_565 S
C1298 H1292 0.949 . S
C1298 C1302 1.368 . S
C1299 C1280 1.429 1_554 S
C1299 C1293 1.429 . S
C1299 C1300 1.523 . S
C1300 C1281 1.368 . S
C1300 C1294 1.368 1_554 S
C1300 C1299 1.523 . S
C1301 C1285 1.429 . S
C1301 C1297 1.429 1_554 S
C1301 C1302 1.523 . S
C1302 C1286 1.368 1_554 S
C1302 C1298 1.368 . S
C1302 C1301 1.523 . S
H1303 C1278 0.950 . S
H1304 C1280 0.950 . S
H1305 C1281 0.949 . S
H1306 C1283 0.950 . S
H1307 C1285 0.950 . S
C409 C9 0.887 . S
C414 C5 0.895 . S
C439 C39 0.895 . S
C444 C43 0.887 . S
C469 C73 0.895 . S
C474 C77 0.887 . S
C499 C111 0.887 . S
C504 C107 0.895 . S
C529 C145 0.887 . S
C534 C141 0.895 . S
C559 C175 0.895 . S
C564 C179 0.887 . S
C589 C213 0.887 . S
C594 C209 0.895 . S
C619 C247 0.887 . S
C624 C243 0.895 . S
C649 C277 0.895 . S
C654 C281 0.887 . S
C679 C315 0.887 . S
C684 C311 0.895 . S
C709 C349 0.887 . S
C714 C345 0.895 . S
C739 C379 0.895 . S
C744 C383 0.887 . S
C769 C237 1.564 . S
C774 C33 1.564 . S
C799 C67 1.564 . S
C804 C271 1.564 . S
C829 C305 1.564 . S
C834 C101 1.564 . S
C859 C339 1.564 . S
C864 C135 1.564 . S
C889 C373 1.564 . S
C894 C169 1.564 . S
C919 C407 1.564 . S
C924 C203 1.564 . S
C949 C20 1.547 . S
C954 C360 1.547 . S
C979 C54 1.547 . S
C984 C394 1.547 . S
C1009 C88 1.547 . S
C1014 C224 1.547 . S
C1039 C258 1.547 . S
C1044 C122 1.547 . S
C1069 C292 1.547 . S
C1074 C156 1.547 . S
C1099 C326 1.547 . S
C1104 C190 1.547 . S
C1129 C2 1.553 . S
C1134 C308 1.553 . S
C1159 C36 1.553 . S
C1164 C342 1.553 . S
C1189 C376 1.553 . S
C1194 C70 1.553 . S
C1219 C104 1.553 . S
C1224 C206 1.553 . S
C1249 C138 1.553 . S
C1254 C240 1.553 . S
C1279 C172 1.553 . S
C1284 C274 1.553 . S
