# Generated by pormake.
# Topology yfx, (5)-cn, num edge types: 1
# Building blocks:
#     Node 0, Type 0, BuildingBlock: XOMCOT_clean_sbu_1, # of connection points: 5
#     Node 1, Type 0, BuildingBlock: XOMCOT_clean_sbu_1, # of connection points: 5
#     Node 2, Type 0, BuildingBlock: XOMCOT_clean_sbu_1, # of connection points: 5
#     Node 3, Type 0, BuildingBlock: XOMCOT_clean_sbu_1, # of connection points: 5
#     Node 4, Type 0, BuildingBlock: XOMCOT_clean_sbu_1, # of connection points: 5
#     Node 5, Type 0, BuildingBlock: XOMCOT_clean_sbu_1, # of connection points: 5
#     Node 6, Type 0, BuildingBlock: XOMCOT_clean_sbu_1, # of connection points: 5
#     Node 7, Type 0, BuildingBlock: XOMCOT_clean_sbu_1, # of connection points: 5
#     Edge 8, Type (0, 0), BuildingBlock: CIFDUS_clean_linker_0, # of connection points: 2
#     Edge 9, Type (0, 0), BuildingBlock: CIFDUS_clean_linker_0, # of connection points: 2
#     Edge 10, Type (0, 0), BuildingBlock: CIFDUS_clean_linker_0, # of connection points: 2
#     Edge 11, Type (0, 0), BuildingBlock: CIFDUS_clean_linker_0, # of connection points: 2
#     Edge 12, Type (0, 0), BuildingBlock: CIFDUS_clean_linker_0, # of connection points: 2
#     Edge 13, Type (0, 0), BuildingBlock: CIFDUS_clean_linker_0, # of connection points: 2
#     Edge 14, Type (0, 0), BuildingBlock: CIFDUS_clean_linker_0, # of connection points: 2
#     Edge 15, Type (0, 0), BuildingBlock: CIFDUS_clean_linker_0, # of connection points: 2
#     Edge 16, Type (0, 0), BuildingBlock: CIFDUS_clean_linker_0, # of connection points: 2
#     Edge 17, Type (0, 0), BuildingBlock: CIFDUS_clean_linker_0, # of connection points: 2
#     Edge 18, Type (0, 0), BuildingBlock: CIFDUS_clean_linker_0, # of connection points: 2
#     Edge 19, Type (0, 0), BuildingBlock: CIFDUS_clean_linker_0, # of connection points: 2
#     Edge 20, Type (0, 0), BuildingBlock: CIFDUS_clean_linker_0, # of connection points: 2
#     Edge 21, Type (0, 0), BuildingBlock: CIFDUS_clean_linker_0, # of connection points: 2
#     Edge 22, Type (0, 0), BuildingBlock: CIFDUS_clean_linker_0, # of connection points: 2
#     Edge 23, Type (0, 0), BuildingBlock: CIFDUS_clean_linker_0, # of connection points: 2
#     Edge 24, Type (0, 0), BuildingBlock: CIFDUS_clean_linker_0, # of connection points: 2
#     Edge 25, Type (0, 0), BuildingBlock: CIFDUS_clean_linker_0, # of connection points: 2
#     Edge 26, Type (0, 0), BuildingBlock: CIFDUS_clean_linker_0, # of connection points: 2
#     Edge 27, Type (0, 0), BuildingBlock: CIFDUS_clean_linker_0, # of connection points: 2
# Relax obj value: 0.113
# Max RMSD: 0.117
# Mean RMSD: 0.117
data_MOF--net-yfx--node1-XOMCOT_clean_sbu_1--edge1-CIFDUS_clean_linker_0
_symmetry_space_group_name_H-M    P1
_symmetry_Int_Tables_number       1
_symmetry_cell_setting            triclinic
loop_
_symmetry_equiv_pos_as_xyz
'x, y, z'
_cell_length_a     32.221687
_cell_length_b     32.192701
_cell_length_c     24.628121
_cell_angle_alpha  90.361907
_cell_angle_beta   89.987199
_cell_angle_gamma 89.947183
loop_
_atom_site_label
_atom_site_type_symbol
_atom_site_fract_x
_atom_site_fract_y
_atom_site_fract_z
_atom_type_partial_charge
C0 C 0.29035 0.38525 0.95897 0.0
C1 C 0.33242 0.37896 0.95861 0.0
N2 N 0.34417 0.36788 1.00893 0.0
N3 N 0.27561 0.37842 1.00935 0.0
C4 C 0.30917 0.36759 0.03899 0.0
H5 H 0.27155 0.3939 0.92449 0.0
Co6 Co 0.22009 0.38475 0.02756 0.0
C7 C 0.22078 0.37143 0.1455 0.0
O8 O 0.20042 0.40662 0.15065 0.0
N9 N 0.16338 0.39221 0.04441 0.0
C10 C 0.09885 0.3872 0.07637 0.0
C11 C 0.13634 0.36678 0.06961 0.0
C12 C 0.14131 0.42725 0.03528 0.0
N13 N 0.10227 0.42555 0.05509 0.0
O14 O 0.2331 0.43832 0.05722 0.0
H15 H 0.14376 0.33586 0.08358 0.0
H16 H 0.15356 0.45384 1.0144 0.0
O17 O 0.2301 0.358 0.09805 0.0
C18 C 0.23465 0.46412 1.01825 0.0
O19 O 0.22391 0.45108 0.96954 0.0
N20 N 0.20921 0.33429 0.9924 0.0
C21 C 0.22804 0.27641 0.91051 0.0
C22 C 0.23619 0.26771 0.96563 0.0
C23 C 0.2271 0.29735 1.00597 0.0
C24 C 0.19622 0.34109 0.94063 0.0
C25 C 0.2057 0.31291 0.89902 0.0
H26 H 0.23836 0.29226 0.04671 0.0
H27 H 0.18341 0.37108 0.93022 0.0
H28 H 0.30821 0.35989 0.08165 0.0
H29 H 0.3527 0.38119 0.92369 0.0
H30 H 0.07177 0.37516 0.09692 0.0
H31 H 0.25197 0.23951 0.97743 0.0
H32 H 0.19877 0.3219 0.85778 0.0
C33 C 0.62315 0.28912 0.96667 0.0
C34 C 0.63992 0.32818 0.96298 0.0
N35 N 0.65897 0.33708 1.01025 0.0
N36 N 0.63213 0.27324 1.0158 0.0
C37 C 0.65348 0.30354 0.04186 0.0
H38 H 0.60844 0.27199 0.93405 0.0
Co39 Co 0.62368 0.21757 0.03307 0.0
C40 C 0.69264 0.21419 0.11829 0.0
O41 O 0.71875 0.19165 0.08969 0.0
N42 N 0.61368 0.16125 0.04979 0.0
C43 C 0.61913 0.09416 0.07006 0.0
C44 C 0.64053 0.13071 0.06284 0.0
C45 C 0.57626 0.14212 0.04855 0.0
N46 N 0.57851 0.10135 0.06107 0.0
O47 O 0.57619 0.23383 0.0744 0.0
H48 H 0.6737 0.13406 0.06544 0.0
H49 H 0.54787 0.15749 0.03704 0.0
O50 O 0.65727 0.2241 0.09881 0.0
C51 C 0.54575 0.24025 0.04269 0.0
O52 O 0.55002 0.23154 0.9908 0.0
N53 N 0.6686 0.20332 0.98691 0.0
C54 C 0.71147 0.20948 0.88847 0.0
C55 C 0.72648 0.2293 0.93536 0.0
C56 C 0.70442 0.22609 0.98417 0.0
C57 C 0.65608 0.18052 0.94302 0.0
C58 C 0.67715 0.18299 0.89354 0.0
H59 H 0.71342 0.24618 1.01736 0.0
H60 H 0.62681 0.16415 0.94423 0.0
H61 H 0.66844 0.29971 0.08082 0.0
H62 H 0.64104 0.34721 0.92692 0.0
H63 H 0.63269 0.06462 0.08096 0.0
H64 H 0.75244 0.25058 0.93316 0.0
H65 H 0.66462 0.16694 0.8584 0.0
C66 C 0.7065 0.60145 1.00744 0.0
C67 C 0.667 0.61745 1.01141 0.0
N68 N 0.66973 0.65566 0.0334 0.0
N69 N 0.73385 0.62937 0.02743 0.0
C70 C 0.71036 0.66221 0.04268 0.0
H71 H 0.71468 0.57177 0.98973 0.0
Co72 Co 0.79128 0.62332 0.0308 0.0
C73 C 0.81843 0.6779 0.12486 0.0
O74 O 0.85725 0.67849 0.10877 0.0
N75 N 0.85059 0.61582 0.03334 0.0
C76 C 0.9178 0.61693 1.01082 0.0
C77 C 0.88012 0.63668 1.00546 0.0
C78 C 0.87197 0.584 0.0563 0.0
N79 N 0.91253 0.58331 0.04222 0.0
O80 O 0.78285 0.57479 0.074 0.0
H81 H 0.8748 0.66373 0.9807 0.0
H82 H 0.85809 0.5607 0.08182 0.0
O83 O 0.7913 0.65842 0.09669 0.0
C84 C 0.7844 0.54326 0.04242 0.0
O85 O 0.79701 0.54894 0.99222 0.0
N86 N 0.79622 0.66773 0.9821 0.0
C87 C 0.77682 0.71614 0.89186 0.0
C88 C 0.77888 0.73421 0.944 0.0
C89 C 0.78875 0.70923 0.98913 0.0
C90 C 0.79746 0.65082 0.93131 0.0
C91 C 0.7881 0.6744 0.88579 0.0
H92 H 0.78691 0.72241 0.02952 0.0
H93 H 0.80259 0.6178 0.92656 0.0
H94 H 0.72265 0.69075 0.05953 0.0
H95 H 0.63871 0.60306 0.99687 0.0
H96 H 0.94626 0.62533 0.9903 0.0
H97 H 0.76996 0.76633 0.95027 0.0
H98 H 0.78689 0.65932 0.84636 0.0
C99 C 0.38126 0.73229 0.94506 0.0
C100 C 0.36579 0.69351 0.93381 0.0
N101 N 0.34397 0.68076 0.97722 0.0
N102 N 0.36911 0.74398 0.99522 0.0
C103 C 0.34672 0.7117 1.01417 0.0
H104 H 0.39836 0.75178 0.91733 0.0
Co105 Co 0.37711 0.7973 1.02131 0.0
C106 C 0.35446 0.78897 0.13641 0.0
O107 O 0.39018 0.8061 0.14915 0.0
N108 N 0.38621 0.85181 0.04563 0.0
C109 C 0.382 0.91533 0.08146 0.0
C110 C 0.36105 0.87847 0.07242 0.0
C111 C 0.42163 0.87335 0.03794 0.0
N112 N 0.42034 0.91186 0.05989 0.0
O113 O 0.42626 0.77859 0.05681 0.0
H114 H 0.32965 0.87148 0.0849 0.0
H115 H 0.44785 0.86132 1.01568 0.0
O116 O 0.34444 0.78473 0.08641 0.0
C117 C 0.45864 0.77687 0.02731 0.0
O118 O 0.45686 0.7906 0.97724 0.0
N119 N 0.33048 0.81394 0.98188 0.0
C120 C 0.27608 0.80867 0.89377 0.0
C121 C 0.26399 0.79494 0.94556 0.0
C122 C 0.29173 0.79776 0.98924 0.0
C123 C 0.34118 0.83127 0.93358 0.0
C124 C 0.31448 0.82898 0.88896 0.0
H125 H 0.2835 0.78307 0.02704 0.0
H126 H 0.37246 0.84264 0.92789 0.0
H127 H 0.33035 0.71186 0.0525 0.0
H128 H 0.369 0.67661 0.89589 0.0
H129 H 0.3701 0.94221 0.10301 0.0
H130 H 0.23436 0.7798 0.95159 0.0
H131 H 0.32552 0.83978 0.85001 0.0
C132 C 0.79469 0.90929 0.47077 0.0
C133 C 0.83677 0.9028 0.47519 0.0
N134 N 0.84354 0.87904 0.51909 0.0
N135 N 0.77522 0.89008 0.51202 0.0
C136 C 0.80587 0.8717 0.54064 0.0
H137 H 0.7792 0.92681 0.43941 0.0
Co138 Co 0.7183 0.89151 0.52372 0.0
C139 C 0.71025 0.82914 0.61581 0.0
O140 O 0.68124 0.80729 0.5916 0.0
N141 N 0.65941 0.89439 0.53485 0.0
C142 C 0.59161 0.88004 0.53358 0.0
C143 C 0.6309 0.86413 0.52699 0.0
C144 C 0.63601 0.92855 0.54619 0.0
N145 N 0.59473 0.92078 0.54541 0.0
O146 O 0.72649 0.9421 0.56347 0.0
H147 H 0.63769 0.83262 0.51455 0.0
H148 H 0.64864 0.95895 0.55421 0.0
O149 O 0.72566 0.86078 0.59207 0.0
C150 C 0.72629 0.9742 0.53352 0.0
O151 O 0.71462 0.9704 0.48265 0.0
N152 N 0.7132 0.84366 0.47921 0.0
C153 C 0.72414 0.78948 0.39071 0.0
C154 C 0.74204 0.78076 0.44142 0.0
C155 C 0.73602 0.80816 0.48537 0.0
C156 C 0.69469 0.85191 0.43062 0.0
C157 C 0.69904 0.82488 0.38629 0.0
H158 H 0.7525 0.80247 0.52276 0.0
H159 H 0.6786 0.88109 0.42515 0.0
H160 H 0.80096 0.85301 0.57636 0.0
H161 H 0.86043 0.91363 0.44749 0.0
H162 H 0.56293 0.86318 0.52745 0.0
H163 H 0.76189 0.75389 0.44644 0.0
H164 H 0.68526 0.83323 0.34775 0.0
C165 C 0.10765 0.81412 0.50311 0.0
C166 C 0.12663 0.85228 0.5082 0.0
N167 N 0.16306 0.84667 0.53367 0.0
N168 N 0.13173 0.78483 0.5263 0.0
C169 C 0.16566 0.80572 0.54366 0.0
H170 H 0.07869 0.80822 0.48247 0.0
Co171 Co 0.1219 0.72782 0.53206 0.0
C172 C 0.14562 0.71297 0.64524 0.0
O173 O 0.11188 0.69051 0.65085 0.0
N174 N 0.11232 0.66986 0.53768 0.0
C175 C 0.12166 0.60197 0.55045 0.0
C176 C 0.14089 0.64014 0.54765 0.0
C177 C 0.07604 0.6487 0.53418 0.0
N178 N 0.08069 0.60744 0.5422 0.0
O179 O 0.07276 0.73986 0.57326 0.0
H180 H 0.1736 0.64592 0.55385 0.0
H181 H 0.04648 0.66298 0.5259 0.0
O182 O 0.15477 0.72796 0.59886 0.0
C183 C 0.04104 0.7436 0.54291 0.0
O184 O 0.04484 0.73626 0.49061 0.0
N185 N 0.16755 0.71828 0.4869 0.0
C186 C 0.2265 0.72695 0.40419 0.0
C187 C 0.23879 0.72156 0.45874 0.0
C188 C 0.20873 0.71758 0.49974 0.0
C189 C 0.15514 0.72045 0.43423 0.0
C190 C 0.18388 0.72508 0.39242 0.0
H191 H 0.21852 0.71622 0.54166 0.0
H192 H 0.12232 0.72176 0.42508 0.0
H193 H 0.19224 0.79126 0.56256 0.0
H194 H 0.11549 0.88153 0.49233 0.0
H195 H 0.13658 0.5727 0.55958 0.0
H196 H 0.27124 0.72191 0.47006 0.0
H197 H 0.17228 0.72981 0.3517 0.0
C198 C 0.22152 0.10468 0.49467 0.0
C199 C 0.1815 0.11979 0.49683 0.0
N200 N 0.18317 0.15921 0.51495 0.0
N201 N 0.24803 0.13431 0.51243 0.0
C202 C 0.22353 0.16735 0.52354 0.0
H203 H 0.23035 0.0739 0.48138 0.0
Co204 Co 0.30518 0.13093 0.52503 0.0
C205 C 0.30828 0.16182 0.63795 0.0
O206 O 0.33259 0.13045 0.65014 0.0
N207 N 0.363 0.12769 0.53776 0.0
C208 C 0.42874 0.14492 0.55474 0.0
C209 C 0.38865 0.15953 0.55008 0.0
C210 C 0.3884 0.09413 0.53512 0.0
N211 N 0.4285 0.10364 0.54545 0.0
O212 O 0.2953 0.0833 0.56936 0.0
H213 H 0.37885 0.19144 0.5553 0.0
H214 H 0.37821 0.06325 0.52469 0.0
O215 O 0.29737 0.16736 0.58857 0.0
C216 C 0.29608 0.04904 0.54321 0.0
O217 O 0.30816 0.04932 0.49222 0.0
N218 N 0.31322 0.17497 0.47655 0.0
C219 C 0.30688 0.22779 0.3869 0.0
C220 C 0.30415 0.24357 0.44034 0.0
C221 C 0.30759 0.21657 0.48485 0.0
C222 C 0.31826 0.15955 0.4254 0.0
C223 C 0.31523 0.18525 0.38017 0.0
H224 H 0.30343 0.22877 0.52547 0.0
H225 H 0.32204 0.12642 0.4196 0.0
H226 H 0.23478 0.1968 0.53871 0.0
H227 H 0.15348 0.10343 0.48531 0.0
H228 H 0.45585 0.16328 0.56465 0.0
H229 H 0.29828 0.27624 0.44769 0.0
H230 H 0.31705 0.17126 0.34015 0.0
C231 C 0.90146 0.21817 0.46923 0.0
C232 C 0.89252 0.17637 0.46891 0.0
N233 N 0.87121 0.16766 0.51443 0.0
N234 N 0.88611 0.2356 0.51493 0.0
C235 C 0.86787 0.2039 0.54174 0.0
H236 H 0.91755 0.23496 0.43773 0.0
Co237 Co 0.89125 0.29181 0.53313 0.0
C238 C 0.82218 0.29098 0.61778 0.0
O239 O 0.79665 0.31442 0.58981 0.0
N240 N 0.8987 0.34899 0.5512 0.0
C241 C 0.89938 0.41197 0.58967 0.0
C242 C 0.8796 0.37404 0.58772 0.0
C243 C 0.92991 0.37285 0.53159 0.0
N244 N 0.93135 0.41109 0.55452 0.0
O245 O 0.94012 0.27816 0.57265 0.0
H246 H 0.85402 0.3655 0.61337 0.0
H247 H 0.95147 0.3624 0.50092 0.0
O248 O 0.85829 0.28251 0.59918 0.0
C249 C 0.97151 0.27733 0.54123 0.0
O250 O 0.96677 0.28885 0.49055 0.0
N251 N 0.84508 0.30365 0.48829 0.0
C252 C 0.80085 0.29651 0.391 0.0
C253 C 0.78819 0.27466 0.43716 0.0
C254 C 0.81098 0.27835 0.48536 0.0
C255 C 0.85507 0.32816 0.44523 0.0
C256 C 0.83325 0.32526 0.39639 0.0
H257 H 0.80395 0.25714 0.51783 0.0
H258 H 0.8831 0.34644 0.44603 0.0
H259 H 0.85194 0.20711 0.58019 0.0
H260 H 0.89978 0.15436 0.43687 0.0
H261 H 0.8919 0.43746 0.61683 0.0
H262 H 0.76372 0.25168 0.43455 0.0
H263 H 0.84396 0.34279 0.3617 0.0
H264 H 0.52977 0.31759 1.01338 0.0
H265 H 0.48056 0.21592 0.10582 0.0
H266 H 0.41266 0.25078 0.11081 0.0
H267 H 0.36523 0.30479 0.07484 0.0
H268 H 0.41524 0.40358 0.97742 0.0
H269 H 0.48518 0.37578 0.98869 0.0
C270 C 0.5044 0.30385 0.03608 0.0
C271 C 0.50966 0.2647 0.0595 0.0
C272 C 0.4656 0.32331 0.03696 0.0
C273 C 0.47693 0.24648 0.08825 0.0
C274 C 0.43816 0.26618 0.09048 0.0
C275 C 0.39168 0.32069 0.05746 0.0
C276 C 0.3853 0.35575 1.02467 0.0
C277 C 0.43173 0.30382 0.063 0.0
C278 C 0.41959 0.37613 1.00198 0.0
C279 C 0.45947 0.3603 1.00845 0.0
H280 H 0.66009 0.3972 0.08663 0.0
H281 H 0.72706 0.34646 0.95026 0.0
H282 H 0.7774 0.40312 0.95552 0.0
H283 H 0.79711 0.47063 0.99148 0.0
H284 H 0.72772 0.52613 0.12292 0.0
H285 H 0.68431 0.46368 0.12863 0.0
C286 C 0.68611 0.39864 0.05878 0.0
C287 C 0.68992 0.36849 1.01759 0.0
C288 C 0.71433 0.43198 0.06134 0.0
C289 C 0.72355 0.37001 0.98156 0.0
C290 C 0.75225 0.40218 0.98473 0.0
C291 C 0.77295 0.46883 1.02209 0.0
C292 C 0.76529 0.50303 0.0563 0.0
C293 C 0.74722 0.43391 1.02338 0.0
C294 C 0.73428 0.50009 0.09621 0.0
C295 C 0.70916 0.4646 0.09901 0.0
H296 H 0.59532 0.6444 0.07926 0.0
H297 H 0.6711 0.73356 0.99566 0.0
H298 H 0.61244 0.78189 0.99116 0.0
H299 H 0.53784 0.79518 1.00267 0.0
H300 H 0.46233 0.70766 0.09004 0.0
H301 H 0.5227 0.66239 0.10267 0.0
C302 C 0.59882 0.67471 0.06085 0.0
C303 C 0.63693 0.68557 0.03733 0.0
C304 C 0.56516 0.70238 0.05916 0.0
C305 C 0.64183 0.72491 1.01403 0.0
C306 C 0.60836 0.75233 1.01128 0.0
C307 C 0.53492 0.76656 1.0254 0.0
C308 C 0.49592 0.7544 0.04501 0.0
C309 C 0.56965 0.74094 0.03254 0.0
C310 C 0.49226 0.71759 0.07486 0.0
C311 C 0.52663 0.69158 0.08162 0.0
H312 H 0.23433 0.5238 0.94277 0.0
H313 H 0.27265 0.49973 0.10747 0.0
H314 H 0.30792 0.56732 0.11089 0.0
H315 H 0.33286 0.63058 0.0632 0.0
H316 H 0.29652 0.65044 0.89693 0.0
H317 H 0.25556 0.58684 0.89772 0.0
C318 C 0.25011 0.53329 0.97973 0.0
C319 C 0.25125 0.50662 1.02463 0.0
C320 C 0.27106 0.57123 0.98074 0.0
C321 C 0.27141 0.51973 0.07231 0.0
C322 C 0.29175 0.55822 0.07412 0.0
C323 C 0.31559 0.62094 0.02753 0.0
C324 C 0.31809 0.64458 0.97978 0.0
C325 C 0.29258 0.5838 0.02805 0.0
C326 C 0.29569 0.63211 0.93364 0.0
C327 C 0.27212 0.59597 0.93419 0.0
H328 H 0.02746 0.82523 0.55237 0.0
H329 H 0.9688 0.70606 0.57011 0.0
H330 H 0.90032 0.73946 0.57211 0.0
H331 H 0.85751 0.80123 0.55288 0.0
H332 H 0.91694 0.91857 0.52245 0.0
H333 H 0.98495 0.8876 0.5406 0.0
C334 C 0.9997 0.80685 0.55836 0.0
C335 C 1.00281 0.76351 0.56193 0.0
C336 C 0.96067 0.82599 0.55568 0.0
C337 C 0.96684 0.73964 0.56851 0.0
C338 C 0.9278 0.75868 0.56883 0.0
C339 C 0.88537 0.82006 0.55149 0.0
C340 C 0.88256 0.86196 0.53613 0.0
C341 C 0.92431 0.80162 0.56004 0.0
C342 C 0.91871 0.88613 0.53362 0.0
C343 C 0.95742 0.86848 0.54414 0.0
H344 H 0.31259 0.96874 0.52091 0.0
H345 H 0.22618 0.04834 0.60554 0.0
H346 H 0.17701 0.99077 0.61299 0.0
H347 H 0.15494 0.92043 0.58338 0.0
H348 H 0.24237 0.8405 0.50179 0.0
H349 H 0.29503 0.89536 0.50499 0.0
C350 C 0.28348 0.97304 0.54241 0.0
C351 C 0.27281 0.01259 0.56234 0.0
C352 C 0.25532 0.93998 0.546 0.0
C353 C 0.23517 0.01799 0.59029 0.0
C354 C 0.20682 0.98525 0.59388 0.0
C355 C 0.18578 0.91516 0.56711 0.0
C356 C 0.19494 0.8771 0.54169 0.0
C357 C 0.21593 0.94661 0.56994 0.0
C358 C 0.23496 0.86982 0.52134 0.0
C359 C 0.26489 0.90112 0.5231 0.0
H360 H 0.11147 0.14441 0.56675 0.0
H361 H 0.18004 0.23787 0.48054 0.0
H362 H 0.12141 0.28597 0.48814 0.0
H363 H 0.04851 0.29853 0.51151 0.0
H364 H 0.9798 0.20638 0.60015 0.0
H365 H 0.04088 0.16086 0.60111 0.0
C366 C 0.11331 0.17541 0.54997 0.0
C367 C 0.14935 0.18764 0.52228 0.0
C368 C 0.07978 0.20304 0.5555 0.0
C369 C 0.15227 0.22803 0.50163 0.0
C370 C 0.11888 0.2554 0.50603 0.0
C371 C 0.04739 0.26892 0.5323 0.0
C372 C 0.01002 0.25563 0.55569 0.0
C373 C 0.08226 0.24295 0.53197 0.0
C374 C 0.00856 0.21735 0.58255 0.0
C375 C 0.04325 0.19113 0.58236 0.0
H376 H 0.79369 0.15578 0.55102 0.0
H377 H 0.90631 0.09218 0.50619 0.0
H378 H 0.87226 0.02492 0.51883 0.0
H379 H 0.8084 0.98487 0.5321 0.0
H380 H 0.69347 0.04828 0.56537 0.0
H381 H 0.73023 0.11506 0.56947 0.0
C382 C 0.81081 0.12708 0.54519 0.0
C383 C 0.85234 0.12861 0.52775 0.0
C384 C 0.7905 0.08868 0.5506 0.0
C385 C 0.87424 0.09145 0.5193 0.0
C386 C 0.85481 0.05314 0.52659 0.0
C387 C 0.79175 0.01325 0.54176 0.0
C388 C 0.74865 0.01197 0.54952 0.0
C389 C 0.81269 0.05142 0.54084 0.0
C390 C 0.72689 0.04879 0.56047 0.0
C391 C 0.74783 0.08687 0.56217 0.0
H392 H 0.24852 0.28916 0.37571 0.0
H393 H 0.34566 0.22563 0.28749 0.0
H394 H 0.32684 0.26278 0.20501 0.0
H395 H 0.28155 0.31231 0.1567 0.0
H396 H 0.18688 0.37824 0.24639 0.0
H397 H 0.20606 0.34139 0.32894 0.0
C398 C 0.26615 0.28392 0.33879 0.0
C399 C 0.29835 0.25423 0.3382 0.0
C400 C 0.25531 0.30563 0.29127 0.0
C401 C 0.32028 0.24767 0.28934 0.0
C402 C 0.3096 0.26902 0.24197 0.0
C403 C 0.26508 0.31856 0.19428 0.0
C404 C 0.23263 0.34794 0.19506 0.0
C405 C 0.2768 0.29771 0.24219 0.0
C406 C 0.21196 0.35586 0.24441 0.0
C407 C 0.22294 0.33479 0.2918 0.0
H408 H 0.77095 0.22895 0.15311 0.0
H409 H 0.64304 0.23769 0.20331 0.0
H410 H 0.66469 0.26471 0.29214 0.0
H411 H 0.72065 0.28472 0.35643 0.0
H412 H 0.84802 0.27859 0.30287 0.0
H413 H 0.82595 0.25223 0.21461 0.0
C414 C 0.7478 0.23661 0.18357 0.0
C415 C 0.70551 0.23082 0.17192 0.0
C416 C 0.76041 0.25297 0.23393 0.0
C417 C 0.67584 0.24171 0.21141 0.0
C418 C 0.6882 0.25716 0.2622 0.0
C419 C 0.74342 0.27786 0.3252 0.0
C420 C 0.78589 0.28396 0.33615 0.0
C421 C 0.73047 0.26282 0.27404 0.0
C422 C 0.8151 0.27494 0.29527 0.0
C423 C 0.80256 0.25949 0.24486 0.0
H424 H 0.74036 0.69375 0.16538 0.0
H425 H 0.87045 0.70839 0.20278 0.0
H426 H 0.85284 0.74127 0.28914 0.0
H427 H 0.80073 0.76764 0.35385 0.0
H428 H 0.67077 0.7567 0.31534 0.0
H429 H 0.68797 0.7206 0.23031 0.0
C430 C 0.76487 0.70409 0.19241 0.0
C431 C 0.80675 0.69849 0.17719 0.0
C432 C 0.75452 0.72359 0.2422 0.0
C433 C 0.83797 0.71233 0.21295 0.0
C434 C 0.82794 0.7311 0.26263 0.0
C435 C 0.77618 0.75679 0.32719 0.0
C436 C 0.7345 0.76446 0.34125 0.0
C437 C 0.78637 0.73699 0.27771 0.0
C438 C 0.70308 0.75106 0.30559 0.0
C439 C 0.71293 0.73049 0.25689 0.0
H440 H 0.36219 0.80145 0.24553 0.0
H441 H 0.28446 0.74117 0.12608 0.0
H442 H 0.24043 0.71385 0.19828 0.0
H443 H 0.22364 0.70746 0.29511 0.0
H444 H 0.29817 0.77283 0.41387 0.0
H445 H 0.34448 0.79622 0.3423 0.0
C446 C 0.33562 0.78234 0.23515 0.0
C447 C 0.32681 0.77341 0.18022 0.0
C448 C 0.31007 0.76709 0.27691 0.0
C449 C 0.29208 0.74868 0.16782 0.0
C450 C 0.26689 0.73291 0.20918 0.0
C451 C 0.24971 0.72714 0.30565 0.0
C452 C 0.25698 0.73812 0.3605 0.0
C453 C 0.27551 0.74202 0.26389 0.0
C454 C 0.29184 0.76289 0.37264 0.0
C455 C 0.31821 0.77687 0.33147 0.0
H456 H 0.68052 0.76736 0.67987 0.0
H457 H 0.77602 0.86105 0.67409 0.0
H458 H 0.80373 0.83676 0.76084 0.0
H459 H 0.80283 0.78602 0.83713 0.0
H460 H 0.70692 0.69283 0.84055 0.0
H461 H 0.67726 0.72001 0.75686 0.0
C462 C 0.70734 0.78266 0.69751 0.0
C463 C 0.72628 0.81579 0.66988 0.0
C464 C 0.72306 0.7686 0.74746 0.0
C465 C 0.76084 0.8353 0.694 0.0
C466 C 0.77674 0.82143 0.7438 0.0
C467 C 0.77509 0.77224 0.81982 0.0
C468 C 0.7571 0.73741 0.84492 0.0
C469 C 0.75836 0.78779 0.7708 0.0
C470 C 0.72135 0.71957 0.82186 0.0
C471 C 0.70444 0.73502 0.7739 0.0
H472 H 0.18915 0.78419 0.66438 0.0
H473 H 0.15615 0.66708 0.73653 0.0
H474 H 0.19272 0.68657 0.81989 0.0
H475 H 0.23396 0.73677 0.87229 0.0
H476 H 0.26332 0.85589 0.80251 0.0
H477 H 0.22847 0.83566 0.71835 0.0
C478 C 0.19042 0.76277 0.69812 0.0
C479 C 0.17037 0.72401 0.69401 0.0
C480 C 0.21055 0.77468 0.74658 0.0
C481 C 0.17147 0.69699 0.73858 0.0
C482 C 0.19227 0.70818 0.78632 0.0
C483 C 0.2321 0.75876 0.8392 0.0
C484 C 0.25132 0.79796 0.84419 0.0
C485 C 0.21164 0.74708 0.79097 0.0
C486 C 0.24927 0.8254 0.79996 0.0
C487 C 0.22924 0.81388 0.75171 0.0
H488 H 0.33507 0.16996 0.74259 0.0
H489 H 0.23805 0.20981 0.63405 0.0
H490 H 0.20332 0.24582 0.70876 0.0
H491 H 0.19947 0.26471 0.80538 0.0
H492 H 0.3004 0.23048 0.91196 0.0
H493 H 0.33324 0.19242 0.83831 0.0
C494 C 0.30645 0.18674 0.73515 0.0
C495 C 0.28935 0.18708 0.68247 0.0
C496 C 0.28671 0.20782 0.7784 0.0
C497 C 0.25228 0.20919 0.67379 0.0
C498 C 0.23216 0.22961 0.71675 0.0
C499 C 0.22887 0.24948 0.81285 0.0
C500 C 0.2467 0.25061 0.86534 0.0
C501 C 0.24896 0.22899 0.76935 0.0
C502 C 0.28466 0.22956 0.87318 0.0
C503 C 0.30408 0.20812 0.83057 0.0
H504 H 0.79197 0.21801 0.85321 0.0
H505 H 0.66473 0.23048 0.80118 0.0
H506 H 0.68758 0.25675 0.71364 0.0
H507 H 0.74333 0.27849 0.65247 0.0
H508 H 0.87094 0.26398 0.70154 0.0
H509 H 0.84845 0.23653 0.7893 0.0
C510 C 0.76935 0.22623 0.8225 0.0
C511 C 0.72669 0.2219 0.83374 0.0
C512 C 0.78274 0.24135 0.77177 0.0
C513 C 0.69774 0.23268 0.79341 0.0
C514 C 0.71076 0.24812 0.7434 0.0
C515 C 0.76625 0.26943 0.68242 0.0
C516 C 0.80873 0.27377 0.6707 0.0
C517 C 0.75312 0.25295 0.73229 0.0
C518 C 0.83801 0.26113 0.7096 0.0
C519 C 0.82517 0.24543 0.75982 0.0
H520 H 0.99607 0.58963 0.04502 0.0
H521 H 0.89596 0.50141 0.05776 0.0
H522 H 0.94584 0.44463 0.06485 0.0
H523 H 0.01828 0.41928 0.06239 0.0
H524 H 0.11795 0.5083 0.05028 0.0
H525 H 0.0681 0.56482 0.04684 0.0
C526 C 0.98513 0.55801 0.04937 0.0
C527 C 0.94217 0.55009 0.05081 0.0
C528 C 0.01404 0.52529 0.05281 0.0
C529 C 0.92871 0.50878 0.05726 0.0
C530 C 0.9573 0.4761 0.06084 0.0
C531 C 0.02915 0.45102 0.05949 0.0
C532 C 0.07209 0.45904 0.05561 0.0
C533 C 1.0001 0.48388 0.05803 0.0
C534 C 0.0853 0.50065 0.0518 0.0
C535 C 0.05672 0.53328 0.05031 0.0
H536 H 0.58393 0.01762 0.05252 0.0
H537 H 0.49614 0.11775 0.07409 0.0
H538 H 0.43919 0.06798 0.07546 0.0
H539 H 0.41396 0.99568 0.06984 0.0
H540 H 0.50283 0.896 0.05258 0.0
H541 H 0.55931 0.94588 0.05059 0.0
C542 C 0.5525 0.02874 0.05816 0.0
C543 C 0.54473 0.07168 0.06293 0.0
C544 C 0.51978 0.99988 0.05954 0.0
C545 C 0.50337 0.08511 0.06938 0.0
C546 C 0.47063 0.05656 0.07055 0.0
C547 C 0.44566 0.98481 0.06613 0.0
C548 C 0.45374 0.94193 0.06071 0.0
C549 C 0.47842 0.01382 0.06554 0.0
C550 C 0.49524 0.92867 0.05557 0.0
C551 C 0.52779 0.95724 0.05482 0.0
H552 H 0.42828 0.02187 0.56981 0.0
H553 H 0.50841 0.12207 0.5208 0.0
H554 H 0.56763 0.07461 0.51842 0.0
H555 H 0.59627 1.00394 0.52693 0.0
H556 H 0.51595 0.90404 0.57705 0.0
H557 H 0.45735 0.95185 0.58144 0.0
C558 C 0.45861 0.03331 0.55828 0.0
C559 C 0.46366 0.07558 0.54526 0.0
C560 C 0.49262 1.00578 0.55693 0.0
C561 C 0.50353 0.08988 0.53146 0.0
C562 C 0.53745 0.06265 0.52982 0.0
C563 C 0.56616 0.99262 0.53955 0.0
C564 C 0.56078 0.9501 0.55126 0.0
C565 C 0.53236 0.02045 0.54223 0.0
C566 C 0.52112 0.93626 0.56688 0.0
C567 C 0.48749 0.9637 0.56967 0.0
H568 H 0.088 0.5251 0.52096 0.0
H569 H 0.99988 0.61927 0.56949 0.0
H570 H 0.94548 0.56696 0.57579 0.0
H571 H 0.92291 0.49403 0.56965 0.0
H572 H 0.01134 0.39962 0.52301 0.0
H573 H 0.0652 0.45225 0.51374 0.0
C574 C 0.05697 0.53419 0.53318 0.0
C575 C 0.04831 0.57628 0.54468 0.0
C576 C 0.02566 0.50379 0.53701 0.0
C577 C 1.00759 0.58738 0.55965 0.0
C578 C 0.97638 0.55735 0.56364 0.0
C579 C 0.95398 0.4849 0.55765 0.0
C580 C 0.96278 0.44272 0.54705 0.0
C581 C 0.98507 0.51541 0.55271 0.0
C582 C 1.00325 0.43174 0.53074 0.0
C583 C 0.03429 0.46187 0.5258 0.0
loop_
_geom_bond_atom_site_label_1
_geom_bond_atom_site_label_2
_geom_bond_distance
_geom_bond_site_symmetry_2
_ccdc_geom_bond_type
C0 C1 1.351 . S
C0 N3 1.368 1_556 S
C0 H5 0.931 . S
C1 C0 1.351 . S
C1 N2 1.373 1_556 S
C1 H29 0.930 . S
N2 C1 1.373 1_554 S
N2 C4 1.340 . S
N3 C0 1.368 1_554 S
N3 C4 1.321 . S
N3 Co6 2.135 . S
C4 N2 1.340 . S
C4 N3 1.321 . S
C4 H28 0.930 . S
H5 C0 0.931 . S
Co6 N3 2.135 . S
Co6 N9 2.121 . S
Co6 O14 2.055 . S
Co6 O17 2.039 . S
Co6 N20 2.140 1_554 S
C7 O8 1.227 . S
C7 O17 1.265 . S
O8 C7 1.227 . S
N9 Co6 2.121 . S
N9 C11 1.375 . S
N9 C12 1.313 . S
C10 C11 1.338 . S
C10 N13 1.377 . S
C10 H30 0.930 . S
C11 N9 1.375 . S
C11 C10 1.338 . S
C11 H15 0.931 . S
C12 N9 1.313 . S
C12 N13 1.344 . S
C12 H16 0.930 . S
N13 C10 1.377 . S
N13 C12 1.344 . S
O14 Co6 2.055 . S
O14 C18 1.244 1_554 S
H15 C11 0.931 . S
H16 C12 0.930 . S
O17 Co6 2.039 . S
O17 C7 1.265 . S
C18 O14 1.244 1_556 S
C18 O19 1.235 . S
O19 C18 1.235 . S
N20 Co6 2.140 1_556 S
N20 C23 1.346 . S
N20 C24 1.345 . S
C21 C22 1.387 . S
C21 C25 1.391 . S
C22 C21 1.387 . S
C22 C23 1.369 . S
C22 H31 0.929 . S
C23 N20 1.346 . S
C23 C22 1.369 . S
C23 H26 0.928 . S
C24 N20 1.345 . S
C24 C25 1.371 . S
C24 H27 0.931 . S
C25 C21 1.391 . S
C25 C24 1.371 . S
C25 H32 0.930 . S
H26 C23 0.928 . S
H27 C24 0.931 . S
H28 C4 0.930 . S
H29 C1 0.930 . S
H30 C10 0.930 . S
H31 C22 0.929 . S
H32 C25 0.930 . S
C33 C34 1.351 . S
C33 N36 1.368 1_556 S
C33 H38 0.931 . S
C34 C33 1.351 . S
C34 N35 1.373 1_556 S
C34 H62 0.930 . S
N35 C34 1.373 1_554 S
N35 C37 1.340 . S
N36 C33 1.368 1_554 S
N36 C37 1.321 . S
N36 Co39 2.135 . S
C37 N35 1.340 . S
C37 N36 1.321 . S
C37 H61 0.930 . S
H38 C33 0.931 . S
Co39 N36 2.135 . S
Co39 N42 2.121 . S
Co39 O47 2.055 . S
Co39 O50 2.039 . S
Co39 N53 2.140 1_554 S
C40 O41 1.227 . S
C40 O50 1.265 . S
O41 C40 1.227 . S
N42 Co39 2.121 . S
N42 C44 1.375 . S
N42 C45 1.313 . S
C43 C44 1.338 . S
C43 N46 1.377 . S
C43 H63 0.930 . S
C44 N42 1.375 . S
C44 C43 1.338 . S
C44 H48 0.931 . S
C45 N42 1.313 . S
C45 N46 1.344 . S
C45 H49 0.930 . S
N46 C43 1.377 . S
N46 C45 1.344 . S
O47 Co39 2.055 . S
O47 C51 1.244 1_554 S
H48 C44 0.931 . S
H49 C45 0.930 . S
O50 Co39 2.039 . S
O50 C40 1.265 . S
C51 O47 1.244 1_556 S
C51 O52 1.235 . S
O52 C51 1.235 . S
N53 Co39 2.140 1_556 S
N53 C56 1.346 . S
N53 C57 1.345 . S
C54 C55 1.387 . S
C54 C58 1.391 . S
C55 C54 1.387 . S
C55 C56 1.369 . S
C55 H64 0.929 . S
C56 N53 1.346 . S
C56 C55 1.369 . S
C56 H59 0.928 . S
C57 N53 1.345 . S
C57 C58 1.371 . S
C57 H60 0.931 . S
C58 C54 1.391 . S
C58 C57 1.371 . S
C58 H65 0.930 . S
H59 C56 0.928 . S
H60 C57 0.931 . S
H61 C37 0.930 . S
H62 C34 0.930 . S
H63 C43 0.930 . S
H64 C55 0.929 . S
H65 C58 0.930 . S
C66 C67 1.351 . S
C66 N69 1.368 1_556 S
C66 H71 0.931 . S
C67 C66 1.351 . S
C67 N68 1.373 1_556 S
C67 H95 0.930 . S
N68 C67 1.373 1_554 S
N68 C70 1.340 . S
N69 C66 1.368 1_554 S
N69 C70 1.321 . S
N69 Co72 2.135 . S
C70 N68 1.340 . S
C70 N69 1.321 . S
C70 H94 0.930 . S
H71 C66 0.931 . S
Co72 N69 2.135 . S
Co72 N75 2.121 . S
Co72 O80 2.055 . S
Co72 O83 2.039 . S
Co72 N86 2.140 1_554 S
C73 O74 1.227 . S
C73 O83 1.265 . S
O74 C73 1.227 . S
N75 Co72 2.121 . S
N75 C77 1.375 . S
N75 C78 1.313 . S
C76 C77 1.338 . S
C76 N79 1.377 . S
C76 H96 0.930 . S
C77 N75 1.375 . S
C77 C76 1.338 . S
C77 H81 0.931 . S
C78 N75 1.313 . S
C78 N79 1.344 . S
C78 H82 0.930 . S
N79 C76 1.377 . S
N79 C78 1.344 . S
O80 Co72 2.055 . S
O80 C84 1.244 1_554 S
H81 C77 0.931 . S
H82 C78 0.930 . S
O83 Co72 2.039 . S
O83 C73 1.265 . S
C84 O80 1.244 1_556 S
C84 O85 1.235 . S
O85 C84 1.235 . S
N86 Co72 2.140 1_556 S
N86 C89 1.346 . S
N86 C90 1.345 . S
C87 C88 1.387 . S
C87 C91 1.391 . S
C88 C87 1.387 . S
C88 C89 1.369 . S
C88 H97 0.929 . S
C89 N86 1.346 . S
C89 C88 1.369 . S
C89 H92 0.928 . S
C90 N86 1.345 . S
C90 C91 1.371 . S
C90 H93 0.931 . S
C91 C87 1.391 . S
C91 C90 1.371 . S
C91 H98 0.930 . S
H92 C89 0.928 . S
H93 C90 0.931 . S
H94 C70 0.930 . S
H95 C67 0.930 . S
H96 C76 0.930 . S
H97 C88 0.929 . S
H98 C91 0.930 . S
C99 C100 1.351 . S
C99 N102 1.368 1_556 S
C99 H104 0.931 . S
C100 C99 1.351 . S
C100 N101 1.373 1_556 S
C100 H128 0.930 . S
N101 C100 1.373 1_554 S
N101 C103 1.340 . S
N102 C99 1.368 1_554 S
N102 C103 1.321 . S
N102 Co105 2.135 . S
C103 N101 1.340 . S
C103 N102 1.321 . S
C103 H127 0.930 . S
H104 C99 0.931 . S
Co105 N102 2.135 . S
Co105 N108 2.121 . S
Co105 O113 2.055 . S
Co105 O116 2.039 . S
Co105 N119 2.140 1_554 S
C106 O107 1.227 . S
C106 O116 1.265 . S
O107 C106 1.227 . S
N108 Co105 2.121 . S
N108 C110 1.375 . S
N108 C111 1.313 . S
C109 C110 1.338 . S
C109 N112 1.377 . S
C109 H129 0.930 . S
C110 N108 1.375 . S
C110 C109 1.338 . S
C110 H114 0.931 . S
C111 N108 1.313 . S
C111 N112 1.344 . S
C111 H115 0.930 . S
N112 C109 1.377 . S
N112 C111 1.344 . S
O113 Co105 2.055 . S
O113 C117 1.244 1_554 S
H114 C110 0.931 . S
H115 C111 0.930 . S
O116 Co105 2.039 . S
O116 C106 1.265 . S
C117 O113 1.244 1_556 S
C117 O118 1.235 . S
O118 C117 1.235 . S
N119 Co105 2.140 1_556 S
N119 C122 1.346 . S
N119 C123 1.345 . S
C120 C121 1.387 . S
C120 C124 1.391 . S
C121 C120 1.387 . S
C121 C122 1.369 . S
C121 H130 0.929 . S
C122 N119 1.346 . S
C122 C121 1.369 . S
C122 H125 0.928 . S
C123 N119 1.345 . S
C123 C124 1.371 . S
C123 H126 0.931 . S
C124 C120 1.391 . S
C124 C123 1.371 . S
C124 H131 0.930 . S
H125 C122 0.928 . S
H126 C123 0.931 . S
H127 C103 0.930 . S
H128 C100 0.930 . S
H129 C109 0.930 . S
H130 C121 0.929 . S
H131 C124 0.930 . S
C132 C133 1.351 . S
C132 N135 1.368 . S
C132 H137 0.931 . S
C133 C132 1.351 . S
C133 N134 1.373 . S
C133 H161 0.930 . S
N134 C133 1.373 . S
N134 C136 1.340 . S
N135 C132 1.368 . S
N135 C136 1.321 . S
N135 Co138 2.135 . S
C136 N134 1.340 . S
C136 N135 1.321 . S
C136 H160 0.930 . S
H137 C132 0.931 . S
Co138 N135 2.135 . S
Co138 N141 2.121 . S
Co138 O146 2.055 . S
Co138 O149 2.039 . S
Co138 N152 2.140 . S
C139 O140 1.227 . S
C139 O149 1.265 . S
O140 C139 1.227 . S
N141 Co138 2.121 . S
N141 C143 1.375 . S
N141 C144 1.313 . S
C142 C143 1.338 . S
C142 N145 1.377 . S
C142 H162 0.930 . S
C143 N141 1.375 . S
C143 C142 1.338 . S
C143 H147 0.931 . S
C144 N141 1.313 . S
C144 N145 1.344 . S
C144 H148 0.930 . S
N145 C142 1.377 . S
N145 C144 1.344 . S
O146 Co138 2.055 . S
O146 C150 1.253 . S
H147 C143 0.931 . S
H148 C144 0.930 . S
O149 Co138 2.039 . S
O149 C139 1.265 . S
C150 O146 1.253 . S
C150 O151 1.227 . S
O151 C150 1.227 . S
N152 Co138 2.140 . S
N152 C155 1.346 . S
N152 C156 1.345 . S
C153 C154 1.387 . S
C153 C157 1.391 . S
C154 C153 1.387 . S
C154 C155 1.369 . S
C154 H163 0.929 . S
C155 N152 1.346 . S
C155 C154 1.369 . S
C155 H158 0.928 . S
C156 N152 1.345 . S
C156 C157 1.371 . S
C156 H159 0.931 . S
C157 C153 1.391 . S
C157 C156 1.371 . S
C157 H164 0.930 . S
H158 C155 0.928 . S
H159 C156 0.931 . S
H160 C136 0.930 . S
H161 C133 0.930 . S
H162 C142 0.930 . S
H163 C154 0.929 . S
H164 C157 0.930 . S
C165 C166 1.351 . S
C165 N168 1.368 . S
C165 H170 0.931 . S
C166 C165 1.351 . S
C166 N167 1.373 . S
C166 H194 0.930 . S
N167 C166 1.373 . S
N167 C169 1.340 . S
N168 C165 1.368 . S
N168 C169 1.321 . S
N168 Co171 2.135 . S
C169 N167 1.340 . S
C169 N168 1.321 . S
C169 H193 0.930 . S
H170 C165 0.931 . S
Co171 N168 2.135 . S
Co171 N174 2.121 . S
Co171 O179 2.055 . S
Co171 O182 2.039 . S
Co171 N185 2.140 . S
C172 O173 1.227 . S
C172 O182 1.265 . S
O173 C172 1.227 . S
N174 Co171 2.121 . S
N174 C176 1.375 . S
N174 C177 1.313 . S
C175 C176 1.338 . S
C175 N178 1.377 . S
C175 H195 0.930 . S
C176 N174 1.375 . S
C176 C175 1.338 . S
C176 H180 0.931 . S
C177 N174 1.313 . S
C177 N178 1.344 . S
C177 H181 0.930 . S
N178 C175 1.377 . S
N178 C177 1.344 . S
O179 Co171 2.055 . S
O179 C183 1.253 . S
H180 C176 0.931 . S
H181 C177 0.930 . S
O182 Co171 2.039 . S
O182 C172 1.265 . S
C183 O179 1.253 . S
C183 O184 1.227 . S
O184 C183 1.227 . S
N185 Co171 2.140 . S
N185 C188 1.346 . S
N185 C189 1.345 . S
C186 C187 1.387 . S
C186 C190 1.391 . S
C187 C186 1.387 . S
C187 C188 1.369 . S
C187 H196 0.929 . S
C188 N185 1.346 . S
C188 C187 1.369 . S
C188 H191 0.928 . S
C189 N185 1.345 . S
C189 C190 1.371 . S
C189 H192 0.931 . S
C190 C186 1.391 . S
C190 C189 1.371 . S
C190 H197 0.930 . S
H191 C188 0.928 . S
H192 C189 0.931 . S
H193 C169 0.930 . S
H194 C166 0.930 . S
H195 C175 0.930 . S
H196 C187 0.929 . S
H197 C190 0.930 . S
C198 C199 1.351 . S
C198 N201 1.368 . S
C198 H203 0.931 . S
C199 C198 1.351 . S
C199 N200 1.373 . S
C199 H227 0.930 . S
N200 C199 1.373 . S
N200 C202 1.340 . S
N201 C198 1.368 . S
N201 C202 1.321 . S
N201 Co204 2.135 . S
C202 N200 1.340 . S
C202 N201 1.321 . S
C202 H226 0.930 . S
H203 C198 0.931 . S
Co204 N201 2.135 . S
Co204 N207 2.121 . S
Co204 O212 2.055 . S
Co204 O215 2.039 . S
Co204 N218 2.140 . S
C205 O206 1.227 . S
C205 O215 1.265 . S
O206 C205 1.227 . S
N207 Co204 2.121 . S
N207 C209 1.375 . S
N207 C210 1.313 . S
C208 C209 1.338 . S
C208 N211 1.377 . S
C208 H228 0.930 . S
C209 N207 1.375 . S
C209 C208 1.338 . S
C209 H213 0.931 . S
C210 N207 1.313 . S
C210 N211 1.344 . S
C210 H214 0.930 . S
N211 C208 1.377 . S
N211 C210 1.344 . S
O212 Co204 2.055 . S
O212 C216 1.253 . S
H213 C209 0.931 . S
H214 C210 0.930 . S
O215 Co204 2.039 . S
O215 C205 1.265 . S
C216 O212 1.253 . S
C216 O217 1.227 . S
O217 C216 1.227 . S
N218 Co204 2.140 . S
N218 C221 1.346 . S
N218 C222 1.345 . S
C219 C220 1.387 . S
C219 C223 1.391 . S
C220 C219 1.387 . S
C220 C221 1.369 . S
C220 H229 0.929 . S
C221 N218 1.346 . S
C221 C220 1.369 . S
C221 H224 0.928 . S
C222 N218 1.345 . S
C222 C223 1.371 . S
C222 H225 0.931 . S
C223 C219 1.391 . S
C223 C222 1.371 . S
C223 H230 0.930 . S
H224 C221 0.928 . S
H225 C222 0.931 . S
H226 C202 0.930 . S
H227 C199 0.930 . S
H228 C208 0.930 . S
H229 C220 0.929 . S
H230 C223 0.930 . S
C231 C232 1.351 . S
C231 N234 1.368 . S
C231 H236 0.931 . S
C232 C231 1.351 . S
C232 N233 1.373 . S
C232 H260 0.930 . S
N233 C232 1.373 . S
N233 C235 1.340 . S
N234 C231 1.368 . S
N234 C235 1.321 . S
N234 Co237 2.135 . S
C235 N233 1.340 . S
C235 N234 1.321 . S
C235 H259 0.930 . S
H236 C231 0.931 . S
Co237 N234 2.135 . S
Co237 N240 2.121 . S
Co237 O245 2.055 . S
Co237 O248 2.039 . S
Co237 N251 2.140 . S
C238 O239 1.227 . S
C238 O248 1.265 . S
O239 C238 1.227 . S
N240 Co237 2.121 . S
N240 C242 1.375 . S
N240 C243 1.313 . S
C241 C242 1.338 . S
C241 N244 1.377 . S
C241 H261 0.930 . S
C242 N240 1.375 . S
C242 C241 1.338 . S
C242 H246 0.931 . S
C243 N240 1.313 . S
C243 N244 1.344 . S
C243 H247 0.930 . S
N244 C241 1.377 . S
N244 C243 1.344 . S
O245 Co237 2.055 . S
O245 C249 1.253 . S
H246 C242 0.931 . S
H247 C243 0.930 . S
O248 Co237 2.039 . S
O248 C238 1.265 . S
C249 O245 1.253 . S
C249 O250 1.227 . S
O250 C249 1.227 . S
N251 Co237 2.140 . S
N251 C254 1.346 . S
N251 C255 1.345 . S
C252 C253 1.387 . S
C252 C256 1.391 . S
C253 C252 1.387 . S
C253 C254 1.369 . S
C253 H262 0.929 . S
C254 N251 1.346 . S
C254 C253 1.369 . S
C254 H257 0.928 . S
C255 N251 1.345 . S
C255 C256 1.371 . S
C255 H258 0.931 . S
C256 C252 1.391 . S
C256 C255 1.371 . S
C256 H263 0.930 . S
H257 C254 0.928 . S
H258 C255 0.931 . S
H259 C235 0.930 . S
H260 C232 0.930 . S
H261 C241 0.930 . S
H262 C253 0.929 . S
H263 C256 0.930 . S
H264 C270 0.930 . S
H265 C273 0.930 . S
H266 C274 0.930 . S
H267 C275 0.930 . S
H268 C278 0.930 . S
H269 C279 0.930 . S
C270 H264 0.930 . S
C270 C271 1.355 . S
C270 C272 1.415 . S
C271 C270 1.355 . S
C271 C273 1.419 . S
C272 C270 1.415 . S
C272 C277 1.425 . S
C272 C279 1.409 . S
C273 H265 0.930 . S
C273 C271 1.419 . S
C273 C274 1.362 . S
C274 H266 0.930 . S
C274 C273 1.362 . S
C274 C277 1.409 . S
C275 H267 0.930 . S
C275 C276 1.355 . S
C275 C277 1.415 . S
C276 C275 1.355 . S
C276 C278 1.419 . S
C277 C272 1.425 . S
C277 C274 1.409 . S
C277 C275 1.415 . S
C278 H268 0.930 . S
C278 C276 1.419 . S
C278 C279 1.362 . S
C279 H269 0.930 . S
C279 C272 1.409 . S
C279 C278 1.362 . S
H280 C286 0.930 . S
H281 C289 0.930 . S
H282 C290 0.930 . S
H283 C291 0.930 . S
H284 C294 0.930 . S
H285 C295 0.930 . S
C286 H280 0.930 . S
C286 C287 1.355 1_556 S
C286 C288 1.415 . S
C287 C286 1.355 1_554 S
C287 C289 1.419 . S
C288 C286 1.415 . S
C288 C293 1.425 1_556 S
C288 C295 1.409 . S
C289 H281 0.930 . S
C289 C287 1.419 . S
C289 C290 1.362 . S
C290 H282 0.930 . S
C290 C289 1.362 . S
C290 C293 1.409 . S
C291 H283 0.930 . S
C291 C292 1.355 1_554 S
C291 C293 1.415 . S
C292 C291 1.355 1_556 S
C292 C294 1.419 . S
C293 C288 1.425 1_554 S
C293 C290 1.409 . S
C293 C291 1.415 . S
C294 H284 0.930 . S
C294 C292 1.419 . S
C294 C295 1.362 . S
C295 H285 0.930 . S
C295 C288 1.409 . S
C295 C294 1.362 . S
H296 C302 0.930 . S
H297 C305 0.930 . S
H298 C306 0.930 . S
H299 C307 0.930 . S
H300 C310 0.930 . S
H301 C311 0.930 . S
C302 H296 0.930 . S
C302 C303 1.355 . S
C302 C304 1.415 . S
C303 C302 1.355 . S
C303 C305 1.419 1_554 S
C304 C302 1.415 . S
C304 C309 1.425 1_554 S
C304 C311 1.409 . S
C305 H297 0.930 . S
C305 C303 1.419 1_556 S
C305 C306 1.362 . S
C306 H298 0.930 . S
C306 C305 1.362 . S
C306 C309 1.409 . S
C307 H299 0.930 . S
C307 C308 1.355 1_556 S
C307 C309 1.415 . S
C308 C307 1.355 1_554 S
C308 C310 1.419 . S
C309 C304 1.425 1_556 S
C309 C306 1.409 . S
C309 C307 1.415 . S
C310 H300 0.930 . S
C310 C308 1.419 . S
C310 C311 1.362 . S
C311 H301 0.930 . S
C311 C304 1.409 . S
C311 C310 1.362 . S
H312 C318 0.930 . S
H313 C321 0.930 . S
H314 C322 0.930 . S
H315 C323 0.930 . S
H316 C326 0.930 . S
H317 C327 0.930 . S
C318 H312 0.930 . S
C318 C319 1.355 1_556 S
C318 C320 1.415 . S
C319 C318 1.355 1_554 S
C319 C321 1.419 . S
C320 C318 1.415 . S
C320 C325 1.425 1_556 S
C320 C327 1.409 . S
C321 H313 0.930 . S
C321 C319 1.419 . S
C321 C322 1.362 . S
C322 H314 0.930 . S
C322 C321 1.362 . S
C322 C325 1.409 . S
C323 H315 0.930 . S
C323 C324 1.355 . S
C323 C325 1.415 . S
C324 C323 1.355 . S
C324 C326 1.419 1_554 S
C325 C320 1.425 1_554 S
C325 C322 1.409 . S
C325 C323 1.415 . S
C326 H316 0.930 . S
C326 C324 1.419 1_556 S
C326 C327 1.362 . S
C327 H317 0.930 . S
C327 C320 1.409 . S
C327 C326 1.362 . S
H328 C334 0.930 . S
H329 C337 0.930 1_455 S
H330 C338 0.930 . S
H331 C339 0.930 . S
H332 C342 0.930 . S
H333 C343 0.930 . S
C334 H328 0.930 . S
C334 C335 1.355 . S
C334 C336 1.415 1_455 S
C335 C334 1.355 . S
C335 C337 1.419 1_455 S
C336 C334 1.415 1_655 S
C336 C341 1.425 . S
C336 C343 1.409 . S
C337 H329 0.930 1_655 S
C337 C335 1.419 1_655 S
C337 C338 1.362 . S
C338 H330 0.930 . S
C338 C337 1.362 . S
C338 C341 1.409 . S
C339 H331 0.930 . S
C339 C340 1.355 . S
C339 C341 1.415 . S
C340 C339 1.355 . S
C340 C342 1.419 . S
C341 C336 1.425 . S
C341 C338 1.409 . S
C341 C339 1.415 . S
C342 H332 0.930 . S
C342 C340 1.419 . S
C342 C343 1.362 . S
C343 H333 0.930 . S
C343 C336 1.409 . S
C343 C342 1.362 . S
H344 C350 0.930 . S
H345 C353 0.930 . S
H346 C354 0.930 . S
H347 C355 0.930 . S
H348 C358 0.930 . S
H349 C359 0.930 . S
C350 H344 0.930 . S
C350 C351 1.355 1_565 S
C350 C352 1.415 . S
C351 C350 1.355 1_545 S
C351 C353 1.419 . S
C352 C350 1.415 . S
C352 C357 1.425 . S
C352 C359 1.409 . S
C353 H345 0.930 . S
C353 C351 1.419 . S
C353 C354 1.362 1_545 S
C354 H346 0.930 . S
C354 C353 1.362 1_565 S
C354 C357 1.409 . S
C355 H347 0.930 . S
C355 C356 1.355 . S
C355 C357 1.415 . S
C356 C355 1.355 . S
C356 C358 1.419 . S
C357 C352 1.425 . S
C357 C354 1.409 . S
C357 C355 1.415 . S
C358 H348 0.930 . S
C358 C356 1.419 . S
C358 C359 1.362 . S
C359 H349 0.930 . S
C359 C352 1.409 . S
C359 C358 1.362 . S
H360 C366 0.930 . S
H361 C369 0.930 . S
H362 C370 0.930 . S
H363 C371 0.930 . S
H364 C374 0.930 . S
H365 C375 0.930 . S
C366 H360 0.930 . S
C366 C367 1.355 . S
C366 C368 1.415 . S
C367 C366 1.355 . S
C367 C369 1.419 . S
C368 C366 1.415 . S
C368 C373 1.425 . S
C368 C375 1.409 . S
C369 H361 0.930 . S
C369 C367 1.419 . S
C369 C370 1.362 . S
C370 H362 0.930 . S
C370 C369 1.362 . S
C370 C373 1.409 . S
C371 H363 0.930 . S
C371 C372 1.355 1_455 S
C371 C373 1.415 . S
C372 C371 1.355 1_655 S
C372 C374 1.419 . S
C373 C368 1.425 . S
C373 C370 1.409 . S
C373 C371 1.415 . S
C374 H364 0.930 . S
C374 C372 1.419 . S
C374 C375 1.362 1_655 S
C375 H365 0.930 . S
C375 C368 1.409 . S
C375 C374 1.362 1_455 S
H376 C382 0.930 . S
H377 C385 0.930 . S
H378 C386 0.930 . S
H379 C387 0.930 . S
H380 C390 0.930 1_565 S
H381 C391 0.930 . S
C382 H376 0.930 . S
C382 C383 1.355 . S
C382 C384 1.415 . S
C383 C382 1.355 . S
C383 C385 1.419 . S
C384 C382 1.415 . S
C384 C389 1.425 . S
C384 C391 1.409 . S
C385 H377 0.930 . S
C385 C383 1.419 . S
C385 C386 1.362 . S
C386 H378 0.930 . S
C386 C385 1.362 . S
C386 C389 1.409 . S
C387 H379 0.930 . S
C387 C388 1.355 . S
C387 C389 1.415 1_565 S
C388 C387 1.355 . S
C388 C390 1.419 1_565 S
C389 C384 1.425 . S
C389 C386 1.409 . S
C389 C387 1.415 1_545 S
C390 H380 0.930 1_545 S
C390 C388 1.419 1_545 S
C390 C391 1.362 . S
C391 H381 0.930 . S
C391 C384 1.409 . S
C391 C390 1.362 . S
H392 C398 0.930 . S
H393 C401 0.930 . S
H394 C402 0.930 . S
H395 C403 0.930 . S
H396 C406 0.930 . S
H397 C407 0.930 . S
C398 H392 0.930 . S
C398 C399 1.355 . S
C398 C400 1.415 . S
C399 C398 1.355 . S
C399 C401 1.419 . S
C400 C398 1.415 . S
C400 C405 1.425 . S
C400 C407 1.409 . S
C401 H393 0.930 . S
C401 C399 1.419 . S
C401 C402 1.362 . S
C402 H394 0.930 . S
C402 C401 1.362 . S
C402 C405 1.409 . S
C403 H395 0.930 . S
C403 C404 1.355 . S
C403 C405 1.415 . S
C404 C403 1.355 . S
C404 C406 1.419 . S
C405 C400 1.425 . S
C405 C402 1.409 . S
C405 C403 1.415 . S
C406 H396 0.930 . S
C406 C404 1.419 . S
C406 C407 1.362 . S
C407 H397 0.930 . S
C407 C400 1.409 . S
C407 C406 1.362 . S
H408 C414 0.930 . S
H409 C417 0.930 . S
H410 C418 0.930 . S
H411 C419 0.930 . S
H412 C422 0.930 . S
H413 C423 0.930 . S
C414 H408 0.930 . S
C414 C415 1.355 . S
C414 C416 1.415 . S
C415 C414 1.355 . S
C415 C417 1.419 . S
C416 C414 1.415 . S
C416 C421 1.425 . S
C416 C423 1.409 . S
C417 H409 0.930 . S
C417 C415 1.419 . S
C417 C418 1.362 . S
C418 H410 0.930 . S
C418 C417 1.362 . S
C418 C421 1.409 . S
C419 H411 0.930 . S
C419 C420 1.355 . S
C419 C421 1.415 . S
C420 C419 1.355 . S
C420 C422 1.419 . S
C421 C416 1.425 . S
C421 C418 1.409 . S
C421 C419 1.415 . S
C422 H412 0.930 . S
C422 C420 1.419 . S
C422 C423 1.362 . S
C423 H413 0.930 . S
C423 C416 1.409 . S
C423 C422 1.362 . S
H424 C430 0.930 . S
H425 C433 0.930 . S
H426 C434 0.930 . S
H427 C435 0.930 . S
H428 C438 0.930 . S
H429 C439 0.930 . S
C430 H424 0.930 . S
C430 C431 1.355 . S
C430 C432 1.415 . S
C431 C430 1.355 . S
C431 C433 1.419 . S
C432 C430 1.415 . S
C432 C437 1.425 . S
C432 C439 1.409 . S
C433 H425 0.930 . S
C433 C431 1.419 . S
C433 C434 1.362 . S
C434 H426 0.930 . S
C434 C433 1.362 . S
C434 C437 1.409 . S
C435 H427 0.930 . S
C435 C436 1.355 . S
C435 C437 1.415 . S
C436 C435 1.355 . S
C436 C438 1.419 . S
C437 C432 1.425 . S
C437 C434 1.409 . S
C437 C435 1.415 . S
C438 H428 0.930 . S
C438 C436 1.419 . S
C438 C439 1.362 . S
C439 H429 0.930 . S
C439 C432 1.409 . S
C439 C438 1.362 . S
H440 C446 0.930 . S
H441 C449 0.930 . S
H442 C450 0.930 . S
H443 C451 0.930 . S
H444 C454 0.930 . S
H445 C455 0.930 . S
C446 H440 0.930 . S
C446 C447 1.355 . S
C446 C448 1.415 . S
C447 C446 1.355 . S
C447 C449 1.419 . S
C448 C446 1.415 . S
C448 C453 1.425 . S
C448 C455 1.409 . S
C449 H441 0.930 . S
C449 C447 1.419 . S
C449 C450 1.362 . S
C450 H442 0.930 . S
C450 C449 1.362 . S
C450 C453 1.409 . S
C451 H443 0.930 . S
C451 C452 1.355 . S
C451 C453 1.415 . S
C452 C451 1.355 . S
C452 C454 1.419 . S
C453 C448 1.425 . S
C453 C450 1.409 . S
C453 C451 1.415 . S
C454 H444 0.930 . S
C454 C452 1.419 . S
C454 C455 1.362 . S
C455 H445 0.930 . S
C455 C448 1.409 . S
C455 C454 1.362 . S
H456 C462 0.930 . S
H457 C465 0.930 . S
H458 C466 0.930 . S
H459 C467 0.930 . S
H460 C470 0.930 . S
H461 C471 0.930 . S
C462 H456 0.930 . S
C462 C463 1.355 . S
C462 C464 1.415 . S
C463 C462 1.355 . S
C463 C465 1.419 . S
C464 C462 1.415 . S
C464 C469 1.425 . S
C464 C471 1.409 . S
C465 H457 0.930 . S
C465 C463 1.419 . S
C465 C466 1.362 . S
C466 H458 0.930 . S
C466 C465 1.362 . S
C466 C469 1.409 . S
C467 H459 0.930 . S
C467 C468 1.355 . S
C467 C469 1.415 . S
C468 C467 1.355 . S
C468 C470 1.419 . S
C469 C464 1.425 . S
C469 C466 1.409 . S
C469 C467 1.415 . S
C470 H460 0.930 . S
C470 C468 1.419 . S
C470 C471 1.362 . S
C471 H461 0.930 . S
C471 C464 1.409 . S
C471 C470 1.362 . S
H472 C478 0.930 . S
H473 C481 0.930 . S
H474 C482 0.930 . S
H475 C483 0.930 . S
H476 C486 0.930 . S
H477 C487 0.930 . S
C478 H472 0.930 . S
C478 C479 1.355 . S
C478 C480 1.415 . S
C479 C478 1.355 . S
C479 C481 1.419 . S
C480 C478 1.415 . S
C480 C485 1.425 . S
C480 C487 1.409 . S
C481 H473 0.930 . S
C481 C479 1.419 . S
C481 C482 1.362 . S
C482 H474 0.930 . S
C482 C481 1.362 . S
C482 C485 1.409 . S
C483 H475 0.930 . S
C483 C484 1.355 . S
C483 C485 1.415 . S
C484 C483 1.355 . S
C484 C486 1.419 . S
C485 C480 1.425 . S
C485 C482 1.409 . S
C485 C483 1.415 . S
C486 H476 0.930 . S
C486 C484 1.419 . S
C486 C487 1.362 . S
C487 H477 0.930 . S
C487 C480 1.409 . S
C487 C486 1.362 . S
H488 C494 0.930 . S
H489 C497 0.930 . S
H490 C498 0.930 . S
H491 C499 0.930 . S
H492 C502 0.930 . S
H493 C503 0.930 . S
C494 H488 0.930 . S
C494 C495 1.355 . S
C494 C496 1.415 . S
C495 C494 1.355 . S
C495 C497 1.419 . S
C496 C494 1.415 . S
C496 C501 1.425 . S
C496 C503 1.409 . S
C497 H489 0.930 . S
C497 C495 1.419 . S
C497 C498 1.362 . S
C498 H490 0.930 . S
C498 C497 1.362 . S
C498 C501 1.409 . S
C499 H491 0.930 . S
C499 C500 1.355 . S
C499 C501 1.415 . S
C500 C499 1.355 . S
C500 C502 1.419 . S
C501 C496 1.425 . S
C501 C498 1.409 . S
C501 C499 1.415 . S
C502 H492 0.930 . S
C502 C500 1.419 . S
C502 C503 1.362 . S
C503 H493 0.930 . S
C503 C496 1.409 . S
C503 C502 1.362 . S
H504 C510 0.930 . S
H505 C513 0.930 . S
H506 C514 0.930 . S
H507 C515 0.930 . S
H508 C518 0.930 . S
H509 C519 0.930 . S
C510 H504 0.930 . S
C510 C511 1.355 . S
C510 C512 1.415 . S
C511 C510 1.355 . S
C511 C513 1.419 . S
C512 C510 1.415 . S
C512 C517 1.425 . S
C512 C519 1.409 . S
C513 H505 0.930 . S
C513 C511 1.419 . S
C513 C514 1.362 . S
C514 H506 0.930 . S
C514 C513 1.362 . S
C514 C517 1.409 . S
C515 H507 0.930 . S
C515 C516 1.355 . S
C515 C517 1.415 . S
C516 C515 1.355 . S
C516 C518 1.419 . S
C517 C512 1.425 . S
C517 C514 1.409 . S
C517 C515 1.415 . S
C518 H508 0.930 . S
C518 C516 1.419 . S
C518 C519 1.362 . S
C519 H509 0.930 . S
C519 C512 1.409 . S
C519 C518 1.362 . S
H520 C526 0.930 . S
H521 C529 0.930 . S
H522 C530 0.930 . S
H523 C531 0.930 . S
H524 C534 0.930 . S
H525 C535 0.930 . S
C526 H520 0.930 . S
C526 C527 1.355 . S
C526 C528 1.415 . S
C527 C526 1.355 . S
C527 C529 1.419 1_554 S
C528 C526 1.415 . S
C528 C533 1.425 1_654 S
C528 C535 1.409 1_655 S
C529 H521 0.930 . S
C529 C527 1.419 1_556 S
C529 C530 1.362 . S
C530 H522 0.930 . S
C530 C529 1.362 . S
C530 C533 1.409 1_655 S
C531 H523 0.930 . S
C531 C532 1.355 1_556 S
C531 C533 1.415 . S
C532 C531 1.355 1_554 S
C532 C534 1.419 . S
C533 C528 1.425 1_456 S
C533 C530 1.409 1_455 S
C533 C531 1.415 . S
C534 H524 0.930 . S
C534 C532 1.419 . S
C534 C535 1.362 . S
C535 H525 0.930 . S
C535 C528 1.409 1_455 S
C535 C534 1.362 . S
H536 C542 0.930 . S
H537 C545 0.930 . S
H538 C546 0.930 . S
H539 C547 0.930 . S
H540 C550 0.930 . S
H541 C551 0.930 . S
C542 H536 0.930 . S
C542 C543 1.355 . S
C542 C544 1.433 . S
C543 C542 1.355 . S
C543 C545 1.419 1_554 S
C544 C542 1.433 . S
C544 C549 1.424 1_544 S
C544 C551 1.392 1_545 S
C545 H537 0.930 . S
C545 C543 1.419 1_556 S
C545 C546 1.362 . S
C546 H538 0.930 . S
C546 C545 1.362 . S
C546 C549 1.392 1_545 S
C547 H539 0.930 . S
C547 C548 1.355 1_556 S
C547 C549 1.433 . S
C548 C547 1.355 1_554 S
C548 C550 1.419 . S
C549 C544 1.424 1_566 S
C549 C546 1.392 1_565 S
C549 C547 1.433 . S
C550 H540 0.930 . S
C550 C548 1.419 . S
C550 C551 1.362 . S
C551 H541 0.930 . S
C551 C544 1.392 1_565 S
C551 C550 1.362 . S
H552 C558 0.930 . S
H553 C561 0.930 . S
H554 C562 0.930 . S
H555 C563 0.930 . S
H556 C566 0.930 . S
H557 C567 0.930 . S
C558 H552 0.930 . S
C558 C559 1.355 . S
C558 C560 1.415 1_545 S
C559 C558 1.355 . S
C559 C561 1.419 . S
C560 C558 1.415 1_565 S
C560 C565 1.425 1_565 S
C560 C567 1.409 . S
C561 H553 0.930 . S
C561 C559 1.419 . S
C561 C562 1.362 . S
C562 H554 0.930 . S
C562 C561 1.362 . S
C562 C565 1.409 . S
C563 H555 0.930 . S
C563 C564 1.355 . S
C563 C565 1.415 1_565 S
C564 C563 1.355 . S
C564 C566 1.419 . S
C565 C560 1.425 1_545 S
C565 C562 1.409 . S
C565 C563 1.415 1_545 S
C566 H556 0.930 . S
C566 C564 1.419 . S
C566 C567 1.362 . S
C567 H557 0.930 . S
C567 C560 1.409 . S
C567 C566 1.362 . S
H568 C574 0.930 . S
H569 C577 0.930 . S
H570 C578 0.930 . S
H571 C579 0.930 . S
H572 C582 0.930 . S
H573 C583 0.930 . S
C574 H568 0.930 . S
C574 C575 1.355 . S
C574 C576 1.415 . S
C575 C574 1.355 . S
C575 C577 1.419 . S
C576 C574 1.415 . S
C576 C581 1.425 1_455 S
C576 C583 1.409 . S
C577 H569 0.930 . S
C577 C575 1.419 . S
C577 C578 1.362 1_455 S
C578 H570 0.930 . S
C578 C577 1.362 1_655 S
C578 C581 1.409 . S
C579 H571 0.930 . S
C579 C580 1.355 . S
C579 C581 1.415 . S
C580 C579 1.355 . S
C580 C582 1.419 . S
C581 C576 1.425 1_655 S
C581 C578 1.409 . S
C581 C579 1.415 . S
C582 H572 0.930 . S
C582 C580 1.419 . S
C582 C583 1.362 1_655 S
C583 H573 0.930 . S
C583 C576 1.409 . S
C583 C582 1.362 1_455 S
C271 C51 0.855 1_554 S
C276 N2 0.780 . S
C287 N35 0.895 . S
C292 C84 0.841 . S
C303 N68 0.824 . S
C308 C117 0.826 1_554 S
C319 C18 0.826 1_554 S
C324 N101 0.823 . S
C335 C183 0.853 . S
C340 N134 0.779 . S
C351 C216 0.829 . S
C356 N167 0.879 . S
C367 N200 0.879 . S
C372 C249 0.830 . S
C383 N233 0.782 . S
C388 C150 0.858 . S
C399 C219 1.555 . S
C404 C7 1.547 . S
C415 C40 1.518 . S
C420 C252 1.523 . S
C431 C73 1.555 . S
C436 C153 1.562 . S
C447 C106 1.486 . S
C452 C186 1.503 . S
C463 C139 1.531 . S
C468 C87 1.539 . S
C479 C172 1.551 . S
C484 C120 1.565 . S
C495 C205 1.506 . S
C500 C21 1.518 . S
C511 C54 1.532 . S
C516 C238 1.528 . S
C527 N79 2.126 . S
C532 N13 2.111 . S
C543 N46 2.130 . S
C548 N112 2.113 . S
C559 N211 2.120 . S
C564 N145 2.110 . S
C575 N178 2.119 . S
C580 N244 2.132 . S
