# Generated by pormake.
# Topology zfa, (5)-cn, num edge types: 1
# Building blocks:
#     Node 0, Type 0, BuildingBlock: BEQFEK_clean_sbu_0, # of connection points: 5
#     Node 1, Type 0, BuildingBlock: BEQFEK_clean_sbu_0, # of connection points: 5
#     Node 2, Type 0, BuildingBlock: BEQFEK_clean_sbu_0, # of connection points: 5
#     Node 3, Type 0, BuildingBlock: BEQFEK_clean_sbu_0, # of connection points: 5
#     Node 4, Type 0, BuildingBlock: BEQFEK_clean_sbu_0, # of connection points: 5
#     Node 5, Type 0, BuildingBlock: BEQFEK_clean_sbu_0, # of connection points: 5
#     Node 6, Type 0, BuildingBlock: BEQFEK_clean_sbu_0, # of connection points: 5
#     Node 7, Type 0, BuildingBlock: BEQFEK_clean_sbu_0, # of connection points: 5
#     Edge 8, Type (0, 0), BuildingBlock: TEMPAE_clean_linker_10, # of connection points: 2
#     Edge 9, Type (0, 0), BuildingBlock: TEMPAE_clean_linker_10, # of connection points: 2
#     Edge 10, Type (0, 0), BuildingBlock: TEMPAE_clean_linker_10, # of connection points: 2
#     Edge 11, Type (0, 0), BuildingBlock: TEMPAE_clean_linker_10, # of connection points: 2
#     Edge 12, Type (0, 0), BuildingBlock: TEMPAE_clean_linker_10, # of connection points: 2
#     Edge 13, Type (0, 0), BuildingBlock: TEMPAE_clean_linker_10, # of connection points: 2
#     Edge 14, Type (0, 0), BuildingBlock: TEMPAE_clean_linker_10, # of connection points: 2
#     Edge 15, Type (0, 0), BuildingBlock: TEMPAE_clean_linker_10, # of connection points: 2
#     Edge 16, Type (0, 0), BuildingBlock: TEMPAE_clean_linker_10, # of connection points: 2
#     Edge 17, Type (0, 0), BuildingBlock: TEMPAE_clean_linker_10, # of connection points: 2
#     Edge 18, Type (0, 0), BuildingBlock: TEMPAE_clean_linker_10, # of connection points: 2
#     Edge 19, Type (0, 0), BuildingBlock: TEMPAE_clean_linker_10, # of connection points: 2
#     Edge 20, Type (0, 0), BuildingBlock: TEMPAE_clean_linker_10, # of connection points: 2
#     Edge 21, Type (0, 0), BuildingBlock: TEMPAE_clean_linker_10, # of connection points: 2
#     Edge 22, Type (0, 0), BuildingBlock: TEMPAE_clean_linker_10, # of connection points: 2
#     Edge 23, Type (0, 0), BuildingBlock: TEMPAE_clean_linker_10, # of connection points: 2
#     Edge 24, Type (0, 0), BuildingBlock: TEMPAE_clean_linker_10, # of connection points: 2
#     Edge 25, Type (0, 0), BuildingBlock: TEMPAE_clean_linker_10, # of connection points: 2
#     Edge 26, Type (0, 0), BuildingBlock: TEMPAE_clean_linker_10, # of connection points: 2
#     Edge 27, Type (0, 0), BuildingBlock: TEMPAE_clean_linker_10, # of connection points: 2
# Relax obj value: 0.367
# Max RMSD: 0.182
# Mean RMSD: 0.182
data_MOF--net-zfa--node1-BEQFEK_clean_sbu_0--edge1-TEMPAE_clean_linker_10
_symmetry_space_group_name_H-M    P1
_symmetry_Int_Tables_number       1
_symmetry_cell_setting            triclinic
loop_
_symmetry_equiv_pos_as_xyz
'x, y, z'
_cell_length_a     31.859838
_cell_length_b     31.879032
_cell_length_c     38.995027
_cell_angle_alpha  89.999683
_cell_angle_beta   90.016117
_cell_angle_gamma 89.982267
loop_
_atom_site_label
_atom_site_type_symbol
_atom_site_fract_x
_atom_site_fract_y
_atom_site_fract_z
_atom_type_partial_charge
Co0 Co 0.17111 0.21129 0.31111 0.0
Co1 Co 0.177 0.30682 0.32708 0.0
C2 C 0.18431 0.24521 0.38368 0.0
O3 O 0.18063 0.21562 0.36199 0.0
O4 O 0.18263 0.28325 0.37401 0.0
C5 C 0.11913 0.14745 0.32578 0.0
O6 O 0.10858 0.17839 0.3463 0.0
C7 C 0.15122 0.38669 0.35648 0.0
C8 C 0.16317 0.43069 0.31401 0.0
C9 C 0.14355 0.42752 0.34569 0.0
N10 N 0.17244 0.36637 0.33173 0.0
N11 N 0.18079 0.39327 0.30689 0.0
C12 C 0.13839 0.36687 0.3897 0.0
H13 H 0.11674 0.34031 0.38476 0.0
H14 H 0.12365 0.3898 0.40737 0.0
H15 H 0.16669 0.35414 0.40248 0.0
C16 C 0.08827 0.2387 0.27996 0.0
N17 N 0.12579 0.24705 0.29517 0.0
N18 N 0.12618 0.28654 0.3049 0.0
C19 C 0.08807 0.30361 0.29763 0.0
C20 C 0.06253 0.27386 0.28186 0.0
C21 C 0.07614 0.19757 0.26437 0.0
H22 H 0.10425 0.17867 0.25801 0.0
H23 H 0.05558 0.18025 0.28241 0.0
H24 H 0.05779 0.20274 0.24057 0.0
O25 O 0.22748 0.22417 0.28934 0.0
O26 O 0.23114 0.29234 0.30143 0.0
H27 H 0.0988 0.36972 0.29607 0.0
H28 H 0.04416 0.35536 0.29516 0.0
C29 C 0.07528 0.34741 0.30618 0.0
H30 H 0.07362 0.35049 0.33436 0.0
H31 H 0.19552 0.38522 0.28392 0.0
O32 O 0.15039 0.15261 0.3058 0.0
C33 C 0.24765 0.25898 0.28892 0.0
Co34 Co 0.33448 0.67151 0.812 0.0
Co35 Co 0.23885 0.67739 0.82647 0.0
C36 C 0.29757 0.68459 0.88415 0.0
O37 O 0.32757 0.68218 0.86262 0.0
O38 O 0.2596 0.68147 0.87431 0.0
C39 C 0.40106 0.6225 0.82934 0.0
O40 O 0.37157 0.61241 0.85138 0.0
C41 C 0.15414 0.65801 0.85013 0.0
C42 C 0.11951 0.66024 0.80119 0.0
C43 C 0.11619 0.64672 0.83495 0.0
N44 N 0.17917 0.67454 0.82591 0.0
N45 N 0.1577 0.67739 0.79707 0.0
C46 C 0.16695 0.65356 0.88689 0.0
H47 H 0.18338 0.68246 0.89522 0.0
H48 H 0.18911 0.62691 0.88963 0.0
H49 H 0.13931 0.64885 0.90376 0.0
C50 C 0.30853 0.58675 0.78394 0.0
N51 N 0.29957 0.62531 0.7969 0.0
N52 N 0.25958 0.62648 0.80512 0.0
C53 C 0.24238 0.58825 0.79855 0.0
C54 C 0.27283 0.56163 0.78495 0.0
C55 C 0.35027 0.57353 0.7701 0.0
H56 H 0.36856 0.60109 0.76135 0.0
H57 H 0.36787 0.55649 0.79029 0.0
H58 H 0.34598 0.55156 0.74828 0.0
O59 O 0.32281 0.7273 0.78846 0.0
O60 O 0.25559 0.73163 0.80295 0.0
H61 H 0.17601 0.5922 0.79213 0.0
H62 H 0.1939 0.54131 0.80571 0.0
C63 C 0.19891 0.57556 0.80859 0.0
H64 H 0.19325 0.58423 0.83567 0.0
H65 H 0.1704 0.68744 0.77381 0.0
O66 O 0.39349 0.6515 0.8077 0.0
C67 C 0.28838 0.74803 0.7896 0.0
Co68 Co 0.8741 0.83356 0.3115 0.0
Co69 Co 0.86659 0.73782 0.32433 0.0
C70 C 0.86088 0.7974 0.38281 0.0
O71 O 0.86461 0.82782 0.36197 0.0
O72 O 0.86203 0.75978 0.37206 0.0
C73 C 0.92324 0.90012 0.32821 0.0
O74 O 0.93379 0.87056 0.35004 0.0
C75 C 0.89594 0.65794 0.3497 0.0
C76 C 0.86695 0.61286 0.31385 0.0
C77 C 0.89582 0.61585 0.34046 0.0
N78 N 0.8694 0.67864 0.32894 0.0
N79 N 0.85117 0.65142 0.30824 0.0
C80 C 0.92471 0.67956 0.37451 0.0
H81 H 0.92775 0.7133 0.36811 0.0
H82 H 0.95636 0.6651 0.37455 0.0
H83 H 0.91144 0.6768 0.40071 0.0
C84 C 0.95774 0.80655 0.28129 0.0
N85 N 0.91961 0.79801 0.29536 0.0
N86 N 0.91731 0.75749 0.30162 0.0
C87 C 0.95424 0.73946 0.29201 0.0
C88 C 0.98143 0.76999 0.27956 0.0
C89 C 0.97238 0.84899 0.27013 0.0
H90 H 0.94549 0.86865 0.26203 0.0
H91 H 0.98935 0.86425 0.29159 0.0
H92 H 0.99466 0.84636 0.24839 0.0
O93 O 0.81734 0.82181 0.28949 0.0
O94 O 0.81267 0.75329 0.29954 0.0
H95 H 0.98753 0.68552 0.27295 0.0
H96 H 0.97698 0.68494 0.31791 0.0
C97 C 0.96368 0.69352 0.29266 0.0
H98 H 0.93494 0.67509 0.28758 0.0
H99 H 0.83017 0.65957 0.28881 0.0
O100 O 0.89404 0.89253 0.30673 0.0
C101 C 0.79664 0.78736 0.28809 0.0
Co102 Co 0.71177 0.37341 0.80965 0.0
Co103 Co 0.80673 0.36763 0.82633 0.0
C104 C 0.74718 0.36182 0.88296 0.0
O105 O 0.71776 0.3638 0.86081 0.0
O106 O 0.78538 0.36454 0.87375 0.0
C107 C 0.64849 0.4261 0.82531 0.0
O108 O 0.6798 0.43638 0.84557 0.0
C109 C 0.89102 0.38745 0.85061 0.0
C110 C 0.92643 0.38411 0.80211 0.0
C111 C 0.92921 0.39838 0.83569 0.0
N112 N 0.86639 0.37034 0.82637 0.0
N113 N 0.88831 0.36687 0.79781 0.0
C114 C 0.87777 0.39239 0.88722 0.0
H115 H 0.86138 0.36353 0.89569 0.0
H116 H 0.85544 0.41895 0.88956 0.0
H117 H 0.90519 0.39748 0.90427 0.0
C118 C 0.73938 0.45644 0.77906 0.0
N119 N 0.74755 0.41861 0.79373 0.0
N120 N 0.7866 0.4184 0.80455 0.0
C121 C 0.80345 0.45697 0.79899 0.0
C122 C 0.77416 0.48253 0.78258 0.0
C123 C 0.69849 0.46874 0.76309 0.0
H124 H 0.67948 0.44071 0.75669 0.0
H125 H 0.68103 0.48946 0.78093 0.0
H126 H 0.70414 0.48695 0.7393 0.0
O127 O 0.72326 0.31721 0.78685 0.0
O128 O 0.79002 0.3131 0.80287 0.0
H129 H 0.87003 0.4521 0.79564 0.0
H130 H 0.85202 0.50395 0.80573 0.0
C131 C 0.84634 0.47008 0.81027 0.0
H132 H 0.85027 0.46325 0.83792 0.0
H133 H 0.87598 0.3563 0.77457 0.0
O134 O 0.65318 0.39485 0.80524 0.0
C135 C 0.75767 0.29654 0.78888 0.0
Co136 Co 0.67095 0.33285 0.20541 0.0
Co137 Co 0.67684 0.23733 0.18938 0.0
C138 C 0.68349 0.29896 0.13275 0.0
O139 O 0.68004 0.32853 0.15449 0.0
O140 O 0.68199 0.26091 0.14241 0.0
C141 C 0.61897 0.39684 0.19091 0.0
O142 O 0.60827 0.36595 0.17039 0.0
C143 C 0.65108 0.15739 0.16006 0.0
C144 C 0.66304 0.11349 0.20261 0.0
C145 C 0.64341 0.1166 0.17093 0.0
N146 N 0.67231 0.17776 0.18479 0.0
N147 N 0.68067 0.15092 0.20967 0.0
C148 C 0.63825 0.17713 0.12681 0.0
H149 H 0.61658 0.20371 0.13169 0.0
H150 H 0.62352 0.15415 0.10917 0.0
H151 H 0.66656 0.1898 0.11403 0.0
C152 C 0.58823 0.30544 0.23669 0.0
N153 N 0.62574 0.29709 0.22148 0.0
N154 N 0.62613 0.2576 0.21173 0.0
C155 C 0.58803 0.24053 0.21901 0.0
C156 C 0.5625 0.27028 0.23479 0.0
C157 C 0.57606 0.3466 0.25223 0.0
H158 H 0.60417 0.36548 0.25862 0.0
H159 H 0.55555 0.36391 0.23412 0.0
H160 H 0.55767 0.34147 0.276 0.0
O161 O 0.72746 0.31997 0.227 0.0
O162 O 0.73113 0.25183 0.21485 0.0
H163 H 0.54408 0.18884 0.22134 0.0
H164 H 0.57362 0.19374 0.18219 0.0
C165 C 0.57523 0.19677 0.21038 0.0
H166 H 0.59871 0.17442 0.22051 0.0
H167 H 0.6954 0.15901 0.23264 0.0
O168 O 0.65028 0.39154 0.21083 0.0
C169 C 0.74767 0.28518 0.22734 0.0
Co170 Co 0.21235 0.17054 0.7061 0.0
Co171 Co 0.30769 0.17704 0.69104 0.0
C172 C 0.24686 0.18272 0.63381 0.0
O173 O 0.21705 0.18088 0.65544 0.0
O174 O 0.28477 0.17984 0.64367 0.0
C175 C 0.1468 0.12028 0.68976 0.0
O176 O 0.17693 0.11036 0.66824 0.0
C177 C 0.38741 0.14776 0.66536 0.0
C178 C 0.43283 0.17814 0.70016 0.0
C179 C 0.42966 0.14851 0.67415 0.0
N180 N 0.36681 0.17468 0.68581 0.0
N181 N 0.39421 0.19375 0.70585 0.0
C182 C 0.36565 0.11803 0.64141 0.0
H183 H 0.33203 0.11487 0.64825 0.0
H184 H 0.38044 0.08656 0.64188 0.0
H185 H 0.36785 0.13049 0.6149 0.0
C186 C 0.23976 0.0863 0.73497 0.0
N187 N 0.24814 0.12461 0.72126 0.0
N188 N 0.28872 0.12713 0.71524 0.0
C189 C 0.30707 0.09057 0.72541 0.0
C190 C 0.27647 0.06299 0.73727 0.0
C191 C 0.19778 0.07177 0.7474 0.0
H192 H 0.17829 0.09869 0.75569 0.0
H193 H 0.1818 0.05424 0.72661 0.0
H194 H 0.20158 0.04986 0.76932 0.0
O195 O 0.22495 0.22688 0.72922 0.0
O196 O 0.29214 0.23166 0.71426 0.0
H197 H 0.36199 0.05837 0.74413 0.0
H198 H 0.36086 0.06702 0.69896 0.0
C199 C 0.35306 0.08129 0.72403 0.0
H200 H 0.3715 0.11027 0.72794 0.0
H201 H 0.38617 0.21521 0.72496 0.0
O202 O 0.15337 0.14999 0.71102 0.0
C203 C 0.25933 0.24779 0.72784 0.0
Co204 Co 0.37407 0.71092 0.20569 0.0
Co205 Co 0.36646 0.80658 0.19244 0.0
C206 C 0.36048 0.74663 0.13424 0.0
O207 O 0.36434 0.71638 0.15523 0.0
O208 O 0.3617 0.78434 0.1448 0.0
C209 C 0.42343 0.64457 0.18913 0.0
O210 O 0.43391 0.67423 0.16738 0.0
C211 C 0.39568 0.88638 0.16685 0.0
C212 C 0.3667 0.93155 0.20263 0.0
C213 C 0.39556 0.9285 0.17603 0.0
N214 N 0.36917 0.86574 0.18764 0.0
N215 N 0.35093 0.89301 0.20829 0.0
C216 C 0.42443 0.8647 0.14206 0.0
H217 H 0.42744 0.83096 0.14848 0.0
H218 H 0.45608 0.87912 0.14202 0.0
H219 H 0.41115 0.86746 0.11585 0.0
C220 C 0.4577 0.73814 0.2358 0.0
N221 N 0.41958 0.74659 0.22166 0.0
N222 N 0.41727 0.78705 0.21518 0.0
C223 C 0.4542 0.80514 0.2247 0.0
C224 C 0.4814 0.7747 0.23733 0.0
C225 C 0.4723 0.69578 0.24723 0.0
H226 H 0.44538 0.67615 0.25527 0.0
H227 H 0.48947 0.68039 0.22594 0.0
H228 H 0.49441 0.69855 0.26908 0.0
O229 O 0.31737 0.72276 0.22775 0.0
O230 O 0.31263 0.7912 0.21736 0.0
H231 H 0.43485 0.86952 0.22891 0.0
H232 H 0.48746 0.85919 0.24356 0.0
C233 C 0.46359 0.85108 0.22389 0.0
H234 H 0.47686 0.85953 0.1986 0.0
H235 H 0.32996 0.88491 0.22774 0.0
O236 O 0.39413 0.65201 0.21055 0.0
C237 C 0.29665 0.75722 0.229 0.0
Co238 Co 0.83418 0.87325 0.70499 0.0
Co239 Co 0.73804 0.86687 0.6905 0.0
C240 C 0.79932 0.85847 0.63328 0.0
O241 O 0.82932 0.86238 0.65455 0.0
O242 O 0.76141 0.8606 0.64336 0.0
C243 C 0.90015 0.92291 0.68876 0.0
O244 O 0.87031 0.93284 0.66697 0.0
C245 C 0.65798 0.89221 0.66116 0.0
C246 C 0.61416 0.88091 0.70388 0.0
C247 C 0.61723 0.90014 0.67204 0.0
N248 N 0.67841 0.87131 0.68604 0.0
N249 N 0.6516 0.86329 0.71102 0.0
C250 C 0.67773 0.90477 0.62786 0.0
H251 H 0.70417 0.92665 0.63266 0.0
H252 H 0.6547 0.91916 0.61007 0.0
H253 H 0.69061 0.87642 0.61529 0.0
C254 C 0.80749 0.95778 0.73321 0.0
N255 N 0.79877 0.91941 0.71976 0.0
N256 N 0.75851 0.91776 0.71238 0.0
C257 C 0.74085 0.95535 0.72051 0.0
C258 C 0.7714 0.98226 0.73351 0.0
C259 C 0.84918 0.9713 0.74698 0.0
H260 H 0.86784 0.94388 0.75548 0.0
H261 H 0.86637 0.98888 0.72688 0.0
H262 H 0.8448 0.99292 0.76902 0.0
O263 O 0.82097 0.81733 0.72784 0.0
O264 O 0.75263 0.81334 0.71639 0.0
H265 H 0.67512 0.94371 0.72545 0.0
H266 H 0.68843 0.99862 0.72328 0.0
C267 C 0.6963 0.96695 0.71343 0.0
H268 H 0.69134 0.96676 0.68541 0.0
H269 H 0.65974 0.84885 0.7341 0.0
O270 O 0.89321 0.89339 0.7101 0.0
C271 C 0.78616 0.79712 0.7288 0.0
C272 C 0.94529 0.56045 0.32122 0.0
C273 C 0.92875 0.58447 0.34811 0.0
C274 C 0.98055 0.535 0.32619 0.0
C275 C 0.99986 0.5336 0.35887 0.0
C276 C 0.98221 0.55621 0.38656 0.0
C277 C 0.94645 0.58108 0.38092 0.0
C278 C 0.9979 0.51064 0.29611 0.0
C279 C 1.00181 0.55513 0.42178 0.0
C280 C 0.07089 0.43965 0.36788 0.0
C281 C 0.1096 0.45608 0.35713 0.0
C282 C 0.03544 0.46525 0.37122 0.0
C283 C 0.03864 0.5084 0.36344 0.0
C284 C 0.0782 0.52584 0.35495 0.0
C285 C 0.1132 0.49935 0.35162 0.0
C286 C 0.9938 0.44522 0.37993 0.0
C287 C 0.0829 0.5719 0.34683 0.0
H288 H 0.93173 0.56286 0.2958 0.0
H289 H 0.93299 0.59867 0.40199 0.0
H290 H 0.03001 0.52185 0.29001 0.0
H291 H 1.00031 0.47686 0.30267 0.0
H292 H 0.97815 0.51386 0.27278 0.0
H293 H 0.98324 0.5731 0.4409 0.0
H294 H 1.0049 0.52226 0.43078 0.0
H295 H 0.03392 0.56854 0.42063 0.0
H296 H 0.06708 0.40628 0.37133 0.0
H297 H 0.14295 0.51218 0.3431 0.0
H298 H 0.97455 0.44262 0.35631 0.0
H299 H 0.97604 0.46472 0.39848 0.0
H300 H 0.99777 0.41328 0.39088 0.0
H301 H 0.0682 0.57866 0.32163 0.0
H302 H 0.11636 0.58161 0.34571 0.0
H303 H 0.06652 0.59128 0.36632 0.0
C304 C 0.94821 0.4632 0.86937 0.0
C305 C 0.95981 0.43093 0.84667 0.0
C306 C 0.97393 0.49831 0.87441 0.0
C307 C 1.01082 0.50268 0.85466 0.0
C308 C 0.02355 0.46982 0.83256 0.0
C309 C 0.99831 0.43401 0.8294 0.0
C310 C 0.96024 0.53182 0.8994 0.0
C311 C 0.06223 0.47371 0.81036 0.0
C312 C 0.04709 0.61113 0.8285 0.0
C313 C 0.08537 0.61446 0.84607 0.0
C314 C 1.02171 0.57545 0.8319 0.0
C315 C 0.03408 0.543 0.85454 0.0
C316 C 0.07071 0.54768 0.87457 0.0
C317 C 0.09659 0.58262 0.8693 0.0
C318 C 0.98332 0.57122 0.80941 0.0
C319 C 0.08397 0.51463 0.90013 0.0
H320 H 0.91796 0.46296 0.88175 0.0
H321 H 1.00749 0.40949 0.81166 0.0
H322 H 0.98748 0.54411 0.91403 0.0
H323 H 0.94611 0.55843 0.88518 0.0
H324 H 0.93652 0.51981 0.91782 0.0
H325 H 0.0683 0.4449 0.79511 0.0
H326 H 0.05842 0.5005 0.79244 0.0
H327 H 0.09022 0.48026 0.82637 0.0
H328 H 0.0382 0.63533 0.81034 0.0
H329 H 0.12668 0.58302 0.88194 0.0
H330 H 0.95512 0.56491 0.82523 0.0
H331 H 0.98736 0.54415 0.7918 0.0
H332 H 0.97744 0.59978 0.7938 0.0
H333 H 0.05652 0.50284 0.91475 0.0
H334 H 0.1076 0.52689 0.91854 0.0
H335 H 0.09805 0.48762 0.88639 0.0
C336 C 0.44629 0.96316 0.13563 0.0
C337 C 0.42853 0.95982 0.16841 0.0
C338 C 0.48206 0.98799 0.13002 0.0
C339 C 0.49969 1.0106 0.15773 0.0
C340 C 0.48033 1.00924 0.19038 0.0
C341 C 0.44505 0.98384 0.19531 0.0
C342 C 0.50172 0.98903 0.09483 0.0
C343 C 0.49766 0.0336 0.22048 0.0
C344 C 0.61303 0.04478 0.16508 0.0
C345 C 0.60944 0.08805 0.15953 0.0
C346 C 0.57802 1.01832 0.16174 0.0
C347 C 0.53847 0.03578 0.1532 0.0
C348 C 0.53528 0.07893 0.1454 0.0
C349 C 0.57073 0.1045 0.14874 0.0
C350 C 0.58271 0.97226 0.16989 0.0
C351 C 0.49365 0.09897 0.13664 0.0
H352 H 0.43285 0.94557 0.11455 0.0
H353 H 0.43145 0.98146 0.22072 0.0
H354 H 0.50472 1.02189 0.08579 0.0
H355 H 0.53386 0.9757 0.09605 0.0
H356 H 0.48323 0.97098 0.07571 0.0
H357 H 0.47787 0.0304 0.24379 0.0
H358 H 0.52975 1.02237 0.22662 0.0
H359 H 0.50006 0.06738 0.21391 0.0
H360 H 0.64277 0.03195 0.17362 0.0
H361 H 0.56693 0.13787 0.14527 0.0
H362 H 0.56636 0.95287 0.1504 0.0
H363 H 0.56798 0.96554 0.19509 0.0
H364 H 0.61617 0.96254 0.17107 0.0
H365 H 0.4759 0.07948 0.11808 0.0
H366 H 0.49762 0.13091 0.12569 0.0
H367 H 0.47437 0.10159 0.16024 0.0
C368 C 0.60531 0.97251 0.6492 0.0
C369 C 0.58875 0.93406 0.66041 0.0
C370 C 0.57982 1.00795 0.64544 0.0
C371 C 0.53666 1.00504 0.65332 0.0
C372 C 0.51909 0.96575 0.66237 0.0
C373 C 0.54547 0.93073 0.66607 0.0
C374 C 0.59997 0.04931 0.63612 0.0
C375 C 0.47301 0.96139 0.67065 0.0
C376 C 0.48508 0.09952 0.69409 0.0
C377 C 0.46105 0.11547 0.66697 0.0
C378 C 0.51036 0.06405 0.68967 0.0
C379 C 0.51159 0.04397 0.65731 0.0
C380 C 0.48899 0.06104 0.62936 0.0
C381 C 0.46427 0.09699 0.63445 0.0
C382 C 0.53471 0.0473 0.72 0.0
C383 C 0.48993 0.04062 0.59445 0.0
H384 H 0.63871 0.97617 0.64568 0.0
H385 H 0.53254 0.9012 0.67495 0.0
H386 H 0.5805 0.06671 0.61732 0.0
H387 H 0.60263 0.06907 0.65945 0.0
H388 H 0.63191 0.04504 0.62523 0.0
H389 H 0.4632 0.92802 0.67236 0.0
H390 H 0.46637 0.97674 0.69561 0.0
H391 H 0.45362 0.97732 0.65093 0.0
H392 H 0.48276 0.11367 0.7193 0.0
H393 H 0.44658 0.10996 0.61322 0.0
H394 H 0.5685 0.04464 0.71347 0.0
H395 H 0.52339 1.01539 0.7266 0.0
H396 H 0.53157 0.06757 0.74303 0.0
H397 H 0.52279 0.03719 0.58548 0.0
H398 H 0.472 0.0588 0.57506 0.0
H399 H 0.47637 1.00863 0.59613 0.0
C400 C 0.48753 0.26166 0.21495 0.0
C401 C 0.51615 0.26773 0.2419 0.0
C402 C 0.44372 0.26025 0.22083 0.0
C403 C 0.42768 0.26426 0.25466 0.0
C404 C 0.45665 0.26988 0.28202 0.0
C405 C 0.50029 0.27187 0.2753 0.0
C406 C 0.41452 0.25491 0.19068 0.0
C407 C 0.44154 0.27359 0.31856 0.0
C408 C 0.31327 0.29837 0.27067 0.0
C409 C 0.29275 0.26005 0.27705 0.0
C410 C 0.35657 0.30008 0.26259 0.0
C411 C 0.3808 0.2627 0.26145 0.0
C412 C 0.36018 0.22389 0.26746 0.0
C413 C 0.31666 0.223 0.27483 0.0
C414 C 0.37656 0.34216 0.25568 0.0
C415 C 0.38441 0.1832 0.26709 0.0
H416 H 0.4995 0.25863 0.18905 0.0
H417 H 0.52214 0.27619 0.29631 0.0
H418 H 0.39542 0.22611 0.19395 0.0
H419 H 0.39243 0.28179 0.18939 0.0
H420 H 0.4317 0.25277 0.16595 0.0
H421 H 0.46786 0.27681 0.33706 0.0
H422 H 0.42066 0.30126 0.32116 0.0
H423 H 0.42283 0.2455 0.32553 0.0
H424 H 0.29549 0.32729 0.27224 0.0
H425 H 0.30165 0.19318 0.28002 0.0
H426 H 0.39284 0.34167 0.23053 0.0
H427 H 0.40058 0.34889 0.27553 0.0
H428 H 0.35325 0.36808 0.25561 0.0
H429 H 0.4004 0.1791 0.24206 0.0
H430 H 0.36395 0.15556 0.27173 0.0
H431 H 0.40914 0.18398 0.28713 0.0
C432 C 0.30294 1.00091 0.77186 0.0
C433 C 0.28018 1.01667 0.74387 0.0
C434 C 0.30539 0.95726 0.77839 0.0
C435 C 0.28512 0.92828 0.75615 0.0
C436 C 0.26261 0.94424 0.72755 0.0
C437 C 0.26008 0.988 0.72202 0.0
C438 C 0.32898 0.94219 0.80959 0.0
C439 C 0.24095 0.91505 0.70275 0.0
C440 C 0.31914 0.81206 0.75939 0.0
C441 C 0.28693 0.79351 0.77886 0.0
C442 C 0.31868 0.85546 0.75133 0.0
C443 C 0.28578 0.8816 0.76362 0.0
C444 C 0.25325 0.86298 0.78324 0.0
C445 C 0.25399 0.81951 0.79023 0.0
C446 C 0.35355 0.87342 0.72968 0.0
C447 C 0.21787 0.88922 0.79752 0.0
H448 H 0.31816 0.02284 0.78908 0.0
H449 H 0.24249 0.99992 0.70029 0.0
H450 H 0.30731 0.92501 0.82688 0.0
H451 H 0.35401 0.91993 0.80188 0.0
H452 H 0.3435 0.96841 0.82414 0.0
H453 H 0.22672 0.93208 0.68077 0.0
H454 H 0.26366 0.89168 0.69271 0.0
H455 H 0.21584 0.89743 0.71618 0.0
H456 H 0.34481 0.79265 0.75042 0.0
H457 H 0.22905 0.80607 0.8056 0.0
H458 H 0.37111 0.89733 0.74454 0.0
H459 H 0.34019 0.88942 0.70687 0.0
H460 H 0.37593 0.84895 0.72089 0.0
H461 H 0.23077 0.91434 0.81417 0.0
H462 H 0.19525 0.87033 0.81272 0.0
H463 H 0.20061 0.90478 0.77635 0.0
C464 C 0.55532 0.789 0.2175 0.0
C465 C 0.52764 0.77878 0.24423 0.0
C466 C 0.5992 0.79109 0.22284 0.0
C467 C 0.61618 0.78371 0.25598 0.0
C468 C 0.58808 0.77428 0.28324 0.0
C469 C 0.54438 0.77155 0.27698 0.0
C470 C 0.62748 0.80043 0.19277 0.0
C471 C 0.60421 0.76702 0.31913 0.0
C472 C 0.73121 0.74952 0.26771 0.0
C473 C 0.75148 0.78725 0.27649 0.0
C474 C 0.68779 0.74816 0.26013 0.0
C475 C 0.66317 0.78523 0.26206 0.0
C476 C 0.68353 0.82352 0.27048 0.0
C477 C 0.72722 0.82414 0.2772 0.0
C478 C 0.66812 0.70675 0.25049 0.0
C479 C 0.65885 0.86376 0.27348 0.0
H480 H 0.54262 0.79448 0.1921 0.0
H481 H 0.52319 0.76398 0.29782 0.0
H482 H 0.64628 0.82901 0.19796 0.0
H483 H 0.64989 0.77417 0.18901 0.0
H484 H 0.6096 0.80518 0.16861 0.0
H485 H 0.57841 0.76179 0.3378 0.0
H486 H 0.62524 0.7393 0.31949 0.0
H487 H 0.623 0.79441 0.32765 0.0
H488 H 0.74932 0.72074 0.26702 0.0
H489 H 0.74208 0.85344 0.28432 0.0
H490 H 0.65104 0.7098 0.22581 0.0
H491 H 0.64482 0.69746 0.27022 0.0
H492 H 0.69173 0.68128 0.24803 0.0
H493 H 0.64208 0.87033 0.24914 0.0
H494 H 0.67913 0.89106 0.27972 0.0
H495 H 0.63472 0.86049 0.29382 0.0
C496 C 0.72952 0.23314 0.75619 0.0
C497 C 0.75962 0.2511 0.77812 0.0
C498 C 0.73063 0.1899 0.74759 0.0
C499 C 0.76188 0.16328 0.76191 0.0
C500 C 0.79217 0.18127 0.78415 0.0
C501 C 0.79099 0.22464 0.79157 0.0
C502 C 0.69828 0.17268 0.7231 0.0
C503 C 0.82555 0.15447 0.80077 0.0
C504 C 0.74231 0.04406 0.76683 0.0
C505 C 0.76819 0.02853 0.74063 0.0
C506 C 0.7398 0.08757 0.77392 0.0
C507 C 0.76305 0.11672 0.7539 0.0
C508 C 0.78871 0.10102 0.72701 0.0
C509 C 0.79134 0.05733 0.72103 0.0
C510 C 0.71284 0.10228 0.80335 0.0
C511 C 0.81348 0.13043 0.70445 0.0
H512 H 0.70511 0.25294 0.74557 0.0
H513 H 0.81423 0.23765 0.80886 0.0
H514 H 0.7141 0.15697 0.70123 0.0
H515 H 0.67888 0.14866 0.73621 0.0
H516 H 0.67721 0.19751 0.71293 0.0
H517 H 0.84635 0.17286 0.81799 0.0
H518 H 0.81061 0.12906 0.81591 0.0
H519 H 0.84518 0.13928 0.78083 0.0
H520 H 0.72451 1.02202 0.7822 0.0
H521 H 0.81124 0.04561 0.70062 0.0
H522 H 0.68876 0.12465 0.79397 0.0
H523 H 0.73248 0.11925 0.82233 0.0
H524 H 0.69675 0.07591 0.81653 0.0
H525 H 0.79225 0.15418 0.69294 0.0
H526 H 0.83011 0.11365 0.6835 0.0
H527 H 0.837 0.14758 0.72003 0.0
C528 C 1.00038 0.27238 0.24123 0.0
C529 C 1.01618 0.27645 0.27467 0.0
C530 C 0.95676 0.27438 0.23444 0.0
C531 C 0.92772 0.27993 0.26175 0.0
C532 C 0.9437 0.28389 0.29562 0.0
C533 C 0.9875 0.28248 0.30157 0.0
C534 C 0.94172 0.27073 0.19787 0.0
C535 C 0.91444 0.28916 0.32573 0.0
C536 C 0.81667 0.32116 0.24148 0.0
C537 C 0.7928 0.2841 0.23918 0.0
C538 C 0.86019 0.32029 0.24889 0.0
C539 C 0.88085 0.28148 0.25488 0.0
C540 C 0.85667 0.24408 0.25366 0.0
C541 C 0.81337 0.24579 0.24553 0.0
C542 C 0.88436 0.36099 0.24935 0.0
C543 C 0.87669 0.20201 0.26054 0.0
H544 H 1.02228 0.26809 0.22026 0.0
H545 H 0.99942 0.28547 0.3275 0.0
H546 H 0.92088 0.24305 0.19519 0.0
H547 H 0.92298 0.29882 0.1909 0.0
H548 H 0.96808 0.26757 0.17941 0.0
H549 H 0.93157 0.29127 0.35048 0.0
H550 H 0.89531 0.31795 0.32245 0.0
H551 H 0.89238 0.26226 0.32694 0.0
H552 H 0.80162 0.35099 0.23632 0.0
H553 H 0.79562 0.21686 0.24391 0.0
H554 H 0.90914 0.36025 0.22937 0.0
H555 H 0.90028 0.36506 0.27442 0.0
H556 H 0.86388 0.38862 0.24469 0.0
H557 H 0.90077 0.19534 0.24074 0.0
H558 H 0.85342 0.17607 0.26052 0.0
H559 H 0.89291 0.20245 0.28573 0.0
C560 C 0.24129 0.49977 0.75335 0.0
C561 C 0.26967 0.51536 0.77776 0.0
C562 C 0.23859 0.45633 0.74607 0.0
C563 C 0.26407 0.42722 0.76426 0.0
C564 C 0.29212 0.44293 0.78952 0.0
C565 C 0.29496 0.4866 0.79558 0.0
C566 C 0.20907 0.44167 0.7183 0.0
C567 C 0.31922 0.41354 0.81025 0.0
C568 C 0.23217 0.31026 0.76236 0.0
C569 C 0.26083 0.29318 0.73874 0.0
C570 C 0.23331 0.35338 0.77143 0.0
C571 C 0.26287 0.38078 0.75576 0.0
C572 C 0.2915 0.36368 0.73166 0.0
C573 C 0.29052 0.3204 0.72391 0.0
C574 C 0.20294 0.3696 0.79797 0.0
C575 C 0.32283 0.39133 0.71342 0.0
H576 H 0.22171 0.52176 0.73943 0.0
H577 H 0.31665 0.4983 0.81474 0.0
H578 H 0.22703 0.42513 0.69801 0.0
H579 H 0.18617 0.41896 0.72896 0.0
H580 H 0.19152 0.46803 0.70638 0.0
H581 H 0.33729 0.43022 0.83045 0.0
H582 H 0.29944 0.38919 0.8226 0.0
H583 H 0.34168 0.39711 0.79317 0.0
H584 H 0.20908 0.28982 0.77406 0.0
H585 H 0.31255 0.30805 0.70529 0.0
H586 H 0.18195 0.39344 0.78634 0.0
H587 H 0.22039 0.38527 0.81902 0.0
H588 H 0.18332 0.34421 0.80907 0.0
H589 H 0.30616 0.41692 0.69973 0.0
H590 H 0.34211 0.37365 0.69459 0.0
H591 H 0.34415 0.40626 0.7323 0.0
C592 C 0.05538 0.75609 0.29953 0.0
C593 C 0.02767 0.76596 0.27272 0.0
C594 C 0.09925 0.75402 0.29423 0.0
C595 C 0.11621 0.76105 0.26103 0.0
C596 C 0.08808 0.77014 0.2337 0.0
C597 C 0.04438 0.77288 0.23993 0.0
C598 C 0.12757 0.74508 0.32438 0.0
C599 C 0.10418 0.77702 0.19776 0.0
C600 C 0.23118 0.79522 0.24908 0.0
C601 C 0.2515 0.75741 0.2406 0.0
C602 C 0.18776 0.79662 0.25663 0.0
C603 C 0.1632 0.75951 0.25497 0.0
C604 C 0.18361 0.72115 0.24687 0.0
C605 C 0.2273 0.72049 0.24016 0.0
C606 C 0.16801 0.83813 0.26594 0.0
C607 C 0.159 0.68084 0.24417 0.0
H608 H 0.04269 0.75086 0.32497 0.0
H609 H 0.02316 0.78023 0.21904 0.0
H610 H 0.1464 0.71645 0.31943 0.0
H611 H 0.14995 0.7714 0.32792 0.0
H612 H 0.10971 0.74062 0.34857 0.0
H613 H 0.07836 0.78199 0.17904 0.0
H614 H 0.12516 0.80477 0.19719 0.0
H615 H 0.12304 0.74956 0.18945 0.0
H616 H 0.24924 0.82402 0.24956 0.0
H617 H 0.24221 0.69112 0.23327 0.0
H618 H 0.15094 0.83535 0.29064 0.0
H619 H 0.14471 0.84716 0.24613 0.0
H620 H 0.19159 0.86365 0.26821 0.0
H621 H 0.14225 0.67454 0.26856 0.0
H622 H 0.17932 0.6535 0.23814 0.0
H623 H 0.13485 0.68386 0.2238 0.0
C624 C 0.74668 0.73149 0.74661 0.0
C625 C 0.78513 0.75221 0.74108 0.0
C626 C 0.74488 0.68824 0.75466 0.0
C627 C 0.78235 0.66425 0.75682 0.0
C628 C 0.8213 0.68508 0.75188 0.0
C629 C 0.82223 0.72855 0.74435 0.0
C630 C 0.70262 0.668 0.76029 0.0
C631 C 0.86211 0.66112 0.75355 0.0
C632 C 0.78107 0.55743 0.80305 0.0
C633 C 0.77667 0.52893 0.77581 0.0
C634 C 0.78284 0.60123 0.79734 0.0
C635 C 0.78068 0.61738 0.76343 0.0
C636 C 0.77651 0.58855 0.73582 0.0
C637 C 0.77427 0.54491 0.74235 0.0
C638 C 0.78665 0.63029 0.82771 0.0
C639 C 0.77455 0.60382 0.69923 0.0
H640 H 0.71769 0.74905 0.74422 0.0
H641 H 0.85217 0.74372 0.73988 0.0
H642 H 0.6969 0.64403 0.74021 0.0
H643 H 0.70207 0.65165 0.7854 0.0
H644 H 0.67655 0.69114 0.75962 0.0
H645 H 0.88985 0.68178 0.75001 0.0
H646 H 0.86499 0.64491 0.77861 0.0
H647 H 0.86254 0.6366 0.73335 0.0
H648 H 0.78265 0.54536 0.82901 0.0
H649 H 0.77112 0.52315 0.72115 0.0
H650 H 0.75962 0.65224 0.82822 0.0
H651 H 0.81551 0.64953 0.82538 0.0
H652 H 0.78773 0.61302 0.85244 0.0
H653 H 0.74701 0.62469 0.69579 0.0
H654 H 0.77224 0.5776 0.68057 0.0
H655 H 0.80296 0.62256 0.69323 0.0
C656 C 0.19912 0.26711 0.44452 0.0
C657 C 0.19188 0.23507 0.42052 0.0
C658 C 0.20754 0.25793 0.47913 0.0
C659 C 0.20895 0.21563 0.4902 0.0
C660 C 0.20139 0.18312 0.46622 0.0
C661 C 0.19293 0.19319 0.43176 0.0
C662 C 0.21526 0.29358 0.50383 0.0
C663 C 0.20255 0.13761 0.47691 0.0
C664 C 0.26948 0.19201 0.57241 0.0
C665 C 0.23715 0.18944 0.59681 0.0
C666 C 0.26072 0.19994 0.53763 0.0
C667 C 0.2186 0.20551 0.52683 0.0
C668 C 0.1858 0.20232 0.55119 0.0
C669 C 0.19543 0.1943 0.58579 0.0
C670 C 0.29662 0.2029 0.51249 0.0
C671 C 0.14049 0.20798 0.5408 0.0
H672 H 0.19867 0.29952 0.43625 0.0
H673 H 0.18738 0.1681 0.41355 0.0
H674 H 0.1926 0.29195 0.52538 0.0
H675 H 0.24719 0.29082 0.51497 0.0
H676 H 0.21233 0.32477 0.49135 0.0
H677 H 0.19551 0.11604 0.45529 0.0
H678 H 0.23402 0.12976 0.48728 0.0
H679 H 0.17947 0.13195 0.4977 0.0
H680 H 0.3018 0.18819 0.58052 0.0
H681 H 0.17013 0.1923 0.60429 0.0
H682 H 0.29742 0.23469 0.50092 0.0
H683 H 0.292 0.18016 0.49128 0.0
H684 H 0.32748 0.19661 0.52474 0.0
H685 H 0.13576 0.23997 0.53027 0.0
H686 H 0.11856 0.20341 0.56263 0.0
H687 H 0.13223 0.18541 0.52023 0.0
C688 C 0.3498 0.69581 0.08577 0.0
C689 C 0.35314 0.73747 0.09724 0.0
C690 C 0.34128 0.68648 0.05123 0.0
C691 C 0.33601 0.71953 0.02735 0.0
C692 C 0.33989 0.76163 0.0386 0.0
C693 C 0.34837 0.7701 0.07335 0.0
C694 C 0.33749 0.64117 0.04035 0.0
C695 C 0.33471 0.79778 0.01396 0.0
C696 C 0.34912 0.69562 0.93215 0.0
C697 C 0.30729 0.69237 0.92101 0.0
C698 C 0.35889 0.70435 0.9666 0.0
C699 C 0.32611 0.71001 0.99068 0.0
C700 C 0.28385 0.70642 0.97972 0.0
C701 C 0.27496 0.69764 0.94511 0.0
C702 C 0.40436 0.70773 0.97718 0.0
C703 C 0.24795 0.71209 1.00457 0.0
H704 H 0.35347 0.67028 0.10389 0.0
H705 H 0.35096 0.80237 0.08183 0.0
H706 H 0.30568 0.63526 0.02983 0.0
H707 H 0.36034 0.63423 0.01964 0.0
H708 H 0.3431 0.61909 0.06191 0.0
H709 H 0.33939 0.82867 0.02658 0.0
H710 H 0.35752 0.79482 0.9926 0.0
H711 H 0.30283 0.79704 1.00253 0.0
H712 H 0.37443 0.69155 0.91388 0.0
H713 H 0.24256 0.69524 0.93692 0.0
H714 H 0.41135 0.68462 0.99768 0.0
H715 H 0.4106 0.73936 0.9879 0.0
H716 H 0.42618 0.7022 0.95543 0.0
H717 H 0.25068 0.6891 0.02581 0.0
H718 H 0.21687 0.70803 0.99209 0.0
H719 H 0.24933 0.74386 0.01613 0.0
C720 C 0.85076 0.84803 0.5851 0.0
C721 C 0.80895 0.85028 0.59646 0.0
C722 C 0.86045 0.83927 0.55064 0.0
C723 C 0.82762 0.83272 0.52675 0.0
C724 C 0.78539 0.8352 0.53794 0.0
C725 C 0.77659 0.8438 0.57258 0.0
C726 C 0.9059 0.83688 0.53983 0.0
C727 C 0.74942 0.82865 0.51329 0.0
C728 C 0.84987 0.84779 0.43153 0.0
C729 C 0.85385 0.80626 0.4199 0.0
C730 C 0.84164 0.85681 0.46617 0.0
C731 C 0.8374 0.82356 0.49 0.0
C732 C 0.84199 0.78159 0.47859 0.0
C733 C 0.85009 0.77344 0.44373 0.0
C734 C 0.83698 0.90198 0.4772 0.0
C735 C 0.83797 0.74524 0.50318 0.0
H736 H 0.8761 0.85293 0.6032 0.0
H737 H 0.74423 0.84517 0.58094 0.0
H738 H 0.91271 0.80549 0.52888 0.0
H739 H 0.91226 0.86032 0.51946 0.0
H740 H 0.92777 0.84264 0.56152 0.0
H741 H 0.71836 0.832 0.52592 0.0
H742 H 0.75141 0.85167 0.49201 0.0
H743 H 0.75146 0.79691 0.50174 0.0
H744 H 0.85274 0.87346 0.41346 0.0
H745 H 0.85322 0.74126 0.43513 0.0
H746 H 0.85989 0.90933 0.49777 0.0
H747 H 0.80516 0.90715 0.48797 0.0
H748 H 0.84185 0.92426 0.45566 0.0
H749 H 0.86086 0.74871 0.52443 0.0
H750 H 0.84334 0.71452 0.49046 0.0
H751 H 0.80617 0.74512 0.51476 0.0
C752 C 0.69161 0.35107 0.08469 0.0
C753 C 0.69052 0.30917 0.09586 0.0
C754 C 0.69973 0.36121 0.05019 0.0
C755 C 0.7069 0.32873 0.0261 0.0
C756 C 0.70526 0.28639 0.03707 0.0
C757 C 0.69721 0.27716 0.07172 0.0
C758 C 0.70117 0.40674 0.03961 0.0
C759 C 0.71257 0.25078 0.01225 0.0
C760 C 0.69479 0.35062 0.93041 0.0
C761 C 0.73671 0.3551 0.91983 0.0
C762 C 0.6846 0.34258 0.9649 0.0
C763 C 0.71703 0.33893 0.98958 0.0
C764 C 0.75933 0.34409 0.97921 0.0
C765 C 0.76864 0.35208 0.94456 0.0
C766 C 0.6391 0.33738 0.97486 0.0
C767 C 0.79488 0.34061 1.00467 0.0
H768 H 0.68646 0.37614 0.10299 0.0
H769 H 0.69667 0.24473 0.07992 0.0
H770 H 0.73284 0.41451 0.02962 0.0
H771 H 0.67845 0.41257 0.01858 0.0
H772 H 0.69386 0.42826 0.06121 0.0
H773 H 0.709 0.21956 0.02458 0.0
H774 H 0.69014 0.25294 0.99056 0.0
H775 H 0.74465 0.25305 1.00135 0.0
H776 H 0.6698 0.35297 0.91164 0.0
H777 H 0.8011 0.35558 0.93684 0.0
H778 H 0.63083 0.35989 0.99547 0.0
H779 H 0.63389 0.30537 0.98518 0.0
H780 H 0.61751 0.34238 0.95286 0.0
H781 H 0.79025 0.36332 0.02589 0.0
H782 H 0.82597 0.34657 0.99272 0.0
H783 H 0.79518 0.30877 0.01615 0.0
C784 C 0.94568 0.96652 0.29854 0.0
C785 C 0.95009 0.93786 0.32558 0.0
C786 C 0.97348 1.00056 0.29515 0.0
C787 C 1.00631 1.00578 0.3193 0.0
C788 C 1.01086 0.97685 0.34652 0.0
C789 C 0.98265 0.94345 0.34939 0.0
C790 C 0.96757 0.0311 0.26597 0.0
C791 C 0.0453 0.9814 0.37293 0.0
C792 C 0.10108 0.07568 0.3032 0.0
C793 C 0.09066 0.11095 0.32288 0.0
C794 C 0.07328 0.0415 0.30074 0.0
C795 C 0.03418 0.04308 0.31806 0.0
C796 C 0.02312 0.07915 0.33706 0.0
C797 C 0.05154 0.11241 0.33942 0.0
C798 C 0.08614 1.0033 0.28045 0.0
C799 C 0.98168 0.08222 0.35577 0.0
H800 H 0.92084 0.96215 0.27989 0.0
H801 H 0.98643 0.92144 0.37035 0.0
H802 H 0.96063 0.06278 0.2763 0.0
H803 H 0.99693 0.03361 0.25083 0.0
H804 H 0.94161 1.02169 0.24857 0.0
H805 H 0.04581 0.95497 0.39149 0.0
H806 H 0.07633 0.98313 0.36011 0.0
H807 H 0.04097 1.01104 0.38742 0.0
H808 H 0.13109 0.07453 0.29016 0.0
H809 H 0.04284 0.13978 0.3543 0.0
H810 H 0.0613 0.9949 0.26173 0.0
H811 H 0.09 0.97617 0.298 0.0
H812 H 0.11609 1.00819 0.26641 0.0
H813 H 0.95534 0.07527 0.33804 0.0
H814 H 0.97653 0.11374 0.36717 0.0
H815 H 0.98062 0.05859 0.37664 0.0
C816 C 0.46749 0.59988 0.79976 0.0
C817 C 0.43875 0.59551 0.82676 0.0
C818 C 0.5015 0.57202 0.79635 0.0
C819 C 0.50664 0.53914 0.82046 0.0
C820 C 0.47765 0.53463 0.84764 0.0
C821 C 0.44425 0.56289 0.85051 0.0
C822 C 0.53207 0.57789 0.76719 0.0
C823 C 0.48211 0.50012 0.87398 0.0
C824 C 0.57635 0.44437 0.80351 0.0
C825 C 0.6119 0.45459 0.82296 0.0
C826 C 0.5421 0.47217 0.80151 0.0
C827 C 0.54386 0.51109 0.81907 0.0
C828 C 0.58016 0.52192 0.83791 0.0
C829 C 0.61352 0.49351 0.83978 0.0
C830 C 0.50367 0.45955 0.78137 0.0
C831 C 0.58342 0.56316 0.85685 0.0
H832 H 0.4632 0.62475 0.78114 0.0
H833 H 0.42216 0.55911 0.87142 0.0
H834 H 0.56382 0.58457 0.77753 0.0
H835 H 0.53439 0.54861 0.75193 0.0
H836 H 0.52279 0.60398 0.74988 0.0
H837 H 0.45572 0.49974 0.89259 0.0
H838 H 0.48359 0.46913 0.86109 0.0
H839 H 0.51185 0.50421 0.8884 0.0
H840 H 0.57506 0.41451 0.79026 0.0
H841 H 0.64108 0.50205 0.8545 0.0
H842 H 0.49534 0.48441 0.76266 0.0
H843 H 0.47659 0.45593 0.79901 0.0
H844 H 0.50829 0.42957 0.76734 0.0
H845 H 0.57661 0.58965 0.83927 0.0
H846 H 0.61498 0.56804 0.8683 0.0
H847 H 0.55976 0.56418 0.87771 0.0
C848 C 0.44561 0.5778 0.2184 0.0
C849 C 0.45039 0.6069 0.19173 0.0
C850 C 0.47338 0.54371 0.22171 0.0
C851 C 0.50658 0.53889 0.19785 0.0
C852 C 0.51156 0.5683 0.17105 0.0
C853 C 0.48336 0.60174 0.16824 0.0
C854 C 0.467 0.51265 0.25045 0.0
C855 C 0.54641 0.5642 0.14496 0.0
C856 C 0.60091 0.46836 0.21403 0.0
C857 C 0.59065 0.43346 0.19385 0.0
C858 C 0.57318 0.5026 0.21662 0.0
C859 C 0.53433 0.50148 0.19889 0.0
C860 C 0.52345 0.46581 0.17933 0.0
C861 C 0.55178 0.43247 0.17688 0.0
C862 C 0.58586 0.54037 0.23752 0.0
C863 C 0.48229 0.46326 0.16014 0.0
H864 H 0.42045 0.58183 0.23681 0.0
H865 H 0.48746 0.62409 0.14757 0.0
H866 H 0.46004 0.4812 0.23966 0.0
H867 H 0.49618 0.5097 0.2658 0.0
H868 H 0.44089 0.52185 0.26776 0.0
H869 H 0.54728 0.59102 0.12678 0.0
H870 H 0.57723 0.56212 0.1581 0.0
H871 H 0.54225 0.53488 0.13001 0.0
H872 H 0.63072 0.46914 0.22741 0.0
H873 H 0.5432 0.40542 0.16158 0.0
H874 H 0.56078 0.54847 0.25611 0.0
H875 H 0.59 0.56782 0.22036 0.0
H876 H 0.6156 0.53512 0.25177 0.0
H877 H 0.4557 0.46992 0.17768 0.0
H878 H 0.47724 0.432 0.14825 0.0
H879 H 0.4816 0.48733 0.1396 0.0
C880 C 0.10898 0.05536 0.67269 0.0
C881 C 0.10989 0.09221 0.69241 0.0
C882 C 0.07582 0.02684 0.67526 0.0
C883 C 0.04218 0.03547 0.69778 0.0
C884 C 0.04286 0.07238 0.71807 0.0
C885 C 0.07692 0.10032 0.71528 0.0
C886 C 0.07642 0.98782 0.65323 0.0
C887 C 1.00724 0.08271 0.74213 0.0
C888 C 0.93974 0.98616 0.67021 0.0
C889 C 0.93725 0.95072 0.6915 0.0
C890 C 0.97288 1.0147 0.67301 0.0
C891 C 1.00483 1.00754 0.69746 0.0
C892 C 1.0026 0.972 0.71924 0.0
C893 C 0.96865 0.94399 0.7161 0.0
C894 C 0.97403 0.05218 0.64927 0.0
C895 C 0.0364 0.96326 0.7454 0.0
H896 H 0.13449 0.04845 0.65519 0.0
H897 H 0.0776 0.12853 0.73078 0.0
H898 H 0.07172 0.95951 0.66932 0.0
H899 H 0.05025 0.98898 0.63448 0.0
H900 H 0.10633 0.98427 0.63888 0.0
H901 H 1.01368 0.11121 0.75766 0.0
H902 H 0.97805 0.0879 0.7272 0.0
H903 H 1.00133 0.056 0.75971 0.0
H904 H 0.91552 0.99194 0.65127 0.0
H905 H 0.96673 0.91691 0.73282 0.0
H906 H 1.0016 0.04982 0.63201 0.0
H907 H 0.9775 0.08152 0.66429 0.0
H908 H 0.9453 0.05469 0.63325 0.0
H909 H 0.06666 0.95737 0.73217 0.0
H910 H 0.02889 0.93566 0.76168 0.0
H911 H 0.04092 0.99099 0.76218 0.0
loop_
_geom_bond_atom_site_label_1
_geom_bond_atom_site_label_2
_geom_bond_distance
_geom_bond_site_symmetry_2
_ccdc_geom_bond_type
Co0 O3 1.970 . S
Co0 N17 1.989 . S
Co0 O25 1.967 . S
Co0 O32 1.920 . S
Co1 O4 1.966 . S
Co1 N10 2.022 . S
Co1 N18 1.993 . S
Co1 O26 1.941 . S
C2 O3 1.258 . S
C2 O4 1.263 . S
O3 Co0 1.970 . S
O3 C2 1.258 . S
O4 Co1 1.966 . S
O4 C2 1.263 . S
C5 O6 1.235 . S
C5 O32 1.289 . S
O6 C5 1.235 . S
C7 C9 1.400 . S
C7 N10 1.351 . S
C7 C12 1.501 . S
C8 C9 1.387 . S
C8 N11 1.341 . S
C9 C7 1.400 . S
C9 C8 1.387 . S
N10 Co1 2.022 . S
N10 C7 1.351 . S
N10 N11 1.365 . S
N11 C8 1.341 . S
N11 N10 1.365 . S
N11 H31 0.862 . S
C12 C7 1.501 . S
C12 H13 0.961 . S
C12 H14 0.961 . S
C12 H15 0.960 . S
H13 C12 0.961 . S
H14 C12 0.961 . S
H15 C12 0.960 . S
C16 N17 1.342 1_655 S
C16 C20 1.401 . S
C16 C21 1.499 . S
N17 Co0 1.989 . S
N17 C16 1.342 1_455 S
N17 N18 1.388 . S
N18 Co1 1.993 . S
N18 N17 1.388 . S
N18 C19 1.346 1_455 S
C19 N18 1.346 1_655 S
C19 C20 1.396 . S
C19 C29 1.510 . S
C20 C16 1.401 . S
C20 C19 1.396 . S
C21 C16 1.499 . S
C21 H22 0.959 . S
C21 H23 0.960 . S
C21 H24 0.961 . S
H22 C21 0.959 . S
H23 C21 0.960 . S
H24 C21 0.961 . S
O25 Co0 1.967 . S
O25 C33 1.258 . S
O26 Co1 1.941 . S
O26 C33 1.266 . S
H27 C29 0.959 . S
H28 C29 0.961 . S
C29 C19 1.510 . S
C29 H27 0.959 . S
C29 H28 0.961 . S
C29 H30 0.960 . S
H30 C29 0.960 . S
H31 N11 0.862 . S
O32 Co0 1.920 . S
O32 C5 1.289 . S
C33 O25 1.258 . S
C33 O26 1.266 . S
Co34 O37 1.970 . S
Co34 N51 1.989 . S
Co34 O59 1.967 . S
Co34 O66 1.920 . S
Co35 O38 1.966 . S
Co35 N44 2.022 . S
Co35 N52 1.993 . S
Co35 O60 1.941 . S
C36 O37 1.258 . S
C36 O38 1.263 . S
O37 Co34 1.970 . S
O37 C36 1.258 . S
O38 Co35 1.966 . S
O38 C36 1.263 . S
C39 O40 1.235 . S
C39 O66 1.289 . S
O40 C39 1.235 . S
C41 C43 1.400 . S
C41 N44 1.351 . S
C41 C46 1.501 . S
C42 C43 1.387 . S
C42 N45 1.341 . S
C43 C41 1.400 . S
C43 C42 1.387 . S
N44 Co35 2.022 . S
N44 C41 1.351 . S
N44 N45 1.365 . S
N45 C42 1.341 . S
N45 N44 1.365 . S
N45 H65 0.862 . S
C46 C41 1.501 . S
C46 H47 0.961 . S
C46 H48 0.961 . S
C46 H49 0.960 . S
H47 C46 0.961 . S
H48 C46 0.961 . S
H49 C46 0.960 . S
C50 N51 1.342 . S
C50 C54 1.401 . S
C50 C55 1.499 . S
N51 Co34 1.989 . S
N51 C50 1.342 . S
N51 N52 1.388 . S
N52 Co35 1.993 . S
N52 N51 1.388 . S
N52 C53 1.346 . S
C53 N52 1.346 . S
C53 C54 1.396 . S
C53 C63 1.510 . S
C54 C50 1.401 . S
C54 C53 1.396 . S
C55 C50 1.499 . S
C55 H56 0.959 . S
C55 H57 0.960 . S
C55 H58 0.961 . S
H56 C55 0.959 . S
H57 C55 0.960 . S
H58 C55 0.961 . S
O59 Co34 1.967 . S
O59 C67 1.258 . S
O60 Co35 1.941 . S
O60 C67 1.266 . S
H61 C63 0.959 . S
H62 C63 0.961 . S
C63 C53 1.510 . S
C63 H61 0.959 . S
C63 H62 0.961 . S
C63 H64 0.960 . S
H64 C63 0.960 . S
H65 N45 0.862 . S
O66 Co34 1.920 . S
O66 C39 1.289 . S
C67 O59 1.258 . S
C67 O60 1.266 . S
Co68 O71 1.970 . S
Co68 N85 1.989 . S
Co68 O93 1.967 . S
Co68 O100 1.920 . S
Co69 O72 1.966 . S
Co69 N78 2.022 . S
Co69 N86 1.993 . S
Co69 O94 1.941 . S
C70 O71 1.258 . S
C70 O72 1.263 . S
O71 Co68 1.970 . S
O71 C70 1.258 . S
O72 Co69 1.966 . S
O72 C70 1.263 . S
C73 O74 1.235 . S
C73 O100 1.289 . S
O74 C73 1.235 . S
C75 C77 1.400 . S
C75 N78 1.351 . S
C75 C80 1.501 . S
C76 C77 1.387 . S
C76 N79 1.341 . S
C77 C75 1.400 . S
C77 C76 1.387 . S
N78 Co69 2.022 . S
N78 C75 1.351 . S
N78 N79 1.365 . S
N79 C76 1.341 . S
N79 N78 1.365 . S
N79 H99 0.862 . S
C80 C75 1.501 . S
C80 H81 0.961 . S
C80 H82 0.961 . S
C80 H83 0.960 . S
H81 C80 0.961 . S
H82 C80 0.961 . S
H83 C80 0.960 . S
C84 N85 1.342 1_455 S
C84 C88 1.401 . S
C84 C89 1.499 . S
N85 Co68 1.989 . S
N85 C84 1.342 1_655 S
N85 N86 1.388 . S
N86 Co69 1.993 . S
N86 N85 1.388 . S
N86 C87 1.346 1_655 S
C87 N86 1.346 1_455 S
C87 C88 1.396 . S
C87 C97 1.510 . S
C88 C84 1.401 . S
C88 C87 1.396 . S
C89 C84 1.499 . S
C89 H90 0.959 . S
C89 H91 0.960 . S
C89 H92 0.961 . S
H90 C89 0.959 . S
H91 C89 0.960 . S
H92 C89 0.961 . S
O93 Co68 1.967 . S
O93 C101 1.258 . S
O94 Co69 1.941 . S
O94 C101 1.266 . S
H95 C97 0.959 . S
H96 C97 0.961 . S
C97 C87 1.510 . S
C97 H95 0.959 . S
C97 H96 0.961 . S
C97 H98 0.960 . S
H98 C97 0.960 . S
H99 N79 0.862 . S
O100 Co68 1.920 . S
O100 C73 1.289 . S
C101 O93 1.258 . S
C101 O94 1.266 . S
Co102 O105 1.970 . S
Co102 N119 1.989 . S
Co102 O127 1.967 . S
Co102 O134 1.920 . S
Co103 O106 1.966 . S
Co103 N112 2.022 . S
Co103 N120 1.993 . S
Co103 O128 1.941 . S
C104 O105 1.258 . S
C104 O106 1.263 . S
O105 Co102 1.970 . S
O105 C104 1.258 . S
O106 Co103 1.966 . S
O106 C104 1.263 . S
C107 O108 1.235 . S
C107 O134 1.289 . S
O108 C107 1.235 . S
C109 C111 1.400 . S
C109 N112 1.351 . S
C109 C114 1.501 . S
C110 C111 1.387 . S
C110 N113 1.341 . S
C111 C109 1.400 . S
C111 C110 1.387 . S
N112 Co103 2.022 . S
N112 C109 1.351 . S
N112 N113 1.365 . S
N113 C110 1.341 . S
N113 N112 1.365 . S
N113 H133 0.862 . S
C114 C109 1.501 . S
C114 H115 0.961 . S
C114 H116 0.961 . S
C114 H117 0.960 . S
H115 C114 0.961 . S
H116 C114 0.961 . S
H117 C114 0.960 . S
C118 N119 1.342 . S
C118 C122 1.401 . S
C118 C123 1.499 . S
N119 Co102 1.989 . S
N119 C118 1.342 . S
N119 N120 1.388 . S
N120 Co103 1.993 . S
N120 N119 1.388 . S
N120 C121 1.346 . S
C121 N120 1.346 . S
C121 C122 1.396 . S
C121 C131 1.510 . S
C122 C118 1.401 . S
C122 C121 1.396 . S
C123 C118 1.499 . S
C123 H124 0.959 . S
C123 H125 0.960 . S
C123 H126 0.961 . S
H124 C123 0.959 . S
H125 C123 0.960 . S
H126 C123 0.961 . S
O127 Co102 1.967 . S
O127 C135 1.258 . S
O128 Co103 1.941 . S
O128 C135 1.266 . S
H129 C131 0.959 . S
H130 C131 0.961 . S
C131 C121 1.510 . S
C131 H129 0.959 . S
C131 H130 0.961 . S
C131 H132 0.960 . S
H132 C131 0.960 . S
H133 N113 0.862 . S
O134 Co102 1.920 . S
O134 C107 1.289 . S
C135 O127 1.258 . S
C135 O128 1.266 . S
Co136 O139 1.970 . S
Co136 N153 1.989 . S
Co136 O161 1.967 . S
Co136 O168 1.920 . S
Co137 O140 1.966 . S
Co137 N146 2.022 . S
Co137 N154 1.993 . S
Co137 O162 1.941 . S
C138 O139 1.258 . S
C138 O140 1.263 . S
O139 Co136 1.970 . S
O139 C138 1.258 . S
O140 Co137 1.966 . S
O140 C138 1.263 . S
C141 O142 1.235 . S
C141 O168 1.289 . S
O142 C141 1.235 . S
C143 C145 1.400 . S
C143 N146 1.351 . S
C143 C148 1.501 . S
C144 C145 1.387 . S
C144 N147 1.341 . S
C145 C143 1.400 . S
C145 C144 1.387 . S
N146 Co137 2.022 . S
N146 C143 1.351 . S
N146 N147 1.365 . S
N147 C144 1.341 . S
N147 N146 1.365 . S
N147 H167 0.862 . S
C148 C143 1.501 . S
C148 H149 0.961 . S
C148 H150 0.961 . S
C148 H151 0.960 . S
H149 C148 0.961 . S
H150 C148 0.961 . S
H151 C148 0.960 . S
C152 N153 1.342 . S
C152 C156 1.401 . S
C152 C157 1.499 . S
N153 Co136 1.989 . S
N153 C152 1.342 . S
N153 N154 1.388 . S
N154 Co137 1.993 . S
N154 N153 1.388 . S
N154 C155 1.346 . S
C155 N154 1.346 . S
C155 C156 1.396 . S
C155 C165 1.510 . S
C156 C152 1.401 . S
C156 C155 1.396 . S
C157 C152 1.499 . S
C157 H158 0.959 . S
C157 H159 0.960 . S
C157 H160 0.961 . S
H158 C157 0.959 . S
H159 C157 0.960 . S
H160 C157 0.961 . S
O161 Co136 1.967 . S
O161 C169 1.258 . S
O162 Co137 1.941 . S
O162 C169 1.266 . S
H163 C165 0.959 . S
H164 C165 0.961 . S
C165 C155 1.510 . S
C165 H163 0.959 . S
C165 H164 0.961 . S
C165 H166 0.960 . S
H166 C165 0.960 . S
H167 N147 0.862 . S
O168 Co136 1.920 . S
O168 C141 1.289 . S
C169 O161 1.258 . S
C169 O162 1.266 . S
Co170 O173 1.970 . S
Co170 N187 1.989 . S
Co170 O195 1.967 . S
Co170 O202 1.920 . S
Co171 O174 1.966 . S
Co171 N180 2.022 . S
Co171 N188 1.993 . S
Co171 O196 1.941 . S
C172 O173 1.258 . S
C172 O174 1.263 . S
O173 Co170 1.970 . S
O173 C172 1.258 . S
O174 Co171 1.966 . S
O174 C172 1.263 . S
C175 O176 1.235 . S
C175 O202 1.289 . S
O176 C175 1.235 . S
C177 C179 1.400 . S
C177 N180 1.351 . S
C177 C182 1.501 . S
C178 C179 1.387 . S
C178 N181 1.341 . S
C179 C177 1.400 . S
C179 C178 1.387 . S
N180 Co171 2.022 . S
N180 C177 1.351 . S
N180 N181 1.365 . S
N181 C178 1.341 . S
N181 N180 1.365 . S
N181 H201 0.862 . S
C182 C177 1.501 . S
C182 H183 0.961 . S
C182 H184 0.961 . S
C182 H185 0.960 . S
H183 C182 0.961 . S
H184 C182 0.961 . S
H185 C182 0.960 . S
C186 N187 1.342 1_565 S
C186 C190 1.401 . S
C186 C191 1.499 . S
N187 Co170 1.989 . S
N187 C186 1.342 1_545 S
N187 N188 1.388 . S
N188 Co171 1.993 . S
N188 N187 1.388 . S
N188 C189 1.346 1_545 S
C189 N188 1.346 1_565 S
C189 C190 1.396 . S
C189 C199 1.510 . S
C190 C186 1.401 . S
C190 C189 1.396 . S
C191 C186 1.499 . S
C191 H192 0.959 . S
C191 H193 0.960 . S
C191 H194 0.961 . S
H192 C191 0.959 . S
H193 C191 0.960 . S
H194 C191 0.961 . S
O195 Co170 1.967 . S
O195 C203 1.258 . S
O196 Co171 1.941 . S
O196 C203 1.266 . S
H197 C199 0.959 . S
H198 C199 0.961 . S
C199 C189 1.510 . S
C199 H197 0.959 . S
C199 H198 0.961 . S
C199 H200 0.960 . S
H200 C199 0.960 . S
H201 N181 0.862 . S
O202 Co170 1.920 . S
O202 C175 1.289 . S
C203 O195 1.258 . S
C203 O196 1.266 . S
Co204 O207 1.970 . S
Co204 N221 1.989 . S
Co204 O229 1.967 . S
Co204 O236 1.920 . S
Co205 O208 1.966 . S
Co205 N214 2.022 . S
Co205 N222 1.993 . S
Co205 O230 1.941 . S
C206 O207 1.258 . S
C206 O208 1.263 . S
O207 Co204 1.970 . S
O207 C206 1.258 . S
O208 Co205 1.966 . S
O208 C206 1.263 . S
C209 O210 1.235 . S
C209 O236 1.289 . S
O210 C209 1.235 . S
C211 C213 1.400 . S
C211 N214 1.351 . S
C211 C216 1.501 . S
C212 C213 1.387 . S
C212 N215 1.341 . S
C213 C211 1.400 . S
C213 C212 1.387 . S
N214 Co205 2.022 . S
N214 C211 1.351 . S
N214 N215 1.365 . S
N215 C212 1.341 . S
N215 N214 1.365 . S
N215 H235 0.862 . S
C216 C211 1.501 . S
C216 H217 0.961 . S
C216 H218 0.961 . S
C216 H219 0.960 . S
H217 C216 0.961 . S
H218 C216 0.961 . S
H219 C216 0.960 . S
C220 N221 1.342 . S
C220 C224 1.401 . S
C220 C225 1.499 . S
N221 Co204 1.989 . S
N221 C220 1.342 . S
N221 N222 1.388 . S
N222 Co205 1.993 . S
N222 N221 1.388 . S
N222 C223 1.346 . S
C223 N222 1.346 . S
C223 C224 1.396 . S
C223 C233 1.510 . S
C224 C220 1.401 . S
C224 C223 1.396 . S
C225 C220 1.499 . S
C225 H226 0.959 . S
C225 H227 0.960 . S
C225 H228 0.961 . S
H226 C225 0.959 . S
H227 C225 0.960 . S
H228 C225 0.961 . S
O229 Co204 1.967 . S
O229 C237 1.258 . S
O230 Co205 1.941 . S
O230 C237 1.266 . S
H231 C233 0.959 . S
H232 C233 0.961 . S
C233 C223 1.510 . S
C233 H231 0.959 . S
C233 H232 0.961 . S
C233 H234 0.960 . S
H234 C233 0.960 . S
H235 N215 0.862 . S
O236 Co204 1.920 . S
O236 C209 1.289 . S
C237 O229 1.258 . S
C237 O230 1.266 . S
Co238 O241 1.970 . S
Co238 N255 1.989 . S
Co238 O263 1.967 . S
Co238 O270 1.920 . S
Co239 O242 1.966 . S
Co239 N248 2.022 . S
Co239 N256 1.993 . S
Co239 O264 1.941 . S
C240 O241 1.258 . S
C240 O242 1.263 . S
O241 Co238 1.970 . S
O241 C240 1.258 . S
O242 Co239 1.966 . S
O242 C240 1.263 . S
C243 O244 1.235 . S
C243 O270 1.289 . S
O244 C243 1.235 . S
C245 C247 1.400 . S
C245 N248 1.351 . S
C245 C250 1.501 . S
C246 C247 1.387 . S
C246 N249 1.341 . S
C247 C245 1.400 . S
C247 C246 1.387 . S
N248 Co239 2.022 . S
N248 C245 1.351 . S
N248 N249 1.365 . S
N249 C246 1.341 . S
N249 N248 1.365 . S
N249 H269 0.862 . S
C250 C245 1.501 . S
C250 H251 0.961 . S
C250 H252 0.961 . S
C250 H253 0.960 . S
H251 C250 0.961 . S
H252 C250 0.961 . S
H253 C250 0.960 . S
C254 N255 1.342 1_545 S
C254 C258 1.401 . S
C254 C259 1.499 . S
N255 Co238 1.989 . S
N255 C254 1.342 1_565 S
N255 N256 1.388 . S
N256 Co239 1.993 . S
N256 N255 1.388 . S
N256 C257 1.346 1_565 S
C257 N256 1.346 1_545 S
C257 C258 1.396 . S
C257 C267 1.510 . S
C258 C254 1.401 . S
C258 C257 1.396 . S
C259 C254 1.499 . S
C259 H260 0.959 . S
C259 H261 0.960 . S
C259 H262 0.961 . S
H260 C259 0.959 . S
H261 C259 0.960 . S
H262 C259 0.961 . S
O263 Co238 1.967 . S
O263 C271 1.258 . S
O264 Co239 1.941 . S
O264 C271 1.266 . S
H265 C267 0.959 . S
H266 C267 0.961 . S
C267 C257 1.510 . S
C267 H265 0.959 . S
C267 H266 0.961 . S
C267 H268 0.960 . S
H268 C267 0.960 . S
H269 N249 0.862 . S
O270 Co238 1.920 . S
O270 C243 1.289 . S
C271 O263 1.258 . S
C271 O264 1.266 . S
C272 C273 1.391 . S
C272 C274 1.394 . S
C272 H288 0.931 . S
C273 C272 1.391 . S
C273 C277 1.376 . S
C274 C272 1.394 . S
C274 C275 1.369 1_655 S
C274 C278 1.531 . S
C275 C274 1.369 1_455 S
C275 C276 1.410 1_455 S
C275 C283 1.503 . S
C276 C275 1.410 1_655 S
C276 C277 1.392 . S
C276 C279 1.511 1_655 S
C277 C273 1.376 . S
C277 C276 1.392 . S
C277 H289 0.929 . S
C278 C274 1.531 . S
C278 H290 0.960 1_655 S
C278 H291 0.962 . S
C278 H292 0.960 . S
C279 C276 1.511 1_455 S
C279 H293 0.961 . S
C279 H294 0.961 . S
C279 H295 0.961 . S
C280 C281 1.370 . S
C280 C282 1.363 1_455 S
C280 H296 0.931 1_455 S
C281 C280 1.370 . S
C281 C285 1.408 . S
C282 C280 1.363 1_655 S
C282 C283 1.370 1_655 S
C282 C286 1.524 . S
C283 C275 1.503 . S
C283 C282 1.370 1_455 S
C283 C284 1.403 . S
C284 C283 1.403 . S
C284 C285 1.404 . S
C284 C287 1.539 . S
C285 C281 1.408 . S
C285 C284 1.404 . S
C285 H297 0.930 . S
C286 C282 1.524 . S
C286 H298 0.956 . S
C286 H299 0.961 . S
C286 H300 0.961 . S
C287 C284 1.539 . S
C287 H301 0.958 . S
C287 H302 0.961 . S
C287 H303 0.960 . S
H288 C272 0.931 . S
H289 C277 0.929 . S
H290 C278 0.960 1_455 S
H291 C278 0.962 . S
H292 C278 0.960 . S
H293 C279 0.961 . S
H294 C279 0.961 . S
H295 C279 0.961 . S
H296 C280 0.931 1_655 S
H297 C285 0.930 . S
H298 C286 0.956 . S
H299 C286 0.961 . S
H300 C286 0.961 . S
H301 C287 0.958 . S
H302 C287 0.961 . S
H303 C287 0.960 . S
C304 C305 1.391 . S
C304 C306 1.394 . S
C304 H320 0.931 . S
C305 C304 1.391 . S
C305 C309 1.376 . S
C306 C304 1.394 . S
C306 C307 1.369 . S
C306 C310 1.531 . S
C307 C306 1.369 . S
C307 C308 1.410 . S
C307 C315 1.503 1_655 S
C308 C307 1.410 . S
C308 C309 1.392 . S
C308 C311 1.511 1_655 S
C309 C305 1.376 . S
C309 C308 1.392 . S
C309 H321 0.929 . S
C310 C306 1.531 . S
C310 H322 0.960 . S
C310 H323 0.962 . S
C310 H324 0.960 . S
C311 C308 1.511 1_455 S
C311 H325 0.961 1_455 S
C311 H326 0.961 . S
C311 H327 0.961 . S
C312 C313 1.370 . S
C312 C314 1.363 . S
C312 H328 0.931 . S
C313 C312 1.370 . S
C313 C317 1.408 . S
C314 C312 1.363 . S
C314 C315 1.370 . S
C314 C318 1.524 1_455 S
C315 C307 1.503 1_455 S
C315 C314 1.370 . S
C315 C316 1.403 . S
C316 C315 1.403 . S
C316 C317 1.404 . S
C316 C319 1.539 . S
C317 C313 1.408 . S
C317 C316 1.404 . S
C317 H329 0.930 . S
C318 C314 1.524 1_655 S
C318 H330 0.956 . S
C318 H331 0.961 . S
C318 H332 0.961 1_655 S
C319 C316 1.539 . S
C319 H333 0.958 . S
C319 H334 0.961 . S
C319 H335 0.960 . S
H320 C304 0.931 . S
H321 C309 0.929 . S
H322 C310 0.960 . S
H323 C310 0.962 . S
H324 C310 0.960 . S
H325 C311 0.961 1_655 S
H326 C311 0.961 . S
H327 C311 0.961 . S
H328 C312 0.931 . S
H329 C317 0.930 . S
H330 C318 0.956 . S
H331 C318 0.961 . S
H332 C318 0.961 1_455 S
H333 C319 0.958 . S
H334 C319 0.961 . S
H335 C319 0.960 . S
C336 C337 1.391 . S
C336 C338 1.394 . S
C336 H352 0.931 . S
C337 C336 1.391 . S
C337 C341 1.376 . S
C338 C336 1.394 . S
C338 C339 1.369 . S
C338 C342 1.531 . S
C339 C338 1.369 . S
C339 C340 1.410 . S
C339 C347 1.503 1_565 S
C340 C339 1.410 . S
C340 C341 1.392 . S
C340 C343 1.511 . S
C341 C337 1.376 . S
C341 C340 1.392 . S
C341 H353 0.929 . S
C342 C338 1.531 . S
C342 H354 0.960 1_565 S
C342 H355 0.962 . S
C342 H356 0.960 . S
C343 C340 1.511 . S
C343 H357 0.961 . S
C343 H358 0.961 1_565 S
C343 H359 0.961 1_565 S
C344 C345 1.370 . S
C344 C346 1.363 . S
C344 H360 0.931 . S
C345 C344 1.370 . S
C345 C349 1.408 . S
C346 C344 1.363 . S
C346 C347 1.370 . S
C346 C350 1.524 1_545 S
C347 C339 1.503 1_545 S
C347 C346 1.370 . S
C347 C348 1.403 . S
C348 C347 1.403 . S
C348 C349 1.404 . S
C348 C351 1.539 . S
C349 C345 1.408 . S
C349 C348 1.404 . S
C349 H361 0.930 . S
C350 C346 1.524 1_565 S
C350 H362 0.956 . S
C350 H363 0.961 . S
C350 H364 0.961 . S
C351 C348 1.539 . S
C351 H365 0.958 . S
C351 H366 0.961 . S
C351 H367 0.960 . S
H352 C336 0.931 . S
H353 C341 0.929 . S
H354 C342 0.960 1_545 S
H355 C342 0.962 . S
H356 C342 0.960 . S
H357 C343 0.961 . S
H358 C343 0.961 1_545 S
H359 C343 0.961 1_545 S
H360 C344 0.931 . S
H361 C349 0.930 . S
H362 C350 0.956 . S
H363 C350 0.961 . S
H364 C350 0.961 . S
H365 C351 0.958 . S
H366 C351 0.961 . S
H367 C351 0.960 . S
C368 C369 1.391 1_545 S
C368 C370 1.394 . S
C368 H384 0.931 . S
C369 C368 1.391 1_565 S
C369 C373 1.376 . S
C370 C368 1.394 . S
C370 C371 1.369 1_545 S
C370 C374 1.531 . S
C371 C370 1.369 1_565 S
C371 C372 1.410 . S
C371 C379 1.503 1_565 S
C372 C371 1.410 . S
C372 C373 1.392 . S
C372 C375 1.511 . S
C373 C369 1.376 . S
C373 C372 1.392 . S
C373 H385 0.929 . S
C374 C370 1.531 . S
C374 H386 0.960 . S
C374 H387 0.962 . S
C374 H388 0.960 . S
C375 C372 1.511 . S
C375 H389 0.961 . S
C375 H390 0.961 . S
C375 H391 0.961 . S
C376 C377 1.370 . S
C376 C378 1.363 . S
C376 H392 0.931 . S
C377 C376 1.370 . S
C377 C381 1.408 . S
C378 C376 1.363 . S
C378 C379 1.370 . S
C378 C382 1.524 . S
C379 C371 1.503 1_545 S
C379 C378 1.370 . S
C379 C380 1.403 . S
C380 C379 1.403 . S
C380 C381 1.404 . S
C380 C383 1.539 . S
C381 C377 1.408 . S
C381 C380 1.404 . S
C381 H393 0.930 . S
C382 C378 1.524 . S
C382 H394 0.956 . S
C382 H395 0.961 1_545 S
C382 H396 0.961 . S
C383 C380 1.539 . S
C383 H397 0.958 . S
C383 H398 0.961 1_545 S
C383 H399 0.960 1_545 S
H384 C368 0.931 . S
H385 C373 0.929 . S
H386 C374 0.960 . S
H387 C374 0.962 . S
H388 C374 0.960 . S
H389 C375 0.961 . S
H390 C375 0.961 . S
H391 C375 0.961 . S
H392 C376 0.931 . S
H393 C381 0.930 . S
H394 C382 0.956 . S
H395 C382 0.961 1_565 S
H396 C382 0.961 . S
H397 C383 0.958 . S
H398 C383 0.961 1_565 S
H399 C383 0.960 1_565 S
C400 C401 1.391 . S
C400 C402 1.394 . S
C400 H416 0.931 . S
C401 C400 1.391 . S
C401 C405 1.376 . S
C402 C400 1.394 . S
C402 C403 1.369 . S
C402 C406 1.531 . S
C403 C402 1.369 . S
C403 C404 1.410 . S
C403 C411 1.503 . S
C404 C403 1.410 . S
C404 C405 1.392 . S
C404 C407 1.511 . S
C405 C401 1.376 . S
C405 C404 1.392 . S
C405 H417 0.929 . S
C406 C402 1.531 . S
C406 H418 0.960 . S
C406 H419 0.962 . S
C406 H420 0.960 . S
C407 C404 1.511 . S
C407 H421 0.961 . S
C407 H422 0.961 . S
C407 H423 0.961 . S
C408 C409 1.370 . S
C408 C410 1.363 . S
C408 H424 0.931 . S
C409 C408 1.370 . S
C409 C413 1.408 . S
C410 C408 1.363 . S
C410 C411 1.370 . S
C410 C414 1.524 . S
C411 C403 1.503 . S
C411 C410 1.370 . S
C411 C412 1.403 . S
C412 C411 1.403 . S
C412 C413 1.404 . S
C412 C415 1.539 . S
C413 C409 1.408 . S
C413 C412 1.404 . S
C413 H425 0.930 . S
C414 C410 1.524 . S
C414 H426 0.956 . S
C414 H427 0.961 . S
C414 H428 0.961 . S
C415 C412 1.539 . S
C415 H429 0.958 . S
C415 H430 0.961 . S
C415 H431 0.960 . S
H416 C400 0.931 . S
H417 C405 0.929 . S
H418 C406 0.960 . S
H419 C406 0.962 . S
H420 C406 0.960 . S
H421 C407 0.961 . S
H422 C407 0.961 . S
H423 C407 0.961 . S
H424 C408 0.931 . S
H425 C413 0.930 . S
H426 C414 0.956 . S
H427 C414 0.961 . S
H428 C414 0.961 . S
H429 C415 0.958 . S
H430 C415 0.961 . S
H431 C415 0.960 . S
C432 C433 1.391 . S
C432 C434 1.394 . S
C432 H448 0.931 . S
C433 C432 1.391 . S
C433 C437 1.376 . S
C434 C432 1.394 . S
C434 C435 1.369 . S
C434 C438 1.531 . S
C435 C434 1.369 . S
C435 C436 1.410 . S
C435 C443 1.503 . S
C436 C435 1.410 . S
C436 C437 1.392 . S
C436 C439 1.511 . S
C437 C433 1.376 . S
C437 C436 1.392 . S
C437 H449 0.929 . S
C438 C434 1.531 . S
C438 H450 0.960 . S
C438 H451 0.962 . S
C438 H452 0.960 . S
C439 C436 1.511 . S
C439 H453 0.961 . S
C439 H454 0.961 . S
C439 H455 0.961 . S
C440 C441 1.370 . S
C440 C442 1.363 . S
C440 H456 0.931 . S
C441 C440 1.370 . S
C441 C445 1.408 . S
C442 C440 1.363 . S
C442 C443 1.370 . S
C442 C446 1.524 . S
C443 C435 1.503 . S
C443 C442 1.370 . S
C443 C444 1.403 . S
C444 C443 1.403 . S
C444 C445 1.404 . S
C444 C447 1.539 . S
C445 C441 1.408 . S
C445 C444 1.404 . S
C445 H457 0.930 . S
C446 C442 1.524 . S
C446 H458 0.956 . S
C446 H459 0.961 . S
C446 H460 0.961 . S
C447 C444 1.539 . S
C447 H461 0.958 . S
C447 H462 0.961 . S
C447 H463 0.960 . S
H448 C432 0.931 . S
H449 C437 0.929 . S
H450 C438 0.960 . S
H451 C438 0.962 . S
H452 C438 0.960 . S
H453 C439 0.961 . S
H454 C439 0.961 . S
H455 C439 0.961 . S
H456 C440 0.931 . S
H457 C445 0.930 . S
H458 C446 0.956 . S
H459 C446 0.961 . S
H460 C446 0.961 . S
H461 C447 0.958 . S
H462 C447 0.961 . S
H463 C447 0.960 . S
C464 C465 1.391 . S
C464 C466 1.394 . S
C464 H480 0.931 . S
C465 C464 1.391 . S
C465 C469 1.376 . S
C466 C464 1.394 . S
C466 C467 1.369 . S
C466 C470 1.531 . S
C467 C466 1.369 . S
C467 C468 1.410 . S
C467 C475 1.503 . S
C468 C467 1.410 . S
C468 C469 1.392 . S
C468 C471 1.511 . S
C469 C465 1.376 . S
C469 C468 1.392 . S
C469 H481 0.929 . S
C470 C466 1.531 . S
C470 H482 0.960 . S
C470 H483 0.962 . S
C470 H484 0.960 . S
C471 C468 1.511 . S
C471 H485 0.961 . S
C471 H486 0.961 . S
C471 H487 0.961 . S
C472 C473 1.370 . S
C472 C474 1.363 . S
C472 H488 0.931 . S
C473 C472 1.370 . S
C473 C477 1.408 . S
C474 C472 1.363 . S
C474 C475 1.370 . S
C474 C478 1.524 . S
C475 C467 1.503 . S
C475 C474 1.370 . S
C475 C476 1.403 . S
C476 C475 1.403 . S
C476 C477 1.404 . S
C476 C479 1.539 . S
C477 C473 1.408 . S
C477 C476 1.404 . S
C477 H489 0.930 . S
C478 C474 1.524 . S
C478 H490 0.956 . S
C478 H491 0.961 . S
C478 H492 0.961 . S
C479 C476 1.539 . S
C479 H493 0.958 . S
C479 H494 0.961 . S
C479 H495 0.960 . S
H480 C464 0.931 . S
H481 C469 0.929 . S
H482 C470 0.960 . S
H483 C470 0.962 . S
H484 C470 0.960 . S
H485 C471 0.961 . S
H486 C471 0.961 . S
H487 C471 0.961 . S
H488 C472 0.931 . S
H489 C477 0.930 . S
H490 C478 0.956 . S
H491 C478 0.961 . S
H492 C478 0.961 . S
H493 C479 0.958 . S
H494 C479 0.961 . S
H495 C479 0.960 . S
C496 C497 1.391 . S
C496 C498 1.394 . S
C496 H512 0.931 . S
C497 C496 1.391 . S
C497 C501 1.376 . S
C498 C496 1.394 . S
C498 C499 1.369 . S
C498 C502 1.531 . S
C499 C498 1.369 . S
C499 C500 1.410 . S
C499 C507 1.503 . S
C500 C499 1.410 . S
C500 C501 1.392 . S
C500 C503 1.511 . S
C501 C497 1.376 . S
C501 C500 1.392 . S
C501 H513 0.929 . S
C502 C498 1.531 . S
C502 H514 0.960 . S
C502 H515 0.962 . S
C502 H516 0.960 . S
C503 C500 1.511 . S
C503 H517 0.961 . S
C503 H518 0.961 . S
C503 H519 0.961 . S
C504 C505 1.370 . S
C504 C506 1.363 . S
C504 H520 0.931 . S
C505 C504 1.370 . S
C505 C509 1.408 . S
C506 C504 1.363 . S
C506 C507 1.370 . S
C506 C510 1.524 . S
C507 C499 1.503 . S
C507 C506 1.370 . S
C507 C508 1.403 . S
C508 C507 1.403 . S
C508 C509 1.404 . S
C508 C511 1.539 . S
C509 C505 1.408 . S
C509 C508 1.404 . S
C509 H521 0.930 . S
C510 C506 1.524 . S
C510 H522 0.956 . S
C510 H523 0.961 . S
C510 H524 0.961 . S
C511 C508 1.539 . S
C511 H525 0.958 . S
C511 H526 0.961 . S
C511 H527 0.960 . S
H512 C496 0.931 . S
H513 C501 0.929 . S
H514 C502 0.960 . S
H515 C502 0.962 . S
H516 C502 0.960 . S
H517 C503 0.961 . S
H518 C503 0.961 . S
H519 C503 0.961 . S
H520 C504 0.931 . S
H521 C509 0.930 . S
H522 C510 0.956 . S
H523 C510 0.961 . S
H524 C510 0.961 . S
H525 C511 0.958 . S
H526 C511 0.961 . S
H527 C511 0.960 . S
C528 C529 1.391 . S
C528 C530 1.394 . S
C528 H544 0.931 . S
C529 C528 1.391 . S
C529 C533 1.376 . S
C530 C528 1.394 . S
C530 C531 1.369 . S
C530 C534 1.531 . S
C531 C530 1.369 . S
C531 C532 1.410 . S
C531 C539 1.503 . S
C532 C531 1.410 . S
C532 C533 1.392 . S
C532 C535 1.511 . S
C533 C529 1.376 . S
C533 C532 1.392 . S
C533 H545 0.929 . S
C534 C530 1.531 . S
C534 H546 0.960 . S
C534 H547 0.962 . S
C534 H548 0.960 . S
C535 C532 1.511 . S
C535 H549 0.961 . S
C535 H550 0.961 . S
C535 H551 0.961 . S
C536 C537 1.370 . S
C536 C538 1.363 . S
C536 H552 0.931 . S
C537 C536 1.370 . S
C537 C541 1.408 . S
C538 C536 1.363 . S
C538 C539 1.370 . S
C538 C542 1.524 . S
C539 C531 1.503 . S
C539 C538 1.370 . S
C539 C540 1.403 . S
C540 C539 1.403 . S
C540 C541 1.404 . S
C540 C543 1.539 . S
C541 C537 1.408 . S
C541 C540 1.404 . S
C541 H553 0.930 . S
C542 C538 1.524 . S
C542 H554 0.956 . S
C542 H555 0.961 . S
C542 H556 0.961 . S
C543 C540 1.539 . S
C543 H557 0.958 . S
C543 H558 0.961 . S
C543 H559 0.960 . S
H544 C528 0.931 . S
H545 C533 0.929 . S
H546 C534 0.960 . S
H547 C534 0.962 . S
H548 C534 0.960 . S
H549 C535 0.961 . S
H550 C535 0.961 . S
H551 C535 0.961 . S
H552 C536 0.931 . S
H553 C541 0.930 . S
H554 C542 0.956 . S
H555 C542 0.961 . S
H556 C542 0.961 . S
H557 C543 0.958 . S
H558 C543 0.961 . S
H559 C543 0.960 . S
C560 C561 1.391 . S
C560 C562 1.394 . S
C560 H576 0.931 . S
C561 C560 1.391 . S
C561 C565 1.376 . S
C562 C560 1.394 . S
C562 C563 1.369 . S
C562 C566 1.531 . S
C563 C562 1.369 . S
C563 C564 1.410 . S
C563 C571 1.503 . S
C564 C563 1.410 . S
C564 C565 1.392 . S
C564 C567 1.511 . S
C565 C561 1.376 . S
C565 C564 1.392 . S
C565 H577 0.929 . S
C566 C562 1.531 . S
C566 H578 0.960 . S
C566 H579 0.962 . S
C566 H580 0.960 . S
C567 C564 1.511 . S
C567 H581 0.961 . S
C567 H582 0.961 . S
C567 H583 0.961 . S
C568 C569 1.370 . S
C568 C570 1.363 . S
C568 H584 0.931 . S
C569 C568 1.370 . S
C569 C573 1.408 . S
C570 C568 1.363 . S
C570 C571 1.370 . S
C570 C574 1.524 . S
C571 C563 1.503 . S
C571 C570 1.370 . S
C571 C572 1.403 . S
C572 C571 1.403 . S
C572 C573 1.404 . S
C572 C575 1.539 . S
C573 C569 1.408 . S
C573 C572 1.404 . S
C573 H585 0.930 . S
C574 C570 1.524 . S
C574 H586 0.956 . S
C574 H587 0.961 . S
C574 H588 0.961 . S
C575 C572 1.539 . S
C575 H589 0.958 . S
C575 H590 0.961 . S
C575 H591 0.960 . S
H576 C560 0.931 . S
H577 C565 0.929 . S
H578 C566 0.960 . S
H579 C566 0.962 . S
H580 C566 0.960 . S
H581 C567 0.961 . S
H582 C567 0.961 . S
H583 C567 0.961 . S
H584 C568 0.931 . S
H585 C573 0.930 . S
H586 C574 0.956 . S
H587 C574 0.961 . S
H588 C574 0.961 . S
H589 C575 0.958 . S
H590 C575 0.961 . S
H591 C575 0.960 . S
C592 C593 1.391 . S
C592 C594 1.394 . S
C592 H608 0.931 . S
C593 C592 1.391 . S
C593 C597 1.376 . S
C594 C592 1.394 . S
C594 C595 1.369 . S
C594 C598 1.531 . S
C595 C594 1.369 . S
C595 C596 1.410 . S
C595 C603 1.503 . S
C596 C595 1.410 . S
C596 C597 1.392 . S
C596 C599 1.511 . S
C597 C593 1.376 . S
C597 C596 1.392 . S
C597 H609 0.929 . S
C598 C594 1.531 . S
C598 H610 0.960 . S
C598 H611 0.962 . S
C598 H612 0.960 . S
C599 C596 1.511 . S
C599 H613 0.961 . S
C599 H614 0.961 . S
C599 H615 0.961 . S
C600 C601 1.370 . S
C600 C602 1.363 . S
C600 H616 0.931 . S
C601 C600 1.370 . S
C601 C605 1.408 . S
C602 C600 1.363 . S
C602 C603 1.370 . S
C602 C606 1.524 . S
C603 C595 1.503 . S
C603 C602 1.370 . S
C603 C604 1.403 . S
C604 C603 1.403 . S
C604 C605 1.404 . S
C604 C607 1.539 . S
C605 C601 1.408 . S
C605 C604 1.404 . S
C605 H617 0.930 . S
C606 C602 1.524 . S
C606 H618 0.956 . S
C606 H619 0.961 . S
C606 H620 0.961 . S
C607 C604 1.539 . S
C607 H621 0.958 . S
C607 H622 0.961 . S
C607 H623 0.960 . S
H608 C592 0.931 . S
H609 C597 0.929 . S
H610 C598 0.960 . S
H611 C598 0.962 . S
H612 C598 0.960 . S
H613 C599 0.961 . S
H614 C599 0.961 . S
H615 C599 0.961 . S
H616 C600 0.931 . S
H617 C605 0.930 . S
H618 C606 0.956 . S
H619 C606 0.961 . S
H620 C606 0.961 . S
H621 C607 0.958 . S
H622 C607 0.961 . S
H623 C607 0.960 . S
C624 C625 1.391 . S
C624 C626 1.394 . S
C624 H640 0.931 . S
C625 C624 1.391 . S
C625 C629 1.376 . S
C626 C624 1.394 . S
C626 C627 1.369 . S
C626 C630 1.531 . S
C627 C626 1.369 . S
C627 C628 1.410 . S
C627 C635 1.503 . S
C628 C627 1.410 . S
C628 C629 1.392 . S
C628 C631 1.511 . S
C629 C625 1.376 . S
C629 C628 1.392 . S
C629 H641 0.929 . S
C630 C626 1.531 . S
C630 H642 0.960 . S
C630 H643 0.962 . S
C630 H644 0.960 . S
C631 C628 1.511 . S
C631 H645 0.961 . S
C631 H646 0.961 . S
C631 H647 0.961 . S
C632 C633 1.370 . S
C632 C634 1.363 . S
C632 H648 0.931 . S
C633 C632 1.370 . S
C633 C637 1.408 . S
C634 C632 1.363 . S
C634 C635 1.370 . S
C634 C638 1.524 . S
C635 C627 1.503 . S
C635 C634 1.370 . S
C635 C636 1.403 . S
C636 C635 1.403 . S
C636 C637 1.404 . S
C636 C639 1.539 . S
C637 C633 1.408 . S
C637 C636 1.404 . S
C637 H649 0.930 . S
C638 C634 1.524 . S
C638 H650 0.956 . S
C638 H651 0.961 . S
C638 H652 0.961 . S
C639 C636 1.539 . S
C639 H653 0.958 . S
C639 H654 0.961 . S
C639 H655 0.960 . S
H640 C624 0.931 . S
H641 C629 0.929 . S
H642 C630 0.960 . S
H643 C630 0.962 . S
H644 C630 0.960 . S
H645 C631 0.961 . S
H646 C631 0.961 . S
H647 C631 0.961 . S
H648 C632 0.931 . S
H649 C637 0.930 . S
H650 C638 0.956 . S
H651 C638 0.961 . S
H652 C638 0.961 . S
H653 C639 0.958 . S
H654 C639 0.961 . S
H655 C639 0.960 . S
C656 C657 1.391 . S
C656 C658 1.394 . S
C656 H672 0.931 . S
C657 C656 1.391 . S
C657 C661 1.376 . S
C658 C656 1.394 . S
C658 C659 1.369 . S
C658 C662 1.531 . S
C659 C658 1.369 . S
C659 C660 1.410 . S
C659 C667 1.503 . S
C660 C659 1.410 . S
C660 C661 1.392 . S
C660 C663 1.511 . S
C661 C657 1.376 . S
C661 C660 1.392 . S
C661 H673 0.929 . S
C662 C658 1.531 . S
C662 H674 0.960 . S
C662 H675 0.962 . S
C662 H676 0.960 . S
C663 C660 1.511 . S
C663 H677 0.961 . S
C663 H678 0.961 . S
C663 H679 0.961 . S
C664 C665 1.370 . S
C664 C666 1.363 . S
C664 H680 0.931 . S
C665 C664 1.370 . S
C665 C669 1.408 . S
C666 C664 1.363 . S
C666 C667 1.370 . S
C666 C670 1.524 . S
C667 C659 1.503 . S
C667 C666 1.370 . S
C667 C668 1.403 . S
C668 C667 1.403 . S
C668 C669 1.404 . S
C668 C671 1.539 . S
C669 C665 1.408 . S
C669 C668 1.404 . S
C669 H681 0.930 . S
C670 C666 1.524 . S
C670 H682 0.956 . S
C670 H683 0.961 . S
C670 H684 0.961 . S
C671 C668 1.539 . S
C671 H685 0.958 . S
C671 H686 0.961 . S
C671 H687 0.960 . S
H672 C656 0.931 . S
H673 C661 0.929 . S
H674 C662 0.960 . S
H675 C662 0.962 . S
H676 C662 0.960 . S
H677 C663 0.961 . S
H678 C663 0.961 . S
H679 C663 0.961 . S
H680 C664 0.931 . S
H681 C669 0.930 . S
H682 C670 0.956 . S
H683 C670 0.961 . S
H684 C670 0.961 . S
H685 C671 0.958 . S
H686 C671 0.961 . S
H687 C671 0.960 . S
C688 C689 1.391 . S
C688 C690 1.394 . S
C688 H704 0.931 . S
C689 C688 1.391 . S
C689 C693 1.376 . S
C690 C688 1.394 . S
C690 C691 1.369 . S
C690 C694 1.531 . S
C691 C690 1.369 . S
C691 C692 1.410 . S
C691 C699 1.503 1_554 S
C692 C691 1.410 . S
C692 C693 1.392 . S
C692 C695 1.511 1_554 S
C693 C689 1.376 . S
C693 C692 1.392 . S
C693 H705 0.929 . S
C694 C690 1.531 . S
C694 H706 0.960 . S
C694 H707 0.962 . S
C694 H708 0.960 . S
C695 C692 1.511 1_556 S
C695 H709 0.961 . S
C695 H710 0.961 . S
C695 H711 0.961 . S
C696 C697 1.370 . S
C696 C698 1.363 . S
C696 H712 0.931 . S
C697 C696 1.370 . S
C697 C701 1.408 . S
C698 C696 1.363 . S
C698 C699 1.370 . S
C698 C702 1.524 1_556 S
C699 C691 1.503 1_556 S
C699 C698 1.370 . S
C699 C700 1.403 . S
C700 C699 1.403 . S
C700 C701 1.404 . S
C700 C703 1.539 . S
C701 C697 1.408 . S
C701 C700 1.404 . S
C701 H713 0.930 . S
C702 C698 1.524 1_554 S
C702 H714 0.956 . S
C702 H715 0.961 . S
C702 H716 0.961 . S
C703 C700 1.539 . S
C703 H717 0.958 . S
C703 H718 0.961 . S
C703 H719 0.960 . S
H704 C688 0.931 . S
H705 C693 0.929 . S
H706 C694 0.960 . S
H707 C694 0.962 . S
H708 C694 0.960 . S
H709 C695 0.961 . S
H710 C695 0.961 . S
H711 C695 0.961 . S
H712 C696 0.931 . S
H713 C701 0.930 . S
H714 C702 0.956 . S
H715 C702 0.961 . S
H716 C702 0.961 . S
H717 C703 0.958 . S
H718 C703 0.961 . S
H719 C703 0.960 . S
C720 C721 1.391 . S
C720 C722 1.394 . S
C720 H736 0.931 . S
C721 C720 1.391 . S
C721 C725 1.376 . S
C722 C720 1.394 . S
C722 C723 1.369 . S
C722 C726 1.531 . S
C723 C722 1.369 . S
C723 C724 1.410 . S
C723 C731 1.503 . S
C724 C723 1.410 . S
C724 C725 1.392 . S
C724 C727 1.511 . S
C725 C721 1.376 . S
C725 C724 1.392 . S
C725 H737 0.929 . S
C726 C722 1.531 . S
C726 H738 0.960 . S
C726 H739 0.962 . S
C726 H740 0.960 . S
C727 C724 1.511 . S
C727 H741 0.961 . S
C727 H742 0.961 . S
C727 H743 0.961 . S
C728 C729 1.370 . S
C728 C730 1.363 . S
C728 H744 0.931 . S
C729 C728 1.370 . S
C729 C733 1.408 . S
C730 C728 1.363 . S
C730 C731 1.370 . S
C730 C734 1.524 . S
C731 C723 1.503 . S
C731 C730 1.370 . S
C731 C732 1.403 . S
C732 C731 1.403 . S
C732 C733 1.404 . S
C732 C735 1.539 . S
C733 C729 1.408 . S
C733 C732 1.404 . S
C733 H745 0.930 . S
C734 C730 1.524 . S
C734 H746 0.956 . S
C734 H747 0.961 . S
C734 H748 0.961 . S
C735 C732 1.539 . S
C735 H749 0.958 . S
C735 H750 0.961 . S
C735 H751 0.960 . S
H736 C720 0.931 . S
H737 C725 0.929 . S
H738 C726 0.960 . S
H739 C726 0.962 . S
H740 C726 0.960 . S
H741 C727 0.961 . S
H742 C727 0.961 . S
H743 C727 0.961 . S
H744 C728 0.931 . S
H745 C733 0.930 . S
H746 C734 0.956 . S
H747 C734 0.961 . S
H748 C734 0.961 . S
H749 C735 0.958 . S
H750 C735 0.961 . S
H751 C735 0.960 . S
C752 C753 1.391 . S
C752 C754 1.394 . S
C752 H768 0.931 . S
C753 C752 1.391 . S
C753 C757 1.376 . S
C754 C752 1.394 . S
C754 C755 1.369 . S
C754 C758 1.531 . S
C755 C754 1.369 . S
C755 C756 1.410 . S
C755 C763 1.503 1_554 S
C756 C755 1.410 . S
C756 C757 1.392 . S
C756 C759 1.511 1_554 S
C757 C753 1.376 . S
C757 C756 1.392 . S
C757 H769 0.929 . S
C758 C754 1.531 . S
C758 H770 0.960 . S
C758 H771 0.962 . S
C758 H772 0.960 . S
C759 C756 1.511 1_556 S
C759 H773 0.961 . S
C759 H774 0.961 . S
C759 H775 0.961 . S
C760 C761 1.370 . S
C760 C762 1.363 . S
C760 H776 0.931 . S
C761 C760 1.370 . S
C761 C765 1.408 . S
C762 C760 1.363 . S
C762 C763 1.370 . S
C762 C766 1.524 1_556 S
C763 C755 1.503 1_556 S
C763 C762 1.370 . S
C763 C764 1.403 . S
C764 C763 1.403 . S
C764 C765 1.404 . S
C764 C767 1.539 . S
C765 C761 1.408 . S
C765 C764 1.404 . S
C765 H777 0.930 . S
C766 C762 1.524 1_554 S
C766 H778 0.956 . S
C766 H779 0.961 . S
C766 H780 0.961 . S
C767 C764 1.539 . S
C767 H781 0.958 . S
C767 H782 0.961 . S
C767 H783 0.960 . S
H768 C752 0.931 . S
H769 C757 0.929 . S
H770 C758 0.960 . S
H771 C758 0.962 . S
H772 C758 0.960 . S
H773 C759 0.961 . S
H774 C759 0.961 . S
H775 C759 0.961 . S
H776 C760 0.931 . S
H777 C765 0.930 . S
H778 C766 0.956 . S
H779 C766 0.961 . S
H780 C766 0.961 . S
H781 C767 0.958 . S
H782 C767 0.961 . S
H783 C767 0.960 . S
C784 C785 1.391 . S
C784 C786 1.394 . S
C784 H800 0.931 . S
C785 C784 1.391 . S
C785 C789 1.376 . S
C786 C784 1.394 . S
C786 C787 1.369 . S
C786 C790 1.531 1_655 S
C787 C786 1.369 . S
C787 C788 1.410 . S
C787 C795 1.503 1_665 S
C788 C787 1.410 . S
C788 C789 1.392 . S
C788 C791 1.500 1_565 S
C789 C785 1.376 . S
C789 C788 1.392 . S
C789 H801 0.929 . S
C790 C786 1.531 1_455 S
C790 H802 0.960 . S
C790 H803 0.962 . S
C790 H804 0.960 . S
C791 C788 1.500 1_545 S
C791 H805 0.952 1_545 S
C791 H806 0.972 . S
C791 H807 0.969 . S
C792 C793 1.370 . S
C792 C794 1.363 . S
C792 H808 0.931 . S
C793 C792 1.370 . S
C793 C797 1.408 . S
C794 C792 1.363 . S
C794 C795 1.370 . S
C794 C798 1.524 1_545 S
C795 C787 1.503 1_445 S
C795 C794 1.370 . S
C795 C796 1.403 1_455 S
C796 C795 1.403 1_655 S
C796 C797 1.404 1_655 S
C796 C799 1.539 . S
C797 C793 1.408 . S
C797 C796 1.404 1_455 S
C797 H809 0.930 1_455 S
C798 C794 1.524 1_565 S
C798 H810 0.956 . S
C798 H811 0.961 . S
C798 H812 0.961 1_565 S
C799 C796 1.539 . S
C799 H813 0.958 . S
C799 H814 0.961 . S
C799 H815 0.960 . S
H800 C784 0.931 . S
H801 C789 0.929 . S
H802 C790 0.960 . S
H803 C790 0.962 . S
H804 C790 0.960 . S
H805 C791 0.952 1_565 S
H806 C791 0.972 . S
H807 C791 0.969 . S
H808 C792 0.931 . S
H809 C797 0.930 1_655 S
H810 C798 0.956 . S
H811 C798 0.961 . S
H812 C798 0.961 1_545 S
H813 C799 0.958 . S
H814 C799 0.961 . S
H815 C799 0.960 . S
C816 C817 1.391 . S
C816 C818 1.394 . S
C816 H832 0.931 . S
C817 C816 1.391 . S
C817 C821 1.376 . S
C818 C816 1.394 . S
C818 C819 1.369 . S
C818 C822 1.531 . S
C819 C818 1.369 . S
C819 C820 1.410 . S
C819 C827 1.503 . S
C820 C819 1.410 . S
C820 C821 1.392 . S
C820 C823 1.511 . S
C821 C817 1.376 . S
C821 C820 1.392 . S
C821 H833 0.929 . S
C822 C818 1.531 . S
C822 H834 0.960 . S
C822 H835 0.962 . S
C822 H836 0.960 . S
C823 C820 1.511 . S
C823 H837 0.961 . S
C823 H838 0.961 . S
C823 H839 0.961 . S
C824 C825 1.370 . S
C824 C826 1.363 . S
C824 H840 0.931 . S
C825 C824 1.370 . S
C825 C829 1.408 . S
C826 C824 1.363 . S
C826 C827 1.370 . S
C826 C830 1.524 . S
C827 C819 1.503 . S
C827 C826 1.370 . S
C827 C828 1.403 . S
C828 C827 1.403 . S
C828 C829 1.404 . S
C828 C831 1.539 . S
C829 C825 1.408 . S
C829 C828 1.404 . S
C829 H841 0.930 . S
C830 C826 1.524 . S
C830 H842 0.956 . S
C830 H843 0.961 . S
C830 H844 0.961 . S
C831 C828 1.539 . S
C831 H845 0.958 . S
C831 H846 0.961 . S
C831 H847 0.960 . S
H832 C816 0.931 . S
H833 C821 0.929 . S
H834 C822 0.960 . S
H835 C822 0.962 . S
H836 C822 0.960 . S
H837 C823 0.961 . S
H838 C823 0.961 . S
H839 C823 0.961 . S
H840 C824 0.931 . S
H841 C829 0.930 . S
H842 C830 0.956 . S
H843 C830 0.961 . S
H844 C830 0.961 . S
H845 C831 0.958 . S
H846 C831 0.961 . S
H847 C831 0.960 . S
C848 C849 1.391 . S
C848 C850 1.394 . S
C848 H864 0.931 . S
C849 C848 1.391 . S
C849 C853 1.376 . S
C850 C848 1.394 . S
C850 C851 1.369 . S
C850 C854 1.531 . S
C851 C850 1.369 . S
C851 C852 1.410 . S
C851 C859 1.503 . S
C852 C851 1.410 . S
C852 C853 1.392 . S
C852 C855 1.511 . S
C853 C849 1.376 . S
C853 C852 1.392 . S
C853 H865 0.929 . S
C854 C850 1.531 . S
C854 H866 0.960 . S
C854 H867 0.962 . S
C854 H868 0.960 . S
C855 C852 1.511 . S
C855 H869 0.961 . S
C855 H870 0.961 . S
C855 H871 0.961 . S
C856 C857 1.370 . S
C856 C858 1.363 . S
C856 H872 0.931 . S
C857 C856 1.370 . S
C857 C861 1.408 . S
C858 C856 1.363 . S
C858 C859 1.370 . S
C858 C862 1.524 . S
C859 C851 1.503 . S
C859 C858 1.370 . S
C859 C860 1.403 . S
C860 C859 1.403 . S
C860 C861 1.404 . S
C860 C863 1.539 . S
C861 C857 1.408 . S
C861 C860 1.404 . S
C861 H873 0.930 . S
C862 C858 1.524 . S
C862 H874 0.956 . S
C862 H875 0.961 . S
C862 H876 0.961 . S
C863 C860 1.539 . S
C863 H877 0.958 . S
C863 H878 0.961 . S
C863 H879 0.960 . S
H864 C848 0.931 . S
H865 C853 0.929 . S
H866 C854 0.960 . S
H867 C854 0.962 . S
H868 C854 0.960 . S
H869 C855 0.961 . S
H870 C855 0.961 . S
H871 C855 0.961 . S
H872 C856 0.931 . S
H873 C861 0.930 . S
H874 C862 0.956 . S
H875 C862 0.961 . S
H876 C862 0.961 . S
H877 C863 0.958 . S
H878 C863 0.961 . S
H879 C863 0.960 . S
C880 C881 1.391 . S
C880 C882 1.394 1_545 S
C880 H896 0.931 1_545 S
C881 C880 1.391 . S
C881 C885 1.376 . S
C882 C880 1.394 1_565 S
C882 C883 1.369 1_565 S
C882 C886 1.531 . S
C883 C882 1.369 1_545 S
C883 C884 1.410 . S
C883 C891 1.503 1_445 S
C884 C883 1.410 . S
C884 C885 1.392 . S
C884 C887 1.511 1_455 S
C885 C881 1.376 . S
C885 C884 1.392 . S
C885 H897 0.929 . S
C886 C882 1.531 . S
C886 H898 0.960 . S
C886 H899 0.962 . S
C886 H900 0.960 . S
C887 C884 1.511 1_655 S
C887 H901 0.961 1_655 S
C887 H902 0.961 . S
C887 H903 0.961 . S
C888 C889 1.370 . S
C888 C890 1.359 1_565 S
C888 H904 0.931 . S
C889 C888 1.370 . S
C889 C893 1.408 . S
C890 C888 1.359 1_545 S
C890 C891 1.367 1_545 S
C890 C894 1.532 . S
C891 C883 1.503 1_665 S
C891 C890 1.367 1_565 S
C891 C892 1.403 . S
C892 C891 1.403 . S
C892 C893 1.404 . S
C892 C895 1.539 . S
C893 C889 1.408 . S
C893 C892 1.404 . S
C893 H905 0.930 . S
C894 C890 1.532 . S
C894 H906 0.956 . S
C894 H907 0.961 . S
C894 H908 0.961 . S
C895 C892 1.539 . S
C895 H909 0.958 1_655 S
C895 H910 0.961 . S
C895 H911 0.960 1_655 S
H896 C880 0.931 1_565 S
H897 C885 0.929 . S
H898 C886 0.960 . S
H899 C886 0.962 . S
H900 C886 0.960 . S
H901 C887 0.961 1_455 S
H902 C887 0.961 . S
H903 C887 0.961 . S
H904 C888 0.931 . S
H905 C893 0.930 . S
H906 C894 0.956 . S
H907 C894 0.961 . S
H908 C894 0.961 . S
H909 C895 0.958 1_455 S
H910 C895 0.961 . S
H911 C895 0.960 1_455 S
C273 C77 0.470 . S
C281 C9 0.464 . S
C305 C111 0.547 . S
C313 C43 0.500 . S
C337 C213 0.495 . S
C345 C145 0.477 . S
C369 C247 0.583 . S
C377 C179 0.516 . S
C401 C156 2.417 . S
C409 C33 2.414 . S
C433 C190 2.418 . S
C441 C67 2.409 . S
C465 C224 2.417 . S
C473 C101 2.414 . S
C497 C135 2.414 . S
C505 C258 2.413 . S
C529 C20 2.410 . S
C537 C169 2.411 . S
C561 C54 2.422 . S
C569 C203 2.409 . S
C593 C88 2.415 . S
C601 C237 2.415 . S
C625 C271 2.398 . S
C633 C122 2.422 . S
C657 C2 1.748 . S
C665 C172 1.723 . S
C689 C206 1.749 . S
C697 C36 1.729 . S
C721 C240 1.738 . S
C729 C70 1.736 . S
C753 C138 1.748 . S
C761 C104 1.730 . S
C785 C73 0.536 . S
C793 C5 0.407 . S
C817 C39 0.536 . S
C825 C107 0.404 . S
C849 C209 0.528 . S
C857 C141 0.392 . S
C881 C175 0.431 . S
C889 C243 0.469 . S
