# Generated by pormake.
# Topology umn, (4)-cn, num edge types: 1
# Building blocks:
#     Node 0, Type 0, BuildingBlock: TATPOV_clean_sbu_0, # of connection points: 4
#     Node 1, Type 0, BuildingBlock: TATPOV_clean_sbu_0, # of connection points: 4
#     Node 2, Type 0, BuildingBlock: TATPOV_clean_sbu_0, # of connection points: 4
#     Node 3, Type 0, BuildingBlock: TATPOV_clean_sbu_0, # of connection points: 4
#     Node 4, Type 0, BuildingBlock: TATPOV_clean_sbu_0, # of connection points: 4
#     Node 5, Type 0, BuildingBlock: TATPOV_clean_sbu_0, # of connection points: 4
#     Node 6, Type 0, BuildingBlock: TATPOV_clean_sbu_0, # of connection points: 4
#     Node 7, Type 0, BuildingBlock: TATPOV_clean_sbu_0, # of connection points: 4
#     Node 8, Type 0, BuildingBlock: TATPOV_clean_sbu_0, # of connection points: 4
#     Node 9, Type 0, BuildingBlock: TATPOV_clean_sbu_0, # of connection points: 4
#     Node 10, Type 0, BuildingBlock: TATPOV_clean_sbu_0, # of connection points: 4
#     Node 11, Type 0, BuildingBlock: TATPOV_clean_sbu_0, # of connection points: 4
#     Node 12, Type 0, BuildingBlock: TATPOV_clean_sbu_0, # of connection points: 4
#     Node 13, Type 0, BuildingBlock: TATPOV_clean_sbu_0, # of connection points: 4
#     Node 14, Type 0, BuildingBlock: TATPOV_clean_sbu_0, # of connection points: 4
#     Node 15, Type 0, BuildingBlock: TATPOV_clean_sbu_0, # of connection points: 4
#     Node 16, Type 0, BuildingBlock: TATPOV_clean_sbu_0, # of connection points: 4
#     Node 17, Type 0, BuildingBlock: TATPOV_clean_sbu_0, # of connection points: 4
#     Node 18, Type 0, BuildingBlock: TATPOV_clean_sbu_0, # of connection points: 4
#     Node 19, Type 0, BuildingBlock: TATPOV_clean_sbu_0, # of connection points: 4
#     Node 20, Type 0, BuildingBlock: TATPOV_clean_sbu_0, # of connection points: 4
#     Node 21, Type 0, BuildingBlock: TATPOV_clean_sbu_0, # of connection points: 4
#     Node 22, Type 0, BuildingBlock: TATPOV_clean_sbu_0, # of connection points: 4
#     Node 23, Type 0, BuildingBlock: TATPOV_clean_sbu_0, # of connection points: 4
#     Node 24, Type 0, BuildingBlock: TATPOV_clean_sbu_0, # of connection points: 4
#     Node 25, Type 0, BuildingBlock: TATPOV_clean_sbu_0, # of connection points: 4
#     Node 26, Type 0, BuildingBlock: TATPOV_clean_sbu_0, # of connection points: 4
#     Node 27, Type 0, BuildingBlock: TATPOV_clean_sbu_0, # of connection points: 4
#     Node 28, Type 0, BuildingBlock: TATPOV_clean_sbu_0, # of connection points: 4
#     Node 29, Type 0, BuildingBlock: TATPOV_clean_sbu_0, # of connection points: 4
#     Node 30, Type 0, BuildingBlock: TATPOV_clean_sbu_0, # of connection points: 4
#     Node 31, Type 0, BuildingBlock: TATPOV_clean_sbu_0, # of connection points: 4
#     Node 32, Type 0, BuildingBlock: TATPOV_clean_sbu_0, # of connection points: 4
#     Node 33, Type 0, BuildingBlock: TATPOV_clean_sbu_0, # of connection points: 4
#     Node 34, Type 0, BuildingBlock: TATPOV_clean_sbu_0, # of connection points: 4
#     Node 35, Type 0, BuildingBlock: TATPOV_clean_sbu_0, # of connection points: 4
#     Edge 36, Type (0, 0), BuildingBlock: KIFKEQ_clean_linker_1, # of connection points: 2
#     Edge 37, Type (0, 0), BuildingBlock: KIFKEQ_clean_linker_1, # of connection points: 2
#     Edge 38, Type (0, 0), BuildingBlock: KIFKEQ_clean_linker_1, # of connection points: 2
#     Edge 39, Type (0, 0), BuildingBlock: KIFKEQ_clean_linker_1, # of connection points: 2
#     Edge 40, Type (0, 0), BuildingBlock: KIFKEQ_clean_linker_1, # of connection points: 2
#     Edge 41, Type (0, 0), BuildingBlock: KIFKEQ_clean_linker_1, # of connection points: 2
#     Edge 42, Type (0, 0), BuildingBlock: KIFKEQ_clean_linker_1, # of connection points: 2
#     Edge 43, Type (0, 0), BuildingBlock: KIFKEQ_clean_linker_1, # of connection points: 2
#     Edge 44, Type (0, 0), BuildingBlock: KIFKEQ_clean_linker_1, # of connection points: 2
#     Edge 45, Type (0, 0), BuildingBlock: KIFKEQ_clean_linker_1, # of connection points: 2
#     Edge 46, Type (0, 0), BuildingBlock: KIFKEQ_clean_linker_1, # of connection points: 2
#     Edge 47, Type (0, 0), BuildingBlock: KIFKEQ_clean_linker_1, # of connection points: 2
#     Edge 48, Type (0, 0), BuildingBlock: KIFKEQ_clean_linker_1, # of connection points: 2
#     Edge 49, Type (0, 0), BuildingBlock: KIFKEQ_clean_linker_1, # of connection points: 2
#     Edge 50, Type (0, 0), BuildingBlock: KIFKEQ_clean_linker_1, # of connection points: 2
#     Edge 51, Type (0, 0), BuildingBlock: KIFKEQ_clean_linker_1, # of connection points: 2
#     Edge 52, Type (0, 0), BuildingBlock: KIFKEQ_clean_linker_1, # of connection points: 2
#     Edge 53, Type (0, 0), BuildingBlock: KIFKEQ_clean_linker_1, # of connection points: 2
#     Edge 54, Type (0, 0), BuildingBlock: KIFKEQ_clean_linker_1, # of connection points: 2
#     Edge 55, Type (0, 0), BuildingBlock: KIFKEQ_clean_linker_1, # of connection points: 2
#     Edge 56, Type (0, 0), BuildingBlock: KIFKEQ_clean_linker_1, # of connection points: 2
#     Edge 57, Type (0, 0), BuildingBlock: KIFKEQ_clean_linker_1, # of connection points: 2
#     Edge 58, Type (0, 0), BuildingBlock: KIFKEQ_clean_linker_1, # of connection points: 2
#     Edge 59, Type (0, 0), BuildingBlock: KIFKEQ_clean_linker_1, # of connection points: 2
#     Edge 60, Type (0, 0), BuildingBlock: KIFKEQ_clean_linker_1, # of connection points: 2
#     Edge 61, Type (0, 0), BuildingBlock: KIFKEQ_clean_linker_1, # of connection points: 2
#     Edge 62, Type (0, 0), BuildingBlock: KIFKEQ_clean_linker_1, # of connection points: 2
#     Edge 63, Type (0, 0), BuildingBlock: KIFKEQ_clean_linker_1, # of connection points: 2
#     Edge 64, Type (0, 0), BuildingBlock: KIFKEQ_clean_linker_1, # of connection points: 2
#     Edge 65, Type (0, 0), BuildingBlock: KIFKEQ_clean_linker_1, # of connection points: 2
#     Edge 66, Type (0, 0), BuildingBlock: KIFKEQ_clean_linker_1, # of connection points: 2
#     Edge 67, Type (0, 0), BuildingBlock: KIFKEQ_clean_linker_1, # of connection points: 2
#     Edge 68, Type (0, 0), BuildingBlock: KIFKEQ_clean_linker_1, # of connection points: 2
#     Edge 69, Type (0, 0), BuildingBlock: KIFKEQ_clean_linker_1, # of connection points: 2
#     Edge 70, Type (0, 0), BuildingBlock: KIFKEQ_clean_linker_1, # of connection points: 2
#     Edge 71, Type (0, 0), BuildingBlock: KIFKEQ_clean_linker_1, # of connection points: 2
#     Edge 72, Type (0, 0), BuildingBlock: KIFKEQ_clean_linker_1, # of connection points: 2
#     Edge 73, Type (0, 0), BuildingBlock: KIFKEQ_clean_linker_1, # of connection points: 2
#     Edge 74, Type (0, 0), BuildingBlock: KIFKEQ_clean_linker_1, # of connection points: 2
#     Edge 75, Type (0, 0), BuildingBlock: KIFKEQ_clean_linker_1, # of connection points: 2
#     Edge 76, Type (0, 0), BuildingBlock: KIFKEQ_clean_linker_1, # of connection points: 2
#     Edge 77, Type (0, 0), BuildingBlock: KIFKEQ_clean_linker_1, # of connection points: 2
#     Edge 78, Type (0, 0), BuildingBlock: KIFKEQ_clean_linker_1, # of connection points: 2
#     Edge 79, Type (0, 0), BuildingBlock: KIFKEQ_clean_linker_1, # of connection points: 2
#     Edge 80, Type (0, 0), BuildingBlock: KIFKEQ_clean_linker_1, # of connection points: 2
#     Edge 81, Type (0, 0), BuildingBlock: KIFKEQ_clean_linker_1, # of connection points: 2
#     Edge 82, Type (0, 0), BuildingBlock: KIFKEQ_clean_linker_1, # of connection points: 2
#     Edge 83, Type (0, 0), BuildingBlock: KIFKEQ_clean_linker_1, # of connection points: 2
#     Edge 84, Type (0, 0), BuildingBlock: KIFKEQ_clean_linker_1, # of connection points: 2
#     Edge 85, Type (0, 0), BuildingBlock: KIFKEQ_clean_linker_1, # of connection points: 2
#     Edge 86, Type (0, 0), BuildingBlock: KIFKEQ_clean_linker_1, # of connection points: 2
#     Edge 87, Type (0, 0), BuildingBlock: KIFKEQ_clean_linker_1, # of connection points: 2
#     Edge 88, Type (0, 0), BuildingBlock: KIFKEQ_clean_linker_1, # of connection points: 2
#     Edge 89, Type (0, 0), BuildingBlock: KIFKEQ_clean_linker_1, # of connection points: 2
#     Edge 90, Type (0, 0), BuildingBlock: KIFKEQ_clean_linker_1, # of connection points: 2
#     Edge 91, Type (0, 0), BuildingBlock: KIFKEQ_clean_linker_1, # of connection points: 2
#     Edge 92, Type (0, 0), BuildingBlock: KIFKEQ_clean_linker_1, # of connection points: 2
#     Edge 93, Type (0, 0), BuildingBlock: KIFKEQ_clean_linker_1, # of connection points: 2
#     Edge 94, Type (0, 0), BuildingBlock: KIFKEQ_clean_linker_1, # of connection points: 2
#     Edge 95, Type (0, 0), BuildingBlock: KIFKEQ_clean_linker_1, # of connection points: 2
#     Edge 96, Type (0, 0), BuildingBlock: KIFKEQ_clean_linker_1, # of connection points: 2
#     Edge 97, Type (0, 0), BuildingBlock: KIFKEQ_clean_linker_1, # of connection points: 2
#     Edge 98, Type (0, 0), BuildingBlock: KIFKEQ_clean_linker_1, # of connection points: 2
#     Edge 99, Type (0, 0), BuildingBlock: KIFKEQ_clean_linker_1, # of connection points: 2
#     Edge 100, Type (0, 0), BuildingBlock: KIFKEQ_clean_linker_1, # of connection points: 2
#     Edge 101, Type (0, 0), BuildingBlock: KIFKEQ_clean_linker_1, # of connection points: 2
#     Edge 102, Type (0, 0), BuildingBlock: KIFKEQ_clean_linker_1, # of connection points: 2
#     Edge 103, Type (0, 0), BuildingBlock: KIFKEQ_clean_linker_1, # of connection points: 2
#     Edge 104, Type (0, 0), BuildingBlock: KIFKEQ_clean_linker_1, # of connection points: 2
#     Edge 105, Type (0, 0), BuildingBlock: KIFKEQ_clean_linker_1, # of connection points: 2
#     Edge 106, Type (0, 0), BuildingBlock: KIFKEQ_clean_linker_1, # of connection points: 2
#     Edge 107, Type (0, 0), BuildingBlock: KIFKEQ_clean_linker_1, # of connection points: 2
# Relax obj value: 0.244
# Max RMSD: 0.289
# Mean RMSD: 0.289
data_MOF--net-umn--node1-TATPOV_clean_sbu_0--edge1-KIFKEQ_clean_linker_1
_symmetry_space_group_name_H-M    P1
_symmetry_Int_Tables_number       1
_symmetry_cell_setting            triclinic
loop_
_symmetry_equiv_pos_as_xyz
'x, y, z'
_cell_length_a     84.564609
_cell_length_b     84.564105
_cell_length_c     37.186962
_cell_angle_alpha  90.04484
_cell_angle_beta   89.95053
_cell_angle_gamma 120.07184
loop_
_atom_site_label
_atom_site_type_symbol
_atom_site_fract_x
_atom_site_fract_y
_atom_site_fract_z
_atom_type_partial_charge
Zn0 Zn 0.34094 0.04727 0.2183 0.0
Zn1 Zn 0.34223 0.07756 0.20454 0.0
O2 O 0.36225 0.0772 0.17151 0.0
O3 O 0.36304 0.05286 0.1893 0.0
O4 O 0.34407 0.10162 0.19374 0.0
O5 O 0.34171 0.05192 0.27186 0.0
O6 O 0.34471 0.07869 0.25971 0.0
C7 C 0.36914 0.0668 0.16932 0.0
C8 C 0.30705 0.04173 0.19114 0.0
O9 O 0.31532 0.05905 0.19391 0.0
O10 O 0.31579 0.03335 0.19603 0.0
C11 C 0.34196 0.1062 0.16239 0.0
O12 O 0.33896 0.09503 0.13534 0.0
C13 C 0.34298 0.06673 0.28263 0.0
Zn14 Zn 0.9089 0.30342 0.2596 0.0
Zn15 Zn 0.88908 0.27044 0.23712 0.0
O16 O 0.88264 0.28731 0.2067 0.0
O17 O 0.89672 0.31453 0.23152 0.0
O18 O 0.86969 0.24512 0.22273 0.0
O19 O 0.90461 0.29691 0.31216 0.0
O20 O 0.88866 0.26867 0.29278 0.0
C21 C 0.88641 0.30396 0.20714 0.0
C22 C 0.92856 0.28808 0.22127 0.0
O23 O 0.91325 0.27331 0.22013 0.0
O24 O 0.92984 0.30237 0.23522 0.0
C25 C 0.87182 0.23139 0.22697 0.0
O26 O 0.88732 0.23385 0.24009 0.0
C27 C 0.89569 0.27994 0.31873 0.0
Zn28 Zn 0.69923 0.60948 0.26435 0.0
Zn29 Zn 0.73201 0.62698 0.24058 0.0
O30 O 0.71667 0.60423 0.20709 0.0
O31 O 0.69006 0.58735 0.23317 0.0
O32 O 0.75818 0.63631 0.22527 0.0
O33 O 0.70587 0.61049 0.31647 0.0
O34 O 0.73394 0.62669 0.29636 0.0
C35 C 0.70074 0.59 0.20714 0.0
C36 C 0.7101 0.64505 0.23154 0.0
O37 O 0.72587 0.64678 0.22849 0.0
O38 O 0.69691 0.63056 0.24451 0.0
C39 C 0.76805 0.65099 0.20787 0.0
O40 O 0.76103 0.66104 0.1977 0.0
C41 C 0.7228 0.62027 0.3227 0.0
Zn42 Zn 0.08987 0.37095 0.21734 0.0
Zn43 Zn 0.09256 0.34836 0.26288 0.0
O44 O 0.09542 0.36978 0.29384 0.0
O45 O 0.09248 0.38863 0.25749 0.0
O46 O 0.10204 0.33593 0.29501 0.0
O47 O 0.10992 0.3736 0.18318 0.0
O48 O 0.10734 0.35133 0.21723 0.0
C49 C 0.09456 0.38424 0.28898 0.0
C50 C 0.05732 0.33353 0.22604 0.0
O51 O 0.06587 0.33091 0.25139 0.0
O52 O 0.06475 0.34849 0.20874 0.0
C53 C 0.105 0.32384 0.28159 0.0
O54 O 0.09876 0.31753 0.24926 0.0
C55 C 0.11345 0.36091 0.18887 0.0
Zn56 Zn 0.6129 0.70973 0.22417 0.0
Zn57 Zn 0.63289 0.73542 0.27095 0.0
O58 O 0.61136 0.7156 0.3003 0.0
O59 O 0.59465 0.69349 0.26237 0.0
O60 O 0.64321 0.75772 0.30246 0.0
O61 O 0.60955 0.72585 0.18791 0.0
O62 O 0.63042 0.74626 0.22339 0.0
C63 C 0.5978 0.69973 0.29416 0.0
C64 C 0.65105 0.71747 0.23766 0.0
O65 O 0.65214 0.72817 0.26288 0.0
O66 O 0.63665 0.70916 0.21877 0.0
C67 C 0.65551 0.77271 0.28909 0.0
O68 O 0.6629 0.77245 0.25818 0.0
C69 C 0.62164 0.7423 0.1939 0.0
Zn70 Zn 0.29266 0.95076 0.28619 0.0
Zn71 Zn 0.26408 0.92023 0.29911 0.0
O72 O 0.28511 0.92086 0.3309 0.0
O73 O 0.30989 0.94561 0.313 0.0
O74 O 0.24178 0.89616 0.31167 0.0
O75 O 0.28837 0.9465 0.23281 0.0
O76 O 0.26495 0.91923 0.24368 0.0
C77 C 0.30243 0.9315 0.33255 0.0
C78 C 0.26479 0.95628 0.31342 0.0
O79 O 0.25592 0.93901 0.30945 0.0
O80 O 0.282 0.96483 0.30981 0.0
C81 C 0.23185 0.89522 0.33818 0.0
O82 O 0.23686 0.90981 0.35811 0.0
C83 C 0.27501 0.93172 0.22137 0.0
Zn84 Zn 0.61539 0.89987 0.72619 0.0
Zn85 Zn 0.64173 0.90075 0.76711 0.0
O86 O 0.62096 0.8967 0.8011 0.0
O87 O 0.59817 0.89457 0.76914 0.0
O88 O 0.65657 0.89348 0.79759 0.0
O89 O 0.61459 0.8811 0.6905 0.0
O90 O 0.63848 0.88577 0.72174 0.0
C91 C 0.60504 0.89474 0.79953 0.0
C92 C 0.65146 0.93505 0.73078 0.0
O93 O 0.65664 0.92737 0.75362 0.0
O94 O 0.63561 0.92634 0.71688 0.0
C95 C 0.6685 0.89063 0.78298 0.0
O96 O 0.67344 0.89594 0.74964 0.0
C97 C 0.62827 0.87893 0.69438 0.0
Zn98 Zn 0.08303 0.72105 0.7523 0.0
Zn99 Zn 0.09427 0.74783 0.79551 0.0
O100 O 0.09403 0.72669 0.82561 0.0
O101 O 0.08268 0.70323 0.7888 0.0
O102 O 0.11003 0.77083 0.82371 0.0
O103 O 0.10139 0.73264 0.71215 0.0
O104 O 0.1042 0.75582 0.74354 0.0
C105 C 0.08841 0.70979 0.8198 0.0
C106 C 0.05805 0.73549 0.76826 0.0
O107 O 0.06889 0.74479 0.79348 0.0
O108 O 0.0615 0.72543 0.74824 0.0
C109 C 0.10932 0.78514 0.8163 0.0
O110 O 0.09767 0.78421 0.79186 0.0
C111 C 0.10656 0.74949 0.71413 0.0
Zn112 Zn 0.28313 0.37802 0.72015 0.0
Zn113 Zn 0.25839 0.35865 0.76794 0.0
O114 O 0.27892 0.38058 0.79518 0.0
O115 O 0.30035 0.39717 0.75603 0.0
O116 O 0.23695 0.34995 0.80117 0.0
O117 O 0.2665 0.38058 0.68398 0.0
O118 O 0.24675 0.3597 0.72036 0.0
C119 C 0.29462 0.3942 0.78818 0.0
C120 C 0.27584 0.34006 0.73567 0.0
O121 O 0.26538 0.33913 0.76127 0.0
O122 O 0.28376 0.35426 0.71609 0.0
C123 C 0.22138 0.33678 0.79225 0.0
O124 O 0.22004 0.3271 0.76357 0.0
C125 C 0.25027 0.3681 0.69047 0.0
Zn126 Zn 0.92921 0.62723 0.74437 0.0
Zn127 Zn 0.9036 0.6328 0.72418 0.0
O128 O 0.90214 0.61169 0.69145 0.0
O129 O 0.9216 0.60468 0.71519 0.0
O130 O 0.88132 0.63429 0.71136 0.0
O131 O 0.92442 0.62751 0.79744 0.0
O132 O 0.90276 0.63286 0.78007 0.0
C133 C 0.90989 0.60201 0.69125 0.0
C134 C 0.94161 0.66251 0.71039 0.0
O135 O 0.92477 0.65765 0.70986 0.0
O136 O 0.94675 0.6517 0.72185 0.0
C137 C 0.88073 0.64824 0.72231 0.0
O138 O 0.89462 0.66087 0.74061 0.0
C139 C 0.91221 0.63144 0.80524 0.0
Zn140 Zn 0.38817 0.29661 0.75628 0.0
Zn141 Zn 0.37003 0.26322 0.73537 0.0
O142 O 0.39208 0.27784 0.70005 0.0
O143 O 0.41003 0.30468 0.72435 0.0
O144 O 0.35983 0.23674 0.72206 0.0
O145 O 0.38761 0.29092 0.80893 0.0
O146 O 0.37132 0.26245 0.79108 0.0
C147 C 0.40661 0.29351 0.69887 0.0
C148 C 0.35182 0.2848 0.72556 0.0
O149 O 0.35003 0.26897 0.72394 0.0
O150 O 0.36663 0.29835 0.73652 0.0
C151 C 0.35844 0.23095 0.69 0.0
O152 O 0.36381 0.24267 0.66327 0.0
C153 C 0.37801 0.27412 0.81649 0.0
Zn154 Zn 0.69057 0.09089 0.76043 0.0
Zn155 Zn 0.72321 0.10637 0.73543 0.0
O156 O 0.70789 0.11445 0.70428 0.0
O157 O 0.68132 0.10435 0.73068 0.0
O158 O 0.74902 0.12363 0.71976 0.0
O159 O 0.69791 0.09584 0.81263 0.0
O160 O 0.72569 0.10762 0.79104 0.0
C161 C 0.69204 0.11284 0.70494 0.0
C162 C 0.70124 0.06674 0.72345 0.0
O163 O 0.71701 0.08083 0.72019 0.0
O164 O 0.68835 0.0679 0.7383 0.0
C165 C 0.76169 0.1197 0.72031 0.0
O166 O 0.75787 0.10323 0.73006 0.0
C167 C 0.71489 0.10269 0.81793 0.0
Zn168 Zn 0.01025 0.3828 0.5564 0.0
Zn169 Zn 0.01065 0.41247 0.54247 0.0
O170 O 0.03022 0.41149 0.50875 0.0
O171 O 0.03226 0.38801 0.52776 0.0
O172 O 0.01262 0.43647 0.52871 0.0
O173 O 0.01085 0.38722 0.60984 0.0
O174 O 0.01338 0.41381 0.5979 0.0
C175 C 0.03757 0.40147 0.50674 0.0
C176 C 0.97589 0.37628 0.53022 0.0
O177 O 0.98369 0.39358 0.53324 0.0
O178 O 0.98513 0.36837 0.5343 0.0
C179 C 0.00808 0.44527 0.55008 0.0
O180 O 0.00176 0.43855 0.58212 0.0
C181 C 0.01175 0.40184 0.62074 0.0
Zn182 Zn 0.60159 0.61813 0.55992 0.0
Zn183 Zn 0.57415 0.58741 0.54412 0.0
O184 O 0.57299 0.60703 0.51058 0.0
O185 O 0.59456 0.63344 0.53117 0.0
O186 O 0.552 0.56367 0.52958 0.0
O187 O 0.59636 0.61353 0.61292 0.0
O188 O 0.57167 0.58762 0.59957 0.0
C189 C 0.58162 0.62451 0.50938 0.0
C190 C 0.61252 0.59357 0.53398 0.0
O191 O 0.59539 0.5826 0.53589 0.0
O192 O 0.61878 0.6105 0.53892 0.0
C193 C 0.55266 0.55504 0.50214 0.0
O194 O 0.56769 0.56215 0.48281 0.0
C195 C 0.5826 0.59872 0.62304 0.0
Zn196 Zn 0.38916 0.95751 0.61345 0.0
Zn197 Zn 0.41377 0.98218 0.56988 0.0
O198 O 0.39607 0.96111 0.53676 0.0
O199 O 0.37488 0.94058 0.5721 0.0
O200 O 0.43525 0.99771 0.53791 0.0
O201 O 0.40738 0.95526 0.64541 0.0
O202 O 0.42669 0.97894 0.61364 0.0
C203 C 0.38115 0.94604 0.54079 0.0
C204 C 0.39086 0.9934 0.61036 0.0
O205 O 0.40253 0.99747 0.58524 0.0
O206 O 0.38406 0.97802 0.62604 0.0
C207 C 0.4493 0.01124 0.55155 0.0
O208 O 0.44857 0.01584 0.58502 0.0
C209 C 0.42343 0.96851 0.64065 0.0
Zn210 Zn 0.72248 0.67957 0.62326 0.0
Zn211 Zn 0.74923 0.67505 0.64158 0.0
O212 O 0.75005 0.69511 0.67644 0.0
O213 O 0.72956 0.70124 0.65481 0.0
O214 O 0.77101 0.67306 0.65684 0.0
O215 O 0.72958 0.68145 0.57083 0.0
O216 O 0.75346 0.67938 0.58688 0.0
C217 C 0.74182 0.70431 0.67773 0.0
C218 C 0.71032 0.64319 0.6466 0.0
O219 O 0.72741 0.64904 0.64665 0.0
O220 O 0.70451 0.65419 0.64125 0.0
C221 C 0.7698 0.66045 0.67725 0.0
O222 O 0.75378 0.64833 0.69017 0.0
C223 C 0.74355 0.68043 0.56225 0.0
Zn224 Zn 0.27207 0.02861 0.58324 0.0
Zn225 Zn 0.28913 0.06216 0.60347 0.0
O226 O 0.26582 0.0481 0.63602 0.0
O227 O 0.2497 0.02058 0.61308 0.0
O228 O 0.29894 0.08871 0.61592 0.0
O229 O 0.27351 0.03399 0.5304 0.0
O230 O 0.2893 0.06263 0.54756 0.0
C231 C 0.25169 0.03213 0.63687 0.0
C232 C 0.30727 0.04057 0.61841 0.0
O233 O 0.30868 0.05627 0.6192 0.0
O234 O 0.29304 0.02696 0.60572 0.0
C235 C 0.30827 0.09619 0.64403 0.0
O236 O 0.31164 0.08629 0.66661 0.0
C237 C 0.28314 0.05073 0.52247 0.0
Zn238 Zn 0.95316 0.2714 0.61572 0.0
Zn239 Zn 0.92255 0.24358 0.63201 0.0
O240 O 0.94229 0.24261 0.66522 0.0
O241 O 0.96855 0.26457 0.64488 0.0
O242 O 0.89905 0.22112 0.64616 0.0
O243 O 0.94847 0.2659 0.56275 0.0
O244 O 0.92278 0.24109 0.57671 0.0
C245 C 0.95977 0.25149 0.66648 0.0
C246 C 0.92807 0.28171 0.64217 0.0
O247 O 0.91728 0.26452 0.64069 0.0
O248 O 0.94498 0.28821 0.63657 0.0
C249 C 0.89056 0.22116 0.67432 0.0
O250 O 0.89766 0.23582 0.69473 0.0
C251 C 0.93372 0.25196 0.55298 0.0
Zn252 Zn 0.32052 0.27467 0.12176 0.0
Zn253 Zn 0.32329 0.24645 0.1363 0.0
O254 O 0.30314 0.24501 0.17165 0.0
O255 O 0.29858 0.26704 0.15297 0.0
O256 O 0.32488 0.22406 0.14754 0.0
O257 O 0.31911 0.26931 0.06839 0.0
O258 O 0.31913 0.24401 0.08145 0.0
C259 C 0.29455 0.25384 0.1741 0.0
C260 C 0.35626 0.2845 0.14551 0.0
O261 O 0.3496 0.26728 0.14372 0.0
O262 O 0.34591 0.29118 0.14145 0.0
C263 C 0.33567 0.22121 0.12839 0.0
O264 O 0.34533 0.23305 0.10321 0.0
C265 C 0.31917 0.25505 0.05811 0.0
Zn266 Zn 0.72075 0.04094 0.11187 0.0
Zn267 Zn 0.74635 0.07214 0.13137 0.0
O268 O 0.74744 0.05267 0.16534 0.0
O269 O 0.72797 0.02608 0.14189 0.0
O270 O 0.76785 0.09597 0.14756 0.0
O271 O 0.72727 0.04652 0.05942 0.0
O272 O 0.75035 0.07291 0.07628 0.0
C273 C 0.73973 0.03522 0.16564 0.0
C274 C 0.70725 0.06378 0.13754 0.0
O275 O 0.72418 0.07567 0.13777 0.0
O276 O 0.70219 0.04721 0.13105 0.0
C277 C 0.76662 0.10535 0.17299 0.0
O278 O 0.75098 0.09917 0.18992 0.0
C279 C 0.74069 0.062 0.05129 0.0
Zn280 Zn 0.96449 0.71092 0.09492 0.0
Zn281 Zn 0.93244 0.70089 0.11593 0.0
O282 O 0.95084 0.72329 0.14824 0.0
O283 O 0.97773 0.7341 0.12282 0.0
O284 O 0.90744 0.69647 0.12931 0.0
O285 O 0.95936 0.70958 0.04196 0.0
O286 O 0.93124 0.69985 0.05979 0.0
C287 C 0.96797 0.73494 0.14769 0.0
C288 C 0.94602 0.67548 0.13073 0.0
O289 O 0.93224 0.67771 0.13129 0.0
O290 O 0.9612 0.68786 0.11841 0.0
C291 C 0.90044 0.69044 0.16006 0.0
O292 O 0.91003 0.68762 0.18436 0.0
C293 C 0.94263 0.70295 0.03444 0.0
Zn294 Zn 0.59859 0.97138 0.06798 0.0
Zn295 Zn 0.5702 0.97311 0.05247 0.0
O296 O 0.57058 0.95316 0.01943 0.0
O297 O 0.59195 0.94832 0.04099 0.0
O298 O 0.54618 0.97099 0.0397 0.0
O299 O 0.59474 0.97212 0.12134 0.0
O300 O 0.56956 0.97234 0.10812 0.0
C301 C 0.57924 0.94438 0.01867 0.0
C302 C 0.60653 0.0061 0.03756 0.0
O303 O 0.58933 -0.00068 0.04005 0.0
O304 O 0.61359 0.99625 0.04409 0.0
C305 C 0.54165 0.9821 0.05244 0.0
O306 O 0.553 0.99521 0.074 0.0
C307 C 0.58103 0.97325 0.13145 0.0
Zn308 Zn 0.03473 0.6121 0.10087 0.0
Zn309 Zn 0.01605 0.58659 0.05553 0.0
O310 O 0.03686 0.60746 0.02523 0.0
O311 O 0.05191 0.6299 0.06348 0.0
O312 O 0.00645 0.5643 0.02403 0.0
O313 O 0.04077 0.59781 0.13649 0.0
O314 O 0.01901 0.57635 0.10405 0.0
C315 C 0.04939 0.62387 0.03157 0.0
C316 C 0.99562 0.60129 0.09091 0.0
O317 O 0.99539 0.59187 0.06399 0.0
O318 O 0.00999 0.61007 0.10967 0.0
C319 C 0.99225 0.54965 0.03377 0.0
O320 O 0.98336 0.54992 0.06256 0.0
C321 C 0.02854 0.58122 0.13273 0.0
Zn322 Zn 0.37773 0.38823 0.05022 0.0
Zn323 Zn 0.40831 0.41623 0.0347 0.0
O324 O 0.38866 0.41728 1.00121 0.0
O325 O 0.36238 0.39506 0.02089 0.0
O326 O 0.43195 0.43835 0.01989 0.0
O327 O 0.38223 0.3937 0.10324 0.0
O328 O 0.4078 0.41882 0.09004 0.0
C329 C 0.37119 0.4083 0.99966 0.0
C330 C 0.40302 0.37811 0.02501 0.0
O331 O 0.41362 0.39532 0.02657 0.0
O332 O 0.38602 0.37144 0.02978 0.0
C333 C 0.44645 0.44227 0.03709 0.0
O334 O 0.44549 0.43197 0.06439 0.0
C335 C 0.39679 0.40774 0.11345 0.0
Zn336 Zn 0.70795 0.75748 0.96145 0.0
Zn337 Zn 0.6904 0.76475 0.91282 0.0
O338 O 0.71227 0.76544 0.88699 0.0
O339 O 0.72716 0.7586 0.92654 0.0
O340 O 0.68354 0.77872 0.87904 0.0
O341 O 0.71113 0.77683 0.99793 0.0
O342 O 0.69125 0.77714 0.96077 0.0
C343 C 0.72514 0.76231 0.89447 0.0
C344 C 0.66948 0.72855 0.94333 0.0
O345 O 0.66976 0.73857 0.91749 0.0
O346 O 0.6832 0.73394 0.96398 0.0
C347 C 0.67119 0.78245 0.88726 0.0
O348 O 0.661 0.77474 0.91575 0.0
C349 C 0.69927 0.78137 0.9911 0.0
Zn350 Zn 0.24795 0.98165 0.9289 0.0
Zn351 Zn 0.22749 0.94869 0.9065 0.0
O352 O 0.22123 0.96596 0.87687 0.0
O353 O 0.2359 0.99312 0.90185 0.0
O354 O 0.2082 0.92343 0.89065 0.0
O355 O 0.24394 0.97522 0.98137 0.0
O356 O 0.22733 0.94697 0.96236 0.0
C357 C 0.22531 0.9827 0.87763 0.0
C358 C 0.26694 0.96603 0.88945 0.0
O359 O 0.2515 0.95139 0.88881 0.0
O360 O 0.26858 0.98042 0.90364 0.0
C361 C 0.20521 0.90914 0.90764 0.0
O362 O 0.21505 0.91077 0.93619 0.0
C363 C 0.23474 0.9583 0.98814 0.0
Zn364 Zn 0.04277 0.27916 0.95416 0.0
Zn365 Zn 0.06827 0.30134 0.90836 0.0
O366 O 0.04941 0.28007 0.87729 0.0
O367 O 0.0275 0.26163 0.91403 0.0
O368 O 0.0905 0.31371 0.87677 0.0
O369 O 0.05985 0.27611 0.98842 0.0
O370 O 0.07979 0.29805 0.95404 0.0
C371 C 0.0339 0.26583 0.88244 0.0
C372 C 0.04823 0.31671 0.94511 0.0
O373 O 0.0594 0.3191 0.91984 0.0
O374 O 0.04049 0.30181 0.96261 0.0
C375 C 0.10531 0.32598 0.8908 0.0
O376 O 0.10479 0.33224 0.92287 0.0
C377 C 0.07618 0.28853 0.9825 0.0
Zn378 Zn 0.42818 0.04213 0.88322 0.0
Zn379 Zn 0.429 0.01794 0.92701 0.0
O380 O 0.43189 0.03885 0.95976 0.0
O381 O 0.43034 0.05893 0.92466 0.0
O382 O 0.43565 0.00335 0.95981 0.0
O383 O 0.44901 0.04489 0.85151 0.0
O384 O 0.4455 0.02162 0.88356 0.0
C385 C 0.43155 0.05365 0.95589 0.0
C386 C 0.39465 0.00557 0.88679 0.0
O387 O 0.40252 0.00192 0.91197 0.0
O388 O 0.40284 0.02093 0.87094 0.0
C389 C 0.43788 0.99066 0.94707 0.0
O390 O 0.43348 0.98573 0.91338 0.0
C391 C 0.45245 0.03211 0.85654 0.0
Zn392 Zn 0.93376 0.35473 0.9131 0.0
Zn393 Zn 0.9492 0.38785 0.93613 0.0
O394 O 0.92578 0.37161 0.96704 0.0
O395 O 0.91069 0.34455 0.9418 0.0
O396 O 0.95658 0.41342 0.95291 0.0
O397 O 0.93587 0.36119 0.86062 0.0
O398 O 0.95022 0.38947 0.88023 0.0
C399 C 0.91208 0.35536 0.96672 0.0
C400 C 0.96896 0.36795 0.94998 0.0
O401 O 0.96965 0.38331 0.95171 0.0
O402 O 0.95521 0.3542 0.93629 0.0
C403 C 0.96503 0.42761 0.93338 0.0
O404 O 0.9699 0.42604 0.90064 0.0
C405 C 0.94503 0.37815 0.85415 0.0
Zn406 Zn 0.64031 0.58306 0.91442 0.0
Zn407 Zn 0.60811 0.56178 0.93983 0.0
O408 O 0.62675 0.5577 0.97011 0.0
O409 O 0.65344 0.57333 0.94359 0.0
O410 O 0.58361 0.54231 0.95819 0.0
O411 O 0.63263 0.57645 0.86281 0.0
O412 O 0.60497 0.55929 0.88435 0.0
C413 C 0.6438 0.56297 0.96886 0.0
C414 C 0.62341 0.60161 0.95033 0.0
O415 O 0.60955 0.58574 0.95369 0.0
O416 O 0.63799 0.60382 0.93602 0.0
C417 C 0.5694 0.54349 0.95273 0.0
O418 O 0.57092 0.55762 0.93502 0.0
C419 C 0.61566 0.56626 0.85749 0.0
Zn420 Zn 0.9515 0.568 0.39234 0.0
Zn421 Zn 0.97295 0.56289 0.43491 0.0
O422 O 0.95074 0.55853 0.46591 0.0
O423 O 0.93263 0.5634 0.43116 0.0
O424 O 0.98456 0.55203 0.46568 0.0
O425 O 0.94964 0.55025 0.35341 0.0
O426 O 0.97171 0.55107 0.38566 0.0
C427 C 0.93639 0.55971 0.46188 0.0
C428 C 0.98853 0.59994 0.40643 0.0
O429 O 0.99076 0.59004 0.42933 0.0
O430 O 0.97381 0.59348 0.38846 0.0
C431 C -0.00168 0.55097 0.45535 0.0
O432 O 0.00644 0.55884 0.42504 0.0
C433 C 0.96252 0.54678 0.35658 0.0
Zn434 Zn 0.41686 0.35561 0.40978 0.0
Zn435 Zn 0.43523 0.38866 0.43336 0.0
O436 O 0.44064 0.3717 0.46601 0.0
O437 O 0.42897 0.34491 0.43973 0.0
O438 O 0.45379 0.4141 0.44932 0.0
O439 O 0.42248 0.36258 0.35757 0.0
O440 O 0.43741 0.39074 0.37776 0.0
C441 C 0.43773 0.35533 0.46565 0.0
C442 C 0.39541 0.37019 0.44415 0.0
O443 O 0.41042 0.3852 0.44632 0.0
O444 O 0.39493 0.35603 0.43144 0.0
C445 C 0.4507 0.42733 0.44767 0.0
O446 O 0.43472 0.42429 0.43623 0.0
C447 C 0.43131 0.37959 0.35142 0.0
Zn448 Zn 0.63769 0.05947 0.41322 0.0
Zn449 Zn 0.60507 0.04677 0.43783 0.0
O450 O 0.62277 0.07049 0.46647 0.0
O451 O 0.64966 0.08315 0.44036 0.0
O452 O 0.58036 0.04118 0.45602 0.0
O453 O 0.63004 0.05646 0.36115 0.0
O454 O 0.60212 0.0443 0.38234 0.0
C455 C 0.63945 0.08327 0.46512 0.0
C456 C 0.62266 0.02476 0.45239 0.0
O457 O 0.60804 0.02551 0.45452 0.0
O458 O 0.63683 0.03759 0.43768 0.0
C459 C 0.57042 0.04603 0.43909 0.0
O460 O 0.57616 0.05461 0.40825 0.0
C461 C 0.61296 0.04813 0.35571 0.0
Zn462 Zn 0.23686 0.28179 0.45733 0.0
Zn463 Zn 0.23018 0.30026 0.4097 0.0
O464 O 0.22961 0.27876 0.38256 0.0
O465 O 0.2357 0.26296 0.42132 0.0
O466 O 0.21665 0.30787 0.37636 0.0
O467 O 0.2174 0.27841 0.49372 0.0
O468 O 0.21735 0.29872 0.45741 0.0
C469 C 0.23247 0.26564 0.38932 0.0
C470 C 0.2663 0.3203 0.4412 0.0
O471 O 0.25641 0.32061 0.4157 0.0
O472 O 0.26066 0.30624 0.46097 0.0
C473 C 0.21315 0.32032 0.38509 0.0
O474 O 0.22084 0.33018 0.41394 0.0
C475 C 0.21287 0.29033 0.48734 0.0
Zn476 Zn 0.70819 0.95093 0.45476 0.0
Zn477 Zn 0.68754 0.9257 0.40824 0.0
O478 O 0.70896 0.94563 0.37892 0.0
O479 O 0.72625 0.96758 0.41658 0.0
O480 O 0.67758 0.90405 0.37532 0.0
O481 O 0.71162 0.93423 0.48939 0.0
O482 O 0.69003 0.9141 0.45463 0.0
C483 C 0.72269 0.96141 0.38477 0.0
C484 C 0.67 0.94368 0.44363 0.0
O485 O 0.66847 0.93309 0.41779 0.0
O486 O 0.68463 0.95168 0.46195 0.0
C487 C 0.66471 0.88854 0.38536 0.0
O488 O 0.65589 0.88736 0.41526 0.0
C489 C 0.69928 0.91786 0.48351 0.0
Zn490 Zn 0.03943 0.76065 0.44053 0.0
Zn491 Zn 0.06912 0.77307 0.40249 0.0
O492 O 0.0507 0.77773 0.37346 0.0
O493 O 0.02665 0.76972 0.40764 0.0
O494 O 0.09311 0.78895 0.37774 0.0
O495 O 0.0521 0.7722 0.48779 0.0
O496 O 0.07659 0.77968 0.45563 0.0
C497 C 0.03479 0.77568 0.37789 0.0
C498 C 0.04769 0.7333 0.40839 0.0
O499 O 0.0623 0.74663 0.39585 0.0
O500 O 0.03664 0.73605 0.42679 0.0
C501 C 0.10695 0.7871 0.38287 0.0
O502 O 0.10516 0.77335 0.4024 0.0
C503 C 0.06922 0.77871 0.48604 0.0
H504 H 0.23378 0.94668 0.27538 0.0
H505 H 0.27528 0.99031 0.33932 0.0
H506 H 0.23059 0.96892 0.23935 0.0
H507 H 0.27185 0.01243 0.3041 0.0
H508 H 0.28534 0.05096 0.22897 0.0
H509 H 0.26001 0.02846 0.265 0.0
H510 H 0.25834 0.98533 0.19991 0.0
H511 H 0.2838 0.00774 0.16471 0.0
C512 C 0.24131 0.9609 0.28345 0.0
C513 C 0.25539 0.96689 0.30911 0.0
C514 C 0.23949 0.97368 0.2626 0.0
C515 C 0.25153 0.99246 0.26775 0.0
C516 C 0.26254 0.99808 0.29884 0.0
C517 C 0.26457 0.98536 0.31923 0.0
C518 C 0.27877 0.03676 0.22081 0.0
C519 C 0.287 0.03097 0.19508 0.0
C520 C 0.26424 0.02383 0.24166 0.0
C521 C 0.25773 0.0051 0.23643 0.0
C522 C 0.26321 -0.00036 0.20524 0.0
C523 C 0.2779 0.01253 0.18485 0.0
H524 H 0.03137 0.30784 0.2706 0.0
H525 H 0.04034 0.32842 0.16181 0.0
H526 H -0.00156 0.29082 0.25953 0.0
H527 H 0.00759 0.31111 0.1505 0.0
H528 H 0.93895 0.26265 0.23205 0.0
H529 H 0.97012 0.26781 0.22539 0.0
H530 H 0.98698 0.32055 0.17784 0.0
H531 H 0.95624 0.31545 0.18489 0.0
C532 C 0.02635 0.3082 0.244 0.0
C533 C 0.03828 0.31982 0.21739 0.0
C534 C 0.00752 0.29835 0.23755 0.0
C535 C 0.00047 0.29993 0.20432 0.0
C536 C 0.01264 0.30993 0.17654 0.0
C537 C 0.03136 0.31987 0.18308 0.0
C538 C 0.94926 0.27502 0.21905 0.0
C539 C 0.94538 0.28874 0.20912 0.0
C540 C 0.96704 0.27801 0.21548 0.0
C541 C 0.98097 0.29458 0.20123 0.0
C542 C 0.97654 0.30754 0.18851 0.0
C543 C 0.95897 0.3047 0.1927 0.0
H544 H 0.68064 0.64187 0.19744 0.0
H545 H 0.73182 0.6815 0.24551 0.0
H546 H 0.67164 0.66491 0.19245 0.0
H547 H 0.72264 0.70484 0.24104 0.0
H548 H 0.65898 0.70733 0.17425 0.0
H549 H 0.67895 0.69472 0.16458 0.0
H550 H 0.69664 0.70615 0.27521 0.0
H551 H 0.67681 0.71918 0.28477 0.0
C552 C 0.69015 0.65571 0.20606 0.0
C553 C 0.70685 0.65999 0.22189 0.0
C554 C 0.68507 0.66894 0.20306 0.0
C555 C 0.69646 0.68667 0.21639 0.0
C556 C 0.71365 0.69125 0.23059 0.0
C557 C 0.71892 0.678 0.23292 0.0
C558 C 0.66746 0.70755 0.1963 0.0
C559 C 0.66602 0.71376 0.23053 0.0
C560 C 0.67894 0.70042 0.19068 0.0
C561 C 0.68905 0.69917 0.2193 0.0
C562 C 0.68902 0.70702 0.25264 0.0
C563 C 0.67759 0.71436 0.2582 0.0
H564 H 0.68074 0.96151 0.76806 0.0
H565 H 0.64931 0.95215 0.67081 0.0
H566 H 0.69678 0.99436 0.75624 0.0
H567 H 0.66561 0.98481 0.65859 0.0
H568 H 0.72499 0.05361 0.72399 0.0
H569 H 0.71682 0.02149 0.71723 0.0
H570 H 0.66131 0.00724 0.6922 0.0
H571 H 0.66944 0.03893 0.69888 0.0
C572 C 0.67761 0.96643 0.74372 0.0
C573 C 0.66345 0.95437 0.72088 0.0
C574 C 0.6869 0.98521 0.73677 0.0
C575 C 0.68223 0.99214 0.70675 0.0
C576 C 0.66924 0.97987 0.68227 0.0
C577 C 0.65987 0.96119 0.68937 0.0
C578 C 0.71121 0.04361 0.71603 0.0
C579 C 0.69777 0.04861 0.71227 0.0
C580 C 0.70652 0.02528 0.71241 0.0
C581 C 0.68843 0.01187 0.70433 0.0
C582 C 0.67541 0.01723 0.69802 0.0
C583 C 0.68002 0.03538 0.70211 0.0
H584 H 0.02868 0.72657 0.81136 0.0
H585 H 0.0507 0.74613 0.70558 0.0
H586 H -0.00193 0.71739 0.78917 0.0
H587 H 0.02025 0.73738 0.6834 0.0
H588 H 0.97115 0.67547 0.66719 0.0
H589 H -0.00029 0.70357 0.67785 0.0
H590 H 0.97303 0.72009 0.75621 0.0
H591 H 0.94414 0.69193 0.74447 0.0
C592 C 0.02706 0.72982 0.78392 0.0
C593 C 0.04177 0.73668 0.75991 0.0
C594 C 0.00957 0.72467 0.77115 0.0
C595 C 0.00677 0.72634 0.7343 0.0
C596 C 0.02201 0.73574 0.71175 0.0
C597 C 0.03939 0.7407 0.72442 0.0
C598 C 0.97118 0.68562 0.68502 0.0
C599 C 0.95563 0.68164 0.70511 0.0
C600 C 0.98754 0.70177 0.69123 0.0
C601 C 0.98865 0.71391 0.71836 0.0
C602 C 0.97253 0.71093 0.73531 0.0
C603 C 0.95601 0.6949 0.7284 0.0
H604 H 0.31578 0.26234 0.74182 0.0
H605 H 0.3535 0.31395 0.69252 0.0
H606 H 0.29161 0.27042 0.73927 0.0
H607 H 0.32956 0.32183 0.68933 0.0
H608 H 0.28486 0.33138 0.67191 0.0
H609 H 0.29857 0.31238 0.66222 0.0
H610 H 0.29004 0.29661 0.77408 0.0
H611 H 0.27599 0.31555 0.78378 0.0
C612 C 0.31869 0.27511 0.72941 0.0
C613 C 0.33642 0.2876 0.71742 0.0
C614 C 0.30495 0.27975 0.72817 0.0
C615 C 0.30874 0.2967 0.71406 0.0
C616 C 0.32618 0.30856 0.69993 0.0
C617 C 0.33991 0.30412 0.70188 0.0
C618 C 0.28548 0.32349 0.69426 0.0
C619 C 0.27982 0.32526 0.72882 0.0
C620 C 0.29325 0.31257 0.68863 0.0
C621 C 0.29564 0.30333 0.71752 0.0
C622 C 0.28828 0.30358 0.75133 0.0
C623 C 0.28034 0.31447 0.75694 0.0
H624 H 0.9542 0.3832 0.57336 0.0
H625 H 0.95314 0.34319 0.4999 0.0
H626 H 0.92909 0.35897 0.60723 0.0
H627 H 0.92777 0.3191 0.53287 0.0
H628 H 0.94198 0.31565 0.67113 0.0
H629 H 0.94114 0.34044 0.64017 0.0
H630 H 0.89852 0.30156 0.57049 0.0
H631 H 0.89899 0.27664 0.60248 0.0
C632 C 0.94773 0.3694 0.56281 0.0
C633 C 0.95595 0.36494 0.53471 0.0
C634 C 0.93336 0.35549 0.58242 0.0
C635 C 0.92689 0.3371 0.57348 0.0
C636 C 0.93255 0.33311 0.54076 0.0
C637 C 0.94714 0.34695 0.52168 0.0
C638 C 0.93155 0.31233 0.6509 0.0
C639 C 0.9209 0.29432 0.63861 0.0
C640 C 0.93102 0.32656 0.63302 0.0
C641 C 0.92014 0.32295 0.60208 0.0
C642 C 0.90718 0.30473 0.59397 0.0
C643 C 0.90742 0.29044 0.61246 0.0
H644 H 0.64636 0.60734 0.50458 0.0
H645 H 0.60801 0.56547 0.57602 0.0
H646 H 0.67151 0.60748 0.53637 0.0
H647 H 0.63326 0.56615 0.60891 0.0
H648 H 0.71489 0.61964 0.60456 0.0
H649 H 0.68986 0.59469 0.57168 0.0
H650 H 0.65112 0.59797 0.64245 0.0
H651 H 0.67604 0.62333 0.67415 0.0
C652 C 0.64327 0.59734 0.52563 0.0
C653 C 0.62534 0.58672 0.53836 0.0
C654 C 0.65769 0.59739 0.54397 0.0
C655 C 0.65432 0.58717 0.57577 0.0
C656 C 0.63621 0.57424 0.58465 0.0
C657 C 0.62174 0.57384 0.56565 0.0
C658 C 0.70108 0.61427 0.61449 0.0
C659 C 0.69729 0.62361 0.64137 0.0
C660 C 0.68675 0.59998 0.59554 0.0
C661 C 0.66857 0.59465 0.60403 0.0
C662 C 0.66499 0.60177 0.63524 0.0
C663 C 0.67927 0.61636 0.65348 0.0
H664 H 0.34392 0.06508 0.61362 0.0
H665 H 0.30495 0.01008 0.64666 0.0
H666 H 0.36872 0.05815 0.61989 0.0
H667 H 0.32941 0.0032 0.65298 0.0
H668 H 0.39229 0.02135 0.57059 0.0
H669 H 0.37537 0.03726 0.58229 0.0
H670 H 0.35756 0.00965 0.68455 0.0
H671 H 0.37407 0.99351 0.67258 0.0
C672 C 0.34076 0.05173 0.62324 0.0
C673 C 0.32257 0.03804 0.62937 0.0
C674 C 0.35489 0.04774 0.62659 0.0
C675 C 0.35099 0.03013 0.63679 0.0
C676 C 0.33292 0.01696 0.64548 0.0
C677 C 0.31887 0.02084 0.64162 0.0
C678 C 0.38513 0.01905 0.59593 0.0
C679 C 0.38408 0.00585 0.62023 0.0
C680 C 0.37555 0.02825 0.60276 0.0
C681 C 0.36491 0.02444 0.63408 0.0
C682 C 0.36537 0.01258 0.65989 0.0
C683 C 0.37479 0.00331 0.65297 0.0
H684 H 0.38956 0.34367 0.99868 0.0
H685 H 0.43211 0.38429 0.06588 0.0
H686 H 0.39052 0.31967 0.03257 0.0
H687 H 0.43263 0.36018 0.10081 0.0
H688 H 0.37898 0.2783 0.10396 0.0
H689 H 0.40357 0.30239 0.06879 0.0
H690 H 0.40238 0.34295 0.1375 0.0
H691 H 0.37744 0.31896 0.17166 0.0
C692 C 0.39993 0.3475 0.01924 0.0
C693 C 0.4104 0.36576 0.03024 0.0
C694 C 0.40052 0.33372 0.0388 0.0
C695 C 0.41128 0.33806 0.07008 0.0
C696 C 0.42409 0.35647 0.07705 0.0
C697 C 0.42381 0.37028 0.05687 0.0
C698 C 0.38476 0.29231 0.11299 0.0
C699 C 0.37599 0.29686 0.13987 0.0
C700 C 0.39884 0.30612 0.09268 0.0
C701 C 0.40453 0.32452 0.09975 0.0
C702 C 0.39824 0.32888 0.1312 0.0
C703 C 0.38388 0.31512 0.15091 0.0
H704 H 0.6016 0.03034 0.0765 0.0
H705 H 0.63948 0.02626 0.0047 0.0
H706 H 0.62687 0.0571 0.1048 0.0
H707 H 0.66458 0.05338 0.03179 0.0
H708 H 0.70899 0.08966 0.09259 0.0
H709 H 0.68217 0.08641 0.06126 0.0
H710 H 0.64732 0.04644 0.13966 0.0
H711 H 0.67403 0.04911 0.16981 0.0
C712 C 0.61514 0.03594 0.06496 0.0
C713 C 0.61872 0.02604 0.03898 0.0
C714 C 0.62961 0.05126 0.08131 0.0
C715 C 0.64769 0.05706 0.07104 0.0
C716 C 0.65078 0.04923 0.04036 0.0
C717 C 0.6364 0.03363 0.02473 0.0
C718 C 0.69564 0.08109 0.10448 0.0
C719 C 0.69347 0.06936 0.13319 0.0
C720 C 0.68028 0.0792 0.08639 0.0
C721 C 0.6627 0.06593 0.09758 0.0
C722 C 0.66071 0.0568 0.13036 0.0
C723 C 0.67602 0.05831 0.14778 0.0
H724 H 0.96795 0.66929 0.17361 0.0
H725 H 0.92103 0.64237 0.10397 0.0
H726 H 0.97225 0.64305 0.17001 0.0
H727 H 0.92543 0.61587 0.09966 0.0
H728 H 0.97208 0.60554 0.04702 0.0
H729 H 0.95166 0.61662 0.06607 0.0
H730 H 0.96241 0.61057 0.17729 0.0
H731 H 0.98323 0.60014 0.15814 0.0
C732 C 0.95806 0.65732 0.1589 0.0
C733 C 0.94423 0.65775 0.13905 0.0
C734 C 0.96045 0.64223 0.1568 0.0
C735 C 0.94927 0.62745 0.13415 0.0
C736 C 0.93428 0.62712 0.11712 0.0
C737 C 0.93167 0.64217 0.11984 0.0
C738 C 0.96951 0.60596 0.07545 0.0
C739 C 0.97951 0.60253 0.10117 0.0
C740 C 0.95773 0.61218 0.08644 0.0
C741 C 0.95576 0.61481 0.12324 0.0
C742 C 0.96395 0.60899 0.1488 0.0
C743 C 0.97588 0.60309 0.13785 0.0
H744 H 0.64718 0.62911 0.99243 0.0
H745 H 0.59845 0.61097 0.92887 0.0
H746 H 0.65082 0.65944 0.99673 0.0
H747 H 0.60229 0.64176 0.93231 0.0
H748 H 0.65664 0.71172 0.00711 0.0
H749 H 0.63761 0.67895 0.01682 0.0
H750 H 0.62874 0.67074 0.90233 0.0
H751 H 0.64758 0.70372 0.89268 0.0
C752 C 0.63691 0.63154 0.98046 0.0
C753 C 0.62256 0.61789 0.96046 0.0
C754 C 0.63891 0.64886 0.98298 0.0
C755 C 0.62682 0.65294 0.96479 0.0
C756 C 0.61174 0.63891 0.94661 0.0
C757 C 0.60949 0.62136 0.94483 0.0
C758 C 0.65008 0.70296 0.98414 0.0
C759 C 0.65389 0.71007 0.94908 0.0
C760 C 0.63915 0.68425 0.98973 0.0
C761 C 0.63206 0.67233 0.9603 0.0
C762 C 0.63402 0.67965 0.92552 0.0
C763 C 0.64486 0.6985 0.91993 0.0
H764 H 0.3683 0.97877 0.92886 0.0
H765 H 0.37754 0.00372 0.82387 0.0
H766 H 0.33536 0.96356 0.91882 0.0
H767 H 0.34471 0.98821 0.81352 0.0
H768 H 0.27589 0.93919 0.8943 0.0
H769 H 0.30636 0.94303 0.88437 0.0
H770 H 0.32542 0.99785 0.8456 0.0
H771 H 0.29536 0.99403 0.85574 0.0
C772 C 0.36331 0.98047 0.90317 0.0
C773 C 0.3754 0.99281 0.87757 0.0
C774 C 0.34445 0.97166 0.89729 0.0
C775 C 0.3375 0.97501 0.86564 0.0
C776 C 0.34971 0.98567 0.83843 0.0
C777 C 0.36849 0.99459 0.84442 0.0
C778 C 0.28652 0.95179 0.88258 0.0
C779 C 0.28346 0.9664 0.87605 0.0
C780 C 0.30391 0.95402 0.8771 0.0
C781 C 0.31826 0.97074 0.86432 0.0
C782 C 0.31463 0.98472 0.85505 0.0
C783 C 0.29745 0.98261 0.8611 0.0
H784 H 0.03555 0.32167 0.0086 0.0
H785 H 0.04934 0.34307 0.90058 0.0
H786 H 0.02089 0.33973 0.01924 0.0
H787 H 0.03424 0.36091 0.91101 0.0
H788 H 0.96718 0.3391 0.98428 0.0
H789 H 0.9915 0.332 0.99069 0.0
H790 H 0.03005 0.38457 0.9456 0.0
H791 H 0.00537 0.39176 0.93952 0.0
C792 C 0.03574 0.33052 0.98734 0.0
C793 C 0.04314 0.33063 0.95344 0.0
C794 C 0.02741 0.3409 0.9935 0.0
C795 C 0.02612 0.35144 0.96576 0.0
C796 C 0.03509 0.35295 0.93296 0.0
C797 C 0.04362 0.34265 0.92688 0.0
C798 C 0.98096 0.34936 0.9768 0.0
C799 C 0.98446 0.36591 0.96133 0.0
C800 C 0.99493 0.34536 0.98062 0.0
C801 C 0.01269 0.35773 0.96854 0.0
C802 C 0.01647 0.3748 0.95503 0.0
C803 C 0.00243 0.37896 0.95181 0.0
H804 H 0.06967 0.71807 0.41094 0.0
H805 H 0.01452 0.70601 0.38992 0.0
H806 H 0.05959 0.68525 0.40562 0.0
H807 H 0.00467 0.67376 0.3838 0.0
H808 H 0.993 0.62032 0.34721 0.0
H809 H 0.0118 0.65331 0.3414 0.0
H810 H 0.03461 0.65635 0.44665 0.0
H811 H 0.01576 0.62303 0.45259 0.0
C812 C 0.05555 0.70845 0.40442 0.0
C813 C 0.0428 0.71438 0.40087 0.0
C814 C 0.04981 0.6898 0.40157 0.0
C815 C 0.03142 0.67712 0.3941 0.0
C816 C 0.01896 0.6833 0.38914 0.0
C817 C 0.02456 0.7017 0.39281 0.0
C818 C 0.00228 0.62794 0.36888 0.0
C819 C 0.00257 0.61921 0.40079 0.0
C820 C 0.01312 0.64678 0.36537 0.0
C821 C 0.02441 0.65728 0.39374 0.0
C822 C 0.02604 0.64846 0.42436 0.0
C823 C 0.01518 0.62947 0.42784 0.0
H824 H 0.28405 0.33082 0.50476 0.0
H825 H 0.29061 0.34388 0.39152 0.0
H826 H 0.31692 0.34963 0.51336 0.0
H827 H 0.3237 0.3626 0.40011 0.0
H828 H 0.38413 0.39443 0.42794 0.0
H829 H 0.35269 0.38877 0.4328 0.0
H830 H 0.33669 0.33765 0.48661 0.0
H831 H 0.36767 0.34309 0.48093 0.0
C832 C 0.2925 0.33817 0.4819 0.0
C833 C 0.28494 0.33556 0.4473 0.0
C834 C 0.31127 0.34898 0.48689 0.0
C835 C 0.32281 0.35724 0.4573 0.0
C836 C 0.31506 0.3564 0.42339 0.0
C837 C 0.29616 0.34563 0.41841 0.0
C838 C 0.37393 0.3823 0.44174 0.0
C839 C 0.37812 0.36912 0.45401 0.0
C840 C 0.35601 0.37904 0.44434 0.0
C841 C 0.34234 0.36283 0.46015 0.0
C842 C 0.34701 0.35039 0.47475 0.0
C843 C 0.36468 0.35342 0.47137 0.0
H844 H 0.64524 0.94456 0.39741 0.0
H845 H 0.66223 0.95252 0.50859 0.0
H846 H 0.62734 0.95953 0.40892 0.0
H847 H 0.64415 0.96708 0.52021 0.0
H848 H 0.5976 0.98919 0.43832 0.0
H849 H 0.60288 0.9632 0.443 0.0
H850 H 0.65455 -0.0018 0.49526 0.0
H851 H 0.6494 0.0239 0.48994 0.0
C852 C 0.64457 0.94887 0.42454 0.0
C853 C 0.65547 0.94788 0.45188 0.0
C854 C 0.63426 0.95733 0.43121 0.0
C855 C 0.63467 0.96475 0.46534 0.0
C856 C 0.64385 0.96175 0.49355 0.0
C857 C 0.65424 0.95349 0.48683 0.0
C858 C 0.60972 0.99103 0.45196 0.0
C859 C 0.62315 0.00842 0.46376 0.0
C860 C 0.61279 0.97625 0.45439 0.0
C861 C 0.62911 0.9787 0.46941 0.0
C862 C 0.64173 0.9958 0.48396 0.0
C863 C 0.63885 0.01056 0.48084 0.0
H864 H 0.27341 0.02861 0.46345 0.0
H865 H 0.30953 0.08433 0.49727 0.0
H866 H 0.28989 0.03486 0.40683 0.0
H867 H 0.32604 0.09053 0.44017 0.0
H868 H 0.33802 0.09349 0.31368 0.0
H869 H 0.32308 0.09151 0.37128 0.0
H870 H 0.32183 0.0409 0.39448 0.0
H871 H 0.3367 0.0428 0.33738 0.0
C872 C 0.28463 0.04231 0.45858 0.0
C873 C 0.29024 0.05589 0.4852 0.0
C874 C 0.2942 0.04582 0.42622 0.0
C875 C 0.30956 0.06304 0.41949 0.0
C876 C 0.31434 0.07709 0.44476 0.0
C877 C 0.30481 0.07353 0.47739 0.0
C878 C 0.33501 0.08219 0.33149 0.0
C879 C 0.33841 0.0682 0.32064 0.0
C880 C 0.32636 0.08103 0.36439 0.0
C881 C 0.32086 0.06581 0.3869 0.0
C882 C 0.32548 0.05256 0.37724 0.0
C883 C 0.3342 0.05377 0.34462 0.0
H884 H 0.95375 0.27278 0.49622 0.0
H885 H 0.8995 0.22963 0.52449 0.0
H886 H 0.942 0.27759 0.44014 0.0
H887 H 0.8878 0.23446 0.46774 0.0
H888 H 0.88261 0.24451 0.34129 0.0
H889 H 0.89091 0.23471 0.39668 0.0
H890 H 0.92032 0.29065 0.43317 0.0
H891 H 0.91202 0.30048 0.37846 0.0
C892 C 0.9394 0.26398 0.49013 0.0
C893 C 0.92756 0.25098 0.51521 0.0
C894 C 0.93264 0.26687 0.45809 0.0
C895 C 0.91391 0.25673 0.45009 0.0
C896 C 0.90228 0.24257 0.47343 0.0
C897 C 0.90904 0.23975 0.50581 0.0
C898 C 0.89045 0.25467 0.36154 0.0
C899 C 0.8968 0.27333 0.35517 0.0
C900 C 0.89527 0.24903 0.39315 0.0
C901 C 0.90664 0.26197 0.41873 0.0
C902 C 0.9119 0.28042 0.41348 0.0
C903 C 0.90697 0.28602 0.38222 0.0
H904 H 0.72329 0.67943 0.50431 0.0
H905 H 0.76782 0.67086 0.53436 0.0
H906 H 0.72062 0.66438 0.44706 0.0
H907 H 0.7652 0.65596 0.47626 0.0
H908 H 0.70186 0.6122 0.38319 0.0
H909 H 0.7101 0.62909 0.43953 0.0
H910 H 0.7658 0.66172 0.40318 0.0
H911 H 0.75757 0.64497 0.34598 0.0
C912 C 0.73286 0.67481 0.49841 0.0
C913 C 0.74562 0.67618 0.5243 0.0
C914 C 0.73121 0.66604 0.46566 0.0
C915 C 0.74243 0.65865 0.45766 0.0
C916 C 0.7563 0.66144 0.48194 0.0
C917 C 0.75784 0.67006 0.5151 0.0
C918 C 0.71597 0.62269 0.38727 0.0
C919 C 0.72899 0.62733 0.35974 0.0
C920 C 0.72064 0.63247 0.41951 0.0
C921 C 0.73848 0.64695 0.42532 0.0
C922 C 0.75191 0.65068 0.3992 0.0
C923 C 0.74719 0.64102 0.36656 0.0
H924 H 0.11956 0.37197 0.11835 0.0
H925 H 0.12056 0.3327 0.19122 0.0
H926 H 0.11766 0.35289 0.06764 0.0
H927 H 0.11822 0.31345 0.14039 0.0
H928 H 0.07127 0.27753 0.05305 0.0
H929 H 0.08893 0.29643 0.10356 0.0
H930 H 0.12917 0.33538 0.03027 0.0
H931 H 0.11176 0.31629 0.97963 0.0
C932 C 0.12013 0.35967 0.12357 0.0
C933 C 0.11963 0.35362 0.15898 0.0
C934 C 0.11903 0.34868 0.09441 0.0
C935 C 0.11734 0.33144 0.10013 0.0
C936 C 0.11917 0.3265 0.13524 0.0
C937 C 0.12054 0.3376 0.16435 0.0
C938 C 0.08428 0.28967 0.04766 0.0
C939 C 0.08977 0.29564 0.01218 0.0
C940 C 0.09444 0.30056 0.0767 0.0
C941 C 0.11023 0.31763 0.07079 0.0
C942 C 0.1169 0.32246 0.03557 0.0
C943 C 0.10688 0.31146 0.00658 0.0
H944 H 0.6494 0.77788 0.19681 0.0
H945 H 0.61233 0.73669 0.12238 0.0
H946 H 0.66961 0.79486 0.14712 0.0
H947 H 0.63234 0.754 0.07271 0.0
H948 H 0.67026 0.78717 0.98694 0.0
H949 H 0.64978 0.78378 0.03616 0.0
H950 H 0.68795 0.78299 0.11201 0.0
H951 H 0.70833 0.78597 0.06283 0.0
C952 C 0.64518 0.77274 0.16977 0.0
C953 C 0.62947 0.75558 0.16377 0.0
C954 C 0.65683 0.78251 0.14132 0.0
C955 C 0.65276 0.77558 0.10618 0.0
C956 C 0.63587 0.7597 0.09956 0.0
C957 C 0.62435 0.74976 0.1281 0.0
C958 C 0.67464 0.78689 0.01417 0.0
C959 C 0.69079 0.78637 0.02078 0.0
C960 C 0.66281 0.78488 0.04235 0.0
C961 C 0.66708 0.78277 0.07781 0.0
C962 C 0.68427 0.78459 0.08491 0.0
C963 C 0.69599 0.78632 0.05666 0.0
H964 H 0.29423 0.95491 0.16672 0.0
H965 H 0.24179 0.90768 0.19101 0.0
H966 H 0.2819 0.95939 0.1111 0.0
H967 H 0.22947 0.91223 0.13482 0.0
H968 H 0.2234 0.92311 0.01007 0.0
H969 H 0.2325 0.91395 0.06522 0.0
H970 H 0.25864 0.96964 0.10316 0.0
H971 H 0.24965 0.97883 0.04849 0.0
C972 C 0.28018 0.9452 0.15982 0.0
C973 C 0.26897 0.93105 0.18363 0.0
C974 C 0.27307 0.9479 0.12808 0.0
C975 C 0.25458 0.93647 0.11914 0.0
C976 C 0.24373 0.92134 0.14121 0.0
C977 C 0.25084 0.91868 0.17326 0.0
C978 C 0.23069 0.93332 0.03057 0.0
C979 C 0.23599 0.95178 0.02456 0.0
C980 C 0.23596 0.92806 0.06207 0.0
C981 C 0.24671 0.94117 0.08798 0.0
C982 C 0.25078 0.95932 0.08318 0.0
C983 C 0.24546 0.96454 0.05195 0.0
H984 H 0.65723 0.87295 0.69383 0.0
H985 H 0.61638 0.87312 0.6244 0.0
H986 H 0.67598 0.87608 0.64156 0.0
H987 H 0.63499 0.8759 0.57224 0.0
H988 H 0.67063 0.88272 0.48138 0.0
H989 H 0.65211 0.86531 0.53257 0.0
H990 H 0.6923 0.90506 0.60485 0.0
H991 H 0.71076 0.92263 0.55378 0.0
C992 C 0.65192 0.873 0.66738 0.0
C993 C 0.63553 0.87337 0.66344 0.0
C994 C 0.66273 0.87484 0.63743 0.0
C995 C 0.65719 0.87668 0.60287 0.0
C996 C 0.63968 0.87455 0.59853 0.0
C997 C 0.62895 0.87292 0.62854 0.0
C998 C 0.67587 0.88748 0.50818 0.0
C999 C 0.69201 0.90438 0.5134 0.0
C1000 C 0.66517 0.87748 0.53751 0.0
C1001 C 0.67053 0.88399 0.57269 0.0
C1002 C 0.68776 0.89965 0.57805 0.0
C1003 C 0.69839 0.90977 0.54869 0.0
H1004 H 0.10324 0.78262 0.49242 0.0
H1005 H 0.05932 0.78055 0.55557 0.0
H1006 H 0.11776 0.78025 0.54728 0.0
H1007 H 0.07403 0.77843 0.61038 0.0
H1008 H 0.1074 0.78206 0.70601 0.0
H1009 H 0.10242 0.79413 0.65035 0.0
H1010 H 0.10689 0.75297 0.58991 0.0
H1011 H 0.11161 0.74064 0.64561 0.0
C1012 C 0.09692 0.7822 0.51803 0.0
C1013 C 0.08 0.78165 0.5195 0.0
C1014 C 0.10522 0.78072 0.54944 0.0
C1015 C 0.09699 0.77902 0.58312 0.0
C1016 C 0.08079 0.77985 0.58485 0.0
C1017 C 0.07233 0.78103 0.5534 0.0
C1018 C 0.10794 0.7759 0.68083 0.0
C1019 C 0.10969 0.76017 0.68045 0.0
C1020 C 0.10491 0.78277 0.64893 0.0
C1021 C 0.10396 0.77433 0.61583 0.0
C1022 C 0.10756 0.75979 0.61501 0.0
C1023 C 0.11031 0.75273 0.64698 0.0
H1024 H 0.20865 0.28105 0.55892 0.0
H1025 H 0.20589 0.31858 0.48383 0.0
H1026 H 0.21107 0.30101 0.60844 0.0
H1027 H 0.20864 0.33864 0.53342 0.0
H1028 H 0.25484 0.37743 0.61892 0.0
H1029 H 0.23789 0.35706 0.56946 0.0
H1030 H 0.19891 0.31822 0.64466 0.0
H1031 H 0.21563 0.33868 0.69419 0.0
C1032 C 0.20783 0.29316 0.55301 0.0
C1033 C 0.20752 0.29837 0.51725 0.0
C1034 C 0.20924 0.30465 0.58147 0.0
C1035 C 0.21045 0.3216 0.57471 0.0
C1036 C 0.20805 0.32581 0.53937 0.0
C1037 C 0.2064 0.31422 0.51097 0.0
C1038 C 0.24224 0.36493 0.62489 0.0
C1039 C 0.2369 0.35955 0.66067 0.0
C1040 C 0.23249 0.3532 0.59646 0.0
C1041 C 0.21728 0.33584 0.60328 0.0
C1042 C 0.21075 0.33137 0.63866 0.0
C1043 C 0.22035 0.34319 0.66703 0.0
H1044 H 0.96328 0.70529 0.97603 0.0
H1045 H 0.90714 0.68206 0.01047 0.0
H1046 H 0.95316 0.68642 0.92221 0.0
H1047 H 0.89704 0.66324 0.9559 0.0
H1048 H 0.89197 0.64658 0.82986 0.0
H1049 H 0.89763 0.66484 0.88459 0.0
H1050 H 0.93839 0.65138 0.91739 0.0
H1051 H 0.93272 0.63308 0.86335 0.0
C1052 C 0.94874 0.69649 0.97181 0.0
C1053 C 0.93607 0.69512 0.99794 0.0
C1054 C 0.94296 0.68553 0.94105 0.0
C1055 C 0.92434 0.67303 0.9353 0.0
C1056 C 0.91149 0.67265 0.9598 0.0
C1057 C 0.9173 0.68353 0.99094 0.0
C1058 C 0.90177 0.64708 0.84923 0.0
C1059 C 0.912 0.63844 0.84191 0.0
C1060 C 0.90506 0.65763 0.88048 0.0
C1061 C 0.91877 0.6599 0.90477 0.0
C1062 C 0.92803 0.65022 0.89871 0.0
C1063 C 0.92463 0.63956 0.86784 0.0
H1064 H 0.3227 0.27766 1.00251 0.0
H1065 H 0.32656 0.22978 0.0275 0.0
H1066 H 0.33756 0.28035 0.945 0.0
H1067 H 0.34139 0.23252 0.9694 0.0
H1068 H 0.38695 0.29609 0.8757 0.0
H1069 H 0.37071 0.2889 0.93275 0.0
H1070 H 0.33712 0.23274 0.89967 0.0
H1071 H 0.35333 0.2399 0.84204 0.0
C1072 C 0.3263 0.26743 0.99546 0.0
C1073 C 0.32356 0.25361 0.01994 0.0
C1074 C 0.33501 0.26911 0.9626 0.0
C1075 C 0.34105 0.25692 0.95314 0.0
C1076 C 0.337 0.24219 0.97614 0.0
C1077 C 0.3284 0.24058 0.00932 0.0
C1078 C 0.37638 0.2821 0.8807 0.0
C1079 C 0.37135 0.26864 0.85398 0.0
C1080 C 0.36694 0.27804 0.91331 0.0
C1081 C 0.35235 0.26037 0.92026 0.0
C1082 C 0.34823 0.24651 0.89489 0.0
C1083 C 0.35759 0.25062 0.86196 0.0
H1084 H 0.69454 0.0875 0.87843 0.0
H1085 H 0.75017 0.114 0.83936 0.0
H1086 H 0.70401 0.07867 0.93299 0.0
H1087 H 0.75963 0.10528 0.89476 0.0
H1088 H 0.72066 0.04283 0.99299 0.0
H1089 H 0.71658 0.0554 0.93728 0.0
H1090 H 0.75929 0.10917 0.9683 0.0
H1091 H 0.76329 0.09669 0.02489 0.0
C1092 C 0.70887 0.09185 0.88176 0.0
C1093 C 0.72154 0.10134 0.85421 0.0
C1094 C 0.71425 0.08663 0.91295 0.0
C1095 C 0.73247 0.09098 0.91771 0.0
C1096 C 0.74548 0.10167 0.89161 0.0
C1097 C 0.74004 0.10671 0.85999 0.0
C1098 C 0.72954 0.05727 0.98778 0.0
C1099 C 0.74216 0.06876 0.0138 0.0
C1100 C 0.72706 0.06448 0.95592 0.0
C1101 C 0.73732 0.0833 0.94893 0.0
C1102 C 0.75111 0.09462 0.97322 0.0
C1103 C 0.75346 0.08742 0.0055 0.0
H1104 H 0.0065 0.37818 0.67538 0.0
H1105 H 0.00415 0.42696 0.65141 0.0
H1106 H 0.98982 0.37441 0.73095 0.0
H1107 H 0.98737 0.4231 0.70748 0.0
H1108 H 0.93839 0.35733 0.79379 0.0
H1109 H 0.95663 0.3657 0.73915 0.0
H1110 H 0.98855 0.42125 0.77694 0.0
H1111 H 0.97027 0.41292 0.83206 0.0
C1112 C 0.00283 0.38837 0.68229 0.0
C1113 C 0.00649 0.40274 0.65853 0.0
C1114 C 0.99306 0.38607 0.71401 0.0
C1115 C 0.98683 0.39816 0.72302 0.0
C1116 C 0.99186 0.41347 0.70102 0.0
C1117 C 0.00157 0.41572 0.66899 0.0
C1118 C 0.94902 0.37144 0.79031 0.0
C1119 C 0.95296 0.38438 0.81767 0.0
C1120 C 0.95962 0.37618 0.75909 0.0
C1121 C 0.97434 0.39402 0.75423 0.0
C1122 C 0.97739 0.40737 0.78012 0.0
C1123 C 0.96683 0.40258 0.81162 0.0
H1124 H 0.57961 0.55146 0.83731 0.0
H1125 H 0.63471 0.58104 0.79554 0.0
H1126 H 0.56829 0.55794 0.78171 0.0
H1127 H 0.62338 0.58758 0.74073 0.0
H1128 H 0.56168 0.56433 0.65211 0.0
H1129 H 0.56754 0.5535 0.70903 0.0
H1130 H 0.60881 0.60867 0.73555 0.0
H1131 H 0.60293 0.61956 0.67945 0.0
C1132 C 0.58925 0.5589 0.81602 0.0
C1133 C 0.60813 0.5659 0.82116 0.0
C1134 C 0.58274 0.56268 0.7843 0.0
C1135 C 0.59502 0.57364 0.7574 0.0
C1136 C 0.61366 0.57944 0.76142 0.0
C1137 C 0.62012 0.57553 0.79277 0.0
C1138 C 0.57157 0.57424 0.67063 0.0
C1139 C 0.58199 0.59281 0.66092 0.0
C1140 C 0.57499 0.56799 0.70308 0.0
C1141 C 0.58896 0.58019 0.72614 0.0
C1142 C 0.59824 0.59891 0.71784 0.0
C1143 C 0.59474 0.60516 0.68578 0.0
H1144 H 0.462 0.0465 0.78873 0.0
H1145 H 0.45927 0.00364 0.85625 0.0
H1146 H 0.4627 0.03012 0.73575 0.0
H1147 H 0.46014 0.98728 0.80303 0.0
H1148 H 0.45798 -0.00167 0.64198 0.0
H1149 H 0.47403 0.01525 0.6957 0.0
H1150 H 0.43463 0.97102 0.76186 0.0
H1151 H 0.41874 0.95408 0.7084 0.0
C1152 C 0.46233 0.03397 0.79242 0.0
C1153 C 0.45999 0.02614 0.82674 0.0
C1154 C 0.46278 0.02453 0.7619 0.0
C1155 C 0.46097 0.00709 0.76505 0.0
C1156 C 0.46111 0.00046 0.79962 0.0
C1157 C 0.4607 0.00992 0.83017 0.0
C1158 C 0.45312 0.99189 0.66794 0.0
C1159 C 0.4367 0.97506 0.67087 0.0
C1160 C 0.4623 0.00168 0.69878 0.0
C1161 C 0.45534 0.99476 0.73313 0.0
C1162 C 0.44041 0.97684 0.73589 0.0
C1163 C 0.43121 0.96708 0.70508 0.0
H1164 H 0.55876 0.98538 0.15905 0.0
H1165 H 0.60402 0.9776 0.18685 0.0
H1166 H 0.56467 0.00428 0.21285 0.0
H1167 H 0.60989 0.9965 0.24003 0.0
H1168 H 0.57723 0.02467 0.33615 0.0
H1169 H 0.56675 0.00464 0.28334 0.0
H1170 H 0.62199 0.03099 0.24288 0.0
H1171 H 0.63249 0.05101 0.29509 0.0
C1172 C 0.56961 0.98722 0.17708 0.0
C1173 C 0.58103 0.98008 0.16832 0.0
C1174 C 0.57305 -0.00184 0.20777 0.0
C1175 C 0.58805 0.00227 0.23004 0.0
C1176 C 0.59851 0.99395 0.22282 0.0
C1177 C 0.595 0.98293 0.19249 0.0
C1178 C 0.58707 0.02653 0.31553 0.0
C1179 C 0.60577 0.03936 0.32017 0.0
C1180 C 0.58105 0.01498 0.28539 0.0
C1181 C 0.59363 0.01594 0.25953 0.0
C1182 C 0.61205 0.02963 0.26286 0.0
C1183 C 0.61803 0.04125 0.29267 0.0
H1184 H 0.9492 0.54068 0.28758 0.0
H1185 H 0.99341 0.54407 0.35162 0.0
H1186 H 0.96632 0.54333 0.23309 0.0
H1187 H 0.01052 0.54673 0.29699 0.0
H1188 H 0.0423 0.58825 0.20142 0.0
H1189 H 0.02544 0.57332 0.25587 0.0
H1190 H 0.98158 0.53209 0.1918 0.0
H1191 H -0.00158 0.54698 0.13721 0.0
C1192 C 0.96228 0.54134 0.29008 0.0
C1193 C 0.97 0.54248 0.32413 0.0
C1194 C 0.97213 0.54285 0.25873 0.0
C1195 C 0.98997 0.54559 0.26067 0.0
C1196 C -0.00304 0.54496 0.29458 0.0
C1197 C 0.98705 0.5433 0.32592 0.0
C1198 C 0.02939 0.57562 0.19886 0.0
C1199 C 0.02163 0.56907 0.16479 0.0
C1200 C 0.01967 0.56702 0.23019 0.0
C1201 C 0.00196 0.5517 0.22819 0.0
C1202 C 0.99503 0.54406 0.19425 0.0
C1203 C 0.0048 0.55256 0.16292 0.0
H1204 H 0.43077 0.43002 0.14312 0.0
H1205 H 0.37624 0.38685 0.16963 0.0
H1206 H 0.44186 0.42523 0.20073 0.0
H1207 H 0.38741 0.38205 0.22646 0.0
H1208 H 0.41673 0.35929 0.29063 0.0
H1209 H 0.40947 0.36918 0.23474 0.0
H1210 H 0.43731 0.42494 0.27234 0.0
H1211 H 0.44453 0.41508 0.32895 0.0
C1212 C 0.42105 0.4199 0.16156 0.0
C1213 C 0.40262 0.40868 0.15148 0.0
C1214 C 0.42745 0.4171 0.19443 0.0
C1215 C 0.41558 0.40295 0.21754 0.0
C1216 C 0.39695 0.39277 0.20873 0.0
C1217 C 0.39053 0.39566 0.17625 0.0
C1218 C 0.42168 0.37373 0.2869 0.0
C1219 C 0.43105 0.38633 0.3146 0.0
C1220 C 0.41736 0.37936 0.25493 0.0
C1221 C 0.42245 0.39776 0.2496 0.0
C1222 C 0.4331 0.41066 0.2759 0.0
C1223 C 0.4373 0.40499 0.30823 0.0
H1224 H 0.3552 0.2099 0.08822 0.0
H1225 H 0.31924 0.19496 0.18022 0.0
H1226 H 0.3573 0.1824 0.09629 0.0
H1227 H 0.32121 0.16736 0.18798 0.0
H1228 H 0.34518 0.13077 0.21362 0.0
H1229 H 0.34412 0.15878 0.20532 0.0
H1230 H 0.3374 0.14881 0.0909 0.0
H1231 H 0.33866 0.12081 0.09907 0.0
C1232 C 0.34774 0.20076 0.11017 0.0
C1233 C 0.33707 0.20462 0.13362 0.0
C1234 C 0.34887 0.18495 0.11463 0.0
C1235 C 0.33942 0.17273 0.14274 0.0
C1236 C 0.32881 0.17664 0.1663 0.0
C1237 C 0.32761 0.1924 0.16174 0.0
C1238 C 0.34355 0.13456 0.18664 0.0
C1239 C 0.34197 0.12353 0.15699 0.0
C1240 C 0.34282 0.15056 0.18195 0.0
C1241 C 0.34058 0.15594 0.1475 0.0
C1242 C 0.33929 0.14508 0.11776 0.0
C1243 C 0.33993 0.129 0.12246 0.0
H1244 H 0.80175 0.12057 0.14836 0.0
H1245 H 0.76717 0.13105 0.21834 0.0
H1246 H 0.82741 0.15093 0.16162 0.0
H1247 H 0.79287 0.16136 0.2316 0.0
H1248 H 0.83661 0.22116 0.20944 0.0
H1249 H 0.81147 0.19044 0.19721 0.0
H1250 H 0.84752 0.16874 0.21363 0.0
H1251 H 0.87278 0.19953 0.22583 0.0
C1252 C 0.79964 0.12931 0.16669 0.0
C1253 C 0.7824 0.12342 0.18222 0.0
C1254 C 0.81436 0.14665 0.1744 0.0
C1255 C 0.81211 0.15852 0.19752 0.0
C1256 C 0.79494 0.15257 0.21334 0.0
C1257 C 0.78026 0.13517 0.2059 0.0
C1258 C 0.83922 0.20986 0.21037 0.0
C1259 C 0.85671 0.21279 0.21863 0.0
C1260 C 0.82477 0.19225 0.2036 0.0
C1261 C 0.82752 0.1772 0.20463 0.0
C1262 C 0.84505 0.18012 0.21244 0.0
C1263 C 0.85948 0.19773 0.21955 0.0
H1264 H 0.79313 0.68173 0.17213 0.0
H1265 H 0.78697 0.63384 0.22668 0.0
H1266 H 0.8253 0.69196 0.16129 0.0
H1267 H 0.819 0.64391 0.21527 0.0
H1268 H 0.8811 0.67668 0.22235 0.0
H1269 H 0.84929 0.66764 0.23391 0.0
H1270 H 0.84458 0.68391 0.12617 0.0
H1271 H 0.87648 0.69327 0.11479 0.0
C1272 C 0.7986 0.67333 0.18166 0.0
C1273 C 0.78746 0.65698 0.20032 0.0
C1274 C 0.81703 0.67916 0.1753 0.0
C1275 C 0.82475 0.66878 0.18752 0.0
C1276 C 0.81357 0.65238 0.20599 0.0
C1277 C 0.79515 0.64654 0.2123 0.0
C1278 C 0.87332 0.67842 0.20117 0.0
C1279 C 0.88134 0.68567 0.16763 0.0
C1280 C 0.85504 0.67312 0.20773 0.0
C1281 C 0.84435 0.67496 0.1809 0.0
C1282 C 0.85247 0.68248 0.14754 0.0
C1283 C 0.87074 0.68777 0.14098 0.0
H1284 H 0.11804 0.33142 0.35039 0.0
H1285 H 0.12384 0.30923 0.24979 0.0
H1286 H 0.14415 0.33017 0.37465 0.0
H1287 H 0.15036 0.30872 0.27334 0.0
H1288 H 0.18852 0.29599 0.33721 0.0
H1289 H 0.1613 0.29514 0.31384 0.0
H1290 H 0.17638 0.34595 0.36836 0.0
H1291 H 0.20324 0.34633 0.39309 0.0
C1292 C 0.1248 0.32613 0.33358 0.0
C1293 C 0.11888 0.32044 0.2982 0.0
C1294 C 0.13992 0.32563 0.3473 0.0
C1295 C 0.14959 0.31963 0.32578 0.0
C1296 C 0.14319 0.31327 0.29085 0.0
C1297 C 0.12794 0.31356 0.2773 0.0
C1298 C 0.18614 0.30709 0.34394 0.0
C1299 C 0.19804 0.32122 0.36709 0.0
C1300 C 0.1705 0.30661 0.33047 0.0
C1301 C 0.16649 0.32037 0.33944 0.0
C1302 C 0.17877 0.33486 0.36159 0.0
C1303 C 0.19431 0.33523 0.37542 0.0
H1304 H 0.68751 0.88586 0.337 0.0
H1305 H 0.63702 0.85335 0.39498 0.0
H1306 H 0.68625 0.85826 0.31495 0.0
H1307 H 0.63521 0.82558 0.37138 0.0
H1308 H 0.64676 0.7792 0.35623 0.0
H1309 H 0.64883 0.80735 0.37823 0.0
H1310 H 0.67179 0.83338 0.27626 0.0
H1311 H 0.67055 0.80562 0.25517 0.0
C1312 C 0.67589 0.87279 0.34439 0.0
C1313 C 0.66237 0.8718 0.36782 0.0
C1314 C 0.67515 0.8569 0.33165 0.0
C1315 C 0.6607 0.83959 0.34155 0.0
C1316 C 0.64678 0.83863 0.36387 0.0
C1317 C 0.64768 0.85456 0.37705 0.0
C1318 C 0.6525 0.79106 0.33879 0.0
C1319 C 0.65857 0.79022 0.30406 0.0
C1320 C 0.65348 0.80714 0.3512 0.0
C1321 C 0.66029 0.82266 0.32893 0.0
C1322 C 0.66669 0.82185 0.29442 0.0
C1323 C 0.66597 0.80588 0.28227 0.0
H1324 H 0.11628 0.82083 0.35693 0.0
H1325 H 0.13915 0.78667 0.3838 0.0
H1326 H 0.14686 0.8463 0.34524 0.0
H1327 H 0.16985 0.8123 0.37162 0.0
H1328 H 0.21941 0.86103 0.30991 0.0
H1329 H 0.18919 0.83392 0.31828 0.0
H1330 H 0.17395 0.86468 0.38866 0.0
H1331 H 0.20403 0.89162 0.38078 0.0
C1332 C 0.12779 0.81866 0.35985 0.0
C1333 C 0.12528 0.80174 0.37154 0.0
C1334 C 0.14531 0.83329 0.35336 0.0
C1335 C 0.16068 0.83128 0.35791 0.0
C1336 C 0.15819 0.81417 0.3679 0.0
C1337 C 0.14064 0.79955 0.37493 0.0
C1338 C 0.20963 0.86195 0.32734 0.0
C1339 C 0.21408 0.87847 0.34462 0.0
C1340 C 0.1924 0.84644 0.33216 0.0
C1341 C 0.17924 0.84731 0.35382 0.0
C1342 C 0.18379 0.86374 0.37145 0.0
C1343 C 0.20106 0.87911 0.3671 0.0
H1344 H 0.66328 0.87923 0.85287 0.0
H1345 H 0.68247 0.87137 0.75037 0.0
H1346 H 0.66467 0.85325 0.87736 0.0
H1347 H 0.68321 0.84501 0.77438 0.0
H1348 H 0.6955 0.80629 0.83823 0.0
H1349 H 0.69711 0.83386 0.81459 0.0
H1350 H 0.64738 0.82082 0.87131 0.0
H1351 H 0.64617 0.79359 0.89608 0.0
C1352 C 0.66801 0.87209 0.83571 0.0
C1353 C 0.67268 0.8773 0.79966 0.0
C1354 C 0.66859 0.85705 0.84959 0.0
C1355 C 0.67368 0.84678 0.82764 0.0
C1356 C 0.6793 0.85263 0.79213 0.0
C1357 C 0.6789 0.86778 0.77835 0.0
C1358 C 0.6848 0.8092 0.84539 0.0
C1359 C 0.67072 0.79777 0.86914 0.0
C1360 C 0.68573 0.82504 0.8318 0.0
C1361 C 0.67251 0.82972 0.84137 0.0
C1362 C 0.65806 0.8179 0.8641 0.0
C1363 C 0.65723 0.80215 0.87796 0.0
H1364 H 0.10903 0.81722 0.81199 0.0
H1365 H 0.13931 0.79337 0.85742 0.0
H1366 H 0.13151 0.84694 0.8358 0.0
H1367 H 0.16215 0.82322 0.88018 0.0
H1368 H 0.19203 0.87653 0.94274 0.0
H1369 H 0.16805 0.8465 0.923 0.0
H1370 H 0.16212 0.87036 0.82479 0.0
H1371 H 0.18562 0.90043 0.84512 0.0
C1372 C 0.1205 0.81832 0.82707 0.0
C1373 C 0.1224 0.80293 0.83273 0.0
C1374 C 0.13347 0.83541 0.84051 0.0
C1375 C 0.14877 0.83756 0.85968 0.0
C1376 C 0.15046 0.82206 0.86593 0.0
C1377 C 0.13739 0.80494 0.85274 0.0
C1378 C 0.18558 0.87536 0.91695 0.0
C1379 C 0.19073 0.89088 0.89551 0.0
C1380 C 0.17188 0.85812 0.90554 0.0
C1381 C 0.1631 0.85596 0.87228 0.0
C1382 C 0.16832 0.87152 0.85084 0.0
C1383 C 0.18191 0.88877 0.86238 0.0
H1384 H 0.13855 0.34207 0.9238 0.0
H1385 H 0.11194 0.31828 0.82287 0.0
H1386 H 0.16658 0.3442 0.90167 0.0
H1387 H 0.14028 0.32113 0.80001 0.0
H1388 H 0.18617 0.30901 0.78374 0.0
H1389 H 0.15851 0.30735 0.80745 0.0
H1390 H 0.19131 0.35897 0.86183 0.0
H1391 H 0.21889 0.36018 0.83947 0.0
C1392 C 0.13881 0.3377 0.89653 0.0
C1393 C 0.123 0.32996 0.8751 0.0
C1394 C 0.15493 0.33892 0.88379 0.0
C1395 C 0.1557 0.33266 0.84914 0.0
C1396 C 0.14008 0.32567 0.82715 0.0
C1397 C 0.12388 0.32424 0.84007 0.0
C1398 C 0.18746 0.31986 0.80117 0.0
C1399 C 0.20473 0.3347 0.80974 0.0
C1400 C 0.17159 0.31904 0.81442 0.0
C1401 C 0.17262 0.33315 0.83622 0.0
C1402 C 0.18995 0.34776 0.84547 0.0
C1403 C 0.2058 0.34846 0.83258 0.0
H1404 H 0.87712 0.67807 0.73463 0.0
H1405 H 0.84774 0.62267 0.69445 0.0
H1406 H 0.85028 0.68111 0.72434 0.0
H1407 H 0.82091 0.62578 0.6841 0.0
H1408 H 0.7712 0.63239 0.71056 0.0
H1409 H 0.79811 0.62949 0.72139 0.0
H1410 H 0.83221 0.6821 0.67184 0.0
H1411 H 0.80537 0.68507 0.66106 0.0
C1412 C 0.86495 0.66655 0.72355 0.0
C1413 C 0.86455 0.65012 0.71536 0.0
C1414 C 0.84962 0.66833 0.71752 0.0
C1415 C 0.83352 0.65367 0.70348 0.0
C1416 C 0.83309 0.63724 0.6953 0.0
C1417 C 0.84849 0.6355 0.70101 0.0
C1418 C 0.78444 0.64337 0.7021 0.0
C1419 C 0.78615 0.65896 0.68494 0.0
C1420 C 0.79982 0.64165 0.70809 0.0
C1421 C 0.81722 0.65555 0.69735 0.0
C1422 C 0.81897 0.67124 0.68064 0.0
C1423 C 0.80359 0.67289 0.67435 0.0
H1424 H 0.34496 0.20315 0.73909 0.0
H1425 H 0.35498 0.214 0.62533 0.0
H1426 H 0.33265 0.17069 0.72794 0.0
H1427 H 0.34303 0.18153 0.61427 0.0
H1428 H 0.30281 0.12017 0.604 0.0
H1429 H 0.31471 0.15259 0.61515 0.0
H1430 H 0.34235 0.1494 0.71017 0.0
H1431 H 0.3301 0.11688 0.69949 0.0
C1432 C 0.34461 0.19863 0.71169 0.0
C1433 C 0.35096 0.21119 0.68309 0.0
C1434 C 0.33764 0.18 0.70533 0.0
C1435 C 0.33688 0.17347 0.67022 0.0
C1436 C 0.3432 0.18605 0.6416 0.0
C1437 C 0.35015 0.20469 0.64796 0.0
C1438 C 0.3114 0.12637 0.62731 0.0
C1439 C 0.31548 0.1159 0.65088 0.0
C1440 C 0.31832 0.145 0.63357 0.0
C1441 C 0.32951 0.15363 0.66353 0.0
C1442 C 0.33357 0.14315 0.68711 0.0
C1443 C 0.32663 0.12451 0.68088 0.0
H1444 H 0.86649 0.2192 0.72549 0.0
H1445 H 0.87321 0.18763 0.64161 0.0
H1446 H 0.83556 0.19413 0.73646 0.0
H1447 H 0.84219 0.16253 0.65272 0.0
H1448 H 0.79166 0.11562 0.71192 0.0
H1449 H 0.82331 0.13967 0.70155 0.0
H1450 H 0.80633 0.18006 0.70081 0.0
H1451 H 0.77482 0.15619 0.71109 0.0
C1452 C 0.86143 0.20688 0.70955 0.0
C1453 C 0.87228 0.20545 0.68254 0.0
C1454 C 0.84368 0.19256 0.71572 0.0
C1455 C 0.83645 0.17645 0.69525 0.0
C1456 C 0.84746 0.17477 0.66899 0.0
C1457 C 0.86518 0.18917 0.66255 0.0
C1458 C 0.79468 0.12963 0.7094 0.0
C1459 C 0.78073 0.134 0.7124 0.0
C1460 C 0.81278 0.14336 0.70336 0.0
C1461 C 0.81727 0.16173 0.70066 0.0
C1462 C 0.80329 0.16604 0.70329 0.0
C1463 C 0.78522 0.15234 0.70893 0.0
H1464 H 0.00364 0.46947 0.59145 0.0
H1465 H 0.01549 0.46035 0.48284 0.0
H1466 H 0.00441 0.49736 0.57213 0.0
H1467 H 0.01563 0.48787 0.46325 0.0
H1468 H 0.02604 0.5442 0.43966 0.0
H1469 H 0.03103 0.52053 0.46545 0.0
H1470 H 0.98561 0.50519 0.53788 0.0
H1471 H 0.98105 0.52914 0.51308 0.0
C1472 C 0.00641 0.47342 0.56344 0.0
C1473 C 0.00937 0.46263 0.53863 0.0
C1474 C 0.00678 0.48938 0.55233 0.0
C1475 C 0.00999 0.49485 0.51608 0.0
C1476 C 0.01339 0.48426 0.49147 0.0
C1477 C 0.01316 0.46837 0.50264 0.0
C1478 C 0.01734 0.53598 0.46153 0.0
C1479 C 0.00306 0.53847 0.4741 0.0
C1480 C 0.0201 0.52231 0.47612 0.0
C1481 C 0.00859 0.5108 0.50347 0.0
C1482 C 0.99487 0.5139 0.51713 0.0
C1483 C 0.99219 0.52761 0.50273 0.0
H1484 H 0.51838 0.53777 0.53175 0.0
H1485 H 0.55194 0.53078 0.4528 0.0
H1486 H 0.49338 0.5069 0.519 0.0
H1487 H 0.52697 0.50001 0.44017 0.0
H1488 H 0.4867 0.43919 0.46103 0.0
H1489 H 0.51094 0.47029 0.47398 0.0
H1490 H 0.47202 0.48905 0.46795 0.0
H1491 H 0.44767 0.4579 0.45497 0.0
C1492 C 0.5204 0.5297 0.51158 0.0
C1493 C 0.53717 0.53671 0.49335 0.0
C1494 C 0.50606 0.51206 0.50421 0.0
C1495 C 0.50828 0.50104 0.47875 0.0
C1496 C 0.52496 0.50813 0.46025 0.0
C1497 C 0.53922 0.5258 0.46734 0.0
C1498 C 0.48327 0.44992 0.46259 0.0
C1499 C 0.46526 0.44608 0.45689 0.0
C1500 C 0.49719 0.46774 0.46978 0.0
C1501 C 0.49338 0.48209 0.47177 0.0
C1502 C 0.47532 0.47823 0.46675 0.0
C1503 C 0.46141 0.46041 0.45918 0.0
H1504 H 0.55747 0.03425 0.50685 0.0
H1505 H 0.54342 0.04955 0.40609 0.0
H1506 H 0.52838 0.02814 0.53229 0.0
H1507 H 0.51422 0.0434 0.43174 0.0
H1508 H 0.45569 0.00551 0.48186 0.0
H1509 H 0.4853 0.01558 0.45352 0.0
H1510 H 0.51256 0.04544 0.54967 0.0
H1511 H 0.48304 0.0354 0.57811 0.0
C1512 C 0.54819 0.03634 0.49013 0.0
C1513 C 0.55274 0.04236 0.45442 0.0
C1514 C 0.53159 0.03298 0.50481 0.0
C1515 C 0.51909 0.0354 0.48405 0.0
C1516 C 0.52358 0.04136 0.4483 0.0
C1517 C 0.54031 0.04492 0.43369 0.0
C1518 C 0.468 0.01447 0.49675 0.0
C1519 C 0.46701 0.01952 0.53236 0.0
C1520 C 0.48495 0.02027 0.48046 0.0
C1521 C 0.50121 0.03111 0.49957 0.0
C1522 C 0.50022 0.03686 0.53452 0.0
C1523 C 0.4833 0.0312 0.5507 0.0
H1524 H 0.44757 0.99649 0.01804 0.0
H1525 H 0.45362 0.97153 0.9215 0.0
H1526 H 0.47033 0.99152 0.04805 0.0
H1527 H 0.47677 0.96717 0.95093 0.0
H1528 H 0.51328 0.95423 0.0161 0.0
H1529 H 0.48519 0.95272 0.99566 0.0
H1530 H 0.5027 0.00559 0.04343 0.0
H1531 H 0.53041 0.00676 0.06491 0.0
C1532 C 0.45357 0.98971 1.00339 0.0
C1533 C 0.44894 0.98459 0.96727 0.0
C1534 C 0.46673 0.987 0.02049 0.0
C1535 C 0.47565 0.97924 1.00174 0.0
C1536 C 0.47013 0.97306 0.96634 0.0
C1537 C 0.45686 0.97562 0.94936 0.0
C1538 C 0.51104 0.96545 0.02251 0.0
C1539 C 0.52414 0.98069 0.04187 0.0
C1540 C 0.49495 0.96461 0.01069 0.0
C1541 C 0.49168 0.97906 0.01771 0.0
C1542 C 0.50458 0.99406 0.03799 0.0
C1543 C 0.52058 0.99482 0.05007 0.0
H1544 H 0.01117 0.54317 0.98169 0.0
H1545 H 0.96181 0.5164 0.04532 0.0
H1546 H 0.00433 0.51379 0.95674 0.0
H1547 H 0.95465 0.48707 0.01951 0.0
H1548 H 0.95946 0.43626 1.00131 0.0
H1549 H 0.96543 0.46584 0.02354 0.0
H1550 H 0.98443 0.4892 0.91809 0.0
H1551 H 0.97898 0.45973 0.89615 0.0
C1552 C -0.0013 0.53105 0.98992 0.0
C1553 C 0.98709 0.53212 0.01566 0.0
C1554 C 0.99474 0.51418 0.9755 0.0
C1555 C 0.979 0.498 0.9863 0.0
C1556 C 0.96708 0.49919 0.01113 0.0
C1557 C 0.9711 0.51604 0.02572 0.0
C1558 C 0.96493 0.44771 0.98287 0.0
C1559 C 0.96878 0.44563 0.94698 0.0
C1560 C 0.96822 0.46466 0.99554 0.0
C1561 C 0.97533 0.47992 0.97258 0.0
C1562 C 0.97916 0.47781 0.93665 0.0
C1563 C 0.97597 0.46088 0.92403 0.0
H1564 H 0.45394 0.46394 0.97762 0.0
H1565 H 0.47934 0.4557 0.07099 0.0
H1566 H 0.4836 0.48858 0.95775 0.0
H1567 H 0.50889 0.48065 0.05167 0.0
H1568 H 0.56109 0.51122 0.9851 0.0
H1569 H 0.53133 0.48721 0.00578 0.0
H1570 H 0.50717 0.51926 0.97174 0.0
H1571 H 0.53688 0.54307 0.95012 0.0
C1572 C 0.46582 0.4675 0.99408 0.0
C1573 C 0.46429 0.4578 0.0258 0.0
C1574 C 0.48282 0.48169 0.98279 0.0
C1575 C 0.49866 0.48657 1.00304 0.0
C1576 C 0.49704 0.47705 0.03509 0.0
C1577 C 0.48007 0.46281 0.04628 0.0
C1578 C 0.54944 0.51316 0.98204 0.0
C1579 C 0.55136 0.52905 0.9659 0.0
C1580 C 0.53238 0.49943 0.99412 0.0
C1581 C 0.51684 0.5013 0.9905 0.0
C1582 C 0.5188 0.51726 0.97451 0.0
C1583 C 0.53586 0.53095 0.96229 0.0
H1584 H 0.41431 0.07359 0.95997 0.0
H1585 H 0.44242 0.05309 0.02483 0.0
H1586 H 0.40295 0.08074 0.01406 0.0
H1587 H 0.43204 0.06126 0.07917 0.0
H1588 H 0.38507 0.04615 0.15786 0.0
H1589 H 0.4042 0.04764 0.1084 0.0
H1590 H 0.4047 0.09587 0.06821 0.0
H1591 H 0.38457 0.09379 0.11756 0.0
C1592 C 0.41866 0.07127 0.98585 0.0
C1593 C 0.42904 0.06252 0.98811 0.0
C1594 C 0.41215 0.07541 0.01704 0.0
C1595 C 0.41614 0.07118 0.05127 0.0
C1596 C 0.4281 0.06414 0.05338 0.0
C1597 C 0.43426 0.05963 0.02221 0.0
C1598 C 0.38938 0.05725 0.13881 0.0
C1599 C 0.38306 0.06974 0.14162 0.0
C1600 C 0.40062 0.05823 0.1104 0.0
C1601 C 0.40613 0.07189 0.08395 0.0
C1602 C 0.40055 0.08498 0.08767 0.0
C1603 C 0.3891 0.08389 0.11614 0.0
H1604 H 0.86204 0.28614 0.15219 0.0
H1605 H 0.90234 0.33992 0.18894 0.0
H1606 H 0.86138 0.29883 0.09377 0.0
H1607 H 0.90292 0.35235 0.13043 0.0
H1608 H 0.90754 0.37411 0.02257 0.0
H1609 H 0.89441 0.36186 0.0814 0.0
H1610 H 0.87891 0.3075 0.04393 0.0
H1611 H 0.89058 0.31958 0.98509 0.0
C1612 C 0.87055 0.30072 0.14798 0.0
C1613 C 0.88242 0.31193 0.17515 0.0
C1614 C 0.87041 0.30803 0.11421 0.0
C1615 C 0.88254 0.32664 0.1064 0.0
C1616 C 0.89324 0.33803 0.13478 0.0
C1617 C 0.89301 0.33081 0.1687 0.0
C1618 C 0.90076 0.35947 0.02672 0.0
C1619 C 0.90037 0.3479 0.9992 0.0
C1620 C 0.89342 0.3524 0.06072 0.0
C1621 C 0.88602 0.33364 0.06837 0.0
C1622 C 0.8843 0.32196 0.03972 0.0
C1623 C 0.89117 0.32897 0.0056 0.0
H1624 H 0.62859 0.53853 0.02485 0.0
H1625 H 0.68007 0.582 0.98494 0.0
H1626 H 0.64316 0.53906 0.08173 0.0
H1627 H 0.69424 0.58369 0.04202 0.0
H1628 H 0.66495 0.56692 0.19088 0.0
H1629 H 0.65196 0.55587 0.13235 0.0
H1630 H 0.70619 0.57615 0.08847 0.0
H1631 H 0.71925 0.58864 0.14723 0.0
C1632 C 0.64307 0.54805 0.02806 0.0
C1633 C 0.65307 0.56034 1.00039 0.0
C1634 C 0.65145 0.54858 0.06097 0.0
C1635 C 0.66992 0.56179 0.06747 0.0
C1636 C 0.68012 0.57315 0.03864 0.0
C1637 C 0.67188 0.57227 0.00556 0.0
C1638 C 0.67416 0.56874 0.16896 0.0
C1639 C 0.69321 0.57901 0.17377 0.0
C1640 C 0.66663 0.56223 0.13499 0.0
C1641 C 0.67789 0.56537 0.10477 0.0
C1642 C 0.69695 0.57401 0.11048 0.0
C1643 C 0.70452 0.58098 0.14441 0.0
H1644 H 0.07625 0.40315 0.29334 0.0
H1645 H 0.10789 0.38621 0.35671 0.0
H1646 H 0.06625 0.41144 0.34793 0.0
H1647 H 0.09885 0.39554 0.41135 0.0
H1648 H 0.05065 0.42695 0.45192 0.0
H1649 H 0.06937 0.42812 0.40064 0.0
H1650 H 0.07214 0.3822 0.44439 0.0
H1651 H 0.05441 0.38164 0.49566 0.0
C1652 C 0.08164 0.40186 0.3189 0.0
C1653 C 0.09265 0.39378 0.32075 0.0
C1654 C 0.07592 0.40667 0.35037 0.0
C1655 C 0.08133 0.40378 0.38441 0.0
C1656 C 0.09384 0.39739 0.38582 0.0
C1657 C 0.09923 0.39222 0.35444 0.0
C1658 C 0.05562 0.41739 0.45085 0.0
C1659 C 0.05088 0.40412 0.47787 0.0
C1660 C 0.06625 0.41795 0.42127 0.0
C1661 C 0.0723 0.4052 0.41797 0.0
C1662 C 0.06815 0.39251 0.44594 0.0
C1663 C 0.05773 0.39205 0.47543 0.0
H1664 H 0.59824 0.66136 0.50112 0.0
H1665 H 0.5577 0.61089 0.45191 0.0
H1666 H 0.59719 0.67832 0.45013 0.0
H1667 H 0.55587 0.62815 0.40083 0.0
H1668 H 0.58142 0.66255 0.29664 0.0
H1669 H 0.57301 0.64358 0.35019 0.0
H1670 H 0.58332 0.69021 0.41525 0.0
H1671 H 0.59291 0.70938 0.36171 0.0
C1672 C 0.58871 0.65386 0.47971 0.0
C1673 C 0.57822 0.63467 0.48057 0.0
C1674 C 0.58795 0.6637 0.45033 0.0
C1675 C 0.57647 0.65474 0.42087 0.0
C1676 C 0.56514 0.63557 0.42261 0.0
C1677 C 0.56605 0.62564 0.45208 0.0
C1678 C 0.58146 0.66865 0.32229 0.0
C1679 C 0.58809 0.68754 0.32499 0.0
C1680 C 0.57657 0.65772 0.35319 0.0
C1681 C 0.57787 0.66534 0.38752 0.0
C1682 C 0.58275 0.6839 0.38959 0.0
C1683 C 0.58806 0.69491 0.35881 0.0
H1684 H 0.39206 0.94727 0.47105 0.0
H1685 H 0.344 0.925 0.53821 0.0
H1686 H 0.37285 0.93862 0.41763 0.0
H1687 H 0.32482 0.91744 0.48514 0.0
H1688 H 0.29195 0.90433 0.38378 0.0
H1689 H 0.31095 0.90253 0.43145 0.0
H1690 H 0.35765 0.95138 0.38979 0.0
H1691 H 0.33913 0.95256 0.34195 0.0
C1692 C 0.37735 0.94025 0.47437 0.0
C1693 C 0.36959 0.93701 0.50886 0.0
C1694 C 0.36629 0.93547 0.44373 0.0
C1695 C 0.3472 0.92781 0.4468 0.0
C1696 C 0.33938 0.92324 0.48137 0.0
C1697 C 0.35043 0.92764 0.512 0.0
C1698 C 0.30637 0.91443 0.3845 0.0
C1699 C 0.31392 0.92866 0.35913 0.0
C1700 C 0.31727 0.9135 0.41201 0.0
C1701 C 0.33594 0.92686 0.41488 0.0
C1702 C 0.34351 0.94058 0.38845 0.0
C1703 C 0.33274 0.94139 0.36098 0.0
H1704 H 0.57272 0.89494 0.8079 0.0
H1705 H 0.61749 0.89719 0.86804 0.0
H1706 H 0.56154 0.90213 0.8626 0.0
H1707 H 0.60698 0.90514 0.92175 0.0
H1708 H 0.58543 0.91569 0.01978 0.0
H1709 H 0.58667 0.8984 0.96856 0.0
H1710 H 0.56956 0.92787 0.89859 0.0
H1711 H 0.56729 0.9443 0.95034 0.0
C1712 C 0.58002 0.89667 0.83285 0.0
C1713 C 0.59611 0.89563 0.83339 0.0
C1714 C 0.57372 0.901 0.86421 0.0
C1715 C 0.58341 0.90449 0.89682 0.0
C1716 C 0.59889 0.90235 0.89757 0.0
C1717 C 0.60506 0.89789 0.86645 0.0
C1718 C 0.58148 0.91811 0.99355 0.0
C1719 C 0.57642 0.93147 0.98905 0.0
C1720 C 0.58237 0.90833 0.96402 0.0
C1721 C 0.57869 0.91199 0.92901 0.0
C1722 C 0.57241 0.9245 0.92497 0.0
C1723 C 0.57114 0.93402 0.95471 0.0
H1724 H 0.0544 0.61549 0.96262 0.0
H1725 H 0.06621 0.66109 0.03177 0.0
H1726 H 0.06729 0.63624 0.91168 0.0
H1727 H 0.07787 0.68168 0.98084 0.0
H1728 H 0.10462 0.71851 0.88668 0.0
H1729 H 0.09879 0.69794 0.9373 0.0
H1730 H 0.06047 0.65237 0.87205 0.0
H1731 H 0.06728 0.67268 0.82138 0.0
C1732 C 0.05982 0.62998 0.96696 0.0
C1733 C 0.05923 0.63658 1.00131 0.0
C1734 C 0.06706 0.64194 0.93759 0.0
C1735 C 0.07347 0.66081 0.94152 0.0
C1736 C 0.07341 0.66741 0.97632 0.0
C1737 C 0.06659 0.65551 0.00576 0.0
C1738 C 0.0952 0.70403 0.8831 0.0
C1739 C 0.08645 0.6973 0.84989 0.0
C1740 C 0.09167 0.69218 0.9123 0.0
C1741 C 0.07895 0.6733 0.90938 0.0
C1742 C 0.0706 0.66662 0.8757 0.0
C1743 C 0.07443 0.67838 0.84642 0.0
H1744 H 0.28588 0.39938 0.85622 0.0
H1745 H 0.33183 0.41033 0.78886 0.0
H1746 H 0.30553 0.40842 0.90903 0.0
H1747 H 0.35129 0.41826 0.84169 0.0
H1748 H 0.38466 0.43272 0.94293 0.0
H1749 H 0.36724 0.43515 0.89278 0.0
H1750 H 0.3172 0.39342 0.94171 0.0
H1751 H 0.33432 0.39167 0.99176 0.0
C1752 C 0.30028 0.40405 0.85265 0.0
C1753 C 0.30724 0.40397 0.81841 0.0
C1754 C 0.31155 0.40903 0.883 0.0
C1755 C 0.32998 0.41355 0.88003 0.0
C1756 C 0.33726 0.41493 0.84533 0.0
C1757 C 0.32605 0.41034 0.81486 0.0
C1758 C 0.36991 0.42438 0.94322 0.0
C1759 C 0.36095 0.4119 0.97132 0.0
C1760 C 0.35989 0.42566 0.9143 0.0
C1761 C 0.34071 0.41443 0.91279 0.0
C1762 C 0.33184 0.40259 0.94184 0.0
C1763 C 0.34176 0.40143 0.97064 0.0
H1764 H 0.92815 0.58354 0.67966 0.0
H1765 H 0.88761 0.59368 0.6316 0.0
H1766 H 0.93034 0.56971 0.62467 0.0
H1767 H 0.88889 0.57861 0.57651 0.0
H1768 H 0.91781 0.5781 0.47088 0.0
H1769 H 0.90733 0.58434 0.52706 0.0
H1770 H 0.92063 0.5475 0.5823 0.0
H1771 H 0.93239 0.54244 0.52629 0.0
C1772 C 0.91924 0.58232 0.65763 0.0
C1773 C 0.90786 0.58999 0.66013 0.0
C1774 C 0.92039 0.57417 0.62581 0.0
C1775 C 0.90994 0.57305 0.59542 0.0
C1776 C 0.89754 0.57956 0.59879 0.0
C1777 C 0.89661 0.58803 0.63064 0.0
C1778 C 0.91815 0.57105 0.49492 0.0
C1779 C 0.92613 0.55993 0.49417 0.0
C1780 C 0.91204 0.57458 0.52738 0.0
C1781 C 0.91339 0.56678 0.55991 0.0
C1782 C 0.91993 0.55436 0.55833 0.0
C1783 C 0.92648 0.55122 0.52605 0.0
H1784 H 0.39722 0.27816 0.63182 0.0
H1785 H 0.43969 0.3246 0.68859 0.0
H1786 H 0.4099 0.29329 0.57488 0.0
H1787 H 0.45285 0.33954 0.63147 0.0
H1788 H 0.44716 0.3704 0.53292 0.0
H1789 H 0.44415 0.3544 0.58892 0.0
H1790 H 0.43238 0.30577 0.52944 0.0
H1791 H 0.43477 0.32168 0.47331 0.0
C1792 C 0.40967 0.29132 0.63216 0.0
C1793 C 0.41724 0.30025 0.66489 0.0
C1794 C 0.41702 0.30006 0.59933 0.0
C1795 C 0.43226 0.31789 0.59834 0.0
C1796 C 0.44083 0.32606 0.63107 0.0
C1797 C 0.43337 0.31739 0.6639 0.0
C1798 C 0.44443 0.35645 0.53166 0.0
C1799 C 0.44095 0.34729 0.49852 0.0
C1800 C 0.44273 0.34721 0.56395 0.0
C1801 C 0.43767 0.32859 0.56398 0.0
C1802 C 0.43582 0.31993 0.53064 0.0
C1803 C 0.43737 0.32914 0.49834 0.0
H1804 H 0.67552 0.10255 0.48289 0.0
H1805 H 0.62242 0.09143 0.51916 0.0
H1806 H 0.68839 0.11532 0.54074 0.0
H1807 H 0.63558 0.10568 0.57678 0.0
H1808 H 0.65628 0.09915 0.68706 0.0
H1809 H 0.64407 0.09765 0.62786 0.0
H1810 H 0.6986 0.13448 0.58816 0.0
H1811 H 0.71092 0.13466 0.64745 0.0
C1812 C 0.66669 0.1035 0.50284 0.0
C1813 C 0.64783 0.09562 0.4965 0.0
C1814 C 0.67415 0.111 0.53636 0.0
C1815 C 0.66307 0.11128 0.56443 0.0
C1816 C 0.64454 0.10514 0.55663 0.0
C1817 C 0.63696 0.09716 0.5233 0.0
C1818 C 0.66568 0.1073 0.66595 0.0
C1819 C 0.68465 0.11674 0.67196 0.0
C1820 C 0.65861 0.10652 0.6316 0.0
C1821 C 0.67027 0.11555 0.6023 0.0
C1822 C 0.68912 0.12669 0.6094 0.0
C1823 C 0.69625 0.12706 0.64365 0.0
H1824 H 0.76436 0.71252 0.73692 0.0
H1825 H 0.72609 0.72533 0.68674 0.0
H1826 H 0.76606 0.73094 0.78917 0.0
H1827 H 0.72711 0.74282 0.7388 0.0
H1828 H 0.73267 0.77825 0.82815 0.0
H1829 H 0.7422 0.76843 0.77487 0.0
H1830 H 0.74794 0.72899 0.83906 0.0
H1831 H 0.73947 0.73966 0.89255 0.0
C1832 C 0.75649 0.71941 0.73681 0.0
C1833 C 0.745 0.7173 0.70764 0.0
C1834 C 0.75734 0.72987 0.76692 0.0
C1835 C 0.74667 0.73841 0.76858 0.0
C1836 C 0.73583 0.73685 0.73861 0.0
C1837 C 0.73509 0.72658 0.70863 0.0
C1838 C 0.73653 0.76788 0.831 0.0
C1839 C 0.73516 0.75963 0.8645 0.0
C1840 C 0.74179 0.76206 0.80035 0.0
C1841 C 0.74535 0.74747 0.8022 0.0
C1842 C 0.7454 0.74026 0.83633 0.0
C1843 C 0.7405 0.74638 0.86715 0.0
H1844 H 0.22798 0.99695 0.6561 0.0
H1845 H 0.24923 0.05249 0.69225 0.0
H1846 H 0.21613 0.98579 0.71516 0.0
H1847 H 0.23584 0.04127 0.75136 0.0
H1848 H 0.24244 0.01865 0.85908 0.0
H1849 H 0.24319 0.03112 0.80064 0.0
H1850 H 0.19943 0.97837 0.76553 0.0
H1851 H 0.19998 0.96552 0.82382 0.0
C1852 C 0.22951 0.00682 0.67639 0.0
C1853 C 0.23998 0.02568 0.66953 0.0
C1854 C 0.22251 0.00035 0.71067 0.0
C1855 C 0.22533 0.01253 0.73907 0.0
C1856 C 0.23399 0.03137 0.73093 0.0
C1857 C 0.24147 0.03788 0.69675 0.0
C1858 C 0.23267 0.00973 0.8392 0.0
C1859 C 0.22144 0.99095 0.84598 0.0
C1860 C 0.233 0.01699 0.80529 0.0
C1861 C 0.22175 0.00578 0.77728 0.0
C1862 C 0.20894 0.9874 0.78558 0.0
C1863 C 0.20901 0.98 0.8193 0.0
H1864 H 0.94636 0.22638 0.72202 0.0
H1865 H 0.99658 0.26929 0.67622 0.0
H1866 H 0.96358 0.22421 0.77279 0.0
H1867 H 0.01346 0.26786 0.72699 0.0
H1868 H 0.04453 0.26293 0.81449 0.0
H1869 H 0.02585 0.25395 0.76032 0.0
H1870 H 0.97813 0.24043 0.82484 0.0
H1871 H -0.00332 0.24824 0.87893 0.0
C1872 C 0.96106 0.2352 0.72255 0.0
C1873 C 0.97002 0.2481 0.69509 0.0
C1874 C 0.97096 0.23408 0.75183 0.0
C1875 C 0.99002 0.24593 0.75445 0.0
C1876 C -0.00106 0.25821 0.72603 0.0
C1877 C 0.98914 0.25918 0.6968 0.0
C1878 C 0.02995 0.2575 0.81709 0.0
C1879 C 0.02213 0.25646 0.85094 0.0
C1880 C 0.01921 0.25255 0.78597 0.0
C1881 C 0.00047 0.24696 0.78778 0.0
C1882 C 0.99243 0.24458 0.82203 0.0
C1883 C 0.00312 0.24911 0.85323 0.0
H1884 H 0.28472 0.22954 0.23078 0.0
H1885 H 0.27392 0.26991 0.18396 0.0
H1886 H 0.26525 0.22664 0.28209 0.0
H1887 H 0.25535 0.26764 0.2351 0.0
H1888 H 0.21789 0.25987 0.32186 0.0
H1889 H 0.22873 0.25157 0.26834 0.0
H1890 H 0.26638 0.24355 0.33374 0.0
H1891 H 0.25472 0.25083 0.38734 0.0
C1892 C 0.27805 0.23763 0.23118 0.0
C1893 C 0.28102 0.25005 0.20327 0.0
C1894 C 0.26698 0.23608 0.26075 0.0
C1895 C 0.25866 0.24693 0.26308 0.0
C1896 C 0.26112 0.25875 0.23431 0.0
C1897 C 0.27202 0.26021 0.20489 0.0
C1898 C 0.22807 0.25576 0.32488 0.0
C1899 C 0.23556 0.25618 0.3588 0.0
C1900 C 0.23448 0.25121 0.29412 0.0
C1901 C 0.24888 0.24741 0.29634 0.0
C1902 C 0.25527 0.24634 0.33072 0.0
C1903 C 0.24858 0.25054 0.36162 0.0
H1904 H 0.7626 0.04932 0.22454 0.0
H1905 H 0.72311 -0.00159 0.17509 0.0
H1906 H 0.76389 0.03246 0.27685 0.0
H1907 H 0.72359 0.98185 0.2273 0.0
H1908 H 0.72776 0.95154 0.31767 0.0
H1909 H 0.73722 0.97035 0.26368 0.0
H1910 H 0.74661 0.01715 0.32723 0.0
H1911 H 0.73837 -0.00149 0.38131 0.0
C1912 C 0.75434 0.03455 0.22462 0.0
C1913 C 0.74268 0.02528 0.19559 0.0
C1914 C 0.75494 0.02485 0.2548 0.0
C1915 C 0.74377 0.00567 0.25679 0.0
C1916 C 0.73272 0.99649 0.22695 0.0
C1917 C 0.73229 0.0061 0.19683 0.0
C1918 C 0.73238 0.96598 0.32015 0.0
C1919 C 0.7322 0.97349 0.3537 0.0
C1920 C 0.73759 0.97678 0.28909 0.0
C1921 C 0.74221 0.99528 0.29058 0.0
C1922 C 0.74327 0.00306 0.32466 0.0
C1923 C 0.73848 0.99233 0.35586 0.0
H1924 H 0.04811 0.795 0.3151 0.0
H1925 H -0.0021 0.7569 0.36824 0.0
H1926 H 0.03145 0.79063 0.25914 0.0
H1927 H 0.98146 0.75127 0.31218 0.0
H1928 H 0.95257 0.74088 0.20811 0.0
H1929 H 0.96821 0.75609 0.26361 0.0
H1930 H 0.02 0.76992 0.21455 0.0
H1931 H 0.00459 0.75612 0.15915 0.0
C1932 C 0.03346 0.78586 0.31491 0.0
C1933 C 0.0244 0.77625 0.34614 0.0
C1934 C 0.02385 0.78308 0.28259 0.0
C1935 C 0.00501 0.77011 0.28027 0.0
C1936 C 0.99582 0.76147 0.31231 0.0
C1937 C 0.00533 0.76466 0.34478 0.0
C1938 C 0.96735 0.74767 0.20899 0.0
C1939 C 0.97724 0.74708 0.17911 0.0
C1940 C 0.97638 0.75621 0.24109 0.0
C1941 C 0.99552 0.76407 0.24443 0.0
C1942 C 0.00538 0.76438 0.21361 0.0
C1943 C 0.99642 0.75623 0.18149 0.0
loop_
_geom_bond_atom_site_label_1
_geom_bond_atom_site_label_2
_geom_bond_distance
_geom_bond_site_symmetry_2
_ccdc_geom_bond_type
Zn0 O3 2.031 . S
Zn0 O5 2.049 . S
Zn0 O10 2.067 . S
Zn1 O2 1.962 . S
Zn1 O4 1.986 . S
Zn1 O6 1.996 . S
Zn1 O9 1.943 . S
O2 Zn1 1.962 . S
O2 C7 1.254 . S
O3 Zn0 2.031 . S
O3 C7 1.269 . S
O4 Zn1 1.986 . S
O4 C11 1.262 . S
O5 Zn0 2.049 . S
O5 C13 1.260 . S
O6 Zn1 1.996 . S
O6 C13 1.257 . S
C7 O2 1.254 . S
C7 O3 1.269 . S
C8 O9 1.249 . S
C8 O10 1.270 . S
O9 Zn1 1.943 . S
O9 C8 1.249 . S
O10 Zn0 2.067 . S
O10 C8 1.270 . S
C11 O4 1.262 . S
C11 O12 1.232 . S
O12 C11 1.232 . S
C13 O5 1.260 . S
C13 O6 1.257 . S
Zn14 O17 2.031 . S
Zn14 O19 2.049 . S
Zn14 O24 2.067 . S
Zn15 O16 1.962 . S
Zn15 O18 1.986 . S
Zn15 O20 1.996 . S
Zn15 O23 1.943 . S
O16 Zn15 1.962 . S
O16 C21 1.254 . S
O17 Zn14 2.031 . S
O17 C21 1.269 . S
O18 Zn15 1.986 . S
O18 C25 1.262 . S
O19 Zn14 2.049 . S
O19 C27 1.260 . S
O20 Zn15 1.996 . S
O20 C27 1.257 . S
C21 O16 1.254 . S
C21 O17 1.269 . S
C22 O23 1.249 . S
C22 O24 1.270 . S
O23 Zn15 1.943 . S
O23 C22 1.249 . S
O24 Zn14 2.067 . S
O24 C22 1.270 . S
C25 O18 1.262 . S
C25 O26 1.232 . S
O26 C25 1.232 . S
C27 O19 1.260 . S
C27 O20 1.257 . S
Zn28 O31 2.031 . S
Zn28 O33 2.049 . S
Zn28 O38 2.067 . S
Zn29 O30 1.962 . S
Zn29 O32 1.986 . S
Zn29 O34 1.996 . S
Zn29 O37 1.943 . S
O30 Zn29 1.962 . S
O30 C35 1.254 . S
O31 Zn28 2.031 . S
O31 C35 1.269 . S
O32 Zn29 1.986 . S
O32 C39 1.262 . S
O33 Zn28 2.049 . S
O33 C41 1.260 . S
O34 Zn29 1.996 . S
O34 C41 1.257 . S
C35 O30 1.254 . S
C35 O31 1.269 . S
C36 O37 1.249 . S
C36 O38 1.270 . S
O37 Zn29 1.943 . S
O37 C36 1.249 . S
O38 Zn28 2.067 . S
O38 C36 1.270 . S
C39 O32 1.262 . S
C39 O40 1.232 . S
O40 C39 1.232 . S
C41 O33 1.260 . S
C41 O34 1.257 . S
Zn42 O45 2.031 . S
Zn42 O47 2.049 . S
Zn42 O52 2.067 . S
Zn43 O44 1.962 . S
Zn43 O46 1.986 . S
Zn43 O48 1.996 . S
Zn43 O51 1.943 . S
O44 Zn43 1.962 . S
O44 C49 1.254 . S
O45 Zn42 2.031 . S
O45 C49 1.269 . S
O46 Zn43 1.986 . S
O46 C53 1.262 . S
O47 Zn42 2.049 . S
O47 C55 1.260 . S
O48 Zn43 1.996 . S
O48 C55 1.257 . S
C49 O44 1.254 . S
C49 O45 1.269 . S
C50 O51 1.249 . S
C50 O52 1.270 . S
O51 Zn43 1.943 . S
O51 C50 1.249 . S
O52 Zn42 2.067 . S
O52 C50 1.270 . S
C53 O46 1.262 . S
C53 O54 1.232 . S
O54 C53 1.232 . S
C55 O47 1.260 . S
C55 O48 1.257 . S
Zn56 O59 2.031 . S
Zn56 O61 2.049 . S
Zn56 O66 2.067 . S
Zn57 O58 1.962 . S
Zn57 O60 1.986 . S
Zn57 O62 1.996 . S
Zn57 O65 1.943 . S
O58 Zn57 1.962 . S
O58 C63 1.254 . S
O59 Zn56 2.031 . S
O59 C63 1.269 . S
O60 Zn57 1.986 . S
O60 C67 1.262 . S
O61 Zn56 2.049 . S
O61 C69 1.260 . S
O62 Zn57 1.996 . S
O62 C69 1.257 . S
C63 O58 1.254 . S
C63 O59 1.269 . S
C64 O65 1.249 . S
C64 O66 1.270 . S
O65 Zn57 1.943 . S
O65 C64 1.249 . S
O66 Zn56 2.067 . S
O66 C64 1.270 . S
C67 O60 1.262 . S
C67 O68 1.232 . S
O68 C67 1.232 . S
C69 O61 1.260 . S
C69 O62 1.257 . S
Zn70 O73 2.031 . S
Zn70 O75 2.049 . S
Zn70 O80 2.067 . S
Zn71 O72 1.962 . S
Zn71 O74 1.986 . S
Zn71 O76 1.996 . S
Zn71 O79 1.943 . S
O72 Zn71 1.962 . S
O72 C77 1.254 . S
O73 Zn70 2.031 . S
O73 C77 1.269 . S
O74 Zn71 1.986 . S
O74 C81 1.262 . S
O75 Zn70 2.049 . S
O75 C83 1.260 . S
O76 Zn71 1.996 . S
O76 C83 1.257 . S
C77 O72 1.254 . S
C77 O73 1.269 . S
C78 O79 1.249 . S
C78 O80 1.270 . S
O79 Zn71 1.943 . S
O79 C78 1.249 . S
O80 Zn70 2.067 . S
O80 C78 1.270 . S
C81 O74 1.262 . S
C81 O82 1.232 . S
O82 C81 1.232 . S
C83 O75 1.260 . S
C83 O76 1.257 . S
Zn84 O87 2.031 . S
Zn84 O89 2.049 . S
Zn84 O94 2.067 . S
Zn85 O86 1.962 . S
Zn85 O88 1.986 . S
Zn85 O90 1.996 . S
Zn85 O93 1.943 . S
O86 Zn85 1.962 . S
O86 C91 1.254 . S
O87 Zn84 2.031 . S
O87 C91 1.269 . S
O88 Zn85 1.986 . S
O88 C95 1.262 . S
O89 Zn84 2.049 . S
O89 C97 1.260 . S
O90 Zn85 1.996 . S
O90 C97 1.257 . S
C91 O86 1.254 . S
C91 O87 1.269 . S
C92 O93 1.249 . S
C92 O94 1.270 . S
O93 Zn85 1.943 . S
O93 C92 1.249 . S
O94 Zn84 2.067 . S
O94 C92 1.270 . S
C95 O88 1.262 . S
C95 O96 1.232 . S
O96 C95 1.232 . S
C97 O89 1.260 . S
C97 O90 1.257 . S
Zn98 O101 2.031 . S
Zn98 O103 2.049 . S
Zn98 O108 2.067 . S
Zn99 O100 1.962 . S
Zn99 O102 1.986 . S
Zn99 O104 1.996 . S
Zn99 O107 1.943 . S
O100 Zn99 1.962 . S
O100 C105 1.254 . S
O101 Zn98 2.031 . S
O101 C105 1.269 . S
O102 Zn99 1.986 . S
O102 C109 1.262 . S
O103 Zn98 2.049 . S
O103 C111 1.260 . S
O104 Zn99 1.996 . S
O104 C111 1.257 . S
C105 O100 1.254 . S
C105 O101 1.269 . S
C106 O107 1.249 . S
C106 O108 1.270 . S
O107 Zn99 1.943 . S
O107 C106 1.249 . S
O108 Zn98 2.067 . S
O108 C106 1.270 . S
C109 O102 1.262 . S
C109 O110 1.232 . S
O110 C109 1.232 . S
C111 O103 1.260 . S
C111 O104 1.257 . S
Zn112 O115 2.031 . S
Zn112 O117 2.049 . S
Zn112 O122 2.067 . S
Zn113 O114 1.962 . S
Zn113 O116 1.986 . S
Zn113 O118 1.996 . S
Zn113 O121 1.943 . S
O114 Zn113 1.962 . S
O114 C119 1.254 . S
O115 Zn112 2.031 . S
O115 C119 1.269 . S
O116 Zn113 1.986 . S
O116 C123 1.262 . S
O117 Zn112 2.049 . S
O117 C125 1.260 . S
O118 Zn113 1.996 . S
O118 C125 1.257 . S
C119 O114 1.254 . S
C119 O115 1.269 . S
C120 O121 1.249 . S
C120 O122 1.270 . S
O121 Zn113 1.943 . S
O121 C120 1.249 . S
O122 Zn112 2.067 . S
O122 C120 1.270 . S
C123 O116 1.262 . S
C123 O124 1.232 . S
O124 C123 1.232 . S
C125 O117 1.260 . S
C125 O118 1.257 . S
Zn126 O129 2.031 . S
Zn126 O131 2.049 . S
Zn126 O136 2.067 . S
Zn127 O128 1.962 . S
Zn127 O130 1.986 . S
Zn127 O132 1.996 . S
Zn127 O135 1.943 . S
O128 Zn127 1.962 . S
O128 C133 1.254 . S
O129 Zn126 2.031 . S
O129 C133 1.269 . S
O130 Zn127 1.986 . S
O130 C137 1.262 . S
O131 Zn126 2.049 . S
O131 C139 1.260 . S
O132 Zn127 1.996 . S
O132 C139 1.257 . S
C133 O128 1.254 . S
C133 O129 1.269 . S
C134 O135 1.249 . S
C134 O136 1.270 . S
O135 Zn127 1.943 . S
O135 C134 1.249 . S
O136 Zn126 2.067 . S
O136 C134 1.270 . S
C137 O130 1.262 . S
C137 O138 1.232 . S
O138 C137 1.232 . S
C139 O131 1.260 . S
C139 O132 1.257 . S
Zn140 O143 2.031 . S
Zn140 O145 2.049 . S
Zn140 O150 2.067 . S
Zn141 O142 1.962 . S
Zn141 O144 1.986 . S
Zn141 O146 1.996 . S
Zn141 O149 1.943 . S
O142 Zn141 1.962 . S
O142 C147 1.254 . S
O143 Zn140 2.031 . S
O143 C147 1.269 . S
O144 Zn141 1.986 . S
O144 C151 1.262 . S
O145 Zn140 2.049 . S
O145 C153 1.260 . S
O146 Zn141 1.996 . S
O146 C153 1.257 . S
C147 O142 1.254 . S
C147 O143 1.269 . S
C148 O149 1.249 . S
C148 O150 1.270 . S
O149 Zn141 1.943 . S
O149 C148 1.249 . S
O150 Zn140 2.067 . S
O150 C148 1.270 . S
C151 O144 1.262 . S
C151 O152 1.232 . S
O152 C151 1.232 . S
C153 O145 1.260 . S
C153 O146 1.257 . S
Zn154 O157 2.031 . S
Zn154 O159 2.049 . S
Zn154 O164 2.067 . S
Zn155 O156 1.962 . S
Zn155 O158 1.986 . S
Zn155 O160 1.996 . S
Zn155 O163 1.943 . S
O156 Zn155 1.962 . S
O156 C161 1.254 . S
O157 Zn154 2.031 . S
O157 C161 1.269 . S
O158 Zn155 1.986 . S
O158 C165 1.262 . S
O159 Zn154 2.049 . S
O159 C167 1.260 . S
O160 Zn155 1.996 . S
O160 C167 1.257 . S
C161 O156 1.254 . S
C161 O157 1.269 . S
C162 O163 1.249 . S
C162 O164 1.270 . S
O163 Zn155 1.943 . S
O163 C162 1.249 . S
O164 Zn154 2.067 . S
O164 C162 1.270 . S
C165 O158 1.262 . S
C165 O166 1.232 . S
O166 C165 1.232 . S
C167 O159 1.260 . S
C167 O160 1.257 . S
Zn168 O171 2.031 . S
Zn168 O173 2.049 . S
Zn168 O178 2.067 1_455 S
Zn169 O170 1.962 . S
Zn169 O172 1.986 . S
Zn169 O174 1.996 . S
Zn169 O177 1.943 1_455 S
O170 Zn169 1.962 . S
O170 C175 1.254 . S
O171 Zn168 2.031 . S
O171 C175 1.269 . S
O172 Zn169 1.986 . S
O172 C179 1.259 . S
O173 Zn168 2.049 . S
O173 C181 1.260 . S
O174 Zn169 1.996 . S
O174 C181 1.257 . S
C175 O170 1.254 . S
C175 O171 1.269 . S
C176 O177 1.249 . S
C176 O178 1.270 . S
O177 Zn169 1.943 1_655 S
O177 C176 1.249 . S
O178 Zn168 2.067 1_655 S
O178 C176 1.270 . S
C179 O172 1.259 . S
C179 O180 1.249 1_455 S
O180 C179 1.249 1_655 S
C181 O173 1.260 . S
C181 O174 1.257 . S
Zn182 O185 2.031 . S
Zn182 O187 2.049 . S
Zn182 O192 2.067 . S
Zn183 O184 1.962 . S
Zn183 O186 1.986 . S
Zn183 O188 1.996 . S
Zn183 O191 1.943 . S
O184 Zn183 1.962 . S
O184 C189 1.254 . S
O185 Zn182 2.031 . S
O185 C189 1.269 . S
O186 Zn183 1.986 . S
O186 C193 1.262 . S
O187 Zn182 2.049 . S
O187 C195 1.260 . S
O188 Zn183 1.996 . S
O188 C195 1.257 . S
C189 O184 1.254 . S
C189 O185 1.269 . S
C190 O191 1.249 . S
C190 O192 1.270 . S
O191 Zn183 1.943 . S
O191 C190 1.249 . S
O192 Zn182 2.067 . S
O192 C190 1.270 . S
C193 O186 1.262 . S
C193 O194 1.232 . S
O194 C193 1.232 . S
C195 O187 1.260 . S
C195 O188 1.257 . S
Zn196 O199 2.031 . S
Zn196 O201 2.049 . S
Zn196 O206 2.067 1_565 S
Zn197 O198 1.962 . S
Zn197 O200 1.986 . S
Zn197 O202 1.996 . S
Zn197 O205 1.943 1_565 S
O198 Zn197 1.962 . S
O198 C203 1.254 . S
O199 Zn196 2.031 . S
O199 C203 1.269 . S
O200 Zn197 1.986 . S
O200 C207 1.264 . S
O201 Zn196 2.049 . S
O201 C209 1.260 . S
O202 Zn197 1.996 . S
O202 C209 1.257 . S
C203 O198 1.254 . S
C203 O199 1.269 . S
C204 O205 1.249 . S
C204 O206 1.270 . S
O205 Zn197 1.943 1_545 S
O205 C204 1.249 . S
O206 Zn196 2.067 1_545 S
O206 C204 1.270 . S
C207 O200 1.264 . S
C207 O208 1.213 1_565 S
O208 C207 1.213 1_545 S
C209 O201 1.260 . S
C209 O202 1.257 . S
Zn210 O213 2.031 . S
Zn210 O215 2.049 . S
Zn210 O220 2.067 . S
Zn211 O212 1.962 . S
Zn211 O214 1.986 . S
Zn211 O216 1.996 . S
Zn211 O219 1.943 . S
O212 Zn211 1.962 . S
O212 C217 1.254 . S
O213 Zn210 2.031 . S
O213 C217 1.269 . S
O214 Zn211 1.986 . S
O214 C221 1.262 . S
O215 Zn210 2.049 . S
O215 C223 1.260 . S
O216 Zn211 1.996 . S
O216 C223 1.257 . S
C217 O212 1.254 . S
C217 O213 1.269 . S
C218 O219 1.249 . S
C218 O220 1.270 . S
O219 Zn211 1.943 . S
O219 C218 1.249 . S
O220 Zn210 2.067 . S
O220 C218 1.270 . S
C221 O214 1.262 . S
C221 O222 1.232 . S
O222 C221 1.232 . S
C223 O215 1.260 . S
C223 O216 1.257 . S
Zn224 O227 2.031 . S
Zn224 O229 2.049 . S
Zn224 O234 2.067 . S
Zn225 O226 1.962 . S
Zn225 O228 1.986 . S
Zn225 O230 1.996 . S
Zn225 O233 1.943 . S
O226 Zn225 1.962 . S
O226 C231 1.254 . S
O227 Zn224 2.031 . S
O227 C231 1.269 . S
O228 Zn225 1.986 . S
O228 C235 1.262 . S
O229 Zn224 2.049 . S
O229 C237 1.260 . S
O230 Zn225 1.996 . S
O230 C237 1.257 . S
C231 O226 1.254 . S
C231 O227 1.269 . S
C232 O233 1.249 . S
C232 O234 1.270 . S
O233 Zn225 1.943 . S
O233 C232 1.249 . S
O234 Zn224 2.067 . S
O234 C232 1.270 . S
C235 O228 1.262 . S
C235 O236 1.232 . S
O236 C235 1.232 . S
C237 O229 1.260 . S
C237 O230 1.257 . S
Zn238 O241 2.031 . S
Zn238 O243 2.049 . S
Zn238 O248 2.067 . S
Zn239 O240 1.962 . S
Zn239 O242 1.986 . S
Zn239 O244 1.996 . S
Zn239 O247 1.943 . S
O240 Zn239 1.962 . S
O240 C245 1.254 . S
O241 Zn238 2.031 . S
O241 C245 1.269 . S
O242 Zn239 1.986 . S
O242 C249 1.262 . S
O243 Zn238 2.049 . S
O243 C251 1.260 . S
O244 Zn239 1.996 . S
O244 C251 1.257 . S
C245 O240 1.254 . S
C245 O241 1.269 . S
C246 O247 1.249 . S
C246 O248 1.270 . S
O247 Zn239 1.943 . S
O247 C246 1.249 . S
O248 Zn238 2.067 . S
O248 C246 1.270 . S
C249 O242 1.262 . S
C249 O250 1.232 . S
O250 C249 1.232 . S
C251 O243 1.260 . S
C251 O244 1.257 . S
Zn252 O255 2.031 . S
Zn252 O257 2.049 . S
Zn252 O262 2.067 . S
Zn253 O254 1.962 . S
Zn253 O256 1.986 . S
Zn253 O258 1.996 . S
Zn253 O261 1.943 . S
O254 Zn253 1.962 . S
O254 C259 1.254 . S
O255 Zn252 2.031 . S
O255 C259 1.269 . S
O256 Zn253 1.986 . S
O256 C263 1.262 . S
O257 Zn252 2.049 . S
O257 C265 1.260 . S
O258 Zn253 1.996 . S
O258 C265 1.257 . S
C259 O254 1.254 . S
C259 O255 1.269 . S
C260 O261 1.249 . S
C260 O262 1.270 . S
O261 Zn253 1.943 . S
O261 C260 1.249 . S
O262 Zn252 2.067 . S
O262 C260 1.270 . S
C263 O256 1.262 . S
C263 O264 1.232 . S
O264 C263 1.232 . S
C265 O257 1.260 . S
C265 O258 1.257 . S
Zn266 O269 2.031 . S
Zn266 O271 2.049 . S
Zn266 O276 2.067 . S
Zn267 O268 1.962 . S
Zn267 O270 1.986 . S
Zn267 O272 1.996 . S
Zn267 O275 1.943 . S
O268 Zn267 1.962 . S
O268 C273 1.254 . S
O269 Zn266 2.031 . S
O269 C273 1.269 . S
O270 Zn267 1.986 . S
O270 C277 1.262 . S
O271 Zn266 2.049 . S
O271 C279 1.260 . S
O272 Zn267 1.996 . S
O272 C279 1.257 . S
C273 O268 1.254 . S
C273 O269 1.269 . S
C274 O275 1.249 . S
C274 O276 1.270 . S
O275 Zn267 1.943 . S
O275 C274 1.249 . S
O276 Zn266 2.067 . S
O276 C274 1.270 . S
C277 O270 1.262 . S
C277 O278 1.232 . S
O278 C277 1.232 . S
C279 O271 1.260 . S
C279 O272 1.257 . S
Zn280 O283 2.031 . S
Zn280 O285 2.049 . S
Zn280 O290 2.067 . S
Zn281 O282 1.962 . S
Zn281 O284 1.986 . S
Zn281 O286 1.996 . S
Zn281 O289 1.943 . S
O282 Zn281 1.962 . S
O282 C287 1.254 . S
O283 Zn280 2.031 . S
O283 C287 1.269 . S
O284 Zn281 1.986 . S
O284 C291 1.262 . S
O285 Zn280 2.049 . S
O285 C293 1.260 . S
O286 Zn281 1.996 . S
O286 C293 1.257 . S
C287 O282 1.254 . S
C287 O283 1.269 . S
C288 O289 1.249 . S
C288 O290 1.270 . S
O289 Zn281 1.943 . S
O289 C288 1.249 . S
O290 Zn280 2.067 . S
O290 C288 1.270 . S
C291 O284 1.262 . S
C291 O292 1.232 . S
O292 C291 1.232 . S
C293 O285 1.260 . S
C293 O286 1.257 . S
Zn294 O297 2.031 . S
Zn294 O299 2.049 . S
Zn294 O304 2.067 1_565 S
Zn295 O296 1.962 . S
Zn295 O298 1.986 . S
Zn295 O300 1.996 . S
Zn295 O303 1.943 1_565 S
O296 Zn295 1.962 . S
O296 C301 1.254 . S
O297 Zn294 2.031 . S
O297 C301 1.269 . S
O298 Zn295 1.986 . S
O298 C305 1.260 . S
O299 Zn294 2.049 . S
O299 C307 1.260 . S
O300 Zn295 1.996 . S
O300 C307 1.257 . S
C301 O296 1.254 . S
C301 O297 1.269 . S
C302 O303 1.249 . S
C302 O304 1.270 . S
O303 Zn295 1.943 1_545 S
O303 C302 1.249 . S
O304 Zn294 2.067 1_545 S
O304 C302 1.270 . S
C305 O298 1.260 . S
C305 O306 1.249 1_565 S
O306 C305 1.249 1_545 S
C307 O299 1.260 . S
C307 O300 1.257 . S
Zn308 O311 2.031 . S
Zn308 O313 2.049 . S
Zn308 O318 2.067 1_455 S
Zn309 O310 1.962 . S
Zn309 O312 1.986 . S
Zn309 O314 1.996 . S
Zn309 O317 1.943 1_455 S
O310 Zn309 1.962 . S
O310 C315 1.254 . S
O311 Zn308 2.031 . S
O311 C315 1.269 . S
O312 Zn309 1.986 . S
O312 C319 1.265 . S
O313 Zn308 2.049 . S
O313 C321 1.260 . S
O314 Zn309 1.996 . S
O314 C321 1.257 . S
C315 O310 1.254 . S
C315 O311 1.269 . S
C316 O317 1.249 . S
C316 O318 1.270 . S
O317 Zn309 1.943 1_655 S
O317 C316 1.249 . S
O318 Zn308 2.067 1_655 S
O318 C316 1.270 . S
C319 O312 1.265 . S
C319 O320 1.213 1_455 S
O320 C319 1.213 1_655 S
C321 O313 1.260 . S
C321 O314 1.257 . S
Zn322 O325 2.031 . S
Zn322 O327 2.049 . S
Zn322 O332 2.067 . S
Zn323 O324 1.962 . S
Zn323 O326 1.986 . S
Zn323 O328 1.996 . S
Zn323 O331 1.943 . S
O324 Zn323 1.962 . S
O324 C329 1.254 . S
O325 Zn322 2.031 . S
O325 C329 1.269 . S
O326 Zn323 1.986 . S
O326 C333 1.262 . S
O327 Zn322 2.049 . S
O327 C335 1.260 . S
O328 Zn323 1.996 . S
O328 C335 1.257 . S
C329 O324 1.254 . S
C329 O325 1.269 . S
C330 O331 1.249 . S
C330 O332 1.270 . S
O331 Zn323 1.943 . S
O331 C330 1.249 . S
O332 Zn322 2.067 . S
O332 C330 1.270 . S
C333 O326 1.262 . S
C333 O334 1.232 . S
O334 C333 1.232 . S
C335 O327 1.260 . S
C335 O328 1.257 . S
Zn336 O339 2.031 . S
Zn336 O341 2.049 . S
Zn336 O346 2.067 . S
Zn337 O338 1.962 . S
Zn337 O340 1.986 . S
Zn337 O342 1.996 . S
Zn337 O345 1.943 . S
O338 Zn337 1.962 . S
O338 C343 1.254 . S
O339 Zn336 2.031 . S
O339 C343 1.269 . S
O340 Zn337 1.986 . S
O340 C347 1.262 . S
O341 Zn336 2.049 . S
O341 C349 1.260 . S
O342 Zn337 1.996 . S
O342 C349 1.257 . S
C343 O338 1.254 . S
C343 O339 1.269 . S
C344 O345 1.249 . S
C344 O346 1.270 . S
O345 Zn337 1.943 . S
O345 C344 1.249 . S
O346 Zn336 2.067 . S
O346 C344 1.270 . S
C347 O340 1.262 . S
C347 O348 1.232 . S
O348 C347 1.232 . S
C349 O341 1.260 . S
C349 O342 1.257 . S
Zn350 O353 2.031 . S
Zn350 O355 2.049 . S
Zn350 O360 2.067 . S
Zn351 O352 1.962 . S
Zn351 O354 1.986 . S
Zn351 O356 1.996 . S
Zn351 O359 1.943 . S
O352 Zn351 1.962 . S
O352 C357 1.254 . S
O353 Zn350 2.031 . S
O353 C357 1.269 . S
O354 Zn351 1.986 . S
O354 C361 1.262 . S
O355 Zn350 2.049 . S
O355 C363 1.260 . S
O356 Zn351 1.996 . S
O356 C363 1.257 . S
C357 O352 1.254 . S
C357 O353 1.269 . S
C358 O359 1.249 . S
C358 O360 1.270 . S
O359 Zn351 1.943 . S
O359 C358 1.249 . S
O360 Zn350 2.067 . S
O360 C358 1.270 . S
C361 O354 1.262 . S
C361 O362 1.232 . S
O362 C361 1.232 . S
C363 O355 1.260 . S
C363 O356 1.257 . S
Zn364 O367 2.031 . S
Zn364 O369 2.049 . S
Zn364 O374 2.067 . S
Zn365 O366 1.962 . S
Zn365 O368 1.986 . S
Zn365 O370 1.996 . S
Zn365 O373 1.943 . S
O366 Zn365 1.962 . S
O366 C371 1.254 . S
O367 Zn364 2.031 . S
O367 C371 1.269 . S
O368 Zn365 1.986 . S
O368 C375 1.262 . S
O369 Zn364 2.049 . S
O369 C377 1.260 . S
O370 Zn365 1.996 . S
O370 C377 1.257 . S
C371 O366 1.254 . S
C371 O367 1.269 . S
C372 O373 1.249 . S
C372 O374 1.270 . S
O373 Zn365 1.943 . S
O373 C372 1.249 . S
O374 Zn364 2.067 . S
O374 C372 1.270 . S
C375 O368 1.262 . S
C375 O376 1.232 . S
O376 C375 1.232 . S
C377 O369 1.260 . S
C377 O370 1.257 . S
Zn378 O381 2.031 . S
Zn378 O383 2.049 . S
Zn378 O388 2.067 1_545 S
Zn379 O380 1.962 . S
Zn379 O382 1.986 . S
Zn379 O384 1.996 . S
Zn379 O387 1.943 1_545 S
O380 Zn379 1.962 . S
O380 C385 1.254 . S
O381 Zn378 2.031 . S
O381 C385 1.269 . S
O382 Zn379 1.986 . S
O382 C389 1.260 . S
O383 Zn378 2.049 . S
O383 C391 1.260 . S
O384 Zn379 1.996 . S
O384 C391 1.257 . S
C385 O380 1.254 . S
C385 O381 1.269 . S
C386 O387 1.249 . S
C386 O388 1.270 . S
O387 Zn379 1.943 1_565 S
O387 C386 1.249 . S
O388 Zn378 2.067 1_565 S
O388 C386 1.270 . S
C389 O382 1.260 . S
C389 O390 1.249 1_545 S
O390 C389 1.249 1_565 S
C391 O383 1.260 . S
C391 O384 1.257 . S
Zn392 O395 2.031 . S
Zn392 O397 2.049 . S
Zn392 O402 2.067 1_655 S
Zn393 O394 1.962 . S
Zn393 O396 1.986 . S
Zn393 O398 1.996 . S
Zn393 O401 1.943 1_655 S
O394 Zn393 1.962 . S
O394 C399 1.254 . S
O395 Zn392 2.031 . S
O395 C399 1.269 . S
O396 Zn393 1.986 . S
O396 C403 1.265 . S
O397 Zn392 2.049 . S
O397 C405 1.260 . S
O398 Zn393 1.996 . S
O398 C405 1.257 . S
C399 O394 1.254 . S
C399 O395 1.269 . S
C400 O401 1.249 . S
C400 O402 1.270 . S
O401 Zn393 1.943 1_455 S
O401 C400 1.249 . S
O402 Zn392 2.067 1_455 S
O402 C400 1.270 . S
C403 O396 1.265 . S
C403 O404 1.213 1_655 S
O404 C403 1.213 1_455 S
C405 O397 1.260 . S
C405 O398 1.257 . S
Zn406 O409 2.031 . S
Zn406 O411 2.049 . S
Zn406 O416 2.067 . S
Zn407 O408 1.962 . S
Zn407 O410 1.986 . S
Zn407 O412 1.996 . S
Zn407 O415 1.943 . S
O408 Zn407 1.962 . S
O408 C413 1.254 . S
O409 Zn406 2.031 . S
O409 C413 1.269 . S
O410 Zn407 1.986 . S
O410 C417 1.262 . S
O411 Zn406 2.049 . S
O411 C419 1.260 . S
O412 Zn407 1.996 . S
O412 C419 1.257 . S
C413 O408 1.254 . S
C413 O409 1.269 . S
C414 O415 1.249 . S
C414 O416 1.270 . S
O415 Zn407 1.943 . S
O415 C414 1.249 . S
O416 Zn406 2.067 . S
O416 C414 1.270 . S
C417 O410 1.262 . S
C417 O418 1.232 . S
O418 C417 1.232 . S
C419 O411 1.260 . S
C419 O412 1.257 . S
Zn420 O423 2.031 . S
Zn420 O425 2.049 . S
Zn420 O430 2.067 1_655 S
Zn421 O422 1.962 . S
Zn421 O424 1.986 . S
Zn421 O426 1.996 . S
Zn421 O429 1.943 1_655 S
O422 Zn421 1.962 . S
O422 C427 1.254 . S
O423 Zn420 2.031 . S
O423 C427 1.269 . S
O424 Zn421 1.986 . S
O424 C431 1.259 . S
O425 Zn420 2.049 . S
O425 C433 1.260 . S
O426 Zn421 1.996 . S
O426 C433 1.257 . S
C427 O422 1.254 . S
C427 O423 1.269 . S
C428 O429 1.249 . S
C428 O430 1.270 . S
O429 Zn421 1.943 1_455 S
O429 C428 1.249 . S
O430 Zn420 2.067 1_455 S
O430 C428 1.270 . S
C431 O424 1.259 . S
C431 O432 1.249 1_655 S
O432 C431 1.249 1_455 S
C433 O425 1.260 . S
C433 O426 1.257 . S
Zn434 O437 2.031 . S
Zn434 O439 2.049 . S
Zn434 O444 2.067 . S
Zn435 O436 1.962 . S
Zn435 O438 1.986 . S
Zn435 O440 1.996 . S
Zn435 O443 1.943 . S
O436 Zn435 1.962 . S
O436 C441 1.254 . S
O437 Zn434 2.031 . S
O437 C441 1.269 . S
O438 Zn435 1.986 . S
O438 C445 1.262 . S
O439 Zn434 2.049 . S
O439 C447 1.260 . S
O440 Zn435 1.996 . S
O440 C447 1.257 . S
C441 O436 1.254 . S
C441 O437 1.269 . S
C442 O443 1.249 . S
C442 O444 1.270 . S
O443 Zn435 1.943 . S
O443 C442 1.249 . S
O444 Zn434 2.067 . S
O444 C442 1.270 . S
C445 O438 1.262 . S
C445 O446 1.232 . S
O446 C445 1.232 . S
C447 O439 1.260 . S
C447 O440 1.257 . S
Zn448 O451 2.031 . S
Zn448 O453 2.049 . S
Zn448 O458 2.067 1_545 S
Zn449 O450 1.962 . S
Zn449 O452 1.986 . S
Zn449 O454 1.996 . S
Zn449 O457 1.943 1_545 S
O450 Zn449 1.962 . S
O450 C455 1.254 . S
O451 Zn448 2.031 . S
O451 C455 1.269 . S
O452 Zn449 1.986 . S
O452 C459 1.264 . S
O453 Zn448 2.049 . S
O453 C461 1.260 . S
O454 Zn449 1.996 . S
O454 C461 1.257 . S
C455 O450 1.254 . S
C455 O451 1.269 . S
C456 O457 1.249 . S
C456 O458 1.270 . S
O457 Zn449 1.943 1_565 S
O457 C456 1.249 . S
O458 Zn448 2.067 1_565 S
O458 C456 1.270 . S
C459 O452 1.264 . S
C459 O460 1.213 1_545 S
O460 C459 1.213 1_565 S
C461 O453 1.260 . S
C461 O454 1.257 . S
Zn462 O465 2.031 . S
Zn462 O467 2.049 . S
Zn462 O472 2.067 . S
Zn463 O464 1.962 . S
Zn463 O466 1.986 . S
Zn463 O468 1.996 . S
Zn463 O471 1.943 . S
O464 Zn463 1.962 . S
O464 C469 1.254 . S
O465 Zn462 2.031 . S
O465 C469 1.269 . S
O466 Zn463 1.986 . S
O466 C473 1.262 . S
O467 Zn462 2.049 . S
O467 C475 1.260 . S
O468 Zn463 1.996 . S
O468 C475 1.257 . S
C469 O464 1.254 . S
C469 O465 1.269 . S
C470 O471 1.249 . S
C470 O472 1.270 . S
O471 Zn463 1.943 . S
O471 C470 1.249 . S
O472 Zn462 2.067 . S
O472 C470 1.270 . S
C473 O466 1.262 . S
C473 O474 1.232 . S
O474 C473 1.232 . S
C475 O467 1.260 . S
C475 O468 1.257 . S
Zn476 O479 2.031 . S
Zn476 O481 2.049 . S
Zn476 O486 2.067 . S
Zn477 O478 1.962 . S
Zn477 O480 1.986 . S
Zn477 O482 1.996 . S
Zn477 O485 1.943 . S
O478 Zn477 1.962 . S
O478 C483 1.254 . S
O479 Zn476 2.031 . S
O479 C483 1.269 . S
O480 Zn477 1.986 . S
O480 C487 1.262 . S
O481 Zn476 2.049 . S
O481 C489 1.260 . S
O482 Zn477 1.996 . S
O482 C489 1.257 . S
C483 O478 1.254 . S
C483 O479 1.269 . S
C484 O485 1.249 . S
C484 O486 1.270 . S
O485 Zn477 1.943 . S
O485 C484 1.249 . S
O486 Zn476 2.067 . S
O486 C484 1.270 . S
C487 O480 1.262 . S
C487 O488 1.232 . S
O488 C487 1.232 . S
C489 O481 1.260 . S
C489 O482 1.257 . S
Zn490 O493 2.031 . S
Zn490 O495 2.049 . S
Zn490 O500 2.067 . S
Zn491 O492 1.962 . S
Zn491 O494 1.986 . S
Zn491 O496 1.996 . S
Zn491 O499 1.943 . S
O492 Zn491 1.962 . S
O492 C497 1.254 . S
O493 Zn490 2.031 . S
O493 C497 1.269 . S
O494 Zn491 1.986 . S
O494 C501 1.262 . S
O495 Zn490 2.049 . S
O495 C503 1.260 . S
O496 Zn491 1.996 . S
O496 C503 1.257 . S
C497 O492 1.254 . S
C497 O493 1.269 . S
C498 O499 1.249 . S
C498 O500 1.270 . S
O499 Zn491 1.943 . S
O499 C498 1.249 . S
O500 Zn490 2.067 . S
O500 C498 1.270 . S
C501 O494 1.262 . S
C501 O502 1.232 . S
O502 C501 1.232 . S
C503 O495 1.260 . S
C503 O496 1.257 . S
H504 C512 0.950 . S
H505 C517 0.950 . S
H506 C514 0.950 . S
H507 C516 0.950 . S
H508 C518 0.950 . S
H509 C520 0.950 . S
H510 C522 0.950 . S
H511 C523 0.950 . S
C512 H504 0.950 . S
C512 C513 1.386 . S
C512 C514 1.391 . S
C513 C512 1.386 . S
C513 C517 1.393 . S
C514 H506 0.950 . S
C514 C512 1.391 . S
C514 C515 1.400 . S
C515 C514 1.400 . S
C515 C516 1.398 . S
C515 C521 1.491 1_565 S
C516 H507 0.950 . S
C516 C515 1.398 . S
C516 C517 1.391 . S
C517 H505 0.950 . S
C517 C513 1.393 . S
C517 C516 1.391 . S
C518 H508 0.950 . S
C518 C519 1.386 . S
C518 C520 1.391 . S
C519 C518 1.386 . S
C519 C523 1.393 . S
C520 H509 0.950 . S
C520 C518 1.391 . S
C520 C521 1.400 . S
C521 C515 1.491 1_545 S
C521 C520 1.400 . S
C521 C522 1.398 . S
C522 H510 0.950 . S
C522 C521 1.398 . S
C522 C523 1.391 . S
C523 H511 0.950 . S
C523 C519 1.393 . S
C523 C522 1.391 . S
H524 C532 0.950 . S
H525 C537 0.950 . S
H526 C534 0.950 . S
H527 C536 0.950 . S
H528 C538 0.950 . S
H529 C540 0.950 . S
H530 C542 0.950 . S
H531 C543 0.950 . S
C532 H524 0.950 . S
C532 C533 1.386 . S
C532 C534 1.391 . S
C533 C532 1.386 . S
C533 C537 1.393 . S
C534 H526 0.950 . S
C534 C532 1.391 . S
C534 C535 1.400 . S
C535 C534 1.400 . S
C535 C536 1.398 . S
C535 C541 1.491 1_455 S
C536 H527 0.950 . S
C536 C535 1.398 . S
C536 C537 1.391 . S
C537 H525 0.950 . S
C537 C533 1.393 . S
C537 C536 1.391 . S
C538 H528 0.950 . S
C538 C539 1.386 . S
C538 C540 1.391 . S
C539 C538 1.386 . S
C539 C543 1.393 . S
C540 H529 0.950 . S
C540 C538 1.391 . S
C540 C541 1.400 . S
C541 C535 1.491 1_655 S
C541 C540 1.400 . S
C541 C542 1.398 . S
C542 H530 0.950 . S
C542 C541 1.398 . S
C542 C543 1.391 . S
C543 H531 0.950 . S
C543 C539 1.393 . S
C543 C542 1.391 . S
H544 C552 0.950 . S
H545 C557 0.950 . S
H546 C554 0.950 . S
H547 C556 0.950 . S
H548 C558 0.950 . S
H549 C560 0.950 . S
H550 C562 0.950 . S
H551 C563 0.950 . S
C552 H544 0.950 . S
C552 C553 1.386 . S
C552 C554 1.391 . S
C553 C552 1.386 . S
C553 C557 1.393 . S
C554 H546 0.950 . S
C554 C552 1.391 . S
C554 C555 1.400 . S
C555 C554 1.400 . S
C555 C556 1.398 . S
C555 C561 1.491 . S
C556 H547 0.950 . S
C556 C555 1.398 . S
C556 C557 1.391 . S
C557 H545 0.950 . S
C557 C553 1.393 . S
C557 C556 1.391 . S
C558 H548 0.950 . S
C558 C559 1.386 . S
C558 C560 1.391 . S
C559 C558 1.386 . S
C559 C563 1.393 . S
C560 H549 0.950 . S
C560 C558 1.391 . S
C560 C561 1.400 . S
C561 C555 1.491 . S
C561 C560 1.400 . S
C561 C562 1.398 . S
C562 H550 0.950 . S
C562 C561 1.398 . S
C562 C563 1.391 . S
C563 H551 0.950 . S
C563 C559 1.393 . S
C563 C562 1.391 . S
H564 C572 0.950 . S
H565 C577 0.950 . S
H566 C574 0.950 . S
H567 C576 0.950 . S
H568 C578 0.950 . S
H569 C580 0.950 . S
H570 C582 0.950 . S
H571 C583 0.950 . S
C572 H564 0.950 . S
C572 C573 1.386 . S
C572 C574 1.391 . S
C573 C572 1.386 . S
C573 C577 1.393 . S
C574 H566 0.950 . S
C574 C572 1.391 . S
C574 C575 1.400 . S
C575 C574 1.400 . S
C575 C576 1.398 . S
C575 C581 1.491 1_565 S
C576 H567 0.950 . S
C576 C575 1.398 . S
C576 C577 1.391 . S
C577 H565 0.950 . S
C577 C573 1.393 . S
C577 C576 1.391 . S
C578 H568 0.950 . S
C578 C579 1.386 . S
C578 C580 1.391 . S
C579 C578 1.386 . S
C579 C583 1.393 . S
C580 H569 0.950 . S
C580 C578 1.391 . S
C580 C581 1.400 . S
C581 C575 1.491 1_545 S
C581 C580 1.400 . S
C581 C582 1.398 . S
C582 H570 0.950 . S
C582 C581 1.398 . S
C582 C583 1.391 . S
C583 H571 0.950 . S
C583 C579 1.393 . S
C583 C582 1.391 . S
H584 C592 0.950 . S
H585 C597 0.950 . S
H586 C594 0.950 . S
H587 C596 0.950 . S
H588 C598 0.950 . S
H589 C600 0.950 . S
H590 C602 0.950 . S
H591 C603 0.950 . S
C592 H584 0.950 . S
C592 C593 1.386 . S
C592 C594 1.391 . S
C593 C592 1.386 . S
C593 C597 1.393 . S
C594 H586 0.950 . S
C594 C592 1.391 . S
C594 C595 1.400 . S
C595 C594 1.400 . S
C595 C596 1.398 . S
C595 C601 1.491 1_455 S
C596 H587 0.950 . S
C596 C595 1.398 . S
C596 C597 1.391 . S
C597 H585 0.950 . S
C597 C593 1.393 . S
C597 C596 1.391 . S
C598 H588 0.950 . S
C598 C599 1.386 . S
C598 C600 1.391 . S
C599 C598 1.386 . S
C599 C603 1.393 . S
C600 H589 0.950 . S
C600 C598 1.391 . S
C600 C601 1.400 . S
C601 C595 1.491 1_655 S
C601 C600 1.400 . S
C601 C602 1.398 . S
C602 H590 0.950 . S
C602 C601 1.398 . S
C602 C603 1.391 . S
C603 H591 0.950 . S
C603 C599 1.393 . S
C603 C602 1.391 . S
H604 C612 0.950 . S
H605 C617 0.950 . S
H606 C614 0.950 . S
H607 C616 0.950 . S
H608 C618 0.950 . S
H609 C620 0.950 . S
H610 C622 0.950 . S
H611 C623 0.950 . S
C612 H604 0.950 . S
C612 C613 1.386 . S
C612 C614 1.391 . S
C613 C612 1.386 . S
C613 C617 1.393 . S
C614 H606 0.950 . S
C614 C612 1.391 . S
C614 C615 1.400 . S
C615 C614 1.400 . S
C615 C616 1.398 . S
C615 C621 1.491 . S
C616 H607 0.950 . S
C616 C615 1.398 . S
C616 C617 1.391 . S
C617 H605 0.950 . S
C617 C613 1.393 . S
C617 C616 1.391 . S
C618 H608 0.950 . S
C618 C619 1.386 . S
C618 C620 1.391 . S
C619 C618 1.386 . S
C619 C623 1.393 . S
C620 H609 0.950 . S
C620 C618 1.391 . S
C620 C621 1.400 . S
C621 C615 1.491 . S
C621 C620 1.400 . S
C621 C622 1.398 . S
C622 H610 0.950 . S
C622 C621 1.398 . S
C622 C623 1.391 . S
C623 H611 0.950 . S
C623 C619 1.393 . S
C623 C622 1.391 . S
H624 C632 0.950 . S
H625 C637 0.950 1_455 S
H626 C634 0.950 . S
H627 C636 0.950 . S
H628 C638 0.950 . S
H629 C640 0.950 . S
H630 C642 0.950 . S
H631 C643 0.950 . S
C632 H624 0.950 . S
C632 C633 1.386 . S
C632 C634 1.391 . S
C633 C632 1.386 . S
C633 C637 1.393 . S
C634 H626 0.950 . S
C634 C632 1.391 . S
C634 C635 1.400 . S
C635 C634 1.400 . S
C635 C636 1.398 . S
C635 C641 1.491 . S
C636 H627 0.950 . S
C636 C635 1.398 . S
C636 C637 1.391 . S
C637 H625 0.950 1_655 S
C637 C633 1.393 . S
C637 C636 1.391 . S
C638 H628 0.950 . S
C638 C639 1.386 . S
C638 C640 1.391 . S
C639 C638 1.386 . S
C639 C643 1.393 . S
C640 H629 0.950 . S
C640 C638 1.391 . S
C640 C641 1.400 . S
C641 C635 1.491 . S
C641 C640 1.400 . S
C641 C642 1.398 . S
C642 H630 0.950 . S
C642 C641 1.398 . S
C642 C643 1.391 . S
C643 H631 0.950 . S
C643 C639 1.393 . S
C643 C642 1.391 . S
H644 C652 0.950 . S
H645 C657 0.950 . S
H646 C654 0.950 . S
H647 C656 0.950 . S
H648 C658 0.950 . S
H649 C660 0.950 . S
H650 C662 0.950 . S
H651 C663 0.950 . S
C652 H644 0.950 . S
C652 C653 1.386 . S
C652 C654 1.391 . S
C653 C652 1.386 . S
C653 C657 1.393 . S
C654 H646 0.950 . S
C654 C652 1.391 . S
C654 C655 1.400 . S
C655 C654 1.400 . S
C655 C656 1.398 . S
C655 C661 1.491 . S
C656 H647 0.950 . S
C656 C655 1.398 . S
C656 C657 1.391 . S
C657 H645 0.950 . S
C657 C653 1.393 . S
C657 C656 1.391 . S
C658 H648 0.950 . S
C658 C659 1.386 . S
C658 C660 1.391 . S
C659 C658 1.386 . S
C659 C663 1.393 . S
C660 H649 0.950 . S
C660 C658 1.391 . S
C660 C661 1.400 . S
C661 C655 1.491 . S
C661 C660 1.400 . S
C661 C662 1.398 . S
C662 H650 0.950 . S
C662 C661 1.398 . S
C662 C663 1.391 . S
C663 H651 0.950 . S
C663 C659 1.393 . S
C663 C662 1.391 . S
H664 C672 0.950 . S
H665 C677 0.950 . S
H666 C674 0.950 . S
H667 C676 0.950 . S
H668 C678 0.950 . S
H669 C680 0.950 . S
H670 C682 0.950 . S
H671 C683 0.950 . S
C672 H664 0.950 . S
C672 C673 1.386 . S
C672 C674 1.391 . S
C673 C672 1.386 . S
C673 C677 1.393 . S
C674 H666 0.950 . S
C674 C672 1.391 . S
C674 C675 1.400 . S
C675 C674 1.400 . S
C675 C676 1.398 . S
C675 C681 1.491 . S
C676 H667 0.950 . S
C676 C675 1.398 . S
C676 C677 1.391 . S
C677 H665 0.950 . S
C677 C673 1.393 . S
C677 C676 1.391 . S
C678 H668 0.950 . S
C678 C679 1.386 . S
C678 C680 1.391 . S
C679 C678 1.386 . S
C679 C683 1.393 . S
C680 H669 0.950 . S
C680 C678 1.391 . S
C680 C681 1.400 . S
C681 C675 1.491 . S
C681 C680 1.400 . S
C681 C682 1.398 . S
C682 H670 0.950 . S
C682 C681 1.398 . S
C682 C683 1.391 . S
C683 H671 0.950 . S
C683 C679 1.393 . S
C683 C682 1.391 . S
H684 C692 0.950 . S
H685 C697 0.950 . S
H686 C694 0.950 . S
H687 C696 0.950 . S
H688 C698 0.950 . S
H689 C700 0.950 . S
H690 C702 0.950 . S
H691 C703 0.950 . S
C692 H684 0.950 . S
C692 C693 1.386 . S
C692 C694 1.391 . S
C693 C692 1.386 . S
C693 C697 1.393 . S
C694 H686 0.950 . S
C694 C692 1.391 . S
C694 C695 1.400 . S
C695 C694 1.400 . S
C695 C696 1.398 . S
C695 C701 1.491 . S
C696 H687 0.950 . S
C696 C695 1.398 . S
C696 C697 1.391 . S
C697 H685 0.950 . S
C697 C693 1.393 . S
C697 C696 1.391 . S
C698 H688 0.950 . S
C698 C699 1.386 . S
C698 C700 1.391 . S
C699 C698 1.386 . S
C699 C703 1.393 . S
C700 H689 0.950 . S
C700 C698 1.391 . S
C700 C701 1.400 . S
C701 C695 1.491 . S
C701 C700 1.400 . S
C701 C702 1.398 . S
C702 H690 0.950 . S
C702 C701 1.398 . S
C702 C703 1.391 . S
C703 H691 0.950 . S
C703 C699 1.393 . S
C703 C702 1.391 . S
H704 C712 0.950 . S
H705 C717 0.950 . S
H706 C714 0.950 . S
H707 C716 0.950 . S
H708 C718 0.950 . S
H709 C720 0.950 . S
H710 C722 0.950 . S
H711 C723 0.950 . S
C712 H704 0.950 . S
C712 C713 1.386 . S
C712 C714 1.391 . S
C713 C712 1.386 . S
C713 C717 1.393 . S
C714 H706 0.950 . S
C714 C712 1.391 . S
C714 C715 1.400 . S
C715 C714 1.400 . S
C715 C716 1.398 . S
C715 C721 1.491 . S
C716 H707 0.950 . S
C716 C715 1.398 . S
C716 C717 1.391 . S
C717 H705 0.950 . S
C717 C713 1.393 . S
C717 C716 1.391 . S
C718 H708 0.950 . S
C718 C719 1.386 . S
C718 C720 1.391 . S
C719 C718 1.386 . S
C719 C723 1.393 . S
C720 H709 0.950 . S
C720 C718 1.391 . S
C720 C721 1.400 . S
C721 C715 1.491 . S
C721 C720 1.400 . S
C721 C722 1.398 . S
C722 H710 0.950 . S
C722 C721 1.398 . S
C722 C723 1.391 . S
C723 H711 0.950 . S
C723 C719 1.393 . S
C723 C722 1.391 . S
H724 C732 0.950 . S
H725 C737 0.950 . S
H726 C734 0.950 . S
H727 C736 0.950 . S
H728 C738 0.950 . S
H729 C740 0.950 . S
H730 C742 0.950 . S
H731 C743 0.950 . S
C732 H724 0.950 . S
C732 C733 1.386 . S
C732 C734 1.391 . S
C733 C732 1.386 . S
C733 C737 1.393 . S
C734 H726 0.950 . S
C734 C732 1.391 . S
C734 C735 1.400 . S
C735 C734 1.400 . S
C735 C736 1.398 . S
C735 C741 1.491 . S
C736 H727 0.950 . S
C736 C735 1.398 . S
C736 C737 1.391 . S
C737 H725 0.950 . S
C737 C733 1.393 . S
C737 C736 1.391 . S
C738 H728 0.950 . S
C738 C739 1.386 . S
C738 C740 1.391 . S
C739 C738 1.386 . S
C739 C743 1.393 . S
C740 H729 0.950 . S
C740 C738 1.391 . S
C740 C741 1.400 . S
C741 C735 1.491 . S
C741 C740 1.400 . S
C741 C742 1.398 . S
C742 H730 0.950 . S
C742 C741 1.398 . S
C742 C743 1.391 . S
C743 H731 0.950 . S
C743 C739 1.393 . S
C743 C742 1.391 . S
H744 C752 0.950 . S
H745 C757 0.950 . S
H746 C754 0.950 . S
H747 C756 0.950 . S
H748 C758 0.950 . S
H749 C760 0.950 . S
H750 C762 0.950 . S
H751 C763 0.950 . S
C752 H744 0.950 . S
C752 C753 1.386 . S
C752 C754 1.391 . S
C753 C752 1.386 . S
C753 C757 1.393 . S
C754 H746 0.950 . S
C754 C752 1.391 . S
C754 C755 1.400 . S
C755 C754 1.400 . S
C755 C756 1.398 . S
C755 C761 1.491 . S
C756 H747 0.950 . S
C756 C755 1.398 . S
C756 C757 1.391 . S
C757 H745 0.950 . S
C757 C753 1.393 . S
C757 C756 1.391 . S
C758 H748 0.950 . S
C758 C759 1.386 . S
C758 C760 1.391 . S
C759 C758 1.386 . S
C759 C763 1.393 . S
C760 H749 0.950 . S
C760 C758 1.391 . S
C760 C761 1.400 . S
C761 C755 1.491 . S
C761 C760 1.400 . S
C761 C762 1.398 . S
C762 H750 0.950 . S
C762 C761 1.398 . S
C762 C763 1.391 . S
C763 H751 0.950 . S
C763 C759 1.393 . S
C763 C762 1.391 . S
H764 C772 0.950 1_545 S
H765 C777 0.950 . S
H766 C774 0.950 . S
H767 C776 0.950 . S
H768 C778 0.950 . S
H769 C780 0.950 . S
H770 C782 0.950 . S
H771 C783 0.950 . S
C772 H764 0.950 1_565 S
C772 C773 1.386 . S
C772 C774 1.391 . S
C773 C772 1.386 . S
C773 C777 1.393 . S
C774 H766 0.950 . S
C774 C772 1.391 . S
C774 C775 1.400 . S
C775 C774 1.400 . S
C775 C776 1.398 . S
C775 C781 1.491 . S
C776 H767 0.950 . S
C776 C775 1.398 . S
C776 C777 1.391 . S
C777 H765 0.950 . S
C777 C773 1.393 . S
C777 C776 1.391 . S
C778 H768 0.950 . S
C778 C779 1.386 . S
C778 C780 1.391 . S
C779 C778 1.386 . S
C779 C783 1.393 . S
C780 H769 0.950 . S
C780 C778 1.391 . S
C780 C781 1.400 . S
C781 C775 1.491 . S
C781 C780 1.400 . S
C781 C782 1.398 . S
C782 H770 0.950 . S
C782 C781 1.398 . S
C782 C783 1.391 . S
C783 H771 0.950 . S
C783 C779 1.393 . S
C783 C782 1.391 . S
H784 C792 0.950 . S
H785 C797 0.950 . S
H786 C794 0.950 . S
H787 C796 0.950 . S
H788 C798 0.950 1_655 S
H789 C800 0.950 . S
H790 C802 0.950 . S
H791 C803 0.950 . S
C792 H784 0.950 . S
C792 C793 1.386 . S
C792 C794 1.391 . S
C793 C792 1.386 . S
C793 C797 1.393 . S
C794 H786 0.950 . S
C794 C792 1.391 . S
C794 C795 1.400 . S
C795 C794 1.400 . S
C795 C796 1.398 . S
C795 C801 1.491 . S
C796 H787 0.950 . S
C796 C795 1.398 . S
C796 C797 1.391 . S
C797 H785 0.950 . S
C797 C793 1.393 . S
C797 C796 1.391 . S
C798 H788 0.950 1_455 S
C798 C799 1.386 . S
C798 C800 1.391 . S
C799 C798 1.386 . S
C799 C803 1.393 . S
C800 H789 0.950 . S
C800 C798 1.391 . S
C800 C801 1.400 . S
C801 C795 1.491 . S
C801 C800 1.400 . S
C801 C802 1.398 . S
C802 H790 0.950 . S
C802 C801 1.398 . S
C802 C803 1.391 . S
C803 H791 0.950 . S
C803 C799 1.393 . S
C803 C802 1.391 . S
H804 C812 0.950 . S
H805 C817 0.950 . S
H806 C814 0.950 . S
H807 C816 0.950 . S
H808 C818 0.950 . S
H809 C820 0.950 . S
H810 C822 0.950 . S
H811 C823 0.950 . S
C812 H804 0.950 . S
C812 C813 1.386 . S
C812 C814 1.391 . S
C813 C812 1.386 . S
C813 C817 1.393 . S
C814 H806 0.950 . S
C814 C812 1.391 . S
C814 C815 1.400 . S
C815 C814 1.400 . S
C815 C816 1.398 . S
C815 C821 1.491 . S
C816 H807 0.950 . S
C816 C815 1.398 . S
C816 C817 1.391 . S
C817 H805 0.950 . S
C817 C813 1.393 . S
C817 C816 1.391 . S
C818 H808 0.950 . S
C818 C819 1.386 . S
C818 C820 1.391 . S
C819 C818 1.386 . S
C819 C823 1.393 . S
C820 H809 0.950 . S
C820 C818 1.391 . S
C820 C821 1.400 . S
C821 C815 1.491 . S
C821 C820 1.400 . S
C821 C822 1.398 . S
C822 H810 0.950 . S
C822 C821 1.398 . S
C822 C823 1.391 . S
C823 H811 0.950 . S
C823 C819 1.393 . S
C823 C822 1.391 . S
H824 C832 0.950 . S
H825 C837 0.950 . S
H826 C834 0.950 . S
H827 C836 0.950 . S
H828 C838 0.950 . S
H829 C840 0.950 . S
H830 C842 0.950 . S
H831 C843 0.950 . S
C832 H824 0.950 . S
C832 C833 1.386 . S
C832 C834 1.391 . S
C833 C832 1.386 . S
C833 C837 1.393 . S
C834 H826 0.950 . S
C834 C832 1.391 . S
C834 C835 1.400 . S
C835 C834 1.400 . S
C835 C836 1.398 . S
C835 C841 1.491 . S
C836 H827 0.950 . S
C836 C835 1.398 . S
C836 C837 1.391 . S
C837 H825 0.950 . S
C837 C833 1.393 . S
C837 C836 1.391 . S
C838 H828 0.950 . S
C838 C839 1.386 . S
C838 C840 1.391 . S
C839 C838 1.386 . S
C839 C843 1.393 . S
C840 H829 0.950 . S
C840 C838 1.391 . S
C840 C841 1.400 . S
C841 C835 1.491 . S
C841 C840 1.400 . S
C841 C842 1.398 . S
C842 H830 0.950 . S
C842 C841 1.398 . S
C842 C843 1.391 . S
C843 H831 0.950 . S
C843 C839 1.393 . S
C843 C842 1.391 . S
H844 C852 0.950 . S
H845 C857 0.950 . S
H846 C854 0.950 . S
H847 C856 0.950 . S
H848 C858 0.950 . S
H849 C860 0.950 . S
H850 C862 0.950 . S
H851 C863 0.950 1_545 S
C852 H844 0.950 . S
C852 C853 1.386 . S
C852 C854 1.391 . S
C853 C852 1.386 . S
C853 C857 1.393 . S
C854 H846 0.950 . S
C854 C852 1.391 . S
C854 C855 1.400 . S
C855 C854 1.400 . S
C855 C856 1.398 . S
C855 C861 1.491 . S
C856 H847 0.950 . S
C856 C855 1.398 . S
C856 C857 1.391 . S
C857 H845 0.950 . S
C857 C853 1.393 . S
C857 C856 1.391 . S
C858 H848 0.950 . S
C858 C859 1.386 . S
C858 C860 1.391 . S
C859 C858 1.386 . S
C859 C863 1.393 . S
C860 H849 0.950 . S
C860 C858 1.391 . S
C860 C861 1.400 . S
C861 C855 1.491 . S
C861 C860 1.400 . S
C861 C862 1.398 . S
C862 H850 0.950 . S
C862 C861 1.398 . S
C862 C863 1.391 . S
C863 H851 0.950 1_565 S
C863 C859 1.393 . S
C863 C862 1.391 . S
H864 C872 0.950 . S
H865 C877 0.950 . S
H866 C874 0.950 . S
H867 C876 0.950 . S
H868 C878 0.950 . S
H869 C880 0.950 . S
H870 C882 0.950 . S
H871 C883 0.950 . S
C872 H864 0.950 . S
C872 C873 1.386 . S
C872 C874 1.391 . S
C873 C872 1.386 . S
C873 C877 1.393 . S
C874 H866 0.950 . S
C874 C872 1.391 . S
C874 C875 1.400 . S
C875 C874 1.400 . S
C875 C876 1.398 . S
C875 C881 1.491 . S
C876 H867 0.950 . S
C876 C875 1.398 . S
C876 C877 1.391 . S
C877 H865 0.950 . S
C877 C873 1.393 . S
C877 C876 1.391 . S
C878 H868 0.950 . S
C878 C879 1.386 . S
C878 C880 1.391 . S
C879 C878 1.386 . S
C879 C883 1.393 . S
C880 H869 0.950 . S
C880 C878 1.391 . S
C880 C881 1.400 . S
C881 C875 1.491 . S
C881 C880 1.400 . S
C881 C882 1.398 . S
C882 H870 0.950 . S
C882 C881 1.398 . S
C882 C883 1.391 . S
C883 H871 0.950 . S
C883 C879 1.393 . S
C883 C882 1.391 . S
H884 C892 0.950 . S
H885 C897 0.950 . S
H886 C894 0.950 . S
H887 C896 0.950 . S
H888 C898 0.950 . S
H889 C900 0.950 . S
H890 C902 0.950 . S
H891 C903 0.950 . S
C892 H884 0.950 . S
C892 C893 1.386 . S
C892 C894 1.391 . S
C893 C892 1.386 . S
C893 C897 1.393 . S
C894 H886 0.950 . S
C894 C892 1.391 . S
C894 C895 1.400 . S
C895 C894 1.400 . S
C895 C896 1.398 . S
C895 C901 1.491 . S
C896 H887 0.950 . S
C896 C895 1.398 . S
C896 C897 1.391 . S
C897 H885 0.950 . S
C897 C893 1.393 . S
C897 C896 1.391 . S
C898 H888 0.950 . S
C898 C899 1.386 . S
C898 C900 1.391 . S
C899 C898 1.386 . S
C899 C903 1.393 . S
C900 H889 0.950 . S
C900 C898 1.391 . S
C900 C901 1.400 . S
C901 C895 1.491 . S
C901 C900 1.400 . S
C901 C902 1.398 . S
C902 H890 0.950 . S
C902 C901 1.398 . S
C902 C903 1.391 . S
C903 H891 0.950 . S
C903 C899 1.393 . S
C903 C902 1.391 . S
H904 C912 0.950 . S
H905 C917 0.950 . S
H906 C914 0.950 . S
H907 C916 0.950 . S
H908 C918 0.950 . S
H909 C920 0.950 . S
H910 C922 0.950 . S
H911 C923 0.950 . S
C912 H904 0.950 . S
C912 C913 1.386 . S
C912 C914 1.391 . S
C913 C912 1.386 . S
C913 C917 1.393 . S
C914 H906 0.950 . S
C914 C912 1.391 . S
C914 C915 1.400 . S
C915 C914 1.400 . S
C915 C916 1.398 . S
C915 C921 1.491 . S
C916 H907 0.950 . S
C916 C915 1.398 . S
C916 C917 1.391 . S
C917 H905 0.950 . S
C917 C913 1.393 . S
C917 C916 1.391 . S
C918 H908 0.950 . S
C918 C919 1.386 . S
C918 C920 1.391 . S
C919 C918 1.386 . S
C919 C923 1.393 . S
C920 H909 0.950 . S
C920 C918 1.391 . S
C920 C921 1.400 . S
C921 C915 1.491 . S
C921 C920 1.400 . S
C921 C922 1.398 . S
C922 H910 0.950 . S
C922 C921 1.398 . S
C922 C923 1.391 . S
C923 H911 0.950 . S
C923 C919 1.393 . S
C923 C922 1.391 . S
H924 C932 0.950 . S
H925 C937 0.950 . S
H926 C934 0.950 . S
H927 C936 0.950 . S
H928 C938 0.950 . S
H929 C940 0.950 . S
H930 C942 0.950 . S
H931 C943 0.933 1_556 S
C932 H924 0.950 . S
C932 C933 1.386 . S
C932 C934 1.391 . S
C933 C932 1.386 . S
C933 C937 1.393 . S
C934 H926 0.950 . S
C934 C932 1.391 . S
C934 C935 1.400 . S
C935 C934 1.400 . S
C935 C936 1.398 . S
C935 C941 1.491 . S
C936 H927 0.950 . S
C936 C935 1.398 . S
C936 C937 1.391 . S
C937 H925 0.950 . S
C937 C933 1.393 . S
C937 C936 1.391 . S
C938 H928 0.950 . S
C938 C939 1.386 1_554 S
C938 C940 1.391 . S
C939 C938 1.386 1_556 S
C939 C943 1.390 1_556 S
C940 H929 0.950 . S
C940 C938 1.391 . S
C940 C941 1.400 . S
C941 C935 1.491 . S
C941 C940 1.400 . S
C941 C942 1.398 . S
C942 H930 0.950 . S
C942 C941 1.398 . S
C942 C943 1.411 . S
C943 H931 0.933 1_554 S
C943 C939 1.390 1_554 S
C943 C942 1.411 . S
H944 C952 0.950 . S
H945 C957 0.950 . S
H946 C954 0.950 . S
H947 C956 0.950 . S
H948 C958 0.928 1_556 S
H949 C960 0.950 . S
H950 C962 0.950 . S
H951 C963 0.950 . S
C952 H944 0.950 . S
C952 C953 1.386 . S
C952 C954 1.391 . S
C953 C952 1.386 . S
C953 C957 1.393 . S
C954 H946 0.950 . S
C954 C952 1.391 . S
C954 C955 1.400 . S
C955 C954 1.400 . S
C955 C956 1.398 . S
C955 C961 1.491 . S
C956 H947 0.950 . S
C956 C955 1.398 . S
C956 C957 1.391 . S
C957 H945 0.950 . S
C957 C953 1.393 . S
C957 C956 1.391 . S
C958 H948 0.928 1_554 S
C958 C959 1.382 1_554 S
C958 C960 1.417 . S
C959 C958 1.382 1_556 S
C959 C963 1.393 1_556 S
C960 H949 0.950 . S
C960 C958 1.417 . S
C960 C961 1.400 . S
C961 C955 1.491 . S
C961 C960 1.400 . S
C961 C962 1.398 . S
C962 H950 0.950 . S
C962 C961 1.398 . S
C962 C963 1.391 . S
C963 H951 0.950 . S
C963 C959 1.393 1_554 S
C963 C962 1.391 . S
H964 C972 0.950 . S
H965 C977 0.950 . S
H966 C974 0.950 . S
H967 C976 0.950 . S
H968 C978 0.950 . S
H969 C980 0.950 . S
H970 C982 0.950 . S
H971 C983 0.950 1_556 S
C972 H964 0.950 . S
C972 C973 1.386 . S
C972 C974 1.391 . S
C973 C972 1.386 . S
C973 C977 1.393 . S
C974 H966 0.950 . S
C974 C972 1.391 . S
C974 C975 1.400 . S
C975 C974 1.400 . S
C975 C976 1.398 . S
C975 C981 1.491 . S
C976 H967 0.950 . S
C976 C975 1.398 . S
C976 C977 1.391 . S
C977 H965 0.950 . S
C977 C973 1.393 . S
C977 C976 1.391 . S
C978 H968 0.950 . S
C978 C979 1.386 1_554 S
C978 C980 1.391 . S
C979 C978 1.386 1_556 S
C979 C983 1.393 1_556 S
C980 H969 0.950 . S
C980 C978 1.391 . S
C980 C981 1.400 . S
C981 C975 1.491 . S
C981 C980 1.400 . S
C981 C982 1.398 . S
C982 H970 0.950 . S
C982 C981 1.398 . S
C982 C983 1.391 . S
C983 H971 0.950 1_554 S
C983 C979 1.393 1_554 S
C983 C982 1.391 . S
H984 C992 0.950 . S
H985 C997 0.950 . S
H986 C994 0.950 . S
H987 C996 0.950 . S
H988 C998 0.950 . S
H989 C1000 0.950 . S
H990 C1002 0.950 . S
H991 C1003 0.950 . S
C992 H984 0.950 . S
C992 C993 1.386 . S
C992 C994 1.391 . S
C993 C992 1.386 . S
C993 C997 1.393 . S
C994 H986 0.950 . S
C994 C992 1.391 . S
C994 C995 1.400 . S
C995 C994 1.400 . S
C995 C996 1.398 . S
C995 C1001 1.491 . S
C996 H987 0.950 . S
C996 C995 1.398 . S
C996 C997 1.391 . S
C997 H985 0.950 . S
C997 C993 1.393 . S
C997 C996 1.391 . S
C998 H988 0.950 . S
C998 C999 1.386 . S
C998 C1000 1.391 . S
C999 C998 1.386 . S
C999 C1003 1.393 . S
C1000 H989 0.950 . S
C1000 C998 1.391 . S
C1000 C1001 1.400 . S
C1001 C995 1.491 . S
C1001 C1000 1.400 . S
C1001 C1002 1.398 . S
C1002 H990 0.950 . S
C1002 C1001 1.398 . S
C1002 C1003 1.391 . S
C1003 H991 0.950 . S
C1003 C999 1.393 . S
C1003 C1002 1.391 . S
H1004 C1012 0.950 . S
H1005 C1017 0.950 . S
H1006 C1014 0.950 . S
H1007 C1016 0.950 . S
H1008 C1018 0.950 . S
H1009 C1020 0.950 . S
H1010 C1022 0.950 . S
H1011 C1023 0.950 . S
C1012 H1004 0.950 . S
C1012 C1013 1.386 . S
C1012 C1014 1.391 . S
C1013 C1012 1.386 . S
C1013 C1017 1.393 . S
C1014 H1006 0.950 . S
C1014 C1012 1.391 . S
C1014 C1015 1.400 . S
C1015 C1014 1.400 . S
C1015 C1016 1.398 . S
C1015 C1021 1.491 . S
C1016 H1007 0.950 . S
C1016 C1015 1.398 . S
C1016 C1017 1.391 . S
C1017 H1005 0.950 . S
C1017 C1013 1.393 . S
C1017 C1016 1.391 . S
C1018 H1008 0.950 . S
C1018 C1019 1.386 . S
C1018 C1020 1.391 . S
C1019 C1018 1.386 . S
C1019 C1023 1.393 . S
C1020 H1009 0.950 . S
C1020 C1018 1.391 . S
C1020 C1021 1.400 . S
C1021 C1015 1.491 . S
C1021 C1020 1.400 . S
C1021 C1022 1.398 . S
C1022 H1010 0.950 . S
C1022 C1021 1.398 . S
C1022 C1023 1.391 . S
C1023 H1011 0.950 . S
C1023 C1019 1.393 . S
C1023 C1022 1.391 . S
H1024 C1032 0.950 . S
H1025 C1037 0.950 . S
H1026 C1034 0.950 . S
H1027 C1036 0.950 . S
H1028 C1038 0.950 . S
H1029 C1040 0.950 . S
H1030 C1042 0.950 . S
H1031 C1043 0.950 . S
C1032 H1024 0.950 . S
C1032 C1033 1.386 . S
C1032 C1034 1.391 . S
C1033 C1032 1.386 . S
C1033 C1037 1.393 . S
C1034 H1026 0.950 . S
C1034 C1032 1.391 . S
C1034 C1035 1.400 . S
C1035 C1034 1.400 . S
C1035 C1036 1.398 . S
C1035 C1041 1.491 . S
C1036 H1027 0.950 . S
C1036 C1035 1.398 . S
C1036 C1037 1.391 . S
C1037 H1025 0.950 . S
C1037 C1033 1.393 . S
C1037 C1036 1.391 . S
C1038 H1028 0.950 . S
C1038 C1039 1.386 . S
C1038 C1040 1.391 . S
C1039 C1038 1.386 . S
C1039 C1043 1.393 . S
C1040 H1029 0.950 . S
C1040 C1038 1.391 . S
C1040 C1041 1.400 . S
C1041 C1035 1.491 . S
C1041 C1040 1.400 . S
C1041 C1042 1.398 . S
C1042 H1030 0.950 . S
C1042 C1041 1.398 . S
C1042 C1043 1.391 . S
C1043 H1031 0.950 . S
C1043 C1039 1.393 . S
C1043 C1042 1.391 . S
H1044 C1052 0.950 1_554 S
H1045 C1057 0.950 . S
H1046 C1054 0.950 . S
H1047 C1056 0.950 . S
H1048 C1058 0.950 . S
H1049 C1060 0.950 . S
H1050 C1062 0.950 . S
H1051 C1063 0.950 . S
C1052 H1044 0.950 1_556 S
C1052 C1053 1.386 1_556 S
C1052 C1054 1.391 . S
C1053 C1052 1.386 1_554 S
C1053 C1057 1.393 1_554 S
C1054 H1046 0.950 . S
C1054 C1052 1.391 . S
C1054 C1055 1.400 . S
C1055 C1054 1.400 . S
C1055 C1056 1.398 . S
C1055 C1061 1.491 . S
C1056 H1047 0.950 . S
C1056 C1055 1.398 . S
C1056 C1057 1.391 . S
C1057 H1045 0.950 . S
C1057 C1053 1.393 1_556 S
C1057 C1056 1.391 . S
C1058 H1048 0.950 . S
C1058 C1059 1.386 . S
C1058 C1060 1.391 . S
C1059 C1058 1.386 . S
C1059 C1063 1.393 . S
C1060 H1049 0.950 . S
C1060 C1058 1.391 . S
C1060 C1061 1.400 . S
C1061 C1055 1.491 . S
C1061 C1060 1.400 . S
C1061 C1062 1.398 . S
C1062 H1050 0.950 . S
C1062 C1061 1.398 . S
C1062 C1063 1.391 . S
C1063 H1051 0.950 . S
C1063 C1059 1.393 . S
C1063 C1062 1.391 . S
H1064 C1072 0.950 . S
H1065 C1077 0.950 1_554 S
H1066 C1074 0.950 . S
H1067 C1076 0.950 . S
H1068 C1078 0.950 . S
H1069 C1080 0.950 . S
H1070 C1082 0.950 . S
H1071 C1083 0.950 . S
C1072 H1064 0.950 . S
C1072 C1073 1.386 1_556 S
C1072 C1074 1.391 . S
C1073 C1072 1.386 1_554 S
C1073 C1077 1.393 1_554 S
C1074 H1066 0.950 . S
C1074 C1072 1.391 . S
C1074 C1075 1.400 . S
C1075 C1074 1.400 . S
C1075 C1076 1.398 . S
C1075 C1081 1.491 . S
C1076 H1067 0.950 . S
C1076 C1075 1.398 . S
C1076 C1077 1.391 . S
C1077 H1065 0.950 1_556 S
C1077 C1073 1.393 1_556 S
C1077 C1076 1.391 . S
C1078 H1068 0.950 . S
C1078 C1079 1.386 . S
C1078 C1080 1.391 . S
C1079 C1078 1.386 . S
C1079 C1083 1.393 . S
C1080 H1069 0.950 . S
C1080 C1078 1.391 . S
C1080 C1081 1.400 . S
C1081 C1075 1.491 . S
C1081 C1080 1.400 . S
C1081 C1082 1.398 . S
C1082 H1070 0.950 . S
C1082 C1081 1.398 . S
C1082 C1083 1.391 . S
C1083 H1071 0.950 . S
C1083 C1079 1.393 . S
C1083 C1082 1.391 . S
H1084 C1092 0.950 . S
H1085 C1097 0.950 . S
H1086 C1094 0.950 . S
H1087 C1096 0.950 . S
H1088 C1098 0.950 . S
H1089 C1100 0.950 . S
H1090 C1102 0.950 . S
H1091 C1103 0.932 1_554 S
C1092 H1084 0.950 . S
C1092 C1093 1.386 . S
C1092 C1094 1.391 . S
C1093 C1092 1.386 . S
C1093 C1097 1.393 . S
C1094 H1086 0.950 . S
C1094 C1092 1.391 . S
C1094 C1095 1.400 . S
C1095 C1094 1.400 . S
C1095 C1096 1.398 . S
C1095 C1101 1.491 . S
C1096 H1087 0.950 . S
C1096 C1095 1.398 . S
C1096 C1097 1.391 . S
C1097 H1085 0.950 . S
C1097 C1093 1.393 . S
C1097 C1096 1.391 . S
C1098 H1088 0.950 . S
C1098 C1099 1.386 1_556 S
C1098 C1100 1.391 . S
C1099 C1098 1.386 1_554 S
C1099 C1103 1.389 1_554 S
C1100 H1089 0.950 . S
C1100 C1098 1.391 . S
C1100 C1101 1.400 . S
C1101 C1095 1.491 . S
C1101 C1100 1.400 . S
C1101 C1102 1.398 . S
C1102 H1090 0.950 . S
C1102 C1101 1.398 . S
C1102 C1103 1.413 . S
C1103 H1091 0.932 1_556 S
C1103 C1099 1.389 1_556 S
C1103 C1102 1.413 . S
H1104 C1112 0.950 . S
H1105 C1117 0.950 . S
H1106 C1114 0.950 . S
H1107 C1116 0.950 . S
H1108 C1118 0.950 . S
H1109 C1120 0.950 . S
H1110 C1122 0.950 . S
H1111 C1123 0.980 . S
C1112 H1104 0.950 . S
C1112 C1113 1.386 . S
C1112 C1114 1.391 . S
C1113 C1112 1.386 . S
C1113 C1117 1.393 1_455 S
C1114 H1106 0.950 . S
C1114 C1112 1.391 . S
C1114 C1115 1.400 . S
C1115 C1114 1.400 . S
C1115 C1116 1.398 1_455 S
C1115 C1121 1.491 1_455 S
C1116 H1107 0.950 . S
C1116 C1115 1.398 1_655 S
C1116 C1117 1.391 . S
C1117 H1105 0.950 . S
C1117 C1113 1.393 1_655 S
C1117 C1116 1.391 . S
C1118 H1108 0.950 . S
C1118 C1119 1.386 . S
C1118 C1120 1.391 . S
C1119 C1118 1.386 . S
C1119 C1123 1.346 1_655 S
C1120 H1109 0.950 . S
C1120 C1118 1.391 . S
C1120 C1121 1.400 . S
C1121 C1115 1.491 1_655 S
C1121 C1120 1.400 . S
C1121 C1122 1.398 1_655 S
C1122 H1110 0.950 . S
C1122 C1121 1.398 1_455 S
C1122 C1123 1.409 . S
C1123 H1111 0.980 . S
C1123 C1119 1.346 1_455 S
C1123 C1122 1.409 . S
H1124 C1132 0.950 . S
H1125 C1137 0.950 . S
H1126 C1134 0.950 . S
H1127 C1136 0.950 . S
H1128 C1138 0.950 . S
H1129 C1140 0.950 . S
H1130 C1142 0.950 . S
H1131 C1143 0.950 . S
C1132 H1124 0.950 . S
C1132 C1133 1.386 . S
C1132 C1134 1.391 . S
C1133 C1132 1.386 . S
C1133 C1137 1.393 . S
C1134 H1126 0.950 . S
C1134 C1132 1.391 . S
C1134 C1135 1.400 . S
C1135 C1134 1.400 . S
C1135 C1136 1.398 . S
C1135 C1141 1.491 . S
C1136 H1127 0.950 . S
C1136 C1135 1.398 . S
C1136 C1137 1.391 . S
C1137 H1125 0.950 . S
C1137 C1133 1.393 . S
C1137 C1136 1.391 . S
C1138 H1128 0.950 . S
C1138 C1139 1.386 . S
C1138 C1140 1.391 . S
C1139 C1138 1.386 . S
C1139 C1143 1.393 . S
C1140 H1129 0.950 . S
C1140 C1138 1.391 . S
C1140 C1141 1.400 . S
C1141 C1135 1.491 . S
C1141 C1140 1.400 . S
C1141 C1142 1.398 . S
C1142 H1130 0.950 . S
C1142 C1141 1.398 . S
C1142 C1143 1.391 . S
C1143 H1131 0.950 . S
C1143 C1139 1.393 . S
C1143 C1142 1.391 . S
H1144 C1152 0.950 . S
H1145 C1157 0.950 . S
H1146 C1154 0.949 1_565 S
H1147 C1156 0.950 . S
H1148 C1158 0.950 . S
H1149 C1160 0.947 1_545 S
H1150 C1162 0.950 . S
H1151 C1163 0.950 . S
C1152 H1144 0.950 . S
C1152 C1153 1.386 . S
C1152 C1154 1.393 . S
C1153 C1152 1.386 . S
C1153 C1157 1.393 . S
C1154 H1146 0.949 1_545 S
C1154 C1152 1.393 . S
C1154 C1155 1.399 . S
C1155 C1154 1.399 . S
C1155 C1156 1.398 . S
C1155 C1161 1.491 1_545 S
C1156 H1147 0.950 . S
C1156 C1155 1.398 . S
C1156 C1157 1.391 . S
C1157 H1145 0.950 . S
C1157 C1153 1.393 . S
C1157 C1156 1.391 . S
C1158 H1148 0.950 . S
C1158 C1159 1.386 . S
C1158 C1160 1.400 . S
C1159 C1158 1.386 . S
C1159 C1163 1.393 . S
C1160 H1149 0.947 1_565 S
C1160 C1158 1.400 . S
C1160 C1161 1.395 . S
C1161 C1155 1.491 1_565 S
C1161 C1160 1.395 . S
C1161 C1162 1.398 . S
C1162 H1150 0.950 . S
C1162 C1161 1.398 . S
C1162 C1163 1.391 . S
C1163 H1151 0.950 . S
C1163 C1159 1.393 . S
C1163 C1162 1.391 . S
H1164 C1172 0.955 . S
H1165 C1177 0.950 . S
H1166 C1174 0.950 . S
H1167 C1176 0.950 . S
H1168 C1178 0.953 1_565 S
H1169 C1180 0.950 . S
H1170 C1182 0.950 . S
H1171 C1183 0.950 . S
C1172 H1164 0.955 . S
C1172 C1173 1.378 1_545 S
C1172 C1174 1.394 . S
C1173 C1172 1.378 1_565 S
C1173 C1177 1.393 . S
C1174 H1166 0.950 . S
C1174 C1172 1.394 . S
C1174 C1175 1.400 1_545 S
C1175 C1174 1.400 1_565 S
C1175 C1176 1.398 . S
C1175 C1181 1.491 1_565 S
C1176 H1167 0.950 . S
C1176 C1175 1.398 . S
C1176 C1177 1.391 . S
C1177 H1165 0.950 . S
C1177 C1173 1.393 . S
C1177 C1176 1.391 . S
C1178 H1168 0.953 1_545 S
C1178 C1179 1.380 . S
C1178 C1180 1.393 1_545 S
C1179 C1178 1.380 . S
C1179 C1183 1.393 . S
C1180 H1169 0.950 . S
C1180 C1178 1.393 1_565 S
C1180 C1181 1.400 1_565 S
C1181 C1175 1.491 1_545 S
C1181 C1180 1.400 1_545 S
C1181 C1182 1.398 . S
C1182 H1170 0.950 . S
C1182 C1181 1.398 . S
C1182 C1183 1.391 . S
C1183 H1171 0.950 . S
C1183 C1179 1.393 . S
C1183 C1182 1.391 . S
H1184 C1192 0.950 . S
H1185 C1197 0.950 . S
H1186 C1194 0.950 . S
H1187 C1196 0.950 . S
H1188 C1198 0.950 . S
H1189 C1200 0.950 . S
H1190 C1202 0.950 . S
H1191 C1203 0.980 . S
C1192 H1184 0.950 . S
C1192 C1193 1.386 . S
C1192 C1194 1.391 . S
C1193 C1192 1.386 . S
C1193 C1197 1.393 1_655 S
C1194 H1186 0.950 . S
C1194 C1192 1.391 . S
C1194 C1195 1.400 . S
C1195 C1194 1.400 . S
C1195 C1196 1.398 1_655 S
C1195 C1201 1.491 1_655 S
C1196 H1187 0.950 . S
C1196 C1195 1.398 1_455 S
C1196 C1197 1.391 . S
C1197 H1185 0.950 . S
C1197 C1193 1.393 1_455 S
C1197 C1196 1.391 . S
C1198 H1188 0.950 . S
C1198 C1199 1.386 . S
C1198 C1200 1.391 . S
C1199 C1198 1.386 . S
C1199 C1203 1.347 1_455 S
C1200 H1189 0.950 . S
C1200 C1198 1.391 . S
C1200 C1201 1.400 . S
C1201 C1195 1.491 1_455 S
C1201 C1200 1.400 . S
C1201 C1202 1.398 1_455 S
C1202 H1190 0.950 . S
C1202 C1201 1.398 1_655 S
C1202 C1203 1.408 . S
C1203 H1191 0.980 . S
C1203 C1199 1.347 1_655 S
C1203 C1202 1.408 . S
H1204 C1212 0.950 . S
H1205 C1217 0.950 . S
H1206 C1214 0.950 . S
H1207 C1216 0.950 . S
H1208 C1218 0.950 . S
H1209 C1220 0.950 . S
H1210 C1222 0.950 . S
H1211 C1223 0.950 . S
C1212 H1204 0.950 . S
C1212 C1213 1.386 . S
C1212 C1214 1.391 . S
C1213 C1212 1.386 . S
C1213 C1217 1.393 . S
C1214 H1206 0.950 . S
C1214 C1212 1.391 . S
C1214 C1215 1.400 . S
C1215 C1214 1.400 . S
C1215 C1216 1.398 . S
C1215 C1221 1.491 . S
C1216 H1207 0.950 . S
C1216 C1215 1.398 . S
C1216 C1217 1.391 . S
C1217 H1205 0.950 . S
C1217 C1213 1.393 . S
C1217 C1216 1.391 . S
C1218 H1208 0.950 . S
C1218 C1219 1.386 . S
C1218 C1220 1.391 . S
C1219 C1218 1.386 . S
C1219 C1223 1.393 . S
C1220 H1209 0.950 . S
C1220 C1218 1.391 . S
C1220 C1221 1.400 . S
C1221 C1215 1.491 . S
C1221 C1220 1.400 . S
C1221 C1222 1.398 . S
C1222 H1210 0.950 . S
C1222 C1221 1.398 . S
C1222 C1223 1.391 . S
C1223 H1211 0.950 . S
C1223 C1219 1.393 . S
C1223 C1222 1.391 . S
H1224 C1232 0.950 . S
H1225 C1237 0.950 . S
H1226 C1234 0.950 . S
H1227 C1236 0.950 . S
H1228 C1238 0.950 . S
H1229 C1240 0.950 . S
H1230 C1242 0.950 . S
H1231 C1243 0.950 . S
C1232 H1224 0.950 . S
C1232 C1233 1.386 . S
C1232 C1234 1.391 . S
C1233 C1232 1.386 . S
C1233 C1237 1.393 . S
C1234 H1226 0.950 . S
C1234 C1232 1.391 . S
C1234 C1235 1.400 . S
C1235 C1234 1.400 . S
C1235 C1236 1.398 . S
C1235 C1241 1.491 . S
C1236 H1227 0.950 . S
C1236 C1235 1.398 . S
C1236 C1237 1.391 . S
C1237 H1225 0.950 . S
C1237 C1233 1.393 . S
C1237 C1236 1.391 . S
C1238 H1228 0.950 . S
C1238 C1239 1.386 . S
C1238 C1240 1.391 . S
C1239 C1238 1.386 . S
C1239 C1243 1.393 . S
C1240 H1229 0.950 . S
C1240 C1238 1.391 . S
C1240 C1241 1.400 . S
C1241 C1235 1.491 . S
C1241 C1240 1.400 . S
C1241 C1242 1.398 . S
C1242 H1230 0.950 . S
C1242 C1241 1.398 . S
C1242 C1243 1.391 . S
C1243 H1231 0.950 . S
C1243 C1239 1.393 . S
C1243 C1242 1.391 . S
H1244 C1252 0.950 . S
H1245 C1257 0.950 . S
H1246 C1254 0.950 . S
H1247 C1256 0.950 . S
H1248 C1258 0.950 . S
H1249 C1260 0.950 . S
H1250 C1262 0.950 . S
H1251 C1263 0.950 . S
C1252 H1244 0.950 . S
C1252 C1253 1.386 . S
C1252 C1254 1.391 . S
C1253 C1252 1.386 . S
C1253 C1257 1.393 . S
C1254 H1246 0.950 . S
C1254 C1252 1.391 . S
C1254 C1255 1.400 . S
C1255 C1254 1.400 . S
C1255 C1256 1.398 . S
C1255 C1261 1.491 . S
C1256 H1247 0.950 . S
C1256 C1255 1.398 . S
C1256 C1257 1.391 . S
C1257 H1245 0.950 . S
C1257 C1253 1.393 . S
C1257 C1256 1.391 . S
C1258 H1248 0.950 . S
C1258 C1259 1.386 . S
C1258 C1260 1.391 . S
C1259 C1258 1.386 . S
C1259 C1263 1.393 . S
C1260 H1249 0.950 . S
C1260 C1258 1.391 . S
C1260 C1261 1.400 . S
C1261 C1255 1.491 . S
C1261 C1260 1.400 . S
C1261 C1262 1.398 . S
C1262 H1250 0.950 . S
C1262 C1261 1.398 . S
C1262 C1263 1.391 . S
C1263 H1251 0.950 . S
C1263 C1259 1.393 . S
C1263 C1262 1.391 . S
H1264 C1272 0.950 . S
H1265 C1277 0.950 . S
H1266 C1274 0.950 . S
H1267 C1276 0.950 . S
H1268 C1278 0.950 . S
H1269 C1280 0.950 . S
H1270 C1282 0.950 . S
H1271 C1283 0.950 . S
C1272 H1264 0.950 . S
C1272 C1273 1.386 . S
C1272 C1274 1.391 . S
C1273 C1272 1.386 . S
C1273 C1277 1.393 . S
C1274 H1266 0.950 . S
C1274 C1272 1.391 . S
C1274 C1275 1.400 . S
C1275 C1274 1.400 . S
C1275 C1276 1.398 . S
C1275 C1281 1.491 . S
C1276 H1267 0.950 . S
C1276 C1275 1.398 . S
C1276 C1277 1.391 . S
C1277 H1265 0.950 . S
C1277 C1273 1.393 . S
C1277 C1276 1.391 . S
C1278 H1268 0.950 . S
C1278 C1279 1.386 . S
C1278 C1280 1.391 . S
C1279 C1278 1.386 . S
C1279 C1283 1.393 . S
C1280 H1269 0.950 . S
C1280 C1278 1.391 . S
C1280 C1281 1.400 . S
C1281 C1275 1.491 . S
C1281 C1280 1.400 . S
C1281 C1282 1.398 . S
C1282 H1270 0.950 . S
C1282 C1281 1.398 . S
C1282 C1283 1.391 . S
C1283 H1271 0.950 . S
C1283 C1279 1.393 . S
C1283 C1282 1.391 . S
H1284 C1292 0.950 . S
H1285 C1297 0.950 . S
H1286 C1294 0.950 . S
H1287 C1296 0.950 . S
H1288 C1298 0.950 . S
H1289 C1300 0.950 . S
H1290 C1302 0.950 . S
H1291 C1303 0.950 . S
C1292 H1284 0.950 . S
C1292 C1293 1.386 . S
C1292 C1294 1.391 . S
C1293 C1292 1.386 . S
C1293 C1297 1.393 . S
C1294 H1286 0.950 . S
C1294 C1292 1.391 . S
C1294 C1295 1.400 . S
C1295 C1294 1.400 . S
C1295 C1296 1.398 . S
C1295 C1301 1.491 . S
C1296 H1287 0.950 . S
C1296 C1295 1.398 . S
C1296 C1297 1.391 . S
C1297 H1285 0.950 . S
C1297 C1293 1.393 . S
C1297 C1296 1.391 . S
C1298 H1288 0.950 . S
C1298 C1299 1.386 . S
C1298 C1300 1.391 . S
C1299 C1298 1.386 . S
C1299 C1303 1.393 . S
C1300 H1289 0.950 . S
C1300 C1298 1.391 . S
C1300 C1301 1.400 . S
C1301 C1295 1.491 . S
C1301 C1300 1.400 . S
C1301 C1302 1.398 . S
C1302 H1290 0.950 . S
C1302 C1301 1.398 . S
C1302 C1303 1.391 . S
C1303 H1291 0.950 . S
C1303 C1299 1.393 . S
C1303 C1302 1.391 . S
H1304 C1312 0.950 . S
H1305 C1317 0.950 . S
H1306 C1314 0.950 . S
H1307 C1316 0.950 . S
H1308 C1318 0.950 . S
H1309 C1320 0.950 . S
H1310 C1322 0.950 . S
H1311 C1323 0.950 . S
C1312 H1304 0.950 . S
C1312 C1313 1.386 . S
C1312 C1314 1.391 . S
C1313 C1312 1.386 . S
C1313 C1317 1.393 . S
C1314 H1306 0.950 . S
C1314 C1312 1.391 . S
C1314 C1315 1.400 . S
C1315 C1314 1.400 . S
C1315 C1316 1.398 . S
C1315 C1321 1.491 . S
C1316 H1307 0.950 . S
C1316 C1315 1.398 . S
C1316 C1317 1.391 . S
C1317 H1305 0.950 . S
C1317 C1313 1.393 . S
C1317 C1316 1.391 . S
C1318 H1308 0.950 . S
C1318 C1319 1.386 . S
C1318 C1320 1.391 . S
C1319 C1318 1.386 . S
C1319 C1323 1.393 . S
C1320 H1309 0.950 . S
C1320 C1318 1.391 . S
C1320 C1321 1.400 . S
C1321 C1315 1.491 . S
C1321 C1320 1.400 . S
C1321 C1322 1.398 . S
C1322 H1310 0.950 . S
C1322 C1321 1.398 . S
C1322 C1323 1.391 . S
C1323 H1311 0.950 . S
C1323 C1319 1.393 . S
C1323 C1322 1.391 . S
H1324 C1332 0.950 . S
H1325 C1337 0.950 . S
H1326 C1334 0.950 . S
H1327 C1336 0.950 . S
H1328 C1338 0.950 . S
H1329 C1340 0.950 . S
H1330 C1342 0.950 . S
H1331 C1343 0.950 . S
C1332 H1324 0.950 . S
C1332 C1333 1.386 . S
C1332 C1334 1.391 . S
C1333 C1332 1.386 . S
C1333 C1337 1.393 . S
C1334 H1326 0.950 . S
C1334 C1332 1.391 . S
C1334 C1335 1.400 . S
C1335 C1334 1.400 . S
C1335 C1336 1.398 . S
C1335 C1341 1.491 . S
C1336 H1327 0.950 . S
C1336 C1335 1.398 . S
C1336 C1337 1.391 . S
C1337 H1325 0.950 . S
C1337 C1333 1.393 . S
C1337 C1336 1.391 . S
C1338 H1328 0.950 . S
C1338 C1339 1.386 . S
C1338 C1340 1.391 . S
C1339 C1338 1.386 . S
C1339 C1343 1.393 . S
C1340 H1329 0.950 . S
C1340 C1338 1.391 . S
C1340 C1341 1.400 . S
C1341 C1335 1.491 . S
C1341 C1340 1.400 . S
C1341 C1342 1.398 . S
C1342 H1330 0.950 . S
C1342 C1341 1.398 . S
C1342 C1343 1.391 . S
C1343 H1331 0.950 . S
C1343 C1339 1.393 . S
C1343 C1342 1.391 . S
H1344 C1352 0.950 . S
H1345 C1357 0.950 . S
H1346 C1354 0.950 . S
H1347 C1356 0.950 . S
H1348 C1358 0.950 . S
H1349 C1360 0.950 . S
H1350 C1362 0.950 . S
H1351 C1363 0.950 . S
C1352 H1344 0.950 . S
C1352 C1353 1.386 . S
C1352 C1354 1.391 . S
C1353 C1352 1.386 . S
C1353 C1357 1.393 . S
C1354 H1346 0.950 . S
C1354 C1352 1.391 . S
C1354 C1355 1.400 . S
C1355 C1354 1.400 . S
C1355 C1356 1.398 . S
C1355 C1361 1.491 . S
C1356 H1347 0.950 . S
C1356 C1355 1.398 . S
C1356 C1357 1.391 . S
C1357 H1345 0.950 . S
C1357 C1353 1.393 . S
C1357 C1356 1.391 . S
C1358 H1348 0.950 . S
C1358 C1359 1.386 . S
C1358 C1360 1.391 . S
C1359 C1358 1.386 . S
C1359 C1363 1.393 . S
C1360 H1349 0.950 . S
C1360 C1358 1.391 . S
C1360 C1361 1.400 . S
C1361 C1355 1.491 . S
C1361 C1360 1.400 . S
C1361 C1362 1.398 . S
C1362 H1350 0.950 . S
C1362 C1361 1.398 . S
C1362 C1363 1.391 . S
C1363 H1351 0.950 . S
C1363 C1359 1.393 . S
C1363 C1362 1.391 . S
H1364 C1372 0.950 . S
H1365 C1377 0.950 . S
H1366 C1374 0.950 . S
H1367 C1376 0.950 . S
H1368 C1378 0.950 . S
H1369 C1380 0.950 . S
H1370 C1382 0.950 . S
H1371 C1383 0.950 . S
C1372 H1364 0.950 . S
C1372 C1373 1.386 . S
C1372 C1374 1.391 . S
C1373 C1372 1.386 . S
C1373 C1377 1.393 . S
C1374 H1366 0.950 . S
C1374 C1372 1.391 . S
C1374 C1375 1.400 . S
C1375 C1374 1.400 . S
C1375 C1376 1.398 . S
C1375 C1381 1.491 . S
C1376 H1367 0.950 . S
C1376 C1375 1.398 . S
C1376 C1377 1.391 . S
C1377 H1365 0.950 . S
C1377 C1373 1.393 . S
C1377 C1376 1.391 . S
C1378 H1368 0.950 . S
C1378 C1379 1.386 . S
C1378 C1380 1.391 . S
C1379 C1378 1.386 . S
C1379 C1383 1.393 . S
C1380 H1369 0.950 . S
C1380 C1378 1.391 . S
C1380 C1381 1.400 . S
C1381 C1375 1.491 . S
C1381 C1380 1.400 . S
C1381 C1382 1.398 . S
C1382 H1370 0.950 . S
C1382 C1381 1.398 . S
C1382 C1383 1.391 . S
C1383 H1371 0.950 . S
C1383 C1379 1.393 . S
C1383 C1382 1.391 . S
H1384 C1392 0.950 . S
H1385 C1397 0.950 . S
H1386 C1394 0.950 . S
H1387 C1396 0.950 . S
H1388 C1398 0.950 . S
H1389 C1400 0.950 . S
H1390 C1402 0.950 . S
H1391 C1403 0.950 . S
C1392 H1384 0.950 . S
C1392 C1393 1.386 . S
C1392 C1394 1.391 . S
C1393 C1392 1.386 . S
C1393 C1397 1.393 . S
C1394 H1386 0.950 . S
C1394 C1392 1.391 . S
C1394 C1395 1.400 . S
C1395 C1394 1.400 . S
C1395 C1396 1.398 . S
C1395 C1401 1.491 . S
C1396 H1387 0.950 . S
C1396 C1395 1.398 . S
C1396 C1397 1.391 . S
C1397 H1385 0.950 . S
C1397 C1393 1.393 . S
C1397 C1396 1.391 . S
C1398 H1388 0.950 . S
C1398 C1399 1.386 . S
C1398 C1400 1.391 . S
C1399 C1398 1.386 . S
C1399 C1403 1.393 . S
C1400 H1389 0.950 . S
C1400 C1398 1.391 . S
C1400 C1401 1.400 . S
C1401 C1395 1.491 . S
C1401 C1400 1.400 . S
C1401 C1402 1.398 . S
C1402 H1390 0.950 . S
C1402 C1401 1.398 . S
C1402 C1403 1.391 . S
C1403 H1391 0.950 . S
C1403 C1399 1.393 . S
C1403 C1402 1.391 . S
H1404 C1412 0.950 . S
H1405 C1417 0.950 . S
H1406 C1414 0.950 . S
H1407 C1416 0.950 . S
H1408 C1418 0.950 . S
H1409 C1420 0.950 . S
H1410 C1422 0.950 . S
H1411 C1423 0.950 . S
C1412 H1404 0.950 . S
C1412 C1413 1.386 . S
C1412 C1414 1.391 . S
C1413 C1412 1.386 . S
C1413 C1417 1.393 . S
C1414 H1406 0.950 . S
C1414 C1412 1.391 . S
C1414 C1415 1.400 . S
C1415 C1414 1.400 . S
C1415 C1416 1.398 . S
C1415 C1421 1.491 . S
C1416 H1407 0.950 . S
C1416 C1415 1.398 . S
C1416 C1417 1.391 . S
C1417 H1405 0.950 . S
C1417 C1413 1.393 . S
C1417 C1416 1.391 . S
C1418 H1408 0.950 . S
C1418 C1419 1.386 . S
C1418 C1420 1.391 . S
C1419 C1418 1.386 . S
C1419 C1423 1.393 . S
C1420 H1409 0.950 . S
C1420 C1418 1.391 . S
C1420 C1421 1.400 . S
C1421 C1415 1.491 . S
C1421 C1420 1.400 . S
C1421 C1422 1.398 . S
C1422 H1410 0.950 . S
C1422 C1421 1.398 . S
C1422 C1423 1.391 . S
C1423 H1411 0.950 . S
C1423 C1419 1.393 . S
C1423 C1422 1.391 . S
H1424 C1432 0.950 . S
H1425 C1437 0.950 . S
H1426 C1434 0.950 . S
H1427 C1436 0.950 . S
H1428 C1438 0.950 . S
H1429 C1440 0.950 . S
H1430 C1442 0.950 . S
H1431 C1443 0.950 . S
C1432 H1424 0.950 . S
C1432 C1433 1.386 . S
C1432 C1434 1.391 . S
C1433 C1432 1.386 . S
C1433 C1437 1.393 . S
C1434 H1426 0.950 . S
C1434 C1432 1.391 . S
C1434 C1435 1.400 . S
C1435 C1434 1.400 . S
C1435 C1436 1.398 . S
C1435 C1441 1.491 . S
C1436 H1427 0.950 . S
C1436 C1435 1.398 . S
C1436 C1437 1.391 . S
C1437 H1425 0.950 . S
C1437 C1433 1.393 . S
C1437 C1436 1.391 . S
C1438 H1428 0.950 . S
C1438 C1439 1.386 . S
C1438 C1440 1.391 . S
C1439 C1438 1.386 . S
C1439 C1443 1.393 . S
C1440 H1429 0.950 . S
C1440 C1438 1.391 . S
C1440 C1441 1.400 . S
C1441 C1435 1.491 . S
C1441 C1440 1.400 . S
C1441 C1442 1.398 . S
C1442 H1430 0.950 . S
C1442 C1441 1.398 . S
C1442 C1443 1.391 . S
C1443 H1431 0.950 . S
C1443 C1439 1.393 . S
C1443 C1442 1.391 . S
H1444 C1452 0.950 . S
H1445 C1457 0.950 . S
H1446 C1454 0.950 . S
H1447 C1456 0.950 . S
H1448 C1458 0.950 . S
H1449 C1460 0.950 . S
H1450 C1462 0.950 . S
H1451 C1463 0.950 . S
C1452 H1444 0.950 . S
C1452 C1453 1.386 . S
C1452 C1454 1.391 . S
C1453 C1452 1.386 . S
C1453 C1457 1.393 . S
C1454 H1446 0.950 . S
C1454 C1452 1.391 . S
C1454 C1455 1.400 . S
C1455 C1454 1.400 . S
C1455 C1456 1.398 . S
C1455 C1461 1.491 . S
C1456 H1447 0.950 . S
C1456 C1455 1.398 . S
C1456 C1457 1.391 . S
C1457 H1445 0.950 . S
C1457 C1453 1.393 . S
C1457 C1456 1.391 . S
C1458 H1448 0.950 . S
C1458 C1459 1.386 . S
C1458 C1460 1.391 . S
C1459 C1458 1.386 . S
C1459 C1463 1.393 . S
C1460 H1449 0.950 . S
C1460 C1458 1.391 . S
C1460 C1461 1.400 . S
C1461 C1455 1.491 . S
C1461 C1460 1.400 . S
C1461 C1462 1.398 . S
C1462 H1450 0.950 . S
C1462 C1461 1.398 . S
C1462 C1463 1.391 . S
C1463 H1451 0.950 . S
C1463 C1459 1.393 . S
C1463 C1462 1.391 . S
H1464 C1472 0.950 . S
H1465 C1477 0.950 . S
H1466 C1474 0.950 . S
H1467 C1476 0.950 . S
H1468 C1478 0.950 . S
H1469 C1480 0.950 . S
H1470 C1482 0.950 . S
H1471 C1483 0.950 . S
C1472 H1464 0.950 . S
C1472 C1473 1.386 . S
C1472 C1474 1.391 . S
C1473 C1472 1.386 . S
C1473 C1477 1.393 1_655 S
C1474 H1466 0.950 . S
C1474 C1472 1.391 . S
C1474 C1475 1.416 . S
C1475 C1474 1.416 . S
C1475 C1476 1.369 1_655 S
C1475 C1481 1.518 1_655 S
C1476 H1467 0.950 . S
C1476 C1475 1.369 1_455 S
C1476 C1477 1.391 . S
C1477 H1465 0.950 . S
C1477 C1473 1.393 1_455 S
C1477 C1476 1.391 . S
C1478 H1468 0.950 . S
C1478 C1479 1.386 . S
C1478 C1480 1.391 . S
C1479 C1478 1.386 . S
C1479 C1483 1.393 1_455 S
C1480 H1469 0.950 . S
C1480 C1478 1.391 . S
C1480 C1481 1.416 . S
C1481 C1475 1.518 1_455 S
C1481 C1480 1.416 . S
C1481 C1482 1.369 1_455 S
C1482 H1470 0.950 . S
C1482 C1481 1.369 1_655 S
C1482 C1483 1.391 . S
C1483 H1471 0.950 . S
C1483 C1479 1.393 1_655 S
C1483 C1482 1.391 . S
H1484 C1492 0.950 . S
H1485 C1497 0.950 . S
H1486 C1494 0.950 . S
H1487 C1496 0.950 . S
H1488 C1498 0.950 . S
H1489 C1500 0.950 . S
H1490 C1502 0.950 . S
H1491 C1503 0.950 . S
C1492 H1484 0.950 . S
C1492 C1493 1.386 . S
C1492 C1494 1.391 . S
C1493 C1492 1.386 . S
C1493 C1497 1.393 . S
C1494 H1486 0.950 . S
C1494 C1492 1.391 . S
C1494 C1495 1.400 . S
C1495 C1494 1.400 . S
C1495 C1496 1.398 . S
C1495 C1501 1.491 . S
C1496 H1487 0.950 . S
C1496 C1495 1.398 . S
C1496 C1497 1.391 . S
C1497 H1485 0.950 . S
C1497 C1493 1.393 . S
C1497 C1496 1.391 . S
C1498 H1488 0.950 . S
C1498 C1499 1.386 . S
C1498 C1500 1.391 . S
C1499 C1498 1.386 . S
C1499 C1503 1.393 . S
C1500 H1489 0.950 . S
C1500 C1498 1.391 . S
C1500 C1501 1.400 . S
C1501 C1495 1.491 . S
C1501 C1500 1.400 . S
C1501 C1502 1.398 . S
C1502 H1490 0.950 . S
C1502 C1501 1.398 . S
C1502 C1503 1.391 . S
C1503 H1491 0.950 . S
C1503 C1499 1.393 . S
C1503 C1502 1.391 . S
H1504 C1512 0.950 . S
H1505 C1517 0.950 . S
H1506 C1514 0.950 . S
H1507 C1516 0.950 . S
H1508 C1518 0.950 . S
H1509 C1520 0.950 . S
H1510 C1522 0.950 . S
H1511 C1523 0.950 . S
C1512 H1504 0.950 . S
C1512 C1513 1.386 1_545 S
C1512 C1514 1.391 . S
C1513 C1512 1.386 1_565 S
C1513 C1517 1.393 . S
C1514 H1506 0.950 . S
C1514 C1512 1.391 . S
C1514 C1515 1.381 1_545 S
C1515 C1514 1.381 1_565 S
C1515 C1516 1.451 . S
C1515 C1521 1.432 1_565 S
C1516 H1507 0.950 . S
C1516 C1515 1.451 . S
C1516 C1517 1.391 . S
C1517 H1505 0.950 . S
C1517 C1513 1.393 . S
C1517 C1516 1.391 . S
C1518 H1508 0.950 . S
C1518 C1519 1.386 1_565 S
C1518 C1520 1.391 . S
C1519 C1518 1.386 1_545 S
C1519 C1523 1.393 . S
C1520 H1509 0.950 . S
C1520 C1518 1.391 . S
C1520 C1521 1.381 1_565 S
C1521 C1515 1.432 1_545 S
C1521 C1520 1.381 1_545 S
C1521 C1522 1.451 . S
C1522 H1510 0.950 . S
C1522 C1521 1.451 . S
C1522 C1523 1.391 . S
C1523 H1511 0.950 . S
C1523 C1519 1.393 . S
C1523 C1522 1.391 . S
H1524 C1532 0.950 . S
H1525 C1537 0.950 . S
H1526 C1534 0.950 . S
H1527 C1536 0.950 . S
H1528 C1538 0.950 . S
H1529 C1540 0.950 . S
H1530 C1542 0.950 . S
H1531 C1543 0.950 . S
C1532 H1524 0.950 . S
C1532 C1533 1.386 1_545 S
C1532 C1534 1.391 . S
C1533 C1532 1.386 1_565 S
C1533 C1537 1.393 1_556 S
C1534 H1526 0.950 . S
C1534 C1532 1.391 . S
C1534 C1535 1.397 1_545 S
C1535 C1534 1.397 1_565 S
C1535 C1536 1.396 1_556 S
C1535 C1541 1.501 1_566 S
C1536 H1527 0.950 . S
C1536 C1535 1.396 1_554 S
C1536 C1537 1.391 . S
C1537 H1525 0.950 . S
C1537 C1533 1.393 1_554 S
C1537 C1536 1.391 . S
C1538 H1528 0.950 . S
C1538 C1539 1.386 1_565 S
C1538 C1540 1.391 . S
C1539 C1538 1.386 1_545 S
C1539 C1543 1.393 1_554 S
C1540 H1529 0.950 . S
C1540 C1538 1.391 . S
C1540 C1541 1.397 1_565 S
C1541 C1535 1.501 1_544 S
C1541 C1540 1.397 1_545 S
C1541 C1542 1.396 1_554 S
C1542 H1530 0.950 . S
C1542 C1541 1.396 1_556 S
C1542 C1543 1.391 . S
C1543 H1531 0.950 . S
C1543 C1539 1.393 1_556 S
C1543 C1542 1.391 . S
H1544 C1552 0.950 . S
H1545 C1557 0.950 . S
H1546 C1554 0.950 . S
H1547 C1556 0.950 . S
H1548 C1558 0.950 . S
H1549 C1560 0.950 . S
H1550 C1562 0.950 . S
H1551 C1563 0.950 . S
C1552 H1544 0.950 . S
C1552 C1553 1.386 1_455 S
C1552 C1554 1.391 . S
C1553 C1552 1.386 1_655 S
C1553 C1557 1.393 1_554 S
C1554 H1546 0.950 . S
C1554 C1552 1.391 . S
C1554 C1555 1.400 1_455 S
C1555 C1554 1.400 1_655 S
C1555 C1556 1.439 1_554 S
C1555 C1561 1.422 1_654 S
C1556 H1547 0.950 . S
C1556 C1555 1.439 1_556 S
C1556 C1557 1.391 . S
C1557 H1545 0.950 . S
C1557 C1553 1.393 1_556 S
C1557 C1556 1.391 . S
C1558 H1548 0.950 . S
C1558 C1559 1.386 1_655 S
C1558 C1560 1.391 . S
C1559 C1558 1.386 1_455 S
C1559 C1563 1.393 1_556 S
C1560 H1549 0.950 . S
C1560 C1558 1.391 . S
C1560 C1561 1.400 1_655 S
C1561 C1555 1.422 1_456 S
C1561 C1560 1.400 1_455 S
C1561 C1562 1.439 1_556 S
C1562 H1550 0.950 . S
C1562 C1561 1.439 1_554 S
C1562 C1563 1.391 . S
C1563 H1551 0.950 . S
C1563 C1559 1.393 1_554 S
C1563 C1562 1.391 . S
H1564 C1572 0.950 . S
H1565 C1577 0.950 . S
H1566 C1574 0.950 . S
H1567 C1576 0.951 1_556 S
H1568 C1578 0.950 . S
H1569 C1580 0.950 . S
H1570 C1582 0.951 1_554 S
H1571 C1583 0.950 . S
C1572 H1564 0.950 . S
C1572 C1573 1.386 . S
C1572 C1574 1.391 . S
C1573 C1572 1.386 . S
C1573 C1577 1.393 . S
C1574 H1566 0.950 . S
C1574 C1572 1.391 . S
C1574 C1575 1.400 . S
C1575 C1574 1.400 . S
C1575 C1576 1.398 . S
C1575 C1581 1.491 1_554 S
C1576 H1567 0.951 1_554 S
C1576 C1575 1.398 . S
C1576 C1577 1.390 . S
C1577 H1565 0.950 . S
C1577 C1573 1.393 . S
C1577 C1576 1.390 . S
C1578 H1568 0.950 . S
C1578 C1579 1.386 . S
C1578 C1580 1.391 . S
C1579 C1578 1.386 . S
C1579 C1583 1.393 . S
C1580 H1569 0.950 . S
C1580 C1578 1.391 . S
C1580 C1581 1.400 . S
C1581 C1575 1.491 1_556 S
C1581 C1580 1.400 . S
C1581 C1582 1.398 . S
C1582 H1570 0.951 1_556 S
C1582 C1581 1.398 . S
C1582 C1583 1.390 . S
C1583 H1571 0.950 . S
C1583 C1579 1.393 . S
C1583 C1582 1.390 . S
H1584 C1592 0.950 . S
H1585 C1597 0.950 . S
H1586 C1594 0.950 . S
H1587 C1596 0.950 . S
H1588 C1598 0.950 . S
H1589 C1600 0.950 . S
H1590 C1602 0.950 . S
H1591 C1603 0.950 . S
C1592 H1584 0.950 . S
C1592 C1593 1.386 . S
C1592 C1594 1.391 . S
C1593 C1592 1.386 . S
C1593 C1597 1.393 . S
C1594 H1586 0.950 . S
C1594 C1592 1.391 . S
C1594 C1595 1.400 . S
C1595 C1594 1.400 . S
C1595 C1596 1.398 . S
C1595 C1601 1.491 . S
C1596 H1587 0.950 . S
C1596 C1595 1.398 . S
C1596 C1597 1.391 . S
C1597 H1585 0.950 . S
C1597 C1593 1.393 . S
C1597 C1596 1.391 . S
C1598 H1588 0.950 . S
C1598 C1599 1.386 . S
C1598 C1600 1.391 . S
C1599 C1598 1.386 . S
C1599 C1603 1.393 . S
C1600 H1589 0.950 . S
C1600 C1598 1.391 . S
C1600 C1601 1.400 . S
C1601 C1595 1.491 . S
C1601 C1600 1.400 . S
C1601 C1602 1.398 . S
C1602 H1590 0.950 . S
C1602 C1601 1.398 . S
C1602 C1603 1.391 . S
C1603 H1591 0.950 . S
C1603 C1599 1.393 . S
C1603 C1602 1.391 . S
H1604 C1612 0.950 . S
H1605 C1617 0.950 . S
H1606 C1614 0.950 . S
H1607 C1616 0.950 . S
H1608 C1618 0.950 . S
H1609 C1620 0.950 . S
H1610 C1622 0.950 . S
H1611 C1623 0.950 1_556 S
C1612 H1604 0.950 . S
C1612 C1613 1.386 . S
C1612 C1614 1.391 . S
C1613 C1612 1.386 . S
C1613 C1617 1.393 . S
C1614 H1606 0.950 . S
C1614 C1612 1.391 . S
C1614 C1615 1.400 . S
C1615 C1614 1.400 . S
C1615 C1616 1.398 . S
C1615 C1621 1.491 . S
C1616 H1607 0.950 . S
C1616 C1615 1.398 . S
C1616 C1617 1.391 . S
C1617 H1605 0.950 . S
C1617 C1613 1.393 . S
C1617 C1616 1.391 . S
C1618 H1608 0.950 . S
C1618 C1619 1.386 . S
C1618 C1620 1.391 . S
C1619 C1618 1.386 . S
C1619 C1623 1.393 . S
C1620 H1609 0.950 . S
C1620 C1618 1.391 . S
C1620 C1621 1.400 . S
C1621 C1615 1.491 . S
C1621 C1620 1.400 . S
C1621 C1622 1.398 . S
C1622 H1610 0.950 . S
C1622 C1621 1.398 . S
C1622 C1623 1.391 . S
C1623 H1611 0.950 1_554 S
C1623 C1619 1.393 . S
C1623 C1622 1.391 . S
H1624 C1632 0.950 . S
H1625 C1637 0.950 . S
H1626 C1634 0.950 . S
H1627 C1636 0.950 . S
H1628 C1638 0.950 . S
H1629 C1640 0.950 . S
H1630 C1642 0.950 . S
H1631 C1643 0.950 . S
C1632 H1624 0.950 . S
C1632 C1633 1.386 . S
C1632 C1634 1.391 . S
C1633 C1632 1.386 . S
C1633 C1637 1.393 . S
C1634 H1626 0.950 . S
C1634 C1632 1.391 . S
C1634 C1635 1.400 . S
C1635 C1634 1.400 . S
C1635 C1636 1.398 . S
C1635 C1641 1.491 . S
C1636 H1627 0.950 . S
C1636 C1635 1.398 . S
C1636 C1637 1.391 . S
C1637 H1625 0.950 . S
C1637 C1633 1.393 . S
C1637 C1636 1.391 . S
C1638 H1628 0.950 . S
C1638 C1639 1.386 . S
C1638 C1640 1.391 . S
C1639 C1638 1.386 . S
C1639 C1643 1.393 . S
C1640 H1629 0.950 . S
C1640 C1638 1.391 . S
C1640 C1641 1.400 . S
C1641 C1635 1.491 . S
C1641 C1640 1.400 . S
C1641 C1642 1.398 . S
C1642 H1630 0.950 . S
C1642 C1641 1.398 . S
C1642 C1643 1.391 . S
C1643 H1631 0.950 . S
C1643 C1639 1.393 . S
C1643 C1642 1.391 . S
H1644 C1652 0.950 . S
H1645 C1657 0.950 . S
H1646 C1654 0.950 . S
H1647 C1656 0.950 . S
H1648 C1658 0.950 . S
H1649 C1660 0.950 . S
H1650 C1662 0.950 . S
H1651 C1663 0.950 . S
C1652 H1644 0.950 . S
C1652 C1653 1.386 . S
C1652 C1654 1.391 . S
C1653 C1652 1.386 . S
C1653 C1657 1.393 . S
C1654 H1646 0.950 . S
C1654 C1652 1.391 . S
C1654 C1655 1.400 . S
C1655 C1654 1.400 . S
C1655 C1656 1.398 . S
C1655 C1661 1.491 . S
C1656 H1647 0.950 . S
C1656 C1655 1.398 . S
C1656 C1657 1.391 . S
C1657 H1645 0.950 . S
C1657 C1653 1.393 . S
C1657 C1656 1.391 . S
C1658 H1648 0.950 . S
C1658 C1659 1.386 . S
C1658 C1660 1.391 . S
C1659 C1658 1.386 . S
C1659 C1663 1.393 . S
C1660 H1649 0.950 . S
C1660 C1658 1.391 . S
C1660 C1661 1.400 . S
C1661 C1655 1.491 . S
C1661 C1660 1.400 . S
C1661 C1662 1.398 . S
C1662 H1650 0.950 . S
C1662 C1661 1.398 . S
C1662 C1663 1.391 . S
C1663 H1651 0.950 . S
C1663 C1659 1.393 . S
C1663 C1662 1.391 . S
H1664 C1672 0.950 . S
H1665 C1677 0.950 . S
H1666 C1674 0.950 . S
H1667 C1676 0.950 . S
H1668 C1678 0.950 . S
H1669 C1680 0.950 . S
H1670 C1682 0.950 . S
H1671 C1683 0.950 . S
C1672 H1664 0.950 . S
C1672 C1673 1.386 . S
C1672 C1674 1.391 . S
C1673 C1672 1.386 . S
C1673 C1677 1.393 . S
C1674 H1666 0.950 . S
C1674 C1672 1.391 . S
C1674 C1675 1.400 . S
C1675 C1674 1.400 . S
C1675 C1676 1.398 . S
C1675 C1681 1.491 . S
C1676 H1667 0.950 . S
C1676 C1675 1.398 . S
C1676 C1677 1.391 . S
C1677 H1665 0.950 . S
C1677 C1673 1.393 . S
C1677 C1676 1.391 . S
C1678 H1668 0.950 . S
C1678 C1679 1.386 . S
C1678 C1680 1.391 . S
C1679 C1678 1.386 . S
C1679 C1683 1.393 . S
C1680 H1669 0.950 . S
C1680 C1678 1.391 . S
C1680 C1681 1.400 . S
C1681 C1675 1.491 . S
C1681 C1680 1.400 . S
C1681 C1682 1.398 . S
C1682 H1670 0.950 . S
C1682 C1681 1.398 . S
C1682 C1683 1.391 . S
C1683 H1671 0.950 . S
C1683 C1679 1.393 . S
C1683 C1682 1.391 . S
H1684 C1692 0.950 . S
H1685 C1697 0.950 . S
H1686 C1694 0.950 . S
H1687 C1696 0.950 . S
H1688 C1698 0.950 . S
H1689 C1700 0.950 . S
H1690 C1702 0.950 . S
H1691 C1703 0.950 . S
C1692 H1684 0.950 . S
C1692 C1693 1.386 . S
C1692 C1694 1.391 . S
C1693 C1692 1.386 . S
C1693 C1697 1.393 . S
C1694 H1686 0.950 . S
C1694 C1692 1.391 . S
C1694 C1695 1.400 . S
C1695 C1694 1.400 . S
C1695 C1696 1.398 . S
C1695 C1701 1.491 . S
C1696 H1687 0.950 . S
C1696 C1695 1.398 . S
C1696 C1697 1.391 . S
C1697 H1685 0.950 . S
C1697 C1693 1.393 . S
C1697 C1696 1.391 . S
C1698 H1688 0.950 . S
C1698 C1699 1.386 . S
C1698 C1700 1.391 . S
C1699 C1698 1.386 . S
C1699 C1703 1.393 . S
C1700 H1689 0.950 . S
C1700 C1698 1.391 . S
C1700 C1701 1.400 . S
C1701 C1695 1.491 . S
C1701 C1700 1.400 . S
C1701 C1702 1.398 . S
C1702 H1690 0.950 . S
C1702 C1701 1.398 . S
C1702 C1703 1.391 . S
C1703 H1691 0.950 . S
C1703 C1699 1.393 . S
C1703 C1702 1.391 . S
H1704 C1712 0.950 . S
H1705 C1717 0.950 . S
H1706 C1714 0.950 . S
H1707 C1716 0.950 . S
H1708 C1718 0.950 1_554 S
H1709 C1720 0.950 . S
H1710 C1722 0.950 . S
H1711 C1723 0.950 . S
C1712 H1704 0.950 . S
C1712 C1713 1.386 . S
C1712 C1714 1.391 . S
C1713 C1712 1.386 . S
C1713 C1717 1.393 . S
C1714 H1706 0.950 . S
C1714 C1712 1.391 . S
C1714 C1715 1.400 . S
C1715 C1714 1.400 . S
C1715 C1716 1.398 . S
C1715 C1721 1.491 . S
C1716 H1707 0.950 . S
C1716 C1715 1.398 . S
C1716 C1717 1.391 . S
C1717 H1705 0.950 . S
C1717 C1713 1.393 . S
C1717 C1716 1.391 . S
C1718 H1708 0.950 1_556 S
C1718 C1719 1.386 . S
C1718 C1720 1.391 . S
C1719 C1718 1.386 . S
C1719 C1723 1.393 . S
C1720 H1709 0.950 . S
C1720 C1718 1.391 . S
C1720 C1721 1.400 . S
C1721 C1715 1.491 . S
C1721 C1720 1.400 . S
C1721 C1722 1.398 . S
C1722 H1710 0.950 . S
C1722 C1721 1.398 . S
C1722 C1723 1.391 . S
C1723 H1711 0.950 . S
C1723 C1719 1.393 . S
C1723 C1722 1.391 . S
H1724 C1732 0.950 . S
H1725 C1737 0.950 1_554 S
H1726 C1734 0.950 . S
H1727 C1736 0.950 . S
H1728 C1738 0.950 . S
H1729 C1740 0.950 . S
H1730 C1742 0.950 . S
H1731 C1743 0.950 . S
C1732 H1724 0.950 . S
C1732 C1733 1.386 . S
C1732 C1734 1.391 . S
C1733 C1732 1.386 . S
C1733 C1737 1.393 . S
C1734 H1726 0.950 . S
C1734 C1732 1.391 . S
C1734 C1735 1.400 . S
C1735 C1734 1.400 . S
C1735 C1736 1.398 . S
C1735 C1741 1.491 . S
C1736 H1727 0.950 . S
C1736 C1735 1.398 . S
C1736 C1737 1.391 . S
C1737 H1725 0.950 1_556 S
C1737 C1733 1.393 . S
C1737 C1736 1.391 . S
C1738 H1728 0.950 . S
C1738 C1739 1.386 . S
C1738 C1740 1.391 . S
C1739 C1738 1.386 . S
C1739 C1743 1.393 . S
C1740 H1729 0.950 . S
C1740 C1738 1.391 . S
C1740 C1741 1.400 . S
C1741 C1735 1.491 . S
C1741 C1740 1.400 . S
C1741 C1742 1.398 . S
C1742 H1730 0.950 . S
C1742 C1741 1.398 . S
C1742 C1743 1.391 . S
C1743 H1731 0.950 . S
C1743 C1739 1.393 . S
C1743 C1742 1.391 . S
H1744 C1752 0.950 . S
H1745 C1757 0.950 . S
H1746 C1754 0.950 . S
H1747 C1756 0.950 . S
H1748 C1758 0.950 . S
H1749 C1760 0.950 . S
H1750 C1762 0.950 . S
H1751 C1763 0.950 1_554 S
C1752 H1744 0.950 . S
C1752 C1753 1.386 . S
C1752 C1754 1.391 . S
C1753 C1752 1.386 . S
C1753 C1757 1.393 . S
C1754 H1746 0.950 . S
C1754 C1752 1.391 . S
C1754 C1755 1.400 . S
C1755 C1754 1.400 . S
C1755 C1756 1.398 . S
C1755 C1761 1.491 . S
C1756 H1747 0.950 . S
C1756 C1755 1.398 . S
C1756 C1757 1.391 . S
C1757 H1745 0.950 . S
C1757 C1753 1.393 . S
C1757 C1756 1.391 . S
C1758 H1748 0.950 . S
C1758 C1759 1.386 . S
C1758 C1760 1.391 . S
C1759 C1758 1.386 . S
C1759 C1763 1.393 . S
C1760 H1749 0.950 . S
C1760 C1758 1.391 . S
C1760 C1761 1.400 . S
C1761 C1755 1.491 . S
C1761 C1760 1.400 . S
C1761 C1762 1.398 . S
C1762 H1750 0.950 . S
C1762 C1761 1.398 . S
C1762 C1763 1.391 . S
C1763 H1751 0.950 1_556 S
C1763 C1759 1.393 . S
C1763 C1762 1.391 . S
H1764 C1772 0.950 . S
H1765 C1777 0.950 . S
H1766 C1774 0.950 . S
H1767 C1776 0.950 . S
H1768 C1778 0.950 . S
H1769 C1780 0.950 . S
H1770 C1782 0.950 . S
H1771 C1783 0.950 . S
C1772 H1764 0.950 . S
C1772 C1773 1.386 . S
C1772 C1774 1.391 . S
C1773 C1772 1.386 . S
C1773 C1777 1.393 . S
C1774 H1766 0.950 . S
C1774 C1772 1.391 . S
C1774 C1775 1.400 . S
C1775 C1774 1.400 . S
C1775 C1776 1.398 . S
C1775 C1781 1.491 . S
C1776 H1767 0.950 . S
C1776 C1775 1.398 . S
C1776 C1777 1.391 . S
C1777 H1765 0.950 . S
C1777 C1773 1.393 . S
C1777 C1776 1.391 . S
C1778 H1768 0.950 . S
C1778 C1779 1.386 . S
C1778 C1780 1.391 . S
C1779 C1778 1.386 . S
C1779 C1783 1.393 . S
C1780 H1769 0.950 . S
C1780 C1778 1.391 . S
C1780 C1781 1.400 . S
C1781 C1775 1.491 . S
C1781 C1780 1.400 . S
C1781 C1782 1.398 . S
C1782 H1770 0.950 . S
C1782 C1781 1.398 . S
C1782 C1783 1.391 . S
C1783 H1771 0.950 . S
C1783 C1779 1.393 . S
C1783 C1782 1.391 . S
H1784 C1792 0.950 . S
H1785 C1797 0.950 . S
H1786 C1794 0.950 . S
H1787 C1796 0.950 . S
H1788 C1798 0.950 . S
H1789 C1800 0.950 . S
H1790 C1802 0.950 . S
H1791 C1803 0.950 . S
C1792 H1784 0.950 . S
C1792 C1793 1.386 . S
C1792 C1794 1.391 . S
C1793 C1792 1.386 . S
C1793 C1797 1.393 . S
C1794 H1786 0.950 . S
C1794 C1792 1.391 . S
C1794 C1795 1.400 . S
C1795 C1794 1.400 . S
C1795 C1796 1.398 . S
C1795 C1801 1.491 . S
C1796 H1787 0.950 . S
C1796 C1795 1.398 . S
C1796 C1797 1.391 . S
C1797 H1785 0.950 . S
C1797 C1793 1.393 . S
C1797 C1796 1.391 . S
C1798 H1788 0.950 . S
C1798 C1799 1.386 . S
C1798 C1800 1.391 . S
C1799 C1798 1.386 . S
C1799 C1803 1.393 . S
C1800 H1789 0.950 . S
C1800 C1798 1.391 . S
C1800 C1801 1.400 . S
C1801 C1795 1.491 . S
C1801 C1800 1.400 . S
C1801 C1802 1.398 . S
C1802 H1790 0.950 . S
C1802 C1801 1.398 . S
C1802 C1803 1.391 . S
C1803 H1791 0.950 . S
C1803 C1799 1.393 . S
C1803 C1802 1.391 . S
H1804 C1812 0.950 . S
H1805 C1817 0.950 . S
H1806 C1814 0.950 . S
H1807 C1816 0.950 . S
H1808 C1818 0.950 . S
H1809 C1820 0.950 . S
H1810 C1822 0.950 . S
H1811 C1823 0.950 . S
C1812 H1804 0.950 . S
C1812 C1813 1.386 . S
C1812 C1814 1.391 . S
C1813 C1812 1.386 . S
C1813 C1817 1.393 . S
C1814 H1806 0.950 . S
C1814 C1812 1.391 . S
C1814 C1815 1.400 . S
C1815 C1814 1.400 . S
C1815 C1816 1.398 . S
C1815 C1821 1.491 . S
C1816 H1807 0.950 . S
C1816 C1815 1.398 . S
C1816 C1817 1.391 . S
C1817 H1805 0.950 . S
C1817 C1813 1.393 . S
C1817 C1816 1.391 . S
C1818 H1808 0.950 . S
C1818 C1819 1.386 . S
C1818 C1820 1.391 . S
C1819 C1818 1.386 . S
C1819 C1823 1.393 . S
C1820 H1809 0.950 . S
C1820 C1818 1.391 . S
C1820 C1821 1.400 . S
C1821 C1815 1.491 . S
C1821 C1820 1.400 . S
C1821 C1822 1.398 . S
C1822 H1810 0.950 . S
C1822 C1821 1.398 . S
C1822 C1823 1.391 . S
C1823 H1811 0.950 . S
C1823 C1819 1.393 . S
C1823 C1822 1.391 . S
H1824 C1832 0.950 . S
H1825 C1837 0.950 . S
H1826 C1834 0.950 . S
H1827 C1836 0.950 . S
H1828 C1838 0.950 . S
H1829 C1840 0.950 . S
H1830 C1842 0.950 . S
H1831 C1843 0.950 . S
C1832 H1824 0.950 . S
C1832 C1833 1.386 . S
C1832 C1834 1.391 . S
C1833 C1832 1.386 . S
C1833 C1837 1.393 . S
C1834 H1826 0.950 . S
C1834 C1832 1.391 . S
C1834 C1835 1.400 . S
C1835 C1834 1.400 . S
C1835 C1836 1.398 . S
C1835 C1841 1.491 . S
C1836 H1827 0.950 . S
C1836 C1835 1.398 . S
C1836 C1837 1.391 . S
C1837 H1825 0.950 . S
C1837 C1833 1.393 . S
C1837 C1836 1.391 . S
C1838 H1828 0.950 . S
C1838 C1839 1.386 . S
C1838 C1840 1.391 . S
C1839 C1838 1.386 . S
C1839 C1843 1.393 . S
C1840 H1829 0.950 . S
C1840 C1838 1.391 . S
C1840 C1841 1.400 . S
C1841 C1835 1.491 . S
C1841 C1840 1.400 . S
C1841 C1842 1.398 . S
C1842 H1830 0.950 . S
C1842 C1841 1.398 . S
C1842 C1843 1.391 . S
C1843 H1831 0.950 . S
C1843 C1839 1.393 . S
C1843 C1842 1.391 . S
H1844 C1852 0.950 . S
H1845 C1857 0.950 . S
H1846 C1854 0.950 1_565 S
H1847 C1856 0.950 . S
H1848 C1858 0.950 . S
H1849 C1860 0.950 1_545 S
H1850 C1862 0.950 . S
H1851 C1863 0.950 . S
C1852 H1844 0.950 . S
C1852 C1853 1.386 . S
C1852 C1854 1.391 . S
C1853 C1852 1.386 . S
C1853 C1857 1.393 . S
C1854 H1846 0.950 1_545 S
C1854 C1852 1.391 . S
C1854 C1855 1.400 . S
C1855 C1854 1.400 . S
C1855 C1856 1.398 . S
C1855 C1861 1.491 1_545 S
C1856 H1847 0.950 . S
C1856 C1855 1.398 . S
C1856 C1857 1.391 . S
C1857 H1845 0.950 . S
C1857 C1853 1.393 . S
C1857 C1856 1.391 . S
C1858 H1848 0.950 . S
C1858 C1859 1.386 . S
C1858 C1860 1.391 . S
C1859 C1858 1.386 . S
C1859 C1863 1.393 . S
C1860 H1849 0.950 1_565 S
C1860 C1858 1.391 . S
C1860 C1861 1.400 . S
C1861 C1855 1.491 1_565 S
C1861 C1860 1.400 . S
C1861 C1862 1.398 . S
C1862 H1850 0.950 . S
C1862 C1861 1.398 . S
C1862 C1863 1.391 . S
C1863 H1851 0.950 . S
C1863 C1859 1.393 . S
C1863 C1862 1.391 . S
H1864 C1872 0.950 . S
H1865 C1877 0.950 . S
H1866 C1874 0.950 . S
H1867 C1876 0.950 1_455 S
H1868 C1878 0.950 . S
H1869 C1880 0.950 . S
H1870 C1882 0.950 1_655 S
H1871 C1883 0.950 . S
C1872 H1864 0.950 . S
C1872 C1873 1.386 . S
C1872 C1874 1.391 . S
C1873 C1872 1.386 . S
C1873 C1877 1.393 . S
C1874 H1866 0.950 . S
C1874 C1872 1.391 . S
C1874 C1875 1.400 . S
C1875 C1874 1.400 . S
C1875 C1876 1.398 . S
C1875 C1881 1.491 1_655 S
C1876 H1867 0.950 1_655 S
C1876 C1875 1.398 . S
C1876 C1877 1.391 . S
C1877 H1865 0.950 . S
C1877 C1873 1.393 . S
C1877 C1876 1.391 . S
C1878 H1868 0.950 . S
C1878 C1879 1.386 . S
C1878 C1880 1.391 . S
C1879 C1878 1.386 . S
C1879 C1883 1.393 . S
C1880 H1869 0.950 . S
C1880 C1878 1.391 . S
C1880 C1881 1.400 . S
C1881 C1875 1.491 1_455 S
C1881 C1880 1.400 . S
C1881 C1882 1.398 . S
C1882 H1870 0.950 1_455 S
C1882 C1881 1.398 . S
C1882 C1883 1.391 . S
C1883 H1871 0.950 . S
C1883 C1879 1.393 . S
C1883 C1882 1.391 . S
H1884 C1892 0.950 . S
H1885 C1897 0.950 . S
H1886 C1894 0.950 . S
H1887 C1896 0.950 . S
H1888 C1898 0.950 . S
H1889 C1900 0.950 . S
H1890 C1902 0.950 . S
H1891 C1903 0.950 . S
C1892 H1884 0.950 . S
C1892 C1893 1.386 . S
C1892 C1894 1.391 . S
C1893 C1892 1.386 . S
C1893 C1897 1.393 . S
C1894 H1886 0.950 . S
C1894 C1892 1.391 . S
C1894 C1895 1.400 . S
C1895 C1894 1.400 . S
C1895 C1896 1.398 . S
C1895 C1901 1.491 . S
C1896 H1887 0.950 . S
C1896 C1895 1.398 . S
C1896 C1897 1.391 . S
C1897 H1885 0.950 . S
C1897 C1893 1.393 . S
C1897 C1896 1.391 . S
C1898 H1888 0.950 . S
C1898 C1899 1.386 . S
C1898 C1900 1.391 . S
C1899 C1898 1.386 . S
C1899 C1903 1.393 . S
C1900 H1889 0.950 . S
C1900 C1898 1.391 . S
C1900 C1901 1.400 . S
C1901 C1895 1.491 . S
C1901 C1900 1.400 . S
C1901 C1902 1.398 . S
C1902 H1890 0.950 . S
C1902 C1901 1.398 . S
C1902 C1903 1.391 . S
C1903 H1891 0.950 . S
C1903 C1899 1.393 . S
C1903 C1902 1.391 . S
H1904 C1912 0.950 . S
H1905 C1917 0.950 . S
H1906 C1914 0.950 . S
H1907 C1916 0.888 1_565 S
H1908 C1918 0.950 . S
H1909 C1920 0.950 . S
H1910 C1922 0.884 1_545 S
H1911 C1923 0.950 . S
C1912 H1904 0.950 . S
C1912 C1913 1.386 . S
C1912 C1914 1.391 . S
C1913 C1912 1.386 . S
C1913 C1917 1.393 . S
C1914 H1906 0.950 . S
C1914 C1912 1.391 . S
C1914 C1915 1.400 . S
C1915 C1914 1.400 . S
C1915 C1916 1.398 . S
C1915 C1921 1.491 1_545 S
C1916 H1907 0.888 1_545 S
C1916 C1915 1.398 . S
C1916 C1917 1.391 . S
C1917 H1905 0.950 . S
C1917 C1913 1.393 . S
C1917 C1916 1.391 . S
C1918 H1908 0.950 . S
C1918 C1919 1.386 . S
C1918 C1920 1.391 . S
C1919 C1918 1.386 . S
C1919 C1923 1.393 . S
C1920 H1909 0.950 . S
C1920 C1918 1.391 . S
C1920 C1921 1.400 . S
C1921 C1915 1.491 1_565 S
C1921 C1920 1.400 . S
C1921 C1922 1.398 . S
C1922 H1910 0.884 1_565 S
C1922 C1921 1.398 . S
C1922 C1923 1.391 . S
C1923 H1911 0.950 . S
C1923 C1919 1.393 . S
C1923 C1922 1.391 . S
H1924 C1932 0.950 . S
H1925 C1937 0.950 . S
H1926 C1934 0.950 . S
H1927 C1936 0.950 . S
H1928 C1938 0.950 . S
H1929 C1940 0.950 . S
H1930 C1942 0.950 . S
H1931 C1943 0.950 . S
C1932 H1924 0.950 . S
C1932 C1933 1.386 . S
C1932 C1934 1.391 . S
C1933 C1932 1.386 . S
C1933 C1937 1.393 . S
C1934 H1926 0.950 . S
C1934 C1932 1.391 . S
C1934 C1935 1.400 . S
C1935 C1934 1.400 . S
C1935 C1936 1.398 . S
C1935 C1941 1.491 1_455 S
C1936 H1927 0.950 . S
C1936 C1935 1.398 . S
C1936 C1937 1.391 . S
C1937 H1925 0.950 . S
C1937 C1933 1.393 . S
C1937 C1936 1.391 . S
C1938 H1928 0.950 . S
C1938 C1939 1.386 . S
C1938 C1940 1.391 . S
C1939 C1938 1.386 . S
C1939 C1943 1.393 . S
C1940 H1929 0.950 . S
C1940 C1938 1.391 . S
C1940 C1941 1.400 . S
C1941 C1935 1.491 1_655 S
C1941 C1940 1.400 . S
C1941 C1942 1.398 . S
C1942 H1930 0.950 . S
C1942 C1941 1.398 . S
C1942 C1943 1.391 . S
C1943 H1931 0.950 . S
C1943 C1939 1.393 . S
C1943 C1942 1.391 . S
C513 C78 0.665 . S
C519 C8 0.623 . S
C533 C50 0.592 . S
C539 C22 0.579 . S
C553 C36 0.584 . S
C559 C64 0.586 . S
C573 C92 0.641 . S
C579 C162 0.666 . S
C593 C106 0.651 . S
C599 C134 0.596 . S
C613 C148 0.600 . S
C619 C120 0.654 . S
C633 C176 0.650 . S
C639 C246 0.663 . S
C653 C190 0.577 . S
C659 C218 0.596 . S
C673 C232 0.639 . S
C679 C204 0.666 . S
C693 C330 0.660 . S
C699 C260 0.655 . S
C713 C302 0.594 . S
C719 C274 0.649 . S
C733 C288 0.609 . S
C739 C316 0.575 . S
C753 C414 0.585 . S
C759 C344 0.585 . S
C773 C386 0.593 . S
C779 C358 0.579 . S
C793 C372 0.657 . S
C799 C400 0.658 . S
C813 C498 0.629 . S
C819 C428 0.666 . S
C833 C470 0.596 . S
C839 C442 0.651 . S
C853 C484 0.663 . S
C859 C456 0.650 . S
C873 C237 1.200 . S
C879 C13 1.194 . S
C893 C251 1.197 . S
C899 C27 1.197 . S
C913 C223 1.209 . S
C919 C41 1.167 . S
C933 C55 1.209 . S
C939 C377 1.167 . S
C953 C69 1.171 . S
C959 C349 1.212 . S
C973 C83 1.212 . S
C979 C363 1.174 . S
C993 C97 1.212 . S
C999 C489 1.175 . S
C1013 C503 1.211 . S
C1019 C111 1.178 . S
C1033 C475 1.167 . S
C1039 C125 1.210 . S
C1053 C293 1.186 . S
C1059 C139 1.178 . S
C1073 C265 1.170 . S
C1079 C153 1.197 . S
C1093 C167 1.167 . S
C1099 C279 1.208 . S
C1113 C181 1.210 . S
C1119 C405 1.167 . S
C1133 C419 1.168 . S
C1139 C195 1.210 . S
C1153 C391 1.188 . S
C1159 C209 1.205 . S
C1173 C307 1.212 . S
C1179 C461 1.172 . S
C1193 C433 1.167 . S
C1199 C321 1.209 . S
C1213 C335 1.185 . S
C1219 C447 1.207 . S
C1233 C263 1.255 . S
C1239 C11 1.255 . S
C1253 C277 1.262 . S
C1259 C25 1.262 . S
C1273 C39 1.259 . S
C1279 C291 1.259 . S
C1293 C53 1.245 . S
C1299 C473 1.245 . S
C1313 C487 1.249 . S
C1319 C67 1.249 . S
C1333 C501 1.249 . S
C1339 C81 1.249 . S
C1353 C95 1.259 . S
C1359 C347 1.259 . S
C1373 C109 1.242 . S
C1379 C361 1.242 . S
C1393 C375 1.251 . S
C1399 C123 1.251 . S
C1413 C137 1.250 . S
C1419 C221 1.250 . S
C1433 C151 1.260 . S
C1439 C235 1.260 . S
C1453 C249 1.262 . S
C1459 C165 1.262 . S
C1473 C179 1.252 1_655 S
C1479 C431 1.252 1_455 S
C1493 C193 1.250 . S
C1499 C445 1.250 . S
C1513 C459 1.262 1_565 S
C1519 C207 1.262 1_545 S
C1533 C389 1.243 1_565 S
C1539 C305 1.243 1_545 S
C1553 C319 1.266 1_655 S
C1559 C403 1.266 1_455 S
C1573 C333 1.257 . S
C1579 C417 1.257 . S
C1593 C385 1.625 1_554 S
C1599 C7 1.625 . S
C1613 C21 1.631 . S
C1619 C399 1.617 1_554 S
C1633 C413 1.621 1_554 S
C1639 C35 1.625 . S
C1653 C49 1.627 . S
C1659 C175 1.622 . S
C1673 C189 1.617 . S
C1679 C63 1.631 . S
C1693 C203 1.626 . S
C1699 C77 1.620 . S
C1713 C91 1.630 . S
C1719 C301 1.617 1_556 S
C1733 C315 1.618 1_556 S
C1739 C105 1.628 . S
C1753 C119 1.618 . S
C1759 C329 1.631 1_556 S
C1773 C133 1.631 . S
C1779 C427 1.618 . S
C1793 C147 1.619 . S
C1799 C441 1.628 . S
C1813 C455 1.631 . S
C1819 C161 1.619 . S
C1833 C217 1.630 . S
C1839 C343 1.619 . S
C1853 C231 1.617 . S
C1859 C357 1.631 . S
C1873 C245 1.631 . S
C1879 C371 1.618 . S
C1893 C259 1.619 . S
C1899 C469 1.627 . S
C1913 C273 1.621 . S
C1919 C483 1.625 . S
C1933 C497 1.623 . S
C1939 C287 1.623 . S
