# Generated by pormake.
# Topology nfb, (4)-cn, num edge types: 1
# Building blocks:
#     Node 0, Type 0, BuildingBlock: QUQFOY_clean_sbu_1, # of connection points: 4
#     Node 1, Type 0, BuildingBlock: QUQFOY_clean_sbu_1, # of connection points: 4
#     Node 2, Type 0, BuildingBlock: QUQFOY_clean_sbu_1, # of connection points: 4
#     Node 3, Type 0, BuildingBlock: QUQFOY_clean_sbu_1, # of connection points: 4
#     Node 4, Type 0, BuildingBlock: QUQFOY_clean_sbu_1, # of connection points: 4
#     Node 5, Type 0, BuildingBlock: QUQFOY_clean_sbu_1, # of connection points: 4
#     Node 6, Type 0, BuildingBlock: QUQFOY_clean_sbu_1, # of connection points: 4
#     Node 7, Type 0, BuildingBlock: QUQFOY_clean_sbu_1, # of connection points: 4
#     Node 8, Type 0, BuildingBlock: QUQFOY_clean_sbu_1, # of connection points: 4
#     Node 9, Type 0, BuildingBlock: QUQFOY_clean_sbu_1, # of connection points: 4
#     Node 10, Type 0, BuildingBlock: QUQFOY_clean_sbu_1, # of connection points: 4
#     Node 11, Type 0, BuildingBlock: QUQFOY_clean_sbu_1, # of connection points: 4
#     Node 12, Type 0, BuildingBlock: QUQFOY_clean_sbu_1, # of connection points: 4
#     Node 13, Type 0, BuildingBlock: QUQFOY_clean_sbu_1, # of connection points: 4
#     Node 14, Type 0, BuildingBlock: QUQFOY_clean_sbu_1, # of connection points: 4
#     Node 15, Type 0, BuildingBlock: QUQFOY_clean_sbu_1, # of connection points: 4
#     Node 16, Type 0, BuildingBlock: QUQFOY_clean_sbu_1, # of connection points: 4
#     Node 17, Type 0, BuildingBlock: QUQFOY_clean_sbu_1, # of connection points: 4
#     Node 18, Type 0, BuildingBlock: QUQFOY_clean_sbu_1, # of connection points: 4
#     Node 19, Type 0, BuildingBlock: QUQFOY_clean_sbu_1, # of connection points: 4
#     Node 20, Type 0, BuildingBlock: QUQFOY_clean_sbu_1, # of connection points: 4
#     Node 21, Type 0, BuildingBlock: QUQFOY_clean_sbu_1, # of connection points: 4
#     Node 22, Type 0, BuildingBlock: QUQFOY_clean_sbu_1, # of connection points: 4
#     Node 23, Type 0, BuildingBlock: QUQFOY_clean_sbu_1, # of connection points: 4
#     Node 24, Type 0, BuildingBlock: QUQFOY_clean_sbu_1, # of connection points: 4
#     Node 25, Type 0, BuildingBlock: QUQFOY_clean_sbu_1, # of connection points: 4
#     Node 26, Type 0, BuildingBlock: QUQFOY_clean_sbu_1, # of connection points: 4
#     Node 27, Type 0, BuildingBlock: QUQFOY_clean_sbu_1, # of connection points: 4
#     Node 28, Type 0, BuildingBlock: QUQFOY_clean_sbu_1, # of connection points: 4
#     Node 29, Type 0, BuildingBlock: QUQFOY_clean_sbu_1, # of connection points: 4
#     Node 30, Type 0, BuildingBlock: QUQFOY_clean_sbu_1, # of connection points: 4
#     Node 31, Type 0, BuildingBlock: QUQFOY_clean_sbu_1, # of connection points: 4
#     Node 32, Type 0, BuildingBlock: QUQFOY_clean_sbu_1, # of connection points: 4
#     Node 33, Type 0, BuildingBlock: QUQFOY_clean_sbu_1, # of connection points: 4
#     Node 34, Type 0, BuildingBlock: QUQFOY_clean_sbu_1, # of connection points: 4
#     Node 35, Type 0, BuildingBlock: QUQFOY_clean_sbu_1, # of connection points: 4
#     Node 36, Type 0, BuildingBlock: QUQFOY_clean_sbu_1, # of connection points: 4
#     Node 37, Type 0, BuildingBlock: QUQFOY_clean_sbu_1, # of connection points: 4
#     Node 38, Type 0, BuildingBlock: QUQFOY_clean_sbu_1, # of connection points: 4
#     Node 39, Type 0, BuildingBlock: QUQFOY_clean_sbu_1, # of connection points: 4
#     Node 40, Type 0, BuildingBlock: QUQFOY_clean_sbu_1, # of connection points: 4
#     Node 41, Type 0, BuildingBlock: QUQFOY_clean_sbu_1, # of connection points: 4
#     Node 42, Type 0, BuildingBlock: QUQFOY_clean_sbu_1, # of connection points: 4
#     Node 43, Type 0, BuildingBlock: QUQFOY_clean_sbu_1, # of connection points: 4
#     Node 44, Type 0, BuildingBlock: QUQFOY_clean_sbu_1, # of connection points: 4
#     Node 45, Type 0, BuildingBlock: QUQFOY_clean_sbu_1, # of connection points: 4
#     Node 46, Type 0, BuildingBlock: QUQFOY_clean_sbu_1, # of connection points: 4
#     Node 47, Type 0, BuildingBlock: QUQFOY_clean_sbu_1, # of connection points: 4
#     Edge 48, Type (0, 0), BuildingBlock: UVAHIK_clean_linker_0, # of connection points: 2
#     Edge 49, Type (0, 0), BuildingBlock: UVAHIK_clean_linker_0, # of connection points: 2
#     Edge 50, Type (0, 0), BuildingBlock: UVAHIK_clean_linker_0, # of connection points: 2
#     Edge 51, Type (0, 0), BuildingBlock: UVAHIK_clean_linker_0, # of connection points: 2
#     Edge 52, Type (0, 0), BuildingBlock: UVAHIK_clean_linker_0, # of connection points: 2
#     Edge 53, Type (0, 0), BuildingBlock: UVAHIK_clean_linker_0, # of connection points: 2
#     Edge 54, Type (0, 0), BuildingBlock: UVAHIK_clean_linker_0, # of connection points: 2
#     Edge 55, Type (0, 0), BuildingBlock: UVAHIK_clean_linker_0, # of connection points: 2
#     Edge 56, Type (0, 0), BuildingBlock: UVAHIK_clean_linker_0, # of connection points: 2
#     Edge 57, Type (0, 0), BuildingBlock: UVAHIK_clean_linker_0, # of connection points: 2
#     Edge 58, Type (0, 0), BuildingBlock: UVAHIK_clean_linker_0, # of connection points: 2
#     Edge 59, Type (0, 0), BuildingBlock: UVAHIK_clean_linker_0, # of connection points: 2
#     Edge 60, Type (0, 0), BuildingBlock: UVAHIK_clean_linker_0, # of connection points: 2
#     Edge 61, Type (0, 0), BuildingBlock: UVAHIK_clean_linker_0, # of connection points: 2
#     Edge 62, Type (0, 0), BuildingBlock: UVAHIK_clean_linker_0, # of connection points: 2
#     Edge 63, Type (0, 0), BuildingBlock: UVAHIK_clean_linker_0, # of connection points: 2
#     Edge 64, Type (0, 0), BuildingBlock: UVAHIK_clean_linker_0, # of connection points: 2
#     Edge 65, Type (0, 0), BuildingBlock: UVAHIK_clean_linker_0, # of connection points: 2
#     Edge 66, Type (0, 0), BuildingBlock: UVAHIK_clean_linker_0, # of connection points: 2
#     Edge 67, Type (0, 0), BuildingBlock: UVAHIK_clean_linker_0, # of connection points: 2
#     Edge 68, Type (0, 0), BuildingBlock: UVAHIK_clean_linker_0, # of connection points: 2
#     Edge 69, Type (0, 0), BuildingBlock: UVAHIK_clean_linker_0, # of connection points: 2
#     Edge 70, Type (0, 0), BuildingBlock: UVAHIK_clean_linker_0, # of connection points: 2
#     Edge 71, Type (0, 0), BuildingBlock: UVAHIK_clean_linker_0, # of connection points: 2
#     Edge 72, Type (0, 0), BuildingBlock: UVAHIK_clean_linker_0, # of connection points: 2
#     Edge 73, Type (0, 0), BuildingBlock: UVAHIK_clean_linker_0, # of connection points: 2
#     Edge 74, Type (0, 0), BuildingBlock: UVAHIK_clean_linker_0, # of connection points: 2
#     Edge 75, Type (0, 0), BuildingBlock: UVAHIK_clean_linker_0, # of connection points: 2
#     Edge 76, Type (0, 0), BuildingBlock: UVAHIK_clean_linker_0, # of connection points: 2
#     Edge 77, Type (0, 0), BuildingBlock: UVAHIK_clean_linker_0, # of connection points: 2
#     Edge 78, Type (0, 0), BuildingBlock: UVAHIK_clean_linker_0, # of connection points: 2
#     Edge 79, Type (0, 0), BuildingBlock: UVAHIK_clean_linker_0, # of connection points: 2
#     Edge 80, Type (0, 0), BuildingBlock: UVAHIK_clean_linker_0, # of connection points: 2
#     Edge 81, Type (0, 0), BuildingBlock: UVAHIK_clean_linker_0, # of connection points: 2
#     Edge 82, Type (0, 0), BuildingBlock: UVAHIK_clean_linker_0, # of connection points: 2
#     Edge 83, Type (0, 0), BuildingBlock: UVAHIK_clean_linker_0, # of connection points: 2
#     Edge 84, Type (0, 0), BuildingBlock: UVAHIK_clean_linker_0, # of connection points: 2
#     Edge 85, Type (0, 0), BuildingBlock: UVAHIK_clean_linker_0, # of connection points: 2
#     Edge 86, Type (0, 0), BuildingBlock: UVAHIK_clean_linker_0, # of connection points: 2
#     Edge 87, Type (0, 0), BuildingBlock: UVAHIK_clean_linker_0, # of connection points: 2
#     Edge 88, Type (0, 0), BuildingBlock: UVAHIK_clean_linker_0, # of connection points: 2
#     Edge 89, Type (0, 0), BuildingBlock: UVAHIK_clean_linker_0, # of connection points: 2
#     Edge 90, Type (0, 0), BuildingBlock: UVAHIK_clean_linker_0, # of connection points: 2
#     Edge 91, Type (0, 0), BuildingBlock: UVAHIK_clean_linker_0, # of connection points: 2
#     Edge 92, Type (0, 0), BuildingBlock: UVAHIK_clean_linker_0, # of connection points: 2
#     Edge 93, Type (0, 0), BuildingBlock: UVAHIK_clean_linker_0, # of connection points: 2
#     Edge 94, Type (0, 0), BuildingBlock: UVAHIK_clean_linker_0, # of connection points: 2
#     Edge 95, Type (0, 0), BuildingBlock: UVAHIK_clean_linker_0, # of connection points: 2
#     Edge 96, Type (0, 0), BuildingBlock: UVAHIK_clean_linker_0, # of connection points: 2
#     Edge 97, Type (0, 0), BuildingBlock: UVAHIK_clean_linker_0, # of connection points: 2
#     Edge 98, Type (0, 0), BuildingBlock: UVAHIK_clean_linker_0, # of connection points: 2
#     Edge 99, Type (0, 0), BuildingBlock: UVAHIK_clean_linker_0, # of connection points: 2
#     Edge 100, Type (0, 0), BuildingBlock: UVAHIK_clean_linker_0, # of connection points: 2
#     Edge 101, Type (0, 0), BuildingBlock: UVAHIK_clean_linker_0, # of connection points: 2
#     Edge 102, Type (0, 0), BuildingBlock: UVAHIK_clean_linker_0, # of connection points: 2
#     Edge 103, Type (0, 0), BuildingBlock: UVAHIK_clean_linker_0, # of connection points: 2
#     Edge 104, Type (0, 0), BuildingBlock: UVAHIK_clean_linker_0, # of connection points: 2
#     Edge 105, Type (0, 0), BuildingBlock: UVAHIK_clean_linker_0, # of connection points: 2
#     Edge 106, Type (0, 0), BuildingBlock: UVAHIK_clean_linker_0, # of connection points: 2
#     Edge 107, Type (0, 0), BuildingBlock: UVAHIK_clean_linker_0, # of connection points: 2
#     Edge 108, Type (0, 0), BuildingBlock: UVAHIK_clean_linker_0, # of connection points: 2
#     Edge 109, Type (0, 0), BuildingBlock: UVAHIK_clean_linker_0, # of connection points: 2
#     Edge 110, Type (0, 0), BuildingBlock: UVAHIK_clean_linker_0, # of connection points: 2
#     Edge 111, Type (0, 0), BuildingBlock: UVAHIK_clean_linker_0, # of connection points: 2
#     Edge 112, Type (0, 0), BuildingBlock: UVAHIK_clean_linker_0, # of connection points: 2
#     Edge 113, Type (0, 0), BuildingBlock: UVAHIK_clean_linker_0, # of connection points: 2
#     Edge 114, Type (0, 0), BuildingBlock: UVAHIK_clean_linker_0, # of connection points: 2
#     Edge 115, Type (0, 0), BuildingBlock: UVAHIK_clean_linker_0, # of connection points: 2
#     Edge 116, Type (0, 0), BuildingBlock: UVAHIK_clean_linker_0, # of connection points: 2
#     Edge 117, Type (0, 0), BuildingBlock: UVAHIK_clean_linker_0, # of connection points: 2
#     Edge 118, Type (0, 0), BuildingBlock: UVAHIK_clean_linker_0, # of connection points: 2
#     Edge 119, Type (0, 0), BuildingBlock: UVAHIK_clean_linker_0, # of connection points: 2
#     Edge 120, Type (0, 0), BuildingBlock: UVAHIK_clean_linker_0, # of connection points: 2
#     Edge 121, Type (0, 0), BuildingBlock: UVAHIK_clean_linker_0, # of connection points: 2
#     Edge 122, Type (0, 0), BuildingBlock: UVAHIK_clean_linker_0, # of connection points: 2
#     Edge 123, Type (0, 0), BuildingBlock: UVAHIK_clean_linker_0, # of connection points: 2
#     Edge 124, Type (0, 0), BuildingBlock: UVAHIK_clean_linker_0, # of connection points: 2
#     Edge 125, Type (0, 0), BuildingBlock: UVAHIK_clean_linker_0, # of connection points: 2
#     Edge 126, Type (0, 0), BuildingBlock: UVAHIK_clean_linker_0, # of connection points: 2
#     Edge 127, Type (0, 0), BuildingBlock: UVAHIK_clean_linker_0, # of connection points: 2
#     Edge 128, Type (0, 0), BuildingBlock: UVAHIK_clean_linker_0, # of connection points: 2
#     Edge 129, Type (0, 0), BuildingBlock: UVAHIK_clean_linker_0, # of connection points: 2
#     Edge 130, Type (0, 0), BuildingBlock: UVAHIK_clean_linker_0, # of connection points: 2
#     Edge 131, Type (0, 0), BuildingBlock: UVAHIK_clean_linker_0, # of connection points: 2
#     Edge 132, Type (0, 0), BuildingBlock: UVAHIK_clean_linker_0, # of connection points: 2
#     Edge 133, Type (0, 0), BuildingBlock: UVAHIK_clean_linker_0, # of connection points: 2
#     Edge 134, Type (0, 0), BuildingBlock: UVAHIK_clean_linker_0, # of connection points: 2
#     Edge 135, Type (0, 0), BuildingBlock: UVAHIK_clean_linker_0, # of connection points: 2
#     Edge 136, Type (0, 0), BuildingBlock: UVAHIK_clean_linker_0, # of connection points: 2
#     Edge 137, Type (0, 0), BuildingBlock: UVAHIK_clean_linker_0, # of connection points: 2
#     Edge 138, Type (0, 0), BuildingBlock: UVAHIK_clean_linker_0, # of connection points: 2
#     Edge 139, Type (0, 0), BuildingBlock: UVAHIK_clean_linker_0, # of connection points: 2
#     Edge 140, Type (0, 0), BuildingBlock: UVAHIK_clean_linker_0, # of connection points: 2
#     Edge 141, Type (0, 0), BuildingBlock: UVAHIK_clean_linker_0, # of connection points: 2
#     Edge 142, Type (0, 0), BuildingBlock: UVAHIK_clean_linker_0, # of connection points: 2
#     Edge 143, Type (0, 0), BuildingBlock: UVAHIK_clean_linker_0, # of connection points: 2
# Relax obj value: 0.335
# Max RMSD: 0.152
# Mean RMSD: 0.118
data_MOF--net-nfb--node1-QUQFOY_clean_sbu_1--edge1-UVAHIK_clean_linker_0
_symmetry_space_group_name_H-M    P1
_symmetry_Int_Tables_number       1
_symmetry_cell_setting            triclinic
loop_
_symmetry_equiv_pos_as_xyz
'x, y, z'
_cell_length_a     77.23158
_cell_length_b     77.452421
_cell_length_c     77.378552
_cell_angle_alpha  91.209349
_cell_angle_beta   91.239063
_cell_angle_gamma 95.077445
loop_
_atom_site_label
_atom_site_type_symbol
_atom_site_fract_x
_atom_site_fract_y
_atom_site_fract_z
_atom_type_partial_charge
O0 O 0.10672 0.13253 0.38859 0.0
Cd1 Cd 0.13205 0.14033 0.39619 0.0
Cd2 Cd 0.13656 0.11098 0.3796 0.0
O3 O 0.11153 0.11299 0.36852 0.0
O4 O 0.13077 0.16374 0.40703 0.0
O5 O 0.14404 0.1595 0.38246 0.0
C6 C 0.13919 0.17009 0.39409 0.0
C7 C 0.16547 0.11724 0.37079 0.0
C8 C 0.10103 0.12221 0.37633 0.0
C9 C 0.1422 0.11046 0.41649 0.0
O10 O 0.13601 0.10092 0.40392 0.0
O11 O 0.14425 0.12682 0.41507 0.0
O12 O 0.1572 0.10224 0.36732 0.0
O13 O 0.15671 0.12907 0.37739 0.0
O14 O 0.39031 0.66021 0.89591 0.0
Cd15 Cd 0.38565 0.63576 0.90562 0.0
Cd16 Cd 0.38353 0.62768 0.87172 0.0
O17 O 0.39106 0.65431 0.86793 0.0
O18 O 0.39152 0.64053 0.93053 0.0
O19 O 0.40502 0.62215 0.91458 0.0
C20 C 0.40335 0.6299 0.92927 0.0
C21 C 0.39655 0.60171 0.86642 0.0
C22 C 0.39202 0.66536 0.88052 0.0
C23 C 0.35078 0.62195 0.89145 0.0
O24 O 0.35763 0.62287 0.87668 0.0
O25 O 0.35997 0.62558 0.90509 0.0
O26 O 0.38916 0.60953 0.85401 0.0
O27 O 0.39819 0.60967 0.88132 0.0
O28 O 0.91632 0.89377 0.39152 0.0
Cd29 Cd 0.8932 0.88745 0.4038 0.0
Cd30 Cd 0.88515 0.91517 0.38595 0.0
O31 O 0.90887 0.91331 0.37313 0.0
O32 O 0.90019 0.86821 0.41817 0.0
O33 O 0.87939 0.86452 0.3981 0.0
C34 C 0.88865 0.85801 0.40997 0.0
C35 C 0.85577 0.9068 0.37839 0.0
C36 C 0.92024 0.9039 0.37922 0.0
C37 C 0.88517 0.92 0.42313 0.0
O38 O 0.88763 0.92842 0.40938 0.0
O39 O 0.88503 0.90359 0.42285 0.0
O40 O 0.86322 0.92162 0.37389 0.0
O41 O 0.86549 0.89606 0.38553 0.0
O42 O 0.64122 0.36236 0.90077 0.0
Cd43 Cd 0.64314 0.38793 0.90866 0.0
Cd44 Cd 0.64143 0.39144 0.87485 0.0
O45 O 0.63327 0.36448 0.87346 0.0
O46 O 0.64044 0.38552 0.93402 0.0
O47 O 0.62224 0.39896 0.91782 0.0
C48 C 0.62657 0.39352 0.93279 0.0
C49 C 0.62772 0.41703 0.87024 0.0
C50 C 0.63654 0.3551 0.88635 0.0
C51 C 0.6757 0.40127 0.89234 0.0
O52 O 0.66792 0.39658 0.87814 0.0
O53 O 0.66744 0.40079 0.90638 0.0
O54 O 0.63329 0.40829 0.85736 0.0
O55 O 0.62825 0.41018 0.88531 0.0
O56 O 0.1936 0.90054 0.62477 0.0
Cd57 Cd 0.16756 0.89803 0.618 0.0
Cd58 Cd 0.16567 0.90091 0.6522 0.0
O59 O 0.19255 0.90915 0.65201 0.0
O60 O 0.16832 0.89889 0.59231 0.0
O61 O 0.15597 0.91821 0.60812 0.0
C62 C 0.16025 0.91272 0.5931 0.0
C63 C 0.14005 0.91488 0.65575 0.0
C64 C 0.20143 0.90573 0.63879 0.0
C65 C 0.1544 0.86654 0.63689 0.0
O66 O 0.16047 0.87444 0.65056 0.0
O67 O 0.15413 0.8744 0.62264 0.0
O68 O 0.14895 0.91046 0.66907 0.0
O69 O 0.14677 0.91307 0.64074 0.0
O70 O 0.60788 0.64661 0.11157 0.0
Cd71 Cd 0.61844 0.64843 0.13624 0.0
Cd72 Cd 0.64821 0.64158 0.12139 0.0
O73 O 0.63405 0.64955 0.10063 0.0
O74 O 0.6097 0.66963 0.14783 0.0
O75 O 0.6366 0.66877 0.13894 0.0
C76 C 0.62468 0.6778 0.14491 0.0
C77 C 0.67801 0.65009 0.12147 0.0
C78 C 0.61765 0.64941 0.09876 0.0
C79 C 0.63006 0.61332 0.14319 0.0
O80 O 0.64138 0.61779 0.13206 0.0
O81 O 0.61983 0.62431 0.14854 0.0
O82 O 0.67108 0.63812 0.11107 0.0
O83 O 0.66798 0.65735 0.13199 0.0
O84 O 0.84778 0.12386 0.62636 0.0
Cd85 Cd 0.87346 0.12532 0.61953 0.0
Cd86 Cd 0.87667 0.12435 0.6537 0.0
O87 O 0.84971 0.11636 0.65358 0.0
O88 O 0.871 0.1236 0.59389 0.0
O89 O 0.88371 0.10434 0.60917 0.0
C90 C 0.87856 0.10945 0.59433 0.0
C91 C 0.90243 0.11049 0.65703 0.0
C92 C 0.8404 0.1194 0.6403 0.0
C93 C 0.88814 0.15756 0.63813 0.0
O94 O 0.88211 0.15068 0.65176 0.0
O95 O 0.88788 0.14877 0.62405 0.0
O96 O 0.89443 0.11578 0.67042 0.0
O97 O 0.8947 0.11128 0.64213 0.0
O98 O 0.41744 0.38042 0.11477 0.0
Cd99 Cd 0.40659 0.38024 0.13874 0.0
Cd100 Cd 0.37804 0.38907 0.12214 0.0
O101 O 0.39161 0.37935 0.10192 0.0
O102 O 0.41395 0.35905 0.15091 0.0
O103 O 0.38746 0.3609 0.14018 0.0
C104 C 0.39871 0.35148 0.14694 0.0
C105 C 0.3479 0.38318 0.12234 0.0
C106 C 0.40789 0.37812 0.10121 0.0
C107 C 0.39757 0.41661 0.14532 0.0
O108 O 0.38634 0.41284 0.1333 0.0
O109 O 0.40675 0.40496 0.15116 0.0
O110 O 0.35528 0.3936 0.11143 0.0
O111 O 0.35772 0.37551 0.13285 0.0
O112 O 0.39397 0.10496 0.13401 0.0
Cd113 Cd 0.40499 0.12951 0.14032 0.0
Cd114 Cd 0.38546 0.13656 0.11263 0.0
O115 O 0.37348 0.111 0.11536 0.0
O116 O 0.41713 0.12602 0.16288 0.0
O117 O 0.39499 0.14203 0.16031 0.0
C118 C 0.40621 0.13537 0.1701 0.0
C119 C 0.3776 0.16447 0.12066 0.0
C120 C 0.38086 0.09995 0.12439 0.0
C121 C 0.42321 0.14089 0.10817 0.0
O122 O 0.40877 0.13751 0.1001 0.0
O123 O 0.42403 0.14052 0.1246 0.0
O124 O 0.3725 0.15736 0.1059 0.0
O125 O 0.38563 0.15511 0.13123 0.0
O126 O 0.39687 0.90847 0.64598 0.0
Cd127 Cd 0.42269 0.9162 0.64296 0.0
Cd128 Cd 0.42377 0.88363 0.6378 0.0
O129 O 0.39705 0.88427 0.63057 0.0
O130 O 0.42356 0.94179 0.64056 0.0
O131 O 0.4289 0.92395 0.619 0.0
C132 C 0.42687 0.93946 0.62447 0.0
C133 C 0.44961 0.8802 0.62292 0.0
C134 C 0.38858 0.89558 0.63821 0.0
C135 C 0.43627 0.89792 0.67184 0.0
O136 O 0.42839 0.88473 0.66414 0.0
O137 O 0.43849 0.91217 0.66399 0.0
O138 O 0.4395 0.8668 0.6272 0.0
O139 O 0.44402 0.89527 0.6254 0.0
O140 O 0.62814 0.92346 0.13332 0.0
Cd141 Cd 0.61653 0.89958 0.13962 0.0
Cd142 Cd 0.63455 0.89111 0.11216 0.0
O143 O 0.64731 0.91655 0.11428 0.0
O144 O 0.60547 0.90634 0.1614 0.0
O145 O 0.62568 0.88786 0.16055 0.0
C146 C 0.61564 0.89681 0.1695 0.0
C147 C 0.64256 0.8634 0.11986 0.0
C148 C 0.64069 0.928 0.1236 0.0
C149 C 0.59642 0.88742 0.10762 0.0
O150 O 0.6106 0.88993 0.09965 0.0
O151 O 0.5963 0.88864 0.12404 0.0
O152 O 0.64661 0.86987 0.10503 0.0
O153 O 0.63554 0.87332 0.1308 0.0
O154 O 0.64503 0.11676 0.64488 0.0
Cd155 Cd 0.61892 0.10923 0.64189 0.0
Cd156 Cd 0.61833 0.14155 0.63795 0.0
O157 O 0.64443 0.14062 0.63005 0.0
O158 O 0.61793 0.08357 0.63995 0.0
O159 O 0.61138 0.09996 0.61808 0.0
C160 C 0.61371 0.08482 0.62387 0.0
C161 C 0.59156 0.14502 0.62381 0.0
C162 C 0.65312 0.12937 0.63738 0.0
C163 C 0.6082 0.12782 0.67175 0.0
O164 O 0.61608 0.14067 0.66441 0.0
O165 O 0.60434 0.1138 0.66315 0.0
O166 O 0.60205 0.15838 0.62845 0.0
O167 O 0.59712 0.12989 0.6256 0.0
O168 O 0.38683 0.88881 0.85271 0.0
Cd169 Cd 0.37582 0.88609 0.87658 0.0
Cd170 Cd 0.40798 0.8796 0.88764 0.0
O171 O 0.41329 0.88492 0.8622 0.0
O172 O 0.35839 0.90396 0.87912 0.0
O173 O 0.38367 0.90576 0.8933 0.0
C174 C 0.36967 0.91288 0.88911 0.0
C175 C 0.43144 0.88828 0.90638 0.0
C176 C 0.40291 0.88808 0.84994 0.0
C177 C 0.37974 0.84988 0.88885 0.0
O178 O 0.39533 0.85577 0.89222 0.0
O179 O 0.36885 0.8599 0.88291 0.0
O180 O 0.43132 0.87481 0.89642 0.0
O181 O 0.41793 0.89694 0.90613 0.0
O182 O 0.60974 0.89803 0.38961 0.0
Cd183 Cd 0.63362 0.91041 0.38421 0.0
Cd184 Cd 0.64197 0.89121 0.41081 0.0
O185 O 0.61668 0.8782 0.40788 0.0
O186 O 0.62682 0.92267 0.36315 0.0
O187 O 0.64576 0.90289 0.36283 0.0
C188 C 0.63666 0.91329 0.35449 0.0
C189 C 0.6699 0.88394 0.40291 0.0
C190 C 0.60524 0.88502 0.39871 0.0
C191 C 0.64485 0.92899 0.41729 0.0
O192 O 0.64255 0.91441 0.4245 0.0
O193 O 0.64388 0.92995 0.40092 0.0
O194 O 0.66336 0.87916 0.4175 0.0
O195 O 0.65997 0.89135 0.39226 0.0
O196 O 0.6523 0.12982 0.85939 0.0
Cd197 Cd 0.65567 0.13342 0.88574 0.0
Cd198 Cd 0.6225 0.13292 0.88449 0.0
O199 O 0.62562 0.11817 0.86253 0.0
O200 O 0.67364 0.11783 0.89421 0.0
O201 O 0.64548 0.11265 0.89852 0.0
C202 C 0.66087 0.10735 0.89937 0.0
C203 C 0.59873 0.1256 0.90165 0.0
C204 C 0.63868 0.12139 0.85307 0.0
C205 C 0.6426 0.16784 0.8883 0.0
O206 O 0.62887 0.15917 0.88256 0.0
O207 O 0.65538 0.1598 0.89371 0.0
O208 O 0.59684 0.13095 0.88616 0.0
O209 O 0.61421 0.12408 0.9076 0.0
O210 O 0.4138 0.12939 0.38929 0.0
Cd211 Cd 0.39035 0.1164 0.38175 0.0
Cd212 Cd 0.37999 0.13426 0.40897 0.0
O213 O 0.4048 0.14818 0.40824 0.0
O214 O 0.39619 0.10561 0.35924 0.0
O215 O 0.37768 0.12565 0.36144 0.0
C216 C 0.38613 0.11573 0.35178 0.0
C217 C 0.35171 0.14087 0.40073 0.0
C218 C 0.41702 0.14232 0.39957 0.0
C219 C 0.37909 0.09648 0.41287 0.0
O220 O 0.38023 0.11091 0.4211 0.0
O221 O 0.38068 0.09597 0.39654 0.0
O222 O 0.35827 0.14547 0.41585 0.0
O223 O 0.36177 0.13401 0.38993 0.0
O224 O 0.10218 0.41355 0.1559 0.0
Cd225 Cd 0.11296 0.39009 0.15673 0.0
Cd226 Cd 0.13931 0.40905 0.14608 0.0
O227 O 0.1279 0.42783 0.15998 0.0
O228 O 0.10476 0.37796 0.17854 0.0
O229 O 0.13143 0.39012 0.1756 0.0
C230 C 0.11986 0.38278 0.18549 0.0
C231 C 0.169 0.40593 0.14773 0.0
C232 C 0.11142 0.42749 0.15993 0.0
C233 C 0.11914 0.38667 0.11949 0.0
O234 O 0.12776 0.40117 0.12266 0.0
O235 O 0.11378 0.37734 0.1321 0.0
O236 O 0.16308 0.41882 0.13995 0.0
O237 O 0.15808 0.39519 0.15528 0.0
O238 O 0.13052 0.62202 0.83143 0.0
Cd239 Cd 0.13311 0.61352 0.85637 0.0
Cd240 Cd 0.14003 0.64819 0.86223 0.0
O241 O 0.13301 0.6504 0.83577 0.0
O242 O 0.12471 0.58837 0.85454 0.0
O243 O 0.11306 0.60689 0.87192 0.0
C244 C 0.11361 0.59121 0.86622 0.0
C245 C 0.12667 0.65382 0.8886 0.0
C246 C 0.13087 0.63722 0.82544 0.0
C247 C 0.16925 0.62655 0.86872 0.0
O248 O 0.16501 0.64184 0.86645 0.0
O249 O 0.15812 0.61358 0.86631 0.0
O250 O 0.13532 0.6662 0.88062 0.0
O251 O 0.12404 0.63899 0.88061 0.0
O252 O 0.87953 0.6651 0.41541 0.0
Cd253 Cd 0.88094 0.63893 0.4125 0.0
Cd254 Cd 0.91444 0.64824 0.41167 0.0
O255 O 0.9068 0.66992 0.4245 0.0
O256 O 0.86421 0.62675 0.42924 0.0
O257 O 0.89275 0.62929 0.43307 0.0
C258 C 0.87761 0.62489 0.43918 0.0
C259 C 0.93944 0.63498 0.41946 0.0
C260 C 0.89179 0.6752 0.42218 0.0
C261 C 0.89613 0.63812 0.3776 0.0
O262 O 0.90885 0.64657 0.38555 0.0
O263 O 0.88351 0.63114 0.38626 0.0
O264 O 0.94041 0.65037 0.41332 0.0
O265 O 0.92423 0.62738 0.42201 0.0
O266 O 0.89837 0.39302 0.84762 0.0
Cd267 Cd 0.89457 0.40247 0.87209 0.0
Cd268 Cd 0.88701 0.36842 0.87708 0.0
O269 O 0.89505 0.36479 0.85122 0.0
O270 O 0.90164 0.42736 0.86845 0.0
O271 O 0.91409 0.41231 0.88837 0.0
C272 C 0.91294 0.42685 0.88081 0.0
C273 C 0.89939 0.36374 0.90457 0.0
C274 C 0.89808 0.37771 0.84135 0.0
C275 C 0.85775 0.39046 0.88075 0.0
O276 O 0.86186 0.375 0.87904 0.0
O277 O 0.86919 0.40316 0.87943 0.0
O278 O 0.89097 0.35115 0.89577 0.0
O279 O 0.90237 0.37836 0.89693 0.0
O280 O 0.13476 0.38561 0.43307 0.0
Cd281 Cd 0.12164 0.37864 0.41034 0.0
Cd282 Cd 0.13735 0.40959 0.40038 0.0
O283 O 0.15085 0.40885 0.42472 0.0
O284 O 0.11303 0.35359 0.41265 0.0
O285 O 0.13274 0.36278 0.39391 0.0
C286 C 0.1236 0.35008 0.40068 0.0
C287 C 0.14497 0.40517 0.3712 0.0
C288 C 0.14633 0.398 0.43645 0.0
C289 C 0.099 0.40755 0.40336 0.0
O290 O 0.11279 0.41766 0.40219 0.0
O291 O 0.09978 0.39134 0.40519 0.0
O292 O 0.14824 0.4202 0.37878 0.0
O293 O 0.13906 0.39256 0.38064 0.0
O294 O 0.88613 0.63836 0.18264 0.0
Cd295 Cd 0.88452 0.6312 0.15698 0.0
Cd296 Cd 0.89656 0.66363 0.15451 0.0
O297 O 0.90462 0.66153 0.18086 0.0
O298 O 0.88055 0.60546 0.15793 0.0
O299 O 0.90399 0.619 0.1468 0.0
C300 C 0.89551 0.60469 0.15105 0.0
C301 C 0.91077 0.66507 0.12776 0.0
C302 C 0.89606 0.65033 0.19006 0.0
C303 C 0.85991 0.65508 0.14419 0.0
O304 O 0.87052 0.66687 0.15107 0.0
O305 O 0.86412 0.63961 0.14281 0.0
O306 O 0.90985 0.67891 0.13727 0.0
O307 O 0.90539 0.65044 0.13434 0.0
O308 O 0.89259 0.37324 0.5924 0.0
Cd309 Cd 0.90848 0.36943 0.61328 0.0
Cd310 Cd 0.89323 0.39685 0.62636 0.0
O311 O 0.87894 0.39512 0.60242 0.0
O312 O 0.91851 0.34732 0.60698 0.0
O313 O 0.9026 0.35031 0.63001 0.0
C314 C 0.91139 0.34061 0.62045 0.0
C315 C 0.88556 0.38973 0.65496 0.0
C316 C 0.88172 0.38443 0.59015 0.0
C317 C 0.93114 0.40268 0.62077 0.0
O318 O 0.91767 0.40987 0.62508 0.0
O319 O 0.9301 0.3867 0.61642 0.0
O320 O 0.88242 0.4045 0.64861 0.0
O321 O 0.89148 0.37851 0.64456 0.0
O322 O 0.13315 0.6477 0.57846 0.0
Cd323 Cd 0.12371 0.65429 0.60216 0.0
Cd324 Cd 0.13762 0.6246 0.61073 0.0
O325 O 0.14877 0.6264 0.58588 0.0
O326 O 0.11491 0.67747 0.59874 0.0
O327 O 0.13664 0.67319 0.61675 0.0
C328 C 0.12643 0.68366 0.61005 0.0
C329 C 0.14806 0.63098 0.63922 0.0
C330 C 0.14361 0.63658 0.57441 0.0
C331 C 0.1004 0.62342 0.61449 0.0
O332 O 0.11243 0.61365 0.61161 0.0
O333 O 0.10307 0.6397 0.61259 0.0
O334 O 0.15028 0.61624 0.63177 0.0
O335 O 0.14195 0.64268 0.62977 0.0
O336 O 0.95163 0.90285 0.62829 0.0
Cd337 Cd 0.92855 0.89305 0.61674 0.0
Cd338 Cd 0.91755 0.89723 0.64948 0.0
O339 O 0.94231 0.91111 0.6537 0.0
O340 O 0.93235 0.89483 0.59127 0.0
O341 O 0.91391 0.90988 0.60528 0.0
C342 C 0.92119 0.90627 0.59101 0.0
C343 C 0.8887 0.90495 0.64695 0.0
C344 C 0.95466 0.91018 0.64302 0.0
C345 C 0.91762 0.86102 0.63635 0.0
O346 O 0.91794 0.87084 0.64974 0.0
O347 O 0.91995 0.86745 0.62147 0.0
O348 O 0.89586 0.90325 0.66203 0.0
O349 O 0.89851 0.9041 0.63374 0.0
O350 O 0.60241 0.39929 0.11199 0.0
Cd351 Cd 0.61493 0.39847 0.13579 0.0
Cd352 Cd 0.64318 0.39735 0.11735 0.0
O353 O 0.62708 0.40881 0.10032 0.0
O354 O 0.60555 0.41643 0.15178 0.0
O355 O 0.63136 0.41993 0.13998 0.0
C356 C 0.61939 0.42651 0.14872 0.0
C357 C 0.6728 0.40664 0.11783 0.0
C358 C 0.6106 0.40627 0.0995 0.0
C359 C 0.62955 0.36411 0.13423 0.0
O360 O 0.63824 0.37134 0.12218 0.0
O361 O 0.62026 0.37324 0.14368 0.0
O362 O 0.66546 0.39802 0.10484 0.0
O363 O 0.66319 0.41049 0.13053 0.0
O364 O 0.08987 0.11839 0.62566 0.0
Cd365 Cd 0.11103 0.12908 0.61276 0.0
Cd366 Cd 0.12412 0.13315 0.64592 0.0
O367 O 0.10021 0.11945 0.65256 0.0
O368 O 0.10571 0.12234 0.58796 0.0
O369 O 0.12854 0.11441 0.60243 0.0
C370 C 0.11956 0.11421 0.58822 0.0
C371 C 0.15316 0.12579 0.64523 0.0
C372 C 0.08772 0.11556 0.64162 0.0
C373 C 0.11932 0.16554 0.62672 0.0
O374 O 0.12244 0.15899 0.64127 0.0
O375 O 0.11534 0.15583 0.6135 0.0
O376 O 0.14664 0.13084 0.65956 0.0
O377 O 0.14268 0.12329 0.63204 0.0
O378 O 0.42378 0.63125 0.11118 0.0
Cd379 Cd 0.40891 0.63154 0.13304 0.0
Cd380 Cd 0.38225 0.63175 0.11046 0.0
O381 O 0.4007 0.62161 0.09529 0.0
O382 O 0.41666 0.61391 0.15006 0.0
O383 O 0.39276 0.60973 0.13378 0.0
C384 C 0.40361 0.60352 0.14441 0.0
C385 C 0.35313 0.62129 0.10591 0.0
C386 C 0.41709 0.62446 0.09722 0.0
C387 C 0.39299 0.66515 0.13086 0.0
O388 O 0.38539 0.65768 0.11763 0.0
O389 O 0.40208 0.65644 0.14092 0.0
O390 O 0.36131 0.63101 0.0949 0.0
O391 O 0.36166 0.61695 0.11941 0.0
O392 O 0.85983 0.13147 0.40576 0.0
Cd393 Cd 0.88605 0.13513 0.41155 0.0
Cd394 Cd 0.88561 0.10704 0.39071 0.0
O395 O 0.86036 0.11354 0.38331 0.0
O396 O 0.88862 0.15765 0.42484 0.0
O397 O 0.89983 0.15407 0.39912 0.0
C398 C 0.89713 0.16418 0.41205 0.0
C399 C 0.91307 0.11152 0.37783 0.0
C400 C 0.85195 0.1232 0.39312 0.0
C401 C 0.89418 0.10161 0.42705 0.0
O402 O 0.88707 0.09401 0.41365 0.0
O403 O 0.89696 0.11805 0.4277 0.0
O404 O 0.90269 0.09791 0.3738 0.0
O405 O 0.90711 0.12313 0.38771 0.0
O406 O 0.39929 0.41548 0.89572 0.0
Cd407 Cd 0.39161 0.39409 0.90971 0.0
Cd408 Cd 0.38254 0.38095 0.87812 0.0
O409 O 0.39478 0.40476 0.86921 0.0
O410 O 0.40069 0.40151 0.9332 0.0
O411 O 0.40892 0.37849 0.91943 0.0
C412 C 0.41 0.38853 0.93297 0.0
C413 C 0.38993 0.35192 0.87815 0.0
C414 C 0.39971 0.41751 0.87949 0.0
C415 C 0.35345 0.38575 0.90165 0.0
O416 O 0.35753 0.38286 0.88609 0.0
O417 O 0.36522 0.38932 0.91324 0.0
O418 O 0.38333 0.35832 0.86442 0.0
O419 O 0.39394 0.36249 0.89105 0.0
O420 O 0.16151 0.89086 0.40084 0.0
Cd421 Cd 0.1355 0.88713 0.40638 0.0
Cd422 Cd 0.13503 0.91589 0.38816 0.0
O423 O 0.15993 0.90968 0.38001 0.0
O424 O 0.13306 0.86401 0.41751 0.0
O425 O 0.12097 0.86901 0.39217 0.0
C426 C 0.12393 0.85826 0.40414 0.0
C427 C 0.10691 0.91255 0.37512 0.0
C428 C 0.16881 0.89969 0.38892 0.0
C429 C 0.12866 0.91992 0.42506 0.0
O430 O 0.13498 0.92799 0.41218 0.0
O431 O 0.12571 0.9035 0.42432 0.0
O432 O 0.1174 0.92612 0.37228 0.0
O433 O 0.11304 0.90035 0.38385 0.0
O434 O 0.63284 0.60705 0.88985 0.0
Cd435 Cd 0.64125 0.6307 0.901 0.0
Cd436 Cd 0.64023 0.63954 0.86777 0.0
O437 O 0.62673 0.61468 0.86325 0.0
O438 O 0.63939 0.62562 0.92604 0.0
O439 O 0.62385 0.6444 0.91313 0.0
C440 C 0.62761 0.63636 0.92693 0.0
C441 C 0.63213 0.66828 0.87013 0.0
C442 C 0.62689 0.60303 0.87473 0.0
C443 C 0.67506 0.64059 0.88394 0.0
O444 O 0.66671 0.63882 0.86959 0.0
O445 O 0.66704 0.63979 0.89813 0.0
O446 O 0.63466 0.6613 0.85514 0.0
O447 O 0.63242 0.65836 0.88332 0.0
O448 O 0.66572 0.8858 0.85847 0.0
Cd449 Cd 0.65902 0.88509 0.88419 0.0
Cd450 Cd 0.63173 0.89632 0.87149 0.0
O451 O 0.63816 0.88195 0.8503 0.0
O452 O 0.66801 0.86351 0.89423 0.0
O453 O 0.64031 0.86564 0.88771 0.0
C454 C 0.6524 0.85602 0.89226 0.0
C455 C 0.60366 0.89675 0.88146 0.0
C456 C 0.65414 0.88168 0.84682 0.0
C457 C 0.65676 0.9224 0.8892 0.0
O458 O 0.6464 0.91935 0.87635 0.0
O459 O 0.66198 0.90964 0.89751 0.0
O460 O 0.60826 0.9042 0.86733 0.0
O461 O 0.61472 0.88799 0.88941 0.0
O462 O 0.65666 0.11506 0.38192 0.0
Cd463 Cd 0.63087 0.10552 0.38076 0.0
Cd464 Cd 0.63032 0.1288 0.4072 0.0
O465 O 0.6558 0.13746 0.39983 0.0
O466 O 0.63042 0.09081 0.35917 0.0
O467 O 0.61465 0.11308 0.36216 0.0
C468 C 0.61964 0.10074 0.35257 0.0
C469 C 0.60309 0.13996 0.40301 0.0
C470 C 0.66437 0.12822 0.3898 0.0
C471 C 0.62449 0.09193 0.41631 0.0
O472 O 0.62932 0.10708 0.42222 0.0
O473 O 0.62249 0.08907 0.4001 0.0
O474 O 0.6134 0.14563 0.4157 0.0
O475 O 0.60895 0.12924 0.39205 0.0
O476 O 0.36695 0.13313 0.85993 0.0
Cd477 Cd 0.36895 0.13514 0.88639 0.0
Cd478 Cd 0.40078 0.12585 0.88195 0.0
O479 O 0.39531 0.13336 0.85713 0.0
O480 O 0.35783 0.15671 0.89404 0.0
O481 O 0.38626 0.15519 0.89359 0.0
C482 C 0.37333 0.16458 0.89534 0.0
C483 C 0.42916 0.13001 0.8932 0.0
C484 C 0.38021 0.13409 0.85045 0.0
C485 C 0.3746 0.09915 0.89697 0.0
O486 O 0.38904 0.10264 0.88977 0.0
O487 O 0.3642 0.11099 0.89888 0.0
O488 O 0.42497 0.11943 0.88045 0.0
O489 O 0.41739 0.13926 0.89903 0.0
O490 O 0.36453 0.90884 0.37988 0.0
Cd491 Cd 0.39061 0.91731 0.37916 0.0
Cd492 Cd 0.39118 0.8948 0.40513 0.0
O493 O 0.36533 0.88654 0.39705 0.0
O494 O 0.39155 0.93219 0.35833 0.0
O495 O 0.40537 0.90855 0.36024 0.0
C496 C 0.40131 0.92151 0.3513 0.0
C497 C 0.41818 0.8832 0.40124 0.0
C498 C 0.3567 0.89597 0.38725 0.0
C499 C 0.39844 0.93168 0.41499 0.0
O500 O 0.39289 0.91694 0.42054 0.0
O501 O 0.40051 0.93387 0.3989 0.0
O502 O 0.40834 0.87833 0.41391 0.0
O503 O 0.41194 0.89334 0.39011 0.0
O504 O 0.61849 0.16872 0.14436 0.0
Cd505 Cd 0.60867 0.14305 0.14521 0.0
Cd506 Cd 0.62953 0.14162 0.11759 0.0
O507 O 0.63869 0.16744 0.12477 0.0
O508 O 0.59542 0.14316 0.16712 0.0
O509 O 0.61691 0.12664 0.16295 0.0
C510 C 0.60518 0.13186 0.17291 0.0
C511 C 0.64127 0.11463 0.12081 0.0
C512 C 0.63063 0.17625 0.13568 0.0
C513 C 0.5918 0.13545 0.11015 0.0
O514 O 0.60641 0.13985 0.10355 0.0
O515 O 0.59042 0.13438 0.12645 0.0
O516 O 0.64528 0.1243 0.10778 0.0
O517 O 0.63197 0.12103 0.13261 0.0
O518 O 0.40078 0.12378 0.62743 0.0
Cd519 Cd 0.37621 0.11316 0.6328 0.0
Cd520 Cd 0.36969 0.14565 0.63068 0.0
O521 O 0.39397 0.14913 0.61827 0.0
O522 O 0.37873 0.08787 0.63239 0.0
O523 O 0.36328 0.10041 0.61264 0.0
C524 C 0.3695 0.08665 0.61831 0.0
C525 C 0.34017 0.14331 0.6219 0.0
C526 C 0.40524 0.13817 0.6205 0.0
C527 C 0.36841 0.13185 0.66536 0.0
O528 O 0.37178 0.1457 0.65712 0.0
O529 O 0.3672 0.11725 0.65738 0.0
O530 O 0.34875 0.15836 0.62418 0.0
O531 O 0.34891 0.12985 0.62253 0.0
O532 O 0.40415 0.86073 0.14118 0.0
Cd533 Cd 0.41303 0.88668 0.14243 0.0
Cd534 Cd 0.39079 0.88672 0.11501 0.0
O535 O 0.38235 0.86116 0.12233 0.0
O536 O 0.42731 0.88858 0.1644 0.0
O537 O 0.40394 0.90258 0.16038 0.0
C538 C 0.41659 0.89892 0.17037 0.0
C539 C 0.37892 0.91371 0.11841 0.0
C540 C 0.39138 0.8528 0.1328 0.0
C541 C 0.42793 0.89356 0.10744 0.0
O542 O 0.41317 0.88815 0.10088 0.0
O543 O 0.43 0.89565 0.12372 0.0
O544 O 0.37422 0.9034 0.10543 0.0
O545 O 0.38903 0.90796 0.13005 0.0
O546 O 0.64093 0.89749 0.63068 0.0
Cd547 Cd 0.66575 0.90749 0.63738 0.0
Cd548 Cd 0.67209 0.87572 0.62896 0.0
O549 O 0.64743 0.87422 0.6161 0.0
O550 O 0.67759 0.92138 0.61856 0.0
O551 O 0.66377 0.93289 0.64009 0.0
C552 C 0.67191 0.93483 0.6258 0.0
C553 C 0.70141 0.87989 0.62082 0.0
C554 C 0.63623 0.88451 0.62082 0.0
C555 C 0.67467 0.8845 0.66577 0.0
O556 O 0.67045 0.87215 0.65501 0.0
O557 O 0.67627 0.90008 0.66071 0.0
O558 O 0.69326 0.86452 0.62038 0.0
O559 O 0.69236 0.89278 0.62395 0.0
O560 O 0.89865 0.63644 0.93958 0.0
Cd561 Cd 0.89039 0.62401 0.91677 0.0
Cd562 Cd 0.8962 0.65621 0.90597 0.0
O563 O 0.90992 0.6614 0.9299 0.0
O564 O 0.88912 0.59952 0.92418 0.0
O565 O 0.90712 0.60986 0.90427 0.0
C566 C 0.90151 0.59715 0.91376 0.0
C567 C 0.9042 0.65278 0.87683 0.0
C568 C 0.90717 0.65104 0.94241 0.0
C569 C 0.85976 0.64227 0.90573 0.0
O570 O 0.86966 0.65621 0.90758 0.0
O571 O 0.86594 0.62763 0.9068 0.0
O572 O 0.90359 0.66806 0.8838 0.0
O573 O 0.90225 0.63971 0.88694 0.0
O574 O 0.90173 0.39292 0.09359 0.0
Cd575 Cd 0.89354 0.40637 0.11459 0.0
Cd576 Cd 0.88514 0.3739 0.12543 0.0
O577 O 0.89673 0.36601 0.10219 0.0
O578 O 0.90166 0.43037 0.10813 0.0
O579 O 0.90981 0.41881 0.13254 0.0
C580 C 0.9104 0.4319 0.12249 0.0
C581 C 0.89332 0.37379 0.155 0.0
C582 C 0.90193 0.37675 0.09065 0.0
C583 C 0.85557 0.39511 0.11976 0.0
O584 O 0.85988 0.37991 0.12238 0.0
O585 O 0.86712 0.40745 0.11711 0.0
O586 O 0.88673 0.35977 0.14706 0.0
O587 O 0.89701 0.38724 0.1457 0.0
O588 O 0.12421 0.38117 0.6762 0.0
Cd589 Cd 0.11832 0.37779 0.65013 0.0
Cd590 Cd 0.13865 0.40755 0.64946 0.0
O591 O 0.14599 0.40152 0.67508 0.0
O592 O 0.10541 0.35426 0.64827 0.0
O593 O 0.13089 0.36053 0.63646 0.0
C594 C 0.11809 0.34924 0.63948 0.0
C595 C 0.15174 0.40548 0.62221 0.0
C596 C 0.13641 0.39074 0.68383 0.0
C597 C 0.10211 0.41029 0.64095 0.0
O598 O 0.11552 0.41876 0.6476 0.0
O599 O 0.10161 0.39392 0.63884 0.0
O600 O 0.15535 0.41898 0.63223 0.0
O601 O 0.14224 0.39264 0.62845 0.0
O602 O 0.12357 0.62602 0.07699 0.0
Cd603 Cd 0.13162 0.6138 0.09881 0.0
Cd604 Cd 0.14226 0.64744 0.10839 0.0
O605 O 0.12906 0.65348 0.08535 0.0
O606 O 0.12109 0.5892 0.09646 0.0
O607 O 0.11536 0.60686 0.11792 0.0
C608 C 0.11327 0.59167 0.11073 0.0
C609 C 0.13591 0.64906 0.1381 0.0
C610 C 0.1235 0.64208 0.07385 0.0
C611 C 0.17018 0.62421 0.10289 0.0
O612 O 0.16663 0.63989 0.10415 0.0
O613 O 0.15812 0.61189 0.10202 0.0
O614 O 0.14258 0.66263 0.13032 0.0
O615 O 0.13146 0.63542 0.12865 0.0
O616 O 0.88337 0.66767 0.65736 0.0
Cd617 Cd 0.88093 0.64127 0.66035 0.0
Cd618 Cd 0.9139 0.64288 0.65116 0.0
O619 O 0.91198 0.66868 0.65755 0.0
O620 O 0.86812 0.63539 0.68256 0.0
O621 O 0.89643 0.63468 0.67995 0.0
C622 C 0.88314 0.63378 0.68983 0.0
C623 C 0.9394 0.63042 0.65861 0.0
C624 C 0.89811 0.67639 0.65777 0.0
C625 C 0.88742 0.62763 0.62459 0.0
O626 O 0.90283 0.63416 0.6279 0.0
O627 O 0.87612 0.62719 0.6365 0.0
O628 O 0.93932 0.64264 0.64762 0.0
O629 O 0.925 0.62524 0.66572 0.0
O630 O 0.10551 0.41377 0.90661 0.0
Cd631 Cd 0.11596 0.39022 0.90624 0.0
Cd632 Cd 0.14541 0.41011 0.90539 0.0
O633 O 0.13 0.42778 0.91629 0.0
O634 O 0.10315 0.37445 0.92338 0.0
O635 O 0.12986 0.38652 0.92797 0.0
C636 C 0.11641 0.37764 0.93385 0.0
C637 C 0.1739 0.40797 0.91539 0.0
C638 C 0.11375 0.42738 0.91311 0.0
C639 C 0.13261 0.39158 0.872 0.0
O640 O 0.14171 0.40425 0.87934 0.0
O641 O 0.12225 0.38181 0.88103 0.0
O642 O 0.16974 0.4213 0.90709 0.0
O643 O 0.16171 0.39612 0.91866 0.0
O644 O 0.12403 0.6474 0.3301 0.0
Cd645 Cd 0.11318 0.64919 0.35392 0.0
Cd646 Cd 0.13272 0.62215 0.36096 0.0
O647 O 0.14121 0.6266 0.33522 0.0
O648 O 0.10069 0.67064 0.35336 0.0
O649 O 0.12318 0.66765 0.37086 0.0
C650 C 0.11135 0.67705 0.36533 0.0
C651 C 0.14655 0.62748 0.38828 0.0
C652 C 0.13521 0.63749 0.32493 0.0
C653 C 0.09469 0.61463 0.36363 0.0
O654 O 0.10912 0.60793 0.3637 0.0
O655 O 0.09397 0.63058 0.36052 0.0
O656 O 0.14911 0.61378 0.37915 0.0
O657 O 0.13781 0.63894 0.38102 0.0
O658 O 0.89818 0.37665 0.3495 0.0
Cd659 Cd 0.90566 0.37418 0.37507 0.0
Cd660 Cd 0.88881 0.40345 0.37811 0.0
O661 O 0.88093 0.39782 0.35203 0.0
O662 O 0.91837 0.3529 0.37489 0.0
O663 O 0.89393 0.35482 0.38883 0.0
C664 C 0.90656 0.34587 0.38463 0.0
C665 C 0.87559 0.3982 0.405 0.0
C666 C 0.8878 0.38655 0.34267 0.0
C667 C 0.92565 0.40834 0.38642 0.0
O668 O 0.9131 0.41652 0.38117 0.0
O669 O 0.92425 0.39187 0.38641 0.0
O670 O 0.87311 0.41209 0.39659 0.0
O671 O 0.88396 0.38668 0.39729 0.0
C672 C 0.11343 0.31854 0.39954 0.0
C673 C 0.12598 0.33202 0.39559 0.0
C674 C 0.11639 0.30131 0.39595 0.0
C675 C 0.15076 0.27354 0.39518 0.0
H676 H 0.11788 0.24013 0.37105 0.0
C677 C 0.1423 0.20002 0.40683 0.0
C678 C 0.14208 0.18897 0.3922 0.0
C679 C 0.14304 0.21794 0.40498 0.0
C680 C 0.12726 0.24939 0.37762 0.0
H681 H 0.15127 0.33816 0.38446 0.0
H682 H 0.15665 0.30793 0.37873 0.0
H683 H 0.11288 0.27098 0.37137 0.0
H684 H 0.14287 0.18788 0.3642 0.0
H685 H 0.14354 0.21938 0.36097 0.0
H686 H 0.16457 0.25182 0.40232 0.0
C687 C 0.14447 0.31078 0.38437 0.0
C688 C 0.12436 0.26693 0.37787 0.0
C689 C 0.14135 0.32802 0.38761 0.0
C690 C 0.14313 0.19615 0.37569 0.0
C691 C 0.14344 0.21409 0.37382 0.0
C692 C 0.15346 0.25595 0.39524 0.0
C693 C 0.13208 0.29731 0.38868 0.0
C694 C 0.13598 0.27908 0.38684 0.0
C695 C 0.14319 0.22506 0.38846 0.0
C696 C 0.14161 0.24375 0.38664 0.0
H697 H 0.10145 0.32128 0.40565 0.0
H698 H 0.10672 0.29108 0.39949 0.0
H699 H 0.1598 0.28271 0.40228 0.0
H700 H 0.14153 0.19478 0.41969 0.0
H701 H 0.14271 0.2262 0.41642 0.0
C702 C 0.32191 0.61277 0.87748 0.0
C703 C 0.3318 0.61767 0.89252 0.0
C704 C 0.30383 0.61055 0.87793 0.0
C705 C 0.26796 0.62614 0.90189 0.0
H706 H 0.24043 0.59289 0.8721 0.0
C707 C 0.19189 0.60706 0.87771 0.0
C708 C 0.18722 0.62382 0.8743 0.0
C709 C 0.20893 0.60448 0.88274 0.0
C710 C 0.24786 0.6021 0.88071 0.0
H711 H 0.33051 0.62321 0.92005 0.0
H712 H 0.29878 0.61922 0.92083 0.0
H713 H 0.27142 0.59024 0.87635 0.0
H714 H 0.19672 0.65104 0.87373 0.0
H715 H 0.22646 0.64646 0.88217 0.0
H716 H 0.24444 0.6381 0.90613 0.0
C717 C 0.30509 0.61732 0.90866 0.0
C718 C 0.26565 0.60067 0.88301 0.0
C719 C 0.32324 0.61951 0.90821 0.0
C720 C 0.19988 0.63794 0.87626 0.0
C721 C 0.2169 0.63535 0.88126 0.0
C722 C 0.25017 0.62755 0.89962 0.0
C723 C 0.29519 0.61315 0.89344 0.0
C724 C 0.27597 0.61296 0.89323 0.0
C725 C 0.22165 0.61858 0.88445 0.0
C726 C 0.24002 0.61582 0.88863 0.0
H727 H 0.32808 0.61117 0.86518 0.0
H728 H 0.2966 0.60755 0.86593 0.0
H729 H 0.27557 0.6359 0.90977 0.0
H730 H 0.18243 0.59592 0.87645 0.0
H731 H 0.21215 0.59142 0.88528 0.0
C732 C 0.87395 0.82796 0.40542 0.0
C733 C 0.8867 0.83938 0.41388 0.0
C734 C 0.87297 0.8102 0.40867 0.0
C735 C 0.90072 0.77705 0.42207 0.0
H736 H 0.85778 0.74876 0.43 0.0
C737 C 0.90181 0.70462 0.43452 0.0
C738 C 0.88908 0.69359 0.4256 0.0
C739 C 0.90026 0.72243 0.43569 0.0
C740 C 0.86987 0.75646 0.42768 0.0
H741 H 0.90806 0.84124 0.43276 0.0
H742 H 0.90638 0.81038 0.43827 0.0
H743 H 0.85722 0.77999 0.42628 0.0
H744 H 0.86431 0.69245 0.41163 0.0
H745 H 0.86188 0.72347 0.4132 0.0
H746 H 0.91337 0.7537 0.4228 0.0
C747 C 0.89723 0.8151 0.42908 0.0
C748 C 0.86952 0.77432 0.42556 0.0
C749 C 0.89814 0.83279 0.42594 0.0
C750 C 0.87435 0.7006 0.41861 0.0
C751 C 0.8729 0.71842 0.41959 0.0
C752 C 0.90105 0.75924 0.424 0.0
C753 C 0.88482 0.80361 0.42032 0.0
C754 C 0.88495 0.78474 0.42274 0.0
C755 C 0.88606 0.72961 0.42776 0.0
C756 C 0.88564 0.7487 0.4268 0.0
H757 H 0.86493 0.83269 0.3961 0.0
H758 H 0.86333 0.80156 0.40169 0.0
H759 H 0.91278 0.78476 0.41964 0.0
H760 H 0.91321 0.69957 0.44021 0.0
H761 H 0.91042 0.73063 0.44244 0.0
C762 C 0.83475 0.41091 0.88482 0.0
C763 C 0.83956 0.39382 0.88411 0.0
C764 C 0.8175 0.41413 0.88753 0.0
C765 C 0.77866 0.41554 0.88107 0.0
H766 H 0.75053 0.38897 0.91381 0.0
C767 C 0.70394 0.40639 0.87725 0.0
C768 C 0.69474 0.40559 0.89273 0.0
C769 C 0.72209 0.40801 0.87761 0.0
C770 C 0.75827 0.39669 0.90479 0.0
H771 H 0.83007 0.36671 0.88602 0.0
H772 H 0.79994 0.37237 0.89066 0.0
H773 H 0.78153 0.3854 0.91228 0.0
H774 H 0.69738 0.40689 0.92073 0.0
H775 H 0.7291 0.40975 0.9213 0.0
H776 H 0.75533 0.42664 0.87341 0.0
C777 C 0.80956 0.38327 0.88925 0.0
C778 C 0.77596 0.39448 0.90378 0.0
C779 C 0.8268 0.38004 0.88647 0.0
C780 C 0.70407 0.40738 0.90857 0.0
C781 C 0.72223 0.40892 0.90892 0.0
C782 C 0.76094 0.41768 0.88202 0.0
C783 C 0.80472 0.40034 0.88967 0.0
C784 C 0.78627 0.40368 0.89172 0.0
C785 C 0.73141 0.40882 0.89344 0.0
C786 C 0.75051 0.40808 0.89371 0.0
H787 H 0.84426 0.42184 0.88312 0.0
H788 H 0.81417 0.42743 0.88796 0.0
H789 H 0.78626 0.42273 0.87157 0.0
H790 H 0.69716 0.40511 0.86484 0.0
H791 H 0.72879 0.40776 0.86547 0.0
C792 C 0.13786 0.70824 0.62977 0.0
C793 C 0.12779 0.70217 0.61519 0.0
C794 C 0.13909 0.7258 0.6346 0.0
C795 C 0.11836 0.7667 0.62713 0.0
H796 H 0.16356 0.78836 0.64204 0.0
C797 C 0.13891 0.8398 0.62326 0.0
C798 C 0.1485 0.84789 0.63729 0.0
C799 C 0.13457 0.82192 0.62295 0.0
C800 C 0.15079 0.78244 0.63816 0.0
H801 H 0.11113 0.70966 0.59424 0.0
H802 H 0.11374 0.74031 0.60227 0.0
H803 H 0.15973 0.75714 0.63679 0.0
H804 H 0.16059 0.84369 0.66225 0.0
H805 H 0.1532 0.81233 0.66153 0.0
H806 H 0.10973 0.79225 0.62777 0.0
C807 C 0.12031 0.73151 0.61029 0.0
C808 C 0.14857 0.76454 0.63518 0.0
C809 C 0.11894 0.71395 0.60558 0.0
C810 C 0.1532 0.83782 0.65125 0.0
C811 C 0.14905 0.81989 0.65083 0.0
C812 C 0.12065 0.78463 0.62993 0.0
C813 C 0.13042 0.73766 0.62484 0.0
C814 C 0.13239 0.75648 0.62937 0.0
C815 C 0.1399 0.81177 0.63656 0.0
C816 C 0.13695 0.79267 0.63524 0.0
H817 H 0.1447 0.69942 0.63752 0.0
H818 H 0.14678 0.73004 0.64602 0.0
H819 H 0.10563 0.76088 0.62303 0.0
H820 H 0.13503 0.84723 0.61235 0.0
H821 H 0.12763 0.81595 0.61173 0.0
C822 C 0.70769 0.64528 0.11148 0.0
C823 C 0.69691 0.65497 0.1215 0.0
C824 C 0.72566 0.64921 0.11201 0.0
C825 C 0.76066 0.67005 0.14021 0.0
H826 H 0.78863 0.66164 0.10036 0.0
C827 C 0.83556 0.67435 0.14455 0.0
C828 C 0.84234 0.6591 0.13864 0.0
C829 C 0.81833 0.67731 0.14064 0.0
C830 C 0.78096 0.66412 0.11156 0.0
H831 H 0.69641 0.67677 0.13947 0.0
H832 H 0.72788 0.68386 0.14017 0.0
H833 H 0.7571 0.66102 0.09686 0.0
H834 H 0.83672 0.63543 0.12328 0.0
H835 H 0.80673 0.64069 0.11632 0.0
H836 H 0.78457 0.6729 0.15492 0.0
C837 C 0.72244 0.67301 0.13215 0.0
C838 C 0.76292 0.6637 0.1096 0.0
C839 C 0.70442 0.66899 0.13171 0.0
C840 C 0.83183 0.64725 0.1281 0.0
C841 C 0.81471 0.65032 0.12401 0.0
C842 C 0.77872 0.67066 0.14213 0.0
C843 C 0.73329 0.66302 0.12245 0.0
C844 C 0.75252 0.66611 0.124 0.0
C845 C 0.8077 0.66519 0.13053 0.0
C846 C 0.78898 0.66721 0.12792 0.0
H847 H 0.70231 0.63436 0.1035 0.0
H848 H 0.73359 0.64101 0.10463 0.0
H849 H 0.75307 0.67177 0.15162 0.0
H850 H 0.84335 0.68373 0.15268 0.0
H851 H 0.81323 0.68891 0.14575 0.0
C852 C 0.89068 0.18719 0.65201 0.0
C853 C 0.89464 0.17607 0.63835 0.0
C854 C 0.89536 0.205 0.65133 0.0
C855 C 0.90519 0.23861 0.61918 0.0
H856 H 0.91774 0.26804 0.65949 0.0
C857 C 0.92155 0.31171 0.61313 0.0
C858 C 0.91274 0.32221 0.62437 0.0
C859 C 0.92172 0.29401 0.61597 0.0
C860 C 0.9142 0.25994 0.64815 0.0
H861 H 0.90758 0.1747 0.61381 0.0
H862 H 0.91614 0.20565 0.61285 0.0
H863 H 0.91422 0.23653 0.6624 0.0
H864 H 0.89787 0.32257 0.64782 0.0
H865 H 0.89812 0.29151 0.65273 0.0
H866 H 0.90506 0.26193 0.60495 0.0
C867 C 0.90895 0.20073 0.62383 0.0
C868 C 0.91215 0.24194 0.64981 0.0
C869 C 0.90412 0.18298 0.62442 0.0
C870 C 0.9047 0.31478 0.6389 0.0
C871 C 0.90493 0.29704 0.64177 0.0
C872 C 0.90735 0.25654 0.61752 0.0
C873 C 0.90423 0.21202 0.63705 0.0
C874 C 0.9075 0.23107 0.63534 0.0
C875 C 0.91314 0.28644 0.63012 0.0
C876 C 0.91176 0.26739 0.63199 0.0
H877 H 0.88338 0.18225 0.66292 0.0
H878 H 0.89137 0.21333 0.66165 0.0
H879 H 0.90119 0.2307 0.60784 0.0
H880 H 0.92799 0.31707 0.60189 0.0
H881 H 0.92835 0.28617 0.60692 0.0
C882 C 0.3186 0.39093 0.11286 0.0
C883 C 0.32878 0.38124 0.12357 0.0
C884 C 0.30077 0.3909 0.11528 0.0
C885 C 0.26204 0.38408 0.11828 0.0
H886 H 0.24736 0.38861 0.16567 0.0
C887 C 0.1984 0.41229 0.13544 0.0
C888 C 0.18752 0.40277 0.14681 0.0
C889 C 0.21538 0.40807 0.13302 0.0
C890 C 0.25126 0.38717 0.15239 0.0
H891 H 0.32816 0.36322 0.14467 0.0
H892 H 0.29684 0.3629 0.14871 0.0
H893 H 0.27733 0.38294 0.15991 0.0
H894 H 0.18608 0.38185 0.16508 0.0
H895 H 0.21598 0.3747 0.16102 0.0
H896 H 0.23613 0.38897 0.1108 0.0
C897 C 0.30274 0.3708 0.13866 0.0
C898 C 0.26838 0.38382 0.14907 0.0
C899 C 0.32065 0.37089 0.13627 0.0
C900 C 0.19417 0.3894 0.15622 0.0
C901 C 0.21125 0.38531 0.15392 0.0
C902 C 0.24502 0.38759 0.1216 0.0
C903 C 0.29267 0.38108 0.1284 0.0
C904 C 0.27404 0.38257 0.13196 0.0
C905 C 0.22187 0.39439 0.14203 0.0
C906 C 0.23957 0.38947 0.13867 0.0
H907 H 0.32447 0.39907 0.10298 0.0
H908 H 0.29349 0.39917 0.10731 0.0
H909 H 0.26588 0.38283 0.10496 0.0
H910 H 0.19367 0.42266 0.12801 0.0
H911 H 0.22341 0.41545 0.12397 0.0
C912 C 0.39309 0.14661 0.19692 0.0
C913 C 0.4056 0.13709 0.1891 0.0
C914 C 0.39105 0.14634 0.21481 0.0
C915 C 0.38114 0.13233 0.24994 0.0
H916 H 0.42019 0.1303 0.28195 0.0
C917 C 0.37554 0.12892 0.3247 0.0
C918 C 0.38576 0.11716 0.3328 0.0
C919 C 0.37713 0.13203 0.30704 0.0
C920 C 0.40916 0.13075 0.27313 0.0
H921 H 0.42627 0.12046 0.19392 0.0
H922 H 0.42258 0.11979 0.22499 0.0
H923 H 0.42551 0.13625 0.25164 0.0
H924 H 0.40499 0.09879 0.32862 0.0
H925 H 0.40772 0.1042 0.29788 0.0
H926 H 0.36482 0.12683 0.27157 0.0
C927 C 0.41446 0.12763 0.21741 0.0
C928 C 0.4122 0.13416 0.25578 0.0
C929 C 0.41653 0.12795 0.19956 0.0
C930 C 0.39699 0.10799 0.32279 0.0
C931 C 0.39867 0.11118 0.30522 0.0
C932 C 0.3781 0.12904 0.26735 0.0
C933 C 0.40147 0.13653 0.2252 0.0
C934 C 0.39823 0.13468 0.24393 0.0
C935 C 0.38907 0.12351 0.29727 0.0
C936 C 0.3921 0.1279 0.27902 0.0
H937 H 0.38453 0.15385 0.18919 0.0
H938 H 0.38113 0.15356 0.22047 0.0
H939 H 0.37008 0.13242 0.2411 0.0
H940 H 0.36675 0.13617 0.33209 0.0
H941 H 0.36958 0.1416 0.30121 0.0
C942 C 0.43715 0.88182 0.69946 0.0
C943 C 0.44038 0.89737 0.69057 0.0
C944 C 0.43763 0.88187 0.7175 0.0
C945 C 0.42917 0.91095 0.75321 0.0
H946 H 0.44256 0.87333 0.78144 0.0
C947 C 0.39873 0.8954 0.81883 0.0
C948 C 0.40966 0.89072 0.83236 0.0
C949 C 0.40508 0.89757 0.80218 0.0
C950 C 0.43894 0.88405 0.77378 0.0
H951 H 0.44811 0.92492 0.69361 0.0
H952 H 0.44902 0.92494 0.72514 0.0
H953 H 0.45097 0.87457 0.75121 0.0
H954 H 0.43592 0.88482 0.83904 0.0
H955 H 0.44695 0.88859 0.80995 0.0
H956 H 0.41687 0.92027 0.77566 0.0
C957 C 0.44584 0.91278 0.71813 0.0
C958 C 0.44366 0.88469 0.75646 0.0
C959 C 0.44542 0.91274 0.70007 0.0
C960 C 0.42713 0.8884 0.82891 0.0
C961 C 0.43345 0.89048 0.81224 0.0
C962 C 0.4244 0.91028 0.77049 0.0
C963 C 0.44134 0.89746 0.72702 0.0
C964 C 0.43854 0.89797 0.74591 0.0
C965 C 0.42248 0.89504 0.7987 0.0
C966 C 0.42893 0.89663 0.78085 0.0
H967 H 0.43334 0.86974 0.69253 0.0
H968 H 0.43402 0.86985 0.72396 0.0
H969 H 0.42485 0.92125 0.74538 0.0
H970 H 0.38522 0.89729 0.82104 0.0
H971 H 0.39625 0.90087 0.79194 0.0
C972 C 0.62163 0.88367 0.19806 0.0
C973 C 0.61709 0.89781 0.18846 0.0
C974 C 0.62385 0.8853 0.21604 0.0
C975 C 0.6159 0.91533 0.25317 0.0
H976 H 0.648 0.88785 0.27707 0.0
C977 C 0.62028 0.91632 0.32705 0.0
C978 C 0.63586 0.91307 0.33549 0.0
C979 C 0.61852 0.91454 0.30915 0.0
C980 C 0.63923 0.89591 0.27061 0.0
H981 H 0.6119 0.92481 0.18978 0.0
H982 H 0.61691 0.9281 0.22065 0.0
H983 H 0.64418 0.88468 0.24597 0.0
H984 H 0.66203 0.9059 0.33197 0.0
H985 H 0.6595 0.90407 0.30043 0.0
H986 H 0.61199 0.92761 0.27742 0.0
C987 C 0.61781 0.91542 0.21477 0.0
C988 C 0.63672 0.89379 0.25271 0.0
C989 C 0.61503 0.9136 0.19698 0.0
C990 C 0.64988 0.90848 0.32569 0.0
C991 C 0.64831 0.90723 0.30764 0.0
C992 C 0.61883 0.91785 0.27089 0.0
C993 C 0.62214 0.90128 0.22464 0.0
C994 C 0.62491 0.90339 0.24374 0.0
C995 C 0.6325 0.91004 0.29912 0.0
C996 C 0.63033 0.908 0.27997 0.0
H997 H 0.62332 0.87136 0.19169 0.0
H998 H 0.62684 0.874 0.22313 0.0
H999 H 0.60639 0.92274 0.24696 0.0
H1000 H 0.60915 0.91954 0.33435 0.0
H1001 H 0.60595 0.91628 0.30332 0.0
C1002 C 0.62287 0.10664 0.82755 0.0
C1003 C 0.63692 0.11769 0.8343 0.0
C1004 C 0.61941 0.10552 0.80975 0.0
C1005 C 0.63766 0.11853 0.76717 0.0
H1006 H 0.58899 0.11826 0.75343 0.0
C1007 C 0.61654 0.14085 0.70079 0.0
C1008 C 0.60683 0.12792 0.69076 0.0
C1009 C 0.61872 0.13897 0.71855 0.0
C1010 C 0.6026 0.11826 0.75714 0.0
H1011 H 0.65887 0.13554 0.82767 0.0
H1012 H 0.65259 0.13404 0.79682 0.0
H1013 H 0.59694 0.11468 0.7838 0.0
H1014 H 0.59048 0.1037 0.69172 0.0
H1015 H 0.59394 0.10072 0.72302 0.0
H1016 H 0.64323 0.12292 0.74056 0.0
C1017 C 0.6444 0.12592 0.80511 0.0
C1018 C 0.6072 0.11605 0.77447 0.0
C1019 C 0.64799 0.12684 0.82286 0.0
C1020 C 0.59811 0.11383 0.69909 0.0
C1021 C 0.60008 0.1121 0.71696 0.0
C1022 C 0.63306 0.12105 0.74994 0.0
C1023 C 0.62979 0.1156 0.79836 0.0
C1024 C 0.62481 0.11636 0.77973 0.0
C1025 C 0.61097 0.12431 0.72666 0.0
C1026 C 0.61553 0.12113 0.74484 0.0
H1027 H 0.61419 0.0993 0.83606 0.0
H1028 H 0.60832 0.09709 0.80498 0.0
H1029 H 0.65131 0.11845 0.77063 0.0
H1030 H 0.6234 0.15189 0.6948 0.0
H1031 H 0.62701 0.14864 0.72588 0.0
C1032 C 0.9147 0.8307 0.62382 0.0
C1033 C 0.9145 0.84203 0.63824 0.0
C1034 C 0.91199 0.81276 0.62581 0.0
C1035 C 0.89399 0.77946 0.65566 0.0
H1036 H 0.92419 0.74992 0.63182 0.0
C1037 C 0.8842 0.70438 0.65573 0.0
C1038 C 0.89928 0.69555 0.65724 0.0
C1039 C 0.88545 0.72234 0.65368 0.0
C1040 C 0.91573 0.75801 0.63865 0.0
H1041 H 0.91111 0.84338 0.66601 0.0
H1042 H 0.90655 0.81219 0.66943 0.0
H1043 H 0.92735 0.78109 0.62738 0.0
H1044 H 0.9275 0.69877 0.65842 0.0
H1045 H 0.92964 0.73003 0.65506 0.0
H1046 H 0.88263 0.7564 0.66723 0.0
C1047 C 0.90861 0.81715 0.65658 0.0
C1048 C 0.91739 0.77584 0.63593 0.0
C1049 C 0.91135 0.83504 0.65462 0.0
C1050 C 0.91561 0.70513 0.65719 0.0
C1051 C 0.91686 0.72305 0.65513 0.0
C1052 C 0.89231 0.76162 0.65835 0.0
C1053 C 0.90897 0.80581 0.64222 0.0
C1054 C 0.90663 0.78678 0.64451 0.0
C1055 C 0.90181 0.73182 0.65309 0.0
C1056 C 0.90326 0.75072 0.64999 0.0
H1057 H 0.91703 0.83565 0.61102 0.0
H1058 H 0.91216 0.80435 0.61446 0.0
H1059 H 0.88539 0.78754 0.66232 0.0
H1060 H 0.87142 0.69739 0.65569 0.0
H1061 H 0.87362 0.72873 0.65205 0.0
C1062 C 0.82424 0.38565 0.12477 0.0
C1063 C 0.83708 0.39868 0.12028 0.0
C1064 C 0.80686 0.38917 0.12563 0.0
C1065 C 0.77282 0.40298 0.13584 0.0
H1066 H 0.75284 0.4275 0.09815 0.0
C1067 C 0.70052 0.41608 0.13411 0.0
C1068 C 0.69182 0.41078 0.1185 0.0
C1069 C 0.7187 0.41771 0.13514 0.0
C1070 C 0.75827 0.42071 0.10881 0.0
H1071 H 0.84172 0.42566 0.1132 0.0
H1072 H 0.81135 0.43173 0.11467 0.0
H1073 H 0.78383 0.42347 0.09852 0.0
H1074 H 0.69526 0.40399 0.09152 0.0
H1075 H 0.72685 0.40686 0.09331 0.0
H1076 H 0.74714 0.39968 0.14579 0.0
C1077 C 0.81475 0.41879 0.11744 0.0
C1078 C 0.77602 0.41851 0.10908 0.0
C1079 C 0.83214 0.41529 0.11665 0.0
C1080 C 0.70159 0.40803 0.10375 0.0
C1081 C 0.71971 0.40979 0.10475 0.0
C1082 C 0.75509 0.40526 0.13561 0.0
C1083 C 0.80193 0.40577 0.12196 0.0
C1084 C 0.78341 0.40932 0.12242 0.0
C1085 C 0.72845 0.41424 0.12053 0.0
C1086 C 0.74757 0.41384 0.1219 0.0
H1087 H 0.8276 0.37273 0.12766 0.0
H1088 H 0.79722 0.37881 0.12891 0.0
H1089 H 0.77822 0.39605 0.1464 0.0
H1090 H 0.69332 0.41831 0.14569 0.0
H1091 H 0.72513 0.42132 0.14743 0.0
C1092 C 0.12669 0.19543 0.63918 0.0
C1093 C 0.1203 0.18462 0.62523 0.0
C1094 C 0.12741 0.21343 0.63796 0.0
C1095 C 0.10719 0.24774 0.61544 0.0
H1096 H 0.14665 0.27684 0.63474 0.0
C1097 C 0.13314 0.32496 0.62635 0.0
C1098 C 0.11827 0.33093 0.63377 0.0
C1099 C 0.1338 0.30733 0.62242 0.0
C1100 C 0.13563 0.26892 0.62907 0.0
H1101 H 0.1098 0.18428 0.59896 0.0
H1102 H 0.11098 0.2158 0.5969 0.0
H1103 H 0.14763 0.24545 0.63338 0.0
H1104 H 0.09215 0.32325 0.6422 0.0
H1105 H 0.09333 0.29255 0.63538 0.0
H1106 H 0.09509 0.27122 0.6114 0.0
C1107 C 0.11538 0.21027 0.60879 0.0
C1108 C 0.13612 0.25094 0.62847 0.0
C1109 C 0.11477 0.19224 0.60996 0.0
C1110 C 0.10383 0.31905 0.63654 0.0
C1111 C 0.10445 0.30146 0.63252 0.0
C1112 C 0.10666 0.26573 0.61614 0.0
C1113 C 0.12168 0.22104 0.62279 0.0
C1114 C 0.12179 0.24015 0.62193 0.0
C1115 C 0.11955 0.29537 0.62572 0.0
C1116 C 0.12076 0.27648 0.62323 0.0
H1117 H 0.13109 0.19001 0.65112 0.0
H1118 H 0.13211 0.22139 0.64905 0.0
H1119 H 0.09591 0.23975 0.61041 0.0
H1120 H 0.14446 0.33382 0.624 0.0
H1121 H 0.14555 0.30302 0.61702 0.0
C1122 C 0.20111 0.63261 0.09593 0.0
C1123 C 0.1885 0.6203 0.10223 0.0
C1124 C 0.21845 0.62897 0.09516 0.0
C1125 C 0.25116 0.60736 0.11627 0.0
H1126 H 0.27543 0.61029 0.07293 0.0
C1127 C 0.32549 0.60448 0.1145 0.0
C1128 C 0.33429 0.6164 0.1036 0.0
C1129 C 0.30739 0.60123 0.11318 0.0
C1130 C 0.26891 0.60956 0.08518 0.0
H1131 H 0.1841 0.59464 0.11287 0.0
H1132 H 0.21476 0.58858 0.11213 0.0
H1133 H 0.24409 0.61232 0.07311 0.0
H1134 H 0.33112 0.63393 0.0825 0.0
H1135 H 0.29978 0.62885 0.08062 0.0
H1136 H 0.27597 0.60586 0.12861 0.0
C1137 C 0.21103 0.60086 0.10751 0.0
C1138 C 0.25097 0.61058 0.08521 0.0
C1139 C 0.19357 0.60432 0.10788 0.0
C1140 C 0.32474 0.6246 0.09104 0.0
C1141 C 0.3067 0.62155 0.08987 0.0
C1142 C 0.26918 0.60669 0.11631 0.0
C1143 C 0.22354 0.61313 0.10104 0.0
C1144 C 0.24204 0.60983 0.10079 0.0
C1145 C 0.29772 0.61 0.10107 0.0
C1146 C 0.27836 0.60821 0.10079 0.0
H1147 H 0.19755 0.64499 0.09141 0.0
H1148 H 0.22797 0.63866 0.09025 0.0
H1149 H 0.24447 0.60686 0.12844 0.0
H1150 H 0.33255 0.59788 0.12423 0.0
H1151 H 0.30097 0.59203 0.12182 0.0
C1152 C 0.90188 0.19333 0.42669 0.0
C1153 C 0.90243 0.18292 0.41167 0.0
C1154 C 0.90504 0.21134 0.42592 0.0
C1155 C 0.92135 0.24686 0.39699 0.0
H1156 H 0.89099 0.27368 0.42387 0.0
C1157 C 0.92355 0.32071 0.39066 0.0
C1158 C 0.90758 0.32806 0.39064 0.0
C1159 C 0.92454 0.3036 0.39556 0.0
C1160 C 0.89948 0.26639 0.41617 0.0
H1161 H 0.90722 0.18307 0.38417 0.0
H1162 H 0.9121 0.21439 0.38265 0.0
H1163 H 0.89019 0.24257 0.42756 0.0
H1164 H 0.88017 0.32349 0.396 0.0
H1165 H 0.88166 0.29332 0.40379 0.0
H1166 H 0.92977 0.27042 0.38472 0.0
C1167 C 0.90969 0.20876 0.39515 0.0
C1168 C 0.89925 0.24854 0.4185 0.0
C1169 C 0.90679 0.19076 0.39598 0.0
C1170 C 0.89265 0.31812 0.39594 0.0
C1171 C 0.89357 0.30087 0.40054 0.0
C1172 C 0.92139 0.26464 0.39446 0.0
C1173 C 0.90856 0.21931 0.41005 0.0
C1174 C 0.91 0.23851 0.40876 0.0
C1175 C 0.9095 0.29332 0.40022 0.0
C1176 C 0.91029 0.27462 0.40386 0.0
H1177 H 0.8987 0.18761 0.439 0.0
H1178 H 0.90444 0.21901 0.43771 0.0
H1179 H 0.93004 0.23963 0.38948 0.0
H1180 H 0.93532 0.32819 0.38687 0.0
H1181 H 0.9371 0.29841 0.39558 0.0
C1182 C 0.19705 0.38972 0.92567 0.0
C1183 C 0.19228 0.40566 0.91963 0.0
C1184 C 0.21458 0.38669 0.92729 0.0
C1185 C 0.25057 0.38026 0.91474 0.0
H1186 H 0.2868 0.4151 0.93087 0.0
C1187 C 0.32171 0.381 0.8938 0.0
C1188 C 0.33494 0.38569 0.90621 0.0
C1189 C 0.30428 0.38196 0.89783 0.0
C1190 C 0.27683 0.40515 0.92652 0.0
H1191 H 0.2021 0.43125 0.91152 0.0
H1192 H 0.23263 0.42597 0.91437 0.0
H1193 H 0.25633 0.42003 0.93486 0.0
H1194 H 0.34017 0.39463 0.93276 0.0
H1195 H 0.30971 0.39631 0.93973 0.0
H1196 H 0.27106 0.36551 0.90612 0.0
C1197 C 0.22287 0.41583 0.91788 0.0
C1198 C 0.25941 0.40804 0.92868 0.0
C1199 C 0.20536 0.41882 0.91616 0.0
C1200 C 0.33031 0.39097 0.92286 0.0
C1201 C 0.31288 0.39202 0.92686 0.0
C1202 C 0.26799 0.37742 0.9125 0.0
C1203 C 0.22765 0.39958 0.92303 0.0
C1204 C 0.2461 0.39575 0.92256 0.0
C1205 C 0.2997 0.38769 0.91432 0.0
C1206 C 0.28129 0.38996 0.9181 0.0
H1207 H 0.18727 0.37933 0.9285 0.0
H1208 H 0.2179 0.37412 0.93149 0.0
H1209 H 0.24061 0.37062 0.90974 0.0
H1210 H 0.32481 0.37686 0.88086 0.0
H1211 H 0.29441 0.37872 0.88784 0.0
C1212 C 0.11769 0.82889 0.41647 0.0
C1213 C 0.11813 0.83967 0.40211 0.0
C1214 C 0.11394 0.81099 0.4143 0.0
C1215 C 0.09825 0.77653 0.38159 0.0
H1216 H 0.12549 0.74808 0.41024 0.0
C1217 C 0.09458 0.70267 0.37044 0.0
C1218 C 0.11018 0.69478 0.37219 0.0
C1219 C 0.09364 0.71977 0.37614 0.0
C1220 C 0.11789 0.75582 0.402 0.0
H1221 H 0.1146 0.84035 0.37429 0.0
H1222 H 0.10885 0.80918 0.37034 0.0
H1223 H 0.12711 0.7791 0.41575 0.0
H1224 H 0.13696 0.6984 0.38142 0.0
H1225 H 0.13565 0.72849 0.39058 0.0
H1226 H 0.09007 0.75347 0.36702 0.0
C1227 C 0.11083 0.81443 0.38338 0.0
C1228 C 0.11856 0.77364 0.40538 0.0
C1229 C 0.11424 0.83234 0.3856 0.0
C1230 C 0.12474 0.70417 0.38 0.0
C1231 C 0.12392 0.7214 0.38537 0.0
C1232 C 0.09784 0.75876 0.37801 0.0
C1233 C 0.11091 0.80347 0.39767 0.0
C1234 C 0.10894 0.78429 0.39506 0.0
C1235 C 0.10839 0.72949 0.38337 0.0
C1236 C 0.10784 0.74819 0.38803 0.0
H1237 H 0.12048 0.83425 0.42938 0.0
H1238 H 0.1137 0.80305 0.42565 0.0
H1239 H 0.09039 0.78422 0.37357 0.0
H1240 H 0.08309 0.69563 0.36465 0.0
H1241 H 0.08134 0.72537 0.37477 0.0
C1242 C 0.83163 0.6296 0.89251 0.0
C1243 C 0.84105 0.64303 0.90204 0.0
C1244 C 0.81391 0.63028 0.88892 0.0
C1245 C 0.77848 0.6603 0.89017 0.0
H1246 H 0.749 0.61704 0.88857 0.0
C1247 C 0.70337 0.65104 0.89845 0.0
C1248 C 0.69421 0.64285 0.88421 0.0
C1249 C 0.72152 0.65232 0.89915 0.0
C1250 C 0.75716 0.62918 0.88887 0.0
H1251 H 0.83947 0.66766 0.91541 0.0
H1252 H 0.80837 0.66845 0.91009 0.0
H1253 H 0.78023 0.61655 0.89321 0.0
H1254 H 0.69678 0.62971 0.85949 0.0
H1255 H 0.72862 0.63139 0.86109 0.0
H1256 H 0.75495 0.67282 0.88685 0.0
C1257 C 0.81466 0.65767 0.90474 0.0
C1258 C 0.77507 0.62895 0.8914 0.0
C1259 C 0.83248 0.65717 0.90795 0.0
C1260 C 0.70353 0.63616 0.87057 0.0
C1261 C 0.72167 0.63707 0.87148 0.0
C1262 C 0.76049 0.66052 0.88805 0.0
C1263 C 0.80511 0.64422 0.89518 0.0
C1264 C 0.78602 0.64451 0.89209 0.0
C1265 C 0.73075 0.64507 0.88581 0.0
C1266 C 0.74975 0.64495 0.88738 0.0
H1267 H 0.838 0.61865 0.88759 0.0
H1268 H 0.80719 0.61989 0.88114 0.0
H1269 H 0.78644 0.67253 0.89025 0.0
H1270 H 0.6965 0.65637 0.9091 0.0
H1271 H 0.72836 0.65846 0.91035 0.0
C1272 C 0.6743 0.88596 0.82224 0.0
C1273 C 0.65913 0.87771 0.82903 0.0
C1274 C 0.67796 0.88376 0.80477 0.0
C1275 C 0.65514 0.87044 0.76323 0.0
H1276 H 0.70179 0.87641 0.74541 0.0
C1277 C 0.6688 0.86519 0.69077 0.0
C1278 C 0.67643 0.88084 0.68432 0.0
C1279 C 0.66867 0.86243 0.70852 0.0
C1280 C 0.68873 0.87465 0.75029 0.0
H1281 H 0.63653 0.85972 0.82342 0.0
H1282 H 0.64339 0.85497 0.79323 0.0
H1283 H 0.69775 0.87484 0.77661 0.0
H1284 H 0.69081 0.90542 0.6913 0.0
H1285 H 0.69089 0.90036 0.72244 0.0
H1286 H 0.64623 0.86992 0.73683 0.0
C1287 C 0.65208 0.86385 0.80104 0.0
C1288 C 0.68636 0.87387 0.76813 0.0
C1289 C 0.64819 0.86643 0.81838 0.0
C1290 C 0.68475 0.89328 0.69591 0.0
C1291 C 0.6849 0.89036 0.71368 0.0
C1292 C 0.65754 0.87082 0.74545 0.0
C1293 C 0.66671 0.87292 0.79384 0.0
C1294 C 0.66949 0.87207 0.77486 0.0
C1295 C 0.67648 0.87511 0.7201 0.0
C1296 C 0.67432 0.8732 0.73886 0.0
H1297 H 0.6829 0.89479 0.83022 0.0
H1298 H 0.68921 0.89117 0.79975 0.0
H1299 H 0.64194 0.86949 0.76779 0.0
H1300 H 0.66227 0.85536 0.68216 0.0
H1301 H 0.66211 0.85058 0.71325 0.0
C1302 C 0.60609 0.10855 0.19468 0.0
C1303 C 0.6034 0.12568 0.19068 0.0
C1304 C 0.60458 0.10293 0.2117 0.0
C1305 C 0.59091 0.11745 0.25588 0.0
H1306 H 0.62015 0.08224 0.27073 0.0
C1307 C 0.59824 0.10349 0.32829 0.0
C1308 C 0.61453 0.09907 0.33415 0.0
C1309 C 0.59419 0.10337 0.31058 0.0
C1310 C 0.61209 0.09232 0.26696 0.0
H1311 H 0.59732 0.1505 0.20112 0.0
H1312 H 0.59609 0.14134 0.23082 0.0
H1313 H 0.61892 0.08941 0.24062 0.0
H1314 H 0.63933 0.09094 0.32631 0.0
H1315 H 0.633 0.09202 0.29563 0.0
H1316 H 0.58553 0.1217 0.28239 0.0
C1317 C 0.59836 0.13175 0.22096 0.0
C1318 C 0.61105 0.09619 0.24944 0.0
C1319 C 0.59927 0.13715 0.20389 0.0
C1320 C 0.62658 0.09422 0.32209 0.0
C1321 C 0.62282 0.0947 0.30441 0.0
C1322 C 0.59245 0.11405 0.27347 0.0
C1323 C 0.60097 0.11454 0.22519 0.0
C1324 C 0.60072 0.1091 0.24363 0.0
C1325 C 0.60663 0.0995 0.2983 0.0
C1326 C 0.60336 0.10167 0.27936 0.0
H1327 H 0.60913 0.09944 0.18462 0.0
H1328 H 0.60626 0.08949 0.21418 0.0
H1329 H 0.58226 0.12701 0.25203 0.0
H1330 H 0.58867 0.10713 0.33741 0.0
H1331 H 0.58139 0.10661 0.30659 0.0
C1332 C 0.36438 0.11718 0.69365 0.0
C1333 C 0.36677 0.13256 0.68435 0.0
C1334 C 0.36425 0.11774 0.71167 0.0
C1335 C 0.35937 0.14615 0.74972 0.0
H1336 H 0.38815 0.11449 0.77255 0.0
C1337 C 0.36157 0.13671 0.82387 0.0
C1338 C 0.37808 0.13546 0.83151 0.0
C1339 C 0.35952 0.1371 0.8059 0.0
C1340 C 0.38014 0.12347 0.76635 0.0
H1341 H 0.3702 0.16065 0.68666 0.0
H1342 H 0.37004 0.16158 0.71819 0.0
H1343 H 0.38513 0.11356 0.74115 0.0
H1344 H 0.40545 0.13413 0.82631 0.0
H1345 H 0.40184 0.13484 0.79501 0.0
H1346 H 0.3546 0.1562 0.77503 0.0
C1347 C 0.3682 0.14911 0.71149 0.0
C1348 C 0.37824 0.1228 0.7484 0.0
C1349 C 0.36838 0.14855 0.69344 0.0
C1350 C 0.39254 0.135 0.82084 0.0
C1351 C 0.39047 0.13532 0.80291 0.0
C1352 C 0.36119 0.14676 0.76774 0.0
C1353 C 0.36646 0.13369 0.72078 0.0
C1354 C 0.36789 0.13416 0.73989 0.0
C1355 C 0.37392 0.13617 0.79526 0.0
C1356 C 0.37169 0.13549 0.7762 0.0
H1357 H 0.36298 0.10464 0.68704 0.0
H1358 H 0.36262 0.10566 0.7185 0.0
H1359 H 0.35124 0.15499 0.74349 0.0
H1360 H 0.35017 0.13713 0.83173 0.0
H1361 H 0.3466 0.13766 0.80032 0.0
C1362 C 0.408 0.91856 0.19419 0.0
C1363 C 0.41827 0.90562 0.1884 0.0
C1364 C 0.40855 0.92381 0.2116 0.0
C1365 C 0.43316 0.92036 0.25334 0.0
H1366 H 0.38822 0.92598 0.27306 0.0
C1367 C 0.41765 0.91206 0.32565 0.0
C1368 C 0.40668 0.9235 0.33319 0.0
C1369 C 0.42122 0.91287 0.30804 0.0
C1370 C 0.40091 0.92473 0.26772 0.0
H1371 H 0.43757 0.88842 0.19614 0.0
H1372 H 0.43812 0.89711 0.22652 0.0
H1373 H 0.3904 0.92205 0.24199 0.0
H1374 H 0.39152 0.94527 0.32836 0.0
H1375 H 0.39766 0.94655 0.29762 0.0
H1376 H 0.44343 0.92225 0.27936 0.0
C1377 C 0.42992 0.90354 0.21764 0.0
C1378 C 0.40219 0.92253 0.24987 0.0
C1379 C 0.42952 0.89845 0.20021 0.0
C1380 C 0.39995 0.93621 0.32293 0.0
C1381 C 0.4034 0.93692 0.30531 0.0
C1382 C 0.43183 0.92239 0.27125 0.0
C1383 C 0.41922 0.91607 0.22362 0.0
C1384 C 0.41828 0.92007 0.24245 0.0
C1385 C 0.41378 0.92503 0.29762 0.0
C1386 C 0.41565 0.92438 0.27861 0.0
H1387 H 0.39934 0.92446 0.18533 0.0
H1388 H 0.4004 0.93375 0.21567 0.0
H1389 H 0.44581 0.91881 0.24805 0.0
H1390 H 0.42309 0.90217 0.33324 0.0
H1391 H 0.42917 0.90346 0.30242 0.0
C1392 C 0.14322 0.1038 0.57035 0.0
C1393 C 0.12547 0.10582 0.57245 0.0
C1394 C 0.14915 0.09817 0.55445 0.0
C1395 C 0.13723 0.07738 0.51256 0.0
H1396 H 0.1637 0.11659 0.49269 0.0
C1397 C 0.13325 0.09116 0.44053 0.0
C1398 C 0.14573 0.1029 0.43328 0.0
C1399 C 0.13498 0.08656 0.45778 0.0
C1400 C 0.15686 0.10516 0.49794 0.0
H1401 H 0.09987 0.10225 0.5602 0.0
H1402 H 0.11023 0.09199 0.53251 0.0
H1403 H 0.15896 0.11643 0.52343 0.0
H1404 H 0.17064 0.11762 0.43742 0.0
H1405 H 0.17448 0.10856 0.46712 0.0
H1406 H 0.13502 0.06604 0.48711 0.0
C1407 C 0.11951 0.09491 0.5431 0.0
C1408 C 0.15407 0.10518 0.51566 0.0
C1409 C 0.11362 0.10093 0.55884 0.0
C1410 C 0.16073 0.10874 0.44293 0.0
C1411 C 0.16279 0.10365 0.45999 0.0
C1412 C 0.14041 0.07711 0.49484 0.0
C1413 C 0.13736 0.09403 0.54062 0.0
C1414 C 0.14363 0.09166 0.52296 0.0
C1415 C 0.1495 0.09324 0.46797 0.0
C1416 C 0.14955 0.09141 0.48713 0.0
H1417 H 0.15262 0.1075 0.58066 0.0
H1418 H 0.16299 0.09769 0.55272 0.0
H1419 H 0.1292 0.06677 0.51802 0.0
H1420 H 0.12154 0.08656 0.43326 0.0
H1421 H 0.12431 0.0787 0.46333 0.0
C1422 C 0.42055 0.61046 0.94702 0.0
C1423 C 0.41442 0.62677 0.94442 0.0
C1424 C 0.42903 0.60707 0.96261 0.0
C1425 C 0.4279 0.60305 1.00217 0.0
H1426 H 0.46178 0.63492 0.02686 0.0
C1427 C 0.42749 0.60443 0.07516 0.0
C1428 C 0.42786 0.6212 0.08237 0.0
C1429 C 0.43372 0.60183 0.05858 0.0
C1430 C 0.45229 0.62587 0.02021 0.0
H1431 H 0.41347 0.65268 0.95526 0.0
H1432 H 0.42859 0.64691 0.98221 0.0
H1433 H 0.45799 0.637 0.99558 0.0
H1434 H 0.43583 0.64829 0.07869 0.0
H1435 H 0.44575 0.64409 0.04945 0.0
H1436 H 0.42071 0.59306 0.02659 0.0
C1437 C 0.42676 0.63671 0.97237 0.0
C1438 C 0.45028 0.62697 1.00227 0.0
C1439 C 0.41794 0.63995 0.95704 0.0
C1440 C 0.43564 0.63521 0.07338 0.0
C1441 C 0.4414 0.63271 0.05659 0.0
C1442 C 0.42963 0.60218 0.0201 0.0
C1443 C 0.4319 0.62011 0.97553 0.0
C1444 C 0.43755 0.61603 0.99323 0.0
C1445 C 0.43973 0.61607 0.04863 0.0
C1446 C 0.44127 0.61412 0.02949 0.0
H1447 H 0.41797 0.6001 0.93744 0.0
H1448 H 0.43278 0.59414 0.96483 0.0
H1449 H 0.41788 0.59458 0.99552 0.0
H1450 H 0.42152 0.59345 0.08199 0.0
H1451 H 0.43275 0.58876 0.05319 0.0
C1452 C 0.89372 0.94443 0.44415 0.0
C1453 C 0.88364 0.92887 0.43995 0.0
C1454 C 0.89545 0.95033 0.46139 0.0
C1455 C 0.87982 0.94115 0.506 0.0
H1456 H 0.92904 0.9437 0.51777 0.0
C1457 C 0.92552 0.91157 0.55961 0.0
C1458 C 0.91698 0.91511 0.57493 0.0
C1459 C 0.92134 0.91967 0.54434 0.0
C1460 C 0.91525 0.94316 0.51472 0.0
H1461 H 0.86596 0.90836 0.44985 0.0
H1462 H 0.86883 0.91855 0.47967 0.0
H1463 H 0.91974 0.94779 0.48802 0.0
H1464 H 0.89766 0.93026 0.58641 0.0
H1465 H 0.89033 0.94438 0.55963 0.0
H1466 H 0.87537 0.935 0.53243 0.0
C1467 C 0.87548 0.92628 0.46992 0.0
C1468 C 0.90989 0.94578 0.49771 0.0
C1469 C 0.87395 0.92031 0.45283 0.0
C1470 C 0.90441 0.92719 0.57476 0.0
C1471 C 0.9002 0.93528 0.55944 0.0
C1472 C 0.88518 0.93847 0.52301 0.0
C1473 C 0.88691 0.94086 0.47454 0.0
C1474 C 0.89214 0.94383 0.49299 0.0
C1475 C 0.90854 0.93151 0.54403 0.0
C1476 C 0.90296 0.93853 0.52732 0.0
H1477 H 0.9013 0.95126 0.4344 0.0
H1478 H 0.90424 0.96169 0.46458 0.0
H1479 H 0.86604 0.93983 0.50278 0.0
H1480 H 0.93528 0.90236 0.55933 0.0
H1481 H 0.92776 0.91619 0.53262 0.0
C1482 C 0.60342 0.40802 0.9485 0.0
C1483 C 0.61592 0.39588 0.94812 0.0
C1484 C 0.59405 0.41053 0.96354 0.0
C1485 C 0.58318 0.39069 1.0057 0.0
H1486 H 0.58971 0.43766 0.02445 0.0
C1487 C 0.6099 0.42161 0.07165 0.0
C1488 C 0.60148 0.41024 0.0833 0.0
C1489 C 0.60328 0.42291 0.0549 0.0
C1490 C 0.58748 0.4245 0.01933 0.0
H1491 H 0.62787 0.37635 0.96281 0.0
H1492 H 0.61168 0.38066 0.98878 0.0
H1493 H 0.59402 0.43229 0.99373 0.0
H1494 H 0.57859 0.39258 0.08716 0.0
H1495 H 0.56697 0.39474 0.05765 0.0
H1496 H 0.57836 0.38264 0.03147 0.0
C1497 C 0.60896 0.3882 0.97756 0.0
C1498 C 0.58981 0.42145 1.0017 0.0
C1499 C 0.61842 0.38589 0.96273 0.0
C1500 C 0.58542 0.40135 0.07838 0.0
C1501 C 0.57881 0.40256 0.06149 0.0
C1502 C 0.58093 0.39372 0.02331 0.0
C1503 C 0.59683 0.40068 0.97824 0.0
C1504 C 0.5888 0.4044 0.99499 0.0
C1505 C 0.58809 0.41278 0.04935 0.0
C1506 C 0.58421 0.41054 0.0305 0.0
H1507 H 0.60121 0.41586 0.93738 0.0
H1508 H 0.58484 0.42028 0.96376 0.0
H1509 H 0.58196 0.37743 1.00075 0.0
H1510 H 0.62219 0.42882 0.07516 0.0
H1511 H 0.6109 0.4308 0.04594 0.0
C1512 C 0.14376 0.9341 0.57698 0.0
C1513 C 0.1562 0.9219 0.5772 0.0
C1514 C 0.13941 0.94192 0.5615 0.0
C1515 C 0.15444 0.94933 0.51684 0.0
H1516 H 0.10571 0.94153 0.50333 0.0
C1517 C 0.1355 0.94526 0.44555 0.0
C1518 C 0.12634 0.9291 0.44166 0.0
C1519 C 0.13619 0.95202 0.4625 0.0
C1520 C 0.11933 0.94408 0.50696 0.0
H1521 H 0.17435 0.90886 0.56166 0.0
H1522 H 0.16687 0.92243 0.53486 0.0
H1523 H 0.11449 0.93896 0.53359 0.0
H1524 H 0.10916 0.90833 0.45194 0.0
H1525 H 0.11047 0.91991 0.48129 0.0
H1526 H 0.15954 0.95292 0.49011 0.0
C1527 C 0.1605 0.92608 0.54655 0.0
C1528 C 0.12434 0.94274 0.52432 0.0
C1529 C 0.16464 0.91814 0.56188 0.0
C1530 C 0.11654 0.9207 0.45459 0.0
C1531 C 0.11713 0.92748 0.47143 0.0
C1532 C 0.14945 0.95065 0.49952 0.0
C1533 C 0.14769 0.93788 0.54612 0.0
C1534 C 0.14204 0.94435 0.52921 0.0
C1535 C 0.12762 0.94279 0.47577 0.0
C1536 C 0.13195 0.94702 0.49425 0.0
H1537 H 0.13706 0.93725 0.58864 0.0
H1538 H 0.12946 0.95093 0.5615 0.0
H1539 H 0.16815 0.95094 0.52034 0.0
H1540 H 0.14308 0.9521 0.4358 0.0
H1541 H 0.14421 0.96396 0.46541 0.0
C1542 C 0.6207 0.62782 0.95698 0.0
C1543 C 0.61861 0.63905 0.94325 0.0
C1544 C 0.61271 0.63045 0.97266 0.0
C1545 C 0.58981 0.63479 1.00306 0.0
H1546 H 0.60235 0.68061 0.02305 0.0
C1547 C 0.59336 0.64573 0.07653 0.0
C1548 C 0.61026 0.65248 0.0815 0.0
C1549 C 0.58748 0.64698 0.05939 0.0
C1550 C 0.59843 0.66783 0.01758 0.0
H1551 H 0.60611 0.66157 0.93494 0.0
H1552 H 0.59235 0.66639 0.96268 0.0
H1553 H 0.60458 0.67579 0.99198 0.0
H1554 H 0.63371 0.667 0.07296 0.0
H1555 H 0.62354 0.66918 0.04331 0.0
H1556 H 0.58515 0.62649 0.02884 0.0
C1557 C 0.60011 0.65549 0.96118 0.0
C1558 C 0.5996 0.66509 0.99977 0.0
C1559 C 0.608 0.65275 0.94535 0.0
C1560 C 0.6207 0.66148 0.06943 0.0
C1561 C 0.61476 0.66295 0.05248 0.0
C1562 C 0.58864 0.63752 0.02086 0.0
C1563 C 0.60252 0.64443 0.97502 0.0
C1564 C 0.59629 0.64832 0.99252 0.0
C1565 C 0.59831 0.65528 0.04712 0.0
C1566 C 0.59396 0.65384 0.02839 0.0
H1567 H 0.6287 0.61708 0.95573 0.0
H1568 H 0.61513 0.6219 0.98318 0.0
H1569 H 0.58687 0.62179 0.99772 0.0
H1570 H 0.58504 0.63878 0.08563 0.0
H1571 H 0.57473 0.64096 0.05558 0.0
C1572 C 0.90908 0.09967 0.45567 0.0
C1573 C 0.8979 0.09183 0.44267 0.0
C1574 C 0.91003 0.09234 0.4719 0.0
C1575 C 0.88011 0.06876 0.4998 0.0
H1576 H 0.91817 0.08013 0.53274 0.0
C1577 C 0.89304 0.08698 0.57733 0.0
C1578 C 0.88093 0.09948 0.57823 0.0
C1579 C 0.89578 0.07847 0.56159 0.0
C1580 C 0.90747 0.07639 0.52378 0.0
H1581 H 0.88027 0.06924 0.43588 0.0
H1582 H 0.88184 0.0564 0.46445 0.0
H1583 H 0.92417 0.07744 0.50203 0.0
H1584 H 0.86164 0.11227 0.56368 0.0
H1585 H 0.86633 0.09752 0.53648 0.0
H1586 H 0.86333 0.06866 0.52144 0.0
C1587 C 0.88976 0.06833 0.46208 0.0
C1588 C 0.91088 0.07499 0.50616 0.0
C1589 C 0.88889 0.07565 0.44572 0.0
C1590 C 0.87115 0.1028 0.56338 0.0
C1591 C 0.87369 0.09416 0.54781 0.0
C1592 C 0.87672 0.07009 0.51739 0.0
C1593 C 0.89976 0.07702 0.47557 0.0
C1594 C 0.89711 0.07233 0.4939 0.0
C1595 C 0.88619 0.08209 0.54665 0.0
C1596 C 0.89024 0.07506 0.52939 0.0
H1597 H 0.91637 0.11203 0.45363 0.0
H1598 H 0.91775 0.09952 0.48196 0.0
H1599 H 0.86917 0.06665 0.49078 0.0
H1600 H 0.90074 0.08417 0.58863 0.0
H1601 H 0.90555 0.06927 0.56102 0.0
C1602 C 0.42664 0.36847 0.95056 0.0
C1603 C 0.42068 0.3849 0.94827 0.0
C1604 C 0.43413 0.36434 0.96641 0.0
C1605 C 0.43058 0.35628 1.0044 0.0
H1606 H 0.45244 0.39117 0.03646 0.0
C1607 C 0.40464 0.36791 0.07049 0.0
C1608 C 0.41556 0.37393 0.08448 0.0
C1609 C 0.41151 0.36481 0.05436 0.0
C1610 C 0.44673 0.38102 0.02771 0.0
H1611 H 0.41938 0.4104 0.96002 0.0
H1612 H 0.4321 0.40324 0.98751 0.0
H1613 H 0.4557 0.39479 1.00547 0.0
H1614 H 0.44236 0.38079 0.09271 0.0
H1615 H 0.45441 0.37564 0.06421 0.0
H1616 H 0.4209 0.34295 0.02662 0.0
C1617 C 0.43119 0.39349 0.97722 0.0
C1618 C 0.44848 0.38317 1.00994 0.0
C1619 C 0.42365 0.39755 0.96149 0.0
C1620 C 0.43362 0.37622 0.08213 0.0
C1621 C 0.44052 0.37327 0.06586 0.0
C1622 C 0.42894 0.35408 0.02215 0.0
C1623 C 0.43587 0.37664 0.98013 0.0
C1624 C 0.43941 0.37144 0.99812 0.0
C1625 C 0.42948 0.36773 0.05176 0.0
C1626 C 0.43599 0.36703 0.03391 0.0
H1627 H 0.42463 0.3585 0.9405 0.0
H1628 H 0.43775 0.35129 0.96822 0.0
H1629 H 0.42347 0.34693 0.9957 0.0
H1630 H 0.39069 0.36588 0.07189 0.0
H1631 H 0.40259 0.36089 0.04371 0.0
C1632 C 0.57407 0.14305 0.08443 0.0
C1633 C 0.5759 0.13305 0.0992 0.0
C1634 C 0.55777 0.14343 0.07625 0.0
C1635 C 0.52038 0.15374 0.07751 0.0
H1636 H 0.48527 0.11472 0.07438 0.0
C1637 C 0.45394 0.15333 0.10655 0.0
C1638 C 0.43945 0.14394 0.09859 0.0
C1639 C 0.47011 0.15401 0.09882 0.0
C1640 C 0.4949 0.12578 0.0747 0.0
H1641 H 0.56271 0.1144 0.116 0.0
H1642 H 0.53444 0.11478 0.1016 0.0
H1643 H 0.51599 0.1096 0.074 0.0
H1644 H 0.4302 0.1287 0.07587 0.0
H1645 H 0.45879 0.12944 0.06257 0.0
H1646 H 0.4993 0.16981 0.0797 0.0
C1647 C 0.54545 0.12241 0.09635 0.0
C1648 C 0.51248 0.12284 0.07458 0.0
C1649 C 0.5616 0.1223 0.10471 0.0
C1650 C 0.44119 0.13606 0.08226 0.0
C1651 C 0.4575 0.13645 0.07467 0.0
C1652 C 0.50281 0.15668 0.07779 0.0
C1653 C 0.54321 0.13351 0.0825 0.0
C1654 C 0.52535 0.13672 0.07694 0.0
C1655 C 0.47218 0.14507 0.08312 0.0
C1656 C 0.48996 0.14265 0.07734 0.0
H1657 H 0.58491 0.15149 0.07996 0.0
H1658 H 0.55635 0.15209 0.0656 0.0
H1659 H 0.53002 0.16469 0.07942 0.0
H1660 H 0.45292 0.15961 0.11909 0.0
H1661 H 0.48122 0.16057 0.10575 0.0
C1662 C 0.41711 0.95056 0.59626 0.0
C1663 C 0.42562 0.95374 0.61241 0.0
C1664 C 0.41127 0.96431 0.58696 0.0
C1665 C 0.38609 0.99311 0.58687 0.0
H1666 H 0.40979 0.03909 0.58322 0.0
C1667 C 0.36543 0.05461 0.61664 0.0
C1668 C 0.36821 0.07037 0.60815 0.0
C1669 C 0.36906 0.03919 0.60844 0.0
C1670 C 0.40295 0.02628 0.58361 0.0
H1671 H 0.43636 0.97362 0.63064 0.0
H1672 H 0.4268 0.99765 0.61413 0.0
H1673 H 0.42671 0.01391 0.58416 0.0
H1674 H 0.37586 0.08249 0.5842 0.0
H1675 H 0.38304 0.05544 0.57004 0.0
H1676 H 0.36252 1.00568 0.58839 0.0
C1677 C 0.42444 0.98462 0.60872 0.0
C1678 C 0.41264 1.01191 0.58422 0.0
C1679 C 0.42985 0.97089 0.61822 0.0
C1680 C 0.37341 0.07039 0.59087 0.0
C1681 C 0.37756 0.05499 0.58281 0.0
C1682 C 0.37642 1.00751 0.58658 0.0
C1683 C 0.41434 0.98138 0.59347 0.0
C1684 C 0.40435 0.99533 0.58679 0.0
C1685 C 0.37603 0.03939 0.59181 0.0
C1686 C 0.38488 0.02427 0.58589 0.0
H1687 H 0.41358 0.93741 0.5916 0.0
H1688 H 0.40343 0.96153 0.57529 0.0
H1689 H 0.3794 0.98047 0.58899 0.0
H1690 H 0.36156 0.05437 0.63002 0.0
H1691 H 0.36799 0.02738 0.61575 0.0
C1692 C 0.44471 0.88504 0.0818 0.0
C1693 C 0.44334 0.89574 0.09652 0.0
C1694 C 0.46073 0.8844 0.07379 0.0
C1695 C 0.49809 0.8742 0.07563 0.0
H1696 H 0.53327 0.91296 0.07318 0.0
C1697 C 0.56543 0.87552 0.10578 0.0
C1698 C 0.57976 0.88429 0.09794 0.0
C1699 C 0.54899 0.87472 0.09788 0.0
C1700 C 0.5236 0.90195 0.07332 0.0
H1701 H 0.45699 0.91537 0.11335 0.0
H1702 H 0.48476 0.9145 0.09927 0.0
H1703 H 0.50254 0.91818 0.07222 0.0
H1704 H 0.58839 0.89833 0.07528 0.0
H1705 H 0.55932 0.89741 0.06167 0.0
H1706 H 0.51916 0.85815 0.07822 0.0
C1707 C 0.47361 0.90652 0.09392 0.0
C1708 C 0.50602 0.90496 0.07287 0.0
C1709 C 0.45774 0.90692 0.10209 0.0
C1710 C 0.57753 0.89146 0.08158 0.0
C1711 C 0.56095 0.89096 0.07381 0.0
C1712 C 0.51565 0.87121 0.07625 0.0
C1713 C 0.47545 0.89472 0.08018 0.0
C1714 C 0.49316 0.89121 0.07497 0.0
C1715 C 0.54648 0.88292 0.08211 0.0
C1716 C 0.52854 0.88518 0.07604 0.0
H1717 H 0.43378 0.87627 0.07726 0.0
H1718 H 0.46182 0.87521 0.06321 0.0
H1719 H 0.48847 0.86335 0.07735 0.0
H1720 H 0.56682 0.86981 0.11834 0.0
H1721 H 0.53804 0.86863 0.10469 0.0
C1722 C 0.62409 0.07154 0.59699 0.0
C1723 C 0.61454 0.06975 0.61219 0.0
C1724 C 0.63018 0.05696 0.58898 0.0
C1725 C 0.65483 0.02818 0.59423 0.0
H1726 H 0.63141 0.98201 0.58814 0.0
C1727 C 0.67276 0.96698 0.62659 0.0
C1728 C 0.67229 0.95143 0.61691 0.0
C1729 C 0.66899 0.98225 0.61865 0.0
C1730 C 0.63819 0.99485 0.58931 0.0
H1731 H 0.60211 0.05151 0.62983 0.0
H1732 H 0.61203 0.02599 0.61542 0.0
H1733 H 0.61466 1.0073 0.58594 0.0
H1734 H 0.66846 0.93967 0.59129 0.0
H1735 H 0.66104 0.96639 0.57752 0.0
H1736 H 0.67795 0.01564 0.59966 0.0
C1737 C 0.61504 0.03856 0.60979 0.0
C1738 C 0.62861 1.00927 0.58809 0.0
C1739 C 0.6094 0.05314 0.61807 0.0
C1740 C 0.66908 0.95158 0.59897 0.0
C1741 C 0.6648 0.96678 0.5911 0.0
C1742 C 0.66432 0.01375 0.59583 0.0
C1743 C 0.62631 0.04045 0.59581 0.0
C1744 C 0.63673 0.02599 0.59132 0.0
C1745 C 0.66425 0.98209 0.60101 0.0
C1746 C 0.6559 0.99699 0.59414 0.0
H1747 H 0.62837 0.08428 0.59235 0.0
H1748 H 0.63892 0.0587 0.57827 0.0
H1749 H 0.66134 0.04094 0.597 0.0
H1750 H 0.67512 0.96713 0.64045 0.0
H1751 H 0.66844 0.99388 0.62658 0.0
C1752 C 0.45373 0.91202 0.91558 0.0
C1753 C 0.44759 0.89444 0.91581 0.0
C1754 C 0.47139 0.91698 0.91878 0.0
C1755 C 0.51409 0.90145 0.93102 0.0
H1756 H 0.52801 0.91972 0.88669 0.0
C1757 C 0.57885 0.88747 0.90045 0.0
C1758 C 0.58667 0.89934 0.88891 0.0
C1759 C 0.5628 0.89026 0.90756 0.0
C1760 C 0.5246 0.91506 0.89937 0.0
H1761 H 0.4542 0.86861 0.92181 0.0
H1762 H 0.48484 0.87727 0.92777 0.0
H1763 H 0.49818 0.92026 0.89527 0.0
H1764 H 0.58443 0.92387 0.87646 0.0
H1765 H 0.55698 0.92917 0.88937 0.0
H1766 H 0.54052 0.8959 0.93495 0.0
C1767 C 0.47625 0.88724 0.92498 0.0
C1768 C 0.5074 0.91542 0.9043 0.0
C1769 C 0.45872 0.88225 0.92149 0.0
C1770 C 0.57848 0.9143 0.88503 0.0
C1771 C 0.56271 0.91731 0.89244 0.0
C1772 C 0.53144 0.90136 0.92621 0.0
C1773 C 0.48295 0.90443 0.92251 0.0
C1774 C 0.50182 0.90807 0.91987 0.0
C1775 C 0.55447 0.9052 0.90357 0.0
C1776 C 0.53677 0.90758 0.91001 0.0
H1777 H 0.44537 0.92163 0.91116 0.0
H1778 H 0.47626 0.93035 0.91691 0.0
H1779 H 0.51009 0.89571 0.94311 0.0
H1780 H 0.58496 0.87586 0.9037 0.0
H1781 H 0.55677 0.88046 0.91581 0.0
C1782 C 0.63915 0.94626 0.44395 0.0
C1783 C 0.64702 0.94517 0.4278 0.0
C1784 C 0.63825 0.96239 0.45222 0.0
C1785 C 0.62397 0.99812 0.45306 0.0
H1786 H 0.65947 0.03648 0.44981 0.0
C1787 C 0.61318 0.06174 0.42275 0.0
C1788 C 0.62318 0.07705 0.42792 0.0
C1789 C 0.6148 0.04643 0.43156 0.0
C1790 C 0.64945 0.02596 0.45134 0.0
H1791 H 0.66151 0.95971 0.40841 0.0
H1792 H 0.66023 0.98772 0.42289 0.0
H1793 H 0.66777 1.00685 0.44946 0.0
H1794 H 0.64163 0.08877 0.4472 0.0
H1795 H 0.6448 0.06176 0.4624 0.0
H1796 H 0.60551 0.01719 0.45347 0.0
C1797 C 0.65466 0.97624 0.42918 0.0
C1798 C 0.65421 1.00899 0.45101 0.0
C1799 C 0.65526 0.96021 0.42079 0.0
C1800 C 0.63377 0.07712 0.44294 0.0
C1801 C 0.63562 0.06169 0.45161 0.0
C1802 C 0.61919 0.0151 0.45327 0.0
C1803 C 0.64556 0.97758 0.44462 0.0
C1804 C 0.64142 0.99492 0.45083 0.0
C1805 C 0.62665 0.04607 0.44557 0.0
C1806 C 0.6318 0.02911 0.45136 0.0
H1807 H 0.63267 0.93483 0.44962 0.0
H1808 H 0.63116 0.9631 0.4641 0.0
H1809 H 0.61382 0.98753 0.45291 0.0
H1810 H 0.60482 0.06136 0.4113 0.0
H1811 H 0.60783 0.03459 0.42646 0.0
C1812 C 0.45196 0.14209 0.91506 0.0
C1813 C 0.44654 0.13023 0.90158 0.0
C1814 C 0.46815 0.14126 0.92342 0.0
C1815 C 0.50231 0.11137 0.93041 0.0
H1816 H 0.53528 0.1519 0.92783 0.0
C1817 C 0.56975 0.11044 0.90572 0.0
C1818 C 0.58336 0.12208 0.91216 0.0
C1819 C 0.55345 0.10997 0.9131 0.0
C1820 C 0.52618 0.14057 0.92924 0.0
H1821 H 0.4538 0.10823 0.88635 0.0
H1822 H 0.48173 0.10686 0.90077 0.0
H1823 H 0.50425 0.15492 0.92401 0.0
H1824 H 0.59119 0.1418 0.93168 0.0
H1825 H 0.56222 0.14147 0.94434 0.0
H1826 H 0.52434 0.09679 0.93407 0.0
C1827 C 0.47349 0.11664 0.90509 0.0
C1828 C 0.50841 0.14231 0.92701 0.0
C1829 C 0.45755 0.1176 0.89665 0.0
C1830 C 0.58083 0.13255 0.92674 0.0
C1831 C 0.56432 0.13241 0.9339 0.0
C1832 C 0.52004 0.10963 0.93259 0.0
C1833 C 0.47894 0.12836 0.91861 0.0
C1834 C 0.49647 0.12754 0.92647 0.0
C1835 C 0.55037 0.12149 0.92675 0.0
C1836 C 0.53217 0.12405 0.93093 0.0
H1837 H 0.4437 0.15193 0.91916 0.0
H1838 H 0.47218 0.15055 0.9337 0.0
H1839 H 0.49329 0.09983 0.9304 0.0
H1840 H 0.57148 0.10241 0.89435 0.0
H1841 H 0.54289 0.10162 0.90713 0.0
C1842 C 0.41084 0.96176 0.42216 0.0
C1843 C 0.40014 0.94704 0.42667 0.0
C1844 C 0.40926 0.97769 0.43041 0.0
C1845 C 0.40412 1.01072 0.45054 0.0
H1846 H 0.35613 0.01907 0.4408 0.0
C1847 C 0.38401 0.07939 0.43934 0.0
C1848 C 0.37736 0.08012 0.42233 0.0
C1849 C 0.38489 0.0634 0.44724 0.0
C1850 C 0.36949 0.01692 0.44399 0.0
H1851 H 0.38058 0.93698 0.44442 0.0
H1852 H 0.37751 0.96506 0.45861 0.0
H1853 H 0.364 0.9894 0.443 0.0
H1854 H 0.36523 0.06497 0.40076 0.0
H1855 H 0.36641 0.03716 0.41465 0.0
H1856 H 0.40977 0.03826 0.45014 0.0
C1857 C 0.38718 0.9642 0.44877 0.0
C1858 C 0.374 0.99995 0.44539 0.0
C1859 C 0.38899 0.94816 0.44069 0.0
C1860 C 0.3705 0.06477 0.41384 0.0
C1861 C 0.37105 0.04887 0.42185 0.0
C1862 C 0.39957 0.02772 0.44932 0.0
C1863 C 0.39676 0.97924 0.44316 0.0
C1864 C 0.39151 0.99667 0.44766 0.0
C1865 C 0.37873 0.04798 0.4384 0.0
C1866 C 0.38238 0.03088 0.44504 0.0
H1867 H 0.41963 0.9612 0.41147 0.0
H1868 H 0.41673 0.98906 0.42569 0.0
H1869 H 0.41769 1.00853 0.45241 0.0
H1870 H 0.38944 0.09106 0.44615 0.0
H1871 H 0.39091 0.06302 0.45999 0.0
C1872 C 0.09071 0.44809 0.14996 0.0
C1873 C 0.10336 0.44385 0.16201 0.0
C1874 C 0.08577 0.46498 0.14941 0.0
C1875 C 0.10465 0.50924 0.16229 0.0
H1876 H 0.06486 0.52188 0.13552 0.0
C1877 C 0.10206 0.5778 0.13754 0.0
C1878 C 0.10383 0.57712 0.1195 0.0
C1879 C 0.09636 0.56289 0.14637 0.0
C1880 C 0.07587 0.51854 0.14328 0.0
H1881 H 0.11939 0.45307 0.18413 0.0
H1882 H 0.10972 0.48218 0.18425 0.0
H1883 H 0.06491 0.49253 0.14649 0.0
H1884 H 0.09953 0.56087 0.09639 0.0
H1885 H 0.08914 0.53489 0.11185 0.0
H1886 H 0.11549 0.53529 0.15903 0.0
C1887 C 0.10435 0.47293 0.17445 0.0
C1888 C 0.07606 0.50168 0.1494 0.0
C1889 C 0.10977 0.4562 0.17457 0.0
C1890 C 0.09837 0.56171 0.11031 0.0
C1891 C 0.09231 0.54691 0.11912 0.0
C1892 C 0.10421 0.52614 0.15661 0.0
C1893 C 0.09304 0.47786 0.16125 0.0
C1894 C 0.09084 0.49655 0.15828 0.0
C1895 C 0.09194 0.54722 0.13725 0.0
C1896 C 0.09016 0.53072 0.14647 0.0
H1897 H 0.08568 0.43874 0.14008 0.0
H1898 H 0.07721 0.46808 0.1389 0.0
H1899 H 0.11644 0.50598 0.16875 0.0
H1900 H 0.10621 0.58952 0.14496 0.0
H1901 H 0.09626 0.56336 0.16038 0.0
C1902 C 0.09963 0.57732 0.89179 0.0
C1903 C 0.10339 0.57662 0.87411 0.0
C1904 C 0.09363 0.56224 0.90023 0.0
C1905 C 0.1025 0.52575 0.9112 0.0
H1906 H 0.06546 0.49068 0.89781 0.0
C1907 C 0.1101 0.45568 0.928 0.0
C1908 C 0.10508 0.44348 0.9148 0.0
C1909 C 0.10402 0.47215 0.92783 0.0
C1910 C 0.07598 0.50024 0.90165 0.0
H1911 H 0.10227 0.56019 0.85104 0.0
H1912 H 0.0912 0.53396 0.86569 0.0
H1913 H 0.0648 0.52014 0.88731 0.0
H1914 H 0.08914 0.43843 0.89159 0.0
H1915 H 0.07957 0.46731 0.89045 0.0
H1916 H 0.11487 0.50594 0.92383 0.0
C1917 C 0.09308 0.54607 0.87303 0.0
C1918 C 0.07541 0.51716 0.89581 0.0
C1919 C 0.09951 0.56102 0.86469 0.0
C1920 C 0.09314 0.44762 0.90198 0.0
C1921 C 0.08754 0.46425 0.90144 0.0
C1922 C 0.10335 0.50879 0.91662 0.0
C1923 C 0.09083 0.54642 0.89098 0.0
C1924 C 0.08895 0.52988 0.90014 0.0
C1925 C 0.09339 0.477 0.91403 0.0
C1926 C 0.09044 0.49559 0.91139 0.0
H1927 H 0.1026 0.58919 0.89935 0.0
H1928 H 0.09209 0.56272 0.91411 0.0
H1929 H 0.11321 0.53533 0.91451 0.0
H1930 H 0.11913 0.45265 0.93818 0.0
H1931 H 0.10833 0.48127 0.93815 0.0
C1932 C 0.07918 0.59471 0.38421 0.0
C1933 C 0.07879 0.60471 0.36929 0.0
C1934 C 0.0637 0.58945 0.39247 0.0
C1935 C 0.01562 0.58694 0.3886 0.0
H1936 H 0.01817 0.61152 0.43291 0.0
C1937 C 0.97165 0.63503 0.42237 0.0
C1938 C 0.95522 0.62571 0.4215 0.0
C1939 C 0.98668 0.62642 0.42084 0.0
C1940 C 0.01728 0.60426 0.42076 0.0
H1941 H 0.06215 0.61559 0.35031 0.0
H1942 H 0.03516 0.60595 0.36431 0.0
H1943 H 0.04492 0.60503 0.41884 0.0
H1944 H 0.9416 0.6 0.4195 0.0
H1945 H 0.96798 0.58496 0.41634 0.0
H1946 H 0.98801 0.5873 0.38992 0.0
C1947 C 0.04729 0.60227 0.36978 0.0
C1948 C 0.03256 0.60042 0.41275 0.0
C1949 C 0.06272 0.60786 0.36179 0.0
C1950 C 0.95412 0.60751 0.42024 0.0
C1951 C 0.96917 0.5989 0.41838 0.0
C1952 C 1.00033 0.59058 0.3967 0.0
C1953 C 0.04768 0.59377 0.38563 0.0
C1954 C 0.03188 0.59257 0.39618 0.0
C1955 C 0.98554 0.60835 0.41815 0.0
C1956 C 1.00108 0.6001 0.41241 0.0
H1957 H 0.09146 0.59228 0.39031 0.0
H1958 H 0.06431 0.58294 0.40469 0.0
H1959 H 0.01477 0.58084 0.37584 0.0
H1960 H 0.97286 0.64906 0.42338 0.0
H1961 H 0.99911 0.63406 0.42052 0.0
C1962 C 0.90895 0.57027 0.92808 0.0
C1963 C 0.90939 0.58053 0.91334 0.0
C1964 C 0.91598 0.5543 0.92782 0.0
C1965 C 0.94187 0.52548 0.90097 0.0
H1966 H 0.91291 0.48935 0.92312 0.0
C1967 C 0.92619 0.45648 0.87526 0.0
C1968 C 0.92292 0.44297 0.88687 0.0
C1969 C 0.93168 0.47316 0.88135 0.0
C1970 C 0.92147 0.49929 0.91724 0.0
H1971 H 0.9179 0.58251 0.88694 0.0
H1972 H 0.92923 0.55409 0.88602 0.0
H1973 H 0.90779 0.51935 0.92821 0.0
H1974 H 0.92429 0.43578 0.91373 0.0
H1975 H 0.9335 0.46524 0.92451 0.0
H1976 H 0.95449 0.50497 0.88884 0.0
C1977 C 0.92404 0.55856 0.89803 0.0
C1978 C 0.91853 0.51659 0.92014 0.0
C1979 C 0.91737 0.57477 0.89845 0.0
C1980 C 0.92674 0.44602 0.90454 0.0
C1981 C 0.93195 0.46284 0.91069 0.0
C1982 C 0.94463 0.5081 0.89786 0.0
C1983 C 0.92319 0.54799 0.91265 0.0
C1984 C 0.9283 0.52991 0.91162 0.0
C1985 C 0.9337 0.47667 0.89918 0.0
C1986 C 0.93407 0.49484 0.90556 0.0
H1987 H 0.9032 0.57461 0.93987 0.0
H1988 H 0.9155 0.5468 0.93947 0.0
H1989 H 0.94995 0.53539 0.89453 0.0
H1990 H 0.92346 0.45438 0.86154 0.0
H1991 H 0.93281 0.48357 0.87218 0.0
C1992 C 0.07958 0.43088 0.39621 0.0
C1993 C 0.08192 0.41471 0.40344 0.0
C1994 C 0.06327 0.43746 0.39643 0.0
C1995 C 0.02193 0.43409 0.41899 0.0
H1996 H 0.99932 0.43903 0.37437 0.0
C1997 C 0.95246 0.40984 0.4047 0.0
C1998 C 0.94227 0.41756 0.39235 0.0
C1999 C 0.96933 0.41677 0.40865 0.0
C2000 C 1.00551 0.4383 0.387 0.0
H2001 H 0.06923 0.39299 0.41694 0.0
H2002 H 0.04098 0.40459 0.41755 0.0
H2003 H 0.03075 0.43746 0.37615 0.0
H2004 H 0.94123 0.43918 0.37516 0.0
H2005 H 0.97121 0.45125 0.38184 0.0
H2006 H 0.99666 0.43391 0.42977 0.0
C2007 C 0.05169 0.41215 0.41169 0.0
C2008 C 0.0235 0.43734 0.38799 0.0
C2009 C 0.0678 0.40542 0.41116 0.0
C2010 C 0.94888 0.43301 0.38474 0.0
C2011 C 0.966 0.43985 0.38851 0.0
C2012 C 1.00402 0.43521 0.41803 0.0
C2013 C 0.04924 0.42817 0.40428 0.0
C2014 C 0.03164 0.43423 0.40387 0.0
C2015 C 0.97651 0.43151 0.40019 0.0
C2016 C 0.9955 0.43624 0.4019 0.0
H2017 H 0.09026 0.43829 0.39016 0.0
H2018 H 0.06161 0.44978 0.39052 0.0
H2019 H 0.02802 0.43194 0.43142 0.0
H2020 H 0.9476 0.39799 0.41086 0.0
H2021 H 0.97712 0.40985 0.41751 0.0
C2022 C 0.91713 0.45565 0.14431 0.0
C2023 C 0.9193 0.44878 0.1277 0.0
C2024 C 0.92147 0.47329 0.14786 0.0
C2025 C 0.92477 0.51367 0.12311 0.0
H2026 H 0.92991 0.53455 0.1691 0.0
C2027 C 0.9165 0.58608 0.13726 0.0
C2028 C 0.90301 0.58797 0.14886 0.0
C2029 C 0.92348 0.57012 0.13529 0.0
C2030 C 0.92868 0.52888 0.15617 0.0
H2031 H 0.92953 0.4541 0.10237 0.0
H2032 H 0.93835 0.48456 0.10884 0.0
H2033 H 0.93533 0.50418 0.1647 0.0
H2034 H 0.88665 0.57494 0.16791 0.0
H2035 H 0.89904 0.54718 0.16464 0.0
H2036 H 0.918 0.53839 0.11469 0.0
C2037 C 0.93241 0.47674 0.11891 0.0
C2038 C 0.93165 0.51148 0.15363 0.0
C2039 C 0.92756 0.45925 0.11523 0.0
C2040 C 0.89693 0.5738 0.15876 0.0
C2041 C 0.90415 0.55799 0.15705 0.0
C2042 C 0.92218 0.53112 0.1256 0.0
C2043 C 0.92844 0.48424 0.13491 0.0
C2044 C 0.92904 0.50344 0.13717 0.0
C2045 C 0.91735 0.55598 0.1452 0.0
C2046 C 0.92347 0.53867 0.14223 0.0
H2047 H 0.91067 0.44777 0.15408 0.0
H2048 H 0.91807 0.47847 0.1603 0.0
H2049 H 0.92229 0.50804 0.11028 0.0
H2050 H 0.92144 0.59683 0.12951 0.0
H2051 H 0.9336 0.56878 0.126 0.0
C2052 C 0.95219 0.42751 0.63125 0.0
C2053 C 0.94825 0.41274 0.62052 0.0
C2054 C 0.96907 0.43585 0.63189 0.0
C2055 C 1.01109 0.43846 0.60917 0.0
H2056 H 0.0322 0.43766 0.65502 0.0
C2057 C 0.07528 0.4119 0.623 0.0
C2058 C 0.08669 0.41917 0.63607 0.0
C2059 C 0.05964 0.41895 0.61953 0.0
C2060 C 0.02652 0.43851 0.64218 0.0
H2061 H 0.95844 0.39579 0.60131 0.0
H2062 H 0.98758 0.41027 0.60233 0.0
H2063 H 1.00063 0.43611 0.65171 0.0
H2064 H 0.09113 0.43993 0.65531 0.0
H2065 H 0.06326 0.45199 0.64958 0.0
H2066 H 0.03694 0.43934 0.59959 0.0
C2067 C 0.9778 0.41549 0.61025 0.0
C2068 C 1.00842 0.43763 0.64028 0.0
C2069 C 0.96114 0.40704 0.60982 0.0
C2070 C 0.08253 0.43411 0.64514 0.0
C2071 C 0.06664 0.44099 0.64189 0.0
C2072 C 0.02915 0.43928 0.61107 0.0
C2073 C 0.98207 0.42976 0.62152 0.0
C2074 C 1.00055 0.43651 0.62371 0.0
C2075 C 0.05494 0.43327 0.62924 0.0
C2076 C 0.03694 0.43825 0.62753 0.0
H2077 H 0.94246 0.43217 0.63961 0.0
H2078 H 0.97207 0.44678 0.64074 0.0
H2079 H 1.00533 0.43794 0.59626 0.0
H2080 H 0.07822 0.40045 0.61574 0.0
H2081 H 0.05077 0.41255 0.60988 0.0
C2082 C 0.07915 0.59853 0.62292 0.0
C2083 C 0.08397 0.61647 0.6222 0.0
C2084 C 0.06406 0.5924 0.63148 0.0
C2085 C 0.03524 0.60508 0.66536 0.0
H2086 H 0.99575 0.58677 0.63677 0.0
C2087 C 0.97123 0.63284 0.6636 0.0
C2088 C 0.95552 0.62236 0.6623 0.0
C2089 C 0.98694 0.62536 0.6645 0.0
C2090 C 1.00669 0.59126 0.64519 0.0
H2091 H 0.07674 0.64196 0.62992 0.0
H2092 H 0.05088 0.63131 0.64483 0.0
H2093 H 0.02521 0.58544 0.62613 0.0
H2094 H 0.9436 0.59596 0.66145 0.0
H2095 H 0.97146 0.58272 0.66215 0.0
H2096 H 0.01672 0.61264 0.68358 0.0
C2097 C 0.05871 0.62199 0.63886 0.0
C2098 C 0.02353 0.5905 0.63908 0.0
C2099 C 0.07344 0.62807 0.63012 0.0
C2100 C 0.95565 0.60425 0.6626 0.0
C2101 C 0.97148 0.5967 0.66299 0.0
C2102 C 0.01847 0.60588 0.67142 0.0
C2103 C 0.05396 0.60415 0.63978 0.0
C2104 C 0.03778 0.59852 0.64864 0.0
C2105 C 0.98724 0.60726 0.66366 0.0
C2106 C 1.00406 0.60009 0.66084 0.0
H2107 H 0.08704 0.58929 0.61695 0.0
H2108 H 0.06043 0.57859 0.63186 0.0
H2109 H 0.04611 0.61123 0.67298 0.0
H2110 H 0.97138 0.64684 0.66336 0.0
H2111 H 0.99892 0.63379 0.66471 0.0
C2112 C 0.93963 0.09894 0.3657 0.0
C2113 C 0.93184 0.11301 0.37314 0.0
C2114 C 0.95778 0.09961 0.36384 0.0
C2115 C 0.9983 0.12244 0.38308 0.0
H2116 H 0.02141 0.10261 0.34439 0.0
C2117 C 0.07224 0.13467 0.37735 0.0
C2118 C 0.08194 0.121 0.37211 0.0
C2119 C 0.0541 0.13326 0.37577 0.0
C2120 C 0.01518 0.10806 0.35538 0.0
H2121 H 0.93717 0.13917 0.38364 0.0
H2122 H 0.96849 0.14044 0.38016 0.0
H2123 H 0.98954 0.10116 0.34452 0.0
H2124 H 0.07992 0.09525 0.36037 0.0
H2125 H 0.04797 0.09266 0.35771 0.0
H2126 H 0.02366 0.12919 0.3941 0.0
C2127 C 0.96069 0.1287 0.37608 0.0
C2128 C 0.99686 0.10725 0.35545 0.0
C2129 C 0.94263 0.12803 0.37793 0.0
C2130 C 0.0729 0.10607 0.36449 0.0
C2131 C 0.05456 0.10459 0.36299 0.0
C2132 C 0.01649 0.12321 0.38303 0.0
C2133 C 0.96864 0.11436 0.36943 0.0
C2134 C 0.98815 0.11465 0.36923 0.0
C2135 C 0.04487 0.11804 0.36903 0.0
C2136 C 0.02529 0.11627 0.36909 0.0
H2137 H 0.93178 0.08712 0.36195 0.0
H2138 H 0.96336 0.08828 0.35871 0.0
H2139 H 0.99218 0.12785 0.39417 0.0
H2140 H 0.07869 0.1465 0.38306 0.0
H2141 H 0.04728 0.14414 0.38008 0.0
C2142 C 0.41344 0.44776 0.88462 0.0
C2143 C 0.40419 0.43554 0.87336 0.0
C2144 C 0.4149 0.46547 0.88106 0.0
C2145 C 0.39273 0.49825 0.85631 0.0
H2146 H 0.4322 0.52881 0.87327 0.0
C2147 C 0.39541 0.57333 0.84949 0.0
C2148 C 0.40102 0.58337 0.86429 0.0
C2149 C 0.39737 0.55545 0.84856 0.0
C2150 C 0.42101 0.52051 0.86853 0.0
H2151 H 0.38983 0.43256 0.84899 0.0
H2152 H 0.39268 0.46358 0.84249 0.0
H2153 H 0.43322 0.49751 0.87445 0.0
H2154 H 0.41363 0.58233 0.88951 0.0
H2155 H 0.41726 0.55136 0.88778 0.0
H2156 H 0.38053 0.52136 0.85046 0.0
C2157 C 0.39861 0.4594 0.85431 0.0
C2158 C 0.42157 0.50246 0.86922 0.0
C2159 C 0.39718 0.44153 0.85789 0.0
C2160 C 0.40924 0.57511 0.87785 0.0
C2161 C 0.41134 0.55728 0.87684 0.0
C2162 C 0.39223 0.51634 0.85551 0.0
C2163 C 0.40718 0.47171 0.86606 0.0
C2164 C 0.40731 0.49098 0.86345 0.0
C2165 C 0.40515 0.54708 0.86232 0.0
C2166 C 0.40623 0.52777 0.8619 0.0
H2167 H 0.419 0.44372 0.89669 0.0
H2168 H 0.42142 0.47434 0.8906 0.0
H2169 H 0.38137 0.49 0.85193 0.0
H2170 H 0.38894 0.57916 0.83883 0.0
H2171 H 0.39263 0.54814 0.83707 0.0
C2172 C 0.08024 0.92618 0.36412 0.0
C2173 C 0.08795 0.91162 0.37029 0.0
C2174 C 0.06207 0.92587 0.36185 0.0
C2175 C 0.02122 0.89569 0.35876 0.0
H2176 H 0.99868 0.93587 0.37416 0.0
C2177 C 0.94877 0.89111 0.3764 0.0
C2178 C 0.93858 0.90495 0.37314 0.0
C2179 C 0.96659 0.89244 0.37318 0.0
C2180 C 1.00471 0.92462 0.36952 0.0
H2181 H 0.0824 0.88514 0.37847 0.0
H2182 H 0.05102 0.88457 0.37453 0.0
H2183 H 0.0304 0.93717 0.37387 0.0
H2184 H 0.93936 0.93103 0.36348 0.0
H2185 H 0.9707 0.9334 0.35777 0.0
H2186 H 0.99561 0.88302 0.35473 0.0
C2187 C 0.05892 0.89625 0.37126 0.0
C2188 C 0.02299 0.92535 0.36936 0.0
C2189 C 0.07702 0.89659 0.37358 0.0
C2190 C 0.94673 0.92006 0.36601 0.0
C2191 C 0.96476 0.92147 0.36293 0.0
C2192 C 1.003 0.89496 0.35893 0.0
C2193 C 0.05108 0.91095 0.3656 0.0
C2194 C 0.03156 0.91078 0.36429 0.0
C2195 C 0.975 0.90772 0.36667 0.0
C2196 C 0.99442 0.90928 0.36464 0.0
H2197 H 0.08819 0.93803 0.36153 0.0
H2198 H 0.05663 0.93739 0.35726 0.0
H2199 H 0.02721 0.88431 0.35438 0.0
H2200 H 0.94302 0.87926 0.38191 0.0
H2201 H 0.97392 0.88163 0.37647 0.0
C2202 C 0.62613 0.44425 0.8529 0.0
C2203 C 0.62298 0.43524 0.86832 0.0
C2204 C 0.62428 0.46214 0.85207 0.0
C2205 C 0.62444 0.50113 0.88124 0.0
H2206 H 0.60882 0.52404 0.84042 0.0
C2207 C 0.61537 0.57381 0.88457 0.0
C2208 C 0.6215 0.58428 0.87096 0.0
C2209 C 0.61366 0.55571 0.88284 0.0
C2210 C 0.61335 0.51788 0.85189 0.0
H2211 H 0.61455 0.43804 0.89468 0.0
H2212 H 0.61094 0.46889 0.89314 0.0
H2213 H 0.6091 0.49241 0.84012 0.0
H2214 H 0.62987 0.58375 0.84446 0.0
H2215 H 0.62697 0.55193 0.84138 0.0
H2216 H 0.62889 0.52639 0.89299 0.0
C2217 C 0.61527 0.4623 0.88176 0.0
C2218 C 0.61351 0.49968 0.85173 0.0
C2219 C 0.61716 0.44448 0.8826 0.0
C2220 C 0.62493 0.57611 0.85514 0.0
C2221 C 0.62334 0.55783 0.85342 0.0
C2222 C 0.62427 0.51921 0.88139 0.0
C2223 C 0.61923 0.47156 0.86663 0.0
C2224 C 0.61894 0.49099 0.86648 0.0
C2225 C 0.61823 0.54736 0.86749 0.0
C2226 C 0.61858 0.52793 0.86681 0.0
H2227 H 0.63074 0.43764 0.84166 0.0
H2228 H 0.62755 0.46871 0.84021 0.0
H2229 H 0.62921 0.49513 0.8927 0.0
H2230 H 0.61247 0.57962 0.89691 0.0
H2231 H 0.60917 0.54824 0.8938 0.0
C2232 C 0.9846 0.92077 0.63407 0.0
C2233 C 0.9731 0.91646 0.6475 0.0
C2234 C 1.00251 0.92387 0.63727 0.0
C2235 C 0.03722 0.91294 0.66771 0.0
H2236 H 0.06559 0.946 0.64106 0.0
C2237 C 0.11298 0.91822 0.67292 0.0
C2238 C 0.12182 0.91977 0.65722 0.0
C2239 C 0.09508 0.92025 0.6736 0.0
C2240 C 0.05793 0.93659 0.64855 0.0
H2241 H 0.97158 0.91256 0.67506 0.0
H2242 H 1.00308 0.91803 0.68076 0.0
H2243 H 0.03402 0.94552 0.63927 0.0
H2244 H 0.11866 0.92526 0.63003 0.0
H2245 H 0.08772 0.92879 0.63119 0.0
H2246 H 0.06116 0.90375 0.67668 0.0
C2247 C 0.99811 0.91894 0.66765 0.0
C2248 C 0.03974 0.93634 0.64754 0.0
C2249 C 0.98002 0.916 0.66444 0.0
C2250 C 0.11239 0.92407 0.64239 0.0
C2251 C 0.09455 0.92615 0.64308 0.0
C2252 C 0.05545 0.91318 0.66871 0.0
C2253 C 1.00965 0.92264 0.65403 0.0
C2254 C 0.02907 0.92428 0.65682 0.0
C2255 C 0.0855 0.92396 0.65862 0.0
C2256 C 0.0661 0.92479 0.65887 0.0
H2257 H 0.97978 0.92121 0.62084 0.0
H2258 H 1.01085 0.92647 0.62639 0.0
H2259 H 0.02952 0.90333 0.67492 0.0
H2260 H 0.11975 0.91484 0.6846 0.0
H2261 H 0.0887 0.9187 0.68586 0.0
C2262 C 0.63586 0.45615 0.14947 0.0
C2263 C 0.62071 0.44552 0.15317 0.0
C2264 C 0.63645 0.47427 0.15137 0.0
C2265 C 0.60771 0.51053 0.15275 0.0
H2266 H 0.65041 0.53771 0.1668 0.0
C2267 C 0.61336 0.58664 0.15554 0.0
C2268 C 0.62868 0.59482 0.14876 0.0
C2269 C 0.61183 0.56864 0.1585 0.0
C2270 C 0.63837 0.53038 0.16271 0.0
H2271 H 0.59438 0.44587 0.16222 0.0
H2272 H 0.59546 0.47743 0.16572 0.0
H2273 H 0.64892 0.5062 0.16749 0.0
H2274 H 0.65457 0.59032 0.1404 0.0
H2275 H 0.65195 0.55947 0.14551 0.0
H2276 H 0.59728 0.53479 0.14771 0.0
C2277 C 0.60687 0.47175 0.16115 0.0
C2278 C 0.63752 0.51221 0.1631 0.0
C2279 C 0.60631 0.45357 0.15932 0.0
C2280 C 0.64255 0.5846 0.14563 0.0
C2281 C 0.64108 0.56678 0.14868 0.0
C2282 C 0.60856 0.52876 0.15234 0.0
C2283 C 0.62188 0.48243 0.15698 0.0
C2284 C 0.62228 0.50193 0.15785 0.0
C2285 C 0.62564 0.55838 0.15494 0.0
C2286 C 0.62403 0.53899 0.15702 0.0
H2287 H 0.64717 0.4505 0.14458 0.0
H2288 H 0.64819 0.48192 0.14781 0.0
H2289 H 0.59577 0.50317 0.14843 0.0
H2290 H 0.60236 0.59402 0.15801 0.0
H2291 H 0.59977 0.56273 0.16347 0.0
C2292 C 0.93134 0.11045 0.673 0.0
C2293 C 0.92083 0.10595 0.65821 0.0
C2294 C 0.9494 0.10908 0.67289 0.0
C2295 C 0.98533 0.10746 0.64146 0.0
H2296 H 0.01329 0.09762 0.68168 0.0
C2297 C 0.0582 0.10073 0.63477 0.0
C2298 C 0.06974 0.10954 0.64698 0.0
C2299 C 0.04035 0.09833 0.63771 0.0
C2300 C 1.00569 0.1005 0.67035 0.0
H2301 H 0.92109 0.09547 0.63203 0.0
H2302 H 0.95219 0.0925 0.63202 0.0
H2303 H 0.98159 0.09668 0.68373 0.0
H2304 H 0.07146 0.12186 0.67242 0.0
H2305 H 0.0401 0.11762 0.67764 0.0
H2306 H 1.00924 0.11133 0.62808 0.0
C2307 C 0.9467 0.09765 0.64358 0.0
C2308 C 0.98746 0.09998 0.67152 0.0
C2309 C 0.92873 0.09915 0.64365 0.0
C2310 C 0.063 0.11488 0.66279 0.0
C2311 C 0.04498 0.11251 0.66574 0.0
C2312 C 1.00343 0.10788 0.64029 0.0
C2313 C 0.95745 0.10309 0.658 0.0
C2314 C 0.97695 0.10337 0.65703 0.0
C2315 C 0.03333 0.10475 0.65294 0.0
C2316 C 0.01393 0.10431 0.65465 0.0
H2317 H 0.92578 0.11587 0.68441 0.0
H2318 H 0.95712 0.1135 0.68423 0.0
H2319 H 0.97793 0.11069 0.63012 0.0
H2320 H 0.06289 0.0963 0.6225 0.0
H2321 H 0.03194 0.09185 0.62774 0.0
C2322 C 0.39039 0.57302 0.13863 0.0
C2323 C 0.40209 0.58459 0.14831 0.0
C2324 C 0.39016 0.55504 0.14061 0.0
C2325 C 0.41669 0.5206 0.15853 0.0
H2326 H 0.37418 0.49162 0.14804 0.0
C2327 C 0.41554 0.44526 0.14919 0.0
C2328 C 0.39989 0.43498 0.15159 0.0
C2329 C 0.41628 0.46346 0.15102 0.0
C2330 C 0.38619 0.49935 0.15137 0.0
H2331 H 0.42246 0.58609 0.1681 0.0
H2332 H 0.42154 0.55481 0.1722 0.0
H2333 H 0.37395 0.52272 0.14783 0.0
H2334 H 0.37302 0.43564 0.15858 0.0
H2335 H 0.3745 0.46692 0.16307 0.0
H2336 H 0.42872 0.49711 0.16283 0.0
C2337 C 0.41284 0.55957 0.16262 0.0
C2338 C 0.38613 0.51744 0.15087 0.0
C2339 C 0.41324 0.57762 0.16043 0.0
C2340 C 0.38531 0.44321 0.15678 0.0
C2341 C 0.38612 0.46128 0.15901 0.0
C2342 C 0.41669 0.50245 0.1593 0.0
C2343 C 0.40143 0.5479 0.15257 0.0
C2344 C 0.40141 0.52846 0.15419 0.0
C2345 C 0.40142 0.47187 0.15552 0.0
C2346 C 0.40146 0.49143 0.15558 0.0
H2347 H 0.38175 0.57781 0.12899 0.0
H2348 H 0.38142 0.54675 0.13228 0.0
H2349 H 0.42884 0.52842 0.16101 0.0
H2350 H 0.42689 0.43933 0.14478 0.0
H2351 H 0.4283 0.47092 0.148 0.0
C2352 C 0.36681 0.07259 0.10909 0.0
C2353 C 0.37521 0.08094 0.12371 0.0
C2354 C 0.36401 0.05431 0.10804 0.0
C2355 C 0.3636 0.01458 0.13523 0.0
H2356 H 0.37451 0.99101 0.0927 0.0
C2357 C 0.37944 0.94281 0.13374 0.0
C2358 C 0.37435 0.93211 0.11925 0.0
C2359 C 0.37701 0.96056 0.13392 0.0
C2360 C 0.37115 0.99731 0.10464 0.0
H2361 H 0.38658 0.07647 0.14893 0.0
H2362 H 0.38171 0.04517 0.14716 0.0
H2363 H 0.37429 0.02256 0.09352 0.0
H2364 H 0.36238 0.93189 0.09365 0.0
H2365 H 0.358 0.96283 0.09402 0.0
H2366 H 0.36075 0.98946 0.14646 0.0
C2367 C 0.37717 0.0525 0.13647 0.0
C2368 C 0.371 0.01549 0.10509 0.0
C2369 C 0.38007 0.07059 0.13744 0.0
C2370 C 0.36639 0.93966 0.10508 0.0
C2371 C 0.36403 0.95749 0.10523 0.0
C2372 C 0.36376 0.99647 0.13478 0.0
C2373 C 0.36934 0.04398 0.12167 0.0
C2374 C 0.36756 0.02446 0.1205 0.0
C2375 C 0.36947 0.96828 0.11959 0.0
C2376 C 0.36786 0.98753 0.11958 0.0
H2377 H 0.36301 0.0801 0.09822 0.0
H2378 H 0.35781 0.04827 0.09648 0.0
H2379 H 0.3605 0.02088 0.14726 0.0
H2380 H 0.38572 0.93756 0.14486 0.0
H2381 H 0.3816 0.96835 0.14516 0.0
C2382 C 0.47867 0.8937 0.61371 0.0
C2383 C 0.46792 0.87871 0.61755 0.0
C2384 C 0.49658 0.89304 0.61157 0.0
C2385 C 0.532 0.86388 0.60466 0.0
H2386 H 0.56019 0.90155 0.62803 0.0
C2387 C 0.60805 0.86551 0.61515 0.0
C2388 C 0.61748 0.88192 0.61551 0.0
C2389 C 0.58972 0.86401 0.61356 0.0
C2390 C 0.55263 0.89104 0.62113 0.0
H2391 H 0.46769 0.85103 0.6213 0.0
H2392 H 0.49898 0.84987 0.61748 0.0
H2393 H 0.52879 0.90104 0.62823 0.0
H2394 H 0.61513 0.90943 0.6132 0.0
H2395 H 0.58371 0.90685 0.6097 0.0
H2396 H 0.55607 0.8539 0.5976 0.0
C2397 C 0.4935 0.86217 0.61609 0.0
C2398 C 0.53449 0.89074 0.62128 0.0
C2399 C 0.47551 0.86284 0.61828 0.0
C2400 C 0.60828 0.8966 0.61314 0.0
C2401 C 0.59016 0.89511 0.61134 0.0
C2402 C 0.55028 0.86422 0.60442 0.0
C2403 C 0.50438 0.87737 0.6132 0.0
C2404 C 0.52384 0.87727 0.61294 0.0
C2405 C 0.58047 0.87889 0.61217 0.0
C2406 C 0.5609 0.87793 0.61252 0.0
H2407 H 0.47337 0.90616 0.61297 0.0
H2408 H 0.50441 0.90496 0.60898 0.0
H2409 H 0.52426 0.85329 0.59806 0.0
H2410 H 0.61472 0.85396 0.61712 0.0
H2411 H 0.58279 0.85128 0.61425 0.0
C2412 C 0.64143 0.0862 0.13606 0.0
C2413 C 0.64555 0.09615 0.12146 0.0
C2414 C 0.64324 0.06833 0.13602 0.0
C2415 C 0.66248 0.03194 0.11229 0.0
H2416 H 0.62633 1.0041 0.13558 0.0
C2417 C 0.65216 0.95526 0.10806 0.0
C2418 C 0.64642 0.94696 0.12319 0.0
C2419 C 0.654 0.97356 0.10738 0.0
C2420 C 0.6367 1.01162 0.12917 0.0
H2421 H 0.65535 0.09491 0.09548 0.0
H2422 H 0.65835 0.06372 0.09532 0.0
H2423 H 0.62588 0.03536 0.13546 0.0
H2424 H 0.63942 0.9515 0.14978 0.0
H2425 H 0.64297 0.98288 0.14873 0.0
H2426 H 0.67308 1.00787 0.10584 0.0
C2427 C 0.65388 0.06978 0.10694 0.0
C2428 C 0.63647 0.02968 0.12914 0.0
C2429 C 0.65214 0.08774 0.10701 0.0
C2430 C 0.64366 0.95738 0.13783 0.0
C2431 C 0.64555 0.97547 0.13718 0.0
C2432 C 0.66268 0.01373 0.11229 0.0
C2433 C 0.6491 0.05969 0.12132 0.0
C2434 C 0.64945 0.04023 0.1209 0.0
C2435 C 0.65015 0.98392 0.12182 0.0
C2436 C 0.64989 1.00331 0.12094 0.0
H2437 H 0.63638 0.09215 0.14748 0.0
H2438 H 0.63982 0.06123 0.14755 0.0
H2439 H 0.67277 0.03952 0.10584 0.0
H2440 H 0.65426 0.94766 0.09651 0.0
H2441 H 0.65761 0.97956 0.09532 0.0
C2442 C 0.56587 0.16281 0.61968 0.0
C2443 C 0.57303 0.14673 0.61856 0.0
C2444 C 0.54791 0.1639 0.61709 0.0
C2445 C 0.5071 0.1389 0.59977 0.0
H2446 H 0.48395 0.16834 0.63131 0.0
C2447 C 0.4338 0.12759 0.61269 0.0
C2448 C 0.42388 0.1417 0.61581 0.0
C2449 C 0.45178 0.13006 0.61057 0.0
C2450 C 0.49019 0.16026 0.62218 0.0
H2451 H 0.56676 0.11926 0.61333 0.0
H2452 H 0.53571 0.12112 0.60888 0.0
H2453 H 0.51565 0.1691 0.63215 0.0
H2454 H 0.42529 0.16964 0.61873 0.0
H2455 H 0.45696 0.17405 0.61505 0.0
H2456 H 0.48166 0.12975 0.59009 0.0
C2457 C 0.54391 0.13298 0.61158 0.0
C2458 C 0.50845 0.16068 0.62266 0.0
C2459 C 0.56181 0.13189 0.6142 0.0
C2460 C 0.43248 0.1585 0.61621 0.0
C2461 C 0.45066 0.16099 0.61429 0.0
C2462 C 0.4889 0.13845 0.59932 0.0
C2463 C 0.53658 0.14896 0.61325 0.0
C2464 C 0.5172 0.14975 0.61169 0.0
C2465 C 0.4606 0.14674 0.61163 0.0
C2466 C 0.48011 0.14885 0.61075 0.0
H2467 H 0.57406 0.17452 0.62308 0.0
H2468 H 0.54288 0.17648 0.61827 0.0
H2469 H 0.51327 0.13058 0.59081 0.0
H2470 H 0.42768 0.11444 0.61229 0.0
H2471 H 0.45887 0.11873 0.60877 0.0
C2472 C 0.3548 0.07125 0.8967 0.0
C2473 C 0.37039 0.08082 0.90207 0.0
C2474 C 0.35308 0.05298 0.89756 0.0
C2475 C 0.38149 0.01616 0.89928 0.0
H2476 H 0.33845 0.98767 0.90592 0.0
C2477 C 0.38093 0.94159 0.90306 0.0
C2478 C 0.36756 0.93141 0.89399 0.0
C2479 C 0.38012 0.95951 0.90561 0.0
C2480 C 0.35058 0.99542 0.90393 0.0
H2481 H 0.39589 0.07878 0.91358 0.0
H2482 H 0.39265 0.04743 0.91592 0.0
H2483 H 0.33884 0.01931 0.90791 0.0
H2484 H 0.34248 0.93227 0.88106 0.0
H2485 H 0.34104 0.96346 0.88555 0.0
H2486 H 0.39325 0.99245 0.89523 0.0
C2487 C 0.38192 0.05373 0.91042 0.0
C2488 C 0.3508 0.01364 0.90505 0.0
C2489 C 0.38369 0.07182 0.90934 0.0
C2490 C 0.35301 0.93962 0.88817 0.0
C2491 C 0.35216 0.95757 0.89078 0.0
C2492 C 0.38129 0.99805 0.89825 0.0
C2493 C 0.36689 0.04388 0.9039 0.0
C2494 C 0.36631 0.02434 0.90283 0.0
C2495 C 0.3659 0.96789 0.89921 0.0
C2496 C 0.36587 0.98733 0.9006 0.0
H2497 H 0.34443 0.07775 0.89073 0.0
H2498 H 0.3413 0.04598 0.89236 0.0
H2499 H 0.39363 0.02376 0.89694 0.0
H2500 H 0.39235 0.93581 0.90776 0.0
H2501 H 0.39082 0.96687 0.91245 0.0
C2502 C 0.57591 0.88237 0.3842 0.0
C2503 C 0.58628 0.87905 0.39873 0.0
C2504 C 0.55776 0.88027 0.38469 0.0
C2505 C 0.51935 0.86173 0.40862 0.0
H2506 H 0.49757 0.89942 0.38729 0.0
C2507 C 0.44507 0.87165 0.41443 0.0
C2508 C 0.43668 0.87892 0.40034 0.0
C2509 C 0.46308 0.86995 0.4144 0.0
C2510 C 0.50328 0.8886 0.39308 0.0
H2511 H 0.58546 0.87 0.425 0.0
H2512 H 0.55347 0.86628 0.42591 0.0
H2513 H 0.52892 0.89917 0.38716 0.0
H2514 H 0.44073 0.88932 0.37481 0.0
H2515 H 0.47174 0.88595 0.37453 0.0
H2516 H 0.4935 0.8512 0.41454 0.0
C2517 C 0.55954 0.87049 0.41405 0.0
C2518 C 0.52141 0.88847 0.39304 0.0
C2519 C 0.5779 0.87255 0.41353 0.0
C2520 C 0.44668 0.88375 0.38595 0.0
C2521 C 0.4646 0.88197 0.38587 0.0
C2522 C 0.50108 0.86181 0.40861 0.0
C2523 C 0.54922 0.8749 0.39978 0.0
C2524 C 0.52977 0.87497 0.40062 0.0
C2525 C 0.47323 0.87545 0.40026 0.0
C2526 C 0.49274 0.87519 0.40066 0.0
H2527 H 0.58185 0.88722 0.37249 0.0
H2528 H 0.55038 0.88331 0.37326 0.0
H2529 H 0.52526 0.85108 0.41455 0.0
H2530 H 0.43785 0.86788 0.42579 0.0
H2531 H 0.46914 0.86495 0.42577 0.0
C2532 C 0.64902 0.0774 0.90793 0.0
C2533 C 0.66337 0.08903 0.90394 0.0
C2534 C 0.65075 0.05958 0.90951 0.0
C2535 C 0.67887 0.02591 0.89469 0.0
H2536 H 0.65056 0.99616 0.9247 0.0
C2537 C 0.66364 0.95288 0.88015 0.0
C2538 C 0.66232 0.94095 0.89363 0.0
C2539 C 0.66625 0.97072 0.88356 0.0
C2540 C 0.65875 1.00426 0.91638 0.0
H2541 H 0.69103 0.09089 0.89926 0.0
H2542 H 0.69411 0.05998 0.90226 0.0
H2543 H 0.65029 0.02767 0.92743 0.0
H2544 H 0.66308 0.93861 0.92145 0.0
H2545 H 0.66761 0.97011 0.92754 0.0
H2546 H 0.6872 1.00257 0.88352 0.0
C2547 C 0.6814 0.06457 0.9039 0.0
C2548 C 0.65844 0.02239 0.9178 0.0
C2549 C 0.67967 0.0824 0.90234 0.0
C2550 C 0.66423 0.94741 0.91077 0.0
C2551 C 0.66662 0.96547 0.91423 0.0
C2552 C 0.67912 1.00784 0.89323 0.0
C2553 C 0.66689 0.0528 0.9071 0.0
C2554 C 0.66829 0.03351 0.90677 0.0
C2555 C 0.66748 0.97739 0.90062 0.0
C2556 C 0.66882 0.99669 0.90381 0.0
H2557 H 0.63623 0.08194 0.90917 0.0
H2558 H 0.63921 0.05104 0.91182 0.0
H2559 H 0.68653 0.03388 0.88582 0.0
H2560 H 0.66218 0.9484 0.86679 0.0
H2561 H 0.6666 0.97935 0.87271 0.0
C2562 C 0.44482 0.1466 0.41711 0.0
C2563 C 0.43548 0.14932 0.40178 0.0
C2564 C 0.46312 0.14858 0.4176 0.0
C2565 C 0.50055 0.14937 0.38711 0.0
H2566 H 0.52812 0.1579 0.4293 0.0
C2567 C 0.57275 0.13474 0.39035 0.0
C2568 C 0.58456 0.14417 0.40188 0.0
C2569 C 0.55497 0.13717 0.39034 0.0
C2570 C 0.52075 0.15574 0.41728 0.0
H2571 H 0.43792 0.15698 0.3752 0.0
H2572 H 0.46953 0.16175 0.37628 0.0
H2573 H 0.49695 0.16029 0.42964 0.0
H2574 H 0.58676 0.16397 0.42219 0.0
H2575 H 0.5559 0.1688 0.42169 0.0
H2576 H 0.52432 0.14553 0.37457 0.0
C2577 C 0.463 0.15739 0.38784 0.0
C2578 C 0.50266 0.15684 0.41754 0.0
C2579 C 0.44477 0.15502 0.38727 0.0
C2580 C 0.57808 0.15647 0.41311 0.0
C2581 C 0.56026 0.15909 0.41294 0.0
C2582 C 0.51861 0.14854 0.3868 0.0
C2583 C 0.47259 0.15352 0.40279 0.0
C2584 C 0.49216 0.15348 0.40249 0.0
C2585 C 0.54832 0.14933 0.40168 0.0
C2586 C 0.52906 0.15142 0.40192 0.0
H2587 H 0.43802 0.14173 0.42836 0.0
H2588 H 0.46978 0.14526 0.42935 0.0
H2589 H 0.49317 0.14634 0.37522 0.0
H2590 H 0.57715 0.12499 0.38164 0.0
H2591 H 0.5464 0.12905 0.3817 0.0
C2592 C 0.13075 0.37531 0.96324 0.0
C2593 C 0.11568 0.37309 0.95255 0.0
C2594 C 0.1298 0.37341 0.98124 0.0
C2595 C 0.0993 0.37751 0.01686 0.0
H2596 H 0.13439 0.35733 0.04464 0.0
C2597 C 0.11209 0.39483 0.08928 0.0
C2598 C 0.11522 0.38171 0.10096 0.0
C2599 C 0.1104 0.39133 0.07147 0.0
C2600 C 0.12437 0.36284 0.03708 0.0
H2601 H 0.08781 0.36664 0.95259 0.0
H2602 H 0.08612 0.36346 0.98393 0.0
H2603 H 0.13521 0.35533 0.01299 0.0
H2604 H 0.11889 0.35444 0.10293 0.0
H2605 H 0.11629 0.3483 0.07149 0.0
H2606 H 0.08877 0.38549 0.04088 0.0
C2607 C 0.09872 0.36669 0.97837 0.0
C2608 C 0.12493 0.36184 0.01891 0.0
C2609 C 0.0997 0.36837 0.96034 0.0
C2610 C 0.1163 0.36479 0.09432 0.0
C2611 C 0.11497 0.36133 0.07631 0.0
C2612 C 0.09889 0.37872 0.03498 0.0
C2613 C 0.11371 0.36947 0.98914 0.0
C2614 C 0.1125 0.36933 1.00852 0.0
C2615 C 0.1121 0.37463 0.06464 0.0
C2616 C 0.11153 0.37161 0.04538 0.0
H2617 H 0.14329 0.37902 0.95777 0.0
H2618 H 0.14161 0.37579 0.98904 0.0
H2619 H 0.08958 0.38356 1.00938 0.0
H2620 H 0.11123 0.40802 0.09391 0.0
H2621 H 0.10837 0.40194 0.06297 0.0
C2622 C 0.11242 0.64196 0.91535 0.0
C2623 C 0.12194 0.65567 0.90716 0.0
C2624 C 0.11037 0.64223 0.93333 0.0
C2625 C 0.11572 0.67034 0.97363 0.0
H2626 H 0.11979 0.62623 0.99538 0.0
C2627 C 0.12627 0.66234 0.04851 0.0
C2628 C 0.11898 0.64692 0.05579 0.0
C2629 C 0.12494 0.66488 0.03055 0.0
C2630 C 0.11834 0.63865 0.9896 0.0
H2631 H 0.1362 0.6808 0.91163 0.0
H2632 H 0.13276 0.68124 0.94297 0.0
H2633 H 0.12044 0.62789 0.96415 0.0
H2634 H 0.10347 0.62271 0.04992 0.0
H2635 H 0.10074 0.62731 0.01905 0.0
H2636 H 0.11391 0.68107 0.99934 0.0
C2637 C 0.1267 0.67029 0.93547 0.0
C2638 C 0.1187 0.6396 0.97155 0.0
C2639 C 0.12868 0.67005 0.91742 0.0
C2640 C 0.10939 0.63469 0.04482 0.0
C2641 C 0.10799 0.63725 0.027 0.0
C2642 C 0.11537 0.66938 0.9918 0.0
C2643 C 0.11789 0.65617 0.94378 0.0
C2644 C 0.1173 0.65542 0.9632 0.0
C2645 C 0.11624 0.65208 0.01944 0.0
C2646 C 0.11657 0.65347 1.00007 0.0
H2647 H 0.10697 0.63067 0.90793 0.0
H2648 H 0.10312 0.63129 0.93907 0.0
H2649 H 0.11449 0.68275 0.96777 0.0
H2650 H 0.13388 0.67198 0.0565 0.0
H2651 H 0.13149 0.67647 0.02528 0.0
C2652 C 0.85986 0.62 0.46606 0.0
C2653 C 0.87587 0.61992 0.45769 0.0
C2654 C 0.85887 0.61793 0.48406 0.0
C2655 C 0.88337 0.60331 0.52261 0.0
H2656 H 0.85661 0.63461 0.54853 0.0
C2657 C 0.89658 0.61804 0.59532 0.0
C2658 C 0.88304 0.62184 0.6063 0.0
C2659 C 0.89365 0.61528 0.57752 0.0
C2660 C 0.86392 0.62553 0.54155 0.0
H2661 H 0.9033 0.61703 0.46183 0.0
H2662 H 0.90158 0.61327 0.49293 0.0
H2663 H 0.85536 0.63437 0.51694 0.0
H2664 H 0.85553 0.62518 0.60696 0.0
H2665 H 0.85028 0.62017 0.5757 0.0
H2666 H 0.89211 0.59459 0.54711 0.0
C2667 C 0.88971 0.61486 0.48566 0.0
C2668 C 0.86322 0.62541 0.52335 0.0
C2669 C 0.89071 0.61706 0.46774 0.0
C2670 C 0.86623 0.62214 0.59896 0.0
C2671 C 0.8633 0.61948 0.58098 0.0
C2672 C 0.88402 0.60338 0.54076 0.0
C2673 C 0.87384 0.61557 0.49419 0.0
C2674 C 0.87322 0.61455 0.51358 0.0
C2675 C 0.87705 0.61626 0.56994 0.0
C2676 C 0.87462 0.61476 0.55057 0.0
H2677 H 0.84816 0.62229 0.45881 0.0
H2678 H 0.84638 0.61837 0.49007 0.0
H2679 H 0.89097 0.59448 0.51564 0.0
H2680 H 0.90972 0.61771 0.60042 0.0
H2681 H 0.90468 0.61309 0.56961 0.0
C2682 C 0.91294 0.37598 0.93271 0.0
C2683 C 0.9036 0.36221 0.92344 0.0
C2684 C 0.91474 0.37575 0.9508 0.0
C2685 C 0.90865 0.34744 0.98968 0.0
H2686 H 0.90612 0.3917 0.01333 0.0
C2687 C 0.89818 0.35609 0.06462 0.0
C2688 C 0.90637 0.37117 0.07278 0.0
C2689 C 0.89937 0.35334 0.04659 0.0
C2690 C 0.9071 0.37922 1.00702 0.0
H2691 H 0.88927 0.3371 0.92619 0.0
H2692 H 0.89218 0.33679 0.95767 0.0
H2693 H 0.90542 0.39019 0.982 0.0
H2694 H 0.9233 0.39444 0.06847 0.0
H2695 H 0.92571 0.38949 0.03754 0.0
H2696 H 0.90994 0.33651 0.01498 0.0
C2697 C 0.89837 0.34772 0.95096 0.0
C2698 C 0.90674 0.37835 0.9889 0.0
C2699 C 0.89667 0.3479 0.93281 0.0
C2700 C 0.9167 0.38274 0.06266 0.0
C2701 C 0.91793 0.37999 0.04481 0.0
C2702 C 0.90893 0.34831 1.00791 0.0
C2703 C 0.90711 0.36183 0.96032 0.0
C2704 C 0.90762 0.36249 0.97985 0.0
C2705 C 0.90878 0.36561 0.03633 0.0
C2706 C 0.9083 0.36426 0.01687 0.0
H2707 H 0.91851 0.38721 0.92601 0.0
H2708 H 0.92196 0.38669 0.95735 0.0
H2709 H 0.90949 0.33497 0.98332 0.0
H2710 H 0.88996 0.34699 0.07193 0.0
H2711 H 0.89214 0.34209 0.04058 0.0
C2712 C 0.1533 0.39005 0.59333 0.0
C2713 C 0.15654 0.4053 0.60356 0.0
C2714 C 0.1556 0.39022 0.57538 0.0
C2715 C 0.15641 0.41965 0.53802 0.0
H2716 H 0.17345 0.38053 0.51375 0.0
C2717 C 0.1589 0.41611 0.46238 0.0
C2718 C 0.15316 0.39991 0.45472 0.0
C2719 C 0.1622 0.41779 0.4804 0.0
C2720 C 0.16852 0.39154 0.52023 0.0
H2721 H 0.16508 0.43268 0.6027 0.0
H2722 H 0.16911 0.43297 0.57139 0.0
H2723 H 0.17358 0.38138 0.54523 0.0
H2724 H 0.14721 0.37267 0.46008 0.0
H2725 H 0.15287 0.37554 0.49094 0.0
H2726 H 0.15092 0.42959 0.51298 0.0
C2727 C 0.16471 0.42086 0.57729 0.0
C2728 C 0.16861 0.39202 0.53839 0.0
C2729 C 0.16257 0.42065 0.59531 0.0
C2730 C 0.15163 0.38539 0.46543 0.0
C2731 C 0.15499 0.38703 0.48326 0.0
C2732 C 0.15623 0.41913 0.51981 0.0
C2733 C 0.16106 0.40567 0.56699 0.0
C2734 C 0.16229 0.40593 0.5476 0.0
C2735 C 0.16 0.40328 0.49117 0.0
C2736 C 0.16198 0.4049 0.51059 0.0
H2737 H 0.14853 0.378 0.59914 0.0
H2738 H 0.15245 0.37829 0.56798 0.0
H2739 H 0.15129 0.43052 0.54457 0.0
H2740 H 0.16008 0.4276 0.45461 0.0
H2741 H 0.16623 0.43052 0.48591 0.0
C2742 C 0.91465 0.67247 0.96751 0.0
C2743 C 0.91306 0.6554 0.96066 0.0
C2744 C 0.91751 0.67564 0.98545 0.0
C2745 C 0.93116 0.65431 0.02624 0.0
H2746 H 0.90341 0.68666 0.04939 0.0
C2747 C 0.91716 0.65058 0.09941 0.0
C2748 C 0.91574 0.66592 0.10916 0.0
C2749 C 0.91936 0.65098 0.08146 0.0
C2750 C 0.91148 0.67774 0.04317 0.0
H2751 H 0.91402 0.62844 0.96734 0.0
H2752 H 0.91901 0.63388 0.99803 0.0
H2753 H 0.90309 0.68474 0.01781 0.0
H2754 H 0.91595 0.69383 0.10746 0.0
H2755 H 0.91991 0.69455 0.07616 0.0
H2756 H 0.93926 0.64701 0.05152 0.0
C2757 C 0.91815 0.64492 0.98979 0.0
C2758 C 0.91131 0.67666 0.02497 0.0
C2759 C 0.91516 0.64177 0.97207 0.0
C2760 C 0.9171 0.68175 0.10045 0.0
C2761 C 0.91919 0.68214 0.08242 0.0
C2762 C 0.9313 0.65536 0.04437 0.0
C2763 C 0.91909 0.66185 0.99689 0.0
C2764 C 0.92086 0.66465 0.01621 0.0
C2765 C 0.92012 0.66673 0.07259 0.0
C2766 C 0.9212 0.66683 0.05317 0.0
H2767 H 0.91296 0.68327 0.95916 0.0
H2768 H 0.9183 0.68889 0.99037 0.0
H2769 H 0.93902 0.64517 0.02006 0.0
H2770 H 0.91605 0.63811 0.10558 0.0
H2771 H 0.91981 0.63879 0.07444 0.0
C2772 C 0.87262 0.38054 0.43192 0.0
C2773 C 0.87095 0.39631 0.4236 0.0
C2774 C 0.87088 0.37929 0.44988 0.0
C2775 C 0.85671 0.40228 0.48992 0.0
H2776 H 0.8883 0.37314 0.51232 0.0
C2777 C 0.87099 0.40179 0.56522 0.0
C2778 C 0.87429 0.38576 0.57226 0.0
C2779 C 0.86816 0.4033 0.54724 0.0
C2780 C 0.87919 0.38118 0.50634 0.0
H2781 H 0.86556 0.42303 0.42783 0.0
H2782 H 0.86281 0.42096 0.45915 0.0
H2783 H 0.88801 0.37522 0.48112 0.0
H2784 H 0.8758 0.35853 0.56599 0.0
H2785 H 0.87051 0.36104 0.53512 0.0
H2786 H 0.84826 0.40848 0.51548 0.0
C2787 C 0.86521 0.40942 0.45178 0.0
C2788 C 0.87898 0.38235 0.4883 0.0
C2789 C 0.86681 0.41063 0.43373 0.0
C2790 C 0.87345 0.37113 0.56106 0.0
C2791 C 0.87059 0.3726 0.54325 0.0
C2792 C 0.857 0.40118 0.5081 0.0
C2793 C 0.86763 0.39382 0.46023 0.0
C2794 C 0.86765 0.39279 0.47969 0.0
C2795 C 0.86857 0.3888 0.53593 0.0
C2796 C 0.86814 0.39046 0.51657 0.0
H2797 H 0.87572 0.36919 0.4246 0.0
H2798 H 0.87237 0.36689 0.45568 0.0
H2799 H 0.8477 0.41039 0.48389 0.0
H2800 H 0.87172 0.41337 0.5734 0.0
H2801 H 0.86662 0.41599 0.54212 0.0
C2802 C 0.14584 0.64925 0.54489 0.0
C2803 C 0.14881 0.6355 0.55589 0.0
C2804 C 0.14874 0.64808 0.52713 0.0
C2805 C 0.15155 0.61625 0.49099 0.0
H2806 H 0.16731 0.65738 0.46601 0.0
C2807 C 0.15772 0.61504 0.41592 0.0
C2808 C 0.15148 0.62905 0.40711 0.0
C2809 C 0.15989 0.61559 0.43404 0.0
C2810 C 0.16276 0.64577 0.47271 0.0
H2811 H 0.15763 0.60974 0.55658 0.0
H2812 H 0.16284 0.60769 0.52538 0.0
H2813 H 0.16697 0.6585 0.49748 0.0
H2814 H 0.14314 0.65486 0.41063 0.0
H2815 H 0.14697 0.65587 0.44198 0.0
H2816 H 0.14712 0.6036 0.46614 0.0
C2817 C 0.15809 0.6194 0.53063 0.0
C2818 C 0.16257 0.64641 0.49085 0.0
C2819 C 0.15527 0.62063 0.54857 0.0
C2820 C 0.14809 0.64386 0.41688 0.0
C2821 C 0.15033 0.64445 0.43495 0.0
C2822 C 0.15176 0.61561 0.4728 0.0
C2823 C 0.15471 0.63309 0.51961 0.0
C2824 C 0.15664 0.63176 0.5003 0.0
C2825 C 0.15597 0.63021 0.44388 0.0
C2826 C 0.15708 0.63045 0.46335 0.0
H2827 H 0.14088 0.66095 0.54994 0.0
H2828 H 0.1457 0.65882 0.5192 0.0
H2829 H 0.14673 0.60474 0.4977 0.0
H2830 H 0.1604 0.60337 0.40889 0.0
H2831 H 0.16448 0.60446 0.44034 0.0
C2832 C 0.32651 0.13947 0.37925 0.0
C2833 C 0.33281 0.14158 0.39645 0.0
C2834 C 0.30856 0.13799 0.37539 0.0
C2835 C 0.26672 0.12311 0.3941 0.0
H2836 H 0.24569 0.14835 0.35757 0.0
C2837 C 0.19522 0.10621 0.36997 0.0
C2838 C 0.1848 0.12023 0.36965 0.0
C2839 C 0.21339 0.10905 0.37204 0.0
C2840 C 0.25137 0.14118 0.36779 0.0
H2841 H 0.32498 0.14397 0.42306 0.0
H2842 H 0.2937 0.14103 0.41636 0.0
H2843 H 0.27704 0.15347 0.36393 0.0
H2844 H 0.18554 0.14827 0.37055 0.0
H2845 H 0.21724 0.1532 0.37349 0.0
H2846 H 0.24116 0.11061 0.39779 0.0
C2847 C 0.30269 0.14067 0.40583 0.0
C2848 C 0.26935 0.14407 0.3714 0.0
C2849 C 0.32065 0.14251 0.40966 0.0
C2850 C 0.19314 0.13716 0.37062 0.0
C2851 C 0.21133 0.14 0.37233 0.0
C2852 C 0.24884 0.11995 0.39025 0.0
C2853 C 0.29639 0.13819 0.38866 0.0
C2854 C 0.27724 0.13517 0.3847 0.0
C2855 C 0.22168 0.12598 0.37351 0.0
C2856 C 0.24089 0.129 0.37711 0.0
H2857 H 0.33547 0.1386 0.36874 0.0
H2858 H 0.30418 0.13603 0.36204 0.0
H2859 H 0.27236 0.11591 0.40432 0.0
H2860 H 0.18929 0.093 0.36945 0.0
H2861 H 0.22097 0.09796 0.37275 0.0
C2862 C 0.40039 0.69569 0.8912 0.0
C2863 C 0.39305 0.68448 0.87794 0.0
C2864 C 0.39802 0.71341 0.89136 0.0
C2865 C 0.38289 0.7498 0.86548 0.0
H2866 H 0.37552 0.7691 0.91112 0.0
C2867 C 0.36579 0.82139 0.87645 0.0
C2868 C 0.37573 0.8307 0.8896 0.0
C2869 C 0.36589 0.80322 0.87476 0.0
C2870 C 0.37763 0.76401 0.89826 0.0
H2871 H 0.37802 0.68344 0.85394 0.0
H2872 H 0.37378 0.71451 0.85418 0.0
H2873 H 0.38074 0.73874 0.9078 0.0
H2874 H 0.39289 0.82804 0.9117 0.0
H2875 H 0.39268 0.79667 0.90911 0.0
H2876 H 0.37973 0.77528 0.85604 0.0
C2877 C 0.38155 0.70956 0.86445 0.0
C2878 C 0.38074 0.74652 0.89634 0.0
C2879 C 0.38407 0.69172 0.86423 0.0
C2880 C 0.38492 0.82129 0.90155 0.0
C2881 C 0.38482 0.80323 0.90002 0.0
C2882 C 0.3797 0.76737 0.86741 0.0
C2883 C 0.388 0.72056 0.87836 0.0
C2884 C 0.38378 0.73916 0.87998 0.0
C2885 C 0.37572 0.79393 0.88633 0.0
C2886 C 0.37733 0.77481 0.88389 0.0
H2887 H 0.40743 0.69061 0.90195 0.0
H2888 H 0.40372 0.72143 0.902 0.0
H2889 H 0.38519 0.74472 0.85268 0.0
H2890 H 0.35883 0.82822 0.86683 0.0
H2891 H 0.35857 0.79651 0.86416 0.0
C2892 C 0.6949 0.88469 0.38229 0.0
C2893 C 0.68871 0.88283 0.39921 0.0
C2894 C 0.71283 0.88575 0.37911 0.0
C2895 C 0.75482 0.90067 0.39935 0.0
H2896 H 0.77563 0.8733 0.36414 0.0
C2897 C 0.82559 0.91674 0.37649 0.0
C2898 C 0.83642 0.90307 0.37744 0.0
C2899 C 0.80751 0.91368 0.37822 0.0
C2900 C 0.77 0.88105 0.374 0.0
H2901 H 0.69673 0.88051 0.42601 0.0
H2902 H 0.72796 0.88283 0.4205 0.0
H2903 H 0.74424 0.86863 0.36916 0.0
H2904 H 0.83646 0.8753 0.38032 0.0
H2905 H 0.8048 0.86989 0.38259 0.0
H2906 H 0.78042 0.9134 0.4039 0.0
C2907 C 0.71889 0.88324 0.40967 0.0
C2908 C 0.75202 0.87842 0.37684 0.0
C2909 C 0.70096 0.88176 0.4128 0.0
C2910 C 0.82855 0.88614 0.37942 0.0
C2911 C 0.8104 0.88302 0.38074 0.0
C2912 C 0.77268 0.90359 0.39622 0.0
C2913 C 0.72508 0.88542 0.3928 0.0
C2914 C 0.74421 0.88812 0.38964 0.0
C2915 C 0.79968 0.89681 0.38056 0.0
C2916 C 0.78054 0.89377 0.38356 0.0
H2917 H 0.68588 0.88566 0.37151 0.0
H2918 H 0.71714 0.88749 0.36598 0.0
H2919 H 0.74923 0.90845 0.40921 0.0
H2920 H 0.83115 0.92997 0.37514 0.0
H2921 H 0.79964 0.92457 0.3779 0.0
C2922 C 0.63225 0.19466 0.87565 0.0
C2923 C 0.64341 0.18717 0.88741 0.0
C2924 C 0.63205 0.21265 0.87462 0.0
C2925 C 0.65662 0.25501 0.88814 0.0
H2926 H 0.61281 0.27319 0.8761 0.0
C2927 C 0.64481 0.32709 0.8983 0.0
C2928 C 0.63662 0.33577 0.88497 0.0
C2929 C 0.64589 0.30918 0.89747 0.0
C2930 C 0.62519 0.26833 0.87926 0.0
H2931 H 0.66335 0.19304 0.90725 0.0
H2932 H 0.66262 0.2246 0.906 0.0
H2933 H 0.61429 0.24199 0.87786 0.0
H2934 H 0.62299 0.33197 0.86025 0.0
H2935 H 0.62445 0.30027 0.859 0.0
H2936 H 0.66725 0.28155 0.89023 0.0
C2937 C 0.65421 0.21648 0.89721 0.0
C2938 C 0.62612 0.25034 0.88025 0.0
C2939 C 0.65461 0.19833 0.89803 0.0
C2940 C 0.62934 0.32579 0.87076 0.0
C2941 C 0.63017 0.30763 0.87007 0.0
C2942 C 0.65562 0.273 0.8874 0.0
C2943 C 0.6428 0.22395 0.88554 0.0
C2944 C 0.64186 0.24331 0.88469 0.0
C2945 C 0.63864 0.29915 0.88338 0.0
C2946 C 0.63988 0.27993 0.88299 0.0
H2947 H 0.62362 0.18656 0.86701 0.0
H2948 H 0.62347 0.21763 0.86506 0.0
H2949 H 0.66907 0.25031 0.89127 0.0
H2950 H 0.65068 0.33417 0.90948 0.0
H2951 H 0.65228 0.30313 0.90805 0.0
C2952 C 0.36132 0.90215 0.65281 0.0
C2953 C 0.36919 0.89426 0.63882 0.0
C2954 C 0.34329 0.90276 0.65328 0.0
C2955 C 0.30098 0.88467 0.63254 0.0
H2956 H 0.28422 0.9256 0.65393 0.0
C2957 C 0.22961 0.90079 0.62471 0.0
C2958 C 0.22088 0.90611 0.63947 0.0
C2959 C 0.24753 0.89933 0.62517 0.0
C2960 C 0.28865 0.91399 0.64808 0.0
H2961 H 0.36401 0.88044 0.61441 0.0
H2962 H 0.33239 0.88188 0.61488 0.0
H2963 H 0.31535 0.92279 0.65302 0.0
H2964 H 0.22465 0.91454 0.66627 0.0
H2965 H 0.25625 0.91234 0.66697 0.0
H2966 H 0.27416 0.87621 0.62715 0.0
C2967 C 0.34021 0.88737 0.62576 0.0
C2968 C 0.30659 0.9123 0.64758 0.0
C2969 C 0.35839 0.88653 0.62543 0.0
C2970 C 0.23086 0.91046 0.65464 0.0
C2971 C 0.24898 0.90918 0.65504 0.0
C2972 C 0.28305 0.88647 0.63286 0.0
C2973 C 0.33239 0.89576 0.63961 0.0
C2974 C 0.31311 0.89758 0.63985 0.0
C2975 C 0.25749 0.9033 0.64035 0.0
C2976 C 0.27661 0.90116 0.64063 0.0
H2977 H 0.36917 0.90804 0.66351 0.0
H2978 H 0.33795 0.90881 0.66447 0.0
H2979 H 0.30529 0.873 0.62673 0.0
H2980 H 0.22254 0.89736 0.61271 0.0
H2981 H 0.25361 0.89509 0.61353 0.0
C2982 C 0.6132 0.70731 0.14574 0.0
C2983 C 0.62747 0.69717 0.14607 0.0
C2984 C 0.61565 0.72539 0.14398 0.0
C2985 C 0.64714 0.764 0.14962 0.0
H2986 H 0.62009 0.78357 0.11331 0.0
C2987 C 0.64251 0.83855 0.14055 0.0
C2988 C 0.64403 0.84468 0.12358 0.0
C2989 C 0.64175 0.8207 0.1438 0.0
C2990 C 0.62779 0.77833 0.12348 0.0
H2991 H 0.6556 0.6984 0.14546 0.0
H2992 H 0.65987 0.73 0.14309 0.0
H2993 H 0.6159 0.75248 0.11878 0.0
H2994 H 0.64611 0.83662 0.09678 0.0
H2995 H 0.64441 0.80553 0.10242 0.0
H2996 H 0.65878 0.78998 0.15452 0.0
C2997 C 0.64676 0.72389 0.14398 0.0
C2998 C 0.62528 0.76051 0.12671 0.0
C2999 C 0.6443 0.70576 0.14537 0.0
C3000 C 0.6451 0.83245 0.11001 0.0
C3001 C 0.64397 0.81458 0.11323 0.0
C3002 C 0.64938 0.78192 0.14664 0.0
C3003 C 0.63245 0.73392 0.14286 0.0
C3004 C 0.63496 0.75306 0.13977 0.0
C3005 C 0.64209 0.80843 0.13015 0.0
C3006 C 0.63981 0.78933 0.13344 0.0
H3007 H 0.60005 0.7012 0.14607 0.0
H3008 H 0.60435 0.7327 0.14331 0.0
H3009 H 0.65479 0.75872 0.1598 0.0
H3010 H 0.64154 0.84755 0.15132 0.0
H3011 H 0.64024 0.81645 0.15698 0.0
C3012 C 0.81193 0.12449 0.62595 0.0
C3013 C 0.82097 0.11924 0.64068 0.0
C3014 C 0.79399 0.12578 0.62598 0.0
C3015 C 0.75643 0.12866 0.65538 0.0
H3016 H 0.72974 0.12036 0.6125 0.0
C3017 C 0.681 0.12263 0.65168 0.0
C3018 C 0.67254 0.13059 0.63806 0.0
C3019 C 0.69908 0.12227 0.65228 0.0
C3020 C 0.73702 0.12295 0.62453 0.0
H3021 H 0.81776 0.11094 0.66706 0.0
H3022 H 0.78616 0.1126 0.66699 0.0
H3023 H 0.76059 0.11612 0.61331 0.0
H3024 H 0.67673 0.14465 0.61442 0.0
H3025 H 0.70856 0.14374 0.61525 0.0
H3026 H 0.73253 0.13491 0.66665 0.0
C3027 C 0.79316 0.11613 0.65544 0.0
C3028 C 0.75482 0.12053 0.62505 0.0
C3029 C 0.81131 0.115 0.65546 0.0
C3030 C 0.6828 0.13848 0.62512 0.0
C3031 C 0.70101 0.13784 0.62555 0.0
C3032 C 0.73855 0.13085 0.6549 0.0
C3033 C 0.78421 0.12164 0.64068 0.0
C3034 C 0.76491 0.12346 0.64045 0.0
C3035 C 0.70937 0.12964 0.63913 0.0
C3036 C 0.7286 0.12809 0.63945 0.0
H3037 H 0.81876 0.12805 0.6143 0.0
H3038 H 0.78792 0.13048 0.61448 0.0
H3039 H 0.76363 0.13135 0.66744 0.0
H3040 H 0.67358 0.11647 0.66194 0.0
H3041 H 0.70497 0.11571 0.66283 0.0
C3042 C 0.37267 0.19493 0.11172 0.0
C3043 C 0.37611 0.18325 0.12478 0.0
C3044 C 0.37375 0.21291 0.11523 0.0
C3045 C 0.39278 0.24642 0.14793 0.0
H3046 H 0.36541 0.27685 0.12185 0.0
C3047 C 0.4084 0.32144 0.15061 0.0
C3048 C 0.3949 0.33223 0.14794 0.0
C3049 C 0.40531 0.3033 0.14893 0.0
C3050 C 0.37305 0.26862 0.12949 0.0
H3051 H 0.38267 0.18146 0.15202 0.0
H3052 H 0.38382 0.21247 0.15829 0.0
H3053 H 0.36069 0.24568 0.117 0.0
H3054 H 0.36734 0.33215 0.14204 0.0
H3055 H 0.3618 0.3007 0.13982 0.0
H3056 H 0.40475 0.2693 0.16083 0.0
C3057 C 0.38086 0.20794 0.14515 0.0
C3058 C 0.37052 0.25059 0.12647 0.0
C3059 C 0.37998 0.19002 0.14159 0.0
C3060 C 0.37809 0.32431 0.1442 0.0
C3061 C 0.37495 0.30617 0.14269 0.0
C3062 C 0.39521 0.26443 0.15106 0.0
C3063 C 0.37814 0.21979 0.13197 0.0
C3064 C 0.38041 0.23913 0.13556 0.0
C3065 C 0.38858 0.29532 0.14468 0.0
C3066 C 0.38549 0.27591 0.14182 0.0
H3067 H 0.36985 0.19026 0.09859 0.0
H3068 H 0.37174 0.22143 0.1046 0.0
H3069 H 0.40093 0.23827 0.15509 0.0
H3070 H 0.42156 0.32701 0.1533 0.0
H3071 H 0.41628 0.29562 0.15036 0.0
C3072 C 0.10951 0.38041 0.21617 0.0
C3073 C 0.12332 0.38191 0.20455 0.0
C3074 C 0.11266 0.38221 0.23412 0.0
C3075 C 0.14606 0.38002 0.26895 0.0
H3076 H 0.11881 0.41137 0.29426 0.0
C3077 C 0.14533 0.38587 0.34453 0.0
C3078 C 0.14592 0.40266 0.35201 0.0
C3079 C 0.14385 0.38323 0.3265 0.0
C3080 C 0.1266 0.40262 0.2874 0.0
H3081 H 0.15136 0.38588 0.20294 0.0
H3082 H 0.15686 0.38841 0.23422 0.0
H3083 H 0.11329 0.40615 0.26324 0.0
H3084 H 0.14561 0.42986 0.34616 0.0
H3085 H 0.14274 0.42524 0.31476 0.0
H3086 H 0.15918 0.37629 0.29322 0.0
C3087 C 0.14356 0.38601 0.22942 0.0
C3088 C 0.12331 0.3995 0.26961 0.0
C3089 C 0.1404 0.38455 0.21146 0.0
C3090 C 0.14537 0.41677 0.3409 0.0
C3091 C 0.14354 0.41411 0.32288 0.0
C3092 C 0.14912 0.38289 0.28683 0.0
C3093 C 0.12972 0.38524 0.24101 0.0
C3094 C 0.13303 0.3882 0.2601 0.0
C3095 C 0.14255 0.39728 0.31543 0.0
C3096 C 0.13949 0.39431 0.2963 0.0
H3097 H 0.09618 0.37854 0.21138 0.0
H3098 H 0.10168 0.38137 0.24264 0.0
H3099 H 0.15376 0.37121 0.26208 0.0
H3100 H 0.14561 0.37467 0.35264 0.0
H3101 H 0.14304 0.3701 0.32127 0.0
C3102 C 0.15146 0.61944 0.66924 0.0
C3103 C 0.14997 0.63362 0.65842 0.0
C3104 C 0.15036 0.62133 0.68727 0.0
C3105 C 0.1348 0.65115 0.7216 0.0
H3106 H 0.15739 0.62058 0.7521 0.0
C3107 C 0.13418 0.65502 0.7981 0.0
C3108 C 0.13087 0.63893 0.80614 0.0
C3109 C 0.13653 0.65581 0.78007 0.0
C3110 C 0.15093 0.6292 0.74377 0.0
H3111 H 0.14683 0.66115 0.65835 0.0
H3112 H 0.14568 0.66463 0.6897 0.0
H3113 H 0.16275 0.61948 0.72126 0.0
H3114 H 0.12674 0.61114 0.80106 0.0
H3115 H 0.13098 0.6126 0.77016 0.0
H3116 H 0.12328 0.66103 0.74446 0.0
C3117 C 0.14716 0.65185 0.6843 0.0
C3118 C 0.15392 0.62851 0.72596 0.0
C3119 C 0.14806 0.64991 0.66623 0.0
C3120 C 0.12936 0.62381 0.79553 0.0
C3121 C 0.13192 0.62459 0.77771 0.0
C3122 C 0.13201 0.65201 0.73952 0.0
C3123 C 0.14793 0.63752 0.69516 0.0
C3124 C 0.14567 0.63923 0.71445 0.0
C3125 C 0.13588 0.64053 0.76973 0.0
C3126 C 0.13979 0.64081 0.75081 0.0
H3127 H 0.15268 0.60664 0.66374 0.0
H3128 H 0.15074 0.60983 0.69493 0.0
H3129 H 0.12796 0.65951 0.71334 0.0
H3130 H 0.13551 0.66693 0.80577 0.0
H3131 H 0.13952 0.66832 0.77432 0.0
C3132 C 0.88292 0.6419 0.21826 0.0
C3133 C 0.89661 0.65087 0.20943 0.0
C3134 C 0.88307 0.64117 0.23629 0.0
C3135 C 0.91223 0.64411 0.27478 0.0
H3136 H 0.86943 0.64749 0.29948 0.0
C3137 C 0.91091 0.64503 0.34967 0.0
C3138 C 0.89617 0.63769 0.3582 0.0
C3139 C 0.91102 0.64635 0.33166 0.0
C3140 C 0.88146 0.64622 0.29283 0.0
H3141 H 0.92123 0.66633 0.213 0.0
H3142 H 0.92164 0.66491 0.24482 0.0
H3143 H 0.86983 0.65163 0.26835 0.0
H3144 H 0.87001 0.62558 0.35405 0.0
H3145 H 0.87028 0.62751 0.32243 0.0
H3146 H 0.92381 0.63838 0.29915 0.0
C3147 C 0.91073 0.65841 0.23755 0.0
C3148 C 0.88172 0.64872 0.27491 0.0
C3149 C 0.91046 0.65934 0.21932 0.0
C3150 C 0.88161 0.63129 0.348 0.0
C3151 C 0.88173 0.63257 0.32983 0.0
C3152 C 0.91194 0.64149 0.2927 0.0
C3153 C 0.897 0.64927 0.24626 0.0
C3154 C 0.89709 0.64766 0.26559 0.0
C3155 C 0.89642 0.64029 0.32138 0.0
C3156 C 0.89655 0.6425 0.30206 0.0
H3157 H 0.87193 0.63525 0.21119 0.0
H3158 H 0.87239 0.63383 0.24239 0.0
H3159 H 0.92423 0.6429 0.26806 0.0
H3160 H 0.92243 0.65018 0.35694 0.0
H3161 H 0.92249 0.65263 0.32588 0.0
C3162 C 0.89451 0.36023 0.81288 0.0
C3163 C 0.89956 0.3758 0.8221 0.0
C3164 C 0.89361 0.35982 0.7946 0.0
C3165 C 0.90649 0.38706 0.75594 0.0
H3166 H 0.86976 0.35806 0.73191 0.0
C3167 C 0.88442 0.4004 0.68589 0.0
C3168 C 0.88444 0.38646 0.67392 0.0
C3169 C 0.88601 0.39774 0.70374 0.0
C3170 C 0.88013 0.36619 0.73845 0.0
H3171 H 0.90812 0.40301 0.81896 0.0
H3172 H 0.90608 0.40243 0.78793 0.0
H3173 H 0.874 0.35554 0.76321 0.0
H3174 H 0.88543 0.35862 0.67158 0.0
H3175 H 0.88752 0.35394 0.70281 0.0
H3176 H 0.91209 0.39819 0.73131 0.0
C3177 C 0.90317 0.39033 0.79444 0.0
C3178 C 0.88268 0.36467 0.75644 0.0
C3179 C 0.90421 0.39069 0.8125 0.0
C3180 C 0.8853 0.36966 0.68039 0.0
C3181 C 0.8865 0.36696 0.6983 0.0
C3182 C 0.9037 0.3888 0.73813 0.0
C3183 C 0.89769 0.37497 0.78506 0.0
C3184 C 0.89577 0.37528 0.76558 0.0
C3185 C 0.8873 0.38103 0.71018 0.0
C3186 C 0.89038 0.37855 0.72914 0.0
H3187 H 0.89072 0.34852 0.81976 0.0
H3188 H 0.88955 0.34763 0.78799 0.0
H3189 H 0.91711 0.3951 0.76214 0.0
H3190 H 0.88393 0.41352 0.68145 0.0
H3191 H 0.88645 0.40884 0.71254 0.0
C3192 C 0.72914 0.89963 0.62046 0.0
C3193 C 0.7208 0.8827 0.62008 0.0
C3194 C 0.74728 0.90255 0.62242 0.0
C3195 C 0.78559 0.88177 0.63944 0.0
H3196 H 0.81199 0.91915 0.61648 0.0
C3197 C 0.85805 0.90217 0.65812 0.0
C3198 C 0.8695 0.90563 0.64447 0.0
C3199 C 0.83994 0.90021 0.65511 0.0
C3200 C 0.80487 0.9086 0.62297 0.0
H3201 H 0.72531 0.85552 0.62102 0.0
H3202 H 0.75695 0.86056 0.62425 0.0
H3203 H 0.78089 0.91335 0.61019 0.0
H3204 H 0.87064 0.9103 0.61696 0.0
H3205 H 0.83928 0.90705 0.61176 0.0
H3206 H 0.80961 0.87688 0.65207 0.0
C3207 C 0.7494 0.87165 0.62322 0.0
C3208 C 0.78693 0.90535 0.61946 0.0
C3209 C 0.73123 0.86873 0.62115 0.0
C3210 C 0.86229 0.90774 0.62785 0.0
C3211 C 0.84421 0.90588 0.62485 0.0
C3212 C 0.80351 0.88508 0.64303 0.0
C3213 C 0.7577 0.88863 0.62419 0.0
C3214 C 0.77699 0.89186 0.62762 0.0
C3215 C 0.83274 0.90176 0.63836 0.0
C3216 C 0.81346 0.89854 0.63485 0.0
H3217 H 0.72159 0.91075 0.61979 0.0
H3218 H 0.75307 0.9158 0.62323 0.0
H3219 H 0.77842 0.87141 0.64617 0.0
H3220 H 0.86308 0.90036 0.67107 0.0
H3221 H 0.83157 0.89731 0.66591 0.0
C3222 C 0.64325 0.2057 0.12541 0.0
C3223 C 0.63375 0.19562 0.1375 0.0
C3224 C 0.64384 0.22397 0.12616 0.0
C3225 C 0.61898 0.25967 0.14341 0.0
H3226 H 0.66022 0.2893 0.13283 0.0
C3227 C 0.62098 0.33545 0.14898 0.0
C3228 C 0.63039 0.34496 0.13641 0.0
C3229 C 0.62185 0.31737 0.15016 0.0
C3230 C 0.64847 0.28128 0.13564 0.0
H3231 H 0.61808 0.19721 0.16037 0.0
H3232 H 0.61928 0.22862 0.16171 0.0
H3233 H 0.66123 0.25793 0.13241 0.0
H3234 H 0.64812 0.34251 0.11523 0.0
H3235 H 0.64932 0.31157 0.11709 0.0
H3236 H 0.60611 0.28295 0.14638 0.0
C3237 C 0.62599 0.22253 0.15141 0.0
C3238 C 0.64909 0.26319 0.1354 0.0
C3239 C 0.62545 0.20439 0.1507 0.0
C3240 C 0.6407 0.33584 0.12519 0.0
C3241 C 0.64153 0.31791 0.12634 0.0
C3242 C 0.61833 0.27776 0.14356 0.0
C3243 C 0.63488 0.23265 0.13897 0.0
C3244 C 0.63434 0.25206 0.13925 0.0
C3245 C 0.63216 0.30829 0.13882 0.0
C3246 C 0.63303 0.28891 0.13958 0.0
H3247 H 0.64971 0.19948 0.115 0.0
H3248 H 0.6508 0.23126 0.1163 0.0
H3249 H 0.60724 0.2516 0.1462 0.0
H3250 H 0.6129 0.34195 0.15785 0.0
H3251 H 0.61453 0.31053 0.16008 0.0
C3252 C 0.18419 0.12973 0.6569 0.0
C3253 C 0.1723 0.12481 0.64326 0.0
C3254 C 0.20223 0.13096 0.65424 0.0
C3255 C 0.23603 0.1185 0.62316 0.0
H3256 H 0.26446 0.15621 0.64624 0.0
C3257 C 0.31167 0.12466 0.62067 0.0
C3258 C 0.3207 0.14128 0.62102 0.0
C3259 C 0.29356 0.12252 0.62253 0.0
C3260 C 0.25675 0.1457 0.6395 0.0
H3261 H 0.17029 0.11695 0.61617 0.0
H3262 H 0.20145 0.11919 0.61154 0.0
H3263 H 0.23341 0.15234 0.65152 0.0
H3264 H 0.31742 0.16874 0.62303 0.0
H3265 H 0.28587 0.16508 0.62584 0.0
H3266 H 0.25928 0.11213 0.6108 0.0
C3267 C 0.19698 0.12191 0.62439 0.0
C3268 C 0.23887 0.14329 0.64277 0.0
C3269 C 0.17899 0.12066 0.62705 0.0
C3270 C 0.31097 0.15574 0.62265 0.0
C3271 C 0.29283 0.1536 0.62449 0.0
C3272 C 0.2539 0.12092 0.61988 0.0
C3273 C 0.20893 0.12733 0.63786 0.0
C3274 C 0.22818 0.12965 0.63466 0.0
C3275 C 0.28384 0.13694 0.62479 0.0
C3276 C 0.26459 0.13456 0.62799 0.0
H3277 H 0.17958 0.13307 0.66954 0.0
H3278 H 0.21092 0.13487 0.66506 0.0
H3279 H 0.2284 0.10774 0.61675 0.0
H3280 H 0.31867 0.11318 0.61959 0.0
H3281 H 0.2873 0.10947 0.62286 0.0
C3282 C 0.378 0.82291 0.12274 0.0
C3283 C 0.38842 0.83351 0.13459 0.0
C3284 C 0.37733 0.80467 0.12353 0.0
C3285 C 0.40305 0.76964 0.14047 0.0
H3286 H 0.36102 0.73972 0.13051 0.0
C3287 C 0.40123 0.69429 0.1463 0.0
C3288 C 0.39142 0.6842 0.13359 0.0
C3289 C 0.40022 0.71239 0.1476 0.0
C3290 C 0.37297 0.74782 0.13317 0.0
H3291 H 0.40566 0.83295 0.15708 0.0
H3292 H 0.40431 0.80161 0.15853 0.0
H3293 H 0.36018 0.77111 0.13001 0.0
H3294 H 0.37257 0.68555 0.11251 0.0
H3295 H 0.37104 0.71656 0.11463 0.0
H3296 H 0.41593 0.74641 0.14339 0.0
C3297 C 0.39694 0.80724 0.14836 0.0
C3298 C 0.37246 0.76592 0.13287 0.0
C3299 C 0.39759 0.82534 0.14759 0.0
C3300 C 0.38036 0.69272 0.12252 0.0
C3301 C 0.37936 0.71066 0.12381 0.0
C3302 C 0.40358 0.75155 0.14071 0.0
C3303 C 0.3871 0.79656 0.13616 0.0
C3304 C 0.3875 0.77715 0.13648 0.0
C3305 C 0.38932 0.72089 0.13628 0.0
C3306 C 0.38858 0.74029 0.13697 0.0
H3307 H 0.37084 0.82866 0.1125 0.0
H3308 H 0.36963 0.79694 0.11385 0.0
H3309 H 0.41501 0.77776 0.14306 0.0
H3310 H 0.4099 0.68827 0.15505 0.0
H3311 H 0.40798 0.7197 0.15753 0.0
C3312 C 0.69204 0.12199 0.37535 0.0
C3313 C 0.68369 0.13129 0.3881 0.0
C3314 C 0.71019 0.12255 0.37488 0.0
C3315 C 0.74972 0.13193 0.40309 0.0
H3316 H 0.77392 0.12759 0.36001 0.0
C3317 C 0.8247 0.13636 0.40158 0.0
C3318 C 0.83285 0.12487 0.39068 0.0
C3319 C 0.80677 0.13768 0.40047 0.0
C3320 C 0.76737 0.1286 0.37217 0.0
H3321 H 0.68825 0.14908 0.41002 0.0
H3322 H 0.72006 0.15037 0.40904 0.0
H3323 H 0.74264 0.13019 0.35947 0.0
H3324 H 0.82815 0.10598 0.36969 0.0
H3325 H 0.79661 0.10829 0.3677 0.0
H3326 H 0.77443 0.13036 0.41578 0.0
C3327 C 0.71244 0.14234 0.39953 0.0
C3328 C 0.74936 0.13014 0.37189 0.0
C3329 C 0.69416 0.14178 0.39999 0.0
C3330 C 0.82241 0.11497 0.37829 0.0
C3331 C 0.80431 0.11635 0.37714 0.0
C3332 C 0.76771 0.13046 0.40336 0.0
C3333 C 0.72075 0.13246 0.38714 0.0
C3334 C 0.7402 0.13177 0.38735 0.0
C3335 C 0.7962 0.12758 0.3884 0.0
C3336 C 0.77686 0.12877 0.38792 0.0
H3337 H 0.68451 0.11374 0.36594 0.0
H3338 H 0.7159 0.11459 0.36526 0.0
H3339 H 0.74322 0.13276 0.41529 0.0
H3340 H 0.83218 0.14437 0.41123 0.0
H3341 H 0.80119 0.14676 0.40911 0.0
C3342 C 0.3875 0.32122 0.86567 0.0
C3343 C 0.39105 0.33279 0.87985 0.0
C3344 C 0.38667 0.30315 0.86783 0.0
C3345 C 0.37791 0.26968 0.90089 0.0
H3346 H 0.39818 0.23896 0.86837 0.0
C3347 C 0.36228 0.19425 0.89925 0.0
C3348 C 0.37619 0.18398 0.89653 0.0
C3349 C 0.36462 0.21243 0.89813 0.0
C3350 C 0.3925 0.24734 0.87764 0.0
H3351 H 0.39675 0.33416 0.90745 0.0
H3352 H 0.39514 0.30283 0.91118 0.0
H3353 H 0.40161 0.27032 0.86428 0.0
H3354 H 0.40361 0.1851 0.89073 0.0
H3355 H 0.40761 0.21663 0.88866 0.0
H3356 H 0.36861 0.24669 0.91412 0.0
C3357 C 0.39298 0.30771 0.89837 0.0
C3358 C 0.39435 0.26535 0.8752 0.0
C3359 C 0.39406 0.32574 0.89618 0.0
C3360 C 0.39259 0.19249 0.89303 0.0
C3361 C 0.39486 0.21062 0.89166 0.0
C3362 C 0.37582 0.25165 0.90317 0.0
C3363 C 0.38909 0.29611 0.88427 0.0
C3364 C 0.38714 0.27683 0.88683 0.0
C3365 C 0.38088 0.22087 0.89398 0.0
C3366 C 0.38314 0.24018 0.89162 0.0
H3367 H 0.38499 0.32611 0.85294 0.0
H3368 H 0.38356 0.29468 0.85667 0.0
H3369 H 0.37203 0.27805 0.91003 0.0
H3370 H 0.34944 0.18821 0.90185 0.0
H3371 H 0.35352 0.21983 0.89993 0.0
C3372 C 0.19665 0.88669 0.39634 0.0
C3373 C 0.18786 0.89832 0.38631 0.0
C3374 C 0.21457 0.8856 0.39504 0.0
C3375 C 0.25528 0.91003 0.38052 0.0
H3376 H 0.27453 0.86597 0.38711 0.0
C3377 C 0.32875 0.90312 0.37299 0.0
C3378 C 0.33728 0.89336 0.3852 0.0
C3379 C 0.3106 0.9028 0.37217 0.0
C3380 C 0.26943 0.87842 0.38541 0.0
H3381 H 0.19141 0.9178 0.36673 0.0
H3382 H 0.22281 0.91575 0.36421 0.0
H3383 H 0.24309 0.8673 0.38664 0.0
H3384 H 0.33297 0.87506 0.40578 0.0
H3385 H 0.30113 0.8744 0.40432 0.0
H3386 H 0.28163 0.92112 0.37924 0.0
C3387 C 0.21573 0.90759 0.37334 0.0
C3388 C 0.2513 0.87922 0.38514 0.0
C3389 C 0.19765 0.9087 0.37467 0.0
C3390 C 0.32694 0.88268 0.39615 0.0
C3391 C 0.30864 0.88233 0.3953 0.0
C3392 C 0.27339 0.90921 0.38071 0.0
C3393 C 0.2245 0.89605 0.38359 0.0
C3394 C 0.24389 0.89506 0.38283 0.0
C3395 C 0.30021 0.89269 0.38352 0.0
C3396 C 0.28078 0.89341 0.38323 0.0
H3397 H 0.18972 0.87846 0.40553 0.0
H3398 H 0.2207 0.8768 0.40342 0.0
H3399 H 0.25024 0.92253 0.37901 0.0
H3400 H 0.33615 0.91142 0.36419 0.0
H3401 H 0.30469 0.91063 0.36264 0.0
C3402 C 0.63006 0.69476 0.8893 0.0
C3403 C 0.63093 0.6874 0.87256 0.0
C3404 C 0.63121 0.71283 0.892 0.0
C3405 C 0.62784 0.75493 0.86986 0.0
H3406 H 0.65572 0.77404 0.90916 0.0
C3407 C 0.63235 0.82857 0.88808 0.0
C3408 C 0.64882 0.83669 0.893 0.0
C3409 C 0.62953 0.81042 0.88638 0.0
C3410 C 0.64794 0.76899 0.89807 0.0
H3411 H 0.63325 0.69358 0.84549 0.0
H3412 H 0.63512 0.72504 0.85015 0.0
H3413 H 0.65185 0.74271 0.90418 0.0
H3414 H 0.67512 0.83175 0.90041 0.0
H3415 H 0.67019 0.8002 0.89762 0.0
H3416 H 0.62417 0.78124 0.8636 0.0
C3417 C 0.63347 0.71681 0.86124 0.0
C3418 C 0.64554 0.75092 0.8953 0.0
C3419 C 0.6324 0.6987 0.85854 0.0
C3420 C 0.66223 0.82604 0.89673 0.0
C3421 C 0.65937 0.80787 0.89512 0.0
C3422 C 0.63014 0.77301 0.8727 0.0
C3423 C 0.63321 0.72419 0.87806 0.0
C3424 C 0.63549 0.74357 0.88112 0.0
C3425 C 0.64306 0.79975 0.88961 0.0
C3426 C 0.64028 0.78036 0.88683 0.0
H3427 H 0.62895 0.68656 0.90046 0.0
H3428 H 0.63064 0.7179 0.9051 0.0
H3429 H 0.61991 0.74987 0.85888 0.0
H3430 H 0.6217 0.83626 0.88502 0.0
H3431 H 0.61671 0.80475 0.8824 0.0
C3432 C 0.90193 0.63338 0.85007 0.0
C3433 C 0.90494 0.65013 0.85761 0.0
C3434 C 0.90025 0.63091 0.83204 0.0
C3435 C 0.90954 0.65207 0.78995 0.0
H3436 H 0.87259 0.61894 0.77199 0.0
C3437 C 0.90234 0.63394 0.71665 0.0
C3438 C 0.8855 0.63287 0.70907 0.0
C3439 C 0.90489 0.63528 0.73468 0.0
C3440 C 0.88294 0.62829 0.77674 0.0
H3441 H 0.90901 0.6774 0.85174 0.0
H3442 H 0.90639 0.6731 0.82034 0.0
H3443 H 0.87713 0.62304 0.80323 0.0
H3444 H 0.85812 0.63191 0.71486 0.0
H3445 H 0.86254 0.63396 0.74631 0.0
H3446 H 0.91528 0.6574 0.76348 0.0
C3447 C 0.9053 0.66182 0.82841 0.0
C3448 C 0.88567 0.63053 0.79472 0.0
C3449 C 0.90681 0.6643 0.84648 0.0
C3450 C 0.87126 0.6326 0.72016 0.0
C3451 C 0.87381 0.63378 0.73825 0.0
C3452 C 0.90693 0.64969 0.77198 0.0
C3453 C 0.90168 0.6451 0.8209 0.0
C3454 C 0.89899 0.6425 0.80163 0.0
C3455 C 0.89069 0.63545 0.74579 0.0
C3456 C 0.89356 0.63779 0.76506 0.0
H3457 H 0.90033 0.62212 0.85814 0.0
H3458 H 0.89772 0.61783 0.82681 0.0
H3459 H 0.91998 0.66132 0.79469 0.0
H3460 H 0.91367 0.63424 0.70862 0.0
H3461 H 0.91806 0.63626 0.73992 0.0
C3462 C 0.88652 0.36937 0.31476 0.0
C3463 C 0.88502 0.38528 0.32348 0.0
C3464 C 0.8867 0.36825 0.29666 0.0
C3465 C 0.87933 0.39299 0.25598 0.0
H3466 H 0.90758 0.35895 0.23622 0.0
C3467 C 0.89675 0.39133 0.18294 0.0
C3468 C 0.89465 0.37503 0.17435 0.0
C3469 C 0.89574 0.39276 0.20102 0.0
C3470 C 0.89953 0.36845 0.24148 0.0
H3471 H 0.88217 0.4125 0.31977 0.0
H3472 H 0.88301 0.41076 0.28818 0.0
H3473 H 0.905 0.36132 0.26743 0.0
H3474 H 0.89028 0.3474 0.17835 0.0
H3475 H 0.88904 0.34984 0.20989 0.0
H3476 H 0.8744 0.4004 0.22984 0.0
C3477 C 0.88363 0.39894 0.2953 0.0
C3478 C 0.89791 0.36978 0.2595 0.0
C3479 C 0.88313 0.39999 0.3135 0.0
C3480 C 0.89208 0.36016 0.18446 0.0
C3481 C 0.89135 0.36157 0.20258 0.0
C3482 C 0.88117 0.39182 0.23794 0.0
C3483 C 0.8858 0.38308 0.28654 0.0
C3484 C 0.88764 0.38196 0.26713 0.0
C3485 C 0.89287 0.37791 0.21112 0.0
C3486 C 0.89121 0.37945 0.23041 0.0
H3487 H 0.88789 0.35773 0.322 0.0
H3488 H 0.88776 0.35565 0.29066 0.0
H3489 H 0.8711 0.40239 0.2611 0.0
H3490 H 0.89862 0.4031 0.17563 0.0
H3491 H 0.89717 0.40554 0.20712 0.0
C3492 C 0.12297 0.37703 0.84302 0.0
C3493 C 0.13397 0.38921 0.85277 0.0
C3494 C 0.12393 0.37608 0.82483 0.0
C3495 C 0.15264 0.39048 0.78796 0.0
H3496 H 0.11013 0.38208 0.76046 0.0
C3497 C 0.14935 0.40145 0.71317 0.0
C3498 C 0.13829 0.38957 0.70312 0.0
C3499 C 0.14957 0.40081 0.7314 0.0
C3500 C 0.1222 0.38427 0.76789 0.0
H3501 H 0.15482 0.40977 0.8507 0.0
H3502 H 0.15625 0.40829 0.81954 0.0
H3503 H 0.10897 0.38134 0.79188 0.0
H3504 H 0.11922 0.36732 0.70468 0.0
H3505 H 0.11974 0.36619 0.73595 0.0
H3506 H 0.1658 0.39365 0.76391 0.0
C3507 C 0.14704 0.39922 0.82575 0.0
C3508 C 0.12152 0.38379 0.78602 0.0
C3509 C 0.1461 0.40015 0.8438 0.0
C3510 C 0.12785 0.37682 0.71183 0.0
C3511 C 0.12803 0.37623 0.72991 0.0
C3512 C 0.15329 0.39105 0.76983 0.0
C3513 C 0.13594 0.38726 0.81588 0.0
C3514 C 0.13672 0.38695 0.7964 0.0
C3515 C 0.13868 0.38833 0.74005 0.0
C3516 C 0.13808 0.38796 0.75948 0.0
H3517 H 0.11345 0.3684 0.8494 0.0
H3518 H 0.11526 0.36653 0.81778 0.0
H3519 H 0.16472 0.39269 0.79535 0.0
H3520 H 0.15753 0.41148 0.707 0.0
H3521 H 0.15792 0.41042 0.73872 0.0
C3522 C 0.14024 0.65431 0.29795 0.0
C3523 C 0.13992 0.63833 0.30634 0.0
C3524 C 0.14143 0.65517 0.27993 0.0
C3525 C 0.1297 0.62954 0.24038 0.0
H3526 H 0.15845 0.66532 0.21756 0.0
C3527 C 0.13151 0.63228 0.16539 0.0
C3528 C 0.13502 0.64833 0.15739 0.0
C3529 C 0.13247 0.63098 0.18344 0.0
C3530 C 0.15007 0.65541 0.22363 0.0
H3531 H 0.14095 0.61072 0.30226 0.0
H3532 H 0.14277 0.61217 0.2706 0.0
H3533 H 0.16058 0.66292 0.24888 0.0
H3534 H 0.14185 0.67572 0.16236 0.0
H3535 H 0.14275 0.67366 0.19383 0.0
H3536 H 0.11862 0.62238 0.2154 0.0
C3537 C 0.14224 0.62407 0.27809 0.0
C3538 C 0.15143 0.65394 0.24167 0.0
C3539 C 0.14141 0.62325 0.29624 0.0
C3540 C 0.13906 0.66315 0.16803 0.0
C3541 C 0.13978 0.66189 0.18616 0.0
C3542 C 0.12812 0.63116 0.22237 0.0
C3543 C 0.14198 0.64004 0.26968 0.0
C3544 C 0.14127 0.64098 0.25032 0.0
C3545 C 0.13675 0.64572 0.19421 0.0
C3546 C 0.13828 0.64413 0.21361 0.0
H3547 H 0.139 0.66617 0.30531 0.0
H3548 H 0.14108 0.66767 0.27396 0.0
H3549 H 0.12144 0.6196 0.2466 0.0
H3550 H 0.12854 0.62052 0.15768 0.0
H3551 H 0.13033 0.61822 0.18885 0.0
loop_
_geom_bond_atom_site_label_1
_geom_bond_atom_site_label_2
_geom_bond_distance
_geom_bond_site_symmetry_2
_ccdc_geom_bond_type
O0 Cd1 2.223 . S
O0 C8 1.315 . S
Cd1 O0 2.223 . S
Cd1 O4 2.297 . S
Cd1 O5 2.439 . S
Cd1 O11 2.240 . S
Cd2 O3 2.240 . S
Cd2 O10 2.223 . S
Cd2 O12 2.297 . S
Cd2 O13 2.439 . S
O3 Cd2 2.240 . S
O3 C8 1.279 . S
O4 Cd1 2.297 . S
O4 C6 1.247 . S
O5 Cd1 2.439 . S
O5 C6 1.208 . S
C6 O4 1.247 . S
C6 O5 1.208 . S
C7 O12 1.247 . S
C7 O13 1.208 . S
C8 O0 1.315 . S
C8 O3 1.279 . S
C9 O10 1.315 . S
C9 O11 1.279 . S
O10 Cd2 2.223 . S
O10 C9 1.315 . S
O11 Cd1 2.240 . S
O11 C9 1.279 . S
O12 Cd2 2.297 . S
O12 C7 1.247 . S
O13 Cd2 2.439 . S
O13 C7 1.208 . S
O14 Cd15 2.223 . S
O14 C22 1.315 . S
Cd15 O14 2.223 . S
Cd15 O18 2.297 . S
Cd15 O19 2.439 . S
Cd15 O25 2.240 . S
Cd16 O17 2.240 . S
Cd16 O24 2.223 . S
Cd16 O26 2.297 . S
Cd16 O27 2.439 . S
O17 Cd16 2.240 . S
O17 C22 1.279 . S
O18 Cd15 2.297 . S
O18 C20 1.247 . S
O19 Cd15 2.439 . S
O19 C20 1.208 . S
C20 O18 1.247 . S
C20 O19 1.208 . S
C21 O26 1.247 . S
C21 O27 1.208 . S
C22 O14 1.315 . S
C22 O17 1.279 . S
C23 O24 1.315 . S
C23 O25 1.279 . S
O24 Cd16 2.223 . S
O24 C23 1.315 . S
O25 Cd15 2.240 . S
O25 C23 1.279 . S
O26 Cd16 2.297 . S
O26 C21 1.247 . S
O27 Cd16 2.439 . S
O27 C21 1.208 . S
O28 Cd29 2.223 . S
O28 C36 1.315 . S
Cd29 O28 2.223 . S
Cd29 O32 2.297 . S
Cd29 O33 2.439 . S
Cd29 O39 2.240 . S
Cd30 O31 2.240 . S
Cd30 O38 2.223 . S
Cd30 O40 2.297 . S
Cd30 O41 2.439 . S
O31 Cd30 2.240 . S
O31 C36 1.279 . S
O32 Cd29 2.297 . S
O32 C34 1.247 . S
O33 Cd29 2.439 . S
O33 C34 1.208 . S
C34 O32 1.247 . S
C34 O33 1.208 . S
C35 O40 1.247 . S
C35 O41 1.208 . S
C36 O28 1.315 . S
C36 O31 1.279 . S
C37 O38 1.315 . S
C37 O39 1.279 . S
O38 Cd30 2.223 . S
O38 C37 1.315 . S
O39 Cd29 2.240 . S
O39 C37 1.279 . S
O40 Cd30 2.297 . S
O40 C35 1.247 . S
O41 Cd30 2.439 . S
O41 C35 1.208 . S
O42 Cd43 2.223 . S
O42 C50 1.315 . S
Cd43 O42 2.223 . S
Cd43 O46 2.297 . S
Cd43 O47 2.439 . S
Cd43 O53 2.240 . S
Cd44 O45 2.240 . S
Cd44 O52 2.223 . S
Cd44 O54 2.297 . S
Cd44 O55 2.439 . S
O45 Cd44 2.240 . S
O45 C50 1.279 . S
O46 Cd43 2.297 . S
O46 C48 1.247 . S
O47 Cd43 2.439 . S
O47 C48 1.208 . S
C48 O46 1.247 . S
C48 O47 1.208 . S
C49 O54 1.247 . S
C49 O55 1.208 . S
C50 O42 1.315 . S
C50 O45 1.279 . S
C51 O52 1.315 . S
C51 O53 1.279 . S
O52 Cd44 2.223 . S
O52 C51 1.315 . S
O53 Cd43 2.240 . S
O53 C51 1.279 . S
O54 Cd44 2.297 . S
O54 C49 1.247 . S
O55 Cd44 2.439 . S
O55 C49 1.208 . S
O56 Cd57 2.223 . S
O56 C64 1.315 . S
Cd57 O56 2.223 . S
Cd57 O60 2.297 . S
Cd57 O61 2.439 . S
Cd57 O67 2.240 . S
Cd58 O59 2.240 . S
Cd58 O66 2.223 . S
Cd58 O68 2.297 . S
Cd58 O69 2.439 . S
O59 Cd58 2.240 . S
O59 C64 1.279 . S
O60 Cd57 2.297 . S
O60 C62 1.247 . S
O61 Cd57 2.439 . S
O61 C62 1.208 . S
C62 O60 1.247 . S
C62 O61 1.208 . S
C63 O68 1.247 . S
C63 O69 1.208 . S
C64 O56 1.315 . S
C64 O59 1.279 . S
C65 O66 1.315 . S
C65 O67 1.279 . S
O66 Cd58 2.223 . S
O66 C65 1.315 . S
O67 Cd57 2.240 . S
O67 C65 1.279 . S
O68 Cd58 2.297 . S
O68 C63 1.247 . S
O69 Cd58 2.439 . S
O69 C63 1.208 . S
O70 Cd71 2.223 . S
O70 C78 1.315 . S
Cd71 O70 2.223 . S
Cd71 O74 2.297 . S
Cd71 O75 2.439 . S
Cd71 O81 2.240 . S
Cd72 O73 2.240 . S
Cd72 O80 2.223 . S
Cd72 O82 2.297 . S
Cd72 O83 2.439 . S
O73 Cd72 2.240 . S
O73 C78 1.279 . S
O74 Cd71 2.297 . S
O74 C76 1.247 . S
O75 Cd71 2.439 . S
O75 C76 1.208 . S
C76 O74 1.247 . S
C76 O75 1.208 . S
C77 O82 1.247 . S
C77 O83 1.208 . S
C78 O70 1.315 . S
C78 O73 1.279 . S
C79 O80 1.315 . S
C79 O81 1.279 . S
O80 Cd72 2.223 . S
O80 C79 1.315 . S
O81 Cd71 2.240 . S
O81 C79 1.279 . S
O82 Cd72 2.297 . S
O82 C77 1.247 . S
O83 Cd72 2.439 . S
O83 C77 1.208 . S
O84 Cd85 2.223 . S
O84 C92 1.315 . S
Cd85 O84 2.223 . S
Cd85 O88 2.297 . S
Cd85 O89 2.439 . S
Cd85 O95 2.240 . S
Cd86 O87 2.240 . S
Cd86 O94 2.223 . S
Cd86 O96 2.297 . S
Cd86 O97 2.439 . S
O87 Cd86 2.240 . S
O87 C92 1.279 . S
O88 Cd85 2.297 . S
O88 C90 1.247 . S
O89 Cd85 2.439 . S
O89 C90 1.208 . S
C90 O88 1.247 . S
C90 O89 1.208 . S
C91 O96 1.247 . S
C91 O97 1.208 . S
C92 O84 1.315 . S
C92 O87 1.279 . S
C93 O94 1.315 . S
C93 O95 1.279 . S
O94 Cd86 2.223 . S
O94 C93 1.315 . S
O95 Cd85 2.240 . S
O95 C93 1.279 . S
O96 Cd86 2.297 . S
O96 C91 1.247 . S
O97 Cd86 2.439 . S
O97 C91 1.208 . S
O98 Cd99 2.223 . S
O98 C106 1.315 . S
Cd99 O98 2.223 . S
Cd99 O102 2.297 . S
Cd99 O103 2.439 . S
Cd99 O109 2.240 . S
Cd100 O101 2.240 . S
Cd100 O108 2.223 . S
Cd100 O110 2.297 . S
Cd100 O111 2.439 . S
O101 Cd100 2.240 . S
O101 C106 1.279 . S
O102 Cd99 2.297 . S
O102 C104 1.247 . S
O103 Cd99 2.439 . S
O103 C104 1.208 . S
C104 O102 1.247 . S
C104 O103 1.208 . S
C105 O110 1.247 . S
C105 O111 1.208 . S
C106 O98 1.315 . S
C106 O101 1.279 . S
C107 O108 1.315 . S
C107 O109 1.279 . S
O108 Cd100 2.223 . S
O108 C107 1.315 . S
O109 Cd99 2.240 . S
O109 C107 1.279 . S
O110 Cd100 2.297 . S
O110 C105 1.247 . S
O111 Cd100 2.439 . S
O111 C105 1.208 . S
O112 Cd113 2.223 . S
O112 C120 1.315 . S
Cd113 O112 2.223 . S
Cd113 O116 2.297 . S
Cd113 O117 2.439 . S
Cd113 O123 2.240 . S
Cd114 O115 2.240 . S
Cd114 O122 2.223 . S
Cd114 O124 2.297 . S
Cd114 O125 2.439 . S
O115 Cd114 2.240 . S
O115 C120 1.279 . S
O116 Cd113 2.297 . S
O116 C118 1.247 . S
O117 Cd113 2.439 . S
O117 C118 1.208 . S
C118 O116 1.247 . S
C118 O117 1.208 . S
C119 O124 1.247 . S
C119 O125 1.208 . S
C120 O112 1.315 . S
C120 O115 1.279 . S
C121 O122 1.315 . S
C121 O123 1.279 . S
O122 Cd114 2.223 . S
O122 C121 1.315 . S
O123 Cd113 2.240 . S
O123 C121 1.279 . S
O124 Cd114 2.297 . S
O124 C119 1.247 . S
O125 Cd114 2.439 . S
O125 C119 1.208 . S
O126 Cd127 2.223 . S
O126 C134 1.315 . S
Cd127 O126 2.223 . S
Cd127 O130 2.297 . S
Cd127 O131 2.439 . S
Cd127 O137 2.240 . S
Cd128 O129 2.240 . S
Cd128 O136 2.223 . S
Cd128 O138 2.297 . S
Cd128 O139 2.439 . S
O129 Cd128 2.240 . S
O129 C134 1.279 . S
O130 Cd127 2.297 . S
O130 C132 1.247 . S
O131 Cd127 2.439 . S
O131 C132 1.208 . S
C132 O130 1.247 . S
C132 O131 1.208 . S
C133 O138 1.247 . S
C133 O139 1.208 . S
C134 O126 1.315 . S
C134 O129 1.279 . S
C135 O136 1.315 . S
C135 O137 1.279 . S
O136 Cd128 2.223 . S
O136 C135 1.315 . S
O137 Cd127 2.240 . S
O137 C135 1.279 . S
O138 Cd128 2.297 . S
O138 C133 1.247 . S
O139 Cd128 2.439 . S
O139 C133 1.208 . S
O140 Cd141 2.223 . S
O140 C148 1.315 . S
Cd141 O140 2.223 . S
Cd141 O144 2.297 . S
Cd141 O145 2.439 . S
Cd141 O151 2.240 . S
Cd142 O143 2.240 . S
Cd142 O150 2.223 . S
Cd142 O152 2.297 . S
Cd142 O153 2.439 . S
O143 Cd142 2.240 . S
O143 C148 1.279 . S
O144 Cd141 2.297 . S
O144 C146 1.247 . S
O145 Cd141 2.439 . S
O145 C146 1.208 . S
C146 O144 1.247 . S
C146 O145 1.208 . S
C147 O152 1.247 . S
C147 O153 1.208 . S
C148 O140 1.315 . S
C148 O143 1.279 . S
C149 O150 1.315 . S
C149 O151 1.279 . S
O150 Cd142 2.223 . S
O150 C149 1.315 . S
O151 Cd141 2.240 . S
O151 C149 1.279 . S
O152 Cd142 2.297 . S
O152 C147 1.247 . S
O153 Cd142 2.439 . S
O153 C147 1.208 . S
O154 Cd155 2.223 . S
O154 C162 1.315 . S
Cd155 O154 2.223 . S
Cd155 O158 2.297 . S
Cd155 O159 2.439 . S
Cd155 O165 2.240 . S
Cd156 O157 2.240 . S
Cd156 O164 2.223 . S
Cd156 O166 2.297 . S
Cd156 O167 2.439 . S
O157 Cd156 2.240 . S
O157 C162 1.279 . S
O158 Cd155 2.297 . S
O158 C160 1.247 . S
O159 Cd155 2.439 . S
O159 C160 1.208 . S
C160 O158 1.247 . S
C160 O159 1.208 . S
C161 O166 1.247 . S
C161 O167 1.208 . S
C162 O154 1.315 . S
C162 O157 1.279 . S
C163 O164 1.315 . S
C163 O165 1.279 . S
O164 Cd156 2.223 . S
O164 C163 1.315 . S
O165 Cd155 2.240 . S
O165 C163 1.279 . S
O166 Cd156 2.297 . S
O166 C161 1.247 . S
O167 Cd156 2.439 . S
O167 C161 1.208 . S
O168 Cd169 2.223 . S
O168 C176 1.315 . S
Cd169 O168 2.223 . S
Cd169 O172 2.297 . S
Cd169 O173 2.439 . S
Cd169 O179 2.240 . S
Cd170 O171 2.240 . S
Cd170 O178 2.223 . S
Cd170 O180 2.297 . S
Cd170 O181 2.439 . S
O171 Cd170 2.240 . S
O171 C176 1.279 . S
O172 Cd169 2.297 . S
O172 C174 1.247 . S
O173 Cd169 2.439 . S
O173 C174 1.208 . S
C174 O172 1.247 . S
C174 O173 1.208 . S
C175 O180 1.247 . S
C175 O181 1.208 . S
C176 O168 1.315 . S
C176 O171 1.279 . S
C177 O178 1.315 . S
C177 O179 1.279 . S
O178 Cd170 2.223 . S
O178 C177 1.315 . S
O179 Cd169 2.240 . S
O179 C177 1.279 . S
O180 Cd170 2.297 . S
O180 C175 1.247 . S
O181 Cd170 2.439 . S
O181 C175 1.208 . S
O182 Cd183 2.223 . S
O182 C190 1.315 . S
Cd183 O182 2.223 . S
Cd183 O186 2.297 . S
Cd183 O187 2.439 . S
Cd183 O193 2.240 . S
Cd184 O185 2.240 . S
Cd184 O192 2.223 . S
Cd184 O194 2.297 . S
Cd184 O195 2.439 . S
O185 Cd184 2.240 . S
O185 C190 1.279 . S
O186 Cd183 2.297 . S
O186 C188 1.247 . S
O187 Cd183 2.439 . S
O187 C188 1.208 . S
C188 O186 1.247 . S
C188 O187 1.208 . S
C189 O194 1.247 . S
C189 O195 1.208 . S
C190 O182 1.315 . S
C190 O185 1.279 . S
C191 O192 1.315 . S
C191 O193 1.279 . S
O192 Cd184 2.223 . S
O192 C191 1.315 . S
O193 Cd183 2.240 . S
O193 C191 1.279 . S
O194 Cd184 2.297 . S
O194 C189 1.247 . S
O195 Cd184 2.439 . S
O195 C189 1.208 . S
O196 Cd197 2.223 . S
O196 C204 1.315 . S
Cd197 O196 2.223 . S
Cd197 O200 2.297 . S
Cd197 O201 2.439 . S
Cd197 O207 2.240 . S
Cd198 O199 2.240 . S
Cd198 O206 2.223 . S
Cd198 O208 2.297 . S
Cd198 O209 2.439 . S
O199 Cd198 2.240 . S
O199 C204 1.279 . S
O200 Cd197 2.297 . S
O200 C202 1.247 . S
O201 Cd197 2.439 . S
O201 C202 1.208 . S
C202 O200 1.247 . S
C202 O201 1.208 . S
C203 O208 1.247 . S
C203 O209 1.208 . S
C204 O196 1.315 . S
C204 O199 1.279 . S
C205 O206 1.315 . S
C205 O207 1.279 . S
O206 Cd198 2.223 . S
O206 C205 1.315 . S
O207 Cd197 2.240 . S
O207 C205 1.279 . S
O208 Cd198 2.297 . S
O208 C203 1.247 . S
O209 Cd198 2.439 . S
O209 C203 1.208 . S
O210 Cd211 2.223 . S
O210 C218 1.315 . S
Cd211 O210 2.223 . S
Cd211 O214 2.297 . S
Cd211 O215 2.439 . S
Cd211 O221 2.240 . S
Cd212 O213 2.240 . S
Cd212 O220 2.223 . S
Cd212 O222 2.297 . S
Cd212 O223 2.439 . S
O213 Cd212 2.240 . S
O213 C218 1.279 . S
O214 Cd211 2.297 . S
O214 C216 1.247 . S
O215 Cd211 2.439 . S
O215 C216 1.208 . S
C216 O214 1.247 . S
C216 O215 1.208 . S
C217 O222 1.247 . S
C217 O223 1.208 . S
C218 O210 1.315 . S
C218 O213 1.279 . S
C219 O220 1.315 . S
C219 O221 1.279 . S
O220 Cd212 2.223 . S
O220 C219 1.315 . S
O221 Cd211 2.240 . S
O221 C219 1.279 . S
O222 Cd212 2.297 . S
O222 C217 1.247 . S
O223 Cd212 2.439 . S
O223 C217 1.208 . S
O224 Cd225 2.223 . S
O224 C232 1.315 . S
Cd225 O224 2.223 . S
Cd225 O228 2.297 . S
Cd225 O229 2.439 . S
Cd225 O235 2.240 . S
Cd226 O227 2.240 . S
Cd226 O234 2.223 . S
Cd226 O236 2.297 . S
Cd226 O237 2.439 . S
O227 Cd226 2.240 . S
O227 C232 1.279 . S
O228 Cd225 2.297 . S
O228 C230 1.247 . S
O229 Cd225 2.439 . S
O229 C230 1.208 . S
C230 O228 1.247 . S
C230 O229 1.208 . S
C231 O236 1.247 . S
C231 O237 1.208 . S
C232 O224 1.315 . S
C232 O227 1.279 . S
C233 O234 1.315 . S
C233 O235 1.279 . S
O234 Cd226 2.223 . S
O234 C233 1.315 . S
O235 Cd225 2.240 . S
O235 C233 1.279 . S
O236 Cd226 2.297 . S
O236 C231 1.247 . S
O237 Cd226 2.439 . S
O237 C231 1.208 . S
O238 Cd239 2.223 . S
O238 C246 1.315 . S
Cd239 O238 2.223 . S
Cd239 O242 2.297 . S
Cd239 O243 2.439 . S
Cd239 O249 2.240 . S
Cd240 O241 2.240 . S
Cd240 O248 2.223 . S
Cd240 O250 2.297 . S
Cd240 O251 2.439 . S
O241 Cd240 2.240 . S
O241 C246 1.279 . S
O242 Cd239 2.297 . S
O242 C244 1.247 . S
O243 Cd239 2.439 . S
O243 C244 1.208 . S
C244 O242 1.247 . S
C244 O243 1.208 . S
C245 O250 1.247 . S
C245 O251 1.208 . S
C246 O238 1.315 . S
C246 O241 1.279 . S
C247 O248 1.315 . S
C247 O249 1.279 . S
O248 Cd240 2.223 . S
O248 C247 1.315 . S
O249 Cd239 2.240 . S
O249 C247 1.279 . S
O250 Cd240 2.297 . S
O250 C245 1.247 . S
O251 Cd240 2.439 . S
O251 C245 1.208 . S
O252 Cd253 2.223 . S
O252 C260 1.315 . S
Cd253 O252 2.223 . S
Cd253 O256 2.297 . S
Cd253 O257 2.439 . S
Cd253 O263 2.240 . S
Cd254 O255 2.240 . S
Cd254 O262 2.223 . S
Cd254 O264 2.297 . S
Cd254 O265 2.439 . S
O255 Cd254 2.240 . S
O255 C260 1.279 . S
O256 Cd253 2.297 . S
O256 C258 1.247 . S
O257 Cd253 2.439 . S
O257 C258 1.208 . S
C258 O256 1.247 . S
C258 O257 1.208 . S
C259 O264 1.247 . S
C259 O265 1.208 . S
C260 O252 1.315 . S
C260 O255 1.279 . S
C261 O262 1.315 . S
C261 O263 1.279 . S
O262 Cd254 2.223 . S
O262 C261 1.315 . S
O263 Cd253 2.240 . S
O263 C261 1.279 . S
O264 Cd254 2.297 . S
O264 C259 1.247 . S
O265 Cd254 2.439 . S
O265 C259 1.208 . S
O266 Cd267 2.223 . S
O266 C274 1.315 . S
Cd267 O266 2.223 . S
Cd267 O270 2.297 . S
Cd267 O271 2.439 . S
Cd267 O277 2.240 . S
Cd268 O269 2.240 . S
Cd268 O276 2.223 . S
Cd268 O278 2.297 . S
Cd268 O279 2.439 . S
O269 Cd268 2.240 . S
O269 C274 1.279 . S
O270 Cd267 2.297 . S
O270 C272 1.247 . S
O271 Cd267 2.439 . S
O271 C272 1.208 . S
C272 O270 1.247 . S
C272 O271 1.208 . S
C273 O278 1.247 . S
C273 O279 1.208 . S
C274 O266 1.315 . S
C274 O269 1.279 . S
C275 O276 1.315 . S
C275 O277 1.279 . S
O276 Cd268 2.223 . S
O276 C275 1.315 . S
O277 Cd267 2.240 . S
O277 C275 1.279 . S
O278 Cd268 2.297 . S
O278 C273 1.247 . S
O279 Cd268 2.439 . S
O279 C273 1.208 . S
O280 Cd281 2.223 . S
O280 C288 1.315 . S
Cd281 O280 2.223 . S
Cd281 O284 2.297 . S
Cd281 O285 2.439 . S
Cd281 O291 2.240 . S
Cd282 O283 2.240 . S
Cd282 O290 2.223 . S
Cd282 O292 2.297 . S
Cd282 O293 2.439 . S
O283 Cd282 2.240 . S
O283 C288 1.279 . S
O284 Cd281 2.297 . S
O284 C286 1.247 . S
O285 Cd281 2.439 . S
O285 C286 1.208 . S
C286 O284 1.247 . S
C286 O285 1.208 . S
C287 O292 1.247 . S
C287 O293 1.208 . S
C288 O280 1.315 . S
C288 O283 1.279 . S
C289 O290 1.315 . S
C289 O291 1.279 . S
O290 Cd282 2.223 . S
O290 C289 1.315 . S
O291 Cd281 2.240 . S
O291 C289 1.279 . S
O292 Cd282 2.297 . S
O292 C287 1.247 . S
O293 Cd282 2.439 . S
O293 C287 1.208 . S
O294 Cd295 2.223 . S
O294 C302 1.315 . S
Cd295 O294 2.223 . S
Cd295 O298 2.297 . S
Cd295 O299 2.439 . S
Cd295 O305 2.240 . S
Cd296 O297 2.240 . S
Cd296 O304 2.223 . S
Cd296 O306 2.297 . S
Cd296 O307 2.439 . S
O297 Cd296 2.240 . S
O297 C302 1.279 . S
O298 Cd295 2.297 . S
O298 C300 1.247 . S
O299 Cd295 2.439 . S
O299 C300 1.208 . S
C300 O298 1.247 . S
C300 O299 1.208 . S
C301 O306 1.247 . S
C301 O307 1.208 . S
C302 O294 1.315 . S
C302 O297 1.279 . S
C303 O304 1.315 . S
C303 O305 1.279 . S
O304 Cd296 2.223 . S
O304 C303 1.315 . S
O305 Cd295 2.240 . S
O305 C303 1.279 . S
O306 Cd296 2.297 . S
O306 C301 1.247 . S
O307 Cd296 2.439 . S
O307 C301 1.208 . S
O308 Cd309 2.223 . S
O308 C316 1.315 . S
Cd309 O308 2.223 . S
Cd309 O312 2.297 . S
Cd309 O313 2.439 . S
Cd309 O319 2.240 . S
Cd310 O311 2.240 . S
Cd310 O318 2.223 . S
Cd310 O320 2.297 . S
Cd310 O321 2.439 . S
O311 Cd310 2.240 . S
O311 C316 1.279 . S
O312 Cd309 2.297 . S
O312 C314 1.247 . S
O313 Cd309 2.439 . S
O313 C314 1.208 . S
C314 O312 1.247 . S
C314 O313 1.208 . S
C315 O320 1.247 . S
C315 O321 1.208 . S
C316 O308 1.315 . S
C316 O311 1.279 . S
C317 O318 1.315 . S
C317 O319 1.279 . S
O318 Cd310 2.223 . S
O318 C317 1.315 . S
O319 Cd309 2.240 . S
O319 C317 1.279 . S
O320 Cd310 2.297 . S
O320 C315 1.247 . S
O321 Cd310 2.439 . S
O321 C315 1.208 . S
O322 Cd323 2.223 . S
O322 C330 1.315 . S
Cd323 O322 2.223 . S
Cd323 O326 2.297 . S
Cd323 O327 2.439 . S
Cd323 O333 2.240 . S
Cd324 O325 2.240 . S
Cd324 O332 2.223 . S
Cd324 O334 2.297 . S
Cd324 O335 2.439 . S
O325 Cd324 2.240 . S
O325 C330 1.279 . S
O326 Cd323 2.297 . S
O326 C328 1.247 . S
O327 Cd323 2.439 . S
O327 C328 1.208 . S
C328 O326 1.247 . S
C328 O327 1.208 . S
C329 O334 1.247 . S
C329 O335 1.208 . S
C330 O322 1.315 . S
C330 O325 1.279 . S
C331 O332 1.315 . S
C331 O333 1.279 . S
O332 Cd324 2.223 . S
O332 C331 1.315 . S
O333 Cd323 2.240 . S
O333 C331 1.279 . S
O334 Cd324 2.297 . S
O334 C329 1.247 . S
O335 Cd324 2.439 . S
O335 C329 1.208 . S
O336 Cd337 2.223 . S
O336 C344 1.315 . S
Cd337 O336 2.223 . S
Cd337 O340 2.297 . S
Cd337 O341 2.439 . S
Cd337 O347 2.240 . S
Cd338 O339 2.240 . S
Cd338 O346 2.223 . S
Cd338 O348 2.297 . S
Cd338 O349 2.439 . S
O339 Cd338 2.240 . S
O339 C344 1.279 . S
O340 Cd337 2.297 . S
O340 C342 1.247 . S
O341 Cd337 2.439 . S
O341 C342 1.208 . S
C342 O340 1.247 . S
C342 O341 1.208 . S
C343 O348 1.247 . S
C343 O349 1.208 . S
C344 O336 1.315 . S
C344 O339 1.279 . S
C345 O346 1.315 . S
C345 O347 1.279 . S
O346 Cd338 2.223 . S
O346 C345 1.315 . S
O347 Cd337 2.240 . S
O347 C345 1.279 . S
O348 Cd338 2.297 . S
O348 C343 1.247 . S
O349 Cd338 2.439 . S
O349 C343 1.208 . S
O350 Cd351 2.223 . S
O350 C358 1.315 . S
Cd351 O350 2.223 . S
Cd351 O354 2.297 . S
Cd351 O355 2.439 . S
Cd351 O361 2.240 . S
Cd352 O353 2.240 . S
Cd352 O360 2.223 . S
Cd352 O362 2.297 . S
Cd352 O363 2.439 . S
O353 Cd352 2.240 . S
O353 C358 1.279 . S
O354 Cd351 2.297 . S
O354 C356 1.247 . S
O355 Cd351 2.439 . S
O355 C356 1.208 . S
C356 O354 1.247 . S
C356 O355 1.208 . S
C357 O362 1.247 . S
C357 O363 1.208 . S
C358 O350 1.315 . S
C358 O353 1.279 . S
C359 O360 1.315 . S
C359 O361 1.279 . S
O360 Cd352 2.223 . S
O360 C359 1.315 . S
O361 Cd351 2.240 . S
O361 C359 1.279 . S
O362 Cd352 2.297 . S
O362 C357 1.247 . S
O363 Cd352 2.439 . S
O363 C357 1.208 . S
O364 Cd365 2.223 . S
O364 C372 1.315 . S
Cd365 O364 2.223 . S
Cd365 O368 2.297 . S
Cd365 O369 2.439 . S
Cd365 O375 2.240 . S
Cd366 O367 2.240 . S
Cd366 O374 2.223 . S
Cd366 O376 2.297 . S
Cd366 O377 2.439 . S
O367 Cd366 2.240 . S
O367 C372 1.279 . S
O368 Cd365 2.297 . S
O368 C370 1.247 . S
O369 Cd365 2.439 . S
O369 C370 1.208 . S
C370 O368 1.247 . S
C370 O369 1.208 . S
C371 O376 1.247 . S
C371 O377 1.208 . S
C372 O364 1.315 . S
C372 O367 1.279 . S
C373 O374 1.315 . S
C373 O375 1.279 . S
O374 Cd366 2.223 . S
O374 C373 1.315 . S
O375 Cd365 2.240 . S
O375 C373 1.279 . S
O376 Cd366 2.297 . S
O376 C371 1.247 . S
O377 Cd366 2.439 . S
O377 C371 1.208 . S
O378 Cd379 2.223 . S
O378 C386 1.315 . S
Cd379 O378 2.223 . S
Cd379 O382 2.297 . S
Cd379 O383 2.439 . S
Cd379 O389 2.240 . S
Cd380 O381 2.240 . S
Cd380 O388 2.223 . S
Cd380 O390 2.297 . S
Cd380 O391 2.439 . S
O381 Cd380 2.240 . S
O381 C386 1.279 . S
O382 Cd379 2.297 . S
O382 C384 1.247 . S
O383 Cd379 2.439 . S
O383 C384 1.208 . S
C384 O382 1.247 . S
C384 O383 1.208 . S
C385 O390 1.247 . S
C385 O391 1.208 . S
C386 O378 1.315 . S
C386 O381 1.279 . S
C387 O388 1.315 . S
C387 O389 1.279 . S
O388 Cd380 2.223 . S
O388 C387 1.315 . S
O389 Cd379 2.240 . S
O389 C387 1.279 . S
O390 Cd380 2.297 . S
O390 C385 1.247 . S
O391 Cd380 2.439 . S
O391 C385 1.208 . S
O392 Cd393 2.223 . S
O392 C400 1.315 . S
Cd393 O392 2.223 . S
Cd393 O396 2.297 . S
Cd393 O397 2.439 . S
Cd393 O403 2.240 . S
Cd394 O395 2.240 . S
Cd394 O402 2.223 . S
Cd394 O404 2.297 . S
Cd394 O405 2.439 . S
O395 Cd394 2.240 . S
O395 C400 1.279 . S
O396 Cd393 2.297 . S
O396 C398 1.247 . S
O397 Cd393 2.439 . S
O397 C398 1.208 . S
C398 O396 1.247 . S
C398 O397 1.208 . S
C399 O404 1.247 . S
C399 O405 1.208 . S
C400 O392 1.315 . S
C400 O395 1.279 . S
C401 O402 1.315 . S
C401 O403 1.279 . S
O402 Cd394 2.223 . S
O402 C401 1.315 . S
O403 Cd393 2.240 . S
O403 C401 1.279 . S
O404 Cd394 2.297 . S
O404 C399 1.247 . S
O405 Cd394 2.439 . S
O405 C399 1.208 . S
O406 Cd407 2.223 . S
O406 C414 1.315 . S
Cd407 O406 2.223 . S
Cd407 O410 2.297 . S
Cd407 O411 2.439 . S
Cd407 O417 2.240 . S
Cd408 O409 2.240 . S
Cd408 O416 2.223 . S
Cd408 O418 2.297 . S
Cd408 O419 2.439 . S
O409 Cd408 2.240 . S
O409 C414 1.279 . S
O410 Cd407 2.297 . S
O410 C412 1.247 . S
O411 Cd407 2.439 . S
O411 C412 1.208 . S
C412 O410 1.247 . S
C412 O411 1.208 . S
C413 O418 1.247 . S
C413 O419 1.208 . S
C414 O406 1.315 . S
C414 O409 1.279 . S
C415 O416 1.315 . S
C415 O417 1.279 . S
O416 Cd408 2.223 . S
O416 C415 1.315 . S
O417 Cd407 2.240 . S
O417 C415 1.279 . S
O418 Cd408 2.297 . S
O418 C413 1.247 . S
O419 Cd408 2.439 . S
O419 C413 1.208 . S
O420 Cd421 2.223 . S
O420 C428 1.315 . S
Cd421 O420 2.223 . S
Cd421 O424 2.297 . S
Cd421 O425 2.439 . S
Cd421 O431 2.240 . S
Cd422 O423 2.240 . S
Cd422 O430 2.223 . S
Cd422 O432 2.297 . S
Cd422 O433 2.439 . S
O423 Cd422 2.240 . S
O423 C428 1.279 . S
O424 Cd421 2.297 . S
O424 C426 1.247 . S
O425 Cd421 2.439 . S
O425 C426 1.208 . S
C426 O424 1.247 . S
C426 O425 1.208 . S
C427 O432 1.247 . S
C427 O433 1.208 . S
C428 O420 1.315 . S
C428 O423 1.279 . S
C429 O430 1.315 . S
C429 O431 1.279 . S
O430 Cd422 2.223 . S
O430 C429 1.315 . S
O431 Cd421 2.240 . S
O431 C429 1.279 . S
O432 Cd422 2.297 . S
O432 C427 1.247 . S
O433 Cd422 2.439 . S
O433 C427 1.208 . S
O434 Cd435 2.223 . S
O434 C442 1.315 . S
Cd435 O434 2.223 . S
Cd435 O438 2.297 . S
Cd435 O439 2.439 . S
Cd435 O445 2.240 . S
Cd436 O437 2.240 . S
Cd436 O444 2.223 . S
Cd436 O446 2.297 . S
Cd436 O447 2.439 . S
O437 Cd436 2.240 . S
O437 C442 1.279 . S
O438 Cd435 2.297 . S
O438 C440 1.247 . S
O439 Cd435 2.439 . S
O439 C440 1.208 . S
C440 O438 1.247 . S
C440 O439 1.208 . S
C441 O446 1.247 . S
C441 O447 1.208 . S
C442 O434 1.315 . S
C442 O437 1.279 . S
C443 O444 1.315 . S
C443 O445 1.279 . S
O444 Cd436 2.223 . S
O444 C443 1.315 . S
O445 Cd435 2.240 . S
O445 C443 1.279 . S
O446 Cd436 2.297 . S
O446 C441 1.247 . S
O447 Cd436 2.439 . S
O447 C441 1.208 . S
O448 Cd449 2.223 . S
O448 C456 1.315 . S
Cd449 O448 2.223 . S
Cd449 O452 2.297 . S
Cd449 O453 2.439 . S
Cd449 O459 2.240 . S
Cd450 O451 2.240 . S
Cd450 O458 2.223 . S
Cd450 O460 2.297 . S
Cd450 O461 2.439 . S
O451 Cd450 2.240 . S
O451 C456 1.279 . S
O452 Cd449 2.297 . S
O452 C454 1.247 . S
O453 Cd449 2.439 . S
O453 C454 1.208 . S
C454 O452 1.247 . S
C454 O453 1.208 . S
C455 O460 1.247 . S
C455 O461 1.208 . S
C456 O448 1.315 . S
C456 O451 1.279 . S
C457 O458 1.315 . S
C457 O459 1.279 . S
O458 Cd450 2.223 . S
O458 C457 1.315 . S
O459 Cd449 2.240 . S
O459 C457 1.279 . S
O460 Cd450 2.297 . S
O460 C455 1.247 . S
O461 Cd450 2.439 . S
O461 C455 1.208 . S
O462 Cd463 2.223 . S
O462 C470 1.315 . S
Cd463 O462 2.223 . S
Cd463 O466 2.297 . S
Cd463 O467 2.439 . S
Cd463 O473 2.240 . S
Cd464 O465 2.240 . S
Cd464 O472 2.223 . S
Cd464 O474 2.297 . S
Cd464 O475 2.439 . S
O465 Cd464 2.240 . S
O465 C470 1.279 . S
O466 Cd463 2.297 . S
O466 C468 1.247 . S
O467 Cd463 2.439 . S
O467 C468 1.208 . S
C468 O466 1.247 . S
C468 O467 1.208 . S
C469 O474 1.247 . S
C469 O475 1.208 . S
C470 O462 1.315 . S
C470 O465 1.279 . S
C471 O472 1.315 . S
C471 O473 1.279 . S
O472 Cd464 2.223 . S
O472 C471 1.315 . S
O473 Cd463 2.240 . S
O473 C471 1.279 . S
O474 Cd464 2.297 . S
O474 C469 1.247 . S
O475 Cd464 2.439 . S
O475 C469 1.208 . S
O476 Cd477 2.223 . S
O476 C484 1.315 . S
Cd477 O476 2.223 . S
Cd477 O480 2.297 . S
Cd477 O481 2.439 . S
Cd477 O487 2.240 . S
Cd478 O479 2.240 . S
Cd478 O486 2.223 . S
Cd478 O488 2.297 . S
Cd478 O489 2.439 . S
O479 Cd478 2.240 . S
O479 C484 1.279 . S
O480 Cd477 2.297 . S
O480 C482 1.247 . S
O481 Cd477 2.439 . S
O481 C482 1.208 . S
C482 O480 1.247 . S
C482 O481 1.208 . S
C483 O488 1.247 . S
C483 O489 1.208 . S
C484 O476 1.315 . S
C484 O479 1.279 . S
C485 O486 1.315 . S
C485 O487 1.279 . S
O486 Cd478 2.223 . S
O486 C485 1.315 . S
O487 Cd477 2.240 . S
O487 C485 1.279 . S
O488 Cd478 2.297 . S
O488 C483 1.247 . S
O489 Cd478 2.439 . S
O489 C483 1.208 . S
O490 Cd491 2.223 . S
O490 C498 1.315 . S
Cd491 O490 2.223 . S
Cd491 O494 2.297 . S
Cd491 O495 2.439 . S
Cd491 O501 2.240 . S
Cd492 O493 2.240 . S
Cd492 O500 2.223 . S
Cd492 O502 2.297 . S
Cd492 O503 2.439 . S
O493 Cd492 2.240 . S
O493 C498 1.279 . S
O494 Cd491 2.297 . S
O494 C496 1.247 . S
O495 Cd491 2.439 . S
O495 C496 1.208 . S
C496 O494 1.247 . S
C496 O495 1.208 . S
C497 O502 1.247 . S
C497 O503 1.208 . S
C498 O490 1.315 . S
C498 O493 1.279 . S
C499 O500 1.315 . S
C499 O501 1.279 . S
O500 Cd492 2.223 . S
O500 C499 1.315 . S
O501 Cd491 2.240 . S
O501 C499 1.279 . S
O502 Cd492 2.297 . S
O502 C497 1.247 . S
O503 Cd492 2.439 . S
O503 C497 1.208 . S
O504 Cd505 2.223 . S
O504 C512 1.315 . S
Cd505 O504 2.223 . S
Cd505 O508 2.297 . S
Cd505 O509 2.439 . S
Cd505 O515 2.240 . S
Cd506 O507 2.240 . S
Cd506 O514 2.223 . S
Cd506 O516 2.297 . S
Cd506 O517 2.439 . S
O507 Cd506 2.240 . S
O507 C512 1.279 . S
O508 Cd505 2.297 . S
O508 C510 1.247 . S
O509 Cd505 2.439 . S
O509 C510 1.208 . S
C510 O508 1.247 . S
C510 O509 1.208 . S
C511 O516 1.247 . S
C511 O517 1.208 . S
C512 O504 1.315 . S
C512 O507 1.279 . S
C513 O514 1.315 . S
C513 O515 1.279 . S
O514 Cd506 2.223 . S
O514 C513 1.315 . S
O515 Cd505 2.240 . S
O515 C513 1.279 . S
O516 Cd506 2.297 . S
O516 C511 1.247 . S
O517 Cd506 2.439 . S
O517 C511 1.208 . S
O518 Cd519 2.223 . S
O518 C526 1.315 . S
Cd519 O518 2.223 . S
Cd519 O522 2.297 . S
Cd519 O523 2.439 . S
Cd519 O529 2.240 . S
Cd520 O521 2.240 . S
Cd520 O528 2.223 . S
Cd520 O530 2.297 . S
Cd520 O531 2.439 . S
O521 Cd520 2.240 . S
O521 C526 1.279 . S
O522 Cd519 2.297 . S
O522 C524 1.247 . S
O523 Cd519 2.439 . S
O523 C524 1.208 . S
C524 O522 1.247 . S
C524 O523 1.208 . S
C525 O530 1.247 . S
C525 O531 1.208 . S
C526 O518 1.315 . S
C526 O521 1.279 . S
C527 O528 1.315 . S
C527 O529 1.279 . S
O528 Cd520 2.223 . S
O528 C527 1.315 . S
O529 Cd519 2.240 . S
O529 C527 1.279 . S
O530 Cd520 2.297 . S
O530 C525 1.247 . S
O531 Cd520 2.439 . S
O531 C525 1.208 . S
O532 Cd533 2.223 . S
O532 C540 1.315 . S
Cd533 O532 2.223 . S
Cd533 O536 2.297 . S
Cd533 O537 2.439 . S
Cd533 O543 2.240 . S
Cd534 O535 2.240 . S
Cd534 O542 2.223 . S
Cd534 O544 2.297 . S
Cd534 O545 2.439 . S
O535 Cd534 2.240 . S
O535 C540 1.279 . S
O536 Cd533 2.297 . S
O536 C538 1.247 . S
O537 Cd533 2.439 . S
O537 C538 1.208 . S
C538 O536 1.247 . S
C538 O537 1.208 . S
C539 O544 1.247 . S
C539 O545 1.208 . S
C540 O532 1.315 . S
C540 O535 1.279 . S
C541 O542 1.315 . S
C541 O543 1.279 . S
O542 Cd534 2.223 . S
O542 C541 1.315 . S
O543 Cd533 2.240 . S
O543 C541 1.279 . S
O544 Cd534 2.297 . S
O544 C539 1.247 . S
O545 Cd534 2.439 . S
O545 C539 1.208 . S
O546 Cd547 2.223 . S
O546 C554 1.315 . S
Cd547 O546 2.223 . S
Cd547 O550 2.297 . S
Cd547 O551 2.439 . S
Cd547 O557 2.240 . S
Cd548 O549 2.240 . S
Cd548 O556 2.223 . S
Cd548 O558 2.297 . S
Cd548 O559 2.439 . S
O549 Cd548 2.240 . S
O549 C554 1.279 . S
O550 Cd547 2.297 . S
O550 C552 1.247 . S
O551 Cd547 2.439 . S
O551 C552 1.208 . S
C552 O550 1.247 . S
C552 O551 1.208 . S
C553 O558 1.247 . S
C553 O559 1.208 . S
C554 O546 1.315 . S
C554 O549 1.279 . S
C555 O556 1.315 . S
C555 O557 1.279 . S
O556 Cd548 2.223 . S
O556 C555 1.315 . S
O557 Cd547 2.240 . S
O557 C555 1.279 . S
O558 Cd548 2.297 . S
O558 C553 1.247 . S
O559 Cd548 2.439 . S
O559 C553 1.208 . S
O560 Cd561 2.223 . S
O560 C568 1.315 . S
Cd561 O560 2.223 . S
Cd561 O564 2.297 . S
Cd561 O565 2.439 . S
Cd561 O571 2.240 . S
Cd562 O563 2.240 . S
Cd562 O570 2.223 . S
Cd562 O572 2.297 . S
Cd562 O573 2.439 . S
O563 Cd562 2.240 . S
O563 C568 1.279 . S
O564 Cd561 2.297 . S
O564 C566 1.247 . S
O565 Cd561 2.439 . S
O565 C566 1.208 . S
C566 O564 1.247 . S
C566 O565 1.208 . S
C567 O572 1.247 . S
C567 O573 1.208 . S
C568 O560 1.315 . S
C568 O563 1.279 . S
C569 O570 1.315 . S
C569 O571 1.279 . S
O570 Cd562 2.223 . S
O570 C569 1.315 . S
O571 Cd561 2.240 . S
O571 C569 1.279 . S
O572 Cd562 2.297 . S
O572 C567 1.247 . S
O573 Cd562 2.439 . S
O573 C567 1.208 . S
O574 Cd575 2.223 . S
O574 C582 1.315 . S
Cd575 O574 2.223 . S
Cd575 O578 2.297 . S
Cd575 O579 2.439 . S
Cd575 O585 2.240 . S
Cd576 O577 2.240 . S
Cd576 O584 2.223 . S
Cd576 O586 2.297 . S
Cd576 O587 2.439 . S
O577 Cd576 2.240 . S
O577 C582 1.279 . S
O578 Cd575 2.297 . S
O578 C580 1.247 . S
O579 Cd575 2.439 . S
O579 C580 1.208 . S
C580 O578 1.247 . S
C580 O579 1.208 . S
C581 O586 1.247 . S
C581 O587 1.208 . S
C582 O574 1.315 . S
C582 O577 1.279 . S
C583 O584 1.315 . S
C583 O585 1.279 . S
O584 Cd576 2.223 . S
O584 C583 1.315 . S
O585 Cd575 2.240 . S
O585 C583 1.279 . S
O586 Cd576 2.297 . S
O586 C581 1.247 . S
O587 Cd576 2.439 . S
O587 C581 1.208 . S
O588 Cd589 2.223 . S
O588 C596 1.315 . S
Cd589 O588 2.223 . S
Cd589 O592 2.297 . S
Cd589 O593 2.439 . S
Cd589 O599 2.240 . S
Cd590 O591 2.240 . S
Cd590 O598 2.223 . S
Cd590 O600 2.297 . S
Cd590 O601 2.439 . S
O591 Cd590 2.240 . S
O591 C596 1.279 . S
O592 Cd589 2.297 . S
O592 C594 1.247 . S
O593 Cd589 2.439 . S
O593 C594 1.208 . S
C594 O592 1.247 . S
C594 O593 1.208 . S
C595 O600 1.247 . S
C595 O601 1.208 . S
C596 O588 1.315 . S
C596 O591 1.279 . S
C597 O598 1.315 . S
C597 O599 1.279 . S
O598 Cd590 2.223 . S
O598 C597 1.315 . S
O599 Cd589 2.240 . S
O599 C597 1.279 . S
O600 Cd590 2.297 . S
O600 C595 1.247 . S
O601 Cd590 2.439 . S
O601 C595 1.208 . S
O602 Cd603 2.223 . S
O602 C610 1.315 . S
Cd603 O602 2.223 . S
Cd603 O606 2.297 . S
Cd603 O607 2.439 . S
Cd603 O613 2.240 . S
Cd604 O605 2.240 . S
Cd604 O612 2.223 . S
Cd604 O614 2.297 . S
Cd604 O615 2.439 . S
O605 Cd604 2.240 . S
O605 C610 1.279 . S
O606 Cd603 2.297 . S
O606 C608 1.247 . S
O607 Cd603 2.439 . S
O607 C608 1.208 . S
C608 O606 1.247 . S
C608 O607 1.208 . S
C609 O614 1.247 . S
C609 O615 1.208 . S
C610 O602 1.315 . S
C610 O605 1.279 . S
C611 O612 1.315 . S
C611 O613 1.279 . S
O612 Cd604 2.223 . S
O612 C611 1.315 . S
O613 Cd603 2.240 . S
O613 C611 1.279 . S
O614 Cd604 2.297 . S
O614 C609 1.247 . S
O615 Cd604 2.439 . S
O615 C609 1.208 . S
O616 Cd617 2.223 . S
O616 C624 1.315 . S
Cd617 O616 2.223 . S
Cd617 O620 2.297 . S
Cd617 O621 2.439 . S
Cd617 O627 2.240 . S
Cd618 O619 2.240 . S
Cd618 O626 2.223 . S
Cd618 O628 2.297 . S
Cd618 O629 2.439 . S
O619 Cd618 2.240 . S
O619 C624 1.279 . S
O620 Cd617 2.297 . S
O620 C622 1.247 . S
O621 Cd617 2.439 . S
O621 C622 1.208 . S
C622 O620 1.247 . S
C622 O621 1.208 . S
C623 O628 1.247 . S
C623 O629 1.208 . S
C624 O616 1.315 . S
C624 O619 1.279 . S
C625 O626 1.315 . S
C625 O627 1.279 . S
O626 Cd618 2.223 . S
O626 C625 1.315 . S
O627 Cd617 2.240 . S
O627 C625 1.279 . S
O628 Cd618 2.297 . S
O628 C623 1.247 . S
O629 Cd618 2.439 . S
O629 C623 1.208 . S
O630 Cd631 2.223 . S
O630 C638 1.315 . S
Cd631 O630 2.223 . S
Cd631 O634 2.297 . S
Cd631 O635 2.439 . S
Cd631 O641 2.240 . S
Cd632 O633 2.240 . S
Cd632 O640 2.223 . S
Cd632 O642 2.297 . S
Cd632 O643 2.439 . S
O633 Cd632 2.240 . S
O633 C638 1.279 . S
O634 Cd631 2.297 . S
O634 C636 1.247 . S
O635 Cd631 2.439 . S
O635 C636 1.208 . S
C636 O634 1.247 . S
C636 O635 1.208 . S
C637 O642 1.247 . S
C637 O643 1.208 . S
C638 O630 1.315 . S
C638 O633 1.279 . S
C639 O640 1.315 . S
C639 O641 1.279 . S
O640 Cd632 2.223 . S
O640 C639 1.315 . S
O641 Cd631 2.240 . S
O641 C639 1.279 . S
O642 Cd632 2.297 . S
O642 C637 1.247 . S
O643 Cd632 2.439 . S
O643 C637 1.208 . S
O644 Cd645 2.223 . S
O644 C652 1.315 . S
Cd645 O644 2.223 . S
Cd645 O648 2.297 . S
Cd645 O649 2.439 . S
Cd645 O655 2.240 . S
Cd646 O647 2.240 . S
Cd646 O654 2.223 . S
Cd646 O656 2.297 . S
Cd646 O657 2.439 . S
O647 Cd646 2.240 . S
O647 C652 1.279 . S
O648 Cd645 2.297 . S
O648 C650 1.247 . S
O649 Cd645 2.439 . S
O649 C650 1.208 . S
C650 O648 1.247 . S
C650 O649 1.208 . S
C651 O656 1.247 . S
C651 O657 1.208 . S
C652 O644 1.315 . S
C652 O647 1.279 . S
C653 O654 1.315 . S
C653 O655 1.279 . S
O654 Cd646 2.223 . S
O654 C653 1.315 . S
O655 Cd645 2.240 . S
O655 C653 1.279 . S
O656 Cd646 2.297 . S
O656 C651 1.247 . S
O657 Cd646 2.439 . S
O657 C651 1.208 . S
O658 Cd659 2.223 . S
O658 C666 1.315 . S
Cd659 O658 2.223 . S
Cd659 O662 2.297 . S
Cd659 O663 2.439 . S
Cd659 O669 2.240 . S
Cd660 O661 2.240 . S
Cd660 O668 2.223 . S
Cd660 O670 2.297 . S
Cd660 O671 2.439 . S
O661 Cd660 2.240 . S
O661 C666 1.279 . S
O662 Cd659 2.297 . S
O662 C664 1.247 . S
O663 Cd659 2.439 . S
O663 C664 1.208 . S
C664 O662 1.247 . S
C664 O663 1.208 . S
C665 O670 1.247 . S
C665 O671 1.208 . S
C666 O658 1.315 . S
C666 O661 1.279 . S
C667 O668 1.315 . S
C667 O669 1.279 . S
O668 Cd660 2.223 . S
O668 C667 1.315 . S
O669 Cd659 2.240 . S
O669 C667 1.279 . S
O670 Cd660 2.297 . S
O670 C665 1.247 . S
O671 Cd660 2.439 . S
O671 C665 1.208 . S
C672 C673 1.349 . S
C672 C674 1.327 . S
C672 H697 0.950 . S
C673 C672 1.349 . S
C673 C689 1.349 . S
C674 C672 1.327 . S
C674 C693 1.429 . S
C674 H698 0.950 . S
C675 C692 1.574 . S
C675 C694 1.368 . S
C675 H699 0.949 . S
H676 C680 0.949 . S
C677 C678 1.349 . S
C677 C679 1.327 . S
C677 H700 0.950 . S
C678 C677 1.349 . S
C678 C690 1.349 . S
C679 C677 1.327 . S
C679 C695 1.429 . S
C679 H701 0.950 . S
C680 H676 0.949 . S
C680 C688 1.574 . S
C680 C696 1.368 . S
H681 C689 0.950 . S
H682 C687 0.950 . S
H683 C688 0.949 . S
H684 C690 0.950 . S
H685 C691 0.950 . S
H686 C692 0.949 . S
C687 H682 0.950 . S
C687 C689 1.327 . S
C687 C693 1.429 . S
C688 C680 1.574 . S
C688 H683 0.949 . S
C688 C694 1.368 . S
C689 C673 1.349 . S
C689 H681 0.950 . S
C689 C687 1.327 . S
C690 C678 1.349 . S
C690 H684 0.950 . S
C690 C691 1.327 . S
C691 H685 0.950 . S
C691 C690 1.327 . S
C691 C695 1.429 . S
C692 C675 1.574 . S
C692 H686 0.949 . S
C692 C696 1.368 . S
C693 C674 1.429 . S
C693 C687 1.429 . S
C693 C694 1.523 . S
C694 C675 1.368 . S
C694 C688 1.368 . S
C694 C693 1.523 . S
C695 C679 1.429 . S
C695 C691 1.429 . S
C695 C696 1.523 . S
C696 C680 1.368 . S
C696 C692 1.368 . S
C696 C695 1.523 . S
H697 C672 0.950 . S
H698 C674 0.950 . S
H699 C675 0.949 . S
H700 C677 0.950 . S
H701 C679 0.950 . S
C702 C703 1.349 . S
C702 C704 1.327 . S
C702 H727 0.950 . S
C703 C702 1.349 . S
C703 C719 1.349 . S
C704 C702 1.327 . S
C704 C723 1.429 . S
C704 H728 0.950 . S
C705 C722 1.574 . S
C705 C724 1.368 . S
C705 H729 0.949 . S
H706 C710 0.949 . S
C707 C708 1.349 . S
C707 C709 1.327 . S
C707 H730 0.950 . S
C708 C707 1.349 . S
C708 C720 1.349 . S
C709 C707 1.327 . S
C709 C725 1.429 . S
C709 H731 0.950 . S
C710 H706 0.949 . S
C710 C718 1.574 . S
C710 C726 1.368 . S
H711 C719 0.950 . S
H712 C717 0.950 . S
H713 C718 0.949 . S
H714 C720 0.950 . S
H715 C721 0.950 . S
H716 C722 0.949 . S
C717 H712 0.950 . S
C717 C719 1.327 . S
C717 C723 1.429 . S
C718 C710 1.574 . S
C718 H713 0.949 . S
C718 C724 1.368 . S
C719 C703 1.349 . S
C719 H711 0.950 . S
C719 C717 1.327 . S
C720 C708 1.349 . S
C720 H714 0.950 . S
C720 C721 1.327 . S
C721 H715 0.950 . S
C721 C720 1.327 . S
C721 C725 1.429 . S
C722 C705 1.574 . S
C722 H716 0.949 . S
C722 C726 1.368 . S
C723 C704 1.429 . S
C723 C717 1.429 . S
C723 C724 1.523 . S
C724 C705 1.368 . S
C724 C718 1.368 . S
C724 C723 1.523 . S
C725 C709 1.429 . S
C725 C721 1.429 . S
C725 C726 1.523 . S
C726 C710 1.368 . S
C726 C722 1.368 . S
C726 C725 1.523 . S
H727 C702 0.950 . S
H728 C704 0.950 . S
H729 C705 0.949 . S
H730 C707 0.950 . S
H731 C709 0.950 . S
C732 C733 1.349 . S
C732 C734 1.327 . S
C732 H757 0.950 . S
C733 C732 1.349 . S
C733 C749 1.349 . S
C734 C732 1.327 . S
C734 C753 1.429 . S
C734 H758 0.950 . S
C735 C752 1.574 . S
C735 C754 1.368 . S
C735 H759 0.949 . S
H736 C740 0.949 . S
C737 C738 1.349 . S
C737 C739 1.327 . S
C737 H760 0.950 . S
C738 C737 1.349 . S
C738 C750 1.349 . S
C739 C737 1.327 . S
C739 C755 1.429 . S
C739 H761 0.950 . S
C740 H736 0.949 . S
C740 C748 1.574 . S
C740 C756 1.368 . S
H741 C749 0.950 . S
H742 C747 0.950 . S
H743 C748 0.949 . S
H744 C750 0.950 . S
H745 C751 0.950 . S
H746 C752 0.949 . S
C747 H742 0.950 . S
C747 C749 1.327 . S
C747 C753 1.429 . S
C748 C740 1.574 . S
C748 H743 0.949 . S
C748 C754 1.368 . S
C749 C733 1.349 . S
C749 H741 0.950 . S
C749 C747 1.327 . S
C750 C738 1.349 . S
C750 H744 0.950 . S
C750 C751 1.327 . S
C751 H745 0.950 . S
C751 C750 1.327 . S
C751 C755 1.429 . S
C752 C735 1.574 . S
C752 H746 0.949 . S
C752 C756 1.368 . S
C753 C734 1.429 . S
C753 C747 1.429 . S
C753 C754 1.523 . S
C754 C735 1.368 . S
C754 C748 1.368 . S
C754 C753 1.523 . S
C755 C739 1.429 . S
C755 C751 1.429 . S
C755 C756 1.523 . S
C756 C740 1.368 . S
C756 C752 1.368 . S
C756 C755 1.523 . S
H757 C732 0.950 . S
H758 C734 0.950 . S
H759 C735 0.949 . S
H760 C737 0.950 . S
H761 C739 0.950 . S
C762 C763 1.349 . S
C762 C764 1.327 . S
C762 H787 0.950 . S
C763 C762 1.349 . S
C763 C779 1.349 . S
C764 C762 1.327 . S
C764 C783 1.429 . S
C764 H788 0.950 . S
C765 C782 1.574 . S
C765 C784 1.368 . S
C765 H789 0.949 . S
H766 C770 0.949 . S
C767 C768 1.349 . S
C767 C769 1.327 . S
C767 H790 0.950 . S
C768 C767 1.349 . S
C768 C780 1.349 . S
C769 C767 1.327 . S
C769 C785 1.429 . S
C769 H791 0.950 . S
C770 H766 0.949 . S
C770 C778 1.574 . S
C770 C786 1.368 . S
H771 C779 0.950 . S
H772 C777 0.950 . S
H773 C778 0.949 . S
H774 C780 0.950 . S
H775 C781 0.950 . S
H776 C782 0.949 . S
C777 H772 0.950 . S
C777 C779 1.327 . S
C777 C783 1.429 . S
C778 C770 1.574 . S
C778 H773 0.949 . S
C778 C784 1.368 . S
C779 C763 1.349 . S
C779 H771 0.950 . S
C779 C777 1.327 . S
C780 C768 1.349 . S
C780 H774 0.950 . S
C780 C781 1.327 . S
C781 H775 0.950 . S
C781 C780 1.327 . S
C781 C785 1.429 . S
C782 C765 1.574 . S
C782 H776 0.949 . S
C782 C786 1.368 . S
C783 C764 1.429 . S
C783 C777 1.429 . S
C783 C784 1.523 . S
C784 C765 1.368 . S
C784 C778 1.368 . S
C784 C783 1.523 . S
C785 C769 1.429 . S
C785 C781 1.429 . S
C785 C786 1.523 . S
C786 C770 1.368 . S
C786 C782 1.368 . S
C786 C785 1.523 . S
H787 C762 0.950 . S
H788 C764 0.950 . S
H789 C765 0.949 . S
H790 C767 0.950 . S
H791 C769 0.950 . S
C792 C793 1.349 . S
C792 C794 1.327 . S
C792 H817 0.950 . S
C793 C792 1.349 . S
C793 C809 1.349 . S
C794 C792 1.327 . S
C794 C813 1.429 . S
C794 H818 0.950 . S
C795 C812 1.574 . S
C795 C814 1.368 . S
C795 H819 0.949 . S
H796 C800 0.949 . S
C797 C798 1.349 . S
C797 C799 1.327 . S
C797 H820 0.950 . S
C798 C797 1.349 . S
C798 C810 1.349 . S
C799 C797 1.327 . S
C799 C815 1.429 . S
C799 H821 0.950 . S
C800 H796 0.949 . S
C800 C808 1.574 . S
C800 C816 1.368 . S
H801 C809 0.950 . S
H802 C807 0.950 . S
H803 C808 0.949 . S
H804 C810 0.950 . S
H805 C811 0.950 . S
H806 C812 0.949 . S
C807 H802 0.950 . S
C807 C809 1.327 . S
C807 C813 1.429 . S
C808 C800 1.574 . S
C808 H803 0.949 . S
C808 C814 1.368 . S
C809 C793 1.349 . S
C809 H801 0.950 . S
C809 C807 1.327 . S
C810 C798 1.349 . S
C810 H804 0.950 . S
C810 C811 1.327 . S
C811 H805 0.950 . S
C811 C810 1.327 . S
C811 C815 1.429 . S
C812 C795 1.574 . S
C812 H806 0.949 . S
C812 C816 1.368 . S
C813 C794 1.429 . S
C813 C807 1.429 . S
C813 C814 1.523 . S
C814 C795 1.368 . S
C814 C808 1.368 . S
C814 C813 1.523 . S
C815 C799 1.429 . S
C815 C811 1.429 . S
C815 C816 1.523 . S
C816 C800 1.368 . S
C816 C812 1.368 . S
C816 C815 1.523 . S
H817 C792 0.950 . S
H818 C794 0.950 . S
H819 C795 0.949 . S
H820 C797 0.950 . S
H821 C799 0.950 . S
C822 C823 1.349 . S
C822 C824 1.327 . S
C822 H847 0.950 . S
C823 C822 1.349 . S
C823 C839 1.349 . S
C824 C822 1.327 . S
C824 C843 1.429 . S
C824 H848 0.950 . S
C825 C842 1.574 . S
C825 C844 1.368 . S
C825 H849 0.949 . S
H826 C830 0.949 . S
C827 C828 1.349 . S
C827 C829 1.327 . S
C827 H850 0.950 . S
C828 C827 1.349 . S
C828 C840 1.349 . S
C829 C827 1.327 . S
C829 C845 1.429 . S
C829 H851 0.950 . S
C830 H826 0.949 . S
C830 C838 1.574 . S
C830 C846 1.368 . S
H831 C839 0.950 . S
H832 C837 0.950 . S
H833 C838 0.949 . S
H834 C840 0.950 . S
H835 C841 0.950 . S
H836 C842 0.949 . S
C837 H832 0.950 . S
C837 C839 1.327 . S
C837 C843 1.429 . S
C838 C830 1.574 . S
C838 H833 0.949 . S
C838 C844 1.368 . S
C839 C823 1.349 . S
C839 H831 0.950 . S
C839 C837 1.327 . S
C840 C828 1.349 . S
C840 H834 0.950 . S
C840 C841 1.327 . S
C841 H835 0.950 . S
C841 C840 1.327 . S
C841 C845 1.429 . S
C842 C825 1.574 . S
C842 H836 0.949 . S
C842 C846 1.368 . S
C843 C824 1.429 . S
C843 C837 1.429 . S
C843 C844 1.523 . S
C844 C825 1.368 . S
C844 C838 1.368 . S
C844 C843 1.523 . S
C845 C829 1.429 . S
C845 C841 1.429 . S
C845 C846 1.523 . S
C846 C830 1.368 . S
C846 C842 1.368 . S
C846 C845 1.523 . S
H847 C822 0.950 . S
H848 C824 0.950 . S
H849 C825 0.949 . S
H850 C827 0.950 . S
H851 C829 0.950 . S
C852 C853 1.349 . S
C852 C854 1.327 . S
C852 H877 0.950 . S
C853 C852 1.349 . S
C853 C869 1.349 . S
C854 C852 1.327 . S
C854 C873 1.429 . S
C854 H878 0.950 . S
C855 C872 1.574 . S
C855 C874 1.368 . S
C855 H879 0.949 . S
H856 C860 0.949 . S
C857 C858 1.349 . S
C857 C859 1.327 . S
C857 H880 0.950 . S
C858 C857 1.349 . S
C858 C870 1.349 . S
C859 C857 1.327 . S
C859 C875 1.429 . S
C859 H881 0.950 . S
C860 H856 0.949 . S
C860 C868 1.574 . S
C860 C876 1.368 . S
H861 C869 0.950 . S
H862 C867 0.950 . S
H863 C868 0.949 . S
H864 C870 0.950 . S
H865 C871 0.950 . S
H866 C872 0.949 . S
C867 H862 0.950 . S
C867 C869 1.327 . S
C867 C873 1.429 . S
C868 C860 1.574 . S
C868 H863 0.949 . S
C868 C874 1.368 . S
C869 C853 1.349 . S
C869 H861 0.950 . S
C869 C867 1.327 . S
C870 C858 1.349 . S
C870 H864 0.950 . S
C870 C871 1.327 . S
C871 H865 0.950 . S
C871 C870 1.327 . S
C871 C875 1.429 . S
C872 C855 1.574 . S
C872 H866 0.949 . S
C872 C876 1.368 . S
C873 C854 1.429 . S
C873 C867 1.429 . S
C873 C874 1.523 . S
C874 C855 1.368 . S
C874 C868 1.368 . S
C874 C873 1.523 . S
C875 C859 1.429 . S
C875 C871 1.429 . S
C875 C876 1.523 . S
C876 C860 1.368 . S
C876 C872 1.368 . S
C876 C875 1.523 . S
H877 C852 0.950 . S
H878 C854 0.950 . S
H879 C855 0.949 . S
H880 C857 0.950 . S
H881 C859 0.950 . S
C882 C883 1.349 . S
C882 C884 1.327 . S
C882 H907 0.950 . S
C883 C882 1.349 . S
C883 C899 1.349 . S
C884 C882 1.327 . S
C884 C903 1.429 . S
C884 H908 0.950 . S
C885 C902 1.574 . S
C885 C904 1.368 . S
C885 H909 0.949 . S
H886 C890 0.949 . S
C887 C888 1.349 . S
C887 C889 1.327 . S
C887 H910 0.950 . S
C888 C887 1.349 . S
C888 C900 1.349 . S
C889 C887 1.327 . S
C889 C905 1.429 . S
C889 H911 0.950 . S
C890 H886 0.949 . S
C890 C898 1.574 . S
C890 C906 1.368 . S
H891 C899 0.950 . S
H892 C897 0.950 . S
H893 C898 0.949 . S
H894 C900 0.950 . S
H895 C901 0.950 . S
H896 C902 0.949 . S
C897 H892 0.950 . S
C897 C899 1.327 . S
C897 C903 1.429 . S
C898 C890 1.574 . S
C898 H893 0.949 . S
C898 C904 1.368 . S
C899 C883 1.349 . S
C899 H891 0.950 . S
C899 C897 1.327 . S
C900 C888 1.349 . S
C900 H894 0.950 . S
C900 C901 1.327 . S
C901 H895 0.950 . S
C901 C900 1.327 . S
C901 C905 1.429 . S
C902 C885 1.574 . S
C902 H896 0.949 . S
C902 C906 1.368 . S
C903 C884 1.429 . S
C903 C897 1.429 . S
C903 C904 1.523 . S
C904 C885 1.368 . S
C904 C898 1.368 . S
C904 C903 1.523 . S
C905 C889 1.429 . S
C905 C901 1.429 . S
C905 C906 1.523 . S
C906 C890 1.368 . S
C906 C902 1.368 . S
C906 C905 1.523 . S
H907 C882 0.950 . S
H908 C884 0.950 . S
H909 C885 0.949 . S
H910 C887 0.950 . S
H911 C889 0.950 . S
C912 C913 1.349 . S
C912 C914 1.327 . S
C912 H937 0.950 . S
C913 C912 1.349 . S
C913 C929 1.349 . S
C914 C912 1.327 . S
C914 C933 1.429 . S
C914 H938 0.950 . S
C915 C932 1.574 . S
C915 C934 1.368 . S
C915 H939 0.949 . S
H916 C920 0.949 . S
C917 C918 1.349 . S
C917 C919 1.327 . S
C917 H940 0.950 . S
C918 C917 1.349 . S
C918 C930 1.349 . S
C919 C917 1.327 . S
C919 C935 1.429 . S
C919 H941 0.950 . S
C920 H916 0.949 . S
C920 C928 1.574 . S
C920 C936 1.368 . S
H921 C929 0.950 . S
H922 C927 0.950 . S
H923 C928 0.949 . S
H924 C930 0.950 . S
H925 C931 0.950 . S
H926 C932 0.949 . S
C927 H922 0.950 . S
C927 C929 1.327 . S
C927 C933 1.429 . S
C928 C920 1.574 . S
C928 H923 0.949 . S
C928 C934 1.368 . S
C929 C913 1.349 . S
C929 H921 0.950 . S
C929 C927 1.327 . S
C930 C918 1.349 . S
C930 H924 0.950 . S
C930 C931 1.327 . S
C931 H925 0.950 . S
C931 C930 1.327 . S
C931 C935 1.429 . S
C932 C915 1.574 . S
C932 H926 0.949 . S
C932 C936 1.368 . S
C933 C914 1.429 . S
C933 C927 1.429 . S
C933 C934 1.523 . S
C934 C915 1.368 . S
C934 C928 1.368 . S
C934 C933 1.523 . S
C935 C919 1.429 . S
C935 C931 1.429 . S
C935 C936 1.523 . S
C936 C920 1.368 . S
C936 C932 1.368 . S
C936 C935 1.523 . S
H937 C912 0.950 . S
H938 C914 0.950 . S
H939 C915 0.949 . S
H940 C917 0.950 . S
H941 C919 0.950 . S
C942 C943 1.349 . S
C942 C944 1.327 . S
C942 H967 0.950 . S
C943 C942 1.349 . S
C943 C959 1.349 . S
C944 C942 1.327 . S
C944 C963 1.429 . S
C944 H968 0.950 . S
C945 C962 1.574 . S
C945 C964 1.368 . S
C945 H969 0.949 . S
H946 C950 0.949 . S
C947 C948 1.349 . S
C947 C949 1.327 . S
C947 H970 0.950 . S
C948 C947 1.349 . S
C948 C960 1.349 . S
C949 C947 1.327 . S
C949 C965 1.429 . S
C949 H971 0.950 . S
C950 H946 0.949 . S
C950 C958 1.574 . S
C950 C966 1.368 . S
H951 C959 0.950 . S
H952 C957 0.950 . S
H953 C958 0.949 . S
H954 C960 0.950 . S
H955 C961 0.950 . S
H956 C962 0.949 . S
C957 H952 0.950 . S
C957 C959 1.327 . S
C957 C963 1.429 . S
C958 C950 1.574 . S
C958 H953 0.949 . S
C958 C964 1.368 . S
C959 C943 1.349 . S
C959 H951 0.950 . S
C959 C957 1.327 . S
C960 C948 1.349 . S
C960 H954 0.950 . S
C960 C961 1.327 . S
C961 H955 0.950 . S
C961 C960 1.327 . S
C961 C965 1.429 . S
C962 C945 1.574 . S
C962 H956 0.949 . S
C962 C966 1.368 . S
C963 C944 1.429 . S
C963 C957 1.429 . S
C963 C964 1.523 . S
C964 C945 1.368 . S
C964 C958 1.368 . S
C964 C963 1.523 . S
C965 C949 1.429 . S
C965 C961 1.429 . S
C965 C966 1.523 . S
C966 C950 1.368 . S
C966 C962 1.368 . S
C966 C965 1.523 . S
H967 C942 0.950 . S
H968 C944 0.950 . S
H969 C945 0.949 . S
H970 C947 0.950 . S
H971 C949 0.950 . S
C972 C973 1.349 . S
C972 C974 1.327 . S
C972 H997 0.950 . S
C973 C972 1.349 . S
C973 C989 1.349 . S
C974 C972 1.327 . S
C974 C993 1.429 . S
C974 H998 0.950 . S
C975 C992 1.574 . S
C975 C994 1.368 . S
C975 H999 0.949 . S
H976 C980 0.949 . S
C977 C978 1.349 . S
C977 C979 1.327 . S
C977 H1000 0.950 . S
C978 C977 1.349 . S
C978 C990 1.349 . S
C979 C977 1.327 . S
C979 C995 1.429 . S
C979 H1001 0.950 . S
C980 H976 0.949 . S
C980 C988 1.574 . S
C980 C996 1.368 . S
H981 C989 0.950 . S
H982 C987 0.950 . S
H983 C988 0.949 . S
H984 C990 0.950 . S
H985 C991 0.950 . S
H986 C992 0.949 . S
C987 H982 0.950 . S
C987 C989 1.327 . S
C987 C993 1.429 . S
C988 C980 1.574 . S
C988 H983 0.949 . S
C988 C994 1.368 . S
C989 C973 1.349 . S
C989 H981 0.950 . S
C989 C987 1.327 . S
C990 C978 1.349 . S
C990 H984 0.950 . S
C990 C991 1.327 . S
C991 H985 0.950 . S
C991 C990 1.327 . S
C991 C995 1.429 . S
C992 C975 1.574 . S
C992 H986 0.949 . S
C992 C996 1.368 . S
C993 C974 1.429 . S
C993 C987 1.429 . S
C993 C994 1.523 . S
C994 C975 1.368 . S
C994 C988 1.368 . S
C994 C993 1.523 . S
C995 C979 1.429 . S
C995 C991 1.429 . S
C995 C996 1.523 . S
C996 C980 1.368 . S
C996 C992 1.368 . S
C996 C995 1.523 . S
H997 C972 0.950 . S
H998 C974 0.950 . S
H999 C975 0.949 . S
H1000 C977 0.950 . S
H1001 C979 0.950 . S
C1002 C1003 1.349 . S
C1002 C1004 1.327 . S
C1002 H1027 0.950 . S
C1003 C1002 1.349 . S
C1003 C1019 1.349 . S
C1004 C1002 1.327 . S
C1004 C1023 1.429 . S
C1004 H1028 0.950 . S
C1005 C1022 1.574 . S
C1005 C1024 1.368 . S
C1005 H1029 0.949 . S
H1006 C1010 0.949 . S
C1007 C1008 1.349 . S
C1007 C1009 1.327 . S
C1007 H1030 0.950 . S
C1008 C1007 1.349 . S
C1008 C1020 1.349 . S
C1009 C1007 1.327 . S
C1009 C1025 1.429 . S
C1009 H1031 0.950 . S
C1010 H1006 0.949 . S
C1010 C1018 1.574 . S
C1010 C1026 1.368 . S
H1011 C1019 0.950 . S
H1012 C1017 0.950 . S
H1013 C1018 0.949 . S
H1014 C1020 0.950 . S
H1015 C1021 0.950 . S
H1016 C1022 0.949 . S
C1017 H1012 0.950 . S
C1017 C1019 1.327 . S
C1017 C1023 1.429 . S
C1018 C1010 1.574 . S
C1018 H1013 0.949 . S
C1018 C1024 1.368 . S
C1019 C1003 1.349 . S
C1019 H1011 0.950 . S
C1019 C1017 1.327 . S
C1020 C1008 1.349 . S
C1020 H1014 0.950 . S
C1020 C1021 1.327 . S
C1021 H1015 0.950 . S
C1021 C1020 1.327 . S
C1021 C1025 1.429 . S
C1022 C1005 1.574 . S
C1022 H1016 0.949 . S
C1022 C1026 1.368 . S
C1023 C1004 1.429 . S
C1023 C1017 1.429 . S
C1023 C1024 1.523 . S
C1024 C1005 1.368 . S
C1024 C1018 1.368 . S
C1024 C1023 1.523 . S
C1025 C1009 1.429 . S
C1025 C1021 1.429 . S
C1025 C1026 1.523 . S
C1026 C1010 1.368 . S
C1026 C1022 1.368 . S
C1026 C1025 1.523 . S
H1027 C1002 0.950 . S
H1028 C1004 0.950 . S
H1029 C1005 0.949 . S
H1030 C1007 0.950 . S
H1031 C1009 0.950 . S
C1032 C1033 1.349 . S
C1032 C1034 1.327 . S
C1032 H1057 0.950 . S
C1033 C1032 1.349 . S
C1033 C1049 1.349 . S
C1034 C1032 1.327 . S
C1034 C1053 1.429 . S
C1034 H1058 0.950 . S
C1035 C1052 1.574 . S
C1035 C1054 1.368 . S
C1035 H1059 0.949 . S
H1036 C1040 0.949 . S
C1037 C1038 1.349 . S
C1037 C1039 1.327 . S
C1037 H1060 0.950 . S
C1038 C1037 1.349 . S
C1038 C1050 1.349 . S
C1039 C1037 1.327 . S
C1039 C1055 1.429 . S
C1039 H1061 0.950 . S
C1040 H1036 0.949 . S
C1040 C1048 1.574 . S
C1040 C1056 1.368 . S
H1041 C1049 0.950 . S
H1042 C1047 0.950 . S
H1043 C1048 0.949 . S
H1044 C1050 0.950 . S
H1045 C1051 0.950 . S
H1046 C1052 0.949 . S
C1047 H1042 0.950 . S
C1047 C1049 1.327 . S
C1047 C1053 1.429 . S
C1048 C1040 1.574 . S
C1048 H1043 0.949 . S
C1048 C1054 1.368 . S
C1049 C1033 1.349 . S
C1049 H1041 0.950 . S
C1049 C1047 1.327 . S
C1050 C1038 1.349 . S
C1050 H1044 0.950 . S
C1050 C1051 1.327 . S
C1051 H1045 0.950 . S
C1051 C1050 1.327 . S
C1051 C1055 1.429 . S
C1052 C1035 1.574 . S
C1052 H1046 0.949 . S
C1052 C1056 1.368 . S
C1053 C1034 1.429 . S
C1053 C1047 1.429 . S
C1053 C1054 1.523 . S
C1054 C1035 1.368 . S
C1054 C1048 1.368 . S
C1054 C1053 1.523 . S
C1055 C1039 1.429 . S
C1055 C1051 1.429 . S
C1055 C1056 1.523 . S
C1056 C1040 1.368 . S
C1056 C1052 1.368 . S
C1056 C1055 1.523 . S
H1057 C1032 0.950 . S
H1058 C1034 0.950 . S
H1059 C1035 0.949 . S
H1060 C1037 0.950 . S
H1061 C1039 0.950 . S
C1062 C1063 1.349 . S
C1062 C1064 1.327 . S
C1062 H1087 0.950 . S
C1063 C1062 1.349 . S
C1063 C1079 1.349 . S
C1064 C1062 1.327 . S
C1064 C1083 1.429 . S
C1064 H1088 0.950 . S
C1065 C1082 1.574 . S
C1065 C1084 1.368 . S
C1065 H1089 0.949 . S
H1066 C1070 0.949 . S
C1067 C1068 1.349 . S
C1067 C1069 1.327 . S
C1067 H1090 0.950 . S
C1068 C1067 1.349 . S
C1068 C1080 1.349 . S
C1069 C1067 1.327 . S
C1069 C1085 1.429 . S
C1069 H1091 0.950 . S
C1070 H1066 0.949 . S
C1070 C1078 1.574 . S
C1070 C1086 1.368 . S
H1071 C1079 0.950 . S
H1072 C1077 0.950 . S
H1073 C1078 0.949 . S
H1074 C1080 0.950 . S
H1075 C1081 0.950 . S
H1076 C1082 0.949 . S
C1077 H1072 0.950 . S
C1077 C1079 1.327 . S
C1077 C1083 1.429 . S
C1078 C1070 1.574 . S
C1078 H1073 0.949 . S
C1078 C1084 1.368 . S
C1079 C1063 1.349 . S
C1079 H1071 0.950 . S
C1079 C1077 1.327 . S
C1080 C1068 1.349 . S
C1080 H1074 0.950 . S
C1080 C1081 1.327 . S
C1081 H1075 0.950 . S
C1081 C1080 1.327 . S
C1081 C1085 1.429 . S
C1082 C1065 1.574 . S
C1082 H1076 0.949 . S
C1082 C1086 1.368 . S
C1083 C1064 1.429 . S
C1083 C1077 1.429 . S
C1083 C1084 1.523 . S
C1084 C1065 1.368 . S
C1084 C1078 1.368 . S
C1084 C1083 1.523 . S
C1085 C1069 1.429 . S
C1085 C1081 1.429 . S
C1085 C1086 1.523 . S
C1086 C1070 1.368 . S
C1086 C1082 1.368 . S
C1086 C1085 1.523 . S
H1087 C1062 0.950 . S
H1088 C1064 0.950 . S
H1089 C1065 0.949 . S
H1090 C1067 0.950 . S
H1091 C1069 0.950 . S
C1092 C1093 1.349 . S
C1092 C1094 1.327 . S
C1092 H1117 0.950 . S
C1093 C1092 1.349 . S
C1093 C1109 1.349 . S
C1094 C1092 1.327 . S
C1094 C1113 1.429 . S
C1094 H1118 0.950 . S
C1095 C1112 1.574 . S
C1095 C1114 1.368 . S
C1095 H1119 0.949 . S
H1096 C1100 0.949 . S
C1097 C1098 1.349 . S
C1097 C1099 1.327 . S
C1097 H1120 0.950 . S
C1098 C1097 1.349 . S
C1098 C1110 1.349 . S
C1099 C1097 1.327 . S
C1099 C1115 1.429 . S
C1099 H1121 0.950 . S
C1100 H1096 0.949 . S
C1100 C1108 1.574 . S
C1100 C1116 1.368 . S
H1101 C1109 0.950 . S
H1102 C1107 0.950 . S
H1103 C1108 0.949 . S
H1104 C1110 0.950 . S
H1105 C1111 0.950 . S
H1106 C1112 0.949 . S
C1107 H1102 0.950 . S
C1107 C1109 1.327 . S
C1107 C1113 1.429 . S
C1108 C1100 1.574 . S
C1108 H1103 0.949 . S
C1108 C1114 1.368 . S
C1109 C1093 1.349 . S
C1109 H1101 0.950 . S
C1109 C1107 1.327 . S
C1110 C1098 1.349 . S
C1110 H1104 0.950 . S
C1110 C1111 1.327 . S
C1111 H1105 0.950 . S
C1111 C1110 1.327 . S
C1111 C1115 1.429 . S
C1112 C1095 1.574 . S
C1112 H1106 0.949 . S
C1112 C1116 1.368 . S
C1113 C1094 1.429 . S
C1113 C1107 1.429 . S
C1113 C1114 1.523 . S
C1114 C1095 1.368 . S
C1114 C1108 1.368 . S
C1114 C1113 1.523 . S
C1115 C1099 1.429 . S
C1115 C1111 1.429 . S
C1115 C1116 1.523 . S
C1116 C1100 1.368 . S
C1116 C1112 1.368 . S
C1116 C1115 1.523 . S
H1117 C1092 0.950 . S
H1118 C1094 0.950 . S
H1119 C1095 0.949 . S
H1120 C1097 0.950 . S
H1121 C1099 0.950 . S
C1122 C1123 1.349 . S
C1122 C1124 1.327 . S
C1122 H1147 0.950 . S
C1123 C1122 1.349 . S
C1123 C1139 1.349 . S
C1124 C1122 1.327 . S
C1124 C1143 1.429 . S
C1124 H1148 0.950 . S
C1125 C1142 1.574 . S
C1125 C1144 1.368 . S
C1125 H1149 0.949 . S
H1126 C1130 0.949 . S
C1127 C1128 1.349 . S
C1127 C1129 1.327 . S
C1127 H1150 0.950 . S
C1128 C1127 1.349 . S
C1128 C1140 1.349 . S
C1129 C1127 1.327 . S
C1129 C1145 1.429 . S
C1129 H1151 0.950 . S
C1130 H1126 0.949 . S
C1130 C1138 1.574 . S
C1130 C1146 1.368 . S
H1131 C1139 0.950 . S
H1132 C1137 0.950 . S
H1133 C1138 0.949 . S
H1134 C1140 0.950 . S
H1135 C1141 0.950 . S
H1136 C1142 0.949 . S
C1137 H1132 0.950 . S
C1137 C1139 1.327 . S
C1137 C1143 1.429 . S
C1138 C1130 1.574 . S
C1138 H1133 0.949 . S
C1138 C1144 1.368 . S
C1139 C1123 1.349 . S
C1139 H1131 0.950 . S
C1139 C1137 1.327 . S
C1140 C1128 1.349 . S
C1140 H1134 0.950 . S
C1140 C1141 1.327 . S
C1141 H1135 0.950 . S
C1141 C1140 1.327 . S
C1141 C1145 1.429 . S
C1142 C1125 1.574 . S
C1142 H1136 0.949 . S
C1142 C1146 1.368 . S
C1143 C1124 1.429 . S
C1143 C1137 1.429 . S
C1143 C1144 1.523 . S
C1144 C1125 1.368 . S
C1144 C1138 1.368 . S
C1144 C1143 1.523 . S
C1145 C1129 1.429 . S
C1145 C1141 1.429 . S
C1145 C1146 1.523 . S
C1146 C1130 1.368 . S
C1146 C1142 1.368 . S
C1146 C1145 1.523 . S
H1147 C1122 0.950 . S
H1148 C1124 0.950 . S
H1149 C1125 0.949 . S
H1150 C1127 0.950 . S
H1151 C1129 0.950 . S
C1152 C1153 1.349 . S
C1152 C1154 1.327 . S
C1152 H1177 0.950 . S
C1153 C1152 1.349 . S
C1153 C1169 1.349 . S
C1154 C1152 1.327 . S
C1154 C1173 1.429 . S
C1154 H1178 0.950 . S
C1155 C1172 1.574 . S
C1155 C1174 1.368 . S
C1155 H1179 0.949 . S
H1156 C1160 0.949 . S
C1157 C1158 1.349 . S
C1157 C1159 1.327 . S
C1157 H1180 0.950 . S
C1158 C1157 1.349 . S
C1158 C1170 1.349 . S
C1159 C1157 1.327 . S
C1159 C1175 1.429 . S
C1159 H1181 0.950 . S
C1160 H1156 0.949 . S
C1160 C1168 1.574 . S
C1160 C1176 1.368 . S
H1161 C1169 0.950 . S
H1162 C1167 0.950 . S
H1163 C1168 0.949 . S
H1164 C1170 0.950 . S
H1165 C1171 0.950 . S
H1166 C1172 0.949 . S
C1167 H1162 0.950 . S
C1167 C1169 1.327 . S
C1167 C1173 1.429 . S
C1168 C1160 1.574 . S
C1168 H1163 0.949 . S
C1168 C1174 1.368 . S
C1169 C1153 1.349 . S
C1169 H1161 0.950 . S
C1169 C1167 1.327 . S
C1170 C1158 1.349 . S
C1170 H1164 0.950 . S
C1170 C1171 1.327 . S
C1171 H1165 0.950 . S
C1171 C1170 1.327 . S
C1171 C1175 1.429 . S
C1172 C1155 1.574 . S
C1172 H1166 0.949 . S
C1172 C1176 1.368 . S
C1173 C1154 1.429 . S
C1173 C1167 1.429 . S
C1173 C1174 1.523 . S
C1174 C1155 1.368 . S
C1174 C1168 1.368 . S
C1174 C1173 1.523 . S
C1175 C1159 1.429 . S
C1175 C1171 1.429 . S
C1175 C1176 1.523 . S
C1176 C1160 1.368 . S
C1176 C1172 1.368 . S
C1176 C1175 1.523 . S
H1177 C1152 0.950 . S
H1178 C1154 0.950 . S
H1179 C1155 0.949 . S
H1180 C1157 0.950 . S
H1181 C1159 0.950 . S
C1182 C1183 1.349 . S
C1182 C1184 1.327 . S
C1182 H1207 0.950 . S
C1183 C1182 1.349 . S
C1183 C1199 1.349 . S
C1184 C1182 1.327 . S
C1184 C1203 1.429 . S
C1184 H1208 0.950 . S
C1185 C1202 1.574 . S
C1185 C1204 1.368 . S
C1185 H1209 0.949 . S
H1186 C1190 0.949 . S
C1187 C1188 1.349 . S
C1187 C1189 1.327 . S
C1187 H1210 0.950 . S
C1188 C1187 1.349 . S
C1188 C1200 1.349 . S
C1189 C1187 1.327 . S
C1189 C1205 1.429 . S
C1189 H1211 0.950 . S
C1190 H1186 0.949 . S
C1190 C1198 1.574 . S
C1190 C1206 1.368 . S
H1191 C1199 0.950 . S
H1192 C1197 0.950 . S
H1193 C1198 0.949 . S
H1194 C1200 0.950 . S
H1195 C1201 0.950 . S
H1196 C1202 0.949 . S
C1197 H1192 0.950 . S
C1197 C1199 1.327 . S
C1197 C1203 1.429 . S
C1198 C1190 1.574 . S
C1198 H1193 0.949 . S
C1198 C1204 1.368 . S
C1199 C1183 1.349 . S
C1199 H1191 0.950 . S
C1199 C1197 1.327 . S
C1200 C1188 1.349 . S
C1200 H1194 0.950 . S
C1200 C1201 1.327 . S
C1201 H1195 0.950 . S
C1201 C1200 1.327 . S
C1201 C1205 1.429 . S
C1202 C1185 1.574 . S
C1202 H1196 0.949 . S
C1202 C1206 1.368 . S
C1203 C1184 1.429 . S
C1203 C1197 1.429 . S
C1203 C1204 1.523 . S
C1204 C1185 1.368 . S
C1204 C1198 1.368 . S
C1204 C1203 1.523 . S
C1205 C1189 1.429 . S
C1205 C1201 1.429 . S
C1205 C1206 1.523 . S
C1206 C1190 1.368 . S
C1206 C1202 1.368 . S
C1206 C1205 1.523 . S
H1207 C1182 0.950 . S
H1208 C1184 0.950 . S
H1209 C1185 0.949 . S
H1210 C1187 0.950 . S
H1211 C1189 0.950 . S
C1212 C1213 1.349 . S
C1212 C1214 1.327 . S
C1212 H1237 0.950 . S
C1213 C1212 1.349 . S
C1213 C1229 1.349 . S
C1214 C1212 1.327 . S
C1214 C1233 1.429 . S
C1214 H1238 0.950 . S
C1215 C1232 1.574 . S
C1215 C1234 1.368 . S
C1215 H1239 0.949 . S
H1216 C1220 0.949 . S
C1217 C1218 1.349 . S
C1217 C1219 1.327 . S
C1217 H1240 0.950 . S
C1218 C1217 1.349 . S
C1218 C1230 1.349 . S
C1219 C1217 1.327 . S
C1219 C1235 1.429 . S
C1219 H1241 0.950 . S
C1220 H1216 0.949 . S
C1220 C1228 1.574 . S
C1220 C1236 1.368 . S
H1221 C1229 0.950 . S
H1222 C1227 0.950 . S
H1223 C1228 0.949 . S
H1224 C1230 0.950 . S
H1225 C1231 0.950 . S
H1226 C1232 0.949 . S
C1227 H1222 0.950 . S
C1227 C1229 1.327 . S
C1227 C1233 1.429 . S
C1228 C1220 1.574 . S
C1228 H1223 0.949 . S
C1228 C1234 1.368 . S
C1229 C1213 1.349 . S
C1229 H1221 0.950 . S
C1229 C1227 1.327 . S
C1230 C1218 1.349 . S
C1230 H1224 0.950 . S
C1230 C1231 1.327 . S
C1231 H1225 0.950 . S
C1231 C1230 1.327 . S
C1231 C1235 1.429 . S
C1232 C1215 1.574 . S
C1232 H1226 0.949 . S
C1232 C1236 1.368 . S
C1233 C1214 1.429 . S
C1233 C1227 1.429 . S
C1233 C1234 1.523 . S
C1234 C1215 1.368 . S
C1234 C1228 1.368 . S
C1234 C1233 1.523 . S
C1235 C1219 1.429 . S
C1235 C1231 1.429 . S
C1235 C1236 1.523 . S
C1236 C1220 1.368 . S
C1236 C1232 1.368 . S
C1236 C1235 1.523 . S
H1237 C1212 0.950 . S
H1238 C1214 0.950 . S
H1239 C1215 0.949 . S
H1240 C1217 0.950 . S
H1241 C1219 0.950 . S
C1242 C1243 1.349 . S
C1242 C1244 1.327 . S
C1242 H1267 0.950 . S
C1243 C1242 1.349 . S
C1243 C1259 1.349 . S
C1244 C1242 1.327 . S
C1244 C1263 1.429 . S
C1244 H1268 0.950 . S
C1245 C1262 1.574 . S
C1245 C1264 1.368 . S
C1245 H1269 0.949 . S
H1246 C1250 0.949 . S
C1247 C1248 1.349 . S
C1247 C1249 1.327 . S
C1247 H1270 0.950 . S
C1248 C1247 1.349 . S
C1248 C1260 1.349 . S
C1249 C1247 1.327 . S
C1249 C1265 1.429 . S
C1249 H1271 0.950 . S
C1250 H1246 0.949 . S
C1250 C1258 1.574 . S
C1250 C1266 1.368 . S
H1251 C1259 0.950 . S
H1252 C1257 0.950 . S
H1253 C1258 0.949 . S
H1254 C1260 0.950 . S
H1255 C1261 0.950 . S
H1256 C1262 0.949 . S
C1257 H1252 0.950 . S
C1257 C1259 1.327 . S
C1257 C1263 1.429 . S
C1258 C1250 1.574 . S
C1258 H1253 0.949 . S
C1258 C1264 1.368 . S
C1259 C1243 1.349 . S
C1259 H1251 0.950 . S
C1259 C1257 1.327 . S
C1260 C1248 1.349 . S
C1260 H1254 0.950 . S
C1260 C1261 1.327 . S
C1261 H1255 0.950 . S
C1261 C1260 1.327 . S
C1261 C1265 1.429 . S
C1262 C1245 1.574 . S
C1262 H1256 0.949 . S
C1262 C1266 1.368 . S
C1263 C1244 1.429 . S
C1263 C1257 1.429 . S
C1263 C1264 1.523 . S
C1264 C1245 1.368 . S
C1264 C1258 1.368 . S
C1264 C1263 1.523 . S
C1265 C1249 1.429 . S
C1265 C1261 1.429 . S
C1265 C1266 1.523 . S
C1266 C1250 1.368 . S
C1266 C1262 1.368 . S
C1266 C1265 1.523 . S
H1267 C1242 0.950 . S
H1268 C1244 0.950 . S
H1269 C1245 0.949 . S
H1270 C1247 0.950 . S
H1271 C1249 0.950 . S
C1272 C1273 1.349 . S
C1272 C1274 1.327 . S
C1272 H1297 0.950 . S
C1273 C1272 1.349 . S
C1273 C1289 1.349 . S
C1274 C1272 1.327 . S
C1274 C1293 1.429 . S
C1274 H1298 0.950 . S
C1275 C1292 1.574 . S
C1275 C1294 1.368 . S
C1275 H1299 0.949 . S
H1276 C1280 0.949 . S
C1277 C1278 1.349 . S
C1277 C1279 1.327 . S
C1277 H1300 0.950 . S
C1278 C1277 1.349 . S
C1278 C1290 1.349 . S
C1279 C1277 1.327 . S
C1279 C1295 1.429 . S
C1279 H1301 0.950 . S
C1280 H1276 0.949 . S
C1280 C1288 1.574 . S
C1280 C1296 1.368 . S
H1281 C1289 0.950 . S
H1282 C1287 0.950 . S
H1283 C1288 0.949 . S
H1284 C1290 0.950 . S
H1285 C1291 0.950 . S
H1286 C1292 0.949 . S
C1287 H1282 0.950 . S
C1287 C1289 1.327 . S
C1287 C1293 1.429 . S
C1288 C1280 1.574 . S
C1288 H1283 0.949 . S
C1288 C1294 1.368 . S
C1289 C1273 1.349 . S
C1289 H1281 0.950 . S
C1289 C1287 1.327 . S
C1290 C1278 1.349 . S
C1290 H1284 0.950 . S
C1290 C1291 1.327 . S
C1291 H1285 0.950 . S
C1291 C1290 1.327 . S
C1291 C1295 1.429 . S
C1292 C1275 1.574 . S
C1292 H1286 0.949 . S
C1292 C1296 1.368 . S
C1293 C1274 1.429 . S
C1293 C1287 1.429 . S
C1293 C1294 1.523 . S
C1294 C1275 1.368 . S
C1294 C1288 1.368 . S
C1294 C1293 1.523 . S
C1295 C1279 1.429 . S
C1295 C1291 1.429 . S
C1295 C1296 1.523 . S
C1296 C1280 1.368 . S
C1296 C1292 1.368 . S
C1296 C1295 1.523 . S
H1297 C1272 0.950 . S
H1298 C1274 0.950 . S
H1299 C1275 0.949 . S
H1300 C1277 0.950 . S
H1301 C1279 0.950 . S
C1302 C1303 1.349 . S
C1302 C1304 1.327 . S
C1302 H1327 0.950 . S
C1303 C1302 1.349 . S
C1303 C1319 1.349 . S
C1304 C1302 1.327 . S
C1304 C1323 1.429 . S
C1304 H1328 0.950 . S
C1305 C1322 1.574 . S
C1305 C1324 1.368 . S
C1305 H1329 0.949 . S
H1306 C1310 0.949 . S
C1307 C1308 1.349 . S
C1307 C1309 1.327 . S
C1307 H1330 0.950 . S
C1308 C1307 1.349 . S
C1308 C1320 1.349 . S
C1309 C1307 1.327 . S
C1309 C1325 1.429 . S
C1309 H1331 0.950 . S
C1310 H1306 0.949 . S
C1310 C1318 1.574 . S
C1310 C1326 1.368 . S
H1311 C1319 0.950 . S
H1312 C1317 0.950 . S
H1313 C1318 0.949 . S
H1314 C1320 0.950 . S
H1315 C1321 0.950 . S
H1316 C1322 0.949 . S
C1317 H1312 0.950 . S
C1317 C1319 1.327 . S
C1317 C1323 1.429 . S
C1318 C1310 1.574 . S
C1318 H1313 0.949 . S
C1318 C1324 1.368 . S
C1319 C1303 1.349 . S
C1319 H1311 0.950 . S
C1319 C1317 1.327 . S
C1320 C1308 1.349 . S
C1320 H1314 0.950 . S
C1320 C1321 1.327 . S
C1321 H1315 0.950 . S
C1321 C1320 1.327 . S
C1321 C1325 1.429 . S
C1322 C1305 1.574 . S
C1322 H1316 0.949 . S
C1322 C1326 1.368 . S
C1323 C1304 1.429 . S
C1323 C1317 1.429 . S
C1323 C1324 1.523 . S
C1324 C1305 1.368 . S
C1324 C1318 1.368 . S
C1324 C1323 1.523 . S
C1325 C1309 1.429 . S
C1325 C1321 1.429 . S
C1325 C1326 1.523 . S
C1326 C1310 1.368 . S
C1326 C1322 1.368 . S
C1326 C1325 1.523 . S
H1327 C1302 0.950 . S
H1328 C1304 0.950 . S
H1329 C1305 0.949 . S
H1330 C1307 0.950 . S
H1331 C1309 0.950 . S
C1332 C1333 1.349 . S
C1332 C1334 1.327 . S
C1332 H1357 0.950 . S
C1333 C1332 1.349 . S
C1333 C1349 1.349 . S
C1334 C1332 1.327 . S
C1334 C1353 1.429 . S
C1334 H1358 0.950 . S
C1335 C1352 1.574 . S
C1335 C1354 1.368 . S
C1335 H1359 0.949 . S
H1336 C1340 0.949 . S
C1337 C1338 1.349 . S
C1337 C1339 1.327 . S
C1337 H1360 0.950 . S
C1338 C1337 1.349 . S
C1338 C1350 1.349 . S
C1339 C1337 1.327 . S
C1339 C1355 1.429 . S
C1339 H1361 0.950 . S
C1340 H1336 0.949 . S
C1340 C1348 1.574 . S
C1340 C1356 1.368 . S
H1341 C1349 0.950 . S
H1342 C1347 0.950 . S
H1343 C1348 0.949 . S
H1344 C1350 0.950 . S
H1345 C1351 0.950 . S
H1346 C1352 0.949 . S
C1347 H1342 0.950 . S
C1347 C1349 1.327 . S
C1347 C1353 1.429 . S
C1348 C1340 1.574 . S
C1348 H1343 0.949 . S
C1348 C1354 1.368 . S
C1349 C1333 1.349 . S
C1349 H1341 0.950 . S
C1349 C1347 1.327 . S
C1350 C1338 1.349 . S
C1350 H1344 0.950 . S
C1350 C1351 1.327 . S
C1351 H1345 0.950 . S
C1351 C1350 1.327 . S
C1351 C1355 1.429 . S
C1352 C1335 1.574 . S
C1352 H1346 0.949 . S
C1352 C1356 1.368 . S
C1353 C1334 1.429 . S
C1353 C1347 1.429 . S
C1353 C1354 1.523 . S
C1354 C1335 1.368 . S
C1354 C1348 1.368 . S
C1354 C1353 1.523 . S
C1355 C1339 1.429 . S
C1355 C1351 1.429 . S
C1355 C1356 1.523 . S
C1356 C1340 1.368 . S
C1356 C1352 1.368 . S
C1356 C1355 1.523 . S
H1357 C1332 0.950 . S
H1358 C1334 0.950 . S
H1359 C1335 0.949 . S
H1360 C1337 0.950 . S
H1361 C1339 0.950 . S
C1362 C1363 1.349 . S
C1362 C1364 1.327 . S
C1362 H1387 0.950 . S
C1363 C1362 1.349 . S
C1363 C1379 1.349 . S
C1364 C1362 1.327 . S
C1364 C1383 1.429 . S
C1364 H1388 0.950 . S
C1365 C1382 1.574 . S
C1365 C1384 1.368 . S
C1365 H1389 0.949 . S
H1366 C1370 0.949 . S
C1367 C1368 1.349 . S
C1367 C1369 1.327 . S
C1367 H1390 0.950 . S
C1368 C1367 1.349 . S
C1368 C1380 1.349 . S
C1369 C1367 1.327 . S
C1369 C1385 1.429 . S
C1369 H1391 0.950 . S
C1370 H1366 0.949 . S
C1370 C1378 1.574 . S
C1370 C1386 1.368 . S
H1371 C1379 0.950 . S
H1372 C1377 0.950 . S
H1373 C1378 0.949 . S
H1374 C1380 0.950 . S
H1375 C1381 0.950 . S
H1376 C1382 0.949 . S
C1377 H1372 0.950 . S
C1377 C1379 1.327 . S
C1377 C1383 1.429 . S
C1378 C1370 1.574 . S
C1378 H1373 0.949 . S
C1378 C1384 1.368 . S
C1379 C1363 1.349 . S
C1379 H1371 0.950 . S
C1379 C1377 1.327 . S
C1380 C1368 1.349 . S
C1380 H1374 0.950 . S
C1380 C1381 1.327 . S
C1381 H1375 0.950 . S
C1381 C1380 1.327 . S
C1381 C1385 1.429 . S
C1382 C1365 1.574 . S
C1382 H1376 0.949 . S
C1382 C1386 1.368 . S
C1383 C1364 1.429 . S
C1383 C1377 1.429 . S
C1383 C1384 1.523 . S
C1384 C1365 1.368 . S
C1384 C1378 1.368 . S
C1384 C1383 1.523 . S
C1385 C1369 1.429 . S
C1385 C1381 1.429 . S
C1385 C1386 1.523 . S
C1386 C1370 1.368 . S
C1386 C1382 1.368 . S
C1386 C1385 1.523 . S
H1387 C1362 0.950 . S
H1388 C1364 0.950 . S
H1389 C1365 0.949 . S
H1390 C1367 0.950 . S
H1391 C1369 0.950 . S
C1392 C1393 1.349 . S
C1392 C1394 1.327 . S
C1392 H1417 0.950 . S
C1393 C1392 1.349 . S
C1393 C1409 1.349 . S
C1394 C1392 1.327 . S
C1394 C1413 1.429 . S
C1394 H1418 0.950 . S
C1395 C1412 1.574 . S
C1395 C1414 1.368 . S
C1395 H1419 0.949 . S
H1396 C1400 0.949 . S
C1397 C1398 1.349 . S
C1397 C1399 1.327 . S
C1397 H1420 0.950 . S
C1398 C1397 1.349 . S
C1398 C1410 1.349 . S
C1399 C1397 1.327 . S
C1399 C1415 1.429 . S
C1399 H1421 0.950 . S
C1400 H1396 0.949 . S
C1400 C1408 1.574 . S
C1400 C1416 1.368 . S
H1401 C1409 0.950 . S
H1402 C1407 0.950 . S
H1403 C1408 0.949 . S
H1404 C1410 0.950 . S
H1405 C1411 0.950 . S
H1406 C1412 0.949 . S
C1407 H1402 0.950 . S
C1407 C1409 1.327 . S
C1407 C1413 1.429 . S
C1408 C1400 1.574 . S
C1408 H1403 0.949 . S
C1408 C1414 1.368 . S
C1409 C1393 1.349 . S
C1409 H1401 0.950 . S
C1409 C1407 1.327 . S
C1410 C1398 1.349 . S
C1410 H1404 0.950 . S
C1410 C1411 1.327 . S
C1411 H1405 0.950 . S
C1411 C1410 1.327 . S
C1411 C1415 1.429 . S
C1412 C1395 1.574 . S
C1412 H1406 0.949 . S
C1412 C1416 1.368 . S
C1413 C1394 1.429 . S
C1413 C1407 1.429 . S
C1413 C1414 1.523 . S
C1414 C1395 1.368 . S
C1414 C1408 1.368 . S
C1414 C1413 1.523 . S
C1415 C1399 1.429 . S
C1415 C1411 1.429 . S
C1415 C1416 1.523 . S
C1416 C1400 1.368 . S
C1416 C1412 1.368 . S
C1416 C1415 1.523 . S
H1417 C1392 0.950 . S
H1418 C1394 0.950 . S
H1419 C1395 0.949 . S
H1420 C1397 0.950 . S
H1421 C1399 0.950 . S
C1422 C1423 1.349 . S
C1422 C1424 1.327 . S
C1422 H1447 0.950 . S
C1423 C1422 1.349 . S
C1423 C1439 1.349 . S
C1424 C1422 1.327 . S
C1424 C1443 1.429 . S
C1424 H1448 0.950 . S
C1425 C1442 1.574 1_556 S
C1425 C1444 1.368 . S
C1425 H1449 0.949 . S
H1426 C1430 0.949 . S
C1427 C1428 1.349 . S
C1427 C1429 1.327 . S
C1427 H1450 0.950 . S
C1428 C1427 1.349 . S
C1428 C1440 1.349 . S
C1429 C1427 1.327 . S
C1429 C1445 1.429 . S
C1429 H1451 0.950 . S
C1430 H1426 0.949 . S
C1430 C1438 1.574 1_554 S
C1430 C1446 1.368 . S
H1431 C1439 0.950 . S
H1432 C1437 0.950 . S
H1433 C1438 0.949 . S
H1434 C1440 0.950 . S
H1435 C1441 0.950 . S
H1436 C1442 0.949 . S
C1437 H1432 0.950 . S
C1437 C1439 1.327 . S
C1437 C1443 1.429 . S
C1438 C1430 1.574 1_556 S
C1438 H1433 0.949 . S
C1438 C1444 1.368 . S
C1439 C1423 1.349 . S
C1439 H1431 0.950 . S
C1439 C1437 1.327 . S
C1440 C1428 1.349 . S
C1440 H1434 0.950 . S
C1440 C1441 1.327 . S
C1441 H1435 0.950 . S
C1441 C1440 1.327 . S
C1441 C1445 1.429 . S
C1442 C1425 1.574 1_554 S
C1442 H1436 0.949 . S
C1442 C1446 1.368 . S
C1443 C1424 1.429 . S
C1443 C1437 1.429 . S
C1443 C1444 1.523 . S
C1444 C1425 1.368 . S
C1444 C1438 1.368 . S
C1444 C1443 1.523 . S
C1445 C1429 1.429 . S
C1445 C1441 1.429 . S
C1445 C1446 1.523 . S
C1446 C1430 1.368 . S
C1446 C1442 1.368 . S
C1446 C1445 1.523 . S
H1447 C1422 0.950 . S
H1448 C1424 0.950 . S
H1449 C1425 0.949 . S
H1450 C1427 0.950 . S
H1451 C1429 0.950 . S
C1452 C1453 1.349 . S
C1452 C1454 1.327 . S
C1452 H1477 0.950 . S
C1453 C1452 1.349 . S
C1453 C1469 1.349 . S
C1454 C1452 1.327 . S
C1454 C1473 1.429 . S
C1454 H1478 0.950 . S
C1455 C1472 1.574 . S
C1455 C1474 1.368 . S
C1455 H1479 0.949 . S
H1456 C1460 0.949 . S
C1457 C1458 1.349 . S
C1457 C1459 1.327 . S
C1457 H1480 0.950 . S
C1458 C1457 1.349 . S
C1458 C1470 1.349 . S
C1459 C1457 1.327 . S
C1459 C1475 1.429 . S
C1459 H1481 0.950 . S
C1460 H1456 0.949 . S
C1460 C1468 1.574 . S
C1460 C1476 1.368 . S
H1461 C1469 0.950 . S
H1462 C1467 0.950 . S
H1463 C1468 0.949 . S
H1464 C1470 0.950 . S
H1465 C1471 0.950 . S
H1466 C1472 0.949 . S
C1467 H1462 0.950 . S
C1467 C1469 1.327 . S
C1467 C1473 1.429 . S
C1468 C1460 1.574 . S
C1468 H1463 0.949 . S
C1468 C1474 1.368 . S
C1469 C1453 1.349 . S
C1469 H1461 0.950 . S
C1469 C1467 1.327 . S
C1470 C1458 1.349 . S
C1470 H1464 0.950 . S
C1470 C1471 1.327 . S
C1471 H1465 0.950 . S
C1471 C1470 1.327 . S
C1471 C1475 1.429 . S
C1472 C1455 1.574 . S
C1472 H1466 0.949 . S
C1472 C1476 1.368 . S
C1473 C1454 1.429 . S
C1473 C1467 1.429 . S
C1473 C1474 1.523 . S
C1474 C1455 1.368 . S
C1474 C1468 1.368 . S
C1474 C1473 1.523 . S
C1475 C1459 1.429 . S
C1475 C1471 1.429 . S
C1475 C1476 1.523 . S
C1476 C1460 1.368 . S
C1476 C1472 1.368 . S
C1476 C1475 1.523 . S
H1477 C1452 0.950 . S
H1478 C1454 0.950 . S
H1479 C1455 0.949 . S
H1480 C1457 0.950 . S
H1481 C1459 0.950 . S
C1482 C1483 1.349 . S
C1482 C1484 1.327 . S
C1482 H1507 0.950 . S
C1483 C1482 1.349 . S
C1483 C1499 1.349 . S
C1484 C1482 1.327 . S
C1484 C1503 1.429 . S
C1484 H1508 0.950 . S
C1485 C1502 1.574 . S
C1485 C1504 1.368 1_554 S
C1485 H1509 0.949 1_554 S
H1486 C1490 0.949 . S
C1487 C1488 1.349 . S
C1487 C1489 1.327 . S
C1487 H1510 0.950 . S
C1488 C1487 1.349 . S
C1488 C1500 1.349 . S
C1489 C1487 1.327 . S
C1489 C1505 1.429 . S
C1489 H1511 0.950 . S
C1490 H1486 0.949 . S
C1490 C1498 1.574 . S
C1490 C1506 1.368 . S
H1491 C1499 0.950 . S
H1492 C1497 0.950 . S
H1493 C1498 0.949 1_556 S
H1494 C1500 0.950 . S
H1495 C1501 0.950 . S
H1496 C1502 0.949 . S
C1497 H1492 0.950 . S
C1497 C1499 1.327 . S
C1497 C1503 1.429 . S
C1498 C1490 1.574 . S
C1498 H1493 0.949 1_554 S
C1498 C1504 1.368 1_554 S
C1499 C1483 1.349 . S
C1499 H1491 0.950 . S
C1499 C1497 1.327 . S
C1500 C1488 1.349 . S
C1500 H1494 0.950 . S
C1500 C1501 1.327 . S
C1501 H1495 0.950 . S
C1501 C1500 1.327 . S
C1501 C1505 1.429 . S
C1502 C1485 1.574 . S
C1502 H1496 0.949 . S
C1502 C1506 1.368 . S
C1503 C1484 1.429 . S
C1503 C1497 1.429 . S
C1503 C1504 1.523 . S
C1504 C1485 1.368 1_556 S
C1504 C1498 1.368 1_556 S
C1504 C1503 1.523 . S
C1505 C1489 1.429 . S
C1505 C1501 1.429 . S
C1505 C1506 1.523 . S
C1506 C1490 1.368 . S
C1506 C1502 1.368 . S
C1506 C1505 1.523 . S
H1507 C1482 0.950 . S
H1508 C1484 0.950 . S
H1509 C1485 0.949 1_556 S
H1510 C1487 0.950 . S
H1511 C1489 0.950 . S
C1512 C1513 1.349 . S
C1512 C1514 1.327 . S
C1512 H1537 0.950 . S
C1513 C1512 1.349 . S
C1513 C1529 1.349 . S
C1514 C1512 1.327 . S
C1514 C1533 1.429 . S
C1514 H1538 0.950 . S
C1515 C1532 1.574 . S
C1515 C1534 1.368 . S
C1515 H1539 0.949 . S
H1516 C1520 0.949 . S
C1517 C1518 1.349 . S
C1517 C1519 1.327 . S
C1517 H1540 0.950 . S
C1518 C1517 1.349 . S
C1518 C1530 1.349 . S
C1519 C1517 1.327 . S
C1519 C1535 1.429 . S
C1519 H1541 0.950 . S
C1520 H1516 0.949 . S
C1520 C1528 1.574 . S
C1520 C1536 1.368 . S
H1521 C1529 0.950 . S
H1522 C1527 0.950 . S
H1523 C1528 0.949 . S
H1524 C1530 0.950 . S
H1525 C1531 0.950 . S
H1526 C1532 0.949 . S
C1527 H1522 0.950 . S
C1527 C1529 1.327 . S
C1527 C1533 1.429 . S
C1528 C1520 1.574 . S
C1528 H1523 0.949 . S
C1528 C1534 1.368 . S
C1529 C1513 1.349 . S
C1529 H1521 0.950 . S
C1529 C1527 1.327 . S
C1530 C1518 1.349 . S
C1530 H1524 0.950 . S
C1530 C1531 1.327 . S
C1531 H1525 0.950 . S
C1531 C1530 1.327 . S
C1531 C1535 1.429 . S
C1532 C1515 1.574 . S
C1532 H1526 0.949 . S
C1532 C1536 1.368 . S
C1533 C1514 1.429 . S
C1533 C1527 1.429 . S
C1533 C1534 1.523 . S
C1534 C1515 1.368 . S
C1534 C1528 1.368 . S
C1534 C1533 1.523 . S
C1535 C1519 1.429 . S
C1535 C1531 1.429 . S
C1535 C1536 1.523 . S
C1536 C1520 1.368 . S
C1536 C1532 1.368 . S
C1536 C1535 1.523 . S
H1537 C1512 0.950 . S
H1538 C1514 0.950 . S
H1539 C1515 0.949 . S
H1540 C1517 0.950 . S
H1541 C1519 0.950 . S
C1542 C1543 1.349 . S
C1542 C1544 1.327 . S
C1542 H1567 0.950 . S
C1543 C1542 1.349 . S
C1543 C1559 1.349 . S
C1544 C1542 1.327 . S
C1544 C1563 1.429 . S
C1544 H1568 0.950 . S
C1545 C1562 1.574 1_556 S
C1545 C1564 1.368 . S
C1545 H1569 0.949 . S
H1546 C1550 0.949 . S
C1547 C1548 1.349 . S
C1547 C1549 1.327 . S
C1547 H1570 0.950 . S
C1548 C1547 1.349 . S
C1548 C1560 1.349 . S
C1549 C1547 1.327 . S
C1549 C1565 1.429 . S
C1549 H1571 0.950 . S
C1550 H1546 0.949 . S
C1550 C1558 1.574 1_554 S
C1550 C1566 1.368 . S
H1551 C1559 0.950 . S
H1552 C1557 0.950 . S
H1553 C1558 0.949 . S
H1554 C1560 0.950 . S
H1555 C1561 0.950 . S
H1556 C1562 0.949 . S
C1557 H1552 0.950 . S
C1557 C1559 1.327 . S
C1557 C1563 1.429 . S
C1558 C1550 1.574 1_556 S
C1558 H1553 0.949 . S
C1558 C1564 1.368 . S
C1559 C1543 1.349 . S
C1559 H1551 0.950 . S
C1559 C1557 1.327 . S
C1560 C1548 1.349 . S
C1560 H1554 0.950 . S
C1560 C1561 1.327 . S
C1561 H1555 0.950 . S
C1561 C1560 1.327 . S
C1561 C1565 1.429 . S
C1562 C1545 1.574 1_554 S
C1562 H1556 0.949 . S
C1562 C1566 1.368 . S
C1563 C1544 1.429 . S
C1563 C1557 1.429 . S
C1563 C1564 1.523 . S
C1564 C1545 1.368 . S
C1564 C1558 1.368 . S
C1564 C1563 1.523 . S
C1565 C1549 1.429 . S
C1565 C1561 1.429 . S
C1565 C1566 1.523 . S
C1566 C1550 1.368 . S
C1566 C1562 1.368 . S
C1566 C1565 1.523 . S
H1567 C1542 0.950 . S
H1568 C1544 0.950 . S
H1569 C1545 0.949 . S
H1570 C1547 0.950 . S
H1571 C1549 0.950 . S
C1572 C1573 1.349 . S
C1572 C1574 1.327 . S
C1572 H1597 0.950 . S
C1573 C1572 1.349 . S
C1573 C1589 1.349 . S
C1574 C1572 1.327 . S
C1574 C1593 1.429 . S
C1574 H1598 0.950 . S
C1575 C1592 1.574 . S
C1575 C1594 1.368 . S
C1575 H1599 0.949 . S
H1576 C1580 0.949 . S
C1577 C1578 1.349 . S
C1577 C1579 1.327 . S
C1577 H1600 0.950 . S
C1578 C1577 1.349 . S
C1578 C1590 1.349 . S
C1579 C1577 1.327 . S
C1579 C1595 1.429 . S
C1579 H1601 0.950 . S
C1580 H1576 0.949 . S
C1580 C1588 1.574 . S
C1580 C1596 1.368 . S
H1581 C1589 0.950 . S
H1582 C1587 0.950 . S
H1583 C1588 0.949 . S
H1584 C1590 0.950 . S
H1585 C1591 0.950 . S
H1586 C1592 0.949 . S
C1587 H1582 0.950 . S
C1587 C1589 1.327 . S
C1587 C1593 1.429 . S
C1588 C1580 1.574 . S
C1588 H1583 0.949 . S
C1588 C1594 1.368 . S
C1589 C1573 1.349 . S
C1589 H1581 0.950 . S
C1589 C1587 1.327 . S
C1590 C1578 1.349 . S
C1590 H1584 0.950 . S
C1590 C1591 1.327 . S
C1591 H1585 0.950 . S
C1591 C1590 1.327 . S
C1591 C1595 1.429 . S
C1592 C1575 1.574 . S
C1592 H1586 0.949 . S
C1592 C1596 1.368 . S
C1593 C1574 1.429 . S
C1593 C1587 1.429 . S
C1593 C1594 1.523 . S
C1594 C1575 1.368 . S
C1594 C1588 1.368 . S
C1594 C1593 1.523 . S
C1595 C1579 1.429 . S
C1595 C1591 1.429 . S
C1595 C1596 1.523 . S
C1596 C1580 1.368 . S
C1596 C1592 1.368 . S
C1596 C1595 1.523 . S
H1597 C1572 0.950 . S
H1598 C1574 0.950 . S
H1599 C1575 0.949 . S
H1600 C1577 0.950 . S
H1601 C1579 0.950 . S
C1602 C1603 1.349 . S
C1602 C1604 1.327 . S
C1602 H1627 0.950 . S
C1603 C1602 1.349 . S
C1603 C1619 1.349 . S
C1604 C1602 1.327 . S
C1604 C1623 1.429 . S
C1604 H1628 0.950 . S
C1605 C1622 1.574 . S
C1605 C1624 1.368 . S
C1605 H1629 0.949 . S
H1606 C1610 0.949 1_554 S
C1607 C1608 1.349 . S
C1607 C1609 1.327 . S
C1607 H1630 0.950 . S
C1608 C1607 1.349 . S
C1608 C1620 1.349 . S
C1609 C1607 1.327 . S
C1609 C1625 1.429 . S
C1609 H1631 0.950 . S
C1610 H1606 0.949 1_556 S
C1610 C1618 1.574 . S
C1610 C1626 1.368 1_556 S
H1611 C1619 0.950 . S
H1612 C1617 0.950 . S
H1613 C1618 0.949 . S
H1614 C1620 0.950 . S
H1615 C1621 0.950 . S
H1616 C1622 0.949 1_554 S
C1617 H1612 0.950 . S
C1617 C1619 1.327 . S
C1617 C1623 1.429 . S
C1618 C1610 1.574 . S
C1618 H1613 0.949 . S
C1618 C1624 1.368 . S
C1619 C1603 1.349 . S
C1619 H1611 0.950 . S
C1619 C1617 1.327 . S
C1620 C1608 1.349 . S
C1620 H1614 0.950 . S
C1620 C1621 1.327 . S
C1621 H1615 0.950 . S
C1621 C1620 1.327 . S
C1621 C1625 1.429 . S
C1622 C1605 1.574 . S
C1622 H1616 0.949 1_556 S
C1622 C1626 1.368 1_556 S
C1623 C1604 1.429 . S
C1623 C1617 1.429 . S
C1623 C1624 1.523 . S
C1624 C1605 1.368 . S
C1624 C1618 1.368 . S
C1624 C1623 1.523 . S
C1625 C1609 1.429 . S
C1625 C1621 1.429 . S
C1625 C1626 1.523 . S
C1626 C1610 1.368 1_554 S
C1626 C1622 1.368 1_554 S
C1626 C1625 1.523 . S
H1627 C1602 0.950 . S
H1628 C1604 0.950 . S
H1629 C1605 0.949 . S
H1630 C1607 0.950 . S
H1631 C1609 0.950 . S
C1632 C1633 1.349 . S
C1632 C1634 1.327 . S
C1632 H1657 0.950 . S
C1633 C1632 1.349 . S
C1633 C1649 1.349 . S
C1634 C1632 1.327 . S
C1634 C1653 1.429 . S
C1634 H1658 0.950 . S
C1635 C1652 1.574 . S
C1635 C1654 1.368 . S
C1635 H1659 0.949 . S
H1636 C1640 0.949 . S
C1637 C1638 1.349 . S
C1637 C1639 1.327 . S
C1637 H1660 0.950 . S
C1638 C1637 1.349 . S
C1638 C1650 1.349 . S
C1639 C1637 1.327 . S
C1639 C1655 1.429 . S
C1639 H1661 0.950 . S
C1640 H1636 0.949 . S
C1640 C1648 1.574 . S
C1640 C1656 1.368 . S
H1641 C1649 0.950 . S
H1642 C1647 0.950 . S
H1643 C1648 0.949 . S
H1644 C1650 0.950 . S
H1645 C1651 0.950 . S
H1646 C1652 0.949 . S
C1647 H1642 0.950 . S
C1647 C1649 1.327 . S
C1647 C1653 1.429 . S
C1648 C1640 1.574 . S
C1648 H1643 0.949 . S
C1648 C1654 1.368 . S
C1649 C1633 1.349 . S
C1649 H1641 0.950 . S
C1649 C1647 1.327 . S
C1650 C1638 1.349 . S
C1650 H1644 0.950 . S
C1650 C1651 1.327 . S
C1651 H1645 0.950 . S
C1651 C1650 1.327 . S
C1651 C1655 1.429 . S
C1652 C1635 1.574 . S
C1652 H1646 0.949 . S
C1652 C1656 1.368 . S
C1653 C1634 1.429 . S
C1653 C1647 1.429 . S
C1653 C1654 1.523 . S
C1654 C1635 1.368 . S
C1654 C1648 1.368 . S
C1654 C1653 1.523 . S
C1655 C1639 1.429 . S
C1655 C1651 1.429 . S
C1655 C1656 1.523 . S
C1656 C1640 1.368 . S
C1656 C1652 1.368 . S
C1656 C1655 1.523 . S
H1657 C1632 0.950 . S
H1658 C1634 0.950 . S
H1659 C1635 0.949 . S
H1660 C1637 0.950 . S
H1661 C1639 0.950 . S
C1662 C1663 1.349 . S
C1662 C1664 1.327 . S
C1662 H1687 0.950 . S
C1663 C1662 1.349 . S
C1663 C1679 1.349 . S
C1664 C1662 1.327 . S
C1664 C1683 1.429 . S
C1664 H1688 0.950 . S
C1665 C1682 1.574 1_565 S
C1665 C1684 1.368 . S
C1665 H1689 0.949 . S
H1666 C1670 0.949 . S
C1667 C1668 1.349 . S
C1667 C1669 1.327 . S
C1667 H1690 0.950 . S
C1668 C1667 1.349 . S
C1668 C1680 1.349 . S
C1669 C1667 1.327 . S
C1669 C1685 1.429 . S
C1669 H1691 0.950 . S
C1670 H1666 0.949 . S
C1670 C1678 1.574 1_545 S
C1670 C1686 1.368 . S
H1671 C1679 0.950 . S
H1672 C1677 0.950 . S
H1673 C1678 0.949 . S
H1674 C1680 0.950 . S
H1675 C1681 0.950 . S
H1676 C1682 0.949 . S
C1677 H1672 0.950 . S
C1677 C1679 1.327 . S
C1677 C1683 1.429 . S
C1678 C1670 1.574 1_565 S
C1678 H1673 0.949 . S
C1678 C1684 1.368 . S
C1679 C1663 1.349 . S
C1679 H1671 0.950 . S
C1679 C1677 1.327 . S
C1680 C1668 1.349 . S
C1680 H1674 0.950 . S
C1680 C1681 1.327 . S
C1681 H1675 0.950 . S
C1681 C1680 1.327 . S
C1681 C1685 1.429 . S
C1682 C1665 1.574 1_545 S
C1682 H1676 0.949 . S
C1682 C1686 1.368 . S
C1683 C1664 1.429 . S
C1683 C1677 1.429 . S
C1683 C1684 1.523 . S
C1684 C1665 1.368 . S
C1684 C1678 1.368 . S
C1684 C1683 1.523 . S
C1685 C1669 1.429 . S
C1685 C1681 1.429 . S
C1685 C1686 1.523 . S
C1686 C1670 1.368 . S
C1686 C1682 1.368 . S
C1686 C1685 1.523 . S
H1687 C1662 0.950 . S
H1688 C1664 0.950 . S
H1689 C1665 0.949 . S
H1690 C1667 0.950 . S
H1691 C1669 0.950 . S
C1692 C1693 1.349 . S
C1692 C1694 1.327 . S
C1692 H1717 0.950 . S
C1693 C1692 1.349 . S
C1693 C1709 1.349 . S
C1694 C1692 1.327 . S
C1694 C1713 1.429 . S
C1694 H1718 0.950 . S
C1695 C1712 1.574 . S
C1695 C1714 1.368 . S
C1695 H1719 0.949 . S
H1696 C1700 0.949 . S
C1697 C1698 1.349 . S
C1697 C1699 1.327 . S
C1697 H1720 0.950 . S
C1698 C1697 1.349 . S
C1698 C1710 1.349 . S
C1699 C1697 1.327 . S
C1699 C1715 1.429 . S
C1699 H1721 0.950 . S
C1700 H1696 0.949 . S
C1700 C1708 1.574 . S
C1700 C1716 1.368 . S
H1701 C1709 0.950 . S
H1702 C1707 0.950 . S
H1703 C1708 0.949 . S
H1704 C1710 0.950 . S
H1705 C1711 0.950 . S
H1706 C1712 0.949 . S
C1707 H1702 0.950 . S
C1707 C1709 1.327 . S
C1707 C1713 1.429 . S
C1708 C1700 1.574 . S
C1708 H1703 0.949 . S
C1708 C1714 1.368 . S
C1709 C1693 1.349 . S
C1709 H1701 0.950 . S
C1709 C1707 1.327 . S
C1710 C1698 1.349 . S
C1710 H1704 0.950 . S
C1710 C1711 1.327 . S
C1711 H1705 0.950 . S
C1711 C1710 1.327 . S
C1711 C1715 1.429 . S
C1712 C1695 1.574 . S
C1712 H1706 0.949 . S
C1712 C1716 1.368 . S
C1713 C1694 1.429 . S
C1713 C1707 1.429 . S
C1713 C1714 1.523 . S
C1714 C1695 1.368 . S
C1714 C1708 1.368 . S
C1714 C1713 1.523 . S
C1715 C1699 1.429 . S
C1715 C1711 1.429 . S
C1715 C1716 1.523 . S
C1716 C1700 1.368 . S
C1716 C1712 1.368 . S
C1716 C1715 1.523 . S
H1717 C1692 0.950 . S
H1718 C1694 0.950 . S
H1719 C1695 0.949 . S
H1720 C1697 0.950 . S
H1721 C1699 0.950 . S
C1722 C1723 1.349 . S
C1722 C1724 1.327 . S
C1722 H1747 0.950 . S
C1723 C1722 1.349 . S
C1723 C1739 1.349 . S
C1724 C1722 1.327 . S
C1724 C1743 1.429 . S
C1724 H1748 0.950 . S
C1725 C1742 1.574 1_545 S
C1725 C1744 1.368 . S
C1725 H1749 0.949 . S
H1726 C1730 0.949 . S
C1727 C1728 1.349 . S
C1727 C1729 1.327 . S
C1727 H1750 0.950 . S
C1728 C1727 1.349 . S
C1728 C1740 1.349 . S
C1729 C1727 1.327 . S
C1729 C1745 1.429 . S
C1729 H1751 0.950 . S
C1730 H1726 0.949 . S
C1730 C1738 1.574 1_565 S
C1730 C1746 1.368 . S
H1731 C1739 0.950 . S
H1732 C1737 0.950 . S
H1733 C1738 0.949 . S
H1734 C1740 0.950 . S
H1735 C1741 0.950 . S
H1736 C1742 0.949 . S
C1737 H1732 0.950 . S
C1737 C1739 1.327 . S
C1737 C1743 1.429 . S
C1738 C1730 1.574 1_545 S
C1738 H1733 0.949 . S
C1738 C1744 1.368 . S
C1739 C1723 1.349 . S
C1739 H1731 0.950 . S
C1739 C1737 1.327 . S
C1740 C1728 1.349 . S
C1740 H1734 0.950 . S
C1740 C1741 1.327 . S
C1741 H1735 0.950 . S
C1741 C1740 1.327 . S
C1741 C1745 1.429 . S
C1742 C1725 1.574 1_565 S
C1742 H1736 0.949 . S
C1742 C1746 1.368 . S
C1743 C1724 1.429 . S
C1743 C1737 1.429 . S
C1743 C1744 1.523 . S
C1744 C1725 1.368 . S
C1744 C1738 1.368 . S
C1744 C1743 1.523 . S
C1745 C1729 1.429 . S
C1745 C1741 1.429 . S
C1745 C1746 1.523 . S
C1746 C1730 1.368 . S
C1746 C1742 1.368 . S
C1746 C1745 1.523 . S
H1747 C1722 0.950 . S
H1748 C1724 0.950 . S
H1749 C1725 0.949 . S
H1750 C1727 0.950 . S
H1751 C1729 0.950 . S
C1752 C1753 1.349 . S
C1752 C1754 1.327 . S
C1752 H1777 0.950 . S
C1753 C1752 1.349 . S
C1753 C1769 1.349 . S
C1754 C1752 1.327 . S
C1754 C1773 1.429 . S
C1754 H1778 0.950 . S
C1755 C1772 1.574 . S
C1755 C1774 1.368 . S
C1755 H1779 0.949 . S
H1756 C1760 0.949 . S
C1757 C1758 1.349 . S
C1757 C1759 1.327 . S
C1757 H1780 0.950 . S
C1758 C1757 1.349 . S
C1758 C1770 1.349 . S
C1759 C1757 1.327 . S
C1759 C1775 1.429 . S
C1759 H1781 0.950 . S
C1760 H1756 0.949 . S
C1760 C1768 1.574 . S
C1760 C1776 1.368 . S
H1761 C1769 0.950 . S
H1762 C1767 0.950 . S
H1763 C1768 0.949 . S
H1764 C1770 0.950 . S
H1765 C1771 0.950 . S
H1766 C1772 0.949 . S
C1767 H1762 0.950 . S
C1767 C1769 1.327 . S
C1767 C1773 1.429 . S
C1768 C1760 1.574 . S
C1768 H1763 0.949 . S
C1768 C1774 1.368 . S
C1769 C1753 1.349 . S
C1769 H1761 0.950 . S
C1769 C1767 1.327 . S
C1770 C1758 1.349 . S
C1770 H1764 0.950 . S
C1770 C1771 1.327 . S
C1771 H1765 0.950 . S
C1771 C1770 1.327 . S
C1771 C1775 1.429 . S
C1772 C1755 1.574 . S
C1772 H1766 0.949 . S
C1772 C1776 1.368 . S
C1773 C1754 1.429 . S
C1773 C1767 1.429 . S
C1773 C1774 1.523 . S
C1774 C1755 1.368 . S
C1774 C1768 1.368 . S
C1774 C1773 1.523 . S
C1775 C1759 1.429 . S
C1775 C1771 1.429 . S
C1775 C1776 1.523 . S
C1776 C1760 1.368 . S
C1776 C1772 1.368 . S
C1776 C1775 1.523 . S
H1777 C1752 0.950 . S
H1778 C1754 0.950 . S
H1779 C1755 0.949 . S
H1780 C1757 0.950 . S
H1781 C1759 0.950 . S
C1782 C1783 1.349 . S
C1782 C1784 1.327 . S
C1782 H1807 0.950 . S
C1783 C1782 1.349 . S
C1783 C1799 1.349 . S
C1784 C1782 1.327 . S
C1784 C1803 1.429 . S
C1784 H1808 0.950 . S
C1785 C1802 1.574 . S
C1785 C1804 1.368 1_545 S
C1785 H1809 0.949 1_545 S
H1786 C1790 0.949 . S
C1787 C1788 1.349 . S
C1787 C1789 1.327 . S
C1787 H1810 0.950 . S
C1788 C1787 1.349 . S
C1788 C1800 1.349 . S
C1789 C1787 1.327 . S
C1789 C1805 1.429 . S
C1789 H1811 0.950 . S
C1790 H1786 0.949 . S
C1790 C1798 1.574 . S
C1790 C1806 1.368 . S
H1791 C1799 0.950 . S
H1792 C1797 0.950 . S
H1793 C1798 0.949 1_565 S
H1794 C1800 0.950 . S
H1795 C1801 0.950 . S
H1796 C1802 0.949 . S
C1797 H1792 0.950 . S
C1797 C1799 1.327 . S
C1797 C1803 1.429 . S
C1798 C1790 1.574 . S
C1798 H1793 0.949 1_545 S
C1798 C1804 1.368 1_545 S
C1799 C1783 1.349 . S
C1799 H1791 0.950 . S
C1799 C1797 1.327 . S
C1800 C1788 1.349 . S
C1800 H1794 0.950 . S
C1800 C1801 1.327 . S
C1801 H1795 0.950 . S
C1801 C1800 1.327 . S
C1801 C1805 1.429 . S
C1802 C1785 1.574 . S
C1802 H1796 0.949 . S
C1802 C1806 1.368 . S
C1803 C1784 1.429 . S
C1803 C1797 1.429 . S
C1803 C1804 1.523 . S
C1804 C1785 1.368 1_565 S
C1804 C1798 1.368 1_565 S
C1804 C1803 1.523 . S
C1805 C1789 1.429 . S
C1805 C1801 1.429 . S
C1805 C1806 1.523 . S
C1806 C1790 1.368 . S
C1806 C1802 1.368 . S
C1806 C1805 1.523 . S
H1807 C1782 0.950 . S
H1808 C1784 0.950 . S
H1809 C1785 0.949 1_565 S
H1810 C1787 0.950 . S
H1811 C1789 0.950 . S
C1812 C1813 1.349 . S
C1812 C1814 1.327 . S
C1812 H1837 0.950 . S
C1813 C1812 1.349 . S
C1813 C1829 1.349 . S
C1814 C1812 1.327 . S
C1814 C1833 1.429 . S
C1814 H1838 0.950 . S
C1815 C1832 1.574 . S
C1815 C1834 1.368 . S
C1815 H1839 0.949 . S
H1816 C1820 0.949 . S
C1817 C1818 1.349 . S
C1817 C1819 1.327 . S
C1817 H1840 0.950 . S
C1818 C1817 1.349 . S
C1818 C1830 1.349 . S
C1819 C1817 1.327 . S
C1819 C1835 1.429 . S
C1819 H1841 0.950 . S
C1820 H1816 0.949 . S
C1820 C1828 1.574 . S
C1820 C1836 1.368 . S
H1821 C1829 0.950 . S
H1822 C1827 0.950 . S
H1823 C1828 0.949 . S
H1824 C1830 0.950 . S
H1825 C1831 0.950 . S
H1826 C1832 0.949 . S
C1827 H1822 0.950 . S
C1827 C1829 1.327 . S
C1827 C1833 1.429 . S
C1828 C1820 1.574 . S
C1828 H1823 0.949 . S
C1828 C1834 1.368 . S
C1829 C1813 1.349 . S
C1829 H1821 0.950 . S
C1829 C1827 1.327 . S
C1830 C1818 1.349 . S
C1830 H1824 0.950 . S
C1830 C1831 1.327 . S
C1831 H1825 0.950 . S
C1831 C1830 1.327 . S
C1831 C1835 1.429 . S
C1832 C1815 1.574 . S
C1832 H1826 0.949 . S
C1832 C1836 1.368 . S
C1833 C1814 1.429 . S
C1833 C1827 1.429 . S
C1833 C1834 1.523 . S
C1834 C1815 1.368 . S
C1834 C1828 1.368 . S
C1834 C1833 1.523 . S
C1835 C1819 1.429 . S
C1835 C1831 1.429 . S
C1835 C1836 1.523 . S
C1836 C1820 1.368 . S
C1836 C1832 1.368 . S
C1836 C1835 1.523 . S
H1837 C1812 0.950 . S
H1838 C1814 0.950 . S
H1839 C1815 0.949 . S
H1840 C1817 0.950 . S
H1841 C1819 0.950 . S
C1842 C1843 1.349 . S
C1842 C1844 1.327 . S
C1842 H1867 0.950 . S
C1843 C1842 1.349 . S
C1843 C1859 1.349 . S
C1844 C1842 1.327 . S
C1844 C1863 1.429 . S
C1844 H1868 0.950 . S
C1845 C1862 1.574 1_565 S
C1845 C1864 1.368 . S
C1845 H1869 0.949 . S
H1846 C1850 0.974 . S
C1847 C1848 1.349 . S
C1847 C1849 1.327 . S
C1847 H1870 0.950 . S
C1848 C1847 1.349 . S
C1848 C1860 1.349 . S
C1849 C1847 1.327 . S
C1849 C1865 1.429 . S
C1849 H1871 0.950 . S
C1850 H1846 0.974 . S
C1850 C1858 1.530 1_545 S
C1850 C1866 1.385 . S
H1851 C1859 0.950 . S
H1852 C1857 0.950 . S
H1853 C1858 0.949 . S
H1854 C1860 0.950 . S
H1855 C1861 0.950 . S
H1856 C1862 0.949 . S
C1857 H1852 0.950 . S
C1857 C1859 1.327 . S
C1857 C1863 1.429 . S
C1858 C1850 1.530 1_565 S
C1858 H1853 0.949 . S
C1858 C1864 1.368 . S
C1859 C1843 1.349 . S
C1859 H1851 0.950 . S
C1859 C1857 1.327 . S
C1860 C1848 1.349 . S
C1860 H1854 0.950 . S
C1860 C1861 1.327 . S
C1861 H1855 0.950 . S
C1861 C1860 1.327 . S
C1861 C1865 1.429 . S
C1862 C1845 1.574 1_545 S
C1862 H1856 0.949 . S
C1862 C1866 1.368 . S
C1863 C1844 1.429 . S
C1863 C1857 1.429 . S
C1863 C1864 1.523 . S
C1864 C1845 1.368 . S
C1864 C1858 1.368 . S
C1864 C1863 1.523 . S
C1865 C1849 1.429 . S
C1865 C1861 1.429 . S
C1865 C1866 1.523 . S
C1866 C1850 1.385 . S
C1866 C1862 1.368 . S
C1866 C1865 1.523 . S
H1867 C1842 0.950 . S
H1868 C1844 0.950 . S
H1869 C1845 0.949 . S
H1870 C1847 0.950 . S
H1871 C1849 0.950 . S
C1872 C1873 1.349 . S
C1872 C1874 1.327 . S
C1872 H1897 0.950 . S
C1873 C1872 1.349 . S
C1873 C1889 1.349 . S
C1874 C1872 1.327 . S
C1874 C1893 1.429 . S
C1874 H1898 0.950 . S
C1875 C1892 1.574 . S
C1875 C1894 1.368 . S
C1875 H1899 0.949 . S
H1876 C1880 0.949 . S
C1877 C1878 1.349 . S
C1877 C1879 1.327 . S
C1877 H1900 0.950 . S
C1878 C1877 1.349 . S
C1878 C1890 1.349 . S
C1879 C1877 1.327 . S
C1879 C1895 1.429 . S
C1879 H1901 0.950 . S
C1880 H1876 0.949 . S
C1880 C1888 1.574 . S
C1880 C1896 1.368 . S
H1881 C1889 0.950 . S
H1882 C1887 0.950 . S
H1883 C1888 0.949 . S
H1884 C1890 0.950 . S
H1885 C1891 0.950 . S
H1886 C1892 0.949 . S
C1887 H1882 0.950 . S
C1887 C1889 1.327 . S
C1887 C1893 1.429 . S
C1888 C1880 1.574 . S
C1888 H1883 0.949 . S
C1888 C1894 1.368 . S
C1889 C1873 1.349 . S
C1889 H1881 0.950 . S
C1889 C1887 1.327 . S
C1890 C1878 1.349 . S
C1890 H1884 0.950 . S
C1890 C1891 1.327 . S
C1891 H1885 0.950 . S
C1891 C1890 1.327 . S
C1891 C1895 1.429 . S
C1892 C1875 1.574 . S
C1892 H1886 0.949 . S
C1892 C1896 1.368 . S
C1893 C1874 1.429 . S
C1893 C1887 1.429 . S
C1893 C1894 1.523 . S
C1894 C1875 1.368 . S
C1894 C1888 1.368 . S
C1894 C1893 1.523 . S
C1895 C1879 1.429 . S
C1895 C1891 1.429 . S
C1895 C1896 1.523 . S
C1896 C1880 1.368 . S
C1896 C1892 1.368 . S
C1896 C1895 1.523 . S
H1897 C1872 0.950 . S
H1898 C1874 0.950 . S
H1899 C1875 0.949 . S
H1900 C1877 0.950 . S
H1901 C1879 0.950 . S
C1902 C1903 1.349 . S
C1902 C1904 1.327 . S
C1902 H1927 0.950 . S
C1903 C1902 1.349 . S
C1903 C1919 1.349 . S
C1904 C1902 1.327 . S
C1904 C1923 1.429 . S
C1904 H1928 0.950 . S
C1905 C1922 1.574 . S
C1905 C1924 1.368 . S
C1905 H1929 0.949 . S
H1906 C1910 0.949 . S
C1907 C1908 1.349 . S
C1907 C1909 1.327 . S
C1907 H1930 0.950 . S
C1908 C1907 1.349 . S
C1908 C1920 1.349 . S
C1909 C1907 1.327 . S
C1909 C1925 1.429 . S
C1909 H1931 0.950 . S
C1910 H1906 0.949 . S
C1910 C1918 1.574 . S
C1910 C1926 1.368 . S
H1911 C1919 0.950 . S
H1912 C1917 0.950 . S
H1913 C1918 0.949 . S
H1914 C1920 0.950 . S
H1915 C1921 0.950 . S
H1916 C1922 0.949 . S
C1917 H1912 0.950 . S
C1917 C1919 1.327 . S
C1917 C1923 1.429 . S
C1918 C1910 1.574 . S
C1918 H1913 0.949 . S
C1918 C1924 1.368 . S
C1919 C1903 1.349 . S
C1919 H1911 0.950 . S
C1919 C1917 1.327 . S
C1920 C1908 1.349 . S
C1920 H1914 0.950 . S
C1920 C1921 1.327 . S
C1921 H1915 0.950 . S
C1921 C1920 1.327 . S
C1921 C1925 1.429 . S
C1922 C1905 1.574 . S
C1922 H1916 0.949 . S
C1922 C1926 1.368 . S
C1923 C1904 1.429 . S
C1923 C1917 1.429 . S
C1923 C1924 1.523 . S
C1924 C1905 1.368 . S
C1924 C1918 1.368 . S
C1924 C1923 1.523 . S
C1925 C1909 1.429 . S
C1925 C1921 1.429 . S
C1925 C1926 1.523 . S
C1926 C1910 1.368 . S
C1926 C1922 1.368 . S
C1926 C1925 1.523 . S
H1927 C1902 0.950 . S
H1928 C1904 0.950 . S
H1929 C1905 0.949 . S
H1930 C1907 0.950 . S
H1931 C1909 0.950 . S
C1932 C1933 1.349 . S
C1932 C1934 1.327 . S
C1932 H1957 0.950 . S
C1933 C1932 1.349 . S
C1933 C1949 1.349 . S
C1934 C1932 1.327 . S
C1934 C1953 1.429 . S
C1934 H1958 0.950 . S
C1935 C1952 1.574 . S
C1935 C1954 1.368 . S
C1935 H1959 0.949 . S
H1936 C1940 0.949 . S
C1937 C1938 1.349 . S
C1937 C1939 1.327 . S
C1937 H1960 0.950 . S
C1938 C1937 1.349 . S
C1938 C1950 1.349 . S
C1939 C1937 1.327 . S
C1939 C1955 1.429 . S
C1939 H1961 0.950 . S
C1940 H1936 0.949 . S
C1940 C1948 1.574 . S
C1940 C1956 1.368 . S
H1941 C1949 0.950 . S
H1942 C1947 0.950 . S
H1943 C1948 0.949 . S
H1944 C1950 0.950 . S
H1945 C1951 0.950 . S
H1946 C1952 0.949 . S
C1947 H1942 0.950 . S
C1947 C1949 1.327 . S
C1947 C1953 1.429 . S
C1948 C1940 1.574 . S
C1948 H1943 0.949 . S
C1948 C1954 1.368 . S
C1949 C1933 1.349 . S
C1949 H1941 0.950 . S
C1949 C1947 1.327 . S
C1950 C1938 1.349 . S
C1950 H1944 0.950 . S
C1950 C1951 1.327 . S
C1951 H1945 0.950 . S
C1951 C1950 1.327 . S
C1951 C1955 1.429 . S
C1952 C1935 1.574 . S
C1952 H1946 0.949 . S
C1952 C1956 1.368 . S
C1953 C1934 1.429 . S
C1953 C1947 1.429 . S
C1953 C1954 1.523 . S
C1954 C1935 1.368 . S
C1954 C1948 1.368 . S
C1954 C1953 1.523 . S
C1955 C1939 1.429 . S
C1955 C1951 1.429 . S
C1955 C1956 1.523 1_655 S
C1956 C1940 1.368 . S
C1956 C1952 1.368 . S
C1956 C1955 1.523 1_455 S
H1957 C1932 0.950 . S
H1958 C1934 0.950 . S
H1959 C1935 0.949 . S
H1960 C1937 0.950 . S
H1961 C1939 0.950 . S
C1962 C1963 1.349 . S
C1962 C1964 1.327 . S
C1962 H1987 0.950 . S
C1963 C1962 1.349 . S
C1963 C1979 1.349 . S
C1964 C1962 1.327 . S
C1964 C1983 1.429 . S
C1964 H1988 0.950 . S
C1965 C1982 1.574 . S
C1965 C1984 1.368 . S
C1965 H1989 0.949 . S
H1966 C1970 0.949 . S
C1967 C1968 1.349 . S
C1967 C1969 1.327 . S
C1967 H1990 0.950 . S
C1968 C1967 1.349 . S
C1968 C1980 1.349 . S
C1969 C1967 1.327 . S
C1969 C1985 1.429 . S
C1969 H1991 0.950 . S
C1970 H1966 0.949 . S
C1970 C1978 1.574 . S
C1970 C1986 1.368 . S
H1971 C1979 0.950 . S
H1972 C1977 0.950 . S
H1973 C1978 0.949 . S
H1974 C1980 0.950 . S
H1975 C1981 0.950 . S
H1976 C1982 0.949 . S
C1977 H1972 0.950 . S
C1977 C1979 1.327 . S
C1977 C1983 1.429 . S
C1978 C1970 1.574 . S
C1978 H1973 0.949 . S
C1978 C1984 1.368 . S
C1979 C1963 1.349 . S
C1979 H1971 0.950 . S
C1979 C1977 1.327 . S
C1980 C1968 1.349 . S
C1980 H1974 0.950 . S
C1980 C1981 1.327 . S
C1981 H1975 0.950 . S
C1981 C1980 1.327 . S
C1981 C1985 1.429 . S
C1982 C1965 1.574 . S
C1982 H1976 0.949 . S
C1982 C1986 1.368 . S
C1983 C1964 1.429 . S
C1983 C1977 1.429 . S
C1983 C1984 1.523 . S
C1984 C1965 1.368 . S
C1984 C1978 1.368 . S
C1984 C1983 1.523 . S
C1985 C1969 1.429 . S
C1985 C1981 1.429 . S
C1985 C1986 1.523 . S
C1986 C1970 1.368 . S
C1986 C1982 1.368 . S
C1986 C1985 1.523 . S
H1987 C1962 0.950 . S
H1988 C1964 0.950 . S
H1989 C1965 0.949 . S
H1990 C1967 0.950 . S
H1991 C1969 0.950 . S
C1992 C1993 1.349 . S
C1992 C1994 1.327 . S
C1992 H2017 0.950 . S
C1993 C1992 1.349 . S
C1993 C2009 1.349 . S
C1994 C1992 1.327 . S
C1994 C2013 1.429 . S
C1994 H2018 0.950 . S
C1995 C2012 1.574 . S
C1995 C2014 1.368 . S
C1995 H2019 0.949 . S
H1996 C2000 0.949 . S
C1997 C1998 1.349 . S
C1997 C1999 1.327 . S
C1997 H2020 0.950 . S
C1998 C1997 1.349 . S
C1998 C2010 1.349 . S
C1999 C1997 1.327 . S
C1999 C2015 1.429 . S
C1999 H2021 0.950 . S
C2000 H1996 0.949 . S
C2000 C2008 1.574 . S
C2000 C2016 1.368 . S
H2001 C2009 0.950 . S
H2002 C2007 0.950 . S
H2003 C2008 0.949 . S
H2004 C2010 0.950 . S
H2005 C2011 0.950 . S
H2006 C2012 0.949 . S
C2007 H2002 0.950 . S
C2007 C2009 1.327 . S
C2007 C2013 1.429 . S
C2008 C2000 1.574 . S
C2008 H2003 0.949 . S
C2008 C2014 1.368 . S
C2009 C1993 1.349 . S
C2009 H2001 0.950 . S
C2009 C2007 1.327 . S
C2010 C1998 1.349 . S
C2010 H2004 0.950 . S
C2010 C2011 1.327 . S
C2011 H2005 0.950 . S
C2011 C2010 1.327 . S
C2011 C2015 1.429 . S
C2012 C1995 1.574 . S
C2012 H2006 0.949 . S
C2012 C2016 1.368 . S
C2013 C1994 1.429 . S
C2013 C2007 1.429 . S
C2013 C2014 1.523 1_455 S
C2014 C1995 1.368 . S
C2014 C2008 1.368 . S
C2014 C2013 1.523 1_655 S
C2015 C1999 1.429 . S
C2015 C2011 1.429 . S
C2015 C2016 1.523 . S
C2016 C2000 1.368 . S
C2016 C2012 1.368 . S
C2016 C2015 1.523 . S
H2017 C1992 0.950 . S
H2018 C1994 0.950 . S
H2019 C1995 0.949 . S
H2020 C1997 0.950 . S
H2021 C1999 0.950 . S
C2022 C2023 1.349 . S
C2022 C2024 1.327 . S
C2022 H2047 0.950 . S
C2023 C2022 1.349 . S
C2023 C2039 1.349 . S
C2024 C2022 1.327 . S
C2024 C2043 1.429 . S
C2024 H2048 0.950 . S
C2025 C2042 1.574 . S
C2025 C2044 1.368 . S
C2025 H2049 0.949 . S
H2026 C2030 0.949 . S
C2027 C2028 1.349 . S
C2027 C2029 1.327 . S
C2027 H2050 0.950 . S
C2028 C2027 1.349 . S
C2028 C2040 1.349 . S
C2029 C2027 1.327 . S
C2029 C2045 1.429 . S
C2029 H2051 0.950 . S
C2030 H2026 0.949 . S
C2030 C2038 1.574 . S
C2030 C2046 1.368 . S
H2031 C2039 0.950 . S
H2032 C2037 0.950 . S
H2033 C2038 0.949 . S
H2034 C2040 0.950 . S
H2035 C2041 0.950 . S
H2036 C2042 0.949 . S
C2037 H2032 0.950 . S
C2037 C2039 1.327 . S
C2037 C2043 1.429 . S
C2038 C2030 1.574 . S
C2038 H2033 0.949 . S
C2038 C2044 1.368 . S
C2039 C2023 1.349 . S
C2039 H2031 0.950 . S
C2039 C2037 1.327 . S
C2040 C2028 1.349 . S
C2040 H2034 0.950 . S
C2040 C2041 1.327 . S
C2041 H2035 0.950 . S
C2041 C2040 1.327 . S
C2041 C2045 1.429 . S
C2042 C2025 1.574 . S
C2042 H2036 0.949 . S
C2042 C2046 1.368 . S
C2043 C2024 1.429 . S
C2043 C2037 1.429 . S
C2043 C2044 1.523 . S
C2044 C2025 1.368 . S
C2044 C2038 1.368 . S
C2044 C2043 1.523 . S
C2045 C2029 1.429 . S
C2045 C2041 1.429 . S
C2045 C2046 1.523 . S
C2046 C2030 1.368 . S
C2046 C2042 1.368 . S
C2046 C2045 1.523 . S
H2047 C2022 0.950 . S
H2048 C2024 0.950 . S
H2049 C2025 0.949 . S
H2050 C2027 0.950 . S
H2051 C2029 0.950 . S
C2052 C2053 1.349 . S
C2052 C2054 1.327 . S
C2052 H2077 0.950 . S
C2053 C2052 1.349 . S
C2053 C2069 1.349 . S
C2054 C2052 1.327 . S
C2054 C2073 1.429 . S
C2054 H2078 0.950 . S
C2055 C2072 1.574 . S
C2055 C2074 1.368 . S
C2055 H2079 0.949 . S
H2056 C2060 0.949 . S
C2057 C2058 1.349 . S
C2057 C2059 1.327 . S
C2057 H2080 0.950 . S
C2058 C2057 1.349 . S
C2058 C2070 1.349 . S
C2059 C2057 1.327 . S
C2059 C2075 1.429 . S
C2059 H2081 0.950 . S
C2060 H2056 0.949 . S
C2060 C2068 1.574 1_455 S
C2060 C2076 1.368 . S
H2061 C2069 0.950 . S
H2062 C2067 0.950 . S
H2063 C2068 0.949 . S
H2064 C2070 0.950 . S
H2065 C2071 0.950 . S
H2066 C2072 0.949 1_455 S
C2067 H2062 0.950 . S
C2067 C2069 1.327 . S
C2067 C2073 1.429 . S
C2068 C2060 1.574 1_655 S
C2068 H2063 0.949 . S
C2068 C2074 1.368 . S
C2069 C2053 1.349 . S
C2069 H2061 0.950 . S
C2069 C2067 1.327 . S
C2070 C2058 1.349 . S
C2070 H2064 0.950 . S
C2070 C2071 1.327 . S
C2071 H2065 0.950 . S
C2071 C2070 1.327 . S
C2071 C2075 1.429 . S
C2072 C2055 1.574 . S
C2072 H2066 0.949 1_655 S
C2072 C2076 1.368 1_655 S
C2073 C2054 1.429 . S
C2073 C2067 1.429 . S
C2073 C2074 1.523 . S
C2074 C2055 1.368 . S
C2074 C2068 1.368 . S
C2074 C2073 1.523 . S
C2075 C2059 1.429 . S
C2075 C2071 1.429 . S
C2075 C2076 1.523 . S
C2076 C2060 1.368 . S
C2076 C2072 1.368 1_455 S
C2076 C2075 1.523 . S
H2077 C2052 0.950 . S
H2078 C2054 0.950 . S
H2079 C2055 0.949 . S
H2080 C2057 0.950 . S
H2081 C2059 0.950 . S
C2082 C2083 1.349 . S
C2082 C2084 1.327 . S
C2082 H2107 0.950 . S
C2083 C2082 1.349 . S
C2083 C2099 1.349 . S
C2084 C2082 1.327 . S
C2084 C2103 1.429 . S
C2084 H2108 0.950 . S
C2085 C2102 1.574 . S
C2085 C2104 1.368 . S
C2085 H2109 0.949 . S
H2086 C2090 0.949 . S
C2087 C2088 1.349 . S
C2087 C2089 1.327 . S
C2087 H2110 0.950 . S
C2088 C2087 1.349 . S
C2088 C2100 1.349 . S
C2089 C2087 1.327 . S
C2089 C2105 1.429 . S
C2089 H2111 0.950 . S
C2090 H2086 0.949 . S
C2090 C2098 1.574 . S
C2090 C2106 1.368 . S
H2091 C2099 0.950 . S
H2092 C2097 0.950 . S
H2093 C2098 0.949 . S
H2094 C2100 0.950 . S
H2095 C2101 0.950 . S
H2096 C2102 0.949 . S
C2097 H2092 0.950 . S
C2097 C2099 1.327 . S
C2097 C2103 1.429 . S
C2098 C2090 1.574 . S
C2098 H2093 0.949 . S
C2098 C2104 1.368 . S
C2099 C2083 1.349 . S
C2099 H2091 0.950 . S
C2099 C2097 1.327 . S
C2100 C2088 1.349 . S
C2100 H2094 0.950 . S
C2100 C2101 1.327 . S
C2101 H2095 0.950 . S
C2101 C2100 1.327 . S
C2101 C2105 1.429 . S
C2102 C2085 1.574 . S
C2102 H2096 0.949 . S
C2102 C2106 1.368 . S
C2103 C2084 1.429 . S
C2103 C2097 1.429 . S
C2103 C2104 1.523 . S
C2104 C2085 1.368 . S
C2104 C2098 1.368 . S
C2104 C2103 1.523 . S
C2105 C2089 1.429 . S
C2105 C2101 1.429 . S
C2105 C2106 1.523 1_655 S
C2106 C2090 1.368 . S
C2106 C2102 1.368 . S
C2106 C2105 1.523 1_455 S
H2107 C2082 0.950 . S
H2108 C2084 0.950 . S
H2109 C2085 0.949 . S
H2110 C2087 0.950 . S
H2111 C2089 0.950 . S
C2112 C2113 1.349 . S
C2112 C2114 1.327 . S
C2112 H2137 0.950 . S
C2113 C2112 1.349 . S
C2113 C2129 1.349 . S
C2114 C2112 1.327 . S
C2114 C2133 1.429 . S
C2114 H2138 0.950 . S
C2115 C2132 1.574 . S
C2115 C2134 1.368 . S
C2115 H2139 0.949 . S
H2116 C2120 0.909 1_455 S
C2117 C2118 1.349 . S
C2117 C2119 1.327 . S
C2117 H2140 0.950 . S
C2118 C2117 1.349 . S
C2118 C2130 1.349 . S
C2119 C2117 1.327 . S
C2119 C2135 1.429 . S
C2119 H2141 0.950 . S
C2120 H2116 0.909 1_655 S
C2120 C2128 1.574 . S
C2120 C2136 1.367 1_655 S
H2121 C2129 0.950 . S
H2122 C2127 0.950 . S
H2123 C2128 0.949 . S
H2124 C2130 0.950 . S
H2125 C2131 0.950 . S
H2126 C2132 0.971 . S
C2127 H2122 0.950 . S
C2127 C2129 1.327 . S
C2127 C2133 1.429 . S
C2128 C2120 1.574 . S
C2128 H2123 0.949 . S
C2128 C2134 1.368 . S
C2129 C2113 1.349 . S
C2129 H2121 0.950 . S
C2129 C2127 1.327 . S
C2130 C2118 1.349 . S
C2130 H2124 0.950 . S
C2130 C2131 1.327 . S
C2131 H2125 0.950 . S
C2131 C2130 1.327 . S
C2131 C2135 1.429 . S
C2132 C2115 1.574 . S
C2132 H2126 0.971 . S
C2132 C2136 1.366 1_655 S
C2133 C2114 1.429 . S
C2133 C2127 1.429 . S
C2133 C2134 1.523 . S
C2134 C2115 1.368 . S
C2134 C2128 1.368 . S
C2134 C2133 1.523 . S
C2135 C2119 1.429 . S
C2135 C2131 1.429 . S
C2135 C2136 1.528 . S
C2136 C2120 1.367 1_455 S
C2136 C2132 1.366 1_455 S
C2136 C2135 1.528 . S
H2137 C2112 0.950 . S
H2138 C2114 0.950 . S
H2139 C2115 0.949 . S
H2140 C2117 0.950 . S
H2141 C2119 0.950 . S
C2142 C2143 1.349 . S
C2142 C2144 1.327 . S
C2142 H2167 0.950 . S
C2143 C2142 1.349 . S
C2143 C2159 1.349 . S
C2144 C2142 1.327 . S
C2144 C2163 1.429 . S
C2144 H2168 0.950 . S
C2145 C2162 1.574 . S
C2145 C2164 1.368 . S
C2145 H2169 0.949 . S
H2146 C2150 0.949 . S
C2147 C2148 1.349 . S
C2147 C2149 1.327 . S
C2147 H2170 0.950 . S
C2148 C2147 1.349 . S
C2148 C2160 1.349 . S
C2149 C2147 1.327 . S
C2149 C2165 1.429 . S
C2149 H2171 0.950 . S
C2150 H2146 0.949 . S
C2150 C2158 1.574 . S
C2150 C2166 1.368 . S
H2151 C2159 0.950 . S
H2152 C2157 0.950 . S
H2153 C2158 0.949 . S
H2154 C2160 0.950 . S
H2155 C2161 0.950 . S
H2156 C2162 0.949 . S
C2157 H2152 0.950 . S
C2157 C2159 1.327 . S
C2157 C2163 1.429 . S
C2158 C2150 1.574 . S
C2158 H2153 0.949 . S
C2158 C2164 1.368 . S
C2159 C2143 1.349 . S
C2159 H2151 0.950 . S
C2159 C2157 1.327 . S
C2160 C2148 1.349 . S
C2160 H2154 0.950 . S
C2160 C2161 1.327 . S
C2161 H2155 0.950 . S
C2161 C2160 1.327 . S
C2161 C2165 1.429 . S
C2162 C2145 1.574 . S
C2162 H2156 0.949 . S
C2162 C2166 1.368 . S
C2163 C2144 1.429 . S
C2163 C2157 1.429 . S
C2163 C2164 1.523 . S
C2164 C2145 1.368 . S
C2164 C2158 1.368 . S
C2164 C2163 1.523 . S
C2165 C2149 1.429 . S
C2165 C2161 1.429 . S
C2165 C2166 1.523 . S
C2166 C2150 1.368 . S
C2166 C2162 1.368 . S
C2166 C2165 1.523 . S
H2167 C2142 0.950 . S
H2168 C2144 0.950 . S
H2169 C2145 0.949 . S
H2170 C2147 0.950 . S
H2171 C2149 0.950 . S
C2172 C2173 1.349 . S
C2172 C2174 1.327 . S
C2172 H2197 0.950 . S
C2173 C2172 1.349 . S
C2173 C2189 1.349 . S
C2174 C2172 1.327 . S
C2174 C2193 1.429 . S
C2174 H2198 0.950 . S
C2175 C2192 1.574 . S
C2175 C2194 1.368 . S
C2175 H2199 0.949 . S
H2176 C2180 0.949 1_655 S
C2177 C2178 1.349 . S
C2177 C2179 1.327 . S
C2177 H2200 0.950 . S
C2178 C2177 1.349 . S
C2178 C2190 1.349 . S
C2179 C2177 1.327 . S
C2179 C2195 1.429 . S
C2179 H2201 0.950 . S
C2180 H2176 0.949 1_455 S
C2180 C2188 1.574 . S
C2180 C2196 1.368 1_455 S
H2181 C2189 0.950 . S
H2182 C2187 0.950 . S
H2183 C2188 0.949 . S
H2184 C2190 0.950 . S
H2185 C2191 0.950 . S
H2186 C2192 0.949 1_655 S
C2187 H2182 0.950 . S
C2187 C2189 1.327 . S
C2187 C2193 1.429 . S
C2188 C2180 1.574 . S
C2188 H2183 0.949 . S
C2188 C2194 1.368 . S
C2189 C2173 1.349 . S
C2189 H2181 0.950 . S
C2189 C2187 1.327 . S
C2190 C2178 1.349 . S
C2190 H2184 0.950 . S
C2190 C2191 1.327 . S
C2191 H2185 0.950 . S
C2191 C2190 1.327 . S
C2191 C2195 1.429 . S
C2192 C2175 1.574 . S
C2192 H2186 0.949 1_455 S
C2192 C2196 1.368 1_455 S
C2193 C2174 1.429 . S
C2193 C2187 1.429 . S
C2193 C2194 1.523 . S
C2194 C2175 1.368 . S
C2194 C2188 1.368 . S
C2194 C2193 1.523 . S
C2195 C2179 1.429 . S
C2195 C2191 1.429 . S
C2195 C2196 1.523 . S
C2196 C2180 1.368 1_655 S
C2196 C2192 1.368 1_655 S
C2196 C2195 1.523 . S
H2197 C2172 0.950 . S
H2198 C2174 0.950 . S
H2199 C2175 0.949 . S
H2200 C2177 0.950 . S
H2201 C2179 0.950 . S
C2202 C2203 1.349 . S
C2202 C2204 1.327 . S
C2202 H2227 0.950 . S
C2203 C2202 1.349 . S
C2203 C2219 1.349 . S
C2204 C2202 1.327 . S
C2204 C2223 1.429 . S
C2204 H2228 0.950 . S
C2205 C2222 1.574 . S
C2205 C2224 1.368 . S
C2205 H2229 0.949 . S
H2206 C2210 0.949 . S
C2207 C2208 1.349 . S
C2207 C2209 1.327 . S
C2207 H2230 0.950 . S
C2208 C2207 1.349 . S
C2208 C2220 1.349 . S
C2209 C2207 1.327 . S
C2209 C2225 1.429 . S
C2209 H2231 0.950 . S
C2210 H2206 0.949 . S
C2210 C2218 1.574 . S
C2210 C2226 1.368 . S
H2211 C2219 0.950 . S
H2212 C2217 0.950 . S
H2213 C2218 0.949 . S
H2214 C2220 0.950 . S
H2215 C2221 0.950 . S
H2216 C2222 0.949 . S
C2217 H2212 0.950 . S
C2217 C2219 1.327 . S
C2217 C2223 1.429 . S
C2218 C2210 1.574 . S
C2218 H2213 0.949 . S
C2218 C2224 1.368 . S
C2219 C2203 1.349 . S
C2219 H2211 0.950 . S
C2219 C2217 1.327 . S
C2220 C2208 1.349 . S
C2220 H2214 0.950 . S
C2220 C2221 1.327 . S
C2221 H2215 0.950 . S
C2221 C2220 1.327 . S
C2221 C2225 1.429 . S
C2222 C2205 1.574 . S
C2222 H2216 0.949 . S
C2222 C2226 1.368 . S
C2223 C2204 1.429 . S
C2223 C2217 1.429 . S
C2223 C2224 1.523 . S
C2224 C2205 1.368 . S
C2224 C2218 1.368 . S
C2224 C2223 1.523 . S
C2225 C2209 1.429 . S
C2225 C2221 1.429 . S
C2225 C2226 1.523 . S
C2226 C2210 1.368 . S
C2226 C2222 1.368 . S
C2226 C2225 1.523 . S
H2227 C2202 0.950 . S
H2228 C2204 0.950 . S
H2229 C2205 0.949 . S
H2230 C2207 0.950 . S
H2231 C2209 0.950 . S
C2232 C2233 1.349 . S
C2232 C2234 1.327 . S
C2232 H2257 0.950 . S
C2233 C2232 1.349 . S
C2233 C2249 1.349 . S
C2234 C2232 1.327 . S
C2234 C2253 1.429 . S
C2234 H2258 0.950 . S
C2235 C2252 1.574 . S
C2235 C2254 1.368 . S
C2235 H2259 0.949 . S
H2236 C2240 0.949 . S
C2237 C2238 1.349 . S
C2237 C2239 1.327 . S
C2237 H2260 0.950 . S
C2238 C2237 1.349 . S
C2238 C2250 1.349 . S
C2239 C2237 1.327 . S
C2239 C2255 1.429 . S
C2239 H2261 0.950 . S
C2240 H2236 0.949 . S
C2240 C2248 1.574 . S
C2240 C2256 1.368 . S
H2241 C2249 0.950 . S
H2242 C2247 0.950 . S
H2243 C2248 0.949 . S
H2244 C2250 0.950 . S
H2245 C2251 0.950 . S
H2246 C2252 0.949 . S
C2247 H2242 0.950 . S
C2247 C2249 1.327 . S
C2247 C2253 1.429 . S
C2248 C2240 1.574 . S
C2248 H2243 0.949 . S
C2248 C2254 1.368 . S
C2249 C2233 1.349 . S
C2249 H2241 0.950 . S
C2249 C2247 1.327 . S
C2250 C2238 1.349 . S
C2250 H2244 0.950 . S
C2250 C2251 1.327 . S
C2251 H2245 0.950 . S
C2251 C2250 1.327 . S
C2251 C2255 1.429 . S
C2252 C2235 1.574 . S
C2252 H2246 0.949 . S
C2252 C2256 1.368 . S
C2253 C2234 1.429 . S
C2253 C2247 1.429 . S
C2253 C2254 1.523 1_655 S
C2254 C2235 1.368 . S
C2254 C2248 1.368 . S
C2254 C2253 1.523 1_455 S
C2255 C2239 1.429 . S
C2255 C2251 1.429 . S
C2255 C2256 1.523 . S
C2256 C2240 1.368 . S
C2256 C2252 1.368 . S
C2256 C2255 1.523 . S
H2257 C2232 0.950 . S
H2258 C2234 0.950 . S
H2259 C2235 0.949 . S
H2260 C2237 0.950 . S
H2261 C2239 0.950 . S
C2262 C2263 1.349 . S
C2262 C2264 1.327 . S
C2262 H2287 0.950 . S
C2263 C2262 1.349 . S
C2263 C2279 1.349 . S
C2264 C2262 1.327 . S
C2264 C2283 1.429 . S
C2264 H2288 0.950 . S
C2265 C2282 1.574 . S
C2265 C2284 1.368 . S
C2265 H2289 0.949 . S
H2266 C2270 0.949 . S
C2267 C2268 1.349 . S
C2267 C2269 1.327 . S
C2267 H2290 0.950 . S
C2268 C2267 1.349 . S
C2268 C2280 1.349 . S
C2269 C2267 1.327 . S
C2269 C2285 1.429 . S
C2269 H2291 0.950 . S
C2270 H2266 0.949 . S
C2270 C2278 1.574 . S
C2270 C2286 1.368 . S
H2271 C2279 0.950 . S
H2272 C2277 0.950 . S
H2273 C2278 0.949 . S
H2274 C2280 0.950 . S
H2275 C2281 0.950 . S
H2276 C2282 0.949 . S
C2277 H2272 0.950 . S
C2277 C2279 1.327 . S
C2277 C2283 1.429 . S
C2278 C2270 1.574 . S
C2278 H2273 0.949 . S
C2278 C2284 1.368 . S
C2279 C2263 1.349 . S
C2279 H2271 0.950 . S
C2279 C2277 1.327 . S
C2280 C2268 1.349 . S
C2280 H2274 0.950 . S
C2280 C2281 1.327 . S
C2281 H2275 0.950 . S
C2281 C2280 1.327 . S
C2281 C2285 1.429 . S
C2282 C2265 1.574 . S
C2282 H2276 0.949 . S
C2282 C2286 1.368 . S
C2283 C2264 1.429 . S
C2283 C2277 1.429 . S
C2283 C2284 1.523 . S
C2284 C2265 1.368 . S
C2284 C2278 1.368 . S
C2284 C2283 1.523 . S
C2285 C2269 1.429 . S
C2285 C2281 1.429 . S
C2285 C2286 1.523 . S
C2286 C2270 1.368 . S
C2286 C2282 1.368 . S
C2286 C2285 1.523 . S
H2287 C2262 0.950 . S
H2288 C2264 0.950 . S
H2289 C2265 0.949 . S
H2290 C2267 0.950 . S
H2291 C2269 0.950 . S
C2292 C2293 1.349 . S
C2292 C2294 1.327 . S
C2292 H2317 0.950 . S
C2293 C2292 1.349 . S
C2293 C2309 1.349 . S
C2294 C2292 1.327 . S
C2294 C2313 1.429 . S
C2294 H2318 0.950 . S
C2295 C2312 1.574 1_655 S
C2295 C2314 1.368 . S
C2295 H2319 0.949 . S
H2296 C2300 0.949 . S
C2297 C2298 1.349 . S
C2297 C2299 1.327 . S
C2297 H2320 0.950 . S
C2298 C2297 1.349 . S
C2298 C2310 1.349 . S
C2299 C2297 1.327 . S
C2299 C2315 1.429 . S
C2299 H2321 0.950 . S
C2300 H2296 0.949 . S
C2300 C2308 1.574 1_455 S
C2300 C2316 1.368 . S
H2301 C2309 0.950 . S
H2302 C2307 0.950 . S
H2303 C2308 0.949 . S
H2304 C2310 0.950 . S
H2305 C2311 0.950 . S
H2306 C2312 0.949 . S
C2307 H2302 0.950 . S
C2307 C2309 1.327 . S
C2307 C2313 1.429 . S
C2308 C2300 1.574 1_655 S
C2308 H2303 0.949 . S
C2308 C2314 1.368 . S
C2309 C2293 1.349 . S
C2309 H2301 0.950 . S
C2309 C2307 1.327 . S
C2310 C2298 1.349 . S
C2310 H2304 0.950 . S
C2310 C2311 1.327 . S
C2311 H2305 0.950 . S
C2311 C2310 1.327 . S
C2311 C2315 1.429 . S
C2312 C2295 1.574 1_455 S
C2312 H2306 0.949 . S
C2312 C2316 1.368 . S
C2313 C2294 1.429 . S
C2313 C2307 1.429 . S
C2313 C2314 1.523 . S
C2314 C2295 1.368 . S
C2314 C2308 1.368 . S
C2314 C2313 1.523 . S
C2315 C2299 1.429 . S
C2315 C2311 1.429 . S
C2315 C2316 1.523 . S
C2316 C2300 1.368 . S
C2316 C2312 1.368 . S
C2316 C2315 1.523 . S
H2317 C2292 0.950 . S
H2318 C2294 0.950 . S
H2319 C2295 0.949 . S
H2320 C2297 0.950 . S
H2321 C2299 0.950 . S
C2322 C2323 1.349 . S
C2322 C2324 1.327 . S
C2322 H2347 0.950 . S
C2323 C2322 1.349 . S
C2323 C2339 1.349 . S
C2324 C2322 1.327 . S
C2324 C2343 1.429 . S
C2324 H2348 0.950 . S
C2325 C2342 1.574 . S
C2325 C2344 1.368 . S
C2325 H2349 0.949 . S
H2326 C2330 0.949 . S
C2327 C2328 1.349 . S
C2327 C2329 1.327 . S
C2327 H2350 0.950 . S
C2328 C2327 1.349 . S
C2328 C2340 1.349 . S
C2329 C2327 1.327 . S
C2329 C2345 1.429 . S
C2329 H2351 0.950 . S
C2330 H2326 0.949 . S
C2330 C2338 1.574 . S
C2330 C2346 1.368 . S
H2331 C2339 0.950 . S
H2332 C2337 0.950 . S
H2333 C2338 0.949 . S
H2334 C2340 0.950 . S
H2335 C2341 0.950 . S
H2336 C2342 0.949 . S
C2337 H2332 0.950 . S
C2337 C2339 1.327 . S
C2337 C2343 1.429 . S
C2338 C2330 1.574 . S
C2338 H2333 0.949 . S
C2338 C2344 1.368 . S
C2339 C2323 1.349 . S
C2339 H2331 0.950 . S
C2339 C2337 1.327 . S
C2340 C2328 1.349 . S
C2340 H2334 0.950 . S
C2340 C2341 1.327 . S
C2341 H2335 0.950 . S
C2341 C2340 1.327 . S
C2341 C2345 1.429 . S
C2342 C2325 1.574 . S
C2342 H2336 0.949 . S
C2342 C2346 1.368 . S
C2343 C2324 1.429 . S
C2343 C2337 1.429 . S
C2343 C2344 1.523 . S
C2344 C2325 1.368 . S
C2344 C2338 1.368 . S
C2344 C2343 1.523 . S
C2345 C2329 1.429 . S
C2345 C2341 1.429 . S
C2345 C2346 1.523 . S
C2346 C2330 1.368 . S
C2346 C2342 1.368 . S
C2346 C2345 1.523 . S
H2347 C2322 0.950 . S
H2348 C2324 0.950 . S
H2349 C2325 0.949 . S
H2350 C2327 0.950 . S
H2351 C2329 0.950 . S
C2352 C2353 1.349 . S
C2352 C2354 1.327 . S
C2352 H2377 0.950 . S
C2353 C2352 1.349 . S
C2353 C2369 1.349 . S
C2354 C2352 1.327 . S
C2354 C2373 1.429 . S
C2354 H2378 0.950 . S
C2355 C2372 1.574 . S
C2355 C2374 1.368 . S
C2355 H2379 0.949 . S
H2356 C2360 0.949 1_565 S
C2357 C2358 1.349 . S
C2357 C2359 1.327 . S
C2357 H2380 0.950 . S
C2358 C2357 1.349 . S
C2358 C2370 1.349 . S
C2359 C2357 1.327 . S
C2359 C2375 1.429 . S
C2359 H2381 0.950 . S
C2360 H2356 0.949 1_545 S
C2360 C2368 1.574 . S
C2360 C2376 1.368 1_545 S
H2361 C2369 0.950 . S
H2362 C2367 0.950 . S
H2363 C2368 0.949 . S
H2364 C2370 0.950 . S
H2365 C2371 0.950 . S
H2366 C2372 0.949 1_565 S
C2367 H2362 0.950 . S
C2367 C2369 1.327 . S
C2367 C2373 1.429 . S
C2368 C2360 1.574 . S
C2368 H2363 0.949 . S
C2368 C2374 1.368 . S
C2369 C2353 1.349 . S
C2369 H2361 0.950 . S
C2369 C2367 1.327 . S
C2370 C2358 1.349 . S
C2370 H2364 0.950 . S
C2370 C2371 1.327 . S
C2371 H2365 0.950 . S
C2371 C2370 1.327 . S
C2371 C2375 1.429 . S
C2372 C2355 1.574 . S
C2372 H2366 0.949 1_545 S
C2372 C2376 1.368 1_545 S
C2373 C2354 1.429 . S
C2373 C2367 1.429 . S
C2373 C2374 1.523 . S
C2374 C2355 1.368 . S
C2374 C2368 1.368 . S
C2374 C2373 1.523 . S
C2375 C2359 1.429 . S
C2375 C2371 1.429 . S
C2375 C2376 1.523 . S
C2376 C2360 1.368 1_565 S
C2376 C2372 1.368 1_565 S
C2376 C2375 1.523 . S
H2377 C2352 0.950 . S
H2378 C2354 0.950 . S
H2379 C2355 0.949 . S
H2380 C2357 0.950 . S
H2381 C2359 0.950 . S
C2382 C2383 1.349 . S
C2382 C2384 1.327 . S
C2382 H2407 0.950 . S
C2383 C2382 1.349 . S
C2383 C2399 1.349 . S
C2384 C2382 1.327 . S
C2384 C2403 1.429 . S
C2384 H2408 0.950 . S
C2385 C2402 1.574 . S
C2385 C2404 1.368 . S
C2385 H2409 0.949 . S
H2386 C2390 0.949 . S
C2387 C2388 1.349 . S
C2387 C2389 1.327 . S
C2387 H2410 0.950 . S
C2388 C2387 1.349 . S
C2388 C2400 1.349 . S
C2389 C2387 1.327 . S
C2389 C2405 1.429 . S
C2389 H2411 0.950 . S
C2390 H2386 0.949 . S
C2390 C2398 1.574 . S
C2390 C2406 1.368 . S
H2391 C2399 0.950 . S
H2392 C2397 0.950 . S
H2393 C2398 0.949 . S
H2394 C2400 0.950 . S
H2395 C2401 0.950 . S
H2396 C2402 0.949 . S
C2397 H2392 0.950 . S
C2397 C2399 1.327 . S
C2397 C2403 1.429 . S
C2398 C2390 1.574 . S
C2398 H2393 0.949 . S
C2398 C2404 1.368 . S
C2399 C2383 1.349 . S
C2399 H2391 0.950 . S
C2399 C2397 1.327 . S
C2400 C2388 1.349 . S
C2400 H2394 0.950 . S
C2400 C2401 1.327 . S
C2401 H2395 0.950 . S
C2401 C2400 1.327 . S
C2401 C2405 1.429 . S
C2402 C2385 1.574 . S
C2402 H2396 0.949 . S
C2402 C2406 1.368 . S
C2403 C2384 1.429 . S
C2403 C2397 1.429 . S
C2403 C2404 1.523 . S
C2404 C2385 1.368 . S
C2404 C2398 1.368 . S
C2404 C2403 1.523 . S
C2405 C2389 1.429 . S
C2405 C2401 1.429 . S
C2405 C2406 1.523 . S
C2406 C2390 1.368 . S
C2406 C2402 1.368 . S
C2406 C2405 1.523 . S
H2407 C2382 0.950 . S
H2408 C2384 0.950 . S
H2409 C2385 0.949 . S
H2410 C2387 0.950 . S
H2411 C2389 0.950 . S
C2412 C2413 1.349 . S
C2412 C2414 1.327 . S
C2412 H2437 0.950 . S
C2413 C2412 1.349 . S
C2413 C2429 1.349 . S
C2414 C2412 1.327 . S
C2414 C2433 1.429 . S
C2414 H2438 0.950 . S
C2415 C2432 1.574 1_545 S
C2415 C2434 1.368 . S
C2415 H2439 0.949 . S
H2416 C2420 0.949 . S
C2417 C2418 1.349 . S
C2417 C2419 1.327 . S
C2417 H2440 0.950 . S
C2418 C2417 1.349 . S
C2418 C2430 1.349 . S
C2419 C2417 1.327 . S
C2419 C2435 1.429 . S
C2419 H2441 0.950 . S
C2420 H2416 0.949 . S
C2420 C2428 1.574 1_565 S
C2420 C2436 1.368 . S
H2421 C2429 0.950 . S
H2422 C2427 0.950 . S
H2423 C2428 0.949 . S
H2424 C2430 0.950 . S
H2425 C2431 0.950 . S
H2426 C2432 0.949 . S
C2427 H2422 0.950 . S
C2427 C2429 1.327 . S
C2427 C2433 1.429 . S
C2428 C2420 1.574 1_545 S
C2428 H2423 0.949 . S
C2428 C2434 1.368 . S
C2429 C2413 1.349 . S
C2429 H2421 0.950 . S
C2429 C2427 1.327 . S
C2430 C2418 1.349 . S
C2430 H2424 0.950 . S
C2430 C2431 1.327 . S
C2431 H2425 0.950 . S
C2431 C2430 1.327 . S
C2431 C2435 1.429 . S
C2432 C2415 1.574 1_565 S
C2432 H2426 0.949 . S
C2432 C2436 1.368 . S
C2433 C2414 1.429 . S
C2433 C2427 1.429 . S
C2433 C2434 1.523 . S
C2434 C2415 1.368 . S
C2434 C2428 1.368 . S
C2434 C2433 1.523 . S
C2435 C2419 1.429 . S
C2435 C2431 1.429 . S
C2435 C2436 1.523 . S
C2436 C2420 1.368 . S
C2436 C2432 1.368 . S
C2436 C2435 1.523 . S
H2437 C2412 0.950 . S
H2438 C2414 0.950 . S
H2439 C2415 0.949 . S
H2440 C2417 0.950 . S
H2441 C2419 0.950 . S
C2442 C2443 1.349 . S
C2442 C2444 1.327 . S
C2442 H2467 0.950 . S
C2443 C2442 1.349 . S
C2443 C2459 1.349 . S
C2444 C2442 1.327 . S
C2444 C2463 1.429 . S
C2444 H2468 0.950 . S
C2445 C2462 1.574 . S
C2445 C2464 1.368 . S
C2445 H2469 0.949 . S
H2446 C2450 0.949 . S
C2447 C2448 1.349 . S
C2447 C2449 1.327 . S
C2447 H2470 0.950 . S
C2448 C2447 1.349 . S
C2448 C2460 1.349 . S
C2449 C2447 1.327 . S
C2449 C2465 1.429 . S
C2449 H2471 0.950 . S
C2450 H2446 0.949 . S
C2450 C2458 1.574 . S
C2450 C2466 1.368 . S
H2451 C2459 0.950 . S
H2452 C2457 0.950 . S
H2453 C2458 0.949 . S
H2454 C2460 0.950 . S
H2455 C2461 0.950 . S
H2456 C2462 0.949 . S
C2457 H2452 0.950 . S
C2457 C2459 1.327 . S
C2457 C2463 1.429 . S
C2458 C2450 1.574 . S
C2458 H2453 0.949 . S
C2458 C2464 1.368 . S
C2459 C2443 1.349 . S
C2459 H2451 0.950 . S
C2459 C2457 1.327 . S
C2460 C2448 1.349 . S
C2460 H2454 0.950 . S
C2460 C2461 1.327 . S
C2461 H2455 0.950 . S
C2461 C2460 1.327 . S
C2461 C2465 1.429 . S
C2462 C2445 1.574 . S
C2462 H2456 0.949 . S
C2462 C2466 1.368 . S
C2463 C2444 1.429 . S
C2463 C2457 1.429 . S
C2463 C2464 1.523 . S
C2464 C2445 1.368 . S
C2464 C2458 1.368 . S
C2464 C2463 1.523 . S
C2465 C2449 1.429 . S
C2465 C2461 1.429 . S
C2465 C2466 1.523 . S
C2466 C2450 1.368 . S
C2466 C2462 1.368 . S
C2466 C2465 1.523 . S
H2467 C2442 0.950 . S
H2468 C2444 0.950 . S
H2469 C2445 0.949 . S
H2470 C2447 0.950 . S
H2471 C2449 0.950 . S
C2472 C2473 1.349 . S
C2472 C2474 1.327 . S
C2472 H2497 0.950 . S
C2473 C2472 1.349 . S
C2473 C2489 1.349 . S
C2474 C2472 1.327 . S
C2474 C2493 1.429 . S
C2474 H2498 0.950 . S
C2475 C2492 1.574 1_545 S
C2475 C2494 1.368 . S
C2475 H2499 0.949 . S
H2476 C2480 0.949 . S
C2477 C2478 1.349 . S
C2477 C2479 1.327 . S
C2477 H2500 0.950 . S
C2478 C2477 1.349 . S
C2478 C2490 1.349 . S
C2479 C2477 1.327 . S
C2479 C2495 1.429 . S
C2479 H2501 0.950 . S
C2480 H2476 0.949 . S
C2480 C2488 1.574 1_565 S
C2480 C2496 1.368 . S
H2481 C2489 0.950 . S
H2482 C2487 0.950 . S
H2483 C2488 0.949 . S
H2484 C2490 0.950 . S
H2485 C2491 0.950 . S
H2486 C2492 0.949 . S
C2487 H2482 0.950 . S
C2487 C2489 1.327 . S
C2487 C2493 1.429 . S
C2488 C2480 1.574 1_545 S
C2488 H2483 0.949 . S
C2488 C2494 1.368 . S
C2489 C2473 1.349 . S
C2489 H2481 0.950 . S
C2489 C2487 1.327 . S
C2490 C2478 1.349 . S
C2490 H2484 0.950 . S
C2490 C2491 1.327 . S
C2491 H2485 0.950 . S
C2491 C2490 1.327 . S
C2491 C2495 1.429 . S
C2492 C2475 1.574 1_565 S
C2492 H2486 0.949 . S
C2492 C2496 1.368 . S
C2493 C2474 1.429 . S
C2493 C2487 1.429 . S
C2493 C2494 1.523 . S
C2494 C2475 1.368 . S
C2494 C2488 1.368 . S
C2494 C2493 1.523 . S
C2495 C2479 1.429 . S
C2495 C2491 1.429 . S
C2495 C2496 1.523 . S
C2496 C2480 1.368 . S
C2496 C2492 1.368 . S
C2496 C2495 1.523 . S
H2497 C2472 0.950 . S
H2498 C2474 0.950 . S
H2499 C2475 0.949 . S
H2500 C2477 0.950 . S
H2501 C2479 0.950 . S
C2502 C2503 1.349 . S
C2502 C2504 1.327 . S
C2502 H2527 0.950 . S
C2503 C2502 1.349 . S
C2503 C2519 1.349 . S
C2504 C2502 1.327 . S
C2504 C2523 1.429 . S
C2504 H2528 0.950 . S
C2505 C2522 1.574 . S
C2505 C2524 1.368 . S
C2505 H2529 0.949 . S
H2506 C2510 0.949 . S
C2507 C2508 1.349 . S
C2507 C2509 1.327 . S
C2507 H2530 0.950 . S
C2508 C2507 1.349 . S
C2508 C2520 1.349 . S
C2509 C2507 1.327 . S
C2509 C2525 1.429 . S
C2509 H2531 0.950 . S
C2510 H2506 0.949 . S
C2510 C2518 1.574 . S
C2510 C2526 1.368 . S
H2511 C2519 0.950 . S
H2512 C2517 0.950 . S
H2513 C2518 0.949 . S
H2514 C2520 0.950 . S
H2515 C2521 0.950 . S
H2516 C2522 0.949 . S
C2517 H2512 0.950 . S
C2517 C2519 1.327 . S
C2517 C2523 1.429 . S
C2518 C2510 1.574 . S
C2518 H2513 0.949 . S
C2518 C2524 1.368 . S
C2519 C2503 1.349 . S
C2519 H2511 0.950 . S
C2519 C2517 1.327 . S
C2520 C2508 1.349 . S
C2520 H2514 0.950 . S
C2520 C2521 1.327 . S
C2521 H2515 0.950 . S
C2521 C2520 1.327 . S
C2521 C2525 1.429 . S
C2522 C2505 1.574 . S
C2522 H2516 0.949 . S
C2522 C2526 1.368 . S
C2523 C2504 1.429 . S
C2523 C2517 1.429 . S
C2523 C2524 1.523 . S
C2524 C2505 1.368 . S
C2524 C2518 1.368 . S
C2524 C2523 1.523 . S
C2525 C2509 1.429 . S
C2525 C2521 1.429 . S
C2525 C2526 1.523 . S
C2526 C2510 1.368 . S
C2526 C2522 1.368 . S
C2526 C2525 1.523 . S
H2527 C2502 0.950 . S
H2528 C2504 0.950 . S
H2529 C2505 0.949 . S
H2530 C2507 0.950 . S
H2531 C2509 0.950 . S
C2532 C2533 1.349 . S
C2532 C2534 1.327 . S
C2532 H2557 0.950 . S
C2533 C2532 1.349 . S
C2533 C2549 1.349 . S
C2534 C2532 1.327 . S
C2534 C2553 1.429 . S
C2534 H2558 0.950 . S
C2535 C2552 1.574 . S
C2535 C2554 1.368 1_565 S
C2535 H2559 0.949 1_565 S
H2536 C2540 0.949 . S
C2537 C2538 1.349 . S
C2537 C2539 1.327 . S
C2537 H2560 0.950 . S
C2538 C2537 1.349 . S
C2538 C2550 1.349 . S
C2539 C2537 1.327 . S
C2539 C2555 1.429 . S
C2539 H2561 0.950 . S
C2540 H2536 0.949 . S
C2540 C2548 1.574 . S
C2540 C2556 1.368 . S
H2541 C2549 0.950 . S
H2542 C2547 0.950 . S
H2543 C2548 0.950 1_545 S
H2544 C2550 0.950 . S
H2545 C2551 0.950 . S
H2546 C2552 0.949 . S
C2547 H2542 0.950 . S
C2547 C2549 1.327 . S
C2547 C2553 1.429 . S
C2548 C2540 1.574 . S
C2548 H2543 0.950 1_565 S
C2548 C2554 1.368 1_565 S
C2549 C2533 1.349 . S
C2549 H2541 0.950 . S
C2549 C2547 1.327 . S
C2550 C2538 1.349 . S
C2550 H2544 0.950 . S
C2550 C2551 1.327 . S
C2551 H2545 0.950 . S
C2551 C2550 1.327 . S
C2551 C2555 1.429 . S
C2552 C2535 1.574 . S
C2552 H2546 0.949 . S
C2552 C2556 1.368 . S
C2553 C2534 1.429 . S
C2553 C2547 1.429 . S
C2553 C2554 1.523 . S
C2554 C2535 1.368 1_545 S
C2554 C2548 1.368 1_545 S
C2554 C2553 1.523 . S
C2555 C2539 1.429 . S
C2555 C2551 1.429 . S
C2555 C2556 1.523 . S
C2556 C2540 1.368 . S
C2556 C2552 1.368 . S
C2556 C2555 1.523 . S
H2557 C2532 0.950 . S
H2558 C2534 0.950 . S
H2559 C2535 0.949 1_545 S
H2560 C2537 0.950 . S
H2561 C2539 0.950 . S
C2562 C2563 1.349 . S
C2562 C2564 1.327 . S
C2562 H2587 0.950 . S
C2563 C2562 1.349 . S
C2563 C2579 1.349 . S
C2564 C2562 1.327 . S
C2564 C2583 1.429 . S
C2564 H2588 0.950 . S
C2565 C2582 1.574 . S
C2565 C2584 1.368 . S
C2565 H2589 0.949 . S
H2566 C2570 0.949 . S
C2567 C2568 1.349 . S
C2567 C2569 1.327 . S
C2567 H2590 0.950 . S
C2568 C2567 1.349 . S
C2568 C2580 1.349 . S
C2569 C2567 1.327 . S
C2569 C2585 1.429 . S
C2569 H2591 0.950 . S
C2570 H2566 0.949 . S
C2570 C2578 1.574 . S
C2570 C2586 1.368 . S
H2571 C2579 0.950 . S
H2572 C2577 0.950 . S
H2573 C2578 0.949 . S
H2574 C2580 0.950 . S
H2575 C2581 0.950 . S
H2576 C2582 0.949 . S
C2577 H2572 0.950 . S
C2577 C2579 1.327 . S
C2577 C2583 1.429 . S
C2578 C2570 1.574 . S
C2578 H2573 0.949 . S
C2578 C2584 1.368 . S
C2579 C2563 1.349 . S
C2579 H2571 0.950 . S
C2579 C2577 1.327 . S
C2580 C2568 1.349 . S
C2580 H2574 0.950 . S
C2580 C2581 1.327 . S
C2581 H2575 0.950 . S
C2581 C2580 1.327 . S
C2581 C2585 1.429 . S
C2582 C2565 1.574 . S
C2582 H2576 0.949 . S
C2582 C2586 1.368 . S
C2583 C2564 1.429 . S
C2583 C2577 1.429 . S
C2583 C2584 1.523 . S
C2584 C2565 1.368 . S
C2584 C2578 1.368 . S
C2584 C2583 1.523 . S
C2585 C2569 1.429 . S
C2585 C2581 1.429 . S
C2585 C2586 1.523 . S
C2586 C2570 1.368 . S
C2586 C2582 1.368 . S
C2586 C2585 1.523 . S
H2587 C2562 0.950 . S
H2588 C2564 0.950 . S
H2589 C2565 0.949 . S
H2590 C2567 0.950 . S
H2591 C2569 0.950 . S
C2592 C2593 1.349 . S
C2592 C2594 1.327 . S
C2592 H2617 0.950 . S
C2593 C2592 1.349 . S
C2593 C2609 1.349 . S
C2594 C2592 1.327 . S
C2594 C2613 1.429 . S
C2594 H2618 0.950 . S
C2595 C2612 1.574 1_556 S
C2595 C2614 1.368 . S
C2595 H2619 0.949 . S
H2596 C2600 0.949 . S
C2597 C2598 1.349 . S
C2597 C2599 1.327 . S
C2597 H2620 0.950 . S
C2598 C2597 1.349 . S
C2598 C2610 1.349 . S
C2599 C2597 1.327 . S
C2599 C2615 1.429 . S
C2599 H2621 0.950 . S
C2600 H2596 0.949 . S
C2600 C2608 1.574 1_554 S
C2600 C2616 1.368 . S
H2601 C2609 0.950 . S
H2602 C2607 0.950 . S
H2603 C2608 0.949 . S
H2604 C2610 0.950 . S
H2605 C2611 0.950 . S
H2606 C2612 0.949 . S
C2607 H2602 0.950 . S
C2607 C2609 1.327 . S
C2607 C2613 1.429 . S
C2608 C2600 1.574 1_556 S
C2608 H2603 0.949 . S
C2608 C2614 1.368 . S
C2609 C2593 1.349 . S
C2609 H2601 0.950 . S
C2609 C2607 1.327 . S
C2610 C2598 1.349 . S
C2610 H2604 0.950 . S
C2610 C2611 1.327 . S
C2611 H2605 0.950 . S
C2611 C2610 1.327 . S
C2611 C2615 1.429 . S
C2612 C2595 1.574 1_554 S
C2612 H2606 0.949 . S
C2612 C2616 1.368 . S
C2613 C2594 1.429 . S
C2613 C2607 1.429 . S
C2613 C2614 1.523 . S
C2614 C2595 1.368 . S
C2614 C2608 1.368 . S
C2614 C2613 1.523 . S
C2615 C2599 1.429 . S
C2615 C2611 1.429 . S
C2615 C2616 1.523 . S
C2616 C2600 1.368 . S
C2616 C2612 1.368 . S
C2616 C2615 1.523 . S
H2617 C2592 0.950 . S
H2618 C2594 0.950 . S
H2619 C2595 0.949 . S
H2620 C2597 0.950 . S
H2621 C2599 0.950 . S
C2622 C2623 1.349 . S
C2622 C2624 1.327 . S
C2622 H2647 0.950 . S
C2623 C2622 1.349 . S
C2623 C2639 1.349 . S
C2624 C2622 1.327 . S
C2624 C2643 1.429 . S
C2624 H2648 0.950 . S
C2625 C2642 1.574 1_556 S
C2625 C2644 1.368 . S
C2625 H2649 0.949 . S
H2626 C2630 0.949 . S
C2627 C2628 1.349 . S
C2627 C2629 1.327 . S
C2627 H2650 0.950 . S
C2628 C2627 1.349 . S
C2628 C2640 1.349 . S
C2629 C2627 1.327 . S
C2629 C2645 1.429 . S
C2629 H2651 0.950 . S
C2630 H2626 0.949 . S
C2630 C2638 1.574 1_554 S
C2630 C2646 1.368 . S
H2631 C2639 0.950 . S
H2632 C2637 0.950 . S
H2633 C2638 0.949 . S
H2634 C2640 0.950 . S
H2635 C2641 0.950 . S
H2636 C2642 0.949 . S
C2637 H2632 0.950 . S
C2637 C2639 1.327 . S
C2637 C2643 1.429 . S
C2638 C2630 1.574 1_556 S
C2638 H2633 0.949 . S
C2638 C2644 1.368 . S
C2639 C2623 1.349 . S
C2639 H2631 0.950 . S
C2639 C2637 1.327 . S
C2640 C2628 1.349 . S
C2640 H2634 0.950 . S
C2640 C2641 1.327 . S
C2641 H2635 0.950 . S
C2641 C2640 1.327 . S
C2641 C2645 1.429 . S
C2642 C2625 1.574 1_554 S
C2642 H2636 0.949 . S
C2642 C2646 1.368 . S
C2643 C2624 1.429 . S
C2643 C2637 1.429 . S
C2643 C2644 1.523 . S
C2644 C2625 1.368 . S
C2644 C2638 1.368 . S
C2644 C2643 1.523 . S
C2645 C2629 1.429 . S
C2645 C2641 1.429 . S
C2645 C2646 1.523 . S
C2646 C2630 1.368 . S
C2646 C2642 1.368 . S
C2646 C2645 1.523 . S
H2647 C2622 0.950 . S
H2648 C2624 0.950 . S
H2649 C2625 0.949 . S
H2650 C2627 0.950 . S
H2651 C2629 0.950 . S
C2652 C2653 1.349 . S
C2652 C2654 1.327 . S
C2652 H2677 0.950 . S
C2653 C2652 1.349 . S
C2653 C2669 1.349 . S
C2654 C2652 1.327 . S
C2654 C2673 1.429 . S
C2654 H2678 0.950 . S
C2655 C2672 1.574 . S
C2655 C2674 1.368 . S
C2655 H2679 0.949 . S
H2656 C2660 0.949 . S
C2657 C2658 1.349 . S
C2657 C2659 1.327 . S
C2657 H2680 0.950 . S
C2658 C2657 1.349 . S
C2658 C2670 1.349 . S
C2659 C2657 1.327 . S
C2659 C2675 1.429 . S
C2659 H2681 0.950 . S
C2660 H2656 0.949 . S
C2660 C2668 1.574 . S
C2660 C2676 1.368 . S
H2661 C2669 0.950 . S
H2662 C2667 0.950 . S
H2663 C2668 0.949 . S
H2664 C2670 0.950 . S
H2665 C2671 0.950 . S
H2666 C2672 0.949 . S
C2667 H2662 0.950 . S
C2667 C2669 1.327 . S
C2667 C2673 1.429 . S
C2668 C2660 1.574 . S
C2668 H2663 0.949 . S
C2668 C2674 1.368 . S
C2669 C2653 1.349 . S
C2669 H2661 0.950 . S
C2669 C2667 1.327 . S
C2670 C2658 1.349 . S
C2670 H2664 0.950 . S
C2670 C2671 1.327 . S
C2671 H2665 0.950 . S
C2671 C2670 1.327 . S
C2671 C2675 1.429 . S
C2672 C2655 1.574 . S
C2672 H2666 0.949 . S
C2672 C2676 1.368 . S
C2673 C2654 1.429 . S
C2673 C2667 1.429 . S
C2673 C2674 1.523 . S
C2674 C2655 1.368 . S
C2674 C2668 1.368 . S
C2674 C2673 1.523 . S
C2675 C2659 1.429 . S
C2675 C2671 1.429 . S
C2675 C2676 1.523 . S
C2676 C2660 1.368 . S
C2676 C2672 1.368 . S
C2676 C2675 1.523 . S
H2677 C2652 0.950 . S
H2678 C2654 0.950 . S
H2679 C2655 0.949 . S
H2680 C2657 0.950 . S
H2681 C2659 0.950 . S
C2682 C2683 1.349 . S
C2682 C2684 1.327 . S
C2682 H2707 0.950 . S
C2683 C2682 1.349 . S
C2683 C2699 1.349 . S
C2684 C2682 1.327 . S
C2684 C2703 1.429 1_556 S
C2684 H2708 0.950 . S
C2685 C2702 1.574 . S
C2685 C2704 1.368 . S
C2685 H2709 0.949 . S
H2686 C2690 0.949 . S
C2687 C2688 1.349 . S
C2687 C2689 1.327 . S
C2687 H2710 0.950 . S
C2688 C2687 1.349 . S
C2688 C2700 1.349 . S
C2689 C2687 1.327 . S
C2689 C2705 1.429 . S
C2689 H2711 0.950 . S
C2690 H2686 0.949 . S
C2690 C2698 1.574 . S
C2690 C2706 1.368 . S
H2691 C2699 0.950 . S
H2692 C2697 0.950 . S
H2693 C2698 0.949 . S
H2694 C2700 0.950 . S
H2695 C2701 0.950 . S
H2696 C2702 0.949 . S
C2697 H2692 0.950 . S
C2697 C2699 1.327 . S
C2697 C2703 1.429 1_556 S
C2698 C2690 1.574 . S
C2698 H2693 0.949 . S
C2698 C2704 1.368 . S
C2699 C2683 1.349 . S
C2699 H2691 0.950 . S
C2699 C2697 1.327 . S
C2700 C2688 1.349 . S
C2700 H2694 0.950 . S
C2700 C2701 1.327 . S
C2701 H2695 0.950 . S
C2701 C2700 1.327 . S
C2701 C2705 1.429 . S
C2702 C2685 1.574 . S
C2702 H2696 0.949 . S
C2702 C2706 1.368 . S
C2703 C2684 1.429 1_554 S
C2703 C2697 1.429 1_554 S
C2703 C2704 1.523 . S
C2704 C2685 1.368 . S
C2704 C2698 1.368 . S
C2704 C2703 1.523 . S
C2705 C2689 1.429 . S
C2705 C2701 1.429 . S
C2705 C2706 1.523 . S
C2706 C2690 1.368 . S
C2706 C2702 1.368 . S
C2706 C2705 1.523 . S
H2707 C2682 0.950 . S
H2708 C2684 0.950 . S
H2709 C2685 0.949 . S
H2710 C2687 0.950 . S
H2711 C2689 0.950 . S
C2712 C2713 1.349 . S
C2712 C2714 1.327 . S
C2712 H2737 0.950 . S
C2713 C2712 1.349 . S
C2713 C2729 1.349 . S
C2714 C2712 1.327 . S
C2714 C2733 1.429 . S
C2714 H2738 0.950 . S
C2715 C2732 1.574 . S
C2715 C2734 1.368 . S
C2715 H2739 0.949 . S
H2716 C2720 0.949 . S
C2717 C2718 1.349 . S
C2717 C2719 1.327 . S
C2717 H2740 0.950 . S
C2718 C2717 1.349 . S
C2718 C2730 1.349 . S
C2719 C2717 1.327 . S
C2719 C2735 1.429 . S
C2719 H2741 0.950 . S
C2720 H2716 0.949 . S
C2720 C2728 1.574 . S
C2720 C2736 1.368 . S
H2721 C2729 0.950 . S
H2722 C2727 0.950 . S
H2723 C2728 0.949 . S
H2724 C2730 0.950 . S
H2725 C2731 0.950 . S
H2726 C2732 0.949 . S
C2727 H2722 0.950 . S
C2727 C2729 1.327 . S
C2727 C2733 1.429 . S
C2728 C2720 1.574 . S
C2728 H2723 0.949 . S
C2728 C2734 1.368 . S
C2729 C2713 1.349 . S
C2729 H2721 0.950 . S
C2729 C2727 1.327 . S
C2730 C2718 1.349 . S
C2730 H2724 0.950 . S
C2730 C2731 1.327 . S
C2731 H2725 0.950 . S
C2731 C2730 1.327 . S
C2731 C2735 1.429 . S
C2732 C2715 1.574 . S
C2732 H2726 0.949 . S
C2732 C2736 1.368 . S
C2733 C2714 1.429 . S
C2733 C2727 1.429 . S
C2733 C2734 1.523 . S
C2734 C2715 1.368 . S
C2734 C2728 1.368 . S
C2734 C2733 1.523 . S
C2735 C2719 1.429 . S
C2735 C2731 1.429 . S
C2735 C2736 1.523 . S
C2736 C2720 1.368 . S
C2736 C2732 1.368 . S
C2736 C2735 1.523 . S
H2737 C2712 0.950 . S
H2738 C2714 0.950 . S
H2739 C2715 0.949 . S
H2740 C2717 0.950 . S
H2741 C2719 0.950 . S
C2742 C2743 1.349 . S
C2742 C2744 1.327 . S
C2742 H2767 0.950 . S
C2743 C2742 1.349 . S
C2743 C2759 1.349 . S
C2744 C2742 1.327 . S
C2744 C2763 1.429 . S
C2744 H2768 0.950 . S
C2745 C2762 1.574 1_556 S
C2745 C2764 1.368 . S
C2745 H2769 0.949 . S
H2746 C2750 0.949 . S
C2747 C2748 1.349 . S
C2747 C2749 1.327 . S
C2747 H2770 0.950 . S
C2748 C2747 1.349 . S
C2748 C2760 1.349 . S
C2749 C2747 1.327 . S
C2749 C2765 1.429 . S
C2749 H2771 0.950 . S
C2750 H2746 0.949 . S
C2750 C2758 1.574 1_554 S
C2750 C2766 1.368 . S
H2751 C2759 0.950 . S
H2752 C2757 0.950 . S
H2753 C2758 0.949 . S
H2754 C2760 0.950 . S
H2755 C2761 0.950 . S
H2756 C2762 0.949 . S
C2757 H2752 0.950 . S
C2757 C2759 1.327 . S
C2757 C2763 1.429 . S
C2758 C2750 1.574 1_556 S
C2758 H2753 0.949 . S
C2758 C2764 1.368 . S
C2759 C2743 1.349 . S
C2759 H2751 0.950 . S
C2759 C2757 1.327 . S
C2760 C2748 1.349 . S
C2760 H2754 0.950 . S
C2760 C2761 1.327 . S
C2761 H2755 0.950 . S
C2761 C2760 1.327 . S
C2761 C2765 1.429 . S
C2762 C2745 1.574 1_554 S
C2762 H2756 0.949 . S
C2762 C2766 1.368 . S
C2763 C2744 1.429 . S
C2763 C2757 1.429 . S
C2763 C2764 1.523 . S
C2764 C2745 1.368 . S
C2764 C2758 1.368 . S
C2764 C2763 1.523 . S
C2765 C2749 1.429 . S
C2765 C2761 1.429 . S
C2765 C2766 1.523 . S
C2766 C2750 1.368 . S
C2766 C2762 1.368 . S
C2766 C2765 1.523 . S
H2767 C2742 0.950 . S
H2768 C2744 0.950 . S
H2769 C2745 0.949 . S
H2770 C2747 0.950 . S
H2771 C2749 0.950 . S
C2772 C2773 1.349 . S
C2772 C2774 1.327 . S
C2772 H2797 0.950 . S
C2773 C2772 1.349 . S
C2773 C2789 1.349 . S
C2774 C2772 1.327 . S
C2774 C2793 1.429 . S
C2774 H2798 0.950 . S
C2775 C2792 1.574 . S
C2775 C2794 1.368 . S
C2775 H2799 0.949 . S
H2776 C2780 0.949 . S
C2777 C2778 1.349 . S
C2777 C2779 1.327 . S
C2777 H2800 0.950 . S
C2778 C2777 1.349 . S
C2778 C2790 1.349 . S
C2779 C2777 1.327 . S
C2779 C2795 1.429 . S
C2779 H2801 0.950 . S
C2780 H2776 0.949 . S
C2780 C2788 1.574 . S
C2780 C2796 1.368 . S
H2781 C2789 0.950 . S
H2782 C2787 0.950 . S
H2783 C2788 0.949 . S
H2784 C2790 0.950 . S
H2785 C2791 0.950 . S
H2786 C2792 0.949 . S
C2787 H2782 0.950 . S
C2787 C2789 1.327 . S
C2787 C2793 1.429 . S
C2788 C2780 1.574 . S
C2788 H2783 0.949 . S
C2788 C2794 1.368 . S
C2789 C2773 1.349 . S
C2789 H2781 0.950 . S
C2789 C2787 1.327 . S
C2790 C2778 1.349 . S
C2790 H2784 0.950 . S
C2790 C2791 1.327 . S
C2791 H2785 0.950 . S
C2791 C2790 1.327 . S
C2791 C2795 1.429 . S
C2792 C2775 1.574 . S
C2792 H2786 0.949 . S
C2792 C2796 1.368 . S
C2793 C2774 1.429 . S
C2793 C2787 1.429 . S
C2793 C2794 1.523 . S
C2794 C2775 1.368 . S
C2794 C2788 1.368 . S
C2794 C2793 1.523 . S
C2795 C2779 1.429 . S
C2795 C2791 1.429 . S
C2795 C2796 1.523 . S
C2796 C2780 1.368 . S
C2796 C2792 1.368 . S
C2796 C2795 1.523 . S
H2797 C2772 0.950 . S
H2798 C2774 0.950 . S
H2799 C2775 0.949 . S
H2800 C2777 0.950 . S
H2801 C2779 0.950 . S
C2802 C2803 1.349 . S
C2802 C2804 1.327 . S
C2802 H2827 0.950 . S
C2803 C2802 1.349 . S
C2803 C2819 1.349 . S
C2804 C2802 1.327 . S
C2804 C2823 1.429 . S
C2804 H2828 0.950 . S
C2805 C2822 1.574 . S
C2805 C2824 1.368 . S
C2805 H2829 0.949 . S
H2806 C2810 0.949 . S
C2807 C2808 1.349 . S
C2807 C2809 1.327 . S
C2807 H2830 0.950 . S
C2808 C2807 1.349 . S
C2808 C2820 1.349 . S
C2809 C2807 1.327 . S
C2809 C2825 1.429 . S
C2809 H2831 0.950 . S
C2810 H2806 0.949 . S
C2810 C2818 1.574 . S
C2810 C2826 1.368 . S
H2811 C2819 0.950 . S
H2812 C2817 0.950 . S
H2813 C2818 0.949 . S
H2814 C2820 0.950 . S
H2815 C2821 0.950 . S
H2816 C2822 0.949 . S
C2817 H2812 0.950 . S
C2817 C2819 1.327 . S
C2817 C2823 1.429 . S
C2818 C2810 1.574 . S
C2818 H2813 0.949 . S
C2818 C2824 1.368 . S
C2819 C2803 1.349 . S
C2819 H2811 0.950 . S
C2819 C2817 1.327 . S
C2820 C2808 1.349 . S
C2820 H2814 0.950 . S
C2820 C2821 1.327 . S
C2821 H2815 0.950 . S
C2821 C2820 1.327 . S
C2821 C2825 1.429 . S
C2822 C2805 1.574 . S
C2822 H2816 0.949 . S
C2822 C2826 1.368 . S
C2823 C2804 1.429 . S
C2823 C2817 1.429 . S
C2823 C2824 1.523 . S
C2824 C2805 1.368 . S
C2824 C2818 1.368 . S
C2824 C2823 1.523 . S
C2825 C2809 1.429 . S
C2825 C2821 1.429 . S
C2825 C2826 1.523 . S
C2826 C2810 1.368 . S
C2826 C2822 1.368 . S
C2826 C2825 1.523 . S
H2827 C2802 0.950 . S
H2828 C2804 0.950 . S
H2829 C2805 0.949 . S
H2830 C2807 0.950 . S
H2831 C2809 0.950 . S
C2832 C2833 1.349 . S
C2832 C2834 1.327 . S
C2832 H2857 0.950 . S
C2833 C2832 1.349 . S
C2833 C2849 1.349 . S
C2834 C2832 1.327 . S
C2834 C2853 1.429 . S
C2834 H2858 0.950 . S
C2835 C2852 1.574 . S
C2835 C2854 1.368 . S
C2835 H2859 0.949 . S
H2836 C2840 0.949 . S
C2837 C2838 1.349 . S
C2837 C2839 1.327 . S
C2837 H2860 0.950 . S
C2838 C2837 1.349 . S
C2838 C2850 1.349 . S
C2839 C2837 1.327 . S
C2839 C2855 1.429 . S
C2839 H2861 0.950 . S
C2840 H2836 0.949 . S
C2840 C2848 1.574 . S
C2840 C2856 1.368 . S
H2841 C2849 0.950 . S
H2842 C2847 0.950 . S
H2843 C2848 0.949 . S
H2844 C2850 0.950 . S
H2845 C2851 0.950 . S
H2846 C2852 0.949 . S
C2847 H2842 0.950 . S
C2847 C2849 1.327 . S
C2847 C2853 1.429 . S
C2848 C2840 1.574 . S
C2848 H2843 0.949 . S
C2848 C2854 1.368 . S
C2849 C2833 1.349 . S
C2849 H2841 0.950 . S
C2849 C2847 1.327 . S
C2850 C2838 1.349 . S
C2850 H2844 0.950 . S
C2850 C2851 1.327 . S
C2851 H2845 0.950 . S
C2851 C2850 1.327 . S
C2851 C2855 1.429 . S
C2852 C2835 1.574 . S
C2852 H2846 0.949 . S
C2852 C2856 1.368 . S
C2853 C2834 1.429 . S
C2853 C2847 1.429 . S
C2853 C2854 1.523 . S
C2854 C2835 1.368 . S
C2854 C2848 1.368 . S
C2854 C2853 1.523 . S
C2855 C2839 1.429 . S
C2855 C2851 1.429 . S
C2855 C2856 1.523 . S
C2856 C2840 1.368 . S
C2856 C2852 1.368 . S
C2856 C2855 1.523 . S
H2857 C2832 0.950 . S
H2858 C2834 0.950 . S
H2859 C2835 0.949 . S
H2860 C2837 0.950 . S
H2861 C2839 0.950 . S
C2862 C2863 1.349 . S
C2862 C2864 1.327 . S
C2862 H2887 0.950 . S
C2863 C2862 1.349 . S
C2863 C2879 1.349 . S
C2864 C2862 1.327 . S
C2864 C2883 1.429 . S
C2864 H2888 0.950 . S
C2865 C2882 1.574 . S
C2865 C2884 1.368 . S
C2865 H2889 0.949 . S
H2866 C2870 0.949 . S
C2867 C2868 1.349 . S
C2867 C2869 1.327 . S
C2867 H2890 0.950 . S
C2868 C2867 1.349 . S
C2868 C2880 1.349 . S
C2869 C2867 1.327 . S
C2869 C2885 1.429 . S
C2869 H2891 0.950 . S
C2870 H2866 0.949 . S
C2870 C2878 1.574 . S
C2870 C2886 1.368 . S
H2871 C2879 0.950 . S
H2872 C2877 0.950 . S
H2873 C2878 0.949 . S
H2874 C2880 0.950 . S
H2875 C2881 0.950 . S
H2876 C2882 0.949 . S
C2877 H2872 0.950 . S
C2877 C2879 1.327 . S
C2877 C2883 1.429 . S
C2878 C2870 1.574 . S
C2878 H2873 0.949 . S
C2878 C2884 1.368 . S
C2879 C2863 1.349 . S
C2879 H2871 0.950 . S
C2879 C2877 1.327 . S
C2880 C2868 1.349 . S
C2880 H2874 0.950 . S
C2880 C2881 1.327 . S
C2881 H2875 0.950 . S
C2881 C2880 1.327 . S
C2881 C2885 1.429 . S
C2882 C2865 1.574 . S
C2882 H2876 0.949 . S
C2882 C2886 1.368 . S
C2883 C2864 1.429 . S
C2883 C2877 1.429 . S
C2883 C2884 1.523 . S
C2884 C2865 1.368 . S
C2884 C2878 1.368 . S
C2884 C2883 1.523 . S
C2885 C2869 1.429 . S
C2885 C2881 1.429 . S
C2885 C2886 1.523 . S
C2886 C2870 1.368 . S
C2886 C2882 1.368 . S
C2886 C2885 1.523 . S
H2887 C2862 0.950 . S
H2888 C2864 0.950 . S
H2889 C2865 0.949 . S
H2890 C2867 0.950 . S
H2891 C2869 0.950 . S
C2892 C2893 1.349 . S
C2892 C2894 1.327 . S
C2892 H2917 0.950 . S
C2893 C2892 1.349 . S
C2893 C2909 1.349 . S
C2894 C2892 1.327 . S
C2894 C2913 1.429 . S
C2894 H2918 0.950 . S
C2895 C2912 1.574 . S
C2895 C2914 1.368 . S
C2895 H2919 0.949 . S
H2896 C2900 0.949 . S
C2897 C2898 1.349 . S
C2897 C2899 1.327 . S
C2897 H2920 0.950 . S
C2898 C2897 1.349 . S
C2898 C2910 1.349 . S
C2899 C2897 1.327 . S
C2899 C2915 1.429 . S
C2899 H2921 0.950 . S
C2900 H2896 0.949 . S
C2900 C2908 1.574 . S
C2900 C2916 1.368 . S
H2901 C2909 0.950 . S
H2902 C2907 0.950 . S
H2903 C2908 0.949 . S
H2904 C2910 0.950 . S
H2905 C2911 0.950 . S
H2906 C2912 0.949 . S
C2907 H2902 0.950 . S
C2907 C2909 1.327 . S
C2907 C2913 1.429 . S
C2908 C2900 1.574 . S
C2908 H2903 0.949 . S
C2908 C2914 1.368 . S
C2909 C2893 1.349 . S
C2909 H2901 0.950 . S
C2909 C2907 1.327 . S
C2910 C2898 1.349 . S
C2910 H2904 0.950 . S
C2910 C2911 1.327 . S
C2911 H2905 0.950 . S
C2911 C2910 1.327 . S
C2911 C2915 1.429 . S
C2912 C2895 1.574 . S
C2912 H2906 0.949 . S
C2912 C2916 1.368 . S
C2913 C2894 1.429 . S
C2913 C2907 1.429 . S
C2913 C2914 1.523 . S
C2914 C2895 1.368 . S
C2914 C2908 1.368 . S
C2914 C2913 1.523 . S
C2915 C2899 1.429 . S
C2915 C2911 1.429 . S
C2915 C2916 1.523 . S
C2916 C2900 1.368 . S
C2916 C2912 1.368 . S
C2916 C2915 1.523 . S
H2917 C2892 0.950 . S
H2918 C2894 0.950 . S
H2919 C2895 0.949 . S
H2920 C2897 0.950 . S
H2921 C2899 0.950 . S
C2922 C2923 1.349 . S
C2922 C2924 1.327 . S
C2922 H2947 0.950 . S
C2923 C2922 1.349 . S
C2923 C2939 1.349 . S
C2924 C2922 1.327 . S
C2924 C2943 1.429 . S
C2924 H2948 0.950 . S
C2925 C2942 1.574 . S
C2925 C2944 1.368 . S
C2925 H2949 0.949 . S
H2926 C2930 0.949 . S
C2927 C2928 1.349 . S
C2927 C2929 1.327 . S
C2927 H2950 0.950 . S
C2928 C2927 1.349 . S
C2928 C2940 1.349 . S
C2929 C2927 1.327 . S
C2929 C2945 1.429 . S
C2929 H2951 0.950 . S
C2930 H2926 0.949 . S
C2930 C2938 1.574 . S
C2930 C2946 1.368 . S
H2931 C2939 0.950 . S
H2932 C2937 0.950 . S
H2933 C2938 0.949 . S
H2934 C2940 0.950 . S
H2935 C2941 0.950 . S
H2936 C2942 0.949 . S
C2937 H2932 0.950 . S
C2937 C2939 1.327 . S
C2937 C2943 1.429 . S
C2938 C2930 1.574 . S
C2938 H2933 0.949 . S
C2938 C2944 1.368 . S
C2939 C2923 1.349 . S
C2939 H2931 0.950 . S
C2939 C2937 1.327 . S
C2940 C2928 1.349 . S
C2940 H2934 0.950 . S
C2940 C2941 1.327 . S
C2941 H2935 0.950 . S
C2941 C2940 1.327 . S
C2941 C2945 1.429 . S
C2942 C2925 1.574 . S
C2942 H2936 0.949 . S
C2942 C2946 1.368 . S
C2943 C2924 1.429 . S
C2943 C2937 1.429 . S
C2943 C2944 1.523 . S
C2944 C2925 1.368 . S
C2944 C2938 1.368 . S
C2944 C2943 1.523 . S
C2945 C2929 1.429 . S
C2945 C2941 1.429 . S
C2945 C2946 1.523 . S
C2946 C2930 1.368 . S
C2946 C2942 1.368 . S
C2946 C2945 1.523 . S
H2947 C2922 0.950 . S
H2948 C2924 0.950 . S
H2949 C2925 0.949 . S
H2950 C2927 0.950 . S
H2951 C2929 0.950 . S
C2952 C2953 1.349 . S
C2952 C2954 1.327 . S
C2952 H2977 0.950 . S
C2953 C2952 1.349 . S
C2953 C2969 1.349 . S
C2954 C2952 1.327 . S
C2954 C2973 1.429 . S
C2954 H2978 0.950 . S
C2955 C2972 1.574 . S
C2955 C2974 1.368 . S
C2955 H2979 0.949 . S
H2956 C2960 0.949 . S
C2957 C2958 1.349 . S
C2957 C2959 1.327 . S
C2957 H2980 0.950 . S
C2958 C2957 1.349 . S
C2958 C2970 1.349 . S
C2959 C2957 1.327 . S
C2959 C2975 1.429 . S
C2959 H2981 0.950 . S
C2960 H2956 0.949 . S
C2960 C2968 1.574 . S
C2960 C2976 1.368 . S
H2961 C2969 0.950 . S
H2962 C2967 0.950 . S
H2963 C2968 0.949 . S
H2964 C2970 0.950 . S
H2965 C2971 0.950 . S
H2966 C2972 0.949 . S
C2967 H2962 0.950 . S
C2967 C2969 1.327 . S
C2967 C2973 1.429 . S
C2968 C2960 1.574 . S
C2968 H2963 0.949 . S
C2968 C2974 1.368 . S
C2969 C2953 1.349 . S
C2969 H2961 0.950 . S
C2969 C2967 1.327 . S
C2970 C2958 1.349 . S
C2970 H2964 0.950 . S
C2970 C2971 1.327 . S
C2971 H2965 0.950 . S
C2971 C2970 1.327 . S
C2971 C2975 1.429 . S
C2972 C2955 1.574 . S
C2972 H2966 0.949 . S
C2972 C2976 1.368 . S
C2973 C2954 1.429 . S
C2973 C2967 1.429 . S
C2973 C2974 1.523 . S
C2974 C2955 1.368 . S
C2974 C2968 1.368 . S
C2974 C2973 1.523 . S
C2975 C2959 1.429 . S
C2975 C2971 1.429 . S
C2975 C2976 1.523 . S
C2976 C2960 1.368 . S
C2976 C2972 1.368 . S
C2976 C2975 1.523 . S
H2977 C2952 0.950 . S
H2978 C2954 0.950 . S
H2979 C2955 0.949 . S
H2980 C2957 0.950 . S
H2981 C2959 0.950 . S
C2982 C2983 1.349 . S
C2982 C2984 1.327 . S
C2982 H3007 0.950 . S
C2983 C2982 1.349 . S
C2983 C2999 1.349 . S
C2984 C2982 1.327 . S
C2984 C3003 1.429 . S
C2984 H3008 0.950 . S
C2985 C3002 1.574 . S
C2985 C3004 1.368 . S
C2985 H3009 0.949 . S
H2986 C2990 0.949 . S
C2987 C2988 1.349 . S
C2987 C2989 1.327 . S
C2987 H3010 0.950 . S
C2988 C2987 1.349 . S
C2988 C3000 1.349 . S
C2989 C2987 1.327 . S
C2989 C3005 1.429 . S
C2989 H3011 0.950 . S
C2990 H2986 0.949 . S
C2990 C2998 1.574 . S
C2990 C3006 1.368 . S
H2991 C2999 0.950 . S
H2992 C2997 0.950 . S
H2993 C2998 0.949 . S
H2994 C3000 0.950 . S
H2995 C3001 0.950 . S
H2996 C3002 0.949 . S
C2997 H2992 0.950 . S
C2997 C2999 1.327 . S
C2997 C3003 1.429 . S
C2998 C2990 1.574 . S
C2998 H2993 0.949 . S
C2998 C3004 1.368 . S
C2999 C2983 1.349 . S
C2999 H2991 0.950 . S
C2999 C2997 1.327 . S
C3000 C2988 1.349 . S
C3000 H2994 0.950 . S
C3000 C3001 1.327 . S
C3001 H2995 0.950 . S
C3001 C3000 1.327 . S
C3001 C3005 1.429 . S
C3002 C2985 1.574 . S
C3002 H2996 0.949 . S
C3002 C3006 1.368 . S
C3003 C2984 1.429 . S
C3003 C2997 1.429 . S
C3003 C3004 1.523 . S
C3004 C2985 1.368 . S
C3004 C2998 1.368 . S
C3004 C3003 1.523 . S
C3005 C2989 1.429 . S
C3005 C3001 1.429 . S
C3005 C3006 1.523 . S
C3006 C2990 1.368 . S
C3006 C3002 1.368 . S
C3006 C3005 1.523 . S
H3007 C2982 0.950 . S
H3008 C2984 0.950 . S
H3009 C2985 0.949 . S
H3010 C2987 0.950 . S
H3011 C2989 0.950 . S
C3012 C3013 1.349 . S
C3012 C3014 1.327 . S
C3012 H3037 0.950 . S
C3013 C3012 1.349 . S
C3013 C3029 1.349 . S
C3014 C3012 1.327 . S
C3014 C3033 1.429 . S
C3014 H3038 0.950 . S
C3015 C3032 1.574 . S
C3015 C3034 1.368 . S
C3015 H3039 0.949 . S
H3016 C3020 0.949 . S
C3017 C3018 1.349 . S
C3017 C3019 1.327 . S
C3017 H3040 0.950 . S
C3018 C3017 1.349 . S
C3018 C3030 1.349 . S
C3019 C3017 1.327 . S
C3019 C3035 1.429 . S
C3019 H3041 0.950 . S
C3020 H3016 0.949 . S
C3020 C3028 1.574 . S
C3020 C3036 1.368 . S
H3021 C3029 0.950 . S
H3022 C3027 0.950 . S
H3023 C3028 0.949 . S
H3024 C3030 0.950 . S
H3025 C3031 0.950 . S
H3026 C3032 0.949 . S
C3027 H3022 0.950 . S
C3027 C3029 1.327 . S
C3027 C3033 1.429 . S
C3028 C3020 1.574 . S
C3028 H3023 0.949 . S
C3028 C3034 1.368 . S
C3029 C3013 1.349 . S
C3029 H3021 0.950 . S
C3029 C3027 1.327 . S
C3030 C3018 1.349 . S
C3030 H3024 0.950 . S
C3030 C3031 1.327 . S
C3031 H3025 0.950 . S
C3031 C3030 1.327 . S
C3031 C3035 1.429 . S
C3032 C3015 1.574 . S
C3032 H3026 0.949 . S
C3032 C3036 1.368 . S
C3033 C3014 1.429 . S
C3033 C3027 1.429 . S
C3033 C3034 1.523 . S
C3034 C3015 1.368 . S
C3034 C3028 1.368 . S
C3034 C3033 1.523 . S
C3035 C3019 1.429 . S
C3035 C3031 1.429 . S
C3035 C3036 1.523 . S
C3036 C3020 1.368 . S
C3036 C3032 1.368 . S
C3036 C3035 1.523 . S
H3037 C3012 0.950 . S
H3038 C3014 0.950 . S
H3039 C3015 0.949 . S
H3040 C3017 0.950 . S
H3041 C3019 0.950 . S
C3042 C3043 1.349 . S
C3042 C3044 1.327 . S
C3042 H3067 0.950 . S
C3043 C3042 1.349 . S
C3043 C3059 1.349 . S
C3044 C3042 1.327 . S
C3044 C3063 1.429 . S
C3044 H3068 0.950 . S
C3045 C3062 1.574 . S
C3045 C3064 1.368 . S
C3045 H3069 0.949 . S
H3046 C3050 0.949 . S
C3047 C3048 1.349 . S
C3047 C3049 1.327 . S
C3047 H3070 0.950 . S
C3048 C3047 1.349 . S
C3048 C3060 1.349 . S
C3049 C3047 1.327 . S
C3049 C3065 1.429 . S
C3049 H3071 0.950 . S
C3050 H3046 0.949 . S
C3050 C3058 1.574 . S
C3050 C3066 1.368 . S
H3051 C3059 0.950 . S
H3052 C3057 0.950 . S
H3053 C3058 0.949 . S
H3054 C3060 0.950 . S
H3055 C3061 0.950 . S
H3056 C3062 0.949 . S
C3057 H3052 0.950 . S
C3057 C3059 1.327 . S
C3057 C3063 1.429 . S
C3058 C3050 1.574 . S
C3058 H3053 0.949 . S
C3058 C3064 1.368 . S
C3059 C3043 1.349 . S
C3059 H3051 0.950 . S
C3059 C3057 1.327 . S
C3060 C3048 1.349 . S
C3060 H3054 0.950 . S
C3060 C3061 1.327 . S
C3061 H3055 0.950 . S
C3061 C3060 1.327 . S
C3061 C3065 1.429 . S
C3062 C3045 1.574 . S
C3062 H3056 0.949 . S
C3062 C3066 1.368 . S
C3063 C3044 1.429 . S
C3063 C3057 1.429 . S
C3063 C3064 1.523 . S
C3064 C3045 1.368 . S
C3064 C3058 1.368 . S
C3064 C3063 1.523 . S
C3065 C3049 1.429 . S
C3065 C3061 1.429 . S
C3065 C3066 1.523 . S
C3066 C3050 1.368 . S
C3066 C3062 1.368 . S
C3066 C3065 1.523 . S
H3067 C3042 0.950 . S
H3068 C3044 0.950 . S
H3069 C3045 0.949 . S
H3070 C3047 0.950 . S
H3071 C3049 0.950 . S
C3072 C3073 1.349 . S
C3072 C3074 1.327 . S
C3072 H3097 0.950 . S
C3073 C3072 1.349 . S
C3073 C3089 1.349 . S
C3074 C3072 1.327 . S
C3074 C3093 1.429 . S
C3074 H3098 0.950 . S
C3075 C3092 1.574 . S
C3075 C3094 1.368 . S
C3075 H3099 0.949 . S
H3076 C3080 0.949 . S
C3077 C3078 1.349 . S
C3077 C3079 1.327 . S
C3077 H3100 0.950 . S
C3078 C3077 1.349 . S
C3078 C3090 1.349 . S
C3079 C3077 1.327 . S
C3079 C3095 1.429 . S
C3079 H3101 0.950 . S
C3080 H3076 0.949 . S
C3080 C3088 1.574 . S
C3080 C3096 1.368 . S
H3081 C3089 0.950 . S
H3082 C3087 0.950 . S
H3083 C3088 0.949 . S
H3084 C3090 0.950 . S
H3085 C3091 0.950 . S
H3086 C3092 0.949 . S
C3087 H3082 0.950 . S
C3087 C3089 1.327 . S
C3087 C3093 1.429 . S
C3088 C3080 1.574 . S
C3088 H3083 0.949 . S
C3088 C3094 1.368 . S
C3089 C3073 1.349 . S
C3089 H3081 0.950 . S
C3089 C3087 1.327 . S
C3090 C3078 1.349 . S
C3090 H3084 0.950 . S
C3090 C3091 1.327 . S
C3091 H3085 0.950 . S
C3091 C3090 1.327 . S
C3091 C3095 1.429 . S
C3092 C3075 1.574 . S
C3092 H3086 0.949 . S
C3092 C3096 1.368 . S
C3093 C3074 1.429 . S
C3093 C3087 1.429 . S
C3093 C3094 1.523 . S
C3094 C3075 1.368 . S
C3094 C3088 1.368 . S
C3094 C3093 1.523 . S
C3095 C3079 1.429 . S
C3095 C3091 1.429 . S
C3095 C3096 1.523 . S
C3096 C3080 1.368 . S
C3096 C3092 1.368 . S
C3096 C3095 1.523 . S
H3097 C3072 0.950 . S
H3098 C3074 0.950 . S
H3099 C3075 0.949 . S
H3100 C3077 0.950 . S
H3101 C3079 0.950 . S
C3102 C3103 1.349 . S
C3102 C3104 1.327 . S
C3102 H3127 0.950 . S
C3103 C3102 1.349 . S
C3103 C3119 1.349 . S
C3104 C3102 1.327 . S
C3104 C3123 1.429 . S
C3104 H3128 0.950 . S
C3105 C3122 1.574 . S
C3105 C3124 1.368 . S
C3105 H3129 0.949 . S
H3106 C3110 0.949 . S
C3107 C3108 1.349 . S
C3107 C3109 1.327 . S
C3107 H3130 0.950 . S
C3108 C3107 1.349 . S
C3108 C3120 1.349 . S
C3109 C3107 1.327 . S
C3109 C3125 1.429 . S
C3109 H3131 0.950 . S
C3110 H3106 0.949 . S
C3110 C3118 1.574 . S
C3110 C3126 1.368 . S
H3111 C3119 0.950 . S
H3112 C3117 0.950 . S
H3113 C3118 0.949 . S
H3114 C3120 0.950 . S
H3115 C3121 0.950 . S
H3116 C3122 0.949 . S
C3117 H3112 0.950 . S
C3117 C3119 1.327 . S
C3117 C3123 1.429 . S
C3118 C3110 1.574 . S
C3118 H3113 0.949 . S
C3118 C3124 1.368 . S
C3119 C3103 1.349 . S
C3119 H3111 0.950 . S
C3119 C3117 1.327 . S
C3120 C3108 1.349 . S
C3120 H3114 0.950 . S
C3120 C3121 1.327 . S
C3121 H3115 0.950 . S
C3121 C3120 1.327 . S
C3121 C3125 1.429 . S
C3122 C3105 1.574 . S
C3122 H3116 0.949 . S
C3122 C3126 1.368 . S
C3123 C3104 1.429 . S
C3123 C3117 1.429 . S
C3123 C3124 1.523 . S
C3124 C3105 1.368 . S
C3124 C3118 1.368 . S
C3124 C3123 1.523 . S
C3125 C3109 1.429 . S
C3125 C3121 1.429 . S
C3125 C3126 1.523 . S
C3126 C3110 1.368 . S
C3126 C3122 1.368 . S
C3126 C3125 1.523 . S
H3127 C3102 0.950 . S
H3128 C3104 0.950 . S
H3129 C3105 0.949 . S
H3130 C3107 0.950 . S
H3131 C3109 0.950 . S
C3132 C3133 1.349 . S
C3132 C3134 1.327 . S
C3132 H3157 0.950 . S
C3133 C3132 1.349 . S
C3133 C3149 1.349 . S
C3134 C3132 1.327 . S
C3134 C3153 1.429 . S
C3134 H3158 0.950 . S
C3135 C3152 1.574 . S
C3135 C3154 1.368 . S
C3135 H3159 0.949 . S
H3136 C3140 0.949 . S
C3137 C3138 1.349 . S
C3137 C3139 1.327 . S
C3137 H3160 0.950 . S
C3138 C3137 1.349 . S
C3138 C3150 1.349 . S
C3139 C3137 1.327 . S
C3139 C3155 1.429 . S
C3139 H3161 0.950 . S
C3140 H3136 0.949 . S
C3140 C3148 1.574 . S
C3140 C3156 1.368 . S
H3141 C3149 0.950 . S
H3142 C3147 0.950 . S
H3143 C3148 0.949 . S
H3144 C3150 0.950 . S
H3145 C3151 0.950 . S
H3146 C3152 0.949 . S
C3147 H3142 0.950 . S
C3147 C3149 1.327 . S
C3147 C3153 1.429 . S
C3148 C3140 1.574 . S
C3148 H3143 0.949 . S
C3148 C3154 1.368 . S
C3149 C3133 1.349 . S
C3149 H3141 0.950 . S
C3149 C3147 1.327 . S
C3150 C3138 1.349 . S
C3150 H3144 0.950 . S
C3150 C3151 1.327 . S
C3151 H3145 0.950 . S
C3151 C3150 1.327 . S
C3151 C3155 1.429 . S
C3152 C3135 1.574 . S
C3152 H3146 0.949 . S
C3152 C3156 1.368 . S
C3153 C3134 1.429 . S
C3153 C3147 1.429 . S
C3153 C3154 1.523 . S
C3154 C3135 1.368 . S
C3154 C3148 1.368 . S
C3154 C3153 1.523 . S
C3155 C3139 1.429 . S
C3155 C3151 1.429 . S
C3155 C3156 1.523 . S
C3156 C3140 1.368 . S
C3156 C3152 1.368 . S
C3156 C3155 1.523 . S
H3157 C3132 0.950 . S
H3158 C3134 0.950 . S
H3159 C3135 0.949 . S
H3160 C3137 0.950 . S
H3161 C3139 0.950 . S
C3162 C3163 1.349 . S
C3162 C3164 1.327 . S
C3162 H3187 0.950 . S
C3163 C3162 1.349 . S
C3163 C3179 1.349 . S
C3164 C3162 1.327 . S
C3164 C3183 1.429 . S
C3164 H3188 0.950 . S
C3165 C3182 1.574 . S
C3165 C3184 1.368 . S
C3165 H3189 0.949 . S
H3166 C3170 0.949 . S
C3167 C3168 1.349 . S
C3167 C3169 1.327 . S
C3167 H3190 0.950 . S
C3168 C3167 1.349 . S
C3168 C3180 1.349 . S
C3169 C3167 1.327 . S
C3169 C3185 1.429 . S
C3169 H3191 0.950 . S
C3170 H3166 0.949 . S
C3170 C3178 1.574 . S
C3170 C3186 1.368 . S
H3171 C3179 0.950 . S
H3172 C3177 0.950 . S
H3173 C3178 0.949 . S
H3174 C3180 0.950 . S
H3175 C3181 0.950 . S
H3176 C3182 0.949 . S
C3177 H3172 0.950 . S
C3177 C3179 1.327 . S
C3177 C3183 1.429 . S
C3178 C3170 1.574 . S
C3178 H3173 0.949 . S
C3178 C3184 1.368 . S
C3179 C3163 1.349 . S
C3179 H3171 0.950 . S
C3179 C3177 1.327 . S
C3180 C3168 1.349 . S
C3180 H3174 0.950 . S
C3180 C3181 1.327 . S
C3181 H3175 0.950 . S
C3181 C3180 1.327 . S
C3181 C3185 1.429 . S
C3182 C3165 1.574 . S
C3182 H3176 0.949 . S
C3182 C3186 1.368 . S
C3183 C3164 1.429 . S
C3183 C3177 1.429 . S
C3183 C3184 1.523 . S
C3184 C3165 1.368 . S
C3184 C3178 1.368 . S
C3184 C3183 1.523 . S
C3185 C3169 1.429 . S
C3185 C3181 1.429 . S
C3185 C3186 1.523 . S
C3186 C3170 1.368 . S
C3186 C3182 1.368 . S
C3186 C3185 1.523 . S
H3187 C3162 0.950 . S
H3188 C3164 0.950 . S
H3189 C3165 0.949 . S
H3190 C3167 0.950 . S
H3191 C3169 0.950 . S
C3192 C3193 1.349 . S
C3192 C3194 1.327 . S
C3192 H3217 0.950 . S
C3193 C3192 1.349 . S
C3193 C3209 1.349 . S
C3194 C3192 1.327 . S
C3194 C3213 1.429 . S
C3194 H3218 0.950 . S
C3195 C3212 1.574 . S
C3195 C3214 1.368 . S
C3195 H3219 0.949 . S
H3196 C3200 0.949 . S
C3197 C3198 1.349 . S
C3197 C3199 1.327 . S
C3197 H3220 0.950 . S
C3198 C3197 1.349 . S
C3198 C3210 1.349 . S
C3199 C3197 1.327 . S
C3199 C3215 1.429 . S
C3199 H3221 0.950 . S
C3200 H3196 0.949 . S
C3200 C3208 1.574 . S
C3200 C3216 1.368 . S
H3201 C3209 0.950 . S
H3202 C3207 0.950 . S
H3203 C3208 0.949 . S
H3204 C3210 0.950 . S
H3205 C3211 0.950 . S
H3206 C3212 0.949 . S
C3207 H3202 0.950 . S
C3207 C3209 1.327 . S
C3207 C3213 1.429 . S
C3208 C3200 1.574 . S
C3208 H3203 0.949 . S
C3208 C3214 1.368 . S
C3209 C3193 1.349 . S
C3209 H3201 0.950 . S
C3209 C3207 1.327 . S
C3210 C3198 1.349 . S
C3210 H3204 0.950 . S
C3210 C3211 1.327 . S
C3211 H3205 0.950 . S
C3211 C3210 1.327 . S
C3211 C3215 1.429 . S
C3212 C3195 1.574 . S
C3212 H3206 0.949 . S
C3212 C3216 1.368 . S
C3213 C3194 1.429 . S
C3213 C3207 1.429 . S
C3213 C3214 1.523 . S
C3214 C3195 1.368 . S
C3214 C3208 1.368 . S
C3214 C3213 1.523 . S
C3215 C3199 1.429 . S
C3215 C3211 1.429 . S
C3215 C3216 1.523 . S
C3216 C3200 1.368 . S
C3216 C3212 1.368 . S
C3216 C3215 1.523 . S
H3217 C3192 0.950 . S
H3218 C3194 0.950 . S
H3219 C3195 0.949 . S
H3220 C3197 0.950 . S
H3221 C3199 0.950 . S
C3222 C3223 1.349 . S
C3222 C3224 1.327 . S
C3222 H3247 0.950 . S
C3223 C3222 1.349 . S
C3223 C3239 1.349 . S
C3224 C3222 1.327 . S
C3224 C3243 1.429 . S
C3224 H3248 0.950 . S
C3225 C3242 1.574 . S
C3225 C3244 1.368 . S
C3225 H3249 0.949 . S
H3226 C3230 0.949 . S
C3227 C3228 1.349 . S
C3227 C3229 1.327 . S
C3227 H3250 0.950 . S
C3228 C3227 1.349 . S
C3228 C3240 1.349 . S
C3229 C3227 1.327 . S
C3229 C3245 1.429 . S
C3229 H3251 0.950 . S
C3230 H3226 0.949 . S
C3230 C3238 1.574 . S
C3230 C3246 1.368 . S
H3231 C3239 0.950 . S
H3232 C3237 0.950 . S
H3233 C3238 0.949 . S
H3234 C3240 0.950 . S
H3235 C3241 0.950 . S
H3236 C3242 0.949 . S
C3237 H3232 0.950 . S
C3237 C3239 1.327 . S
C3237 C3243 1.429 . S
C3238 C3230 1.574 . S
C3238 H3233 0.949 . S
C3238 C3244 1.368 . S
C3239 C3223 1.349 . S
C3239 H3231 0.950 . S
C3239 C3237 1.327 . S
C3240 C3228 1.349 . S
C3240 H3234 0.950 . S
C3240 C3241 1.327 . S
C3241 H3235 0.950 . S
C3241 C3240 1.327 . S
C3241 C3245 1.429 . S
C3242 C3225 1.574 . S
C3242 H3236 0.949 . S
C3242 C3246 1.368 . S
C3243 C3224 1.429 . S
C3243 C3237 1.429 . S
C3243 C3244 1.523 . S
C3244 C3225 1.368 . S
C3244 C3238 1.368 . S
C3244 C3243 1.523 . S
C3245 C3229 1.429 . S
C3245 C3241 1.429 . S
C3245 C3246 1.523 . S
C3246 C3230 1.368 . S
C3246 C3242 1.368 . S
C3246 C3245 1.523 . S
H3247 C3222 0.950 . S
H3248 C3224 0.950 . S
H3249 C3225 0.949 . S
H3250 C3227 0.950 . S
H3251 C3229 0.950 . S
C3252 C3253 1.349 . S
C3252 C3254 1.327 . S
C3252 H3277 0.950 . S
C3253 C3252 1.349 . S
C3253 C3269 1.349 . S
C3254 C3252 1.327 . S
C3254 C3273 1.429 . S
C3254 H3278 0.950 . S
C3255 C3272 1.574 . S
C3255 C3274 1.368 . S
C3255 H3279 0.949 . S
H3256 C3260 0.949 . S
C3257 C3258 1.349 . S
C3257 C3259 1.327 . S
C3257 H3280 0.950 . S
C3258 C3257 1.349 . S
C3258 C3270 1.349 . S
C3259 C3257 1.327 . S
C3259 C3275 1.429 . S
C3259 H3281 0.950 . S
C3260 H3256 0.949 . S
C3260 C3268 1.574 . S
C3260 C3276 1.368 . S
H3261 C3269 0.950 . S
H3262 C3267 0.950 . S
H3263 C3268 0.949 . S
H3264 C3270 0.950 . S
H3265 C3271 0.950 . S
H3266 C3272 0.949 . S
C3267 H3262 0.950 . S
C3267 C3269 1.327 . S
C3267 C3273 1.429 . S
C3268 C3260 1.574 . S
C3268 H3263 0.949 . S
C3268 C3274 1.368 . S
C3269 C3253 1.349 . S
C3269 H3261 0.950 . S
C3269 C3267 1.327 . S
C3270 C3258 1.349 . S
C3270 H3264 0.950 . S
C3270 C3271 1.327 . S
C3271 H3265 0.950 . S
C3271 C3270 1.327 . S
C3271 C3275 1.429 . S
C3272 C3255 1.574 . S
C3272 H3266 0.949 . S
C3272 C3276 1.368 . S
C3273 C3254 1.429 . S
C3273 C3267 1.429 . S
C3273 C3274 1.523 . S
C3274 C3255 1.368 . S
C3274 C3268 1.368 . S
C3274 C3273 1.523 . S
C3275 C3259 1.429 . S
C3275 C3271 1.429 . S
C3275 C3276 1.523 . S
C3276 C3260 1.368 . S
C3276 C3272 1.368 . S
C3276 C3275 1.523 . S
H3277 C3252 0.950 . S
H3278 C3254 0.950 . S
H3279 C3255 0.949 . S
H3280 C3257 0.950 . S
H3281 C3259 0.950 . S
C3282 C3283 1.349 . S
C3282 C3284 1.327 . S
C3282 H3307 0.950 . S
C3283 C3282 1.349 . S
C3283 C3299 1.349 . S
C3284 C3282 1.327 . S
C3284 C3303 1.429 . S
C3284 H3308 0.950 . S
C3285 C3302 1.574 . S
C3285 C3304 1.368 . S
C3285 H3309 0.949 . S
H3286 C3290 0.949 . S
C3287 C3288 1.349 . S
C3287 C3289 1.327 . S
C3287 H3310 0.950 . S
C3288 C3287 1.349 . S
C3288 C3300 1.349 . S
C3289 C3287 1.327 . S
C3289 C3305 1.429 . S
C3289 H3311 0.950 . S
C3290 H3286 0.949 . S
C3290 C3298 1.574 . S
C3290 C3306 1.368 . S
H3291 C3299 0.950 . S
H3292 C3297 0.950 . S
H3293 C3298 0.949 . S
H3294 C3300 0.950 . S
H3295 C3301 0.950 . S
H3296 C3302 0.949 . S
C3297 H3292 0.950 . S
C3297 C3299 1.327 . S
C3297 C3303 1.429 . S
C3298 C3290 1.574 . S
C3298 H3293 0.949 . S
C3298 C3304 1.368 . S
C3299 C3283 1.349 . S
C3299 H3291 0.950 . S
C3299 C3297 1.327 . S
C3300 C3288 1.349 . S
C3300 H3294 0.950 . S
C3300 C3301 1.327 . S
C3301 H3295 0.950 . S
C3301 C3300 1.327 . S
C3301 C3305 1.429 . S
C3302 C3285 1.574 . S
C3302 H3296 0.949 . S
C3302 C3306 1.368 . S
C3303 C3284 1.429 . S
C3303 C3297 1.429 . S
C3303 C3304 1.523 . S
C3304 C3285 1.368 . S
C3304 C3298 1.368 . S
C3304 C3303 1.523 . S
C3305 C3289 1.429 . S
C3305 C3301 1.429 . S
C3305 C3306 1.523 . S
C3306 C3290 1.368 . S
C3306 C3302 1.368 . S
C3306 C3305 1.523 . S
H3307 C3282 0.950 . S
H3308 C3284 0.950 . S
H3309 C3285 0.949 . S
H3310 C3287 0.950 . S
H3311 C3289 0.950 . S
C3312 C3313 1.349 . S
C3312 C3314 1.327 . S
C3312 H3337 0.950 . S
C3313 C3312 1.349 . S
C3313 C3329 1.349 . S
C3314 C3312 1.327 . S
C3314 C3333 1.429 . S
C3314 H3338 0.950 . S
C3315 C3332 1.574 . S
C3315 C3334 1.368 . S
C3315 H3339 0.949 . S
H3316 C3320 0.949 . S
C3317 C3318 1.349 . S
C3317 C3319 1.327 . S
C3317 H3340 0.950 . S
C3318 C3317 1.349 . S
C3318 C3330 1.349 . S
C3319 C3317 1.327 . S
C3319 C3335 1.429 . S
C3319 H3341 0.950 . S
C3320 H3316 0.949 . S
C3320 C3328 1.574 . S
C3320 C3336 1.368 . S
H3321 C3329 0.950 . S
H3322 C3327 0.950 . S
H3323 C3328 0.949 . S
H3324 C3330 0.950 . S
H3325 C3331 0.950 . S
H3326 C3332 0.949 . S
C3327 H3322 0.950 . S
C3327 C3329 1.327 . S
C3327 C3333 1.429 . S
C3328 C3320 1.574 . S
C3328 H3323 0.949 . S
C3328 C3334 1.368 . S
C3329 C3313 1.349 . S
C3329 H3321 0.950 . S
C3329 C3327 1.327 . S
C3330 C3318 1.349 . S
C3330 H3324 0.950 . S
C3330 C3331 1.327 . S
C3331 H3325 0.950 . S
C3331 C3330 1.327 . S
C3331 C3335 1.429 . S
C3332 C3315 1.574 . S
C3332 H3326 0.949 . S
C3332 C3336 1.368 . S
C3333 C3314 1.429 . S
C3333 C3327 1.429 . S
C3333 C3334 1.523 . S
C3334 C3315 1.368 . S
C3334 C3328 1.368 . S
C3334 C3333 1.523 . S
C3335 C3319 1.429 . S
C3335 C3331 1.429 . S
C3335 C3336 1.523 . S
C3336 C3320 1.368 . S
C3336 C3332 1.368 . S
C3336 C3335 1.523 . S
H3337 C3312 0.950 . S
H3338 C3314 0.950 . S
H3339 C3315 0.949 . S
H3340 C3317 0.950 . S
H3341 C3319 0.950 . S
C3342 C3343 1.349 . S
C3342 C3344 1.327 . S
C3342 H3367 0.950 . S
C3343 C3342 1.349 . S
C3343 C3359 1.349 . S
C3344 C3342 1.327 . S
C3344 C3363 1.429 . S
C3344 H3368 0.950 . S
C3345 C3362 1.574 . S
C3345 C3364 1.368 . S
C3345 H3369 0.949 . S
H3346 C3350 0.949 . S
C3347 C3348 1.349 . S
C3347 C3349 1.327 . S
C3347 H3370 0.950 . S
C3348 C3347 1.349 . S
C3348 C3360 1.349 . S
C3349 C3347 1.327 . S
C3349 C3365 1.429 . S
C3349 H3371 0.950 . S
C3350 H3346 0.949 . S
C3350 C3358 1.574 . S
C3350 C3366 1.368 . S
H3351 C3359 0.950 . S
H3352 C3357 0.950 . S
H3353 C3358 0.949 . S
H3354 C3360 0.950 . S
H3355 C3361 0.950 . S
H3356 C3362 0.949 . S
C3357 H3352 0.950 . S
C3357 C3359 1.327 . S
C3357 C3363 1.429 . S
C3358 C3350 1.574 . S
C3358 H3353 0.949 . S
C3358 C3364 1.368 . S
C3359 C3343 1.349 . S
C3359 H3351 0.950 . S
C3359 C3357 1.327 . S
C3360 C3348 1.349 . S
C3360 H3354 0.950 . S
C3360 C3361 1.327 . S
C3361 H3355 0.950 . S
C3361 C3360 1.327 . S
C3361 C3365 1.429 . S
C3362 C3345 1.574 . S
C3362 H3356 0.949 . S
C3362 C3366 1.368 . S
C3363 C3344 1.429 . S
C3363 C3357 1.429 . S
C3363 C3364 1.523 . S
C3364 C3345 1.368 . S
C3364 C3358 1.368 . S
C3364 C3363 1.523 . S
C3365 C3349 1.429 . S
C3365 C3361 1.429 . S
C3365 C3366 1.523 . S
C3366 C3350 1.368 . S
C3366 C3362 1.368 . S
C3366 C3365 1.523 . S
H3367 C3342 0.950 . S
H3368 C3344 0.950 . S
H3369 C3345 0.949 . S
H3370 C3347 0.950 . S
H3371 C3349 0.950 . S
C3372 C3373 1.349 . S
C3372 C3374 1.327 . S
C3372 H3397 0.950 . S
C3373 C3372 1.349 . S
C3373 C3389 1.349 . S
C3374 C3372 1.327 . S
C3374 C3393 1.429 . S
C3374 H3398 0.950 . S
C3375 C3392 1.574 . S
C3375 C3394 1.368 . S
C3375 H3399 0.949 . S
H3376 C3380 0.949 . S
C3377 C3378 1.349 . S
C3377 C3379 1.327 . S
C3377 H3400 0.950 . S
C3378 C3377 1.349 . S
C3378 C3390 1.349 . S
C3379 C3377 1.327 . S
C3379 C3395 1.429 . S
C3379 H3401 0.950 . S
C3380 H3376 0.949 . S
C3380 C3388 1.574 . S
C3380 C3396 1.368 . S
H3381 C3389 0.950 . S
H3382 C3387 0.950 . S
H3383 C3388 0.949 . S
H3384 C3390 0.950 . S
H3385 C3391 0.950 . S
H3386 C3392 0.949 . S
C3387 H3382 0.950 . S
C3387 C3389 1.327 . S
C3387 C3393 1.429 . S
C3388 C3380 1.574 . S
C3388 H3383 0.949 . S
C3388 C3394 1.368 . S
C3389 C3373 1.349 . S
C3389 H3381 0.950 . S
C3389 C3387 1.327 . S
C3390 C3378 1.349 . S
C3390 H3384 0.950 . S
C3390 C3391 1.327 . S
C3391 H3385 0.950 . S
C3391 C3390 1.327 . S
C3391 C3395 1.429 . S
C3392 C3375 1.574 . S
C3392 H3386 0.949 . S
C3392 C3396 1.368 . S
C3393 C3374 1.429 . S
C3393 C3387 1.429 . S
C3393 C3394 1.523 . S
C3394 C3375 1.368 . S
C3394 C3388 1.368 . S
C3394 C3393 1.523 . S
C3395 C3379 1.429 . S
C3395 C3391 1.429 . S
C3395 C3396 1.523 . S
C3396 C3380 1.368 . S
C3396 C3392 1.368 . S
C3396 C3395 1.523 . S
H3397 C3372 0.950 . S
H3398 C3374 0.950 . S
H3399 C3375 0.949 . S
H3400 C3377 0.950 . S
H3401 C3379 0.950 . S
C3402 C3403 1.349 . S
C3402 C3404 1.327 . S
C3402 H3427 0.950 . S
C3403 C3402 1.349 . S
C3403 C3419 1.349 . S
C3404 C3402 1.327 . S
C3404 C3423 1.429 . S
C3404 H3428 0.950 . S
C3405 C3422 1.574 . S
C3405 C3424 1.368 . S
C3405 H3429 0.949 . S
H3406 C3410 0.949 . S
C3407 C3408 1.349 . S
C3407 C3409 1.327 . S
C3407 H3430 0.950 . S
C3408 C3407 1.349 . S
C3408 C3420 1.349 . S
C3409 C3407 1.327 . S
C3409 C3425 1.429 . S
C3409 H3431 0.950 . S
C3410 H3406 0.949 . S
C3410 C3418 1.574 . S
C3410 C3426 1.368 . S
H3411 C3419 0.950 . S
H3412 C3417 0.950 . S
H3413 C3418 0.949 . S
H3414 C3420 0.950 . S
H3415 C3421 0.950 . S
H3416 C3422 0.949 . S
C3417 H3412 0.950 . S
C3417 C3419 1.327 . S
C3417 C3423 1.429 . S
C3418 C3410 1.574 . S
C3418 H3413 0.949 . S
C3418 C3424 1.368 . S
C3419 C3403 1.349 . S
C3419 H3411 0.950 . S
C3419 C3417 1.327 . S
C3420 C3408 1.349 . S
C3420 H3414 0.950 . S
C3420 C3421 1.327 . S
C3421 H3415 0.950 . S
C3421 C3420 1.327 . S
C3421 C3425 1.429 . S
C3422 C3405 1.574 . S
C3422 H3416 0.949 . S
C3422 C3426 1.368 . S
C3423 C3404 1.429 . S
C3423 C3417 1.429 . S
C3423 C3424 1.523 . S
C3424 C3405 1.368 . S
C3424 C3418 1.368 . S
C3424 C3423 1.523 . S
C3425 C3409 1.429 . S
C3425 C3421 1.429 . S
C3425 C3426 1.523 . S
C3426 C3410 1.368 . S
C3426 C3422 1.368 . S
C3426 C3425 1.523 . S
H3427 C3402 0.950 . S
H3428 C3404 0.950 . S
H3429 C3405 0.949 . S
H3430 C3407 0.950 . S
H3431 C3409 0.950 . S
C3432 C3433 1.349 . S
C3432 C3434 1.327 . S
C3432 H3457 0.950 . S
C3433 C3432 1.349 . S
C3433 C3449 1.349 . S
C3434 C3432 1.327 . S
C3434 C3453 1.429 . S
C3434 H3458 0.950 . S
C3435 C3452 1.574 . S
C3435 C3454 1.368 . S
C3435 H3459 0.949 . S
H3436 C3440 0.949 . S
C3437 C3438 1.349 . S
C3437 C3439 1.327 . S
C3437 H3460 0.950 . S
C3438 C3437 1.349 . S
C3438 C3450 1.349 . S
C3439 C3437 1.327 . S
C3439 C3455 1.429 . S
C3439 H3461 0.950 . S
C3440 H3436 0.949 . S
C3440 C3448 1.574 . S
C3440 C3456 1.368 . S
H3441 C3449 0.950 . S
H3442 C3447 0.950 . S
H3443 C3448 0.949 . S
H3444 C3450 0.950 . S
H3445 C3451 0.950 . S
H3446 C3452 0.949 . S
C3447 H3442 0.950 . S
C3447 C3449 1.327 . S
C3447 C3453 1.429 . S
C3448 C3440 1.574 . S
C3448 H3443 0.949 . S
C3448 C3454 1.368 . S
C3449 C3433 1.349 . S
C3449 H3441 0.950 . S
C3449 C3447 1.327 . S
C3450 C3438 1.349 . S
C3450 H3444 0.950 . S
C3450 C3451 1.327 . S
C3451 H3445 0.950 . S
C3451 C3450 1.327 . S
C3451 C3455 1.429 . S
C3452 C3435 1.574 . S
C3452 H3446 0.949 . S
C3452 C3456 1.368 . S
C3453 C3434 1.429 . S
C3453 C3447 1.429 . S
C3453 C3454 1.523 . S
C3454 C3435 1.368 . S
C3454 C3448 1.368 . S
C3454 C3453 1.523 . S
C3455 C3439 1.429 . S
C3455 C3451 1.429 . S
C3455 C3456 1.523 . S
C3456 C3440 1.368 . S
C3456 C3452 1.368 . S
C3456 C3455 1.523 . S
H3457 C3432 0.950 . S
H3458 C3434 0.950 . S
H3459 C3435 0.949 . S
H3460 C3437 0.950 . S
H3461 C3439 0.950 . S
C3462 C3463 1.349 . S
C3462 C3464 1.327 . S
C3462 H3487 0.950 . S
C3463 C3462 1.349 . S
C3463 C3479 1.349 . S
C3464 C3462 1.327 . S
C3464 C3483 1.429 . S
C3464 H3488 0.950 . S
C3465 C3482 1.574 . S
C3465 C3484 1.368 . S
C3465 H3489 0.949 . S
H3466 C3470 0.949 . S
C3467 C3468 1.349 . S
C3467 C3469 1.327 . S
C3467 H3490 0.950 . S
C3468 C3467 1.349 . S
C3468 C3480 1.349 . S
C3469 C3467 1.327 . S
C3469 C3485 1.429 . S
C3469 H3491 0.950 . S
C3470 H3466 0.949 . S
C3470 C3478 1.574 . S
C3470 C3486 1.368 . S
H3471 C3479 0.950 . S
H3472 C3477 0.950 . S
H3473 C3478 0.949 . S
H3474 C3480 0.950 . S
H3475 C3481 0.950 . S
H3476 C3482 0.949 . S
C3477 H3472 0.950 . S
C3477 C3479 1.327 . S
C3477 C3483 1.429 . S
C3478 C3470 1.574 . S
C3478 H3473 0.949 . S
C3478 C3484 1.368 . S
C3479 C3463 1.349 . S
C3479 H3471 0.950 . S
C3479 C3477 1.327 . S
C3480 C3468 1.349 . S
C3480 H3474 0.950 . S
C3480 C3481 1.327 . S
C3481 H3475 0.950 . S
C3481 C3480 1.327 . S
C3481 C3485 1.429 . S
C3482 C3465 1.574 . S
C3482 H3476 0.949 . S
C3482 C3486 1.368 . S
C3483 C3464 1.429 . S
C3483 C3477 1.429 . S
C3483 C3484 1.523 . S
C3484 C3465 1.368 . S
C3484 C3478 1.368 . S
C3484 C3483 1.523 . S
C3485 C3469 1.429 . S
C3485 C3481 1.429 . S
C3485 C3486 1.523 . S
C3486 C3470 1.368 . S
C3486 C3482 1.368 . S
C3486 C3485 1.523 . S
H3487 C3462 0.950 . S
H3488 C3464 0.950 . S
H3489 C3465 0.949 . S
H3490 C3467 0.950 . S
H3491 C3469 0.950 . S
C3492 C3493 1.349 . S
C3492 C3494 1.327 . S
C3492 H3517 0.950 . S
C3493 C3492 1.349 . S
C3493 C3509 1.349 . S
C3494 C3492 1.327 . S
C3494 C3513 1.429 . S
C3494 H3518 0.950 . S
C3495 C3512 1.574 . S
C3495 C3514 1.368 . S
C3495 H3519 0.949 . S
H3496 C3500 0.949 . S
C3497 C3498 1.349 . S
C3497 C3499 1.327 . S
C3497 H3520 0.950 . S
C3498 C3497 1.349 . S
C3498 C3510 1.349 . S
C3499 C3497 1.327 . S
C3499 C3515 1.429 . S
C3499 H3521 0.950 . S
C3500 H3496 0.949 . S
C3500 C3508 1.574 . S
C3500 C3516 1.368 . S
H3501 C3509 0.950 . S
H3502 C3507 0.950 . S
H3503 C3508 0.949 . S
H3504 C3510 0.950 . S
H3505 C3511 0.950 . S
H3506 C3512 0.949 . S
C3507 H3502 0.950 . S
C3507 C3509 1.327 . S
C3507 C3513 1.429 . S
C3508 C3500 1.574 . S
C3508 H3503 0.949 . S
C3508 C3514 1.368 . S
C3509 C3493 1.349 . S
C3509 H3501 0.950 . S
C3509 C3507 1.327 . S
C3510 C3498 1.349 . S
C3510 H3504 0.950 . S
C3510 C3511 1.327 . S
C3511 H3505 0.950 . S
C3511 C3510 1.327 . S
C3511 C3515 1.429 . S
C3512 C3495 1.574 . S
C3512 H3506 0.949 . S
C3512 C3516 1.368 . S
C3513 C3494 1.429 . S
C3513 C3507 1.429 . S
C3513 C3514 1.523 . S
C3514 C3495 1.368 . S
C3514 C3508 1.368 . S
C3514 C3513 1.523 . S
C3515 C3499 1.429 . S
C3515 C3511 1.429 . S
C3515 C3516 1.523 . S
C3516 C3500 1.368 . S
C3516 C3512 1.368 . S
C3516 C3515 1.523 . S
H3517 C3492 0.950 . S
H3518 C3494 0.950 . S
H3519 C3495 0.949 . S
H3520 C3497 0.950 . S
H3521 C3499 0.950 . S
C3522 C3523 1.349 . S
C3522 C3524 1.327 . S
C3522 H3547 0.950 . S
C3523 C3522 1.349 . S
C3523 C3539 1.349 . S
C3524 C3522 1.327 . S
C3524 C3543 1.429 . S
C3524 H3548 0.950 . S
C3525 C3542 1.574 . S
C3525 C3544 1.368 . S
C3525 H3549 0.949 . S
H3526 C3530 0.949 . S
C3527 C3528 1.349 . S
C3527 C3529 1.327 . S
C3527 H3550 0.950 . S
C3528 C3527 1.349 . S
C3528 C3540 1.349 . S
C3529 C3527 1.327 . S
C3529 C3545 1.429 . S
C3529 H3551 0.950 . S
C3530 H3526 0.949 . S
C3530 C3538 1.574 . S
C3530 C3546 1.368 . S
H3531 C3539 0.950 . S
H3532 C3537 0.950 . S
H3533 C3538 0.949 . S
H3534 C3540 0.950 . S
H3535 C3541 0.950 . S
H3536 C3542 0.949 . S
C3537 H3532 0.950 . S
C3537 C3539 1.327 . S
C3537 C3543 1.429 . S
C3538 C3530 1.574 . S
C3538 H3533 0.949 . S
C3538 C3544 1.368 . S
C3539 C3523 1.349 . S
C3539 H3531 0.950 . S
C3539 C3537 1.327 . S
C3540 C3528 1.349 . S
C3540 H3534 0.950 . S
C3540 C3541 1.327 . S
C3541 H3535 0.950 . S
C3541 C3540 1.327 . S
C3541 C3545 1.429 . S
C3542 C3525 1.574 . S
C3542 H3536 0.949 . S
C3542 C3546 1.368 . S
C3543 C3524 1.429 . S
C3543 C3537 1.429 . S
C3543 C3544 1.523 . S
C3544 C3525 1.368 . S
C3544 C3538 1.368 . S
C3544 C3543 1.523 . S
C3545 C3529 1.429 . S
C3545 C3541 1.429 . S
C3545 C3546 1.523 . S
C3546 C3530 1.368 . S
C3546 C3542 1.368 . S
C3546 C3545 1.523 . S
H3547 C3522 0.950 . S
H3548 C3524 0.950 . S
H3549 C3525 0.949 . S
H3550 C3527 0.950 . S
H3551 C3529 0.950 . S
C673 C286 1.566 . S
C678 C6 1.546 . S
C703 C23 1.737 . S
C708 C247 1.747 . S
C733 C34 1.620 . S
C738 C260 1.752 . S
C763 C275 1.726 . S
C768 C51 1.721 . S
C793 C328 1.505 . S
C798 C65 1.646 . S
C823 C77 1.695 . S
C828 C303 1.817 . S
C853 C93 1.631 . S
C858 C314 1.512 . S
C883 C105 1.626 . S
C888 C231 1.627 . S
C913 C118 1.640 . S
C918 C216 1.635 . S
C943 C135 1.748 . S
C948 C176 1.746 . S
C973 C146 1.488 . S
C978 C188 1.485 . S
C1003 C204 1.736 . S
C1008 C163 1.737 . S
C1033 C345 1.843 . S
C1038 C624 1.841 . S
C1063 C583 1.587 . S
C1068 C357 1.478 . S
C1093 C373 1.738 . S
C1098 C594 1.625 . S
C1123 C611 1.676 . S
C1128 C385 1.568 . S
C1153 C398 1.178 . S
C1158 C664 1.171 . S
C1183 C637 1.584 . S
C1188 C415 1.702 . S
C1213 C426 1.073 . S
C1218 C650 1.069 . S
C1243 C569 1.805 . S
C1248 C443 1.806 . S
C1273 C456 1.617 . S
C1278 C555 1.616 . S
C1303 C510 1.463 . S
C1308 C468 1.460 . S
C1333 C527 1.513 . S
C1338 C484 1.514 . S
C1363 C538 1.454 . S
C1368 C496 1.454 . S
C1393 C370 0.982 . S
C1398 C9 1.028 . S
C1423 C20 0.874 . S
C1428 C386 0.906 . S
C1453 C37 0.996 . S
C1458 C342 0.960 . S
C1483 C48 0.887 . S
C1488 C358 0.920 . S
C1513 C62 1.053 . S
C1518 C429 1.099 . S
C1543 C440 0.954 . S
C1548 C78 0.993 . S
C1573 C401 1.092 . S
C1578 C90 1.045 . S
C1603 C412 0.975 . S
C1608 C106 1.026 . S
C1633 C513 1.186 . S
C1638 C121 1.191 . S
C1663 C132 0.793 . S
C1668 C524 0.795 . S
C1693 C541 1.145 . S
C1698 C149 1.149 . S
C1723 C160 0.790 . S
C1728 C552 0.791 . S
C1753 C175 0.930 . S
C1758 C455 0.933 . S
C1783 C191 0.990 . S
C1788 C471 0.989 . S
C1813 C483 0.934 . S
C1818 C203 0.930 . S
C1843 C499 1.031 . S
C1848 C219 1.032 . S
C1873 C232 1.106 . S
C1878 C608 1.037 . S
C1903 C244 0.910 . S
C1908 C638 0.952 . S
C1933 C653 0.969 . S
C1938 C259 0.932 . S
C1963 C566 0.838 . S
C1968 C272 0.832 . S
C1993 C289 1.022 . S
C1998 C667 1.021 . S
C2023 C580 0.964 . S
C2028 C300 0.980 . S
C2053 C317 1.166 . S
C2058 C597 1.164 . S
C2083 C331 1.040 . S
C2088 C623 0.996 . S
C2113 C399 1.893 . S
C2118 C8 1.810 . S
C2143 C414 1.821 . S
C2148 C21 1.922 . S
C2173 C427 2.014 . S
C2178 C36 1.943 . S
C2203 C49 1.950 . S
C2208 C442 1.853 . S
C2233 C344 1.840 . S
C2238 C63 1.919 . S
C2263 C356 2.062 . S
C2268 C79 1.983 . S
C2293 C91 1.889 . S
C2298 C372 1.803 . S
C2323 C384 1.955 . S
C2328 C107 1.864 . S
C2353 C120 1.869 . S
C2358 C539 1.946 . S
C2383 C133 1.989 . S
C2388 C554 1.893 . S
C2413 C511 1.940 . S
C2418 C148 1.853 . S
C2443 C161 1.994 . S
C2448 C526 1.886 . S
C2473 C485 1.925 . S
C2478 C174 2.022 . S
C2503 C190 1.784 . S
C2508 C497 1.870 . S
C2533 C202 2.015 . S
C2538 C457 1.929 . S
C2563 C218 1.813 . S
C2568 C469 1.891 . S
C2593 C636 1.980 . S
C2598 C233 1.891 . S
C2623 C245 1.979 . S
C2628 C610 1.867 . S
C2653 C258 1.836 . S
C2658 C625 1.753 . S
C2683 C273 1.953 . S
C2688 C582 1.849 . S
C2713 C595 1.879 . S
C2718 C288 1.799 . S
C2743 C568 1.859 . S
C2748 C301 1.954 . S
C2773 C665 1.999 . S
C2778 C316 1.917 . S
C2803 C330 1.900 . S
C2808 C651 1.992 . S
C2833 C217 1.543 . S
C2838 C7 1.539 . S
C2863 C22 1.339 . S
C2868 C177 1.319 . S
C2893 C189 1.509 . S
C2898 C35 1.498 . S
C2923 C205 1.286 . S
C2928 C50 1.315 . S
C2953 C134 1.188 . S
C2958 C64 1.219 . S
C2983 C76 1.540 . S
C2988 C147 1.553 . S
C3013 C92 1.236 . S
C3018 C162 1.213 . S
C3043 C119 1.557 . S
C3048 C104 1.549 . S
C3073 C230 1.456 . S
C3078 C287 1.459 . S
C3103 C329 1.461 . S
C3108 C246 1.371 . S
C3133 C302 1.285 . S
C3138 C261 1.298 . S
C3163 C274 1.305 . S
C3168 C315 1.427 . S
C3193 C553 1.319 . S
C3198 C343 1.318 . S
C3223 C512 1.201 . S
C3228 C359 1.204 . S
C3253 C371 1.371 . S
C3258 C525 1.364 . S
C3283 C540 1.187 . S
C3288 C387 1.195 . S
C3313 C470 1.162 . S
C3318 C400 1.146 . S
C3343 C413 1.389 . S
C3348 C482 1.382 . S
C3373 C428 1.142 . S
C3378 C498 1.164 . S
C3403 C441 1.321 . S
C3408 C454 1.323 . S
C3433 C567 1.317 . S
C3438 C622 1.316 . S
C3463 C666 1.219 . S
C3468 C581 1.342 . S
C3493 C639 1.147 . S
C3498 C596 1.141 . S
C3523 C652 1.254 . S
C3528 C609 1.370 . S
