# Generated by pormake.
# Topology dmp, (4)-cn, num edge types: 1
# Building blocks:
#     Node 0, Type 0, BuildingBlock: NAHDIM_clean_sbu_0, # of connection points: 4
#     Node 1, Type 0, BuildingBlock: NAHDIM_clean_sbu_0, # of connection points: 4
#     Node 2, Type 0, BuildingBlock: NAHDIM_clean_sbu_0, # of connection points: 4
#     Node 3, Type 0, BuildingBlock: NAHDIM_clean_sbu_0, # of connection points: 4
#     Edge 4, Type (0, 0), BuildingBlock: ZUJKAS_clean_linker_0, # of connection points: 2
#     Edge 5, Type (0, 0), BuildingBlock: ZUJKAS_clean_linker_0, # of connection points: 2
#     Edge 6, Type (0, 0), BuildingBlock: ZUJKAS_clean_linker_0, # of connection points: 2
#     Edge 7, Type (0, 0), BuildingBlock: ZUJKAS_clean_linker_0, # of connection points: 2
#     Edge 8, Type (0, 0), BuildingBlock: ZUJKAS_clean_linker_0, # of connection points: 2
#     Edge 9, Type (0, 0), BuildingBlock: ZUJKAS_clean_linker_0, # of connection points: 2
#     Edge 10, Type (0, 0), BuildingBlock: ZUJKAS_clean_linker_0, # of connection points: 2
#     Edge 11, Type (0, 0), BuildingBlock: ZUJKAS_clean_linker_0, # of connection points: 2
# Relax obj value: 0.250
# Max RMSD: 0.272
# Mean RMSD: 0.272
data_MOF--net-dmp--node1-NAHDIM_clean_sbu_0--edge1-ZUJKAS_clean_linker_0
_symmetry_space_group_name_H-M    P1
_symmetry_Int_Tables_number       1
_symmetry_cell_setting            triclinic
loop_
_symmetry_equiv_pos_as_xyz
'x, y, z'
_cell_length_a     48.460471
_cell_length_b     22.521926
_cell_length_c     24.828349
_cell_angle_alpha  90.273027
_cell_angle_beta   89.850319
_cell_angle_gamma 95.76867
loop_
_atom_site_label
_atom_site_type_symbol
_atom_site_fract_x
_atom_site_fract_y
_atom_site_fract_z
_atom_type_partial_charge
C0 C 0.06269 0.34017 0.31661 0.0
O1 O 0.06653 0.35997 0.2672 0.0
O2 O 0.06693 0.2023 0.22361 0.0
Zn3 Zn 0.09298 0.24926 0.27433 0.0
O4 O 0.11824 0.31084 0.23539 0.0
C5 C 0.12473 0.15011 0.28521 0.0
O6 O 0.11414 0.13768 0.23733 0.0
O7 O 0.07188 0.29137 0.32964 0.0
C8 C 0.13172 0.30146 0.19275 0.0
O9 O 0.1283 0.24873 0.1695 0.0
C10 C 0.0573 0.22431 0.18145 0.0
O11 O 0.06405 0.28086 0.17025 0.0
O12 O 0.11764 0.19524 0.31064 0.0
C13 C 0.44253 0.71301 0.35594 0.0
O14 O 0.45699 0.72849 0.31254 0.0
O15 O 0.42703 0.81377 0.25071 0.0
Zn16 Zn 0.39993 0.77332 0.30369 0.0
O17 O 0.37368 0.71255 0.26564 0.0
C18 C 0.37072 0.87662 0.30764 0.0
O19 O 0.38226 0.8842 0.2599 0.0
O20 O 0.41846 0.72985 0.36157 0.0
C21 C 0.36264 0.72031 0.22016 0.0
O22 O 0.36908 0.77041 0.19407 0.0
C23 C 0.43593 0.78659 0.21024 0.0
O24 O 0.42863 0.72917 0.2042 0.0
O25 O 0.37637 0.83273 0.3361 0.0
C26 C 0.92318 0.68785 0.69533 0.0
O27 O 0.91867 0.67012 0.74519 0.0
O28 O 0.9001 0.82412 0.77564 0.0
Zn29 Zn 0.88196 0.76368 0.72389 0.0
O30 O 0.86002 0.69615 0.76193 0.0
C31 C 0.86012 0.84364 0.64505 0.0
O32 O 0.88581 0.86759 0.63933 0.0
O33 O 0.91015 0.72958 0.67705 0.0
C34 C 0.8437 0.70256 0.80118 0.0
O35 O 0.84194 0.75606 0.8214 0.0
C36 C 0.90932 0.80899 0.82086 0.0
O37 O 0.90699 0.75233 0.83418 0.0
O38 O 0.85473 0.80101 0.67793 0.0
C39 C 0.53978 0.24119 0.65956 0.0
O40 O 0.53047 0.22382 0.70723 0.0
O41 O 0.5701 0.13136 0.74377 0.0
Zn42 Zn 0.58971 0.18655 0.68923 0.0
O43 O 0.6149 0.24982 0.72665 0.0
C44 C 0.61472 0.08704 0.63966 0.0
O45 O 0.59709 0.05325 0.66942 0.0
O46 O 0.56341 0.22807 0.64399 0.0
C47 C 0.63014 0.23956 0.76644 0.0
O48 O 0.62905 0.18534 0.78615 0.0
C49 C 0.56275 0.15177 0.78882 0.0
O50 O 0.56725 0.20935 0.79841 0.0
O51 O 0.6143 0.14329 0.64113 0.0
H52 H 0.34078 0.87027 0.40175 0.0
H53 H 0.29935 0.92035 0.42214 0.0
H54 H 0.3081 0.0129 0.27041 0.0
H55 H 0.3497 0.96451 0.25033 0.0
H56 H 0.29166 0.08402 0.35277 0.0
H57 H 0.22684 0.86536 0.3456 0.0
H58 H 0.25414 0.87248 0.39473 0.0
H59 H 0.26261 0.87361 0.32424 0.0
C60 C 0.33412 0.90204 0.37314 0.0
C61 C 0.34829 0.91281 0.32405 0.0
C62 C 0.31037 0.93031 0.38474 0.0
C63 C 0.30035 0.96926 0.34723 0.0
C64 C 0.31542 0.98274 0.29979 0.0
H65 H 0.14821 0.05938 0.23558 0.0
H66 H 0.18965 0.01454 0.263 0.0
C67 C 0.33919 0.95489 0.28832 0.0
C68 C 0.27323 -0.00691 0.35471 0.0
H69 H 0.20355 0.95123 0.35252 0.0
C70 C 0.27235 0.05514 0.35368 0.0
C71 C 0.24813 0.95503 0.35546 0.0
C72 C 0.24778 0.88791 0.35469 0.0
C73 C 0.24706 0.08023 0.35054 0.0
C74 C 0.222 0.04209 0.34963 0.0
C75 C 0.22283 0.98019 0.35353 0.0
C76 C 0.19514 0.06491 0.33733 0.0
C77 C 0.24748 0.14701 0.34467 0.0
C78 C 0.18398 0.10669 0.37095 0.0
C79 C 0.16031 0.13283 0.35515 0.0
C80 C 0.14737 0.11715 0.30568 0.0
C81 C 0.15773 0.07272 0.27374 0.0
C82 C 0.18141 0.04693 0.28941 0.0
H83 H 0.26867 0.16877 0.33649 0.0
H84 H 0.23361 0.15817 0.31147 0.0
H85 H 0.2399 0.16621 0.38251 0.0
H86 H 0.19396 0.12022 0.40863 0.0
H87 H 0.15267 0.16655 0.3809 0.0
H88 H 0.1662 0.29689 0.10512 0.0
H89 H 0.20581 0.36868 0.08174 0.0
H90 H 0.18646 0.48007 0.2157 0.0
H91 H 0.14662 0.41019 0.23813 0.0
H92 H 0.20319 0.54577 0.12822 0.0
H93 H 0.27623 0.37572 0.16987 0.0
H94 H 0.25141 0.35808 0.11715 0.0
H95 H 0.2398 0.3632 0.18565 0.0
C96 C 0.17018 0.33714 0.12905 0.0
C97 C 0.1535 0.34742 0.17395 0.0
C98 C 0.1929 0.37791 0.11582 0.0
C99 C 0.19942 0.42904 0.14769 0.0
C100 C 0.18188 0.44081 0.19064 0.0
H101 H 0.33898 0.62177 0.27203 0.0
H102 H 0.30108 0.55102 0.24096 0.0
C103 C 0.15914 0.40058 0.20355 0.0
C104 C 0.22537 0.46874 0.13975 0.0
H105 H 0.29542 0.47389 0.15693 0.0
C106 C 0.22346 0.5301 0.13349 0.0
C107 C 0.25173 0.44795 0.14686 0.0
C108 C 0.25509 0.38277 0.15565 0.0
C109 C 0.24693 0.57171 0.13793 0.0
C110 C 0.27312 0.55106 0.14732 0.0
C111 C 0.27529 0.48945 0.14968 0.0
C112 C 0.29759 0.59222 0.16298 0.0
C113 C 0.24311 0.6374 0.13657 0.0
C114 C 0.30863 0.63837 0.12904 0.0
C115 C 0.33019 0.67967 0.14708 0.0
C116 C 0.34126 0.67479 0.19902 0.0
C117 C 0.33091 0.62697 0.23186 0.0
C118 C 0.30926 0.5863 0.21408 0.0
H119 H 0.2209 0.64558 0.13875 0.0
H120 H 0.25425 0.66134 0.17054 0.0
H121 H 0.25179 0.65682 0.09841 0.0
H122 H 0.30033 0.64298 0.08899 0.0
H123 H 0.33794 0.7157 0.12065 0.0
H124 H 0.62921 0.97304 0.64589 0.0
H125 H 0.67242 0.93736 0.61427 0.0
H126 H 0.69561 0.10697 0.53845 0.0
H127 H 0.65266 0.14352 0.57063 0.0
H128 H 0.70121 0.9305 0.5122 0.0
H129 H 0.75463 0.09435 0.65631 0.0
H130 H 0.71754 0.07617 0.65714 0.0
H131 H 0.73348 0.12336 0.60533 0.0
C132 C 0.6432 0.00238 0.62155 0.0
C133 C 0.6378 0.0615 0.61174 0.0
C134 C 0.66784 0.98186 0.60336 0.0
C135 C 0.68736 0.01999 0.57495 0.0
C136 C 0.68097 0.07728 0.56112 0.0
H137 H 0.86142 0.94747 0.58712 0.0
H138 H 0.82149 -0.00655 0.55151 0.0
C139 C 0.65641 0.098 0.57955 0.0
C140 C 0.71554 0.00204 0.56623 0.0
H141 H 0.78107 0.02494 0.61696 0.0
C142 C 0.71885 0.95174 0.53424 0.0
C143 C 0.73854 0.03025 0.59471 0.0
C144 C 0.73603 0.08381 0.63061 0.0
C145 C 0.74429 0.92702 0.53219 0.0
C146 C 0.76667 0.95265 0.56384 0.0
C147 C 0.76388 0.0054 0.5927 0.0
C148 C 0.79128 0.92082 0.5751 0.0
C149 C 0.74668 0.87262 0.49752 0.0
C150 C 0.78755 0.86458 0.59954 0.0
C151 C 0.81015 0.83853 0.62005 0.0
C152 C 0.83701 0.86837 0.61695 0.0
C153 C 0.84098 0.92344 0.59017 0.0
C154 C 0.81822 0.94966 0.56969 0.0
H155 H 0.73301 0.87282 0.46167 0.0
H156 H 0.76835 0.86991 0.4838 0.0
H157 H 0.7399 0.83199 0.52109 0.0
H158 H 0.76693 0.84218 0.60556 0.0
H159 H 0.80638 0.79592 0.64021 0.0
H160 H 0.83457 0.59394 0.75243 0.0
H161 H 0.79809 0.51494 0.77209 0.0
H162 H 0.77263 0.61432 0.90945 0.0
H163 H 0.8086 0.69547 0.88844 0.0
H164 H 0.78457 0.4424 0.85384 0.0
H165 H 0.70198 0.59415 0.82479 0.0
H166 H 0.73787 0.61679 0.80979 0.0
H167 H 0.72592 0.6141 0.87845 0.0
C168 C 0.82142 0.59899 0.78716 0.0
C169 C 0.82419 0.65146 0.81837 0.0
C170 C 0.80058 0.55357 0.79847 0.0
C171 C 0.78222 0.55921 0.84155 0.0
C172 C 0.78606 0.60976 0.87509 0.0
H173 H 0.6588 0.24199 0.86163 0.0
H174 H 0.69395 0.32015 0.89346 0.0
C175 C 0.80673 0.65588 0.86325 0.0
C176 C 0.75821 0.51351 0.84813 0.0
H177 H 0.68777 0.49276 0.83562 0.0
C178 C 0.76333 0.45331 0.85064 0.0
C179 C 0.73054 0.52802 0.84377 0.0
C180 C 0.72362 0.59165 0.83862 0.0
C181 C 0.74181 0.40714 0.84511 0.0
C182 C 0.71425 0.4217 0.83898 0.0
C183 C 0.70893 0.48182 0.84034 0.0
C184 C 0.6913 0.37634 0.8235 0.0
C185 C 0.74912 0.34359 0.84198 0.0
C186 C 0.67725 0.38325 0.77492 0.0
C187 C 0.65685 0.33953 0.75732 0.0
C188 C 0.65024 0.28755 0.78766 0.0
C189 C 0.66372 0.28129 0.83709 0.0
C190 C 0.6839 0.3257 0.85517 0.0
H191 H 0.77173 0.34131 0.83618 0.0
H192 H 0.74295 0.32032 0.88007 0.0
H193 H 0.73795 0.31914 0.80832 0.0
H194 H 0.68258 0.42193 0.74977 0.0
H195 H 0.64685 0.34576 0.71906 0.0
H196 H 0.04052 0.10566 0.19259 0.0
H197 H 0.01309 0.04063 0.12955 0.0
H198 H 0.00645 0.18983 0.02379 0.0
H199 H 0.03421 0.25539 0.0864 0.0
H200 H 0.95893 0.04953 0.08983 0.0
H201 H 0.03817 0.06399 0.92659 0.0
H202 H 0.04622 0.08753 -0.00515 0.0
H203 H 0.02841 0.13415 0.95109 0.0
C204 C 0.03322 0.12479 0.15598 0.0
C205 C 0.03969 0.18566 0.14432 0.0
C206 C 0.01751 0.08754 0.12008 0.0
C207 C 0.0081 0.11034 0.0718 0.0
C208 C 0.01396 0.17127 0.06048 0.0
H209 H 0.91906 0.92915 0.80391 0.0
H210 H 0.94135 0.00455 0.86521 0.0
C211 C 0.0297 0.20866 0.0964 0.0
C212 C -0.00769 0.06987 0.03336 0.0
H213 H -0.00454 0.00784 0.90812 0.0
C214 C 0.96684 0.04046 0.05003 0.0
C215 C 0.00276 0.05834 0.98154 0.0
C216 C 0.03048 0.0872 0.96238 0.0
C217 C 0.9515 -0.0004 0.01615 0.0
C218 C 0.96218 0.9873 0.96471 0.0
C219 C 0.98739 0.0175 0.94765 0.0
C220 C 0.94794 0.94189 0.92851 0.0
C221 C 0.92392 0.97022 0.03549 0.0
C222 C 0.94455 0.8817 0.94376 0.0
C223 C 0.93189 0.83848 0.90886 0.0
C224 C 0.92251 0.85475 0.85801 0.0
C225 C 0.926 0.91516 0.84285 0.0
C226 C 0.93873 0.95831 0.87776 0.0
H227 H 0.9154 -0.00432 0.06905 0.0
H228 H 0.90856 0.96583 0.00222 0.0
H229 H 0.92666 0.92482 0.05038 0.0
H230 H 0.95204 0.86806 0.9824 0.0
H231 H 0.92959 0.79235 0.92167 0.0
H232 H 0.5446 0.1816 0.88848 0.0
H233 H 0.52458 0.11443 0.95842 0.0
H234 H 0.53195 0.96333 0.85391 0.0
H235 H 0.55229 0.03013 0.78369 0.0
H236 H 0.47613 0.0335 0.95091 0.0
H237 H 0.56979 0.91822 -0.0052 0.0
H238 H 0.57148 0.98771 0.95837 0.0
H239 H 0.55958 0.91884 0.92526 0.0
C240 C 0.54203 0.13409 0.88032 0.0
C241 C 0.5501 0.11116 0.83059 0.0
C242 C 0.5306 0.09582 0.92033 0.0
C243 C 0.52718 0.03399 0.9115 0.0
C244 C 0.53492 0.01088 0.86178 0.0
H245 H 0.4554 0.7443 0.11537 0.0
H246 H 0.47816 0.8028 0.0419 0.0
C247 C 0.54636 0.04915 0.82163 0.0
C248 C 0.51477 -0.00589 0.95405 0.0
H249 H 0.52845 0.88336 0.0405 0.0
C250 C 0.48755 0.00067 0.97053 0.0
C251 C 0.52975 0.9512 0.97923 0.0
C252 C 0.55935 0.94364 0.96396 0.0
C253 C 0.47483 0.9654 0.01171 0.0
C254 C 0.48996 0.9233 0.03761 0.0
C255 C 0.51702 0.91591 0.02054 0.0
C256 C 0.47809 0.8875 0.08329 0.0
C257 C 0.44521 0.97311 0.02686 0.0
C258 C 0.47133 0.91576 0.13128 0.0
C259 C 0.45837 0.88264 0.17323 0.0
C260 C 0.45205 0.82057 0.16794 0.0
C261 C 0.45989 0.79206 0.12059 0.0
C262 C 0.47288 0.82533 0.0786 0.0
H263 H 0.43443 -0.00421 -0.00539 0.0
H264 H 0.43335 0.92932 0.03525 0.0
H265 H 0.44504 0.00086 0.06389 0.0
H266 H 0.47568 0.96364 0.13592 0.0
H267 H 0.45278 0.90593 0.20929 0.0
H268 H 0.93494 0.70989 0.58911 0.0
H269 H 0.96113 0.65102 0.52801 0.0
H270 H 0.97821 0.53516 0.65895 0.0
H271 H 0.95187 0.59333 0.72038 0.0
H272 H 0.01732 0.62109 0.53358 0.0
H273 H 0.93954 0.42217 0.54372 0.0
H274 H 0.93212 0.49514 0.56649 0.0
H275 H 0.95254 0.45079 0.60746 0.0
C276 C 0.94442 0.67214 0.60505 0.0
C277 C 0.9411 0.65589 0.65948 0.0
C278 C 0.95938 0.63864 0.57009 0.0
C279 C 0.97114 0.58831 0.58892 0.0
C280 C 0.96882 0.5733 0.64358 0.0
H281 H 0.05461 0.31596 0.42367 0.0
H282 H 0.03356 0.37714 0.49099 0.0
C283 C 0.95387 0.60676 0.67861 0.0
C284 C 0.98518 0.55066 0.55091 0.0
H285 H 0.98009 0.41235 0.49296 0.0
C286 C 0.00925 0.57544 0.52464 0.0
C287 C 0.9745 0.49119 0.53956 0.0
C288 C 0.94814 0.46318 0.56537 0.0
C289 C 0.02312 0.54199 0.48739 0.0
C290 C 0.01224 0.48274 0.47554 0.0
C291 C 0.98833 0.45781 0.50225 0.0
C292 C 0.02506 0.4461 0.43479 0.0
C293 C 0.04947 0.57006 0.46162 0.0
C294 C 0.02675 0.46422 0.38083 0.0
C295 C 0.03877 0.42948 0.34231 0.0
C296 C 0.0491 0.37575 0.35707 0.0
C297 C 0.04689 0.35716 0.41104 0.0
C298 C 0.03491 0.39204 0.44955 0.0
H299 H 0.05896 0.60868 0.48547 0.0
H300 H 0.06491 0.53711 0.45706 0.0
H301 H 0.04466 0.58645 0.42097 0.0
H302 H 0.01865 0.50513 0.36845 0.0
H303 H 0.03999 0.44485 0.30103 0.0
H304 H 0.41726 0.66996 0.44845 0.0
H305 H 0.43052 0.5884 0.50439 0.0
H306 H 0.50268 0.57495 0.40484 0.0
H307 H 0.48963 0.65627 0.34848 0.0
H308 H 0.46585 0.46525 0.42065 0.0
H309 H 0.49642 0.58334 0.61226 0.0
H310 H 0.46394 0.59833 0.58291 0.0
H311 H 0.49578 0.62176 0.54863 0.0
C312 C 0.4362 0.65032 0.43892 0.0
C313 C 0.45235 0.66942 0.39387 0.0
C314 C 0.44375 0.60386 0.47102 0.0
C315 C 0.46757 0.57599 0.45868 0.0
C316 C 0.48421 0.59612 0.41488 0.0
H317 H 0.55388 0.28564 0.56019 0.0
H318 H 0.5326 0.36271 0.51137 0.0
C319 C 0.47675 0.64268 0.38287 0.0
C320 C 0.47425 0.52324 0.48913 0.0
H321 H 0.49694 0.47881 0.61093 0.0
C322 C 0.47258 0.46805 0.46231 0.0
C323 C 0.48261 0.5272 0.54357 0.0
C324 C 0.48502 0.58581 0.5737 0.0
C325 C 0.47949 0.41655 0.48839 0.0
C326 C 0.48884 0.42085 0.54227 0.0
C327 C 0.48973 0.47575 0.56959 0.0
C328 C 0.49986 0.3702 0.56973 0.0
C329 C 0.47669 0.35806 0.45803 0.0
C330 C 0.48856 0.34903 0.61891 0.0
C331 C 0.50081 0.30507 0.64723 0.0
C332 C 0.52471 0.2821 0.62696 0.0
C333 C 0.53546 0.30227 0.5769 0.0
C334 C 0.52322 0.34611 0.54872 0.0
H335 H 0.46129 0.35825 0.42497 0.0
H336 H 0.49699 0.35073 0.4397 0.0
H337 H 0.47036 0.32009 0.48522 0.0
H338 H 0.47061 0.3674 0.63586 0.0
H339 H 0.49207 0.29055 0.68573 0.0
loop_
_geom_bond_atom_site_label_1
_geom_bond_atom_site_label_2
_geom_bond_distance
_geom_bond_site_symmetry_2
_ccdc_geom_bond_type
C0 O1 1.160 . S
C0 O7 1.185 . S
O1 C0 1.160 . S
O2 Zn3 1.899 . S
O2 C10 1.284 . S
Zn3 O2 1.899 . S
Zn3 O4 2.032 . S
Zn3 O7 2.086 . S
Zn3 O12 1.977 . S
O4 Zn3 2.032 . S
O4 C8 1.278 . S
C5 O6 1.203 . S
C5 O12 1.267 . S
O6 C5 1.203 . S
O7 C0 1.185 . S
O7 Zn3 2.086 . S
C8 O4 1.278 . S
C8 O9 1.211 . S
O9 C8 1.211 . S
C10 O2 1.284 . S
C10 O11 1.273 . S
O11 C10 1.273 . S
O12 Zn3 1.977 . S
O12 C5 1.267 . S
C13 O14 1.160 . S
C13 O20 1.185 . S
O14 C13 1.160 . S
O15 Zn16 1.899 . S
O15 C23 1.284 . S
Zn16 O15 1.899 . S
Zn16 O17 2.032 . S
Zn16 O20 2.086 . S
Zn16 O25 1.977 . S
O17 Zn16 2.032 . S
O17 C21 1.278 . S
C18 O19 1.203 . S
C18 O25 1.267 . S
O19 C18 1.203 . S
O20 C13 1.185 . S
O20 Zn16 2.086 . S
C21 O17 1.278 . S
C21 O22 1.211 . S
O22 C21 1.211 . S
C23 O15 1.284 . S
C23 O24 1.273 . S
O24 C23 1.273 . S
O25 Zn16 1.977 . S
O25 C18 1.267 . S
C26 O27 1.160 . S
C26 O33 1.185 . S
O27 C26 1.160 . S
O28 Zn29 1.899 . S
O28 C36 1.284 . S
Zn29 O28 1.899 . S
Zn29 O30 2.032 . S
Zn29 O33 2.086 . S
Zn29 O38 1.977 . S
O30 Zn29 2.032 . S
O30 C34 1.278 . S
C31 O32 1.203 . S
C31 O38 1.267 . S
O32 C31 1.203 . S
O33 C26 1.185 . S
O33 Zn29 2.086 . S
C34 O30 1.278 . S
C34 O35 1.211 . S
O35 C34 1.211 . S
C36 O28 1.284 . S
C36 O37 1.273 . S
O37 C36 1.273 . S
O38 Zn29 1.977 . S
O38 C31 1.267 . S
C39 O40 1.160 . S
C39 O46 1.185 . S
O40 C39 1.160 . S
O41 Zn42 1.899 . S
O41 C49 1.284 . S
Zn42 O41 1.899 . S
Zn42 O43 2.032 . S
Zn42 O46 2.086 . S
Zn42 O51 1.977 . S
O43 Zn42 2.032 . S
O43 C47 1.278 . S
C44 O45 1.203 . S
C44 O51 1.267 . S
O45 C44 1.203 . S
O46 C39 1.185 . S
O46 Zn42 2.086 . S
C47 O43 1.278 . S
C47 O48 1.211 . S
O48 C47 1.211 . S
C49 O41 1.284 . S
C49 O50 1.273 . S
O50 C49 1.273 . S
O51 Zn42 1.977 . S
O51 C44 1.267 . S
H52 C60 0.929 . S
H53 C62 0.925 1_545 S
H54 C64 0.930 . S
H55 C67 0.929 . S
H56 C70 0.930 . S
H57 C72 0.960 . S
H58 C72 0.960 . S
H59 C72 0.960 . S
C60 H52 0.929 . S
C60 C61 1.377 . S
C60 C62 1.384 . S
C61 C60 1.377 . S
C61 C67 1.390 . S
C62 H53 0.925 1_565 S
C62 C60 1.384 . S
C62 C63 1.372 . S
C63 C62 1.372 . S
C63 C64 1.400 . S
C63 C68 1.490 . S
C64 H54 0.930 . S
C64 C63 1.400 . S
C64 C67 1.386 . S
H65 C81 0.930 . S
H66 C82 0.931 . S
C67 H55 0.929 . S
C67 C61 1.390 . S
C67 C64 1.386 . S
C68 C63 1.490 . S
C68 C70 1.395 1_565 S
C68 C71 1.403 . S
H69 C75 0.930 . S
C70 H56 0.930 . S
C70 C68 1.395 1_545 S
C70 C73 1.403 . S
C71 C68 1.403 . S
C71 C72 1.524 . S
C71 C75 1.400 . S
C72 H57 0.960 . S
C72 H58 0.960 . S
C72 H59 0.960 . S
C72 C71 1.524 . S
C73 C70 1.403 . S
C73 C74 1.392 . S
C73 C77 1.495 . S
C74 C73 1.392 . S
C74 C75 1.385 1_545 S
C74 C76 1.478 . S
C75 H69 0.930 . S
C75 C71 1.400 . S
C75 C74 1.385 1_565 S
C76 C74 1.478 . S
C76 C78 1.381 . S
C76 C82 1.383 . S
C77 C73 1.495 . S
C77 H83 0.959 . S
C77 H84 0.961 . S
C77 H85 0.960 . S
C78 C76 1.381 . S
C78 C79 1.394 . S
C78 H86 0.930 . S
C79 C78 1.394 . S
C79 C80 1.383 . S
C79 H87 0.929 . S
C80 C79 1.383 . S
C80 C81 1.377 . S
C81 H65 0.930 . S
C81 C80 1.377 . S
C81 C82 1.379 . S
C82 H66 0.931 . S
C82 C76 1.383 . S
C82 C81 1.379 . S
H83 C77 0.959 . S
H84 C77 0.961 . S
H85 C77 0.960 . S
H86 C78 0.930 . S
H87 C79 0.929 . S
H88 C96 0.929 . S
H89 C98 0.930 . S
H90 C100 0.930 . S
H91 C103 0.929 . S
H92 C106 0.930 . S
H93 C108 0.960 . S
H94 C108 0.960 . S
H95 C108 0.960 . S
C96 H88 0.929 . S
C96 C97 1.377 . S
C96 C98 1.384 . S
C97 C96 1.377 . S
C97 C103 1.390 . S
C98 H89 0.930 . S
C98 C96 1.384 . S
C98 C99 1.372 . S
C99 C98 1.372 . S
C99 C100 1.400 . S
C99 C104 1.490 . S
C100 H90 0.930 . S
C100 C99 1.400 . S
C100 C103 1.386 . S
H101 C117 0.930 . S
H102 C118 0.931 . S
C103 H91 0.929 . S
C103 C97 1.390 . S
C103 C100 1.386 . S
C104 C99 1.490 . S
C104 C106 1.395 . S
C104 C107 1.403 . S
H105 C111 0.930 . S
C106 H92 0.930 . S
C106 C104 1.395 . S
C106 C109 1.403 . S
C107 C104 1.403 . S
C107 C108 1.524 . S
C107 C111 1.400 . S
C108 H93 0.960 . S
C108 H94 0.960 . S
C108 H95 0.960 . S
C108 C107 1.524 . S
C109 C106 1.403 . S
C109 C110 1.392 . S
C109 C113 1.495 . S
C110 C109 1.392 . S
C110 C111 1.385 . S
C110 C112 1.478 . S
C111 H105 0.930 . S
C111 C107 1.400 . S
C111 C110 1.385 . S
C112 C110 1.478 . S
C112 C114 1.381 . S
C112 C118 1.383 . S
C113 C109 1.495 . S
C113 H119 0.959 . S
C113 H120 0.961 . S
C113 H121 0.960 . S
C114 C112 1.381 . S
C114 C115 1.394 . S
C114 H122 0.930 . S
C115 C114 1.394 . S
C115 C116 1.383 . S
C115 H123 0.929 . S
C116 C115 1.383 . S
C116 C117 1.377 . S
C117 H101 0.930 . S
C117 C116 1.377 . S
C117 C118 1.379 . S
C118 H102 0.931 . S
C118 C112 1.383 . S
C118 C117 1.379 . S
H119 C113 0.959 . S
H120 C113 0.961 . S
H121 C113 0.960 . S
H122 C114 0.930 . S
H123 C115 0.929 . S
H124 C132 0.929 . S
H125 C134 0.930 1_565 S
H126 C136 0.930 . S
H127 C139 0.929 . S
H128 C142 0.930 . S
H129 C144 0.960 . S
H130 C144 0.960 . S
H131 C144 0.960 . S
C132 H124 0.929 . S
C132 C133 1.377 . S
C132 C134 1.384 . S
C133 C132 1.377 . S
C133 C139 1.390 . S
C134 H125 0.930 1_545 S
C134 C132 1.384 . S
C134 C135 1.372 . S
C135 C134 1.372 . S
C135 C136 1.400 . S
C135 C140 1.490 . S
C136 H126 0.930 . S
C136 C135 1.400 . S
C136 C139 1.386 . S
H137 C153 0.930 . S
H138 C154 0.931 1_545 S
C139 H127 0.929 . S
C139 C133 1.390 . S
C139 C136 1.386 . S
C140 C135 1.490 . S
C140 C142 1.395 . S
C140 C143 1.403 . S
H141 C147 0.930 . S
C142 H128 0.930 . S
C142 C140 1.395 . S
C142 C145 1.403 1_545 S
C143 C140 1.403 . S
C143 C144 1.524 . S
C143 C147 1.400 1_545 S
C144 H129 0.960 . S
C144 H130 0.960 . S
C144 H131 0.960 . S
C144 C143 1.524 . S
C145 C142 1.403 1_565 S
C145 C146 1.392 . S
C145 C149 1.495 . S
C146 C145 1.392 . S
C146 C147 1.385 . S
C146 C148 1.478 . S
C147 H141 0.930 . S
C147 C143 1.400 1_565 S
C147 C146 1.385 . S
C148 C146 1.478 . S
C148 C150 1.381 . S
C148 C154 1.383 . S
C149 C145 1.495 . S
C149 H155 0.959 . S
C149 H156 0.961 . S
C149 H157 0.960 . S
C150 C148 1.381 . S
C150 C151 1.394 . S
C150 H158 0.930 . S
C151 C150 1.394 . S
C151 C152 1.383 . S
C151 H159 0.929 . S
C152 C151 1.383 . S
C152 C153 1.377 . S
C153 H137 0.930 . S
C153 C152 1.377 . S
C153 C154 1.379 . S
C154 H138 0.931 1_565 S
C154 C148 1.383 . S
C154 C153 1.379 . S
H155 C149 0.959 . S
H156 C149 0.961 . S
H157 C149 0.960 . S
H158 C150 0.930 . S
H159 C151 0.929 . S
H160 C168 0.929 . S
H161 C170 0.930 . S
H162 C172 0.930 . S
H163 C175 0.929 . S
H164 C178 0.930 . S
H165 C180 0.960 . S
H166 C180 0.960 . S
H167 C180 0.960 . S
C168 H160 0.929 . S
C168 C169 1.377 . S
C168 C170 1.384 . S
C169 C168 1.377 . S
C169 C175 1.390 . S
C170 H161 0.930 . S
C170 C168 1.384 . S
C170 C171 1.372 . S
C171 C170 1.372 . S
C171 C172 1.400 . S
C171 C176 1.490 . S
C172 H162 0.930 . S
C172 C171 1.400 . S
C172 C175 1.386 . S
H173 C189 0.930 . S
H174 C190 0.931 . S
C175 H163 0.929 . S
C175 C169 1.390 . S
C175 C172 1.386 . S
C176 C171 1.490 . S
C176 C178 1.395 . S
C176 C179 1.403 . S
H177 C183 0.930 . S
C178 H164 0.930 . S
C178 C176 1.395 . S
C178 C181 1.403 . S
C179 C176 1.403 . S
C179 C180 1.524 . S
C179 C183 1.400 . S
C180 H165 0.960 . S
C180 H166 0.960 . S
C180 H167 0.960 . S
C180 C179 1.524 . S
C181 C178 1.403 . S
C181 C182 1.392 . S
C181 C185 1.495 . S
C182 C181 1.392 . S
C182 C183 1.385 . S
C182 C184 1.478 . S
C183 H177 0.930 . S
C183 C179 1.400 . S
C183 C182 1.385 . S
C184 C182 1.478 . S
C184 C186 1.381 . S
C184 C190 1.383 . S
C185 C181 1.495 . S
C185 H191 0.959 . S
C185 H192 0.961 . S
C185 H193 0.960 . S
C186 C184 1.381 . S
C186 C187 1.394 . S
C186 H194 0.930 . S
C187 C186 1.394 . S
C187 C188 1.383 . S
C187 H195 0.929 . S
C188 C187 1.383 . S
C188 C189 1.377 . S
C189 H173 0.930 . S
C189 C188 1.377 . S
C189 C190 1.379 . S
C190 H174 0.931 . S
C190 C184 1.383 . S
C190 C189 1.379 . S
H191 C185 0.959 . S
H192 C185 0.961 . S
H193 C185 0.960 . S
H194 C186 0.930 . S
H195 C187 0.929 . S
H196 C204 0.929 . S
H197 C206 0.930 . S
H198 C208 0.930 . S
H199 C211 0.929 . S
H200 C214 0.930 . S
H201 C216 0.960 1_556 S
H202 C216 0.960 . S
H203 C216 0.960 1_546 S
C204 H196 0.929 . S
C204 C205 1.377 . S
C204 C206 1.384 . S
C205 C204 1.377 . S
C205 C211 1.390 . S
C206 H197 0.930 . S
C206 C204 1.384 . S
C206 C207 1.372 . S
C207 C206 1.372 . S
C207 C208 1.400 . S
C207 C212 1.490 . S
C208 H198 0.930 . S
C208 C207 1.400 . S
C208 C211 1.386 . S
H209 C225 0.930 . S
H210 C226 0.931 . S
C211 H199 0.929 . S
C211 C205 1.390 . S
C211 C208 1.386 . S
C212 C207 1.490 . S
C212 C214 1.395 1_455 S
C212 C215 1.403 1_545 S
H213 C219 0.930 . S
C214 H200 0.930 . S
C214 C212 1.395 1_655 S
C214 C217 1.401 1_554 S
C215 C212 1.403 1_565 S
C215 C216 1.524 . S
C215 C219 1.400 1_554 S
C216 H201 0.960 1_554 S
C216 H202 0.960 . S
C216 H203 0.960 1_564 S
C216 C215 1.524 . S
C217 C214 1.401 1_556 S
C217 C218 1.394 1_545 S
C217 C221 1.495 . S
C218 C217 1.394 1_565 S
C218 C219 1.385 1_655 S
C218 C220 1.478 . S
C219 H213 0.930 . S
C219 C215 1.400 1_556 S
C219 C218 1.385 1_455 S
C220 C218 1.478 . S
C220 C222 1.381 . S
C220 C226 1.383 . S
C221 C217 1.495 . S
C221 H227 0.959 1_556 S
C221 H228 0.961 . S
C221 H229 0.960 1_546 S
C222 C220 1.381 . S
C222 C223 1.394 . S
C222 H230 0.930 . S
C223 C222 1.394 . S
C223 C224 1.383 . S
C223 H231 0.929 . S
C224 C223 1.383 . S
C224 C225 1.377 . S
C225 H209 0.930 . S
C225 C224 1.377 . S
C225 C226 1.379 . S
C226 H210 0.931 . S
C226 C220 1.383 . S
C226 C225 1.379 . S
H227 C221 0.959 1_554 S
H228 C221 0.961 . S
H229 C221 0.960 1_564 S
H230 C222 0.930 . S
H231 C223 0.929 . S
H232 C240 0.929 . S
H233 C242 0.930 . S
H234 C244 0.930 . S
H235 C247 0.929 . S
H236 C250 0.930 . S
H237 C252 0.960 . S
H238 C252 0.960 . S
H239 C252 0.960 . S
C240 H232 0.929 . S
C240 C241 1.377 . S
C240 C242 1.384 . S
C241 C240 1.377 . S
C241 C247 1.390 . S
C242 H233 0.930 . S
C242 C240 1.384 . S
C242 C243 1.372 . S
C243 C242 1.372 . S
C243 C244 1.400 . S
C243 C248 1.490 . S
C244 H234 0.930 . S
C244 C243 1.400 . S
C244 C247 1.386 . S
H245 C261 0.930 . S
H246 C262 0.931 . S
C247 H235 0.929 . S
C247 C241 1.390 . S
C247 C244 1.386 . S
C248 C243 1.490 . S
C248 C250 1.395 1_556 S
C248 C251 1.403 1_545 S
H249 C255 0.930 . S
C250 H236 0.930 . S
C250 C248 1.395 1_554 S
C250 C253 1.403 . S
C251 C248 1.403 1_565 S
C251 C252 1.524 . S
C251 C255 1.400 . S
C252 H237 0.960 . S
C252 H238 0.960 . S
C252 H239 0.960 . S
C252 C251 1.524 . S
C253 C250 1.403 . S
C253 C254 1.392 1_545 S
C253 C257 1.495 . S
C254 C253 1.392 1_565 S
C254 C255 1.385 1_554 S
C254 C256 1.478 . S
C255 H249 0.930 . S
C255 C251 1.400 . S
C255 C254 1.385 1_556 S
C256 C254 1.478 . S
C256 C258 1.381 . S
C256 C262 1.383 . S
C257 C253 1.495 . S
C257 H263 0.959 . S
C257 H264 0.961 . S
C257 H265 0.960 . S
C258 C256 1.381 . S
C258 C259 1.394 . S
C258 H266 0.930 . S
C259 C258 1.394 . S
C259 C260 1.383 . S
C259 H267 0.929 . S
C260 C259 1.383 . S
C260 C261 1.377 . S
C261 H245 0.930 . S
C261 C260 1.377 . S
C261 C262 1.379 . S
C262 H246 0.931 . S
C262 C256 1.383 . S
C262 C261 1.379 . S
H263 C257 0.959 . S
H264 C257 0.961 . S
H265 C257 0.960 . S
H266 C258 0.930 . S
H267 C259 0.929 . S
H268 C276 0.929 . S
H269 C278 0.930 . S
H270 C280 0.930 . S
H271 C283 0.929 . S
H272 C286 0.930 . S
H273 C288 0.960 . S
H274 C288 0.960 . S
H275 C288 0.960 . S
C276 H268 0.929 . S
C276 C277 1.377 . S
C276 C278 1.384 . S
C277 C276 1.377 . S
C277 C283 1.390 . S
C278 H269 0.930 . S
C278 C276 1.384 . S
C278 C279 1.372 . S
C279 C278 1.372 . S
C279 C280 1.400 . S
C279 C284 1.490 . S
C280 H270 0.930 . S
C280 C279 1.400 . S
C280 C283 1.386 . S
H281 C297 0.930 . S
H282 C298 0.931 . S
C283 H271 0.929 . S
C283 C277 1.390 . S
C283 C280 1.386 . S
C284 C279 1.490 . S
C284 C286 1.395 1_655 S
C284 C287 1.403 . S
H285 C291 0.930 . S
C286 H272 0.930 . S
C286 C284 1.395 1_455 S
C286 C289 1.403 . S
C287 C284 1.403 . S
C287 C288 1.524 . S
C287 C291 1.400 . S
C288 H273 0.960 . S
C288 H274 0.960 . S
C288 H275 0.960 . S
C288 C287 1.524 . S
C289 C286 1.403 . S
C289 C290 1.392 . S
C289 C293 1.495 . S
C290 C289 1.392 . S
C290 C291 1.385 1_455 S
C290 C292 1.478 . S
C291 H285 0.930 . S
C291 C287 1.400 . S
C291 C290 1.385 1_655 S
C292 C290 1.478 . S
C292 C294 1.381 . S
C292 C298 1.383 . S
C293 C289 1.495 . S
C293 H299 0.959 . S
C293 H300 0.961 . S
C293 H301 0.960 . S
C294 C292 1.381 . S
C294 C295 1.394 . S
C294 H302 0.930 . S
C295 C294 1.394 . S
C295 C296 1.383 . S
C295 H303 0.929 . S
C296 C295 1.383 . S
C296 C297 1.377 . S
C297 H281 0.930 . S
C297 C296 1.377 . S
C297 C298 1.379 . S
C298 H282 0.931 . S
C298 C292 1.383 . S
C298 C297 1.379 . S
H299 C293 0.959 . S
H300 C293 0.961 . S
H301 C293 0.960 . S
H302 C294 0.930 . S
H303 C295 0.929 . S
H304 C312 0.929 . S
H305 C314 0.930 . S
H306 C316 0.930 . S
H307 C319 0.929 . S
H308 C322 0.930 . S
H309 C324 0.960 . S
H310 C324 0.960 . S
H311 C324 0.960 . S
C312 H304 0.929 . S
C312 C313 1.377 . S
C312 C314 1.384 . S
C313 C312 1.377 . S
C313 C319 1.390 . S
C314 H305 0.930 . S
C314 C312 1.384 . S
C314 C315 1.372 . S
C315 C314 1.372 . S
C315 C316 1.400 . S
C315 C320 1.490 . S
C316 H306 0.930 . S
C316 C315 1.400 . S
C316 C319 1.386 . S
H317 C333 0.930 . S
H318 C334 0.931 . S
C319 H307 0.929 . S
C319 C313 1.390 . S
C319 C316 1.386 . S
C320 C315 1.490 . S
C320 C322 1.395 . S
C320 C323 1.403 . S
H321 C327 0.930 . S
C322 H308 0.930 . S
C322 C320 1.395 . S
C322 C325 1.403 . S
C323 C320 1.403 . S
C323 C324 1.524 . S
C323 C327 1.400 . S
C324 H309 0.960 . S
C324 H310 0.960 . S
C324 H311 0.960 . S
C324 C323 1.524 . S
C325 C322 1.403 . S
C325 C326 1.392 . S
C325 C329 1.495 . S
C326 C325 1.392 . S
C326 C327 1.385 . S
C326 C328 1.478 . S
C327 H321 0.930 . S
C327 C323 1.400 . S
C327 C326 1.385 . S
C328 C326 1.478 . S
C328 C330 1.381 . S
C328 C334 1.383 . S
C329 C325 1.495 . S
C329 H335 0.959 . S
C329 H336 0.961 . S
C329 H337 0.960 . S
C330 C328 1.381 . S
C330 C331 1.394 . S
C330 H338 0.930 . S
C331 C330 1.394 . S
C331 C332 1.383 . S
C331 H339 0.929 . S
C332 C331 1.383 . S
C332 C333 1.377 . S
C333 H317 0.930 . S
C333 C332 1.377 . S
C333 C334 1.379 . S
C334 H318 0.931 . S
C334 C328 1.383 . S
C334 C333 1.379 . S
H335 C329 0.959 . S
H336 C329 0.961 . S
H337 C329 0.960 . S
H338 C330 0.930 . S
H339 C331 0.929 . S
C61 C18 0.675 . S
C80 C5 0.599 . S
C97 C8 0.522 . S
C116 C21 0.456 . S
C133 C44 0.658 . S
C152 C31 0.724 . S
C169 C34 0.514 . S
C188 C47 0.441 . S
C205 C10 1.540 . S
C224 C36 1.530 . S
C241 C49 1.539 . S
C260 C23 1.534 . S
C277 C26 1.516 . S
C296 C0 1.502 . S
C313 C13 1.517 . S
C332 C39 1.525 . S
