# Generated by pormake.
# Topology ulj, (4)-cn, num edge types: 1
# Building blocks:
#     Node 0, Type 0, BuildingBlock: NAWXER_clean_sbu_0, # of connection points: 4
#     Node 1, Type 0, BuildingBlock: NAWXER_clean_sbu_0, # of connection points: 4
#     Node 2, Type 0, BuildingBlock: NAWXER_clean_sbu_0, # of connection points: 4
#     Node 3, Type 0, BuildingBlock: NAWXER_clean_sbu_0, # of connection points: 4
#     Node 4, Type 0, BuildingBlock: NAWXER_clean_sbu_0, # of connection points: 4
#     Node 5, Type 0, BuildingBlock: NAWXER_clean_sbu_0, # of connection points: 4
#     Node 6, Type 0, BuildingBlock: NAWXER_clean_sbu_0, # of connection points: 4
#     Node 7, Type 0, BuildingBlock: NAWXER_clean_sbu_0, # of connection points: 4
#     Node 8, Type 0, BuildingBlock: NAWXER_clean_sbu_0, # of connection points: 4
#     Node 9, Type 0, BuildingBlock: NAWXER_clean_sbu_0, # of connection points: 4
#     Node 10, Type 0, BuildingBlock: NAWXER_clean_sbu_0, # of connection points: 4
#     Node 11, Type 0, BuildingBlock: NAWXER_clean_sbu_0, # of connection points: 4
#     Node 12, Type 0, BuildingBlock: NAWXER_clean_sbu_0, # of connection points: 4
#     Node 13, Type 0, BuildingBlock: NAWXER_clean_sbu_0, # of connection points: 4
#     Node 14, Type 0, BuildingBlock: NAWXER_clean_sbu_0, # of connection points: 4
#     Node 15, Type 0, BuildingBlock: NAWXER_clean_sbu_0, # of connection points: 4
#     Node 16, Type 0, BuildingBlock: NAWXER_clean_sbu_0, # of connection points: 4
#     Node 17, Type 0, BuildingBlock: NAWXER_clean_sbu_0, # of connection points: 4
#     Node 18, Type 0, BuildingBlock: NAWXER_clean_sbu_0, # of connection points: 4
#     Node 19, Type 0, BuildingBlock: NAWXER_clean_sbu_0, # of connection points: 4
#     Node 20, Type 0, BuildingBlock: NAWXER_clean_sbu_0, # of connection points: 4
#     Node 21, Type 0, BuildingBlock: NAWXER_clean_sbu_0, # of connection points: 4
#     Node 22, Type 0, BuildingBlock: NAWXER_clean_sbu_0, # of connection points: 4
#     Node 23, Type 0, BuildingBlock: NAWXER_clean_sbu_0, # of connection points: 4
#     Node 24, Type 0, BuildingBlock: NAWXER_clean_sbu_0, # of connection points: 4
#     Node 25, Type 0, BuildingBlock: NAWXER_clean_sbu_0, # of connection points: 4
#     Node 26, Type 0, BuildingBlock: NAWXER_clean_sbu_0, # of connection points: 4
#     Node 27, Type 0, BuildingBlock: NAWXER_clean_sbu_0, # of connection points: 4
#     Node 28, Type 0, BuildingBlock: NAWXER_clean_sbu_0, # of connection points: 4
#     Node 29, Type 0, BuildingBlock: NAWXER_clean_sbu_0, # of connection points: 4
#     Node 30, Type 0, BuildingBlock: NAWXER_clean_sbu_0, # of connection points: 4
#     Node 31, Type 0, BuildingBlock: NAWXER_clean_sbu_0, # of connection points: 4
#     Node 32, Type 0, BuildingBlock: NAWXER_clean_sbu_0, # of connection points: 4
#     Node 33, Type 0, BuildingBlock: NAWXER_clean_sbu_0, # of connection points: 4
#     Node 34, Type 0, BuildingBlock: NAWXER_clean_sbu_0, # of connection points: 4
#     Node 35, Type 0, BuildingBlock: NAWXER_clean_sbu_0, # of connection points: 4
#     Node 36, Type 0, BuildingBlock: NAWXER_clean_sbu_0, # of connection points: 4
#     Node 37, Type 0, BuildingBlock: NAWXER_clean_sbu_0, # of connection points: 4
#     Node 38, Type 0, BuildingBlock: NAWXER_clean_sbu_0, # of connection points: 4
#     Node 39, Type 0, BuildingBlock: NAWXER_clean_sbu_0, # of connection points: 4
#     Node 40, Type 0, BuildingBlock: NAWXER_clean_sbu_0, # of connection points: 4
#     Node 41, Type 0, BuildingBlock: NAWXER_clean_sbu_0, # of connection points: 4
#     Node 42, Type 0, BuildingBlock: NAWXER_clean_sbu_0, # of connection points: 4
#     Node 43, Type 0, BuildingBlock: NAWXER_clean_sbu_0, # of connection points: 4
#     Node 44, Type 0, BuildingBlock: NAWXER_clean_sbu_0, # of connection points: 4
#     Node 45, Type 0, BuildingBlock: NAWXER_clean_sbu_0, # of connection points: 4
#     Node 46, Type 0, BuildingBlock: NAWXER_clean_sbu_0, # of connection points: 4
#     Node 47, Type 0, BuildingBlock: NAWXER_clean_sbu_0, # of connection points: 4
#     Edge 48, Type (0, 0), BuildingBlock: OJICUG_clean_linker_0, # of connection points: 2
#     Edge 49, Type (0, 0), BuildingBlock: OJICUG_clean_linker_0, # of connection points: 2
#     Edge 50, Type (0, 0), BuildingBlock: OJICUG_clean_linker_0, # of connection points: 2
#     Edge 51, Type (0, 0), BuildingBlock: OJICUG_clean_linker_0, # of connection points: 2
#     Edge 52, Type (0, 0), BuildingBlock: OJICUG_clean_linker_0, # of connection points: 2
#     Edge 53, Type (0, 0), BuildingBlock: OJICUG_clean_linker_0, # of connection points: 2
#     Edge 54, Type (0, 0), BuildingBlock: OJICUG_clean_linker_0, # of connection points: 2
#     Edge 55, Type (0, 0), BuildingBlock: OJICUG_clean_linker_0, # of connection points: 2
#     Edge 56, Type (0, 0), BuildingBlock: OJICUG_clean_linker_0, # of connection points: 2
#     Edge 57, Type (0, 0), BuildingBlock: OJICUG_clean_linker_0, # of connection points: 2
#     Edge 58, Type (0, 0), BuildingBlock: OJICUG_clean_linker_0, # of connection points: 2
#     Edge 59, Type (0, 0), BuildingBlock: OJICUG_clean_linker_0, # of connection points: 2
#     Edge 60, Type (0, 0), BuildingBlock: OJICUG_clean_linker_0, # of connection points: 2
#     Edge 61, Type (0, 0), BuildingBlock: OJICUG_clean_linker_0, # of connection points: 2
#     Edge 62, Type (0, 0), BuildingBlock: OJICUG_clean_linker_0, # of connection points: 2
#     Edge 63, Type (0, 0), BuildingBlock: OJICUG_clean_linker_0, # of connection points: 2
#     Edge 64, Type (0, 0), BuildingBlock: OJICUG_clean_linker_0, # of connection points: 2
#     Edge 65, Type (0, 0), BuildingBlock: OJICUG_clean_linker_0, # of connection points: 2
#     Edge 66, Type (0, 0), BuildingBlock: OJICUG_clean_linker_0, # of connection points: 2
#     Edge 67, Type (0, 0), BuildingBlock: OJICUG_clean_linker_0, # of connection points: 2
#     Edge 68, Type (0, 0), BuildingBlock: OJICUG_clean_linker_0, # of connection points: 2
#     Edge 69, Type (0, 0), BuildingBlock: OJICUG_clean_linker_0, # of connection points: 2
#     Edge 70, Type (0, 0), BuildingBlock: OJICUG_clean_linker_0, # of connection points: 2
#     Edge 71, Type (0, 0), BuildingBlock: OJICUG_clean_linker_0, # of connection points: 2
#     Edge 72, Type (0, 0), BuildingBlock: OJICUG_clean_linker_0, # of connection points: 2
#     Edge 73, Type (0, 0), BuildingBlock: OJICUG_clean_linker_0, # of connection points: 2
#     Edge 74, Type (0, 0), BuildingBlock: OJICUG_clean_linker_0, # of connection points: 2
#     Edge 75, Type (0, 0), BuildingBlock: OJICUG_clean_linker_0, # of connection points: 2
#     Edge 76, Type (0, 0), BuildingBlock: OJICUG_clean_linker_0, # of connection points: 2
#     Edge 77, Type (0, 0), BuildingBlock: OJICUG_clean_linker_0, # of connection points: 2
#     Edge 78, Type (0, 0), BuildingBlock: OJICUG_clean_linker_0, # of connection points: 2
#     Edge 79, Type (0, 0), BuildingBlock: OJICUG_clean_linker_0, # of connection points: 2
#     Edge 80, Type (0, 0), BuildingBlock: OJICUG_clean_linker_0, # of connection points: 2
#     Edge 81, Type (0, 0), BuildingBlock: OJICUG_clean_linker_0, # of connection points: 2
#     Edge 82, Type (0, 0), BuildingBlock: OJICUG_clean_linker_0, # of connection points: 2
#     Edge 83, Type (0, 0), BuildingBlock: OJICUG_clean_linker_0, # of connection points: 2
#     Edge 84, Type (0, 0), BuildingBlock: OJICUG_clean_linker_0, # of connection points: 2
#     Edge 85, Type (0, 0), BuildingBlock: OJICUG_clean_linker_0, # of connection points: 2
#     Edge 86, Type (0, 0), BuildingBlock: OJICUG_clean_linker_0, # of connection points: 2
#     Edge 87, Type (0, 0), BuildingBlock: OJICUG_clean_linker_0, # of connection points: 2
#     Edge 88, Type (0, 0), BuildingBlock: OJICUG_clean_linker_0, # of connection points: 2
#     Edge 89, Type (0, 0), BuildingBlock: OJICUG_clean_linker_0, # of connection points: 2
#     Edge 90, Type (0, 0), BuildingBlock: OJICUG_clean_linker_0, # of connection points: 2
#     Edge 91, Type (0, 0), BuildingBlock: OJICUG_clean_linker_0, # of connection points: 2
#     Edge 92, Type (0, 0), BuildingBlock: OJICUG_clean_linker_0, # of connection points: 2
#     Edge 93, Type (0, 0), BuildingBlock: OJICUG_clean_linker_0, # of connection points: 2
#     Edge 94, Type (0, 0), BuildingBlock: OJICUG_clean_linker_0, # of connection points: 2
#     Edge 95, Type (0, 0), BuildingBlock: OJICUG_clean_linker_0, # of connection points: 2
#     Edge 96, Type (0, 0), BuildingBlock: OJICUG_clean_linker_0, # of connection points: 2
#     Edge 97, Type (0, 0), BuildingBlock: OJICUG_clean_linker_0, # of connection points: 2
#     Edge 98, Type (0, 0), BuildingBlock: OJICUG_clean_linker_0, # of connection points: 2
#     Edge 99, Type (0, 0), BuildingBlock: OJICUG_clean_linker_0, # of connection points: 2
#     Edge 100, Type (0, 0), BuildingBlock: OJICUG_clean_linker_0, # of connection points: 2
#     Edge 101, Type (0, 0), BuildingBlock: OJICUG_clean_linker_0, # of connection points: 2
#     Edge 102, Type (0, 0), BuildingBlock: OJICUG_clean_linker_0, # of connection points: 2
#     Edge 103, Type (0, 0), BuildingBlock: OJICUG_clean_linker_0, # of connection points: 2
#     Edge 104, Type (0, 0), BuildingBlock: OJICUG_clean_linker_0, # of connection points: 2
#     Edge 105, Type (0, 0), BuildingBlock: OJICUG_clean_linker_0, # of connection points: 2
#     Edge 106, Type (0, 0), BuildingBlock: OJICUG_clean_linker_0, # of connection points: 2
#     Edge 107, Type (0, 0), BuildingBlock: OJICUG_clean_linker_0, # of connection points: 2
#     Edge 108, Type (0, 0), BuildingBlock: OJICUG_clean_linker_0, # of connection points: 2
#     Edge 109, Type (0, 0), BuildingBlock: OJICUG_clean_linker_0, # of connection points: 2
#     Edge 110, Type (0, 0), BuildingBlock: OJICUG_clean_linker_0, # of connection points: 2
#     Edge 111, Type (0, 0), BuildingBlock: OJICUG_clean_linker_0, # of connection points: 2
#     Edge 112, Type (0, 0), BuildingBlock: OJICUG_clean_linker_0, # of connection points: 2
#     Edge 113, Type (0, 0), BuildingBlock: OJICUG_clean_linker_0, # of connection points: 2
#     Edge 114, Type (0, 0), BuildingBlock: OJICUG_clean_linker_0, # of connection points: 2
#     Edge 115, Type (0, 0), BuildingBlock: OJICUG_clean_linker_0, # of connection points: 2
#     Edge 116, Type (0, 0), BuildingBlock: OJICUG_clean_linker_0, # of connection points: 2
#     Edge 117, Type (0, 0), BuildingBlock: OJICUG_clean_linker_0, # of connection points: 2
#     Edge 118, Type (0, 0), BuildingBlock: OJICUG_clean_linker_0, # of connection points: 2
#     Edge 119, Type (0, 0), BuildingBlock: OJICUG_clean_linker_0, # of connection points: 2
#     Edge 120, Type (0, 0), BuildingBlock: OJICUG_clean_linker_0, # of connection points: 2
#     Edge 121, Type (0, 0), BuildingBlock: OJICUG_clean_linker_0, # of connection points: 2
#     Edge 122, Type (0, 0), BuildingBlock: OJICUG_clean_linker_0, # of connection points: 2
#     Edge 123, Type (0, 0), BuildingBlock: OJICUG_clean_linker_0, # of connection points: 2
#     Edge 124, Type (0, 0), BuildingBlock: OJICUG_clean_linker_0, # of connection points: 2
#     Edge 125, Type (0, 0), BuildingBlock: OJICUG_clean_linker_0, # of connection points: 2
#     Edge 126, Type (0, 0), BuildingBlock: OJICUG_clean_linker_0, # of connection points: 2
#     Edge 127, Type (0, 0), BuildingBlock: OJICUG_clean_linker_0, # of connection points: 2
#     Edge 128, Type (0, 0), BuildingBlock: OJICUG_clean_linker_0, # of connection points: 2
#     Edge 129, Type (0, 0), BuildingBlock: OJICUG_clean_linker_0, # of connection points: 2
#     Edge 130, Type (0, 0), BuildingBlock: OJICUG_clean_linker_0, # of connection points: 2
#     Edge 131, Type (0, 0), BuildingBlock: OJICUG_clean_linker_0, # of connection points: 2
#     Edge 132, Type (0, 0), BuildingBlock: OJICUG_clean_linker_0, # of connection points: 2
#     Edge 133, Type (0, 0), BuildingBlock: OJICUG_clean_linker_0, # of connection points: 2
#     Edge 134, Type (0, 0), BuildingBlock: OJICUG_clean_linker_0, # of connection points: 2
#     Edge 135, Type (0, 0), BuildingBlock: OJICUG_clean_linker_0, # of connection points: 2
#     Edge 136, Type (0, 0), BuildingBlock: OJICUG_clean_linker_0, # of connection points: 2
#     Edge 137, Type (0, 0), BuildingBlock: OJICUG_clean_linker_0, # of connection points: 2
#     Edge 138, Type (0, 0), BuildingBlock: OJICUG_clean_linker_0, # of connection points: 2
#     Edge 139, Type (0, 0), BuildingBlock: OJICUG_clean_linker_0, # of connection points: 2
#     Edge 140, Type (0, 0), BuildingBlock: OJICUG_clean_linker_0, # of connection points: 2
#     Edge 141, Type (0, 0), BuildingBlock: OJICUG_clean_linker_0, # of connection points: 2
#     Edge 142, Type (0, 0), BuildingBlock: OJICUG_clean_linker_0, # of connection points: 2
#     Edge 143, Type (0, 0), BuildingBlock: OJICUG_clean_linker_0, # of connection points: 2
# Relax obj value: 0.095
# Max RMSD: 0.223
# Mean RMSD: 0.216
data_MOF--net-ulj--node1-NAWXER_clean_sbu_0--edge1-OJICUG_clean_linker_0
_symmetry_space_group_name_H-M    P1
_symmetry_Int_Tables_number       1
_symmetry_cell_setting            triclinic
loop_
_symmetry_equiv_pos_as_xyz
'x, y, z'
_cell_length_a     47.914225
_cell_length_b     47.91586
_cell_length_c     47.914761
_cell_angle_alpha  89.994717
_cell_angle_beta   89.996244
_cell_angle_gamma 90.000693
loop_
_atom_site_label
_atom_site_type_symbol
_atom_site_fract_x
_atom_site_fract_y
_atom_site_fract_z
_atom_type_partial_charge
C0 C 0.14322 0.26365 0.26996 0.0
C1 C 0.09839 0.1951 0.32923 0.0
O2 O 0.15463 0.26278 0.2942 0.0
Zn3 Zn 0.14865 0.23956 0.3325 0.0
O4 O 0.12252 0.24799 0.2647 0.0
Zn5 Zn 0.12075 0.22969 0.3 0.0
O6 O 0.10697 0.26218 0.32777 0.0
O7 O 0.13991 0.26775 0.35955 0.0
O8 O 0.09303 0.20132 0.30406 0.0
O9 O 0.11821 0.20769 0.34214 0.0
O10 O 0.18391 0.22044 0.33617 0.0
O11 O 0.15871 0.20602 0.30041 0.0
C12 C 0.11627 0.27448 0.34966 0.0
C13 C 0.18099 0.20457 0.31513 0.0
C14 C 0.52439 0.61962 0.88619 0.0
C15 C 0.45446 0.55489 0.92069 0.0
O16 O 0.51766 0.59598 0.8763 0.0
Zn17 Zn 0.48946 0.58724 0.90335 0.0
O18 O 0.51209 0.62891 0.90808 0.0
Zn19 Zn 0.47959 0.61513 0.93585 0.0
O20 O 0.49788 0.61335 0.97115 0.0
O21 O 0.51268 0.58124 0.94164 0.0
O22 O 0.45591 0.57717 0.93542 0.0
O23 O 0.47034 0.55199 0.89966 0.0
O24 O 0.45759 0.61769 0.89371 0.0
O25 O 0.45122 0.64285 0.9318 0.0
C26 C 0.51354 0.59264 0.96588 0.0
C27 C 0.445 0.6375 0.90662 0.0
C28 C 0.86958 0.21153 0.34966 0.0
C29 C 0.80485 0.28143 0.31511 0.0
O30 O 0.87888 0.22384 0.32777 0.0
Zn31 Zn 0.86511 0.25632 0.29999 0.0
O32 O 0.84593 0.21825 0.35954 0.0
Zn33 Zn 0.8372 0.24645 0.33249 0.0
O34 O 0.83123 0.22322 0.29419 0.0
O35 O 0.86334 0.23802 0.26469 0.0
O36 O 0.80193 0.26557 0.33615 0.0
O37 O 0.82714 0.27998 0.30039 0.0
O38 O 0.89282 0.2847 0.30405 0.0
O39 O 0.86763 0.27833 0.34213 0.0
C40 C 0.84264 0.22236 0.26996 0.0
C41 C 0.88745 0.29092 0.32923 0.0
C42 C 0.53137 0.93101 0.92079 0.0
C43 C 0.46142 0.86633 0.88627 0.0
O44 O 0.5155 0.93394 0.89976 0.0
Zn45 Zn 0.49636 0.89869 0.90343 0.0
O46 O 0.52991 0.90872 0.93551 0.0
Zn47 Zn 0.50622 0.87078 0.93592 0.0
O48 O 0.53458 0.84304 0.93186 0.0
O49 O 0.52822 0.86824 0.89379 0.0
O50 O 0.47372 0.85702 0.90815 0.0
O51 O 0.46815 0.88998 0.87638 0.0
O52 O 0.47315 0.90468 0.94174 0.0
O53 O 0.48792 0.87255 0.97123 0.0
C54 C 0.5408 0.84841 0.90668 0.0
C55 C 0.47228 0.89327 0.96597 0.0
C56 C 0.11638 0.71138 0.13629 0.0
C57 C 0.18108 0.78132 0.17081 0.0
O58 O 0.10708 0.72369 0.15817 0.0
Zn59 Zn 0.12084 0.75617 0.18595 0.0
O60 O 0.14003 0.71811 0.1264 0.0
Zn61 Zn 0.14875 0.74631 0.15345 0.0
O62 O 0.15475 0.7231 0.19175 0.0
O63 O 0.12262 0.73788 0.22125 0.0
O64 O 0.18401 0.76545 0.14978 0.0
O65 O 0.15879 0.77986 0.18553 0.0
O66 O 0.09311 0.78454 0.18189 0.0
O67 O 0.1183 0.77818 0.14381 0.0
C68 C 0.14334 0.72223 0.21599 0.0
C69 C 0.09848 0.79076 0.15671 0.0
C70 C 0.04089 0.63747 0.07926 0.0
C71 C 0.97234 0.59267 0.01997 0.0
O72 O 0.03468 0.64284 0.05409 0.0
Zn73 Zn 0.0063 0.61513 0.05002 0.0
O74 O 0.0283 0.61765 0.09216 0.0
Zn75 Zn -0.00358 0.58722 0.08251 0.0
O76 O 0.01554 0.55196 0.08617 0.0
O77 O 0.02996 0.57717 0.05042 0.0
O78 O 0.9732 0.58125 0.04421 0.0
O79 O 0.988 0.61337 0.01471 0.0
O80 O 0.97381 0.6289 0.07779 0.0
O81 O 0.96822 0.59595 0.10956 0.0
C82 C 0.03141 0.55488 0.06514 0.0
C83 C 0.96149 0.6196 0.09968 0.0
C84 C 0.80487 0.70447 0.17073 0.0
C85 C 0.86961 0.7744 0.13625 0.0
O86 O 0.82715 0.70592 0.18547 0.0
Zn87 Zn 0.86511 0.7296 0.1859 0.0
O88 O 0.80196 0.72034 0.14971 0.0
Zn89 Zn 0.83722 0.73947 0.15339 0.0
O90 O 0.86767 0.70761 0.14376 0.0
O91 O 0.89284 0.70123 0.18184 0.0
O92 O 0.84596 0.76768 0.12635 0.0
O93 O 0.87889 0.76209 0.15814 0.0
O94 O 0.86332 0.74788 0.2212 0.0
O95 O 0.83122 0.76268 0.19169 0.0
C96 C 0.88749 0.69502 0.15667 0.0
C97 C 0.84261 0.76354 0.21593 0.0
C98 C 0.94511 0.84835 0.07928 0.0
C99 C 0.01367 0.89317 0.02 0.0
O100 O 0.95133 0.84299 0.05411 0.0
Zn101 Zn 0.97971 0.8707 0.05005 0.0
O102 O 0.9577 0.86817 0.09218 0.0
Zn103 Zn 0.98959 0.8986 0.08254 0.0
O104 O 0.97047 0.93386 0.08621 0.0
O105 O 0.95605 0.90866 0.05046 0.0
O106 O 0.01281 0.90458 0.04424 0.0
O107 O -0.00199 0.87246 0.01475 0.0
O108 O 0.0122 0.85692 0.07782 0.0
O109 O 0.01778 0.88986 0.10959 0.0
C110 C 0.9546 0.93095 0.06518 0.0
C111 C 0.02451 0.86621 0.09971 0.0
C112 C 0.26996 0.14328 0.26363 0.0
C113 C 0.32927 0.09846 0.19511 0.0
O114 O 0.29419 0.1547 0.26277 0.0
Zn115 Zn 0.3325 0.14872 0.23956 0.0
O116 O 0.2647 0.12257 0.24798 0.0
Zn117 Zn 0.30001 0.12081 0.22969 0.0
O118 O 0.32777 0.10704 0.26219 0.0
O119 O 0.35954 0.14 0.26777 0.0
O120 O 0.30409 0.09309 0.20132 0.0
O121 O 0.34216 0.11828 0.2077 0.0
O122 O 0.33617 0.18398 0.22043 0.0
O123 O 0.30042 0.15876 0.20601 0.0
C124 C 0.34966 0.11635 0.2745 0.0
C125 C 0.31514 0.18105 0.20456 0.0
C126 C 0.36622 0.38622 0.96136 0.0
C127 C 0.43095 0.42077 0.03125 0.0
O128 O 0.38987 0.37634 0.96808 0.0
Zn129 Zn 0.39861 0.4034 -0.00373 0.0
O130 O 0.35692 0.40811 0.97367 0.0
Zn131 Zn 0.3707 0.43589 0.00614 0.0
O132 O 0.37245 0.47119 0.98783 0.0
O133 O 0.40458 0.4417 0.97304 0.0
O134 O 0.40866 0.43549 0.0298 0.0
O135 O 0.43387 0.39974 0.01538 0.0
O136 O 0.36818 0.39376 0.02816 0.0
O137 O 0.34299 0.43183 0.03452 0.0
C138 C 0.39316 0.46593 0.97217 0.0
C139 C 0.34836 0.40666 0.04075 0.0
C140 C 0.6566 0.38745 0.19498 0.0
C141 C 0.71589 0.34266 0.26354 0.0
O142 O 0.64371 0.36763 0.20758 0.0
Zn143 Zn 0.65336 0.3372 0.23946 0.0
O144 O 0.68177 0.39283 0.2012 0.0
Zn145 Zn 0.68585 0.36511 0.22958 0.0
O146 O 0.68545 0.32715 0.20591 0.0
O147 O 0.64971 0.30194 0.22034 0.0
O148 O 0.72115 0.36336 0.24787 0.0
O149 O 0.69166 0.33124 0.26268 0.0
O150 O 0.62631 0.34593 0.26766 0.0
O151 O 0.65807 0.37888 0.26207 0.0
C152 C 0.67073 0.30486 0.20447 0.0
C153 C 0.63619 0.36958 0.27438 0.0
C154 C 0.55496 0.06512 0.03135 0.0
C155 C 0.61971 0.09962 0.96143 0.0
O156 O 0.55205 0.08614 0.01547 0.0
Zn157 Zn 0.58731 0.08246 -0.00365 0.0
O158 O 0.57724 0.05039 0.02991 0.0
Zn159 Zn 0.61521 0.04996 0.00624 0.0
O160 O 0.64292 0.05402 0.03462 0.0
O161 O 0.61775 0.0921 0.02823 0.0
O162 O 0.629 0.07773 0.97375 0.0
O163 O 0.59606 0.10951 0.96815 0.0
O164 O 0.58132 0.04416 0.97314 0.0
O165 O 0.61343 0.01466 0.98794 0.0
C166 C 0.63756 0.0792 0.04083 0.0
C167 C 0.59272 0.01992 0.97228 0.0
C168 C 0.32923 0.88755 0.29087 0.0
C169 C 0.26999 0.84268 0.22231 0.0
O170 O 0.34214 0.86773 0.27828 0.0
Zn171 Zn 0.33252 0.83729 0.24641 0.0
O172 O 0.30405 0.8929 0.28465 0.0
Zn173 Zn 0.30001 0.86517 0.25627 0.0
O174 O 0.30044 0.82722 0.27995 0.0
O175 O 0.33621 0.80203 0.26554 0.0
O176 O 0.26471 0.86338 0.23797 0.0
O177 O 0.29423 0.83128 0.22319 0.0
O178 O 0.35958 0.84603 0.21821 0.0
O179 O 0.32779 0.87896 0.22379 0.0
C180 C 0.31518 0.80494 0.28141 0.0
C181 C 0.34968 0.86968 0.21148 0.0
C182 C 0.11959 0.38622 0.02445 0.0
C183 C 0.05487 0.42076 0.95453 0.0
O184 O 0.09594 0.37634 0.01773 0.0
Zn185 Zn 0.08721 0.40339 0.98953 0.0
O186 O 0.12889 0.4081 0.01213 0.0
Zn187 Zn 0.11512 0.43587 0.97964 0.0
O188 O 0.11337 0.47118 -0.00207 0.0
O189 O 0.08125 0.44169 0.01274 0.0
O190 O 0.07716 0.43547 0.95598 0.0
O191 O 0.05194 0.39974 0.97041 0.0
O192 O 0.11763 0.39373 0.95764 0.0
O193 O 0.14284 0.43179 0.95125 0.0
C194 C 0.09267 0.46592 0.0136 0.0
C195 C 0.13746 0.40662 0.94504 0.0
C196 C 0.65666 0.59831 0.29078 0.0
C197 C 0.71592 0.64315 0.22222 0.0
O198 O 0.64376 0.61813 0.2782 0.0
Zn199 Zn 0.65339 0.64857 0.24632 0.0
O200 O 0.68183 0.59294 0.28455 0.0
Zn201 Zn 0.68588 0.62067 0.25618 0.0
O202 O 0.68548 0.65862 0.27986 0.0
O203 O 0.64972 0.68383 0.26544 0.0
O204 O 0.72118 0.62244 0.23787 0.0
O205 O 0.69169 0.65456 0.22309 0.0
O206 O 0.62633 0.63984 0.21813 0.0
O207 O 0.6581 0.6069 0.2237 0.0
C208 C 0.67075 0.68091 0.28131 0.0
C209 C 0.63621 0.6162 0.21139 0.0
C210 C 0.9311 0.06508 0.95462 0.0
C211 C 0.86638 0.09962 0.02453 0.0
O212 O 0.93402 0.08611 0.97049 0.0
Zn213 Zn 0.89876 0.08245 0.98961 0.0
O214 O 0.9088 0.05037 0.95607 0.0
Zn215 Zn 0.87084 0.04997 0.97974 0.0
O216 O 0.84313 0.05404 0.95136 0.0
O217 O 0.86833 0.0921 0.95773 0.0
O218 O 0.85707 0.07774 0.01223 0.0
O219 O 0.89003 0.1095 0.01781 0.0
O220 O 0.90473 0.04415 0.01283 0.0
O221 O 0.8726 0.01466 -0.00196 0.0
C222 C 0.84851 0.07921 0.94514 0.0
C223 C 0.89331 0.01992 0.01369 0.0
C224 C 0.20453 0.31516 0.18101 0.0
C225 C 0.27444 0.34967 0.11626 0.0
O226 O 0.20598 0.30043 0.15873 0.0
Zn227 Zn 0.22965 0.30001 0.12077 0.0
O228 O 0.22041 0.33618 0.18392 0.0
Zn229 Zn 0.23953 0.33251 0.14866 0.0
O230 O 0.20765 0.34214 0.11823 0.0
O231 O 0.20127 0.30406 0.09305 0.0
O232 O 0.26772 0.35956 0.13991 0.0
O233 O 0.26213 0.32778 0.10698 0.0
O234 O 0.24795 0.26471 0.12254 0.0
O235 O 0.26275 0.29421 0.15465 0.0
C236 C 0.19505 0.32923 0.09841 0.0
C237 C 0.26362 0.26998 0.14325 0.0
C238 C 0.26373 0.71596 0.34272 0.0
C239 C 0.19519 0.65666 0.38753 0.0
O240 O 0.26288 0.69173 0.33131 0.0
Zn241 Zn 0.23967 0.65342 0.33729 0.0
O242 O 0.24807 0.72121 0.36343 0.0
Zn243 Zn 0.22979 0.68591 0.36519 0.0
O244 O 0.26227 0.65814 0.37897 0.0
O245 O 0.26787 0.62638 0.34602 0.0
O246 O 0.2014 0.68184 0.3929 0.0
O247 O 0.20779 0.64377 0.36771 0.0
O248 O 0.22056 0.64975 0.30202 0.0
O249 O 0.20612 0.68549 0.32723 0.0
C250 C 0.27459 0.63626 0.36968 0.0
C251 C 0.20468 0.67077 0.30494 0.0
C252 C 0.88624 0.46149 0.86631 0.0
C253 C 0.92079 0.5314 0.93103 0.0
O254 O 0.87635 0.46822 0.88995 0.0
Zn255 Zn 0.90341 0.49641 0.89869 0.0
O256 O 0.90813 0.4738 0.85701 0.0
Zn257 Zn 0.93591 0.50628 0.87078 0.0
O258 O 0.97121 0.48798 0.87254 0.0
O259 O 0.9417 0.47318 0.90466 0.0
O260 O 0.93551 0.52995 0.90874 0.0
O261 O 0.89976 0.51553 0.93395 0.0
O262 O 0.89377 0.52829 0.86826 0.0
O263 O 0.93185 0.53466 0.84306 0.0
C264 C 0.96594 0.47231 0.89325 0.0
C265 C 0.90667 0.54088 0.84843 0.0
C266 C 0.78128 0.81506 0.30485 0.0
C267 C 0.71134 0.84957 0.36956 0.0
O268 O 0.77984 0.80034 0.32714 0.0
Zn269 Zn 0.75616 0.79993 0.3651 0.0
O270 O 0.7654 0.83608 0.30193 0.0
Zn271 Zn 0.74627 0.83241 0.33719 0.0
O272 O 0.77814 0.84207 0.36762 0.0
O273 O 0.78453 0.80401 0.39282 0.0
O274 O 0.71806 0.85945 0.34591 0.0
O275 O 0.72365 0.82769 0.37886 0.0
O276 O 0.73787 0.76461 0.36334 0.0
O277 O 0.72308 0.7941 0.33121 0.0
C278 C 0.79073 0.82919 0.38745 0.0
C279 C 0.72222 0.76986 0.34263 0.0
C280 C 0.59969 0.52436 0.36629 0.0
C281 C 0.56518 0.45445 0.43104 0.0
O282 O 0.60959 0.51764 0.38993 0.0
Zn283 Zn 0.58253 0.48944 0.39868 0.0
O284 O 0.57779 0.51206 0.35701 0.0
Zn285 Zn 0.55002 0.47958 0.3708 0.0
O286 O 0.51472 0.49789 0.37259 0.0
O287 O 0.54425 0.51267 0.40469 0.0
O288 O 0.55045 0.45591 0.40876 0.0
O289 O 0.58622 0.47031 0.43394 0.0
O290 O 0.59215 0.45757 0.36823 0.0
O291 O 0.55406 0.45121 0.34307 0.0
C292 C 0.52 0.51355 0.39329 0.0
C293 C 0.57924 0.44499 0.34842 0.0
C294 C 0.28137 0.67078 0.68103 0.0
C295 C 0.21149 0.63621 0.6163 0.0
O296 O 0.27993 0.68549 0.65874 0.0
Zn297 Zn 0.25627 0.68588 0.62077 0.0
O298 O 0.26551 0.64975 0.68396 0.0
Zn299 Zn 0.2464 0.65339 0.64868 0.0
O300 O 0.27829 0.64375 0.61827 0.0
O301 O 0.28466 0.68181 0.59306 0.0
O302 O 0.21821 0.62633 0.63995 0.0
O303 O 0.2238 0.6581 0.607 0.0
O304 O 0.23796 0.72118 0.62252 0.0
O305 O 0.22316 0.69169 0.65464 0.0
C306 C 0.29089 0.65664 0.59844 0.0
C307 C 0.22229 0.71592 0.64322 0.0
C308 C 0.90668 0.44512 0.63749 0.0
C309 C 0.96596 0.51367 0.59266 0.0
O310 O 0.93185 0.45134 0.64285 0.0
Zn311 Zn 0.93591 0.47971 0.61513 0.0
O312 O 0.89378 0.45771 0.61767 0.0
Zn313 Zn 0.90342 0.48959 0.58723 0.0
O314 O 0.89975 0.47047 0.55197 0.0
O315 O 0.9355 0.45605 0.57717 0.0
O316 O 0.94172 0.51281 0.58125 0.0
O317 O 0.97122 0.49801 0.61336 0.0
O318 O 0.90814 0.5122 0.62891 0.0
O319 O 0.87637 0.51779 0.59597 0.0
C320 C 0.92078 0.4546 0.55488 0.0
C321 C 0.88626 0.52451 0.61962 0.0
C322 C 0.07918 0.04078 0.63744 0.0
C323 C 0.01987 0.97227 0.59258 0.0
O324 O 0.054 0.03457 0.6428 0.0
Zn325 Zn 0.04992 0.0062 0.61507 0.0
O326 O 0.09207 0.02819 0.61761 0.0
Zn327 Zn 0.08241 -0.00367 0.58716 0.0
O328 O 0.08609 0.01547 0.55191 0.0
O329 O 0.05034 0.02989 0.57712 0.0
O330 O 0.04411 0.97313 0.58117 0.0
O331 O 0.01461 0.98792 0.6133 0.0
O332 O 0.07769 0.9737 0.62883 0.0
O333 O 0.10946 0.96812 0.59588 0.0
C334 C 0.06506 0.03135 0.55483 0.0
C335 C 0.09957 0.96139 0.61953 0.0
C336 C 0.681 0.70456 0.81513 0.0
C337 C 0.61626 0.77446 0.84967 0.0
O338 O 0.65871 0.70601 0.80041 0.0
Zn339 Zn 0.62075 0.72968 0.8 0.0
O340 O 0.68391 0.72042 0.83616 0.0
Zn341 Zn 0.64865 0.73955 0.8325 0.0
O342 O 0.61821 0.70767 0.84213 0.0
O343 O 0.59303 0.7013 0.80405 0.0
O344 O 0.63991 0.76774 0.85955 0.0
O345 O 0.60697 0.76216 0.82778 0.0
O346 O 0.62251 0.74798 0.7647 0.0
O347 O 0.65463 0.76277 0.7942 0.0
C348 C 0.59839 0.69508 0.82923 0.0
C349 C 0.64322 0.76364 0.76996 0.0
C350 C 0.95446 0.05492 0.42071 0.0
C351 C 0.0244 0.11964 0.38621 0.0
O352 O 0.97034 0.05201 0.39968 0.0
Zn353 Zn 0.98947 0.08726 0.40337 0.0
O354 O 0.95591 0.0772 0.43544 0.0
Zn355 Zn 0.97959 0.11515 0.43587 0.0
O356 O 0.95123 0.14288 0.43181 0.0
O357 O 0.9576 0.11771 0.39373 0.0
O358 O 0.01209 0.12893 0.4081 0.0
O359 O 0.01767 0.096 0.37632 0.0
O360 O 0.01268 0.08126 0.44166 0.0
O361 O -0.00211 0.11337 0.47117 0.0
C362 C 0.94501 0.13753 0.40664 0.0
C363 C 0.01354 0.09266 0.4659 0.0
C364 C 0.36956 0.71151 0.84966 0.0
C365 C 0.30484 0.78142 0.81512 0.0
O366 O 0.37886 0.72382 0.82777 0.0
Zn367 Zn 0.36509 0.75631 0.8 0.0
O368 O 0.34591 0.71824 0.85955 0.0
Zn369 Zn 0.33719 0.74644 0.8325 0.0
O370 O 0.33122 0.72322 0.7942 0.0
O371 O 0.36333 0.73802 0.7647 0.0
O372 O 0.30192 0.76556 0.83616 0.0
O373 O 0.32713 0.77998 0.8004 0.0
O374 O 0.39281 0.78469 0.80407 0.0
O375 O 0.36762 0.77831 0.84214 0.0
C376 C 0.34263 0.72235 0.76997 0.0
C377 C 0.38744 0.7909 0.82925 0.0
C378 C 0.03137 0.43105 0.42076 0.0
C379 C 0.96142 0.36636 0.38623 0.0
O380 O 0.0155 0.43398 0.39973 0.0
Zn381 Zn -0.00364 0.39872 0.4034 0.0
O382 O 0.02991 0.40876 0.43548 0.0
Zn383 Zn 0.00622 0.37081 0.43589 0.0
O384 O 0.03459 0.34308 0.43183 0.0
O385 O 0.02823 0.36828 0.39375 0.0
O386 O 0.97373 0.35705 0.40812 0.0
O387 O 0.96816 0.39 0.37635 0.0
O388 O 0.97314 0.40471 0.4417 0.0
O389 O 0.98792 0.37258 0.47119 0.0
C390 C 0.04081 0.34845 0.40665 0.0
C391 C 0.97227 0.3933 0.46593 0.0
C392 C 0.64335 0.22222 0.71597 0.0
C393 C 0.59849 0.29075 0.6567 0.0
O394 O 0.65476 0.22309 0.69173 0.0
Zn395 Zn 0.64876 0.24631 0.65343 0.0
O396 O 0.62264 0.23787 0.72124 0.0
Zn397 Zn 0.62086 0.25617 0.68593 0.0
O398 O 0.60709 0.22368 0.65816 0.0
O399 O 0.64004 0.21811 0.62639 0.0
O400 O 0.59313 0.28454 0.68187 0.0
O401 O 0.61831 0.27817 0.6438 0.0
O402 O 0.68402 0.26545 0.64976 0.0
O403 O 0.65881 0.27986 0.68552 0.0
C404 C 0.61639 0.21137 0.63627 0.0
C405 C 0.6811 0.28132 0.67079 0.0
C406 C 0.54091 0.13743 0.57929 0.0
C407 C 0.47233 0.09264 0.52002 0.0
O408 O 0.53469 0.1428 0.55411 0.0
Zn409 Zn 0.5063 0.11509 0.55005 0.0
O410 O 0.52832 0.11761 0.59219 0.0
Zn411 Zn 0.49643 0.08719 0.58255 0.0
O412 O 0.51554 0.05192 0.5862 0.0
O413 O 0.52996 0.07713 0.55045 0.0
O414 O 0.4732 0.08122 0.54426 0.0
O415 O 0.488 0.11334 0.51476 0.0
O416 O 0.47382 0.12887 0.57783 0.0
O417 O 0.46824 0.09592 0.60961 0.0
C418 C 0.53141 0.05484 0.56517 0.0
C419 C 0.46151 0.11957 0.59972 0.0
C420 C 0.30489 0.20446 0.67075 0.0
C421 C 0.36963 0.27439 0.63626 0.0
O422 O 0.32717 0.20591 0.68548 0.0
Zn423 Zn 0.36513 0.22959 0.68591 0.0
O424 O 0.30198 0.22033 0.64972 0.0
Zn425 Zn 0.33724 0.23946 0.65341 0.0
O426 O 0.36769 0.20759 0.64378 0.0
O427 O 0.39285 0.20121 0.68187 0.0
O428 O 0.34599 0.26766 0.62636 0.0
O429 O 0.37891 0.26208 0.65815 0.0
O430 O 0.36334 0.24788 0.72122 0.0
O431 O 0.33123 0.26267 0.6917 0.0
C432 C 0.3875 0.195 0.65669 0.0
C433 C 0.34263 0.26354 0.71594 0.0
C434 C 0.51368 0.39316 0.52 0.0
C435 C 0.44512 0.34834 0.57928 0.0
O436 O 0.49801 0.37246 0.51474 0.0
Zn437 Zn 0.47972 0.3707 0.55005 0.0
O438 O 0.51281 0.40457 0.54424 0.0
Zn439 Zn 0.48959 0.39859 0.58254 0.0
O440 O 0.51779 0.38985 0.60959 0.0
O441 O 0.5122 0.35691 0.57782 0.0
O442 O 0.45771 0.36816 0.59218 0.0
O443 O 0.45134 0.34298 0.55411 0.0
O444 O 0.45605 0.40866 0.55046 0.0
O445 O 0.47048 0.43386 0.58621 0.0
C446 C 0.52451 0.36621 0.5997 0.0
C447 C 0.4546 0.43095 0.56518 0.0
C448 C 0.76996 0.64328 0.76363 0.0
C449 C 0.82925 0.59845 0.69509 0.0
O450 O 0.79419 0.65469 0.76276 0.0
Zn451 Zn 0.8325 0.64871 0.73955 0.0
O452 O 0.7647 0.62257 0.74797 0.0
Zn453 Zn 0.80001 0.6208 0.72968 0.0
O454 O 0.82778 0.60704 0.76217 0.0
O455 O 0.85955 0.63999 0.76774 0.0
O456 O 0.80408 0.59308 0.7013 0.0
O457 O 0.84215 0.61828 0.70767 0.0
O458 O 0.83616 0.68397 0.72042 0.0
O459 O 0.80042 0.65876 0.706 0.0
C460 C 0.84967 0.61634 0.77447 0.0
C461 C 0.81514 0.68105 0.70454 0.0
C462 C 0.86619 0.88625 0.46136 0.0
C463 C 0.93092 0.92079 0.53126 0.0
O464 O 0.88985 0.87637 0.46808 0.0
Zn465 Zn 0.89858 0.90343 0.49627 0.0
O466 O 0.85689 0.90813 0.47366 0.0
Zn467 Zn 0.87067 0.93591 0.50614 0.0
O468 O 0.87243 0.97122 0.48783 0.0
O469 O 0.90456 0.94173 0.47304 0.0
O470 O 0.90863 0.93551 0.52981 0.0
O471 O 0.93384 0.89977 0.51539 0.0
O472 O 0.86815 0.89378 0.52815 0.0
O473 O 0.84296 0.93185 0.53452 0.0
C474 C 0.89314 0.96596 0.47218 0.0
C475 C 0.84833 0.90668 0.54074 0.0
C476 C 0.17072 0.80485 0.70447 0.0
C477 C 0.13618 0.86956 0.77439 0.0
O478 O 0.18544 0.82714 0.70592 0.0
Zn479 Zn 0.18584 0.8651 0.72958 0.0
O480 O 0.1497 0.80193 0.72034 0.0
Zn481 Zn 0.15335 0.83719 0.73946 0.0
O482 O 0.14369 0.86762 0.70758 0.0
O483 O 0.18176 0.89282 0.7012 0.0
O484 O 0.1263 0.84591 0.76766 0.0
O485 O 0.15807 0.87887 0.76208 0.0
O486 O 0.22114 0.86335 0.74788 0.0
O487 O 0.19165 0.83123 0.76268 0.0
C488 C 0.15659 0.88745 0.69499 0.0
C489 C 0.21588 0.84265 0.76354 0.0
C490 C 0.13753 0.57922 0.54084 0.0
C491 C 0.0927 0.51996 0.47228 0.0
O492 O 0.14289 0.55404 0.53462 0.0
Zn493 Zn 0.11517 0.54999 0.50624 0.0
O494 O 0.11772 0.59212 0.52824 0.0
Zn495 Zn 0.08728 0.58249 0.49636 0.0
O496 O 0.05202 0.58617 0.51548 0.0
O497 O 0.07721 0.55042 0.52991 0.0
O498 O 0.08129 0.5442 0.47314 0.0
O499 O 0.1134 0.51469 0.48794 0.0
O500 O 0.12897 0.57776 0.47376 0.0
O501 O 0.09603 0.60954 0.46817 0.0
C502 C 0.05493 0.56515 0.53135 0.0
C503 C 0.11968 0.59965 0.46145 0.0
C504 C 0.82927 0.38752 0.79085 0.0
C505 C 0.77001 0.34265 0.72231 0.0
O506 O 0.84218 0.3677 0.77826 0.0
Zn507 Zn 0.83255 0.33726 0.74639 0.0
O508 O 0.80409 0.39287 0.78464 0.0
Zn509 Zn 0.80004 0.36514 0.75626 0.0
O510 O 0.80047 0.32718 0.77994 0.0
O511 O 0.83624 0.302 0.76552 0.0
O512 O 0.76474 0.36335 0.73797 0.0
O513 O 0.79425 0.33125 0.72317 0.0
O514 O 0.8596 0.346 0.71819 0.0
O515 O 0.82781 0.37893 0.72377 0.0
C516 C 0.81521 0.3049 0.78139 0.0
C517 C 0.8497 0.36964 0.71146 0.0
C518 C 0.63741 0.90658 0.44503 0.0
C519 C 0.59263 0.96588 0.5136 0.0
O520 O 0.64278 0.93176 0.45124 0.0
Zn521 Zn 0.61508 0.93583 0.47963 0.0
O522 O 0.61759 0.89369 0.45763 0.0
Zn523 Zn 0.58717 0.90335 0.48952 0.0
O524 O 0.55189 0.8997 0.47042 0.0
O525 O 0.57711 0.93543 0.45598 0.0
O526 O 0.58121 0.94165 0.51274 0.0
O527 O 0.61333 0.97113 0.49793 0.0
O528 O 0.62885 0.90806 0.51212 0.0
O529 O 0.5959 0.8763 0.51772 0.0
C530 C 0.55481 0.92072 0.45454 0.0
C531 C 0.61955 0.88618 0.52444 0.0
C532 C 0.21593 0.14315 0.72223 0.0
C533 C 0.15666 0.09831 0.79079 0.0
O534 O 0.19169 0.15456 0.7231 0.0
Zn535 Zn 0.15339 0.14857 0.74632 0.0
O536 O 0.22119 0.12244 0.73788 0.0
Zn537 Zn 0.18588 0.12067 0.75618 0.0
O538 O 0.1581 0.1069 0.7237 0.0
O539 O 0.12634 0.13985 0.71813 0.0
O540 O 0.18183 0.09295 0.78456 0.0
O541 O 0.14375 0.11814 0.7782 0.0
O542 O 0.14972 0.18383 0.76544 0.0
O543 O 0.18548 0.15863 0.77986 0.0
C544 C 0.13621 0.1162 0.7114 0.0
C545 C 0.17075 0.18091 0.78131 0.0
C546 C 0.36638 0.59963 0.52454 0.0
C547 C 0.4311 0.56509 0.45462 0.0
O548 O 0.39004 0.6095 0.51782 0.0
Zn549 Zn 0.39876 0.58245 0.48962 0.0
O550 O 0.35708 0.57774 0.51223 0.0
Zn551 Zn 0.37085 0.54997 0.47975 0.0
O552 O 0.37261 0.51466 0.49804 0.0
O553 O 0.40474 0.54415 0.51283 0.0
O554 O 0.40881 0.55038 0.45607 0.0
O555 O 0.43403 0.58612 0.47049 0.0
O556 O 0.36833 0.59211 0.45775 0.0
O557 O 0.34313 0.55405 0.45137 0.0
C558 C 0.39332 0.51992 0.51369 0.0
C559 C 0.34851 0.57922 0.44515 0.0
C560 C 0.69503 0.82921 0.5984 0.0
C561 C 0.76361 0.76997 0.64323 0.0
O562 O 0.70762 0.84212 0.61822 0.0
Zn563 Zn 0.73951 0.8325 0.64865 0.0
O564 O 0.70125 0.80404 0.59305 0.0
Zn565 Zn 0.72964 0.8 0.62076 0.0
O566 O 0.70597 0.80041 0.65872 0.0
O567 O 0.72039 0.83617 0.68391 0.0
O568 O 0.74794 0.7647 0.62253 0.0
O569 O 0.76274 0.79421 0.65464 0.0
O570 O 0.76769 0.85956 0.6399 0.0
O571 O 0.76211 0.82778 0.60696 0.0
C572 C 0.70452 0.81514 0.68101 0.0
C573 C 0.77441 0.84967 0.61625 0.0
C574 C 0.7746 0.13622 0.86964 0.0
C575 C 0.70468 0.17074 0.80491 0.0
O576 O 0.76228 0.15811 0.87894 0.0
Zn577 Zn 0.72979 0.18587 0.86516 0.0
O578 O 0.76788 0.12634 0.84599 0.0
Zn579 Zn 0.73968 0.15339 0.83726 0.0
O580 O 0.76289 0.1917 0.83128 0.0
O581 O 0.74808 0.22118 0.8634 0.0
O582 O 0.72057 0.14972 0.80199 0.0
O583 O 0.70613 0.18546 0.8272 0.0
O584 O 0.70141 0.1818 0.89287 0.0
O585 O 0.7078 0.14373 0.86769 0.0
C586 C 0.76374 0.21593 0.84269 0.0
C587 C 0.6952 0.15663 0.88751 0.0
C588 C 0.38619 0.96151 0.36635 0.0
C589 C 0.42074 0.0314 0.43109 0.0
O590 O 0.3763 0.96823 0.39 0.0
Zn591 Zn 0.40336 -0.00358 0.39874 0.0
O592 O 0.40808 0.97382 0.35705 0.0
Zn593 Zn 0.43586 0.00629 0.37083 0.0
O594 O 0.47115 0.98797 0.37259 0.0
O595 O 0.44165 0.97318 0.4047 0.0
O596 O 0.43546 0.02995 0.4088 0.0
O597 O 0.39971 0.01553 0.434 0.0
O598 O 0.39373 0.02831 0.36831 0.0
O599 O 0.43181 0.03467 0.34312 0.0
C600 C 0.46588 0.97231 0.39329 0.0
C601 C 0.40663 0.0409 0.34849 0.0
C602 C 0.2813 0.31505 0.80486 0.0
C603 C 0.21136 0.34958 0.86957 0.0
O604 O 0.27984 0.30034 0.82715 0.0
Zn605 Zn 0.25616 0.29992 0.8651 0.0
O606 O 0.26542 0.33608 0.80193 0.0
Zn607 Zn 0.24629 0.33241 0.83719 0.0
O608 O 0.27816 0.34206 0.86762 0.0
O609 O 0.28454 0.304 0.89282 0.0
O610 O 0.21808 0.35946 0.84591 0.0
O611 O 0.22367 0.3277 0.87887 0.0
O612 O 0.23787 0.26461 0.86334 0.0
O613 O 0.22308 0.2941 0.83121 0.0
C614 C 0.29075 0.32917 0.88745 0.0
C615 C 0.22222 0.26987 0.84263 0.0
C616 C 0.09969 0.02436 0.86629 0.0
C617 C 0.06518 0.95445 0.93104 0.0
O618 O 0.10958 0.01763 0.88993 0.0
Zn619 Zn 0.08253 0.98944 0.89868 0.0
O620 O 0.07779 0.01206 0.857 0.0
Zn621 Zn 0.05002 0.97958 0.8708 0.0
O622 O 0.01472 -0.00211 0.87259 0.0
O623 O 0.04424 0.01267 0.90468 0.0
O624 O 0.05044 0.95591 0.90876 0.0
O625 O 0.08621 0.97032 0.93394 0.0
O626 O 0.09215 0.95757 0.86823 0.0
O627 O 0.05405 0.95121 0.84307 0.0
C628 C 0.02 0.01354 0.89329 0.0
C629 C 0.07923 0.94498 0.84842 0.0
C630 C 0.79089 0.15665 0.09844 0.0
C631 C 0.7223 0.21592 0.14322 0.0
O632 O 0.77829 0.14375 0.11827 0.0
Zn633 Zn 0.7464 0.1534 0.14868 0.0
O634 O 0.78467 0.18182 0.09306 0.0
Zn635 Zn 0.75628 0.18588 0.12077 0.0
O636 O 0.77993 0.18549 0.15874 0.0
O637 O 0.76551 0.14975 0.18395 0.0
O638 O 0.73797 0.22118 0.12251 0.0
O639 O 0.72317 0.19169 0.15464 0.0
O640 O 0.71821 0.12633 0.13995 0.0
O641 O 0.7238 0.1581 0.107 0.0
C642 C 0.78138 0.17078 0.18103 0.0
C643 C 0.7115 0.13621 0.11629 0.0
C644 C 0.40669 0.94514 0.13752 0.0
C645 C 0.46599 0.01367 0.09268 0.0
O646 O 0.43187 0.95135 0.14288 0.0
Zn647 Zn 0.43594 0.97972 0.11516 0.0
O648 O 0.3938 0.95773 0.1177 0.0
Zn649 Zn 0.40345 0.9896 0.08726 0.0
O650 O 0.39978 0.97048 0.052 0.0
O651 O 0.43552 0.95605 0.0772 0.0
O652 O 0.44176 0.01281 0.08127 0.0
O653 O 0.47125 -0.00199 0.11339 0.0
O654 O 0.40817 0.01221 0.12893 0.0
O655 O 0.3764 0.01781 0.09599 0.0
C656 C 0.4208 0.9546 0.05492 0.0
C657 C 0.38629 0.02453 0.11964 0.0
C658 C 0.5199 0.47226 0.09256 0.0
C659 C 0.57919 0.54078 0.13742 0.0
O660 O 0.51464 0.48791 0.11328 0.0
Zn661 Zn 0.54994 0.5062 0.11505 0.0
O662 O 0.54413 0.47313 0.08115 0.0
Zn663 Zn 0.58244 0.49634 0.08714 0.0
O664 O 0.60948 0.46813 0.09586 0.0
O665 O 0.57771 0.47371 0.12881 0.0
O666 O 0.59209 0.52819 0.11759 0.0
O667 O 0.55401 0.53457 0.14278 0.0
O668 O 0.55036 0.52989 0.0771 0.0
O669 O 0.58611 0.51547 0.05189 0.0
C670 C 0.5996 0.4614 0.11951 0.0
C671 C 0.56508 0.53134 0.05481 0.0
C672 C 0.16361 0.28799 0.19794 0.0
C673 C 0.18602 0.30594 0.2038 0.0
H674 H 0.13213 0.261 0.21426 0.0
C675 C 0.19216 0.31247 0.23171 0.0
H676 H 0.15826 0.28277 0.17659 0.0
C677 C 0.17737 0.29969 0.2534 0.0
C678 C 0.15595 0.28051 0.24749 0.0
H679 H 0.20936 0.32623 0.23681 0.0
H680 H 0.1834 0.30405 0.27474 0.0
C681 C 0.14858 0.27557 0.21954 0.0
C682 C 0.5379 0.57226 0.0379 0.0
C683 C 0.55586 0.54986 0.03202 0.0
H684 H 0.5109 0.60373 0.02158 0.0
C685 C 0.56239 0.54372 0.00412 0.0
H686 H 0.53269 0.5776 0.05924 0.0
C687 C 0.54959 0.5585 0.98243 0.0
C688 C 0.53041 0.57992 0.98835 0.0
H689 H 0.57616 0.52653 -0.00099 0.0
H690 H 0.55396 0.55248 0.96109 0.0
C691 C 0.52547 0.58728 0.01629 0.0
C692 C 0.80851 0.1863 0.25341 0.0
C693 C 0.82993 0.20549 0.24749 0.0
H694 H 0.77655 0.15972 0.23683 0.0
C695 C 0.83729 0.21042 0.21954 0.0
H696 H 0.80249 0.18194 0.27476 0.0
C697 C 0.82228 0.19799 0.19794 0.0
C698 C 0.79988 0.18002 0.20382 0.0
H699 H 0.85374 0.225 0.21426 0.0
H700 H 0.82763 0.20319 0.1766 0.0
C701 C 0.79374 0.17349 0.23172 0.0
C702 C 0.43625 0.92742 0.98254 0.0
C703 C 0.45543 0.906 0.98845 0.0
H704 H 0.40971 0.95941 -0.00088 0.0
C705 C 0.46038 0.89865 0.01639 0.0
H706 H 0.43188 0.93344 0.96119 0.0
C707 C 0.44797 0.91368 0.038 0.0
C708 C 0.43002 0.93609 0.03213 0.0
H709 H 0.47496 0.88219 0.02167 0.0
H710 H 0.4532 0.90834 0.05934 0.0
C711 C 0.42347 0.94222 0.00423 0.0
C712 C 0.1923 0.67344 0.25425 0.0
C713 C 0.18616 0.67999 0.28215 0.0
H714 H 0.18352 0.68184 0.21121 0.0
C715 C 0.16375 0.69793 0.28802 0.0
H716 H 0.2095 0.65968 0.24914 0.0
C717 C 0.14872 0.71034 0.26641 0.0
C718 C 0.15607 0.70539 0.23847 0.0
H719 H 0.15841 0.70315 0.30936 0.0
H720 H 0.13225 0.72491 0.27169 0.0
C721 C 0.1775 0.68621 0.23256 0.0
C722 C 0.96043 0.58731 0.96956 0.0
C723 C 0.95548 0.57995 -0.0025 0.0
H724 H 0.95321 0.57764 0.92661 0.0
C725 C 0.93628 0.55854 0.00341 0.0
H726 H 0.97501 0.60376 0.96427 0.0
C727 C 0.92348 0.54376 0.98173 0.0
C728 C 0.93002 0.5499 0.95382 0.0
H729 H 0.93191 0.55252 0.02476 0.0
H730 H 0.90971 0.52658 0.98683 0.0
C731 C 0.94799 0.5723 0.94795 0.0
C732 C 0.80846 0.79958 0.23248 0.0
C733 C 0.82988 0.7804 0.2384 0.0
H734 H 0.77648 0.82613 0.24905 0.0
C735 C 0.83724 0.77546 0.26635 0.0
H736 H 0.80245 0.80395 0.21113 0.0
C737 C 0.82221 0.78788 0.28795 0.0
C738 C 0.7998 0.80583 0.28207 0.0
H739 H 0.85369 0.76089 0.27163 0.0
H740 H 0.82755 0.78267 0.30929 0.0
C741 C 0.79367 0.81237 0.25416 0.0
C742 C 0.0625 0.94209 0.98173 0.0
C743 C 0.05596 0.93594 0.95383 0.0
H744 H 0.05409 0.93333 0.02477 0.0
C745 C 0.038 0.91354 0.94797 0.0
H746 H 0.07627 0.95928 0.98683 0.0
C747 C 0.02558 0.89852 0.96958 0.0
C748 C 0.03053 0.90588 -0.00248 0.0
H749 H 0.03278 0.90819 0.92663 0.0
H750 H 0.01101 0.88206 0.96431 0.0
C751 C 0.04972 0.9273 0.00343 0.0
C752 C 0.25338 0.17741 0.29967 0.0
C753 C 0.24747 0.156 0.28048 0.0
H754 H 0.23679 0.20938 0.32623 0.0
C755 C 0.21953 0.14865 0.27552 0.0
H756 H 0.27472 0.18343 0.30405 0.0
C757 C 0.19792 0.16367 0.28794 0.0
C758 C 0.20379 0.18606 0.30591 0.0
H759 H 0.21426 0.1322 0.26094 0.0
H760 H 0.17658 0.15833 0.28272 0.0
C761 C 0.23169 0.1922 0.31246 0.0
C762 C 0.41354 0.53796 0.94786 0.0
C763 C 0.43595 0.5321 0.9299 0.0
H764 H 0.38206 0.52163 0.97485 0.0
C765 C 0.44209 0.5042 0.92335 0.0
H766 H 0.4082 0.5593 0.95308 0.0
C767 C 0.4273 0.48251 0.93613 0.0
C768 C 0.40588 0.48841 0.95532 0.0
H769 H 0.45928 0.4991 0.90959 0.0
H770 H 0.43333 0.46116 0.93176 0.0
C771 C 0.39852 0.51635 0.96027 0.0
C772 C 0.78792 0.32232 0.2879 0.0
C773 C 0.78206 0.29993 0.30587 0.0
H774 H 0.77159 0.35378 0.26088 0.0
C775 C 0.75415 0.29378 0.31241 0.0
H776 H 0.80926 0.32768 0.28268 0.0
C777 C 0.73246 0.30855 0.29961 0.0
C778 C 0.73837 0.32996 0.28041 0.0
H779 H 0.74905 0.2766 0.32619 0.0
H780 H 0.71112 0.30252 0.30398 0.0
C781 C 0.76631 0.33733 0.27546 0.0
C782 C 0.57229 0.94791 0.94798 0.0
C783 C 0.5499 0.95379 0.93001 0.0
H784 H 0.60377 0.96422 0.97497 0.0
C785 C 0.54378 0.98169 0.92345 0.0
H786 H 0.57762 0.92656 0.9532 0.0
C787 C 0.55858 0.00337 0.93624 0.0
C788 C 0.57999 -0.00255 0.95543 0.0
H789 H 0.5266 0.98681 0.90968 0.0
H790 H 0.55258 0.02472 0.93186 0.0
C791 C 0.58733 0.96951 0.96039 0.0
C792 C 0.19798 0.82225 0.19798 0.0
C793 C 0.20386 0.79985 0.18003 0.0
H794 H 0.21428 0.85374 0.22497 0.0
C795 C 0.23177 0.79372 0.17349 0.0
H796 H 0.17663 0.82758 0.20319 0.0
C797 C 0.25345 0.80852 0.18628 0.0
C798 C 0.24752 0.82994 0.20546 0.0
H799 H 0.23688 0.77653 0.15973 0.0
H800 H 0.2748 0.80251 0.18191 0.0
C801 C 0.21957 0.83729 0.2104 0.0
C802 C 0.08732 0.51634 0.0255 0.0
C803 C 0.07996 0.4884 0.03046 0.0
H804 H 0.07765 0.55929 0.03271 0.0
C805 C 0.05855 0.48249 0.04966 0.0
H806 H 0.10377 0.52162 0.01092 0.0
C807 C 0.04378 0.50418 0.06246 0.0
C808 C 0.04991 0.53208 0.05591 0.0
H809 H 0.05253 0.46115 0.05404 0.0
H810 H 0.02659 0.49908 0.07623 0.0
C811 C 0.07231 0.53795 0.03793 0.0
C812 C 0.75418 0.6921 0.1734 0.0
C813 C 0.78208 0.68595 0.17994 0.0
H814 H 0.71114 0.68333 0.18182 0.0
C815 C 0.78795 0.66354 0.19789 0.0
H816 H 0.74908 0.70929 0.15965 0.0
C817 C 0.76634 0.64851 0.21031 0.0
C818 C 0.7384 0.65587 0.20536 0.0
H819 H 0.80929 0.65819 0.20311 0.0
H820 H 0.77162 0.63205 0.22487 0.0
C821 C 0.73249 0.6773 0.18619 0.0
C822 C 0.92745 0.00333 0.04973 0.0
C823 C 0.90603 -0.00257 0.03055 0.0
H824 H 0.95943 0.98674 0.07628 0.0
C825 C 0.89867 0.96949 0.02559 0.0
H826 H 0.93347 0.02468 0.05411 0.0
C827 C 0.91369 0.94788 0.038 0.0
C828 C 0.93609 0.95374 0.05596 0.0
H829 H 0.88221 0.96422 0.01101 0.0
H830 H 0.90835 0.92654 0.03278 0.0
C831 C 0.94223 0.98164 0.06251 0.0
C832 C 0.27554 0.21956 0.14861 0.0
C833 C 0.28048 0.24751 0.15597 0.0
H834 H 0.28275 0.17662 0.1583 0.0
C835 C 0.29966 0.25342 0.17738 0.0
H836 H 0.26097 0.21428 0.13216 0.0
C837 C 0.31246 0.23174 0.19218 0.0
C838 C 0.30592 0.20384 0.18604 0.0
H839 H 0.30403 0.27477 0.18341 0.0
H840 H 0.32622 0.23685 0.20937 0.0
C841 C 0.28797 0.19796 0.16364 0.0
C842 C 0.28801 0.788 0.32232 0.0
C843 C 0.30597 0.78214 0.29992 0.0
H844 H 0.26102 0.77166 0.3538 0.0
C845 C 0.31254 0.75425 0.29379 0.0
H846 H 0.28277 0.80934 0.32766 0.0
C847 C 0.29977 0.73255 0.30858 0.0
C848 C 0.28058 0.73845 0.33 0.0
H849 H 0.32631 0.74915 0.2766 0.0
H850 H 0.30415 0.71121 0.30256 0.0
C851 C 0.27561 0.76639 0.33735 0.0
C852 C 0.01635 0.46038 0.8986 0.0
C853 C 0.98841 0.45545 0.90596 0.0
H854 H 0.0593 0.45316 0.90827 0.0
C855 C 0.98249 0.43626 0.92738 0.0
H856 H 0.02164 0.47496 0.88215 0.0
C857 C 0.00418 0.42346 0.94217 0.0
C858 C 0.03208 0.42999 0.93603 0.0
H859 H 0.96114 0.4319 0.93341 0.0
H860 H -0.00093 0.4097 0.95936 0.0
C861 C 0.03796 0.44795 0.91362 0.0
C862 C 0.68618 0.75329 0.30849 0.0
C863 C 0.70538 0.74738 0.3299 0.0
H864 H 0.65963 0.7367 0.27652 0.0
C865 C 0.71035 0.71944 0.33724 0.0
H866 H 0.68179 0.77463 0.30248 0.0
C867 C 0.69795 0.69783 0.32222 0.0
C868 C 0.67997 0.7037 0.29982 0.0
H869 H 0.72494 0.71416 0.35369 0.0
H870 H 0.70319 0.67649 0.32755 0.0
C871 C 0.6734 0.7316 0.2937 0.0
C872 C 0.48179 0.56238 0.44224 0.0
C873 C 0.45388 0.55586 0.4361 0.0
H874 H 0.52482 0.55394 0.43347 0.0
C875 C 0.448 0.53792 0.41369 0.0
H876 H 0.4869 0.57614 0.45943 0.0
C877 C 0.4696 0.52549 0.39866 0.0
C878 C 0.49754 0.53041 0.40602 0.0
H879 H 0.42665 0.53272 0.40835 0.0
H880 H 0.4643 0.51093 0.38221 0.0
C881 C 0.50347 0.54959 0.42744 0.0
C882 C 0.21036 0.76633 0.64856 0.0
C883 C 0.20542 0.73839 0.65592 0.0
H884 H 0.20314 0.80928 0.65822 0.0
C885 C 0.18623 0.73248 0.67733 0.0
H886 H 0.22494 0.77161 0.63211 0.0
C887 C 0.17342 0.75416 0.69211 0.0
C888 C 0.17996 0.78206 0.68597 0.0
H889 H 0.18186 0.71113 0.68336 0.0
H890 H 0.15965 0.74905 0.7093 0.0
C891 C 0.19793 0.78793 0.66357 0.0
C892 C 0.00423 0.56248 0.54372 0.0
C893 C 0.03213 0.55593 0.54986 0.0
H894 H 0.96119 0.55407 0.55248 0.0
C895 C 0.03799 0.53798 0.57227 0.0
H896 H -0.00087 0.57624 0.52652 0.0
C897 C 0.01638 0.52557 0.5873 0.0
C898 C 0.98844 0.53052 0.57994 0.0
H899 H 0.05934 0.53276 0.57762 0.0
H900 H 0.02166 0.51099 0.60376 0.0
C901 C 0.98254 0.5497 0.55851 0.0
C902 C 0.94784 0.94798 0.57217 0.0
C903 C 0.95371 0.93002 0.54977 0.0
H904 H 0.96417 0.97497 0.60365 0.0
C905 C 0.98161 0.92346 0.54364 0.0
H906 H 0.9265 0.95321 0.5775 0.0
C907 C 0.0033 0.93624 0.55844 0.0
C908 C -0.00261 0.95543 0.57985 0.0
H909 H 0.98672 0.90969 0.52646 0.0
H910 H 0.02465 0.93186 0.55242 0.0
C911 C 0.96945 0.96039 0.5872 0.0
C912 C 0.69216 0.81246 0.7317 0.0
C913 C 0.68601 0.80592 0.7038 0.0
H914 H 0.6834 0.80404 0.77474 0.0
C915 C 0.6636 0.78797 0.69794 0.0
H916 H 0.70935 0.82622 0.7368 0.0
C917 C 0.64858 0.77556 0.71955 0.0
C918 C 0.65594 0.7805 0.74749 0.0
H919 H 0.65825 0.78276 0.67659 0.0
H920 H 0.63212 0.76099 0.71427 0.0
C921 C 0.67737 0.79968 0.75339 0.0
C922 C 0.02546 0.08729 0.51632 0.0
C923 C 0.0304 0.07994 0.48837 0.0
H924 H 0.03267 0.0776 0.55927 0.0
C925 C 0.04959 0.05852 0.48246 0.0
H926 H 0.01089 0.10374 0.5216 0.0
C927 C 0.06238 0.04373 0.50414 0.0
C928 C 0.05584 0.04986 0.53205 0.0
H929 H 0.05396 0.0525 0.46111 0.0
H930 H 0.07614 0.02654 0.49903 0.0
C931 C 0.03788 0.07226 0.53792 0.0
C932 C 0.33728 0.71043 0.71955 0.0
C933 C 0.32992 0.70549 0.7475 0.0
H934 H 0.32762 0.7032 0.6766 0.0
C935 C 0.30851 0.68629 0.75341 0.0
H936 H 0.35373 0.72501 0.71427 0.0
C937 C 0.29373 0.67349 0.73173 0.0
C938 C 0.29987 0.68002 0.70382 0.0
H939 H 0.30248 0.68193 0.77476 0.0
H940 H 0.27654 0.65972 0.73683 0.0
C941 C 0.32227 0.69799 0.69795 0.0
C942 C 0.93624 0.42745 0.4825 0.0
C943 C 0.95542 0.40602 0.48841 0.0
H944 H 0.90969 0.45943 0.49909 0.0
C945 C 0.96037 0.39866 0.51635 0.0
H946 H 0.93187 0.43347 0.46116 0.0
C947 C 0.94795 0.41368 0.53796 0.0
C948 C 0.93 0.43609 0.53209 0.0
H949 H 0.97494 0.3822 0.52163 0.0
H950 H 0.95317 0.40834 0.55931 0.0
C951 C 0.92346 0.44223 0.50419 0.0
C952 C 0.64872 0.21031 0.76639 0.0
C953 C 0.65608 0.20537 0.73844 0.0
H954 H 0.65841 0.20312 0.80934 0.0
C955 C 0.67751 0.1862 0.73253 0.0
H956 H 0.63226 0.22488 0.77167 0.0
C957 C 0.69231 0.17342 0.75422 0.0
C958 C 0.68617 0.17996 0.78212 0.0
H959 H 0.68353 0.18183 0.71119 0.0
H960 H 0.70951 0.15966 0.74911 0.0
C961 C 0.66376 0.1979 0.78799 0.0
C962 C 0.44795 0.07229 0.44801 0.0
C963 C 0.42998 0.04989 0.45388 0.0
H964 H 0.47497 0.10375 0.46432 0.0
C965 C 0.42346 0.04374 0.48178 0.0
H966 H 0.45315 0.07764 0.42666 0.0
C967 C 0.43627 0.05852 0.50347 0.0
C968 C 0.45546 0.07993 0.49755 0.0
H969 H 0.40969 0.02655 0.48689 0.0
H970 H 0.43191 0.05248 0.52482 0.0
C971 C 0.46039 0.0873 0.46961 0.0
C972 C 0.33725 0.27546 0.76635 0.0
C973 C 0.3299 0.2804 0.73841 0.0
H974 H 0.32756 0.28266 0.8093 0.0
C975 C 0.30848 0.29958 0.73249 0.0
H976 H 0.35371 0.26089 0.77164 0.0
C977 C 0.29368 0.31237 0.75417 0.0
C978 C 0.29981 0.30583 0.78207 0.0
H979 H 0.30246 0.30394 0.71114 0.0
H980 H 0.27649 0.32613 0.74906 0.0
C981 C 0.32222 0.28788 0.78795 0.0
C982 C 0.56251 0.44208 0.48173 0.0
C983 C 0.55596 0.43594 0.45383 0.0
H984 H 0.55409 0.43333 0.52477 0.0
C985 C 0.538 0.41354 0.44797 0.0
H986 H 0.57627 0.45928 0.48683 0.0
C987 C 0.52559 0.39852 0.46958 0.0
C988 C 0.53053 0.40588 0.49752 0.0
H989 H 0.53279 0.40819 0.42663 0.0
H990 H 0.51101 0.38206 0.46431 0.0
C991 C 0.54972 0.4273 0.50342 0.0
C992 C 0.69793 0.66366 0.78794 0.0
C993 C 0.70379 0.68605 0.80591 0.0
H994 H 0.71426 0.63219 0.76095 0.0
C995 C 0.73169 0.69219 0.81245 0.0
H996 H 0.67658 0.65831 0.78272 0.0
C997 C 0.75338 0.67741 0.79967 0.0
C998 C 0.74748 0.65599 0.78048 0.0
H999 H 0.73679 0.70938 0.82622 0.0
H1000 H 0.77473 0.68343 0.80404 0.0
C1001 C 0.71954 0.64864 0.77553 0.0
C1002 C 0.92728 0.98254 0.43614 0.0
C1003 C 0.90586 0.98844 0.45533 0.0
H1004 H 0.95927 -0.00087 0.4096 0.0
C1005 C 0.89851 0.01638 0.46029 0.0
H1006 H 0.9333 0.96119 0.43176 0.0
C1007 C 0.91354 0.03799 0.44788 0.0
C1008 C 0.93594 0.03213 0.42992 0.0
H1009 H 0.88205 0.02166 0.47486 0.0
H1010 H 0.9082 0.05933 0.4531 0.0
C1011 C 0.94208 0.00423 0.42336 0.0
C1012 C 0.23245 0.80854 0.79961 0.0
C1013 C 0.23836 0.82995 0.78041 0.0
H1014 H 0.24904 0.77658 0.82619 0.0
C1015 C 0.2663 0.83732 0.77547 0.0
H1016 H 0.2111 0.80251 0.80398 0.0
C1017 C 0.28791 0.82232 0.78791 0.0
C1018 C 0.28204 0.79992 0.80588 0.0
H1019 H 0.27158 0.85377 0.76089 0.0
H1020 H 0.30925 0.82767 0.7827 0.0
C1021 C 0.25414 0.79377 0.81242 0.0
C1022 C 0.08732 0.46955 0.46037 0.0
C1023 C 0.07997 0.4975 0.45542 0.0
H1024 H 0.07762 0.4266 0.45317 0.0
C1025 C 0.05856 0.50341 0.43623 0.0
H1026 H 0.10377 0.46426 0.47495 0.0
C1027 C 0.04376 0.48173 0.42344 0.0
C1028 C 0.04989 0.45383 0.42998 0.0
H1029 H 0.05254 0.52476 0.43186 0.0
H1030 H 0.02658 0.48685 0.40967 0.0
C1031 C 0.07229 0.44795 0.44795 0.0
C1032 C 0.75346 0.3085 0.68627 0.0
C1033 C 0.74754 0.32992 0.70545 0.0
H1034 H 0.7369 0.27652 0.65971 0.0
C1035 C 0.7196 0.33726 0.7104 0.0
H1036 H 0.77481 0.30249 0.6819 0.0
C1037 C 0.698 0.32223 0.69797 0.0
C1038 C 0.70388 0.29983 0.68002 0.0
H1039 H 0.71431 0.35372 0.72497 0.0
H1040 H 0.67665 0.32757 0.70319 0.0
C1041 C 0.73178 0.29371 0.67348 0.0
C1042 C 0.55852 0.98245 0.54967 0.0
C1043 C 0.57993 0.98835 0.53047 0.0
H1044 H 0.52657 -0.00096 0.57625 0.0
C1045 C 0.5873 0.0163 0.52552 0.0
H1046 H 0.55249 0.9611 0.55404 0.0
C1047 C 0.5723 0.0379 0.53796 0.0
C1048 C 0.5499 0.03204 0.55593 0.0
H1049 H 0.60375 0.02157 0.51094 0.0
H1050 H 0.57765 0.05925 0.53274 0.0
C1051 C 0.54376 0.00414 0.56247 0.0
C1052 C 0.28796 0.16354 0.69791 0.0
C1053 C 0.28209 0.18595 0.67996 0.0
H1054 H 0.27162 0.13205 0.7249 0.0
C1055 C 0.25419 0.19209 0.67342 0.0
H1056 H 0.3093 0.15819 0.70313 0.0
C1057 C 0.2325 0.1773 0.6862 0.0
C1058 C 0.23841 0.15587 0.70538 0.0
H1059 H 0.24909 0.20929 0.65965 0.0
H1060 H 0.21116 0.18333 0.68183 0.0
C1061 C 0.26635 0.14851 0.71032 0.0
C1062 C 0.44224 0.48164 0.56251 0.0
C1063 C 0.4361 0.45374 0.55596 0.0
H1064 H 0.43348 0.52468 0.55411 0.0
C1065 C 0.4137 0.44788 0.538 0.0
H1066 H 0.45943 0.48673 0.57628 0.0
C1067 C 0.39868 0.46949 0.52558 0.0
C1068 C 0.40603 0.49743 0.53054 0.0
H1069 H 0.40835 0.42654 0.53277 0.0
H1070 H 0.38222 0.46422 0.511 0.0
C1071 C 0.42745 0.50333 0.54973 0.0
C1072 C 0.81245 0.73174 0.69216 0.0
C1073 C 0.80591 0.70383 0.68603 0.0
H1074 H 0.80402 0.77477 0.6834 0.0
C1075 C 0.78796 0.69796 0.66362 0.0
H1076 H 0.82621 0.73685 0.70936 0.0
C1077 C 0.77553 0.71956 0.6486 0.0
C1078 C 0.78047 0.7475 0.65595 0.0
H1079 H 0.78275 0.67661 0.65828 0.0
H1080 H 0.76096 0.71427 0.63214 0.0
C1081 C 0.79965 0.75342 0.67737 0.0
C1082 C 0.81256 0.25421 0.79376 0.0
C1083 C 0.806 0.28211 0.7999 0.0
H1084 H 0.80416 0.21117 0.80253 0.0
C1085 C 0.78804 0.28797 0.82231 0.0
H1086 H 0.82633 0.24912 0.77657 0.0
C1087 C 0.77563 0.26635 0.83733 0.0
C1088 C 0.78059 0.23841 0.82997 0.0
H1089 H 0.78281 0.30931 0.82765 0.0
H1090 H 0.76105 0.27162 0.85379 0.0
C1091 C 0.79978 0.23252 0.80855 0.0
C1092 C 0.5379 0.94791 0.41363 0.0
C1093 C 0.53202 0.92996 0.43604 0.0
H1094 H 0.52158 0.97492 0.38216 0.0
C1095 C 0.50412 0.92344 0.4422 0.0
H1096 H 0.55924 0.95311 0.40827 0.0
C1097 C 0.48243 0.93625 0.42742 0.0
C1098 C 0.48835 0.95543 0.406 0.0
H1099 H 0.49901 0.90968 0.45939 0.0
H1100 H 0.46109 0.9319 0.43346 0.0
C1101 C 0.51629 0.96035 0.39862 0.0
C1102 C 0.21035 0.21944 0.83725 0.0
C1103 C 0.20538 0.24739 0.8299 0.0
H1104 H 0.20318 0.17649 0.82756 0.0
C1105 C 0.18618 0.25329 0.80849 0.0
H1106 H 0.22493 0.21417 0.8537 0.0
C1107 C 0.17341 0.2316 0.7937 0.0
C1108 C 0.17997 0.2037 0.79983 0.0
H1109 H 0.1818 0.27464 0.80248 0.0
H1110 H 0.15963 0.23671 0.77651 0.0
C1111 C 0.19794 0.19784 0.82222 0.0
C1112 C 0.96959 0.02548 0.89866 0.0
C1113 C -0.00246 0.03041 0.90602 0.0
H1114 H 0.92665 0.03271 0.90835 0.0
C1115 C 0.00346 0.04958 0.92744 0.0
H1116 H 0.9643 0.01092 0.8822 0.0
C1117 C 0.98178 0.06238 0.94223 0.0
C1118 C 0.95388 0.05586 0.9361 0.0
H1119 H 0.02481 0.05394 0.93346 0.0
H1120 H 0.9869 0.07614 0.95943 0.0
C1121 C 0.94799 0.03791 0.91369 0.0
C1122 C 0.68623 0.23248 0.17734 0.0
C1123 C 0.70543 0.23839 0.15592 0.0
H1124 H 0.65966 0.24906 0.2093 0.0
C1125 C 0.71037 0.26633 0.14856 0.0
H1126 H 0.68187 0.21113 0.18336 0.0
C1127 C 0.69794 0.28794 0.16357 0.0
C1128 C 0.67997 0.28207 0.18597 0.0
H1129 H 0.72495 0.27162 0.1321 0.0
H1130 H 0.70315 0.30928 0.15822 0.0
C1131 C 0.67343 0.25417 0.19211 0.0
C1132 C 0.50427 0.06246 0.04373 0.0
C1133 C 0.53217 0.05591 0.04987 0.0
H1134 H 0.46123 0.05407 0.0525 0.0
C1135 C 0.53803 0.03795 0.07228 0.0
H1136 H 0.49917 0.07623 0.02653 0.0
C1137 C 0.51642 0.02555 0.08731 0.0
C1138 C 0.48847 0.03051 0.07995 0.0
H1139 H 0.55937 0.03273 0.07762 0.0
H1140 H 0.52169 0.01098 0.10377 0.0
C1141 C 0.48257 0.04969 0.05853 0.0
C1142 C 0.50333 0.43623 0.05842 0.0
C1143 C 0.49742 0.45542 0.07984 0.0
H1144 H 0.48675 0.40968 0.02644 0.0
C1145 C 0.46948 0.46037 0.08719 0.0
H1146 H 0.52468 0.43186 0.0524 0.0
C1147 C 0.44787 0.44795 0.07216 0.0
C1148 C 0.45374 0.42999 0.04976 0.0
H1149 H 0.46419 0.47495 0.10364 0.0
H1150 H 0.42653 0.45318 0.0775 0.0
C1151 C 0.48164 0.42345 0.04363 0.0
C1152 C 0.07831 0.31007 0.34899 0.0
C1153 C 0.09867 0.29524 0.36396 0.0
H1154 H 0.04434 0.33903 0.3508 0.0
C1155 C 0.10086 0.29914 0.39293 0.0
H1156 H 0.07626 0.30749 0.32662 0.0
C1157 C 0.08221 0.31672 0.40684 0.0
C1158 C 0.06155 0.3312 0.39191 0.0
H1159 H 0.1163 0.28783 0.40496 0.0
H1160 H 0.08383 0.31883 0.42929 0.0
C1161 C 0.06012 0.32816 0.3628 0.0
C1162 C 0.56666 0.65367 0.82903 0.0
C1163 C 0.58113 0.67433 0.84397 0.0
H1164 H 0.53777 0.61959 0.8309 0.0
C1165 C 0.57809 0.67576 0.87308 0.0
H1166 H 0.56878 0.65206 0.80658 0.0
C1167 C 0.55999 0.65757 0.88688 0.0
C1168 C 0.54516 0.63721 0.8719 0.0
H1169 H 0.58895 0.69154 0.88508 0.0
H1170 H 0.55739 0.65962 0.90925 0.0
C1171 C 0.54907 0.63503 0.84294 0.0
C1172 C 0.90753 0.17593 0.34898 0.0
C1173 C 0.88716 0.19077 0.36396 0.0
H1174 H 0.94149 0.14697 0.35078 0.0
C1175 C 0.88497 0.18686 0.39292 0.0
H1176 H 0.90958 0.17853 0.32661 0.0
C1177 C 0.90361 0.16926 0.40683 0.0
C1178 C 0.92428 0.15479 0.39189 0.0
H1179 H 0.86953 0.19816 0.40496 0.0
H1180 H 0.90199 0.16715 0.42928 0.0
C1181 C 0.92571 0.15784 0.36278 0.0
C1182 C 0.42582 0.82838 0.88693 0.0
C1183 C 0.44065 0.84875 0.87196 0.0
H1184 H 0.39686 0.79441 0.88511 0.0
C1185 C 0.43676 0.85095 0.843 0.0
H1186 H 0.4284 0.82632 0.9093 0.0
C1187 C 0.41917 0.83231 0.82908 0.0
C1188 C 0.40469 0.81164 0.844 0.0
H1189 H 0.44807 0.86639 0.83096 0.0
H1190 H 0.41706 0.83393 0.80662 0.0
C1191 C 0.40773 0.8102 0.87311 0.0
C1192 C 0.10097 0.68675 0.09301 0.0
C1193 C 0.09878 0.69064 0.12198 0.0
H1194 H 0.08393 0.66708 0.05664 0.0
C1195 C 0.07841 0.6758 0.13694 0.0
H1196 H 0.11641 0.69806 0.08098 0.0
C1197 C 0.06022 0.65773 0.12313 0.0
C1198 C 0.06164 0.65471 0.09402 0.0
H1199 H 0.07636 0.67838 0.15932 0.0
H1200 H 0.04442 0.64687 0.13512 0.0
C1201 C 0.08232 0.66918 0.07909 0.0
C1202 C 0.9078 0.67572 0.11281 0.0
C1203 C 0.90475 0.67428 0.14192 0.0
H1204 H 0.9285 0.65961 0.07664 0.0
C1205 C 0.91922 0.65362 0.15685 0.0
H1206 H 0.89694 0.69152 0.10081 0.0
C1207 C 0.93682 0.63498 0.14294 0.0
C1208 C 0.94073 0.63718 0.11398 0.0
H1209 H 0.9171 0.65199 0.1793 0.0
H1210 H 0.94812 0.61954 0.15498 0.0
C1211 C 0.9259 0.65755 0.099 0.0
C1212 C 0.88503 0.79907 0.09299 0.0
C1213 C 0.88721 0.79516 0.12195 0.0
H1214 H 0.90208 0.81876 0.05663 0.0
C1215 C 0.90757 0.80998 0.13693 0.0
H1216 H 0.86959 0.78777 0.08095 0.0
C1217 C 0.92577 0.82807 0.12313 0.0
C1218 C 0.92435 0.83111 0.09402 0.0
H1219 H 0.90961 0.80739 0.1593 0.0
H1220 H 0.94156 0.83892 0.13514 0.0
C1221 C 0.90369 0.81665 0.07908 0.0
C1222 C 0.06009 0.82825 0.09904 0.0
C1223 C 0.04526 0.84862 0.11401 0.0
H1224 H 0.08904 0.79428 0.10085 0.0
C1225 C 0.04916 0.85081 0.14297 0.0
H1226 H 0.0575 0.8262 0.07667 0.0
C1227 C 0.06675 0.83216 0.15689 0.0
C1228 C 0.08122 0.8115 0.14196 0.0
H1229 H 0.03785 0.86625 0.15501 0.0
H1230 H 0.06886 0.83378 0.17934 0.0
C1231 C 0.07818 0.81007 0.11285 0.0
C1232 C 0.34898 0.0784 0.3101 0.0
C1233 C 0.36395 0.09876 0.29527 0.0
H1234 H 0.35078 0.04443 0.33906 0.0
C1235 C 0.39291 0.10095 0.29918 0.0
H1236 H 0.32661 0.07635 0.30751 0.0
C1237 C 0.40682 0.08231 0.31676 0.0
C1238 C 0.39189 0.06164 0.33124 0.0
H1239 H 0.40495 0.11639 0.28787 0.0
H1240 H 0.42928 0.08392 0.31888 0.0
C1241 C 0.36278 0.06022 0.3282 0.0
C1242 C 0.32825 0.38686 0.92579 0.0
C1243 C 0.34862 0.3719 0.94062 0.0
H1244 H 0.29426 0.38503 0.89685 0.0
C1245 C 0.35081 0.34294 0.93673 0.0
H1246 H 0.32619 0.40923 0.92837 0.0
C1247 C 0.33217 0.32901 0.91916 0.0
C1248 C 0.31149 0.34393 0.90469 0.0
H1249 H 0.36626 0.33091 0.94804 0.0
H1250 H 0.33379 0.30656 0.91706 0.0
C1251 C 0.31006 0.37304 0.90772 0.0
C1252 C 0.63688 0.40751 0.30999 0.0
C1253 C 0.6219 0.38716 0.29515 0.0
H1254 H 0.63509 0.44147 0.33896 0.0
C1255 C 0.59294 0.38497 0.29907 0.0
H1256 H 0.65925 0.40956 0.30738 0.0
C1257 C 0.57903 0.4036 0.31668 0.0
C1258 C 0.59397 0.42426 0.33115 0.0
H1259 H 0.58089 0.36953 0.28776 0.0
H1260 H 0.55658 0.40198 0.3188 0.0
C1261 C 0.62308 0.42569 0.32809 0.0
C1262 C 0.65769 0.09895 0.92587 0.0
C1263 C 0.63731 0.11392 0.94068 0.0
H1264 H 0.69168 0.10077 0.89693 0.0
C1265 C 0.63512 0.14288 0.93678 0.0
H1266 H 0.65974 0.07658 0.92846 0.0
C1267 C 0.65377 0.1568 0.91921 0.0
C1268 C 0.67445 0.14187 0.90475 0.0
H1269 H 0.61967 0.15492 0.94808 0.0
H1270 H 0.65215 0.17925 0.91709 0.0
C1271 C 0.67588 0.11277 0.90779 0.0
C1272 C 0.34902 0.90764 0.1759 0.0
C1273 C 0.36399 0.88727 0.19073 0.0
H1274 H 0.35083 0.94163 0.14695 0.0
C1275 C 0.39295 0.88508 0.18683 0.0
H1276 H 0.32665 0.9097 0.17849 0.0
C1277 C 0.40687 0.90373 0.16924 0.0
C1278 C 0.39194 0.9244 0.15477 0.0
H1279 H 0.40498 0.86964 0.19813 0.0
H1280 H 0.42932 0.90211 0.16713 0.0
C1281 C 0.36283 0.92583 0.15781 0.0
C1282 C 0.17574 0.37309 0.07812 0.0
C1283 C 0.17431 0.34398 0.08116 0.0
H1284 H 0.1596 0.40926 0.05744 0.0
C1285 C 0.15364 0.32905 0.06669 0.0
H1286 H 0.19153 0.38509 0.08898 0.0
C1287 C 0.13499 0.34296 0.04911 0.0
C1288 C 0.13718 0.37192 0.0452 0.0
H1289 H 0.15202 0.30659 0.06881 0.0
H1290 H 0.11955 0.33092 0.03781 0.0
C1291 C 0.15755 0.38689 0.06003 0.0
C1292 C 0.59294 0.60081 0.18674 0.0
C1293 C 0.6219 0.59861 0.19064 0.0
H1294 H 0.55657 0.5838 0.16704 0.0
C1295 C 0.63687 0.57824 0.1758 0.0
H1296 H 0.58091 0.61625 0.19805 0.0
C1297 C 0.62306 0.56007 0.15771 0.0
C1298 C 0.59395 0.56151 0.15467 0.0
H1299 H 0.65924 0.57619 0.17839 0.0
H1300 H 0.63505 0.54428 0.14684 0.0
C1301 C 0.57902 0.58218 0.16915 0.0
C1302 C 0.83231 0.15682 0.06674 0.0
C1303 C 0.81164 0.14189 0.08121 0.0
H1304 H 0.86641 0.15493 0.03786 0.0
C1305 C 0.81022 0.11278 0.07819 0.0
H1306 H 0.83393 0.17927 0.06883 0.0
C1307 C 0.82841 0.09897 0.06012 0.0
C1308 C 0.84878 0.11393 0.04528 0.0
H1309 H 0.79442 0.10079 0.08905 0.0
H1310 H 0.82636 0.0766 0.05754 0.0
C1311 C 0.85097 0.1429 0.04917 0.0
C1312 C 0.32809 0.3628 0.06009 0.0
C1313 C 0.33112 0.39191 0.06151 0.0
H1314 H 0.30743 0.32662 0.07626 0.0
C1315 C 0.31666 0.40685 0.08217 0.0
H1316 H 0.33896 0.3508 0.0443 0.0
C1317 C 0.29909 0.39293 0.10083 0.0
C1318 C 0.29519 0.36397 0.09866 0.0
H1319 H 0.31876 0.4293 0.08378 0.0
H1320 H 0.28778 0.40497 0.11628 0.0
C1321 C 0.31002 0.34899 0.0783 0.0
C1322 C 0.29923 0.59299 0.38508 0.0
C1323 C 0.29534 0.62195 0.38727 0.0
H1324 H 0.31891 0.55661 0.40211 0.0
C1325 C 0.31016 0.63691 0.40765 0.0
H1326 H 0.28793 0.58096 0.36963 0.0
C1327 C 0.32823 0.62309 0.42584 0.0
C1328 C 0.33127 0.59398 0.42441 0.0
H1329 H 0.30757 0.65928 0.40971 0.0
H1330 H 0.33909 0.63508 0.44164 0.0
C1331 C 0.31681 0.57906 0.40373 0.0
C1332 C 0.84298 0.43683 0.8509 0.0
C1333 C 0.87194 0.44074 0.84871 0.0
H1334 H 0.80662 0.41713 0.83387 0.0
C1335 C 0.88692 0.42591 0.82835 0.0
H1336 H 0.83094 0.44814 0.86634 0.0
C1337 C 0.87312 0.40782 0.81017 0.0
C1338 C 0.84401 0.40477 0.81159 0.0
H1339 H 0.90929 0.4285 0.8263 0.0
H1340 H 0.88512 0.39695 0.79438 0.0
C1341 C 0.82907 0.41924 0.83225 0.0
C1342 C 0.66911 0.90675 0.4036 0.0
C1343 C 0.65464 0.89183 0.42428 0.0
H1344 H 0.69798 0.90487 0.3695 0.0
C1345 C 0.65768 0.86272 0.42572 0.0
H1346 H 0.667 0.92921 0.40198 0.0
C1347 C 0.67576 0.84891 0.40753 0.0
C1348 C 0.69058 0.86387 0.38715 0.0
H1349 H 0.64682 0.85072 0.44152 0.0
H1350 H 0.67835 0.82654 0.40958 0.0
C1351 C 0.68668 0.89283 0.38495 0.0
C1352 C 0.59901 0.55995 0.32833 0.0
C1353 C 0.61399 0.54512 0.34869 0.0
H1354 H 0.6008 0.5889 0.29434 0.0
C1355 C 0.64295 0.54901 0.35085 0.0
H1356 H 0.57663 0.55737 0.32629 0.0
C1357 C 0.65686 0.56659 0.33219 0.0
C1358 C 0.64192 0.58106 0.31153 0.0
H1359 H 0.655 0.5377 0.36629 0.0
H1360 H 0.67931 0.56869 0.3338 0.0
C1361 C 0.61281 0.57803 0.31013 0.0
C1362 C 0.15782 0.62307 0.56015 0.0
C1363 C 0.15478 0.59396 0.56158 0.0
H1364 H 0.17849 0.65925 0.57629 0.0
C1365 C 0.16925 0.57903 0.58225 0.0
H1366 H 0.14696 0.63507 0.54436 0.0
C1367 C 0.18683 0.59295 0.60089 0.0
C1368 C 0.19074 0.62191 0.59871 0.0
H1369 H 0.16714 0.55658 0.58386 0.0
H1370 H 0.19814 0.58091 0.61633 0.0
C1371 C 0.17591 0.63688 0.57834 0.0
C1372 C 0.82907 0.56674 0.65367 0.0
C1373 C 0.844 0.58121 0.67434 0.0
H1374 H 0.83095 0.53786 0.61958 0.0
C1375 C 0.87311 0.57817 0.67577 0.0
H1376 H 0.80662 0.56885 0.65206 0.0
C1377 C 0.88692 0.56009 0.65758 0.0
C1378 C 0.87195 0.54526 0.63721 0.0
H1379 H 0.88511 0.58903 0.69156 0.0
H1380 H 0.90929 0.5575 0.65963 0.0
C1381 C 0.84299 0.54916 0.63502 0.0
C1382 C 0.11272 0.90772 0.67568 0.0
C1383 C 0.14183 0.90469 0.67424 0.0
H1384 H 0.07654 0.92839 0.65954 0.0
C1385 C 0.15676 0.91916 0.65357 0.0
H1386 H 0.10073 0.89686 0.69147 0.0
C1387 C 0.14284 0.93674 0.63492 0.0
C1388 C 0.11388 0.94063 0.63712 0.0
H1389 H 0.17921 0.91705 0.65195 0.0
H1390 H 0.15487 0.94804 0.61948 0.0
C1391 C 0.09891 0.9258 0.65749 0.0
C1392 C 0.60085 0.7991 0.89294 0.0
C1393 C 0.59866 0.79521 0.86398 0.0
H1394 H 0.58382 0.81878 0.92931 0.0
C1395 C 0.5783 0.81004 0.84901 0.0
H1396 H 0.61629 0.78779 0.90497 0.0
C1397 C 0.56011 0.82813 0.86282 0.0
C1398 C 0.56154 0.83116 0.89193 0.0
H1399 H 0.57625 0.80746 0.82664 0.0
H1400 H 0.54432 0.83899 0.85082 0.0
C1401 C 0.5822 0.81668 0.90686 0.0
C1402 C 0.04907 0.13505 0.34295 0.0
C1403 C 0.04516 0.13723 0.37192 0.0
H1404 H 0.06878 0.15208 0.30659 0.0
C1405 C 0.05999 0.15759 0.38689 0.0
H1406 H 0.03776 0.11961 0.33091 0.0
C1407 C 0.07809 0.17578 0.37309 0.0
C1408 C 0.08113 0.17436 0.34398 0.0
H1409 H 0.0574 0.15964 0.40926 0.0
H1410 H 0.08895 0.19157 0.38509 0.0
C1411 C 0.06666 0.15369 0.32904 0.0
C1412 C 0.42569 0.65781 0.86277 0.0
C1413 C 0.42426 0.65476 0.89188 0.0
H1414 H 0.40956 0.67851 0.8266 0.0
C1415 C 0.4036 0.66923 0.90682 0.0
H1416 H 0.44148 0.64695 0.85077 0.0
C1417 C 0.38496 0.68683 0.89291 0.0
C1418 C 0.38715 0.69074 0.86395 0.0
H1419 H 0.40198 0.66711 0.92927 0.0
H1420 H 0.36952 0.69813 0.90496 0.0
C1421 C 0.40751 0.67591 0.84897 0.0
C1422 C 0.92582 0.32841 0.3869 0.0
C1423 C 0.94066 0.34877 0.37193 0.0
H1424 H 0.89687 0.29444 0.38509 0.0
C1425 C 0.93677 0.35096 0.34296 0.0
H1426 H 0.92841 0.32636 0.40927 0.0
C1427 C 0.91918 0.33232 0.32905 0.0
C1428 C 0.9047 0.31166 0.34398 0.0
H1429 H 0.94808 0.3664 0.33093 0.0
H1430 H 0.91708 0.33394 0.30659 0.0
C1431 C 0.90774 0.31023 0.37309 0.0
C1432 C 0.60098 0.18672 0.59301 0.0
C1433 C 0.5988 0.19062 0.62197 0.0
H1434 H 0.58394 0.16705 0.55664 0.0
C1435 C 0.57844 0.17578 0.63695 0.0
H1436 H 0.61642 0.19804 0.58097 0.0
C1437 C 0.56024 0.1577 0.62314 0.0
C1438 C 0.56166 0.15467 0.59403 0.0
H1439 H 0.57639 0.17837 0.65932 0.0
H1440 H 0.54445 0.14684 0.63515 0.0
C1441 C 0.58233 0.16915 0.5791 0.0
C1442 C 0.41924 0.1536 0.65689 0.0
C1443 C 0.40477 0.17427 0.64195 0.0
H1444 H 0.44815 0.11953 0.65502 0.0
C1445 C 0.40782 0.1757 0.61284 0.0
H1446 H 0.41712 0.15199 0.67934 0.0
C1447 C 0.42592 0.15752 0.59904 0.0
C1448 C 0.44075 0.13716 0.61402 0.0
H1449 H 0.39695 0.19148 0.60084 0.0
H1450 H 0.42851 0.15957 0.57667 0.0
C1451 C 0.43684 0.13497 0.64298 0.0
C1452 C 0.42579 0.32805 0.62313 0.0
C1453 C 0.42437 0.3311 0.59402 0.0
H1454 H 0.40964 0.30737 0.65931 0.0
C1455 C 0.4037 0.31663 0.57909 0.0
H1456 H 0.44158 0.33891 0.63514 0.0
C1457 C 0.38505 0.29905 0.593 0.0
C1458 C 0.38723 0.29514 0.62196 0.0
H1459 H 0.40209 0.31875 0.55663 0.0
H1460 H 0.36961 0.28775 0.58096 0.0
C1461 C 0.40759 0.30997 0.63694 0.0
C1462 C 0.5601 0.32825 0.59903 0.0
C1463 C 0.54527 0.34861 0.61401 0.0
H1464 H 0.58905 0.29427 0.60084 0.0
C1465 C 0.54917 0.3508 0.64297 0.0
H1466 H 0.55751 0.3262 0.57666 0.0
C1467 C 0.56676 0.33216 0.65688 0.0
C1468 C 0.58123 0.31149 0.64195 0.0
H1469 H 0.53786 0.36624 0.655 0.0
H1470 H 0.56887 0.33378 0.67933 0.0
C1471 C 0.57819 0.31006 0.61284 0.0
C1472 C 0.90685 0.58229 0.81671 0.0
C1473 C 0.89192 0.56162 0.83118 0.0
H1474 H 0.90497 0.61638 0.78781 0.0
C1475 C 0.86281 0.5602 0.82815 0.0
H1476 H 0.92931 0.58391 0.81881 0.0
C1477 C 0.849 0.57838 0.81007 0.0
C1478 C 0.86397 0.59875 0.79523 0.0
H1479 H 0.85081 0.54441 0.83902 0.0
H1480 H 0.82663 0.57633 0.80748 0.0
C1481 C 0.89293 0.60094 0.79913 0.0
C1482 C 0.8508 0.84297 0.43673 0.0
C1483 C 0.8486 0.87193 0.44062 0.0
H1484 H 0.83378 0.80658 0.41706 0.0
C1485 C 0.82822 0.88688 0.42579 0.0
H1486 H 0.86625 0.83094 0.44803 0.0
C1487 C 0.81003 0.87306 0.40771 0.0
C1488 C 0.81147 0.84395 0.40469 0.0
H1489 H 0.82616 0.90925 0.42837 0.0
H1490 H 0.79423 0.88505 0.39685 0.0
C1491 C 0.83215 0.82903 0.41916 0.0
C1492 C 0.13687 0.9075 0.81 0.0
C1493 C 0.12189 0.88714 0.79516 0.0
H1494 H 0.13508 0.94146 0.83896 0.0
C1495 C 0.09293 0.88496 0.79908 0.0
H1496 H 0.15924 0.90955 0.80739 0.0
C1497 C 0.07903 0.90359 0.81668 0.0
C1498 C 0.09397 0.92425 0.83116 0.0
H1499 H 0.08089 0.86952 0.78777 0.0
H1500 H 0.05657 0.90198 0.8188 0.0
C1501 C 0.12308 0.92567 0.8281 0.0
C1502 C 0.15766 0.59899 0.42588 0.0
C1503 C 0.13729 0.61396 0.4407 0.0
H1504 H 0.19166 0.6008 0.39695 0.0
C1505 C 0.1351 0.64292 0.4368 0.0
H1506 H 0.15971 0.57662 0.42847 0.0
C1507 C 0.15376 0.65684 0.41923 0.0
C1508 C 0.17444 0.64191 0.40477 0.0
H1509 H 0.11965 0.65496 0.4481 0.0
H1510 H 0.15215 0.67929 0.41712 0.0
C1511 C 0.17586 0.6128 0.40781 0.0
C1512 C 0.89296 0.38506 0.68679 0.0
C1513 C 0.86399 0.38724 0.6907 0.0
H1514 H 0.92932 0.40209 0.66709 0.0
C1515 C 0.84902 0.40761 0.67588 0.0
H1516 H 0.905 0.36961 0.69809 0.0
C1517 C 0.86282 0.4258 0.65778 0.0
C1518 C 0.89193 0.42437 0.65474 0.0
H1519 H 0.82665 0.40966 0.67847 0.0
H1520 H 0.85082 0.44159 0.64693 0.0
C1521 C 0.90687 0.4037 0.66921 0.0
C1522 C 0.63496 0.84292 0.5491 0.0
C1523 C 0.63715 0.87188 0.5452 0.0
H1524 H 0.652 0.80656 0.5688 0.0
C1525 C 0.65751 0.88686 0.56002 0.0
H1526 H 0.61953 0.83088 0.5378 0.0
C1527 C 0.6757 0.87306 0.57811 0.0
C1528 C 0.67428 0.84395 0.58116 0.0
H1529 H 0.65955 0.90923 0.55743 0.0
H1530 H 0.69149 0.88507 0.58897 0.0
C1531 C 0.65361 0.82901 0.56669 0.0
C1532 C 0.12304 0.06006 0.65773 0.0
C1533 C 0.09394 0.0615 0.65469 0.0
H1534 H 0.15923 0.07618 0.6784 0.0
C1535 C 0.07901 0.08218 0.66917 0.0
H1536 H 0.13504 0.04427 0.64686 0.0
C1537 C 0.09294 0.10081 0.68675 0.0
C1538 C 0.1219 0.09861 0.69065 0.0
H1539 H 0.05656 0.0838 0.66706 0.0
H1540 H 0.08091 0.11626 0.69806 0.0
C1541 C 0.13686 0.07824 0.67582 0.0
C1542 C 0.35097 0.6429 0.54918 0.0
C1543 C 0.34879 0.61393 0.54529 0.0
H1544 H 0.33393 0.67927 0.56884 0.0
C1545 C 0.32842 0.59897 0.56012 0.0
H1546 H 0.36642 0.65493 0.53787 0.0
C1547 C 0.31022 0.61278 0.57819 0.0
C1548 C 0.31164 0.64189 0.58121 0.0
H1549 H 0.32637 0.5766 0.55755 0.0
H1550 H 0.29443 0.60078 0.58906 0.0
C1551 C 0.33231 0.65682 0.56674 0.0
C1552 C 0.81662 0.90686 0.58216 0.0
C1553 C 0.83109 0.89193 0.56149 0.0
H1554 H 0.78774 0.90498 0.61626 0.0
C1555 C 0.82806 0.86282 0.56008 0.0
H1556 H 0.81872 0.92931 0.58377 0.0
C1557 C 0.80999 0.84901 0.57828 0.0
C1558 C 0.79516 0.86398 0.59864 0.0
H1559 H 0.83892 0.85082 0.54429 0.0
H1560 H 0.80741 0.82663 0.57623 0.0
C1561 C 0.79905 0.89294 0.60082 0.0
C1562 C 0.81681 0.07904 0.90372 0.0
C1563 C 0.83127 0.09396 0.92439 0.0
H1564 H 0.78794 0.08092 0.86962 0.0
C1565 C 0.82824 0.12307 0.92582 0.0
H1566 H 0.81891 0.05658 0.9021 0.0
C1567 C 0.81017 0.13689 0.90762 0.0
C1568 C 0.79534 0.12192 0.88724 0.0
H1569 H 0.8391 0.13507 0.94161 0.0
H1570 H 0.80758 0.15926 0.90966 0.0
C1571 C 0.79924 0.09296 0.88506 0.0
C1572 C 0.32902 0.91927 0.33227 0.0
C1573 C 0.34396 0.9048 0.31161 0.0
H1574 H 0.33088 0.94817 0.36636 0.0
C1575 C 0.37307 0.90784 0.3102 0.0
H1576 H 0.30656 0.91717 0.33388 0.0
C1577 C 0.38687 0.92592 0.32839 0.0
C1578 C 0.37189 0.94076 0.34875 0.0
H1579 H 0.38508 0.89697 0.29442 0.0
H1580 H 0.40924 0.92851 0.32636 0.0
C1581 C 0.34292 0.93686 0.35092 0.0
C1582 C 0.17579 0.34893 0.90754 0.0
C1583 C 0.19061 0.36389 0.88716 0.0
H1584 H 0.14685 0.35076 0.94153 0.0
C1585 C 0.18673 0.39285 0.88497 0.0
H1586 H 0.17837 0.32656 0.90959 0.0
C1587 C 0.16916 0.40678 0.90362 0.0
C1588 C 0.15469 0.39186 0.9243 0.0
H1589 H 0.19803 0.40488 0.86951 0.0
H1590 H 0.16706 0.42923 0.902 0.0
C1591 C 0.15771 0.36275 0.92573 0.0
C1592 C 0.099 0.05995 0.82832 0.0
C1593 C 0.11398 0.04512 0.84869 0.0
H1594 H 0.1008 0.0889 0.79434 0.0
C1595 C 0.14295 0.04902 0.85086 0.0
H1596 H 0.07663 0.05736 0.82629 0.0
C1597 C 0.15685 0.0666 0.8322 0.0
C1598 C 0.14192 0.08107 0.81154 0.0
H1599 H 0.15499 0.03771 0.86629 0.0
H1600 H 0.17931 0.0687 0.8338 0.0
C1601 C 0.1128 0.07803 0.81013 0.0
C1602 C 0.65784 0.12306 0.06014 0.0
C1603 C 0.65481 0.09395 0.06157 0.0
H1604 H 0.6785 0.15924 0.07628 0.0
C1605 C 0.66928 0.07902 0.08224 0.0
H1606 H 0.64698 0.13505 0.04435 0.0
C1607 C 0.68685 0.09294 0.10089 0.0
C1608 C 0.69075 0.1219 0.0987 0.0
H1609 H 0.66717 0.05657 0.08386 0.0
H1610 H 0.69816 0.0809 0.11633 0.0
C1611 C 0.67592 0.13687 0.07833 0.0
C1612 C 0.34302 0.04918 0.13504 0.0
C1613 C 0.37198 0.04528 0.13723 0.0
H1614 H 0.30664 0.06886 0.15207 0.0
C1615 C 0.38695 0.0601 0.1576 0.0
H1616 H 0.33098 0.03787 0.11959 0.0
C1617 C 0.37313 0.07818 0.1758 0.0
C1618 C 0.34402 0.08121 0.17436 0.0
H1619 H 0.40932 0.05751 0.15966 0.0
H1620 H 0.38513 0.08904 0.19159 0.0
C1621 C 0.3291 0.06675 0.15369 0.0
C1622 C 0.61274 0.40773 0.17566 0.0
C1623 C 0.64185 0.40469 0.17423 0.0
H1624 H 0.57656 0.42839 0.15952 0.0
C1625 C 0.65678 0.41916 0.15356 0.0
H1626 H 0.60074 0.39686 0.19145 0.0
C1627 C 0.64286 0.43674 0.13491 0.0
C1628 C 0.6139 0.44064 0.1371 0.0
H1629 H 0.67923 0.41706 0.15194 0.0
H1630 H 0.6549 0.44805 0.11947 0.0
C1631 C 0.59893 0.42581 0.15747 0.0
loop_
_geom_bond_atom_site_label_1
_geom_bond_atom_site_label_2
_geom_bond_distance
_geom_bond_site_symmetry_2
_ccdc_geom_bond_type
C0 O2 1.247 . S
C0 O4 1.258 . S
C1 O8 1.247 . S
C1 O9 1.258 . S
O2 C0 1.247 . S
O2 Zn3 2.028 . S
Zn3 O2 2.028 . S
Zn3 O7 2.035 . S
Zn3 O9 2.035 . S
Zn3 O10 2.028 . S
O4 C0 1.258 . S
O4 Zn5 2.035 . S
Zn5 O4 2.035 . S
Zn5 O6 2.028 . S
Zn5 O8 2.028 . S
Zn5 O11 2.035 . S
O6 Zn5 2.028 . S
O6 C12 1.247 . S
O7 Zn3 2.035 . S
O7 C12 1.258 . S
O8 C1 1.247 . S
O8 Zn5 2.028 . S
O9 C1 1.258 . S
O9 Zn3 2.035 . S
O10 Zn3 2.028 . S
O10 C13 1.247 . S
O11 Zn5 2.035 . S
O11 C13 1.258 . S
C12 O6 1.247 . S
C12 O7 1.258 . S
C13 O10 1.247 . S
C13 O11 1.258 . S
C14 O16 1.247 . S
C14 O18 1.258 . S
C15 O22 1.247 . S
C15 O23 1.258 . S
O16 C14 1.247 . S
O16 Zn17 2.028 . S
Zn17 O16 2.028 . S
Zn17 O21 2.035 . S
Zn17 O23 2.035 . S
Zn17 O24 2.028 . S
O18 C14 1.258 . S
O18 Zn19 2.035 . S
Zn19 O18 2.035 . S
Zn19 O20 2.028 . S
Zn19 O22 2.028 . S
Zn19 O25 2.035 . S
O20 Zn19 2.028 . S
O20 C26 1.247 . S
O21 Zn17 2.035 . S
O21 C26 1.258 . S
O22 C15 1.247 . S
O22 Zn19 2.028 . S
O23 C15 1.258 . S
O23 Zn17 2.035 . S
O24 Zn17 2.028 . S
O24 C27 1.247 . S
O25 Zn19 2.035 . S
O25 C27 1.258 . S
C26 O20 1.247 . S
C26 O21 1.258 . S
C27 O24 1.247 . S
C27 O25 1.258 . S
C28 O30 1.247 . S
C28 O32 1.258 . S
C29 O36 1.247 . S
C29 O37 1.258 . S
O30 C28 1.247 . S
O30 Zn31 2.028 . S
Zn31 O30 2.028 . S
Zn31 O35 2.035 . S
Zn31 O37 2.035 . S
Zn31 O38 2.028 . S
O32 C28 1.258 . S
O32 Zn33 2.035 . S
Zn33 O32 2.035 . S
Zn33 O34 2.028 . S
Zn33 O36 2.028 . S
Zn33 O39 2.035 . S
O34 Zn33 2.028 . S
O34 C40 1.247 . S
O35 Zn31 2.035 . S
O35 C40 1.258 . S
O36 C29 1.247 . S
O36 Zn33 2.028 . S
O37 C29 1.258 . S
O37 Zn31 2.035 . S
O38 Zn31 2.028 . S
O38 C41 1.247 . S
O39 Zn33 2.035 . S
O39 C41 1.258 . S
C40 O34 1.247 . S
C40 O35 1.258 . S
C41 O38 1.247 . S
C41 O39 1.258 . S
C42 O44 1.247 . S
C42 O46 1.258 . S
C43 O50 1.247 . S
C43 O51 1.258 . S
O44 C42 1.247 . S
O44 Zn45 2.028 . S
Zn45 O44 2.028 . S
Zn45 O49 2.035 . S
Zn45 O51 2.035 . S
Zn45 O52 2.028 . S
O46 C42 1.258 . S
O46 Zn47 2.035 . S
Zn47 O46 2.035 . S
Zn47 O48 2.028 . S
Zn47 O50 2.028 . S
Zn47 O53 2.035 . S
O48 Zn47 2.028 . S
O48 C54 1.247 . S
O49 Zn45 2.035 . S
O49 C54 1.258 . S
O50 C43 1.247 . S
O50 Zn47 2.028 . S
O51 C43 1.258 . S
O51 Zn45 2.035 . S
O52 Zn45 2.028 . S
O52 C55 1.247 . S
O53 Zn47 2.035 . S
O53 C55 1.258 . S
C54 O48 1.247 . S
C54 O49 1.258 . S
C55 O52 1.247 . S
C55 O53 1.258 . S
C56 O58 1.247 . S
C56 O60 1.258 . S
C57 O64 1.247 . S
C57 O65 1.258 . S
O58 C56 1.247 . S
O58 Zn59 2.028 . S
Zn59 O58 2.028 . S
Zn59 O63 2.035 . S
Zn59 O65 2.035 . S
Zn59 O66 2.028 . S
O60 C56 1.258 . S
O60 Zn61 2.035 . S
Zn61 O60 2.035 . S
Zn61 O62 2.028 . S
Zn61 O64 2.028 . S
Zn61 O67 2.035 . S
O62 Zn61 2.028 . S
O62 C68 1.247 . S
O63 Zn59 2.035 . S
O63 C68 1.258 . S
O64 C57 1.247 . S
O64 Zn61 2.028 . S
O65 C57 1.258 . S
O65 Zn59 2.035 . S
O66 Zn59 2.028 . S
O66 C69 1.247 . S
O67 Zn61 2.035 . S
O67 C69 1.258 . S
C68 O62 1.247 . S
C68 O63 1.258 . S
C69 O66 1.247 . S
C69 O67 1.258 . S
C70 O72 1.247 . S
C70 O74 1.258 . S
C71 O78 1.247 . S
C71 O79 1.258 . S
O72 C70 1.247 . S
O72 Zn73 2.028 . S
Zn73 O72 2.028 . S
Zn73 O77 2.035 . S
Zn73 O79 2.035 1_455 S
Zn73 O80 2.028 1_455 S
O74 C70 1.258 . S
O74 Zn75 2.035 1_455 S
Zn75 O74 2.035 1_655 S
Zn75 O76 2.028 1_655 S
Zn75 O78 2.028 . S
Zn75 O81 2.035 . S
O76 Zn75 2.028 1_455 S
O76 C82 1.247 . S
O77 Zn73 2.035 . S
O77 C82 1.258 . S
O78 C71 1.247 . S
O78 Zn75 2.028 . S
O79 C71 1.258 . S
O79 Zn73 2.035 1_655 S
O80 Zn73 2.028 1_655 S
O80 C83 1.247 . S
O81 Zn75 2.035 . S
O81 C83 1.258 . S
C82 O76 1.247 . S
C82 O77 1.258 . S
C83 O80 1.247 . S
C83 O81 1.258 . S
C84 O86 1.247 . S
C84 O88 1.258 . S
C85 O92 1.247 . S
C85 O93 1.258 . S
O86 C84 1.247 . S
O86 Zn87 2.028 . S
Zn87 O86 2.028 . S
Zn87 O91 2.035 . S
Zn87 O93 2.035 . S
Zn87 O94 2.028 . S
O88 C84 1.258 . S
O88 Zn89 2.035 . S
Zn89 O88 2.035 . S
Zn89 O90 2.028 . S
Zn89 O92 2.028 . S
Zn89 O95 2.035 . S
O90 Zn89 2.028 . S
O90 C96 1.247 . S
O91 Zn87 2.035 . S
O91 C96 1.258 . S
O92 C85 1.247 . S
O92 Zn89 2.028 . S
O93 C85 1.258 . S
O93 Zn87 2.035 . S
O94 Zn87 2.028 . S
O94 C97 1.247 . S
O95 Zn89 2.035 . S
O95 C97 1.258 . S
C96 O90 1.247 . S
C96 O91 1.258 . S
C97 O94 1.247 . S
C97 O95 1.258 . S
C98 O100 1.247 . S
C98 O102 1.258 . S
C99 O106 1.247 . S
C99 O107 1.258 . S
O100 C98 1.247 . S
O100 Zn101 2.028 . S
Zn101 O100 2.028 . S
Zn101 O105 2.035 . S
Zn101 O107 2.035 1_655 S
Zn101 O108 2.028 1_655 S
O102 C98 1.258 . S
O102 Zn103 2.035 1_655 S
Zn103 O102 2.035 1_455 S
Zn103 O104 2.028 1_455 S
Zn103 O106 2.028 . S
Zn103 O109 2.035 . S
O104 Zn103 2.028 1_655 S
O104 C110 1.247 . S
O105 Zn101 2.035 . S
O105 C110 1.258 . S
O106 C99 1.247 . S
O106 Zn103 2.028 . S
O107 C99 1.258 . S
O107 Zn101 2.035 1_455 S
O108 Zn101 2.028 1_455 S
O108 C111 1.247 . S
O109 Zn103 2.035 . S
O109 C111 1.258 . S
C110 O104 1.247 . S
C110 O105 1.258 . S
C111 O108 1.247 . S
C111 O109 1.258 . S
C112 O114 1.247 . S
C112 O116 1.258 . S
C113 O120 1.247 . S
C113 O121 1.258 . S
O114 C112 1.247 . S
O114 Zn115 2.028 . S
Zn115 O114 2.028 . S
Zn115 O119 2.035 . S
Zn115 O121 2.035 . S
Zn115 O122 2.028 . S
O116 C112 1.258 . S
O116 Zn117 2.035 . S
Zn117 O116 2.035 . S
Zn117 O118 2.028 . S
Zn117 O120 2.028 . S
Zn117 O123 2.035 . S
O118 Zn117 2.028 . S
O118 C124 1.247 . S
O119 Zn115 2.035 . S
O119 C124 1.258 . S
O120 C113 1.247 . S
O120 Zn117 2.028 . S
O121 C113 1.258 . S
O121 Zn115 2.035 . S
O122 Zn115 2.028 . S
O122 C125 1.247 . S
O123 Zn117 2.035 . S
O123 C125 1.258 . S
C124 O118 1.247 . S
C124 O119 1.258 . S
C125 O122 1.247 . S
C125 O123 1.258 . S
C126 O128 1.247 . S
C126 O130 1.258 . S
C127 O134 1.247 . S
C127 O135 1.258 . S
O128 C126 1.247 . S
O128 Zn129 2.028 . S
Zn129 O128 2.028 . S
Zn129 O133 2.035 . S
Zn129 O135 2.035 1_556 S
Zn129 O136 2.028 1_556 S
O130 C126 1.258 . S
O130 Zn131 2.035 1_556 S
Zn131 O130 2.035 1_554 S
Zn131 O132 2.028 1_554 S
Zn131 O134 2.028 . S
Zn131 O137 2.035 . S
O132 Zn131 2.028 1_556 S
O132 C138 1.247 . S
O133 Zn129 2.035 . S
O133 C138 1.258 . S
O134 C127 1.247 . S
O134 Zn131 2.028 . S
O135 C127 1.258 . S
O135 Zn129 2.035 1_554 S
O136 Zn129 2.028 1_554 S
O136 C139 1.247 . S
O137 Zn131 2.035 . S
O137 C139 1.258 . S
C138 O132 1.247 . S
C138 O133 1.258 . S
C139 O136 1.247 . S
C139 O137 1.258 . S
C140 O142 1.247 . S
C140 O144 1.258 . S
C141 O148 1.247 . S
C141 O149 1.258 . S
O142 C140 1.247 . S
O142 Zn143 2.028 . S
Zn143 O142 2.028 . S
Zn143 O147 2.035 . S
Zn143 O149 2.035 . S
Zn143 O150 2.028 . S
O144 C140 1.258 . S
O144 Zn145 2.035 . S
Zn145 O144 2.035 . S
Zn145 O146 2.028 . S
Zn145 O148 2.028 . S
Zn145 O151 2.035 . S
O146 Zn145 2.028 . S
O146 C152 1.247 . S
O147 Zn143 2.035 . S
O147 C152 1.258 . S
O148 C141 1.247 . S
O148 Zn145 2.028 . S
O149 C141 1.258 . S
O149 Zn143 2.035 . S
O150 Zn143 2.028 . S
O150 C153 1.247 . S
O151 Zn145 2.035 . S
O151 C153 1.258 . S
C152 O146 1.247 . S
C152 O147 1.258 . S
C153 O150 1.247 . S
C153 O151 1.258 . S
C154 O156 1.247 . S
C154 O158 1.258 . S
C155 O162 1.247 . S
C155 O163 1.258 . S
O156 C154 1.247 . S
O156 Zn157 2.028 1_554 S
Zn157 O156 2.028 1_556 S
Zn157 O161 2.035 1_556 S
Zn157 O163 2.035 . S
Zn157 O164 2.028 . S
O158 C154 1.258 . S
O158 Zn159 2.035 . S
Zn159 O158 2.035 . S
Zn159 O160 2.028 . S
Zn159 O162 2.028 1_554 S
Zn159 O165 2.035 1_554 S
O160 Zn159 2.028 . S
O160 C166 1.247 . S
O161 Zn157 2.035 1_554 S
O161 C166 1.258 . S
O162 C155 1.247 . S
O162 Zn159 2.028 1_556 S
O163 C155 1.258 . S
O163 Zn157 2.035 . S
O164 Zn157 2.028 . S
O164 C167 1.247 . S
O165 Zn159 2.035 1_556 S
O165 C167 1.258 . S
C166 O160 1.247 . S
C166 O161 1.258 . S
C167 O164 1.247 . S
C167 O165 1.258 . S
C168 O170 1.247 . S
C168 O172 1.258 . S
C169 O176 1.247 . S
C169 O177 1.258 . S
O170 C168 1.247 . S
O170 Zn171 2.028 . S
Zn171 O170 2.028 . S
Zn171 O175 2.035 . S
Zn171 O177 2.035 . S
Zn171 O178 2.028 . S
O172 C168 1.258 . S
O172 Zn173 2.035 . S
Zn173 O172 2.035 . S
Zn173 O174 2.028 . S
Zn173 O176 2.028 . S
Zn173 O179 2.035 . S
O174 Zn173 2.028 . S
O174 C180 1.247 . S
O175 Zn171 2.035 . S
O175 C180 1.258 . S
O176 C169 1.247 . S
O176 Zn173 2.028 . S
O177 C169 1.258 . S
O177 Zn171 2.035 . S
O178 Zn171 2.028 . S
O178 C181 1.247 . S
O179 Zn173 2.035 . S
O179 C181 1.258 . S
C180 O174 1.247 . S
C180 O175 1.258 . S
C181 O178 1.247 . S
C181 O179 1.258 . S
C182 O184 1.247 . S
C182 O186 1.258 . S
C183 O190 1.247 . S
C183 O191 1.258 . S
O184 C182 1.247 . S
O184 Zn185 2.028 . S
Zn185 O184 2.028 . S
Zn185 O189 2.035 . S
Zn185 O191 2.035 1_554 S
Zn185 O192 2.028 1_554 S
O186 C182 1.258 . S
O186 Zn187 2.035 1_554 S
Zn187 O186 2.035 1_556 S
Zn187 O188 2.028 1_556 S
Zn187 O190 2.028 . S
Zn187 O193 2.035 . S
O188 Zn187 2.028 1_554 S
O188 C194 1.247 . S
O189 Zn185 2.035 . S
O189 C194 1.258 . S
O190 C183 1.247 . S
O190 Zn187 2.028 . S
O191 C183 1.258 . S
O191 Zn185 2.035 1_556 S
O192 Zn185 2.028 1_556 S
O192 C195 1.247 . S
O193 Zn187 2.035 . S
O193 C195 1.258 . S
C194 O188 1.247 . S
C194 O189 1.258 . S
C195 O192 1.247 . S
C195 O193 1.258 . S
C196 O198 1.247 . S
C196 O200 1.258 . S
C197 O204 1.247 . S
C197 O205 1.258 . S
O198 C196 1.247 . S
O198 Zn199 2.028 . S
Zn199 O198 2.028 . S
Zn199 O203 2.035 . S
Zn199 O205 2.035 . S
Zn199 O206 2.028 . S
O200 C196 1.258 . S
O200 Zn201 2.035 . S
Zn201 O200 2.035 . S
Zn201 O202 2.028 . S
Zn201 O204 2.028 . S
Zn201 O207 2.035 . S
O202 Zn201 2.028 . S
O202 C208 1.247 . S
O203 Zn199 2.035 . S
O203 C208 1.258 . S
O204 C197 1.247 . S
O204 Zn201 2.028 . S
O205 C197 1.258 . S
O205 Zn199 2.035 . S
O206 Zn199 2.028 . S
O206 C209 1.247 . S
O207 Zn201 2.035 . S
O207 C209 1.258 . S
C208 O202 1.247 . S
C208 O203 1.258 . S
C209 O206 1.247 . S
C209 O207 1.258 . S
C210 O212 1.247 . S
C210 O214 1.258 . S
C211 O218 1.247 . S
C211 O219 1.258 . S
O212 C210 1.247 . S
O212 Zn213 2.028 1_556 S
Zn213 O212 2.028 1_554 S
Zn213 O217 2.035 1_554 S
Zn213 O219 2.035 . S
Zn213 O220 2.028 . S
O214 C210 1.258 . S
O214 Zn215 2.035 . S
Zn215 O214 2.035 . S
Zn215 O216 2.028 . S
Zn215 O218 2.028 1_556 S
Zn215 O221 2.035 1_556 S
O216 Zn215 2.028 . S
O216 C222 1.247 . S
O217 Zn213 2.035 1_556 S
O217 C222 1.258 . S
O218 C211 1.247 . S
O218 Zn215 2.028 1_554 S
O219 C211 1.258 . S
O219 Zn213 2.035 . S
O220 Zn213 2.028 . S
O220 C223 1.247 . S
O221 Zn215 2.035 1_554 S
O221 C223 1.258 . S
C222 O216 1.247 . S
C222 O217 1.258 . S
C223 O220 1.247 . S
C223 O221 1.258 . S
C224 O226 1.247 . S
C224 O228 1.258 . S
C225 O232 1.247 . S
C225 O233 1.258 . S
O226 C224 1.247 . S
O226 Zn227 2.028 . S
Zn227 O226 2.028 . S
Zn227 O231 2.035 . S
Zn227 O233 2.035 . S
Zn227 O234 2.028 . S
O228 C224 1.258 . S
O228 Zn229 2.035 . S
Zn229 O228 2.035 . S
Zn229 O230 2.028 . S
Zn229 O232 2.028 . S
Zn229 O235 2.035 . S
O230 Zn229 2.028 . S
O230 C236 1.247 . S
O231 Zn227 2.035 . S
O231 C236 1.258 . S
O232 C225 1.247 . S
O232 Zn229 2.028 . S
O233 C225 1.258 . S
O233 Zn227 2.035 . S
O234 Zn227 2.028 . S
O234 C237 1.247 . S
O235 Zn229 2.035 . S
O235 C237 1.258 . S
C236 O230 1.247 . S
C236 O231 1.258 . S
C237 O234 1.247 . S
C237 O235 1.258 . S
C238 O240 1.247 . S
C238 O242 1.258 . S
C239 O246 1.247 . S
C239 O247 1.258 . S
O240 C238 1.247 . S
O240 Zn241 2.028 . S
Zn241 O240 2.028 . S
Zn241 O245 2.035 . S
Zn241 O247 2.035 . S
Zn241 O248 2.028 . S
O242 C238 1.258 . S
O242 Zn243 2.035 . S
Zn243 O242 2.035 . S
Zn243 O244 2.028 . S
Zn243 O246 2.028 . S
Zn243 O249 2.035 . S
O244 Zn243 2.028 . S
O244 C250 1.247 . S
O245 Zn241 2.035 . S
O245 C250 1.258 . S
O246 C239 1.247 . S
O246 Zn243 2.028 . S
O247 C239 1.258 . S
O247 Zn241 2.035 . S
O248 Zn241 2.028 . S
O248 C251 1.247 . S
O249 Zn243 2.035 . S
O249 C251 1.258 . S
C250 O244 1.247 . S
C250 O245 1.258 . S
C251 O248 1.247 . S
C251 O249 1.258 . S
C252 O254 1.247 . S
C252 O256 1.258 . S
C253 O260 1.247 . S
C253 O261 1.258 . S
O254 C252 1.247 . S
O254 Zn255 2.028 . S
Zn255 O254 2.028 . S
Zn255 O259 2.035 . S
Zn255 O261 2.035 . S
Zn255 O262 2.028 . S
O256 C252 1.258 . S
O256 Zn257 2.035 . S
Zn257 O256 2.035 . S
Zn257 O258 2.028 . S
Zn257 O260 2.028 . S
Zn257 O263 2.035 . S
O258 Zn257 2.028 . S
O258 C264 1.247 . S
O259 Zn255 2.035 . S
O259 C264 1.258 . S
O260 C253 1.247 . S
O260 Zn257 2.028 . S
O261 C253 1.258 . S
O261 Zn255 2.035 . S
O262 Zn255 2.028 . S
O262 C265 1.247 . S
O263 Zn257 2.035 . S
O263 C265 1.258 . S
C264 O258 1.247 . S
C264 O259 1.258 . S
C265 O262 1.247 . S
C265 O263 1.258 . S
C266 O268 1.247 . S
C266 O270 1.258 . S
C267 O274 1.247 . S
C267 O275 1.258 . S
O268 C266 1.247 . S
O268 Zn269 2.028 . S
Zn269 O268 2.028 . S
Zn269 O273 2.035 . S
Zn269 O275 2.035 . S
Zn269 O276 2.028 . S
O270 C266 1.258 . S
O270 Zn271 2.035 . S
Zn271 O270 2.035 . S
Zn271 O272 2.028 . S
Zn271 O274 2.028 . S
Zn271 O277 2.035 . S
O272 Zn271 2.028 . S
O272 C278 1.247 . S
O273 Zn269 2.035 . S
O273 C278 1.258 . S
O274 C267 1.247 . S
O274 Zn271 2.028 . S
O275 C267 1.258 . S
O275 Zn269 2.035 . S
O276 Zn269 2.028 . S
O276 C279 1.247 . S
O277 Zn271 2.035 . S
O277 C279 1.258 . S
C278 O272 1.247 . S
C278 O273 1.258 . S
C279 O276 1.247 . S
C279 O277 1.258 . S
C280 O282 1.247 . S
C280 O284 1.258 . S
C281 O288 1.247 . S
C281 O289 1.258 . S
O282 C280 1.247 . S
O282 Zn283 2.028 . S
Zn283 O282 2.028 . S
Zn283 O287 2.035 . S
Zn283 O289 2.035 . S
Zn283 O290 2.028 . S
O284 C280 1.258 . S
O284 Zn285 2.035 . S
Zn285 O284 2.035 . S
Zn285 O286 2.028 . S
Zn285 O288 2.028 . S
Zn285 O291 2.035 . S
O286 Zn285 2.028 . S
O286 C292 1.247 . S
O287 Zn283 2.035 . S
O287 C292 1.258 . S
O288 C281 1.247 . S
O288 Zn285 2.028 . S
O289 C281 1.258 . S
O289 Zn283 2.035 . S
O290 Zn283 2.028 . S
O290 C293 1.247 . S
O291 Zn285 2.035 . S
O291 C293 1.258 . S
C292 O286 1.247 . S
C292 O287 1.258 . S
C293 O290 1.247 . S
C293 O291 1.258 . S
C294 O296 1.247 . S
C294 O298 1.258 . S
C295 O302 1.247 . S
C295 O303 1.258 . S
O296 C294 1.247 . S
O296 Zn297 2.028 . S
Zn297 O296 2.028 . S
Zn297 O301 2.035 . S
Zn297 O303 2.035 . S
Zn297 O304 2.028 . S
O298 C294 1.258 . S
O298 Zn299 2.035 . S
Zn299 O298 2.035 . S
Zn299 O300 2.028 . S
Zn299 O302 2.028 . S
Zn299 O305 2.035 . S
O300 Zn299 2.028 . S
O300 C306 1.247 . S
O301 Zn297 2.035 . S
O301 C306 1.258 . S
O302 C295 1.247 . S
O302 Zn299 2.028 . S
O303 C295 1.258 . S
O303 Zn297 2.035 . S
O304 Zn297 2.028 . S
O304 C307 1.247 . S
O305 Zn299 2.035 . S
O305 C307 1.258 . S
C306 O300 1.247 . S
C306 O301 1.258 . S
C307 O304 1.247 . S
C307 O305 1.258 . S
C308 O310 1.247 . S
C308 O312 1.258 . S
C309 O316 1.247 . S
C309 O317 1.258 . S
O310 C308 1.247 . S
O310 Zn311 2.028 . S
Zn311 O310 2.028 . S
Zn311 O315 2.035 . S
Zn311 O317 2.035 . S
Zn311 O318 2.028 . S
O312 C308 1.258 . S
O312 Zn313 2.035 . S
Zn313 O312 2.035 . S
Zn313 O314 2.028 . S
Zn313 O316 2.028 . S
Zn313 O319 2.035 . S
O314 Zn313 2.028 . S
O314 C320 1.247 . S
O315 Zn311 2.035 . S
O315 C320 1.258 . S
O316 C309 1.247 . S
O316 Zn313 2.028 . S
O317 C309 1.258 . S
O317 Zn311 2.035 . S
O318 Zn311 2.028 . S
O318 C321 1.247 . S
O319 Zn313 2.035 . S
O319 C321 1.258 . S
C320 O314 1.247 . S
C320 O315 1.258 . S
C321 O318 1.247 . S
C321 O319 1.258 . S
C322 O324 1.247 . S
C322 O326 1.258 . S
C323 O330 1.247 . S
C323 O331 1.258 . S
O324 C322 1.247 . S
O324 Zn325 2.028 . S
Zn325 O324 2.028 . S
Zn325 O329 2.035 . S
Zn325 O331 2.035 1_545 S
Zn325 O332 2.028 1_545 S
O326 C322 1.258 . S
O326 Zn327 2.035 1_545 S
Zn327 O326 2.035 1_565 S
Zn327 O328 2.028 1_565 S
Zn327 O330 2.028 . S
Zn327 O333 2.035 . S
O328 Zn327 2.028 1_545 S
O328 C334 1.247 . S
O329 Zn325 2.035 . S
O329 C334 1.258 . S
O330 C323 1.247 . S
O330 Zn327 2.028 . S
O331 C323 1.258 . S
O331 Zn325 2.035 1_565 S
O332 Zn325 2.028 1_565 S
O332 C335 1.247 . S
O333 Zn327 2.035 . S
O333 C335 1.258 . S
C334 O328 1.247 . S
C334 O329 1.258 . S
C335 O332 1.247 . S
C335 O333 1.258 . S
C336 O338 1.247 . S
C336 O340 1.258 . S
C337 O344 1.247 . S
C337 O345 1.258 . S
O338 C336 1.247 . S
O338 Zn339 2.028 . S
Zn339 O338 2.028 . S
Zn339 O343 2.035 . S
Zn339 O345 2.035 . S
Zn339 O346 2.028 . S
O340 C336 1.258 . S
O340 Zn341 2.035 . S
Zn341 O340 2.035 . S
Zn341 O342 2.028 . S
Zn341 O344 2.028 . S
Zn341 O347 2.035 . S
O342 Zn341 2.028 . S
O342 C348 1.247 . S
O343 Zn339 2.035 . S
O343 C348 1.258 . S
O344 C337 1.247 . S
O344 Zn341 2.028 . S
O345 C337 1.258 . S
O345 Zn339 2.035 . S
O346 Zn339 2.028 . S
O346 C349 1.247 . S
O347 Zn341 2.035 . S
O347 C349 1.258 . S
C348 O342 1.247 . S
C348 O343 1.258 . S
C349 O346 1.247 . S
C349 O347 1.258 . S
C350 O352 1.247 . S
C350 O354 1.258 . S
C351 O358 1.247 . S
C351 O359 1.258 . S
O352 C350 1.247 . S
O352 Zn353 2.028 1_655 S
Zn353 O352 2.028 1_455 S
Zn353 O357 2.035 1_455 S
Zn353 O359 2.035 . S
Zn353 O360 2.028 . S
O354 C350 1.258 . S
O354 Zn355 2.035 . S
Zn355 O354 2.035 . S
Zn355 O356 2.028 . S
Zn355 O358 2.028 1_655 S
Zn355 O361 2.035 1_655 S
O356 Zn355 2.028 . S
O356 C362 1.247 . S
O357 Zn353 2.035 1_655 S
O357 C362 1.258 . S
O358 C351 1.247 . S
O358 Zn355 2.028 1_455 S
O359 C351 1.258 . S
O359 Zn353 2.035 . S
O360 Zn353 2.028 . S
O360 C363 1.247 . S
O361 Zn355 2.035 1_455 S
O361 C363 1.258 . S
C362 O356 1.247 . S
C362 O357 1.258 . S
C363 O360 1.247 . S
C363 O361 1.258 . S
C364 O366 1.247 . S
C364 O368 1.258 . S
C365 O372 1.247 . S
C365 O373 1.258 . S
O366 C364 1.247 . S
O366 Zn367 2.028 . S
Zn367 O366 2.028 . S
Zn367 O371 2.035 . S
Zn367 O373 2.035 . S
Zn367 O374 2.028 . S
O368 C364 1.258 . S
O368 Zn369 2.035 . S
Zn369 O368 2.035 . S
Zn369 O370 2.028 . S
Zn369 O372 2.028 . S
Zn369 O375 2.035 . S
O370 Zn369 2.028 . S
O370 C376 1.247 . S
O371 Zn367 2.035 . S
O371 C376 1.258 . S
O372 C365 1.247 . S
O372 Zn369 2.028 . S
O373 C365 1.258 . S
O373 Zn367 2.035 . S
O374 Zn367 2.028 . S
O374 C377 1.247 . S
O375 Zn369 2.035 . S
O375 C377 1.258 . S
C376 O370 1.247 . S
C376 O371 1.258 . S
C377 O374 1.247 . S
C377 O375 1.258 . S
C378 O380 1.247 . S
C378 O382 1.258 . S
C379 O386 1.247 . S
C379 O387 1.258 . S
O380 C378 1.247 . S
O380 Zn381 2.028 1_455 S
Zn381 O380 2.028 1_655 S
Zn381 O385 2.035 1_655 S
Zn381 O387 2.035 . S
Zn381 O388 2.028 . S
O382 C378 1.258 . S
O382 Zn383 2.035 . S
Zn383 O382 2.035 . S
Zn383 O384 2.028 . S
Zn383 O386 2.028 1_455 S
Zn383 O389 2.035 1_455 S
O384 Zn383 2.028 . S
O384 C390 1.247 . S
O385 Zn381 2.035 1_455 S
O385 C390 1.258 . S
O386 C379 1.247 . S
O386 Zn383 2.028 1_655 S
O387 C379 1.258 . S
O387 Zn381 2.035 . S
O388 Zn381 2.028 . S
O388 C391 1.247 . S
O389 Zn383 2.035 1_655 S
O389 C391 1.258 . S
C390 O384 1.247 . S
C390 O385 1.258 . S
C391 O388 1.247 . S
C391 O389 1.258 . S
C392 O394 1.247 . S
C392 O396 1.258 . S
C393 O400 1.247 . S
C393 O401 1.258 . S
O394 C392 1.247 . S
O394 Zn395 2.028 . S
Zn395 O394 2.028 . S
Zn395 O399 2.035 . S
Zn395 O401 2.035 . S
Zn395 O402 2.028 . S
O396 C392 1.258 . S
O396 Zn397 2.035 . S
Zn397 O396 2.035 . S
Zn397 O398 2.028 . S
Zn397 O400 2.028 . S
Zn397 O403 2.035 . S
O398 Zn397 2.028 . S
O398 C404 1.247 . S
O399 Zn395 2.035 . S
O399 C404 1.258 . S
O400 C393 1.247 . S
O400 Zn397 2.028 . S
O401 C393 1.258 . S
O401 Zn395 2.035 . S
O402 Zn395 2.028 . S
O402 C405 1.247 . S
O403 Zn397 2.035 . S
O403 C405 1.258 . S
C404 O398 1.247 . S
C404 O399 1.258 . S
C405 O402 1.247 . S
C405 O403 1.258 . S
C406 O408 1.247 . S
C406 O410 1.258 . S
C407 O414 1.247 . S
C407 O415 1.258 . S
O408 C406 1.247 . S
O408 Zn409 2.028 . S
Zn409 O408 2.028 . S
Zn409 O413 2.035 . S
Zn409 O415 2.035 . S
Zn409 O416 2.028 . S
O410 C406 1.258 . S
O410 Zn411 2.035 . S
Zn411 O410 2.035 . S
Zn411 O412 2.028 . S
Zn411 O414 2.028 . S
Zn411 O417 2.035 . S
O412 Zn411 2.028 . S
O412 C418 1.247 . S
O413 Zn409 2.035 . S
O413 C418 1.258 . S
O414 C407 1.247 . S
O414 Zn411 2.028 . S
O415 C407 1.258 . S
O415 Zn409 2.035 . S
O416 Zn409 2.028 . S
O416 C419 1.247 . S
O417 Zn411 2.035 . S
O417 C419 1.258 . S
C418 O412 1.247 . S
C418 O413 1.258 . S
C419 O416 1.247 . S
C419 O417 1.258 . S
C420 O422 1.247 . S
C420 O424 1.258 . S
C421 O428 1.247 . S
C421 O429 1.258 . S
O422 C420 1.247 . S
O422 Zn423 2.028 . S
Zn423 O422 2.028 . S
Zn423 O427 2.035 . S
Zn423 O429 2.035 . S
Zn423 O430 2.028 . S
O424 C420 1.258 . S
O424 Zn425 2.035 . S
Zn425 O424 2.035 . S
Zn425 O426 2.028 . S
Zn425 O428 2.028 . S
Zn425 O431 2.035 . S
O426 Zn425 2.028 . S
O426 C432 1.247 . S
O427 Zn423 2.035 . S
O427 C432 1.258 . S
O428 C421 1.247 . S
O428 Zn425 2.028 . S
O429 C421 1.258 . S
O429 Zn423 2.035 . S
O430 Zn423 2.028 . S
O430 C433 1.247 . S
O431 Zn425 2.035 . S
O431 C433 1.258 . S
C432 O426 1.247 . S
C432 O427 1.258 . S
C433 O430 1.247 . S
C433 O431 1.258 . S
C434 O436 1.247 . S
C434 O438 1.258 . S
C435 O442 1.247 . S
C435 O443 1.258 . S
O436 C434 1.247 . S
O436 Zn437 2.028 . S
Zn437 O436 2.028 . S
Zn437 O441 2.035 . S
Zn437 O443 2.035 . S
Zn437 O444 2.028 . S
O438 C434 1.258 . S
O438 Zn439 2.035 . S
Zn439 O438 2.035 . S
Zn439 O440 2.028 . S
Zn439 O442 2.028 . S
Zn439 O445 2.035 . S
O440 Zn439 2.028 . S
O440 C446 1.247 . S
O441 Zn437 2.035 . S
O441 C446 1.258 . S
O442 C435 1.247 . S
O442 Zn439 2.028 . S
O443 C435 1.258 . S
O443 Zn437 2.035 . S
O444 Zn437 2.028 . S
O444 C447 1.247 . S
O445 Zn439 2.035 . S
O445 C447 1.258 . S
C446 O440 1.247 . S
C446 O441 1.258 . S
C447 O444 1.247 . S
C447 O445 1.258 . S
C448 O450 1.247 . S
C448 O452 1.258 . S
C449 O456 1.247 . S
C449 O457 1.258 . S
O450 C448 1.247 . S
O450 Zn451 2.028 . S
Zn451 O450 2.028 . S
Zn451 O455 2.035 . S
Zn451 O457 2.035 . S
Zn451 O458 2.028 . S
O452 C448 1.258 . S
O452 Zn453 2.035 . S
Zn453 O452 2.035 . S
Zn453 O454 2.028 . S
Zn453 O456 2.028 . S
Zn453 O459 2.035 . S
O454 Zn453 2.028 . S
O454 C460 1.247 . S
O455 Zn451 2.035 . S
O455 C460 1.258 . S
O456 C449 1.247 . S
O456 Zn453 2.028 . S
O457 C449 1.258 . S
O457 Zn451 2.035 . S
O458 Zn451 2.028 . S
O458 C461 1.247 . S
O459 Zn453 2.035 . S
O459 C461 1.258 . S
C460 O454 1.247 . S
C460 O455 1.258 . S
C461 O458 1.247 . S
C461 O459 1.258 . S
C462 O464 1.247 . S
C462 O466 1.258 . S
C463 O470 1.247 . S
C463 O471 1.258 . S
O464 C462 1.247 . S
O464 Zn465 2.028 . S
Zn465 O464 2.028 . S
Zn465 O469 2.035 . S
Zn465 O471 2.035 . S
Zn465 O472 2.028 . S
O466 C462 1.258 . S
O466 Zn467 2.035 . S
Zn467 O466 2.035 . S
Zn467 O468 2.028 . S
Zn467 O470 2.028 . S
Zn467 O473 2.035 . S
O468 Zn467 2.028 . S
O468 C474 1.247 . S
O469 Zn465 2.035 . S
O469 C474 1.258 . S
O470 C463 1.247 . S
O470 Zn467 2.028 . S
O471 C463 1.258 . S
O471 Zn465 2.035 . S
O472 Zn465 2.028 . S
O472 C475 1.247 . S
O473 Zn467 2.035 . S
O473 C475 1.258 . S
C474 O468 1.247 . S
C474 O469 1.258 . S
C475 O472 1.247 . S
C475 O473 1.258 . S
C476 O478 1.247 . S
C476 O480 1.258 . S
C477 O484 1.247 . S
C477 O485 1.258 . S
O478 C476 1.247 . S
O478 Zn479 2.028 . S
Zn479 O478 2.028 . S
Zn479 O483 2.035 . S
Zn479 O485 2.035 . S
Zn479 O486 2.028 . S
O480 C476 1.258 . S
O480 Zn481 2.035 . S
Zn481 O480 2.035 . S
Zn481 O482 2.028 . S
Zn481 O484 2.028 . S
Zn481 O487 2.035 . S
O482 Zn481 2.028 . S
O482 C488 1.247 . S
O483 Zn479 2.035 . S
O483 C488 1.258 . S
O484 C477 1.247 . S
O484 Zn481 2.028 . S
O485 C477 1.258 . S
O485 Zn479 2.035 . S
O486 Zn479 2.028 . S
O486 C489 1.247 . S
O487 Zn481 2.035 . S
O487 C489 1.258 . S
C488 O482 1.247 . S
C488 O483 1.258 . S
C489 O486 1.247 . S
C489 O487 1.258 . S
C490 O492 1.247 . S
C490 O494 1.258 . S
C491 O498 1.247 . S
C491 O499 1.258 . S
O492 C490 1.247 . S
O492 Zn493 2.028 . S
Zn493 O492 2.028 . S
Zn493 O497 2.035 . S
Zn493 O499 2.035 . S
Zn493 O500 2.028 . S
O494 C490 1.258 . S
O494 Zn495 2.035 . S
Zn495 O494 2.035 . S
Zn495 O496 2.028 . S
Zn495 O498 2.028 . S
Zn495 O501 2.035 . S
O496 Zn495 2.028 . S
O496 C502 1.247 . S
O497 Zn493 2.035 . S
O497 C502 1.258 . S
O498 C491 1.247 . S
O498 Zn495 2.028 . S
O499 C491 1.258 . S
O499 Zn493 2.035 . S
O500 Zn493 2.028 . S
O500 C503 1.247 . S
O501 Zn495 2.035 . S
O501 C503 1.258 . S
C502 O496 1.247 . S
C502 O497 1.258 . S
C503 O500 1.247 . S
C503 O501 1.258 . S
C504 O506 1.247 . S
C504 O508 1.258 . S
C505 O512 1.247 . S
C505 O513 1.258 . S
O506 C504 1.247 . S
O506 Zn507 2.028 . S
Zn507 O506 2.028 . S
Zn507 O511 2.035 . S
Zn507 O513 2.035 . S
Zn507 O514 2.028 . S
O508 C504 1.258 . S
O508 Zn509 2.035 . S
Zn509 O508 2.035 . S
Zn509 O510 2.028 . S
Zn509 O512 2.028 . S
Zn509 O515 2.035 . S
O510 Zn509 2.028 . S
O510 C516 1.247 . S
O511 Zn507 2.035 . S
O511 C516 1.258 . S
O512 C505 1.247 . S
O512 Zn509 2.028 . S
O513 C505 1.258 . S
O513 Zn507 2.035 . S
O514 Zn507 2.028 . S
O514 C517 1.247 . S
O515 Zn509 2.035 . S
O515 C517 1.258 . S
C516 O510 1.247 . S
C516 O511 1.258 . S
C517 O514 1.247 . S
C517 O515 1.258 . S
C518 O520 1.247 . S
C518 O522 1.258 . S
C519 O526 1.247 . S
C519 O527 1.258 . S
O520 C518 1.247 . S
O520 Zn521 2.028 . S
Zn521 O520 2.028 . S
Zn521 O525 2.035 . S
Zn521 O527 2.035 . S
Zn521 O528 2.028 . S
O522 C518 1.258 . S
O522 Zn523 2.035 . S
Zn523 O522 2.035 . S
Zn523 O524 2.028 . S
Zn523 O526 2.028 . S
Zn523 O529 2.035 . S
O524 Zn523 2.028 . S
O524 C530 1.247 . S
O525 Zn521 2.035 . S
O525 C530 1.258 . S
O526 C519 1.247 . S
O526 Zn523 2.028 . S
O527 C519 1.258 . S
O527 Zn521 2.035 . S
O528 Zn521 2.028 . S
O528 C531 1.247 . S
O529 Zn523 2.035 . S
O529 C531 1.258 . S
C530 O524 1.247 . S
C530 O525 1.258 . S
C531 O528 1.247 . S
C531 O529 1.258 . S
C532 O534 1.247 . S
C532 O536 1.258 . S
C533 O540 1.247 . S
C533 O541 1.258 . S
O534 C532 1.247 . S
O534 Zn535 2.028 . S
Zn535 O534 2.028 . S
Zn535 O539 2.035 . S
Zn535 O541 2.035 . S
Zn535 O542 2.028 . S
O536 C532 1.258 . S
O536 Zn537 2.035 . S
Zn537 O536 2.035 . S
Zn537 O538 2.028 . S
Zn537 O540 2.028 . S
Zn537 O543 2.035 . S
O538 Zn537 2.028 . S
O538 C544 1.247 . S
O539 Zn535 2.035 . S
O539 C544 1.258 . S
O540 C533 1.247 . S
O540 Zn537 2.028 . S
O541 C533 1.258 . S
O541 Zn535 2.035 . S
O542 Zn535 2.028 . S
O542 C545 1.247 . S
O543 Zn537 2.035 . S
O543 C545 1.258 . S
C544 O538 1.247 . S
C544 O539 1.258 . S
C545 O542 1.247 . S
C545 O543 1.258 . S
C546 O548 1.247 . S
C546 O550 1.258 . S
C547 O554 1.247 . S
C547 O555 1.258 . S
O548 C546 1.247 . S
O548 Zn549 2.028 . S
Zn549 O548 2.028 . S
Zn549 O553 2.035 . S
Zn549 O555 2.035 . S
Zn549 O556 2.028 . S
O550 C546 1.258 . S
O550 Zn551 2.035 . S
Zn551 O550 2.035 . S
Zn551 O552 2.028 . S
Zn551 O554 2.028 . S
Zn551 O557 2.035 . S
O552 Zn551 2.028 . S
O552 C558 1.247 . S
O553 Zn549 2.035 . S
O553 C558 1.258 . S
O554 C547 1.247 . S
O554 Zn551 2.028 . S
O555 C547 1.258 . S
O555 Zn549 2.035 . S
O556 Zn549 2.028 . S
O556 C559 1.247 . S
O557 Zn551 2.035 . S
O557 C559 1.258 . S
C558 O552 1.247 . S
C558 O553 1.258 . S
C559 O556 1.247 . S
C559 O557 1.258 . S
C560 O562 1.247 . S
C560 O564 1.258 . S
C561 O568 1.247 . S
C561 O569 1.258 . S
O562 C560 1.247 . S
O562 Zn563 2.028 . S
Zn563 O562 2.028 . S
Zn563 O567 2.035 . S
Zn563 O569 2.035 . S
Zn563 O570 2.028 . S
O564 C560 1.258 . S
O564 Zn565 2.035 . S
Zn565 O564 2.035 . S
Zn565 O566 2.028 . S
Zn565 O568 2.028 . S
Zn565 O571 2.035 . S
O566 Zn565 2.028 . S
O566 C572 1.247 . S
O567 Zn563 2.035 . S
O567 C572 1.258 . S
O568 C561 1.247 . S
O568 Zn565 2.028 . S
O569 C561 1.258 . S
O569 Zn563 2.035 . S
O570 Zn563 2.028 . S
O570 C573 1.247 . S
O571 Zn565 2.035 . S
O571 C573 1.258 . S
C572 O566 1.247 . S
C572 O567 1.258 . S
C573 O570 1.247 . S
C573 O571 1.258 . S
C574 O576 1.247 . S
C574 O578 1.258 . S
C575 O582 1.247 . S
C575 O583 1.258 . S
O576 C574 1.247 . S
O576 Zn577 2.028 . S
Zn577 O576 2.028 . S
Zn577 O581 2.035 . S
Zn577 O583 2.035 . S
Zn577 O584 2.028 . S
O578 C574 1.258 . S
O578 Zn579 2.035 . S
Zn579 O578 2.035 . S
Zn579 O580 2.028 . S
Zn579 O582 2.028 . S
Zn579 O585 2.035 . S
O580 Zn579 2.028 . S
O580 C586 1.247 . S
O581 Zn577 2.035 . S
O581 C586 1.258 . S
O582 C575 1.247 . S
O582 Zn579 2.028 . S
O583 C575 1.258 . S
O583 Zn577 2.035 . S
O584 Zn577 2.028 . S
O584 C587 1.247 . S
O585 Zn579 2.035 . S
O585 C587 1.258 . S
C586 O580 1.247 . S
C586 O581 1.258 . S
C587 O584 1.247 . S
C587 O585 1.258 . S
C588 O590 1.247 . S
C588 O592 1.258 . S
C589 O596 1.247 . S
C589 O597 1.258 . S
O590 C588 1.247 . S
O590 Zn591 2.028 . S
Zn591 O590 2.028 . S
Zn591 O595 2.035 . S
Zn591 O597 2.035 1_565 S
Zn591 O598 2.028 1_565 S
O592 C588 1.258 . S
O592 Zn593 2.035 1_565 S
Zn593 O592 2.035 1_545 S
Zn593 O594 2.028 1_545 S
Zn593 O596 2.028 . S
Zn593 O599 2.035 . S
O594 Zn593 2.028 1_565 S
O594 C600 1.247 . S
O595 Zn591 2.035 . S
O595 C600 1.258 . S
O596 C589 1.247 . S
O596 Zn593 2.028 . S
O597 C589 1.258 . S
O597 Zn591 2.035 1_545 S
O598 Zn591 2.028 1_545 S
O598 C601 1.247 . S
O599 Zn593 2.035 . S
O599 C601 1.258 . S
C600 O594 1.247 . S
C600 O595 1.258 . S
C601 O598 1.247 . S
C601 O599 1.258 . S
C602 O604 1.247 . S
C602 O606 1.258 . S
C603 O610 1.247 . S
C603 O611 1.258 . S
O604 C602 1.247 . S
O604 Zn605 2.028 . S
Zn605 O604 2.028 . S
Zn605 O609 2.035 . S
Zn605 O611 2.035 . S
Zn605 O612 2.028 . S
O606 C602 1.258 . S
O606 Zn607 2.035 . S
Zn607 O606 2.035 . S
Zn607 O608 2.028 . S
Zn607 O610 2.028 . S
Zn607 O613 2.035 . S
O608 Zn607 2.028 . S
O608 C614 1.247 . S
O609 Zn605 2.035 . S
O609 C614 1.258 . S
O610 C603 1.247 . S
O610 Zn607 2.028 . S
O611 C603 1.258 . S
O611 Zn605 2.035 . S
O612 Zn605 2.028 . S
O612 C615 1.247 . S
O613 Zn607 2.035 . S
O613 C615 1.258 . S
C614 O608 1.247 . S
C614 O609 1.258 . S
C615 O612 1.247 . S
C615 O613 1.258 . S
C616 O618 1.247 . S
C616 O620 1.258 . S
C617 O624 1.247 . S
C617 O625 1.258 . S
O618 C616 1.247 . S
O618 Zn619 2.028 . S
Zn619 O618 2.028 . S
Zn619 O623 2.035 . S
Zn619 O625 2.035 1_545 S
Zn619 O626 2.028 1_545 S
O620 C616 1.258 . S
O620 Zn621 2.035 1_545 S
Zn621 O620 2.035 1_565 S
Zn621 O622 2.028 1_565 S
Zn621 O624 2.028 . S
Zn621 O627 2.035 . S
O622 Zn621 2.028 1_545 S
O622 C628 1.247 . S
O623 Zn619 2.035 . S
O623 C628 1.258 . S
O624 C617 1.247 . S
O624 Zn621 2.028 . S
O625 C617 1.258 . S
O625 Zn619 2.035 1_565 S
O626 Zn619 2.028 1_565 S
O626 C629 1.247 . S
O627 Zn621 2.035 . S
O627 C629 1.258 . S
C628 O622 1.247 . S
C628 O623 1.258 . S
C629 O626 1.247 . S
C629 O627 1.258 . S
C630 O632 1.247 . S
C630 O634 1.258 . S
C631 O638 1.247 . S
C631 O639 1.258 . S
O632 C630 1.247 . S
O632 Zn633 2.028 . S
Zn633 O632 2.028 . S
Zn633 O637 2.035 . S
Zn633 O639 2.035 . S
Zn633 O640 2.028 . S
O634 C630 1.258 . S
O634 Zn635 2.035 . S
Zn635 O634 2.035 . S
Zn635 O636 2.028 . S
Zn635 O638 2.028 . S
Zn635 O641 2.035 . S
O636 Zn635 2.028 . S
O636 C642 1.247 . S
O637 Zn633 2.035 . S
O637 C642 1.258 . S
O638 C631 1.247 . S
O638 Zn635 2.028 . S
O639 C631 1.258 . S
O639 Zn633 2.035 . S
O640 Zn633 2.028 . S
O640 C643 1.247 . S
O641 Zn635 2.035 . S
O641 C643 1.258 . S
C642 O636 1.247 . S
C642 O637 1.258 . S
C643 O640 1.247 . S
C643 O641 1.258 . S
C644 O646 1.247 . S
C644 O648 1.258 . S
C645 O652 1.247 . S
C645 O653 1.258 . S
O646 C644 1.247 . S
O646 Zn647 2.028 . S
Zn647 O646 2.028 . S
Zn647 O651 2.035 . S
Zn647 O653 2.035 1_565 S
Zn647 O654 2.028 1_565 S
O648 C644 1.258 . S
O648 Zn649 2.035 1_565 S
Zn649 O648 2.035 1_545 S
Zn649 O650 2.028 1_545 S
Zn649 O652 2.028 . S
Zn649 O655 2.035 . S
O650 Zn649 2.028 1_565 S
O650 C656 1.247 . S
O651 Zn647 2.035 . S
O651 C656 1.258 . S
O652 C645 1.247 . S
O652 Zn649 2.028 . S
O653 C645 1.258 . S
O653 Zn647 2.035 1_545 S
O654 Zn647 2.028 1_545 S
O654 C657 1.247 . S
O655 Zn649 2.035 . S
O655 C657 1.258 . S
C656 O650 1.247 . S
C656 O651 1.258 . S
C657 O654 1.247 . S
C657 O655 1.258 . S
C658 O660 1.247 . S
C658 O662 1.258 . S
C659 O666 1.247 . S
C659 O667 1.258 . S
O660 C658 1.247 . S
O660 Zn661 2.028 . S
Zn661 O660 2.028 . S
Zn661 O665 2.035 . S
Zn661 O667 2.035 . S
Zn661 O668 2.028 . S
O662 C658 1.258 . S
O662 Zn663 2.035 . S
Zn663 O662 2.035 . S
Zn663 O664 2.028 . S
Zn663 O666 2.028 . S
Zn663 O669 2.035 . S
O664 Zn663 2.028 . S
O664 C670 1.247 . S
O665 Zn661 2.035 . S
O665 C670 1.258 . S
O666 C659 1.247 . S
O666 Zn663 2.028 . S
O667 C659 1.258 . S
O667 Zn661 2.035 . S
O668 Zn661 2.028 . S
O668 C671 1.247 . S
O669 Zn663 2.035 . S
O669 C671 1.258 . S
C670 O664 1.247 . S
C670 O665 1.258 . S
C671 O668 1.247 . S
C671 O669 1.258 . S
C672 C673 1.387 . S
C672 H676 0.950 . S
C672 C681 1.390 . S
C673 C672 1.387 . S
C673 C675 1.387 . S
H674 C681 0.950 . S
C675 C673 1.387 . S
C675 C677 1.390 . S
C675 H679 0.950 . S
H676 C672 0.950 . S
C677 C675 1.390 . S
C677 C678 1.387 . S
C677 H680 0.950 . S
C678 C677 1.387 . S
C678 C681 1.387 . S
H679 C675 0.950 . S
H680 C677 0.950 . S
C681 C672 1.390 . S
C681 H674 0.950 . S
C681 C678 1.387 . S
C682 C683 1.387 . S
C682 H686 0.950 . S
C682 C691 1.390 1_554 S
C683 C682 1.387 . S
C683 C685 1.387 . S
H684 C691 0.950 . S
C685 C683 1.387 . S
C685 C687 1.390 1_554 S
C685 H689 0.950 . S
H686 C682 0.950 . S
C687 C685 1.390 1_556 S
C687 C688 1.387 . S
C687 H690 0.950 . S
C688 C687 1.387 . S
C688 C691 1.387 . S
H689 C685 0.950 . S
H690 C687 0.950 . S
C691 C682 1.390 1_556 S
C691 H684 0.950 . S
C691 C688 1.387 . S
C692 C693 1.387 . S
C692 H696 0.950 . S
C692 C701 1.390 . S
C693 C692 1.387 . S
C693 C695 1.387 . S
H694 C701 0.950 . S
C695 C693 1.387 . S
C695 C697 1.390 . S
C695 H699 0.950 . S
H696 C692 0.950 . S
C697 C695 1.390 . S
C697 C698 1.387 . S
C697 H700 0.950 . S
C698 C697 1.387 . S
C698 C701 1.387 . S
H699 C695 0.950 . S
H700 C697 0.950 . S
C701 C692 1.390 . S
C701 H694 0.950 . S
C701 C698 1.387 . S
C702 C703 1.387 . S
C702 H706 0.950 . S
C702 C711 1.390 1_556 S
C703 C702 1.387 . S
C703 C705 1.387 . S
H704 C711 0.950 . S
C705 C703 1.387 . S
C705 C707 1.390 1_556 S
C705 H709 0.950 . S
H706 C702 0.950 . S
C707 C705 1.390 1_554 S
C707 C708 1.387 . S
C707 H710 0.950 . S
C708 C707 1.387 . S
C708 C711 1.387 . S
H709 C705 0.950 . S
H710 C707 0.950 . S
C711 C702 1.390 1_554 S
C711 H704 0.950 . S
C711 C708 1.387 . S
C712 C713 1.387 . S
C712 H716 0.950 . S
C712 C721 1.390 . S
C713 C712 1.387 . S
C713 C715 1.387 . S
H714 C721 0.950 . S
C715 C713 1.387 . S
C715 C717 1.390 . S
C715 H719 0.950 . S
H716 C712 0.950 . S
C717 C715 1.390 . S
C717 C718 1.387 . S
C717 H720 0.950 . S
C718 C717 1.387 . S
C718 C721 1.387 . S
H719 C715 0.950 . S
H720 C717 0.950 . S
C721 C712 1.390 . S
C721 H714 0.950 . S
C721 C718 1.387 . S
C722 C723 1.387 . S
C722 H726 0.950 . S
C722 C731 1.390 1_554 S
C723 C722 1.387 . S
C723 C725 1.387 . S
H724 C731 0.950 . S
C725 C723 1.387 . S
C725 C727 1.390 1_554 S
C725 H729 0.950 . S
H726 C722 0.950 . S
C727 C725 1.390 1_556 S
C727 C728 1.387 . S
C727 H730 0.950 . S
C728 C727 1.387 . S
C728 C731 1.387 . S
H729 C725 0.950 . S
H730 C727 0.950 . S
C731 C722 1.390 1_556 S
C731 H724 0.950 . S
C731 C728 1.387 . S
C732 C733 1.387 . S
C732 H736 0.950 . S
C732 C741 1.390 . S
C733 C732 1.387 . S
C733 C735 1.387 . S
H734 C741 0.950 . S
C735 C733 1.387 . S
C735 C737 1.390 . S
C735 H739 0.950 . S
H736 C732 0.950 . S
C737 C735 1.390 . S
C737 C738 1.387 . S
C737 H740 0.950 . S
C738 C737 1.387 . S
C738 C741 1.387 . S
H739 C735 0.950 . S
H740 C737 0.950 . S
C741 C732 1.390 . S
C741 H734 0.950 . S
C741 C738 1.387 . S
C742 C743 1.387 . S
C742 H746 0.950 . S
C742 C751 1.390 1_556 S
C743 C742 1.387 . S
C743 C745 1.387 . S
H744 C751 0.950 . S
C745 C743 1.387 . S
C745 C747 1.390 1_556 S
C745 H749 0.950 . S
H746 C742 0.950 . S
C747 C745 1.390 1_554 S
C747 C748 1.387 . S
C747 H750 0.950 . S
C748 C747 1.387 . S
C748 C751 1.387 . S
H749 C745 0.950 . S
H750 C747 0.950 . S
C751 C742 1.390 1_554 S
C751 H744 0.950 . S
C751 C748 1.387 . S
C752 C753 1.387 . S
C752 H756 0.950 . S
C752 C761 1.390 . S
C753 C752 1.387 . S
C753 C755 1.387 . S
H754 C761 0.950 . S
C755 C753 1.387 . S
C755 C757 1.390 . S
C755 H759 0.950 . S
H756 C752 0.950 . S
C757 C755 1.390 . S
C757 C758 1.387 . S
C757 H760 0.950 . S
C758 C757 1.387 . S
C758 C761 1.387 . S
H759 C755 0.950 . S
H760 C757 0.950 . S
C761 C752 1.390 . S
C761 H754 0.950 . S
C761 C758 1.387 . S
C762 C763 1.387 . S
C762 H766 0.950 . S
C762 C771 1.390 . S
C763 C762 1.387 . S
C763 C765 1.387 . S
H764 C771 0.950 . S
C765 C763 1.387 . S
C765 C767 1.390 . S
C765 H769 0.950 . S
H766 C762 0.950 . S
C767 C765 1.390 . S
C767 C768 1.387 . S
C767 H770 0.950 . S
C768 C767 1.387 . S
C768 C771 1.387 . S
H769 C765 0.950 . S
H770 C767 0.950 . S
C771 C762 1.390 . S
C771 H764 0.950 . S
C771 C768 1.387 . S
C772 C773 1.387 . S
C772 H776 0.950 . S
C772 C781 1.390 . S
C773 C772 1.387 . S
C773 C775 1.387 . S
H774 C781 0.950 . S
C775 C773 1.387 . S
C775 C777 1.390 . S
C775 H779 0.950 . S
H776 C772 0.950 . S
C777 C775 1.390 . S
C777 C778 1.387 . S
C777 H780 0.950 . S
C778 C777 1.387 . S
C778 C781 1.387 . S
H779 C775 0.950 . S
H780 C777 0.950 . S
C781 C772 1.390 . S
C781 H774 0.950 . S
C781 C778 1.387 . S
C782 C783 1.387 . S
C782 H786 0.950 . S
C782 C791 1.390 1_565 S
C783 C782 1.387 . S
C783 C785 1.387 . S
H784 C791 0.950 . S
C785 C783 1.387 . S
C785 C787 1.390 1_565 S
C785 H789 0.950 . S
H786 C782 0.950 . S
C787 C785 1.390 1_545 S
C787 C788 1.387 . S
C787 H790 0.950 . S
C788 C787 1.387 . S
C788 C791 1.387 . S
H789 C785 0.950 . S
H790 C787 0.950 . S
C791 C782 1.390 1_545 S
C791 H784 0.950 . S
C791 C788 1.387 . S
C792 C793 1.387 . S
C792 H796 0.950 . S
C792 C801 1.390 . S
C793 C792 1.387 . S
C793 C795 1.387 . S
H794 C801 0.950 . S
C795 C793 1.387 . S
C795 C797 1.390 . S
C795 H799 0.950 . S
H796 C792 0.950 . S
C797 C795 1.390 . S
C797 C798 1.387 . S
C797 H800 0.950 . S
C798 C797 1.387 . S
C798 C801 1.387 . S
H799 C795 0.950 . S
H800 C797 0.950 . S
C801 C792 1.390 . S
C801 H794 0.950 . S
C801 C798 1.387 . S
C802 C803 1.387 . S
C802 H806 0.950 . S
C802 C811 1.390 . S
C803 C802 1.387 . S
C803 C805 1.387 . S
H804 C811 0.950 . S
C805 C803 1.387 . S
C805 C807 1.390 . S
C805 H809 0.950 . S
H806 C802 0.950 . S
C807 C805 1.390 . S
C807 C808 1.387 . S
C807 H810 0.950 . S
C808 C807 1.387 . S
C808 C811 1.387 . S
H809 C805 0.950 . S
H810 C807 0.950 . S
C811 C802 1.390 . S
C811 H804 0.950 . S
C811 C808 1.387 . S
C812 C813 1.387 . S
C812 H816 0.950 . S
C812 C821 1.390 . S
C813 C812 1.387 . S
C813 C815 1.387 . S
H814 C821 0.950 . S
C815 C813 1.387 . S
C815 C817 1.390 . S
C815 H819 0.950 . S
H816 C812 0.950 . S
C817 C815 1.390 . S
C817 C818 1.387 . S
C817 H820 0.950 . S
C818 C817 1.387 . S
C818 C821 1.387 . S
H819 C815 0.950 . S
H820 C817 0.950 . S
C821 C812 1.390 . S
C821 H814 0.950 . S
C821 C818 1.387 . S
C822 C823 1.387 . S
C822 H826 0.950 . S
C822 C831 1.390 1_545 S
C823 C822 1.387 . S
C823 C825 1.387 . S
H824 C831 0.950 . S
C825 C823 1.387 . S
C825 C827 1.390 1_545 S
C825 H829 0.950 . S
H826 C822 0.950 . S
C827 C825 1.390 1_565 S
C827 C828 1.387 . S
C827 H830 0.950 . S
C828 C827 1.387 . S
C828 C831 1.387 . S
H829 C825 0.950 . S
H830 C827 0.950 . S
C831 C822 1.390 1_565 S
C831 H824 0.950 . S
C831 C828 1.387 . S
C832 C833 1.387 . S
C832 H836 0.950 . S
C832 C841 1.390 . S
C833 C832 1.387 . S
C833 C835 1.387 . S
H834 C841 0.950 . S
C835 C833 1.387 . S
C835 C837 1.390 . S
C835 H839 0.950 . S
H836 C832 0.950 . S
C837 C835 1.390 . S
C837 C838 1.387 . S
C837 H840 0.950 . S
C838 C837 1.387 . S
C838 C841 1.387 . S
H839 C835 0.950 . S
H840 C837 0.950 . S
C841 C832 1.390 . S
C841 H834 0.950 . S
C841 C838 1.387 . S
C842 C843 1.387 . S
C842 H846 0.950 . S
C842 C851 1.390 . S
C843 C842 1.387 . S
C843 C845 1.387 . S
H844 C851 0.950 . S
C845 C843 1.387 . S
C845 C847 1.390 . S
C845 H849 0.950 . S
H846 C842 0.950 . S
C847 C845 1.390 . S
C847 C848 1.387 . S
C847 H850 0.950 . S
C848 C847 1.387 . S
C848 C851 1.387 . S
H849 C845 0.950 . S
H850 C847 0.950 . S
C851 C842 1.390 . S
C851 H844 0.950 . S
C851 C848 1.387 . S
C852 C853 1.387 . S
C852 H856 0.950 . S
C852 C861 1.390 1_655 S
C853 C852 1.387 . S
C853 C855 1.387 . S
H854 C861 0.950 . S
C855 C853 1.387 . S
C855 C857 1.390 1_655 S
C855 H859 0.950 . S
H856 C852 0.950 . S
C857 C855 1.390 1_455 S
C857 C858 1.387 . S
C857 H860 0.950 . S
C858 C857 1.387 . S
C858 C861 1.387 . S
H859 C855 0.950 . S
H860 C857 0.950 . S
C861 C852 1.390 1_455 S
C861 H854 0.950 . S
C861 C858 1.387 . S
C862 C863 1.387 . S
C862 H866 0.950 . S
C862 C871 1.390 . S
C863 C862 1.387 . S
C863 C865 1.387 . S
H864 C871 0.950 . S
C865 C863 1.387 . S
C865 C867 1.390 . S
C865 H869 0.950 . S
H866 C862 0.950 . S
C867 C865 1.390 . S
C867 C868 1.387 . S
C867 H870 0.950 . S
C868 C867 1.387 . S
C868 C871 1.387 . S
H869 C865 0.950 . S
H870 C867 0.950 . S
C871 C862 1.390 . S
C871 H864 0.950 . S
C871 C868 1.387 . S
C872 C873 1.387 . S
C872 H876 0.950 . S
C872 C881 1.390 . S
C873 C872 1.387 . S
C873 C875 1.387 . S
H874 C881 0.950 . S
C875 C873 1.387 . S
C875 C877 1.390 . S
C875 H879 0.950 . S
H876 C872 0.950 . S
C877 C875 1.390 . S
C877 C878 1.387 . S
C877 H880 0.950 . S
C878 C877 1.387 . S
C878 C881 1.387 . S
H879 C875 0.950 . S
H880 C877 0.950 . S
C881 C872 1.390 . S
C881 H874 0.950 . S
C881 C878 1.387 . S
C882 C883 1.387 . S
C882 H886 0.950 . S
C882 C891 1.390 . S
C883 C882 1.387 . S
C883 C885 1.387 . S
H884 C891 0.950 . S
C885 C883 1.387 . S
C885 C887 1.390 . S
C885 H889 0.950 . S
H886 C882 0.950 . S
C887 C885 1.390 . S
C887 C888 1.387 . S
C887 H890 0.950 . S
C888 C887 1.387 . S
C888 C891 1.387 . S
H889 C885 0.950 . S
H890 C887 0.950 . S
C891 C882 1.390 . S
C891 H884 0.950 . S
C891 C888 1.387 . S
C892 C893 1.387 . S
C892 H896 0.950 . S
C892 C901 1.390 1_455 S
C893 C892 1.387 . S
C893 C895 1.387 . S
H894 C901 0.950 . S
C895 C893 1.387 . S
C895 C897 1.390 1_455 S
C895 H899 0.950 . S
H896 C892 0.950 . S
C897 C895 1.390 1_655 S
C897 C898 1.387 . S
C897 H900 0.950 . S
C898 C897 1.387 . S
C898 C901 1.387 . S
H899 C895 0.950 . S
H900 C897 0.950 . S
C901 C892 1.390 1_655 S
C901 H894 0.950 . S
C901 C898 1.387 . S
C902 C903 1.387 . S
C902 H906 0.950 . S
C902 C911 1.390 1_655 S
C903 C902 1.387 . S
C903 C905 1.387 . S
H904 C911 0.950 . S
C905 C903 1.387 . S
C905 C907 1.390 1_655 S
C905 H909 0.950 . S
H906 C902 0.950 . S
C907 C905 1.390 1_455 S
C907 C908 1.387 . S
C907 H910 0.950 . S
C908 C907 1.387 . S
C908 C911 1.387 . S
H909 C905 0.950 . S
H910 C907 0.950 . S
C911 C902 1.390 1_455 S
C911 H904 0.950 . S
C911 C908 1.387 . S
C912 C913 1.387 . S
C912 H916 0.950 . S
C912 C921 1.390 . S
C913 C912 1.387 . S
C913 C915 1.387 . S
H914 C921 0.950 . S
C915 C913 1.387 . S
C915 C917 1.390 . S
C915 H919 0.950 . S
H916 C912 0.950 . S
C917 C915 1.390 . S
C917 C918 1.387 . S
C917 H920 0.950 . S
C918 C917 1.387 . S
C918 C921 1.387 . S
H919 C915 0.950 . S
H920 C917 0.950 . S
C921 C912 1.390 . S
C921 H914 0.950 . S
C921 C918 1.387 . S
C922 C923 1.387 . S
C922 H926 0.950 . S
C922 C931 1.390 . S
C923 C922 1.387 . S
C923 C925 1.387 . S
H924 C931 0.950 . S
C925 C923 1.387 . S
C925 C927 1.390 . S
C925 H929 0.950 . S
H926 C922 0.950 . S
C927 C925 1.390 . S
C927 C928 1.387 . S
C927 H930 0.950 . S
C928 C927 1.387 . S
C928 C931 1.387 . S
H929 C925 0.950 . S
H930 C927 0.950 . S
C931 C922 1.390 . S
C931 H924 0.950 . S
C931 C928 1.387 . S
C932 C933 1.387 . S
C932 H936 0.950 . S
C932 C941 1.390 . S
C933 C932 1.387 . S
C933 C935 1.387 . S
H934 C941 0.950 . S
C935 C933 1.387 . S
C935 C937 1.390 . S
C935 H939 0.950 . S
H936 C932 0.950 . S
C937 C935 1.390 . S
C937 C938 1.387 . S
C937 H940 0.950 . S
C938 C937 1.387 . S
C938 C941 1.387 . S
H939 C935 0.950 . S
H940 C937 0.950 . S
C941 C932 1.390 . S
C941 H934 0.950 . S
C941 C938 1.387 . S
C942 C943 1.387 . S
C942 H946 0.950 . S
C942 C951 1.390 . S
C943 C942 1.387 . S
C943 C945 1.387 . S
H944 C951 0.950 . S
C945 C943 1.387 . S
C945 C947 1.390 . S
C945 H949 0.950 . S
H946 C942 0.950 . S
C947 C945 1.390 . S
C947 C948 1.387 . S
C947 H950 0.950 . S
C948 C947 1.387 . S
C948 C951 1.387 . S
H949 C945 0.950 . S
H950 C947 0.950 . S
C951 C942 1.390 . S
C951 H944 0.950 . S
C951 C948 1.387 . S
C952 C953 1.387 . S
C952 H956 0.950 . S
C952 C961 1.390 . S
C953 C952 1.387 . S
C953 C955 1.387 . S
H954 C961 0.950 . S
C955 C953 1.387 . S
C955 C957 1.390 . S
C955 H959 0.950 . S
H956 C952 0.950 . S
C957 C955 1.390 . S
C957 C958 1.387 . S
C957 H960 0.950 . S
C958 C957 1.387 . S
C958 C961 1.387 . S
H959 C955 0.950 . S
H960 C957 0.950 . S
C961 C952 1.390 . S
C961 H954 0.950 . S
C961 C958 1.387 . S
C962 C963 1.387 . S
C962 H966 0.950 . S
C962 C971 1.390 . S
C963 C962 1.387 . S
C963 C965 1.387 . S
H964 C971 0.950 . S
C965 C963 1.387 . S
C965 C967 1.390 . S
C965 H969 0.950 . S
H966 C962 0.950 . S
C967 C965 1.390 . S
C967 C968 1.387 . S
C967 H970 0.950 . S
C968 C967 1.387 . S
C968 C971 1.387 . S
H969 C965 0.950 . S
H970 C967 0.950 . S
C971 C962 1.390 . S
C971 H964 0.950 . S
C971 C968 1.387 . S
C972 C973 1.387 . S
C972 H976 0.950 . S
C972 C981 1.390 . S
C973 C972 1.387 . S
C973 C975 1.387 . S
H974 C981 0.950 . S
C975 C973 1.387 . S
C975 C977 1.390 . S
C975 H979 0.950 . S
H976 C972 0.950 . S
C977 C975 1.390 . S
C977 C978 1.387 . S
C977 H980 0.950 . S
C978 C977 1.387 . S
C978 C981 1.387 . S
H979 C975 0.950 . S
H980 C977 0.950 . S
C981 C972 1.390 . S
C981 H974 0.950 . S
C981 C978 1.387 . S
C982 C983 1.387 . S
C982 H986 0.950 . S
C982 C991 1.390 . S
C983 C982 1.387 . S
C983 C985 1.387 . S
H984 C991 0.950 . S
C985 C983 1.387 . S
C985 C987 1.390 . S
C985 H989 0.950 . S
H986 C982 0.950 . S
C987 C985 1.390 . S
C987 C988 1.387 . S
C987 H990 0.950 . S
C988 C987 1.387 . S
C988 C991 1.387 . S
H989 C985 0.950 . S
H990 C987 0.950 . S
C991 C982 1.390 . S
C991 H984 0.950 . S
C991 C988 1.387 . S
C992 C993 1.387 . S
C992 H996 0.950 . S
C992 C1001 1.390 . S
C993 C992 1.387 . S
C993 C995 1.387 . S
H994 C1001 0.950 . S
C995 C993 1.387 . S
C995 C997 1.390 . S
C995 H999 0.950 . S
H996 C992 0.950 . S
C997 C995 1.390 . S
C997 C998 1.387 . S
C997 H1000 0.950 . S
C998 C997 1.387 . S
C998 C1001 1.387 . S
H999 C995 0.950 . S
H1000 C997 0.950 . S
C1001 C992 1.390 . S
C1001 H994 0.950 . S
C1001 C998 1.387 . S
C1002 C1003 1.387 . S
C1002 H1006 0.950 . S
C1002 C1011 1.390 1_565 S
C1003 C1002 1.387 . S
C1003 C1005 1.387 . S
H1004 C1011 0.950 . S
C1005 C1003 1.387 . S
C1005 C1007 1.390 1_565 S
C1005 H1009 0.950 . S
H1006 C1002 0.950 . S
C1007 C1005 1.390 1_545 S
C1007 C1008 1.387 . S
C1007 H1010 0.950 . S
C1008 C1007 1.387 . S
C1008 C1011 1.387 . S
H1009 C1005 0.950 . S
H1010 C1007 0.950 . S
C1011 C1002 1.390 1_545 S
C1011 H1004 0.950 . S
C1011 C1008 1.387 . S
C1012 C1013 1.387 . S
C1012 H1016 0.950 . S
C1012 C1021 1.390 . S
C1013 C1012 1.387 . S
C1013 C1015 1.387 . S
H1014 C1021 0.950 . S
C1015 C1013 1.387 . S
C1015 C1017 1.390 . S
C1015 H1019 0.950 . S
H1016 C1012 0.950 . S
C1017 C1015 1.390 . S
C1017 C1018 1.387 . S
C1017 H1020 0.950 . S
C1018 C1017 1.387 . S
C1018 C1021 1.387 . S
H1019 C1015 0.950 . S
H1020 C1017 0.950 . S
C1021 C1012 1.390 . S
C1021 H1014 0.950 . S
C1021 C1018 1.387 . S
C1022 C1023 1.387 . S
C1022 H1026 0.950 . S
C1022 C1031 1.390 . S
C1023 C1022 1.387 . S
C1023 C1025 1.387 . S
H1024 C1031 0.950 . S
C1025 C1023 1.387 . S
C1025 C1027 1.390 . S
C1025 H1029 0.950 . S
H1026 C1022 0.950 . S
C1027 C1025 1.390 . S
C1027 C1028 1.387 . S
C1027 H1030 0.950 . S
C1028 C1027 1.387 . S
C1028 C1031 1.387 . S
H1029 C1025 0.950 . S
H1030 C1027 0.950 . S
C1031 C1022 1.390 . S
C1031 H1024 0.950 . S
C1031 C1028 1.387 . S
C1032 C1033 1.387 . S
C1032 H1036 0.950 . S
C1032 C1041 1.390 . S
C1033 C1032 1.387 . S
C1033 C1035 1.387 . S
H1034 C1041 0.950 . S
C1035 C1033 1.387 . S
C1035 C1037 1.390 . S
C1035 H1039 0.950 . S
H1036 C1032 0.950 . S
C1037 C1035 1.390 . S
C1037 C1038 1.387 . S
C1037 H1040 0.950 . S
C1038 C1037 1.387 . S
C1038 C1041 1.387 . S
H1039 C1035 0.950 . S
H1040 C1037 0.950 . S
C1041 C1032 1.390 . S
C1041 H1034 0.950 . S
C1041 C1038 1.387 . S
C1042 C1043 1.387 . S
C1042 H1046 0.950 . S
C1042 C1051 1.390 1_565 S
C1043 C1042 1.387 . S
C1043 C1045 1.387 . S
H1044 C1051 0.950 . S
C1045 C1043 1.387 . S
C1045 C1047 1.390 1_565 S
C1045 H1049 0.950 . S
H1046 C1042 0.950 . S
C1047 C1045 1.390 1_545 S
C1047 C1048 1.387 . S
C1047 H1050 0.950 . S
C1048 C1047 1.387 . S
C1048 C1051 1.387 . S
H1049 C1045 0.950 . S
H1050 C1047 0.950 . S
C1051 C1042 1.390 1_545 S
C1051 H1044 0.950 . S
C1051 C1048 1.387 . S
C1052 C1053 1.387 . S
C1052 H1056 0.950 . S
C1052 C1061 1.390 . S
C1053 C1052 1.387 . S
C1053 C1055 1.387 . S
H1054 C1061 0.950 . S
C1055 C1053 1.387 . S
C1055 C1057 1.390 . S
C1055 H1059 0.950 . S
H1056 C1052 0.950 . S
C1057 C1055 1.390 . S
C1057 C1058 1.387 . S
C1057 H1060 0.950 . S
C1058 C1057 1.387 . S
C1058 C1061 1.387 . S
H1059 C1055 0.950 . S
H1060 C1057 0.950 . S
C1061 C1052 1.390 . S
C1061 H1054 0.950 . S
C1061 C1058 1.387 . S
C1062 C1063 1.387 . S
C1062 H1066 0.950 . S
C1062 C1071 1.390 . S
C1063 C1062 1.387 . S
C1063 C1065 1.387 . S
H1064 C1071 0.950 . S
C1065 C1063 1.387 . S
C1065 C1067 1.390 . S
C1065 H1069 0.950 . S
H1066 C1062 0.950 . S
C1067 C1065 1.390 . S
C1067 C1068 1.387 . S
C1067 H1070 0.950 . S
C1068 C1067 1.387 . S
C1068 C1071 1.387 . S
H1069 C1065 0.950 . S
H1070 C1067 0.950 . S
C1071 C1062 1.390 . S
C1071 H1064 0.950 . S
C1071 C1068 1.387 . S
C1072 C1073 1.387 . S
C1072 H1076 0.950 . S
C1072 C1081 1.390 . S
C1073 C1072 1.387 . S
C1073 C1075 1.387 . S
H1074 C1081 0.950 . S
C1075 C1073 1.387 . S
C1075 C1077 1.390 . S
C1075 H1079 0.950 . S
H1076 C1072 0.950 . S
C1077 C1075 1.390 . S
C1077 C1078 1.387 . S
C1077 H1080 0.950 . S
C1078 C1077 1.387 . S
C1078 C1081 1.387 . S
H1079 C1075 0.950 . S
H1080 C1077 0.950 . S
C1081 C1072 1.390 . S
C1081 H1074 0.950 . S
C1081 C1078 1.387 . S
C1082 C1083 1.387 . S
C1082 H1086 0.950 . S
C1082 C1091 1.390 . S
C1083 C1082 1.387 . S
C1083 C1085 1.387 . S
H1084 C1091 0.950 . S
C1085 C1083 1.387 . S
C1085 C1087 1.390 . S
C1085 H1089 0.950 . S
H1086 C1082 0.950 . S
C1087 C1085 1.390 . S
C1087 C1088 1.387 . S
C1087 H1090 0.950 . S
C1088 C1087 1.387 . S
C1088 C1091 1.387 . S
H1089 C1085 0.950 . S
H1090 C1087 0.950 . S
C1091 C1082 1.390 . S
C1091 H1084 0.950 . S
C1091 C1088 1.387 . S
C1092 C1093 1.387 . S
C1092 H1096 0.950 . S
C1092 C1101 1.390 . S
C1093 C1092 1.387 . S
C1093 C1095 1.387 . S
H1094 C1101 0.950 . S
C1095 C1093 1.387 . S
C1095 C1097 1.390 . S
C1095 H1099 0.950 . S
H1096 C1092 0.950 . S
C1097 C1095 1.390 . S
C1097 C1098 1.387 . S
C1097 H1100 0.950 . S
C1098 C1097 1.387 . S
C1098 C1101 1.387 . S
H1099 C1095 0.950 . S
H1100 C1097 0.950 . S
C1101 C1092 1.390 . S
C1101 H1094 0.950 . S
C1101 C1098 1.387 . S
C1102 C1103 1.387 . S
C1102 H1106 0.950 . S
C1102 C1111 1.390 . S
C1103 C1102 1.387 . S
C1103 C1105 1.387 . S
H1104 C1111 0.950 . S
C1105 C1103 1.387 . S
C1105 C1107 1.390 . S
C1105 H1109 0.950 . S
H1106 C1102 0.950 . S
C1107 C1105 1.390 . S
C1107 C1108 1.387 . S
C1107 H1110 0.950 . S
C1108 C1107 1.387 . S
C1108 C1111 1.387 . S
H1109 C1105 0.950 . S
H1110 C1107 0.950 . S
C1111 C1102 1.390 . S
C1111 H1104 0.950 . S
C1111 C1108 1.387 . S
C1112 C1113 1.387 . S
C1112 H1116 0.950 . S
C1112 C1121 1.390 1_455 S
C1113 C1112 1.387 . S
C1113 C1115 1.387 . S
H1114 C1121 0.950 . S
C1115 C1113 1.387 . S
C1115 C1117 1.390 1_455 S
C1115 H1119 0.950 . S
H1116 C1112 0.950 . S
C1117 C1115 1.390 1_655 S
C1117 C1118 1.387 . S
C1117 H1120 0.950 . S
C1118 C1117 1.387 . S
C1118 C1121 1.387 . S
H1119 C1115 0.950 . S
H1120 C1117 0.950 . S
C1121 C1112 1.390 1_655 S
C1121 H1114 0.950 . S
C1121 C1118 1.387 . S
C1122 C1123 1.387 . S
C1122 H1126 0.950 . S
C1122 C1131 1.390 . S
C1123 C1122 1.387 . S
C1123 C1125 1.387 . S
H1124 C1131 0.950 . S
C1125 C1123 1.387 . S
C1125 C1127 1.390 . S
C1125 H1129 0.950 . S
H1126 C1122 0.950 . S
C1127 C1125 1.390 . S
C1127 C1128 1.387 . S
C1127 H1130 0.950 . S
C1128 C1127 1.387 . S
C1128 C1131 1.387 . S
H1129 C1125 0.950 . S
H1130 C1127 0.950 . S
C1131 C1122 1.390 . S
C1131 H1124 0.950 . S
C1131 C1128 1.387 . S
C1132 C1133 1.387 . S
C1132 H1136 0.950 . S
C1132 C1141 1.390 . S
C1133 C1132 1.387 . S
C1133 C1135 1.387 . S
H1134 C1141 0.950 . S
C1135 C1133 1.387 . S
C1135 C1137 1.390 . S
C1135 H1139 0.950 . S
H1136 C1132 0.950 . S
C1137 C1135 1.390 . S
C1137 C1138 1.387 . S
C1137 H1140 0.950 . S
C1138 C1137 1.387 . S
C1138 C1141 1.387 . S
H1139 C1135 0.950 . S
H1140 C1137 0.950 . S
C1141 C1132 1.390 . S
C1141 H1134 0.950 . S
C1141 C1138 1.387 . S
C1142 C1143 1.387 . S
C1142 H1146 0.950 . S
C1142 C1151 1.390 . S
C1143 C1142 1.387 . S
C1143 C1145 1.387 . S
H1144 C1151 0.950 . S
C1145 C1143 1.387 . S
C1145 C1147 1.390 . S
C1145 H1149 0.950 . S
H1146 C1142 0.950 . S
C1147 C1145 1.390 . S
C1147 C1148 1.387 . S
C1147 H1150 0.950 . S
C1148 C1147 1.387 . S
C1148 C1151 1.387 . S
H1149 C1145 0.950 . S
H1150 C1147 0.950 . S
C1151 C1142 1.390 . S
C1151 H1144 0.950 . S
C1151 C1148 1.387 . S
C1152 C1153 1.387 . S
C1152 H1156 0.950 . S
C1152 C1161 1.390 . S
C1153 C1152 1.387 . S
C1153 C1155 1.387 . S
H1154 C1161 0.950 . S
C1155 C1153 1.387 . S
C1155 C1157 1.390 . S
C1155 H1159 0.950 . S
H1156 C1152 0.950 . S
C1157 C1155 1.390 . S
C1157 C1158 1.387 . S
C1157 H1160 0.950 . S
C1158 C1157 1.387 . S
C1158 C1161 1.387 . S
H1159 C1155 0.950 . S
H1160 C1157 0.950 . S
C1161 C1152 1.390 . S
C1161 H1154 0.950 . S
C1161 C1158 1.387 . S
C1162 C1163 1.387 . S
C1162 H1166 0.950 . S
C1162 C1171 1.390 . S
C1163 C1162 1.387 . S
C1163 C1165 1.387 . S
H1164 C1171 0.950 . S
C1165 C1163 1.387 . S
C1165 C1167 1.390 . S
C1165 H1169 0.950 . S
H1166 C1162 0.950 . S
C1167 C1165 1.390 . S
C1167 C1168 1.387 . S
C1167 H1170 0.950 . S
C1168 C1167 1.387 . S
C1168 C1171 1.387 . S
H1169 C1165 0.950 . S
H1170 C1167 0.950 . S
C1171 C1162 1.390 . S
C1171 H1164 0.950 . S
C1171 C1168 1.387 . S
C1172 C1173 1.387 . S
C1172 H1176 0.950 . S
C1172 C1181 1.390 . S
C1173 C1172 1.387 . S
C1173 C1175 1.387 . S
H1174 C1181 0.950 . S
C1175 C1173 1.387 . S
C1175 C1177 1.390 . S
C1175 H1179 0.950 . S
H1176 C1172 0.950 . S
C1177 C1175 1.390 . S
C1177 C1178 1.387 . S
C1177 H1180 0.950 . S
C1178 C1177 1.387 . S
C1178 C1181 1.387 . S
H1179 C1175 0.950 . S
H1180 C1177 0.950 . S
C1181 C1172 1.390 . S
C1181 H1174 0.950 . S
C1181 C1178 1.387 . S
C1182 C1183 1.387 . S
C1182 H1186 0.950 . S
C1182 C1191 1.390 . S
C1183 C1182 1.387 . S
C1183 C1185 1.387 . S
H1184 C1191 0.950 . S
C1185 C1183 1.387 . S
C1185 C1187 1.390 . S
C1185 H1189 0.950 . S
H1186 C1182 0.950 . S
C1187 C1185 1.390 . S
C1187 C1188 1.387 . S
C1187 H1190 0.950 . S
C1188 C1187 1.387 . S
C1188 C1191 1.387 . S
H1189 C1185 0.950 . S
H1190 C1187 0.950 . S
C1191 C1182 1.390 . S
C1191 H1184 0.950 . S
C1191 C1188 1.387 . S
C1192 C1193 1.387 . S
C1192 H1196 0.950 . S
C1192 C1201 1.390 . S
C1193 C1192 1.387 . S
C1193 C1195 1.387 . S
H1194 C1201 0.950 . S
C1195 C1193 1.387 . S
C1195 C1197 1.390 . S
C1195 H1199 0.950 . S
H1196 C1192 0.950 . S
C1197 C1195 1.390 . S
C1197 C1198 1.387 . S
C1197 H1200 0.950 . S
C1198 C1197 1.387 . S
C1198 C1201 1.387 . S
H1199 C1195 0.950 . S
H1200 C1197 0.950 . S
C1201 C1192 1.390 . S
C1201 H1194 0.950 . S
C1201 C1198 1.387 . S
C1202 C1203 1.387 . S
C1202 H1206 0.950 . S
C1202 C1211 1.390 . S
C1203 C1202 1.387 . S
C1203 C1205 1.387 . S
H1204 C1211 0.950 . S
C1205 C1203 1.387 . S
C1205 C1207 1.390 . S
C1205 H1209 0.950 . S
H1206 C1202 0.950 . S
C1207 C1205 1.390 . S
C1207 C1208 1.387 . S
C1207 H1210 0.950 . S
C1208 C1207 1.387 . S
C1208 C1211 1.387 . S
H1209 C1205 0.950 . S
H1210 C1207 0.950 . S
C1211 C1202 1.390 . S
C1211 H1204 0.950 . S
C1211 C1208 1.387 . S
C1212 C1213 1.387 . S
C1212 H1216 0.950 . S
C1212 C1221 1.390 . S
C1213 C1212 1.387 . S
C1213 C1215 1.387 . S
H1214 C1221 0.950 . S
C1215 C1213 1.387 . S
C1215 C1217 1.390 . S
C1215 H1219 0.950 . S
H1216 C1212 0.950 . S
C1217 C1215 1.390 . S
C1217 C1218 1.387 . S
C1217 H1220 0.950 . S
C1218 C1217 1.387 . S
C1218 C1221 1.387 . S
H1219 C1215 0.950 . S
H1220 C1217 0.950 . S
C1221 C1212 1.390 . S
C1221 H1214 0.950 . S
C1221 C1218 1.387 . S
C1222 C1223 1.387 . S
C1222 H1226 0.950 . S
C1222 C1231 1.390 . S
C1223 C1222 1.387 . S
C1223 C1225 1.387 . S
H1224 C1231 0.950 . S
C1225 C1223 1.387 . S
C1225 C1227 1.390 . S
C1225 H1229 0.950 . S
H1226 C1222 0.950 . S
C1227 C1225 1.390 . S
C1227 C1228 1.387 . S
C1227 H1230 0.950 . S
C1228 C1227 1.387 . S
C1228 C1231 1.387 . S
H1229 C1225 0.950 . S
H1230 C1227 0.950 . S
C1231 C1222 1.390 . S
C1231 H1224 0.950 . S
C1231 C1228 1.387 . S
C1232 C1233 1.387 . S
C1232 H1236 0.950 . S
C1232 C1241 1.390 . S
C1233 C1232 1.387 . S
C1233 C1235 1.387 . S
H1234 C1241 0.950 . S
C1235 C1233 1.387 . S
C1235 C1237 1.390 . S
C1235 H1239 0.950 . S
H1236 C1232 0.950 . S
C1237 C1235 1.390 . S
C1237 C1238 1.387 . S
C1237 H1240 0.950 . S
C1238 C1237 1.387 . S
C1238 C1241 1.387 . S
H1239 C1235 0.950 . S
H1240 C1237 0.950 . S
C1241 C1232 1.390 . S
C1241 H1234 0.950 . S
C1241 C1238 1.387 . S
C1242 C1243 1.387 . S
C1242 H1246 0.950 . S
C1242 C1251 1.390 . S
C1243 C1242 1.387 . S
C1243 C1245 1.387 . S
H1244 C1251 0.950 . S
C1245 C1243 1.387 . S
C1245 C1247 1.390 . S
C1245 H1249 0.950 . S
H1246 C1242 0.950 . S
C1247 C1245 1.390 . S
C1247 C1248 1.387 . S
C1247 H1250 0.950 . S
C1248 C1247 1.387 . S
C1248 C1251 1.387 . S
H1249 C1245 0.950 . S
H1250 C1247 0.950 . S
C1251 C1242 1.390 . S
C1251 H1244 0.950 . S
C1251 C1248 1.387 . S
C1252 C1253 1.387 . S
C1252 H1256 0.950 . S
C1252 C1261 1.390 . S
C1253 C1252 1.387 . S
C1253 C1255 1.387 . S
H1254 C1261 0.950 . S
C1255 C1253 1.387 . S
C1255 C1257 1.390 . S
C1255 H1259 0.950 . S
H1256 C1252 0.950 . S
C1257 C1255 1.390 . S
C1257 C1258 1.387 . S
C1257 H1260 0.950 . S
C1258 C1257 1.387 . S
C1258 C1261 1.387 . S
H1259 C1255 0.950 . S
H1260 C1257 0.950 . S
C1261 C1252 1.390 . S
C1261 H1254 0.950 . S
C1261 C1258 1.387 . S
C1262 C1263 1.387 . S
C1262 H1266 0.950 . S
C1262 C1271 1.390 . S
C1263 C1262 1.387 . S
C1263 C1265 1.387 . S
H1264 C1271 0.950 . S
C1265 C1263 1.387 . S
C1265 C1267 1.390 . S
C1265 H1269 0.950 . S
H1266 C1262 0.950 . S
C1267 C1265 1.390 . S
C1267 C1268 1.387 . S
C1267 H1270 0.950 . S
C1268 C1267 1.387 . S
C1268 C1271 1.387 . S
H1269 C1265 0.950 . S
H1270 C1267 0.950 . S
C1271 C1262 1.390 . S
C1271 H1264 0.950 . S
C1271 C1268 1.387 . S
C1272 C1273 1.387 . S
C1272 H1276 0.950 . S
C1272 C1281 1.390 . S
C1273 C1272 1.387 . S
C1273 C1275 1.387 . S
H1274 C1281 0.950 . S
C1275 C1273 1.387 . S
C1275 C1277 1.390 . S
C1275 H1279 0.950 . S
H1276 C1272 0.950 . S
C1277 C1275 1.390 . S
C1277 C1278 1.387 . S
C1277 H1280 0.950 . S
C1278 C1277 1.387 . S
C1278 C1281 1.387 . S
H1279 C1275 0.950 . S
H1280 C1277 0.950 . S
C1281 C1272 1.390 . S
C1281 H1274 0.950 . S
C1281 C1278 1.387 . S
C1282 C1283 1.387 . S
C1282 H1286 0.950 . S
C1282 C1291 1.390 . S
C1283 C1282 1.387 . S
C1283 C1285 1.387 . S
H1284 C1291 0.950 . S
C1285 C1283 1.387 . S
C1285 C1287 1.390 . S
C1285 H1289 0.950 . S
H1286 C1282 0.950 . S
C1287 C1285 1.390 . S
C1287 C1288 1.387 . S
C1287 H1290 0.950 . S
C1288 C1287 1.387 . S
C1288 C1291 1.387 . S
H1289 C1285 0.950 . S
H1290 C1287 0.950 . S
C1291 C1282 1.390 . S
C1291 H1284 0.950 . S
C1291 C1288 1.387 . S
C1292 C1293 1.387 . S
C1292 H1296 0.950 . S
C1292 C1301 1.390 . S
C1293 C1292 1.387 . S
C1293 C1295 1.387 . S
H1294 C1301 0.950 . S
C1295 C1293 1.387 . S
C1295 C1297 1.390 . S
C1295 H1299 0.950 . S
H1296 C1292 0.950 . S
C1297 C1295 1.390 . S
C1297 C1298 1.387 . S
C1297 H1300 0.950 . S
C1298 C1297 1.387 . S
C1298 C1301 1.387 . S
H1299 C1295 0.950 . S
H1300 C1297 0.950 . S
C1301 C1292 1.390 . S
C1301 H1294 0.950 . S
C1301 C1298 1.387 . S
C1302 C1303 1.387 . S
C1302 H1306 0.950 . S
C1302 C1311 1.390 . S
C1303 C1302 1.387 . S
C1303 C1305 1.387 . S
H1304 C1311 0.950 . S
C1305 C1303 1.387 . S
C1305 C1307 1.390 . S
C1305 H1309 0.950 . S
H1306 C1302 0.950 . S
C1307 C1305 1.390 . S
C1307 C1308 1.387 . S
C1307 H1310 0.950 . S
C1308 C1307 1.387 . S
C1308 C1311 1.387 . S
H1309 C1305 0.950 . S
H1310 C1307 0.950 . S
C1311 C1302 1.390 . S
C1311 H1304 0.950 . S
C1311 C1308 1.387 . S
C1312 C1313 1.387 . S
C1312 H1316 0.950 . S
C1312 C1321 1.390 . S
C1313 C1312 1.387 . S
C1313 C1315 1.387 . S
H1314 C1321 0.950 . S
C1315 C1313 1.387 . S
C1315 C1317 1.390 . S
C1315 H1319 0.950 . S
H1316 C1312 0.950 . S
C1317 C1315 1.390 . S
C1317 C1318 1.387 . S
C1317 H1320 0.950 . S
C1318 C1317 1.387 . S
C1318 C1321 1.387 . S
H1319 C1315 0.950 . S
H1320 C1317 0.950 . S
C1321 C1312 1.390 . S
C1321 H1314 0.950 . S
C1321 C1318 1.387 . S
C1322 C1323 1.387 . S
C1322 H1326 0.950 . S
C1322 C1331 1.390 . S
C1323 C1322 1.387 . S
C1323 C1325 1.387 . S
H1324 C1331 0.950 . S
C1325 C1323 1.387 . S
C1325 C1327 1.390 . S
C1325 H1329 0.950 . S
H1326 C1322 0.950 . S
C1327 C1325 1.390 . S
C1327 C1328 1.387 . S
C1327 H1330 0.950 . S
C1328 C1327 1.387 . S
C1328 C1331 1.387 . S
H1329 C1325 0.950 . S
H1330 C1327 0.950 . S
C1331 C1322 1.390 . S
C1331 H1324 0.950 . S
C1331 C1328 1.387 . S
C1332 C1333 1.387 . S
C1332 H1336 0.950 . S
C1332 C1341 1.390 . S
C1333 C1332 1.387 . S
C1333 C1335 1.387 . S
H1334 C1341 0.950 . S
C1335 C1333 1.387 . S
C1335 C1337 1.390 . S
C1335 H1339 0.950 . S
H1336 C1332 0.950 . S
C1337 C1335 1.390 . S
C1337 C1338 1.387 . S
C1337 H1340 0.950 . S
C1338 C1337 1.387 . S
C1338 C1341 1.387 . S
H1339 C1335 0.950 . S
H1340 C1337 0.950 . S
C1341 C1332 1.390 . S
C1341 H1334 0.950 . S
C1341 C1338 1.387 . S
C1342 C1343 1.387 . S
C1342 H1346 0.950 . S
C1342 C1351 1.390 . S
C1343 C1342 1.387 . S
C1343 C1345 1.387 . S
H1344 C1351 0.950 . S
C1345 C1343 1.387 . S
C1345 C1347 1.390 . S
C1345 H1349 0.950 . S
H1346 C1342 0.950 . S
C1347 C1345 1.390 . S
C1347 C1348 1.387 . S
C1347 H1350 0.950 . S
C1348 C1347 1.387 . S
C1348 C1351 1.387 . S
H1349 C1345 0.950 . S
H1350 C1347 0.950 . S
C1351 C1342 1.390 . S
C1351 H1344 0.950 . S
C1351 C1348 1.387 . S
C1352 C1353 1.387 . S
C1352 H1356 0.950 . S
C1352 C1361 1.390 . S
C1353 C1352 1.387 . S
C1353 C1355 1.387 . S
H1354 C1361 0.950 . S
C1355 C1353 1.387 . S
C1355 C1357 1.390 . S
C1355 H1359 0.950 . S
H1356 C1352 0.950 . S
C1357 C1355 1.390 . S
C1357 C1358 1.387 . S
C1357 H1360 0.950 . S
C1358 C1357 1.387 . S
C1358 C1361 1.387 . S
H1359 C1355 0.950 . S
H1360 C1357 0.950 . S
C1361 C1352 1.390 . S
C1361 H1354 0.950 . S
C1361 C1358 1.387 . S
C1362 C1363 1.387 . S
C1362 H1366 0.950 . S
C1362 C1371 1.390 . S
C1363 C1362 1.387 . S
C1363 C1365 1.387 . S
H1364 C1371 0.950 . S
C1365 C1363 1.387 . S
C1365 C1367 1.390 . S
C1365 H1369 0.950 . S
H1366 C1362 0.950 . S
C1367 C1365 1.390 . S
C1367 C1368 1.387 . S
C1367 H1370 0.950 . S
C1368 C1367 1.387 . S
C1368 C1371 1.387 . S
H1369 C1365 0.950 . S
H1370 C1367 0.950 . S
C1371 C1362 1.390 . S
C1371 H1364 0.950 . S
C1371 C1368 1.387 . S
C1372 C1373 1.387 . S
C1372 H1376 0.950 . S
C1372 C1381 1.390 . S
C1373 C1372 1.387 . S
C1373 C1375 1.387 . S
H1374 C1381 0.950 . S
C1375 C1373 1.387 . S
C1375 C1377 1.390 . S
C1375 H1379 0.950 . S
H1376 C1372 0.950 . S
C1377 C1375 1.390 . S
C1377 C1378 1.387 . S
C1377 H1380 0.950 . S
C1378 C1377 1.387 . S
C1378 C1381 1.387 . S
H1379 C1375 0.950 . S
H1380 C1377 0.950 . S
C1381 C1372 1.390 . S
C1381 H1374 0.950 . S
C1381 C1378 1.387 . S
C1382 C1383 1.387 . S
C1382 H1386 0.950 . S
C1382 C1391 1.390 . S
C1383 C1382 1.387 . S
C1383 C1385 1.387 . S
H1384 C1391 0.950 . S
C1385 C1383 1.387 . S
C1385 C1387 1.390 . S
C1385 H1389 0.950 . S
H1386 C1382 0.950 . S
C1387 C1385 1.390 . S
C1387 C1388 1.387 . S
C1387 H1390 0.950 . S
C1388 C1387 1.387 . S
C1388 C1391 1.387 . S
H1389 C1385 0.950 . S
H1390 C1387 0.950 . S
C1391 C1382 1.390 . S
C1391 H1384 0.950 . S
C1391 C1388 1.387 . S
C1392 C1393 1.387 . S
C1392 H1396 0.950 . S
C1392 C1401 1.390 . S
C1393 C1392 1.387 . S
C1393 C1395 1.387 . S
H1394 C1401 0.950 . S
C1395 C1393 1.387 . S
C1395 C1397 1.390 . S
C1395 H1399 0.950 . S
H1396 C1392 0.950 . S
C1397 C1395 1.390 . S
C1397 C1398 1.387 . S
C1397 H1400 0.950 . S
C1398 C1397 1.387 . S
C1398 C1401 1.387 . S
H1399 C1395 0.950 . S
H1400 C1397 0.950 . S
C1401 C1392 1.390 . S
C1401 H1394 0.950 . S
C1401 C1398 1.387 . S
C1402 C1403 1.387 . S
C1402 H1406 0.950 . S
C1402 C1411 1.390 . S
C1403 C1402 1.387 . S
C1403 C1405 1.387 . S
H1404 C1411 0.950 . S
C1405 C1403 1.387 . S
C1405 C1407 1.390 . S
C1405 H1409 0.950 . S
H1406 C1402 0.950 . S
C1407 C1405 1.390 . S
C1407 C1408 1.387 . S
C1407 H1410 0.950 . S
C1408 C1407 1.387 . S
C1408 C1411 1.387 . S
H1409 C1405 0.950 . S
H1410 C1407 0.950 . S
C1411 C1402 1.390 . S
C1411 H1404 0.950 . S
C1411 C1408 1.387 . S
C1412 C1413 1.387 . S
C1412 H1416 0.950 . S
C1412 C1421 1.390 . S
C1413 C1412 1.387 . S
C1413 C1415 1.387 . S
H1414 C1421 0.950 . S
C1415 C1413 1.387 . S
C1415 C1417 1.390 . S
C1415 H1419 0.950 . S
H1416 C1412 0.950 . S
C1417 C1415 1.390 . S
C1417 C1418 1.387 . S
C1417 H1420 0.950 . S
C1418 C1417 1.387 . S
C1418 C1421 1.387 . S
H1419 C1415 0.950 . S
H1420 C1417 0.950 . S
C1421 C1412 1.390 . S
C1421 H1414 0.950 . S
C1421 C1418 1.387 . S
C1422 C1423 1.387 . S
C1422 H1426 0.950 . S
C1422 C1431 1.390 . S
C1423 C1422 1.387 . S
C1423 C1425 1.387 . S
H1424 C1431 0.950 . S
C1425 C1423 1.387 . S
C1425 C1427 1.390 . S
C1425 H1429 0.950 . S
H1426 C1422 0.950 . S
C1427 C1425 1.390 . S
C1427 C1428 1.387 . S
C1427 H1430 0.950 . S
C1428 C1427 1.387 . S
C1428 C1431 1.387 . S
H1429 C1425 0.950 . S
H1430 C1427 0.950 . S
C1431 C1422 1.390 . S
C1431 H1424 0.950 . S
C1431 C1428 1.387 . S
C1432 C1433 1.387 . S
C1432 H1436 0.950 . S
C1432 C1441 1.390 . S
C1433 C1432 1.387 . S
C1433 C1435 1.387 . S
H1434 C1441 0.950 . S
C1435 C1433 1.387 . S
C1435 C1437 1.390 . S
C1435 H1439 0.950 . S
H1436 C1432 0.950 . S
C1437 C1435 1.390 . S
C1437 C1438 1.387 . S
C1437 H1440 0.950 . S
C1438 C1437 1.387 . S
C1438 C1441 1.387 . S
H1439 C1435 0.950 . S
H1440 C1437 0.950 . S
C1441 C1432 1.390 . S
C1441 H1434 0.950 . S
C1441 C1438 1.387 . S
C1442 C1443 1.387 . S
C1442 H1446 0.950 . S
C1442 C1451 1.390 . S
C1443 C1442 1.387 . S
C1443 C1445 1.387 . S
H1444 C1451 0.950 . S
C1445 C1443 1.387 . S
C1445 C1447 1.390 . S
C1445 H1449 0.950 . S
H1446 C1442 0.950 . S
C1447 C1445 1.390 . S
C1447 C1448 1.387 . S
C1447 H1450 0.950 . S
C1448 C1447 1.387 . S
C1448 C1451 1.387 . S
H1449 C1445 0.950 . S
H1450 C1447 0.950 . S
C1451 C1442 1.390 . S
C1451 H1444 0.950 . S
C1451 C1448 1.387 . S
C1452 C1453 1.387 . S
C1452 H1456 0.950 . S
C1452 C1461 1.390 . S
C1453 C1452 1.387 . S
C1453 C1455 1.387 . S
H1454 C1461 0.950 . S
C1455 C1453 1.387 . S
C1455 C1457 1.390 . S
C1455 H1459 0.950 . S
H1456 C1452 0.950 . S
C1457 C1455 1.390 . S
C1457 C1458 1.387 . S
C1457 H1460 0.950 . S
C1458 C1457 1.387 . S
C1458 C1461 1.387 . S
H1459 C1455 0.950 . S
H1460 C1457 0.950 . S
C1461 C1452 1.390 . S
C1461 H1454 0.950 . S
C1461 C1458 1.387 . S
C1462 C1463 1.387 . S
C1462 H1466 0.950 . S
C1462 C1471 1.390 . S
C1463 C1462 1.387 . S
C1463 C1465 1.387 . S
H1464 C1471 0.950 . S
C1465 C1463 1.387 . S
C1465 C1467 1.390 . S
C1465 H1469 0.950 . S
H1466 C1462 0.950 . S
C1467 C1465 1.390 . S
C1467 C1468 1.387 . S
C1467 H1470 0.950 . S
C1468 C1467 1.387 . S
C1468 C1471 1.387 . S
H1469 C1465 0.950 . S
H1470 C1467 0.950 . S
C1471 C1462 1.390 . S
C1471 H1464 0.950 . S
C1471 C1468 1.387 . S
C1472 C1473 1.387 . S
C1472 H1476 0.950 . S
C1472 C1481 1.390 . S
C1473 C1472 1.387 . S
C1473 C1475 1.387 . S
H1474 C1481 0.950 . S
C1475 C1473 1.387 . S
C1475 C1477 1.390 . S
C1475 H1479 0.950 . S
H1476 C1472 0.950 . S
C1477 C1475 1.390 . S
C1477 C1478 1.387 . S
C1477 H1480 0.950 . S
C1478 C1477 1.387 . S
C1478 C1481 1.387 . S
H1479 C1475 0.950 . S
H1480 C1477 0.950 . S
C1481 C1472 1.390 . S
C1481 H1474 0.950 . S
C1481 C1478 1.387 . S
C1482 C1483 1.387 . S
C1482 H1486 0.950 . S
C1482 C1491 1.390 . S
C1483 C1482 1.387 . S
C1483 C1485 1.387 . S
H1484 C1491 0.950 . S
C1485 C1483 1.387 . S
C1485 C1487 1.390 . S
C1485 H1489 0.950 . S
H1486 C1482 0.950 . S
C1487 C1485 1.390 . S
C1487 C1488 1.387 . S
C1487 H1490 0.950 . S
C1488 C1487 1.387 . S
C1488 C1491 1.387 . S
H1489 C1485 0.950 . S
H1490 C1487 0.950 . S
C1491 C1482 1.390 . S
C1491 H1484 0.950 . S
C1491 C1488 1.387 . S
C1492 C1493 1.387 . S
C1492 H1496 0.950 . S
C1492 C1501 1.390 . S
C1493 C1492 1.387 . S
C1493 C1495 1.387 . S
H1494 C1501 0.950 . S
C1495 C1493 1.387 . S
C1495 C1497 1.390 . S
C1495 H1499 0.950 . S
H1496 C1492 0.950 . S
C1497 C1495 1.390 . S
C1497 C1498 1.387 . S
C1497 H1500 0.950 . S
C1498 C1497 1.387 . S
C1498 C1501 1.387 . S
H1499 C1495 0.950 . S
H1500 C1497 0.950 . S
C1501 C1492 1.390 . S
C1501 H1494 0.950 . S
C1501 C1498 1.387 . S
C1502 C1503 1.387 . S
C1502 H1506 0.950 . S
C1502 C1511 1.390 . S
C1503 C1502 1.387 . S
C1503 C1505 1.387 . S
H1504 C1511 0.950 . S
C1505 C1503 1.387 . S
C1505 C1507 1.390 . S
C1505 H1509 0.950 . S
H1506 C1502 0.950 . S
C1507 C1505 1.390 . S
C1507 C1508 1.387 . S
C1507 H1510 0.950 . S
C1508 C1507 1.387 . S
C1508 C1511 1.387 . S
H1509 C1505 0.950 . S
H1510 C1507 0.950 . S
C1511 C1502 1.390 . S
C1511 H1504 0.950 . S
C1511 C1508 1.387 . S
C1512 C1513 1.387 . S
C1512 H1516 0.950 . S
C1512 C1521 1.390 . S
C1513 C1512 1.387 . S
C1513 C1515 1.387 . S
H1514 C1521 0.950 . S
C1515 C1513 1.387 . S
C1515 C1517 1.390 . S
C1515 H1519 0.950 . S
H1516 C1512 0.950 . S
C1517 C1515 1.390 . S
C1517 C1518 1.387 . S
C1517 H1520 0.950 . S
C1518 C1517 1.387 . S
C1518 C1521 1.387 . S
H1519 C1515 0.950 . S
H1520 C1517 0.950 . S
C1521 C1512 1.390 . S
C1521 H1514 0.950 . S
C1521 C1518 1.387 . S
C1522 C1523 1.387 . S
C1522 H1526 0.950 . S
C1522 C1531 1.390 . S
C1523 C1522 1.387 . S
C1523 C1525 1.387 . S
H1524 C1531 0.950 . S
C1525 C1523 1.387 . S
C1525 C1527 1.390 . S
C1525 H1529 0.950 . S
H1526 C1522 0.950 . S
C1527 C1525 1.390 . S
C1527 C1528 1.387 . S
C1527 H1530 0.950 . S
C1528 C1527 1.387 . S
C1528 C1531 1.387 . S
H1529 C1525 0.950 . S
H1530 C1527 0.950 . S
C1531 C1522 1.390 . S
C1531 H1524 0.950 . S
C1531 C1528 1.387 . S
C1532 C1533 1.387 . S
C1532 H1536 0.950 . S
C1532 C1541 1.390 . S
C1533 C1532 1.387 . S
C1533 C1535 1.387 . S
H1534 C1541 0.950 . S
C1535 C1533 1.387 . S
C1535 C1537 1.390 . S
C1535 H1539 0.950 . S
H1536 C1532 0.950 . S
C1537 C1535 1.390 . S
C1537 C1538 1.387 . S
C1537 H1540 0.950 . S
C1538 C1537 1.387 . S
C1538 C1541 1.387 . S
H1539 C1535 0.950 . S
H1540 C1537 0.950 . S
C1541 C1532 1.390 . S
C1541 H1534 0.950 . S
C1541 C1538 1.387 . S
C1542 C1543 1.387 . S
C1542 H1546 0.950 . S
C1542 C1551 1.390 . S
C1543 C1542 1.387 . S
C1543 C1545 1.387 . S
H1544 C1551 0.950 . S
C1545 C1543 1.387 . S
C1545 C1547 1.390 . S
C1545 H1549 0.950 . S
H1546 C1542 0.950 . S
C1547 C1545 1.390 . S
C1547 C1548 1.387 . S
C1547 H1550 0.950 . S
C1548 C1547 1.387 . S
C1548 C1551 1.387 . S
H1549 C1545 0.950 . S
H1550 C1547 0.950 . S
C1551 C1542 1.390 . S
C1551 H1544 0.950 . S
C1551 C1548 1.387 . S
C1552 C1553 1.387 . S
C1552 H1556 0.950 . S
C1552 C1561 1.390 . S
C1553 C1552 1.387 . S
C1553 C1555 1.387 . S
H1554 C1561 0.950 . S
C1555 C1553 1.387 . S
C1555 C1557 1.390 . S
C1555 H1559 0.950 . S
H1556 C1552 0.950 . S
C1557 C1555 1.390 . S
C1557 C1558 1.387 . S
C1557 H1560 0.950 . S
C1558 C1557 1.387 . S
C1558 C1561 1.387 . S
H1559 C1555 0.950 . S
H1560 C1557 0.950 . S
C1561 C1552 1.390 . S
C1561 H1554 0.950 . S
C1561 C1558 1.387 . S
C1562 C1563 1.387 . S
C1562 H1566 0.950 . S
C1562 C1571 1.390 . S
C1563 C1562 1.387 . S
C1563 C1565 1.387 . S
H1564 C1571 0.950 . S
C1565 C1563 1.387 . S
C1565 C1567 1.390 . S
C1565 H1569 0.950 . S
H1566 C1562 0.950 . S
C1567 C1565 1.390 . S
C1567 C1568 1.387 . S
C1567 H1570 0.950 . S
C1568 C1567 1.387 . S
C1568 C1571 1.387 . S
H1569 C1565 0.950 . S
H1570 C1567 0.950 . S
C1571 C1562 1.390 . S
C1571 H1564 0.950 . S
C1571 C1568 1.387 . S
C1572 C1573 1.387 . S
C1572 H1576 0.950 . S
C1572 C1581 1.390 . S
C1573 C1572 1.387 . S
C1573 C1575 1.387 . S
H1574 C1581 0.950 . S
C1575 C1573 1.387 . S
C1575 C1577 1.390 . S
C1575 H1579 0.950 . S
H1576 C1572 0.950 . S
C1577 C1575 1.390 . S
C1577 C1578 1.387 . S
C1577 H1580 0.950 . S
C1578 C1577 1.387 . S
C1578 C1581 1.387 . S
H1579 C1575 0.950 . S
H1580 C1577 0.950 . S
C1581 C1572 1.390 . S
C1581 H1574 0.950 . S
C1581 C1578 1.387 . S
C1582 C1583 1.387 . S
C1582 H1586 0.950 . S
C1582 C1591 1.390 . S
C1583 C1582 1.387 . S
C1583 C1585 1.387 . S
H1584 C1591 0.950 . S
C1585 C1583 1.387 . S
C1585 C1587 1.390 . S
C1585 H1589 0.950 . S
H1586 C1582 0.950 . S
C1587 C1585 1.390 . S
C1587 C1588 1.387 . S
C1587 H1590 0.950 . S
C1588 C1587 1.387 . S
C1588 C1591 1.387 . S
H1589 C1585 0.950 . S
H1590 C1587 0.950 . S
C1591 C1582 1.390 . S
C1591 H1584 0.950 . S
C1591 C1588 1.387 . S
C1592 C1593 1.387 . S
C1592 H1596 0.950 . S
C1592 C1601 1.390 . S
C1593 C1592 1.387 . S
C1593 C1595 1.387 . S
H1594 C1601 0.950 . S
C1595 C1593 1.387 . S
C1595 C1597 1.390 . S
C1595 H1599 0.950 . S
H1596 C1592 0.950 . S
C1597 C1595 1.390 . S
C1597 C1598 1.387 . S
C1597 H1600 0.950 . S
C1598 C1597 1.387 . S
C1598 C1601 1.387 . S
H1599 C1595 0.950 . S
H1600 C1597 0.950 . S
C1601 C1592 1.390 . S
C1601 H1594 0.950 . S
C1601 C1598 1.387 . S
C1602 C1603 1.387 . S
C1602 H1606 0.950 . S
C1602 C1611 1.390 . S
C1603 C1602 1.387 . S
C1603 C1605 1.387 . S
H1604 C1611 0.950 . S
C1605 C1603 1.387 . S
C1605 C1607 1.390 . S
C1605 H1609 0.950 . S
H1606 C1602 0.950 . S
C1607 C1605 1.390 . S
C1607 C1608 1.387 . S
C1607 H1610 0.950 . S
C1608 C1607 1.387 . S
C1608 C1611 1.387 . S
H1609 C1605 0.950 . S
H1610 C1607 0.950 . S
C1611 C1602 1.390 . S
C1611 H1604 0.950 . S
C1611 C1608 1.387 . S
C1612 C1613 1.387 . S
C1612 H1616 0.950 . S
C1612 C1621 1.390 . S
C1613 C1612 1.387 . S
C1613 C1615 1.387 . S
H1614 C1621 0.950 . S
C1615 C1613 1.387 . S
C1615 C1617 1.390 . S
C1615 H1619 0.950 . S
H1616 C1612 0.950 . S
C1617 C1615 1.390 . S
C1617 C1618 1.387 . S
C1617 H1620 0.950 . S
C1618 C1617 1.387 . S
C1618 C1621 1.387 . S
H1619 C1615 0.950 . S
H1620 C1617 0.950 . S
C1621 C1612 1.390 . S
C1621 H1614 0.950 . S
C1621 C1618 1.387 . S
C1622 C1623 1.387 . S
C1622 H1626 0.950 . S
C1622 C1631 1.390 . S
C1623 C1622 1.387 . S
C1623 C1625 1.387 . S
H1624 C1631 0.950 . S
C1625 C1623 1.387 . S
C1625 C1627 1.390 . S
C1625 H1629 0.950 . S
H1626 C1622 0.950 . S
C1627 C1625 1.390 . S
C1627 C1628 1.387 . S
C1627 H1630 0.950 . S
C1628 C1627 1.387 . S
C1628 C1631 1.387 . S
H1629 C1625 0.950 . S
H1630 C1627 0.950 . S
C1631 C1622 1.390 . S
C1631 H1624 0.950 . S
C1631 C1628 1.387 . S
C673 C224 1.580 . S
C678 C0 1.532 . S
C683 C671 1.606 . S
C688 C26 1.551 . S
C693 C40 1.541 . S
C698 C642 1.587 . S
C703 C55 1.528 . S
C708 C656 1.574 . S
C713 C251 1.602 . S
C718 C68 1.555 . S
C723 C71 1.565 . S
C728 C253 1.609 . S
C733 C97 1.561 . S
C738 C266 1.611 . S
C743 C617 1.578 . S
C748 C99 1.537 . S
C753 C112 1.531 . S
C758 C13 1.577 . S
C763 C15 1.592 . S
C768 C138 1.548 . S
C773 C29 1.571 . S
C778 C141 1.517 . S
C783 C42 1.606 . S
C788 C167 1.567 . S
C793 C57 1.588 . S
C798 C169 1.541 . S
C803 C194 1.519 . S
C808 C82 1.560 . S
C813 C84 1.583 . S
C818 C197 1.530 . S
C823 C223 1.537 . S
C828 C110 1.576 . S
C833 C237 1.528 . S
C838 C125 1.578 . S
C843 C180 1.574 . S
C848 C238 1.521 . S
C853 C264 1.522 . S
C858 C183 1.574 . S
C863 C279 1.539 . S
C868 C208 1.595 . S
C873 C547 1.591 . S
C878 C292 1.535 . S
C883 C307 1.527 . S
C888 C476 1.581 . S
C893 C502 1.603 . S
C898 C309 1.551 . S
C903 C463 1.607 . S
C908 C323 1.565 . S
C913 C572 1.602 . S
C918 C349 1.547 . S
C923 C363 1.525 . S
C928 C334 1.561 . S
C933 C376 1.543 . S
C938 C294 1.596 . S
C943 C391 1.549 . S
C948 C320 1.593 . S
C953 C392 1.530 . S
C958 C575 1.579 . S
C963 C589 1.562 . S
C968 C407 1.512 . S
C973 C433 1.517 . S
C978 C602 1.573 . S
C983 C281 1.591 . S
C988 C434 1.535 . S
C993 C336 1.604 . S
C998 C448 1.553 . S
C1003 C474 1.525 . S
C1008 C350 1.574 . S
C1013 C489 1.562 . S
C1018 C365 1.610 . S
C1023 C491 1.511 . S
C1028 C378 1.557 . S
C1033 C505 1.537 . S
C1038 C405 1.592 . S
C1043 C519 1.551 . S
C1048 C418 1.603 . S
C1053 C420 1.606 . S
C1058 C532 1.557 . S
C1063 C447 1.593 . S
C1068 C558 1.537 . S
C1073 C461 1.601 . S
C1078 C561 1.548 . S
C1083 C516 1.612 . S
C1088 C586 1.566 . S
C1093 C530 1.592 . S
C1098 C600 1.551 . S
C1103 C615 1.538 . S
C1108 C545 1.586 . S
C1113 C628 1.537 . S
C1118 C210 1.577 . S
C1123 C631 1.554 . S
C1128 C152 1.605 . S
C1133 C154 1.562 . S
C1138 C645 1.525 . S
C1143 C658 1.507 . S
C1148 C127 1.559 . S
C1153 C12 1.592 . S
C1158 C390 1.550 . S
C1163 C348 1.699 . S
C1168 C14 1.743 . S
C1173 C28 1.561 . S
C1178 C362 1.519 . S
C1183 C43 1.734 . S
C1188 C377 1.687 . S
C1193 C56 1.630 . S
C1198 C70 1.586 . S
C1203 C96 1.775 . S
C1208 C83 1.815 . S
C1213 C85 1.600 . S
C1218 C98 1.555 . S
C1223 C111 1.805 . S
C1228 C69 1.769 . S
C1233 C124 1.592 . S
C1238 C601 1.553 . S
C1243 C126 1.776 . S
C1248 C614 1.740 . S
C1253 C153 1.726 . S
C1258 C293 1.681 . S
C1263 C155 1.812 . S
C1268 C587 1.775 . S
C1273 C181 1.561 . S
C1278 C644 1.518 . S
C1283 C236 1.730 . S
C1288 C182 1.771 . S
C1293 C209 1.696 . S
C1298 C659 1.649 . S
C1303 C630 1.768 . S
C1308 C211 1.807 . S
C1313 C139 1.555 . S
C1318 C225 1.589 . S
C1323 C250 1.726 . S
C1328 C559 1.681 . S
C1333 C252 1.734 . S
C1338 C504 1.690 . S
C1343 C518 1.706 . S
C1348 C267 1.756 . S
C1353 C280 1.706 . S
C1358 C196 1.658 . S
C1363 C490 1.646 . S
C1368 C295 1.695 . S
C1373 C449 1.694 . S
C1378 C321 1.741 . S
C1383 C488 1.775 . S
C1388 C335 1.815 . S
C1393 C337 1.726 . S
C1398 C54 1.676 . S
C1403 C351 1.766 . S
C1408 C1 1.730 . S
C1413 C27 1.709 . S
C1418 C364 1.754 . S
C1423 C379 1.774 . S
C1428 C41 1.736 . S
C1433 C404 1.695 . S
C1438 C406 1.646 . S
C1443 C432 1.649 . S
C1448 C419 1.695 . S
C1453 C435 1.681 . S
C1458 C421 1.726 . S
C1463 C446 1.706 . S
C1468 C393 1.655 . S
C1473 C265 1.679 . S
C1478 C460 1.726 . S
C1483 C462 1.734 . S
C1488 C278 1.690 . S
C1493 C477 1.598 . S
C1498 C629 1.556 . S
C1503 C503 1.696 . S
C1508 C239 1.646 . S
C1513 C517 1.756 . S
C1518 C308 1.707 . S
C1523 C531 1.742 . S
C1528 C560 1.698 . S
C1533 C322 1.589 . S
C1538 C544 1.626 . S
C1543 C546 1.705 . S
C1548 C306 1.659 . S
C1553 C475 1.680 . S
C1558 C573 1.727 . S
C1563 C222 1.558 . S
C1568 C574 1.596 . S
C1573 C168 1.738 . S
C1578 C588 1.779 . S
C1583 C603 1.561 . S
C1588 C195 1.522 . S
C1593 C616 1.805 . S
C1598 C533 1.769 . S
C1603 C166 1.589 . S
C1608 C643 1.626 . S
C1613 C657 1.766 . S
C1618 C113 1.730 . S
C1623 C140 1.649 . S
C1628 C670 1.696 . S
