# Generated by pormake.
# Topology wkl, (6)-cn, num edge types: 1
# Building blocks:
#     Node 0, Type 0, BuildingBlock: IZENUY_clean_sbu_0, # of connection points: 6
#     Node 1, Type 0, BuildingBlock: IZENUY_clean_sbu_0, # of connection points: 6
#     Node 2, Type 0, BuildingBlock: IZENUY_clean_sbu_0, # of connection points: 6
#     Node 3, Type 0, BuildingBlock: IZENUY_clean_sbu_0, # of connection points: 6
#     Node 4, Type 0, BuildingBlock: IZENUY_clean_sbu_0, # of connection points: 6
#     Node 5, Type 0, BuildingBlock: IZENUY_clean_sbu_0, # of connection points: 6
#     Node 6, Type 0, BuildingBlock: IZENUY_clean_sbu_0, # of connection points: 6
#     Node 7, Type 0, BuildingBlock: IZENUY_clean_sbu_0, # of connection points: 6
#     Node 8, Type 0, BuildingBlock: IZENUY_clean_sbu_0, # of connection points: 6
#     Node 9, Type 0, BuildingBlock: IZENUY_clean_sbu_0, # of connection points: 6
#     Node 10, Type 0, BuildingBlock: IZENUY_clean_sbu_0, # of connection points: 6
#     Node 11, Type 0, BuildingBlock: IZENUY_clean_sbu_0, # of connection points: 6
#     Edge 12, Type (0, 0), BuildingBlock: XIVTED_clean_linker_0, # of connection points: 2
#     Edge 13, Type (0, 0), BuildingBlock: XIVTED_clean_linker_0, # of connection points: 2
#     Edge 14, Type (0, 0), BuildingBlock: XIVTED_clean_linker_0, # of connection points: 2
#     Edge 15, Type (0, 0), BuildingBlock: XIVTED_clean_linker_0, # of connection points: 2
#     Edge 16, Type (0, 0), BuildingBlock: XIVTED_clean_linker_0, # of connection points: 2
#     Edge 17, Type (0, 0), BuildingBlock: XIVTED_clean_linker_0, # of connection points: 2
#     Edge 18, Type (0, 0), BuildingBlock: XIVTED_clean_linker_0, # of connection points: 2
#     Edge 19, Type (0, 0), BuildingBlock: XIVTED_clean_linker_0, # of connection points: 2
#     Edge 20, Type (0, 0), BuildingBlock: XIVTED_clean_linker_0, # of connection points: 2
#     Edge 21, Type (0, 0), BuildingBlock: XIVTED_clean_linker_0, # of connection points: 2
#     Edge 22, Type (0, 0), BuildingBlock: XIVTED_clean_linker_0, # of connection points: 2
#     Edge 23, Type (0, 0), BuildingBlock: XIVTED_clean_linker_0, # of connection points: 2
#     Edge 24, Type (0, 0), BuildingBlock: XIVTED_clean_linker_0, # of connection points: 2
#     Edge 25, Type (0, 0), BuildingBlock: XIVTED_clean_linker_0, # of connection points: 2
#     Edge 26, Type (0, 0), BuildingBlock: XIVTED_clean_linker_0, # of connection points: 2
#     Edge 27, Type (0, 0), BuildingBlock: XIVTED_clean_linker_0, # of connection points: 2
#     Edge 28, Type (0, 0), BuildingBlock: XIVTED_clean_linker_0, # of connection points: 2
#     Edge 29, Type (0, 0), BuildingBlock: XIVTED_clean_linker_0, # of connection points: 2
#     Edge 30, Type (0, 0), BuildingBlock: XIVTED_clean_linker_0, # of connection points: 2
#     Edge 31, Type (0, 0), BuildingBlock: XIVTED_clean_linker_0, # of connection points: 2
#     Edge 32, Type (0, 0), BuildingBlock: XIVTED_clean_linker_0, # of connection points: 2
#     Edge 33, Type (0, 0), BuildingBlock: XIVTED_clean_linker_0, # of connection points: 2
#     Edge 34, Type (0, 0), BuildingBlock: XIVTED_clean_linker_0, # of connection points: 2
#     Edge 35, Type (0, 0), BuildingBlock: XIVTED_clean_linker_0, # of connection points: 2
#     Edge 36, Type (0, 0), BuildingBlock: XIVTED_clean_linker_0, # of connection points: 2
#     Edge 37, Type (0, 0), BuildingBlock: XIVTED_clean_linker_0, # of connection points: 2
#     Edge 38, Type (0, 0), BuildingBlock: XIVTED_clean_linker_0, # of connection points: 2
#     Edge 39, Type (0, 0), BuildingBlock: XIVTED_clean_linker_0, # of connection points: 2
#     Edge 40, Type (0, 0), BuildingBlock: XIVTED_clean_linker_0, # of connection points: 2
#     Edge 41, Type (0, 0), BuildingBlock: XIVTED_clean_linker_0, # of connection points: 2
#     Edge 42, Type (0, 0), BuildingBlock: XIVTED_clean_linker_0, # of connection points: 2
#     Edge 43, Type (0, 0), BuildingBlock: XIVTED_clean_linker_0, # of connection points: 2
#     Edge 44, Type (0, 0), BuildingBlock: XIVTED_clean_linker_0, # of connection points: 2
#     Edge 45, Type (0, 0), BuildingBlock: XIVTED_clean_linker_0, # of connection points: 2
#     Edge 46, Type (0, 0), BuildingBlock: XIVTED_clean_linker_0, # of connection points: 2
#     Edge 47, Type (0, 0), BuildingBlock: XIVTED_clean_linker_0, # of connection points: 2
# Relax obj value: 0.387
# Max RMSD: 0.287
# Mean RMSD: 0.287
data_MOF--net-wkl--node1-IZENUY_clean_sbu_0--edge1-XIVTED_clean_linker_0
_symmetry_space_group_name_H-M    P1
_symmetry_Int_Tables_number       1
_symmetry_cell_setting            triclinic
loop_
_symmetry_equiv_pos_as_xyz
'x, y, z'
_cell_length_a     72.346531
_cell_length_b     72.329821
_cell_length_c     15.160507
_cell_angle_alpha  89.987912
_cell_angle_beta   89.998196
_cell_angle_gamma 120.05174
loop_
_atom_site_label
_atom_site_type_symbol
_atom_site_fract_x
_atom_site_fract_y
_atom_site_fract_z
_atom_type_partial_charge
Fe0 Fe 0.47047 0.10525 0.10016 0.0
Fe1 Fe 0.48178 0.14365 0.98316 0.0
O2 O 0.46255 0.1213 0.04281 0.0
Fe3 Fe 0.43545 0.11504 0.04417 0.0
O4 O 0.43585 0.11779 0.16391 0.0
O5 O 0.45107 0.09852 0.18933 0.0
O6 O 0.4893 0.12753 0.16735 0.0
C7 C 0.50495 0.14394 0.13489 0.0
C8 C 0.43255 0.0746 0.03149 0.0
O9 O 0.50432 0.1492 0.05581 0.0
C10 C 0.44635 0.12596 0.87097 0.0
O11 O 0.49127 0.10904 0.02067 0.0
O12 O 0.48747 0.12697 0.91204 0.0
O13 O 0.42419 0.08584 0.05153 0.0
O14 O 0.45242 0.0822 0.0366 0.0
C15 C 0.45918 0.16023 0.05802 0.0
O16 O 0.46297 0.14222 0.89922 0.0
O17 O 0.43362 0.11187 0.92419 0.0
C18 C 0.49384 0.11472 0.94046 0.0
O19 O 0.47708 0.16133 0.051 0.0
O20 O 0.44207 0.14321 0.03767 0.0
C21 C 0.44175 0.10826 0.21698 0.0
Fe22 Fe 0.31684 0.43913 0.21413 0.0
Fe23 Fe 0.36141 0.47443 0.27179 0.0
O24 O 0.33752 0.46633 0.21338 0.0
Fe25 Fe 0.33432 0.48547 0.15356 0.0
O26 O 0.31162 0.48039 0.22029 0.0
O27 O 0.29509 0.4454 0.20676 0.0
O28 O 0.31423 0.4394 0.33383 0.0
C29 C 0.32957 0.44535 0.38738 0.0
C30 C 0.31697 0.45005 0.04087 0.0
O31 O 0.34869 0.45486 0.36029 0.0
C32 C 0.37562 0.49836 0.1133 0.0
O33 O 0.33501 0.42818 0.22214 0.0
O34 O 0.3668 0.45663 0.20843 0.0
O35 O 0.3173 0.46667 0.06881 0.0
O36 O 0.31841 0.4374 0.09425 0.0
C37 C 0.35694 0.50872 0.30585 0.0
O38 O 0.37848 0.49544 0.19332 0.0
O39 O 0.35703 0.49163 0.08352 0.0
C40 C 0.35467 0.43672 0.20304 0.0
O41 O 0.35758 0.49304 0.33878 0.0
O42 O 0.35094 0.50796 0.22689 0.0
C43 C 0.29492 0.46237 0.22669 0.0
Fe44 Fe 0.88003 0.36447 0.44671 0.0
Fe45 Fe 0.84446 0.3381 0.31563 0.0
O46 O 0.86569 0.34109 0.38315 0.0
Fe47 Fe 0.87248 0.32074 0.38627 0.0
O48 O 0.86753 0.31704 0.50429 0.0
O49 O 0.88543 0.3512 0.53821 0.0
O50 O 0.85611 0.35956 0.50522 0.0
C51 C 0.84063 0.35937 0.46635 0.0
C52 C 0.91267 0.35901 0.38874 0.0
O53 O 0.83712 0.35417 0.38579 0.0
C54 C 0.86438 0.32113 0.21058 0.0
O55 O 0.87741 0.38202 0.36593 0.0
O56 O 0.86235 0.36133 0.25084 0.0
O57 O 0.90137 0.33908 0.40252 0.0
O58 O 0.90459 0.37088 0.39227 0.0
C59 C 0.82715 0.29832 0.3857 0.0
O60 O 0.84775 0.32163 0.23202 0.0
O61 O 0.87791 0.32333 0.26821 0.0
C62 C 0.87346 0.37971 0.2839 0.0
O63 O 0.8257 0.31491 0.37719 0.0
O64 O 0.8447 0.29882 0.37119 0.0
C65 C 0.87627 0.33174 0.56084 0.0
Fe66 Fe 0.54983 0.87636 0.54763 0.0
Fe67 Fe 0.51455 0.88519 0.60801 0.0
O68 O 0.52281 0.87003 0.54577 0.0
Fe69 Fe 0.50397 0.84855 0.4809 0.0
O70 O 0.50836 0.82988 0.54319 0.0
O71 O 0.54344 0.84838 0.53465 0.0
O72 O 0.54884 0.87199 0.66618 0.0
C73 C 0.54344 0.88139 0.72183 0.0
C74 C 0.54047 0.86746 0.37261 0.0
O75 O 0.53375 0.89106 0.69789 0.0
C76 C 0.49182 0.87781 0.44743 0.0
O77 O 0.56093 0.90543 0.56116 0.0
O78 O 0.53266 0.90909 0.54926 0.0
O79 O 0.52319 0.85116 0.39571 0.0
O80 O 0.5523 0.88112 0.42901 0.0
C81 C 0.4801 0.84601 0.63416 0.0
O82 O 0.49394 0.88225 0.529 0.0
O83 O 0.49861 0.86625 0.41509 0.0
C84 C 0.55254 0.91677 0.54374 0.0
O85 O 0.49563 0.8619 0.67025 0.0
O86 O 0.4811 0.84192 0.55363 0.0
C87 C 0.52627 0.83101 0.55032 0.0
Fe88 Fe 0.6509 0.50531 0.65054 0.0
Fe89 Fe 0.66761 0.55056 0.72153 0.0
O90 O 0.64746 0.52332 0.71767 0.0
Fe91 Fe 0.62387 0.514 0.77995 0.0
O92 O 0.62881 0.4951 0.83884 0.0
O93 O 0.63481 0.48171 0.72016 0.0
O94 O 0.67403 0.50999 0.71311 0.0
C95 C 0.6905 0.52814 0.72119 0.0
C96 C 0.60937 0.49256 0.61606 0.0
O97 O 0.68975 0.54506 0.70673 0.0
C98 C 0.62917 0.5521 0.72314 0.0
O99 O 0.66742 0.52531 0.56754 0.0
O100 O 0.66512 0.55346 0.60342 0.0
O101 O 0.60664 0.49385 0.69803 0.0
O102 O 0.62788 0.49985 0.58462 0.0
C103 C 0.65624 0.54295 0.8956 0.0
O104 O 0.64906 0.56082 0.73771 0.0
O105 O 0.61743 0.53212 0.72526 0.0
C106 C 0.66756 0.54226 0.54588 0.0
O107 O 0.67109 0.54915 0.83957 0.0
O108 O 0.63684 0.53259 0.87218 0.0
C109 C 0.62955 0.48002 0.80067 0.0
Fe110 Fe 0.11391 0.67114 0.87806 0.0
Fe111 Fe 0.10375 0.62623 0.93449 0.0
O112 O 0.11989 0.65013 0.87668 0.0
Fe113 Fe 0.1421 0.65302 0.81662 0.0
O114 O 0.16003 0.67543 0.88417 0.0
O115 O 0.14213 0.69252 0.87075 0.0
O116 O 0.11686 0.67361 0.99773 0.0
C117 C 0.1073 0.65825 0.05116 0.0
C118 C 0.12458 0.67099 0.70478 0.0
O119 O 0.09745 0.63913 0.02401 0.0
C120 C 0.11283 0.61207 0.77444 0.0
O121 O 0.0847 0.65344 0.88654 0.0
O122 O 0.08058 0.62138 0.87214 0.0
O123 O 0.14077 0.67049 0.73283 0.0
O124 O 0.11055 0.66969 0.75816 0.0
C125 C 0.14228 0.62998 0.96796 0.0
O126 O 0.10713 0.60903 0.85465 0.0
O127 O 0.12519 0.63066 0.74579 0.0
C128 C 0.07308 0.63375 0.86877 0.0
O129 O 0.12605 0.62949 1.00086 0.0
O130 O 0.14751 0.63587 0.88889 0.0
C131 C 0.15908 0.69232 0.89099 0.0
Fe132 Fe 0.87356 0.5527 0.81795 0.0
Fe133 Fe 0.88279 0.51723 0.76265 0.0
O134 O 0.86704 0.52552 0.82002 0.0
Fe135 Fe 0.84471 0.50656 0.88055 0.0
O136 O 0.8271 0.51131 0.81245 0.0
O137 O 0.84546 0.54634 0.82484 0.0
O138 O 0.87069 0.55217 0.69828 0.0
C139 C 0.88 0.54605 0.64513 0.0
C140 C 0.86279 0.54217 0.99145 0.0
O141 O 0.88943 0.53639 0.67256 0.0
C142 C 0.87343 0.49426 0.92352 0.0
O143 O 0.90271 0.56372 0.80984 0.0
O144 O 0.90608 0.53534 0.82486 0.0
O145 O 0.84639 0.52565 0.96355 0.0
O146 O 0.87692 0.55471 0.93789 0.0
C147 C 0.84393 0.48278 0.73019 0.0
O148 O 0.87901 0.49664 0.84319 0.0
O149 O 0.86135 0.50085 0.95185 0.0
C150 C 0.91389 0.55525 0.82899 0.0
O151 O 0.86028 0.4983 0.69665 0.0
O152 O 0.83885 0.48376 0.80917 0.0
C153 C 0.82835 0.52927 0.80491 0.0
Fe154 Fe 0.31835 0.87506 0.98095 0.0
Fe155 Fe 0.36229 0.88339 0.92005 0.0
O156 O 0.33894 0.86859 0.98327 0.0
Fe157 Fe 0.33621 0.84726 0.04951 0.0
O158 O 0.31302 0.82844 0.98793 0.0
O159 O 0.29668 0.84718 0.99543 0.0
O160 O 0.31474 0.87035 0.86258 0.0
C161 C 0.32947 0.87948 0.80634 0.0
C162 C 0.31882 0.86657 0.15634 0.0
O163 O 0.3489 0.88888 0.82938 0.0
C164 C 0.37772 0.8766 0.08176 0.0
O165 O 0.33641 0.90404 0.96546 0.0
O166 O 0.36837 0.90769 0.97605 0.0
O167 O 0.31968 0.85017 0.13405 0.0
O168 O 0.32085 0.88019 0.09937 0.0
C169 C 0.35747 0.84412 0.89732 0.0
O170 O 0.37999 0.88077 0.99992 0.0
O171 O 0.35939 0.86513 0.11458 0.0
C172 C 0.35632 0.91557 0.97923 0.0
O173 O 0.35768 0.85978 0.85993 0.0
O174 O 0.3524 0.84032 0.97795 0.0
C175 C 0.29631 0.8297 0.9806 0.0
Fe176 Fe 0.43781 0.32075 0.14653 0.0
Fe177 Fe 0.47386 0.36449 0.08573 0.0
O178 O 0.46501 0.34105 0.14865 0.0
Fe179 Fe 0.48346 0.33795 0.21433 0.0
O180 O 0.47858 0.31464 0.1525 0.0
O181 O 0.44353 0.29876 0.16067 0.0
O182 O 0.43878 0.31713 0.02811 0.0
C183 C 0.44459 0.33192 0.97199 0.0
C184 C 0.44684 0.32107 0.32175 0.0
O185 O 0.45483 0.35133 0.99522 0.0
C186 C 0.49627 0.37961 0.24729 0.0
O187 O 0.42731 0.33915 0.13148 0.0
O188 O 0.45595 0.37088 0.14239 0.0
O189 O 0.46394 0.32163 0.29916 0.0
O190 O 0.43532 0.32328 0.265 0.0
C191 C 0.50785 0.35894 0.06172 0.0
O192 O 0.49436 0.38196 0.16553 0.0
O193 O 0.48929 0.36122 0.27972 0.0
C194 C 0.43599 0.35906 0.14591 0.0
O195 O 0.49257 0.35959 0.02497 0.0
O196 O 0.50661 0.35385 0.14233 0.0
C197 C 0.46046 0.29809 0.1455 0.0
Fe198 Fe 0.11163 0.43808 0.31376 0.0
Fe199 Fe 0.1036 0.47398 0.25429 0.0
O200 O 0.11839 0.46524 0.31631 0.0
Fe201 Fe 0.13996 0.48373 0.38176 0.0
O202 O 0.15841 0.47908 0.31915 0.0
O203 O 0.13945 0.444 0.32685 0.0
O204 O 0.11604 0.43915 0.19524 0.0
C205 C 0.10691 0.44489 0.13966 0.0
C206 C 0.1205 0.44708 0.48898 0.0
O207 O 0.0976 0.45493 0.16366 0.0
C208 C 0.11119 0.49647 0.41571 0.0
O209 O 0.08265 0.42743 0.29991 0.0
O210 O 0.0795 0.45599 0.31212 0.0
O211 O 0.137 0.46422 0.46622 0.0
O212 O 0.10677 0.4355 0.43234 0.0
C213 C 0.14292 0.50824 0.22985 0.0
O214 O 0.10674 0.49451 0.33415 0.0
O215 O 0.12246 0.48933 0.44785 0.0
C216 C 0.07152 0.43606 0.31701 0.0
O217 O 0.12707 0.49285 0.19293 0.0
O218 O 0.14697 0.50684 0.31006 0.0
C219 C 0.15698 0.46105 0.31163 0.0
Fe220 Fe 0.66762 0.11613 0.47951 0.0
Fe221 Fe 0.62376 0.10805 0.4184 0.0
O222 O 0.64704 0.12261 0.48219 0.0
Fe223 Fe 0.64972 0.14376 0.5494 0.0
O224 O 0.67284 0.16267 0.48801 0.0
O225 O 0.6893 0.14404 0.49456 0.0
O226 O 0.67134 0.12107 0.36148 0.0
C227 C 0.65669 0.11217 0.30482 0.0
C228 C 0.66702 0.12423 0.65507 0.0
O229 O 0.63723 0.10278 0.32731 0.0
C230 C 0.60822 0.11443 0.58078 0.0
O231 O 0.64952 0.08716 0.46334 0.0
O232 O 0.61758 0.0836 0.47318 0.0
O233 O 0.66628 0.14072 0.63341 0.0
O234 O 0.66502 0.11074 0.59759 0.0
C235 C 0.62852 0.14731 0.39791 0.0
O236 O 0.60601 0.11049 0.49872 0.0
O237 O 0.62655 0.1257 0.61401 0.0
C238 C 0.62958 0.07568 0.47663 0.0
O239 O 0.6285 0.13186 0.3595 0.0
O240 O 0.6335 0.15083 0.47869 0.0
C241 C 0.68955 0.16147 0.47975 0.0
Fe242 Fe 0.54992 0.67184 0.64909 0.0
Fe243 Fe 0.51429 0.62728 0.59341 0.0
O244 O 0.52269 0.65131 0.65127 0.0
Fe245 Fe 0.5038 0.65476 0.71184 0.0
O246 O 0.50888 0.67745 0.64498 0.0
O247 O 0.5439 0.69375 0.65646 0.0
O248 O 0.54934 0.67424 0.52932 0.0
C249 C 0.54313 0.65876 0.47631 0.0
C250 C 0.53958 0.67218 0.82288 0.0
O251 O 0.53369 0.63972 0.50424 0.0
C252 C 0.49068 0.61342 0.75268 0.0
O253 O 0.56064 0.65347 0.64104 0.0
O254 O 0.53208 0.62181 0.65639 0.0
O255 O 0.52286 0.6718 0.79589 0.0
O256 O 0.55199 0.67052 0.76888 0.0
C257 C 0.48014 0.63204 0.56037 0.0
O258 O 0.49339 0.61045 0.67256 0.0
O259 O 0.49762 0.63207 0.78221 0.0
C260 C 0.55201 0.63384 0.66109 0.0
O261 O 0.49568 0.63124 0.52696 0.0
O262 O 0.4811 0.63816 0.63928 0.0
C263 C 0.52695 0.69407 0.63769 0.0
H264 H 0.47694 0.14354 0.74592 0.0
H265 H 0.41318 0.1162 0.30823 0.0
H266 H 0.40883 0.10241 0.77554 0.0
H267 H 0.46411 0.10222 0.34574 0.0
H268 H 0.41139 0.11943 0.47017 0.0
H269 H 0.4731 0.13805 0.58716 0.0
C270 C 0.46108 0.13358 0.719 0.0
C271 C 0.44315 0.12342 0.77428 0.0
C272 C 0.42268 0.11537 0.44215 0.0
C273 C 0.43876 0.11735 0.59185 0.0
C274 C 0.4238 0.11364 0.35025 0.0
C275 C 0.43879 0.10889 0.31343 0.0
C276 C 0.43706 0.11296 0.49632 0.0
C277 C 0.45221 0.10576 0.37088 0.0
C278 C 0.45897 0.13042 0.62842 0.0
C279 C 0.42305 0.11048 0.73518 0.0
N280 N 0.45125 0.10819 0.45906 0.0
N281 N 0.42132 0.10786 0.64571 0.0
H282 H 0.32874 0.48025 0.91465 0.0
H283 H 0.29269 0.41707 0.47771 0.0
H284 H 0.30356 0.41245 0.94672 0.0
H285 H 0.35808 0.46695 0.51692 0.0
H286 H 0.28754 0.41508 0.63962 0.0
H287 H 0.32995 0.47612 0.75588 0.0
C288 C 0.32312 0.46439 0.88831 0.0
C289 C 0.31602 0.44664 0.94427 0.0
C290 C 0.30302 0.42615 0.61193 0.0
C291 C 0.3172 0.44193 0.76189 0.0
C292 C 0.30595 0.4274 0.52006 0.0
C293 C 0.32585 0.44218 0.48372 0.0
C294 C 0.31993 0.44019 0.66651 0.0
C295 C 0.3425 0.45523 0.54161 0.0
C296 C 0.32392 0.46212 0.79772 0.0
C297 C 0.30921 0.42653 0.90584 0.0
N298 N 0.33905 0.45416 0.62975 0.0
N299 N 0.30989 0.42465 0.81637 0.0
H300 H 0.84687 0.29601 0.64944 0.0
H301 H 0.9022 0.33705 0.12121 0.0
H302 H 0.90558 0.35565 0.68658 0.0
H303 H 0.83399 0.29893 0.08635 0.0
H304 H 0.90671 0.33666 0.9606 0.0
H305 H 0.84518 0.28983 0.80937 0.0
C306 C 0.85957 0.3076 0.69104 0.0
C307 C 0.87628 0.32646 0.65502 0.0
C308 C 0.89081 0.32811 0.98855 0.0
C309 C 0.87457 0.31939 0.83694 0.0
C310 C 0.88824 0.3282 0.07995 0.0
C311 C 0.86769 0.31813 0.11675 0.0
C312 C 0.87272 0.31753 0.93416 0.0
C313 C 0.85009 0.30705 0.06038 0.0
C314 C 0.85855 0.30411 0.78207 0.0
C315 C 0.89229 0.34102 0.71188 0.0
N316 N 0.853 0.30708 0.97184 0.0
N317 N 0.89103 0.3372 0.80006 0.0
H318 H 0.53059 0.83636 0.24972 0.0
H319 H 0.54992 0.91147 0.84554 0.0
H320 H 0.56318 0.90482 0.28049 0.0
H321 H 0.54793 0.85123 0.81366 0.0
H322 H 0.55394 0.9093 0.00487 0.0
H323 H 0.53591 0.84101 0.09008 0.0
C324 C 0.53913 0.85239 0.22286 0.0
C325 C 0.54642 0.87024 0.27825 0.0
C326 C 0.55295 0.89672 0.9629 0.0
C327 C 0.55214 0.87565 0.09564 0.0
C328 C 0.55057 0.8979 0.87205 0.0
C329 C 0.5485 0.88145 0.81641 0.0
C330 C 0.55272 0.87872 0.99871 0.0
C331 C 0.54953 0.86428 0.85423 0.0
C332 C 0.54221 0.85502 0.13184 0.0
C333 C 0.55741 0.89064 0.24006 0.0
N334 N 0.55119 0.86316 0.94329 0.0
N335 N 0.55959 0.8928 0.15084 0.0
H336 H 0.69219 0.55005 0.98425 0.0
H337 H 0.65062 0.56318 0.45649 0.0
H338 H 0.63172 0.54725 0.02189 0.0
H339 H 0.69011 0.53466 0.42134 0.0
H340 H 0.65056 0.56773 0.29577 0.0
H341 H 0.69834 0.55458 0.14411 0.0
C342 C 0.68039 0.55074 0.02594 0.0
C343 C 0.66134 0.54808 0.99003 0.0
C344 C 0.6595 0.56079 0.32365 0.0
C345 C 0.66837 0.55348 0.17197 0.0
C346 C 0.65967 0.55835 0.41512 0.0
C347 C 0.67029 0.54843 0.4519 0.0
C348 C 0.67036 0.55364 0.26918 0.0
C349 C 0.68159 0.54223 0.39539 0.0
C350 C 0.68387 0.55323 0.11695 0.0
C351 C 0.64652 0.54901 0.04707 0.0
N352 N 0.6813 0.5449 0.30679 0.0
N353 N 0.65034 0.55161 0.13526 0.0
H354 H 0.14263 0.65868 0.57914 0.0
H355 H 0.11588 0.69508 0.14157 0.0
H356 H 0.10078 0.68474 0.60997 0.0
H357 H 0.10057 0.62977 0.18053 0.0
H358 H 0.11902 0.7002 0.30348 0.0
H359 H 0.13732 0.65737 0.42038 0.0
C360 C 0.13256 0.66446 0.55253 0.0
C361 C 0.12212 0.67186 0.60814 0.0
C362 C 0.11468 0.68475 0.27575 0.0
C363 C 0.11626 0.67055 0.42571 0.0
C364 C 0.11301 0.68184 0.18388 0.0
C365 C 0.10793 0.66196 0.14749 0.0
C366 C 0.11185 0.66784 0.33028 0.0
C367 C 0.10439 0.64532 0.2053 0.0
C368 C 0.1295 0.6636 0.46193 0.0
C369 C 0.10905 0.67888 0.56936 0.0
N370 N 0.10676 0.64875 0.29345 0.0
N371 N 0.10651 0.67814 0.47986 0.0
H372 H 0.84459 0.51176 0.11685 0.0
H373 H 0.87225 0.57485 0.55466 0.0
H374 H 0.8871 0.57964 0.08647 0.0
H375 H 0.88636 0.52404 0.51572 0.0
H376 H 0.8693 0.577 0.39276 0.0
H377 H 0.85009 0.5156 0.27553 0.0
C378 C 0.85486 0.52758 0.14356 0.0
C379 C 0.8654 0.54544 0.08808 0.0
C380 C 0.87335 0.56568 0.42048 0.0
C381 C 0.87148 0.54982 0.27046 0.0
C382 C 0.87491 0.56434 0.51236 0.0
C383 C 0.87957 0.54925 0.54877 0.0
C384 C 0.87588 0.55143 0.36592 0.0
C385 C 0.88286 0.53599 0.49094 0.0
C386 C 0.85802 0.52968 0.23411 0.0
C387 C 0.87873 0.56548 0.12698 0.0
N388 N 0.88059 0.53716 0.40276 0.0
N389 N 0.88136 0.5672 0.21645 0.0
H390 H 0.35307 0.90974 0.68342 0.0
H391 H 0.29667 0.83548 0.2781 0.0
H392 H 0.29455 0.84965 0.71447 0.0
H393 H 0.33381 0.90392 0.24883 0.0
H394 H 0.29575 0.83996 0.43767 0.0
H395 H 0.34679 0.90797 0.52433 0.0
C396 C 0.33877 0.89628 0.65676 0.0
C397 C 0.32436 0.87975 0.71207 0.0
C398 C 0.30379 0.85402 0.39628 0.0
C399 C 0.31727 0.87747 0.52996 0.0
C400 C 0.30437 0.85148 0.30529 0.0
C401 C 0.3154 0.86937 0.25036 0.0
C402 C 0.31479 0.87457 0.43295 0.0
C403 C 0.32507 0.88972 0.28891 0.0
C404 C 0.33515 0.89533 0.56604 0.0
C405 C 0.30603 0.86274 0.67412 0.0
N406 N 0.32489 0.89177 0.37815 0.0
N407 N 0.3032 0.86184 0.5851 0.0
H408 H 0.43849 0.35584 0.84884 0.0
H409 H 0.45557 0.29884 0.44383 0.0
H410 H 0.43906 0.29685 0.88015 0.0
H411 H 0.42485 0.33646 0.41418 0.0
H412 H 0.45022 0.29807 0.60343 0.0
H413 H 0.43405 0.34961 0.68968 0.0
C414 C 0.43744 0.34145 0.82222 0.0
C415 C 0.43925 0.32688 0.87763 0.0
C416 C 0.44432 0.30618 0.56194 0.0
C417 C 0.43453 0.31986 0.69547 0.0
C418 C 0.44742 0.30668 0.47094 0.0
C419 C 0.4407 0.3178 0.41588 0.0
C420 C 0.43495 0.31735 0.59849 0.0
C421 C 0.43019 0.32765 0.45435 0.0
C422 C 0.43481 0.33787 0.73147 0.0
C423 C 0.43768 0.30845 0.83973 0.0
N424 N 0.42799 0.32754 0.54359 0.0
N425 N 0.4358 0.30564 0.7507 0.0
H426 H 0.07714 0.4393 0.01585 0.0
H427 H 0.1514 0.45596 0.61159 0.0
H428 H 0.13638 0.43929 0.04789 0.0
H429 H 0.08305 0.42526 0.58118 0.0
H430 H 0.1467 0.4508 0.77128 0.0
H431 H 0.07907 0.43499 0.85662 0.0
C432 C 0.09045 0.43817 0.9894 0.0
C433 C 0.10669 0.43975 0.04506 0.0
C434 C 0.13271 0.44487 0.7296 0.0
C435 C 0.10914 0.43517 0.86285 0.0
C436 C 0.13538 0.44785 0.63855 0.0
C437 C 0.11757 0.44106 0.58325 0.0
C438 C 0.11213 0.43555 0.76591 0.0
C439 C 0.09718 0.43063 0.62154 0.0
C440 C 0.09148 0.43561 0.89861 0.0
C441 C 0.12351 0.43809 0.00731 0.0
N442 N 0.09502 0.42854 0.7108 0.0
N443 N 0.1245 0.43626 0.91829 0.0
H444 H 0.65183 0.08648 0.74443 0.0
H445 H 0.69214 0.14205 0.21623 0.0
H446 H 0.68871 0.15479 0.77941 0.0
H447 H 0.6332 0.08263 0.17915 0.0
H448 H 0.69831 0.14389 0.05626 0.0
H449 H 0.65239 0.08201 0.905 0.0
C450 C 0.66044 0.10049 0.78571 0.0
C451 C 0.67011 0.12103 0.74895 0.0
C452 C 0.68419 0.13033 0.08359 0.0
C453 C 0.6709 0.11605 0.9315 0.0
C454 C 0.68072 0.12922 0.17464 0.0
C455 C 0.66204 0.11227 0.21068 0.0
C456 C 0.6691 0.11416 0.02873 0.0
C457 C 0.64769 0.09611 0.15383 0.0
C458 C 0.66062 0.09794 0.87709 0.0
C459 C 0.68089 0.13867 0.80535 0.0
N460 N 0.65149 0.09746 0.06563 0.0
N461 N 0.68096 0.13579 0.89387 0.0
H462 H 0.52029 0.63018 0.34892 0.0
H463 H 0.57733 0.68439 0.91376 0.0
H464 H 0.57182 0.69503 0.38328 0.0
H465 H 0.51031 0.66245 0.95191 0.0
H466 H 0.5813 0.68344 0.07574 0.0
H467 H 0.52237 0.63574 0.19007 0.0
C468 C 0.53231 0.64552 0.32312 0.0
C469 C 0.54591 0.6622 0.37973 0.0
C470 C 0.56589 0.67918 0.04778 0.0
C471 C 0.54842 0.66842 0.19732 0.0
C472 C 0.56358 0.6796 0.95589 0.0
C473 C 0.54348 0.67355 0.91925 0.0
C474 C 0.54786 0.67207 0.102 0.0
C475 C 0.52615 0.66741 0.97685 0.0
C476 C 0.53339 0.64864 0.23248 0.0
C477 C 0.56099 0.6818 0.34192 0.0
N478 N 0.52867 0.6665 0.06494 0.0
N479 N 0.56191 0.68442 0.25246 0.0
H480 H 0.38913 0.04824 0.05707 0.0
H481 H 0.39875 0.9445 0.98719 0.0
H482 H 0.44562 0.04832 0.96422 0.0
H483 H 0.33699 0.9402 0.99033 0.0
H484 H 0.41574 0.98297 0.99327 0.0
H485 H 0.36902 0.00906 0.04191 0.0
C486 C 0.39722 0.04009 0.03261 0.0
C487 C 0.41916 0.05152 0.01322 0.0
C488 C 0.39846 0.97371 0.99236 0.0
C489 C 0.39646 0.00707 0.9968 0.0
C490 C 0.38868 0.95162 0.98939 0.0
C491 C 0.36635 0.93901 0.98774 0.0
C492 C 0.38593 0.9835 0.99449 0.0
C493 C 0.35426 0.94933 0.99111 0.0
C494 C 0.38577 0.0178 0.02421 0.0
C495 C 0.42884 0.0402 0.98152 0.0
N496 N 0.36423 0.97107 0.99452 0.0
N497 N 0.41749 0.01867 0.97514 0.0
H498 H 0.45026 0.40151 0.16288 0.0
H499 H 0.3369 0.39299 0.21953 0.0
H500 H 0.392 0.34038 0.15195 0.0
H501 H 0.39512 0.45036 0.14681 0.0
H502 H 0.35571 0.37269 0.2042 0.0
H503 H 0.42935 0.41907 0.17141 0.0
C504 C 0.43301 0.3917 0.16244 0.0
C505 C 0.4229 0.36938 0.15606 0.0
C506 C 0.3642 0.38969 0.19106 0.0
C507 C 0.39869 0.38963 0.16567 0.0
C508 C 0.35351 0.40127 0.1996 0.0
C509 C 0.36453 0.42346 0.18563 0.0
C510 C 0.38599 0.4005 0.16898 0.0
C511 C 0.38601 0.43336 0.15965 0.0
C512 C 0.42105 0.40181 0.1669 0.0
C513 C 0.40045 0.35763 0.1564 0.0
N514 N 0.39601 0.42185 0.15292 0.0
N515 N 0.38903 0.36792 0.16118 0.0
H516 H 0.04521 0.3923 0.30185 0.0
H517 H 0.94104 0.4015 0.37596 0.0
H518 H 0.04499 0.45009 0.37179 0.0
H519 H 0.93774 0.34017 0.37592 0.0
H520 H 0.9794 0.41893 0.36258 0.0
H521 H 0.00615 0.37217 0.32088 0.0
C522 C 0.03702 0.40071 0.3217 0.0
C523 C 0.04835 0.42296 0.3341 0.0
C524 C 0.9704 0.40165 0.36573 0.0
C525 C 0.00401 0.40019 0.35529 0.0
C526 C 0.94837 0.39162 0.37305 0.0
C527 C 0.93606 0.36928 0.37755 0.0
C528 C 0.98046 0.38938 0.36225 0.0
C529 C 0.94663 0.35744 0.37303 0.0
C530 C 0.01479 0.38923 0.33243 0.0
C531 C 0.03697 0.43304 0.36013 0.0
N532 N 0.96831 0.36766 0.36548 0.0
N533 N 0.01551 0.42161 0.36925 0.0
H534 H 0.59612 0.94308 0.56564 0.0
H535 H 0.58711 0.04696 0.48194 0.0
H536 H 0.5392 0.94312 0.48006 0.0
H537 H 0.64865 0.05084 0.4932 0.0
H538 H 0.56987 0.00858 0.49279 0.0
H539 H 0.6164 0.98217 0.5467 0.0
C540 C 0.58795 0.95124 0.54224 0.0
C541 C 0.56587 0.93987 0.52571 0.0
C542 C 0.58715 0.01771 0.49265 0.0
C543 C 0.58879 0.98422 0.50462 0.0
C544 C 0.59708 0.03976 0.48686 0.0
C545 C 0.61943 0.05224 0.48631 0.0
C546 C 0.59952 0.00779 0.49866 0.0
C547 C 0.63137 0.04181 0.49307 0.0
C548 C 0.59951 0.97348 0.5316 0.0
C549 C 0.55609 0.95119 0.49518 0.0
N550 N 0.62124 0.02009 0.49922 0.0
N551 N 0.56756 0.97266 0.4863 0.0
H552 H 0.58662 0.53787 0.71229 0.0
H553 H 0.59566 0.65127 0.64392 0.0
H554 H 0.6479 0.59603 0.71278 0.0
H555 H 0.53817 0.59353 0.71973 0.0
H556 H 0.61577 0.63233 0.66134 0.0
H557 H 0.56913 0.55885 0.70294 0.0
C558 C 0.59647 0.55511 0.71027 0.0
C559 C 0.61882 0.56519 0.71375 0.0
C560 C 0.59879 0.62397 0.67468 0.0
C561 C 0.59867 0.58949 0.70316 0.0
C562 C 0.58732 0.63474 0.66493 0.0
C563 C 0.56515 0.62388 0.67921 0.0
C564 C 0.5879 0.60227 0.69836 0.0
C565 C 0.55516 0.6025 0.70662 0.0
C566 C 0.58641 0.56713 0.70535 0.0
C567 C 0.63063 0.58762 0.71057 0.0
N568 N 0.56656 0.59242 0.71457 0.0
N569 N 0.62039 0.59909 0.70527 0.0
H570 H 0.04876 0.65351 0.87057 0.0
H571 H 0.94059 0.54183 0.88816 0.0
H572 H 0.04405 0.59185 0.84172 0.0
H573 H 0.94016 0.59879 0.80573 0.0
H574 H 0.97919 0.56222 0.89753 0.0
H575 H 0.00949 0.63572 0.86552 0.0
C576 C 0.03955 0.63633 0.86258 0.0
C577 C 0.04974 0.62415 0.85738 0.0
C578 C 0.97071 0.57033 0.87737 0.0
C579 C 0.00518 0.6039 0.85316 0.0
C580 C 0.94861 0.5587 0.87229 0.0
C581 C 0.9371 0.56852 0.84463 0.0
C582 C 0.98158 0.59205 0.85501 0.0
C583 C 0.94845 0.59056 0.82668 0.0
C584 C 0.01721 0.62625 0.85987 0.0
C585 C 0.03702 0.60196 0.84681 0.0
N586 N 0.97019 0.60164 0.83164 0.0
N587 N 0.01549 0.59261 0.84585 0.0
H588 H 0.4983 0.11819 0.76078 0.0
H589 H 0.60462 0.11264 0.76057 0.0
H590 H 0.52112 0.10102 0.99243 0.0
H591 H 0.56889 0.10556 0.52251 0.0
H592 H 0.57434 0.1087 0.84741 0.0
H593 H 0.52416 0.11398 0.67158 0.0
C594 C 0.50862 0.11336 0.7927 0.0
C595 C 0.5077 0.11014 0.8842 0.0
C596 C 0.57304 0.10773 0.7762 0.0
C597 C 0.53737 0.10551 0.78298 0.0
C598 C 0.59032 0.11004 0.72669 0.0
C599 C 0.5893 0.10956 0.63431 0.0
C600 C 0.5548 0.10533 0.73287 0.0
C601 C 0.57035 0.10602 0.59366 0.0
C602 C 0.5233 0.11089 0.74179 0.0
C603 C 0.52132 0.10373 0.92212 0.0
N604 N 0.55395 0.10435 0.6432 0.0
N605 N 0.5358 0.10192 0.8715 0.0
H606 H 0.41546 0.52735 0.17184 0.0
H607 H 0.46184 0.57345 0.69499 0.0
H608 H 0.37808 0.5035 0.93369 0.0
H609 H 0.48546 0.61119 0.9324 0.0
H610 H 0.43509 0.54377 0.78256 0.0
H611 H 0.4452 0.55419 0.08457 0.0
C612 C 0.41359 0.52756 0.10101 0.0
C613 C 0.39422 0.51323 0.05985 0.0
C614 C 0.44623 0.5585 0.81542 0.0
C615 C 0.42821 0.54386 0.96012 0.0
C616 C 0.46159 0.57542 0.76573 0.0
C617 C 0.47584 0.59488 0.80655 0.0
C618 C 0.44528 0.56093 0.9067 0.0
C619 C 0.47468 0.59652 0.89832 0.0
C620 C 0.43054 0.54297 0.05151 0.0
C621 C 0.39269 0.51434 0.96801 0.0
N622 N 0.45962 0.57973 0.94546 0.0
N623 N 0.40949 0.52944 0.92109 0.0
H624 H 0.86981 0.48978 0.10324 0.0
H625 H 0.87509 0.38323 0.10403 0.0
H626 H 0.88693 0.46681 0.87194 0.0
H627 H 0.88211 0.41899 0.34194 0.0
H628 H 0.87896 0.41348 0.01707 0.0
H629 H 0.87377 0.46377 0.1926 0.0
C630 C 0.87457 0.4794 0.07143 0.0
C631 C 0.87787 0.48032 0.97998 0.0
C632 C 0.87992 0.41478 0.08829 0.0
C633 C 0.8822 0.45049 0.08136 0.0
C634 C 0.87766 0.39752 0.13785 0.0
C635 C 0.87816 0.39857 0.23022 0.0
C636 C 0.88231 0.43303 0.13154 0.0
C637 C 0.88164 0.41751 0.2708 0.0
C638 C 0.8769 0.46463 0.12243 0.0
C639 C 0.88418 0.46662 0.94221 0.0
N640 N 0.88329 0.43389 0.2212 0.0
N641 N 0.88586 0.45206 0.9929 0.0
H642 H 0.46317 0.88929 0.50514 0.0
H643 H 0.41794 0.88846 0.02396 0.0
H644 H 0.48841 0.8773 0.2675 0.0
H645 H 0.38074 0.87636 0.26183 0.0
H646 H 0.44811 0.89307 0.11296 0.0
H647 H 0.43721 0.89326 0.4161 0.0
C648 C 0.46347 0.88779 0.43413 0.0
C649 C 0.47782 0.88272 0.39363 0.0
C650 C 0.4334 0.8896 0.14559 0.0
C651 C 0.44822 0.8873 0.29181 0.0
C652 C 0.41619 0.88706 0.09501 0.0
C653 C 0.39671 0.88179 0.13558 0.0
C654 C 0.43118 0.8871 0.23739 0.0
C655 C 0.39539 0.88017 0.22786 0.0
C656 C 0.44858 0.88996 0.38354 0.0
C657 C 0.47745 0.88096 0.30141 0.0
N658 N 0.41239 0.88273 0.27573 0.0
N659 N 0.4628 0.88316 0.25355 0.0
H660 H 0.60776 0.49203 0.43616 0.0
H661 H 0.51937 0.42128 0.19366 0.0
H662 H 0.56899 0.46239 0.66659 0.0
H663 H 0.50445 0.38134 0.42479 0.0
H664 H 0.545 0.4518 0.28039 0.0
H665 H 0.57835 0.46694 0.34324 0.0
C666 C 0.5929 0.48045 0.46709 0.0
C667 C 0.59083 0.47923 0.55919 0.0
C668 C 0.53624 0.43634 0.31197 0.0
C669 C 0.55694 0.45061 0.45322 0.0
C670 C 0.52143 0.41891 0.26273 0.0
C671 C 0.51005 0.39859 0.30155 0.0
C672 C 0.53975 0.43342 0.40065 0.0
C673 C 0.51314 0.39662 0.39173 0.0
C674 C 0.57601 0.46626 0.41392 0.0
C675 C 0.57124 0.46393 0.59582 0.0
N676 N 0.52781 0.41381 0.43814 0.0
N677 N 0.55515 0.44996 0.5427 0.0
H678 H 0.11056 0.49897 0.59566 0.0
H679 H 0.11601 0.61083 0.59471 0.0
H680 H 0.10217 0.52686 0.35798 0.0
H681 H 0.09926 0.57116 0.82734 0.0
H682 H 0.11169 0.58062 0.50608 0.0
H683 H 0.1071 0.5256 0.68254 0.0
C684 C 0.10779 0.51057 0.56189 0.0
C685 C 0.10678 0.5108 0.46958 0.0
C686 C 0.10871 0.57849 0.57639 0.0
C687 C 0.10309 0.54138 0.56813 0.0
C688 C 0.11125 0.59572 0.62696 0.0
C689 C 0.10815 0.59353 0.71855 0.0
C690 C 0.10342 0.5591 0.61801 0.0
C691 C 0.10185 0.57357 0.75693 0.0
C692 C 0.10575 0.5257 0.61142 0.0
C693 C 0.10304 0.52609 0.42908 0.0
N694 N 0.09998 0.5572 0.70663 0.0
N695 N 0.10163 0.54098 0.47858 0.0
H696 H 0.49289 0.19927 0.10043 0.0
H697 H 0.42471 0.25834 0.13032 0.0
H698 H 0.4246 0.16641 0.06015 0.0
H699 H 0.49365 0.2905 0.12878 0.0
H700 H 0.42365 0.22414 0.11307 0.0
H701 H 0.49267 0.2324 0.12252 0.0
C702 C 0.47779 0.19898 0.09647 0.0
C703 C 0.45874 0.18001 0.07761 0.0
C704 C 0.43897 0.23872 0.1164 0.0
C705 C 0.45842 0.21811 0.10272 0.0
C706 C 0.4396 0.25824 0.12615 0.0
C707 C 0.4593 0.27733 0.13127 0.0
C708 C 0.45817 0.23835 0.11218 0.0
C709 C 0.47808 0.27623 0.12533 0.0
C710 C 0.4777 0.21797 0.10891 0.0
C711 C 0.43968 0.18067 0.07413 0.0
N712 N 0.47703 0.25709 0.11641 0.0
N713 N 0.44 0.19946 0.08626 0.0
H714 H 0.16163 0.42564 0.29863 0.0
H715 H 0.28883 0.49577 0.26553 0.0
H716 H 0.19745 0.49461 0.29152 0.0
H717 H 0.25443 0.4273 0.22988 0.0
H718 H 0.25512 0.49488 0.28628 0.0
H719 H 0.19512 0.42523 0.28133 0.0
C720 C 0.17648 0.44067 0.29317 0.0
C721 C 0.17672 0.46019 0.29688 0.0
C722 C 0.25489 0.48001 0.27395 0.0
C723 C 0.21496 0.45981 0.27777 0.0
C724 C 0.27418 0.4805 0.26231 0.0
C725 C 0.27449 0.46159 0.24521 0.0
C726 C 0.23565 0.46049 0.26876 0.0
C727 C 0.25494 0.44228 0.24251 0.0
C728 C 0.19557 0.44041 0.28341 0.0
C729 C 0.19643 0.47917 0.28931 0.0
N730 N 0.23626 0.44222 0.2539 0.0
N731 N 0.21471 0.47848 0.28046 0.0
H732 H 0.69568 0.20141 0.45209 0.0
H733 H 0.82249 0.25826 0.39897 0.0
H734 H 0.72997 0.16688 0.46949 0.0
H735 H 0.78682 0.29147 0.4096 0.0
H736 H 0.78913 0.22441 0.42069 0.0
H737 H 0.72927 0.23431 0.43027 0.0
C738 C 0.71029 0.20071 0.45124 0.0
C739 C 0.70998 0.18132 0.46316 0.0
C740 C 0.78868 0.23914 0.41837 0.0
C741 C 0.74871 0.21916 0.43813 0.0
C742 C 0.8077 0.25846 0.40605 0.0
C743 C 0.80746 0.27774 0.40204 0.0
C744 C 0.76936 0.23917 0.4265 0.0
C745 C 0.78783 0.27704 0.41185 0.0
C746 C 0.72953 0.21957 0.43889 0.0
C747 C 0.72947 0.18148 0.46086 0.0
N748 N 0.76962 0.2581 0.42334 0.0
N749 N 0.7481 0.20015 0.44872 0.0
H750 H 0.49236 0.79091 0.57493 0.0
H751 H 0.56234 0.73426 0.6289 0.0
H752 H 0.56127 0.82564 0.56043 0.0
H753 H 0.49359 0.70069 0.60554 0.0
H754 H 0.56281 0.76808 0.60803 0.0
H755 H 0.49305 0.75792 0.59325 0.0
C756 C 0.50769 0.79163 0.57577 0.0
C757 C 0.5268 0.81111 0.56565 0.0
C758 C 0.54766 0.75327 0.6072 0.0
C759 C 0.52767 0.77317 0.58654 0.0
C760 C 0.54737 0.73397 0.61898 0.0
C761 C 0.52788 0.71459 0.61952 0.0
C762 C 0.52832 0.75315 0.59625 0.0
C763 C 0.50899 0.71519 0.60613 0.0
C764 C 0.50805 0.77272 0.586 0.0
C765 C 0.54615 0.81098 0.56772 0.0
N766 N 0.5097 0.73413 0.59548 0.0
N767 N 0.54609 0.79226 0.57788 0.0
H768 H 0.78935 0.49575 0.76121 0.0
H769 H 0.73023 0.56395 0.73677 0.0
H770 H 0.82226 0.56393 0.80471 0.0
H771 H 0.69817 0.49499 0.73697 0.0
H772 H 0.76448 0.56503 0.75302 0.0
H773 H 0.75625 0.49606 0.74016 0.0
C774 C 0.78966 0.51084 0.76609 0.0
C775 C 0.80862 0.52983 0.78559 0.0
C776 C 0.7499 0.54971 0.74963 0.0
C777 C 0.77056 0.53026 0.7617 0.0
C778 C 0.73037 0.54906 0.74046 0.0
C779 C 0.71129 0.52935 0.73519 0.0
C780 C 0.75031 0.53051 0.75309 0.0
C781 C 0.71242 0.51057 0.7405 0.0
C782 C 0.77068 0.51099 0.75426 0.0
C783 C 0.80799 0.5489 0.7902 0.0
N784 N 0.73158 0.51164 0.74884 0.0
N785 N 0.78921 0.54863 0.77867 0.0
H786 H 0.19844 0.69784 0.92884 0.0
H787 H 0.25637 0.8251 0.96522 0.0
H788 H 0.16503 0.73294 0.89672 0.0
H789 H 0.28927 0.78908 0.96348 0.0
H790 H 0.22245 0.79171 0.94707 0.0
H791 H 0.23151 0.73135 0.95126 0.0
C792 C 0.19802 0.7126 0.92676 0.0
C793 C 0.17891 0.71256 0.9102 0.0
C794 C 0.23713 0.79118 0.95057 0.0
C795 C 0.21691 0.75113 0.93569 0.0
C796 C 0.25649 0.81021 0.96083 0.0
C797 C 0.27571 0.8099 0.96612 0.0
C798 C 0.23702 0.77173 0.94589 0.0
C799 C 0.27489 0.79014 0.95989 0.0
C800 C 0.21697 0.73177 0.93938 0.0
C801 C 0.1794 0.73222 0.90889 0.0
N802 N 0.25588 0.77189 0.95037 0.0
N803 N 0.19813 0.75075 0.9212 0.0
H804 H 0.51287 0.14262 0.31094 0.0
H805 H 0.62204 0.15117 0.22256 0.0
H806 H 0.54459 0.16552 0.06029 0.0
H807 H 0.60589 0.16285 0.48276 0.0
H808 H 0.59467 0.15786 0.16053 0.0
H809 H 0.54715 0.15121 0.3771 0.0
C810 C 0.52711 0.14988 0.27034 0.0
C811 C 0.52584 0.15315 0.17987 0.0
C812 C 0.5975 0.15948 0.23099 0.0
C813 C 0.56489 0.16253 0.25442 0.0
C814 C 0.61311 0.15567 0.26631 0.0
C815 C 0.61612 0.1563 0.35785 0.0
C816 C 0.58448 0.16336 0.2879 0.0
C817 C 0.6041 0.16219 0.41173 0.0
C818 C 0.54666 0.15481 0.30807 0.0
C819 C 0.54481 0.16265 0.13027 0.0
N820 N 0.58843 0.16497 0.37616 0.0
N821 N 0.56347 0.16654 0.16772 0.0
H822 H 0.36663 0.51761 0.48124 0.0
H823 H 0.47087 0.62274 0.38505 0.0
H824 H 0.37652 0.54778 0.2263 0.0
H825 H 0.44132 0.61197 0.64165 0.0
H826 H 0.43653 0.59555 0.32369 0.0
H827 H 0.39371 0.55193 0.54328 0.0
C828 C 0.37413 0.53154 0.43887 0.0
C829 C 0.36942 0.52981 0.34851 0.0
C830 C 0.4375 0.59955 0.39302 0.0
C831 C 0.40067 0.56878 0.41818 0.0
C832 C 0.45706 0.61503 0.42794 0.0
C833 C 0.45897 0.61953 0.51851 0.0
C834 C 0.41999 0.58814 0.4496 0.0
C835 C 0.44057 0.60903 0.57137 0.0
C836 C 0.38954 0.55109 0.4742 0.0
C837 C 0.37964 0.54837 0.29639 0.0
N838 N 0.42196 0.59344 0.53654 0.0
N839 N 0.39517 0.56697 0.33153 0.0
H840 H 0.82469 0.38133 0.37884 0.0
H841 H 0.82234 0.44355 0.80829 0.0
H842 H 0.83703 0.36683 0.64108 0.0
H843 H 0.84496 0.47386 0.55488 0.0
H844 H 0.81412 0.40939 0.74281 0.0
H845 H 0.8184 0.4089 0.44071 0.0
C846 C 0.82541 0.38344 0.44975 0.0
C847 C 0.83161 0.3719 0.50501 0.0
C848 C 0.82044 0.42346 0.70135 0.0
C849 C 0.82437 0.40335 0.57554 0.0
C850 C 0.82503 0.44295 0.73832 0.0
C851 C 0.83462 0.46166 0.68706 0.0
C852 C 0.82509 0.4226 0.61228 0.0
C853 C 0.83781 0.45987 0.59689 0.0
C854 C 0.82197 0.3993 0.48469 0.0
C855 C 0.83247 0.3755 0.59621 0.0
N856 N 0.83321 0.44068 0.5624 0.0
N857 N 0.82907 0.39106 0.62868 0.0
H858 H 0.36433 0.84135 0.72139 0.0
H859 H 0.47121 0.84473 0.81053 0.0
H860 H 0.37883 0.82677 0.97947 0.0
H861 H 0.44089 0.82641 0.55528 0.0
H862 H 0.43688 0.83636 0.87538 0.0
H863 H 0.3911 0.83399 0.65791 0.0
C864 C 0.37277 0.8361 0.76434 0.0
C865 C 0.36949 0.83486 0.85582 0.0
C866 C 0.43765 0.83368 0.80552 0.0
C867 C 0.40046 0.82699 0.7842 0.0
C868 C 0.45724 0.83849 0.76854 0.0
C869 C 0.45896 0.83649 0.67731 0.0
C870 C 0.41985 0.82738 0.75049 0.0
C871 C 0.44032 0.82827 0.62591 0.0
C872 C 0.38804 0.83189 0.72816 0.0
C873 C 0.38086 0.82796 0.90856 0.0
N874 N 0.42165 0.8245 0.66286 0.0
N875 N 0.39622 0.82479 0.87226 0.0
H876 H 0.62322 0.46997 0.97624 0.0
H877 H 0.51698 0.36604 0.8854 0.0
H878 H 0.60873 0.44139 0.71724 0.0
H879 H 0.54699 0.37839 0.14135 0.0
H880 H 0.55137 0.39191 0.82079 0.0
H881 H 0.59695 0.43552 0.03918 0.0
C882 C 0.61489 0.45632 0.93294 0.0
C883 C 0.61799 0.4586 0.8414 0.0
C884 C 0.55054 0.38856 0.89076 0.0
C885 C 0.58758 0.41935 0.91245 0.0
C886 C 0.53091 0.37381 0.92762 0.0
C887 C 0.52906 0.37026 0.01897 0.0
C888 C 0.56826 0.40019 0.94602 0.0
C889 C 0.54765 0.3807 0.07062 0.0
C890 C 0.59991 0.43665 0.96882 0.0
C891 C 0.60681 0.44037 0.78821 0.0
N892 N 0.56637 0.3956 0.03377 0.0
N893 N 0.5917 0.42163 0.82427 0.0
H894 H 0.16514 0.54709 0.31154 0.0
H895 H 0.14226 0.62196 0.14446 0.0
H896 H 0.14134 0.51835 0.05652 0.0
H897 H 0.1614 0.60968 0.89162 0.0
H898 H 0.15001 0.5958 0.21137 0.0
H899 H 0.17229 0.58145 0.25215 0.0
C900 C 0.16187 0.54806 0.2425 0.0
C901 C 0.1522 0.52968 0.18927 0.0
C902 C 0.15319 0.59935 0.1418 0.0
C903 C 0.16008 0.56889 0.12177 0.0
C904 C 0.14865 0.61418 0.10356 0.0
C905 C 0.15114 0.61795 0.01244 0.0
C906 C 0.15985 0.58792 0.08808 0.0
C907 C 0.15933 0.60733 0.96225 0.0
C908 C 0.16575 0.56766 0.2091 0.0
C909 C 0.14846 0.53202 0.10023 0.0
N910 N 0.16286 0.59238 1.00036 0.0
N911 N 0.15222 0.55125 0.06943 0.0
loop_
_geom_bond_atom_site_label_1
_geom_bond_atom_site_label_2
_geom_bond_distance
_geom_bond_site_symmetry_2
_ccdc_geom_bond_type
Fe0 O2 1.918 . S
Fe0 O5 1.997 . S
Fe0 O6 2.002 . S
Fe0 O11 1.976 1_554 S
Fe0 O14 1.996 . S
Fe1 O2 1.918 1_556 S
Fe1 O9 1.997 1_556 S
Fe1 O12 1.996 . S
Fe1 O16 1.976 . S
Fe1 O19 2.002 . S
O2 Fe0 1.918 . S
O2 Fe1 1.918 1_554 S
O2 Fe3 1.918 . S
Fe3 O2 1.918 . S
Fe3 O4 2.002 . S
Fe3 O13 1.975 1_554 S
Fe3 O17 1.996 1_554 S
Fe3 O20 1.997 . S
O4 Fe3 2.002 . S
O4 C21 1.295 . S
O5 Fe0 1.997 . S
O5 C21 1.235 . S
O6 Fe0 2.002 . S
O6 C7 1.295 . S
C7 O6 1.295 . S
C7 O9 1.235 . S
C8 O13 1.286 1_554 S
C8 O14 1.255 . S
O9 Fe1 1.997 1_554 S
O9 C7 1.235 . S
C10 O16 1.287 . S
C10 O17 1.255 . S
O11 Fe0 1.976 1_556 S
O11 C18 1.287 . S
O12 Fe1 1.996 . S
O12 C18 1.255 . S
O13 Fe3 1.975 1_556 S
O13 C8 1.286 1_556 S
O14 Fe0 1.996 . S
O14 C8 1.255 . S
C15 O19 1.295 1_554 S
C15 O20 1.235 . S
O16 Fe1 1.976 . S
O16 C10 1.287 . S
O17 Fe3 1.996 1_556 S
O17 C10 1.255 . S
C18 O11 1.287 . S
C18 O12 1.255 . S
O19 Fe1 2.002 . S
O19 C15 1.295 1_556 S
O20 Fe3 1.997 . S
O20 C15 1.235 . S
C21 O4 1.295 . S
C21 O5 1.235 . S
Fe22 O24 1.918 . S
Fe22 O27 1.997 . S
Fe22 O28 2.002 . S
Fe22 O33 1.976 . S
Fe22 O36 1.996 . S
Fe23 O24 1.918 . S
Fe23 O31 1.997 . S
Fe23 O34 1.996 . S
Fe23 O38 1.976 . S
Fe23 O41 2.002 . S
O24 Fe22 1.918 . S
O24 Fe23 1.918 . S
O24 Fe25 1.918 . S
Fe25 O24 1.918 . S
Fe25 O26 2.002 . S
Fe25 O35 1.976 . S
Fe25 O39 1.996 . S
Fe25 O42 1.997 . S
O26 Fe25 2.002 . S
O26 C43 1.295 . S
O27 Fe22 1.997 . S
O27 C43 1.235 . S
O28 Fe22 2.002 . S
O28 C29 1.295 . S
C29 O28 1.295 . S
C29 O31 1.235 . S
C30 O35 1.287 . S
C30 O36 1.255 . S
O31 Fe23 1.997 . S
O31 C29 1.235 . S
C32 O38 1.287 . S
C32 O39 1.255 . S
O33 Fe22 1.976 . S
O33 C40 1.287 . S
O34 Fe23 1.996 . S
O34 C40 1.255 . S
O35 Fe25 1.976 . S
O35 C30 1.287 . S
O36 Fe22 1.996 . S
O36 C30 1.255 . S
C37 O41 1.295 . S
C37 O42 1.235 . S
O38 Fe23 1.976 . S
O38 C32 1.287 . S
O39 Fe25 1.996 . S
O39 C32 1.255 . S
C40 O33 1.287 . S
C40 O34 1.255 . S
O41 Fe23 2.002 . S
O41 C37 1.295 . S
O42 Fe25 1.997 . S
O42 C37 1.235 . S
C43 O26 1.295 . S
C43 O27 1.235 . S
Fe44 O46 1.918 . S
Fe44 O49 1.997 . S
Fe44 O50 2.002 . S
Fe44 O55 1.976 . S
Fe44 O58 1.996 . S
Fe45 O46 1.918 . S
Fe45 O53 1.997 . S
Fe45 O56 1.996 . S
Fe45 O60 1.976 . S
Fe45 O63 2.002 . S
O46 Fe44 1.918 . S
O46 Fe45 1.918 . S
O46 Fe47 1.918 . S
Fe47 O46 1.918 . S
Fe47 O48 2.002 . S
Fe47 O57 1.976 . S
Fe47 O61 1.996 . S
Fe47 O64 1.997 . S
O48 Fe47 2.002 . S
O48 C65 1.295 . S
O49 Fe44 1.997 . S
O49 C65 1.235 . S
O50 Fe44 2.002 . S
O50 C51 1.295 . S
C51 O50 1.295 . S
C51 O53 1.235 . S
C52 O57 1.287 . S
C52 O58 1.255 . S
O53 Fe45 1.997 . S
O53 C51 1.235 . S
C54 O60 1.287 . S
C54 O61 1.255 . S
O55 Fe44 1.976 . S
O55 C62 1.287 . S
O56 Fe45 1.996 . S
O56 C62 1.255 . S
O57 Fe47 1.976 . S
O57 C52 1.287 . S
O58 Fe44 1.996 . S
O58 C52 1.255 . S
C59 O63 1.295 . S
C59 O64 1.235 . S
O60 Fe45 1.976 . S
O60 C54 1.287 . S
O61 Fe47 1.996 . S
O61 C54 1.255 . S
C62 O55 1.287 . S
C62 O56 1.255 . S
O63 Fe45 2.002 . S
O63 C59 1.295 . S
O64 Fe47 1.997 . S
O64 C59 1.235 . S
C65 O48 1.295 . S
C65 O49 1.235 . S
Fe66 O68 1.918 . S
Fe66 O71 1.997 . S
Fe66 O72 2.002 . S
Fe66 O77 1.976 . S
Fe66 O80 1.996 . S
Fe67 O68 1.918 . S
Fe67 O75 1.997 . S
Fe67 O78 1.996 . S
Fe67 O82 1.976 . S
Fe67 O85 2.002 . S
O68 Fe66 1.918 . S
O68 Fe67 1.918 . S
O68 Fe69 1.918 . S
Fe69 O68 1.918 . S
Fe69 O70 2.002 . S
Fe69 O79 1.976 . S
Fe69 O83 1.996 . S
Fe69 O86 1.997 . S
O70 Fe69 2.002 . S
O70 C87 1.295 . S
O71 Fe66 1.997 . S
O71 C87 1.235 . S
O72 Fe66 2.002 . S
O72 C73 1.295 . S
C73 O72 1.295 . S
C73 O75 1.235 . S
C74 O79 1.287 . S
C74 O80 1.255 . S
O75 Fe67 1.997 . S
O75 C73 1.235 . S
C76 O82 1.287 . S
C76 O83 1.255 . S
O77 Fe66 1.976 . S
O77 C84 1.287 . S
O78 Fe67 1.996 . S
O78 C84 1.255 . S
O79 Fe69 1.976 . S
O79 C74 1.287 . S
O80 Fe66 1.996 . S
O80 C74 1.255 . S
C81 O85 1.295 . S
C81 O86 1.235 . S
O82 Fe67 1.976 . S
O82 C76 1.287 . S
O83 Fe69 1.996 . S
O83 C76 1.255 . S
C84 O77 1.287 . S
C84 O78 1.255 . S
O85 Fe67 2.002 . S
O85 C81 1.295 . S
O86 Fe69 1.997 . S
O86 C81 1.235 . S
C87 O70 1.295 . S
C87 O71 1.235 . S
Fe88 O90 1.918 . S
Fe88 O93 1.997 . S
Fe88 O94 2.002 . S
Fe88 O99 1.976 . S
Fe88 O102 1.996 . S
Fe89 O90 1.918 . S
Fe89 O97 1.997 . S
Fe89 O100 1.996 . S
Fe89 O104 1.976 . S
Fe89 O107 2.002 . S
O90 Fe88 1.918 . S
O90 Fe89 1.918 . S
O90 Fe91 1.918 . S
Fe91 O90 1.918 . S
Fe91 O92 2.002 . S
Fe91 O101 1.976 . S
Fe91 O105 1.996 . S
Fe91 O108 1.997 . S
O92 Fe91 2.002 . S
O92 C109 1.295 . S
O93 Fe88 1.997 . S
O93 C109 1.235 . S
O94 Fe88 2.002 . S
O94 C95 1.295 . S
C95 O94 1.295 . S
C95 O97 1.235 . S
C96 O101 1.287 . S
C96 O102 1.255 . S
O97 Fe89 1.997 . S
O97 C95 1.235 . S
C98 O104 1.287 . S
C98 O105 1.255 . S
O99 Fe88 1.976 . S
O99 C106 1.287 . S
O100 Fe89 1.996 . S
O100 C106 1.255 . S
O101 Fe91 1.976 . S
O101 C96 1.287 . S
O102 Fe88 1.996 . S
O102 C96 1.255 . S
C103 O107 1.295 . S
C103 O108 1.235 . S
O104 Fe89 1.976 . S
O104 C98 1.287 . S
O105 Fe91 1.996 . S
O105 C98 1.255 . S
C106 O99 1.287 . S
C106 O100 1.255 . S
O107 Fe89 2.002 . S
O107 C103 1.295 . S
O108 Fe91 1.997 . S
O108 C103 1.235 . S
C109 O92 1.295 . S
C109 O93 1.235 . S
Fe110 O112 1.918 . S
Fe110 O115 1.997 . S
Fe110 O116 2.002 . S
Fe110 O121 1.976 . S
Fe110 O124 1.996 . S
Fe111 O112 1.918 . S
Fe111 O119 1.997 1_556 S
Fe111 O122 1.996 . S
Fe111 O126 1.976 . S
Fe111 O129 2.002 . S
O112 Fe110 1.918 . S
O112 Fe111 1.918 . S
O112 Fe113 1.918 . S
Fe113 O112 1.918 . S
Fe113 O114 2.002 . S
Fe113 O123 1.976 . S
Fe113 O127 1.996 . S
Fe113 O130 1.997 . S
O114 Fe113 2.002 . S
O114 C131 1.295 . S
O115 Fe110 1.997 . S
O115 C131 1.235 . S
O116 Fe110 2.002 . S
O116 C117 1.295 1_556 S
C117 O116 1.295 1_554 S
C117 O119 1.235 . S
C118 O123 1.287 . S
C118 O124 1.255 . S
O119 Fe111 1.997 1_554 S
O119 C117 1.235 . S
C120 O126 1.287 . S
C120 O127 1.255 . S
O121 Fe110 1.976 . S
O121 C128 1.287 . S
O122 Fe111 1.996 . S
O122 C128 1.255 . S
O123 Fe113 1.976 . S
O123 C118 1.287 . S
O124 Fe110 1.996 . S
O124 C118 1.255 . S
C125 O129 1.295 . S
C125 O130 1.235 . S
O126 Fe111 1.976 . S
O126 C120 1.287 . S
O127 Fe113 1.996 . S
O127 C120 1.255 . S
C128 O121 1.287 . S
C128 O122 1.255 . S
O129 Fe111 2.002 . S
O129 C125 1.295 . S
O130 Fe113 1.997 . S
O130 C125 1.235 . S
C131 O114 1.295 . S
C131 O115 1.235 . S
Fe132 O134 1.918 . S
Fe132 O137 1.997 . S
Fe132 O138 2.002 . S
Fe132 O143 1.976 . S
Fe132 O146 1.996 . S
Fe133 O134 1.918 . S
Fe133 O141 1.997 . S
Fe133 O144 1.996 . S
Fe133 O148 1.976 . S
Fe133 O151 2.002 . S
O134 Fe132 1.918 . S
O134 Fe133 1.918 . S
O134 Fe135 1.918 . S
Fe135 O134 1.918 . S
Fe135 O136 2.002 . S
Fe135 O145 1.976 1_556 S
Fe135 O149 1.996 . S
Fe135 O152 1.997 . S
O136 Fe135 2.002 . S
O136 C153 1.295 . S
O137 Fe132 1.997 . S
O137 C153 1.235 . S
O138 Fe132 2.002 . S
O138 C139 1.295 . S
C139 O138 1.295 . S
C139 O141 1.235 . S
C140 O145 1.287 . S
C140 O146 1.255 1_554 S
O141 Fe133 1.997 . S
O141 C139 1.235 . S
C142 O148 1.287 . S
C142 O149 1.255 . S
O143 Fe132 1.976 . S
O143 C150 1.287 . S
O144 Fe133 1.996 . S
O144 C150 1.255 . S
O145 Fe135 1.976 1_554 S
O145 C140 1.287 . S
O146 Fe132 1.996 . S
O146 C140 1.255 1_556 S
C147 O151 1.295 . S
C147 O152 1.235 . S
O148 Fe133 1.976 . S
O148 C142 1.287 . S
O149 Fe135 1.996 . S
O149 C142 1.255 . S
C150 O143 1.287 . S
C150 O144 1.255 . S
O151 Fe133 2.002 . S
O151 C147 1.295 . S
O152 Fe135 1.997 . S
O152 C147 1.235 . S
C153 O136 1.295 . S
C153 O137 1.235 . S
Fe154 O156 1.918 . S
Fe154 O159 1.995 1_554 S
Fe154 O160 1.996 1_554 S
Fe154 O165 1.977 . S
Fe154 O168 2.002 . S
Fe155 O156 1.918 1_556 S
Fe155 O163 1.997 . S
Fe155 O166 1.996 . S
Fe155 O170 1.976 1_556 S
Fe155 O173 2.002 . S
O156 Fe154 1.918 . S
O156 Fe155 1.918 1_554 S
O156 Fe157 1.918 . S
Fe157 O156 1.918 . S
Fe157 O158 2.002 . S
Fe157 O167 1.976 . S
Fe157 O171 1.996 . S
Fe157 O174 1.997 1_554 S
O158 Fe157 2.002 . S
O158 C175 1.295 1_554 S
O159 Fe154 1.995 1_556 S
O159 C175 1.235 . S
O160 Fe154 1.996 1_556 S
O160 C161 1.295 . S
C161 O160 1.295 . S
C161 O163 1.235 . S
C162 O167 1.287 . S
C162 O168 1.255 . S
O163 Fe155 1.997 . S
O163 C161 1.235 . S
C164 O170 1.287 . S
C164 O171 1.255 . S
O165 Fe154 1.977 . S
O165 C172 1.287 . S
O166 Fe155 1.996 . S
O166 C172 1.255 1_556 S
O167 Fe157 1.976 . S
O167 C162 1.287 . S
O168 Fe154 2.002 . S
O168 C162 1.255 . S
C169 O173 1.295 . S
C169 O174 1.235 . S
O170 Fe155 1.976 1_554 S
O170 C164 1.287 . S
O171 Fe157 1.996 . S
O171 C164 1.255 . S
C172 O165 1.287 . S
C172 O166 1.255 1_554 S
O173 Fe155 2.002 . S
O173 C169 1.295 . S
O174 Fe157 1.997 1_556 S
O174 C169 1.235 . S
C175 O158 1.295 1_556 S
C175 O159 1.235 . S
Fe176 O178 1.918 . S
Fe176 O181 1.997 . S
Fe176 O182 2.002 . S
Fe176 O187 1.976 . S
Fe176 O190 1.996 . S
Fe177 O178 1.918 . S
Fe177 O185 1.996 . S
Fe177 O188 1.996 . S
Fe177 O192 1.976 . S
Fe177 O195 2.002 . S
O178 Fe176 1.918 . S
O178 Fe177 1.918 . S
O178 Fe179 1.918 . S
Fe179 O178 1.918 . S
Fe179 O180 2.002 . S
Fe179 O189 1.976 . S
Fe179 O193 1.996 . S
Fe179 O196 1.997 . S
O180 Fe179 2.002 . S
O180 C197 1.295 . S
O181 Fe176 1.997 . S
O181 C197 1.235 . S
O182 Fe176 2.002 . S
O182 C183 1.295 1_554 S
C183 O182 1.295 1_556 S
C183 O185 1.236 1_556 S
C184 O189 1.287 . S
C184 O190 1.255 . S
O185 Fe177 1.996 . S
O185 C183 1.236 1_554 S
C186 O192 1.287 . S
C186 O193 1.255 . S
O187 Fe176 1.976 . S
O187 C194 1.287 . S
O188 Fe177 1.996 . S
O188 C194 1.255 . S
O189 Fe179 1.976 . S
O189 C184 1.287 . S
O190 Fe176 1.996 . S
O190 C184 1.255 . S
C191 O195 1.295 . S
C191 O196 1.235 . S
O192 Fe177 1.976 . S
O192 C186 1.287 . S
O193 Fe179 1.996 . S
O193 C186 1.255 . S
C194 O187 1.287 . S
C194 O188 1.255 . S
O195 Fe177 2.002 . S
O195 C191 1.295 . S
O196 Fe179 1.997 . S
O196 C191 1.235 . S
C197 O180 1.295 . S
C197 O181 1.235 . S
Fe198 O200 1.918 . S
Fe198 O203 1.997 . S
Fe198 O204 2.002 . S
Fe198 O209 1.976 . S
Fe198 O212 1.996 . S
Fe199 O200 1.918 . S
Fe199 O207 1.997 . S
Fe199 O210 1.996 . S
Fe199 O214 1.976 . S
Fe199 O217 2.002 . S
O200 Fe198 1.918 . S
O200 Fe199 1.918 . S
O200 Fe201 1.918 . S
Fe201 O200 1.918 . S
Fe201 O202 2.002 . S
Fe201 O211 1.976 . S
Fe201 O215 1.996 . S
Fe201 O218 1.997 . S
O202 Fe201 2.002 . S
O202 C219 1.295 . S
O203 Fe198 1.997 . S
O203 C219 1.235 . S
O204 Fe198 2.002 . S
O204 C205 1.295 . S
C205 O204 1.295 . S
C205 O207 1.235 . S
C206 O211 1.287 . S
C206 O212 1.255 . S
O207 Fe199 1.997 . S
O207 C205 1.235 . S
C208 O214 1.287 . S
C208 O215 1.255 . S
O209 Fe198 1.976 . S
O209 C216 1.287 . S
O210 Fe199 1.996 . S
O210 C216 1.255 . S
O211 Fe201 1.976 . S
O211 C206 1.287 . S
O212 Fe198 1.996 . S
O212 C206 1.255 . S
C213 O217 1.295 . S
C213 O218 1.235 . S
O214 Fe199 1.976 . S
O214 C208 1.287 . S
O215 Fe201 1.996 . S
O215 C208 1.255 . S
C216 O209 1.287 . S
C216 O210 1.255 . S
O217 Fe199 2.002 . S
O217 C213 1.295 . S
O218 Fe201 1.997 . S
O218 C213 1.235 . S
C219 O202 1.295 . S
C219 O203 1.235 . S
Fe220 O222 1.918 . S
Fe220 O225 1.997 . S
Fe220 O226 2.002 . S
Fe220 O231 1.976 . S
Fe220 O234 1.996 . S
Fe221 O222 1.918 . S
Fe221 O229 1.997 . S
Fe221 O232 1.996 . S
Fe221 O236 1.976 . S
Fe221 O239 2.002 . S
O222 Fe220 1.918 . S
O222 Fe221 1.918 . S
O222 Fe223 1.918 . S
Fe223 O222 1.918 . S
Fe223 O224 2.002 . S
Fe223 O233 1.976 . S
Fe223 O237 1.996 . S
Fe223 O240 1.997 . S
O224 Fe223 2.002 . S
O224 C241 1.295 . S
O225 Fe220 1.997 . S
O225 C241 1.235 . S
O226 Fe220 2.002 . S
O226 C227 1.295 . S
C227 O226 1.295 . S
C227 O229 1.235 . S
C228 O233 1.287 . S
C228 O234 1.255 . S
O229 Fe221 1.997 . S
O229 C227 1.235 . S
C230 O236 1.287 . S
C230 O237 1.255 . S
O231 Fe220 1.976 . S
O231 C238 1.287 . S
O232 Fe221 1.996 . S
O232 C238 1.255 . S
O233 Fe223 1.976 . S
O233 C228 1.287 . S
O234 Fe220 1.996 . S
O234 C228 1.255 . S
C235 O239 1.295 . S
C235 O240 1.235 . S
O236 Fe221 1.976 . S
O236 C230 1.287 . S
O237 Fe223 1.996 . S
O237 C230 1.255 . S
C238 O231 1.287 . S
C238 O232 1.255 . S
O239 Fe221 2.002 . S
O239 C235 1.295 . S
O240 Fe223 1.997 . S
O240 C235 1.235 . S
C241 O224 1.295 . S
C241 O225 1.235 . S
Fe242 O244 1.918 . S
Fe242 O247 1.997 . S
Fe242 O248 2.002 . S
Fe242 O253 1.976 . S
Fe242 O256 1.996 . S
Fe243 O244 1.918 . S
Fe243 O251 1.997 . S
Fe243 O254 1.996 . S
Fe243 O258 1.976 . S
Fe243 O261 2.002 . S
O244 Fe242 1.918 . S
O244 Fe243 1.918 . S
O244 Fe245 1.918 . S
Fe245 O244 1.918 . S
Fe245 O246 2.002 . S
Fe245 O255 1.976 . S
Fe245 O259 1.996 . S
Fe245 O262 1.997 . S
O246 Fe245 2.002 . S
O246 C263 1.295 . S
O247 Fe242 1.997 . S
O247 C263 1.235 . S
O248 Fe242 2.002 . S
O248 C249 1.295 . S
C249 O248 1.295 . S
C249 O251 1.235 . S
C250 O255 1.287 . S
C250 O256 1.255 . S
O251 Fe243 1.997 . S
O251 C249 1.235 . S
C252 O258 1.287 . S
C252 O259 1.255 . S
O253 Fe242 1.976 . S
O253 C260 1.287 . S
O254 Fe243 1.996 . S
O254 C260 1.255 . S
O255 Fe245 1.976 . S
O255 C250 1.287 . S
O256 Fe242 1.996 . S
O256 C250 1.255 . S
C257 O261 1.295 . S
C257 O262 1.235 . S
O258 Fe243 1.976 . S
O258 C252 1.287 . S
O259 Fe245 1.996 . S
O259 C252 1.255 . S
C260 O253 1.287 . S
C260 O254 1.255 . S
O261 Fe243 2.002 . S
O261 C257 1.295 . S
O262 Fe245 1.997 . S
O262 C257 1.235 . S
C263 O246 1.295 . S
C263 O247 1.235 . S
H264 C270 0.930 . S
H265 C274 0.930 . S
H266 C279 0.929 . S
H267 C277 0.929 . S
H268 C272 0.929 . S
H269 C278 0.929 . S
C270 H264 0.930 . S
C270 C271 1.367 . S
C270 C278 1.378 . S
C271 C270 1.367 . S
C271 C279 1.433 . S
C272 H268 0.929 . S
C272 C274 1.378 . S
C272 C276 1.350 . S
C273 C276 1.463 . S
C273 C278 1.350 . S
C273 N281 1.427 . S
C274 H265 0.930 . S
C274 C272 1.378 . S
C274 C275 1.367 . S
C275 C274 1.367 . S
C275 C277 1.433 . S
C276 C272 1.350 . S
C276 C273 1.463 . S
C276 N280 1.427 . S
C277 H267 0.929 . S
C277 C275 1.433 . S
C277 N280 1.384 . S
C278 H269 0.929 . S
C278 C270 1.378 . S
C278 C273 1.350 . S
C279 H266 0.929 . S
C279 C271 1.433 . S
C279 N281 1.384 . S
N280 C276 1.427 . S
N280 C277 1.384 . S
N281 C273 1.427 . S
N281 C279 1.384 . S
H282 C288 0.930 . S
H283 C292 0.930 . S
H284 C297 0.929 . S
H285 C295 0.929 . S
H286 C290 0.929 . S
H287 C296 0.929 . S
C288 H282 0.930 . S
C288 C289 1.367 . S
C288 C296 1.378 . S
C289 C288 1.367 . S
C289 C297 1.433 . S
C290 H286 0.929 . S
C290 C292 1.378 . S
C290 C294 1.350 . S
C291 C294 1.463 . S
C291 C296 1.350 . S
C291 N299 1.427 . S
C292 H283 0.930 . S
C292 C290 1.378 . S
C292 C293 1.367 . S
C293 C292 1.367 . S
C293 C295 1.433 . S
C294 C290 1.350 . S
C294 C291 1.463 . S
C294 N298 1.427 . S
C295 H285 0.929 . S
C295 C293 1.433 . S
C295 N298 1.384 . S
C296 H287 0.929 . S
C296 C288 1.378 . S
C296 C291 1.350 . S
C297 H284 0.929 . S
C297 C289 1.433 . S
C297 N299 1.384 . S
N298 C294 1.427 . S
N298 C295 1.384 . S
N299 C291 1.427 . S
N299 C297 1.384 . S
H300 C306 0.930 . S
H301 C310 0.930 . S
H302 C315 0.929 . S
H303 C313 0.929 . S
H304 C308 0.929 . S
H305 C314 0.929 . S
C306 H300 0.930 . S
C306 C307 1.367 . S
C306 C314 1.378 . S
C307 C306 1.367 . S
C307 C315 1.433 . S
C308 H304 0.929 . S
C308 C310 1.378 1_556 S
C308 C312 1.350 . S
C309 C312 1.463 . S
C309 C314 1.350 . S
C309 N317 1.427 . S
C310 H301 0.930 . S
C310 C308 1.378 1_554 S
C310 C311 1.367 . S
C311 C310 1.367 . S
C311 C313 1.433 . S
C312 C308 1.350 . S
C312 C309 1.463 . S
C312 N316 1.427 . S
C313 H303 0.929 . S
C313 C311 1.433 . S
C313 N316 1.384 1_554 S
C314 H305 0.929 . S
C314 C306 1.378 . S
C314 C309 1.350 . S
C315 H302 0.929 . S
C315 C307 1.433 . S
C315 N317 1.384 . S
N316 C312 1.427 . S
N316 C313 1.384 1_556 S
N317 C309 1.427 . S
N317 C315 1.384 . S
H318 C324 0.930 . S
H319 C328 0.930 . S
H320 C333 0.929 . S
H321 C331 0.929 . S
H322 C326 0.929 . S
H323 C332 0.929 . S
C324 H318 0.930 . S
C324 C325 1.367 . S
C324 C332 1.378 . S
C325 C324 1.367 . S
C325 C333 1.433 . S
C326 H322 0.929 . S
C326 C328 1.378 . S
C326 C330 1.350 . S
C327 C330 1.463 1_554 S
C327 C332 1.350 . S
C327 N335 1.427 . S
C328 H319 0.930 . S
C328 C326 1.378 . S
C328 C329 1.367 . S
C329 C328 1.367 . S
C329 C331 1.433 . S
C330 C326 1.350 . S
C330 C327 1.463 1_556 S
C330 N334 1.427 . S
C331 H321 0.929 . S
C331 C329 1.433 . S
C331 N334 1.384 . S
C332 H323 0.929 . S
C332 C324 1.378 . S
C332 C327 1.350 . S
C333 H320 0.929 . S
C333 C325 1.433 . S
C333 N335 1.384 . S
N334 C330 1.427 . S
N334 C331 1.384 . S
N335 C327 1.427 . S
N335 C333 1.384 . S
H336 C342 0.930 1_556 S
H337 C346 0.930 . S
H338 C351 0.929 1_556 S
H339 C349 0.929 . S
H340 C344 0.929 . S
H341 C350 0.929 . S
C342 H336 0.930 1_554 S
C342 C343 1.367 1_554 S
C342 C350 1.378 . S
C343 C342 1.367 1_556 S
C343 C351 1.433 1_556 S
C344 H340 0.929 . S
C344 C346 1.378 . S
C344 C348 1.350 . S
C345 C348 1.463 . S
C345 C350 1.350 . S
C345 N353 1.427 . S
C346 H337 0.930 . S
C346 C344 1.378 . S
C346 C347 1.367 . S
C347 C346 1.367 . S
C347 C349 1.433 . S
C348 C344 1.350 . S
C348 C345 1.463 . S
C348 N352 1.427 . S
C349 H339 0.929 . S
C349 C347 1.433 . S
C349 N352 1.384 . S
C350 H341 0.929 . S
C350 C342 1.378 . S
C350 C345 1.350 . S
C351 H338 0.929 1_554 S
C351 C343 1.433 1_554 S
C351 N353 1.384 . S
N352 C348 1.427 . S
N352 C349 1.384 . S
N353 C345 1.427 . S
N353 C351 1.384 . S
H354 C360 0.930 . S
H355 C364 0.930 . S
H356 C369 0.929 . S
H357 C367 0.929 . S
H358 C362 0.929 . S
H359 C368 0.929 . S
C360 H354 0.930 . S
C360 C361 1.367 . S
C360 C368 1.378 . S
C361 C360 1.367 . S
C361 C369 1.433 . S
C362 H358 0.929 . S
C362 C364 1.378 . S
C362 C366 1.350 . S
C363 C366 1.463 . S
C363 C368 1.350 . S
C363 N371 1.427 . S
C364 H355 0.930 . S
C364 C362 1.378 . S
C364 C365 1.367 . S
C365 C364 1.367 . S
C365 C367 1.433 . S
C366 C362 1.350 . S
C366 C363 1.463 . S
C366 N370 1.427 . S
C367 H357 0.929 . S
C367 C365 1.433 . S
C367 N370 1.384 . S
C368 H359 0.929 . S
C368 C360 1.378 . S
C368 C363 1.350 . S
C369 H356 0.929 . S
C369 C361 1.433 . S
C369 N371 1.384 . S
N370 C366 1.427 . S
N370 C367 1.384 . S
N371 C363 1.427 . S
N371 C369 1.384 . S
H372 C378 0.930 . S
H373 C382 0.930 . S
H374 C387 0.929 . S
H375 C385 0.929 . S
H376 C380 0.929 . S
H377 C386 0.929 . S
C378 H372 0.930 . S
C378 C379 1.367 . S
C378 C386 1.378 . S
C379 C378 1.367 . S
C379 C387 1.433 . S
C380 H376 0.929 . S
C380 C382 1.378 . S
C380 C384 1.350 . S
C381 C384 1.463 . S
C381 C386 1.350 . S
C381 N389 1.427 . S
C382 H373 0.930 . S
C382 C380 1.378 . S
C382 C383 1.367 . S
C383 C382 1.367 . S
C383 C385 1.433 . S
C384 C380 1.350 . S
C384 C381 1.463 . S
C384 N388 1.427 . S
C385 H375 0.929 . S
C385 C383 1.433 . S
C385 N388 1.384 . S
C386 H377 0.929 . S
C386 C378 1.378 . S
C386 C381 1.350 . S
C387 H374 0.929 . S
C387 C379 1.433 . S
C387 N389 1.384 . S
N388 C384 1.427 . S
N388 C385 1.384 . S
N389 C381 1.427 . S
N389 C387 1.384 . S
H390 C396 0.930 . S
H391 C400 0.930 . S
H392 C405 0.929 . S
H393 C403 0.929 . S
H394 C398 0.929 . S
H395 C404 0.929 . S
C396 H390 0.930 . S
C396 C397 1.367 . S
C396 C404 1.378 . S
C397 C396 1.367 . S
C397 C405 1.433 . S
C398 H394 0.929 . S
C398 C400 1.378 . S
C398 C402 1.350 . S
C399 C402 1.463 . S
C399 C404 1.350 . S
C399 N407 1.427 . S
C400 H391 0.930 . S
C400 C398 1.378 . S
C400 C401 1.367 . S
C401 C400 1.367 . S
C401 C403 1.433 . S
C402 C398 1.350 . S
C402 C399 1.463 . S
C402 N406 1.427 . S
C403 H393 0.929 . S
C403 C401 1.433 . S
C403 N406 1.384 . S
C404 H395 0.929 . S
C404 C396 1.378 . S
C404 C399 1.350 . S
C405 H392 0.929 . S
C405 C397 1.433 . S
C405 N407 1.384 . S
N406 C402 1.427 . S
N406 C403 1.384 . S
N407 C399 1.427 . S
N407 C405 1.384 . S
H408 C414 0.930 . S
H409 C418 0.930 . S
H410 C423 0.929 . S
H411 C421 0.929 . S
H412 C416 0.929 . S
H413 C422 0.929 . S
C414 H408 0.930 . S
C414 C415 1.367 . S
C414 C422 1.378 . S
C415 C414 1.367 . S
C415 C423 1.433 . S
C416 H412 0.929 . S
C416 C418 1.378 . S
C416 C420 1.350 . S
C417 C420 1.463 . S
C417 C422 1.350 . S
C417 N425 1.427 . S
C418 H409 0.930 . S
C418 C416 1.378 . S
C418 C419 1.367 . S
C419 C418 1.367 . S
C419 C421 1.433 . S
C420 C416 1.350 . S
C420 C417 1.463 . S
C420 N424 1.427 . S
C421 H411 0.929 . S
C421 C419 1.433 . S
C421 N424 1.384 . S
C422 H413 0.929 . S
C422 C414 1.378 . S
C422 C417 1.350 . S
C423 H410 0.929 . S
C423 C415 1.433 . S
C423 N425 1.384 . S
N424 C420 1.427 . S
N424 C421 1.384 . S
N425 C417 1.427 . S
N425 C423 1.384 . S
H426 C432 0.930 1_554 S
H427 C436 0.930 . S
H428 C441 0.929 . S
H429 C439 0.929 . S
H430 C434 0.929 . S
H431 C440 0.929 . S
C432 H426 0.930 1_556 S
C432 C433 1.367 1_556 S
C432 C440 1.378 . S
C433 C432 1.367 1_554 S
C433 C441 1.433 . S
C434 H430 0.929 . S
C434 C436 1.378 . S
C434 C438 1.350 . S
C435 C438 1.463 . S
C435 C440 1.350 . S
C435 N443 1.427 . S
C436 H427 0.930 . S
C436 C434 1.378 . S
C436 C437 1.367 . S
C437 C436 1.367 . S
C437 C439 1.433 . S
C438 C434 1.350 . S
C438 C435 1.463 . S
C438 N442 1.427 . S
C439 H429 0.929 . S
C439 C437 1.433 . S
C439 N442 1.384 . S
C440 H431 0.929 . S
C440 C432 1.378 . S
C440 C435 1.350 . S
C441 H428 0.929 . S
C441 C433 1.433 . S
C441 N443 1.384 1_554 S
N442 C438 1.427 . S
N442 C439 1.384 . S
N443 C435 1.427 . S
N443 C441 1.384 1_556 S
H444 C450 0.930 . S
H445 C454 0.930 . S
H446 C459 0.929 . S
H447 C457 0.929 . S
H448 C452 0.929 . S
H449 C458 0.929 . S
C450 H444 0.930 . S
C450 C451 1.367 . S
C450 C458 1.378 . S
C451 C450 1.367 . S
C451 C459 1.433 . S
C452 H448 0.929 . S
C452 C454 1.378 . S
C452 C456 1.350 . S
C453 C456 1.463 1_556 S
C453 C458 1.350 . S
C453 N461 1.427 . S
C454 H445 0.930 . S
C454 C452 1.378 . S
C454 C455 1.367 . S
C455 C454 1.367 . S
C455 C457 1.433 . S
C456 C452 1.350 . S
C456 C453 1.463 1_554 S
C456 N460 1.427 . S
C457 H447 0.929 . S
C457 C455 1.433 . S
C457 N460 1.384 . S
C458 H449 0.929 . S
C458 C450 1.378 . S
C458 C453 1.350 . S
C459 H446 0.929 . S
C459 C451 1.433 . S
C459 N461 1.384 . S
N460 C456 1.427 . S
N460 C457 1.384 . S
N461 C453 1.427 . S
N461 C459 1.384 . S
H462 C468 0.930 . S
H463 C472 0.930 . S
H464 C477 0.929 . S
H465 C475 0.929 . S
H466 C470 0.929 . S
H467 C476 0.929 . S
C468 H462 0.930 . S
C468 C469 1.367 . S
C468 C476 1.378 . S
C469 C468 1.367 . S
C469 C477 1.433 . S
C470 H466 0.929 . S
C470 C472 1.378 1_554 S
C470 C474 1.350 . S
C471 C474 1.463 . S
C471 C476 1.350 . S
C471 N479 1.427 . S
C472 H463 0.930 . S
C472 C470 1.378 1_556 S
C472 C473 1.367 . S
C473 C472 1.367 . S
C473 C475 1.433 . S
C474 C470 1.350 . S
C474 C471 1.463 . S
C474 N478 1.427 . S
C475 H465 0.929 . S
C475 C473 1.433 . S
C475 N478 1.384 1_556 S
C476 H467 0.929 . S
C476 C468 1.378 . S
C476 C471 1.350 . S
C477 H464 0.929 . S
C477 C469 1.433 . S
C477 N479 1.384 . S
N478 C474 1.427 . S
N478 C475 1.384 1_554 S
N479 C471 1.427 . S
N479 C477 1.384 . S
H480 C486 0.930 . S
H481 C490 0.930 . S
H482 C495 0.929 . S
H483 C493 0.929 . S
H484 C488 0.929 . S
H485 C494 0.929 . S
C486 H480 0.930 . S
C486 C487 1.367 . S
C486 C494 1.378 . S
C487 C486 1.367 . S
C487 C495 1.433 1_554 S
C488 H484 0.929 . S
C488 C490 1.378 . S
C488 C492 1.350 1_556 S
C489 C492 1.463 1_545 S
C489 C494 1.350 . S
C489 N497 1.427 1_554 S
C490 H481 0.930 . S
C490 C488 1.378 . S
C490 C491 1.367 1_556 S
C491 C490 1.367 1_554 S
C491 C493 1.433 . S
C492 C488 1.350 1_554 S
C492 C489 1.463 1_565 S
C492 N496 1.427 . S
C493 H483 0.929 . S
C493 C491 1.433 . S
C493 N496 1.384 . S
C494 H485 0.929 . S
C494 C486 1.378 . S
C494 C489 1.350 . S
C495 H482 0.929 . S
C495 C487 1.433 1_556 S
C495 N497 1.384 . S
N496 C492 1.427 . S
N496 C493 1.384 . S
N497 C489 1.427 1_556 S
N497 C495 1.384 . S
H498 C504 0.930 . S
H499 C508 0.930 . S
H500 C513 0.929 . S
H501 C511 0.929 . S
H502 C506 0.929 . S
H503 C512 0.929 . S
C504 H498 0.930 . S
C504 C505 1.367 . S
C504 C512 1.378 . S
C505 C504 1.367 . S
C505 C513 1.433 . S
C506 H502 0.929 . S
C506 C508 1.378 . S
C506 C510 1.350 . S
C507 C510 1.463 . S
C507 C512 1.350 . S
C507 N515 1.427 . S
C508 H499 0.930 . S
C508 C506 1.378 . S
C508 C509 1.367 . S
C509 C508 1.367 . S
C509 C511 1.433 . S
C510 C506 1.350 . S
C510 C507 1.463 . S
C510 N514 1.427 . S
C511 H501 0.929 . S
C511 C509 1.433 . S
C511 N514 1.384 . S
C512 H503 0.929 . S
C512 C504 1.378 . S
C512 C507 1.350 . S
C513 H500 0.929 . S
C513 C505 1.433 . S
C513 N515 1.384 . S
N514 C510 1.427 . S
N514 C511 1.384 . S
N515 C507 1.427 . S
N515 C513 1.384 . S
H516 C522 0.930 . S
H517 C526 0.930 . S
H518 C531 0.929 . S
H519 C529 0.929 . S
H520 C524 0.929 . S
H521 C530 0.929 . S
C522 H516 0.930 . S
C522 C523 1.367 . S
C522 C530 1.378 . S
C523 C522 1.367 . S
C523 C531 1.433 . S
C524 H520 0.929 . S
C524 C526 1.378 . S
C524 C528 1.350 . S
C525 C528 1.463 1_455 S
C525 C530 1.350 . S
C525 N533 1.427 . S
C526 H517 0.930 . S
C526 C524 1.378 . S
C526 C527 1.367 . S
C527 C526 1.367 . S
C527 C529 1.433 . S
C528 C524 1.350 . S
C528 C525 1.463 1_655 S
C528 N532 1.427 . S
C529 H519 0.929 . S
C529 C527 1.433 . S
C529 N532 1.384 . S
C530 H521 0.929 . S
C530 C522 1.378 . S
C530 C525 1.350 . S
C531 H518 0.929 . S
C531 C523 1.433 . S
C531 N533 1.384 . S
N532 C528 1.427 . S
N532 C529 1.384 . S
N533 C525 1.427 . S
N533 C531 1.384 . S
H534 C540 0.930 . S
H535 C544 0.930 . S
H536 C549 0.929 . S
H537 C547 0.929 . S
H538 C542 0.929 . S
H539 C548 0.929 . S
C540 H534 0.930 . S
C540 C541 1.367 . S
C540 C548 1.378 . S
C541 C540 1.367 . S
C541 C549 1.433 . S
C542 H538 0.929 . S
C542 C544 1.378 . S
C542 C546 1.350 . S
C543 C546 1.463 1_565 S
C543 C548 1.350 . S
C543 N551 1.427 . S
C544 H535 0.930 . S
C544 C542 1.378 . S
C544 C545 1.367 . S
C545 C544 1.367 . S
C545 C547 1.433 . S
C546 C542 1.350 . S
C546 C543 1.463 1_545 S
C546 N550 1.427 . S
C547 H537 0.929 . S
C547 C545 1.433 . S
C547 N550 1.384 . S
C548 H539 0.929 . S
C548 C540 1.378 . S
C548 C543 1.350 . S
C549 H536 0.929 . S
C549 C541 1.433 . S
C549 N551 1.384 . S
N550 C546 1.427 . S
N550 C547 1.384 . S
N551 C543 1.427 . S
N551 C549 1.384 . S
H552 C558 0.930 . S
H553 C562 0.930 . S
H554 C567 0.929 . S
H555 C565 0.929 . S
H556 C560 0.929 . S
H557 C566 0.929 . S
C558 H552 0.930 . S
C558 C559 1.367 . S
C558 C566 1.378 . S
C559 C558 1.367 . S
C559 C567 1.433 . S
C560 H556 0.929 . S
C560 C562 1.378 . S
C560 C564 1.350 . S
C561 C564 1.463 . S
C561 C566 1.350 . S
C561 N569 1.427 . S
C562 H553 0.930 . S
C562 C560 1.378 . S
C562 C563 1.367 . S
C563 C562 1.367 . S
C563 C565 1.433 . S
C564 C560 1.350 . S
C564 C561 1.463 . S
C564 N568 1.427 . S
C565 H555 0.929 . S
C565 C563 1.433 . S
C565 N568 1.384 . S
C566 H557 0.929 . S
C566 C558 1.378 . S
C566 C561 1.350 . S
C567 H554 0.929 . S
C567 C559 1.433 . S
C567 N569 1.384 . S
N568 C564 1.427 . S
N568 C565 1.384 . S
N569 C561 1.427 . S
N569 C567 1.384 . S
H570 C576 0.930 . S
H571 C580 0.930 . S
H572 C585 0.929 . S
H573 C583 0.929 . S
H574 C578 0.929 . S
H575 C584 0.929 . S
C576 H570 0.930 . S
C576 C577 1.367 . S
C576 C584 1.378 . S
C577 C576 1.367 . S
C577 C585 1.433 . S
C578 H574 0.929 . S
C578 C580 1.378 . S
C578 C582 1.350 . S
C579 C582 1.463 1_455 S
C579 C584 1.350 . S
C579 N587 1.427 . S
C580 H571 0.930 . S
C580 C578 1.378 . S
C580 C581 1.367 . S
C581 C580 1.367 . S
C581 C583 1.433 . S
C582 C578 1.350 . S
C582 C579 1.463 1_655 S
C582 N586 1.427 . S
C583 H573 0.929 . S
C583 C581 1.433 . S
C583 N586 1.384 . S
C584 H575 0.929 . S
C584 C576 1.378 . S
C584 C579 1.350 . S
C585 H572 0.929 . S
C585 C577 1.433 . S
C585 N587 1.384 . S
N586 C582 1.427 . S
N586 C583 1.384 . S
N587 C579 1.427 . S
N587 C585 1.384 . S
H588 C594 0.930 . S
H589 C598 0.930 . S
H590 C603 0.929 . S
H591 C601 0.929 . S
H592 C596 0.929 . S
H593 C602 0.929 . S
C594 H588 0.930 . S
C594 C595 1.367 . S
C594 C602 1.378 . S
C595 C594 1.367 . S
C595 C603 1.433 . S
C596 H592 0.929 . S
C596 C598 1.378 . S
C596 C600 1.350 . S
C597 C600 1.463 . S
C597 C602 1.350 . S
C597 N605 1.427 . S
C598 H589 0.930 . S
C598 C596 1.378 . S
C598 C599 1.367 . S
C599 C598 1.367 . S
C599 C601 1.433 . S
C600 C596 1.350 . S
C600 C597 1.463 . S
C600 N604 1.427 . S
C601 H591 0.929 . S
C601 C599 1.433 . S
C601 N604 1.384 . S
C602 H593 0.929 . S
C602 C594 1.378 . S
C602 C597 1.350 . S
C603 H590 0.929 . S
C603 C595 1.433 . S
C603 N605 1.384 . S
N604 C600 1.427 . S
N604 C601 1.384 . S
N605 C597 1.427 . S
N605 C603 1.384 . S
H606 C612 0.930 . S
H607 C616 0.930 . S
H608 C621 0.929 . S
H609 C619 0.929 . S
H610 C614 0.929 . S
H611 C620 0.929 . S
C612 H606 0.930 . S
C612 C613 1.367 . S
C612 C620 1.378 . S
C613 C612 1.367 . S
C613 C621 1.433 1_554 S
C614 H610 0.929 . S
C614 C616 1.378 . S
C614 C618 1.350 . S
C615 C618 1.463 . S
C615 C620 1.350 1_556 S
C615 N623 1.427 . S
C616 H607 0.930 . S
C616 C614 1.378 . S
C616 C617 1.367 . S
C617 C616 1.367 . S
C617 C619 1.433 . S
C618 C614 1.350 . S
C618 C615 1.463 . S
C618 N622 1.427 . S
C619 H609 0.929 . S
C619 C617 1.433 . S
C619 N622 1.384 . S
C620 H611 0.929 . S
C620 C612 1.378 . S
C620 C615 1.350 1_554 S
C621 H608 0.929 . S
C621 C613 1.433 1_556 S
C621 N623 1.384 . S
N622 C618 1.427 . S
N622 C619 1.384 . S
N623 C615 1.427 . S
N623 C621 1.384 . S
H624 C630 0.930 . S
H625 C634 0.930 . S
H626 C639 0.929 . S
H627 C637 0.929 . S
H628 C632 0.929 . S
H629 C638 0.929 . S
C630 H624 0.930 . S
C630 C631 1.367 1_554 S
C630 C638 1.378 . S
C631 C630 1.367 1_556 S
C631 C639 1.433 . S
C632 H628 0.929 . S
C632 C634 1.378 . S
C632 C636 1.350 . S
C633 C636 1.463 . S
C633 C638 1.350 . S
C633 N641 1.427 1_554 S
C634 H625 0.930 . S
C634 C632 1.378 . S
C634 C635 1.367 . S
C635 C634 1.367 . S
C635 C637 1.433 . S
C636 C632 1.350 . S
C636 C633 1.463 . S
C636 N640 1.427 . S
C637 H627 0.929 . S
C637 C635 1.433 . S
C637 N640 1.384 . S
C638 H629 0.929 . S
C638 C630 1.378 . S
C638 C633 1.350 . S
C639 H626 0.929 . S
C639 C631 1.433 . S
C639 N641 1.384 . S
N640 C636 1.427 . S
N640 C637 1.384 . S
N641 C633 1.427 1_556 S
N641 C639 1.384 . S
H642 C648 0.930 . S
H643 C652 0.930 . S
H644 C657 0.929 . S
H645 C655 0.929 . S
H646 C650 0.929 . S
H647 C656 0.929 . S
C648 H642 0.930 . S
C648 C649 1.367 . S
C648 C656 1.378 . S
C649 C648 1.367 . S
C649 C657 1.433 . S
C650 H646 0.929 . S
C650 C652 1.378 . S
C650 C654 1.350 . S
C651 C654 1.463 . S
C651 C656 1.350 . S
C651 N659 1.427 . S
C652 H643 0.930 . S
C652 C650 1.378 . S
C652 C653 1.367 . S
C653 C652 1.367 . S
C653 C655 1.433 . S
C654 C650 1.350 . S
C654 C651 1.463 . S
C654 N658 1.427 . S
C655 H645 0.929 . S
C655 C653 1.433 . S
C655 N658 1.384 . S
C656 H647 0.929 . S
C656 C648 1.378 . S
C656 C651 1.350 . S
C657 H644 0.929 . S
C657 C649 1.433 . S
C657 N659 1.384 . S
N658 C654 1.427 . S
N658 C655 1.384 . S
N659 C651 1.427 . S
N659 C657 1.384 . S
H660 C666 0.930 . S
H661 C670 0.930 . S
H662 C675 0.929 . S
H663 C673 0.929 . S
H664 C668 0.929 . S
H665 C674 0.929 . S
C666 H660 0.930 . S
C666 C667 1.367 . S
C666 C674 1.378 . S
C667 C666 1.367 . S
C667 C675 1.433 . S
C668 H664 0.929 . S
C668 C670 1.378 . S
C668 C672 1.350 . S
C669 C672 1.463 . S
C669 C674 1.350 . S
C669 N677 1.427 . S
C670 H661 0.930 . S
C670 C668 1.378 . S
C670 C671 1.367 . S
C671 C670 1.367 . S
C671 C673 1.433 . S
C672 C668 1.350 . S
C672 C669 1.463 . S
C672 N676 1.427 . S
C673 H663 0.929 . S
C673 C671 1.433 . S
C673 N676 1.384 . S
C674 H665 0.929 . S
C674 C666 1.378 . S
C674 C669 1.350 . S
C675 H662 0.929 . S
C675 C667 1.433 . S
C675 N677 1.384 . S
N676 C672 1.427 . S
N676 C673 1.384 . S
N677 C669 1.427 . S
N677 C675 1.384 . S
H678 C684 0.930 . S
H679 C688 0.930 . S
H680 C693 0.929 . S
H681 C691 0.929 . S
H682 C686 0.929 . S
H683 C692 0.929 . S
C684 H678 0.930 . S
C684 C685 1.367 . S
C684 C692 1.378 . S
C685 C684 1.367 . S
C685 C693 1.433 . S
C686 H682 0.929 . S
C686 C688 1.378 . S
C686 C690 1.350 . S
C687 C690 1.463 . S
C687 C692 1.350 . S
C687 N695 1.427 . S
C688 H679 0.930 . S
C688 C686 1.378 . S
C688 C689 1.367 . S
C689 C688 1.367 . S
C689 C691 1.433 . S
C690 C686 1.350 . S
C690 C687 1.463 . S
C690 N694 1.427 . S
C691 H681 0.929 . S
C691 C689 1.433 . S
C691 N694 1.384 . S
C692 H683 0.929 . S
C692 C684 1.378 . S
C692 C687 1.350 . S
C693 H680 0.929 . S
C693 C685 1.433 . S
C693 N695 1.384 . S
N694 C690 1.427 . S
N694 C691 1.384 . S
N695 C687 1.427 . S
N695 C693 1.384 . S
H696 C702 0.930 . S
H697 C706 0.930 . S
H698 C711 0.929 . S
H699 C709 0.929 . S
H700 C704 0.929 . S
H701 C710 0.929 . S
C702 H696 0.930 . S
C702 C703 1.367 . S
C702 C710 1.378 . S
C703 C702 1.367 . S
C703 C711 1.433 . S
C704 H700 0.929 . S
C704 C706 1.378 . S
C704 C708 1.350 . S
C705 C708 1.463 . S
C705 C710 1.350 . S
C705 N713 1.427 . S
C706 H697 0.930 . S
C706 C704 1.378 . S
C706 C707 1.367 . S
C707 C706 1.367 . S
C707 C709 1.433 . S
C708 C704 1.350 . S
C708 C705 1.463 . S
C708 N712 1.427 . S
C709 H699 0.929 . S
C709 C707 1.433 . S
C709 N712 1.384 . S
C710 H701 0.929 . S
C710 C702 1.378 . S
C710 C705 1.350 . S
C711 H698 0.929 . S
C711 C703 1.433 . S
C711 N713 1.384 . S
N712 C708 1.427 . S
N712 C709 1.384 . S
N713 C705 1.427 . S
N713 C711 1.384 . S
H714 C720 0.930 . S
H715 C724 0.930 . S
H716 C729 0.929 . S
H717 C727 0.929 . S
H718 C722 0.929 . S
H719 C728 0.929 . S
C720 H714 0.930 . S
C720 C721 1.367 . S
C720 C728 1.378 . S
C721 C720 1.367 . S
C721 C729 1.433 . S
C722 H718 0.929 . S
C722 C724 1.378 . S
C722 C726 1.350 . S
C723 C726 1.463 . S
C723 C728 1.350 . S
C723 N731 1.427 . S
C724 H715 0.930 . S
C724 C722 1.378 . S
C724 C725 1.367 . S
C725 C724 1.367 . S
C725 C727 1.433 . S
C726 C722 1.350 . S
C726 C723 1.463 . S
C726 N730 1.427 . S
C727 H717 0.929 . S
C727 C725 1.433 . S
C727 N730 1.384 . S
C728 H719 0.929 . S
C728 C720 1.378 . S
C728 C723 1.350 . S
C729 H716 0.929 . S
C729 C721 1.433 . S
C729 N731 1.384 . S
N730 C726 1.427 . S
N730 C727 1.384 . S
N731 C723 1.427 . S
N731 C729 1.384 . S
H732 C738 0.930 . S
H733 C742 0.930 . S
H734 C747 0.929 . S
H735 C745 0.929 . S
H736 C740 0.929 . S
H737 C746 0.929 . S
C738 H732 0.930 . S
C738 C739 1.367 . S
C738 C746 1.378 . S
C739 C738 1.367 . S
C739 C747 1.433 . S
C740 H736 0.929 . S
C740 C742 1.378 . S
C740 C744 1.350 . S
C741 C744 1.463 . S
C741 C746 1.350 . S
C741 N749 1.427 . S
C742 H733 0.930 . S
C742 C740 1.378 . S
C742 C743 1.367 . S
C743 C742 1.367 . S
C743 C745 1.433 . S
C744 C740 1.350 . S
C744 C741 1.463 . S
C744 N748 1.427 . S
C745 H735 0.929 . S
C745 C743 1.433 . S
C745 N748 1.384 . S
C746 H737 0.929 . S
C746 C738 1.378 . S
C746 C741 1.350 . S
C747 H734 0.929 . S
C747 C739 1.433 . S
C747 N749 1.384 . S
N748 C744 1.427 . S
N748 C745 1.384 . S
N749 C741 1.427 . S
N749 C747 1.384 . S
H750 C756 0.930 . S
H751 C760 0.930 . S
H752 C765 0.929 . S
H753 C763 0.929 . S
H754 C758 0.929 . S
H755 C764 0.929 . S
C756 H750 0.930 . S
C756 C757 1.367 . S
C756 C764 1.378 . S
C757 C756 1.367 . S
C757 C765 1.433 . S
C758 H754 0.929 . S
C758 C760 1.378 . S
C758 C762 1.350 . S
C759 C762 1.463 . S
C759 C764 1.350 . S
C759 N767 1.427 . S
C760 H751 0.930 . S
C760 C758 1.378 . S
C760 C761 1.367 . S
C761 C760 1.367 . S
C761 C763 1.433 . S
C762 C758 1.350 . S
C762 C759 1.463 . S
C762 N766 1.427 . S
C763 H753 0.929 . S
C763 C761 1.433 . S
C763 N766 1.384 . S
C764 H755 0.929 . S
C764 C756 1.378 . S
C764 C759 1.350 . S
C765 H752 0.929 . S
C765 C757 1.433 . S
C765 N767 1.384 . S
N766 C762 1.427 . S
N766 C763 1.384 . S
N767 C759 1.427 . S
N767 C765 1.384 . S
H768 C774 0.930 . S
H769 C778 0.930 . S
H770 C783 0.929 . S
H771 C781 0.929 . S
H772 C776 0.929 . S
H773 C782 0.929 . S
C774 H768 0.930 . S
C774 C775 1.367 . S
C774 C782 1.378 . S
C775 C774 1.367 . S
C775 C783 1.433 . S
C776 H772 0.929 . S
C776 C778 1.378 . S
C776 C780 1.350 . S
C777 C780 1.463 . S
C777 C782 1.350 . S
C777 N785 1.427 . S
C778 H769 0.930 . S
C778 C776 1.378 . S
C778 C779 1.367 . S
C779 C778 1.367 . S
C779 C781 1.433 . S
C780 C776 1.350 . S
C780 C777 1.463 . S
C780 N784 1.427 . S
C781 H771 0.929 . S
C781 C779 1.433 . S
C781 N784 1.384 . S
C782 H773 0.929 . S
C782 C774 1.378 . S
C782 C777 1.350 . S
C783 H770 0.929 . S
C783 C775 1.433 . S
C783 N785 1.384 . S
N784 C780 1.427 . S
N784 C781 1.384 . S
N785 C777 1.427 . S
N785 C783 1.384 . S
H786 C792 0.930 1_554 S
H787 C796 0.930 . S
H788 C801 0.929 . S
H789 C799 0.929 . S
H790 C794 0.929 . S
H791 C800 0.929 1_554 S
C792 H786 0.930 1_556 S
C792 C793 1.367 . S
C792 C800 1.378 . S
C793 C792 1.367 . S
C793 C801 1.433 . S
C794 H790 0.929 . S
C794 C796 1.378 . S
C794 C798 1.350 . S
C795 C798 1.463 . S
C795 C800 1.350 . S
C795 N803 1.427 . S
C796 H787 0.930 . S
C796 C794 1.378 . S
C796 C797 1.367 . S
C797 C796 1.367 . S
C797 C799 1.433 1_556 S
C798 C794 1.350 . S
C798 C795 1.463 . S
C798 N802 1.427 1_556 S
C799 H789 0.929 . S
C799 C797 1.433 1_554 S
C799 N802 1.384 . S
C800 H791 0.929 1_556 S
C800 C792 1.378 . S
C800 C795 1.350 . S
C801 H788 0.929 . S
C801 C793 1.433 . S
C801 N803 1.384 . S
N802 C798 1.427 1_554 S
N802 C799 1.384 . S
N803 C795 1.427 . S
N803 C801 1.384 . S
H804 C810 0.930 . S
H805 C814 0.930 . S
H806 C819 0.929 . S
H807 C817 0.929 . S
H808 C812 0.929 . S
H809 C818 0.929 . S
C810 H804 0.930 . S
C810 C811 1.367 . S
C810 C818 1.378 . S
C811 C810 1.367 . S
C811 C819 1.433 . S
C812 H808 0.929 . S
C812 C814 1.378 . S
C812 C816 1.350 . S
C813 C816 1.463 . S
C813 C818 1.350 . S
C813 N821 1.427 . S
C814 H805 0.930 . S
C814 C812 1.378 . S
C814 C815 1.367 . S
C815 C814 1.367 . S
C815 C817 1.433 . S
C816 C812 1.350 . S
C816 C813 1.463 . S
C816 N820 1.427 . S
C817 H807 0.929 . S
C817 C815 1.433 . S
C817 N820 1.384 . S
C818 H809 0.929 . S
C818 C810 1.378 . S
C818 C813 1.350 . S
C819 H806 0.929 . S
C819 C811 1.433 . S
C819 N821 1.384 . S
N820 C816 1.427 . S
N820 C817 1.384 . S
N821 C813 1.427 . S
N821 C819 1.384 . S
H822 C828 0.930 . S
H823 C832 0.930 . S
H824 C837 0.929 . S
H825 C835 0.929 . S
H826 C830 0.929 . S
H827 C836 0.929 . S
C828 H822 0.930 . S
C828 C829 1.367 . S
C828 C836 1.378 . S
C829 C828 1.367 . S
C829 C837 1.433 . S
C830 H826 0.929 . S
C830 C832 1.378 . S
C830 C834 1.350 . S
C831 C834 1.463 . S
C831 C836 1.350 . S
C831 N839 1.427 . S
C832 H823 0.930 . S
C832 C830 1.378 . S
C832 C833 1.367 . S
C833 C832 1.367 . S
C833 C835 1.433 . S
C834 C830 1.350 . S
C834 C831 1.463 . S
C834 N838 1.427 . S
C835 H825 0.929 . S
C835 C833 1.433 . S
C835 N838 1.384 . S
C836 H827 0.929 . S
C836 C828 1.378 . S
C836 C831 1.350 . S
C837 H824 0.929 . S
C837 C829 1.433 . S
C837 N839 1.384 . S
N838 C834 1.427 . S
N838 C835 1.384 . S
N839 C831 1.427 . S
N839 C837 1.384 . S
H840 C846 0.930 . S
H841 C850 0.930 . S
H842 C855 0.929 . S
H843 C853 0.929 . S
H844 C848 0.929 . S
H845 C854 0.929 . S
C846 H840 0.930 . S
C846 C847 1.367 . S
C846 C854 1.378 . S
C847 C846 1.367 . S
C847 C855 1.433 . S
C848 H844 0.929 . S
C848 C850 1.378 . S
C848 C852 1.350 . S
C849 C852 1.463 . S
C849 C854 1.350 . S
C849 N857 1.427 . S
C850 H841 0.930 . S
C850 C848 1.378 . S
C850 C851 1.367 . S
C851 C850 1.367 . S
C851 C853 1.433 . S
C852 C848 1.350 . S
C852 C849 1.463 . S
C852 N856 1.427 . S
C853 H843 0.929 . S
C853 C851 1.433 . S
C853 N856 1.384 . S
C854 H845 0.929 . S
C854 C846 1.378 . S
C854 C849 1.350 . S
C855 H842 0.929 . S
C855 C847 1.433 . S
C855 N857 1.384 . S
N856 C852 1.427 . S
N856 C853 1.384 . S
N857 C849 1.427 . S
N857 C855 1.384 . S
H858 C864 0.930 . S
H859 C868 0.930 . S
H860 C873 0.929 . S
H861 C871 0.929 . S
H862 C866 0.929 . S
H863 C872 0.929 . S
C864 H858 0.930 . S
C864 C865 1.367 . S
C864 C872 1.378 . S
C865 C864 1.367 . S
C865 C873 1.433 . S
C866 H862 0.929 . S
C866 C868 1.378 . S
C866 C870 1.350 . S
C867 C870 1.463 . S
C867 C872 1.350 . S
C867 N875 1.427 . S
C868 H859 0.930 . S
C868 C866 1.378 . S
C868 C869 1.367 . S
C869 C868 1.367 . S
C869 C871 1.433 . S
C870 C866 1.350 . S
C870 C867 1.463 . S
C870 N874 1.427 . S
C871 H861 0.929 . S
C871 C869 1.433 . S
C871 N874 1.384 . S
C872 H863 0.929 . S
C872 C864 1.378 . S
C872 C867 1.350 . S
C873 H860 0.929 . S
C873 C865 1.433 . S
C873 N875 1.384 . S
N874 C870 1.427 . S
N874 C871 1.384 . S
N875 C867 1.427 . S
N875 C873 1.384 . S
H876 C882 0.930 . S
H877 C886 0.930 . S
H878 C891 0.929 . S
H879 C889 0.929 . S
H880 C884 0.929 . S
H881 C890 0.929 . S
C882 H876 0.930 . S
C882 C883 1.367 . S
C882 C890 1.378 . S
C883 C882 1.367 . S
C883 C891 1.433 . S
C884 H880 0.929 . S
C884 C886 1.378 . S
C884 C888 1.350 . S
C885 C888 1.463 . S
C885 C890 1.350 . S
C885 N893 1.427 . S
C886 H877 0.930 . S
C886 C884 1.378 . S
C886 C887 1.367 1_556 S
C887 C886 1.367 1_554 S
C887 C889 1.433 . S
C888 C884 1.350 . S
C888 C885 1.463 . S
C888 N892 1.427 1_556 S
C889 H879 0.929 . S
C889 C887 1.433 . S
C889 N892 1.384 . S
C890 H881 0.929 . S
C890 C882 1.378 . S
C890 C885 1.350 . S
C891 H878 0.929 . S
C891 C883 1.433 . S
C891 N893 1.384 . S
N892 C888 1.427 1_554 S
N892 C889 1.384 . S
N893 C885 1.427 . S
N893 C891 1.384 . S
H894 C900 0.930 . S
H895 C904 0.930 . S
H896 C909 0.929 . S
H897 C907 0.929 . S
H898 C902 0.929 . S
H899 C908 0.929 . S
C900 H894 0.930 . S
C900 C901 1.367 . S
C900 C908 1.378 . S
C901 C900 1.367 . S
C901 C909 1.433 . S
C902 H898 0.929 . S
C902 C904 1.378 1_554 S
C902 C906 1.350 . S
C903 C906 1.463 . S
C903 C908 1.350 . S
C903 N911 1.427 . S
C904 H895 0.930 . S
C904 C902 1.378 1_556 S
C904 C905 1.368 . S
C905 C904 1.368 . S
C905 C907 1.430 1_556 S
C906 C902 1.350 . S
C906 C903 1.463 . S
C906 N910 1.427 . S
C907 H897 0.929 . S
C907 C905 1.430 1_554 S
C907 N910 1.384 . S
C908 H899 0.929 . S
C908 C900 1.378 . S
C908 C903 1.350 . S
C909 H896 0.929 . S
C909 C901 1.433 . S
C909 N911 1.384 . S
N910 C906 1.427 . S
N910 C907 1.384 . S
N911 C903 1.427 . S
N911 C909 1.384 . S
C271 C10 1.440 . S
C275 C21 1.478 . S
C289 C30 1.437 1_556 S
C293 C29 1.477 . S
C307 C65 1.474 . S
C311 C54 1.437 . S
C325 C74 1.442 . S
C329 C73 1.478 . S
C343 C103 1.470 . S
C347 C106 1.446 . S
C361 C118 1.437 . S
C365 C117 1.477 . S
C379 C140 1.438 . S
C383 C139 1.477 . S
C397 C161 1.475 . S
C401 C162 1.450 . S
C415 C183 1.475 . S
C419 C184 1.450 . S
C433 C205 1.473 . S
C437 C206 1.451 . S
C451 C228 1.446 . S
C455 C227 1.470 . S
C469 C249 1.470 . S
C473 C250 1.449 . S
C487 C8 1.441 . S
C491 C172 1.437 . S
C505 C194 1.437 . S
C509 C40 1.444 . S
C523 C216 1.442 . S
C527 C52 1.437 . S
C541 C84 1.442 . S
C545 C238 1.437 . S
C559 C98 1.437 . S
C563 C260 1.444 . S
C577 C128 1.447 . S
C581 C150 1.441 . S
C595 C18 1.140 . S
C599 C230 1.136 . S
C613 C32 1.136 . S
C617 C252 1.136 . S
C631 C142 1.137 . S
C635 C62 1.140 . S
C649 C76 1.132 . S
C653 C164 1.141 . S
C667 C96 1.131 . S
C671 C186 1.143 . S
C685 C208 1.136 . S
C689 C120 1.140 . S
C703 C15 1.138 . S
C707 C197 1.137 . S
C721 C219 1.139 . S
C725 C43 1.140 . S
C739 C241 1.136 . S
C743 C59 1.136 . S
C757 C87 1.139 . S
C761 C263 1.138 . S
C775 C153 1.138 . S
C779 C95 1.137 . S
C793 C131 1.141 . S
C797 C175 1.141 . S
C811 C7 1.348 . S
C815 C235 1.365 . S
C829 C37 1.362 . S
C833 C257 1.358 . S
C847 C51 1.359 . S
C851 C147 1.345 . S
C865 C169 1.365 . S
C869 C81 1.351 . S
C883 C109 1.351 . S
C887 C191 1.365 . S
C901 C213 1.361 . S
C905 C125 1.348 . S
