# Generated by pormake.
# Topology uoj, (4)-cn, num edge types: 1
# Building blocks:
#     Node 0, Type 0, BuildingBlock: ESEHIV_clean_sbu_0, # of connection points: 4
#     Node 1, Type 0, BuildingBlock: ESEHIV_clean_sbu_0, # of connection points: 4
#     Node 2, Type 0, BuildingBlock: ESEHIV_clean_sbu_0, # of connection points: 4
#     Node 3, Type 0, BuildingBlock: ESEHIV_clean_sbu_0, # of connection points: 4
#     Node 4, Type 0, BuildingBlock: ESEHIV_clean_sbu_0, # of connection points: 4
#     Node 5, Type 0, BuildingBlock: ESEHIV_clean_sbu_0, # of connection points: 4
#     Node 6, Type 0, BuildingBlock: ESEHIV_clean_sbu_0, # of connection points: 4
#     Node 7, Type 0, BuildingBlock: ESEHIV_clean_sbu_0, # of connection points: 4
#     Edge 8, Type (0, 0), BuildingBlock: ZUJKAS_clean_linker_0, # of connection points: 2
#     Edge 9, Type (0, 0), BuildingBlock: ZUJKAS_clean_linker_0, # of connection points: 2
#     Edge 10, Type (0, 0), BuildingBlock: ZUJKAS_clean_linker_0, # of connection points: 2
#     Edge 11, Type (0, 0), BuildingBlock: ZUJKAS_clean_linker_0, # of connection points: 2
#     Edge 12, Type (0, 0), BuildingBlock: ZUJKAS_clean_linker_0, # of connection points: 2
#     Edge 13, Type (0, 0), BuildingBlock: ZUJKAS_clean_linker_0, # of connection points: 2
#     Edge 14, Type (0, 0), BuildingBlock: ZUJKAS_clean_linker_0, # of connection points: 2
#     Edge 15, Type (0, 0), BuildingBlock: ZUJKAS_clean_linker_0, # of connection points: 2
#     Edge 16, Type (0, 0), BuildingBlock: ZUJKAS_clean_linker_0, # of connection points: 2
#     Edge 17, Type (0, 0), BuildingBlock: ZUJKAS_clean_linker_0, # of connection points: 2
#     Edge 18, Type (0, 0), BuildingBlock: ZUJKAS_clean_linker_0, # of connection points: 2
#     Edge 19, Type (0, 0), BuildingBlock: ZUJKAS_clean_linker_0, # of connection points: 2
#     Edge 20, Type (0, 0), BuildingBlock: ZUJKAS_clean_linker_0, # of connection points: 2
#     Edge 21, Type (0, 0), BuildingBlock: ZUJKAS_clean_linker_0, # of connection points: 2
#     Edge 22, Type (0, 0), BuildingBlock: ZUJKAS_clean_linker_0, # of connection points: 2
#     Edge 23, Type (0, 0), BuildingBlock: ZUJKAS_clean_linker_0, # of connection points: 2
# Relax obj value: 0.033
# Max RMSD: 0.217
# Mean RMSD: 0.217
data_MOF--net-uoj--node1-ESEHIV_clean_sbu_0--edge1-ZUJKAS_clean_linker_0
_symmetry_space_group_name_H-M    P1
_symmetry_Int_Tables_number       1
_symmetry_cell_setting            triclinic
loop_
_symmetry_equiv_pos_as_xyz
'x, y, z'
_cell_length_a     45.467532
_cell_length_b     45.478572
_cell_length_c     56.905358
_cell_angle_alpha  90.028932
_cell_angle_beta   89.941338
_cell_angle_gamma 90.127848
loop_
_atom_site_label
_atom_site_type_symbol
_atom_site_fract_x
_atom_site_fract_y
_atom_site_fract_z
_atom_type_partial_charge
Cu0 Cu 0.0455 0.29708 0.42281 0.0
N1 N 1.00902 0.2773 0.4239 0.0
N2 N 0.96911 0.25209 0.43591 0.0
C3 C 0.99448 0.26562 0.44246 0.0
C4 C 0.96797 0.25547 0.41233 0.0
C5 C 0.99237 0.27092 0.40508 0.0
O6 O 0.07401 0.27478 0.44136 0.0
C7 C 0.02007 0.35298 0.42354 0.0
O8 O 1.00234 0.33979 0.40866 0.0
H9 H 1.00237 0.26706 0.46033 0.0
H10 H 0.99778 0.27685 0.38718 0.0
N11 N 0.05929 0.29669 0.39166 0.0
N12 N 0.07871 0.30952 0.35684 0.0
C13 C 0.06949 0.31902 0.37821 0.0
C14 C 0.0621 0.27242 0.37837 0.0
C15 C 0.07393 0.2802 0.35699 0.0
C16 C 0.07415 0.27239 0.46366 0.0
O17 O 0.05494 0.28732 0.47609 0.0
H18 H 0.07071 0.34158 0.38419 0.0
H19 H 0.05606 0.25049 0.38397 0.0
O20 O 0.04092 0.33815 0.43266 0.0
H21 H 0.95108 0.24688 0.40084 0.0
H22 H 0.07843 0.26531 0.3426 0.0
Cu23 Cu 0.29994 0.98321 0.59339 0.0
N24 N 0.28152 0.02008 0.59372 0.0
N25 N 0.25493 0.05958 0.58352 0.0
C26 C 0.26542 0.03304 0.57668 0.0
C27 C 0.265 0.06332 0.60565 0.0
C28 C 0.28131 0.03905 0.61184 0.0
O29 O 0.2779 0.95833 0.57137 0.0
C30 C 0.36026 0.96886 0.58405 0.0
O31 O 0.35185 0.94166 0.58805 0.0
H32 H 0.26109 0.02295 0.5598 0.0
H33 H 0.29224 0.03538 0.62845 0.0
N34 N 0.29795 0.96746 0.62395 0.0
N35 N 0.30955 0.94962 0.65952 0.0
C36 C 0.31989 0.95884 0.63842 0.0
C37 C 0.27304 0.96354 0.63632 0.0
C38 C 0.28007 0.9526 0.65817 0.0
C39 C 0.27367 0.93082 0.57418 0.0
O40 O 0.2866 0.91736 0.59177 0.0
H41 H 0.34295 0.95988 0.63381 0.0
H42 H 0.25123 0.96846 0.62986 0.0
O43 O 0.34114 0.98928 0.58458 0.0
H44 H 0.26118 0.08242 0.61658 0.0
H45 H 0.26458 0.94697 0.67192 0.0
Cu46 Cu 0.98315 0.72545 0.42599 0.0
N47 N 0.02068 0.74269 0.42636 0.0
N48 N 0.06122 0.76685 0.43802 0.0
C49 C 0.03333 0.75885 0.44356 0.0
C50 C 0.06606 0.75533 0.41647 0.0
C51 C 0.04112 0.74053 0.40937 0.0
O52 O 0.95857 0.74807 0.44778 0.0
C53 C 0.96708 0.66516 0.43445 0.0
O54 O 0.94016 0.6739 0.42989 0.0
H55 H 0.02249 0.76409 0.45997 0.0
H56 H 0.03808 0.72884 0.39299 0.0
N57 N 0.96773 0.72819 0.39537 0.0
N58 N 0.94785 0.71756 0.36024 0.0
C59 C 0.9587 0.70664 0.38063 0.0
C60 C 0.96271 0.75346 0.38383 0.0
C61 C 0.9505 0.74704 0.36229 0.0
C62 C 0.93105 0.75216 0.44504 0.0
O63 O 0.91738 0.73857 0.42783 0.0
H64 H 0.95959 0.68351 0.38493 0.0
H65 H 0.96745 0.77511 0.39075 0.0
O66 O 0.98781 0.68404 0.43459 0.0
H67 H 0.08613 0.75762 0.40639 0.0
H68 H 0.94429 0.76298 0.3491 0.0
Cu69 Cu 0.72926 0.04369 0.59759 0.0
N70 N 0.74707 1.00646 0.59479 0.0
N71 N 0.77037 0.96653 0.58101 0.0
C72 C 0.76065 0.99403 0.5761 0.0
C73 C 0.76279 0.96176 0.60362 0.0
C74 C 0.74862 0.98629 0.61203 0.0
O75 O 0.75353 0.07242 0.58075 0.0
C76 C 0.67222 0.02128 0.59604 0.0
O77 O 0.68419 1.00343 0.61141 0.0
H78 H 0.76302 1.00474 0.55923 0.0
H79 H 0.73993 0.98922 0.62957 0.0
N80 N 0.72907 0.05457 0.62946 0.0
N81 N 0.7152 0.071 0.66498 0.0
C82 C 0.70714 0.06658 0.64231 0.0
C83 C 0.75173 0.05154 0.64442 0.0
C84 C 0.74328 0.06152 0.66625 0.0
C85 C 0.75367 0.07644 0.5586 0.0
O86 O 0.73521 0.06148 0.54543 0.0
H87 H 0.68563 0.07161 0.63526 0.0
H88 H 0.77298 0.04263 0.63972 0.0
O89 O 0.68822 0.0414 0.58696 0.0
H90 H 0.76756 0.94205 0.61356 0.0
H91 H 0.75699 0.06217 0.68178 0.0
Cu92 Cu 0.48302 0.80008 0.9228 0.0
N93 N 0.52001 0.7816 0.92524 0.0
N94 N 0.55843 0.75468 0.93752 0.0
C95 C 0.53155 0.76562 0.94304 0.0
C96 C 0.56388 0.76433 0.9155 0.0
C97 C 0.5403 0.78072 0.90803 0.0
O98 O 0.45397 0.77618 0.9397 0.0
C99 C 0.50557 0.85732 0.92422 0.0
O100 O 0.52282 0.84575 0.90819 0.0
H101 H 0.5202 0.76151 0.95943 0.0
H102 H 0.53799 0.79113 0.89105 0.0
N103 N 0.47196 0.80036 0.89094 0.0
N104 N 0.45511 0.81385 0.85549 0.0
C105 C 0.45921 0.82195 0.87819 0.0
C106 C 0.47575 0.7779 0.87587 0.0
C107 C 0.46551 0.78612 0.85409 0.0
C108 C 0.45182 0.77416 0.96197 0.0
O109 O 0.46897 0.79045 0.97526 0.0
H110 H 0.45345 0.84323 0.88534 0.0
H111 H 0.48535 0.75694 0.88046 0.0
O112 O 0.48589 0.84106 0.93363 0.0
H113 H 0.58362 0.76002 0.90545 0.0
H114 H 0.46533 0.77249 0.83849 0.0
Cu115 Cu 0.80024 0.54608 0.09606 0.0
N116 N 0.78574 0.50755 0.09232 0.0
N117 N 0.76049 0.4677 0.08056 0.0
C118 C 0.76589 0.49667 0.07687 0.0
C119 C 0.77769 0.46023 0.09892 0.0
C120 C 0.79316 0.48471 0.10606 0.0
O121 O 0.77501 0.57389 0.07923 0.0
C122 C 0.85402 0.53069 0.07232 0.0
O123 O 0.83764 0.51207 0.06045 0.0
H124 H 0.75516 0.5098 0.06356 0.0
H125 H 0.80867 0.4859 0.12044 0.0
N126 N 0.79856 0.55572 0.12813 0.0
N127 N 0.81008 0.57296 0.16396 0.0
C128 C 0.81891 0.56979 0.14132 0.0
C129 C 0.77623 0.54969 0.14285 0.0
C130 C 0.78321 0.56023 0.16486 0.0
C131 C 0.77182 0.57472 0.05699 0.0
O132 O 0.78741 0.55684 0.04382 0.0
H133 H 0.83958 0.5778 0.13436 0.0
H134 H 0.75629 0.53826 0.1379 0.0
O135 O 0.84184 0.54788 0.0871 0.0
H136 H 0.77921 0.4385 0.10658 0.0
H137 H 0.76963 0.5582 0.1804 0.0
Cu138 Cu 0.54396 0.22822 0.9258 0.0
N139 N 0.50687 0.24624 0.92783 0.0
N140 N 0.46701 0.27098 0.94013 0.0
C141 C 0.49489 0.26256 0.94526 0.0
C142 C 0.46155 0.2596 0.91863 0.0
C143 C 0.486 0.24444 0.91119 0.0
O144 O 0.57274 0.25201 0.94307 0.0
C145 C 0.55987 0.16832 0.93635 0.0
O146 O 0.58667 0.17638 0.93049 0.0
H147 H 0.50617 0.26771 0.96148 0.0
H148 H 0.48844 0.2328 0.89472 0.0
N149 N 0.55532 0.22827 0.89398 0.0
N150 N 0.57141 0.21549 0.85808 0.0
C151 C 0.56569 0.20627 0.88027 0.0
C152 C 0.55451 0.25205 0.87997 0.0
C153 C 0.56432 0.2443 0.85793 0.0
C154 C 0.57439 0.25446 0.96534 0.0
O155 O 0.55677 0.23864 0.9786 0.0
H156 H 0.56867 0.18394 0.88631 0.0
H157 H 0.54736 0.27364 0.88551 0.0
O158 O 0.53952 0.18753 0.9366 0.0
H159 H 0.44141 0.26227 0.90876 0.0
H160 H 0.56663 0.25898 0.84307 0.0
Cu161 Cu 0.22481 0.48457 0.09428 0.0
N162 N 0.23926 0.52305 0.0902 0.0
N163 N 0.26462 0.56273 0.07821 0.0
C164 C 0.25948 0.53364 0.0749 0.0
C165 C 0.24689 0.57058 0.09618 0.0
C166 C 0.23136 0.5462 0.10347 0.0
O167 O 0.24979 0.45647 0.07749 0.0
C168 C 0.17075 0.49952 0.07083 0.0
O169 O 0.18699 0.51784 0.05854 0.0
H170 H 0.27066 0.52023 0.06199 0.0
H171 H 0.21546 0.54529 0.1176 0.0
N172 N 0.22686 0.47521 0.12635 0.0
N173 N 0.21574 0.45811 0.16229 0.0
C174 C 0.20642 0.46173 0.13985 0.0
C175 C 0.24977 0.48039 0.14068 0.0
C176 C 0.24303 0.46992 0.16277 0.0
C177 C 0.25377 0.45584 0.05533 0.0
O178 O 0.23912 0.47425 0.04197 0.0
H179 H 0.18536 0.45434 0.13323 0.0
H180 H 0.27 0.49107 0.13537 0.0
O181 O 0.18311 0.48267 0.08573 0.0
H182 H 0.24503 0.59249 0.10345 0.0
H183 H 0.2571 0.47126 0.17805 0.0
H184 H 0.15646 0.4525 0.1681 0.0
H185 H 0.13064 0.43016 0.20147 0.0
H186 H 0.21382 0.40996 0.23388 0.0
H187 H 0.23967 0.43214 0.20075 0.0
H188 H 0.13167 0.37432 0.21876 0.0
H189 H 0.17157 0.45112 0.28718 0.0
H190 H 0.17569 0.4585 0.25619 0.0
H191 H 0.20104 0.43448 0.271 0.0
C192 C 0.16928 0.44324 0.18227 0.0
C193 C 0.20024 0.44446 0.18173 0.0
C194 C 0.15446 0.43057 0.20143 0.0
C195 C 0.17022 0.41893 0.22052 0.0
C196 C 0.20108 0.41958 0.21978 0.0
H197 H 0.11561 0.28992 0.32273 0.0
H198 H 0.13571 0.31766 0.2898 0.0
C199 C 0.21588 0.43227 0.20072 0.0
C200 C 0.15455 0.40523 0.24086 0.0
H201 H 0.14932 0.40654 0.30087 0.0
C202 C 0.13536 0.38156 0.23669 0.0
C203 C 0.15888 0.41489 0.2643 0.0
C204 C 0.17767 0.44133 0.26996 0.0
C205 C 0.12131 0.36666 0.25526 0.0
C206 C 0.12695 0.37527 0.27877 0.0
C207 C 0.14525 0.39964 0.28291 0.0
C208 C 0.1148 0.35867 0.29925 0.0
C209 C 0.10041 0.34187 0.24948 0.0
C210 C 0.0971 0.37262 0.31618 0.0
C211 C 0.08551 0.35671 0.33523 0.0
C212 C 0.09147 0.3265 0.3378 0.0
C213 C 0.10985 0.31289 0.3211 0.0
C214 C 0.12141 0.32877 0.30216 0.0
H215 H 0.09169 0.34386 0.23132 0.0
H216 H 0.1123 0.32065 0.25072 0.0
H217 H 0.08161 0.34128 0.26194 0.0
H218 H 0.09187 0.39575 0.31445 0.0
H219 H 0.07141 0.36794 0.34765 0.0
H220 H 0.29503 0.95427 0.70559 0.0
H221 H 0.32158 0.93421 0.73924 0.0
H222 H 0.38776 0.89946 0.6926 0.0
H223 H 0.36147 0.92005 0.65884 0.0
H224 H 0.33326 0.87901 0.75027 0.0
H225 H 0.43923 0.93804 0.74065 0.0
H226 H 0.40693 0.94808 0.72414 0.0
H227 H 0.42942 0.9177 0.7148 0.0
C228 C 0.31529 0.94244 0.70246 0.0
C229 C 0.3261 0.93881 0.67946 0.0
C230 C 0.33053 0.93103 0.72177 0.0
C231 C 0.35699 0.9156 0.71865 0.0
C232 C 0.36788 0.91193 0.69566 0.0
H233 H 0.46739 0.80941 0.80899 0.0
H234 H 0.44344 0.83528 0.7766 0.0
C235 C 0.35275 0.92364 0.67631 0.0
C236 C 0.37224 0.9023 0.73935 0.0
H237 H 0.43833 0.89825 0.76798 0.0
C238 C 0.35617 0.88347 0.75422 0.0
C239 C 0.40218 0.90804 0.74465 0.0
C240 C 0.42038 0.9293 0.73036 0.0
C241 C 0.36925 0.86983 0.77378 0.0
C242 C 0.39923 0.87524 0.77884 0.0
C243 C 0.41534 0.89411 0.7641 0.0
C244 C 0.41447 0.86064 0.79887 0.0
C245 C 0.35109 0.8491 0.78858 0.0
C246 C 0.40658 0.86665 0.82228 0.0
C247 C 0.42033 0.85187 0.84093 0.0
C248 C 0.44212 0.83062 0.83653 0.0
C249 C 0.45038 0.82523 0.81305 0.0
C250 C 0.43683 0.84015 0.79448 0.0
H251 H 0.33011 0.84296 0.77985 0.0
H252 H 0.36361 0.82874 0.79248 0.0
H253 H 0.34574 0.85987 0.80555 0.0
H254 H 0.38962 0.88264 0.82612 0.0
H255 H 0.41335 0.8565 0.85874 0.0
H256 H 0.95826 0.66065 0.34751 0.0
H257 H 0.93777 0.63435 0.31363 0.0
H258 H 0.88846 0.71149 0.29442 0.0
H259 H 0.90861 0.73777 0.32808 0.0
H260 H 0.88049 0.62121 0.3018 0.0
H261 H 0.92994 0.69197 0.23312 0.0
H262 H 0.9417 0.69314 0.26339 0.0
H263 H 0.90911 0.71242 0.25433 0.0
C264 C 0.94299 0.67202 0.33615 0.0
C265 C 0.93545 0.70155 0.34052 0.0
C266 C 0.93136 0.65696 0.31669 0.0
C267 C 0.91204 0.67109 0.3011 0.0
C268 C 0.90398 0.70031 0.30572 0.0
H269 H 0.78657 0.59641 0.20371 0.0
H270 H 0.8127 0.61853 0.23668 0.0
C271 C 0.91559 0.71536 0.32508 0.0
C272 C 0.89961 0.65523 0.28035 0.0
H273 H 0.89149 0.65961 0.22066 0.0
C274 C 0.88311 0.6295 0.28405 0.0
C275 C 0.90333 0.66569 0.25707 0.0
C276 C 0.92223 0.69215 0.25165 0.0
C277 C 0.86943 0.61459 0.26529 0.0
C278 C 0.87188 0.62593 0.24217 0.0
C279 C 0.88926 0.65106 0.23836 0.0
C280 C 0.85607 0.61242 0.22184 0.0
C281 C 0.85262 0.58668 0.27043 0.0
C282 C 0.87156 0.60236 0.20202 0.0
C283 C 0.85659 0.58963 0.18297 0.0
C284 C 0.82572 0.5868 0.18325 0.0
C285 C 0.81031 0.5975 0.20298 0.0
C286 C 0.82527 0.61019 0.22195 0.0
H287 H 0.85996 0.57641 0.28713 0.0
H288 H 0.82889 0.59191 0.27221 0.0
H289 H 0.85521 0.57045 0.25599 0.0
H290 H 0.89533 0.604 0.20141 0.0
H291 H 0.86928 0.58156 0.16824 0.0
H292 H 0.60744 0.16779 0.86008 0.0
H293 H 0.63001 0.14189 0.82683 0.0
H294 H 0.58464 0.19904 0.7786 0.0
H295 H 0.56231 0.22505 0.81162 0.0
H296 H 0.60709 0.11155 0.78929 0.0
H297 H 0.66873 0.20872 0.75692 0.0
H298 H 0.65105 0.20804 0.78531 0.0
H299 H 0.6299 0.21501 0.75918 0.0
C300 C 0.60211 0.17471 0.8424 0.0
C301 C 0.58334 0.19881 0.83859 0.0
C302 C 0.61512 0.15994 0.82338 0.0
C303 C 0.60964 0.16893 0.80015 0.0
C304 C 0.59001 0.19223 0.79632 0.0
H305 H 0.67067 0.1107 0.66172 0.0
H306 H 0.64343 0.13334 0.6943 0.0
C307 C 0.57717 0.20707 0.81527 0.0
C308 C 0.62439 0.15406 0.77991 0.0
H309 H 0.66828 0.16677 0.73205 0.0
C310 C 0.62057 0.12362 0.77685 0.0
C311 C 0.64203 0.16974 0.76359 0.0
C312 C 0.64845 0.20212 0.76649 0.0
C313 C 0.63345 0.10861 0.75779 0.0
C314 C 0.65093 0.12434 0.74144 0.0
C315 C 0.6547 0.15475 0.74446 0.0
C316 C 0.66638 0.10954 0.72158 0.0
C317 C 0.62788 0.07608 0.75508 0.0
C318 C 0.68839 0.0887 0.72602 0.0
C319 C 0.70399 0.0758 0.70747 0.0
C320 C 0.698 0.08343 0.68397 0.0
C321 C 0.67566 0.10408 0.67954 0.0
C322 C 0.66018 0.11715 0.69816 0.0
H323 H 0.6083 0.06883 0.76527 0.0
H324 H 0.6246 0.07017 0.73633 0.0
H325 H 0.64723 0.06377 0.76168 0.0
H326 H 0.69391 0.08276 0.7439 0.0
H327 H 0.72079 0.0598 0.71158 0.0
H328 H 0.21693 0.10002 0.60104 0.0
H329 H 0.1876 0.13546 0.57909 0.0
H330 H 0.22211 0.10128 0.51402 0.0
H331 H 0.25157 0.06555 0.53595 0.0
H332 H 0.20572 0.17932 0.54981 0.0
H333 H 0.1345 0.10129 0.50081 0.0
H334 H 0.15694 0.08997 0.52532 0.0
H335 H 0.17321 0.09534 0.49683 0.0
C336 C 0.21841 0.1 0.58207 0.0
C337 C 0.23675 0.07984 0.57032 0.0
C338 C 0.20148 0.12027 0.56951 0.0
C339 C 0.20229 0.12093 0.54485 0.0
C340 C 0.22052 0.10084 0.533 0.0
H341 H 0.11402 0.23512 0.44301 0.0
H342 H 0.14613 0.1993 0.46224 0.0
C343 C 0.23743 0.0804 0.54558 0.0
C344 C 0.18471 0.14332 0.5318 0.0
H345 H 0.13019 0.15169 0.49094 0.0
C346 C 0.18918 0.17323 0.53697 0.0
C347 C 0.16315 0.13549 0.51494 0.0
C348 C 0.1564 0.10379 0.50924 0.0
C349 C 0.17286 0.19542 0.52575 0.0
C350 C 0.15107 0.18759 0.50912 0.0
C351 C 0.14687 0.15772 0.50369 0.0
C352 C 0.13204 0.20998 0.49753 0.0
C353 C 0.17941 0.22713 0.53158 0.0
C354 C 0.11324 0.22789 0.51091 0.0
C355 C 0.09483 0.24843 0.49997 0.0
C356 C 0.09468 0.25148 0.47536 0.0
C357 C 0.1136 0.23353 0.462 0.0
C358 C 0.13195 0.21294 0.47296 0.0
H359 H 0.2016 0.22977 0.53949 0.0
H360 H 0.17805 0.24118 0.51567 0.0
H361 H 0.16299 0.23516 0.5445 0.0
H362 H 0.11246 0.22568 0.52985 0.0
H363 H 0.08046 0.26169 0.51084 0.0
H364 H 0.23699 0.9529 0.54011 0.0
H365 H 0.1998 0.92628 0.51729 0.0
H366 H 0.22533 0.84522 0.55072 0.0
H367 H 0.26203 0.87169 0.57392 0.0
H368 H 0.20334 0.88216 0.48576 0.0
H369 H 0.13774 0.84434 0.562 0.0
H370 H 0.16632 0.87172 0.56463 0.0
H371 H 0.1755 0.83325 0.56377 0.0
C372 C 0.23475 0.92939 0.54259 0.0
C373 C 0.25245 0.91452 0.55901 0.0
C374 C 0.21341 0.91418 0.52953 0.0
C375 C 0.2092 0.88378 0.53261 0.0
C376 C 0.22748 0.86877 0.54846 0.0
H377 H 0.12084 0.7641 0.43667 0.0
H378 H 0.15577 0.79328 0.45941 0.0
C379 C 0.24869 0.88395 0.5616 0.0
C380 C 0.18604 0.86773 0.51905 0.0
H381 H 0.12652 0.82213 0.52507 0.0
C382 C 0.18646 0.86917 0.49439 0.0
C383 C 0.16357 0.85115 0.53021 0.0
C384 C 0.1605 0.85023 0.55661 0.0
C385 C 0.16567 0.85394 0.48064 0.0
C386 C 0.14413 0.83616 0.49178 0.0
C387 C 0.14319 0.83538 0.51645 0.0
C388 C 0.12261 0.81804 0.47817 0.0
C389 C 0.16677 0.85745 0.45429 0.0
C390 C 0.09215 0.82128 0.48165 0.0
C391 C 0.072 0.80435 0.46872 0.0
C392 C 0.08185 0.78375 0.452 0.0
C393 C 0.11237 0.78017 0.44895 0.0
C394 C 0.13245 0.79694 0.46195 0.0
H395 H 0.17803 0.87818 0.44914 0.0
H396 H 0.17932 0.8389 0.44657 0.0
H397 H 0.14434 0.85738 0.44658 0.0
H398 H 0.08394 0.83724 0.49417 0.0
H399 H 0.04871 0.80782 0.47149 0.0
H400 H 0.76797 0.90709 0.58239 0.0
H401 H 0.79628 0.87241 0.5588 0.0
H402 H 0.83643 0.94454 0.52143 0.0
H403 H 0.80771 0.97955 0.54499 0.0
H404 H 0.82153 0.8999 0.49182 0.0
H405 H 0.88231 0.85408 0.56752 0.0
H406 H 0.84324 0.85151 0.57135 0.0
H407 H 0.86057 0.8871 0.56972 0.0
C408 C 0.78295 0.91566 0.56927 0.0
C409 C 0.78585 0.94618 0.56585 0.0
C410 C 0.79922 0.89575 0.5558 0.0
C411 C 0.81917 0.90577 0.53873 0.0
C412 C 0.82142 0.93622 0.53465 0.0
H413 H 0.95376 0.79097 0.47737 0.0
H414 H 0.9275 0.82912 0.49932 0.0
C415 C 0.8049 0.95623 0.54806 0.0
C416 C 0.83743 0.88436 0.52518 0.0
H417 H 0.88504 0.82679 0.53171 0.0
C418 C 0.83557 0.88405 0.50054 0.0
C419 C 0.85624 0.86394 0.53645 0.0
C420 C 0.861 0.86432 0.56269 0.0
C421 C 0.85122 0.8634 0.48698 0.0
C422 C 0.86875 0.84194 0.49835 0.0
C423 C 0.87131 0.84286 0.52294 0.0
C424 C 0.88464 0.8184 0.48512 0.0
C425 C 0.8491 0.86512 0.46056 0.0
C426 C 0.86933 0.79909 0.47019 0.0
C427 C 0.88432 0.77732 0.45753 0.0
C428 C 0.91498 0.77404 0.45972 0.0
C429 C 0.93017 0.79281 0.47523 0.0
C430 C 0.91516 0.81471 0.48778 0.0
H431 H 0.84272 0.8875 0.45465 0.0
H432 H 0.87029 0.85921 0.45209 0.0
H433 H 0.83197 0.84953 0.45436 0.0
H434 H 0.8457 0.80079 0.46832 0.0
H435 H 0.87184 0.76316 0.44592 0.0
H436 H 0.80109 0.10336 0.57941 0.0
H437 H 0.83804 0.13519 0.56092 0.0
H438 H 0.79307 0.1273 0.49461 0.0
H439 H 0.75614 0.09529 0.51284 0.0
H440 H 0.8746 0.11982 0.51902 0.0
H441 H 0.80446 0.2184 0.50615 0.0
H442 H 0.79587 0.1902 0.52745 0.0
H443 H 0.78896 0.18388 0.49682 0.0
C444 C 0.7989 0.10852 0.56092 0.0
C445 C 0.77551 0.09676 0.54765 0.0
C446 C 0.82013 0.12667 0.55037 0.0
C447 C 0.81822 0.13384 0.52643 0.0
C448 C 0.79482 0.12234 0.51317 0.0
H449 H 0.9128 0.23701 0.42453 0.0
H450 H 0.87815 0.20856 0.44772 0.0
C451 C 0.77375 0.10395 0.52363 0.0
C452 C 0.84104 0.15268 0.51511 0.0
H453 H 0.85131 0.21897 0.48803 0.0
C454 C 0.86964 0.14161 0.51239 0.0
C455 C 0.8345 0.18104 0.50643 0.0
C456 C 0.80436 0.19432 0.50945 0.0
C457 C 0.8916 0.15768 0.50047 0.0
C458 C 0.88503 0.18606 0.49158 0.0
C459 C 0.85649 0.1973 0.49479 0.0
C460 C 0.90679 0.20381 0.4778 0.0
C461 C 0.9212 0.14351 0.49666 0.0
C462 C 0.93457 0.21124 0.48695 0.0
C463 C 0.95493 0.22724 0.47342 0.0
C464 C 0.94788 0.23654 0.45048 0.0
C465 C 0.91962 0.22982 0.44177 0.0
C466 C 0.89947 0.21367 0.45519 0.0
H467 H 0.92011 0.11925 0.49878 0.0
H468 H 0.92992 0.14851 0.47887 0.0
H469 H 0.93697 0.15215 0.50985 0.0
H470 H 0.94057 0.20467 0.50458 0.0
H471 H 0.9763 0.23189 0.4809 0.0
H472 H 0.2817 0.55864 0.03245 0.0
H473 H 0.31426 0.59263 0.01103 0.0
H474 H 0.32549 0.64412 0.07399 0.0
H475 H 0.29332 0.61035 0.0954 0.0
H476 H 0.30597 0.65705 1.00632 0.0
H477 H 0.41089 0.62763 0.05013 0.0
H478 H 0.3792 0.60358 0.05013 0.0
H479 H 0.38054 0.63465 0.0696 0.0
C480 C 0.29138 0.57701 0.04177 0.0
C481 C 0.28481 0.58177 0.06565 0.0
C482 C 0.30985 0.59651 0.02948 0.0
C483 C 0.32251 0.62083 0.04094 0.0
C484 C 0.31624 0.62539 0.06482 0.0
H485 H 0.43892 0.76657 1.00869 0.0
H486 H 0.40691 0.72951 0.02658 0.0
C487 C 0.29762 0.60615 0.077 0.0
C488 C 0.34161 0.64206 0.028 0.0
H489 H 0.4112 0.67066 0.02661 0.0
C490 C 0.32906 0.65987 0.01056 0.0
C491 C 0.37167 0.64588 0.03367 0.0
C492 C 0.38655 0.6268 0.05177 0.0
C493 C 0.34549 0.68201 0.99917 0.0
C494 C 0.37558 0.686 1.00494 0.0
C495 C 0.38818 0.66779 0.02216 0.0
C496 C 0.39432 0.70916 0.9937 0.0
C497 C 0.33008 0.70162 0.98172 0.0
C498 C 0.39815 0.7102 0.96919 0.0
C499 C 0.41628 0.73161 0.95886 0.0
C500 C 0.43139 0.75229 0.97282 0.0
C501 C 0.42762 0.75112 0.99736 0.0
C502 C 0.40933 0.72983 1.00764 0.0
H503 H 0.30585 0.7014 0.98432 0.0
H504 H 0.338 0.72467 0.98309 0.0
H505 H 0.33463 0.69361 0.96367 0.0
H506 H 0.3875 0.69413 0.95801 0.0
H507 H 0.41887 0.7316 0.93994 0.0
H508 H 0.73351 0.6125 0.07906 0.0
H509 H 0.69516 0.64286 0.0611 0.0
H510 H 0.72119 0.61234 0.99246 0.0
H511 H 0.75922 0.58166 0.01022 0.0
H512 H 0.69807 0.688 0.02854 0.0
H513 H 0.63345 0.59508 0.9924 0.0
H514 H 0.6622 0.58997 0.01385 0.0
H515 H 0.67123 0.5946 0.98327 0.0
C516 C 0.73111 0.61223 0.06013 0.0
C517 C 0.74941 0.5944 0.04613 0.0
C518 C 0.70914 0.62964 0.04988 0.0
C519 C 0.70482 0.62951 0.02544 0.0
C520 C 0.72354 0.61231 0.0114 0.0
H521 H 0.59868 0.71549 0.92158 0.0
H522 H 0.6327 0.68604 0.94473 0.0
C523 C 0.74547 0.59489 0.0216 0.0
C524 C 0.68097 0.64746 0.01453 0.0
H525 H 0.62114 0.64288 0.97829 0.0
C526 C 0.68106 0.67811 0.01775 0.0
C527 C 0.6586 0.63461 1.00055 0.0
C528 C 0.6561 0.60174 0.99747 0.0
C529 C 0.66022 0.69628 1.0066 0.0
C530 C 0.63839 0.68346 0.99208 0.0
C531 C 0.63789 0.65276 0.98934 0.0
C532 C 0.61701 0.70151 0.97841 0.0
C533 C 0.66245 0.72915 0.00972 0.0
C534 C 0.59635 0.71982 0.98956 0.0
C535 C 0.57675 0.73693 0.97626 0.0
C536 C 0.57747 0.73612 0.95152 0.0
C537 C 0.59779 0.71723 0.94053 0.0
C538 C 0.6172 0.70015 0.95378 0.0
H539 H 0.68391 0.73585 0.01738 0.0
H540 H 0.65954 0.7406 0.99265 0.0
H541 H 0.64476 0.73664 0.02175 0.0
H542 H 0.59536 0.72087 1.00856 0.0
H543 H 0.56147 0.75119 0.98533 0.0
H544 H 0.74467 0.4705 0.03447 0.0
H545 H 0.71241 0.43609 0.01319 0.0
H546 H 0.69905 0.38669 0.07693 0.0
H547 H 0.73093 0.42086 0.09819 0.0
H548 H 0.72028 0.37131 0.00995 0.0
H549 H 0.61443 0.40327 0.05133 0.0
H550 H 0.64633 0.42704 0.05128 0.0
H551 H 0.6442 0.39671 0.07142 0.0
C552 C 0.73458 0.4525 0.04398 0.0
C553 C 0.74048 0.44844 0.06804 0.0
C554 C 0.71629 0.43275 0.03178 0.0
C555 C 0.70312 0.4089 0.0435 0.0
C556 C 0.70871 0.40505 0.06755 0.0
H557 H 0.586 0.26332 0.01213 0.0
H558 H 0.61792 0.30056 0.02989 0.0
C559 C 0.72716 0.42451 0.07965 0.0
C560 C 0.68418 0.38742 0.03068 0.0
H561 H 0.61434 0.35949 0.02868 0.0
C562 C 0.69705 0.36887 0.01385 0.0
C563 C 0.65392 0.38411 0.0359 0.0
C564 C 0.63873 0.40395 0.05332 0.0
C565 C 0.68072 0.34651 1.00265 0.0
C566 C 0.65042 0.34304 1.00798 0.0
C567 C 0.63752 0.36196 0.02458 0.0
C568 C 0.63175 0.31973 0.99686 0.0
C569 C 0.69643 0.32615 0.9859 0.0
C570 C 0.62865 0.31796 0.97231 0.0
C571 C 0.61056 0.29645 0.96208 0.0
C572 C 0.59477 0.27639 0.97615 0.0
C573 C 0.59783 0.27828 1.00072 0.0
C574 C 0.61607 0.29967 0.01092 0.0
H575 H 0.72056 0.32618 0.98894 0.0
H576 H 0.68819 0.30324 0.9876 0.0
H577 H 0.69253 0.3336 0.96761 0.0
H578 H 0.63982 0.33356 0.96102 0.0
H579 H 0.60855 0.29592 0.94312 0.0
H580 H 0.48059 0.31105 0.97415 0.0
H581 H 0.44606 0.3413 0.99684 0.0
H582 H 0.3733 0.30113 0.96036 0.0
H583 H 0.40733 0.2704 0.93829 0.0
H584 H 0.40602 0.3822 0.98074 0.0
H585 H 0.34743 0.29359 0.02834 0.0
H586 H 0.38191 0.28756 0.01336 0.0
H587 H 0.34794 0.28781 0.99716 0.0
C588 C 0.45723 0.30832 0.97122 0.0
C589 C 0.44687 0.28822 0.95429 0.0
C590 C 0.43749 0.32578 0.98411 0.0
C591 C 0.40698 0.32328 0.98057 0.0
C592 C 0.39664 0.30315 0.96379 0.0
H593 H 0.26889 0.44987 1.00888 0.0
H594 H 0.30666 0.41813 0.99183 0.0
C595 C 0.41626 0.28579 0.95091 0.0
C596 C 0.38586 0.34245 0.99357 0.0
H597 H 0.324 0.34068 0.02784 0.0
C598 C 0.38824 0.37311 0.9912 0.0
C599 C 0.36282 0.33072 1.00752 0.0
C600 C 0.35999 0.29813 0.01198 0.0
C601 C 0.36772 0.39222 1.00169 0.0
C602 C 0.3438 0.3804 0.01461 0.0
C603 C 0.34202 0.3498 0.01767 0.0
C604 C 0.32038 0.39939 0.025 0.0
C605 C 0.37203 0.42495 0.99896 0.0
C606 C 0.31468 0.39883 0.04927 0.0
C607 C 0.29287 0.41684 0.05909 0.0
C608 C 0.27608 0.43572 0.04483 0.0
C609 C 0.28144 0.43578 0.02045 0.0
C610 C 0.30324 0.41777 0.01067 0.0
H611 H 0.39523 0.4305 0.99468 0.0
H612 H 0.35803 0.43297 0.98436 0.0
H613 H 0.36564 0.43684 0.01523 0.0
H614 H 0.32742 0.38471 0.06071 0.0
H615 H 0.28937 0.41613 0.07791 0.0
H616 H 0.01975 0.63912 0.44575 0.0
H617 H 0.0311 0.5864 0.44669 0.0
H618 H 0.94105 0.56618 0.42944 0.0
H619 H 0.92942 0.61865 0.42855 0.0
H620 H 1.0018 0.53729 0.47394 0.0
H621 H 0.99368 0.52677 0.37687 0.0
H622 H 0.99914 0.56171 0.39136 0.0
H623 H 0.96337 0.54492 0.39107 0.0
C624 C 1.00227 0.62347 0.44235 0.0
C625 C 0.97367 0.63323 0.43696 0.0
C626 C 1.00882 0.59333 0.44293 0.0
C627 C 0.98701 0.57237 0.4379 0.0
C628 C 0.9583 0.58198 0.43316 0.0
H629 H 0.97266 0.38674 0.41271 0.0
H630 H 0.9665 0.43952 0.41795 0.0
C631 C 0.95168 0.61204 0.43274 0.0
C632 C 0.99429 0.5405 0.43672 0.0
H633 H 0.99814 0.48268 0.39852 0.0
C634 C 1.00122 0.5253 0.45747 0.0
C635 C 0.99361 0.52496 0.4152 0.0
C636 C 0.98729 0.54036 0.39228 0.0
C637 C 1.00636 0.49472 0.45736 0.0
C638 C 1.00519 0.47905 0.43584 0.0
C639 C 0.99895 0.49454 0.41505 0.0
C640 C 1.00886 0.44645 0.43436 0.0
C641 C 1.01186 0.47934 0.48042 0.0
C642 C 0.03471 0.4324 0.44201 0.0
C643 C 0.03821 0.40188 0.43921 0.0
C644 C 0.01611 0.38491 0.4284 0.0
C645 C 0.99022 0.39905 0.42103 0.0
C646 C 0.98665 0.42934 0.424 0.0
H647 H 1.00464 0.49286 0.49563 0.0
H648 H 1.00025 0.45785 0.48108 0.0
H649 H 0.03578 0.47522 0.48233 0.0
H650 H 0.05249 0.4451 0.44959 0.0
H651 H 0.05853 0.39175 0.4449 0.0
H652 H 0.63758 0.97387 0.60484 0.0
H653 H 0.5848 0.96871 0.59914 0.0
H654 H 0.58109 0.05619 0.57008 0.0
H655 H 0.63458 0.06125 0.57525 0.0
H656 H 0.54252 1.00034 0.61971 0.0
H657 H 0.53208 1.01107 0.52283 0.0
H658 H 0.56705 1.00538 0.53709 0.0
H659 H 0.55043 0.0412 0.53707 0.0
C660 C 0.6257 0.99199 0.59698 0.0
C661 C 0.64039 0.01802 0.59053 0.0
C662 C 0.5954 0.98898 0.59374 0.0
C663 C 0.57879 1.01192 0.58403 0.0
C664 C 0.5934 0.03789 0.57717 0.0
H665 H 0.38569 0.02241 0.57415 0.0
H666 H 0.43832 0.0345 0.57309 0.0
C667 C 0.62398 0.04083 0.58023 0.0
C668 C 0.54612 1.00878 0.58257 0.0
H669 H 0.48779 1.00677 0.54455 0.0
C670 C 0.53063 1.00181 0.60324 0.0
C671 C 0.53041 1.01083 0.56113 0.0
C672 C 0.5458 0.01728 0.53821 0.0
C673 C 0.5002 0.99641 0.60303 0.0
C674 C 0.48464 0.99781 0.58157 0.0
C675 C 0.49981 1.00562 0.56097 0.0
C676 C 0.45282 0.99019 0.5803 0.0
C677 C 0.48483 0.98911 0.62582 0.0
C678 C 0.44351 0.96114 0.5842 0.0
C679 C 0.41352 0.95411 0.58471 0.0
C680 C 0.39209 0.97602 0.58141 0.0
C681 C 0.40153 1.00499 0.57683 0.0
C682 C 0.43162 1.01196 0.57617 0.0
H683 H 0.49844 0.99497 0.64135 0.0
H684 H 0.46346 1.0008 0.62707 0.0
H685 H 0.4803 0.96514 0.62645 0.0
H686 H 0.45951 0.94394 0.58725 0.0
H687 H 0.40715 0.93158 0.58825 0.0
H688 H 0.59601 0.12081 0.93005 0.0
H689 H 0.58321 0.06869 0.9325 0.0
H690 H 0.49505 0.09147 0.95362 0.0
H691 H 0.50748 0.14375 0.95058 0.0
H692 H 0.56444 0.03377 0.96784 0.0
H693 H 0.47829 0.03798 0.89882 0.0
H694 H 0.50318 0.06818 0.90417 0.0
H695 H 0.47198 0.06238 0.92309 0.0
C696 C 0.5739 0.11481 0.93532 0.0
C697 C 0.55274 0.1366 0.93994 0.0
C698 C 0.5666 0.0849 0.93671 0.0
C699 C 0.53796 0.07597 0.94277 0.0
C700 C 0.51707 0.09767 0.94827 0.0
H701 H 0.46681 0.89418 0.94735 0.0
H702 H 0.47278 0.94729 0.95465 0.0
C703 C 0.5243 0.12763 0.94672 0.0
C704 C 0.53018 0.04399 0.94306 0.0
H705 H 0.48528 0.99236 0.91774 0.0
C706 C 0.54702 0.02481 0.95695 0.0
C707 C 0.50739 0.03209 0.92891 0.0
C708 C 0.48932 0.05113 0.91273 0.0
C709 C 0.54203 0.99425 0.95682 0.0
C710 C 0.51971 0.98236 0.94232 0.0
C711 C 0.50225 1.00152 0.92898 0.0
C712 C 0.51612 0.95003 0.93904 0.0
C713 C 0.56089 0.97478 0.97204 0.0
C714 C 0.53835 0.934 0.92779 0.0
C715 C 0.53491 0.90393 0.92345 0.0
C716 C 0.50915 0.88898 0.93034 0.0
C717 C 0.48697 0.90495 0.94195 0.0
C718 C 0.49033 0.9353 0.94607 0.0
H719 H 0.57164 0.9874 0.98639 0.0
H720 H 0.54763 0.95674 0.97988 0.0
H721 H 0.57839 0.96473 0.96107 0.0
H722 H 0.55826 0.9449 0.92193 0.0
H723 H 0.55248 0.89243 0.91448 0.0
H724 H 0.12984 0.47394 0.09992 0.0
H725 H 0.07636 0.47919 0.09865 0.0
H726 H 0.08394 0.53256 0.03631 0.0
H727 H 0.13751 0.52816 0.0379 0.0
H728 H 0.04703 0.5572 0.0663 0.0
H729 H 0.01655 0.43984 0.05778 0.0
H730 H 0.03876 0.44668 0.08322 0.0
H731 H 0.0539 0.45257 0.05434 0.0
C732 C 0.12014 0.4865 0.08575 0.0
C733 C 0.13807 0.50052 0.06895 0.0
C734 C 0.08944 0.48937 0.08497 0.0
C735 C 0.07587 0.50589 0.06715 0.0
C736 C 0.09375 0.51962 0.05021 0.0
H737 H 0.88681 0.50132 0.03944 0.0
H738 H 0.94035 0.49689 0.03734 0.0
C739 C 0.12444 0.517 0.0511 0.0
C740 C 0.04323 0.50999 0.06672 0.0
H741 H 0.97767 0.47294 0.06729 0.0
C742 C 0.0319 0.53873 0.06637 0.0
C743 C 0.02329 0.48599 0.06647 0.0
C744 C 0.03372 0.45455 0.06522 0.0
C745 C 1.00141 0.54414 0.06618 0.0
C746 C 0.98148 0.52016 0.06699 0.0
C747 C 0.99281 0.49141 0.06693 0.0
C748 C 0.94885 0.52427 0.06772 0.0
C749 C 0.99096 0.57554 0.06461 0.0
C750 C 0.93552 0.5412 0.08545 0.0
C751 C 0.90483 0.54408 0.08652 0.0
C752 C 0.88667 0.52968 0.0701 0.0
C753 C 0.90006 0.51279 0.05235 0.0
C754 C 0.93074 0.51015 0.05117 0.0
H755 H 1.00802 0.59008 0.05678 0.0
H756 H 0.97063 0.57727 0.05391 0.0
H757 H 0.98616 0.58383 0.08254 0.0
H758 H 0.9488 0.5517 0.09884 0.0
H759 H 0.89533 0.55696 0.10061 0.0
loop_
_geom_bond_atom_site_label_1
_geom_bond_atom_site_label_2
_geom_bond_distance
_geom_bond_site_symmetry_2
_ccdc_geom_bond_type
Cu0 N1 1.999 . S
Cu0 O6 1.974 . S
Cu0 N11 1.985 . S
Cu0 O20 1.959 . S
N1 Cu0 1.999 . S
N1 C3 1.263 . S
N1 C5 1.389 1_455 S
N2 C3 1.358 1_655 S
N2 C4 1.400 . S
C3 N1 1.263 . S
C3 N2 1.358 1_455 S
C3 H9 0.930 . S
C4 N2 1.400 . S
C4 C5 1.351 . S
C4 H21 0.930 . S
C5 N1 1.389 1_655 S
C5 C4 1.351 . S
C5 H10 0.930 . S
O6 Cu0 1.974 . S
O6 C16 1.282 . S
C7 O8 1.261 . S
C7 O20 1.251 . S
O8 C7 1.261 . S
H9 C3 0.930 . S
H10 C5 0.930 . S
N11 Cu0 1.985 . S
N11 C13 1.335 . S
N11 C14 1.390 . S
N12 C13 1.345 . S
N12 C15 1.336 . S
C13 N11 1.335 . S
C13 N12 1.345 . S
C13 H18 0.930 . S
C14 N11 1.390 . S
C14 C15 1.346 . S
C14 H19 0.930 . S
C15 N12 1.336 . S
C15 C14 1.346 . S
C15 H22 0.929 . S
C16 O6 1.282 . S
C16 O17 1.216 . S
O17 C16 1.216 . S
H18 C13 0.930 . S
H19 C14 0.930 . S
O20 Cu0 1.959 . S
O20 C7 1.251 . S
H21 C4 0.930 . S
H22 C15 0.929 . S
Cu23 N24 1.999 . S
Cu23 O29 1.974 . S
Cu23 N34 1.985 . S
Cu23 O43 1.959 . S
N24 Cu23 1.999 . S
N24 C26 1.263 . S
N24 C28 1.389 1_565 S
N25 C26 1.358 1_545 S
N25 C27 1.400 . S
C26 N24 1.263 . S
C26 N25 1.358 1_565 S
C26 H32 0.930 . S
C27 N25 1.400 . S
C27 C28 1.351 . S
C27 H44 0.930 . S
C28 N24 1.389 1_545 S
C28 C27 1.351 . S
C28 H33 0.930 . S
O29 Cu23 1.974 . S
O29 C39 1.282 . S
C30 O31 1.261 . S
C30 O43 1.251 . S
O31 C30 1.261 . S
H32 C26 0.930 . S
H33 C28 0.930 . S
N34 Cu23 1.985 . S
N34 C36 1.335 . S
N34 C37 1.390 . S
N35 C36 1.345 . S
N35 C38 1.336 . S
C36 N34 1.335 . S
C36 N35 1.345 . S
C36 H41 0.930 . S
C37 N34 1.390 . S
C37 C38 1.346 . S
C37 H42 0.930 . S
C38 N35 1.336 . S
C38 C37 1.346 . S
C38 H45 0.929 . S
C39 O29 1.282 . S
C39 O40 1.216 . S
O40 C39 1.216 . S
H41 C36 0.930 . S
H42 C37 0.930 . S
O43 Cu23 1.959 . S
O43 C30 1.251 . S
H44 C27 0.930 . S
H45 C38 0.929 . S
Cu46 N47 1.999 . S
Cu46 O52 1.974 . S
Cu46 N57 1.985 . S
Cu46 O66 1.959 . S
N47 Cu46 1.999 . S
N47 C49 1.263 . S
N47 C51 1.389 1_655 S
N48 C49 1.358 1_455 S
N48 C50 1.400 . S
C49 N47 1.263 . S
C49 N48 1.358 1_655 S
C49 H55 0.930 . S
C50 N48 1.400 . S
C50 C51 1.351 . S
C50 H67 0.930 . S
C51 N47 1.389 1_455 S
C51 C50 1.351 . S
C51 H56 0.930 . S
O52 Cu46 1.974 . S
O52 C62 1.282 . S
C53 O54 1.261 . S
C53 O66 1.251 . S
O54 C53 1.261 . S
H55 C49 0.930 . S
H56 C51 0.930 . S
N57 Cu46 1.985 . S
N57 C59 1.335 . S
N57 C60 1.390 . S
N58 C59 1.345 . S
N58 C61 1.336 . S
C59 N57 1.335 . S
C59 N58 1.345 . S
C59 H64 0.930 . S
C60 N57 1.390 . S
C60 C61 1.346 . S
C60 H65 0.930 . S
C61 N58 1.336 . S
C61 C60 1.346 . S
C61 H68 0.929 . S
C62 O52 1.282 . S
C62 O63 1.216 . S
O63 C62 1.216 . S
H64 C59 0.930 . S
H65 C60 0.930 . S
O66 Cu46 1.959 . S
O66 C53 1.251 . S
H67 C50 0.930 . S
H68 C61 0.929 . S
Cu69 N70 1.999 . S
Cu69 O75 1.974 . S
Cu69 N80 1.985 . S
Cu69 O89 1.959 . S
N70 Cu69 1.999 . S
N70 C72 1.263 . S
N70 C74 1.389 1_545 S
N71 C72 1.358 1_565 S
N71 C73 1.400 . S
C72 N70 1.263 . S
C72 N71 1.358 1_545 S
C72 H78 0.930 . S
C73 N71 1.400 . S
C73 C74 1.351 . S
C73 H90 0.930 . S
C74 N70 1.389 1_565 S
C74 C73 1.351 . S
C74 H79 0.930 . S
O75 Cu69 1.974 . S
O75 C85 1.282 . S
C76 O77 1.261 . S
C76 O89 1.251 . S
O77 C76 1.261 . S
H78 C72 0.930 . S
H79 C74 0.930 . S
N80 Cu69 1.985 . S
N80 C82 1.335 . S
N80 C83 1.390 . S
N81 C82 1.345 . S
N81 C84 1.336 . S
C82 N80 1.335 . S
C82 N81 1.345 . S
C82 H87 0.930 . S
C83 N80 1.390 . S
C83 C84 1.346 . S
C83 H88 0.930 . S
C84 N81 1.336 . S
C84 C83 1.346 . S
C84 H91 0.929 . S
C85 O75 1.282 . S
C85 O86 1.216 . S
O86 C85 1.216 . S
H87 C82 0.930 . S
H88 C83 0.930 . S
O89 Cu69 1.959 . S
O89 C76 1.251 . S
H90 C73 0.930 . S
H91 C84 0.929 . S
Cu92 N93 1.999 . S
Cu92 O98 1.974 . S
Cu92 N103 1.985 . S
Cu92 O112 1.959 . S
N93 Cu92 1.999 . S
N93 C95 1.263 . S
N93 C97 1.389 . S
N94 C95 1.358 . S
N94 C96 1.400 . S
C95 N93 1.263 . S
C95 N94 1.358 . S
C95 H101 0.930 . S
C96 N94 1.400 . S
C96 C97 1.351 . S
C96 H113 0.930 . S
C97 N93 1.389 . S
C97 C96 1.351 . S
C97 H102 0.930 . S
O98 Cu92 1.974 . S
O98 C108 1.282 . S
C99 O100 1.261 . S
C99 O112 1.251 . S
O100 C99 1.261 . S
H101 C95 0.930 . S
H102 C97 0.930 . S
N103 Cu92 1.985 . S
N103 C105 1.335 . S
N103 C106 1.390 . S
N104 C105 1.345 . S
N104 C107 1.336 . S
C105 N103 1.335 . S
C105 N104 1.345 . S
C105 H110 0.930 . S
C106 N103 1.390 . S
C106 C107 1.346 . S
C106 H111 0.930 . S
C107 N104 1.336 . S
C107 C106 1.346 . S
C107 H114 0.929 . S
C108 O98 1.282 . S
C108 O109 1.216 . S
O109 C108 1.216 . S
H110 C105 0.930 . S
H111 C106 0.930 . S
O112 Cu92 1.959 . S
O112 C99 1.251 . S
H113 C96 0.930 . S
H114 C107 0.929 . S
Cu115 N116 1.999 . S
Cu115 O121 1.974 . S
Cu115 N126 1.985 . S
Cu115 O135 1.959 . S
N116 Cu115 1.999 . S
N116 C118 1.263 . S
N116 C120 1.389 . S
N117 C118 1.358 . S
N117 C119 1.400 . S
C118 N116 1.263 . S
C118 N117 1.358 . S
C118 H124 0.930 . S
C119 N117 1.400 . S
C119 C120 1.351 . S
C119 H136 0.930 . S
C120 N116 1.389 . S
C120 C119 1.351 . S
C120 H125 0.930 . S
O121 Cu115 1.974 . S
O121 C131 1.282 . S
C122 O123 1.261 . S
C122 O135 1.251 . S
O123 C122 1.261 . S
H124 C118 0.930 . S
H125 C120 0.930 . S
N126 Cu115 1.985 . S
N126 C128 1.335 . S
N126 C129 1.390 . S
N127 C128 1.345 . S
N127 C130 1.336 . S
C128 N126 1.335 . S
C128 N127 1.345 . S
C128 H133 0.930 . S
C129 N126 1.390 . S
C129 C130 1.346 . S
C129 H134 0.930 . S
C130 N127 1.336 . S
C130 C129 1.346 . S
C130 H137 0.929 . S
C131 O121 1.282 . S
C131 O132 1.216 . S
O132 C131 1.216 . S
H133 C128 0.930 . S
H134 C129 0.930 . S
O135 Cu115 1.959 . S
O135 C122 1.251 . S
H136 C119 0.930 . S
H137 C130 0.929 . S
Cu138 N139 1.999 . S
Cu138 O144 1.974 . S
Cu138 N149 1.985 . S
Cu138 O158 1.959 . S
N139 Cu138 1.999 . S
N139 C141 1.263 . S
N139 C143 1.389 . S
N140 C141 1.358 . S
N140 C142 1.400 . S
C141 N139 1.263 . S
C141 N140 1.358 . S
C141 H147 0.930 . S
C142 N140 1.400 . S
C142 C143 1.351 . S
C142 H159 0.930 . S
C143 N139 1.389 . S
C143 C142 1.351 . S
C143 H148 0.930 . S
O144 Cu138 1.974 . S
O144 C154 1.282 . S
C145 O146 1.261 . S
C145 O158 1.251 . S
O146 C145 1.261 . S
H147 C141 0.930 . S
H148 C143 0.930 . S
N149 Cu138 1.985 . S
N149 C151 1.335 . S
N149 C152 1.390 . S
N150 C151 1.345 . S
N150 C153 1.336 . S
C151 N149 1.335 . S
C151 N150 1.345 . S
C151 H156 0.930 . S
C152 N149 1.390 . S
C152 C153 1.346 . S
C152 H157 0.930 . S
C153 N150 1.336 . S
C153 C152 1.346 . S
C153 H160 0.929 . S
C154 O144 1.282 . S
C154 O155 1.216 . S
O155 C154 1.216 . S
H156 C151 0.930 . S
H157 C152 0.930 . S
O158 Cu138 1.959 . S
O158 C145 1.251 . S
H159 C142 0.930 . S
H160 C153 0.929 . S
Cu161 N162 1.999 . S
Cu161 O167 1.974 . S
Cu161 N172 1.985 . S
Cu161 O181 1.959 . S
N162 Cu161 1.999 . S
N162 C164 1.263 . S
N162 C166 1.389 . S
N163 C164 1.358 . S
N163 C165 1.400 . S
C164 N162 1.263 . S
C164 N163 1.358 . S
C164 H170 0.930 . S
C165 N163 1.400 . S
C165 C166 1.351 . S
C165 H182 0.930 . S
C166 N162 1.389 . S
C166 C165 1.351 . S
C166 H171 0.930 . S
O167 Cu161 1.974 . S
O167 C177 1.282 . S
C168 O169 1.261 . S
C168 O181 1.251 . S
O169 C168 1.261 . S
H170 C164 0.930 . S
H171 C166 0.930 . S
N172 Cu161 1.985 . S
N172 C174 1.335 . S
N172 C175 1.390 . S
N173 C174 1.345 . S
N173 C176 1.336 . S
C174 N172 1.335 . S
C174 N173 1.345 . S
C174 H179 0.930 . S
C175 N172 1.390 . S
C175 C176 1.346 . S
C175 H180 0.930 . S
C176 N173 1.336 . S
C176 C175 1.346 . S
C176 H183 0.929 . S
C177 O167 1.282 . S
C177 O178 1.216 . S
O178 C177 1.216 . S
H179 C174 0.930 . S
H180 C175 0.930 . S
O181 Cu161 1.959 . S
O181 C168 1.251 . S
H182 C165 0.930 . S
H183 C176 0.929 . S
H184 C192 0.929 . S
H185 C194 0.930 . S
H186 C196 0.930 . S
H187 C199 0.929 . S
H188 C202 0.930 . S
H189 C204 0.960 . S
H190 C204 0.960 . S
H191 C204 0.960 . S
C192 H184 0.929 . S
C192 C193 1.377 . S
C192 C194 1.384 . S
C193 C192 1.377 . S
C193 C199 1.390 . S
C194 H185 0.930 . S
C194 C192 1.384 . S
C194 C195 1.372 . S
C195 C194 1.372 . S
C195 C196 1.400 . S
C195 C200 1.490 . S
C196 H186 0.930 . S
C196 C195 1.400 . S
C196 C199 1.386 . S
H197 C213 0.930 . S
H198 C214 0.931 . S
C199 H187 0.929 . S
C199 C193 1.390 . S
C199 C196 1.386 . S
C200 C195 1.490 . S
C200 C202 1.395 . S
C200 C203 1.403 . S
H201 C207 0.930 . S
C202 H188 0.930 . S
C202 C200 1.395 . S
C202 C205 1.403 . S
C203 C200 1.403 . S
C203 C204 1.524 . S
C203 C207 1.400 . S
C204 H189 0.960 . S
C204 H190 0.960 . S
C204 H191 0.960 . S
C204 C203 1.524 . S
C205 C202 1.403 . S
C205 C206 1.392 . S
C205 C209 1.495 . S
C206 C205 1.392 . S
C206 C207 1.385 . S
C206 C208 1.478 . S
C207 H201 0.930 . S
C207 C203 1.400 . S
C207 C206 1.385 . S
C208 C206 1.478 . S
C208 C210 1.381 . S
C208 C214 1.383 . S
C209 C205 1.495 . S
C209 H215 0.959 . S
C209 H216 0.961 . S
C209 H217 0.960 . S
C210 C208 1.381 . S
C210 C211 1.394 . S
C210 H218 0.930 . S
C211 C210 1.394 . S
C211 C212 1.383 . S
C211 H219 0.929 . S
C212 C211 1.383 . S
C212 C213 1.377 . S
C213 H197 0.930 . S
C213 C212 1.377 . S
C213 C214 1.379 . S
C214 H198 0.931 . S
C214 C208 1.383 . S
C214 C213 1.379 . S
H215 C209 0.959 . S
H216 C209 0.961 . S
H217 C209 0.960 . S
H218 C210 0.930 . S
H219 C211 0.929 . S
H220 C228 0.929 . S
H221 C230 0.930 . S
H222 C232 0.930 . S
H223 C235 0.929 . S
H224 C238 0.930 . S
H225 C240 0.960 . S
H226 C240 0.960 . S
H227 C240 0.960 . S
C228 H220 0.929 . S
C228 C229 1.377 . S
C228 C230 1.384 . S
C229 C228 1.377 . S
C229 C235 1.390 . S
C230 H221 0.930 . S
C230 C228 1.384 . S
C230 C231 1.372 . S
C231 C230 1.372 . S
C231 C232 1.400 . S
C231 C236 1.490 . S
C232 H222 0.930 . S
C232 C231 1.400 . S
C232 C235 1.386 . S
H233 C249 0.930 . S
H234 C250 0.931 . S
C235 H223 0.929 . S
C235 C229 1.390 . S
C235 C232 1.386 . S
C236 C231 1.490 . S
C236 C238 1.395 . S
C236 C239 1.403 . S
H237 C243 0.930 . S
C238 H224 0.930 . S
C238 C236 1.395 . S
C238 C241 1.403 . S
C239 C236 1.403 . S
C239 C240 1.524 . S
C239 C243 1.400 . S
C240 H225 0.960 . S
C240 H226 0.960 . S
C240 H227 0.960 . S
C240 C239 1.524 . S
C241 C238 1.403 . S
C241 C242 1.392 . S
C241 C245 1.495 . S
C242 C241 1.392 . S
C242 C243 1.385 . S
C242 C244 1.478 . S
C243 H237 0.930 . S
C243 C239 1.400 . S
C243 C242 1.385 . S
C244 C242 1.478 . S
C244 C246 1.381 . S
C244 C250 1.383 . S
C245 C241 1.495 . S
C245 H251 0.959 . S
C245 H252 0.961 . S
C245 H253 0.960 . S
C246 C244 1.381 . S
C246 C247 1.394 . S
C246 H254 0.930 . S
C247 C246 1.394 . S
C247 C248 1.383 . S
C247 H255 0.929 . S
C248 C247 1.383 . S
C248 C249 1.377 . S
C249 H233 0.930 . S
C249 C248 1.377 . S
C249 C250 1.379 . S
C250 H234 0.931 . S
C250 C244 1.383 . S
C250 C249 1.379 . S
H251 C245 0.959 . S
H252 C245 0.961 . S
H253 C245 0.960 . S
H254 C246 0.930 . S
H255 C247 0.929 . S
H256 C264 0.929 . S
H257 C266 0.930 . S
H258 C268 0.930 . S
H259 C271 0.929 . S
H260 C274 0.930 . S
H261 C276 0.960 . S
H262 C276 0.960 . S
H263 C276 0.960 . S
C264 H256 0.929 . S
C264 C265 1.377 . S
C264 C266 1.384 . S
C265 C264 1.377 . S
C265 C271 1.390 . S
C266 H257 0.930 . S
C266 C264 1.384 . S
C266 C267 1.372 . S
C267 C266 1.372 . S
C267 C268 1.400 . S
C267 C272 1.490 . S
C268 H258 0.930 . S
C268 C267 1.400 . S
C268 C271 1.386 . S
H269 C285 0.930 . S
H270 C286 0.931 . S
C271 H259 0.929 . S
C271 C265 1.390 . S
C271 C268 1.386 . S
C272 C267 1.490 . S
C272 C274 1.395 . S
C272 C275 1.403 . S
H273 C279 0.930 . S
C274 H260 0.930 . S
C274 C272 1.395 . S
C274 C277 1.403 . S
C275 C272 1.403 . S
C275 C276 1.524 . S
C275 C279 1.400 . S
C276 H261 0.960 . S
C276 H262 0.960 . S
C276 H263 0.960 . S
C276 C275 1.524 . S
C277 C274 1.403 . S
C277 C278 1.392 . S
C277 C281 1.495 . S
C278 C277 1.392 . S
C278 C279 1.385 . S
C278 C280 1.478 . S
C279 H273 0.930 . S
C279 C275 1.400 . S
C279 C278 1.385 . S
C280 C278 1.478 . S
C280 C282 1.381 . S
C280 C286 1.383 . S
C281 C277 1.495 . S
C281 H287 0.959 . S
C281 H288 0.961 . S
C281 H289 0.960 . S
C282 C280 1.381 . S
C282 C283 1.394 . S
C282 H290 0.930 . S
C283 C282 1.394 . S
C283 C284 1.383 . S
C283 H291 0.929 . S
C284 C283 1.383 . S
C284 C285 1.377 . S
C285 H269 0.930 . S
C285 C284 1.377 . S
C285 C286 1.379 . S
C286 H270 0.931 . S
C286 C280 1.383 . S
C286 C285 1.379 . S
H287 C281 0.959 . S
H288 C281 0.961 . S
H289 C281 0.960 . S
H290 C282 0.930 . S
H291 C283 0.929 . S
H292 C300 0.929 . S
H293 C302 0.930 . S
H294 C304 0.930 . S
H295 C307 0.929 . S
H296 C310 0.930 . S
H297 C312 0.960 . S
H298 C312 0.960 . S
H299 C312 0.960 . S
C300 H292 0.929 . S
C300 C301 1.377 . S
C300 C302 1.384 . S
C301 C300 1.377 . S
C301 C307 1.390 . S
C302 H293 0.930 . S
C302 C300 1.384 . S
C302 C303 1.372 . S
C303 C302 1.372 . S
C303 C304 1.400 . S
C303 C308 1.490 . S
C304 H294 0.930 . S
C304 C303 1.400 . S
C304 C307 1.386 . S
H305 C321 0.930 . S
H306 C322 0.931 . S
C307 H295 0.929 . S
C307 C301 1.390 . S
C307 C304 1.386 . S
C308 C303 1.490 . S
C308 C310 1.395 . S
C308 C311 1.403 . S
H309 C315 0.930 . S
C310 H296 0.930 . S
C310 C308 1.395 . S
C310 C313 1.403 . S
C311 C308 1.403 . S
C311 C312 1.524 . S
C311 C315 1.400 . S
C312 H297 0.960 . S
C312 H298 0.960 . S
C312 H299 0.960 . S
C312 C311 1.524 . S
C313 C310 1.403 . S
C313 C314 1.392 . S
C313 C317 1.495 . S
C314 C313 1.392 . S
C314 C315 1.385 . S
C314 C316 1.478 . S
C315 H309 0.930 . S
C315 C311 1.400 . S
C315 C314 1.385 . S
C316 C314 1.478 . S
C316 C318 1.381 . S
C316 C322 1.383 . S
C317 C313 1.495 . S
C317 H323 0.959 . S
C317 H324 0.961 . S
C317 H325 0.960 . S
C318 C316 1.381 . S
C318 C319 1.394 . S
C318 H326 0.930 . S
C319 C318 1.394 . S
C319 C320 1.383 . S
C319 H327 0.929 . S
C320 C319 1.383 . S
C320 C321 1.377 . S
C321 H305 0.930 . S
C321 C320 1.377 . S
C321 C322 1.379 . S
C322 H306 0.931 . S
C322 C316 1.383 . S
C322 C321 1.379 . S
H323 C317 0.959 . S
H324 C317 0.961 . S
H325 C317 0.960 . S
H326 C318 0.930 . S
H327 C319 0.929 . S
H328 C336 0.929 . S
H329 C338 0.930 . S
H330 C340 0.930 . S
H331 C343 0.929 . S
H332 C346 0.930 . S
H333 C348 0.960 . S
H334 C348 0.960 . S
H335 C348 0.960 . S
C336 H328 0.929 . S
C336 C337 1.377 . S
C336 C338 1.384 . S
C337 C336 1.377 . S
C337 C343 1.390 . S
C338 H329 0.930 . S
C338 C336 1.384 . S
C338 C339 1.372 . S
C339 C338 1.372 . S
C339 C340 1.400 . S
C339 C344 1.490 . S
C340 H330 0.930 . S
C340 C339 1.400 . S
C340 C343 1.386 . S
H341 C357 0.930 . S
H342 C358 0.931 . S
C343 H331 0.929 . S
C343 C337 1.390 . S
C343 C340 1.386 . S
C344 C339 1.490 . S
C344 C346 1.395 . S
C344 C347 1.403 . S
H345 C351 0.930 . S
C346 H332 0.930 . S
C346 C344 1.395 . S
C346 C349 1.403 . S
C347 C344 1.403 . S
C347 C348 1.524 . S
C347 C351 1.400 . S
C348 H333 0.960 . S
C348 H334 0.960 . S
C348 H335 0.960 . S
C348 C347 1.524 . S
C349 C346 1.403 . S
C349 C350 1.392 . S
C349 C353 1.495 . S
C350 C349 1.392 . S
C350 C351 1.385 . S
C350 C352 1.478 . S
C351 H345 0.930 . S
C351 C347 1.400 . S
C351 C350 1.385 . S
C352 C350 1.478 . S
C352 C354 1.381 . S
C352 C358 1.383 . S
C353 C349 1.495 . S
C353 H359 0.959 . S
C353 H360 0.961 . S
C353 H361 0.960 . S
C354 C352 1.381 . S
C354 C355 1.394 . S
C354 H362 0.930 . S
C355 C354 1.394 . S
C355 C356 1.383 . S
C355 H363 0.929 . S
C356 C355 1.383 . S
C356 C357 1.377 . S
C357 H341 0.930 . S
C357 C356 1.377 . S
C357 C358 1.379 . S
C358 H342 0.931 . S
C358 C352 1.383 . S
C358 C357 1.379 . S
H359 C353 0.959 . S
H360 C353 0.961 . S
H361 C353 0.960 . S
H362 C354 0.930 . S
H363 C355 0.929 . S
H364 C372 0.929 . S
H365 C374 0.930 . S
H366 C376 0.930 . S
H367 C379 0.929 . S
H368 C382 0.930 . S
H369 C384 0.960 . S
H370 C384 0.960 . S
H371 C384 0.960 . S
C372 H364 0.929 . S
C372 C373 1.377 . S
C372 C374 1.384 . S
C373 C372 1.377 . S
C373 C379 1.390 . S
C374 H365 0.930 . S
C374 C372 1.384 . S
C374 C375 1.372 . S
C375 C374 1.372 . S
C375 C376 1.400 . S
C375 C380 1.490 . S
C376 H366 0.930 . S
C376 C375 1.400 . S
C376 C379 1.386 . S
H377 C393 0.930 . S
H378 C394 0.931 . S
C379 H367 0.929 . S
C379 C373 1.390 . S
C379 C376 1.386 . S
C380 C375 1.490 . S
C380 C382 1.395 . S
C380 C383 1.403 . S
H381 C387 0.930 . S
C382 H368 0.930 . S
C382 C380 1.395 . S
C382 C385 1.403 . S
C383 C380 1.403 . S
C383 C384 1.524 . S
C383 C387 1.400 . S
C384 H369 0.960 . S
C384 H370 0.960 . S
C384 H371 0.960 . S
C384 C383 1.524 . S
C385 C382 1.403 . S
C385 C386 1.392 . S
C385 C389 1.495 . S
C386 C385 1.392 . S
C386 C387 1.385 . S
C386 C388 1.478 . S
C387 H381 0.930 . S
C387 C383 1.400 . S
C387 C386 1.385 . S
C388 C386 1.478 . S
C388 C390 1.381 . S
C388 C394 1.383 . S
C389 C385 1.495 . S
C389 H395 0.959 . S
C389 H396 0.961 . S
C389 H397 0.960 . S
C390 C388 1.381 . S
C390 C391 1.394 . S
C390 H398 0.930 . S
C391 C390 1.394 . S
C391 C392 1.383 . S
C391 H399 0.929 . S
C392 C391 1.383 . S
C392 C393 1.377 . S
C393 H377 0.930 . S
C393 C392 1.377 . S
C393 C394 1.379 . S
C394 H378 0.931 . S
C394 C388 1.383 . S
C394 C393 1.379 . S
H395 C389 0.959 . S
H396 C389 0.961 . S
H397 C389 0.960 . S
H398 C390 0.930 . S
H399 C391 0.929 . S
H400 C408 0.929 . S
H401 C410 0.930 . S
H402 C412 0.930 . S
H403 C415 0.929 . S
H404 C418 0.930 . S
H405 C420 0.960 . S
H406 C420 0.960 . S
H407 C420 0.960 . S
C408 H400 0.929 . S
C408 C409 1.377 . S
C408 C410 1.384 . S
C409 C408 1.377 . S
C409 C415 1.390 . S
C410 H401 0.930 . S
C410 C408 1.384 . S
C410 C411 1.372 . S
C411 C410 1.372 . S
C411 C412 1.400 . S
C411 C416 1.490 . S
C412 H402 0.930 . S
C412 C411 1.400 . S
C412 C415 1.386 . S
H413 C429 0.930 . S
H414 C430 0.931 . S
C415 H403 0.929 . S
C415 C409 1.390 . S
C415 C412 1.386 . S
C416 C411 1.490 . S
C416 C418 1.395 . S
C416 C419 1.403 . S
H417 C423 0.930 . S
C418 H404 0.930 . S
C418 C416 1.395 . S
C418 C421 1.403 . S
C419 C416 1.403 . S
C419 C420 1.524 . S
C419 C423 1.400 . S
C420 H405 0.960 . S
C420 H406 0.960 . S
C420 H407 0.960 . S
C420 C419 1.524 . S
C421 C418 1.403 . S
C421 C422 1.392 . S
C421 C425 1.495 . S
C422 C421 1.392 . S
C422 C423 1.385 . S
C422 C424 1.478 . S
C423 H417 0.930 . S
C423 C419 1.400 . S
C423 C422 1.385 . S
C424 C422 1.478 . S
C424 C426 1.381 . S
C424 C430 1.383 . S
C425 C421 1.495 . S
C425 H431 0.959 . S
C425 H432 0.961 . S
C425 H433 0.960 . S
C426 C424 1.381 . S
C426 C427 1.394 . S
C426 H434 0.930 . S
C427 C426 1.394 . S
C427 C428 1.383 . S
C427 H435 0.929 . S
C428 C427 1.383 . S
C428 C429 1.377 . S
C429 H413 0.930 . S
C429 C428 1.377 . S
C429 C430 1.379 . S
C430 H414 0.931 . S
C430 C424 1.383 . S
C430 C429 1.379 . S
H431 C425 0.959 . S
H432 C425 0.961 . S
H433 C425 0.960 . S
H434 C426 0.930 . S
H435 C427 0.929 . S
H436 C444 0.929 . S
H437 C446 0.930 . S
H438 C448 0.930 . S
H439 C451 0.929 . S
H440 C454 0.930 . S
H441 C456 0.960 . S
H442 C456 0.960 . S
H443 C456 0.960 . S
C444 H436 0.929 . S
C444 C445 1.377 . S
C444 C446 1.384 . S
C445 C444 1.377 . S
C445 C451 1.390 . S
C446 H437 0.930 . S
C446 C444 1.384 . S
C446 C447 1.372 . S
C447 C446 1.372 . S
C447 C448 1.400 . S
C447 C452 1.490 . S
C448 H438 0.930 . S
C448 C447 1.400 . S
C448 C451 1.386 . S
H449 C465 0.930 . S
H450 C466 0.931 . S
C451 H439 0.929 . S
C451 C445 1.390 . S
C451 C448 1.386 . S
C452 C447 1.490 . S
C452 C454 1.395 . S
C452 C455 1.403 . S
H453 C459 0.930 . S
C454 H440 0.930 . S
C454 C452 1.395 . S
C454 C457 1.403 . S
C455 C452 1.403 . S
C455 C456 1.524 . S
C455 C459 1.400 . S
C456 H441 0.960 . S
C456 H442 0.960 . S
C456 H443 0.960 . S
C456 C455 1.524 . S
C457 C454 1.403 . S
C457 C458 1.392 . S
C457 C461 1.495 . S
C458 C457 1.392 . S
C458 C459 1.385 . S
C458 C460 1.478 . S
C459 H453 0.930 . S
C459 C455 1.400 . S
C459 C458 1.385 . S
C460 C458 1.478 . S
C460 C462 1.381 . S
C460 C466 1.383 . S
C461 C457 1.495 . S
C461 H467 0.959 . S
C461 H468 0.961 . S
C461 H469 0.960 . S
C462 C460 1.381 . S
C462 C463 1.394 . S
C462 H470 0.930 . S
C463 C462 1.394 . S
C463 C464 1.383 . S
C463 H471 0.929 . S
C464 C463 1.383 . S
C464 C465 1.377 . S
C465 H449 0.930 . S
C465 C464 1.377 . S
C465 C466 1.379 . S
C466 H450 0.931 . S
C466 C460 1.383 . S
C466 C465 1.379 . S
H467 C461 0.959 . S
H468 C461 0.961 . S
H469 C461 0.960 . S
H470 C462 0.930 . S
H471 C463 0.929 . S
H472 C480 0.929 . S
H473 C482 0.930 . S
H474 C484 0.930 . S
H475 C487 0.929 . S
H476 C490 0.930 . S
H477 C492 0.960 . S
H478 C492 0.960 . S
H479 C492 0.960 . S
C480 H472 0.929 . S
C480 C481 1.377 1_556 S
C480 C482 1.384 . S
C481 C480 1.377 1_554 S
C481 C487 1.390 . S
C482 H473 0.930 . S
C482 C480 1.384 . S
C482 C483 1.375 . S
C483 C482 1.375 . S
C483 C484 1.394 1_556 S
C483 C488 1.493 . S
C484 H474 0.930 . S
C484 C483 1.394 1_554 S
C484 C487 1.386 . S
H485 C501 0.930 . S
H486 C502 0.931 . S
C487 H475 0.929 . S
C487 C481 1.390 . S
C487 C484 1.386 . S
C488 C483 1.493 . S
C488 C490 1.395 . S
C488 C491 1.403 1_556 S
H489 C495 0.930 . S
C490 H476 0.930 . S
C490 C488 1.395 . S
C490 C493 1.403 . S
C491 C488 1.403 1_554 S
C491 C492 1.522 . S
C491 C495 1.401 1_554 S
C492 H477 0.960 . S
C492 H478 0.960 . S
C492 H479 0.960 . S
C492 C491 1.522 . S
C493 C490 1.403 . S
C493 C494 1.392 . S
C493 C497 1.495 . S
C494 C493 1.392 . S
C494 C495 1.385 . S
C494 C496 1.478 . S
C495 H489 0.930 . S
C495 C491 1.401 1_556 S
C495 C494 1.385 . S
C496 C494 1.478 . S
C496 C498 1.381 . S
C496 C502 1.383 . S
C497 C493 1.495 . S
C497 H503 0.959 . S
C497 H504 0.961 . S
C497 H505 0.960 . S
C498 C496 1.381 . S
C498 C499 1.394 . S
C498 H506 0.930 . S
C499 C498 1.394 . S
C499 C500 1.383 . S
C499 H507 0.929 . S
C500 C499 1.383 . S
C500 C501 1.377 . S
C501 H485 0.930 . S
C501 C500 1.377 . S
C501 C502 1.379 . S
C502 H486 0.931 . S
C502 C496 1.383 . S
C502 C501 1.379 . S
H503 C497 0.959 . S
H504 C497 0.961 . S
H505 C497 0.960 . S
H506 C498 0.930 . S
H507 C499 0.929 . S
H508 C516 0.929 . S
H509 C518 0.930 . S
H510 C520 0.930 . S
H511 C523 0.929 . S
H512 C526 0.930 . S
H513 C528 0.960 . S
H514 C528 0.960 . S
H515 C528 0.960 . S
C516 H508 0.929 . S
C516 C517 1.377 . S
C516 C518 1.384 . S
C517 C516 1.377 . S
C517 C523 1.390 . S
C518 H509 0.930 . S
C518 C516 1.384 . S
C518 C519 1.372 . S
C519 C518 1.372 . S
C519 C520 1.400 . S
C519 C524 1.490 . S
C520 H510 0.930 . S
C520 C519 1.400 . S
C520 C523 1.386 . S
H521 C537 0.930 . S
H522 C538 0.931 . S
C523 H511 0.929 . S
C523 C517 1.390 . S
C523 C520 1.386 . S
C524 C519 1.490 . S
C524 C526 1.395 . S
C524 C527 1.403 . S
H525 C531 0.930 . S
C526 H512 0.930 . S
C526 C524 1.395 . S
C526 C529 1.403 . S
C527 C524 1.403 . S
C527 C528 1.524 . S
C527 C531 1.400 . S
C528 H513 0.960 . S
C528 H514 0.960 . S
C528 H515 0.960 . S
C528 C527 1.524 . S
C529 C526 1.403 . S
C529 C530 1.392 . S
C529 C533 1.484 1_554 S
C530 C529 1.392 . S
C530 C531 1.385 . S
C530 C532 1.478 1_554 S
C531 H525 0.930 . S
C531 C527 1.400 . S
C531 C530 1.385 . S
C532 C530 1.478 1_556 S
C532 C534 1.381 1_556 S
C532 C538 1.383 . S
C533 C529 1.484 1_556 S
C533 H539 0.956 1_556 S
C533 H540 0.991 . S
C533 H541 0.946 1_556 S
C534 C532 1.381 1_554 S
C534 C535 1.392 1_554 S
C534 H542 0.930 . S
C535 C534 1.392 1_556 S
C535 C536 1.388 . S
C535 H543 0.927 1_556 S
C536 C535 1.388 . S
C536 C537 1.377 . S
C537 H521 0.930 . S
C537 C536 1.377 . S
C537 C538 1.379 . S
C538 H522 0.931 . S
C538 C532 1.383 . S
C538 C537 1.379 . S
H539 C533 0.956 1_554 S
H540 C533 0.991 . S
H541 C533 0.946 1_554 S
H542 C534 0.930 . S
H543 C535 0.927 1_554 S
H544 C552 0.929 . S
H545 C554 0.930 . S
H546 C556 0.930 . S
H547 C559 0.929 . S
H548 C562 0.930 . S
H549 C564 0.960 . S
H550 C564 0.960 . S
H551 C564 0.960 1_554 S
C552 H544 0.929 . S
C552 C553 1.377 1_556 S
C552 C554 1.384 . S
C553 C552 1.377 1_554 S
C553 C559 1.390 . S
C554 H545 0.930 . S
C554 C552 1.384 . S
C554 C555 1.384 . S
C555 C554 1.384 . S
C555 C556 1.379 1_556 S
C555 C560 1.498 . S
C556 H546 0.930 . S
C556 C555 1.379 1_554 S
C556 C559 1.386 . S
H557 C573 0.930 . S
H558 C574 0.931 . S
C559 H547 0.929 . S
C559 C553 1.390 . S
C559 C556 1.386 . S
C560 C555 1.498 . S
C560 C562 1.395 . S
C560 C563 1.403 . S
H561 C567 0.930 . S
C562 H548 0.930 . S
C562 C560 1.395 . S
C562 C565 1.403 . S
C563 C560 1.403 . S
C563 C564 1.524 . S
C563 C567 1.400 . S
C564 H549 0.960 . S
C564 H550 0.960 . S
C564 H551 0.960 1_556 S
C564 C563 1.524 . S
C565 C562 1.403 . S
C565 C566 1.392 . S
C565 C569 1.495 . S
C566 C565 1.392 . S
C566 C567 1.385 . S
C566 C568 1.478 . S
C567 H561 0.930 . S
C567 C563 1.400 . S
C567 C566 1.385 . S
C568 C566 1.478 . S
C568 C570 1.381 . S
C568 C574 1.383 . S
C569 C565 1.495 . S
C569 H575 0.959 . S
C569 H576 0.961 . S
C569 H577 0.960 . S
C570 C568 1.381 . S
C570 C571 1.394 . S
C570 H578 0.930 . S
C571 C570 1.394 . S
C571 C572 1.383 . S
C571 H579 0.929 . S
C572 C571 1.383 . S
C572 C573 1.377 . S
C573 H557 0.930 . S
C573 C572 1.377 . S
C573 C574 1.379 . S
C574 H558 0.931 . S
C574 C568 1.383 . S
C574 C573 1.379 . S
H575 C569 0.959 . S
H576 C569 0.961 . S
H577 C569 0.960 . S
H578 C570 0.930 . S
H579 C571 0.929 . S
H580 C588 0.929 . S
H581 C590 0.930 . S
H582 C592 0.930 . S
H583 C595 0.929 . S
H584 C598 0.930 . S
H585 C600 0.960 . S
H586 C600 0.960 . S
H587 C600 0.942 1_556 S
C588 H580 0.929 . S
C588 C589 1.377 1_554 S
C588 C590 1.384 . S
C589 C588 1.377 1_556 S
C589 C595 1.390 . S
C590 H581 0.930 . S
C590 C588 1.384 . S
C590 C591 1.379 . S
C591 C590 1.379 . S
C591 C592 1.386 1_554 S
C591 C596 1.496 . S
C592 H582 0.930 . S
C592 C591 1.386 1_556 S
C592 C595 1.386 . S
H593 C609 0.930 . S
H594 C610 0.931 . S
C595 H583 0.929 . S
C595 C589 1.390 . S
C595 C592 1.386 . S
C596 C591 1.496 . S
C596 C598 1.395 . S
C596 C599 1.403 . S
H597 C603 0.930 . S
C598 H584 0.930 . S
C598 C596 1.395 . S
C598 C601 1.403 . S
C599 C596 1.403 . S
C599 C600 1.524 . S
C599 C603 1.400 . S
C600 H585 0.960 . S
C600 H586 0.960 . S
C600 H587 0.942 1_554 S
C600 C599 1.524 . S
C601 C598 1.403 . S
C601 C602 1.392 . S
C601 C605 1.495 . S
C602 C601 1.392 . S
C602 C603 1.385 . S
C602 C604 1.478 . S
C603 H597 0.930 . S
C603 C599 1.400 . S
C603 C602 1.385 . S
C604 C602 1.478 . S
C604 C606 1.381 . S
C604 C610 1.383 . S
C605 C601 1.495 . S
C605 H611 0.959 . S
C605 H612 0.961 . S
C605 H613 0.960 . S
C606 C604 1.381 . S
C606 C607 1.394 . S
C606 H614 0.930 . S
C607 C606 1.394 . S
C607 C608 1.383 . S
C607 H615 0.929 . S
C608 C607 1.383 . S
C608 C609 1.377 . S
C609 H593 0.930 . S
C609 C608 1.377 . S
C609 C610 1.379 . S
C610 H594 0.931 . S
C610 C604 1.383 . S
C610 C609 1.379 . S
H611 C605 0.959 . S
H612 C605 0.961 . S
H613 C605 0.960 . S
H614 C606 0.930 . S
H615 C607 0.929 . S
H616 C624 0.929 . S
H617 C626 0.930 . S
H618 C628 0.930 . S
H619 C631 0.929 . S
H620 C634 0.930 . S
H621 C636 0.960 . S
H622 C636 0.960 . S
H623 C636 0.960 . S
C624 H616 0.929 . S
C624 C625 1.377 1_455 S
C624 C626 1.384 . S
C625 C624 1.377 1_655 S
C625 C631 1.390 . S
C626 H617 0.930 . S
C626 C624 1.384 . S
C626 C627 1.372 1_455 S
C627 C626 1.372 1_655 S
C627 C628 1.400 . S
C627 C632 1.490 . S
C628 H618 0.930 . S
C628 C627 1.400 . S
C628 C631 1.386 . S
H629 C645 0.930 1_655 S
H630 C646 0.931 . S
C631 H619 0.929 . S
C631 C625 1.390 . S
C631 C628 1.386 . S
C632 C627 1.490 . S
C632 C634 1.395 1_655 S
C632 C635 1.403 . S
H633 C639 0.930 . S
C634 H620 0.930 . S
C634 C632 1.395 1_455 S
C634 C637 1.403 . S
C635 C632 1.403 . S
C635 C636 1.524 . S
C635 C639 1.400 . S
C636 H621 0.960 . S
C636 H622 0.960 . S
C636 H623 0.960 . S
C636 C635 1.524 . S
C637 C634 1.403 . S
C637 C638 1.392 . S
C637 C641 1.495 . S
C638 C637 1.392 . S
C638 C639 1.385 1_455 S
C638 C640 1.478 . S
C639 H633 0.930 . S
C639 C635 1.400 . S
C639 C638 1.385 1_655 S
C640 C638 1.478 . S
C640 C642 1.381 . S
C640 C646 1.383 1_455 S
C641 C637 1.495 . S
C641 H647 0.959 . S
C641 H648 0.961 . S
C641 H649 0.960 . S
C642 C640 1.381 . S
C642 C643 1.394 . S
C642 H650 0.930 . S
C643 C642 1.394 . S
C643 C644 1.383 . S
C643 H651 0.929 . S
C644 C643 1.383 . S
C644 C645 1.377 . S
C645 H629 0.930 1_455 S
C645 C644 1.377 . S
C645 C646 1.379 1_455 S
C646 H630 0.931 . S
C646 C640 1.383 1_655 S
C646 C645 1.379 1_655 S
H647 C641 0.959 . S
H648 C641 0.961 . S
H649 C641 0.960 . S
H650 C642 0.930 . S
H651 C643 0.929 . S
H652 C660 0.929 . S
H653 C662 0.930 . S
H654 C664 0.930 . S
H655 C667 0.929 . S
H656 C670 0.930 . S
H657 C672 0.960 . S
H658 C672 0.960 . S
H659 C672 0.960 . S
C660 H652 0.929 . S
C660 C661 1.377 1_565 S
C660 C662 1.384 . S
C661 C660 1.377 1_545 S
C661 C667 1.390 . S
C662 H653 0.930 . S
C662 C660 1.384 . S
C662 C663 1.372 1_565 S
C663 C662 1.372 1_545 S
C663 C664 1.400 . S
C663 C668 1.490 . S
C664 H654 0.930 . S
C664 C663 1.400 . S
C664 C667 1.386 . S
H665 C681 0.930 1_545 S
H666 C682 0.940 . S
C667 H655 0.929 . S
C667 C661 1.390 . S
C667 C664 1.386 . S
C668 C663 1.490 . S
C668 C670 1.395 1_545 S
C668 C671 1.403 . S
H669 C675 0.930 . S
C670 H656 0.930 . S
C670 C668 1.395 1_565 S
C670 C673 1.403 . S
C671 C668 1.403 . S
C671 C672 1.524 . S
C671 C675 1.400 . S
C672 H657 0.960 . S
C672 H658 0.960 . S
C672 H659 0.960 . S
C672 C671 1.524 . S
C673 C670 1.403 . S
C673 C674 1.392 . S
C673 C677 1.495 . S
C674 C673 1.392 . S
C674 C675 1.385 1_565 S
C674 C676 1.478 . S
C675 H669 0.930 . S
C675 C671 1.400 . S
C675 C674 1.385 1_545 S
C676 C674 1.478 . S
C676 C678 1.381 . S
C676 C682 1.375 1_565 S
C677 C673 1.495 . S
C677 H683 0.959 . S
C677 H684 0.961 . S
C677 H685 0.960 . S
C678 C676 1.381 . S
C678 C679 1.394 . S
C678 H686 0.930 . S
C679 C678 1.394 . S
C679 C680 1.383 . S
C679 H687 0.929 . S
C680 C679 1.383 . S
C680 C681 1.377 . S
C681 H665 0.930 1_565 S
C681 C680 1.377 . S
C681 C682 1.378 1_565 S
C682 H666 0.940 . S
C682 C676 1.375 1_545 S
C682 C681 1.378 1_545 S
H683 C677 0.959 . S
H684 C677 0.961 . S
H685 C677 0.960 . S
H686 C678 0.930 . S
H687 C679 0.929 . S
H688 C696 0.929 . S
H689 C698 0.930 . S
H690 C700 0.930 . S
H691 C703 0.929 . S
H692 C706 0.930 . S
H693 C708 0.960 . S
H694 C708 0.960 . S
H695 C708 0.960 . S
C696 H688 0.929 . S
C696 C697 1.377 . S
C696 C698 1.384 . S
C697 C696 1.377 . S
C697 C703 1.390 . S
C698 H689 0.930 . S
C698 C696 1.384 . S
C698 C699 1.372 . S
C699 C698 1.372 . S
C699 C700 1.400 . S
C699 C704 1.490 . S
C700 H690 0.930 . S
C700 C699 1.400 . S
C700 C703 1.386 . S
H701 C717 0.930 . S
H702 C718 0.931 . S
C703 H691 0.929 . S
C703 C697 1.390 . S
C703 C700 1.386 . S
C704 C699 1.490 . S
C704 C706 1.395 . S
C704 C707 1.403 . S
H705 C711 0.930 . S
C706 H692 0.930 . S
C706 C704 1.395 . S
C706 C709 1.403 1_545 S
C707 C704 1.403 . S
C707 C708 1.524 . S
C707 C711 1.400 1_545 S
C708 H693 0.960 . S
C708 H694 0.960 . S
C708 H695 0.960 . S
C708 C707 1.524 . S
C709 C706 1.403 1_565 S
C709 C710 1.392 . S
C709 C713 1.495 . S
C710 C709 1.392 . S
C710 C711 1.385 . S
C710 C712 1.478 . S
C711 H705 0.930 . S
C711 C707 1.400 1_565 S
C711 C710 1.385 . S
C712 C710 1.478 . S
C712 C714 1.381 . S
C712 C718 1.383 . S
C713 C709 1.495 . S
C713 H719 0.959 . S
C713 H720 0.961 . S
C713 H721 0.960 . S
C714 C712 1.381 . S
C714 C715 1.394 . S
C714 H722 0.930 . S
C715 C714 1.394 . S
C715 C716 1.383 . S
C715 H723 0.929 . S
C716 C715 1.383 . S
C716 C717 1.377 . S
C717 H701 0.930 . S
C717 C716 1.377 . S
C717 C718 1.379 . S
C718 H702 0.931 . S
C718 C712 1.383 . S
C718 C717 1.379 . S
H719 C713 0.959 . S
H720 C713 0.961 . S
H721 C713 0.960 . S
H722 C714 0.930 . S
H723 C715 0.929 . S
H724 C732 0.929 . S
H725 C734 0.930 . S
H726 C736 0.930 . S
H727 C739 0.929 . S
H728 C742 0.930 . S
H729 C744 0.951 1_655 S
H730 C744 0.960 . S
H731 C744 0.960 . S
C732 H724 0.929 . S
C732 C733 1.377 . S
C732 C734 1.384 . S
C733 C732 1.377 . S
C733 C739 1.390 . S
C734 H725 0.930 . S
C734 C732 1.384 . S
C734 C735 1.372 . S
C735 C734 1.372 . S
C735 C736 1.400 . S
C735 C740 1.490 . S
C736 H726 0.930 . S
C736 C735 1.400 . S
C736 C739 1.386 . S
H737 C753 0.930 . S
H738 C754 0.931 . S
C739 H727 0.929 . S
C739 C733 1.390 . S
C739 C736 1.386 . S
C740 C735 1.490 . S
C740 C742 1.395 . S
C740 C743 1.403 . S
H741 C747 0.930 . S
C742 H728 0.930 . S
C742 C740 1.395 . S
C742 C745 1.403 1_455 S
C743 C740 1.403 . S
C743 C744 1.524 . S
C743 C747 1.400 1_455 S
C744 H729 0.951 1_455 S
C744 H730 0.960 . S
C744 H731 0.960 . S
C744 C743 1.524 . S
C745 C742 1.403 1_655 S
C745 C746 1.392 . S
C745 C749 1.495 . S
C746 C745 1.392 . S
C746 C747 1.385 . S
C746 C748 1.478 . S
C747 H741 0.930 . S
C747 C743 1.400 1_655 S
C747 C746 1.385 . S
C748 C746 1.478 . S
C748 C750 1.381 . S
C748 C754 1.383 . S
C749 C745 1.495 . S
C749 H755 0.957 1_655 S
C749 H756 0.961 . S
C749 H757 0.960 . S
C750 C748 1.381 . S
C750 C751 1.394 . S
C750 H758 0.930 . S
C751 C750 1.394 . S
C751 C752 1.383 . S
C751 H759 0.929 . S
C752 C751 1.383 . S
C752 C753 1.377 . S
C753 H737 0.930 . S
C753 C752 1.377 . S
C753 C754 1.379 . S
C754 H738 0.931 . S
C754 C748 1.383 . S
C754 C753 1.379 . S
H755 C749 0.957 1_455 S
H756 C749 0.961 . S
H757 C749 0.960 . S
H758 C750 0.930 . S
H759 C751 0.929 . S
C193 N173 1.713 . S
C212 N12 1.707 . S
C229 N35 1.714 . S
C248 N104 1.700 . S
C265 N58 1.714 . S
C284 N127 1.703 . S
C301 N150 1.715 . S
C320 N81 1.719 . S
C337 N25 1.660 . S
C356 C16 1.715 . S
C373 C39 1.741 . S
C392 N48 1.645 . S
C409 N71 1.656 . S
C428 C62 1.723 . S
C445 C85 1.739 . S
C464 N2 1.659 . S
C481 N163 1.666 . S
C500 C108 1.731 . S
C517 C131 1.740 . S
C536 N94 1.637 . S
C553 N117 1.668 . S
C572 C154 1.719 . S
C589 N140 1.667 . S
C608 C177 1.749 . S
C625 C53 1.872 . S
C644 C7 1.855 . S
C661 C76 1.868 . S
C680 C30 1.864 . S
C697 C145 1.869 . S
C716 C99 1.855 . S
C733 C168 1.871 . S
C752 C122 1.858 . S
