# Generated by pormake.
# Topology hjm, (4)-cn, num edge types: 1
# Building blocks:
#     Node 0, Type 0, BuildingBlock: GALJAG_clean_sbu_0, # of connection points: 4
#     Node 1, Type 0, BuildingBlock: GALJAG_clean_sbu_0, # of connection points: 4
#     Node 2, Type 0, BuildingBlock: GALJAG_clean_sbu_0, # of connection points: 4
#     Node 3, Type 0, BuildingBlock: GALJAG_clean_sbu_0, # of connection points: 4
#     Node 4, Type 0, BuildingBlock: GALJAG_clean_sbu_0, # of connection points: 4
#     Node 5, Type 0, BuildingBlock: GALJAG_clean_sbu_0, # of connection points: 4
#     Node 6, Type 0, BuildingBlock: GALJAG_clean_sbu_0, # of connection points: 4
#     Node 7, Type 0, BuildingBlock: GALJAG_clean_sbu_0, # of connection points: 4
#     Edge 8, Type (0, 0), BuildingBlock: XIVTED_clean_linker_0, # of connection points: 2
#     Edge 9, Type (0, 0), BuildingBlock: XIVTED_clean_linker_0, # of connection points: 2
#     Edge 10, Type (0, 0), BuildingBlock: XIVTED_clean_linker_0, # of connection points: 2
#     Edge 11, Type (0, 0), BuildingBlock: XIVTED_clean_linker_0, # of connection points: 2
#     Edge 12, Type (0, 0), BuildingBlock: XIVTED_clean_linker_0, # of connection points: 2
#     Edge 13, Type (0, 0), BuildingBlock: XIVTED_clean_linker_0, # of connection points: 2
#     Edge 14, Type (0, 0), BuildingBlock: XIVTED_clean_linker_0, # of connection points: 2
#     Edge 15, Type (0, 0), BuildingBlock: XIVTED_clean_linker_0, # of connection points: 2
#     Edge 16, Type (0, 0), BuildingBlock: XIVTED_clean_linker_0, # of connection points: 2
#     Edge 17, Type (0, 0), BuildingBlock: XIVTED_clean_linker_0, # of connection points: 2
#     Edge 18, Type (0, 0), BuildingBlock: XIVTED_clean_linker_0, # of connection points: 2
#     Edge 19, Type (0, 0), BuildingBlock: XIVTED_clean_linker_0, # of connection points: 2
#     Edge 20, Type (0, 0), BuildingBlock: XIVTED_clean_linker_0, # of connection points: 2
#     Edge 21, Type (0, 0), BuildingBlock: XIVTED_clean_linker_0, # of connection points: 2
#     Edge 22, Type (0, 0), BuildingBlock: XIVTED_clean_linker_0, # of connection points: 2
#     Edge 23, Type (0, 0), BuildingBlock: XIVTED_clean_linker_0, # of connection points: 2
# Relax obj value: 0.069
# Max RMSD: 0.136
# Mean RMSD: 0.136
data_MOF--net-hjm--node1-GALJAG_clean_sbu_0--edge1-XIVTED_clean_linker_0
_symmetry_space_group_name_H-M    P1
_symmetry_Int_Tables_number       1
_symmetry_cell_setting            triclinic
loop_
_symmetry_equiv_pos_as_xyz
'x, y, z'
_cell_length_a     25.850215
_cell_length_b     21.381428
_cell_length_c     25.844063
_cell_angle_alpha  90.041064
_cell_angle_beta   69.988832
_cell_angle_gamma 90.009024
loop_
_atom_site_label
_atom_site_type_symbol
_atom_site_fract_x
_atom_site_fract_y
_atom_site_fract_z
_atom_type_partial_charge
In0 In 0.18322 0.24847 0.30894 0.0
O1 O 0.11204 0.31779 0.3295 0.0
O2 O 0.1643 0.32105 0.37752 0.0
C3 C 0.19707 0.24814 0.2007 0.0
C4 C 0.12261 0.15484 0.37005 0.0
C5 C 0.29123 0.24849 0.29589 0.0
O6 O 0.19201 0.29789 0.22827 0.0
O7 O 0.19365 0.19852 0.22805 0.0
O8 O 0.26359 0.1988 0.30108 0.0
O9 O 0.26407 0.29816 0.29873 0.0
C10 C 0.12246 0.34266 0.36912 0.0
O11 O 0.16259 0.17923 0.38014 0.0
O12 O 0.11408 0.17662 0.32833 0.0
In13 In 0.80994 0.24331 0.18057 0.0
O14 O 0.87941 0.31484 0.15955 0.0
O15 O 0.82894 0.3128 0.10966 0.0
C16 C 0.79823 0.24537 0.28833 0.0
C17 C 0.86977 0.14904 0.11949 0.0
C18 C 0.70144 0.24249 0.19583 0.0
O19 O 0.80068 0.29451 0.26062 0.0
O20 O 0.80323 0.19519 0.26133 0.0
O21 O 0.72874 0.19302 0.19352 0.0
O22 O 0.72916 0.29228 0.18904 0.0
C23 C 0.86964 0.33692 0.11857 0.0
O24 O 0.8276 0.17091 0.11193 0.0
O25 O 0.88096 0.17363 0.15878 0.0
In26 In 0.80727 0.7487 0.67973 0.0
O27 O 0.87887 0.67996 0.6584 0.0
O28 O 0.82598 0.67618 0.61107 0.0
C29 C 0.79383 0.74906 0.78788 0.0
C30 C 0.8675 0.84286 0.61907 0.0
C31 C 0.69921 0.74802 0.69303 0.0
O32 O 0.80034 0.69939 0.76 0.0
O33 O 0.79556 0.79863 0.76089 0.0
O34 O 0.72694 0.79777 0.68659 0.0
O35 O 0.7263 0.69853 0.69135 0.0
C36 C 0.86819 0.65495 0.61899 0.0
O37 O 0.8279 0.81804 0.60862 0.0
O38 O 0.87588 0.82123 0.66092 0.0
In39 In 0.18103 0.74307 0.80473 0.0
O40 O 0.16339 0.81582 0.87307 0.0
O41 O 0.10954 0.81214 0.82676 0.0
C42 C 0.28925 0.74336 0.79071 0.0
C43 C 0.12109 0.64929 0.86626 0.0
C44 C 0.19396 0.74224 0.69666 0.0
O45 O 0.2622 0.79295 0.79267 0.0
O46 O 0.26142 0.69368 0.79719 0.0
O47 O 0.19157 0.69277 0.72395 0.0
O48 O 0.18821 0.79206 0.72424 0.0
C49 C 0.12092 0.83719 0.86576 0.0
O50 O 0.11179 0.67117 0.82497 0.0
O51 O 0.16143 0.67366 0.87567 0.0
In52 In 0.68263 0.74304 0.30607 0.0
O53 O 0.61335 0.8147 0.32555 0.0
O54 O 0.66185 0.81231 0.37737 0.0
C55 C 0.69592 0.74214 0.19797 0.0
C56 C 0.62205 0.64871 0.36616 0.0
C57 C 0.79082 0.74525 0.2924 0.0
O58 O 0.69003 0.79196 0.22558 0.0
O59 O 0.69365 0.69265 0.22521 0.0
O60 O 0.76392 0.69505 0.29729 0.0
O61 O 0.76282 0.7944 0.2959 0.0
C62 C 0.62185 0.83659 0.36728 0.0
O63 O 0.6633 0.67115 0.37517 0.0
O64 O 0.61218 0.67277 0.32596 0.0
In65 In 0.30937 0.7471 0.17787 0.0
O66 O 0.37871 0.81871 0.15847 0.0
O67 O 0.32881 0.81805 0.10801 0.0
C68 C 0.29579 0.74758 0.28609 0.0
C69 C 0.37062 0.65383 0.11659 0.0
C70 C 0.20121 0.74536 0.19149 0.0
O71 O 0.29851 0.79713 0.25882 0.0
O72 O 0.30148 0.69781 0.25843 0.0
O73 O 0.22901 0.69612 0.18827 0.0
O74 O 0.22829 0.79547 0.18632 0.0
C75 C 0.3693 0.84172 0.11763 0.0
O76 O 0.32922 0.67622 0.10784 0.0
O77 O 0.38031 0.67742 0.1571 0.0
In78 In 0.31174 0.24325 0.68209 0.0
O79 O 0.38068 0.17117 0.66313 0.0
O80 O 0.33195 0.17306 0.61152 0.0
C81 C 0.2982 0.24259 0.79025 0.0
C82 C 0.37295 0.33671 0.62126 0.0
C83 C 0.20359 0.24505 0.6956 0.0
O84 O 0.30075 0.19307 0.76292 0.0
O85 O 0.30397 0.29239 0.7627 0.0
O86 O 0.23136 0.29426 0.69275 0.0
O87 O 0.2307 0.19493 0.69015 0.0
C88 C 0.37194 0.14884 0.62168 0.0
O89 O 0.33164 0.31431 0.61233 0.0
O90 O 0.3826 0.31301 0.66172 0.0
In91 In 0.68546 0.24686 0.80692 0.0
O92 O 0.61507 0.17651 0.82725 0.0
O93 O 0.66477 0.17732 0.8779 0.0
C94 C 0.69945 0.24574 0.69861 0.0
C95 C 0.62545 0.34188 0.8666 0.0
C96 C 0.79348 0.24531 0.79391 0.0
O97 O 0.69466 0.19638 0.72656 0.0
O98 O 0.69567 0.29575 0.7256 0.0
O99 O 0.76668 0.29541 0.79756 0.0
O100 O 0.76547 0.19602 0.79828 0.0
C101 C 0.62403 0.15401 0.8685 0.0
O102 O 0.66657 0.31922 0.87571 0.0
O103 O 0.61544 0.3177 0.82649 0.0
H104 H 0.13041 0.10417 0.46415 0.0
H105 H 0.85965 0.89365 0.52505 0.0
H106 H 0.03279 0.09766 0.35815 0.0
H107 H 0.9569 0.90062 0.6314 0.0
H108 H 0.92222 0.96903 0.46372 0.0
H109 H 0.06764 0.02911 0.5257 0.0
C110 C 0.09591 0.08666 0.4537 0.0
C111 C 0.08676 0.10708 0.406 0.0
C112 C 0.92983 0.95423 0.50054 0.0
C113 C 0.01457 0.02155 0.47635 0.0
C114 C 0.89403 0.91134 0.53563 0.0
C115 C 0.90316 0.89092 0.58334 0.0
C116 C 0.97512 0.97681 0.51323 0.0
C117 C 0.94837 0.91519 0.59502 0.0
C118 C 0.05999 0.04396 0.48892 0.0
C119 C 0.04136 0.08307 0.3945 0.0
N120 N 0.98275 0.95677 0.56013 0.0
N121 N 0.0069 0.04163 0.42949 0.0
H122 H 0.13626 0.89643 0.95311 0.0
H123 H 0.85469 0.09043 0.03173 0.0
H124 H 0.02492 0.88638 0.86134 0.0
H125 H 0.96541 0.09922 0.12422 0.0
H126 H 0.91629 0.01524 0.96906 0.0
H127 H 0.07465 0.97164 0.01571 0.0
C128 C 0.09895 0.91032 0.94599 0.0
C129 C 0.08563 0.88519 0.90201 0.0
C130 C 0.92708 0.03347 0.00313 0.0
C131 C 0.01474 0.97085 0.97366 0.0
C132 C 0.89185 0.07626 0.03899 0.0
C133 C 0.905 0.10103 0.08321 0.0
C134 C 0.97587 0.01541 0.01149 0.0
C135 C 0.95369 0.08119 0.09067 0.0
C136 C 0.06371 0.95312 0.98183 0.0
C137 C 0.03676 0.9047 0.89473 0.0
N138 N 0.98744 0.03963 0.05508 0.0
N139 N 0.00302 0.94629 0.93028 0.0
H140 H 0.46635 0.38857 0.62977 0.0
H141 H 0.52878 0.59668 0.35747 0.0
H142 H 0.36173 0.3927 0.53066 0.0
H143 H 0.63359 0.59215 0.45638 0.0
H144 H 0.4674 0.52132 0.42003 0.0
H145 H 0.52788 0.46366 0.56701 0.0
C146 C 0.45619 0.40556 0.59494 0.0
C147 C 0.40889 0.38446 0.58537 0.0
C148 C 0.50389 0.53665 0.428 0.0
C149 C 0.47923 0.47002 0.5132 0.0
C150 C 0.53902 0.57953 0.3922 0.0
C151 C 0.58631 0.60063 0.40179 0.0
C152 C 0.51614 0.51476 0.47375 0.0
C153 C 0.59754 0.57705 0.44747 0.0
C154 C 0.49141 0.44828 0.55903 0.0
C155 C 0.39778 0.40782 0.53955 0.0
N156 N 0.56264 0.53545 0.48182 0.0
N157 N 0.43275 0.44929 0.50511 0.0
H158 H 0.35918 0.5978 0.02603 0.0
H159 H 0.63754 0.39911 0.95636 0.0
H160 H 0.46438 0.60235 0.12453 0.0
H161 H 0.53209 0.39392 0.85812 0.0
H162 H 0.57521 0.47468 0.01779 0.0
H163 H 0.42192 0.52294 0.96407 0.0
C164 C 0.39537 0.58279 0.03474 0.0
C165 C 0.40662 0.60623 0.08047 0.0
C166 C 0.56575 0.45717 0.98273 0.0
C167 C 0.47879 0.52096 0.0096 0.0
C168 C 0.6014 0.41416 0.94757 0.0
C169 C 0.58992 0.39025 0.90212 0.0
C170 C 0.5182 0.47634 0.97242 0.0
C171 C 0.5425 0.41125 0.8927 0.0
C172 C 0.43126 0.54018 -0.00071 0.0
C173 C 0.45413 0.58535 0.08977 0.0
N174 N 0.50829 0.45299 0.92764 0.0
N175 N 0.48853 0.54397 0.05458 0.0
H176 H 0.85944 0.38799 0.02561 0.0
H177 H 0.13094 0.59829 0.95932 0.0
H178 H 0.96041 0.39404 0.12836 0.0
H179 H 0.03045 0.59205 0.8561 0.0
H180 H 0.06917 0.52298 0.02149 0.0
H181 H 0.92115 0.46333 0.96331 0.0
C182 C 0.89445 0.40546 0.03519 0.0
C183 C 0.90487 0.38481 0.08219 0.0
C184 C 0.06067 0.53792 0.98518 0.0
C185 C 0.97582 0.47067 0.01098 0.0
C186 C 0.09601 0.58078 0.9496 0.0
C187 C 0.08577 0.60137 0.90251 0.0
C188 C 0.0147 0.51551 0.9736 0.0
C189 C 0.03986 0.57734 0.89196 0.0
C190 C 0.92976 0.44833 -0.00045 0.0
C191 C 0.95088 0.40878 0.09257 0.0
N192 N 0.00595 0.53574 0.9273 0.0
N193 N 0.98471 0.45037 0.05719 0.0
H194 H 0.13587 0.40192 0.45736 0.0
H195 H 0.85468 0.59582 0.53068 0.0
H196 H 0.02745 0.39211 0.36243 0.0
H197 H 0.96349 0.60591 0.6252 0.0
H198 H 0.91711 0.52057 0.46888 0.0
H199 H 0.07355 0.47738 0.51893 0.0
C200 C 0.09906 0.41591 0.44934 0.0
C201 C 0.08676 0.39078 0.40477 0.0
C202 C 0.9273 0.53912 0.5032 0.0
C203 C 0.01506 0.47672 0.47522 0.0
C204 C 0.8916 0.58193 0.53856 0.0
C205 C 0.90397 0.60706 0.5831 0.0
C206 C 0.97576 0.52138 0.51241 0.0
C207 C 0.95237 0.58759 0.59137 0.0
C208 C 0.06342 0.45886 0.48457 0.0
C209 C 0.0385 0.41042 0.39631 0.0
N210 N 0.98656 0.54598 0.55628 0.0
N211 N 0.00433 0.45214 0.4313 0.0
H212 H 0.63329 0.10118 0.96119 0.0
H213 H 0.35937 0.89544 0.02556 0.0
H214 H 0.53237 0.09943 0.8583 0.0
H215 H 0.46043 0.89707 0.1283 0.0
H216 H 0.42168 0.97111 0.9643 0.0
H217 H 0.57054 0.0262 0.02284 0.0
C218 C 0.59804 0.08476 0.95145 0.0
C219 C 0.58799 0.10647 0.90458 0.0
C220 C 0.43017 0.95507 0.00032 0.0
C221 C 0.51583 0.02101 0.97507 0.0
C222 C 0.39453 0.91202 0.03537 0.0
C223 C 0.4048 0.89 0.08204 0.0
C224 C 0.47647 0.97621 0.01199 0.0
C225 C 0.45099 0.91288 0.09275 0.0
C226 C 0.56215 0.04208 0.98673 0.0
C227 C 0.54166 0.08381 0.89399 0.0
N228 N 0.48519 0.95465 0.05792 0.0
N229 N 0.50724 0.04237 0.92902 0.0
H230 H 0.53296 0.89482 0.35439 0.0
H231 H 0.4608 0.09061 0.63468 0.0
H232 H 0.62866 0.88645 0.46215 0.0
H233 H 0.36476 0.0983 0.52721 0.0
H234 H 0.52241 0.01515 0.57236 0.0
H235 H 0.47122 0.97003 0.41688 0.0
C236 C 0.54111 0.90906 0.3911 0.0
C237 C 0.58596 0.88443 0.40315 0.0
C238 C 0.4878 0.0332 0.56245 0.0
C239 C 0.51533 0.97009 0.47503 0.0
C240 C 0.45254 0.07615 0.59809 0.0
C241 C 0.40764 0.10068 0.58605 0.0
C242 C 0.47814 0.01476 0.51436 0.0
C243 C 0.39888 0.08045 0.53807 0.0
C244 C 0.50577 0.95186 0.42684 0.0
C245 C 0.59457 0.90438 0.45129 0.0
N246 N 0.4339 0.03876 0.5039 0.0
N247 N 0.5595 0.94596 0.48554 0.0
H248 H 0.27826 0.84856 0.35482 0.0
H249 H 0.21171 0.64116 0.62798 0.0
H250 H 0.28422 0.64685 0.35422 0.0
H251 H 0.205 0.84284 0.62853 0.0
H252 H 0.23767 0.64217 0.52771 0.0
H253 H 0.25221 0.84748 0.45508 0.0
C254 C 0.2744 0.80405 0.37579 0.0
C255 C 0.2834 0.7477 0.34622 0.0
C256 C 0.23037 0.68621 0.54974 0.0
C257 C 0.25321 0.74603 0.46094 0.0
C258 C 0.21537 0.68564 0.60699 0.0
C259 C 0.20619 0.74201 0.63655 0.0
C260 C 0.23629 0.74359 0.52184 0.0
C261 C 0.21166 0.7983 0.60731 0.0
C262 C 0.25935 0.80343 0.43304 0.0
C263 C 0.27769 0.69137 0.37545 0.0
N264 N 0.22648 0.79767 0.55154 0.0
N265 N 0.26284 0.69196 0.43122 0.0
H266 H 0.77384 0.84965 0.85721 0.0
H267 H 0.71552 0.64131 0.12882 0.0
H268 H 0.78566 0.64827 0.85524 0.0
H269 H 0.70434 0.84274 0.13045 0.0
H270 H 0.74049 0.64271 0.02864 0.0
H271 H 0.74884 0.84809 0.95735 0.0
C272 C 0.77148 0.80512 0.87786 0.0
C273 C 0.78184 0.749 0.84795 0.0
C274 C 0.73242 0.68661 0.0509 0.0
C275 C 0.75289 0.74677 0.96252 0.0
C276 C 0.718 0.68581 0.10809 0.0
C277 C 0.70785 0.742 0.13791 0.0
C278 C 0.73674 0.74403 0.02334 0.0
C279 C 0.71182 0.79833 0.10901 0.0
C280 C 0.75704 0.80423 0.93504 0.0
C281 C 0.77803 0.69263 0.87676 0.0
N282 N 0.72605 0.79792 0.05331 0.0
N283 N 0.76376 0.69294 0.93248 0.0
H284 H 0.78329 0.34742 0.3556 0.0
H285 H 0.71357 0.14392 0.63124 0.0
H286 H 0.78619 0.14565 0.35759 0.0
H287 H 0.71442 0.34574 0.62913 0.0
H288 H 0.73919 0.14361 0.53103 0.0
H289 H 0.75849 0.3479 0.45576 0.0
C290 C 0.77903 0.30322 0.37712 0.0
C291 C 0.78678 0.2464 0.34832 0.0
C292 C 0.73367 0.18799 0.55245 0.0
C293 C 0.75799 0.24653 0.46291 0.0
C294 C 0.71886 0.18818 0.60967 0.0
C295 C 0.71184 0.24495 0.63847 0.0
C296 C 0.74153 0.245 0.5238 0.0
C297 C 0.71936 0.30091 0.6085 0.0
C298 C 0.76472 0.3035 0.43431 0.0
C299 C 0.78062 0.19051 0.37822 0.0
N300 N 0.73389 0.29953 0.55276 0.0
N301 N 0.76644 0.19198 0.43392 0.0
H302 H 0.21093 0.34899 0.13241 0.0
H303 H 0.28181 0.1415 0.85865 0.0
H304 H 0.21223 0.14716 0.13218 0.0
H305 H 0.28584 0.34328 0.85862 0.0
H306 H 0.25609 0.14249 0.9589 0.0
H307 H 0.23676 0.34785 0.03217 0.0
C308 C 0.21635 0.30443 0.11125 0.0
C309 C 0.20943 0.24808 0.14057 0.0
C310 C 0.26276 0.18656 0.93698 0.0
C311 C 0.23936 0.24637 0.0259 0.0
C312 C 0.27759 0.18601 0.87975 0.0
C313 C 0.28596 0.2424 0.85035 0.0
C314 C 0.25613 0.24395 0.96502 0.0
C315 C 0.27981 0.29872 0.87972 0.0
C316 C 0.23128 0.30379 0.05401 0.0
C317 C 0.21711 0.19168 0.11113 0.0
N318 N 0.26513 0.29807 0.93547 0.0
N319 N 0.23176 0.19226 0.05538 0.0
H320 H 0.35996 0.3493 0.27885 0.0
H321 H 0.63257 0.14153 0.21542 0.0
H322 H 0.35909 0.1476 0.28513 0.0
H323 H 0.63343 0.34307 0.20617 0.0
H324 H 0.53233 0.14267 0.24132 0.0
H325 H 0.46008 0.34803 0.25381 0.0
C326 C 0.38085 0.30475 0.27527 0.0
C327 C 0.35126 0.24846 0.28405 0.0
C328 C 0.55442 0.18665 0.23349 0.0
C329 C 0.46581 0.24657 0.25504 0.0
C330 C 0.61165 0.18601 0.21856 0.0
C331 C 0.64128 0.2423 0.20861 0.0
C332 C 0.52664 0.24403 0.23858 0.0
C333 C 0.61214 0.29859 0.21343 0.0
C334 C 0.43802 0.30403 0.26081 0.0
C335 C 0.38036 0.19208 0.27873 0.0
N336 N 0.5564 0.29803 0.22817 0.0
N337 N 0.43607 0.19256 0.26446 0.0
H338 H 0.63185 0.84859 0.70039 0.0
H339 H 0.35661 0.64262 0.78279 0.0
H340 H 0.63001 0.64733 0.71337 0.0
H341 H 0.35853 0.84395 0.77044 0.0
H342 H 0.45676 0.64333 0.75788 0.0
H343 H 0.53174 0.84779 0.72512 0.0
C344 C 0.61036 0.8042 0.70817 0.0
C345 C 0.63919 0.74794 0.70484 0.0
C346 C 0.43529 0.68738 0.76073 0.0
C347 C 0.52467 0.74663 0.73354 0.0
C348 C 0.37812 0.687 0.7751 0.0
C349 C 0.3493 0.74332 0.77868 0.0
C350 C 0.46384 0.74451 0.74979 0.0
C351 C 0.37917 0.79946 0.76819 0.0
C352 C 0.55321 0.80377 0.72244 0.0
C353 C 0.60934 0.69177 0.71543 0.0
N354 N 0.43485 0.79862 0.75411 0.0
N355 N 0.55367 0.69256 0.72942 0.0
H356 H 0.13366 0.6435 0.20793 0.0
H357 H 0.85825 0.84728 0.27592 0.0
H358 H 0.13199 0.84525 0.20392 0.0
H359 H 0.86014 0.64554 0.28001 0.0
H360 H 0.95849 0.84764 0.25019 0.0
H361 H 0.03345 0.64328 0.23365 0.0
C362 C 0.11219 0.68775 0.21215 0.0
C363 C 0.14111 0.74449 0.20378 0.0
C364 C 0.937 0.80328 0.25686 0.0
C365 C 0.02645 0.74466 0.23359 0.0
C366 C 0.87977 0.80307 0.27172 0.0
C367 C 0.85091 0.74629 0.28011 0.0
C368 C 0.96557 0.74627 0.2503 0.0
C369 C 0.88081 0.69038 0.27396 0.0
C370 C 0.05498 0.68762 0.22701 0.0
C371 C 0.11127 0.80045 0.20995 0.0
N372 N 0.93653 0.69178 0.25932 0.0
N373 N 0.05554 0.79913 0.2246 0.0
H374 H 0.13611 0.34698 0.71217 0.0
H375 H 0.86072 0.14336 0.77948 0.0
H376 H 0.13437 0.14524 0.70753 0.0
H377 H 0.86284 0.34517 0.78064 0.0
H378 H 0.96086 0.143 0.75458 0.0
H379 H 0.03595 0.34732 0.73741 0.0
C380 C 0.11464 0.30275 0.71616 0.0
C381 C 0.14352 0.24599 0.70772 0.0
C382 C 0.93944 0.18738 0.76041 0.0
C383 C 0.02892 0.24595 0.73698 0.0
C384 C 0.88226 0.1876 0.7748 0.0
C385 C 0.8535 0.24439 0.78211 0.0
C386 C 0.96807 0.24439 0.75327 0.0
C387 C 0.88344 0.30033 0.7754 0.0
C388 C 0.05745 0.30296 0.73072 0.0
C389 C 0.11367 0.19007 0.7136 0.0
N390 N 0.93912 0.29892 0.76126 0.0
N391 N 0.05797 0.19145 0.72798 0.0
loop_
_geom_bond_atom_site_label_1
_geom_bond_atom_site_label_2
_geom_bond_distance
_geom_bond_site_symmetry_2
_ccdc_geom_bond_type
In0 O1 2.294 . S
In0 O2 2.326 . S
In0 O6 2.266 . S
In0 O7 2.326 . S
In0 O8 2.266 . S
In0 O9 2.326 . S
In0 O11 2.294 . S
In0 O12 2.326 . S
O1 In0 2.294 . S
O1 C10 1.240 . S
O2 In0 2.326 . S
O2 C10 1.252 . S
C3 O6 1.252 . S
C3 O7 1.260 . S
C4 O11 1.240 . S
C4 O12 1.252 . S
C5 O8 1.252 . S
C5 O9 1.260 . S
O6 In0 2.266 . S
O6 C3 1.252 . S
O7 In0 2.326 . S
O7 C3 1.260 . S
O8 In0 2.266 . S
O8 C5 1.252 . S
O9 In0 2.326 . S
O9 C5 1.260 . S
C10 O1 1.240 . S
C10 O2 1.252 . S
O11 In0 2.294 . S
O11 C4 1.240 . S
O12 In0 2.326 . S
O12 C4 1.252 . S
In13 O14 2.294 . S
In13 O15 2.326 . S
In13 O19 2.266 . S
In13 O20 2.326 . S
In13 O21 2.266 . S
In13 O22 2.326 . S
In13 O24 2.294 . S
In13 O25 2.326 . S
O14 In13 2.294 . S
O14 C23 1.240 . S
O15 In13 2.326 . S
O15 C23 1.252 . S
C16 O19 1.252 . S
C16 O20 1.260 . S
C17 O24 1.240 . S
C17 O25 1.252 . S
C18 O21 1.252 . S
C18 O22 1.260 . S
O19 In13 2.266 . S
O19 C16 1.252 . S
O20 In13 2.326 . S
O20 C16 1.260 . S
O21 In13 2.266 . S
O21 C18 1.252 . S
O22 In13 2.326 . S
O22 C18 1.260 . S
C23 O14 1.240 . S
C23 O15 1.252 . S
O24 In13 2.294 . S
O24 C17 1.240 . S
O25 In13 2.326 . S
O25 C17 1.252 . S
In26 O27 2.294 . S
In26 O28 2.326 . S
In26 O32 2.266 . S
In26 O33 2.326 . S
In26 O34 2.266 . S
In26 O35 2.326 . S
In26 O37 2.294 . S
In26 O38 2.326 . S
O27 In26 2.294 . S
O27 C36 1.240 . S
O28 In26 2.326 . S
O28 C36 1.252 . S
C29 O32 1.252 . S
C29 O33 1.260 . S
C30 O37 1.240 . S
C30 O38 1.252 . S
C31 O34 1.252 . S
C31 O35 1.260 . S
O32 In26 2.266 . S
O32 C29 1.252 . S
O33 In26 2.326 . S
O33 C29 1.260 . S
O34 In26 2.266 . S
O34 C31 1.252 . S
O35 In26 2.326 . S
O35 C31 1.260 . S
C36 O27 1.240 . S
C36 O28 1.252 . S
O37 In26 2.294 . S
O37 C30 1.240 . S
O38 In26 2.326 . S
O38 C30 1.252 . S
In39 O40 2.294 . S
In39 O41 2.326 . S
In39 O45 2.266 . S
In39 O46 2.326 . S
In39 O47 2.266 . S
In39 O48 2.326 . S
In39 O50 2.294 . S
In39 O51 2.326 . S
O40 In39 2.294 . S
O40 C49 1.240 . S
O41 In39 2.326 . S
O41 C49 1.252 . S
C42 O45 1.252 . S
C42 O46 1.260 . S
C43 O50 1.240 . S
C43 O51 1.252 . S
C44 O47 1.252 . S
C44 O48 1.260 . S
O45 In39 2.266 . S
O45 C42 1.252 . S
O46 In39 2.326 . S
O46 C42 1.260 . S
O47 In39 2.266 . S
O47 C44 1.252 . S
O48 In39 2.326 . S
O48 C44 1.260 . S
C49 O40 1.240 . S
C49 O41 1.252 . S
O50 In39 2.294 . S
O50 C43 1.240 . S
O51 In39 2.326 . S
O51 C43 1.252 . S
In52 O53 2.294 . S
In52 O54 2.326 . S
In52 O58 2.266 . S
In52 O59 2.326 . S
In52 O60 2.266 . S
In52 O61 2.326 . S
In52 O63 2.294 . S
In52 O64 2.326 . S
O53 In52 2.294 . S
O53 C62 1.240 . S
O54 In52 2.326 . S
O54 C62 1.252 . S
C55 O58 1.252 . S
C55 O59 1.260 . S
C56 O63 1.240 . S
C56 O64 1.252 . S
C57 O60 1.252 . S
C57 O61 1.260 . S
O58 In52 2.266 . S
O58 C55 1.252 . S
O59 In52 2.326 . S
O59 C55 1.260 . S
O60 In52 2.266 . S
O60 C57 1.252 . S
O61 In52 2.326 . S
O61 C57 1.260 . S
C62 O53 1.240 . S
C62 O54 1.252 . S
O63 In52 2.294 . S
O63 C56 1.240 . S
O64 In52 2.326 . S
O64 C56 1.252 . S
In65 O66 2.294 . S
In65 O67 2.326 . S
In65 O71 2.266 . S
In65 O72 2.326 . S
In65 O73 2.266 . S
In65 O74 2.326 . S
In65 O76 2.294 . S
In65 O77 2.326 . S
O66 In65 2.294 . S
O66 C75 1.240 . S
O67 In65 2.326 . S
O67 C75 1.252 . S
C68 O71 1.252 . S
C68 O72 1.260 . S
C69 O76 1.240 . S
C69 O77 1.252 . S
C70 O73 1.252 . S
C70 O74 1.260 . S
O71 In65 2.266 . S
O71 C68 1.252 . S
O72 In65 2.326 . S
O72 C68 1.260 . S
O73 In65 2.266 . S
O73 C70 1.252 . S
O74 In65 2.326 . S
O74 C70 1.260 . S
C75 O66 1.240 . S
C75 O67 1.252 . S
O76 In65 2.294 . S
O76 C69 1.240 . S
O77 In65 2.326 . S
O77 C69 1.252 . S
In78 O79 2.294 . S
In78 O80 2.326 . S
In78 O84 2.266 . S
In78 O85 2.326 . S
In78 O86 2.266 . S
In78 O87 2.326 . S
In78 O89 2.294 . S
In78 O90 2.326 . S
O79 In78 2.294 . S
O79 C88 1.240 . S
O80 In78 2.326 . S
O80 C88 1.252 . S
C81 O84 1.252 . S
C81 O85 1.260 . S
C82 O89 1.240 . S
C82 O90 1.252 . S
C83 O86 1.252 . S
C83 O87 1.260 . S
O84 In78 2.266 . S
O84 C81 1.252 . S
O85 In78 2.326 . S
O85 C81 1.260 . S
O86 In78 2.266 . S
O86 C83 1.252 . S
O87 In78 2.326 . S
O87 C83 1.260 . S
C88 O79 1.240 . S
C88 O80 1.252 . S
O89 In78 2.294 . S
O89 C82 1.240 . S
O90 In78 2.326 . S
O90 C82 1.252 . S
In91 O92 2.294 . S
In91 O93 2.326 . S
In91 O97 2.266 . S
In91 O98 2.326 . S
In91 O99 2.266 . S
In91 O100 2.326 . S
In91 O102 2.294 . S
In91 O103 2.326 . S
O92 In91 2.294 . S
O92 C101 1.240 . S
O93 In91 2.326 . S
O93 C101 1.252 . S
C94 O97 1.252 . S
C94 O98 1.260 . S
C95 O102 1.240 . S
C95 O103 1.252 . S
C96 O99 1.252 . S
C96 O100 1.260 . S
O97 In91 2.266 . S
O97 C94 1.252 . S
O98 In91 2.326 . S
O98 C94 1.260 . S
O99 In91 2.266 . S
O99 C96 1.252 . S
O100 In91 2.326 . S
O100 C96 1.260 . S
C101 O92 1.240 . S
C101 O93 1.252 . S
O102 In91 2.294 . S
O102 C95 1.240 . S
O103 In91 2.326 . S
O103 C95 1.252 . S
H104 C110 0.930 . S
H105 C114 0.930 . S
H106 C119 0.929 . S
H107 C117 0.929 . S
H108 C112 0.929 . S
H109 C118 0.929 . S
C110 H104 0.930 . S
C110 C111 1.367 . S
C110 C118 1.378 . S
C111 C110 1.367 . S
C111 C119 1.433 . S
C112 H108 0.929 . S
C112 C114 1.378 . S
C112 C116 1.350 . S
C113 C116 1.463 1_445 S
C113 C118 1.350 . S
C113 N121 1.427 . S
C114 H105 0.930 . S
C114 C112 1.378 . S
C114 C115 1.367 . S
C115 C114 1.367 . S
C115 C117 1.433 . S
C116 C112 1.350 . S
C116 C113 1.463 1_665 S
C116 N120 1.427 . S
C117 H107 0.929 . S
C117 C115 1.433 . S
C117 N120 1.384 . S
C118 H109 0.929 . S
C118 C110 1.378 . S
C118 C113 1.350 . S
C119 H106 0.929 . S
C119 C111 1.433 . S
C119 N121 1.384 . S
N120 C116 1.427 . S
N120 C117 1.384 . S
N121 C113 1.427 . S
N121 C119 1.384 . S
H122 C128 0.930 . S
H123 C132 0.930 . S
H124 C137 0.929 1_655 S
H125 C135 0.929 1_455 S
H126 C130 0.929 . S
H127 C136 0.929 . S
C128 H122 0.930 . S
C128 C129 1.367 . S
C128 C136 1.378 . S
C129 C128 1.367 . S
C129 C137 1.433 . S
C130 H126 0.929 . S
C130 C132 1.378 . S
C130 C134 1.350 . S
C131 C134 1.463 1_466 S
C131 C136 1.350 . S
C131 N139 1.427 1_455 S
C132 H123 0.930 . S
C132 C130 1.378 . S
C132 C133 1.367 . S
C133 C132 1.367 . S
C133 C135 1.433 . S
C134 C130 1.350 . S
C134 C131 1.463 1_644 S
C134 N138 1.427 1_655 S
C135 H125 0.929 1_655 S
C135 C133 1.433 . S
C135 N138 1.384 1_655 S
C136 H127 0.929 . S
C136 C128 1.378 . S
C136 C131 1.350 . S
C137 H124 0.929 1_455 S
C137 C129 1.433 . S
C137 N139 1.384 1_455 S
N138 C134 1.427 1_455 S
N138 C135 1.384 1_455 S
N139 C131 1.427 1_655 S
N139 C137 1.384 1_655 S
H140 C146 0.930 . S
H141 C150 0.930 . S
H142 C155 0.929 . S
H143 C153 0.929 . S
H144 C148 0.929 . S
H145 C154 0.929 . S
C146 H140 0.930 . S
C146 C147 1.367 . S
C146 C154 1.378 . S
C147 C146 1.367 . S
C147 C155 1.433 . S
C148 H144 0.929 . S
C148 C150 1.378 . S
C148 C152 1.350 . S
C149 C152 1.463 . S
C149 C154 1.350 . S
C149 N157 1.427 . S
C150 H141 0.930 . S
C150 C148 1.378 . S
C150 C151 1.367 . S
C151 C150 1.367 . S
C151 C153 1.433 . S
C152 C148 1.350 . S
C152 C149 1.463 . S
C152 N156 1.427 . S
C153 H143 0.929 . S
C153 C151 1.433 . S
C153 N156 1.384 . S
C154 H145 0.929 . S
C154 C146 1.378 . S
C154 C149 1.350 . S
C155 H142 0.929 . S
C155 C147 1.433 . S
C155 N157 1.384 . S
N156 C152 1.427 . S
N156 C153 1.384 . S
N157 C149 1.427 . S
N157 C155 1.384 . S
H158 C164 0.930 . S
H159 C168 0.930 . S
H160 C173 0.929 . S
H161 C171 0.929 . S
H162 C166 0.929 1_554 S
H163 C172 0.929 1_556 S
C164 H158 0.930 . S
C164 C165 1.367 . S
C164 C172 1.378 . S
C165 C164 1.367 . S
C165 C173 1.433 . S
C166 H162 0.929 1_556 S
C166 C168 1.378 . S
C166 C170 1.350 . S
C167 C170 1.463 1_554 S
C167 C172 1.350 . S
C167 N175 1.427 . S
C168 H159 0.930 . S
C168 C166 1.378 . S
C168 C169 1.367 . S
C169 C168 1.367 . S
C169 C171 1.433 . S
C170 C166 1.350 . S
C170 C167 1.463 1_556 S
C170 N174 1.427 . S
C171 H161 0.929 . S
C171 C169 1.433 . S
C171 N174 1.384 . S
C172 H163 0.929 1_554 S
C172 C164 1.378 . S
C172 C167 1.350 . S
C173 H160 0.929 . S
C173 C165 1.433 . S
C173 N175 1.384 . S
N174 C170 1.427 . S
N174 C171 1.384 . S
N175 C167 1.427 . S
N175 C173 1.384 . S
H176 C182 0.930 . S
H177 C186 0.930 . S
H178 C191 0.929 . S
H179 C189 0.929 . S
H180 C184 0.940 1_655 S
H181 C190 0.940 1_455 S
C182 H176 0.930 . S
C182 C183 1.367 . S
C182 C190 1.372 1_554 S
C183 C182 1.367 . S
C183 C191 1.433 . S
C184 H180 0.940 1_455 S
C184 C186 1.372 1_554 S
C184 C188 1.345 1_554 S
C185 C188 1.463 1_654 S
C185 C190 1.345 1_554 S
C185 N193 1.427 . S
C186 H177 0.930 . S
C186 C184 1.372 1_556 S
C186 C187 1.367 . S
C187 C186 1.367 . S
C187 C189 1.433 . S
C188 C184 1.345 1_556 S
C188 C185 1.463 1_456 S
C188 N192 1.427 . S
C189 H179 0.929 . S
C189 C187 1.433 . S
C189 N192 1.384 . S
C190 H181 0.940 1_655 S
C190 C182 1.372 1_556 S
C190 C185 1.345 1_556 S
C191 H178 0.929 . S
C191 C183 1.433 . S
C191 N193 1.384 . S
N192 C188 1.427 . S
N192 C189 1.384 . S
N193 C185 1.427 . S
N193 C191 1.384 . S
H194 C200 0.930 . S
H195 C204 0.930 . S
H196 C209 0.929 . S
H197 C207 0.929 . S
H198 C202 0.929 . S
H199 C208 0.929 . S
C200 H194 0.930 . S
C200 C201 1.367 . S
C200 C208 1.378 . S
C201 C200 1.367 . S
C201 C209 1.433 . S
C202 H198 0.929 . S
C202 C204 1.378 . S
C202 C206 1.350 . S
C203 C206 1.463 1_455 S
C203 C208 1.350 . S
C203 N211 1.427 . S
C204 H195 0.930 . S
C204 C202 1.378 . S
C204 C205 1.367 . S
C205 C204 1.367 . S
C205 C207 1.433 . S
C206 C202 1.350 . S
C206 C203 1.463 1_655 S
C206 N210 1.427 . S
C207 H197 0.929 . S
C207 C205 1.433 . S
C207 N210 1.384 . S
C208 H199 0.929 . S
C208 C200 1.378 . S
C208 C203 1.350 . S
C209 H196 0.929 . S
C209 C201 1.433 . S
C209 N211 1.384 . S
N210 C206 1.427 . S
N210 C207 1.384 . S
N211 C203 1.427 . S
N211 C209 1.384 . S
H212 C218 0.930 . S
H213 C222 0.930 . S
H214 C227 0.929 . S
H215 C225 0.929 . S
H216 C220 0.929 . S
H217 C226 0.929 . S
C218 H212 0.930 . S
C218 C219 1.367 . S
C218 C226 1.378 1_556 S
C219 C218 1.367 . S
C219 C227 1.433 . S
C220 H216 0.929 . S
C220 C222 1.378 1_556 S
C220 C224 1.350 1_556 S
C221 C224 1.463 1_546 S
C221 C226 1.350 1_556 S
C221 N229 1.433 . S
C222 H213 0.930 . S
C222 C220 1.378 1_554 S
C222 C223 1.367 . S
C223 C222 1.367 . S
C223 C225 1.433 . S
C224 C220 1.350 1_554 S
C224 C221 1.463 1_564 S
C224 N228 1.433 . S
C225 H215 0.929 . S
C225 C223 1.433 . S
C225 N228 1.395 . S
C226 H217 0.929 . S
C226 C218 1.378 1_554 S
C226 C221 1.350 1_554 S
C227 H214 0.929 . S
C227 C219 1.433 . S
C227 N229 1.395 . S
N228 C224 1.433 . S
N228 C225 1.395 . S
N229 C221 1.433 . S
N229 C227 1.395 . S
H230 C236 0.930 . S
H231 C240 0.930 . S
H232 C245 0.929 . S
H233 C243 0.929 . S
H234 C238 0.929 1_565 S
H235 C244 0.929 1_545 S
C236 H230 0.930 . S
C236 C237 1.367 . S
C236 C244 1.378 . S
C237 C236 1.367 . S
C237 C245 1.433 . S
C238 H234 0.929 1_545 S
C238 C240 1.378 . S
C238 C242 1.350 . S
C239 C242 1.463 1_565 S
C239 C244 1.350 . S
C239 N247 1.427 . S
C240 H231 0.930 . S
C240 C238 1.378 . S
C240 C241 1.367 . S
C241 C240 1.367 . S
C241 C243 1.433 . S
C242 C238 1.350 . S
C242 C239 1.463 1_545 S
C242 N246 1.427 . S
C243 H233 0.929 . S
C243 C241 1.433 . S
C243 N246 1.384 . S
C244 H235 0.929 1_565 S
C244 C236 1.378 . S
C244 C239 1.350 . S
C245 H232 0.929 . S
C245 C237 1.433 . S
C245 N247 1.384 . S
N246 C242 1.427 . S
N246 C243 1.384 . S
N247 C239 1.427 . S
N247 C245 1.384 . S
H248 C254 0.930 . S
H249 C258 0.930 . S
H250 C263 0.929 . S
H251 C261 0.929 . S
H252 C256 0.929 . S
H253 C262 0.929 . S
C254 H248 0.930 . S
C254 C255 1.367 . S
C254 C262 1.378 . S
C255 C254 1.367 . S
C255 C263 1.433 . S
C256 H252 0.929 . S
C256 C258 1.378 . S
C256 C260 1.350 . S
C257 C260 1.463 . S
C257 C262 1.350 . S
C257 N265 1.427 . S
C258 H249 0.930 . S
C258 C256 1.378 . S
C258 C259 1.367 . S
C259 C258 1.367 . S
C259 C261 1.433 . S
C260 C256 1.350 . S
C260 C257 1.463 . S
C260 N264 1.427 . S
C261 H251 0.929 . S
C261 C259 1.433 . S
C261 N264 1.384 . S
C262 H253 0.929 . S
C262 C254 1.378 . S
C262 C257 1.350 . S
C263 H250 0.929 . S
C263 C255 1.433 . S
C263 N265 1.384 . S
N264 C260 1.427 . S
N264 C261 1.384 . S
N265 C257 1.427 . S
N265 C263 1.384 . S
H266 C272 0.930 . S
H267 C276 0.930 . S
H268 C281 0.929 . S
H269 C279 0.929 . S
H270 C274 0.929 . S
H271 C280 0.929 . S
C272 H266 0.930 . S
C272 C273 1.367 . S
C272 C280 1.378 . S
C273 C272 1.367 . S
C273 C281 1.433 . S
C274 H270 0.929 . S
C274 C276 1.378 . S
C274 C278 1.350 . S
C275 C278 1.463 1_556 S
C275 C280 1.350 . S
C275 N283 1.427 . S
C276 H267 0.930 . S
C276 C274 1.378 . S
C276 C277 1.367 . S
C277 C276 1.367 . S
C277 C279 1.433 . S
C278 C274 1.350 . S
C278 C275 1.463 1_554 S
C278 N282 1.427 . S
C279 H269 0.929 . S
C279 C277 1.433 . S
C279 N282 1.384 . S
C280 H271 0.929 . S
C280 C272 1.378 . S
C280 C275 1.350 . S
C281 H268 0.929 . S
C281 C273 1.433 . S
C281 N283 1.384 . S
N282 C278 1.427 . S
N282 C279 1.384 . S
N283 C275 1.427 . S
N283 C281 1.384 . S
H284 C290 0.930 . S
H285 C294 0.930 . S
H286 C299 0.929 . S
H287 C297 0.929 . S
H288 C292 0.929 . S
H289 C298 0.929 . S
C290 H284 0.930 . S
C290 C291 1.367 . S
C290 C298 1.378 . S
C291 C290 1.367 . S
C291 C299 1.433 . S
C292 H288 0.929 . S
C292 C294 1.378 . S
C292 C296 1.350 . S
C293 C296 1.463 . S
C293 C298 1.350 . S
C293 N301 1.427 . S
C294 H285 0.930 . S
C294 C292 1.378 . S
C294 C295 1.367 . S
C295 C294 1.367 . S
C295 C297 1.433 . S
C296 C292 1.350 . S
C296 C293 1.463 . S
C296 N300 1.427 . S
C297 H287 0.929 . S
C297 C295 1.433 . S
C297 N300 1.384 . S
C298 H289 0.929 . S
C298 C290 1.378 . S
C298 C293 1.350 . S
C299 H286 0.929 . S
C299 C291 1.433 . S
C299 N301 1.384 . S
N300 C296 1.427 . S
N300 C297 1.384 . S
N301 C293 1.427 . S
N301 C299 1.384 . S
H302 C308 0.930 . S
H303 C312 0.930 . S
H304 C317 0.929 . S
H305 C315 0.929 . S
H306 C310 0.929 . S
H307 C316 0.929 . S
C308 H302 0.930 . S
C308 C309 1.367 . S
C308 C316 1.378 . S
C309 C308 1.367 . S
C309 C317 1.433 . S
C310 H306 0.929 . S
C310 C312 1.378 . S
C310 C314 1.350 . S
C311 C314 1.463 1_554 S
C311 C316 1.350 . S
C311 N319 1.427 . S
C312 H303 0.930 . S
C312 C310 1.378 . S
C312 C313 1.367 . S
C313 C312 1.367 . S
C313 C315 1.433 . S
C314 C310 1.350 . S
C314 C311 1.463 1_556 S
C314 N318 1.427 . S
C315 H305 0.929 . S
C315 C313 1.433 . S
C315 N318 1.384 . S
C316 H307 0.929 . S
C316 C308 1.378 . S
C316 C311 1.350 . S
C317 H304 0.929 . S
C317 C309 1.433 . S
C317 N319 1.384 . S
N318 C314 1.427 . S
N318 C315 1.384 . S
N319 C311 1.427 . S
N319 C317 1.384 . S
H320 C326 0.930 . S
H321 C330 0.930 . S
H322 C335 0.929 . S
H323 C333 0.929 . S
H324 C328 0.929 . S
H325 C334 0.929 . S
C326 H320 0.930 . S
C326 C327 1.367 . S
C326 C334 1.378 . S
C327 C326 1.367 . S
C327 C335 1.433 . S
C328 H324 0.929 . S
C328 C330 1.378 . S
C328 C332 1.350 . S
C329 C332 1.463 . S
C329 C334 1.350 . S
C329 N337 1.427 . S
C330 H321 0.930 . S
C330 C328 1.378 . S
C330 C331 1.367 . S
C331 C330 1.367 . S
C331 C333 1.433 . S
C332 C328 1.350 . S
C332 C329 1.463 . S
C332 N336 1.427 . S
C333 H323 0.929 . S
C333 C331 1.433 . S
C333 N336 1.384 . S
C334 H325 0.929 . S
C334 C326 1.378 . S
C334 C329 1.350 . S
C335 H322 0.929 . S
C335 C327 1.433 . S
C335 N337 1.384 . S
N336 C332 1.427 . S
N336 C333 1.384 . S
N337 C329 1.427 . S
N337 C335 1.384 . S
H338 C344 0.930 . S
H339 C348 0.930 . S
H340 C353 0.929 . S
H341 C351 0.929 . S
H342 C346 0.929 . S
H343 C352 0.929 . S
C344 H338 0.930 . S
C344 C345 1.367 . S
C344 C352 1.378 . S
C345 C344 1.367 . S
C345 C353 1.433 . S
C346 H342 0.929 . S
C346 C348 1.378 . S
C346 C350 1.350 . S
C347 C350 1.463 . S
C347 C352 1.350 . S
C347 N355 1.427 . S
C348 H339 0.930 . S
C348 C346 1.378 . S
C348 C349 1.367 . S
C349 C348 1.367 . S
C349 C351 1.433 . S
C350 C346 1.350 . S
C350 C347 1.463 . S
C350 N354 1.427 . S
C351 H341 0.929 . S
C351 C349 1.433 . S
C351 N354 1.384 . S
C352 H343 0.929 . S
C352 C344 1.378 . S
C352 C347 1.350 . S
C353 H340 0.929 . S
C353 C345 1.433 . S
C353 N355 1.384 . S
N354 C350 1.427 . S
N354 C351 1.384 . S
N355 C347 1.427 . S
N355 C353 1.384 . S
H356 C362 0.930 . S
H357 C366 0.930 . S
H358 C371 0.929 . S
H359 C369 0.929 . S
H360 C364 0.929 . S
H361 C370 0.929 . S
C362 H356 0.930 . S
C362 C363 1.367 . S
C362 C370 1.378 . S
C363 C362 1.367 . S
C363 C371 1.433 . S
C364 H360 0.929 . S
C364 C366 1.378 . S
C364 C368 1.350 . S
C365 C368 1.463 1_455 S
C365 C370 1.350 . S
C365 N373 1.427 . S
C366 H357 0.930 . S
C366 C364 1.378 . S
C366 C367 1.367 . S
C367 C366 1.367 . S
C367 C369 1.433 . S
C368 C364 1.350 . S
C368 C365 1.463 1_655 S
C368 N372 1.427 . S
C369 H359 0.929 . S
C369 C367 1.433 . S
C369 N372 1.384 . S
C370 H361 0.929 . S
C370 C362 1.378 . S
C370 C365 1.350 . S
C371 H358 0.929 . S
C371 C363 1.433 . S
C371 N373 1.384 . S
N372 C368 1.427 . S
N372 C369 1.384 . S
N373 C365 1.427 . S
N373 C371 1.384 . S
H374 C380 0.930 . S
H375 C384 0.930 . S
H376 C389 0.929 . S
H377 C387 0.929 . S
H378 C382 0.929 . S
H379 C388 0.929 . S
C380 H374 0.930 . S
C380 C381 1.367 . S
C380 C388 1.378 . S
C381 C380 1.367 . S
C381 C389 1.433 . S
C382 H378 0.929 . S
C382 C384 1.378 . S
C382 C386 1.350 . S
C383 C386 1.463 1_455 S
C383 C388 1.350 . S
C383 N391 1.427 . S
C384 H375 0.930 . S
C384 C382 1.378 . S
C384 C385 1.367 . S
C385 C384 1.367 . S
C385 C387 1.433 . S
C386 C382 1.350 . S
C386 C383 1.463 1_655 S
C386 N390 1.427 . S
C387 H377 0.929 . S
C387 C385 1.433 . S
C387 N390 1.384 . S
C388 H379 0.929 . S
C388 C380 1.378 . S
C388 C383 1.350 . S
C389 H376 0.929 . S
C389 C381 1.433 . S
C389 N391 1.384 . S
N390 C386 1.427 . S
N390 C387 1.384 . S
N391 C383 1.427 . S
N391 C389 1.384 . S
C111 C4 1.847 . S
C115 C30 1.847 . S
C129 C49 1.847 . S
C133 C17 1.847 . S
C147 C82 1.852 . S
C151 C56 1.852 . S
C165 C69 1.847 . S
C169 C95 1.847 . S
C183 C23 1.237 . S
C187 C43 1.237 . S
C201 C10 1.242 . S
C205 C36 1.242 . S
C219 C101 1.237 . S
C223 C75 1.237 . S
C237 C62 1.237 . S
C241 C88 1.237 . S
C255 C68 1.527 . S
C259 C44 1.527 . S
C273 C29 1.528 . S
C277 C55 1.528 . S
C291 C16 1.527 . S
C295 C94 1.527 . S
C309 C3 1.527 . S
C313 C81 1.527 . S
C327 C5 1.553 . S
C331 C18 1.550 . S
C345 C31 1.550 . S
C349 C42 1.553 . S
C363 C70 1.550 . S
C367 C57 1.553 . S
C381 C83 1.550 . S
C385 C96 1.553 . S
