# Generated by pormake.
# Topology bcs, (6)-cn, num edge types: 1
# Building blocks:
#     Node 0, Type 0, BuildingBlock: BETFEN_clean_sbu_0, # of connection points: 6
#     Node 1, Type 0, BuildingBlock: BETFEN_clean_sbu_0, # of connection points: 6
#     Node 2, Type 0, BuildingBlock: BETFEN_clean_sbu_0, # of connection points: 6
#     Node 3, Type 0, BuildingBlock: BETFEN_clean_sbu_0, # of connection points: 6
#     Node 4, Type 0, BuildingBlock: BETFEN_clean_sbu_0, # of connection points: 6
#     Node 5, Type 0, BuildingBlock: BETFEN_clean_sbu_0, # of connection points: 6
#     Node 6, Type 0, BuildingBlock: BETFEN_clean_sbu_0, # of connection points: 6
#     Node 7, Type 0, BuildingBlock: BETFEN_clean_sbu_0, # of connection points: 6
#     Node 8, Type 0, BuildingBlock: BETFEN_clean_sbu_0, # of connection points: 6
#     Node 9, Type 0, BuildingBlock: BETFEN_clean_sbu_0, # of connection points: 6
#     Node 10, Type 0, BuildingBlock: BETFEN_clean_sbu_0, # of connection points: 6
#     Node 11, Type 0, BuildingBlock: BETFEN_clean_sbu_0, # of connection points: 6
#     Node 12, Type 0, BuildingBlock: BETFEN_clean_sbu_0, # of connection points: 6
#     Node 13, Type 0, BuildingBlock: BETFEN_clean_sbu_0, # of connection points: 6
#     Node 14, Type 0, BuildingBlock: BETFEN_clean_sbu_0, # of connection points: 6
#     Node 15, Type 0, BuildingBlock: BETFEN_clean_sbu_0, # of connection points: 6
#     Edge 16, Type (0, 0), BuildingBlock: ZUJKAS_clean_linker_0, # of connection points: 2
#     Edge 17, Type (0, 0), BuildingBlock: ZUJKAS_clean_linker_0, # of connection points: 2
#     Edge 18, Type (0, 0), BuildingBlock: ZUJKAS_clean_linker_0, # of connection points: 2
#     Edge 19, Type (0, 0), BuildingBlock: ZUJKAS_clean_linker_0, # of connection points: 2
#     Edge 20, Type (0, 0), BuildingBlock: ZUJKAS_clean_linker_0, # of connection points: 2
#     Edge 21, Type (0, 0), BuildingBlock: ZUJKAS_clean_linker_0, # of connection points: 2
#     Edge 22, Type (0, 0), BuildingBlock: ZUJKAS_clean_linker_0, # of connection points: 2
#     Edge 23, Type (0, 0), BuildingBlock: ZUJKAS_clean_linker_0, # of connection points: 2
#     Edge 24, Type (0, 0), BuildingBlock: ZUJKAS_clean_linker_0, # of connection points: 2
#     Edge 25, Type (0, 0), BuildingBlock: ZUJKAS_clean_linker_0, # of connection points: 2
#     Edge 26, Type (0, 0), BuildingBlock: ZUJKAS_clean_linker_0, # of connection points: 2
#     Edge 27, Type (0, 0), BuildingBlock: ZUJKAS_clean_linker_0, # of connection points: 2
#     Edge 28, Type (0, 0), BuildingBlock: ZUJKAS_clean_linker_0, # of connection points: 2
#     Edge 29, Type (0, 0), BuildingBlock: ZUJKAS_clean_linker_0, # of connection points: 2
#     Edge 30, Type (0, 0), BuildingBlock: ZUJKAS_clean_linker_0, # of connection points: 2
#     Edge 31, Type (0, 0), BuildingBlock: ZUJKAS_clean_linker_0, # of connection points: 2
#     Edge 32, Type (0, 0), BuildingBlock: ZUJKAS_clean_linker_0, # of connection points: 2
#     Edge 33, Type (0, 0), BuildingBlock: ZUJKAS_clean_linker_0, # of connection points: 2
#     Edge 34, Type (0, 0), BuildingBlock: ZUJKAS_clean_linker_0, # of connection points: 2
#     Edge 35, Type (0, 0), BuildingBlock: ZUJKAS_clean_linker_0, # of connection points: 2
#     Edge 36, Type (0, 0), BuildingBlock: ZUJKAS_clean_linker_0, # of connection points: 2
#     Edge 37, Type (0, 0), BuildingBlock: ZUJKAS_clean_linker_0, # of connection points: 2
#     Edge 38, Type (0, 0), BuildingBlock: ZUJKAS_clean_linker_0, # of connection points: 2
#     Edge 39, Type (0, 0), BuildingBlock: ZUJKAS_clean_linker_0, # of connection points: 2
#     Edge 40, Type (0, 0), BuildingBlock: ZUJKAS_clean_linker_0, # of connection points: 2
#     Edge 41, Type (0, 0), BuildingBlock: ZUJKAS_clean_linker_0, # of connection points: 2
#     Edge 42, Type (0, 0), BuildingBlock: ZUJKAS_clean_linker_0, # of connection points: 2
#     Edge 43, Type (0, 0), BuildingBlock: ZUJKAS_clean_linker_0, # of connection points: 2
#     Edge 44, Type (0, 0), BuildingBlock: ZUJKAS_clean_linker_0, # of connection points: 2
#     Edge 45, Type (0, 0), BuildingBlock: ZUJKAS_clean_linker_0, # of connection points: 2
#     Edge 46, Type (0, 0), BuildingBlock: ZUJKAS_clean_linker_0, # of connection points: 2
#     Edge 47, Type (0, 0), BuildingBlock: ZUJKAS_clean_linker_0, # of connection points: 2
#     Edge 48, Type (0, 0), BuildingBlock: ZUJKAS_clean_linker_0, # of connection points: 2
#     Edge 49, Type (0, 0), BuildingBlock: ZUJKAS_clean_linker_0, # of connection points: 2
#     Edge 50, Type (0, 0), BuildingBlock: ZUJKAS_clean_linker_0, # of connection points: 2
#     Edge 51, Type (0, 0), BuildingBlock: ZUJKAS_clean_linker_0, # of connection points: 2
#     Edge 52, Type (0, 0), BuildingBlock: ZUJKAS_clean_linker_0, # of connection points: 2
#     Edge 53, Type (0, 0), BuildingBlock: ZUJKAS_clean_linker_0, # of connection points: 2
#     Edge 54, Type (0, 0), BuildingBlock: ZUJKAS_clean_linker_0, # of connection points: 2
#     Edge 55, Type (0, 0), BuildingBlock: ZUJKAS_clean_linker_0, # of connection points: 2
#     Edge 56, Type (0, 0), BuildingBlock: ZUJKAS_clean_linker_0, # of connection points: 2
#     Edge 57, Type (0, 0), BuildingBlock: ZUJKAS_clean_linker_0, # of connection points: 2
#     Edge 58, Type (0, 0), BuildingBlock: ZUJKAS_clean_linker_0, # of connection points: 2
#     Edge 59, Type (0, 0), BuildingBlock: ZUJKAS_clean_linker_0, # of connection points: 2
#     Edge 60, Type (0, 0), BuildingBlock: ZUJKAS_clean_linker_0, # of connection points: 2
#     Edge 61, Type (0, 0), BuildingBlock: ZUJKAS_clean_linker_0, # of connection points: 2
#     Edge 62, Type (0, 0), BuildingBlock: ZUJKAS_clean_linker_0, # of connection points: 2
#     Edge 63, Type (0, 0), BuildingBlock: ZUJKAS_clean_linker_0, # of connection points: 2
# Relax obj value: 0.137
# Max RMSD: 0.226
# Mean RMSD: 0.182
data_MOF--net-bcs--node1-BETFEN_clean_sbu_0--edge1-ZUJKAS_clean_linker_0
_symmetry_space_group_name_H-M    P1
_symmetry_Int_Tables_number       1
_symmetry_cell_setting            triclinic
loop_
_symmetry_equiv_pos_as_xyz
'x, y, z'
_cell_length_a     59.02849
_cell_length_b     49.772914
_cell_length_c     50.39199
_cell_angle_alpha  107.5032
_cell_angle_beta   74.784934
_cell_angle_gamma 116.70797
loop_
_atom_site_label
_atom_site_type_symbol
_atom_site_fract_x
_atom_site_fract_y
_atom_site_fract_z
_atom_type_partial_charge
Pr0 Pr 0.03297 0.00413 0.03112 0.0
Pr1 Pr 1.01384 0.99408 0.97936 0.0
C2 C 0.0442 0.99543 0.07564 0.0
C3 C 0.06169 0.98637 0.08343 0.0
C4 C 0.08256 0.9824 0.06426 0.0
C5 C 0.09847 0.97291 0.07209 0.0
C6 C 0.09372 0.96723 0.09921 0.0
C7 C 0.07268 0.97124 0.11821 0.0
C8 C 0.05688 0.98073 0.11038 0.0
C9 C 0.06312 0.05023 1.00126 0.0
C10 C 0.05859 0.9624 0.96879 0.0
C11 C 1.00209 0.00247 0.93498 0.0
C12 C 0.98429 0.01147 0.92766 0.0
C13 C 0.98204 0.00589 0.89933 0.0
C14 C 0.96647 0.01586 0.89163 0.0
C15 C 0.95282 0.03168 0.91216 0.0
C16 C 0.95472 0.03665 0.94068 0.0
C17 C 0.97035 0.02666 0.94836 0.0
C18 C 0.98401 0.9476 0.0088 0.0
C19 C 0.98871 0.03639 0.04178 0.0
O20 O 0.02733 0.97383 0.05996 0.0
O21 O 0.05395 0.02217 0.06869 0.0
O22 O 0.05413 0.02176 0.99076 0.0
O23 O 0.05731 0.05598 0.02853 0.0
O24 O 0.04454 0.96883 0.95628 0.0
O25 O 0.05646 0.97241 0.99715 0.0
O26 O 1.01918 0.02407 0.95043 0.0
O27 O 0.99256 0.97572 0.94187 0.0
O28 O 0.99267 0.97606 0.01959 0.0
O29 O 0.98991 0.94219 0.98154 0.0
O30 O 1.00274 0.0299 0.05422 0.0
O31 O 0.99063 0.02617 0.01345 0.0
H32 H 0.08648 0.98654 0.04327 0.0
H33 H 0.11459 0.97028 0.05701 0.0
H34 H 0.06812 0.96652 0.13904 0.0
H35 H 0.04069 0.98339 0.12534 0.0
H36 H 0.99262 0.99414 0.88308 0.0
H37 H 0.96514 0.01118 0.86954 0.0
H38 H 0.94467 0.04898 0.95701 0.0
H39 H 0.97188 0.03124 0.97037 0.0
Pr40 Pr 0.27403 0.78011 0.25383 0.0
Pr41 Pr 0.27519 0.71813 0.25564 0.0
C42 C 0.27711 0.82979 0.23946 0.0
C43 C 0.26279 0.83931 0.22684 0.0
C44 C 0.267 0.87042 0.23292 0.0
C45 C 0.25379 0.88014 0.22109 0.0
C46 C 0.23608 0.85887 0.20287 0.0
C47 C 0.23193 0.82762 0.19679 0.0
C48 C 0.24512 0.81791 0.20875 0.0
C49 C 0.23605 0.74761 0.29222 0.0
C50 C 0.24195 0.71417 0.21096 0.0
C51 C 0.2716 0.66827 0.27012 0.0
C52 C 0.28521 0.6586 0.2835 0.0
C53 C 0.27743 0.62719 0.28189 0.0
C54 C 0.29008 0.61731 0.29431 0.0
C55 C 0.31082 0.63872 0.30859 0.0
C56 C 0.31847 0.67031 0.31029 0.0
C57 C 0.30578 0.68018 0.2978 0.0
C58 C 0.31311 0.75074 0.21725 0.0
C59 C 0.30822 0.784 0.29758 0.0
O60 O 0.28705 0.8107 0.2228 0.0
O61 O 0.26731 0.82382 0.26459 0.0
O62 O 0.24366 0.73605 0.26763 0.0
O63 O 0.24696 0.7775 0.29741 0.0
O64 O 0.24418 0.69852 0.22644 0.0
O65 O 0.25346 0.7446 0.21544 0.0
O66 O 0.26119 0.68703 0.28644 0.0
O67 O 0.28244 0.67489 0.24537 0.0
O68 O 0.30545 0.7621 0.24187 0.0
O69 O 0.30238 0.72083 0.21201 0.0
O70 O 0.30608 0.79947 0.28183 0.0
O71 O 0.29597 0.75368 0.29388 0.0
H72 H 0.28062 0.88728 0.24679 0.0
H73 H 0.25769 0.9044 0.22595 0.0
H74 H 0.21821 0.8106 0.18312 0.0
H75 H 0.24151 0.79375 0.20392 0.0
H76 H 0.26151 0.61025 0.27102 0.0
H77 H 0.28342 0.59288 0.29296 0.0
H78 H 0.33452 0.68738 0.32087 0.0
H79 H 0.31206 0.70457 0.29918 0.0
Pr80 Pr 0.53211 0.00551 0.47404 0.0
Pr81 Pr 0.5181 0.99452 0.5354 0.0
C82 C 0.53145 0.01297 0.42341 0.0
C83 C 0.51515 0.02096 0.41209 0.0
C84 C 0.52599 0.0378 0.39078 0.0
C85 C 0.51139 0.04806 0.38166 0.0
C86 C 0.48563 0.04188 0.39382 0.0
C87 C 0.47468 0.02435 0.41479 0.0
C88 C 0.4893 0.01398 0.42379 0.0
C89 C 0.56471 0.04984 0.51171 0.0
C90 C 0.48463 0.0216 0.51957 0.0
C91 C 0.52071 0.98895 0.58594 0.0
C92 C 0.53831 0.98191 0.5961 0.0
C93 C 0.52879 0.96445 0.61685 0.0
C94 C 0.54458 0.95469 0.62448 0.0
C95 C 0.57021 0.96206 0.61135 0.0
C96 C 0.57985 0.98018 0.59096 0.0
C97 C 0.56407 0.99006 0.58346 0.0
C98 C 0.4855 0.94956 0.49807 0.0
C99 C 0.56428 0.97641 0.48937 0.0
O100 O 0.52119 0.98605 0.43016 0.0
O101 O 0.5452 0.03496 0.44188 0.0
O102 O 0.54054 0.03774 0.51725 0.0
O103 O 0.57272 0.04029 0.48551 0.0
O104 O 0.49332 0.02179 0.54127 0.0
O105 O 0.49432 0.01307 0.49332 0.0
O106 O 0.53001 0.01556 0.57878 0.0
O107 O 0.50638 0.96633 0.56831 0.0
O108 O 0.50965 0.96217 0.49223 0.0
O109 O 0.47766 0.95855 0.52449 0.0
O110 O 0.55547 0.97642 0.46785 0.0
O111 O 0.55539 0.98592 0.51568 0.0
H112 H 0.54592 0.04348 0.38151 0.0
H113 H 0.52036 0.06098 0.36513 0.0
H114 H 0.45504 0.01939 0.42489 0.0
H115 H 0.48057 0.00105 0.44029 0.0
H116 H 0.50891 0.95765 0.62663 0.0
H117 H 0.53642 0.94046 0.63998 0.0
H118 H 0.59955 0.98658 0.58066 0.0
H119 H 0.57185 0.00354 0.56739 0.0
Pr120 Pr 0.27589 0.21413 0.73874 0.0
Pr121 Pr 0.27936 0.27872 0.7668 0.0
C122 C 0.2673 0.15926 0.7033 0.0
C123 C 0.2772 0.14774 0.67441 0.0
C124 C 0.30352 0.15963 0.66443 0.0
C125 C 0.31272 0.14776 0.6372 0.0
C126 C 0.29572 0.12409 0.61925 0.0
C127 C 0.26921 0.11344 0.62891 0.0
C128 C 0.26004 0.12513 0.65635 0.0
C129 C 0.3146 0.24896 0.77247 0.0
C130 C 0.31283 0.27132 0.70519 0.0
C131 C 0.28412 0.33327 0.80095 0.0
C132 C 0.26469 0.34289 0.82057 0.0
C133 C 0.24405 0.32185 0.83521 0.0
C134 C 0.22196 0.32711 0.8473 0.0
C135 C 0.22016 0.35334 0.84473 0.0
C136 C 0.24165 0.37566 0.8322 0.0
C137 C 0.26382 0.37041 0.82014 0.0
C138 C 0.23981 0.24363 0.73402 0.0
C139 C 0.24355 0.22179 0.80157 0.0
O140 O 0.25428 0.17545 0.70571 0.0
O141 O 0.28268 0.17045 0.72218 0.0
O142 O 0.30907 0.25835 0.75549 0.0
O143 O 0.3008 0.21973 0.77151 0.0
O144 O 0.31275 0.29011 0.72998 0.0
O145 O 0.29796 0.24161 0.70219 0.0
O146 O 0.28928 0.31327 0.80751 0.0
O147 O 0.28142 0.32672 0.7745 0.0
O148 O 0.24586 0.23444 0.75072 0.0
O149 O 0.25356 0.27275 0.73486 0.0
O150 O 0.24514 0.20208 0.77768 0.0
O151 O 0.25675 0.25177 0.80357 0.0
H152 H 0.31707 0.17756 0.67788 0.0
H153 H 0.33329 0.1562 0.63082 0.0
H154 H 0.25559 0.09554 0.61554 0.0
H155 H 0.23957 0.1162 0.66362 0.0
H156 H 0.24422 0.30034 0.83568 0.0
H157 H 0.2058 0.30987 0.85734 0.0
H158 H 0.24069 0.39605 0.8299 0.0
H159 H 0.27948 0.38669 0.80865 0.0
Pr160 Pr 1.01395 0.01968 0.50468 0.0
Pr161 Pr 0.03418 0.97203 0.50005 0.0
C162 C 1.00092 0.06098 0.49495 0.0
C163 C 0.9837 0.06428 0.48054 0.0
C164 C 0.95785 0.05803 0.49201 0.0
C165 C 0.94255 0.06381 0.47925 0.0
C166 C 0.9528 0.07609 0.45485 0.0
C167 C 0.97849 0.08166 0.44311 0.0
C168 C 0.99377 0.07595 0.45586 0.0
C169 C 0.98539 0.97975 0.54168 0.0
C170 C 0.99196 0.95212 0.45942 0.0
C171 C 0.04819 0.93089 0.50843 0.0
C172 C 0.06694 0.9288 0.52117 0.0
C173 C 0.07337 0.90329 0.51066 0.0
C174 C 0.08993 0.89972 0.52339 0.0
C175 C 0.10036 0.92163 0.54696 0.0
C176 C 0.09418 0.94751 0.55717 0.0
C177 C 0.07765 0.95111 0.54433 0.0
C178 C 0.06256 0.0123 0.46321 0.0
C179 C 0.05523 0.03894 0.54638 0.0
O180 O 1.01917 0.05283 0.47904 0.0
O181 O 0.99108 0.04912 0.5174 0.0
O182 O 0.99409 0.9719 0.51625 0.0
O183 O 0.99048 0.00904 0.54859 0.0
O184 O 1.00151 0.94131 0.47266 0.0
O185 O 0.99672 0.98176 0.46536 0.0
O186 O 0.03094 0.93998 0.5257 0.0
O187 O 0.05669 0.94197 0.48559 0.0
O188 O 0.05408 0.0199 0.48876 0.0
O189 O 0.05721 0.98297 0.456 0.0
O190 O 0.04569 0.05001 0.53338 0.0
O191 O 0.05092 0.00941 0.53978 0.0
H192 H 0.94955 0.0493 0.51116 0.0
H193 H 0.92292 0.05957 0.48903 0.0
H194 H 0.98691 0.09069 0.42412 0.0
H195 H 1.01366 0.08121 0.44663 0.0
H196 H 0.0652 0.88578 0.49288 0.0
H197 H 0.09399 0.87932 0.51522 0.0
H198 H 0.10212 0.96498 0.57507 0.0
H199 H 0.07298 0.97106 0.55268 0.0
Pr200 Pr 0.28332 0.76755 0.73293 0.0
Pr201 Pr 0.26747 0.73414 0.77685 0.0
C202 C 0.28614 0.79336 0.6914 0.0
C203 C 0.27238 0.80751 0.6836 0.0
C204 C 0.28463 0.82531 0.66308 0.0
C205 C 0.27154 0.83785 0.6544 0.0
C206 C 0.24588 0.83277 0.66608 0.0
C207 C 0.23383 0.81536 0.68712 0.0
C208 C 0.24697 0.80283 0.69581 0.0
C209 C 0.31892 0.79314 0.7699 0.0
C210 C 0.23856 0.78543 0.79118 0.0
C211 C 0.26542 0.70842 0.81806 0.0
C212 C 0.28045 0.69548 0.82542 0.0
C213 C 0.26801 0.67241 0.84108 0.0
C214 C 0.28209 0.66066 0.84918 0.0
C215 C 0.30893 0.67191 0.84184 0.0
C216 C 0.32129 0.69475 0.82574 0.0
C217 C 0.30718 0.70635 0.81752 0.0
C218 C 0.232 0.70852 0.73979 0.0
C219 C 0.31217 0.71625 0.71847 0.0
O220 O 0.27423 0.76385 0.69081 0.0
O221 O 0.29841 0.80881 0.71296 0.0
O222 O 0.29495 0.78422 0.77709 0.0
O223 O 0.32533 0.78946 0.74277 0.0
O224 O 0.24218 0.76592 0.80158 0.0
O225 O 0.25132 0.7887 0.76495 0.0
O226 O 0.27602 0.73807 0.8193 0.0
O227 O 0.25343 0.69268 0.79633 0.0
O228 O 0.25598 0.71746 0.73267 0.0
O229 O 0.22548 0.71211 0.76692 0.0
O230 O 0.30869 0.73595 0.7082 0.0
O231 O 0.29929 0.71278 0.74463 0.0
H232 H 0.30428 0.82926 0.65354 0.0
H233 H 0.28155 0.85156 0.63852 0.0
H234 H 0.21403 0.81075 0.69638 0.0
H235 H 0.23721 0.78912 0.71173 0.0
H236 H 0.2474 0.66374 0.84736 0.0
H237 H 0.27201 0.64331 0.86178 0.0
H238 H 0.34189 0.7036 0.81945 0.0
H239 H 0.31715 0.72401 0.80521 0.0
Pr240 Pr 0.53559 0.98342 0.99357 0.0
Pr241 Pr 0.51051 0.02388 0.02075 0.0
C242 C 0.56209 0.95183 0.95777 0.0
C243 C 0.58935 0.96044 0.94586 0.0
C244 C 0.60864 0.97756 0.9631 0.0
C245 C 0.63446 0.98597 0.95132 0.0
C246 C 0.64137 0.97785 0.92212 0.0
C247 C 0.62205 0.96141 0.9049 0.0
C248 C 0.59626 0.9527 0.9167 0.0
C249 C 0.55455 0.021 0.04357 0.0
C250 C 0.56016 0.05186 0.97806 0.0
C251 C 0.48318 0.05566 0.05416 0.0
C252 C 0.45545 0.04818 0.06167 0.0
C253 C 0.44505 0.06375 0.05269 0.0
C254 C 0.41867 0.05574 0.05786 0.0
C255 C 0.40217 0.03219 0.07239 0.0
C256 C 0.41254 0.01674 0.08164 0.0
C257 C 0.43895 0.02451 0.07615 0.0
C258 C 0.49183 0.98587 0.9707 0.0
C259 C 0.48668 0.9562 0.03751 0.0
O260 O 0.55007 0.96355 0.94929 0.0
O261 O 0.55602 0.95197 0.98468 0.0
O262 O 0.55036 0.03024 0.0254 0.0
O263 O 0.54882 0.99169 0.03636 0.0
O264 O 0.54834 0.0603 1.00292 0.0
O265 O 0.55521 0.0225 0.96762 0.0
O266 O 0.49232 0.04153 0.06385 0.0
O267 O 0.49278 0.05783 0.02803 0.0
O268 O 0.49568 0.97691 0.98928 0.0
O269 O 0.4979 0.01521 0.97741 0.0
O270 O 0.49841 0.94739 0.01272 0.0
O271 O 0.49143 0.98559 0.04753 0.0
H272 H 0.60382 0.98433 0.98566 0.0
H273 H 0.64901 0.9986 0.96501 0.0
H274 H 0.62684 0.95434 0.88236 0.0
H275 H 0.58168 0.93977 0.90305 0.0
H276 H 0.45734 0.08204 0.04149 0.0
H277 H 0.41123 0.0685 0.05108 0.0
H278 H 0.40019 0.99864 0.09303 0.0
H279 H 0.44637 0.01185 0.08312 0.0
Pr280 Pr 0.28983 0.24443 0.27501 0.0
Pr281 Pr 0.2622 0.25109 0.2354 0.0
C282 C 0.30497 0.22656 0.31055 0.0
C283 C 0.31806 0.20813 0.31263 0.0
C284 C 0.34189 0.21015 0.29641 0.0
C285 C 0.35476 0.19431 0.3006 0.0
C286 C 0.34406 0.17609 0.32101 0.0
C287 C 0.3199 0.17359 0.33667 0.0
C288 C 0.3071 0.18946 0.33253 0.0
C289 C 0.32278 0.27806 0.23429 0.0
C290 C 0.27323 0.18955 0.21719 0.0
C291 C 0.24516 0.26753 0.20048 0.0
C292 C 0.2358 0.28908 0.19699 0.0
C293 C 0.21644 0.29635 0.21657 0.0
C294 C 0.20577 0.31379 0.2109 0.0
C295 C 0.21422 0.32419 0.18552 0.0
C296 C 0.23432 0.31786 0.16656 0.0
C297 C 0.24494 0.30047 0.17224 0.0
C298 C 0.22978 0.21689 0.27605 0.0
C299 C 0.27959 0.30615 0.29174 0.0
O300 O 0.28228 0.21177 0.30265 0.0
O301 O 0.3189 0.25174 0.30093 0.0
O302 O 0.30291 0.25363 0.22973 0.0
O303 O 0.32698 0.28467 0.25999 0.0
O304 O 0.26957 0.20869 0.20727 0.0
O305 O 0.27889 0.19678 0.24282 0.0
O306 O 0.26949 0.27756 0.20207 0.0
O307 O 0.23017 0.24786 0.21642 0.0
O308 O 0.24919 0.24184 0.28068 0.0
O309 O 0.22603 0.2096 0.25011 0.0
O310 O 0.28013 0.28571 0.30292 0.0
O311 O 0.27648 0.29976 0.26525 0.0
H312 H 0.35074 0.22429 0.28081 0.0
H313 H 0.37315 0.19642 0.28789 0.0
H314 H 0.3112 0.16011 0.35279 0.0
H315 H 0.28881 0.18769 0.34539 0.0
H316 H 0.20902 0.28783 0.23585 0.0
H317 H 0.19025 0.31808 0.2259 0.0
H318 H 0.24163 0.32598 0.14708 0.0
H319 H 0.25987 0.29518 0.15685 0.0
Pr320 Pr 0.51319 0.52578 0.01248 0.0
Pr321 Pr 0.53696 0.48053 1.0031 0.0
C322 C 0.49579 0.56611 0.0088 0.0
C323 C 0.4792 0.56988 0.9942 0.0
C324 C 0.47106 0.59395 0.00609 0.0
C325 C 0.45657 0.59937 0.99201 0.0
C326 C 0.44993 0.5808 0.96567 0.0
C327 C 0.45764 0.55615 0.95407 0.0
C328 C 0.47222 0.55077 0.96822 0.0
C329 C 0.48946 0.48511 0.04924 0.0
C330 C 0.49233 0.45966 0.96553 0.0
C331 C 0.55355 0.43977 0.0074 0.0
C332 C 0.57201 0.43651 0.0196 0.0
C333 C 0.57666 0.40972 0.00943 0.0
C334 C 0.59216 0.4045 0.02227 0.0
C335 C 0.60331 0.426 0.04563 0.0
C336 C 0.59927 0.45338 0.05523 0.0
C337 C 0.58367 0.45857 0.04234 0.0
C338 C 0.56024 0.52081 0.96604 0.0
C339 C 0.55833 0.54719 0.04995 0.0
O340 O 0.51685 0.56379 0.99387 0.0
O341 O 0.48463 0.54806 0.02679 0.0
O342 O 0.49657 0.47782 0.02317 0.0
O343 O 0.49411 0.51425 0.0571 0.0
O344 O 0.50352 0.44922 0.97705 0.0
O345 O 0.49579 0.48893 0.9728 0.0
O346 O 0.53511 0.44612 0.02509 0.0
O347 O 0.56244 0.45399 0.9865 0.0
O348 O 0.55358 0.52835 0.99219 0.0
O349 O 0.55545 0.49161 0.95824 0.0
O350 O 0.54489 0.55689 0.04092 0.0
O351 O 0.55705 0.51879 0.04058 0.0
H352 H 0.47621 0.60886 0.02618 0.0
H353 H 0.45056 0.61817 1.00178 0.0
H354 H 0.45299 0.54154 0.93375 0.0
H355 H 0.47838 0.53205 0.9587 0.0
H356 H 0.56783 0.39247 0.99187 0.0
H357 H 0.59525 0.38345 0.01403 0.0
H358 H 0.60746 0.47031 0.07326 0.0
H359 H 0.58022 0.47939 0.05053 0.0
Pr360 Pr 0.78325 0.26896 0.23345 0.0
Pr361 Pr 0.76722 0.23585 0.27753 0.0
C362 C 0.78614 0.29498 0.19205 0.0
C363 C 0.77204 0.30897 0.18454 0.0
C364 C 0.7847 0.32931 0.16617 0.0
C365 C 0.77136 0.3418 0.1578 0.0
C366 C 0.74504 0.33406 0.16763 0.0
C367 C 0.7325 0.31398 0.18645 0.0
C368 C 0.74591 0.30161 0.19489 0.0
C369 C 0.81901 0.29388 0.27014 0.0
C370 C 0.73896 0.28773 0.29182 0.0
C371 C 0.76453 0.21043 0.31929 0.0
C372 C 0.7788 0.19691 0.32707 0.0
C373 C 0.76814 0.18201 0.34972 0.0
C374 C 0.78186 0.17009 0.35817 0.0
C375 C 0.80655 0.17288 0.34409 0.0
C376 C 0.81703 0.18755 0.3211 0.0
C377 C 0.80326 0.19945 0.31266 0.0
C378 C 0.73141 0.21072 0.24091 0.0
C379 C 0.81135 0.21692 0.21901 0.0
O380 O 0.77451 0.26541 0.1912 0.0
O381 O 0.7984 0.31038 0.21362 0.0
O382 O 0.79512 0.28575 0.27747 0.0
O383 O 0.8253 0.28946 0.24297 0.0
O384 O 0.74215 0.26785 0.30213 0.0
O385 O 0.7519 0.29108 0.26567 0.0
O386 O 0.77604 0.23996 0.31994 0.0
O387 O 0.75251 0.19474 0.29757 0.0
O388 O 0.75532 0.21914 0.23352 0.0
O389 O 0.72514 0.21453 0.26806 0.0
O390 O 0.8078 0.23644 0.20857 0.0
O391 O 0.79879 0.21397 0.24537 0.0
H392 H 0.80486 0.33521 0.15795 0.0
H393 H 0.78152 0.35689 0.14306 0.0
H394 H 0.71233 0.30787 0.19468 0.0
H395 H 0.73582 0.28605 0.20926 0.0
H396 H 0.74931 0.17997 0.36113 0.0
H397 H 0.77335 0.15934 0.37617 0.0
H398 H 0.83585 0.18976 0.30959 0.0
H399 H 0.81178 0.21088 0.29508 0.0
Pr400 Pr 0.03711 0.47715 0.49111 0.0
Pr401 Pr 1.0134 0.51952 0.5195 0.0
C402 C 0.06158 0.44251 0.45636 0.0
C403 C 0.08866 0.44772 0.44746 0.0
C404 C 0.09566 0.42283 0.44069 0.0
C405 C 0.12148 0.42768 0.43413 0.0
C406 C 0.14073 0.45755 0.43425 0.0
C407 C 0.13362 0.48247 0.4408 0.0
C408 C 0.10774 0.47761 0.44757 0.0
C409 C 0.05769 0.5152 0.54026 0.0
C410 C 0.06217 0.54495 0.47432 0.0
C411 C 0.98866 0.553 0.55573 0.0
C412 C 0.96141 0.54654 0.56621 0.0
C413 C 0.94324 0.53285 0.54761 0.0
C414 C 0.9174 0.52658 0.55793 0.0
C415 C 0.90925 0.53344 0.58699 0.0
C416 C 0.92734 0.54637 0.60558 0.0
C417 C 0.95323 0.55295 0.59524 0.0
C418 C 0.99292 0.48204 0.47028 0.0
C419 C 0.98832 0.45156 0.53589 0.0
O420 O 0.05355 0.45837 0.44746 0.0
O421 O 0.05305 0.44127 0.48281 0.0
O422 O 0.05322 0.52421 0.52217 0.0
O423 O 0.05154 0.48583 0.53338 0.0
O424 O 0.05106 0.55423 0.49939 0.0
O425 O 0.05665 0.51539 0.46425 0.0
O426 O 0.9981 0.5381 0.56392 0.0
O427 O 0.99651 0.55468 0.52926 0.0
O428 O 0.99748 0.47266 0.48807 0.0
O429 O 0.99833 0.51125 0.4779 0.0
O430 O 0.99914 0.44235 0.51065 0.0
O431 O 0.99413 0.48113 0.54613 0.0
H432 H 0.08116 0.39968 0.44073 0.0
H433 H 0.12639 0.40796 0.42862 0.0
H434 H 0.14807 0.50569 0.44107 0.0
H435 H 0.10263 0.4972 0.45319 0.0
H436 H 0.94899 0.52712 0.5251 0.0
H437 H 0.9038 0.51657 0.54321 0.0
H438 H 0.92161 0.55234 0.62807 0.0
H439 H 0.9669 0.56324 0.60991 0.0
Pr440 Pr 0.76138 0.72689 0.24613 0.0
Pr441 Pr 0.77603 0.79521 0.27233 0.0
C442 C 0.74339 0.66935 0.21511 0.0
C443 C 0.75342 0.6494 0.19252 0.0
C444 C 0.77585 0.66216 0.17424 0.0
C445 C 0.78782 0.64356 0.15601 0.0
C446 C 0.77764 0.61203 0.15605 0.0
C447 C 0.75425 0.59901 0.17311 0.0
C448 C 0.74219 0.61765 0.19126 0.0
C449 C 0.80294 0.75435 0.27615 0.0
C450 C 0.80439 0.7793 0.20865 0.0
C451 C 0.79144 0.85155 0.30584 0.0
C452 C 0.78246 0.86356 0.33492 0.0
C453 C 0.75722 0.84807 0.34695 0.0
C454 C 0.74818 0.85974 0.37428 0.0
C455 C 0.76431 0.88699 0.39035 0.0
C456 C 0.79012 0.90146 0.37867 0.0
C457 C 0.7991 0.88982 0.35106 0.0
C458 C 0.73544 0.76703 0.24093 0.0
C459 C 0.73351 0.74346 0.30927 0.0
O460 O 0.74332 0.69287 0.20859 0.0
O461 O 0.75099 0.67607 0.23937 0.0
O462 O 0.79897 0.76563 0.25953 0.0
O463 O 0.7857 0.72658 0.27675 0.0
O464 O 0.80614 0.80034 0.2322 0.0
O465 O 0.78736 0.75045 0.2077 0.0
O466 O 0.80177 0.83232 0.30296 0.0
O467 O 0.77578 0.84265 0.28771 0.0
O468 O 0.73863 0.75659 0.25879 0.0
O469 O 0.75364 0.79398 0.23884 0.0
O470 O 0.7296 0.72401 0.28493 0.0
O471 O 0.75269 0.7709 0.31081 0.0
H472 H 0.78486 0.68673 0.17513 0.0
H473 H 0.80604 0.65433 0.14344 0.0
H474 H 0.74601 0.57475 0.17342 0.0
H475 H 0.72484 0.60757 0.20533 0.0
H476 H 0.74423 0.82737 0.33491 0.0
H477 H 0.72807 0.84817 0.3821 0.0
H478 H 0.80314 0.92224 0.39053 0.0
H479 H 0.81887 0.90159 0.34216 0.0
Pr480 Pr 0.77294 0.28372 0.75625 0.0
Pr481 Pr 0.77357 0.22186 0.75932 0.0
C482 C 0.77762 0.33329 0.74033 0.0
C483 C 0.76434 0.34331 0.72687 0.0
C484 C 0.73964 0.32409 0.72014 0.0
C485 C 0.72718 0.33447 0.70787 0.0
C486 C 0.73926 0.36425 0.70218 0.0
C487 C 0.76417 0.38317 0.7087 0.0
C488 C 0.77656 0.37277 0.72094 0.0
C489 C 0.73488 0.25245 0.79527 0.0
C490 C 0.73934 0.21725 0.71505 0.0
C491 C 0.77017 0.17287 0.77523 0.0
C492 C 0.78447 0.16424 0.78874 0.0
C493 C 0.8102 0.18299 0.79199 0.0
C494 C 0.82364 0.17392 0.80425 0.0
C495 C 0.81153 0.14603 0.8136 0.0
C496 C 0.78562 0.1276 0.8106 0.0
C497 C 0.77225 0.13663 0.79825 0.0
C498 C 0.81174 0.25346 0.7205 0.0
C499 C 0.80596 0.28836 0.80147 0.0
O500 O 0.78714 0.31357 0.72425 0.0
O501 O 0.76702 0.32765 0.76546 0.0
O502 O 0.74241 0.24029 0.77089 0.0
O503 O 0.74575 0.28233 0.79979 0.0
O504 O 0.74221 0.20179 0.73026 0.0
O505 O 0.75091 0.24765 0.71912 0.0
O506 O 0.75997 0.19196 0.79124 0.0
O507 O 0.78032 0.17847 0.75003 0.0
O508 O 0.80416 0.26539 0.74494 0.0
O509 O 0.80077 0.22359 0.71576 0.0
O510 O 0.80385 0.30366 0.78557 0.0
O511 O 0.79437 0.25796 0.7974 0.0
H512 H 0.72995 0.30122 0.72459 0.0
H513 H 0.70793 0.31942 0.70336 0.0
H514 H 0.7742 0.40599 0.70417 0.0
H515 H 0.79571 0.38782 0.72587 0.0
H516 H 0.81988 0.20453 0.78493 0.0
H517 H 0.84347 0.18883 0.80657 0.0
H518 H 0.7758 0.10584 0.81725 0.0
H519 H 0.7524 0.12188 0.7959 0.0
Pr520 Pr 0.77865 0.75174 0.77396 0.0
Pr521 Pr 0.75296 0.74698 0.7271 0.0
C522 C 0.7938 0.74362 0.81609 0.0
C523 C 0.80695 0.7272 0.82156 0.0
C524 C 0.81639 0.73707 0.84711 0.0
C525 C 0.82882 0.72188 0.85307 0.0
C526 C 0.83207 0.69641 0.83354 0.0
C527 C 0.8227 0.68669 0.80776 0.0
C528 C 0.81022 0.70195 0.80182 0.0
C529 C 0.81276 0.7818 0.73144 0.0
C530 C 0.76756 0.69026 0.72088 0.0
C531 C 0.73596 0.7549 0.68628 0.0
C532 C 0.72562 0.77471 0.68142 0.0
C533 C 0.71392 0.76546 0.65749 0.0
C534 C 0.70345 0.78343 0.65258 0.0
C535 C 0.70447 0.81115 0.67154 0.0
C536 C 0.71631 0.82039 0.69558 0.0
C537 C 0.72679 0.80232 0.70048 0.0
C538 C 0.71959 0.71653 0.76979 0.0
C539 C 0.76492 0.80864 0.77933 0.0
O540 O 0.7711 0.72704 0.80849 0.0
O541 O 0.80781 0.7658 0.80254 0.0
O542 O 0.79451 0.75554 0.72714 0.0
O543 O 0.81455 0.7924 0.75801 0.0
O544 O 0.76481 0.70588 0.70585 0.0
O545 O 0.77039 0.70151 0.74765 0.0
O546 O 0.76008 0.76739 0.68959 0.0
O547 O 0.72124 0.73639 0.70329 0.0
O548 O 0.73722 0.74328 0.7739 0.0
O549 O 0.71835 0.70519 0.74317 0.0
O550 O 0.76595 0.79218 0.79476 0.0
O551 O 0.76325 0.79788 0.75231 0.0
H552 H 0.81415 0.75662 0.86252 0.0
H553 H 0.83617 0.73035 0.87289 0.0
H554 H 0.8247 0.66703 0.79235 0.0
H555 H 0.80305 0.69402 0.78193 0.0
H556 H 0.71269 0.74411 0.64264 0.0
H557 H 0.69411 0.77526 0.63414 0.0
H558 H 0.71767 0.84171 0.71051 0.0
H559 H 0.73573 0.80983 0.71914 0.0
Pr560 Pr 0.53666 0.5096 0.53026 0.0
Pr561 Pr 0.51709 0.49802 0.47938 0.0
C562 C 0.5496 0.50334 0.57493 0.0
C563 C 0.5677 0.4947 0.58205 0.0
C564 C 0.5714 0.50216 0.61012 0.0
C565 C 0.58751 0.49287 0.61767 0.0
C566 C 0.60024 0.47589 0.59722 0.0
C567 C 0.59675 0.46885 0.56895 0.0
C568 C 0.58062 0.47821 0.56143 0.0
C569 C 0.56542 0.55638 0.50092 0.0
C570 C 0.562 0.46695 0.46845 0.0
C571 C 0.5043 0.5045 0.43471 0.0
C572 C 0.48616 0.51302 0.42756 0.0
C573 C 0.46754 0.52058 0.4482 0.0
C574 C 0.45109 0.52972 0.44101 0.0
C575 C 0.45301 0.53139 0.41304 0.0
C576 C 0.47167 0.52358 0.39249 0.0
C577 C 0.48807 0.5145 0.39971 0.0
C578 C 0.48815 0.45177 0.50926 0.0
C579 C 0.49134 0.54016 0.54124 0.0
O580 O 0.53192 0.48129 0.56048 0.0
O581 O 0.55906 0.52946 0.56693 0.0
O582 O 0.55767 0.52795 0.49 0.0
O583 O 0.5586 0.56156 0.52804 0.0
O584 O 0.54724 0.47228 0.45605 0.0
O585 O 0.56064 0.47819 0.49662 0.0
O586 O 0.52176 0.52661 0.44937 0.0
O587 O 0.4949 0.47834 0.44262 0.0
O588 O 0.49614 0.48027 0.51977 0.0
O589 O 0.49467 0.44612 0.48209 0.0
O590 O 0.50615 0.53487 0.55363 0.0
O591 O 0.49283 0.52911 0.51303 0.0
H592 H 0.56149 0.51478 0.62632 0.0
H593 H 0.58946 0.49833 0.63966 0.0
H594 H 0.60648 0.45614 0.55264 0.0
H595 H 0.57805 0.47229 0.5396 0.0
H596 H 0.46582 0.51957 0.46985 0.0
H597 H 0.43679 0.53528 0.45729 0.0
H598 H 0.47399 0.5251 0.37087 0.0
H599 H 0.50248 0.50894 0.38356 0.0
Pr600 Pr 1.02106 0.51956 0.98424 0.0
Pr601 Pr 1.01937 0.49483 0.03552 0.0
C602 C 1.01574 0.52962 0.93692 0.0
C603 C 0.99985 0.54078 0.92878 0.0
C604 C 0.9851 0.55502 0.94928 0.0
C605 C 0.97046 0.5661 0.94127 0.0
C606 C 0.9702 0.56299 0.91262 0.0
C607 C 0.98479 0.54831 0.89221 0.0
C608 C 0.99949 0.53734 0.90025 0.0
C609 C 0.0639 0.55163 0.01208 0.0
C610 C 0.99444 0.54621 0.04547 0.0
C611 C 0.02746 0.48747 0.08265 0.0
C612 C 0.04408 0.47743 0.0909 0.0
C613 C 0.03933 0.47265 0.11819 0.0
C614 C 0.0546 0.46252 0.12626 0.0
C615 C 0.07501 0.45699 0.10715 0.0
C616 C 0.07979 0.46205 0.07978 0.0
C617 C 0.06444 0.47214 0.07173 0.0
C618 C 0.97711 0.461 0.00715 0.0
C619 C 0.03947 0.46254 0.97363 0.0
O620 O 1.00388 0.50284 0.94399 0.0
O621 O 0.03253 0.5499 0.9533 0.0
O622 O 0.05213 0.52285 0.00609 0.0
O623 O 0.05441 0.56514 1.00237 0.0
O624 O 1.00451 0.5342 0.05693 0.0
O625 O 0.99531 0.54075 0.01803 0.0
O626 O 0.03869 0.51364 0.07437 0.0
O627 O 1.01004 0.46621 0.06743 0.0
O628 O 0.98829 0.48996 0.01275 0.0
O629 O 0.98632 0.4485 0.01851 0.0
O630 O 0.02981 0.47577 0.96316 0.0
O631 O 0.04211 0.47023 1.00042 0.0
H632 H 0.985 0.55766 0.97145 0.0
H633 H 0.95919 0.57691 0.95752 0.0
H634 H 0.98525 0.54582 0.87 0.0
H635 H 1.01075 0.52638 0.88416 0.0
H636 H 0.02362 0.4765 0.13323 0.0
H637 H 0.05007 0.45844 0.14734 0.0
H638 H 0.0955 0.45841 0.06462 0.0
H639 H 0.06837 0.47568 0.05051 0.0
H640 H 0.20936 0.16272 0.80243 0.0
H641 H 0.17844 0.14263 0.8418 0.0
H642 H 0.20512 0.2329 0.89565 0.0
H643 H 0.23644 0.25355 0.85605 0.0
H644 H 0.19909 0.18024 0.91766 0.0
H645 H 0.11289 0.16107 0.87766 0.0
H646 H 0.13467 0.14693 0.85179 0.0
H647 H 0.14473 0.18756 0.86616 0.0
C648 C 0.2088 0.17845 0.82258 0.0
C649 C 0.22538 0.20983 0.82602 0.0
C650 C 0.19097 0.1669 0.84504 0.0
C651 C 0.18928 0.18636 0.87146 0.0
C652 C 0.20605 0.21759 0.8753 0.0
H653 H 0.08883 0.11224 0.02018 0.0
H654 H 0.11928 0.15014 0.99189 0.0
C655 C 0.22389 0.22931 0.85267 0.0
C656 C 0.17013 0.17337 0.89488 0.0
H657 H 0.10594 0.1328 0.91215 0.0
C658 C 0.17867 0.17043 0.91692 0.0
C659 C 0.14355 0.16072 0.89377 0.0
C660 C 0.13333 0.16443 0.87122 0.0
C661 C 0.16135 0.15324 0.93684 0.0
C662 C 0.13486 0.13908 0.93475 0.0
C663 C 0.12626 0.14356 0.91362 0.0
C664 C 0.1161 0.11694 0.95227 0.0
C665 C 0.1716 0.14875 0.9589 0.0
C666 C 0.10388 0.08596 0.93929 0.0
C667 C 0.08655 0.06444 0.95529 0.0
C668 C 0.081 0.0735 0.98462 0.0
C669 C 0.09288 0.10464 0.99762 0.0
C670 C 0.11033 0.12624 0.98153 0.0
H671 H 0.19286 0.15736 0.955 0.0
H672 H 0.16587 0.16139 0.97987 0.0
H673 H 0.16339 0.124 0.9596 0.0
H674 H 0.10802 0.07833 0.91673 0.0
H675 H 0.07761 0.04063 0.94467 0.0
H676 H 0.11461 0.92584 0.06784 0.0
H677 H 0.13973 0.90678 0.08323 0.0
H678 H 0.13518 0.96559 0.16527 0.0
H679 H 0.11049 0.98512 0.15004 0.0
H680 H 0.18725 0.93968 0.10665 0.0
H681 H 0.1057 0.87807 0.18108 0.0
H682 H 0.1014 0.89113 0.15371 0.0
H683 H 0.11184 0.91784 0.18562 0.0
C684 C 0.11922 0.93502 0.08905 0.0
C685 C 0.11027 0.9568 0.10779 0.0
C686 C 0.13348 0.92398 0.09784 0.0
C687 C 0.13891 0.93437 0.12553 0.0
C688 C 0.13072 0.95678 0.14399 0.0
H689 H 0.21443 0.90038 0.22901 0.0
H690 H 0.19176 0.91826 0.20864 0.0
C691 C 0.11655 0.96786 0.13524 0.0
C692 C 0.15285 0.92162 0.13541 0.0
H693 H 0.14679 0.8824 0.18381 0.0
C694 C 0.1784 0.92693 0.12335 0.0
C695 C 0.14119 0.90495 0.15717 0.0
C696 C 0.11345 0.89736 0.17003 0.0
C697 C 0.19287 0.91685 0.13313 0.0
C698 C 0.18131 0.90064 0.15523 0.0
C699 C 0.15564 0.89493 0.16695 0.0
C700 C 0.19562 0.89003 0.16708 0.0
C701 C 0.22061 0.92443 0.12035 0.0
C702 C 0.2051 0.86797 0.15054 0.0
C703 C 0.21815 0.85773 0.16213 0.0
C704 C 0.22194 0.86936 0.19049 0.0
C705 C 0.21221 0.89129 0.207 0.0
C706 C 0.19912 0.90142 0.19544 0.0
H707 H 0.22812 0.94276 0.10819 0.0
H708 H 0.23275 0.93199 0.13691 0.0
H709 H 0.22242 0.90353 0.10581 0.0
H710 H 0.20224 0.85848 0.12873 0.0
H711 H 0.22553 0.84097 0.14879 0.0
H712 H 0.43352 0.92676 0.50773 0.0
H713 H 0.40387 0.89725 0.47343 0.0
H714 H 0.46774 0.90112 0.40679 0.0
H715 H 0.49752 0.9296 0.44137 0.0
H716 H 0.39919 0.91389 0.43039 0.0
H717 H 0.42187 0.81077 0.39021 0.0
H718 H 0.43298 0.83902 0.42137 0.0
H719 H 0.44937 0.84609 0.38702 0.0
C720 C 0.44125 0.92097 0.48581 0.0
C721 C 0.46784 0.93048 0.47719 0.0
C722 C 0.42428 0.90422 0.46621 0.0
C723 C 0.43351 0.89664 0.43754 0.0
C724 C 0.46011 0.90611 0.42885 0.0
H725 H 0.34355 0.84364 0.30418 0.0
H726 H 0.37384 0.87081 0.33791 0.0
C727 C 0.47712 0.92265 0.44856 0.0
C728 C 0.41519 0.87982 0.41687 0.0
H729 H 0.39499 0.81517 0.36535 0.0
C730 C 0.39822 0.89225 0.41622 0.0
C731 C 0.41367 0.85136 0.39867 0.0
C732 C 0.43026 0.83583 0.39947 0.0
C733 C 0.37992 0.87716 0.39781 0.0
C734 C 0.37902 0.84926 0.37888 0.0
C735 C 0.39583 0.83668 0.37968 0.0
C736 C 0.36066 0.83264 0.35823 0.0
C737 C 0.36134 0.89094 0.39936 0.0
C738 C 0.34366 0.80178 0.35778 0.0
C739 C 0.32652 0.78597 0.33819 0.0
C740 C 0.32602 0.80078 0.3187 0.0
C741 C 0.34317 0.83164 0.31912 0.0
C742 C 0.36045 0.8473 0.33851 0.0
H743 H 0.35939 0.90647 0.42012 0.0
H744 H 0.36854 0.9048 0.383 0.0
H745 H 0.34205 0.87278 0.39569 0.0
H746 H 0.34356 0.78993 0.3727 0.0
H747 H 0.31364 0.76219 0.3384 0.0
H748 H 0.33824 0.14903 0.5818 0.0
H749 H 0.36353 0.12174 0.55024 0.0
H750 H 0.30157 0.03502 0.56265 0.0
H751 H 0.27708 0.06228 0.59625 0.0
H752 H 0.34021 0.04178 0.58126 0.0
H753 H 0.37688 0.07011 0.47672 0.0
H754 H 0.38203 0.10531 0.5024 0.0
H755 H 0.34972 0.0772 0.49869 0.0
C756 C 0.32972 0.1241 0.5773 0.0
C757 C 0.30613 0.10793 0.59249 0.0
C758 C 0.34405 0.10842 0.5587 0.0
C759 C 0.33459 0.07627 0.55428 0.0
C760 C 0.30933 0.05988 0.56597 0.0
H761 H 0.45084 0.00055 0.48316 0.0
H762 H 0.41271 0.01032 0.48951 0.0
C763 C 0.29525 0.07558 0.58514 0.0
C764 C 0.3529 0.0613 0.54431 0.0
H765 H 0.40677 0.06284 0.49762 0.0
C766 C 0.35429 0.04566 0.56248 0.0
C767 C 0.37126 0.06608 0.51981 0.0
C768 C 0.36965 0.08031 0.49821 0.0
C769 C 0.37447 0.0366 0.55788 0.0
C770 C 0.39422 0.04427 0.53503 0.0
C771 C 0.39194 0.05783 0.51565 0.0
C772 C 0.41758 0.03889 0.53124 0.0
C773 C 0.37461 0.0194 0.57789 0.0
C774 C 0.43312 0.05204 0.55256 0.0
C775 C 0.45497 0.04639 0.54906 0.0
C776 C 0.46179 0.02806 0.52395 0.0
C777 C 0.44635 0.01529 0.50255 0.0
C778 C 0.42446 0.02069 0.50616 0.0
H779 H 0.35489 0.00687 0.58808 0.0
H780 H 0.38339 0.00261 0.56692 0.0
H781 H 0.3859 0.03607 0.59477 0.0
H782 H 0.42837 0.06674 0.57185 0.0
H783 H 0.46664 0.0566 0.56576 0.0
H784 H 0.13851 0.90102 0.52258 0.0
H785 H 0.16358 0.88955 0.54597 0.0
H786 H 0.12541 0.92052 0.62686 0.0
H787 H 0.09972 0.93129 0.60362 0.0
H788 H 0.19689 0.92846 0.58633 0.0
H789 H 0.11356 0.83287 0.62864 0.0
H790 H 0.11204 0.84843 0.6014 0.0
H791 H 0.11047 0.86896 0.63741 0.0
C792 C 0.13534 0.90525 0.54535 0.0
C793 C 0.11694 0.91682 0.56122 0.0
C794 C 0.1498 0.89887 0.55868 0.0
C795 C 0.14607 0.90374 0.58812 0.0
C796 C 0.12828 0.91613 0.60409 0.0
H797 H 0.21205 0.8587 0.69694 0.0
H798 H 0.1884 0.87802 0.67946 0.0
C799 C 0.11382 0.92258 0.59078 0.0
C800 C 0.16062 0.89543 0.60192 0.0
H801 H 0.15373 0.84591 0.64082 0.0
C802 C 0.18747 0.91048 0.59831 0.0
C803 C 0.14826 0.87203 0.61762 0.0
C804 C 0.11951 0.8544 0.6214 0.0
C805 C 0.20232 0.90269 0.60992 0.0
C806 C 0.19 0.87881 0.62509 0.0
C807 C 0.16312 0.8642 0.62919 0.0
C808 C 0.20467 0.86771 0.6358 0.0
C809 C 0.23107 0.92023 0.60601 0.0
C810 C 0.22134 0.85509 0.61701 0.0
C811 C 0.23474 0.84391 0.62688 0.0
C812 C 0.23166 0.84494 0.65578 0.0
C813 C 0.21473 0.85735 0.67454 0.0
C814 C 0.20131 0.86854 0.66462 0.0
H815 H 0.23675 0.94305 0.60133 0.0
H816 H 0.23903 0.92373 0.62504 0.0
H817 H 0.23985 0.90692 0.588 0.0
H818 H 0.22371 0.85346 0.5946 0.0
H819 H 0.24716 0.8339 0.61176 0.0
H820 H 0.30894 0.80371 0.82723 0.0
H821 H 0.33966 0.83482 0.86044 0.0
H822 H 0.40146 0.85394 0.79112 0.0
H823 H 0.37091 0.82218 0.75781 0.0
H824 H 0.41432 0.8412 0.83283 0.0
H825 H 0.37242 0.92812 0.87786 0.0
H826 H 0.34971 0.88967 0.88019 0.0
H827 H 0.36374 0.89931 0.84623 0.0
C828 C 0.32909 0.81447 0.81909 0.0
C829 C 0.33753 0.81079 0.78996 0.0
C830 C 0.3466 0.83238 0.83808 0.0
C831 C 0.37279 0.84726 0.82826 0.0
C832 C 0.38133 0.84285 0.79916 0.0
H833 H 0.48165 0.0015 0.92916 0.0
H834 H 0.45436 0.9673 0.89318 0.0
C835 C 0.36385 0.82476 0.78016 0.0
C836 C 0.39126 0.86769 0.84829 0.0
H837 H 0.40415 0.9319 0.90119 0.0
C838 C 0.41216 0.8611 0.84774 0.0
C839 C 0.38866 0.89394 0.86739 0.0
C840 C 0.36758 0.90342 0.86784 0.0
C841 C 0.43033 0.87977 0.86609 0.0
C842 C 0.42717 0.90535 0.88591 0.0
C843 C 0.40646 0.91215 0.88616 0.0
C844 C 0.44514 0.9256 0.90653 0.0
C845 C 0.45297 0.87225 0.86364 0.0
C846 C 0.44915 0.91355 0.92593 0.0
C847 C 0.46495 0.93305 0.94634 0.0
C848 C 0.47666 0.96498 0.94796 0.0
C849 C 0.47283 0.97698 0.9284 0.0
C850 C 0.45722 0.95747 0.90787 0.0
H851 H 0.45663 0.85813 0.84257 0.0
H852 H 0.47062 0.89351 0.86739 0.0
H853 H 0.44893 0.85881 0.87959 0.0
H854 H 0.43958 0.88917 0.92576 0.0
H855 H 0.46744 0.9232 0.96128 0.0
H856 H 0.3733 0.02865 0.12394 0.0
H857 H 0.33238 0.03335 0.13904 0.0
H858 H 0.32779 0.02694 0.0531 0.0
H859 H 0.36935 0.02306 0.038 0.0
H860 H 0.33 0.07956 0.08379 0.0
H861 H 0.25646 0.99389 0.14296 0.0
H862 H 0.28664 0.00611 0.15405 0.0
H863 H 0.28238 0.98651 0.11805 0.0
C864 C 0.36304 0.02688 0.10811 0.0
C865 C 0.37461 0.02606 0.07992 0.0
C866 C 0.33943 0.02924 0.11672 0.0
C867 C 0.32684 0.03034 0.0972 0.0
C868 C 0.3371 0.02605 0.06852 0.0
H869 H 0.25453 0.1619 0.1671 0.0
H870 H 0.25747 0.11558 0.1343 0.0
C871 C 0.3609 0.02408 0.05995 0.0
C872 C 0.30767 0.04412 0.10764 0.0
H873 H 0.26005 0.04762 0.16239 0.0
C874 C 0.31401 0.07195 0.10021 0.0
C875 C 0.28672 0.03418 0.12892 0.0
C876 C 0.27754 0.00332 0.13616 0.0
C877 C 0.30225 0.09195 0.11586 0.0
C878 C 0.28324 0.0835 0.13921 0.0
C879 C 0.27487 0.05418 0.14468 0.0
C880 C 0.27579 0.10687 0.16087 0.0
C881 C 0.31222 0.12326 0.10903 0.0
C882 C 0.28384 0.11623 0.18723 0.0
C883 C 0.28201 0.14244 0.20607 0.0
C884 C 0.27226 0.15986 0.19874 0.0
C885 C 0.26262 0.14928 0.17309 0.0
C886 C 0.26418 0.12279 0.15437 0.0
H887 H 0.32926 0.12744 0.09236 0.0
H888 H 0.29701 0.12512 0.10154 0.0
H889 H 0.31754 0.14171 0.12809 0.0
H890 H 0.2929 0.10426 0.19261 0.0
H891 H 0.28938 0.1498 0.22577 0.0
H892 H 0.07651 0.0746 0.47558 0.0
H893 H 0.10527 0.11143 0.44577 0.0
H894 H 0.11618 0.03744 0.38023 0.0
H895 H 0.08745 0.0005 0.40992 0.0
H896 H 0.16264 0.09032 0.39199 0.0
H897 H 0.08889 0.12152 0.37513 0.0
H898 H 0.09032 0.12472 0.4112 0.0
H899 H 0.08068 0.08756 0.38789 0.0
C900 C 0.08496 0.06616 0.45476 0.0
C901 C 0.07964 0.03461 0.44507 0.0
C902 C 0.10133 0.08724 0.43771 0.0
C903 C 0.11274 0.0772 0.41063 0.0
C904 C 0.10758 0.04573 0.40101 0.0
H905 H 0.18601 0.16512 0.26889 0.0
H906 H 0.15855 0.13287 0.30277 0.0
C907 C 0.0911 0.02463 0.41798 0.0
C908 C 0.1302 0.09944 0.39236 0.0
H909 H 0.13187 0.14899 0.3566 0.0
C910 C 0.15595 0.10325 0.38434 0.0
C911 C 0.12142 0.11614 0.38219 0.0
C912 C 0.09379 0.11222 0.38929 0.0
C913 C 0.17313 0.12328 0.36647 0.0
C914 C 0.1644 0.14014 0.35646 0.0
C915 C 0.13864 0.1363 0.36447 0.0
C916 C 0.18125 0.16044 0.33631 0.0
C917 C 0.20033 0.12561 0.35779 0.0
C918 C 0.20311 0.18699 0.34392 0.0
C919 C 0.21887 0.20564 0.32453 0.0
C920 C 0.21305 0.19804 0.29718 0.0
C921 C 0.19106 0.17163 0.28977 0.0
C922 C 0.17529 0.15316 0.30914 0.0
H923 H 0.20264 0.10676 0.36274 0.0
H924 H 0.20642 0.12496 0.33488 0.0
H925 H 0.21335 0.14785 0.36918 0.0
H926 H 0.20793 0.19334 0.36488 0.0
H927 H 0.23565 0.22587 0.33087 0.0
H928 H 0.82052 0.16747 0.22822 0.0
H929 H 0.84753 0.1396 0.20034 0.0
H930 H 0.87431 0.19614 0.13964 0.0
H931 H 0.84642 0.22244 0.16658 0.0
H932 H 0.88696 0.13172 0.18181 0.0
H933 H 0.88085 0.13591 0.07653 0.0
H934 H 0.89281 0.17383 0.09795 0.0
H935 H 0.86036 0.14684 0.10697 0.0
C936 C 0.83178 0.17415 0.20873 0.0
C937 C 0.82964 0.19838 0.20088 0.0
C938 C 0.84801 0.15757 0.19207 0.0
C939 C 0.86415 0.1632 0.16554 0.0
C940 C 0.86237 0.18809 0.15825 0.0
H941 H 0.95013 0.04905 0.02717 0.0
H942 H 0.92269 0.07637 0.05498 0.0
C943 C 0.84594 0.20434 0.17468 0.0
C944 C 0.88237 0.14426 0.1469 0.0
H945 H 0.91229 0.12057 0.07891 0.0
C946 C 0.8921 0.12973 0.15926 0.0
C947 C 0.89034 0.13895 0.11653 0.0
C948 C 0.88041 0.14935 0.09856 0.0
C949 C 0.90811 0.11233 0.14404 0.0
C950 C 0.91723 0.10845 0.11388 0.0
C951 C 0.90712 0.12251 0.10145 0.0
C952 C 0.93583 0.08999 0.09531 0.0
C953 C 0.91406 0.09695 0.16127 0.0
C954 C 0.95475 0.08653 0.10577 0.0
C955 C 0.9708 0.06981 0.08927 0.0
C956 C 0.97052 0.05504 0.05997 0.0
C957 C 0.95219 0.05903 0.04913 0.0
C958 C 0.93585 0.07545 0.06578 0.0
H959 H 0.89993 0.09326 0.18076 0.0
H960 H 0.91396 0.07425 0.14911 0.0
H961 H 0.93322 0.11195 0.16774 0.0
H962 H 0.958 0.09747 0.12722 0.0
H963 H 0.98408 0.0689 0.09992 0.0
H964 H 0.08751 0.53355 0.4213 0.0
H965 H 0.11839 0.57108 0.39342 0.0
H966 H 0.11103 0.64508 0.46162 0.0
H967 H 0.07972 0.60766 0.48956 0.0
H968 H 0.10779 0.65104 0.41025 0.0
H969 H 0.19273 0.62729 0.40255 0.0
H970 H 0.16547 0.59338 0.39135 0.0
H971 H 0.16406 0.61384 0.42746 0.0
C972 C 0.09252 0.5578 0.43045 0.0
C973 C 0.08118 0.56764 0.45765 0.0
C974 C 0.11031 0.57922 0.41456 0.0
C975 C 0.1173 0.61084 0.42567 0.0
C976 C 0.10599 0.62076 0.45277 0.0
H977 H 0.21961 0.76818 0.34729 0.0
H978 H 0.1907 0.73671 0.38161 0.0
C979 C 0.08811 0.59935 0.46867 0.0
C980 C 0.1356 0.63343 0.40848 0.0
H981 H 0.19577 0.65658 0.37085 0.0
C982 C 0.12715 0.65257 0.4019 0.0
C983 C 0.16083 0.63537 0.39775 0.0
C984 C 0.17143 0.61659 0.40535 0.0
C985 C 0.14297 0.67279 0.3839 0.0
C986 C 0.16788 0.67398 0.37249 0.0
C987 C 0.17657 0.65542 0.37961 0.0
C988 C 0.18484 0.69323 0.35201 0.0
C989 C 0.13267 0.69189 0.37636 0.0
C990 C 0.19112 0.67908 0.32423 0.0
C991 C 0.20747 0.69689 0.3047 0.0
C992 C 0.21799 0.72915 0.31275 0.0
C993 C 0.21164 0.74334 0.34057 0.0
C994 C 0.19515 0.72546 0.36012 0.0
H995 H 0.11166 0.6845 0.38319 0.0
H996 H 0.14229 0.71636 0.38677 0.0
H997 H 0.13681 0.69045 0.35328 0.0
H998 H 0.18333 0.65422 0.31765 0.0
H999 H 0.21203 0.68537 0.28336 0.0
H1000 H 0.57344 0.95782 0.66317 0.0
H1001 H 0.59833 0.93523 0.67394 0.0
H1002 H 0.62823 0.91563 0.58587 0.0
H1003 H 0.60337 0.93812 0.57494 0.0
H1004 H 0.59465 0.87576 0.65505 0.0
H1005 H 0.69315 0.95688 0.62179 0.0
H1006 H 0.6654 0.96534 0.62695 0.0
H1007 H 0.67278 0.9403 0.59513 0.0
C1008 C 0.58535 0.94877 0.64609 0.0
C1009 C 0.58644 0.94988 0.61818 0.0
C1010 C 0.59965 0.93597 0.6523 0.0
C1011 C 0.61545 0.9241 0.63079 0.0
C1012 C 0.6167 0.92531 0.60293 0.0
H1013 H 0.70566 0.82297 0.62127 0.0
H1014 H 0.68412 0.85067 0.61229 0.0
C1015 C 0.60245 0.93818 0.5967 0.0
C1016 C 0.62952 0.90906 0.63741 0.0
H1017 H 0.68924 0.91129 0.63221 0.0
C1018 C 0.61535 0.88368 0.65025 0.0
C1019 C 0.65653 0.91929 0.63101 0.0
C1020 C 0.67292 0.94712 0.61819 0.0
C1021 C 0.62735 0.86787 0.65635 0.0
C1022 C 0.65436 0.87808 0.64995 0.0
C1023 C 0.66855 0.90351 0.63716 0.0
C1024 C 0.66813 0.86224 0.65583 0.0
C1025 C 0.61089 0.83981 0.66883 0.0
C1026 C 0.66677 0.86002 0.6834 0.0
C1027 C 0.67889 0.84393 0.6886 0.0
C1028 C 0.69277 0.82984 0.66634 0.0
C1029 C 0.69474 0.83297 0.63887 0.0
C1030 C 0.68259 0.84903 0.6337 0.0
H1031 H 0.59056 0.83049 0.66571 0.0
H1032 H 0.6181 0.82137 0.6594 0.0
H1033 H 0.61142 0.84616 0.69181 0.0
H1034 H 0.65614 0.87054 0.7009 0.0
H1035 H 0.67684 0.84191 0.70999 0.0
H1036 H 0.4693 0.47255 0.9329 0.0
H1037 H 0.43953 0.4358 0.89986 0.0
H1038 H 0.44561 0.36059 0.91871 0.0
H1039 H 0.47536 0.39694 0.95159 0.0
H1040 H 0.44907 0.38765 0.85112 0.0
H1041 H 0.36643 0.34045 0.93202 0.0
H1042 H 0.39254 0.37754 0.93995 0.0
H1043 H 0.39691 0.34295 0.93555 0.0
C1044 C 0.46433 0.4482 0.93002 0.0
C1045 C 0.47473 0.43774 0.94497 0.0
C1046 C 0.44733 0.42725 0.91112 0.0
C1047 C 0.44017 0.39548 0.90709 0.0
C1048 C 0.45065 0.38499 0.92177 0.0
H1049 H 0.33114 0.23357 0.80963 0.0
H1050 H 0.36258 0.26849 0.84158 0.0
C1051 C 0.46777 0.40587 0.94047 0.0
C1052 C 0.42196 0.37323 0.88731 0.0
H1053 H 0.36151 0.31666 0.8845 0.0
C1054 C 0.42989 0.37217 0.85837 0.0
C1055 C 0.39709 0.35285 0.89685 0.0
C1056 C 0.38752 0.35346 0.92779 0.0
C1057 C 0.41367 0.35105 0.83863 0.0
C1058 C 0.38854 0.33102 0.84816 0.0
C1059 C 0.38072 0.33196 0.87716 0.0
C1060 C 0.36982 0.30964 0.82849 0.0
C1061 C 0.42387 0.35 0.80772 0.0
C1062 C 0.36316 0.32113 0.81079 0.0
C1063 C 0.34547 0.30126 0.79244 0.0
C1064 C 0.3337 0.26946 0.79166 0.0
C1065 C 0.34002 0.25794 0.80967 0.0
C1066 C 0.35792 0.27787 0.82795 0.0
H1067 H 0.44515 0.35918 0.80378 0.0
H1068 H 0.41615 0.32616 0.79508 0.0
H1069 H 0.41806 0.3645 0.80027 0.0
H1070 H 0.37144 0.34558 0.81136 0.0
H1071 H 0.3408 0.31091 0.77906 0.0
H1072 H 0.84067 0.81121 0.2741 0.0
H1073 H 0.87369 0.84194 0.30436 0.0
H1074 H 0.84626 0.76777 0.34759 0.0
H1075 H 0.81237 0.7371 0.31772 0.0
H1076 H 0.85468 0.82257 0.38423 0.0
H1077 H 0.93967 0.83562 0.30183 0.0
H1078 H 0.91827 0.8481 0.29442 0.0
H1079 H 0.90782 0.80828 0.29517 0.0
C1080 C 0.84171 0.80132 0.28995 0.0
C1081 C 0.8239 0.77171 0.29353 0.0
C1082 C 0.8608 0.81885 0.3071 0.0
C1083 C 0.86288 0.80703 0.32795 0.0
C1084 C 0.84519 0.77733 0.33151 0.0
H1085 H 0.97158 0.88909 0.44837 0.0
H1086 H 0.94047 0.85316 0.41665 0.0
C1087 C 0.82589 0.75978 0.31439 0.0
C1088 C 0.88278 0.82637 0.34677 0.0
H1089 H 0.94704 0.87059 0.34651 0.0
C1090 C 0.8749 0.83273 0.37598 0.0
C1091 C 0.90924 0.83967 0.33608 0.0
C1092 C 0.91929 0.83232 0.30518 0.0
C1093 C 0.89259 0.85273 0.39459 0.0
C1094 C 0.91882 0.86675 0.38376 0.0
C1095 C 0.92684 0.86002 0.35469 0.0
C1096 C 0.93816 0.88859 0.40242 0.0
C1097 C 0.88319 0.8594 0.42571 0.0
C1098 C 0.94737 0.92042 0.40467 0.0
C1099 C 0.96508 0.94111 0.4229 0.0
C1100 C 0.97411 0.9303 0.43903 0.0
C1101 C 0.96514 0.89829 0.43625 0.0
C1102 C 0.9473 0.87767 0.41819 0.0
H1103 H 0.86194 0.84868 0.43061 0.0
H1104 H 0.89134 0.85046 0.4369 0.0
H1105 H 0.88991 0.88464 0.43398 0.0
H1106 H 0.94056 0.92927 0.3926 0.0
H1107 H 0.97156 0.96556 0.42447 0.0
H1108 H 0.44681 0.54327 0.52935 0.0
H1109 H 0.4188 0.57007 0.55713 0.0
H1110 H 0.46412 0.60812 0.62379 0.0
H1111 H 0.49147 0.58053 0.59653 0.0
H1112 H 0.38338 0.57222 0.60933 0.0
H1113 H 0.46079 0.68837 0.62438 0.0
H1114 H 0.46582 0.65635 0.59905 0.0
H1115 H 0.46582 0.66082 0.6358 0.0
C1116 C 0.45127 0.5572 0.54992 0.0
C1117 C 0.47285 0.55842 0.55929 0.0
C1118 C 0.43456 0.57312 0.56649 0.0
C1119 C 0.43794 0.59294 0.59399 0.0
C1120 C 0.45965 0.59431 0.60321 0.0
H1121 H 0.35282 0.72743 0.67058 0.0
H1122 H 0.38072 0.70032 0.64356 0.0
C1123 C 0.47591 0.57774 0.587 0.0
C1124 C 0.41951 0.61136 0.61234 0.0
H1125 H 0.41982 0.68407 0.64939 0.0
C1126 C 0.39198 0.59671 0.61791 0.0
C1127 C 0.42842 0.64402 0.6248 0.0
C1128 C 0.45675 0.66359 0.62066 0.0
C1129 C 0.37481 0.61214 0.63452 0.0
C1130 C 0.38374 0.64476 0.64714 0.0
C1131 C 0.41123 0.65953 0.641 0.0
C1132 C 0.36537 0.66319 0.66573 0.0
C1133 C 0.34643 0.59273 0.63793 0.0
C1134 C 0.34584 0.65402 0.68929 0.0
C1135 C 0.32966 0.67062 0.70586 0.0
C1136 C 0.33065 0.69797 0.70044 0.0
C1137 C 0.35007 0.70705 0.67681 0.0
C1138 C 0.36671 0.69092 0.66072 0.0
H1139 H 0.34146 0.57086 0.62187 0.0
H1140 H 0.34014 0.58693 0.65902 0.0
H1141 H 0.33558 0.60542 0.63642 0.0
H1142 H 0.34309 0.63369 0.6956 0.0
H1143 H 0.31584 0.66139 0.72321 0.0
H1144 H 0.58565 0.0416 0.925 0.0
H1145 H 0.61532 0.0798 0.89721 0.0
H1146 H 0.6065 0.15256 0.96596 0.0
H1147 H 0.57673 0.11449 0.99409 0.0
H1148 H 0.60222 0.12462 0.88436 0.0
H1149 H 0.68615 0.17802 0.9418 0.0
H1150 H 0.66149 0.14009 0.94396 0.0
H1151 H 0.6552 0.17353 0.9624 0.0
C1152 C 0.59011 0.06572 0.93433 0.0
C1153 C 0.5788 0.07505 0.96172 0.0
C1154 C 0.60704 0.08747 0.91841 0.0
C1155 C 0.61314 0.11888 0.92968 0.0
C1156 C 0.60218 0.12838 0.9571 0.0
H1157 H 0.71748 0.27413 0.84965 0.0
H1158 H 0.68651 0.24351 0.88375 0.0
C1159 C 0.58512 0.10661 0.97304 0.0
C1160 C 0.63013 0.14146 0.9121 0.0
H1161 H 0.69013 0.19801 0.90315 0.0
C1162 C 0.6214 0.1408 0.8885 0.0
C1163 C 0.65498 0.16261 0.91784 0.0
C1164 C 0.66522 0.16368 0.94276 0.0
C1165 C 0.63709 0.16054 0.87012 0.0
C1166 C 0.6623 0.18096 0.87525 0.0
C1167 C 0.67077 0.18227 0.89934 0.0
C1168 C 0.68066 0.19963 0.85485 0.0
C1169 C 0.62655 0.1593 0.84533 0.0
C1170 C 0.68774 0.18498 0.82758 0.0
C1171 C 0.70521 0.20229 0.80819 0.0
C1172 C 0.7161 0.23456 0.81584 0.0
C1173 C 0.70922 0.24927 0.84323 0.0
C1174 C 0.69164 0.23187 0.86268 0.0
H1175 H 0.60525 0.14965 0.84901 0.0
H1176 H 0.63389 0.18253 0.84079 0.0
H1177 H 0.63262 0.14421 0.82644 0.0
H1178 H 0.67989 0.1601 0.82135 0.0
H1179 H 0.7103 0.19036 0.78724 0.0
H1180 H 0.09381 0.41373 0.07584 0.0
H1181 H 0.11874 0.39387 0.09039 0.0
H1182 H 0.11683 0.4538 0.17223 0.0
H1183 H 0.09225 0.47416 0.15779 0.0
H1184 H 0.1669 0.42617 0.11076 0.0
H1185 H 0.08884 0.36769 0.18991 0.0
H1186 H 0.08295 0.3804 0.16338 0.0
H1187 H 0.09598 0.40767 0.1939 0.0
C1188 C 0.09891 0.42297 0.09685 0.0
C1189 C 0.09086 0.44547 0.11567 0.0
C1190 C 0.11304 0.41145 0.10517 0.0
C1191 C 0.11929 0.422 0.13253 0.0
C1192 C 0.11175 0.44484 0.15122 0.0
H1193 H 0.19749 0.36839 0.21991 0.0
H1194 H 0.17555 0.39363 0.20747 0.0
C1195 C 0.09765 0.45643 0.14291 0.0
C1196 C 0.13383 0.40917 0.14141 0.0
H1197 H 0.12944 0.36765 0.18701 0.0
C1198 C 0.15872 0.41335 0.12742 0.0
C1199 C 0.12316 0.39259 0.16324 0.0
C1200 C 0.09619 0.38653 0.17839 0.0
C1201 C 0.17332 0.40157 0.13477 0.0
C1202 C 0.16252 0.38457 0.15632 0.0
C1203 C 0.13772 0.38071 0.17053 0.0
C1204 C 0.17628 0.36973 0.16379 0.0
C1205 C 0.20033 0.40787 0.11968 0.0
C1206 C 0.18369 0.34761 0.14351 0.0
C1207 C 0.19616 0.33314 0.15055 0.0
C1208 C 0.20137 0.34027 0.17814 0.0
C1209 C 0.19368 0.36223 0.19852 0.0
C1210 C 0.18122 0.37677 0.19142 0.0
H1211 H 0.20824 0.42834 0.11016 0.0
H1212 H 0.21327 0.41163 0.13416 0.0
H1213 H 0.20028 0.38777 0.10244 0.0
H1214 H 0.17945 0.34114 0.12226 0.0
H1215 H 0.20123 0.31583 0.13447 0.0
H1216 H 0.57479 0.50831 0.9092 0.0
H1217 H 0.60144 0.54505 0.87869 0.0
H1218 H 0.60761 0.62047 0.95035 0.0
H1219 H 0.58069 0.58382 0.98102 0.0
H1220 H 0.59143 0.59915 0.87448 0.0
H1221 H 0.6841 0.63138 0.9093 0.0
H1222 H 0.65719 0.59519 0.91264 0.0
H1223 H 0.65654 0.63023 0.93573 0.0
C1224 C 0.58177 0.53272 0.91847 0.0
C1225 C 0.57572 0.54316 0.94753 0.0
C1226 C 0.59698 0.55367 0.90101 0.0
C1227 C 0.60671 0.58547 0.91228 0.0
C1228 C 0.60051 0.59602 0.94126 0.0
H1229 H 0.71683 0.73637 0.82737 0.0
H1230 H 0.68879 0.70658 0.86335 0.0
C1231 C 0.58506 0.57506 0.95872 0.0
C1232 C 0.62319 0.60746 0.89358 0.0
H1233 H 0.68539 0.65478 0.8744 0.0
C1234 C 0.61195 0.61143 0.87452 0.0
C1235 C 0.64991 0.62371 0.89388 0.0
C1236 C 0.66286 0.61999 0.91384 0.0
C1237 C 0.62674 0.63103 0.8556 0.0
C1238 C 0.65369 0.64642 0.85506 0.0
C1239 C 0.66481 0.64299 0.87466 0.0
C1240 C 0.6707 0.66486 0.83347 0.0
C1241 C 0.61319 0.63531 0.83661 0.0
C1242 C 0.6703 0.65129 0.8047 0.0
C1243 C 0.68606 0.66828 0.78426 0.0
C1244 C 0.70295 0.69919 0.79201 0.0
C1245 C 0.70386 0.71268 0.82077 0.0
C1246 C 0.68789 0.69565 0.84132 0.0
H1247 H 0.59289 0.63092 0.84589 0.0
H1248 H 0.62288 0.65892 0.83246 0.0
H1249 H 0.61317 0.61862 0.81623 0.0
H1250 H 0.6579 0.62737 0.79798 0.0
H1251 H 0.68514 0.65704 0.76229 0.0
H1252 H 0.69733 0.3029 0.15169 0.0
H1253 H 0.67438 0.32224 0.13335 0.0
H1254 H 0.73697 0.41183 0.14249 0.0
H1255 H 0.7601 0.39264 0.16081 0.0
H1256 H 0.65812 0.36974 0.15732 0.0
H1257 H 0.72841 0.39311 0.06037 0.0
H1258 H 0.72882 0.3706 0.08228 0.0
H1259 H 0.74177 0.41189 0.09257 0.0
C1260 C 0.70613 0.3268 0.15004 0.0
C1261 C 0.73062 0.34618 0.15758 0.0
C1262 C 0.69303 0.33778 0.13944 0.0
C1263 C 0.70414 0.36833 0.13609 0.0
C1264 C 0.7283 0.38797 0.14424 0.0
H1265 H 0.64859 0.46511 0.06607 0.0
H1266 H 0.67312 0.45316 0.08998 0.0
C1267 C 0.74147 0.37697 0.15475 0.0
C1268 C 0.69031 0.37949 0.12412 0.0
H1269 H 0.69391 0.40792 0.06858 0.0
C1270 C 0.66596 0.37812 0.13794 0.0
C1271 C 0.7006 0.39053 0.09886 0.0
C1272 C 0.72623 0.39142 0.08247 0.0
C1273 C 0.65159 0.38741 0.12717 0.0
C1274 C 0.6617 0.39795 0.10169 0.0
C1275 C 0.68625 0.3999 0.08815 0.0
C1276 C 0.64657 0.40556 0.088 0.0
C1277 C 0.62576 0.38603 0.14324 0.0
C1278 C 0.62367 0.38272 0.07876 0.0
C1279 C 0.60965 0.38946 0.06518 0.0
C1280 C 0.6183 0.41919 0.06038 0.0
C1281 C 0.64128 0.44209 0.06968 0.0
C1282 C 0.65537 0.43526 0.08321 0.0
H1283 H 0.62398 0.38584 0.1657 0.0
H1284 H 0.62236 0.40587 0.14218 0.0
H1285 H 0.61052 0.36457 0.13382 0.0
H1286 H 0.61674 0.35952 0.08182 0.0
H1287 H 0.5919 0.37138 0.0586 0.0
H1288 H 0.98159 0.42082 0.44937 0.0
H1289 H 0.95478 0.38635 0.41289 0.0
H1290 H 0.94145 0.46196 0.40523 0.0
H1291 H 0.96898 0.49659 0.44071 0.0
H1292 H 0.90588 0.36902 0.41226 0.0
H1293 H 0.96025 0.42823 0.32435 0.0
H1294 H 0.97304 0.43795 0.35638 0.0
H1295 H 0.95163 0.45391 0.35448 0.0
C1296 C 0.97315 0.43009 0.43961 0.0
C1297 C 0.97746 0.46138 0.44771 0.0
C1298 C 0.95782 0.4104 0.41882 0.0
C1299 C 0.94644 0.42163 0.40588 0.0
C1300 C 0.95061 0.45288 0.41421 0.0
H1301 H 0.81009 0.3172 0.32634 0.0
H1302 H 0.84156 0.34636 0.35881 0.0
C1303 C 0.96621 0.47264 0.43467 0.0
C1304 C 0.92922 0.40047 0.38468 0.0
H1305 H 0.91675 0.39253 0.31967 0.0
C1306 C 0.90844 0.37399 0.39188 0.0
C1307 C 0.93276 0.40651 0.35783 0.0
C1308 C 0.9558 0.43301 0.34769 0.0
C1309 C 0.89066 0.35403 0.37341 0.0
C1310 C 0.89322 0.36127 0.34737 0.0
C1311 C 0.9145 0.38716 0.33978 0.0
C1312 C 0.87393 0.34271 0.32785 0.0
C1313 C 0.86953 0.32521 0.38193 0.0
C1314 C 0.88166 0.33169 0.29938 0.0
C1315 C 0.86377 0.31564 0.28064 0.0
C1316 C 0.83778 0.31017 0.29006 0.0
C1317 C 0.82998 0.32091 0.31856 0.0
C1318 C 0.84793 0.33734 0.3372 0.0
H1319 H 0.87524 0.31778 0.39693 0.0
H1320 H 0.85231 0.32993 0.39266 0.0
H1321 H 0.86428 0.30597 0.3634 0.0
H1322 H 0.9016 0.33563 0.29161 0.0
H1323 H 0.87028 0.30754 0.25879 0.0
H1324 H 0.58793 0.54891 0.44613 0.0
H1325 H 0.61829 0.58917 0.42057 0.0
H1326 H 0.61345 0.65883 0.49467 0.0
H1327 H 0.58315 0.61861 0.52052 0.0
H1328 H 0.60802 0.66702 0.44106 0.0
H1329 H 0.69446 0.64651 0.43485 0.0
H1330 H 0.66668 0.61247 0.42491 0.0
H1331 H 0.66619 0.63409 0.46058 0.0
C1332 C 0.59338 0.5728 0.45701 0.0
C1333 C 0.58332 0.58067 0.48535 0.0
C1334 C 0.61078 0.59573 0.44243 0.0
C1335 C 0.61833 0.6269 0.45588 0.0
C1336 C 0.60798 0.63488 0.48403 0.0
H1337 H 0.74271 0.76403 0.36408 0.0
H1338 H 0.71502 0.74166 0.40464 0.0
C1339 C 0.59071 0.61191 0.49872 0.0
C1340 C 0.63662 0.651 0.44015 0.0
H1341 H 0.69734 0.67651 0.40399 0.0
C1342 C 0.62768 0.6695 0.43332 0.0
C1343 C 0.66234 0.65446 0.43045 0.0
C1344 C 0.67315 0.63605 0.43823 0.0
C1345 C 0.64339 0.69008 0.41555 0.0
C1346 C 0.66857 0.69204 0.40434 0.0
C1347 C 0.678 0.67493 0.41259 0.0
C1348 C 0.68416 0.70842 0.38131 0.0
C1349 C 0.63272 0.7089 0.4082 0.0
C1350 C 0.67586 0.69725 0.35498 0.0
C1351 C 0.69161 0.70963 0.33193 0.0
C1352 C 0.716 0.73357 0.33473 0.0
C1353 C 0.72395 0.7457 0.36138 0.0
C1354 C 0.70822 0.73293 0.38449 0.0
H1355 H 0.61655 0.71165 0.42434 0.0
H1356 H 0.64779 0.73204 0.40603 0.0
H1357 H 0.62541 0.69701 0.38779 0.0
H1358 H 0.65756 0.67805 0.35196 0.0
H1359 H 0.68489 0.69987 0.3117 0.0
H1360 H 0.82035 0.26546 0.83446 0.0
H1361 H 0.84802 0.29474 0.87098 0.0
H1362 H 0.85665 0.37966 0.85546 0.0
H1363 H 0.82903 0.35079 0.81909 0.0
H1364 H 0.90003 0.3402 0.86368 0.0
H1365 H 0.83469 0.38866 0.94183 0.0
H1366 H 0.82354 0.35584 0.9135 0.0
H1367 H 0.83969 0.394 0.9067 0.0
C1368 C 0.82799 0.29037 0.83891 0.0
C1369 C 0.8224 0.30576 0.82387 0.0
C1370 C 0.84382 0.30703 0.85976 0.0
C1371 C 0.85407 0.33932 0.86614 0.0
C1372 C 0.84856 0.35474 0.85118 0.0
H1373 H 0.95675 0.48329 0.98021 0.0
H1374 H 0.92691 0.45358 0.94578 0.0
C1375 C 0.83288 0.33815 0.83026 0.0
C1376 C 0.87131 0.35701 0.88774 0.0
H1377 H 0.8773 0.40816 0.95098 0.0
C1378 C 0.89503 0.35492 0.88286 0.0
C1379 C 0.86477 0.37636 0.9126 0.0
C1380 C 0.83921 0.37877 0.9192 0.0
C1381 C 0.91263 0.3721 0.90199 0.0
C1382 C 0.90604 0.39132 0.92697 0.0
C1383 C 0.8823 0.39341 0.93183 0.0
C1384 C 0.92348 0.40924 0.94839 0.0
C1385 C 0.9384 0.37011 0.8949 0.0
C1386 C 0.93099 0.39415 0.9617 0.0
C1387 C 0.94811 0.41103 0.98116 0.0
C1388 C 0.95784 0.44332 0.98788 0.0
C1389 C 0.94968 0.45842 0.97525 0.0
C1390 C 0.93262 0.44149 0.95565 0.0
H1391 H 0.94313 0.36144 0.87201 0.0
H1392 H 0.9539 0.39292 0.90141 0.0
H1393 H 0.938 0.35392 0.90625 0.0
H1394 H 0.9237 0.36926 0.95691 0.0
H1395 H 0.95395 0.39879 0.99072 0.0
H1396 H 0.84367 0.83507 0.20592 0.0
H1397 H 0.87358 0.85226 0.16512 0.0
H1398 H 0.83754 0.76311 0.11278 0.0
H1399 H 0.80686 0.74539 0.15404 0.0
H1400 H 0.90834 0.82672 0.12866 0.0
H1401 H 0.83783 0.82571 0.07282 0.0
H1402 H 0.8306 0.82459 0.10968 0.0
H1403 H 0.83129 0.7912 0.08354 0.0
C1404 C 0.84188 0.81891 0.18583 0.0
C1405 C 0.82268 0.7888 0.1833 0.0
C1406 C 0.85915 0.82885 0.16248 0.0
C1407 C 0.85771 0.80908 0.13592 0.0
C1408 C 0.83879 0.77884 0.13311 0.0
H1409 H 0.95704 0.88628 0.98861 0.0
H1410 H 0.92693 0.84739 0.01605 0.0
C1411 C 0.82136 0.76873 0.15668 0.0
C1412 C 0.87622 0.82106 0.11163 0.0
H1413 H 0.88151 0.84994 0.05572 0.0
C1414 C 0.90247 0.83123 0.11234 0.0
C1415 C 0.86851 0.82685 0.09034 0.0
C1416 C 0.84056 0.81671 0.08889 0.0
C1417 C 0.92121 0.84851 0.09331 0.0
C1418 C 0.91349 0.85611 0.07327 0.0
C1419 C 0.88731 0.84418 0.07126 0.0
C1420 C 0.93208 0.87904 0.05642 0.0
C1421 C 0.94913 0.85942 0.09541 0.0
C1422 C 0.94467 0.90968 0.07005 0.0
C1423 C 0.96162 0.93187 0.05452 0.0
C1424 C 0.96635 0.92381 0.02502 0.0
C1425 C 0.9538 0.89309 0.01134 0.0
C1426 C 0.93662 0.87089 0.02694 0.0
H1427 H 0.95208 0.84472 0.10582 0.0
H1428 H 0.961 0.85956 0.07427 0.0
H1429 H 0.956 0.88327 0.10818 0.0
H1430 H 0.9411 0.91654 0.09276 0.0
H1431 H 0.97095 0.95537 0.06562 0.0
H1432 H 0.79505 0.11942 0.8594 0.0
H1433 H 0.81832 0.10121 0.87862 0.0
H1434 H 0.8835 0.13066 0.81468 0.0
H1435 H 0.86042 0.14901 0.79543 0.0
H1436 H 0.8373 0.05723 0.85368 0.0
H1437 H 0.91673 0.16923 0.88528 0.0
H1438 H 0.88809 0.16637 0.876 0.0
H1439 H 0.91341 0.16088 0.84897 0.0
C1440 C 0.81435 0.12205 0.84943 0.0
C1441 C 0.82592 0.13583 0.82594 0.0
C1442 C 0.82766 0.11171 0.86051 0.0
C1443 C 0.85283 0.11502 0.84841 0.0
C1444 C 0.86436 0.1286 0.82486 0.0
H1445 H 0.96516 0.05927 0.86786 0.0
H1446 H 0.93966 0.07841 0.85352 0.0
C1447 C 0.85112 0.13906 0.81385 0.0
C1448 C 0.86668 0.10327 0.85973 0.0
H1449 H 0.92218 0.12432 0.88458 0.0
C1450 C 0.85575 0.07194 0.86068 0.0
C1451 C 0.89072 0.12251 0.86898 0.0
C1452 C 0.90282 0.15667 0.87005 0.0
C1453 C 0.86859 0.05913 0.86968 0.0
C1454 C 0.89289 0.07825 0.8783 0.0
C1455 C 0.90361 0.10966 0.87782 0.0
C1456 C 0.90793 0.06603 0.88711 0.0
C1457 C 0.85641 0.02505 0.86905 0.0
C1458 C 0.89868 0.05294 0.91095 0.0
C1459 C 0.91318 0.04178 0.91914 0.0
C1460 C 0.93726 0.04356 0.90367 0.0
C1461 C 0.94652 0.05699 0.87997 0.0
C1462 C 0.93205 0.06816 0.87185 0.0
H1463 H 0.84072 0.01253 0.85597 0.0
H1464 H 0.87089 0.01491 0.86076 0.0
H1465 H 0.84811 0.02136 0.89078 0.0
H1466 H 0.88031 0.05155 0.92334 0.0
H1467 H 0.90542 0.03148 0.93742 0.0
H1468 H 0.7187 0.24088 0.68983 0.0
H1469 H 0.68777 0.21274 0.65677 0.0
H1470 H 0.68913 0.12748 0.65889 0.0
H1471 H 0.71937 0.15534 0.69278 0.0
H1472 H 0.691 0.17943 0.60553 0.0
H1473 H 0.61345 0.10444 0.67327 0.0
H1474 H 0.64106 0.13656 0.68664 0.0
H1475 H 0.643 0.10031 0.66845 0.0
C1476 C 0.71238 0.21612 0.68333 0.0
C1477 C 0.72138 0.20032 0.69411 0.0
C1478 C 0.69465 0.20004 0.66443 0.0
C1479 C 0.68564 0.16787 0.65575 0.0
C1480 C 0.69512 0.15215 0.66592 0.0
H1481 H 0.61516 0.06159 0.50569 0.0
H1482 H 0.64392 0.0902 0.54098 0.0
C1483 C 0.71261 0.16816 0.68513 0.0
C1484 C 0.66695 0.15101 0.63543 0.0
H1485 H 0.60906 0.09126 0.62469 0.0
C1486 C 0.67301 0.16028 0.60983 0.0
C1487 C 0.64324 0.12631 0.64116 0.0
C1488 C 0.63465 0.11652 0.669 0.0
C1489 C 0.65631 0.14527 0.58965 0.0
C1490 C 0.63322 0.11961 0.5948 0.0
C1491 C 0.62689 0.11069 0.62061 0.0
C1492 C 0.61548 0.10162 0.57359 0.0
C1493 C 0.66344 0.15746 0.56324 0.0
C1494 C 0.58959 0.09741 0.58044 0.0
C1495 C 0.57297 0.08061 0.56035 0.0
C1496 C 0.58201 0.06784 0.53308 0.0
C1497 C 0.60778 0.07168 0.5264 0.0
C1498 C 0.62428 0.08814 0.54653 0.0
H1499 H 0.67695 0.18209 0.56647 0.0
H1500 H 0.67312 0.1443 0.54624 0.0
H1501 H 0.64622 0.15505 0.55611 0.0
H1502 H 0.58231 0.10736 0.60127 0.0
H1503 H 0.55313 0.07779 0.56608 0.0
H1504 H 0.57675 0.93431 0.44619 0.0
H1505 H 0.6135 0.92111 0.43967 0.0
H1506 H 0.63849 0.98872 0.51484 0.0
H1507 H 0.60146 0.0009 0.522 0.0
H1508 H 0.6615 0.95611 0.43013 0.0
H1509 H 0.64595 0.91893 0.52891 0.0
H1510 H 0.62167 0.92457 0.51851 0.0
H1511 H 0.64711 0.95691 0.53538 0.0
C1512 C 0.59002 0.94604 0.46137 0.0
C1513 C 0.58624 0.96831 0.48468 0.0
C1514 C 0.61088 0.93847 0.45776 0.0
C1515 C 0.62841 0.95345 0.47717 0.0
C1516 C 0.62476 0.97604 0.50021 0.0
H1517 H 0.77636 0.94884 0.41023 0.0
H1518 H 0.74705 0.97084 0.44141 0.0
C1519 C 0.60369 0.98315 0.50411 0.0
C1520 C 0.6517 0.94739 0.47186 0.0
H1521 H 0.68717 0.92811 0.50077 0.0
C1522 C 0.66704 0.94988 0.44556 0.0
C1523 C 0.65886 0.93926 0.49208 0.0
C1524 C 0.64239 0.93445 0.52017 0.0
C1525 C 0.68906 0.94388 0.43853 0.0
C1526 C 0.69675 0.9367 0.45899 0.0
C1527 C 0.68158 0.93446 0.48548 0.0
C1528 C 0.7186 0.92758 0.45152 0.0
C1529 C 0.70306 0.94382 0.40872 0.0
C1530 C 0.71384 0.89703 0.45031 0.0
C1531 C 0.73109 0.88458 0.43338 0.0
C1532 C 0.7528 0.90233 0.41686 0.0
C1533 C 0.7596 0.93422 0.42212 0.0
C1534 C 0.74269 0.94686 0.43978 0.0
H1535 H 0.69125 0.94283 0.39425 0.0
H1536 H 0.72076 0.96527 0.40838 0.0
H1537 H 0.70854 0.92388 0.40041 0.0
H1538 H 0.6956 0.88194 0.45988 0.0
H1539 H 0.72595 0.86024 0.43086 0.0
H1540 H 0.78928 0.11904 0.36181 0.0
H1541 H 0.81352 0.10148 0.38032 0.0
H1542 H 0.88193 0.18226 0.36631 0.0
H1543 H 0.85772 0.20047 0.34861 0.0
H1544 H 0.85734 0.08906 0.35484 0.0
H1545 H 0.87647 0.18385 0.44955 0.0
H1546 H 0.85277 0.17559 0.42843 0.0
H1547 H 0.88622 0.19657 0.417 0.0
C1548 C 0.80944 0.1332 0.36288 0.0
C1549 C 0.82151 0.16129 0.35391 0.0
C1550 C 0.82329 0.12302 0.37328 0.0
C1551 C 0.84941 0.1408 0.37511 0.0
C1552 C 0.86167 0.16845 0.36555 0.0
H1553 H 0.96794 0.12727 0.43389 0.0
H1554 H 0.94236 0.14114 0.41367 0.0
C1555 C 0.84786 0.17865 0.35513 0.0
C1556 C 0.86385 0.13047 0.38704 0.0
H1557 H 0.8984 0.15128 0.44003 0.0
C1558 C 0.86621 0.10254 0.37355 0.0
C1559 C 0.87533 0.14809 0.41151 0.0
C1560 C 0.87242 0.17756 0.42766 0.0
C1561 C 0.88037 0.09215 0.38344 0.0
C1562 C 0.89208 0.10995 0.40773 0.0
C1563 C 0.88948 0.13772 0.42136 0.0
C1564 C 0.90756 0.10059 0.41914 0.0
C1565 C 0.88326 0.06266 0.36738 0.0
C1566 C 0.89646 0.07322 0.42908 0.0
C1567 C 0.91112 0.06507 0.44049 0.0
C1568 C 0.93714 0.08423 0.44227 0.0
C1569 C 0.94811 0.11169 0.43238 0.0
C1570 C 0.93346 0.11978 0.421 0.0
H1571 H 0.87854 0.05582 0.34573 0.0
H1572 H 0.90311 0.06494 0.366 0.0
H1573 H 0.86998 0.04387 0.37854 0.0
H1574 H 0.87638 0.05834 0.42833 0.0
H1575 H 0.9021 0.04371 0.44779 0.0
H1576 H 0.74111 0.20042 0.18359 0.0
H1577 H 0.71006 0.17092 0.15058 0.0
H1578 H 0.64849 0.15231 0.22022 0.0
H1579 H 0.67938 0.18253 0.2533 0.0
H1580 H 0.6787 0.11106 0.1431 0.0
H1581 H 0.6205 0.18019 0.17348 0.0
H1582 H 0.65107 0.1941 0.18498 0.0
H1583 H 0.62257 0.16823 0.20266 0.0
C1584 C 0.72092 0.19032 0.19184 0.0
C1585 C 0.71263 0.1938 0.22099 0.0
C1586 C 0.7032 0.17345 0.17298 0.0
C1587 C 0.67689 0.15974 0.1829 0.0
C1588 C 0.6686 0.16328 0.21205 0.0
H1589 H 0.56582 0.00519 0.08424 0.0
H1590 H 0.59473 0.03915 0.11878 0.0
C1591 C 0.68629 0.18035 0.23093 0.0
C1592 C 0.65834 0.14039 0.16273 0.0
H1593 H 0.60312 0.13049 0.14386 0.0
C1594 C 0.66225 0.11542 0.14317 0.0
C1595 C 0.63705 0.1463 0.16258 0.0
C1596 C 0.63265 0.17384 0.18186 0.0
C1597 C 0.64528 0.09592 0.12378 0.0
C1598 C 0.62338 0.10103 0.12443 0.0
C1599 C 0.6197 0.12633 0.14364 0.0
C1600 C 0.6044 0.08071 0.10493 0.0
C1601 C 0.65132 0.07043 0.10241 0.0
C1602 C 0.59925 0.09296 0.08658 0.0
C1603 C 0.58242 0.07366 0.06714 0.0
C1604 C 0.57052 0.04175 0.06567 0.0
C1605 C 0.57497 0.02966 0.08471 0.0
C1606 C 0.59161 0.049 0.10431 0.0
H1607 H 0.67198 0.07509 0.09947 0.0
H1608 H 0.64015 0.04857 0.10988 0.0
H1609 H 0.64613 0.06723 0.0817 0.0
H1610 H 0.60875 0.11738 0.08683 0.0
H1611 H 0.57927 0.08362 0.05278 0.0
H1612 H 0.75461 0.83308 0.83512 0.0
H1613 H 0.75006 0.88198 0.85537 0.0
H1614 H 0.77277 0.9035 0.77307 0.0
H1615 H 0.77658 0.85428 0.75252 0.0
H1616 H 0.78091 0.94622 0.85522 0.0
H1617 H 0.69873 0.89573 0.79517 0.0
H1618 H 0.71407 0.87288 0.79826 0.0
H1619 H 0.72964 0.89949 0.77515 0.0
C1620 C 0.75896 0.84841 0.82141 0.0
C1621 C 0.76532 0.83959 0.7922 0.0
C1622 C 0.75657 0.87642 0.83302 0.0
C1623 C 0.76074 0.89606 0.81561 0.0
C1624 C 0.76908 0.88839 0.78675 0.0
H1625 H 0.66859 0.00135 0.8754 0.0
H1626 H 0.70802 0.99647 0.84816 0.0
C1627 C 0.77111 0.86022 0.77507 0.0
C1628 C 0.7526 0.92186 0.82719 0.0
H1629 H 0.70287 0.93993 0.82956 0.0
C1630 C 0.76417 0.94535 0.84928 0.0
C1631 C 0.73101 0.92088 0.81906 0.0
C1632 C 0.71747 0.89587 0.79575 0.0
C1633 C 0.75355 0.96667 0.86479 0.0
C1634 C 0.73058 0.96384 0.8583 0.0
C1635 C 0.72049 0.94213 0.83457 0.0
C1636 C 0.71361 0.97789 0.87847 0.0
C1637 C 0.76645 0.99115 0.88861 0.0
C1638 C 0.70454 0.97081 0.90528 0.0
C1639 C 0.68214 0.9737 0.92086 0.0
C1640 C 0.66829 0.98332 0.90968 0.0
C1641 C 0.67879 0.99346 0.88425 0.0
C1642 C 0.70139 0.99092 0.8688 0.0
H1643 H 0.78764 0.99911 0.88332 0.0
H1644 H 0.76139 0.01128 0.89363 0.0
H1645 H 0.76042 0.98132 0.90764 0.0
H1646 H 0.71317 0.96003 0.91297 0.0
H1647 H 0.67439 0.96556 0.94034 0.0
H1648 H 0.97262 0.91779 0.5305 0.0
H1649 H 0.94262 0.88094 0.55986 0.0
H1650 H 0.92819 0.95451 0.62276 0.0
H1651 H 0.95823 0.99146 0.5936 0.0
H1652 H 0.94418 0.88186 0.61709 0.0
H1653 H 0.85555 0.88842 0.6067 0.0
H1654 H 0.88512 0.90132 0.5828 0.0
H1655 H 0.88115 0.92494 0.61702 0.0
C1656 C 0.96305 0.9261 0.55059 0.0
C1657 C 0.96771 0.95752 0.55968 0.0
C1658 C 0.94591 0.90502 0.56734 0.0
C1659 C 0.93286 0.91486 0.59333 0.0
C1660 C 0.93771 0.94628 0.60258 0.0
H1661 H 0.85494 0.8354 0.73852 0.0
H1662 H 0.88378 0.86499 0.70321 0.0
C1663 C 0.95498 0.96741 0.58595 0.0
C1664 C 0.91455 0.89245 0.61108 0.0
H1665 H 0.85174 0.86206 0.64103 0.0
C1666 C 0.92394 0.87736 0.62216 0.0
C1667 C 0.88807 0.88628 0.61744 0.0
C1668 C 0.87672 0.90084 0.60521 0.0
C1669 C 0.90775 0.85715 0.64019 0.0
C1670 C 0.88147 0.85192 0.64743 0.0
C1671 C 0.87189 0.86616 0.63558 0.0
C1672 C 0.86402 0.83314 0.66849 0.0
C1673 C 0.91889 0.84163 0.65153 0.0
C1674 C 0.84305 0.80544 0.66083 0.0
C1675 C 0.82651 0.78825 0.68106 0.0
C1676 C 0.83048 0.79876 0.70936 0.0
C1677 C 0.85141 0.82656 0.71689 0.0
C1678 C 0.86799 0.8435 0.69671 0.0
H1679 H 0.93749 0.84201 0.63886 0.0
H1680 H 0.92225 0.8539 0.67344 0.0
H1681 H 0.90541 0.81737 0.65189 0.0
H1682 H 0.83954 0.7971 0.63919 0.0
H1683 H 0.81052 0.76698 0.67464 0.0
H1684 H 0.20333 0.78053 0.844 0.0
H1685 H 0.17554 0.80767 0.87065 0.0
H1686 H 0.20343 0.86292 0.8087 0.0
H1687 H 0.22989 0.83469 0.78159 0.0
H1688 H 0.16522 0.84954 0.90177 0.0
H1689 H 0.14267 0.87114 0.81331 0.0
H1690 H 0.15817 0.84556 0.80756 0.0
H1691 H 0.1766 0.88676 0.81289 0.0
C1692 C 0.20364 0.79817 0.83537 0.0
C1693 C 0.22006 0.80376 0.80908 0.0
C1694 C 0.1871 0.81451 0.85134 0.0
C1695 C 0.18491 0.83855 0.84309 0.0
C1696 C 0.2019 0.84449 0.81701 0.0
H1697 H 0.06483 0.93062 0.91017 0.0
H1698 H 0.09235 0.90314 0.88344 0.0
C1699 C 0.21818 0.8279 0.80088 0.0
C1700 C 0.1661 0.85678 0.86149 0.0
H1701 H 0.13152 0.8978 0.85803 0.0
C1702 C 0.15817 0.8598 0.89142 0.0
C1703 C 0.15464 0.87105 0.85059 0.0
C1704 C 0.15814 0.8683 0.81936 0.0
C1705 C 0.1413 0.87528 0.90905 0.0
C1706 C 0.13094 0.89093 0.89837 0.0
C1707 C 0.13852 0.88747 0.86837 0.0
C1708 C 0.11237 0.90948 0.91682 0.0
C1709 C 0.13397 0.87316 0.93953 0.0
C1710 C 0.11215 0.92478 0.94622 0.0
C1711 C 0.09539 0.94075 0.96227 0.0
C1712 C 0.07713 0.94414 0.95085 0.0
C1713 C 0.07766 0.92961 0.92139 0.0
C1714 C 0.0942 0.91327 0.90541 0.0
H1715 H 0.1361 0.85342 0.94292 0.0
H1716 H 0.14685 0.89442 0.9522 0.0
H1717 H 0.11379 0.87037 0.94733 0.0
H1718 H 0.1256 0.92533 0.9575 0.0
H1719 H 0.09721 0.95109 0.98424 0.0
H1720 H 0.97055 0.38877 0.52078 0.0
H1721 H 0.94069 0.35164 0.54975 0.0
H1722 H 0.93443 0.42598 0.61812 0.0
H1723 H 0.96426 0.46327 0.58949 0.0
H1724 H 0.94565 0.38084 0.63182 0.0
H1725 H 0.86188 0.32844 0.57434 0.0
H1726 H 0.8924 0.33105 0.55359 0.0
H1727 H 0.88745 0.36556 0.57112 0.0
C1728 C 0.96272 0.39722 0.54193 0.0
C1729 C 0.96977 0.42895 0.55287 0.0
C1730 C 0.9456 0.37597 0.55836 0.0
C1731 C 0.93528 0.38616 0.5859 0.0
C1732 C 0.9422 0.41776 0.59684 0.0
H1733 H 0.83666 0.3156 0.72887 0.0
H1734 H 0.8675 0.34597 0.695 0.0
C1735 C 0.95922 0.439 0.58044 0.0
C1736 C 0.91794 0.36405 0.60384 0.0
H1737 H 0.8576 0.30816 0.61294 0.0
C1738 C 0.92642 0.36485 0.62768 0.0
C1739 C 0.89301 0.34315 0.59813 0.0
C1740 C 0.88294 0.34196 0.57303 0.0
C1741 C 0.91047 0.34541 0.64625 0.0
C1742 C 0.88524 0.32516 0.64106 0.0
C1743 C 0.87698 0.32378 0.61681 0.0
C1744 C 0.8667 0.3065 0.6614 0.0
C1745 C 0.92078 0.3467 0.67124 0.0
C1746 C 0.85558 0.27427 0.65346 0.0
C1747 C 0.83776 0.25684 0.67275 0.0
C1748 C 0.83077 0.27148 0.70013 0.0
C1749 C 0.84182 0.30373 0.70793 0.0
C1750 C 0.85954 0.3211 0.68868 0.0
H1751 H 0.94208 0.35626 0.66771 0.0
H1752 H 0.91468 0.36191 0.68999 0.0
H1753 H 0.9133 0.32351 0.6759 0.0
H1754 H 0.86076 0.26266 0.63239 0.0
H1755 H 0.8294 0.23199 0.66623 0.0
H1756 H 0.43469 0.01404 0.38705 0.0
H1757 H 0.41016 0.03526 0.37355 0.0
H1758 H 0.47767 0.11917 0.36763 0.0
H1759 H 0.50222 0.09846 0.38152 0.0
H1760 H 0.40179 0.08957 0.40038 0.0
H1761 H 0.45296 0.09464 0.29139 0.0
H1762 H 0.45528 0.07226 0.3121 0.0
H1763 H 0.47358 0.11319 0.31794 0.0
C1764 C 0.44433 0.03707 0.38302 0.0
C1765 C 0.47056 0.0544 0.38519 0.0
C1766 C 0.43028 0.04911 0.37516 0.0
C1767 C 0.44217 0.0786 0.36911 0.0
C1768 C 0.46823 0.09607 0.37153 0.0
H1769 H 0.39546 0.19886 0.32348 0.0
H1770 H 0.41844 0.17432 0.33491 0.0
C1771 C 0.48226 0.08413 0.37943 0.0
C1772 C 0.42724 0.09149 0.36096 0.0
H1773 H 0.42445 0.1199 0.30855 0.0
C1774 C 0.4066 0.09599 0.38022 0.0
C1775 C 0.4336 0.09995 0.33469 0.0
C1776 C 0.45491 0.09454 0.3127 0.0
C1777 C 0.39256 0.10945 0.37423 0.0
C1778 C 0.399 0.11808 0.348 0.0
C1779 C 0.41953 0.11333 0.32866 0.0
C1780 C 0.38495 0.13247 0.34037 0.0
C1781 C 0.37147 0.11518 0.39641 0.0
C1782 C 0.35854 0.11689 0.33903 0.0
C1783 C 0.34535 0.13082 0.3324 0.0
C1784 C 0.35831 0.16059 0.32673 0.0
C1785 C 0.38489 0.17582 0.32743 0.0
C1786 C 0.39805 0.16188 0.33412 0.0
H1787 H 0.37337 0.11478 0.41763 0.0
H1788 H 0.37144 0.13772 0.39723 0.0
H1789 H 0.35266 0.09688 0.3912 0.0
H1790 H 0.34812 0.09387 0.34306 0.0
H1791 H 0.32499 0.11819 0.33156 0.0
H1792 H 0.55475 0.59757 0.08863 0.0
H1793 H 0.58543 0.63527 0.12005 0.0
H1794 H 0.63442 0.58576 0.08618 0.0
H1795 H 0.6029 0.54692 0.05604 0.0
H1796 H 0.63522 0.6036 0.1384 0.0
H1797 H 0.64939 0.70492 0.10213 0.0
H1798 H 0.61635 0.68574 0.11574 0.0
H1799 H 0.63108 0.66624 0.08488 0.0
C1800 C 0.57204 0.59471 0.08796 0.0
C1801 C 0.57647 0.56936 0.06978 0.0
C1802 C 0.58977 0.61652 0.10572 0.0
C1803 C 0.6128 0.61412 0.10497 0.0
C1804 C 0.61697 0.58842 0.08712 0.0
H1805 H 0.73964 0.76942 0.18608 0.0
H1806 H 0.71104 0.73214 0.15194 0.0
C1807 C 0.59892 0.56616 0.06988 0.0
C1808 C 0.63213 0.63784 0.12333 0.0
H1809 H 0.66424 0.71545 0.14568 0.0
C1810 C 0.64171 0.62803 0.13972 0.0
C1811 C 0.64132 0.66985 0.1247 0.0
C1812 C 0.63422 0.68226 0.10565 0.0
C1813 C 0.65948 0.64914 0.15788 0.0
C1814 C 0.66702 0.68115 0.16093 0.0
C1815 C 0.65811 0.69099 0.14391 0.0
C1816 C 0.68392 0.70468 0.18178 0.0
C1817 C 0.67039 0.63671 0.17304 0.0
C1818 C 0.6779 0.7024 0.21013 0.0
C1819 C 0.69441 0.72326 0.22939 0.0
C1820 C 0.71689 0.74756 0.22102 0.0
C1821 C 0.72231 0.75101 0.1931 0.0
C1822 C 0.70603 0.72963 0.17359 0.0
H1823 H 0.67014 0.61383 0.16114 0.0
H1824 H 0.69043 0.6525 0.17631 0.0
H1825 H 0.65844 0.63368 0.19385 0.0
H1826 H 0.66053 0.6842 0.21736 0.0
H1827 H 0.68972 0.72021 0.25086 0.0
H1828 H 0.2089 0.18279 0.73162 0.0
H1829 H 0.17711 0.14896 0.70015 0.0
H1830 H 0.19233 0.2256 0.66514 0.0
H1831 H 0.22488 0.25932 0.69591 0.0
H1832 H 0.13323 0.14945 0.69466 0.0
H1833 H 0.20038 0.16362 0.59466 0.0
H1834 H 0.21133 0.17699 0.62835 0.0
H1835 H 0.20037 0.19938 0.61677 0.0
C1836 C 0.2056 0.19239 0.71707 0.0
C1837 C 0.21964 0.22363 0.71595 0.0
C1838 C 0.18734 0.17304 0.69915 0.0
C1839 C 0.18263 0.1845 0.6798 0.0
C1840 C 0.19609 0.21596 0.67929 0.0
H1841 H 0.07579 0.102 0.55834 0.0
H1842 H 0.1058 0.13718 0.59144 0.0
C1843 C 0.21453 0.23529 0.69706 0.0
C1844 C 0.16349 0.16353 0.66043 0.0
H1845 H 0.156 0.13668 0.59094 0.0
C1846 C 0.13827 0.1466 0.67198 0.0
C1847 C 0.17001 0.15964 0.63078 0.0
C1848 C 0.19704 0.17562 0.61685 0.0
C1849 C 0.11941 0.1263 0.65478 0.0
C1850 C 0.12592 0.12269 0.62523 0.0
C1851 C 0.15105 0.13963 0.61363 0.0
C1852 C 0.10699 0.10118 0.60593 0.0
C1853 C 0.09254 0.10913 0.66829 0.0
C1854 C 0.09772 0.06922 0.60303 0.0
C1855 C 0.08065 0.04899 0.58399 0.0
C1856 C 0.07242 0.06033 0.56753 0.0
C1857 C 0.08157 0.09241 0.57075 0.0
C1858 C 0.0988 0.1126 0.58961 0.0
H1859 H 0.08938 0.11874 0.69123 0.0
H1860 H 0.07823 0.10979 0.65822 0.0
H1861 H 0.08912 0.08465 0.66531 0.0
H1862 H 0.10402 0.05992 0.61519 0.0
H1863 H 0.07405 0.02446 0.58207 0.0
H1864 H 0.69828 0.27703 0.33974 0.0
H1865 H 0.67072 0.30462 0.36666 0.0
H1866 H 0.70895 0.37104 0.31443 0.0
H1867 H 0.73586 0.34287 0.28691 0.0
H1868 H 0.632 0.32144 0.36077 0.0
H1869 H 0.71099 0.43415 0.388 0.0
H1870 H 0.71223 0.41798 0.35087 0.0
H1871 H 0.71655 0.39937 0.37354 0.0
C1872 C 0.70124 0.29747 0.33344 0.0
C1873 C 0.72071 0.30634 0.30979 0.0
C1874 C 0.6848 0.31388 0.34947 0.0
C1875 C 0.68641 0.34171 0.34438 0.0
C1876 C 0.706 0.35067 0.3208 0.0
H1877 H 0.60627 0.46331 0.48038 0.0
H1878 H 0.63394 0.43602 0.45269 0.0
C1879 C 0.72197 0.33379 0.30428 0.0
C1880 C 0.66827 0.36046 0.36291 0.0
H1881 H 0.66924 0.43333 0.4005 0.0
C1882 C 0.64077 0.34598 0.36908 0.0
C1883 C 0.67744 0.39312 0.37543 0.0
C1884 C 0.70587 0.41225 0.37198 0.0
C1885 C 0.62377 0.36179 0.38524 0.0
C1886 C 0.63293 0.39448 0.39759 0.0
C1887 C 0.66047 0.40883 0.39199 0.0
C1888 C 0.61472 0.41322 0.41588 0.0
C1889 C 0.59539 0.34249 0.38943 0.0
C1890 C 0.59311 0.41209 0.40665 0.0
C1891 C 0.57707 0.42894 0.42281 0.0
C1892 C 0.58026 0.44837 0.45046 0.0
C1893 C 0.60174 0.44935 0.45984 0.0
C1894 C 0.61824 0.43313 0.44333 0.0
H1895 H 0.59115 0.31766 0.38579 0.0
H1896 H 0.58639 0.34991 0.41101 0.0
H1897 H 0.58642 0.34535 0.37425 0.0
H1898 H 0.58856 0.39823 0.38611 0.0
H1899 H 0.56156 0.42632 0.41328 0.0
H1900 H 0.46161 0.96694 0.0908 0.0
H1901 H 0.43224 0.92898 0.11902 0.0
H1902 H 0.44061 0.85582 0.05047 0.0
H1903 H 0.47007 0.89359 0.02196 0.0
H1904 H 0.38754 0.84779 0.07896 0.0
H1905 H 0.45634 0.87875 0.1513 0.0
H1906 H 0.45247 0.91043 0.1458 0.0
H1907 H 0.46643 0.8883 0.11702 0.0
C1908 C 0.45721 0.94279 0.08167 0.0
C1909 C 0.46832 0.93326 0.05423 0.0
C1910 C 0.4405 0.92118 0.09785 0.0
C1911 C 0.43461 0.88977 0.08685 0.0
C1912 C 0.44512 0.88006 0.05928 0.0
H1913 H 0.33043 0.7308 0.1623 0.0
H1914 H 0.36039 0.76282 0.12881 0.0
C1915 C 0.46195 0.90166 0.0431 0.0
C1916 C 0.41761 0.86713 0.10435 0.0
H1917 H 0.4134 0.845 0.16385 0.0
C1918 C 0.39317 0.84688 0.09739 0.0
C1919 C 0.42521 0.86618 0.12827 0.0
C1920 C 0.45161 0.88688 0.13603 0.0
C1921 C 0.37565 0.82633 0.11448 0.0
C1922 C 0.38312 0.82574 0.1387 0.0
C1923 C 0.40779 0.84555 0.14524 0.0
C1924 C 0.36519 0.80604 0.15852 0.0
C1925 C 0.34902 0.8063 0.10712 0.0
C1926 C 0.35855 0.8198 0.18635 0.0
C1927 C 0.34178 0.80167 0.20544 0.0
C1928 C 0.33135 0.76945 0.19702 0.0
C1929 C 0.33818 0.75561 0.16923 0.0
C1930 C 0.35509 0.77383 0.15009 0.0
H1931 H 0.34465 0.81424 0.09142 0.0
H1932 H 0.34739 0.78236 0.09803 0.0
H1933 H 0.33436 0.80598 0.1262 0.0
H1934 H 0.36624 0.84463 0.19325 0.0
H1935 H 0.33688 0.81294 0.22677 0.0
H1936 H 0.96567 0.61804 0.93541 0.0
H1937 H 0.9412 0.63861 0.92096 0.0
H1938 H 0.91681 0.55722 0.85547 0.0
H1939 H 0.94075 0.53614 0.87017 0.0
H1940 H 0.94684 0.65073 0.86768 0.0
H1941 H 0.8492 0.56511 0.89748 0.0
H1942 H 0.87705 0.5702 0.91021 0.0
H1943 H 0.87126 0.54903 0.87512 0.0
C1944 C 0.95483 0.60432 0.91817 0.0
C1945 C 0.95508 0.57537 0.90404 0.0
C1946 C 0.94101 0.61621 0.90982 0.0
C1947 C 0.92697 0.59931 0.88734 0.0
C1948 C 0.92721 0.57046 0.87312 0.0
H1949 H 0.86697 0.67418 0.79849 0.0
H1950 H 0.88969 0.6495 0.81032 0.0
C1951 C 0.94111 0.55859 0.88139 0.0
C1952 C 0.91252 0.61223 0.87848 0.0
H1953 H 0.85219 0.60049 0.87276 0.0
C1954 C 0.92615 0.63975 0.86875 0.0
C1955 C 0.88551 0.598 0.88015 0.0
C1956 C 0.86979 0.56909 0.89152 0.0
C1957 C 0.91351 0.65337 0.86051 0.0
C1958 C 0.88653 0.63885 0.8617 0.0
C1959 C 0.87289 0.61141 0.87159 0.0
C1960 C 0.87201 0.6525 0.85395 0.0
C1961 C 0.92908 0.68358 0.85125 0.0
C1962 C 0.85393 0.66148 0.87428 0.0
C1963 C 0.84075 0.67529 0.86753 0.0
C1964 C 0.84528 0.68033 0.84022 0.0
C1965 C 0.86293 0.67055 0.81967 0.0
C1966 C 0.87614 0.65674 0.82648 0.0
H1967 H 0.94845 0.69511 0.85767 0.0
H1968 H 0.93153 0.67931 0.82797 0.0
H1969 H 0.91916 0.69945 0.86017 0.0
H1970 H 0.85029 0.65821 0.89555 0.0
H1971 H 0.82696 0.68201 0.88374 0.0
H1972 H 0.46594 0.49609 0.10336 0.0
H1973 H 0.43755 0.45849 0.13249 0.0
H1974 H 0.44713 0.38521 0.06495 0.0
H1975 H 0.47557 0.42274 0.03566 0.0
H1976 H 0.39059 0.40641 0.12023 0.0
H1977 H 0.46373 0.37232 0.1342 0.0
H1978 H 0.47223 0.40708 0.12259 0.0
H1979 H 0.46214 0.37046 0.0985 0.0
C1980 C 0.46212 0.47199 0.09475 0.0
C1981 C 0.47305 0.4624 0.06722 0.0
C1982 C 0.44582 0.45051 0.1114 0.0
C1983 C 0.44032 0.41903 0.10103 0.0
C1984 C 0.45133 0.4094 0.07357 0.0
H1985 H 0.31688 0.26968 0.1796 0.0
H1986 H 0.34472 0.30244 0.1458 0.0
C1987 C 0.46753 0.43087 0.05682 0.0
C1988 C 0.42279 0.39638 0.11888 0.0
H1989 H 0.42079 0.34544 0.15322 0.0
C1990 C 0.39715 0.39296 0.12734 0.0
C1991 C 0.4314 0.379 0.12834 0.0
C1992 C 0.45891 0.38244 0.12069 0.0
C1993 C 0.37994 0.37271 0.14499 0.0
C1994 C 0.38852 0.35522 0.15434 0.0
C1995 C 0.41415 0.35863 0.14585 0.0
C1996 C 0.37165 0.33472 0.17431 0.0
C1997 C 0.35288 0.3708 0.15418 0.0
C1998 C 0.37772 0.3416 0.20136 0.0
C1999 C 0.36187 0.32303 0.22063 0.0
C2000 C 0.33968 0.29693 0.21322 0.0
C2001 C 0.33378 0.2897 0.18596 0.0
C2002 C 0.34962 0.30846 0.16668 0.0
H2003 H 0.35069 0.38992 0.14958 0.0
H2004 H 0.33958 0.34875 0.14283 0.0
H2005 H 0.34703 0.37131 0.17708 0.0
H2006 H 0.3946 0.36167 0.20773 0.0
H2007 H 0.36697 0.32925 0.24144 0.0
H2008 H 0.45719 0.63717 0.96003 0.0
H2009 H 0.43267 0.64898 0.93628 0.0
H2010 H 0.38612 0.55218 0.91181 0.0
H2011 H 0.4102 0.54014 0.93619 0.0
H2012 H 0.42529 0.62887 0.87886 0.0
H2013 H 0.3333 0.59037 0.95136 0.0
H2014 H 0.3635 0.59745 0.96022 0.0
H2015 H 0.34744 0.56278 0.93612 0.0
C2016 C 0.44157 0.61836 0.94985 0.0
C2017 C 0.43548 0.5877 0.95028 0.0
C2018 C 0.42771 0.62516 0.93611 0.0
C2019 C 0.40737 0.6015 0.92261 0.0
C2020 C 0.4015 0.57082 0.92248 0.0
H2021 H 0.29787 0.61236 0.84251 0.0
H2022 H 0.3221 0.59391 0.86003 0.0
C2023 C 0.41543 0.56396 0.93619 0.0
C2024 C 0.39244 0.60922 0.90874 0.0
H2025 H 0.33334 0.60809 0.91293 0.0
C2026 C 0.40516 0.62425 0.88622 0.0
C2027 C 0.36617 0.60305 0.91834 0.0
C2028 C 0.35174 0.58774 0.94297 0.0
C2029 C 0.39233 0.63336 0.87305 0.0
C2030 C 0.3662 0.62789 0.88309 0.0
C2031 C 0.35336 0.6123 0.90527 0.0
C2032 C 0.35203 0.63898 0.87154 0.0
C2033 C 0.40683 0.64844 0.8483 0.0
C2034 C 0.36065 0.67048 0.8724 0.0
C2035 C 0.34689 0.68107 0.86236 0.0
C2036 C 0.324 0.66041 0.85157 0.0
C2037 C 0.31532 0.62888 0.85087 0.0
C2038 C 0.32919 0.61829 0.86078 0.0
H2039 H 0.42351 0.64238 0.83797 0.0
H2040 H 0.39425 0.64166 0.83239 0.0
H2041 H 0.41425 0.67381 0.85577 0.0
H2042 H 0.37782 0.687 0.88133 0.0
H2043 H 0.35383 0.70555 0.86371 0.0
H2044 H 0.08185 0.57784 0.54951 0.0
H2045 H 0.11101 0.61205 0.58377 0.0
H2046 H 0.09825 0.53415 0.61544 0.0
H2047 H 0.06964 0.49975 0.5807 0.0
H2048 H 0.10471 0.62477 0.64078 0.0
H2049 H 0.17555 0.57217 0.59733 0.0
H2050 H 0.14976 0.56358 0.57914 0.0
H2051 H 0.14391 0.54494 0.60729 0.0
C2052 C 0.08524 0.56804 0.56382 0.0
C2053 C 0.07374 0.53611 0.56226 0.0
C2054 C 0.10188 0.5876 0.5834 0.0
C2055 C 0.10725 0.5756 0.60177 0.0
C2056 C 0.09495 0.54383 0.60096 0.0
H2057 H 0.18 0.67903 0.75153 0.0
H2058 H 0.14963 0.64801 0.71799 0.0
C2059 C 0.07848 0.52423 0.58124 0.0
C2060 C 0.12587 0.59629 0.62161 0.0
H2061 H 0.18133 0.60799 0.64114 0.0
C2062 C 0.12152 0.62119 0.64081 0.0
C2063 C 0.14806 0.59194 0.62129 0.0
C2064 C 0.15479 0.56691 0.59997 0.0
C2065 C 0.13849 0.6415 0.66004 0.0
C2066 C 0.16009 0.63635 0.66051 0.0
C2067 C 0.16465 0.61177 0.64097 0.0
C2068 C 0.1783 0.65614 0.68097 0.0
C2069 C 0.13337 0.6686 0.67928 0.0
C2070 C 0.20462 0.67051 0.67138 0.0
C2071 C 0.22205 0.68785 0.69051 0.0
C2072 C 0.21348 0.69114 0.71961 0.0
C2073 C 0.18713 0.67702 0.72922 0.0
C2074 C 0.16972 0.65948 0.71006 0.0
H2075 H 0.12103 0.67447 0.67071 0.0
H2076 H 0.12319 0.66274 0.69999 0.0
H2077 H 0.15151 0.68923 0.68268 0.0
H2078 H 0.2117 0.66816 0.64903 0.0
H2079 H 0.24225 0.69845 0.68251 0.0
H2080 H 0.3435 0.33147 0.70469 0.0
H2081 H 0.37085 0.35385 0.66486 0.0
H2082 H 0.34898 0.26375 0.61029 0.0
H2083 H 0.32119 0.24073 0.65044 0.0
H2084 H 0.40509 0.30551 0.60572 0.0
H2085 H 0.34294 0.35923 0.59905 0.0
H2086 H 0.34886 0.36576 0.63412 0.0
H2087 H 0.33123 0.32729 0.6161 0.0
C2088 C 0.34441 0.31622 0.6843 0.0
C2089 C 0.33 0.28426 0.68076 0.0
C2090 C 0.36003 0.32914 0.66152 0.0
C2091 C 0.36162 0.3105 0.63464 0.0
C2092 C 0.34781 0.27849 0.63092 0.0
H2093 H 0.4658 0.38941 0.48998 0.0
H2094 H 0.43425 0.35083 0.51704 0.0
C2095 C 0.33196 0.26543 0.65383 0.0
C2096 C 0.37793 0.32513 0.61081 0.0
H2097 H 0.38686 0.38044 0.57772 0.0
C2098 C 0.40093 0.32138 0.59902 0.0
C2099 C 0.37233 0.34574 0.6022 0.0
C2100 C 0.34738 0.34959 0.61331 0.0
C2101 C 0.4193 0.33935 0.58015 0.0
C2102 C 0.4143 0.36128 0.5729 0.0
C2103 C 0.39069 0.36373 0.58351 0.0
C2104 C 0.43407 0.38385 0.55641 0.0
C2105 C 0.44451 0.33611 0.56938 0.0
C2106 C 0.44426 0.41507 0.56962 0.0
C2107 C 0.46215 0.43702 0.55431 0.0
C2108 C 0.47004 0.42816 0.52543 0.0
C2109 C 0.46003 0.39683 0.51223 0.0
C2110 C 0.44212 0.3748 0.52764 0.0
H2111 H 0.44655 0.32054 0.57957 0.0
H2112 H 0.44596 0.32667 0.54634 0.0
H2113 H 0.46072 0.35899 0.57306 0.0
H2114 H 0.43824 0.42247 0.59181 0.0
H2115 H 0.46957 0.46098 0.56505 0.0
H2116 H 0.21908 0.65185 0.19211 0.0
H2117 H 0.19102 0.62385 0.15608 0.0
H2118 H 0.1983 0.70975 0.14405 0.0
H2119 H 0.2269 0.738 0.17954 0.0
H2120 H 0.14503 0.62287 0.15575 0.0
H2121 H 0.213 0.66663 0.06393 0.0
H2122 H 0.22332 0.67217 0.09658 0.0
H2123 H 0.20992 0.6968 0.09302 0.0
C2124 C 0.21489 0.66485 0.18168 0.0
C2125 C 0.22533 0.69722 0.1887 0.0
C2126 C 0.19883 0.64877 0.16107 0.0
C2127 C 0.19286 0.66468 0.14703 0.0
C2128 C 0.20314 0.69698 0.15407 0.0
H2129 H 0.08787 0.6135 0.03132 0.0
H2130 H 0.11972 0.64011 0.06362 0.0
C2131 C 0.21937 0.71311 0.17455 0.0
C2132 C 0.17499 0.64739 0.12595 0.0
H2133 H 0.16893 0.63908 0.05802 0.0
C2134 C 0.15033 0.62623 0.13431 0.0
C2135 C 0.18194 0.65176 0.09796 0.0
C2136 C 0.20857 0.67284 0.08722 0.0
C2137 C 0.13223 0.60988 0.11568 0.0
C2138 C 0.13906 0.61464 0.08788 0.0
C2139 C 0.16375 0.6356 0.07941 0.0
C2140 C 0.12064 0.59847 0.06744 0.0
C2141 C 0.10572 0.58821 0.1261 0.0
C2142 C 0.11106 0.56633 0.05847 0.0
C2143 C 0.09296 0.55113 0.03999 0.0
C2144 C 0.08415 0.56784 0.0302 0.0
C2145 C 0.09427 0.60007 0.03861 0.0
C2146 C 0.11244 0.61527 0.05703 0.0
H2147 H 0.10179 0.5923 0.14945 0.0
H2148 H 0.09082 0.59062 0.1185 0.0
H2149 H 0.104 0.56414 0.11786 0.0
H2150 H 0.11748 0.55299 0.06587 0.0
H2151 H 0.08565 0.52629 0.03361 0.0
H2152 H 0.70925 0.33298 0.66022 0.0
H2153 H 0.68734 0.35227 0.64019 0.0
H2154 H 0.71702 0.44072 0.69613 0.0
H2155 H 0.73881 0.42164 0.71637 0.0
H2156 H 0.65041 0.37514 0.66733 0.0
H2157 H 0.73603 0.46412 0.61993 0.0
H2158 H 0.73808 0.4348 0.63211 0.0
H2159 H 0.73518 0.46819 0.65674 0.0
C2160 C 0.71106 0.35651 0.66832 0.0
C2161 C 0.72593 0.3758 0.68981 0.0
C2162 C 0.69865 0.36755 0.65674 0.0
C2163 C 0.70095 0.39811 0.66628 0.0
C2164 C 0.71554 0.41732 0.68789 0.0
H2165 H 0.63398 0.50705 0.63543 0.0
H2166 H 0.65837 0.48758 0.65139 0.0
C2167 C 0.72797 0.40633 0.69947 0.0
C2168 C 0.68713 0.40948 0.65455 0.0
H2169 H 0.69559 0.46502 0.62183 0.0
C2170 C 0.66029 0.39462 0.65716 0.0
C2171 C 0.70007 0.43505 0.64146 0.0
C2172 C 0.72895 0.45132 0.63713 0.0
C2173 C 0.64597 0.405 0.64758 0.0
C2174 C 0.65889 0.43057 0.63451 0.0
C2175 C 0.68574 0.44539 0.63181 0.0
C2176 C 0.64478 0.44256 0.62395 0.0
C2177 C 0.61708 0.38905 0.65232 0.0
C2178 C 0.62947 0.42392 0.60281 0.0
C2179 C 0.61536 0.4349 0.59378 0.0
C2180 C 0.61641 0.46483 0.60562 0.0
C2181 C 0.63239 0.48373 0.62622 0.0
C2182 C 0.64648 0.47272 0.63523 0.0
H2183 H 0.61009 0.37533 0.6688 0.0
H2184 H 0.60819 0.40596 0.6586 0.0
H2185 H 0.61046 0.37312 0.63248 0.0
H2186 H 0.62825 0.40076 0.59344 0.0
H2187 H 0.60314 0.41965 0.57803 0.0
H2188 H 0.80519 0.61058 0.1032 0.0
H2189 H 0.84055 0.5939 0.08611 0.0
H2190 H 0.82227 0.55824 0.16071 0.0
H2191 H 0.78731 0.5755 0.17825 0.0
H2192 H 0.87186 0.60352 0.15275 0.0
H2193 H 0.85004 0.51286 0.05574 0.0
H2194 H 0.84463 0.54571 0.05612 0.0
H2195 H 0.82549 0.52226 0.08155 0.0
C2196 C 0.80826 0.59835 0.11552 0.0
C2197 C 0.79369 0.59453 0.1421 0.0
C2198 C 0.82831 0.58867 0.10568 0.0
C2199 C 0.83389 0.57485 0.12221 0.0
C2200 C 0.8181 0.56877 0.14769 0.0
H2201 H 0.97039 0.54055 0.09898 0.0
H2202 H 0.93229 0.55085 0.12194 0.0
C2203 C 0.79803 0.57842 0.15753 0.0
C2204 C 0.85833 0.57126 0.11494 0.0
H2205 H 0.89425 0.53965 0.06213 0.0
C2206 C 0.8767 0.58919 0.13315 0.0
C2207 C 0.86443 0.55266 0.08935 0.0
C2208 C 0.84502 0.53205 0.06968 0.0
C2209 C 0.90155 0.58999 0.12579 0.0
C2210 C 0.90788 0.57224 0.09974 0.0
C2211 C 0.88927 0.55354 0.08198 0.0
C2212 C 0.93378 0.57274 0.08999 0.0
C2213 C 0.92111 0.61059 0.1453 0.0
C2214 C 0.94767 0.58292 0.06519 0.0
C2215 C 0.9693 0.577 0.05201 0.0
C2216 C 0.9772 0.56067 0.06343 0.0
C2217 C 0.96476 0.55324 0.08975 0.0
C2218 C 0.94297 0.55906 0.10288 0.0
H2219 H 0.91442 0.62686 0.16224 0.0
H2220 H 0.92489 0.59623 0.15526 0.0
H2221 H 0.93951 0.62398 0.13336 0.0
H2222 H 0.94082 0.59366 0.05509 0.0
H2223 H 0.97871 0.58324 0.03186 0.0
H2224 H 0.88127 0.55267 0.56798 0.0
H2225 H 0.84176 0.55866 0.59251 0.0
H2226 H 0.83721 0.51272 0.65515 0.0
H2227 H 0.8773 0.50733 0.63094 0.0
H2228 H 0.79043 0.5245 0.61566 0.0
H2229 H 0.85335 0.60182 0.69732 0.0
H2230 H 0.86593 0.58507 0.66308 0.0
H2231 H 0.84782 0.56187 0.68888 0.0
C2232 C 0.87142 0.54295 0.58646 0.0
C2233 C 0.88254 0.53012 0.59795 0.0
C2234 C 0.84879 0.54628 0.60041 0.0
C2235 C 0.83691 0.53668 0.62592 0.0
C2236 C 0.8464 0.52075 0.63574 0.0
H2237 H 0.7611 0.64658 0.74744 0.0
H2238 H 0.76851 0.5997 0.72645 0.0
C2239 C 0.86928 0.51779 0.62199 0.0
C2240 C 0.81816 0.54888 0.64436 0.0
H2241 H 0.81523 0.6062 0.70096 0.0
C2242 C 0.79547 0.54188 0.6347 0.0
C2243 C 0.82481 0.5715 0.66922 0.0
C2244 C 0.84934 0.58076 0.68026 0.0
C2245 C 0.78001 0.55826 0.64841 0.0
C2246 C 0.78777 0.5824 0.672 0.0
C2247 C 0.80934 0.58768 0.68283 0.0
C2248 C 0.77646 0.60548 0.68362 0.0
C2249 C 0.75603 0.55024 0.63705 0.0
C2250 C 0.77772 0.62384 0.66641 0.0
C2251 C 0.77347 0.65072 0.67836 0.0
C2252 C 0.76832 0.65984 0.70772 0.0
C2253 C 0.76546 0.6404 0.72474 0.0
C2254 C 0.76943 0.61343 0.71279 0.0
H2255 H 0.74775 0.52546 0.62677 0.0
H2256 H 0.7413 0.55555 0.65394 0.0
H2257 H 0.76088 0.56379 0.62092 0.0
H2258 H 0.78375 0.6186 0.64392 0.0
H2259 H 0.77574 0.66522 0.66474 0.0
H2260 H 0.42967 0.50799 0.36592 0.0
H2261 H 0.40414 0.52713 0.3516 0.0
H2262 H 0.41155 0.59659 0.42836 0.0
H2263 H 0.43785 0.57823 0.44247 0.0
H2264 H 0.35796 0.53307 0.37828 0.0
H2265 H 0.43721 0.64662 0.36706 0.0
H2266 H 0.44273 0.61488 0.37008 0.0
H2267 H 0.43076 0.63725 0.40078 0.0
C2268 C 0.42605 0.52749 0.37969 0.0
C2269 C 0.43605 0.54177 0.40523 0.0
C2270 C 0.41129 0.53826 0.37155 0.0
C2271 C 0.40629 0.56358 0.38869 0.0
C2272 C 0.41557 0.57735 0.41457 0.0
H2273 H 0.3284 0.6636 0.35958 0.0
H2274 H 0.35038 0.64527 0.38061 0.0
C2275 C 0.43036 0.5666 0.42275 0.0
C2276 C 0.39156 0.57562 0.3792 0.0
H2277 H 0.39651 0.6383 0.35964 0.0
C2278 C 0.36635 0.55609 0.37425 0.0
C2279 C 0.40255 0.6057 0.37403 0.0
C2280 C 0.42986 0.62731 0.37801 0.0
C2281 C 0.3518 0.56583 0.36425 0.0
C2282 C 0.36296 0.59571 0.35858 0.0
C2283 C 0.388 0.61542 0.36402 0.0
C2284 C 0.34935 0.60659 0.34602 0.0
C2285 C 0.32455 0.54411 0.36009 0.0
C2286 C 0.34192 0.59126 0.31939 0.0
C2287 C 0.32951 0.60176 0.30726 0.0
C2288 C 0.3244 0.62794 0.32145 0.0
C2289 C 0.33222 0.64352 0.34799 0.0
C2290 C 0.34464 0.63298 0.36011 0.0
H2291 H 0.31661 0.52617 0.37277 0.0
H2292 H 0.31191 0.55674 0.36587 0.0
H2293 H 0.32413 0.53231 0.33761 0.0
H2294 H 0.34599 0.57135 0.30779 0.0
H2295 H 0.32425 0.58958 0.28656 0.0
H2296 H 0.17391 0.30829 0.83255 0.0
H2297 H 0.13274 0.31282 0.8427 0.0
H2298 H 0.1691 0.40821 0.88319 0.0
H2299 H 0.21027 0.40385 0.87318 0.0
H2300 H 0.10592 0.32829 0.89397 0.0
H2301 H 0.1303 0.41173 0.82903 0.0
H2302 H 0.14899 0.38967 0.8242 0.0
H2303 H 0.15467 0.42489 0.85051 0.0
C2304 C 0.17303 0.33015 0.84385 0.0
C2305 C 0.19519 0.35577 0.85222 0.0
C2306 C 0.14961 0.33273 0.84932 0.0
C2307 C 0.14814 0.36099 0.86301 0.0
C2308 C 0.17012 0.38643 0.8718 0.0
H2309 H 0.0658 0.43565 0.98552 0.0
H2310 H 0.08337 0.40018 0.95299 0.0
C2311 C 0.19353 0.3839 0.8663 0.0
C2312 C 0.12344 0.36389 0.87001 0.0
H2313 H 0.09903 0.4146 0.87166 0.0
C2314 C 0.10394 0.34651 0.88847 0.0
C2315 C 0.12045 0.38677 0.86191 0.0
C2316 C 0.13963 0.40404 0.84003 0.0
C2317 C 0.08308 0.35428 0.90193 0.0
C2318 C 0.08228 0.38036 0.89712 0.0
C2319 C 0.09994 0.39498 0.87582 0.0
C2320 C 0.06728 0.39673 0.91744 0.0
C2321 C 0.06303 0.33573 0.92246 0.0
C2322 C 0.05263 0.40687 0.90819 0.0
C2323 C 0.04299 0.42776 0.92668 0.0
C2324 C 0.04799 0.43886 0.95463 0.0
C2325 C 0.06168 0.42759 0.96412 0.0
C2326 C 0.07139 0.40689 0.94562 0.0
H2327 H 0.05973 0.31104 0.9151 0.0
H2328 H 0.06992 0.34395 0.9431 0.0
H2329 H 0.04453 0.33784 0.92542 0.0
H2330 H 0.04953 0.39954 0.88643 0.0
H2331 H 0.03222 0.43578 0.91886 0.0
H2332 H 0.26238 0.31944 0.34781 0.0
H2333 H 0.25583 0.36616 0.37394 0.0
H2334 H 0.2935 0.40747 0.30157 0.0
H2335 H 0.299 0.36025 0.27494 0.0
H2336 H 0.28345 0.43017 0.38859 0.0
H2337 H 0.2206 0.39813 0.30873 0.0
H2338 H 0.23431 0.37305 0.31058 0.0
H2339 H 0.25389 0.4065 0.29572 0.0
C2340 C 0.26974 0.33875 0.33771 0.0
C2341 C 0.28058 0.33609 0.30924 0.0
C2342 C 0.26612 0.36547 0.35267 0.0
C2343 C 0.27364 0.38995 0.33942 0.0
C2344 C 0.287 0.38854 0.31191 0.0
H2345 H 0.1776 0.49205 0.39796 0.0
H2346 H 0.2194 0.48997 0.37738 0.0
C2347 C 0.29009 0.36159 0.29676 0.0
C2348 C 0.26371 0.41413 0.35282 0.0
H2349 H 0.21736 0.43501 0.34864 0.0
C2350 C 0.2694 0.43181 0.37965 0.0
C2351 C 0.24558 0.41647 0.34095 0.0
C2352 C 0.23803 0.39745 0.31252 0.0
C2353 C 0.25604 0.45007 0.39575 0.0
C2354 C 0.23638 0.45021 0.3848 0.0
C2355 C 0.23247 0.43489 0.357 0.0
C2356 C 0.2161 0.46001 0.40296 0.0
C2357 C 0.26228 0.46789 0.42478 0.0
C2358 C 0.20089 0.44489 0.42492 0.0
C2359 C 0.17707 0.44599 0.4366 0.0
C2360 C 0.16797 0.46205 0.42639 0.0
C2361 C 0.18417 0.47949 0.40622 0.0
C2362 C 0.20806 0.47838 0.3945 0.0
H2363 H 0.28303 0.47597 0.42549 0.0
H2364 H 0.25709 0.48805 0.43158 0.0
H2365 H 0.25145 0.45258 0.43998 0.0
H2366 H 0.20634 0.43002 0.43141 0.0
H2367 H 0.16511 0.43275 0.45246 0.0
loop_
_geom_bond_atom_site_label_1
_geom_bond_atom_site_label_2
_geom_bond_distance
_geom_bond_site_symmetry_2
_ccdc_geom_bond_type
Pr0 C2 2.880 1_545 S
Pr0 O20 2.562 1_545 S
Pr0 O21 2.490 . S
Pr0 O22 2.695 1_554 S
Pr0 O23 2.512 1_554 S
Pr0 O25 2.437 1_544 S
Pr0 O28 2.436 1_445 S
Pr0 O30 2.420 1_455 S
Pr1 C11 2.880 1_565 S
Pr1 O22 2.436 1_665 S
Pr1 O24 2.438 1_655 S
Pr1 O26 2.562 1_565 S
Pr1 O27 2.490 . S
Pr1 O28 2.695 1_556 S
Pr1 O29 2.512 1_556 S
Pr1 O31 2.437 1_566 S
C2 Pr0 2.880 1_565 S
C2 C3 1.491 . S
C2 O20 1.254 . S
C2 O21 1.225 1_565 S
C3 C2 1.491 . S
C3 C4 1.392 1_565 S
C3 C8 1.356 . S
C4 C3 1.392 1_545 S
C4 C5 1.368 1_545 S
C4 H32 0.929 . S
C5 C4 1.368 1_565 S
C5 C6 1.386 . S
C5 H33 0.929 1_565 S
C6 C5 1.386 . S
C6 C7 1.373 . S
C7 C6 1.373 . S
C7 C8 1.409 . S
C7 H34 0.931 . S
C8 C3 1.356 . S
C8 C7 1.409 . S
C8 H35 0.930 . S
C9 O22 1.270 . S
C9 O23 1.248 . S
C10 O24 1.267 . S
C10 O25 1.278 . S
C11 Pr1 2.880 1_545 S
C11 C12 1.491 . S
C11 O26 1.254 . S
C11 O27 1.225 1_545 S
C12 C11 1.491 . S
C12 C13 1.392 1_545 S
C12 C17 1.356 . S
C13 C12 1.392 1_565 S
C13 C14 1.368 1_565 S
C13 H36 0.929 . S
C14 C13 1.368 1_545 S
C14 C15 1.386 . S
C14 H37 0.929 1_545 S
C15 C14 1.386 . S
C15 C16 1.373 . S
C16 C15 1.373 . S
C16 C17 1.409 . S
C16 H38 0.931 . S
C17 C12 1.356 . S
C17 C16 1.409 . S
C17 H39 0.930 . S
C18 O28 1.270 . S
C18 O29 1.248 . S
C19 O30 1.286 . S
C19 O31 1.278 . S
O20 Pr0 2.562 1_565 S
O20 C2 1.254 . S
O21 Pr0 2.490 . S
O21 C2 1.225 1_545 S
O22 Pr0 2.695 1_556 S
O22 Pr1 2.436 1_445 S
O22 C9 1.270 . S
O23 Pr0 2.512 1_556 S
O23 C9 1.248 . S
O24 Pr1 2.438 1_455 S
O24 C10 1.267 . S
O25 Pr0 2.437 1_566 S
O25 C10 1.278 . S
O26 Pr1 2.562 1_545 S
O26 C11 1.254 . S
O27 Pr1 2.490 . S
O27 C11 1.225 1_565 S
O28 Pr0 2.436 1_665 S
O28 Pr1 2.695 1_554 S
O28 C18 1.270 . S
O29 Pr1 2.512 1_554 S
O29 C18 1.248 . S
O30 Pr0 2.420 1_655 S
O30 C19 1.286 . S
O31 Pr1 2.437 1_544 S
O31 C19 1.278 . S
H32 C4 0.929 . S
H33 C5 0.929 1_545 S
H34 C7 0.931 . S
H35 C8 0.930 . S
H36 C13 0.929 . S
H37 C14 0.929 1_565 S
H38 C16 0.931 . S
H39 C17 0.930 . S
Pr40 C42 2.880 . S
Pr40 O60 2.562 . S
Pr40 O61 2.490 . S
Pr40 O62 2.695 . S
Pr40 O63 2.512 . S
Pr40 O65 2.437 . S
Pr40 O68 2.436 . S
Pr40 O70 2.438 . S
Pr41 C51 2.880 . S
Pr41 O62 2.436 . S
Pr41 O64 2.438 . S
Pr41 O66 2.562 . S
Pr41 O67 2.490 . S
Pr41 O68 2.695 . S
Pr41 O69 2.512 . S
Pr41 O71 2.437 . S
C42 Pr40 2.880 . S
C42 C43 1.491 . S
C42 O60 1.254 . S
C42 O61 1.225 . S
C43 C42 1.491 . S
C43 C44 1.392 . S
C43 C48 1.356 . S
C44 C43 1.392 . S
C44 C45 1.368 . S
C44 H72 0.929 . S
C45 C44 1.368 . S
C45 C46 1.386 . S
C45 H73 0.929 . S
C46 C45 1.386 . S
C46 C47 1.373 . S
C47 C46 1.373 . S
C47 C48 1.409 . S
C47 H74 0.931 . S
C48 C43 1.356 . S
C48 C47 1.409 . S
C48 H75 0.930 . S
C49 O62 1.270 . S
C49 O63 1.248 . S
C50 O64 1.267 . S
C50 O65 1.278 . S
C51 Pr41 2.880 . S
C51 C52 1.491 . S
C51 O66 1.254 . S
C51 O67 1.225 . S
C52 C51 1.491 . S
C52 C53 1.392 . S
C52 C57 1.356 . S
C53 C52 1.392 . S
C53 C54 1.368 . S
C53 H76 0.929 . S
C54 C53 1.368 . S
C54 C55 1.386 . S
C54 H77 0.929 . S
C55 C54 1.386 . S
C55 C56 1.373 . S
C56 C55 1.373 . S
C56 C57 1.409 . S
C56 H78 0.931 . S
C57 C52 1.356 . S
C57 C56 1.409 . S
C57 H79 0.930 . S
C58 O68 1.270 . S
C58 O69 1.248 . S
C59 O70 1.267 . S
C59 O71 1.278 . S
O60 Pr40 2.562 . S
O60 C42 1.254 . S
O61 Pr40 2.490 . S
O61 C42 1.225 . S
O62 Pr40 2.695 . S
O62 Pr41 2.436 . S
O62 C49 1.270 . S
O63 Pr40 2.512 . S
O63 C49 1.248 . S
O64 Pr41 2.438 . S
O64 C50 1.267 . S
O65 Pr40 2.437 . S
O65 C50 1.278 . S
O66 Pr41 2.562 . S
O66 C51 1.254 . S
O67 Pr41 2.490 . S
O67 C51 1.225 . S
O68 Pr40 2.436 . S
O68 Pr41 2.695 . S
O68 C58 1.270 . S
O69 Pr41 2.512 . S
O69 C58 1.248 . S
O70 Pr40 2.438 . S
O70 C59 1.267 . S
O71 Pr41 2.437 . S
O71 C59 1.278 . S
H72 C44 0.929 . S
H73 C45 0.929 . S
H74 C47 0.931 . S
H75 C48 0.930 . S
H76 C53 0.929 . S
H77 C54 0.929 . S
H78 C56 0.931 . S
H79 C57 0.930 . S
Pr80 C82 2.880 . S
Pr80 O100 2.562 . S
Pr80 O101 2.490 . S
Pr80 O102 2.695 . S
Pr80 O103 2.512 . S
Pr80 O105 2.437 . S
Pr80 O108 2.436 1_545 S
Pr80 O110 2.437 . S
Pr81 C91 2.880 . S
Pr81 O102 2.436 1_565 S
Pr81 O104 2.438 1_565 S
Pr81 O106 2.562 . S
Pr81 O107 2.490 . S
Pr81 O108 2.695 . S
Pr81 O109 2.512 . S
Pr81 O111 2.437 . S
C82 Pr80 2.880 . S
C82 C83 1.491 . S
C82 O100 1.254 . S
C82 O101 1.225 . S
C83 C82 1.491 . S
C83 C84 1.392 . S
C83 C88 1.356 . S
C84 C83 1.392 . S
C84 C85 1.368 . S
C84 H112 0.929 . S
C85 C84 1.368 . S
C85 C86 1.386 . S
C85 H113 0.929 . S
C86 C85 1.386 . S
C86 C87 1.373 . S
C87 C86 1.373 . S
C87 C88 1.409 . S
C87 H114 0.931 . S
C88 C83 1.356 . S
C88 C87 1.409 . S
C88 H115 0.930 . S
C89 O102 1.270 . S
C89 O103 1.248 . S
C90 O104 1.267 . S
C90 O105 1.278 . S
C91 Pr81 2.880 . S
C91 C92 1.491 . S
C91 O106 1.254 . S
C91 O107 1.225 . S
C92 C91 1.491 . S
C92 C93 1.392 . S
C92 C97 1.356 . S
C93 C92 1.392 . S
C93 C94 1.368 . S
C93 H116 0.929 . S
C94 C93 1.368 . S
C94 C95 1.386 . S
C94 H117 0.929 . S
C95 C94 1.386 . S
C95 C96 1.373 . S
C96 C95 1.373 . S
C96 C97 1.409 . S
C96 H118 0.931 . S
C97 C92 1.356 . S
C97 C96 1.409 . S
C97 H119 0.930 . S
C98 O108 1.270 . S
C98 O109 1.248 . S
C99 O110 1.267 1_565 S
C99 O111 1.278 . S
O100 Pr80 2.562 . S
O100 C82 1.254 . S
O101 Pr80 2.490 . S
O101 C82 1.225 . S
O102 Pr80 2.695 . S
O102 Pr81 2.436 1_545 S
O102 C89 1.270 . S
O103 Pr80 2.512 . S
O103 C89 1.248 . S
O104 Pr81 2.438 1_545 S
O104 C90 1.267 . S
O105 Pr80 2.437 . S
O105 C90 1.278 . S
O106 Pr81 2.562 . S
O106 C91 1.254 . S
O107 Pr81 2.490 . S
O107 C91 1.225 . S
O108 Pr80 2.436 1_565 S
O108 Pr81 2.695 . S
O108 C98 1.270 . S
O109 Pr81 2.512 . S
O109 C98 1.248 . S
O110 Pr80 2.437 . S
O110 C99 1.267 1_545 S
O111 Pr81 2.437 . S
O111 C99 1.278 . S
H112 C84 0.929 . S
H113 C85 0.929 . S
H114 C87 0.931 . S
H115 C88 0.930 . S
H116 C93 0.929 . S
H117 C94 0.929 . S
H118 C96 0.931 . S
H119 C97 0.930 . S
Pr120 C122 2.880 . S
Pr120 O140 2.562 . S
Pr120 O141 2.490 . S
Pr120 O142 2.695 . S
Pr120 O143 2.512 . S
Pr120 O145 2.437 . S
Pr120 O148 2.436 . S
Pr120 O150 2.438 . S
Pr121 C131 2.880 . S
Pr121 O142 2.436 . S
Pr121 O144 2.438 . S
Pr121 O146 2.562 . S
Pr121 O147 2.490 . S
Pr121 O148 2.695 . S
Pr121 O149 2.512 . S
Pr121 O151 2.437 . S
C122 Pr120 2.880 . S
C122 C123 1.491 . S
C122 O140 1.254 . S
C122 O141 1.225 . S
C123 C122 1.491 . S
C123 C124 1.392 . S
C123 C128 1.356 . S
C124 C123 1.392 . S
C124 C125 1.368 . S
C124 H152 0.929 . S
C125 C124 1.368 . S
C125 C126 1.386 . S
C125 H153 0.929 . S
C126 C125 1.386 . S
C126 C127 1.373 . S
C127 C126 1.373 . S
C127 C128 1.409 . S
C127 H154 0.931 . S
C128 C123 1.356 . S
C128 C127 1.409 . S
C128 H155 0.930 . S
C129 O142 1.270 . S
C129 O143 1.248 . S
C130 O144 1.267 . S
C130 O145 1.278 . S
C131 Pr121 2.880 . S
C131 C132 1.491 . S
C131 O146 1.254 . S
C131 O147 1.225 . S
C132 C131 1.491 . S
C132 C133 1.392 . S
C132 C137 1.356 . S
C133 C132 1.392 . S
C133 C134 1.368 . S
C133 H156 0.929 . S
C134 C133 1.368 . S
C134 C135 1.386 . S
C134 H157 0.929 . S
C135 C134 1.386 . S
C135 C136 1.373 . S
C136 C135 1.373 . S
C136 C137 1.409 . S
C136 H158 0.931 . S
C137 C132 1.356 . S
C137 C136 1.409 . S
C137 H159 0.930 . S
C138 O148 1.270 . S
C138 O149 1.248 . S
C139 O150 1.267 . S
C139 O151 1.278 . S
O140 Pr120 2.562 . S
O140 C122 1.254 . S
O141 Pr120 2.490 . S
O141 C122 1.225 . S
O142 Pr120 2.695 . S
O142 Pr121 2.436 . S
O142 C129 1.270 . S
O143 Pr120 2.512 . S
O143 C129 1.248 . S
O144 Pr121 2.438 . S
O144 C130 1.267 . S
O145 Pr120 2.437 . S
O145 C130 1.278 . S
O146 Pr121 2.562 . S
O146 C131 1.254 . S
O147 Pr121 2.490 . S
O147 C131 1.225 . S
O148 Pr120 2.436 . S
O148 Pr121 2.695 . S
O148 C138 1.270 . S
O149 Pr121 2.512 . S
O149 C138 1.248 . S
O150 Pr120 2.438 . S
O150 C139 1.267 . S
O151 Pr121 2.437 . S
O151 C139 1.278 . S
H152 C124 0.929 . S
H153 C125 0.929 . S
H154 C127 0.931 . S
H155 C128 0.930 . S
H156 C133 0.929 . S
H157 C134 0.929 . S
H158 C136 0.931 . S
H159 C137 0.930 . S
Pr160 C162 2.880 . S
Pr160 O180 2.562 . S
Pr160 O181 2.490 . S
Pr160 O182 2.695 1_545 S
Pr160 O183 2.512 1_545 S
Pr160 O185 2.437 1_545 S
Pr160 O188 2.436 1_655 S
Pr160 O190 2.438 1_655 S
Pr161 C171 2.880 . S
Pr161 O182 2.436 1_455 S
Pr161 O184 2.438 1_455 S
Pr161 O186 2.562 . S
Pr161 O187 2.490 . S
Pr161 O188 2.695 1_565 S
Pr161 O189 2.512 1_565 S
Pr161 O191 2.437 1_565 S
C162 Pr160 2.880 . S
C162 C163 1.491 . S
C162 O180 1.254 . S
C162 O181 1.225 . S
C163 C162 1.491 . S
C163 C164 1.392 . S
C163 C168 1.356 . S
C164 C163 1.392 . S
C164 C165 1.368 . S
C164 H192 0.929 . S
C165 C164 1.368 . S
C165 C166 1.386 . S
C165 H193 0.929 . S
C166 C165 1.386 . S
C166 C167 1.373 . S
C167 C166 1.373 . S
C167 C168 1.409 . S
C167 H194 0.931 . S
C168 C163 1.356 . S
C168 C167 1.409 . S
C168 H195 0.930 . S
C169 O182 1.270 . S
C169 O183 1.248 . S
C170 O184 1.267 . S
C170 O185 1.278 . S
C171 Pr161 2.880 . S
C171 C172 1.491 . S
C171 O186 1.254 . S
C171 O187 1.225 . S
C172 C171 1.491 . S
C172 C173 1.392 . S
C172 C177 1.356 . S
C173 C172 1.392 . S
C173 C174 1.368 . S
C173 H196 0.929 . S
C174 C173 1.368 . S
C174 C175 1.386 . S
C174 H197 0.929 . S
C175 C174 1.386 . S
C175 C176 1.373 . S
C176 C175 1.373 . S
C176 C177 1.409 . S
C176 H198 0.931 . S
C177 C172 1.356 . S
C177 C176 1.409 . S
C177 H199 0.930 . S
C178 O188 1.270 . S
C178 O189 1.248 . S
C179 O190 1.267 . S
C179 O191 1.278 . S
O180 Pr160 2.562 . S
O180 C162 1.254 . S
O181 Pr160 2.490 . S
O181 C162 1.225 . S
O182 Pr160 2.695 1_565 S
O182 Pr161 2.436 1_655 S
O182 C169 1.270 . S
O183 Pr160 2.512 1_565 S
O183 C169 1.248 . S
O184 Pr161 2.438 1_655 S
O184 C170 1.267 . S
O185 Pr160 2.437 1_565 S
O185 C170 1.278 . S
O186 Pr161 2.562 . S
O186 C171 1.254 . S
O187 Pr161 2.490 . S
O187 C171 1.225 . S
O188 Pr160 2.436 1_455 S
O188 Pr161 2.695 1_545 S
O188 C178 1.270 . S
O189 Pr161 2.512 1_545 S
O189 C178 1.248 . S
O190 Pr160 2.438 1_455 S
O190 C179 1.267 . S
O191 Pr161 2.437 1_545 S
O191 C179 1.278 . S
H192 C164 0.929 . S
H193 C165 0.929 . S
H194 C167 0.931 . S
H195 C168 0.930 . S
H196 C173 0.929 . S
H197 C174 0.929 . S
H198 C176 0.931 . S
H199 C177 0.930 . S
Pr200 C202 2.880 . S
Pr200 O220 2.562 . S
Pr200 O221 2.490 . S
Pr200 O222 2.695 . S
Pr200 O223 2.512 . S
Pr200 O225 2.437 . S
Pr200 O228 2.436 . S
Pr200 O230 2.438 . S
Pr201 C211 2.880 . S
Pr201 O222 2.436 . S
Pr201 O224 2.438 . S
Pr201 O226 2.562 . S
Pr201 O227 2.490 . S
Pr201 O228 2.695 . S
Pr201 O229 2.512 . S
Pr201 O231 2.437 . S
C202 Pr200 2.880 . S
C202 C203 1.491 . S
C202 O220 1.254 . S
C202 O221 1.225 . S
C203 C202 1.491 . S
C203 C204 1.392 . S
C203 C208 1.356 . S
C204 C203 1.392 . S
C204 C205 1.368 . S
C204 H232 0.929 . S
C205 C204 1.368 . S
C205 C206 1.386 . S
C205 H233 0.929 . S
C206 C205 1.386 . S
C206 C207 1.373 . S
C207 C206 1.373 . S
C207 C208 1.409 . S
C207 H234 0.931 . S
C208 C203 1.356 . S
C208 C207 1.409 . S
C208 H235 0.930 . S
C209 O222 1.270 . S
C209 O223 1.248 . S
C210 O224 1.267 . S
C210 O225 1.278 . S
C211 Pr201 2.880 . S
C211 C212 1.491 . S
C211 O226 1.254 . S
C211 O227 1.225 . S
C212 C211 1.491 . S
C212 C213 1.392 . S
C212 C217 1.356 . S
C213 C212 1.392 . S
C213 C214 1.368 . S
C213 H236 0.929 . S
C214 C213 1.368 . S
C214 C215 1.386 . S
C214 H237 0.929 . S
C215 C214 1.386 . S
C215 C216 1.373 . S
C216 C215 1.373 . S
C216 C217 1.409 . S
C216 H238 0.931 . S
C217 C212 1.356 . S
C217 C216 1.409 . S
C217 H239 0.930 . S
C218 O228 1.270 . S
C218 O229 1.248 . S
C219 O230 1.267 . S
C219 O231 1.278 . S
O220 Pr200 2.562 . S
O220 C202 1.254 . S
O221 Pr200 2.490 . S
O221 C202 1.225 . S
O222 Pr200 2.695 . S
O222 Pr201 2.436 . S
O222 C209 1.270 . S
O223 Pr200 2.512 . S
O223 C209 1.248 . S
O224 Pr201 2.438 . S
O224 C210 1.267 . S
O225 Pr200 2.437 . S
O225 C210 1.278 . S
O226 Pr201 2.562 . S
O226 C211 1.254 . S
O227 Pr201 2.490 . S
O227 C211 1.225 . S
O228 Pr200 2.436 . S
O228 Pr201 2.695 . S
O228 C218 1.270 . S
O229 Pr201 2.512 . S
O229 C218 1.248 . S
O230 Pr200 2.438 . S
O230 C219 1.267 . S
O231 Pr201 2.437 . S
O231 C219 1.278 . S
H232 C204 0.929 . S
H233 C205 0.929 . S
H234 C207 0.931 . S
H235 C208 0.930 . S
H236 C213 0.929 . S
H237 C214 0.929 . S
H238 C216 0.931 . S
H239 C217 0.930 . S
Pr240 C242 2.880 . S
Pr240 O260 2.562 . S
Pr240 O261 2.490 . S
Pr240 O262 2.695 1_566 S
Pr240 O263 2.512 1_566 S
Pr240 O265 2.437 1_565 S
Pr240 O268 2.436 . S
Pr240 O270 2.438 1_556 S
Pr241 C251 2.880 . S
Pr241 O262 2.436 . S
Pr241 O264 2.438 1_554 S
Pr241 O266 2.562 . S
Pr241 O267 2.490 . S
Pr241 O268 2.695 1_544 S
Pr241 O269 2.512 1_544 S
Pr241 O271 2.437 1_545 S
C242 Pr240 2.880 . S
C242 C243 1.491 . S
C242 O260 1.254 . S
C242 O261 1.225 . S
C243 C242 1.491 . S
C243 C244 1.392 . S
C243 C248 1.356 . S
C244 C243 1.392 . S
C244 C245 1.368 . S
C244 H272 0.929 . S
C245 C244 1.368 . S
C245 C246 1.386 . S
C245 H273 0.929 . S
C246 C245 1.386 . S
C246 C247 1.373 . S
C247 C246 1.373 . S
C247 C248 1.409 . S
C247 H274 0.931 . S
C248 C243 1.356 . S
C248 C247 1.409 . S
C248 H275 0.930 . S
C249 O262 1.270 . S
C249 O263 1.248 . S
C250 O264 1.267 . S
C250 O265 1.278 . S
C251 Pr241 2.880 . S
C251 C252 1.491 . S
C251 O266 1.254 . S
C251 O267 1.225 . S
C252 C251 1.491 . S
C252 C253 1.392 . S
C252 C257 1.356 . S
C253 C252 1.392 . S
C253 C254 1.368 . S
C253 H276 0.929 . S
C254 C253 1.368 . S
C254 C255 1.386 . S
C254 H277 0.929 . S
C255 C254 1.386 . S
C255 C256 1.373 . S
C256 C255 1.373 . S
C256 C257 1.409 . S
C256 H278 0.931 . S
C257 C252 1.356 . S
C257 C256 1.409 . S
C257 H279 0.930 . S
C258 O268 1.270 . S
C258 O269 1.248 . S
C259 O270 1.267 . S
C259 O271 1.278 . S
O260 Pr240 2.562 . S
O260 C242 1.254 . S
O261 Pr240 2.490 . S
O261 C242 1.225 . S
O262 Pr240 2.695 1_544 S
O262 Pr241 2.436 . S
O262 C249 1.270 . S
O263 Pr240 2.512 1_544 S
O263 C249 1.248 . S
O264 Pr241 2.438 1_556 S
O264 C250 1.267 . S
O265 Pr240 2.437 1_545 S
O265 C250 1.278 . S
O266 Pr241 2.562 . S
O266 C251 1.254 . S
O267 Pr241 2.490 . S
O267 C251 1.225 . S
O268 Pr240 2.436 . S
O268 Pr241 2.695 1_566 S
O268 C258 1.270 . S
O269 Pr241 2.512 1_566 S
O269 C258 1.248 . S
O270 Pr240 2.438 1_554 S
O270 C259 1.267 . S
O271 Pr241 2.437 1_565 S
O271 C259 1.278 . S
H272 C244 0.929 . S
H273 C245 0.929 . S
H274 C247 0.931 . S
H275 C248 0.930 . S
H276 C253 0.929 . S
H277 C254 0.929 . S
H278 C256 0.931 . S
H279 C257 0.930 . S
Pr280 C282 2.880 . S
Pr280 O300 2.562 . S
Pr280 O301 2.490 . S
Pr280 O302 2.695 . S
Pr280 O303 2.512 . S
Pr280 O305 2.437 . S
Pr280 O308 2.436 . S
Pr280 O310 2.438 . S
Pr281 C291 2.880 . S
Pr281 O302 2.436 . S
Pr281 O304 2.438 . S
Pr281 O306 2.562 . S
Pr281 O307 2.490 . S
Pr281 O308 2.695 . S
Pr281 O309 2.512 . S
Pr281 O311 2.437 . S
C282 Pr280 2.880 . S
C282 C283 1.491 . S
C282 O300 1.254 . S
C282 O301 1.225 . S
C283 C282 1.491 . S
C283 C284 1.392 . S
C283 C288 1.356 . S
C284 C283 1.392 . S
C284 C285 1.368 . S
C284 H312 0.929 . S
C285 C284 1.368 . S
C285 C286 1.386 . S
C285 H313 0.929 . S
C286 C285 1.386 . S
C286 C287 1.373 . S
C287 C286 1.373 . S
C287 C288 1.409 . S
C287 H314 0.931 . S
C288 C283 1.356 . S
C288 C287 1.409 . S
C288 H315 0.930 . S
C289 O302 1.270 . S
C289 O303 1.248 . S
C290 O304 1.267 . S
C290 O305 1.278 . S
C291 Pr281 2.880 . S
C291 C292 1.491 . S
C291 O306 1.254 . S
C291 O307 1.225 . S
C292 C291 1.491 . S
C292 C293 1.392 . S
C292 C297 1.356 . S
C293 C292 1.392 . S
C293 C294 1.368 . S
C293 H316 0.929 . S
C294 C293 1.368 . S
C294 C295 1.386 . S
C294 H317 0.929 . S
C295 C294 1.386 . S
C295 C296 1.373 . S
C296 C295 1.373 . S
C296 C297 1.409 . S
C296 H318 0.931 . S
C297 C292 1.356 . S
C297 C296 1.409 . S
C297 H319 0.930 . S
C298 O308 1.270 . S
C298 O309 1.248 . S
C299 O310 1.267 . S
C299 O311 1.278 . S
O300 Pr280 2.562 . S
O300 C282 1.254 . S
O301 Pr280 2.490 . S
O301 C282 1.225 . S
O302 Pr280 2.695 . S
O302 Pr281 2.436 . S
O302 C289 1.270 . S
O303 Pr280 2.512 . S
O303 C289 1.248 . S
O304 Pr281 2.438 . S
O304 C290 1.267 . S
O305 Pr280 2.437 . S
O305 C290 1.278 . S
O306 Pr281 2.562 . S
O306 C291 1.254 . S
O307 Pr281 2.490 . S
O307 C291 1.225 . S
O308 Pr280 2.436 . S
O308 Pr281 2.695 . S
O308 C298 1.270 . S
O309 Pr281 2.512 . S
O309 C298 1.248 . S
O310 Pr280 2.438 . S
O310 C299 1.267 . S
O311 Pr281 2.437 . S
O311 C299 1.278 . S
H312 C284 0.929 . S
H313 C285 0.929 . S
H314 C287 0.931 . S
H315 C288 0.930 . S
H316 C293 0.929 . S
H317 C294 0.929 . S
H318 C296 0.931 . S
H319 C297 0.930 . S
Pr320 C322 2.880 1_554 S
Pr320 O340 2.562 1_554 S
Pr320 O341 2.490 . S
Pr320 O342 2.695 . S
Pr320 O343 2.512 . S
Pr320 O345 2.437 1_554 S
Pr320 O348 2.436 1_554 S
Pr320 O350 2.438 . S
Pr321 C331 2.880 1_556 S
Pr321 O342 2.436 1_556 S
Pr321 O344 2.438 . S
Pr321 O346 2.562 1_556 S
Pr321 O347 2.490 . S
Pr321 O348 2.695 . S
Pr321 O349 2.512 . S
Pr321 O351 2.437 1_556 S
C322 Pr320 2.880 1_556 S
C322 C323 1.491 . S
C322 O340 1.254 . S
C322 O341 1.225 1_556 S
C323 C322 1.491 . S
C323 C324 1.392 . S
C323 C328 1.356 . S
C324 C323 1.392 . S
C324 C325 1.368 . S
C324 H352 0.929 1_556 S
C325 C324 1.368 . S
C325 C326 1.386 . S
C325 H353 0.929 . S
C326 C325 1.386 . S
C326 C327 1.373 . S
C327 C326 1.373 . S
C327 C328 1.409 . S
C327 H354 0.931 . S
C328 C323 1.356 . S
C328 C327 1.409 . S
C328 H355 0.930 . S
C329 O342 1.270 . S
C329 O343 1.248 . S
C330 O344 1.267 . S
C330 O345 1.278 . S
C331 Pr321 2.880 1_554 S
C331 C332 1.491 . S
C331 O346 1.254 . S
C331 O347 1.225 1_554 S
C332 C331 1.491 . S
C332 C333 1.392 . S
C332 C337 1.356 . S
C333 C332 1.392 . S
C333 C334 1.368 . S
C333 H356 0.929 1_554 S
C334 C333 1.368 . S
C334 C335 1.386 . S
C334 H357 0.929 . S
C335 C334 1.386 . S
C335 C336 1.373 . S
C336 C335 1.373 . S
C336 C337 1.409 . S
C336 H358 0.931 . S
C337 C332 1.356 . S
C337 C336 1.409 . S
C337 H359 0.930 . S
C338 O348 1.270 . S
C338 O349 1.248 . S
C339 O350 1.267 . S
C339 O351 1.278 . S
O340 Pr320 2.562 1_556 S
O340 C322 1.254 . S
O341 Pr320 2.490 . S
O341 C322 1.225 1_554 S
O342 Pr320 2.695 . S
O342 Pr321 2.436 1_554 S
O342 C329 1.270 . S
O343 Pr320 2.512 . S
O343 C329 1.248 . S
O344 Pr321 2.438 . S
O344 C330 1.267 . S
O345 Pr320 2.437 1_556 S
O345 C330 1.278 . S
O346 Pr321 2.562 1_554 S
O346 C331 1.254 . S
O347 Pr321 2.490 . S
O347 C331 1.225 1_556 S
O348 Pr320 2.436 1_556 S
O348 Pr321 2.695 . S
O348 C338 1.270 . S
O349 Pr321 2.512 . S
O349 C338 1.248 . S
O350 Pr320 2.438 . S
O350 C339 1.267 . S
O351 Pr321 2.437 1_554 S
O351 C339 1.278 . S
H352 C324 0.929 1_554 S
H353 C325 0.929 . S
H354 C327 0.931 . S
H355 C328 0.930 . S
H356 C333 0.929 1_556 S
H357 C334 0.929 . S
H358 C336 0.931 . S
H359 C337 0.930 . S
Pr360 C362 2.880 . S
Pr360 O380 2.562 . S
Pr360 O381 2.490 . S
Pr360 O382 2.695 . S
Pr360 O383 2.512 . S
Pr360 O385 2.437 . S
Pr360 O388 2.436 . S
Pr360 O390 2.438 . S
Pr361 C371 2.880 . S
Pr361 O382 2.436 . S
Pr361 O384 2.438 . S
Pr361 O386 2.562 . S
Pr361 O387 2.490 . S
Pr361 O388 2.695 . S
Pr361 O389 2.512 . S
Pr361 O391 2.437 . S
C362 Pr360 2.880 . S
C362 C363 1.491 . S
C362 O380 1.254 . S
C362 O381 1.225 . S
C363 C362 1.491 . S
C363 C364 1.392 . S
C363 C368 1.356 . S
C364 C363 1.392 . S
C364 C365 1.368 . S
C364 H392 0.929 . S
C365 C364 1.368 . S
C365 C366 1.386 . S
C365 H393 0.929 . S
C366 C365 1.386 . S
C366 C367 1.373 . S
C367 C366 1.373 . S
C367 C368 1.409 . S
C367 H394 0.931 . S
C368 C363 1.356 . S
C368 C367 1.409 . S
C368 H395 0.930 . S
C369 O382 1.270 . S
C369 O383 1.248 . S
C370 O384 1.267 . S
C370 O385 1.278 . S
C371 Pr361 2.880 . S
C371 C372 1.491 . S
C371 O386 1.254 . S
C371 O387 1.225 . S
C372 C371 1.491 . S
C372 C373 1.392 . S
C372 C377 1.356 . S
C373 C372 1.392 . S
C373 C374 1.368 . S
C373 H396 0.929 . S
C374 C373 1.368 . S
C374 C375 1.386 . S
C374 H397 0.929 . S
C375 C374 1.386 . S
C375 C376 1.373 . S
C376 C375 1.373 . S
C376 C377 1.409 . S
C376 H398 0.931 . S
C377 C372 1.356 . S
C377 C376 1.409 . S
C377 H399 0.930 . S
C378 O388 1.270 . S
C378 O389 1.248 . S
C379 O390 1.267 . S
C379 O391 1.278 . S
O380 Pr360 2.562 . S
O380 C362 1.254 . S
O381 Pr360 2.490 . S
O381 C362 1.225 . S
O382 Pr360 2.695 . S
O382 Pr361 2.436 . S
O382 C369 1.270 . S
O383 Pr360 2.512 . S
O383 C369 1.248 . S
O384 Pr361 2.438 . S
O384 C370 1.267 . S
O385 Pr360 2.437 . S
O385 C370 1.278 . S
O386 Pr361 2.562 . S
O386 C371 1.254 . S
O387 Pr361 2.490 . S
O387 C371 1.225 . S
O388 Pr360 2.436 . S
O388 Pr361 2.695 . S
O388 C378 1.270 . S
O389 Pr361 2.512 . S
O389 C378 1.248 . S
O390 Pr360 2.438 . S
O390 C379 1.267 . S
O391 Pr361 2.437 . S
O391 C379 1.278 . S
H392 C364 0.929 . S
H393 C365 0.929 . S
H394 C367 0.931 . S
H395 C368 0.930 . S
H396 C373 0.929 . S
H397 C374 0.929 . S
H398 C376 0.931 . S
H399 C377 0.930 . S
Pr400 C402 2.880 . S
Pr400 O420 2.562 . S
Pr400 O421 2.490 . S
Pr400 O422 2.695 . S
Pr400 O423 2.512 . S
Pr400 O425 2.437 . S
Pr400 O428 2.436 1_455 S
Pr400 O430 2.438 1_455 S
Pr401 C411 2.880 . S
Pr401 O422 2.436 1_655 S
Pr401 O424 2.438 1_655 S
Pr401 O426 2.562 . S
Pr401 O427 2.490 . S
Pr401 O428 2.695 . S
Pr401 O429 2.512 . S
Pr401 O431 2.437 . S
C402 Pr400 2.880 . S
C402 C403 1.491 . S
C402 O420 1.254 . S
C402 O421 1.225 . S
C403 C402 1.491 . S
C403 C404 1.392 . S
C403 C408 1.356 . S
C404 C403 1.392 . S
C404 C405 1.368 . S
C404 H432 0.929 . S
C405 C404 1.368 . S
C405 C406 1.386 . S
C405 H433 0.929 . S
C406 C405 1.386 . S
C406 C407 1.373 . S
C407 C406 1.373 . S
C407 C408 1.409 . S
C407 H434 0.931 . S
C408 C403 1.356 . S
C408 C407 1.409 . S
C408 H435 0.930 . S
C409 O422 1.270 . S
C409 O423 1.248 . S
C410 O424 1.267 . S
C410 O425 1.278 . S
C411 Pr401 2.880 . S
C411 C412 1.491 . S
C411 O426 1.254 . S
C411 O427 1.225 . S
C412 C411 1.491 . S
C412 C413 1.392 . S
C412 C417 1.356 . S
C413 C412 1.392 . S
C413 C414 1.368 . S
C413 H436 0.929 . S
C414 C413 1.368 . S
C414 C415 1.386 . S
C414 H437 0.929 . S
C415 C414 1.386 . S
C415 C416 1.373 . S
C416 C415 1.373 . S
C416 C417 1.409 . S
C416 H438 0.931 . S
C417 C412 1.356 . S
C417 C416 1.409 . S
C417 H439 0.930 . S
C418 O428 1.270 . S
C418 O429 1.248 . S
C419 O430 1.267 . S
C419 O431 1.278 . S
O420 Pr400 2.562 . S
O420 C402 1.254 . S
O421 Pr400 2.490 . S
O421 C402 1.225 . S
O422 Pr400 2.695 . S
O422 Pr401 2.436 1_455 S
O422 C409 1.270 . S
O423 Pr400 2.512 . S
O423 C409 1.248 . S
O424 Pr401 2.438 1_455 S
O424 C410 1.267 . S
O425 Pr400 2.437 . S
O425 C410 1.278 . S
O426 Pr401 2.562 . S
O426 C411 1.254 . S
O427 Pr401 2.490 . S
O427 C411 1.225 . S
O428 Pr400 2.436 1_655 S
O428 Pr401 2.695 . S
O428 C418 1.270 . S
O429 Pr401 2.512 . S
O429 C418 1.248 . S
O430 Pr400 2.438 1_655 S
O430 C419 1.267 . S
O431 Pr401 2.437 . S
O431 C419 1.278 . S
H432 C404 0.929 . S
H433 C405 0.929 . S
H434 C407 0.931 . S
H435 C408 0.930 . S
H436 C413 0.929 . S
H437 C414 0.929 . S
H438 C416 0.931 . S
H439 C417 0.930 . S
Pr440 C442 2.880 . S
Pr440 O460 2.562 . S
Pr440 O461 2.490 . S
Pr440 O462 2.695 . S
Pr440 O463 2.512 . S
Pr440 O465 2.437 . S
Pr440 O468 2.436 . S
Pr440 O470 2.438 . S
Pr441 C451 2.880 . S
Pr441 O462 2.436 . S
Pr441 O464 2.438 . S
Pr441 O466 2.562 . S
Pr441 O467 2.490 . S
Pr441 O468 2.695 . S
Pr441 O469 2.512 . S
Pr441 O471 2.437 . S
C442 Pr440 2.880 . S
C442 C443 1.491 . S
C442 O460 1.254 . S
C442 O461 1.225 . S
C443 C442 1.491 . S
C443 C444 1.392 . S
C443 C448 1.356 . S
C444 C443 1.392 . S
C444 C445 1.368 . S
C444 H472 0.929 . S
C445 C444 1.368 . S
C445 C446 1.386 . S
C445 H473 0.929 . S
C446 C445 1.386 . S
C446 C447 1.373 . S
C447 C446 1.373 . S
C447 C448 1.409 . S
C447 H474 0.931 . S
C448 C443 1.356 . S
C448 C447 1.409 . S
C448 H475 0.930 . S
C449 O462 1.270 . S
C449 O463 1.248 . S
C450 O464 1.267 . S
C450 O465 1.278 . S
C451 Pr441 2.880 . S
C451 C452 1.491 . S
C451 O466 1.254 . S
C451 O467 1.225 . S
C452 C451 1.491 . S
C452 C453 1.392 . S
C452 C457 1.356 . S
C453 C452 1.392 . S
C453 C454 1.368 . S
C453 H476 0.929 . S
C454 C453 1.368 . S
C454 C455 1.386 . S
C454 H477 0.929 . S
C455 C454 1.386 . S
C455 C456 1.373 . S
C456 C455 1.373 . S
C456 C457 1.409 . S
C456 H478 0.931 . S
C457 C452 1.356 . S
C457 C456 1.409 . S
C457 H479 0.930 . S
C458 O468 1.270 . S
C458 O469 1.248 . S
C459 O470 1.267 . S
C459 O471 1.278 . S
O460 Pr440 2.562 . S
O460 C442 1.254 . S
O461 Pr440 2.490 . S
O461 C442 1.225 . S
O462 Pr440 2.695 . S
O462 Pr441 2.436 . S
O462 C449 1.270 . S
O463 Pr440 2.512 . S
O463 C449 1.248 . S
O464 Pr441 2.438 . S
O464 C450 1.267 . S
O465 Pr440 2.437 . S
O465 C450 1.278 . S
O466 Pr441 2.562 . S
O466 C451 1.254 . S
O467 Pr441 2.490 . S
O467 C451 1.225 . S
O468 Pr440 2.436 . S
O468 Pr441 2.695 . S
O468 C458 1.270 . S
O469 Pr441 2.512 . S
O469 C458 1.248 . S
O470 Pr440 2.438 . S
O470 C459 1.267 . S
O471 Pr441 2.437 . S
O471 C459 1.278 . S
H472 C444 0.929 . S
H473 C445 0.929 . S
H474 C447 0.931 . S
H475 C448 0.930 . S
H476 C453 0.929 . S
H477 C454 0.929 . S
H478 C456 0.931 . S
H479 C457 0.930 . S
Pr480 C482 2.880 . S
Pr480 O500 2.562 . S
Pr480 O501 2.490 . S
Pr480 O502 2.695 . S
Pr480 O503 2.512 . S
Pr480 O505 2.437 . S
Pr480 O508 2.436 . S
Pr480 O510 2.438 . S
Pr481 C491 2.880 . S
Pr481 O502 2.436 . S
Pr481 O504 2.438 . S
Pr481 O506 2.562 . S
Pr481 O507 2.490 . S
Pr481 O508 2.695 . S
Pr481 O509 2.512 . S
Pr481 O511 2.437 . S
C482 Pr480 2.880 . S
C482 C483 1.491 . S
C482 O500 1.254 . S
C482 O501 1.225 . S
C483 C482 1.491 . S
C483 C484 1.392 . S
C483 C488 1.356 . S
C484 C483 1.392 . S
C484 C485 1.368 . S
C484 H512 0.929 . S
C485 C484 1.368 . S
C485 C486 1.386 . S
C485 H513 0.929 . S
C486 C485 1.386 . S
C486 C487 1.373 . S
C487 C486 1.373 . S
C487 C488 1.409 . S
C487 H514 0.931 . S
C488 C483 1.356 . S
C488 C487 1.409 . S
C488 H515 0.930 . S
C489 O502 1.270 . S
C489 O503 1.248 . S
C490 O504 1.267 . S
C490 O505 1.278 . S
C491 Pr481 2.880 . S
C491 C492 1.491 . S
C491 O506 1.254 . S
C491 O507 1.225 . S
C492 C491 1.491 . S
C492 C493 1.392 . S
C492 C497 1.356 . S
C493 C492 1.392 . S
C493 C494 1.368 . S
C493 H516 0.929 . S
C494 C493 1.368 . S
C494 C495 1.386 . S
C494 H517 0.929 . S
C495 C494 1.386 . S
C495 C496 1.373 . S
C496 C495 1.373 . S
C496 C497 1.409 . S
C496 H518 0.931 . S
C497 C492 1.356 . S
C497 C496 1.409 . S
C497 H519 0.930 . S
C498 O508 1.270 . S
C498 O509 1.248 . S
C499 O510 1.267 . S
C499 O511 1.278 . S
O500 Pr480 2.562 . S
O500 C482 1.254 . S
O501 Pr480 2.490 . S
O501 C482 1.225 . S
O502 Pr480 2.695 . S
O502 Pr481 2.436 . S
O502 C489 1.270 . S
O503 Pr480 2.512 . S
O503 C489 1.248 . S
O504 Pr481 2.438 . S
O504 C490 1.267 . S
O505 Pr480 2.437 . S
O505 C490 1.278 . S
O506 Pr481 2.562 . S
O506 C491 1.254 . S
O507 Pr481 2.490 . S
O507 C491 1.225 . S
O508 Pr480 2.436 . S
O508 Pr481 2.695 . S
O508 C498 1.270 . S
O509 Pr481 2.512 . S
O509 C498 1.248 . S
O510 Pr480 2.438 . S
O510 C499 1.267 . S
O511 Pr481 2.437 . S
O511 C499 1.278 . S
H512 C484 0.929 . S
H513 C485 0.929 . S
H514 C487 0.931 . S
H515 C488 0.930 . S
H516 C493 0.929 . S
H517 C494 0.929 . S
H518 C496 0.931 . S
H519 C497 0.930 . S
Pr520 C522 2.880 . S
Pr520 O540 2.562 . S
Pr520 O541 2.490 . S
Pr520 O542 2.695 . S
Pr520 O543 2.512 . S
Pr520 O545 2.437 . S
Pr520 O548 2.436 . S
Pr520 O550 2.438 . S
Pr521 C531 2.880 . S
Pr521 O542 2.436 . S
Pr521 O544 2.438 . S
Pr521 O546 2.562 . S
Pr521 O547 2.490 . S
Pr521 O548 2.695 . S
Pr521 O549 2.512 . S
Pr521 O551 2.437 . S
C522 Pr520 2.880 . S
C522 C523 1.491 . S
C522 O540 1.254 . S
C522 O541 1.225 . S
C523 C522 1.491 . S
C523 C524 1.392 . S
C523 C528 1.356 . S
C524 C523 1.392 . S
C524 C525 1.368 . S
C524 H552 0.929 . S
C525 C524 1.368 . S
C525 C526 1.386 . S
C525 H553 0.929 . S
C526 C525 1.386 . S
C526 C527 1.373 . S
C527 C526 1.373 . S
C527 C528 1.409 . S
C527 H554 0.931 . S
C528 C523 1.356 . S
C528 C527 1.409 . S
C528 H555 0.930 . S
C529 O542 1.270 . S
C529 O543 1.248 . S
C530 O544 1.267 . S
C530 O545 1.278 . S
C531 Pr521 2.880 . S
C531 C532 1.491 . S
C531 O546 1.254 . S
C531 O547 1.225 . S
C532 C531 1.491 . S
C532 C533 1.392 . S
C532 C537 1.356 . S
C533 C532 1.392 . S
C533 C534 1.368 . S
C533 H556 0.929 . S
C534 C533 1.368 . S
C534 C535 1.386 . S
C534 H557 0.929 . S
C535 C534 1.386 . S
C535 C536 1.373 . S
C536 C535 1.373 . S
C536 C537 1.409 . S
C536 H558 0.931 . S
C537 C532 1.356 . S
C537 C536 1.409 . S
C537 H559 0.930 . S
C538 O548 1.270 . S
C538 O549 1.248 . S
C539 O550 1.267 . S
C539 O551 1.278 . S
O540 Pr520 2.562 . S
O540 C522 1.254 . S
O541 Pr520 2.490 . S
O541 C522 1.225 . S
O542 Pr520 2.695 . S
O542 Pr521 2.436 . S
O542 C529 1.270 . S
O543 Pr520 2.512 . S
O543 C529 1.248 . S
O544 Pr521 2.438 . S
O544 C530 1.267 . S
O545 Pr520 2.437 . S
O545 C530 1.278 . S
O546 Pr521 2.562 . S
O546 C531 1.254 . S
O547 Pr521 2.490 . S
O547 C531 1.225 . S
O548 Pr520 2.436 . S
O548 Pr521 2.695 . S
O548 C538 1.270 . S
O549 Pr521 2.512 . S
O549 C538 1.248 . S
O550 Pr520 2.438 . S
O550 C539 1.267 . S
O551 Pr521 2.437 . S
O551 C539 1.278 . S
H552 C524 0.929 . S
H553 C525 0.929 . S
H554 C527 0.931 . S
H555 C528 0.930 . S
H556 C533 0.929 . S
H557 C534 0.929 . S
H558 C536 0.931 . S
H559 C537 0.930 . S
Pr560 C562 2.880 . S
Pr560 O580 2.562 . S
Pr560 O581 2.490 . S
Pr560 O582 2.695 . S
Pr560 O583 2.512 . S
Pr560 O585 2.437 . S
Pr560 O588 2.436 . S
Pr560 O590 2.438 . S
Pr561 C571 2.880 . S
Pr561 O582 2.436 . S
Pr561 O584 2.438 . S
Pr561 O586 2.562 . S
Pr561 O587 2.490 . S
Pr561 O588 2.695 . S
Pr561 O589 2.512 . S
Pr561 O591 2.437 . S
C562 Pr560 2.880 . S
C562 C563 1.491 . S
C562 O580 1.254 . S
C562 O581 1.225 . S
C563 C562 1.491 . S
C563 C564 1.392 . S
C563 C568 1.356 . S
C564 C563 1.392 . S
C564 C565 1.368 . S
C564 H592 0.929 . S
C565 C564 1.368 . S
C565 C566 1.386 . S
C565 H593 0.929 . S
C566 C565 1.386 . S
C566 C567 1.373 . S
C567 C566 1.373 . S
C567 C568 1.409 . S
C567 H594 0.931 . S
C568 C563 1.356 . S
C568 C567 1.409 . S
C568 H595 0.930 . S
C569 O582 1.270 . S
C569 O583 1.248 . S
C570 O584 1.267 . S
C570 O585 1.278 . S
C571 Pr561 2.880 . S
C571 C572 1.491 . S
C571 O586 1.254 . S
C571 O587 1.225 . S
C572 C571 1.491 . S
C572 C573 1.392 . S
C572 C577 1.356 . S
C573 C572 1.392 . S
C573 C574 1.368 . S
C573 H596 0.929 . S
C574 C573 1.368 . S
C574 C575 1.386 . S
C574 H597 0.929 . S
C575 C574 1.386 . S
C575 C576 1.373 . S
C576 C575 1.373 . S
C576 C577 1.409 . S
C576 H598 0.931 . S
C577 C572 1.356 . S
C577 C576 1.409 . S
C577 H599 0.930 . S
C578 O588 1.270 . S
C578 O589 1.248 . S
C579 O590 1.267 . S
C579 O591 1.278 . S
O580 Pr560 2.562 . S
O580 C562 1.254 . S
O581 Pr560 2.490 . S
O581 C562 1.225 . S
O582 Pr560 2.695 . S
O582 Pr561 2.436 . S
O582 C569 1.270 . S
O583 Pr560 2.512 . S
O583 C569 1.248 . S
O584 Pr561 2.438 . S
O584 C570 1.267 . S
O585 Pr560 2.437 . S
O585 C570 1.278 . S
O586 Pr561 2.562 . S
O586 C571 1.254 . S
O587 Pr561 2.490 . S
O587 C571 1.225 . S
O588 Pr560 2.436 . S
O588 Pr561 2.695 . S
O588 C578 1.270 . S
O589 Pr561 2.512 . S
O589 C578 1.248 . S
O590 Pr560 2.438 . S
O590 C579 1.267 . S
O591 Pr561 2.437 . S
O591 C579 1.278 . S
H592 C564 0.929 . S
H593 C565 0.929 . S
H594 C567 0.931 . S
H595 C568 0.930 . S
H596 C573 0.929 . S
H597 C574 0.929 . S
H598 C576 0.931 . S
H599 C577 0.930 . S
Pr600 C602 2.880 1_455 S
Pr600 O620 2.562 1_455 S
Pr600 O621 2.490 . S
Pr600 O622 2.695 1_556 S
Pr600 O623 2.512 1_556 S
Pr600 O625 2.437 1_456 S
Pr600 O628 2.436 1_455 S
Pr600 O630 2.438 . S
Pr601 C611 2.880 1_655 S
Pr601 O622 2.436 1_655 S
Pr601 O624 2.438 . S
Pr601 O626 2.562 1_655 S
Pr601 O627 2.490 . S
Pr601 O628 2.695 1_554 S
Pr601 O629 2.512 1_554 S
Pr601 O631 2.437 1_654 S
C602 Pr600 2.880 1_655 S
C602 C603 1.491 . S
C602 O620 1.254 . S
C602 O621 1.225 1_655 S
C603 C602 1.491 . S
C603 C604 1.392 1_655 S
C603 C608 1.356 . S
C604 C603 1.392 1_455 S
C604 C605 1.368 1_455 S
C604 H632 0.929 . S
C605 C604 1.368 1_655 S
C605 C606 1.386 . S
C605 H633 0.929 1_655 S
C606 C605 1.386 . S
C606 C607 1.373 . S
C607 C606 1.373 . S
C607 C608 1.409 . S
C607 H634 0.931 . S
C608 C603 1.356 . S
C608 C607 1.409 . S
C608 H635 0.930 . S
C609 O622 1.270 . S
C609 O623 1.248 . S
C610 O624 1.267 . S
C610 O625 1.278 . S
C611 Pr601 2.880 1_455 S
C611 C612 1.491 . S
C611 O626 1.254 . S
C611 O627 1.225 1_455 S
C612 C611 1.491 . S
C612 C613 1.387 1_455 S
C612 C617 1.356 . S
C613 C612 1.387 1_655 S
C613 C614 1.330 1_655 S
C613 H636 0.977 . S
C614 C613 1.330 1_455 S
C614 C615 1.386 . S
C614 H637 0.929 1_455 S
C615 C614 1.386 . S
C615 C616 1.373 . S
C616 C615 1.373 . S
C616 C617 1.409 . S
C616 H638 0.931 . S
C617 C612 1.356 . S
C617 C616 1.409 . S
C617 H639 0.930 . S
C618 O628 1.270 . S
C618 O629 1.248 . S
C619 O630 1.267 . S
C619 O631 1.278 . S
O620 Pr600 2.562 1_655 S
O620 C602 1.254 . S
O621 Pr600 2.490 . S
O621 C602 1.225 1_455 S
O622 Pr600 2.695 1_554 S
O622 Pr601 2.436 1_455 S
O622 C609 1.270 . S
O623 Pr600 2.512 1_554 S
O623 C609 1.248 . S
O624 Pr601 2.438 . S
O624 C610 1.267 . S
O625 Pr600 2.437 1_654 S
O625 C610 1.278 . S
O626 Pr601 2.562 1_455 S
O626 C611 1.254 . S
O627 Pr601 2.490 . S
O627 C611 1.225 1_655 S
O628 Pr600 2.436 1_655 S
O628 Pr601 2.695 1_556 S
O628 C618 1.270 . S
O629 Pr601 2.512 1_556 S
O629 C618 1.248 . S
O630 Pr600 2.438 . S
O630 C619 1.267 . S
O631 Pr601 2.437 1_456 S
O631 C619 1.278 . S
H632 C604 0.929 . S
H633 C605 0.929 1_455 S
H634 C607 0.931 . S
H635 C608 0.930 . S
H636 C613 0.977 . S
H637 C614 0.929 1_655 S
H638 C616 0.931 . S
H639 C617 0.930 . S
H640 C648 0.929 . S
H641 C650 0.930 . S
H642 C652 0.930 . S
H643 C655 0.929 . S
H644 C658 0.930 . S
H645 C660 0.960 . S
H646 C660 0.960 . S
H647 C660 0.960 . S
C648 H640 0.929 . S
C648 C649 1.377 . S
C648 C650 1.384 . S
C649 C648 1.377 . S
C649 C655 1.390 . S
C650 H641 0.930 . S
C650 C648 1.384 . S
C650 C651 1.372 . S
C651 C650 1.372 . S
C651 C652 1.400 . S
C651 C656 1.490 . S
C652 H642 0.930 . S
C652 C651 1.400 . S
C652 C655 1.386 . S
H653 C669 0.930 . S
H654 C670 0.931 . S
C655 H643 0.929 . S
C655 C649 1.390 . S
C655 C652 1.386 . S
C656 C651 1.490 . S
C656 C658 1.395 . S
C656 C659 1.403 . S
H657 C663 0.930 . S
C658 H644 0.930 . S
C658 C656 1.395 . S
C658 C661 1.403 . S
C659 C656 1.403 . S
C659 C660 1.524 . S
C659 C663 1.400 . S
C660 H645 0.960 . S
C660 H646 0.960 . S
C660 H647 0.960 . S
C660 C659 1.524 . S
C661 C658 1.403 . S
C661 C662 1.392 . S
C661 C665 1.495 . S
C662 C661 1.392 . S
C662 C663 1.385 . S
C662 C664 1.478 . S
C663 H657 0.930 . S
C663 C659 1.400 . S
C663 C662 1.385 . S
C664 C662 1.478 . S
C664 C666 1.381 . S
C664 C670 1.383 . S
C665 C661 1.495 . S
C665 H671 0.959 . S
C665 H672 0.961 . S
C665 H673 0.960 . S
C666 C664 1.381 . S
C666 C667 1.394 . S
C666 H674 0.930 . S
C667 C666 1.394 . S
C667 C668 1.383 . S
C667 H675 0.929 . S
C668 C667 1.383 . S
C668 C669 1.377 . S
C669 H653 0.930 . S
C669 C668 1.377 . S
C669 C670 1.379 . S
C670 H654 0.931 . S
C670 C664 1.383 . S
C670 C669 1.379 . S
H671 C665 0.959 . S
H672 C665 0.961 . S
H673 C665 0.960 . S
H674 C666 0.930 . S
H675 C667 0.929 . S
H676 C684 0.929 . S
H677 C686 0.930 . S
H678 C688 0.930 . S
H679 C691 0.929 . S
H680 C694 0.930 . S
H681 C696 0.960 . S
H682 C696 0.960 . S
H683 C696 0.960 . S
C684 H676 0.929 . S
C684 C685 1.377 . S
C684 C686 1.384 . S
C685 C684 1.377 . S
C685 C691 1.390 . S
C686 H677 0.930 . S
C686 C684 1.384 . S
C686 C687 1.372 . S
C687 C686 1.372 . S
C687 C688 1.400 . S
C687 C692 1.490 . S
C688 H678 0.930 . S
C688 C687 1.400 . S
C688 C691 1.386 . S
H689 C705 0.930 . S
H690 C706 0.931 . S
C691 H679 0.929 . S
C691 C685 1.390 . S
C691 C688 1.386 . S
C692 C687 1.490 . S
C692 C694 1.395 . S
C692 C695 1.403 . S
H693 C699 0.930 . S
C694 H680 0.930 . S
C694 C692 1.395 . S
C694 C697 1.403 . S
C695 C692 1.403 . S
C695 C696 1.524 . S
C695 C699 1.400 . S
C696 H681 0.960 . S
C696 H682 0.960 . S
C696 H683 0.960 . S
C696 C695 1.524 . S
C697 C694 1.403 . S
C697 C698 1.392 . S
C697 C701 1.495 . S
C698 C697 1.392 . S
C698 C699 1.385 . S
C698 C700 1.478 . S
C699 H693 0.930 . S
C699 C695 1.400 . S
C699 C698 1.385 . S
C700 C698 1.478 . S
C700 C702 1.381 . S
C700 C706 1.383 . S
C701 C697 1.495 . S
C701 H707 0.959 . S
C701 H708 0.961 . S
C701 H709 0.960 . S
C702 C700 1.381 . S
C702 C703 1.394 . S
C702 H710 0.930 . S
C703 C702 1.394 . S
C703 C704 1.383 . S
C703 H711 0.929 . S
C704 C703 1.383 . S
C704 C705 1.377 . S
C705 H689 0.930 . S
C705 C704 1.377 . S
C705 C706 1.379 . S
C706 H690 0.931 . S
C706 C700 1.383 . S
C706 C705 1.379 . S
H707 C701 0.959 . S
H708 C701 0.961 . S
H709 C701 0.960 . S
H710 C702 0.930 . S
H711 C703 0.929 . S
H712 C720 0.929 . S
H713 C722 0.930 . S
H714 C724 0.930 . S
H715 C727 0.929 . S
H716 C730 0.930 . S
H717 C732 0.960 . S
H718 C732 0.960 . S
H719 C732 0.960 . S
C720 H712 0.929 . S
C720 C721 1.377 . S
C720 C722 1.384 . S
C721 C720 1.377 . S
C721 C727 1.390 . S
C722 H713 0.930 . S
C722 C720 1.384 . S
C722 C723 1.372 . S
C723 C722 1.372 . S
C723 C724 1.400 . S
C723 C728 1.490 . S
C724 H714 0.930 . S
C724 C723 1.400 . S
C724 C727 1.386 . S
H725 C741 0.930 . S
H726 C742 0.931 . S
C727 H715 0.929 . S
C727 C721 1.390 . S
C727 C724 1.386 . S
C728 C723 1.490 . S
C728 C730 1.395 . S
C728 C731 1.403 . S
H729 C735 0.930 . S
C730 H716 0.930 . S
C730 C728 1.395 . S
C730 C733 1.403 . S
C731 C728 1.403 . S
C731 C732 1.524 . S
C731 C735 1.400 . S
C732 H717 0.960 . S
C732 H718 0.960 . S
C732 H719 0.960 . S
C732 C731 1.524 . S
C733 C730 1.403 . S
C733 C734 1.392 . S
C733 C737 1.495 . S
C734 C733 1.392 . S
C734 C735 1.385 . S
C734 C736 1.478 . S
C735 H729 0.930 . S
C735 C731 1.400 . S
C735 C734 1.385 . S
C736 C734 1.478 . S
C736 C738 1.381 . S
C736 C742 1.383 . S
C737 C733 1.495 . S
C737 H743 0.959 . S
C737 H744 0.961 . S
C737 H745 0.960 . S
C738 C736 1.381 . S
C738 C739 1.394 . S
C738 H746 0.930 . S
C739 C738 1.394 . S
C739 C740 1.383 . S
C739 H747 0.929 . S
C740 C739 1.383 . S
C740 C741 1.377 . S
C741 H725 0.930 . S
C741 C740 1.377 . S
C741 C742 1.379 . S
C742 H726 0.931 . S
C742 C736 1.383 . S
C742 C741 1.379 . S
H743 C737 0.959 . S
H744 C737 0.961 . S
H745 C737 0.960 . S
H746 C738 0.930 . S
H747 C739 0.929 . S
H748 C756 0.929 . S
H749 C758 0.930 . S
H750 C760 0.930 . S
H751 C763 0.929 . S
H752 C766 0.930 . S
H753 C768 0.960 . S
H754 C768 0.960 . S
H755 C768 0.960 . S
C756 H748 0.929 . S
C756 C757 1.377 . S
C756 C758 1.384 . S
C757 C756 1.377 . S
C757 C763 1.390 . S
C758 H749 0.930 . S
C758 C756 1.384 . S
C758 C759 1.372 . S
C759 C758 1.372 . S
C759 C760 1.400 . S
C759 C764 1.490 . S
C760 H750 0.930 . S
C760 C759 1.400 . S
C760 C763 1.386 . S
H761 C777 0.930 1_565 S
H762 C778 0.931 . S
C763 H751 0.929 . S
C763 C757 1.390 . S
C763 C760 1.386 . S
C764 C759 1.490 . S
C764 C766 1.395 . S
C764 C767 1.403 . S
H765 C771 0.930 . S
C766 H752 0.930 . S
C766 C764 1.395 . S
C766 C769 1.403 . S
C767 C764 1.403 . S
C767 C768 1.524 . S
C767 C771 1.400 . S
C768 H753 0.960 . S
C768 H754 0.960 . S
C768 H755 0.960 . S
C768 C767 1.524 . S
C769 C766 1.403 . S
C769 C770 1.392 . S
C769 C773 1.495 . S
C770 C769 1.392 . S
C770 C771 1.385 . S
C770 C772 1.478 . S
C771 H765 0.930 . S
C771 C767 1.400 . S
C771 C770 1.385 . S
C772 C770 1.478 . S
C772 C774 1.381 . S
C772 C778 1.383 . S
C773 C769 1.495 . S
C773 H779 0.959 . S
C773 H780 0.961 . S
C773 H781 0.960 . S
C774 C772 1.381 . S
C774 C775 1.394 . S
C774 H782 0.930 . S
C775 C774 1.394 . S
C775 C776 1.383 . S
C775 H783 0.929 . S
C776 C775 1.383 . S
C776 C777 1.377 . S
C777 H761 0.930 1_545 S
C777 C776 1.377 . S
C777 C778 1.379 . S
C778 H762 0.931 . S
C778 C772 1.383 . S
C778 C777 1.379 . S
H779 C773 0.959 . S
H780 C773 0.961 . S
H781 C773 0.960 . S
H782 C774 0.930 . S
H783 C775 0.929 . S
H784 C792 0.929 . S
H785 C794 0.930 . S
H786 C796 0.930 . S
H787 C799 0.929 . S
H788 C802 0.930 . S
H789 C804 0.960 . S
H790 C804 0.960 . S
H791 C804 0.960 . S
C792 H784 0.929 . S
C792 C793 1.377 . S
C792 C794 1.384 . S
C793 C792 1.377 . S
C793 C799 1.390 . S
C794 H785 0.930 . S
C794 C792 1.384 . S
C794 C795 1.372 . S
C795 C794 1.372 . S
C795 C796 1.400 . S
C795 C800 1.490 . S
C796 H786 0.930 . S
C796 C795 1.400 . S
C796 C799 1.386 . S
H797 C813 0.930 . S
H798 C814 0.931 . S
C799 H787 0.929 . S
C799 C793 1.390 . S
C799 C796 1.386 . S
C800 C795 1.490 . S
C800 C802 1.395 . S
C800 C803 1.403 . S
H801 C807 0.930 . S
C802 H788 0.930 . S
C802 C800 1.395 . S
C802 C805 1.403 . S
C803 C800 1.403 . S
C803 C804 1.524 . S
C803 C807 1.400 . S
C804 H789 0.960 . S
C804 H790 0.960 . S
C804 H791 0.960 . S
C804 C803 1.524 . S
C805 C802 1.403 . S
C805 C806 1.392 . S
C805 C809 1.495 . S
C806 C805 1.392 . S
C806 C807 1.385 . S
C806 C808 1.478 . S
C807 H801 0.930 . S
C807 C803 1.400 . S
C807 C806 1.385 . S
C808 C806 1.478 . S
C808 C810 1.381 . S
C808 C814 1.383 . S
C809 C805 1.495 . S
C809 H815 0.959 . S
C809 H816 0.961 . S
C809 H817 0.960 . S
C810 C808 1.381 . S
C810 C811 1.394 . S
C810 H818 0.930 . S
C811 C810 1.394 . S
C811 C812 1.383 . S
C811 H819 0.929 . S
C812 C811 1.383 . S
C812 C813 1.377 . S
C813 H797 0.930 . S
C813 C812 1.377 . S
C813 C814 1.379 . S
C814 H798 0.931 . S
C814 C808 1.383 . S
C814 C813 1.379 . S
H815 C809 0.959 . S
H816 C809 0.961 . S
H817 C809 0.960 . S
H818 C810 0.930 . S
H819 C811 0.929 . S
H820 C828 0.929 . S
H821 C830 0.930 . S
H822 C832 0.930 . S
H823 C835 0.929 . S
H824 C838 0.930 . S
H825 C840 0.960 . S
H826 C840 0.960 . S
H827 C840 0.960 . S
C828 H820 0.929 . S
C828 C829 1.377 . S
C828 C830 1.384 . S
C829 C828 1.377 . S
C829 C835 1.390 . S
C830 H821 0.930 . S
C830 C828 1.384 . S
C830 C831 1.372 . S
C831 C830 1.372 . S
C831 C832 1.400 . S
C831 C836 1.490 . S
C832 H822 0.930 . S
C832 C831 1.400 . S
C832 C835 1.386 . S
H833 C849 0.930 . S
H834 C850 0.931 . S
C835 H823 0.929 . S
C835 C829 1.390 . S
C835 C832 1.386 . S
C836 C831 1.490 . S
C836 C838 1.395 . S
C836 C839 1.403 . S
H837 C843 0.930 . S
C838 H824 0.930 . S
C838 C836 1.395 . S
C838 C841 1.403 . S
C839 C836 1.403 . S
C839 C840 1.524 . S
C839 C843 1.400 . S
C840 H825 0.960 . S
C840 H826 0.960 . S
C840 H827 0.960 . S
C840 C839 1.524 . S
C841 C838 1.403 . S
C841 C842 1.392 . S
C841 C845 1.495 . S
C842 C841 1.392 . S
C842 C843 1.385 . S
C842 C844 1.478 . S
C843 H837 0.930 . S
C843 C839 1.400 . S
C843 C842 1.385 . S
C844 C842 1.478 . S
C844 C846 1.381 . S
C844 C850 1.383 . S
C845 C841 1.495 . S
C845 H851 0.959 . S
C845 H852 0.961 . S
C845 H853 0.960 . S
C846 C844 1.381 . S
C846 C847 1.394 . S
C846 H854 0.930 . S
C847 C846 1.394 . S
C847 C848 1.383 . S
C847 H855 0.929 . S
C848 C847 1.383 . S
C848 C849 1.377 . S
C849 H833 0.930 . S
C849 C848 1.377 . S
C849 C850 1.379 . S
C850 H834 0.931 . S
C850 C844 1.383 . S
C850 C849 1.379 . S
H851 C845 0.959 . S
H852 C845 0.961 . S
H853 C845 0.960 . S
H854 C846 0.930 . S
H855 C847 0.929 . S
H856 C864 0.929 . S
H857 C866 0.930 . S
H858 C868 0.930 . S
H859 C871 0.929 . S
H860 C874 0.930 . S
H861 C876 0.960 . S
H862 C876 0.960 . S
H863 C876 0.960 . S
C864 H856 0.929 . S
C864 C865 1.377 . S
C864 C866 1.384 . S
C865 C864 1.377 . S
C865 C871 1.390 . S
C866 H857 0.930 . S
C866 C864 1.384 . S
C866 C867 1.372 . S
C867 C866 1.372 . S
C867 C868 1.400 . S
C867 C872 1.490 . S
C868 H858 0.930 . S
C868 C867 1.400 . S
C868 C871 1.386 . S
H869 C885 0.930 . S
H870 C886 0.931 . S
C871 H859 0.929 . S
C871 C865 1.390 . S
C871 C868 1.386 . S
C872 C867 1.490 . S
C872 C874 1.395 . S
C872 C875 1.403 . S
H873 C879 0.930 . S
C874 H860 0.930 . S
C874 C872 1.395 . S
C874 C877 1.403 . S
C875 C872 1.403 . S
C875 C876 1.524 . S
C875 C879 1.400 . S
C876 H861 0.960 . S
C876 H862 0.960 . S
C876 H863 0.960 . S
C876 C875 1.524 . S
C877 C874 1.403 . S
C877 C878 1.392 . S
C877 C881 1.495 . S
C878 C877 1.392 . S
C878 C879 1.385 . S
C878 C880 1.478 . S
C879 H873 0.930 . S
C879 C875 1.400 . S
C879 C878 1.385 . S
C880 C878 1.478 . S
C880 C882 1.381 . S
C880 C886 1.383 . S
C881 C877 1.495 . S
C881 H887 0.959 . S
C881 H888 0.961 . S
C881 H889 0.960 . S
C882 C880 1.381 . S
C882 C883 1.394 . S
C882 H890 0.930 . S
C883 C882 1.394 . S
C883 C884 1.383 . S
C883 H891 0.929 . S
C884 C883 1.383 . S
C884 C885 1.377 . S
C885 H869 0.930 . S
C885 C884 1.377 . S
C885 C886 1.379 . S
C886 H870 0.931 . S
C886 C880 1.383 . S
C886 C885 1.379 . S
H887 C881 0.959 . S
H888 C881 0.961 . S
H889 C881 0.960 . S
H890 C882 0.930 . S
H891 C883 0.929 . S
H892 C900 0.929 . S
H893 C902 0.930 . S
H894 C904 0.930 . S
H895 C907 0.929 . S
H896 C910 0.930 . S
H897 C912 0.960 . S
H898 C912 0.960 . S
H899 C912 0.960 . S
C900 H892 0.929 . S
C900 C901 1.377 . S
C900 C902 1.384 . S
C901 C900 1.377 . S
C901 C907 1.390 . S
C902 H893 0.930 . S
C902 C900 1.384 . S
C902 C903 1.372 . S
C903 C902 1.372 . S
C903 C904 1.400 . S
C903 C908 1.490 . S
C904 H894 0.930 . S
C904 C903 1.400 . S
C904 C907 1.386 . S
H905 C921 0.930 . S
H906 C922 0.931 . S
C907 H895 0.929 . S
C907 C901 1.390 . S
C907 C904 1.386 . S
C908 C903 1.490 . S
C908 C910 1.395 . S
C908 C911 1.403 . S
H909 C915 0.930 . S
C910 H896 0.930 . S
C910 C908 1.395 . S
C910 C913 1.403 . S
C911 C908 1.403 . S
C911 C912 1.524 . S
C911 C915 1.400 . S
C912 H897 0.960 . S
C912 H898 0.960 . S
C912 H899 0.960 . S
C912 C911 1.524 . S
C913 C910 1.403 . S
C913 C914 1.392 . S
C913 C917 1.495 . S
C914 C913 1.392 . S
C914 C915 1.385 . S
C914 C916 1.478 . S
C915 H909 0.930 . S
C915 C911 1.400 . S
C915 C914 1.385 . S
C916 C914 1.478 . S
C916 C918 1.381 . S
C916 C922 1.383 . S
C917 C913 1.495 . S
C917 H923 0.959 . S
C917 H924 0.961 . S
C917 H925 0.960 . S
C918 C916 1.381 . S
C918 C919 1.394 . S
C918 H926 0.930 . S
C919 C918 1.394 . S
C919 C920 1.383 . S
C919 H927 0.929 . S
C920 C919 1.383 . S
C920 C921 1.377 . S
C921 H905 0.930 . S
C921 C920 1.377 . S
C921 C922 1.379 . S
C922 H906 0.931 . S
C922 C916 1.383 . S
C922 C921 1.379 . S
H923 C917 0.959 . S
H924 C917 0.961 . S
H925 C917 0.960 . S
H926 C918 0.930 . S
H927 C919 0.929 . S
H928 C936 0.929 . S
H929 C938 0.930 . S
H930 C940 0.930 . S
H931 C943 0.929 . S
H932 C946 0.930 . S
H933 C948 0.960 . S
H934 C948 0.960 . S
H935 C948 0.960 . S
C936 H928 0.929 . S
C936 C937 1.377 . S
C936 C938 1.384 . S
C937 C936 1.377 . S
C937 C943 1.390 . S
C938 H929 0.930 . S
C938 C936 1.384 . S
C938 C939 1.372 . S
C939 C938 1.372 . S
C939 C940 1.400 . S
C939 C944 1.490 . S
C940 H930 0.930 . S
C940 C939 1.400 . S
C940 C943 1.386 . S
H941 C957 0.930 . S
H942 C958 0.931 . S
C943 H931 0.929 . S
C943 C937 1.390 . S
C943 C940 1.386 . S
C944 C939 1.490 . S
C944 C946 1.395 . S
C944 C947 1.403 . S
H945 C951 0.930 . S
C946 H932 0.930 . S
C946 C944 1.395 . S
C946 C949 1.403 . S
C947 C944 1.403 . S
C947 C948 1.524 . S
C947 C951 1.400 . S
C948 H933 0.960 . S
C948 H934 0.960 . S
C948 H935 0.960 . S
C948 C947 1.524 . S
C949 C946 1.403 . S
C949 C950 1.392 . S
C949 C953 1.495 . S
C950 C949 1.392 . S
C950 C951 1.385 . S
C950 C952 1.478 . S
C951 H945 0.930 . S
C951 C947 1.400 . S
C951 C950 1.385 . S
C952 C950 1.478 . S
C952 C954 1.381 . S
C952 C958 1.383 . S
C953 C949 1.495 . S
C953 H959 0.959 . S
C953 H960 0.961 . S
C953 H961 0.960 . S
C954 C952 1.381 . S
C954 C955 1.394 . S
C954 H962 0.930 . S
C955 C954 1.394 . S
C955 C956 1.383 . S
C955 H963 0.929 . S
C956 C955 1.383 . S
C956 C957 1.377 . S
C957 H941 0.930 . S
C957 C956 1.377 . S
C957 C958 1.379 . S
C958 H942 0.931 . S
C958 C952 1.383 . S
C958 C957 1.379 . S
H959 C953 0.959 . S
H960 C953 0.961 . S
H961 C953 0.960 . S
H962 C954 0.930 . S
H963 C955 0.929 . S
H964 C972 0.929 . S
H965 C974 0.930 . S
H966 C976 0.930 . S
H967 C979 0.929 . S
H968 C982 0.930 . S
H969 C984 0.960 . S
H970 C984 0.960 . S
H971 C984 0.960 . S
C972 H964 0.929 . S
C972 C973 1.377 . S
C972 C974 1.384 . S
C973 C972 1.377 . S
C973 C979 1.390 . S
C974 H965 0.930 . S
C974 C972 1.384 . S
C974 C975 1.372 . S
C975 C974 1.372 . S
C975 C976 1.400 . S
C975 C980 1.490 . S
C976 H966 0.930 . S
C976 C975 1.400 . S
C976 C979 1.386 . S
H977 C993 0.930 . S
H978 C994 0.931 . S
C979 H967 0.929 . S
C979 C973 1.390 . S
C979 C976 1.386 . S
C980 C975 1.490 . S
C980 C982 1.395 . S
C980 C983 1.403 . S
H981 C987 0.930 . S
C982 H968 0.930 . S
C982 C980 1.395 . S
C982 C985 1.403 . S
C983 C980 1.403 . S
C983 C984 1.524 . S
C983 C987 1.400 . S
C984 H969 0.960 . S
C984 H970 0.960 . S
C984 H971 0.960 . S
C984 C983 1.524 . S
C985 C982 1.403 . S
C985 C986 1.392 . S
C985 C989 1.495 . S
C986 C985 1.392 . S
C986 C987 1.385 . S
C986 C988 1.478 . S
C987 H981 0.930 . S
C987 C983 1.400 . S
C987 C986 1.385 . S
C988 C986 1.478 . S
C988 C990 1.381 . S
C988 C994 1.383 . S
C989 C985 1.495 . S
C989 H995 0.959 . S
C989 H996 0.961 . S
C989 H997 0.960 . S
C990 C988 1.381 . S
C990 C991 1.394 . S
C990 H998 0.930 . S
C991 C990 1.394 . S
C991 C992 1.383 . S
C991 H999 0.929 . S
C992 C991 1.383 . S
C992 C993 1.377 . S
C993 H977 0.930 . S
C993 C992 1.377 . S
C993 C994 1.379 . S
C994 H978 0.931 . S
C994 C988 1.383 . S
C994 C993 1.379 . S
H995 C989 0.959 . S
H996 C989 0.961 . S
H997 C989 0.960 . S
H998 C990 0.930 . S
H999 C991 0.929 . S
H1000 C1008 0.929 . S
H1001 C1010 0.930 . S
H1002 C1012 0.930 . S
H1003 C1015 0.929 . S
H1004 C1018 0.930 . S
H1005 C1020 0.960 . S
H1006 C1020 0.960 . S
H1007 C1020 0.960 . S
C1008 H1000 0.929 . S
C1008 C1009 1.377 . S
C1008 C1010 1.384 . S
C1009 C1008 1.377 . S
C1009 C1015 1.390 . S
C1010 H1001 0.930 . S
C1010 C1008 1.384 . S
C1010 C1011 1.372 . S
C1011 C1010 1.372 . S
C1011 C1012 1.400 . S
C1011 C1016 1.490 . S
C1012 H1002 0.930 . S
C1012 C1011 1.400 . S
C1012 C1015 1.386 . S
H1013 C1029 0.930 . S
H1014 C1030 0.931 . S
C1015 H1003 0.929 . S
C1015 C1009 1.390 . S
C1015 C1012 1.386 . S
C1016 C1011 1.490 . S
C1016 C1018 1.395 . S
C1016 C1019 1.403 . S
H1017 C1023 0.930 . S
C1018 H1004 0.930 . S
C1018 C1016 1.395 . S
C1018 C1021 1.403 . S
C1019 C1016 1.403 . S
C1019 C1020 1.524 . S
C1019 C1023 1.400 . S
C1020 H1005 0.960 . S
C1020 H1006 0.960 . S
C1020 H1007 0.960 . S
C1020 C1019 1.524 . S
C1021 C1018 1.403 . S
C1021 C1022 1.392 . S
C1021 C1025 1.495 . S
C1022 C1021 1.392 . S
C1022 C1023 1.385 . S
C1022 C1024 1.478 . S
C1023 H1017 0.930 . S
C1023 C1019 1.400 . S
C1023 C1022 1.385 . S
C1024 C1022 1.478 . S
C1024 C1026 1.381 . S
C1024 C1030 1.383 . S
C1025 C1021 1.495 . S
C1025 H1031 0.959 . S
C1025 H1032 0.961 . S
C1025 H1033 0.960 . S
C1026 C1024 1.381 . S
C1026 C1027 1.394 . S
C1026 H1034 0.930 . S
C1027 C1026 1.394 . S
C1027 C1028 1.383 . S
C1027 H1035 0.929 . S
C1028 C1027 1.383 . S
C1028 C1029 1.377 . S
C1029 H1013 0.930 . S
C1029 C1028 1.377 . S
C1029 C1030 1.379 . S
C1030 H1014 0.931 . S
C1030 C1024 1.383 . S
C1030 C1029 1.379 . S
H1031 C1025 0.959 . S
H1032 C1025 0.961 . S
H1033 C1025 0.960 . S
H1034 C1026 0.930 . S
H1035 C1027 0.929 . S
H1036 C1044 0.929 . S
H1037 C1046 0.930 . S
H1038 C1048 0.930 . S
H1039 C1051 0.929 . S
H1040 C1054 0.930 . S
H1041 C1056 0.960 . S
H1042 C1056 0.960 . S
H1043 C1056 0.960 . S
C1044 H1036 0.929 . S
C1044 C1045 1.377 . S
C1044 C1046 1.384 . S
C1045 C1044 1.377 . S
C1045 C1051 1.390 . S
C1046 H1037 0.930 . S
C1046 C1044 1.384 . S
C1046 C1047 1.372 . S
C1047 C1046 1.372 . S
C1047 C1048 1.400 . S
C1047 C1052 1.490 . S
C1048 H1038 0.930 . S
C1048 C1047 1.400 . S
C1048 C1051 1.386 . S
H1049 C1065 0.930 . S
H1050 C1066 0.931 . S
C1051 H1039 0.929 . S
C1051 C1045 1.390 . S
C1051 C1048 1.386 . S
C1052 C1047 1.490 . S
C1052 C1054 1.395 . S
C1052 C1055 1.403 . S
H1053 C1059 0.930 . S
C1054 H1040 0.930 . S
C1054 C1052 1.395 . S
C1054 C1057 1.403 . S
C1055 C1052 1.403 . S
C1055 C1056 1.524 . S
C1055 C1059 1.400 . S
C1056 H1041 0.960 . S
C1056 H1042 0.960 . S
C1056 H1043 0.960 . S
C1056 C1055 1.524 . S
C1057 C1054 1.403 . S
C1057 C1058 1.392 . S
C1057 C1061 1.495 . S
C1058 C1057 1.392 . S
C1058 C1059 1.385 . S
C1058 C1060 1.478 . S
C1059 H1053 0.930 . S
C1059 C1055 1.400 . S
C1059 C1058 1.385 . S
C1060 C1058 1.478 . S
C1060 C1062 1.381 . S
C1060 C1066 1.383 . S
C1061 C1057 1.495 . S
C1061 H1067 0.959 . S
C1061 H1068 0.961 . S
C1061 H1069 0.960 . S
C1062 C1060 1.381 . S
C1062 C1063 1.394 . S
C1062 H1070 0.930 . S
C1063 C1062 1.394 . S
C1063 C1064 1.383 . S
C1063 H1071 0.929 . S
C1064 C1063 1.383 . S
C1064 C1065 1.377 . S
C1065 H1049 0.930 . S
C1065 C1064 1.377 . S
C1065 C1066 1.379 . S
C1066 H1050 0.931 . S
C1066 C1060 1.383 . S
C1066 C1065 1.379 . S
H1067 C1061 0.959 . S
H1068 C1061 0.961 . S
H1069 C1061 0.960 . S
H1070 C1062 0.930 . S
H1071 C1063 0.929 . S
H1072 C1080 0.929 . S
H1073 C1082 0.930 . S
H1074 C1084 0.930 . S
H1075 C1087 0.929 . S
H1076 C1090 0.930 . S
H1077 C1092 0.960 . S
H1078 C1092 0.960 . S
H1079 C1092 0.960 . S
C1080 H1072 0.929 . S
C1080 C1081 1.377 . S
C1080 C1082 1.384 . S
C1081 C1080 1.377 . S
C1081 C1087 1.390 . S
C1082 H1073 0.930 . S
C1082 C1080 1.384 . S
C1082 C1083 1.372 . S
C1083 C1082 1.372 . S
C1083 C1084 1.400 . S
C1083 C1088 1.490 . S
C1084 H1074 0.930 . S
C1084 C1083 1.400 . S
C1084 C1087 1.386 . S
H1085 C1101 0.930 . S
H1086 C1102 0.931 . S
C1087 H1075 0.929 . S
C1087 C1081 1.390 . S
C1087 C1084 1.386 . S
C1088 C1083 1.490 . S
C1088 C1090 1.395 . S
C1088 C1091 1.403 . S
H1089 C1095 0.930 . S
C1090 H1076 0.930 . S
C1090 C1088 1.395 . S
C1090 C1093 1.403 . S
C1091 C1088 1.403 . S
C1091 C1092 1.524 . S
C1091 C1095 1.400 . S
C1092 H1077 0.960 . S
C1092 H1078 0.960 . S
C1092 H1079 0.960 . S
C1092 C1091 1.524 . S
C1093 C1090 1.403 . S
C1093 C1094 1.392 . S
C1093 C1097 1.495 . S
C1094 C1093 1.392 . S
C1094 C1095 1.385 . S
C1094 C1096 1.478 . S
C1095 H1089 0.930 . S
C1095 C1091 1.400 . S
C1095 C1094 1.385 . S
C1096 C1094 1.478 . S
C1096 C1098 1.381 . S
C1096 C1102 1.383 . S
C1097 C1093 1.495 . S
C1097 H1103 0.959 . S
C1097 H1104 0.961 . S
C1097 H1105 0.960 . S
C1098 C1096 1.381 . S
C1098 C1099 1.394 . S
C1098 H1106 0.930 . S
C1099 C1098 1.394 . S
C1099 C1100 1.383 . S
C1099 H1107 0.929 . S
C1100 C1099 1.383 . S
C1100 C1101 1.377 . S
C1101 H1085 0.930 . S
C1101 C1100 1.377 . S
C1101 C1102 1.379 . S
C1102 H1086 0.931 . S
C1102 C1096 1.383 . S
C1102 C1101 1.379 . S
H1103 C1097 0.959 . S
H1104 C1097 0.961 . S
H1105 C1097 0.960 . S
H1106 C1098 0.930 . S
H1107 C1099 0.929 . S
H1108 C1116 0.929 . S
H1109 C1118 0.930 . S
H1110 C1120 0.930 . S
H1111 C1123 0.929 . S
H1112 C1126 0.930 . S
H1113 C1128 0.960 . S
H1114 C1128 0.960 . S
H1115 C1128 0.960 . S
C1116 H1108 0.929 . S
C1116 C1117 1.377 . S
C1116 C1118 1.384 . S
C1117 C1116 1.377 . S
C1117 C1123 1.390 . S
C1118 H1109 0.930 . S
C1118 C1116 1.384 . S
C1118 C1119 1.372 . S
C1119 C1118 1.372 . S
C1119 C1120 1.400 . S
C1119 C1124 1.490 . S
C1120 H1110 0.930 . S
C1120 C1119 1.400 . S
C1120 C1123 1.386 . S
H1121 C1137 0.930 . S
H1122 C1138 0.931 . S
C1123 H1111 0.929 . S
C1123 C1117 1.390 . S
C1123 C1120 1.386 . S
C1124 C1119 1.490 . S
C1124 C1126 1.395 . S
C1124 C1127 1.403 . S
H1125 C1131 0.930 . S
C1126 H1112 0.930 . S
C1126 C1124 1.395 . S
C1126 C1129 1.403 . S
C1127 C1124 1.403 . S
C1127 C1128 1.524 . S
C1127 C1131 1.400 . S
C1128 H1113 0.960 . S
C1128 H1114 0.960 . S
C1128 H1115 0.960 . S
C1128 C1127 1.524 . S
C1129 C1126 1.403 . S
C1129 C1130 1.392 . S
C1129 C1133 1.495 . S
C1130 C1129 1.392 . S
C1130 C1131 1.385 . S
C1130 C1132 1.478 . S
C1131 H1125 0.930 . S
C1131 C1127 1.400 . S
C1131 C1130 1.385 . S
C1132 C1130 1.478 . S
C1132 C1134 1.381 . S
C1132 C1138 1.383 . S
C1133 C1129 1.495 . S
C1133 H1139 0.959 . S
C1133 H1140 0.961 . S
C1133 H1141 0.960 . S
C1134 C1132 1.381 . S
C1134 C1135 1.394 . S
C1134 H1142 0.930 . S
C1135 C1134 1.394 . S
C1135 C1136 1.383 . S
C1135 H1143 0.929 . S
C1136 C1135 1.383 . S
C1136 C1137 1.377 . S
C1137 H1121 0.930 . S
C1137 C1136 1.377 . S
C1137 C1138 1.379 . S
C1138 H1122 0.931 . S
C1138 C1132 1.383 . S
C1138 C1137 1.379 . S
H1139 C1133 0.959 . S
H1140 C1133 0.961 . S
H1141 C1133 0.960 . S
H1142 C1134 0.930 . S
H1143 C1135 0.929 . S
H1144 C1152 0.929 . S
H1145 C1154 0.930 . S
H1146 C1156 0.930 . S
H1147 C1159 0.929 . S
H1148 C1162 0.930 . S
H1149 C1164 0.960 . S
H1150 C1164 0.960 . S
H1151 C1164 0.960 . S
C1152 H1144 0.929 . S
C1152 C1153 1.377 . S
C1152 C1154 1.384 . S
C1153 C1152 1.377 . S
C1153 C1159 1.390 . S
C1154 H1145 0.930 . S
C1154 C1152 1.384 . S
C1154 C1155 1.372 . S
C1155 C1154 1.372 . S
C1155 C1156 1.400 . S
C1155 C1160 1.490 . S
C1156 H1146 0.930 . S
C1156 C1155 1.400 . S
C1156 C1159 1.386 . S
H1157 C1173 0.930 . S
H1158 C1174 0.931 . S
C1159 H1147 0.929 . S
C1159 C1153 1.390 . S
C1159 C1156 1.386 . S
C1160 C1155 1.490 . S
C1160 C1162 1.395 . S
C1160 C1163 1.403 . S
H1161 C1167 0.930 . S
C1162 H1148 0.930 . S
C1162 C1160 1.395 . S
C1162 C1165 1.403 . S
C1163 C1160 1.403 . S
C1163 C1164 1.524 . S
C1163 C1167 1.400 . S
C1164 H1149 0.960 . S
C1164 H1150 0.960 . S
C1164 H1151 0.960 . S
C1164 C1163 1.524 . S
C1165 C1162 1.403 . S
C1165 C1166 1.392 . S
C1165 C1169 1.495 . S
C1166 C1165 1.392 . S
C1166 C1167 1.385 . S
C1166 C1168 1.478 . S
C1167 H1161 0.930 . S
C1167 C1163 1.400 . S
C1167 C1166 1.385 . S
C1168 C1166 1.478 . S
C1168 C1170 1.381 . S
C1168 C1174 1.383 . S
C1169 C1165 1.495 . S
C1169 H1175 0.959 . S
C1169 H1176 0.961 . S
C1169 H1177 0.960 . S
C1170 C1168 1.381 . S
C1170 C1171 1.394 . S
C1170 H1178 0.930 . S
C1171 C1170 1.394 . S
C1171 C1172 1.383 . S
C1171 H1179 0.929 . S
C1172 C1171 1.383 . S
C1172 C1173 1.377 . S
C1173 H1157 0.930 . S
C1173 C1172 1.377 . S
C1173 C1174 1.379 . S
C1174 H1158 0.931 . S
C1174 C1168 1.383 . S
C1174 C1173 1.379 . S
H1175 C1169 0.959 . S
H1176 C1169 0.961 . S
H1177 C1169 0.960 . S
H1178 C1170 0.930 . S
H1179 C1171 0.929 . S
H1180 C1188 0.929 . S
H1181 C1190 0.930 . S
H1182 C1192 0.930 . S
H1183 C1195 0.929 . S
H1184 C1198 0.930 . S
H1185 C1200 0.960 . S
H1186 C1200 0.960 . S
H1187 C1200 0.960 . S
C1188 H1180 0.929 . S
C1188 C1189 1.377 . S
C1188 C1190 1.384 . S
C1189 C1188 1.377 . S
C1189 C1195 1.390 . S
C1190 H1181 0.930 . S
C1190 C1188 1.384 . S
C1190 C1191 1.372 . S
C1191 C1190 1.372 . S
C1191 C1192 1.400 . S
C1191 C1196 1.490 . S
C1192 H1182 0.930 . S
C1192 C1191 1.400 . S
C1192 C1195 1.386 . S
H1193 C1209 0.930 . S
H1194 C1210 0.931 . S
C1195 H1183 0.929 . S
C1195 C1189 1.390 . S
C1195 C1192 1.386 . S
C1196 C1191 1.490 . S
C1196 C1198 1.395 . S
C1196 C1199 1.403 . S
H1197 C1203 0.930 . S
C1198 H1184 0.930 . S
C1198 C1196 1.395 . S
C1198 C1201 1.403 . S
C1199 C1196 1.403 . S
C1199 C1200 1.524 . S
C1199 C1203 1.400 . S
C1200 H1185 0.960 . S
C1200 H1186 0.960 . S
C1200 H1187 0.960 . S
C1200 C1199 1.524 . S
C1201 C1198 1.403 . S
C1201 C1202 1.392 . S
C1201 C1205 1.495 . S
C1202 C1201 1.392 . S
C1202 C1203 1.385 . S
C1202 C1204 1.478 . S
C1203 H1197 0.930 . S
C1203 C1199 1.400 . S
C1203 C1202 1.385 . S
C1204 C1202 1.478 . S
C1204 C1206 1.381 . S
C1204 C1210 1.383 . S
C1205 C1201 1.495 . S
C1205 H1211 0.959 . S
C1205 H1212 0.961 . S
C1205 H1213 0.960 . S
C1206 C1204 1.381 . S
C1206 C1207 1.394 . S
C1206 H1214 0.930 . S
C1207 C1206 1.394 . S
C1207 C1208 1.383 . S
C1207 H1215 0.929 . S
C1208 C1207 1.383 . S
C1208 C1209 1.377 . S
C1209 H1193 0.930 . S
C1209 C1208 1.377 . S
C1209 C1210 1.379 . S
C1210 H1194 0.931 . S
C1210 C1204 1.383 . S
C1210 C1209 1.379 . S
H1211 C1205 0.959 . S
H1212 C1205 0.961 . S
H1213 C1205 0.960 . S
H1214 C1206 0.930 . S
H1215 C1207 0.929 . S
H1216 C1224 0.929 . S
H1217 C1226 0.930 . S
H1218 C1228 0.930 . S
H1219 C1231 0.929 . S
H1220 C1234 0.930 . S
H1221 C1236 0.960 . S
H1222 C1236 0.960 . S
H1223 C1236 0.960 . S
C1224 H1216 0.929 . S
C1224 C1225 1.377 . S
C1224 C1226 1.384 . S
C1225 C1224 1.377 . S
C1225 C1231 1.390 . S
C1226 H1217 0.930 . S
C1226 C1224 1.384 . S
C1226 C1227 1.372 . S
C1227 C1226 1.372 . S
C1227 C1228 1.400 . S
C1227 C1232 1.490 . S
C1228 H1218 0.930 . S
C1228 C1227 1.400 . S
C1228 C1231 1.386 . S
H1229 C1245 0.930 . S
H1230 C1246 0.931 . S
C1231 H1219 0.929 . S
C1231 C1225 1.390 . S
C1231 C1228 1.386 . S
C1232 C1227 1.490 . S
C1232 C1234 1.395 . S
C1232 C1235 1.403 . S
H1233 C1239 0.930 . S
C1234 H1220 0.930 . S
C1234 C1232 1.395 . S
C1234 C1237 1.403 . S
C1235 C1232 1.403 . S
C1235 C1236 1.524 . S
C1235 C1239 1.400 . S
C1236 H1221 0.960 . S
C1236 H1222 0.960 . S
C1236 H1223 0.960 . S
C1236 C1235 1.524 . S
C1237 C1234 1.403 . S
C1237 C1238 1.392 . S
C1237 C1241 1.495 . S
C1238 C1237 1.392 . S
C1238 C1239 1.385 . S
C1238 C1240 1.478 . S
C1239 H1233 0.930 . S
C1239 C1235 1.400 . S
C1239 C1238 1.385 . S
C1240 C1238 1.478 . S
C1240 C1242 1.381 . S
C1240 C1246 1.383 . S
C1241 C1237 1.495 . S
C1241 H1247 0.959 . S
C1241 H1248 0.961 . S
C1241 H1249 0.960 . S
C1242 C1240 1.381 . S
C1242 C1243 1.394 . S
C1242 H1250 0.930 . S
C1243 C1242 1.394 . S
C1243 C1244 1.383 . S
C1243 H1251 0.929 . S
C1244 C1243 1.383 . S
C1244 C1245 1.377 . S
C1245 H1229 0.930 . S
C1245 C1244 1.377 . S
C1245 C1246 1.379 . S
C1246 H1230 0.931 . S
C1246 C1240 1.383 . S
C1246 C1245 1.379 . S
H1247 C1241 0.959 . S
H1248 C1241 0.961 . S
H1249 C1241 0.960 . S
H1250 C1242 0.930 . S
H1251 C1243 0.929 . S
H1252 C1260 0.929 . S
H1253 C1262 0.930 . S
H1254 C1264 0.930 . S
H1255 C1267 0.929 . S
H1256 C1270 0.930 . S
H1257 C1272 0.960 . S
H1258 C1272 0.960 . S
H1259 C1272 0.960 . S
C1260 H1252 0.929 . S
C1260 C1261 1.377 . S
C1260 C1262 1.384 . S
C1261 C1260 1.377 . S
C1261 C1267 1.390 . S
C1262 H1253 0.930 . S
C1262 C1260 1.384 . S
C1262 C1263 1.372 . S
C1263 C1262 1.372 . S
C1263 C1264 1.400 . S
C1263 C1268 1.490 . S
C1264 H1254 0.930 . S
C1264 C1263 1.400 . S
C1264 C1267 1.386 . S
H1265 C1281 0.930 . S
H1266 C1282 0.931 . S
C1267 H1255 0.929 . S
C1267 C1261 1.390 . S
C1267 C1264 1.386 . S
C1268 C1263 1.490 . S
C1268 C1270 1.395 . S
C1268 C1271 1.403 . S
H1269 C1275 0.930 . S
C1270 H1256 0.930 . S
C1270 C1268 1.395 . S
C1270 C1273 1.403 . S
C1271 C1268 1.403 . S
C1271 C1272 1.524 . S
C1271 C1275 1.400 . S
C1272 H1257 0.960 . S
C1272 H1258 0.960 . S
C1272 H1259 0.960 . S
C1272 C1271 1.524 . S
C1273 C1270 1.403 . S
C1273 C1274 1.392 . S
C1273 C1277 1.495 . S
C1274 C1273 1.392 . S
C1274 C1275 1.385 . S
C1274 C1276 1.478 . S
C1275 H1269 0.930 . S
C1275 C1271 1.400 . S
C1275 C1274 1.385 . S
C1276 C1274 1.478 . S
C1276 C1278 1.381 . S
C1276 C1282 1.383 . S
C1277 C1273 1.495 . S
C1277 H1283 0.959 . S
C1277 H1284 0.961 . S
C1277 H1285 0.960 . S
C1278 C1276 1.381 . S
C1278 C1279 1.394 . S
C1278 H1286 0.930 . S
C1279 C1278 1.394 . S
C1279 C1280 1.383 . S
C1279 H1287 0.929 . S
C1280 C1279 1.383 . S
C1280 C1281 1.377 . S
C1281 H1265 0.930 . S
C1281 C1280 1.377 . S
C1281 C1282 1.379 . S
C1282 H1266 0.931 . S
C1282 C1276 1.383 . S
C1282 C1281 1.379 . S
H1283 C1277 0.959 . S
H1284 C1277 0.961 . S
H1285 C1277 0.960 . S
H1286 C1278 0.930 . S
H1287 C1279 0.929 . S
H1288 C1296 0.929 . S
H1289 C1298 0.930 . S
H1290 C1300 0.930 . S
H1291 C1303 0.929 . S
H1292 C1306 0.930 . S
H1293 C1308 0.960 . S
H1294 C1308 0.960 . S
H1295 C1308 0.960 . S
C1296 H1288 0.929 . S
C1296 C1297 1.377 . S
C1296 C1298 1.384 . S
C1297 C1296 1.377 . S
C1297 C1303 1.390 . S
C1298 H1289 0.930 . S
C1298 C1296 1.384 . S
C1298 C1299 1.372 . S
C1299 C1298 1.372 . S
C1299 C1300 1.400 . S
C1299 C1304 1.490 . S
C1300 H1290 0.930 . S
C1300 C1299 1.400 . S
C1300 C1303 1.386 . S
H1301 C1317 0.930 . S
H1302 C1318 0.931 . S
C1303 H1291 0.929 . S
C1303 C1297 1.390 . S
C1303 C1300 1.386 . S
C1304 C1299 1.490 . S
C1304 C1306 1.395 . S
C1304 C1307 1.403 . S
H1305 C1311 0.930 . S
C1306 H1292 0.930 . S
C1306 C1304 1.395 . S
C1306 C1309 1.403 . S
C1307 C1304 1.403 . S
C1307 C1308 1.524 . S
C1307 C1311 1.400 . S
C1308 H1293 0.960 . S
C1308 H1294 0.960 . S
C1308 H1295 0.960 . S
C1308 C1307 1.524 . S
C1309 C1306 1.403 . S
C1309 C1310 1.392 . S
C1309 C1313 1.495 . S
C1310 C1309 1.392 . S
C1310 C1311 1.385 . S
C1310 C1312 1.478 . S
C1311 H1305 0.930 . S
C1311 C1307 1.400 . S
C1311 C1310 1.385 . S
C1312 C1310 1.478 . S
C1312 C1314 1.381 . S
C1312 C1318 1.383 . S
C1313 C1309 1.495 . S
C1313 H1319 0.959 . S
C1313 H1320 0.961 . S
C1313 H1321 0.960 . S
C1314 C1312 1.381 . S
C1314 C1315 1.394 . S
C1314 H1322 0.930 . S
C1315 C1314 1.394 . S
C1315 C1316 1.383 . S
C1315 H1323 0.929 . S
C1316 C1315 1.383 . S
C1316 C1317 1.377 . S
C1317 H1301 0.930 . S
C1317 C1316 1.377 . S
C1317 C1318 1.379 . S
C1318 H1302 0.931 . S
C1318 C1312 1.383 . S
C1318 C1317 1.379 . S
H1319 C1313 0.959 . S
H1320 C1313 0.961 . S
H1321 C1313 0.960 . S
H1322 C1314 0.930 . S
H1323 C1315 0.929 . S
H1324 C1332 0.929 . S
H1325 C1334 0.930 . S
H1326 C1336 0.930 . S
H1327 C1339 0.929 . S
H1328 C1342 0.930 . S
H1329 C1344 0.960 . S
H1330 C1344 0.960 . S
H1331 C1344 0.960 . S
C1332 H1324 0.929 . S
C1332 C1333 1.377 . S
C1332 C1334 1.384 . S
C1333 C1332 1.377 . S
C1333 C1339 1.390 . S
C1334 H1325 0.930 . S
C1334 C1332 1.384 . S
C1334 C1335 1.372 . S
C1335 C1334 1.372 . S
C1335 C1336 1.400 . S
C1335 C1340 1.490 . S
C1336 H1326 0.930 . S
C1336 C1335 1.400 . S
C1336 C1339 1.386 . S
H1337 C1353 0.930 . S
H1338 C1354 0.931 . S
C1339 H1327 0.929 . S
C1339 C1333 1.390 . S
C1339 C1336 1.386 . S
C1340 C1335 1.490 . S
C1340 C1342 1.395 . S
C1340 C1343 1.403 . S
H1341 C1347 0.930 . S
C1342 H1328 0.930 . S
C1342 C1340 1.395 . S
C1342 C1345 1.403 . S
C1343 C1340 1.403 . S
C1343 C1344 1.524 . S
C1343 C1347 1.400 . S
C1344 H1329 0.960 . S
C1344 H1330 0.960 . S
C1344 H1331 0.960 . S
C1344 C1343 1.524 . S
C1345 C1342 1.403 . S
C1345 C1346 1.392 . S
C1345 C1349 1.495 . S
C1346 C1345 1.392 . S
C1346 C1347 1.385 . S
C1346 C1348 1.478 . S
C1347 H1341 0.930 . S
C1347 C1343 1.400 . S
C1347 C1346 1.385 . S
C1348 C1346 1.478 . S
C1348 C1350 1.381 . S
C1348 C1354 1.383 . S
C1349 C1345 1.495 . S
C1349 H1355 0.959 . S
C1349 H1356 0.961 . S
C1349 H1357 0.960 . S
C1350 C1348 1.381 . S
C1350 C1351 1.394 . S
C1350 H1358 0.930 . S
C1351 C1350 1.394 . S
C1351 C1352 1.383 . S
C1351 H1359 0.929 . S
C1352 C1351 1.383 . S
C1352 C1353 1.377 . S
C1353 H1337 0.930 . S
C1353 C1352 1.377 . S
C1353 C1354 1.379 . S
C1354 H1338 0.931 . S
C1354 C1348 1.383 . S
C1354 C1353 1.379 . S
H1355 C1349 0.959 . S
H1356 C1349 0.961 . S
H1357 C1349 0.960 . S
H1358 C1350 0.930 . S
H1359 C1351 0.929 . S
H1360 C1368 0.929 . S
H1361 C1370 0.930 . S
H1362 C1372 0.930 . S
H1363 C1375 0.929 . S
H1364 C1378 0.930 . S
H1365 C1380 0.960 . S
H1366 C1380 0.960 . S
H1367 C1380 0.960 . S
C1368 H1360 0.929 . S
C1368 C1369 1.377 . S
C1368 C1370 1.384 . S
C1369 C1368 1.377 . S
C1369 C1375 1.390 . S
C1370 H1361 0.930 . S
C1370 C1368 1.384 . S
C1370 C1371 1.372 . S
C1371 C1370 1.372 . S
C1371 C1372 1.400 . S
C1371 C1376 1.490 . S
C1372 H1362 0.930 . S
C1372 C1371 1.400 . S
C1372 C1375 1.386 . S
H1373 C1389 0.930 . S
H1374 C1390 0.931 . S
C1375 H1363 0.929 . S
C1375 C1369 1.390 . S
C1375 C1372 1.386 . S
C1376 C1371 1.490 . S
C1376 C1378 1.395 . S
C1376 C1379 1.403 . S
H1377 C1383 0.930 . S
C1378 H1364 0.930 . S
C1378 C1376 1.395 . S
C1378 C1381 1.403 . S
C1379 C1376 1.403 . S
C1379 C1380 1.524 . S
C1379 C1383 1.400 . S
C1380 H1365 0.960 . S
C1380 H1366 0.960 . S
C1380 H1367 0.960 . S
C1380 C1379 1.524 . S
C1381 C1378 1.403 . S
C1381 C1382 1.392 . S
C1381 C1385 1.495 . S
C1382 C1381 1.392 . S
C1382 C1383 1.385 . S
C1382 C1384 1.478 . S
C1383 H1377 0.930 . S
C1383 C1379 1.400 . S
C1383 C1382 1.385 . S
C1384 C1382 1.478 . S
C1384 C1386 1.381 . S
C1384 C1390 1.383 . S
C1385 C1381 1.495 . S
C1385 H1391 0.959 . S
C1385 H1392 0.961 . S
C1385 H1393 0.960 . S
C1386 C1384 1.381 . S
C1386 C1387 1.394 . S
C1386 H1394 0.930 . S
C1387 C1386 1.394 . S
C1387 C1388 1.383 . S
C1387 H1395 0.929 . S
C1388 C1387 1.383 . S
C1388 C1389 1.377 . S
C1389 H1373 0.930 . S
C1389 C1388 1.377 . S
C1389 C1390 1.379 . S
C1390 H1374 0.931 . S
C1390 C1384 1.383 . S
C1390 C1389 1.379 . S
H1391 C1385 0.959 . S
H1392 C1385 0.961 . S
H1393 C1385 0.960 . S
H1394 C1386 0.930 . S
H1395 C1387 0.929 . S
H1396 C1404 0.929 . S
H1397 C1406 0.930 . S
H1398 C1408 0.930 . S
H1399 C1411 0.929 . S
H1400 C1414 0.930 . S
H1401 C1416 0.960 . S
H1402 C1416 0.960 . S
H1403 C1416 0.960 . S
C1404 H1396 0.929 . S
C1404 C1405 1.377 . S
C1404 C1406 1.384 . S
C1405 C1404 1.377 . S
C1405 C1411 1.390 . S
C1406 H1397 0.930 . S
C1406 C1404 1.384 . S
C1406 C1407 1.372 . S
C1407 C1406 1.372 . S
C1407 C1408 1.400 . S
C1407 C1412 1.490 . S
C1408 H1398 0.930 . S
C1408 C1407 1.400 . S
C1408 C1411 1.386 . S
H1409 C1425 0.930 . S
H1410 C1426 0.931 . S
C1411 H1399 0.929 . S
C1411 C1405 1.390 . S
C1411 C1408 1.386 . S
C1412 C1407 1.490 . S
C1412 C1414 1.395 . S
C1412 C1415 1.403 . S
H1413 C1419 0.930 . S
C1414 H1400 0.930 . S
C1414 C1412 1.395 . S
C1414 C1417 1.403 . S
C1415 C1412 1.403 . S
C1415 C1416 1.524 . S
C1415 C1419 1.400 . S
C1416 H1401 0.960 . S
C1416 H1402 0.960 . S
C1416 H1403 0.960 . S
C1416 C1415 1.524 . S
C1417 C1414 1.403 . S
C1417 C1418 1.392 . S
C1417 C1421 1.495 . S
C1418 C1417 1.392 . S
C1418 C1419 1.385 . S
C1418 C1420 1.478 . S
C1419 H1413 0.930 . S
C1419 C1415 1.400 . S
C1419 C1418 1.385 . S
C1420 C1418 1.478 . S
C1420 C1422 1.381 . S
C1420 C1426 1.383 . S
C1421 C1417 1.495 . S
C1421 H1427 0.959 . S
C1421 H1428 0.961 . S
C1421 H1429 0.960 . S
C1422 C1420 1.381 . S
C1422 C1423 1.394 . S
C1422 H1430 0.930 . S
C1423 C1422 1.394 . S
C1423 C1424 1.383 . S
C1423 H1431 0.929 . S
C1424 C1423 1.383 . S
C1424 C1425 1.377 . S
C1425 H1409 0.930 . S
C1425 C1424 1.377 . S
C1425 C1426 1.379 . S
C1426 H1410 0.931 . S
C1426 C1420 1.383 . S
C1426 C1425 1.379 . S
H1427 C1421 0.959 . S
H1428 C1421 0.961 . S
H1429 C1421 0.960 . S
H1430 C1422 0.930 . S
H1431 C1423 0.929 . S
H1432 C1440 0.929 . S
H1433 C1442 0.930 . S
H1434 C1444 0.930 . S
H1435 C1447 0.929 . S
H1436 C1450 0.930 . S
H1437 C1452 0.960 . S
H1438 C1452 0.960 . S
H1439 C1452 0.960 . S
C1440 H1432 0.929 . S
C1440 C1441 1.377 . S
C1440 C1442 1.384 . S
C1441 C1440 1.377 . S
C1441 C1447 1.390 . S
C1442 H1433 0.930 . S
C1442 C1440 1.384 . S
C1442 C1443 1.372 . S
C1443 C1442 1.372 . S
C1443 C1444 1.400 . S
C1443 C1448 1.490 . S
C1444 H1434 0.930 . S
C1444 C1443 1.400 . S
C1444 C1447 1.386 . S
H1445 C1461 0.930 . S
H1446 C1462 0.931 . S
C1447 H1435 0.929 . S
C1447 C1441 1.390 . S
C1447 C1444 1.386 . S
C1448 C1443 1.490 . S
C1448 C1450 1.395 . S
C1448 C1451 1.403 . S
H1449 C1455 0.930 . S
C1450 H1436 0.930 . S
C1450 C1448 1.395 . S
C1450 C1453 1.403 . S
C1451 C1448 1.403 . S
C1451 C1452 1.524 . S
C1451 C1455 1.400 . S
C1452 H1437 0.960 . S
C1452 H1438 0.960 . S
C1452 H1439 0.960 . S
C1452 C1451 1.524 . S
C1453 C1450 1.403 . S
C1453 C1454 1.392 . S
C1453 C1457 1.495 . S
C1454 C1453 1.392 . S
C1454 C1455 1.385 . S
C1454 C1456 1.478 . S
C1455 H1449 0.930 . S
C1455 C1451 1.400 . S
C1455 C1454 1.385 . S
C1456 C1454 1.478 . S
C1456 C1458 1.381 . S
C1456 C1462 1.383 . S
C1457 C1453 1.495 . S
C1457 H1463 0.959 . S
C1457 H1464 0.961 . S
C1457 H1465 0.960 . S
C1458 C1456 1.381 . S
C1458 C1459 1.394 . S
C1458 H1466 0.930 . S
C1459 C1458 1.394 . S
C1459 C1460 1.383 . S
C1459 H1467 0.929 . S
C1460 C1459 1.383 . S
C1460 C1461 1.377 . S
C1461 H1445 0.930 . S
C1461 C1460 1.377 . S
C1461 C1462 1.379 . S
C1462 H1446 0.931 . S
C1462 C1456 1.383 . S
C1462 C1461 1.379 . S
H1463 C1457 0.959 . S
H1464 C1457 0.961 . S
H1465 C1457 0.960 . S
H1466 C1458 0.930 . S
H1467 C1459 0.929 . S
H1468 C1476 0.929 . S
H1469 C1478 0.930 . S
H1470 C1480 0.930 . S
H1471 C1483 0.929 . S
H1472 C1486 0.930 . S
H1473 C1488 0.960 . S
H1474 C1488 0.960 . S
H1475 C1488 0.960 . S
C1476 H1468 0.929 . S
C1476 C1477 1.377 . S
C1476 C1478 1.384 . S
C1477 C1476 1.377 . S
C1477 C1483 1.390 . S
C1478 H1469 0.930 . S
C1478 C1476 1.384 . S
C1478 C1479 1.372 . S
C1479 C1478 1.372 . S
C1479 C1480 1.400 . S
C1479 C1484 1.490 . S
C1480 H1470 0.930 . S
C1480 C1479 1.400 . S
C1480 C1483 1.386 . S
H1481 C1497 0.930 . S
H1482 C1498 0.931 . S
C1483 H1471 0.929 . S
C1483 C1477 1.390 . S
C1483 C1480 1.386 . S
C1484 C1479 1.490 . S
C1484 C1486 1.395 . S
C1484 C1487 1.403 . S
H1485 C1491 0.930 . S
C1486 H1472 0.930 . S
C1486 C1484 1.395 . S
C1486 C1489 1.403 . S
C1487 C1484 1.403 . S
C1487 C1488 1.524 . S
C1487 C1491 1.400 . S
C1488 H1473 0.960 . S
C1488 H1474 0.960 . S
C1488 H1475 0.960 . S
C1488 C1487 1.524 . S
C1489 C1486 1.403 . S
C1489 C1490 1.392 . S
C1489 C1493 1.495 . S
C1490 C1489 1.392 . S
C1490 C1491 1.385 . S
C1490 C1492 1.478 . S
C1491 H1485 0.930 . S
C1491 C1487 1.400 . S
C1491 C1490 1.385 . S
C1492 C1490 1.478 . S
C1492 C1494 1.381 . S
C1492 C1498 1.383 . S
C1493 C1489 1.495 . S
C1493 H1499 0.959 . S
C1493 H1500 0.961 . S
C1493 H1501 0.960 . S
C1494 C1492 1.381 . S
C1494 C1495 1.394 . S
C1494 H1502 0.930 . S
C1495 C1494 1.394 . S
C1495 C1496 1.383 . S
C1495 H1503 0.929 . S
C1496 C1495 1.383 . S
C1496 C1497 1.377 . S
C1497 H1481 0.930 . S
C1497 C1496 1.377 . S
C1497 C1498 1.379 . S
C1498 H1482 0.931 . S
C1498 C1492 1.383 . S
C1498 C1497 1.379 . S
H1499 C1493 0.959 . S
H1500 C1493 0.961 . S
H1501 C1493 0.960 . S
H1502 C1494 0.930 . S
H1503 C1495 0.929 . S
H1504 C1512 0.929 . S
H1505 C1514 0.930 . S
H1506 C1516 0.930 . S
H1507 C1519 0.929 1_545 S
H1508 C1522 0.930 . S
H1509 C1524 0.960 . S
H1510 C1524 0.960 . S
H1511 C1524 0.960 . S
C1512 H1504 0.929 . S
C1512 C1513 1.377 . S
C1512 C1514 1.384 . S
C1513 C1512 1.377 . S
C1513 C1519 1.390 . S
C1514 H1505 0.930 . S
C1514 C1512 1.384 . S
C1514 C1515 1.372 . S
C1515 C1514 1.372 . S
C1515 C1516 1.400 . S
C1515 C1520 1.490 . S
C1516 H1506 0.930 . S
C1516 C1515 1.400 . S
C1516 C1519 1.386 . S
H1517 C1533 0.930 . S
H1518 C1534 0.931 . S
C1519 H1507 0.929 1_565 S
C1519 C1513 1.390 . S
C1519 C1516 1.386 . S
C1520 C1515 1.490 . S
C1520 C1522 1.395 . S
C1520 C1523 1.403 . S
H1521 C1527 0.930 . S
C1522 H1508 0.930 . S
C1522 C1520 1.395 . S
C1522 C1525 1.403 . S
C1523 C1520 1.403 . S
C1523 C1524 1.524 . S
C1523 C1527 1.400 . S
C1524 H1509 0.960 . S
C1524 H1510 0.960 . S
C1524 H1511 0.960 . S
C1524 C1523 1.524 . S
C1525 C1522 1.403 . S
C1525 C1526 1.392 . S
C1525 C1529 1.495 . S
C1526 C1525 1.392 . S
C1526 C1527 1.385 . S
C1526 C1528 1.478 . S
C1527 H1521 0.930 . S
C1527 C1523 1.400 . S
C1527 C1526 1.385 . S
C1528 C1526 1.478 . S
C1528 C1530 1.381 . S
C1528 C1534 1.383 . S
C1529 C1525 1.495 . S
C1529 H1535 0.959 . S
C1529 H1536 0.961 . S
C1529 H1537 0.960 . S
C1530 C1528 1.381 . S
C1530 C1531 1.394 . S
C1530 H1538 0.930 . S
C1531 C1530 1.394 . S
C1531 C1532 1.383 . S
C1531 H1539 0.929 . S
C1532 C1531 1.383 . S
C1532 C1533 1.377 . S
C1533 H1517 0.930 . S
C1533 C1532 1.377 . S
C1533 C1534 1.379 . S
C1534 H1518 0.931 . S
C1534 C1528 1.383 . S
C1534 C1533 1.379 . S
H1535 C1529 0.959 . S
H1536 C1529 0.961 . S
H1537 C1529 0.960 . S
H1538 C1530 0.930 . S
H1539 C1531 0.929 . S
H1540 C1548 0.929 . S
H1541 C1550 0.930 . S
H1542 C1552 0.930 . S
H1543 C1555 0.929 . S
H1544 C1558 0.930 . S
H1545 C1560 0.960 . S
H1546 C1560 0.960 . S
H1547 C1560 0.960 . S
C1548 H1540 0.929 . S
C1548 C1549 1.377 . S
C1548 C1550 1.384 . S
C1549 C1548 1.377 . S
C1549 C1555 1.390 . S
C1550 H1541 0.930 . S
C1550 C1548 1.384 . S
C1550 C1551 1.372 . S
C1551 C1550 1.372 . S
C1551 C1552 1.400 . S
C1551 C1556 1.490 . S
C1552 H1542 0.930 . S
C1552 C1551 1.400 . S
C1552 C1555 1.386 . S
H1553 C1569 0.930 . S
H1554 C1570 0.931 . S
C1555 H1543 0.929 . S
C1555 C1549 1.390 . S
C1555 C1552 1.386 . S
C1556 C1551 1.490 . S
C1556 C1558 1.395 . S
C1556 C1559 1.403 . S
H1557 C1563 0.930 . S
C1558 H1544 0.930 . S
C1558 C1556 1.395 . S
C1558 C1561 1.403 . S
C1559 C1556 1.403 . S
C1559 C1560 1.524 . S
C1559 C1563 1.400 . S
C1560 H1545 0.960 . S
C1560 H1546 0.960 . S
C1560 H1547 0.960 . S
C1560 C1559 1.524 . S
C1561 C1558 1.403 . S
C1561 C1562 1.392 . S
C1561 C1565 1.495 . S
C1562 C1561 1.392 . S
C1562 C1563 1.385 . S
C1562 C1564 1.478 . S
C1563 H1557 0.930 . S
C1563 C1559 1.400 . S
C1563 C1562 1.385 . S
C1564 C1562 1.478 . S
C1564 C1566 1.381 . S
C1564 C1570 1.383 . S
C1565 C1561 1.495 . S
C1565 H1571 0.959 . S
C1565 H1572 0.961 . S
C1565 H1573 0.960 . S
C1566 C1564 1.381 . S
C1566 C1567 1.394 . S
C1566 H1574 0.930 . S
C1567 C1566 1.394 . S
C1567 C1568 1.383 . S
C1567 H1575 0.929 . S
C1568 C1567 1.383 . S
C1568 C1569 1.377 . S
C1569 H1553 0.930 . S
C1569 C1568 1.377 . S
C1569 C1570 1.379 . S
C1570 H1554 0.931 . S
C1570 C1564 1.383 . S
C1570 C1569 1.379 . S
H1571 C1565 0.959 . S
H1572 C1565 0.961 . S
H1573 C1565 0.960 . S
H1574 C1566 0.930 . S
H1575 C1567 0.929 . S
H1576 C1584 0.929 . S
H1577 C1586 0.930 . S
H1578 C1588 0.930 . S
H1579 C1591 0.929 . S
H1580 C1594 0.930 . S
H1581 C1596 0.960 . S
H1582 C1596 0.960 . S
H1583 C1596 0.960 . S
C1584 H1576 0.929 . S
C1584 C1585 1.377 . S
C1584 C1586 1.384 . S
C1585 C1584 1.377 . S
C1585 C1591 1.390 . S
C1586 H1577 0.930 . S
C1586 C1584 1.384 . S
C1586 C1587 1.372 . S
C1587 C1586 1.372 . S
C1587 C1588 1.400 . S
C1587 C1592 1.490 . S
C1588 H1578 0.930 . S
C1588 C1587 1.400 . S
C1588 C1591 1.386 . S
H1589 C1605 0.930 . S
H1590 C1606 0.931 . S
C1591 H1579 0.929 . S
C1591 C1585 1.390 . S
C1591 C1588 1.386 . S
C1592 C1587 1.490 . S
C1592 C1594 1.395 . S
C1592 C1595 1.403 . S
H1593 C1599 0.930 . S
C1594 H1580 0.930 . S
C1594 C1592 1.395 . S
C1594 C1597 1.403 . S
C1595 C1592 1.403 . S
C1595 C1596 1.524 . S
C1595 C1599 1.400 . S
C1596 H1581 0.960 . S
C1596 H1582 0.960 . S
C1596 H1583 0.960 . S
C1596 C1595 1.524 . S
C1597 C1594 1.403 . S
C1597 C1598 1.392 . S
C1597 C1601 1.495 . S
C1598 C1597 1.392 . S
C1598 C1599 1.385 . S
C1598 C1600 1.478 . S
C1599 H1593 0.930 . S
C1599 C1595 1.400 . S
C1599 C1598 1.385 . S
C1600 C1598 1.478 . S
C1600 C1602 1.381 . S
C1600 C1606 1.383 . S
C1601 C1597 1.495 . S
C1601 H1607 0.959 . S
C1601 H1608 0.961 . S
C1601 H1609 0.960 . S
C1602 C1600 1.381 . S
C1602 C1603 1.394 . S
C1602 H1610 0.930 . S
C1603 C1602 1.394 . S
C1603 C1604 1.383 . S
C1603 H1611 0.929 . S
C1604 C1603 1.383 . S
C1604 C1605 1.377 . S
C1605 H1589 0.930 . S
C1605 C1604 1.377 . S
C1605 C1606 1.379 . S
C1606 H1590 0.931 . S
C1606 C1600 1.383 . S
C1606 C1605 1.379 . S
H1607 C1601 0.959 . S
H1608 C1601 0.961 . S
H1609 C1601 0.960 . S
H1610 C1602 0.930 . S
H1611 C1603 0.929 . S
H1612 C1620 0.929 . S
H1613 C1622 0.930 . S
H1614 C1624 0.930 . S
H1615 C1627 0.929 . S
H1616 C1630 0.930 . S
H1617 C1632 0.960 . S
H1618 C1632 0.960 . S
H1619 C1632 0.960 . S
C1620 H1612 0.929 . S
C1620 C1621 1.377 . S
C1620 C1622 1.384 . S
C1621 C1620 1.377 . S
C1621 C1627 1.390 . S
C1622 H1613 0.930 . S
C1622 C1620 1.384 . S
C1622 C1623 1.372 . S
C1623 C1622 1.372 . S
C1623 C1624 1.400 . S
C1623 C1628 1.490 . S
C1624 H1614 0.930 . S
C1624 C1623 1.400 . S
C1624 C1627 1.386 . S
H1625 C1641 0.930 . S
H1626 C1642 0.931 . S
C1627 H1615 0.929 . S
C1627 C1621 1.390 . S
C1627 C1624 1.386 . S
C1628 C1623 1.490 . S
C1628 C1630 1.395 . S
C1628 C1631 1.403 . S
H1629 C1635 0.930 . S
C1630 H1616 0.930 . S
C1630 C1628 1.395 . S
C1630 C1633 1.403 . S
C1631 C1628 1.403 . S
C1631 C1632 1.524 . S
C1631 C1635 1.400 . S
C1632 H1617 0.960 . S
C1632 H1618 0.960 . S
C1632 H1619 0.960 . S
C1632 C1631 1.524 . S
C1633 C1630 1.403 . S
C1633 C1634 1.392 . S
C1633 C1637 1.495 . S
C1634 C1633 1.392 . S
C1634 C1635 1.385 . S
C1634 C1636 1.478 . S
C1635 H1629 0.930 . S
C1635 C1631 1.400 . S
C1635 C1634 1.385 . S
C1636 C1634 1.478 . S
C1636 C1638 1.381 . S
C1636 C1642 1.383 . S
C1637 C1633 1.495 . S
C1637 H1643 0.959 . S
C1637 H1644 0.961 . S
C1637 H1645 0.960 . S
C1638 C1636 1.381 . S
C1638 C1639 1.394 . S
C1638 H1646 0.930 . S
C1639 C1638 1.394 . S
C1639 C1640 1.383 . S
C1639 H1647 0.929 . S
C1640 C1639 1.383 . S
C1640 C1641 1.377 . S
C1641 H1625 0.930 . S
C1641 C1640 1.377 . S
C1641 C1642 1.379 . S
C1642 H1626 0.931 . S
C1642 C1636 1.383 . S
C1642 C1641 1.379 . S
H1643 C1637 0.959 . S
H1644 C1637 0.961 . S
H1645 C1637 0.960 . S
H1646 C1638 0.930 . S
H1647 C1639 0.929 . S
H1648 C1656 0.929 . S
H1649 C1658 0.930 . S
H1650 C1660 0.930 . S
H1651 C1663 0.929 . S
H1652 C1666 0.930 . S
H1653 C1668 0.960 . S
H1654 C1668 0.960 . S
H1655 C1668 0.960 . S
C1656 H1648 0.929 . S
C1656 C1657 1.377 . S
C1656 C1658 1.384 . S
C1657 C1656 1.377 . S
C1657 C1663 1.390 . S
C1658 H1649 0.930 . S
C1658 C1656 1.384 . S
C1658 C1659 1.372 . S
C1659 C1658 1.372 . S
C1659 C1660 1.400 . S
C1659 C1664 1.490 . S
C1660 H1650 0.930 . S
C1660 C1659 1.400 . S
C1660 C1663 1.386 . S
H1661 C1677 0.930 . S
H1662 C1678 0.931 . S
C1663 H1651 0.929 . S
C1663 C1657 1.390 . S
C1663 C1660 1.386 . S
C1664 C1659 1.490 . S
C1664 C1666 1.395 . S
C1664 C1667 1.403 . S
H1665 C1671 0.930 . S
C1666 H1652 0.930 . S
C1666 C1664 1.395 . S
C1666 C1669 1.403 . S
C1667 C1664 1.403 . S
C1667 C1668 1.524 . S
C1667 C1671 1.400 . S
C1668 H1653 0.960 . S
C1668 H1654 0.960 . S
C1668 H1655 0.960 . S
C1668 C1667 1.524 . S
C1669 C1666 1.403 . S
C1669 C1670 1.392 . S
C1669 C1673 1.495 . S
C1670 C1669 1.392 . S
C1670 C1671 1.385 . S
C1670 C1672 1.478 . S
C1671 H1665 0.930 . S
C1671 C1667 1.400 . S
C1671 C1670 1.385 . S
C1672 C1670 1.478 . S
C1672 C1674 1.381 . S
C1672 C1678 1.383 . S
C1673 C1669 1.495 . S
C1673 H1679 0.959 . S
C1673 H1680 0.961 . S
C1673 H1681 0.960 . S
C1674 C1672 1.381 . S
C1674 C1675 1.394 . S
C1674 H1682 0.930 . S
C1675 C1674 1.394 . S
C1675 C1676 1.383 . S
C1675 H1683 0.929 . S
C1676 C1675 1.383 . S
C1676 C1677 1.377 . S
C1677 H1661 0.930 . S
C1677 C1676 1.377 . S
C1677 C1678 1.379 . S
C1678 H1662 0.931 . S
C1678 C1672 1.383 . S
C1678 C1677 1.379 . S
H1679 C1673 0.959 . S
H1680 C1673 0.961 . S
H1681 C1673 0.960 . S
H1682 C1674 0.930 . S
H1683 C1675 0.929 . S
H1684 C1692 0.929 . S
H1685 C1694 0.930 . S
H1686 C1696 0.930 . S
H1687 C1699 0.929 . S
H1688 C1702 0.930 . S
H1689 C1704 0.960 . S
H1690 C1704 0.960 . S
H1691 C1704 0.960 . S
C1692 H1684 0.929 . S
C1692 C1693 1.377 . S
C1692 C1694 1.384 . S
C1693 C1692 1.377 . S
C1693 C1699 1.390 . S
C1694 H1685 0.930 . S
C1694 C1692 1.384 . S
C1694 C1695 1.372 . S
C1695 C1694 1.372 . S
C1695 C1696 1.400 . S
C1695 C1700 1.490 . S
C1696 H1686 0.930 . S
C1696 C1695 1.400 . S
C1696 C1699 1.386 . S
H1697 C1713 0.930 . S
H1698 C1714 0.931 . S
C1699 H1687 0.929 . S
C1699 C1693 1.390 . S
C1699 C1696 1.386 . S
C1700 C1695 1.490 . S
C1700 C1702 1.395 . S
C1700 C1703 1.403 . S
H1701 C1707 0.930 . S
C1702 H1688 0.930 . S
C1702 C1700 1.395 . S
C1702 C1705 1.403 . S
C1703 C1700 1.403 . S
C1703 C1704 1.524 . S
C1703 C1707 1.400 . S
C1704 H1689 0.960 . S
C1704 H1690 0.960 . S
C1704 H1691 0.960 . S
C1704 C1703 1.524 . S
C1705 C1702 1.403 . S
C1705 C1706 1.392 . S
C1705 C1709 1.495 . S
C1706 C1705 1.392 . S
C1706 C1707 1.385 . S
C1706 C1708 1.478 . S
C1707 H1701 0.930 . S
C1707 C1703 1.400 . S
C1707 C1706 1.385 . S
C1708 C1706 1.478 . S
C1708 C1710 1.381 . S
C1708 C1714 1.383 . S
C1709 C1705 1.495 . S
C1709 H1715 0.959 . S
C1709 H1716 0.961 . S
C1709 H1717 0.960 . S
C1710 C1708 1.381 . S
C1710 C1711 1.394 . S
C1710 H1718 0.930 . S
C1711 C1710 1.394 . S
C1711 C1712 1.383 . S
C1711 H1719 0.929 . S
C1712 C1711 1.383 . S
C1712 C1713 1.377 . S
C1713 H1697 0.930 . S
C1713 C1712 1.377 . S
C1713 C1714 1.379 . S
C1714 H1698 0.931 . S
C1714 C1708 1.383 . S
C1714 C1713 1.379 . S
H1715 C1709 0.959 . S
H1716 C1709 0.961 . S
H1717 C1709 0.960 . S
H1718 C1710 0.930 . S
H1719 C1711 0.929 . S
H1720 C1728 0.929 . S
H1721 C1730 0.930 . S
H1722 C1732 0.930 . S
H1723 C1735 0.929 . S
H1724 C1738 0.930 . S
H1725 C1740 0.960 . S
H1726 C1740 0.960 . S
H1727 C1740 0.960 . S
C1728 H1720 0.929 . S
C1728 C1729 1.377 . S
C1728 C1730 1.384 . S
C1729 C1728 1.377 . S
C1729 C1735 1.390 . S
C1730 H1721 0.930 . S
C1730 C1728 1.384 . S
C1730 C1731 1.372 . S
C1731 C1730 1.372 . S
C1731 C1732 1.400 . S
C1731 C1736 1.490 . S
C1732 H1722 0.930 . S
C1732 C1731 1.400 . S
C1732 C1735 1.386 . S
H1733 C1749 0.930 . S
H1734 C1750 0.931 . S
C1735 H1723 0.929 . S
C1735 C1729 1.390 . S
C1735 C1732 1.386 . S
C1736 C1731 1.490 . S
C1736 C1738 1.395 . S
C1736 C1739 1.403 . S
H1737 C1743 0.930 . S
C1738 H1724 0.930 . S
C1738 C1736 1.395 . S
C1738 C1741 1.403 . S
C1739 C1736 1.403 . S
C1739 C1740 1.524 . S
C1739 C1743 1.400 . S
C1740 H1725 0.960 . S
C1740 H1726 0.960 . S
C1740 H1727 0.960 . S
C1740 C1739 1.524 . S
C1741 C1738 1.403 . S
C1741 C1742 1.392 . S
C1741 C1745 1.495 . S
C1742 C1741 1.392 . S
C1742 C1743 1.385 . S
C1742 C1744 1.478 . S
C1743 H1737 0.930 . S
C1743 C1739 1.400 . S
C1743 C1742 1.385 . S
C1744 C1742 1.478 . S
C1744 C1746 1.381 . S
C1744 C1750 1.383 . S
C1745 C1741 1.495 . S
C1745 H1751 0.959 . S
C1745 H1752 0.961 . S
C1745 H1753 0.960 . S
C1746 C1744 1.381 . S
C1746 C1747 1.394 . S
C1746 H1754 0.930 . S
C1747 C1746 1.394 . S
C1747 C1748 1.383 . S
C1747 H1755 0.929 . S
C1748 C1747 1.383 . S
C1748 C1749 1.377 . S
C1749 H1733 0.930 . S
C1749 C1748 1.377 . S
C1749 C1750 1.379 . S
C1750 H1734 0.931 . S
C1750 C1744 1.383 . S
C1750 C1749 1.379 . S
H1751 C1745 0.959 . S
H1752 C1745 0.961 . S
H1753 C1745 0.960 . S
H1754 C1746 0.930 . S
H1755 C1747 0.929 . S
H1756 C1764 0.929 . S
H1757 C1766 0.930 . S
H1758 C1768 0.930 . S
H1759 C1771 0.929 . S
H1760 C1774 0.930 . S
H1761 C1776 0.960 . S
H1762 C1776 0.960 . S
H1763 C1776 0.960 . S
C1764 H1756 0.929 . S
C1764 C1765 1.377 . S
C1764 C1766 1.384 . S
C1765 C1764 1.377 . S
C1765 C1771 1.390 . S
C1766 H1757 0.930 . S
C1766 C1764 1.384 . S
C1766 C1767 1.372 . S
C1767 C1766 1.372 . S
C1767 C1768 1.400 . S
C1767 C1772 1.490 . S
C1768 H1758 0.930 . S
C1768 C1767 1.400 . S
C1768 C1771 1.386 . S
H1769 C1785 0.930 . S
H1770 C1786 0.931 . S
C1771 H1759 0.929 . S
C1771 C1765 1.390 . S
C1771 C1768 1.386 . S
C1772 C1767 1.490 . S
C1772 C1774 1.395 . S
C1772 C1775 1.403 . S
H1773 C1779 0.930 . S
C1774 H1760 0.930 . S
C1774 C1772 1.395 . S
C1774 C1777 1.403 . S
C1775 C1772 1.403 . S
C1775 C1776 1.524 . S
C1775 C1779 1.400 . S
C1776 H1761 0.960 . S
C1776 H1762 0.960 . S
C1776 H1763 0.960 . S
C1776 C1775 1.524 . S
C1777 C1774 1.403 . S
C1777 C1778 1.392 . S
C1777 C1781 1.495 . S
C1778 C1777 1.392 . S
C1778 C1779 1.385 . S
C1778 C1780 1.478 . S
C1779 H1773 0.930 . S
C1779 C1775 1.400 . S
C1779 C1778 1.385 . S
C1780 C1778 1.478 . S
C1780 C1782 1.381 . S
C1780 C1786 1.383 . S
C1781 C1777 1.495 . S
C1781 H1787 0.959 . S
C1781 H1788 0.961 . S
C1781 H1789 0.960 . S
C1782 C1780 1.381 . S
C1782 C1783 1.394 . S
C1782 H1790 0.930 . S
C1783 C1782 1.394 . S
C1783 C1784 1.383 . S
C1783 H1791 0.929 . S
C1784 C1783 1.383 . S
C1784 C1785 1.377 . S
C1785 H1769 0.930 . S
C1785 C1784 1.377 . S
C1785 C1786 1.379 . S
C1786 H1770 0.931 . S
C1786 C1780 1.383 . S
C1786 C1785 1.379 . S
H1787 C1781 0.959 . S
H1788 C1781 0.961 . S
H1789 C1781 0.960 . S
H1790 C1782 0.930 . S
H1791 C1783 0.929 . S
H1792 C1800 0.929 . S
H1793 C1802 0.930 . S
H1794 C1804 0.930 . S
H1795 C1807 0.929 . S
H1796 C1810 0.930 . S
H1797 C1812 0.960 . S
H1798 C1812 0.960 . S
H1799 C1812 0.960 . S
C1800 H1792 0.929 . S
C1800 C1801 1.377 . S
C1800 C1802 1.384 . S
C1801 C1800 1.377 . S
C1801 C1807 1.390 . S
C1802 H1793 0.930 . S
C1802 C1800 1.384 . S
C1802 C1803 1.372 . S
C1803 C1802 1.372 . S
C1803 C1804 1.400 . S
C1803 C1808 1.490 . S
C1804 H1794 0.930 . S
C1804 C1803 1.400 . S
C1804 C1807 1.386 . S
H1805 C1821 0.930 . S
H1806 C1822 0.931 . S
C1807 H1795 0.929 . S
C1807 C1801 1.390 . S
C1807 C1804 1.386 . S
C1808 C1803 1.490 . S
C1808 C1810 1.395 . S
C1808 C1811 1.403 . S
H1809 C1815 0.930 . S
C1810 H1796 0.930 . S
C1810 C1808 1.395 . S
C1810 C1813 1.403 . S
C1811 C1808 1.403 . S
C1811 C1812 1.524 . S
C1811 C1815 1.400 . S
C1812 H1797 0.960 . S
C1812 H1798 0.960 . S
C1812 H1799 0.960 . S
C1812 C1811 1.524 . S
C1813 C1810 1.403 . S
C1813 C1814 1.392 . S
C1813 C1817 1.495 . S
C1814 C1813 1.392 . S
C1814 C1815 1.385 . S
C1814 C1816 1.478 . S
C1815 H1809 0.930 . S
C1815 C1811 1.400 . S
C1815 C1814 1.385 . S
C1816 C1814 1.478 . S
C1816 C1818 1.381 . S
C1816 C1822 1.383 . S
C1817 C1813 1.495 . S
C1817 H1823 0.959 . S
C1817 H1824 0.961 . S
C1817 H1825 0.960 . S
C1818 C1816 1.381 . S
C1818 C1819 1.394 . S
C1818 H1826 0.930 . S
C1819 C1818 1.394 . S
C1819 C1820 1.383 . S
C1819 H1827 0.929 . S
C1820 C1819 1.383 . S
C1820 C1821 1.377 . S
C1821 H1805 0.930 . S
C1821 C1820 1.377 . S
C1821 C1822 1.379 . S
C1822 H1806 0.931 . S
C1822 C1816 1.383 . S
C1822 C1821 1.379 . S
H1823 C1817 0.959 . S
H1824 C1817 0.961 . S
H1825 C1817 0.960 . S
H1826 C1818 0.930 . S
H1827 C1819 0.929 . S
H1828 C1836 0.929 . S
H1829 C1838 0.930 . S
H1830 C1840 0.930 . S
H1831 C1843 0.929 . S
H1832 C1846 0.930 . S
H1833 C1848 0.960 . S
H1834 C1848 0.960 . S
H1835 C1848 0.960 . S
C1836 H1828 0.929 . S
C1836 C1837 1.377 . S
C1836 C1838 1.384 . S
C1837 C1836 1.377 . S
C1837 C1843 1.390 . S
C1838 H1829 0.930 . S
C1838 C1836 1.384 . S
C1838 C1839 1.372 . S
C1839 C1838 1.372 . S
C1839 C1840 1.400 . S
C1839 C1844 1.490 . S
C1840 H1830 0.930 . S
C1840 C1839 1.400 . S
C1840 C1843 1.386 . S
H1841 C1857 0.930 . S
H1842 C1858 0.931 . S
C1843 H1831 0.929 . S
C1843 C1837 1.390 . S
C1843 C1840 1.386 . S
C1844 C1839 1.490 . S
C1844 C1846 1.395 . S
C1844 C1847 1.403 . S
H1845 C1851 0.930 . S
C1846 H1832 0.930 . S
C1846 C1844 1.395 . S
C1846 C1849 1.403 . S
C1847 C1844 1.403 . S
C1847 C1848 1.524 . S
C1847 C1851 1.400 . S
C1848 H1833 0.960 . S
C1848 H1834 0.960 . S
C1848 H1835 0.960 . S
C1848 C1847 1.524 . S
C1849 C1846 1.403 . S
C1849 C1850 1.392 . S
C1849 C1853 1.495 . S
C1850 C1849 1.392 . S
C1850 C1851 1.385 . S
C1850 C1852 1.478 . S
C1851 H1845 0.930 . S
C1851 C1847 1.400 . S
C1851 C1850 1.385 . S
C1852 C1850 1.478 . S
C1852 C1854 1.381 . S
C1852 C1858 1.383 . S
C1853 C1849 1.495 . S
C1853 H1859 0.959 . S
C1853 H1860 0.961 . S
C1853 H1861 0.960 . S
C1854 C1852 1.381 . S
C1854 C1855 1.394 . S
C1854 H1862 0.930 . S
C1855 C1854 1.394 . S
C1855 C1856 1.383 . S
C1855 H1863 0.929 . S
C1856 C1855 1.383 . S
C1856 C1857 1.377 . S
C1857 H1841 0.930 . S
C1857 C1856 1.377 . S
C1857 C1858 1.379 . S
C1858 H1842 0.931 . S
C1858 C1852 1.383 . S
C1858 C1857 1.379 . S
H1859 C1853 0.959 . S
H1860 C1853 0.961 . S
H1861 C1853 0.960 . S
H1862 C1854 0.930 . S
H1863 C1855 0.929 . S
H1864 C1872 0.929 . S
H1865 C1874 0.930 . S
H1866 C1876 0.930 . S
H1867 C1879 0.929 . S
H1868 C1882 0.930 . S
H1869 C1884 0.960 . S
H1870 C1884 0.960 . S
H1871 C1884 0.960 . S
C1872 H1864 0.929 . S
C1872 C1873 1.377 . S
C1872 C1874 1.384 . S
C1873 C1872 1.377 . S
C1873 C1879 1.390 . S
C1874 H1865 0.930 . S
C1874 C1872 1.384 . S
C1874 C1875 1.372 . S
C1875 C1874 1.372 . S
C1875 C1876 1.400 . S
C1875 C1880 1.490 . S
C1876 H1866 0.930 . S
C1876 C1875 1.400 . S
C1876 C1879 1.386 . S
H1877 C1893 0.930 . S
H1878 C1894 0.931 . S
C1879 H1867 0.929 . S
C1879 C1873 1.390 . S
C1879 C1876 1.386 . S
C1880 C1875 1.490 . S
C1880 C1882 1.395 . S
C1880 C1883 1.403 . S
H1881 C1887 0.930 . S
C1882 H1868 0.930 . S
C1882 C1880 1.395 . S
C1882 C1885 1.403 . S
C1883 C1880 1.403 . S
C1883 C1884 1.524 . S
C1883 C1887 1.400 . S
C1884 H1869 0.960 . S
C1884 H1870 0.960 . S
C1884 H1871 0.960 . S
C1884 C1883 1.524 . S
C1885 C1882 1.403 . S
C1885 C1886 1.392 . S
C1885 C1889 1.495 . S
C1886 C1885 1.392 . S
C1886 C1887 1.385 . S
C1886 C1888 1.478 . S
C1887 H1881 0.930 . S
C1887 C1883 1.400 . S
C1887 C1886 1.385 . S
C1888 C1886 1.478 . S
C1888 C1890 1.381 . S
C1888 C1894 1.383 . S
C1889 C1885 1.495 . S
C1889 H1895 0.959 . S
C1889 H1896 0.961 . S
C1889 H1897 0.960 . S
C1890 C1888 1.381 . S
C1890 C1891 1.394 . S
C1890 H1898 0.930 . S
C1891 C1890 1.394 . S
C1891 C1892 1.383 . S
C1891 H1899 0.929 . S
C1892 C1891 1.383 . S
C1892 C1893 1.377 . S
C1893 H1877 0.930 . S
C1893 C1892 1.377 . S
C1893 C1894 1.379 . S
C1894 H1878 0.931 . S
C1894 C1888 1.383 . S
C1894 C1893 1.379 . S
H1895 C1889 0.959 . S
H1896 C1889 0.961 . S
H1897 C1889 0.960 . S
H1898 C1890 0.930 . S
H1899 C1891 0.929 . S
H1900 C1908 0.929 . S
H1901 C1910 0.930 . S
H1902 C1912 0.930 . S
H1903 C1915 0.929 . S
H1904 C1918 0.930 . S
H1905 C1920 0.960 . S
H1906 C1920 0.960 . S
H1907 C1920 0.960 . S
C1908 H1900 0.929 . S
C1908 C1909 1.377 . S
C1908 C1910 1.384 . S
C1909 C1908 1.377 . S
C1909 C1915 1.390 . S
C1910 H1901 0.930 . S
C1910 C1908 1.384 . S
C1910 C1911 1.372 . S
C1911 C1910 1.372 . S
C1911 C1912 1.400 . S
C1911 C1916 1.490 . S
C1912 H1902 0.930 . S
C1912 C1911 1.400 . S
C1912 C1915 1.386 . S
H1913 C1929 0.930 . S
H1914 C1930 0.931 . S
C1915 H1903 0.929 . S
C1915 C1909 1.390 . S
C1915 C1912 1.386 . S
C1916 C1911 1.490 . S
C1916 C1918 1.395 . S
C1916 C1919 1.403 . S
H1917 C1923 0.930 . S
C1918 H1904 0.930 . S
C1918 C1916 1.395 . S
C1918 C1921 1.403 . S
C1919 C1916 1.403 . S
C1919 C1920 1.524 . S
C1919 C1923 1.400 . S
C1920 H1905 0.960 . S
C1920 H1906 0.960 . S
C1920 H1907 0.960 . S
C1920 C1919 1.524 . S
C1921 C1918 1.403 . S
C1921 C1922 1.392 . S
C1921 C1925 1.495 . S
C1922 C1921 1.392 . S
C1922 C1923 1.385 . S
C1922 C1924 1.478 . S
C1923 H1917 0.930 . S
C1923 C1919 1.400 . S
C1923 C1922 1.385 . S
C1924 C1922 1.478 . S
C1924 C1926 1.381 . S
C1924 C1930 1.383 . S
C1925 C1921 1.495 . S
C1925 H1931 0.959 . S
C1925 H1932 0.961 . S
C1925 H1933 0.960 . S
C1926 C1924 1.381 . S
C1926 C1927 1.394 . S
C1926 H1934 0.930 . S
C1927 C1926 1.394 . S
C1927 C1928 1.383 . S
C1927 H1935 0.929 . S
C1928 C1927 1.383 . S
C1928 C1929 1.377 . S
C1929 H1913 0.930 . S
C1929 C1928 1.377 . S
C1929 C1930 1.379 . S
C1930 H1914 0.931 . S
C1930 C1924 1.383 . S
C1930 C1929 1.379 . S
H1931 C1925 0.959 . S
H1932 C1925 0.961 . S
H1933 C1925 0.960 . S
H1934 C1926 0.930 . S
H1935 C1927 0.929 . S
H1936 C1944 0.929 . S
H1937 C1946 0.930 . S
H1938 C1948 0.930 . S
H1939 C1951 0.929 . S
H1940 C1954 0.930 . S
H1941 C1956 0.960 . S
H1942 C1956 0.960 . S
H1943 C1956 0.960 . S
C1944 H1936 0.929 . S
C1944 C1945 1.377 . S
C1944 C1946 1.384 . S
C1945 C1944 1.377 . S
C1945 C1951 1.390 . S
C1946 H1937 0.930 . S
C1946 C1944 1.384 . S
C1946 C1947 1.372 . S
C1947 C1946 1.372 . S
C1947 C1948 1.400 . S
C1947 C1952 1.490 . S
C1948 H1938 0.930 . S
C1948 C1947 1.400 . S
C1948 C1951 1.386 . S
H1949 C1965 0.930 . S
H1950 C1966 0.931 . S
C1951 H1939 0.929 . S
C1951 C1945 1.390 . S
C1951 C1948 1.386 . S
C1952 C1947 1.490 . S
C1952 C1954 1.395 . S
C1952 C1955 1.403 . S
H1953 C1959 0.930 . S
C1954 H1940 0.930 . S
C1954 C1952 1.395 . S
C1954 C1957 1.403 . S
C1955 C1952 1.403 . S
C1955 C1956 1.524 . S
C1955 C1959 1.400 . S
C1956 H1941 0.960 . S
C1956 H1942 0.960 . S
C1956 H1943 0.960 . S
C1956 C1955 1.524 . S
C1957 C1954 1.403 . S
C1957 C1958 1.392 . S
C1957 C1961 1.495 . S
C1958 C1957 1.392 . S
C1958 C1959 1.385 . S
C1958 C1960 1.478 . S
C1959 H1953 0.930 . S
C1959 C1955 1.400 . S
C1959 C1958 1.385 . S
C1960 C1958 1.478 . S
C1960 C1962 1.381 . S
C1960 C1966 1.383 . S
C1961 C1957 1.495 . S
C1961 H1967 0.959 . S
C1961 H1968 0.961 . S
C1961 H1969 0.960 . S
C1962 C1960 1.381 . S
C1962 C1963 1.394 . S
C1962 H1970 0.930 . S
C1963 C1962 1.394 . S
C1963 C1964 1.383 . S
C1963 H1971 0.929 . S
C1964 C1963 1.383 . S
C1964 C1965 1.377 . S
C1965 H1949 0.930 . S
C1965 C1964 1.377 . S
C1965 C1966 1.379 . S
C1966 H1950 0.931 . S
C1966 C1960 1.383 . S
C1966 C1965 1.379 . S
H1967 C1961 0.959 . S
H1968 C1961 0.961 . S
H1969 C1961 0.960 . S
H1970 C1962 0.930 . S
H1971 C1963 0.929 . S
H1972 C1980 0.929 . S
H1973 C1982 0.930 . S
H1974 C1984 0.930 . S
H1975 C1987 0.929 . S
H1976 C1990 0.930 . S
H1977 C1992 0.960 . S
H1978 C1992 0.960 . S
H1979 C1992 0.960 . S
C1980 H1972 0.929 . S
C1980 C1981 1.377 . S
C1980 C1982 1.384 . S
C1981 C1980 1.377 . S
C1981 C1987 1.390 . S
C1982 H1973 0.930 . S
C1982 C1980 1.384 . S
C1982 C1983 1.372 . S
C1983 C1982 1.372 . S
C1983 C1984 1.400 . S
C1983 C1988 1.490 . S
C1984 H1974 0.930 . S
C1984 C1983 1.400 . S
C1984 C1987 1.386 . S
H1985 C2001 0.930 . S
H1986 C2002 0.931 . S
C1987 H1975 0.929 . S
C1987 C1981 1.390 . S
C1987 C1984 1.386 . S
C1988 C1983 1.490 . S
C1988 C1990 1.395 . S
C1988 C1991 1.403 . S
H1989 C1995 0.930 . S
C1990 H1976 0.930 . S
C1990 C1988 1.395 . S
C1990 C1993 1.403 . S
C1991 C1988 1.403 . S
C1991 C1992 1.524 . S
C1991 C1995 1.400 . S
C1992 H1977 0.960 . S
C1992 H1978 0.960 . S
C1992 H1979 0.960 . S
C1992 C1991 1.524 . S
C1993 C1990 1.403 . S
C1993 C1994 1.392 . S
C1993 C1997 1.495 . S
C1994 C1993 1.392 . S
C1994 C1995 1.385 . S
C1994 C1996 1.478 . S
C1995 H1989 0.930 . S
C1995 C1991 1.400 . S
C1995 C1994 1.385 . S
C1996 C1994 1.478 . S
C1996 C1998 1.381 . S
C1996 C2002 1.383 . S
C1997 C1993 1.495 . S
C1997 H2003 0.959 . S
C1997 H2004 0.961 . S
C1997 H2005 0.960 . S
C1998 C1996 1.381 . S
C1998 C1999 1.394 . S
C1998 H2006 0.930 . S
C1999 C1998 1.394 . S
C1999 C2000 1.383 . S
C1999 H2007 0.929 . S
C2000 C1999 1.383 . S
C2000 C2001 1.377 . S
C2001 H1985 0.930 . S
C2001 C2000 1.377 . S
C2001 C2002 1.379 . S
C2002 H1986 0.931 . S
C2002 C1996 1.383 . S
C2002 C2001 1.379 . S
H2003 C1997 0.959 . S
H2004 C1997 0.961 . S
H2005 C1997 0.960 . S
H2006 C1998 0.930 . S
H2007 C1999 0.929 . S
H2008 C2016 0.929 . S
H2009 C2018 0.930 . S
H2010 C2020 0.930 . S
H2011 C2023 0.929 . S
H2012 C2026 0.930 . S
H2013 C2028 0.960 . S
H2014 C2028 0.960 . S
H2015 C2028 0.960 . S
C2016 H2008 0.929 . S
C2016 C2017 1.377 . S
C2016 C2018 1.384 . S
C2017 C2016 1.377 . S
C2017 C2023 1.390 . S
C2018 H2009 0.930 . S
C2018 C2016 1.384 . S
C2018 C2019 1.372 . S
C2019 C2018 1.372 . S
C2019 C2020 1.400 . S
C2019 C2024 1.490 . S
C2020 H2010 0.930 . S
C2020 C2019 1.400 . S
C2020 C2023 1.386 . S
H2021 C2037 0.930 . S
H2022 C2038 0.931 . S
C2023 H2011 0.929 . S
C2023 C2017 1.390 . S
C2023 C2020 1.386 . S
C2024 C2019 1.490 . S
C2024 C2026 1.395 . S
C2024 C2027 1.403 . S
H2025 C2031 0.930 . S
C2026 H2012 0.930 . S
C2026 C2024 1.395 . S
C2026 C2029 1.403 . S
C2027 C2024 1.403 . S
C2027 C2028 1.524 . S
C2027 C2031 1.400 . S
C2028 H2013 0.960 . S
C2028 H2014 0.960 . S
C2028 H2015 0.960 . S
C2028 C2027 1.524 . S
C2029 C2026 1.403 . S
C2029 C2030 1.392 . S
C2029 C2033 1.495 . S
C2030 C2029 1.392 . S
C2030 C2031 1.385 . S
C2030 C2032 1.478 . S
C2031 H2025 0.930 . S
C2031 C2027 1.400 . S
C2031 C2030 1.385 . S
C2032 C2030 1.478 . S
C2032 C2034 1.381 . S
C2032 C2038 1.383 . S
C2033 C2029 1.495 . S
C2033 H2039 0.959 . S
C2033 H2040 0.961 . S
C2033 H2041 0.960 . S
C2034 C2032 1.381 . S
C2034 C2035 1.394 . S
C2034 H2042 0.930 . S
C2035 C2034 1.394 . S
C2035 C2036 1.383 . S
C2035 H2043 0.929 . S
C2036 C2035 1.383 . S
C2036 C2037 1.377 . S
C2037 H2021 0.930 . S
C2037 C2036 1.377 . S
C2037 C2038 1.379 . S
C2038 H2022 0.931 . S
C2038 C2032 1.383 . S
C2038 C2037 1.379 . S
H2039 C2033 0.959 . S
H2040 C2033 0.961 . S
H2041 C2033 0.960 . S
H2042 C2034 0.930 . S
H2043 C2035 0.929 . S
H2044 C2052 0.929 . S
H2045 C2054 0.930 . S
H2046 C2056 0.930 . S
H2047 C2059 0.929 . S
H2048 C2062 0.930 . S
H2049 C2064 0.960 . S
H2050 C2064 0.960 . S
H2051 C2064 0.960 . S
C2052 H2044 0.929 . S
C2052 C2053 1.377 . S
C2052 C2054 1.384 . S
C2053 C2052 1.377 . S
C2053 C2059 1.390 . S
C2054 H2045 0.930 . S
C2054 C2052 1.384 . S
C2054 C2055 1.372 . S
C2055 C2054 1.372 . S
C2055 C2056 1.400 . S
C2055 C2060 1.490 . S
C2056 H2046 0.930 . S
C2056 C2055 1.400 . S
C2056 C2059 1.386 . S
H2057 C2073 0.930 . S
H2058 C2074 0.931 . S
C2059 H2047 0.929 . S
C2059 C2053 1.390 . S
C2059 C2056 1.386 . S
C2060 C2055 1.490 . S
C2060 C2062 1.395 . S
C2060 C2063 1.403 . S
H2061 C2067 0.930 . S
C2062 H2048 0.930 . S
C2062 C2060 1.395 . S
C2062 C2065 1.403 . S
C2063 C2060 1.403 . S
C2063 C2064 1.524 . S
C2063 C2067 1.400 . S
C2064 H2049 0.960 . S
C2064 H2050 0.960 . S
C2064 H2051 0.960 . S
C2064 C2063 1.524 . S
C2065 C2062 1.403 . S
C2065 C2066 1.392 . S
C2065 C2069 1.495 . S
C2066 C2065 1.392 . S
C2066 C2067 1.385 . S
C2066 C2068 1.478 . S
C2067 H2061 0.930 . S
C2067 C2063 1.400 . S
C2067 C2066 1.385 . S
C2068 C2066 1.478 . S
C2068 C2070 1.381 . S
C2068 C2074 1.383 . S
C2069 C2065 1.495 . S
C2069 H2075 0.959 . S
C2069 H2076 0.961 . S
C2069 H2077 0.960 . S
C2070 C2068 1.381 . S
C2070 C2071 1.394 . S
C2070 H2078 0.930 . S
C2071 C2070 1.394 . S
C2071 C2072 1.383 . S
C2071 H2079 0.929 . S
C2072 C2071 1.383 . S
C2072 C2073 1.377 . S
C2073 H2057 0.930 . S
C2073 C2072 1.377 . S
C2073 C2074 1.379 . S
C2074 H2058 0.931 . S
C2074 C2068 1.383 . S
C2074 C2073 1.379 . S
H2075 C2069 0.959 . S
H2076 C2069 0.961 . S
H2077 C2069 0.960 . S
H2078 C2070 0.930 . S
H2079 C2071 0.929 . S
H2080 C2088 0.929 . S
H2081 C2090 0.930 . S
H2082 C2092 0.930 . S
H2083 C2095 0.929 . S
H2084 C2098 0.930 . S
H2085 C2100 0.960 . S
H2086 C2100 0.960 . S
H2087 C2100 0.960 . S
C2088 H2080 0.929 . S
C2088 C2089 1.377 . S
C2088 C2090 1.384 . S
C2089 C2088 1.377 . S
C2089 C2095 1.390 . S
C2090 H2081 0.930 . S
C2090 C2088 1.384 . S
C2090 C2091 1.372 . S
C2091 C2090 1.372 . S
C2091 C2092 1.400 . S
C2091 C2096 1.490 . S
C2092 H2082 0.930 . S
C2092 C2091 1.400 . S
C2092 C2095 1.386 . S
H2093 C2109 0.930 . S
H2094 C2110 0.931 . S
C2095 H2083 0.929 . S
C2095 C2089 1.390 . S
C2095 C2092 1.386 . S
C2096 C2091 1.490 . S
C2096 C2098 1.395 . S
C2096 C2099 1.403 . S
H2097 C2103 0.930 . S
C2098 H2084 0.930 . S
C2098 C2096 1.395 . S
C2098 C2101 1.403 . S
C2099 C2096 1.403 . S
C2099 C2100 1.524 . S
C2099 C2103 1.400 . S
C2100 H2085 0.960 . S
C2100 H2086 0.960 . S
C2100 H2087 0.960 . S
C2100 C2099 1.524 . S
C2101 C2098 1.403 . S
C2101 C2102 1.392 . S
C2101 C2105 1.495 . S
C2102 C2101 1.392 . S
C2102 C2103 1.385 . S
C2102 C2104 1.478 . S
C2103 H2097 0.930 . S
C2103 C2099 1.400 . S
C2103 C2102 1.385 . S
C2104 C2102 1.478 . S
C2104 C2106 1.381 . S
C2104 C2110 1.383 . S
C2105 C2101 1.495 . S
C2105 H2111 0.959 . S
C2105 H2112 0.961 . S
C2105 H2113 0.960 . S
C2106 C2104 1.381 . S
C2106 C2107 1.394 . S
C2106 H2114 0.930 . S
C2107 C2106 1.394 . S
C2107 C2108 1.383 . S
C2107 H2115 0.929 . S
C2108 C2107 1.383 . S
C2108 C2109 1.377 . S
C2109 H2093 0.930 . S
C2109 C2108 1.377 . S
C2109 C2110 1.379 . S
C2110 H2094 0.931 . S
C2110 C2104 1.383 . S
C2110 C2109 1.379 . S
H2111 C2105 0.959 . S
H2112 C2105 0.961 . S
H2113 C2105 0.960 . S
H2114 C2106 0.930 . S
H2115 C2107 0.929 . S
H2116 C2124 0.929 . S
H2117 C2126 0.930 . S
H2118 C2128 0.930 . S
H2119 C2131 0.929 . S
H2120 C2134 0.930 . S
H2121 C2136 0.960 . S
H2122 C2136 0.960 . S
H2123 C2136 0.960 . S
C2124 H2116 0.929 . S
C2124 C2125 1.377 . S
C2124 C2126 1.384 . S
C2125 C2124 1.377 . S
C2125 C2131 1.390 . S
C2126 H2117 0.930 . S
C2126 C2124 1.384 . S
C2126 C2127 1.372 . S
C2127 C2126 1.372 . S
C2127 C2128 1.400 . S
C2127 C2132 1.490 . S
C2128 H2118 0.930 . S
C2128 C2127 1.400 . S
C2128 C2131 1.386 . S
H2129 C2145 0.930 . S
H2130 C2146 0.931 . S
C2131 H2119 0.929 . S
C2131 C2125 1.390 . S
C2131 C2128 1.386 . S
C2132 C2127 1.490 . S
C2132 C2134 1.395 . S
C2132 C2135 1.403 . S
H2133 C2139 0.930 . S
C2134 H2120 0.930 . S
C2134 C2132 1.395 . S
C2134 C2137 1.403 . S
C2135 C2132 1.403 . S
C2135 C2136 1.524 . S
C2135 C2139 1.400 . S
C2136 H2121 0.960 . S
C2136 H2122 0.960 . S
C2136 H2123 0.960 . S
C2136 C2135 1.524 . S
C2137 C2134 1.403 . S
C2137 C2138 1.392 . S
C2137 C2141 1.495 . S
C2138 C2137 1.392 . S
C2138 C2139 1.385 . S
C2138 C2140 1.478 . S
C2139 H2133 0.930 . S
C2139 C2135 1.400 . S
C2139 C2138 1.385 . S
C2140 C2138 1.478 . S
C2140 C2142 1.381 . S
C2140 C2146 1.383 . S
C2141 C2137 1.495 . S
C2141 H2147 0.959 . S
C2141 H2148 0.961 . S
C2141 H2149 0.960 . S
C2142 C2140 1.381 . S
C2142 C2143 1.394 . S
C2142 H2150 0.930 . S
C2143 C2142 1.394 . S
C2143 C2144 1.383 . S
C2143 H2151 0.929 . S
C2144 C2143 1.383 . S
C2144 C2145 1.377 . S
C2145 H2129 0.930 . S
C2145 C2144 1.377 . S
C2145 C2146 1.379 . S
C2146 H2130 0.931 . S
C2146 C2140 1.383 . S
C2146 C2145 1.379 . S
H2147 C2141 0.959 . S
H2148 C2141 0.961 . S
H2149 C2141 0.960 . S
H2150 C2142 0.930 . S
H2151 C2143 0.929 . S
H2152 C2160 0.929 . S
H2153 C2162 0.930 . S
H2154 C2164 0.930 . S
H2155 C2167 0.929 . S
H2156 C2170 0.930 . S
H2157 C2172 0.960 . S
H2158 C2172 0.960 . S
H2159 C2172 0.960 . S
C2160 H2152 0.929 . S
C2160 C2161 1.377 . S
C2160 C2162 1.384 . S
C2161 C2160 1.377 . S
C2161 C2167 1.390 . S
C2162 H2153 0.930 . S
C2162 C2160 1.384 . S
C2162 C2163 1.372 . S
C2163 C2162 1.372 . S
C2163 C2164 1.400 . S
C2163 C2168 1.490 . S
C2164 H2154 0.930 . S
C2164 C2163 1.400 . S
C2164 C2167 1.386 . S
H2165 C2181 0.930 . S
H2166 C2182 0.931 . S
C2167 H2155 0.929 . S
C2167 C2161 1.390 . S
C2167 C2164 1.386 . S
C2168 C2163 1.490 . S
C2168 C2170 1.395 . S
C2168 C2171 1.403 . S
H2169 C2175 0.930 . S
C2170 H2156 0.930 . S
C2170 C2168 1.395 . S
C2170 C2173 1.403 . S
C2171 C2168 1.403 . S
C2171 C2172 1.524 . S
C2171 C2175 1.400 . S
C2172 H2157 0.960 . S
C2172 H2158 0.960 . S
C2172 H2159 0.960 . S
C2172 C2171 1.524 . S
C2173 C2170 1.403 . S
C2173 C2174 1.392 . S
C2173 C2177 1.495 . S
C2174 C2173 1.392 . S
C2174 C2175 1.385 . S
C2174 C2176 1.478 . S
C2175 H2169 0.930 . S
C2175 C2171 1.400 . S
C2175 C2174 1.385 . S
C2176 C2174 1.478 . S
C2176 C2178 1.381 . S
C2176 C2182 1.383 . S
C2177 C2173 1.495 . S
C2177 H2183 0.959 . S
C2177 H2184 0.961 . S
C2177 H2185 0.960 . S
C2178 C2176 1.381 . S
C2178 C2179 1.394 . S
C2178 H2186 0.930 . S
C2179 C2178 1.394 . S
C2179 C2180 1.383 . S
C2179 H2187 0.929 . S
C2180 C2179 1.383 . S
C2180 C2181 1.377 . S
C2181 H2165 0.930 . S
C2181 C2180 1.377 . S
C2181 C2182 1.379 . S
C2182 H2166 0.931 . S
C2182 C2176 1.383 . S
C2182 C2181 1.379 . S
H2183 C2177 0.959 . S
H2184 C2177 0.961 . S
H2185 C2177 0.960 . S
H2186 C2178 0.930 . S
H2187 C2179 0.929 . S
H2188 C2196 0.929 . S
H2189 C2198 0.930 . S
H2190 C2200 0.930 . S
H2191 C2203 0.929 . S
H2192 C2206 0.930 . S
H2193 C2208 0.960 . S
H2194 C2208 0.960 . S
H2195 C2208 0.960 . S
C2196 H2188 0.929 . S
C2196 C2197 1.377 . S
C2196 C2198 1.384 . S
C2197 C2196 1.377 . S
C2197 C2203 1.390 . S
C2198 H2189 0.930 . S
C2198 C2196 1.384 . S
C2198 C2199 1.372 . S
C2199 C2198 1.372 . S
C2199 C2200 1.400 . S
C2199 C2204 1.490 . S
C2200 H2190 0.930 . S
C2200 C2199 1.400 . S
C2200 C2203 1.386 . S
H2201 C2217 0.930 . S
H2202 C2218 0.931 . S
C2203 H2191 0.929 . S
C2203 C2197 1.390 . S
C2203 C2200 1.386 . S
C2204 C2199 1.490 . S
C2204 C2206 1.395 . S
C2204 C2207 1.403 . S
H2205 C2211 0.930 . S
C2206 H2192 0.930 . S
C2206 C2204 1.395 . S
C2206 C2209 1.403 . S
C2207 C2204 1.403 . S
C2207 C2208 1.524 . S
C2207 C2211 1.400 . S
C2208 H2193 0.960 . S
C2208 H2194 0.960 . S
C2208 H2195 0.960 . S
C2208 C2207 1.524 . S
C2209 C2206 1.403 . S
C2209 C2210 1.392 . S
C2209 C2213 1.495 . S
C2210 C2209 1.392 . S
C2210 C2211 1.385 . S
C2210 C2212 1.478 . S
C2211 H2205 0.930 . S
C2211 C2207 1.400 . S
C2211 C2210 1.385 . S
C2212 C2210 1.478 . S
C2212 C2214 1.381 . S
C2212 C2218 1.383 . S
C2213 C2209 1.495 . S
C2213 H2219 0.959 . S
C2213 H2220 0.961 . S
C2213 H2221 0.960 . S
C2214 C2212 1.381 . S
C2214 C2215 1.394 . S
C2214 H2222 0.930 . S
C2215 C2214 1.394 . S
C2215 C2216 1.383 . S
C2215 H2223 0.929 . S
C2216 C2215 1.383 . S
C2216 C2217 1.377 . S
C2217 H2201 0.930 . S
C2217 C2216 1.377 . S
C2217 C2218 1.379 . S
C2218 H2202 0.931 . S
C2218 C2212 1.383 . S
C2218 C2217 1.379 . S
H2219 C2213 0.959 . S
H2220 C2213 0.961 . S
H2221 C2213 0.960 . S
H2222 C2214 0.930 . S
H2223 C2215 0.929 . S
H2224 C2232 0.929 . S
H2225 C2234 0.930 . S
H2226 C2236 0.930 . S
H2227 C2239 0.929 . S
H2228 C2242 0.930 . S
H2229 C2244 0.960 . S
H2230 C2244 0.960 . S
H2231 C2244 0.960 . S
C2232 H2224 0.929 . S
C2232 C2233 1.377 . S
C2232 C2234 1.384 . S
C2233 C2232 1.377 . S
C2233 C2239 1.390 . S
C2234 H2225 0.930 . S
C2234 C2232 1.384 . S
C2234 C2235 1.372 . S
C2235 C2234 1.372 . S
C2235 C2236 1.400 . S
C2235 C2240 1.490 . S
C2236 H2226 0.930 . S
C2236 C2235 1.400 . S
C2236 C2239 1.386 . S
H2237 C2253 0.930 . S
H2238 C2254 0.931 . S
C2239 H2227 0.929 . S
C2239 C2233 1.390 . S
C2239 C2236 1.386 . S
C2240 C2235 1.490 . S
C2240 C2242 1.395 . S
C2240 C2243 1.403 . S
H2241 C2247 0.930 . S
C2242 H2228 0.930 . S
C2242 C2240 1.395 . S
C2242 C2245 1.403 . S
C2243 C2240 1.403 . S
C2243 C2244 1.524 . S
C2243 C2247 1.400 . S
C2244 H2229 0.960 . S
C2244 H2230 0.960 . S
C2244 H2231 0.960 . S
C2244 C2243 1.524 . S
C2245 C2242 1.403 . S
C2245 C2246 1.392 . S
C2245 C2249 1.495 . S
C2246 C2245 1.392 . S
C2246 C2247 1.385 . S
C2246 C2248 1.478 . S
C2247 H2241 0.930 . S
C2247 C2243 1.400 . S
C2247 C2246 1.385 . S
C2248 C2246 1.478 . S
C2248 C2250 1.381 . S
C2248 C2254 1.383 . S
C2249 C2245 1.495 . S
C2249 H2255 0.959 . S
C2249 H2256 0.961 . S
C2249 H2257 0.960 . S
C2250 C2248 1.381 . S
C2250 C2251 1.394 . S
C2250 H2258 0.930 . S
C2251 C2250 1.394 . S
C2251 C2252 1.383 . S
C2251 H2259 0.929 . S
C2252 C2251 1.383 . S
C2252 C2253 1.377 . S
C2253 H2237 0.930 . S
C2253 C2252 1.377 . S
C2253 C2254 1.379 . S
C2254 H2238 0.931 . S
C2254 C2248 1.383 . S
C2254 C2253 1.379 . S
H2255 C2249 0.959 . S
H2256 C2249 0.961 . S
H2257 C2249 0.960 . S
H2258 C2250 0.930 . S
H2259 C2251 0.929 . S
H2260 C2268 0.929 . S
H2261 C2270 0.930 . S
H2262 C2272 0.930 . S
H2263 C2275 0.929 . S
H2264 C2278 0.930 . S
H2265 C2280 0.960 . S
H2266 C2280 0.960 . S
H2267 C2280 0.960 . S
C2268 H2260 0.929 . S
C2268 C2269 1.377 . S
C2268 C2270 1.384 . S
C2269 C2268 1.377 . S
C2269 C2275 1.390 . S
C2270 H2261 0.930 . S
C2270 C2268 1.384 . S
C2270 C2271 1.372 . S
C2271 C2270 1.372 . S
C2271 C2272 1.400 . S
C2271 C2276 1.490 . S
C2272 H2262 0.930 . S
C2272 C2271 1.400 . S
C2272 C2275 1.386 . S
H2273 C2289 0.930 . S
H2274 C2290 0.931 . S
C2275 H2263 0.929 . S
C2275 C2269 1.390 . S
C2275 C2272 1.386 . S
C2276 C2271 1.490 . S
C2276 C2278 1.395 . S
C2276 C2279 1.403 . S
H2277 C2283 0.930 . S
C2278 H2264 0.930 . S
C2278 C2276 1.395 . S
C2278 C2281 1.403 . S
C2279 C2276 1.403 . S
C2279 C2280 1.524 . S
C2279 C2283 1.400 . S
C2280 H2265 0.960 . S
C2280 H2266 0.960 . S
C2280 H2267 0.960 . S
C2280 C2279 1.524 . S
C2281 C2278 1.403 . S
C2281 C2282 1.392 . S
C2281 C2285 1.495 . S
C2282 C2281 1.392 . S
C2282 C2283 1.385 . S
C2282 C2284 1.478 . S
C2283 H2277 0.930 . S
C2283 C2279 1.400 . S
C2283 C2282 1.385 . S
C2284 C2282 1.478 . S
C2284 C2286 1.381 . S
C2284 C2290 1.383 . S
C2285 C2281 1.495 . S
C2285 H2291 0.959 . S
C2285 H2292 0.961 . S
C2285 H2293 0.960 . S
C2286 C2284 1.381 . S
C2286 C2287 1.394 . S
C2286 H2294 0.930 . S
C2287 C2286 1.394 . S
C2287 C2288 1.383 . S
C2287 H2295 0.929 . S
C2288 C2287 1.383 . S
C2288 C2289 1.377 . S
C2289 H2273 0.930 . S
C2289 C2288 1.377 . S
C2289 C2290 1.379 . S
C2290 H2274 0.931 . S
C2290 C2284 1.383 . S
C2290 C2289 1.379 . S
H2291 C2285 0.959 . S
H2292 C2285 0.961 . S
H2293 C2285 0.960 . S
H2294 C2286 0.930 . S
H2295 C2287 0.929 . S
H2296 C2304 0.929 . S
H2297 C2306 0.930 . S
H2298 C2308 0.930 . S
H2299 C2311 0.929 . S
H2300 C2314 0.930 . S
H2301 C2316 0.960 . S
H2302 C2316 0.960 . S
H2303 C2316 0.960 . S
C2304 H2296 0.929 . S
C2304 C2305 1.377 . S
C2304 C2306 1.384 . S
C2305 C2304 1.377 . S
C2305 C2311 1.390 . S
C2306 H2297 0.930 . S
C2306 C2304 1.384 . S
C2306 C2307 1.372 . S
C2307 C2306 1.372 . S
C2307 C2308 1.400 . S
C2307 C2312 1.490 . S
C2308 H2298 0.930 . S
C2308 C2307 1.400 . S
C2308 C2311 1.386 . S
H2309 C2325 0.930 . S
H2310 C2326 0.931 . S
C2311 H2299 0.929 . S
C2311 C2305 1.390 . S
C2311 C2308 1.386 . S
C2312 C2307 1.490 . S
C2312 C2314 1.395 . S
C2312 C2315 1.403 . S
H2313 C2319 0.930 . S
C2314 H2300 0.930 . S
C2314 C2312 1.395 . S
C2314 C2317 1.403 . S
C2315 C2312 1.403 . S
C2315 C2316 1.524 . S
C2315 C2319 1.400 . S
C2316 H2301 0.960 . S
C2316 H2302 0.960 . S
C2316 H2303 0.960 . S
C2316 C2315 1.524 . S
C2317 C2314 1.403 . S
C2317 C2318 1.392 . S
C2317 C2321 1.495 . S
C2318 C2317 1.392 . S
C2318 C2319 1.385 . S
C2318 C2320 1.478 . S
C2319 H2313 0.930 . S
C2319 C2315 1.400 . S
C2319 C2318 1.385 . S
C2320 C2318 1.478 . S
C2320 C2322 1.381 . S
C2320 C2326 1.383 . S
C2321 C2317 1.495 . S
C2321 H2327 0.959 . S
C2321 H2328 0.961 . S
C2321 H2329 0.960 . S
C2322 C2320 1.381 . S
C2322 C2323 1.394 . S
C2322 H2330 0.930 . S
C2323 C2322 1.394 . S
C2323 C2324 1.383 . S
C2323 H2331 0.929 . S
C2324 C2323 1.383 . S
C2324 C2325 1.377 . S
C2325 H2309 0.930 . S
C2325 C2324 1.377 . S
C2325 C2326 1.379 . S
C2326 H2310 0.931 . S
C2326 C2320 1.383 . S
C2326 C2325 1.379 . S
H2327 C2321 0.959 . S
H2328 C2321 0.961 . S
H2329 C2321 0.960 . S
H2330 C2322 0.930 . S
H2331 C2323 0.929 . S
H2332 C2340 0.929 . S
H2333 C2342 0.930 . S
H2334 C2344 0.930 . S
H2335 C2347 0.929 . S
H2336 C2350 0.930 . S
H2337 C2352 0.960 . S
H2338 C2352 0.960 . S
H2339 C2352 0.960 . S
C2340 H2332 0.929 . S
C2340 C2341 1.377 . S
C2340 C2342 1.384 . S
C2341 C2340 1.377 . S
C2341 C2347 1.390 . S
C2342 H2333 0.930 . S
C2342 C2340 1.384 . S
C2342 C2343 1.372 . S
C2343 C2342 1.372 . S
C2343 C2344 1.400 . S
C2343 C2348 1.490 . S
C2344 H2334 0.930 . S
C2344 C2343 1.400 . S
C2344 C2347 1.386 . S
H2345 C2361 0.930 . S
H2346 C2362 0.931 . S
C2347 H2335 0.929 . S
C2347 C2341 1.390 . S
C2347 C2344 1.386 . S
C2348 C2343 1.490 . S
C2348 C2350 1.395 . S
C2348 C2351 1.403 . S
H2349 C2355 0.930 . S
C2350 H2336 0.930 . S
C2350 C2348 1.395 . S
C2350 C2353 1.403 . S
C2351 C2348 1.403 . S
C2351 C2352 1.524 . S
C2351 C2355 1.400 . S
C2352 H2337 0.960 . S
C2352 H2338 0.960 . S
C2352 H2339 0.960 . S
C2352 C2351 1.524 . S
C2353 C2350 1.403 . S
C2353 C2354 1.392 . S
C2353 C2357 1.495 . S
C2354 C2353 1.392 . S
C2354 C2355 1.385 . S
C2354 C2356 1.478 . S
C2355 H2349 0.930 . S
C2355 C2351 1.400 . S
C2355 C2354 1.385 . S
C2356 C2354 1.478 . S
C2356 C2358 1.381 . S
C2356 C2362 1.383 . S
C2357 C2353 1.495 . S
C2357 H2363 0.959 . S
C2357 H2364 0.961 . S
C2357 H2365 0.960 . S
C2358 C2356 1.381 . S
C2358 C2359 1.394 . S
C2358 H2366 0.930 . S
C2359 C2358 1.394 . S
C2359 C2360 1.383 . S
C2359 H2367 0.929 . S
C2360 C2359 1.383 . S
C2360 C2361 1.377 . S
C2361 H2345 0.930 . S
C2361 C2360 1.377 . S
C2361 C2362 1.379 . S
C2362 H2346 0.931 . S
C2362 C2356 1.383 . S
C2362 C2361 1.379 . S
H2363 C2357 0.959 . S
H2364 C2357 0.961 . S
H2365 C2357 0.960 . S
H2366 C2358 0.930 . S
H2367 C2359 0.929 . S
C649 C139 1.062 . S
C668 C9 1.042 . S
C685 C6 1.283 . S
C704 C46 1.266 . S
C721 C98 1.187 . S
C740 C59 1.193 . S
C757 C126 1.037 . S
C776 C90 1.008 . S
C793 C175 1.308 . S
C812 C206 1.303 . S
C829 C209 1.316 . S
C848 C258 1.291 . S
C865 C255 1.033 . S
C884 C290 0.991 . S
C901 C178 1.185 . S
C920 C298 1.202 . S
C937 C379 3.915 . S
C956 C19 3.869 . S
C973 C410 1.065 . S
C992 C49 1.046 . S
C1009 C95 1.264 . S
C1028 C535 1.286 . S
C1045 C330 1.146 . S
C1064 C129 1.137 . S
C1081 C449 1.132 . S
C1100 C170 1.128 . S
C1117 C579 3.878 . S
C1136 C219 3.911 . S
C1153 C250 1.062 . S
C1172 C489 1.054 . S
C1189 C615 1.272 . S
C1208 C295 1.272 . S
C1225 C338 1.177 . S
C1244 C538 1.173 . S
C1261 C366 1.281 . S
C1280 C335 1.304 . S
C1297 C418 1.278 . S
C1316 C369 1.328 . S
C1333 C569 1.073 . S
C1352 C459 1.087 . S
C1369 C499 1.188 . S
C1388 C618 1.193 . S
C1405 C450 1.072 . S
C1424 C18 1.067 . S
C1441 C495 1.287 . S
C1460 C15 1.302 . S
C1477 C490 1.183 . S
C1496 C89 1.172 . S
C1513 C99 1.026 . S
C1532 C455 1.011 . S
C1549 C375 1.283 . S
C1568 C166 1.295 . S
C1585 C378 1.319 . S
C1604 C249 1.238 . S
C1621 C539 1.016 . S
C1640 C246 1.033 . S
C1657 C169 1.174 . S
C1676 C529 1.181 . S
C1693 C210 3.915 . S
C1712 C10 3.867 . S
C1729 C419 1.051 . S
C1748 C498 1.054 . S
C1765 C86 1.265 . S
C1784 C286 1.271 . S
C1801 C339 1.147 . S
C1820 C458 1.130 . S
C1837 C138 1.138 . S
C1856 C179 1.170 . S
C1873 C370 3.916 . S
C1892 C570 3.881 . S
C1909 C259 1.063 . S
C1928 C58 1.091 . S
C1945 C606 1.271 . S
C1964 C526 1.286 . S
C1981 C329 1.185 . S
C2000 C289 1.175 . S
C2017 C326 1.308 . S
C2036 C215 1.256 . S
C2053 C409 1.273 . S
C2072 C218 1.309 . S
C2089 C130 1.062 . S
C2108 C578 1.081 . S
C2125 C50 1.183 . S
C2144 C609 1.200 . S
C2161 C486 1.289 . S
C2180 C566 1.276 . S
C2197 C446 1.036 . S
C2216 C610 1.003 . S
C2233 C415 1.026 . S
C2252 C530 1.033 . S
C2269 C575 1.277 . S
C2288 C55 1.275 . S
C2305 C135 1.027 . S
C2324 C619 1.002 . S
C2341 C299 1.017 . S
C2360 C406 1.039 . S
