# Generated by pormake.
# Topology sma, (6)-cn, num edge types: 1
# Building blocks:
#     Node 0, Type 0, BuildingBlock: HISSIN_clean_sbu_0, # of connection points: 6
#     Node 1, Type 0, BuildingBlock: HISSIN_clean_sbu_0, # of connection points: 6
#     Node 2, Type 0, BuildingBlock: HISSIN_clean_sbu_0, # of connection points: 6
#     Edge 3, Type (0, 0), BuildingBlock: MIFKUJ_clean_linker_0, # of connection points: 2
#     Edge 4, Type (0, 0), BuildingBlock: MIFKUJ_clean_linker_0, # of connection points: 2
#     Edge 5, Type (0, 0), BuildingBlock: MIFKUJ_clean_linker_0, # of connection points: 2
#     Edge 6, Type (0, 0), BuildingBlock: MIFKUJ_clean_linker_0, # of connection points: 2
#     Edge 7, Type (0, 0), BuildingBlock: MIFKUJ_clean_linker_0, # of connection points: 2
#     Edge 8, Type (0, 0), BuildingBlock: MIFKUJ_clean_linker_0, # of connection points: 2
#     Edge 9, Type (0, 0), BuildingBlock: MIFKUJ_clean_linker_0, # of connection points: 2
#     Edge 10, Type (0, 0), BuildingBlock: MIFKUJ_clean_linker_0, # of connection points: 2
#     Edge 11, Type (0, 0), BuildingBlock: MIFKUJ_clean_linker_0, # of connection points: 2
# Relax obj value: 0.086
# Max RMSD: 0.189
# Mean RMSD: 0.185
data_MOF--net-sma--node1-HISSIN_clean_sbu_0--edge1-MIFKUJ_clean_linker_0
_symmetry_space_group_name_H-M    P1
_symmetry_Int_Tables_number       1
_symmetry_cell_setting            triclinic
loop_
_symmetry_equiv_pos_as_xyz
'x, y, z'
_cell_length_a     48.923128
_cell_length_b     48.774488
_cell_length_c     17.683018
_cell_angle_alpha  92.665167
_cell_angle_beta   91.454696
_cell_angle_gamma 120.18753
loop_
_atom_site_label
_atom_site_type_symbol
_atom_site_fract_x
_atom_site_fract_y
_atom_site_fract_z
_atom_type_partial_charge
Eu0 Eu 1.02674 0.50225 0.09691 0.0
Eu1 Eu 0.07127 0.58278 0.10577 0.0
C2 C 0.06671 0.54137 0.24237 0.0
C3 C 0.9601 0.41653 0.13071 0.0
C4 C 0.96059 0.40438 0.20103 0.0
C5 C 0.9031 0.37975 0.11642 0.0
C6 C 0.9327 0.38019 0.22862 0.0
C7 C 0.93099 0.40392 0.0888 0.0
C8 C 0.90362 0.36738 0.18643 0.0
C9 C 0.99002 0.44051 0.09882 0.0
O10 O 0.1066 0.56695 0.08191 0.0
O11 O 0.07683 0.51189 0.08471 0.0
C12 C 0.10392 0.53857 0.07818 0.0
O13 O 0.04651 0.51596 -0.01649 0.0
O14 O 0.08487 0.62664 0.17385 0.0
O15 O 0.10358 0.62879 0.0627 0.0
O16 O 0.05485 0.56698 -0.01583 0.0
C17 C 0.05336 0.54183 0.94946 0.0
O18 O 0.99305 0.51971 0.07212 0.0
O19 O 1.02115 0.57025 0.12866 0.0
O20 O 0.08563 0.5649 0.20309 0.0
O21 O 0.98797 0.45727 0.04585 0.0
O22 O 1.01454 0.45747 0.14598 0.0
O23 O 1.03728 0.52186 0.21812 0.0
C24 C 0.1368 0.66921 0.15861 0.0
C25 C 0.16482 0.67349 0.12791 0.0
C26 C 0.16857 0.71319 0.252 0.0
C27 C 0.19442 0.69763 0.15857 0.0
C28 C 0.13903 0.68922 0.2211 0.0
C29 C 0.19664 0.71789 0.22075 0.0
C30 C 0.1051 0.64466 0.12591 0.0
C31 C 0.99477 0.54627 0.09726 0.0
H32 H 0.98262 0.41328 0.2345 0.0
H33 H 0.88126 0.37014 0.08182 0.0
H34 H 0.93395 0.37151 0.28312 0.0
H35 H 0.92979 0.41233 0.03388 0.0
H36 H 0.16395 0.65836 0.07999 0.0
H37 H 0.16938 0.72857 0.29927 0.0
H38 H 0.21559 0.70039 0.1337 0.0
H39 H 0.11782 0.68652 0.2457 0.0
Eu40 Eu 0.57574 1.02446 0.44804 0.0
Eu41 Eu 0.53862 0.06725 0.44081 0.0
C42 C 0.57731 0.06738 0.58699 0.0
C43 C 0.59645 0.95931 0.48686 0.0
C44 C 0.57163 0.94216 0.5342 0.0
C45 C 0.61107 0.91862 0.49183 0.0
C46 C 0.56665 0.91338 0.56052 0.0
C47 C 0.61601 0.94729 0.46577 0.0
C48 C 0.58644 0.90131 0.53987 0.0
C49 C 0.6023 0.98951 0.45788 0.0
O50 O 0.58886 0.10222 0.4137 0.0
O51 O 0.61558 0.07498 0.43657 0.0
C52 C 0.61509 0.1008 0.41891 0.0
O53 O 0.57952 0.04145 0.33176 0.0
O54 O 0.50752 0.08061 0.49736 0.0
O55 O 0.52408 0.0977 0.38691 0.0
O56 O 0.53452 0.04512 0.32427 0.0
C57 C 0.55855 0.04512 0.29295 0.0
O58 O 0.52411 0.98906 0.42388 0.0
O59 O 0.50261 1.01793 0.47254 0.0
O60 O 0.57207 0.08502 0.54243 0.0
O61 O 0.58408 0.98741 0.40014 0.0
O62 O 0.60745 1.01236 0.50793 0.0
O63 O 0.56839 0.03778 0.56595 0.0
C64 C 0.51402 0.13087 0.47239 0.0
C65 C 0.5363 0.15911 0.44132 0.0
C66 C 0.49876 0.16173 0.55489 0.0
C67 C 0.53963 0.18837 0.46664 0.0
C68 C 0.49535 0.13256 0.52937 0.0
C69 C 0.52077 0.19005 0.52357 0.0
C70 C 0.50894 0.09934 0.44526 0.0
C71 C 0.49977 0.99084 0.44689 0.0
H72 H 0.55619 0.95105 0.55086 0.0
H73 H 0.62637 0.90982 0.47342 0.0
H74 H 0.54761 0.90082 0.59779 0.0
H75 H 0.63513 0.96008 0.42874 0.0
H76 H 0.55099 0.15863 0.39706 0.0
H77 H 0.48422 0.16205 0.59969 0.0
H78 H 0.55658 0.2096 0.44057 0.0
H79 H 0.47794 0.11117 0.5542 0.0
Eu80 Eu 0.51668 0.5325 0.79236 0.0
Eu81 Eu 0.59506 0.56681 0.76129 0.0
C82 C 0.56706 0.55228 0.92071 0.0
C83 C 0.43251 0.51431 0.85058 0.0
C84 C 0.43395 0.52824 0.92314 0.0
C85 C 0.38035 0.5078 0.82562 0.0
C86 C 0.40863 0.53176 0.94674 0.0
C87 C 0.40556 0.50438 0.8021 0.0
C88 C 0.38133 0.52115 0.89852 0.0
C89 C 0.45731 0.5076 0.82521 0.0
O90 O 0.57807 0.51451 0.75461 0.0
O91 O 0.5274 0.49235 0.79851 0.0
C92 C 0.55167 0.49003 0.77502 0.0
O93 O 0.52024 0.51347 0.67846 0.0
O94 O 0.64267 0.60335 0.8024 0.0
O95 O 0.63628 0.57326 0.70147 0.0
O96 O 0.56902 0.55374 0.64651 0.0
C97 C 0.54158 0.52769 0.62878 0.0
O98 O 0.52938 0.57904 0.74375 0.0
O99 O 0.58333 0.60613 0.77069 0.0
O100 O 0.5857 0.54819 0.87626 0.0
O101 O 0.46743 0.51577 0.75771 0.0
O102 O 0.47983 0.51176 0.87403 0.0
O103 O 0.54875 0.5619 0.89208 0.0
C104 C 0.68261 0.58993 0.78301 0.0
C105 C 0.68977 0.56819 0.74676 0.0
C106 C 0.72597 0.60448 0.87676 0.0
C107 C 0.71469 0.56459 0.77536 0.0
C108 C 0.70116 0.60814 0.84806 0.0
C109 C 0.73315 0.5827 0.84079 0.0
C110 C 0.65651 0.59436 0.75296 0.0
C111 C 0.55695 0.60555 0.75034 0.0
H112 H 0.4543 0.53586 0.96211 0.0
H113 H 0.35996 0.49987 0.78655 0.0
H114 H 0.41003 0.5419 0.0035 0.0
H115 H 0.40374 0.49341 0.74607 0.0
H116 H 0.67623 0.55401 0.69603 0.0
H117 H 0.73932 0.61855 0.92775 0.0
H118 H 0.7198 0.54796 0.74537 0.0
H119 H 0.69649 0.62529 0.87709 0.0
H120 H 0.16568 0.58636 0.09921 0.0
H121 H 0.21325 0.58367 0.07602 0.0
H122 H 0.15546 0.48423 0.00324 0.0
H123 H 0.10773 0.48655 0.02843 0.0
H124 H 0.20361 0.4915 0.08165 0.0
H125 H 0.19233 0.5449 0.87457 0.0
H126 H 0.18507 0.5852 0.81201 0.0
H127 H 0.27208 0.65944 0.92195 0.0
H128 H 0.27972 0.61954 -0.01471 0.0
H129 H 0.31861 0.4761 0.87621 0.0
H130 H 0.27278 0.47991 0.9127 0.0
H131 H 0.33485 0.57418 0.01602 0.0
H132 H 0.38103 0.57078 -0.02189 0.0
H133 H 0.28586 0.57055 0.92564 0.0
H134 H 0.29698 0.51211 0.12528 0.0
H135 H 0.30218 0.46862 0.17614 0.0
H136 H 0.21243 0.3999 0.06646 0.0
H137 H 0.2069 0.44296 0.01405 0.0
C138 C 0.16304 0.5639 0.07813 0.0
C139 C 0.13283 0.53671 0.06522 0.0
C140 C 0.19033 0.56242 0.06454 0.0
C141 C 0.18808 0.53392 0.03611 0.0
C142 C 0.15793 0.50658 0.0247 0.0
C143 C 0.13061 0.50793 0.03911 0.0
C144 C 0.21709 0.53264 0.018 0.0
C145 C 0.22138 0.50861 0.04682 0.0
C146 C 0.24068 0.55516 0.97341 0.0
C147 C 0.2364 0.57927 0.93511 0.0
C148 C 0.20978 0.56984 0.8856 0.0
C149 C 0.20561 0.59259 0.85002 0.0
C150 C 0.22802 0.62486 0.86328 0.0
C151 C 0.25472 0.63443 0.91183 0.0
C152 C 0.25901 0.61176 0.94745 0.0
C153 C 0.32258 0.49773 0.90641 0.0
C154 C 0.35354 0.5232 0.92397 0.0
C155 C 0.29631 0.49976 0.92783 0.0
C156 C 0.30033 0.52723 0.96768 0.0
C157 C 0.33118 0.55272 -0.01452 0.0
C158 C 0.35755 0.55065 0.96429 0.0
C159 C 0.27225 0.52944 -0.01078 0.0
C160 C 0.26815 0.55362 0.9609 0.0
C161 C 0.24854 0.50666 0.03289 0.0
C162 C 0.25164 0.48077 0.06531 0.0
C163 C 0.27845 0.48772 0.11164 0.0
C164 C 0.28144 0.46314 0.14079 0.0
C165 C 0.25768 0.43151 0.12444 0.0
C166 C 0.23082 0.4244 0.07907 0.0
C167 C 0.22773 0.44889 0.04971 0.0
H168 H 0.26005 0.41252 0.147 0.0
H169 H 0.22474 0.64245 0.83577 0.0
H170 H 0.6754 0.11054 0.43385 0.0
H171 H 0.72446 0.15639 0.39789 0.0
H172 H 0.67219 0.201 0.32557 0.0
H173 H 0.62302 0.1552 0.36045 0.0
H174 H 0.71311 0.2045 0.22191 0.0
H175 H 0.71741 0.22604 0.49121 0.0
H176 H 0.71591 0.21346 0.62504 0.0
H177 H 0.79697 0.20231 0.60112 0.0
H178 H 0.79866 0.21435 0.46674 0.0
H179 H 0.8436 0.35867 0.17926 0.0
H180 H 0.79507 0.31395 0.22126 0.0
H181 H 0.84812 0.27088 0.29878 0.0
H182 H 0.89672 0.31541 0.25653 0.0
H183 H 0.80688 0.26647 0.40078 0.0
H184 H 0.80262 0.24403 0.13283 0.0
H185 H 0.80332 0.25406 -0.00269 0.0
H186 H 0.72197 0.26499 0.01725 0.0
H187 H 0.72106 0.2555 0.15324 0.0
C188 C 0.67431 0.13015 0.41067 0.0
C189 C 0.6452 0.12916 0.40047 0.0
C190 C 0.70244 0.15643 0.39037 0.0
C191 C 0.70208 0.1823 0.35966 0.0
C192 C 0.67307 0.18136 0.3493 0.0
C193 C 0.64497 0.15517 0.36973 0.0
C194 C 0.7318 0.21006 0.33669 0.0
C195 C 0.73345 0.21837 0.26132 0.0
C196 C 0.75865 0.22759 0.38756 0.0
C197 C 0.75798 0.22081 0.46868 0.0
C198 C 0.73479 0.2207 0.51433 0.0
C199 C 0.73392 0.21369 0.59031 0.0
C200 C 0.75628 0.207 0.62151 0.0
C201 C 0.77964 0.20745 0.57685 0.0
C202 C 0.78058 0.21439 0.50079 0.0
C203 C 0.84494 0.33959 0.20477 0.0
C204 C 0.87412 0.34065 0.21419 0.0
C205 C 0.81715 0.31403 0.22889 0.0
C206 C 0.81783 0.28881 0.26245 0.0
C207 C 0.84697 0.29005 0.27318 0.0
C208 C 0.87479 0.31562 0.24918 0.0
C209 C 0.78815 0.26107 0.28597 0.0
C210 C 0.78651 0.2527 0.3614 0.0
C211 C 0.76131 0.24336 0.23506 0.0
C212 C 0.76201 0.24942 0.15346 0.0
C213 C 0.78507 0.2489 0.10851 0.0
C214 C 0.78547 0.25442 0.03157 0.0
C215 C 0.76277 0.26026 -0.00126 0.0
C216 C 0.73958 0.26053 0.04279 0.0
C217 C 0.73911 0.25507 0.1198 0.0
H218 H 0.76309 0.26448 0.93914 0.0
H219 H 0.75554 0.20154 0.68032 0.0
H220 H 0.63172 0.88753 0.5868 0.0
H221 H 0.62424 0.83682 0.62449 0.0
H222 H 0.52297 0.79523 0.59553 0.0
H223 H 0.53025 0.84595 0.55653 0.0
H224 H 0.54029 0.7769 0.7246 0.0
H225 H 0.56124 0.77996 0.4618 0.0
H226 H 0.59021 0.80284 0.34786 0.0
H227 H 0.67257 0.80517 0.44616 0.0
H228 H 0.64423 0.78272 0.56127 0.0
H229 H 0.50766 0.61596 0.71982 0.0
H230 H 0.51075 0.6657 0.68808 0.0
H231 H 0.61271 0.71361 0.71071 0.0
H232 H 0.60992 0.66408 0.7421 0.0
H233 H 0.5923 0.72738 0.58174 0.0
H234 H 0.57122 0.7252 0.84609 0.0
H235 H 0.54182 0.70208 0.9594 0.0
H236 H 0.45894 0.69736 0.85674 0.0
H237 H 0.48774 0.72006 0.74231 0.0
C238 C 0.60782 0.86759 0.58788 0.0
C239 C 0.5816 0.87081 0.56763 0.0
C240 C 0.60359 0.8386 0.60975 0.0
C241 C 0.57306 0.81205 0.61179 0.0
C242 C 0.54676 0.81537 0.59424 0.0
C243 C 0.55097 0.84444 0.57216 0.0
C244 C 0.56887 0.78077 0.63056 0.0
C245 C 0.55126 0.76581 0.6927 0.0
C246 C 0.58358 0.76652 0.58971 0.0
C247 C 0.6007 0.77993 0.52048 0.0
C248 C 0.58561 0.78559 0.4594 0.0
C249 C 0.60191 0.79844 0.39455 0.0
C250 C 0.63324 0.80553 0.38985 0.0
C251 C 0.64831 0.79971 0.44993 0.0
C252 C 0.63214 0.78689 0.51497 0.0
C253 C 0.53077 0.63708 0.71839 0.0
C254 C 0.55855 0.63592 0.73363 0.0
C255 C 0.53247 0.66556 0.70049 0.0
C256 C 0.56196 0.69348 0.69743 0.0
C257 C 0.58969 0.6924 0.71271 0.0
C258 C 0.58802 0.66401 0.73095 0.0
C259 C 0.56408 0.72367 0.67643 0.0
C260 C 0.58125 0.73839 0.61361 0.0
C261 C 0.54887 0.73759 0.71653 0.0
C262 C 0.53153 0.724 0.7853 0.0
C263 C 0.54664 0.71897 0.8474 0.0
C264 C 0.5301 0.706 0.91188 0.0
C265 C 0.4985 0.69816 0.91517 0.0
C266 C 0.4834 0.70338 0.85406 0.0
C267 C 0.49982 0.71633 0.78939 0.0
H268 H 0.48574 0.68813 0.96516 0.0
H269 H 0.64581 0.81547 0.33958 0.0
H270 H 0.79122 0.62935 0.90254 0.0
H271 H 0.83454 0.6234 0.95403 0.0
H272 H 0.77992 0.52234 0.89722 0.0
H273 H 0.73582 0.52789 0.84868 0.0
H274 H 0.80864 0.53349 0.03336 0.0
H275 H 0.84105 0.5732 0.78911 0.0
H276 H 0.85281 0.60991 0.68749 0.0
H277 H 0.92437 0.68672 0.83385 0.0
H278 H 0.91273 0.65054 0.93674 0.0
H279 H 0.93482 0.50044 0.04623 0.0
H280 H 0.89019 0.50739 0.01174 0.0
H281 H 0.9459 0.60709 0.08317 0.0
H282 H 0.99094 0.60043 0.11737 0.0
H283 H 0.91699 0.59773 0.94379 0.0
H284 H 0.88534 0.55609 0.1868 0.0
H285 H 0.87365 0.5181 0.2853 0.0
H286 H 0.80065 0.44333 0.13737 0.0
H287 H 0.81219 0.4808 0.03754 0.0
C288 C 0.78818 0.60577 0.90168 0.0
C289 C 0.75989 0.57911 0.87122 0.0
C290 C 0.8132 0.60245 0.93046 0.0
C291 C 0.81076 0.57247 0.92869 0.0
C292 C 0.78247 0.54576 0.89903 0.0
C293 C 0.75736 0.54903 0.87052 0.0
C294 C 0.83767 0.56898 0.95774 0.0
C295 C 0.83224 0.54728 0.01306 0.0
C296 C 0.86871 0.58742 0.93266 0.0
C297 C 0.87579 0.60923 0.87088 0.0
C298 C 0.85912 0.59798 0.79982 0.0
C299 C 0.8658 0.61867 0.74196 0.0
C300 C 0.88926 0.65064 0.75428 0.0
C301 C 0.90617 0.66196 0.82444 0.0
C302 C 0.89956 0.64136 0.88253 0.0
C303 C 0.93757 0.52382 0.05559 0.0
C304 C 0.96659 0.54989 0.08464 0.0
C305 C 0.9119 0.52772 0.036 0.0
C306 C 0.91457 0.55774 0.04516 0.0
C307 C 0.94326 0.58369 0.0756 0.0
C308 C 0.96896 0.5798 0.09554 0.0
C309 C 0.88795 0.56224 0.0193 0.0
C310 C 0.89343 0.58409 0.96441 0.0
C311 C 0.85694 0.54376 0.04436 0.0
C312 C 0.84983 0.52121 0.10445 0.0
C313 C 0.86696 0.5315 0.17505 0.0
C314 C 0.86033 0.51006 0.23117 0.0
C315 C 0.83648 0.47831 0.21754 0.0
C316 C 0.81914 0.46794 0.14782 0.0
C317 C 0.82569 0.48927 0.09149 0.0
H318 H 0.83138 0.46175 0.26105 0.0
H319 H 0.8944 0.66663 0.7094 0.0
H320 H 0.44226 0.98486 0.47738 0.0
H321 H 0.38971 0.9377 0.45306 0.0
H322 H 0.4325 0.88413 0.37127 0.0
H323 H 0.48494 0.93077 0.39663 0.0
H324 H 0.36125 0.90613 0.3226 0.0
H325 H 0.38643 0.80642 0.40119 0.0
H326 H 0.42047 0.79855 0.49242 0.0
H327 H 0.42436 0.87141 0.64601 0.0
H328 H 0.39002 0.87942 0.55621 0.0
H329 H 0.24675 0.75888 0.1412 0.0
H330 H 0.29717 0.8042 0.19124 0.0
H331 H 0.26771 0.78315 0.41937 0.0
H332 H 0.2174 0.73727 0.36971 0.0
H333 H 0.32933 0.79919 0.40864 0.0
H334 H 0.26397 0.842 0.33879 0.0
H335 H 0.22867 0.85076 0.25406 0.0
H336 H 0.30228 0.89338 0.09779 0.0
H337 H 0.3379 0.88446 0.18112 0.0
C338 C 0.44054 0.96293 0.45528 0.0
C339 C 0.46793 0.9617 0.43903 0.0
C340 C 0.41043 0.936 0.44106 0.0
C341 C 0.40707 0.90725 0.41074 0.0
C342 C 0.4344 0.90583 0.39581 0.0
C343 C 0.46445 0.93266 0.4101 0.0
C344 C 0.37508 0.8792 0.3909 0.0
C345 C 0.35428 0.8828 0.34173 0.0
C346 C 0.36568 0.84875 0.41651 0.0
C347 C 0.38585 0.84368 0.47162 0.0
C348 C 0.3944 0.82064 0.45461 0.0
C349 C 0.41379 0.81618 0.50603 0.0
C350 C 0.42464 0.83453 0.57486 0.0
C351 C 0.41603 0.85729 0.59256 0.0
C352 C 0.39664 0.86182 0.54137 0.0
C353 C 0.25114 0.76361 0.20206 0.0
C354 C 0.22796 0.74451 0.25143 0.0
C355 C 0.27988 0.78971 0.23058 0.0
C356 C 0.28607 0.79734 0.30906 0.0
C357 C 0.26339 0.77781 0.35863 0.0
C358 C 0.23457 0.75174 0.33012 0.0
C359 C 0.31595 0.82609 0.33906 0.0
C360 C 0.33632 0.82258 0.38993 0.0
C361 C 0.32479 0.85674 0.31598 0.0
C362 C 0.30351 0.86232 0.26592 0.0
C363 C 0.27255 0.85304 0.2861 0.0
C364 C 0.2525 0.85806 0.23836 0.0
C365 C 0.2632 0.87256 0.17051 0.0
C366 C 0.29402 0.88213 0.15034 0.0
C367 C 0.31416 0.87712 0.19784 0.0
H368 H 0.24764 0.87643 0.13363 0.0
H369 H 0.43969 0.83108 0.61454 0.0
H370 H 0.4977 0.43138 0.77491 0.0
H371 H 0.49217 0.37969 0.73876 0.0
H372 H 0.5929 0.42498 0.71411 0.0
H373 H 0.59859 0.47657 0.74908 0.0
H374 H 0.56145 0.38732 0.59235 0.0
H375 H 0.55696 0.37783 0.86131 0.0
H376 H 0.53686 0.37852 -0.01256 0.0
H377 H 0.44448 0.3028 0.90831 0.0
H378 H 0.46391 0.30198 0.78129 0.0
H379 H 0.57492 0.24867 0.54597 0.0
H380 H 0.57952 0.29903 0.59149 0.0
H381 H 0.4783 0.25207 0.60844 0.0
H382 H 0.47336 0.2018 0.56153 0.0
H383 H 0.50897 0.29009 0.7344 0.0
H384 H 0.51312 0.29922 0.4664 0.0
H385 H 0.53193 0.30009 0.33803 0.0
H386 H 0.62392 0.37758 0.41334 0.0
H387 H 0.60584 0.37681 0.54255 0.0
C388 C 0.51876 0.43027 0.7632 0.0
C389 C 0.54856 0.4582 0.76458 0.0
C390 C 0.51556 0.40067 0.74251 0.0
C391 C 0.54214 0.39841 0.72364 0.0
C392 C 0.57203 0.42611 0.72794 0.0
C393 C 0.57523 0.45563 0.74823 0.0
C394 C 0.53876 0.36764 0.69487 0.0
C395 C 0.55042 0.36618 0.62396 0.0
C396 C 0.52349 0.3398 0.73504 0.0
C397 C 0.51182 0.34006 0.81156 0.0
C398 C 0.5323 0.36148 0.87063 0.0
C399 C 0.52104 0.36188 0.94231 0.0
C400 C 0.4894 0.34077 0.95583 0.0
C401 C 0.46897 0.31916 0.89773 0.0
C402 C 0.4801 0.31871 0.82589 0.0
C403 C 0.55356 0.24908 0.55835 0.0
C404 C 0.52376 0.22103 0.55008 0.0
C405 C 0.55625 0.27792 0.58465 0.0
C406 C 0.52924 0.27939 0.60312 0.0
C407 C 0.4995 0.2515 0.59495 0.0
C408 C 0.49676 0.22271 0.56838 0.0
C409 C 0.53199 0.30988 0.6321 0.0
C410 C 0.52012 0.31126 0.70288 0.0
C411 C 0.54704 0.33771 0.59174 0.0
C412 C 0.55824 0.33762 0.51452 0.0
C413 C 0.53749 0.31615 0.4559 0.0
C414 C 0.54799 0.3167 0.38289 0.0
C415 C 0.57913 0.33879 0.36761 0.0
C416 C 0.59984 0.36039 0.42531 0.0
C417 C 0.58948 0.3599 0.49846 0.0
H418 H 0.58719 0.33924 0.311 0.0
H419 H 0.48072 0.34112 0.01136 0.0
H420 H 1.03165 0.49834 0.83034 0.0
H421 H 0.05977 0.50008 0.71732 0.0
H422 H 0.13716 0.59275 0.79764 0.0
H423 H 0.1079 0.59167 0.9088 0.0
H424 H 0.12759 0.59466 0.66116 0.0
H425 H 0.14752 0.52519 0.7834 0.0
H426 H 0.14098 0.48246 0.8632 0.0
H427 H 0.07025 0.4127 0.7021 0.0
H428 H 0.0762 0.455 0.62151 0.0
H429 H 0.12903 0.56407 0.27686 0.0
H430 H 0.15304 0.56156 0.39668 0.0
H431 H 0.06011 0.50214 0.47809 0.0
H432 H 1.03571 0.50434 0.35779 0.0
H433 H 0.11385 0.4939 0.54271 0.0
H434 H 0.08304 0.58045 0.49657 0.0
H435 H 0.09121 0.62338 0.41468 0.0
H436 H 0.19179 0.66151 0.43541 0.0
H437 H 0.18406 0.61862 0.51703 0.0
C438 C 0.05439 0.51924 0.8228 0.0
C439 C 0.06742 0.54512 0.87655 0.0
C440 C 0.07089 0.51994 0.75951 0.0
C441 C 0.10124 0.54602 0.75056 0.0
C442 C 0.11405 0.57218 0.804 0.0
C443 C 0.09712 0.57181 0.8665 0.0
C444 C 0.11728 0.54701 0.68037 0.0
C445 C 0.12615 0.57314 0.6366 0.0
C446 C 0.11652 0.51943 0.64842 0.0
C447 C 0.11257 0.49344 0.69606 0.0
C448 C 0.13056 0.50076 0.76502 0.0
C449 C 0.12691 0.47659 0.81048 0.0
C450 C 0.10521 0.44487 0.78779 0.0
C451 C 0.08715 0.43729 0.71948 0.0
C452 C 0.09078 0.46139 0.67365 0.0
C453 C 0.11364 0.54995 0.31978 0.0
C454 C 0.08046 0.53543 0.30976 0.0
C455 C 0.12749 0.54805 0.3874 0.0
C456 C 0.10831 0.5319 0.44579 0.0
C457 C 0.07521 0.51453 0.43292 0.0
C458 C 0.06128 0.51624 0.36496 0.0
C459 C 0.12109 0.54027 0.52453 0.0
C460 C 0.11774 0.51609 0.56966 0.0
C461 C 0.12826 0.57006 0.55864 0.0
C462 C 0.13301 0.59658 0.51283 0.0
C463 C 0.10687 0.59817 0.48397 0.0
C464 C 0.11141 0.62238 0.43743 0.0
C465 C 0.142 0.64518 0.41992 0.0
C466 C 0.16812 0.64386 0.44909 0.0
C467 C 0.16368 0.61964 0.49548 0.0
H468 H 0.14548 0.66385 0.38373 0.0
H469 H 0.10237 0.42618 0.82315 0.0
H470 H 0.5701 0.10343 0.26382 0.0
H471 H 0.59904 0.13416 0.15847 0.0
H472 H 0.6 0.05186 0.06 0.0
H473 H 0.57342 1.02213 0.16877 0.0
H474 H 0.65511 0.1033 0.04457 0.0
H475 H 0.54131 0.07577 0.00714 0.0
H476 H 0.49597 0.08072 0.04796 0.0
H477 H 0.55386 0.18251 0.0593 0.0
H478 H 0.59954 0.17806 0.01896 0.0
H479 H 0.58986 0.03871 0.70099 0.0
H480 H 0.61498 0.06294 0.82565 0.0
H481 H 0.63179 0.15408 0.75991 0.0
H482 H 0.60641 0.12999 0.6353 0.0
H483 H 0.59541 0.13522 0.87457 0.0
H484 H 0.69546 0.15201 0.83601 0.0
H485 H 0.73741 0.14364 0.78581 0.0
H486 H 0.70491 0.06005 0.90963 0.0
H487 H 0.66242 0.06751 0.95963 0.0
C488 C 0.57602 0.09187 0.21863 0.0
C489 C 0.56879 0.06024 0.22216 0.0
C490 C 0.59286 0.10952 0.15921 0.0
C491 C 0.60153 0.09528 0.10124 0.0
C492 C 0.59382 0.06344 0.1046 0.0
C493 C 0.57802 0.0462 0.1654 0.0
C494 C 0.61623 0.11203 0.03332 0.0
C495 C 0.6424 0.11061 0.00715 0.0
C496 C 0.60119 0.124 -0.0129 0.0
C497 C 0.57379 0.1266 0.01104 0.0
C498 C 0.54431 0.09917 0.01864 0.0
C499 C 0.51859 0.10188 0.04165 0.0
C500 C 0.52206 0.13191 0.05647 0.0
C501 C 0.55123 0.15928 0.04803 0.0
C502 C 0.57702 0.15668 0.02511 0.0
C503 C 0.59941 0.06399 0.71261 0.0
C504 C 0.59525 0.08219 0.6595 0.0
C505 C 0.61435 0.07801 0.78334 0.0
C506 C 0.62551 0.11044 0.80168 0.0
C507 C 0.62355 0.12913 0.74657 0.0
C508 C 0.60855 0.11513 0.67594 0.0
C509 C 0.63122 0.12186 0.88219 0.0
C510 C 0.60949 0.12956 0.9122 0.0
C511 C 0.65007 0.11525 0.93123 0.0
C512 C 0.67577 0.11051 0.9021 0.0
C513 C 0.69716 0.13177 0.85246 0.0
C514 C 0.72106 0.12718 0.82397 0.0
C515 C 0.72387 0.10138 0.84467 0.0
C516 C 0.70278 0.08011 0.89391 0.0
C517 C 0.67883 0.08459 0.92258 0.0
H518 H 0.74237 0.09783 0.82248 0.0
H519 H 0.50213 0.13397 0.0743 0.0
H520 H 0.48729 0.47454 0.57276 0.0
H521 H 0.47699 0.44732 0.44712 0.0
H522 H 0.5708 0.51716 0.38738 0.0
H523 H 0.58147 0.54424 0.51275 0.0
H524 H 0.47317 0.46881 0.31931 0.0
H525 H 0.60297 0.49023 0.27832 0.0
H526 H 0.63885 0.47651 0.34489 0.0
H527 H 0.56082 0.40489 0.45827 0.0
H528 H 0.52432 0.4179 0.392 0.0
H529 H 0.5433 0.56463 0.04584 0.0
H530 H 0.52307 0.53175 0.15316 0.0
H531 H 0.5447 0.46348 0.04861 0.0
H532 H 0.56712 0.4976 0.94405 0.0
H533 H 0.56025 0.46837 0.18281 0.0
H534 H 0.46496 0.44405 0.07134 0.0
H535 H 0.42416 0.44939 -5e-05 0.0
H536 H 0.42311 0.50996 0.18243 0.0
H537 H 0.46442 0.50573 0.25434 0.0
C538 C 0.50585 0.48402 0.533 0.0
C539 C 0.53516 0.51182 0.55231 0.0
C540 C 0.49994 0.46819 0.46158 0.0
C541 C 0.52331 0.47975 0.40868 0.0
C542 C 0.55271 0.50723 0.42825 0.0
C543 C 0.55863 0.52309 0.49946 0.0
C544 C 0.5161 0.46679 0.32917 0.0
C545 C 0.49167 0.46789 0.28882 0.0
C546 C 0.53852 0.46257 0.2895 0.0
C547 C 0.56077 0.45499 0.32967 0.0
C548 C 0.59332 0.47134 0.31683 0.0
C549 C 0.61384 0.46377 0.35485 0.0
C550 C 0.60213 0.43985 0.40578 0.0
C551 C 0.56989 0.42349 0.419 0.0
C552 C 0.54929 0.43102 0.38135 0.0
C553 C 0.54395 0.54276 0.0464 0.0
C554 C 0.55704 0.53382 -0.01234 0.0
C555 C 0.53178 0.52357 0.10673 0.0
C556 C 0.53134 0.4945 0.10774 0.0
C557 C 0.54449 0.48559 0.04879 0.0
C558 C 0.55753 0.50527 -0.0105 0.0
C559 C 0.52026 0.47566 0.17488 0.0
C560 C 0.5408 0.46776 0.21216 0.0
C561 C 0.49316 0.47183 0.21082 0.0
C562 C 0.46777 0.4743 0.16873 0.0
C563 C 0.45611 0.45858 0.09635 0.0
C564 C 0.43291 0.46146 0.05566 0.0
C565 C 0.42095 0.47986 0.08681 0.0
C566 C 0.43228 0.49555 0.15858 0.0
C567 C 0.45556 0.49284 0.19947 0.0
H568 H 0.40292 0.48199 0.05532 0.0
H569 H 0.61805 0.43401 0.43505 0.0
loop_
_geom_bond_atom_site_label_1
_geom_bond_atom_site_label_2
_geom_bond_distance
_geom_bond_site_symmetry_2
_ccdc_geom_bond_type
Eu0 C9 2.828 . S
Eu0 O11 2.392 1_655 S
Eu0 O13 2.418 . S
Eu0 O18 2.373 . S
Eu0 O21 2.488 . S
Eu0 O22 2.471 . S
Eu0 O23 2.349 1_655 S
Eu1 O10 2.373 . S
Eu1 O14 2.488 . S
Eu1 O15 2.471 . S
Eu1 O16 2.349 . S
Eu1 O19 2.392 1_455 S
Eu1 O20 2.418 . S
Eu1 C30 2.828 . S
C2 O20 1.244 . S
C2 O23 1.265 . S
C3 C4 1.379 . S
C3 C7 1.373 . S
C3 C9 1.505 . S
C4 C3 1.379 . S
C4 C6 1.369 . S
C4 H32 0.930 . S
C5 C7 1.383 . S
C5 C8 1.382 . S
C5 H33 0.930 . S
C6 C4 1.369 . S
C6 C8 1.392 . S
C6 H34 0.930 . S
C7 C3 1.373 . S
C7 C5 1.383 . S
C7 H35 0.931 . S
C8 C5 1.382 . S
C8 C6 1.392 . S
C9 Eu0 2.828 . S
C9 C3 1.505 . S
C9 O21 1.249 . S
C9 O22 1.244 . S
O10 Eu1 2.373 . S
O10 C12 1.258 . S
O11 Eu0 2.392 1_455 S
O11 C12 1.242 . S
C12 O10 1.258 . S
C12 O11 1.242 . S
O13 Eu0 2.418 . S
O13 C17 1.244 1_655 S
O14 Eu1 2.488 . S
O14 C30 1.249 . S
O15 Eu1 2.471 . S
O15 C30 1.244 . S
O16 Eu1 2.349 . S
O16 C17 1.265 . S
C17 O13 1.244 1_455 S
C17 O16 1.265 . S
O18 Eu0 2.373 . S
O18 C31 1.258 . S
O19 Eu1 2.392 1_655 S
O19 C31 1.242 . S
O20 Eu1 2.418 . S
O20 C2 1.244 . S
O21 Eu0 2.488 . S
O21 C9 1.249 . S
O22 Eu0 2.471 . S
O22 C9 1.244 . S
O23 Eu0 2.349 1_455 S
O23 C2 1.265 . S
C24 C25 1.379 . S
C24 C28 1.373 . S
C24 C30 1.505 . S
C25 C24 1.379 . S
C25 C27 1.369 . S
C25 H36 0.930 . S
C26 C28 1.383 . S
C26 C29 1.382 . S
C26 H37 0.930 . S
C27 C25 1.369 . S
C27 C29 1.392 . S
C27 H38 0.930 . S
C28 C24 1.373 . S
C28 C26 1.383 . S
C28 H39 0.931 . S
C29 C26 1.382 . S
C29 C27 1.392 . S
C30 Eu1 2.828 . S
C30 O14 1.249 . S
C30 O15 1.244 . S
C30 C24 1.505 . S
C31 O18 1.258 . S
C31 O19 1.242 . S
H32 C4 0.930 . S
H33 C5 0.930 . S
H34 C6 0.930 . S
H35 C7 0.931 . S
H36 C25 0.930 . S
H37 C26 0.930 . S
H38 C27 0.930 . S
H39 C28 0.931 . S
Eu40 C49 2.828 . S
Eu40 O51 2.392 1_565 S
Eu40 O53 2.418 . S
Eu40 O58 2.373 . S
Eu40 O61 2.488 . S
Eu40 O62 2.471 . S
Eu40 O63 2.349 1_565 S
Eu41 O50 2.373 . S
Eu41 O54 2.488 . S
Eu41 O55 2.471 . S
Eu41 O56 2.349 . S
Eu41 O59 2.392 1_545 S
Eu41 O60 2.418 . S
Eu41 C70 2.828 . S
C42 O60 1.244 . S
C42 O63 1.265 . S
C43 C44 1.379 . S
C43 C47 1.373 . S
C43 C49 1.505 . S
C44 C43 1.379 . S
C44 C46 1.369 . S
C44 H72 0.930 . S
C45 C47 1.383 . S
C45 C48 1.382 . S
C45 H73 0.930 . S
C46 C44 1.369 . S
C46 C48 1.392 . S
C46 H74 0.930 . S
C47 C43 1.373 . S
C47 C45 1.383 . S
C47 H75 0.931 . S
C48 C45 1.382 . S
C48 C46 1.392 . S
C49 Eu40 2.828 . S
C49 C43 1.505 . S
C49 O61 1.249 . S
C49 O62 1.244 . S
O50 Eu41 2.373 . S
O50 C52 1.258 . S
O51 Eu40 2.392 1_545 S
O51 C52 1.242 . S
C52 O50 1.258 . S
C52 O51 1.242 . S
O53 Eu40 2.418 . S
O53 C57 1.244 1_565 S
O54 Eu41 2.488 . S
O54 C70 1.249 . S
O55 Eu41 2.471 . S
O55 C70 1.244 . S
O56 Eu41 2.349 . S
O56 C57 1.265 . S
C57 O53 1.244 1_545 S
C57 O56 1.265 . S
O58 Eu40 2.373 . S
O58 C71 1.258 . S
O59 Eu41 2.392 1_565 S
O59 C71 1.242 . S
O60 Eu41 2.418 . S
O60 C42 1.244 . S
O61 Eu40 2.488 . S
O61 C49 1.249 . S
O62 Eu40 2.471 . S
O62 C49 1.244 . S
O63 Eu40 2.349 1_545 S
O63 C42 1.265 . S
C64 C65 1.379 . S
C64 C68 1.373 . S
C64 C70 1.505 . S
C65 C64 1.379 . S
C65 C67 1.369 . S
C65 H76 0.930 . S
C66 C68 1.383 . S
C66 C69 1.382 . S
C66 H77 0.930 . S
C67 C65 1.369 . S
C67 C69 1.392 . S
C67 H78 0.930 . S
C68 C64 1.373 . S
C68 C66 1.383 . S
C68 H79 0.931 . S
C69 C66 1.382 . S
C69 C67 1.392 . S
C70 Eu41 2.828 . S
C70 O54 1.249 . S
C70 O55 1.244 . S
C70 C64 1.505 . S
C71 O58 1.258 . S
C71 O59 1.242 . S
H72 C44 0.930 . S
H73 C45 0.930 . S
H74 C46 0.930 . S
H75 C47 0.931 . S
H76 C65 0.930 . S
H77 C66 0.930 . S
H78 C67 0.930 . S
H79 C68 0.931 . S
Eu80 C89 2.828 . S
Eu80 O91 2.392 . S
Eu80 O93 2.418 . S
Eu80 O98 2.373 . S
Eu80 O101 2.488 . S
Eu80 O102 2.471 . S
Eu80 O103 2.349 . S
Eu81 O90 2.373 . S
Eu81 O94 2.488 . S
Eu81 O95 2.471 . S
Eu81 O96 2.349 . S
Eu81 O99 2.392 . S
Eu81 O100 2.418 . S
Eu81 C110 2.828 . S
C82 O100 1.244 . S
C82 O103 1.265 . S
C83 C84 1.379 . S
C83 C87 1.373 . S
C83 C89 1.505 . S
C84 C83 1.379 . S
C84 C86 1.369 . S
C84 H112 0.930 . S
C85 C87 1.383 . S
C85 C88 1.382 . S
C85 H113 0.930 . S
C86 C84 1.369 . S
C86 C88 1.392 . S
C86 H114 0.930 . S
C87 C83 1.373 . S
C87 C85 1.383 . S
C87 H115 0.931 . S
C88 C85 1.382 . S
C88 C86 1.392 . S
C89 Eu80 2.828 . S
C89 C83 1.505 . S
C89 O101 1.249 . S
C89 O102 1.244 . S
O90 Eu81 2.373 . S
O90 C92 1.258 . S
O91 Eu80 2.392 . S
O91 C92 1.242 . S
C92 O90 1.258 . S
C92 O91 1.242 . S
O93 Eu80 2.418 . S
O93 C97 1.244 . S
O94 Eu81 2.488 . S
O94 C110 1.249 . S
O95 Eu81 2.471 . S
O95 C110 1.244 . S
O96 Eu81 2.349 . S
O96 C97 1.265 . S
C97 O93 1.244 . S
C97 O96 1.265 . S
O98 Eu80 2.373 . S
O98 C111 1.258 . S
O99 Eu81 2.392 . S
O99 C111 1.242 . S
O100 Eu81 2.418 . S
O100 C82 1.244 . S
O101 Eu80 2.488 . S
O101 C89 1.249 . S
O102 Eu80 2.471 . S
O102 C89 1.244 . S
O103 Eu80 2.349 . S
O103 C82 1.265 . S
C104 C105 1.379 . S
C104 C108 1.373 . S
C104 C110 1.505 . S
C105 C104 1.379 . S
C105 C107 1.369 . S
C105 H116 0.930 . S
C106 C108 1.383 . S
C106 C109 1.382 . S
C106 H117 0.930 . S
C107 C105 1.369 . S
C107 C109 1.392 . S
C107 H118 0.930 . S
C108 C104 1.373 . S
C108 C106 1.383 . S
C108 H119 0.931 . S
C109 C106 1.382 . S
C109 C107 1.392 . S
C110 Eu81 2.828 . S
C110 O94 1.249 . S
C110 O95 1.244 . S
C110 C104 1.505 . S
C111 O98 1.258 . S
C111 O99 1.242 . S
H112 C84 0.930 . S
H113 C85 0.930 . S
H114 C86 0.930 . S
H115 C87 0.931 . S
H116 C105 0.930 . S
H117 C106 0.930 . S
H118 C107 0.930 . S
H119 C108 0.931 . S
H120 C138 0.951 . S
H121 C140 0.951 . S
H122 C142 0.950 1_556 S
H123 C143 0.950 . S
H124 C145 0.950 . S
H125 C148 0.950 1_556 S
H126 C149 0.950 1_556 S
H127 C151 0.950 . S
H128 C152 0.950 . S
H129 C153 0.951 . S
H130 C155 0.951 . S
H131 C157 0.950 1_554 S
H132 C158 0.950 . S
H133 C160 0.950 . S
H134 C163 0.950 . S
H135 C164 0.950 . S
H136 C166 0.950 . S
H137 C167 0.950 . S
C138 H120 0.951 . S
C138 C139 1.366 . S
C138 C140 1.388 . S
C139 C138 1.366 . S
C139 C143 1.385 . S
C140 H121 0.951 . S
C140 C138 1.388 . S
C140 C141 1.366 . S
C141 C140 1.366 . S
C141 C142 1.414 . S
C141 C144 1.499 . S
C142 H122 0.950 1_554 S
C142 C141 1.414 . S
C142 C143 1.374 . S
C143 H123 0.950 . S
C143 C139 1.385 . S
C143 C142 1.374 . S
C144 C141 1.499 . S
C144 C145 1.373 . S
C144 C146 1.389 . S
C145 H124 0.950 . S
C145 C144 1.373 . S
C145 C161 1.377 . S
C146 C144 1.389 . S
C146 C147 1.524 . S
C146 C160 1.377 . S
C147 C146 1.524 . S
C147 C148 1.397 . S
C147 C152 1.363 . S
C148 H125 0.950 1_554 S
C148 C147 1.397 . S
C148 C149 1.334 . S
C149 H126 0.950 1_554 S
C149 C148 1.334 . S
C149 C150 1.287 . S
C150 C149 1.287 . S
C150 C151 1.524 . S
C150 H169 0.913 . S
C151 H127 0.950 . S
C151 C150 1.524 . S
C151 C152 1.415 . S
C152 H128 0.950 . S
C152 C147 1.363 . S
C152 C151 1.415 . S
C153 H129 0.951 . S
C153 C154 1.366 . S
C153 C155 1.388 . S
C154 C153 1.366 . S
C154 C158 1.385 . S
C155 H130 0.951 . S
C155 C153 1.388 . S
C155 C156 1.366 . S
C156 C155 1.366 . S
C156 C157 1.414 . S
C156 C159 1.499 . S
C157 H131 0.950 1_556 S
C157 C156 1.414 . S
C157 C158 1.374 . S
C158 H132 0.950 . S
C158 C154 1.385 . S
C158 C157 1.374 . S
C159 C156 1.499 . S
C159 C160 1.373 1_556 S
C159 C161 1.389 1_556 S
C160 H133 0.950 . S
C160 C146 1.377 . S
C160 C159 1.373 1_554 S
C161 C145 1.377 . S
C161 C159 1.389 1_554 S
C161 C162 1.524 1_554 S
C162 C161 1.524 1_556 S
C162 C163 1.397 1_556 S
C162 C167 1.363 . S
C163 H134 0.950 . S
C163 C162 1.397 1_554 S
C163 C164 1.334 . S
C164 H135 0.950 . S
C164 C163 1.334 . S
C164 C165 1.287 1_554 S
C165 C164 1.287 1_556 S
C165 C166 1.524 . S
C165 H168 0.999 . S
C166 H136 0.950 . S
C166 C165 1.524 . S
C166 C167 1.415 . S
C167 H137 0.950 . S
C167 C162 1.363 . S
C167 C166 1.415 . S
H168 C165 0.999 . S
H169 C150 0.913 . S
H170 C188 0.951 . S
H171 C190 0.951 . S
H172 C192 0.950 . S
H173 C193 0.950 . S
H174 C195 0.950 . S
H175 C198 0.950 . S
H176 C199 0.950 . S
H177 C201 0.950 . S
H178 C202 0.950 . S
H179 C203 0.951 . S
H180 C205 0.951 . S
H181 C207 0.950 . S
H182 C208 0.950 . S
H183 C210 0.950 . S
H184 C213 0.950 . S
H185 C214 0.950 . S
H186 C216 0.950 . S
H187 C217 0.950 . S
C188 H170 0.951 . S
C188 C189 1.366 . S
C188 C190 1.388 . S
C189 C188 1.366 . S
C189 C193 1.385 . S
C190 H171 0.951 . S
C190 C188 1.388 . S
C190 C191 1.366 . S
C191 C190 1.366 . S
C191 C192 1.414 . S
C191 C194 1.499 . S
C192 H172 0.950 . S
C192 C191 1.414 . S
C192 C193 1.374 . S
C193 H173 0.950 . S
C193 C189 1.385 . S
C193 C192 1.374 . S
C194 C191 1.499 . S
C194 C195 1.373 . S
C194 C196 1.389 . S
C195 H174 0.950 . S
C195 C194 1.373 . S
C195 C211 1.377 . S
C196 C194 1.389 . S
C196 C197 1.524 . S
C196 C210 1.377 . S
C197 C196 1.524 . S
C197 C198 1.397 . S
C197 C202 1.363 . S
C198 H175 0.950 . S
C198 C197 1.397 . S
C198 C199 1.334 . S
C199 H176 0.950 . S
C199 C198 1.334 . S
C199 C200 1.287 . S
C200 C199 1.287 . S
C200 C201 1.524 . S
C200 H219 0.913 . S
C201 H177 0.950 . S
C201 C200 1.524 . S
C201 C202 1.415 . S
C202 H178 0.950 . S
C202 C197 1.363 . S
C202 C201 1.415 . S
C203 H179 0.951 . S
C203 C204 1.366 . S
C203 C205 1.388 . S
C204 C203 1.366 . S
C204 C208 1.385 . S
C205 H180 0.951 . S
C205 C203 1.388 . S
C205 C206 1.366 . S
C206 C205 1.366 . S
C206 C207 1.414 . S
C206 C209 1.499 . S
C207 H181 0.950 . S
C207 C206 1.414 . S
C207 C208 1.374 . S
C208 H182 0.950 . S
C208 C204 1.385 . S
C208 C207 1.374 . S
C209 C206 1.499 . S
C209 C210 1.373 . S
C209 C211 1.389 . S
C210 H183 0.950 . S
C210 C196 1.377 . S
C210 C209 1.373 . S
C211 C195 1.377 . S
C211 C209 1.389 . S
C211 C212 1.524 . S
C212 C211 1.524 . S
C212 C213 1.397 . S
C212 C217 1.363 . S
C213 H184 0.950 . S
C213 C212 1.397 . S
C213 C214 1.334 . S
C214 H185 0.950 . S
C214 C213 1.334 . S
C214 C215 1.287 . S
C215 C214 1.287 . S
C215 C216 1.524 . S
C215 H218 0.999 1_554 S
C216 H186 0.950 . S
C216 C215 1.524 . S
C216 C217 1.415 . S
C217 H187 0.950 . S
C217 C212 1.363 . S
C217 C216 1.415 . S
H218 C215 0.999 1_556 S
H219 C200 0.913 . S
H220 C238 0.951 . S
H221 C240 0.951 . S
H222 C242 0.950 . S
H223 C243 0.950 . S
H224 C245 0.950 . S
H225 C248 0.950 . S
H226 C249 0.950 . S
H227 C251 0.950 . S
H228 C252 0.950 . S
H229 C253 0.951 . S
H230 C255 0.951 . S
H231 C257 0.950 . S
H232 C258 0.950 . S
H233 C260 0.950 . S
H234 C263 0.950 . S
H235 C264 0.950 1_554 S
H236 C266 0.950 . S
H237 C267 0.950 . S
C238 H220 0.951 . S
C238 C239 1.366 . S
C238 C240 1.388 . S
C239 C238 1.366 . S
C239 C243 1.385 . S
C240 H221 0.951 . S
C240 C238 1.388 . S
C240 C241 1.366 . S
C241 C240 1.366 . S
C241 C242 1.414 . S
C241 C244 1.499 . S
C242 H222 0.950 . S
C242 C241 1.414 . S
C242 C243 1.374 . S
C243 H223 0.950 . S
C243 C239 1.385 . S
C243 C242 1.374 . S
C244 C241 1.499 . S
C244 C245 1.373 . S
C244 C246 1.389 . S
C245 H224 0.950 . S
C245 C244 1.373 . S
C245 C261 1.377 . S
C246 C244 1.389 . S
C246 C247 1.524 . S
C246 C260 1.377 . S
C247 C246 1.524 . S
C247 C248 1.397 . S
C247 C252 1.363 . S
C248 H225 0.950 . S
C248 C247 1.397 . S
C248 C249 1.334 . S
C249 H226 0.950 . S
C249 C248 1.334 . S
C249 C250 1.287 . S
C250 C249 1.287 . S
C250 C251 1.524 . S
C250 H269 0.913 . S
C251 H227 0.950 . S
C251 C250 1.524 . S
C251 C252 1.415 . S
C252 H228 0.950 . S
C252 C247 1.363 . S
C252 C251 1.415 . S
C253 H229 0.951 . S
C253 C254 1.366 . S
C253 C255 1.388 . S
C254 C253 1.366 . S
C254 C258 1.385 . S
C255 H230 0.951 . S
C255 C253 1.388 . S
C255 C256 1.366 . S
C256 C255 1.366 . S
C256 C257 1.414 . S
C256 C259 1.499 . S
C257 H231 0.950 . S
C257 C256 1.414 . S
C257 C258 1.374 . S
C258 H232 0.950 . S
C258 C254 1.385 . S
C258 C257 1.374 . S
C259 C256 1.499 . S
C259 C260 1.373 . S
C259 C261 1.389 . S
C260 H233 0.950 . S
C260 C246 1.377 . S
C260 C259 1.373 . S
C261 C245 1.377 . S
C261 C259 1.389 . S
C261 C262 1.524 . S
C262 C261 1.524 . S
C262 C263 1.397 . S
C262 C267 1.363 . S
C263 H234 0.950 . S
C263 C262 1.397 . S
C263 C264 1.334 . S
C264 H235 0.950 1_556 S
C264 C263 1.334 . S
C264 C265 1.287 . S
C265 C264 1.287 . S
C265 C266 1.524 . S
C265 H268 0.999 1_556 S
C266 H236 0.950 . S
C266 C265 1.524 . S
C266 C267 1.415 . S
C267 H237 0.950 . S
C267 C262 1.363 . S
C267 C266 1.415 . S
H268 C265 0.999 1_554 S
H269 C250 0.913 . S
H270 C288 0.951 . S
H271 C290 0.951 . S
H272 C292 0.950 . S
H273 C293 0.950 . S
H274 C295 0.950 1_554 S
H275 C298 0.950 . S
H276 C299 0.950 . S
H277 C301 0.950 . S
H278 C302 0.950 . S
H279 C303 0.951 . S
H280 C305 0.951 . S
H281 C307 0.950 . S
H282 C308 0.950 . S
H283 C310 0.950 . S
H284 C313 0.950 . S
H285 C314 0.950 . S
H286 C316 0.950 . S
H287 C317 0.950 . S
C288 H270 0.951 . S
C288 C289 1.366 . S
C288 C290 1.388 . S
C289 C288 1.366 . S
C289 C293 1.385 . S
C290 H271 0.951 . S
C290 C288 1.388 . S
C290 C291 1.366 . S
C291 C290 1.366 . S
C291 C292 1.414 . S
C291 C294 1.499 . S
C292 H272 0.950 . S
C292 C291 1.414 . S
C292 C293 1.374 . S
C293 H273 0.950 . S
C293 C289 1.385 . S
C293 C292 1.374 . S
C294 C291 1.499 . S
C294 C295 1.373 . S
C294 C296 1.389 . S
C295 H274 0.950 1_556 S
C295 C294 1.373 . S
C295 C311 1.377 1_556 S
C296 C294 1.389 . S
C296 C297 1.524 . S
C296 C310 1.377 . S
C297 C296 1.524 . S
C297 C298 1.397 . S
C297 C302 1.363 . S
C298 H275 0.950 . S
C298 C297 1.397 . S
C298 C299 1.334 . S
C299 H276 0.950 . S
C299 C298 1.334 . S
C299 C300 1.287 . S
C300 C299 1.287 . S
C300 C301 1.524 . S
C300 H319 0.913 . S
C301 H277 0.950 . S
C301 C300 1.524 . S
C301 C302 1.415 . S
C302 H278 0.950 . S
C302 C297 1.363 . S
C302 C301 1.415 . S
C303 H279 0.951 . S
C303 C304 1.366 . S
C303 C305 1.388 . S
C304 C303 1.366 . S
C304 C308 1.385 . S
C305 H280 0.951 . S
C305 C303 1.388 . S
C305 C306 1.366 . S
C306 C305 1.366 . S
C306 C307 1.414 . S
C306 C309 1.499 . S
C307 H281 0.950 . S
C307 C306 1.414 . S
C307 C308 1.374 . S
C308 H282 0.950 . S
C308 C304 1.385 . S
C308 C307 1.374 . S
C309 C306 1.499 . S
C309 C310 1.373 1_554 S
C309 C311 1.389 . S
C310 H283 0.950 . S
C310 C296 1.377 . S
C310 C309 1.373 1_556 S
C311 C295 1.377 1_554 S
C311 C309 1.389 . S
C311 C312 1.524 . S
C312 C311 1.524 . S
C312 C313 1.397 . S
C312 C317 1.363 . S
C313 H284 0.950 . S
C313 C312 1.397 . S
C313 C314 1.334 . S
C314 H285 0.950 . S
C314 C313 1.334 . S
C314 C315 1.287 . S
C315 C314 1.287 . S
C315 C316 1.524 . S
C315 H318 0.999 . S
C316 H286 0.950 . S
C316 C315 1.524 . S
C316 C317 1.415 . S
C317 H287 0.950 . S
C317 C312 1.363 . S
C317 C316 1.415 . S
H318 C315 0.999 . S
H319 C300 0.913 . S
H320 C338 0.951 . S
H321 C340 0.951 . S
H322 C342 0.950 . S
H323 C343 0.950 . S
H324 C345 0.950 . S
H325 C348 0.950 . S
H326 C349 0.950 . S
H327 C351 0.950 . S
H328 C352 0.950 . S
H329 C353 0.951 . S
H330 C355 0.951 . S
H331 C357 0.950 . S
H332 C358 0.950 . S
H333 C360 0.950 . S
H334 C363 0.950 . S
H335 C364 0.950 . S
H336 C366 0.950 . S
H337 C367 0.950 . S
C338 H320 0.951 . S
C338 C339 1.366 . S
C338 C340 1.388 . S
C339 C338 1.366 . S
C339 C343 1.385 . S
C340 H321 0.951 . S
C340 C338 1.388 . S
C340 C341 1.366 . S
C341 C340 1.366 . S
C341 C342 1.414 . S
C341 C344 1.499 . S
C342 H322 0.950 . S
C342 C341 1.414 . S
C342 C343 1.374 . S
C343 H323 0.950 . S
C343 C339 1.385 . S
C343 C342 1.374 . S
C344 C341 1.499 . S
C344 C345 1.373 . S
C344 C346 1.389 . S
C345 H324 0.950 . S
C345 C344 1.373 . S
C345 C361 1.377 . S
C346 C344 1.389 . S
C346 C347 1.524 . S
C346 C360 1.377 . S
C347 C346 1.524 . S
C347 C348 1.397 . S
C347 C352 1.363 . S
C348 H325 0.950 . S
C348 C347 1.397 . S
C348 C349 1.334 . S
C349 H326 0.950 . S
C349 C348 1.334 . S
C349 C350 1.287 . S
C350 C349 1.287 . S
C350 C351 1.524 . S
C350 H369 0.913 . S
C351 H327 0.950 . S
C351 C350 1.524 . S
C351 C352 1.415 . S
C352 H328 0.950 . S
C352 C347 1.363 . S
C352 C351 1.415 . S
C353 H329 0.951 . S
C353 C354 1.366 . S
C353 C355 1.388 . S
C354 C353 1.366 . S
C354 C358 1.385 . S
C355 H330 0.951 . S
C355 C353 1.388 . S
C355 C356 1.366 . S
C356 C355 1.366 . S
C356 C357 1.414 . S
C356 C359 1.499 . S
C357 H331 0.950 . S
C357 C356 1.414 . S
C357 C358 1.374 . S
C358 H332 0.950 . S
C358 C354 1.385 . S
C358 C357 1.374 . S
C359 C356 1.499 . S
C359 C360 1.373 . S
C359 C361 1.389 . S
C360 H333 0.950 . S
C360 C346 1.377 . S
C360 C359 1.373 . S
C361 C345 1.377 . S
C361 C359 1.389 . S
C361 C362 1.524 . S
C362 C361 1.524 . S
C362 C363 1.397 . S
C362 C367 1.363 . S
C363 H334 0.950 . S
C363 C362 1.397 . S
C363 C364 1.334 . S
C364 H335 0.950 . S
C364 C363 1.334 . S
C364 C365 1.287 . S
C365 C364 1.287 . S
C365 C366 1.524 . S
C365 H368 0.999 . S
C366 H336 0.950 . S
C366 C365 1.524 . S
C366 C367 1.415 . S
C367 H337 0.950 . S
C367 C362 1.363 . S
C367 C366 1.415 . S
H368 C365 0.999 . S
H369 C350 0.913 . S
H370 C388 0.951 . S
H371 C390 0.951 . S
H372 C392 0.950 . S
H373 C393 0.950 . S
H374 C395 0.950 . S
H375 C398 0.950 . S
H376 C399 0.950 . S
H377 C401 0.950 . S
H378 C402 0.950 . S
H379 C403 0.951 . S
H380 C405 0.951 . S
H381 C407 0.950 . S
H382 C408 0.950 . S
H383 C410 0.950 . S
H384 C413 0.950 . S
H385 C414 0.950 . S
H386 C416 0.950 . S
H387 C417 0.950 . S
C388 H370 0.951 . S
C388 C389 1.366 . S
C388 C390 1.388 . S
C389 C388 1.366 . S
C389 C393 1.385 . S
C390 H371 0.951 . S
C390 C388 1.388 . S
C390 C391 1.366 . S
C391 C390 1.366 . S
C391 C392 1.414 . S
C391 C394 1.499 . S
C392 H372 0.950 . S
C392 C391 1.414 . S
C392 C393 1.374 . S
C393 H373 0.950 . S
C393 C389 1.385 . S
C393 C392 1.374 . S
C394 C391 1.499 . S
C394 C395 1.373 . S
C394 C396 1.389 . S
C395 H374 0.950 . S
C395 C394 1.373 . S
C395 C411 1.377 . S
C396 C394 1.389 . S
C396 C397 1.524 . S
C396 C410 1.377 . S
C397 C396 1.524 . S
C397 C398 1.397 . S
C397 C402 1.363 . S
C398 H375 0.950 . S
C398 C397 1.397 . S
C398 C399 1.334 . S
C399 H376 0.950 . S
C399 C398 1.334 . S
C399 C400 1.287 . S
C400 C399 1.287 . S
C400 C401 1.524 . S
C400 H419 0.913 . S
C401 H377 0.950 . S
C401 C400 1.524 . S
C401 C402 1.415 . S
C402 H378 0.950 . S
C402 C397 1.363 . S
C402 C401 1.415 . S
C403 H379 0.951 . S
C403 C404 1.366 . S
C403 C405 1.388 . S
C404 C403 1.366 . S
C404 C408 1.385 . S
C405 H380 0.951 . S
C405 C403 1.388 . S
C405 C406 1.366 . S
C406 C405 1.366 . S
C406 C407 1.414 . S
C406 C409 1.499 . S
C407 H381 0.950 . S
C407 C406 1.414 . S
C407 C408 1.374 . S
C408 H382 0.950 . S
C408 C404 1.385 . S
C408 C407 1.374 . S
C409 C406 1.499 . S
C409 C410 1.373 . S
C409 C411 1.389 . S
C410 H383 0.950 . S
C410 C396 1.377 . S
C410 C409 1.373 . S
C411 C395 1.377 . S
C411 C409 1.389 . S
C411 C412 1.524 . S
C412 C411 1.524 . S
C412 C413 1.397 . S
C412 C417 1.363 . S
C413 H384 0.950 . S
C413 C412 1.397 . S
C413 C414 1.334 . S
C414 H385 0.950 . S
C414 C413 1.334 . S
C414 C415 1.287 . S
C415 C414 1.287 . S
C415 C416 1.524 . S
C415 H418 0.999 . S
C416 H386 0.950 . S
C416 C415 1.524 . S
C416 C417 1.415 . S
C417 H387 0.950 . S
C417 C412 1.363 . S
C417 C416 1.415 . S
H418 C415 0.999 . S
H419 C400 0.913 . S
H420 C438 0.951 . S
H421 C440 0.951 . S
H422 C442 0.950 . S
H423 C443 0.948 1_554 S
H424 C445 0.950 . S
H425 C448 0.950 . S
H426 C449 0.950 . S
H427 C451 0.950 . S
H428 C452 0.950 . S
H429 C453 0.951 . S
H430 C455 0.951 . S
H431 C457 0.950 . S
H432 C458 0.950 . S
H433 C460 0.950 . S
H434 C463 0.950 1_655 S
H435 C464 0.950 1_655 S
H436 C466 0.950 . S
H437 C467 0.950 . S
C438 H420 0.951 . S
C438 C439 1.366 1_656 S
C438 C440 1.388 . S
C439 C438 1.366 1_454 S
C439 C443 1.385 1_554 S
C440 H421 0.951 . S
C440 C438 1.388 . S
C440 C441 1.366 1_655 S
C441 C440 1.366 1_455 S
C441 C442 1.414 . S
C441 C444 1.499 . S
C442 H422 0.950 . S
C442 C441 1.414 . S
C442 C443 1.374 . S
C443 H423 0.948 1_556 S
C443 C439 1.385 1_556 S
C443 C442 1.374 . S
C444 C441 1.499 . S
C444 C445 1.373 . S
C444 C446 1.389 . S
C445 H424 0.950 . S
C445 C444 1.373 . S
C445 C461 1.377 . S
C446 C444 1.389 . S
C446 C447 1.524 . S
C446 C460 1.377 . S
C447 C446 1.524 . S
C447 C448 1.397 . S
C447 C452 1.363 1_455 S
C448 H425 0.950 . S
C448 C447 1.397 . S
C448 C449 1.334 . S
C449 H426 0.950 . S
C449 C448 1.334 . S
C449 C450 1.287 . S
C450 C449 1.287 . S
C450 C451 1.524 1_455 S
C450 H469 0.913 . S
C451 H427 0.950 . S
C451 C450 1.524 1_655 S
C451 C452 1.415 . S
C452 H428 0.950 . S
C452 C447 1.363 1_655 S
C452 C451 1.415 . S
C453 H429 0.951 . S
C453 C454 1.366 . S
C453 C455 1.388 . S
C454 C453 1.366 . S
C454 C458 1.385 1_455 S
C455 H430 0.951 . S
C455 C453 1.388 . S
C455 C456 1.366 . S
C456 C455 1.366 . S
C456 C457 1.414 1_455 S
C456 C459 1.499 . S
C457 H431 0.950 . S
C457 C456 1.414 1_655 S
C457 C458 1.374 . S
C458 H432 0.950 . S
C458 C454 1.385 1_655 S
C458 C457 1.374 . S
C459 C456 1.499 . S
C459 C460 1.373 . S
C459 C461 1.389 . S
C460 H433 0.950 . S
C460 C446 1.377 . S
C460 C459 1.373 . S
C461 C445 1.377 . S
C461 C459 1.389 . S
C461 C462 1.524 . S
C462 C461 1.524 . S
C462 C463 1.397 . S
C462 C467 1.363 . S
C463 H434 0.950 1_455 S
C463 C462 1.397 . S
C463 C464 1.334 . S
C464 H435 0.950 1_455 S
C464 C463 1.334 . S
C464 C465 1.287 . S
C465 C464 1.287 . S
C465 C466 1.524 . S
C465 H468 0.999 . S
C466 H436 0.950 . S
C466 C465 1.524 . S
C466 C467 1.415 . S
C467 H437 0.950 . S
C467 C462 1.363 . S
C467 C466 1.415 . S
H468 C465 0.999 . S
H469 C450 0.913 . S
H470 C488 0.951 . S
H471 C490 0.951 . S
H472 C492 0.950 . S
H473 C493 0.950 . S
H474 C495 0.950 . S
H475 C498 0.950 . S
H476 C499 0.950 . S
H477 C501 0.950 . S
H478 C502 0.950 . S
H479 C503 0.951 . S
H480 C505 0.951 . S
H481 C507 0.950 . S
H482 C508 0.950 . S
H483 C510 0.950 . S
H484 C513 0.950 1_545 S
H485 C514 0.950 . S
H486 C516 0.950 . S
H487 C517 0.950 . S
C488 H470 0.951 . S
C488 C489 1.366 . S
C488 C490 1.388 . S
C489 C488 1.366 . S
C489 C493 1.385 1_545 S
C490 H471 0.951 . S
C490 C488 1.388 . S
C490 C491 1.366 . S
C491 C490 1.366 . S
C491 C492 1.414 1_545 S
C491 C494 1.499 . S
C492 H472 0.950 . S
C492 C491 1.414 1_565 S
C492 C493 1.374 . S
C493 H473 0.950 . S
C493 C489 1.385 1_565 S
C493 C492 1.374 . S
C494 C491 1.499 . S
C494 C495 1.373 1_545 S
C494 C496 1.389 . S
C495 H474 0.950 . S
C495 C494 1.373 1_565 S
C495 C511 1.377 1_554 S
C496 C494 1.389 . S
C496 C497 1.524 . S
C496 C510 1.377 1_554 S
C497 C496 1.524 . S
C497 C498 1.397 . S
C497 C502 1.363 . S
C498 H475 0.950 . S
C498 C497 1.397 . S
C498 C499 1.334 . S
C499 H476 0.950 . S
C499 C498 1.334 . S
C499 C500 1.287 . S
C500 C499 1.287 . S
C500 C501 1.524 . S
C500 H519 0.913 . S
C501 H477 0.950 . S
C501 C500 1.524 . S
C501 C502 1.415 . S
C502 H478 0.950 . S
C502 C497 1.363 . S
C502 C501 1.415 . S
C503 H479 0.951 . S
C503 C504 1.366 1_565 S
C503 C505 1.388 . S
C504 C503 1.366 1_545 S
C504 C508 1.385 . S
C505 H480 0.951 . S
C505 C503 1.388 . S
C505 C506 1.366 1_565 S
C506 C505 1.366 1_545 S
C506 C507 1.414 . S
C506 C509 1.499 . S
C507 H481 0.950 . S
C507 C506 1.414 . S
C507 C508 1.374 . S
C508 H482 0.950 . S
C508 C504 1.385 . S
C508 C507 1.374 . S
C509 C506 1.499 . S
C509 C510 1.373 . S
C509 C511 1.389 1_545 S
C510 H483 0.950 . S
C510 C496 1.377 1_556 S
C510 C509 1.373 . S
C511 C495 1.377 1_556 S
C511 C509 1.389 1_565 S
C511 C512 1.524 . S
C512 C511 1.524 . S
C512 C513 1.397 . S
C512 C517 1.363 . S
C513 H484 0.950 1_565 S
C513 C512 1.397 . S
C513 C514 1.334 . S
C514 H485 0.950 . S
C514 C513 1.334 . S
C514 C515 1.287 . S
C515 C514 1.287 . S
C515 C516 1.524 . S
C515 H518 0.999 . S
C516 H486 0.950 . S
C516 C515 1.524 . S
C516 C517 1.415 . S
C517 H487 0.950 . S
C517 C512 1.363 . S
C517 C516 1.415 . S
H518 C515 0.999 . S
H519 C500 0.913 . S
H520 C538 0.951 . S
H521 C540 0.951 . S
H522 C542 0.950 . S
H523 C543 0.950 . S
H524 C545 0.950 . S
H525 C548 0.950 . S
H526 C549 0.950 . S
H527 C551 0.950 . S
H528 C552 0.950 . S
H529 C553 0.951 . S
H530 C555 0.951 . S
H531 C557 0.950 . S
H532 C558 0.943 1_556 S
H533 C560 0.950 . S
H534 C563 0.950 . S
H535 C564 0.950 . S
H536 C566 0.950 . S
H537 C567 0.950 . S
C538 H520 0.951 . S
C538 C539 1.366 . S
C538 C540 1.388 . S
C539 C538 1.366 . S
C539 C543 1.385 . S
C540 H521 0.951 . S
C540 C538 1.388 . S
C540 C541 1.366 . S
C541 C540 1.366 . S
C541 C542 1.414 . S
C541 C544 1.499 . S
C542 H522 0.950 . S
C542 C541 1.414 . S
C542 C543 1.374 . S
C543 H523 0.950 . S
C543 C539 1.385 . S
C543 C542 1.374 . S
C544 C541 1.499 . S
C544 C545 1.373 . S
C544 C546 1.389 . S
C545 H524 0.950 . S
C545 C544 1.373 . S
C545 C561 1.377 . S
C546 C544 1.389 . S
C546 C547 1.524 . S
C546 C560 1.377 . S
C547 C546 1.524 . S
C547 C548 1.397 . S
C547 C552 1.363 . S
C548 H525 0.950 . S
C548 C547 1.397 . S
C548 C549 1.334 . S
C549 H526 0.950 . S
C549 C548 1.334 . S
C549 C550 1.287 . S
C550 C549 1.287 . S
C550 C551 1.524 . S
C550 H569 0.913 . S
C551 H527 0.950 . S
C551 C550 1.524 . S
C551 C552 1.415 . S
C552 H528 0.950 . S
C552 C547 1.363 . S
C552 C551 1.415 . S
C553 H529 0.951 . S
C553 C554 1.366 1_554 S
C553 C555 1.388 . S
C554 C553 1.366 1_556 S
C554 C558 1.385 1_556 S
C555 H530 0.951 . S
C555 C553 1.388 . S
C555 C556 1.366 . S
C556 C555 1.366 . S
C556 C557 1.414 . S
C556 C559 1.499 . S
C557 H531 0.950 . S
C557 C556 1.414 . S
C557 C558 1.374 . S
C558 H532 0.943 1_554 S
C558 C554 1.385 1_554 S
C558 C557 1.374 . S
C559 C556 1.499 . S
C559 C560 1.373 . S
C559 C561 1.389 . S
C560 H533 0.950 . S
C560 C546 1.377 . S
C560 C559 1.373 . S
C561 C545 1.377 . S
C561 C559 1.389 . S
C561 C562 1.524 . S
C562 C561 1.524 . S
C562 C563 1.397 . S
C562 C567 1.363 . S
C563 H534 0.950 . S
C563 C562 1.397 . S
C563 C564 1.334 . S
C564 H535 0.950 . S
C564 C563 1.334 . S
C564 C565 1.287 . S
C565 C564 1.287 . S
C565 C566 1.524 . S
C565 H568 0.999 . S
C566 H536 0.950 . S
C566 C565 1.524 . S
C566 C567 1.415 . S
C567 H537 0.950 . S
C567 C562 1.363 . S
C567 C566 1.415 . S
H568 C565 0.999 . S
H569 C550 0.913 . S
C139 C12 2.069 . S
C154 C88 2.076 . S
C189 C52 2.167 . S
C204 C8 2.183 . S
C239 C48 2.067 . S
C254 C111 2.058 . S
C289 C109 2.091 . S
C304 C31 2.134 . S
C339 C71 2.028 . S
C354 C29 1.982 . S
C389 C92 2.153 . S
C404 C69 2.104 . S
C439 C17 0.366 . S
C454 C2 0.366 . S
C489 C57 0.379 . S
C504 C42 0.379 . S
C539 C97 0.377 . S
C554 C82 0.377 . S
