# Generated by pormake.
# Topology fnt, (5)-cn, num edge types: 1
# Building blocks:
#     Node 0, Type 0, BuildingBlock: XOMCOT_clean_sbu_0, # of connection points: 5
#     Node 1, Type 0, BuildingBlock: XOMCOT_clean_sbu_0, # of connection points: 5
#     Node 2, Type 0, BuildingBlock: XOMCOT_clean_sbu_0, # of connection points: 5
#     Node 3, Type 0, BuildingBlock: XOMCOT_clean_sbu_0, # of connection points: 5
#     Node 4, Type 0, BuildingBlock: XOMCOT_clean_sbu_0, # of connection points: 5
#     Node 5, Type 0, BuildingBlock: XOMCOT_clean_sbu_0, # of connection points: 5
#     Edge 6, Type (0, 0), BuildingBlock: OJICUG_clean_linker_0, # of connection points: 2
#     Edge 7, Type (0, 0), BuildingBlock: OJICUG_clean_linker_0, # of connection points: 2
#     Edge 8, Type (0, 0), BuildingBlock: OJICUG_clean_linker_0, # of connection points: 2
#     Edge 9, Type (0, 0), BuildingBlock: OJICUG_clean_linker_0, # of connection points: 2
#     Edge 10, Type (0, 0), BuildingBlock: OJICUG_clean_linker_0, # of connection points: 2
#     Edge 11, Type (0, 0), BuildingBlock: OJICUG_clean_linker_0, # of connection points: 2
#     Edge 12, Type (0, 0), BuildingBlock: OJICUG_clean_linker_0, # of connection points: 2
#     Edge 13, Type (0, 0), BuildingBlock: OJICUG_clean_linker_0, # of connection points: 2
#     Edge 14, Type (0, 0), BuildingBlock: OJICUG_clean_linker_0, # of connection points: 2
#     Edge 15, Type (0, 0), BuildingBlock: OJICUG_clean_linker_0, # of connection points: 2
#     Edge 16, Type (0, 0), BuildingBlock: OJICUG_clean_linker_0, # of connection points: 2
#     Edge 17, Type (0, 0), BuildingBlock: OJICUG_clean_linker_0, # of connection points: 2
#     Edge 18, Type (0, 0), BuildingBlock: OJICUG_clean_linker_0, # of connection points: 2
#     Edge 19, Type (0, 0), BuildingBlock: OJICUG_clean_linker_0, # of connection points: 2
#     Edge 20, Type (0, 0), BuildingBlock: OJICUG_clean_linker_0, # of connection points: 2
# Relax obj value: 0.141
# Max RMSD: 0.161
# Mean RMSD: 0.161
data_MOF--net-fnt--node1-XOMCOT_clean_sbu_0--edge1-OJICUG_clean_linker_0
_symmetry_space_group_name_H-M    P1
_symmetry_Int_Tables_number       1
_symmetry_cell_setting            triclinic
loop_
_symmetry_equiv_pos_as_xyz
'x, y, z'
_cell_length_a     20.879723
_cell_length_b     20.885644
_cell_length_c     37.425965
_cell_angle_alpha  89.830885
_cell_angle_beta   90.222858
_cell_angle_gamma 120.0695
loop_
_atom_site_label
_atom_site_type_symbol
_atom_site_fract_x
_atom_site_fract_y
_atom_site_fract_z
_atom_type_partial_charge
Co0 Co 0.19171 0.27883 0.04346 0.0
C1 C 0.14664 0.24711 0.11994 0.0
C2 C 0.25077 0.34709 0.11414 0.0
C3 C 0.22984 0.33922 0.14952 0.0
N4 N 0.19837 0.28942 0.09544 0.0
N5 N 0.16379 0.27657 0.15312 0.0
H6 H 0.09446 0.19888 0.11321 0.0
H7 H 0.29905 0.39393 0.10275 0.0
C8 C 0.34699 0.38189 1.01403 0.0
O9 O 0.31827 0.37225 0.98194 0.0
N10 N 0.18321 0.26463 0.99206 0.0
C11 C 0.14056 0.27665 0.96904 0.0
C12 C 0.14321 0.2487 0.9361 0.0
C13 C 0.20852 0.22683 0.97314 0.0
N14 N 0.18609 0.2173 0.93865 0.0
C15 C 0.11133 0.34678 0.06045 0.0
C16 C 0.17464 0.46731 1.01523 0.0
C17 C 0.11177 0.45213 0.03513 0.0
C18 C 0.08063 0.39127 0.05787 0.0
C19 C 0.2044 0.4202 1.01868 0.0
N20 N 0.1716 0.35992 0.04082 0.0
H21 H 0.08366 0.29919 0.07755 0.0
H22 H 0.25109 0.43092 1.00254 0.0
H23 H 0.10773 0.30166 0.97583 0.0
H24 H 0.24207 0.20608 0.98478 0.0
O25 O 0.0898 0.2037 0.04597 0.0
O26 O 0.182 0.18062 0.04837 0.0
O27 O 0.30516 0.34863 0.041 0.0
C28 C 0.11045 0.15524 0.04817 0.0
H29 H 0.26 0.37835 0.17057 0.0
H30 H 0.11514 0.25122 0.91225 0.0
H31 H 0.19994 0.51434 0.99731 0.0
H32 H 0.03133 0.37693 0.07328 0.0
Co33 Co 0.90668 0.1881 0.37575 0.0
C34 C 0.89902 0.14444 0.45239 0.0
C35 C 0.88764 0.24016 0.44597 0.0
C36 C 0.87343 0.21736 0.48108 0.0
N37 N 0.90304 0.194 0.42777 0.0
N38 N 0.87966 0.15636 0.48515 0.0
H39 H 0.90498 0.09749 0.44589 0.0
H40 H 0.88137 0.28396 0.43408 0.0
C41 C 0.95673 0.34369 0.34732 0.0
O42 O 0.93652 0.3159 0.31517 0.0
N43 N 0.91196 0.18064 0.32426 0.0
C44 C 0.85794 0.13381 0.30195 0.0
C45 C 0.88841 0.13731 0.26884 0.0
C46 C 0.9748 0.2097 0.30477 0.0
N47 N 0.96186 0.18536 0.27068 0.0
C48 C 0.75891 0.10731 0.3939 0.0
C49 C 0.69913 0.16654 0.34764 0.0
C50 C 0.65246 0.10465 0.3685 0.0
C51 C 0.68349 0.0755 0.39172 0.0
C52 C 0.77625 0.19745 0.35069 0.0
N53 N 0.80504 0.16689 0.37348 0.0
H54 H 0.77991 0.081 0.41133 0.0
H55 H 0.81131 0.24315 0.33375 0.0
H56 H 0.8009 0.09747 0.30945 0.0
H57 H 0.02913 0.24714 0.3156 0.0
O58 O 0.88015 0.08643 0.37796 0.0
O59 O 0.99557 0.17887 0.38003 0.0
O60 O 0.94967 0.30132 0.37387 0.0
C61 C 0.9494 0.10728 0.37969 0.0
H62 H 0.85485 0.24133 0.50122 0.0
H63 H 0.85881 0.10653 0.24532 0.0
H64 H 0.6764 0.19015 0.32924 0.0
H65 H 0.64944 0.02675 0.40775 0.0
Co66 Co 0.71826 0.90375 0.71025 0.0
C67 C 0.75284 0.89374 0.78699 0.0
C68 C 0.65245 0.89703 0.78107 0.0
C69 C 0.66112 0.88516 0.81656 0.0
N70 N 0.7098 0.90207 0.76233 0.0
N71 N 0.72396 0.88223 0.82025 0.0
H72 H 0.80109 0.88987 0.78038 0.0
H73 H 0.60517 0.89767 0.76964 0.0
C74 C 0.61412 0.95503 0.68088 0.0
O75 O 0.62171 0.9343 0.64891 0.0
N76 N 0.73023 0.90733 0.65867 0.0
C77 C 0.71707 0.85166 0.63626 0.0
C78 C 0.74193 0.88067 0.60268 0.0
C79 C 0.76595 0.96956 0.63873 0.0
N80 N 0.77259 0.95502 0.60417 0.0
C81 C 0.64978 0.75614 0.72938 0.0
C82 C 0.52916 0.69704 0.68408 0.0
C83 C 0.54453 0.65006 0.70467 0.0
C84 C 0.60527 0.68077 0.72756 0.0
C85 C 0.57609 0.77409 0.68689 0.0
N86 N 0.63658 0.80251 0.70897 0.0
H87 H 0.69773 0.77675 0.74633 0.0
H88 H 0.5653 0.80939 0.67014 0.0
H89 H 0.69297 0.79417 0.64381 0.0
H90 H 0.78676 0.02439 0.64962 0.0
O91 O 0.79294 0.87646 0.71279 0.0
O92 O 0.81693 0.99214 0.71384 0.0
O93 O 0.64893 0.94778 0.70765 0.0
C94 C 0.84183 0.94564 0.71409 0.0
H95 H 0.6224 0.8766 0.83768 0.0
H96 H 0.7375 0.84894 0.57908 0.0
H97 H 0.4823 0.6746 0.66599 0.0
H98 H 0.61999 0.64648 0.74342 0.0
Co99 Co 0.80963 0.72188 0.04631 0.0
C100 C 0.84525 0.75575 0.1238 0.0
C101 C 0.74676 0.65111 0.11593 0.0
C102 C 0.76497 0.65896 0.1517 0.0
N103 N 0.7976 0.71151 0.09821 0.0
N104 N 0.82778 0.72437 0.15661 0.0
H105 H 0.89605 0.80638 0.11807 0.0
H106 H 0.70226 0.60222 0.10358 0.0
C107 C 0.66052 0.60687 1.0144 0.0
O108 O 0.69289 0.61657 0.98333 0.0
N109 N 0.82236 0.73584 0.99494 0.0
C110 C 0.87482 0.73505 0.97435 0.0
C111 C 0.87185 0.76095 0.94075 0.0
C112 C 0.79045 0.76497 0.97399 0.0
N113 N 0.81849 0.77947 0.94056 0.0
C114 C 0.89678 0.66422 0.06868 0.0
C115 C 0.85982 0.55473 1.01871 0.0
C116 C 0.92262 0.5769 0.04044 0.0
C117 C 0.93977 0.63191 0.06576 0.0
C118 C 0.81816 0.59053 1.02208 0.0
N119 N 0.83839 0.64636 0.04636 0.0
H120 H 0.91606 0.70935 0.08715 0.0
H121 H 0.77337 0.57596 1.00378 0.0
H122 H 0.91448 0.71962 0.9834 0.0
H123 H 0.74838 0.7766 0.9834 0.0
O124 O 0.9088 0.80083 0.05106 0.0
O125 O 0.81283 0.81788 0.04898 0.0
O126 O 0.69792 0.64605 0.04138 0.0
C127 C 0.88484 0.84667 0.05115 0.0
H128 H 0.73595 0.61761 0.17207 0.0
H129 H 0.90674 0.76623 0.91832 0.0
H130 H 0.84422 0.51181 0.99884 0.0
H131 H 0.98884 0.65351 0.08236 0.0
Co132 Co 0.07986 0.80559 0.38041 0.0
C133 C 0.08109 0.84208 0.45738 0.0
C134 C 0.09534 0.74823 0.45034 0.0
C135 C 0.10798 0.76928 0.48579 0.0
N136 N 0.07939 0.79458 0.43233 0.0
N137 N 0.1003 0.82919 0.48996 0.0
H138 H 0.07518 0.8895 0.45151 0.0
H139 H 0.10383 0.7062 0.43815 0.0
C140 C 0.04489 0.65648 0.34896 0.0
O141 O 0.06633 0.68877 0.31775 0.0
N142 N 0.07768 0.81771 0.32904 0.0
C143 C 0.13044 0.87037 0.3082 0.0
C144 C 0.10037 0.86822 0.27499 0.0
C145 C 0.01584 0.78637 0.30863 0.0
N146 N 0.02831 0.81512 0.27534 0.0
C147 C 0.22522 0.89267 0.40205 0.0
C148 C 0.29649 0.85384 0.35235 0.0
C149 C 0.33785 0.91646 0.37393 0.0
C150 C 0.30068 0.93469 0.39909 0.0
C151 C 0.21895 0.81311 0.35579 0.0
N152 N 0.18406 0.83415 0.38 0.0
H153 H 0.19979 0.91241 0.4205 0.0
H154 H 0.18818 0.76828 0.33767 0.0
H155 H 0.18589 0.90989 0.31692 0.0
H156 H 0.96223 0.7445 0.31841 0.0
O157 O 0.10056 0.90485 0.38465 0.0
O158 O 0.98719 0.80901 0.38325 0.0
O159 O 0.04382 0.69382 0.37604 0.0
C160 C 0.03073 0.88104 0.38483 0.0
H161 H 0.12796 0.74648 0.50608 0.0
H162 H 0.12914 0.90364 0.2525 0.0
H163 H 0.32336 0.83759 0.33259 0.0
H164 H 0.32898 0.98372 0.41558 0.0
Co165 Co 0.27505 0.07731 0.71365 0.0
C166 C 0.23923 0.07426 0.79085 0.0
C167 C 0.34975 0.09568 0.78286 0.0
C168 C 0.34181 0.10893 0.81815 0.0
N169 N 0.28577 0.07525 0.76547 0.0
N170 N 0.27254 0.09686 0.82313 0.0
H171 H 0.18431 0.06404 0.7851 0.0
H172 H 0.40099 0.10758 0.77015 0.0
C173 C 0.38999 0.04408 0.68183 0.0
O174 O 0.37985 0.06687 0.65078 0.0
N175 N 0.2611 0.07698 0.66234 0.0
C176 C 0.26126 0.13058 0.64217 0.0
C177 C 0.2339 0.10223 0.60876 0.0
C178 C 0.23088 0.01616 0.64133 0.0
N179 N 0.21482 0.03009 0.60817 0.0
C180 C 0.33267 0.22172 0.73637 0.0
C181 C 0.44235 0.29558 0.68659 0.0
C182 C 0.42056 0.33569 0.70865 0.0
C183 C 0.36546 0.29721 0.73387 0.0
C184 C 0.40626 0.21796 0.6896 0.0
N185 N 0.35044 0.18176 0.71383 0.0
H186 H 0.28759 0.19523 0.75489 0.0
H187 H 0.4206 0.18813 0.67111 0.0
H188 H 0.27631 0.18528 0.65157 0.0
H189 H 0.2207 0.96274 0.65053 0.0
O190 O 0.19614 0.09737 0.71835 0.0
O191 O 0.1788 0.9843 0.71606 0.0
O192 O 0.35102 0.04188 0.70887 0.0
C193 C 0.1501 0.02754 0.71801 0.0
H194 H 0.38619 0.13243 0.83758 0.0
H195 H 0.22585 0.13203 0.58716 0.0
H196 H 0.48527 0.32347 0.66677 0.0
H197 H 0.34435 0.32447 0.75074 0.0
C198 C 0.46226 0.47624 0.04851 0.0
C199 C 0.42836 0.43467 1.01742 0.0
H200 H 0.5623 0.56424 0.0723 0.0
C201 C 0.47235 0.4486 0.98688 0.0
H202 H 0.42996 0.46732 0.07247 0.0
C203 C 0.54669 0.50349 0.98667 0.0
C204 C 0.58081 0.54727 1.01702 0.0
H205 H 0.44892 0.41755 0.9625 0.0
H206 H 0.57717 0.51187 0.96211 0.0
C207 C 0.53791 0.53219 0.0483 0.0
C208 C 0.01731 0.46987 0.32107 0.0
C209 C 0.98589 0.42489 0.35124 0.0
H210 H 0.05986 0.57541 0.29685 0.0
C211 C 0.97704 0.45764 0.38237 0.0
H212 H 0.02587 0.44725 0.29671 0.0
C213 C 0.9967 0.53321 0.38249 0.0
C214 C 0.02559 0.57707 0.35149 0.0
H215 H 0.95258 0.42442 0.40606 0.0
H216 H 0.98792 0.55672 0.40644 0.0
C217 C 0.03673 0.54411 0.32118 0.0
C218 C 0.49265 0.03347 0.65376 0.0
C219 C 0.44963 0.02409 0.6843 0.0
H220 H 0.57778 0.02121 0.62932 0.0
C221 C 0.46542 0.99658 0.71561 0.0
H222 H 0.48371 0.05535 0.62916 0.0
C223 C 0.52123 0.97683 0.71567 0.0
C224 C 0.56194 0.98411 0.6844 0.0
H225 H 0.43399 0.98917 0.73974 0.0
H226 H 0.53065 0.95361 0.73967 0.0
C227 C 0.54739 0.01393 0.65383 0.0
C228 C 0.49262 0.52985 0.67168 0.0
C229 C 0.50049 0.5689 0.70342 0.0
H230 H 0.46108 0.42416 0.64826 0.0
C231 C 0.48117 0.53093 0.73604 0.0
H232 H 0.50872 0.55861 0.6463 0.0
C233 C 0.45965 0.45675 0.73747 0.0
C234 C 0.45182 0.41674 0.70605 0.0
H235 H 0.48752 0.56006 0.76092 0.0
H236 H 0.44982 0.43095 0.76355 0.0
C237 C 0.4677 0.45375 0.67296 0.0
C238 C 0.00706 0.53963 0.06849 0.0
C239 C 0.97275 0.54613 0.03739 0.0
H240 H 0.08381 0.51247 0.09126 0.0
C241 C 0.99176 0.52894 1.00415 0.0
H242 H 0.99269 0.55019 0.09472 0.0
C243 C 0.04273 0.50384 1.00246 0.0
C244 C 0.07593 0.49726 1.0339 0.0
H245 H 0.96713 0.53445 0.97967 0.0
H246 H 0.05352 0.48645 0.97704 0.0
C247 C 0.05964 0.51812 0.0666 0.0
C248 C 0.45992 0.99813 0.40212 0.0
C249 C 0.41894 0.96533 0.37093 0.0
H250 H 0.56407 0.07376 0.42502 0.0
C251 C 0.4551 0.98509 0.33767 0.0
H252 H 0.43475 0.98317 0.42833 0.0
C253 C 0.53134 0.03569 0.33601 0.0
C254 C 0.57131 0.06763 0.36753 0.0
H255 H 0.42471 0.96154 0.31314 0.0
H256 H 0.55943 0.04739 0.31052 0.0
C257 C 0.53422 0.05031 0.40031 0.0
C258 C 0.07122 0.02164 0.05677 0.0
C259 C 0.05294 0.07635 0.05033 0.0
H260 H 0.03202 0.90663 0.06293 0.0
C261 C 0.9776 0.05552 0.04594 0.0
H262 H 0.12833 0.03593 0.06055 0.0
C263 C 0.92179 0.98116 0.04712 0.0
C264 C 0.94035 0.92635 0.05285 0.0
H265 H 0.96156 0.0967 0.04102 0.0
H266 H 0.86475 0.96663 0.04282 0.0
C267 C 0.01556 0.94755 0.05818 0.0
C268 C 0.06106 0.01175 0.3916 0.0
C269 C 0.00691 0.93671 0.38599 0.0
H270 H 0.08604 0.12464 0.39362 0.0
C271 C 0.93398 0.91855 0.37912 0.0
H272 H 0.11811 0.02784 0.39721 0.0
C273 C 0.91599 0.9746 0.37718 0.0
C274 C 0.97063 0.04977 0.38196 0.0
H275 H 0.89144 0.86166 0.37449 0.0
H276 H 0.85908 0.95886 0.37144 0.0
C277 C 0.04319 0.06768 0.38945 0.0
C278 C 0.01537 0.93033 0.71309 0.0
C279 C 0.07042 0.00351 0.71922 0.0
H280 H 0.89971 0.85501 0.70646 0.0
C281 C 0.04956 0.05767 0.72447 0.0
H282 H 0.02964 0.88773 0.70879 0.0
C283 C 0.97562 0.03958 0.72273 0.0
C284 C 0.92066 0.96676 0.71605 0.0
H285 H 0.09064 0.11493 0.7295 0.0
H286 H 0.96162 0.0825 0.72659 0.0
C287 C 0.94111 0.9121 0.7116 0.0
C288 C 0.16385 0.16013 0.87846 0.0
C289 C 0.20457 0.18178 0.91052 0.0
H290 H 0.15248 0.117 0.82603 0.0
C291 C 0.26483 0.16964 0.91416 0.0
H292 H 0.11624 0.16691 0.87466 0.0
C293 C 0.28504 0.13899 0.8862 0.0
C294 C 0.24627 0.12029 0.85351 0.0
H295 H 0.298 0.18549 0.93823 0.0
H296 H 0.33207 0.13132 0.89017 0.0
C297 C 0.18442 0.13016 0.85041 0.0
C298 C 0.1267 0.30084 0.21239 0.0
C299 C 0.11597 0.25188 0.18418 0.0
H300 H 0.08597 0.31821 0.26175 0.0
C301 C 0.05514 0.1793 0.18606 0.0
H302 H 0.17204 0.35729 0.21201 0.0
C303 C 0.00518 0.15731 0.21453 0.0
C304 C 0.01516 0.20686 0.24216 0.0
H305 H 0.04556 0.13925 0.16546 0.0
H306 H 0.95876 0.10131 0.21496 0.0
C307 C 0.07712 0.2785 0.24104 0.0
C308 C 0.84145 0.1286 0.54892 0.0
C309 C 0.85802 0.10755 0.51605 0.0
H310 H 0.80044 0.09737 0.60204 0.0
C311 C 0.84939 0.03625 0.51362 0.0
H312 H 0.84815 0.18294 0.55251 0.0
C313 C 0.82307 0.98723 0.54257 0.0
C314 C 0.80402 0.00743 0.57494 0.0
H315 H 0.86133 0.01681 0.48924 0.0
H316 H 0.81733 0.93318 0.53929 0.0
C317 C 0.81454 0.07928 0.57779 0.0
C318 C 0.82262 0.87491 0.85431 0.0
C319 C 0.74913 0.86019 0.85165 0.0
H320 H 0.9024 0.86146 0.88462 0.0
C321 C 0.69984 0.82043 0.87952 0.0
H322 H 0.86268 0.90636 0.83383 0.0
C323 C 0.7229 0.79506 0.90877 0.0
C324 C 0.7958 0.80836 0.91099 0.0
H325 H 0.64263 0.80681 0.87843 0.0
H326 H 0.68285 0.76309 0.92918 0.0
C327 C 0.84553 0.84911 0.88351 0.0
C328 C 0.93234 0.82275 0.19146 0.0
C329 C 0.8747 0.74881 0.18812 0.0
H330 H 0.02615 0.90181 0.22171 0.0
C331 C 0.86705 0.6982 0.21506 0.0
H332 H 0.93949 0.86387 0.1718 0.0
C333 C 0.91653 0.72033 0.24384 0.0
C334 C 0.97538 0.79353 0.24646 0.0
H335 H 0.82439 0.64067 0.21351 0.0
H336 H 0.91008 0.67937 0.26348 0.0
C337 C 0.98226 0.84468 0.22012 0.0
C338 C 0.18778 0.00503 0.54347 0.0
C339 C 0.18309 0.97879 0.57859 0.0
H340 H 0.16596 0.97876 0.48806 0.0
C341 C 0.14806 0.90165 0.584 0.0
H342 H 0.21525 0.06368 0.53787 0.0
C343 C 0.11986 0.85255 0.55508 0.0
C344 C 0.1252 0.87916 0.52008 0.0
H345 H 0.14211 0.87876 0.61053 0.0
H346 H 0.09377 0.79368 0.56008 0.0
C347 C 0.15914 0.95601 0.5147 0.0
loop_
_geom_bond_atom_site_label_1
_geom_bond_atom_site_label_2
_geom_bond_distance
_geom_bond_site_symmetry_2
_ccdc_geom_bond_type
Co0 N4 2.148 . S
Co0 N10 2.128 1_554 S
Co0 N20 2.194 . S
Co0 O25 2.351 . S
Co0 O26 2.155 . S
Co0 O27 2.096 . S
C1 N4 1.301 . S
C1 N5 1.328 . S
C1 H6 0.930 . S
C2 C3 1.333 . S
C2 N4 1.317 . S
C2 H7 0.930 . S
C3 C2 1.333 . S
C3 N5 1.350 . S
C3 H29 0.931 . S
N4 Co0 2.148 . S
N4 C1 1.301 . S
N4 C2 1.317 . S
N5 C1 1.328 . S
N5 C3 1.350 . S
H6 C1 0.930 . S
H7 C2 0.930 . S
C8 O9 1.224 . S
C8 O27 1.247 . S
O9 C8 1.224 . S
N10 Co0 2.128 1_556 S
N10 C11 1.355 . S
N10 C13 1.311 . S
C11 N10 1.355 . S
C11 C12 1.363 . S
C11 H23 0.929 . S
C12 C11 1.363 . S
C12 N14 1.375 . S
C12 H30 0.931 . S
C13 N10 1.311 . S
C13 N14 1.347 . S
C13 H24 0.929 . S
N14 C12 1.375 . S
N14 C13 1.347 . S
C15 C18 1.361 1_554 S
C15 N20 1.328 . S
C15 H21 0.929 . S
C16 C17 1.362 . S
C16 C19 1.376 1_556 S
C16 H31 0.929 . S
C17 C16 1.362 . S
C17 C18 1.370 . S
C18 C15 1.361 1_556 S
C18 C17 1.370 . S
C18 H32 0.930 1_455 S
C19 C16 1.376 1_554 S
C19 N20 1.316 . S
C19 H22 0.930 . S
N20 Co0 2.194 . S
N20 C15 1.328 . S
N20 C19 1.316 . S
H21 C15 0.929 . S
H22 C19 0.930 . S
H23 C11 0.929 . S
H24 C13 0.929 . S
O25 Co0 2.351 . S
O25 C28 1.244 . S
O26 Co0 2.155 . S
O26 C28 1.240 . S
O27 Co0 2.096 . S
O27 C8 1.247 . S
C28 O25 1.244 . S
C28 O26 1.240 . S
H29 C3 0.931 . S
H30 C12 0.931 . S
H31 C16 0.929 . S
H32 C18 0.930 1_655 S
Co33 N37 2.148 . S
Co33 N43 2.128 . S
Co33 N53 2.194 . S
Co33 O58 2.351 . S
Co33 O59 2.155 . S
Co33 O60 2.096 . S
C34 N37 1.301 . S
C34 N38 1.328 . S
C34 H39 0.930 . S
C35 C36 1.333 . S
C35 N37 1.317 . S
C35 H40 0.930 . S
C36 C35 1.333 . S
C36 N38 1.350 . S
C36 H62 0.931 . S
N37 Co33 2.148 . S
N37 C34 1.301 . S
N37 C35 1.317 . S
N38 C34 1.328 . S
N38 C36 1.350 . S
H39 C34 0.930 . S
H40 C35 0.930 . S
C41 O42 1.224 . S
C41 O60 1.247 . S
O42 C41 1.224 . S
N43 Co33 2.128 . S
N43 C44 1.355 . S
N43 C46 1.311 . S
C44 N43 1.355 . S
C44 C45 1.363 . S
C44 H56 0.929 . S
C45 C44 1.363 . S
C45 N47 1.375 . S
C45 H63 0.931 . S
C46 N43 1.311 . S
C46 N47 1.347 . S
C46 H57 0.929 . S
N47 C45 1.375 . S
N47 C46 1.347 . S
C48 C51 1.365 . S
C48 N53 1.328 . S
C48 H54 0.929 . S
C49 C50 1.362 . S
C49 C52 1.378 . S
C49 H64 0.929 . S
C50 C49 1.362 . S
C50 C51 1.366 . S
C51 C48 1.365 . S
C51 C50 1.366 . S
C51 H65 0.930 1_545 S
C52 C49 1.378 . S
C52 N53 1.315 . S
C52 H55 0.930 . S
N53 Co33 2.194 . S
N53 C48 1.328 . S
N53 C52 1.315 . S
H54 C48 0.929 . S
H55 C52 0.930 . S
H56 C44 0.929 . S
H57 C46 0.929 . S
O58 Co33 2.351 . S
O58 C61 1.244 . S
O59 Co33 2.155 . S
O59 C61 1.240 . S
O60 Co33 2.096 . S
O60 C41 1.247 . S
C61 O58 1.244 . S
C61 O59 1.240 . S
H62 C36 0.931 . S
H63 C45 0.931 . S
H64 C49 0.929 . S
H65 C51 0.930 1_565 S
Co66 N70 2.148 . S
Co66 N76 2.128 . S
Co66 N86 2.194 . S
Co66 O91 2.351 . S
Co66 O92 2.155 . S
Co66 O93 2.096 . S
C67 N70 1.301 . S
C67 N71 1.328 . S
C67 H72 0.930 . S
C68 C69 1.333 . S
C68 N70 1.317 . S
C68 H73 0.930 . S
C69 C68 1.333 . S
C69 N71 1.350 . S
C69 H95 0.931 . S
N70 Co66 2.148 . S
N70 C67 1.301 . S
N70 C68 1.317 . S
N71 C67 1.328 . S
N71 C69 1.350 . S
H72 C67 0.930 . S
H73 C68 0.930 . S
C74 O75 1.224 . S
C74 O93 1.247 . S
O75 C74 1.224 . S
N76 Co66 2.128 . S
N76 C77 1.355 . S
N76 C79 1.311 . S
C77 N76 1.355 . S
C77 C78 1.363 . S
C77 H89 0.929 . S
C78 C77 1.363 . S
C78 N80 1.375 . S
C78 H96 0.931 . S
C79 N76 1.311 . S
C79 N80 1.347 . S
C79 H90 0.929 . S
N80 C78 1.375 . S
N80 C79 1.347 . S
C81 C84 1.365 . S
C81 N86 1.328 . S
C81 H87 0.929 . S
C82 C83 1.362 . S
C82 C85 1.378 . S
C82 H97 0.929 . S
C83 C82 1.362 . S
C83 C84 1.366 . S
C84 C81 1.365 . S
C84 C83 1.366 . S
C84 H98 0.930 . S
C85 C82 1.378 . S
C85 N86 1.315 . S
C85 H88 0.930 . S
N86 Co66 2.194 . S
N86 C81 1.328 . S
N86 C85 1.315 . S
H87 C81 0.929 . S
H88 C85 0.930 . S
H89 C77 0.929 . S
H90 C79 0.929 . S
O91 Co66 2.351 . S
O91 C94 1.244 . S
O92 Co66 2.155 . S
O92 C94 1.240 . S
O93 Co66 2.096 . S
O93 C74 1.247 . S
C94 O91 1.244 . S
C94 O92 1.240 . S
H95 C69 0.931 . S
H96 C78 0.931 . S
H97 C82 0.929 . S
H98 C84 0.930 . S
Co99 N103 2.148 . S
Co99 N109 2.128 1_554 S
Co99 N119 2.194 . S
Co99 O124 2.351 . S
Co99 O125 2.155 . S
Co99 O126 2.096 . S
C100 N103 1.301 . S
C100 N104 1.328 . S
C100 H105 0.930 . S
C101 C102 1.333 . S
C101 N103 1.317 . S
C101 H106 0.930 . S
C102 C101 1.333 . S
C102 N104 1.350 . S
C102 H128 0.931 . S
N103 Co99 2.148 . S
N103 C100 1.301 . S
N103 C101 1.317 . S
N104 C100 1.328 . S
N104 C102 1.350 . S
H105 C100 0.930 . S
H106 C101 0.930 . S
C107 O108 1.224 . S
C107 O126 1.247 . S
O108 C107 1.224 . S
N109 Co99 2.128 1_556 S
N109 C110 1.355 . S
N109 C112 1.311 . S
C110 N109 1.355 . S
C110 C111 1.363 . S
C110 H122 0.929 . S
C111 C110 1.363 . S
C111 N113 1.375 . S
C111 H129 0.931 . S
C112 N109 1.311 . S
C112 N113 1.347 . S
C112 H123 0.929 . S
N113 C111 1.375 . S
N113 C112 1.347 . S
C114 C117 1.361 1_554 S
C114 N119 1.328 . S
C114 H120 0.929 . S
C115 C116 1.362 . S
C115 C118 1.376 1_556 S
C115 H130 0.929 . S
C116 C115 1.362 . S
C116 C117 1.370 . S
C117 C114 1.361 1_556 S
C117 C116 1.370 . S
C117 H131 0.930 1_655 S
C118 C115 1.376 1_554 S
C118 N119 1.316 . S
C118 H121 0.930 . S
N119 Co99 2.194 . S
N119 C114 1.328 . S
N119 C118 1.316 . S
H120 C114 0.929 . S
H121 C118 0.930 . S
H122 C110 0.929 . S
H123 C112 0.929 . S
O124 Co99 2.351 . S
O124 C127 1.244 . S
O125 Co99 2.155 . S
O125 C127 1.240 . S
O126 Co99 2.096 . S
O126 C107 1.247 . S
C127 O124 1.244 . S
C127 O125 1.240 . S
H128 C102 0.931 . S
H129 C111 0.931 . S
H130 C115 0.929 . S
H131 C117 0.930 1_455 S
Co132 N136 2.148 . S
Co132 N142 2.128 . S
Co132 N152 2.194 . S
Co132 O157 2.351 . S
Co132 O158 2.155 . S
Co132 O159 2.096 . S
C133 N136 1.301 . S
C133 N137 1.328 . S
C133 H138 0.930 . S
C134 C135 1.333 . S
C134 N136 1.317 . S
C134 H139 0.930 . S
C135 C134 1.333 . S
C135 N137 1.350 . S
C135 H161 0.931 . S
N136 Co132 2.148 . S
N136 C133 1.301 . S
N136 C134 1.317 . S
N137 C133 1.328 . S
N137 C135 1.350 . S
H138 C133 0.930 . S
H139 C134 0.930 . S
C140 O141 1.224 . S
C140 O159 1.247 . S
O141 C140 1.224 . S
N142 Co132 2.128 . S
N142 C143 1.355 . S
N142 C145 1.311 . S
C143 N142 1.355 . S
C143 C144 1.363 . S
C143 H155 0.929 . S
C144 C143 1.363 . S
C144 N146 1.375 . S
C144 H162 0.931 . S
C145 N142 1.311 . S
C145 N146 1.347 . S
C145 H156 0.929 . S
N146 C144 1.375 . S
N146 C145 1.347 . S
C147 C150 1.365 . S
C147 N152 1.328 . S
C147 H153 0.929 . S
C148 C149 1.362 . S
C148 C151 1.378 . S
C148 H163 0.929 . S
C149 C148 1.362 . S
C149 C150 1.366 . S
C150 C147 1.365 . S
C150 C149 1.366 . S
C150 H164 0.930 1_565 S
C151 C148 1.378 . S
C151 N152 1.315 . S
C151 H154 0.930 . S
N152 Co132 2.194 . S
N152 C147 1.328 . S
N152 C151 1.315 . S
H153 C147 0.929 . S
H154 C151 0.930 . S
H155 C143 0.929 . S
H156 C145 0.929 . S
O157 Co132 2.351 . S
O157 C160 1.244 . S
O158 Co132 2.155 . S
O158 C160 1.240 . S
O159 Co132 2.096 . S
O159 C140 1.247 . S
C160 O157 1.244 . S
C160 O158 1.240 . S
H161 C135 0.931 . S
H162 C144 0.931 . S
H163 C148 0.929 . S
H164 C150 0.930 1_545 S
Co165 N169 2.148 . S
Co165 N175 2.128 . S
Co165 N185 2.194 . S
Co165 O190 2.351 . S
Co165 O191 2.155 . S
Co165 O192 2.096 . S
C166 N169 1.301 . S
C166 N170 1.328 . S
C166 H171 0.930 . S
C167 C168 1.333 . S
C167 N169 1.317 . S
C167 H172 0.930 . S
C168 C167 1.333 . S
C168 N170 1.350 . S
C168 H194 0.931 . S
N169 Co165 2.148 . S
N169 C166 1.301 . S
N169 C167 1.317 . S
N170 C166 1.328 . S
N170 C168 1.350 . S
H171 C166 0.930 . S
H172 C167 0.930 . S
C173 O174 1.224 . S
C173 O192 1.247 . S
O174 C173 1.224 . S
N175 Co165 2.128 . S
N175 C176 1.355 . S
N175 C178 1.311 . S
C176 N175 1.355 . S
C176 C177 1.363 . S
C176 H188 0.929 . S
C177 C176 1.363 . S
C177 N179 1.375 . S
C177 H195 0.931 . S
C178 N175 1.311 . S
C178 N179 1.347 . S
C178 H189 0.929 . S
N179 C177 1.375 . S
N179 C178 1.347 . S
C180 C183 1.365 . S
C180 N185 1.328 . S
C180 H186 0.929 . S
C181 C182 1.362 . S
C181 C184 1.378 . S
C181 H196 0.929 . S
C182 C181 1.362 . S
C182 C183 1.366 . S
C183 C180 1.365 . S
C183 C182 1.366 . S
C183 H197 0.930 . S
C184 C181 1.378 . S
C184 N185 1.315 . S
C184 H187 0.930 . S
N185 Co165 2.194 . S
N185 C180 1.328 . S
N185 C184 1.315 . S
H186 C180 0.929 . S
H187 C184 0.930 . S
H188 C176 0.929 . S
H189 C178 0.929 . S
O190 Co165 2.351 . S
O190 C193 1.244 . S
O191 Co165 2.155 . S
O191 C193 1.240 . S
O192 Co165 2.096 . S
O192 C173 1.247 . S
C193 O190 1.244 . S
C193 O191 1.240 . S
H194 C168 0.931 . S
H195 C177 0.931 . S
H196 C181 0.929 . S
H197 C183 0.930 . S
C198 C199 1.387 . S
C198 H202 0.950 . S
C198 C207 1.390 . S
C199 C198 1.387 . S
C199 C201 1.387 1_554 S
H200 C207 0.950 . S
C201 C199 1.387 1_556 S
C201 C203 1.390 . S
C201 H205 0.950 . S
H202 C198 0.950 . S
C203 C201 1.390 . S
C203 C204 1.387 1_556 S
C203 H206 0.950 . S
C204 C203 1.387 1_554 S
C204 C207 1.387 . S
H205 C201 0.950 . S
H206 C203 0.950 . S
C207 C198 1.390 . S
C207 H200 0.950 . S
C207 C204 1.387 . S
C208 C209 1.387 . S
C208 H212 0.950 . S
C208 C217 1.390 1_655 S
C209 C208 1.387 . S
C209 C211 1.387 . S
H210 C217 0.950 . S
C211 C209 1.387 . S
C211 C213 1.390 1_655 S
C211 H215 0.950 . S
H212 C208 0.950 . S
C213 C211 1.390 1_455 S
C213 C214 1.387 . S
C213 H216 0.950 . S
C214 C213 1.387 . S
C214 C217 1.387 . S
H215 C211 0.950 . S
H216 C213 0.950 . S
C217 C208 1.390 1_455 S
C217 H210 0.950 . S
C217 C214 1.387 . S
C218 C219 1.387 . S
C218 H222 0.950 . S
C218 C227 1.390 1_545 S
C219 C218 1.387 . S
C219 C221 1.387 . S
H220 C227 0.950 . S
C221 C219 1.387 . S
C221 C223 1.390 1_545 S
C221 H225 0.950 . S
H222 C218 0.950 . S
C223 C221 1.390 1_565 S
C223 C224 1.387 . S
C223 H226 0.950 . S
C224 C223 1.387 . S
C224 C227 1.387 . S
H225 C221 0.950 . S
H226 C223 0.950 . S
C227 C218 1.390 1_565 S
C227 H220 0.950 . S
C227 C224 1.387 . S
C228 C229 1.387 . S
C228 H232 0.950 . S
C228 C237 1.390 . S
C229 C228 1.387 . S
C229 C231 1.387 . S
H230 C237 0.950 . S
C231 C229 1.387 . S
C231 C233 1.390 . S
C231 H235 0.950 . S
H232 C228 0.950 . S
C233 C231 1.390 . S
C233 C234 1.387 . S
C233 H236 0.950 . S
C234 C233 1.387 . S
C234 C237 1.387 . S
H235 C231 0.950 . S
H236 C233 0.950 . S
C237 C228 1.390 . S
C237 H230 0.950 . S
C237 C234 1.387 . S
C238 C239 1.387 1_554 S
C238 H242 0.950 . S
C238 C247 1.390 1_655 S
C239 C238 1.387 1_556 S
C239 C241 1.387 . S
H240 C247 0.950 . S
C241 C239 1.387 . S
C241 C243 1.390 1_655 S
C241 H245 0.950 . S
H242 C238 0.950 . S
C243 C241 1.390 1_455 S
C243 C244 1.387 . S
C243 H246 0.950 . S
C244 C243 1.387 . S
C244 C247 1.387 1_556 S
H245 C241 0.950 . S
H246 C243 0.950 . S
C247 C238 1.390 1_455 S
C247 H240 0.950 . S
C247 C244 1.387 1_554 S
C248 C249 1.387 . S
C248 H252 0.950 . S
C248 C257 1.390 1_565 S
C249 C248 1.387 . S
C249 C251 1.387 . S
H250 C257 0.950 . S
C251 C249 1.387 . S
C251 C253 1.390 1_565 S
C251 H255 0.950 . S
H252 C248 0.950 . S
C253 C251 1.390 1_545 S
C253 C254 1.387 . S
C253 H256 0.950 . S
C254 C253 1.387 . S
C254 C257 1.387 . S
H255 C251 0.950 . S
H256 C253 0.950 . S
C257 C248 1.390 1_545 S
C257 H250 0.950 . S
C257 C254 1.387 . S
C258 C259 1.387 . S
C258 H262 0.950 . S
C258 C267 1.390 1_445 S
C259 C258 1.387 . S
C259 C261 1.387 1_554 S
H260 C267 0.950 . S
C261 C259 1.387 1_556 S
C261 C263 1.390 1_445 S
C261 H265 0.950 . S
H262 C258 0.950 . S
C263 C261 1.390 1_665 S
C263 C264 1.387 1_556 S
C263 H266 0.950 . S
C264 C263 1.387 1_554 S
C264 C267 1.387 . S
H265 C261 0.950 . S
H266 C263 0.950 . S
C267 C258 1.390 1_665 S
C267 H260 0.950 . S
C267 C264 1.387 . S
C268 C269 1.387 . S
C268 H272 0.950 . S
C268 C277 1.390 1_465 S
C269 C268 1.387 . S
C269 C271 1.387 . S
H270 C277 0.950 . S
C271 C269 1.387 . S
C271 C273 1.390 1_465 S
C271 H275 0.950 . S
H272 C268 0.950 . S
C273 C271 1.390 1_645 S
C273 C274 1.387 . S
C273 H276 0.950 . S
C274 C273 1.387 . S
C274 C277 1.387 . S
H275 C271 0.950 . S
H276 C273 0.950 . S
C277 C268 1.390 1_645 S
C277 H270 0.950 . S
C277 C274 1.387 . S
C278 C279 1.387 . S
C278 H282 0.950 . S
C278 C287 1.390 1_445 S
C279 C278 1.387 . S
C279 C281 1.387 . S
H280 C287 0.950 . S
C281 C279 1.387 . S
C281 C283 1.390 1_445 S
C281 H285 0.950 . S
H282 C278 0.950 . S
C283 C281 1.390 1_665 S
C283 C284 1.387 . S
C283 H286 0.950 . S
C284 C283 1.387 . S
C284 C287 1.387 . S
H285 C281 0.950 . S
H286 C283 0.950 . S
C287 C278 1.390 1_665 S
C287 H280 0.950 . S
C287 C284 1.387 . S
C288 C289 1.387 . S
C288 H292 0.950 . S
C288 C297 1.390 . S
C289 C288 1.387 . S
C289 C291 1.387 . S
H290 C297 0.950 . S
C291 C289 1.387 . S
C291 C293 1.390 . S
C291 H295 0.950 . S
H292 C288 0.950 . S
C293 C291 1.390 . S
C293 C294 1.387 . S
C293 H296 0.950 . S
C294 C293 1.387 . S
C294 C297 1.387 . S
H295 C291 0.950 . S
H296 C293 0.950 . S
C297 C288 1.390 . S
C297 H290 0.950 . S
C297 C294 1.387 . S
C298 C299 1.387 . S
C298 H302 0.950 . S
C298 C307 1.390 . S
C299 C298 1.387 . S
C299 C301 1.387 . S
H300 C307 0.950 . S
C301 C299 1.387 . S
C301 C303 1.390 1_455 S
C301 H305 0.950 . S
H302 C298 0.950 . S
C303 C301 1.390 1_655 S
C303 C304 1.387 . S
C303 H306 0.950 . S
C304 C303 1.387 . S
C304 C307 1.387 1_655 S
H305 C301 0.950 . S
H306 C303 0.950 . S
C307 C298 1.390 . S
C307 H300 0.950 . S
C307 C304 1.387 1_455 S
C308 C309 1.387 . S
C308 H312 0.950 . S
C308 C317 1.390 . S
C309 C308 1.387 . S
C309 C311 1.387 1_545 S
H310 C317 0.950 . S
C311 C309 1.387 1_565 S
C311 C313 1.390 . S
C311 H315 0.950 . S
H312 C308 0.950 . S
C313 C311 1.390 . S
C313 C314 1.387 . S
C313 H316 0.950 . S
C314 C313 1.387 . S
C314 C317 1.387 1_565 S
H315 C311 0.950 . S
H316 C313 0.950 . S
C317 C308 1.390 . S
C317 H310 0.950 . S
C317 C314 1.387 1_545 S
C318 C319 1.387 . S
C318 H322 0.950 . S
C318 C327 1.390 . S
C319 C318 1.387 . S
C319 C321 1.387 . S
H320 C327 0.950 . S
C321 C319 1.387 . S
C321 C323 1.390 . S
C321 H325 0.950 . S
H322 C318 0.950 . S
C323 C321 1.390 . S
C323 C324 1.387 . S
C323 H326 0.950 . S
C324 C323 1.387 . S
C324 C327 1.387 . S
H325 C321 0.950 . S
H326 C323 0.950 . S
C327 C318 1.390 . S
C327 H320 0.950 . S
C327 C324 1.387 . S
C328 C329 1.387 . S
C328 H332 0.950 . S
C328 C337 1.390 1_655 S
C329 C328 1.387 . S
C329 C331 1.387 . S
H330 C337 0.950 . S
C331 C329 1.387 . S
C331 C333 1.390 . S
C331 H335 0.950 . S
H332 C328 0.950 . S
C333 C331 1.390 . S
C333 C334 1.387 1_655 S
C333 H336 0.950 . S
C334 C333 1.387 1_455 S
C334 C337 1.387 . S
H335 C331 0.950 . S
H336 C333 0.950 . S
C337 C328 1.390 1_455 S
C337 H330 0.950 . S
C337 C334 1.387 . S
C338 C339 1.387 . S
C338 H342 0.950 . S
C338 C347 1.390 1_545 S
C339 C338 1.387 . S
C339 C341 1.387 1_545 S
H340 C347 0.950 . S
C341 C339 1.387 1_565 S
C341 C343 1.390 . S
C341 H345 0.950 . S
H342 C338 0.950 . S
C343 C341 1.390 . S
C343 C344 1.387 . S
C343 H346 0.950 . S
C344 C343 1.387 . S
C344 C347 1.387 . S
H345 C341 0.950 . S
H346 C343 0.950 . S
C347 C338 1.390 1_565 S
C347 H340 0.950 . S
C347 C344 1.387 . S
C199 C8 1.926 . S
C204 C107 1.926 . S
C209 C41 1.928 . S
C214 C140 1.928 . S
C219 C173 1.928 . S
C224 C74 1.928 . S
C229 C83 0.879 . S
C234 C182 0.879 . S
C239 C116 0.880 . S
C244 C17 0.880 . S
C249 C149 0.880 . S
C254 C50 0.880 . S
C259 C28 0.996 . S
C264 C127 0.996 . S
C269 C160 0.997 . S
C274 C61 0.997 . S
C279 C193 0.996 . S
C284 C94 0.996 . S
C289 N14 1.678 . S
C294 N170 1.816 . S
C299 N5 1.817 . S
C304 N47 1.680 . S
C309 N38 1.817 . S
C314 N80 1.681 . S
C319 N71 1.816 . S
C324 N113 1.679 . S
C329 N104 1.816 . S
C334 N146 1.678 . S
C339 N179 1.679 . S
C344 N137 1.816 . S
