# Generated by pormake.
# Topology lll, (7)-cn, num edge types: 1
# Building blocks:
#     Node 0, Type 0, BuildingBlock: NUHQUE_clean_sbu_2, # of connection points: 7
#     Node 1, Type 0, BuildingBlock: NUHQUE_clean_sbu_2, # of connection points: 7
#     Node 2, Type 0, BuildingBlock: NUHQUE_clean_sbu_2, # of connection points: 7
#     Node 3, Type 0, BuildingBlock: NUHQUE_clean_sbu_2, # of connection points: 7
#     Node 4, Type 0, BuildingBlock: NUHQUE_clean_sbu_2, # of connection points: 7
#     Node 5, Type 0, BuildingBlock: NUHQUE_clean_sbu_2, # of connection points: 7
#     Node 6, Type 0, BuildingBlock: NUHQUE_clean_sbu_2, # of connection points: 7
#     Node 7, Type 0, BuildingBlock: NUHQUE_clean_sbu_2, # of connection points: 7
#     Node 8, Type 0, BuildingBlock: NUHQUE_clean_sbu_2, # of connection points: 7
#     Node 9, Type 0, BuildingBlock: NUHQUE_clean_sbu_2, # of connection points: 7
#     Node 10, Type 0, BuildingBlock: NUHQUE_clean_sbu_2, # of connection points: 7
#     Node 11, Type 0, BuildingBlock: NUHQUE_clean_sbu_2, # of connection points: 7
#     Node 12, Type 0, BuildingBlock: NUHQUE_clean_sbu_2, # of connection points: 7
#     Node 13, Type 0, BuildingBlock: NUHQUE_clean_sbu_2, # of connection points: 7
#     Node 14, Type 0, BuildingBlock: NUHQUE_clean_sbu_2, # of connection points: 7
#     Node 15, Type 0, BuildingBlock: NUHQUE_clean_sbu_2, # of connection points: 7
#     Edge 16, Type (0, 0), BuildingBlock: EZIPEK_clean_linker_0, # of connection points: 2
#     Edge 17, Type (0, 0), BuildingBlock: EZIPEK_clean_linker_0, # of connection points: 2
#     Edge 18, Type (0, 0), BuildingBlock: EZIPEK_clean_linker_0, # of connection points: 2
#     Edge 19, Type (0, 0), BuildingBlock: EZIPEK_clean_linker_0, # of connection points: 2
#     Edge 20, Type (0, 0), BuildingBlock: EZIPEK_clean_linker_0, # of connection points: 2
#     Edge 21, Type (0, 0), BuildingBlock: EZIPEK_clean_linker_0, # of connection points: 2
#     Edge 22, Type (0, 0), BuildingBlock: EZIPEK_clean_linker_0, # of connection points: 2
#     Edge 23, Type (0, 0), BuildingBlock: EZIPEK_clean_linker_0, # of connection points: 2
#     Edge 24, Type (0, 0), BuildingBlock: EZIPEK_clean_linker_0, # of connection points: 2
#     Edge 25, Type (0, 0), BuildingBlock: EZIPEK_clean_linker_0, # of connection points: 2
#     Edge 26, Type (0, 0), BuildingBlock: EZIPEK_clean_linker_0, # of connection points: 2
#     Edge 27, Type (0, 0), BuildingBlock: EZIPEK_clean_linker_0, # of connection points: 2
#     Edge 28, Type (0, 0), BuildingBlock: EZIPEK_clean_linker_0, # of connection points: 2
#     Edge 29, Type (0, 0), BuildingBlock: EZIPEK_clean_linker_0, # of connection points: 2
#     Edge 30, Type (0, 0), BuildingBlock: EZIPEK_clean_linker_0, # of connection points: 2
#     Edge 31, Type (0, 0), BuildingBlock: EZIPEK_clean_linker_0, # of connection points: 2
#     Edge 32, Type (0, 0), BuildingBlock: EZIPEK_clean_linker_0, # of connection points: 2
#     Edge 33, Type (0, 0), BuildingBlock: EZIPEK_clean_linker_0, # of connection points: 2
#     Edge 34, Type (0, 0), BuildingBlock: EZIPEK_clean_linker_0, # of connection points: 2
#     Edge 35, Type (0, 0), BuildingBlock: EZIPEK_clean_linker_0, # of connection points: 2
#     Edge 36, Type (0, 0), BuildingBlock: EZIPEK_clean_linker_0, # of connection points: 2
#     Edge 37, Type (0, 0), BuildingBlock: EZIPEK_clean_linker_0, # of connection points: 2
#     Edge 38, Type (0, 0), BuildingBlock: EZIPEK_clean_linker_0, # of connection points: 2
#     Edge 39, Type (0, 0), BuildingBlock: EZIPEK_clean_linker_0, # of connection points: 2
#     Edge 40, Type (0, 0), BuildingBlock: EZIPEK_clean_linker_0, # of connection points: 2
#     Edge 41, Type (0, 0), BuildingBlock: EZIPEK_clean_linker_0, # of connection points: 2
#     Edge 42, Type (0, 0), BuildingBlock: EZIPEK_clean_linker_0, # of connection points: 2
#     Edge 43, Type (0, 0), BuildingBlock: EZIPEK_clean_linker_0, # of connection points: 2
#     Edge 44, Type (0, 0), BuildingBlock: EZIPEK_clean_linker_0, # of connection points: 2
#     Edge 45, Type (0, 0), BuildingBlock: EZIPEK_clean_linker_0, # of connection points: 2
#     Edge 46, Type (0, 0), BuildingBlock: EZIPEK_clean_linker_0, # of connection points: 2
#     Edge 47, Type (0, 0), BuildingBlock: EZIPEK_clean_linker_0, # of connection points: 2
#     Edge 48, Type (0, 0), BuildingBlock: EZIPEK_clean_linker_0, # of connection points: 2
#     Edge 49, Type (0, 0), BuildingBlock: EZIPEK_clean_linker_0, # of connection points: 2
#     Edge 50, Type (0, 0), BuildingBlock: EZIPEK_clean_linker_0, # of connection points: 2
#     Edge 51, Type (0, 0), BuildingBlock: EZIPEK_clean_linker_0, # of connection points: 2
#     Edge 52, Type (0, 0), BuildingBlock: EZIPEK_clean_linker_0, # of connection points: 2
#     Edge 53, Type (0, 0), BuildingBlock: EZIPEK_clean_linker_0, # of connection points: 2
#     Edge 54, Type (0, 0), BuildingBlock: EZIPEK_clean_linker_0, # of connection points: 2
#     Edge 55, Type (0, 0), BuildingBlock: EZIPEK_clean_linker_0, # of connection points: 2
#     Edge 56, Type (0, 0), BuildingBlock: EZIPEK_clean_linker_0, # of connection points: 2
#     Edge 57, Type (0, 0), BuildingBlock: EZIPEK_clean_linker_0, # of connection points: 2
#     Edge 58, Type (0, 0), BuildingBlock: EZIPEK_clean_linker_0, # of connection points: 2
#     Edge 59, Type (0, 0), BuildingBlock: EZIPEK_clean_linker_0, # of connection points: 2
#     Edge 60, Type (0, 0), BuildingBlock: EZIPEK_clean_linker_0, # of connection points: 2
#     Edge 61, Type (0, 0), BuildingBlock: EZIPEK_clean_linker_0, # of connection points: 2
#     Edge 62, Type (0, 0), BuildingBlock: EZIPEK_clean_linker_0, # of connection points: 2
#     Edge 63, Type (0, 0), BuildingBlock: EZIPEK_clean_linker_0, # of connection points: 2
#     Edge 64, Type (0, 0), BuildingBlock: EZIPEK_clean_linker_0, # of connection points: 2
#     Edge 65, Type (0, 0), BuildingBlock: EZIPEK_clean_linker_0, # of connection points: 2
#     Edge 66, Type (0, 0), BuildingBlock: EZIPEK_clean_linker_0, # of connection points: 2
#     Edge 67, Type (0, 0), BuildingBlock: EZIPEK_clean_linker_0, # of connection points: 2
#     Edge 68, Type (0, 0), BuildingBlock: EZIPEK_clean_linker_0, # of connection points: 2
#     Edge 69, Type (0, 0), BuildingBlock: EZIPEK_clean_linker_0, # of connection points: 2
#     Edge 70, Type (0, 0), BuildingBlock: EZIPEK_clean_linker_0, # of connection points: 2
#     Edge 71, Type (0, 0), BuildingBlock: EZIPEK_clean_linker_0, # of connection points: 2
# Relax obj value: 0.518
# Max RMSD: 0.286
# Mean RMSD: 0.286
data_MOF--net-lll--node1-NUHQUE_clean_sbu_2--edge1-EZIPEK_clean_linker_0
_symmetry_space_group_name_H-M    P1
_symmetry_Int_Tables_number       1
_symmetry_cell_setting            triclinic
loop_
_symmetry_equiv_pos_as_xyz
'x, y, z'
_cell_length_a     37.748864
_cell_length_b     37.614577
_cell_length_c     35.0654
_cell_angle_alpha  90.084685
_cell_angle_beta   89.831562
_cell_angle_gamma 89.078056
loop_
_atom_site_label
_atom_site_type_symbol
_atom_site_fract_x
_atom_site_fract_y
_atom_site_fract_z
_atom_type_partial_charge
O0 O 0.68693 0.07847 1.01398 0.0
Tb1 Tb 0.65969 0.12068 1.04652 0.0
Eu2 Eu 0.60287 0.16797 0.10178 0.0
C3 C 0.67842 0.07135 0.97837 0.0
O4 O 0.64587 0.07795 0.96737 0.0
C5 C 0.59733 0.16594 1.00896 0.0
O6 O 0.57802 0.22266 0.10237 0.0
C7 C 0.56039 0.12442 0.13403 0.0
C8 C 0.5881 0.24787 0.12537 0.0
O9 O 0.5722 0.27914 0.12418 0.0
C10 C 0.67736 0.14051 0.13169 0.0
C11 C 0.5563 0.09924 0.16561 0.0
C12 C 0.53693 0.06856 0.15878 0.0
C13 C 0.52749 0.04627 0.18886 0.0
C14 C 0.53875 0.05408 0.22609 0.0
C15 C 0.55908 0.08436 0.23323 0.0
C16 C 0.56752 0.10712 0.20293 0.0
O17 O 0.6167 0.13623 1.00674 0.0
O18 O 0.58961 0.1808 1.04169 0.0
O19 O 0.67512 0.17585 1.04299 0.0
O20 O 0.71055 0.13474 1.02489 0.0
C21 C 0.70581 0.1687 1.02744 0.0
O22 O 0.65733 0.16919 0.12812 0.0
O23 O 0.67212 0.1131 0.10828 0.0
O24 O 0.56236 0.15822 0.14349 0.0
O25 O 0.5807 0.11485 0.10484 0.0
H26 H 0.52789 0.06265 0.13014 0.0
H27 H 0.53158 0.03671 0.24943 0.0
H28 H 0.58189 0.13122 0.20868 0.0
O29 O 0.88101 0.15978 0.27119 0.0
Tb30 Tb 0.84655 0.20393 0.28882 0.0
Eu31 Eu 0.82444 0.13319 0.33238 0.0
C32 C 0.90235 0.16111 0.24099 0.0
O33 O 0.9236 0.13385 0.23413 0.0
C34 C 0.78695 0.15727 0.25148 0.0
O35 O 0.78172 0.10679 0.36452 0.0
C36 C 0.88071 0.09559 0.34913 0.0
C37 C 0.74844 0.11531 0.35885 0.0
O38 O 0.73915 0.13269 0.32795 0.0
C39 C 0.8196 0.20946 0.377 0.0
C40 C 0.898 0.08039 0.38376 0.0
C41 C 0.92184 0.05153 0.37917 0.0
C42 C 0.93784 0.03507 0.41085 0.0
C43 C 0.92992 0.04791 0.44771 0.0
C44 C 0.90625 0.07689 0.45327 0.0
C45 C 0.89005 0.09283 0.42101 0.0
O46 O 0.79842 0.19024 0.25641 0.0
O47 O 0.79946 0.13083 0.27274 0.0
O48 O 0.89604 0.23199 0.29526 0.0
O49 O 0.85706 0.25306 0.25776 0.0
C50 C 0.8885 0.25812 0.27243 0.0
O51 O 0.81385 0.17502 0.37818 0.0
O52 O 0.83142 0.22472 0.34566 0.0
O53 O 0.85026 0.0816 0.33976 0.0
O54 O 0.88135 0.13037 0.34415 0.0
H55 H 0.928 0.04174 0.35077 0.0
H56 H 0.94262 0.03559 0.47215 0.0
H57 H 0.87144 0.11475 0.42492 0.0
O58 O 0.77668 0.40764 0.54118 0.0
Tb59 Tb 0.75564 0.35869 0.5636 0.0
Eu60 Eu 0.83329 0.31619 0.59916 0.0
C61 C 0.8018 0.40844 0.51545 0.0
O62 O 0.82215 0.38009 0.51115 0.0
C63 C 0.80179 0.30098 0.5148 0.0
O64 O 0.85619 0.26029 0.60056 0.0
C65 C 0.87805 0.36409 0.6216 0.0
C66 C 0.87715 0.24507 0.62589 0.0
O67 O 0.88773 0.21217 0.61962 0.0
C68 C 0.76402 0.33534 0.64761 0.0
C69 C 0.89175 0.38518 0.65415 0.0
C70 C 0.91565 0.41273 0.6463 0.0
C71 C 0.93298 0.4304 0.67612 0.0
C72 C 0.9259 0.42094 0.71381 0.0
C73 C 0.90238 0.39372 0.72248 0.0
C74 C 0.88511 0.37577 0.69255 0.0
O75 O 0.77019 0.3137 0.5251 0.0
O76 O 0.83045 0.30801 0.53483 0.0
O77 O 0.70928 0.39069 0.54505 0.0
O78 O 0.70165 0.34122 0.57203 0.0
C79 C 0.68583 0.36886 0.55777 0.0
O80 O 0.78592 0.30939 0.63826 0.0
O81 O 0.76111 0.36334 0.6255 0.0
O82 O 0.88461 0.32975 0.62228 0.0
O83 O 0.84685 0.37237 0.60693 0.0
H84 H 0.92183 0.41952 0.61701 0.0
H85 H 0.9397 0.43429 0.73672 0.0
H86 H 0.86742 0.35426 0.69897 0.0
O87 O 0.5607 0.24993 0.74689 0.0
Tb88 Tb 0.59625 0.25919 0.7945 0.0
Eu89 Eu 0.63151 0.32295 0.85791 0.0
C90 C 0.55741 0.27115 0.71734 0.0
O91 O 0.56404 0.30507 0.72099 0.0
C92 C 0.65919 0.31425 0.76955 0.0
O93 O 0.68187 0.31869 0.89039 0.0
C94 C 0.5959 0.37715 0.88502 0.0
C95 C 0.68258 0.31312 0.92737 0.0
O96 O 0.6529 0.3079 0.94597 0.0
C97 C 0.58438 0.25694 0.87959 0.0
C98 C 0.57253 0.38991 0.91656 0.0
C99 C 0.5399 0.40557 0.9064 0.0
C100 C 0.51719 0.4192 0.93449 0.0
C101 C 0.52488 0.41286 0.97277 0.0
C102 C 0.55955 0.40347 0.98428 0.0
C103 C 0.58354 0.39165 0.95534 0.0
O104 O 0.63749 0.28764 0.76301 0.0
O105 O 0.65832 0.33318 0.80123 0.0
O106 O 0.63915 0.22449 0.81411 0.0
O107 O 0.59478 0.20215 0.78585 0.0
C108 C 0.62492 0.19531 0.802 0.0
O109 O 0.61564 0.27101 0.88373 0.0
O110 O 0.56647 0.26303 0.84805 0.0
O111 O 0.62945 0.3709 0.89264 0.0
O112 O 0.58258 0.35468 0.86007 0.0
H113 H 0.53323 0.40937 0.8766 0.0
H114 H 0.50508 0.42063 0.99375 0.0
H115 H 0.61072 0.38498 0.96245 0.0
O116 O 0.75239 0.42043 0.3441 0.0
Tb117 Tb 0.75425 0.38148 0.29842 0.0
Eu118 Eu 0.67214 0.35673 0.26179 0.0
C119 C 0.77061 0.41035 0.37409 0.0
O120 O 0.78531 0.37857 0.37361 0.0
C121 C 0.70029 0.33038 0.34321 0.0
O122 O 0.65578 0.30247 0.24499 0.0
C123 C 0.62056 0.40029 0.24391 0.0
C124 C 0.67858 0.27728 0.23558 0.0
O125 O 0.71268 0.28306 0.23828 0.0
C126 C 0.73656 0.38469 0.2136 0.0
C127 C 0.60283 0.42204 0.21408 0.0
C128 C 0.5828 0.45182 0.22611 0.0
C129 C 0.56441 0.47273 0.19954 0.0
C130 C 0.56982 0.46634 0.16065 0.0
C131 C 0.58504 0.43393 0.14757 0.0
C132 C 0.60155 0.4116 0.17522 0.0
O133 O 0.73319 0.33681 0.33248 0.0
O134 O 0.67295 0.34368 0.32467 0.0
O135 O 0.79526 0.34384 0.28013 0.0
O136 O 0.81068 0.39381 0.30276 0.0
C137 C 0.82189 0.36371 0.28892 0.0
O138 O 0.71706 0.35658 0.21881 0.0
O139 O 0.74128 0.40538 0.24324 0.0
O140 O 0.61866 0.36558 0.24095 0.0
O141 O 0.6509 0.41118 0.25801 0.0
H142 H 0.57978 0.45752 0.25628 0.0
H143 H 0.55824 0.4851 0.14068 0.0
H144 H 0.61262 0.38597 0.16707 0.0
O145 O 0.58229 0.19353 0.55051 0.0
Tb146 Tb 0.62298 0.23362 0.55299 0.0
Eu147 Eu 0.66149 0.15907 0.51638 0.0
C148 C 0.55557 0.19336 0.57482 0.0
O149 O 0.5301 0.17043 0.5701 0.0
C150 C 0.67419 0.18535 0.60218 0.0
O151 O 0.71236 0.13315 0.53717 0.0
C152 C 0.61936 0.11072 0.4908 0.0
C153 C 0.73501 0.11626 0.51501 0.0
O154 O 0.76297 0.10046 0.5299 0.0
C155 C 0.66651 0.23677 0.47295 0.0
C156 C 0.59792 0.09502 0.4602 0.0
C157 C 0.57562 0.06685 0.47006 0.0
C158 C 0.55684 0.0487 0.4419 0.0
C159 C 0.55997 0.05908 0.40381 0.0
C160 C 0.58191 0.08711 0.39333 0.0
C161 C 0.60124 0.10512 0.4216 0.0
O162 O 0.66477 0.21848 0.59396 0.0
O163 O 0.66278 0.15942 0.58064 0.0
O164 O 0.58524 0.27603 0.53899 0.0
O165 O 0.61209 0.27872 0.59117 0.0
C166 C 0.58976 0.29554 0.56901 0.0
O167 O 0.67502 0.20247 0.47342 0.0
O168 O 0.64808 0.25221 0.50053 0.0
O169 O 0.65388 0.10945 0.48655 0.0
O170 O 0.60759 0.13937 0.50882 0.0
H171 H 0.57316 0.05873 0.4996 0.0
H172 H 0.5451 0.04521 0.38208 0.0
H173 H 0.61876 0.12643 0.41362 0.0
O174 O 0.80897 0.08055 0.84405 0.0
Tb175 Tb 0.77644 0.12044 0.81468 0.0
Eu176 Eu 0.85071 0.16115 0.76315 0.0
C177 C 0.80002 0.062 0.87491 0.0
O178 O 0.82325 0.03864 0.88786 0.0
C179 C 0.82985 0.17401 0.84925 0.0
O180 O 0.86663 0.2168 0.75078 0.0
C181 C 0.88903 0.11837 0.72091 0.0
C182 C 0.89707 0.23154 0.75928 0.0
O183 O 0.92155 0.21321 0.77758 0.0
C184 C 0.77157 0.15447 0.73133 0.0
C185 C 0.90774 0.11128 0.68394 0.0
C186 C 0.94233 0.09756 0.68743 0.0
C187 C 0.96204 0.08735 0.65544 0.0
C188 C 0.94786 0.09182 0.61904 0.0
C189 C 0.91328 0.10504 0.6139 0.0
C190 C 0.89286 0.11504 0.64674 0.0
O191 O 0.7959 0.16924 0.84178 0.0
O192 O 0.85435 0.15854 0.82775 0.0
O193 O 0.73476 0.08113 0.81258 0.0
O194 O 0.72486 0.1306 0.84017 0.0
C195 C 0.71119 0.10019 0.83054 0.0
O196 O 0.79865 0.17567 0.7355 0.0
O197 O 0.76899 0.12561 0.75257 0.0
O198 O 0.90235 0.14291 0.74315 0.0
O199 O 0.85441 0.11542 0.72402 0.0
H200 H 0.95345 0.09283 0.71552 0.0
H201 H 0.96313 0.08264 0.59455 0.0
H202 H 0.86591 0.1248 0.64338 0.0
O203 O 0.90131 0.27331 0.09497 0.0
Tb204 Tb 0.86695 0.29943 1.0529 0.0
Eu205 Eu 0.84609 0.36449 0.98848 0.0
C206 C 0.89456 0.27814 0.13164 0.0
O207 O 0.87546 0.30599 0.1419 0.0
C208 C 0.82374 0.36702 0.07691 0.0
O209 O 0.82511 0.40173 0.94349 0.0
C210 C 0.91142 0.38178 0.98518 0.0
C211 C 0.79314 0.39971 0.92958 0.0
O212 O 0.78247 0.42273 0.90378 0.0
C213 C 0.85691 0.28274 0.96584 0.0
C214 C 0.92826 0.39494 0.95016 0.0
C215 C 0.95204 0.42285 0.95246 0.0
C216 C 0.96262 0.44048 0.91932 0.0
C217 C 0.95092 0.42905 0.88342 0.0
C218 C 0.92724 0.40084 0.88057 0.0
C219 C 0.91535 0.38458 0.91415 0.0
O220 O 0.85358 0.34908 0.08327 0.0
O221 O 0.81395 0.37393 1.04179 0.0
O222 O 0.84292 0.2522 0.07443 0.0
O223 O 0.81024 0.2918 1.04892 0.0
C224 C 0.81073 0.26119 0.06617 0.0
O225 O 0.83537 0.31054 0.96231 0.0
O226 O 0.88029 0.28164 0.99415 0.0
O227 O 0.887 0.40331 0.99924 0.0
O228 O 0.90178 0.34844 0.9847 0.0
H229 H 0.9605 0.43242 0.98012 0.0
H230 H 0.95921 0.44293 0.85791 0.0
H231 H 0.89478 0.36524 0.91233 0.0
O232 O 0.24363 0.57237 0.49237 0.0
Tb233 Tb 0.21523 0.60111 0.53688 0.0
Eu234 Eu 0.15294 0.63098 0.59415 0.0
C235 C 0.24926 0.59068 0.46118 0.0
O236 O 0.23757 0.62356 0.45959 0.0
C237 C 0.15451 0.65007 0.50345 0.0
O238 O 0.15101 0.68106 0.62807 0.0
C239 C 0.09865 0.59379 0.61358 0.0
C240 C 0.18052 0.69815 0.63365 0.0
O241 O 0.21087 0.68292 0.62529 0.0
C242 C 0.2268 0.59256 0.62465 0.0
C243 C 0.08485 0.57658 0.64825 0.0
C244 C 0.05919 0.55022 0.64459 0.0
C245 C 0.04249 0.53631 0.67699 0.0
C246 C 0.05181 0.5488 0.71336 0.0
C247 C 0.07762 0.5751 0.71753 0.0
C248 C 0.09426 0.58874 0.68486 0.0
O249 O 0.17094 0.61865 0.49962 0.0
O250 O 0.14785 0.66155 0.5382 0.0
O251 O 0.2113 0.65349 0.5596 0.0
O252 O 0.25862 0.63829 0.5302 0.0
C253 C 0.24166 0.66386 0.54756 0.0
O254 O 0.20117 0.61628 0.62987 0.0
O255 O 0.22951 0.57525 0.59163 0.0
O256 O 0.09912 0.62867 0.61485 0.0
O257 O 0.1269 0.57944 0.597 0.0
H258 H 0.05144 0.5412 0.61649 0.0
H259 H 0.0387 0.53832 0.73839 0.0
H260 H 0.11378 0.60938 0.68792 0.0
O261 O 0.42452 0.67507 0.75644 0.0
Tb262 Tb 0.38204 0.65916 0.79528 0.0
Eu263 Eu 0.32062 0.6297 0.85211 0.0
C264 C 0.42334 0.66925 0.7193 0.0
O265 O 0.40841 0.64019 0.70685 0.0
C266 C 0.31945 0.61311 0.7592 0.0
O267 O 0.26414 0.64857 0.85258 0.0
C268 C 0.33181 0.57371 0.89403 0.0
C269 C 0.25486 0.68249 0.85079 0.0
O270 O 0.27958 0.70659 0.85206 0.0
C271 C 0.38141 0.68217 0.88025 0.0
C272 C 0.35668 0.56085 0.92398 0.0
C273 C 0.38598 0.5402 0.91217 0.0
C274 C 0.41239 0.53105 0.93792 0.0
C275 C 0.41138 0.54567 0.97447 0.0
C276 C 0.37944 0.56003 0.99004 0.0
C277 C 0.35142 0.56683 0.96368 0.0
O278 O 0.3532 0.62278 0.75625 0.0
O279 O 0.30364 0.61384 0.79268 0.0
O280 O 0.3311 0.68499 0.80404 0.0
O281 O 0.37388 0.71433 0.78147 0.0
C282 C 0.3409 0.7157 0.79138 0.0
O283 O 0.34711 0.67733 0.87859 0.0
O284 O 0.40228 0.66644 0.85434 0.0
O285 O 0.30805 0.5984 0.903 0.0
O286 O 0.34623 0.57868 0.86014 0.0
H287 H 0.38802 0.5305 0.88309 0.0
H288 H 0.43473 0.54183 0.99192 0.0
H289 H 0.32547 0.57544 0.97314 0.0
O290 O 0.37639 0.89193 1.04636 0.0
Tb291 Tb 0.35451 0.83972 0.05897 0.0
Eu292 Eu 0.39368 0.7807 0.10806 0.0
C293 C 0.36718 0.91393 1.01848 0.0
O294 O 0.38288 0.94477 1.01651 0.0
C295 C 0.39329 0.77501 1.01524 0.0
O296 O 0.42475 0.72896 0.10974 0.0
C297 C 0.43249 0.82981 0.13702 0.0
C298 C 0.42052 0.70678 0.13784 0.0
O299 O 0.43841 0.67656 0.13881 0.0
C300 C 0.3222 0.81396 0.13909 0.0
C301 C 0.43046 0.85983 0.16476 0.0
C302 C 0.4393 0.89385 0.15156 0.0
C303 C 0.44207 0.92213 0.1773 0.0
C304 C 0.43028 0.91798 0.21464 0.0
C305 C 0.42568 0.88398 0.23019 0.0
C306 C 0.42562 0.8546 0.20474 0.0
O307 O 0.38421 0.80922 1.0142 0.0
O308 O 0.39808 0.75929 1.04816 0.0
O309 O 0.30396 0.85385 1.03332 0.0
O310 O 0.31999 0.79952 1.04017 0.0
C311 C 0.29551 0.82086 1.02715 0.0
O312 O 0.33857 0.78313 0.13404 0.0
O313 O 0.3332 0.84177 0.11897 0.0
O314 O 0.43079 0.79742 0.15114 0.0
O315 O 0.41609 0.83373 0.10384 0.0
H316 H 0.44765 0.89751 0.12223 0.0
H317 H 0.43067 0.94097 0.23337 0.0
H318 H 0.42334 0.82796 0.21602 0.0
O319 O 0.11386 0.77456 0.25727 0.0
Tb320 Tb 0.15304 0.75644 0.29811 0.0
Eu321 Eu 0.17698 0.83582 0.34185 0.0
C322 C 0.10605 0.80713 0.24658 0.0
O323 O 0.12068 0.83452 0.26305 0.0
C324 C 0.21032 0.80801 0.26069 0.0
O325 O 0.22625 0.86917 0.3386 0.0
C326 C 0.12417 0.87796 0.36241 0.0
C327 C 0.23892 0.88838 0.36642 0.0
O328 O 0.26652 0.9084 0.36023 0.0
C329 C 0.15894 0.76358 0.38543 0.0
C330 C 0.0984 0.88896 0.39311 0.0
C331 C 0.06615 0.9056 0.38204 0.0
C332 C 0.04301 0.9205 0.40958 0.0
C333 C 0.05012 0.91464 0.44808 0.0
C334 C 0.08407 0.90367 0.4604 0.0
C335 C 0.10809 0.89011 0.4324 0.0
O336 O 0.20279 0.77509 0.27097 0.0
O337 O 0.1943 0.83508 0.27837 0.0
O338 O 0.17351 0.7021 0.30425 0.0
O339 O 0.12258 0.71009 0.28019 0.0
C340 C 0.14583 0.6864 0.29055 0.0
O341 O 0.18356 0.7881 0.38296 0.0
O342 O 0.13583 0.76162 0.35762 0.0
O343 O 0.15758 0.88415 0.3689 0.0
O344 O 0.11944 0.84867 0.34232 0.0
H345 H 0.06049 0.9096 0.35206 0.0
H346 H 0.03086 0.92438 0.46878 0.0
H347 H 0.13458 0.88205 0.44068 0.0
O348 O 0.25663 0.90898 0.87167 0.0
Tb349 Tb 0.22291 0.89158 0.82474 0.0
Eu350 Eu 0.15828 0.88018 0.76237 0.0
C351 C 0.26211 0.88778 0.90116 0.0
O352 O 0.24513 0.85762 0.90315 0.0
C353 C 0.15351 0.85288 0.85218 0.0
O354 O 0.16232 0.83251 0.72571 0.0
C355 C 0.11163 0.9205 0.72886 0.0
C356 C 0.1662 0.83732 0.689 0.0
O357 O 0.16823 0.86943 0.675 0.0
C358 C 0.23547 0.91307 0.74179 0.0
C359 C 0.10677 0.94043 0.69245 0.0
C360 C 0.09493 0.97574 0.69573 0.0
C361 C 0.0853 0.99484 0.66323 0.0
C362 C 0.09516 0.98187 0.62737 0.0
C363 C 0.10238 0.94525 0.62189 0.0
C364 C 0.10768 0.92443 0.65542 0.0
O365 O 0.17887 0.87519 0.86168 0.0
O366 O 0.1418 0.85108 0.81669 0.0
O367 O 0.2659 0.85377 0.82173 0.0
O368 O 0.21856 0.8429 0.7911 0.0
C369 C 0.25055 0.83198 0.79859 0.0
O370 O 0.21159 0.88903 0.73449 0.0
O371 O 0.23704 0.92668 0.77662 0.0
O372 O 0.11087 0.88563 0.7275 0.0
O373 O 0.13484 0.93292 0.75352 0.0
H374 H 0.08835 0.98659 0.7236 0.0
H375 H 0.09073 -0.00086 0.60309 0.0
H376 H 0.11069 0.89606 0.65294 0.0
O377 O 0.06952 0.76418 0.08368 0.0
Tb378 Tb 0.10683 0.72916 0.0545 0.0
Eu379 Eu 0.14933 0.6705 1.00364 0.0
C380 C 0.05629 0.756 0.11706 0.0
O381 O 0.05821 0.72261 0.12793 0.0
C382 C 0.14969 0.67097 0.0964 0.0
O383 O 0.20491 0.64944 0.9973 0.0
C384 C 0.10784 0.62195 0.97781 0.0
C385 C 0.22228 0.64997 0.96507 0.0
O386 O 0.25439 0.6361 0.96339 0.0
C387 C 0.11986 0.74457 0.96829 0.0
C388 C 0.08626 0.61083 0.94484 0.0
C389 C 0.06031 0.58534 0.95174 0.0
C390 C 0.04432 0.56773 0.92132 0.0
C391 C 0.05264 0.57675 0.8839 0.0
C392 C 0.0787 0.60161 0.87601 0.0
C393 C 0.09566 0.61896 0.90659 0.0
O394 O 0.11702 0.6844 0.09397 0.0
O395 O 0.16798 0.66626 0.06492 0.0
O396 O 0.16184 0.73231 1.04021 0.0
O397 O 0.13934 0.77147 0.07706 0.0
C398 C 0.16799 0.76054 0.06002 0.0
O399 O 0.14607 0.72099 0.96832 0.0
O400 O 0.09449 0.74302 0.99464 0.0
O401 O 0.14213 0.62222 0.97204 0.0
O402 O 0.09616 0.64751 1.00079 0.0
H403 H 0.05462 0.57705 0.98071 0.0
H404 H 0.04064 0.56219 0.86063 0.0
H405 H 0.11697 0.6371 0.90072 0.0
O406 O 0.31076 0.60467 0.29799 0.0
Tb407 Tb 0.26351 0.63683 0.30946 0.0
Eu408 Eu 0.32544 0.66436 0.26864 0.0
C409 C 0.32347 0.58063 0.32178 0.0
O410 O 0.35147 0.5615 0.312 0.0
C411 C 0.30965 0.68955 0.35666 0.0
O412 O 0.31239 0.72283 0.2768 0.0
C413 C 0.38679 0.64091 0.24338 0.0
C414 C 0.32553 0.74891 0.25691 0.0
O415 O 0.31767 0.78177 0.26638 0.0
C416 C 0.24877 0.6592 0.22789 0.0
C417 C 0.40184 0.61439 0.21613 0.0
C418 C 0.42867 0.5912 0.22939 0.0
C419 C 0.44053 0.56277 0.20672 0.0
C420 C 0.42297 0.55571 0.1726 0.0
C421 C 0.40072 0.58154 0.15525 0.0
C422 C 0.39027 0.61135 0.17784 0.0
O423 O 0.27681 0.67911 0.35075 0.0
O424 O 0.33413 0.67796 0.33235 0.0
O425 O 0.23261 0.59196 0.29026 0.0
O426 O 0.22054 0.61483 0.34329 0.0
C427 C 0.21013 0.59142 0.3183 0.0
O428 O 0.28273 0.65088 0.22359 0.0
O429 O 0.23767 0.66483 0.2628 0.0
O430 O 0.37033 0.66906 0.22993 0.0
O431 O 0.37079 0.62768 0.27331 0.0
H432 H 0.44057 0.59542 0.2571 0.0
H433 H 0.42982 0.53125 0.15781 0.0
H434 H 0.3734 0.63205 0.16608 0.0
O435 O 0.39523 0.78663 0.59153 0.0
Tb436 Tb 0.3531 0.81983 0.56716 0.0
Eu437 Eu 0.31762 0.87421 0.51346 0.0
C438 C 0.41167 0.79447 0.62343 0.0
O439 O 0.41091 0.82741 0.63591 0.0
C440 C 0.31869 0.8865 0.60492 0.0
O441 O 0.26559 0.89764 0.496 0.0
C442 C 0.37053 0.9099 0.48743 0.0
C443 C 0.23617 0.88356 0.50876 0.0
O444 O 0.23836 0.85881 0.53492 0.0
C445 C 0.3345 0.79578 0.48227 0.0
C446 C 0.40014 0.91124 0.45981 0.0
C447 C 0.4308 0.92845 0.47182 0.0
C448 C 0.45907 0.93306 0.44666 0.0
C449 C 0.4588 0.91575 0.41137 0.0
C450 C 0.42705 0.9021 0.39638 0.0
C451 C 0.39737 0.90019 0.42129 0.0
O452 O 0.3486 0.86755 0.60401 0.0
O453 O 0.30076 0.89021 0.57304 0.0
O454 O 0.32794 0.78505 0.60691 0.0
O455 O 0.29648 0.80956 0.56425 0.0
C456 C 0.2961 0.78827 0.59353 0.0
O457 O 0.31076 0.82174 0.4824 0.0
O458 O 0.35967 0.79579 0.50885 0.0
O459 O 0.338 0.91388 0.47452 0.0
O460 O 0.37354 0.88731 0.51605 0.0
H461 H 0.43146 0.9411 0.49964 0.0
H462 H 0.48216 0.91759 0.39349 0.0
H463 H 0.37214 0.89112 0.41077 0.0
C464 C 0.76888 0.18028 1.03383 0.0
C465 C 0.73468 0.19372 1.02565 0.0
C466 C 0.74816 0.25 0.05468 0.0
C467 C 0.78179 0.23613 0.06431 0.0
N468 N 0.81754 0.18379 0.07768 0.0
N469 N 0.69699 0.24418 1.01405 0.0
C470 C 0.79037 0.19988 0.05837 0.0
C471 C 0.72591 0.22968 1.03162 0.0
N472 N 0.781 0.14949 1.01739 0.0
N473 N 0.73694 0.28136 0.07022 0.0
H474 H 0.68247 0.2294 0.99448 0.0
H475 H 0.69022 0.2711 1.0155 0.0
H476 H 0.75199 0.29363 0.09125 0.0
H477 H 0.7116 0.29208 0.06623 0.0
H478 H 0.80667 0.13955 1.0212 0.0
H479 H 0.76689 0.13671 0.996 0.0
H480 H 0.82312 0.15662 0.07583 0.0
H481 H 0.83087 0.19645 0.09971 0.0
C482 C 0.87376 0.34484 0.25038 0.0
C483 C 0.85893 0.35151 0.28673 0.0
C484 C 0.89923 0.30764 0.31443 0.0
C485 C 0.90349 0.29375 0.27739 0.0
N486 N 0.92017 0.31308 0.2156 0.0
N487 N 0.86552 0.34856 0.35488 0.0
C488 C 0.89914 0.31712 0.24678 0.0
C489 C 0.87506 0.33658 0.31959 0.0
N490 N 0.86228 0.36369 0.21965 0.0
N491 N 0.91634 0.29142 0.34395 0.0
H492 H 0.84971 0.37128 0.35823 0.0
H493 H 0.87378 0.33683 0.38026 0.0
H494 H 0.93403 0.27024 0.33901 0.0
H495 H 0.91487 0.30007 0.37211 0.0
H496 H 0.87004 0.35772 0.19184 0.0
H497 H 0.84465 0.3851 0.22284 0.0
H498 H 0.92045 0.3312 0.19315 0.0
H499 H 0.94022 0.29367 0.2154 0.0
C500 C 0.63145 0.37183 0.59673 0.0
C501 C 0.64725 0.37468 0.56021 0.0
C502 C 0.59473 0.34976 0.53157 0.0
C503 C 0.58738 0.33482 0.56756 0.0
N504 N 0.58161 0.34893 0.63343 0.0
N505 N 0.63909 0.37924 0.49267 0.0
C506 C 0.59946 0.35275 0.59998 0.0
C507 C 0.62666 0.36887 0.52733 0.0
N508 N 0.64865 0.38481 0.62777 0.0
N509 N 0.57274 0.3429 0.50184 0.0
H510 H 0.66172 0.39472 0.49051 0.0
H511 H 0.62703 0.37313 0.46689 0.0
H512 H 0.5497 0.32833 0.50602 0.0
H513 H 0.57611 0.35315 0.47454 0.0
H514 H 0.63959 0.38214 0.65565 0.0
H515 H 0.67221 0.39878 0.62486 0.0
H516 H 0.58796 0.36237 0.6584 0.0
H517 H 0.55886 0.33352 0.63468 0.0
C518 C 0.64443 0.1346 0.77931 0.0
C519 C 0.63831 0.15931 0.80973 0.0
C520 C 0.65371 0.11293 0.8544 0.0
C521 C 0.67297 0.09594 0.82582 0.0
N522 N 0.67185 0.07751 0.76098 0.0
N523 N 0.63906 0.17088 0.87813 0.0
C524 C 0.662 0.10175 0.78805 0.0
C525 C 0.64287 0.14816 0.84807 0.0
N526 N 0.63546 0.14322 0.74276 0.0
N527 N 0.64703 0.09582 0.88744 0.0
H528 H 0.63289 0.19772 0.87507 0.0
H529 H 0.64482 0.16316 0.90602 0.0
H530 H 0.65541 0.06946 0.89124 0.0
H531 H 0.62997 0.1069 0.90782 0.0
H532 H 0.63864 0.12612 0.71966 0.0
H533 H 0.62408 0.16763 0.73545 0.0
H534 H 0.66668 0.0801 0.73201 0.0
H535 H 0.68504 0.05395 0.76867 0.0
C536 C 0.28548 0.72742 0.61022 0.0
C537 C 0.27072 0.7597 0.59789 0.0
C538 C 0.23352 0.72851 0.55351 0.0
C539 C 0.25546 0.69779 0.55913 0.0
N540 N 0.30484 0.66895 0.5914 0.0
N541 N 0.21956 0.78917 0.57348 0.0
C542 C 0.28232 0.69742 0.58701 0.0
C543 C 0.24095 0.75974 0.57427 0.0
N544 N 0.30215 0.72577 0.64433 0.0
N545 N 0.20694 0.72792 0.52724 0.0
H546 H 0.22479 0.81089 0.5909 0.0
H547 H 0.1951 0.79033 0.56001 0.0
H548 H 0.2036 0.70624 0.50921 0.0
H549 H 0.19056 0.74958 0.52082 0.0
H550 H 0.30963 0.70157 0.65654 0.0
H551 H 0.30318 0.7482 0.66181 0.0
H552 H 0.32636 0.66922 0.60997 0.0
H553 H 0.30452 0.64669 0.57382 0.0
C554 C 0.25655 0.76864 0.77675 0.0
C555 C 0.27021 0.80308 0.77996 0.0
C556 C 0.33022 0.78097 0.78415 0.0
C557 C 0.31712 0.74587 0.78383 0.0
N558 N 0.27046 0.70694 0.76315 0.0
N559 N 0.31824 0.84106 0.76403 0.0
C560 C 0.28094 0.73971 0.77493 0.0
C561 C 0.30661 0.8087 0.77541 0.0
N562 N 0.22092 0.76375 0.77489 0.0
N563 N 0.36387 0.78861 0.79543 0.0
H564 H 0.30012 0.86106 0.7568 0.0
H565 H 0.34469 0.84605 0.75758 0.0
H566 H 0.38187 0.76988 0.80575 0.0
H567 H 0.37256 0.8146 0.79874 0.0
H568 H 0.20909 0.73907 0.7777 0.0
H569 H 0.20328 0.78481 0.77018 0.0
H570 H 0.24437 0.70079 0.75679 0.0
H571 H 0.28856 0.68711 0.75505 0.0
C572 C 0.25719 0.77089 1.02332 0.0
C573 C 0.25987 0.80792 1.02062 0.0
C574 C 0.20174 0.81628 1.04962 0.0
C575 C 0.20136 0.77905 0.0563 0.0
N576 N 0.23359 0.72336 0.06079 0.0
N577 N 0.2307 0.86465 1.01654 0.0
C578 C 0.23067 0.75706 1.04652 0.0
C579 C 0.23073 0.83042 1.02922 0.0
N580 N 0.28095 0.74936 1.00454 0.0
N581 N 0.1758 0.83807 0.06431 0.0
H582 H 0.25098 0.87367 0.99908 0.0
H583 H 0.20943 0.8824 1.01936 0.0
H584 H 0.1564 0.82924 0.08295 0.0
H585 H 0.17575 0.86563 0.0619 0.0
H586 H 0.27945 0.72172 1.00424 0.0
H587 H 0.29986 0.75987 0.98606 0.0
H588 H 0.25581 0.70702 0.05656 0.0
H589 H 0.21557 0.71374 0.08074 0.0
C590 C 0.14748 0.62482 0.26373 0.0
C591 C 0.13943 0.64805 0.29435 0.0
C592 C 0.1488 0.59918 0.33844 0.0
C593 C 0.17205 0.58473 0.31104 0.0
N594 N 0.17282 0.56685 0.24568 0.0
N595 N 0.11738 0.65319 0.35855 0.0
C596 C 0.16258 0.59092 0.27269 0.0
C597 C 0.13442 0.63363 0.33119 0.0
N598 N 0.14151 0.63568 0.2273 0.0
N599 N 0.14272 0.58086 0.37108 0.0
H600 H 0.10679 0.67841 0.35267 0.0
H601 H 0.11334 0.64422 0.38626 0.0
H602 H 0.15489 0.55608 0.37557 0.0
H603 H 0.12431 0.58903 0.3916 0.0
H604 H 0.14702 0.62009 0.20343 0.0
H605 H 0.12933 0.66024 0.2217 0.0
H606 H 0.16822 0.56999 0.21662 0.0
H607 H 0.18549 0.54308 0.25361 0.0
C608 C 0.57766 0.24829 0.94834 0.0
C609 C 0.57187 0.23417 0.91189 0.0
C610 C 0.5729 0.17397 0.94052 0.0
C611 C 0.58787 0.18825 0.97444 0.0
N612 N 0.61116 0.24091 1.00558 0.0
N613 N 0.55887 0.18326 0.87322 0.0
C614 C 0.59152 0.22602 0.97724 0.0
C615 C 0.56717 0.19686 0.90806 0.0
N616 N 0.57174 0.2837 0.95461 0.0
N617 N 0.56373 0.13905 0.93945 0.0
H618 H 0.5526 0.19957 0.85012 0.0
H619 H 0.5593 0.15619 0.86697 0.0
H620 H 0.5672 0.12211 0.96269 0.0
H621 H 0.55029 0.1276 0.91678 0.0
H622 H 0.5725 0.29498 0.98176 0.0
H623 H 0.56211 0.30053 0.93319 0.0
H624 H 0.61649 0.268 1.00685 0.0
H625 H 0.62642 0.22603 1.02451 0.0
C626 C 0.76499 0.128 0.18915 0.0
C627 C 0.75819 0.14963 0.22198 0.0
C628 C 0.69575 0.15413 0.20042 0.0
C629 C 0.70477 0.13991 0.1638 0.0
N630 N 0.75169 0.11837 0.12238 0.0
N631 N 0.71521 0.18356 0.25837 0.0
C632 C 0.7404 0.12807 0.15796 0.0
C633 C 0.72301 0.16297 0.22726 0.0
N634 N 0.79418 0.1062 0.18792 0.0
N635 N 0.6609 0.15723 0.2106 0.0
H636 H 0.73375 0.18963 0.27927 0.0
H637 H 0.69076 0.19615 0.26247 0.0
H638 H 0.64044 0.14956 0.19264 0.0
H639 H 0.65255 0.16321 0.23824 0.0
H640 H 0.79876 0.08801 0.16593 0.0
H641 H 0.81133 0.10315 0.21092 0.0
H642 H 0.77827 0.11313 0.11603 0.0
H643 H 0.73531 0.11902 0.09854 0.0
C644 C 0.79214 0.28811 0.44356 0.0
C645 C 0.80531 0.27706 0.47964 0.0
C646 C 0.82918 0.22229 0.44832 0.0
C647 C 0.81362 0.23217 0.41272 0.0
N648 N 0.77553 0.27457 0.37948 0.0
N649 N 0.82774 0.22819 0.51729 0.0
C650 C 0.7938 0.26479 0.41129 0.0
C651 C 0.82149 0.24262 0.48221 0.0
N652 N 0.77786 0.32136 0.43942 0.0
N653 N 0.85289 0.1945 0.44975 0.0
H654 H 0.8204 0.2411 0.54246 0.0
H655 H 0.83612 0.20192 0.52127 0.0
H656 H 0.86067 0.17999 0.42574 0.0
H657 H 0.86774 0.18835 0.47393 0.0
H658 H 0.76742 0.32997 0.41359 0.0
H659 H 0.77744 0.34039 0.46106 0.0
H660 H 0.77325 0.25879 0.35514 0.0
H661 H 0.77325 0.25879 0.35514 0.0
C662 C 0.67754 0.31716 0.69997 0.0
C663 C 0.68638 0.32253 0.73891 0.0
C664 C 0.74618 0.34021 0.71756 0.0
C665 C 0.73803 0.33036 0.67956 0.0
N666 N 0.69864 0.29933 0.63773 0.0
N667 N 0.73412 0.32979 0.78444 0.0
C668 C 0.70457 0.31561 0.67178 0.0
C669 C 0.72208 0.33174 0.74779 0.0
N670 N 0.64298 0.31546 0.68939 0.0
N671 N 0.77693 0.35747 0.72497 0.0
H672 H 0.71889 0.32067 0.80707 0.0
H673 H 0.76065 0.33305 0.79159 0.0
H674 H 0.7955 0.36301 0.70376 0.0
H675 H 0.78263 0.36842 0.75153 0.0
H676 H 0.63489 0.31159 0.66139 0.0
H677 H 0.6228 0.32336 0.70788 0.0
H678 H 0.67584 0.28505 0.63196 0.0
H679 H 0.71839 0.29645 0.61712 0.0
C680 C 0.68478 0.26985 0.37028 0.0
C681 C 0.69349 0.30598 0.37657 0.0
C682 C 0.69059 0.29484 0.44592 0.0
C683 C 0.67738 0.25992 0.43951 0.0
N684 N 0.65386 0.21837 0.39368 0.0
N685 N 0.70029 0.35429 0.4206 0.0
C686 C 0.67231 0.24855 0.40114 0.0
C687 C 0.6948 0.31892 0.41454 0.0
N688 N 0.68937 0.25539 0.3349 0.0
N689 N 0.70054 0.30459 0.48182 0.0
H690 H 0.70381 0.37227 0.39836 0.0
H691 H 0.6997 0.36627 0.4473 0.0
H692 H 0.70087 0.28703 0.50478 0.0
H693 H 0.71204 0.32881 0.48815 0.0
H694 H 0.68721 0.22826 0.32951 0.0
H695 H 0.69904 0.26996 0.312 0.0
H696 H 0.64662 0.21083 0.36621 0.0
H697 H 0.64251 0.20284 0.41488 0.0
C698 C 0.69909 0.14253 0.65412 0.0
C699 C 0.69829 0.17668 0.63595 0.0
C700 C 0.74017 0.19674 0.68477 0.0
C701 C 0.74568 0.16161 0.69886 0.0
N702 N 0.73738 0.0991 0.68466 0.0
N703 N 0.7338 0.2289 0.62615 0.0
C704 C 0.72711 0.13381 0.68016 0.0
C705 C 0.7232 0.20185 0.64902 0.0
N706 N 0.67342 0.11816 0.64747 0.0
N707 N 0.74995 0.22572 0.70539 0.0
H708 H 0.72582 0.23153 0.59785 0.0
H709 H 0.7545 0.24541 0.63398 0.0
H710 H 0.75867 0.22411 0.73352 0.0
H711 H 0.74466 0.25156 0.69598 0.0
H712 H 0.67214 0.09429 0.66245 0.0
H713 H 0.65115 0.12301 0.6309 0.0
H714 H 0.72615 0.07849 0.66915 0.0
H715 H 0.76029 0.09132 0.69902 0.0
C716 C 0.85366 0.21683 0.94556 0.0
C717 C 0.85531 0.25355 0.93577 0.0
C718 C 0.84094 0.23762 0.86915 0.0
C719 C 0.84061 0.20103 0.87865 0.0
N720 N 0.85914 0.15577 0.92316 0.0
N721 N 0.86428 0.29521 0.88481 0.0
C722 C 0.8509 0.19058 0.91602 0.0
C723 C 0.85285 0.26286 0.8965 0.0
N724 N 0.8532 0.20678 0.98291 0.0
N725 N 0.82983 0.24855 0.83397 0.0
H726 H 0.87544 0.31293 0.90384 0.0
H727 H 0.86644 0.30248 0.85623 0.0
H728 H 0.82194 0.23096 0.81272 0.0
H729 H 0.82596 0.27524 0.82703 0.0
H730 H 0.84871 0.18077 0.99156 0.0
H731 H 0.85435 0.22479 1.00537 0.0
H732 H 0.86967 0.14697 0.94897 0.0
H733 H 0.85923 0.13645 0.90178 0.0
C734 C 0.81225 0.39767 0.14111 0.0
C735 C 0.7994 0.37785 0.10957 0.0
C736 C 0.74124 0.37401 0.14207 0.0
C737 C 0.75537 0.38992 0.17544 0.0
N738 N 0.79762 0.43303 0.19725 0.0
N739 N 0.747 0.35907 0.07547 0.0
C740 C 0.78896 0.40663 0.17235 0.0
C741 C 0.76252 0.36983 0.10857 0.0
N742 N 0.84642 0.40915 0.14065 0.0
N743 N 0.70709 0.36251 0.14223 0.0
H744 H 0.76066 0.34965 1.05171 0.0
H745 H 0.71971 0.35971 0.07135 0.0
H746 H 0.68829 0.3716 0.16197 0.0
H747 H 0.6975 0.34399 0.12285 0.0
H748 H 0.85884 0.42044 0.16409 0.0
H749 H 0.86302 0.40633 0.11699 0.0
H750 H 0.82057 0.44785 0.19508 0.0
H751 H 0.77971 0.44403 0.21667 0.0
C752 C 0.13631 0.73939 0.44959 0.0
C753 C 0.1584 0.73537 0.41687 0.0
C754 C 0.16859 0.67224 0.43517 0.0
C755 C 0.14984 0.67679 0.47003 0.0
N756 N 0.10408 0.71138 0.50155 0.0
N757 N 0.20066 0.69925 0.38275 0.0
C758 C 0.13056 0.70969 0.47495 0.0
C759 C 0.17598 0.70215 0.41107 0.0
N760 N 0.12159 0.77207 0.45707 0.0
N761 N 0.17612 0.63871 0.42277 0.0
H762 H 0.20785 0.72071 0.36574 0.0
H763 H 0.21643 0.67668 0.3788 0.0
H764 H 0.16555 0.61621 0.43534 0.0
H765 H 0.188 0.63329 0.39684 0.0
H766 H 0.10856 0.77852 0.48239 0.0
H767 H 0.12516 0.79383 0.43909 0.0
H768 H 0.08728 0.73328 0.50545 0.0
H769 H 0.09561 0.689 0.51628 0.0
C770 C 0.25856 0.60484 0.72568 0.0
C771 C 0.29672 0.60263 0.7242 0.0
C772 C 0.2901 0.58791 0.65499 0.0
C773 C 0.25234 0.58758 0.65823 0.0
N774 N 0.20378 0.58072 0.70189 0.0
N775 N 0.34641 0.57936 0.68751 0.0
C776 C 0.23791 0.59066 0.69539 0.0
C777 C 0.31184 0.59041 0.68884 0.0
N778 N 0.24099 0.62305 0.75389 0.0
N779 N 0.30563 0.5868 0.61986 0.0
H780 H 0.36216 0.57713 0.71173 0.0
H781 H 0.3579 0.56778 0.66335 0.0
H782 H 0.29136 0.58398 0.59474 0.0
H783 H 0.33256 0.59121 0.61568 0.0
H784 H 0.21362 0.62722 0.7534 0.0
H785 H 0.25294 0.63882 0.77421 0.0
H786 H 0.19276 0.57988 0.72918 0.0
H787 H 0.18825 0.56933 0.68065 0.0
C788 C 0.38548 0.69167 0.95097 0.0
C789 C 0.39432 0.70381 0.91414 0.0
C790 C 0.40979 0.76172 0.94406 0.0
C791 C 0.3942 0.75131 0.97946 0.0
N792 N 0.35842 0.70701 1.01104 0.0
N793 N 0.41445 0.75198 0.87527 0.0
C794 C 0.38001 0.71632 0.98149 0.0
C795 C 0.40652 0.73934 0.91061 0.0
N796 N 0.38252 0.65609 0.95714 0.0
N797 N 0.42906 0.79202 0.9426 0.0
H798 H 0.41444 0.73565 0.85119 0.0
H799 H 0.41944 0.77866 0.86982 0.0
H800 H 0.4332 0.80787 0.96654 0.0
H801 H 0.44358 0.79956 0.91872 0.0
H802 H 0.3817 0.64565 0.98461 0.0
H803 H 0.38613 0.63734 0.93542 0.0
H804 H 0.34514 0.68297 1.01153 0.0
H805 H 0.34956 0.72478 1.03193 0.0
C806 C 0.26886 0.83419 0.2329 0.0
C807 C 0.23732 0.8141 0.22794 0.0
C808 C 0.2603 0.79659 0.16383 0.0
C809 C 0.29164 0.81688 0.1684 0.0
N810 N 0.32066 0.86226 0.20471 0.0
N811 N 0.19859 0.7892 0.18133 0.0
C812 C 0.29398 0.83836 0.20189 0.0
C813 C 0.2319 0.79893 0.1913 0.0
N814 N 0.27649 0.84693 0.26826 0.0
N815 N 0.25731 0.77451 0.13321 0.0
H816 H 0.17704 0.79259 0.19975 0.0
H817 H 0.19185 0.78211 0.15355 0.0
H818 H 0.27589 0.77337 0.11118 0.0
H819 H 0.23753 0.75556 0.13149 0.0
H820 H 0.29954 0.86033 0.27496 0.0
H821 H 0.26165 0.83997 0.29198 0.0
H822 H 0.32157 0.88167 0.22587 0.0
H823 H 0.34063 0.86441 0.18431 0.0
C824 C 0.13794 0.78901 0.87201 0.0
C825 C 0.14003 0.82605 0.88149 0.0
C826 C 0.12446 0.81032 0.94817 0.0
C827 C 0.12115 0.77366 0.93827 0.0
N828 N 0.11617 0.73035 0.88823 0.0
N829 N 0.13076 0.87161 0.92928 0.0
C830 C 0.12512 0.76389 0.89935 0.0
C831 C 0.13171 0.83644 0.91962 0.0
N832 N 0.15107 0.77689 0.83797 0.0
N833 N 0.12153 0.82156 0.98496 0.0
H834 H 0.13362 0.8919 0.90934 0.0
H835 H 0.12527 0.88039 0.95697 0.0
H836 H 0.11674 0.80489 1.00805 0.0
H837 H 0.11674 0.80489 1.00805 0.0
H838 H 0.15397 0.75003 0.83124 0.0
H839 H 0.16328 0.79311 0.81816 0.0
H840 H 0.11476 0.72241 0.85981 0.0
H841 H 0.10643 0.71153 0.90724 0.0
C842 C 0.19308 0.63525 0.1376 0.0
C843 C 0.16993 0.66547 0.13385 0.0
C844 C 0.19686 0.68998 0.1928 0.0
C845 C 0.22242 0.66153 0.19443 0.0
N846 N 0.24404 0.60626 0.16742 0.0
N847 N 0.14878 0.7213 0.16001 0.0
C848 C 0.22033 0.63407 0.16639 0.0
C849 C 0.17113 0.69239 0.16249 0.0
N850 N 0.1872 0.60627 0.11501 0.0
N851 N 0.19787 0.71575 0.22 0.0
H852 H 0.13165 0.72608 0.13752 0.0
H853 H 0.14667 0.74156 0.17997 0.0
H854 H 0.22014 0.72002 0.23671 0.0
H855 H 0.17634 0.73208 0.22675 0.0
H856 H 0.20019 0.58185 0.11806 0.0
H857 H 0.16638 0.60536 0.09553 0.0
H858 H 0.24787 0.58843 0.14501 0.0
H859 H 0.26106 0.60144 0.19018 0.0
C860 C 0.34919 0.73756 0.3907 0.0
C861 C 0.31892 0.71461 0.39065 0.0
C862 C 0.29962 0.74535 0.45051 0.0
C863 C 0.331 0.76585 0.45239 0.0
N864 N 0.38943 0.77483 0.42715 0.0
N865 N 0.27371 0.68992 0.43117 0.0
C866 C 0.35714 0.75938 0.42368 0.0
C867 C 0.2965 0.71676 0.42351 0.0
N868 N 0.36936 0.74087 0.35854 0.0
N869 N 0.27217 0.75274 0.4747 0.0
H870 H 0.27371 0.6663 0.41568 0.0
H871 H 0.25868 0.68899 0.45612 0.0
H872 H 0.27372 0.77068 0.49726 0.0
H873 H 0.24692 0.743 0.46973 0.0
H874 H 0.39062 0.75799 0.35632 0.0
H875 H 0.36283 0.73003 0.33235 0.0
H876 H 0.41113 0.768 0.41009 0.0
H877 H 0.39542 0.79239 0.44915 0.0
C878 C 0.26266 0.90039 0.64281 0.0
C879 C 0.30039 0.89901 0.642 0.0
C880 C 0.29803 0.91936 0.70994 0.0
C881 C 0.2602 0.92113 0.70848 0.0
N882 N 0.21118 0.93206 0.66658 0.0
N883 N 0.35402 0.91569 0.67435 0.0
C884 C 0.24455 0.91883 0.67223 0.0
C885 C 0.31828 0.91116 0.67551 0.0
N886 N 0.2435 0.88006 0.61857 0.0
N887 N 0.31451 0.92536 0.7438 0.0
H888 H 0.36895 0.91109 0.64975 0.0
H889 H 0.36833 0.92685 0.69656 0.0
H890 H 0.30054 0.93341 0.76808 0.0
H891 H 0.3415 0.921 0.74813 0.0
H892 H 0.21597 0.87905 0.6197 0.0
H893 H 0.25539 0.85969 0.60287 0.0
H894 H 0.19968 0.93277 0.63957 0.0
H895 H 0.19716 0.94541 0.68815 0.0
C896 C 0.67673 0.24555 0.17444 0.0
C897 C 0.66451 0.24815 0.21229 0.0
C898 C 0.60488 0.23286 0.19195 0.0
C899 C 0.61536 0.24083 0.15412 0.0
N900 N 0.66309 0.24901 0.10838 0.0
N901 N 0.62104 0.23347 0.25918 0.0
C902 C 0.65167 0.24489 0.1449 0.0
C903 C 0.62996 0.23698 0.22164 0.0
N904 N 0.71209 0.24562 0.1665 0.0
N905 N 0.57089 0.22283 0.19928 0.0
H906 H 0.63993 0.23625 0.28059 0.0
H907 H 0.59578 0.22787 0.26917 0.0
H908 H 0.55191 0.22069 0.17787 0.0
H909 H 0.56173 0.21501 0.22591 0.0
H910 H 0.72187 0.24446 0.13866 0.0
H911 H 0.73111 0.24357 0.18795 0.0
H912 H 0.64634 0.24909 0.08476 0.0
H913 H 0.64634 0.24909 0.08476 0.0
C914 C 0.73579 0.14963 0.45409 0.0
C915 C 0.73056 0.11716 0.47354 0.0
C916 C 0.72051 0.08627 0.41326 0.0
C917 C 0.72756 0.11829 0.39396 0.0
N918 N 0.73103 0.18205 0.39457 0.0
N919 N 0.71195 0.05608 0.47367 0.0
C920 C 0.73079 0.15068 0.41413 0.0
C921 C 0.72091 0.08584 0.45371 0.0
N922 N 0.74754 0.17874 0.47354 0.0
N923 N 0.71573 0.05604 0.39238 0.0
H924 H 0.71228 0.05503 0.5034 0.0
H925 H 0.70191 0.03327 0.4612 0.0
H926 H 0.71397 0.05675 0.36265 0.0
H927 H 0.71419 0.03066 0.40393 0.0
H928 H 0.75457 0.20249 0.46068 0.0
H929 H 0.7522 0.17878 0.50284 0.0
H930 H 0.73302 0.20687 0.40734 0.0
H931 H 0.72604 0.18348 0.36542 0.0
C932 C 0.92463 0.26084 0.67211 0.0
C933 C 0.88815 0.26229 0.66179 0.0
C934 C 0.87495 0.28256 0.726 0.0
C935 C 0.90554 0.26448 0.73821 0.0
N936 N 0.96676 0.25439 0.72472 0.0
N937 N 0.82746 0.26913 0.68346 0.0
C938 C 0.93337 0.26092 0.71167 0.0
C939 C 0.86269 0.27358 0.68932 0.0
N940 N 0.94998 0.25795 0.64442 0.0
N941 N 0.85427 0.29993 0.75198 0.0
H942 H 0.81781 0.25641 0.65929 0.0
H943 H 0.80856 0.27442 0.70457 0.0
H944 H 0.86311 0.30353 0.77991 0.0
H945 H 0.83063 0.31276 0.74452 0.0
H946 H 0.97705 0.25752 0.64992 0.0
H947 H 0.9435 0.25836 0.61549 0.0
H948 H 0.98843 0.24863 0.70724 0.0
H949 H 0.97212 0.25498 0.75394 0.0
C950 C 0.74462 0.37516 0.96957 0.0
C951 C 0.77024 0.37027 0.9403 0.0
C952 C 0.74667 0.31201 0.9261 0.0
C953 C 0.71604 0.32133 0.9469 0.0
N954 N 0.68928 0.35526 0.99759 0.0
N955 N 0.79527 0.33477 0.88927 0.0
C956 C 0.71652 0.3505 0.97242 0.0
C957 C 0.77183 0.33846 0.91876 0.0
N958 N 0.74686 0.40372 0.99354 0.0
N959 N 0.74978 0.27868 0.91102 0.0
H960 H 0.81474 0.35338 0.88333 0.0
H961 H 0.79365 0.31438 0.86927 0.0
H962 H 0.73043 0.25964 0.91598 0.0
H963 H 0.7725 0.2694 0.89705 0.0
H964 H 0.72969 0.40866 1.01624 0.0
H965 H 0.76744 0.42185 0.99181 0.0
H966 H 0.68496 0.37819 1.01364 0.0
H967 H 0.67134 0.33513 1.00303 0.0
C968 C 0.14814 0.79281 0.64098 0.0
C969 C 0.17417 0.80667 0.66535 0.0
C970 C 0.20596 0.75052 0.6668 0.0
C971 C 0.17955 0.73602 0.64296 0.0
N972 N 0.13601 0.7482 0.5937 0.0
N973 N 0.23414 0.8045 0.688 0.0
C974 C 0.15368 0.75855 0.62572 0.0
C975 C 0.20552 0.78745 0.67335 0.0
N976 N 0.11771 0.81157 0.6336 0.0
N977 N 0.23003 0.72914 0.68498 0.0
H978 H 0.23391 0.8319 0.69279 0.0
H979 H 0.25898 0.79245 0.6912 0.0
H980 H 0.22873 0.70151 0.68554 0.0
H981 H 0.2498 0.73909 0.70223 0.0
H982 H 0.09632 0.80075 0.61914 0.0
H983 H 0.11311 0.83712 0.64408 0.0
H984 H 0.11913 0.76522 0.57859 0.0
H985 H 0.14184 0.72454 0.57933 0.0
C986 C 0.19586 0.66314 0.86359 0.0
C987 C 0.21762 0.69268 0.85947 0.0
C988 C 0.21265 0.7047 0.92645 0.0
C989 C 0.20737 0.66759 0.93132 0.0
N990 N 0.1894 0.61152 0.9039 0.0
N991 N 0.22068 0.75277 0.88048 0.0
C992 C 0.19589 0.64685 0.89992 0.0
C993 C 0.21523 0.71796 0.88873 0.0
N994 N 0.1815 0.64804 0.83217 0.0
N995 N 0.21773 0.72593 0.95727 0.0
H996 H 0.2251 0.76076 0.8524 0.0
H997 H 0.21901 0.77324 0.90045 0.0
H998 H 0.21525 0.71605 0.98485 0.0
H999 H 0.22282 0.75296 0.95543 0.0
H1000 H 0.16527 0.62595 0.83354 0.0
H1001 H 0.18429 0.65996 0.80545 0.0
H1002 H 0.18438 0.59498 0.88076 0.0
H1003 H 0.1912 0.59864 0.93017 0.0
C1004 C 0.33547 0.72573 0.19146 0.0
C1005 C 0.3494 0.74145 0.22492 0.0
C1006 C 0.41003 0.73265 0.20189 0.0
C1007 C 0.39618 0.7169 0.16848 0.0
N1008 N 0.34707 0.70011 0.12883 0.0
N1009 N 0.39839 0.76436 0.26098 0.0
C1010 C 0.35921 0.71391 0.16244 0.0
C1011 C 0.38626 0.74658 0.22968 0.0
N1012 N 0.29967 0.72158 0.18806 0.0
N1013 N 0.44591 0.73315 0.20742 0.0
H1014 H 0.3819 0.77308 0.28305 0.0
H1015 H 0.42439 0.77248 0.26437 0.0
H1016 H 0.46416 0.7238 0.18723 0.0
H1017 H 0.45792 0.74086 0.2327 0.0
H1018 H 0.28756 0.70756 0.16626 0.0
H1019 H 0.28155 0.73176 0.20793 0.0
H1020 H 0.3206 0.69997 0.12075 0.0
H1021 H 0.36386 0.68957 0.10784 0.0
C1022 C 0.2007 0.91482 0.46231 0.0
C1023 C 0.20709 0.88252 0.48131 0.0
C1024 C 0.22367 0.85269 0.4234 0.0
C1025 C 0.22379 0.88603 0.40472 0.0
N1026 N 0.20273 0.94708 0.40227 0.0
N1027 N 0.19961 0.81976 0.47645 0.0
C1028 C 0.20878 0.91676 0.42275 0.0
C1029 C 0.20843 0.85106 0.45994 0.0
N1030 N 0.19075 0.94373 0.48344 0.0
N1031 N 0.24111 0.82381 0.4084 0.0
H1032 H 0.18901 0.81938 0.50391 0.0
H1033 H 0.19968 0.79571 0.46162 0.0
H1034 H 0.25444 0.82427 0.38231 0.0
H1035 H 0.24427 0.80007 0.42336 0.0
H1036 H 0.18803 0.96937 0.47264 0.0
H1037 H 0.1855 0.94116 0.5126 0.0
H1038 H 0.19047 0.96978 0.41345 0.0
H1039 H 0.20818 0.94867 0.37314 0.0
C1040 C 0.74541 0.03481 0.90438 0.0
C1041 C 0.76537 0.0658 0.89628 0.0
C1042 C 0.72303 0.10061 0.93527 0.0
C1043 C 0.70726 0.06898 0.94881 0.0
N1044 N 0.70436 0.00521 0.94712 0.0
N1045 N 0.77625 0.12716 0.91106 0.0
C1046 C 0.71867 0.03581 0.93349 0.0
C1047 C 0.75489 0.09847 0.91353 0.0
N1048 N 0.75138 0.00465 0.88343 0.0
N1049 N 0.70709 0.13284 0.94207 0.0
H1050 H 0.80032 0.12584 0.89681 0.0
H1051 H 0.77162 0.15078 0.92598 0.0
H1052 H 0.68305 0.13547 0.95659 0.0
H1053 H 0.71578 0.15638 0.9298 0.0
H1054 H 0.73573 0.98218 0.88541 0.0
H1055 H 0.76982 0.00343 0.86122 0.0
H1056 H 0.71412 0.97995 0.9402 0.0
H1057 H 0.68415 0.00523 0.96748 0.0
C1058 C 0.93087 0.23565 0.17279 0.0
C1059 C 0.89749 0.24747 0.15863 0.0
C1060 C 0.86961 0.19836 0.19251 0.0
C1061 C 0.90115 0.19105 0.21274 0.0
N1062 N 0.96228 0.20529 0.22404 0.0
N1063 N 0.83335 0.24254 0.16142 0.0
C1064 C 0.93212 0.21023 0.20318 0.0
C1065 C 0.86634 0.22978 0.17058 0.0
N1066 N 0.96126 0.24908 0.15779 0.0
N1067 N 0.84368 0.17377 0.19142 0.0
H1068 H 0.82874 0.26507 0.14494 0.0
H1069 H 0.81031 0.23194 0.17297 0.0
H1070 H 0.84663 0.14936 0.20502 0.0
H1071 H 0.82183 0.17605 0.17341 0.0
H1072 H 0.98639 0.23909 0.16442 0.0
H1073 H 0.96112 0.26859 0.13668 0.0
H1074 H 0.98456 0.22101 0.22096 0.0
H1075 H 0.96384 0.18752 0.24681 0.0
C1076 C 0.76322 0.44526 0.47258 0.0
C1077 C 0.79779 0.43357 0.48282 0.0
C1078 C 0.81516 0.43658 0.41605 0.0
C1079 C 0.77892 0.43385 0.4064 0.0
N1080 N 0.71786 0.44327 0.42377 0.0
N1081 N 0.85938 0.43135 0.46629 0.0
C1082 C 0.75266 0.44174 0.43398 0.0
C1083 C 0.82492 0.43457 0.45507 0.0
N1084 N 0.74099 0.4593 0.49955 0.0
N1085 N 0.83966 0.43916 0.38758 0.0
H1086 H 0.86619 0.43145 0.49515 0.0
H1087 H 0.88069 0.42858 0.44758 0.0
H1088 H 0.83197 0.44078 0.35903 0.0
H1089 H 0.86667 0.44218 0.39217 0.0
H1090 H 0.71593 0.46968 0.4933 0.0
H1091 H 0.74971 0.46436 0.52723 0.0
H1092 H 0.69717 0.44465 0.44348 0.0
H1093 H 0.70998 0.442 0.39531 0.0
C1094 C 0.53075 0.26173 0.65173 0.0
C1095 C 0.5577 0.25438 0.67889 0.0
C1096 C 0.58075 0.20611 0.63878 0.0
C1097 C 0.55624 0.21521 0.60999 0.0
N1098 N 0.51035 0.25452 0.58642 0.0
N1099 N 0.61501 0.22723 0.69145 0.0
C1100 C 0.53185 0.24392 0.61566 0.0
C1101 C 0.5847 0.22891 0.67036 0.0
N1102 N 0.50365 0.28472 0.66083 0.0
N1103 N 0.59887 0.17447 0.63744 0.0
H1104 H 0.61972 0.24413 0.71429 0.0
H1105 H 0.63695 0.21168 0.68349 0.0
H1106 H 0.59625 0.15627 0.61519 0.0
H1107 H 0.61352 0.16499 0.66054 0.0
H1108 H 0.48131 0.28849 0.64389 0.0
H1109 H 0.5025 0.29842 0.68671 0.0
H1110 H 0.49455 0.27746 0.58733 0.0
H1111 H 0.51047 0.24178 0.55996 0.0
C1112 C 0.25967 0.55691 0.40079 0.0
C1113 C 0.2731 0.57808 0.43064 0.0
C1114 C 0.32317 0.59579 0.39104 0.0
C1115 C 0.30832 0.57674 0.36024 0.0
N1116 N 0.26955 0.53094 0.33807 0.0
N1117 N 0.32164 0.609 0.45889 0.0
C1118 C 0.27891 0.55439 0.36595 0.0
C1119 C 0.30639 0.59456 0.42725 0.0
N1120 N 0.22767 0.54094 0.40512 0.0
N1121 N 0.35256 0.61589 0.38527 0.0
H1122 H 0.3099 0.60759 0.48581 0.0
H1123 H 0.34699 0.61942 0.45938 0.0
H1124 H 0.36647 0.61605 0.35952 0.0
H1125 H 0.36229 0.6338 0.40516 0.0
H1126 H 0.2144 0.5283 0.38309 0.0
H1127 H 0.21368 0.54153 0.43084 0.0
H1128 H 0.25024 0.51177 0.34159 0.0
H1129 H 0.28301 0.52898 0.3121 0.0
C1130 C 0.39035 0.72195 0.69345 0.0
C1131 C 0.42195 0.70117 0.69405 0.0
C1132 C 0.44849 0.74234 0.64798 0.0
C1133 C 0.41793 0.76479 0.65078 0.0
N1134 N 0.36367 0.78012 0.68414 0.0
N1135 N 0.48288 0.69324 0.67524 0.0
C1136 C 0.39027 0.75606 0.67637 0.0
C1137 C 0.45169 0.7119 0.67234 0.0
N1138 N 0.35975 0.7083 0.7076 0.0
N1139 N 0.47409 0.74986 0.62174 0.0
H1140 H 0.48545 0.67042 0.69197 0.0
H1141 H 0.50654 0.70151 0.66307 0.0
H1142 H 0.47303 0.77265 0.60481 0.0
H1143 H 0.49525 0.73274 0.61541 0.0
H1144 H 0.33595 0.72238 0.70928 0.0
H1145 H 0.35761 0.68211 0.71678 0.0
H1146 H 0.34498 0.77649 0.70557 0.0
H1147 H 0.36182 0.80519 0.67171 0.0
C1148 C 0.32089 0.87379 0.93204 0.0
C1149 C 0.28978 0.89558 0.93011 0.0
C1150 C 0.30772 0.92625 0.98877 0.0
C1151 C 0.33975 0.90586 0.98938 0.0
N1152 N 0.38059 0.86679 0.95633 0.0
N1153 N 0.25588 0.94604 0.95321 0.0
C1154 C 0.34734 0.88131 0.95965 0.0
C1155 C 0.28411 0.92315 0.95723 0.0
N1156 N 0.32533 0.8458 0.90747 0.0
N1157 N 0.29912 0.9474 1.01928 0.0
H1158 H 0.23712 0.94351 0.93165 0.0
H1159 H 0.25234 0.96896 0.96955 0.0
H1160 H 0.3155 0.9499 1.04302 0.0
H1161 H 0.27457 0.96001 1.02272 0.0
H1162 H 0.34504 0.82634 0.91081 0.0
H1163 H 0.30816 0.8408 0.88494 0.0
H1164 H 0.38911 0.85274 0.9323 0.0
H1165 H 0.40067 0.87148 0.976 0.0
C1166 C 0.07457 0.81418 0.14523 0.0
C1167 C 0.05234 0.78425 0.14688 0.0
C1168 C 0.0496 0.79071 0.21613 0.0
C1169 C 0.08102 0.81082 0.21433 0.0
N1170 N 0.12155 0.84563 0.17675 0.0
N1171 N 0.00909 0.752 0.18234 0.0
C1172 C 0.09239 0.82474 0.17886 0.0
C1173 C 0.03609 0.77568 0.18199 0.0
N1174 N 0.07832 0.83239 0.11191 0.0
N1175 N 0.03396 0.78516 0.25072 0.0
H1176 H -0.00208 0.7428 0.15702 0.0
H1177 H -0.00202 0.74159 0.20702 0.0
H1178 H 0.04382 0.79653 0.27565 0.0
H1179 H 0.01023 0.77189 0.25441 0.0
H1180 H 0.09282 0.85564 0.10971 0.0
H1181 H 0.06288 0.82682 0.08806 0.0
H1182 H 0.13351 0.85239 0.15099 0.0
H1183 H 0.13469 0.85493 0.20074 0.0
C1184 C 0.55575 0.11714 0.33629 0.0
C1185 C 0.58365 0.09629 0.35205 0.0
C1186 C 0.6018 0.07734 0.28774 0.0
C1187 C 0.57012 0.09273 0.27301 0.0
N1188 N 0.51736 0.12866 0.28204 0.0
N1189 N 0.63447 0.05769 0.34374 0.0
C1190 C 0.54752 0.11361 0.29684 0.0
C1191 C 0.60752 0.0773 0.32791 0.0
N1192 N 0.53703 0.13993 0.35942 0.0
N1193 N 0.62622 0.06273 0.26323 0.0
H1194 H 0.6401 0.05846 0.37285 0.0
H1195 H 0.65033 0.03973 0.32855 0.0
H1196 H 0.62245 0.06206 0.23377 0.0
H1197 H 0.6513 0.05392 0.27155 0.0
H1198 H 0.51812 0.15812 0.34961 0.0
H1199 H 0.54275 0.14274 0.38836 0.0
H1200 H 0.4976 0.1408 0.29846 0.0
H1201 H 0.51118 0.12759 0.25308 0.0
C1202 C 0.87832 0.07028 0.51873 0.0
C1203 C 0.89948 0.09037 0.49332 0.0
C1204 C 0.91592 0.12925 0.54704 0.0
C1205 C 0.90009 0.1054 0.57325 0.0
N1206 N 0.86613 0.05275 0.58414 0.0
N1207 N 0.9382 0.13968 0.48289 0.0
C1208 C 0.88056 0.07621 0.55903 0.0
C1209 C 0.91759 0.12057 0.50727 0.0
N1210 N 0.856 0.04551 0.50414 0.0
N1211 N 0.9302 0.15988 0.56065 0.0
H1212 H 0.93956 0.13459 0.45369 0.0
H1213 H 0.95543 0.15938 0.49165 0.0
H1214 H 0.93051 0.16595 0.58968 0.0
H1215 H 0.93912 0.18036 0.54336 0.0
H1216 H 0.83733 0.03218 0.52042 0.0
H1217 H 0.85397 0.04065 0.47492 0.0
H1218 H 0.8556 0.02847 0.57609 0.0
H1219 H 0.86622 0.05684 0.61355 0.0
C1220 C 0.87554 0.40353 0.78702 0.0
C1221 C 0.89922 0.38372 0.76355 0.0
C1222 C 0.93247 0.36457 0.82032 0.0
C1223 C 0.91346 0.39022 0.8423 0.0
N1224 N 0.86452 0.43166 0.84859 0.0
N1225 N 0.9483 0.3427 0.7571 0.0
C1226 C 0.88375 0.40846 0.82639 0.0
C1227 C 0.92659 0.36268 0.78021 0.0
N1228 N 0.84568 0.41808 0.77115 0.0
N1229 N 0.95633 0.34239 0.83787 0.0
H1230 H 0.94353 0.33977 0.72797 0.0
H1231 H 0.97142 0.32999 0.76627 0.0
H1232 H 0.96133 0.34359 0.86709 0.0
H1233 H 0.96897 0.32103 0.82436 0.0
H1234 H 0.8257 0.4309 0.78666 0.0
H1235 H 0.83957 0.41454 0.74239 0.0
H1236 H 0.8448 0.44864 0.83822 0.0
H1237 H 0.86916 0.43478 0.87772 0.0
C1238 C 0.55012 0.43671 0.0856 0.0
C1239 C 0.58 0.42336 0.10591 0.0
C1240 C 0.59464 0.38992 1.04711 0.0
C1241 C 0.56987 0.41078 1.02557 0.0
N1242 N 0.53867 0.46804 1.02776 0.0
N1243 N 0.63783 0.39496 0.09739 0.0
C1244 C 0.55222 0.43876 1.04573 0.0
C1245 C 0.60454 0.40194 0.08438 0.0
N1246 N 0.51902 0.4456 0.10329 0.0
N1247 N 0.60733 0.35815 1.03393 0.0
H1248 H 0.64811 0.40776 0.12117 0.0
H1249 H 0.65639 0.38076 0.08108 0.0
H1250 H 0.59803 0.34645 1.00908 0.0
H1251 H 0.62354 0.34172 1.05063 0.0
H1252 H 0.49704 0.45476 0.0879 0.0
H1253 H 0.5142 0.4396 0.13187 0.0
H1254 H 0.52622 0.48866 1.04295 0.0
H1255 H 0.54379 0.47325 0.99907 0.0
C1256 C 0.06796 0.61892 0.77154 0.0
C1257 C 0.08627 0.58867 0.75647 0.0
C1258 C 0.11068 0.57539 0.81974 0.0
C1259 C 0.09023 0.60397 0.83532 0.0
N1260 N 0.05789 0.65851 0.82578 0.0
N1261 N 0.13242 0.54433 0.76326 0.0
C1262 C 0.07195 0.62781 0.81089 0.0
C1263 C 0.11029 0.56909 0.77966 0.0
N1264 N 0.04536 0.63793 0.74867 0.0
N1265 N 0.12867 0.553 0.84379 0.0
H1266 H 0.13234 0.539 0.73404 0.0
H1267 H 0.15282 0.53131 0.77778 0.0
H1268 H 0.1306 0.5579 0.87301 0.0
H1269 H 0.14046 0.52908 0.83528 0.0
H1270 H 0.02823 0.65784 0.7586 0.0
H1271 H 0.04253 0.63265 0.71963 0.0
H1272 H 0.04637 0.67864 0.80944 0.0
H1273 H 0.06073 0.66512 0.85452 0.0
C1274 C 0.35941 0.59018 0.09597 0.0
C1275 C 0.39145 0.57726 0.11319 0.0
C1276 C 0.40062 0.54273 0.05573 0.0
C1277 C 0.37718 0.56409 1.03362 0.0
N1278 N 0.33537 0.61462 1.03779 0.0
N1279 N 0.45001 0.55401 0.09553 0.0
C1280 C 0.35651 0.58982 0.055 0.0
C1281 C 0.41454 0.55727 0.08903 0.0
N1282 N 0.33111 0.60057 0.11772 0.0
N1283 N 0.40948 0.50871 1.04575 0.0
H1284 H 0.46289 0.56913 0.1161 0.0
H1285 H 0.46655 0.53954 0.07703 0.0
H1286 H 0.39691 0.49565 1.02337 0.0
H1287 H 0.42669 0.49325 0.06241 0.0
H1288 H 0.30692 0.60828 0.10575 0.0
H1289 H 0.33016 0.59633 0.14706 0.0
H1290 H 0.32206 0.63441 1.05333 0.0
H1291 H 0.33441 0.61849 1.00862 0.0
C1292 C 0.40289 0.86344 0.29664 0.0
C1293 C 0.42797 0.88116 0.27325 0.0
C1294 C 0.44496 0.91599 0.32836 0.0
C1295 C 0.42512 0.89463 0.35378 0.0
N1296 N 0.39178 0.84035 0.36005 0.0
N1297 N 0.4838 0.91203 0.27428 0.0
C1298 C 0.40583 0.86597 0.33744 0.0
C1299 C 0.45301 0.90281 0.29184 0.0
N1300 N 0.37581 0.84529 0.28064 0.0
N1301 N 0.45386 0.95 0.33738 0.0
H1302 H 0.49157 0.90106 0.24814 0.0
H1303 H 0.50276 0.92739 0.28796 0.0
H1304 H 0.44396 0.96299 0.36156 0.0
H1305 H 0.46705 0.96633 0.31812 0.0
H1306 H 0.35515 0.83509 0.29683 0.0
H1307 H 0.37278 0.84271 0.25132 0.0
H1308 H 0.37868 0.81848 0.34902 0.0
H1309 H 0.39691 0.83878 0.38915 0.0
C1310 C 0.11259 0.88986 0.52701 0.0
C1311 C 0.09406 0.91294 0.50132 0.0
C1312 C 0.07417 0.94717 0.5563 0.0
C1313 C 0.09856 0.9302 0.5814 0.0
N1314 N 0.14789 0.88808 0.58463 0.0
N1315 N 0.07253 0.97377 0.49448 0.0
C1316 C 0.11987 0.90205 0.56519 0.0
C1317 C 0.08017 0.94508 0.51688 0.0
N1318 N 0.12202 0.85622 0.51623 0.0
N1319 N 0.04415 0.96375 0.56941 0.0
H1320 H 0.0798 0.97463 0.46576 0.0
H1321 H 0.06282 -0.00235 0.50598 0.0
H1322 H 0.03606 0.96183 0.59777 0.0
H1323 H 0.02565 0.9753 0.55089 0.0
H1324 H 0.13275 0.8378 0.53537 0.0
H1325 H 0.11558 0.84579 0.48967 0.0
H1326 H 0.16517 0.86917 0.57272 0.0
H1327 H 0.15613 0.89864 0.61041 0.0
C1328 C 0.46896 0.01854 0.1733 0.0
C1329 C 0.50583 0.01447 0.18087 0.0
C1330 C 0.50187 0.94981 0.17349 0.0
C1331 C 0.46443 0.95356 0.16954 0.0
N1332 N 0.41221 0.99012 0.16257 0.0
N1333 N 0.55815 0.97755 0.18733 0.0
C1334 C 0.44806 0.9877 0.16792 0.0
C1335 C 0.52256 0.98046 0.1802 0.0
N1336 N 0.45404 0.05193 0.172 0.0
N1337 N 0.51761 0.91682 0.17122 0.0
H1338 H 0.57457 -0.00055 0.18992 0.0
H1339 H 0.57165 0.95371 0.19227 0.0
H1340 H 0.50368 0.89334 0.16865 0.0
H1341 H 0.54481 0.91229 0.16966 0.0
H1342 H 0.42806 0.05747 0.16401 0.0
H1343 H 0.46803 0.07488 0.17822 0.0
H1344 H 0.39728 0.01352 0.16417 0.0
H1345 H 0.39695 0.96792 0.15651 0.0
C1346 C 0.00076 0.01304 0.40004 0.0
C1347 C 0.96433 0.00524 0.40523 0.0
C1348 C 0.97906 0.94109 0.40463 0.0
C1349 C 0.01554 0.94867 0.40052 0.0
N1350 N 0.06095 0.99166 0.38816 0.0
N1351 N 0.91874 0.96066 0.41002 0.0
C1352 C 0.02625 0.98464 0.39606 0.0
C1353 C 0.9535 0.9692 0.40639 0.0
N1354 N 0.01116 0.04772 0.40087 0.0
N1355 N 0.96849 0.90665 0.40727 0.0
H1356 H 0.89803 0.97934 0.41161 0.0
H1357 H 0.89803 0.97934 0.41161 0.0
H1358 H 0.98621 0.88514 0.40511 0.0
H1359 H 0.94199 0.89982 0.41088 0.0
H1360 H 0.03741 0.0556 0.40207 0.0
H1361 H 0.99331 0.06912 0.40265 0.0
H1362 H 0.07011 0.01656 0.3804 0.0
H1363 H 0.08071 0.97208 0.38679 0.0
C1364 C 0.02372 0.47251 0.67158 0.0
C1365 C 0.01432 0.5092 0.67269 0.0
C1366 C 0.95113 0.49432 0.67061 0.0
C1367 C 0.96054 0.45765 0.66909 0.0
N1368 N 0.00508 0.41165 0.66147 0.0
N1369 N 0.97003 0.55568 0.66667 0.0
C1370 C -0.0033 0.44674 0.66732 0.0
C1371 C 0.97825 0.52029 0.67008 0.0
N1372 N 0.05841 0.46233 0.67601 0.0
N1373 N 0.91624 0.50417 0.67398 0.0
H1374 H 0.9891 0.57544 0.66721 0.0
H1375 H 0.94473 0.56546 0.66063 0.0
H1376 H 0.89571 0.48597 0.67258 0.0
H1377 H 0.90758 0.52998 0.68002 0.0
H1378 H 0.06682 0.43611 0.67988 0.0
H1379 H 0.07894 0.48044 0.67822 0.0
H1380 H 0.03065 0.40213 0.65615 0.0
H1381 H 0.98594 0.39209 0.65889 0.0
C1382 C 0.42794 0.46592 0.934 0.0
C1383 C 0.43821 0.50189 0.92907 0.0
C1384 C 0.49995 0.48273 0.9206 0.0
C1385 C 0.48969 0.4467 0.92552 0.0
N1386 N 0.44386 0.40328 0.92777 0.0
N1387 N 0.4816 0.54395 0.90883 0.0
C1388 C 0.45353 0.43811 0.92905 0.0
C1389 C 0.47349 0.51005 0.9193 0.0
N1390 N 0.39419 0.45843 0.9454 0.0
N1391 N 0.53506 0.49114 0.91962 0.0
H1392 H 0.4627 0.5645 0.90812 0.0
H1393 H 0.50608 0.55101 0.89766 0.0
H1394 H 0.55547 0.47218 0.92 0.0
H1395 H 0.54415 0.51709 0.92106 0.0
H1396 H 0.38628 0.43327 0.95391 0.0
H1397 H 0.37441 0.47784 0.9489 0.0
H1398 H 0.41766 0.39514 0.92663 0.0
H1399 H 0.46232 0.38256 0.92424 0.0
C1400 C 0.5382 0.53438 0.20651 0.0
C1401 C 0.53469 0.49723 0.21128 0.0
C1402 C 0.47147 0.50627 0.22669 0.0
C1403 C 0.47378 0.54223 0.21536 0.0
N1404 N 0.5091 0.5907 0.19222 0.0
N1405 N 0.49703 0.44694 0.22299 0.0
C1406 C 0.50722 0.55655 0.20528 0.0
C1407 C 0.50117 0.48295 0.22126 0.0
N1408 N 0.57123 0.54832 0.20297 0.0
N1409 N 0.44064 0.49446 0.24234 0.0
H1410 H 0.51779 0.42869 0.21917 0.0
H1411 H 0.47246 0.43494 0.22542 0.0
H1412 H 0.41857 0.51114 0.24642 0.0
H1413 H 0.43809 0.46941 0.25455 0.0
H1414 H 0.57603 0.57551 0.20293 0.0
H1415 H 0.59421 0.53252 0.20365 0.0
H1416 H 0.53178 0.60122 0.17995 0.0
H1417 H 0.48731 0.60804 0.19132 0.0
C1418 C 0.49544 0.02692 0.4508 0.0
C1419 C 0.53227 0.01955 0.45158 0.0
C1420 C 0.52048 0.95587 0.45923 0.0
C1421 C 0.48404 0.96288 0.45239 0.0
N1422 N 0.43745 0.00508 0.43556 0.0
N1423 N 0.58078 0.97726 0.45491 0.0
C1424 C 0.47155 -0.00154 0.447 0.0
C1425 C 0.54512 0.98408 0.45582 0.0
N1426 N 0.48334 0.06129 0.45349 0.0
N1427 N 0.53136 0.92233 0.46909 0.0
H1428 H 0.59945 -0.00263 0.45346 0.0
H1429 H 0.59183 0.95176 0.45346 0.0
H1430 H 0.51379 0.90131 0.47156 0.0
H1431 H 0.55702 0.91598 0.47782 0.0
H1432 H 0.45668 0.06812 0.457 0.0
H1433 H 0.50029 0.08281 0.45606 0.0
H1434 H 0.42836 0.03006 0.42684 0.0
H1435 H 0.41892 0.9853 0.43115 0.0
C1436 C 0.05878 0.05691 0.66184 0.0
C1437 C 0.05433 0.01967 0.66512 0.0
C1438 C 0.9897 0.02738 0.66228 0.0
C1439 C 0.99407 0.06465 0.66031 0.0
N1440 N 0.03128 0.11592 0.66286 0.0
N1441 N 0.0155 0.96941 0.67362 0.0
C1442 C 0.02824 0.07977 0.66155 0.0
C1443 C 0.01978 0.00497 0.66711 0.0
N1444 N 0.09212 0.07013 0.65812 0.0
N1445 N 0.95676 0.01319 0.65772 0.0
H1446 H 0.036 0.95066 0.67301 0.0
H1447 H 0.99148 0.95839 0.68165 0.0
H1448 H 0.9335 0.02842 0.65599 0.0
H1449 H 0.95243 0.98629 0.65295 0.0
H1450 H 0.09736 0.09652 0.6517 0.0
H1451 H 0.11486 0.05406 0.65968 0.0
H1452 H 0.05506 0.12888 0.66725 0.0
H1453 H 0.00935 0.13315 0.6619 0.0
C1454 C 0.04072 0.50182 0.92663 0.0
C1455 C 0.02323 0.53555 0.92753 0.0
C1456 C 0.96557 0.50658 0.92646 0.0
C1457 C 0.98342 0.47319 0.92274 0.0
N1458 N 0.03766 0.43828 0.92134 0.0
N1459 N 0.96966 0.57106 0.92694 0.0
C1460 C 0.02078 0.47065 0.92363 0.0
C1461 C 0.98574 0.53822 0.92751 0.0
N1462 N 0.07673 0.49852 0.92746 0.0
N1463 N 0.92942 0.50782 0.92963 0.0
H1464 H 0.98376 0.59459 0.92946 0.0
H1465 H 0.94271 0.57535 0.92246 0.0
H1466 H 0.91377 0.48528 0.92781 0.0
H1467 H 0.91483 0.53071 0.93623 0.0
H1468 H 0.09398 0.51985 0.92969 0.0
H1469 H 0.09398 0.51985 0.92969 0.0
H1470 H 0.06521 0.43548 0.92184 0.0
H1471 H 0.02419 0.41437 0.91889 0.0
loop_
_geom_bond_atom_site_label_1
_geom_bond_atom_site_label_2
_geom_bond_distance
_geom_bond_site_symmetry_2
_ccdc_geom_bond_type
O0 Tb1 2.292 1_556 S
O0 C3 1.255 . S
Tb1 O0 2.292 1_554 S
Tb1 O17 2.326 1_554 S
Tb1 O19 2.500 1_554 S
Tb1 O20 2.473 . S
Tb1 O23 2.324 . S
Eu2 O6 2.292 . S
Eu2 C7 2.852 . S
Eu2 O18 2.324 . S
Eu2 O22 2.326 . S
Eu2 O24 2.500 . S
Eu2 O25 2.473 . S
C3 O0 1.255 . S
C3 O4 1.247 . S
O4 C3 1.247 . S
C5 O17 1.242 . S
C5 O18 1.258 1_556 S
O6 Eu2 2.292 . S
O6 C8 1.255 . S
C7 Eu2 2.852 . S
C7 C11 1.503 . S
C7 O24 1.273 . S
C7 O25 1.257 . S
C8 O6 1.255 . S
C8 O9 1.247 . S
O9 C8 1.247 . S
C10 O22 1.242 . S
C10 O23 1.258 . S
C11 C7 1.503 . S
C11 C12 1.379 . S
C11 C16 1.392 . S
C12 C11 1.379 . S
C12 C13 1.404 . S
C12 H26 0.929 . S
C13 C12 1.404 . S
C13 C14 1.389 . S
C14 C13 1.389 . S
C14 C15 1.399 . S
C14 H27 0.931 1_545 S
C15 C14 1.399 . S
C15 C16 1.390 . S
C16 C11 1.392 . S
C16 C15 1.390 . S
C16 H28 0.929 . S
O17 Tb1 2.326 1_556 S
O17 C5 1.242 . S
O18 Eu2 2.324 . S
O18 C5 1.258 1_554 S
O19 Tb1 2.500 1_556 S
O19 C21 1.273 . S
O20 Tb1 2.473 . S
O20 C21 1.257 1_554 S
C21 O19 1.273 . S
C21 O20 1.257 1_556 S
O22 Eu2 2.326 . S
O22 C10 1.242 . S
O23 Tb1 2.324 . S
O23 C10 1.258 . S
O24 Eu2 2.500 . S
O24 C7 1.273 . S
O25 Eu2 2.473 . S
O25 C7 1.257 . S
H26 C12 0.929 . S
H27 C14 0.931 1_565 S
H28 C16 0.929 . S
O29 Tb30 2.292 . S
O29 C32 1.255 . S
Tb30 O29 2.292 . S
Tb30 O46 2.326 . S
Tb30 O48 2.500 . S
Tb30 O49 2.473 . S
Tb30 O52 2.324 . S
Eu31 O35 2.292 . S
Eu31 C36 2.852 . S
Eu31 O47 2.324 . S
Eu31 O51 2.326 . S
Eu31 O53 2.500 . S
Eu31 O54 2.473 . S
C32 O29 1.255 . S
C32 O33 1.247 . S
O33 C32 1.247 . S
C34 O46 1.242 . S
C34 O47 1.258 . S
O35 Eu31 2.292 . S
O35 C37 1.255 . S
C36 Eu31 2.852 . S
C36 C40 1.503 . S
C36 O53 1.273 . S
C36 O54 1.257 . S
C37 O35 1.255 . S
C37 O38 1.247 . S
O38 C37 1.247 . S
C39 O51 1.242 . S
C39 O52 1.258 . S
C40 C36 1.503 . S
C40 C41 1.379 . S
C40 C45 1.392 . S
C41 C40 1.379 . S
C41 C42 1.404 . S
C41 H55 0.929 . S
C42 C41 1.404 . S
C42 C43 1.389 . S
C43 C42 1.389 . S
C43 C44 1.399 . S
C43 H56 0.931 1_655 S
C44 C43 1.399 . S
C44 C45 1.390 . S
C45 C40 1.392 . S
C45 C44 1.390 . S
C45 H57 0.929 . S
O46 Tb30 2.326 . S
O46 C34 1.242 . S
O47 Eu31 2.324 . S
O47 C34 1.258 . S
O48 Tb30 2.500 . S
O48 C50 1.273 . S
O49 Tb30 2.473 . S
O49 C50 1.257 . S
C50 O48 1.273 . S
C50 O49 1.257 . S
O51 Eu31 2.326 . S
O51 C39 1.242 . S
O52 Tb30 2.324 . S
O52 C39 1.258 . S
O53 Eu31 2.500 . S
O53 C36 1.273 . S
O54 Eu31 2.473 . S
O54 C36 1.257 . S
H55 C41 0.929 . S
H56 C43 0.931 1_455 S
H57 C45 0.929 . S
O58 Tb59 2.292 . S
O58 C61 1.255 . S
Tb59 O58 2.292 . S
Tb59 O75 2.326 . S
Tb59 O77 2.500 . S
Tb59 O78 2.473 . S
Tb59 O81 2.324 . S
Eu60 O64 2.292 . S
Eu60 C65 2.852 . S
Eu60 O76 2.324 . S
Eu60 O80 2.326 . S
Eu60 O82 2.500 . S
Eu60 O83 2.473 . S
C61 O58 1.255 . S
C61 O62 1.247 . S
O62 C61 1.247 . S
C63 O75 1.242 . S
C63 O76 1.258 . S
O64 Eu60 2.292 . S
O64 C66 1.255 . S
C65 Eu60 2.852 . S
C65 C69 1.503 . S
C65 O82 1.273 . S
C65 O83 1.257 . S
C66 O64 1.255 . S
C66 O67 1.247 . S
O67 C66 1.247 . S
C68 O80 1.242 . S
C68 O81 1.258 . S
C69 C65 1.503 . S
C69 C70 1.379 . S
C69 C74 1.392 . S
C70 C69 1.379 . S
C70 C71 1.404 . S
C70 H84 0.929 . S
C71 C70 1.404 . S
C71 C72 1.389 . S
C72 C71 1.389 . S
C72 C73 1.399 . S
C72 H85 0.931 . S
C73 C72 1.399 . S
C73 C74 1.390 . S
C74 C69 1.392 . S
C74 C73 1.390 . S
C74 H86 0.929 . S
O75 Tb59 2.326 . S
O75 C63 1.242 . S
O76 Eu60 2.324 . S
O76 C63 1.258 . S
O77 Tb59 2.500 . S
O77 C79 1.273 . S
O78 Tb59 2.473 . S
O78 C79 1.257 . S
C79 O77 1.273 . S
C79 O78 1.257 . S
O80 Eu60 2.326 . S
O80 C68 1.242 . S
O81 Tb59 2.324 . S
O81 C68 1.258 . S
O82 Eu60 2.500 . S
O82 C65 1.273 . S
O83 Eu60 2.473 . S
O83 C65 1.257 . S
H84 C70 0.929 . S
H85 C72 0.931 . S
H86 C74 0.929 . S
O87 Tb88 2.292 . S
O87 C90 1.255 . S
Tb88 O87 2.292 . S
Tb88 O104 2.326 . S
Tb88 O106 2.500 . S
Tb88 O107 2.473 . S
Tb88 O110 2.324 . S
Eu89 O93 2.292 . S
Eu89 C94 2.852 . S
Eu89 O105 2.324 . S
Eu89 O109 2.326 . S
Eu89 O111 2.500 . S
Eu89 O112 2.473 . S
C90 O87 1.255 . S
C90 O91 1.247 . S
O91 C90 1.247 . S
C92 O104 1.242 . S
C92 O105 1.258 . S
O93 Eu89 2.292 . S
O93 C95 1.255 . S
C94 Eu89 2.852 . S
C94 C98 1.503 . S
C94 O111 1.273 . S
C94 O112 1.257 . S
C95 O93 1.255 . S
C95 O96 1.247 . S
O96 C95 1.247 . S
C97 O109 1.242 . S
C97 O110 1.258 . S
C98 C94 1.503 . S
C98 C99 1.379 . S
C98 C103 1.392 . S
C99 C98 1.379 . S
C99 C100 1.404 . S
C99 H113 0.929 . S
C100 C99 1.404 . S
C100 C101 1.389 . S
C101 C100 1.389 . S
C101 C102 1.399 . S
C101 H114 0.931 . S
C102 C101 1.399 . S
C102 C103 1.390 . S
C103 C98 1.392 . S
C103 C102 1.390 . S
C103 H115 0.929 . S
O104 Tb88 2.326 . S
O104 C92 1.242 . S
O105 Eu89 2.324 . S
O105 C92 1.258 . S
O106 Tb88 2.500 . S
O106 C108 1.273 . S
O107 Tb88 2.473 . S
O107 C108 1.257 . S
C108 O106 1.273 . S
C108 O107 1.257 . S
O109 Eu89 2.326 . S
O109 C97 1.242 . S
O110 Tb88 2.324 . S
O110 C97 1.258 . S
O111 Eu89 2.500 . S
O111 C94 1.273 . S
O112 Eu89 2.473 . S
O112 C94 1.257 . S
H113 C99 0.929 . S
H114 C101 0.931 . S
H115 C103 0.929 . S
O116 Tb117 2.292 . S
O116 C119 1.255 . S
Tb117 O116 2.292 . S
Tb117 O133 2.326 . S
Tb117 O135 2.500 . S
Tb117 O136 2.473 . S
Tb117 O139 2.324 . S
Eu118 O122 2.292 . S
Eu118 C123 2.852 . S
Eu118 O134 2.324 . S
Eu118 O138 2.326 . S
Eu118 O140 2.500 . S
Eu118 O141 2.473 . S
C119 O116 1.255 . S
C119 O120 1.247 . S
O120 C119 1.247 . S
C121 O133 1.242 . S
C121 O134 1.258 . S
O122 Eu118 2.292 . S
O122 C124 1.255 . S
C123 Eu118 2.852 . S
C123 C127 1.503 . S
C123 O140 1.273 . S
C123 O141 1.257 . S
C124 O122 1.255 . S
C124 O125 1.247 . S
O125 C124 1.247 . S
C126 O138 1.242 . S
C126 O139 1.258 . S
C127 C123 1.503 . S
C127 C128 1.379 . S
C127 C132 1.392 . S
C128 C127 1.379 . S
C128 C129 1.404 . S
C128 H142 0.929 . S
C129 C128 1.404 . S
C129 C130 1.389 . S
C130 C129 1.389 . S
C130 C131 1.399 . S
C130 H143 0.931 . S
C131 C130 1.399 . S
C131 C132 1.390 . S
C132 C127 1.392 . S
C132 C131 1.390 . S
C132 H144 0.929 . S
O133 Tb117 2.326 . S
O133 C121 1.242 . S
O134 Eu118 2.324 . S
O134 C121 1.258 . S
O135 Tb117 2.500 . S
O135 C137 1.273 . S
O136 Tb117 2.473 . S
O136 C137 1.257 . S
C137 O135 1.273 . S
C137 O136 1.257 . S
O138 Eu118 2.326 . S
O138 C126 1.242 . S
O139 Tb117 2.324 . S
O139 C126 1.258 . S
O140 Eu118 2.500 . S
O140 C123 1.273 . S
O141 Eu118 2.473 . S
O141 C123 1.257 . S
H142 C128 0.929 . S
H143 C130 0.931 . S
H144 C132 0.929 . S
O145 Tb146 2.292 . S
O145 C148 1.255 . S
Tb146 O145 2.292 . S
Tb146 O162 2.326 . S
Tb146 O164 2.500 . S
Tb146 O165 2.473 . S
Tb146 O168 2.324 . S
Eu147 O151 2.292 . S
Eu147 C152 2.852 . S
Eu147 O163 2.324 . S
Eu147 O167 2.326 . S
Eu147 O169 2.500 . S
Eu147 O170 2.473 . S
C148 O145 1.255 . S
C148 O149 1.247 . S
O149 C148 1.247 . S
C150 O162 1.242 . S
C150 O163 1.258 . S
O151 Eu147 2.292 . S
O151 C153 1.255 . S
C152 Eu147 2.852 . S
C152 C156 1.503 . S
C152 O169 1.273 . S
C152 O170 1.257 . S
C153 O151 1.255 . S
C153 O154 1.247 . S
O154 C153 1.247 . S
C155 O167 1.242 . S
C155 O168 1.258 . S
C156 C152 1.503 . S
C156 C157 1.379 . S
C156 C161 1.392 . S
C157 C156 1.379 . S
C157 C158 1.404 . S
C157 H171 0.929 . S
C158 C157 1.404 . S
C158 C159 1.389 . S
C159 C158 1.389 . S
C159 C160 1.399 . S
C159 H172 0.931 . S
C160 C159 1.399 . S
C160 C161 1.390 . S
C161 C156 1.392 . S
C161 C160 1.390 . S
C161 H173 0.929 . S
O162 Tb146 2.326 . S
O162 C150 1.242 . S
O163 Eu147 2.324 . S
O163 C150 1.258 . S
O164 Tb146 2.500 . S
O164 C166 1.273 . S
O165 Tb146 2.473 . S
O165 C166 1.257 . S
C166 O164 1.273 . S
C166 O165 1.257 . S
O167 Eu147 2.326 . S
O167 C155 1.242 . S
O168 Tb146 2.324 . S
O168 C155 1.258 . S
O169 Eu147 2.500 . S
O169 C152 1.273 . S
O170 Eu147 2.473 . S
O170 C152 1.257 . S
H171 C157 0.929 . S
H172 C159 0.931 . S
H173 C161 0.929 . S
O174 Tb175 2.292 . S
O174 C177 1.255 . S
Tb175 O174 2.292 . S
Tb175 O191 2.326 . S
Tb175 O193 2.500 . S
Tb175 O194 2.473 . S
Tb175 O197 2.324 . S
Eu176 O180 2.292 . S
Eu176 C181 2.852 . S
Eu176 O192 2.324 . S
Eu176 O196 2.326 . S
Eu176 O198 2.500 . S
Eu176 O199 2.473 . S
C177 O174 1.255 . S
C177 O178 1.247 . S
O178 C177 1.247 . S
C179 O191 1.242 . S
C179 O192 1.258 . S
O180 Eu176 2.292 . S
O180 C182 1.255 . S
C181 Eu176 2.852 . S
C181 C185 1.503 . S
C181 O198 1.273 . S
C181 O199 1.257 . S
C182 O180 1.255 . S
C182 O183 1.247 . S
O183 C182 1.247 . S
C184 O196 1.242 . S
C184 O197 1.258 . S
C185 C181 1.503 . S
C185 C186 1.379 . S
C185 C190 1.392 . S
C186 C185 1.379 . S
C186 C187 1.404 . S
C186 H200 0.929 . S
C187 C186 1.404 . S
C187 C188 1.389 . S
C188 C187 1.389 . S
C188 C189 1.399 . S
C188 H201 0.931 1_545 S
C189 C188 1.399 . S
C189 C190 1.390 . S
C190 C185 1.392 . S
C190 C189 1.390 . S
C190 H202 0.929 . S
O191 Tb175 2.326 . S
O191 C179 1.242 . S
O192 Eu176 2.324 . S
O192 C179 1.258 . S
O193 Tb175 2.500 . S
O193 C195 1.273 . S
O194 Tb175 2.473 . S
O194 C195 1.257 . S
C195 O193 1.273 . S
C195 O194 1.257 . S
O196 Eu176 2.326 . S
O196 C184 1.242 . S
O197 Tb175 2.324 . S
O197 C184 1.258 . S
O198 Eu176 2.500 . S
O198 C181 1.273 . S
O199 Eu176 2.473 . S
O199 C181 1.257 . S
H200 C186 0.929 . S
H201 C188 0.931 1_565 S
H202 C190 0.929 . S
O203 Tb204 2.292 1_554 S
O203 C206 1.255 . S
Tb204 O203 2.292 1_556 S
Tb204 O220 2.326 1_556 S
Tb204 O222 2.500 1_556 S
Tb204 O223 2.473 . S
Tb204 O226 2.324 . S
Eu205 O209 2.292 . S
Eu205 C210 2.852 . S
Eu205 O221 2.324 . S
Eu205 O225 2.326 . S
Eu205 O227 2.500 . S
Eu205 O228 2.473 . S
C206 O203 1.255 . S
C206 O207 1.247 . S
O207 C206 1.247 . S
C208 O220 1.242 . S
C208 O221 1.258 1_554 S
O209 Eu205 2.292 . S
O209 C211 1.255 . S
C210 Eu205 2.852 . S
C210 C214 1.503 . S
C210 O227 1.273 . S
C210 O228 1.257 . S
C211 O209 1.255 . S
C211 O212 1.247 . S
O212 C211 1.247 . S
C213 O225 1.242 . S
C213 O226 1.258 . S
C214 C210 1.503 . S
C214 C215 1.379 . S
C214 C219 1.392 . S
C215 C214 1.379 . S
C215 C216 1.404 . S
C215 H229 0.929 . S
C216 C215 1.404 . S
C216 C217 1.389 . S
C217 C216 1.389 . S
C217 C218 1.399 . S
C217 H230 0.931 1_655 S
C218 C217 1.399 . S
C218 C219 1.390 . S
C219 C214 1.392 . S
C219 C218 1.390 . S
C219 H231 0.929 . S
O220 Tb204 2.326 1_554 S
O220 C208 1.242 . S
O221 Eu205 2.324 . S
O221 C208 1.258 1_556 S
O222 Tb204 2.500 1_554 S
O222 C224 1.273 . S
O223 Tb204 2.473 . S
O223 C224 1.257 1_556 S
C224 O222 1.273 . S
C224 O223 1.257 1_554 S
O225 Eu205 2.326 . S
O225 C213 1.242 . S
O226 Tb204 2.324 . S
O226 C213 1.258 . S
O227 Eu205 2.500 . S
O227 C210 1.273 . S
O228 Eu205 2.473 . S
O228 C210 1.257 . S
H229 C215 0.929 . S
H230 C217 0.931 1_455 S
H231 C219 0.929 . S
O232 Tb233 2.292 . S
O232 C235 1.255 . S
Tb233 O232 2.292 . S
Tb233 O249 2.326 . S
Tb233 O251 2.500 . S
Tb233 O252 2.473 . S
Tb233 O255 2.324 . S
Eu234 O238 2.292 . S
Eu234 C239 2.852 . S
Eu234 O250 2.324 . S
Eu234 O254 2.326 . S
Eu234 O256 2.500 . S
Eu234 O257 2.473 . S
C235 O232 1.255 . S
C235 O236 1.247 . S
O236 C235 1.247 . S
C237 O249 1.242 . S
C237 O250 1.258 . S
O238 Eu234 2.292 . S
O238 C240 1.255 . S
C239 Eu234 2.852 . S
C239 C243 1.503 . S
C239 O256 1.273 . S
C239 O257 1.257 . S
C240 O238 1.255 . S
C240 O241 1.247 . S
O241 C240 1.247 . S
C242 O254 1.242 . S
C242 O255 1.258 . S
C243 C239 1.503 . S
C243 C244 1.379 . S
C243 C248 1.392 . S
C244 C243 1.379 . S
C244 C245 1.404 . S
C244 H258 0.929 . S
C245 C244 1.404 . S
C245 C246 1.389 . S
C246 C245 1.389 . S
C246 C247 1.399 . S
C246 H259 0.931 . S
C247 C246 1.399 . S
C247 C248 1.390 . S
C248 C243 1.392 . S
C248 C247 1.390 . S
C248 H260 0.929 . S
O249 Tb233 2.326 . S
O249 C237 1.242 . S
O250 Eu234 2.324 . S
O250 C237 1.258 . S
O251 Tb233 2.500 . S
O251 C253 1.273 . S
O252 Tb233 2.473 . S
O252 C253 1.257 . S
C253 O251 1.273 . S
C253 O252 1.257 . S
O254 Eu234 2.326 . S
O254 C242 1.242 . S
O255 Tb233 2.324 . S
O255 C242 1.258 . S
O256 Eu234 2.500 . S
O256 C239 1.273 . S
O257 Eu234 2.473 . S
O257 C239 1.257 . S
H258 C244 0.929 . S
H259 C246 0.931 . S
H260 C248 0.929 . S
O261 Tb262 2.292 . S
O261 C264 1.255 . S
Tb262 O261 2.292 . S
Tb262 O278 2.326 . S
Tb262 O280 2.500 . S
Tb262 O281 2.473 . S
Tb262 O284 2.324 . S
Eu263 O267 2.292 . S
Eu263 C268 2.852 . S
Eu263 O279 2.324 . S
Eu263 O283 2.326 . S
Eu263 O285 2.500 . S
Eu263 O286 2.473 . S
C264 O261 1.255 . S
C264 O265 1.247 . S
O265 C264 1.247 . S
C266 O278 1.242 . S
C266 O279 1.258 . S
O267 Eu263 2.292 . S
O267 C269 1.255 . S
C268 Eu263 2.852 . S
C268 C272 1.503 . S
C268 O285 1.273 . S
C268 O286 1.257 . S
C269 O267 1.255 . S
C269 O270 1.247 . S
O270 C269 1.247 . S
C271 O283 1.242 . S
C271 O284 1.258 . S
C272 C268 1.503 . S
C272 C273 1.379 . S
C272 C277 1.392 . S
C273 C272 1.379 . S
C273 C274 1.404 . S
C273 H287 0.929 . S
C274 C273 1.404 . S
C274 C275 1.389 . S
C275 C274 1.389 . S
C275 C276 1.399 . S
C275 H288 0.931 . S
C276 C275 1.399 . S
C276 C277 1.390 . S
C277 C272 1.392 . S
C277 C276 1.390 . S
C277 H289 0.929 . S
O278 Tb262 2.326 . S
O278 C266 1.242 . S
O279 Eu263 2.324 . S
O279 C266 1.258 . S
O280 Tb262 2.500 . S
O280 C282 1.273 . S
O281 Tb262 2.473 . S
O281 C282 1.257 . S
C282 O280 1.273 . S
C282 O281 1.257 . S
O283 Eu263 2.326 . S
O283 C271 1.242 . S
O284 Tb262 2.324 . S
O284 C271 1.258 . S
O285 Eu263 2.500 . S
O285 C268 1.273 . S
O286 Eu263 2.473 . S
O286 C268 1.257 . S
H287 C273 0.929 . S
H288 C275 0.931 . S
H289 C277 0.929 . S
O290 Tb291 2.292 1_556 S
O290 C293 1.255 . S
Tb291 O290 2.292 1_554 S
Tb291 O307 2.326 1_554 S
Tb291 O309 2.500 1_554 S
Tb291 O310 2.473 . S
Tb291 O313 2.324 . S
Eu292 O296 2.292 . S
Eu292 C297 2.852 . S
Eu292 O308 2.324 . S
Eu292 O312 2.326 . S
Eu292 O314 2.500 . S
Eu292 O315 2.473 . S
C293 O290 1.255 . S
C293 O294 1.247 . S
O294 C293 1.247 . S
C295 O307 1.242 . S
C295 O308 1.258 1_556 S
O296 Eu292 2.292 . S
O296 C298 1.255 . S
C297 Eu292 2.852 . S
C297 C301 1.503 . S
C297 O314 1.273 . S
C297 O315 1.257 . S
C298 O296 1.255 . S
C298 O299 1.247 . S
O299 C298 1.247 . S
C300 O312 1.242 . S
C300 O313 1.258 . S
C301 C297 1.503 . S
C301 C302 1.379 . S
C301 C306 1.392 . S
C302 C301 1.379 . S
C302 C303 1.404 . S
C302 H316 0.929 . S
C303 C302 1.404 . S
C303 C304 1.389 . S
C304 C303 1.389 . S
C304 C305 1.399 . S
C304 H317 0.931 1_565 S
C305 C304 1.399 . S
C305 C306 1.390 . S
C306 C301 1.392 . S
C306 C305 1.390 . S
C306 H318 0.929 . S
O307 Tb291 2.326 1_556 S
O307 C295 1.242 . S
O308 Eu292 2.324 . S
O308 C295 1.258 1_554 S
O309 Tb291 2.500 1_556 S
O309 C311 1.273 . S
O310 Tb291 2.473 . S
O310 C311 1.257 1_554 S
C311 O309 1.273 . S
C311 O310 1.257 1_556 S
O312 Eu292 2.326 . S
O312 C300 1.242 . S
O313 Tb291 2.324 . S
O313 C300 1.258 . S
O314 Eu292 2.500 . S
O314 C297 1.273 . S
O315 Eu292 2.473 . S
O315 C297 1.257 . S
H316 C302 0.929 . S
H317 C304 0.931 1_545 S
H318 C306 0.929 . S
O319 Tb320 2.292 . S
O319 C322 1.255 . S
Tb320 O319 2.292 . S
Tb320 O336 2.326 . S
Tb320 O338 2.500 . S
Tb320 O339 2.473 . S
Tb320 O342 2.324 . S
Eu321 O325 2.292 . S
Eu321 C326 2.852 . S
Eu321 O337 2.324 . S
Eu321 O341 2.326 . S
Eu321 O343 2.500 . S
Eu321 O344 2.473 . S
C322 O319 1.255 . S
C322 O323 1.247 . S
O323 C322 1.247 . S
C324 O336 1.242 . S
C324 O337 1.258 . S
O325 Eu321 2.292 . S
O325 C327 1.255 . S
C326 Eu321 2.852 . S
C326 C330 1.503 . S
C326 O343 1.273 . S
C326 O344 1.257 . S
C327 O325 1.255 . S
C327 O328 1.247 . S
O328 C327 1.247 . S
C329 O341 1.242 . S
C329 O342 1.258 . S
C330 C326 1.503 . S
C330 C331 1.379 . S
C330 C335 1.392 . S
C331 C330 1.379 . S
C331 C332 1.404 . S
C331 H345 0.929 . S
C332 C331 1.404 . S
C332 C333 1.389 . S
C333 C332 1.389 . S
C333 C334 1.399 . S
C333 H346 0.931 1_455 S
C334 C333 1.399 . S
C334 C335 1.390 . S
C335 C330 1.392 . S
C335 C334 1.390 . S
C335 H347 0.929 . S
O336 Tb320 2.326 . S
O336 C324 1.242 . S
O337 Eu321 2.324 . S
O337 C324 1.258 . S
O338 Tb320 2.500 . S
O338 C340 1.273 . S
O339 Tb320 2.473 . S
O339 C340 1.257 . S
C340 O338 1.273 . S
C340 O339 1.257 . S
O341 Eu321 2.326 . S
O341 C329 1.242 . S
O342 Tb320 2.324 . S
O342 C329 1.258 . S
O343 Eu321 2.500 . S
O343 C326 1.273 . S
O344 Eu321 2.473 . S
O344 C326 1.257 . S
H345 C331 0.929 . S
H346 C333 0.931 1_655 S
H347 C335 0.929 . S
O348 Tb349 2.292 . S
O348 C351 1.255 . S
Tb349 O348 2.292 . S
Tb349 O365 2.326 . S
Tb349 O367 2.500 . S
Tb349 O368 2.473 . S
Tb349 O371 2.324 . S
Eu350 O354 2.292 . S
Eu350 C355 2.852 . S
Eu350 O366 2.324 . S
Eu350 O370 2.326 . S
Eu350 O372 2.500 . S
Eu350 O373 2.473 . S
C351 O348 1.255 . S
C351 O352 1.247 . S
O352 C351 1.247 . S
C353 O365 1.242 . S
C353 O366 1.258 . S
O354 Eu350 2.292 . S
O354 C356 1.255 . S
C355 Eu350 2.852 . S
C355 C359 1.503 . S
C355 O372 1.273 . S
C355 O373 1.257 . S
C356 O354 1.255 . S
C356 O357 1.247 . S
O357 C356 1.247 . S
C358 O370 1.242 . S
C358 O371 1.258 . S
C359 C355 1.503 . S
C359 C360 1.379 . S
C359 C364 1.392 . S
C360 C359 1.379 . S
C360 C361 1.404 . S
C360 H374 0.929 . S
C361 C360 1.404 . S
C361 C362 1.389 . S
C362 C361 1.389 . S
C362 C363 1.399 . S
C362 H375 0.931 1_565 S
C363 C362 1.399 . S
C363 C364 1.390 . S
C364 C359 1.392 . S
C364 C363 1.390 . S
C364 H376 0.929 . S
O365 Tb349 2.326 . S
O365 C353 1.242 . S
O366 Eu350 2.324 . S
O366 C353 1.258 . S
O367 Tb349 2.500 . S
O367 C369 1.273 . S
O368 Tb349 2.473 . S
O368 C369 1.257 . S
C369 O367 1.273 . S
C369 O368 1.257 . S
O370 Eu350 2.326 . S
O370 C358 1.242 . S
O371 Tb349 2.324 . S
O371 C358 1.258 . S
O372 Eu350 2.500 . S
O372 C355 1.273 . S
O373 Eu350 2.473 . S
O373 C355 1.257 . S
H374 C360 0.929 . S
H375 C362 0.931 1_545 S
H376 C364 0.929 . S
O377 Tb378 2.292 1_554 S
O377 C380 1.255 . S
Tb378 O377 2.292 1_556 S
Tb378 O394 2.326 1_556 S
Tb378 O396 2.500 1_556 S
Tb378 O397 2.473 . S
Tb378 O400 2.324 . S
Eu379 O383 2.292 . S
Eu379 C384 2.852 . S
Eu379 O395 2.324 . S
Eu379 O399 2.326 . S
Eu379 O401 2.500 . S
Eu379 O402 2.473 . S
C380 O377 1.255 . S
C380 O381 1.247 . S
O381 C380 1.247 . S
C382 O394 1.242 . S
C382 O395 1.258 1_554 S
O383 Eu379 2.292 . S
O383 C385 1.255 . S
C384 Eu379 2.852 . S
C384 C388 1.503 . S
C384 O401 1.273 . S
C384 O402 1.257 . S
C385 O383 1.255 . S
C385 O386 1.247 . S
O386 C385 1.247 . S
C387 O399 1.242 . S
C387 O400 1.258 . S
C388 C384 1.503 . S
C388 C389 1.379 . S
C388 C393 1.392 . S
C389 C388 1.379 . S
C389 C390 1.404 . S
C389 H403 0.929 . S
C390 C389 1.404 . S
C390 C391 1.389 . S
C391 C390 1.389 . S
C391 C392 1.399 . S
C391 H404 0.931 1_455 S
C392 C391 1.399 . S
C392 C393 1.390 . S
C393 C388 1.392 . S
C393 C392 1.390 . S
C393 H405 0.929 . S
O394 Tb378 2.326 1_554 S
O394 C382 1.242 . S
O395 Eu379 2.324 . S
O395 C382 1.258 1_556 S
O396 Tb378 2.500 1_554 S
O396 C398 1.273 . S
O397 Tb378 2.473 . S
O397 C398 1.257 1_556 S
C398 O396 1.273 . S
C398 O397 1.257 1_554 S
O399 Eu379 2.326 . S
O399 C387 1.242 . S
O400 Tb378 2.324 . S
O400 C387 1.258 . S
O401 Eu379 2.500 . S
O401 C384 1.273 . S
O402 Eu379 2.473 . S
O402 C384 1.257 . S
H403 C389 0.929 . S
H404 C391 0.931 1_655 S
H405 C393 0.929 . S
O406 Tb407 2.292 . S
O406 C409 1.255 . S
Tb407 O406 2.292 . S
Tb407 O423 2.326 . S
Tb407 O425 2.500 . S
Tb407 O426 2.473 . S
Tb407 O429 2.324 . S
Eu408 O412 2.292 . S
Eu408 C413 2.852 . S
Eu408 O424 2.324 . S
Eu408 O428 2.326 . S
Eu408 O430 2.500 . S
Eu408 O431 2.473 . S
C409 O406 1.255 . S
C409 O410 1.247 . S
O410 C409 1.247 . S
C411 O423 1.242 . S
C411 O424 1.258 . S
O412 Eu408 2.292 . S
O412 C414 1.255 . S
C413 Eu408 2.852 . S
C413 C417 1.503 . S
C413 O430 1.273 . S
C413 O431 1.257 . S
C414 O412 1.255 . S
C414 O415 1.247 . S
O415 C414 1.247 . S
C416 O428 1.242 . S
C416 O429 1.258 . S
C417 C413 1.503 . S
C417 C418 1.379 . S
C417 C422 1.392 . S
C418 C417 1.379 . S
C418 C419 1.404 . S
C418 H432 0.929 . S
C419 C418 1.404 . S
C419 C420 1.389 . S
C420 C419 1.389 . S
C420 C421 1.399 . S
C420 H433 0.931 . S
C421 C420 1.399 . S
C421 C422 1.390 . S
C422 C417 1.392 . S
C422 C421 1.390 . S
C422 H434 0.929 . S
O423 Tb407 2.326 . S
O423 C411 1.242 . S
O424 Eu408 2.324 . S
O424 C411 1.258 . S
O425 Tb407 2.500 . S
O425 C427 1.273 . S
O426 Tb407 2.473 . S
O426 C427 1.257 . S
C427 O425 1.273 . S
C427 O426 1.257 . S
O428 Eu408 2.326 . S
O428 C416 1.242 . S
O429 Tb407 2.324 . S
O429 C416 1.258 . S
O430 Eu408 2.500 . S
O430 C413 1.273 . S
O431 Eu408 2.473 . S
O431 C413 1.257 . S
H432 C418 0.929 . S
H433 C420 0.931 . S
H434 C422 0.929 . S
O435 Tb436 2.292 . S
O435 C438 1.255 . S
Tb436 O435 2.292 . S
Tb436 O452 2.326 . S
Tb436 O454 2.500 . S
Tb436 O455 2.473 . S
Tb436 O458 2.324 . S
Eu437 O441 2.292 . S
Eu437 C442 2.852 . S
Eu437 O453 2.324 . S
Eu437 O457 2.326 . S
Eu437 O459 2.500 . S
Eu437 O460 2.473 . S
C438 O435 1.255 . S
C438 O439 1.247 . S
O439 C438 1.247 . S
C440 O452 1.242 . S
C440 O453 1.258 . S
O441 Eu437 2.292 . S
O441 C443 1.255 . S
C442 Eu437 2.852 . S
C442 C446 1.503 . S
C442 O459 1.273 . S
C442 O460 1.257 . S
C443 O441 1.255 . S
C443 O444 1.247 . S
O444 C443 1.247 . S
C445 O457 1.242 . S
C445 O458 1.258 . S
C446 C442 1.503 . S
C446 C447 1.379 . S
C446 C451 1.392 . S
C447 C446 1.379 . S
C447 C448 1.404 . S
C447 H461 0.929 . S
C448 C447 1.404 . S
C448 C449 1.389 . S
C449 C448 1.389 . S
C449 C450 1.399 . S
C449 H462 0.931 . S
C450 C449 1.399 . S
C450 C451 1.390 . S
C451 C446 1.392 . S
C451 C450 1.390 . S
C451 H463 0.929 . S
O452 Tb436 2.326 . S
O452 C440 1.242 . S
O453 Eu437 2.324 . S
O453 C440 1.258 . S
O454 Tb436 2.500 . S
O454 C456 1.273 . S
O455 Tb436 2.473 . S
O455 C456 1.257 . S
C456 O454 1.273 . S
C456 O455 1.257 . S
O457 Eu437 2.326 . S
O457 C445 1.242 . S
O458 Tb436 2.324 . S
O458 C445 1.258 . S
O459 Eu437 2.500 . S
O459 C442 1.273 . S
O460 Eu437 2.473 . S
O460 C442 1.257 . S
H461 C447 0.929 . S
H462 C449 0.931 . S
H463 C451 0.929 . S
C464 C465 1.363 . S
C464 C470 1.379 . S
C464 N472 1.356 . S
C465 C464 1.363 . S
C465 C471 1.363 1_556 S
C466 C467 1.363 . S
C466 C471 1.379 . S
C466 N473 1.356 . S
C467 C466 1.363 . S
C467 C470 1.363 1_554 S
N468 C470 1.356 . S
N468 H480 0.984 . S
N468 H481 0.985 . S
N469 C471 1.356 . S
N469 H474 0.984 . S
N469 H475 0.985 . S
C470 C464 1.379 . S
C470 C467 1.363 1_556 S
C470 N468 1.356 . S
C471 C465 1.363 1_554 S
C471 C466 1.379 . S
C471 N469 1.356 . S
N472 C464 1.356 . S
N472 H478 0.984 . S
N472 H479 0.984 . S
N473 C466 1.356 . S
N473 H476 0.984 . S
N473 H477 0.985 . S
H474 N469 0.984 . S
H475 N469 0.985 . S
H476 N473 0.984 . S
H477 N473 0.985 . S
H478 N472 0.984 . S
H479 N472 0.984 . S
H480 N468 0.984 . S
H481 N468 0.985 . S
C482 C483 1.363 . S
C482 C488 1.379 . S
C482 N490 1.356 . S
C483 C482 1.363 . S
C483 C489 1.363 . S
C484 C485 1.363 . S
C484 C489 1.379 . S
C484 N491 1.356 . S
C485 C484 1.363 . S
C485 C488 1.363 . S
N486 C488 1.356 . S
N486 H498 0.984 . S
N486 H499 0.985 . S
N487 C489 1.356 . S
N487 H492 0.984 . S
N487 H493 0.985 . S
C488 C482 1.379 . S
C488 C485 1.363 . S
C488 N486 1.356 . S
C489 C483 1.363 . S
C489 C484 1.379 . S
C489 N487 1.356 . S
N490 C482 1.356 . S
N490 H496 0.984 . S
N490 H497 0.984 . S
N491 C484 1.356 . S
N491 H494 0.984 . S
N491 H495 0.985 . S
H492 N487 0.984 . S
H493 N487 0.985 . S
H494 N491 0.984 . S
H495 N491 0.985 . S
H496 N490 0.984 . S
H497 N490 0.984 . S
H498 N486 0.984 . S
H499 N486 0.985 . S
C500 C501 1.363 . S
C500 C506 1.379 . S
C500 N508 1.356 . S
C501 C500 1.363 . S
C501 C507 1.363 . S
C502 C503 1.363 . S
C502 C507 1.379 . S
C502 N509 1.356 . S
C503 C502 1.363 . S
C503 C506 1.363 . S
N504 C506 1.356 . S
N504 H516 0.984 . S
N504 H517 0.985 . S
N505 C507 1.356 . S
N505 H510 0.984 . S
N505 H511 0.985 . S
C506 C500 1.379 . S
C506 C503 1.363 . S
C506 N504 1.356 . S
C507 C501 1.363 . S
C507 C502 1.379 . S
C507 N505 1.356 . S
N508 C500 1.356 . S
N508 H514 0.984 . S
N508 H515 0.984 . S
N509 C502 1.356 . S
N509 H512 0.984 . S
N509 H513 0.985 . S
H510 N505 0.984 . S
H511 N505 0.985 . S
H512 N509 0.984 . S
H513 N509 0.985 . S
H514 N508 0.984 . S
H515 N508 0.984 . S
H516 N504 0.984 . S
H517 N504 0.985 . S
C518 C519 1.363 . S
C518 C524 1.379 . S
C518 N526 1.356 . S
C519 C518 1.363 . S
C519 C525 1.363 . S
C520 C521 1.363 . S
C520 C525 1.379 . S
C520 N527 1.356 . S
C521 C520 1.363 . S
C521 C524 1.363 . S
N522 C524 1.356 . S
N522 H534 0.984 . S
N522 H535 0.985 . S
N523 C525 1.356 . S
N523 H528 0.984 . S
N523 H529 0.985 . S
C524 C518 1.379 . S
C524 C521 1.363 . S
C524 N522 1.356 . S
C525 C519 1.363 . S
C525 C520 1.379 . S
C525 N523 1.356 . S
N526 C518 1.356 . S
N526 H532 0.984 . S
N526 H533 0.984 . S
N527 C520 1.356 . S
N527 H530 0.984 . S
N527 H531 0.985 . S
H528 N523 0.984 . S
H529 N523 0.985 . S
H530 N527 0.984 . S
H531 N527 0.985 . S
H532 N526 0.984 . S
H533 N526 0.984 . S
H534 N522 0.984 . S
H535 N522 0.985 . S
C536 C537 1.363 . S
C536 C542 1.379 . S
C536 N544 1.356 . S
C537 C536 1.363 . S
C537 C543 1.363 . S
C538 C539 1.363 . S
C538 C543 1.379 . S
C538 N545 1.356 . S
C539 C538 1.363 . S
C539 C542 1.363 . S
N540 C542 1.356 . S
N540 H552 0.984 . S
N540 H553 0.985 . S
N541 C543 1.356 . S
N541 H546 0.984 . S
N541 H547 0.985 . S
C542 C536 1.379 . S
C542 C539 1.363 . S
C542 N540 1.356 . S
C543 C537 1.363 . S
C543 C538 1.379 . S
C543 N541 1.356 . S
N544 C536 1.356 . S
N544 H550 0.984 . S
N544 H551 0.984 . S
N545 C538 1.356 . S
N545 H548 0.984 . S
N545 H549 0.985 . S
H546 N541 0.984 . S
H547 N541 0.985 . S
H548 N545 0.984 . S
H549 N545 0.985 . S
H550 N544 0.984 . S
H551 N544 0.984 . S
H552 N540 0.984 . S
H553 N540 0.985 . S
C554 C555 1.363 . S
C554 C560 1.379 . S
C554 N562 1.356 . S
C555 C554 1.363 . S
C555 C561 1.363 . S
C556 C557 1.363 . S
C556 C561 1.379 . S
C556 N563 1.356 . S
C557 C556 1.363 . S
C557 C560 1.363 . S
N558 C560 1.356 . S
N558 H570 0.984 . S
N558 H571 0.985 . S
N559 C561 1.356 . S
N559 H564 0.984 . S
N559 H565 0.985 . S
C560 C554 1.379 . S
C560 C557 1.363 . S
C560 N558 1.356 . S
C561 C555 1.363 . S
C561 C556 1.379 . S
C561 N559 1.356 . S
N562 C554 1.356 . S
N562 H568 0.984 . S
N562 H569 0.984 . S
N563 C556 1.356 . S
N563 H566 0.984 . S
N563 H567 0.985 . S
H564 N559 0.984 . S
H565 N559 0.985 . S
H566 N563 0.984 . S
H567 N563 0.985 . S
H568 N562 0.984 . S
H569 N562 0.984 . S
H570 N558 0.984 . S
H571 N558 0.985 . S
C572 C573 1.363 . S
C572 C578 1.379 . S
C572 N580 1.356 . S
C573 C572 1.363 . S
C573 C579 1.363 1_556 S
C574 C575 1.363 . S
C574 C579 1.379 . S
C574 N581 1.356 . S
C575 C574 1.363 . S
C575 C578 1.363 1_554 S
N576 C578 1.356 . S
N576 H588 0.984 . S
N576 H589 0.985 1_556 S
N577 C579 1.356 . S
N577 H582 0.984 1_554 S
N577 H583 0.985 . S
C578 C572 1.379 . S
C578 C575 1.363 1_556 S
C578 N576 1.356 . S
C579 C573 1.363 1_554 S
C579 C574 1.379 . S
C579 N577 1.356 . S
N580 C572 1.356 . S
N580 H586 0.984 . S
N580 H587 0.984 . S
N581 C574 1.356 . S
N581 H584 0.984 . S
N581 H585 0.985 . S
H582 N577 0.984 1_556 S
H583 N577 0.985 . S
H584 N581 0.984 . S
H585 N581 0.985 . S
H586 N580 0.984 . S
H587 N580 0.984 . S
H588 N576 0.984 . S
H589 N576 0.985 1_554 S
C590 C591 1.363 . S
C590 C596 1.379 . S
C590 N598 1.356 . S
C591 C590 1.363 . S
C591 C597 1.363 . S
C592 C593 1.363 . S
C592 C597 1.379 . S
C592 N599 1.356 . S
C593 C592 1.363 . S
C593 C596 1.363 . S
N594 C596 1.356 . S
N594 H606 0.984 . S
N594 H607 0.985 . S
N595 C597 1.356 . S
N595 H600 0.984 . S
N595 H601 0.985 . S
C596 C590 1.379 . S
C596 C593 1.363 . S
C596 N594 1.356 . S
C597 C591 1.363 . S
C597 C592 1.379 . S
C597 N595 1.356 . S
N598 C590 1.356 . S
N598 H604 0.984 . S
N598 H605 0.984 . S
N599 C592 1.356 . S
N599 H602 0.984 . S
N599 H603 0.985 . S
H600 N595 0.984 . S
H601 N595 0.985 . S
H602 N599 0.984 . S
H603 N599 0.985 . S
H604 N598 0.984 . S
H605 N598 0.984 . S
H606 N594 0.984 . S
H607 N594 0.985 . S
C608 C609 1.363 . S
C608 C614 1.379 . S
C608 N616 1.356 . S
C609 C608 1.363 . S
C609 C615 1.363 . S
C610 C611 1.363 . S
C610 C615 1.379 . S
C610 N617 1.356 . S
C611 C610 1.363 . S
C611 C614 1.363 . S
N612 C614 1.356 . S
N612 H624 0.984 . S
N612 H625 0.985 . S
N613 C615 1.356 . S
N613 H618 0.984 . S
N613 H619 0.985 . S
C614 C608 1.379 . S
C614 C611 1.363 . S
C614 N612 1.356 . S
C615 C609 1.363 . S
C615 C610 1.379 . S
C615 N613 1.356 . S
N616 C608 1.356 . S
N616 H622 0.984 . S
N616 H623 0.984 . S
N617 C610 1.356 . S
N617 H620 0.984 . S
N617 H621 0.985 . S
H618 N613 0.984 . S
H619 N613 0.985 . S
H620 N617 0.984 . S
H621 N617 0.985 . S
H622 N616 0.984 . S
H623 N616 0.984 . S
H624 N612 0.984 . S
H625 N612 0.985 . S
C626 C627 1.363 . S
C626 C632 1.379 . S
C626 N634 1.356 . S
C627 C626 1.363 . S
C627 C633 1.363 . S
C628 C629 1.363 . S
C628 C633 1.379 . S
C628 N635 1.356 . S
C629 C628 1.363 . S
C629 C632 1.363 . S
N630 C632 1.356 . S
N630 H642 0.984 . S
N630 H643 0.985 . S
N631 C633 1.356 . S
N631 H636 0.984 . S
N631 H637 0.985 . S
C632 C626 1.379 . S
C632 C629 1.363 . S
C632 N630 1.356 . S
C633 C627 1.363 . S
C633 C628 1.379 . S
C633 N631 1.356 . S
N634 C626 1.356 . S
N634 H640 0.984 . S
N634 H641 0.984 . S
N635 C628 1.356 . S
N635 H638 0.984 . S
N635 H639 0.985 . S
H636 N631 0.984 . S
H637 N631 0.985 . S
H638 N635 0.984 . S
H639 N635 0.985 . S
H640 N634 0.984 . S
H641 N634 0.984 . S
H642 N630 0.984 . S
H643 N630 0.985 . S
C644 C645 1.363 . S
C644 C650 1.379 . S
C644 N652 1.356 . S
C645 C644 1.363 . S
C645 C651 1.363 . S
C646 C647 1.363 . S
C646 C651 1.379 . S
C646 N653 1.356 . S
C647 C646 1.363 . S
C647 C650 1.363 . S
N648 C650 1.356 . S
N648 H660 0.984 . S
N648 H661 0.985 . S
N649 C651 1.356 . S
N649 H654 0.984 . S
N649 H655 0.985 . S
C650 C644 1.379 . S
C650 C647 1.363 . S
C650 N648 1.356 . S
C651 C645 1.363 . S
C651 C646 1.379 . S
C651 N649 1.356 . S
N652 C644 1.356 . S
N652 H658 0.984 . S
N652 H659 0.984 . S
N653 C646 1.356 . S
N653 H656 0.984 . S
N653 H657 0.985 . S
H654 N649 0.984 . S
H655 N649 0.985 . S
H656 N653 0.984 . S
H657 N653 0.985 . S
H658 N652 0.984 . S
H659 N652 0.984 . S
H660 N648 0.984 . S
H661 N648 0.985 . S
C662 C663 1.363 . S
C662 C668 1.379 . S
C662 N670 1.356 . S
C663 C662 1.363 . S
C663 C669 1.363 . S
C664 C665 1.363 . S
C664 C669 1.379 . S
C664 N671 1.356 . S
C665 C664 1.363 . S
C665 C668 1.363 . S
N666 C668 1.356 . S
N666 H678 0.984 . S
N666 H679 0.985 . S
N667 C669 1.356 . S
N667 H672 0.984 . S
N667 H673 0.985 . S
C668 C662 1.379 . S
C668 C665 1.363 . S
C668 N666 1.356 . S
C669 C663 1.363 . S
C669 C664 1.379 . S
C669 N667 1.356 . S
N670 C662 1.356 . S
N670 H676 0.984 . S
N670 H677 0.984 . S
N671 C664 1.356 . S
N671 H674 0.984 . S
N671 H675 0.985 . S
H672 N667 0.984 . S
H673 N667 0.985 . S
H674 N671 0.984 . S
H675 N671 0.985 . S
H676 N670 0.984 . S
H677 N670 0.984 . S
H678 N666 0.984 . S
H679 N666 0.985 . S
C680 C681 1.363 . S
C680 C686 1.379 . S
C680 N688 1.356 . S
C681 C680 1.363 . S
C681 C687 1.363 . S
C682 C683 1.363 . S
C682 C687 1.379 . S
C682 N689 1.356 . S
C683 C682 1.363 . S
C683 C686 1.363 . S
N684 C686 1.356 . S
N684 H696 0.984 . S
N684 H697 0.985 . S
N685 C687 1.356 . S
N685 H690 0.984 . S
N685 H691 0.985 . S
C686 C680 1.379 . S
C686 C683 1.363 . S
C686 N684 1.356 . S
C687 C681 1.363 . S
C687 C682 1.379 . S
C687 N685 1.356 . S
N688 C680 1.356 . S
N688 H694 0.984 . S
N688 H695 0.984 . S
N689 C682 1.356 . S
N689 H692 0.984 . S
N689 H693 0.985 . S
H690 N685 0.984 . S
H691 N685 0.985 . S
H692 N689 0.984 . S
H693 N689 0.985 . S
H694 N688 0.984 . S
H695 N688 0.984 . S
H696 N684 0.984 . S
H697 N684 0.985 . S
C698 C699 1.363 . S
C698 C704 1.379 . S
C698 N706 1.356 . S
C699 C698 1.363 . S
C699 C705 1.363 . S
C700 C701 1.363 . S
C700 C705 1.379 . S
C700 N707 1.356 . S
C701 C700 1.363 . S
C701 C704 1.363 . S
N702 C704 1.356 . S
N702 H714 0.984 . S
N702 H715 0.985 . S
N703 C705 1.356 . S
N703 H708 0.984 . S
N703 H709 0.985 . S
C704 C698 1.379 . S
C704 C701 1.363 . S
C704 N702 1.356 . S
C705 C699 1.363 . S
C705 C700 1.379 . S
C705 N703 1.356 . S
N706 C698 1.356 . S
N706 H712 0.984 . S
N706 H713 0.984 . S
N707 C700 1.356 . S
N707 H710 0.984 . S
N707 H711 0.985 . S
H708 N703 0.984 . S
H709 N703 0.985 . S
H710 N707 0.984 . S
H711 N707 0.985 . S
H712 N706 0.984 . S
H713 N706 0.984 . S
H714 N702 0.984 . S
H715 N702 0.985 . S
C716 C717 1.363 . S
C716 C722 1.379 . S
C716 N724 1.356 . S
C717 C716 1.363 . S
C717 C723 1.363 . S
C718 C719 1.363 . S
C718 C723 1.379 . S
C718 N725 1.356 . S
C719 C718 1.363 . S
C719 C722 1.363 . S
N720 C722 1.356 . S
N720 H732 0.984 . S
N720 H733 0.985 . S
N721 C723 1.356 . S
N721 H726 0.984 . S
N721 H727 0.985 . S
C722 C716 1.379 . S
C722 C719 1.363 . S
C722 N720 1.356 . S
C723 C717 1.363 . S
C723 C718 1.379 . S
C723 N721 1.356 . S
N724 C716 1.356 . S
N724 H730 0.984 . S
N724 H731 0.984 . S
N725 C718 1.356 . S
N725 H728 0.984 . S
N725 H729 0.985 . S
H726 N721 0.984 . S
H727 N721 0.985 . S
H728 N725 0.984 . S
H729 N725 0.985 . S
H730 N724 0.984 . S
H731 N724 0.984 . S
H732 N720 0.984 . S
H733 N720 0.985 . S
C734 C735 1.363 . S
C734 C740 1.379 . S
C734 N742 1.356 . S
C735 C734 1.363 . S
C735 C741 1.363 . S
C736 C737 1.363 . S
C736 C741 1.379 . S
C736 N743 1.356 . S
C737 C736 1.363 . S
C737 C740 1.363 . S
N738 C740 1.356 . S
N738 H750 0.984 . S
N738 H751 0.985 . S
N739 C741 1.356 . S
N739 H744 0.984 . S
N739 H745 0.985 . S
C740 C734 1.379 . S
C740 C737 1.363 . S
C740 N738 1.356 . S
C741 C735 1.363 . S
C741 C736 1.379 . S
C741 N739 1.356 . S
N742 C734 1.356 . S
N742 H748 0.984 . S
N742 H749 0.984 . S
N743 C736 1.356 . S
N743 H746 0.984 . S
N743 H747 0.985 . S
H744 N739 0.984 . S
H745 N739 0.985 . S
H746 N743 0.984 . S
H747 N743 0.985 . S
H748 N742 0.984 . S
H749 N742 0.984 . S
H750 N738 0.984 . S
H751 N738 0.985 . S
C752 C753 1.363 . S
C752 C758 1.379 . S
C752 N760 1.356 . S
C753 C752 1.363 . S
C753 C759 1.363 . S
C754 C755 1.363 . S
C754 C759 1.379 . S
C754 N761 1.356 . S
C755 C754 1.363 . S
C755 C758 1.363 . S
N756 C758 1.356 . S
N756 H768 0.984 . S
N756 H769 0.985 . S
N757 C759 1.356 . S
N757 H762 0.984 . S
N757 H763 0.985 . S
C758 C752 1.379 . S
C758 C755 1.363 . S
C758 N756 1.356 . S
C759 C753 1.363 . S
C759 C754 1.379 . S
C759 N757 1.356 . S
N760 C752 1.356 . S
N760 H766 0.984 . S
N760 H767 0.984 . S
N761 C754 1.356 . S
N761 H764 0.984 . S
N761 H765 0.985 . S
H762 N757 0.984 . S
H763 N757 0.985 . S
H764 N761 0.984 . S
H765 N761 0.985 . S
H766 N760 0.984 . S
H767 N760 0.984 . S
H768 N756 0.984 . S
H769 N756 0.985 . S
C770 C771 1.363 . S
C770 C776 1.379 . S
C770 N778 1.356 . S
C771 C770 1.363 . S
C771 C777 1.363 . S
C772 C773 1.363 . S
C772 C777 1.379 . S
C772 N779 1.356 . S
C773 C772 1.363 . S
C773 C776 1.363 . S
N774 C776 1.356 . S
N774 H786 0.984 . S
N774 H787 0.985 . S
N775 C777 1.356 . S
N775 H780 0.984 . S
N775 H781 0.985 . S
C776 C770 1.379 . S
C776 C773 1.363 . S
C776 N774 1.356 . S
C777 C771 1.363 . S
C777 C772 1.379 . S
C777 N775 1.356 . S
N778 C770 1.356 . S
N778 H784 0.984 . S
N778 H785 0.984 . S
N779 C772 1.356 . S
N779 H782 0.984 . S
N779 H783 0.985 . S
H780 N775 0.984 . S
H781 N775 0.985 . S
H782 N779 0.984 . S
H783 N779 0.985 . S
H784 N778 0.984 . S
H785 N778 0.984 . S
H786 N774 0.984 . S
H787 N774 0.985 . S
C788 C789 1.363 . S
C788 C794 1.379 . S
C788 N796 1.356 . S
C789 C788 1.363 . S
C789 C795 1.363 . S
C790 C791 1.363 . S
C790 C795 1.379 . S
C790 N797 1.356 . S
C791 C790 1.363 . S
C791 C794 1.363 . S
N792 C794 1.356 . S
N792 H804 0.984 . S
N792 H805 0.985 . S
N793 C795 1.356 . S
N793 H798 0.984 . S
N793 H799 0.985 . S
C794 C788 1.379 . S
C794 C791 1.363 . S
C794 N792 1.356 . S
C795 C789 1.363 . S
C795 C790 1.379 . S
C795 N793 1.356 . S
N796 C788 1.356 . S
N796 H802 0.984 . S
N796 H803 0.984 . S
N797 C790 1.356 . S
N797 H800 0.984 . S
N797 H801 0.985 . S
H798 N793 0.984 . S
H799 N793 0.985 . S
H800 N797 0.984 . S
H801 N797 0.985 . S
H802 N796 0.984 . S
H803 N796 0.984 . S
H804 N792 0.984 . S
H805 N792 0.985 . S
C806 C807 1.363 . S
C806 C812 1.379 . S
C806 N814 1.356 . S
C807 C806 1.363 . S
C807 C813 1.363 . S
C808 C809 1.363 . S
C808 C813 1.379 . S
C808 N815 1.356 . S
C809 C808 1.363 . S
C809 C812 1.363 . S
N810 C812 1.356 . S
N810 H822 0.984 . S
N810 H823 0.985 . S
N811 C813 1.356 . S
N811 H816 0.984 . S
N811 H817 0.985 . S
C812 C806 1.379 . S
C812 C809 1.363 . S
C812 N810 1.356 . S
C813 C807 1.363 . S
C813 C808 1.379 . S
C813 N811 1.356 . S
N814 C806 1.356 . S
N814 H820 0.984 . S
N814 H821 0.984 . S
N815 C808 1.356 . S
N815 H818 0.984 . S
N815 H819 0.985 . S
H816 N811 0.984 . S
H817 N811 0.985 . S
H818 N815 0.984 . S
H819 N815 0.985 . S
H820 N814 0.984 . S
H821 N814 0.984 . S
H822 N810 0.984 . S
H823 N810 0.985 . S
C824 C825 1.363 . S
C824 C830 1.379 . S
C824 N832 1.356 . S
C825 C824 1.363 . S
C825 C831 1.363 . S
C826 C827 1.363 . S
C826 C831 1.379 . S
C826 N833 1.356 . S
C827 C826 1.363 . S
C827 C830 1.363 . S
N828 C830 1.356 . S
N828 H840 0.984 . S
N828 H841 0.985 . S
N829 C831 1.356 . S
N829 H834 0.984 . S
N829 H835 0.985 . S
C830 C824 1.379 . S
C830 C827 1.363 . S
C830 N828 1.356 . S
C831 C825 1.363 . S
C831 C826 1.379 . S
C831 N829 1.356 . S
N832 C824 1.356 . S
N832 H838 0.984 . S
N832 H839 0.984 . S
N833 C826 1.356 . S
N833 H836 0.984 . S
N833 H837 0.985 . S
H834 N829 0.984 . S
H835 N829 0.985 . S
H836 N833 0.984 . S
H837 N833 0.985 . S
H838 N832 0.984 . S
H839 N832 0.984 . S
H840 N828 0.984 . S
H841 N828 0.985 . S
C842 C843 1.363 . S
C842 C848 1.379 . S
C842 N850 1.356 . S
C843 C842 1.363 . S
C843 C849 1.363 . S
C844 C845 1.363 . S
C844 C849 1.379 . S
C844 N851 1.356 . S
C845 C844 1.363 . S
C845 C848 1.363 . S
N846 C848 1.356 . S
N846 H858 0.984 . S
N846 H859 0.985 . S
N847 C849 1.356 . S
N847 H852 0.984 . S
N847 H853 0.985 . S
C848 C842 1.379 . S
C848 C845 1.363 . S
C848 N846 1.356 . S
C849 C843 1.363 . S
C849 C844 1.379 . S
C849 N847 1.356 . S
N850 C842 1.356 . S
N850 H856 0.984 . S
N850 H857 0.984 . S
N851 C844 1.356 . S
N851 H854 0.984 . S
N851 H855 0.985 . S
H852 N847 0.984 . S
H853 N847 0.985 . S
H854 N851 0.984 . S
H855 N851 0.985 . S
H856 N850 0.984 . S
H857 N850 0.984 . S
H858 N846 0.984 . S
H859 N846 0.985 . S
C860 C861 1.363 . S
C860 C866 1.379 . S
C860 N868 1.356 . S
C861 C860 1.363 . S
C861 C867 1.363 . S
C862 C863 1.363 . S
C862 C867 1.379 . S
C862 N869 1.356 . S
C863 C862 1.363 . S
C863 C866 1.363 . S
N864 C866 1.356 . S
N864 H876 0.984 . S
N864 H877 0.985 . S
N865 C867 1.356 . S
N865 H870 0.984 . S
N865 H871 0.985 . S
C866 C860 1.379 . S
C866 C863 1.363 . S
C866 N864 1.356 . S
C867 C861 1.363 . S
C867 C862 1.379 . S
C867 N865 1.356 . S
N868 C860 1.356 . S
N868 H874 0.984 . S
N868 H875 0.984 . S
N869 C862 1.356 . S
N869 H872 0.984 . S
N869 H873 0.985 . S
H870 N865 0.984 . S
H871 N865 0.985 . S
H872 N869 0.984 . S
H873 N869 0.985 . S
H874 N868 0.984 . S
H875 N868 0.984 . S
H876 N864 0.984 . S
H877 N864 0.985 . S
C878 C879 1.363 . S
C878 C884 1.379 . S
C878 N886 1.356 . S
C879 C878 1.363 . S
C879 C885 1.363 . S
C880 C881 1.363 . S
C880 C885 1.379 . S
C880 N887 1.356 . S
C881 C880 1.363 . S
C881 C884 1.363 . S
N882 C884 1.356 . S
N882 H894 0.984 . S
N882 H895 0.985 . S
N883 C885 1.356 . S
N883 H888 0.984 . S
N883 H889 0.985 . S
C884 C878 1.379 . S
C884 C881 1.363 . S
C884 N882 1.356 . S
C885 C879 1.363 . S
C885 C880 1.379 . S
C885 N883 1.356 . S
N886 C878 1.356 . S
N886 H892 0.984 . S
N886 H893 0.984 . S
N887 C880 1.356 . S
N887 H890 0.984 . S
N887 H891 0.985 . S
H888 N883 0.984 . S
H889 N883 0.985 . S
H890 N887 0.984 . S
H891 N887 0.985 . S
H892 N886 0.984 . S
H893 N886 0.984 . S
H894 N882 0.984 . S
H895 N882 0.985 . S
C896 C897 1.363 . S
C896 C902 1.379 . S
C896 N904 1.356 . S
C897 C896 1.363 . S
C897 C903 1.363 . S
C898 C899 1.363 . S
C898 C903 1.379 . S
C898 N905 1.356 . S
C899 C898 1.363 . S
C899 C902 1.363 . S
N900 C902 1.356 . S
N900 H912 0.984 . S
N900 H913 0.985 . S
N901 C903 1.356 . S
N901 H906 0.984 . S
N901 H907 0.985 . S
C902 C896 1.379 . S
C902 C899 1.363 . S
C902 N900 1.356 . S
C903 C897 1.363 . S
C903 C898 1.379 . S
C903 N901 1.356 . S
N904 C896 1.356 . S
N904 H910 0.984 . S
N904 H911 0.984 . S
N905 C898 1.356 . S
N905 H908 0.984 . S
N905 H909 0.985 . S
H906 N901 0.984 . S
H907 N901 0.985 . S
H908 N905 0.984 . S
H909 N905 0.985 . S
H910 N904 0.984 . S
H911 N904 0.984 . S
H912 N900 0.984 . S
H913 N900 0.985 . S
C914 C915 1.363 . S
C914 C920 1.379 . S
C914 N922 1.356 . S
C915 C914 1.363 . S
C915 C921 1.363 . S
C916 C917 1.363 . S
C916 C921 1.379 . S
C916 N923 1.356 . S
C917 C916 1.363 . S
C917 C920 1.363 . S
N918 C920 1.356 . S
N918 H930 0.984 . S
N918 H931 0.985 . S
N919 C921 1.356 . S
N919 H924 0.984 . S
N919 H925 0.985 . S
C920 C914 1.379 . S
C920 C917 1.363 . S
C920 N918 1.356 . S
C921 C915 1.363 . S
C921 C916 1.379 . S
C921 N919 1.356 . S
N922 C914 1.356 . S
N922 H928 0.984 . S
N922 H929 0.984 . S
N923 C916 1.356 . S
N923 H926 0.984 . S
N923 H927 0.985 . S
H924 N919 0.984 . S
H925 N919 0.985 . S
H926 N923 0.984 . S
H927 N923 0.985 . S
H928 N922 0.984 . S
H929 N922 0.984 . S
H930 N918 0.984 . S
H931 N918 0.985 . S
C932 C933 1.363 . S
C932 C938 1.379 . S
C932 N940 1.356 . S
C933 C932 1.363 . S
C933 C939 1.363 . S
C934 C935 1.363 . S
C934 C939 1.379 . S
C934 N941 1.356 . S
C935 C934 1.363 . S
C935 C938 1.363 . S
N936 C938 1.356 . S
N936 H948 0.984 . S
N936 H949 0.985 . S
N937 C939 1.356 . S
N937 H942 0.984 . S
N937 H943 0.985 . S
C938 C932 1.379 . S
C938 C935 1.363 . S
C938 N936 1.356 . S
C939 C933 1.363 . S
C939 C934 1.379 . S
C939 N937 1.356 . S
N940 C932 1.356 . S
N940 H946 0.984 . S
N940 H947 0.984 . S
N941 C934 1.356 . S
N941 H944 0.984 . S
N941 H945 0.985 . S
H942 N937 0.984 . S
H943 N937 0.985 . S
H944 N941 0.984 . S
H945 N941 0.985 . S
H946 N940 0.984 . S
H947 N940 0.984 . S
H948 N936 0.984 . S
H949 N936 0.985 . S
C950 C951 1.363 . S
C950 C956 1.379 . S
C950 N958 1.356 . S
C951 C950 1.363 . S
C951 C957 1.363 . S
C952 C953 1.363 . S
C952 C957 1.379 . S
C952 N959 1.356 . S
C953 C952 1.363 . S
C953 C956 1.363 . S
N954 C956 1.356 . S
N954 H966 0.984 . S
N954 H967 0.985 . S
N955 C957 1.356 . S
N955 H960 0.984 . S
N955 H961 0.985 . S
C956 C950 1.379 . S
C956 C953 1.363 . S
C956 N954 1.356 . S
C957 C951 1.363 . S
C957 C952 1.379 . S
C957 N955 1.356 . S
N958 C950 1.356 . S
N958 H964 0.984 . S
N958 H965 0.984 . S
N959 C952 1.356 . S
N959 H962 0.984 . S
N959 H963 0.985 . S
H960 N955 0.984 . S
H961 N955 0.985 . S
H962 N959 0.984 . S
H963 N959 0.985 . S
H964 N958 0.984 . S
H965 N958 0.984 . S
H966 N954 0.984 . S
H967 N954 0.985 . S
C968 C969 1.363 . S
C968 C974 1.379 . S
C968 N976 1.356 . S
C969 C968 1.363 . S
C969 C975 1.363 . S
C970 C971 1.363 . S
C970 C975 1.379 . S
C970 N977 1.356 . S
C971 C970 1.363 . S
C971 C974 1.363 . S
N972 C974 1.356 . S
N972 H984 0.984 . S
N972 H985 0.985 . S
N973 C975 1.356 . S
N973 H978 0.984 . S
N973 H979 0.985 . S
C974 C968 1.379 . S
C974 C971 1.363 . S
C974 N972 1.356 . S
C975 C969 1.363 . S
C975 C970 1.379 . S
C975 N973 1.356 . S
N976 C968 1.356 . S
N976 H982 0.984 . S
N976 H983 0.984 . S
N977 C970 1.356 . S
N977 H980 0.984 . S
N977 H981 0.985 . S
H978 N973 0.984 . S
H979 N973 0.985 . S
H980 N977 0.984 . S
H981 N977 0.985 . S
H982 N976 0.984 . S
H983 N976 0.984 . S
H984 N972 0.984 . S
H985 N972 0.985 . S
C986 C987 1.363 . S
C986 C992 1.379 . S
C986 N994 1.356 . S
C987 C986 1.363 . S
C987 C993 1.363 . S
C988 C989 1.363 . S
C988 C993 1.379 . S
C988 N995 1.356 . S
C989 C988 1.363 . S
C989 C992 1.363 . S
N990 C992 1.356 . S
N990 H1002 0.984 . S
N990 H1003 0.985 . S
N991 C993 1.356 . S
N991 H996 0.984 . S
N991 H997 0.985 . S
C992 C986 1.379 . S
C992 C989 1.363 . S
C992 N990 1.356 . S
C993 C987 1.363 . S
C993 C988 1.379 . S
C993 N991 1.356 . S
N994 C986 1.356 . S
N994 H1000 0.984 . S
N994 H1001 0.984 . S
N995 C988 1.356 . S
N995 H998 0.984 . S
N995 H999 0.985 . S
H996 N991 0.984 . S
H997 N991 0.985 . S
H998 N995 0.984 . S
H999 N995 0.985 . S
H1000 N994 0.984 . S
H1001 N994 0.984 . S
H1002 N990 0.984 . S
H1003 N990 0.985 . S
C1004 C1005 1.363 . S
C1004 C1010 1.379 . S
C1004 N1012 1.356 . S
C1005 C1004 1.363 . S
C1005 C1011 1.363 . S
C1006 C1007 1.363 . S
C1006 C1011 1.379 . S
C1006 N1013 1.356 . S
C1007 C1006 1.363 . S
C1007 C1010 1.363 . S
N1008 C1010 1.356 . S
N1008 H1020 0.984 . S
N1008 H1021 0.985 . S
N1009 C1011 1.356 . S
N1009 H1014 0.984 . S
N1009 H1015 0.985 . S
C1010 C1004 1.379 . S
C1010 C1007 1.363 . S
C1010 N1008 1.356 . S
C1011 C1005 1.363 . S
C1011 C1006 1.379 . S
C1011 N1009 1.356 . S
N1012 C1004 1.356 . S
N1012 H1018 0.984 . S
N1012 H1019 0.984 . S
N1013 C1006 1.356 . S
N1013 H1016 0.984 . S
N1013 H1017 0.985 . S
H1014 N1009 0.984 . S
H1015 N1009 0.985 . S
H1016 N1013 0.984 . S
H1017 N1013 0.985 . S
H1018 N1012 0.984 . S
H1019 N1012 0.984 . S
H1020 N1008 0.984 . S
H1021 N1008 0.985 . S
C1022 C1023 1.363 . S
C1022 C1028 1.379 . S
C1022 N1030 1.356 . S
C1023 C1022 1.363 . S
C1023 C1029 1.363 . S
C1024 C1025 1.363 . S
C1024 C1029 1.379 . S
C1024 N1031 1.356 . S
C1025 C1024 1.363 . S
C1025 C1028 1.363 . S
N1026 C1028 1.356 . S
N1026 H1038 0.984 . S
N1026 H1039 0.985 . S
N1027 C1029 1.356 . S
N1027 H1032 0.984 . S
N1027 H1033 0.985 . S
C1028 C1022 1.379 . S
C1028 C1025 1.363 . S
C1028 N1026 1.356 . S
C1029 C1023 1.363 . S
C1029 C1024 1.379 . S
C1029 N1027 1.356 . S
N1030 C1022 1.356 . S
N1030 H1036 0.984 . S
N1030 H1037 0.984 . S
N1031 C1024 1.356 . S
N1031 H1034 0.984 . S
N1031 H1035 0.985 . S
H1032 N1027 0.984 . S
H1033 N1027 0.985 . S
H1034 N1031 0.984 . S
H1035 N1031 0.985 . S
H1036 N1030 0.984 . S
H1037 N1030 0.984 . S
H1038 N1026 0.984 . S
H1039 N1026 0.985 . S
C1040 C1041 1.363 . S
C1040 C1046 1.379 . S
C1040 N1048 1.356 1_545 S
C1041 C1040 1.363 . S
C1041 C1047 1.363 . S
C1042 C1043 1.363 . S
C1042 C1047 1.379 . S
C1042 N1049 1.356 . S
C1043 C1042 1.363 . S
C1043 C1046 1.363 . S
N1044 C1046 1.356 1_565 S
N1044 H1056 0.984 . S
N1044 H1057 0.985 . S
N1045 C1047 1.356 . S
N1045 H1050 0.984 . S
N1045 H1051 0.985 . S
C1046 C1040 1.379 . S
C1046 C1043 1.363 . S
C1046 N1044 1.356 1_545 S
C1047 C1041 1.363 . S
C1047 C1042 1.379 . S
C1047 N1045 1.356 . S
N1048 C1040 1.356 1_565 S
N1048 H1054 0.984 . S
N1048 H1055 0.984 . S
N1049 C1042 1.356 . S
N1049 H1052 0.984 . S
N1049 H1053 0.985 . S
H1050 N1045 0.984 . S
H1051 N1045 0.985 . S
H1052 N1049 0.984 . S
H1053 N1049 0.985 . S
H1054 N1048 0.984 . S
H1055 N1048 0.984 . S
H1056 N1044 0.984 . S
H1057 N1044 0.985 . S
C1058 C1059 1.363 . S
C1058 C1064 1.379 . S
C1058 N1066 1.356 1_655 S
C1059 C1058 1.363 . S
C1059 C1065 1.363 . S
C1060 C1061 1.363 . S
C1060 C1065 1.379 . S
C1060 N1067 1.356 . S
C1061 C1060 1.363 . S
C1061 C1064 1.363 . S
N1062 C1064 1.356 1_455 S
N1062 H1074 0.984 . S
N1062 H1075 0.985 . S
N1063 C1065 1.356 . S
N1063 H1068 0.984 . S
N1063 H1069 0.985 . S
C1064 C1058 1.379 . S
C1064 C1061 1.363 . S
C1064 N1062 1.356 1_655 S
C1065 C1059 1.363 . S
C1065 C1060 1.379 . S
C1065 N1063 1.356 . S
N1066 C1058 1.356 1_455 S
N1066 H1072 0.984 . S
N1066 H1073 0.984 . S
N1067 C1060 1.356 . S
N1067 H1070 0.984 . S
N1067 H1071 0.985 . S
H1068 N1063 0.984 . S
H1069 N1063 0.985 . S
H1070 N1067 0.984 . S
H1071 N1067 0.985 . S
H1072 N1066 0.984 . S
H1073 N1066 0.984 . S
H1074 N1062 0.984 . S
H1075 N1062 0.985 . S
C1076 C1077 1.363 . S
C1076 C1082 1.379 . S
C1076 N1084 1.356 . S
C1077 C1076 1.363 . S
C1077 C1083 1.363 . S
C1078 C1079 1.363 . S
C1078 C1083 1.379 . S
C1078 N1085 1.356 . S
C1079 C1078 1.363 . S
C1079 C1082 1.363 . S
N1080 C1082 1.356 . S
N1080 H1092 0.984 . S
N1080 H1093 0.985 . S
N1081 C1083 1.356 . S
N1081 H1086 0.984 . S
N1081 H1087 0.985 . S
C1082 C1076 1.379 . S
C1082 C1079 1.363 . S
C1082 N1080 1.356 . S
C1083 C1077 1.363 . S
C1083 C1078 1.379 . S
C1083 N1081 1.356 . S
N1084 C1076 1.356 . S
N1084 H1090 0.984 . S
N1084 H1091 0.984 . S
N1085 C1078 1.356 . S
N1085 H1088 0.984 . S
N1085 H1089 0.985 . S
H1086 N1081 0.984 . S
H1087 N1081 0.985 . S
H1088 N1085 0.984 . S
H1089 N1085 0.985 . S
H1090 N1084 0.984 . S
H1091 N1084 0.984 . S
H1092 N1080 0.984 . S
H1093 N1080 0.985 . S
C1094 C1095 1.363 . S
C1094 C1100 1.379 . S
C1094 N1102 1.356 . S
C1095 C1094 1.363 . S
C1095 C1101 1.363 . S
C1096 C1097 1.363 . S
C1096 C1101 1.379 . S
C1096 N1103 1.356 . S
C1097 C1096 1.363 . S
C1097 C1100 1.363 . S
N1098 C1100 1.356 . S
N1098 H1110 0.984 . S
N1098 H1111 0.985 . S
N1099 C1101 1.356 . S
N1099 H1104 0.984 . S
N1099 H1105 0.985 . S
C1100 C1094 1.379 . S
C1100 C1097 1.363 . S
C1100 N1098 1.356 . S
C1101 C1095 1.363 . S
C1101 C1096 1.379 . S
C1101 N1099 1.356 . S
N1102 C1094 1.356 . S
N1102 H1108 0.984 . S
N1102 H1109 0.984 . S
N1103 C1096 1.356 . S
N1103 H1106 0.984 . S
N1103 H1107 0.985 . S
H1104 N1099 0.984 . S
H1105 N1099 0.985 . S
H1106 N1103 0.984 . S
H1107 N1103 0.985 . S
H1108 N1102 0.984 . S
H1109 N1102 0.984 . S
H1110 N1098 0.984 . S
H1111 N1098 0.985 . S
C1112 C1113 1.363 . S
C1112 C1118 1.379 . S
C1112 N1120 1.356 . S
C1113 C1112 1.363 . S
C1113 C1119 1.363 . S
C1114 C1115 1.363 . S
C1114 C1119 1.379 . S
C1114 N1121 1.356 . S
C1115 C1114 1.363 . S
C1115 C1118 1.363 . S
N1116 C1118 1.356 . S
N1116 H1128 0.984 . S
N1116 H1129 0.985 . S
N1117 C1119 1.356 . S
N1117 H1122 0.984 . S
N1117 H1123 0.985 . S
C1118 C1112 1.379 . S
C1118 C1115 1.363 . S
C1118 N1116 1.356 . S
C1119 C1113 1.363 . S
C1119 C1114 1.379 . S
C1119 N1117 1.356 . S
N1120 C1112 1.356 . S
N1120 H1126 0.984 . S
N1120 H1127 0.984 . S
N1121 C1114 1.356 . S
N1121 H1124 0.984 . S
N1121 H1125 0.985 . S
H1122 N1117 0.984 . S
H1123 N1117 0.985 . S
H1124 N1121 0.984 . S
H1125 N1121 0.985 . S
H1126 N1120 0.984 . S
H1127 N1120 0.984 . S
H1128 N1116 0.984 . S
H1129 N1116 0.985 . S
C1130 C1131 1.363 . S
C1130 C1136 1.379 . S
C1130 N1138 1.356 . S
C1131 C1130 1.363 . S
C1131 C1137 1.363 . S
C1132 C1133 1.363 . S
C1132 C1137 1.379 . S
C1132 N1139 1.356 . S
C1133 C1132 1.363 . S
C1133 C1136 1.363 . S
N1134 C1136 1.356 . S
N1134 H1146 0.984 . S
N1134 H1147 0.985 . S
N1135 C1137 1.356 . S
N1135 H1140 0.984 . S
N1135 H1141 0.985 . S
C1136 C1130 1.379 . S
C1136 C1133 1.363 . S
C1136 N1134 1.356 . S
C1137 C1131 1.363 . S
C1137 C1132 1.379 . S
C1137 N1135 1.356 . S
N1138 C1130 1.356 . S
N1138 H1144 0.984 . S
N1138 H1145 0.984 . S
N1139 C1132 1.356 . S
N1139 H1142 0.984 . S
N1139 H1143 0.985 . S
H1140 N1135 0.984 . S
H1141 N1135 0.985 . S
H1142 N1139 0.984 . S
H1143 N1139 0.985 . S
H1144 N1138 0.984 . S
H1145 N1138 0.984 . S
H1146 N1134 0.984 . S
H1147 N1134 0.985 . S
C1148 C1149 1.363 . S
C1148 C1154 1.379 . S
C1148 N1156 1.356 . S
C1149 C1148 1.363 . S
C1149 C1155 1.363 . S
C1150 C1151 1.363 . S
C1150 C1155 1.379 . S
C1150 N1157 1.364 . S
C1151 C1150 1.363 . S
C1151 C1154 1.363 . S
N1152 C1154 1.356 . S
N1152 H1164 0.984 . S
N1152 H1165 0.985 . S
N1153 C1155 1.364 . S
N1153 H1158 0.988 . S
N1153 H1159 0.974 1_565 S
C1154 C1148 1.379 . S
C1154 C1151 1.363 . S
C1154 N1152 1.356 . S
C1155 C1149 1.363 . S
C1155 C1150 1.379 . S
C1155 N1153 1.364 . S
N1156 C1148 1.356 . S
N1156 H1162 0.984 . S
N1156 H1163 0.984 . S
N1157 C1150 1.364 . S
N1157 H1160 0.988 . S
N1157 H1161 0.974 1_565 S
H1158 N1153 0.988 . S
H1159 N1153 0.974 1_545 S
H1160 N1157 0.988 . S
H1161 N1157 0.974 1_545 S
H1162 N1156 0.984 . S
H1163 N1156 0.984 . S
H1164 N1152 0.984 . S
H1165 N1152 0.985 . S
C1166 C1167 1.363 . S
C1166 C1172 1.379 . S
C1166 N1174 1.356 . S
C1167 C1166 1.363 . S
C1167 C1173 1.363 . S
C1168 C1169 1.363 . S
C1168 C1173 1.379 . S
C1168 N1175 1.356 1_455 S
C1169 C1168 1.363 . S
C1169 C1172 1.363 . S
N1170 C1172 1.356 . S
N1170 H1182 0.984 . S
N1170 H1183 0.985 . S
N1171 C1173 1.356 1_655 S
N1171 H1176 0.984 1_655 S
N1171 H1177 0.985 . S
C1172 C1166 1.379 . S
C1172 C1169 1.363 . S
C1172 N1170 1.356 . S
C1173 C1167 1.363 . S
C1173 C1168 1.379 . S
C1173 N1171 1.356 1_455 S
N1174 C1166 1.356 . S
N1174 H1180 0.984 . S
N1174 H1181 0.984 . S
N1175 C1168 1.356 1_655 S
N1175 H1178 0.984 1_655 S
N1175 H1179 0.985 . S
H1176 N1171 0.984 1_455 S
H1177 N1171 0.985 . S
H1178 N1175 0.984 1_455 S
H1179 N1175 0.985 . S
H1180 N1174 0.984 . S
H1181 N1174 0.984 . S
H1182 N1170 0.984 . S
H1183 N1170 0.985 . S
C1184 C1185 1.363 . S
C1184 C1190 1.379 . S
C1184 N1192 1.356 . S
C1185 C1184 1.363 . S
C1185 C1191 1.363 . S
C1186 C1187 1.363 . S
C1186 C1191 1.379 . S
C1186 N1193 1.356 . S
C1187 C1186 1.363 . S
C1187 C1190 1.363 . S
N1188 C1190 1.356 . S
N1188 H1200 0.984 . S
N1188 H1201 0.985 . S
N1189 C1191 1.356 . S
N1189 H1194 0.984 . S
N1189 H1195 0.985 . S
C1190 C1184 1.379 . S
C1190 C1187 1.363 . S
C1190 N1188 1.356 . S
C1191 C1185 1.363 . S
C1191 C1186 1.379 . S
C1191 N1189 1.356 . S
N1192 C1184 1.356 . S
N1192 H1198 0.984 . S
N1192 H1199 0.984 . S
N1193 C1186 1.356 . S
N1193 H1196 0.984 . S
N1193 H1197 0.985 1_545 S
H1194 N1189 0.984 . S
H1195 N1189 0.985 . S
H1196 N1193 0.984 . S
H1197 N1193 0.985 1_565 S
H1198 N1192 0.984 . S
H1199 N1192 0.984 . S
H1200 N1188 0.984 . S
H1201 N1188 0.985 . S
C1202 C1203 1.363 . S
C1202 C1208 1.379 . S
C1202 N1210 1.356 . S
C1203 C1202 1.363 . S
C1203 C1209 1.363 . S
C1204 C1205 1.363 . S
C1204 C1209 1.379 . S
C1204 N1211 1.356 . S
C1205 C1204 1.363 . S
C1205 C1208 1.363 . S
N1206 C1208 1.356 . S
N1206 H1218 0.984 1_545 S
N1206 H1219 0.985 . S
N1207 C1209 1.356 . S
N1207 H1212 0.984 . S
N1207 H1213 0.985 . S
C1208 C1202 1.379 . S
C1208 C1205 1.363 . S
C1208 N1206 1.356 . S
C1209 C1203 1.363 . S
C1209 C1204 1.379 . S
C1209 N1207 1.356 . S
N1210 C1202 1.356 . S
N1210 H1216 0.984 . S
N1210 H1217 0.984 . S
N1211 C1204 1.356 . S
N1211 H1214 0.984 . S
N1211 H1215 0.985 . S
H1212 N1207 0.984 . S
H1213 N1207 0.985 . S
H1214 N1211 0.984 . S
H1215 N1211 0.985 . S
H1216 N1210 0.984 . S
H1217 N1210 0.984 . S
H1218 N1206 0.984 1_565 S
H1219 N1206 0.985 . S
C1220 C1221 1.363 . S
C1220 C1226 1.379 . S
C1220 N1228 1.356 . S
C1221 C1220 1.363 . S
C1221 C1227 1.363 . S
C1222 C1223 1.363 . S
C1222 C1227 1.379 . S
C1222 N1229 1.356 1_655 S
C1223 C1222 1.363 . S
C1223 C1226 1.363 . S
N1224 C1226 1.356 . S
N1224 H1236 0.984 . S
N1224 H1237 0.985 . S
N1225 C1227 1.356 . S
N1225 H1230 0.984 . S
N1225 H1231 0.985 1_655 S
C1226 C1220 1.379 . S
C1226 C1223 1.363 . S
C1226 N1224 1.356 . S
C1227 C1221 1.363 . S
C1227 C1222 1.379 . S
C1227 N1225 1.356 . S
N1228 C1220 1.356 . S
N1228 H1234 0.984 . S
N1228 H1235 0.984 . S
N1229 C1222 1.356 1_455 S
N1229 H1232 0.984 . S
N1229 H1233 0.985 . S
H1230 N1225 0.984 . S
H1231 N1225 0.985 1_455 S
H1232 N1229 0.984 . S
H1233 N1229 0.985 . S
H1234 N1228 0.984 . S
H1235 N1228 0.984 . S
H1236 N1224 0.984 . S
H1237 N1224 0.985 . S
C1238 C1239 1.363 . S
C1238 C1244 1.379 1_554 S
C1238 N1246 1.356 . S
C1239 C1238 1.363 . S
C1239 C1245 1.363 . S
C1240 C1241 1.363 . S
C1240 C1245 1.379 1_556 S
C1240 N1247 1.356 . S
C1241 C1240 1.363 . S
C1241 C1244 1.363 . S
N1242 C1244 1.356 . S
N1242 H1254 0.984 . S
N1242 H1255 0.985 . S
N1243 C1245 1.356 . S
N1243 H1248 0.984 . S
N1243 H1249 0.985 . S
C1244 C1238 1.379 1_556 S
C1244 C1241 1.363 . S
C1244 N1242 1.356 . S
C1245 C1239 1.363 . S
C1245 C1240 1.379 1_554 S
C1245 N1243 1.356 . S
N1246 C1238 1.356 . S
N1246 H1252 0.984 . S
N1246 H1253 0.984 . S
N1247 C1240 1.356 . S
N1247 H1250 0.984 . S
N1247 H1251 0.985 . S
H1248 N1243 0.984 . S
H1249 N1243 0.985 . S
H1250 N1247 0.984 . S
H1251 N1247 0.985 . S
H1252 N1246 0.984 . S
H1253 N1246 0.984 . S
H1254 N1242 0.984 . S
H1255 N1242 0.985 . S
C1256 C1257 1.363 . S
C1256 C1262 1.379 . S
C1256 N1264 1.356 . S
C1257 C1256 1.363 . S
C1257 C1263 1.363 . S
C1258 C1259 1.363 . S
C1258 C1263 1.379 . S
C1258 N1265 1.356 . S
C1259 C1258 1.363 . S
C1259 C1262 1.363 . S
N1260 C1262 1.356 . S
N1260 H1272 0.984 1_455 S
N1260 H1273 0.985 . S
N1261 C1263 1.356 . S
N1261 H1266 0.984 . S
N1261 H1267 0.985 . S
C1262 C1256 1.379 . S
C1262 C1259 1.363 . S
C1262 N1260 1.356 . S
C1263 C1257 1.363 . S
C1263 C1258 1.379 . S
C1263 N1261 1.356 . S
N1264 C1256 1.356 . S
N1264 H1270 0.984 . S
N1264 H1271 0.984 . S
N1265 C1258 1.356 . S
N1265 H1268 0.984 . S
N1265 H1269 0.985 . S
H1266 N1261 0.984 . S
H1267 N1261 0.985 . S
H1268 N1265 0.984 . S
H1269 N1265 0.985 . S
H1270 N1264 0.984 . S
H1271 N1264 0.984 . S
H1272 N1260 0.984 1_655 S
H1273 N1260 0.985 . S
C1274 C1275 1.363 . S
C1274 C1280 1.379 1_554 S
C1274 N1282 1.356 . S
C1275 C1274 1.363 . S
C1275 C1281 1.363 . S
C1276 C1277 1.363 . S
C1276 C1281 1.379 1_556 S
C1276 N1283 1.356 . S
C1277 C1276 1.363 . S
C1277 C1280 1.363 . S
N1278 C1280 1.356 . S
N1278 H1290 0.984 . S
N1278 H1291 0.985 . S
N1279 C1281 1.356 . S
N1279 H1284 0.984 . S
N1279 H1285 0.985 . S
C1280 C1274 1.379 1_556 S
C1280 C1277 1.363 . S
C1280 N1278 1.356 . S
C1281 C1275 1.363 . S
C1281 C1276 1.379 1_554 S
C1281 N1279 1.356 . S
N1282 C1274 1.356 . S
N1282 H1288 0.984 . S
N1282 H1289 0.984 . S
N1283 C1276 1.356 . S
N1283 H1286 0.984 . S
N1283 H1287 0.985 . S
H1284 N1279 0.984 . S
H1285 N1279 0.985 . S
H1286 N1283 0.984 . S
H1287 N1283 0.985 . S
H1288 N1282 0.984 . S
H1289 N1282 0.984 . S
H1290 N1278 0.984 . S
H1291 N1278 0.985 . S
C1292 C1293 1.363 . S
C1292 C1298 1.379 . S
C1292 N1300 1.356 . S
C1293 C1292 1.363 . S
C1293 C1299 1.363 . S
C1294 C1295 1.363 . S
C1294 C1299 1.379 . S
C1294 N1301 1.356 . S
C1295 C1294 1.363 . S
C1295 C1298 1.363 . S
N1296 C1298 1.356 . S
N1296 H1308 0.984 . S
N1296 H1309 0.985 . S
N1297 C1299 1.356 1_545 S
N1297 H1302 0.984 . S
N1297 H1303 0.985 . S
C1298 C1292 1.379 . S
C1298 C1295 1.363 . S
C1298 N1296 1.356 . S
C1299 C1293 1.363 . S
C1299 C1294 1.379 . S
C1299 N1297 1.356 1_565 S
N1300 C1292 1.356 . S
N1300 H1306 0.984 . S
N1300 H1307 0.984 . S
N1301 C1294 1.356 . S
N1301 H1304 0.984 . S
N1301 H1305 0.985 1_565 S
H1302 N1297 0.984 . S
H1303 N1297 0.985 . S
H1304 N1301 0.984 . S
H1305 N1301 0.985 1_545 S
H1306 N1300 0.984 . S
H1307 N1300 0.984 . S
H1308 N1296 0.984 . S
H1309 N1296 0.985 . S
C1310 C1311 1.363 . S
C1310 C1316 1.379 . S
C1310 N1318 1.356 . S
C1311 C1310 1.363 . S
C1311 C1317 1.363 . S
C1312 C1313 1.363 . S
C1312 C1317 1.379 . S
C1312 N1319 1.356 . S
C1313 C1312 1.363 . S
C1313 C1316 1.363 . S
N1314 C1316 1.356 . S
N1314 H1326 0.984 . S
N1314 H1327 0.985 . S
N1315 C1317 1.356 1_655 S
N1315 H1320 0.984 . S
N1315 H1321 0.985 . S
C1316 C1310 1.379 . S
C1316 C1313 1.363 . S
C1316 N1314 1.356 . S
C1317 C1311 1.363 . S
C1317 C1312 1.379 . S
C1317 N1315 1.356 1_455 S
N1318 C1310 1.356 . S
N1318 H1324 0.984 . S
N1318 H1325 0.984 . S
N1319 C1312 1.356 . S
N1319 H1322 0.984 . S
N1319 H1323 0.985 1_455 S
H1320 N1315 0.984 . S
H1321 N1315 0.985 . S
H1322 N1319 0.984 . S
H1323 N1319 0.985 1_655 S
H1324 N1318 0.984 . S
H1325 N1318 0.984 . S
H1326 N1314 0.984 . S
H1327 N1314 0.985 . S
C1328 C1329 1.363 1_545 S
C1328 C1334 1.379 . S
C1328 N1336 1.356 . S
C1329 C1328 1.363 1_565 S
C1329 C1335 1.363 . S
C1330 C1331 1.363 1_565 S
C1330 C1335 1.379 . S
C1330 N1337 1.356 . S
C1331 C1330 1.363 1_545 S
C1331 C1334 1.363 . S
N1332 C1334 1.356 . S
N1332 H1344 0.984 . S
N1332 H1345 0.985 . S
N1333 C1335 1.356 . S
N1333 H1338 0.984 . S
N1333 H1339 0.985 . S
C1334 C1328 1.379 . S
C1334 C1331 1.363 . S
C1334 N1332 1.356 . S
C1335 C1329 1.363 . S
C1335 C1330 1.379 . S
C1335 N1333 1.356 . S
N1336 C1328 1.356 . S
N1336 H1342 0.984 . S
N1336 H1343 0.984 . S
N1337 C1330 1.356 . S
N1337 H1340 0.984 . S
N1337 H1341 0.985 . S
H1338 N1333 0.984 . S
H1339 N1333 0.985 . S
H1340 N1337 0.984 . S
H1341 N1337 0.985 . S
H1342 N1336 0.984 . S
H1343 N1336 0.984 . S
H1344 N1332 0.984 . S
H1345 N1332 0.985 . S
C1346 C1347 1.363 . S
C1346 C1352 1.379 1_545 S
C1346 N1354 1.356 . S
C1347 C1346 1.363 . S
C1347 C1353 1.363 1_455 S
C1348 C1349 1.363 . S
C1348 C1353 1.379 1_565 S
C1348 N1355 1.356 . S
C1349 C1348 1.363 . S
C1349 C1352 1.363 1_655 S
N1350 C1352 1.356 . S
N1350 H1362 0.984 . S
N1350 H1363 0.985 . S
N1351 C1353 1.356 . S
N1351 H1356 0.984 . S
N1351 H1357 0.985 . S
C1352 C1346 1.379 1_565 S
C1352 C1349 1.363 1_455 S
C1352 N1350 1.356 . S
C1353 C1347 1.363 1_655 S
C1353 C1348 1.379 1_545 S
C1353 N1351 1.356 . S
N1354 C1346 1.356 . S
N1354 H1360 0.984 . S
N1354 H1361 0.984 . S
N1355 C1348 1.356 . S
N1355 H1358 0.984 . S
N1355 H1359 0.985 . S
H1356 N1351 0.984 . S
H1357 N1351 0.985 . S
H1358 N1355 0.984 . S
H1359 N1355 0.985 . S
H1360 N1354 0.984 . S
H1361 N1354 0.984 . S
H1362 N1350 0.984 . S
H1363 N1350 0.985 . S
C1364 C1365 1.363 . S
C1364 C1370 1.379 1_455 S
C1364 N1372 1.356 . S
C1365 C1364 1.363 . S
C1365 C1371 1.363 . S
C1366 C1367 1.363 . S
C1366 C1371 1.379 1_655 S
C1366 N1373 1.356 . S
C1367 C1366 1.363 . S
C1367 C1370 1.363 . S
N1368 C1370 1.356 . S
N1368 H1380 0.984 . S
N1368 H1381 0.985 . S
N1369 C1371 1.356 . S
N1369 H1374 0.984 . S
N1369 H1375 0.985 . S
C1370 C1364 1.379 1_655 S
C1370 C1367 1.363 . S
C1370 N1368 1.356 . S
C1371 C1365 1.363 . S
C1371 C1366 1.379 1_455 S
C1371 N1369 1.356 . S
N1372 C1364 1.356 . S
N1372 H1378 0.984 . S
N1372 H1379 0.984 . S
N1373 C1366 1.356 . S
N1373 H1376 0.984 . S
N1373 H1377 0.985 . S
H1374 N1369 0.984 . S
H1375 N1369 0.985 . S
H1376 N1373 0.984 . S
H1377 N1373 0.985 . S
H1378 N1372 0.984 . S
H1379 N1372 0.984 . S
H1380 N1368 0.984 . S
H1381 N1368 0.985 . S
C1382 C1383 1.363 . S
C1382 C1388 1.379 . S
C1382 N1390 1.356 . S
C1383 C1382 1.363 . S
C1383 C1389 1.363 . S
C1384 C1385 1.363 . S
C1384 C1389 1.379 . S
C1384 N1391 1.356 . S
C1385 C1384 1.363 . S
C1385 C1388 1.363 . S
N1386 C1388 1.356 . S
N1386 H1398 0.984 . S
N1386 H1399 0.985 . S
N1387 C1389 1.356 . S
N1387 H1392 0.984 . S
N1387 H1393 0.985 . S
C1388 C1382 1.379 . S
C1388 C1385 1.363 . S
C1388 N1386 1.356 . S
C1389 C1383 1.363 . S
C1389 C1384 1.379 . S
C1389 N1387 1.356 . S
N1390 C1382 1.356 . S
N1390 H1396 0.984 . S
N1390 H1397 0.984 . S
N1391 C1384 1.356 . S
N1391 H1394 0.984 . S
N1391 H1395 0.985 . S
H1392 N1387 0.984 . S
H1393 N1387 0.985 . S
H1394 N1391 0.984 . S
H1395 N1391 0.985 . S
H1396 N1390 0.984 . S
H1397 N1390 0.984 . S
H1398 N1386 0.984 . S
H1399 N1386 0.985 . S
C1400 C1401 1.363 . S
C1400 C1406 1.379 . S
C1400 N1408 1.356 . S
C1401 C1400 1.363 . S
C1401 C1407 1.363 . S
C1402 C1403 1.363 . S
C1402 C1407 1.379 . S
C1402 N1409 1.356 . S
C1403 C1402 1.363 . S
C1403 C1406 1.363 . S
N1404 C1406 1.356 . S
N1404 H1416 0.984 . S
N1404 H1417 0.985 . S
N1405 C1407 1.356 . S
N1405 H1410 0.984 . S
N1405 H1411 0.985 . S
C1406 C1400 1.379 . S
C1406 C1403 1.363 . S
C1406 N1404 1.356 . S
C1407 C1401 1.363 . S
C1407 C1402 1.379 . S
C1407 N1405 1.356 . S
N1408 C1400 1.356 . S
N1408 H1414 0.984 . S
N1408 H1415 0.984 . S
N1409 C1402 1.356 . S
N1409 H1412 0.984 . S
N1409 H1413 0.985 . S
H1410 N1405 0.984 . S
H1411 N1405 0.985 . S
H1412 N1409 0.984 . S
H1413 N1409 0.985 . S
H1414 N1408 0.984 . S
H1415 N1408 0.984 . S
H1416 N1404 0.984 . S
H1417 N1404 0.985 . S
C1418 C1419 1.363 . S
C1418 C1424 1.379 1_545 S
C1418 N1426 1.356 . S
C1419 C1418 1.363 . S
C1419 C1425 1.363 . S
C1420 C1421 1.363 . S
C1420 C1425 1.379 1_565 S
C1420 N1427 1.356 . S
C1421 C1420 1.363 . S
C1421 C1424 1.363 . S
N1422 C1424 1.356 . S
N1422 H1434 0.984 . S
N1422 H1435 0.985 . S
N1423 C1425 1.356 . S
N1423 H1428 0.984 . S
N1423 H1429 0.985 . S
C1424 C1418 1.379 1_565 S
C1424 C1421 1.363 . S
C1424 N1422 1.356 . S
C1425 C1419 1.363 . S
C1425 C1420 1.379 1_545 S
C1425 N1423 1.356 . S
N1426 C1418 1.356 . S
N1426 H1432 0.984 . S
N1426 H1433 0.984 . S
N1427 C1420 1.356 . S
N1427 H1430 0.984 . S
N1427 H1431 0.985 . S
H1428 N1423 0.984 . S
H1429 N1423 0.985 . S
H1430 N1427 0.984 . S
H1431 N1427 0.985 . S
H1432 N1426 0.984 . S
H1433 N1426 0.984 . S
H1434 N1422 0.984 . S
H1435 N1422 0.985 . S
C1436 C1437 1.363 . S
C1436 C1442 1.379 1_455 S
C1436 N1444 1.356 . S
C1437 C1436 1.363 . S
C1437 C1443 1.363 1_545 S
C1438 C1439 1.363 . S
C1438 C1443 1.379 1_655 S
C1438 N1445 1.356 . S
C1439 C1438 1.363 . S
C1439 C1442 1.363 1_565 S
N1440 C1442 1.356 . S
N1440 H1452 0.984 . S
N1440 H1453 0.985 . S
N1441 C1443 1.356 . S
N1441 H1446 0.984 . S
N1441 H1447 0.985 . S
C1442 C1436 1.379 1_655 S
C1442 C1439 1.363 1_545 S
C1442 N1440 1.356 . S
C1443 C1437 1.363 1_565 S
C1443 C1438 1.379 1_455 S
C1443 N1441 1.356 . S
N1444 C1436 1.356 . S
N1444 H1450 0.984 . S
N1444 H1451 0.984 . S
N1445 C1438 1.356 . S
N1445 H1448 0.984 . S
N1445 H1449 0.985 . S
H1446 N1441 0.984 . S
H1447 N1441 0.985 . S
H1448 N1445 0.984 . S
H1449 N1445 0.985 . S
H1450 N1444 0.984 . S
H1451 N1444 0.984 . S
H1452 N1440 0.984 . S
H1453 N1440 0.985 . S
C1454 C1455 1.363 1_455 S
C1454 C1460 1.379 . S
C1454 N1462 1.356 . S
C1455 C1454 1.363 1_655 S
C1455 C1461 1.363 . S
C1456 C1457 1.363 1_655 S
C1456 C1461 1.379 . S
C1456 N1463 1.356 . S
C1457 C1456 1.363 1_455 S
C1457 C1460 1.363 . S
N1458 C1460 1.356 . S
N1458 H1470 0.984 . S
N1458 H1471 0.985 . S
N1459 C1461 1.356 . S
N1459 H1464 0.984 . S
N1459 H1465 0.985 . S
C1460 C1454 1.379 . S
C1460 C1457 1.363 . S
C1460 N1458 1.356 . S
C1461 C1455 1.363 . S
C1461 C1456 1.379 . S
C1461 N1459 1.356 . S
N1462 C1454 1.356 . S
N1462 H1468 0.984 . S
N1462 H1469 0.984 . S
N1463 C1456 1.356 . S
N1463 H1466 0.984 . S
N1463 H1467 0.985 . S
H1464 N1459 0.984 . S
H1465 N1459 0.985 . S
H1466 N1463 0.984 . S
H1467 N1463 0.985 . S
H1468 N1462 0.984 . S
H1469 N1462 0.984 . S
H1470 N1458 0.984 . S
H1471 N1458 0.985 . S
C465 C21 0.765 . S
C467 C224 0.765 . S
C483 C137 0.765 . S
C485 C50 0.765 . S
C501 C79 0.765 . S
C503 C166 0.765 . S
C519 C108 0.765 . S
C521 C195 0.765 . S
C537 C456 0.765 . S
C539 C253 0.765 . S
C555 C369 0.765 . S
C557 C282 0.765 . S
C573 C311 0.765 . S
C575 C398 0.765 . S
C591 C340 0.765 . S
C593 C427 0.765 . S
C609 C97 2.527 . S
C611 C5 2.522 . S
C627 C34 2.522 . S
C629 C10 2.527 . S
C645 C63 2.522 . S
C647 C39 2.527 . S
C663 C92 2.522 . S
C665 C68 2.527 . S
C681 C121 2.522 . S
C683 C155 2.527 . S
C699 C150 2.522 . S
C701 C184 2.527 . S
C717 C213 2.527 . S
C719 C179 2.522 . S
C735 C208 2.522 . S
C737 C126 2.527 . S
C753 C329 2.527 . S
C755 C237 2.522 . S
C771 C266 2.522 . S
C773 C242 2.527 . S
C789 C271 2.527 . S
C791 C295 2.522 . S
C807 C324 2.522 . S
C809 C300 2.527 . S
C825 C353 2.522 . S
C827 C387 2.527 . S
C843 C382 2.522 . S
C845 C416 2.527 . S
C861 C411 2.522 . S
C863 C445 2.527 . S
C879 C440 2.522 . S
C881 C358 2.527 . S
C897 C124 0.702 . S
C899 C8 0.702 . S
C915 C153 0.702 . S
C917 C37 0.702 . S
C933 C66 0.702 . S
C935 C182 0.702 . S
C951 C211 0.702 . S
C953 C95 0.702 . S
C969 C356 0.702 . S
C971 C240 0.702 . S
C987 C269 0.702 . S
C989 C385 0.702 . S
C1005 C414 0.702 . S
C1007 C298 0.702 . S
C1023 C443 0.702 . S
C1025 C327 0.702 . S
C1041 C177 2.099 . S
C1043 C3 2.099 . S
C1059 C206 2.099 . S
C1061 C32 2.099 . S
C1077 C61 2.099 . S
C1079 C119 2.099 . S
C1095 C90 2.099 . S
C1097 C148 2.099 . S
C1113 C235 2.099 . S
C1115 C409 2.099 . S
C1131 C264 2.099 . S
C1133 C438 2.099 . S
C1149 C351 2.099 . S
C1151 C293 2.099 . S
C1167 C380 2.099 . S
C1169 C322 2.099 . S
C1185 C160 2.244 . S
C1187 C15 2.244 . S
C1203 C44 2.244 . S
C1205 C189 2.244 . S
C1221 C73 2.244 . S
C1223 C218 2.244 . S
C1239 C131 2.244 . S
C1241 C102 2.244 . S
C1257 C247 2.244 . S
C1259 C392 2.244 . S
C1275 C421 2.244 . S
C1277 C276 2.244 . S
C1293 C305 2.244 . S
C1295 C450 2.244 . S
C1311 C334 2.244 . S
C1313 C363 2.244 . S
C1329 C13 2.012 1_565 S
C1331 C303 2.012 1_545 S
C1347 C42 2.012 1_455 S
C1349 C332 2.012 1_655 S
C1365 C245 2.012 . S
C1367 C71 2.012 . S
C1383 C274 2.012 . S
C1385 C100 2.012 . S
C1401 C129 2.012 . S
C1403 C419 2.012 . S
C1419 C158 2.012 . S
C1421 C448 2.012 . S
C1437 C361 2.012 1_545 S
C1439 C187 2.012 1_565 S
C1455 C390 2.012 1_655 S
C1457 C216 2.012 1_455 S
