# Generated by pormake.
# Topology uon, (4)-cn, num edge types: 1
# Building blocks:
#     Node 0, Type 0, BuildingBlock: QUQFOY_clean_sbu_1, # of connection points: 4
#     Node 1, Type 0, BuildingBlock: QUQFOY_clean_sbu_1, # of connection points: 4
#     Node 2, Type 0, BuildingBlock: QUQFOY_clean_sbu_1, # of connection points: 4
#     Node 3, Type 0, BuildingBlock: QUQFOY_clean_sbu_1, # of connection points: 4
#     Node 4, Type 0, BuildingBlock: QUQFOY_clean_sbu_1, # of connection points: 4
#     Node 5, Type 0, BuildingBlock: QUQFOY_clean_sbu_1, # of connection points: 4
#     Edge 6, Type (0, 0), BuildingBlock: XUDNAN_clean_linker_2, # of connection points: 2
#     Edge 7, Type (0, 0), BuildingBlock: XUDNAN_clean_linker_2, # of connection points: 2
#     Edge 8, Type (0, 0), BuildingBlock: XUDNAN_clean_linker_2, # of connection points: 2
#     Edge 9, Type (0, 0), BuildingBlock: XUDNAN_clean_linker_2, # of connection points: 2
#     Edge 10, Type (0, 0), BuildingBlock: XUDNAN_clean_linker_2, # of connection points: 2
#     Edge 11, Type (0, 0), BuildingBlock: XUDNAN_clean_linker_2, # of connection points: 2
#     Edge 12, Type (0, 0), BuildingBlock: XUDNAN_clean_linker_2, # of connection points: 2
#     Edge 13, Type (0, 0), BuildingBlock: XUDNAN_clean_linker_2, # of connection points: 2
#     Edge 14, Type (0, 0), BuildingBlock: XUDNAN_clean_linker_2, # of connection points: 2
#     Edge 15, Type (0, 0), BuildingBlock: XUDNAN_clean_linker_2, # of connection points: 2
#     Edge 16, Type (0, 0), BuildingBlock: XUDNAN_clean_linker_2, # of connection points: 2
#     Edge 17, Type (0, 0), BuildingBlock: XUDNAN_clean_linker_2, # of connection points: 2
# Relax obj value: 0.073
# Max RMSD: 0.262
# Mean RMSD: 0.262
data_MOF--net-uon--node1-QUQFOY_clean_sbu_1--edge1-XUDNAN_clean_linker_2
_symmetry_space_group_name_H-M    P1
_symmetry_Int_Tables_number       1
_symmetry_cell_setting            triclinic
loop_
_symmetry_equiv_pos_as_xyz
'x, y, z'
_cell_length_a     39.544019
_cell_length_b     39.834875
_cell_length_c     12.281353
_cell_angle_alpha  90.314116
_cell_angle_beta   88.776625
_cell_angle_gamma 120.30112
loop_
_atom_site_label
_atom_site_type_symbol
_atom_site_fract_x
_atom_site_fract_y
_atom_site_fract_z
_atom_type_partial_charge
O0 O 0.30767 0.51926 0.91348 0.0
Cd1 Cd 0.29304 0.4799 0.03583 0.0
Cd2 Cd 0.2191 0.46697 0.95553 0.0
O3 O 0.25299 0.50762 0.83437 0.0
O4 O 0.3449 0.484 0.05811 0.0
O5 O 0.29373 0.4304 -0.00042 0.0
C6 C 0.33071 0.44946 0.01959 0.0
C7 C 0.15239 0.41805 0.95729 0.0
C8 C 0.29024 0.5274 0.84182 0.0
C9 C 0.25189 0.50664 0.17704 0.0
O10 O 0.22846 0.49507 0.09864 0.0
O11 O 0.28094 0.50118 0.17712 0.0
O12 O 0.16332 0.45404 0.94097 0.0
O13 O 0.17939 0.40888 0.95852 0.0
O14 O 0.81515 0.31189 0.23616 0.0
Cd15 Cd 0.82525 0.27531 0.32567 0.0
Cd16 Cd 0.76802 0.22405 0.20501 0.0
O17 O 0.77598 0.27112 0.11277 0.0
O18 O 0.88253 0.3062 0.35567 0.0
O19 O 0.85602 0.25354 0.25226 0.0
C20 C 0.88713 0.28358 0.28861 0.0
C21 C 0.74562 0.15932 0.15791 0.0
C22 C 0.79437 0.30523 0.15284 0.0
C23 C 0.74917 0.23515 0.43738 0.0
O24 O 0.73841 0.22242 0.3423 0.0
O25 O 0.78554 0.25535 0.45891 0.0
O26 O 0.72675 0.17651 0.13166 0.0
O27 O 0.77998 0.1803 0.19819 0.0
O28 O 0.55223 0.78407 0.45156 0.0
Cd29 Cd 0.55291 0.83262 0.52051 0.0
Cd30 Cd 0.55112 0.73528 0.60898 0.0
O31 O 0.52573 0.72137 0.45775 0.0
O32 O 0.55122 0.86953 0.41436 0.0
O33 O 0.60381 0.8843 0.50962 0.0
C34 C 0.58731 0.89394 0.43569 0.0
C35 C 0.59038 0.71436 0.68621 0.0
C36 C 0.52241 0.75056 0.43301 0.0
C37 C 0.51639 0.78433 0.69626 0.0
O38 O 0.5463 0.78136 0.67123 0.0
O39 O 0.51715 0.81482 0.66144 0.0
O40 O 0.55301 0.69616 0.70584 0.0
O41 O 0.60508 0.74371 0.61965 0.0
O42 O 0.73583 0.51416 0.02245 0.0
Cd43 Cd 0.73034 0.54788 0.14323 0.0
Cd44 Cd 0.82372 0.55529 0.13206 0.0
O45 O 0.79346 0.51579 0.00758 0.0
O46 O 0.68644 0.55651 0.10861 0.0
O47 O 0.749 0.6033 0.10639 0.0
C48 C 0.71271 0.59234 0.08859 0.0
C49 C 0.89055 0.59907 0.15221 0.0
C50 C 0.75822 0.50335 0.97775 0.0
C51 C 0.75905 0.5258 0.2959 0.0
O52 O 0.78791 0.55573 0.25263 0.0
O53 O 0.72739 0.52644 0.29887 0.0
O54 O 0.8748 0.56342 0.18453 0.0
O55 O 0.8689 0.60911 0.09991 0.0
O56 O 0.21725 0.72222 0.31588 0.0
Cd57 Cd 0.21632 0.75475 0.44058 0.0
Cd58 Cd 0.2716 0.80583 0.30959 0.0
O59 O 0.25319 0.76432 0.18689 0.0
O60 O 0.16165 0.72091 0.49681 0.0
O61 O 0.18238 0.77804 0.41762 0.0
C62 C 0.15353 0.74536 0.45301 0.0
C63 C 0.28695 0.8699 0.32617 0.0
C64 C 0.23163 0.72935 0.22005 0.0
C65 C 0.2937 0.77715 0.50944 0.0
O66 O 0.30206 0.79411 0.41754 0.0
O67 O 0.25893 0.76161 0.54911 0.0
O68 O 0.30876 0.86099 0.26716 0.0
O69 O 0.25374 0.84189 0.36285 0.0
O70 O 0.48819 0.22937 0.53247 0.0
Cd71 Cd 0.49242 0.19497 0.65253 0.0
Cd72 Cd 0.49921 0.29612 0.60703 0.0
O73 O 0.52339 0.28726 0.46325 0.0
O74 O 0.48428 0.14344 0.6056 0.0
O75 O 0.43961 0.15102 0.69751 0.0
C76 C 0.44884 0.12855 0.64391 0.0
C77 C 0.47552 0.33624 0.66251 0.0
C78 C 0.51784 0.25298 0.4746 0.0
C79 C 0.53639 0.26397 0.75539 0.0
O80 O 0.50519 0.26223 0.7223 0.0
O81 O 0.53555 0.23163 0.76282 0.0
O82 O 0.51274 0.34846 0.66092 0.0
O83 O 0.45199 0.30198 0.62386 0.0
H84 H 0.31326 0.38279 0.90482 0.0
H85 H 0.40895 0.48396 0.05653 0.0
H86 H 0.45577 0.4663 0.97925 0.0
H87 H 0.35374 0.31803 0.94279 0.0
H88 H 0.33644 0.29441 0.81365 0.0
H89 H 0.30999 0.3137 0.88645 0.0
H90 H 0.31565 0.35462 0.71661 0.0
H91 H 0.34269 0.33599 0.64392 0.0
H92 H 0.36337 0.38773 0.65848 0.0
H93 H 0.493 0.44109 0.875 0.0
H94 H 0.51783 0.4055 0.76697 0.0
H95 H 0.39864 0.3193 0.68436 0.0
C96 C 0.34395 0.40074 0.92375 0.0
C97 C 0.35732 0.43477 -0.01279 0.0
C98 C 0.39785 0.45771 0.00865 0.0
C99 C 0.42479 0.44802 0.96465 0.0
C100 C 0.41086 0.41509 0.89975 0.0
C101 C 0.37138 0.39137 0.88066 0.0
C102 C 0.36446 0.35787 0.80673 0.0
C103 C 0.33969 0.31868 0.86596 0.0
C104 C 0.34541 0.35915 0.70012 0.0
C105 C 0.40623 0.3668 0.78644 0.0
C106 C 0.43247 0.40009 0.84054 0.0
C107 C 0.47273 0.41478 0.83301 0.0
C108 C 0.48656 0.39442 0.77074 0.0
C109 C 0.46028 0.35954 0.7169 0.0
C110 C 0.41955 0.34588 0.72419 0.0
H111 H 0.95002 0.35689 0.26667 0.0
H112 H 0.91267 0.23624 0.20068 0.0
H113 H 0.97647 0.25676 0.10696 0.0
H114 H 0.99596 0.39252 0.00853 0.0
H115 H 0.03495 0.43777 0.05996 0.0
H116 H 0.98819 0.41334 0.13052 0.0
H117 H 1.02186 0.41257 0.30845 0.0
H118 H 0.06879 0.43751 0.23884 0.0
H119 H 0.05334 0.392 0.30756 0.0
H120 H 0.04619 0.29193 0.02079 0.0
H121 H 0.11266 0.33785 0.94546 0.0
H122 H 0.09995 0.43481 0.05313 0.0
C123 C 0.95556 0.33468 0.23473 0.0
C124 C 0.92665 0.29486 0.24311 0.0
C125 C 0.93459 0.26685 0.19663 0.0
C126 C 0.97072 0.27829 0.14297 0.0
C127 C 0.99833 0.31792 0.13442 0.0
C128 C 0.99092 0.34563 0.17866 0.0
C129 C 0.02413 0.3864 0.15304 0.0
C130 C 1.00995 0.40881 0.0839 0.0
C131 C 0.04316 0.4084 0.25823 0.0
C132 C 0.05159 0.37747 0.08791 0.0
C133 C 0.03658 0.33786 0.07889 0.0
C134 C 0.05791 0.32298 0.02641 0.0
C135 C 0.09557 0.34923 -0.01655 0.0
C136 C 0.1112 0.38991 -0.00894 0.0
C137 C 0.0885 0.40391 0.04314 0.0
H138 H 0.75636 0.11284 0.30018 0.0
H139 H 0.68568 0.10916 0.03025 0.0
H140 H 0.64039 0.03927 0.06488 0.0
H141 H 0.73904 1.01106 0.27012 0.0
H142 H 0.73662 1.00411 0.4156 0.0
H143 H 0.76724 0.05192 0.35769 0.0
H144 H 0.73168 0.07806 0.48033 0.0
H145 H 0.70043 0.0303 0.53702 0.0
H146 H 0.67919 0.05592 0.47396 0.0
H147 H 0.59793 0.97336 0.14388 0.0
H148 H 0.56316 0.9133 0.25294 0.0
H149 H 0.66035 0.95823 0.47493 0.0
C150 C 0.73235 0.09687 0.24536 0.0
C151 C 0.72494 0.11627 0.16099 0.0
C152 C 0.69223 0.09476 0.09406 0.0
C153 C 0.66626 0.05507 0.11347 0.0
C154 C 0.67332 0.03722 0.20034 0.0
C155 C 0.70583 0.05718 0.26447 0.0
C156 C 0.70451 0.03189 0.35869 0.0
C157 C 0.7389 0.02429 0.34996 0.0
C158 C 0.70391 0.05014 0.46898 0.0
C159 C 0.66573 0.99501 0.33897 0.0
C160 C 0.64843 0.99881 0.24681 0.0
C161 C 0.6115 0.96979 0.21508 0.0
C162 C 0.59184 0.93581 0.27825 0.0
C163 C 0.609 0.93084 0.37249 0.0
C164 C 0.64659 0.96094 0.40285 0.0
H165 H 0.63881 0.57848 0.04759 0.0
H166 H 0.76187 0.66605 0.01061 0.0
H167 H 0.74392 0.70725 0.9055 0.0
H168 H 0.61064 0.58743 0.78454 0.0
H169 H 0.56371 0.5809 0.82633 0.0
H170 H 0.58583 0.55933 0.90495 0.0
H171 H 0.58129 0.59448 0.07798 0.0
H172 H 0.5587 0.61581 0.00014 0.0
H173 H 0.60231 0.64653 0.0753 0.0
H174 H 0.71282 0.73655 0.79215 0.0
H175 H 0.67051 0.75437 0.69224 0.0
H176 H 0.56772 0.64831 0.80697 0.0
C177 C 0.66199 0.60659 0.01897 0.0
C178 C 0.70178 0.61906 0.03757 0.0
C179 C 0.73119 0.65595 -0.002 0.0
C180 C 0.72129 0.67951 0.93781 0.0
C181 C 0.68185 0.6659 0.91868 0.0
C182 C 0.65262 0.63054 0.95934 0.0
C183 C 0.61252 0.62234 0.92561 0.0
C184 C 0.59199 0.58531 0.85623 0.0
C185 C 0.58722 0.61965 0.02573 0.0
C186 C 0.6238 0.65836 0.8583 0.0
C187 C 0.66392 0.68308 0.85501 0.0
C188 C 0.68134 0.71761 0.79503 0.0
C189 C 0.65707 0.72737 0.73808 0.0
C190 C 0.61582 0.70281 0.74198 0.0
C191 C 0.59913 0.66782 0.80281 0.0
H192 H 0.9406 0.58606 0.27126 0.0
H193 H 0.9315 0.67781 0.11021 0.0
H194 H 0.99591 0.72652 0.18253 0.0
H195 H 0.98455 0.63816 0.514 0.0
H196 H 1.01615 0.61809 0.52792 0.0
H197 H 0.96988 0.59046 0.46159 0.0
H198 H 1.00497 0.5838 0.28912 0.0
H199 H 0.05121 0.61064 0.35583 0.0
H200 H 0.04446 0.62691 0.22573 0.0
H201 H 0.06202 0.76523 0.27397 0.0
H202 H 0.12584 0.78954 0.36217 0.0
H203 H 0.08961 0.6721 0.46735 0.0
C204 C 0.95221 0.61635 0.25014 0.0
C205 C 0.93095 0.62807 0.18464 0.0
C206 C 0.94728 0.66807 0.15966 0.0
C207 C 0.98374 0.69597 0.20105 0.0
C208 C 1.00344 0.68344 0.26761 0.0
C209 C 0.98834 0.64449 0.29103 0.0
C210 C 1.01535 0.63832 0.36314 0.0
C211 C 0.99527 0.62019 0.47318 0.0
C212 C 0.02986 0.61346 0.30496 0.0
C213 C 0.04818 0.67989 0.37661 0.0
C214 C 0.0408 0.70558 0.32132 0.0
C215 C 0.06792 0.74536 0.31809 0.0
C216 C 0.10402 0.75897 0.36918 0.0
C217 C 0.11268 0.73288 0.42301 0.0
C218 C 0.08375 0.69302 0.42904 0.0
H219 H 0.45784 0.0777 0.51185 0.0
H220 H 0.37101 0.08889 0.70571 0.0
H221 H 0.31921 0.0256 0.6364 0.0
H222 H 0.39939 0.03608 0.27915 0.0
H223 H 0.41756 1.00355 0.24975 0.0
H224 H 0.44815 0.04884 0.31798 0.0
H225 H 0.4572 1.01207 0.47782 0.0
H226 H 0.42735 0.96677 0.40896 0.0
H227 H 0.41461 0.97335 0.54603 0.0
H228 H 0.27654 0.96133 0.54183 0.0
H229 H 0.24758 0.89893 0.44324 0.0
H230 H 0.36236 0.93103 0.30807 0.0
C231 C 0.42804 0.06664 0.54125 0.0
C232 C 0.41858 0.08828 0.61489 0.0
C233 C 0.37908 0.0728 0.65003 0.0
C234 C 0.34939 0.03697 0.61048 0.0
C235 C 0.35962 0.01697 0.53559 0.0
C236 C 0.39808 0.03107 0.5023 0.0
C237 C 0.40141 1.00402 0.42116 0.0
C238 C 0.41758 0.02435 0.31046 0.0
C239 C 0.42662 0.9881 0.46621 0.0
C240 C 0.35881 0.9724 0.41397 0.0
C241 C 0.33512 0.98044 0.48023 0.0
C242 C 0.29483 0.95483 0.48948 0.0
C243 C 0.27858 0.91953 0.43253 0.0
C244 C 0.30254 0.91013 0.36688 0.0
C245 C 0.34304 0.93752 0.35582 0.0
H246 H 0.29214 0.7184 0.15714 0.0
H247 H 0.16559 0.66305 0.1744 0.0
H248 H 0.16051 0.59966 0.20476 0.0
H249 H 0.29136 0.6321 0.01296 0.0
H250 H 0.33506 0.64157 0.08194 0.0
H251 H 0.3275 0.68119 0.04815 0.0
H252 H 0.33738 0.70121 0.25194 0.0
H253 H 0.34218 0.66001 0.28728 0.0
H254 H 0.3052 0.66702 0.35404 0.0
H255 H 0.16967 0.54685 0.27801 0.0
H256 H 0.1885 0.49687 0.29025 0.0
H257 H 0.30827 0.58271 0.20227 0.0
C258 C 0.26334 0.69256 0.1593 0.0
C259 C 0.22917 0.6956 0.16398 0.0
C260 C 0.19202 0.66122 0.16956 0.0
C261 C 0.18891 0.62526 0.19013 0.0
C262 C 0.22325 0.62401 0.19929 0.0
C263 C 0.25964 0.65597 0.17639 0.0
C264 C 0.29161 0.64564 0.18655 0.0
C265 C 0.31261 0.65038 0.07586 0.0
C266 C 0.32081 0.66994 0.27516 0.0
C267 C 0.26733 0.60315 0.22079 0.0
C268 C 0.22822 0.59203 0.23209 0.0
C269 C 0.20004 0.55482 0.2664 0.0
C270 C 0.21125 0.52684 0.27644 0.0
C271 C 0.24963 0.53576 0.24566 0.0
C272 C 0.27881 0.57511 0.22741 0.0
H273 H 0.59873 0.30534 0.4791 0.0
H274 H 0.51259 0.18366 0.43989 0.0
H275 H 0.56275 0.16587 0.47738 0.0
H276 H 0.67349 0.29365 0.33139 0.0
H277 H 0.71301 0.33177 0.40707 0.0
H278 H 0.66879 0.33317 0.38688 0.0
H279 H 0.66395 0.33827 0.59355 0.0
H280 H 0.70543 0.33255 0.61779 0.0
H281 H 0.65851 0.2993 0.6805 0.0
H282 H 0.62099 0.16094 0.52753 0.0
H283 H 0.68704 0.16921 0.51476 0.0
H284 H 0.73788 0.29408 0.50117 0.0
C285 C 0.59043 0.27498 0.47881 0.0
C286 C 0.55097 0.2454 0.46499 0.0
C287 C 0.54204 0.20634 0.45818 0.0
C288 C 0.57032 0.19604 0.47944 0.0
C289 C 0.60813 0.22545 0.50281 0.0
C290 C 0.61878 0.2642 0.49672 0.0
C291 C 0.66282 0.28999 0.50676 0.0
C292 C 0.68064 0.31361 0.40176 0.0
C293 C 0.67326 0.3166 0.60585 0.0
C294 C 0.67506 0.2598 0.52165 0.0
C295 C 0.64276 0.22274 0.52208 0.0
C296 C 0.64651 0.18984 0.52768 0.0
C297 C 0.68424 0.19481 0.52288 0.0
C298 C 0.71768 0.23229 0.50971 0.0
C299 C 0.71307 0.26524 0.51619 0.0
H300 H 0.49863 0.70861 0.72922 0.0
H301 H 0.44627 0.78114 0.74272 0.0
H302 H 0.38085 0.72249 0.76621 0.0
H303 H 0.42427 0.62772 0.57378 0.0
H304 H 0.43176 0.59442 0.65282 0.0
H305 H 0.47135 0.64363 0.63336 0.0
H306 H 0.47484 0.64601 0.84885 0.0
H307 H 0.43246 0.59802 0.85954 0.0
H308 H 0.43232 0.63822 0.92703 0.0
H309 H 0.31958 0.65369 0.77014 0.0
H310 H 0.27136 0.58357 0.79818 0.0
H311 H 0.36546 0.55789 0.77349 0.0
C312 C 0.47368 0.7124 0.73438 0.0
C313 C 0.47785 0.74965 0.72745 0.0
C314 C 0.44398 0.75296 0.74316 0.0
C315 C 0.40658 0.71971 0.75658 0.0
C316 C 0.40341 0.68323 0.75354 0.0
C317 C 0.4363 0.67955 0.74538 0.0
C318 C 0.42562 0.63737 0.74985 0.0
C319 C 0.43916 0.62521 0.64627 0.0
C320 C 0.44228 0.62945 0.85242 0.0
C321 C 0.38145 0.61772 0.75677 0.0
C322 C 0.36894 0.64444 0.75888 0.0
C323 C 0.32915 0.63258 0.76817 0.0
C324 C 0.30181 0.59261 0.78172 0.0
C325 C 0.31456 0.56519 0.78582 0.0
C326 C 0.35472 0.57805 0.76846 0.0
H327 H 0.81914 0.5104 0.27153 0.0
H328 H 0.69301 0.45289 0.30599 0.0
H329 H 0.68854 0.39032 0.26355 0.0
H330 H 0.8197 0.45905 0.02813 0.0
H331 H 0.86232 0.4566 0.06463 0.0
H332 H 0.85681 0.49653 0.11042 0.0
H333 H 0.86331 0.48154 0.31188 0.0
H334 H 0.87035 0.44244 0.26628 0.0
H335 H 0.83205 0.43303 0.36473 0.0
H336 H 0.69725 0.33563 0.17979 0.0
H337 H 0.71984 0.28988 0.13291 0.0
H338 H 0.84027 0.38417 0.14225 0.0
C339 C 0.79057 0.48511 0.26478 0.0
C340 C 0.75651 0.48734 0.28518 0.0
C341 C 0.71966 0.45247 0.28697 0.0
C342 C 0.71673 0.41676 0.26074 0.0
C343 C 0.75068 0.41653 0.22858 0.0
C344 C 0.78705 0.44974 0.23292 0.0
C345 C 0.8193 0.44178 0.19773 0.0
C346 C 0.84078 0.46489 0.09415 0.0
C347 C 0.84793 0.45017 0.29072 0.0
C348 C 0.79544 0.39883 0.1733 0.0
C349 C 0.75587 0.38493 0.18911 0.0
C350 C 0.72818 0.34621 0.16926 0.0
C351 C 0.74127 0.32054 0.13954 0.0
C352 C 0.7818 0.3336 0.13216 0.0
C353 C 0.80908 0.37357 0.14502 0.0
H354 H 0.37154 0.82503 0.50295 0.0
H355 H 0.28163 0.70765 0.58962 0.0
H356 H 0.33048 0.68622 0.57054 0.0
H357 H 0.41072 0.79549 0.29084 0.0
H358 H 0.46041 0.8344 0.30842 0.0
H359 H 0.42013 0.84129 0.34663 0.0
H360 H 0.44651 0.86032 0.53956 0.0
H361 H 0.48712 0.85366 0.50599 0.0
H362 H 0.45525 0.82804 0.61979 0.0
H363 H 0.38799 0.67664 0.5132 0.0
H364 H 0.45222 0.68292 0.46826 0.0
H365 H 0.50013 0.80464 0.39691 0.0
C366 C 0.36257 0.79521 0.52353 0.0
C367 C 0.32305 0.76816 0.54979 0.0
C368 C 0.31203 0.72909 0.57258 0.0
C369 C 0.33937 0.71651 0.5591 0.0
C370 C 0.37727 0.74341 0.5225 0.0
C371 C 0.38891 0.7821 0.50703 0.0
C372 C 0.43008 0.80494 0.46018 0.0
C373 C 0.43031 0.81989 0.3447 0.0
C374 C 0.45631 0.83864 0.53587 0.0
C375 C 0.44083 0.77353 0.45677 0.0
C376 C 0.40976 0.73801 0.49004 0.0
C377 C 0.41271 0.70459 0.48973 0.0
C378 C 0.44928 0.70838 0.46368 0.0
C379 C 0.48227 0.74517 0.43724 0.0
C380 C 0.47679 0.77723 0.4262 0.0
H381 H 0.59823 0.28603 0.89244 0.0
H382 H 0.56315 0.32695 0.6152 0.0
H383 H 0.62217 0.39006 0.6249 0.0
H384 H 0.63374 0.36953 0.03476 0.0
H385 H 0.67648 0.37195 0.08913 0.0
H386 H 0.63509 0.32545 0.05738 0.0
H387 H 0.67633 0.30842 0.93375 0.0
H388 H 0.72064 0.35427 0.95676 0.0
H389 H 0.70428 0.33994 0.82145 0.0
H390 H 0.68163 0.45169 0.67647 0.0
H391 H 0.73376 0.50715 0.77626 0.0
H392 H 0.73505 0.42768 0.01213 0.0
C393 C 0.60333 0.30803 0.8325 0.0
C394 C 0.57459 0.30133 0.7554 0.0
C395 C 0.58266 0.3312 0.67925 0.0
C396 C 0.61711 0.36737 0.68223 0.0
C397 C 0.64427 0.37338 0.76065 0.0
C398 C 0.63805 0.34447 0.83379 0.0
C399 C 0.67024 0.35989 0.91627 0.0
C400 C 0.65273 0.35637 0.03122 0.0
C401 C 0.69411 0.33924 0.90675 0.0
C402 C 0.6948 0.40206 0.88021 0.0
C403 C 0.67967 0.40902 0.78845 0.0
C404 C 0.69451 0.44647 0.74655 0.0
C405 C 0.72438 0.47779 0.80295 0.0
C406 C 0.73933 0.47142 0.89927 0.0
C407 C 0.72532 0.43301 0.93595 0.0
loop_
_geom_bond_atom_site_label_1
_geom_bond_atom_site_label_2
_geom_bond_distance
_geom_bond_site_symmetry_2
_ccdc_geom_bond_type
O0 Cd1 2.223 . S
O0 C8 1.315 1_554 S
Cd1 O0 2.223 . S
Cd1 O4 2.297 . S
Cd1 O5 2.439 . S
Cd1 O11 2.240 . S
Cd2 O3 2.240 . S
Cd2 O10 2.223 1_556 S
Cd2 O12 2.297 . S
Cd2 O13 2.439 1_556 S
O3 Cd2 2.240 . S
O3 C8 1.279 . S
O4 Cd1 2.297 . S
O4 C6 1.247 . S
O5 Cd1 2.439 . S
O5 C6 1.208 . S
C6 O4 1.247 . S
C6 O5 1.208 . S
C7 O12 1.247 1_554 S
C7 O13 1.208 . S
C8 O0 1.315 1_556 S
C8 O3 1.279 . S
C9 O10 1.315 . S
C9 O11 1.279 . S
O10 Cd2 2.223 1_554 S
O10 C9 1.315 . S
O11 Cd1 2.240 . S
O11 C9 1.279 . S
O12 Cd2 2.297 . S
O12 C7 1.247 1_556 S
O13 Cd2 2.439 1_554 S
O13 C7 1.208 . S
O14 Cd15 2.223 . S
O14 C22 1.315 . S
Cd15 O14 2.223 . S
Cd15 O18 2.297 . S
Cd15 O19 2.439 . S
Cd15 O25 2.240 . S
Cd16 O17 2.240 . S
Cd16 O24 2.223 . S
Cd16 O26 2.297 . S
Cd16 O27 2.439 . S
O17 Cd16 2.240 . S
O17 C22 1.279 . S
O18 Cd15 2.297 . S
O18 C20 1.247 . S
O19 Cd15 2.439 . S
O19 C20 1.208 . S
C20 O18 1.247 . S
C20 O19 1.208 . S
C21 O26 1.247 . S
C21 O27 1.208 . S
C22 O14 1.315 . S
C22 O17 1.279 . S
C23 O24 1.315 . S
C23 O25 1.279 . S
O24 Cd16 2.223 . S
O24 C23 1.315 . S
O25 Cd15 2.240 . S
O25 C23 1.279 . S
O26 Cd16 2.297 . S
O26 C21 1.247 . S
O27 Cd16 2.439 . S
O27 C21 1.208 . S
O28 Cd29 2.223 . S
O28 C36 1.315 . S
Cd29 O28 2.223 . S
Cd29 O32 2.297 . S
Cd29 O33 2.439 . S
Cd29 O39 2.240 . S
Cd30 O31 2.240 . S
Cd30 O38 2.223 . S
Cd30 O40 2.297 . S
Cd30 O41 2.439 . S
O31 Cd30 2.240 . S
O31 C36 1.279 . S
O32 Cd29 2.297 . S
O32 C34 1.247 . S
O33 Cd29 2.439 . S
O33 C34 1.208 . S
C34 O32 1.247 . S
C34 O33 1.208 . S
C35 O40 1.247 . S
C35 O41 1.208 . S
C36 O28 1.315 . S
C36 O31 1.279 . S
C37 O38 1.315 . S
C37 O39 1.279 . S
O38 Cd30 2.223 . S
O38 C37 1.315 . S
O39 Cd29 2.240 . S
O39 C37 1.279 . S
O40 Cd30 2.297 . S
O40 C35 1.247 . S
O41 Cd30 2.439 . S
O41 C35 1.208 . S
O42 Cd43 2.223 . S
O42 C50 1.315 1_554 S
Cd43 O42 2.223 . S
Cd43 O46 2.297 . S
Cd43 O47 2.439 . S
Cd43 O53 2.240 . S
Cd44 O45 2.240 . S
Cd44 O52 2.223 1_556 S
Cd44 O54 2.297 . S
Cd44 O55 2.439 1_556 S
O45 Cd44 2.240 . S
O45 C50 1.279 . S
O46 Cd43 2.297 . S
O46 C48 1.247 . S
O47 Cd43 2.439 . S
O47 C48 1.208 . S
C48 O46 1.247 . S
C48 O47 1.208 . S
C49 O54 1.247 1_554 S
C49 O55 1.208 . S
C50 O42 1.315 1_556 S
C50 O45 1.279 . S
C51 O52 1.315 . S
C51 O53 1.279 . S
O52 Cd44 2.223 1_554 S
O52 C51 1.315 . S
O53 Cd43 2.240 . S
O53 C51 1.279 . S
O54 Cd44 2.297 . S
O54 C49 1.247 1_556 S
O55 Cd44 2.439 1_554 S
O55 C49 1.208 . S
O56 Cd57 2.223 . S
O56 C64 1.315 . S
Cd57 O56 2.223 . S
Cd57 O60 2.297 . S
Cd57 O61 2.439 . S
Cd57 O67 2.240 . S
Cd58 O59 2.240 . S
Cd58 O66 2.223 . S
Cd58 O68 2.297 . S
Cd58 O69 2.439 . S
O59 Cd58 2.240 . S
O59 C64 1.279 . S
O60 Cd57 2.297 . S
O60 C62 1.247 . S
O61 Cd57 2.439 . S
O61 C62 1.208 . S
C62 O60 1.247 . S
C62 O61 1.208 . S
C63 O68 1.247 . S
C63 O69 1.208 . S
C64 O56 1.315 . S
C64 O59 1.279 . S
C65 O66 1.315 . S
C65 O67 1.279 . S
O66 Cd58 2.223 . S
O66 C65 1.315 . S
O67 Cd57 2.240 . S
O67 C65 1.279 . S
O68 Cd58 2.297 . S
O68 C63 1.247 . S
O69 Cd58 2.439 . S
O69 C63 1.208 . S
O70 Cd71 2.223 . S
O70 C78 1.315 . S
Cd71 O70 2.223 . S
Cd71 O74 2.297 . S
Cd71 O75 2.439 . S
Cd71 O81 2.240 . S
Cd72 O73 2.240 . S
Cd72 O80 2.223 . S
Cd72 O82 2.297 . S
Cd72 O83 2.439 . S
O73 Cd72 2.240 . S
O73 C78 1.279 . S
O74 Cd71 2.297 . S
O74 C76 1.247 . S
O75 Cd71 2.439 . S
O75 C76 1.208 . S
C76 O74 1.247 . S
C76 O75 1.208 . S
C77 O82 1.247 . S
C77 O83 1.208 . S
C78 O70 1.315 . S
C78 O73 1.279 . S
C79 O80 1.315 . S
C79 O81 1.279 . S
O80 Cd72 2.223 . S
O80 C79 1.315 . S
O81 Cd71 2.240 . S
O81 C79 1.279 . S
O82 Cd72 2.297 . S
O82 C77 1.247 . S
O83 Cd72 2.439 . S
O83 C77 1.208 . S
H84 C96 0.930 . S
H85 C98 0.930 . S
H86 C99 0.930 . S
H87 C103 0.959 . S
H88 C103 0.959 . S
H89 C103 0.961 . S
H90 C104 0.960 . S
H91 C104 0.961 . S
H92 C104 0.959 . S
H93 C107 0.929 . S
H94 C108 0.931 . S
H95 C110 0.930 . S
C96 H84 0.930 . S
C96 C97 1.399 . S
C96 C101 1.399 . S
C97 C96 1.399 . S
C97 C98 1.376 1_556 S
C98 H85 0.930 . S
C98 C97 1.376 1_554 S
C98 C99 1.388 . S
C99 H86 0.930 . S
C99 C98 1.388 . S
C99 C100 1.390 1_554 S
C100 C99 1.390 1_556 S
C100 C101 1.394 . S
C100 C106 1.465 . S
C101 C96 1.399 . S
C101 C100 1.394 . S
C101 C102 1.516 . S
C102 C101 1.516 . S
C102 C103 1.502 . S
C102 C104 1.561 . S
C102 C105 1.526 . S
C103 H87 0.959 . S
C103 H88 0.959 . S
C103 H89 0.961 . S
C103 C102 1.502 . S
C104 H90 0.960 . S
C104 H91 0.961 . S
C104 H92 0.959 . S
C104 C102 1.561 . S
C105 C102 1.526 . S
C105 C106 1.396 . S
C105 C110 1.390 . S
C106 C100 1.465 . S
C106 C105 1.396 . S
C106 C107 1.399 . S
C107 H93 0.929 . S
C107 C106 1.399 . S
C107 C108 1.385 . S
C108 H94 0.931 . S
C108 C107 1.385 . S
C108 C109 1.389 . S
C109 C108 1.389 . S
C109 C110 1.387 . S
C110 H95 0.930 . S
C110 C105 1.390 . S
C110 C109 1.387 . S
H111 C123 0.930 . S
H112 C125 0.930 . S
H113 C126 0.930 . S
H114 C130 0.959 . S
H115 C130 0.959 1_556 S
H116 C130 0.961 . S
H117 C131 0.960 . S
H118 C131 0.961 . S
H119 C131 0.959 . S
H120 C134 0.929 . S
H121 C135 0.931 . S
H122 C137 0.930 1_556 S
C123 H111 0.930 . S
C123 C124 1.399 . S
C123 C128 1.399 . S
C124 C123 1.399 . S
C124 C125 1.376 . S
C125 H112 0.930 . S
C125 C124 1.376 . S
C125 C126 1.388 . S
C126 H113 0.930 . S
C126 C125 1.388 . S
C126 C127 1.390 . S
C127 C126 1.390 . S
C127 C128 1.394 . S
C127 C133 1.465 1_655 S
C128 C123 1.399 . S
C128 C127 1.394 . S
C128 C129 1.516 . S
C129 C128 1.516 . S
C129 C130 1.502 . S
C129 C131 1.561 1_554 S
C129 C132 1.526 1_655 S
C130 H114 0.959 . S
C130 H115 0.959 1_554 S
C130 H116 0.961 . S
C130 C129 1.502 . S
C131 H117 0.960 . S
C131 H118 0.961 . S
C131 H119 0.959 . S
C131 C129 1.561 1_556 S
C132 C129 1.526 1_455 S
C132 C133 1.396 . S
C132 C137 1.390 . S
C133 C127 1.465 1_455 S
C133 C132 1.396 . S
C133 C134 1.399 . S
C134 H120 0.929 . S
C134 C133 1.399 . S
C134 C135 1.385 . S
C135 H121 0.931 . S
C135 C134 1.385 . S
C135 C136 1.389 . S
C136 C135 1.389 . S
C136 C137 1.387 . S
C137 H122 0.930 1_554 S
C137 C132 1.390 . S
C137 C136 1.387 . S
H138 C150 0.930 . S
H139 C152 0.930 . S
H140 C153 0.930 . S
H141 C157 0.959 . S
H142 C157 0.959 . S
H143 C157 0.961 . S
H144 C158 0.960 . S
H145 C158 0.961 . S
H146 C158 0.959 . S
H147 C161 0.929 . S
H148 C162 0.931 . S
H149 C164 0.930 . S
C150 H138 0.930 . S
C150 C151 1.399 . S
C150 C155 1.399 . S
C151 C150 1.399 . S
C151 C152 1.376 . S
C152 H139 0.930 . S
C152 C151 1.376 . S
C152 C153 1.388 . S
C153 H140 0.930 . S
C153 C152 1.388 . S
C153 C154 1.390 . S
C154 C153 1.390 . S
C154 C155 1.394 . S
C154 C160 1.465 1_545 S
C155 C150 1.399 . S
C155 C154 1.394 . S
C155 C156 1.516 . S
C156 C155 1.516 . S
C156 C157 1.502 . S
C156 C158 1.561 . S
C156 C159 1.526 1_545 S
C157 H141 0.959 . S
C157 H142 0.959 . S
C157 H143 0.961 . S
C157 C156 1.502 . S
C158 H144 0.960 . S
C158 H145 0.961 . S
C158 H146 0.959 . S
C158 C156 1.561 . S
C159 C156 1.526 1_565 S
C159 C160 1.396 . S
C159 C164 1.390 . S
C160 C154 1.465 1_565 S
C160 C159 1.396 . S
C160 C161 1.399 . S
C161 H147 0.929 . S
C161 C160 1.399 . S
C161 C162 1.385 . S
C162 H148 0.931 . S
C162 C161 1.385 . S
C162 C163 1.389 . S
C163 C162 1.389 . S
C163 C164 1.387 . S
C164 H149 0.930 . S
C164 C159 1.390 . S
C164 C163 1.387 . S
H165 C177 0.930 . S
H166 C179 0.930 . S
H167 C180 0.930 . S
H168 C184 0.959 . S
H169 C184 0.959 . S
H170 C184 0.961 . S
H171 C185 0.960 . S
H172 C185 0.961 . S
H173 C185 0.959 1_556 S
H174 C188 0.929 . S
H175 C189 0.931 . S
H176 C191 0.930 . S
C177 H165 0.930 . S
C177 C178 1.399 1_554 S
C177 C182 1.399 1_554 S
C178 C177 1.399 1_556 S
C178 C179 1.376 . S
C179 H166 0.930 . S
C179 C178 1.376 . S
C179 C180 1.388 . S
C180 H167 0.930 . S
C180 C179 1.388 . S
C180 C181 1.390 . S
C181 C180 1.390 . S
C181 C182 1.394 . S
C181 C187 1.465 . S
C182 C177 1.399 1_556 S
C182 C181 1.394 . S
C182 C183 1.516 . S
C183 C182 1.516 . S
C183 C184 1.502 1_556 S
C183 C185 1.561 1_556 S
C183 C186 1.526 . S
C184 H168 0.959 . S
C184 H169 0.959 . S
C184 H170 0.961 . S
C184 C183 1.502 1_554 S
C185 H171 0.960 . S
C185 H172 0.961 . S
C185 H173 0.959 1_554 S
C185 C183 1.561 1_554 S
C186 C183 1.526 . S
C186 C187 1.396 . S
C186 C191 1.390 . S
C187 C181 1.465 . S
C187 C186 1.396 . S
C187 C188 1.399 . S
C188 H174 0.929 . S
C188 C187 1.399 . S
C188 C189 1.385 . S
C189 H175 0.931 . S
C189 C188 1.385 . S
C189 C190 1.389 . S
C190 C189 1.389 . S
C190 C191 1.387 . S
C191 H176 0.930 . S
C191 C186 1.390 . S
C191 C190 1.387 . S
H192 C204 0.930 1_556 S
H193 C206 0.930 . S
H194 C207 0.930 . S
H195 C211 0.959 . S
H196 C211 0.959 . S
H197 C211 0.961 . S
H198 C212 0.960 . S
H199 C212 0.961 . S
H200 C212 0.959 . S
H201 C215 0.929 . S
H202 C216 0.931 . S
H203 C218 0.930 . S
C204 H192 0.930 1_554 S
C204 C205 1.399 . S
C204 C209 1.399 . S
C205 C204 1.399 . S
C205 C206 1.376 . S
C206 H193 0.930 . S
C206 C205 1.376 . S
C206 C207 1.388 . S
C207 H194 0.930 . S
C207 C206 1.388 . S
C207 C208 1.390 . S
C208 C207 1.390 . S
C208 C209 1.394 . S
C208 C214 1.465 1_655 S
C209 C204 1.399 . S
C209 C208 1.394 . S
C209 C210 1.516 1_655 S
C210 C209 1.516 1_455 S
C210 C211 1.502 . S
C210 C212 1.561 1_554 S
C210 C213 1.526 . S
C211 H195 0.959 . S
C211 H196 0.959 . S
C211 H197 0.961 . S
C211 C210 1.502 . S
C212 H198 0.960 . S
C212 H199 0.961 . S
C212 H200 0.959 . S
C212 C210 1.561 1_556 S
C213 C210 1.526 . S
C213 C214 1.396 . S
C213 C218 1.390 . S
C214 C208 1.465 1_455 S
C214 C213 1.396 . S
C214 C215 1.399 . S
C215 H201 0.929 . S
C215 C214 1.399 . S
C215 C216 1.385 . S
C216 H202 0.931 . S
C216 C215 1.385 . S
C216 C217 1.389 . S
C217 C216 1.389 . S
C217 C218 1.387 . S
C218 H203 0.930 . S
C218 C213 1.390 . S
C218 C217 1.387 . S
H219 C231 0.930 . S
H220 C233 0.930 . S
H221 C234 0.930 . S
H222 C238 0.959 . S
H223 C238 0.959 . S
H224 C238 0.961 . S
H225 C239 0.960 . S
H226 C239 0.961 . S
H227 C239 0.959 . S
H228 C242 0.929 . S
H229 C243 0.931 . S
H230 C245 0.930 . S
C231 H219 0.930 . S
C231 C232 1.399 . S
C231 C236 1.399 . S
C232 C231 1.399 . S
C232 C233 1.376 . S
C233 H220 0.930 . S
C233 C232 1.376 . S
C233 C234 1.388 . S
C234 H221 0.930 . S
C234 C233 1.388 . S
C234 C235 1.390 . S
C235 C234 1.390 . S
C235 C236 1.394 . S
C235 C241 1.465 1_545 S
C236 C231 1.399 . S
C236 C235 1.394 . S
C236 C237 1.516 . S
C237 C236 1.516 . S
C237 C238 1.502 . S
C237 C239 1.561 . S
C237 C240 1.526 1_545 S
C238 H222 0.959 . S
C238 H223 0.959 . S
C238 H224 0.961 . S
C238 C237 1.502 . S
C239 H225 0.960 . S
C239 H226 0.961 . S
C239 H227 0.959 . S
C239 C237 1.561 . S
C240 C237 1.526 1_565 S
C240 C241 1.396 . S
C240 C245 1.390 . S
C241 C235 1.465 1_565 S
C241 C240 1.396 . S
C241 C242 1.399 . S
C242 H228 0.929 . S
C242 C241 1.399 . S
C242 C243 1.385 . S
C243 H229 0.931 . S
C243 C242 1.385 . S
C243 C244 1.389 . S
C244 C243 1.389 . S
C244 C245 1.387 . S
C245 H230 0.930 . S
C245 C240 1.390 . S
C245 C244 1.387 . S
H246 C258 0.930 . S
H247 C260 0.930 . S
H248 C261 0.930 . S
H249 C265 0.959 . S
H250 C265 0.959 . S
H251 C265 0.961 . S
H252 C266 0.960 . S
H253 C266 0.961 . S
H254 C266 0.959 . S
H255 C269 0.929 . S
H256 C270 0.931 . S
H257 C272 0.930 . S
C258 H246 0.930 . S
C258 C259 1.399 . S
C258 C263 1.399 . S
C259 C258 1.399 . S
C259 C260 1.376 . S
C260 H247 0.930 . S
C260 C259 1.376 . S
C260 C261 1.388 . S
C261 H248 0.930 . S
C261 C260 1.388 . S
C261 C262 1.390 . S
C262 C261 1.390 . S
C262 C263 1.394 . S
C262 C268 1.465 . S
C263 C258 1.399 . S
C263 C262 1.394 . S
C263 C264 1.516 . S
C264 C263 1.516 . S
C264 C265 1.502 . S
C264 C266 1.561 . S
C264 C267 1.526 . S
C265 H249 0.959 . S
C265 H250 0.959 . S
C265 H251 0.961 . S
C265 C264 1.502 . S
C266 H252 0.960 . S
C266 H253 0.961 . S
C266 H254 0.959 . S
C266 C264 1.561 . S
C267 C264 1.526 . S
C267 C268 1.396 . S
C267 C272 1.390 . S
C268 C262 1.465 . S
C268 C267 1.396 . S
C268 C269 1.399 . S
C269 H255 0.929 . S
C269 C268 1.399 . S
C269 C270 1.385 . S
C270 H256 0.931 . S
C270 C269 1.385 . S
C270 C271 1.389 . S
C271 C270 1.389 . S
C271 C272 1.387 . S
C272 H257 0.930 . S
C272 C267 1.390 . S
C272 C271 1.387 . S
H273 C285 0.930 . S
H274 C287 0.930 . S
H275 C288 0.930 . S
H276 C292 0.959 . S
H277 C292 0.959 . S
H278 C292 0.961 . S
H279 C293 0.960 . S
H280 C293 0.961 . S
H281 C293 0.959 . S
H282 C296 0.929 . S
H283 C297 0.931 . S
H284 C299 0.930 . S
C285 H273 0.930 . S
C285 C286 1.399 . S
C285 C290 1.399 . S
C286 C285 1.399 . S
C286 C287 1.376 . S
C287 H274 0.930 . S
C287 C286 1.376 . S
C287 C288 1.388 . S
C288 H275 0.930 . S
C288 C287 1.388 . S
C288 C289 1.390 . S
C289 C288 1.390 . S
C289 C290 1.394 . S
C289 C295 1.465 . S
C290 C285 1.399 . S
C290 C289 1.394 . S
C290 C291 1.516 . S
C291 C290 1.516 . S
C291 C292 1.502 . S
C291 C293 1.561 . S
C291 C294 1.526 . S
C292 H276 0.959 . S
C292 H277 0.959 . S
C292 H278 0.961 . S
C292 C291 1.502 . S
C293 H279 0.960 . S
C293 H280 0.961 . S
C293 H281 0.959 . S
C293 C291 1.561 . S
C294 C291 1.526 . S
C294 C295 1.396 . S
C294 C299 1.390 . S
C295 C289 1.465 . S
C295 C294 1.396 . S
C295 C296 1.399 . S
C296 H282 0.929 . S
C296 C295 1.399 . S
C296 C297 1.385 . S
C297 H283 0.931 . S
C297 C296 1.385 . S
C297 C298 1.389 . S
C298 C297 1.389 . S
C298 C299 1.387 . S
C299 H284 0.930 . S
C299 C294 1.390 . S
C299 C298 1.387 . S
H300 C312 0.930 . S
H301 C314 0.930 1_554 S
H302 C315 0.930 1_554 S
H303 C319 0.959 . S
H304 C319 0.959 . S
H305 C319 0.961 . S
H306 C320 0.960 . S
H307 C320 0.961 . S
H308 C320 0.959 . S
H309 C323 0.929 1_554 S
H310 C324 0.931 1_554 S
H311 C326 0.930 . S
C312 H300 0.930 . S
C312 C313 1.399 . S
C312 C317 1.399 . S
C313 C312 1.399 . S
C313 C314 1.376 . S
C314 H301 0.930 1_556 S
C314 C313 1.376 . S
C314 C315 1.388 . S
C315 H302 0.930 1_556 S
C315 C314 1.388 . S
C315 C316 1.390 . S
C316 C315 1.390 . S
C316 C317 1.394 . S
C316 C322 1.465 . S
C317 C312 1.399 . S
C317 C316 1.394 . S
C317 C318 1.516 . S
C318 C317 1.516 . S
C318 C319 1.502 . S
C318 C320 1.561 . S
C318 C321 1.526 . S
C319 H303 0.959 . S
C319 H304 0.959 . S
C319 H305 0.961 . S
C319 C318 1.502 . S
C320 H306 0.960 . S
C320 H307 0.961 . S
C320 H308 0.959 . S
C320 C318 1.561 . S
C321 C318 1.526 . S
C321 C322 1.396 . S
C321 C326 1.390 . S
C322 C316 1.465 . S
C322 C321 1.396 . S
C322 C323 1.399 . S
C323 H309 0.929 1_556 S
C323 C322 1.399 . S
C323 C324 1.385 . S
C324 H310 0.931 1_556 S
C324 C323 1.385 . S
C324 C325 1.389 . S
C325 C324 1.389 . S
C325 C326 1.387 . S
C326 H311 0.930 . S
C326 C321 1.390 . S
C326 C325 1.387 . S
H327 C339 0.930 . S
H328 C341 0.930 . S
H329 C342 0.930 . S
H330 C346 0.959 1_554 S
H331 C346 0.959 . S
H332 C346 0.961 . S
H333 C347 0.960 . S
H334 C347 0.961 . S
H335 C347 0.959 1_554 S
H336 C350 0.929 . S
H337 C351 0.931 . S
H338 C353 0.930 . S
C339 H327 0.930 . S
C339 C340 1.399 . S
C339 C344 1.399 . S
C340 C339 1.399 . S
C340 C341 1.376 . S
C341 H328 0.930 . S
C341 C340 1.376 . S
C341 C342 1.388 . S
C342 H329 0.930 . S
C342 C341 1.388 . S
C342 C343 1.390 . S
C343 C342 1.390 . S
C343 C344 1.394 . S
C343 C349 1.465 . S
C344 C339 1.399 . S
C344 C343 1.394 . S
C344 C345 1.516 . S
C345 C344 1.516 . S
C345 C346 1.502 1_554 S
C345 C347 1.561 1_554 S
C345 C348 1.526 . S
C346 H330 0.959 1_556 S
C346 H331 0.959 . S
C346 H332 0.961 . S
C346 C345 1.502 1_556 S
C347 H333 0.960 . S
C347 H334 0.961 . S
C347 H335 0.959 1_556 S
C347 C345 1.561 1_556 S
C348 C345 1.526 . S
C348 C349 1.396 . S
C348 C353 1.390 . S
C349 C343 1.465 . S
C349 C348 1.396 . S
C349 C350 1.399 . S
C350 H336 0.929 . S
C350 C349 1.399 . S
C350 C351 1.385 . S
C351 H337 0.931 . S
C351 C350 1.385 . S
C351 C352 1.389 . S
C352 C351 1.389 . S
C352 C353 1.387 . S
C353 H338 0.930 . S
C353 C348 1.390 . S
C353 C352 1.387 . S
H354 C366 0.930 . S
H355 C368 0.930 . S
H356 C369 0.930 . S
H357 C373 0.959 . S
H358 C373 0.959 . S
H359 C373 0.961 . S
H360 C374 0.960 . S
H361 C374 0.961 . S
H362 C374 0.959 . S
H363 C377 0.929 . S
H364 C378 0.931 . S
H365 C380 0.930 . S
C366 H354 0.930 . S
C366 C367 1.399 . S
C366 C371 1.399 . S
C367 C366 1.399 . S
C367 C368 1.376 . S
C368 H355 0.930 . S
C368 C367 1.376 . S
C368 C369 1.388 . S
C369 H356 0.930 . S
C369 C368 1.388 . S
C369 C370 1.390 . S
C370 C369 1.390 . S
C370 C371 1.394 . S
C370 C376 1.465 . S
C371 C366 1.399 . S
C371 C370 1.394 . S
C371 C372 1.516 . S
C372 C371 1.516 . S
C372 C373 1.502 . S
C372 C374 1.561 . S
C372 C375 1.526 . S
C373 H357 0.959 . S
C373 H358 0.959 . S
C373 H359 0.961 . S
C373 C372 1.502 . S
C374 H360 0.960 . S
C374 H361 0.961 . S
C374 H362 0.959 . S
C374 C372 1.561 . S
C375 C372 1.526 . S
C375 C376 1.396 . S
C375 C380 1.390 . S
C376 C370 1.465 . S
C376 C375 1.396 . S
C376 C377 1.399 . S
C377 H363 0.929 . S
C377 C376 1.399 . S
C377 C378 1.385 . S
C378 H364 0.931 . S
C378 C377 1.385 . S
C378 C379 1.389 . S
C379 C378 1.389 . S
C379 C380 1.387 . S
C380 H365 0.930 . S
C380 C375 1.390 . S
C380 C379 1.387 . S
H381 C393 0.930 . S
H382 C395 0.930 . S
H383 C396 0.930 . S
H384 C400 0.959 . S
H385 C400 0.959 . S
H386 C400 0.961 . S
H387 C401 0.960 . S
H388 C401 0.961 . S
H389 C401 0.959 1_556 S
H390 C404 0.929 . S
H391 C405 0.931 . S
H392 C407 0.930 1_554 S
C393 H381 0.930 . S
C393 C394 1.399 . S
C393 C398 1.399 . S
C394 C393 1.399 . S
C394 C395 1.376 . S
C395 H382 0.930 . S
C395 C394 1.376 . S
C395 C396 1.388 . S
C396 H383 0.930 . S
C396 C395 1.388 . S
C396 C397 1.390 . S
C397 C396 1.390 . S
C397 C398 1.394 . S
C397 C403 1.465 . S
C398 C393 1.399 . S
C398 C397 1.394 . S
C398 C399 1.516 . S
C399 C398 1.516 . S
C399 C400 1.502 1_556 S
C399 C401 1.561 1_556 S
C399 C402 1.526 . S
C400 H384 0.959 . S
C400 H385 0.959 . S
C400 H386 0.961 . S
C400 C399 1.502 1_554 S
C401 H387 0.960 . S
C401 H388 0.961 . S
C401 H389 0.959 1_554 S
C401 C399 1.561 1_554 S
C402 C399 1.526 . S
C402 C403 1.396 . S
C402 C407 1.390 . S
C403 C397 1.465 . S
C403 C402 1.396 . S
C403 C404 1.399 . S
C404 H390 0.929 . S
C404 C403 1.399 . S
C404 C405 1.385 . S
C405 H391 0.931 . S
C405 C404 1.385 . S
C405 C406 1.389 . S
C406 C405 1.389 . S
C406 C407 1.387 . S
C407 H392 0.930 1_556 S
C407 C402 1.390 . S
C407 C406 1.387 . S
C97 C6 1.455 1_556 S
C109 C77 1.442 . S
C124 C20 1.455 . S
C136 C7 1.442 . S
C151 C21 1.468 . S
C163 C34 1.449 . S
C178 C48 1.469 1_556 S
C190 C35 1.490 . S
C205 C49 1.488 . S
C217 C62 1.501 . S
C232 C76 1.460 . S
C244 C63 1.444 . S
C259 C64 1.217 . S
C271 C9 1.186 . S
C286 C78 1.167 . S
C298 C23 1.261 . S
C313 C37 1.262 . S
C325 C8 1.168 . S
C340 C51 1.272 . S
C352 C22 1.168 . S
C367 C65 1.221 . S
C379 C36 1.298 . S
C394 C79 1.181 . S
C406 C50 1.294 . S
