# Generated by pormake.
# Topology wkb, (5)-cn, num edge types: 1
# Building blocks:
#     Node 0, Type 0, BuildingBlock: XOMCOT_clean_sbu_0, # of connection points: 5
#     Node 1, Type 0, BuildingBlock: XOMCOT_clean_sbu_0, # of connection points: 5
#     Node 2, Type 0, BuildingBlock: XOMCOT_clean_sbu_0, # of connection points: 5
#     Node 3, Type 0, BuildingBlock: XOMCOT_clean_sbu_0, # of connection points: 5
#     Node 4, Type 0, BuildingBlock: XOMCOT_clean_sbu_0, # of connection points: 5
#     Node 5, Type 0, BuildingBlock: XOMCOT_clean_sbu_0, # of connection points: 5
#     Node 6, Type 0, BuildingBlock: XOMCOT_clean_sbu_0, # of connection points: 5
#     Node 7, Type 0, BuildingBlock: XOMCOT_clean_sbu_0, # of connection points: 5
#     Node 8, Type 0, BuildingBlock: XOMCOT_clean_sbu_0, # of connection points: 5
#     Node 9, Type 0, BuildingBlock: XOMCOT_clean_sbu_0, # of connection points: 5
#     Node 10, Type 0, BuildingBlock: XOMCOT_clean_sbu_0, # of connection points: 5
#     Node 11, Type 0, BuildingBlock: XOMCOT_clean_sbu_0, # of connection points: 5
#     Edge 12, Type (0, 0), BuildingBlock: EZIPEK_clean_linker_0, # of connection points: 2
#     Edge 13, Type (0, 0), BuildingBlock: EZIPEK_clean_linker_0, # of connection points: 2
#     Edge 14, Type (0, 0), BuildingBlock: EZIPEK_clean_linker_0, # of connection points: 2
#     Edge 15, Type (0, 0), BuildingBlock: EZIPEK_clean_linker_0, # of connection points: 2
#     Edge 16, Type (0, 0), BuildingBlock: EZIPEK_clean_linker_0, # of connection points: 2
#     Edge 17, Type (0, 0), BuildingBlock: EZIPEK_clean_linker_0, # of connection points: 2
#     Edge 18, Type (0, 0), BuildingBlock: EZIPEK_clean_linker_0, # of connection points: 2
#     Edge 19, Type (0, 0), BuildingBlock: EZIPEK_clean_linker_0, # of connection points: 2
#     Edge 20, Type (0, 0), BuildingBlock: EZIPEK_clean_linker_0, # of connection points: 2
#     Edge 21, Type (0, 0), BuildingBlock: EZIPEK_clean_linker_0, # of connection points: 2
#     Edge 22, Type (0, 0), BuildingBlock: EZIPEK_clean_linker_0, # of connection points: 2
#     Edge 23, Type (0, 0), BuildingBlock: EZIPEK_clean_linker_0, # of connection points: 2
#     Edge 24, Type (0, 0), BuildingBlock: EZIPEK_clean_linker_0, # of connection points: 2
#     Edge 25, Type (0, 0), BuildingBlock: EZIPEK_clean_linker_0, # of connection points: 2
#     Edge 26, Type (0, 0), BuildingBlock: EZIPEK_clean_linker_0, # of connection points: 2
#     Edge 27, Type (0, 0), BuildingBlock: EZIPEK_clean_linker_0, # of connection points: 2
#     Edge 28, Type (0, 0), BuildingBlock: EZIPEK_clean_linker_0, # of connection points: 2
#     Edge 29, Type (0, 0), BuildingBlock: EZIPEK_clean_linker_0, # of connection points: 2
#     Edge 30, Type (0, 0), BuildingBlock: EZIPEK_clean_linker_0, # of connection points: 2
#     Edge 31, Type (0, 0), BuildingBlock: EZIPEK_clean_linker_0, # of connection points: 2
#     Edge 32, Type (0, 0), BuildingBlock: EZIPEK_clean_linker_0, # of connection points: 2
#     Edge 33, Type (0, 0), BuildingBlock: EZIPEK_clean_linker_0, # of connection points: 2
#     Edge 34, Type (0, 0), BuildingBlock: EZIPEK_clean_linker_0, # of connection points: 2
#     Edge 35, Type (0, 0), BuildingBlock: EZIPEK_clean_linker_0, # of connection points: 2
#     Edge 36, Type (0, 0), BuildingBlock: EZIPEK_clean_linker_0, # of connection points: 2
#     Edge 37, Type (0, 0), BuildingBlock: EZIPEK_clean_linker_0, # of connection points: 2
#     Edge 38, Type (0, 0), BuildingBlock: EZIPEK_clean_linker_0, # of connection points: 2
#     Edge 39, Type (0, 0), BuildingBlock: EZIPEK_clean_linker_0, # of connection points: 2
#     Edge 40, Type (0, 0), BuildingBlock: EZIPEK_clean_linker_0, # of connection points: 2
#     Edge 41, Type (0, 0), BuildingBlock: EZIPEK_clean_linker_0, # of connection points: 2
# Relax obj value: 0.126
# Max RMSD: 0.149
# Mean RMSD: 0.149
data_MOF--net-wkb--node1-XOMCOT_clean_sbu_0--edge1-EZIPEK_clean_linker_0
_symmetry_space_group_name_H-M    P1
_symmetry_Int_Tables_number       1
_symmetry_cell_setting            triclinic
loop_
_symmetry_equiv_pos_as_xyz
'x, y, z'
_cell_length_a     34.524501
_cell_length_b     34.423709
_cell_length_c     28.359749
_cell_angle_alpha  90.084188
_cell_angle_beta   90.123866
_cell_angle_gamma 120.39928
loop_
_atom_site_label
_atom_site_type_symbol
_atom_site_fract_x
_atom_site_fract_y
_atom_site_fract_z
_atom_type_partial_charge
Co0 Co 0.07541 0.33166 0.07255 0.0
C1 C 1.05806 0.33869 0.972 0.0
C2 C 1.01488 0.27171 0.99744 0.0
C3 C 1.0111 0.27131 0.94918 0.0
N4 N 1.04445 0.31403 0.01205 0.0
N5 N 1.03846 0.31334 0.93324 0.0
H6 H 0.08479 0.3735 0.97059 0.0
H7 H 0.99933 0.24211 0.01946 0.0
C8 C 0.16993 0.34745 0.045 0.0
O9 O 0.19136 0.37282 0.08143 0.0
N10 N 0.10642 0.34872 0.13263 0.0
C11 C 0.10725 0.37907 0.16334 0.0
C12 C 0.13516 0.38374 0.20041 0.0
C13 C 0.1319 0.33372 0.15253 0.0
N14 N 0.15144 0.35599 0.19281 0.0
C15 C 0.06162 0.40511 0.05614 0.0
C16 C 0.14983 0.47426 0.06265 0.0
C17 C 0.11556 0.48474 0.06233 0.0
C18 C 0.07113 0.44967 0.05761 0.0
C19 C 0.13879 0.42904 0.06141 0.0
N20 N 0.095 0.39492 0.05964 0.0
H21 H 1.02693 0.37842 0.05421 0.0
H22 H 0.16549 0.42205 0.06445 0.0
H23 H 0.09014 0.39778 0.15825 0.0
H24 H 0.1382 0.30892 0.13661 0.0
O25 O 1.02023 0.31663 0.10522 0.0
O26 O 1.04407 0.26885 0.09285 0.0
O27 O 0.12794 0.33243 0.03812 0.0
C28 C 1.01334 0.27615 0.11024 0.0
H29 H 0.99184 0.2419 0.92714 0.0
H30 H 0.14502 0.40767 0.22917 0.0
H31 H 0.18462 0.50069 0.06607 0.0
H32 H 1.04383 0.45661 0.0568 0.0
Co33 Co 0.77544 0.05485 0.23977 0.0
C34 C 0.76532 1.03825 0.13678 0.0
C35 C 0.71487 0.98104 0.17449 0.0
C36 C 0.70753 0.97223 0.12682 0.0
N37 N 0.75135 1.02244 0.18079 0.0
N38 N 0.73933 1.00831 0.1036 0.0
H39 H 0.79326 0.07121 0.12852 0.0
H40 H 0.69451 0.95874 0.20239 0.0
C41 C 0.85253 0.14875 0.21181 0.0
O42 O 0.84804 0.16754 0.25004 0.0
N43 N 0.7991 0.08713 0.29876 0.0
C44 C 0.778 0.10104 0.32835 0.0
C45 C 0.80732 0.12665 0.36348 0.0
C46 C 0.84047 0.10281 0.31769 0.0
N47 N 0.84673 0.12836 0.35641 0.0
C48 C 0.68794 0.04347 0.24402 0.0
C49 C 0.70952 0.1316 0.23091 0.0
C50 C 0.66517 0.09917 0.24196 0.0
C51 C 0.6544 0.05457 0.2475 0.0
C52 C 0.74223 0.11891 0.22726 0.0
N53 N 0.73172 0.07546 0.23544 0.0
H54 H 0.67842 1.00881 0.24945 0.0
H55 H 0.77563 0.14449 0.21896 0.0
H56 H 0.74385 0.09385 0.32457 0.0
H57 H 0.86578 0.09684 0.30277 0.0
O58 O 0.73895 1.00024 0.27581 0.0
O59 O 0.80723 1.022 0.25013 0.0
O60 O 0.82485 0.10725 0.20221 0.0
C61 C 0.77151 0.99194 0.2722 0.0
H62 H 0.68076 0.94212 0.11043 0.0
H63 H 0.80048 0.14329 0.39196 0.0
H64 H 0.71886 0.16644 0.22583 0.0
H65 H 0.62033 1.02853 0.25561 0.0
Co66 Co 0.76629 0.76761 0.4084 0.0
C67 C 0.78579 0.76806 0.30582 0.0
C68 C 0.77043 0.70573 0.33785 0.0
C69 C 0.77441 0.70196 0.29009 0.0
N70 N 0.77572 0.74662 0.34775 0.0
N71 N 0.7835 0.74099 0.27013 0.0
H72 H 0.7943 0.80253 0.30118 0.0
H73 H 0.76437 0.67997 0.36312 0.0
C74 C 0.73427 0.81665 0.34184 0.0
O75 O 0.70406 0.77863 0.32219 0.0
N76 N 0.7568 0.78736 0.46871 0.0
C77 C 0.74032 0.76133 0.50738 0.0
C78 C 0.73701 0.78655 0.54308 0.0
C79 C 0.76317 0.82803 0.48116 0.0
N80 N 0.75125 0.82824 0.52641 0.0
C81 C 0.69089 0.67805 0.41221 0.0
C82 C 0.62391 0.69941 0.41496 0.0
C83 C 0.61228 0.6541 0.41726 0.0
C84 C 0.64635 0.64368 0.41608 0.0
C85 C 0.66933 0.73303 0.41089 0.0
N86 N 0.70221 0.72205 0.40737 0.0
H87 H 0.71625 0.669 0.41588 0.0
H88 H 0.678 0.76779 0.41227 0.0
H89 H 0.73081 0.72622 0.50923 0.0
H90 H 0.77609 0.85676 0.4579 0.0
O91 O 0.78858 0.73298 0.44074 0.0
O92 O 0.8309 0.80375 0.41785 0.0
O93 O 0.75851 0.81641 0.37607 0.0
C94 C 0.82813 0.76887 0.43888 0.0
H95 H 0.76947 0.67243 0.27121 0.0
H96 H 0.72427 0.77508 0.57826 0.0
H97 H 0.59831 0.70867 0.41735 0.0
H98 H 0.63864 0.60914 0.41961 0.0
Co99 Co 1.04345 0.7555 0.57845 0.0
C100 C 1.05305 0.75085 0.47569 0.0
C101 C 0.10664 0.81318 0.50308 0.0
C102 C 0.11001 0.81393 0.45463 0.0
N103 N 0.07063 0.77365 0.51634 0.0
N104 N 0.07617 0.77485 0.43778 0.0
H105 H 1.02325 0.71794 0.47366 0.0
H106 H 0.12812 0.84062 0.52635 0.0
C107 C 0.98253 0.77655 0.52931 0.0
O108 O 1.01858 0.81648 0.52486 0.0
N109 N 1.01598 0.73714 0.63966 0.0
C110 C 1.02562 0.71576 0.67343 0.0
C111 C 0.99807 0.70853 0.71158 0.0
C112 C 0.98299 0.74278 0.65742 0.0
N113 N 0.97142 0.72546 0.70114 0.0
C114 C 0.06082 0.68477 0.5583 0.0
C115 C 0.97438 0.61488 0.57552 0.0
C116 C 1.00922 0.60551 0.57106 0.0
C117 C 1.05254 0.64069 0.56077 0.0
C118 C 0.98405 0.65948 0.57256 0.0
N119 N 1.02711 0.69377 0.56562 0.0
H120 H 0.09484 0.71211 0.55316 0.0
H121 H 0.95756 0.66673 0.57934 0.0
H122 H 1.05071 0.70591 0.67034 0.0
H123 H 0.96778 0.75924 0.63896 0.0
O124 O 0.10216 0.77699 0.60645 0.0
O125 O 0.06965 0.81739 0.59917 0.0
O126 O 0.98507 0.74554 0.55124 0.0
C127 C 0.10398 0.81506 0.61452 0.0
H128 H 0.13433 0.84155 0.43326 0.0
H129 H 0.99744 0.69209 0.74431 0.0
H130 H 0.94057 0.58829 0.5836 0.0
H131 H 0.08011 0.63439 0.55708 0.0
Co132 Co 0.34478 1.02367 0.75234 0.0
C133 C 0.3599 1.028 0.64931 0.0
C134 C 0.35223 0.08308 0.6724 0.0
C135 C 0.35408 0.08368 0.624 0.0
N136 N 0.35611 0.04827 0.68858 0.0
N137 N 0.35851 0.04889 0.60965 0.0
H138 H 0.36047 0.99685 0.64948 0.0
H139 H 0.34447 0.10433 0.69352 0.0
C140 C 0.25895 0.96971 0.70378 0.0
O141 O 0.26453 1.00932 0.69332 0.0
N142 N 0.33291 0.9984 0.81489 0.0
C143 C 0.36314 1.00614 0.84918 0.0
C144 C 0.34061 0.98044 0.8879 0.0
C145 C 0.29264 0.96828 0.83287 0.0
N146 N 0.2965 0.9567 0.87722 0.0
C147 C 0.42606 1.02771 0.72908 0.0
C148 C 0.40087 0.94029 0.75368 0.0
C149 C 0.44623 0.97143 0.74468 0.0
C150 C 0.45839 1.01502 0.73069 0.0
C151 C 0.36925 0.95442 0.75146 0.0
N152 N 0.3825 0.99806 0.74059 0.0
H153 H 0.43642 0.06227 0.72087 0.0
H154 H 0.33485 0.93128 0.76138 0.0
H155 H 0.39902 1.02837 0.84597 0.0
H156 H 0.26115 0.95464 0.81394 0.0
O157 O 0.39091 0.08076 0.77787 0.0
O158 O 0.31909 0.06034 0.771 0.0
O159 O 0.28916 0.96804 0.72834 0.0
C160 C 0.35954 0.0903 0.78473 0.0
H161 H 0.34984 0.10628 0.6009 0.0
H162 H 0.35537 0.97848 0.92088 0.0
H163 H 0.39054 0.90627 0.76458 0.0
H164 H 0.49312 1.03975 0.72335 0.0
Co165 Co 0.35526 0.30872 0.91849 0.0
C166 C 0.34629 0.32943 0.81322 0.0
C167 C 0.30743 0.26175 0.83848 0.0
C168 C 0.30452 0.26066 0.79104 0.0
N169 N 0.33515 0.30417 0.85332 0.0
N170 N 0.32749 0.30302 0.77412 0.0
H171 H 0.36735 0.36558 0.81241 0.0
H172 H 0.29319 0.23231 0.86082 0.0
C173 C 0.39265 0.25953 0.86671 0.0
O174 O 0.41973 0.29765 0.84552 0.0
N175 N 0.3717 0.30659 0.98317 0.0
C176 C 0.39204 0.33956 0.01569 0.0
C177 C 0.39834 0.32098 0.05629 0.0
C178 C 0.36533 0.2688 1.00427 0.0
N179 N 0.38174 0.27661 0.04848 0.0
C180 C 0.4239 0.39743 0.89193 0.0
C181 C 0.49542 0.39068 0.92621 0.0
C182 C 0.50277 0.43283 0.91218 0.0
C183 C 0.46669 0.43589 0.89397 0.0
C184 C 0.4521 0.35311 0.92375 0.0
N185 N 0.41687 0.35657 0.90647 0.0
H186 H 0.39582 0.40119 0.88183 0.0
H187 H 0.44642 0.32151 0.93794 0.0
H188 H 0.40236 0.37454 0.00999 0.0
H189 H 0.3491 0.23601 0.98757 0.0
O190 O 0.33167 0.34695 0.93657 0.0
O191 O 0.2922 0.27265 0.93666 0.0
O192 O 0.36833 0.2591 0.90109 0.0
C193 C 0.29374 0.31066 0.94522 0.0
H194 H 0.28721 0.2301 0.77023 0.0
H195 H 0.41444 0.33863 0.08858 0.0
H196 H 0.52247 0.38733 0.94115 0.0
H197 H 0.47113 0.4682 0.88371 0.0
Co198 Co 0.76768 1.02724 0.76703 0.0
C199 C 0.75486 1.03126 0.8696 0.0
C200 C 0.81981 0.08463 0.84856 0.0
C201 C 0.81733 0.08502 0.89696 0.0
N202 N 0.78059 0.05083 0.83121 0.0
N203 N 0.77662 0.05143 0.90986 0.0
H204 H 0.72178 1.00159 0.86845 0.0
H205 H 0.84952 0.10591 0.82821 0.0
C206 C 0.79192 0.96716 0.81381 0.0
O207 O 0.83039 1.00404 0.82216 0.0
N208 N 0.75459 1.00337 0.70362 0.0
C209 C 0.73427 1.01407 0.66957 0.0
C210 C 0.73005 0.98918 0.62978 0.0
C211 C 0.76257 0.97228 0.68432 0.0
N212 N 0.74771 0.96301 0.63939 0.0
C213 C 0.69106 1.03525 0.78533 0.0
C214 C 0.62726 0.94651 0.7656 0.0
C215 C 0.61351 0.978 0.77271 0.0
C216 C 0.64575 1.02251 0.7839 0.0
C217 C 0.67305 0.96069 0.7673 0.0
N218 N 0.70423 1.00476 0.77616 0.0
H219 H 0.71594 0.07009 0.7921 0.0
H220 H 0.68355 0.93676 0.75899 0.0
H221 H 0.72273 1.03781 0.67368 0.0
H222 H 0.77838 0.95639 0.70272 0.0
O223 O 0.78485 0.08606 0.74207 0.0
O224 O 0.83112 0.05982 0.75173 0.0
O225 O 0.76133 0.96927 0.79067 0.0
C226 C 0.8249 0.09206 0.73676 0.0
H227 H 0.84405 0.1067 0.92101 0.0
H228 H 0.71456 0.98955 0.59668 0.0
H229 H 0.60302 0.91186 0.75682 0.0
H230 H 0.63608 0.04756 0.78972 0.0
Co231 Co 0.78667 0.75252 0.93453 0.0
C232 C 0.76944 0.74776 0.03688 0.0
C233 C 0.78547 0.81228 0.00985 0.0
C234 C 0.78378 0.81375 0.05823 0.0
N235 N 0.7763 0.77076 0.99619 0.0
N236 N 0.77414 0.77335 0.07494 0.0
H237 H 0.76362 0.71388 0.03885 0.0
H238 H 0.79635 0.84103 0.98708 0.0
C239 C 0.86862 0.77415 0.98513 0.0
O240 O 0.87405 0.81469 0.98781 0.0
N241 N 0.79852 0.7349 0.87399 0.0
C242 C 0.77018 0.7173 0.83702 0.0
C243 C 0.79296 0.71201 0.79994 0.0
C244 C 0.83788 0.73981 0.85923 0.0
N245 N 0.83537 0.72616 0.81417 0.0
C246 C 0.69804 0.68222 0.95423 0.0
C247 C 0.71221 0.61126 0.93654 0.0
C248 C 0.66816 0.60254 0.94223 0.0
C249 C 0.66137 0.6384 0.95255 0.0
C250 C 0.74816 0.65579 0.93867 0.0
N251 N 0.74053 0.69057 0.94618 0.0
H252 H 0.69219 0.7099 0.95981 0.0
H253 H 0.78175 0.66254 0.93152 0.0
H254 H 0.73557 0.70926 0.83692 0.0
H255 H 0.868 0.75368 0.88056 0.0
O256 O 0.74903 0.77189 0.90415 0.0
O257 O 0.82234 0.81517 0.91504 0.0
O258 O 0.83427 0.74285 0.96401 0.0
C259 C 0.78503 0.81081 0.89851 0.0
H260 H 0.79203 0.84301 0.07967 0.0
H261 H 0.77956 0.69874 0.76528 0.0
H262 H 0.7185 0.58417 0.92855 0.0
H263 H 0.62777 0.63273 0.95728 0.0
Co264 Co 0.07637 0.76336 0.10234 0.0
C265 C 0.06253 0.76293 0.20732 0.0
C266 C 1.00966 0.70436 0.1739 0.0
C267 C 1.00255 0.70002 0.22182 0.0
N268 N 1.04797 0.7435 0.16443 0.0
N269 N 1.03597 0.73689 0.2425 0.0
H270 H 0.09218 0.79477 0.21388 0.0
H271 H 0.98772 0.68018 0.14801 0.0
C272 C 0.16135 0.81898 0.16339 0.0
O273 O 0.15727 0.78383 0.18602 0.0
N274 N 0.10392 0.78184 0.04107 0.0
C275 C 0.09341 0.75529 1.00256 0.0
C276 C 0.12234 0.77974 0.9667 0.0
C277 C 0.13927 0.82193 0.0284 0.0
N278 N 0.15101 0.82138 0.98322 0.0
C279 C 0.06291 0.67445 0.10157 0.0
C280 C 0.15162 0.69717 0.09316 0.0
C281 C 0.11795 0.65157 0.09191 0.0
C282 C 0.07328 0.64049 0.09631 0.0
C283 C 0.13963 0.73041 0.09815 0.0
N284 N 0.09568 0.71881 0.10371 0.0
H285 H 1.02808 0.66478 0.10125 0.0
H286 H 0.16551 0.76535 0.09545 0.0
H287 H 0.06714 0.72029 1.00102 0.0
H288 H 0.1566 0.85072 0.05163 0.0
O289 O 1.01805 0.72743 0.07172 0.0
O290 O 1.0474 0.79864 0.09343 0.0
O291 O 0.13355 0.81422 0.13106 0.0
C292 C 1.01459 0.76334 0.07333 0.0
H293 H 0.97544 0.67186 0.24015 0.0
H294 H 0.12319 0.76769 0.93165 0.0
H295 H 0.18654 0.70695 0.08874 0.0
H296 H 1.04638 0.60569 0.09438 0.0
Co297 Co 0.35101 0.05964 0.2747 0.0
C298 C 0.35548 1.03097 0.3748 0.0
C299 C 0.29202 1.02325 0.35545 0.0
C300 C 0.2908 1.0136 0.40241 0.0
N301 N 0.3322 1.0335 0.33741 0.0
N302 N 0.33072 1.01866 0.41478 0.0
H303 H 0.39059 1.04123 0.37434 0.0
H304 H 0.26689 1.02733 0.33715 0.0
C305 C 0.37065 0.13871 0.33642 0.0
O306 O 0.39787 0.13086 0.36158 0.0
N307 N 0.36785 0.08686 0.21304 0.0
C308 C 0.39239 0.08141 0.17958 0.0
C309 C 0.39952 0.1109 0.1431 0.0
C310 C 0.36035 0.11922 0.19668 0.0
N311 N 0.37959 0.13474 0.15438 0.0
C312 C 0.42642 0.04979 0.29319 0.0
C313 C 0.49206 0.13746 0.27363 0.0
C314 C 0.50419 0.10443 0.27815 0.0
C315 C 0.47101 0.06051 0.28929 0.0
C316 C 0.4468 0.12535 0.27837 0.0
N317 N 0.41444 0.08178 0.28776 0.0
H318 H 0.40099 1.01497 0.29856 0.0
H319 H 0.43744 0.15024 0.27091 0.0
H320 H 0.4055 0.05885 0.18226 0.0
H321 H 0.34181 0.13189 0.21555 0.0
O322 O 0.33628 1.00141 0.24899 0.0
O323 O 0.28872 1.02597 0.25285 0.0
O324 O 0.35196 0.11546 0.29934 0.0
C325 C 0.29607 0.99375 0.24055 0.0
H326 H 0.26413 1.00749 0.42668 0.0
H327 H 0.41892 0.11553 0.11151 0.0
H328 H 0.51689 0.17164 0.26415 0.0
H329 H 0.47917 1.03409 0.29245 0.0
Co330 Co 0.32739 0.3369 0.42855 0.0
C331 C 0.34659 0.32817 0.53414 0.0
C332 C 0.28039 0.28547 0.50659 0.0
C333 C 0.2783 0.28238 0.55402 0.0
N334 N 0.32243 0.31555 0.49318 0.0
N335 N 0.31983 0.30793 0.57243 0.0
H336 H 0.38223 0.35149 0.53611 0.0
H337 H 0.25162 0.26982 0.48325 0.0
C338 C 0.27258 0.36818 0.47956 0.0
O339 O 0.30949 0.39662 0.50203 0.0
N340 N 0.32588 0.35446 0.36441 0.0
C341 C 0.35923 0.37869 0.33363 0.0
C342 C 0.34025 0.38314 0.2924 0.0
C343 C 0.28768 0.34494 0.34207 0.0
N344 N 0.29532 0.3623 0.29839 0.0
C345 C 0.41331 0.40894 0.45872 0.0
C346 C 0.40166 0.47813 0.42603 0.0
C347 C 0.44427 0.48801 0.44118 0.0
C348 C 0.44979 0.45309 0.45861 0.0
C349 C 0.36613 0.43356 0.42663 0.0
N350 N 0.37197 0.39945 0.44315 0.0
H351 H 0.41914 0.38194 0.46813 0.0
H352 H 0.3343 0.42608 0.41151 0.0
H353 H 0.39459 0.39234 0.34076 0.0
H354 H 0.25467 0.32582 0.35761 0.0
O355 O 0.36886 0.31687 0.41125 0.0
O356 O 0.29497 0.27397 0.40785 0.0
O357 O 0.2747 0.34542 0.44482 0.0
C358 C 0.33418 0.27791 0.40136 0.0
H359 H 0.24742 0.26371 0.57371 0.0
H360 H 0.358 0.40126 0.26105 0.0
H361 H 0.39651 0.50425 0.41148 0.0
H362 H 0.48262 0.45954 0.46954 0.0
Co363 Co 1.04136 0.32389 0.59897 0.0
C364 C 0.06152 0.34975 0.69925 0.0
C365 C 0.10139 0.32334 0.67229 0.0
C366 C 0.10442 0.32448 0.72046 0.0
N367 N 0.07462 0.33939 0.65834 0.0
N368 N 0.07897 0.34055 0.73749 0.0
H369 H 1.03594 0.359 0.70146 0.0
H370 H 0.11487 0.30771 0.64984 0.0
C371 C 0.94877 0.24781 0.62861 0.0
O372 O 0.92887 0.25254 0.59153 0.0
N373 N 1.00703 0.30456 0.54073 0.0
C374 C 0.99283 0.32633 0.51248 0.0
C375 C 0.96738 0.29752 0.47651 0.0
C376 C 0.9919 0.26381 0.52028 0.0
N377 N 0.96645 0.25808 0.48188 0.0
C378 C 1.05723 0.41147 0.61579 0.0
C379 C 0.97039 0.39489 0.60914 0.0
C380 C 1.00611 0.43944 0.60892 0.0
C381 C 1.04977 0.4476 0.61416 0.0
C382 C 0.97937 0.35949 0.61121 0.0
N383 N 1.0226 0.36794 0.61213 0.0
H384 H 0.09148 0.41865 0.61788 0.0
H385 H 0.95152 0.32605 0.60887 0.0
H386 H 1.00029 0.36056 0.51742 0.0
H387 H 0.99862 0.23844 0.5338 0.0
O388 O 0.09414 0.36464 0.56339 0.0
O389 O 0.07319 0.29353 0.57773 0.0
O390 O 0.99083 0.27343 0.63587 0.0
C391 C 0.10207 0.33197 0.55871 0.0
H392 H 0.12124 0.31123 0.74162 0.0
H393 H 0.951 0.30498 0.44828 0.0
H394 H 0.9361 0.38757 0.60555 0.0
H395 H 0.0781 0.48173 0.61473 0.0
C396 C 0.26398 0.40097 0.25151 0.0
C397 C 0.26147 0.36068 0.26716 0.0
C398 C 0.18483 0.31715 0.2357 0.0
C399 C 0.18897 0.35706 0.21663 0.0
N400 N 0.2382 0.43431 0.19365 0.0
N401 N 0.22396 0.2798 0.26392 0.0
C402 C 0.23034 0.39825 0.22063 0.0
C403 C 0.22317 0.31848 0.25598 0.0
N404 N 0.29679 0.44175 0.26815 0.0
N405 N 0.14393 0.27854 0.23628 0.0
H406 H 0.25237 0.28006 0.277 0.0
H407 H 0.19843 0.24817 0.25295 0.0
H408 H 0.11496 0.27708 0.22328 0.0
H409 H 0.13807 0.24941 0.25364 0.0
H410 H 0.29732 0.47171 0.26098 0.0
H411 H 0.32048 0.44519 0.29314 0.0
H412 H 0.26931 0.46395 0.19255 0.0
H413 H 0.21551 0.43261 0.16824 0.0
C414 C 0.88158 0.14303 0.43445 0.0
C415 C 0.88598 0.15321 0.38593 0.0
C416 C 0.95491 0.22488 0.40245 0.0
C417 C 0.94418 0.21924 0.45101 0.0
N418 N 0.89915 0.17056 0.51449 0.0
N419 N 0.93024 0.20115 0.32217 0.0
C420 C 0.90869 0.17717 0.46759 0.0
C421 C 0.92423 0.19299 0.36933 0.0
N422 N 0.85082 0.10036 0.44832 0.0
N423 N 0.995 0.26058 0.38851 0.0
H424 H 0.91157 0.17658 0.29728 0.0
H425 H 0.95349 0.2321 0.30775 0.0
H426 H 1.01825 0.28344 0.41266 0.0
H427 H 1.00707 0.26518 0.35415 0.0
H428 H 0.84783 0.08879 0.48277 0.0
H429 H 0.83115 0.07521 0.4239 0.0
H430 H 0.87015 0.14332 0.52811 0.0
H431 H 0.9197 0.19301 0.54009 0.0
C432 C 0.79111 0.90354 0.56392 0.0
C433 C 0.75041 0.86418 0.55145 0.0
C434 C 0.70798 0.88965 0.59841 0.0
C435 C 0.7484 0.93011 0.60866 0.0
N436 N 0.8267 0.98015 0.59351 0.0
N437 N 0.66979 0.82416 0.54747 0.0
C438 C 0.78955 0.9384 0.5891 0.0
C439 C 0.70865 0.85857 0.56595 0.0
N440 N 0.83116 0.90672 0.55336 0.0
N441 N 0.66939 0.88031 0.62112 0.0
H442 H 0.66958 0.8018 0.52245 0.0
H443 H 0.63834 0.82048 0.55336 0.0
H444 H 0.66816 0.90226 0.64567 0.0
H445 H 0.63968 0.84939 0.61866 0.0
H446 H 0.86196 0.93248 0.5658 0.0
H447 H 0.83329 0.88161 0.53509 0.0
H448 H 0.85698 0.98985 0.57655 0.0
H449 H 0.82564 1.00638 0.61061 0.0
C450 C 0.89722 0.68465 0.73955 0.0
C451 C 0.93766 0.72546 0.73076 0.0
C452 C 0.9098 0.76721 0.77537 0.0
C453 C 0.87055 0.726 0.78695 0.0
N454 N 0.83092 0.64505 0.78845 0.0
N455 N 0.98644 0.80424 0.74658 0.0
C456 C 0.86538 0.6845 0.77134 0.0
C457 C 0.94509 0.76642 0.75054 0.0
N458 N 0.88876 0.64641 0.71619 0.0
N459 N 0.91251 0.80709 0.78649 0.0
H460 H 1.01296 0.80435 0.72888 0.0
H461 H 0.99562 0.83428 0.76415 0.0
H462 H 0.88716 0.80874 0.80442 0.0
H463 H 0.93803 0.83824 0.77471 0.0
H464 H 0.858 0.61645 0.71743 0.0
H465 H 0.91139 0.64579 0.69232 0.0
H466 H 0.8276 0.61373 0.78187 0.0
H467 H 0.80798 0.64406 0.81299 0.0
C468 C 0.22698 0.93157 0.92271 0.0
C469 C 0.26083 0.92343 0.90589 0.0
C470 C 0.22522 0.85076 0.94632 0.0
C471 C 0.18883 0.85669 0.95863 0.0
N472 N 0.1516 0.89963 0.95396 0.0
N473 N 0.28867 0.87262 0.89454 0.0
C474 C 0.18882 0.8964 0.94574 0.0
C475 C 0.25912 0.8823 0.91588 0.0
N476 N 0.23209 0.97334 0.91761 0.0
N477 N 0.22788 0.81562 0.96493 0.0
H478 H 0.31309 0.89457 0.87098 0.0
H479 H 0.28635 0.84131 0.89678 0.0
H480 H 0.204 0.79267 0.98832 0.0
H481 H 0.25572 0.81176 0.96082 0.0
H482 H 0.21077 0.98288 0.93293 0.0
H483 H 0.26007 0.99973 0.90132 0.0
H484 H 0.14757 0.92572 0.94121 0.0
H485 H 0.1231 0.87417 0.97048 0.0
C486 C 0.34062 0.20621 0.09373 0.0
C487 C 0.382 0.24341 0.07926 0.0
C488 C 0.42208 0.21131 0.11987 0.0
C489 C 0.38061 0.17136 0.12857 0.0
N490 N 0.30059 0.12781 0.11708 0.0
N491 N 0.46221 0.27823 0.07176 0.0
C492 C 0.33983 0.16803 0.11376 0.0
C493 C 0.42289 0.24526 0.0906 0.0
N494 N 0.30227 0.20809 0.08926 0.0
N495 N 0.46036 0.21757 0.14108 0.0
H496 H 0.46381 0.30306 0.04947 0.0
H497 H 0.49245 0.27858 0.07493 0.0
H498 H 0.46053 0.19415 0.16422 0.0
H499 H 0.49088 0.24779 0.13947 0.0
H500 H 0.27136 0.18365 0.10265 0.0
H501 H 0.30272 0.23672 0.07659 0.0
H502 H 0.27032 0.1222 0.10292 0.0
H503 H 0.29925 0.09878 0.12994 0.0
C504 C 0.12804 0.54809 0.11645 0.0
C505 C 0.12523 0.5318 0.06976 0.0
C506 C 0.13104 0.60109 0.03811 0.0
C507 C 0.12791 0.61451 0.08468 0.0
N508 N 0.12383 0.6021 0.16844 0.0
N509 N 0.1244 0.54182 0.98589 0.0
C510 C 0.12718 0.58864 0.12398 0.0
C511 C 0.12744 0.55837 0.03047 0.0
N512 N 0.13143 0.52462 0.15356 0.0
N513 N 0.13728 0.62927 1.0013 0.0
H514 H 0.12383 0.51172 0.97914 0.0
H515 H 0.12052 0.55657 0.95564 0.0
H516 H 0.139 0.66019 1.00565 0.0
H517 H 0.14399 0.62387 0.96694 0.0
H518 H 0.13806 0.53654 0.18808 0.0
H519 H 0.13065 0.49412 0.14954 0.0
H520 H 0.11739 0.5824 0.19842 0.0
H521 H 0.1257 0.6328 0.17529 0.0
C522 C 0.58122 0.12268 0.30439 0.0
C523 C 0.55036 0.11373 0.26711 0.0
C524 C 0.60214 0.10876 0.21123 0.0
C525 C 0.62964 0.11105 0.24959 0.0
N526 N 0.64661 0.12049 0.3327 0.0
N527 N 0.53029 0.09802 0.18497 0.0
C528 C 0.61985 0.11876 0.29616 0.0
C529 C 0.56086 0.10742 0.2203 0.0
N530 N 0.57341 0.13501 0.34758 0.0
N531 N 0.61561 0.10777 0.16616 0.0
H532 H 0.5006 0.09849 0.18991 0.0
H533 H 0.53304 0.0876 0.15132 0.0
H534 H 0.64525 0.10794 0.15858 0.0
H535 H 0.59957 0.11037 0.13626 0.0
H536 H 0.59624 0.14594 0.37542 0.0
H537 H 0.54522 0.13778 0.35449 0.0
H538 H 0.63871 0.12055 0.36807 0.0
H539 H 0.67621 0.11985 0.32767 0.0
C540 C 0.54581 0.60353 0.46808 0.0
C541 C 0.56501 0.6167 0.4225 0.0
C542 C 0.50366 0.54682 0.38873 0.0
C543 C 0.48407 0.5338 0.43421 0.0
N544 N 0.48078 0.55309 0.51514 0.0
N545 N 0.55783 0.60662 0.33836 0.0
C546 C 0.50337 0.56333 0.47328 0.0
C547 C 0.54232 0.59015 0.38244 0.0
N548 N 0.56908 0.62844 0.50657 0.0
N549 N 0.48666 0.5169 0.35201 0.0
H550 H 0.58619 0.6382 0.33276 0.0
H551 H 0.54052 0.59107 0.30747 0.0
H552 H 0.45828 0.48493 0.35493 0.0
H553 H 0.50247 0.52232 0.31948 0.0
H554 H 0.55969 0.61796 0.54119 0.0
H555 H 0.59945 0.65878 0.50394 0.0
H556 H 0.49068 0.57516 0.54368 0.0
H557 H 0.44988 0.52373 0.52007 0.0
C558 C 1.0033 0.54713 0.62841 0.0
C559 C 1.0016 0.55977 0.58109 0.0
C560 C 0.99772 0.49073 0.55215 0.0
C561 C 0.999 0.47788 0.59948 0.0
N562 N 0.9938 0.48831 0.68261 0.0
N563 N 0.98814 0.54041 0.49876 0.0
C564 C 0.99875 0.50436 0.63763 0.0
C565 C 0.99585 0.53042 0.5432 0.0
N566 N 1.0112 0.57684 0.66433 0.0
N567 N 1.00027 0.46599 0.51578 0.0
H568 H 0.98712 0.56952 0.49109 0.0
H569 H 0.97915 0.51836 0.47029 0.0
H570 H 1.00026 0.43598 0.5208 0.0
H571 H 1.00507 0.47639 0.48077 0.0
H572 H 1.0181 0.57199 0.69885 0.0
H573 H 1.01369 0.60803 0.6592 0.0
H574 H 0.98891 0.50371 0.71176 0.0
H575 H 0.9908 0.45727 0.69034 0.0
C576 C 0.50496 0.95623 0.71351 0.0
C577 C 0.48245 0.96085 0.75291 0.0
C578 C 0.53968 0.96241 0.80566 0.0
C579 C 0.56592 0.96578 0.76583 0.0
N580 N 0.57514 0.9682 0.6813 0.0
N581 N 0.4787 0.97033 0.83681 0.0
C582 C 0.54871 0.96256 0.71952 0.0
C583 C 0.49946 0.9637 0.79924 0.0
N584 N 0.48438 0.94601 0.67038 0.0
N585 N 0.55334 0.95793 0.84956 0.0
H586 H 0.44873 0.9706 0.8338 0.0
H587 H 0.4925 0.9783 0.87057 0.0
H588 H 0.58276 0.95701 0.8552 0.0
H589 H 0.53373 0.95104 0.87966 0.0
H590 H 0.49704 0.93813 0.64092 0.0
H591 H 0.45231 0.94128 0.66525 0.0
H592 H 0.56658 0.97158 0.64696 0.0
H593 H 0.60724 0.9726 0.68407 0.0
C594 C 0.56017 0.49217 0.96652 0.0
C595 C 0.54717 0.47437 0.92017 0.0
C596 C 0.61444 0.54006 0.88814 0.0
C597 C 0.62859 0.55661 0.93471 0.0
N598 N 0.6199 0.54454 0.01853 0.0
N599 N 0.5656 0.47652 0.838 0.0
C600 C 0.60294 0.53136 0.97402 0.0
C601 C 0.5755 0.49688 0.8813 0.0
N602 N 0.53081 0.47283 1.0031 0.0
N603 N 0.63705 0.56644 0.85037 0.0
H604 H 0.53724 0.44505 0.83175 0.0
H605 H 0.58728 0.48889 0.80933 0.0
H606 H 0.66592 0.59803 0.85375 0.0
H607 H 0.62541 0.55858 0.81578 0.0
H608 H 0.53625 0.48715 0.03658 0.0
H609 H 0.49913 0.44421 0.99922 0.0
H610 H 0.6051 0.52514 0.04843 0.0
H611 H 0.65107 0.57314 0.02518 0.0
C612 C 0.10324 0.35928 0.82014 0.0
C613 C 0.06789 0.33987 0.78669 0.0
C614 C 1.01386 0.31409 0.85154 0.0
C615 C 1.04912 0.3259 0.88436 0.0
N616 N 0.12743 0.34988 0.89685 0.0
N617 N 0.98865 0.28898 0.77203 0.0
C618 C 0.09405 0.34632 0.86807 0.0
C619 C 1.02273 0.31492 0.80258 0.0
N620 N 0.14572 0.38973 0.8059 0.0
N621 N 0.97192 0.30201 0.86719 0.0
H622 H 0.99382 0.28497 0.73668 0.0
H623 H 0.95588 0.26715 0.78319 0.0
H624 H 0.96491 0.30251 0.90289 0.0
H625 H 0.94576 0.29639 0.8445 0.0
H626 H 0.17219 0.40739 0.82953 0.0
H627 H 0.15304 0.40067 0.77102 0.0
H628 H 0.15981 0.36073 0.88473 0.0
H629 H 0.12164 0.33669 0.93081 0.0
C630 C 0.7736 1.00591 0.97831 0.0
C631 C 0.76252 1.03639 0.95732 0.0
C632 C 0.72939 1.04208 0.03143 0.0
C633 C 0.74417 1.01495 0.05345 0.0
N634 N 0.78198 0.97265 0.05041 0.0
N635 N 0.73161 0.08485 0.96219 0.0
C636 C 0.7663 0.99682 0.02741 0.0
C637 C 0.74052 0.05461 0.9834 0.0
N638 N 0.79113 0.9859 0.95097 0.0
N639 N 0.70432 0.05522 0.05672 0.0
H640 H 0.73847 0.09338 0.92665 0.0
H641 H 0.71938 0.10293 0.97981 0.0
H642 H 0.69601 0.04636 0.09199 0.0
H643 H 0.68936 0.07226 0.04242 0.0
H644 H 0.79613 0.96007 0.96247 0.0
H645 H 0.7982 0.99337 0.91532 0.0
H646 H 0.80213 0.96177 0.03489 0.0
H647 H 0.77669 0.96539 0.08632 0.0
C648 C 0.81849 0.77555 0.14443 0.0
C649 C 0.77628 0.76275 0.12357 0.0
C650 C 0.73892 0.73534 0.19965 0.0
C651 C 0.78116 0.74824 0.22053 0.0
N652 N 0.85987 0.77513 0.21395 0.0
N653 N 0.69621 0.72725 0.1281 0.0
C654 C 0.82066 0.76679 0.19312 0.0
C655 C 0.73637 0.74156 0.15037 0.0
N656 N 0.85636 0.79678 0.11748 0.0
N657 N 0.70159 0.71793 0.22753 0.0
H658 H 0.69401 0.73235 0.09216 0.0
H659 H 0.66502 0.70871 0.14411 0.0
H660 H 0.70248 0.71203 0.26346 0.0
H661 H 0.67007 0.71089 0.21607 0.0
H662 H 0.88885 0.81032 0.13051 0.0
H663 H 0.85529 0.80227 0.08151 0.0
H664 H 0.88964 0.78521 0.19587 0.0
H665 H 0.86201 0.76969 0.24982 0.0
C666 C 0.08556 0.74421 0.36297 0.0
C667 C 0.06442 0.76336 0.38898 0.0
C668 C 1.02145 0.76129 0.319 0.0
C669 C 1.04463 0.74469 0.29231 0.0
N670 N 0.09884 0.72075 0.28665 0.0
N671 N 1.01442 0.79257 0.39337 0.0
C672 C 0.07675 0.73621 0.31377 0.0
C673 C 1.03264 0.77229 0.36746 0.0
N674 N 0.11325 0.73291 0.38603 0.0
N675 N 0.98879 0.76637 0.29759 0.0
H676 H 1.02217 0.80077 0.42887 0.0
H677 H 0.99333 0.80317 0.37976 0.0
H678 H 0.98149 0.76022 0.2617 0.0
H679 H 0.96755 0.77462 0.31525 0.0
H680 H 0.12754 0.71569 0.37065 0.0
H681 H 0.12019 0.73886 0.42201 0.0
H682 H 0.12569 0.71765 0.2984 0.0
H683 H 0.0911 0.71221 0.25119 0.0
C684 C 0.39094 0.06546 0.5301 0.0
C685 C 0.35709 1.03536 0.56125 0.0
C686 C 0.31646 0.98611 0.49453 0.0
C687 C 0.3451 1.02057 0.4631 0.0
N688 N 0.40827 0.09309 0.44938 0.0
N689 N 0.28515 0.96809 0.573 0.0
C690 C 0.38284 0.06002 0.48064 0.0
C691 C 0.31949 0.99539 0.54363 0.0
N692 N 0.43048 0.09903 0.54825 0.0
N693 N 0.28614 0.94471 0.47695 0.0
H694 H 0.28542 0.97457 0.60883 0.0
H695 H 0.2548 0.94111 0.5612 0.0
H696 H 0.28432 0.93741 0.44098 0.0
H697 H 0.26647 0.91687 0.49813 0.0
H698 H 0.4584 0.1198 0.52778 0.0
H699 H 0.43665 0.10301 0.58451 0.0
H700 H 0.43443 0.12503 0.45864 0.0
H701 H 0.43443 0.12503 0.45864 0.0
C702 C 0.29764 0.27305 0.65071 0.0
C703 C 0.32849 0.30998 0.62312 0.0
C704 C 0.36562 0.34588 0.69837 0.0
C705 C 0.32758 0.31257 0.72395 0.0
N706 N 0.24813 0.25863 0.71543 0.0
N707 N 0.38638 0.38933 0.62608 0.0
C708 C 0.29028 0.28119 0.69701 0.0
C709 C 0.36135 0.34909 0.64817 0.0
N710 N 0.27618 0.23012 0.63364 0.0
N711 N 0.40577 0.37262 0.72007 0.0
H712 H 0.38037 0.39484 0.5915 0.0
H713 H 0.40871 0.41852 0.64446 0.0
H714 H 0.41177 0.36845 0.7551 0.0
H715 H 0.43437 0.39514 0.70129 0.0
H716 H 0.25411 0.20282 0.65447 0.0
H717 H 0.2847 0.22203 0.60126 0.0
H718 H 0.22051 0.23578 0.69528 0.0
H719 H 0.24091 0.26671 0.74853 0.0
C720 C 0.23168 0.28811 1.00592 0.0
C721 C 0.25537 0.31375 0.96564 0.0
C722 C 0.21908 0.35925 0.97454 0.0
C723 C 0.19464 0.33272 0.01366 0.0
N724 N 0.1678 0.26419 0.05779 0.0
N725 N 0.26073 0.36435 0.90382 0.0
C726 C 0.19762 0.29451 0.02629 0.0
C727 C 0.24571 0.34651 0.94756 0.0
N728 N 0.24356 0.26002 0.02708 0.0
N729 N 0.21782 0.39727 0.96384 0.0
H730 H 0.27834 0.35414 0.88213 0.0
H731 H 0.25146 0.38534 0.88703 0.0
H732 H 0.19721 0.40647 0.9816 0.0
H733 H 0.23898 0.42084 0.93917 0.0
H734 H 0.23096 0.24484 0.05958 0.0
H735 H 0.26898 0.25494 0.01476 0.0
H736 H 0.16555 0.23346 0.06506 0.0
H737 H 0.14206 0.26755 0.07267 0.0
C738 C 0.97335 0.21242 0.16895 0.0
C739 C 0.97128 0.23996 0.13286 0.0
C740 C 0.88971 0.20491 0.14596 0.0
C741 C 0.89173 0.17624 0.18046 0.0
N742 N 0.93298 0.1444 0.21551 0.0
N743 N 0.92522 0.25421 0.07935 0.0
C744 C 0.93279 0.17731 0.18885 0.0
C745 C 0.92877 0.23388 0.11918 0.0
N746 N 1.01398 0.22145 0.18653 0.0
N747 N 0.85055 0.20493 0.13912 0.0
H748 H 0.95244 0.27474 0.05794 0.0
H749 H 0.89463 0.24724 0.06482 0.0
H750 H 0.82059 0.18199 0.15548 0.0
H751 H 0.84831 0.22913 0.11923 0.0
H752 H 1.01734 0.20574 0.21634 0.0
H753 H 1.04448 0.24772 0.1744 0.0
H754 H 0.96106 0.14086 0.21926 0.0
H755 H 0.90379 0.11785 0.22982 0.0
C756 C 0.75399 0.8727 0.27457 0.0
C757 C 0.74246 0.86101 0.32289 0.0
C758 C 0.75763 0.93804 0.33857 0.0
C759 C 0.76607 0.94859 0.28997 0.0
N760 N 0.76807 0.92479 0.21046 0.0
N761 N 0.7241 0.87997 0.39824 0.0
C762 C 0.76343 0.91571 0.25772 0.0
C763 C 0.74199 0.89312 0.35421 0.0
N764 N 0.75731 0.84337 0.24468 0.0
N765 N 0.76583 0.97145 0.37012 0.0
H766 H 0.71025 0.84697 0.41013 0.0
H767 H 0.71863 0.90035 0.42118 0.0
H768 H 0.77767 1.00471 0.35995 0.0
H769 H 0.76511 0.96729 0.40653 0.0
H770 H 0.77248 0.85236 0.21169 0.0
H771 H 0.74683 0.81025 0.25333 0.0
H772 H 0.75968 0.90038 0.18448 0.0
H773 H 0.77803 0.95647 0.19667 0.0
C774 C 0.88551 0.74457 0.44464 0.0
C775 C 0.86744 0.77051 0.46264 0.0
C776 C 0.92256 0.79722 0.52743 0.0
C777 C 0.93916 0.76956 0.51049 0.0
N778 N 0.92935 0.70891 0.45972 0.0
N779 N 0.86397 0.81631 0.525 0.0
C780 C 0.9183 0.74059 0.4713 0.0
C781 C 0.88471 0.79548 0.5051 0.0
N782 N 0.87302 0.72559 0.40084 0.0
N783 N 0.94317 0.82534 0.56494 0.0
H784 H 0.83731 0.81711 0.50893 0.0
H785 H 0.87108 0.8303 0.55869 0.0
H786 H 0.96793 0.82435 0.58518 0.0
H787 H 0.93706 0.85083 0.57505 0.0
H788 H 0.88859 0.71053 0.38339 0.0
H789 H 0.85026 0.72913 0.3798 0.0
H790 H 0.91241 0.68417 0.43417 0.0
H791 H 0.95217 0.70413 0.47909 0.0
C792 C 0.17996 0.93042 0.67107 0.0
C793 C 0.21844 0.9282 0.68474 0.0
C794 C 0.17637 0.84819 0.66357 0.0
C795 C 0.14339 0.85394 0.63905 0.0
N796 N 0.12693 0.91018 0.60794 0.0
N797 N 0.25577 0.88438 0.67891 0.0
C798 C 0.14882 0.89783 0.63923 0.0
C799 C 0.21767 0.88699 0.67665 0.0
N800 N 0.17179 0.96231 0.68921 0.0
N801 N 0.16833 0.8067 0.67695 0.0
H802 H 0.28778 0.91235 0.68248 0.0
H803 H 0.25581 0.85491 0.67032 0.0
H804 H 0.13673 0.77784 0.67539 0.0
H805 H 0.19146 0.80254 0.69679 0.0
H806 H 0.14259 0.96292 0.68114 0.0
H807 H 0.1903 0.98331 0.71715 0.0
H808 H 0.13244 0.94291 0.60697 0.0
H809 H 0.1097 0.89108 0.57855 0.0
C810 C 0.37371 0.17833 0.87585 0.0
C811 C 0.38599 0.21633 0.84646 0.0
C812 C 0.39131 0.1737 0.78006 0.0
C813 C 0.36992 0.13365 0.80677 0.0
N814 N 0.33634 0.09695 0.88027 0.0
N815 N 0.39271 0.24287 0.76537 0.0
C816 C 0.35931 0.13557 0.85468 0.0
C817 C 0.39107 0.21219 0.79705 0.0
N818 N 0.37857 0.18333 0.92365 0.0
N819 N 0.41266 0.17573 0.73891 0.0
H820 H 0.38762 0.26925 0.77414 0.0
H821 H 0.39281 0.23824 0.72902 0.0
H822 H 0.41654 0.14929 0.72694 0.0
H823 H 0.43136 0.20565 0.72022 0.0
H824 H 0.3731 0.15715 0.94618 0.0
H825 H 0.39391 0.21473 0.94014 0.0
H826 H 0.32412 0.0963 0.91402 0.0
H827 H 0.32657 0.06529 0.86629 0.0
C828 C 0.81165 0.8691 0.83452 0.0
C829 C 0.78348 0.84824 0.87397 0.0
C830 C 0.75208 0.89797 0.8649 0.0
C831 C 0.78535 0.92332 0.83062 0.0
N832 N 0.84692 0.9332 0.78195 0.0
N833 N 0.72821 0.84448 0.92896 0.0
C834 C 0.81524 0.90894 0.81529 0.0
C835 C 0.75365 0.86275 0.88944 0.0
N836 N 0.83283 0.84917 0.81359 0.0
N837 N 0.71867 0.90718 0.87396 0.0
H838 H 0.72645 0.81743 0.94715 0.0
H839 H 0.71115 0.8582 0.94593 0.0
H840 H 0.71648 0.93298 0.85765 0.0
H841 H 0.69066 0.88666 0.89445 0.0
H842 H 0.85032 0.85999 0.78196 0.0
H843 H 0.8288 0.81868 0.82523 0.0
H844 H 0.87355 0.92823 0.77404 0.0
H845 H 0.84771 0.9597 0.76333 0.0
C846 C 0.94857 0.79189 0.98536 0.0
C847 C 0.90453 0.76665 1.00409 0.0
C848 C 0.93322 0.74191 0.06979 0.0
C849 C 0.97683 0.7651 0.04991 0.0
N850 N 1.0255 0.80806 0.98585 0.0
N851 N 0.85328 0.70996 0.05822 0.0
C852 C 0.98435 0.78901 1.00687 0.0
C853 C 0.89631 0.73906 0.04432 0.0
N854 N 0.95625 0.81898 0.94707 0.0
N855 N 0.92747 0.72491 0.11436 0.0
H856 H 0.82546 0.7067 0.0404 0.0
H857 H 0.84501 0.68592 0.08447 0.0
H858 H 0.95409 0.72824 0.13471 0.0
H859 H 0.89753 0.71205 0.13302 0.0
H860 H 0.98813 0.84299 0.93554 0.0
H861 H 0.93051 0.81881 0.92758 0.0
H862 H 1.03191 0.82077 0.95169 0.0
H863 H 1.05309 0.80895 1.00166 0.0
C864 C 0.24205 0.88172 0.17243 0.0
C865 C 0.19564 0.86544 0.17896 0.0
C866 C 0.21446 0.93139 0.22798 0.0
C867 C 0.26097 0.95037 0.21782 0.0
N868 N 0.31536 0.94833 0.16545 0.0
N869 N 0.13917 0.88498 0.19834 0.0
C870 C 0.27389 0.92686 0.18586 0.0
C871 C 0.18224 0.89351 0.20178 0.0
N872 N 0.25594 0.85475 0.1524 0.0
N873 N 0.20043 0.94706 0.26445 0.0
H874 H 0.11483 0.85969 0.17718 0.0
H875 H 0.12939 0.90698 0.2116 0.0
H876 H 0.22226 0.97154 0.28787 0.0
H877 H 0.16701 0.93124 0.27527 0.0
H878 H 0.28956 0.86343 0.15149 0.0
H879 H 0.23368 0.82254 0.13958 0.0
H880 H 0.3249 0.93362 0.13923 0.0
H881 H 0.33784 0.98265 0.16956 0.0
C882 C 0.36124 0.245 0.33875 0.0
C883 C 0.33987 0.24031 0.38298 0.0
C884 C 0.33902 0.16922 0.39682 0.0
C885 C 0.36002 0.17372 0.35233 0.0
N886 N 0.38874 0.21397 0.27936 0.0
N887 N 0.3036 0.19591 0.45185 0.0
C888 C 0.37025 0.21101 0.32279 0.0
C889 C 0.32726 0.20171 0.41126 0.0
N890 N 0.37352 0.28255 0.31223 0.0
N891 N 0.33082 0.13405 0.42568 0.0
H892 H 0.29646 0.21986 0.4649 0.0
H893 H 0.28857 0.1664 0.47151 0.0
H894 H 0.33539 0.10767 0.41529 0.0
H895 H 0.32139 0.13163 0.46084 0.0
H896 H 0.39442 0.29184 0.28298 0.0
H897 H 0.36348 0.30556 0.3203 0.0
H898 H 0.39161 0.23641 0.25322 0.0
H899 H 0.40022 0.19271 0.26835 0.0
C900 C 0.18469 0.36236 0.56482 0.0
C901 C 0.14491 0.34052 0.53758 0.0
C902 C 0.19012 0.34476 0.46909 0.0
C903 C 0.22818 0.35837 0.49898 0.0
N904 N 0.25415 0.36521 0.58044 0.0
N905 N 0.10877 0.30646 0.46385 0.0
C906 C 0.22342 0.36284 0.54836 0.0
C907 C 0.14719 0.32979 0.48979 0.0
N908 N 0.18648 0.38416 0.60573 0.0
N909 N 0.19514 0.34918 0.42131 0.0
H910 H 0.07713 0.29651 0.47762 0.0
H911 H 0.10825 0.29415 0.43011 0.0
H912 H 0.22643 0.36488 0.40503 0.0
H913 H 0.16891 0.34282 0.39842 0.0
H914 H 0.21623 0.40325 0.62465 0.0
H915 H 0.16015 0.38826 0.61717 0.0
H916 H 0.24903 0.36475 0.61673 0.0
H917 H 0.28128 0.36142 0.57197 0.0
C918 C 0.89501 0.21389 0.69598 0.0
C919 C 0.92209 0.20998 0.66107 0.0
C920 C 0.88704 0.12923 0.67654 0.0
C921 C 0.86098 0.13312 0.71312 0.0
N922 N 0.84873 0.18159 0.76514 0.0
N923 N 0.95237 0.1672 0.62616 0.0
C924 C 0.86745 0.17621 0.72505 0.0
C925 C 0.92103 0.16874 0.65423 0.0
N926 N 0.89513 0.25346 0.70094 0.0
N927 N 0.87734 0.08783 0.66037 0.0
H928 H 0.9773 0.19534 0.60858 0.0
H929 H 0.95629 0.13918 0.6239 0.0
H930 H 0.85157 0.05768 0.6737 0.0
H931 H 0.89191 0.08329 0.63033 0.0
H932 H 0.87209 0.2568 0.72162 0.0
H933 H 0.91685 0.2825 0.68223 0.0
H934 H 0.8562 0.21291 0.77828 0.0
H935 H 0.82914 0.15525 0.78803 0.0
loop_
_geom_bond_atom_site_label_1
_geom_bond_atom_site_label_2
_geom_bond_distance
_geom_bond_site_symmetry_2
_ccdc_geom_bond_type
Co0 N4 2.148 1_554 S
Co0 N10 2.128 . S
Co0 N20 2.194 . S
Co0 O25 2.351 . S
Co0 O26 2.155 . S
Co0 O27 2.096 . S
C1 N4 1.301 . S
C1 N5 1.328 . S
C1 H6 0.930 1_455 S
C2 C3 1.333 . S
C2 N4 1.317 . S
C2 H7 0.930 . S
C3 C2 1.333 . S
C3 N5 1.350 . S
C3 H29 0.931 . S
N4 Co0 2.148 1_556 S
N4 C1 1.301 . S
N4 C2 1.317 . S
N5 C1 1.328 . S
N5 C3 1.350 . S
H6 C1 0.930 1_655 S
H7 C2 0.930 . S
C8 O9 1.224 . S
C8 O27 1.247 . S
O9 C8 1.224 . S
N10 Co0 2.128 . S
N10 C11 1.355 . S
N10 C13 1.311 . S
C11 N10 1.355 . S
C11 C12 1.363 . S
C11 H23 0.929 . S
C12 C11 1.363 . S
C12 N14 1.375 . S
C12 H30 0.931 . S
C13 N10 1.311 . S
C13 N14 1.347 . S
C13 H24 0.929 . S
N14 C12 1.375 . S
N14 C13 1.347 . S
C15 C18 1.365 . S
C15 N20 1.328 . S
C15 H21 0.929 . S
C16 C17 1.362 . S
C16 C19 1.378 . S
C16 H31 0.929 . S
C17 C16 1.362 . S
C17 C18 1.366 . S
C18 C15 1.365 . S
C18 C17 1.366 . S
C18 H32 0.930 . S
C19 C16 1.378 . S
C19 N20 1.315 . S
C19 H22 0.930 . S
N20 Co0 2.194 . S
N20 C15 1.328 . S
N20 C19 1.315 . S
H21 C15 0.929 . S
H22 C19 0.930 . S
H23 C11 0.929 . S
H24 C13 0.929 . S
O25 Co0 2.351 . S
O25 C28 1.244 1_455 S
O26 Co0 2.155 . S
O26 C28 1.240 1_455 S
O27 Co0 2.096 . S
O27 C8 1.247 . S
C28 O25 1.244 1_655 S
C28 O26 1.240 1_655 S
H29 C3 0.931 . S
H30 C12 0.931 . S
H31 C16 0.929 . S
H32 C18 0.930 . S
Co33 N37 2.148 . S
Co33 N43 2.128 . S
Co33 N53 2.194 . S
Co33 O58 2.351 . S
Co33 O59 2.155 . S
Co33 O60 2.096 . S
C34 N37 1.301 . S
C34 N38 1.328 . S
C34 H39 0.930 1_545 S
C35 C36 1.333 . S
C35 N37 1.317 . S
C35 H40 0.930 . S
C36 C35 1.333 . S
C36 N38 1.350 . S
C36 H62 0.931 . S
N37 Co33 2.148 . S
N37 C34 1.301 . S
N37 C35 1.317 . S
N38 C34 1.328 . S
N38 C36 1.350 . S
H39 C34 0.930 1_565 S
H40 C35 0.930 . S
C41 O42 1.224 . S
C41 O60 1.247 . S
O42 C41 1.224 . S
N43 Co33 2.128 . S
N43 C44 1.355 . S
N43 C46 1.311 . S
C44 N43 1.355 . S
C44 C45 1.363 . S
C44 H56 0.929 . S
C45 C44 1.363 . S
C45 N47 1.375 . S
C45 H63 0.931 . S
C46 N43 1.311 . S
C46 N47 1.347 . S
C46 H57 0.929 . S
N47 C45 1.375 . S
N47 C46 1.347 . S
C48 C51 1.365 . S
C48 N53 1.328 . S
C48 H54 0.929 . S
C49 C50 1.362 . S
C49 C52 1.378 . S
C49 H64 0.929 . S
C50 C49 1.362 . S
C50 C51 1.366 . S
C51 C48 1.365 . S
C51 C50 1.366 . S
C51 H65 0.930 . S
C52 C49 1.378 . S
C52 N53 1.315 . S
C52 H55 0.930 . S
N53 Co33 2.194 . S
N53 C48 1.328 . S
N53 C52 1.315 . S
H54 C48 0.929 . S
H55 C52 0.930 . S
H56 C44 0.929 . S
H57 C46 0.929 . S
O58 Co33 2.351 . S
O58 C61 1.244 1_545 S
O59 Co33 2.155 . S
O59 C61 1.240 1_545 S
O60 Co33 2.096 . S
O60 C41 1.247 . S
C61 O58 1.244 1_565 S
C61 O59 1.240 1_565 S
H62 C36 0.931 . S
H63 C45 0.931 . S
H64 C49 0.929 . S
H65 C51 0.930 . S
Co66 N70 2.148 . S
Co66 N76 2.128 . S
Co66 N86 2.194 . S
Co66 O91 2.351 . S
Co66 O92 2.155 . S
Co66 O93 2.096 . S
C67 N70 1.301 . S
C67 N71 1.328 . S
C67 H72 0.930 . S
C68 C69 1.333 . S
C68 N70 1.317 . S
C68 H73 0.930 . S
C69 C68 1.333 . S
C69 N71 1.350 . S
C69 H95 0.931 . S
N70 Co66 2.148 . S
N70 C67 1.301 . S
N70 C68 1.317 . S
N71 C67 1.328 . S
N71 C69 1.350 . S
H72 C67 0.930 . S
H73 C68 0.930 . S
C74 O75 1.224 . S
C74 O93 1.247 . S
O75 C74 1.224 . S
N76 Co66 2.128 . S
N76 C77 1.355 . S
N76 C79 1.311 . S
C77 N76 1.355 . S
C77 C78 1.363 . S
C77 H89 0.929 . S
C78 C77 1.363 . S
C78 N80 1.375 . S
C78 H96 0.931 . S
C79 N76 1.311 . S
C79 N80 1.347 . S
C79 H90 0.929 . S
N80 C78 1.375 . S
N80 C79 1.347 . S
C81 C84 1.365 . S
C81 N86 1.328 . S
C81 H87 0.929 . S
C82 C83 1.362 . S
C82 C85 1.378 . S
C82 H97 0.929 . S
C83 C82 1.362 . S
C83 C84 1.366 . S
C84 C81 1.365 . S
C84 C83 1.366 . S
C84 H98 0.930 . S
C85 C82 1.378 . S
C85 N86 1.315 . S
C85 H88 0.930 . S
N86 Co66 2.194 . S
N86 C81 1.328 . S
N86 C85 1.315 . S
H87 C81 0.929 . S
H88 C85 0.930 . S
H89 C77 0.929 . S
H90 C79 0.929 . S
O91 Co66 2.351 . S
O91 C94 1.244 . S
O92 Co66 2.155 . S
O92 C94 1.240 . S
O93 Co66 2.096 . S
O93 C74 1.247 . S
C94 O91 1.244 . S
C94 O92 1.240 . S
H95 C69 0.931 . S
H96 C78 0.931 . S
H97 C82 0.929 . S
H98 C84 0.930 . S
Co99 N103 2.148 . S
Co99 N109 2.128 . S
Co99 N119 2.194 . S
Co99 O124 2.351 . S
Co99 O125 2.155 . S
Co99 O126 2.096 . S
C100 N103 1.301 . S
C100 N104 1.328 . S
C100 H105 0.930 1_655 S
C101 C102 1.333 . S
C101 N103 1.317 . S
C101 H106 0.930 . S
C102 C101 1.333 . S
C102 N104 1.350 . S
C102 H128 0.931 . S
N103 Co99 2.148 . S
N103 C100 1.301 . S
N103 C101 1.317 . S
N104 C100 1.328 . S
N104 C102 1.350 . S
H105 C100 0.930 1_455 S
H106 C101 0.930 . S
C107 O108 1.224 . S
C107 O126 1.247 . S
O108 C107 1.224 . S
N109 Co99 2.128 . S
N109 C110 1.355 . S
N109 C112 1.311 . S
C110 N109 1.355 . S
C110 C111 1.363 . S
C110 H122 0.929 . S
C111 C110 1.363 . S
C111 N113 1.375 . S
C111 H129 0.931 . S
C112 N109 1.311 . S
C112 N113 1.347 . S
C112 H123 0.929 . S
N113 C111 1.375 . S
N113 C112 1.347 . S
C114 C117 1.365 . S
C114 N119 1.328 . S
C114 H120 0.929 . S
C115 C116 1.362 . S
C115 C118 1.378 . S
C115 H130 0.929 . S
C116 C115 1.362 . S
C116 C117 1.366 . S
C117 C114 1.365 . S
C117 C116 1.366 . S
C117 H131 0.930 . S
C118 C115 1.378 . S
C118 N119 1.315 . S
C118 H121 0.930 . S
N119 Co99 2.194 . S
N119 C114 1.328 . S
N119 C118 1.315 . S
H120 C114 0.929 . S
H121 C118 0.930 . S
H122 C110 0.929 . S
H123 C112 0.929 . S
O124 Co99 2.351 . S
O124 C127 1.244 1_655 S
O125 Co99 2.155 . S
O125 C127 1.240 1_655 S
O126 Co99 2.096 . S
O126 C107 1.247 . S
C127 O124 1.244 1_455 S
C127 O125 1.240 1_455 S
H128 C102 0.931 . S
H129 C111 0.931 . S
H130 C115 0.929 . S
H131 C117 0.930 . S
Co132 N136 2.148 . S
Co132 N142 2.128 . S
Co132 N152 2.194 . S
Co132 O157 2.351 . S
Co132 O158 2.155 . S
Co132 O159 2.096 . S
C133 N136 1.301 . S
C133 N137 1.328 . S
C133 H138 0.930 1_565 S
C134 C135 1.333 . S
C134 N136 1.317 . S
C134 H139 0.930 . S
C135 C134 1.333 . S
C135 N137 1.350 . S
C135 H161 0.931 . S
N136 Co132 2.148 . S
N136 C133 1.301 . S
N136 C134 1.317 . S
N137 C133 1.328 . S
N137 C135 1.350 . S
H138 C133 0.930 1_545 S
H139 C134 0.930 . S
C140 O141 1.224 . S
C140 O159 1.247 . S
O141 C140 1.224 . S
N142 Co132 2.128 . S
N142 C143 1.355 . S
N142 C145 1.311 . S
C143 N142 1.355 . S
C143 C144 1.363 . S
C143 H155 0.929 . S
C144 C143 1.363 . S
C144 N146 1.375 . S
C144 H162 0.931 . S
C145 N142 1.311 . S
C145 N146 1.347 . S
C145 H156 0.929 . S
N146 C144 1.375 . S
N146 C145 1.347 . S
C147 C150 1.365 . S
C147 N152 1.328 . S
C147 H153 0.929 . S
C148 C149 1.362 . S
C148 C151 1.378 . S
C148 H163 0.929 . S
C149 C148 1.362 . S
C149 C150 1.366 . S
C150 C147 1.365 . S
C150 C149 1.366 . S
C150 H164 0.930 . S
C151 C148 1.378 . S
C151 N152 1.315 . S
C151 H154 0.930 . S
N152 Co132 2.194 . S
N152 C147 1.328 . S
N152 C151 1.315 . S
H153 C147 0.929 . S
H154 C151 0.930 . S
H155 C143 0.929 . S
H156 C145 0.929 . S
O157 Co132 2.351 . S
O157 C160 1.244 1_565 S
O158 Co132 2.155 . S
O158 C160 1.240 1_565 S
O159 Co132 2.096 . S
O159 C140 1.247 . S
C160 O157 1.244 1_545 S
C160 O158 1.240 1_545 S
H161 C135 0.931 . S
H162 C144 0.931 . S
H163 C148 0.929 . S
H164 C150 0.930 . S
Co165 N169 2.148 . S
Co165 N175 2.128 . S
Co165 N185 2.194 . S
Co165 O190 2.351 . S
Co165 O191 2.155 . S
Co165 O192 2.096 . S
C166 N169 1.301 . S
C166 N170 1.328 . S
C166 H171 0.930 . S
C167 C168 1.333 . S
C167 N169 1.317 . S
C167 H172 0.930 . S
C168 C167 1.333 . S
C168 N170 1.350 . S
C168 H194 0.931 . S
N169 Co165 2.148 . S
N169 C166 1.301 . S
N169 C167 1.317 . S
N170 C166 1.328 . S
N170 C168 1.350 . S
H171 C166 0.930 . S
H172 C167 0.930 . S
C173 O174 1.224 . S
C173 O192 1.247 . S
O174 C173 1.224 . S
N175 Co165 2.128 . S
N175 C176 1.355 . S
N175 C178 1.311 . S
C176 N175 1.355 . S
C176 C177 1.363 1_556 S
C176 H188 0.929 . S
C177 C176 1.363 1_554 S
C177 N179 1.375 . S
C177 H195 0.931 . S
C178 N175 1.311 . S
C178 N179 1.347 1_556 S
C178 H189 0.929 . S
N179 C177 1.375 . S
N179 C178 1.347 1_554 S
C180 C183 1.365 . S
C180 N185 1.328 . S
C180 H186 0.929 . S
C181 C182 1.362 . S
C181 C184 1.378 . S
C181 H196 0.929 . S
C182 C181 1.362 . S
C182 C183 1.366 . S
C183 C180 1.365 . S
C183 C182 1.366 . S
C183 H197 0.930 . S
C184 C181 1.378 . S
C184 N185 1.315 . S
C184 H187 0.930 . S
N185 Co165 2.194 . S
N185 C180 1.328 . S
N185 C184 1.315 . S
H186 C180 0.929 . S
H187 C184 0.930 . S
H188 C176 0.929 . S
H189 C178 0.929 . S
O190 Co165 2.351 . S
O190 C193 1.244 . S
O191 Co165 2.155 . S
O191 C193 1.240 . S
O192 Co165 2.096 . S
O192 C173 1.247 . S
C193 O190 1.244 . S
C193 O191 1.240 . S
H194 C168 0.931 . S
H195 C177 0.931 . S
H196 C181 0.929 . S
H197 C183 0.930 . S
Co198 N202 2.148 . S
Co198 N208 2.128 . S
Co198 N218 2.194 . S
Co198 O223 2.351 . S
Co198 O224 2.155 . S
Co198 O225 2.096 . S
C199 N202 1.301 . S
C199 N203 1.328 . S
C199 H204 0.930 1_565 S
C200 C201 1.333 . S
C200 N202 1.317 . S
C200 H205 0.930 . S
C201 C200 1.333 . S
C201 N203 1.350 . S
C201 H227 0.931 . S
N202 Co198 2.148 . S
N202 C199 1.301 . S
N202 C200 1.317 . S
N203 C199 1.328 . S
N203 C201 1.350 . S
H204 C199 0.930 1_545 S
H205 C200 0.930 . S
C206 O207 1.224 . S
C206 O225 1.247 . S
O207 C206 1.224 . S
N208 Co198 2.128 . S
N208 C209 1.355 . S
N208 C211 1.311 . S
C209 N208 1.355 . S
C209 C210 1.363 . S
C209 H221 0.929 . S
C210 C209 1.363 . S
C210 N212 1.375 . S
C210 H228 0.931 . S
C211 N208 1.311 . S
C211 N212 1.347 . S
C211 H222 0.929 . S
N212 C210 1.375 . S
N212 C211 1.347 . S
C213 C216 1.365 . S
C213 N218 1.328 . S
C213 H219 0.929 . S
C214 C215 1.362 . S
C214 C217 1.378 . S
C214 H229 0.929 . S
C215 C214 1.362 . S
C215 C216 1.366 . S
C216 C213 1.365 . S
C216 C215 1.366 . S
C216 H230 0.930 . S
C217 C214 1.378 . S
C217 N218 1.315 . S
C217 H220 0.930 . S
N218 Co198 2.194 . S
N218 C213 1.328 . S
N218 C217 1.315 . S
H219 C213 0.929 . S
H220 C217 0.930 . S
H221 C209 0.929 . S
H222 C211 0.929 . S
O223 Co198 2.351 . S
O223 C226 1.244 1_565 S
O224 Co198 2.155 . S
O224 C226 1.240 1_565 S
O225 Co198 2.096 . S
O225 C206 1.247 . S
C226 O223 1.244 1_545 S
C226 O224 1.240 1_545 S
H227 C201 0.931 . S
H228 C210 0.931 . S
H229 C214 0.929 . S
H230 C216 0.930 . S
Co231 N235 2.148 1_556 S
Co231 N241 2.128 . S
Co231 N251 2.194 . S
Co231 O256 2.351 . S
Co231 O257 2.155 . S
Co231 O258 2.096 . S
C232 N235 1.301 . S
C232 N236 1.328 . S
C232 H237 0.930 . S
C233 C234 1.333 . S
C233 N235 1.317 . S
C233 H238 0.930 . S
C234 C233 1.333 . S
C234 N236 1.350 . S
C234 H260 0.931 . S
N235 Co231 2.148 1_554 S
N235 C232 1.301 . S
N235 C233 1.317 . S
N236 C232 1.328 . S
N236 C234 1.350 . S
H237 C232 0.930 . S
H238 C233 0.930 . S
C239 O240 1.224 . S
C239 O258 1.247 . S
O240 C239 1.224 . S
N241 Co231 2.128 . S
N241 C242 1.355 . S
N241 C244 1.311 . S
C242 N241 1.355 . S
C242 C243 1.363 . S
C242 H254 0.929 . S
C243 C242 1.363 . S
C243 N245 1.375 . S
C243 H261 0.931 . S
C244 N241 1.311 . S
C244 N245 1.347 . S
C244 H255 0.929 . S
N245 C243 1.375 . S
N245 C244 1.347 . S
C246 C249 1.365 . S
C246 N251 1.328 . S
C246 H252 0.929 . S
C247 C248 1.362 . S
C247 C250 1.378 . S
C247 H262 0.929 . S
C248 C247 1.362 . S
C248 C249 1.366 . S
C249 C246 1.365 . S
C249 C248 1.366 . S
C249 H263 0.930 . S
C250 C247 1.378 . S
C250 N251 1.315 . S
C250 H253 0.930 . S
N251 Co231 2.194 . S
N251 C246 1.328 . S
N251 C250 1.315 . S
H252 C246 0.929 . S
H253 C250 0.930 . S
H254 C242 0.929 . S
H255 C244 0.929 . S
O256 Co231 2.351 . S
O256 C259 1.244 . S
O257 Co231 2.155 . S
O257 C259 1.240 . S
O258 Co231 2.096 . S
O258 C239 1.247 . S
C259 O256 1.244 . S
C259 O257 1.240 . S
H260 C234 0.931 . S
H261 C243 0.931 . S
H262 C247 0.929 . S
H263 C249 0.930 . S
Co264 N268 2.148 . S
Co264 N274 2.128 . S
Co264 N284 2.194 . S
Co264 O289 2.351 . S
Co264 O290 2.155 . S
Co264 O291 2.096 . S
C265 N268 1.301 . S
C265 N269 1.328 . S
C265 H270 0.920 1_455 S
C266 C267 1.333 . S
C266 N268 1.317 . S
C266 H271 0.930 . S
C267 C266 1.333 . S
C267 N269 1.350 . S
C267 H293 0.931 . S
N268 Co264 2.148 . S
N268 C265 1.301 . S
N268 C266 1.317 . S
N269 C265 1.328 . S
N269 C267 1.350 . S
H270 C265 0.920 1_655 S
H271 C266 0.930 . S
C272 O273 1.224 . S
C272 O291 1.247 . S
O273 C272 1.224 . S
N274 Co264 2.128 . S
N274 C275 1.355 . S
N274 C277 1.311 . S
C275 N274 1.355 . S
C275 C276 1.363 1_554 S
C275 H287 0.929 . S
C276 C275 1.363 1_556 S
C276 N278 1.375 . S
C276 H294 0.931 . S
C277 N274 1.311 . S
C277 N278 1.347 1_554 S
C277 H288 0.929 . S
N278 C276 1.375 . S
N278 C277 1.347 1_556 S
C279 C282 1.365 . S
C279 N284 1.328 . S
C279 H285 0.929 . S
C280 C281 1.362 . S
C280 C283 1.378 . S
C280 H295 0.929 . S
C281 C280 1.362 . S
C281 C282 1.366 . S
C282 C279 1.365 . S
C282 C281 1.366 . S
C282 H296 0.930 . S
C283 C280 1.378 . S
C283 N284 1.315 . S
C283 H286 0.930 . S
N284 Co264 2.194 . S
N284 C279 1.328 . S
N284 C283 1.315 . S
H285 C279 0.929 . S
H286 C283 0.930 . S
H287 C275 0.929 . S
H288 C277 0.929 . S
O289 Co264 2.351 . S
O289 C292 1.244 1_455 S
O290 Co264 2.155 . S
O290 C292 1.240 1_455 S
O291 Co264 2.096 . S
O291 C272 1.247 . S
C292 O289 1.244 1_655 S
C292 O290 1.240 1_655 S
H293 C267 0.931 . S
H294 C276 0.931 . S
H295 C280 0.929 . S
H296 C282 0.930 . S
Co297 N301 2.148 . S
Co297 N307 2.128 . S
Co297 N317 2.194 . S
Co297 O322 2.351 . S
Co297 O323 2.155 . S
Co297 O324 2.096 . S
C298 N301 1.301 . S
C298 N302 1.328 . S
C298 H303 0.930 1_545 S
C299 C300 1.333 . S
C299 N301 1.317 . S
C299 H304 0.930 . S
C300 C299 1.333 . S
C300 N302 1.350 . S
C300 H326 0.931 . S
N301 Co297 2.148 . S
N301 C298 1.301 . S
N301 C299 1.317 . S
N302 C298 1.328 . S
N302 C300 1.350 . S
H303 C298 0.930 1_565 S
H304 C299 0.930 . S
C305 O306 1.224 . S
C305 O324 1.247 . S
O306 C305 1.224 . S
N307 Co297 2.128 . S
N307 C308 1.355 . S
N307 C310 1.311 . S
C308 N307 1.355 . S
C308 C309 1.363 . S
C308 H320 0.929 . S
C309 C308 1.363 . S
C309 N311 1.375 . S
C309 H327 0.931 . S
C310 N307 1.311 . S
C310 N311 1.347 . S
C310 H321 0.929 . S
N311 C309 1.375 . S
N311 C310 1.347 . S
C312 C315 1.365 . S
C312 N317 1.328 . S
C312 H318 0.929 . S
C313 C314 1.362 . S
C313 C316 1.378 . S
C313 H328 0.929 . S
C314 C313 1.362 . S
C314 C315 1.366 . S
C315 C312 1.365 . S
C315 C314 1.366 . S
C315 H329 0.930 . S
C316 C313 1.378 . S
C316 N317 1.315 . S
C316 H319 0.930 . S
N317 Co297 2.194 . S
N317 C312 1.328 . S
N317 C316 1.315 . S
H318 C312 0.929 . S
H319 C316 0.930 . S
H320 C308 0.929 . S
H321 C310 0.929 . S
O322 Co297 2.351 . S
O322 C325 1.244 1_545 S
O323 Co297 2.155 . S
O323 C325 1.240 1_545 S
O324 Co297 2.096 . S
O324 C305 1.247 . S
C325 O322 1.244 1_565 S
C325 O323 1.240 1_565 S
H326 C300 0.931 . S
H327 C309 0.931 . S
H328 C313 0.929 . S
H329 C315 0.930 . S
Co330 N334 2.148 . S
Co330 N340 2.128 . S
Co330 N350 2.194 . S
Co330 O355 2.351 . S
Co330 O356 2.155 . S
Co330 O357 2.096 . S
C331 N334 1.301 . S
C331 N335 1.328 . S
C331 H336 0.930 . S
C332 C333 1.333 . S
C332 N334 1.317 . S
C332 H337 0.930 . S
C333 C332 1.333 . S
C333 N335 1.350 . S
C333 H359 0.931 . S
N334 Co330 2.148 . S
N334 C331 1.301 . S
N334 C332 1.317 . S
N335 C331 1.328 . S
N335 C333 1.350 . S
H336 C331 0.930 . S
H337 C332 0.930 . S
C338 O339 1.224 . S
C338 O357 1.247 . S
O339 C338 1.224 . S
N340 Co330 2.128 . S
N340 C341 1.355 . S
N340 C343 1.311 . S
C341 N340 1.355 . S
C341 C342 1.363 . S
C341 H353 0.929 . S
C342 C341 1.363 . S
C342 N344 1.375 . S
C342 H360 0.931 . S
C343 N340 1.311 . S
C343 N344 1.347 . S
C343 H354 0.929 . S
N344 C342 1.375 . S
N344 C343 1.347 . S
C345 C348 1.365 . S
C345 N350 1.328 . S
C345 H351 0.929 . S
C346 C347 1.362 . S
C346 C349 1.378 . S
C346 H361 0.929 . S
C347 C346 1.362 . S
C347 C348 1.366 . S
C348 C345 1.365 . S
C348 C347 1.366 . S
C348 H362 0.930 . S
C349 C346 1.378 . S
C349 N350 1.315 . S
C349 H352 0.930 . S
N350 Co330 2.194 . S
N350 C345 1.328 . S
N350 C349 1.315 . S
H351 C345 0.929 . S
H352 C349 0.930 . S
H353 C341 0.929 . S
H354 C343 0.929 . S
O355 Co330 2.351 . S
O355 C358 1.244 . S
O356 Co330 2.155 . S
O356 C358 1.240 . S
O357 Co330 2.096 . S
O357 C338 1.247 . S
C358 O355 1.244 . S
C358 O356 1.240 . S
H359 C333 0.931 . S
H360 C342 0.931 . S
H361 C346 0.929 . S
H362 C348 0.930 . S
Co363 N367 2.148 . S
Co363 N373 2.128 . S
Co363 N383 2.194 . S
Co363 O388 2.351 . S
Co363 O389 2.155 . S
Co363 O390 2.096 . S
C364 N367 1.301 . S
C364 N368 1.328 . S
C364 H369 0.930 1_655 S
C365 C366 1.333 . S
C365 N367 1.317 . S
C365 H370 0.930 . S
C366 C365 1.333 . S
C366 N368 1.350 . S
C366 H392 0.931 . S
N367 Co363 2.148 . S
N367 C364 1.301 . S
N367 C365 1.317 . S
N368 C364 1.328 . S
N368 C366 1.350 . S
H369 C364 0.930 1_455 S
H370 C365 0.930 . S
C371 O372 1.224 . S
C371 O390 1.247 . S
O372 C371 1.224 . S
N373 Co363 2.128 . S
N373 C374 1.355 . S
N373 C376 1.311 . S
C374 N373 1.355 . S
C374 C375 1.363 . S
C374 H386 0.929 . S
C375 C374 1.363 . S
C375 N377 1.375 . S
C375 H393 0.931 . S
C376 N373 1.311 . S
C376 N377 1.347 . S
C376 H387 0.929 . S
N377 C375 1.375 . S
N377 C376 1.347 . S
C378 C381 1.365 . S
C378 N383 1.328 . S
C378 H384 0.929 . S
C379 C380 1.362 . S
C379 C382 1.378 . S
C379 H394 0.929 . S
C380 C379 1.362 . S
C380 C381 1.366 . S
C381 C378 1.365 . S
C381 C380 1.366 . S
C381 H395 0.930 . S
C382 C379 1.378 . S
C382 N383 1.315 . S
C382 H385 0.930 . S
N383 Co363 2.194 . S
N383 C378 1.328 . S
N383 C382 1.315 . S
H384 C378 0.929 . S
H385 C382 0.930 . S
H386 C374 0.929 . S
H387 C376 0.929 . S
O388 Co363 2.351 . S
O388 C391 1.244 1_655 S
O389 Co363 2.155 . S
O389 C391 1.240 1_655 S
O390 Co363 2.096 . S
O390 C371 1.247 . S
C391 O388 1.244 1_455 S
C391 O389 1.240 1_455 S
H392 C366 0.931 . S
H393 C375 0.931 . S
H394 C379 0.929 . S
H395 C381 0.930 . S
C396 C397 1.363 . S
C396 C402 1.379 . S
C396 N404 1.356 . S
C397 C396 1.363 . S
C397 C403 1.363 . S
C398 C399 1.363 . S
C398 C403 1.379 . S
C398 N405 1.356 . S
C399 C398 1.363 . S
C399 C402 1.363 . S
N400 C402 1.356 . S
N400 H412 0.984 . S
N400 H413 0.985 . S
N401 C403 1.356 . S
N401 H406 0.984 . S
N401 H407 0.985 . S
C402 C396 1.379 . S
C402 C399 1.363 . S
C402 N400 1.356 . S
C403 C397 1.363 . S
C403 C398 1.379 . S
C403 N401 1.356 . S
N404 C396 1.356 . S
N404 H410 0.984 . S
N404 H411 0.984 . S
N405 C398 1.356 . S
N405 H408 0.984 . S
N405 H409 0.985 . S
H406 N401 0.984 . S
H407 N401 0.985 . S
H408 N405 0.984 . S
H409 N405 0.985 . S
H410 N404 0.984 . S
H411 N404 0.984 . S
H412 N400 0.984 . S
H413 N400 0.985 . S
C414 C415 1.363 . S
C414 C420 1.379 . S
C414 N422 1.356 . S
C415 C414 1.363 . S
C415 C421 1.363 . S
C416 C417 1.363 . S
C416 C421 1.379 . S
C416 N423 1.356 . S
C417 C416 1.363 . S
C417 C420 1.363 . S
N418 C420 1.356 . S
N418 H430 0.984 . S
N418 H431 0.985 . S
N419 C421 1.356 . S
N419 H424 0.984 . S
N419 H425 0.985 . S
C420 C414 1.379 . S
C420 C417 1.363 . S
C420 N418 1.356 . S
C421 C415 1.363 . S
C421 C416 1.379 . S
C421 N419 1.356 . S
N422 C414 1.356 . S
N422 H428 0.984 . S
N422 H429 0.984 . S
N423 C416 1.356 . S
N423 H426 0.984 . S
N423 H427 0.985 . S
H424 N419 0.984 . S
H425 N419 0.985 . S
H426 N423 0.984 . S
H427 N423 0.985 . S
H428 N422 0.984 . S
H429 N422 0.984 . S
H430 N418 0.984 . S
H431 N418 0.985 . S
C432 C433 1.363 . S
C432 C438 1.379 . S
C432 N440 1.356 . S
C433 C432 1.363 . S
C433 C439 1.363 . S
C434 C435 1.363 . S
C434 C439 1.379 . S
C434 N441 1.356 . S
C435 C434 1.363 . S
C435 C438 1.363 . S
N436 C438 1.356 . S
N436 H448 0.984 . S
N436 H449 0.985 . S
N437 C439 1.356 . S
N437 H442 0.984 . S
N437 H443 0.985 . S
C438 C432 1.379 . S
C438 C435 1.363 . S
C438 N436 1.356 . S
C439 C433 1.363 . S
C439 C434 1.379 . S
C439 N437 1.356 . S
N440 C432 1.356 . S
N440 H446 0.984 . S
N440 H447 0.984 . S
N441 C434 1.356 . S
N441 H444 0.984 . S
N441 H445 0.985 . S
H442 N437 0.984 . S
H443 N437 0.985 . S
H444 N441 0.984 . S
H445 N441 0.985 . S
H446 N440 0.984 . S
H447 N440 0.984 . S
H448 N436 0.984 . S
H449 N436 0.985 . S
C450 C451 1.363 . S
C450 C456 1.379 . S
C450 N458 1.356 . S
C451 C450 1.363 . S
C451 C457 1.363 . S
C452 C453 1.363 . S
C452 C457 1.379 . S
C452 N459 1.356 . S
C453 C452 1.363 . S
C453 C456 1.363 . S
N454 C456 1.356 . S
N454 H466 0.984 . S
N454 H467 0.985 . S
N455 C457 1.356 . S
N455 H460 0.984 . S
N455 H461 0.985 . S
C456 C450 1.379 . S
C456 C453 1.363 . S
C456 N454 1.356 . S
C457 C451 1.363 . S
C457 C452 1.379 . S
C457 N455 1.356 . S
N458 C450 1.356 . S
N458 H464 0.984 . S
N458 H465 0.984 . S
N459 C452 1.356 . S
N459 H462 0.984 . S
N459 H463 0.985 . S
H460 N455 0.984 . S
H461 N455 0.985 . S
H462 N459 0.984 . S
H463 N459 0.985 . S
H464 N458 0.984 . S
H465 N458 0.984 . S
H466 N454 0.984 . S
H467 N454 0.985 . S
C468 C469 1.363 . S
C468 C474 1.379 . S
C468 N476 1.356 . S
C469 C468 1.363 . S
C469 C475 1.363 . S
C470 C471 1.363 . S
C470 C475 1.379 . S
C470 N477 1.356 . S
C471 C470 1.363 . S
C471 C474 1.363 . S
N472 C474 1.356 . S
N472 H484 0.984 . S
N472 H485 0.985 . S
N473 C475 1.356 . S
N473 H478 0.984 . S
N473 H479 0.985 . S
C474 C468 1.379 . S
C474 C471 1.363 . S
C474 N472 1.356 . S
C475 C469 1.363 . S
C475 C470 1.379 . S
C475 N473 1.356 . S
N476 C468 1.356 . S
N476 H482 0.984 . S
N476 H483 0.984 . S
N477 C470 1.356 . S
N477 H480 0.984 1_556 S
N477 H481 0.985 1_556 S
H478 N473 0.984 . S
H479 N473 0.985 . S
H480 N477 0.984 1_554 S
H481 N477 0.985 1_554 S
H482 N476 0.984 . S
H483 N476 0.984 . S
H484 N472 0.984 . S
H485 N472 0.985 . S
C486 C487 1.363 . S
C486 C492 1.379 . S
C486 N494 1.356 . S
C487 C486 1.363 . S
C487 C493 1.363 . S
C488 C489 1.363 . S
C488 C493 1.379 . S
C488 N495 1.356 . S
C489 C488 1.363 . S
C489 C492 1.363 . S
N490 C492 1.356 . S
N490 H502 0.984 . S
N490 H503 0.985 . S
N491 C493 1.356 . S
N491 H496 0.984 . S
N491 H497 0.985 . S
C492 C486 1.379 . S
C492 C489 1.363 . S
C492 N490 1.356 . S
C493 C487 1.363 . S
C493 C488 1.379 . S
C493 N491 1.356 . S
N494 C486 1.356 . S
N494 H500 0.984 . S
N494 H501 0.984 1_554 S
N495 C488 1.356 . S
N495 H498 0.984 . S
N495 H499 0.985 . S
H496 N491 0.984 . S
H497 N491 0.985 . S
H498 N495 0.984 . S
H499 N495 0.985 . S
H500 N494 0.984 . S
H501 N494 0.984 1_556 S
H502 N490 0.984 . S
H503 N490 0.985 . S
C504 C505 1.363 . S
C504 C510 1.379 . S
C504 N512 1.356 . S
C505 C504 1.363 . S
C505 C511 1.363 . S
C506 C507 1.363 . S
C506 C511 1.379 . S
C506 N513 1.356 . S
C507 C506 1.363 . S
C507 C510 1.363 . S
N508 C510 1.356 . S
N508 H520 0.984 . S
N508 H521 0.985 . S
N509 C511 1.356 . S
N509 H514 0.984 . S
N509 H515 0.985 1_554 S
C510 C504 1.379 . S
C510 C507 1.363 . S
C510 N508 1.356 . S
C511 C505 1.363 . S
C511 C506 1.379 . S
C511 N509 1.356 . S
N512 C504 1.356 . S
N512 H518 0.984 . S
N512 H519 0.984 . S
N513 C506 1.356 . S
N513 H516 0.984 . S
N513 H517 0.985 . S
H514 N509 0.984 . S
H515 N509 0.985 1_556 S
H516 N513 0.984 . S
H517 N513 0.985 . S
H518 N512 0.984 . S
H519 N512 0.984 . S
H520 N508 0.984 . S
H521 N508 0.985 . S
C522 C523 1.363 . S
C522 C528 1.379 . S
C522 N530 1.356 . S
C523 C522 1.363 . S
C523 C529 1.363 . S
C524 C525 1.363 . S
C524 C529 1.379 . S
C524 N531 1.356 . S
C525 C524 1.363 . S
C525 C528 1.363 . S
N526 C528 1.356 . S
N526 H538 0.984 . S
N526 H539 0.985 . S
N527 C529 1.356 . S
N527 H532 0.984 . S
N527 H533 0.985 . S
C528 C522 1.379 . S
C528 C525 1.363 . S
C528 N526 1.356 . S
C529 C523 1.363 . S
C529 C524 1.379 . S
C529 N527 1.356 . S
N530 C522 1.356 . S
N530 H536 0.984 . S
N530 H537 0.984 . S
N531 C524 1.356 . S
N531 H534 0.984 . S
N531 H535 0.985 . S
H532 N527 0.984 . S
H533 N527 0.985 . S
H534 N531 0.984 . S
H535 N531 0.985 . S
H536 N530 0.984 . S
H537 N530 0.984 . S
H538 N526 0.984 . S
H539 N526 0.985 . S
C540 C541 1.363 . S
C540 C546 1.379 . S
C540 N548 1.356 . S
C541 C540 1.363 . S
C541 C547 1.363 . S
C542 C543 1.363 . S
C542 C547 1.379 . S
C542 N549 1.356 . S
C543 C542 1.363 . S
C543 C546 1.363 . S
N544 C546 1.356 . S
N544 H556 0.984 . S
N544 H557 0.985 . S
N545 C547 1.356 . S
N545 H550 0.984 . S
N545 H551 0.985 . S
C546 C540 1.379 . S
C546 C543 1.363 . S
C546 N544 1.356 . S
C547 C541 1.363 . S
C547 C542 1.379 . S
C547 N545 1.356 . S
N548 C540 1.356 . S
N548 H554 0.984 . S
N548 H555 0.984 . S
N549 C542 1.356 . S
N549 H552 0.984 . S
N549 H553 0.985 . S
H550 N545 0.984 . S
H551 N545 0.985 . S
H552 N549 0.984 . S
H553 N549 0.985 . S
H554 N548 0.984 . S
H555 N548 0.984 . S
H556 N544 0.984 . S
H557 N544 0.985 . S
C558 C559 1.363 . S
C558 C564 1.379 . S
C558 N566 1.356 . S
C559 C558 1.363 . S
C559 C565 1.363 . S
C560 C561 1.363 . S
C560 C565 1.379 . S
C560 N567 1.356 . S
C561 C560 1.363 . S
C561 C564 1.363 . S
N562 C564 1.356 . S
N562 H574 0.984 . S
N562 H575 0.985 . S
N563 C565 1.356 . S
N563 H568 0.984 . S
N563 H569 0.985 . S
C564 C558 1.379 . S
C564 C561 1.363 . S
C564 N562 1.356 . S
C565 C559 1.363 . S
C565 C560 1.379 . S
C565 N563 1.356 . S
N566 C558 1.356 . S
N566 H572 0.984 . S
N566 H573 0.984 . S
N567 C560 1.356 . S
N567 H570 0.984 . S
N567 H571 0.985 . S
H568 N563 0.984 . S
H569 N563 0.985 . S
H570 N567 0.984 . S
H571 N567 0.985 . S
H572 N566 0.984 . S
H573 N566 0.984 . S
H574 N562 0.984 . S
H575 N562 0.985 . S
C576 C577 1.363 . S
C576 C582 1.379 . S
C576 N584 1.356 . S
C577 C576 1.363 . S
C577 C583 1.363 . S
C578 C579 1.363 . S
C578 C583 1.379 . S
C578 N585 1.356 . S
C579 C578 1.363 . S
C579 C582 1.363 . S
N580 C582 1.356 . S
N580 H592 0.984 . S
N580 H593 0.985 . S
N581 C583 1.356 . S
N581 H586 0.984 . S
N581 H587 0.985 . S
C582 C576 1.379 . S
C582 C579 1.363 . S
C582 N580 1.356 . S
C583 C577 1.363 . S
C583 C578 1.379 . S
C583 N581 1.356 . S
N584 C576 1.356 . S
N584 H590 0.984 . S
N584 H591 0.984 . S
N585 C578 1.356 . S
N585 H588 0.984 . S
N585 H589 0.985 . S
H586 N581 0.984 . S
H587 N581 0.985 . S
H588 N585 0.984 . S
H589 N585 0.985 . S
H590 N584 0.984 . S
H591 N584 0.984 . S
H592 N580 0.984 . S
H593 N580 0.985 . S
C594 C595 1.363 . S
C594 C600 1.379 . S
C594 N602 1.356 . S
C595 C594 1.363 . S
C595 C601 1.363 . S
C596 C597 1.363 . S
C596 C601 1.379 . S
C596 N603 1.356 . S
C597 C596 1.363 . S
C597 C600 1.363 . S
N598 C600 1.356 . S
N598 H610 0.984 1_556 S
N598 H611 0.985 . S
N599 C601 1.356 . S
N599 H604 0.984 . S
N599 H605 0.985 . S
C600 C594 1.379 . S
C600 C597 1.363 . S
C600 N598 1.356 . S
C601 C595 1.363 . S
C601 C596 1.379 . S
C601 N599 1.356 . S
N602 C594 1.356 . S
N602 H608 0.984 . S
N602 H609 0.984 . S
N603 C596 1.356 . S
N603 H606 0.984 . S
N603 H607 0.985 . S
H604 N599 0.984 . S
H605 N599 0.985 . S
H606 N603 0.984 . S
H607 N603 0.985 . S
H608 N602 0.984 . S
H609 N602 0.984 . S
H610 N598 0.984 1_554 S
H611 N598 0.985 . S
C612 C613 1.363 . S
C612 C618 1.379 . S
C612 N620 1.356 . S
C613 C612 1.363 . S
C613 C619 1.363 1_455 S
C614 C615 1.363 . S
C614 C619 1.379 . S
C614 N621 1.356 . S
C615 C614 1.363 . S
C615 C618 1.363 1_655 S
N616 C618 1.356 . S
N616 H628 0.984 . S
N616 H629 0.985 . S
N617 C619 1.356 . S
N617 H622 0.984 . S
N617 H623 0.985 . S
C618 C612 1.379 . S
C618 C615 1.363 1_455 S
C618 N616 1.356 . S
C619 C613 1.363 1_655 S
C619 C614 1.379 . S
C619 N617 1.356 . S
N620 C612 1.356 . S
N620 H626 0.984 . S
N620 H627 0.984 . S
N621 C614 1.356 . S
N621 H624 0.984 . S
N621 H625 0.985 . S
H622 N617 0.984 . S
H623 N617 0.985 . S
H624 N621 0.984 . S
H625 N621 0.985 . S
H626 N620 0.984 . S
H627 N620 0.984 . S
H628 N616 0.984 . S
H629 N616 0.985 . S
C630 C631 1.363 1_565 S
C630 C636 1.379 1_556 S
C630 N638 1.356 . S
C631 C630 1.363 1_545 S
C631 C637 1.363 . S
C632 C633 1.363 1_545 S
C632 C637 1.379 1_554 S
C632 N639 1.356 . S
C633 C632 1.363 1_565 S
C633 C636 1.363 . S
N634 C636 1.356 . S
N634 H646 0.984 . S
N634 H647 0.985 . S
N635 C637 1.356 . S
N635 H640 0.984 . S
N635 H641 0.985 . S
C636 C630 1.379 1_554 S
C636 C633 1.363 . S
C636 N634 1.356 . S
C637 C631 1.363 . S
C637 C632 1.379 1_556 S
C637 N635 1.356 . S
N638 C630 1.356 . S
N638 H644 0.984 . S
N638 H645 0.984 . S
N639 C632 1.356 . S
N639 H642 0.984 . S
N639 H643 0.985 . S
H640 N635 0.984 . S
H641 N635 0.985 . S
H642 N639 0.984 . S
H643 N639 0.985 . S
H644 N638 0.984 . S
H645 N638 0.984 . S
H646 N634 0.984 . S
H647 N634 0.985 . S
C648 C649 1.363 . S
C648 C654 1.379 . S
C648 N656 1.356 . S
C649 C648 1.363 . S
C649 C655 1.363 . S
C650 C651 1.363 . S
C650 C655 1.379 . S
C650 N657 1.356 . S
C651 C650 1.363 . S
C651 C654 1.363 . S
N652 C654 1.356 . S
N652 H664 0.984 . S
N652 H665 0.985 . S
N653 C655 1.356 . S
N653 H658 0.984 . S
N653 H659 0.985 . S
C654 C648 1.379 . S
C654 C651 1.363 . S
C654 N652 1.356 . S
C655 C649 1.363 . S
C655 C650 1.379 . S
C655 N653 1.356 . S
N656 C648 1.356 . S
N656 H662 0.984 . S
N656 H663 0.984 . S
N657 C650 1.356 . S
N657 H660 0.984 . S
N657 H661 0.985 . S
H658 N653 0.984 . S
H659 N653 0.985 . S
H660 N657 0.984 . S
H661 N657 0.985 . S
H662 N656 0.984 . S
H663 N656 0.984 . S
H664 N652 0.984 . S
H665 N652 0.985 . S
C666 C667 1.363 1_655 S
C666 C672 1.379 . S
C666 N674 1.356 . S
C667 C666 1.363 1_455 S
C667 C673 1.363 . S
C668 C669 1.363 1_455 S
C668 C673 1.379 . S
C668 N675 1.356 . S
C669 C668 1.363 1_655 S
C669 C672 1.363 . S
N670 C672 1.356 . S
N670 H682 0.984 . S
N670 H683 0.985 . S
N671 C673 1.356 . S
N671 H676 0.984 . S
N671 H677 0.985 . S
C672 C666 1.379 . S
C672 C669 1.363 . S
C672 N670 1.356 . S
C673 C667 1.363 . S
C673 C668 1.379 . S
C673 N671 1.356 . S
N674 C666 1.356 . S
N674 H680 0.984 . S
N674 H681 0.984 . S
N675 C668 1.356 . S
N675 H678 0.984 . S
N675 H679 0.985 . S
H676 N671 0.984 . S
H677 N671 0.985 . S
H678 N675 0.984 . S
H679 N675 0.985 . S
H680 N674 0.984 . S
H681 N674 0.984 . S
H682 N670 0.984 . S
H683 N670 0.985 . S
C684 C685 1.363 . S
C684 C690 1.379 . S
C684 N692 1.356 . S
C685 C684 1.363 . S
C685 C691 1.363 1_545 S
C686 C687 1.363 . S
C686 C691 1.379 . S
C686 N693 1.356 . S
C687 C686 1.363 . S
C687 C690 1.363 1_565 S
N688 C690 1.356 . S
N688 H700 0.984 . S
N688 H701 0.985 . S
N689 C691 1.356 . S
N689 H694 0.984 . S
N689 H695 0.985 . S
C690 C684 1.379 . S
C690 C687 1.363 1_545 S
C690 N688 1.356 . S
C691 C685 1.363 1_565 S
C691 C686 1.379 . S
C691 N689 1.356 . S
N692 C684 1.356 . S
N692 H698 0.984 . S
N692 H699 0.984 . S
N693 C686 1.356 . S
N693 H696 0.984 . S
N693 H697 0.985 . S
H694 N689 0.984 . S
H695 N689 0.985 . S
H696 N693 0.984 . S
H697 N693 0.985 . S
H698 N692 0.984 . S
H699 N692 0.984 . S
H700 N688 0.984 . S
H701 N688 0.985 . S
C702 C703 1.363 . S
C702 C708 1.379 . S
C702 N710 1.356 . S
C703 C702 1.363 . S
C703 C709 1.363 . S
C704 C705 1.363 . S
C704 C709 1.379 . S
C704 N711 1.356 . S
C705 C704 1.363 . S
C705 C708 1.363 . S
N706 C708 1.356 . S
N706 H718 0.984 . S
N706 H719 0.985 . S
N707 C709 1.356 . S
N707 H712 0.984 . S
N707 H713 0.985 . S
C708 C702 1.379 . S
C708 C705 1.363 . S
C708 N706 1.356 . S
C709 C703 1.363 . S
C709 C704 1.379 . S
C709 N707 1.356 . S
N710 C702 1.356 . S
N710 H716 0.984 . S
N710 H717 0.984 . S
N711 C704 1.356 . S
N711 H714 0.984 . S
N711 H715 0.985 . S
H712 N707 0.984 . S
H713 N707 0.985 . S
H714 N711 0.984 . S
H715 N711 0.985 . S
H716 N710 0.984 . S
H717 N710 0.984 . S
H718 N706 0.984 . S
H719 N706 0.985 . S
C720 C721 1.363 . S
C720 C726 1.379 . S
C720 N728 1.356 . S
C721 C720 1.363 . S
C721 C727 1.363 . S
C722 C723 1.363 . S
C722 C727 1.379 . S
C722 N729 1.356 . S
C723 C722 1.363 . S
C723 C726 1.363 . S
N724 C726 1.356 1_554 S
N724 H736 0.984 . S
N724 H737 0.985 . S
N725 C727 1.356 . S
N725 H730 0.984 . S
N725 H731 0.985 . S
C726 C720 1.379 . S
C726 C723 1.363 . S
C726 N724 1.356 1_556 S
C727 C721 1.363 . S
C727 C722 1.379 . S
C727 N725 1.356 . S
N728 C720 1.356 . S
N728 H734 0.984 . S
N728 H735 0.984 . S
N729 C722 1.356 . S
N729 H732 0.984 . S
N729 H733 0.985 . S
H730 N725 0.984 . S
H731 N725 0.985 . S
H732 N729 0.984 . S
H733 N729 0.985 . S
H734 N728 0.984 . S
H735 N728 0.984 . S
H736 N724 0.984 . S
H737 N724 0.985 . S
C738 C739 1.363 . S
C738 C744 1.379 . S
C738 N746 1.356 . S
C739 C738 1.363 . S
C739 C745 1.363 . S
C740 C741 1.363 . S
C740 C745 1.379 . S
C740 N747 1.356 . S
C741 C740 1.363 . S
C741 C744 1.363 . S
N742 C744 1.356 . S
N742 H754 0.984 . S
N742 H755 0.985 . S
N743 C745 1.356 . S
N743 H748 0.984 . S
N743 H749 0.985 . S
C744 C738 1.379 . S
C744 C741 1.363 . S
C744 N742 1.356 . S
C745 C739 1.363 . S
C745 C740 1.379 . S
C745 N743 1.356 . S
N746 C738 1.356 . S
N746 H752 0.984 . S
N746 H753 0.984 . S
N747 C740 1.356 . S
N747 H750 0.984 . S
N747 H751 0.985 . S
H748 N743 0.984 . S
H749 N743 0.985 . S
H750 N747 0.984 . S
H751 N747 0.985 . S
H752 N746 0.984 . S
H753 N746 0.984 . S
H754 N742 0.984 . S
H755 N742 0.985 . S
C756 C757 1.363 . S
C756 C762 1.379 . S
C756 N764 1.356 . S
C757 C756 1.363 . S
C757 C763 1.363 . S
C758 C759 1.363 . S
C758 C763 1.379 . S
C758 N765 1.356 . S
C759 C758 1.363 . S
C759 C762 1.363 . S
N760 C762 1.356 . S
N760 H772 0.984 . S
N760 H773 0.985 . S
N761 C763 1.356 . S
N761 H766 0.984 . S
N761 H767 0.985 . S
C762 C756 1.379 . S
C762 C759 1.363 . S
C762 N760 1.356 . S
C763 C757 1.363 . S
C763 C758 1.379 . S
C763 N761 1.356 . S
N764 C756 1.356 . S
N764 H770 0.984 . S
N764 H771 0.984 . S
N765 C758 1.356 . S
N765 H768 0.984 . S
N765 H769 0.985 . S
H766 N761 0.984 . S
H767 N761 0.985 . S
H768 N765 0.984 . S
H769 N765 0.985 . S
H770 N764 0.984 . S
H771 N764 0.984 . S
H772 N760 0.984 . S
H773 N760 0.985 . S
C774 C775 1.363 . S
C774 C780 1.379 . S
C774 N782 1.356 . S
C775 C774 1.363 . S
C775 C781 1.363 . S
C776 C777 1.363 . S
C776 C781 1.379 . S
C776 N783 1.356 . S
C777 C776 1.363 . S
C777 C780 1.363 . S
N778 C780 1.356 . S
N778 H790 0.984 . S
N778 H791 0.985 . S
N779 C781 1.356 . S
N779 H784 0.984 . S
N779 H785 0.985 . S
C780 C774 1.379 . S
C780 C777 1.363 . S
C780 N778 1.356 . S
C781 C775 1.363 . S
C781 C776 1.379 . S
C781 N779 1.356 . S
N782 C774 1.356 . S
N782 H788 0.984 . S
N782 H789 0.984 . S
N783 C776 1.356 . S
N783 H786 0.984 . S
N783 H787 0.985 . S
H784 N779 0.984 . S
H785 N779 0.985 . S
H786 N783 0.984 . S
H787 N783 0.985 . S
H788 N782 0.984 . S
H789 N782 0.984 . S
H790 N778 0.984 . S
H791 N778 0.985 . S
C792 C793 1.363 . S
C792 C798 1.379 . S
C792 N800 1.356 . S
C793 C792 1.363 . S
C793 C799 1.363 . S
C794 C795 1.363 . S
C794 C799 1.379 . S
C794 N801 1.356 . S
C795 C794 1.363 . S
C795 C798 1.363 . S
N796 C798 1.356 . S
N796 H808 0.984 . S
N796 H809 0.985 . S
N797 C799 1.356 . S
N797 H802 0.984 . S
N797 H803 0.985 . S
C798 C792 1.379 . S
C798 C795 1.363 . S
C798 N796 1.356 . S
C799 C793 1.363 . S
C799 C794 1.379 . S
C799 N797 1.356 . S
N800 C792 1.356 . S
N800 H806 0.984 . S
N800 H807 0.984 . S
N801 C794 1.356 . S
N801 H804 0.984 . S
N801 H805 0.985 . S
H802 N797 0.984 . S
H803 N797 0.985 . S
H804 N801 0.984 . S
H805 N801 0.985 . S
H806 N800 0.984 . S
H807 N800 0.984 . S
H808 N796 0.984 . S
H809 N796 0.985 . S
C810 C811 1.363 . S
C810 C816 1.379 . S
C810 N818 1.356 . S
C811 C810 1.363 . S
C811 C817 1.363 . S
C812 C813 1.363 . S
C812 C817 1.379 . S
C812 N819 1.356 . S
C813 C812 1.363 . S
C813 C816 1.363 . S
N814 C816 1.356 . S
N814 H826 0.984 . S
N814 H827 0.985 1_545 S
N815 C817 1.356 . S
N815 H820 0.984 . S
N815 H821 0.985 . S
C816 C810 1.379 . S
C816 C813 1.363 . S
C816 N814 1.356 . S
C817 C811 1.363 . S
C817 C812 1.379 . S
C817 N815 1.356 . S
N818 C810 1.356 . S
N818 H824 0.984 . S
N818 H825 0.984 . S
N819 C812 1.356 . S
N819 H822 0.984 . S
N819 H823 0.985 . S
H820 N815 0.984 . S
H821 N815 0.985 . S
H822 N819 0.984 . S
H823 N819 0.985 . S
H824 N818 0.984 . S
H825 N818 0.984 . S
H826 N814 0.984 . S
H827 N814 0.985 1_565 S
C828 C829 1.363 . S
C828 C834 1.379 . S
C828 N836 1.356 . S
C829 C828 1.363 . S
C829 C835 1.363 . S
C830 C831 1.363 . S
C830 C835 1.379 . S
C830 N837 1.356 . S
C831 C830 1.363 . S
C831 C834 1.363 . S
N832 C834 1.356 . S
N832 H844 0.984 . S
N832 H845 0.985 . S
N833 C835 1.356 . S
N833 H838 0.984 . S
N833 H839 0.985 . S
C834 C828 1.379 . S
C834 C831 1.363 . S
C834 N832 1.356 . S
C835 C829 1.363 . S
C835 C830 1.379 . S
C835 N833 1.356 . S
N836 C828 1.356 . S
N836 H842 0.984 . S
N836 H843 0.984 . S
N837 C830 1.356 . S
N837 H840 0.984 . S
N837 H841 0.985 . S
H838 N833 0.984 . S
H839 N833 0.985 . S
H840 N837 0.984 . S
H841 N837 0.985 . S
H842 N836 0.984 . S
H843 N836 0.984 . S
H844 N832 0.984 . S
H845 N832 0.985 . S
C846 C847 1.363 . S
C846 C852 1.379 . S
C846 N854 1.356 1_554 S
C847 C846 1.363 . S
C847 C853 1.363 . S
C848 C849 1.363 . S
C848 C853 1.379 . S
C848 N855 1.356 . S
C849 C848 1.363 . S
C849 C852 1.363 . S
N850 C852 1.356 . S
N850 H862 0.984 . S
N850 H863 0.985 . S
N851 C853 1.356 . S
N851 H856 0.984 1_554 S
N851 H857 0.985 . S
C852 C846 1.379 . S
C852 C849 1.363 . S
C852 N850 1.356 . S
C853 C847 1.363 . S
C853 C848 1.379 . S
C853 N851 1.356 . S
N854 C846 1.356 1_556 S
N854 H860 0.984 . S
N854 H861 0.984 . S
N855 C848 1.356 . S
N855 H858 0.984 . S
N855 H859 0.985 . S
H856 N851 0.984 1_556 S
H857 N851 0.985 . S
H858 N855 0.984 . S
H859 N855 0.985 . S
H860 N854 0.984 . S
H861 N854 0.984 . S
H862 N850 0.984 . S
H863 N850 0.985 . S
C864 C865 1.363 . S
C864 C870 1.379 . S
C864 N872 1.356 . S
C865 C864 1.363 . S
C865 C871 1.363 . S
C866 C867 1.363 . S
C866 C871 1.379 . S
C866 N873 1.356 . S
C867 C866 1.363 . S
C867 C870 1.363 . S
N868 C870 1.356 . S
N868 H880 0.984 . S
N868 H881 0.985 . S
N869 C871 1.356 . S
N869 H874 0.984 . S
N869 H875 0.985 . S
C870 C864 1.379 . S
C870 C867 1.363 . S
C870 N868 1.356 . S
C871 C865 1.363 . S
C871 C866 1.379 . S
C871 N869 1.356 . S
N872 C864 1.356 . S
N872 H878 0.984 . S
N872 H879 0.984 . S
N873 C866 1.356 . S
N873 H876 0.984 . S
N873 H877 0.985 . S
H874 N869 0.984 . S
H875 N869 0.985 . S
H876 N873 0.984 . S
H877 N873 0.985 . S
H878 N872 0.984 . S
H879 N872 0.984 . S
H880 N868 0.984 . S
H881 N868 0.985 . S
C882 C883 1.363 . S
C882 C888 1.379 . S
C882 N890 1.356 . S
C883 C882 1.363 . S
C883 C889 1.363 . S
C884 C885 1.363 . S
C884 C889 1.379 . S
C884 N891 1.356 . S
C885 C884 1.363 . S
C885 C888 1.363 . S
N886 C888 1.356 . S
N886 H898 0.984 . S
N886 H899 0.985 . S
N887 C889 1.356 . S
N887 H892 0.984 . S
N887 H893 0.985 . S
C888 C882 1.379 . S
C888 C885 1.363 . S
C888 N886 1.356 . S
C889 C883 1.363 . S
C889 C884 1.379 . S
C889 N887 1.356 . S
N890 C882 1.356 . S
N890 H896 0.984 . S
N890 H897 0.984 . S
N891 C884 1.356 . S
N891 H894 0.984 . S
N891 H895 0.985 . S
H892 N887 0.984 . S
H893 N887 0.985 . S
H894 N891 0.984 . S
H895 N891 0.985 . S
H896 N890 0.984 . S
H897 N890 0.984 . S
H898 N886 0.984 . S
H899 N886 0.985 . S
C900 C901 1.363 . S
C900 C906 1.379 . S
C900 N908 1.356 . S
C901 C900 1.363 . S
C901 C907 1.363 . S
C902 C903 1.363 . S
C902 C907 1.379 . S
C902 N909 1.356 . S
C903 C902 1.363 . S
C903 C906 1.363 . S
N904 C906 1.356 . S
N904 H916 0.984 . S
N904 H917 0.985 . S
N905 C907 1.356 . S
N905 H910 0.984 1_455 S
N905 H911 0.985 . S
C906 C900 1.379 . S
C906 C903 1.363 . S
C906 N904 1.356 . S
C907 C901 1.363 . S
C907 C902 1.379 . S
C907 N905 1.356 . S
N908 C900 1.356 . S
N908 H914 0.984 . S
N908 H915 0.984 . S
N909 C902 1.356 . S
N909 H912 0.984 . S
N909 H913 0.985 . S
H910 N905 0.984 1_655 S
H911 N905 0.985 . S
H912 N909 0.984 . S
H913 N909 0.985 . S
H914 N908 0.984 . S
H915 N908 0.984 . S
H916 N904 0.984 . S
H917 N904 0.985 . S
C918 C919 1.363 . S
C918 C924 1.379 . S
C918 N926 1.356 . S
C919 C918 1.363 . S
C919 C925 1.363 . S
C920 C921 1.363 . S
C920 C925 1.379 . S
C920 N927 1.356 . S
C921 C920 1.363 . S
C921 C924 1.363 . S
N922 C924 1.356 . S
N922 H934 0.984 . S
N922 H935 0.985 . S
N923 C925 1.356 . S
N923 H928 0.984 . S
N923 H929 0.985 . S
C924 C918 1.379 . S
C924 C921 1.363 . S
C924 N922 1.356 . S
C925 C919 1.363 . S
C925 C920 1.379 . S
C925 N923 1.356 . S
N926 C918 1.356 . S
N926 H932 0.984 . S
N926 H933 0.984 . S
N927 C920 1.356 . S
N927 H930 0.984 1_545 S
N927 H931 0.985 . S
H928 N923 0.984 . S
H929 N923 0.985 . S
H930 N927 0.984 1_565 S
H931 N927 0.985 . S
H932 N926 0.984 . S
H933 N926 0.984 . S
H934 N922 0.984 . S
H935 N922 0.985 . S
C397 N344 1.058 . S
C399 N14 1.058 . S
C415 N47 1.059 . S
C417 N377 1.059 . S
C433 N80 1.059 . S
C435 N212 1.059 . S
C451 N113 1.059 . S
C453 N245 1.059 . S
C469 N146 1.059 . S
C471 N278 1.059 . S
C487 N179 1.059 . S
C489 N311 1.059 . S
C505 C17 1.519 . S
C507 C281 1.519 . S
C523 C314 1.519 . S
C525 C50 1.519 . S
C541 C83 1.519 . S
C543 C347 1.519 . S
C559 C116 1.519 . S
C561 C380 1.519 . S
C577 C149 1.519 . S
C579 C215 1.519 . S
C595 C182 1.519 . S
C597 C248 1.519 . S
C613 N368 1.261 1_455 S
C615 N5 1.261 1_655 S
C631 N203 1.262 1_545 S
C633 N38 1.262 1_565 S
C649 N236 1.262 . S
C651 N71 1.262 . S
C667 N104 1.262 1_455 S
C669 N269 1.262 1_655 S
C685 N137 1.261 1_545 S
C687 N302 1.261 1_565 S
C703 N335 1.261 . S
C705 N170 1.261 . S
C721 C193 2.034 . S
C723 C8 2.049 1_556 S
C739 C28 2.034 . S
C741 C41 2.049 . S
C757 C74 2.049 . S
C759 C61 2.034 . S
C775 C94 2.034 . S
C777 C107 2.049 . S
C793 C140 2.049 . S
C795 C127 2.034 . S
C811 C173 2.049 . S
C813 C160 2.034 . S
C829 C259 2.034 . S
C831 C206 2.049 . S
C847 C239 2.049 1_554 S
C849 C292 2.034 . S
C865 C272 2.049 . S
C867 C325 2.034 . S
C883 C358 2.034 . S
C885 C305 2.049 . S
C901 C391 2.034 . S
C903 C338 2.049 . S
C919 C371 2.049 . S
C921 C226 2.034 . S
