# Generated by pormake.
# Topology lcy-a, (4)-cn, num edge types: 1
# Building blocks:
#     Node 0, Type 0, BuildingBlock: NAHDIM_clean_sbu_0, # of connection points: 4
#     Node 1, Type 0, BuildingBlock: NAHDIM_clean_sbu_0, # of connection points: 4
#     Node 2, Type 0, BuildingBlock: NAHDIM_clean_sbu_0, # of connection points: 4
#     Node 3, Type 0, BuildingBlock: NAHDIM_clean_sbu_0, # of connection points: 4
#     Node 4, Type 0, BuildingBlock: NAHDIM_clean_sbu_0, # of connection points: 4
#     Node 5, Type 0, BuildingBlock: NAHDIM_clean_sbu_0, # of connection points: 4
#     Node 6, Type 0, BuildingBlock: NAHDIM_clean_sbu_0, # of connection points: 4
#     Node 7, Type 0, BuildingBlock: NAHDIM_clean_sbu_0, # of connection points: 4
#     Node 8, Type 0, BuildingBlock: NAHDIM_clean_sbu_0, # of connection points: 4
#     Node 9, Type 0, BuildingBlock: NAHDIM_clean_sbu_0, # of connection points: 4
#     Node 10, Type 0, BuildingBlock: NAHDIM_clean_sbu_0, # of connection points: 4
#     Node 11, Type 0, BuildingBlock: NAHDIM_clean_sbu_0, # of connection points: 4
#     Node 12, Type 0, BuildingBlock: NAHDIM_clean_sbu_0, # of connection points: 4
#     Node 13, Type 0, BuildingBlock: NAHDIM_clean_sbu_0, # of connection points: 4
#     Node 14, Type 0, BuildingBlock: NAHDIM_clean_sbu_0, # of connection points: 4
#     Node 15, Type 0, BuildingBlock: NAHDIM_clean_sbu_0, # of connection points: 4
#     Node 16, Type 0, BuildingBlock: NAHDIM_clean_sbu_0, # of connection points: 4
#     Node 17, Type 0, BuildingBlock: NAHDIM_clean_sbu_0, # of connection points: 4
#     Node 18, Type 0, BuildingBlock: NAHDIM_clean_sbu_0, # of connection points: 4
#     Node 19, Type 0, BuildingBlock: NAHDIM_clean_sbu_0, # of connection points: 4
#     Node 20, Type 0, BuildingBlock: NAHDIM_clean_sbu_0, # of connection points: 4
#     Node 21, Type 0, BuildingBlock: NAHDIM_clean_sbu_0, # of connection points: 4
#     Node 22, Type 0, BuildingBlock: NAHDIM_clean_sbu_0, # of connection points: 4
#     Node 23, Type 0, BuildingBlock: NAHDIM_clean_sbu_0, # of connection points: 4
#     Edge 24, Type (0, 0), BuildingBlock: AJUNOK_clean_linker_0, # of connection points: 2
#     Edge 25, Type (0, 0), BuildingBlock: AJUNOK_clean_linker_0, # of connection points: 2
#     Edge 26, Type (0, 0), BuildingBlock: AJUNOK_clean_linker_0, # of connection points: 2
#     Edge 27, Type (0, 0), BuildingBlock: AJUNOK_clean_linker_0, # of connection points: 2
#     Edge 28, Type (0, 0), BuildingBlock: AJUNOK_clean_linker_0, # of connection points: 2
#     Edge 29, Type (0, 0), BuildingBlock: AJUNOK_clean_linker_0, # of connection points: 2
#     Edge 30, Type (0, 0), BuildingBlock: AJUNOK_clean_linker_0, # of connection points: 2
#     Edge 31, Type (0, 0), BuildingBlock: AJUNOK_clean_linker_0, # of connection points: 2
#     Edge 32, Type (0, 0), BuildingBlock: AJUNOK_clean_linker_0, # of connection points: 2
#     Edge 33, Type (0, 0), BuildingBlock: AJUNOK_clean_linker_0, # of connection points: 2
#     Edge 34, Type (0, 0), BuildingBlock: AJUNOK_clean_linker_0, # of connection points: 2
#     Edge 35, Type (0, 0), BuildingBlock: AJUNOK_clean_linker_0, # of connection points: 2
#     Edge 36, Type (0, 0), BuildingBlock: AJUNOK_clean_linker_0, # of connection points: 2
#     Edge 37, Type (0, 0), BuildingBlock: AJUNOK_clean_linker_0, # of connection points: 2
#     Edge 38, Type (0, 0), BuildingBlock: AJUNOK_clean_linker_0, # of connection points: 2
#     Edge 39, Type (0, 0), BuildingBlock: AJUNOK_clean_linker_0, # of connection points: 2
#     Edge 40, Type (0, 0), BuildingBlock: AJUNOK_clean_linker_0, # of connection points: 2
#     Edge 41, Type (0, 0), BuildingBlock: AJUNOK_clean_linker_0, # of connection points: 2
#     Edge 42, Type (0, 0), BuildingBlock: AJUNOK_clean_linker_0, # of connection points: 2
#     Edge 43, Type (0, 0), BuildingBlock: AJUNOK_clean_linker_0, # of connection points: 2
#     Edge 44, Type (0, 0), BuildingBlock: AJUNOK_clean_linker_0, # of connection points: 2
#     Edge 45, Type (0, 0), BuildingBlock: AJUNOK_clean_linker_0, # of connection points: 2
#     Edge 46, Type (0, 0), BuildingBlock: AJUNOK_clean_linker_0, # of connection points: 2
#     Edge 47, Type (0, 0), BuildingBlock: AJUNOK_clean_linker_0, # of connection points: 2
#     Edge 48, Type (0, 0), BuildingBlock: AJUNOK_clean_linker_0, # of connection points: 2
#     Edge 49, Type (0, 0), BuildingBlock: AJUNOK_clean_linker_0, # of connection points: 2
#     Edge 50, Type (0, 0), BuildingBlock: AJUNOK_clean_linker_0, # of connection points: 2
#     Edge 51, Type (0, 0), BuildingBlock: AJUNOK_clean_linker_0, # of connection points: 2
#     Edge 52, Type (0, 0), BuildingBlock: AJUNOK_clean_linker_0, # of connection points: 2
#     Edge 53, Type (0, 0), BuildingBlock: AJUNOK_clean_linker_0, # of connection points: 2
#     Edge 54, Type (0, 0), BuildingBlock: AJUNOK_clean_linker_0, # of connection points: 2
#     Edge 55, Type (0, 0), BuildingBlock: AJUNOK_clean_linker_0, # of connection points: 2
#     Edge 56, Type (0, 0), BuildingBlock: AJUNOK_clean_linker_0, # of connection points: 2
#     Edge 57, Type (0, 0), BuildingBlock: AJUNOK_clean_linker_0, # of connection points: 2
#     Edge 58, Type (0, 0), BuildingBlock: AJUNOK_clean_linker_0, # of connection points: 2
#     Edge 59, Type (0, 0), BuildingBlock: AJUNOK_clean_linker_0, # of connection points: 2
#     Edge 60, Type (0, 0), BuildingBlock: AJUNOK_clean_linker_0, # of connection points: 2
#     Edge 61, Type (0, 0), BuildingBlock: AJUNOK_clean_linker_0, # of connection points: 2
#     Edge 62, Type (0, 0), BuildingBlock: AJUNOK_clean_linker_0, # of connection points: 2
#     Edge 63, Type (0, 0), BuildingBlock: AJUNOK_clean_linker_0, # of connection points: 2
#     Edge 64, Type (0, 0), BuildingBlock: AJUNOK_clean_linker_0, # of connection points: 2
#     Edge 65, Type (0, 0), BuildingBlock: AJUNOK_clean_linker_0, # of connection points: 2
#     Edge 66, Type (0, 0), BuildingBlock: AJUNOK_clean_linker_0, # of connection points: 2
#     Edge 67, Type (0, 0), BuildingBlock: AJUNOK_clean_linker_0, # of connection points: 2
#     Edge 68, Type (0, 0), BuildingBlock: AJUNOK_clean_linker_0, # of connection points: 2
#     Edge 69, Type (0, 0), BuildingBlock: AJUNOK_clean_linker_0, # of connection points: 2
#     Edge 70, Type (0, 0), BuildingBlock: AJUNOK_clean_linker_0, # of connection points: 2
#     Edge 71, Type (0, 0), BuildingBlock: AJUNOK_clean_linker_0, # of connection points: 2
# Relax obj value: 0.393
# Max RMSD: 0.215
# Mean RMSD: 0.215
data_MOF--net-lcy-a--node1-NAHDIM_clean_sbu_0--edge1-AJUNOK_clean_linker_0
_symmetry_space_group_name_H-M    P1
_symmetry_Int_Tables_number       1
_symmetry_cell_setting            triclinic
loop_
_symmetry_equiv_pos_as_xyz
'x, y, z'
_cell_length_a     41.993271
_cell_length_b     42.216888
_cell_length_c     42.109526
_cell_angle_alpha  90.143848
_cell_angle_beta   89.979372
_cell_angle_gamma 89.870678
loop_
_atom_site_label
_atom_site_type_symbol
_atom_site_fract_x
_atom_site_fract_y
_atom_site_fract_z
_atom_type_partial_charge
C0 C 0.16139 0.25715 0.44389 0.0
O1 O 0.19098 0.26352 0.45165 0.0
O2 O 0.20639 0.25431 0.36308 0.0
Zn3 Zn 0.18152 0.28683 0.38777 0.0
O4 O 0.21129 0.31353 0.41331 0.0
C5 C 0.15407 0.30586 0.32881 0.0
O6 O 0.15462 0.27519 0.32351 0.0
O7 O 0.15088 0.26579 0.41697 0.0
C8 C 0.23139 0.33166 0.4001 0.0
O9 O 0.2332 0.33213 0.36896 0.0
C10 C 0.22087 0.23036 0.3743 0.0
O11 O 0.2202 0.22504 0.40498 0.0
O12 O 0.16087 0.31585 0.35645 0.0
C13 C 0.98807 0.89256 0.65805 0.0
O14 O -0.00177 0.89986 0.62951 0.0
O15 O 0.97662 0.96255 0.62101 0.0
Zn16 Zn 0.94156 0.93778 0.64139 0.0
O17 O 0.91778 0.96756 0.66974 0.0
C18 C 0.92203 0.91712 0.5797 0.0
O19 O 0.95296 0.91506 0.57543 0.0
O20 O 0.96162 0.9038 0.66748 0.0
C21 C 0.90791 -0.00644 0.65816 0.0
O22 O 0.91346 -0.00041 0.62808 0.0
C23 C -0.00123 0.97476 0.6375 0.0
O24 O -0.00156 0.9713 0.66849 0.0
O25 O 0.91162 0.92321 0.60737 0.0
C26 C 0.34181 0.74417 0.91399 0.0
O27 O 0.32822 0.76143 0.89188 0.0
O28 O 0.26082 0.74371 0.88985 0.0
Zn29 Zn 0.2861 0.70629 0.90525 0.0
O30 O 0.26028 0.68255 0.93725 0.0
C31 C 0.29374 0.69002 0.84022 0.0
O32 O 0.29751 0.72081 0.83801 0.0
O33 O 0.32811 0.71908 0.9233 0.0
C34 C 0.23461 0.67024 0.92715 0.0
O35 O 0.2267 0.67442 0.89727 0.0
C36 C 0.23824 0.75722 0.90471 0.0
O37 O 0.23168 0.74828 0.93384 0.0
O38 O 0.29137 0.6777 0.8676 0.0
C39 C 0.49948 0.08046 0.1618 0.0
O40 O 0.50179 0.05145 0.17275 0.0
O41 O 0.49908 0.02186 0.09176 0.0
Zn42 Zn 0.53154 0.05037 0.11203 0.0
O43 O 0.55618 0.02382 0.14318 0.0
C44 C 0.58408 0.0834 0.0787 0.0
O45 O 0.58326 0.10522 0.10098 0.0
O46 O 0.51115 0.08682 0.13472 0.0
C47 C 0.58338 0.03182 0.15359 0.0
O48 O 0.59571 0.05898 0.14499 0.0
C49 C 0.48716 -0.0012 0.10703 0.0
O50 O 0.4937 -0.004 0.13737 0.0
O51 O 0.56282 0.06206 0.07811 0.0
C52 C 0.65496 0.1917 0.54882 0.0
O53 O 0.68019 0.18504 0.53158 0.0
O54 O 0.72056 0.20618 0.61126 0.0
Zn55 Zn 0.69547 0.16845 0.59687 0.0
O56 O 0.72106 0.14377 0.56517 0.0
C57 C 0.68432 0.15306 0.66188 0.0
O58 O 0.6789 0.18368 0.66371 0.0
O59 O 0.65505 0.1846 0.5781 0.0
C60 C 0.74786 0.13278 0.57378 0.0
O61 O 0.75778 0.13843 0.60284 0.0
C62 C 0.7322 0.22673 0.59261 0.0
O63 O 0.72837 0.22339 0.56184 0.0
O64 O 0.68904 0.14075 0.63476 0.0
C65 C -0.00183 0.42452 0.77337 0.0
O66 O -0.00216 0.45452 0.76521 0.0
O67 O 0.98574 0.47253 0.85177 0.0
Zn68 Zn 0.02243 0.45183 0.8291 0.0
O69 O 0.0458 0.48338 0.80275 0.0
C70 C 0.04353 0.43095 0.88992 0.0
O71 O 0.01291 0.42628 0.89411 0.0
O72 O 0.00789 0.41681 0.80086 0.0
C73 C 0.0603 0.50657 0.81531 0.0
O74 O 0.05802 0.51111 0.84611 0.0
C75 C 0.96357 0.48888 0.83945 0.0
O76 O 0.96322 0.49322 0.80859 0.0
O77 O 0.05336 0.43789 0.8623 0.0
C78 C 0.82148 0.74565 0.07894 0.0
O79 O 0.7991 0.76697 0.07462 0.0
O80 O 0.79648 0.75473 0.17087 0.0
Zn81 Zn 0.82787 0.77495 0.14109 0.0
O82 O 0.80581 0.81374 0.12452 0.0
C83 C 0.87302 0.81336 0.1771 0.0
O84 O 0.90143 0.82156 0.18713 0.0
O85 O 0.8368 0.74514 0.10498 0.0
C86 C 0.819 0.83475 0.10753 0.0
O87 O 0.84906 0.83128 0.09959 0.0
C88 C 0.78232 0.72876 0.16505 0.0
O89 O 0.79114 0.71193 0.14028 0.0
O90 O 0.86948 0.78743 0.16206 0.0
C91 C 0.4985 0.5614 0.3379 0.0
O92 O 0.50735 0.54559 0.36323 0.0
O93 O 0.47019 0.48918 0.36391 0.0
Zn94 Zn 0.44319 0.52249 0.34338 0.0
O95 O 0.41695 0.50359 0.30847 0.0
C96 C 0.42374 0.5421 0.40501 0.0
O97 O 0.45456 0.54022 0.40997 0.0
O98 O 0.47128 0.55613 0.32589 0.0
C99 C 0.39158 0.48884 0.31545 0.0
O100 O 0.38387 0.48554 0.34551 0.0
C101 C 0.49105 0.47223 0.35012 0.0
O102 O 0.49542 0.47506 0.31937 0.0
O103 O 0.41349 0.53872 0.37685 0.0
C104 C 0.42631 0.17236 0.23392 0.0
O105 O 0.43503 0.20207 0.23674 0.0
O106 O 0.35251 0.22385 0.23325 0.0
Zn107 Zn 0.37397 0.19749 0.26656 0.0
O108 O 0.40168 0.22507 0.29361 0.0
C109 C 0.31136 0.17895 0.2859 0.0
O110 O 0.30566 0.18109 0.2553 0.0
O111 O 0.4001 0.1636 0.24611 0.0
C112 C 0.41168 0.21361 0.31964 0.0
O113 O 0.40437 0.18424 0.32675 0.0
C114 C 0.36518 0.24714 0.21908 0.0
O115 O 0.39486 0.25447 0.22547 0.0
O116 O 0.33989 0.18133 0.29556 0.0
C117 C 0.0779 0.18163 0.52219 0.0
O118 O 0.04823 0.19076 0.52595 0.0
O119 O 0.02745 0.1064 0.51428 0.0
Zn120 Zn 0.05111 0.12801 0.54961 0.0
O121 O 0.02115 0.15612 0.57338 0.0
C122 C 0.07049 0.06678 0.56845 0.0
O123 O 0.07438 0.06353 0.53765 0.0
O124 O 0.08622 0.15428 0.53165 0.0
C125 C 0.99352 0.14775 0.58213 0.0
O126 O 0.98368 0.11893 0.57564 0.0
C127 C 0.00823 0.1198 0.4953 0.0
O128 O 0.00311 0.15039 0.49796 0.0
O129 O 0.06514 0.09425 0.57956 0.0
C130 C 0.06987 0.83219 0.75148 0.0
O131 O 0.09898 0.82311 0.74461 0.0
O132 O 0.10145 0.76072 0.76749 0.0
Zn133 Zn 0.07885 0.78709 0.80013 0.0
O134 O 0.04604 0.76027 0.8216 0.0
C135 C 0.13985 0.80542 0.82342 0.0
O136 O 0.1456 0.8069 0.79281 0.0
O137 O 0.05707 0.82218 0.77687 0.0
C138 C 0.05326 0.73211 0.82936 0.0
O139 O 0.08206 0.72162 0.82309 0.0
C140 C 0.08801 0.74938 0.74297 0.0
O141 O 0.05729 0.75359 0.73884 0.0
O142 O 0.11145 0.80034 0.8325 0.0
C143 C 0.4549 0.78328 0.98281 0.0
O144 O 0.47289 0.76204 -0.00312 0.0
O145 O 0.52915 0.8483 -0.00642 0.0
Zn146 Zn 0.49349 0.8279 0.01774 0.0
O147 O 0.51115 0.79348 0.04575 0.0
C148 C 0.46489 0.8874 0.03265 0.0
O149 O 0.4632 0.88907 0.00154 0.0
O150 O 0.45972 0.81244 0.98826 0.0
C151 C 0.50055 0.78894 0.07363 0.0
O152 O 0.4763 0.80597 0.08364 0.0
C153 C 0.557 0.8366 0.992 0.0
O154 O 0.56221 0.80842 0.00409 0.0
O155 O 0.47574 0.86231 0.04524 0.0
C156 C 0.94037 0.33013 0.69232 0.0
O157 O 0.95326 0.30226 0.68707 0.0
O158 O 0.86899 0.27528 0.70913 0.0
Zn159 Zn 0.88716 0.29651 0.6707 0.0
O160 O 0.91613 0.26566 0.64918 0.0
C161 C 0.82335 0.30829 0.65277 0.0
O162 O 0.82073 0.31432 0.68329 0.0
O163 O 0.9114 0.33471 0.68482 0.0
C164 C 0.90798 0.23713 0.64439 0.0
O165 O 0.87946 0.22785 0.6532 0.0
C166 C 0.88539 0.26372 0.73162 0.0
O167 O 0.91658 0.26555 0.7305 0.0
O168 O 0.85098 0.30473 0.64105 0.0
C169 C 0.86371 0.65535 0.98428 0.0
O170 O 0.87401 0.62743 -0.00652 0.0
O171 O 0.93902 0.62863 0.9717 0.0
Zn172 Zn 0.90894 0.64219 0.93731 0.0
O173 O 0.93514 0.66996 0.90899 0.0
C174 C 0.90079 0.57652 0.92348 0.0
O175 O 0.90569 0.57419 0.95418 0.0
O176 O 0.87328 0.66617 0.95785 0.0
C177 C 0.96033 0.65673 0.89858 0.0
O178 O 0.96575 0.62703 0.90612 0.0
C179 C 0.9537 0.64893 0.98848 0.0
O180 O 0.94782 0.67917 0.98407 0.0
O181 O 0.89678 0.60391 0.91165 0.0
C182 C 0.58088 0.65082 0.27337 0.0
O183 O 0.60485 0.66479 0.2877 0.0
O184 O 0.59924 0.72997 0.26419 0.0
Zn185 Zn 0.59315 0.69885 0.22871 0.0
O186 O 0.56628 0.7184 0.19436 0.0
C187 C 0.65389 0.71578 0.21109 0.0
O188 O 0.63982 0.74305 0.21659 0.0
O189 O 0.5723 0.66061 0.24621 0.0
C190 C 0.5713 0.71313 0.16506 0.0
O191 O 0.59428 0.69359 0.15688 0.0
C192 C 0.58488 0.75634 0.26608 0.0
O193 O 0.56026 0.76145 0.24752 0.0
O194 O 0.63764 0.69045 0.21265 0.0
C195 C 0.5573 0.27225 0.49419 0.0
O196 O 0.52782 0.27179 0.50454 0.0
O197 O 0.50229 0.33533 0.48594 0.0
Zn198 Zn 0.52824 0.31408 0.45176 0.0
O199 O 0.50095 0.28414 0.4269 0.0
C200 C 0.54476 0.37619 0.43126 0.0
O201 O 0.54505 0.3814 0.46204 0.0
O202 O 0.5643 0.28974 0.47072 0.0
C203 C 0.4825 0.29525 0.40577 0.0
O204 O 0.48112 0.32606 0.40167 0.0
C205 C 0.47628 0.32453 0.49679 0.0
O206 O 0.46568 0.29725 0.48615 0.0
O207 O 0.54201 0.3479 0.4214 0.0
C208 C 0.22927 0.45615 0.16575 0.0
O209 O 0.22749 0.46599 0.19531 0.0
O210 O 0.21895 0.37944 0.21625 0.0
Zn211 Zn 0.25542 0.4017 0.19531 0.0
O212 O 0.27931 0.42721 0.22752 0.0
C213 C 0.27756 0.3407 0.1735 0.0
O214 O 0.24701 0.33424 0.17192 0.0
O215 O 0.24063 0.4289 0.15983 0.0
C216 C 0.30656 0.43727 0.21923 0.0
O217 O 0.31618 0.43214 0.18997 0.0
C218 C 0.19957 0.39221 0.23558 0.0
O219 O 0.20226 0.42255 0.24197 0.0
O220 O 0.28613 0.36866 0.18049 0.0
C221 C 0.79942 0.05133 0.84076 0.0
O222 O 0.80027 0.03615 0.81352 0.0
O223 O 0.77007 0.11263 0.77843 0.0
Zn224 Zn 0.81163 0.10179 0.79928 0.0
O225 O 0.83565 0.07279 0.77017 0.0
C226 C 0.8222 0.16812 0.80474 0.0
O227 O 0.7914 0.16807 0.81018 0.0
O228 O 0.80438 0.08099 0.84109 0.0
C229 C 0.8405 0.08117 0.74162 0.0
O230 O 0.82983 0.10885 0.73215 0.0
C231 C 0.75394 0.09309 0.76209 0.0
O232 O 0.76338 0.06345 0.76053 0.0
O233 O 0.83672 0.1418 0.80257 0.0
C234 C 0.16464 0.52256 0.06449 0.0
O235 O 0.17495 0.52234 0.03507 0.0
O236 O 0.09859 0.50795 0.0082 0.0
Zn237 Zn 0.11194 0.54682 0.03223 0.0
O238 O 0.13802 0.57432 0.00332 0.0
C239 C 0.06865 0.59936 0.04355 0.0
O240 O 0.09458 0.61663 0.04255 0.0
O241 O 0.13706 0.53359 0.07025 0.0
C242 C 0.15881 0.59366 0.01347 0.0
O243 O 0.16397 0.59578 0.04418 0.0
C244 C 0.11469 0.49521 0.98605 0.0
O245 O 0.14253 0.50723 0.97858 0.0
O246 O 0.07125 0.56939 0.04267 0.0
C247 C 0.74294 0.94994 0.28198 0.0
O248 O 0.74944 0.95956 0.25308 0.0
O249 O 0.74365 0.88116 0.22629 0.0
Zn250 Zn 0.70769 0.90473 0.2472 0.0
O251 O 0.68662 0.93665 0.21908 0.0
C252 C 0.67364 0.85649 0.28406 0.0
O253 O 0.69729 0.85794 0.30442 0.0
O254 O 0.72446 0.92649 0.28571 0.0
C255 C 0.65912 0.94498 0.22861 0.0
O256 O 0.64817 0.9335 0.25543 0.0
C257 C 0.76339 0.89214 0.20629 0.0
O258 O 0.76001 0.92136 0.19618 0.0
O259 O 0.67419 0.87354 0.25931 0.0
C260 C 0.31253 0.48497 0.58662 0.0
O261 O 0.33876 0.49809 0.57601 0.0
O262 O 0.35204 0.47347 0.51637 0.0
Zn263 Zn 0.32874 0.4394 0.53977 0.0
O264 O 0.29897 0.41829 0.50938 0.0
C265 C 0.38963 0.41303 0.55504 0.0
O266 O 0.39789 0.44302 0.55594 0.0
O267 O 0.30428 0.45807 0.57593 0.0
C268 C 0.30934 0.41096 0.48197 0.0
O269 O 0.33873 0.41837 0.47433 0.0
C270 C 0.33866 0.49414 0.49905 0.0
O271 O 0.30754 0.49385 0.49586 0.0
O272 O 0.36037 0.40617 0.55211 0.0
C273 C 0.22193 0.55227 0.66598 0.0
O274 O 0.20931 0.53759 0.69038 0.0
O275 O 0.21827 0.62694 0.72276 0.0
Zn276 Zn 0.18887 0.60423 0.69321 0.0
O277 O 0.1614 0.57487 0.71823 0.0
C278 C 0.16951 0.66509 0.67341 0.0
O279 O 0.2004 0.67 0.67391 0.0
O280 O 0.21506 0.58116 0.66111 0.0
C281 C 0.14683 0.58554 0.74245 0.0
O282 O 0.15144 0.61509 0.75114 0.0
C283 C 0.23914 0.61381 0.74011 0.0
O284 O 0.24202 0.58282 0.73969 0.0
O285 O 0.15951 0.63683 0.67532 0.0
C286 C 0.75657 -0.00688 0.95754 0.0
O287 O 0.76555 0.00445 0.98519 0.0
O288 O 0.6859 -0.00412 0.0123 0.0
Zn289 Zn 0.71311 0.96001 -0.00348 0.0
O290 O 0.74592 0.94517 0.02762 0.0
C291 C 0.65819 0.92729 0.97276 0.0
O292 O 0.65159 0.95543 0.96119 0.0
O293 O 0.7342 0.97301 0.95646 0.0
C294 C 0.73678 0.93011 0.05201 0.0
O295 O 0.70608 0.92811 0.05773 0.0
C296 C 0.69353 0.02031 0.02822 0.0
O297 O 0.72311 0.02399 0.03761 0.0
O298 O 0.68399 0.92343 0.988 0.0
C299 C 0.80312 0.00197 0.3946 0.0
O300 O 0.78852 -0.00053 0.42207 0.0
O301 O 0.86506 0.98597 0.45938 0.0
Zn302 Zn 0.85062 0.02457 0.43555 0.0
O303 O 0.8192 0.04838 0.46235 0.0
C304 C 0.91638 0.04126 0.43097 0.0
O305 O 0.91972 0.01039 0.42883 0.0
O306 O 0.8313 0.01274 0.39396 0.0
C307 C 0.8284 0.05782 0.48948 0.0
O308 O 0.85751 0.05097 0.49871 0.0
C309 C 0.84805 0.97102 0.47925 0.0
O310 O 0.81813 0.97934 0.48302 0.0
O311 O 0.88847 0.05292 0.43096 0.0
C312 C 0.08763 0.22397 0.48258 0.0
C313 C 0.10001 0.2017 0.5041 0.0
C314 C 0.10773 0.24201 0.46341 0.0
C315 C 0.14095 0.23888 0.46549 0.0
H316 H 0.06214 0.22695 0.47984 0.0
H317 H 0.09712 0.25847 0.44675 0.0
S318 S 0.1854 0.18496 0.51914 0.0
N319 N 0.14753 0.17807 0.52709 0.0
N320 N 0.18552 0.21249 0.49135 0.0
C321 C 0.15374 0.21734 0.48754 0.0
C322 C 0.1332 0.19857 0.50674 0.0
C323 C -0.00172 0.86982 0.71176 0.0
C324 C 0.00922 0.87614 0.68084 0.0
C325 C 0.01833 0.85647 0.73464 0.0
C326 C 0.0502 0.84888 0.72758 0.0
H327 H 0.974 0.87536 0.71855 0.0
H328 H 0.00857 0.85184 0.75797 0.0
S329 S 0.09081 0.86089 0.65013 0.0
N330 N 0.05419 0.87389 0.64436 0.0
N331 N 0.0919 0.84885 0.68735 0.0
C332 C 0.06157 0.85519 0.69678 0.0
C333 C 0.04107 0.8687 0.6734 0.0
C334 C 0.38894 0.73283 0.94826 0.0
C335 C 0.37189 0.75431 0.92918 0.0
C336 C 0.41634 0.74215 0.96467 0.0
C337 C 0.4276 0.77342 0.96293 0.0
H338 H 0.38088 0.70862 0.95091 0.0
H339 H 0.42821 0.72487 0.97952 0.0
S340 S 0.39281 0.83846 0.91475 0.0
N341 N 0.36916 0.80795 0.90827 0.0
N342 N 0.42058 0.82555 0.93926 0.0
C343 C 0.41134 0.79496 0.94321 0.0
C344 C 0.38354 0.78539 0.92628 0.0
C345 C 0.45972 0.09487 0.2032 0.0
C346 C 0.48199 0.10459 0.18026 0.0
C347 C 0.44193 0.11698 0.22051 0.0
C348 C 0.44611 0.14966 0.2159 0.0
H349 H 0.45551 0.06994 0.20748 0.0
H350 H 0.42481 0.10835 0.23766 0.0
S351 S 0.50233 0.18743 0.15946 0.0
N352 N 0.50781 0.14903 0.15427 0.0
N353 N 0.47465 0.19076 0.18713 0.0
C354 C 0.46875 0.15976 0.19345 0.0
C355 C 0.48659 0.13718 0.17551 0.0
C356 C 0.63133 0.222 0.50382 0.0
C357 C 0.62876 0.21078 0.53517 0.0
C358 C 0.60826 0.24211 0.49089 0.0
C359 C 0.58154 0.25151 0.50867 0.0
H360 H 0.65157 0.21562 0.48917 0.0
H361 H 0.61131 0.25015 0.46667 0.0
S362 S 0.56347 0.22919 0.59192 0.0
N363 N 0.59725 0.21082 0.58378 0.0
N364 N 0.55378 0.24847 0.55926 0.0
C365 C 0.57842 0.24032 0.53993 0.0
C366 C 0.60204 0.21998 0.55323 0.0
C367 C 0.94841 0.38612 0.70927 0.0
C368 C 0.95763 0.35416 0.71098 0.0
C369 C 0.96242 0.40892 0.72894 0.0
C370 C 0.98562 0.4004 0.75143 0.0
H371 H 0.92995 0.39353 0.69291 0.0
H372 H 0.95424 0.43321 0.72718 0.0
S373 S 0.0191 0.32013 0.76445 0.0
N374 N 0.99245 0.31533 0.73605 0.0
N375 N 0.01831 0.35822 0.77339 0.0
C376 C -0.00441 0.36868 0.75293 0.0
C377 C 0.98173 0.34554 0.73255 0.0
C378 C 0.84255 0.69285 0.06299 0.0
C379 C 0.82873 0.72187 0.05417 0.0
C380 C 0.85189 0.67062 0.04015 0.0
C381 C 0.84829 0.67677 0.00752 0.0
H382 H 0.84669 0.6874 0.08778 0.0
H383 H 0.86338 0.6491 0.04822 0.0
S384 S 0.81108 0.74819 0.97204 0.0
N385 N 0.80981 0.75474 0.0107 0.0
N386 N 0.82799 0.7131 0.96757 0.0
C387 C 0.8333 0.70515 -0.00163 0.0
C388 C 0.82335 0.72766 0.02174 0.0
C389 C 0.53264 0.6168 0.2763 0.0
C390 C 0.56155 0.62672 0.28991 0.0
C391 C 0.5125 0.59586 0.29213 0.0
C392 C 0.52047 0.58372 0.32217 0.0
H393 H 0.5251 0.62564 0.25338 0.0
H394 H 0.49046 0.58917 0.28057 0.0
S395 S 0.59402 0.60129 0.36782 0.0
N396 N 0.5976 0.6222 0.33495 0.0
N397 N 0.55968 0.5826 0.36475 0.0
C398 C 0.54957 0.59296 0.33592 0.0
C399 C 0.57011 0.61449 0.31978 0.0
C400 C 0.19072 0.49669 0.1465 0.0
C401 C 0.21548 0.47521 0.13991 0.0
C402 C 0.1749 0.51254 0.12197 0.0
C403 C 0.18362 0.50783 0.09004 0.0
H404 H 0.18265 0.50041 0.17066 0.0
H405 H 0.15533 0.52817 0.12809 0.0
S406 S 0.24929 0.45638 0.06068 0.0
N407 N 0.24958 0.45165 0.09957 0.0
N408 N 0.2202 0.48168 0.05339 0.0
C409 C 0.20942 0.48753 0.08329 0.0
C410 C 0.22525 0.47113 0.10826 0.0
C411 C 0.78486 0.03572 0.92807 0.0
C412 C 0.76998 0.00594 0.92786 0.0
C413 C 0.79491 0.04991 0.89982 0.0
C414 C 0.79081 0.03467 0.87036 0.0
H415 H 0.78784 0.04873 0.95007 0.0
H416 H 0.80555 0.07323 0.90111 0.0
S417 S 0.75568 0.95501 0.85734 0.0
N418 N 0.75339 0.9607 0.89606 0.0
N419 N 0.77251 0.9872 0.84293 0.0
C420 C 0.77717 0.00424 0.86997 0.0
C421 C 0.76667 0.98993 0.89873 0.0
C422 C 0.74577 0.9589 0.34042 0.0
C423 C 0.75785 0.96511 0.30992 0.0
C424 C 0.7602 0.97152 0.36752 0.0
C425 C 0.78751 0.99061 0.36526 0.0
H426 H 0.72506 0.94395 0.3435 0.0
H427 H 0.75017 0.96568 0.39047 0.0
S428 S 0.82797 0.01501 0.29084 0.0
N429 N 0.79821 -0.00754 0.27889 0.0
N430 N 0.82551 0.01607 0.32995 0.0
C431 C 0.79956 -0.00248 0.33487 0.0
C432 C 0.78467 0.98484 0.30718 0.0
C433 C 0.24536 0.50254 0.64406 0.0
C434 C 0.24538 0.53579 0.64571 0.0
C435 C 0.26751 0.48626 0.62525 0.0
C436 C 0.29084 0.50263 0.60787 0.0
H437 H 0.22784 0.48894 0.65706 0.0
H438 H 0.26628 0.46064 0.6243 0.0
S439 S 0.30178 0.58984 0.60511 0.0
N440 N 0.27106 0.5846 0.62897 0.0
N441 N 0.31295 0.55401 0.5939 0.0
C442 C 0.2915 0.5359 0.60978 0.0
C443 C 0.26865 0.55249 0.62858 0.0
C444 C 0.26338 0.37503 0.47218 0.0
C445 C 0.28943 0.39202 0.46009 0.0
C446 C 0.24496 0.35561 0.45256 0.0
C447 C 0.25157 0.35259 0.41992 0.0
H448 H 0.25742 0.37624 0.49719 0.0
H449 H 0.22532 0.34287 0.46322 0.0
S450 S 0.31637 0.39334 0.37611 0.0
N451 N 0.32047 0.40539 0.41321 0.0
N452 N 0.28562 0.36903 0.37615 0.0
C453 C 0.27724 0.36991 0.40732 0.0
C454 C 0.29623 0.38955 0.42744 0.0
C455 C 0.88424 0.00889 0.71038 0.0
C456 C 0.89059 0.01657 0.67852 0.0
C457 C 0.8681 0.02994 0.73042 0.0
C458 C 0.8576 0.05965 0.71952 0.0
H459 H 0.89176 0.98635 0.72009 0.0
H460 H 0.86385 0.0227 0.75472 0.0
S461 S 0.86827 0.09154 0.63803 0.0
N462 N 0.88512 0.05619 0.6369 0.0
N463 N 0.85477 0.09581 0.67462 0.0
C464 C 0.86376 0.06777 0.68768 0.0
C465 C 0.88024 0.04623 0.66719 0.0
C466 C 0.22239 0.64837 0.98092 0.0
C467 C 0.21435 0.65108 0.94859 0.0
C468 C 0.20415 0.62999 0.00169 0.0
C469 C 0.1772 0.61339 0.99097 0.0
H470 H 0.24306 0.66048 0.99038 0.0
H471 H 0.21151 0.62856 0.02628 0.0
S472 S 0.14521 0.61323 0.90869 0.0
N473 N 0.17702 0.63604 0.90695 0.0
N474 N 0.14282 0.60145 0.94595 0.0
C475 C 0.16865 0.61607 0.95874 0.0
C476 C 0.18717 0.63493 0.93759 0.0
C477 C 0.63549 0.01144 0.17323 0.0
C478 C 0.60202 0.00981 0.1734 0.0
C479 C 0.65388 0.99009 0.19086 0.0
C480 C 0.63939 0.96685 0.20976 0.0
H481 H 0.64764 0.02899 0.15895 0.0
H482 H 0.67959 -0.00795 0.18997 0.0
S483 S 0.55263 0.95256 0.2183 0.0
N484 N 0.55514 0.98288 0.19375 0.0
N485 N 0.5897 0.94313 0.2274 0.0
C486 C 0.60596 0.96507 0.21031 0.0
C487 C 0.58726 0.98645 0.19196 0.0
C488 C 0.79781 0.10289 0.5614 0.0
C489 C 0.76762 0.11366 0.55165 0.0
C490 C 0.81712 0.08481 0.54117 0.0
C491 C 0.80706 0.07662 0.51036 0.0
H492 H 0.80677 0.10849 0.58486 0.0
H493 H 0.84017 0.07721 0.54991 0.0
S494 S 0.72991 0.09871 0.47323 0.0
N495 N 0.72847 0.11468 0.50901 0.0
N496 N 0.76473 0.08063 0.47105 0.0
C497 C 0.77684 0.0871 0.50029 0.0
C498 C 0.75718 0.10563 0.52089 0.0
C499 C 0.11471 0.574 0.79105 0.0
C500 C 0.12444 0.56523 0.76028 0.0
C501 C 0.09377 0.55504 0.80856 0.0
C502 C 0.0814 0.5268 0.79581 0.0
H503 H 0.12363 0.5955 0.80194 0.0
H504 H 0.08731 0.5626 0.83231 0.0
S505 S 0.09857 0.49377 0.71569 0.0
N506 N 0.1196 0.52669 0.71747 0.0
N507 N 0.08006 0.49126 0.75015 0.0
C508 C 0.09055 0.518 0.76482 0.0
C509 C 0.11213 0.53713 0.74714 0.0
C510 C 0.74786 0.88785 0.09189 0.0
C511 C 0.75953 0.90979 0.06969 0.0
C512 C 0.76761 0.8645 0.10484 0.0
C513 C 0.79991 0.86207 0.09615 0.0
H514 H 0.72289 0.88773 0.0984 0.0
H515 H 0.75708 0.84761 0.12103 0.0
S516 S 0.84357 0.91708 0.04312 0.0
N517 N 0.80647 0.93009 0.04262 0.0
N518 N 0.84361 0.88609 0.06694 0.0
C519 C 0.81249 0.88524 0.07576 0.0
C520 C 0.79232 0.90913 0.06256 0.0
C521 C 0.32034 0.45065 0.27542 0.0
C522 C 0.32815 0.45182 0.24294 0.0
C523 C 0.34104 0.46257 0.29857 0.0
C524 C 0.37037 0.47633 0.29023 0.0
H525 H 0.29822 0.44001 0.2832 0.0
H526 H 0.3339 0.46088 0.32322 0.0
S527 S 0.40177 0.48606 0.20834 0.0
N528 N 0.36706 0.46845 0.20353 0.0
N529 N 0.40593 0.49092 0.24701 0.0
C530 C 0.37835 0.47802 0.25779 0.0
C531 C 0.35727 0.46576 0.23418 0.0
C532 C 0.45019 0.28589 0.35693 0.0
C533 C 0.46418 0.27384 0.38475 0.0
C534 C 0.43356 0.26617 0.33598 0.0
C535 C 0.43 0.23361 0.34208 0.0
H536 H 0.45234 0.31074 0.35099 0.0
H537 H 0.42331 0.2767 0.31487 0.0
S538 S 0.46157 0.19032 0.41209 0.0
N539 N 0.47306 0.22729 0.41758 0.0
N540 N 0.44169 0.19022 0.37828 0.0
C541 C 0.44369 0.22124 0.36996 0.0
C542 C 0.46079 0.24134 0.39125 0.0
C543 C 0.94096 0.16222 0.60636 0.0
C544 C 0.97244 0.17067 0.59867 0.0
C545 C 0.92035 0.18378 0.62127 0.0
C546 C 0.93038 0.21463 0.62905 0.0
H547 H 0.93201 0.13888 0.60066 0.0
H548 H 0.89628 0.17617 0.62651 0.0
S549 S 0.01093 0.24821 0.61516 0.0
N550 N 0.01292 0.21188 0.60082 0.0
N551 N 0.97429 0.25223 0.62872 0.0
C552 C 0.96195 0.22327 0.62186 0.0
C553 C 0.98291 0.20133 0.60672 0.0
C554 C 0.97801 0.70679 0.8723 0.0
C555 C 0.98395 0.67487 0.87978 0.0
C556 C 0.00038 0.7249 0.85571 0.0
C557 C 0.02972 0.7119 0.84599 0.0
H558 H 0.95597 0.7181 0.87953 0.0
H559 H -0.00532 0.74943 0.85085 0.0
S560 S 0.05665 0.62898 0.85859 0.0
N561 N 0.02115 0.63067 0.87534 0.0
N562 N 0.06316 0.66473 0.84428 0.0
C563 C 0.03584 0.67985 0.85287 0.0
C564 C 0.01299 0.66133 0.86972 0.0
C565 C 0.52657 0.74939 0.15018 0.0
C566 C 0.55239 0.73025 0.1407 0.0
C567 C 0.50938 0.76742 0.12818 0.0
C568 C 0.51736 0.76725 0.09572 0.0
H569 H 0.51975 0.75091 0.17496 0.0
H570 H 0.49017 0.78221 0.13693 0.0
S571 S 0.58176 0.71975 0.05809 0.0
N572 N 0.58419 0.71113 0.09622 0.0
N573 N 0.55195 0.74507 0.05489 0.0
C574 C 0.54254 0.74752 0.0857 0.0
C575 C 0.56002 0.72902 0.10814 0.0
C576 C 0.15811 0.36118 0.30852 0.0
C577 C 0.15596 0.3285 0.30201 0.0
C578 C 0.16959 0.38239 0.28574 0.0
C579 C 0.17942 0.37166 0.25567 0.0
H580 H 0.15318 0.37019 0.33213 0.0
H581 H 0.17307 0.40685 0.29271 0.0
S582 S 0.17093 0.28999 0.224 0.0
N583 N 0.15882 0.28757 0.26121 0.0
N584 N 0.1805 0.32747 0.21848 0.0
C585 C 0.17378 0.3398 0.24759 0.0
C586 C 0.16193 0.31819 0.27073 0.0
C587 C 0.89627 0.94173 0.49768 0.0
C588 C 0.86396 0.94956 0.50217 0.0
C589 C 0.91431 0.92819 0.52208 0.0
C590 C 0.9008 0.92213 0.55202 0.0
H591 H 0.90835 0.94788 0.47581 0.0
H592 H 0.93955 0.92472 0.51805 0.0
S593 S 0.81554 0.93137 0.5736 0.0
N594 N 0.81791 0.94508 0.537 0.0
N595 N 0.85188 0.91971 0.58294 0.0
C596 C 0.86774 0.92656 0.55567 0.0
C597 C 0.8493 0.94026 0.53072 0.0
C598 C 0.27098 0.61914 0.78996 0.0
C599 C 0.25751 0.63324 0.76289 0.0
C600 C 0.2844 0.63765 0.81413 0.0
C601 C 0.28521 0.67092 0.81195 0.0
H602 H 0.26977 0.59374 0.79331 0.0
H603 H 0.29309 0.62583 0.83523 0.0
S604 S 0.25674 0.71912 0.7439 0.0
N605 N 0.24854 0.68223 0.73383 0.0
N606 N 0.27392 0.71698 0.77907 0.0
C607 C 0.2738 0.68515 0.78398 0.0
C608 C 0.25986 0.66633 0.75952 0.0
C609 C 0.61212 0.05814 0.03347 0.0
C610 C 0.61392 0.07618 0.0615 0.0
C611 C 0.63866 0.04181 0.02182 0.0
C612 C 0.66812 0.04282 0.03775 0.0
H613 H 0.58945 0.05481 0.02165 0.0
H614 H 0.63555 0.02693 0.00105 0.0
S615 S 0.68655 0.09037 0.10962 0.0
N616 N 0.6484 0.09713 0.10292 0.0
N617 N 0.69847 0.06638 0.08093 0.0
C618 C 0.67104 0.06311 0.06414 0.0
C619 C 0.64389 0.07987 0.07602 0.0
C620 C 0.70257 0.15204 0.7182 0.0
C621 C 0.69406 0.13527 0.69059 0.0
C622 C 0.71991 0.13743 0.74248 0.0
C623 C 0.72922 0.10544 0.74021 0.0
H624 H 0.69793 0.17722 0.72018 0.0
H625 H 0.72767 0.15192 0.76228 0.0
S626 S 0.70651 0.04936 0.67607 0.0
N627 N 0.6915 0.0837 0.66478 0.0
N628 N 0.724 0.05615 0.71052 0.0
C629 C 0.71784 0.08755 0.71436 0.0
C630 C 0.70028 0.1025 0.68952 0.0
C631 C 0.11302 0.46484 0.93515 0.0
C632 C 0.0995 0.47147 0.96499 0.0
C633 C 0.09578 0.44865 0.91179 0.0
C634 C 0.06434 0.43849 0.91737 0.0
H635 H 0.13623 0.47407 0.92888 0.0
H636 H 0.10643 0.44617 0.88848 0.0
S637 S 0.02125 0.4429 -0.00572 0.0
N638 N 0.05524 0.46134 0.0009 0.0
N639 N 0.02279 0.43094 0.95697 0.0
C640 C 0.05204 0.44162 0.94832 0.0
C641 C 0.06961 0.45818 0.97213 0.0
C642 C 0.79256 0.84056 0.20629 0.0
C643 C 0.79122 0.87253 0.19682 0.0
C644 C 0.81917 0.82167 0.19974 0.0
C645 C 0.84548 0.83396 0.18352 0.0
H646 H 0.77304 0.83005 0.21927 0.0
H647 H 0.81949 0.79746 0.20812 0.0
S648 S 0.85424 0.9155 0.15257 0.0
N649 N 0.81872 0.9153 0.16945 0.0
N650 N 0.86902 0.87958 0.15772 0.0
C651 C 0.84477 0.86573 0.17389 0.0
C652 C 0.81746 0.885 0.18017 0.0
C653 C 0.34744 0.52314 0.44832 0.0
C654 C 0.35865 0.51408 0.47838 0.0
C655 C 0.36831 0.53513 0.42539 0.0
C656 C 0.40108 0.53858 0.43178 0.0
H657 H 0.32295 0.51874 0.44158 0.0
H658 H 0.359 0.53962 0.40183 0.0
S659 S 0.44041 0.52538 0.50965 0.0
N660 N 0.40311 0.51452 0.51532 0.0
N661 N 0.44238 0.53733 0.4724 0.0
C662 C 0.41174 0.533 0.46297 0.0
C663 C 0.3905 0.52059 0.48622 0.0
C664 C 0.23515 0.21169 0.31999 0.0
C665 C 0.24095 0.21097 0.35288 0.0
C666 C 0.25674 0.19838 0.29843 0.0
C667 C 0.28523 0.18428 0.30893 0.0
H668 H 0.21445 0.22389 0.31066 0.0
H669 H 0.25204 0.20127 0.27331 0.0
S670 S 0.30918 0.17177 0.39281 0.0
N671 N 0.27518 0.19137 0.39514 0.0
N672 N 0.31606 0.16668 0.35453 0.0
C673 C 0.29002 0.18104 0.34185 0.0
C674 C 0.2678 0.19432 0.36386 0.0
C675 C 0.0278 0.99144 0.58882 0.0
C676 C 0.023 -0.0054 0.62174 0.0
C677 C 0.0463 0.01324 0.57205 0.0
C678 C 0.06025 0.0393 0.58754 0.0
H679 H 0.01599 0.97282 0.5756 0.0
H680 H 0.04749 0.01091 0.54645 0.0
S681 S 0.05947 0.05522 0.6742 0.0
N682 N 0.03732 0.02323 0.66988 0.0
N683 N 0.07174 0.0646 0.63817 0.0
C684 C 0.05799 0.04114 0.62081 0.0
C685 C 0.03941 0.01869 0.63798 0.0
C686 C 0.18399 0.78067 0.89768 0.0
C687 C 0.21541 0.77704 0.88666 0.0
C688 C 0.15999 0.79248 0.87782 0.0
C689 C 0.16652 0.80117 0.84619 0.0
H690 H 0.17731 0.77231 0.92105 0.0
H691 H 0.13581 0.79281 0.88677 0.0
S692 S 0.24641 0.8028 0.8083 0.0
N693 N 0.25283 0.78796 0.84395 0.0
N694 N 0.20785 0.81022 0.80665 0.0
C695 C 0.19848 0.80077 0.83604 0.0
C696 C 0.22289 0.78866 0.85626 0.0
C697 C 0.47067 0.97348 0.05596 0.0
C698 C 0.47301 0.97191 0.08928 0.0
C699 C 0.46515 0.94625 0.03775 0.0
C700 C 0.46192 0.91644 0.05219 0.0
H701 H 0.47517 -0.00451 0.04359 0.0
H702 H 0.46579 0.94836 0.01213 0.0
S703 S 0.4583 0.90068 0.13876 0.0
N704 N 0.46575 0.93897 0.13615 0.0
N705 N 0.45566 0.88779 0.10182 0.0
C706 C 0.46071 0.91508 0.08553 0.0
C707 C 0.46615 0.94285 0.10412 0.0
C708 C 0.74957 0.26 0.63833 0.0
C709 C 0.75191 0.2526 0.60582 0.0
C710 C 0.77106 0.28073 0.65283 0.0
C711 C 0.79604 0.29452 0.63545 0.0
H712 H 0.7318 0.24867 0.65308 0.0
H713 H 0.76936 0.28408 0.67829 0.0
S714 S 0.80957 0.2869 0.54869 0.0
N715 N 0.77866 0.26388 0.55583 0.0
N716 N 0.81944 0.30258 0.58327 0.0
C717 C 0.79709 0.28937 0.60244 0.0
C718 C 0.77494 0.26846 0.58757 0.0
C719 C 0.92542 0.53354 0.84849 0.0
C720 C 0.94164 0.50693 0.86036 0.0
C721 C 0.90972 0.55464 0.86893 0.0
C722 C 0.90957 0.54989 0.90205 0.0
H723 H 0.92646 0.5393 0.82345 0.0
H724 H 0.89936 0.57584 0.85879 0.0
S725 S 0.9428 0.48005 0.94426 0.0
N726 N 0.95234 0.47422 0.90668 0.0
N727 N 0.92277 0.51373 0.94511 0.0
C728 C 0.92295 0.52164 0.91383 0.0
C729 C 0.93907 0.50024 0.893 0.0
C730 C 0.70016 0.69482 0.18007 0.0
C731 C 0.68808 0.71535 0.20342 0.0
C732 C 0.73158 0.69792 0.16916 0.0
C733 C 0.75196 0.72147 0.18147 0.0
H734 H 0.68476 0.67751 0.16891 0.0
H735 H 0.73931 0.6828 0.14981 0.0
S736 S 0.73304 0.77654 0.24788 0.0
N737 N 0.69973 0.75681 0.24174 0.0
N738 N 0.75886 0.76232 0.22189 0.0
C739 C 0.74078 0.74021 0.20687 0.0
C740 C 0.70877 0.73727 0.21763 0.0
C741 C 0.51282 0.45441 0.40204 0.0
C742 C 0.50972 0.44941 0.36914 0.0
C743 C 0.52677 0.43159 0.42164 0.0
C744 C 0.53774 0.4026 0.4092 0.0
H745 H 0.50349 0.47577 0.41297 0.0
H746 H 0.52714 0.43607 0.44697 0.0
S747 S 0.53887 0.37959 0.32402 0.0
N748 N 0.52173 0.41483 0.32445 0.0
N749 N 0.54766 0.37157 0.36137 0.0
C750 C 0.53677 0.39819 0.37603 0.0
C751 C 0.52281 0.42168 0.35598 0.0
C752 C 0.31212 0.26172 0.19663 0.0
C753 C 0.34473 0.26868 0.20017 0.0
C754 C 0.29073 0.28433 0.18498 0.0
C755 C 0.30112 0.31479 0.17655 0.0
H756 H 0.30259 0.23931 0.20466 0.0
H757 H 0.26561 0.27854 0.18488 0.0
S758 S 0.3849 0.34252 0.17428 0.0
N759 N 0.38709 0.30638 0.18904 0.0
N760 N 0.34676 0.34892 0.16724 0.0
C761 C 0.33405 0.32092 0.17676 0.0
C762 C 0.3559 0.29785 0.18856 0.0
C763 C 0.87159 0.19711 0.78968 0.0
C764 C 0.83822 0.19694 0.79284 0.0
C765 C 0.88703 0.22027 0.77164 0.0
C766 C 0.86959 0.24391 0.75583 0.0
H767 H 0.88581 0.1782 0.79977 0.0
H768 H 0.91256 0.21835 0.76846 0.0
S769 S 0.78233 0.25723 0.76079 0.0
N770 N 0.78866 0.22502 0.78203 0.0
N771 N 0.81769 0.26838 0.74796 0.0
C772 C 0.83653 0.24564 0.76099 0.0
C773 C 0.82083 0.22222 0.77961 0.0
C774 C 0.98336 0.60597 0.01614 0.0
C775 C 0.98031 0.63834 0.00896 0.0
C776 C 0.01109 0.59398 0.03001 0.0
C777 C 0.0371 0.61382 0.03698 0.0
H778 H 0.96478 0.58941 0.00962 0.0
H779 H 0.01276 0.5686 0.03341 0.0
S780 S 0.03885 0.7013 0.02821 0.0
N781 N 0.0038 0.69078 0.01398 0.0
N782 N 0.05614 0.66817 0.03991 0.0
C783 C 0.03323 0.64666 0.03263 0.0
C784 C 0.00478 0.65894 0.01863 0.0
C785 C 0.61878 0.83834 0.27177 0.0
C786 C 0.64791 0.83298 0.28738 0.0
C787 C 0.59644 0.81409 0.26814 0.0
C788 C 0.60268 0.78344 0.27958 0.0
H789 H 0.61394 0.86097 0.26065 0.0
H790 H 0.57547 0.81885 0.25395 0.0
S791 S 0.67264 0.75893 0.32763 0.0
N792 N 0.67967 0.7963 0.3186 0.0
N793 N 0.63775 0.75048 0.31169 0.0
C794 C 0.63019 0.77873 0.29819 0.0
C795 C 0.65286 0.80357 0.30207 0.0
C796 C 0.44453 0.39779 0.53818 0.0
C797 C 0.41385 0.38846 0.54772 0.0
C798 C 0.46531 0.37638 0.52342 0.0
C799 C 0.45629 0.34477 0.51768 0.0
H800 H 0.45191 0.42228 0.54017 0.0
H801 H 0.48795 0.38526 0.51494 0.0
S802 S 0.38128 0.30681 0.54437 0.0
N803 N 0.37744 0.34428 0.55503 0.0
N804 N 0.41656 0.30401 0.52728 0.0
C805 C 0.42691 0.33439 0.52984 0.0
C806 C 0.4057 0.35623 0.54491 0.0
C807 C 0.16011 0.71672 0.70038 0.0
C808 C 0.14767 0.69073 0.68354 0.0
C809 C 0.14031 0.73642 0.71842 0.0
C810 C 0.10726 0.73125 0.71986 0.0
H811 H 0.18557 0.72061 0.70167 0.0
H812 H 0.15119 0.7551 0.73235 0.0
S813 S 0.06222 0.66996 0.67558 0.0
N814 N 0.09983 0.66333 0.66614 0.0
N815 N 0.06246 0.70083 0.69974 0.0
C816 C 0.09413 0.70725 0.70079 0.0
C817 C 0.11439 0.68689 0.68267 0.0
C818 C 0.5775 0.88761 0.97009 0.0
C819 C 0.58385 0.85705 0.98189 0.0
C820 C 0.60196 0.90959 0.96546 0.0
C821 C 0.63378 0.90198 0.97259 0.0
H822 H 0.55325 0.89519 0.9656 0.0
H823 H 0.59556 0.9332 0.9577 0.0
S824 S 0.66387 0.8237 -0.00062 0.0
N825 N 0.62491 0.81917 -0.00293 0.0
N826 N 0.67085 0.86056 0.98848 0.0
C827 C 0.64079 0.87084 0.98226 0.0
C828 C 0.61585 0.84834 0.98684 0.0
C829 C 0.93887 0.09444 0.44392 0.0
C830 C 0.94336 0.06148 0.44114 0.0
C831 C 0.961 0.11349 0.45982 0.0
C832 C 0.98841 0.10031 0.47372 0.0
H833 H 0.91731 0.1055 0.43513 0.0
H834 H 0.95561 0.13844 0.46264 0.0
S835 S 0.01405 0.01617 0.46868 0.0
N836 N 0.97941 0.01713 0.45021 0.0
N837 N 0.02093 0.05292 0.48014 0.0
C838 C -0.0055 0.06782 0.46892 0.0
C839 C 0.97202 0.04842 0.45257 0.0
loop_
_geom_bond_atom_site_label_1
_geom_bond_atom_site_label_2
_geom_bond_distance
_geom_bond_site_symmetry_2
_ccdc_geom_bond_type
C0 O1 1.160 . S
C0 O7 1.185 . S
O1 C0 1.160 . S
O2 Zn3 1.899 . S
O2 C10 1.284 . S
Zn3 O2 1.899 . S
Zn3 O4 2.032 . S
Zn3 O7 2.086 . S
Zn3 O12 1.977 . S
O4 Zn3 2.032 . S
O4 C8 1.278 . S
C5 O6 1.203 . S
C5 O12 1.267 . S
O6 C5 1.203 . S
O7 C0 1.185 . S
O7 Zn3 2.086 . S
C8 O4 1.278 . S
C8 O9 1.211 . S
O9 C8 1.211 . S
C10 O2 1.284 . S
C10 O11 1.273 . S
O11 C10 1.273 . S
O12 Zn3 1.977 . S
O12 C5 1.267 . S
C13 O14 1.160 1_655 S
C13 O20 1.185 . S
O14 C13 1.160 1_455 S
O15 Zn16 1.899 . S
O15 C23 1.284 . S
Zn16 O15 1.899 . S
Zn16 O17 2.032 . S
Zn16 O20 2.086 . S
Zn16 O25 1.977 . S
O17 Zn16 2.032 . S
O17 C21 1.278 . S
C18 O19 1.203 . S
C18 O25 1.267 . S
O19 C18 1.203 . S
O20 C13 1.185 . S
O20 Zn16 2.086 . S
C21 O17 1.278 . S
C21 O22 1.211 . S
O22 C21 1.211 . S
C23 O15 1.284 . S
C23 O24 1.273 1_565 S
O24 C23 1.273 1_545 S
O25 Zn16 1.977 . S
O25 C18 1.267 . S
C26 O27 1.160 . S
C26 O33 1.185 . S
O27 C26 1.160 . S
O28 Zn29 1.899 . S
O28 C36 1.284 . S
Zn29 O28 1.899 . S
Zn29 O30 2.032 . S
Zn29 O33 2.086 . S
Zn29 O38 1.977 . S
O30 Zn29 2.032 . S
O30 C34 1.278 . S
C31 O32 1.203 . S
C31 O38 1.267 . S
O32 C31 1.203 . S
O33 C26 1.185 . S
O33 Zn29 2.086 . S
C34 O30 1.278 . S
C34 O35 1.211 . S
O35 C34 1.211 . S
C36 O28 1.284 . S
C36 O37 1.273 . S
O37 C36 1.273 . S
O38 Zn29 1.977 . S
O38 C31 1.267 . S
C39 O40 1.160 . S
C39 O46 1.185 . S
O40 C39 1.160 . S
O41 Zn42 1.899 . S
O41 C49 1.284 . S
Zn42 O41 1.899 . S
Zn42 O43 2.032 . S
Zn42 O46 2.086 . S
Zn42 O51 1.977 . S
O43 Zn42 2.032 . S
O43 C47 1.278 . S
C44 O45 1.203 . S
C44 O51 1.267 . S
O45 C44 1.203 . S
O46 C39 1.185 . S
O46 Zn42 2.086 . S
C47 O43 1.278 . S
C47 O48 1.211 . S
O48 C47 1.211 . S
C49 O41 1.284 . S
C49 O50 1.273 1_545 S
O50 C49 1.273 1_565 S
O51 Zn42 1.977 . S
O51 C44 1.267 . S
C52 O53 1.160 . S
C52 O59 1.185 . S
O53 C52 1.160 . S
O54 Zn55 1.899 . S
O54 C62 1.284 . S
Zn55 O54 1.899 . S
Zn55 O56 2.032 . S
Zn55 O59 2.086 . S
Zn55 O64 1.977 . S
O56 Zn55 2.032 . S
O56 C60 1.278 . S
C57 O58 1.203 . S
C57 O64 1.267 . S
O58 C57 1.203 . S
O59 C52 1.185 . S
O59 Zn55 2.086 . S
C60 O56 1.278 . S
C60 O61 1.211 . S
O61 C60 1.211 . S
C62 O54 1.284 . S
C62 O63 1.273 . S
O63 C62 1.273 . S
O64 Zn55 1.977 . S
O64 C57 1.267 . S
C65 O66 1.160 1_455 S
C65 O72 1.185 . S
O66 C65 1.160 1_655 S
O67 Zn68 1.899 . S
O67 C75 1.284 . S
Zn68 O67 1.899 . S
Zn68 O69 2.032 . S
Zn68 O72 2.086 . S
Zn68 O77 1.977 . S
O69 Zn68 2.032 . S
O69 C73 1.278 . S
C70 O71 1.203 . S
C70 O77 1.267 . S
O71 C70 1.203 . S
O72 C65 1.185 . S
O72 Zn68 2.086 . S
C73 O69 1.278 . S
C73 O74 1.211 . S
O74 C73 1.211 . S
C75 O67 1.284 . S
C75 O76 1.273 . S
O76 C75 1.273 . S
O77 Zn68 1.977 . S
O77 C70 1.267 . S
C78 O79 1.160 . S
C78 O85 1.185 . S
O79 C78 1.160 . S
O80 Zn81 1.899 . S
O80 C88 1.284 . S
Zn81 O80 1.899 . S
Zn81 O82 2.032 . S
Zn81 O85 2.086 . S
Zn81 O90 1.977 . S
O82 Zn81 2.032 . S
O82 C86 1.278 . S
C83 O84 1.203 . S
C83 O90 1.267 . S
O84 C83 1.203 . S
O85 C78 1.185 . S
O85 Zn81 2.086 . S
C86 O82 1.278 . S
C86 O87 1.211 . S
O87 C86 1.211 . S
C88 O80 1.284 . S
C88 O89 1.273 . S
O89 C88 1.273 . S
O90 Zn81 1.977 . S
O90 C83 1.267 . S
C91 O92 1.160 . S
C91 O98 1.185 . S
O92 C91 1.160 . S
O93 Zn94 1.899 . S
O93 C101 1.284 . S
Zn94 O93 1.899 . S
Zn94 O95 2.032 . S
Zn94 O98 2.086 . S
Zn94 O103 1.977 . S
O95 Zn94 2.032 . S
O95 C99 1.278 . S
C96 O97 1.203 . S
C96 O103 1.267 . S
O97 C96 1.203 . S
O98 C91 1.185 . S
O98 Zn94 2.086 . S
C99 O95 1.278 . S
C99 O100 1.211 . S
O100 C99 1.211 . S
C101 O93 1.284 . S
C101 O102 1.273 . S
O102 C101 1.273 . S
O103 Zn94 1.977 . S
O103 C96 1.267 . S
C104 O105 1.160 . S
C104 O111 1.185 . S
O105 C104 1.160 . S
O106 Zn107 1.899 . S
O106 C114 1.284 . S
Zn107 O106 1.899 . S
Zn107 O108 2.032 . S
Zn107 O111 2.086 . S
Zn107 O116 1.977 . S
O108 Zn107 2.032 . S
O108 C112 1.278 . S
C109 O110 1.203 . S
C109 O116 1.267 . S
O110 C109 1.203 . S
O111 C104 1.185 . S
O111 Zn107 2.086 . S
C112 O108 1.278 . S
C112 O113 1.211 . S
O113 C112 1.211 . S
C114 O106 1.284 . S
C114 O115 1.273 . S
O115 C114 1.273 . S
O116 Zn107 1.977 . S
O116 C109 1.267 . S
C117 O118 1.160 . S
C117 O124 1.185 . S
O118 C117 1.160 . S
O119 Zn120 1.899 . S
O119 C127 1.284 . S
Zn120 O119 1.899 . S
Zn120 O121 2.032 . S
Zn120 O124 2.086 . S
Zn120 O129 1.977 . S
O121 Zn120 2.032 . S
O121 C125 1.278 . S
C122 O123 1.203 . S
C122 O129 1.267 . S
O123 C122 1.203 . S
O124 C117 1.185 . S
O124 Zn120 2.086 . S
C125 O121 1.278 . S
C125 O126 1.211 . S
O126 C125 1.211 . S
C127 O119 1.284 . S
C127 O128 1.273 1_455 S
O128 C127 1.273 1_655 S
O129 Zn120 1.977 . S
O129 C122 1.267 . S
C130 O131 1.160 . S
C130 O137 1.185 . S
O131 C130 1.160 . S
O132 Zn133 1.899 . S
O132 C140 1.284 . S
Zn133 O132 1.899 . S
Zn133 O134 2.032 . S
Zn133 O137 2.086 . S
Zn133 O142 1.977 . S
O134 Zn133 2.032 . S
O134 C138 1.278 . S
C135 O136 1.203 . S
C135 O142 1.267 . S
O136 C135 1.203 . S
O137 C130 1.185 . S
O137 Zn133 2.086 . S
C138 O134 1.278 . S
C138 O139 1.211 . S
O139 C138 1.211 . S
C140 O132 1.284 . S
C140 O141 1.273 . S
O141 C140 1.273 . S
O142 Zn133 1.977 . S
O142 C135 1.267 . S
C143 O144 1.160 1_554 S
C143 O150 1.185 . S
O144 C143 1.160 1_556 S
O145 Zn146 1.899 . S
O145 C153 1.284 . S
Zn146 O145 1.899 . S
Zn146 O147 2.032 . S
Zn146 O150 2.086 . S
Zn146 O155 1.977 . S
O147 Zn146 2.032 . S
O147 C151 1.278 . S
C148 O149 1.203 . S
C148 O155 1.267 . S
O149 C148 1.203 . S
O150 C143 1.185 . S
O150 Zn146 2.086 . S
C151 O147 1.278 . S
C151 O152 1.211 . S
O152 C151 1.211 . S
C153 O145 1.284 . S
C153 O154 1.273 . S
O154 C153 1.273 . S
O155 Zn146 1.977 . S
O155 C148 1.267 . S
C156 O157 1.160 . S
C156 O163 1.185 . S
O157 C156 1.160 . S
O158 Zn159 1.899 . S
O158 C166 1.284 . S
Zn159 O158 1.899 . S
Zn159 O160 2.032 . S
Zn159 O163 2.086 . S
Zn159 O168 1.977 . S
O160 Zn159 2.032 . S
O160 C164 1.278 . S
C161 O162 1.203 . S
C161 O168 1.267 . S
O162 C161 1.203 . S
O163 C156 1.185 . S
O163 Zn159 2.086 . S
C164 O160 1.278 . S
C164 O165 1.211 . S
O165 C164 1.211 . S
C166 O158 1.284 . S
C166 O167 1.273 . S
O167 C166 1.273 . S
O168 Zn159 1.977 . S
O168 C161 1.267 . S
C169 O170 1.160 1_556 S
C169 O176 1.185 . S
O170 C169 1.160 1_554 S
O171 Zn172 1.899 . S
O171 C179 1.284 . S
Zn172 O171 1.899 . S
Zn172 O173 2.032 . S
Zn172 O176 2.086 . S
Zn172 O181 1.977 . S
O173 Zn172 2.032 . S
O173 C177 1.278 . S
C174 O175 1.203 . S
C174 O181 1.267 . S
O175 C174 1.203 . S
O176 C169 1.185 . S
O176 Zn172 2.086 . S
C177 O173 1.278 . S
C177 O178 1.211 . S
O178 C177 1.211 . S
C179 O171 1.284 . S
C179 O180 1.273 1_655 S
O180 C179 1.273 1_455 S
O181 Zn172 1.977 . S
O181 C174 1.267 . S
C182 O183 1.160 . S
C182 O189 1.185 . S
O183 C182 1.160 . S
O184 Zn185 1.899 . S
O184 C192 1.284 . S
Zn185 O184 1.899 . S
Zn185 O186 2.032 . S
Zn185 O189 2.086 . S
Zn185 O194 1.977 . S
O186 Zn185 2.032 . S
O186 C190 1.278 . S
C187 O188 1.203 . S
C187 O194 1.267 . S
O188 C187 1.203 . S
O189 C182 1.185 . S
O189 Zn185 2.086 . S
C190 O186 1.278 . S
C190 O191 1.211 . S
O191 C190 1.211 . S
C192 O184 1.284 . S
C192 O193 1.273 . S
O193 C192 1.273 . S
O194 Zn185 1.977 . S
O194 C187 1.267 . S
C195 O196 1.160 . S
C195 O202 1.185 . S
O196 C195 1.160 . S
O197 Zn198 1.899 . S
O197 C205 1.284 . S
Zn198 O197 1.899 . S
Zn198 O199 2.032 . S
Zn198 O202 2.086 . S
Zn198 O207 1.977 . S
O199 Zn198 2.032 . S
O199 C203 1.278 . S
C200 O201 1.203 . S
C200 O207 1.267 . S
O201 C200 1.203 . S
O202 C195 1.185 . S
O202 Zn198 2.086 . S
C203 O199 1.278 . S
C203 O204 1.211 . S
O204 C203 1.211 . S
C205 O197 1.284 . S
C205 O206 1.273 . S
O206 C205 1.273 . S
O207 Zn198 1.977 . S
O207 C200 1.267 . S
C208 O209 1.160 . S
C208 O215 1.185 . S
O209 C208 1.160 . S
O210 Zn211 1.899 . S
O210 C218 1.284 . S
Zn211 O210 1.899 . S
Zn211 O212 2.032 . S
Zn211 O215 2.086 . S
Zn211 O220 1.977 . S
O212 Zn211 2.032 . S
O212 C216 1.278 . S
C213 O214 1.203 . S
C213 O220 1.267 . S
O214 C213 1.203 . S
O215 C208 1.185 . S
O215 Zn211 2.086 . S
C216 O212 1.278 . S
C216 O217 1.211 . S
O217 C216 1.211 . S
C218 O210 1.284 . S
C218 O219 1.273 . S
O219 C218 1.273 . S
O220 Zn211 1.977 . S
O220 C213 1.267 . S
C221 O222 1.160 . S
C221 O228 1.185 . S
O222 C221 1.160 . S
O223 Zn224 1.899 . S
O223 C231 1.284 . S
Zn224 O223 1.899 . S
Zn224 O225 2.032 . S
Zn224 O228 2.086 . S
Zn224 O233 1.977 . S
O225 Zn224 2.032 . S
O225 C229 1.278 . S
C226 O227 1.203 . S
C226 O233 1.267 . S
O227 C226 1.203 . S
O228 C221 1.185 . S
O228 Zn224 2.086 . S
C229 O225 1.278 . S
C229 O230 1.211 . S
O230 C229 1.211 . S
C231 O223 1.284 . S
C231 O232 1.273 . S
O232 C231 1.273 . S
O233 Zn224 1.977 . S
O233 C226 1.267 . S
C234 O235 1.160 . S
C234 O241 1.185 . S
O235 C234 1.160 . S
O236 Zn237 1.899 . S
O236 C244 1.284 . S
Zn237 O236 1.899 . S
Zn237 O238 2.032 . S
Zn237 O241 2.086 . S
Zn237 O246 1.977 . S
O238 Zn237 2.032 . S
O238 C242 1.278 . S
C239 O240 1.203 . S
C239 O246 1.267 . S
O240 C239 1.203 . S
O241 C234 1.185 . S
O241 Zn237 2.086 . S
C242 O238 1.278 . S
C242 O243 1.211 . S
O243 C242 1.211 . S
C244 O236 1.284 . S
C244 O245 1.273 1_554 S
O245 C244 1.273 1_556 S
O246 Zn237 1.977 . S
O246 C239 1.267 . S
C247 O248 1.160 . S
C247 O254 1.185 . S
O248 C247 1.160 . S
O249 Zn250 1.899 . S
O249 C257 1.284 . S
Zn250 O249 1.899 . S
Zn250 O251 2.032 . S
Zn250 O254 2.086 . S
Zn250 O259 1.977 . S
O251 Zn250 2.032 . S
O251 C255 1.278 . S
C252 O253 1.203 . S
C252 O259 1.267 . S
O253 C252 1.203 . S
O254 C247 1.185 . S
O254 Zn250 2.086 . S
C255 O251 1.278 . S
C255 O256 1.211 . S
O256 C255 1.211 . S
C257 O249 1.284 . S
C257 O258 1.273 . S
O258 C257 1.273 . S
O259 Zn250 1.977 . S
O259 C252 1.267 . S
C260 O261 1.160 . S
C260 O267 1.185 . S
O261 C260 1.160 . S
O262 Zn263 1.899 . S
O262 C270 1.284 . S
Zn263 O262 1.899 . S
Zn263 O264 2.032 . S
Zn263 O267 2.086 . S
Zn263 O272 1.977 . S
O264 Zn263 2.032 . S
O264 C268 1.278 . S
C265 O266 1.203 . S
C265 O272 1.267 . S
O266 C265 1.203 . S
O267 C260 1.185 . S
O267 Zn263 2.086 . S
C268 O264 1.278 . S
C268 O269 1.211 . S
O269 C268 1.211 . S
C270 O262 1.284 . S
C270 O271 1.273 . S
O271 C270 1.273 . S
O272 Zn263 1.977 . S
O272 C265 1.267 . S
C273 O274 1.160 . S
C273 O280 1.185 . S
O274 C273 1.160 . S
O275 Zn276 1.899 . S
O275 C283 1.284 . S
Zn276 O275 1.899 . S
Zn276 O277 2.032 . S
Zn276 O280 2.086 . S
Zn276 O285 1.977 . S
O277 Zn276 2.032 . S
O277 C281 1.278 . S
C278 O279 1.203 . S
C278 O285 1.267 . S
O279 C278 1.203 . S
O280 C273 1.185 . S
O280 Zn276 2.086 . S
C281 O277 1.278 . S
C281 O282 1.211 . S
O282 C281 1.211 . S
C283 O275 1.284 . S
C283 O284 1.273 . S
O284 C283 1.273 . S
O285 Zn276 1.977 . S
O285 C278 1.267 . S
C286 O287 1.160 1_565 S
C286 O293 1.185 . S
O287 C286 1.160 1_545 S
O288 Zn289 1.899 . S
O288 C296 1.284 . S
Zn289 O288 1.899 . S
Zn289 O290 2.032 . S
Zn289 O293 2.086 . S
Zn289 O298 1.977 . S
O290 Zn289 2.032 . S
O290 C294 1.278 . S
C291 O292 1.203 . S
C291 O298 1.267 . S
O292 C291 1.203 . S
O293 C286 1.185 . S
O293 Zn289 2.086 . S
C294 O290 1.278 . S
C294 O295 1.211 . S
O295 C294 1.211 . S
C296 O288 1.284 . S
C296 O297 1.273 1_556 S
O297 C296 1.273 1_554 S
O298 Zn289 1.977 . S
O298 C291 1.267 . S
C299 O300 1.160 1_545 S
C299 O306 1.185 . S
O300 C299 1.160 1_565 S
O301 Zn302 1.899 . S
O301 C309 1.284 . S
Zn302 O301 1.899 . S
Zn302 O303 2.032 . S
Zn302 O306 2.086 . S
Zn302 O311 1.977 . S
O303 Zn302 2.032 . S
O303 C307 1.278 . S
C304 O305 1.203 . S
C304 O311 1.267 . S
O305 C304 1.203 . S
O306 C299 1.185 . S
O306 Zn302 2.086 . S
C307 O303 1.278 . S
C307 O308 1.211 . S
O308 C307 1.211 . S
C309 O301 1.284 . S
C309 O310 1.273 . S
O310 C309 1.273 . S
O311 Zn302 1.977 . S
O311 C304 1.267 . S
C312 C313 1.369 . S
C312 C314 1.419 . S
C312 H316 0.930 . S
C313 C312 1.369 . S
C313 C322 1.429 . S
C314 C312 1.419 . S
C314 C315 1.363 . S
C314 H317 0.929 . S
C315 C314 1.363 . S
C315 C321 1.428 . S
H316 C312 0.930 . S
H317 C314 0.929 . S
S318 N319 1.613 . S
S318 N320 1.610 . S
N319 S318 1.613 . S
N319 C322 1.350 . S
N320 S318 1.610 . S
N320 C321 1.351 . S
C321 C315 1.428 . S
C321 N320 1.351 . S
C321 C322 1.434 . S
C322 C313 1.429 . S
C322 N319 1.350 . S
C322 C321 1.434 . S
C323 C324 1.369 . S
C323 C325 1.419 . S
C323 H327 0.920 1_455 S
C324 C323 1.369 . S
C324 C333 1.429 . S
C325 C323 1.419 . S
C325 C326 1.363 . S
C325 H328 0.929 . S
C326 C325 1.363 . S
C326 C332 1.428 . S
H327 C323 0.920 1_655 S
H328 C325 0.929 . S
S329 N330 1.613 . S
S329 N331 1.610 . S
N330 S329 1.613 . S
N330 C333 1.350 . S
N331 S329 1.610 . S
N331 C332 1.351 . S
C332 C326 1.428 . S
C332 N331 1.351 . S
C332 C333 1.434 . S
C333 C324 1.429 . S
C333 N330 1.350 . S
C333 C332 1.434 . S
C334 C335 1.369 . S
C334 C336 1.419 1_556 S
C334 H338 0.930 . S
C335 C334 1.369 . S
C335 C344 1.429 . S
C336 C334 1.419 1_554 S
C336 C337 1.363 1_554 S
C336 H339 0.929 . S
C337 C336 1.363 1_556 S
C337 C343 1.428 . S
H338 C334 0.930 . S
H339 C336 0.929 . S
S340 N341 1.613 . S
S340 N342 1.610 . S
N341 S340 1.613 . S
N341 C344 1.350 . S
N342 S340 1.610 . S
N342 C343 1.351 . S
C343 C337 1.428 . S
C343 N342 1.351 . S
C343 C344 1.434 . S
C344 C335 1.429 . S
C344 N341 1.350 . S
C344 C343 1.434 . S
C345 C346 1.369 . S
C345 C347 1.419 . S
C345 H349 0.930 . S
C346 C345 1.369 . S
C346 C355 1.429 . S
C347 C345 1.419 . S
C347 C348 1.363 . S
C347 H350 0.929 . S
C348 C347 1.363 . S
C348 C354 1.428 . S
H349 C345 0.930 . S
H350 C347 0.929 . S
S351 N352 1.613 . S
S351 N353 1.610 . S
N352 S351 1.613 . S
N352 C355 1.350 . S
N353 S351 1.610 . S
N353 C354 1.351 . S
C354 C348 1.428 . S
C354 N353 1.351 . S
C354 C355 1.434 . S
C355 C346 1.429 . S
C355 N352 1.350 . S
C355 C354 1.434 . S
C356 C357 1.369 . S
C356 C358 1.419 . S
C356 H360 0.930 . S
C357 C356 1.369 . S
C357 C366 1.429 . S
C358 C356 1.419 . S
C358 C359 1.363 . S
C358 H361 0.929 . S
C359 C358 1.363 . S
C359 C365 1.428 . S
H360 C356 0.930 . S
H361 C358 0.929 . S
S362 N363 1.613 . S
S362 N364 1.610 . S
N363 S362 1.613 . S
N363 C366 1.350 . S
N364 S362 1.610 . S
N364 C365 1.351 . S
C365 C359 1.428 . S
C365 N364 1.351 . S
C365 C366 1.434 . S
C366 C357 1.429 . S
C366 N363 1.350 . S
C366 C365 1.434 . S
C367 C368 1.369 . S
C367 C369 1.419 . S
C367 H371 0.930 . S
C368 C367 1.369 . S
C368 C377 1.429 . S
C369 C367 1.419 . S
C369 C370 1.363 . S
C369 H372 0.929 1_655 S
C370 C369 1.363 . S
C370 C376 1.428 . S
H371 C367 0.930 . S
H372 C369 0.929 1_455 S
S373 N374 1.613 . S
S373 N375 1.610 . S
N374 S373 1.613 . S
N374 C377 1.350 . S
N375 S373 1.610 . S
N375 C376 1.351 . S
C376 C370 1.428 . S
C376 N375 1.351 . S
C376 C377 1.434 . S
C377 C368 1.429 . S
C377 N374 1.350 . S
C377 C376 1.434 . S
C378 C379 1.369 . S
C378 C380 1.419 . S
C378 H382 0.930 . S
C379 C378 1.369 . S
C379 C388 1.429 . S
C380 C378 1.419 . S
C380 C381 1.363 . S
C380 H383 0.929 . S
C381 C380 1.363 . S
C381 C387 1.428 . S
H382 C378 0.930 . S
H383 C380 0.929 . S
S384 N385 1.613 . S
S384 N386 1.610 . S
N385 S384 1.613 . S
N385 C388 1.350 . S
N386 S384 1.610 . S
N386 C387 1.351 . S
C387 C381 1.428 . S
C387 N386 1.351 . S
C387 C388 1.434 . S
C388 C379 1.429 . S
C388 N385 1.350 . S
C388 C387 1.434 . S
C389 C390 1.369 . S
C389 C391 1.419 . S
C389 H393 0.930 . S
C390 C389 1.369 . S
C390 C399 1.429 . S
C391 C389 1.419 . S
C391 C392 1.363 . S
C391 H394 0.929 . S
C392 C391 1.363 . S
C392 C398 1.428 . S
H393 C389 0.930 . S
H394 C391 0.929 . S
S395 N396 1.613 . S
S395 N397 1.610 . S
N396 S395 1.613 . S
N396 C399 1.350 . S
N397 S395 1.610 . S
N397 C398 1.351 . S
C398 C392 1.428 . S
C398 N397 1.351 . S
C398 C399 1.434 . S
C399 C390 1.429 . S
C399 N396 1.350 . S
C399 C398 1.434 . S
C400 C401 1.369 . S
C400 C402 1.419 . S
C400 H404 0.930 . S
C401 C400 1.369 . S
C401 C410 1.429 . S
C402 C400 1.419 . S
C402 C403 1.363 . S
C402 H405 0.929 . S
C403 C402 1.363 . S
C403 C409 1.428 . S
H404 C400 0.930 . S
H405 C402 0.929 . S
S406 N407 1.613 . S
S406 N408 1.610 . S
N407 S406 1.613 . S
N407 C410 1.350 . S
N408 S406 1.610 . S
N408 C409 1.351 . S
C409 C403 1.428 . S
C409 N408 1.351 . S
C409 C410 1.434 . S
C410 C401 1.429 . S
C410 N407 1.350 . S
C410 C409 1.434 . S
C411 C412 1.369 . S
C411 C413 1.419 . S
C411 H415 0.930 1_545 S
C412 C411 1.369 . S
C412 C421 1.429 . S
C413 C411 1.419 . S
C413 C414 1.363 . S
C413 H416 0.929 . S
C414 C413 1.363 . S
C414 C420 1.428 . S
H415 C411 0.930 1_565 S
H416 C413 0.929 . S
S417 N418 1.613 . S
S417 N419 1.610 . S
N418 S417 1.613 . S
N418 C421 1.350 . S
N419 S417 1.610 . S
N419 C420 1.351 . S
C420 C414 1.428 . S
C420 N419 1.351 . S
C420 C421 1.434 . S
C421 C412 1.429 . S
C421 N418 1.350 . S
C421 C420 1.434 . S
C422 C423 1.369 . S
C422 C424 1.419 . S
C422 H426 0.930 . S
C423 C422 1.369 . S
C423 C432 1.429 . S
C424 C422 1.419 . S
C424 C425 1.363 . S
C424 H427 0.929 . S
C425 C424 1.363 . S
C425 C431 1.428 . S
H426 C422 0.930 . S
H427 C424 0.929 . S
S428 N429 1.613 . S
S428 N430 1.610 . S
N429 S428 1.613 . S
N429 C432 1.350 . S
N430 S428 1.610 . S
N430 C431 1.351 . S
C431 C425 1.428 . S
C431 N430 1.351 . S
C431 C432 1.434 . S
C432 C423 1.429 . S
C432 N429 1.350 . S
C432 C431 1.434 . S
C433 C434 1.369 . S
C433 C435 1.419 . S
C433 H437 0.930 . S
C434 C433 1.369 . S
C434 C443 1.429 . S
C435 C433 1.419 . S
C435 C436 1.363 . S
C435 H438 0.929 . S
C436 C435 1.363 . S
C436 C442 1.428 . S
H437 C433 0.930 . S
H438 C435 0.929 . S
S439 N440 1.613 . S
S439 N441 1.610 . S
N440 S439 1.613 . S
N440 C443 1.350 . S
N441 S439 1.610 . S
N441 C442 1.351 . S
C442 C436 1.428 . S
C442 N441 1.351 . S
C442 C443 1.434 . S
C443 C434 1.429 . S
C443 N440 1.350 . S
C443 C442 1.434 . S
C444 C445 1.369 . S
C444 C446 1.419 . S
C444 H448 0.930 . S
C445 C444 1.369 . S
C445 C454 1.429 . S
C446 C444 1.419 . S
C446 C447 1.363 . S
C446 H449 0.929 . S
C447 C446 1.363 . S
C447 C453 1.428 . S
H448 C444 0.930 . S
H449 C446 0.929 . S
S450 N451 1.613 . S
S450 N452 1.610 . S
N451 S450 1.613 . S
N451 C454 1.350 . S
N452 S450 1.610 . S
N452 C453 1.351 . S
C453 C447 1.428 . S
C453 N452 1.351 . S
C453 C454 1.434 . S
C454 C445 1.429 . S
C454 N451 1.350 . S
C454 C453 1.434 . S
C455 C456 1.369 . S
C455 C457 1.419 1_565 S
C455 H459 0.930 . S
C456 C455 1.369 . S
C456 C465 1.429 1_565 S
C457 C455 1.419 1_545 S
C457 C458 1.363 . S
C457 H460 0.929 1_545 S
C458 C457 1.363 . S
C458 C464 1.428 . S
H459 C455 0.930 . S
H460 C457 0.929 1_565 S
S461 N462 1.613 . S
S461 N463 1.610 . S
N462 S461 1.613 . S
N462 C465 1.350 . S
N463 S461 1.610 . S
N463 C464 1.351 . S
C464 C458 1.428 . S
C464 N463 1.351 . S
C464 C465 1.434 . S
C465 C456 1.429 1_545 S
C465 N462 1.350 . S
C465 C464 1.434 . S
C466 C467 1.369 . S
C466 C468 1.419 1_556 S
C466 H470 0.923 1_556 S
C467 C466 1.369 . S
C467 C476 1.429 . S
C468 C466 1.419 1_554 S
C468 C469 1.363 . S
C468 H471 0.929 . S
C469 C468 1.363 . S
C469 C475 1.428 1_554 S
H470 C466 0.923 1_554 S
H471 C468 0.929 . S
S472 N473 1.613 . S
S472 N474 1.610 . S
N473 S472 1.613 . S
N473 C476 1.350 . S
N474 S472 1.610 . S
N474 C475 1.351 . S
C475 C469 1.428 1_556 S
C475 N474 1.351 . S
C475 C476 1.434 . S
C476 C467 1.429 . S
C476 N473 1.350 . S
C476 C475 1.434 . S
C477 C478 1.369 . S
C477 C479 1.419 1_545 S
C477 H481 0.930 . S
C478 C477 1.369 . S
C478 C487 1.429 1_545 S
C479 C477 1.419 1_565 S
C479 C480 1.363 . S
C479 H482 0.929 . S
C480 C479 1.363 . S
C480 C486 1.428 . S
H481 C477 0.930 . S
H482 C479 0.929 . S
S483 N484 1.613 . S
S483 N485 1.610 . S
N484 S483 1.613 . S
N484 C487 1.350 . S
N485 S483 1.610 . S
N485 C486 1.351 . S
C486 C480 1.428 . S
C486 N485 1.351 . S
C486 C487 1.434 . S
C487 C478 1.429 1_565 S
C487 N484 1.350 . S
C487 C486 1.434 . S
C488 C489 1.369 . S
C488 C490 1.419 . S
C488 H492 0.930 . S
C489 C488 1.369 . S
C489 C498 1.429 . S
C490 C488 1.419 . S
C490 C491 1.363 . S
C490 H493 0.929 . S
C491 C490 1.363 . S
C491 C497 1.428 . S
H492 C488 0.930 . S
H493 C490 0.929 . S
S494 N495 1.613 . S
S494 N496 1.610 . S
N495 S494 1.613 . S
N495 C498 1.350 . S
N496 S494 1.610 . S
N496 C497 1.351 . S
C497 C491 1.428 . S
C497 N496 1.351 . S
C497 C498 1.434 . S
C498 C489 1.429 . S
C498 N495 1.350 . S
C498 C497 1.434 . S
C499 C500 1.369 . S
C499 C501 1.419 . S
C499 H503 0.930 . S
C500 C499 1.369 . S
C500 C509 1.429 . S
C501 C499 1.419 . S
C501 C502 1.363 . S
C501 H504 0.929 . S
C502 C501 1.363 . S
C502 C508 1.428 . S
H503 C499 0.930 . S
H504 C501 0.929 . S
S505 N506 1.613 . S
S505 N507 1.610 . S
N506 S505 1.613 . S
N506 C509 1.350 . S
N507 S505 1.610 . S
N507 C508 1.351 . S
C508 C502 1.428 . S
C508 N507 1.351 . S
C508 C509 1.434 . S
C509 C500 1.429 . S
C509 N506 1.350 . S
C509 C508 1.434 . S
C510 C511 1.369 1_554 S
C510 C512 1.419 . S
C510 H514 0.930 1_554 S
C511 C510 1.369 1_556 S
C511 C520 1.429 1_556 S
C512 C510 1.419 . S
C512 C513 1.363 . S
C512 H515 0.929 . S
C513 C512 1.363 . S
C513 C519 1.428 . S
H514 C510 0.930 1_556 S
H515 C512 0.929 . S
S516 N517 1.613 . S
S516 N518 1.610 . S
N517 S516 1.613 . S
N517 C520 1.350 . S
N518 S516 1.610 . S
N518 C519 1.351 . S
C519 C513 1.428 . S
C519 N518 1.351 . S
C519 C520 1.434 . S
C520 C511 1.429 1_554 S
C520 N517 1.350 . S
C520 C519 1.434 . S
C521 C522 1.369 . S
C521 C523 1.419 . S
C521 H525 0.930 . S
C522 C521 1.369 . S
C522 C531 1.429 . S
C523 C521 1.419 . S
C523 C524 1.363 . S
C523 H526 0.929 . S
C524 C523 1.363 . S
C524 C530 1.428 . S
H525 C521 0.930 . S
H526 C523 0.929 . S
S527 N528 1.613 . S
S527 N529 1.610 . S
N528 S527 1.613 . S
N528 C531 1.350 . S
N529 S527 1.610 . S
N529 C530 1.351 . S
C530 C524 1.428 . S
C530 N529 1.351 . S
C530 C531 1.434 . S
C531 C522 1.429 . S
C531 N528 1.350 . S
C531 C530 1.434 . S
C532 C533 1.369 . S
C532 C534 1.419 . S
C532 H536 0.930 . S
C533 C532 1.369 . S
C533 C542 1.429 . S
C534 C532 1.419 . S
C534 C535 1.363 . S
C534 H537 0.929 . S
C535 C534 1.363 . S
C535 C541 1.428 . S
H536 C532 0.930 . S
H537 C534 0.929 . S
S538 N539 1.613 . S
S538 N540 1.610 . S
N539 S538 1.613 . S
N539 C542 1.350 . S
N540 S538 1.610 . S
N540 C541 1.351 . S
C541 C535 1.428 . S
C541 N540 1.351 . S
C541 C542 1.434 . S
C542 C533 1.429 . S
C542 N539 1.350 . S
C542 C541 1.434 . S
C543 C544 1.369 1_655 S
C543 C545 1.419 . S
C543 H547 0.930 . S
C544 C543 1.369 1_455 S
C544 C553 1.429 . S
C545 C543 1.419 . S
C545 C546 1.363 . S
C545 H548 0.929 . S
C546 C545 1.363 . S
C546 C552 1.428 . S
H547 C543 0.930 . S
H548 C545 0.929 . S
S549 N550 1.613 . S
S549 N551 1.610 . S
N550 S549 1.613 . S
N550 C553 1.350 . S
N551 S549 1.610 . S
N551 C552 1.351 1_455 S
C552 C546 1.428 . S
C552 N551 1.351 1_655 S
C552 C553 1.434 1_655 S
C553 C544 1.429 . S
C553 N550 1.350 . S
C553 C552 1.434 1_455 S
C554 C555 1.369 . S
C554 C556 1.419 1_655 S
C554 H558 0.930 . S
C555 C554 1.369 . S
C555 C564 1.429 1_655 S
C556 C554 1.419 1_455 S
C556 C557 1.363 . S
C556 H559 0.929 1_455 S
C557 C556 1.363 . S
C557 C563 1.428 . S
H558 C554 0.930 . S
H559 C556 0.929 1_655 S
S560 N561 1.613 . S
S560 N562 1.610 . S
N561 S560 1.613 . S
N561 C564 1.350 . S
N562 S560 1.610 . S
N562 C563 1.351 . S
C563 C557 1.428 . S
C563 N562 1.351 . S
C563 C564 1.434 . S
C564 C555 1.429 1_455 S
C564 N561 1.350 . S
C564 C563 1.434 . S
C565 C566 1.369 . S
C565 C567 1.419 . S
C565 H569 0.930 . S
C566 C565 1.369 . S
C566 C575 1.429 . S
C567 C565 1.419 . S
C567 C568 1.363 . S
C567 H570 0.929 . S
C568 C567 1.363 . S
C568 C574 1.428 . S
H569 C565 0.930 . S
H570 C567 0.929 . S
S571 N572 1.613 . S
S571 N573 1.610 . S
N572 S571 1.613 . S
N572 C575 1.350 . S
N573 S571 1.610 . S
N573 C574 1.351 . S
C574 C568 1.428 . S
C574 N573 1.351 . S
C574 C575 1.434 . S
C575 C566 1.429 . S
C575 N572 1.350 . S
C575 C574 1.434 . S
C576 C577 1.369 . S
C576 C578 1.419 . S
C576 H580 0.930 . S
C577 C576 1.369 . S
C577 C586 1.429 . S
C578 C576 1.419 . S
C578 C579 1.363 . S
C578 H581 0.929 . S
C579 C578 1.363 . S
C579 C585 1.428 . S
H580 C576 0.930 . S
H581 C578 0.929 . S
S582 N583 1.613 . S
S582 N584 1.610 . S
N583 S582 1.613 . S
N583 C586 1.350 . S
N584 S582 1.610 . S
N584 C585 1.351 . S
C585 C579 1.428 . S
C585 N584 1.351 . S
C585 C586 1.434 . S
C586 C577 1.429 . S
C586 N583 1.350 . S
C586 C585 1.434 . S
C587 C588 1.369 . S
C587 C589 1.419 . S
C587 H591 0.930 . S
C588 C587 1.369 . S
C588 C597 1.429 . S
C589 C587 1.419 . S
C589 C590 1.363 . S
C589 H592 0.929 . S
C590 C589 1.363 . S
C590 C596 1.428 . S
H591 C587 0.930 . S
H592 C589 0.929 . S
S593 N594 1.613 . S
S593 N595 1.610 1_545 S
N594 S593 1.613 . S
N594 C597 1.350 1_545 S
N595 S593 1.610 1_565 S
N595 C596 1.351 . S
C596 C590 1.428 . S
C596 N595 1.351 . S
C596 C597 1.434 . S
C597 C588 1.429 . S
C597 N594 1.350 1_565 S
C597 C596 1.434 . S
C598 C599 1.369 . S
C598 C600 1.419 . S
C598 H602 0.930 . S
C599 C598 1.369 . S
C599 C608 1.429 . S
C600 C598 1.419 . S
C600 C601 1.363 . S
C600 H603 0.929 . S
C601 C600 1.363 . S
C601 C607 1.428 . S
H602 C598 0.930 . S
H603 C600 0.929 . S
S604 N605 1.613 . S
S604 N606 1.610 . S
N605 S604 1.613 . S
N605 C608 1.350 . S
N606 S604 1.610 . S
N606 C607 1.351 . S
C607 C601 1.428 . S
C607 N606 1.351 . S
C607 C608 1.434 . S
C608 C599 1.429 . S
C608 N605 1.350 . S
C608 C607 1.434 . S
C609 C610 1.369 . S
C609 C611 1.419 . S
C609 H613 0.930 . S
C610 C609 1.369 . S
C610 C619 1.429 . S
C611 C609 1.419 . S
C611 C612 1.363 . S
C611 H614 0.951 . S
C612 C611 1.363 . S
C612 C618 1.428 . S
H613 C609 0.930 . S
H614 C611 0.951 . S
S615 N616 1.613 . S
S615 N617 1.610 . S
N616 S615 1.613 . S
N616 C619 1.350 . S
N617 S615 1.610 . S
N617 C618 1.351 . S
C618 C612 1.428 . S
C618 N617 1.351 . S
C618 C619 1.434 . S
C619 C610 1.429 . S
C619 N616 1.350 . S
C619 C618 1.434 . S
C620 C621 1.369 . S
C620 C622 1.419 . S
C620 H624 0.930 . S
C621 C620 1.369 . S
C621 C630 1.429 . S
C622 C620 1.419 . S
C622 C623 1.363 . S
C622 H625 0.929 . S
C623 C622 1.363 . S
C623 C629 1.428 . S
H624 C620 0.930 . S
H625 C622 0.929 . S
S626 N627 1.613 . S
S626 N628 1.610 . S
N627 S626 1.613 . S
N627 C630 1.350 . S
N628 S626 1.610 . S
N628 C629 1.351 . S
C629 C623 1.428 . S
C629 N628 1.351 . S
C629 C630 1.434 . S
C630 C621 1.429 . S
C630 N627 1.350 . S
C630 C629 1.434 . S
C631 C632 1.369 . S
C631 C633 1.419 . S
C631 H635 0.930 . S
C632 C631 1.369 . S
C632 C641 1.429 . S
C633 C631 1.419 . S
C633 C634 1.363 . S
C633 H636 0.929 . S
C634 C633 1.363 . S
C634 C640 1.428 . S
H635 C631 0.930 . S
H636 C633 0.929 . S
S637 N638 1.613 . S
S637 N639 1.610 1_554 S
N638 S637 1.613 . S
N638 C641 1.350 1_554 S
N639 S637 1.610 1_556 S
N639 C640 1.351 . S
C640 C634 1.428 . S
C640 N639 1.351 . S
C640 C641 1.434 . S
C641 C632 1.429 . S
C641 N638 1.350 1_556 S
C641 C640 1.434 . S
C642 C643 1.369 . S
C642 C644 1.419 . S
C642 H646 0.930 . S
C643 C642 1.369 . S
C643 C652 1.429 . S
C644 C642 1.419 . S
C644 C645 1.363 . S
C644 H647 0.929 . S
C645 C644 1.363 . S
C645 C651 1.428 . S
H646 C642 0.930 . S
H647 C644 0.929 . S
S648 N649 1.613 . S
S648 N650 1.610 . S
N649 S648 1.613 . S
N649 C652 1.350 . S
N650 S648 1.610 . S
N650 C651 1.351 . S
C651 C645 1.428 . S
C651 N650 1.351 . S
C651 C652 1.434 . S
C652 C643 1.429 . S
C652 N649 1.350 . S
C652 C651 1.434 . S
C653 C654 1.369 . S
C653 C655 1.419 . S
C653 H657 0.930 . S
C654 C653 1.369 . S
C654 C663 1.429 . S
C655 C653 1.419 . S
C655 C656 1.363 . S
C655 H658 0.929 . S
C656 C655 1.363 . S
C656 C662 1.428 . S
H657 C653 0.930 . S
H658 C655 0.929 . S
S659 N660 1.613 . S
S659 N661 1.610 . S
N660 S659 1.613 . S
N660 C663 1.350 . S
N661 S659 1.610 . S
N661 C662 1.351 . S
C662 C656 1.428 . S
C662 N661 1.351 . S
C662 C663 1.434 . S
C663 C654 1.429 . S
C663 N660 1.350 . S
C663 C662 1.434 . S
C664 C665 1.369 . S
C664 C666 1.419 . S
C664 H668 0.930 . S
C665 C664 1.369 . S
C665 C674 1.429 . S
C666 C664 1.419 . S
C666 C667 1.363 . S
C666 H669 0.929 . S
C667 C666 1.363 . S
C667 C673 1.428 . S
H668 C664 0.930 . S
H669 C666 0.929 . S
S670 N671 1.613 . S
S670 N672 1.610 . S
N671 S670 1.613 . S
N671 C674 1.350 . S
N672 S670 1.610 . S
N672 C673 1.351 . S
C673 C667 1.428 . S
C673 N672 1.351 . S
C673 C674 1.434 . S
C674 C665 1.429 . S
C674 N671 1.350 . S
C674 C673 1.434 . S
C675 C676 1.369 . S
C675 C677 1.419 . S
C675 H679 0.930 . S
C676 C675 1.369 . S
C676 C685 1.429 . S
C677 C675 1.419 . S
C677 C678 1.363 . S
C677 H680 0.929 . S
C678 C677 1.363 . S
C678 C684 1.428 . S
H679 C675 0.930 . S
H680 C677 0.929 . S
S681 N682 1.613 . S
S681 N683 1.610 . S
N682 S681 1.613 . S
N682 C685 1.350 . S
N683 S681 1.610 . S
N683 C684 1.351 . S
C684 C678 1.428 . S
C684 N683 1.351 . S
C684 C685 1.434 . S
C685 C676 1.429 . S
C685 N682 1.350 . S
C685 C684 1.434 . S
C686 C687 1.369 . S
C686 C688 1.419 . S
C686 H690 0.930 . S
C687 C686 1.369 . S
C687 C696 1.429 . S
C688 C686 1.419 . S
C688 C689 1.363 . S
C688 H691 0.929 . S
C689 C688 1.363 . S
C689 C695 1.428 . S
H690 C686 0.930 . S
H691 C688 0.929 . S
S692 N693 1.613 . S
S692 N694 1.610 . S
N693 S692 1.613 . S
N693 C696 1.350 . S
N694 S692 1.610 . S
N694 C695 1.351 . S
C695 C689 1.428 . S
C695 N694 1.351 . S
C695 C696 1.434 . S
C696 C687 1.429 . S
C696 N693 1.350 . S
C696 C695 1.434 . S
C697 C698 1.369 . S
C697 C699 1.419 . S
C697 H701 0.930 1_565 S
C698 C697 1.369 . S
C698 C707 1.429 . S
C699 C697 1.419 . S
C699 C700 1.363 . S
C699 H702 0.929 . S
C700 C699 1.363 . S
C700 C706 1.428 . S
H701 C697 0.930 1_545 S
H702 C699 0.929 . S
S703 N704 1.613 . S
S703 N705 1.610 . S
N704 S703 1.613 . S
N704 C707 1.350 . S
N705 S703 1.610 . S
N705 C706 1.351 . S
C706 C700 1.428 . S
C706 N705 1.351 . S
C706 C707 1.434 . S
C707 C698 1.429 . S
C707 N704 1.350 . S
C707 C706 1.434 . S
C708 C709 1.369 . S
C708 C710 1.419 . S
C708 H712 0.930 . S
C709 C708 1.369 . S
C709 C718 1.429 . S
C710 C708 1.419 . S
C710 C711 1.363 . S
C710 H713 0.929 . S
C711 C710 1.363 . S
C711 C717 1.428 . S
H712 C708 0.930 . S
H713 C710 0.929 . S
S714 N715 1.613 . S
S714 N716 1.610 . S
N715 S714 1.613 . S
N715 C718 1.350 . S
N716 S714 1.610 . S
N716 C717 1.351 . S
C717 C711 1.428 . S
C717 N716 1.351 . S
C717 C718 1.434 . S
C718 C709 1.429 . S
C718 N715 1.350 . S
C718 C717 1.434 . S
C719 C720 1.369 . S
C719 C721 1.419 . S
C719 H723 0.930 . S
C720 C719 1.369 . S
C720 C729 1.429 1_655 S
C721 C719 1.419 . S
C721 C722 1.363 . S
C721 H724 0.929 . S
C722 C721 1.363 . S
C722 C728 1.428 . S
H723 C719 0.930 . S
H724 C721 0.929 . S
S725 N726 1.613 . S
S725 N727 1.610 1_455 S
N726 S725 1.613 . S
N726 C729 1.350 . S
N727 S725 1.610 1_655 S
N727 C728 1.351 . S
C728 C722 1.428 . S
C728 N727 1.351 . S
C728 C729 1.434 1_655 S
C729 C720 1.429 1_455 S
C729 N726 1.350 . S
C729 C728 1.434 1_455 S
C730 C731 1.369 . S
C730 C732 1.419 . S
C730 H734 0.930 . S
C731 C730 1.369 . S
C731 C740 1.429 . S
C732 C730 1.419 . S
C732 C733 1.363 . S
C732 H735 0.929 . S
C733 C732 1.363 . S
C733 C739 1.428 . S
H734 C730 0.930 . S
H735 C732 0.929 . S
S736 N737 1.613 . S
S736 N738 1.610 . S
N737 S736 1.613 . S
N737 C740 1.350 . S
N738 S736 1.610 . S
N738 C739 1.351 . S
C739 C733 1.428 . S
C739 N738 1.351 . S
C739 C740 1.434 . S
C740 C731 1.429 . S
C740 N737 1.350 . S
C740 C739 1.434 . S
C741 C742 1.369 . S
C741 C743 1.419 . S
C741 H745 0.930 . S
C742 C741 1.369 . S
C742 C751 1.429 . S
C743 C741 1.419 . S
C743 C744 1.363 . S
C743 H746 0.929 . S
C744 C743 1.363 . S
C744 C750 1.428 . S
H745 C741 0.930 . S
H746 C743 0.929 . S
S747 N748 1.613 . S
S747 N749 1.610 . S
N748 S747 1.613 . S
N748 C751 1.350 . S
N749 S747 1.610 . S
N749 C750 1.351 . S
C750 C744 1.428 . S
C750 N749 1.351 . S
C750 C751 1.434 . S
C751 C742 1.429 . S
C751 N748 1.350 . S
C751 C750 1.434 . S
C752 C753 1.369 . S
C752 C754 1.419 . S
C752 H756 0.930 . S
C753 C752 1.369 . S
C753 C762 1.429 . S
C754 C752 1.419 . S
C754 C755 1.363 . S
C754 H757 0.929 . S
C755 C754 1.363 . S
C755 C761 1.428 . S
H756 C752 0.930 . S
H757 C754 0.929 . S
S758 N759 1.613 . S
S758 N760 1.610 . S
N759 S758 1.613 . S
N759 C762 1.350 . S
N760 S758 1.610 . S
N760 C761 1.351 . S
C761 C755 1.428 . S
C761 N760 1.351 . S
C761 C762 1.434 . S
C762 C753 1.429 . S
C762 N759 1.350 . S
C762 C761 1.434 . S
C763 C764 1.369 . S
C763 C765 1.419 . S
C763 H767 0.930 . S
C764 C763 1.369 . S
C764 C773 1.429 . S
C765 C763 1.419 . S
C765 C766 1.363 . S
C765 H768 0.929 . S
C766 C765 1.363 . S
C766 C772 1.428 . S
H767 C763 0.930 . S
H768 C765 0.929 . S
S769 N770 1.613 . S
S769 N771 1.610 . S
N770 S769 1.613 . S
N770 C773 1.350 . S
N771 S769 1.610 . S
N771 C772 1.351 . S
C772 C766 1.428 . S
C772 N771 1.351 . S
C772 C773 1.434 . S
C773 C764 1.429 . S
C773 N770 1.350 . S
C773 C772 1.434 . S
C774 C775 1.369 . S
C774 C776 1.419 . S
C774 H778 0.930 1_554 S
C775 C774 1.369 . S
C775 C784 1.429 . S
C776 C774 1.419 . S
C776 C777 1.363 . S
C776 H779 0.929 . S
C777 C776 1.363 . S
C777 C783 1.428 . S
H778 C774 0.930 1_556 S
H779 C776 0.929 . S
S780 N781 1.613 . S
S780 N782 1.610 . S
N781 S780 1.613 . S
N781 C784 1.350 . S
N782 S780 1.610 . S
N782 C783 1.351 . S
C783 C777 1.428 . S
C783 N782 1.351 . S
C783 C784 1.434 . S
C784 C775 1.429 . S
C784 N781 1.350 . S
C784 C783 1.434 . S
C785 C786 1.369 . S
C785 C787 1.419 . S
C785 H789 0.930 . S
C786 C785 1.369 . S
C786 C795 1.429 . S
C787 C785 1.419 . S
C787 C788 1.363 . S
C787 H790 0.929 . S
C788 C787 1.363 . S
C788 C794 1.428 . S
H789 C785 0.930 . S
H790 C787 0.929 . S
S791 N792 1.613 . S
S791 N793 1.610 . S
N792 S791 1.613 . S
N792 C795 1.350 . S
N793 S791 1.610 . S
N793 C794 1.351 . S
C794 C788 1.428 . S
C794 N793 1.351 . S
C794 C795 1.434 . S
C795 C786 1.429 . S
C795 N792 1.350 . S
C795 C794 1.434 . S
C796 C797 1.369 . S
C796 C798 1.419 . S
C796 H800 0.930 . S
C797 C796 1.369 . S
C797 C806 1.429 . S
C798 C796 1.419 . S
C798 C799 1.363 . S
C798 H801 0.929 . S
C799 C798 1.363 . S
C799 C805 1.428 . S
H800 C796 0.930 . S
H801 C798 0.929 . S
S802 N803 1.613 . S
S802 N804 1.610 . S
N803 S802 1.613 . S
N803 C806 1.350 . S
N804 S802 1.610 . S
N804 C805 1.351 . S
C805 C799 1.428 . S
C805 N804 1.351 . S
C805 C806 1.434 . S
C806 C797 1.429 . S
C806 N803 1.350 . S
C806 C805 1.434 . S
C807 C808 1.369 . S
C807 C809 1.419 . S
C807 H811 0.930 . S
C808 C807 1.369 . S
C808 C817 1.429 . S
C809 C807 1.419 . S
C809 C810 1.363 . S
C809 H812 0.929 . S
C810 C809 1.363 . S
C810 C816 1.428 . S
H811 C807 0.930 . S
H812 C809 0.929 . S
S813 N814 1.613 . S
S813 N815 1.610 . S
N814 S813 1.613 . S
N814 C817 1.350 . S
N815 S813 1.610 . S
N815 C816 1.351 . S
C816 C810 1.428 . S
C816 N815 1.351 . S
C816 C817 1.434 . S
C817 C808 1.429 . S
C817 N814 1.350 . S
C817 C816 1.434 . S
C818 C819 1.369 . S
C818 C820 1.419 . S
C818 H822 0.930 . S
C819 C818 1.369 . S
C819 C828 1.429 1_556 S
C820 C818 1.419 . S
C820 C821 1.363 . S
C820 H823 0.929 . S
C821 C820 1.363 . S
C821 C827 1.428 . S
H822 C818 0.930 . S
H823 C820 0.929 . S
S824 N825 1.613 . S
S824 N826 1.610 1_554 S
N825 S824 1.613 . S
N825 C828 1.350 . S
N826 S824 1.610 1_556 S
N826 C827 1.351 . S
C827 C821 1.428 . S
C827 N826 1.351 . S
C827 C828 1.434 1_556 S
C828 C819 1.429 1_554 S
C828 N825 1.350 . S
C828 C827 1.434 1_554 S
C829 C830 1.369 . S
C829 C831 1.419 . S
C829 H833 0.930 . S
C830 C829 1.369 . S
C830 C839 1.429 . S
C831 C829 1.419 . S
C831 C832 1.363 . S
C831 H834 0.929 . S
C832 C831 1.363 . S
C832 C838 1.428 . S
H833 C829 0.930 . S
H834 C831 0.929 . S
S835 N836 1.613 . S
S835 N837 1.610 . S
N836 S835 1.613 . S
N836 C839 1.350 . S
N837 S835 1.610 . S
N837 C838 1.351 . S
C838 C832 1.428 . S
C838 N837 1.351 . S
C838 C839 1.434 . S
C839 C830 1.429 . S
C839 N836 1.350 . S
C839 C838 1.434 . S
C313 C117 1.295 . S
C315 C0 1.296 . S
C324 C13 1.285 1_455 S
C326 C130 1.298 . S
C335 C26 1.293 . S
C337 C143 1.291 1_556 S
C346 C39 1.302 . S
C348 C104 1.287 . S
C357 C52 1.299 . S
C359 C195 1.288 . S
C368 C156 1.288 . S
C370 C65 1.295 1_655 S
C379 C78 1.286 . S
C381 C169 1.298 1_554 S
C390 C182 1.285 . S
C392 C91 1.299 . S
C401 C208 1.301 . S
C403 C234 1.291 . S
C412 C286 1.301 1_545 S
C414 C221 1.287 . S
C423 C247 1.286 . S
C425 C299 1.297 1_565 S
C434 C273 1.296 . S
C436 C260 1.289 . S
C445 C268 1.542 . S
C447 C8 1.541 . S
C456 C21 1.542 . S
C458 C229 1.541 . S
C467 C34 1.541 . S
C469 C242 1.543 . S
C478 C47 1.547 . S
C480 C255 1.544 . S
C489 C60 1.547 . S
C491 C307 1.547 . S
C500 C281 1.548 . S
C502 C73 1.547 . S
C511 C294 1.548 . S
C513 C86 1.545 . S
C522 C216 1.541 . S
C524 C99 1.544 . S
C533 C203 1.548 . S
C535 C112 1.546 . S
C544 C125 1.547 . S
C546 C164 1.547 . S
C555 C177 1.543 . S
C557 C138 1.542 . S
C566 C190 1.541 . S
C568 C151 1.542 . S
C577 C5 1.012 . S
C579 C218 1.237 . S
C588 C309 1.233 1_565 S
C590 C18 1.018 . S
C599 C283 1.238 . S
C601 C31 1.032 . S
C610 C44 1.029 . S
C612 C296 1.234 1_544 S
C621 C57 1.029 . S
C623 C231 1.234 . S
C632 C244 1.239 1_556 S
C634 C70 1.025 . S
C643 C257 1.235 . S
C645 C83 1.013 . S
C654 C270 1.239 . S
C656 C96 1.030 . S
C665 C10 1.234 . S
C667 C109 1.014 . S
C676 C23 1.233 1_445 S
C678 C122 1.023 . S
C687 C36 1.239 . S
C689 C135 1.027 . S
C698 C49 1.236 1_565 S
C700 C148 1.014 . S
C709 C62 1.233 . S
C711 C161 1.021 . S
C720 C75 1.236 1_655 S
C722 C174 1.014 . S
C731 C187 1.011 . S
C733 C88 1.236 . S
C742 C101 1.233 . S
C744 C200 1.020 . S
C753 C114 1.234 . S
C755 C213 1.028 . S
C764 C226 1.011 . S
C766 C166 1.235 . S
C775 C179 1.234 1_454 S
C777 C239 1.029 . S
C786 C252 1.021 . S
C788 C192 1.238 . S
C797 C265 1.023 . S
C799 C205 1.234 . S
C808 C278 1.035 . S
C810 C140 1.236 . S
C819 C153 1.236 1_556 S
C821 C291 1.013 . S
C830 C304 1.011 . S
C832 C127 1.236 1_655 S
