# Generated by pormake.
# Topology ecc, (8)-cn, num edge types: 1
# Building blocks:
#     Node 0, Type 0, BuildingBlock: TAGTUT_clean_sbu_1, # of connection points: 8
#     Node 1, Type 0, BuildingBlock: TAGTUT_clean_sbu_1, # of connection points: 8
#     Node 2, Type 0, BuildingBlock: TAGTUT_clean_sbu_1, # of connection points: 8
#     Node 3, Type 0, BuildingBlock: TAGTUT_clean_sbu_1, # of connection points: 8
#     Node 4, Type 0, BuildingBlock: TAGTUT_clean_sbu_1, # of connection points: 8
#     Node 5, Type 0, BuildingBlock: TAGTUT_clean_sbu_1, # of connection points: 8
#     Node 6, Type 0, BuildingBlock: TAGTUT_clean_sbu_1, # of connection points: 8
#     Node 7, Type 0, BuildingBlock: TAGTUT_clean_sbu_1, # of connection points: 8
#     Node 8, Type 0, BuildingBlock: TAGTUT_clean_sbu_1, # of connection points: 8
#     Node 9, Type 0, BuildingBlock: TAGTUT_clean_sbu_1, # of connection points: 8
#     Node 10, Type 0, BuildingBlock: TAGTUT_clean_sbu_1, # of connection points: 8
#     Node 11, Type 0, BuildingBlock: TAGTUT_clean_sbu_1, # of connection points: 8
#     Node 12, Type 0, BuildingBlock: TAGTUT_clean_sbu_1, # of connection points: 8
#     Node 13, Type 0, BuildingBlock: TAGTUT_clean_sbu_1, # of connection points: 8
#     Node 14, Type 0, BuildingBlock: TAGTUT_clean_sbu_1, # of connection points: 8
#     Node 15, Type 0, BuildingBlock: TAGTUT_clean_sbu_1, # of connection points: 8
#     Node 16, Type 0, BuildingBlock: TAGTUT_clean_sbu_1, # of connection points: 8
#     Node 17, Type 0, BuildingBlock: TAGTUT_clean_sbu_1, # of connection points: 8
#     Edge 18, Type (0, 0), BuildingBlock: OJICUG_clean_linker_0, # of connection points: 2
#     Edge 19, Type (0, 0), BuildingBlock: OJICUG_clean_linker_0, # of connection points: 2
#     Edge 20, Type (0, 0), BuildingBlock: OJICUG_clean_linker_0, # of connection points: 2
#     Edge 21, Type (0, 0), BuildingBlock: OJICUG_clean_linker_0, # of connection points: 2
#     Edge 22, Type (0, 0), BuildingBlock: OJICUG_clean_linker_0, # of connection points: 2
#     Edge 23, Type (0, 0), BuildingBlock: OJICUG_clean_linker_0, # of connection points: 2
#     Edge 24, Type (0, 0), BuildingBlock: OJICUG_clean_linker_0, # of connection points: 2
#     Edge 25, Type (0, 0), BuildingBlock: OJICUG_clean_linker_0, # of connection points: 2
#     Edge 26, Type (0, 0), BuildingBlock: OJICUG_clean_linker_0, # of connection points: 2
#     Edge 27, Type (0, 0), BuildingBlock: OJICUG_clean_linker_0, # of connection points: 2
#     Edge 28, Type (0, 0), BuildingBlock: OJICUG_clean_linker_0, # of connection points: 2
#     Edge 29, Type (0, 0), BuildingBlock: OJICUG_clean_linker_0, # of connection points: 2
#     Edge 30, Type (0, 0), BuildingBlock: OJICUG_clean_linker_0, # of connection points: 2
#     Edge 31, Type (0, 0), BuildingBlock: OJICUG_clean_linker_0, # of connection points: 2
#     Edge 32, Type (0, 0), BuildingBlock: OJICUG_clean_linker_0, # of connection points: 2
#     Edge 33, Type (0, 0), BuildingBlock: OJICUG_clean_linker_0, # of connection points: 2
#     Edge 34, Type (0, 0), BuildingBlock: OJICUG_clean_linker_0, # of connection points: 2
#     Edge 35, Type (0, 0), BuildingBlock: OJICUG_clean_linker_0, # of connection points: 2
#     Edge 36, Type (0, 0), BuildingBlock: OJICUG_clean_linker_0, # of connection points: 2
#     Edge 37, Type (0, 0), BuildingBlock: OJICUG_clean_linker_0, # of connection points: 2
#     Edge 38, Type (0, 0), BuildingBlock: OJICUG_clean_linker_0, # of connection points: 2
#     Edge 39, Type (0, 0), BuildingBlock: OJICUG_clean_linker_0, # of connection points: 2
#     Edge 40, Type (0, 0), BuildingBlock: OJICUG_clean_linker_0, # of connection points: 2
#     Edge 41, Type (0, 0), BuildingBlock: OJICUG_clean_linker_0, # of connection points: 2
#     Edge 42, Type (0, 0), BuildingBlock: OJICUG_clean_linker_0, # of connection points: 2
#     Edge 43, Type (0, 0), BuildingBlock: OJICUG_clean_linker_0, # of connection points: 2
#     Edge 44, Type (0, 0), BuildingBlock: OJICUG_clean_linker_0, # of connection points: 2
#     Edge 45, Type (0, 0), BuildingBlock: OJICUG_clean_linker_0, # of connection points: 2
#     Edge 46, Type (0, 0), BuildingBlock: OJICUG_clean_linker_0, # of connection points: 2
#     Edge 47, Type (0, 0), BuildingBlock: OJICUG_clean_linker_0, # of connection points: 2
#     Edge 48, Type (0, 0), BuildingBlock: OJICUG_clean_linker_0, # of connection points: 2
#     Edge 49, Type (0, 0), BuildingBlock: OJICUG_clean_linker_0, # of connection points: 2
#     Edge 50, Type (0, 0), BuildingBlock: OJICUG_clean_linker_0, # of connection points: 2
#     Edge 51, Type (0, 0), BuildingBlock: OJICUG_clean_linker_0, # of connection points: 2
#     Edge 52, Type (0, 0), BuildingBlock: OJICUG_clean_linker_0, # of connection points: 2
#     Edge 53, Type (0, 0), BuildingBlock: OJICUG_clean_linker_0, # of connection points: 2
#     Edge 54, Type (0, 0), BuildingBlock: OJICUG_clean_linker_0, # of connection points: 2
#     Edge 55, Type (0, 0), BuildingBlock: OJICUG_clean_linker_0, # of connection points: 2
#     Edge 56, Type (0, 0), BuildingBlock: OJICUG_clean_linker_0, # of connection points: 2
#     Edge 57, Type (0, 0), BuildingBlock: OJICUG_clean_linker_0, # of connection points: 2
#     Edge 58, Type (0, 0), BuildingBlock: OJICUG_clean_linker_0, # of connection points: 2
#     Edge 59, Type (0, 0), BuildingBlock: OJICUG_clean_linker_0, # of connection points: 2
#     Edge 60, Type (0, 0), BuildingBlock: OJICUG_clean_linker_0, # of connection points: 2
#     Edge 61, Type (0, 0), BuildingBlock: OJICUG_clean_linker_0, # of connection points: 2
#     Edge 62, Type (0, 0), BuildingBlock: OJICUG_clean_linker_0, # of connection points: 2
#     Edge 63, Type (0, 0), BuildingBlock: OJICUG_clean_linker_0, # of connection points: 2
#     Edge 64, Type (0, 0), BuildingBlock: OJICUG_clean_linker_0, # of connection points: 2
#     Edge 65, Type (0, 0), BuildingBlock: OJICUG_clean_linker_0, # of connection points: 2
#     Edge 66, Type (0, 0), BuildingBlock: OJICUG_clean_linker_0, # of connection points: 2
#     Edge 67, Type (0, 0), BuildingBlock: OJICUG_clean_linker_0, # of connection points: 2
#     Edge 68, Type (0, 0), BuildingBlock: OJICUG_clean_linker_0, # of connection points: 2
#     Edge 69, Type (0, 0), BuildingBlock: OJICUG_clean_linker_0, # of connection points: 2
#     Edge 70, Type (0, 0), BuildingBlock: OJICUG_clean_linker_0, # of connection points: 2
#     Edge 71, Type (0, 0), BuildingBlock: OJICUG_clean_linker_0, # of connection points: 2
#     Edge 72, Type (0, 0), BuildingBlock: OJICUG_clean_linker_0, # of connection points: 2
#     Edge 73, Type (0, 0), BuildingBlock: OJICUG_clean_linker_0, # of connection points: 2
#     Edge 74, Type (0, 0), BuildingBlock: OJICUG_clean_linker_0, # of connection points: 2
#     Edge 75, Type (0, 0), BuildingBlock: OJICUG_clean_linker_0, # of connection points: 2
#     Edge 76, Type (0, 0), BuildingBlock: OJICUG_clean_linker_0, # of connection points: 2
#     Edge 77, Type (0, 0), BuildingBlock: OJICUG_clean_linker_0, # of connection points: 2
#     Edge 78, Type (0, 0), BuildingBlock: OJICUG_clean_linker_0, # of connection points: 2
#     Edge 79, Type (0, 0), BuildingBlock: OJICUG_clean_linker_0, # of connection points: 2
#     Edge 80, Type (0, 0), BuildingBlock: OJICUG_clean_linker_0, # of connection points: 2
#     Edge 81, Type (0, 0), BuildingBlock: OJICUG_clean_linker_0, # of connection points: 2
#     Edge 82, Type (0, 0), BuildingBlock: OJICUG_clean_linker_0, # of connection points: 2
#     Edge 83, Type (0, 0), BuildingBlock: OJICUG_clean_linker_0, # of connection points: 2
#     Edge 84, Type (0, 0), BuildingBlock: OJICUG_clean_linker_0, # of connection points: 2
#     Edge 85, Type (0, 0), BuildingBlock: OJICUG_clean_linker_0, # of connection points: 2
#     Edge 86, Type (0, 0), BuildingBlock: OJICUG_clean_linker_0, # of connection points: 2
#     Edge 87, Type (0, 0), BuildingBlock: OJICUG_clean_linker_0, # of connection points: 2
#     Edge 88, Type (0, 0), BuildingBlock: OJICUG_clean_linker_0, # of connection points: 2
#     Edge 89, Type (0, 0), BuildingBlock: OJICUG_clean_linker_0, # of connection points: 2
# Relax obj value: 0.242
# Max RMSD: 0.202
# Mean RMSD: 0.202
data_MOF--net-ecc--node1-TAGTUT_clean_sbu_1--edge1-OJICUG_clean_linker_0
_symmetry_space_group_name_H-M    P1
_symmetry_Int_Tables_number       1
_symmetry_cell_setting            triclinic
loop_
_symmetry_equiv_pos_as_xyz
'x, y, z'
_cell_length_a     44.123092
_cell_length_b     43.597408
_cell_length_c     19.870957
_cell_angle_alpha  89.977537
_cell_angle_beta   88.747977
_cell_angle_gamma 120.67673
loop_
_atom_site_label
_atom_site_type_symbol
_atom_site_fract_x
_atom_site_fract_y
_atom_site_fract_z
_atom_type_partial_charge
C0 C 0.29497 0.08498 0.85958 0.0
C1 C 0.19853 0.06853 0.93456 0.0
C2 C 0.1376 0.94647 0.80054 0.0
Mg3 Mg 0.23847 0.09807 0.80026 0.0
O4 O 0.21924 0.05185 0.77025 0.0
Mg5 Mg 0.21328 0.01426 0.8356 0.0
Mg6 Mg 0.16938 0.02706 0.74025 0.0
O7 O 0.12113 0.00186 0.70898 0.0
Mg8 Mg 0.1042 0.95663 0.67245 0.0
Mg9 Mg 0.11947 0.0384 0.65253 0.0
C10 C 0.20533 0.10552 0.6659 0.0
C11 C 0.12908 0.0655 0.80336 0.0
O12 O 0.27192 0.05148 0.86212 0.0
O13 O 0.28871 0.10795 0.83321 0.0
O14 O 0.20006 0.04006 0.92727 0.0
O15 O 0.20903 0.09259 0.8889 0.0
O16 O 0.22911 0.11993 0.71047 0.0
O17 O 0.18206 0.07199 0.66581 0.0
C18 C 0.21075 0.99109 0.6769 0.0
O19 O 0.18794 1.00033 0.66706 0.0
O20 O 0.2247 0.99383 0.73475 0.0
O21 O 0.05859 0.99824 0.66955 0.0
O22 O 0.05162 0.9437 0.68609 0.0
O23 O 0.11978 0.01266 0.55273 0.0
C24 C 0.03977 0.96499 0.6873 0.0
O25 O 0.11855 0.96143 0.56866 0.0
O26 O 0.11993 0.93249 0.74753 0.0
C27 C 0.12016 0.98557 0.53014 0.0
O28 O 0.15481 0.98041 0.80906 0.0
O29 O 0.15037 0.05474 0.81738 0.0
O30 O 0.11682 0.06248 0.74522 0.0
C31 C 0.93197 0.2744 0.80717 0.0
C32 C 0.92448 0.18929 0.90632 0.0
C33 C 0.06428 0.24773 0.8466 0.0
Mg34 Mg 0.92397 0.20349 0.75739 0.0
O35 O 0.97272 0.22794 0.75503 0.0
Mg36 Mg -0.00244 0.25864 0.83332 0.0
Mg37 Mg -0.00041 0.20228 0.75528 0.0
O38 O 0.0298 0.181 0.75383 0.0
Mg39 Mg 0.07864 0.2144 0.73619 0.0
Mg40 Mg 0.00588 0.14176 0.69074 0.0
C41 C 0.9372 0.15571 0.64964 0.0
C42 C 0.94962 0.12103 0.8119 0.0
O43 O 0.9631 0.28291 0.82391 0.0
O44 O 0.91194 0.24559 0.77537 0.0
O45 O 0.9547 0.21804 0.91037 0.0
O46 O 0.90965 0.17723 0.85056 0.0
O47 O 0.91845 0.16775 0.67626 0.0
O48 O 0.96961 0.16754 0.66574 0.0
C49 C 0.04649 0.28218 0.6953 0.0
O50 O 0.03823 0.24963 0.68845 0.0
O51 O 0.03552 0.29256 0.74601 0.0
O52 O 0.04588 0.12701 0.74019 0.0
O53 O 0.09244 0.17844 0.77669 0.0
O54 O 0.04443 0.16976 0.60226 0.0
C55 C 0.07504 0.14438 0.77267 0.0
O56 O 0.09026 0.22182 0.63105 0.0
O57 O 0.08024 0.25809 0.78989 0.0
C58 C 0.07319 0.19831 0.58737 0.0
O59 O 0.03049 0.23229 0.84847 0.0
O60 O 0.95632 0.15323 0.81639 0.0
O61 O 0.96755 0.11279 0.77312 0.0
C62 C 0.7908 0.73129 0.83207 0.0
C63 C 0.86313 0.82851 0.91336 0.0
C64 C 0.77596 0.87486 0.83847 0.0
Mg65 Mg 0.85112 0.80298 0.7697 0.0
O66 O 0.8154 0.81321 0.76331 0.0
Mg67 Mg 0.78382 0.80384 0.84403 0.0
Mg68 Mg 0.82694 0.86343 0.74794 0.0
O69 O 0.8337 0.91162 0.73082 0.0
Mg70 Mg 0.79263 0.91519 0.71376 0.0
Mg71 Mg 0.87116 0.9299 0.66151 0.0
C72 C 0.87796 0.85401 0.63739 0.0
C73 C 0.90759 0.9199 0.78832 0.0
O74 O 0.77422 0.74746 0.8468 0.0
O75 O 0.82087 0.7467 0.80089 0.0
O76 O 0.83023 0.81859 0.91865 0.0
O77 O 0.87782 0.82932 0.85702 0.0
O78 O 0.87639 0.82867 0.67367 0.0
O79 O 0.86095 0.86994 0.65414 0.0
C80 C 0.74699 0.80771 0.7057 0.0
O81 O 0.77597 0.83632 0.69049 0.0
O82 O 0.74268 0.79093 0.76165 0.0
O83 O 0.87334 0.98338 0.69358 0.0
O84 O 0.82071 0.97012 0.74076 0.0
O85 O 0.83502 0.92006 0.57789 0.0
C86 C 0.85333 0.9921 0.7269 0.0
O87 O 0.78138 0.90799 0.60771 0.0
O88 O 0.76032 0.87161 0.78354 0.0
C89 C 0.80419 0.91218 0.56263 0.0
O90 O 0.7961 0.86172 0.84281 0.0
O91 O 0.88051 0.88925 0.80192 0.0
O92 O 0.90737 0.93971 0.74197 0.0
C93 C 0.96019 0.08867 0.26135 0.0
C94 C 0.88141 0.07365 0.41593 0.0
C95 C 0.79276 0.95183 0.29881 0.0
Mg96 Mg 0.89606 0.09779 0.27149 0.0
O97 O 0.87881 0.05194 0.23812 0.0
Mg98 Mg 0.8802 0.01687 0.29954 0.0
Mg99 Mg 0.82966 0.02708 0.21145 0.0
O100 O 0.77908 0.00284 0.18665 0.0
Mg101 Mg 0.75571 0.95487 0.16585 0.0
Mg102 Mg 0.78535 0.03859 0.11679 0.0
C103 C 0.86167 0.10578 0.14351 0.0
C104 C 0.79157 0.06672 0.27226 0.0
O105 O 0.94111 0.05568 0.28056 0.0
O106 O 0.94842 0.11002 0.2596 0.0
O107 O 0.8819 0.04602 0.39689 0.0
O108 O 0.88188 0.09603 0.37429 0.0
O109 O 0.87998 0.12064 0.19535 0.0
O110 O 0.84421 0.0717 0.13724 0.0
C111 C 0.86558 0.984 0.15181 0.0
O112 O 0.84472 0.99526 0.13779 0.0
O113 O 0.8801 0.98922 0.20839 0.0
O114 O 0.72659 0.00338 0.09605 0.0
O115 O 0.70598 0.94737 0.13348 0.0
O116 O 0.79463 0.00739 0.02982 0.0
C117 C 0.70175 0.97082 0.10299 0.0
O118 O 0.78203 0.95478 0.07547 0.0
O119 O 0.76633 0.93609 0.25977 0.0
C120 C 0.79325 0.97725 0.02667 0.0
O121 O 0.8177 0.98434 0.28944 0.0
O122 O 0.81409 0.05713 0.28253 0.0
O123 O 0.77697 0.06301 0.21483 0.0
C124 C 0.91978 0.90461 0.1763 0.0
C125 C 0.93777 0.8688 0.3707 0.0
C126 C 0.06817 0.9088 0.29233 0.0
Mg127 Mg 0.92182 0.83892 0.2253 0.0
O128 O 0.96945 0.87141 0.19969 0.0
Mg129 Mg -0.00577 0.91604 0.24571 0.0
Mg130 Mg 0.0045 0.8547 0.19691 0.0
O131 O 0.03432 0.83216 0.19943 0.0
Mg132 Mg 0.08291 0.85859 0.19284 0.0
Mg133 Mg 0.00856 0.79737 0.12665 0.0
C134 C 0.93841 0.80505 0.11718 0.0
C135 C 0.9632 0.77711 0.26841 0.0
O136 O 0.94986 0.92459 0.20374 0.0
O137 O 0.90378 0.87048 0.17798 0.0
O138 O 0.96477 0.89731 0.34808 0.0
O139 O 0.91926 0.84206 0.33335 0.0
O140 O 0.92435 0.79577 0.17592 0.0
O141 O 0.97206 0.81951 0.11028 0.0
C142 C 0.04539 0.93254 0.13442 0.0
O143 O 0.04742 0.90438 0.1323 0.0
O144 O 0.01478 0.9274 0.13891 0.0
O145 O 0.04607 0.77682 0.1374 0.0
O146 O 0.09768 0.81804 0.17939 0.0
O147 O 0.04816 0.83621 0.04258 0.0
C148 C 0.07808 0.78772 0.15173 0.0
O149 O 0.09358 0.88039 0.09624 0.0
O150 O 0.0875 0.8968 0.26837 0.0
C151 C 0.07787 0.86582 0.0424 0.0
O152 O 0.03556 0.8956 0.27593 0.0
O153 O 0.96991 0.80932 0.27096 0.0
O154 O 0.97389 0.76568 0.21897 0.0
C155 C 0.14177 0.0618 0.27271 0.0
C156 C 0.2063 0.15307 0.40583 0.0
C157 C 0.14034 0.21626 0.32825 0.0
Mg158 Mg 0.20756 0.13587 0.2567 0.0
O159 O 0.16906 0.1437 0.24135 0.0
Mg160 Mg 0.13637 0.13474 0.31774 0.0
Mg161 Mg 0.17935 0.19234 0.21343 0.0
O162 O 0.19424 0.24245 0.18942 0.0
Mg163 Mg 0.16534 0.26189 0.19109 0.0
Mg164 Mg 0.2217 0.24551 0.10728 0.0
C165 C 0.22164 0.1696 0.12346 0.0
C166 C 0.26197 0.24507 0.24245 0.0
O167 O 0.12745 0.07689 0.30614 0.0
O168 O 0.17315 0.07945 0.24734 0.0
O169 O 0.17607 0.14845 0.39539 0.0
O170 O 0.22444 0.14961 0.35892 0.0
O171 O 0.23875 0.17363 0.17679 0.0
O172 O 0.20459 0.18604 0.11727 0.0
C173 C 0.097 0.13741 0.18744 0.0
O174 O 0.12423 0.16615 0.16545 0.0
O175 O 0.09735 0.1219 0.24121 0.0
O176 O 0.23727 0.30347 0.09931 0.0
O177 O 0.20151 0.31691 0.15709 0.0
O178 O 0.17215 0.23192 0.04213 0.0
C179 C 0.22846 0.3259 0.11831 0.0
O180 O 0.13248 0.23546 0.1095 0.0
O181 O 0.14435 0.24284 0.29265 0.0
C182 C 0.14164 0.22858 0.05279 0.0
O183 O 0.1509 0.19517 0.30743 0.0
O184 O 0.23235 0.21906 0.26371 0.0
O185 O 0.26563 0.25884 0.18346 0.0
C186 C 0.96382 0.41964 0.19001 0.0
C187 C 0.86957 0.40882 0.26179 0.0
C188 C 0.80623 0.28049 0.14614 0.0
Mg189 Mg 0.90828 0.43265 0.12419 0.0
O190 O 0.88615 0.38474 0.10409 0.0
Mg191 Mg 0.8813 0.34948 0.17364 0.0
Mg192 Mg 0.83551 0.35882 0.07828 0.0
O193 O 0.78658 0.33189 0.05019 0.0
Mg194 Mg 0.77142 0.28636 0.01648 0.0
Mg195 Mg 0.7842 0.36611 -0.01193 0.0
C196 C 0.87162 0.43361 -0.011 0.0
C197 C 0.79419 0.39747 0.13575 0.0
O198 O 0.93995 0.3866 0.19598 0.0
O199 O 0.95852 0.44232 0.15932 0.0
O200 O 0.87016 0.37966 0.25954 0.0
O201 O 0.8799 0.43103 0.2126 0.0
O202 O 0.89786 0.44994 0.0283 0.0
O203 O 0.8465 0.4013 8e-05 0.0
C204 C 0.87645 0.32133 0.01849 0.0
O205 O 0.85344 0.33022 0.00789 0.0
O206 O 0.89113 0.32559 0.07601 0.0
O207 O 0.72355 0.32478 0.0049 0.0
O208 O 0.7179 0.27112 0.02572 0.0
O209 O 0.78636 0.3391 0.89221 0.0
C210 C 0.7052 0.29166 0.02376 0.0
O211 O 0.78812 0.29006 0.91473 0.0
O212 O 0.78846 0.26507 0.09401 0.0
C213 C 0.78883 0.31263 0.87324 0.0
O214 O 0.82252 0.31457 0.15229 0.0
O215 O 0.81697 0.38881 0.15121 0.0
O216 O 0.78078 0.39171 0.07813 0.0
C217 C 0.60529 0.61571 0.13678 0.0
C218 C 0.59579 0.5296 0.2348 0.0
C219 C 0.73516 0.58555 0.17229 0.0
Mg220 Mg 0.59533 0.54418 0.08652 0.0
O221 O 0.64396 0.5675 0.08344 0.0
Mg222 Mg 0.66984 0.59794 0.16156 0.0
Mg223 Mg 0.66912 0.54018 0.08321 0.0
O224 O 0.6982 0.51758 0.08063 0.0
Mg225 Mg 0.7471 0.54966 0.06226 0.0
Mg226 Mg 0.67338 0.47834 0.0181 0.0
C227 C 0.60601 0.4949 -0.02062 0.0
C228 C 0.61825 0.45873 0.14039 0.0
O229 O 0.63648 0.62386 0.15272 0.0
O230 O 0.58488 0.58713 0.10474 0.0
O231 O 0.62636 0.55792 0.23851 0.0
O232 O 0.58064 0.51777 0.17928 0.0
O233 O 0.5881 0.50785 0.00599 0.0
O234 O 0.63832 0.50585 -0.00529 0.0
C235 C 0.7192 0.6204 0.02434 0.0
O236 O 0.70794 0.58717 0.01596 0.0
O237 O 0.71001 0.63185 0.07612 0.0
O238 O 0.71282 0.46242 0.06701 0.0
O239 O 0.75988 0.51335 0.10388 0.0
O240 O 0.71138 0.50474 0.92861 0.0
C241 C 0.74203 0.47933 0.09955 0.0
O242 O 0.75886 0.55544 0.95717 0.0
O243 O 0.75065 0.59442 0.11495 0.0
C244 C 0.74101 0.53218 0.91357 0.0
O245 O 0.70135 0.57002 0.17538 0.0
O246 O 0.62515 0.49103 0.1451 0.0
O247 O 0.63571 0.45033 0.10079 0.0
C248 C 0.44436 0.05962 0.15867 0.0
C249 C 0.52673 0.15603 0.23775 0.0
C250 C 0.44437 0.21168 0.17358 0.0
Mg251 Mg 0.50758 0.12778 0.09551 0.0
O252 O 0.47652 0.14458 0.09708 0.0
Mg253 Mg 0.44709 0.1374 0.17928 0.0
Mg254 Mg 0.49098 0.19564 0.08293 0.0
O255 O 0.50045 0.2452 0.06609 0.0
Mg256 Mg 0.46079 0.25118 0.04785 0.0
Mg257 Mg 0.53801 0.26214 -0.00266 0.0
C258 C 0.53526 0.18063 0.9663 0.0
C259 C 0.57269 0.2483 0.12257 0.0
O260 O 0.43346 0.0801 0.17942 0.0
O261 O 0.47274 0.07123 0.12273 0.0
O262 O 0.49532 0.15047 0.24739 0.0
O263 O 0.53776 0.15195 0.18061 0.0
O264 O 0.53068 0.15279 -0.0017 0.0
O265 O 0.52361 0.20056 -0.01092 0.0
C266 C 0.40968 0.14258 0.04413 0.0
O267 O 0.43914 0.17031 0.02704 0.0
O268 O 0.40532 0.12634 0.10069 0.0
O269 O 0.54334 0.31713 0.0309 0.0
O270 O 0.49076 0.30632 0.07405 0.0
O271 O 0.5033 0.25563 0.91378 0.0
C272 C 0.52381 0.32716 0.06223 0.0
O273 O 0.44981 0.24473 0.94078 0.0
O274 O 0.42809 0.20851 0.11944 0.0
C275 C 0.47325 0.24934 0.89671 0.0
O276 O 0.46208 0.19589 0.17854 0.0
O277 O 0.54475 0.21824 0.13548 0.0
O278 O 0.57345 0.26926 0.07761 0.0
C279 C 0.63521 0.43518 0.59522 0.0
C280 C 0.55151 0.41448 0.74565 0.0
C281 C 0.46863 0.29345 0.63007 0.0
Mg282 Mg 0.56905 0.44059 0.60228 0.0
O283 O 0.55385 0.39505 0.56876 0.0
Mg284 Mg 0.55619 0.36083 0.63102 0.0
Mg285 Mg 0.50501 0.36808 0.5401 0.0
O286 O 0.45448 0.34207 0.51379 0.0
Mg287 Mg 0.43273 0.2942 0.49409 0.0
Mg288 Mg 0.45932 0.37712 0.44382 0.0
C289 C 0.53425 0.44633 0.47238 0.0
C290 C 0.46371 0.40523 0.59894 0.0
O291 O 0.61683 0.40213 0.61443 0.0
O292 O 0.62256 0.45576 0.59298 0.0
O293 O 0.55388 0.38791 0.72687 0.0
O294 O 0.55235 0.43705 0.70399 0.0
O295 O 0.55194 0.46171 0.5246 0.0
O296 O 0.51802 0.41227 0.46597 0.0
C297 C 0.54651 0.32959 0.48318 0.0
O298 O 0.52381 0.3383 0.46752 0.0
O299 O 0.55977 0.33524 0.54095 0.0
O300 O 0.40073 0.33968 0.42034 0.0
O301 O 0.38265 0.28426 0.4584 0.0
O302 O 0.47081 0.34695 0.35856 0.0
C303 C 0.37715 0.30655 0.42679 0.0
O304 O 0.46134 0.29579 0.40609 0.0
O305 O 0.44249 0.27704 0.5906 0.0
C306 C 0.47156 0.31787 0.35668 0.0
O307 O 0.49397 0.32557 0.61839 0.0
O308 O 0.48681 0.39651 0.60988 0.0
O309 O 0.44909 0.40087 0.5413 0.0
C310 C 0.59849 0.24773 0.51968 0.0
C311 C 0.60006 0.1951 0.70594 0.0
C312 C 0.73461 0.23236 0.63949 0.0
Mg313 Mg 0.59337 0.17738 0.55727 0.0
O314 O 0.64222 0.20944 0.53828 0.0
Mg315 Mg 0.66729 0.24888 0.60045 0.0
Mg316 Mg 0.67139 0.18689 0.53557 0.0
O317 O 0.69673 0.15985 0.53555 0.0
Mg318 Mg 0.74539 0.1831 0.53286 0.0
Mg319 Mg 0.67091 0.12922 0.45781 0.0
C320 C 0.60546 0.14181 0.44713 0.0
C321 C 0.62171 0.10689 0.59498 0.0
O322 O 0.62778 0.26469 0.55193 0.0
O323 O 0.58056 0.21369 0.51571 0.0
O324 O 0.62955 0.22265 0.69054 0.0
O325 O 0.58214 0.17171 0.66259 0.0
O326 O 0.59013 0.13278 0.5046 0.0
O327 O 0.63921 0.15681 0.44343 0.0
C328 C 0.72197 0.26799 0.47733 0.0
O329 O 0.71502 0.23566 0.47299 0.0
O330 O 0.7047 0.27658 0.51705 0.0
O331 O 0.70422 0.10352 0.46787 0.0
O332 O 0.75562 0.13992 0.51672 0.0
O333 O 0.71441 0.16914 0.38068 0.0
C334 C 0.73512 0.11128 0.48496 0.0
O335 O 0.76027 0.20923 0.4397 0.0
O336 O 0.75258 0.21938 0.61329 0.0
C337 C 0.74505 0.19738 0.38423 0.0
O338 O 0.70243 0.22151 0.62343 0.0
O339 O 0.63285 0.14009 0.60337 0.0
O340 O 0.63088 0.09547 0.54315 0.0
C341 C 0.81627 0.39882 0.55637 0.0
C342 C 0.8661 0.47672 0.7222 0.0
C343 C 0.80581 0.54603 0.65366 0.0
Mg344 Mg 0.87893 0.47476 0.5712 0.0
O345 O 0.83921 0.48053 0.55203 0.0
Mg346 Mg 0.80157 0.46359 0.62056 0.0
Mg347 Mg 0.84866 0.5301 0.53534 0.0
O348 O 0.86335 0.58125 0.52198 0.0
Mg349 Mg 0.83338 0.5993 0.52522 0.0
Mg350 Mg 0.89334 0.58899 0.44082 0.0
C351 C 0.89545 0.51419 0.44593 0.0
C352 C 0.92942 0.58271 0.57708 0.0
O353 O 0.79661 0.40874 0.5875 0.0
O354 O 0.84933 0.41972 0.54482 0.0
O355 O 0.83603 0.47033 0.70498 0.0
O356 O 0.88955 0.48122 0.67828 0.0
O357 O 0.91169 0.51758 0.50019 0.0
O358 O 0.87824 0.53044 0.43974 0.0
C359 C 0.76724 0.47754 0.49463 0.0
O360 O 0.79518 0.50766 0.48196 0.0
O361 O 0.76647 0.45643 0.53932 0.0
O362 O 0.90752 0.64635 0.4419 0.0
O363 O 0.86895 0.65592 0.49925 0.0
O364 O 0.84528 0.57676 0.37263 0.0
C365 C 0.89723 0.66721 0.46319 0.0
O366 O 0.80314 0.57581 0.43977 0.0
O367 O 0.81111 0.57445 0.62289 0.0
C368 C 0.81403 0.57168 0.38247 0.0
O369 O 0.81541 0.52491 0.6283 0.0
O370 O 0.89978 0.55495 0.59284 0.0
O371 O 0.9345 0.59929 0.52065 0.0
C372 C 0.6324 0.75443 0.52048 0.0
C373 C 0.53857 0.74442 0.59429 0.0
C374 C 0.47496 0.61647 0.47608 0.0
Mg375 Mg 0.57723 0.76873 0.45627 0.0
O376 O 0.55468 0.72086 0.43551 0.0
Mg377 Mg 0.54966 0.68517 0.50439 0.0
Mg378 Mg 0.50406 0.69493 0.40958 0.0
O379 O 0.45506 0.66803 0.38184 0.0
Mg380 Mg 0.43926 0.6224 0.3482 0.0
Mg381 Mg 0.4519 0.7023 0.32142 0.0
C382 C 0.53937 0.77005 0.32219 0.0
C383 C 0.46304 0.7334 0.46953 0.0
O384 O 0.60806 0.72164 0.52662 0.0
O385 O 0.62758 0.77758 0.49024 0.0
O386 O 0.53856 0.71495 0.59124 0.0
O387 O 0.54933 0.767 0.54565 0.0
O388 O 0.56582 0.7862 0.36118 0.0
O389 O 0.51451 0.73755 0.33239 0.0
C390 C 0.54573 0.65848 0.34846 0.0
O391 O 0.52241 0.667 0.3379 0.0
O392 O 0.55987 0.66218 0.40638 0.0
O393 O 0.39123 0.66089 0.34053 0.0
O394 O 0.3859 0.60732 0.36063 0.0
O395 O 0.45296 0.67518 0.22434 0.0
C396 C 0.3731 0.62779 0.35972 0.0
O397 O 0.45445 0.62584 0.24563 0.0
O398 O 0.45716 0.60107 0.42399 0.0
C399 C 0.45493 0.6485 0.20468 0.0
O400 O 0.49112 0.6505 0.48244 0.0
O401 O 0.48573 0.72448 0.48401 0.0
O402 O 0.44932 0.72787 0.41224 0.0
C403 C 0.26554 0.94313 0.46692 0.0
C404 C 0.25988 0.85966 0.5715 0.0
C405 C 0.39881 0.91762 0.50204 0.0
Mg406 Mg 0.25674 0.87136 0.4221 0.0
O407 O 0.3054 0.89543 0.417 0.0
Mg408 Mg 0.33158 0.92779 0.4924 0.0
Mg409 Mg 0.33247 0.86993 0.41733 0.0
O410 O 0.36311 0.84895 0.41528 0.0
Mg411 Mg 0.41167 0.88183 0.39393 0.0
Mg412 Mg 0.33804 0.80825 0.35586 0.0
C413 C 0.26843 0.82144 0.31763 0.0
C414 C 0.28415 0.78951 0.48 0.0
O415 O 0.29668 0.95155 0.48332 0.0
O416 O 0.2451 0.91391 0.43665 0.0
O417 O 0.29028 0.88837 0.57333 0.0
O418 O 0.244 0.84704 0.51688 0.0
O419 O 0.25009 0.834 0.3439 0.0
O420 O 0.30111 0.83355 0.33177 0.0
C421 C 0.37801 0.94864 0.35163 0.0
O422 O 0.36954 0.91596 0.34667 0.0
O423 O 0.36791 0.96009 0.40203 0.0
O424 O 0.37918 0.7948 0.40409 0.0
O425 O 0.42608 0.84693 0.43724 0.0
O426 O 0.37436 0.83364 0.26375 0.0
C427 C 0.40874 0.8128 0.4351 0.0
O428 O 0.42134 0.88582 0.28785 0.0
O429 O 0.41358 0.92663 0.44408 0.0
C430 C 0.4032 0.86143 0.24624 0.0
O431 O 0.36506 0.90214 0.50655 0.0
O432 O 0.29021 0.82157 0.48244 0.0
O433 O 0.30208 0.78117 0.44154 0.0
C434 C 0.11112 0.39356 0.50022 0.0
C435 C 0.19325 0.49058 0.57605 0.0
C436 C 0.11064 0.54508 0.50835 0.0
Mg437 Mg 0.17446 0.46114 0.43446 0.0
O438 O 0.14349 0.478 0.43423 0.0
Mg439 Mg 0.11382 0.47156 0.51578 0.0
Mg440 Mg 0.15822 0.52906 0.41835 0.0
O441 O 0.16762 0.57826 0.40013 0.0
Mg442 Mg 0.1277 0.58375 0.38181 0.0
Mg443 Mg 0.20473 0.59453 0.33072 0.0
C444 C 0.2021 0.51261 0.30277 0.0
C445 C 0.24003 0.58241 0.45698 0.0
O446 O 0.09997 0.41419 0.51864 0.0
O447 O 0.13962 0.40486 0.46474 0.0
O448 O 0.16172 0.48479 0.58517 0.0
O449 O 0.20454 0.48649 0.51918 0.0
O450 O 0.19746 0.48509 0.33616 0.0
O451 O 0.19077 0.53299 0.32474 0.0
C452 C 0.077 0.47627 0.37879 0.0
O453 O 0.10666 0.50376 0.36198 0.0
O454 O 0.07224 0.46016 0.4357 0.0
O455 O 0.20974 0.64959 0.36335 0.0
O456 O 0.15726 0.63877 0.40719 0.0
O457 O 0.1694 0.58682 0.24741 0.0
C458 C 0.19026 0.65961 0.39499 0.0
O459 O 0.11623 0.57651 0.27547 0.0
O460 O 0.09458 0.54182 0.45392 0.0
C461 C 0.13918 0.5803 0.23104 0.0
O462 O 0.12917 0.53016 0.51328 0.0
O463 O 0.21221 0.55239 0.47115 0.0
O464 O 0.24057 0.60256 0.41056 0.0
C465 C 0.2991 0.76301 0.93117 0.0
C466 C 0.21575 0.74229 0.08297 0.0
C467 C 0.13223 0.62296 0.96579 0.0
Mg468 Mg 0.2336 0.76951 0.94056 0.0
O469 O 0.21815 0.72422 0.90525 0.0
Mg470 Mg 0.21981 0.68922 0.96654 0.0
Mg471 Mg 0.16909 0.69832 0.87811 0.0
O472 O 0.11837 0.67341 0.85354 0.0
Mg473 Mg 0.09566 0.62559 0.83255 0.0
Mg474 Mg 0.12354 0.70912 0.7848 0.0
C475 C 0.19966 0.77714 0.81134 0.0
C476 C 0.13032 0.7376 0.94039 0.0
O477 O 0.28051 0.72979 0.94922 0.0
O478 O 0.28684 0.78396 0.93124 0.0
O479 O 0.21829 0.71599 0.06313 0.0
O480 O 0.21648 0.76515 0.04222 0.0
O481 O 0.21753 0.79206 0.86363 0.0
O482 O 0.18261 0.74306 0.80477 0.0
C483 C 0.20861 0.65824 0.81849 0.0
O484 O 0.18633 0.66771 0.80383 0.0
O485 O 0.22229 0.66359 0.87582 0.0
O486 O 0.06452 0.6727 0.76367 0.0
O487 O 0.04564 0.61675 0.79943 0.0
O488 O 0.13348 0.67865 0.69748 0.0
C489 C 0.04047 0.63969 0.76957 0.0
O490 O 0.12311 0.6268 0.74321 0.0
O491 O 0.10578 0.60712 0.92691 0.0
C492 C 0.13349 0.6492 0.69435 0.0
O493 O 0.15757 0.65517 0.95502 0.0
O494 O 0.15261 0.72764 0.94996 0.0
O495 O 0.11518 0.73365 0.88346 0.0
C496 C 0.26154 0.57754 0.8535 0.0
C497 C 0.2658 0.5267 0.04062 0.0
C498 C 0.40123 0.56786 0.97079 0.0
Mg499 Mg 0.25835 0.50799 0.892 0.0
O500 O 0.307 0.541 0.87226 0.0
Mg501 Mg 0.33178 0.58121 0.93311 0.0
Mg502 Mg 0.33791 0.52025 0.86805 0.0
O503 O 0.36562 0.49547 0.86612 0.0
Mg504 Mg 0.41433 0.52038 0.86273 0.0
Mg505 Mg 0.34052 0.46467 0.78827 0.0
C506 C 0.27229 0.474 0.78133 0.0
C507 C 0.29344 0.44015 0.92787 0.0
O508 O 0.29092 0.5952 0.8852 0.0
O509 O 0.24423 0.54345 0.85011 0.0
O510 O 0.29475 0.55465 0.02413 0.0
O511 O 0.24795 0.50273 -0.00194 0.0
O512 O 0.25743 0.46433 0.83918 0.0
O513 O 0.30605 0.4895 0.77667 0.0
C514 C 0.38625 0.60152 0.80912 0.0
O515 O 0.38001 0.56948 0.80497 0.0
O516 O 0.36852 0.60958 0.84877 0.0
O517 O 0.37614 0.44166 0.79511 0.0
O518 O 0.4271 0.47891 0.84426 0.0
O519 O 0.38221 0.50567 0.71063 0.0
C520 C 0.4073 0.45029 0.81175 0.0
O521 O 0.42771 0.54646 0.76959 0.0
O522 O 0.4201 0.55609 0.94375 0.0
C523 C 0.41242 0.53442 0.71422 0.0
O524 O 0.36868 0.55569 0.95556 0.0
O525 O 0.30091 0.47242 0.93609 0.0
O526 O 0.30409 0.43046 0.87571 0.0
C527 C 0.48173 0.73179 0.89059 0.0
C528 C 0.53085 0.81084 0.05604 0.0
C529 C 0.46376 0.87449 -0.01822 0.0
Mg530 Mg 0.54363 0.80821 0.90493 0.0
O531 O 0.50337 0.81302 0.88596 0.0
Mg532 Mg 0.46548 0.79535 0.95447 0.0
Mg533 Mg 0.51116 0.86185 0.86802 0.0
O534 O 0.52382 0.91245 0.85334 0.0
Mg535 Mg 0.48981 0.92513 0.85034 0.0
Mg536 Mg 0.55495 0.92139 0.77285 0.0
C537 C 0.56032 0.84817 0.78009 0.0
C538 C 0.59085 0.91685 0.91111 0.0
O539 O 0.46195 0.74115 0.9229 0.0
O540 O 0.5146 0.75319 0.87791 0.0
O541 O 0.50047 0.80384 0.03938 0.0
O542 O 0.55404 0.815 0.01183 0.0
O543 O 0.57612 0.85169 0.83495 0.0
O544 O 0.54211 0.86336 0.77361 0.0
C545 C 0.43033 0.80673 0.82702 0.0
O546 O 0.4578 0.83711 0.81372 0.0
O547 O 0.43008 0.78647 0.87294 0.0
O548 O 0.56547 0.97813 0.76976 0.0
O549 O 0.52101 0.98126 0.81981 0.0
O550 O 0.50783 0.90659 0.70072 0.0
C551 C 0.55036 0.99551 0.78642 0.0
O552 O 0.46181 0.89891 0.76442 0.0
O553 O 0.46658 0.90104 0.94781 0.0
C554 C 0.47529 0.89784 0.7078 0.0
O555 O 0.47728 0.8559 0.96074 0.0
O556 O 0.56172 0.88831 0.92576 0.0
O557 O 0.59577 0.9338 0.85513 0.0
C558 C 0.06737 0.08959 0.83059 0.0
C559 C 0.08937 0.12495 0.80836 0.0
H560 H 0.06497 0.0417 0.86301 0.0
C561 C 0.12569 0.14189 0.82099 0.0
H562 H 0.03907 0.07636 0.82537 0.0
C563 C 0.14033 0.12194 0.84327 0.0
C564 C 0.11894 0.08481 0.84969 0.0
H565 H 0.14325 0.16973 0.8078 0.0
H566 H 0.16878 0.1343 0.8419 0.0
C567 C 0.08219 0.07017 0.85501 0.0
C568 C 0.91346 0.05963 0.85071 0.0
C569 C 0.91439 0.09057 0.82776 0.0
H570 H 0.89484 0.00448 0.83204 0.0
C571 C 0.8877 0.08667 0.78469 0.0
H572 H 0.93342 0.06171 0.88436 0.0
C573 C 0.86623 0.05404 0.75295 0.0
C574 C 0.87061 0.025 0.76627 0.0
H575 H 0.88738 0.10998 0.76684 0.0
H576 H 0.84851 0.0524 0.71436 0.0
C577 C 0.89235 0.02722 0.81884 0.0
C578 C 0.95156 0.90308 0.77276 0.0
C579 C 0.94324 0.92745 0.80107 0.0
H580 H 0.98715 0.8961 0.7089 0.0
C581 C 0.96969 0.96375 0.80213 0.0
H582 H 0.9319 0.87495 0.77122 0.0
C583 C 0.00057 0.97619 0.76307 0.0
C584 C 0.00634 0.95224 0.72563 0.0
H585 H 0.96406 0.98311 0.82414 0.0
H586 H 0.01944 0.00458 0.76096 0.0
C587 C 0.98258 0.91541 0.73434 0.0
C588 C 0.86623 0.90497 0.13869 0.0
C589 C 0.90312 0.92165 0.14088 0.0
H590 H 0.82277 0.9134 0.13026 0.0
C591 C 0.92395 0.95585 0.11225 0.0
H592 H 0.84946 0.878 0.15775 0.0
C593 C 0.90829 0.9752 0.09265 0.0
C594 C 0.87235 0.96154 0.10737 0.0
H595 H 0.95242 0.96866 0.11 0.0
H596 H 0.92533 0.00324 0.0801 0.0
C597 C 0.8508 0.92486 0.12067 0.0
C598 C 0.13082 0.0059 0.21163 0.0
C599 C 0.1181 0.02519 0.24779 0.0
H600 H 0.11787 0.96085 0.14785 0.0
C601 C 0.08193 0.01257 0.24838 0.0
H602 H 0.15876 0.01525 0.20942 0.0
C603 C 0.05944 0.98338 0.21063 0.0
C604 C 0.07155 0.96388 0.17359 0.0
H605 H 0.07093 0.02669 0.27427 0.0
H606 H 0.03224 0.97674 0.21012 0.0
C607 C 0.10758 0.97509 0.17561 0.0
C608 C 0.05036 0.1507 0.18343 0.0
C609 C 0.0615 0.12673 0.16701 0.0
H610 H 0.01059 0.15756 0.23166 0.0
C611 C 0.03681 0.08989 0.17 0.0
H612 H 0.06886 0.1792 0.18182 0.0
C613 C 0.00397 0.07732 0.20177 0.0
C614 C -0.00512 0.1015 0.22809 0.0
H615 H 0.04489 0.07087 0.15737 0.0
H616 H 0.98633 0.04881 0.20773 0.0
C617 C 0.01747 0.13822 0.21475 0.0
C618 C 0.80662 0.45552 0.16857 0.0
C619 C 0.78458 0.41864 0.17814 0.0
H620 H 0.81037 0.50332 0.13098 0.0
C621 C 0.74794 0.40478 0.18375 0.0
H622 H 0.83499 0.46721 0.16606 0.0
C623 C 0.73361 0.42454 0.15875 0.0
C624 C 0.75601 0.45949 0.13488 0.0
H625 H 0.73031 0.37652 0.19341 0.0
H626 H 0.70529 0.41188 0.1546 0.0
C627 C 0.79245 0.4758 0.14581 0.0
C628 C 0.58385 0.39784 0.18252 0.0
C629 C 0.58348 0.42794 0.1582 0.0
H630 H 0.56718 0.34288 0.1661 0.0
C631 C 0.55627 0.42238 0.11492 0.0
H632 H 0.6042 0.40114 0.2164 0.0
C633 C 0.53552 0.38908 0.08473 0.0
C634 C 0.54129 0.361 0.09919 0.0
H635 H 0.55498 0.44495 0.09576 0.0
H636 H 0.51718 0.38617 0.04641 0.0
C637 C 0.5637 0.36485 0.15167 0.0
C638 C 0.66618 0.30229 0.10055 0.0
C639 C 0.67137 0.27872 0.06059 0.0
H640 H 0.63014 0.3092 0.16307 0.0
C641 C 0.64661 0.24198 0.0656 0.0
H642 H 0.68581 0.33046 0.10121 0.0
C643 C 0.61518 0.22967 0.10284 0.0
C644 C 0.60779 0.25403 0.1344 0.0
H645 H 0.65077 0.22294 0.03806 0.0
H646 H 0.59476 0.20192 0.09838 0.0
C647 C 0.63508 0.28984 0.13881 0.0
C648 C 0.53405 0.27157 0.45021 0.0
C649 C 0.55613 0.30844 0.44077 0.0
H650 H 0.5302 0.22373 0.48785 0.0
C651 C 0.59275 0.32228 0.43524 0.0
H652 H 0.50568 0.2599 0.45261 0.0
C653 C 0.60703 0.30248 0.46029 0.0
C654 C 0.58457 0.26754 0.48415 0.0
H655 H 0.61042 0.35054 0.42562 0.0
H656 H 0.63534 0.31512 0.46455 0.0
C657 C 0.54816 0.25125 0.47306 0.0
C658 C 0.80468 0.33707 0.5329 0.0
C659 C 0.79893 0.3652 0.51888 0.0
H660 H 0.78521 0.28127 0.52113 0.0
C661 C 0.77667 0.36161 0.46629 0.0
H662 H 0.82295 0.33981 0.57125 0.0
C663 C 0.75656 0.32876 0.435 0.0
C664 C 0.75677 0.29856 0.45914 0.0
H665 H 0.77327 0.38367 0.45216 0.0
H666 H 0.73627 0.32564 0.40113 0.0
C667 C 0.78397 0.30391 0.50224 0.0
C668 C 0.7047 0.43627 0.47941 0.0
C669 C 0.73216 0.47202 0.48339 0.0
H670 H 0.65402 0.39595 0.51775 0.0
C671 C 0.72507 0.4966 0.51497 0.0
H672 H 0.7094 0.41676 0.4551 0.0
C673 C 0.6938 0.48455 0.55262 0.0
C674 C 0.6689 0.44787 0.55804 0.0
H675 H 0.74563 0.52431 0.51908 0.0
H676 H 0.68987 0.50376 0.58012 0.0
C677 C 0.67377 0.42409 0.51809 0.0
C678 C 0.47511 0.79123 0.50296 0.0
C679 C 0.45361 0.75432 0.51307 0.0
H680 H 0.47765 0.83843 0.46502 0.0
C681 C 0.41698 0.73998 0.52045 0.0
H682 H 0.50351 0.80332 0.49937 0.0
C683 C 0.4019 0.75914 0.49602 0.0
C684 C 0.42364 0.79399 0.47103 0.0
H685 H 0.39978 0.71171 0.53076 0.0
H686 H 0.3735 0.74601 0.49291 0.0
C687 C 0.46022 0.81094 0.48067 0.0
C688 C 0.22225 0.75377 0.45396 0.0
C689 C 0.24931 0.7586 0.49695 0.0
H690 H 0.18369 0.71887 0.38327 0.0
C691 C 0.24949 0.72809 0.51928 0.0
H692 H 0.22082 0.77659 0.43689 0.0
C693 C 0.22977 0.69578 0.48601 0.0
C694 C 0.20781 0.69293 0.43339 0.0
H695 H 0.26957 0.73076 0.55323 0.0
H696 H 0.23317 0.67356 0.49887 0.0
C697 C 0.2019 0.72113 0.42134 0.0
C698 C 0.28354 0.56495 0.44002 0.0
C699 C 0.27534 0.58903 0.47019 0.0
H700 H 0.31976 0.5587 0.37635 0.0
C701 C 0.30209 0.62514 0.47376 0.0
H702 H 0.26357 0.53699 0.43633 0.0
C703 C 0.33335 0.63795 0.43575 0.0
C704 C 0.33926 0.61451 0.3969 0.0
H705 H 0.29653 0.6443 0.49701 0.0
H706 H 0.35249 0.66628 0.43564 0.0
C707 C 0.31509 0.57764 0.40298 0.0
C708 C 0.26896 0.63145 0.79263 0.0
C709 C 0.24693 0.5967 0.81786 0.0
H710 H 0.2717 0.67907 0.75727 0.0
C711 C 0.21037 0.58012 0.80824 0.0
H712 H 0.29734 0.64429 0.79569 0.0
C713 C 0.19582 0.6001 0.78559 0.0
C714 C 0.21765 0.63695 0.77513 0.0
H715 H 0.19273 0.55269 0.82406 0.0
H716 H 0.16746 0.58829 0.78916 0.0
C717 C 0.25422 0.65087 0.7678 0.0
C718 C 0.42084 0.66286 0.76915 0.0
C719 C 0.42101 0.63239 0.79168 0.0
H720 H 0.4383 0.71778 0.78782 0.0
C721 C 0.44848 0.6372 0.83349 0.0
H722 H 0.40029 0.66011 0.7364 0.0
C723 C 0.46975 0.67013 0.8645 0.0
C724 C 0.46427 0.69856 0.85201 0.0
H725 H 0.44965 0.61431 0.85106 0.0
H726 H 0.48822 0.67243 0.90204 0.0
C727 C 0.44161 0.6955 0.8006 0.0
C728 C 0.36798 0.76422 0.8131 0.0
C729 C 0.39496 0.80027 0.81534 0.0
H730 H 0.31809 0.72359 0.85408 0.0
C731 C 0.38743 0.82473 0.84597 0.0
H732 H 0.37298 0.74479 0.78935 0.0
C733 C 0.35664 0.81251 0.88515 0.0
C734 C 0.33241 0.77573 0.89254 0.0
H735 H 0.40753 0.85268 0.84857 0.0
H736 H 0.35259 0.83176 0.91217 0.0
C737 C 0.33741 0.75187 0.85306 0.0
C738 C 0.23718 0.12928 0.55841 0.0
C739 C 0.21124 0.12599 0.60478 0.0
H740 H 0.25703 0.14212 0.45701 0.0
C741 C 0.19025 0.14038 0.59034 0.0
H742 H 0.25404 0.11876 0.57021 0.0
C743 C 0.19278 0.15488 0.52672 0.0
C744 C 0.21526 0.15357 0.47658 0.0
H745 H 0.17075 0.13866 0.6267 0.0
H746 H 0.17451 0.16366 0.5149 0.0
C747 C 0.23924 0.14307 0.49424 0.0
C748 C 0.8871 0.1216 0.57361 0.0
C749 C 0.91991 0.12852 0.59742 0.0
H750 H 0.84886 0.09816 0.49683 0.0
C751 C 0.93591 0.11089 0.56815 0.0
H752 H 0.87355 0.13422 0.59545 0.0
C753 C 0.9207 0.08901 0.51264 0.0
C754 C 0.8898 0.0852 0.48538 0.0
H755 H 0.96083 0.11527 0.58592 0.0
H756 H 0.93472 0.07768 0.48752 0.0
C757 C 0.87249 0.10058 0.51755 0.0
C758 C 0.89887 0.83221 0.54225 0.0
C759 C 0.89597 0.86022 0.57086 0.0
H760 H 0.91411 0.81304 0.4566 0.0
C761 C 0.90907 0.89226 0.5343 0.0
H762 H 0.88882 0.80697 0.56863 0.0
C763 C 0.92454 0.89591 0.47003 0.0
C764 C 0.92608 0.86721 0.44112 0.0
H765 H 0.90717 0.91421 0.55504 0.0
H766 H 0.93394 0.92054 0.44185 0.0
C767 C 0.91331 0.83551 0.47794 0.0
C768 C 0.11539 0.24203 0.88237 0.0
C769 C 0.08145 0.23655 0.89646 0.0
H770 H 0.16047 0.24215 0.91992 0.0
C771 C 0.06529 0.22196 0.95923 0.0
H772 H 0.12867 0.25283 0.83426 0.0
C773 C 0.08377 0.21576 0.00852 0.0
C774 C 0.11873 0.22397 -0.0041 0.0
H775 H 0.03911 0.21703 0.97148 0.0
H776 H 0.07146 0.20664 0.05795 0.0
C777 C 0.13363 0.23545 0.93126 0.0
C778 C 0.77074 0.95098 0.91687 0.0
C779 C 0.79819 0.96378 0.96252 0.0
H780 H 0.74177 0.91204 0.84253 0.0
C781 C 0.82198 0.9515 0.95898 0.0
H782 H 0.75166 0.95962 0.91962 0.0
C783 C 0.81595 0.92361 0.91639 0.0
C784 C 0.78611 0.90791 0.87596 0.0
H785 H 0.84352 0.96144 -0.00682 0.0
H786 H 0.8336 0.91323 0.91791 0.0
C787 C 0.7647 0.9232 0.87388 0.0
C788 C 0.1426 0.93737 0.92219 0.0
C789 C 0.12856 0.92279 0.85977 0.0
H790 H 0.13712 0.93117 0.02853 0.0
C791 C 0.1 0.88737 0.85734 0.0
H792 H 0.16466 0.96437 0.92589 0.0
C793 C 0.08357 0.86835 0.91655 0.0
C794 C 0.09583 0.88423 -0.02101 0.0
H795 H 0.08862 0.87514 0.8099 0.0
H796 H 0.06073 0.84178 0.91336 0.0
C797 C 0.12638 0.91834 -0.01886 0.0
C798 C 0.76543 0.90819 0.46877 0.0
C799 C 0.79771 0.91343 0.49072 0.0
H800 H 0.73849 0.91591 0.38803 0.0
C801 C 0.8262 0.92512 0.44421 0.0
H802 H 0.74299 0.89881 0.50323 0.0
C803 C 0.82388 0.93562 0.37959 0.0
C804 C 0.79269 0.93334 0.35976 0.0
H805 H 0.85134 0.9288 0.45894 0.0
H806 H 0.84694 0.94713 0.34626 0.0
C807 C 0.76286 0.91784 0.40308 0.0
C808 C 0.06582 0.94992 0.37803 0.0
C809 C 0.08474 0.93683 0.34325 0.0
H810 H 0.06369 0.97764 0.4653 0.0
C811 C 0.1193 0.94754 0.36302 0.0
H812 H 0.03952 0.94267 0.36339 0.0
C813 C 0.13265 0.96665 0.42161 0.0
C814 C 0.11236 0.97672 0.45962 0.0
H815 H 0.13518 0.93877 0.33645 0.0
H816 H 0.15772 0.97144 0.43955 0.0
C817 C 0.07981 0.97016 0.43578 0.0
C818 C 0.12777 0.24078 0.43018 0.0
C819 C 0.12298 0.21084 0.39451 0.0
H820 H 0.11569 0.26022 0.51951 0.0
C821 C 0.10088 0.17661 0.42168 0.0
H822 H 0.14483 0.26752 0.4102 0.0
C823 C 0.08352 0.17245 0.48363 0.0
C824 C 0.08879 0.20252 0.51963 0.0
H825 H 0.09663 0.1532 0.39471 0.0
H826 H 0.0667 0.14579 0.50413 0.0
C827 C 0.11113 0.23669 0.49254 0.0
C828 C 0.88393 0.80347 0.07899 0.0
C829 C 0.92032 0.8165 0.07015 0.0
H830 H 0.83727 0.79828 0.03725 0.0
C831 C 0.93846 0.83936 0.01526 0.0
H832 H 0.86916 0.78604 0.12112 0.0
C833 C 0.92014 0.84676 0.96767 0.0
C834 C 0.88328 0.8312 0.97364 0.0
H835 H 0.96653 0.85041 0.00743 0.0
H836 H 0.93452 0.8627 0.92369 0.0
C837 C 0.86564 0.81091 0.03144 0.0
C838 C 0.22541 0.11592 0.09342 0.0
C839 C 0.20767 0.13503 0.08917 0.0
H840 H 0.23449 0.07676 0.04769 0.0
C841 C 0.17862 0.12239 0.04708 0.0
H842 H 0.2475 0.12457 0.12634 0.0
C843 C 0.17066 0.09434 0.00358 0.0
C844 C 0.19195 0.07905 0.00062 0.0
H845 H 0.16366 0.13576 0.04388 0.0
H846 H 0.15066 0.08758 0.9667 0.0
C847 C 0.21746 0.08793 0.04948 0.0
C848 C 0.87804 0.13329 0.96212 0.0
C849 C 0.90518 0.16913 0.96721 0.0
H850 H 0.84174 0.08508 0.01441 0.0
C851 C 0.91268 0.1854 0.03015 0.0
H852 H 0.87118 0.12019 0.91386 0.0
C853 C 0.89505 0.16546 0.08769 0.0
C854 C 0.87027 0.12868 0.08329 0.0
H855 H 0.93266 0.21326 0.03513 0.0
H856 H 0.90272 0.17838 0.136 0.0
C857 C 0.86073 0.11322 0.01966 0.0
C858 C 0.90324 0.46796 0.88559 0.0
C859 C 0.87231 0.45122 0.92612 0.0
H860 H 0.92572 0.48921 0.7876 0.0
C861 C 0.84123 0.44785 0.90265 0.0
H862 H 0.92753 0.47069 0.90332 0.0
C863 C 0.84043 0.45922 0.83786 0.0
C864 C 0.87042 0.47297 0.79446 0.0
H865 H 0.81728 0.43529 0.93356 0.0
H866 H 0.81547 0.45498 0.82065 0.0
C867 C 0.90223 0.47846 0.81961 0.0
C868 C 0.58705 0.42612 0.84657 0.0
C869 C 0.55819 0.42514 0.81563 0.0
H870 H 0.62583 0.45008 0.92266 0.0
C871 C 0.54222 0.44261 0.8448 0.0
H872 H 0.59994 0.41297 0.82405 0.0
C873 C 0.55676 0.46343 0.901 0.0
C874 C 0.58806 0.46781 0.92781 0.0
H875 H 0.52007 0.4422 0.82136 0.0
H876 H 0.54469 0.47803 0.92028 0.0
C877 C 0.60222 0.44774 0.90215 0.0
C878 C 0.5575 0.15881 0.79719 0.0
C879 C 0.58465 0.19204 0.77369 0.0
H880 H 0.52045 0.12974 0.87643 0.0
C881 C 0.5949 0.22253 0.81323 0.0
H882 H 0.54891 0.13497 0.76775 0.0
C883 C 0.57802 0.21964 0.87542 0.0
C884 C 0.55127 0.18616 0.89883 0.0
H885 H 0.61553 0.24862 0.79566 0.0
H886 H 0.58639 0.24316 0.90573 0.0
C887 C 0.54115 0.1559 0.85922 0.0
C888 C 0.7877 0.58339 0.2107 0.0
C889 C 0.75321 0.57658 0.22386 0.0
H890 H 0.83363 0.58591 0.24993 0.0
C891 C 0.73713 0.56233 0.28679 0.0
H892 H 0.8009 0.59391 0.16241 0.0
C893 C 0.75606 0.5575 0.33694 0.0
C894 C 0.79144 0.56694 0.32512 0.0
H895 H 0.71053 0.55636 0.29825 0.0
H896 H 0.74358 0.54826 0.38621 0.0
C897 C 0.8065 0.57838 0.26062 0.0
C898 C 0.49647 0.28767 0.29177 0.0
C899 C 0.47624 0.30412 0.29273 0.0
H900 H 0.5021 0.24497 0.25411 0.0
C901 C 0.45033 0.2948 0.24459 0.0
H902 H 0.51666 0.29468 0.32832 0.0
C903 C 0.44129 0.2658 0.20281 0.0
C904 C 0.45848 0.2462 0.20806 0.0
H905 H 0.43405 0.30683 0.2451 0.0
H906 H 0.41911 0.25715 0.17012 0.0
C907 C 0.48761 0.25878 0.25001 0.0
C908 C 0.79104 0.2534 0.32783 0.0
C909 C 0.76415 0.21744 0.32315 0.0
H910 H 0.82663 0.30168 0.27493 0.0
C911 C 0.75653 0.20102 0.26037 0.0
H912 H 0.79795 0.2666 0.37598 0.0
C913 C 0.77376 0.22092 0.20257 0.0
C914 C 0.79818 0.25781 0.20655 0.0
H915 H 0.73673 0.17306 0.25573 0.0
H916 H 0.76598 0.20784 0.15442 0.0
C917 C 0.80789 0.27345 0.27 0.0
C918 C 0.49856 0.27876 0.71661 0.0
C919 C 0.46773 0.27594 0.6932 0.0
H920 H 0.52387 0.27074 0.79832 0.0
C921 C 0.43675 0.25949 0.73364 0.0
H922 H 0.52253 0.29105 0.68573 0.0
C923 C 0.43749 0.24864 0.79948 0.0
C924 C 0.46906 0.25348 0.82454 0.0
H925 H 0.41263 0.25719 0.71591 0.0
H926 H 0.41401 0.23811 0.83144 0.0
C927 C 0.49908 0.26701 0.78121 0.0
C928 C 0.75302 0.30076 0.77272 0.0
C929 C 0.78213 0.30208 0.80326 0.0
H930 H 0.71414 0.27653 0.6969 0.0
C931 C 0.79844 0.28507 0.77363 0.0
H932 H 0.73989 0.31357 0.79563 0.0
C933 C 0.784 0.26431 0.71735 0.0
C934 C 0.75245 0.25952 0.69096 0.0
H935 H 0.8208 0.28577 0.79677 0.0
H936 H 0.79636 0.25006 0.69769 0.0
C937 C 0.73795 0.27919 0.71706 0.0
C938 C 0.74496 0.50483 0.80516 0.0
C939 C 0.7567 0.53508 0.84612 0.0
H940 H 0.75217 0.48416 0.71153 0.0
C941 C 0.78548 0.56772 0.82431 0.0
H942 H 0.72304 0.47915 0.82134 0.0
C943 C 0.8019 0.57033 0.76252 0.0
C944 C 0.79015 0.54036 0.72139 0.0
H945 H 0.79528 0.59137 0.85482 0.0
H946 H 0.8238 0.59609 0.74646 0.0
C947 C 0.76183 0.5074 0.74313 0.0
C948 C 0.58481 0.17087 0.28351 0.0
C949 C 0.54933 0.16109 0.29523 0.0
H950 H 0.63036 0.17206 0.32201 0.0
C951 C 0.53421 0.14942 0.35963 0.0
H952 H 0.59733 0.18034 0.23434 0.0
C953 C 0.55301 0.14433 0.40943 0.0
C954 C 0.58754 0.15129 0.39619 0.0
H955 H 0.50701 0.14166 0.37024 0.0
H956 H 0.53976 0.13351 0.45757 0.0
C957 C 0.60372 0.16594 0.33351 0.0
C958 C 0.85257 0.46716 0.36899 0.0
C959 C 0.88149 0.47969 0.41144 0.0
H960 H 0.82412 0.43161 0.28984 0.0
C961 C 0.89885 0.46026 0.41672 0.0
H962 H 0.83797 0.48086 0.36485 0.0
C963 C 0.89023 0.43152 0.37443 0.0
C964 C 0.86456 0.4223 0.32582 0.0
H965 H 0.9209 0.4689 0.44977 0.0
H966 H 0.90667 0.41967 0.37399 0.0
C967 C 0.84412 0.43853 0.32675 0.0
C968 C 0.56673 0.50595 0.41624 0.0
C969 C 0.54233 0.46907 0.41209 0.0
H970 H 0.60386 0.55385 0.36331 0.0
C971 C 0.53276 0.45347 0.34858 0.0
H972 H 0.57439 0.51899 0.46444 0.0
C973 C 0.54975 0.47355 0.29088 0.0
C974 C 0.57663 0.5095 0.29576 0.0
H975 H 0.51402 0.42524 0.34353 0.0
H976 H 0.54295 0.46037 0.24269 0.0
C977 C 0.58409 0.5259 0.35856 0.0
C978 C 0.50821 0.78443 0.23785 0.0
C979 C 0.53957 0.78798 0.26011 0.0
H980 H 0.4814 0.79061 0.15653 0.0
C981 C 0.57008 0.80456 0.21847 0.0
H982 H 0.48457 0.772 0.26967 0.0
C983 C 0.56826 0.81441 0.15243 0.0
C984 C 0.53606 0.80837 0.12832 0.0
H985 H 0.59459 0.80742 0.23524 0.0
H986 H 0.59139 0.82487 0.11948 0.0
C987 C 0.50661 0.79514 0.17293 0.0
C988 C 0.21867 0.7881 0.24115 0.0
C989 C 0.25075 0.79392 0.26673 0.0
H990 H 0.18201 0.76647 0.16148 0.0
C991 C 0.26626 0.77543 0.23942 0.0
H992 H 0.20553 0.80139 0.2618 0.0
C993 C 0.2517 0.75423 0.18315 0.0
C994 C 0.22212 0.75217 0.15324 0.0
H995 H 0.29052 0.77889 0.25893 0.0
H996 H 0.26559 0.74243 0.15924 0.0
C997 C 0.20478 0.7678 0.18415 0.0
C998 C 0.25859 0.55453 0.14548 0.0
C999 C 0.25094 0.52375 0.10891 0.0
H1000 H 0.24823 0.57537 0.23576 0.0
C1001 C 0.22691 0.49011 0.13606 0.0
H1002 H 0.27673 0.58087 0.12497 0.0
C1003 C 0.21108 0.48713 0.19879 0.0
C1004 C 0.21844 0.5177 0.2354 0.0
H1005 H 0.22039 0.46605 0.10886 0.0
H1006 H 0.1927 0.46065 0.21855 0.0
C1007 C 0.24208 0.55152 0.2082 0.0
C1008 C 0.3992 0.88676 0.60853 0.0
C1009 C 0.41689 0.90719 0.55084 0.0
H1010 H 0.40383 0.86608 0.70276 0.0
C1011 C 0.45281 0.91842 0.54017 0.0
H1012 H 0.37147 0.87717 0.61779 0.0
C1013 C 0.47122 0.91165 0.58831 0.0
C1014 C 0.45423 0.89395 0.64854 0.0
H1015 H 0.46725 0.93388 0.49584 0.0
H1016 H 0.49934 0.92287 0.58066 0.0
C1017 C 0.41768 0.88007 0.6568 0.0
C1018 C 0.10458 0.59727 0.53967 0.0
C1019 C 0.12324 0.57909 0.54402 0.0
H1020 H 0.095 0.6365 0.58348 0.0
C1021 C 0.15245 0.5926 0.58594 0.0
H1022 H 0.08228 0.58788 0.50704 0.0
C1023 C 0.16009 0.62098 0.62832 0.0
C1024 C 0.13855 0.63596 0.63007 0.0
H1025 H 0.16804 0.57992 0.58932 0.0
H1026 H 0.18054 0.62877 0.66453 0.0
C1027 C 0.11232 0.62568 0.58229 0.0
C1028 C 0.42418 0.53756 0.59063 0.0
C1029 C 0.43151 0.5543 0.65311 0.0
H1030 H 0.43437 0.54385 0.48484 0.0
C1031 C 0.45862 0.59015 0.65768 0.0
H1032 H 0.40427 0.50963 0.58618 0.0
C1033 C 0.47607 0.60981 0.59992 0.0
C1034 C 0.46663 0.59391 0.53662 0.0
H1035 H 0.46537 0.60355 0.70566 0.0
H1036 H 0.49504 0.63799 0.60467 0.0
C1037 C 0.44194 0.5571 0.53287 0.0
C1038 C 0.10101 0.58897 0.06941 0.0
C1039 C 0.13156 0.60489 0.02786 0.0
H1040 H 0.07929 0.56857 0.16812 0.0
C1041 C 0.16241 0.60716 0.04974 0.0
H1042 H 0.07688 0.58706 0.05279 0.0
C1043 C 0.16351 0.59576 0.1143 0.0
C1044 C 0.1341 0.58319 0.15892 0.0
H1045 H 0.18603 0.61903 0.01788 0.0
H1046 H 0.18835 0.59924 0.13046 0.0
C1047 C 0.10235 0.57847 0.13514 0.0
C1048 C 0.40245 0.61297 0.05065 0.0
C1049 C 0.41851 0.59521 0.02233 0.0
H1050 H 0.40308 0.64593 0.13101 0.0
C1051 C 0.45115 0.602 0.04674 0.0
H1052 H 0.37771 0.60874 0.03217 0.0
C1053 C 0.46534 0.62279 0.10312 0.0
C1054 C 0.44771 0.63795 0.13477 0.0
H1055 H 0.46471 0.58929 0.0254 0.0
H1056 H 0.48872 0.625 0.12467 0.0
C1057 C 0.41726 0.63463 0.10638 0.0
C1058 C 0.45545 0.90027 0.08565 0.0
C1059 C 0.44827 0.86956 0.04977 0.0
H1060 H 0.44671 0.92171 0.17562 0.0
C1061 C 0.42567 0.83582 0.07838 0.0
H1062 H 0.47307 0.92669 0.06476 0.0
C1063 C 0.40993 0.83304 0.14184 0.0
C1064 C 0.41738 0.86397 0.17759 0.0
H1065 H 0.41973 0.81188 0.05135 0.0
H1066 H 0.39254 0.80678 0.16351 0.0
C1067 C 0.44041 0.89753 0.14905 0.0
C1068 C 0.27054 0.50137 0.67135 0.0
C1069 C 0.254 0.48416 0.73235 0.0
H1070 H 0.26437 0.51841 0.57442 0.0
C1071 C 0.21889 0.47536 0.74555 0.0
H1072 H 0.29763 0.50897 0.65992 0.0
C1073 C 0.19997 0.48119 0.69699 0.0
C1074 C 0.21558 0.49543 0.63386 0.0
H1075 H 0.20534 0.46248 0.79242 0.0
H1076 H 0.17236 0.47188 0.70708 0.0
C1077 C 0.25153 0.50703 0.62263 0.0
C1078 C 0.51868 0.8004 0.70272 0.0
C1079 C 0.54781 0.81405 0.74488 0.0
H1080 H 0.49101 0.76431 0.62376 0.0
C1081 C 0.56668 0.79611 0.74939 0.0
H1082 H 0.50293 0.8129 0.6992 0.0
C1083 C 0.55927 0.76784 0.70662 0.0
C1084 C 0.53316 0.75746 0.65853 0.0
H1085 H 0.58894 0.80564 0.78218 0.0
H1086 H 0.57676 0.75721 0.70557 0.0
C1087 C 0.51138 0.77217 0.66016 0.0
C1088 C 0.234 0.83661 0.75463 0.0
C1089 C 0.20827 0.80006 0.7511 0.0
H1090 H 0.27147 0.88394 0.7005 0.0
C1091 C 0.19725 0.78458 0.68788 0.0
H1092 H 0.24292 0.84955 0.80263 0.0
C1093 C 0.21378 0.80433 0.62965 0.0
C1094 C 0.24163 0.83994 0.63353 0.0
H1095 H 0.17751 0.75661 0.68328 0.0
H1096 H 0.20566 0.79112 0.58167 0.0
C1097 C 0.25083 0.85627 0.69631 0.0
C1098 C 0.20066 0.95494 0.57303 0.0
C1099 C 0.22393 0.981 0.61749 0.0
H1100 H 0.19554 0.92253 0.48789 0.0
C1101 C 0.26005 0.99967 0.60196 0.0
H1102 H 0.17248 0.94108 0.5831 0.0
C1103 C 0.27309 0.99072 0.54556 0.0
C1104 C 0.25042 0.96165 0.5052 0.0
H1105 H 0.27829 0.02098 0.63395 0.0
H1106 H 0.30139 0.00473 0.53708 0.0
C1107 C 0.21382 0.94495 0.51767 0.0
C1108 C 0.04269 0.31873 0.60551 0.0
C1109 C 0.06262 0.30652 0.63725 0.0
H1110 H 0.04195 0.35417 0.53264 0.0
C1111 C 0.09677 0.31747 0.61248 0.0
H1112 H 0.01589 0.3097 0.62254 0.0
C1113 C 0.11208 0.34349 0.56091 0.0
C1114 C 0.09293 0.35799 0.53313 0.0
H1115 H 0.1122 0.30757 0.63556 0.0
H1116 H 0.13956 0.35422 0.54686 0.0
C1117 C 0.05746 0.34373 0.55335 0.0
C1118 C 0.66288 0.74532 0.61613 0.0
C1119 C 0.66403 0.76669 0.5617 0.0
H1120 H 0.68749 0.74172 0.70497 0.0
C1121 C 0.69337 0.80118 0.55371 0.0
H1122 H 0.64053 0.71867 0.62439 0.0
C1123 C 0.72048 0.81424 0.60001 0.0
C1124 C 0.71849 0.79348 0.65614 0.0
H1125 H 0.69506 0.81834 0.51257 0.0
H1126 H 0.74271 0.84086 0.59233 0.0
C1127 C 0.68961 0.75867 0.66307 0.0
C1128 C 0.92569 0.33027 0.943 0.0
C1129 C 0.88969 0.31084 0.95966 0.0
H1130 H 0.96703 0.33623 0.8769 0.0
C1131 C 0.86655 0.28405 0.9162 0.0
H1132 H 0.94381 0.35211 0.97419 0.0
C1133 C 0.87979 0.27441 0.86042 0.0
C1134 C 0.91634 0.29212 0.84654 0.0
H1135 H 0.83845 0.26949 0.92718 0.0
H1136 H 0.86169 0.25159 0.83129 0.0
C1137 C 0.93878 0.32156 0.88632 0.0
C1138 C 0.7328 0.63935 0.90354 0.0
C1139 C 0.7422 0.64587 0.97151 0.0
H1140 H 0.7413 0.66209 0.80387 0.0
C1141 C 0.7721 0.67806 -0.01117 0.0
H1142 H 0.7097 0.61462 0.88922 0.0
C1143 C 0.79109 0.70423 0.93961 0.0
C1144 C 0.77985 0.69908 0.87274 0.0
H1145 H 0.77992 0.68352 0.0408 0.0
H1146 H 0.81268 0.72985 0.95503 0.0
C1147 C 0.75106 0.66617 0.85457 0.0
C1148 C 0.35483 0.13366 0.89311 0.0
C1149 C 0.3268 0.09828 0.90042 0.0
H1150 H 0.40292 0.17541 0.93285 0.0
C1151 C 0.32683 0.0774 0.95439 0.0
H1152 H 0.35548 0.1505 0.85233 0.0
C1153 C 0.35344 0.09199 0.00156 0.0
C1154 C 0.38097 0.12761 -0.00476 0.0
H1155 H 0.30544 0.05018 0.96211 0.0
H1156 H 0.35238 0.0753 0.04302 0.0
C1157 C 0.3818 0.14805 0.9397 0.0
C1158 C 0.80084 0.10144 0.37787 0.0
C1159 C 0.778 0.07641 0.33156 0.0
H1160 H 0.80518 0.13193 0.46557 0.0
C1161 C 0.74173 0.05753 0.34579 0.0
H1162 H 0.82911 0.11535 0.36888 0.0
C1163 C 0.72815 0.06531 0.40286 0.0
C1164 C 0.75044 0.09339 0.44539 0.0
H1165 H 0.72378 0.03685 0.31241 0.0
H1166 H 0.69978 0.05123 0.41037 0.0
C1167 C 0.78716 0.11025 0.43407 0.0
C1168 C 0.96702 0.74225 0.36174 0.0
C1169 C 0.94731 0.75413 0.32815 0.0
H1170 H 0.9669 0.70695 0.43612 0.0
C1171 C 0.91304 0.74348 0.35165 0.0
H1172 H -0.00612 0.75104 0.34552 0.0
C1173 C 0.89726 0.71777 0.40353 0.0
C1174 C 0.91605 0.70327 0.43272 0.0
H1175 H 0.89777 0.7531 0.32695 0.0
H1176 H 0.86962 0.70697 0.41618 0.0
C1177 C 0.95175 0.71752 0.41428 0.0
C1178 C 0.34703 0.31123 0.32556 0.0
C1179 C 0.34579 0.29246 0.38432 0.0
H1180 H 0.32222 0.31064 0.23371 0.0
C1181 C 0.31672 0.25814 0.39594 0.0
H1182 H 0.36935 0.33756 0.3144 0.0
C1183 C 0.28975 0.24281 0.34953 0.0
C1184 C 0.29149 0.26104 0.28978 0.0
H1185 H 0.31507 0.24286 0.44032 0.0
H1186 H 0.26769 0.21647 0.36028 0.0
C1187 C 0.32033 0.29558 0.27857 0.0
C1188 C 0.13012 0.78947 0.09341 0.0
C1189 C 0.09425 0.77015 0.11345 0.0
H1190 H 0.16969 0.79442 0.02159 0.0
C1191 C 0.07173 0.73816 0.07993 0.0
H1192 H 0.14824 0.81423 0.11766 0.0
C1193 C 0.08354 0.72824 0.02297 0.0
C1194 C 0.11848 0.74913 -0.00016 0.0
H1195 H 0.04405 0.72223 0.09427 0.0
H1196 H 0.06518 0.70439 -0.00356 0.0
C1197 C 0.14222 0.77871 0.03743 0.0
C1198 C 0.2461 0.40698 0.01706 0.0
C1199 C 0.27796 0.4149 -0.01532 0.0
H1200 H 0.20478 0.37182 0.08688 0.0
C1201 C 0.29603 0.3983 0.00676 0.0
H1202 H 0.2322 0.4202 0.00142 0.0
C1203 C 0.2814 0.37218 0.05683 0.0
C1204 C 0.24777 0.36121 0.08462 0.0
H1205 H 0.32122 0.40491 -0.01609 0.0
H1206 H 0.29542 0.35875 0.07038 0.0
C1207 C 0.23079 0.37984 0.06654 0.0
C1208 C 0.61592 0.91023 0.01823 0.0
C1209 C 0.61841 0.93126 0.96223 0.0
H1210 H 0.63997 0.90629 0.10769 0.0
C1211 C 0.64638 0.96665 0.95767 0.0
H1212 H 0.59429 0.8831 0.02398 0.0
C1213 C 0.67197 0.98032 0.00678 0.0
C1214 C 0.67052 0.9587 0.06097 0.0
H1215 H 0.64866 0.98378 0.91599 0.0
H1216 H 0.69382 0.0074 0.00025 0.0
C1217 C 0.64184 0.92368 0.06681 0.0
C1218 C 0.55284 0.617 0.18559 0.0
C1219 C 0.58968 0.6331 0.17737 0.0
H1220 H 0.5099 0.61208 0.24738 0.0
C1221 C 0.61135 0.65996 0.22262 0.0
H1222 H 0.53527 0.59621 0.15204 0.0
C1223 C 0.59684 0.66744 0.27872 0.0
C1224 C 0.56029 0.64943 0.28954 0.0
H1225 H 0.63982 0.67342 0.21777 0.0
H1226 H 0.61429 0.68719 0.31404 0.0
C1227 C 0.53828 0.62547 0.2409 0.0
C1228 C 0.38999 0.00846 0.20596 0.0
C1229 C 0.42599 0.02361 0.18925 0.0
H1230 H 0.34729 0.97377 0.27261 0.0
C1231 C 0.44513 0.00988 0.21991 0.0
H1232 H 0.3746 0.01848 0.18305 0.0
C1233 C 0.42923 0.98393 0.27134 0.0
C1234 C 0.39442 0.97218 0.29281 0.0
H1235 H 0.47302 0.02143 0.20863 0.0
H1236 H 0.44467 0.97486 0.29712 0.0
C1237 C 0.37452 0.98338 0.25788 0.0
C1238 C 0.02046 0.42635 0.33552 0.0
C1239 C 0.04855 0.46164 0.32915 0.0
H1240 H 0.97255 0.38501 0.29523 0.0
C1241 C 0.05027 0.48206 0.27272 0.0
H1242 H 0.01866 0.40965 0.37761 0.0
C1243 C 0.0237 0.468 0.22522 0.0
C1244 C -0.00481 0.43291 0.2324 0.0
H1245 H 0.07186 0.50912 0.26571 0.0
H1246 H 0.02511 0.48486 0.18375 0.0
C1247 C -0.00571 0.41205 0.28746 0.0
C1248 C 0.47319 0.44209 0.70158 0.0
C1249 C 0.45021 0.41546 0.65769 0.0
H1250 H 0.47772 0.47391 0.78735 0.0
C1251 C 0.41422 0.39567 0.67422 0.0
H1252 H 0.50131 0.45687 0.69072 0.0
C1253 C 0.40096 0.40385 0.73131 0.0
C1254 C 0.42321 0.43311 0.77165 0.0
H1255 H 0.39625 0.37391 0.64272 0.0
H1256 H 0.37271 0.3889 0.74072 0.0
C1257 C 0.45977 0.4512 0.75778 0.0
C1258 C 0.60798 0.0878 0.71572 0.0
C1259 C 0.59876 0.08133 0.64764 0.0
H1260 H 0.59945 0.06487 0.81526 0.0
C1261 C 0.56924 0.04896 0.62988 0.0
H1262 H 0.63081 0.11269 0.73032 0.0
C1263 C 0.55046 0.02257 0.67874 0.0
C1264 C 0.56153 0.02771 0.74569 0.0
H1265 H 0.56157 0.04355 0.57782 0.0
H1266 H 0.52913 0.99686 0.66302 0.0
C1267 C 0.58989 0.06079 0.7644 0.0
C1268 C 0.95527 0.57686 0.68412 0.0
C1269 C 0.95724 0.59745 0.62782 0.0
H1270 H 0.97971 0.57413 0.77411 0.0
C1271 C 0.98472 0.63311 0.62295 0.0
H1272 H 0.93406 0.54951 0.69 0.0
C1273 C 0.01022 0.64758 0.6722 0.0
C1274 C 0.00923 0.62654 0.72697 0.0
H1275 H 0.98659 0.64994 0.58105 0.0
H1276 H 0.03162 0.67486 0.66546 0.0
C1277 C 0.98116 0.59113 0.73287 0.0
loop_
_geom_bond_atom_site_label_1
_geom_bond_atom_site_label_2
_geom_bond_distance
_geom_bond_site_symmetry_2
_ccdc_geom_bond_type
C0 O12 1.241 . S
C0 O13 1.280 . S
C1 O14 1.277 . S
C1 O15 1.245 . S
C2 O26 1.247 . S
C2 O28 1.289 . S
Mg3 O4 1.926 . S
Mg3 O13 1.984 . S
Mg3 O15 1.988 . S
Mg3 O16 2.061 . S
O4 Mg3 1.926 . S
O4 Mg5 1.986 . S
O4 Mg6 1.917 . S
Mg5 O4 1.986 . S
Mg5 O12 2.042 . S
Mg5 O14 2.041 . S
Mg5 O20 2.038 1_545 S
Mg5 O28 2.238 1_545 S
Mg6 O4 1.917 . S
Mg6 O7 1.917 1_545 S
Mg6 O17 2.106 . S
Mg6 O19 2.079 1_545 S
Mg6 O28 2.106 1_545 S
Mg6 O29 2.079 . S
O7 Mg6 1.917 1_565 S
O7 Mg8 1.926 . S
O7 Mg9 1.986 1_565 S
Mg8 O7 1.926 . S
Mg8 O22 1.984 . S
Mg8 O25 1.988 . S
Mg8 O26 2.061 . S
Mg9 O7 1.986 1_545 S
Mg9 O17 2.238 . S
Mg9 O21 2.042 1_545 S
Mg9 O23 2.041 1_545 S
Mg9 O30 2.038 . S
C10 O16 1.247 . S
C10 O17 1.289 . S
C11 O29 1.245 . S
C11 O30 1.274 . S
O12 C0 1.241 . S
O12 Mg5 2.042 . S
O13 C0 1.280 . S
O13 Mg3 1.984 . S
O14 C1 1.277 . S
O14 Mg5 2.041 . S
O15 C1 1.245 . S
O15 Mg3 1.988 . S
O16 Mg3 2.061 . S
O16 C10 1.247 . S
O17 Mg6 2.106 . S
O17 Mg9 2.238 . S
O17 C10 1.289 . S
C18 O19 1.245 . S
C18 O20 1.274 . S
O19 Mg6 2.079 1_565 S
O19 C18 1.245 . S
O20 Mg5 2.038 1_565 S
O20 C18 1.274 . S
O21 Mg9 2.042 1_565 S
O21 C24 1.241 . S
O22 Mg8 1.984 . S
O22 C24 1.280 . S
O23 Mg9 2.041 1_565 S
O23 C27 1.277 . S
C24 O21 1.241 . S
C24 O22 1.280 . S
O25 Mg8 1.988 . S
O25 C27 1.245 . S
O26 C2 1.247 . S
O26 Mg8 2.061 . S
C27 O23 1.277 . S
C27 O25 1.245 . S
O28 C2 1.289 . S
O28 Mg5 2.238 1_565 S
O28 Mg6 2.106 1_565 S
O29 Mg6 2.079 . S
O29 C11 1.245 . S
O30 Mg9 2.038 . S
O30 C11 1.274 . S
C31 O43 1.241 . S
C31 O44 1.280 . S
C32 O45 1.277 . S
C32 O46 1.245 . S
C33 O57 1.247 . S
C33 O59 1.289 . S
Mg34 O35 1.926 . S
Mg34 O44 1.984 . S
Mg34 O46 1.988 . S
Mg34 O47 2.061 . S
O35 Mg34 1.926 . S
O35 Mg36 1.986 1_655 S
O35 Mg37 1.917 1_655 S
Mg36 O35 1.986 1_455 S
Mg36 O43 2.042 1_455 S
Mg36 O45 2.041 1_455 S
Mg36 O51 2.038 . S
Mg36 O59 2.238 . S
Mg37 O35 1.917 1_455 S
Mg37 O38 1.917 . S
Mg37 O48 2.106 1_455 S
Mg37 O50 2.079 . S
Mg37 O59 2.106 . S
Mg37 O60 2.079 1_455 S
O38 Mg37 1.917 . S
O38 Mg39 1.926 . S
O38 Mg40 1.986 . S
Mg39 O38 1.926 . S
Mg39 O53 1.984 . S
Mg39 O56 1.988 . S
Mg39 O57 2.061 . S
Mg40 O38 1.986 . S
Mg40 O48 2.238 1_455 S
Mg40 O52 2.042 . S
Mg40 O54 2.041 . S
Mg40 O61 2.038 1_455 S
C41 O47 1.247 . S
C41 O48 1.289 . S
C42 O60 1.245 . S
C42 O61 1.274 . S
O43 C31 1.241 . S
O43 Mg36 2.042 1_655 S
O44 C31 1.280 . S
O44 Mg34 1.984 . S
O45 C32 1.277 . S
O45 Mg36 2.041 1_655 S
O46 C32 1.245 . S
O46 Mg34 1.988 . S
O47 Mg34 2.061 . S
O47 C41 1.247 . S
O48 Mg37 2.106 1_655 S
O48 Mg40 2.238 1_655 S
O48 C41 1.289 . S
C49 O50 1.245 . S
C49 O51 1.274 . S
O50 Mg37 2.079 . S
O50 C49 1.245 . S
O51 Mg36 2.038 . S
O51 C49 1.274 . S
O52 Mg40 2.042 . S
O52 C55 1.241 . S
O53 Mg39 1.984 . S
O53 C55 1.280 . S
O54 Mg40 2.041 . S
O54 C58 1.277 . S
C55 O52 1.241 . S
C55 O53 1.280 . S
O56 Mg39 1.988 . S
O56 C58 1.245 . S
O57 C33 1.247 . S
O57 Mg39 2.061 . S
C58 O54 1.277 . S
C58 O56 1.245 . S
O59 C33 1.289 . S
O59 Mg36 2.238 . S
O59 Mg37 2.106 . S
O60 Mg37 2.079 1_655 S
O60 C42 1.245 . S
O61 Mg40 2.038 1_655 S
O61 C42 1.274 . S
C62 O74 1.241 . S
C62 O75 1.280 . S
C63 O76 1.277 . S
C63 O77 1.245 . S
C64 O88 1.247 . S
C64 O90 1.289 . S
Mg65 O66 1.926 . S
Mg65 O75 1.984 . S
Mg65 O77 1.988 . S
Mg65 O78 2.061 . S
O66 Mg65 1.926 . S
O66 Mg67 1.986 . S
O66 Mg68 1.917 . S
Mg67 O66 1.986 . S
Mg67 O74 2.042 . S
Mg67 O76 2.041 . S
Mg67 O82 2.038 . S
Mg67 O90 2.238 . S
Mg68 O66 1.917 . S
Mg68 O69 1.917 . S
Mg68 O79 2.106 . S
Mg68 O81 2.079 . S
Mg68 O90 2.106 . S
Mg68 O91 2.079 . S
O69 Mg68 1.917 . S
O69 Mg70 1.926 . S
O69 Mg71 1.986 . S
Mg70 O69 1.926 . S
Mg70 O84 1.984 . S
Mg70 O87 1.988 . S
Mg70 O88 2.061 . S
Mg71 O69 1.986 . S
Mg71 O79 2.238 . S
Mg71 O83 2.042 . S
Mg71 O85 2.041 . S
Mg71 O92 2.038 . S
C72 O78 1.247 . S
C72 O79 1.289 . S
C73 O91 1.245 . S
C73 O92 1.274 . S
O74 C62 1.241 . S
O74 Mg67 2.042 . S
O75 C62 1.280 . S
O75 Mg65 1.984 . S
O76 C63 1.277 . S
O76 Mg67 2.041 . S
O77 C63 1.245 . S
O77 Mg65 1.988 . S
O78 Mg65 2.061 . S
O78 C72 1.247 . S
O79 Mg68 2.106 . S
O79 Mg71 2.238 . S
O79 C72 1.289 . S
C80 O81 1.245 . S
C80 O82 1.274 . S
O81 Mg68 2.079 . S
O81 C80 1.245 . S
O82 Mg67 2.038 . S
O82 C80 1.274 . S
O83 Mg71 2.042 . S
O83 C86 1.241 . S
O84 Mg70 1.984 . S
O84 C86 1.280 . S
O85 Mg71 2.041 . S
O85 C89 1.277 . S
C86 O83 1.241 . S
C86 O84 1.280 . S
O87 Mg70 1.988 . S
O87 C89 1.245 . S
O88 C64 1.247 . S
O88 Mg70 2.061 . S
C89 O85 1.277 . S
C89 O87 1.245 . S
O90 C64 1.289 . S
O90 Mg67 2.238 . S
O90 Mg68 2.106 . S
O91 Mg68 2.079 . S
O91 C73 1.245 . S
O92 Mg71 2.038 . S
O92 C73 1.274 . S
C93 O105 1.241 . S
C93 O106 1.280 . S
C94 O107 1.277 . S
C94 O108 1.245 . S
C95 O119 1.247 . S
C95 O121 1.289 1_565 S
Mg96 O97 1.926 . S
Mg96 O106 1.984 . S
Mg96 O108 1.988 . S
Mg96 O109 2.061 . S
O97 Mg96 1.926 . S
O97 Mg98 1.986 . S
O97 Mg99 1.917 . S
Mg98 O97 1.986 . S
Mg98 O105 2.042 . S
Mg98 O107 2.041 . S
Mg98 O113 2.038 . S
Mg98 O121 2.238 . S
Mg99 O97 1.917 . S
Mg99 O100 1.917 . S
Mg99 O110 2.106 . S
Mg99 O112 2.079 . S
Mg99 O121 2.106 . S
Mg99 O122 2.079 . S
O100 Mg99 1.917 . S
O100 Mg101 1.926 1_545 S
O100 Mg102 1.986 . S
Mg101 O100 1.926 1_565 S
Mg101 O115 1.984 . S
Mg101 O118 1.988 . S
Mg101 O119 2.061 . S
Mg102 O100 1.986 . S
Mg102 O110 2.238 . S
Mg102 O114 2.042 1_545 S
Mg102 O116 2.041 1_545 S
Mg102 O123 2.038 . S
C103 O109 1.247 . S
C103 O110 1.289 . S
C104 O122 1.245 . S
C104 O123 1.274 . S
O105 C93 1.241 . S
O105 Mg98 2.042 . S
O106 C93 1.280 . S
O106 Mg96 1.984 . S
O107 C94 1.277 . S
O107 Mg98 2.041 . S
O108 C94 1.245 . S
O108 Mg96 1.988 . S
O109 Mg96 2.061 . S
O109 C103 1.247 . S
O110 Mg99 2.106 . S
O110 Mg102 2.238 . S
O110 C103 1.289 . S
C111 O112 1.245 . S
C111 O113 1.274 . S
O112 Mg99 2.079 . S
O112 C111 1.245 . S
O113 Mg98 2.038 . S
O113 C111 1.274 . S
O114 Mg102 2.042 1_565 S
O114 C117 1.241 . S
O115 Mg101 1.984 . S
O115 C117 1.280 . S
O116 Mg102 2.041 1_565 S
O116 C120 1.277 . S
C117 O114 1.241 . S
C117 O115 1.280 . S
O118 Mg101 1.988 . S
O118 C120 1.245 . S
O119 C95 1.247 . S
O119 Mg101 2.061 . S
C120 O116 1.277 . S
C120 O118 1.245 . S
O121 C95 1.289 1_545 S
O121 Mg98 2.238 . S
O121 Mg99 2.106 . S
O122 Mg99 2.079 . S
O122 C104 1.245 . S
O123 Mg102 2.038 . S
O123 C104 1.274 . S
C124 O136 1.241 . S
C124 O137 1.280 . S
C125 O138 1.277 . S
C125 O139 1.245 . S
C126 O150 1.247 . S
C126 O152 1.289 . S
Mg127 O128 1.926 . S
Mg127 O137 1.984 . S
Mg127 O139 1.988 . S
Mg127 O140 2.061 . S
O128 Mg127 1.926 . S
O128 Mg129 1.986 . S
O128 Mg130 1.917 1_655 S
Mg129 O128 1.986 . S
Mg129 O136 2.042 . S
Mg129 O138 2.041 . S
Mg129 O144 2.038 1_655 S
Mg129 O152 2.238 1_655 S
Mg130 O128 1.917 1_455 S
Mg130 O131 1.917 . S
Mg130 O141 2.106 1_455 S
Mg130 O143 2.079 . S
Mg130 O152 2.106 . S
Mg130 O153 2.079 1_455 S
O131 Mg130 1.917 . S
O131 Mg132 1.926 . S
O131 Mg133 1.986 . S
Mg132 O131 1.926 . S
Mg132 O146 1.984 . S
Mg132 O149 1.988 . S
Mg132 O150 2.061 . S
Mg133 O131 1.986 . S
Mg133 O141 2.238 1_455 S
Mg133 O145 2.042 . S
Mg133 O147 2.041 . S
Mg133 O154 2.038 1_455 S
C134 O140 1.247 . S
C134 O141 1.289 . S
C135 O153 1.245 . S
C135 O154 1.274 . S
O136 C124 1.241 . S
O136 Mg129 2.042 . S
O137 C124 1.280 . S
O137 Mg127 1.984 . S
O138 C125 1.277 . S
O138 Mg129 2.041 . S
O139 C125 1.245 . S
O139 Mg127 1.988 . S
O140 Mg127 2.061 . S
O140 C134 1.247 . S
O141 Mg130 2.106 1_655 S
O141 Mg133 2.238 1_655 S
O141 C134 1.289 . S
C142 O143 1.245 . S
C142 O144 1.274 . S
O143 Mg130 2.079 . S
O143 C142 1.245 . S
O144 Mg129 2.038 1_455 S
O144 C142 1.274 . S
O145 Mg133 2.042 . S
O145 C148 1.241 . S
O146 Mg132 1.984 . S
O146 C148 1.280 . S
O147 Mg133 2.041 . S
O147 C151 1.277 . S
C148 O145 1.241 . S
C148 O146 1.280 . S
O149 Mg132 1.988 . S
O149 C151 1.245 . S
O150 C126 1.247 . S
O150 Mg132 2.061 . S
C151 O147 1.277 . S
C151 O149 1.245 . S
O152 C126 1.289 . S
O152 Mg129 2.238 1_455 S
O152 Mg130 2.106 . S
O153 Mg130 2.079 1_655 S
O153 C135 1.245 . S
O154 Mg133 2.038 1_655 S
O154 C135 1.274 . S
C155 O167 1.241 . S
C155 O168 1.280 . S
C156 O169 1.277 . S
C156 O170 1.245 . S
C157 O181 1.247 . S
C157 O183 1.289 . S
Mg158 O159 1.926 . S
Mg158 O168 1.984 . S
Mg158 O170 1.988 . S
Mg158 O171 2.061 . S
O159 Mg158 1.926 . S
O159 Mg160 1.986 . S
O159 Mg161 1.917 . S
Mg160 O159 1.986 . S
Mg160 O167 2.042 . S
Mg160 O169 2.041 . S
Mg160 O175 2.038 . S
Mg160 O183 2.238 . S
Mg161 O159 1.917 . S
Mg161 O162 1.917 . S
Mg161 O172 2.106 . S
Mg161 O174 2.079 . S
Mg161 O183 2.106 . S
Mg161 O184 2.079 . S
O162 Mg161 1.917 . S
O162 Mg163 1.926 . S
O162 Mg164 1.986 . S
Mg163 O162 1.926 . S
Mg163 O177 1.984 . S
Mg163 O180 1.988 . S
Mg163 O181 2.061 . S
Mg164 O162 1.986 . S
Mg164 O172 2.238 . S
Mg164 O176 2.042 . S
Mg164 O178 2.041 . S
Mg164 O185 2.038 . S
C165 O171 1.247 . S
C165 O172 1.289 . S
C166 O184 1.245 . S
C166 O185 1.274 . S
O167 C155 1.241 . S
O167 Mg160 2.042 . S
O168 C155 1.280 . S
O168 Mg158 1.984 . S
O169 C156 1.277 . S
O169 Mg160 2.041 . S
O170 C156 1.245 . S
O170 Mg158 1.988 . S
O171 Mg158 2.061 . S
O171 C165 1.247 . S
O172 Mg161 2.106 . S
O172 Mg164 2.238 . S
O172 C165 1.289 . S
C173 O174 1.245 . S
C173 O175 1.274 . S
O174 Mg161 2.079 . S
O174 C173 1.245 . S
O175 Mg160 2.038 . S
O175 C173 1.274 . S
O176 Mg164 2.042 . S
O176 C179 1.241 . S
O177 Mg163 1.984 . S
O177 C179 1.280 . S
O178 Mg164 2.041 . S
O178 C182 1.277 . S
C179 O176 1.241 . S
C179 O177 1.280 . S
O180 Mg163 1.988 . S
O180 C182 1.245 . S
O181 C157 1.247 . S
O181 Mg163 2.061 . S
C182 O178 1.277 . S
C182 O180 1.245 . S
O183 C157 1.289 . S
O183 Mg160 2.238 . S
O183 Mg161 2.106 . S
O184 Mg161 2.079 . S
O184 C166 1.245 . S
O185 Mg164 2.038 . S
O185 C166 1.274 . S
C186 O198 1.241 . S
C186 O199 1.280 . S
C187 O200 1.277 . S
C187 O201 1.245 . S
C188 O212 1.247 . S
C188 O214 1.289 . S
Mg189 O190 1.926 . S
Mg189 O199 1.984 . S
Mg189 O201 1.988 . S
Mg189 O202 2.061 . S
O190 Mg189 1.926 . S
O190 Mg191 1.986 . S
O190 Mg192 1.917 . S
Mg191 O190 1.986 . S
Mg191 O198 2.042 . S
Mg191 O200 2.041 . S
Mg191 O206 2.038 . S
Mg191 O214 2.238 . S
Mg192 O190 1.917 . S
Mg192 O193 1.917 . S
Mg192 O203 2.106 1_554 S
Mg192 O205 2.079 . S
Mg192 O214 2.106 . S
Mg192 O215 2.079 . S
O193 Mg192 1.917 . S
O193 Mg194 1.926 . S
O193 Mg195 1.986 1_554 S
Mg194 O193 1.926 . S
Mg194 O208 1.984 . S
Mg194 O211 1.988 1_554 S
Mg194 O212 2.061 . S
Mg195 O193 1.986 1_556 S
Mg195 O203 2.238 . S
Mg195 O207 2.042 . S
Mg195 O209 2.041 . S
Mg195 O216 2.038 1_556 S
C196 O202 1.247 1_556 S
C196 O203 1.289 . S
C197 O215 1.245 . S
C197 O216 1.274 . S
O198 C186 1.241 . S
O198 Mg191 2.042 . S
O199 C186 1.280 . S
O199 Mg189 1.984 . S
O200 C187 1.277 . S
O200 Mg191 2.041 . S
O201 C187 1.245 . S
O201 Mg189 1.988 . S
O202 Mg189 2.061 . S
O202 C196 1.247 1_554 S
O203 Mg192 2.106 1_556 S
O203 Mg195 2.238 . S
O203 C196 1.289 . S
C204 O205 1.245 . S
C204 O206 1.274 . S
O205 Mg192 2.079 . S
O205 C204 1.245 . S
O206 Mg191 2.038 . S
O206 C204 1.274 . S
O207 Mg195 2.042 . S
O207 C210 1.241 1_556 S
O208 Mg194 1.984 . S
O208 C210 1.280 . S
O209 Mg195 2.041 . S
O209 C213 1.277 . S
C210 O207 1.241 1_554 S
C210 O208 1.280 . S
O211 Mg194 1.988 1_556 S
O211 C213 1.245 . S
O212 C188 1.247 . S
O212 Mg194 2.061 . S
C213 O209 1.277 . S
C213 O211 1.245 . S
O214 C188 1.289 . S
O214 Mg191 2.238 . S
O214 Mg192 2.106 . S
O215 Mg192 2.079 . S
O215 C197 1.245 . S
O216 Mg195 2.038 1_554 S
O216 C197 1.274 . S
C217 O229 1.241 . S
C217 O230 1.280 . S
C218 O231 1.277 . S
C218 O232 1.245 . S
C219 O243 1.247 . S
C219 O245 1.289 . S
Mg220 O221 1.926 . S
Mg220 O230 1.984 . S
Mg220 O232 1.988 . S
Mg220 O233 2.061 . S
O221 Mg220 1.926 . S
O221 Mg222 1.986 . S
O221 Mg223 1.917 . S
Mg222 O221 1.986 . S
Mg222 O229 2.042 . S
Mg222 O231 2.041 . S
Mg222 O237 2.038 . S
Mg222 O245 2.238 . S
Mg223 O221 1.917 . S
Mg223 O224 1.917 . S
Mg223 O234 2.106 1_554 S
Mg223 O236 2.079 . S
Mg223 O245 2.106 . S
Mg223 O246 2.079 . S
O224 Mg223 1.917 . S
O224 Mg225 1.926 . S
O224 Mg226 1.986 1_554 S
Mg225 O224 1.926 . S
Mg225 O239 1.984 . S
Mg225 O242 1.988 1_554 S
Mg225 O243 2.061 . S
Mg226 O224 1.986 1_556 S
Mg226 O234 2.238 . S
Mg226 O238 2.042 . S
Mg226 O240 2.041 . S
Mg226 O247 2.038 1_556 S
C227 O233 1.247 1_556 S
C227 O234 1.289 . S
C228 O246 1.245 . S
C228 O247 1.274 . S
O229 C217 1.241 . S
O229 Mg222 2.042 . S
O230 C217 1.280 . S
O230 Mg220 1.984 . S
O231 C218 1.277 . S
O231 Mg222 2.041 . S
O232 C218 1.245 . S
O232 Mg220 1.988 . S
O233 Mg220 2.061 . S
O233 C227 1.247 1_554 S
O234 Mg223 2.106 1_556 S
O234 Mg226 2.238 . S
O234 C227 1.289 . S
C235 O236 1.245 . S
C235 O237 1.274 . S
O236 Mg223 2.079 . S
O236 C235 1.245 . S
O237 Mg222 2.038 . S
O237 C235 1.274 . S
O238 Mg226 2.042 . S
O238 C241 1.241 1_556 S
O239 Mg225 1.984 . S
O239 C241 1.280 . S
O240 Mg226 2.041 . S
O240 C244 1.277 . S
C241 O238 1.241 1_554 S
C241 O239 1.280 . S
O242 Mg225 1.988 1_556 S
O242 C244 1.245 . S
O243 C219 1.247 . S
O243 Mg225 2.061 . S
C244 O240 1.277 . S
C244 O242 1.245 . S
O245 C219 1.289 . S
O245 Mg222 2.238 . S
O245 Mg223 2.106 . S
O246 Mg223 2.079 . S
O246 C228 1.245 . S
O247 Mg226 2.038 1_554 S
O247 C228 1.274 . S
C248 O260 1.241 . S
C248 O261 1.280 . S
C249 O262 1.277 . S
C249 O263 1.245 . S
C250 O274 1.247 . S
C250 O276 1.289 . S
Mg251 O252 1.926 . S
Mg251 O261 1.984 . S
Mg251 O263 1.988 . S
Mg251 O264 2.061 . S
O252 Mg251 1.926 . S
O252 Mg253 1.986 . S
O252 Mg254 1.917 . S
Mg253 O252 1.986 . S
Mg253 O260 2.042 . S
Mg253 O262 2.041 . S
Mg253 O268 2.038 . S
Mg253 O276 2.238 . S
Mg254 O252 1.917 . S
Mg254 O255 1.917 . S
Mg254 O265 2.106 1_554 S
Mg254 O267 2.079 . S
Mg254 O276 2.106 . S
Mg254 O277 2.079 . S
O255 Mg254 1.917 . S
O255 Mg256 1.926 . S
O255 Mg257 1.986 1_554 S
Mg256 O255 1.926 . S
Mg256 O270 1.984 . S
Mg256 O273 1.988 1_554 S
Mg256 O274 2.061 . S
Mg257 O255 1.986 1_556 S
Mg257 O265 2.238 . S
Mg257 O269 2.042 . S
Mg257 O271 2.041 . S
Mg257 O278 2.038 1_556 S
C258 O264 1.247 1_556 S
C258 O265 1.289 . S
C259 O277 1.245 . S
C259 O278 1.274 . S
O260 C248 1.241 . S
O260 Mg253 2.042 . S
O261 C248 1.280 . S
O261 Mg251 1.984 . S
O262 C249 1.277 . S
O262 Mg253 2.041 . S
O263 C249 1.245 . S
O263 Mg251 1.988 . S
O264 Mg251 2.061 . S
O264 C258 1.247 1_554 S
O265 Mg254 2.106 1_556 S
O265 Mg257 2.238 . S
O265 C258 1.289 . S
C266 O267 1.245 . S
C266 O268 1.274 . S
O267 Mg254 2.079 . S
O267 C266 1.245 . S
O268 Mg253 2.038 . S
O268 C266 1.274 . S
O269 Mg257 2.042 . S
O269 C272 1.241 1_556 S
O270 Mg256 1.984 . S
O270 C272 1.280 . S
O271 Mg257 2.041 . S
O271 C275 1.277 . S
C272 O269 1.241 1_554 S
C272 O270 1.280 . S
O273 Mg256 1.988 1_556 S
O273 C275 1.245 . S
O274 C250 1.247 . S
O274 Mg256 2.061 . S
C275 O271 1.277 . S
C275 O273 1.245 . S
O276 C250 1.289 . S
O276 Mg253 2.238 . S
O276 Mg254 2.106 . S
O277 Mg254 2.079 . S
O277 C259 1.245 . S
O278 Mg257 2.038 1_554 S
O278 C259 1.274 . S
C279 O291 1.241 . S
C279 O292 1.280 . S
C280 O293 1.277 . S
C280 O294 1.245 . S
C281 O305 1.247 . S
C281 O307 1.289 . S
Mg282 O283 1.926 . S
Mg282 O292 1.984 . S
Mg282 O294 1.988 . S
Mg282 O295 2.061 . S
O283 Mg282 1.926 . S
O283 Mg284 1.986 . S
O283 Mg285 1.917 . S
Mg284 O283 1.986 . S
Mg284 O291 2.042 . S
Mg284 O293 2.041 . S
Mg284 O299 2.038 . S
Mg284 O307 2.238 . S
Mg285 O283 1.917 . S
Mg285 O286 1.917 . S
Mg285 O296 2.106 . S
Mg285 O298 2.079 . S
Mg285 O307 2.106 . S
Mg285 O308 2.079 . S
O286 Mg285 1.917 . S
O286 Mg287 1.926 . S
O286 Mg288 1.986 . S
Mg287 O286 1.926 . S
Mg287 O301 1.984 . S
Mg287 O304 1.988 . S
Mg287 O305 2.061 . S
Mg288 O286 1.986 . S
Mg288 O296 2.238 . S
Mg288 O300 2.042 . S
Mg288 O302 2.041 . S
Mg288 O309 2.038 . S
C289 O295 1.247 . S
C289 O296 1.289 . S
C290 O308 1.245 . S
C290 O309 1.274 . S
O291 C279 1.241 . S
O291 Mg284 2.042 . S
O292 C279 1.280 . S
O292 Mg282 1.984 . S
O293 C280 1.277 . S
O293 Mg284 2.041 . S
O294 C280 1.245 . S
O294 Mg282 1.988 . S
O295 Mg282 2.061 . S
O295 C289 1.247 . S
O296 Mg285 2.106 . S
O296 Mg288 2.238 . S
O296 C289 1.289 . S
C297 O298 1.245 . S
C297 O299 1.274 . S
O298 Mg285 2.079 . S
O298 C297 1.245 . S
O299 Mg284 2.038 . S
O299 C297 1.274 . S
O300 Mg288 2.042 . S
O300 C303 1.241 . S
O301 Mg287 1.984 . S
O301 C303 1.280 . S
O302 Mg288 2.041 . S
O302 C306 1.277 . S
C303 O300 1.241 . S
C303 O301 1.280 . S
O304 Mg287 1.988 . S
O304 C306 1.245 . S
O305 C281 1.247 . S
O305 Mg287 2.061 . S
C306 O302 1.277 . S
C306 O304 1.245 . S
O307 C281 1.289 . S
O307 Mg284 2.238 . S
O307 Mg285 2.106 . S
O308 Mg285 2.079 . S
O308 C290 1.245 . S
O309 Mg288 2.038 . S
O309 C290 1.274 . S
C310 O322 1.241 . S
C310 O323 1.280 . S
C311 O324 1.277 . S
C311 O325 1.245 . S
C312 O336 1.247 . S
C312 O338 1.289 . S
Mg313 O314 1.926 . S
Mg313 O323 1.984 . S
Mg313 O325 1.988 . S
Mg313 O326 2.061 . S
O314 Mg313 1.926 . S
O314 Mg315 1.986 . S
O314 Mg316 1.917 . S
Mg315 O314 1.986 . S
Mg315 O322 2.042 . S
Mg315 O324 2.041 . S
Mg315 O330 2.038 . S
Mg315 O338 2.238 . S
Mg316 O314 1.917 . S
Mg316 O317 1.917 . S
Mg316 O327 2.106 . S
Mg316 O329 2.079 . S
Mg316 O338 2.106 . S
Mg316 O339 2.079 . S
O317 Mg316 1.917 . S
O317 Mg318 1.926 . S
O317 Mg319 1.986 . S
Mg318 O317 1.926 . S
Mg318 O332 1.984 . S
Mg318 O335 1.988 . S
Mg318 O336 2.061 . S
Mg319 O317 1.986 . S
Mg319 O327 2.238 . S
Mg319 O331 2.042 . S
Mg319 O333 2.041 . S
Mg319 O340 2.038 . S
C320 O326 1.247 . S
C320 O327 1.289 . S
C321 O339 1.245 . S
C321 O340 1.274 . S
O322 C310 1.241 . S
O322 Mg315 2.042 . S
O323 C310 1.280 . S
O323 Mg313 1.984 . S
O324 C311 1.277 . S
O324 Mg315 2.041 . S
O325 C311 1.245 . S
O325 Mg313 1.988 . S
O326 Mg313 2.061 . S
O326 C320 1.247 . S
O327 Mg316 2.106 . S
O327 Mg319 2.238 . S
O327 C320 1.289 . S
C328 O329 1.245 . S
C328 O330 1.274 . S
O329 Mg316 2.079 . S
O329 C328 1.245 . S
O330 Mg315 2.038 . S
O330 C328 1.274 . S
O331 Mg319 2.042 . S
O331 C334 1.241 . S
O332 Mg318 1.984 . S
O332 C334 1.280 . S
O333 Mg319 2.041 . S
O333 C337 1.277 . S
C334 O331 1.241 . S
C334 O332 1.280 . S
O335 Mg318 1.988 . S
O335 C337 1.245 . S
O336 C312 1.247 . S
O336 Mg318 2.061 . S
C337 O333 1.277 . S
C337 O335 1.245 . S
O338 C312 1.289 . S
O338 Mg315 2.238 . S
O338 Mg316 2.106 . S
O339 Mg316 2.079 . S
O339 C321 1.245 . S
O340 Mg319 2.038 . S
O340 C321 1.274 . S
C341 O353 1.241 . S
C341 O354 1.280 . S
C342 O355 1.277 . S
C342 O356 1.245 . S
C343 O367 1.247 . S
C343 O369 1.289 . S
Mg344 O345 1.926 . S
Mg344 O354 1.984 . S
Mg344 O356 1.988 . S
Mg344 O357 2.061 . S
O345 Mg344 1.926 . S
O345 Mg346 1.986 . S
O345 Mg347 1.917 . S
Mg346 O345 1.986 . S
Mg346 O353 2.042 . S
Mg346 O355 2.041 . S
Mg346 O361 2.038 . S
Mg346 O369 2.238 . S
Mg347 O345 1.917 . S
Mg347 O348 1.917 . S
Mg347 O358 2.106 . S
Mg347 O360 2.079 . S
Mg347 O369 2.106 . S
Mg347 O370 2.079 . S
O348 Mg347 1.917 . S
O348 Mg349 1.926 . S
O348 Mg350 1.986 . S
Mg349 O348 1.926 . S
Mg349 O363 1.984 . S
Mg349 O366 1.988 . S
Mg349 O367 2.061 . S
Mg350 O348 1.986 . S
Mg350 O358 2.238 . S
Mg350 O362 2.042 . S
Mg350 O364 2.041 . S
Mg350 O371 2.038 . S
C351 O357 1.247 . S
C351 O358 1.289 . S
C352 O370 1.245 . S
C352 O371 1.274 . S
O353 C341 1.241 . S
O353 Mg346 2.042 . S
O354 C341 1.280 . S
O354 Mg344 1.984 . S
O355 C342 1.277 . S
O355 Mg346 2.041 . S
O356 C342 1.245 . S
O356 Mg344 1.988 . S
O357 Mg344 2.061 . S
O357 C351 1.247 . S
O358 Mg347 2.106 . S
O358 Mg350 2.238 . S
O358 C351 1.289 . S
C359 O360 1.245 . S
C359 O361 1.274 . S
O360 Mg347 2.079 . S
O360 C359 1.245 . S
O361 Mg346 2.038 . S
O361 C359 1.274 . S
O362 Mg350 2.042 . S
O362 C365 1.241 . S
O363 Mg349 1.984 . S
O363 C365 1.280 . S
O364 Mg350 2.041 . S
O364 C368 1.277 . S
C365 O362 1.241 . S
C365 O363 1.280 . S
O366 Mg349 1.988 . S
O366 C368 1.245 . S
O367 C343 1.247 . S
O367 Mg349 2.061 . S
C368 O364 1.277 . S
C368 O366 1.245 . S
O369 C343 1.289 . S
O369 Mg346 2.238 . S
O369 Mg347 2.106 . S
O370 Mg347 2.079 . S
O370 C352 1.245 . S
O371 Mg350 2.038 . S
O371 C352 1.274 . S
C372 O384 1.241 . S
C372 O385 1.280 . S
C373 O386 1.277 . S
C373 O387 1.245 . S
C374 O398 1.247 . S
C374 O400 1.289 . S
Mg375 O376 1.926 . S
Mg375 O385 1.984 . S
Mg375 O387 1.988 . S
Mg375 O388 2.061 . S
O376 Mg375 1.926 . S
O376 Mg377 1.986 . S
O376 Mg378 1.917 . S
Mg377 O376 1.986 . S
Mg377 O384 2.042 . S
Mg377 O386 2.041 . S
Mg377 O392 2.038 . S
Mg377 O400 2.238 . S
Mg378 O376 1.917 . S
Mg378 O379 1.917 . S
Mg378 O389 2.106 . S
Mg378 O391 2.079 . S
Mg378 O400 2.106 . S
Mg378 O401 2.079 . S
O379 Mg378 1.917 . S
O379 Mg380 1.926 . S
O379 Mg381 1.986 . S
Mg380 O379 1.926 . S
Mg380 O394 1.984 . S
Mg380 O397 1.988 . S
Mg380 O398 2.061 . S
Mg381 O379 1.986 . S
Mg381 O389 2.238 . S
Mg381 O393 2.042 . S
Mg381 O395 2.041 . S
Mg381 O402 2.038 . S
C382 O388 1.247 . S
C382 O389 1.289 . S
C383 O401 1.245 . S
C383 O402 1.274 . S
O384 C372 1.241 . S
O384 Mg377 2.042 . S
O385 C372 1.280 . S
O385 Mg375 1.984 . S
O386 C373 1.277 . S
O386 Mg377 2.041 . S
O387 C373 1.245 . S
O387 Mg375 1.988 . S
O388 Mg375 2.061 . S
O388 C382 1.247 . S
O389 Mg378 2.106 . S
O389 Mg381 2.238 . S
O389 C382 1.289 . S
C390 O391 1.245 . S
C390 O392 1.274 . S
O391 Mg378 2.079 . S
O391 C390 1.245 . S
O392 Mg377 2.038 . S
O392 C390 1.274 . S
O393 Mg381 2.042 . S
O393 C396 1.241 . S
O394 Mg380 1.984 . S
O394 C396 1.280 . S
O395 Mg381 2.041 . S
O395 C399 1.277 . S
C396 O393 1.241 . S
C396 O394 1.280 . S
O397 Mg380 1.988 . S
O397 C399 1.245 . S
O398 C374 1.247 . S
O398 Mg380 2.061 . S
C399 O395 1.277 . S
C399 O397 1.245 . S
O400 C374 1.289 . S
O400 Mg377 2.238 . S
O400 Mg378 2.106 . S
O401 Mg378 2.079 . S
O401 C383 1.245 . S
O402 Mg381 2.038 . S
O402 C383 1.274 . S
C403 O415 1.241 . S
C403 O416 1.280 . S
C404 O417 1.277 . S
C404 O418 1.245 . S
C405 O429 1.247 . S
C405 O431 1.289 . S
Mg406 O407 1.926 . S
Mg406 O416 1.984 . S
Mg406 O418 1.988 . S
Mg406 O419 2.061 . S
O407 Mg406 1.926 . S
O407 Mg408 1.986 . S
O407 Mg409 1.917 . S
Mg408 O407 1.986 . S
Mg408 O415 2.042 . S
Mg408 O417 2.041 . S
Mg408 O423 2.038 . S
Mg408 O431 2.238 . S
Mg409 O407 1.917 . S
Mg409 O410 1.917 . S
Mg409 O420 2.106 . S
Mg409 O422 2.079 . S
Mg409 O431 2.106 . S
Mg409 O432 2.079 . S
O410 Mg409 1.917 . S
O410 Mg411 1.926 . S
O410 Mg412 1.986 . S
Mg411 O410 1.926 . S
Mg411 O425 1.984 . S
Mg411 O428 1.988 . S
Mg411 O429 2.061 . S
Mg412 O410 1.986 . S
Mg412 O420 2.238 . S
Mg412 O424 2.042 . S
Mg412 O426 2.041 . S
Mg412 O433 2.038 . S
C413 O419 1.247 . S
C413 O420 1.289 . S
C414 O432 1.245 . S
C414 O433 1.274 . S
O415 C403 1.241 . S
O415 Mg408 2.042 . S
O416 C403 1.280 . S
O416 Mg406 1.984 . S
O417 C404 1.277 . S
O417 Mg408 2.041 . S
O418 C404 1.245 . S
O418 Mg406 1.988 . S
O419 Mg406 2.061 . S
O419 C413 1.247 . S
O420 Mg409 2.106 . S
O420 Mg412 2.238 . S
O420 C413 1.289 . S
C421 O422 1.245 . S
C421 O423 1.274 . S
O422 Mg409 2.079 . S
O422 C421 1.245 . S
O423 Mg408 2.038 . S
O423 C421 1.274 . S
O424 Mg412 2.042 . S
O424 C427 1.241 . S
O425 Mg411 1.984 . S
O425 C427 1.280 . S
O426 Mg412 2.041 . S
O426 C430 1.277 . S
C427 O424 1.241 . S
C427 O425 1.280 . S
O428 Mg411 1.988 . S
O428 C430 1.245 . S
O429 C405 1.247 . S
O429 Mg411 2.061 . S
C430 O426 1.277 . S
C430 O428 1.245 . S
O431 C405 1.289 . S
O431 Mg408 2.238 . S
O431 Mg409 2.106 . S
O432 Mg409 2.079 . S
O432 C414 1.245 . S
O433 Mg412 2.038 . S
O433 C414 1.274 . S
C434 O446 1.241 . S
C434 O447 1.280 . S
C435 O448 1.277 . S
C435 O449 1.245 . S
C436 O460 1.247 . S
C436 O462 1.289 . S
Mg437 O438 1.926 . S
Mg437 O447 1.984 . S
Mg437 O449 1.988 . S
Mg437 O450 2.061 . S
O438 Mg437 1.926 . S
O438 Mg439 1.986 . S
O438 Mg440 1.917 . S
Mg439 O438 1.986 . S
Mg439 O446 2.042 . S
Mg439 O448 2.041 . S
Mg439 O454 2.038 . S
Mg439 O462 2.238 . S
Mg440 O438 1.917 . S
Mg440 O441 1.917 . S
Mg440 O451 2.106 . S
Mg440 O453 2.079 . S
Mg440 O462 2.106 . S
Mg440 O463 2.079 . S
O441 Mg440 1.917 . S
O441 Mg442 1.926 . S
O441 Mg443 1.986 . S
Mg442 O441 1.926 . S
Mg442 O456 1.984 . S
Mg442 O459 1.988 . S
Mg442 O460 2.061 . S
Mg443 O441 1.986 . S
Mg443 O451 2.238 . S
Mg443 O455 2.042 . S
Mg443 O457 2.041 . S
Mg443 O464 2.038 . S
C444 O450 1.247 . S
C444 O451 1.289 . S
C445 O463 1.245 . S
C445 O464 1.274 . S
O446 C434 1.241 . S
O446 Mg439 2.042 . S
O447 C434 1.280 . S
O447 Mg437 1.984 . S
O448 C435 1.277 . S
O448 Mg439 2.041 . S
O449 C435 1.245 . S
O449 Mg437 1.988 . S
O450 Mg437 2.061 . S
O450 C444 1.247 . S
O451 Mg440 2.106 . S
O451 Mg443 2.238 . S
O451 C444 1.289 . S
C452 O453 1.245 . S
C452 O454 1.274 . S
O453 Mg440 2.079 . S
O453 C452 1.245 . S
O454 Mg439 2.038 . S
O454 C452 1.274 . S
O455 Mg443 2.042 . S
O455 C458 1.241 . S
O456 Mg442 1.984 . S
O456 C458 1.280 . S
O457 Mg443 2.041 . S
O457 C461 1.277 . S
C458 O455 1.241 . S
C458 O456 1.280 . S
O459 Mg442 1.988 . S
O459 C461 1.245 . S
O460 C436 1.247 . S
O460 Mg442 2.061 . S
C461 O457 1.277 . S
C461 O459 1.245 . S
O462 C436 1.289 . S
O462 Mg439 2.238 . S
O462 Mg440 2.106 . S
O463 Mg440 2.079 . S
O463 C445 1.245 . S
O464 Mg443 2.038 . S
O464 C445 1.274 . S
C465 O477 1.241 1_556 S
C465 O478 1.280 . S
C466 O479 1.277 . S
C466 O480 1.245 . S
C467 O491 1.247 1_554 S
C467 O493 1.289 . S
Mg468 O469 1.926 . S
Mg468 O478 1.984 . S
Mg468 O480 1.988 1_556 S
Mg468 O481 2.061 . S
O469 Mg468 1.926 . S
O469 Mg470 1.986 1_556 S
O469 Mg471 1.917 . S
Mg470 O469 1.986 1_554 S
Mg470 O477 2.042 . S
Mg470 O479 2.041 . S
Mg470 O485 2.038 1_554 S
Mg470 O493 2.238 . S
Mg471 O469 1.917 . S
Mg471 O472 1.917 . S
Mg471 O482 2.106 . S
Mg471 O484 2.079 . S
Mg471 O493 2.106 1_556 S
Mg471 O494 2.079 . S
O472 Mg471 1.917 . S
O472 Mg473 1.926 . S
O472 Mg474 1.986 . S
Mg473 O472 1.926 . S
Mg473 O487 1.984 . S
Mg473 O490 1.988 . S
Mg473 O491 2.061 . S
Mg474 O472 1.986 . S
Mg474 O482 2.238 . S
Mg474 O486 2.042 . S
Mg474 O488 2.041 . S
Mg474 O495 2.038 . S
C475 O481 1.247 . S
C475 O482 1.289 . S
C476 O494 1.245 . S
C476 O495 1.274 . S
O477 C465 1.241 1_554 S
O477 Mg470 2.042 . S
O478 C465 1.280 . S
O478 Mg468 1.984 . S
O479 C466 1.277 . S
O479 Mg470 2.041 . S
O480 C466 1.245 . S
O480 Mg468 1.988 1_554 S
O481 Mg468 2.061 . S
O481 C475 1.247 . S
O482 Mg471 2.106 . S
O482 Mg474 2.238 . S
O482 C475 1.289 . S
C483 O484 1.245 . S
C483 O485 1.274 . S
O484 Mg471 2.079 . S
O484 C483 1.245 . S
O485 Mg470 2.038 1_556 S
O485 C483 1.274 . S
O486 Mg474 2.042 . S
O486 C489 1.241 . S
O487 Mg473 1.984 . S
O487 C489 1.280 . S
O488 Mg474 2.041 . S
O488 C492 1.277 . S
C489 O486 1.241 . S
C489 O487 1.280 . S
O490 Mg473 1.988 . S
O490 C492 1.245 . S
O491 C467 1.247 1_556 S
O491 Mg473 2.061 . S
C492 O488 1.277 . S
C492 O490 1.245 . S
O493 C467 1.289 . S
O493 Mg470 2.238 . S
O493 Mg471 2.106 1_554 S
O494 Mg471 2.079 . S
O494 C476 1.245 . S
O495 Mg474 2.038 . S
O495 C476 1.274 . S
C496 O508 1.241 1_556 S
C496 O509 1.280 . S
C497 O510 1.277 . S
C497 O511 1.245 . S
C498 O522 1.247 1_554 S
C498 O524 1.289 . S
Mg499 O500 1.926 . S
Mg499 O509 1.984 . S
Mg499 O511 1.988 1_556 S
Mg499 O512 2.061 . S
O500 Mg499 1.926 . S
O500 Mg501 1.986 1_556 S
O500 Mg502 1.917 . S
Mg501 O500 1.986 1_554 S
Mg501 O508 2.042 . S
Mg501 O510 2.041 . S
Mg501 O516 2.038 1_554 S
Mg501 O524 2.238 . S
Mg502 O500 1.917 . S
Mg502 O503 1.917 . S
Mg502 O513 2.106 . S
Mg502 O515 2.079 . S
Mg502 O524 2.106 1_556 S
Mg502 O525 2.079 . S
O503 Mg502 1.917 . S
O503 Mg504 1.926 . S
O503 Mg505 1.986 . S
Mg504 O503 1.926 . S
Mg504 O518 1.984 . S
Mg504 O521 1.988 . S
Mg504 O522 2.061 . S
Mg505 O503 1.986 . S
Mg505 O513 2.238 . S
Mg505 O517 2.042 . S
Mg505 O519 2.041 . S
Mg505 O526 2.038 . S
C506 O512 1.247 . S
C506 O513 1.289 . S
C507 O525 1.245 . S
C507 O526 1.274 . S
O508 C496 1.241 1_554 S
O508 Mg501 2.042 . S
O509 C496 1.280 . S
O509 Mg499 1.984 . S
O510 C497 1.277 . S
O510 Mg501 2.041 . S
O511 C497 1.245 . S
O511 Mg499 1.988 1_554 S
O512 Mg499 2.061 . S
O512 C506 1.247 . S
O513 Mg502 2.106 . S
O513 Mg505 2.238 . S
O513 C506 1.289 . S
C514 O515 1.245 . S
C514 O516 1.274 . S
O515 Mg502 2.079 . S
O515 C514 1.245 . S
O516 Mg501 2.038 1_556 S
O516 C514 1.274 . S
O517 Mg505 2.042 . S
O517 C520 1.241 . S
O518 Mg504 1.984 . S
O518 C520 1.280 . S
O519 Mg505 2.041 . S
O519 C523 1.277 . S
C520 O517 1.241 . S
C520 O518 1.280 . S
O521 Mg504 1.988 . S
O521 C523 1.245 . S
O522 C498 1.247 1_556 S
O522 Mg504 2.061 . S
C523 O519 1.277 . S
C523 O521 1.245 . S
O524 C498 1.289 . S
O524 Mg501 2.238 . S
O524 Mg502 2.106 1_554 S
O525 Mg502 2.079 . S
O525 C507 1.245 . S
O526 Mg505 2.038 . S
O526 C507 1.274 . S
C527 O539 1.241 1_556 S
C527 O540 1.280 . S
C528 O541 1.277 . S
C528 O542 1.245 . S
C529 O553 1.247 1_554 S
C529 O555 1.289 . S
Mg530 O531 1.926 . S
Mg530 O540 1.984 . S
Mg530 O542 1.988 1_556 S
Mg530 O543 2.061 . S
O531 Mg530 1.926 . S
O531 Mg532 1.986 1_556 S
O531 Mg533 1.917 . S
Mg532 O531 1.986 1_554 S
Mg532 O539 2.042 . S
Mg532 O541 2.041 . S
Mg532 O547 2.038 1_554 S
Mg532 O555 2.238 . S
Mg533 O531 1.917 . S
Mg533 O534 1.917 . S
Mg533 O544 2.106 . S
Mg533 O546 2.079 . S
Mg533 O555 2.106 1_556 S
Mg533 O556 2.079 . S
O534 Mg533 1.917 . S
O534 Mg535 1.926 . S
O534 Mg536 1.986 . S
Mg535 O534 1.926 . S
Mg535 O549 1.984 . S
Mg535 O552 1.988 . S
Mg535 O553 2.061 . S
Mg536 O534 1.986 . S
Mg536 O544 2.238 . S
Mg536 O548 2.042 . S
Mg536 O550 2.041 . S
Mg536 O557 2.038 . S
C537 O543 1.247 . S
C537 O544 1.289 . S
C538 O556 1.245 . S
C538 O557 1.274 . S
O539 C527 1.241 1_554 S
O539 Mg532 2.042 . S
O540 C527 1.280 . S
O540 Mg530 1.984 . S
O541 C528 1.277 . S
O541 Mg532 2.041 . S
O542 C528 1.245 . S
O542 Mg530 1.988 1_554 S
O543 Mg530 2.061 . S
O543 C537 1.247 . S
O544 Mg533 2.106 . S
O544 Mg536 2.238 . S
O544 C537 1.289 . S
C545 O546 1.245 . S
C545 O547 1.274 . S
O546 Mg533 2.079 . S
O546 C545 1.245 . S
O547 Mg532 2.038 1_556 S
O547 C545 1.274 . S
O548 Mg536 2.042 . S
O548 C551 1.241 . S
O549 Mg535 1.984 . S
O549 C551 1.280 . S
O550 Mg536 2.041 . S
O550 C554 1.277 . S
C551 O548 1.241 . S
C551 O549 1.280 . S
O552 Mg535 1.988 . S
O552 C554 1.245 . S
O553 C529 1.247 1_556 S
O553 Mg535 2.061 . S
C554 O550 1.277 . S
C554 O552 1.245 . S
O555 C529 1.289 . S
O555 Mg532 2.238 . S
O555 Mg533 2.106 1_554 S
O556 Mg533 2.079 . S
O556 C538 1.245 . S
O557 Mg536 2.038 . S
O557 C538 1.274 . S
C558 C559 1.387 . S
C558 H562 0.950 . S
C558 C567 1.390 . S
C559 C558 1.387 . S
C559 C561 1.387 . S
H560 C567 0.950 . S
C561 C559 1.387 . S
C561 C563 1.390 . S
C561 H565 0.950 . S
H562 C558 0.950 . S
C563 C561 1.390 . S
C563 C564 1.387 . S
C563 H566 0.950 . S
C564 C563 1.387 . S
C564 C567 1.387 . S
H565 C561 0.950 . S
H566 C563 0.950 . S
C567 C558 1.390 . S
C567 H560 0.950 . S
C567 C564 1.387 . S
C568 C569 1.387 . S
C568 H572 0.950 . S
C568 C577 1.390 . S
C569 C568 1.387 . S
C569 C571 1.387 . S
H570 C577 0.950 . S
C571 C569 1.387 . S
C571 C573 1.390 . S
C571 H575 0.950 . S
H572 C568 0.950 . S
C573 C571 1.390 . S
C573 C574 1.387 . S
C573 H576 0.950 . S
C574 C573 1.387 . S
C574 C577 1.387 . S
H575 C571 0.950 . S
H576 C573 0.950 . S
C577 C568 1.390 . S
C577 H570 0.950 . S
C577 C574 1.387 . S
C578 C579 1.387 . S
C578 H582 0.950 . S
C578 C587 1.390 . S
C579 C578 1.387 . S
C579 C581 1.387 . S
H580 C587 0.950 . S
C581 C579 1.387 . S
C581 C583 1.390 1_655 S
C581 H585 0.950 . S
H582 C578 0.950 . S
C583 C581 1.390 1_455 S
C583 C584 1.387 . S
C583 H586 0.950 . S
C584 C583 1.387 . S
C584 C587 1.387 1_455 S
H585 C581 0.950 . S
H586 C583 0.950 . S
C587 C578 1.390 . S
C587 H580 0.950 . S
C587 C584 1.387 1_655 S
C588 C589 1.387 . S
C588 H592 0.950 . S
C588 C597 1.390 . S
C589 C588 1.387 . S
C589 C591 1.387 . S
H590 C597 0.950 . S
C591 C589 1.387 . S
C591 C593 1.390 . S
C591 H595 0.950 . S
H592 C588 0.950 . S
C593 C591 1.390 . S
C593 C594 1.387 . S
C593 H596 0.950 1_565 S
C594 C593 1.387 . S
C594 C597 1.387 . S
H595 C591 0.950 . S
H596 C593 0.950 1_545 S
C597 C588 1.390 . S
C597 H590 0.950 . S
C597 C594 1.387 . S
C598 C599 1.387 . S
C598 H602 0.950 . S
C598 C607 1.390 1_545 S
C599 C598 1.387 . S
C599 C601 1.387 . S
H600 C607 0.950 . S
C601 C599 1.387 . S
C601 C603 1.390 1_545 S
C601 H605 0.950 . S
H602 C598 0.950 . S
C603 C601 1.390 1_565 S
C603 C604 1.387 . S
C603 H606 0.950 . S
C604 C603 1.387 . S
C604 C607 1.387 . S
H605 C601 0.950 . S
H606 C603 0.950 . S
C607 C598 1.390 1_565 S
C607 H600 0.950 . S
C607 C604 1.387 . S
C608 C609 1.387 . S
C608 H612 0.950 . S
C608 C617 1.390 . S
C609 C608 1.387 . S
C609 C611 1.387 . S
H610 C617 0.950 . S
C611 C609 1.387 . S
C611 C613 1.390 . S
C611 H615 0.950 . S
H612 C608 0.950 . S
C613 C611 1.390 . S
C613 C614 1.387 . S
C613 H616 0.950 1_455 S
C614 C613 1.387 . S
C614 C617 1.387 . S
H615 C611 0.950 . S
H616 C613 0.950 1_655 S
C617 C608 1.390 . S
C617 H610 0.950 . S
C617 C614 1.387 . S
C618 C619 1.387 . S
C618 H622 0.950 . S
C618 C627 1.390 . S
C619 C618 1.387 . S
C619 C621 1.387 . S
H620 C627 0.950 . S
C621 C619 1.387 . S
C621 C623 1.390 . S
C621 H625 0.950 . S
H622 C618 0.950 . S
C623 C621 1.390 . S
C623 C624 1.387 . S
C623 H626 0.950 . S
C624 C623 1.387 . S
C624 C627 1.387 . S
H625 C621 0.950 . S
H626 C623 0.950 . S
C627 C618 1.390 . S
C627 H620 0.950 . S
C627 C624 1.387 . S
C628 C629 1.387 . S
C628 H632 0.950 . S
C628 C637 1.390 . S
C629 C628 1.387 . S
C629 C631 1.387 . S
H630 C637 0.950 . S
C631 C629 1.387 . S
C631 C633 1.390 . S
C631 H635 0.950 . S
H632 C628 0.950 . S
C633 C631 1.390 . S
C633 C634 1.387 . S
C633 H636 0.950 1_554 S
C634 C633 1.387 . S
C634 C637 1.387 . S
H635 C631 0.950 . S
H636 C633 0.950 1_556 S
C637 C628 1.390 . S
C637 H630 0.950 . S
C637 C634 1.387 . S
C638 C639 1.387 . S
C638 H642 0.950 . S
C638 C647 1.390 . S
C639 C638 1.387 . S
C639 C641 1.387 . S
H640 C647 0.950 . S
C641 C639 1.387 . S
C641 C643 1.390 . S
C641 H645 0.950 1_554 S
H642 C638 0.950 . S
C643 C641 1.390 . S
C643 C644 1.387 . S
C643 H646 0.950 . S
C644 C643 1.387 . S
C644 C647 1.387 . S
H645 C641 0.950 1_556 S
H646 C643 0.950 . S
C647 C638 1.390 . S
C647 H640 0.950 . S
C647 C644 1.387 . S
C648 C649 1.387 . S
C648 H652 0.950 . S
C648 C657 1.390 . S
C649 C648 1.387 . S
C649 C651 1.387 . S
H650 C657 0.950 . S
C651 C649 1.387 . S
C651 C653 1.390 . S
C651 H655 0.950 . S
H652 C648 0.950 . S
C653 C651 1.390 . S
C653 C654 1.387 . S
C653 H656 0.950 . S
C654 C653 1.387 . S
C654 C657 1.387 . S
H655 C651 0.950 . S
H656 C653 0.950 . S
C657 C648 1.390 . S
C657 H650 0.950 . S
C657 C654 1.387 . S
C658 C659 1.387 . S
C658 H662 0.950 . S
C658 C667 1.390 . S
C659 C658 1.387 . S
C659 C661 1.387 . S
H660 C667 0.950 . S
C661 C659 1.387 . S
C661 C663 1.390 . S
C661 H665 0.950 . S
H662 C658 0.950 . S
C663 C661 1.390 . S
C663 C664 1.387 . S
C663 H666 0.950 . S
C664 C663 1.387 . S
C664 C667 1.387 . S
H665 C661 0.950 . S
H666 C663 0.950 . S
C667 C658 1.390 . S
C667 H660 0.950 . S
C667 C664 1.387 . S
C668 C669 1.387 . S
C668 H672 0.950 . S
C668 C677 1.390 . S
C669 C668 1.387 . S
C669 C671 1.387 . S
H670 C677 0.950 . S
C671 C669 1.387 . S
C671 C673 1.390 . S
C671 H675 0.950 . S
H672 C668 0.950 . S
C673 C671 1.390 . S
C673 C674 1.387 . S
C673 H676 0.950 . S
C674 C673 1.387 . S
C674 C677 1.387 . S
H675 C671 0.950 . S
H676 C673 0.950 . S
C677 C668 1.390 . S
C677 H670 0.950 . S
C677 C674 1.387 . S
C678 C679 1.387 . S
C678 H682 0.950 . S
C678 C687 1.390 . S
C679 C678 1.387 . S
C679 C681 1.387 . S
H680 C687 0.950 . S
C681 C679 1.387 . S
C681 C683 1.390 . S
C681 H685 0.950 . S
H682 C678 0.950 . S
C683 C681 1.390 . S
C683 C684 1.387 . S
C683 H686 0.950 . S
C684 C683 1.387 . S
C684 C687 1.387 . S
H685 C681 0.950 . S
H686 C683 0.950 . S
C687 C678 1.390 . S
C687 H680 0.950 . S
C687 C684 1.387 . S
C688 C689 1.387 . S
C688 H692 0.950 . S
C688 C697 1.390 . S
C689 C688 1.387 . S
C689 C691 1.387 . S
H690 C697 0.950 . S
C691 C689 1.387 . S
C691 C693 1.390 . S
C691 H695 0.950 . S
H692 C688 0.950 . S
C693 C691 1.390 . S
C693 C694 1.387 . S
C693 H696 0.950 . S
C694 C693 1.387 . S
C694 C697 1.387 . S
H695 C691 0.950 . S
H696 C693 0.950 . S
C697 C688 1.390 . S
C697 H690 0.950 . S
C697 C694 1.387 . S
C698 C699 1.387 . S
C698 H702 0.950 . S
C698 C707 1.390 . S
C699 C698 1.387 . S
C699 C701 1.387 . S
H700 C707 0.950 . S
C701 C699 1.387 . S
C701 C703 1.390 . S
C701 H705 0.950 . S
H702 C698 0.950 . S
C703 C701 1.390 . S
C703 C704 1.387 . S
C703 H706 0.950 . S
C704 C703 1.387 . S
C704 C707 1.387 . S
H705 C701 0.950 . S
H706 C703 0.950 . S
C707 C698 1.390 . S
C707 H700 0.950 . S
C707 C704 1.387 . S
C708 C709 1.387 . S
C708 H712 0.950 1_556 S
C708 C717 1.390 . S
C709 C708 1.387 . S
C709 C711 1.387 . S
H710 C717 0.950 . S
C711 C709 1.387 . S
C711 C713 1.390 . S
C711 H715 0.950 . S
H712 C708 0.950 1_554 S
C713 C711 1.390 . S
C713 C714 1.387 . S
C713 H716 0.950 . S
C714 C713 1.387 . S
C714 C717 1.387 . S
H715 C711 0.950 . S
H716 C713 0.950 . S
C717 C708 1.390 . S
C717 H710 0.950 . S
C717 C714 1.387 . S
C718 C719 1.387 . S
C718 H722 0.950 . S
C718 C727 1.390 . S
C719 C718 1.387 . S
C719 C721 1.387 . S
H720 C727 0.950 . S
C721 C719 1.387 . S
C721 C723 1.390 . S
C721 H725 0.950 . S
H722 C718 0.950 . S
C723 C721 1.390 . S
C723 C724 1.387 . S
C723 H726 0.950 1_556 S
C724 C723 1.387 . S
C724 C727 1.387 . S
H725 C721 0.950 . S
H726 C723 0.950 1_554 S
C727 C718 1.390 . S
C727 H720 0.950 . S
C727 C724 1.387 . S
C728 C729 1.387 . S
C728 H732 0.950 . S
C728 C737 1.390 . S
C729 C728 1.387 . S
C729 C731 1.387 . S
H730 C737 0.950 . S
C731 C729 1.387 . S
C731 C733 1.390 . S
C731 H735 0.950 . S
H732 C728 0.950 . S
C733 C731 1.390 . S
C733 C734 1.387 . S
C733 H736 0.950 . S
C734 C733 1.387 . S
C734 C737 1.387 . S
H735 C731 0.950 . S
H736 C733 0.950 . S
C737 C728 1.390 . S
C737 H730 0.950 . S
C737 C734 1.387 . S
C738 C739 1.387 . S
C738 H742 0.950 . S
C738 C747 1.390 . S
C739 C738 1.387 . S
C739 C741 1.387 . S
H740 C747 0.950 . S
C741 C739 1.387 . S
C741 C743 1.390 . S
C741 H745 0.950 . S
H742 C738 0.950 . S
C743 C741 1.390 . S
C743 C744 1.387 . S
C743 H746 0.950 . S
C744 C743 1.387 . S
C744 C747 1.387 . S
H745 C741 0.950 . S
H746 C743 0.950 . S
C747 C738 1.390 . S
C747 H740 0.950 . S
C747 C744 1.387 . S
C748 C749 1.387 . S
C748 H752 0.950 . S
C748 C757 1.390 . S
C749 C748 1.387 . S
C749 C751 1.387 . S
H750 C757 0.950 . S
C751 C749 1.387 . S
C751 C753 1.390 . S
C751 H755 0.950 . S
H752 C748 0.950 . S
C753 C751 1.390 . S
C753 C754 1.387 . S
C753 H756 0.950 . S
C754 C753 1.387 . S
C754 C757 1.387 . S
H755 C751 0.950 . S
H756 C753 0.950 . S
C757 C748 1.390 . S
C757 H750 0.950 . S
C757 C754 1.387 . S
C758 C759 1.387 . S
C758 H762 0.950 . S
C758 C767 1.390 . S
C759 C758 1.387 . S
C759 C761 1.387 . S
H760 C767 0.950 . S
C761 C759 1.387 . S
C761 C763 1.390 . S
C761 H765 0.950 . S
H762 C758 0.950 . S
C763 C761 1.390 . S
C763 C764 1.387 . S
C763 H766 0.950 . S
C764 C763 1.387 . S
C764 C767 1.387 . S
H765 C761 0.950 . S
H766 C763 0.950 . S
C767 C758 1.390 . S
C767 H760 0.950 . S
C767 C764 1.387 . S
C768 C769 1.387 . S
C768 H772 0.950 . S
C768 C777 1.390 . S
C769 C768 1.387 . S
C769 C771 1.387 . S
H770 C777 0.950 1_554 S
C771 C769 1.387 . S
C771 C773 1.390 . S
C771 H775 0.950 . S
H772 C768 0.950 . S
C773 C771 1.390 . S
C773 C774 1.387 1_556 S
C773 H776 0.950 1_556 S
C774 C773 1.387 1_554 S
C774 C777 1.387 1_554 S
H775 C771 0.950 . S
H776 C773 0.950 1_554 S
C777 C768 1.390 . S
C777 H770 0.950 1_556 S
C777 C774 1.387 1_556 S
C778 C779 1.387 . S
C778 H782 0.950 . S
C778 C787 1.390 1_554 S
C779 C778 1.387 . S
C779 C781 1.387 1_554 S
H780 C787 0.950 1_554 S
C781 C779 1.387 1_556 S
C781 C783 1.390 . S
C781 H785 0.950 . S
H782 C778 0.950 . S
C783 C781 1.390 . S
C783 C784 1.387 . S
C783 H786 0.950 . S
C784 C783 1.387 . S
C784 C787 1.387 . S
H785 C781 0.950 . S
H786 C783 0.950 . S
C787 C778 1.390 1_556 S
C787 H780 0.950 1_556 S
C787 C784 1.387 . S
C788 C789 1.387 . S
C788 H792 0.950 . S
C788 C797 1.390 . S
C789 C788 1.387 . S
C789 C791 1.387 . S
H790 C797 0.950 . S
C791 C789 1.387 . S
C791 C793 1.390 1_556 S
C791 H795 0.950 . S
H792 C788 0.950 . S
C793 C791 1.390 1_554 S
C793 C794 1.387 . S
C793 H796 0.950 . S
C794 C793 1.387 . S
C794 C797 1.387 1_554 S
H795 C791 0.950 . S
H796 C793 0.950 . S
C797 C788 1.390 . S
C797 H790 0.950 . S
C797 C794 1.387 1_556 S
C798 C799 1.387 . S
C798 H802 0.950 . S
C798 C807 1.390 . S
C799 C798 1.387 . S
C799 C801 1.387 . S
H800 C807 0.950 . S
C801 C799 1.387 . S
C801 C803 1.390 . S
C801 H805 0.950 . S
H802 C798 0.950 . S
C803 C801 1.390 . S
C803 C804 1.387 . S
C803 H806 0.950 . S
C804 C803 1.387 . S
C804 C807 1.387 . S
H805 C801 0.950 . S
H806 C803 0.950 . S
C807 C798 1.390 . S
C807 H800 0.950 . S
C807 C804 1.387 . S
C808 C809 1.387 . S
C808 H812 0.950 . S
C808 C817 1.390 . S
C809 C808 1.387 . S
C809 C811 1.387 . S
H810 C817 0.950 . S
C811 C809 1.387 . S
C811 C813 1.390 . S
C811 H815 0.950 . S
H812 C808 0.950 . S
C813 C811 1.390 . S
C813 C814 1.387 . S
C813 H816 0.950 . S
C814 C813 1.387 . S
C814 C817 1.387 . S
H815 C811 0.950 . S
H816 C813 0.950 . S
C817 C808 1.390 . S
C817 H810 0.950 . S
C817 C814 1.387 . S
C818 C819 1.387 . S
C818 H822 0.950 . S
C818 C827 1.390 . S
C819 C818 1.387 . S
C819 C821 1.387 . S
H820 C827 0.950 . S
C821 C819 1.387 . S
C821 C823 1.390 . S
C821 H825 0.950 . S
H822 C818 0.950 . S
C823 C821 1.390 . S
C823 C824 1.387 . S
C823 H826 0.950 . S
C824 C823 1.387 . S
C824 C827 1.387 . S
H825 C821 0.950 . S
H826 C823 0.950 . S
C827 C818 1.390 . S
C827 H820 0.950 . S
C827 C824 1.387 . S
C828 C829 1.387 . S
C828 H832 0.950 . S
C828 C837 1.390 . S
C829 C828 1.387 . S
C829 C831 1.387 . S
H830 C837 0.950 . S
C831 C829 1.387 . S
C831 C833 1.390 1_554 S
C831 H835 0.950 . S
H832 C828 0.950 . S
C833 C831 1.390 1_556 S
C833 C834 1.387 . S
C833 H836 0.950 . S
C834 C833 1.387 . S
C834 C837 1.387 1_556 S
H835 C831 0.950 . S
H836 C833 0.950 . S
C837 C828 1.390 . S
C837 H830 0.950 . S
C837 C834 1.387 1_554 S
C838 C839 1.387 . S
C838 H842 0.950 . S
C838 C847 1.390 . S
C839 C838 1.387 . S
C839 C841 1.387 . S
H840 C847 0.950 . S
C841 C839 1.387 . S
C841 C843 1.390 1_554 S
C841 H845 0.949 1_554 S
H842 C838 0.950 . S
C843 C841 1.390 1_556 S
C843 C844 1.387 . S
C843 H846 0.950 . S
C844 C843 1.387 . S
C844 C847 1.387 1_556 S
H845 C841 0.949 1_556 S
H846 C843 0.950 . S
C847 C838 1.390 . S
C847 H840 0.950 . S
C847 C844 1.387 1_554 S
C848 C849 1.387 . S
C848 H852 0.950 . S
C848 C857 1.390 1_556 S
C849 C848 1.387 . S
C849 C851 1.387 1_556 S
H850 C857 0.950 1_556 S
C851 C849 1.387 1_554 S
C851 C853 1.390 . S
C851 H855 0.950 . S
H852 C848 0.950 . S
C853 C851 1.390 . S
C853 C854 1.387 . S
C853 H856 0.950 . S
C854 C853 1.387 . S
C854 C857 1.387 . S
H855 C851 0.950 . S
H856 C853 0.950 . S
C857 C848 1.390 1_554 S
C857 H850 0.950 1_554 S
C857 C854 1.387 . S
C858 C859 1.387 . S
C858 H862 0.950 . S
C858 C867 1.390 . S
C859 C858 1.387 . S
C859 C861 1.387 . S
H860 C867 0.950 . S
C861 C859 1.387 . S
C861 C863 1.390 . S
C861 H865 0.950 . S
H862 C858 0.950 . S
C863 C861 1.390 . S
C863 C864 1.387 . S
C863 H866 0.950 . S
C864 C863 1.387 . S
C864 C867 1.387 . S
H865 C861 0.950 . S
H866 C863 0.950 . S
C867 C858 1.390 . S
C867 H860 0.950 . S
C867 C864 1.387 . S
C868 C869 1.387 . S
C868 H872 0.950 . S
C868 C877 1.390 . S
C869 C868 1.387 . S
C869 C871 1.387 . S
H870 C877 0.950 . S
C871 C869 1.387 . S
C871 C873 1.390 . S
C871 H875 0.950 . S
H872 C868 0.950 . S
C873 C871 1.390 . S
C873 C874 1.387 . S
C873 H876 0.950 . S
C874 C873 1.387 . S
C874 C877 1.387 . S
H875 C871 0.950 . S
H876 C873 0.950 . S
C877 C868 1.390 . S
C877 H870 0.950 . S
C877 C874 1.387 . S
C878 C879 1.387 . S
C878 H882 0.950 . S
C878 C887 1.390 . S
C879 C878 1.387 . S
C879 C881 1.387 . S
H880 C887 0.950 . S
C881 C879 1.387 . S
C881 C883 1.390 . S
C881 H885 0.950 . S
H882 C878 0.950 . S
C883 C881 1.390 . S
C883 C884 1.387 . S
C883 H886 0.950 . S
C884 C883 1.387 . S
C884 C887 1.387 . S
H885 C881 0.950 . S
H886 C883 0.950 . S
C887 C878 1.390 . S
C887 H880 0.950 . S
C887 C884 1.387 . S
C888 C889 1.387 . S
C888 H892 0.950 . S
C888 C897 1.390 . S
C889 C888 1.387 . S
C889 C891 1.387 . S
H890 C897 0.950 . S
C891 C889 1.387 . S
C891 C893 1.390 . S
C891 H895 0.950 . S
H892 C888 0.950 . S
C893 C891 1.390 . S
C893 C894 1.387 . S
C893 H896 0.950 . S
C894 C893 1.387 . S
C894 C897 1.387 . S
H895 C891 0.950 . S
H896 C893 0.950 . S
C897 C888 1.390 . S
C897 H890 0.950 . S
C897 C894 1.387 . S
C898 C899 1.387 . S
C898 H902 0.950 . S
C898 C907 1.390 . S
C899 C898 1.387 . S
C899 C901 1.387 . S
H900 C907 0.950 . S
C901 C899 1.387 . S
C901 C903 1.390 . S
C901 H905 0.950 . S
H902 C898 0.950 . S
C903 C901 1.390 . S
C903 C904 1.387 . S
C903 H906 0.950 . S
C904 C903 1.387 . S
C904 C907 1.387 . S
H905 C901 0.950 . S
H906 C903 0.950 . S
C907 C898 1.390 . S
C907 H900 0.950 . S
C907 C904 1.387 . S
C908 C909 1.387 . S
C908 H912 0.950 . S
C908 C917 1.390 . S
C909 C908 1.387 . S
C909 C911 1.387 . S
H910 C917 0.950 . S
C911 C909 1.387 . S
C911 C913 1.390 . S
C911 H915 0.950 . S
H912 C908 0.950 . S
C913 C911 1.390 . S
C913 C914 1.387 . S
C913 H916 0.950 . S
C914 C913 1.387 . S
C914 C917 1.387 . S
H915 C911 0.950 . S
H916 C913 0.950 . S
C917 C908 1.390 . S
C917 H910 0.950 . S
C917 C914 1.387 . S
C918 C919 1.387 . S
C918 H922 0.950 . S
C918 C927 1.390 . S
C919 C918 1.387 . S
C919 C921 1.387 . S
H920 C927 0.950 . S
C921 C919 1.387 . S
C921 C923 1.390 . S
C921 H925 0.950 . S
H922 C918 0.950 . S
C923 C921 1.390 . S
C923 C924 1.387 . S
C923 H926 0.950 . S
C924 C923 1.387 . S
C924 C927 1.387 . S
H925 C921 0.950 . S
H926 C923 0.950 . S
C927 C918 1.390 . S
C927 H920 0.950 . S
C927 C924 1.387 . S
C928 C929 1.387 . S
C928 H932 0.950 . S
C928 C937 1.390 . S
C929 C928 1.387 . S
C929 C931 1.387 . S
H930 C937 0.950 . S
C931 C929 1.387 . S
C931 C933 1.390 . S
C931 H935 0.950 . S
H932 C928 0.950 . S
C933 C931 1.390 . S
C933 C934 1.387 . S
C933 H936 0.950 . S
C934 C933 1.387 . S
C934 C937 1.387 . S
H935 C931 0.950 . S
H936 C933 0.950 . S
C937 C928 1.390 . S
C937 H930 0.950 . S
C937 C934 1.387 . S
C938 C939 1.387 . S
C938 H942 0.950 . S
C938 C947 1.390 . S
C939 C938 1.387 . S
C939 C941 1.387 . S
H940 C947 0.950 . S
C941 C939 1.387 . S
C941 C943 1.390 . S
C941 H945 0.950 . S
H942 C938 0.950 . S
C943 C941 1.390 . S
C943 C944 1.387 . S
C943 H946 0.950 . S
C944 C943 1.387 . S
C944 C947 1.387 . S
H945 C941 0.950 . S
H946 C943 0.950 . S
C947 C938 1.390 . S
C947 H940 0.950 . S
C947 C944 1.387 . S
C948 C949 1.387 . S
C948 H952 0.950 . S
C948 C957 1.390 . S
C949 C948 1.387 . S
C949 C951 1.387 . S
H950 C957 0.950 . S
C951 C949 1.387 . S
C951 C953 1.390 . S
C951 H955 0.950 . S
H952 C948 0.950 . S
C953 C951 1.390 . S
C953 C954 1.387 . S
C953 H956 0.950 . S
C954 C953 1.387 . S
C954 C957 1.387 . S
H955 C951 0.950 . S
H956 C953 0.950 . S
C957 C948 1.390 . S
C957 H950 0.950 . S
C957 C954 1.387 . S
C958 C959 1.387 . S
C958 H962 0.950 . S
C958 C967 1.390 . S
C959 C958 1.387 . S
C959 C961 1.387 . S
H960 C967 0.950 . S
C961 C959 1.387 . S
C961 C963 1.390 . S
C961 H965 0.950 . S
H962 C958 0.950 . S
C963 C961 1.390 . S
C963 C964 1.387 . S
C963 H966 0.950 . S
C964 C963 1.387 . S
C964 C967 1.387 . S
H965 C961 0.950 . S
H966 C963 0.950 . S
C967 C958 1.390 . S
C967 H960 0.950 . S
C967 C964 1.387 . S
C968 C969 1.387 . S
C968 H972 0.950 . S
C968 C977 1.390 . S
C969 C968 1.387 . S
C969 C971 1.387 . S
H970 C977 0.950 . S
C971 C969 1.387 . S
C971 C973 1.390 . S
C971 H975 0.950 . S
H972 C968 0.950 . S
C973 C971 1.390 . S
C973 C974 1.387 . S
C973 H976 0.950 . S
C974 C973 1.387 . S
C974 C977 1.387 . S
H975 C971 0.950 . S
H976 C973 0.950 . S
C977 C968 1.390 . S
C977 H970 0.950 . S
C977 C974 1.387 . S
C978 C979 1.387 . S
C978 H982 0.950 . S
C978 C987 1.390 . S
C979 C978 1.387 . S
C979 C981 1.387 . S
H980 C987 0.950 . S
C981 C979 1.387 . S
C981 C983 1.390 . S
C981 H985 0.950 . S
H982 C978 0.950 . S
C983 C981 1.390 . S
C983 C984 1.387 . S
C983 H986 0.950 . S
C984 C983 1.387 . S
C984 C987 1.387 . S
H985 C981 0.950 . S
H986 C983 0.950 . S
C987 C978 1.390 . S
C987 H980 0.950 . S
C987 C984 1.387 . S
C988 C989 1.387 . S
C988 H992 0.950 . S
C988 C997 1.390 . S
C989 C988 1.387 . S
C989 C991 1.387 . S
H990 C997 0.950 . S
C991 C989 1.387 . S
C991 C993 1.390 . S
C991 H995 0.950 . S
H992 C988 0.950 . S
C993 C991 1.390 . S
C993 C994 1.387 . S
C993 H996 0.950 . S
C994 C993 1.387 . S
C994 C997 1.387 . S
H995 C991 0.950 . S
H996 C993 0.950 . S
C997 C988 1.390 . S
C997 H990 0.950 . S
C997 C994 1.387 . S
C998 C999 1.387 . S
C998 H1002 0.950 . S
C998 C1007 1.390 . S
C999 C998 1.387 . S
C999 C1001 1.387 . S
H1000 C1007 0.950 . S
C1001 C999 1.387 . S
C1001 C1003 1.390 . S
C1001 H1005 0.950 . S
H1002 C998 0.950 . S
C1003 C1001 1.390 . S
C1003 C1004 1.387 . S
C1003 H1006 0.950 . S
C1004 C1003 1.387 . S
C1004 C1007 1.387 . S
H1005 C1001 0.950 . S
H1006 C1003 0.950 . S
C1007 C998 1.390 . S
C1007 H1000 0.950 . S
C1007 C1004 1.387 . S
C1008 C1009 1.387 . S
C1008 H1012 0.950 . S
C1008 C1017 1.390 . S
C1009 C1008 1.387 . S
C1009 C1011 1.387 . S
H1010 C1017 0.950 . S
C1011 C1009 1.387 . S
C1011 C1013 1.390 . S
C1011 H1015 0.950 . S
H1012 C1008 0.950 . S
C1013 C1011 1.390 . S
C1013 C1014 1.387 . S
C1013 H1016 0.950 . S
C1014 C1013 1.387 . S
C1014 C1017 1.387 . S
H1015 C1011 0.950 . S
H1016 C1013 0.950 . S
C1017 C1008 1.390 . S
C1017 H1010 0.950 . S
C1017 C1014 1.387 . S
C1018 C1019 1.387 . S
C1018 H1022 0.950 . S
C1018 C1027 1.390 . S
C1019 C1018 1.387 . S
C1019 C1021 1.387 . S
H1020 C1027 0.950 . S
C1021 C1019 1.387 . S
C1021 C1023 1.390 . S
C1021 H1025 0.950 . S
H1022 C1018 0.950 . S
C1023 C1021 1.390 . S
C1023 C1024 1.387 . S
C1023 H1026 0.950 . S
C1024 C1023 1.387 . S
C1024 C1027 1.387 . S
H1025 C1021 0.950 . S
H1026 C1023 0.950 . S
C1027 C1018 1.390 . S
C1027 H1020 0.950 . S
C1027 C1024 1.387 . S
C1028 C1029 1.387 . S
C1028 H1032 0.950 . S
C1028 C1037 1.390 . S
C1029 C1028 1.387 . S
C1029 C1031 1.387 . S
H1030 C1037 0.950 . S
C1031 C1029 1.387 . S
C1031 C1033 1.390 . S
C1031 H1035 0.950 . S
H1032 C1028 0.950 . S
C1033 C1031 1.390 . S
C1033 C1034 1.387 . S
C1033 H1036 0.950 . S
C1034 C1033 1.387 . S
C1034 C1037 1.387 . S
H1035 C1031 0.950 . S
H1036 C1033 0.950 . S
C1037 C1028 1.390 . S
C1037 H1030 0.950 . S
C1037 C1034 1.387 . S
C1038 C1039 1.387 . S
C1038 H1042 0.950 . S
C1038 C1047 1.390 . S
C1039 C1038 1.387 . S
C1039 C1041 1.387 . S
H1040 C1047 0.950 . S
C1041 C1039 1.387 . S
C1041 C1043 1.390 . S
C1041 H1045 0.950 . S
H1042 C1038 0.950 . S
C1043 C1041 1.390 . S
C1043 C1044 1.387 . S
C1043 H1046 0.950 . S
C1044 C1043 1.387 . S
C1044 C1047 1.387 . S
H1045 C1041 0.950 . S
H1046 C1043 0.950 . S
C1047 C1038 1.390 . S
C1047 H1040 0.950 . S
C1047 C1044 1.387 . S
C1048 C1049 1.387 . S
C1048 H1052 0.950 . S
C1048 C1057 1.390 . S
C1049 C1048 1.387 . S
C1049 C1051 1.387 . S
H1050 C1057 0.950 . S
C1051 C1049 1.387 . S
C1051 C1053 1.390 . S
C1051 H1055 0.950 . S
H1052 C1048 0.950 . S
C1053 C1051 1.390 . S
C1053 C1054 1.387 . S
C1053 H1056 0.950 . S
C1054 C1053 1.387 . S
C1054 C1057 1.387 . S
H1055 C1051 0.950 . S
H1056 C1053 0.950 . S
C1057 C1048 1.390 . S
C1057 H1050 0.950 . S
C1057 C1054 1.387 . S
C1058 C1059 1.387 . S
C1058 H1062 0.950 . S
C1058 C1067 1.390 . S
C1059 C1058 1.387 . S
C1059 C1061 1.387 . S
H1060 C1067 0.950 . S
C1061 C1059 1.387 . S
C1061 C1063 1.390 . S
C1061 H1065 0.950 . S
H1062 C1058 0.950 . S
C1063 C1061 1.390 . S
C1063 C1064 1.387 . S
C1063 H1066 0.950 . S
C1064 C1063 1.387 . S
C1064 C1067 1.387 . S
H1065 C1061 0.950 . S
H1066 C1063 0.950 . S
C1067 C1058 1.390 . S
C1067 H1060 0.950 . S
C1067 C1064 1.387 . S
C1068 C1069 1.387 . S
C1068 H1072 0.950 . S
C1068 C1077 1.390 . S
C1069 C1068 1.387 . S
C1069 C1071 1.387 . S
H1070 C1077 0.950 . S
C1071 C1069 1.387 . S
C1071 C1073 1.390 . S
C1071 H1075 0.950 . S
H1072 C1068 0.950 . S
C1073 C1071 1.390 . S
C1073 C1074 1.387 . S
C1073 H1076 0.950 . S
C1074 C1073 1.387 . S
C1074 C1077 1.387 . S
H1075 C1071 0.950 . S
H1076 C1073 0.950 . S
C1077 C1068 1.390 . S
C1077 H1070 0.950 . S
C1077 C1074 1.387 . S
C1078 C1079 1.387 . S
C1078 H1082 0.950 . S
C1078 C1087 1.390 . S
C1079 C1078 1.387 . S
C1079 C1081 1.387 . S
H1080 C1087 0.950 . S
C1081 C1079 1.387 . S
C1081 C1083 1.390 . S
C1081 H1085 0.950 . S
H1082 C1078 0.950 . S
C1083 C1081 1.390 . S
C1083 C1084 1.387 . S
C1083 H1086 0.950 . S
C1084 C1083 1.387 . S
C1084 C1087 1.387 . S
H1085 C1081 0.950 . S
H1086 C1083 0.950 . S
C1087 C1078 1.390 . S
C1087 H1080 0.950 . S
C1087 C1084 1.387 . S
C1088 C1089 1.387 . S
C1088 H1092 0.950 . S
C1088 C1097 1.390 . S
C1089 C1088 1.387 . S
C1089 C1091 1.387 . S
H1090 C1097 0.950 . S
C1091 C1089 1.387 . S
C1091 C1093 1.390 . S
C1091 H1095 0.950 . S
H1092 C1088 0.950 . S
C1093 C1091 1.390 . S
C1093 C1094 1.387 . S
C1093 H1096 0.950 . S
C1094 C1093 1.387 . S
C1094 C1097 1.387 . S
H1095 C1091 0.950 . S
H1096 C1093 0.950 . S
C1097 C1088 1.390 . S
C1097 H1090 0.950 . S
C1097 C1094 1.387 . S
C1098 C1099 1.387 . S
C1098 H1102 0.950 . S
C1098 C1107 1.390 . S
C1099 C1098 1.387 . S
C1099 C1101 1.387 . S
H1100 C1107 0.950 . S
C1101 C1099 1.387 . S
C1101 C1103 1.390 . S
C1101 H1105 0.950 . S
H1102 C1098 0.950 . S
C1103 C1101 1.390 . S
C1103 C1104 1.387 . S
C1103 H1106 0.950 . S
C1104 C1103 1.387 . S
C1104 C1107 1.387 . S
H1105 C1101 0.950 . S
H1106 C1103 0.950 . S
C1107 C1098 1.390 . S
C1107 H1100 0.950 . S
C1107 C1104 1.387 . S
C1108 C1109 1.387 . S
C1108 H1112 0.950 . S
C1108 C1117 1.390 . S
C1109 C1108 1.387 . S
C1109 C1111 1.387 . S
H1110 C1117 0.950 . S
C1111 C1109 1.387 . S
C1111 C1113 1.390 . S
C1111 H1115 0.950 . S
H1112 C1108 0.950 . S
C1113 C1111 1.390 . S
C1113 C1114 1.387 . S
C1113 H1116 0.950 . S
C1114 C1113 1.387 . S
C1114 C1117 1.387 . S
H1115 C1111 0.950 . S
H1116 C1113 0.950 . S
C1117 C1108 1.390 . S
C1117 H1110 0.950 . S
C1117 C1114 1.387 . S
C1118 C1119 1.387 . S
C1118 H1122 0.950 . S
C1118 C1127 1.390 . S
C1119 C1118 1.387 . S
C1119 C1121 1.387 . S
H1120 C1127 0.950 . S
C1121 C1119 1.387 . S
C1121 C1123 1.390 . S
C1121 H1125 0.950 . S
H1122 C1118 0.950 . S
C1123 C1121 1.390 . S
C1123 C1124 1.387 . S
C1123 H1126 0.950 . S
C1124 C1123 1.387 . S
C1124 C1127 1.387 . S
H1125 C1121 0.950 . S
H1126 C1123 0.950 . S
C1127 C1118 1.390 . S
C1127 H1120 0.950 . S
C1127 C1124 1.387 . S
C1128 C1129 1.387 . S
C1128 H1132 0.950 . S
C1128 C1137 1.390 . S
C1129 C1128 1.387 . S
C1129 C1131 1.387 . S
H1130 C1137 0.950 . S
C1131 C1129 1.387 . S
C1131 C1133 1.390 . S
C1131 H1135 0.950 . S
H1132 C1128 0.950 . S
C1133 C1131 1.390 . S
C1133 C1134 1.387 . S
C1133 H1136 0.950 . S
C1134 C1133 1.387 . S
C1134 C1137 1.387 . S
H1135 C1131 0.950 . S
H1136 C1133 0.950 . S
C1137 C1128 1.390 . S
C1137 H1130 0.950 . S
C1137 C1134 1.387 . S
C1138 C1139 1.387 . S
C1138 H1142 0.950 1_556 S
C1138 C1147 1.390 . S
C1139 C1138 1.387 . S
C1139 C1141 1.387 . S
H1140 C1147 0.950 . S
C1141 C1139 1.387 . S
C1141 C1143 1.390 . S
C1141 H1145 0.950 . S
H1142 C1138 0.950 1_554 S
C1143 C1141 1.390 . S
C1143 C1144 1.387 . S
C1143 H1146 0.950 . S
C1144 C1143 1.387 . S
C1144 C1147 1.387 . S
H1145 C1141 0.950 . S
H1146 C1143 0.950 . S
C1147 C1138 1.390 . S
C1147 H1140 0.950 . S
C1147 C1144 1.387 . S
C1148 C1149 1.387 . S
C1148 H1152 0.950 . S
C1148 C1157 1.390 . S
C1149 C1148 1.387 . S
C1149 C1151 1.387 . S
H1150 C1157 0.950 . S
C1151 C1149 1.387 . S
C1151 C1153 1.390 . S
C1151 H1155 0.950 . S
H1152 C1148 0.950 . S
C1153 C1151 1.390 . S
C1153 C1154 1.387 . S
C1153 H1156 0.950 . S
C1154 C1153 1.387 . S
C1154 C1157 1.387 . S
H1155 C1151 0.950 . S
H1156 C1153 0.950 . S
C1157 C1148 1.390 . S
C1157 H1150 0.950 . S
C1157 C1154 1.387 . S
C1158 C1159 1.387 . S
C1158 H1162 0.950 . S
C1158 C1167 1.390 . S
C1159 C1158 1.387 . S
C1159 C1161 1.387 . S
H1160 C1167 0.950 . S
C1161 C1159 1.387 . S
C1161 C1163 1.390 . S
C1161 H1165 0.950 . S
H1162 C1158 0.950 . S
C1163 C1161 1.390 . S
C1163 C1164 1.387 . S
C1163 H1166 0.950 . S
C1164 C1163 1.387 . S
C1164 C1167 1.387 . S
H1165 C1161 0.950 . S
H1166 C1163 0.950 . S
C1167 C1158 1.390 . S
C1167 H1160 0.950 . S
C1167 C1164 1.387 . S
C1168 C1169 1.387 . S
C1168 H1172 0.950 . S
C1168 C1177 1.390 . S
C1169 C1168 1.387 . S
C1169 C1171 1.387 . S
H1170 C1177 0.950 . S
C1171 C1169 1.387 . S
C1171 C1173 1.390 . S
C1171 H1175 0.950 . S
H1172 C1168 0.950 . S
C1173 C1171 1.390 . S
C1173 C1174 1.387 . S
C1173 H1176 0.950 . S
C1174 C1173 1.387 . S
C1174 C1177 1.387 . S
H1175 C1171 0.950 . S
H1176 C1173 0.950 . S
C1177 C1168 1.390 . S
C1177 H1170 0.950 . S
C1177 C1174 1.387 . S
C1178 C1179 1.387 . S
C1178 H1182 0.950 . S
C1178 C1187 1.390 . S
C1179 C1178 1.387 . S
C1179 C1181 1.387 . S
H1180 C1187 0.950 . S
C1181 C1179 1.387 . S
C1181 C1183 1.390 . S
C1181 H1185 0.950 . S
H1182 C1178 0.950 . S
C1183 C1181 1.390 . S
C1183 C1184 1.387 . S
C1183 H1186 0.950 . S
C1184 C1183 1.387 . S
C1184 C1187 1.387 . S
H1185 C1181 0.950 . S
H1186 C1183 0.950 . S
C1187 C1178 1.390 . S
C1187 H1180 0.950 . S
C1187 C1184 1.387 . S
C1188 C1189 1.387 . S
C1188 H1192 0.950 . S
C1188 C1197 1.390 . S
C1189 C1188 1.387 . S
C1189 C1191 1.387 . S
H1190 C1197 0.950 . S
C1191 C1189 1.387 . S
C1191 C1193 1.390 . S
C1191 H1195 0.950 . S
H1192 C1188 0.950 . S
C1193 C1191 1.390 . S
C1193 C1194 1.387 . S
C1193 H1196 0.950 . S
C1194 C1193 1.387 . S
C1194 C1197 1.387 . S
H1195 C1191 0.950 . S
H1196 C1193 0.950 . S
C1197 C1188 1.390 . S
C1197 H1190 0.950 . S
C1197 C1194 1.387 . S
C1198 C1199 1.387 . S
C1198 H1202 0.950 . S
C1198 C1207 1.390 . S
C1199 C1198 1.387 . S
C1199 C1201 1.387 . S
H1200 C1207 0.950 . S
C1201 C1199 1.387 . S
C1201 C1203 1.390 . S
C1201 H1205 0.950 . S
H1202 C1198 0.950 . S
C1203 C1201 1.390 . S
C1203 C1204 1.387 . S
C1203 H1206 0.950 . S
C1204 C1203 1.387 . S
C1204 C1207 1.387 . S
H1205 C1201 0.950 . S
H1206 C1203 0.950 . S
C1207 C1198 1.390 . S
C1207 H1200 0.950 . S
C1207 C1204 1.387 . S
C1208 C1209 1.387 . S
C1208 H1212 0.950 . S
C1208 C1217 1.390 . S
C1209 C1208 1.387 . S
C1209 C1211 1.387 . S
H1210 C1217 0.950 . S
C1211 C1209 1.387 . S
C1211 C1213 1.390 . S
C1211 H1215 0.950 . S
H1212 C1208 0.950 . S
C1213 C1211 1.390 . S
C1213 C1214 1.387 . S
C1213 H1216 0.950 . S
C1214 C1213 1.387 . S
C1214 C1217 1.387 . S
H1215 C1211 0.950 . S
H1216 C1213 0.950 . S
C1217 C1208 1.390 . S
C1217 H1210 0.950 . S
C1217 C1214 1.387 . S
C1218 C1219 1.387 . S
C1218 H1222 0.950 . S
C1218 C1227 1.390 . S
C1219 C1218 1.387 . S
C1219 C1221 1.387 . S
H1220 C1227 0.950 . S
C1221 C1219 1.387 . S
C1221 C1223 1.390 . S
C1221 H1225 0.950 . S
H1222 C1218 0.950 . S
C1223 C1221 1.390 . S
C1223 C1224 1.387 . S
C1223 H1226 0.950 . S
C1224 C1223 1.387 . S
C1224 C1227 1.387 . S
H1225 C1221 0.950 . S
H1226 C1223 0.950 . S
C1227 C1218 1.390 . S
C1227 H1220 0.950 . S
C1227 C1224 1.387 . S
C1228 C1229 1.387 . S
C1228 H1232 0.950 . S
C1228 C1237 1.390 1_545 S
C1229 C1228 1.387 . S
C1229 C1231 1.387 . S
H1230 C1237 0.950 . S
C1231 C1229 1.387 . S
C1231 C1233 1.390 . S
C1231 H1235 0.950 . S
H1232 C1228 0.950 . S
C1233 C1231 1.390 . S
C1233 C1234 1.387 1_545 S
C1233 H1236 0.950 . S
C1234 C1233 1.387 1_565 S
C1234 C1237 1.387 . S
H1235 C1231 0.950 . S
H1236 C1233 0.950 . S
C1237 C1228 1.390 1_565 S
C1237 H1230 0.950 . S
C1237 C1234 1.387 . S
C1238 C1239 1.387 . S
C1238 H1242 0.950 . S
C1238 C1247 1.390 1_455 S
C1239 C1238 1.387 . S
C1239 C1241 1.387 . S
H1240 C1247 0.950 . S
C1241 C1239 1.387 . S
C1241 C1243 1.390 . S
C1241 H1245 0.950 . S
H1242 C1238 0.950 . S
C1243 C1241 1.390 . S
C1243 C1244 1.387 . S
C1243 H1246 0.950 . S
C1244 C1243 1.387 . S
C1244 C1247 1.387 1_455 S
H1245 C1241 0.950 . S
H1246 C1243 0.950 . S
C1247 C1238 1.390 1_655 S
C1247 H1240 0.950 . S
C1247 C1244 1.387 1_655 S
C1248 C1249 1.387 . S
C1248 H1252 0.950 . S
C1248 C1257 1.390 . S
C1249 C1248 1.387 . S
C1249 C1251 1.387 . S
H1250 C1257 0.950 . S
C1251 C1249 1.387 . S
C1251 C1253 1.390 . S
C1251 H1255 0.950 . S
H1252 C1248 0.950 . S
C1253 C1251 1.390 . S
C1253 C1254 1.387 . S
C1253 H1256 0.950 . S
C1254 C1253 1.387 . S
C1254 C1257 1.387 . S
H1255 C1251 0.950 . S
H1256 C1253 0.950 . S
C1257 C1248 1.390 . S
C1257 H1250 0.950 . S
C1257 C1254 1.387 . S
C1258 C1259 1.387 . S
C1258 H1262 0.950 . S
C1258 C1267 1.390 . S
C1259 C1258 1.387 . S
C1259 C1261 1.387 . S
H1260 C1267 0.950 . S
C1261 C1259 1.387 . S
C1261 C1263 1.390 . S
C1261 H1265 0.950 . S
H1262 C1258 0.950 . S
C1263 C1261 1.390 . S
C1263 C1264 1.387 . S
C1263 H1266 0.950 . S
C1264 C1263 1.387 . S
C1264 C1267 1.387 . S
H1265 C1261 0.950 . S
H1266 C1263 0.950 . S
C1267 C1258 1.390 . S
C1267 H1260 0.950 . S
C1267 C1264 1.387 . S
C1268 C1269 1.387 . S
C1268 H1272 0.950 . S
C1268 C1277 1.390 . S
C1269 C1268 1.387 . S
C1269 C1271 1.387 . S
H1270 C1277 0.950 . S
C1271 C1269 1.387 . S
C1271 C1273 1.390 1_655 S
C1271 H1275 0.950 . S
H1272 C1268 0.950 . S
C1273 C1271 1.390 1_455 S
C1273 C1274 1.387 . S
C1273 H1276 0.950 . S
C1274 C1273 1.387 . S
C1274 C1277 1.387 1_455 S
H1275 C1271 0.950 . S
H1276 C1273 0.950 . S
C1277 C1268 1.390 . S
C1277 H1270 0.950 . S
C1277 C1274 1.387 1_655 S
C559 C55 1.490 . S
C564 C11 1.268 . S
C569 C42 1.270 . S
C574 C86 1.490 1_545 S
C579 C73 1.273 . S
C584 C24 1.491 . S
C589 C124 1.490 . S
C594 C111 1.272 1_565 S
C599 C155 1.490 . S
C604 C142 1.270 . S
C609 C173 1.268 . S
C614 C93 1.490 1_455 S
C619 C197 1.273 . S
C624 C241 1.491 . S
C629 C228 1.271 . S
C634 C272 1.490 . S
C639 C210 1.490 . S
C644 C259 1.269 . S
C649 C297 1.268 . S
C654 C310 1.490 . S
C659 C341 1.490 . S
C664 C328 1.268 . S
C669 C359 1.273 . S
C674 C279 1.491 . S
C679 C383 1.270 . S
C684 C427 1.491 . S
C689 C414 1.274 . S
C694 C458 1.491 . S
C699 C445 1.274 . S
C704 C396 1.491 . S
C709 C496 1.490 . S
C714 C483 1.272 . S
C719 C514 1.271 . S
C724 C527 1.491 . S
C729 C545 1.273 . S
C734 C465 1.491 . S
C739 C10 1.250 . S
C744 C156 1.223 . S
C749 C41 1.246 . S
C754 C94 1.223 . S
C759 C72 1.246 . S
C764 C125 1.224 . S
C769 C33 1.251 . S
C774 C182 1.312 . S
C779 C120 1.313 . S
C784 C64 1.251 . S
C789 C2 1.251 . S
C794 C151 1.312 . S
C799 C89 1.227 . S
C804 C95 1.250 . S
C809 C126 1.250 . S
C814 C27 1.227 . S
C819 C157 1.251 . S
C824 C58 1.227 . S
C829 C134 1.255 . S
C834 C63 1.318 . S
C839 C165 1.251 . S
C844 C1 1.313 . S
C849 C32 1.313 . S
C854 C103 1.253 . S
C859 C196 1.251 . S
C864 C342 1.224 . S
C869 C280 1.226 . S
C874 C227 1.247 . S
C879 C311 1.222 . S
C884 C258 1.246 . S
C889 C219 1.251 . S
C894 C368 1.312 . S
C899 C306 1.313 . S
C904 C250 1.251 . S
C909 C337 1.313 . S
C914 C188 1.251 . S
C919 C281 1.251 . S
C924 C275 1.224 . S
C929 C213 1.222 . S
C934 C312 1.248 . S
C939 C244 1.222 . S
C944 C343 1.246 . S
C949 C249 1.312 . S
C954 C320 1.251 . S
C959 C351 1.255 . S
C964 C187 1.314 . S
C969 C289 1.250 . S
C974 C218 1.312 . S
C979 C382 1.250 . S
C984 C528 1.227 . S
C989 C413 1.247 . S
C994 C466 1.221 . S
C999 C497 1.226 . S
C1004 C444 1.251 . S
C1009 C405 1.255 . S
C1014 C554 1.315 . S
C1019 C436 1.251 . S
C1024 C492 1.313 . S
C1029 C523 1.314 . S
C1034 C374 1.255 . S
C1039 C467 1.251 . S
C1044 C461 1.227 . S
C1049 C498 1.246 . S
C1054 C399 1.224 . S
C1059 C529 1.251 . S
C1064 C430 1.226 . S
C1069 C506 1.251 . S
C1074 C435 1.313 . S
C1079 C537 1.253 . S
C1084 C373 1.313 . S
C1089 C475 1.254 . S
C1094 C404 1.315 . S
C1099 C18 2.149 . S
C1104 C403 1.798 . S
C1109 C49 2.148 . S
C1114 C434 1.794 . S
C1119 C372 1.795 . S
C1124 C80 2.148 . S
C1129 C204 2.148 1_556 S
C1134 C31 1.794 . S
C1139 C235 2.148 1_556 S
C1144 C62 1.794 . S
C1149 C0 1.798 . S
C1154 C266 2.149 1_556 S
C1159 C104 2.148 . S
C1164 C334 1.795 . S
C1169 C135 2.149 . S
C1174 C365 1.799 . S
C1179 C303 1.798 . S
C1184 C166 2.149 . S
C1189 C148 1.794 . S
C1194 C476 2.145 1_554 S
C1199 C507 2.148 1_554 S
C1204 C179 1.794 . S
C1209 C538 2.148 1_554 S
C1214 C117 1.794 . S
C1219 C217 1.795 . S
C1224 C390 2.148 . S
C1229 C248 1.794 . S
C1234 C421 2.148 . S
C1239 C452 2.148 . S
C1244 C186 1.794 1_455 S
C1249 C290 2.148 . S
C1254 C520 1.794 . S
C1259 C321 2.149 . S
C1264 C551 1.798 1_545 S
C1269 C352 2.148 . S
C1274 C489 1.794 . S
