# Generated by pormake.
# Topology umd, (4)-cn, num edge types: 1
# Building blocks:
#     Node 0, Type 0, BuildingBlock: MUDLON_clean_sbu_0, # of connection points: 4
#     Node 1, Type 0, BuildingBlock: MUDLON_clean_sbu_0, # of connection points: 4
#     Node 2, Type 0, BuildingBlock: MUDLON_clean_sbu_0, # of connection points: 4
#     Node 3, Type 0, BuildingBlock: MUDLON_clean_sbu_0, # of connection points: 4
#     Node 4, Type 0, BuildingBlock: MUDLON_clean_sbu_0, # of connection points: 4
#     Node 5, Type 0, BuildingBlock: MUDLON_clean_sbu_0, # of connection points: 4
#     Node 6, Type 0, BuildingBlock: MUDLON_clean_sbu_0, # of connection points: 4
#     Node 7, Type 0, BuildingBlock: MUDLON_clean_sbu_0, # of connection points: 4
#     Node 8, Type 0, BuildingBlock: MUDLON_clean_sbu_0, # of connection points: 4
#     Node 9, Type 0, BuildingBlock: MUDLON_clean_sbu_0, # of connection points: 4
#     Node 10, Type 0, BuildingBlock: MUDLON_clean_sbu_0, # of connection points: 4
#     Node 11, Type 0, BuildingBlock: MUDLON_clean_sbu_0, # of connection points: 4
#     Node 12, Type 0, BuildingBlock: MUDLON_clean_sbu_0, # of connection points: 4
#     Node 13, Type 0, BuildingBlock: MUDLON_clean_sbu_0, # of connection points: 4
#     Node 14, Type 0, BuildingBlock: MUDLON_clean_sbu_0, # of connection points: 4
#     Node 15, Type 0, BuildingBlock: MUDLON_clean_sbu_0, # of connection points: 4
#     Edge 16, Type (0, 0), BuildingBlock: UVAHIK_clean_linker_0, # of connection points: 2
#     Edge 17, Type (0, 0), BuildingBlock: UVAHIK_clean_linker_0, # of connection points: 2
#     Edge 18, Type (0, 0), BuildingBlock: UVAHIK_clean_linker_0, # of connection points: 2
#     Edge 19, Type (0, 0), BuildingBlock: UVAHIK_clean_linker_0, # of connection points: 2
#     Edge 20, Type (0, 0), BuildingBlock: UVAHIK_clean_linker_0, # of connection points: 2
#     Edge 21, Type (0, 0), BuildingBlock: UVAHIK_clean_linker_0, # of connection points: 2
#     Edge 22, Type (0, 0), BuildingBlock: UVAHIK_clean_linker_0, # of connection points: 2
#     Edge 23, Type (0, 0), BuildingBlock: UVAHIK_clean_linker_0, # of connection points: 2
#     Edge 24, Type (0, 0), BuildingBlock: UVAHIK_clean_linker_0, # of connection points: 2
#     Edge 25, Type (0, 0), BuildingBlock: UVAHIK_clean_linker_0, # of connection points: 2
#     Edge 26, Type (0, 0), BuildingBlock: UVAHIK_clean_linker_0, # of connection points: 2
#     Edge 27, Type (0, 0), BuildingBlock: UVAHIK_clean_linker_0, # of connection points: 2
#     Edge 28, Type (0, 0), BuildingBlock: UVAHIK_clean_linker_0, # of connection points: 2
#     Edge 29, Type (0, 0), BuildingBlock: UVAHIK_clean_linker_0, # of connection points: 2
#     Edge 30, Type (0, 0), BuildingBlock: UVAHIK_clean_linker_0, # of connection points: 2
#     Edge 31, Type (0, 0), BuildingBlock: UVAHIK_clean_linker_0, # of connection points: 2
#     Edge 32, Type (0, 0), BuildingBlock: UVAHIK_clean_linker_0, # of connection points: 2
#     Edge 33, Type (0, 0), BuildingBlock: UVAHIK_clean_linker_0, # of connection points: 2
#     Edge 34, Type (0, 0), BuildingBlock: UVAHIK_clean_linker_0, # of connection points: 2
#     Edge 35, Type (0, 0), BuildingBlock: UVAHIK_clean_linker_0, # of connection points: 2
#     Edge 36, Type (0, 0), BuildingBlock: UVAHIK_clean_linker_0, # of connection points: 2
#     Edge 37, Type (0, 0), BuildingBlock: UVAHIK_clean_linker_0, # of connection points: 2
#     Edge 38, Type (0, 0), BuildingBlock: UVAHIK_clean_linker_0, # of connection points: 2
#     Edge 39, Type (0, 0), BuildingBlock: UVAHIK_clean_linker_0, # of connection points: 2
#     Edge 40, Type (0, 0), BuildingBlock: UVAHIK_clean_linker_0, # of connection points: 2
#     Edge 41, Type (0, 0), BuildingBlock: UVAHIK_clean_linker_0, # of connection points: 2
#     Edge 42, Type (0, 0), BuildingBlock: UVAHIK_clean_linker_0, # of connection points: 2
#     Edge 43, Type (0, 0), BuildingBlock: UVAHIK_clean_linker_0, # of connection points: 2
#     Edge 44, Type (0, 0), BuildingBlock: UVAHIK_clean_linker_0, # of connection points: 2
#     Edge 45, Type (0, 0), BuildingBlock: UVAHIK_clean_linker_0, # of connection points: 2
#     Edge 46, Type (0, 0), BuildingBlock: UVAHIK_clean_linker_0, # of connection points: 2
#     Edge 47, Type (0, 0), BuildingBlock: UVAHIK_clean_linker_0, # of connection points: 2
# Relax obj value: 0.014
# Max RMSD: 0.192
# Mean RMSD: 0.192
data_MOF--net-umd--node1-MUDLON_clean_sbu_0--edge1-UVAHIK_clean_linker_0
_symmetry_space_group_name_H-M    P1
_symmetry_Int_Tables_number       1
_symmetry_cell_setting            triclinic
loop_
_symmetry_equiv_pos_as_xyz
'x, y, z'
_cell_length_a     52.602367
_cell_length_b     52.62485
_cell_length_c     76.595709
_cell_angle_alpha  89.656586
_cell_angle_beta   90.009584
_cell_angle_gamma 90.114186
loop_
_atom_site_label
_atom_site_type_symbol
_atom_site_fract_x
_atom_site_fract_y
_atom_site_fract_z
_atom_type_partial_charge
Mg0 Mg 0.19123 0.45197 0.14756 0.0
C1 C 0.19417 0.48256 0.11359 0.0
O2 O 0.17316 0.4925 0.11977 0.0
C3 C 0.21618 0.45958 0.1828 0.0
O4 O 0.22185 0.43559 0.18027 0.0
C5 C 0.2113 0.40052 0.13638 0.0
O6 O 0.21025 0.41161 0.12099 0.0
O7 O 0.20324 0.41245 0.14966 0.0
O8 O 0.2063 0.46656 0.1229 0.0
O9 O 0.15001 0.45607 0.1472 0.0
C10 C 0.14106 0.47682 0.15301 0.0
O11 O 0.1569 0.49397 0.15906 0.0
O12 O 0.20469 0.4718 0.17078 0.0
Mg13 Mg 0.55641 0.18848 0.64431 0.0
C14 C 0.54549 0.21913 0.61147 0.0
O15 O 0.56375 0.2333 0.61796 0.0
C16 C 0.54512 0.21933 0.67753 0.0
O17 O 0.5641 0.23356 0.67207 0.0
C18 C 0.61093 0.20441 0.65514 0.0
O19 O 0.60465 0.19532 0.67056 0.0
O20 O 0.59514 0.20294 0.64261 0.0
O21 O 0.53746 0.20022 0.62031 0.0
O22 O 0.55429 0.14721 0.64461 0.0
C23 C 0.53266 0.13812 0.64055 0.0
O24 O 0.51429 0.15394 0.63642 0.0
O25 O 0.53763 0.20089 0.66815 0.0
Mg26 Mg 0.82272 0.55745 0.14795 0.0
C27 C 0.79036 0.54602 0.11537 0.0
O28 O 0.7741 0.5616 0.12269 0.0
C29 C 0.82072 0.54791 0.18535 0.0
O30 O 0.83668 0.56693 0.18324 0.0
C31 C 0.80517 0.61122 0.13701 0.0
O32 O 0.81301 0.60447 0.12143 0.0
O33 O 0.80801 0.59597 0.1498 0.0
O34 O 0.81063 0.54018 0.1235 0.0
O35 O 0.86402 0.55557 0.14796 0.0
C36 C 0.87312 0.53393 0.14412 0.0
O37 O 0.85729 0.51543 0.14029 0.0
O38 O 0.81055 0.53829 0.17183 0.0
Mg39 Mg 0.44752 0.82067 0.64496 0.0
C40 C 0.4819 0.81671 0.61303 0.0
O41 O 0.48981 0.83883 0.61876 0.0
C42 C 0.48161 0.79958 0.67573 0.0
O43 O 0.49958 0.79553 0.66417 0.0
C44 C 0.396 0.80007 0.65587 0.0
O45 O 0.4073 0.79996 0.67116 0.0
O46 O 0.40783 0.80908 0.64272 0.0
O47 O 0.46603 0.80409 0.62217 0.0
O48 O 0.45232 0.8618 0.64386 0.0
C49 C 0.47254 0.8708 0.65057 0.0
O50 O 0.4888 0.85505 0.65784 0.0
O51 O 0.46035 0.80852 0.67077 0.0
Mg52 Mg 0.193 0.56026 0.39562 0.0
C53 C 0.19479 0.53181 0.43027 0.0
O54 O 0.17128 0.52656 0.42578 0.0
C55 C 0.19683 0.55342 0.3577 0.0
O56 O 0.18184 0.57317 0.35955 0.0
C57 C 0.2258 0.60476 0.3867 0.0
O58 O 0.23731 0.58624 0.37845 0.0
O59 O 0.20549 0.59982 0.3951 0.0
O60 O 0.20879 0.54417 0.41964 0.0
O61 O 0.15176 0.55607 0.39611 0.0
C62 C 0.14304 0.53495 0.39071 0.0
O63 O 0.15912 0.51771 0.38516 0.0
O64 O 0.20561 0.54273 0.37138 0.0
Mg65 Mg 0.45472 0.18989 0.89245 0.0
C66 C 0.48557 0.19271 0.92607 0.0
O67 O 0.49465 0.17122 0.9201 0.0
C68 C 0.46117 0.195 0.8548 0.0
O69 O 0.44181 0.17946 0.85693 0.0
C70 C 0.40337 0.20982 0.90422 0.0
O71 O 0.41481 0.20932 0.91946 0.0
O72 O 0.4151 0.20155 0.8909 0.0
O73 O 0.47004 0.20529 0.91668 0.0
O74 O 0.45911 0.14872 0.89281 0.0
C75 C 0.47951 0.13974 0.88641 0.0
O76 O 0.49637 0.15555 0.87982 0.0
O77 O 0.47205 0.20376 0.86834 0.0
Mg78 Mg 0.82528 0.45091 0.39635 0.0
C79 C 0.79465 0.46175 0.42909 0.0
O80 O 0.78044 0.44352 0.42263 0.0
C81 C 0.79472 0.4634 0.36292 0.0
O82 O 0.77963 0.44509 0.36837 0.0
C83 C 0.80826 0.3971 0.38502 0.0
O84 O 0.81695 0.40391 0.3696 0.0
O85 O 0.81039 0.4123 0.39778 0.0
O86 O 0.81356 0.46976 0.42028 0.0
O87 O 0.86658 0.45281 0.39633 0.0
C88 C 0.87555 0.47475 0.39959 0.0
O89 O 0.8596 0.49333 0.40282 0.0
O90 O 0.81345 0.47007 0.37237 0.0
Mg91 Mg 0.56129 0.82137 0.89201 0.0
C92 C 0.54781 0.7898 0.9243 0.0
O93 O 0.56534 0.77468 0.91796 0.0
C94 C 0.52769 0.81381 0.85989 0.0
O95 O 0.51384 0.83114 0.86767 0.0
C96 C 0.6133 0.80055 0.88277 0.0
O97 O 0.60324 0.80083 0.86707 0.0
O98 O 0.6005 0.80926 0.89548 0.0
O99 O 0.54123 0.80931 0.91554 0.0
O100 O 0.55741 0.86256 0.89053 0.0
C101 C 0.53701 0.87196 0.89663 0.0
O102 O 0.52004 0.85657 0.90356 0.0
O103 O 0.54745 0.80543 0.86755 0.0
Mg104 Mg 0.8204 0.55948 0.89622 0.0
C105 C 0.81861 0.53263 0.93145 0.0
O106 O 0.84224 0.52766 0.92718 0.0
C107 C 0.80482 0.55568 0.85901 0.0
O108 O 0.81018 0.57995 0.86059 0.0
C109 C 0.80264 0.6116 0.90823 0.0
O110 O 0.80514 0.6009 0.92367 0.0
O111 O 0.80896 0.59916 0.89473 0.0
O112 O 0.80455 0.54433 0.92054 0.0
O113 O 0.8615 0.55456 0.89638 0.0
C114 C 0.86978 0.53315 0.89126 0.0
O115 O 0.85334 0.51596 0.88606 0.0
O116 O 0.8065 0.54141 0.87245 0.0
Mg117 Mg 0.457 0.82378 0.39392 0.0
C118 C 0.46522 0.79495 0.4284 0.0
O119 O 0.44634 0.78106 0.4225 0.0
C120 C 0.46976 0.79834 0.3595 0.0
O121 O 0.44804 0.7869 0.36277 0.0
C122 C 0.40128 0.8085 0.4021 0.0
O123 O 0.40412 0.82266 0.41603 0.0
O124 O 0.41951 0.80666 0.39128 0.0
O125 O 0.47419 0.8126 0.41877 0.0
O126 O 0.45613 0.86517 0.39309 0.0
C127 C 0.46389 0.87806 0.40605 0.0
O128 O 0.47012 0.86613 0.42054 0.0
O129 O 0.47894 0.81336 0.37086 0.0
Mg130 Mg 0.18653 0.4468 0.89658 0.0
C131 C 0.2157 0.45725 0.92996 0.0
O132 O 0.22679 0.43594 0.92543 0.0
C133 C 0.18322 0.45797 0.8589 0.0
O134 O 0.16362 0.44305 0.86192 0.0
C135 C 0.20852 0.39588 0.88485 0.0
O136 O 0.20522 0.40603 0.86932 0.0
O137 O 0.2014 0.40812 0.89825 0.0
O138 O 0.19943 0.46714 0.91969 0.0
O139 O 0.14524 0.44885 0.89752 0.0
C140 C 0.13656 0.47108 0.90004 0.0
O141 O 0.15276 0.48985 0.90217 0.0
O142 O 0.19757 0.46387 0.87164 0.0
Mg143 Mg 0.56068 0.19063 0.39323 0.0
C144 C 0.53196 0.19357 0.42744 0.0
O145 O 0.52454 0.17094 0.42236 0.0
C146 C 0.54987 0.21581 0.35819 0.0
O147 O 0.57259 0.22537 0.36096 0.0
C148 C 0.61252 0.20986 0.4039 0.0
O149 O 0.60241 0.20625 0.41941 0.0
O150 O 0.59979 0.20369 0.39046 0.0
O151 O 0.54598 0.20678 0.41734 0.0
O152 O 0.55742 0.14942 0.39542 0.0
C153 C 0.54882 0.13663 0.38266 0.0
O154 O 0.54404 0.14837 0.36784 0.0
O155 O 0.53965 0.20206 0.36998 0.0
Mg156 Mg 0.81905 0.4495 0.6482 0.0
C157 C 0.81818 0.47735 0.61326 0.0
O158 O 0.84151 0.48289 0.61805 0.0
C159 C 0.80683 0.45458 0.68566 0.0
O160 O 0.81531 0.43118 0.68451 0.0
C161 C 0.79973 0.3982 0.63612 0.0
O162 O 0.80245 0.40931 0.62082 0.0
O163 O 0.8065 0.4101 0.64976 0.0
O164 O 0.80398 0.465 0.62377 0.0
O165 O 0.86027 0.45361 0.64821 0.0
C166 C 0.86903 0.47458 0.65385 0.0
O167 O 0.85298 0.49177 0.65951 0.0
O168 O 0.80531 0.46793 0.67179 0.0
Mg169 Mg 0.56135 0.82254 0.14327 0.0
C170 C 0.547 0.82039 0.10597 0.0
O171 O 0.55868 0.84238 0.1073 0.0
C172 C 0.55064 0.8256 0.18071 0.0
O173 O 0.56618 0.84462 0.1774 0.0
C174 C 0.61011 0.79773 0.1559 0.0
O175 O 0.59599 0.79435 0.16985 0.0
O176 O 0.60101 0.81009 0.14301 0.0
O177 O 0.54447 0.80662 0.1196 0.0
O178 O 0.55605 0.86364 0.14181 0.0
C179 C 0.53365 0.87072 0.13783 0.0
O180 O 0.51629 0.85331 0.13478 0.0
O181 O 0.54398 0.81137 0.1681 0.0
Mg182 Mg 0.18678 0.55792 0.64702 0.0
C183 C 0.21886 0.54728 0.61426 0.0
O184 O 0.23522 0.56264 0.62177 0.0
C185 C 0.21205 0.5459 0.68178 0.0
O186 O 0.22207 0.56845 0.67901 0.0
C187 C 0.20341 0.61166 0.63641 0.0
O188 O 0.19414 0.60486 0.62121 0.0
O189 O 0.20189 0.59631 0.64925 0.0
O190 O 0.19848 0.54142 0.62227 0.0
O191 O 0.14548 0.55641 0.64701 0.0
C192 C 0.13633 0.53478 0.64311 0.0
O193 O 0.15212 0.51634 0.63922 0.0
O194 O 0.19798 0.53618 0.67005 0.0
Mg195 Mg 0.45138 0.18711 0.14408 0.0
C196 C 0.46132 0.21487 0.10998 0.0
O197 O 0.44027 0.22635 0.11468 0.0
C198 C 0.46254 0.18599 0.18163 0.0
O199 O 0.44797 0.16605 0.17904 0.0
C200 C 0.39992 0.2081 0.15568 0.0
O201 O 0.41013 0.20514 0.1712 0.0
O202 O 0.41233 0.20108 0.14229 0.0
O203 O 0.4713 0.19878 0.12037 0.0
O204 O 0.45463 0.14596 0.14499 0.0
C205 C 0.4493 0.13113 0.13248 0.0
O206 O 0.43922 0.1405 0.11813 0.0
O207 O 0.46829 0.19995 0.16857 0.0
C208 C 0.09608 0.46449 0.14569 0.0
C209 C 0.11344 0.48233 0.15232 0.0
C210 C 0.07013 0.47022 0.14473 0.0
C211 C 0.02135 0.51387 0.16257 0.0
H212 H 0.98284 0.49359 0.12179 0.0
C213 C 0.9181 0.54766 0.15018 0.0
C214 C 0.90087 0.5291 0.14437 0.0
C215 C 0.94419 0.54246 0.15089 0.0
C216 C 0.99328 0.49921 0.13333 0.0
H217 H 0.11709 0.52017 0.16318 0.0
H218 H 0.07209 0.5302 0.16131 0.0
H219 H 0.02785 0.48299 0.12381 0.0
H220 H 0.8976 0.49061 0.13456 0.0
H221 H 0.94288 0.4816 0.13585 0.0
H222 H 0.98676 0.53015 0.17205 0.0
C223 C 0.07838 0.51165 0.15708 0.0
C224 C 0.01908 0.49307 0.13451 0.0
C225 C 0.10425 0.50592 0.15806 0.0
C226 C 0.91032 0.50538 0.13909 0.0
C227 C 0.93634 0.50023 0.13973 0.0
C228 C 0.99557 0.52007 0.16136 0.0
C229 C 0.06097 0.49391 0.15038 0.0
C230 C 0.03344 0.50027 0.14916 0.0
C231 C 0.95359 0.51864 0.1457 0.0
C232 C 0.98121 0.51275 0.14675 0.0
H233 H 0.10252 0.44612 0.1412 0.0
H234 H 0.05721 0.45599 0.13971 0.0
H235 H 0.03173 0.5194 0.17416 0.0
H236 H 0.91144 0.56613 0.15433 0.0
H237 H 0.95703 0.55714 0.15539 0.0
C238 C 0.46135 0.91566 0.64208 0.0
C239 C 0.47851 0.89831 0.64958 0.0
C240 C 0.46748 0.94152 0.64094 0.0
C241 C 0.51069 0.99023 0.65959 0.0
H242 H 0.49289 0.02832 0.61788 0.0
C243 C 0.54594 0.09316 0.64716 0.0
C244 C 0.52769 0.11039 0.64084 0.0
C245 C 0.54055 0.06709 0.64791 0.0
C246 C 0.49783 0.01799 0.62967 0.0
H247 H 0.51561 0.89458 0.66174 0.0
H248 H 0.52638 0.93941 0.65952 0.0
H249 H 0.48179 0.9834 0.62003 0.0
H250 H 0.48961 0.11367 0.63014 0.0
H251 H 0.4803 0.06843 0.63148 0.0
H252 H 0.52681 0.02485 0.66919 0.0
C253 C 0.50801 0.9332 0.65478 0.0
C254 C 0.49139 0.99225 0.63093 0.0
C255 C 0.50187 0.90741 0.65595 0.0
C256 C 0.50413 0.10096 0.63508 0.0
C257 C 0.49882 0.07496 0.63574 0.0
C258 C 0.5172 0.01595 0.6583 0.0
C259 C 0.49093 0.9506 0.64725 0.0
C260 C 0.49768 0.97805 0.64592 0.0
C261 C 0.51689 0.05772 0.64224 0.0
C262 C 0.51076 0.03016 0.64336 0.0
H263 H 0.44318 0.90928 0.63708 0.0
H264 H 0.45372 0.95444 0.63528 0.0
H265 H 0.5155 0.98 0.67144 0.0
H266 H 0.56427 0.09981 0.65169 0.0
H267 H 0.55497 0.05425 0.65283 0.0
C268 C 0.09785 0.547 0.39748 0.0
C269 C 0.11547 0.52909 0.39138 0.0
C270 C 0.07195 0.54093 0.39844 0.0
C271 C 0.02385 0.4956 0.38146 0.0
H272 H 0.98467 0.5175 0.42149 0.0
C273 C 0.92071 0.46115 0.39415 0.0
C274 C 0.90328 0.47984 0.39935 0.0
C275 C 0.94678 0.46661 0.39346 0.0
C276 C 0.9953 0.51141 0.41015 0.0
H277 H 0.11964 0.49076 0.38147 0.0
H278 H 0.07474 0.48016 0.38335 0.0
H279 H 0.02958 0.52865 0.41943 0.0
H280 H 0.89962 0.51883 0.4081 0.0
H281 H 0.94484 0.52828 0.40684 0.0
H282 H 0.98954 0.4783 0.37223 0.0
C283 C 0.08078 0.49901 0.38715 0.0
C284 C 0.02104 0.51787 0.40895 0.0
C285 C 0.1066 0.50508 0.38617 0.0
C286 C 0.9125 0.50396 0.40404 0.0
C287 C 0.93848 0.50936 0.40343 0.0
C288 C 0.99812 0.48909 0.38269 0.0
C289 C 0.06311 0.51682 0.39333 0.0
C290 C 0.03564 0.5101 0.39456 0.0
C291 C 0.95594 0.49082 0.39806 0.0
C292 C 0.98352 0.49699 0.39702 0.0
H293 H 0.10405 0.56569 0.40156 0.0
H294 H 0.05882 0.55523 0.40305 0.0
H295 H 0.03441 0.48961 0.37008 0.0
H296 H 0.91423 0.44239 0.39047 0.0
H297 H 0.95978 0.45183 0.38943 0.0
C298 C 0.50907 0.90937 0.90247 0.0
C299 C 0.5318 0.89961 0.89558 0.0
C300 C 0.5036 0.93528 0.90126 0.0
C301 C 0.53338 0.9982 0.89457 0.0
H302 H 0.46454 0.019 0.88342 0.0
C303 C 0.50762 0.1027 0.87982 0.0
C304 C 0.48488 0.1121 0.88692 0.0
C305 C 0.51325 0.07678 0.88064 0.0
C306 C 0.48378 0.01353 0.88673 0.0
H307 H 0.5667 0.90953 0.88209 0.0
H308 H 0.55705 0.95486 0.87986 0.0
H309 H 0.47484 0.97392 0.88519 0.0
H310 H 0.45013 0.10155 0.90038 0.0
H311 H 0.46005 0.05626 0.90193 0.0
H312 H 0.54231 0.03782 0.89614 0.0
C313 C 0.54356 0.94243 0.88635 0.0
C314 C 0.48971 0.98767 0.88774 0.0
C315 C 0.54905 0.91644 0.88756 0.0
C316 C 0.46778 0.09493 0.89474 0.0
C317 C 0.47342 0.06895 0.89555 0.0
C318 C 0.52746 0.02406 0.89356 0.0
C319 C 0.52069 0.95213 0.89312 0.0
C320 C 0.51457 0.97968 0.89172 0.0
C321 C 0.49629 0.05959 0.88858 0.0
C322 C 0.50257 0.03205 0.88965 0.0
H323 H 0.49538 0.897 0.90881 0.0
H324 H 0.48602 0.94213 0.90687 0.0
H325 H 0.55262 0.99272 0.89792 0.0
H326 H 0.5212 0.11536 0.87363 0.0
H327 H 0.53084 0.07019 0.8749 0.0
C328 C 0.90568 0.5026 0.88724 0.0
C329 C 0.89725 0.52696 0.89193 0.0
C330 C 0.93141 0.49627 0.88826 0.0
C331 C 0.99166 0.51557 0.90938 0.0
H332 H 0.02226 0.4738 0.87354 0.0
C333 C 0.09997 0.5007 0.90411 0.0
C334 C 0.10888 0.47628 0.9 0.0
C335 C 0.07403 0.50621 0.90356 0.0
C336 C 0.01392 0.48521 0.88376 0.0
H337 H 0.90937 0.56389 0.90122 0.0
H338 H 0.95442 0.55297 0.90276 0.0
H339 H 0.9775 0.48538 0.87131 0.0
H340 H 0.09742 0.43839 0.89224 0.0
H341 H 0.05194 0.44804 0.89132 0.0
H342 H 0.02817 0.51557 0.92173 0.0
C343 C 0.94102 0.53861 0.89854 0.0
C344 C 0.98826 0.49188 0.88249 0.0
C345 C 0.91522 0.54494 0.89755 0.0
C346 C 0.09117 0.45739 0.89548 0.0
C347 C 0.06515 0.46296 0.89484 0.0
C348 C 0.01733 0.50896 0.91062 0.0
C349 C 0.94943 0.51416 0.89397 0.0
C350 C 0.9768 0.50719 0.89527 0.0
C351 C 0.05631 0.48747 0.89884 0.0
C352 C 0.02879 0.49376 0.8978 0.0
H353 H 0.89236 0.48823 0.88292 0.0
H354 H 0.93711 0.47716 0.88488 0.0
H355 H 0.98337 0.52698 0.91962 0.0
H356 H 0.11307 0.51573 0.90763 0.0
H357 H 0.06791 0.52535 0.9065 0.0
C358 C 0.5313 0.09587 0.3709 0.0
C359 C 0.54175 0.10951 0.38492 0.0
C360 C 0.52273 0.07093 0.37325 0.0
C361 C 0.50064 0.02636 0.40751 0.0
H362 H 0.51135 0.97557 0.37181 0.0
C363 C 0.47913 0.91949 0.41823 0.0
C364 C 0.46913 0.90565 0.40415 0.0
C365 C 0.48671 0.94479 0.41602 0.0
C366 C 0.50788 0.98961 0.3818 0.0
H367 H 0.55192 0.10735 0.41233 0.0
H368 H 0.53725 0.06366 0.41638 0.0
H369 H 0.52841 0.01827 0.36771 0.0
H370 H 0.45834 0.90793 0.37685 0.0
H371 H 0.4713 0.95217 0.37305 0.0
H372 H 0.48018 0.99763 0.42163 0.0
C373 C 0.53534 0.07243 0.40362 0.0
C374 C 0.51773 0.01409 0.37947 0.0
C375 C 0.54395 0.09741 0.40126 0.0
C376 C 0.46605 0.91799 0.38796 0.0
C377 C 0.47367 0.9433 0.38574 0.0
C378 C 0.49081 1.00185 0.40985 0.0
C379 C 0.52438 0.05898 0.38968 0.0
C380 C 0.51425 0.03278 0.39229 0.0
C381 C 0.48449 0.95687 0.39967 0.0
C382 C 0.49431 0.98317 0.39702 0.0
H383 H 0.52925 0.10461 0.35815 0.0
H384 H 0.51416 0.06126 0.36228 0.0
H385 H 0.49722 0.04039 0.41752 0.0
H386 H 0.48179 0.91059 0.43088 0.0
H387 H 0.49513 0.95459 0.42699 0.0
C388 C 0.9056 0.50416 0.65879 0.0
C389 C 0.8966 0.48039 0.65317 0.0
C390 C 0.93141 0.51024 0.65768 0.0
C391 C 0.99048 0.49243 0.63469 0.0
H392 H 0.02315 0.53021 0.67182 0.0
C393 C 0.09915 0.50599 0.6383 0.0
C394 C 0.10859 0.52979 0.6435 0.0
C395 C 0.07318 0.50062 0.63914 0.0
C396 C 0.01423 0.51994 0.66124 0.0
H397 H 0.90779 0.44424 0.64217 0.0
H398 H 0.95298 0.45474 0.64043 0.0
H399 H 0.97833 0.51884 0.67437 0.0
H400 H 0.09802 0.56676 0.65349 0.0
H401 H 0.05248 0.55739 0.65489 0.0
H402 H 0.02644 0.4934 0.62163 0.0
C403 C 0.93996 0.46882 0.64546 0.0
C404 C 0.98854 0.51338 0.6627 0.0
C405 C 0.91408 0.46273 0.64657 0.0
C406 C 0.09137 0.54823 0.64941 0.0
C407 C 0.06531 0.54281 0.65031 0.0
C408 C 0.01618 0.49894 0.63325 0.0
C409 C 0.94892 0.49271 0.65094 0.0
C410 C 0.97634 0.4995 0.64946 0.0
C411 C 0.05594 0.51889 0.64523 0.0
C412 C 0.02839 0.51272 0.64653 0.0
H413 H 0.89267 0.51827 0.6639 0.0
H414 H 0.93756 0.52893 0.66179 0.0
H415 H 0.9816 0.48215 0.6241 0.0
H416 H 0.11186 0.49131 0.63371 0.0
H417 H 0.06667 0.48191 0.63535 0.0
C418 C 0.44819 0.08643 0.12117 0.0
C419 C 0.45688 0.10406 0.13352 0.0
C420 C 0.45659 0.0612 0.1217 0.0
C421 C 0.48978 0.01408 0.1505 0.0
H422 H 0.49984 0.97859 0.10683 0.0
C423 C 0.54081 0.91656 0.14546 0.0
C424 C 0.52684 0.89792 0.13653 0.0
C425 C 0.5331 0.94203 0.14494 0.0
C426 C 0.49707 0.98829 0.11912 0.0
H427 H 0.48123 0.10899 0.15612 0.0
H428 H 0.4965 0.06552 0.15668 0.0
H429 H 0.4843 0.02221 0.10642 0.0
H430 H 0.49441 0.8914 0.11964 0.0
H431 H 0.48141 0.93586 0.11841 0.0
H432 H 0.50326 0.98016 0.16307 0.0
C433 C 0.48264 0.07078 0.14686 0.0
C434 C 0.48795 0.01324 0.11893 0.0
C435 C 0.47396 0.09585 0.14649 0.0
C436 C 0.50549 0.90532 0.12672 0.0
C437 C 0.49811 0.93077 0.12593 0.0
C438 C 0.49929 0.98927 0.15065 0.0
C439 C 0.47419 0.05309 0.13443 0.0
C440 C 0.48399 0.02646 0.13462 0.0
C441 C 0.51164 0.94933 0.13519 0.0
C442 C 0.50285 0.97609 0.13497 0.0
H443 H 0.43493 0.09212 0.11107 0.0
H444 H 0.44919 0.04808 0.11212 0.0
H445 H 0.48657 0.02335 0.16288 0.0
H446 H 0.55729 0.91138 0.15317 0.0
H447 H 0.54392 0.95603 0.15213 0.0
C448 C 0.19432 0.55759 0.32522 0.0
C449 C 0.20302 0.54413 0.33996 0.0
C450 C 0.19942 0.54891 0.3084 0.0
C451 C 0.21478 0.49097 0.28403 0.0
H452 H 0.2303 0.53869 0.24671 0.0
C453 C 0.23232 0.45714 0.21356 0.0
C454 C 0.22016 0.47106 0.20024 0.0
C455 C 0.23364 0.46661 0.23055 0.0
C456 C 0.22582 0.52513 0.25695 0.0
H457 H 0.22419 0.51103 0.34853 0.0
H458 H 0.23316 0.49579 0.31903 0.0
H459 H 0.22641 0.55386 0.27663 0.0
H460 H 0.20062 0.50631 0.19427 0.0
H461 H 0.20272 0.52273 0.22393 0.0
H462 H 0.21368 0.46231 0.26434 0.0
C463 C 0.22222 0.51304 0.32056 0.0
C464 C 0.22361 0.53382 0.27411 0.0
C465 C 0.21718 0.52182 0.33746 0.0
C466 C 0.21018 0.49511 0.20419 0.0
C467 C 0.21147 0.50458 0.22121 0.0
C468 C 0.21697 0.48228 0.26687 0.0
C469 C 0.21333 0.52648 0.30583 0.0
C470 C 0.21772 0.5169 0.28783 0.0
C471 C 0.2228 0.49023 0.23468 0.0
C472 C 0.2222 0.4993 0.25307 0.0
H473 H 0.18334 0.57485 0.32664 0.0
H474 H 0.19194 0.55952 0.2974 0.0
H475 H 0.2099 0.47747 0.29422 0.0
H476 H 0.24036 0.43861 0.21097 0.0
H477 H 0.24291 0.45526 0.24052 0.0
C478 C 0.54664 0.23868 0.70742 0.0
C479 C 0.53457 0.22265 0.69533 0.0
C480 C 0.53822 0.23974 0.72475 0.0
C481 C 0.48346 0.22459 0.75339 0.0
H482 H 0.5343 0.21768 0.78979 0.0
C483 C 0.45735 0.19103 0.82244 0.0
C484 C 0.46981 0.20165 0.83691 0.0
C485 C 0.46514 0.19683 0.80547 0.0
C486 C 0.51986 0.22006 0.77983 0.0
H487 H 0.50362 0.19585 0.69186 0.0
H488 H 0.4889 0.19782 0.72196 0.0
H489 H 0.54763 0.22259 0.75942 0.0
H490 H 0.50031 0.22685 0.84483 0.0
H491 H 0.51388 0.2372 0.81502 0.0
H492 H 0.45568 0.22179 0.77369 0.0
C493 C 0.50483 0.20963 0.71807 0.0
C494 C 0.52751 0.22286 0.76241 0.0
C495 C 0.51336 0.20841 0.70081 0.0
C496 C 0.49032 0.21832 0.83397 0.0
C497 C 0.49815 0.22416 0.81689 0.0
C498 C 0.47583 0.22191 0.77078 0.0
C499 C 0.5174 0.225 0.73032 0.0
C500 C 0.50938 0.22463 0.74895 0.0
C501 C 0.48559 0.2135 0.80243 0.0
C502 C 0.4939 0.21904 0.78419 0.0
H503 H 0.56306 0.24989 0.70365 0.0
H504 H 0.54814 0.25196 0.73383 0.0
H505 H 0.46903 0.22639 0.74337 0.0
H506 H 0.44157 0.17801 0.82417 0.0
H507 H 0.45534 0.18783 0.79471 0.0
C508 C 0.82694 0.54974 0.21763 0.0
C509 C 0.81469 0.5387 0.20323 0.0
C510 C 0.8213 0.54185 0.23461 0.0
C511 C 0.79463 0.48878 0.26039 0.0
H512 H 0.79248 0.53967 0.29679 0.0
C513 C 0.7752 0.46297 0.33296 0.0
C514 C 0.79199 0.47406 0.34503 0.0
C515 C 0.7746 0.47141 0.31558 0.0
C516 C 0.79311 0.5252 0.2868 0.0
H517 H 0.78693 0.51045 0.19544 0.0
H518 H 0.77691 0.49665 0.22529 0.0
H519 H 0.79762 0.55285 0.26646 0.0
H520 H 0.82067 0.50329 0.34841 0.0
H521 H 0.81954 0.51801 0.31823 0.0
H522 H 0.79043 0.46112 0.28085 0.0
C523 C 0.79105 0.51138 0.22334 0.0
C524 C 0.7961 0.53275 0.2694 0.0
C525 C 0.79672 0.51933 0.20625 0.0
C526 C 0.8075 0.49433 0.33948 0.0
C527 C 0.80677 0.50286 0.32217 0.0
C528 C 0.79156 0.48122 0.27783 0.0
C529 C 0.80318 0.52271 0.23773 0.0
C530 C 0.79745 0.51462 0.256 0.0
C531 C 0.79058 0.49127 0.30994 0.0
C532 C 0.79128 0.49934 0.29128 0.0
H533 H 0.84101 0.56458 0.21584 0.0
H534 H 0.83144 0.55061 0.24532 0.0
H535 H 0.79578 0.47431 0.25043 0.0
H536 H 0.76301 0.4473 0.33678 0.0
H537 H 0.76173 0.46227 0.30652 0.0
C538 C 0.53989 0.79277 0.83175 0.0
C539 C 0.52202 0.8064 0.84163 0.0
C540 C 0.53562 0.78804 0.81402 0.0
C541 C 0.48558 0.78579 0.78014 0.0
H542 H 0.54033 0.80246 0.74814 0.0
C543 C 0.46771 0.80272 0.7069 0.0
C544 C 0.48635 0.79577 0.69468 0.0
C545 C 0.47236 0.80068 0.7248 0.0
C546 C 0.52495 0.79724 0.75685 0.0
H547 H 0.48524 0.82491 0.84074 0.0
H548 H 0.47772 0.81645 0.80989 0.0
H549 H 0.54765 0.80443 0.77953 0.0
H550 H 0.52438 0.78055 0.6918 0.0
H551 H 0.53237 0.77649 0.72314 0.0
H552 H 0.46282 0.77865 0.75755 0.0
C553 C 0.49503 0.80942 0.81585 0.0
C554 C 0.52916 0.79843 0.77488 0.0
C555 C 0.4994 0.81437 0.83353 0.0
C556 C 0.50963 0.78617 0.70085 0.0
C557 C 0.51426 0.78399 0.71883 0.0
C558 C 0.48142 0.7844 0.76213 0.0
C559 C 0.51327 0.79657 0.80582 0.0
C560 C 0.50939 0.79315 0.78672 0.0
C561 C 0.49574 0.79143 0.73105 0.0
C562 C 0.5009 0.79058 0.75022 0.0
H563 H 0.55753 0.78637 0.83757 0.0
H564 H 0.54991 0.77786 0.80668 0.0
H565 H 0.47008 0.78122 0.78893 0.0
H566 H 0.44957 0.8103 0.70268 0.0
H567 H 0.45779 0.80705 0.73374 0.0
C568 C 0.79917 0.51886 0.83852 0.0
C569 C 0.79917 0.54519 0.84151 0.0
C570 C 0.7963 0.50941 0.82157 0.0
C571 C 0.80526 0.52921 0.77555 0.0
H572 H 0.76883 0.46695 0.76534 0.0
C573 C 0.79624 0.49147 0.70511 0.0
C574 C 0.80106 0.4654 0.70304 0.0
C575 C 0.79285 0.5017 0.72179 0.0
C576 C 0.77918 0.48431 0.768 0.0
H577 H 0.79487 0.58215 0.82915 0.0
H578 H 0.78943 0.5657 0.7998 0.0
H579 H 0.76867 0.48362 0.79503 0.0
H580 H 0.80524 0.42952 0.71687 0.0
H581 H 0.79949 0.44733 0.7458 0.0
H582 H 0.81606 0.52975 0.74863 0.0
C583 C 0.79227 0.55233 0.81042 0.0
C584 C 0.77912 0.49384 0.78503 0.0
C585 C 0.79524 0.56176 0.8273 0.0
C586 C 0.80161 0.4497 0.71796 0.0
C587 C 0.79813 0.45989 0.73459 0.0
C588 C 0.80528 0.51971 0.75855 0.0
C589 C 0.79327 0.52608 0.80726 0.0
C590 C 0.79233 0.51632 0.78905 0.0
C591 C 0.79407 0.48606 0.73675 0.0
C592 C 0.79244 0.49703 0.75459 0.0
H593 H 0.80222 0.5056 0.84918 0.0
H594 H 0.79737 0.48907 0.8196 0.0
H595 H 0.81602 0.54631 0.77821 0.0
H596 H 0.79565 0.50407 0.69388 0.0
H597 H 0.78945 0.52191 0.72299 0.0
C598 C 0.47027 0.78111 0.32901 0.0
C599 C 0.48118 0.7968 0.34181 0.0
C600 C 0.47886 0.78207 0.31172 0.0
C601 C 0.50976 0.82631 0.28111 0.0
H602 H 0.51742 0.76731 0.25149 0.0
C603 C 0.55284 0.83509 0.21256 0.0
C604 C 0.54244 0.8206 0.19895 0.0
C605 C 0.54552 0.83088 0.22984 0.0
C606 C 0.51505 0.784 0.25952 0.0
H607 H 0.51056 0.8249 0.34659 0.0
H608 H 0.52559 0.82645 0.31648 0.0
H609 H 0.50549 0.7617 0.28215 0.0
H610 H 0.51621 0.79009 0.19289 0.0
H611 H 0.50294 0.78298 0.22321 0.0
H612 H 0.51887 0.84869 0.25861 0.0
C613 C 0.51013 0.81367 0.31978 0.0
C614 C 0.50831 0.78077 0.27711 0.0
C615 C 0.50163 0.81263 0.33707 0.0
C616 C 0.52457 0.80159 0.20308 0.0
C617 C 0.51709 0.79743 0.22046 0.0
C618 C 0.51634 0.82954 0.26358 0.0
C619 C 0.49847 0.79882 0.30681 0.0
C620 C 0.50579 0.8019 0.28814 0.0
C621 C 0.52739 0.81217 0.23405 0.0
C622 C 0.51931 0.80845 0.25256 0.0
H623 H 0.45451 0.76865 0.33219 0.0
H624 H 0.46939 0.77046 0.30205 0.0
H625 H 0.50738 0.84303 0.28912 0.0
H626 H 0.56685 0.84973 0.20993 0.0
H627 H 0.5543 0.84222 0.23994 0.0
C628 C 0.17461 0.45639 0.82688 0.0
C629 C 0.18863 0.4666 0.84081 0.0
C630 C 0.17915 0.46428 0.80975 0.0
C631 C 0.22613 0.49685 0.78116 0.0
H632 H 0.16757 0.50421 0.75078 0.0
C633 C 0.22867 0.54501 0.71251 0.0
C634 C 0.21385 0.53387 0.6993 0.0
C635 C 0.22777 0.53565 0.72964 0.0
C636 C 0.18417 0.50194 0.75902 0.0
H637 H 0.21865 0.49302 0.8476 0.0
H638 H 0.22625 0.50733 0.81756 0.0
H639 H 0.1615 0.49135 0.78101 0.0
H640 H 0.18742 0.5033 0.69363 0.0
H641 H 0.1859 0.487 0.72347 0.0
H642 H 0.24867 0.50804 0.75904 0.0
C643 C 0.21197 0.49287 0.81993 0.0
C644 C 0.1807 0.49455 0.77639 0.0
C645 C 0.20752 0.4848 0.83715 0.0
C646 C 0.199 0.51243 0.70347 0.0
C647 C 0.19798 0.50318 0.7206 0.0
C648 C 0.22958 0.50446 0.76375 0.0
C649 C 0.19768 0.48282 0.80601 0.0
C650 C 0.20163 0.49165 0.78767 0.0
C651 C 0.2119 0.51504 0.73396 0.0
C652 C 0.20862 0.50687 0.75245 0.0
H653 H 0.16011 0.44212 0.82916 0.0
H654 H 0.16817 0.45565 0.79938 0.0
H655 H 0.2427 0.49457 0.78941 0.0
H656 H 0.24037 0.56151 0.70975 0.0
H657 H 0.23866 0.54524 0.73964 0.0
C658 C 0.51644 0.2033 0.33653 0.0
C659 C 0.53813 0.21773 0.34062 0.0
C660 C 0.50737 0.20238 0.31939 0.0
C661 C 0.50969 0.23359 0.27603 0.0
H662 H 0.49539 0.16563 0.25936 0.0
C663 C 0.48954 0.21071 0.20287 0.0
C664 C 0.471 0.19206 0.19959 0.0
C665 C 0.49768 0.21545 0.22 0.0
C666 C 0.49894 0.18481 0.26382 0.0
H667 H 0.56646 0.2436 0.33006 0.0
H668 H 0.5505 0.24204 0.30014 0.0
H669 H 0.50831 0.17173 0.28949 0.0
H670 H 0.44583 0.16446 0.21179 0.0
H671 H 0.45947 0.17304 0.24136 0.0
H672 H 0.50008 0.24665 0.25029 0.0
C673 C 0.54057 0.23143 0.3102 0.0
C674 C 0.50636 0.18828 0.28113 0.0
C675 C 0.54975 0.23223 0.32734 0.0
C676 C 0.46041 0.17872 0.21378 0.0
C677 C 0.46835 0.18355 0.2308 0.0
C678 C 0.50205 0.23013 0.25867 0.0
C679 C 0.51968 0.21597 0.30596 0.0
C680 C 0.51166 0.2127 0.28749 0.0
C681 C 0.48734 0.2017 0.23416 0.0
C682 C 0.49639 0.20568 0.25239 0.0
H683 H 0.50696 0.19196 0.34642 0.0
H684 H 0.49097 0.19062 0.31658 0.0
H685 H 0.51359 0.25265 0.28058 0.0
H686 H 0.49805 0.22133 0.1922 0.0
H687 H 0.51245 0.22946 0.2221 0.0
C688 C 0.23555 0.45498 0.95969 0.0
C689 C 0.21901 0.46718 0.94792 0.0
C690 C 0.23605 0.46185 0.9773 0.0
C691 C 0.19423 0.48947 1.01052 0.0
H692 H 0.25475 0.48749 0.03939 0.0
C693 C 0.1878 0.50439 0.08473 0.0
C694 C 0.2015 0.48708 0.09512 0.0
C695 C 0.19245 0.50633 0.06679 0.0
C696 C 0.23765 0.488 0.03152 0.0
H697 H 0.19106 0.49723 0.94527 0.0
H698 H 0.19212 0.50936 0.97597 0.0
H699 H 0.2586 0.48336 1.00775 0.0
H700 H 0.23166 0.45902 0.09488 0.0
H701 H 0.23951 0.46213 0.06361 0.0
H702 H 0.17318 0.49335 0.0342 0.0
C703 C 0.20441 0.49417 0.97162 0.0
C704 C 0.23986 0.48566 1.01338 0.0
C705 C 0.20394 0.48733 0.95399 0.0
C706 C 0.22077 0.47259 0.08728 0.0
C707 C 0.22536 0.47446 0.06932 0.0
C708 C 0.19202 0.49176 0.02862 0.0
C709 C 0.22 0.48108 0.98358 0.0
C710 C 0.21813 0.48602 1.00267 0.0
C711 C 0.21085 0.49093 0.05877 0.0
C712 C 0.21365 0.4907 0.0394 0.0
H713 H 0.24745 0.43941 0.95547 0.0
H714 H 0.24814 0.45122 0.98614 0.0
H715 H 0.17704 0.48937 1.00273 0.0
H716 H 0.17296 0.516 0.09035 0.0
H717 H 0.18126 0.51957 0.05914 0.0
C718 C 0.51312 0.18639 0.45714 0.0
C719 C 0.52703 0.20195 0.44559 0.0
C720 C 0.51108 0.19262 0.47481 0.0
C721 C 0.5458 0.2277 0.50864 0.0
H722 H 0.48618 0.21314 0.53677 0.0
C723 C 0.54735 0.24269 0.58294 0.0
C724 C 0.53741 0.22263 0.59305 0.0
C725 C 0.54267 0.24399 0.56498 0.0
C726 C 0.50302 0.21722 0.52911 0.0
H727 H 0.54864 0.23699 0.44344 0.0
H728 H 0.54486 0.24797 0.47423 0.0
H729 H 0.48407 0.20863 0.50507 0.0
H730 H 0.51361 0.18893 0.59233 0.0
H731 H 0.50574 0.19101 0.56103 0.0
H732 H 0.565 0.2356 0.53259 0.0
C733 C 0.53586 0.23072 0.46966 0.0
C734 C 0.5018 0.21464 0.51094 0.0
C735 C 0.53788 0.2245 0.45198 0.0
C736 C 0.52159 0.20464 0.58494 0.0
C737 C 0.51697 0.20591 0.56697 0.0
C738 C 0.54703 0.23024 0.52677 0.0
C739 C 0.52292 0.21456 0.48137 0.0
C740 C 0.5233 0.21951 0.5005 0.0
C741 C 0.52799 0.22524 0.55668 0.0
C742 C 0.52577 0.2247 0.53728 0.0
H743 H 0.50449 0.16889 0.45267 0.0
H744 H 0.50117 0.17961 0.48346 0.0
H745 H 0.56286 0.23119 0.50108 0.0
H746 H 0.55945 0.25699 0.58877 0.0
H747 H 0.55105 0.25943 0.55752 0.0
C748 C 0.80574 0.52357 0.08858 0.0
C749 C 0.78714 0.5384 0.09686 0.0
C750 C 0.80451 0.51905 0.07062 0.0
C751 C 0.77869 0.54767 0.0304 0.0
H752 H 0.80275 0.48541 1.00928 0.0
C753 C 0.78657 0.53774 0.95555 0.0
C754 C 0.80976 0.52777 0.94957 0.0
C755 C 0.77989 0.53583 0.97321 0.0
C756 C 0.79603 0.50295 1.01498 0.0
H757 H 0.75194 0.55902 0.09286 0.0
H758 H 0.74963 0.55087 0.06156 0.0
H759 H 0.79788 0.48767 0.04093 0.0
H760 H 0.84349 0.50691 0.95733 0.0
H761 H 0.83192 0.5037 0.98801 0.0
H762 H 0.77742 0.56316 1.00452 0.0
C763 C 0.76543 0.5431 0.06892 0.0
C764 C 0.79326 0.50425 0.03312 0.0
C765 C 0.76665 0.54762 0.08689 0.0
C766 C 0.82551 0.51485 0.96148 0.0
C767 C 0.81879 0.51287 0.9791 0.0
C768 C 0.78143 0.54635 1.01226 0.0
C769 C 0.78463 0.52922 0.06048 0.0
C770 C 0.78501 0.5268 0.0411 0.0
C771 C 0.79616 0.5238 0.98527 0.0
C772 C 0.7906 0.52414 1.00434 0.0
H773 H 0.82179 0.51615 0.09583 0.0
H774 H 0.81978 0.50851 0.06458 0.0
H775 H 0.77265 0.56547 0.03607 0.0
H776 H 0.77396 0.54777 0.94672 0.0
H777 H 0.76215 0.54416 0.97749 0.0
C778 C 0.47428 0.78902 0.5869 0.0
C779 C 0.48765 0.80905 0.59483 0.0
C780 C 0.47666 0.78457 0.56896 0.0
C781 C 0.4926 0.81944 0.5285 0.0
H782 H 0.48785 0.75302 0.50711 0.0
C783 C 0.49208 0.80888 0.45374 0.0
C784 C 0.47352 0.79247 0.44686 0.0
C785 C 0.49767 0.80863 0.4716 0.0
C786 C 0.48907 0.77172 0.51289 0.0
H787 H 0.51539 0.83892 0.59031 0.0
H788 H 0.51989 0.83086 0.55918 0.0
H789 H 0.49111 0.75637 0.53885 0.0
H790 H 0.44712 0.76213 0.45334 0.0
H791 H 0.45669 0.76187 0.48446 0.0
H792 H 0.49003 0.83487 0.50269 0.0
C793 C 0.50705 0.81899 0.56671 0.0
C794 C 0.49094 0.77364 0.53109 0.0
C795 C 0.50461 0.82349 0.58461 0.0
C796 C 0.46151 0.77504 0.45817 0.0
C797 C 0.46711 0.7748 0.47604 0.0
C798 C 0.49075 0.81753 0.51036 0.0
C799 C 0.49253 0.79998 0.55855 0.0
C800 C 0.49247 0.79755 0.53914 0.0
C801 C 0.48485 0.79198 0.48305 0.0
C802 C 0.4887 0.79367 0.5023 0.0
H803 H 0.46103 0.77752 0.59436 0.0
H804 H 0.46506 0.76987 0.56313 0.0
H805 H 0.49321 0.83821 0.53422 0.0
H806 H 0.5018 0.82247 0.44541 0.0
H807 H 0.51177 0.82182 0.47649 0.0
C808 C 0.18741 0.51383 0.4602 0.0
C809 C 0.20341 0.52676 0.44841 0.0
C810 C 0.19376 0.51197 0.47789 0.0
C811 C 0.23038 0.54606 0.51122 0.0
H812 H 0.21282 0.48797 0.5402 0.0
C813 C 0.24313 0.54866 0.58602 0.0
C814 C 0.22234 0.53963 0.5958 0.0
C815 C 0.24478 0.54387 0.56809 0.0
C816 C 0.21775 0.50439 0.5323 0.0
H817 H 0.23935 0.54672 0.44586 0.0
H818 H 0.25054 0.54328 0.47673 0.0
H819 H 0.20887 0.48506 0.50852 0.0
H820 H 0.18753 0.51752 0.59449 0.0
H821 H 0.19028 0.50941 0.56332 0.0
H822 H 0.23855 0.56565 0.53495 0.0
C823 C 0.23287 0.53491 0.47231 0.0
C824 C 0.21551 0.50271 0.51413 0.0
C825 C 0.22654 0.53671 0.45459 0.0
C826 C 0.20381 0.52479 0.58738 0.0
C827 C 0.20547 0.52 0.56948 0.0
C828 C 0.2326 0.54775 0.52937 0.0
C829 C 0.21628 0.52301 0.48425 0.0
C830 C 0.22134 0.52369 0.50338 0.0
C831 C 0.2257 0.52991 0.55953 0.0
C832 C 0.22587 0.52709 0.54017 0.0
H833 H 0.16947 0.50589 0.45591 0.0
H834 H 0.18041 0.50288 0.4867 0.0
H835 H 0.23468 0.56272 0.50338 0.0
H836 H 0.2578 0.56006 0.59209 0.0
H837 H 0.26083 0.55146 0.56088 0.0
C838 C 0.50721 0.18595 0.95489 0.0
C839 C 0.49025 0.20003 0.94448 0.0
C840 C 0.50915 0.19053 0.97282 0.0
C841 C 0.49152 0.23597 1.008 0.0
H842 H 0.49171 0.17526 0.03694 0.0
C843 C 0.45885 0.2344 0.08009 0.0
C844 C 0.47093 0.21773 0.09185 0.0
C845 C 0.46549 0.2347 0.06241 0.0
C846 C 0.49213 0.19246 0.02911 0.0
H847 H 0.46286 0.23079 0.94465 0.0
H848 H 0.46596 0.23853 0.9759 0.0
H849 H 0.49563 0.17144 1.00546 0.0
H850 H 0.50047 0.18923 0.09435 0.0
H851 H 0.5122 0.18991 0.06353 0.0
H852 H 0.48727 0.2569 0.03175 0.0
C853 C 0.47802 0.22412 0.97022 0.0
C854 C 0.49439 0.19028 1.011 0.0
C855 C 0.47616 0.21961 0.95227 0.0
C856 C 0.49068 0.20223 0.08566 0.0
C857 C 0.49729 0.20249 0.06795 0.0
C858 C 0.4892 0.23815 0.02615 0.0
C859 C 0.49409 0.20922 0.9808 0.0
C860 C 0.4938 0.21196 1.00017 0.0
C861 C 0.48437 0.2183 0.05604 0.0
C862 C 0.48915 0.21639 0.03691 0.0
H863 H 0.51851 0.17086 0.94931 0.0
H864 H 0.52211 0.17904 0.98049 0.0
H865 H 0.49136 0.2531 1.0001 0.0
H866 H 0.44357 0.24663 0.0844 0.0
H867 H 0.45499 0.24697 0.0536 0.0
C868 C 0.77078 0.46033 0.45744 0.0
C869 C 0.79108 0.46994 0.44744 0.0
C870 C 0.76928 0.46522 0.47534 0.0
C871 C 0.79613 0.50506 0.51107 0.0
H872 H 0.78034 0.44613 0.53972 0.0
C873 C 0.82603 0.4954 0.58339 0.0
C874 C 0.80996 0.48224 0.59501 0.0
C875 C 0.81998 0.49728 0.56565 0.0
C876 C 0.78434 0.46294 0.53197 0.0
H877 H 0.82509 0.49329 0.44832 0.0
H878 H 0.82269 0.5015 0.47952 0.0
H879 H 0.77645 0.44346 0.50817 0.0
H880 H 0.77424 0.46179 0.5972 0.0
H881 H 0.76359 0.46524 0.56625 0.0
H882 H 0.80478 0.52426 0.53496 0.0
C883 C 0.80773 0.4904 0.47353 0.0
C884 C 0.78209 0.46142 0.51382 0.0
C885 C 0.80918 0.48558 0.45561 0.0
C886 C 0.7871 0.472 0.58861 0.0
C887 C 0.78108 0.47382 0.57084 0.0
C888 C 0.79844 0.50657 0.52925 0.0
C889 C 0.7881 0.47977 0.48371 0.0
C890 C 0.78831 0.48233 0.5031 0.0
C891 C 0.79772 0.486 0.55908 0.0
C892 C 0.79293 0.48539 0.53991 0.0
H893 H 0.75639 0.44837 0.45155 0.0
H894 H 0.75361 0.45715 0.4827 0.0
H895 H 0.8007 0.52167 0.50326 0.0
H896 H 0.84378 0.50356 0.58786 0.0
H897 H 0.83335 0.5066 0.55697 0.0
C898 C 0.53863 0.78604 0.08401 0.0
C899 C 0.53838 0.81185 0.0886 0.0
C900 C 0.53396 0.77877 0.06671 0.0
C901 C 0.50651 0.80021 0.02479 0.0
H902 H 0.56181 0.76339 1.00318 0.0
C903 C 0.5266 0.80664 0.95114 0.0
C904 C 0.53911 0.78666 0.94262 0.0
C905 C 0.52179 0.80538 0.96907 0.0
C906 C 0.54581 0.77313 1.00896 0.0
H907 H 0.53159 0.85009 0.07905 0.0
H908 H 0.52277 0.83738 0.0491 0.0
H909 H 0.56105 0.76847 0.03474 0.0
H910 H 0.55482 0.74891 0.94609 0.0
H911 H 0.54562 0.74628 0.97726 0.0
H912 H 0.49128 0.80513 0.9991 0.0
C913 C 0.5268 0.82278 0.05874 0.0
C914 C 0.54545 0.77608 0.02711 0.0
C915 C 0.532 0.83006 0.07586 0.0
C916 C 0.54535 0.76475 0.95228 0.0
C917 C 0.54025 0.76334 0.97021 0.0
C918 C 0.50665 0.79696 1.00667 0.0
C919 C 0.52833 0.79715 0.05386 0.0
C920 C 0.52622 0.79029 0.03514 0.0
C921 C 0.52905 0.78394 0.97897 0.0
C922 C 0.52674 0.78408 0.99842 0.0
H923 H 0.54364 0.77164 0.09357 0.0
H924 H 0.53522 0.75887 0.06328 0.0
H925 H 0.4913 0.81105 0.03068 0.0
H926 H 0.5216 0.82386 0.94413 0.0
H927 H 0.51347 0.82182 0.97527 0.0
C928 C 0.2285 0.36531 0.15521 0.0
C929 C 0.22477 0.37596 0.13853 0.0
C930 C 0.24378 0.34381 0.15742 0.0
C931 C 0.27542 0.291 0.13373 0.0
H932 H 0.32408 0.29519 0.17163 0.0
C933 C 0.36701 0.23009 0.13725 0.0
C934 C 0.37572 0.22226 0.15378 0.0
C935 C 0.34578 0.24596 0.13571 0.0
C936 C 0.31037 0.29342 0.16116 0.0
H937 H 0.23328 0.3716 0.11099 0.0
H938 H 0.26007 0.33432 0.11487 0.0
H939 H 0.29177 0.32781 0.16847 0.0
H940 H 0.3681 0.22386 0.18159 0.0
H941 H 0.33096 0.25113 0.17888 0.0
H942 H 0.29448 0.25678 0.12624 0.0
C943 C 0.25104 0.34243 0.12624 0.0
C944 C 0.29179 0.31217 0.15935 0.0
C945 C 0.23576 0.36393 0.12403 0.0
C946 C 0.36206 0.22971 0.16866 0.0
C947 C 0.34083 0.24549 0.16712 0.0
C948 C 0.29405 0.27218 0.13555 0.0
C949 C 0.2557 0.33243 0.143 0.0
C950 C 0.27422 0.31135 0.14553 0.0
C951 C 0.33276 0.25429 0.15066 0.0
C952 C 0.3119 0.2733 0.1492 0.0
H953 H 0.22021 0.374 0.16666 0.0
H954 H 0.24662 0.33634 0.17048 0.0
H955 H 0.26199 0.28962 0.12306 0.0
H956 H 0.37711 0.22473 0.12552 0.0
H957 H 0.34024 0.25252 0.12283 0.0
C958 C 0.78029 0.36305 0.65405 0.0
C959 C 0.78585 0.37372 0.6376 0.0
C960 C 0.76458 0.34164 0.65547 0.0
C961 C 0.71299 0.30994 0.63171 0.0
H962 H 0.72272 0.25564 0.66547 0.0
C963 C 0.64234 0.22692 0.63593 0.0
C964 C 0.63478 0.21907 0.65272 0.0
C965 C 0.66321 0.24305 0.63367 0.0
C966 C 0.71964 0.27076 0.65607 0.0
H967 H 0.78032 0.36938 0.6097 0.0
H968 H 0.75314 0.33199 0.6122 0.0
H969 H 0.75512 0.28874 0.66228 0.0
H970 H 0.64387 0.22132 0.68028 0.0
H971 H 0.68004 0.24989 0.67638 0.0
H972 H 0.67735 0.29257 0.62575 0.0
C973 C 0.76058 0.34044 0.62402 0.0
C974 C 0.73823 0.2897 0.65422 0.0
C975 C 0.77629 0.36179 0.62258 0.0
C976 C 0.64921 0.22695 0.66716 0.0
C977 C 0.67004 0.24328 0.66491 0.0
C978 C 0.69443 0.29114 0.63359 0.0
C979 C 0.75406 0.33045 0.64049 0.0
C980 C 0.73506 0.30956 0.64204 0.0
C981 C 0.67697 0.25196 0.64816 0.0
C982 C 0.69743 0.27132 0.64582 0.0
H983 H 0.78735 0.37174 0.66588 0.0
H984 H 0.75982 0.33453 0.66836 0.0
H985 H 0.70968 0.32524 0.62246 0.0
H986 H 0.6318 0.22101 0.62449 0.0
H987 H 0.66833 0.24886 0.62055 0.0
C988 C 0.78285 0.64972 0.12494 0.0
C989 C 0.7903 0.63488 0.13938 0.0
C990 C 0.76638 0.67035 0.12708 0.0
C991 C 0.71665 0.69245 0.15714 0.0
H992 H 0.72119 0.7557 0.13108 0.0
C993 C 0.64531 0.77244 0.1693 0.0
C994 C 0.6348 0.78435 0.15451 0.0
C995 C 0.66671 0.75695 0.1678 0.0
C996 C 0.71958 0.73807 0.13836 0.0
H997 H 0.78737 0.63099 0.16754 0.0
H998 H 0.759 0.66701 0.17126 0.0
H999 H 0.75441 0.72356 0.1278 0.0
H1000 H 0.63932 0.79031 0.12665 0.0
H1001 H 0.67655 0.76292 0.12397 0.0
H1002 H 0.68174 0.7065 0.16746 0.0
C1003 C 0.76543 0.66243 0.15823 0.0
C1004 C 0.73861 0.71967 0.13649 0.0
C1005 C 0.78184 0.64184 0.15609 0.0
C1006 C 0.64696 0.78141 0.1383 0.0
C1007 C 0.66836 0.76576 0.13678 0.0
C1008 C 0.69769 0.71075 0.15898 0.0
C1009 C 0.75701 0.67657 0.14372 0.0
C1010 C 0.73735 0.69664 0.14588 0.0
C1011 C 0.67808 0.75281 0.15146 0.0
C1012 C 0.69888 0.73381 0.14965 0.0
H1013 H 0.78902 0.64489 0.11188 0.0
H1014 H 0.76016 0.68075 0.11562 0.0
H1015 H 0.71473 0.67471 0.16426 0.0
H1016 H 0.6366 0.77452 0.18203 0.0
H1017 H 0.67405 0.74778 0.17945 0.0
C1018 C 0.22819 0.64275 0.6544 0.0
C1019 C 0.21791 0.63572 0.63818 0.0
C1020 C 0.2438 0.66418 0.65579 0.0
C1021 C 0.28696 0.70369 0.62947 0.0
H1022 H 0.28598 0.74773 0.66986 0.0
C1023 C 0.35998 0.78479 0.63705 0.0
C1024 C 0.37131 0.78681 0.65361 0.0
C1025 C 0.33828 0.76977 0.63467 0.0
C1026 C 0.2866 0.73553 0.65854 0.0
H1027 H 0.21528 0.64627 0.61081 0.0
H1028 H 0.24246 0.68373 0.61329 0.0
H1029 H 0.25334 0.71505 0.66664 0.0
H1030 H 0.36802 0.77544 0.6808 0.0
H1031 H 0.33056 0.74907 0.67662 0.0
H1032 H 0.32059 0.72356 0.62159 0.0
C1033 C 0.23864 0.67248 0.62489 0.0
C1034 C 0.26787 0.71682 0.65669 0.0
C1035 C 0.22294 0.65108 0.6235 0.0
C1036 C 0.35982 0.77433 0.66785 0.0
C1037 C 0.33819 0.75928 0.66547 0.0
C1038 C 0.30573 0.72233 0.63134 0.0
C1039 C 0.24957 0.67906 0.641 0.0
C1040 C 0.26805 0.70042 0.64226 0.0
C1041 C 0.32742 0.75639 0.64879 0.0
C1042 C 0.30602 0.73824 0.64603 0.0
H1043 H 0.22472 0.63136 0.66598 0.0
H1044 H 0.2521 0.66854 0.66837 0.0
H1045 H 0.28789 0.69116 0.61832 0.0
H1046 H 0.36825 0.79427 0.62581 0.0
H1047 H 0.33024 0.76832 0.6217 0.0
C1048 C 0.37593 0.7768 0.38513 0.0
C1049 C 0.37809 0.79282 0.39968 0.0
C1050 C 0.35515 0.76047 0.38338 0.0
C1051 C 0.30647 0.72732 0.4096 0.0
H1052 H 0.27983 0.70999 0.36398 0.0
C1053 C 0.23089 0.64816 0.39988 0.0
C1054 C 0.23761 0.63032 0.3871 0.0
C1055 C 0.24409 0.67125 0.40115 0.0
C1056 C 0.28704 0.71466 0.37681 0.0
H1057 H 0.35957 0.80478 0.42355 0.0
H1058 H 0.32304 0.7764 0.42038 0.0
H1059 H 0.31001 0.74497 0.36676 0.0
H1060 H 0.26264 0.62316 0.36518 0.0
H1061 H 0.28537 0.66331 0.36729 0.0
H1062 H 0.28377 0.69663 0.41957 0.0
C1063 C 0.33767 0.77625 0.41044 0.0
C1064 C 0.3044 0.73465 0.37841 0.0
C1065 C 0.35855 0.79263 0.4122 0.0
C1066 C 0.25704 0.63645 0.37521 0.0
C1067 C 0.26998 0.65956 0.37635 0.0
C1068 C 0.28896 0.70739 0.40801 0.0
C1069 C 0.33588 0.75974 0.3961 0.0
C1070 C 0.31489 0.74079 0.39476 0.0
C1071 C 0.26397 0.67705 0.3895 0.0
C1072 C 0.27959 0.70042 0.39153 0.0
H1073 H 0.39062 0.77638 0.37523 0.0
H1074 H 0.35468 0.74777 0.37231 0.0
H1075 H 0.3143 0.73132 0.42237 0.0
H1076 H 0.21602 0.64396 0.40925 0.0
H1077 H 0.23895 0.68444 0.41136 0.0
C1078 C 0.36671 0.23417 0.91666 0.0
C1079 C 0.3786 0.22294 0.90219 0.0
C1080 C 0.34498 0.24914 0.91447 0.0
C1081 C 0.31381 0.28879 0.88117 0.0
H1082 H 0.25868 0.29141 0.91471 0.0
C1083 C 0.23064 0.35831 0.87191 0.0
C1084 C 0.22308 0.37192 0.88676 0.0
C1085 C 0.24666 0.33726 0.87348 0.0
C1086 C 0.27401 0.29101 0.90528 0.0
H1087 H 0.37614 0.21759 0.87417 0.0
H1088 H 0.33812 0.24349 0.8704 0.0
H1089 H 0.29194 0.25937 0.918 0.0
H1090 H 0.22566 0.37343 0.915 0.0
H1091 H 0.25389 0.33694 0.91772 0.0
H1092 H 0.29639 0.32071 0.86868 0.0
C1093 C 0.34586 0.24107 0.88341 0.0
C1094 C 0.29305 0.27263 0.90716 0.0
C1095 C 0.36758 0.22609 0.88559 0.0
C1096 C 0.23109 0.36336 0.90329 0.0
C1097 C 0.24721 0.34234 0.90486 0.0
C1098 C 0.29485 0.30715 0.87931 0.0
C1099 C 0.33463 0.25324 0.89777 0.0
C1100 C 0.31332 0.27146 0.89521 0.0
C1101 C 0.25562 0.32935 0.88994 0.0
C1102 C 0.27482 0.30866 0.89142 0.0
H1103 H 0.37466 0.23212 0.92963 0.0
H1104 H 0.33696 0.25837 0.9258 0.0
H1105 H 0.32937 0.28878 0.87191 0.0
H1106 H 0.22465 0.36424 0.85898 0.0
H1107 H 0.25235 0.32741 0.86174 0.0
C1108 C 0.64657 0.2303 0.38553 0.0
C1109 C 0.6369 0.22384 0.4021 0.0
C1110 C 0.66802 0.24594 0.38393 0.0
C1111 C 0.70173 0.2958 0.40804 0.0
H1112 H 0.75429 0.28704 0.37312 0.0
C1113 C 0.78587 0.36517 0.40393 0.0
C1114 C 0.79322 0.37342 0.38719 0.0
C1115 C 0.7694 0.34452 0.406 0.0
C1116 C 0.73965 0.28987 0.38285 0.0
H1117 H 0.643 0.22774 0.42998 0.0
H1118 H 0.6804 0.25482 0.42717 0.0
H1119 H 0.72076 0.25507 0.37621 0.0
H1120 H 0.78973 0.36581 0.35949 0.0
H1121 H 0.76057 0.33005 0.36308 0.0
H1122 H 0.72 0.33079 0.41445 0.0
C1123 C 0.67117 0.24813 0.41541 0.0
C1124 C 0.72047 0.27152 0.38463 0.0
C1125 C 0.6498 0.23248 0.41701 0.0
C1126 C 0.78449 0.3599 0.37258 0.0
C1127 C 0.76783 0.33932 0.37465 0.0
C1128 C 0.72077 0.31415 0.40622 0.0
C1129 C 0.68022 0.2555 0.39886 0.0
C1130 C 0.70126 0.27432 0.39724 0.0
C1131 C 0.75965 0.33169 0.39138 0.0
C1132 C 0.73998 0.31148 0.39359 0.0
H1133 H 0.63711 0.22396 0.37377 0.0
H1134 H 0.67441 0.25138 0.371 0.0
H1135 H 0.68694 0.29883 0.41764 0.0
H1136 H 0.79243 0.375 0.41547 0.0
H1137 H 0.764 0.33883 0.4191 0.0
C1138 C 0.78117 0.64958 0.92121 0.0
C1139 C 0.78941 0.63632 0.90638 0.0
C1140 C 0.766 0.67125 0.91947 0.0
C1141 C 0.74238 0.71936 0.88746 0.0
H1142 H 0.68398 0.72129 0.91829 0.0
C1143 C 0.65109 0.77621 0.87208 0.0
C1144 C 0.63776 0.78735 0.88597 0.0
C1145 C 0.67257 0.76127 0.87526 0.0
C1146 C 0.7004 0.72136 0.90976 0.0
H1147 H 0.7891 0.63617 0.87804 0.0
H1148 H 0.76241 0.67366 0.87504 0.0
H1149 H 0.71638 0.68902 0.92266 0.0
H1150 H 0.63732 0.7925 0.91405 0.0
H1151 H 0.67492 0.76661 0.91957 0.0
H1152 H 0.72588 0.75136 0.87427 0.0
C1153 C 0.76787 0.66753 0.88802 0.0
C1154 C 0.71903 0.70282 0.91228 0.0
C1155 C 0.78309 0.6459 0.88976 0.0
C1156 C 0.64705 0.7841 0.90305 0.0
C1157 C 0.66852 0.76912 0.90623 0.0
C1158 C 0.72368 0.73791 0.88492 0.0
C1159 C 0.75866 0.68015 0.90287 0.0
C1160 C 0.7401 0.70135 0.90102 0.0
C1161 C 0.68123 0.7571 0.89241 0.0
C1162 C 0.70229 0.73891 0.89591 0.0
H1163 H 0.78584 0.64284 0.9342 0.0
H1164 H 0.75964 0.68078 0.93117 0.0
H1165 H 0.75854 0.71902 0.8787 0.0
H1166 H 0.64448 0.77833 0.85876 0.0
H1167 H 0.68175 0.75212 0.86432 0.0
loop_
_geom_bond_atom_site_label_1
_geom_bond_atom_site_label_2
_geom_bond_distance
_geom_bond_site_symmetry_2
_ccdc_geom_bond_type
Mg0 O7 2.141 . S
Mg0 O8 2.048 . S
Mg0 O9 2.048 . S
Mg0 O12 2.141 . S
C1 O2 1.313 . S
C1 O8 1.195 . S
O2 C1 1.313 . S
C3 O4 1.245 . S
C3 O12 1.289 . S
O4 C3 1.245 . S
C5 O6 1.245 . S
C5 O7 1.289 . S
O6 C5 1.245 . S
O7 Mg0 2.141 . S
O7 C5 1.289 . S
O8 Mg0 2.048 . S
O8 C1 1.195 . S
O9 Mg0 2.048 . S
O9 C10 1.195 . S
C10 O9 1.195 . S
C10 O11 1.313 . S
O11 C10 1.313 . S
O12 Mg0 2.141 . S
O12 C3 1.289 . S
Mg13 O20 2.141 . S
Mg13 O21 2.048 . S
Mg13 O22 2.048 . S
Mg13 O25 2.141 . S
C14 O15 1.313 . S
C14 O21 1.195 . S
O15 C14 1.313 . S
C16 O17 1.245 . S
C16 O25 1.289 . S
O17 C16 1.245 . S
C18 O19 1.245 . S
C18 O20 1.289 . S
O19 C18 1.245 . S
O20 Mg13 2.141 . S
O20 C18 1.289 . S
O21 Mg13 2.048 . S
O21 C14 1.195 . S
O22 Mg13 2.048 . S
O22 C23 1.195 . S
C23 O22 1.195 . S
C23 O24 1.313 . S
O24 C23 1.313 . S
O25 Mg13 2.141 . S
O25 C16 1.289 . S
Mg26 O33 2.141 . S
Mg26 O34 2.048 . S
Mg26 O35 2.048 . S
Mg26 O38 2.141 . S
C27 O28 1.313 . S
C27 O34 1.195 . S
O28 C27 1.313 . S
C29 O30 1.245 . S
C29 O38 1.289 . S
O30 C29 1.245 . S
C31 O32 1.245 . S
C31 O33 1.289 . S
O32 C31 1.245 . S
O33 Mg26 2.141 . S
O33 C31 1.289 . S
O34 Mg26 2.048 . S
O34 C27 1.195 . S
O35 Mg26 2.048 . S
O35 C36 1.195 . S
C36 O35 1.195 . S
C36 O37 1.313 . S
O37 C36 1.313 . S
O38 Mg26 2.141 . S
O38 C29 1.289 . S
Mg39 O46 2.141 . S
Mg39 O47 2.048 . S
Mg39 O48 2.048 . S
Mg39 O51 2.141 . S
C40 O41 1.313 . S
C40 O47 1.195 . S
O41 C40 1.313 . S
C42 O43 1.245 . S
C42 O51 1.289 . S
O43 C42 1.245 . S
C44 O45 1.245 . S
C44 O46 1.289 . S
O45 C44 1.245 . S
O46 Mg39 2.141 . S
O46 C44 1.289 . S
O47 Mg39 2.048 . S
O47 C40 1.195 . S
O48 Mg39 2.048 . S
O48 C49 1.195 . S
C49 O48 1.195 . S
C49 O50 1.313 . S
O50 C49 1.313 . S
O51 Mg39 2.141 . S
O51 C42 1.289 . S
Mg52 O59 2.141 . S
Mg52 O60 2.048 . S
Mg52 O61 2.048 . S
Mg52 O64 2.141 . S
C53 O54 1.313 . S
C53 O60 1.195 . S
O54 C53 1.313 . S
C55 O56 1.245 . S
C55 O64 1.289 . S
O56 C55 1.245 . S
C57 O58 1.245 . S
C57 O59 1.289 . S
O58 C57 1.245 . S
O59 Mg52 2.141 . S
O59 C57 1.289 . S
O60 Mg52 2.048 . S
O60 C53 1.195 . S
O61 Mg52 2.048 . S
O61 C62 1.195 . S
C62 O61 1.195 . S
C62 O63 1.313 . S
O63 C62 1.313 . S
O64 Mg52 2.141 . S
O64 C55 1.289 . S
Mg65 O72 2.141 . S
Mg65 O73 2.048 . S
Mg65 O74 2.048 . S
Mg65 O77 2.141 . S
C66 O67 1.313 . S
C66 O73 1.195 . S
O67 C66 1.313 . S
C68 O69 1.245 . S
C68 O77 1.289 . S
O69 C68 1.245 . S
C70 O71 1.245 . S
C70 O72 1.289 . S
O71 C70 1.245 . S
O72 Mg65 2.141 . S
O72 C70 1.289 . S
O73 Mg65 2.048 . S
O73 C66 1.195 . S
O74 Mg65 2.048 . S
O74 C75 1.195 . S
C75 O74 1.195 . S
C75 O76 1.313 . S
O76 C75 1.313 . S
O77 Mg65 2.141 . S
O77 C68 1.289 . S
Mg78 O85 2.141 . S
Mg78 O86 2.048 . S
Mg78 O87 2.048 . S
Mg78 O90 2.141 . S
C79 O80 1.313 . S
C79 O86 1.195 . S
O80 C79 1.313 . S
C81 O82 1.245 . S
C81 O90 1.289 . S
O82 C81 1.245 . S
C83 O84 1.245 . S
C83 O85 1.289 . S
O84 C83 1.245 . S
O85 Mg78 2.141 . S
O85 C83 1.289 . S
O86 Mg78 2.048 . S
O86 C79 1.195 . S
O87 Mg78 2.048 . S
O87 C88 1.195 . S
C88 O87 1.195 . S
C88 O89 1.313 . S
O89 C88 1.313 . S
O90 Mg78 2.141 . S
O90 C81 1.289 . S
Mg91 O98 2.141 . S
Mg91 O99 2.048 . S
Mg91 O100 2.048 . S
Mg91 O103 2.141 . S
C92 O93 1.313 . S
C92 O99 1.195 . S
O93 C92 1.313 . S
C94 O95 1.245 . S
C94 O103 1.289 . S
O95 C94 1.245 . S
C96 O97 1.245 . S
C96 O98 1.289 . S
O97 C96 1.245 . S
O98 Mg91 2.141 . S
O98 C96 1.289 . S
O99 Mg91 2.048 . S
O99 C92 1.195 . S
O100 Mg91 2.048 . S
O100 C101 1.195 . S
C101 O100 1.195 . S
C101 O102 1.313 . S
O102 C101 1.313 . S
O103 Mg91 2.141 . S
O103 C94 1.289 . S
Mg104 O111 2.141 . S
Mg104 O112 2.048 . S
Mg104 O113 2.048 . S
Mg104 O116 2.141 . S
C105 O106 1.313 . S
C105 O112 1.195 . S
O106 C105 1.313 . S
C107 O108 1.245 . S
C107 O116 1.289 . S
O108 C107 1.245 . S
C109 O110 1.245 . S
C109 O111 1.289 . S
O110 C109 1.245 . S
O111 Mg104 2.141 . S
O111 C109 1.289 . S
O112 Mg104 2.048 . S
O112 C105 1.195 . S
O113 Mg104 2.048 . S
O113 C114 1.195 . S
C114 O113 1.195 . S
C114 O115 1.313 . S
O115 C114 1.313 . S
O116 Mg104 2.141 . S
O116 C107 1.289 . S
Mg117 O124 2.141 . S
Mg117 O125 2.048 . S
Mg117 O126 2.048 . S
Mg117 O129 2.141 . S
C118 O119 1.313 . S
C118 O125 1.195 . S
O119 C118 1.313 . S
C120 O121 1.245 . S
C120 O129 1.289 . S
O121 C120 1.245 . S
C122 O123 1.245 . S
C122 O124 1.289 . S
O123 C122 1.245 . S
O124 Mg117 2.141 . S
O124 C122 1.289 . S
O125 Mg117 2.048 . S
O125 C118 1.195 . S
O126 Mg117 2.048 . S
O126 C127 1.195 . S
C127 O126 1.195 . S
C127 O128 1.313 . S
O128 C127 1.313 . S
O129 Mg117 2.141 . S
O129 C120 1.289 . S
Mg130 O137 2.141 . S
Mg130 O138 2.048 . S
Mg130 O139 2.048 . S
Mg130 O142 2.141 . S
C131 O132 1.313 . S
C131 O138 1.195 . S
O132 C131 1.313 . S
C133 O134 1.245 . S
C133 O142 1.289 . S
O134 C133 1.245 . S
C135 O136 1.245 . S
C135 O137 1.289 . S
O136 C135 1.245 . S
O137 Mg130 2.141 . S
O137 C135 1.289 . S
O138 Mg130 2.048 . S
O138 C131 1.195 . S
O139 Mg130 2.048 . S
O139 C140 1.195 . S
C140 O139 1.195 . S
C140 O141 1.313 . S
O141 C140 1.313 . S
O142 Mg130 2.141 . S
O142 C133 1.289 . S
Mg143 O150 2.141 . S
Mg143 O151 2.048 . S
Mg143 O152 2.048 . S
Mg143 O155 2.141 . S
C144 O145 1.313 . S
C144 O151 1.195 . S
O145 C144 1.313 . S
C146 O147 1.245 . S
C146 O155 1.289 . S
O147 C146 1.245 . S
C148 O149 1.245 . S
C148 O150 1.289 . S
O149 C148 1.245 . S
O150 Mg143 2.141 . S
O150 C148 1.289 . S
O151 Mg143 2.048 . S
O151 C144 1.195 . S
O152 Mg143 2.048 . S
O152 C153 1.195 . S
C153 O152 1.195 . S
C153 O154 1.313 . S
O154 C153 1.313 . S
O155 Mg143 2.141 . S
O155 C146 1.289 . S
Mg156 O163 2.141 . S
Mg156 O164 2.048 . S
Mg156 O165 2.048 . S
Mg156 O168 2.141 . S
C157 O158 1.313 . S
C157 O164 1.195 . S
O158 C157 1.313 . S
C159 O160 1.245 . S
C159 O168 1.289 . S
O160 C159 1.245 . S
C161 O162 1.245 . S
C161 O163 1.289 . S
O162 C161 1.245 . S
O163 Mg156 2.141 . S
O163 C161 1.289 . S
O164 Mg156 2.048 . S
O164 C157 1.195 . S
O165 Mg156 2.048 . S
O165 C166 1.195 . S
C166 O165 1.195 . S
C166 O167 1.313 . S
O167 C166 1.313 . S
O168 Mg156 2.141 . S
O168 C159 1.289 . S
Mg169 O176 2.141 . S
Mg169 O177 2.048 . S
Mg169 O178 2.048 . S
Mg169 O181 2.141 . S
C170 O171 1.313 . S
C170 O177 1.195 . S
O171 C170 1.313 . S
C172 O173 1.245 . S
C172 O181 1.289 . S
O173 C172 1.245 . S
C174 O175 1.245 . S
C174 O176 1.289 . S
O175 C174 1.245 . S
O176 Mg169 2.141 . S
O176 C174 1.289 . S
O177 Mg169 2.048 . S
O177 C170 1.195 . S
O178 Mg169 2.048 . S
O178 C179 1.195 . S
C179 O178 1.195 . S
C179 O180 1.313 . S
O180 C179 1.313 . S
O181 Mg169 2.141 . S
O181 C172 1.289 . S
Mg182 O189 2.141 . S
Mg182 O190 2.048 . S
Mg182 O191 2.048 . S
Mg182 O194 2.141 . S
C183 O184 1.313 . S
C183 O190 1.195 . S
O184 C183 1.313 . S
C185 O186 1.245 . S
C185 O194 1.289 . S
O186 C185 1.245 . S
C187 O188 1.245 . S
C187 O189 1.289 . S
O188 C187 1.245 . S
O189 Mg182 2.141 . S
O189 C187 1.289 . S
O190 Mg182 2.048 . S
O190 C183 1.195 . S
O191 Mg182 2.048 . S
O191 C192 1.195 . S
C192 O191 1.195 . S
C192 O193 1.313 . S
O193 C192 1.313 . S
O194 Mg182 2.141 . S
O194 C185 1.289 . S
Mg195 O202 2.141 . S
Mg195 O203 2.048 . S
Mg195 O204 2.048 . S
Mg195 O207 2.141 . S
C196 O197 1.313 . S
C196 O203 1.195 . S
O197 C196 1.313 . S
C198 O199 1.245 . S
C198 O207 1.289 . S
O199 C198 1.245 . S
C200 O201 1.245 . S
C200 O202 1.289 . S
O201 C200 1.245 . S
O202 Mg195 2.141 . S
O202 C200 1.289 . S
O203 Mg195 2.048 . S
O203 C196 1.195 . S
O204 Mg195 2.048 . S
O204 C205 1.195 . S
C205 O204 1.195 . S
C205 O206 1.313 . S
O206 C205 1.313 . S
O207 Mg195 2.141 . S
O207 C198 1.289 . S
C208 C209 1.349 . S
C208 C210 1.327 . S
C208 H233 0.950 . S
C209 C208 1.349 . S
C209 C225 1.349 . S
C210 C208 1.327 . S
C210 C229 1.429 . S
C210 H234 0.950 . S
C211 C228 1.574 1_455 S
C211 C230 1.368 . S
C211 H235 0.949 . S
H212 C216 0.949 . S
C213 C214 1.349 . S
C213 C215 1.327 . S
C213 H236 0.950 . S
C214 C213 1.349 . S
C214 C226 1.349 . S
C215 C213 1.327 . S
C215 C231 1.429 . S
C215 H237 0.950 . S
C216 H212 0.949 . S
C216 C224 1.574 1_655 S
C216 C232 1.368 . S
H217 C225 0.950 . S
H218 C223 0.950 . S
H219 C224 0.949 . S
H220 C226 0.950 . S
H221 C227 0.950 . S
H222 C228 0.949 . S
C223 H218 0.950 . S
C223 C225 1.327 . S
C223 C229 1.429 . S
C224 C216 1.574 1_455 S
C224 H219 0.949 . S
C224 C230 1.368 . S
C225 C209 1.349 . S
C225 H217 0.950 . S
C225 C223 1.327 . S
C226 C214 1.349 . S
C226 H220 0.950 . S
C226 C227 1.327 . S
C227 H221 0.950 . S
C227 C226 1.327 . S
C227 C231 1.429 . S
C228 C211 1.574 1_655 S
C228 H222 0.949 . S
C228 C232 1.368 . S
C229 C210 1.429 . S
C229 C223 1.429 . S
C229 C230 1.523 . S
C230 C211 1.368 . S
C230 C224 1.368 . S
C230 C229 1.523 . S
C231 C215 1.429 . S
C231 C227 1.429 . S
C231 C232 1.523 . S
C232 C216 1.368 . S
C232 C228 1.368 . S
C232 C231 1.523 . S
H233 C208 0.950 . S
H234 C210 0.950 . S
H235 C211 0.949 . S
H236 C213 0.950 . S
H237 C215 0.950 . S
C238 C239 1.349 . S
C238 C240 1.327 . S
C238 H263 0.950 . S
C239 C238 1.349 . S
C239 C255 1.349 . S
C240 C238 1.327 . S
C240 C259 1.429 . S
C240 H264 0.950 . S
C241 C258 1.574 1_565 S
C241 C260 1.368 . S
C241 H265 0.949 . S
H242 C246 0.949 . S
C243 C244 1.349 . S
C243 C245 1.327 . S
C243 H266 0.950 . S
C244 C243 1.349 . S
C244 C256 1.349 . S
C245 C243 1.327 . S
C245 C261 1.429 . S
C245 H267 0.950 . S
C246 H242 0.949 . S
C246 C254 1.574 1_545 S
C246 C262 1.368 . S
H247 C255 0.950 . S
H248 C253 0.950 . S
H249 C254 0.949 . S
H250 C256 0.950 . S
H251 C257 0.950 . S
H252 C258 0.949 . S
C253 H248 0.950 . S
C253 C255 1.327 . S
C253 C259 1.429 . S
C254 C246 1.574 1_565 S
C254 H249 0.949 . S
C254 C260 1.368 . S
C255 C239 1.349 . S
C255 H247 0.950 . S
C255 C253 1.327 . S
C256 C244 1.349 . S
C256 H250 0.950 . S
C256 C257 1.327 . S
C257 H251 0.950 . S
C257 C256 1.327 . S
C257 C261 1.429 . S
C258 C241 1.574 1_545 S
C258 H252 0.949 . S
C258 C262 1.368 . S
C259 C240 1.429 . S
C259 C253 1.429 . S
C259 C260 1.523 . S
C260 C241 1.368 . S
C260 C254 1.368 . S
C260 C259 1.523 . S
C261 C245 1.429 . S
C261 C257 1.429 . S
C261 C262 1.523 . S
C262 C246 1.368 . S
C262 C258 1.368 . S
C262 C261 1.523 . S
H263 C238 0.950 . S
H264 C240 0.950 . S
H265 C241 0.949 . S
H266 C243 0.950 . S
H267 C245 0.950 . S
C268 C269 1.349 . S
C268 C270 1.327 . S
C268 H293 0.950 . S
C269 C268 1.349 . S
C269 C285 1.349 . S
C270 C268 1.327 . S
C270 C289 1.429 . S
C270 H294 0.950 . S
C271 C288 1.574 1_455 S
C271 C290 1.368 . S
C271 H295 0.949 . S
H272 C276 0.949 . S
C273 C274 1.349 . S
C273 C275 1.327 . S
C273 H296 0.950 . S
C274 C273 1.349 . S
C274 C286 1.349 . S
C275 C273 1.327 . S
C275 C291 1.429 . S
C275 H297 0.950 . S
C276 H272 0.949 . S
C276 C284 1.574 1_655 S
C276 C292 1.368 . S
H277 C285 0.950 . S
H278 C283 0.950 . S
H279 C284 0.949 . S
H280 C286 0.950 . S
H281 C287 0.950 . S
H282 C288 0.949 . S
C283 H278 0.950 . S
C283 C285 1.327 . S
C283 C289 1.429 . S
C284 C276 1.574 1_455 S
C284 H279 0.949 . S
C284 C290 1.368 . S
C285 C269 1.349 . S
C285 H277 0.950 . S
C285 C283 1.327 . S
C286 C274 1.349 . S
C286 H280 0.950 . S
C286 C287 1.327 . S
C287 H281 0.950 . S
C287 C286 1.327 . S
C287 C291 1.429 . S
C288 C271 1.574 1_655 S
C288 H282 0.949 . S
C288 C292 1.368 . S
C289 C270 1.429 . S
C289 C283 1.429 . S
C289 C290 1.523 . S
C290 C271 1.368 . S
C290 C284 1.368 . S
C290 C289 1.523 . S
C291 C275 1.429 . S
C291 C287 1.429 . S
C291 C292 1.523 . S
C292 C276 1.368 . S
C292 C288 1.368 . S
C292 C291 1.523 . S
H293 C268 0.950 . S
H294 C270 0.950 . S
H295 C271 0.949 . S
H296 C273 0.950 . S
H297 C275 0.950 . S
C298 C299 1.349 . S
C298 C300 1.327 . S
C298 H323 0.950 . S
C299 C298 1.349 . S
C299 C315 1.349 . S
C300 C298 1.327 . S
C300 C319 1.429 . S
C300 H324 0.950 . S
C301 C318 1.574 1_565 S
C301 C320 1.368 . S
C301 H325 0.949 . S
H302 C306 0.949 . S
C303 C304 1.349 . S
C303 C305 1.327 . S
C303 H326 0.950 . S
C304 C303 1.349 . S
C304 C316 1.349 . S
C305 C303 1.327 . S
C305 C321 1.429 . S
C305 H327 0.950 . S
C306 H302 0.949 . S
C306 C314 1.574 1_545 S
C306 C322 1.368 . S
H307 C315 0.950 . S
H308 C313 0.950 . S
H309 C314 0.949 . S
H310 C316 0.950 . S
H311 C317 0.950 . S
H312 C318 0.949 . S
C313 H308 0.950 . S
C313 C315 1.327 . S
C313 C319 1.429 . S
C314 C306 1.574 1_565 S
C314 H309 0.949 . S
C314 C320 1.368 . S
C315 C299 1.349 . S
C315 H307 0.950 . S
C315 C313 1.327 . S
C316 C304 1.349 . S
C316 H310 0.950 . S
C316 C317 1.327 . S
C317 H311 0.950 . S
C317 C316 1.327 . S
C317 C321 1.429 . S
C318 C301 1.574 1_545 S
C318 H312 0.949 . S
C318 C322 1.368 . S
C319 C300 1.429 . S
C319 C313 1.429 . S
C319 C320 1.523 . S
C320 C301 1.368 . S
C320 C314 1.368 . S
C320 C319 1.523 . S
C321 C305 1.429 . S
C321 C317 1.429 . S
C321 C322 1.523 . S
C322 C306 1.368 . S
C322 C318 1.368 . S
C322 C321 1.523 . S
H323 C298 0.950 . S
H324 C300 0.950 . S
H325 C301 0.949 . S
H326 C303 0.950 . S
H327 C305 0.950 . S
C328 C329 1.349 . S
C328 C330 1.327 . S
C328 H353 0.950 . S
C329 C328 1.349 . S
C329 C345 1.349 . S
C330 C328 1.327 . S
C330 C349 1.429 . S
C330 H354 0.950 . S
C331 C348 1.574 1_655 S
C331 C350 1.368 . S
C331 H355 0.949 . S
H332 C336 0.949 . S
C333 C334 1.349 . S
C333 C335 1.327 . S
C333 H356 0.950 . S
C334 C333 1.349 . S
C334 C346 1.349 . S
C335 C333 1.327 . S
C335 C351 1.429 . S
C335 H357 0.950 . S
C336 H332 0.949 . S
C336 C344 1.574 1_455 S
C336 C352 1.368 . S
H337 C345 0.950 . S
H338 C343 0.950 . S
H339 C344 0.949 . S
H340 C346 0.950 . S
H341 C347 0.950 . S
H342 C348 0.949 . S
C343 H338 0.950 . S
C343 C345 1.327 . S
C343 C349 1.429 . S
C344 C336 1.574 1_655 S
C344 H339 0.949 . S
C344 C350 1.368 . S
C345 C329 1.349 . S
C345 H337 0.950 . S
C345 C343 1.327 . S
C346 C334 1.349 . S
C346 H340 0.950 . S
C346 C347 1.327 . S
C347 H341 0.950 . S
C347 C346 1.327 . S
C347 C351 1.429 . S
C348 C331 1.574 1_455 S
C348 H342 0.949 . S
C348 C352 1.368 . S
C349 C330 1.429 . S
C349 C343 1.429 . S
C349 C350 1.523 . S
C350 C331 1.368 . S
C350 C344 1.368 . S
C350 C349 1.523 . S
C351 C335 1.429 . S
C351 C347 1.429 . S
C351 C352 1.523 . S
C352 C336 1.368 . S
C352 C348 1.368 . S
C352 C351 1.523 . S
H353 C328 0.950 . S
H354 C330 0.950 . S
H355 C331 0.949 . S
H356 C333 0.950 . S
H357 C335 0.950 . S
C358 C359 1.349 . S
C358 C360 1.327 . S
C358 H383 0.950 . S
C359 C358 1.349 . S
C359 C375 1.349 . S
C360 C358 1.327 . S
C360 C379 1.429 . S
C360 H384 0.950 . S
C361 C378 1.574 1_545 S
C361 C380 1.368 . S
C361 H385 0.949 . S
H362 C366 0.949 . S
C363 C364 1.349 . S
C363 C365 1.327 . S
C363 H386 0.950 . S
C364 C363 1.349 . S
C364 C376 1.349 . S
C365 C363 1.327 . S
C365 C381 1.429 . S
C365 H387 0.950 . S
C366 H362 0.949 . S
C366 C374 1.574 1_565 S
C366 C382 1.368 . S
H367 C375 0.950 . S
H368 C373 0.950 . S
H369 C374 0.949 . S
H370 C376 0.950 . S
H371 C377 0.950 . S
H372 C378 0.949 . S
C373 H368 0.950 . S
C373 C375 1.327 . S
C373 C379 1.429 . S
C374 C366 1.574 1_545 S
C374 H369 0.949 . S
C374 C380 1.368 . S
C375 C359 1.349 . S
C375 H367 0.950 . S
C375 C373 1.327 . S
C376 C364 1.349 . S
C376 H370 0.950 . S
C376 C377 1.327 . S
C377 H371 0.950 . S
C377 C376 1.327 . S
C377 C381 1.429 . S
C378 C361 1.574 1_565 S
C378 H372 0.949 . S
C378 C382 1.368 . S
C379 C360 1.429 . S
C379 C373 1.429 . S
C379 C380 1.523 . S
C380 C361 1.368 . S
C380 C374 1.368 . S
C380 C379 1.523 . S
C381 C365 1.429 . S
C381 C377 1.429 . S
C381 C382 1.523 . S
C382 C366 1.368 . S
C382 C378 1.368 . S
C382 C381 1.523 . S
H383 C358 0.950 . S
H384 C360 0.950 . S
H385 C361 0.949 . S
H386 C363 0.950 . S
H387 C365 0.950 . S
C388 C389 1.349 . S
C388 C390 1.327 . S
C388 H413 0.950 . S
C389 C388 1.349 . S
C389 C405 1.349 . S
C390 C388 1.327 . S
C390 C409 1.429 . S
C390 H414 0.950 . S
C391 C408 1.574 1_655 S
C391 C410 1.368 . S
C391 H415 0.949 . S
H392 C396 0.949 . S
C393 C394 1.349 . S
C393 C395 1.327 . S
C393 H416 0.950 . S
C394 C393 1.349 . S
C394 C406 1.349 . S
C395 C393 1.327 . S
C395 C411 1.429 . S
C395 H417 0.950 . S
C396 H392 0.949 . S
C396 C404 1.574 1_455 S
C396 C412 1.368 . S
H397 C405 0.950 . S
H398 C403 0.950 . S
H399 C404 0.949 . S
H400 C406 0.950 . S
H401 C407 0.950 . S
H402 C408 0.949 . S
C403 H398 0.950 . S
C403 C405 1.327 . S
C403 C409 1.429 . S
C404 C396 1.574 1_655 S
C404 H399 0.949 . S
C404 C410 1.368 . S
C405 C389 1.349 . S
C405 H397 0.950 . S
C405 C403 1.327 . S
C406 C394 1.349 . S
C406 H400 0.950 . S
C406 C407 1.327 . S
C407 H401 0.950 . S
C407 C406 1.327 . S
C407 C411 1.429 . S
C408 C391 1.574 1_455 S
C408 H402 0.949 . S
C408 C412 1.368 . S
C409 C390 1.429 . S
C409 C403 1.429 . S
C409 C410 1.523 . S
C410 C391 1.368 . S
C410 C404 1.368 . S
C410 C409 1.523 . S
C411 C395 1.429 . S
C411 C407 1.429 . S
C411 C412 1.523 . S
C412 C396 1.368 . S
C412 C408 1.368 . S
C412 C411 1.523 . S
H413 C388 0.950 . S
H414 C390 0.950 . S
H415 C391 0.949 . S
H416 C393 0.950 . S
H417 C395 0.950 . S
C418 C419 1.349 . S
C418 C420 1.327 . S
C418 H443 0.950 . S
C419 C418 1.349 . S
C419 C435 1.349 . S
C420 C418 1.327 . S
C420 C439 1.429 . S
C420 H444 0.950 . S
C421 C438 1.574 1_545 S
C421 C440 1.368 . S
C421 H445 0.949 . S
H422 C426 0.949 . S
C423 C424 1.349 . S
C423 C425 1.327 . S
C423 H446 0.950 . S
C424 C423 1.349 . S
C424 C436 1.349 . S
C425 C423 1.327 . S
C425 C441 1.429 . S
C425 H447 0.950 . S
C426 H422 0.949 . S
C426 C434 1.574 1_565 S
C426 C442 1.368 . S
H427 C435 0.950 . S
H428 C433 0.950 . S
H429 C434 0.949 . S
H430 C436 0.950 . S
H431 C437 0.950 . S
H432 C438 0.949 . S
C433 H428 0.950 . S
C433 C435 1.327 . S
C433 C439 1.429 . S
C434 C426 1.574 1_545 S
C434 H429 0.949 . S
C434 C440 1.368 . S
C435 C419 1.349 . S
C435 H427 0.950 . S
C435 C433 1.327 . S
C436 C424 1.349 . S
C436 H430 0.950 . S
C436 C437 1.327 . S
C437 H431 0.950 . S
C437 C436 1.327 . S
C437 C441 1.429 . S
C438 C421 1.574 1_565 S
C438 H432 0.949 . S
C438 C442 1.368 . S
C439 C420 1.429 . S
C439 C433 1.429 . S
C439 C440 1.523 . S
C440 C421 1.368 . S
C440 C434 1.368 . S
C440 C439 1.523 . S
C441 C425 1.429 . S
C441 C437 1.429 . S
C441 C442 1.523 . S
C442 C426 1.368 . S
C442 C438 1.368 . S
C442 C441 1.523 . S
H443 C418 0.950 . S
H444 C420 0.950 . S
H445 C421 0.949 . S
H446 C423 0.950 . S
H447 C425 0.950 . S
C448 C449 1.349 . S
C448 C450 1.327 . S
C448 H473 0.950 . S
C449 C448 1.349 . S
C449 C465 1.349 . S
C450 C448 1.327 . S
C450 C469 1.429 . S
C450 H474 0.950 . S
C451 C468 1.574 . S
C451 C470 1.368 . S
C451 H475 0.949 . S
H452 C456 0.949 . S
C453 C454 1.349 . S
C453 C455 1.327 . S
C453 H476 0.950 . S
C454 C453 1.349 . S
C454 C466 1.349 . S
C455 C453 1.327 . S
C455 C471 1.429 . S
C455 H477 0.950 . S
C456 H452 0.949 . S
C456 C464 1.574 . S
C456 C472 1.368 . S
H457 C465 0.950 . S
H458 C463 0.950 . S
H459 C464 0.949 . S
H460 C466 0.950 . S
H461 C467 0.950 . S
H462 C468 0.949 . S
C463 H458 0.950 . S
C463 C465 1.327 . S
C463 C469 1.429 . S
C464 C456 1.574 . S
C464 H459 0.949 . S
C464 C470 1.368 . S
C465 C449 1.349 . S
C465 H457 0.950 . S
C465 C463 1.327 . S
C466 C454 1.349 . S
C466 H460 0.950 . S
C466 C467 1.327 . S
C467 H461 0.950 . S
C467 C466 1.327 . S
C467 C471 1.429 . S
C468 C451 1.574 . S
C468 H462 0.949 . S
C468 C472 1.368 . S
C469 C450 1.429 . S
C469 C463 1.429 . S
C469 C470 1.523 . S
C470 C451 1.368 . S
C470 C464 1.368 . S
C470 C469 1.523 . S
C471 C455 1.429 . S
C471 C467 1.429 . S
C471 C472 1.523 . S
C472 C456 1.368 . S
C472 C468 1.368 . S
C472 C471 1.523 . S
H473 C448 0.950 . S
H474 C450 0.950 . S
H475 C451 0.949 . S
H476 C453 0.950 . S
H477 C455 0.950 . S
C478 C479 1.349 . S
C478 C480 1.327 . S
C478 H503 0.950 . S
C479 C478 1.349 . S
C479 C495 1.349 . S
C480 C478 1.327 . S
C480 C499 1.429 . S
C480 H504 0.950 . S
C481 C498 1.574 . S
C481 C500 1.368 . S
C481 H505 0.949 . S
H482 C486 0.949 . S
C483 C484 1.349 . S
C483 C485 1.327 . S
C483 H506 0.950 . S
C484 C483 1.349 . S
C484 C496 1.349 . S
C485 C483 1.327 . S
C485 C501 1.429 . S
C485 H507 0.950 . S
C486 H482 0.949 . S
C486 C494 1.574 . S
C486 C502 1.368 . S
H487 C495 0.950 . S
H488 C493 0.950 . S
H489 C494 0.949 . S
H490 C496 0.950 . S
H491 C497 0.950 . S
H492 C498 0.949 . S
C493 H488 0.950 . S
C493 C495 1.327 . S
C493 C499 1.429 . S
C494 C486 1.574 . S
C494 H489 0.949 . S
C494 C500 1.368 . S
C495 C479 1.349 . S
C495 H487 0.950 . S
C495 C493 1.327 . S
C496 C484 1.349 . S
C496 H490 0.950 . S
C496 C497 1.327 . S
C497 H491 0.950 . S
C497 C496 1.327 . S
C497 C501 1.429 . S
C498 C481 1.574 . S
C498 H492 0.949 . S
C498 C502 1.368 . S
C499 C480 1.429 . S
C499 C493 1.429 . S
C499 C500 1.523 . S
C500 C481 1.368 . S
C500 C494 1.368 . S
C500 C499 1.523 . S
C501 C485 1.429 . S
C501 C497 1.429 . S
C501 C502 1.523 . S
C502 C486 1.368 . S
C502 C498 1.368 . S
C502 C501 1.523 . S
H503 C478 0.950 . S
H504 C480 0.950 . S
H505 C481 0.949 . S
H506 C483 0.950 . S
H507 C485 0.950 . S
C508 C509 1.349 . S
C508 C510 1.327 . S
C508 H533 0.950 . S
C509 C508 1.349 . S
C509 C525 1.349 . S
C510 C508 1.327 . S
C510 C529 1.429 . S
C510 H534 0.950 . S
C511 C528 1.574 . S
C511 C530 1.368 . S
C511 H535 0.949 . S
H512 C516 0.949 . S
C513 C514 1.349 . S
C513 C515 1.327 . S
C513 H536 0.950 . S
C514 C513 1.349 . S
C514 C526 1.349 . S
C515 C513 1.327 . S
C515 C531 1.429 . S
C515 H537 0.950 . S
C516 H512 0.949 . S
C516 C524 1.574 . S
C516 C532 1.368 . S
H517 C525 0.950 . S
H518 C523 0.950 . S
H519 C524 0.949 . S
H520 C526 0.950 . S
H521 C527 0.950 . S
H522 C528 0.949 . S
C523 H518 0.950 . S
C523 C525 1.327 . S
C523 C529 1.429 . S
C524 C516 1.574 . S
C524 H519 0.949 . S
C524 C530 1.368 . S
C525 C509 1.349 . S
C525 H517 0.950 . S
C525 C523 1.327 . S
C526 C514 1.349 . S
C526 H520 0.950 . S
C526 C527 1.327 . S
C527 H521 0.950 . S
C527 C526 1.327 . S
C527 C531 1.429 . S
C528 C511 1.574 . S
C528 H522 0.949 . S
C528 C532 1.368 . S
C529 C510 1.429 . S
C529 C523 1.429 . S
C529 C530 1.523 . S
C530 C511 1.368 . S
C530 C524 1.368 . S
C530 C529 1.523 . S
C531 C515 1.429 . S
C531 C527 1.429 . S
C531 C532 1.523 . S
C532 C516 1.368 . S
C532 C528 1.368 . S
C532 C531 1.523 . S
H533 C508 0.950 . S
H534 C510 0.950 . S
H535 C511 0.949 . S
H536 C513 0.950 . S
H537 C515 0.950 . S
C538 C539 1.349 . S
C538 C540 1.327 . S
C538 H563 0.950 . S
C539 C538 1.349 . S
C539 C555 1.349 . S
C540 C538 1.327 . S
C540 C559 1.429 . S
C540 H564 0.950 . S
C541 C558 1.574 . S
C541 C560 1.368 . S
C541 H565 0.949 . S
H542 C546 0.949 . S
C543 C544 1.349 . S
C543 C545 1.327 . S
C543 H566 0.950 . S
C544 C543 1.349 . S
C544 C556 1.349 . S
C545 C543 1.327 . S
C545 C561 1.429 . S
C545 H567 0.950 . S
C546 H542 0.949 . S
C546 C554 1.574 . S
C546 C562 1.368 . S
H547 C555 0.950 . S
H548 C553 0.950 . S
H549 C554 0.949 . S
H550 C556 0.950 . S
H551 C557 0.950 . S
H552 C558 0.949 . S
C553 H548 0.950 . S
C553 C555 1.327 . S
C553 C559 1.429 . S
C554 C546 1.574 . S
C554 H549 0.949 . S
C554 C560 1.368 . S
C555 C539 1.349 . S
C555 H547 0.950 . S
C555 C553 1.327 . S
C556 C544 1.349 . S
C556 H550 0.950 . S
C556 C557 1.327 . S
C557 H551 0.950 . S
C557 C556 1.327 . S
C557 C561 1.429 . S
C558 C541 1.574 . S
C558 H552 0.949 . S
C558 C562 1.368 . S
C559 C540 1.429 . S
C559 C553 1.429 . S
C559 C560 1.523 . S
C560 C541 1.368 . S
C560 C554 1.368 . S
C560 C559 1.523 . S
C561 C545 1.429 . S
C561 C557 1.429 . S
C561 C562 1.523 . S
C562 C546 1.368 . S
C562 C558 1.368 . S
C562 C561 1.523 . S
H563 C538 0.950 . S
H564 C540 0.950 . S
H565 C541 0.949 . S
H566 C543 0.950 . S
H567 C545 0.950 . S
C568 C569 1.349 . S
C568 C570 1.327 . S
C568 H593 0.950 . S
C569 C568 1.349 . S
C569 C585 1.349 . S
C570 C568 1.327 . S
C570 C589 1.429 . S
C570 H594 0.950 . S
C571 C588 1.574 . S
C571 C590 1.368 . S
C571 H595 0.949 . S
H572 C576 0.949 . S
C573 C574 1.349 . S
C573 C575 1.327 . S
C573 H596 0.950 . S
C574 C573 1.349 . S
C574 C586 1.349 . S
C575 C573 1.327 . S
C575 C591 1.429 . S
C575 H597 0.950 . S
C576 H572 0.949 . S
C576 C584 1.574 . S
C576 C592 1.368 . S
H577 C585 0.950 . S
H578 C583 0.950 . S
H579 C584 0.949 . S
H580 C586 0.950 . S
H581 C587 0.950 . S
H582 C588 0.949 . S
C583 H578 0.950 . S
C583 C585 1.327 . S
C583 C589 1.429 . S
C584 C576 1.574 . S
C584 H579 0.949 . S
C584 C590 1.368 . S
C585 C569 1.349 . S
C585 H577 0.950 . S
C585 C583 1.327 . S
C586 C574 1.349 . S
C586 H580 0.950 . S
C586 C587 1.327 . S
C587 H581 0.950 . S
C587 C586 1.327 . S
C587 C591 1.429 . S
C588 C571 1.574 . S
C588 H582 0.949 . S
C588 C592 1.368 . S
C589 C570 1.429 . S
C589 C583 1.429 . S
C589 C590 1.523 . S
C590 C571 1.368 . S
C590 C584 1.368 . S
C590 C589 1.523 . S
C591 C575 1.429 . S
C591 C587 1.429 . S
C591 C592 1.523 . S
C592 C576 1.368 . S
C592 C588 1.368 . S
C592 C591 1.523 . S
H593 C568 0.950 . S
H594 C570 0.950 . S
H595 C571 0.949 . S
H596 C573 0.950 . S
H597 C575 0.950 . S
C598 C599 1.349 . S
C598 C600 1.327 . S
C598 H623 0.950 . S
C599 C598 1.349 . S
C599 C615 1.349 . S
C600 C598 1.327 . S
C600 C619 1.429 . S
C600 H624 0.950 . S
C601 C618 1.574 . S
C601 C620 1.368 . S
C601 H625 0.949 . S
H602 C606 0.949 . S
C603 C604 1.349 . S
C603 C605 1.327 . S
C603 H626 0.950 . S
C604 C603 1.349 . S
C604 C616 1.349 . S
C605 C603 1.327 . S
C605 C621 1.429 . S
C605 H627 0.950 . S
C606 H602 0.949 . S
C606 C614 1.574 . S
C606 C622 1.368 . S
H607 C615 0.950 . S
H608 C613 0.950 . S
H609 C614 0.949 . S
H610 C616 0.950 . S
H611 C617 0.950 . S
H612 C618 0.949 . S
C613 H608 0.950 . S
C613 C615 1.327 . S
C613 C619 1.429 . S
C614 C606 1.574 . S
C614 H609 0.949 . S
C614 C620 1.368 . S
C615 C599 1.349 . S
C615 H607 0.950 . S
C615 C613 1.327 . S
C616 C604 1.349 . S
C616 H610 0.950 . S
C616 C617 1.327 . S
C617 H611 0.950 . S
C617 C616 1.327 . S
C617 C621 1.429 . S
C618 C601 1.574 . S
C618 H612 0.949 . S
C618 C622 1.368 . S
C619 C600 1.429 . S
C619 C613 1.429 . S
C619 C620 1.523 . S
C620 C601 1.368 . S
C620 C614 1.368 . S
C620 C619 1.523 . S
C621 C605 1.429 . S
C621 C617 1.429 . S
C621 C622 1.523 . S
C622 C606 1.368 . S
C622 C618 1.368 . S
C622 C621 1.523 . S
H623 C598 0.950 . S
H624 C600 0.950 . S
H625 C601 0.949 . S
H626 C603 0.950 . S
H627 C605 0.950 . S
C628 C629 1.349 . S
C628 C630 1.327 . S
C628 H653 0.950 . S
C629 C628 1.349 . S
C629 C645 1.349 . S
C630 C628 1.327 . S
C630 C649 1.429 . S
C630 H654 0.950 . S
C631 C648 1.574 . S
C631 C650 1.368 . S
C631 H655 0.949 . S
H632 C636 0.949 . S
C633 C634 1.349 . S
C633 C635 1.327 . S
C633 H656 0.950 . S
C634 C633 1.349 . S
C634 C646 1.349 . S
C635 C633 1.327 . S
C635 C651 1.429 . S
C635 H657 0.950 . S
C636 H632 0.949 . S
C636 C644 1.574 . S
C636 C652 1.368 . S
H637 C645 0.950 . S
H638 C643 0.950 . S
H639 C644 0.949 . S
H640 C646 0.950 . S
H641 C647 0.950 . S
H642 C648 0.949 . S
C643 H638 0.950 . S
C643 C645 1.327 . S
C643 C649 1.429 . S
C644 C636 1.574 . S
C644 H639 0.949 . S
C644 C650 1.368 . S
C645 C629 1.349 . S
C645 H637 0.950 . S
C645 C643 1.327 . S
C646 C634 1.349 . S
C646 H640 0.950 . S
C646 C647 1.327 . S
C647 H641 0.950 . S
C647 C646 1.327 . S
C647 C651 1.429 . S
C648 C631 1.574 . S
C648 H642 0.949 . S
C648 C652 1.368 . S
C649 C630 1.429 . S
C649 C643 1.429 . S
C649 C650 1.523 . S
C650 C631 1.368 . S
C650 C644 1.368 . S
C650 C649 1.523 . S
C651 C635 1.429 . S
C651 C647 1.429 . S
C651 C652 1.523 . S
C652 C636 1.368 . S
C652 C648 1.368 . S
C652 C651 1.523 . S
H653 C628 0.950 . S
H654 C630 0.950 . S
H655 C631 0.949 . S
H656 C633 0.950 . S
H657 C635 0.950 . S
C658 C659 1.349 . S
C658 C660 1.327 . S
C658 H683 0.950 . S
C659 C658 1.349 . S
C659 C675 1.349 . S
C660 C658 1.327 . S
C660 C679 1.429 . S
C660 H684 0.950 . S
C661 C678 1.574 . S
C661 C680 1.368 . S
C661 H685 0.949 . S
H662 C666 0.949 . S
C663 C664 1.349 . S
C663 C665 1.327 . S
C663 H686 0.950 . S
C664 C663 1.349 . S
C664 C676 1.349 . S
C665 C663 1.327 . S
C665 C681 1.429 . S
C665 H687 0.950 . S
C666 H662 0.949 . S
C666 C674 1.574 . S
C666 C682 1.368 . S
H667 C675 0.950 . S
H668 C673 0.950 . S
H669 C674 0.949 . S
H670 C676 0.950 . S
H671 C677 0.950 . S
H672 C678 0.949 . S
C673 H668 0.950 . S
C673 C675 1.327 . S
C673 C679 1.429 . S
C674 C666 1.574 . S
C674 H669 0.949 . S
C674 C680 1.368 . S
C675 C659 1.349 . S
C675 H667 0.950 . S
C675 C673 1.327 . S
C676 C664 1.349 . S
C676 H670 0.950 . S
C676 C677 1.327 . S
C677 H671 0.950 . S
C677 C676 1.327 . S
C677 C681 1.429 . S
C678 C661 1.574 . S
C678 H672 0.949 . S
C678 C682 1.368 . S
C679 C660 1.429 . S
C679 C673 1.429 . S
C679 C680 1.523 . S
C680 C661 1.368 . S
C680 C674 1.368 . S
C680 C679 1.523 . S
C681 C665 1.429 . S
C681 C677 1.429 . S
C681 C682 1.523 . S
C682 C666 1.368 . S
C682 C678 1.368 . S
C682 C681 1.523 . S
H683 C658 0.950 . S
H684 C660 0.950 . S
H685 C661 0.949 . S
H686 C663 0.950 . S
H687 C665 0.950 . S
C688 C689 1.349 . S
C688 C690 1.327 . S
C688 H713 0.950 . S
C689 C688 1.349 . S
C689 C705 1.349 . S
C690 C688 1.327 . S
C690 C709 1.429 . S
C690 H714 0.950 . S
C691 C708 1.574 1_556 S
C691 C710 1.368 . S
C691 H715 0.949 . S
H692 C696 0.949 . S
C693 C694 1.349 . S
C693 C695 1.327 . S
C693 H716 0.950 . S
C694 C693 1.349 . S
C694 C706 1.349 . S
C695 C693 1.327 . S
C695 C711 1.429 . S
C695 H717 0.950 . S
C696 H692 0.949 . S
C696 C704 1.574 1_554 S
C696 C712 1.368 . S
H697 C705 0.950 . S
H698 C703 0.950 . S
H699 C704 0.949 . S
H700 C706 0.950 . S
H701 C707 0.950 . S
H702 C708 0.949 . S
C703 H698 0.950 . S
C703 C705 1.327 . S
C703 C709 1.429 . S
C704 C696 1.574 1_556 S
C704 H699 0.949 . S
C704 C710 1.368 . S
C705 C689 1.349 . S
C705 H697 0.950 . S
C705 C703 1.327 . S
C706 C694 1.349 . S
C706 H700 0.950 . S
C706 C707 1.327 . S
C707 H701 0.950 . S
C707 C706 1.327 . S
C707 C711 1.429 . S
C708 C691 1.574 1_554 S
C708 H702 0.949 . S
C708 C712 1.368 . S
C709 C690 1.429 . S
C709 C703 1.429 . S
C709 C710 1.523 . S
C710 C691 1.368 . S
C710 C704 1.368 . S
C710 C709 1.523 . S
C711 C695 1.429 . S
C711 C707 1.429 . S
C711 C712 1.523 . S
C712 C696 1.368 . S
C712 C708 1.368 . S
C712 C711 1.523 . S
H713 C688 0.950 . S
H714 C690 0.950 . S
H715 C691 0.949 . S
H716 C693 0.950 . S
H717 C695 0.950 . S
C718 C719 1.349 . S
C718 C720 1.327 . S
C718 H743 0.950 . S
C719 C718 1.349 . S
C719 C735 1.349 . S
C720 C718 1.327 . S
C720 C739 1.429 . S
C720 H744 0.950 . S
C721 C738 1.574 . S
C721 C740 1.368 . S
C721 H745 0.949 . S
H722 C726 0.949 . S
C723 C724 1.349 . S
C723 C725 1.327 . S
C723 H746 0.950 . S
C724 C723 1.349 . S
C724 C736 1.349 . S
C725 C723 1.327 . S
C725 C741 1.429 . S
C725 H747 0.950 . S
C726 H722 0.949 . S
C726 C734 1.574 . S
C726 C742 1.368 . S
H727 C735 0.950 . S
H728 C733 0.950 . S
H729 C734 0.949 . S
H730 C736 0.950 . S
H731 C737 0.950 . S
H732 C738 0.949 . S
C733 H728 0.950 . S
C733 C735 1.327 . S
C733 C739 1.429 . S
C734 C726 1.574 . S
C734 H729 0.949 . S
C734 C740 1.368 . S
C735 C719 1.349 . S
C735 H727 0.950 . S
C735 C733 1.327 . S
C736 C724 1.349 . S
C736 H730 0.950 . S
C736 C737 1.327 . S
C737 H731 0.950 . S
C737 C736 1.327 . S
C737 C741 1.429 . S
C738 C721 1.574 . S
C738 H732 0.949 . S
C738 C742 1.368 . S
C739 C720 1.429 . S
C739 C733 1.429 . S
C739 C740 1.523 . S
C740 C721 1.368 . S
C740 C734 1.368 . S
C740 C739 1.523 . S
C741 C725 1.429 . S
C741 C737 1.429 . S
C741 C742 1.523 . S
C742 C726 1.368 . S
C742 C738 1.368 . S
C742 C741 1.523 . S
H743 C718 0.950 . S
H744 C720 0.950 . S
H745 C721 0.949 . S
H746 C723 0.950 . S
H747 C725 0.950 . S
C748 C749 1.349 . S
C748 C750 1.327 . S
C748 H773 0.950 . S
C749 C748 1.349 . S
C749 C765 1.349 . S
C750 C748 1.327 . S
C750 C769 1.429 . S
C750 H774 0.950 . S
C751 C768 1.574 1_554 S
C751 C770 1.368 . S
C751 H775 0.949 . S
H752 C756 0.949 . S
C753 C754 1.349 . S
C753 C755 1.327 . S
C753 H776 0.950 . S
C754 C753 1.349 . S
C754 C766 1.349 . S
C755 C753 1.327 . S
C755 C771 1.429 . S
C755 H777 0.950 . S
C756 H752 0.949 . S
C756 C764 1.574 1_556 S
C756 C772 1.368 . S
H757 C765 0.950 . S
H758 C763 0.950 . S
H759 C764 0.949 . S
H760 C766 0.950 . S
H761 C767 0.950 . S
H762 C768 0.949 . S
C763 H758 0.950 . S
C763 C765 1.327 . S
C763 C769 1.429 . S
C764 C756 1.574 1_554 S
C764 H759 0.949 . S
C764 C770 1.368 . S
C765 C749 1.349 . S
C765 H757 0.950 . S
C765 C763 1.327 . S
C766 C754 1.349 . S
C766 H760 0.950 . S
C766 C767 1.327 . S
C767 H761 0.950 . S
C767 C766 1.327 . S
C767 C771 1.429 . S
C768 C751 1.574 1_556 S
C768 H762 0.949 . S
C768 C772 1.368 . S
C769 C750 1.429 . S
C769 C763 1.429 . S
C769 C770 1.523 . S
C770 C751 1.368 . S
C770 C764 1.368 . S
C770 C769 1.523 . S
C771 C755 1.429 . S
C771 C767 1.429 . S
C771 C772 1.523 . S
C772 C756 1.368 . S
C772 C768 1.368 . S
C772 C771 1.523 . S
H773 C748 0.950 . S
H774 C750 0.950 . S
H775 C751 0.949 . S
H776 C753 0.950 . S
H777 C755 0.950 . S
C778 C779 1.349 . S
C778 C780 1.327 . S
C778 H803 0.950 . S
C779 C778 1.349 . S
C779 C795 1.349 . S
C780 C778 1.327 . S
C780 C799 1.429 . S
C780 H804 0.950 . S
C781 C798 1.574 . S
C781 C800 1.368 . S
C781 H805 0.949 . S
H782 C786 0.949 . S
C783 C784 1.349 . S
C783 C785 1.327 . S
C783 H806 0.950 . S
C784 C783 1.349 . S
C784 C796 1.349 . S
C785 C783 1.327 . S
C785 C801 1.429 . S
C785 H807 0.950 . S
C786 H782 0.949 . S
C786 C794 1.574 . S
C786 C802 1.368 . S
H787 C795 0.950 . S
H788 C793 0.950 . S
H789 C794 0.949 . S
H790 C796 0.950 . S
H791 C797 0.950 . S
H792 C798 0.949 . S
C793 H788 0.950 . S
C793 C795 1.327 . S
C793 C799 1.429 . S
C794 C786 1.574 . S
C794 H789 0.949 . S
C794 C800 1.368 . S
C795 C779 1.349 . S
C795 H787 0.950 . S
C795 C793 1.327 . S
C796 C784 1.349 . S
C796 H790 0.950 . S
C796 C797 1.327 . S
C797 H791 0.950 . S
C797 C796 1.327 . S
C797 C801 1.429 . S
C798 C781 1.574 . S
C798 H792 0.949 . S
C798 C802 1.368 . S
C799 C780 1.429 . S
C799 C793 1.429 . S
C799 C800 1.523 . S
C800 C781 1.368 . S
C800 C794 1.368 . S
C800 C799 1.523 . S
C801 C785 1.429 . S
C801 C797 1.429 . S
C801 C802 1.523 . S
C802 C786 1.368 . S
C802 C798 1.368 . S
C802 C801 1.523 . S
H803 C778 0.950 . S
H804 C780 0.950 . S
H805 C781 0.949 . S
H806 C783 0.950 . S
H807 C785 0.950 . S
C808 C809 1.349 . S
C808 C810 1.327 . S
C808 H833 0.950 . S
C809 C808 1.349 . S
C809 C825 1.349 . S
C810 C808 1.327 . S
C810 C829 1.429 . S
C810 H834 0.950 . S
C811 C828 1.574 . S
C811 C830 1.368 . S
C811 H835 0.949 . S
H812 C816 0.949 . S
C813 C814 1.349 . S
C813 C815 1.327 . S
C813 H836 0.950 . S
C814 C813 1.349 . S
C814 C826 1.349 . S
C815 C813 1.327 . S
C815 C831 1.429 . S
C815 H837 0.950 . S
C816 H812 0.949 . S
C816 C824 1.574 . S
C816 C832 1.368 . S
H817 C825 0.950 . S
H818 C823 0.950 . S
H819 C824 0.949 . S
H820 C826 0.950 . S
H821 C827 0.950 . S
H822 C828 0.949 . S
C823 H818 0.950 . S
C823 C825 1.327 . S
C823 C829 1.429 . S
C824 C816 1.574 . S
C824 H819 0.949 . S
C824 C830 1.368 . S
C825 C809 1.349 . S
C825 H817 0.950 . S
C825 C823 1.327 . S
C826 C814 1.349 . S
C826 H820 0.950 . S
C826 C827 1.327 . S
C827 H821 0.950 . S
C827 C826 1.327 . S
C827 C831 1.429 . S
C828 C811 1.574 . S
C828 H822 0.949 . S
C828 C832 1.368 . S
C829 C810 1.429 . S
C829 C823 1.429 . S
C829 C830 1.523 . S
C830 C811 1.368 . S
C830 C824 1.368 . S
C830 C829 1.523 . S
C831 C815 1.429 . S
C831 C827 1.429 . S
C831 C832 1.523 . S
C832 C816 1.368 . S
C832 C828 1.368 . S
C832 C831 1.523 . S
H833 C808 0.950 . S
H834 C810 0.950 . S
H835 C811 0.949 . S
H836 C813 0.950 . S
H837 C815 0.950 . S
C838 C839 1.349 . S
C838 C840 1.327 . S
C838 H863 0.950 . S
C839 C838 1.349 . S
C839 C855 1.349 . S
C840 C838 1.327 . S
C840 C859 1.429 . S
C840 H864 0.950 . S
C841 C858 1.574 1_556 S
C841 C860 1.368 . S
C841 H865 0.949 . S
H842 C846 0.949 . S
C843 C844 1.349 . S
C843 C845 1.327 . S
C843 H866 0.950 . S
C844 C843 1.349 . S
C844 C856 1.349 . S
C845 C843 1.327 . S
C845 C861 1.429 . S
C845 H867 0.950 . S
C846 H842 0.949 . S
C846 C854 1.574 1_554 S
C846 C862 1.368 . S
H847 C855 0.950 . S
H848 C853 0.950 . S
H849 C854 0.949 . S
H850 C856 0.950 . S
H851 C857 0.950 . S
H852 C858 0.949 . S
C853 H848 0.950 . S
C853 C855 1.327 . S
C853 C859 1.429 . S
C854 C846 1.574 1_556 S
C854 H849 0.949 . S
C854 C860 1.368 . S
C855 C839 1.349 . S
C855 H847 0.950 . S
C855 C853 1.327 . S
C856 C844 1.349 . S
C856 H850 0.950 . S
C856 C857 1.327 . S
C857 H851 0.950 . S
C857 C856 1.327 . S
C857 C861 1.429 . S
C858 C841 1.574 1_554 S
C858 H852 0.949 . S
C858 C862 1.368 . S
C859 C840 1.429 . S
C859 C853 1.429 . S
C859 C860 1.523 . S
C860 C841 1.368 . S
C860 C854 1.368 . S
C860 C859 1.523 . S
C861 C845 1.429 . S
C861 C857 1.429 . S
C861 C862 1.523 . S
C862 C846 1.368 . S
C862 C858 1.368 . S
C862 C861 1.523 . S
H863 C838 0.950 . S
H864 C840 0.950 . S
H865 C841 0.949 . S
H866 C843 0.950 . S
H867 C845 0.950 . S
C868 C869 1.349 . S
C868 C870 1.327 . S
C868 H893 0.950 . S
C869 C868 1.349 . S
C869 C885 1.349 . S
C870 C868 1.327 . S
C870 C889 1.429 . S
C870 H894 0.950 . S
C871 C888 1.574 . S
C871 C890 1.368 . S
C871 H895 0.949 . S
H872 C876 0.949 . S
C873 C874 1.349 . S
C873 C875 1.327 . S
C873 H896 0.950 . S
C874 C873 1.349 . S
C874 C886 1.349 . S
C875 C873 1.327 . S
C875 C891 1.429 . S
C875 H897 0.950 . S
C876 H872 0.949 . S
C876 C884 1.574 . S
C876 C892 1.368 . S
H877 C885 0.950 . S
H878 C883 0.950 . S
H879 C884 0.949 . S
H880 C886 0.950 . S
H881 C887 0.950 . S
H882 C888 0.949 . S
C883 H878 0.950 . S
C883 C885 1.327 . S
C883 C889 1.429 . S
C884 C876 1.574 . S
C884 H879 0.949 . S
C884 C890 1.368 . S
C885 C869 1.349 . S
C885 H877 0.950 . S
C885 C883 1.327 . S
C886 C874 1.349 . S
C886 H880 0.950 . S
C886 C887 1.327 . S
C887 H881 0.950 . S
C887 C886 1.327 . S
C887 C891 1.429 . S
C888 C871 1.574 . S
C888 H882 0.949 . S
C888 C892 1.368 . S
C889 C870 1.429 . S
C889 C883 1.429 . S
C889 C890 1.523 . S
C890 C871 1.368 . S
C890 C884 1.368 . S
C890 C889 1.523 . S
C891 C875 1.429 . S
C891 C887 1.429 . S
C891 C892 1.523 . S
C892 C876 1.368 . S
C892 C888 1.368 . S
C892 C891 1.523 . S
H893 C868 0.950 . S
H894 C870 0.950 . S
H895 C871 0.949 . S
H896 C873 0.950 . S
H897 C875 0.950 . S
C898 C899 1.349 . S
C898 C900 1.327 . S
C898 H923 0.950 . S
C899 C898 1.349 . S
C899 C915 1.349 . S
C900 C898 1.327 . S
C900 C919 1.429 . S
C900 H924 0.950 . S
C901 C918 1.574 1_554 S
C901 C920 1.368 . S
C901 H925 0.949 . S
H902 C906 0.949 . S
C903 C904 1.349 . S
C903 C905 1.327 . S
C903 H926 0.950 . S
C904 C903 1.349 . S
C904 C916 1.349 . S
C905 C903 1.327 . S
C905 C921 1.429 . S
C905 H927 0.950 . S
C906 H902 0.949 . S
C906 C914 1.574 1_556 S
C906 C922 1.368 . S
H907 C915 0.950 . S
H908 C913 0.950 . S
H909 C914 0.949 . S
H910 C916 0.950 . S
H911 C917 0.950 . S
H912 C918 0.949 . S
C913 H908 0.950 . S
C913 C915 1.327 . S
C913 C919 1.429 . S
C914 C906 1.574 1_554 S
C914 H909 0.949 . S
C914 C920 1.368 . S
C915 C899 1.349 . S
C915 H907 0.950 . S
C915 C913 1.327 . S
C916 C904 1.349 . S
C916 H910 0.950 . S
C916 C917 1.327 . S
C917 H911 0.950 . S
C917 C916 1.327 . S
C917 C921 1.429 . S
C918 C901 1.574 1_556 S
C918 H912 0.949 . S
C918 C922 1.368 . S
C919 C900 1.429 . S
C919 C913 1.429 . S
C919 C920 1.523 . S
C920 C901 1.368 . S
C920 C914 1.368 . S
C920 C919 1.523 . S
C921 C905 1.429 . S
C921 C917 1.429 . S
C921 C922 1.523 . S
C922 C906 1.368 . S
C922 C918 1.368 . S
C922 C921 1.523 . S
H923 C898 0.950 . S
H924 C900 0.950 . S
H925 C901 0.949 . S
H926 C903 0.950 . S
H927 C905 0.950 . S
C928 C929 1.349 . S
C928 C930 1.327 . S
C928 H953 0.950 . S
C929 C928 1.349 . S
C929 C945 1.349 . S
C930 C928 1.327 . S
C930 C949 1.429 . S
C930 H954 0.950 . S
C931 C948 1.574 . S
C931 C950 1.368 . S
C931 H955 0.949 . S
H932 C936 0.949 . S
C933 C934 1.349 . S
C933 C935 1.327 . S
C933 H956 0.950 . S
C934 C933 1.349 . S
C934 C946 1.349 . S
C935 C933 1.327 . S
C935 C951 1.429 . S
C935 H957 0.950 . S
C936 H932 0.949 . S
C936 C944 1.574 . S
C936 C952 1.368 . S
H937 C945 0.950 . S
H938 C943 0.950 . S
H939 C944 0.949 . S
H940 C946 0.950 . S
H941 C947 0.950 . S
H942 C948 0.949 . S
C943 H938 0.950 . S
C943 C945 1.327 . S
C943 C949 1.429 . S
C944 C936 1.574 . S
C944 H939 0.949 . S
C944 C950 1.368 . S
C945 C929 1.349 . S
C945 H937 0.950 . S
C945 C943 1.327 . S
C946 C934 1.349 . S
C946 H940 0.950 . S
C946 C947 1.327 . S
C947 H941 0.950 . S
C947 C946 1.327 . S
C947 C951 1.429 . S
C948 C931 1.574 . S
C948 H942 0.949 . S
C948 C952 1.368 . S
C949 C930 1.429 . S
C949 C943 1.429 . S
C949 C950 1.523 . S
C950 C931 1.368 . S
C950 C944 1.368 . S
C950 C949 1.523 . S
C951 C935 1.429 . S
C951 C947 1.429 . S
C951 C952 1.523 . S
C952 C936 1.368 . S
C952 C948 1.368 . S
C952 C951 1.523 . S
H953 C928 0.950 . S
H954 C930 0.950 . S
H955 C931 0.949 . S
H956 C933 0.950 . S
H957 C935 0.950 . S
C958 C959 1.349 . S
C958 C960 1.327 . S
C958 H983 0.950 . S
C959 C958 1.349 . S
C959 C975 1.349 . S
C960 C958 1.327 . S
C960 C979 1.429 . S
C960 H984 0.950 . S
C961 C978 1.574 . S
C961 C980 1.368 . S
C961 H985 0.949 . S
H962 C966 0.949 . S
C963 C964 1.349 . S
C963 C965 1.327 . S
C963 H986 0.950 . S
C964 C963 1.349 . S
C964 C976 1.349 . S
C965 C963 1.327 . S
C965 C981 1.429 . S
C965 H987 0.950 . S
C966 H962 0.949 . S
C966 C974 1.574 . S
C966 C982 1.368 . S
H967 C975 0.950 . S
H968 C973 0.950 . S
H969 C974 0.949 . S
H970 C976 0.950 . S
H971 C977 0.950 . S
H972 C978 0.949 . S
C973 H968 0.950 . S
C973 C975 1.327 . S
C973 C979 1.429 . S
C974 C966 1.574 . S
C974 H969 0.949 . S
C974 C980 1.368 . S
C975 C959 1.349 . S
C975 H967 0.950 . S
C975 C973 1.327 . S
C976 C964 1.349 . S
C976 H970 0.950 . S
C976 C977 1.327 . S
C977 H971 0.950 . S
C977 C976 1.327 . S
C977 C981 1.429 . S
C978 C961 1.574 . S
C978 H972 0.949 . S
C978 C982 1.368 . S
C979 C960 1.429 . S
C979 C973 1.429 . S
C979 C980 1.523 . S
C980 C961 1.368 . S
C980 C974 1.368 . S
C980 C979 1.523 . S
C981 C965 1.429 . S
C981 C977 1.429 . S
C981 C982 1.523 . S
C982 C966 1.368 . S
C982 C978 1.368 . S
C982 C981 1.523 . S
H983 C958 0.950 . S
H984 C960 0.950 . S
H985 C961 0.949 . S
H986 C963 0.950 . S
H987 C965 0.950 . S
C988 C989 1.349 . S
C988 C990 1.327 . S
C988 H1013 0.950 . S
C989 C988 1.349 . S
C989 C1005 1.349 . S
C990 C988 1.327 . S
C990 C1009 1.429 . S
C990 H1014 0.950 . S
C991 C1008 1.574 . S
C991 C1010 1.368 . S
C991 H1015 0.949 . S
H992 C996 0.949 . S
C993 C994 1.349 . S
C993 C995 1.327 . S
C993 H1016 0.950 . S
C994 C993 1.349 . S
C994 C1006 1.349 . S
C995 C993 1.327 . S
C995 C1011 1.429 . S
C995 H1017 0.950 . S
C996 H992 0.949 . S
C996 C1004 1.574 . S
C996 C1012 1.368 . S
H997 C1005 0.950 . S
H998 C1003 0.950 . S
H999 C1004 0.949 . S
H1000 C1006 0.950 . S
H1001 C1007 0.950 . S
H1002 C1008 0.949 . S
C1003 H998 0.950 . S
C1003 C1005 1.327 . S
C1003 C1009 1.429 . S
C1004 C996 1.574 . S
C1004 H999 0.949 . S
C1004 C1010 1.368 . S
C1005 C989 1.349 . S
C1005 H997 0.950 . S
C1005 C1003 1.327 . S
C1006 C994 1.349 . S
C1006 H1000 0.950 . S
C1006 C1007 1.327 . S
C1007 H1001 0.950 . S
C1007 C1006 1.327 . S
C1007 C1011 1.429 . S
C1008 C991 1.574 . S
C1008 H1002 0.949 . S
C1008 C1012 1.368 . S
C1009 C990 1.429 . S
C1009 C1003 1.429 . S
C1009 C1010 1.523 . S
C1010 C991 1.368 . S
C1010 C1004 1.368 . S
C1010 C1009 1.523 . S
C1011 C995 1.429 . S
C1011 C1007 1.429 . S
C1011 C1012 1.523 . S
C1012 C996 1.368 . S
C1012 C1008 1.368 . S
C1012 C1011 1.523 . S
H1013 C988 0.950 . S
H1014 C990 0.950 . S
H1015 C991 0.949 . S
H1016 C993 0.950 . S
H1017 C995 0.950 . S
C1018 C1019 1.349 . S
C1018 C1020 1.327 . S
C1018 H1043 0.950 . S
C1019 C1018 1.349 . S
C1019 C1035 1.349 . S
C1020 C1018 1.327 . S
C1020 C1039 1.429 . S
C1020 H1044 0.950 . S
C1021 C1038 1.574 . S
C1021 C1040 1.368 . S
C1021 H1045 0.949 . S
H1022 C1026 0.949 . S
C1023 C1024 1.349 . S
C1023 C1025 1.327 . S
C1023 H1046 0.950 . S
C1024 C1023 1.349 . S
C1024 C1036 1.349 . S
C1025 C1023 1.327 . S
C1025 C1041 1.429 . S
C1025 H1047 0.950 . S
C1026 H1022 0.949 . S
C1026 C1034 1.574 . S
C1026 C1042 1.368 . S
H1027 C1035 0.950 . S
H1028 C1033 0.950 . S
H1029 C1034 0.949 . S
H1030 C1036 0.950 . S
H1031 C1037 0.950 . S
H1032 C1038 0.949 . S
C1033 H1028 0.950 . S
C1033 C1035 1.327 . S
C1033 C1039 1.429 . S
C1034 C1026 1.574 . S
C1034 H1029 0.949 . S
C1034 C1040 1.368 . S
C1035 C1019 1.349 . S
C1035 H1027 0.950 . S
C1035 C1033 1.327 . S
C1036 C1024 1.349 . S
C1036 H1030 0.950 . S
C1036 C1037 1.327 . S
C1037 H1031 0.950 . S
C1037 C1036 1.327 . S
C1037 C1041 1.429 . S
C1038 C1021 1.574 . S
C1038 H1032 0.949 . S
C1038 C1042 1.368 . S
C1039 C1020 1.429 . S
C1039 C1033 1.429 . S
C1039 C1040 1.523 . S
C1040 C1021 1.368 . S
C1040 C1034 1.368 . S
C1040 C1039 1.523 . S
C1041 C1025 1.429 . S
C1041 C1037 1.429 . S
C1041 C1042 1.523 . S
C1042 C1026 1.368 . S
C1042 C1038 1.368 . S
C1042 C1041 1.523 . S
H1043 C1018 0.950 . S
H1044 C1020 0.950 . S
H1045 C1021 0.949 . S
H1046 C1023 0.950 . S
H1047 C1025 0.950 . S
C1048 C1049 1.349 . S
C1048 C1050 1.327 . S
C1048 H1073 0.950 . S
C1049 C1048 1.349 . S
C1049 C1065 1.349 . S
C1050 C1048 1.327 . S
C1050 C1069 1.429 . S
C1050 H1074 0.950 . S
C1051 C1068 1.574 . S
C1051 C1070 1.368 . S
C1051 H1075 0.949 . S
H1052 C1056 0.949 . S
C1053 C1054 1.349 . S
C1053 C1055 1.327 . S
C1053 H1076 0.950 . S
C1054 C1053 1.349 . S
C1054 C1066 1.349 . S
C1055 C1053 1.327 . S
C1055 C1071 1.429 . S
C1055 H1077 0.950 . S
C1056 H1052 0.949 . S
C1056 C1064 1.574 . S
C1056 C1072 1.368 . S
H1057 C1065 0.950 . S
H1058 C1063 0.950 . S
H1059 C1064 0.949 . S
H1060 C1066 0.950 . S
H1061 C1067 0.950 . S
H1062 C1068 0.949 . S
C1063 H1058 0.950 . S
C1063 C1065 1.327 . S
C1063 C1069 1.429 . S
C1064 C1056 1.574 . S
C1064 H1059 0.949 . S
C1064 C1070 1.368 . S
C1065 C1049 1.349 . S
C1065 H1057 0.950 . S
C1065 C1063 1.327 . S
C1066 C1054 1.349 . S
C1066 H1060 0.950 . S
C1066 C1067 1.327 . S
C1067 H1061 0.950 . S
C1067 C1066 1.327 . S
C1067 C1071 1.429 . S
C1068 C1051 1.574 . S
C1068 H1062 0.949 . S
C1068 C1072 1.368 . S
C1069 C1050 1.429 . S
C1069 C1063 1.429 . S
C1069 C1070 1.523 . S
C1070 C1051 1.368 . S
C1070 C1064 1.368 . S
C1070 C1069 1.523 . S
C1071 C1055 1.429 . S
C1071 C1067 1.429 . S
C1071 C1072 1.523 . S
C1072 C1056 1.368 . S
C1072 C1068 1.368 . S
C1072 C1071 1.523 . S
H1073 C1048 0.950 . S
H1074 C1050 0.950 . S
H1075 C1051 0.949 . S
H1076 C1053 0.950 . S
H1077 C1055 0.950 . S
C1078 C1079 1.349 . S
C1078 C1080 1.327 . S
C1078 H1103 0.950 . S
C1079 C1078 1.349 . S
C1079 C1095 1.349 . S
C1080 C1078 1.327 . S
C1080 C1099 1.429 . S
C1080 H1104 0.950 . S
C1081 C1098 1.574 . S
C1081 C1100 1.368 . S
C1081 H1105 0.949 . S
H1082 C1086 0.949 . S
C1083 C1084 1.349 . S
C1083 C1085 1.327 . S
C1083 H1106 0.950 . S
C1084 C1083 1.349 . S
C1084 C1096 1.349 . S
C1085 C1083 1.327 . S
C1085 C1101 1.429 . S
C1085 H1107 0.950 . S
C1086 H1082 0.949 . S
C1086 C1094 1.574 . S
C1086 C1102 1.368 . S
H1087 C1095 0.950 . S
H1088 C1093 0.950 . S
H1089 C1094 0.949 . S
H1090 C1096 0.950 . S
H1091 C1097 0.950 . S
H1092 C1098 0.949 . S
C1093 H1088 0.950 . S
C1093 C1095 1.327 . S
C1093 C1099 1.429 . S
C1094 C1086 1.574 . S
C1094 H1089 0.949 . S
C1094 C1100 1.368 . S
C1095 C1079 1.349 . S
C1095 H1087 0.950 . S
C1095 C1093 1.327 . S
C1096 C1084 1.349 . S
C1096 H1090 0.950 . S
C1096 C1097 1.327 . S
C1097 H1091 0.950 . S
C1097 C1096 1.327 . S
C1097 C1101 1.429 . S
C1098 C1081 1.574 . S
C1098 H1092 0.949 . S
C1098 C1102 1.368 . S
C1099 C1080 1.429 . S
C1099 C1093 1.429 . S
C1099 C1100 1.523 . S
C1100 C1081 1.368 . S
C1100 C1094 1.368 . S
C1100 C1099 1.523 . S
C1101 C1085 1.429 . S
C1101 C1097 1.429 . S
C1101 C1102 1.523 . S
C1102 C1086 1.368 . S
C1102 C1098 1.368 . S
C1102 C1101 1.523 . S
H1103 C1078 0.950 . S
H1104 C1080 0.950 . S
H1105 C1081 0.949 . S
H1106 C1083 0.950 . S
H1107 C1085 0.950 . S
C1108 C1109 1.349 . S
C1108 C1110 1.327 . S
C1108 H1133 0.950 . S
C1109 C1108 1.349 . S
C1109 C1125 1.349 . S
C1110 C1108 1.327 . S
C1110 C1129 1.429 . S
C1110 H1134 0.950 . S
C1111 C1128 1.574 . S
C1111 C1130 1.368 . S
C1111 H1135 0.949 . S
H1112 C1116 0.949 . S
C1113 C1114 1.349 . S
C1113 C1115 1.327 . S
C1113 H1136 0.950 . S
C1114 C1113 1.349 . S
C1114 C1126 1.349 . S
C1115 C1113 1.327 . S
C1115 C1131 1.429 . S
C1115 H1137 0.950 . S
C1116 H1112 0.949 . S
C1116 C1124 1.574 . S
C1116 C1132 1.368 . S
H1117 C1125 0.950 . S
H1118 C1123 0.950 . S
H1119 C1124 0.949 . S
H1120 C1126 0.950 . S
H1121 C1127 0.950 . S
H1122 C1128 0.949 . S
C1123 H1118 0.950 . S
C1123 C1125 1.327 . S
C1123 C1129 1.429 . S
C1124 C1116 1.574 . S
C1124 H1119 0.949 . S
C1124 C1130 1.368 . S
C1125 C1109 1.349 . S
C1125 H1117 0.950 . S
C1125 C1123 1.327 . S
C1126 C1114 1.349 . S
C1126 H1120 0.950 . S
C1126 C1127 1.327 . S
C1127 H1121 0.950 . S
C1127 C1126 1.327 . S
C1127 C1131 1.429 . S
C1128 C1111 1.574 . S
C1128 H1122 0.949 . S
C1128 C1132 1.368 . S
C1129 C1110 1.429 . S
C1129 C1123 1.429 . S
C1129 C1130 1.523 . S
C1130 C1111 1.368 . S
C1130 C1124 1.368 . S
C1130 C1129 1.523 . S
C1131 C1115 1.429 . S
C1131 C1127 1.429 . S
C1131 C1132 1.523 . S
C1132 C1116 1.368 . S
C1132 C1128 1.368 . S
C1132 C1131 1.523 . S
H1133 C1108 0.950 . S
H1134 C1110 0.950 . S
H1135 C1111 0.949 . S
H1136 C1113 0.950 . S
H1137 C1115 0.950 . S
C1138 C1139 1.349 . S
C1138 C1140 1.327 . S
C1138 H1163 0.950 . S
C1139 C1138 1.349 . S
C1139 C1155 1.349 . S
C1140 C1138 1.327 . S
C1140 C1159 1.429 . S
C1140 H1164 0.950 . S
C1141 C1158 1.574 . S
C1141 C1160 1.368 . S
C1141 H1165 0.949 . S
H1142 C1146 0.949 . S
C1143 C1144 1.349 . S
C1143 C1145 1.327 . S
C1143 H1166 0.950 . S
C1144 C1143 1.349 . S
C1144 C1156 1.349 . S
C1145 C1143 1.327 . S
C1145 C1161 1.429 . S
C1145 H1167 0.950 . S
C1146 H1142 0.949 . S
C1146 C1154 1.574 . S
C1146 C1162 1.368 . S
H1147 C1155 0.950 . S
H1148 C1153 0.950 . S
H1149 C1154 0.949 . S
H1150 C1156 0.950 . S
H1151 C1157 0.950 . S
H1152 C1158 0.949 . S
C1153 H1148 0.950 . S
C1153 C1155 1.327 . S
C1153 C1159 1.429 . S
C1154 C1146 1.574 . S
C1154 H1149 0.949 . S
C1154 C1160 1.368 . S
C1155 C1139 1.349 . S
C1155 H1147 0.950 . S
C1155 C1153 1.327 . S
C1156 C1144 1.349 . S
C1156 H1150 0.950 . S
C1156 C1157 1.327 . S
C1157 H1151 0.950 . S
C1157 C1156 1.327 . S
C1157 C1161 1.429 . S
C1158 C1141 1.574 . S
C1158 H1152 0.949 . S
C1158 C1162 1.368 . S
C1159 C1140 1.429 . S
C1159 C1153 1.429 . S
C1159 C1160 1.523 . S
C1160 C1141 1.368 . S
C1160 C1154 1.368 . S
C1160 C1159 1.523 . S
C1161 C1145 1.429 . S
C1161 C1157 1.429 . S
C1161 C1162 1.523 . S
C1162 C1146 1.368 . S
C1162 C1158 1.368 . S
C1162 C1161 1.523 . S
H1163 C1138 0.950 . S
H1164 C1140 0.950 . S
H1165 C1141 0.949 . S
H1166 C1143 0.950 . S
H1167 C1145 0.950 . S
C209 C10 1.948 . S
C214 C36 1.948 . S
C239 C49 1.948 . S
C244 C23 1.948 . S
C269 C62 1.948 . S
C274 C88 1.948 . S
C299 C101 1.948 . S
C304 C75 1.948 . S
C329 C114 1.875 . S
C334 C140 1.875 . S
C359 C153 1.875 . S
C364 C127 1.875 . S
C389 C166 1.875 . S
C394 C192 1.875 . S
C419 C205 1.875 . S
C424 C179 1.875 . S
C449 C55 1.532 . S
C454 C3 1.532 . S
C479 C16 1.532 . S
C484 C68 1.532 . S
C509 C29 1.532 . S
C514 C81 1.532 . S
C539 C94 1.532 . S
C544 C42 1.532 . S
C569 C107 1.557 . S
C574 C159 1.557 . S
C599 C120 1.557 . S
C604 C172 1.557 . S
C629 C133 1.557 . S
C634 C185 1.557 . S
C659 C146 1.557 . S
C664 C198 1.557 . S
C689 C131 1.543 . S
C694 C1 1.531 . S
C719 C144 1.543 . S
C724 C14 1.531 . S
C749 C27 1.531 . S
C754 C105 1.543 . S
C779 C40 1.531 . S
C784 C118 1.543 . S
C809 C53 1.531 . S
C814 C183 1.543 . S
C839 C66 1.531 . S
C844 C196 1.543 . S
C869 C79 1.531 . S
C874 C157 1.543 . S
C899 C170 1.543 . S
C904 C92 1.531 . S
C929 C5 1.889 . S
C934 C200 1.826 . S
C959 C161 1.827 . S
C964 C18 1.889 . S
C989 C31 1.889 . S
C994 C174 1.826 . S
C1019 C187 1.827 . S
C1024 C44 1.889 . S
C1049 C122 1.827 . S
C1054 C57 1.889 . S
C1079 C70 1.889 . S
C1084 C135 1.826 . S
C1109 C148 1.827 . S
C1114 C83 1.889 . S
C1139 C109 1.826 . S
C1144 C96 1.889 . S
