# Generated by pormake.
# Topology ana, (4)-cn, num edge types: 1
# Building blocks:
#     Node 0, Type 0, BuildingBlock: QUQFOY_clean_sbu_1, # of connection points: 4
#     Node 1, Type 0, BuildingBlock: QUQFOY_clean_sbu_1, # of connection points: 4
#     Node 2, Type 0, BuildingBlock: QUQFOY_clean_sbu_1, # of connection points: 4
#     Node 3, Type 0, BuildingBlock: QUQFOY_clean_sbu_1, # of connection points: 4
#     Node 4, Type 0, BuildingBlock: QUQFOY_clean_sbu_1, # of connection points: 4
#     Node 5, Type 0, BuildingBlock: QUQFOY_clean_sbu_1, # of connection points: 4
#     Node 6, Type 0, BuildingBlock: QUQFOY_clean_sbu_1, # of connection points: 4
#     Node 7, Type 0, BuildingBlock: QUQFOY_clean_sbu_1, # of connection points: 4
#     Node 8, Type 0, BuildingBlock: QUQFOY_clean_sbu_1, # of connection points: 4
#     Node 9, Type 0, BuildingBlock: QUQFOY_clean_sbu_1, # of connection points: 4
#     Node 10, Type 0, BuildingBlock: QUQFOY_clean_sbu_1, # of connection points: 4
#     Node 11, Type 0, BuildingBlock: QUQFOY_clean_sbu_1, # of connection points: 4
#     Node 12, Type 0, BuildingBlock: QUQFOY_clean_sbu_1, # of connection points: 4
#     Node 13, Type 0, BuildingBlock: QUQFOY_clean_sbu_1, # of connection points: 4
#     Node 14, Type 0, BuildingBlock: QUQFOY_clean_sbu_1, # of connection points: 4
#     Node 15, Type 0, BuildingBlock: QUQFOY_clean_sbu_1, # of connection points: 4
#     Node 16, Type 0, BuildingBlock: QUQFOY_clean_sbu_1, # of connection points: 4
#     Node 17, Type 0, BuildingBlock: QUQFOY_clean_sbu_1, # of connection points: 4
#     Node 18, Type 0, BuildingBlock: QUQFOY_clean_sbu_1, # of connection points: 4
#     Node 19, Type 0, BuildingBlock: QUQFOY_clean_sbu_1, # of connection points: 4
#     Node 20, Type 0, BuildingBlock: QUQFOY_clean_sbu_1, # of connection points: 4
#     Node 21, Type 0, BuildingBlock: QUQFOY_clean_sbu_1, # of connection points: 4
#     Node 22, Type 0, BuildingBlock: QUQFOY_clean_sbu_1, # of connection points: 4
#     Node 23, Type 0, BuildingBlock: QUQFOY_clean_sbu_1, # of connection points: 4
#     Node 24, Type 0, BuildingBlock: QUQFOY_clean_sbu_1, # of connection points: 4
#     Node 25, Type 0, BuildingBlock: QUQFOY_clean_sbu_1, # of connection points: 4
#     Node 26, Type 0, BuildingBlock: QUQFOY_clean_sbu_1, # of connection points: 4
#     Node 27, Type 0, BuildingBlock: QUQFOY_clean_sbu_1, # of connection points: 4
#     Node 28, Type 0, BuildingBlock: QUQFOY_clean_sbu_1, # of connection points: 4
#     Node 29, Type 0, BuildingBlock: QUQFOY_clean_sbu_1, # of connection points: 4
#     Node 30, Type 0, BuildingBlock: QUQFOY_clean_sbu_1, # of connection points: 4
#     Node 31, Type 0, BuildingBlock: QUQFOY_clean_sbu_1, # of connection points: 4
#     Node 32, Type 0, BuildingBlock: QUQFOY_clean_sbu_1, # of connection points: 4
#     Node 33, Type 0, BuildingBlock: QUQFOY_clean_sbu_1, # of connection points: 4
#     Node 34, Type 0, BuildingBlock: QUQFOY_clean_sbu_1, # of connection points: 4
#     Node 35, Type 0, BuildingBlock: QUQFOY_clean_sbu_1, # of connection points: 4
#     Node 36, Type 0, BuildingBlock: QUQFOY_clean_sbu_1, # of connection points: 4
#     Node 37, Type 0, BuildingBlock: QUQFOY_clean_sbu_1, # of connection points: 4
#     Node 38, Type 0, BuildingBlock: QUQFOY_clean_sbu_1, # of connection points: 4
#     Node 39, Type 0, BuildingBlock: QUQFOY_clean_sbu_1, # of connection points: 4
#     Node 40, Type 0, BuildingBlock: QUQFOY_clean_sbu_1, # of connection points: 4
#     Node 41, Type 0, BuildingBlock: QUQFOY_clean_sbu_1, # of connection points: 4
#     Node 42, Type 0, BuildingBlock: QUQFOY_clean_sbu_1, # of connection points: 4
#     Node 43, Type 0, BuildingBlock: QUQFOY_clean_sbu_1, # of connection points: 4
#     Node 44, Type 0, BuildingBlock: QUQFOY_clean_sbu_1, # of connection points: 4
#     Node 45, Type 0, BuildingBlock: QUQFOY_clean_sbu_1, # of connection points: 4
#     Node 46, Type 0, BuildingBlock: QUQFOY_clean_sbu_1, # of connection points: 4
#     Node 47, Type 0, BuildingBlock: QUQFOY_clean_sbu_1, # of connection points: 4
#     Edge 48, Type (0, 0), BuildingBlock: XIVTED_clean_linker_0, # of connection points: 2
#     Edge 49, Type (0, 0), BuildingBlock: XIVTED_clean_linker_0, # of connection points: 2
#     Edge 50, Type (0, 0), BuildingBlock: XIVTED_clean_linker_0, # of connection points: 2
#     Edge 51, Type (0, 0), BuildingBlock: XIVTED_clean_linker_0, # of connection points: 2
#     Edge 52, Type (0, 0), BuildingBlock: XIVTED_clean_linker_0, # of connection points: 2
#     Edge 53, Type (0, 0), BuildingBlock: XIVTED_clean_linker_0, # of connection points: 2
#     Edge 54, Type (0, 0), BuildingBlock: XIVTED_clean_linker_0, # of connection points: 2
#     Edge 55, Type (0, 0), BuildingBlock: XIVTED_clean_linker_0, # of connection points: 2
#     Edge 56, Type (0, 0), BuildingBlock: XIVTED_clean_linker_0, # of connection points: 2
#     Edge 57, Type (0, 0), BuildingBlock: XIVTED_clean_linker_0, # of connection points: 2
#     Edge 58, Type (0, 0), BuildingBlock: XIVTED_clean_linker_0, # of connection points: 2
#     Edge 59, Type (0, 0), BuildingBlock: XIVTED_clean_linker_0, # of connection points: 2
#     Edge 60, Type (0, 0), BuildingBlock: XIVTED_clean_linker_0, # of connection points: 2
#     Edge 61, Type (0, 0), BuildingBlock: XIVTED_clean_linker_0, # of connection points: 2
#     Edge 62, Type (0, 0), BuildingBlock: XIVTED_clean_linker_0, # of connection points: 2
#     Edge 63, Type (0, 0), BuildingBlock: XIVTED_clean_linker_0, # of connection points: 2
#     Edge 64, Type (0, 0), BuildingBlock: XIVTED_clean_linker_0, # of connection points: 2
#     Edge 65, Type (0, 0), BuildingBlock: XIVTED_clean_linker_0, # of connection points: 2
#     Edge 66, Type (0, 0), BuildingBlock: XIVTED_clean_linker_0, # of connection points: 2
#     Edge 67, Type (0, 0), BuildingBlock: XIVTED_clean_linker_0, # of connection points: 2
#     Edge 68, Type (0, 0), BuildingBlock: XIVTED_clean_linker_0, # of connection points: 2
#     Edge 69, Type (0, 0), BuildingBlock: XIVTED_clean_linker_0, # of connection points: 2
#     Edge 70, Type (0, 0), BuildingBlock: XIVTED_clean_linker_0, # of connection points: 2
#     Edge 71, Type (0, 0), BuildingBlock: XIVTED_clean_linker_0, # of connection points: 2
#     Edge 72, Type (0, 0), BuildingBlock: XIVTED_clean_linker_0, # of connection points: 2
#     Edge 73, Type (0, 0), BuildingBlock: XIVTED_clean_linker_0, # of connection points: 2
#     Edge 74, Type (0, 0), BuildingBlock: XIVTED_clean_linker_0, # of connection points: 2
#     Edge 75, Type (0, 0), BuildingBlock: XIVTED_clean_linker_0, # of connection points: 2
#     Edge 76, Type (0, 0), BuildingBlock: XIVTED_clean_linker_0, # of connection points: 2
#     Edge 77, Type (0, 0), BuildingBlock: XIVTED_clean_linker_0, # of connection points: 2
#     Edge 78, Type (0, 0), BuildingBlock: XIVTED_clean_linker_0, # of connection points: 2
#     Edge 79, Type (0, 0), BuildingBlock: XIVTED_clean_linker_0, # of connection points: 2
#     Edge 80, Type (0, 0), BuildingBlock: XIVTED_clean_linker_0, # of connection points: 2
#     Edge 81, Type (0, 0), BuildingBlock: XIVTED_clean_linker_0, # of connection points: 2
#     Edge 82, Type (0, 0), BuildingBlock: XIVTED_clean_linker_0, # of connection points: 2
#     Edge 83, Type (0, 0), BuildingBlock: XIVTED_clean_linker_0, # of connection points: 2
#     Edge 84, Type (0, 0), BuildingBlock: XIVTED_clean_linker_0, # of connection points: 2
#     Edge 85, Type (0, 0), BuildingBlock: XIVTED_clean_linker_0, # of connection points: 2
#     Edge 86, Type (0, 0), BuildingBlock: XIVTED_clean_linker_0, # of connection points: 2
#     Edge 87, Type (0, 0), BuildingBlock: XIVTED_clean_linker_0, # of connection points: 2
#     Edge 88, Type (0, 0), BuildingBlock: XIVTED_clean_linker_0, # of connection points: 2
#     Edge 89, Type (0, 0), BuildingBlock: XIVTED_clean_linker_0, # of connection points: 2
#     Edge 90, Type (0, 0), BuildingBlock: XIVTED_clean_linker_0, # of connection points: 2
#     Edge 91, Type (0, 0), BuildingBlock: XIVTED_clean_linker_0, # of connection points: 2
#     Edge 92, Type (0, 0), BuildingBlock: XIVTED_clean_linker_0, # of connection points: 2
#     Edge 93, Type (0, 0), BuildingBlock: XIVTED_clean_linker_0, # of connection points: 2
#     Edge 94, Type (0, 0), BuildingBlock: XIVTED_clean_linker_0, # of connection points: 2
#     Edge 95, Type (0, 0), BuildingBlock: XIVTED_clean_linker_0, # of connection points: 2
#     Edge 96, Type (0, 0), BuildingBlock: XIVTED_clean_linker_0, # of connection points: 2
#     Edge 97, Type (0, 0), BuildingBlock: XIVTED_clean_linker_0, # of connection points: 2
#     Edge 98, Type (0, 0), BuildingBlock: XIVTED_clean_linker_0, # of connection points: 2
#     Edge 99, Type (0, 0), BuildingBlock: XIVTED_clean_linker_0, # of connection points: 2
#     Edge 100, Type (0, 0), BuildingBlock: XIVTED_clean_linker_0, # of connection points: 2
#     Edge 101, Type (0, 0), BuildingBlock: XIVTED_clean_linker_0, # of connection points: 2
#     Edge 102, Type (0, 0), BuildingBlock: XIVTED_clean_linker_0, # of connection points: 2
#     Edge 103, Type (0, 0), BuildingBlock: XIVTED_clean_linker_0, # of connection points: 2
#     Edge 104, Type (0, 0), BuildingBlock: XIVTED_clean_linker_0, # of connection points: 2
#     Edge 105, Type (0, 0), BuildingBlock: XIVTED_clean_linker_0, # of connection points: 2
#     Edge 106, Type (0, 0), BuildingBlock: XIVTED_clean_linker_0, # of connection points: 2
#     Edge 107, Type (0, 0), BuildingBlock: XIVTED_clean_linker_0, # of connection points: 2
#     Edge 108, Type (0, 0), BuildingBlock: XIVTED_clean_linker_0, # of connection points: 2
#     Edge 109, Type (0, 0), BuildingBlock: XIVTED_clean_linker_0, # of connection points: 2
#     Edge 110, Type (0, 0), BuildingBlock: XIVTED_clean_linker_0, # of connection points: 2
#     Edge 111, Type (0, 0), BuildingBlock: XIVTED_clean_linker_0, # of connection points: 2
#     Edge 112, Type (0, 0), BuildingBlock: XIVTED_clean_linker_0, # of connection points: 2
#     Edge 113, Type (0, 0), BuildingBlock: XIVTED_clean_linker_0, # of connection points: 2
#     Edge 114, Type (0, 0), BuildingBlock: XIVTED_clean_linker_0, # of connection points: 2
#     Edge 115, Type (0, 0), BuildingBlock: XIVTED_clean_linker_0, # of connection points: 2
#     Edge 116, Type (0, 0), BuildingBlock: XIVTED_clean_linker_0, # of connection points: 2
#     Edge 117, Type (0, 0), BuildingBlock: XIVTED_clean_linker_0, # of connection points: 2
#     Edge 118, Type (0, 0), BuildingBlock: XIVTED_clean_linker_0, # of connection points: 2
#     Edge 119, Type (0, 0), BuildingBlock: XIVTED_clean_linker_0, # of connection points: 2
#     Edge 120, Type (0, 0), BuildingBlock: XIVTED_clean_linker_0, # of connection points: 2
#     Edge 121, Type (0, 0), BuildingBlock: XIVTED_clean_linker_0, # of connection points: 2
#     Edge 122, Type (0, 0), BuildingBlock: XIVTED_clean_linker_0, # of connection points: 2
#     Edge 123, Type (0, 0), BuildingBlock: XIVTED_clean_linker_0, # of connection points: 2
#     Edge 124, Type (0, 0), BuildingBlock: XIVTED_clean_linker_0, # of connection points: 2
#     Edge 125, Type (0, 0), BuildingBlock: XIVTED_clean_linker_0, # of connection points: 2
#     Edge 126, Type (0, 0), BuildingBlock: XIVTED_clean_linker_0, # of connection points: 2
#     Edge 127, Type (0, 0), BuildingBlock: XIVTED_clean_linker_0, # of connection points: 2
#     Edge 128, Type (0, 0), BuildingBlock: XIVTED_clean_linker_0, # of connection points: 2
#     Edge 129, Type (0, 0), BuildingBlock: XIVTED_clean_linker_0, # of connection points: 2
#     Edge 130, Type (0, 0), BuildingBlock: XIVTED_clean_linker_0, # of connection points: 2
#     Edge 131, Type (0, 0), BuildingBlock: XIVTED_clean_linker_0, # of connection points: 2
#     Edge 132, Type (0, 0), BuildingBlock: XIVTED_clean_linker_0, # of connection points: 2
#     Edge 133, Type (0, 0), BuildingBlock: XIVTED_clean_linker_0, # of connection points: 2
#     Edge 134, Type (0, 0), BuildingBlock: XIVTED_clean_linker_0, # of connection points: 2
#     Edge 135, Type (0, 0), BuildingBlock: XIVTED_clean_linker_0, # of connection points: 2
#     Edge 136, Type (0, 0), BuildingBlock: XIVTED_clean_linker_0, # of connection points: 2
#     Edge 137, Type (0, 0), BuildingBlock: XIVTED_clean_linker_0, # of connection points: 2
#     Edge 138, Type (0, 0), BuildingBlock: XIVTED_clean_linker_0, # of connection points: 2
#     Edge 139, Type (0, 0), BuildingBlock: XIVTED_clean_linker_0, # of connection points: 2
#     Edge 140, Type (0, 0), BuildingBlock: XIVTED_clean_linker_0, # of connection points: 2
#     Edge 141, Type (0, 0), BuildingBlock: XIVTED_clean_linker_0, # of connection points: 2
#     Edge 142, Type (0, 0), BuildingBlock: XIVTED_clean_linker_0, # of connection points: 2
#     Edge 143, Type (0, 0), BuildingBlock: XIVTED_clean_linker_0, # of connection points: 2
# Relax obj value: 0.112
# Max RMSD: 0.187
# Mean RMSD: 0.142
data_MOF--net-ana--node1-QUQFOY_clean_sbu_1--edge1-XIVTED_clean_linker_0
_symmetry_space_group_name_H-M    P1
_symmetry_Int_Tables_number       1
_symmetry_cell_setting            triclinic
loop_
_symmetry_equiv_pos_as_xyz
'x, y, z'
_cell_length_a     67.139803
_cell_length_b     69.009805
_cell_length_c     67.824293
_cell_angle_alpha  91.156979
_cell_angle_beta   91.818509
_cell_angle_gamma 95.527367
loop_
_atom_site_label
_atom_site_type_symbol
_atom_site_fract_x
_atom_site_fract_y
_atom_site_fract_z
_atom_type_partial_charge
O0 O 0.1328 0.13569 0.43652 0.0
Cd1 Cd 0.13172 0.13831 0.4064 0.0
Cd2 Cd 0.12336 0.17604 0.41612 0.0
O3 O 0.12882 0.16623 0.44431 0.0
O4 O 0.14508 0.11578 0.3963 0.0
O5 O 0.15707 0.14639 0.3923 0.0
C6 C 0.159 0.12804 0.38994 0.0
C7 C 0.13308 0.20879 0.40981 0.0
C8 C 0.13154 0.14903 0.44946 0.0
C9 C 0.09157 0.1493 0.39356 0.0
O10 O 0.09668 0.16575 0.40191 0.0
O11 O 0.10356 0.13615 0.39318 0.0
O12 O 0.1192 0.20372 0.42185 0.0
O13 O 0.14207 0.19521 0.40153 0.0
O14 O 0.08788 0.90616 0.64888 0.0
Cd15 Cd 0.08046 0.87944 0.66141 0.0
Cd16 Cd 0.09057 0.86729 0.62665 0.0
O17 O 0.10486 0.89484 0.62465 0.0
O18 O 0.0785 0.88514 0.69006 0.0
O19 O 0.10169 0.868 0.67781 0.0
C20 C 0.09398 0.87575 0.69292 0.0
C21 C 0.10712 0.83989 0.61996 0.0
C22 C 0.09946 0.90911 0.63455 0.0
C23 C 0.04738 0.86193 0.63567 0.0
O24 O 0.05981 0.86422 0.62198 0.0
O25 O 0.05321 0.86475 0.65355 0.0
O26 O 0.10142 0.8508 0.60605 0.0
O27 O 0.10395 0.84493 0.63796 0.0
O28 O 0.41469 0.83422 0.90551 0.0
Cd29 Cd 0.38914 0.82551 0.92043 0.0
Cd30 Cd 0.3825 0.8629 0.91356 0.0
O31 O 0.40843 0.8641 0.8981 0.0
O32 O 0.39224 0.79766 0.92513 0.0
O33 O 0.36805 0.80709 0.9058 0.0
C34 C 0.37696 0.79314 0.91346 0.0
C35 C 0.35145 0.86769 0.89961 0.0
C36 C 0.41962 0.85029 0.8973 0.0
C37 C 0.38618 0.85296 0.95556 0.0
O38 O 0.38547 0.86678 0.94357 0.0
O39 O 0.38659 0.83556 0.94917 0.0
O40 O 0.36474 0.88217 0.90359 0.0
O41 O 0.35624 0.85027 0.90273 0.0
O42 O 0.43057 0.13604 0.12942 0.0
Cd43 Cd 0.40013 0.12955 0.13299 0.0
Cd44 Cd 0.41382 0.11677 0.16829 0.0
O45 O 0.44082 0.12939 0.15952 0.0
O46 O 0.38747 0.1432 0.11106 0.0
O47 O 0.38396 0.15092 0.14246 0.0
C48 C 0.38032 0.15423 0.12408 0.0
C49 C 0.40585 0.12105 0.20124 0.0
C50 C 0.4446 0.13546 0.14238 0.0
C51 C 0.39344 0.08684 0.13983 0.0
O52 O 0.40432 0.09016 0.15542 0.0
O53 O 0.38847 0.10078 0.12938 0.0
O54 O 0.41985 0.11066 0.19618 0.0
O55 O 0.39622 0.12932 0.18749 0.0
O56 O 0.11326 0.81158 0.10499 0.0
Cd57 Cd 0.11714 0.84106 0.10084 0.0
Cd58 Cd 0.12449 0.83057 0.06352 0.0
O59 O 0.11426 0.80331 0.07348 0.0
O60 O 0.10353 0.85362 0.12248 0.0
O61 O 0.09443 0.85556 0.09094 0.0
C62 C 0.09167 0.85988 0.10923 0.0
C63 C 0.11607 0.83815 0.0311 0.0
C64 C 0.11195 0.79862 0.09135 0.0
C65 C 0.15857 0.85087 0.08868 0.0
O66 O 0.15303 0.84206 0.07251 0.0
O67 O 0.14617 0.85297 0.10209 0.0
O68 O 0.12764 0.82483 0.03507 0.0
O69 O 0.10859 0.84701 0.04565 0.0
O70 O 0.37952 0.87216 0.32126 0.0
Cd71 Cd 0.38619 0.87534 0.35107 0.0
Cd72 Cd 0.42313 0.87358 0.34 0.0
O73 O 0.41031 0.8831 0.31435 0.0
O74 O 0.36684 0.89184 0.36294 0.0
O75 O 0.3991 0.90145 0.35978 0.0
C76 C 0.38146 0.90547 0.36469 0.0
C77 C 0.45663 0.88421 0.3473 0.0
C78 C 0.39213 0.87876 0.30892 0.0
C79 C 0.40298 0.8396 0.36148 0.0
O80 O 0.41592 0.84533 0.34904 0.0
O81 O 0.39007 0.85076 0.36678 0.0
O82 O 0.45132 0.87279 0.33245 0.0
O83 O 0.44276 0.8904 0.35783 0.0
O84 O 0.33859 0.16975 0.58214 0.0
Cd85 Cd 0.36465 0.18325 0.5717 0.0
Cd86 Cd 0.37862 0.1734 0.60748 0.0
O87 O 0.34944 0.1631 0.61202 0.0
O88 O 0.35682 0.18676 0.5437 0.0
O89 O 0.38031 0.16814 0.55291 0.0
C90 C 0.36946 0.17471 0.53896 0.0
C91 C 0.40318 0.1523 0.61223 0.0
C92 C 0.33539 0.16279 0.59904 0.0
C93 C 0.38281 0.2158 0.5987 0.0
O94 O 0.38629 0.20287 0.6111 0.0
O95 O 0.37436 0.21098 0.58205 0.0
O96 O 0.39488 0.16011 0.62691 0.0
O97 O 0.39751 0.15655 0.59457 0.0
O98 O 0.10653 0.10343 0.81446 0.0
Cd99 Cd 0.10063 0.10431 0.84417 0.0
Cd100 Cd 0.06425 0.10909 0.82986 0.0
O101 O 0.07516 0.10076 0.80342 0.0
O102 O 0.12357 0.09282 0.85704 0.0
O103 O 0.09249 0.07878 0.85684 0.0
C104 C 0.11127 0.07812 0.86135 0.0
C105 C 0.03252 0.09735 0.83941 0.0
C106 C 0.09369 0.10086 0.80025 0.0
C107 C 0.08621 0.14285 0.85203 0.0
O108 O 0.07226 0.13722 0.83955 0.0
O109 O 0.09866 0.13117 0.85765 0.0
O110 O 0.03505 0.10852 0.82453 0.0
O111 O 0.04819 0.09184 0.84839 0.0
O112 O 0.13431 0.44217 0.1199 0.0
Cd113 Cd 0.13427 0.41269 0.12336 0.0
Cd114 Cd 0.17228 0.42008 0.10819 0.0
O115 O 0.1653 0.44876 0.11026 0.0
O116 O 0.11294 0.40549 0.14214 0.0
O117 O 0.14496 0.40225 0.14866 0.0
C118 C 0.12665 0.40048 0.15422 0.0
C119 C 0.2052 0.41237 0.11289 0.0
C120 C 0.14847 0.45438 0.11476 0.0
C121 C 0.14013 0.39276 0.08568 0.0
O122 O 0.15766 0.4015 0.08705 0.0
O123 O 0.12762 0.39502 0.09892 0.0
O124 O 0.19963 0.42146 0.09761 0.0
O125 O 0.19243 0.40885 0.12652 0.0
O126 O 0.6477 0.09729 0.83198 0.0
Cd127 Cd 0.66256 0.08741 0.85625 0.0
Cd128 Cd 0.65476 0.12395 0.86906 0.0
O129 O 0.64182 0.12687 0.84159 0.0
O130 O 0.66803 0.06161 0.84558 0.0
O131 O 0.64911 0.06503 0.87123 0.0
C132 C 0.65683 0.05371 0.85882 0.0
C133 C 0.63739 0.12505 0.8978 0.0
C134 C 0.64059 0.11332 0.82857 0.0
C135 C 0.6973 0.11629 0.8706 0.0
O136 O 0.68518 0.12913 0.8727 0.0
O137 O 0.69107 0.09916 0.86462 0.0
O138 O 0.64281 0.14071 0.88847 0.0
O139 O 0.64093 0.10848 0.89008 0.0
O140 O 0.83983 0.90277 0.3349 0.0
Cd141 Cd 0.83037 0.9095 0.36278 0.0
Cd142 Cd 0.842 0.87433 0.36779 0.0
O143 O 0.85747 0.8785 0.34237 0.0
O144 O 0.82227 0.93601 0.35864 0.0
O145 O 0.8471 0.93017 0.37914 0.0
C146 C 0.83649 0.94258 0.37085 0.0
C147 C 0.85608 0.87161 0.39897 0.0
C148 C 0.85211 0.89075 0.33004 0.0
C149 C 0.79949 0.87716 0.37143 0.0
O150 O 0.8118 0.86561 0.36559 0.0
O151 O 0.80491 0.89521 0.37374 0.0
O152 O 0.85447 0.85703 0.38655 0.0
O153 O 0.85098 0.88819 0.39303 0.0
O154 O 0.808 0.11338 0.12248 0.0
Cd155 Cd 0.83803 0.11015 0.12575 0.0
Cd156 Cd 0.82536 0.07323 0.13411 0.0
O157 O 0.79772 0.08243 0.12633 0.0
O158 O 0.85241 0.13119 0.11072 0.0
O159 O 0.85224 0.09987 0.10274 0.0
C160 C 0.85776 0.11784 0.09896 0.0
C161 C 0.83353 0.04286 0.12279 0.0
C162 C 0.79389 0.09976 0.12286 0.0
C163 C 0.84797 0.09812 0.16627 0.0
O164 O 0.83824 0.08193 0.16135 0.0
O165 O 0.85027 0.11167 0.15393 0.0
O166 O 0.82008 0.04442 0.1357 0.0
O167 O 0.84207 0.05865 0.11569 0.0
O168 O 0.29845 0.61741 0.62294 0.0
Cd169 Cd 0.32869 0.6149 0.6261 0.0
Cd170 Cd 0.31713 0.57745 0.63327 0.0
O171 O 0.28919 0.58613 0.62603 0.0
O172 O 0.34283 0.63629 0.61128 0.0
O173 O 0.34319 0.60508 0.60307 0.0
C174 C 0.34853 0.62314 0.59949 0.0
C175 C 0.32587 0.54766 0.62105 0.0
C176 C 0.28476 0.60336 0.62304 0.0
C177 C 0.33938 0.60165 0.66605 0.0
O178 O 0.33004 0.58542 0.66063 0.0
O179 O 0.34109 0.61571 0.65425 0.0
O180 O 0.31239 0.54858 0.63404 0.0
O181 O 0.33408 0.56379 0.61435 0.0
O182 O 0.15925 0.59015 0.33422 0.0
Cd183 Cd 0.16719 0.58192 0.36241 0.0
Cd184 Cd 0.15685 0.61707 0.37051 0.0
O185 O 0.14353 0.61545 0.34283 0.0
O186 O 0.17177 0.554 0.35937 0.0
O187 O 0.14724 0.56415 0.37672 0.0
C188 C 0.15648 0.54994 0.37006 0.0
C189 C 0.13929 0.62001 0.39905 0.0
C190 C 0.14836 0.60359 0.32967 0.0
C191 C 0.19945 0.61201 0.37674 0.0
O192 O 0.1873 0.62452 0.37288 0.0
O193 O 0.19366 0.59396 0.37565 0.0
O194 O 0.14362 0.63485 0.38813 0.0
O195 O 0.14426 0.60324 0.3932 0.0
O196 O 0.33201 0.42013 0.83627 0.0
Cd197 Cd 0.32326 0.42592 0.86461 0.0
Cd198 Cd 0.33464 0.3914 0.86966 0.0
O199 O 0.35028 0.39649 0.8444 0.0
O200 O 0.32027 0.45428 0.86582 0.0
O201 O 0.34382 0.44068 0.88271 0.0
C202 C 0.33576 0.45618 0.87768 0.0
C203 C 0.34882 0.38506 0.90016 0.0
C204 C 0.34473 0.4084 0.83178 0.0
C205 C 0.29156 0.39443 0.87153 0.0
O206 O 0.30442 0.38304 0.86665 0.0
O207 O 0.2967 0.4125 0.87417 0.0
O208 O 0.34648 0.3718 0.88634 0.0
O209 O 0.34421 0.40234 0.89615 0.0
O210 O 0.86259 0.85953 0.55602 0.0
Cd211 Cd 0.86269 0.85693 0.58613 0.0
Cd212 Cd 0.86875 0.81887 0.57732 0.0
O213 O 0.86435 0.82844 0.54891 0.0
O214 O 0.84912 0.87933 0.59615 0.0
O215 O 0.83685 0.84863 0.59917 0.0
C216 C 0.83489 0.86696 0.60175 0.0
C217 C 0.85708 0.78674 0.58412 0.0
C218 C 0.86305 0.84578 0.54337 0.0
C219 C 0.9016 0.84406 0.6 0.0
O220 O 0.89569 0.82779 0.59165 0.0
O221 O 0.89043 0.85791 0.60012 0.0
O222 O 0.87125 0.79078 0.57213 0.0
O223 O 0.84885 0.80102 0.59202 0.0
O224 O 0.89326 0.08709 0.35033 0.0
Cd225 Cd 0.90812 0.11213 0.33946 0.0
Cd226 Cd 0.90289 0.1219 0.37864 0.0
O227 O 0.88848 0.09469 0.38145 0.0
O228 O 0.91202 0.10223 0.31233 0.0
O229 O 0.89376 0.12646 0.31836 0.0
C230 C 0.90052 0.11466 0.30578 0.0
C231 C 0.88642 0.14949 0.38374 0.0
C232 C 0.88648 0.08257 0.36708 0.0
C233 C 0.94479 0.12444 0.36573 0.0
O234 O 0.93359 0.12438 0.38046 0.0
O235 O 0.9374 0.12115 0.34837 0.0
O236 O 0.89289 0.13983 0.39834 0.0
O237 O 0.88908 0.1432 0.36601 0.0
O238 O 0.59102 0.16746 0.08734 0.0
Cd239 Cd 0.61855 0.17471 0.07565 0.0
Cd240 Cd 0.62208 0.13751 0.08342 0.0
O241 O 0.59658 0.139 0.09941 0.0
O242 O 0.61788 0.20293 0.07103 0.0
O243 O 0.63901 0.19169 0.09259 0.0
C244 C 0.6319 0.20636 0.08434 0.0
C245 C 0.65295 0.13178 0.09715 0.0
C246 C 0.58538 0.15271 0.09736 0.0
C247 C 0.62061 0.14716 0.04119 0.0
O248 O 0.61863 0.13332 0.05325 0.0
O249 O 0.6227 0.16472 0.04748 0.0
O250 O 0.63904 0.1177 0.09382 0.0
O251 O 0.64887 0.14934 0.09352 0.0
O252 O 0.57421 0.86791 0.86806 0.0
Cd253 Cd 0.60441 0.8713 0.86357 0.0
Cd254 Cd 0.59263 0.87751 0.82583 0.0
O255 O 0.56527 0.8666 0.83645 0.0
O256 O 0.61782 0.85656 0.88401 0.0
O257 O 0.61774 0.84912 0.85204 0.0
C258 C 0.62286 0.84528 0.86998 0.0
C259 C 0.59837 0.87094 0.79261 0.0
C260 C 0.56075 0.86529 0.85445 0.0
C261 C 0.61448 0.91102 0.85048 0.0
O262 O 0.60455 0.9052 0.83484 0.0
O263 O 0.61743 0.89929 0.86418 0.0
O264 O 0.58485 0.88179 0.79787 0.0
O265 O 0.60851 0.86314 0.80629 0.0
O266 O 0.88855 0.18352 0.89119 0.0
Cd267 Cd 0.88368 0.15439 0.89783 0.0
Cd268 Cd 0.87668 0.16875 0.9329 0.0
O269 O 0.89 0.19427 0.92205 0.0
O270 O 0.89543 0.13986 0.87629 0.0
O271 O 0.90624 0.13949 0.90746 0.0
C272 C 0.90763 0.1338 0.88932 0.0
C273 C 0.88524 0.15968 0.96469 0.0
C274 C 0.89172 0.19744 0.90378 0.0
C275 C 0.8417 0.14892 0.90965 0.0
O276 O 0.8473 0.16062 0.92389 0.0
O277 O 0.85447 0.14294 0.89818 0.0
O278 O 0.8753 0.17444 0.96155 0.0
O279 O 0.89092 0.15017 0.94962 0.0
O280 O 0.57437 0.15578 0.64584 0.0
Cd281 Cd 0.56771 0.12766 0.65526 0.0
Cd282 Cd 0.60498 0.12695 0.64575 0.0
O283 O 0.6011 0.151 0.62916 0.0
O284 O 0.53922 0.12792 0.66189 0.0
O285 O 0.54895 0.10999 0.63729 0.0
C286 C 0.5346 0.11608 0.64722 0.0
C287 C 0.61084 0.09646 0.63378 0.0
C288 C 0.58765 0.16181 0.63388 0.0
C289 C 0.59761 0.12528 0.68782 0.0
O290 O 0.61048 0.13155 0.67558 0.0
O291 O 0.57978 0.11988 0.68192 0.0
O292 O 0.62513 0.11042 0.6354 0.0
O293 O 0.59289 0.10029 0.6378 0.0
O294 O 0.65252 0.82768 0.41679 0.0
Cd295 Cd 0.62382 0.81906 0.4254 0.0
Cd296 Cd 0.61457 0.83011 0.38933 0.0
O297 O 0.64422 0.83982 0.38815 0.0
O298 O 0.62605 0.81727 0.4546 0.0
O299 O 0.60949 0.83921 0.43939 0.0
C300 C 0.61597 0.83221 0.45564 0.0
C301 C 0.58996 0.85088 0.38319 0.0
C302 C 0.65742 0.83634 0.40105 0.0
C303 C 0.60663 0.7878 0.39714 0.0
O304 O 0.60794 0.80077 0.38411 0.0
O305 O 0.61068 0.79226 0.41519 0.0
O306 O 0.59985 0.84406 0.36904 0.0
O307 O 0.59428 0.84606 0.40101 0.0
O308 O 0.88611 0.88767 0.17726 0.0
Cd309 Cd 0.89161 0.88631 0.14747 0.0
Cd310 Cd 0.9282 0.88031 0.16148 0.0
O311 O 0.91751 0.88876 0.18802 0.0
O312 O 0.86943 0.89909 0.13467 0.0
O313 O 0.90111 0.91139 0.13455 0.0
C314 C 0.88249 0.91312 0.13018 0.0
C315 C 0.961 0.89036 0.1534 0.0
C316 C 0.89911 0.88951 0.19137 0.0
C317 C 0.90423 0.84703 0.13972 0.0
O318 O 0.91884 0.85252 0.15151 0.0
O319 O 0.89194 0.85898 0.13439 0.0
O320 O 0.95705 0.87886 0.16776 0.0
O321 O 0.9462 0.897 0.14395 0.0
O322 O 0.86277 0.55441 0.87376 0.0
Cd323 Cd 0.86111 0.58434 0.8739 0.0
Cd324 Cd 0.82681 0.57305 0.89085 0.0
O325 O 0.83207 0.54521 0.88273 0.0
O326 O 0.88172 0.59457 0.85535 0.0
O327 O 0.84936 0.59672 0.85004 0.0
C328 C 0.86748 0.59996 0.84418 0.0
C329 C 0.79624 0.58533 0.88446 0.0
C330 C 0.84902 0.54095 0.87709 0.0
C331 C 0.85859 0.59629 0.91579 0.0
O332 O 0.84262 0.58482 0.91542 0.0
O333 O 0.86785 0.59988 0.90005 0.0
O334 O 0.79849 0.57329 0.89846 0.0
O335 O 0.81118 0.58983 0.87334 0.0
O336 O 0.34723 0.90743 0.16071 0.0
Cd337 Cd 0.33809 0.91464 0.13249 0.0
Cd338 Cd 0.34563 0.8776 0.12626 0.0
O339 O 0.35736 0.8785 0.15442 0.0
O340 O 0.33335 0.9425 0.13562 0.0
O341 O 0.35731 0.93258 0.11739 0.0
C342 C 0.34818 0.9467 0.12441 0.0
C343 C 0.36366 0.87481 0.09811 0.0
C344 C 0.35521 0.89243 0.16643 0.0
C345 C 0.30397 0.88514 0.11922 0.0
O346 O 0.31526 0.87188 0.12297 0.0
O347 O 0.31075 0.90296 0.12039 0.0
O348 O 0.35862 0.85977 0.10856 0.0
O349 O 0.35933 0.89168 0.1044 0.0
O350 O 0.15456 0.08546 0.65775 0.0
Cd351 Cd 0.163 0.0786 0.62961 0.0
Cd352 Cd 0.15228 0.11341 0.62441 0.0
O353 O 0.13598 0.10875 0.64931 0.0
O354 O 0.16816 0.05083 0.63115 0.0
O355 O 0.14315 0.06085 0.61324 0.0
C356 C 0.15255 0.0467 0.61976 0.0
C357 C 0.13939 0.11813 0.59303 0.0
C358 C 0.14171 0.0971 0.6621 0.0
C359 C 0.19496 0.10969 0.62247 0.0
O360 O 0.18256 0.12127 0.62805 0.0
O361 O 0.18924 0.09182 0.6192 0.0
O362 O 0.14109 0.13209 0.60616 0.0
O363 O 0.14375 0.10108 0.59828 0.0
O364 O 0.19577 0.88406 0.87267 0.0
Cd365 Cd 0.16554 0.88769 0.86976 0.0
Cd366 Cd 0.17929 0.92256 0.85766 0.0
O367 O 0.20654 0.91465 0.86761 0.0
O368 O 0.15167 0.86676 0.88542 0.0
O369 O 0.15166 0.89809 0.89304 0.0
C370 C 0.14636 0.88016 0.89712 0.0
C371 C 0.16843 0.95212 0.8678 0.0
C372 C 0.21009 0.89748 0.87197 0.0
C373 C 0.15667 0.8962 0.82766 0.0
O374 O 0.16858 0.91152 0.83046 0.0
O375 O 0.15208 0.88518 0.84194 0.0
O376 O 0.18266 0.95137 0.85556 0.0
O377 O 0.16052 0.93596 0.87472 0.0
O378 O 0.69026 0.38466 0.37959 0.0
Cd379 Cd 0.66044 0.38883 0.37665 0.0
Cd380 Cd 0.67443 0.42446 0.36503 0.0
O381 O 0.70179 0.41468 0.37276 0.0
O382 O 0.64601 0.36866 0.39265 0.0
O383 O 0.64661 0.40026 0.39938 0.0
C384 C 0.64085 0.38252 0.40386 0.0
C385 C 0.66768 0.45597 0.37391 0.0
C386 C 0.70489 0.39748 0.3776 0.0
C387 C 0.64998 0.39813 0.3354 0.0
O388 O 0.6604 0.41428 0.33881 0.0
O389 O 0.64757 0.38568 0.34883 0.0
O390 O 0.68069 0.45283 0.36097 0.0
O391 O 0.6589 0.44114 0.38256 0.0
O392 O 0.84932 0.40007 0.66361 0.0
Cd393 Cd 0.83424 0.41033 0.63942 0.0
Cd394 Cd 0.83878 0.37236 0.62823 0.0
O395 O 0.85403 0.37007 0.65438 0.0
O396 O 0.82959 0.43619 0.65062 0.0
O397 O 0.84768 0.43281 0.62441 0.0
C398 C 0.84044 0.44412 0.63715 0.0
C399 C 0.8535 0.36953 0.59816 0.0
C400 C 0.85618 0.3839 0.66706 0.0
C401 C 0.79737 0.38235 0.62887 0.0
O402 O 0.80825 0.36834 0.62843 0.0
O403 O 0.80509 0.39976 0.63167 0.0
O404 O 0.84812 0.35436 0.60829 0.0
O405 O 0.85108 0.38654 0.60557 0.0
O406 O 0.65513 0.59457 0.08513 0.0
Cd407 Cd 0.66415 0.5788 0.10868 0.0
Cd408 Cd 0.62619 0.58668 0.11915 0.0
O409 O 0.62542 0.60237 0.09369 0.0
O410 O 0.69134 0.57425 0.10025 0.0
O411 O 0.68621 0.59177 0.12686 0.0
C412 C 0.69861 0.58511 0.11488 0.0
C413 C 0.62228 0.59951 0.15048 0.0
C414 C 0.63952 0.60311 0.08162 0.0
C415 C 0.63322 0.54488 0.11473 0.0
O416 O 0.62037 0.55706 0.11671 0.0
O417 O 0.65151 0.55065 0.11232 0.0
O418 O 0.60715 0.59573 0.13832 0.0
O419 O 0.63994 0.59708 0.14432 0.0
O420 O 0.63053 0.63863 0.92999 0.0
Cd421 Cd 0.63461 0.64569 0.90088 0.0
Cd422 Cd 0.63171 0.68102 0.9143 0.0
O423 O 0.6396 0.66868 0.94048 0.0
O424 O 0.65061 0.62634 0.88821 0.0
O425 O 0.66209 0.65717 0.89464 0.0
C426 C 0.66524 0.63996 0.88832 0.0
C427 C 0.64405 0.71301 0.90823 0.0
C428 C 0.63543 0.65078 0.94404 0.0
C429 C 0.59732 0.66139 0.88968 0.0
O430 O 0.60289 0.67407 0.90308 0.0
O431 O 0.60925 0.64932 0.88413 0.0
O432 O 0.63177 0.7089 0.92206 0.0
O433 O 0.6501 0.6988 0.8981 0.0
O434 O 0.58621 0.40072 0.15493 0.0
Cd435 Cd 0.57775 0.37458 0.16745 0.0
Cd436 Cd 0.5895 0.36147 0.13242 0.0
O437 O 0.60029 0.3901 0.12846 0.0
O438 O 0.57384 0.38332 0.1949 0.0
O439 O 0.59628 0.36323 0.18711 0.0
C440 C 0.58823 0.37338 0.20035 0.0
C441 C 0.61017 0.33706 0.12593 0.0
C442 C 0.59589 0.40408 0.13942 0.0
C443 C 0.5457 0.35444 0.14138 0.0
O444 O 0.55895 0.35396 0.12842 0.0
O445 O 0.55042 0.36107 0.15865 0.0
O446 O 0.60226 0.34644 0.11193 0.0
O447 O 0.60662 0.3418 0.14392 0.0
O448 O 0.90762 0.32655 0.41011 0.0
Cd449 Cd 0.88023 0.31855 0.42187 0.0
Cd450 Cd 0.8757 0.35599 0.41292 0.0
O451 O 0.90137 0.35453 0.39729 0.0
O452 O 0.88295 0.29107 0.42863 0.0
O453 O 0.86101 0.29917 0.40606 0.0
C454 C 0.8691 0.28577 0.41558 0.0
C455 C 0.84529 0.36256 0.39883 0.0
C456 C 0.91293 0.34117 0.39976 0.0
C457 C 0.87626 0.34715 0.4553 0.0
O458 O 0.87854 0.36075 0.44301 0.0
O459 O 0.87475 0.32948 0.44938 0.0
O460 O 0.85957 0.37626 0.4022 0.0
O461 O 0.84876 0.34484 0.40251 0.0
O462 O 0.91928 0.62939 0.62853 0.0
Cd463 Cd 0.88913 0.62698 0.6334 0.0
Cd464 Cd 0.90194 0.62106 0.67129 0.0
O465 O 0.9291 0.63153 0.65991 0.0
O466 O 0.87635 0.64108 0.61195 0.0
O467 O 0.87647 0.6503 0.64345 0.0
C468 C 0.87173 0.65339 0.62523 0.0
C469 C 0.89709 0.62743 0.70479 0.0
C470 C 0.93313 0.63217 0.64174 0.0
C471 C 0.87901 0.58754 0.64732 0.0
O472 O 0.88961 0.59345 0.66253 0.0
O473 O 0.87551 0.59917 0.63367 0.0
O474 O 0.91034 0.61649 0.69906 0.0
O475 O 0.8868 0.63553 0.69143 0.0
O476 O 0.59996 0.31354 0.60882 0.0
Cd477 Cd 0.60854 0.34285 0.60749 0.0
Cd478 Cd 0.61892 0.33452 0.57041 0.0
O479 O 0.60913 0.30667 0.57877 0.0
O480 O 0.59494 0.35574 0.6289 0.0
O481 O 0.58909 0.3609 0.59718 0.0
C482 C 0.58535 0.36438 0.61543 0.0
C483 C 0.61113 0.34275 0.53811 0.0
C484 C 0.60199 0.30118 0.59509 0.0
C485 C 0.65147 0.352 0.59858 0.0
O486 O 0.6466 0.34637 0.58101 0.0
O487 O 0.63851 0.35151 0.61182 0.0
O488 O 0.62331 0.32996 0.54203 0.0
O489 O 0.60291 0.35093 0.55264 0.0
O490 O 0.87871 0.36749 0.81972 0.0
Cd491 Cd 0.88121 0.3707 0.84974 0.0
Cd492 Cd 0.92081 0.37081 0.84465 0.0
O493 O 0.91071 0.37693 0.81648 0.0
O494 O 0.86101 0.3877 0.85909 0.0
O495 O 0.89376 0.39648 0.85982 0.0
C496 C 0.87575 0.40097 0.86252 0.0
C497 C 0.954 0.3823 0.85258 0.0
C498 C 0.89325 0.37269 0.80891 0.0
C499 C 0.89809 0.33631 0.86446 0.0
O500 O 0.91376 0.34352 0.85621 0.0
O501 O 0.88268 0.34559 0.86509 0.0
O502 O 0.94935 0.36929 0.83898 0.0
O503 O 0.93968 0.38948 0.86163 0.0
O504 O 0.84024 0.65607 0.08755 0.0
Cd505 Cd 0.86618 0.67068 0.07783 0.0
Cd506 Cd 0.87955 0.66253 0.11441 0.0
O507 O 0.851 0.6493 0.11748 0.0
O508 O 0.862 0.67244 0.04879 0.0
O509 O 0.88443 0.65495 0.06258 0.0
C510 C 0.87563 0.66068 0.04683 0.0
C511 C 0.90694 0.64491 0.12004 0.0
C512 C 0.83716 0.64839 0.10419 0.0
C513 C 0.88108 0.7047 0.10437 0.0
O514 O 0.88431 0.6924 0.1175 0.0
O515 O 0.87408 0.69901 0.08739 0.0
O516 O 0.89721 0.65149 0.13444 0.0
O517 O 0.90081 0.64807 0.10224 0.0
O518 O 0.61189 0.61151 0.30762 0.0
Cd519 Cd 0.60938 0.61193 0.33776 0.0
Cd520 Cd 0.56992 0.61634 0.32866 0.0
O521 O 0.57963 0.61152 0.30042 0.0
O522 O 0.63232 0.59892 0.34868 0.0
O523 O 0.6007 0.58697 0.35121 0.0
C524 C 0.61952 0.5852 0.35441 0.0
C525 C 0.53715 0.60514 0.3362 0.0
C526 C 0.5975 0.61091 0.29493 0.0
C527 C 0.59491 0.64904 0.35123 0.0
O528 O 0.57842 0.6428 0.34258 0.0
O529 O 0.60962 0.63877 0.35157 0.0
O530 O 0.54095 0.61833 0.32336 0.0
O531 O 0.55205 0.59735 0.34423 0.0
O532 O 0.63382 0.94515 0.62549 0.0
Cd533 Cd 0.6376 0.91567 0.62525 0.0
Cd534 Cd 0.67163 0.92838 0.60859 0.0
O535 O 0.66424 0.9556 0.61675 0.0
O536 O 0.6173 0.904 0.64335 0.0
O537 O 0.64988 0.90388 0.64916 0.0
C538 C 0.63181 0.89942 0.65468 0.0
C539 C 0.70324 0.91858 0.61606 0.0
C540 C 0.647 0.95911 0.62222 0.0
C541 C 0.64161 0.9037 0.5833 0.0
O542 O 0.65721 0.9157 0.58363 0.0
O543 O 0.6322 0.90018 0.59898 0.0
O544 O 0.7006 0.93127 0.60277 0.0
O545 O 0.68789 0.91182 0.62571 0.0
O546 O 0.36576 0.3575 0.05483 0.0
Cd547 Cd 0.36449 0.35054 0.08434 0.0
Cd548 Cd 0.36806 0.31487 0.0702 0.0
O549 O 0.36049 0.32709 0.0439 0.0
O550 O 0.35066 0.37087 0.09824 0.0
O551 O 0.33753 0.34032 0.09351 0.0
C552 C 0.33571 0.35783 0.09988 0.0
C553 C 0.35562 0.28327 0.0779 0.0
C554 C 0.3624 0.34523 0.04059 0.0
C555 C 0.40277 0.33459 0.09391 0.0
O556 O 0.3969 0.32164 0.08091 0.0
O557 O 0.39108 0.34695 0.09938 0.0
O558 O 0.36746 0.28664 0.06354 0.0
O559 O 0.34978 0.29801 0.08737 0.0
O560 O 0.40829 0.58847 0.84978 0.0
Cd561 Cd 0.41769 0.61196 0.83325 0.0
Cd562 Cd 0.4081 0.63188 0.86618 0.0
O563 O 0.39535 0.60466 0.87379 0.0
O564 O 0.41744 0.60089 0.80605 0.0
O565 O 0.39849 0.62394 0.81489 0.0
C566 C 0.40396 0.61225 0.80141 0.0
C567 C 0.39046 0.65857 0.87337 0.0
C568 C 0.39856 0.58865 0.8655 0.0
C569 C 0.45167 0.63435 0.85463 0.0
O570 O 0.43906 0.6379 0.86752 0.0
O571 O 0.44603 0.62478 0.83895 0.0
O572 O 0.39906 0.64931 0.887 0.0
O573 O 0.39148 0.65241 0.85535 0.0
O574 O 0.07922 0.66269 0.58909 0.0
Cd575 Cd 0.10507 0.67115 0.57448 0.0
Cd576 Cd 0.11124 0.63357 0.58225 0.0
O577 O 0.08494 0.63282 0.5971 0.0
O578 O 0.10203 0.69892 0.56914 0.0
O579 O 0.12578 0.68984 0.58923 0.0
C580 C 0.11703 0.70365 0.58111 0.0
C581 C 0.1421 0.62943 0.59699 0.0
C582 C 0.07395 0.6468 0.59747 0.0
C583 C 0.10916 0.64302 0.54003 0.0
O584 O 0.10921 0.62934 0.55225 0.0
O585 O 0.10864 0.66051 0.5461 0.0
O586 O 0.12906 0.61473 0.59308 0.0
O587 O 0.1371 0.6467 0.59342 0.0
O588 O 0.06672 0.36278 0.36582 0.0
Cd589 Cd 0.09721 0.36848 0.36204 0.0
Cd590 Cd 0.08353 0.38188 0.32718 0.0
O591 O 0.05649 0.36909 0.33563 0.0
O592 O 0.10945 0.35352 0.38321 0.0
O593 O 0.11216 0.3467 0.35148 0.0
C594 C 0.11569 0.34247 0.36965 0.0
C595 C 0.09146 0.37876 0.29409 0.0
C596 C 0.05269 0.36322 0.35283 0.0
C597 C 0.10465 0.41111 0.35599 0.0
O598 O 0.09327 0.4081 0.34071 0.0
O599 O 0.10986 0.39694 0.36599 0.0
O600 O 0.07755 0.38904 0.29961 0.0
O601 O 0.10096 0.36984 0.30746 0.0
O602 O 0.39532 0.68874 0.39309 0.0
Cd603 Cd 0.3873 0.65941 0.39573 0.0
Cd604 Cd 0.37739 0.67042 0.43315 0.0
O605 O 0.3879 0.69751 0.42322 0.0
O606 O 0.39956 0.64673 0.37321 0.0
O607 O 0.40795 0.64169 0.40436 0.0
C608 C 0.41043 0.63835 0.38583 0.0
C609 C 0.38418 0.66315 0.46601 0.0
C610 C 0.39419 0.7019 0.40625 0.0
C611 C 0.34438 0.65162 0.40599 0.0
O612 O 0.34947 0.65892 0.42294 0.0
O613 O 0.35723 0.65035 0.39282 0.0
O614 O 0.37274 0.67636 0.46128 0.0
O615 O 0.39249 0.65426 0.452 0.0
O616 O 0.08895 0.65477 0.14118 0.0
Cd617 Cd 0.08022 0.62921 0.15519 0.0
Cd618 Cd 0.11892 0.62293 0.14483 0.0
O619 O 0.11918 0.64956 0.13161 0.0
O620 O 0.05283 0.63389 0.16301 0.0
O621 O 0.05847 0.61109 0.14113 0.0
C622 C 0.04586 0.62026 0.15077 0.0
C623 C 0.12291 0.59385 0.12849 0.0
C624 C 0.10486 0.66029 0.13238 0.0
C625 C 0.11091 0.62204 0.18757 0.0
O626 O 0.12425 0.62246 0.17471 0.0
O627 O 0.09276 0.62364 0.18255 0.0
O628 O 0.13806 0.60643 0.1326 0.0
O629 O 0.10523 0.59846 0.13255 0.0
O630 O 0.15014 0.3297 0.91395 0.0
Cd631 Cd 0.12427 0.31541 0.9241 0.0
Cd632 Cd 0.11011 0.3248 0.88855 0.0
O633 O 0.13917 0.3353 0.88384 0.0
O634 O 0.13166 0.31158 0.95213 0.0
O635 O 0.10786 0.3298 0.94282 0.0
C636 C 0.11849 0.32309 0.95685 0.0
C637 C 0.08552 0.34597 0.88467 0.0
C638 C 0.15321 0.33631 0.89688 0.0
C639 C 0.10657 0.28255 0.89715 0.0
O640 O 0.10254 0.29534 0.88481 0.0
O641 O 0.11529 0.28758 0.91362 0.0
O642 O 0.09349 0.33836 0.86967 0.0
O643 O 0.09149 0.34143 0.90213 0.0
O644 O 0.38197 0.39691 0.68044 0.0
Cd645 Cd 0.38803 0.39487 0.65079 0.0
Cd646 Cd 0.42456 0.38921 0.66553 0.0
O647 O 0.41321 0.39789 0.69166 0.0
O648 O 0.36572 0.40668 0.63715 0.0
O649 O 0.39717 0.41969 0.63727 0.0
C650 C 0.37855 0.42077 0.63235 0.0
C651 C 0.45725 0.39999 0.65786 0.0
C652 C 0.39479 0.39894 0.69471 0.0
C653 C 0.40173 0.35578 0.64328 0.0
O654 O 0.41605 0.36128 0.6554 0.0
O655 O 0.38927 0.36758 0.63799 0.0
O656 O 0.45339 0.38855 0.67229 0.0
O657 O 0.44238 0.40618 0.6481 0.0
O658 O 0.36572 0.05799 0.3725 0.0
Cd659 Cd 0.36245 0.08719 0.3707 0.0
Cd660 Cd 0.32509 0.07629 0.38335 0.0
O661 O 0.33448 0.0487 0.3796 0.0
O662 O 0.38332 0.09785 0.35278 0.0
O663 O 0.35083 0.09738 0.34572 0.0
C664 C 0.36911 0.10149 0.34057 0.0
C665 C 0.29229 0.0817 0.37413 0.0
C666 C 0.35206 0.04456 0.37591 0.0
C667 C 0.35306 0.10354 0.4096 0.0
O668 O 0.33631 0.09336 0.40729 0.0
O669 O 0.36601 0.10363 0.39636 0.0
O670 O 0.29617 0.07098 0.38881 0.0
O671 O 0.30708 0.08888 0.36398 0.0
H672 H 0.12631 0.31307 0.34521 0.0
H673 H 0.12883 0.2402 0.4334 0.0
H674 H 0.12564 0.33086 0.40654 0.0
H675 H 0.14609 0.22436 0.37499 0.0
H676 H 0.13008 0.27411 0.42381 0.0
H677 H 0.13609 0.28129 0.35536 0.0
C678 C 0.12856 0.31044 0.36077 0.0
C679 C 0.12485 0.32455 0.37506 0.0
C680 C 0.13391 0.26333 0.41311 0.0
C681 C 0.13582 0.28825 0.38673 0.0
C682 C 0.13318 0.24395 0.4186 0.0
C683 C 0.13725 0.22949 0.40492 0.0
C684 C 0.13827 0.2683 0.39362 0.0
C685 C 0.14289 0.23513 0.38597 0.0
C686 C 0.13413 0.2923 0.36655 0.0
C687 C 0.12805 0.32036 0.395 0.0
N688 N 0.14287 0.25409 0.38073 0.0
N689 N 0.13307 0.30254 0.40023 0.0
H690 H 0.01921 0.84077 0.65668 0.0
H691 H 0.92648 0.87763 0.59999 0.0
H692 H 0.02669 0.87436 0.60401 0.0
H693 H 0.92394 0.81765 0.61734 0.0
H694 H 0.96234 0.88154 0.60915 0.0
H695 H 0.98288 0.83632 0.64936 0.0
C696 C 0.01319 0.84711 0.64356 0.0
C697 C 0.02586 0.85782 0.63082 0.0
C698 C 0.9538 0.86762 0.6111 0.0
C699 C 0.98468 0.8534 0.62289 0.0
C700 C 0.9334 0.86542 0.60609 0.0
C701 C 0.92235 0.84729 0.60792 0.0
C702 C 0.96299 0.85173 0.61846 0.0
C703 C 0.93203 0.83184 0.61566 0.0
C704 C 0.99258 0.84458 0.63944 0.0
C705 C 0.0174 0.86583 0.61406 0.0
N706 N 0.95186 0.83442 0.62078 0.0
N707 N 0.99726 0.86368 0.61069 0.0
H708 H 0.37868 0.76242 0.93734 0.0
H709 H 0.37831 0.6866 0.84854 0.0
H710 H 0.36263 0.77709 0.87783 0.0
H711 H 0.38164 0.67148 0.90991 0.0
H712 H 0.36846 0.71864 0.85844 0.0
H713 H 0.37554 0.72812 0.92753 0.0
C714 C 0.37414 0.75831 0.92224 0.0
C715 C 0.37105 0.77252 0.90832 0.0
C716 C 0.37099 0.70816 0.86968 0.0
C717 C 0.368 0.73327 0.89674 0.0
C718 C 0.3766 0.68987 0.86404 0.0
C719 C 0.38117 0.67651 0.87845 0.0
C720 C 0.37005 0.71303 0.88984 0.0
C721 C 0.37863 0.68146 0.89831 0.0
C722 C 0.37235 0.73872 0.9166 0.0
C723 C 0.36511 0.76649 0.88897 0.0
N724 N 0.37351 0.69937 0.9034 0.0
N725 N 0.36418 0.74728 0.88361 0.0
H726 H 0.4587 0.15563 0.11049 0.0
H727 H 0.57003 0.12743 0.1251 0.0
H728 H 0.47838 0.12615 0.1621 0.0
H729 H 0.55486 0.1748 0.08863 0.0
H730 H 0.53598 0.12481 0.13748 0.0
H731 H 0.49354 0.16112 0.10075 0.0
C732 C 0.47035 0.15044 0.11983 0.0
C733 C 0.46563 0.1404 0.1371 0.0
C734 C 0.54021 0.13585 0.12687 0.0
C735 C 0.5054 0.14636 0.12591 0.0
C736 C 0.55959 0.13731 0.11976 0.0
C737 C 0.56528 0.15132 0.10579 0.0
C738 C 0.52639 0.14828 0.1197 0.0
C739 C 0.55115 0.16379 0.09941 0.0
C740 C 0.49021 0.1536 0.11429 0.0
C741 C 0.48134 0.13402 0.14868 0.0
N742 N 0.53231 0.16186 0.10628 0.0
N743 N 0.50051 0.13692 0.14277 0.0
H744 H 0.13815 0.68631 0.13222 0.0
H745 H 0.09238 0.76782 0.07025 0.0
H746 H 0.07578 0.67865 0.11367 0.0
H747 H 0.1274 0.78241 0.12385 0.0
H748 H 0.09093 0.73316 0.07876 0.0
H749 H 0.1398 0.7202 0.12132 0.0
C750 C 0.12494 0.69167 0.12553 0.0
C751 C 0.10679 0.67981 0.12387 0.0
C752 C 0.09888 0.74405 0.08858 0.0
C753 C 0.10867 0.7181 0.11122 0.0
C754 C 0.09969 0.76371 0.08379 0.0
C755 C 0.10984 0.77791 0.0965 0.0
C756 C 0.10889 0.73866 0.10578 0.0
C757 C 0.1192 0.7719 0.11381 0.0
C758 C 0.12586 0.71095 0.11948 0.0
C759 C 0.09001 0.68745 0.11528 0.0
N760 N 0.11871 0.75267 0.11785 0.0
N761 N 0.09136 0.70614 0.10915 0.0
H762 H 0.47356 0.89245 0.38422 0.0
H763 H 0.57953 0.86574 0.34778 0.0
H764 H 0.48829 0.88382 0.32343 0.0
H765 H 0.56233 0.86307 0.40852 0.0
H766 H 0.54921 0.88104 0.33955 0.0
H767 H 0.50883 0.89052 0.39398 0.0
C768 C 0.48431 0.89072 0.3729 0.0
C769 C 0.47803 0.88799 0.35303 0.0
C770 C 0.55216 0.87734 0.35474 0.0
C771 C 0.51813 0.88562 0.36403 0.0
C772 C 0.56948 0.86858 0.35945 0.0
C773 C 0.57325 0.86276 0.37879 0.0
C774 C 0.53838 0.88017 0.36943 0.0
C775 C 0.55985 0.8671 0.39336 0.0
C776 C 0.50438 0.88947 0.37848 0.0
C777 C 0.4925 0.8857 0.33895 0.0
N778 N 0.54282 0.87529 0.38833 0.0
N779 N 0.51182 0.88435 0.34474 0.0
H780 H 0.40537 0.23158 0.63044 0.0
H781 H 0.37623 0.33955 0.61365 0.0
H782 H 0.37074 0.24744 0.57955 0.0
H783 H 0.4224 0.32568 0.65536 0.0
H784 H 0.37283 0.30565 0.60169 0.0
H785 H 0.41085 0.2659 0.64049 0.0
C786 C 0.39901 0.24229 0.62131 0.0
C787 C 0.38753 0.23662 0.60415 0.0
C788 C 0.38376 0.31008 0.6134 0.0
C789 C 0.39359 0.27592 0.61569 0.0
C790 C 0.38566 0.3294 0.62028 0.0
C791 C 0.39958 0.33547 0.63556 0.0
C792 C 0.39573 0.2967 0.622 0.0
C793 C 0.41146 0.32168 0.64355 0.0
C794 C 0.40217 0.26189 0.62705 0.0
C795 C 0.37971 0.25115 0.59288 0.0
N796 N 0.40918 0.30295 0.63675 0.0
N797 N 0.38275 0.27012 0.59893 0.0
H798 H 0.02238 0.09055 0.87761 0.0
H799 H 0.91127 0.11652 0.85332 0.0
H800 H 0.9969 0.09627 0.81909 0.0
H801 H 0.9397 0.12312 0.91137 0.0
H802 H 0.93949 0.10018 0.84191 0.0
H803 H 0.98927 0.09327 0.89117 0.0
C804 C 0.00969 0.09175 0.86759 0.0
C805 C 0.01235 0.09348 0.84724 0.0
C806 C 0.93948 0.10498 0.85721 0.0
C807 C 0.97471 0.09678 0.86257 0.0
C808 C 0.92337 0.11436 0.86375 0.0
C809 C 0.92334 0.12156 0.88323 0.0
C810 C 0.9558 0.10291 0.87019 0.0
C811 C 0.93927 0.11802 0.89615 0.0
C812 C 0.99087 0.09347 0.87533 0.0
C813 C 0.9955 0.09514 0.8349 0.0
N814 N 0.95504 0.10919 0.88932 0.0
N815 N 0.97745 0.09699 0.84277 0.0
H816 H 0.43014 0.11625 0.23309 0.0
H817 H 0.34315 0.10843 0.3098 0.0
H818 H 0.37025 0.12921 0.21701 0.0
H819 H 0.40604 0.1114 0.32625 0.0
H820 H 0.35212 0.11708 0.27607 0.0
H821 H 0.4212 0.11535 0.26755 0.0
C822 C 0.41511 0.11906 0.23687 0.0
C823 C 0.40086 0.12268 0.22219 0.0
C824 C 0.36391 0.11608 0.28716 0.0
C825 C 0.39038 0.12141 0.26172 0.0
C826 C 0.35881 0.11113 0.3064 0.0
C827 C 0.37388 0.10895 0.32081 0.0
C828 C 0.38418 0.11869 0.28235 0.0
C829 C 0.39391 0.1127 0.3156 0.0
C830 C 0.41001 0.1186 0.25658 0.0
C831 C 0.38166 0.12638 0.22793 0.0
N832 N 0.39846 0.11717 0.29679 0.0
N833 N 0.37685 0.12537 0.24727 0.0
H834 H 0.13616 0.11366 0.46573 0.0
H835 H 0.13051 0.15258 0.57718 0.0
H836 H 0.12805 0.17325 0.48155 0.0
H837 H 0.13819 0.09296 0.56117 0.0
H838 H 0.12757 0.16001 0.54222 0.0
H839 H 0.13576 0.10561 0.50057 0.0
C840 C 0.13437 0.1251 0.47652 0.0
C841 C 0.1322 0.1442 0.47065 0.0
C842 C 0.12974 0.14526 0.54634 0.0
C843 C 0.13158 0.135 0.51068 0.0
C844 C 0.13131 0.14097 0.56632 0.0
C845 C 0.13469 0.12212 0.57213 0.0
C846 C 0.13162 0.13062 0.53203 0.0
C847 C 0.13562 0.1077 0.55739 0.0
C848 C 0.13406 0.12045 0.49644 0.0
C849 C 0.12985 0.15835 0.48535 0.0
N850 N 0.13425 0.11228 0.53802 0.0
N851 N 0.12961 0.15346 0.50467 0.0
H852 H 0.17259 0.90629 0.79233 0.0
H853 H 0.07521 0.87639 0.72785 0.0
H854 H 0.12135 0.87468 0.81766 0.0
H855 H 0.13343 0.87405 0.70328 0.0
H856 H 0.09098 0.87905 0.761 0.0
H857 H 0.15776 0.89831 0.75931 0.0
C858 C 0.15822 0.89768 0.79093 0.0
C859 C 0.14812 0.89117 0.8077 0.0
C860 C 0.10025 0.87771 0.74835 0.0
C861 C 0.1311 0.88224 0.77016 0.0
C862 C 0.0913 0.87624 0.72948 0.0
C863 C 0.10309 0.87501 0.71289 0.0
C864 C 0.12115 0.87852 0.75055 0.0
C865 C 0.12385 0.87487 0.71575 0.0
C866 C 0.14988 0.89303 0.77213 0.0
C867 C 0.12963 0.87994 0.80508 0.0
N868 N 0.1323 0.87696 0.73425 0.0
N869 N 0.12155 0.87604 0.78663 0.0
H870 H 0.38514 0.88826 0.97463 0.0
H871 H 0.37485 0.84149 0.08103 0.0
H872 H 0.38751 0.82707 0.98555 0.0
H873 H 0.37146 0.90256 0.07034 0.0
H874 H 0.38367 0.83672 0.04678 0.0
H875 H 0.38374 0.89442 0.01011 0.0
C876 C 0.38545 0.87612 0.98447 0.0
C877 C 0.38625 0.85707 0.97706 0.0
C878 C 0.38121 0.85121 0.05196 0.0
C879 C 0.38469 0.86407 0.01773 0.0
C880 C 0.37624 0.85397 0.07155 0.0
C881 C 0.37219 0.87242 0.07851 0.0
C882 C 0.38204 0.867 0.03917 0.0
C883 C 0.37433 0.88806 0.06558 0.0
C884 C 0.3847 0.87967 0.00475 0.0
C885 C 0.38675 0.84196 0.99056 0.0
N886 N 0.37889 0.88495 0.04647 0.0
N887 N 0.38584 0.84577 0.01022 0.0
H888 H 0.36217 0.85751 0.28754 0.0
H889 H 0.36809 0.9219 0.19261 0.0
H890 H 0.40811 0.90532 0.28321 0.0
H891 H 0.35558 0.85944 0.1878 0.0
H892 H 0.37698 0.91889 0.22775 0.0
H893 H 0.35326 0.86088 0.25245 0.0
C894 C 0.37024 0.8688 0.27924 0.0
C895 C 0.38592 0.88113 0.28817 0.0
C896 C 0.37232 0.90589 0.21892 0.0
C897 C 0.37566 0.88519 0.24843 0.0
C898 C 0.36723 0.90759 0.19897 0.0
C899 C 0.36121 0.89088 0.18736 0.0
C900 C 0.37081 0.88743 0.22733 0.0
C901 C 0.36033 0.87265 0.19625 0.0
C902 C 0.36525 0.87062 0.25928 0.0
C903 C 0.396 0.89546 0.27678 0.0
N904 N 0.36487 0.87141 0.21581 0.0
N905 N 0.39059 0.89722 0.25749 0.0
H906 H 0.34355 0.18101 0.50867 0.0
H907 H 0.38951 0.1152 0.42763 0.0
H908 H 0.39579 0.15126 0.52253 0.0
H909 H 0.3261 0.11915 0.43272 0.0
H910 H 0.39562 0.13463 0.45846 0.0
H911 H 0.34105 0.16518 0.47613 0.0
C912 C 0.3547 0.17138 0.50479 0.0
C913 C 0.36981 0.16729 0.51842 0.0
C914 C 0.38043 0.13124 0.4527 0.0
C915 C 0.36697 0.1492 0.48115 0.0
C916 C 0.37692 0.12026 0.43516 0.0
C917 C 0.35726 0.11553 0.42774 0.0
C918 C 0.36418 0.13787 0.46245 0.0
C919 C 0.34147 0.12235 0.43804 0.0
C920 C 0.35317 0.16228 0.48625 0.0
C921 C 0.38383 0.15469 0.5125 0.0
N922 N 0.34528 0.13329 0.45481 0.0
N923 N 0.38205 0.14599 0.49424 0.0
H924 H 0.13042 0.09233 0.78822 0.0
H925 H 0.10893 0.11385 0.67508 0.0
H926 H 0.07235 0.10524 0.76585 0.0
H927 H 0.1567 0.08055 0.69489 0.0
H928 H 0.09662 0.11388 0.70872 0.0
H929 H 0.14173 0.09083 0.75436 0.0
C930 C 0.12003 0.09479 0.77619 0.0
C931 C 0.10042 0.09891 0.77985 0.0
C932 C 0.10975 0.10651 0.70563 0.0
C933 C 0.11332 0.09743 0.74115 0.0
C934 C 0.11682 0.10656 0.68649 0.0
C935 C 0.13387 0.09719 0.68219 0.0
C936 C 0.11998 0.09729 0.72058 0.0
C937 C 0.14348 0.08791 0.69752 0.0
C938 C 0.12648 0.09388 0.75688 0.0
C939 C 0.08758 0.10193 0.76368 0.0
N940 N 0.13647 0.0883 0.71606 0.0
N941 N 0.09431 0.10129 0.74502 0.0
H942 H 0.11631 0.81511 -0.00169 0.0
H943 H 0.13696 0.90418 0.92764 0.0
H944 H 0.10986 0.87418 0.01708 0.0
H945 H 0.13166 0.84393 0.90808 0.0
H946 H 0.12361 0.89403 0.95946 0.0
H947 H 0.11813 0.82556 0.9643 0.0
C948 C 0.11494 0.83026 0.99517 0.0
C949 C 0.1131 0.84384 0.01048 0.0
C950 C 0.12508 0.88309 0.94807 0.0
C951 C 0.11571 0.85609 0.97157 0.0
C952 C 0.13272 0.88886 0.92992 0.0
C953 C 0.13574 0.87485 0.9153 0.0
C954 C 0.12058 0.86317 0.9516 0.0
C955 C 0.12988 0.85523 0.91901 0.0
C956 C 0.11599 0.83626 0.97574 0.0
C957 C 0.11127 0.86327 0.00564 0.0
N958 N 0.12283 0.84998 0.93684 0.0
N959 N 0.11302 0.86893 0.98659 0.0
H960 H 0.32898 0.38796 0.12501 0.0
H961 H 0.22453 0.39975 0.08155 0.0
H962 H 0.29844 0.34102 0.08943 0.0
H963 H 0.22993 0.40591 0.14498 0.0
H964 H 0.2558 0.38431 0.08163 0.0
H965 H 0.29645 0.40027 0.13119 0.0
C966 C 0.31542 0.38006 0.11882 0.0
C967 C 0.31635 0.36347 0.10667 0.0
C968 C 0.25012 0.38909 0.0955 0.0
C969 C 0.27955 0.37774 0.11319 0.0
C970 C 0.23244 0.39805 0.09549 0.0
C971 C 0.22472 0.40418 0.1133 0.0
C972 C 0.26051 0.38671 0.11337 0.0
C973 C 0.23545 0.40137 0.13096 0.0
C974 C 0.29696 0.38706 0.12239 0.0
C975 C 0.29838 0.3538 0.09895 0.0
N976 N 0.25306 0.39304 0.13057 0.0
N977 N 0.28073 0.36135 0.10194 0.0
H978 H 0.72827 0.09461 0.86293 0.0
H979 H 0.80964 0.16469 0.92537 0.0
H980 H 0.71499 0.1484 0.891 0.0
H981 H 0.82487 0.12023 0.88432 0.0
H982 H 0.77425 0.15657 0.91613 0.0
H983 H 0.76334 0.10181 0.87347 0.0
C984 C 0.73274 0.10797 0.87126 0.0
C985 C 0.7187 0.12096 0.87605 0.0
C986 C 0.78537 0.14858 0.90921 0.0
C987 C 0.75875 0.12916 0.88831 0.0
C988 C 0.80554 0.15311 0.91456 0.0
C989 C 0.82022 0.14317 0.90553 0.0
C990 C 0.77988 0.1339 0.89489 0.0
C991 C 0.81406 0.12834 0.89157 0.0
C992 C 0.75276 0.11206 0.87726 0.0
C993 C 0.72533 0.13804 0.88688 0.0
N994 N 0.79435 0.12416 0.88666 0.0
N995 N 0.7449 0.14161 0.89273 0.0
H996 H 0.17575 0.48596 0.10864 0.0
H997 H 0.0947 0.56283 0.12179 0.0
H998 H 0.11313 0.47038 0.11877 0.0
H999 H 0.15826 0.57937 0.11974 0.0
H1000 H 0.1008 0.52897 0.11558 0.0
H1001 H 0.1693 0.52032 0.10826 0.0
C1002 C 0.16066 0.48973 0.11071 0.0
C1003 C 0.14501 0.47524 0.11392 0.0
C1004 C 0.11341 0.54003 0.11629 0.0
C1005 C 0.1375 0.51447 0.11336 0.0
C1006 C 0.10992 0.5594 0.11973 0.0
C1007 C 0.12601 0.57395 0.12148 0.0
C1008 C 0.13314 0.53514 0.11462 0.0
C1009 C 0.14541 0.56861 0.11864 0.0
C1010 C 0.15698 0.50934 0.11048 0.0
C1011 C 0.12572 0.48101 0.11643 0.0
N1012 N 0.14846 0.54961 0.11554 0.0
N1013 N 0.12255 0.50013 0.11615 0.0
H1014 H 0.68763 0.84719 0.42808 0.0
H1015 H 0.77589 0.84685 0.35366 0.0
H1016 H 0.67535 0.83746 0.36563 0.0
H1017 H 0.77672 0.89075 0.39997 0.0
H1018 H 0.74103 0.83595 0.36125 0.0
H1019 H 0.72301 0.85624 0.42127 0.0
C1020 C 0.69243 0.84689 0.41298 0.0
C1021 C 0.67865 0.84176 0.39735 0.0
C1022 C 0.74898 0.84791 0.36974 0.0
C1023 C 0.71879 0.8515 0.38963 0.0
C1024 C 0.76877 0.85404 0.3655 0.0
C1025 C 0.779 0.86977 0.37614 0.0
C1026 C 0.73975 0.85723 0.38506 0.0
C1027 C 0.7692 0.87869 0.39132 0.0
C1028 C 0.71249 0.85206 0.40914 0.0
C1029 C 0.68553 0.84156 0.37804 0.0
N1030 N 0.75011 0.8722 0.39545 0.0
N1031 N 0.70522 0.84622 0.37471 0.0
H1032 H 0.9054 0.94718 0.12235 0.0
H1033 H 0.81156 0.00781 0.12499 0.0
H1034 H 0.84435 0.92091 0.12059 0.0
H1035 H 0.86973 0.03384 0.10932 0.0
H1036 H 0.82333 0.97564 0.12133 0.0
H1037 H 0.8931 0.97872 0.11527 0.0
C1038 C 0.88946 0.94796 0.12011 0.0
C1039 C 0.87587 0.93142 0.12234 0.0
C1040 C 0.8335 0.98833 0.11839 0.0
C1041 C 0.86172 0.96745 0.11451 0.0
C1042 C 0.82677 0.00671 0.12051 0.0
C1043 C 0.83974 0.02349 0.11759 0.0
C1044 C 0.85351 0.98666 0.11373 0.0
C1045 C 0.85926 0.02124 0.1117 0.0
C1046 C 0.88245 0.96597 0.11608 0.0
C1047 C 0.85538 0.93329 0.11924 0.0
N1048 N 0.86569 0.00314 0.11031 0.0
N1049 N 0.84894 0.951 0.11578 0.0
H1050 H 0.17432 0.65673 0.60313 0.0
H1051 H 0.25149 0.57696 0.62238 0.0
H1052 H 0.15691 0.59499 0.60588 0.0
H1053 H 0.26952 0.6384 0.61737 0.0
H1054 H 0.21657 0.58357 0.61812 0.0
H1055 H 0.20902 0.65065 0.61066 0.0
C1056 C 0.17775 0.64192 0.60554 0.0
C1057 C 0.16269 0.62634 0.60378 0.0
C1058 C 0.22816 0.59562 0.61798 0.0
C1059 C 0.2024 0.61925 0.6122 0.0
C1060 C 0.24813 0.59185 0.62037 0.0
C1061 C 0.26352 0.60714 0.62017 0.0
C1062 C 0.22345 0.61482 0.61537 0.0
C1063 C 0.25818 0.62613 0.61756 0.0
C1064 C 0.19758 0.63844 0.60975 0.0
C1065 C 0.16803 0.60746 0.60702 0.0
N1066 N 0.23862 0.62943 0.61524 0.0
N1067 N 0.18743 0.60444 0.61096 0.0
H1068 H 0.0851 0.44329 0.35016 0.0
H1069 H 0.17813 0.51854 0.36997 0.0
H1070 H 0.13972 0.42488 0.37556 0.0
H1071 H 0.1183 0.53484 0.37713 0.0
H1072 H 0.16508 0.48419 0.37072 0.0
H1073 H 0.09733 0.47711 0.35822 0.0
C1074 C 0.09965 0.44639 0.35752 0.0
C1075 C 0.11152 0.43134 0.36207 0.0
C1076 C 0.15488 0.4953 0.37247 0.0
C1077 C 0.12563 0.46994 0.37112 0.0
C1078 C 0.16228 0.51486 0.37196 0.0
C1079 C 0.14921 0.52947 0.37335 0.0
C1080 C 0.13423 0.49037 0.37383 0.0
C1081 C 0.12884 0.52398 0.37601 0.0
C1082 C 0.10653 0.46566 0.36224 0.0
C1083 C 0.13015 0.43611 0.37179 0.0
N1084 N 0.12188 0.50481 0.37577 0.0
N1085 N 0.13683 0.45508 0.3757 0.0
H1086 H 0.36395 0.58088 0.88537 0.0
H1087 H 0.37475 0.46671 0.88899 0.0
H1088 H 0.41473 0.55407 0.8638 0.0
H1089 H 0.31805 0.49013 0.87905 0.0
H1090 H 0.39119 0.5 0.89178 0.0
H1091 H 0.34882 0.54859 0.89463 0.0
C1092 C 0.37206 0.56826 0.88296 0.0
C1093 C 0.39044 0.57 0.87359 0.0
C1094 C 0.37509 0.49778 0.8894 0.0
C1095 C 0.37353 0.53342 0.88439 0.0
C1096 C 0.3657 0.47884 0.88791 0.0
C1097 C 0.34508 0.47574 0.8835 0.0
C1098 C 0.3637 0.5136 0.88678 0.0
C1099 C 0.33404 0.49195 0.88219 0.0
C1100 C 0.36343 0.54992 0.88818 0.0
C1101 C 0.40038 0.55325 0.87074 0.0
N1102 N 0.34352 0.51025 0.88367 0.0
N1103 N 0.39176 0.53562 0.87607 0.0
H1104 H 0.8602 0.6634 0.58818 0.0
H1105 H 0.84311 0.77284 0.61924 0.0
H1106 H 0.8631 0.68426 0.64874 0.0
H1107 H 0.85991 0.75433 0.5615 0.0
H1108 H 0.8411 0.73875 0.62959 0.0
H1109 H 0.85053 0.69488 0.57783 0.0
C1110 C 0.85854 0.67451 0.59936 0.0
C1111 C 0.86281 0.67129 0.61934 0.0
C1112 C 0.84486 0.74217 0.61457 0.0
C1113 C 0.85179 0.70746 0.60752 0.0
C1114 C 0.84587 0.76155 0.60862 0.0
C1115 C 0.85186 0.76634 0.58956 0.0
C1116 C 0.8496 0.7276 0.60121 0.0
C1117 C 0.85544 0.75124 0.5764 0.0
C1118 C 0.85304 0.69251 0.59341 0.0
C1119 C 0.86017 0.6862 0.63315 0.0
N1120 N 0.85437 0.73258 0.5825 0.0
N1121 N 0.85505 0.70376 0.62696 0.0
H1122 H 0.9673 0.11287 0.39659 0.0
H1123 H 0.06751 0.17403 0.37585 0.0
H1124 H 0.97183 0.14343 0.3418 0.0
H1125 H 0.06831 0.11486 0.39497 0.0
H1126 H 0.0316 0.16732 0.36725 0.0
H1127 H 0.00387 0.11786 0.40113 0.0
C1128 C 0.97601 0.12072 0.3856 0.0
C1129 C 0.96665 0.12777 0.36881 0.0
C1130 C 0.03978 0.1558 0.3731 0.0
C1131 C 0.00813 0.13371 0.37406 0.0
C1132 C 0.06015 0.15959 0.37801 0.0
C1133 C 0.07079 0.14493 0.38603 0.0
C1134 C 0.02998 0.13747 0.37693 0.0
C1135 C 0.06063 0.12648 0.38865 0.0
C1136 C 0.99678 0.1234 0.38812 0.0
C1137 C 0.97857 0.13772 0.35491 0.0
N1138 N 0.04064 0.12336 0.38446 0.0
N1139 N -0.00124 0.14066 0.35796 0.0
H1140 H 0.64361 0.22015 0.12153 0.0
H1141 H 0.6253 0.32802 0.09052 0.0
H1142 H 0.63312 0.23853 0.06203 0.0
H1143 H 0.62085 0.3081 0.15028 0.0
H1144 H 0.63848 0.29766 0.08099 0.0
H1145 H 0.64537 0.25435 0.13298 0.0
C1146 C 0.6423 0.23144 0.11084 0.0
C1147 C 0.63796 0.2266 0.09087 0.0
C1148 C 0.6349 0.3 0.09626 0.0
C1149 C 0.63986 0.26543 0.10376 0.0
C1150 C 0.62736 0.31735 0.10172 0.0
C1151 C 0.62156 0.32039 0.12113 0.0
C1152 C 0.63646 0.28545 0.11024 0.0
C1153 C 0.62491 0.30621 0.13509 0.0
C1154 C 0.64315 0.25089 0.11738 0.0
C1155 C 0.63623 0.24168 0.0776 0.0
N1156 N 0.63182 0.28915 0.12929 0.0
N1157 N 0.63699 0.26038 0.0843 0.0
H1158 H 0.44425 0.88398 0.89594 0.0
H1159 H 0.5299 0.84385 0.83423 0.0
H1160 H 0.43971 0.82322 0.87837 0.0
H1161 H 0.54347 0.88041 0.8862 0.0
H1162 H 0.49439 0.84037 0.84293 0.0
H1163 H 0.47866 0.88766 0.88433 0.0
C1164 C 0.45038 0.87152 0.88931 0.0
C1165 C 0.43925 0.85325 0.88816 0.0
C1166 C 0.50524 0.84912 0.85235 0.0
C1167 C 0.47821 0.85744 0.87476 0.0
C1168 C 0.52539 0.85111 0.84743 0.0
C1169 C 0.53955 0.86229 0.85964 0.0
C1170 C 0.49929 0.85894 0.86915 0.0
C1171 C 0.53301 0.87148 0.87655 0.0
C1172 C 0.46997 0.87361 0.88286 0.0
C1173 C 0.44791 0.83752 0.87961 0.0
N1174 N 0.51328 0.86978 0.88071 0.0
N1175 N 0.46693 0.83997 0.87313 0.0
H1176 H 0.8773 0.21224 0.86991 0.0
H1177 H 0.92864 0.31913 0.88226 0.0
H1178 H 0.91266 0.22867 0.92292 0.0
H1179 H 0.8666 0.30824 0.86316 0.0
H1180 H 0.9282 0.28497 0.89207 0.0
H1181 H 0.87891 0.24663 0.86109 0.0
C1182 C 0.88572 0.22305 0.87949 0.0
C1183 C 0.89489 0.21768 0.89716 0.0
C1184 C 0.91471 0.29018 0.88584 0.0
C1185 C 0.89682 0.25677 0.88711 0.0
C1186 C 0.91492 0.30956 0.88026 0.0
C1187 C 0.89757 0.31643 0.87203 0.0
C1188 C 0.89725 0.27756 0.88249 0.0
C1189 C 0.8802 0.30351 0.86965 0.0
C1190 C 0.88643 0.24261 0.87456 0.0
C1191 C 0.90537 0.23228 0.90919 0.0
N1192 N 0.88054 0.28455 0.87459 0.0
N1193 N 0.90619 0.25123 0.90388 0.0
H1194 H 0.41272 0.13514 0.64656 0.0
H1195 H 0.51868 0.10964 0.6097 0.0
H1196 H 0.43053 0.1407 0.5862 0.0
H1197 H 0.50248 0.1138 0.67053 0.0
H1198 H 0.48356 0.11193 0.59952 0.0
H1199 H 0.4423 0.11844 0.65394 0.0
C1200 C 0.42278 0.13267 0.63479 0.0
C1201 C 0.41941 0.13969 0.61584 0.0
C1202 C 0.48764 0.11185 0.61509 0.0
C1203 C 0.4535 0.12072 0.62426 0.0
C1204 C 0.50761 0.11038 0.6209 0.0
C1205 C 0.51342 0.11183 0.64096 0.0
C1206 C 0.47354 0.11465 0.62952 0.0
C1207 C 0.4986 0.11291 0.6549 0.0
C1208 C 0.43967 0.12309 0.63901 0.0
C1209 C 0.43273 0.13573 0.60107 0.0
N1210 N 0.4794 0.11455 0.64891 0.0
N1211 N 0.44943 0.12679 0.60568 0.0
H1212 H 0.58778 0.75754 0.41721 0.0
H1213 H 0.628 0.67523 0.35231 0.0
H1214 H 0.61794 0.77121 0.36326 0.0
H1215 H 0.56658 0.6677 0.36985 0.0
H1216 H 0.63015 0.70928 0.36417 0.0
H1217 H 0.58466 0.7228 0.40716 0.0
C1218 C 0.59361 0.75322 0.40325 0.0
C1219 C 0.60296 0.76717 0.39093 0.0
C1220 C 0.6163 0.70003 0.36555 0.0
C1221 C 0.60017 0.72788 0.37991 0.0
C1222 C 0.6151 0.68068 0.35894 0.0
C1223 C 0.59707 0.66879 0.36007 0.0
C1224 C 0.59954 0.70727 0.37381 0.0
C1225 C 0.5807 0.67653 0.36864 0.0
C1226 C 0.59185 0.73353 0.39758 0.0
C1227 C 0.6104 0.76091 0.37304 0.0
N1228 N 0.58234 0.69533 0.37534 0.0
N1229 N 0.60911 0.74166 0.36818 0.0
H1230 H 0.08435 0.87352 0.14602 0.0
H1231 H 0.974 0.8991 0.1164 0.0
H1232 H 0.06053 0.8709 0.08605 0.0
H1233 H 0.99513 0.88874 0.17562 0.0
H1234 H 0.00811 0.89721 0.1049 0.0
H1235 H 0.05436 0.88743 0.15663 0.0
C1236 C 0.07289 0.87605 0.13503 0.0
C1237 C 0.07478 0.8707 0.11516 0.0
C1238 C 0.00531 0.89574 0.12046 0.0
C1239 C 0.04028 0.88656 0.12727 0.0
C1240 C 0.98592 0.89696 0.12704 0.0
C1241 C 0.98177 0.89382 0.14693 0.0
C1242 C 0.02055 0.89153 0.13394 0.0
C1243 C -0.00233 0.89099 0.16011 0.0
C1244 C 0.05575 0.88401 0.14111 0.0
C1245 C 0.05957 0.87461 0.10155 0.0
N1246 N 0.01631 0.88972 0.15335 0.0
N1247 N 0.04279 0.88207 0.1079 0.0
H1248 H 0.65853 0.8908 0.68415 0.0
H1249 H 0.57261 0.87327 0.76137 0.0
H1250 H 0.59535 0.88727 0.66892 0.0
H1251 H 0.6341 0.86481 0.776 0.0
H1252 H 0.58082 0.87578 0.72676 0.0
H1253 H 0.65039 0.87897 0.71711 0.0
C1254 C 0.64298 0.88732 0.68764 0.0
C1255 C 0.62758 0.89028 0.67385 0.0
C1256 C 0.59253 0.8731 0.73742 0.0
C1257 C 0.6182 0.87684 0.71143 0.0
C1258 C 0.58782 0.87165 0.7572 0.0
C1259 C 0.60273 0.86896 0.77153 0.0
C1260 C 0.61243 0.87228 0.7319 0.0
C1261 C 0.62218 0.86687 0.76535 0.0
C1262 C 0.63835 0.88055 0.70643 0.0
C1263 C 0.60772 0.88545 0.67913 0.0
N1264 N 0.62657 0.86891 0.74598 0.0
N1265 N 0.60362 0.87918 0.69752 0.0
H1266 H 0.86026 0.88104 0.52611 0.0
H1267 H 0.86648 0.83834 0.41615 0.0
H1268 H 0.86623 0.8206 0.51209 0.0
H1269 H 0.85705 0.8981 0.42971 0.0
H1270 H 0.86972 0.83239 0.45139 0.0
H1271 H 0.86146 0.88813 0.49103 0.0
C1272 C 0.86177 0.86923 0.51567 0.0
C1273 C 0.86305 0.85016 0.52209 0.0
C1274 C 0.86712 0.84685 0.44667 0.0
C1275 C 0.8646 0.85824 0.48185 0.0
C1276 C 0.86538 0.8503 0.42652 0.0
C1277 C 0.86135 0.86873 0.41996 0.0
C1278 C 0.86476 0.86191 0.46038 0.0
C1279 C 0.8601 0.88366 0.4341 0.0
C1280 C 0.86252 0.87332 0.49562 0.0
C1281 C 0.86509 0.83549 0.50785 0.0
N1282 N 0.86162 0.87987 0.45365 0.0
N1283 N 0.86578 0.83985 0.48841 0.0
H1284 H 0.85706 0.0704 0.19222 0.0
H1285 H 0.88067 0.14135 0.28506 0.0
H1286 H 0.85827 0.13267 0.18639 0.0
H1287 H 0.90599 0.08647 0.27853 0.0
H1288 H 0.86861 0.13819 0.25037 0.0
H1289 H 0.87092 0.0755 0.22586 0.0
C1290 C 0.86022 0.08515 0.19804 0.0
C1291 C 0.85655 0.10114 0.18651 0.0
C1292 C 0.87697 0.12698 0.2566 0.0
C1293 C 0.87222 0.10706 0.22501 0.0
C1294 C 0.8838 0.12875 0.27633 0.0
C1295 C 0.89431 0.11414 0.28468 0.0
C1296 C 0.88035 0.11033 0.24542 0.0
C1297 C 0.89797 0.09811 0.27273 0.0
C1298 C 0.86821 0.08805 0.21718 0.0
C1299 C 0.861 0.11995 0.19478 0.0
N1300 N 0.89082 0.09654 0.2538 0.0
N1301 N 0.86846 0.12242 0.21364 0.0
H1302 H 0.63148 0.09619 0.92489 0.0
H1303 H 0.61882 0.17324 0.0117 0.0
H1304 H 0.6257 0.15724 0.91636 0.0
H1305 H 0.62091 0.11184 0.02164 0.0
H1306 H 0.6186 0.16678 0.97635 0.0
H1307 H 0.62423 0.10057 0.95978 0.0
C1308 C 0.62832 0.11042 0.93026 0.0
C1309 C 0.62944 0.12643 0.91777 0.0
C1310 C 0.61901 0.15466 0.98621 0.0
C1311 C 0.62141 0.13158 0.9576 0.0
C1312 C 0.61924 0.15836 0.00645 0.0
C1313 C 0.62009 0.14308 0.01969 0.0
C1314 C 0.61982 0.13554 0.97902 0.0
C1315 C 0.62036 0.12407 0.01196 0.0
C1316 C 0.62428 0.11293 0.95019 0.0
C1317 C 0.62522 0.14453 0.92549 0.0
N1318 N 0.62039 0.12085 0.99211 0.0
N1319 N 0.62161 0.14665 0.94493 0.0
H1320 H 0.61973 0.08592 0.8048 0.0
H1321 H 0.6282 0.14673 0.70826 0.0
H1322 H 0.64148 0.14685 0.80764 0.0
H1323 H 0.57948 0.10211 0.71539 0.0
H1324 H 0.63679 0.14519 0.7436 0.0
H1325 H 0.60781 0.08976 0.77077 0.0
C1326 C 0.62183 0.10014 0.79827 0.0
C1327 C 0.63157 0.11611 0.80893 0.0
C1328 C 0.62416 0.13585 0.73737 0.0
C1329 C 0.61845 0.12045 0.77006 0.0
C1330 C 0.61937 0.13658 0.71725 0.0
C1331 C 0.60316 0.12446 0.70894 0.0
C1332 C 0.61295 0.1226 0.74907 0.0
C1333 C 0.59208 0.11171 0.72125 0.0
C1334 C 0.615 0.10232 0.77893 0.0
C1335 C 0.63392 0.13423 0.79987 0.0
N1336 N 0.59732 0.11094 0.74068 0.0
N1337 N 0.62767 0.13587 0.78076 0.0
H1338 H 0.61677 0.81658 0.49225 0.0
H1339 H 0.6474 0.91658 0.54599 0.0
H1340 H 0.61143 0.8706 0.46249 0.0
H1341 H 0.61962 0.86838 0.57804 0.0
H1342 H 0.63664 0.89941 0.51497 0.0
H1343 H 0.61944 0.83449 0.52394 0.0
C1344 C 0.61582 0.83216 0.49244 0.0
C1345 C 0.61396 0.84217 0.47478 0.0
C1346 C 0.63273 0.8927 0.5288 0.0
C1347 C 0.61752 0.86269 0.51076 0.0
C1348 C 0.63899 0.9024 0.54648 0.0
C1349 C 0.63447 0.8938 0.56456 0.0
C1350 C 0.62232 0.8741 0.52924 0.0
C1351 C 0.62339 0.87548 0.56438 0.0
C1352 C 0.61732 0.84234 0.51048 0.0
C1353 C 0.6128 0.86235 0.4758 0.0
N1354 N 0.61795 0.86606 0.54696 0.0
N1355 N 0.61501 0.87203 0.49349 0.0
H1356 H 0.88409 0.87327 0.31612 0.0
H1357 H 0.86302 0.89931 0.20404 0.0
H1358 H 0.83759 0.90886 0.29798 0.0
H1359 H 0.9204 0.88356 0.22542 0.0
H1360 H 0.85199 0.90023 0.23804 0.0
H1361 H 0.89622 0.874 0.28241 0.0
C1362 C 0.87643 0.88121 0.30506 0.0
C1363 C 0.8598 0.89101 0.30986 0.0
C1364 C 0.86704 0.89669 0.23527 0.0
C1365 C 0.87349 0.89179 0.27137 0.0
C1366 C 0.87333 0.89614 0.21589 0.0
C1367 C 0.89266 0.89136 0.2119 0.0
C1368 C 0.88005 0.89214 0.25075 0.0
C1369 C 0.9054 0.8874 0.22783 0.0
C1370 C 0.88341 0.88169 0.28588 0.0
C1371 C 0.85049 0.90114 0.29497 0.0
N1372 N 0.89881 0.88771 0.24656 0.0
N1373 N 0.85739 0.90116 0.27637 0.0
H1374 H 0.8912 0.12306 0.97731 0.0
H1375 H 0.87431 0.15386 0.08927 0.0
H1376 H 0.88609 0.18173 -0.00164 0.0
H1377 H 0.86558 0.09434 0.06746 0.0
H1378 H 0.88723 0.16378 0.0575 0.0
H1379 H 0.89017 0.11208 0.01155 0.0
C1380 C 0.89033 0.13367 0.98916 0.0
C1381 C 0.88846 0.15328 0.98505 0.0
C1382 C 0.88271 0.14851 0.0597 0.0
C1383 C 0.88727 0.14089 0.02399 0.0
C1384 C 0.87533 0.14282 0.07787 0.0
C1385 C 0.86851 0.12329 0.0809 0.0
C1386 C 0.88315 0.13462 0.04435 0.0
C1387 C 0.87048 0.10959 0.06566 0.0
C1388 C 0.88963 0.12739 0.00865 0.0
C1389 C 0.88729 0.16643 0.00089 0.0
N1390 N 0.87737 0.11556 0.0479 0.0
N1391 N 0.88655 0.15998 0.01962 0.0
H1392 H 0.77591 0.59422 0.85048 0.0
H1393 H 0.70073 0.65738 0.90333 0.0
H1394 H 0.77437 0.59809 0.91395 0.0
H1395 H 0.67585 0.61143 0.86315 0.0
H1396 H 0.73383 0.64554 0.9002 0.0
H1397 H 0.74422 0.60976 0.84838 0.0
C1398 C 0.76897 0.59845 0.8639 0.0
C1399 C 0.77754 0.59477 0.88242 0.0
C1400 C 0.72114 0.63839 0.89177 0.0
C1401 C 0.74223 0.61298 0.88009 0.0
C1402 C 0.70233 0.64515 0.89343 0.0
C1403 C 0.68556 0.63527 0.88356 0.0
C1404 C 0.72323 0.622 0.87974 0.0
C1405 C 0.68843 0.61935 0.87109 0.0
C1406 C 0.75102 0.60724 0.86268 0.0
C1407 C 0.76807 0.60051 0.89941 0.0
N1408 N 0.70697 0.61314 0.86953 0.0
N1409 N 0.75102 0.60952 0.89785 0.0
H1410 H 0.2798 0.85455 0.13241 0.0
H1411 H 0.18638 0.86418 0.06227 0.0
H1412 H 0.27997 0.9039 0.09432 0.0
H1413 H 0.17906 0.85173 0.12387 0.0
H1414 H 0.22235 0.8731 0.06928 0.0
H1415 H 0.24391 0.84687 0.12469 0.0
C1416 C 0.2723 0.86364 0.1223 0.0
C1417 C 0.2827 0.8799 0.11402 0.0
C1418 C 0.21274 0.8685 0.08118 0.0
C1419 C 0.24211 0.87104 0.10497 0.0
C1420 C 0.19236 0.8634 0.07723 0.0
C1421 C 0.17985 0.85734 0.09256 0.0
C1422 C 0.22059 0.86685 0.10041 0.0
C1423 C 0.18822 0.85651 0.1117 0.0
C1424 C 0.25191 0.85933 0.11802 0.0
C1425 C 0.27234 0.89131 0.10108 0.0
N1426 N 0.20818 0.86096 0.11506 0.0
N1427 N 0.25255 0.88656 0.09677 0.0
H1428 H 0.88453 0.5265 0.86886 0.0
H1429 H 0.83991 0.41484 0.87045 0.0
H1430 H 0.82299 0.50822 0.88142 0.0
H1431 H 0.9028 0.43332 0.86558 0.0
H1432 H 0.83337 0.44887 0.87475 0.0
H1433 H 0.89133 0.49241 0.86715 0.0
C1434 C 0.87241 0.51533 0.87119 0.0
C1435 C 0.85313 0.52028 0.87526 0.0
C1436 C 0.84862 0.44547 0.8729 0.0
C1437 C 0.86089 0.48113 0.87341 0.0
C1438 C 0.85238 0.42603 0.87051 0.0
C1439 C 0.87194 0.42121 0.8676 0.0
C1440 C 0.8645 0.46024 0.87224 0.0
C1441 C 0.8875 0.43634 0.86779 0.0
C1442 C 0.87634 0.49584 0.87031 0.0
C1443 C 0.83807 0.50513 0.87822 0.0
N1444 N 0.88342 0.45517 0.8699 0.0
N1445 N 0.84226 0.48625 0.8772 0.0
H1446 H 0.22072 0.09499 0.59727 0.0
H1447 H 0.3175 0.16152 0.63471 0.0
H1448 H 0.21678 0.14069 0.64096 0.0
H1449 H 0.30741 0.14479 0.57328 0.0
H1450 H 0.28307 0.14818 0.64113 0.0
H1451 H 0.25553 0.10744 0.5921 0.0
C1452 C 0.22724 0.10757 0.60584 0.0
C1453 C 0.21593 0.11693 0.61949 0.0
C1454 C 0.28851 0.14745 0.62629 0.0
C1455 C 0.25559 0.13089 0.6139 0.0
C1456 C 0.30808 0.15492 0.62265 0.0
C1457 C 0.31515 0.15428 0.60344 0.0
C1458 C 0.2763 0.13887 0.61071 0.0
C1459 C 0.30241 0.14567 0.58827 0.0
C1460 C 0.247 0.11467 0.60283 0.0
C1461 C 0.22502 0.1332 0.63019 0.0
N1462 N 0.2836 0.13814 0.59225 0.0
N1463 N 0.24445 0.13963 0.62728 0.0
H1464 H 0.18817 0.98826 0.86549 0.0
H1465 H 0.09027 0.04289 0.86865 0.0
H1466 H 0.13137 0.95882 0.88087 0.0
H1467 H 0.14996 0.07253 0.8712 0.0
H1468 H 0.10452 0.01219 0.87532 0.0
H1469 H 0.17434 0.01944 0.86938 0.0
C1470 C 0.17282 0.98839 0.8699 0.0
C1471 C 0.16084 0.97095 0.8727 0.0
C1472 C 0.11444 0.02549 0.87477 0.0
C1473 C 0.14474 0.00663 0.8769 0.0
C1474 C 0.10632 0.04303 0.87099 0.0
C1475 C 0.11897 0.06026 0.86907 0.0
C1476 C 0.13533 0.02522 0.87642 0.0
C1477 C 0.13964 0.05957 0.87229 0.0
C1478 C 0.16492 0.00621 0.87219 0.0
C1479 C 0.14109 0.97196 0.87855 0.0
N1480 N 0.14717 0.04232 0.8755 0.0
N1481 N 0.13352 0.98952 0.88013 0.0
H1482 H 0.83377 0.39808 0.38868 0.0
H1483 H 0.71696 0.36163 0.38579 0.0
H1484 H 0.81063 0.33809 0.39533 0.0
H1485 H 0.74014 0.42088 0.37494 0.0
H1486 H 0.75118 0.3527 0.38889 0.0
H1487 H 0.79968 0.40652 0.38249 0.0
C1488 C 0.82154 0.38663 0.38863 0.0
C1489 C 0.82506 0.36735 0.39262 0.0
C1490 C 0.7488 0.36765 0.38581 0.0
C1491 C 0.78593 0.37698 0.38579 0.0
C1492 C 0.72924 0.3728 0.38411 0.0
C1493 C 0.72563 0.39207 0.38015 0.0
C1494 C 0.76494 0.38187 0.38359 0.0
C1495 C 0.74217 0.40587 0.37804 0.0
C1496 C 0.80206 0.39148 0.38515 0.0
C1497 C 0.80862 0.35314 0.39234 0.0
N1498 N 0.76109 0.4005 0.37983 0.0
N1499 N 0.78976 0.35827 0.38915 0.0
H1500 H 0.85704 0.46705 0.60796 0.0
H1501 H 0.87238 0.56182 0.67682 0.0
H1502 H 0.83402 0.46976 0.66657 0.0
H1503 H 0.86896 0.56603 0.61341 0.0
H1504 H 0.86195 0.52701 0.67347 0.0
H1505 H 0.8651 0.50263 0.6096 0.0
C1506 C 0.85364 0.47511 0.6211 0.0
C1507 C 0.84489 0.46547 0.63716 0.0
C1508 C 0.86335 0.53558 0.66028 0.0
C1509 C 0.8542 0.50579 0.63919 0.0
C1510 C 0.86934 0.55541 0.66218 0.0
C1511 C 0.87148 0.56679 0.64537 0.0
C1512 C 0.85983 0.52696 0.64142 0.0
C1513 C 0.86734 0.55775 0.62675 0.0
C1514 C 0.85815 0.49534 0.62199 0.0
C1515 C 0.84073 0.47657 0.65383 0.0
N1516 N 0.86189 0.53826 0.62524 0.0
N1517 N 0.84559 0.49609 0.65447 0.0
H1518 H 0.59737 0.52785 0.12663 0.0
H1519 H 0.62412 0.41824 0.11346 0.0
H1520 H 0.65472 0.51407 0.10611 0.0
H1521 H 0.58004 0.43628 0.15318 0.0
H1522 H 0.6329 0.45256 0.10556 0.0
H1523 H 0.58787 0.49327 0.13096 0.0
C1524 C 0.60793 0.51755 0.12289 0.0
C1525 C 0.62694 0.52387 0.11614 0.0
C1526 C 0.6213 0.4489 0.11598 0.0
C1527 C 0.61611 0.48425 0.12107 0.0
C1528 C 0.61627 0.42938 0.12045 0.0
C1529 C 0.60142 0.42445 0.13407 0.0
C1530 C 0.61114 0.46341 0.12496 0.0
C1531 C 0.5917 0.43943 0.14272 0.0
C1532 C 0.60252 0.49781 0.12545 0.0
C1533 C 0.63998 0.50982 0.11152 0.0
N1534 N 0.59669 0.4582 0.13796 0.0
N1535 N 0.63433 0.49061 0.11409 0.0
H1536 H 0.64557 0.74475 0.93271 0.0
H1537 H 0.63208 0.81606 0.84468 0.0
H1538 H 0.65321 0.72783 0.87208 0.0
H1539 H 0.63625 0.83429 0.90606 0.0
H1540 H 0.64388 0.78487 0.85389 0.0
H1541 H 0.64661 0.77864 0.92311 0.0
C1542 C 0.64786 0.74826 0.9174 0.0
C1543 C 0.64911 0.73351 0.90313 0.0
C1544 C 0.64253 0.79583 0.86528 0.0
C1545 C 0.64976 0.77225 0.89187 0.0
C1546 C 0.63578 0.81364 0.86004 0.0
C1547 C 0.63284 0.82767 0.87467 0.0
C1548 C 0.64621 0.79204 0.88529 0.0
C1549 C 0.63799 0.8238 0.89431 0.0
C1550 C 0.64842 0.76762 0.91189 0.0
C1551 C 0.65217 0.73882 0.88352 0.0
N1552 N 0.64415 0.80628 0.89906 0.0
N1553 N 0.65198 0.75777 0.87837 0.0
H1554 H 0.51302 0.36038 0.16292 0.0
H1555 H 0.43343 0.31512 0.08059 0.0
H1556 H 0.52982 0.33583 0.10749 0.0
H1557 H 0.4194 0.35616 0.1258 0.0
H1558 H 0.46803 0.3178 0.09329 0.0
H1559 H 0.47784 0.35387 0.1525 0.0
C1560 C 0.50933 0.35343 0.14864 0.0
C1561 C 0.52441 0.34876 0.13599 0.0
C1562 C 0.45735 0.32616 0.10046 0.0
C1563 C 0.48416 0.34131 0.12403 0.0
C1564 C 0.43758 0.32462 0.09327 0.0
C1565 C 0.42351 0.33554 0.10209 0.0
C1566 C 0.46308 0.33855 0.11671 0.0
C1567 C 0.42978 0.34759 0.11847 0.0
C1568 C 0.48924 0.34982 0.14269 0.0
C1569 C 0.5187 0.33979 0.11766 0.0
N1570 N 0.44913 0.34877 0.12526 0.0
N1571 N 0.499 0.33639 0.1122 0.0
H1572 H 0.87595 0.17643 0.35689 0.0
H1573 H 0.86932 0.25628 0.44121 0.0
H1574 H 0.87644 0.16451 0.41913 0.0
H1575 H 0.85805 0.26788 0.37985 0.0
H1576 H 0.86765 0.22163 0.43315 0.0
H1577 H 0.86547 0.20879 0.36438 0.0
C1578 C 0.87356 0.18049 0.37209 0.0
C1579 C 0.87741 0.16789 0.38745 0.0
C1580 C 0.86521 0.23163 0.42141 0.0
C1581 C 0.86552 0.20479 0.39609 0.0
C1582 C 0.86614 0.25143 0.42604 0.0
C1583 C 0.86399 0.26489 0.41114 0.0
C1584 C 0.86262 0.22523 0.40162 0.0
C1585 C 0.85978 0.25788 0.39175 0.0
C1586 C 0.86757 0.19895 0.37634 0.0
C1587 C 0.87397 0.17385 0.40683 0.0
N1588 N 0.85964 0.2385 0.38745 0.0
N1589 N 0.86846 0.19192 0.41059 0.0
H1590 H 0.94896 0.61649 0.60942 0.0
H1591 H 0.0548 0.67446 0.61651 0.0
H1592 H 0.96505 0.65311 0.66089 0.0
H1593 H 0.0483 0.61375 0.59872 0.0
H1594 H 0.02065 0.67074 0.62888 0.0
H1595 H 0.98417 0.61932 0.60046 0.0
C1596 C 0.9599 0.62527 0.61873 0.0
C1597 C 0.95416 0.63464 0.63588 0.0
C1598 C 0.02685 0.65824 0.62244 0.0
C1599 C 0.99421 0.63804 0.62561 0.0
C1600 C 0.04622 0.66034 0.61536 0.0
C1601 C 0.05429 0.64436 0.60663 0.0
C1602 C 0.01536 0.64024 0.62014 0.0
C1603 C 0.04263 0.62637 0.60547 0.0
C1604 C 0.97993 0.62671 0.6137 0.0
C1605 C 0.96894 0.64566 0.64756 0.0
N1606 N 0.02356 0.62486 0.61184 0.0
N1607 N 0.98834 0.64728 0.64207 0.0
H1608 H 0.61273 0.27037 0.5731 0.0
H1609 H 0.56442 0.19012 0.64528 0.0
H1610 H 0.58106 0.28413 0.62522 0.0
H1611 H 0.61112 0.17907 0.60537 0.0
H1612 H 0.5659 0.22359 0.63419 0.0
H1613 H 0.60767 0.23583 0.58094 0.0
C1614 C 0.60451 0.26613 0.58607 0.0
C1615 C 0.59739 0.28018 0.5986 0.0
C1616 C 0.57577 0.21383 0.62781 0.0
C1617 C 0.59159 0.24072 0.60758 0.0
C1618 C 0.57492 0.19468 0.63408 0.0
C1619 C 0.58778 0.18178 0.62634 0.0
C1620 C 0.58947 0.22014 0.61356 0.0
C1621 C 0.60102 0.18855 0.61183 0.0
C1622 C 0.60174 0.24643 0.59057 0.0
C1623 C 0.58691 0.27382 0.61522 0.0
N1624 N 0.60155 0.2073 0.60592 0.0
N1625 N 0.58436 0.25456 0.61924 0.0
H1626 H 0.07571 0.36402 0.85095 0.0
H1627 H 0.97035 0.38885 0.8899 0.0
H1628 H 0.05861 0.35713 0.91139 0.0
H1629 H 0.98564 0.38516 0.82878 0.0
H1630 H 0.00567 0.38671 0.89952 0.0
H1631 H 0.04618 0.38106 0.84443 0.0
C1632 C 0.06581 0.36627 0.86292 0.0
C1633 C 0.06935 0.35876 0.88162 0.0
C1634 C 0.00135 0.38689 0.88401 0.0
C1635 C 0.03533 0.37812 0.8742 0.0
C1636 C 0.98127 0.3883 0.87853 0.0
C1637 C 0.97518 0.38692 0.85855 0.0
C1638 C 0.01524 0.38425 0.86933 0.0
C1639 C 0.98977 0.38602 0.84436 0.0
C1640 C 0.04896 0.37605 0.8592 0.0
C1641 C 0.05626 0.36246 0.89668 0.0
N1642 N 0.00908 0.38446 0.85003 0.0
N1643 N 0.03957 0.37159 0.89255 0.0
H1644 H 0.90244 0.72211 0.13602 0.0
H1645 H 0.8774 0.8299 0.1115 0.0
H1646 H 0.86911 0.73528 0.08327 0.0
H1647 H 0.92427 0.817 0.15288 0.0
H1648 H 0.8722 0.79523 0.10205 0.0
H1649 H 0.90856 0.7569 0.14376 0.0
C1650 C 0.89641 0.73231 0.12605 0.0
C1651 C 0.88524 0.72576 0.10897 0.0
C1652 C 0.88368 0.80007 0.11312 0.0
C1653 C 0.89211 0.76564 0.11782 0.0
C1654 C 0.88663 0.81983 0.11854 0.0
C1655 C 0.90127 0.82638 0.13303 0.0
C1656 C 0.89529 0.7868 0.12244 0.0
C1657 C 0.91282 0.81266 0.14164 0.0
C1658 C 0.89997 0.75219 0.13045 0.0
C1659 C 0.87786 0.73969 0.09657 0.0
N1660 N 0.90949 0.79355 0.13631 0.0
N1661 N 0.88132 0.75899 0.1013 0.0
H1662 H 0.4156 0.62529 0.34834 0.0
H1663 H 0.52494 0.59421 0.37288 0.0
H1664 H 0.44103 0.6243 0.40752 0.0
H1665 H 0.50262 0.60808 0.31506 0.0
H1666 H 0.49132 0.59626 0.38558 0.0
H1667 H 0.44421 0.61012 0.3361 0.0
C1668 C 0.42711 0.62167 0.35882 0.0
C1669 C 0.42612 0.62642 0.37895 0.0
C1670 C 0.49371 0.59841 0.37003 0.0
C1671 C 0.45908 0.60915 0.36495 0.0
C1672 C 0.51283 0.59707 0.36275 0.0
C1673 C 0.51653 0.60121 0.34296 0.0
C1674 C 0.47831 0.60373 0.35733 0.0
C1675 C 0.50041 0.60502 0.33048 0.0
C1676 C 0.44345 0.61299 0.3518 0.0
C1677 C 0.44132 0.62109 0.39185 0.0
N1678 N 0.48207 0.60639 0.33791 0.0
N1679 N 0.45737 0.61299 0.38459 0.0
H1680 H 0.9042 0.60996 0.82937 0.0
H1681 H 0.86245 0.636 0.72222 0.0
H1682 H 0.8411 0.60988 0.81495 0.0
H1683 H 0.92265 0.62222 0.73561 0.0
H1684 H 0.85507 0.63321 0.75742 0.0
H1685 H 0.91173 0.62124 0.79643 0.0
C1686 C 0.89189 0.61245 0.81932 0.0
C1687 C 0.87196 0.60871 0.82487 0.0
C1688 C 0.86995 0.63107 0.75263 0.0
C1689 C 0.88054 0.62161 0.78693 0.0
C1690 C 0.87421 0.6328 0.73261 0.0
C1691 C 0.89314 0.62917 0.72602 0.0
C1692 C 0.88484 0.62592 0.76605 0.0
C1693 C 0.9078 0.62494 0.74004 0.0
C1694 C 0.89622 0.6189 0.80047 0.0
C1695 C 0.85668 0.61243 0.81123 0.0
N1696 N 0.90331 0.62333 0.75933 0.0
N1697 N 0.86128 0.61852 0.79279 0.0
H1698 H 0.66906 0.62434 0.063 0.0
H1699 H 0.61347 0.61955 0.95933 0.0
H1700 H 0.60636 0.60386 0.05728 0.0
H1701 H 0.65721 0.66766 0.97558 0.0
H1702 H 0.61299 0.60992 0.99397 0.0
H1703 H 0.6673 0.63737 0.02973 0.0
C1704 C 0.65488 0.62281 0.05477 0.0
C1705 C 0.6378 0.61311 0.0628 0.0
C1706 C 0.62261 0.62261 0.98989 0.0
C1707 C 0.63586 0.62739 0.02472 0.0
C1708 C 0.62305 0.62799 0.97017 0.0
C1709 C 0.63548 0.64436 0.96464 0.0
C1710 C 0.63503 0.6334 0.004 0.0
C1711 C 0.64743 0.65494 0.97927 0.0
C1712 C 0.65389 0.63024 0.03587 0.0
C1713 C 0.61978 0.61142 0.05159 0.0
N1714 N 0.64709 0.64914 -0.00172 0.0
N1715 N 0.61934 0.61821 0.03291 0.0
H1716 H 0.61262 0.34959 0.21973 0.0
H1717 H 0.63904 0.42423 0.30852 0.0
H1718 H 0.58209 0.40135 0.22754 0.0
H1719 H 0.6395 0.36253 0.31756 0.0
H1720 H 0.62314 0.41708 0.2759 0.0
H1721 H 0.6273 0.35477 0.25338 0.0
C1722 C 0.60893 0.36192 0.22854 0.0
C1723 C 0.59614 0.37505 0.22089 0.0
C1724 C 0.62671 0.40513 0.28507 0.0
C1725 C 0.61308 0.38121 0.25884 0.0
C1726 C 0.63585 0.40918 0.30359 0.0
C1727 C 0.64051 0.39393 0.31571 0.0
C1728 C 0.62262 0.38571 0.27847 0.0
C1729 C 0.636 0.37468 0.30866 0.0
C1730 C 0.61724 0.36483 0.24767 0.0
C1731 C 0.59181 0.39082 0.23288 0.0
N1732 N 0.62743 0.37108 0.29036 0.0
N1733 N 0.60046 0.39359 0.25117 0.0
H1734 H 0.86347 0.33624 0.58037 0.0
H1735 H 0.87557 0.3829 0.47389 0.0
H1736 H 0.85997 0.39738 0.57011 0.0
H1737 H 0.87512 0.32154 0.48542 0.0
H1738 H 0.87313 0.38936 0.50936 0.0
H1739 H 0.87159 0.33156 0.54601 0.0
C1740 C 0.86459 0.34874 0.57091 0.0
C1741 C 0.86085 0.3672 0.57806 0.0
C1742 C 0.87366 0.37451 0.50408 0.0
C1743 C 0.86994 0.36189 0.53853 0.0
C1744 C 0.87504 0.37081 0.48385 0.0
C1745 C 0.87539 0.35163 0.47664 0.0
C1746 C 0.87271 0.35892 0.51714 0.0
C1747 C 0.87473 0.33654 0.49024 0.0
C1748 C 0.86919 0.34605 0.55125 0.0
C1749 C 0.86267 0.38288 0.56516 0.0
N1750 N 0.87336 0.34051 0.50977 0.0
N1751 N 0.8669 0.37984 0.54593 0.0
H1752 H 0.91432 0.39598 0.78321 0.0
H1753 H 0.8564 0.34986 0.68679 0.0
H1754 H 0.86485 0.35138 0.78583 0.0
H1755 H 0.87618 0.41119 0.69192 0.0
H1756 H 0.86757 0.34607 0.72118 0.0
H1757 H 0.90799 0.3977 0.74746 0.0
C1758 C 0.90223 0.38648 0.77623 0.0
C1759 C 0.88994 0.37365 0.78742 0.0
C1760 C 0.86965 0.36028 0.71462 0.0
C1761 C 0.88303 0.37523 0.7468 0.0
C1762 C 0.86344 0.36243 0.69504 0.0
C1763 C 0.86527 0.38089 0.68665 0.0
C1764 C 0.87811 0.37662 0.72562 0.0
C1765 C 0.87435 0.39675 0.69797 0.0
C1766 C 0.89865 0.38749 0.75593 0.0
C1767 C 0.87449 0.36163 0.77772 0.0
N1768 N 0.88048 0.39426 0.71694 0.0
N1769 N 0.87151 0.36264 0.75789 0.0
H1770 H 0.85644 0.58048 0.95207 0.0
H1771 H 0.8714 0.67796 0.01135 0.0
H1772 H 0.87748 0.63292 0.9225 0.0
H1773 H 0.88799 0.62517 0.03762 0.0
H1774 H 0.8722 0.66239 0.97862 0.0
H1775 H 0.86611 0.59667 0.98385 0.0
C1776 C 0.86325 0.59537 0.9523 0.0
C1777 C 0.86609 0.60546 0.93473 0.0
C1778 C 0.87606 0.65438 0.99154 0.0
C1779 C 0.87683 0.62409 0.97091 0.0
C1780 C 0.87555 0.6632 0.01018 0.0
C1781 C 0.87953 0.65276 0.02715 0.0
C1782 C 0.87998 0.63483 0.98997 0.0
C1783 C 0.88486 0.63371 0.02487 0.0
C1784 C 0.86888 0.60453 0.97039 0.0
C1785 C 0.87508 0.62468 0.93577 0.0
N1786 N 0.88448 0.62516 0.00661 0.0
N1787 N 0.87979 0.63355 0.95364 0.0
H1788 H 0.63381 0.60975 0.2777 0.0
H1789 H 0.58714 0.60624 0.16746 0.0
H1790 H 0.57077 0.61074 0.26348 0.0
H1791 H 0.65008 0.60394 0.18119 0.0
H1792 H 0.58133 0.61031 0.20254 0.0
H1793 H 0.64038 0.60934 0.24248 0.0
C1794 C 0.62133 0.60984 0.26719 0.0
C1795 C 0.60168 0.6102 0.27361 0.0
C1796 C 0.59644 0.60906 0.1979 0.0
C1797 C 0.60916 0.60985 0.23321 0.0
C1798 C 0.5998 0.60682 0.17783 0.0
C1799 C 0.61913 0.60464 0.17136 0.0
C1800 C 0.61251 0.60906 0.21167 0.0
C1801 C 0.63494 0.60554 0.18551 0.0
C1802 C 0.62512 0.60967 0.24707 0.0
C1803 C 0.58614 0.61039 0.25927 0.0
N1804 N 0.63125 0.60753 0.20502 0.0
N1805 N 0.59022 0.61019 0.23977 0.0
H1806 H 0.61056 0.31947 0.50553 0.0
H1807 H 0.63274 0.40732 0.43423 0.0
H1808 H 0.60516 0.37881 0.52404 0.0
H1809 H 0.62413 0.34705 0.41484 0.0
H1810 H 0.61922 0.39793 0.46621 0.0
H1811 H 0.6118 0.3296 0.4714 0.0
C1812 C 0.6093 0.33463 0.5023 0.0
C1813 C 0.60793 0.34837 0.51754 0.0
C1814 C 0.61997 0.38684 0.45481 0.0
C1815 C 0.60989 0.36026 0.47852 0.0
C1816 C 0.6277 0.39219 0.43657 0.0
C1817 C 0.62991 0.37789 0.42199 0.0
C1818 C 0.61457 0.36708 0.45844 0.0
C1819 C 0.62304 0.35852 0.42576 0.0
C1820 C 0.61001 0.34044 0.48281 0.0
C1821 C 0.60623 0.3678 0.51263 0.0
N1822 N 0.61594 0.35368 0.44367 0.0
N1823 N 0.60768 0.37329 0.4935 0.0
H1824 H 0.71259 0.88593 0.6356 0.0
H1825 H 0.80097 0.8451 0.61325 0.0
H1826 H 0.73909 0.93449 0.60321 0.0
H1827 H 0.82618 0.90449 0.60693 0.0
H1828 H 0.76892 0.85701 0.62102 0.0
H1829 H 0.74505 0.87241 0.63684 0.0
C1830 C 0.72527 0.8938 0.62888 0.0
C1831 C 0.72308 0.91123 0.61906 0.0
C1832 C 0.78157 0.86748 0.61847 0.0
C1833 C 0.76011 0.89571 0.62006 0.0
C1834 C 0.79988 0.86066 0.6139 0.0
C1835 C 0.81626 0.8738 0.6093 0.0
C1836 C 0.77966 0.8876 0.61835 0.0
C1837 C 0.81396 0.8938 0.61027 0.0
C1838 C 0.74374 0.88596 0.62939 0.0
C1839 C 0.74001 0.92089 0.61072 0.0
N1840 N 0.79595 0.90004 0.6144 0.0
N1841 N 0.75776 0.91298 0.61137 0.0
H1842 H 0.22418 0.59451 0.40182 0.0
H1843 H 0.32418 0.65267 0.37057 0.0
H1844 H 0.22255 0.64342 0.36336 0.0
H1845 H 0.31642 0.63644 0.43116 0.0
H1846 H 0.2883 0.64359 0.36379 0.0
H1847 H 0.25979 0.60425 0.40931 0.0
C1848 C 0.23135 0.6073 0.39499 0.0
C1849 C 0.22052 0.61826 0.38202 0.0
C1850 C 0.29455 0.64202 0.37853 0.0
C1851 C 0.26103 0.62905 0.39009 0.0
C1852 C 0.31495 0.64702 0.38236 0.0
C1853 C 0.32316 0.64527 0.40144 0.0
C1854 C 0.28253 0.63473 0.39374 0.0
C1855 C 0.31058 0.63805 0.41628 0.0
C1856 C 0.25155 0.61284 0.3993 0.0
C1857 C 0.23041 0.63471 0.37355 0.0
N1858 N 0.29086 0.63284 0.41207 0.0
N1859 N 0.25026 0.6395 0.37754 0.0
H1860 H 0.58504 0.06314 0.63316 0.0
H1861 H 0.67154 0.99263 0.6171 0.0
H1862 H 0.6469 0.08372 0.62473 0.0
H1863 H 0.61076 0.97213 0.63046 0.0
H1864 H 0.66241 0.02604 0.61812 0.0
H1865 H 0.59365 0.02963 0.62975 0.0
C1866 C 0.60039 0.06063 0.63035 0.0
C1867 C 0.61528 0.07628 0.62928 0.0
C1868 C 0.65107 0.01423 0.62085 0.0
C1869 C 0.62528 0.03793 0.6256 0.0
C1870 C 0.65628 0.99514 0.62032 0.0
C1871 C 0.64191 0.97951 0.62374 0.0
C1872 C 0.63131 0.01779 0.62476 0.0
C1873 C 0.62237 0.9837 0.62779 0.0
C1874 C 0.60532 0.04149 0.62852 0.0
C1875 C 0.63493 0.07212 0.62569 0.0
N1876 N 0.61764 0.00242 0.62816 0.0
N1877 N 0.63937 0.05337 0.62407 0.0
H1878 H 0.17098 0.3374 0.86119 0.0
H1879 H 0.26507 0.40887 0.89617 0.0
H1880 H 0.18076 0.35572 0.92223 0.0
H1881 H 0.27092 0.36231 0.85393 0.0
H1882 H 0.23078 0.39505 0.90195 0.0
H1883 H 0.20481 0.35205 0.85429 0.0
C1884 C 0.18021 0.3446 0.87308 0.0
C1885 C 0.17322 0.34533 0.89231 0.0
C1886 C 0.23962 0.38795 0.89139 0.0
C1887 C 0.21139 0.36226 0.88447 0.0
C1888 C 0.25907 0.39583 0.88802 0.0
C1889 C 0.27077 0.38662 0.87462 0.0
C1890 C 0.23174 0.37108 0.88092 0.0
C1891 C 0.26236 0.36972 0.86449 0.0
C1892 C 0.19944 0.35283 0.86915 0.0
C1893 C 0.18572 0.35475 0.90724 0.0
N1894 N 0.24323 0.36253 0.86774 0.0
N1895 N 0.2042 0.36301 0.90297 0.0
H1896 H 0.40073 0.4551 0.62408 0.0
H1897 H 0.30455 0.51218 0.62175 0.0
H1898 H 0.34045 0.42686 0.6207 0.0
H1899 H 0.36275 0.53989 0.60843 0.0
H1900 H 0.31741 0.48047 0.61841 0.0
H1901 H 0.38761 0.48584 0.61529 0.0
C1902 C 0.3848 0.45526 0.62112 0.0
C1903 C 0.37163 0.43845 0.62346 0.0
C1904 C 0.32735 0.49343 0.61588 0.0
C1905 C 0.35654 0.47354 0.61364 0.0
C1906 C 0.31999 0.51154 0.6178 0.0
C1907 C 0.33266 0.52864 0.61552 0.0
C1908 C 0.34768 0.49238 0.61211 0.0
C1909 C 0.35251 0.52701 0.61031 0.0
C1910 C 0.37731 0.47282 0.61611 0.0
C1911 C 0.35114 0.4395 0.61936 0.0
N1912 N 0.35955 0.50917 0.60916 0.0
N1913 N 0.34422 0.45679 0.61496 0.0
H1914 H 0.75968 0.07451 0.12242 0.0
H1915 H 0.68638 0.15765 0.10274 0.0
H1916 H 0.78015 0.13532 0.11651 0.0
H1917 H 0.66615 0.0965 0.10567 0.0
H1918 H 0.72063 0.15 0.10995 0.0
H1919 H 0.72516 0.08246 0.11795 0.0
C1920 C 0.75694 0.08953 0.12016 0.0
C1921 C 0.77288 0.10425 0.11979 0.0
C1922 C 0.70868 0.13826 0.10913 0.0
C1923 C 0.73334 0.11348 0.11476 0.0
C1924 C 0.6891 0.14264 0.1051 0.0
C1925 C 0.67337 0.12769 0.10353 0.0
C1926 C 0.71258 0.1188 0.1116 0.0
C1927 C 0.67781 0.1085 0.10669 0.0
C1928 C 0.73721 0.09407 0.11764 0.0
C1929 C 0.76837 0.12346 0.11685 0.0
N1930 N 0.697 0.1046 0.11048 0.0
N1931 N 0.74904 0.12751 0.11444 0.0
H1932 H 0.66441 0.02791 0.82993 0.0
H1933 H 0.62401 0.93205 0.88476 0.0
H1934 H 0.63895 0.03096 0.88746 0.0
H1935 H 0.62231 0.937 0.82139 0.0
H1936 H 0.63547 0.96691 0.88792 0.0
H1937 H 0.65534 0.99289 0.82869 0.0
C1938 C 0.65704 0.02119 0.8424 0.0
C1939 C 0.65233 0.03238 0.8588 0.0
C1940 C 0.6326 0.96027 0.87337 0.0
C1941 C 0.64199 0.99224 0.85744 0.0
C1942 C 0.6262 0.94043 0.87154 0.0
C1943 C 0.6222 0.93169 0.85278 0.0
C1944 C 0.63539 0.97123 0.85631 0.0
C1945 C 0.62513 0.94319 0.83613 0.0
C1946 C 0.6518 0.00121 0.84161 0.0
C1947 C 0.64274 0.02285 0.8745 0.0
N1948 N 0.63166 0.96236 0.83829 0.0
N1949 N 0.63789 0.00324 0.87346 0.0
H1950 H 0.86538 0.05966 0.33924 0.0
H1951 H 0.86397 0.96212 0.39702 0.0
H1952 H 0.88516 0.0607 0.40044 0.0
H1953 H 0.82003 0.97134 0.35114 0.0
H1954 H 0.87401 0.99736 0.39834 0.0
H1955 H 0.85084 0.02615 0.34257 0.0
C1956 C 0.86655 0.05282 0.35341 0.0
C1957 C 0.87648 0.06287 0.36958 0.0
C1958 C 0.86198 0.99159 0.38822 0.0
C1959 C 0.86016 0.0245 0.37342 0.0
C1960 C 0.85629 0.97154 0.38742 0.0
C1961 C 0.84128 0.96378 0.37382 0.0
C1962 C 0.85282 0.00375 0.37508 0.0
C1963 C 0.83176 0.97664 0.36177 0.0
C1964 C 0.85818 0.03376 0.35533 0.0
C1965 C 0.87752 0.0534 0.38766 0.0
N1966 N 0.83789 0.99593 0.36248 0.0
N1967 N 0.8697 0.03456 0.38905 0.0
H1968 H 0.34565 0.27088 0.11482 0.0
H1969 H 0.36715 0.162 0.08693 0.0
H1970 H 0.35611 0.24982 0.0561 0.0
H1971 H 0.3695 0.1848 0.14678 0.0
H1972 H 0.35457 0.19196 0.07568 0.0
H1973 H 0.34587 0.23751 0.12671 0.0
C1974 C 0.34745 0.25917 0.10435 0.0
C1975 C 0.35109 0.26311 0.08449 0.0
C1976 C 0.3576 0.19037 0.09132 0.0
C1977 C 0.35149 0.2251 0.09796 0.0
C1978 C 0.36478 0.17323 0.09777 0.0
C1979 C 0.36971 0.17102 0.1178 0.0
C1980 C 0.35544 0.20554 0.10494 0.0
C1981 C 0.36607 0.18597 0.13117 0.0
C1982 C 0.34772 0.24018 0.11117 0.0
C1983 C 0.35347 0.24744 0.07158 0.0
N1984 N 0.35941 0.20275 0.12447 0.0
N1985 N 0.35381 0.22919 0.07856 0.0
H1986 H 0.58029 0.63749 0.85964 0.0
H1987 H 0.46906 0.65867 0.88411 0.0
H1988 H 0.5666 0.68141 0.90204 0.0
H1989 H 0.48328 0.6245 0.83331 0.0
H1990 H 0.50481 0.66738 0.89076 0.0
H1991 H 0.54488 0.63281 0.84938 0.0
C1992 C 0.56988 0.64627 0.86667 0.0
C1993 C 0.57641 0.65975 0.88183 0.0
C1994 C 0.50009 0.6581 0.87807 0.0
C1995 C 0.53587 0.65434 0.8703 0.0
C1996 C 0.47968 0.65307 0.8743 0.0
C1997 C 0.47316 0.64073 0.85821 0.0
C1998 C 0.5141 0.65057 0.86578 0.0
C1999 C 0.48762 0.63401 0.84593 0.0
C2000 C 0.54967 0.6436 0.8608 0.0
C2001 C 0.56226 0.67078 0.89035 0.0
N2002 N 0.50741 0.63888 0.85007 0.0
N2003 N 0.54264 0.66769 0.88461 0.0
H2004 H 0.11452 0.73425 0.55712 0.0
H2005 H 0.11665 0.81101 0.64501 0.0
H2006 H 0.13185 0.72004 0.61644 0.0
H2007 H 0.11628 0.82641 0.58363 0.0
H2008 H 0.1251 0.7784 0.63543 0.0
H2009 H 0.11801 0.76866 0.56664 0.0
C2010 C 0.11939 0.73846 0.57211 0.0
C2011 C 0.12278 0.72436 0.58606 0.0
C2012 C 0.12351 0.78905 0.62412 0.0
C2013 C 0.12632 0.76373 0.59728 0.0
C2014 C 0.11868 0.80766 0.62957 0.0
C2015 C 0.11542 0.82135 0.61506 0.0
C2016 C 0.1249 0.78413 0.60403 0.0
C2017 C 0.11834 0.81625 0.59531 0.0
C2018 C 0.1214 0.75812 0.57757 0.0
C2019 C 0.12914 0.73055 0.60526 0.0
N2020 N 0.12263 0.798 0.59037 0.0
N2021 N 0.13032 0.74981 0.61046 0.0
H2022 H 0.01875 0.37171 0.3328 0.0
H2023 H 0.94398 0.31981 0.40882 0.0
H2024 H 0.03881 0.3432 0.38487 0.0
H2025 H 0.92777 0.36631 0.37169 0.0
H2026 H 0.9777 0.32364 0.39615 0.0
H2027 H 0.98417 0.36514 0.34296 0.0
C2028 C 0.01588 0.3639 0.34627 0.0
C2029 C 0.0317 0.35806 0.35807 0.0
C2030 C 0.96674 0.33296 0.39074 0.0
C2031 C 0.99222 0.35049 0.36967 0.0
C2032 C 0.94746 0.33075 0.3979 0.0
C2033 C 0.93304 0.34285 0.39137 0.0
C2034 C 0.97162 0.3472 0.37678 0.0
C2035 C 0.93845 0.35678 0.37721 0.0
C2036 C 0.99616 0.36027 0.35209 0.0
C2037 C 0.02709 0.34806 0.3754 0.0
N2038 N 0.95733 0.35856 0.37036 0.0
N2039 N 0.00775 0.34457 0.38068 0.0
H2040 H 0.38158 0.8239 0.39212 0.0
H2041 H 0.41316 0.71684 0.37395 0.0
H2042 H 0.42434 0.81015 0.34899 0.0
H2043 H 0.38461 0.73411 0.42679 0.0
H2044 H 0.41674 0.75081 0.36407 0.0
H2045 H 0.38144 0.7908 0.40444 0.0
C2046 C 0.39095 0.81394 0.38525 0.0
C2047 C 0.40293 0.81979 0.36944 0.0
C2048 C 0.40987 0.74719 0.37792 0.0
C2049 C 0.40279 0.78192 0.38343 0.0
C2050 C 0.40781 0.72779 0.38357 0.0
C2051 C 0.3985 0.7226 0.40119 0.0
C2052 C 0.40231 0.76148 0.38983 0.0
C2053 C 0.3919 0.73744 0.41309 0.0
C2054 C 0.39093 0.79509 0.39236 0.0
C2055 C 0.41486 0.80629 0.36119 0.0
N2056 N 0.39374 0.75618 0.40709 0.0
N2057 N 0.41437 0.78796 0.36819 0.0
H2058 H 0.01687 0.62467 0.17688 0.0
H2059 H 0.93319 0.63216 0.09346 0.0
H2060 H 0.02545 0.60852 0.11623 0.0
H2061 H 0.92263 0.63569 0.15582 0.0
H2062 H 0.96575 0.62029 0.10113 0.0
H2063 H 0.98121 0.62526 0.1695 0.0
C2064 C 0.01112 0.62091 0.16205 0.0
C2065 C 0.02407 0.61669 0.1471 0.0
C2066 C 0.95615 0.62338 0.1131 0.0
C2067 C 0.98329 0.61784 0.13834 0.0
C2068 C 0.93758 0.63018 0.10874 0.0
C2069 C 0.92531 0.63523 0.12404 0.0
C2070 C 0.96249 0.62176 0.1329 0.0
C2071 C 0.93169 0.63225 0.14355 0.0
C2072 C 0.99074 0.62126 0.15781 0.0
C2073 C 0.01589 0.61183 0.12815 0.0
N2074 N 0.94991 0.62596 0.1474 0.0
N2075 N 0.99601 0.61291 0.12419 0.0
H2076 H 0.11867 0.25129 0.91692 0.0
H2077 H 0.06514 0.17255 0.83962 0.0
H2078 H 0.08424 0.26618 0.8655 0.0
H2079 H 0.1113 0.15955 0.88176 0.0
H2080 H 0.06877 0.20627 0.85162 0.0
H2081 H 0.11276 0.21695 0.90692 0.0
C2082 C 0.10974 0.24734 0.90361 0.0
C2083 C 0.10201 0.26166 0.89197 0.0
C2084 C 0.07809 0.19604 0.85826 0.0
C2085 C 0.09523 0.22239 0.88049 0.0
C2086 C 0.07601 0.17675 0.85145 0.0
C2087 C 0.08802 0.16319 0.85964 0.0
C2088 C 0.09217 0.20184 0.87347 0.0
C2089 C 0.10182 0.16952 0.87495 0.0
C2090 C 0.10646 0.22774 0.89788 0.0
C2091 C 0.09058 0.25567 0.87486 0.0
N2092 N 0.10352 0.18841 0.88138 0.0
N2093 N 0.08755 0.23649 0.86963 0.0
H2094 H 0.5788 0.37907 0.65195 0.0
H2095 H 0.47045 0.40816 0.62081 0.0
H2096 H 0.55612 0.37803 0.59164 0.0
H2097 H 0.49125 0.39951 0.68051 0.0
H2098 H 0.50458 0.40586 0.60964 0.0
H2099 H 0.54994 0.39516 0.66207 0.0
C2100 C 0.56784 0.38243 0.64078 0.0
C2101 C 0.56964 0.37684 0.62098 0.0
C2102 C 0.50173 0.4049 0.62523 0.0
C2103 C 0.53638 0.39512 0.63252 0.0
C2104 C 0.48231 0.40636 0.63163 0.0
C2105 C 0.47804 0.40371 0.65156 0.0
C2106 C 0.51686 0.40091 0.63894 0.0
C2107 C 0.49389 0.40133 0.66496 0.0
C2108 C 0.55136 0.39165 0.64658 0.0
C2109 C 0.55517 0.38189 0.60711 0.0
N2110 N 0.51253 0.39975 0.65838 0.0
N2111 N 0.53892 0.39046 0.61319 0.0
H2112 H 0.12622 0.36874 0.27784 0.0
H2113 H 0.08938 0.39457 0.16894 0.0
H2114 H 0.06823 0.38728 0.2626 0.0
H2115 H 0.15168 0.39084 0.18473 0.0
H2116 H 0.08059 0.3859 0.20233 0.0
H2117 H 0.13496 0.37103 0.24293 0.0
C2118 C 0.11527 0.37303 0.26713 0.0
C2119 C 0.09654 0.37798 0.2731 0.0
C2120 C 0.09619 0.38688 0.19852 0.0
C2121 C 0.10634 0.38055 0.23342 0.0
C2122 C 0.10124 0.39182 0.17941 0.0
C2123 C 0.12133 0.39366 0.17407 0.0
C2124 C 0.11131 0.38375 0.21253 0.0
C2125 C 0.13601 0.38972 0.18827 0.0
C2126 C 0.12028 0.37442 0.24728 0.0
C2127 C 0.08291 0.38352 0.25868 0.0
N2128 N 0.13072 0.38507 0.20694 0.0
N2129 N 0.0881 0.38469 0.23957 0.0
H2130 H 0.35784 0.34972 0.91344 0.0
H2131 H 0.36344 0.38276 0.02752 0.0
H2132 H 0.35252 0.40876 0.93332 0.0
H2133 H 0.3597 0.32294 0.00664 0.0
H2134 H 0.36277 0.39322 0.99323 0.0
H2135 H 0.36269 0.34047 0.94763 0.0
C2136 C 0.35795 0.36081 0.92498 0.0
C2137 C 0.35463 0.38002 0.9205 0.0
C2138 C 0.36211 0.37781 0.99619 0.0
C2139 C 0.35995 0.36946 0.95979 0.0
C2140 C 0.36245 0.37182 0.01575 0.0
C2141 C 0.36152 0.35192 0.01999 0.0
C2142 C 0.36095 0.36381 0.98076 0.0
C2143 C 0.36033 0.33842 0.00413 0.0
C2144 C 0.36061 0.35549 0.94453 0.0
C2145 C 0.35496 0.39376 0.9361 0.0
N2146 N 0.36009 0.34462 0.98526 0.0
N2147 N 0.35741 0.38819 0.95507 0.0
H2148 H 0.35092 0.63553 0.68695 0.0
H2149 H 0.40472 0.5831 0.77397 0.0
H2150 H 0.34889 0.573 0.69078 0.0
H2151 H 0.38213 0.63894 0.78324 0.0
H2152 H 0.3888 0.58088 0.74106 0.0
H2153 H 0.36661 0.63871 0.7202 0.0
C2154 C 0.35379 0.62249 0.69477 0.0
C2155 C 0.3486 0.60396 0.68612 0.0
C2156 C 0.38732 0.59362 0.7503 0.0
C2157 C 0.36666 0.60754 0.72385 0.0
C2158 C 0.39648 0.59496 0.76904 0.0
C2159 C 0.3947 0.61123 0.78135 0.0
C2160 C 0.37657 0.6088 0.74366 0.0
C2161 C 0.38377 0.62612 0.77422 0.0
C2162 C 0.36264 0.62433 0.71372 0.0
C2163 C 0.35257 0.58756 0.69691 0.0
N2164 N 0.37518 0.62461 0.75573 0.0
N2165 N 0.36151 0.58974 0.71515 0.0
H2166 H 0.11172 0.60759 0.52169 0.0
H2167 H 0.12695 0.65326 0.41521 0.0
H2168 H 0.10921 0.66852 0.50959 0.0
H2169 H 0.13179 0.59269 0.42734 0.0
H2170 H 0.11654 0.65826 0.44891 0.0
H2171 H 0.11553 0.60112 0.48655 0.0
C2172 C 0.11185 0.6196 0.51165 0.0
C2173 C 0.11031 0.63867 0.51866 0.0
C2174 C 0.1197 0.64383 0.44417 0.0
C2175 C 0.11468 0.63134 0.47837 0.0
C2176 C 0.1256 0.64094 0.42489 0.0
C2177 C 0.13043 0.62256 0.4185 0.0
C2178 C 0.1187 0.62824 0.45722 0.0
C2179 C 0.12832 0.60713 0.43168 0.0
C2180 C 0.11402 0.61588 0.49157 0.0
C2181 C 0.11048 0.65362 0.50491 0.0
N2182 N 0.12279 0.61036 0.45048 0.0
N2183 N 0.11275 0.64964 0.48546 0.0
H2184 H 0.14547 0.60938 0.20273 0.0
H2185 H 0.11923 0.6252 0.31524 0.0
H2186 H 0.08903 0.6284 0.22009 0.0
H2187 H 0.163 0.58728 0.29673 0.0
H2188 H 0.10978 0.62961 0.28058 0.0
H2189 H 0.15419 0.60447 0.23741 0.0
C2190 C 0.13494 0.61259 0.21383 0.0
C2191 C 0.11649 0.61931 0.20851 0.0
C2192 C 0.12139 0.62026 0.28415 0.0
C2193 C 0.12642 0.61378 0.24818 0.0
C2194 C 0.12683 0.61778 0.3039 0.0
C2195 C 0.14193 0.60585 0.30888 0.0
C2196 C 0.13134 0.611 0.26929 0.0
C2197 C 0.15123 0.59655 0.29358 0.0
C2198 C 0.13989 0.60968 0.2336 0.0
C2199 C 0.10339 0.62314 0.22353 0.0
N2200 N 0.14589 0.59943 0.27446 0.0
N2201 N 0.10865 0.62041 0.24271 0.0
H2202 H 0.16472 0.37135 0.06544 0.0
H2203 H 0.09374 0.34864 0.97244 0.0
H2204 H 0.10332 0.38477 0.0669 0.0
H2205 H 0.14082 0.31286 0.98842 0.0
H2206 H 0.09647 0.3632 0.00591 0.0
H2207 H 0.15647 0.35134 0.03575 0.0
C2208 C 0.14945 0.36999 0.05951 0.0
C2209 C 0.13467 0.37974 0.06851 0.0
C2210 C 0.1059 0.3519 0.0021 0.0
C2211 C 0.12518 0.35706 0.03444 0.0
C2212 C 0.10438 0.34362 0.98305 0.0
C2213 C 0.11728 0.32973 0.97756 0.0
C2214 C 0.12062 0.34643 0.01548 0.0
C2215 C 0.13074 0.32369 0.9919 0.0
C2216 C 0.14473 0.35848 0.04265 0.0
C2217 C 0.1151 0.3774 0.06034 0.0
N2218 N 0.13228 0.33231 0.01007 0.0
N2219 N 0.11094 0.3665 0.04349 0.0
H2220 H 0.33013 0.42529 0.79888 0.0
H2221 H 0.41605 0.39498 0.72921 0.0
H2222 H 0.37723 0.39125 0.81887 0.0
H2223 H 0.35852 0.40918 0.70661 0.0
H2224 H 0.40442 0.39823 0.76279 0.0
H2225 H 0.34278 0.4241 0.7655 0.0
C2226 C 0.34319 0.41765 0.79628 0.0
C2227 C 0.35261 0.40829 0.81168 0.0
C2228 C 0.39437 0.40067 0.75047 0.0
C2229 C 0.36718 0.407 0.77357 0.0
C2230 C 0.40102 0.39891 0.7313 0.0
C2231 C 0.3882 0.40175 0.71507 0.0
C2232 C 0.37487 0.40556 0.75345 0.0
C2233 C 0.36885 0.40676 0.71869 0.0
C2234 C 0.35034 0.41692 0.77722 0.0
C2235 C 0.36945 0.39857 0.80743 0.0
N2236 N 0.36278 0.40855 0.73751 0.0
N2237 N 0.37624 0.39822 0.78877 0.0
H2238 H 0.39178 0.62772 0.48071 0.0
H2239 H 0.36319 0.65968 0.5894 0.0
H2240 H 0.38019 0.68581 0.49851 0.0
H2241 H 0.35939 0.59968 0.56916 0.0
H2242 H 0.37772 0.66958 0.55829 0.0
H2243 H 0.38815 0.61756 0.51507 0.0
C2244 C 0.38896 0.63842 0.49192 0.0
C2245 C 0.38606 0.65757 0.4868 0.0
C2246 C 0.3739 0.65422 0.5607 0.0
C2247 C 0.38187 0.64613 0.52586 0.0
C2248 C 0.3656 0.64855 0.57849 0.0
C2249 C 0.35975 0.62884 0.58176 0.0
C2250 C 0.37633 0.64013 0.54598 0.0
C2251 C 0.36349 0.61506 0.56716 0.0
C2252 C 0.38675 0.6326 0.51145 0.0
C2253 C 0.3823 0.67085 0.50182 0.0
N2254 N 0.37134 0.62098 0.54976 0.0
N2255 N 0.38018 0.66485 0.52062 0.0
H2256 H 0.19242 0.14961 0.37677 0.0
H2257 H 0.2577 0.06044 0.38304 0.0
H2258 H 0.16739 0.09041 0.38479 0.0
H2259 H 0.28 0.11461 0.3574 0.0
H2260 H 0.22408 0.07102 0.38209 0.0
H2261 H 0.22415 0.13735 0.3679 0.0
C2262 C 0.19349 0.13404 0.37638 0.0
C2263 C 0.17729 0.12104 0.38178 0.0
C2264 C 0.23622 0.08052 0.37637 0.0
C2265 C 0.21352 0.10698 0.37185 0.0
C2266 C 0.25543 0.07447 0.37692 0.0
C2267 C 0.27164 0.08671 0.37038 0.0
C2268 C 0.23321 0.09917 0.36965 0.0
C2269 C 0.26787 0.10473 0.36254 0.0
C2270 C 0.21159 0.12706 0.3713 0.0
C2271 C 0.1795 0.10102 0.38095 0.0
N2272 N 0.24907 0.1106 0.36272 0.0
N2273 N 0.19733 0.09464 0.37637 0.0
H2274 H 0.77327 0.35041 0.63942 0.0
H2275 H 0.67911 0.37126 0.57564 0.0
H2276 H 0.77219 0.40555 0.61072 0.0
H2277 H 0.67164 0.34653 0.63317 0.0
H2278 H 0.71477 0.37985 0.58405 0.0
H2279 H 0.73695 0.34418 0.63312 0.0
C2280 C 0.76537 0.36116 0.63179 0.0
C2281 C 0.7756 0.37851 0.62558 0.0
C2282 C 0.70522 0.37266 0.59482 0.0
C2283 C 0.73454 0.37134 0.61807 0.0
C2284 C 0.685 0.36772 0.59004 0.0
C2285 C 0.67254 0.35825 0.60379 0.0
C2286 C 0.71303 0.36751 0.61319 0.0
C2287 C 0.6808 0.35397 0.62226 0.0
C2288 C 0.74474 0.35765 0.62832 0.0
C2289 C 0.76475 0.39205 0.61582 0.0
N2290 N 0.70067 0.35837 0.62635 0.0
N2291 N 0.74477 0.38806 0.6121 0.0
H2292 H 0.34607 0.91866 0.37534 0.0
H2293 H 0.38838 0.03073 0.37032 0.0
H2294 H 0.40804 0.9382 0.36617 0.0
H2295 H 0.32675 0.01158 0.38165 0.0
H2296 H 0.39609 0.99693 0.37035 0.0
H2297 H 0.3391 0.95253 0.37989 0.0
C2298 C 0.35828 0.93006 0.37454 0.0
C2299 C 0.37766 0.92558 0.37025 0.0
C2300 C 0.38089 0.0001 0.37289 0.0
C2301 C 0.36971 0.96442 0.3752 0.0
C2302 C 0.37644 0.01943 0.37282 0.0
C2303 C 0.35684 0.02404 0.37589 0.0
C2304 C 0.36564 0.98519 0.376 0.0
C2305 C 0.34204 0.00873 0.37914 0.0
C2306 C 0.35426 0.94941 0.37706 0.0
C2307 C 0.39287 0.94096 0.36939 0.0
N2308 N 0.34674 0.98999 0.37904 0.0
N2309 N 0.38853 0.95969 0.37167 0.0
H2310 H 0.81928 0.64135 0.13958 0.0
H2311 H 0.72695 0.57513 0.08985 0.0
H2312 H 0.81042 0.63123 0.07676 0.0
H2313 H 0.71973 0.60916 0.14285 0.0
H2314 H 0.76159 0.58906 0.08892 0.0
H2315 H 0.78615 0.6238 0.14447 0.0
C2316 C 0.81042 0.63537 0.12687 0.0
C2317 C 0.8175 0.63781 0.10772 0.0
C2318 C 0.75247 0.59334 0.10086 0.0
C2319 C 0.78014 0.61755 0.11326 0.0
C2320 C 0.73271 0.58533 0.10149 0.0
C2321 C 0.72033 0.59119 0.11633 0.0
C2322 C 0.76005 0.60718 0.11525 0.0
C2323 C 0.72874 0.60437 0.13107 0.0
C2324 C 0.79159 0.62544 0.12968 0.0
C2325 C 0.80546 0.62983 0.09175 0.0
N2326 N 0.74814 0.61206 0.13011 0.0
N2327 N 0.78744 0.61997 0.09489 0.0
H2328 H 0.59694 0.5524 0.36641 0.0
H2329 H 0.69003 0.49011 0.36754 0.0
H2330 H 0.65806 0.57725 0.36168 0.0
H2331 H 0.63218 0.46709 0.38715 0.0
H2332 H 0.67873 0.52263 0.36759 0.0
H2333 H 0.6093 0.52159 0.37622 0.0
C2334 C 0.61294 0.55147 0.3677 0.0
C2335 C 0.62648 0.56736 0.36296 0.0
C2336 C 0.66855 0.51056 0.37217 0.0
C2337 C 0.64069 0.53217 0.37401 0.0
C2338 C 0.67501 0.49197 0.37214 0.0
C2339 C 0.66197 0.47589 0.37721 0.0
C2340 C 0.64873 0.51308 0.37691 0.0
C2341 C 0.6427 0.47914 0.38314 0.0
C2342 C 0.61999 0.53389 0.37332 0.0
C2343 C 0.64705 0.56536 0.36497 0.0
N2344 N 0.63652 0.49735 0.3825 0.0
N2345 N 0.65349 0.54804 0.37009 0.0
H2346 H 0.24412 0.92275 0.87232 0.0
H2347 H 0.31849 0.84108 0.89427 0.0
H2348 H 0.22389 0.86207 0.8796 0.0
H2349 H 0.33749 0.90243 0.89051 0.0
H2350 H 0.28399 0.84797 0.88678 0.0
H2351 H 0.27859 0.91514 0.87736 0.0
C2352 C 0.2469 0.90781 0.87502 0.0
C2353 C 0.23103 0.89304 0.87558 0.0
C2354 C 0.29574 0.8599 0.88749 0.0
C2355 C 0.27062 0.88419 0.88128 0.0
C2356 C 0.31545 0.85596 0.89166 0.0
C2357 C 0.3309 0.87121 0.89309 0.0
C2358 C 0.29146 0.87921 0.88469 0.0
C2359 C 0.32606 0.89021 0.88963 0.0
C2360 C 0.26663 0.90347 0.87786 0.0
C2361 C 0.23563 0.87395 0.8791 0.0
N2362 N 0.30679 0.89367 0.88568 0.0
N2363 N 0.255 0.87007 0.88181 0.0
H2364 H 0.38627 0.96244 0.11797 0.0
H2365 H 0.35939 0.07265 0.11889 0.0
H2366 H 0.3258 0.97751 0.12369 0.0
H2367 H 0.41319 0.05493 0.14673 0.0
H2368 H 0.34857 0.03829 0.11062 0.0
H2369 H 0.39802 0.9973 0.11806 0.0
C2370 C 0.37545 0.97308 0.11879 0.0
C2371 C 0.3551 0.96721 0.12102 0.0
C2372 C 0.36282 0.04205 0.11837 0.0
C2373 C 0.36832 0.00675 0.12095 0.0
C2374 C 0.36898 0.06156 0.12306 0.0
C2375 C 0.38705 0.06652 0.13372 0.0
C2376 C 0.37509 0.02759 0.12393 0.0
C2377 C 0.399 0.05164 0.13876 0.0
C2378 C 0.38215 0.99288 0.11896 0.0
C2379 C 0.34166 0.98152 0.12215 0.0
N2380 N 0.39282 0.03283 0.13379 0.0
N2381 N 0.34851 0.00068 0.12215 0.0
H2382 H 0.08144 0.94217 0.64193 0.0
H2383 H 0.17372 0.01499 0.61896 0.0
H2384 H 0.13322 0.9217 0.61513 0.0
H2385 H 0.11365 0.03194 0.6133 0.0
H2386 H 0.16004 0.98079 0.61911 0.0
H2387 H 0.09364 0.97554 0.63383 0.0
C2388 C 0.09537 0.94471 0.63433 0.0
C2389 C 0.10643 0.92921 0.6293 0.0
C2390 C 0.14989 0.99199 0.61747 0.0
C2391 C 0.12045 0.96723 0.62014 0.0
C2392 C 0.15766 0.01146 0.61739 0.0
C2393 C 0.14475 0.02622 0.61617 0.0
C2394 C 0.12907 0.98736 0.61689 0.0
C2395 C 0.12409 0.02094 0.61419 0.0
C2396 C 0.10221 0.9637 0.62956 0.0
C2397 C 0.12427 0.93327 0.61928 0.0
N2398 N 0.11682 0.0019 0.61502 0.0
N2399 N 0.13091 0.95196 0.61528 0.0
loop_
_geom_bond_atom_site_label_1
_geom_bond_atom_site_label_2
_geom_bond_distance
_geom_bond_site_symmetry_2
_ccdc_geom_bond_type
O0 Cd1 2.223 . S
O0 C8 1.315 . S
Cd1 O0 2.223 . S
Cd1 O4 2.297 . S
Cd1 O5 2.439 . S
Cd1 O11 2.240 . S
Cd2 O3 2.240 . S
Cd2 O10 2.223 . S
Cd2 O12 2.297 . S
Cd2 O13 2.439 . S
O3 Cd2 2.240 . S
O3 C8 1.279 . S
O4 Cd1 2.297 . S
O4 C6 1.247 . S
O5 Cd1 2.439 . S
O5 C6 1.208 . S
C6 O4 1.247 . S
C6 O5 1.208 . S
C7 O12 1.247 . S
C7 O13 1.208 . S
C8 O0 1.315 . S
C8 O3 1.279 . S
C9 O10 1.315 . S
C9 O11 1.279 . S
O10 Cd2 2.223 . S
O10 C9 1.315 . S
O11 Cd1 2.240 . S
O11 C9 1.279 . S
O12 Cd2 2.297 . S
O12 C7 1.247 . S
O13 Cd2 2.439 . S
O13 C7 1.208 . S
O14 Cd15 2.223 . S
O14 C22 1.315 . S
Cd15 O14 2.223 . S
Cd15 O18 2.297 . S
Cd15 O19 2.439 . S
Cd15 O25 2.240 . S
Cd16 O17 2.240 . S
Cd16 O24 2.223 . S
Cd16 O26 2.297 . S
Cd16 O27 2.439 . S
O17 Cd16 2.240 . S
O17 C22 1.279 . S
O18 Cd15 2.297 . S
O18 C20 1.247 . S
O19 Cd15 2.439 . S
O19 C20 1.208 . S
C20 O18 1.247 . S
C20 O19 1.208 . S
C21 O26 1.247 . S
C21 O27 1.208 . S
C22 O14 1.315 . S
C22 O17 1.279 . S
C23 O24 1.315 . S
C23 O25 1.279 . S
O24 Cd16 2.223 . S
O24 C23 1.315 . S
O25 Cd15 2.240 . S
O25 C23 1.279 . S
O26 Cd16 2.297 . S
O26 C21 1.247 . S
O27 Cd16 2.439 . S
O27 C21 1.208 . S
O28 Cd29 2.223 . S
O28 C36 1.315 . S
Cd29 O28 2.223 . S
Cd29 O32 2.297 . S
Cd29 O33 2.439 . S
Cd29 O39 2.240 . S
Cd30 O31 2.240 . S
Cd30 O38 2.223 . S
Cd30 O40 2.297 . S
Cd30 O41 2.439 . S
O31 Cd30 2.240 . S
O31 C36 1.279 . S
O32 Cd29 2.297 . S
O32 C34 1.247 . S
O33 Cd29 2.439 . S
O33 C34 1.208 . S
C34 O32 1.247 . S
C34 O33 1.208 . S
C35 O40 1.247 . S
C35 O41 1.208 . S
C36 O28 1.315 . S
C36 O31 1.279 . S
C37 O38 1.315 . S
C37 O39 1.279 . S
O38 Cd30 2.223 . S
O38 C37 1.315 . S
O39 Cd29 2.240 . S
O39 C37 1.279 . S
O40 Cd30 2.297 . S
O40 C35 1.247 . S
O41 Cd30 2.439 . S
O41 C35 1.208 . S
O42 Cd43 2.223 . S
O42 C50 1.315 . S
Cd43 O42 2.223 . S
Cd43 O46 2.297 . S
Cd43 O47 2.439 . S
Cd43 O53 2.240 . S
Cd44 O45 2.240 . S
Cd44 O52 2.223 . S
Cd44 O54 2.297 . S
Cd44 O55 2.439 . S
O45 Cd44 2.240 . S
O45 C50 1.279 . S
O46 Cd43 2.297 . S
O46 C48 1.247 . S
O47 Cd43 2.439 . S
O47 C48 1.208 . S
C48 O46 1.247 . S
C48 O47 1.208 . S
C49 O54 1.247 . S
C49 O55 1.208 . S
C50 O42 1.315 . S
C50 O45 1.279 . S
C51 O52 1.315 . S
C51 O53 1.279 . S
O52 Cd44 2.223 . S
O52 C51 1.315 . S
O53 Cd43 2.240 . S
O53 C51 1.279 . S
O54 Cd44 2.297 . S
O54 C49 1.247 . S
O55 Cd44 2.439 . S
O55 C49 1.208 . S
O56 Cd57 2.223 . S
O56 C64 1.315 . S
Cd57 O56 2.223 . S
Cd57 O60 2.297 . S
Cd57 O61 2.439 . S
Cd57 O67 2.240 . S
Cd58 O59 2.240 . S
Cd58 O66 2.223 . S
Cd58 O68 2.297 . S
Cd58 O69 2.439 . S
O59 Cd58 2.240 . S
O59 C64 1.279 . S
O60 Cd57 2.297 . S
O60 C62 1.247 . S
O61 Cd57 2.439 . S
O61 C62 1.208 . S
C62 O60 1.247 . S
C62 O61 1.208 . S
C63 O68 1.247 . S
C63 O69 1.208 . S
C64 O56 1.315 . S
C64 O59 1.279 . S
C65 O66 1.315 . S
C65 O67 1.279 . S
O66 Cd58 2.223 . S
O66 C65 1.315 . S
O67 Cd57 2.240 . S
O67 C65 1.279 . S
O68 Cd58 2.297 . S
O68 C63 1.247 . S
O69 Cd58 2.439 . S
O69 C63 1.208 . S
O70 Cd71 2.223 . S
O70 C78 1.315 . S
Cd71 O70 2.223 . S
Cd71 O74 2.297 . S
Cd71 O75 2.439 . S
Cd71 O81 2.240 . S
Cd72 O73 2.240 . S
Cd72 O80 2.223 . S
Cd72 O82 2.297 . S
Cd72 O83 2.439 . S
O73 Cd72 2.240 . S
O73 C78 1.279 . S
O74 Cd71 2.297 . S
O74 C76 1.247 . S
O75 Cd71 2.439 . S
O75 C76 1.208 . S
C76 O74 1.247 . S
C76 O75 1.208 . S
C77 O82 1.247 . S
C77 O83 1.208 . S
C78 O70 1.315 . S
C78 O73 1.279 . S
C79 O80 1.315 . S
C79 O81 1.279 . S
O80 Cd72 2.223 . S
O80 C79 1.315 . S
O81 Cd71 2.240 . S
O81 C79 1.279 . S
O82 Cd72 2.297 . S
O82 C77 1.247 . S
O83 Cd72 2.439 . S
O83 C77 1.208 . S
O84 Cd85 2.223 . S
O84 C92 1.315 . S
Cd85 O84 2.223 . S
Cd85 O88 2.297 . S
Cd85 O89 2.439 . S
Cd85 O95 2.240 . S
Cd86 O87 2.240 . S
Cd86 O94 2.223 . S
Cd86 O96 2.297 . S
Cd86 O97 2.439 . S
O87 Cd86 2.240 . S
O87 C92 1.279 . S
O88 Cd85 2.297 . S
O88 C90 1.247 . S
O89 Cd85 2.439 . S
O89 C90 1.208 . S
C90 O88 1.247 . S
C90 O89 1.208 . S
C91 O96 1.247 . S
C91 O97 1.208 . S
C92 O84 1.315 . S
C92 O87 1.279 . S
C93 O94 1.315 . S
C93 O95 1.279 . S
O94 Cd86 2.223 . S
O94 C93 1.315 . S
O95 Cd85 2.240 . S
O95 C93 1.279 . S
O96 Cd86 2.297 . S
O96 C91 1.247 . S
O97 Cd86 2.439 . S
O97 C91 1.208 . S
O98 Cd99 2.223 . S
O98 C106 1.315 . S
Cd99 O98 2.223 . S
Cd99 O102 2.297 . S
Cd99 O103 2.439 . S
Cd99 O109 2.240 . S
Cd100 O101 2.240 . S
Cd100 O108 2.223 . S
Cd100 O110 2.297 . S
Cd100 O111 2.439 . S
O101 Cd100 2.240 . S
O101 C106 1.279 . S
O102 Cd99 2.297 . S
O102 C104 1.247 . S
O103 Cd99 2.439 . S
O103 C104 1.208 . S
C104 O102 1.247 . S
C104 O103 1.208 . S
C105 O110 1.247 . S
C105 O111 1.208 . S
C106 O98 1.315 . S
C106 O101 1.279 . S
C107 O108 1.315 . S
C107 O109 1.279 . S
O108 Cd100 2.223 . S
O108 C107 1.315 . S
O109 Cd99 2.240 . S
O109 C107 1.279 . S
O110 Cd100 2.297 . S
O110 C105 1.247 . S
O111 Cd100 2.439 . S
O111 C105 1.208 . S
O112 Cd113 2.223 . S
O112 C120 1.315 . S
Cd113 O112 2.223 . S
Cd113 O116 2.297 . S
Cd113 O117 2.439 . S
Cd113 O123 2.240 . S
Cd114 O115 2.240 . S
Cd114 O122 2.223 . S
Cd114 O124 2.297 . S
Cd114 O125 2.439 . S
O115 Cd114 2.240 . S
O115 C120 1.279 . S
O116 Cd113 2.297 . S
O116 C118 1.247 . S
O117 Cd113 2.439 . S
O117 C118 1.208 . S
C118 O116 1.247 . S
C118 O117 1.208 . S
C119 O124 1.247 . S
C119 O125 1.208 . S
C120 O112 1.315 . S
C120 O115 1.279 . S
C121 O122 1.315 . S
C121 O123 1.279 . S
O122 Cd114 2.223 . S
O122 C121 1.315 . S
O123 Cd113 2.240 . S
O123 C121 1.279 . S
O124 Cd114 2.297 . S
O124 C119 1.247 . S
O125 Cd114 2.439 . S
O125 C119 1.208 . S
O126 Cd127 2.223 . S
O126 C134 1.315 . S
Cd127 O126 2.223 . S
Cd127 O130 2.297 . S
Cd127 O131 2.439 . S
Cd127 O137 2.240 . S
Cd128 O129 2.240 . S
Cd128 O136 2.223 . S
Cd128 O138 2.297 . S
Cd128 O139 2.439 . S
O129 Cd128 2.240 . S
O129 C134 1.279 . S
O130 Cd127 2.297 . S
O130 C132 1.247 . S
O131 Cd127 2.439 . S
O131 C132 1.208 . S
C132 O130 1.247 . S
C132 O131 1.208 . S
C133 O138 1.247 . S
C133 O139 1.208 . S
C134 O126 1.315 . S
C134 O129 1.279 . S
C135 O136 1.315 . S
C135 O137 1.279 . S
O136 Cd128 2.223 . S
O136 C135 1.315 . S
O137 Cd127 2.240 . S
O137 C135 1.279 . S
O138 Cd128 2.297 . S
O138 C133 1.247 . S
O139 Cd128 2.439 . S
O139 C133 1.208 . S
O140 Cd141 2.223 . S
O140 C148 1.315 . S
Cd141 O140 2.223 . S
Cd141 O144 2.297 . S
Cd141 O145 2.439 . S
Cd141 O151 2.240 . S
Cd142 O143 2.240 . S
Cd142 O150 2.223 . S
Cd142 O152 2.297 . S
Cd142 O153 2.439 . S
O143 Cd142 2.240 . S
O143 C148 1.279 . S
O144 Cd141 2.297 . S
O144 C146 1.247 . S
O145 Cd141 2.439 . S
O145 C146 1.208 . S
C146 O144 1.247 . S
C146 O145 1.208 . S
C147 O152 1.247 . S
C147 O153 1.208 . S
C148 O140 1.315 . S
C148 O143 1.279 . S
C149 O150 1.315 . S
C149 O151 1.279 . S
O150 Cd142 2.223 . S
O150 C149 1.315 . S
O151 Cd141 2.240 . S
O151 C149 1.279 . S
O152 Cd142 2.297 . S
O152 C147 1.247 . S
O153 Cd142 2.439 . S
O153 C147 1.208 . S
O154 Cd155 2.223 . S
O154 C162 1.315 . S
Cd155 O154 2.223 . S
Cd155 O158 2.297 . S
Cd155 O159 2.439 . S
Cd155 O165 2.240 . S
Cd156 O157 2.240 . S
Cd156 O164 2.223 . S
Cd156 O166 2.297 . S
Cd156 O167 2.439 . S
O157 Cd156 2.240 . S
O157 C162 1.279 . S
O158 Cd155 2.297 . S
O158 C160 1.247 . S
O159 Cd155 2.439 . S
O159 C160 1.208 . S
C160 O158 1.247 . S
C160 O159 1.208 . S
C161 O166 1.247 . S
C161 O167 1.208 . S
C162 O154 1.315 . S
C162 O157 1.279 . S
C163 O164 1.315 . S
C163 O165 1.279 . S
O164 Cd156 2.223 . S
O164 C163 1.315 . S
O165 Cd155 2.240 . S
O165 C163 1.279 . S
O166 Cd156 2.297 . S
O166 C161 1.247 . S
O167 Cd156 2.439 . S
O167 C161 1.208 . S
O168 Cd169 2.223 . S
O168 C176 1.315 . S
Cd169 O168 2.223 . S
Cd169 O172 2.297 . S
Cd169 O173 2.439 . S
Cd169 O179 2.240 . S
Cd170 O171 2.240 . S
Cd170 O178 2.223 . S
Cd170 O180 2.297 . S
Cd170 O181 2.439 . S
O171 Cd170 2.240 . S
O171 C176 1.279 . S
O172 Cd169 2.297 . S
O172 C174 1.247 . S
O173 Cd169 2.439 . S
O173 C174 1.208 . S
C174 O172 1.247 . S
C174 O173 1.208 . S
C175 O180 1.247 . S
C175 O181 1.208 . S
C176 O168 1.315 . S
C176 O171 1.279 . S
C177 O178 1.315 . S
C177 O179 1.279 . S
O178 Cd170 2.223 . S
O178 C177 1.315 . S
O179 Cd169 2.240 . S
O179 C177 1.279 . S
O180 Cd170 2.297 . S
O180 C175 1.247 . S
O181 Cd170 2.439 . S
O181 C175 1.208 . S
O182 Cd183 2.223 . S
O182 C190 1.315 . S
Cd183 O182 2.223 . S
Cd183 O186 2.297 . S
Cd183 O187 2.439 . S
Cd183 O193 2.240 . S
Cd184 O185 2.240 . S
Cd184 O192 2.223 . S
Cd184 O194 2.297 . S
Cd184 O195 2.439 . S
O185 Cd184 2.240 . S
O185 C190 1.279 . S
O186 Cd183 2.297 . S
O186 C188 1.247 . S
O187 Cd183 2.439 . S
O187 C188 1.208 . S
C188 O186 1.247 . S
C188 O187 1.208 . S
C189 O194 1.247 . S
C189 O195 1.208 . S
C190 O182 1.315 . S
C190 O185 1.279 . S
C191 O192 1.315 . S
C191 O193 1.279 . S
O192 Cd184 2.223 . S
O192 C191 1.315 . S
O193 Cd183 2.240 . S
O193 C191 1.279 . S
O194 Cd184 2.297 . S
O194 C189 1.247 . S
O195 Cd184 2.439 . S
O195 C189 1.208 . S
O196 Cd197 2.223 . S
O196 C204 1.315 . S
Cd197 O196 2.223 . S
Cd197 O200 2.297 . S
Cd197 O201 2.439 . S
Cd197 O207 2.240 . S
Cd198 O199 2.240 . S
Cd198 O206 2.223 . S
Cd198 O208 2.297 . S
Cd198 O209 2.439 . S
O199 Cd198 2.240 . S
O199 C204 1.279 . S
O200 Cd197 2.297 . S
O200 C202 1.247 . S
O201 Cd197 2.439 . S
O201 C202 1.208 . S
C202 O200 1.247 . S
C202 O201 1.208 . S
C203 O208 1.247 . S
C203 O209 1.208 . S
C204 O196 1.315 . S
C204 O199 1.279 . S
C205 O206 1.315 . S
C205 O207 1.279 . S
O206 Cd198 2.223 . S
O206 C205 1.315 . S
O207 Cd197 2.240 . S
O207 C205 1.279 . S
O208 Cd198 2.297 . S
O208 C203 1.247 . S
O209 Cd198 2.439 . S
O209 C203 1.208 . S
O210 Cd211 2.223 . S
O210 C218 1.315 . S
Cd211 O210 2.223 . S
Cd211 O214 2.297 . S
Cd211 O215 2.439 . S
Cd211 O221 2.240 . S
Cd212 O213 2.240 . S
Cd212 O220 2.223 . S
Cd212 O222 2.297 . S
Cd212 O223 2.439 . S
O213 Cd212 2.240 . S
O213 C218 1.279 . S
O214 Cd211 2.297 . S
O214 C216 1.247 . S
O215 Cd211 2.439 . S
O215 C216 1.208 . S
C216 O214 1.247 . S
C216 O215 1.208 . S
C217 O222 1.247 . S
C217 O223 1.208 . S
C218 O210 1.315 . S
C218 O213 1.279 . S
C219 O220 1.315 . S
C219 O221 1.279 . S
O220 Cd212 2.223 . S
O220 C219 1.315 . S
O221 Cd211 2.240 . S
O221 C219 1.279 . S
O222 Cd212 2.297 . S
O222 C217 1.247 . S
O223 Cd212 2.439 . S
O223 C217 1.208 . S
O224 Cd225 2.223 . S
O224 C232 1.315 . S
Cd225 O224 2.223 . S
Cd225 O228 2.297 . S
Cd225 O229 2.439 . S
Cd225 O235 2.240 . S
Cd226 O227 2.240 . S
Cd226 O234 2.223 . S
Cd226 O236 2.297 . S
Cd226 O237 2.439 . S
O227 Cd226 2.240 . S
O227 C232 1.279 . S
O228 Cd225 2.297 . S
O228 C230 1.247 . S
O229 Cd225 2.439 . S
O229 C230 1.208 . S
C230 O228 1.247 . S
C230 O229 1.208 . S
C231 O236 1.247 . S
C231 O237 1.208 . S
C232 O224 1.315 . S
C232 O227 1.279 . S
C233 O234 1.315 . S
C233 O235 1.279 . S
O234 Cd226 2.223 . S
O234 C233 1.315 . S
O235 Cd225 2.240 . S
O235 C233 1.279 . S
O236 Cd226 2.297 . S
O236 C231 1.247 . S
O237 Cd226 2.439 . S
O237 C231 1.208 . S
O238 Cd239 2.223 . S
O238 C246 1.315 . S
Cd239 O238 2.223 . S
Cd239 O242 2.297 . S
Cd239 O243 2.439 . S
Cd239 O249 2.240 . S
Cd240 O241 2.240 . S
Cd240 O248 2.223 . S
Cd240 O250 2.297 . S
Cd240 O251 2.439 . S
O241 Cd240 2.240 . S
O241 C246 1.279 . S
O242 Cd239 2.297 . S
O242 C244 1.247 . S
O243 Cd239 2.439 . S
O243 C244 1.208 . S
C244 O242 1.247 . S
C244 O243 1.208 . S
C245 O250 1.247 . S
C245 O251 1.208 . S
C246 O238 1.315 . S
C246 O241 1.279 . S
C247 O248 1.315 . S
C247 O249 1.279 . S
O248 Cd240 2.223 . S
O248 C247 1.315 . S
O249 Cd239 2.240 . S
O249 C247 1.279 . S
O250 Cd240 2.297 . S
O250 C245 1.247 . S
O251 Cd240 2.439 . S
O251 C245 1.208 . S
O252 Cd253 2.223 . S
O252 C260 1.315 . S
Cd253 O252 2.223 . S
Cd253 O256 2.297 . S
Cd253 O257 2.439 . S
Cd253 O263 2.240 . S
Cd254 O255 2.240 . S
Cd254 O262 2.223 . S
Cd254 O264 2.297 . S
Cd254 O265 2.439 . S
O255 Cd254 2.240 . S
O255 C260 1.279 . S
O256 Cd253 2.297 . S
O256 C258 1.247 . S
O257 Cd253 2.439 . S
O257 C258 1.208 . S
C258 O256 1.247 . S
C258 O257 1.208 . S
C259 O264 1.247 . S
C259 O265 1.208 . S
C260 O252 1.315 . S
C260 O255 1.279 . S
C261 O262 1.315 . S
C261 O263 1.279 . S
O262 Cd254 2.223 . S
O262 C261 1.315 . S
O263 Cd253 2.240 . S
O263 C261 1.279 . S
O264 Cd254 2.297 . S
O264 C259 1.247 . S
O265 Cd254 2.439 . S
O265 C259 1.208 . S
O266 Cd267 2.223 . S
O266 C274 1.315 . S
Cd267 O266 2.223 . S
Cd267 O270 2.297 . S
Cd267 O271 2.439 . S
Cd267 O277 2.240 . S
Cd268 O269 2.240 . S
Cd268 O276 2.223 . S
Cd268 O278 2.297 . S
Cd268 O279 2.439 . S
O269 Cd268 2.240 . S
O269 C274 1.279 . S
O270 Cd267 2.297 . S
O270 C272 1.247 . S
O271 Cd267 2.439 . S
O271 C272 1.208 . S
C272 O270 1.247 . S
C272 O271 1.208 . S
C273 O278 1.247 . S
C273 O279 1.208 . S
C274 O266 1.315 . S
C274 O269 1.279 . S
C275 O276 1.315 . S
C275 O277 1.279 . S
O276 Cd268 2.223 . S
O276 C275 1.315 . S
O277 Cd267 2.240 . S
O277 C275 1.279 . S
O278 Cd268 2.297 . S
O278 C273 1.247 . S
O279 Cd268 2.439 . S
O279 C273 1.208 . S
O280 Cd281 2.223 . S
O280 C288 1.315 . S
Cd281 O280 2.223 . S
Cd281 O284 2.297 . S
Cd281 O285 2.439 . S
Cd281 O291 2.240 . S
Cd282 O283 2.240 . S
Cd282 O290 2.223 . S
Cd282 O292 2.297 . S
Cd282 O293 2.439 . S
O283 Cd282 2.240 . S
O283 C288 1.279 . S
O284 Cd281 2.297 . S
O284 C286 1.247 . S
O285 Cd281 2.439 . S
O285 C286 1.208 . S
C286 O284 1.247 . S
C286 O285 1.208 . S
C287 O292 1.247 . S
C287 O293 1.208 . S
C288 O280 1.315 . S
C288 O283 1.279 . S
C289 O290 1.315 . S
C289 O291 1.279 . S
O290 Cd282 2.223 . S
O290 C289 1.315 . S
O291 Cd281 2.240 . S
O291 C289 1.279 . S
O292 Cd282 2.297 . S
O292 C287 1.247 . S
O293 Cd282 2.439 . S
O293 C287 1.208 . S
O294 Cd295 2.223 . S
O294 C302 1.315 . S
Cd295 O294 2.223 . S
Cd295 O298 2.297 . S
Cd295 O299 2.439 . S
Cd295 O305 2.240 . S
Cd296 O297 2.240 . S
Cd296 O304 2.223 . S
Cd296 O306 2.297 . S
Cd296 O307 2.439 . S
O297 Cd296 2.240 . S
O297 C302 1.279 . S
O298 Cd295 2.297 . S
O298 C300 1.247 . S
O299 Cd295 2.439 . S
O299 C300 1.208 . S
C300 O298 1.247 . S
C300 O299 1.208 . S
C301 O306 1.247 . S
C301 O307 1.208 . S
C302 O294 1.315 . S
C302 O297 1.279 . S
C303 O304 1.315 . S
C303 O305 1.279 . S
O304 Cd296 2.223 . S
O304 C303 1.315 . S
O305 Cd295 2.240 . S
O305 C303 1.279 . S
O306 Cd296 2.297 . S
O306 C301 1.247 . S
O307 Cd296 2.439 . S
O307 C301 1.208 . S
O308 Cd309 2.223 . S
O308 C316 1.315 . S
Cd309 O308 2.223 . S
Cd309 O312 2.297 . S
Cd309 O313 2.439 . S
Cd309 O319 2.240 . S
Cd310 O311 2.240 . S
Cd310 O318 2.223 . S
Cd310 O320 2.297 . S
Cd310 O321 2.439 . S
O311 Cd310 2.240 . S
O311 C316 1.279 . S
O312 Cd309 2.297 . S
O312 C314 1.247 . S
O313 Cd309 2.439 . S
O313 C314 1.208 . S
C314 O312 1.247 . S
C314 O313 1.208 . S
C315 O320 1.247 . S
C315 O321 1.208 . S
C316 O308 1.315 . S
C316 O311 1.279 . S
C317 O318 1.315 . S
C317 O319 1.279 . S
O318 Cd310 2.223 . S
O318 C317 1.315 . S
O319 Cd309 2.240 . S
O319 C317 1.279 . S
O320 Cd310 2.297 . S
O320 C315 1.247 . S
O321 Cd310 2.439 . S
O321 C315 1.208 . S
O322 Cd323 2.223 . S
O322 C330 1.315 . S
Cd323 O322 2.223 . S
Cd323 O326 2.297 . S
Cd323 O327 2.439 . S
Cd323 O333 2.240 . S
Cd324 O325 2.240 . S
Cd324 O332 2.223 . S
Cd324 O334 2.297 . S
Cd324 O335 2.439 . S
O325 Cd324 2.240 . S
O325 C330 1.279 . S
O326 Cd323 2.297 . S
O326 C328 1.247 . S
O327 Cd323 2.439 . S
O327 C328 1.208 . S
C328 O326 1.247 . S
C328 O327 1.208 . S
C329 O334 1.247 . S
C329 O335 1.208 . S
C330 O322 1.315 . S
C330 O325 1.279 . S
C331 O332 1.315 . S
C331 O333 1.279 . S
O332 Cd324 2.223 . S
O332 C331 1.315 . S
O333 Cd323 2.240 . S
O333 C331 1.279 . S
O334 Cd324 2.297 . S
O334 C329 1.247 . S
O335 Cd324 2.439 . S
O335 C329 1.208 . S
O336 Cd337 2.223 . S
O336 C344 1.315 . S
Cd337 O336 2.223 . S
Cd337 O340 2.297 . S
Cd337 O341 2.439 . S
Cd337 O347 2.240 . S
Cd338 O339 2.240 . S
Cd338 O346 2.223 . S
Cd338 O348 2.297 . S
Cd338 O349 2.439 . S
O339 Cd338 2.240 . S
O339 C344 1.279 . S
O340 Cd337 2.297 . S
O340 C342 1.247 . S
O341 Cd337 2.439 . S
O341 C342 1.208 . S
C342 O340 1.247 . S
C342 O341 1.208 . S
C343 O348 1.247 . S
C343 O349 1.208 . S
C344 O336 1.315 . S
C344 O339 1.279 . S
C345 O346 1.315 . S
C345 O347 1.279 . S
O346 Cd338 2.223 . S
O346 C345 1.315 . S
O347 Cd337 2.240 . S
O347 C345 1.279 . S
O348 Cd338 2.297 . S
O348 C343 1.247 . S
O349 Cd338 2.439 . S
O349 C343 1.208 . S
O350 Cd351 2.223 . S
O350 C358 1.315 . S
Cd351 O350 2.223 . S
Cd351 O354 2.297 . S
Cd351 O355 2.439 . S
Cd351 O361 2.240 . S
Cd352 O353 2.240 . S
Cd352 O360 2.223 . S
Cd352 O362 2.297 . S
Cd352 O363 2.439 . S
O353 Cd352 2.240 . S
O353 C358 1.279 . S
O354 Cd351 2.297 . S
O354 C356 1.247 . S
O355 Cd351 2.439 . S
O355 C356 1.208 . S
C356 O354 1.247 . S
C356 O355 1.208 . S
C357 O362 1.247 . S
C357 O363 1.208 . S
C358 O350 1.315 . S
C358 O353 1.279 . S
C359 O360 1.315 . S
C359 O361 1.279 . S
O360 Cd352 2.223 . S
O360 C359 1.315 . S
O361 Cd351 2.240 . S
O361 C359 1.279 . S
O362 Cd352 2.297 . S
O362 C357 1.247 . S
O363 Cd352 2.439 . S
O363 C357 1.208 . S
O364 Cd365 2.223 . S
O364 C372 1.315 . S
Cd365 O364 2.223 . S
Cd365 O368 2.297 . S
Cd365 O369 2.439 . S
Cd365 O375 2.240 . S
Cd366 O367 2.240 . S
Cd366 O374 2.223 . S
Cd366 O376 2.297 . S
Cd366 O377 2.439 . S
O367 Cd366 2.240 . S
O367 C372 1.279 . S
O368 Cd365 2.297 . S
O368 C370 1.247 . S
O369 Cd365 2.439 . S
O369 C370 1.208 . S
C370 O368 1.247 . S
C370 O369 1.208 . S
C371 O376 1.247 . S
C371 O377 1.208 . S
C372 O364 1.315 . S
C372 O367 1.279 . S
C373 O374 1.315 . S
C373 O375 1.279 . S
O374 Cd366 2.223 . S
O374 C373 1.315 . S
O375 Cd365 2.240 . S
O375 C373 1.279 . S
O376 Cd366 2.297 . S
O376 C371 1.247 . S
O377 Cd366 2.439 . S
O377 C371 1.208 . S
O378 Cd379 2.223 . S
O378 C386 1.315 . S
Cd379 O378 2.223 . S
Cd379 O382 2.297 . S
Cd379 O383 2.439 . S
Cd379 O389 2.240 . S
Cd380 O381 2.240 . S
Cd380 O388 2.223 . S
Cd380 O390 2.297 . S
Cd380 O391 2.439 . S
O381 Cd380 2.240 . S
O381 C386 1.279 . S
O382 Cd379 2.297 . S
O382 C384 1.247 . S
O383 Cd379 2.439 . S
O383 C384 1.208 . S
C384 O382 1.247 . S
C384 O383 1.208 . S
C385 O390 1.247 . S
C385 O391 1.208 . S
C386 O378 1.315 . S
C386 O381 1.279 . S
C387 O388 1.315 . S
C387 O389 1.279 . S
O388 Cd380 2.223 . S
O388 C387 1.315 . S
O389 Cd379 2.240 . S
O389 C387 1.279 . S
O390 Cd380 2.297 . S
O390 C385 1.247 . S
O391 Cd380 2.439 . S
O391 C385 1.208 . S
O392 Cd393 2.223 . S
O392 C400 1.315 . S
Cd393 O392 2.223 . S
Cd393 O396 2.297 . S
Cd393 O397 2.439 . S
Cd393 O403 2.240 . S
Cd394 O395 2.240 . S
Cd394 O402 2.223 . S
Cd394 O404 2.297 . S
Cd394 O405 2.439 . S
O395 Cd394 2.240 . S
O395 C400 1.279 . S
O396 Cd393 2.297 . S
O396 C398 1.247 . S
O397 Cd393 2.439 . S
O397 C398 1.208 . S
C398 O396 1.247 . S
C398 O397 1.208 . S
C399 O404 1.247 . S
C399 O405 1.208 . S
C400 O392 1.315 . S
C400 O395 1.279 . S
C401 O402 1.315 . S
C401 O403 1.279 . S
O402 Cd394 2.223 . S
O402 C401 1.315 . S
O403 Cd393 2.240 . S
O403 C401 1.279 . S
O404 Cd394 2.297 . S
O404 C399 1.247 . S
O405 Cd394 2.439 . S
O405 C399 1.208 . S
O406 Cd407 2.223 . S
O406 C414 1.315 . S
Cd407 O406 2.223 . S
Cd407 O410 2.297 . S
Cd407 O411 2.439 . S
Cd407 O417 2.240 . S
Cd408 O409 2.240 . S
Cd408 O416 2.223 . S
Cd408 O418 2.297 . S
Cd408 O419 2.439 . S
O409 Cd408 2.240 . S
O409 C414 1.279 . S
O410 Cd407 2.297 . S
O410 C412 1.247 . S
O411 Cd407 2.439 . S
O411 C412 1.208 . S
C412 O410 1.247 . S
C412 O411 1.208 . S
C413 O418 1.247 . S
C413 O419 1.208 . S
C414 O406 1.315 . S
C414 O409 1.279 . S
C415 O416 1.315 . S
C415 O417 1.279 . S
O416 Cd408 2.223 . S
O416 C415 1.315 . S
O417 Cd407 2.240 . S
O417 C415 1.279 . S
O418 Cd408 2.297 . S
O418 C413 1.247 . S
O419 Cd408 2.439 . S
O419 C413 1.208 . S
O420 Cd421 2.223 . S
O420 C428 1.315 . S
Cd421 O420 2.223 . S
Cd421 O424 2.297 . S
Cd421 O425 2.439 . S
Cd421 O431 2.240 . S
Cd422 O423 2.240 . S
Cd422 O430 2.223 . S
Cd422 O432 2.297 . S
Cd422 O433 2.439 . S
O423 Cd422 2.240 . S
O423 C428 1.279 . S
O424 Cd421 2.297 . S
O424 C426 1.247 . S
O425 Cd421 2.439 . S
O425 C426 1.208 . S
C426 O424 1.247 . S
C426 O425 1.208 . S
C427 O432 1.247 . S
C427 O433 1.208 . S
C428 O420 1.315 . S
C428 O423 1.279 . S
C429 O430 1.315 . S
C429 O431 1.279 . S
O430 Cd422 2.223 . S
O430 C429 1.315 . S
O431 Cd421 2.240 . S
O431 C429 1.279 . S
O432 Cd422 2.297 . S
O432 C427 1.247 . S
O433 Cd422 2.439 . S
O433 C427 1.208 . S
O434 Cd435 2.223 . S
O434 C442 1.315 . S
Cd435 O434 2.223 . S
Cd435 O438 2.297 . S
Cd435 O439 2.439 . S
Cd435 O445 2.240 . S
Cd436 O437 2.240 . S
Cd436 O444 2.223 . S
Cd436 O446 2.297 . S
Cd436 O447 2.439 . S
O437 Cd436 2.240 . S
O437 C442 1.279 . S
O438 Cd435 2.297 . S
O438 C440 1.247 . S
O439 Cd435 2.439 . S
O439 C440 1.208 . S
C440 O438 1.247 . S
C440 O439 1.208 . S
C441 O446 1.247 . S
C441 O447 1.208 . S
C442 O434 1.315 . S
C442 O437 1.279 . S
C443 O444 1.315 . S
C443 O445 1.279 . S
O444 Cd436 2.223 . S
O444 C443 1.315 . S
O445 Cd435 2.240 . S
O445 C443 1.279 . S
O446 Cd436 2.297 . S
O446 C441 1.247 . S
O447 Cd436 2.439 . S
O447 C441 1.208 . S
O448 Cd449 2.223 . S
O448 C456 1.315 . S
Cd449 O448 2.223 . S
Cd449 O452 2.297 . S
Cd449 O453 2.439 . S
Cd449 O459 2.240 . S
Cd450 O451 2.240 . S
Cd450 O458 2.223 . S
Cd450 O460 2.297 . S
Cd450 O461 2.439 . S
O451 Cd450 2.240 . S
O451 C456 1.279 . S
O452 Cd449 2.297 . S
O452 C454 1.247 . S
O453 Cd449 2.439 . S
O453 C454 1.208 . S
C454 O452 1.247 . S
C454 O453 1.208 . S
C455 O460 1.247 . S
C455 O461 1.208 . S
C456 O448 1.315 . S
C456 O451 1.279 . S
C457 O458 1.315 . S
C457 O459 1.279 . S
O458 Cd450 2.223 . S
O458 C457 1.315 . S
O459 Cd449 2.240 . S
O459 C457 1.279 . S
O460 Cd450 2.297 . S
O460 C455 1.247 . S
O461 Cd450 2.439 . S
O461 C455 1.208 . S
O462 Cd463 2.223 . S
O462 C470 1.315 . S
Cd463 O462 2.223 . S
Cd463 O466 2.297 . S
Cd463 O467 2.439 . S
Cd463 O473 2.240 . S
Cd464 O465 2.240 . S
Cd464 O472 2.223 . S
Cd464 O474 2.297 . S
Cd464 O475 2.439 . S
O465 Cd464 2.240 . S
O465 C470 1.279 . S
O466 Cd463 2.297 . S
O466 C468 1.247 . S
O467 Cd463 2.439 . S
O467 C468 1.208 . S
C468 O466 1.247 . S
C468 O467 1.208 . S
C469 O474 1.247 . S
C469 O475 1.208 . S
C470 O462 1.315 . S
C470 O465 1.279 . S
C471 O472 1.315 . S
C471 O473 1.279 . S
O472 Cd464 2.223 . S
O472 C471 1.315 . S
O473 Cd463 2.240 . S
O473 C471 1.279 . S
O474 Cd464 2.297 . S
O474 C469 1.247 . S
O475 Cd464 2.439 . S
O475 C469 1.208 . S
O476 Cd477 2.223 . S
O476 C484 1.315 . S
Cd477 O476 2.223 . S
Cd477 O480 2.297 . S
Cd477 O481 2.439 . S
Cd477 O487 2.240 . S
Cd478 O479 2.240 . S
Cd478 O486 2.223 . S
Cd478 O488 2.297 . S
Cd478 O489 2.439 . S
O479 Cd478 2.240 . S
O479 C484 1.279 . S
O480 Cd477 2.297 . S
O480 C482 1.247 . S
O481 Cd477 2.439 . S
O481 C482 1.208 . S
C482 O480 1.247 . S
C482 O481 1.208 . S
C483 O488 1.247 . S
C483 O489 1.208 . S
C484 O476 1.315 . S
C484 O479 1.279 . S
C485 O486 1.315 . S
C485 O487 1.279 . S
O486 Cd478 2.223 . S
O486 C485 1.315 . S
O487 Cd477 2.240 . S
O487 C485 1.279 . S
O488 Cd478 2.297 . S
O488 C483 1.247 . S
O489 Cd478 2.439 . S
O489 C483 1.208 . S
O490 Cd491 2.223 . S
O490 C498 1.315 . S
Cd491 O490 2.223 . S
Cd491 O494 2.297 . S
Cd491 O495 2.439 . S
Cd491 O501 2.240 . S
Cd492 O493 2.240 . S
Cd492 O500 2.223 . S
Cd492 O502 2.297 . S
Cd492 O503 2.439 . S
O493 Cd492 2.240 . S
O493 C498 1.279 . S
O494 Cd491 2.297 . S
O494 C496 1.247 . S
O495 Cd491 2.439 . S
O495 C496 1.208 . S
C496 O494 1.247 . S
C496 O495 1.208 . S
C497 O502 1.247 . S
C497 O503 1.208 . S
C498 O490 1.315 . S
C498 O493 1.279 . S
C499 O500 1.315 . S
C499 O501 1.279 . S
O500 Cd492 2.223 . S
O500 C499 1.315 . S
O501 Cd491 2.240 . S
O501 C499 1.279 . S
O502 Cd492 2.297 . S
O502 C497 1.247 . S
O503 Cd492 2.439 . S
O503 C497 1.208 . S
O504 Cd505 2.223 . S
O504 C512 1.315 . S
Cd505 O504 2.223 . S
Cd505 O508 2.297 . S
Cd505 O509 2.439 . S
Cd505 O515 2.240 . S
Cd506 O507 2.240 . S
Cd506 O514 2.223 . S
Cd506 O516 2.297 . S
Cd506 O517 2.439 . S
O507 Cd506 2.240 . S
O507 C512 1.279 . S
O508 Cd505 2.297 . S
O508 C510 1.247 . S
O509 Cd505 2.439 . S
O509 C510 1.208 . S
C510 O508 1.247 . S
C510 O509 1.208 . S
C511 O516 1.247 . S
C511 O517 1.208 . S
C512 O504 1.315 . S
C512 O507 1.279 . S
C513 O514 1.315 . S
C513 O515 1.279 . S
O514 Cd506 2.223 . S
O514 C513 1.315 . S
O515 Cd505 2.240 . S
O515 C513 1.279 . S
O516 Cd506 2.297 . S
O516 C511 1.247 . S
O517 Cd506 2.439 . S
O517 C511 1.208 . S
O518 Cd519 2.223 . S
O518 C526 1.315 . S
Cd519 O518 2.223 . S
Cd519 O522 2.297 . S
Cd519 O523 2.439 . S
Cd519 O529 2.240 . S
Cd520 O521 2.240 . S
Cd520 O528 2.223 . S
Cd520 O530 2.297 . S
Cd520 O531 2.439 . S
O521 Cd520 2.240 . S
O521 C526 1.279 . S
O522 Cd519 2.297 . S
O522 C524 1.247 . S
O523 Cd519 2.439 . S
O523 C524 1.208 . S
C524 O522 1.247 . S
C524 O523 1.208 . S
C525 O530 1.247 . S
C525 O531 1.208 . S
C526 O518 1.315 . S
C526 O521 1.279 . S
C527 O528 1.315 . S
C527 O529 1.279 . S
O528 Cd520 2.223 . S
O528 C527 1.315 . S
O529 Cd519 2.240 . S
O529 C527 1.279 . S
O530 Cd520 2.297 . S
O530 C525 1.247 . S
O531 Cd520 2.439 . S
O531 C525 1.208 . S
O532 Cd533 2.223 . S
O532 C540 1.315 . S
Cd533 O532 2.223 . S
Cd533 O536 2.297 . S
Cd533 O537 2.439 . S
Cd533 O543 2.240 . S
Cd534 O535 2.240 . S
Cd534 O542 2.223 . S
Cd534 O544 2.297 . S
Cd534 O545 2.439 . S
O535 Cd534 2.240 . S
O535 C540 1.279 . S
O536 Cd533 2.297 . S
O536 C538 1.247 . S
O537 Cd533 2.439 . S
O537 C538 1.208 . S
C538 O536 1.247 . S
C538 O537 1.208 . S
C539 O544 1.247 . S
C539 O545 1.208 . S
C540 O532 1.315 . S
C540 O535 1.279 . S
C541 O542 1.315 . S
C541 O543 1.279 . S
O542 Cd534 2.223 . S
O542 C541 1.315 . S
O543 Cd533 2.240 . S
O543 C541 1.279 . S
O544 Cd534 2.297 . S
O544 C539 1.247 . S
O545 Cd534 2.439 . S
O545 C539 1.208 . S
O546 Cd547 2.223 . S
O546 C554 1.315 . S
Cd547 O546 2.223 . S
Cd547 O550 2.297 . S
Cd547 O551 2.439 . S
Cd547 O557 2.240 . S
Cd548 O549 2.240 . S
Cd548 O556 2.223 . S
Cd548 O558 2.297 . S
Cd548 O559 2.439 . S
O549 Cd548 2.240 . S
O549 C554 1.279 . S
O550 Cd547 2.297 . S
O550 C552 1.247 . S
O551 Cd547 2.439 . S
O551 C552 1.208 . S
C552 O550 1.247 . S
C552 O551 1.208 . S
C553 O558 1.247 . S
C553 O559 1.208 . S
C554 O546 1.315 . S
C554 O549 1.279 . S
C555 O556 1.315 . S
C555 O557 1.279 . S
O556 Cd548 2.223 . S
O556 C555 1.315 . S
O557 Cd547 2.240 . S
O557 C555 1.279 . S
O558 Cd548 2.297 . S
O558 C553 1.247 . S
O559 Cd548 2.439 . S
O559 C553 1.208 . S
O560 Cd561 2.223 . S
O560 C568 1.315 . S
Cd561 O560 2.223 . S
Cd561 O564 2.297 . S
Cd561 O565 2.439 . S
Cd561 O571 2.240 . S
Cd562 O563 2.240 . S
Cd562 O570 2.223 . S
Cd562 O572 2.297 . S
Cd562 O573 2.439 . S
O563 Cd562 2.240 . S
O563 C568 1.279 . S
O564 Cd561 2.297 . S
O564 C566 1.247 . S
O565 Cd561 2.439 . S
O565 C566 1.208 . S
C566 O564 1.247 . S
C566 O565 1.208 . S
C567 O572 1.247 . S
C567 O573 1.208 . S
C568 O560 1.315 . S
C568 O563 1.279 . S
C569 O570 1.315 . S
C569 O571 1.279 . S
O570 Cd562 2.223 . S
O570 C569 1.315 . S
O571 Cd561 2.240 . S
O571 C569 1.279 . S
O572 Cd562 2.297 . S
O572 C567 1.247 . S
O573 Cd562 2.439 . S
O573 C567 1.208 . S
O574 Cd575 2.223 . S
O574 C582 1.315 . S
Cd575 O574 2.223 . S
Cd575 O578 2.297 . S
Cd575 O579 2.439 . S
Cd575 O585 2.240 . S
Cd576 O577 2.240 . S
Cd576 O584 2.223 . S
Cd576 O586 2.297 . S
Cd576 O587 2.439 . S
O577 Cd576 2.240 . S
O577 C582 1.279 . S
O578 Cd575 2.297 . S
O578 C580 1.247 . S
O579 Cd575 2.439 . S
O579 C580 1.208 . S
C580 O578 1.247 . S
C580 O579 1.208 . S
C581 O586 1.247 . S
C581 O587 1.208 . S
C582 O574 1.315 . S
C582 O577 1.279 . S
C583 O584 1.315 . S
C583 O585 1.279 . S
O584 Cd576 2.223 . S
O584 C583 1.315 . S
O585 Cd575 2.240 . S
O585 C583 1.279 . S
O586 Cd576 2.297 . S
O586 C581 1.247 . S
O587 Cd576 2.439 . S
O587 C581 1.208 . S
O588 Cd589 2.223 . S
O588 C596 1.315 . S
Cd589 O588 2.223 . S
Cd589 O592 2.297 . S
Cd589 O593 2.439 . S
Cd589 O599 2.240 . S
Cd590 O591 2.240 . S
Cd590 O598 2.223 . S
Cd590 O600 2.297 . S
Cd590 O601 2.439 . S
O591 Cd590 2.240 . S
O591 C596 1.279 . S
O592 Cd589 2.297 . S
O592 C594 1.247 . S
O593 Cd589 2.439 . S
O593 C594 1.208 . S
C594 O592 1.247 . S
C594 O593 1.208 . S
C595 O600 1.247 . S
C595 O601 1.208 . S
C596 O588 1.315 . S
C596 O591 1.279 . S
C597 O598 1.315 . S
C597 O599 1.279 . S
O598 Cd590 2.223 . S
O598 C597 1.315 . S
O599 Cd589 2.240 . S
O599 C597 1.279 . S
O600 Cd590 2.297 . S
O600 C595 1.247 . S
O601 Cd590 2.439 . S
O601 C595 1.208 . S
O602 Cd603 2.223 . S
O602 C610 1.315 . S
Cd603 O602 2.223 . S
Cd603 O606 2.297 . S
Cd603 O607 2.439 . S
Cd603 O613 2.240 . S
Cd604 O605 2.240 . S
Cd604 O612 2.223 . S
Cd604 O614 2.297 . S
Cd604 O615 2.439 . S
O605 Cd604 2.240 . S
O605 C610 1.279 . S
O606 Cd603 2.297 . S
O606 C608 1.247 . S
O607 Cd603 2.439 . S
O607 C608 1.208 . S
C608 O606 1.247 . S
C608 O607 1.208 . S
C609 O614 1.247 . S
C609 O615 1.208 . S
C610 O602 1.315 . S
C610 O605 1.279 . S
C611 O612 1.315 . S
C611 O613 1.279 . S
O612 Cd604 2.223 . S
O612 C611 1.315 . S
O613 Cd603 2.240 . S
O613 C611 1.279 . S
O614 Cd604 2.297 . S
O614 C609 1.247 . S
O615 Cd604 2.439 . S
O615 C609 1.208 . S
O616 Cd617 2.223 . S
O616 C624 1.315 . S
Cd617 O616 2.223 . S
Cd617 O620 2.297 . S
Cd617 O621 2.439 . S
Cd617 O627 2.240 . S
Cd618 O619 2.240 . S
Cd618 O626 2.223 . S
Cd618 O628 2.297 . S
Cd618 O629 2.439 . S
O619 Cd618 2.240 . S
O619 C624 1.279 . S
O620 Cd617 2.297 . S
O620 C622 1.247 . S
O621 Cd617 2.439 . S
O621 C622 1.208 . S
C622 O620 1.247 . S
C622 O621 1.208 . S
C623 O628 1.247 . S
C623 O629 1.208 . S
C624 O616 1.315 . S
C624 O619 1.279 . S
C625 O626 1.315 . S
C625 O627 1.279 . S
O626 Cd618 2.223 . S
O626 C625 1.315 . S
O627 Cd617 2.240 . S
O627 C625 1.279 . S
O628 Cd618 2.297 . S
O628 C623 1.247 . S
O629 Cd618 2.439 . S
O629 C623 1.208 . S
O630 Cd631 2.223 . S
O630 C638 1.315 . S
Cd631 O630 2.223 . S
Cd631 O634 2.297 . S
Cd631 O635 2.439 . S
Cd631 O641 2.240 . S
Cd632 O633 2.240 . S
Cd632 O640 2.223 . S
Cd632 O642 2.297 . S
Cd632 O643 2.439 . S
O633 Cd632 2.240 . S
O633 C638 1.279 . S
O634 Cd631 2.297 . S
O634 C636 1.247 . S
O635 Cd631 2.439 . S
O635 C636 1.208 . S
C636 O634 1.247 . S
C636 O635 1.208 . S
C637 O642 1.247 . S
C637 O643 1.208 . S
C638 O630 1.315 . S
C638 O633 1.279 . S
C639 O640 1.315 . S
C639 O641 1.279 . S
O640 Cd632 2.223 . S
O640 C639 1.315 . S
O641 Cd631 2.240 . S
O641 C639 1.279 . S
O642 Cd632 2.297 . S
O642 C637 1.247 . S
O643 Cd632 2.439 . S
O643 C637 1.208 . S
O644 Cd645 2.223 . S
O644 C652 1.315 . S
Cd645 O644 2.223 . S
Cd645 O648 2.297 . S
Cd645 O649 2.439 . S
Cd645 O655 2.240 . S
Cd646 O647 2.240 . S
Cd646 O654 2.223 . S
Cd646 O656 2.297 . S
Cd646 O657 2.439 . S
O647 Cd646 2.240 . S
O647 C652 1.279 . S
O648 Cd645 2.297 . S
O648 C650 1.247 . S
O649 Cd645 2.439 . S
O649 C650 1.208 . S
C650 O648 1.247 . S
C650 O649 1.208 . S
C651 O656 1.247 . S
C651 O657 1.208 . S
C652 O644 1.315 . S
C652 O647 1.279 . S
C653 O654 1.315 . S
C653 O655 1.279 . S
O654 Cd646 2.223 . S
O654 C653 1.315 . S
O655 Cd645 2.240 . S
O655 C653 1.279 . S
O656 Cd646 2.297 . S
O656 C651 1.247 . S
O657 Cd646 2.439 . S
O657 C651 1.208 . S
O658 Cd659 2.223 . S
O658 C666 1.315 . S
Cd659 O658 2.223 . S
Cd659 O662 2.297 . S
Cd659 O663 2.439 . S
Cd659 O669 2.240 . S
Cd660 O661 2.240 . S
Cd660 O668 2.223 . S
Cd660 O670 2.297 . S
Cd660 O671 2.439 . S
O661 Cd660 2.240 . S
O661 C666 1.279 . S
O662 Cd659 2.297 . S
O662 C664 1.247 . S
O663 Cd659 2.439 . S
O663 C664 1.208 . S
C664 O662 1.247 . S
C664 O663 1.208 . S
C665 O670 1.247 . S
C665 O671 1.208 . S
C666 O658 1.315 . S
C666 O661 1.279 . S
C667 O668 1.315 . S
C667 O669 1.279 . S
O668 Cd660 2.223 . S
O668 C667 1.315 . S
O669 Cd659 2.240 . S
O669 C667 1.279 . S
O670 Cd660 2.297 . S
O670 C665 1.247 . S
O671 Cd660 2.439 . S
O671 C665 1.208 . S
H672 C678 0.930 . S
H673 C682 0.930 . S
H674 C687 0.929 . S
H675 C685 0.929 . S
H676 C680 0.929 . S
H677 C686 0.929 . S
C678 H672 0.930 . S
C678 C679 1.367 . S
C678 C686 1.378 . S
C679 C678 1.367 . S
C679 C687 1.433 . S
C680 H676 0.929 . S
C680 C682 1.378 . S
C680 C684 1.350 . S
C681 C684 1.463 . S
C681 C686 1.350 . S
C681 N689 1.427 . S
C682 H673 0.930 . S
C682 C680 1.378 . S
C682 C683 1.367 . S
C683 C682 1.367 . S
C683 C685 1.433 . S
C684 C680 1.350 . S
C684 C681 1.463 . S
C684 N688 1.427 . S
C685 H675 0.929 . S
C685 C683 1.433 . S
C685 N688 1.384 . S
C686 H677 0.929 . S
C686 C678 1.378 . S
C686 C681 1.350 . S
C687 H674 0.929 . S
C687 C679 1.433 . S
C687 N689 1.384 . S
N688 C684 1.427 . S
N688 C685 1.384 . S
N689 C681 1.427 . S
N689 C687 1.384 . S
H690 C696 0.930 . S
H691 C700 0.930 . S
H692 C705 0.929 . S
H693 C703 0.929 . S
H694 C698 0.929 . S
H695 C704 0.929 . S
C696 H690 0.930 . S
C696 C697 1.367 . S
C696 C704 1.378 . S
C697 C696 1.367 . S
C697 C705 1.433 . S
C698 H694 0.929 . S
C698 C700 1.378 . S
C698 C702 1.350 . S
C699 C702 1.463 1_455 S
C699 C704 1.350 . S
C699 N707 1.427 . S
C700 H691 0.930 . S
C700 C698 1.378 . S
C700 C701 1.367 . S
C701 C700 1.367 . S
C701 C703 1.433 . S
C702 C698 1.350 . S
C702 C699 1.463 1_655 S
C702 N706 1.427 . S
C703 H693 0.929 . S
C703 C701 1.433 . S
C703 N706 1.384 . S
C704 H695 0.929 . S
C704 C696 1.378 . S
C704 C699 1.350 . S
C705 H692 0.929 . S
C705 C697 1.433 . S
C705 N707 1.384 . S
N706 C702 1.427 . S
N706 C703 1.384 . S
N707 C699 1.427 . S
N707 C705 1.384 . S
H708 C714 0.930 . S
H709 C718 0.930 . S
H710 C723 0.929 . S
H711 C721 0.929 . S
H712 C716 0.929 . S
H713 C722 0.929 . S
C714 H708 0.930 . S
C714 C715 1.367 . S
C714 C722 1.378 . S
C715 C714 1.367 . S
C715 C723 1.433 . S
C716 H712 0.929 . S
C716 C718 1.378 . S
C716 C720 1.350 . S
C717 C720 1.463 . S
C717 C722 1.350 . S
C717 N725 1.427 . S
C718 H709 0.930 . S
C718 C716 1.378 . S
C718 C719 1.367 . S
C719 C718 1.367 . S
C719 C721 1.433 . S
C720 C716 1.350 . S
C720 C717 1.463 . S
C720 N724 1.427 . S
C721 H711 0.929 . S
C721 C719 1.433 . S
C721 N724 1.384 . S
C722 H713 0.929 . S
C722 C714 1.378 . S
C722 C717 1.350 . S
C723 H710 0.929 . S
C723 C715 1.433 . S
C723 N725 1.384 . S
N724 C720 1.427 . S
N724 C721 1.384 . S
N725 C717 1.427 . S
N725 C723 1.384 . S
H726 C732 0.930 . S
H727 C736 0.930 . S
H728 C741 0.929 . S
H729 C739 0.929 . S
H730 C734 0.929 . S
H731 C740 0.929 . S
C732 H726 0.930 . S
C732 C733 1.367 . S
C732 C740 1.378 . S
C733 C732 1.367 . S
C733 C741 1.433 . S
C734 H730 0.929 . S
C734 C736 1.378 . S
C734 C738 1.350 . S
C735 C738 1.463 . S
C735 C740 1.350 . S
C735 N743 1.427 . S
C736 H727 0.930 . S
C736 C734 1.378 . S
C736 C737 1.367 . S
C737 C736 1.367 . S
C737 C739 1.433 . S
C738 C734 1.350 . S
C738 C735 1.463 . S
C738 N742 1.427 . S
C739 H729 0.929 . S
C739 C737 1.433 . S
C739 N742 1.384 . S
C740 H731 0.929 . S
C740 C732 1.378 . S
C740 C735 1.350 . S
C741 H728 0.929 . S
C741 C733 1.433 . S
C741 N743 1.384 . S
N742 C738 1.427 . S
N742 C739 1.384 . S
N743 C735 1.427 . S
N743 C741 1.384 . S
H744 C750 0.930 . S
H745 C754 0.930 . S
H746 C759 0.929 . S
H747 C757 0.929 . S
H748 C752 0.929 . S
H749 C758 0.929 . S
C750 H744 0.930 . S
C750 C751 1.367 . S
C750 C758 1.378 . S
C751 C750 1.367 . S
C751 C759 1.433 . S
C752 H748 0.929 . S
C752 C754 1.378 . S
C752 C756 1.350 . S
C753 C756 1.463 . S
C753 C758 1.350 . S
C753 N761 1.427 . S
C754 H745 0.930 . S
C754 C752 1.378 . S
C754 C755 1.367 . S
C755 C754 1.367 . S
C755 C757 1.433 . S
C756 C752 1.350 . S
C756 C753 1.463 . S
C756 N760 1.427 . S
C757 H747 0.929 . S
C757 C755 1.433 . S
C757 N760 1.384 . S
C758 H749 0.929 . S
C758 C750 1.378 . S
C758 C753 1.350 . S
C759 H746 0.929 . S
C759 C751 1.433 . S
C759 N761 1.384 . S
N760 C756 1.427 . S
N760 C757 1.384 . S
N761 C753 1.427 . S
N761 C759 1.384 . S
H762 C768 0.930 . S
H763 C772 0.930 . S
H764 C777 0.929 . S
H765 C775 0.929 . S
H766 C770 0.929 . S
H767 C776 0.929 . S
C768 H762 0.930 . S
C768 C769 1.367 . S
C768 C776 1.378 . S
C769 C768 1.367 . S
C769 C777 1.433 . S
C770 H766 0.929 . S
C770 C772 1.378 . S
C770 C774 1.350 . S
C771 C774 1.463 . S
C771 C776 1.350 . S
C771 N779 1.427 . S
C772 H763 0.930 . S
C772 C770 1.378 . S
C772 C773 1.367 . S
C773 C772 1.367 . S
C773 C775 1.433 . S
C774 C770 1.350 . S
C774 C771 1.463 . S
C774 N778 1.427 . S
C775 H765 0.929 . S
C775 C773 1.433 . S
C775 N778 1.384 . S
C776 H767 0.929 . S
C776 C768 1.378 . S
C776 C771 1.350 . S
C777 H764 0.929 . S
C777 C769 1.433 . S
C777 N779 1.384 . S
N778 C774 1.427 . S
N778 C775 1.384 . S
N779 C771 1.427 . S
N779 C777 1.384 . S
H780 C786 0.930 . S
H781 C790 0.930 . S
H782 C795 0.929 . S
H783 C793 0.929 . S
H784 C788 0.929 . S
H785 C794 0.929 . S
C786 H780 0.930 . S
C786 C787 1.367 . S
C786 C794 1.378 . S
C787 C786 1.367 . S
C787 C795 1.433 . S
C788 H784 0.929 . S
C788 C790 1.378 . S
C788 C792 1.350 . S
C789 C792 1.463 . S
C789 C794 1.350 . S
C789 N797 1.427 . S
C790 H781 0.930 . S
C790 C788 1.378 . S
C790 C791 1.367 . S
C791 C790 1.367 . S
C791 C793 1.433 . S
C792 C788 1.350 . S
C792 C789 1.463 . S
C792 N796 1.427 . S
C793 H783 0.929 . S
C793 C791 1.433 . S
C793 N796 1.384 . S
C794 H785 0.929 . S
C794 C786 1.378 . S
C794 C789 1.350 . S
C795 H782 0.929 . S
C795 C787 1.433 . S
C795 N797 1.384 . S
N796 C792 1.427 . S
N796 C793 1.384 . S
N797 C789 1.427 . S
N797 C795 1.384 . S
H798 C804 0.930 . S
H799 C808 0.930 . S
H800 C813 0.929 . S
H801 C811 0.929 . S
H802 C806 0.929 . S
H803 C812 0.929 1_655 S
C804 H798 0.930 . S
C804 C805 1.367 . S
C804 C812 1.378 . S
C805 C804 1.367 . S
C805 C813 1.433 . S
C806 H802 0.929 . S
C806 C808 1.378 . S
C806 C810 1.350 . S
C807 C810 1.463 . S
C807 C812 1.350 1_655 S
C807 N815 1.419 1_655 S
C808 H799 0.930 . S
C808 C806 1.378 . S
C808 C809 1.367 . S
C809 C808 1.367 . S
C809 C811 1.433 . S
C810 C806 1.350 . S
C810 C807 1.463 . S
C810 N814 1.427 . S
C811 H801 0.929 . S
C811 C809 1.433 . S
C811 N814 1.384 . S
C812 H803 0.929 1_455 S
C812 C804 1.378 . S
C812 C807 1.350 1_455 S
C813 H800 0.929 . S
C813 C805 1.433 . S
C813 N815 1.405 . S
N814 C810 1.427 . S
N814 C811 1.384 . S
N815 C807 1.419 1_455 S
N815 C813 1.405 . S
H816 C822 0.930 . S
H817 C826 0.930 . S
H818 C831 0.929 . S
H819 C829 0.929 . S
H820 C824 0.929 . S
H821 C830 0.929 . S
C822 H816 0.930 . S
C822 C823 1.367 . S
C822 C830 1.378 . S
C823 C822 1.367 . S
C823 C831 1.433 . S
C824 H820 0.929 . S
C824 C826 1.378 . S
C824 C828 1.350 . S
C825 C828 1.463 . S
C825 C830 1.350 . S
C825 N833 1.427 . S
C826 H817 0.930 . S
C826 C824 1.378 . S
C826 C827 1.367 . S
C827 C826 1.367 . S
C827 C829 1.433 . S
C828 C824 1.350 . S
C828 C825 1.463 . S
C828 N832 1.427 . S
C829 H819 0.929 . S
C829 C827 1.433 . S
C829 N832 1.384 . S
C830 H821 0.929 . S
C830 C822 1.378 . S
C830 C825 1.350 . S
C831 H818 0.929 . S
C831 C823 1.433 . S
C831 N833 1.384 . S
N832 C828 1.427 . S
N832 C829 1.384 . S
N833 C825 1.427 . S
N833 C831 1.384 . S
H834 C840 0.930 . S
H835 C844 0.930 . S
H836 C849 0.929 . S
H837 C847 0.929 . S
H838 C842 0.929 . S
H839 C848 0.929 . S
C840 H834 0.930 . S
C840 C841 1.367 . S
C840 C848 1.378 . S
C841 C840 1.367 . S
C841 C849 1.433 . S
C842 H838 0.929 . S
C842 C844 1.378 . S
C842 C846 1.350 . S
C843 C846 1.463 . S
C843 C848 1.350 . S
C843 N851 1.427 . S
C844 H835 0.930 . S
C844 C842 1.378 . S
C844 C845 1.367 . S
C845 C844 1.367 . S
C845 C847 1.433 . S
C846 C842 1.350 . S
C846 C843 1.463 . S
C846 N850 1.427 . S
C847 H837 0.929 . S
C847 C845 1.433 . S
C847 N850 1.384 . S
C848 H839 0.929 . S
C848 C840 1.378 . S
C848 C843 1.350 . S
C849 H836 0.929 . S
C849 C841 1.433 . S
C849 N851 1.384 . S
N850 C846 1.427 . S
N850 C847 1.384 . S
N851 C843 1.427 . S
N851 C849 1.384 . S
H852 C858 0.930 . S
H853 C862 0.930 . S
H854 C867 0.929 . S
H855 C865 0.929 . S
H856 C860 0.929 . S
H857 C866 0.929 . S
C858 H852 0.930 . S
C858 C859 1.367 . S
C858 C866 1.378 . S
C859 C858 1.367 . S
C859 C867 1.433 . S
C860 H856 0.929 . S
C860 C862 1.378 . S
C860 C864 1.350 . S
C861 C864 1.463 . S
C861 C866 1.350 . S
C861 N869 1.427 . S
C862 H853 0.930 . S
C862 C860 1.378 . S
C862 C863 1.367 . S
C863 C862 1.367 . S
C863 C865 1.433 . S
C864 C860 1.350 . S
C864 C861 1.463 . S
C864 N868 1.427 . S
C865 H855 0.929 . S
C865 C863 1.433 . S
C865 N868 1.384 . S
C866 H857 0.929 . S
C866 C858 1.378 . S
C866 C861 1.350 . S
C867 H854 0.929 . S
C867 C859 1.433 . S
C867 N869 1.384 . S
N868 C864 1.427 . S
N868 C865 1.384 . S
N869 C861 1.427 . S
N869 C867 1.384 . S
H870 C876 0.930 . S
H871 C880 0.930 . S
H872 C885 0.929 . S
H873 C883 0.929 . S
H874 C878 0.929 . S
H875 C884 0.929 . S
C876 H870 0.930 . S
C876 C877 1.367 . S
C876 C884 1.378 . S
C877 C876 1.367 . S
C877 C885 1.433 . S
C878 H874 0.929 . S
C878 C880 1.378 . S
C878 C882 1.350 . S
C879 C882 1.463 1_556 S
C879 C884 1.350 . S
C879 N887 1.427 . S
C880 H871 0.930 . S
C880 C878 1.378 . S
C880 C881 1.367 . S
C881 C880 1.367 . S
C881 C883 1.433 . S
C882 C878 1.350 . S
C882 C879 1.463 1_554 S
C882 N886 1.427 . S
C883 H873 0.929 . S
C883 C881 1.433 . S
C883 N886 1.384 . S
C884 H875 0.929 . S
C884 C876 1.378 . S
C884 C879 1.350 . S
C885 H872 0.929 . S
C885 C877 1.433 . S
C885 N887 1.384 . S
N886 C882 1.427 . S
N886 C883 1.384 . S
N887 C879 1.427 . S
N887 C885 1.384 . S
H888 C894 0.930 . S
H889 C898 0.930 . S
H890 C903 0.929 . S
H891 C901 0.929 . S
H892 C896 0.929 . S
H893 C902 0.929 . S
C894 H888 0.930 . S
C894 C895 1.367 . S
C894 C902 1.378 . S
C895 C894 1.367 . S
C895 C903 1.433 . S
C896 H892 0.929 . S
C896 C898 1.378 . S
C896 C900 1.350 . S
C897 C900 1.463 . S
C897 C902 1.350 . S
C897 N905 1.427 . S
C898 H889 0.930 . S
C898 C896 1.378 . S
C898 C899 1.367 . S
C899 C898 1.367 . S
C899 C901 1.433 . S
C900 C896 1.350 . S
C900 C897 1.463 . S
C900 N904 1.427 . S
C901 H891 0.929 . S
C901 C899 1.433 . S
C901 N904 1.384 . S
C902 H893 0.929 . S
C902 C894 1.378 . S
C902 C897 1.350 . S
C903 H890 0.929 . S
C903 C895 1.433 . S
C903 N905 1.384 . S
N904 C900 1.427 . S
N904 C901 1.384 . S
N905 C897 1.427 . S
N905 C903 1.384 . S
H906 C912 0.930 . S
H907 C916 0.930 . S
H908 C921 0.929 . S
H909 C919 0.929 . S
H910 C914 0.929 . S
H911 C920 0.929 . S
C912 H906 0.930 . S
C912 C913 1.367 . S
C912 C920 1.378 . S
C913 C912 1.367 . S
C913 C921 1.433 . S
C914 H910 0.929 . S
C914 C916 1.378 . S
C914 C918 1.350 . S
C915 C918 1.463 . S
C915 C920 1.350 . S
C915 N923 1.427 . S
C916 H907 0.930 . S
C916 C914 1.378 . S
C916 C917 1.367 . S
C917 C916 1.367 . S
C917 C919 1.433 . S
C918 C914 1.350 . S
C918 C915 1.463 . S
C918 N922 1.427 . S
C919 H909 0.929 . S
C919 C917 1.433 . S
C919 N922 1.384 . S
C920 H911 0.929 . S
C920 C912 1.378 . S
C920 C915 1.350 . S
C921 H908 0.929 . S
C921 C913 1.433 . S
C921 N923 1.384 . S
N922 C918 1.427 . S
N922 C919 1.384 . S
N923 C915 1.427 . S
N923 C921 1.384 . S
H924 C930 0.930 . S
H925 C934 0.930 . S
H926 C939 0.929 . S
H927 C937 0.929 . S
H928 C932 0.929 . S
H929 C938 0.929 . S
C930 H924 0.930 . S
C930 C931 1.367 . S
C930 C938 1.378 . S
C931 C930 1.367 . S
C931 C939 1.433 . S
C932 H928 0.929 . S
C932 C934 1.378 . S
C932 C936 1.350 . S
C933 C936 1.463 . S
C933 C938 1.350 . S
C933 N941 1.427 . S
C934 H925 0.930 . S
C934 C932 1.378 . S
C934 C935 1.367 . S
C935 C934 1.367 . S
C935 C937 1.433 . S
C936 C932 1.350 . S
C936 C933 1.463 . S
C936 N940 1.427 . S
C937 H927 0.929 . S
C937 C935 1.433 . S
C937 N940 1.384 . S
C938 H929 0.929 . S
C938 C930 1.378 . S
C938 C933 1.350 . S
C939 H926 0.929 . S
C939 C931 1.433 . S
C939 N941 1.384 . S
N940 C936 1.427 . S
N940 C937 1.384 . S
N941 C933 1.427 . S
N941 C939 1.384 . S
H942 C948 0.930 . S
H943 C952 0.930 . S
H944 C957 0.929 . S
H945 C955 0.929 . S
H946 C950 0.929 . S
H947 C956 0.929 . S
C948 H942 0.930 . S
C948 C949 1.367 . S
C948 C956 1.378 . S
C949 C948 1.367 . S
C949 C957 1.433 . S
C950 H946 0.929 . S
C950 C952 1.378 . S
C950 C954 1.350 . S
C951 C954 1.463 1_554 S
C951 C956 1.350 . S
C951 N959 1.427 . S
C952 H943 0.930 . S
C952 C950 1.378 . S
C952 C953 1.367 . S
C953 C952 1.367 . S
C953 C955 1.433 . S
C954 C950 1.350 . S
C954 C951 1.463 1_556 S
C954 N958 1.427 . S
C955 H945 0.929 . S
C955 C953 1.433 . S
C955 N958 1.384 . S
C956 H947 0.929 . S
C956 C948 1.378 . S
C956 C951 1.350 . S
C957 H944 0.929 . S
C957 C949 1.433 . S
C957 N959 1.384 . S
N958 C954 1.427 . S
N958 C955 1.384 . S
N959 C951 1.427 . S
N959 C957 1.384 . S
H960 C966 0.930 . S
H961 C970 0.930 . S
H962 C975 0.929 . S
H963 C973 0.929 . S
H964 C968 0.929 . S
H965 C974 0.929 . S
C966 H960 0.930 . S
C966 C967 1.367 . S
C966 C974 1.378 . S
C967 C966 1.367 . S
C967 C975 1.433 . S
C968 H964 0.929 . S
C968 C970 1.378 . S
C968 C972 1.350 . S
C969 C972 1.463 . S
C969 C974 1.350 . S
C969 N977 1.427 . S
C970 H961 0.930 . S
C970 C968 1.378 . S
C970 C971 1.367 . S
C971 C970 1.367 . S
C971 C973 1.433 . S
C972 C968 1.350 . S
C972 C969 1.463 . S
C972 N976 1.427 . S
C973 H963 0.929 . S
C973 C971 1.433 . S
C973 N976 1.384 . S
C974 H965 0.929 . S
C974 C966 1.378 . S
C974 C969 1.350 . S
C975 H962 0.929 . S
C975 C967 1.433 . S
C975 N977 1.384 . S
N976 C972 1.427 . S
N976 C973 1.384 . S
N977 C969 1.427 . S
N977 C975 1.384 . S
H978 C984 0.930 . S
H979 C988 0.930 . S
H980 C993 0.929 . S
H981 C991 0.929 . S
H982 C986 0.929 . S
H983 C992 0.929 . S
C984 H978 0.930 . S
C984 C985 1.367 . S
C984 C992 1.378 . S
C985 C984 1.367 . S
C985 C993 1.433 . S
C986 H982 0.929 . S
C986 C988 1.378 . S
C986 C990 1.350 . S
C987 C990 1.463 . S
C987 C992 1.350 . S
C987 N995 1.427 . S
C988 H979 0.930 . S
C988 C986 1.378 . S
C988 C989 1.367 . S
C989 C988 1.367 . S
C989 C991 1.433 . S
C990 C986 1.350 . S
C990 C987 1.463 . S
C990 N994 1.427 . S
C991 H981 0.929 . S
C991 C989 1.433 . S
C991 N994 1.384 . S
C992 H983 0.929 . S
C992 C984 1.378 . S
C992 C987 1.350 . S
C993 H980 0.929 . S
C993 C985 1.433 . S
C993 N995 1.384 . S
N994 C990 1.427 . S
N994 C991 1.384 . S
N995 C987 1.427 . S
N995 C993 1.384 . S
H996 C1002 0.930 . S
H997 C1006 0.930 . S
H998 C1011 0.929 . S
H999 C1009 0.929 . S
H1000 C1004 0.929 . S
H1001 C1010 0.929 . S
C1002 H996 0.930 . S
C1002 C1003 1.367 . S
C1002 C1010 1.378 . S
C1003 C1002 1.367 . S
C1003 C1011 1.433 . S
C1004 H1000 0.929 . S
C1004 C1006 1.378 . S
C1004 C1008 1.350 . S
C1005 C1008 1.463 . S
C1005 C1010 1.350 . S
C1005 N1013 1.427 . S
C1006 H997 0.930 . S
C1006 C1004 1.378 . S
C1006 C1007 1.367 . S
C1007 C1006 1.367 . S
C1007 C1009 1.433 . S
C1008 C1004 1.350 . S
C1008 C1005 1.463 . S
C1008 N1012 1.427 . S
C1009 H999 0.929 . S
C1009 C1007 1.433 . S
C1009 N1012 1.384 . S
C1010 H1001 0.929 . S
C1010 C1002 1.378 . S
C1010 C1005 1.350 . S
C1011 H998 0.929 . S
C1011 C1003 1.433 . S
C1011 N1013 1.384 . S
N1012 C1008 1.427 . S
N1012 C1009 1.384 . S
N1013 C1005 1.427 . S
N1013 C1011 1.384 . S
H1014 C1020 0.930 . S
H1015 C1024 0.930 . S
H1016 C1029 0.929 . S
H1017 C1027 0.929 . S
H1018 C1022 0.929 . S
H1019 C1028 0.929 . S
C1020 H1014 0.930 . S
C1020 C1021 1.367 . S
C1020 C1028 1.378 . S
C1021 C1020 1.367 . S
C1021 C1029 1.433 . S
C1022 H1018 0.929 . S
C1022 C1024 1.378 . S
C1022 C1026 1.350 . S
C1023 C1026 1.463 . S
C1023 C1028 1.350 . S
C1023 N1031 1.427 . S
C1024 H1015 0.930 . S
C1024 C1022 1.378 . S
C1024 C1025 1.367 . S
C1025 C1024 1.367 . S
C1025 C1027 1.433 . S
C1026 C1022 1.350 . S
C1026 C1023 1.463 . S
C1026 N1030 1.427 . S
C1027 H1017 0.929 . S
C1027 C1025 1.433 . S
C1027 N1030 1.384 . S
C1028 H1019 0.929 . S
C1028 C1020 1.378 . S
C1028 C1023 1.350 . S
C1029 H1016 0.929 . S
C1029 C1021 1.433 . S
C1029 N1031 1.384 . S
N1030 C1026 1.427 . S
N1030 C1027 1.384 . S
N1031 C1023 1.427 . S
N1031 C1029 1.384 . S
H1032 C1038 0.930 . S
H1033 C1042 0.930 . S
H1034 C1047 0.929 . S
H1035 C1045 0.929 . S
H1036 C1040 0.929 . S
H1037 C1046 0.929 . S
C1038 H1032 0.930 . S
C1038 C1039 1.367 . S
C1038 C1046 1.378 . S
C1039 C1038 1.367 . S
C1039 C1047 1.433 . S
C1040 H1036 0.929 . S
C1040 C1042 1.378 1_565 S
C1040 C1044 1.350 . S
C1041 C1044 1.463 . S
C1041 C1046 1.350 . S
C1041 N1049 1.427 . S
C1042 H1033 0.930 . S
C1042 C1040 1.378 1_545 S
C1042 C1043 1.367 . S
C1043 C1042 1.367 . S
C1043 C1045 1.433 . S
C1044 C1040 1.350 . S
C1044 C1041 1.463 . S
C1044 N1048 1.427 . S
C1045 H1035 0.929 . S
C1045 C1043 1.433 . S
C1045 N1048 1.384 1_545 S
C1046 H1037 0.929 . S
C1046 C1038 1.378 . S
C1046 C1041 1.350 . S
C1047 H1034 0.929 . S
C1047 C1039 1.433 . S
C1047 N1049 1.384 . S
N1048 C1044 1.427 . S
N1048 C1045 1.384 1_565 S
N1049 C1041 1.427 . S
N1049 C1047 1.384 . S
H1050 C1056 0.930 . S
H1051 C1060 0.930 . S
H1052 C1065 0.929 . S
H1053 C1063 0.929 . S
H1054 C1058 0.929 . S
H1055 C1064 0.929 . S
C1056 H1050 0.930 . S
C1056 C1057 1.367 . S
C1056 C1064 1.378 . S
C1057 C1056 1.367 . S
C1057 C1065 1.433 . S
C1058 H1054 0.929 . S
C1058 C1060 1.378 . S
C1058 C1062 1.350 . S
C1059 C1062 1.463 . S
C1059 C1064 1.350 . S
C1059 N1067 1.427 . S
C1060 H1051 0.930 . S
C1060 C1058 1.378 . S
C1060 C1061 1.367 . S
C1061 C1060 1.367 . S
C1061 C1063 1.433 . S
C1062 C1058 1.350 . S
C1062 C1059 1.463 . S
C1062 N1066 1.427 . S
C1063 H1053 0.929 . S
C1063 C1061 1.433 . S
C1063 N1066 1.384 . S
C1064 H1055 0.929 . S
C1064 C1056 1.378 . S
C1064 C1059 1.350 . S
C1065 H1052 0.929 . S
C1065 C1057 1.433 . S
C1065 N1067 1.384 . S
N1066 C1062 1.427 . S
N1066 C1063 1.384 . S
N1067 C1059 1.427 . S
N1067 C1065 1.384 . S
H1068 C1074 0.930 . S
H1069 C1078 0.930 . S
H1070 C1083 0.929 . S
H1071 C1081 0.929 . S
H1072 C1076 0.929 . S
H1073 C1082 0.929 . S
C1074 H1068 0.930 . S
C1074 C1075 1.367 . S
C1074 C1082 1.378 . S
C1075 C1074 1.367 . S
C1075 C1083 1.433 . S
C1076 H1072 0.929 . S
C1076 C1078 1.378 . S
C1076 C1080 1.350 . S
C1077 C1080 1.463 . S
C1077 C1082 1.350 . S
C1077 N1085 1.427 . S
C1078 H1069 0.930 . S
C1078 C1076 1.378 . S
C1078 C1079 1.367 . S
C1079 C1078 1.367 . S
C1079 C1081 1.433 . S
C1080 C1076 1.350 . S
C1080 C1077 1.463 . S
C1080 N1084 1.427 . S
C1081 H1071 0.929 . S
C1081 C1079 1.433 . S
C1081 N1084 1.384 . S
C1082 H1073 0.929 . S
C1082 C1074 1.378 . S
C1082 C1077 1.350 . S
C1083 H1070 0.929 . S
C1083 C1075 1.433 . S
C1083 N1085 1.384 . S
N1084 C1080 1.427 . S
N1084 C1081 1.384 . S
N1085 C1077 1.427 . S
N1085 C1083 1.384 . S
H1086 C1092 0.930 . S
H1087 C1096 0.930 . S
H1088 C1101 0.929 . S
H1089 C1099 0.929 . S
H1090 C1094 0.929 . S
H1091 C1100 0.929 . S
C1092 H1086 0.930 . S
C1092 C1093 1.367 . S
C1092 C1100 1.378 . S
C1093 C1092 1.367 . S
C1093 C1101 1.433 . S
C1094 H1090 0.929 . S
C1094 C1096 1.378 . S
C1094 C1098 1.350 . S
C1095 C1098 1.463 . S
C1095 C1100 1.350 . S
C1095 N1103 1.427 . S
C1096 H1087 0.930 . S
C1096 C1094 1.378 . S
C1096 C1097 1.367 . S
C1097 C1096 1.367 . S
C1097 C1099 1.433 . S
C1098 C1094 1.350 . S
C1098 C1095 1.463 . S
C1098 N1102 1.427 . S
C1099 H1089 0.929 . S
C1099 C1097 1.433 . S
C1099 N1102 1.384 . S
C1100 H1091 0.929 . S
C1100 C1092 1.378 . S
C1100 C1095 1.350 . S
C1101 H1088 0.929 . S
C1101 C1093 1.433 . S
C1101 N1103 1.384 . S
N1102 C1098 1.427 . S
N1102 C1099 1.384 . S
N1103 C1095 1.427 . S
N1103 C1101 1.384 . S
H1104 C1110 0.930 . S
H1105 C1114 0.930 . S
H1106 C1119 0.929 . S
H1107 C1117 0.929 . S
H1108 C1112 0.929 . S
H1109 C1118 0.929 . S
C1110 H1104 0.930 . S
C1110 C1111 1.367 . S
C1110 C1118 1.378 . S
C1111 C1110 1.367 . S
C1111 C1119 1.433 . S
C1112 H1108 0.929 . S
C1112 C1114 1.378 . S
C1112 C1116 1.350 . S
C1113 C1116 1.463 . S
C1113 C1118 1.350 . S
C1113 N1121 1.427 . S
C1114 H1105 0.930 . S
C1114 C1112 1.378 . S
C1114 C1115 1.367 . S
C1115 C1114 1.367 . S
C1115 C1117 1.433 . S
C1116 C1112 1.350 . S
C1116 C1113 1.463 . S
C1116 N1120 1.427 . S
C1117 H1107 0.929 . S
C1117 C1115 1.433 . S
C1117 N1120 1.384 . S
C1118 H1109 0.929 . S
C1118 C1110 1.378 . S
C1118 C1113 1.350 . S
C1119 H1106 0.929 . S
C1119 C1111 1.433 . S
C1119 N1121 1.384 . S
N1120 C1116 1.427 . S
N1120 C1117 1.384 . S
N1121 C1113 1.427 . S
N1121 C1119 1.384 . S
H1122 C1128 0.930 . S
H1123 C1132 0.930 . S
H1124 C1137 0.929 . S
H1125 C1135 0.929 . S
H1126 C1130 0.929 . S
H1127 C1136 0.929 . S
C1128 H1122 0.930 . S
C1128 C1129 1.367 . S
C1128 C1136 1.378 . S
C1129 C1128 1.367 . S
C1129 C1137 1.433 . S
C1130 H1126 0.929 . S
C1130 C1132 1.378 . S
C1130 C1134 1.350 . S
C1131 C1134 1.463 1_655 S
C1131 C1136 1.350 . S
C1131 N1139 1.427 . S
C1132 H1123 0.930 . S
C1132 C1130 1.378 . S
C1132 C1133 1.367 . S
C1133 C1132 1.367 . S
C1133 C1135 1.433 . S
C1134 C1130 1.350 . S
C1134 C1131 1.463 1_455 S
C1134 N1138 1.427 . S
C1135 H1125 0.929 . S
C1135 C1133 1.433 . S
C1135 N1138 1.384 . S
C1136 H1127 0.929 . S
C1136 C1128 1.378 . S
C1136 C1131 1.350 . S
C1137 H1124 0.929 . S
C1137 C1129 1.433 . S
C1137 N1139 1.384 . S
N1138 C1134 1.427 . S
N1138 C1135 1.384 . S
N1139 C1131 1.427 . S
N1139 C1137 1.384 . S
H1140 C1146 0.930 . S
H1141 C1150 0.930 . S
H1142 C1155 0.929 . S
H1143 C1153 0.929 . S
H1144 C1148 0.929 . S
H1145 C1154 0.929 . S
C1146 H1140 0.930 . S
C1146 C1147 1.367 . S
C1146 C1154 1.378 . S
C1147 C1146 1.367 . S
C1147 C1155 1.433 . S
C1148 H1144 0.929 . S
C1148 C1150 1.378 . S
C1148 C1152 1.350 . S
C1149 C1152 1.463 . S
C1149 C1154 1.350 . S
C1149 N1157 1.427 . S
C1150 H1141 0.930 . S
C1150 C1148 1.378 . S
C1150 C1151 1.367 . S
C1151 C1150 1.367 . S
C1151 C1153 1.433 . S
C1152 C1148 1.350 . S
C1152 C1149 1.463 . S
C1152 N1156 1.427 . S
C1153 H1143 0.929 . S
C1153 C1151 1.433 . S
C1153 N1156 1.384 . S
C1154 H1145 0.929 . S
C1154 C1146 1.378 . S
C1154 C1149 1.350 . S
C1155 H1142 0.929 . S
C1155 C1147 1.433 . S
C1155 N1157 1.384 . S
N1156 C1152 1.427 . S
N1156 C1153 1.384 . S
N1157 C1149 1.427 . S
N1157 C1155 1.384 . S
H1158 C1164 0.930 . S
H1159 C1168 0.930 . S
H1160 C1173 0.929 . S
H1161 C1171 0.929 . S
H1162 C1166 0.929 . S
H1163 C1172 0.929 . S
C1164 H1158 0.930 . S
C1164 C1165 1.367 . S
C1164 C1172 1.378 . S
C1165 C1164 1.367 . S
C1165 C1173 1.433 . S
C1166 H1162 0.929 . S
C1166 C1168 1.378 . S
C1166 C1170 1.350 . S
C1167 C1170 1.463 . S
C1167 C1172 1.350 . S
C1167 N1175 1.427 . S
C1168 H1159 0.930 . S
C1168 C1166 1.378 . S
C1168 C1169 1.367 . S
C1169 C1168 1.367 . S
C1169 C1171 1.433 . S
C1170 C1166 1.350 . S
C1170 C1167 1.463 . S
C1170 N1174 1.427 . S
C1171 H1161 0.929 . S
C1171 C1169 1.433 . S
C1171 N1174 1.384 . S
C1172 H1163 0.929 . S
C1172 C1164 1.378 . S
C1172 C1167 1.350 . S
C1173 H1160 0.929 . S
C1173 C1165 1.433 . S
C1173 N1175 1.384 . S
N1174 C1170 1.427 . S
N1174 C1171 1.384 . S
N1175 C1167 1.427 . S
N1175 C1173 1.384 . S
H1176 C1182 0.930 . S
H1177 C1186 0.930 . S
H1178 C1191 0.929 . S
H1179 C1189 0.929 . S
H1180 C1184 0.929 . S
H1181 C1190 0.929 . S
C1182 H1176 0.930 . S
C1182 C1183 1.367 . S
C1182 C1190 1.378 . S
C1183 C1182 1.367 . S
C1183 C1191 1.433 . S
C1184 H1180 0.929 . S
C1184 C1186 1.378 . S
C1184 C1188 1.350 . S
C1185 C1188 1.463 . S
C1185 C1190 1.350 . S
C1185 N1193 1.427 . S
C1186 H1177 0.930 . S
C1186 C1184 1.378 . S
C1186 C1187 1.367 . S
C1187 C1186 1.367 . S
C1187 C1189 1.433 . S
C1188 C1184 1.350 . S
C1188 C1185 1.463 . S
C1188 N1192 1.427 . S
C1189 H1179 0.929 . S
C1189 C1187 1.433 . S
C1189 N1192 1.384 . S
C1190 H1181 0.929 . S
C1190 C1182 1.378 . S
C1190 C1185 1.350 . S
C1191 H1178 0.929 . S
C1191 C1183 1.433 . S
C1191 N1193 1.384 . S
N1192 C1188 1.427 . S
N1192 C1189 1.384 . S
N1193 C1185 1.427 . S
N1193 C1191 1.384 . S
H1194 C1200 0.930 . S
H1195 C1204 0.930 . S
H1196 C1209 0.929 . S
H1197 C1207 0.929 . S
H1198 C1202 0.929 . S
H1199 C1208 0.929 . S
C1200 H1194 0.930 . S
C1200 C1201 1.367 . S
C1200 C1208 1.378 . S
C1201 C1200 1.367 . S
C1201 C1209 1.433 . S
C1202 H1198 0.929 . S
C1202 C1204 1.378 . S
C1202 C1206 1.350 . S
C1203 C1206 1.463 . S
C1203 C1208 1.350 . S
C1203 N1211 1.427 . S
C1204 H1195 0.930 . S
C1204 C1202 1.378 . S
C1204 C1205 1.367 . S
C1205 C1204 1.367 . S
C1205 C1207 1.433 . S
C1206 C1202 1.350 . S
C1206 C1203 1.463 . S
C1206 N1210 1.427 . S
C1207 H1197 0.929 . S
C1207 C1205 1.433 . S
C1207 N1210 1.384 . S
C1208 H1199 0.929 . S
C1208 C1200 1.378 . S
C1208 C1203 1.350 . S
C1209 H1196 0.929 . S
C1209 C1201 1.433 . S
C1209 N1211 1.384 . S
N1210 C1206 1.427 . S
N1210 C1207 1.384 . S
N1211 C1203 1.427 . S
N1211 C1209 1.384 . S
H1212 C1218 0.930 . S
H1213 C1222 0.930 . S
H1214 C1227 0.929 . S
H1215 C1225 0.929 . S
H1216 C1220 0.929 . S
H1217 C1226 0.929 . S
C1218 H1212 0.930 . S
C1218 C1219 1.367 . S
C1218 C1226 1.378 . S
C1219 C1218 1.367 . S
C1219 C1227 1.433 . S
C1220 H1216 0.929 . S
C1220 C1222 1.378 . S
C1220 C1224 1.350 . S
C1221 C1224 1.463 . S
C1221 C1226 1.350 . S
C1221 N1229 1.427 . S
C1222 H1213 0.930 . S
C1222 C1220 1.378 . S
C1222 C1223 1.367 . S
C1223 C1222 1.367 . S
C1223 C1225 1.433 . S
C1224 C1220 1.350 . S
C1224 C1221 1.463 . S
C1224 N1228 1.427 . S
C1225 H1215 0.929 . S
C1225 C1223 1.433 . S
C1225 N1228 1.384 . S
C1226 H1217 0.929 . S
C1226 C1218 1.378 . S
C1226 C1221 1.350 . S
C1227 H1214 0.929 . S
C1227 C1219 1.433 . S
C1227 N1229 1.384 . S
N1228 C1224 1.427 . S
N1228 C1225 1.384 . S
N1229 C1221 1.427 . S
N1229 C1227 1.384 . S
H1230 C1236 0.930 . S
H1231 C1240 0.930 . S
H1232 C1245 0.929 . S
H1233 C1243 0.929 . S
H1234 C1238 0.928 1_455 S
H1235 C1244 0.929 . S
C1236 H1230 0.930 . S
C1236 C1237 1.367 . S
C1236 C1244 1.378 . S
C1237 C1236 1.367 . S
C1237 C1245 1.433 . S
C1238 H1234 0.928 1_655 S
C1238 C1240 1.380 . S
C1238 C1242 1.349 1_655 S
C1239 C1242 1.463 . S
C1239 C1244 1.350 . S
C1239 N1247 1.427 . S
C1240 H1231 0.930 . S
C1240 C1238 1.380 . S
C1240 C1241 1.367 . S
C1241 C1240 1.367 . S
C1241 C1243 1.433 . S
C1242 C1238 1.349 1_455 S
C1242 C1239 1.463 . S
C1242 N1246 1.427 . S
C1243 H1233 0.929 . S
C1243 C1241 1.433 . S
C1243 N1246 1.384 1_655 S
C1244 H1235 0.929 . S
C1244 C1236 1.378 . S
C1244 C1239 1.350 . S
C1245 H1232 0.929 . S
C1245 C1237 1.433 . S
C1245 N1247 1.384 . S
N1246 C1242 1.427 . S
N1246 C1243 1.384 1_455 S
N1247 C1239 1.427 . S
N1247 C1245 1.384 . S
H1248 C1254 0.930 . S
H1249 C1258 0.930 . S
H1250 C1263 0.929 . S
H1251 C1261 0.929 . S
H1252 C1256 0.929 . S
H1253 C1262 0.929 . S
C1254 H1248 0.930 . S
C1254 C1255 1.367 . S
C1254 C1262 1.378 . S
C1255 C1254 1.367 . S
C1255 C1263 1.433 . S
C1256 H1252 0.929 . S
C1256 C1258 1.378 . S
C1256 C1260 1.350 . S
C1257 C1260 1.463 . S
C1257 C1262 1.350 . S
C1257 N1265 1.427 . S
C1258 H1249 0.930 . S
C1258 C1256 1.378 . S
C1258 C1259 1.367 . S
C1259 C1258 1.367 . S
C1259 C1261 1.433 . S
C1260 C1256 1.350 . S
C1260 C1257 1.463 . S
C1260 N1264 1.427 . S
C1261 H1251 0.929 . S
C1261 C1259 1.433 . S
C1261 N1264 1.384 . S
C1262 H1253 0.929 . S
C1262 C1254 1.378 . S
C1262 C1257 1.350 . S
C1263 H1250 0.929 . S
C1263 C1255 1.433 . S
C1263 N1265 1.384 . S
N1264 C1260 1.427 . S
N1264 C1261 1.384 . S
N1265 C1257 1.427 . S
N1265 C1263 1.384 . S
H1266 C1272 0.930 . S
H1267 C1276 0.930 . S
H1268 C1281 0.929 . S
H1269 C1279 0.929 . S
H1270 C1274 0.929 . S
H1271 C1280 0.929 . S
C1272 H1266 0.930 . S
C1272 C1273 1.367 . S
C1272 C1280 1.378 . S
C1273 C1272 1.367 . S
C1273 C1281 1.433 . S
C1274 H1270 0.929 . S
C1274 C1276 1.378 . S
C1274 C1278 1.350 . S
C1275 C1278 1.463 . S
C1275 C1280 1.350 . S
C1275 N1283 1.427 . S
C1276 H1267 0.930 . S
C1276 C1274 1.378 . S
C1276 C1277 1.367 . S
C1277 C1276 1.367 . S
C1277 C1279 1.433 . S
C1278 C1274 1.350 . S
C1278 C1275 1.463 . S
C1278 N1282 1.427 . S
C1279 H1269 0.929 . S
C1279 C1277 1.433 . S
C1279 N1282 1.384 . S
C1280 H1271 0.929 . S
C1280 C1272 1.378 . S
C1280 C1275 1.350 . S
C1281 H1268 0.929 . S
C1281 C1273 1.433 . S
C1281 N1283 1.384 . S
N1282 C1278 1.427 . S
N1282 C1279 1.384 . S
N1283 C1275 1.427 . S
N1283 C1281 1.384 . S
H1284 C1290 0.930 . S
H1285 C1294 0.930 . S
H1286 C1299 0.929 . S
H1287 C1297 0.929 . S
H1288 C1292 0.929 . S
H1289 C1298 0.929 . S
C1290 H1284 0.930 . S
C1290 C1291 1.367 . S
C1290 C1298 1.378 . S
C1291 C1290 1.367 . S
C1291 C1299 1.433 . S
C1292 H1288 0.929 . S
C1292 C1294 1.378 . S
C1292 C1296 1.350 . S
C1293 C1296 1.463 . S
C1293 C1298 1.350 . S
C1293 N1301 1.427 . S
C1294 H1285 0.930 . S
C1294 C1292 1.378 . S
C1294 C1295 1.367 . S
C1295 C1294 1.367 . S
C1295 C1297 1.433 . S
C1296 C1292 1.350 . S
C1296 C1293 1.463 . S
C1296 N1300 1.427 . S
C1297 H1287 0.929 . S
C1297 C1295 1.433 . S
C1297 N1300 1.384 . S
C1298 H1289 0.929 . S
C1298 C1290 1.378 . S
C1298 C1293 1.350 . S
C1299 H1286 0.929 . S
C1299 C1291 1.433 . S
C1299 N1301 1.384 . S
N1300 C1296 1.427 . S
N1300 C1297 1.384 . S
N1301 C1293 1.427 . S
N1301 C1299 1.384 . S
H1302 C1308 0.930 . S
H1303 C1312 0.930 . S
H1304 C1317 0.929 . S
H1305 C1315 0.929 . S
H1306 C1310 0.929 . S
H1307 C1316 0.929 . S
C1308 H1302 0.930 . S
C1308 C1309 1.367 . S
C1308 C1316 1.378 . S
C1309 C1308 1.367 . S
C1309 C1317 1.433 . S
C1310 H1306 0.929 . S
C1310 C1312 1.378 . S
C1310 C1314 1.350 . S
C1311 C1314 1.463 1_556 S
C1311 C1316 1.350 . S
C1311 N1319 1.427 . S
C1312 H1303 0.930 . S
C1312 C1310 1.378 . S
C1312 C1313 1.367 . S
C1313 C1312 1.367 . S
C1313 C1315 1.433 . S
C1314 C1310 1.350 . S
C1314 C1311 1.463 1_554 S
C1314 N1318 1.427 . S
C1315 H1305 0.929 . S
C1315 C1313 1.433 . S
C1315 N1318 1.384 . S
C1316 H1307 0.929 . S
C1316 C1308 1.378 . S
C1316 C1311 1.350 . S
C1317 H1304 0.929 . S
C1317 C1309 1.433 . S
C1317 N1319 1.384 . S
N1318 C1314 1.427 . S
N1318 C1315 1.384 . S
N1319 C1311 1.427 . S
N1319 C1317 1.384 . S
H1320 C1326 0.930 . S
H1321 C1330 0.930 . S
H1322 C1335 0.929 . S
H1323 C1333 0.929 . S
H1324 C1328 0.929 . S
H1325 C1334 0.929 . S
C1326 H1320 0.930 . S
C1326 C1327 1.367 . S
C1326 C1334 1.378 . S
C1327 C1326 1.367 . S
C1327 C1335 1.433 . S
C1328 H1324 0.929 . S
C1328 C1330 1.378 . S
C1328 C1332 1.350 . S
C1329 C1332 1.463 . S
C1329 C1334 1.350 . S
C1329 N1337 1.427 . S
C1330 H1321 0.930 . S
C1330 C1328 1.378 . S
C1330 C1331 1.367 . S
C1331 C1330 1.367 . S
C1331 C1333 1.433 . S
C1332 C1328 1.350 . S
C1332 C1329 1.463 . S
C1332 N1336 1.427 . S
C1333 H1323 0.929 . S
C1333 C1331 1.433 . S
C1333 N1336 1.384 . S
C1334 H1325 0.929 . S
C1334 C1326 1.378 . S
C1334 C1329 1.350 . S
C1335 H1322 0.929 . S
C1335 C1327 1.433 . S
C1335 N1337 1.384 . S
N1336 C1332 1.427 . S
N1336 C1333 1.384 . S
N1337 C1329 1.427 . S
N1337 C1335 1.384 . S
H1338 C1344 0.930 . S
H1339 C1348 0.930 . S
H1340 C1353 0.929 . S
H1341 C1351 0.929 . S
H1342 C1346 0.929 . S
H1343 C1352 0.929 . S
C1344 H1338 0.930 . S
C1344 C1345 1.367 . S
C1344 C1352 1.378 . S
C1345 C1344 1.367 . S
C1345 C1353 1.433 . S
C1346 H1342 0.929 . S
C1346 C1348 1.378 . S
C1346 C1350 1.350 . S
C1347 C1350 1.463 . S
C1347 C1352 1.350 . S
C1347 N1355 1.427 . S
C1348 H1339 0.930 . S
C1348 C1346 1.378 . S
C1348 C1349 1.367 . S
C1349 C1348 1.367 . S
C1349 C1351 1.433 . S
C1350 C1346 1.350 . S
C1350 C1347 1.463 . S
C1350 N1354 1.427 . S
C1351 H1341 0.929 . S
C1351 C1349 1.433 . S
C1351 N1354 1.384 . S
C1352 H1343 0.929 . S
C1352 C1344 1.378 . S
C1352 C1347 1.350 . S
C1353 H1340 0.929 . S
C1353 C1345 1.433 . S
C1353 N1355 1.384 . S
N1354 C1350 1.427 . S
N1354 C1351 1.384 . S
N1355 C1347 1.427 . S
N1355 C1353 1.384 . S
H1356 C1362 0.930 . S
H1357 C1366 0.930 . S
H1358 C1371 0.929 . S
H1359 C1369 0.929 . S
H1360 C1364 0.929 . S
H1361 C1370 0.929 . S
C1362 H1356 0.930 . S
C1362 C1363 1.367 . S
C1362 C1370 1.378 . S
C1363 C1362 1.367 . S
C1363 C1371 1.433 . S
C1364 H1360 0.929 . S
C1364 C1366 1.378 . S
C1364 C1368 1.350 . S
C1365 C1368 1.463 . S
C1365 C1370 1.350 . S
C1365 N1373 1.427 . S
C1366 H1357 0.930 . S
C1366 C1364 1.378 . S
C1366 C1367 1.367 . S
C1367 C1366 1.367 . S
C1367 C1369 1.433 . S
C1368 C1364 1.350 . S
C1368 C1365 1.463 . S
C1368 N1372 1.427 . S
C1369 H1359 0.929 . S
C1369 C1367 1.433 . S
C1369 N1372 1.384 . S
C1370 H1361 0.929 . S
C1370 C1362 1.378 . S
C1370 C1365 1.350 . S
C1371 H1358 0.929 . S
C1371 C1363 1.433 . S
C1371 N1373 1.384 . S
N1372 C1368 1.427 . S
N1372 C1369 1.384 . S
N1373 C1365 1.427 . S
N1373 C1371 1.384 . S
H1374 C1380 0.930 . S
H1375 C1384 0.930 . S
H1376 C1389 0.929 . S
H1377 C1387 0.929 . S
H1378 C1382 0.929 . S
H1379 C1388 0.929 . S
C1380 H1374 0.930 . S
C1380 C1381 1.367 . S
C1380 C1388 1.378 . S
C1381 C1380 1.367 . S
C1381 C1389 1.433 . S
C1382 H1378 0.929 . S
C1382 C1384 1.378 . S
C1382 C1386 1.350 . S
C1383 C1386 1.463 1_556 S
C1383 C1388 1.350 . S
C1383 N1391 1.427 . S
C1384 H1375 0.930 . S
C1384 C1382 1.378 . S
C1384 C1385 1.367 . S
C1385 C1384 1.367 . S
C1385 C1387 1.433 . S
C1386 C1382 1.350 . S
C1386 C1383 1.463 1_554 S
C1386 N1390 1.427 . S
C1387 H1377 0.929 . S
C1387 C1385 1.433 . S
C1387 N1390 1.384 . S
C1388 H1379 0.929 . S
C1388 C1380 1.378 . S
C1388 C1383 1.350 . S
C1389 H1376 0.929 . S
C1389 C1381 1.433 . S
C1389 N1391 1.384 . S
N1390 C1386 1.427 . S
N1390 C1387 1.384 . S
N1391 C1383 1.427 . S
N1391 C1389 1.384 . S
H1392 C1398 0.930 . S
H1393 C1402 0.930 . S
H1394 C1407 0.929 . S
H1395 C1405 0.929 . S
H1396 C1400 0.929 . S
H1397 C1406 0.929 . S
C1398 H1392 0.930 . S
C1398 C1399 1.367 . S
C1398 C1406 1.378 . S
C1399 C1398 1.367 . S
C1399 C1407 1.433 . S
C1400 H1396 0.929 . S
C1400 C1402 1.378 . S
C1400 C1404 1.350 . S
C1401 C1404 1.463 . S
C1401 C1406 1.350 . S
C1401 N1409 1.427 . S
C1402 H1393 0.930 . S
C1402 C1400 1.378 . S
C1402 C1403 1.367 . S
C1403 C1402 1.367 . S
C1403 C1405 1.433 . S
C1404 C1400 1.350 . S
C1404 C1401 1.463 . S
C1404 N1408 1.427 . S
C1405 H1395 0.929 . S
C1405 C1403 1.433 . S
C1405 N1408 1.384 . S
C1406 H1397 0.929 . S
C1406 C1398 1.378 . S
C1406 C1401 1.350 . S
C1407 H1394 0.929 . S
C1407 C1399 1.433 . S
C1407 N1409 1.384 . S
N1408 C1404 1.427 . S
N1408 C1405 1.384 . S
N1409 C1401 1.427 . S
N1409 C1407 1.384 . S
H1410 C1416 0.930 . S
H1411 C1420 0.930 . S
H1412 C1425 0.929 . S
H1413 C1423 0.929 . S
H1414 C1418 0.929 . S
H1415 C1424 0.929 . S
C1416 H1410 0.930 . S
C1416 C1417 1.367 . S
C1416 C1424 1.378 . S
C1417 C1416 1.367 . S
C1417 C1425 1.433 . S
C1418 H1414 0.929 . S
C1418 C1420 1.378 . S
C1418 C1422 1.350 . S
C1419 C1422 1.463 . S
C1419 C1424 1.350 . S
C1419 N1427 1.427 . S
C1420 H1411 0.930 . S
C1420 C1418 1.378 . S
C1420 C1421 1.367 . S
C1421 C1420 1.367 . S
C1421 C1423 1.433 . S
C1422 C1418 1.350 . S
C1422 C1419 1.463 . S
C1422 N1426 1.427 . S
C1423 H1413 0.929 . S
C1423 C1421 1.433 . S
C1423 N1426 1.384 . S
C1424 H1415 0.929 . S
C1424 C1416 1.378 . S
C1424 C1419 1.350 . S
C1425 H1412 0.929 . S
C1425 C1417 1.433 . S
C1425 N1427 1.384 . S
N1426 C1422 1.427 . S
N1426 C1423 1.384 . S
N1427 C1419 1.427 . S
N1427 C1425 1.384 . S
H1428 C1434 0.930 . S
H1429 C1438 0.930 . S
H1430 C1443 0.929 . S
H1431 C1441 0.929 . S
H1432 C1436 0.929 . S
H1433 C1442 0.929 . S
C1434 H1428 0.930 . S
C1434 C1435 1.367 . S
C1434 C1442 1.378 . S
C1435 C1434 1.367 . S
C1435 C1443 1.433 . S
C1436 H1432 0.929 . S
C1436 C1438 1.378 . S
C1436 C1440 1.350 . S
C1437 C1440 1.463 . S
C1437 C1442 1.350 . S
C1437 N1445 1.427 . S
C1438 H1429 0.930 . S
C1438 C1436 1.378 . S
C1438 C1439 1.367 . S
C1439 C1438 1.367 . S
C1439 C1441 1.433 . S
C1440 C1436 1.350 . S
C1440 C1437 1.463 . S
C1440 N1444 1.427 . S
C1441 H1431 0.929 . S
C1441 C1439 1.433 . S
C1441 N1444 1.384 . S
C1442 H1433 0.929 . S
C1442 C1434 1.378 . S
C1442 C1437 1.350 . S
C1443 H1430 0.929 . S
C1443 C1435 1.433 . S
C1443 N1445 1.384 . S
N1444 C1440 1.427 . S
N1444 C1441 1.384 . S
N1445 C1437 1.427 . S
N1445 C1443 1.384 . S
H1446 C1452 0.930 . S
H1447 C1456 0.930 . S
H1448 C1461 0.929 . S
H1449 C1459 0.929 . S
H1450 C1454 0.929 . S
H1451 C1460 0.929 . S
C1452 H1446 0.930 . S
C1452 C1453 1.367 . S
C1452 C1460 1.378 . S
C1453 C1452 1.367 . S
C1453 C1461 1.433 . S
C1454 H1450 0.929 . S
C1454 C1456 1.378 . S
C1454 C1458 1.350 . S
C1455 C1458 1.463 . S
C1455 C1460 1.350 . S
C1455 N1463 1.427 . S
C1456 H1447 0.930 . S
C1456 C1454 1.378 . S
C1456 C1457 1.367 . S
C1457 C1456 1.367 . S
C1457 C1459 1.433 . S
C1458 C1454 1.350 . S
C1458 C1455 1.463 . S
C1458 N1462 1.427 . S
C1459 H1449 0.929 . S
C1459 C1457 1.433 . S
C1459 N1462 1.384 . S
C1460 H1451 0.929 . S
C1460 C1452 1.378 . S
C1460 C1455 1.350 . S
C1461 H1448 0.929 . S
C1461 C1453 1.433 . S
C1461 N1463 1.384 . S
N1462 C1458 1.427 . S
N1462 C1459 1.384 . S
N1463 C1455 1.427 . S
N1463 C1461 1.384 . S
H1464 C1470 0.930 . S
H1465 C1474 0.930 . S
H1466 C1479 0.929 . S
H1467 C1477 0.929 . S
H1468 C1472 0.929 . S
H1469 C1478 0.929 . S
C1470 H1464 0.930 . S
C1470 C1471 1.367 1_545 S
C1470 C1478 1.378 . S
C1471 C1470 1.367 1_565 S
C1471 C1479 1.433 . S
C1472 H1468 0.929 . S
C1472 C1474 1.378 . S
C1472 C1476 1.350 . S
C1473 C1476 1.463 . S
C1473 C1478 1.350 . S
C1473 N1481 1.427 . S
C1474 H1465 0.930 . S
C1474 C1472 1.378 . S
C1474 C1475 1.367 . S
C1475 C1474 1.367 . S
C1475 C1477 1.433 . S
C1476 C1472 1.350 . S
C1476 C1473 1.463 . S
C1476 N1480 1.427 . S
C1477 H1467 0.929 . S
C1477 C1475 1.433 . S
C1477 N1480 1.384 . S
C1478 H1469 0.929 . S
C1478 C1470 1.378 . S
C1478 C1473 1.350 . S
C1479 H1466 0.929 . S
C1479 C1471 1.433 . S
C1479 N1481 1.384 1_565 S
N1480 C1476 1.427 . S
N1480 C1477 1.384 . S
N1481 C1473 1.427 . S
N1481 C1479 1.384 1_545 S
H1482 C1488 0.930 . S
H1483 C1492 0.930 . S
H1484 C1497 0.929 . S
H1485 C1495 0.929 . S
H1486 C1490 0.929 . S
H1487 C1496 0.929 . S
C1488 H1482 0.930 . S
C1488 C1489 1.367 . S
C1488 C1496 1.378 . S
C1489 C1488 1.367 . S
C1489 C1497 1.433 . S
C1490 H1486 0.929 . S
C1490 C1492 1.378 . S
C1490 C1494 1.350 . S
C1491 C1494 1.463 . S
C1491 C1496 1.350 . S
C1491 N1499 1.427 . S
C1492 H1483 0.930 . S
C1492 C1490 1.378 . S
C1492 C1493 1.367 . S
C1493 C1492 1.367 . S
C1493 C1495 1.433 . S
C1494 C1490 1.350 . S
C1494 C1491 1.463 . S
C1494 N1498 1.427 . S
C1495 H1485 0.929 . S
C1495 C1493 1.433 . S
C1495 N1498 1.384 . S
C1496 H1487 0.929 . S
C1496 C1488 1.378 . S
C1496 C1491 1.350 . S
C1497 H1484 0.929 . S
C1497 C1489 1.433 . S
C1497 N1499 1.384 . S
N1498 C1494 1.427 . S
N1498 C1495 1.384 . S
N1499 C1491 1.427 . S
N1499 C1497 1.384 . S
H1500 C1506 0.930 . S
H1501 C1510 0.930 . S
H1502 C1515 0.929 . S
H1503 C1513 0.929 . S
H1504 C1508 0.929 . S
H1505 C1514 0.929 . S
C1506 H1500 0.930 . S
C1506 C1507 1.367 . S
C1506 C1514 1.378 . S
C1507 C1506 1.367 . S
C1507 C1515 1.433 . S
C1508 H1504 0.929 . S
C1508 C1510 1.378 . S
C1508 C1512 1.350 . S
C1509 C1512 1.463 . S
C1509 C1514 1.350 . S
C1509 N1517 1.427 . S
C1510 H1501 0.930 . S
C1510 C1508 1.378 . S
C1510 C1511 1.367 . S
C1511 C1510 1.367 . S
C1511 C1513 1.433 . S
C1512 C1508 1.350 . S
C1512 C1509 1.463 . S
C1512 N1516 1.427 . S
C1513 H1503 0.929 . S
C1513 C1511 1.433 . S
C1513 N1516 1.384 . S
C1514 H1505 0.929 . S
C1514 C1506 1.378 . S
C1514 C1509 1.350 . S
C1515 H1502 0.929 . S
C1515 C1507 1.433 . S
C1515 N1517 1.384 . S
N1516 C1512 1.427 . S
N1516 C1513 1.384 . S
N1517 C1509 1.427 . S
N1517 C1515 1.384 . S
H1518 C1524 0.930 . S
H1519 C1528 0.930 . S
H1520 C1533 0.929 . S
H1521 C1531 0.929 . S
H1522 C1526 0.929 . S
H1523 C1532 0.929 . S
C1524 H1518 0.930 . S
C1524 C1525 1.367 . S
C1524 C1532 1.378 . S
C1525 C1524 1.367 . S
C1525 C1533 1.433 . S
C1526 H1522 0.929 . S
C1526 C1528 1.378 . S
C1526 C1530 1.350 . S
C1527 C1530 1.463 . S
C1527 C1532 1.350 . S
C1527 N1535 1.427 . S
C1528 H1519 0.930 . S
C1528 C1526 1.378 . S
C1528 C1529 1.367 . S
C1529 C1528 1.367 . S
C1529 C1531 1.433 . S
C1530 C1526 1.350 . S
C1530 C1527 1.463 . S
C1530 N1534 1.427 . S
C1531 H1521 0.929 . S
C1531 C1529 1.433 . S
C1531 N1534 1.384 . S
C1532 H1523 0.929 . S
C1532 C1524 1.378 . S
C1532 C1527 1.350 . S
C1533 H1520 0.929 . S
C1533 C1525 1.433 . S
C1533 N1535 1.384 . S
N1534 C1530 1.427 . S
N1534 C1531 1.384 . S
N1535 C1527 1.427 . S
N1535 C1533 1.384 . S
H1536 C1542 0.930 . S
H1537 C1546 0.930 . S
H1538 C1551 0.929 . S
H1539 C1549 0.929 . S
H1540 C1544 0.929 . S
H1541 C1550 0.929 . S
C1542 H1536 0.930 . S
C1542 C1543 1.367 . S
C1542 C1550 1.378 . S
C1543 C1542 1.367 . S
C1543 C1551 1.433 . S
C1544 H1540 0.929 . S
C1544 C1546 1.378 . S
C1544 C1548 1.350 . S
C1545 C1548 1.463 . S
C1545 C1550 1.350 . S
C1545 N1553 1.427 . S
C1546 H1537 0.930 . S
C1546 C1544 1.378 . S
C1546 C1547 1.367 . S
C1547 C1546 1.367 . S
C1547 C1549 1.433 . S
C1548 C1544 1.350 . S
C1548 C1545 1.463 . S
C1548 N1552 1.427 . S
C1549 H1539 0.929 . S
C1549 C1547 1.433 . S
C1549 N1552 1.384 . S
C1550 H1541 0.929 . S
C1550 C1542 1.378 . S
C1550 C1545 1.350 . S
C1551 H1538 0.929 . S
C1551 C1543 1.433 . S
C1551 N1553 1.384 . S
N1552 C1548 1.427 . S
N1552 C1549 1.384 . S
N1553 C1545 1.427 . S
N1553 C1551 1.384 . S
H1554 C1560 0.930 . S
H1555 C1564 0.930 . S
H1556 C1569 0.929 . S
H1557 C1567 0.929 . S
H1558 C1562 0.929 . S
H1559 C1568 0.929 . S
C1560 H1554 0.930 . S
C1560 C1561 1.367 . S
C1560 C1568 1.378 . S
C1561 C1560 1.367 . S
C1561 C1569 1.433 . S
C1562 H1558 0.929 . S
C1562 C1564 1.378 . S
C1562 C1566 1.350 . S
C1563 C1566 1.463 . S
C1563 C1568 1.350 . S
C1563 N1571 1.427 . S
C1564 H1555 0.930 . S
C1564 C1562 1.378 . S
C1564 C1565 1.367 . S
C1565 C1564 1.367 . S
C1565 C1567 1.433 . S
C1566 C1562 1.350 . S
C1566 C1563 1.463 . S
C1566 N1570 1.427 . S
C1567 H1557 0.929 . S
C1567 C1565 1.433 . S
C1567 N1570 1.384 . S
C1568 H1559 0.929 . S
C1568 C1560 1.378 . S
C1568 C1563 1.350 . S
C1569 H1556 0.929 . S
C1569 C1561 1.433 . S
C1569 N1571 1.384 . S
N1570 C1566 1.427 . S
N1570 C1567 1.384 . S
N1571 C1563 1.427 . S
N1571 C1569 1.384 . S
H1572 C1578 0.930 . S
H1573 C1582 0.930 . S
H1574 C1587 0.929 . S
H1575 C1585 0.929 . S
H1576 C1580 0.929 . S
H1577 C1586 0.929 . S
C1578 H1572 0.930 . S
C1578 C1579 1.367 . S
C1578 C1586 1.378 . S
C1579 C1578 1.367 . S
C1579 C1587 1.433 . S
C1580 H1576 0.929 . S
C1580 C1582 1.378 . S
C1580 C1584 1.350 . S
C1581 C1584 1.463 . S
C1581 C1586 1.350 . S
C1581 N1589 1.427 . S
C1582 H1573 0.930 . S
C1582 C1580 1.378 . S
C1582 C1583 1.367 . S
C1583 C1582 1.367 . S
C1583 C1585 1.433 . S
C1584 C1580 1.350 . S
C1584 C1581 1.463 . S
C1584 N1588 1.427 . S
C1585 H1575 0.929 . S
C1585 C1583 1.433 . S
C1585 N1588 1.384 . S
C1586 H1577 0.929 . S
C1586 C1578 1.378 . S
C1586 C1581 1.350 . S
C1587 H1574 0.929 . S
C1587 C1579 1.433 . S
C1587 N1589 1.384 . S
N1588 C1584 1.427 . S
N1588 C1585 1.384 . S
N1589 C1581 1.427 . S
N1589 C1587 1.384 . S
H1590 C1596 0.930 . S
H1591 C1600 0.930 . S
H1592 C1605 0.929 . S
H1593 C1603 0.929 . S
H1594 C1598 0.929 . S
H1595 C1604 0.929 1_455 S
C1596 H1590 0.930 . S
C1596 C1597 1.367 . S
C1596 C1604 1.378 . S
C1597 C1596 1.367 . S
C1597 C1605 1.433 . S
C1598 H1594 0.929 . S
C1598 C1600 1.378 . S
C1598 C1602 1.350 . S
C1599 C1602 1.463 . S
C1599 C1604 1.350 1_455 S
C1599 N1607 1.427 . S
C1600 H1591 0.930 . S
C1600 C1598 1.378 . S
C1600 C1601 1.367 . S
C1601 C1600 1.367 . S
C1601 C1603 1.433 . S
C1602 C1598 1.350 . S
C1602 C1599 1.463 . S
C1602 N1606 1.427 . S
C1603 H1593 0.929 . S
C1603 C1601 1.433 . S
C1603 N1606 1.384 . S
C1604 H1595 0.929 1_655 S
C1604 C1596 1.378 . S
C1604 C1599 1.350 1_655 S
C1605 H1592 0.929 . S
C1605 C1597 1.433 . S
C1605 N1607 1.384 1_655 S
N1606 C1602 1.427 . S
N1606 C1603 1.384 . S
N1607 C1599 1.427 . S
N1607 C1605 1.384 1_455 S
H1608 C1614 0.930 . S
H1609 C1618 0.930 . S
H1610 C1623 0.929 . S
H1611 C1621 0.929 . S
H1612 C1616 0.929 . S
H1613 C1622 0.929 . S
C1614 H1608 0.930 . S
C1614 C1615 1.367 . S
C1614 C1622 1.378 . S
C1615 C1614 1.367 . S
C1615 C1623 1.433 . S
C1616 H1612 0.929 . S
C1616 C1618 1.378 . S
C1616 C1620 1.350 . S
C1617 C1620 1.463 . S
C1617 C1622 1.350 . S
C1617 N1625 1.427 . S
C1618 H1609 0.930 . S
C1618 C1616 1.378 . S
C1618 C1619 1.367 . S
C1619 C1618 1.367 . S
C1619 C1621 1.433 . S
C1620 C1616 1.350 . S
C1620 C1617 1.463 . S
C1620 N1624 1.427 . S
C1621 H1611 0.929 . S
C1621 C1619 1.433 . S
C1621 N1624 1.384 . S
C1622 H1613 0.929 . S
C1622 C1614 1.378 . S
C1622 C1617 1.350 . S
C1623 H1610 0.929 . S
C1623 C1615 1.433 . S
C1623 N1625 1.384 . S
N1624 C1620 1.427 . S
N1624 C1621 1.384 . S
N1625 C1617 1.427 . S
N1625 C1623 1.384 . S
H1626 C1632 0.930 . S
H1627 C1636 0.930 . S
H1628 C1641 0.929 . S
H1629 C1639 0.929 . S
H1630 C1634 0.929 1_455 S
H1631 C1640 0.929 . S
C1632 H1626 0.930 . S
C1632 C1633 1.367 . S
C1632 C1640 1.378 . S
C1633 C1632 1.367 . S
C1633 C1641 1.433 . S
C1634 H1630 0.929 1_655 S
C1634 C1636 1.378 . S
C1634 C1638 1.350 1_655 S
C1635 C1638 1.463 . S
C1635 C1640 1.350 . S
C1635 N1643 1.427 . S
C1636 H1627 0.930 . S
C1636 C1634 1.378 . S
C1636 C1637 1.367 . S
C1637 C1636 1.367 . S
C1637 C1639 1.433 . S
C1638 C1634 1.350 1_455 S
C1638 C1635 1.463 . S
C1638 N1642 1.427 1_455 S
C1639 H1629 0.929 . S
C1639 C1637 1.433 . S
C1639 N1642 1.384 . S
C1640 H1631 0.929 . S
C1640 C1632 1.378 . S
C1640 C1635 1.350 . S
C1641 H1628 0.929 . S
C1641 C1633 1.433 . S
C1641 N1643 1.384 . S
N1642 C1638 1.427 1_655 S
N1642 C1639 1.384 . S
N1643 C1635 1.427 . S
N1643 C1641 1.384 . S
H1644 C1650 0.930 . S
H1645 C1654 0.930 . S
H1646 C1659 0.929 . S
H1647 C1657 0.929 . S
H1648 C1652 0.929 . S
H1649 C1658 0.929 . S
C1650 H1644 0.930 . S
C1650 C1651 1.367 . S
C1650 C1658 1.378 . S
C1651 C1650 1.367 . S
C1651 C1659 1.433 . S
C1652 H1648 0.929 . S
C1652 C1654 1.378 . S
C1652 C1656 1.350 . S
C1653 C1656 1.463 . S
C1653 C1658 1.350 . S
C1653 N1661 1.427 . S
C1654 H1645 0.930 . S
C1654 C1652 1.378 . S
C1654 C1655 1.367 . S
C1655 C1654 1.367 . S
C1655 C1657 1.433 . S
C1656 C1652 1.350 . S
C1656 C1653 1.463 . S
C1656 N1660 1.427 . S
C1657 H1647 0.929 . S
C1657 C1655 1.433 . S
C1657 N1660 1.384 . S
C1658 H1649 0.929 . S
C1658 C1650 1.378 . S
C1658 C1653 1.350 . S
C1659 H1646 0.929 . S
C1659 C1651 1.433 . S
C1659 N1661 1.384 . S
N1660 C1656 1.427 . S
N1660 C1657 1.384 . S
N1661 C1653 1.427 . S
N1661 C1659 1.384 . S
H1662 C1668 0.930 . S
H1663 C1672 0.930 . S
H1664 C1677 0.929 . S
H1665 C1675 0.929 . S
H1666 C1670 0.929 . S
H1667 C1676 0.929 . S
C1668 H1662 0.930 . S
C1668 C1669 1.367 . S
C1668 C1676 1.378 . S
C1669 C1668 1.367 . S
C1669 C1677 1.433 . S
C1670 H1666 0.929 . S
C1670 C1672 1.378 . S
C1670 C1674 1.350 . S
C1671 C1674 1.463 . S
C1671 C1676 1.350 . S
C1671 N1679 1.427 . S
C1672 H1663 0.930 . S
C1672 C1670 1.378 . S
C1672 C1673 1.367 . S
C1673 C1672 1.367 . S
C1673 C1675 1.433 . S
C1674 C1670 1.350 . S
C1674 C1671 1.463 . S
C1674 N1678 1.427 . S
C1675 H1665 0.929 . S
C1675 C1673 1.433 . S
C1675 N1678 1.384 . S
C1676 H1667 0.929 . S
C1676 C1668 1.378 . S
C1676 C1671 1.350 . S
C1677 H1664 0.929 . S
C1677 C1669 1.433 . S
C1677 N1679 1.384 . S
N1678 C1674 1.427 . S
N1678 C1675 1.384 . S
N1679 C1671 1.427 . S
N1679 C1677 1.384 . S
H1680 C1686 0.930 . S
H1681 C1690 0.930 . S
H1682 C1695 0.929 . S
H1683 C1693 0.929 . S
H1684 C1688 0.929 . S
H1685 C1694 0.929 . S
C1686 H1680 0.930 . S
C1686 C1687 1.367 . S
C1686 C1694 1.378 . S
C1687 C1686 1.367 . S
C1687 C1695 1.433 . S
C1688 H1684 0.929 . S
C1688 C1690 1.378 . S
C1688 C1692 1.350 . S
C1689 C1692 1.463 . S
C1689 C1694 1.350 . S
C1689 N1697 1.427 . S
C1690 H1681 0.930 . S
C1690 C1688 1.378 . S
C1690 C1691 1.367 . S
C1691 C1690 1.367 . S
C1691 C1693 1.433 . S
C1692 C1688 1.350 . S
C1692 C1689 1.463 . S
C1692 N1696 1.427 . S
C1693 H1683 0.929 . S
C1693 C1691 1.433 . S
C1693 N1696 1.384 . S
C1694 H1685 0.929 . S
C1694 C1686 1.378 . S
C1694 C1689 1.350 . S
C1695 H1682 0.929 . S
C1695 C1687 1.433 . S
C1695 N1697 1.384 . S
N1696 C1692 1.427 . S
N1696 C1693 1.384 . S
N1697 C1689 1.427 . S
N1697 C1695 1.384 . S
H1698 C1704 0.930 . S
H1699 C1708 0.930 . S
H1700 C1713 0.929 . S
H1701 C1711 0.929 . S
H1702 C1706 0.915 1_554 S
H1703 C1712 0.929 . S
C1704 H1698 0.930 . S
C1704 C1705 1.367 . S
C1704 C1712 1.378 . S
C1705 C1704 1.367 . S
C1705 C1713 1.433 . S
C1706 H1702 0.915 1_556 S
C1706 C1708 1.407 . S
C1706 C1710 1.335 1_556 S
C1707 C1710 1.463 . S
C1707 C1712 1.350 . S
C1707 N1715 1.427 . S
C1708 H1699 0.930 . S
C1708 C1706 1.407 . S
C1708 C1709 1.367 . S
C1709 C1708 1.367 . S
C1709 C1711 1.433 . S
C1710 C1706 1.335 1_554 S
C1710 C1707 1.463 . S
C1710 N1714 1.427 . S
C1711 H1701 0.929 . S
C1711 C1709 1.433 . S
C1711 N1714 1.384 1_556 S
C1712 H1703 0.929 . S
C1712 C1704 1.378 . S
C1712 C1707 1.350 . S
C1713 H1700 0.929 . S
C1713 C1705 1.433 . S
C1713 N1715 1.384 . S
N1714 C1710 1.427 . S
N1714 C1711 1.384 1_554 S
N1715 C1707 1.427 . S
N1715 C1713 1.384 . S
H1716 C1722 0.930 . S
H1717 C1726 0.930 . S
H1718 C1731 0.929 . S
H1719 C1729 0.929 . S
H1720 C1724 0.929 . S
H1721 C1730 0.929 . S
C1722 H1716 0.930 . S
C1722 C1723 1.367 . S
C1722 C1730 1.378 . S
C1723 C1722 1.367 . S
C1723 C1731 1.433 . S
C1724 H1720 0.929 . S
C1724 C1726 1.378 . S
C1724 C1728 1.350 . S
C1725 C1728 1.463 . S
C1725 C1730 1.350 . S
C1725 N1733 1.427 . S
C1726 H1717 0.930 . S
C1726 C1724 1.378 . S
C1726 C1727 1.367 . S
C1727 C1726 1.367 . S
C1727 C1729 1.433 . S
C1728 C1724 1.350 . S
C1728 C1725 1.463 . S
C1728 N1732 1.427 . S
C1729 H1719 0.929 . S
C1729 C1727 1.433 . S
C1729 N1732 1.384 . S
C1730 H1721 0.929 . S
C1730 C1722 1.378 . S
C1730 C1725 1.350 . S
C1731 H1718 0.929 . S
C1731 C1723 1.433 . S
C1731 N1733 1.384 . S
N1732 C1728 1.427 . S
N1732 C1729 1.384 . S
N1733 C1725 1.427 . S
N1733 C1731 1.384 . S
H1734 C1740 0.930 . S
H1735 C1744 0.930 . S
H1736 C1749 0.929 . S
H1737 C1747 0.929 . S
H1738 C1742 0.929 . S
H1739 C1748 0.929 . S
C1740 H1734 0.930 . S
C1740 C1741 1.367 . S
C1740 C1748 1.378 . S
C1741 C1740 1.367 . S
C1741 C1749 1.433 . S
C1742 H1738 0.929 . S
C1742 C1744 1.378 . S
C1742 C1746 1.350 . S
C1743 C1746 1.463 . S
C1743 C1748 1.350 . S
C1743 N1751 1.427 . S
C1744 H1735 0.930 . S
C1744 C1742 1.378 . S
C1744 C1745 1.367 . S
C1745 C1744 1.367 . S
C1745 C1747 1.433 . S
C1746 C1742 1.350 . S
C1746 C1743 1.463 . S
C1746 N1750 1.427 . S
C1747 H1737 0.929 . S
C1747 C1745 1.433 . S
C1747 N1750 1.384 . S
C1748 H1739 0.929 . S
C1748 C1740 1.378 . S
C1748 C1743 1.350 . S
C1749 H1736 0.929 . S
C1749 C1741 1.433 . S
C1749 N1751 1.384 . S
N1750 C1746 1.427 . S
N1750 C1747 1.384 . S
N1751 C1743 1.427 . S
N1751 C1749 1.384 . S
H1752 C1758 0.930 . S
H1753 C1762 0.930 . S
H1754 C1767 0.929 . S
H1755 C1765 0.929 . S
H1756 C1760 0.929 . S
H1757 C1766 0.929 . S
C1758 H1752 0.930 . S
C1758 C1759 1.367 . S
C1758 C1766 1.378 . S
C1759 C1758 1.367 . S
C1759 C1767 1.433 . S
C1760 H1756 0.929 . S
C1760 C1762 1.378 . S
C1760 C1764 1.350 . S
C1761 C1764 1.463 . S
C1761 C1766 1.350 . S
C1761 N1769 1.427 . S
C1762 H1753 0.930 . S
C1762 C1760 1.378 . S
C1762 C1763 1.367 . S
C1763 C1762 1.367 . S
C1763 C1765 1.433 . S
C1764 C1760 1.350 . S
C1764 C1761 1.463 . S
C1764 N1768 1.427 . S
C1765 H1755 0.929 . S
C1765 C1763 1.433 . S
C1765 N1768 1.384 . S
C1766 H1757 0.929 . S
C1766 C1758 1.378 . S
C1766 C1761 1.350 . S
C1767 H1754 0.929 . S
C1767 C1759 1.433 . S
C1767 N1769 1.384 . S
N1768 C1764 1.427 . S
N1768 C1765 1.384 . S
N1769 C1761 1.427 . S
N1769 C1767 1.384 . S
H1770 C1776 0.930 . S
H1771 C1780 0.930 . S
H1772 C1785 0.929 . S
H1773 C1783 0.929 . S
H1774 C1778 0.929 . S
H1775 C1784 0.929 . S
C1776 H1770 0.930 . S
C1776 C1777 1.367 . S
C1776 C1784 1.378 . S
C1777 C1776 1.367 . S
C1777 C1785 1.433 . S
C1778 H1774 0.929 . S
C1778 C1780 1.378 1_556 S
C1778 C1782 1.350 . S
C1779 C1782 1.463 . S
C1779 C1784 1.350 . S
C1779 N1787 1.427 . S
C1780 H1771 0.930 . S
C1780 C1778 1.378 1_554 S
C1780 C1781 1.367 . S
C1781 C1780 1.367 . S
C1781 C1783 1.433 . S
C1782 C1778 1.350 . S
C1782 C1779 1.463 . S
C1782 N1786 1.427 . S
C1783 H1773 0.929 . S
C1783 C1781 1.433 . S
C1783 N1786 1.384 1_554 S
C1784 H1775 0.929 . S
C1784 C1776 1.378 . S
C1784 C1779 1.350 . S
C1785 H1772 0.929 . S
C1785 C1777 1.433 . S
C1785 N1787 1.384 . S
N1786 C1782 1.427 . S
N1786 C1783 1.384 1_556 S
N1787 C1779 1.427 . S
N1787 C1785 1.384 . S
H1788 C1794 0.930 . S
H1789 C1798 0.930 . S
H1790 C1803 0.929 . S
H1791 C1801 0.929 . S
H1792 C1796 0.929 . S
H1793 C1802 0.929 . S
C1794 H1788 0.930 . S
C1794 C1795 1.367 . S
C1794 C1802 1.378 . S
C1795 C1794 1.367 . S
C1795 C1803 1.433 . S
C1796 H1792 0.929 . S
C1796 C1798 1.378 . S
C1796 C1800 1.350 . S
C1797 C1800 1.463 . S
C1797 C1802 1.350 . S
C1797 N1805 1.427 . S
C1798 H1789 0.930 . S
C1798 C1796 1.378 . S
C1798 C1799 1.367 . S
C1799 C1798 1.367 . S
C1799 C1801 1.433 . S
C1800 C1796 1.350 . S
C1800 C1797 1.463 . S
C1800 N1804 1.427 . S
C1801 H1791 0.929 . S
C1801 C1799 1.433 . S
C1801 N1804 1.384 . S
C1802 H1793 0.929 . S
C1802 C1794 1.378 . S
C1802 C1797 1.350 . S
C1803 H1790 0.929 . S
C1803 C1795 1.433 . S
C1803 N1805 1.384 . S
N1804 C1800 1.427 . S
N1804 C1801 1.384 . S
N1805 C1797 1.427 . S
N1805 C1803 1.384 . S
H1806 C1812 0.930 . S
H1807 C1816 0.930 . S
H1808 C1821 0.929 . S
H1809 C1819 0.929 . S
H1810 C1814 0.929 . S
H1811 C1820 0.929 . S
C1812 H1806 0.930 . S
C1812 C1813 1.367 . S
C1812 C1820 1.378 . S
C1813 C1812 1.367 . S
C1813 C1821 1.433 . S
C1814 H1810 0.929 . S
C1814 C1816 1.378 . S
C1814 C1818 1.350 . S
C1815 C1818 1.463 . S
C1815 C1820 1.350 . S
C1815 N1823 1.427 . S
C1816 H1807 0.930 . S
C1816 C1814 1.378 . S
C1816 C1817 1.367 . S
C1817 C1816 1.367 . S
C1817 C1819 1.433 . S
C1818 C1814 1.350 . S
C1818 C1815 1.463 . S
C1818 N1822 1.427 . S
C1819 H1809 0.929 . S
C1819 C1817 1.433 . S
C1819 N1822 1.384 . S
C1820 H1811 0.929 . S
C1820 C1812 1.378 . S
C1820 C1815 1.350 . S
C1821 H1808 0.929 . S
C1821 C1813 1.433 . S
C1821 N1823 1.384 . S
N1822 C1818 1.427 . S
N1822 C1819 1.384 . S
N1823 C1815 1.427 . S
N1823 C1821 1.384 . S
H1824 C1830 0.930 . S
H1825 C1834 0.930 . S
H1826 C1839 0.929 . S
H1827 C1837 0.929 . S
H1828 C1832 0.929 . S
H1829 C1838 0.929 . S
C1830 H1824 0.930 . S
C1830 C1831 1.367 . S
C1830 C1838 1.378 . S
C1831 C1830 1.367 . S
C1831 C1839 1.433 . S
C1832 H1828 0.929 . S
C1832 C1834 1.378 . S
C1832 C1836 1.350 . S
C1833 C1836 1.463 . S
C1833 C1838 1.350 . S
C1833 N1841 1.427 . S
C1834 H1825 0.930 . S
C1834 C1832 1.378 . S
C1834 C1835 1.367 . S
C1835 C1834 1.367 . S
C1835 C1837 1.433 . S
C1836 C1832 1.350 . S
C1836 C1833 1.463 . S
C1836 N1840 1.427 . S
C1837 H1827 0.929 . S
C1837 C1835 1.433 . S
C1837 N1840 1.384 . S
C1838 H1829 0.929 . S
C1838 C1830 1.378 . S
C1838 C1833 1.350 . S
C1839 H1826 0.929 . S
C1839 C1831 1.433 . S
C1839 N1841 1.384 . S
N1840 C1836 1.427 . S
N1840 C1837 1.384 . S
N1841 C1833 1.427 . S
N1841 C1839 1.384 . S
H1842 C1848 0.930 . S
H1843 C1852 0.930 . S
H1844 C1857 0.929 . S
H1845 C1855 0.929 . S
H1846 C1850 0.929 . S
H1847 C1856 0.929 . S
C1848 H1842 0.930 . S
C1848 C1849 1.367 . S
C1848 C1856 1.378 . S
C1849 C1848 1.367 . S
C1849 C1857 1.433 . S
C1850 H1846 0.929 . S
C1850 C1852 1.378 . S
C1850 C1854 1.350 . S
C1851 C1854 1.463 . S
C1851 C1856 1.350 . S
C1851 N1859 1.427 . S
C1852 H1843 0.930 . S
C1852 C1850 1.378 . S
C1852 C1853 1.367 . S
C1853 C1852 1.367 . S
C1853 C1855 1.433 . S
C1854 C1850 1.350 . S
C1854 C1851 1.463 . S
C1854 N1858 1.427 . S
C1855 H1845 0.929 . S
C1855 C1853 1.433 . S
C1855 N1858 1.384 . S
C1856 H1847 0.929 . S
C1856 C1848 1.378 . S
C1856 C1851 1.350 . S
C1857 H1844 0.929 . S
C1857 C1849 1.433 . S
C1857 N1859 1.384 . S
N1858 C1854 1.427 . S
N1858 C1855 1.384 . S
N1859 C1851 1.427 . S
N1859 C1857 1.384 . S
H1860 C1866 0.930 . S
H1861 C1870 0.930 . S
H1862 C1875 0.929 . S
H1863 C1873 0.929 . S
H1864 C1868 0.929 . S
H1865 C1874 0.929 . S
C1866 H1860 0.930 . S
C1866 C1867 1.367 . S
C1866 C1874 1.378 . S
C1867 C1866 1.367 . S
C1867 C1875 1.433 . S
C1868 H1864 0.929 . S
C1868 C1870 1.378 . S
C1868 C1872 1.350 1_565 S
C1869 C1872 1.463 . S
C1869 C1874 1.350 . S
C1869 N1877 1.427 . S
C1870 H1861 0.930 . S
C1870 C1868 1.378 . S
C1870 C1871 1.367 . S
C1871 C1870 1.367 . S
C1871 C1873 1.433 . S
C1872 C1868 1.350 1_545 S
C1872 C1869 1.463 . S
C1872 N1876 1.427 1_545 S
C1873 H1863 0.929 . S
C1873 C1871 1.433 . S
C1873 N1876 1.384 . S
C1874 H1865 0.929 . S
C1874 C1866 1.378 . S
C1874 C1869 1.350 . S
C1875 H1862 0.929 . S
C1875 C1867 1.433 . S
C1875 N1877 1.384 . S
N1876 C1872 1.427 1_565 S
N1876 C1873 1.384 . S
N1877 C1869 1.427 . S
N1877 C1875 1.384 . S
H1878 C1884 0.930 . S
H1879 C1888 0.930 . S
H1880 C1893 0.929 . S
H1881 C1891 0.929 . S
H1882 C1886 0.929 . S
H1883 C1892 0.929 . S
C1884 H1878 0.930 . S
C1884 C1885 1.367 . S
C1884 C1892 1.378 . S
C1885 C1884 1.367 . S
C1885 C1893 1.433 . S
C1886 H1882 0.929 . S
C1886 C1888 1.378 . S
C1886 C1890 1.350 . S
C1887 C1890 1.463 . S
C1887 C1892 1.350 . S
C1887 N1895 1.427 . S
C1888 H1879 0.930 . S
C1888 C1886 1.378 . S
C1888 C1889 1.367 . S
C1889 C1888 1.367 . S
C1889 C1891 1.433 . S
C1890 C1886 1.350 . S
C1890 C1887 1.463 . S
C1890 N1894 1.427 . S
C1891 H1881 0.929 . S
C1891 C1889 1.433 . S
C1891 N1894 1.384 . S
C1892 H1883 0.929 . S
C1892 C1884 1.378 . S
C1892 C1887 1.350 . S
C1893 H1880 0.929 . S
C1893 C1885 1.433 . S
C1893 N1895 1.384 . S
N1894 C1890 1.427 . S
N1894 C1891 1.384 . S
N1895 C1887 1.427 . S
N1895 C1893 1.384 . S
H1896 C1902 0.930 . S
H1897 C1906 0.930 . S
H1898 C1911 0.929 . S
H1899 C1909 0.929 . S
H1900 C1904 0.929 . S
H1901 C1910 0.929 . S
C1902 H1896 0.930 . S
C1902 C1903 1.367 . S
C1902 C1910 1.378 . S
C1903 C1902 1.367 . S
C1903 C1911 1.433 . S
C1904 H1900 0.929 . S
C1904 C1906 1.378 . S
C1904 C1908 1.350 . S
C1905 C1908 1.463 . S
C1905 C1910 1.350 . S
C1905 N1913 1.427 . S
C1906 H1897 0.930 . S
C1906 C1904 1.378 . S
C1906 C1907 1.367 . S
C1907 C1906 1.367 . S
C1907 C1909 1.433 . S
C1908 C1904 1.350 . S
C1908 C1905 1.463 . S
C1908 N1912 1.427 . S
C1909 H1899 0.929 . S
C1909 C1907 1.433 . S
C1909 N1912 1.384 . S
C1910 H1901 0.929 . S
C1910 C1902 1.378 . S
C1910 C1905 1.350 . S
C1911 H1898 0.929 . S
C1911 C1903 1.433 . S
C1911 N1913 1.384 . S
N1912 C1908 1.427 . S
N1912 C1909 1.384 . S
N1913 C1905 1.427 . S
N1913 C1911 1.384 . S
H1914 C1920 0.930 . S
H1915 C1924 0.930 . S
H1916 C1929 0.929 . S
H1917 C1927 0.929 . S
H1918 C1922 0.929 . S
H1919 C1928 0.929 . S
C1920 H1914 0.930 . S
C1920 C1921 1.367 . S
C1920 C1928 1.378 . S
C1921 C1920 1.367 . S
C1921 C1929 1.433 . S
C1922 H1918 0.929 . S
C1922 C1924 1.378 . S
C1922 C1926 1.350 . S
C1923 C1926 1.463 . S
C1923 C1928 1.350 . S
C1923 N1931 1.427 . S
C1924 H1915 0.930 . S
C1924 C1922 1.378 . S
C1924 C1925 1.367 . S
C1925 C1924 1.367 . S
C1925 C1927 1.433 . S
C1926 C1922 1.350 . S
C1926 C1923 1.463 . S
C1926 N1930 1.427 . S
C1927 H1917 0.929 . S
C1927 C1925 1.433 . S
C1927 N1930 1.384 . S
C1928 H1919 0.929 . S
C1928 C1920 1.378 . S
C1928 C1923 1.350 . S
C1929 H1916 0.929 . S
C1929 C1921 1.433 . S
C1929 N1931 1.384 . S
N1930 C1926 1.427 . S
N1930 C1927 1.384 . S
N1931 C1923 1.427 . S
N1931 C1929 1.384 . S
H1932 C1938 0.930 . S
H1933 C1942 0.930 . S
H1934 C1947 0.929 . S
H1935 C1945 0.929 . S
H1936 C1940 0.929 . S
H1937 C1946 0.906 1_565 S
C1938 H1932 0.930 . S
C1938 C1939 1.367 . S
C1938 C1946 1.424 . S
C1939 C1938 1.367 . S
C1939 C1947 1.433 . S
C1940 H1936 0.929 . S
C1940 C1942 1.378 . S
C1940 C1944 1.350 . S
C1941 C1944 1.463 . S
C1941 C1946 1.329 1_565 S
C1941 N1949 1.427 1_565 S
C1942 H1933 0.930 . S
C1942 C1940 1.378 . S
C1942 C1943 1.367 . S
C1943 C1942 1.367 . S
C1943 C1945 1.433 . S
C1944 C1940 1.350 . S
C1944 C1941 1.463 . S
C1944 N1948 1.427 . S
C1945 H1935 0.929 . S
C1945 C1943 1.433 . S
C1945 N1948 1.384 . S
C1946 H1937 0.906 1_545 S
C1946 C1938 1.424 . S
C1946 C1941 1.329 1_545 S
C1947 H1934 0.929 . S
C1947 C1939 1.433 . S
C1947 N1949 1.384 . S
N1948 C1944 1.427 . S
N1948 C1945 1.384 . S
N1949 C1941 1.427 1_545 S
N1949 C1947 1.384 . S
H1950 C1956 0.930 . S
H1951 C1960 0.930 . S
H1952 C1965 0.929 . S
H1953 C1963 0.929 . S
H1954 C1958 0.929 1_545 S
H1955 C1964 0.929 . S
C1956 H1950 0.930 . S
C1956 C1957 1.367 . S
C1956 C1964 1.378 . S
C1957 C1956 1.367 . S
C1957 C1965 1.433 . S
C1958 H1954 0.929 1_565 S
C1958 C1960 1.378 . S
C1958 C1962 1.350 1_565 S
C1959 C1962 1.463 . S
C1959 C1964 1.350 . S
C1959 N1967 1.427 . S
C1960 H1951 0.930 . S
C1960 C1958 1.378 . S
C1960 C1961 1.367 . S
C1961 C1960 1.367 . S
C1961 C1963 1.433 . S
C1962 C1958 1.350 1_545 S
C1962 C1959 1.463 . S
C1962 N1966 1.427 1_545 S
C1963 H1953 0.929 . S
C1963 C1961 1.433 . S
C1963 N1966 1.384 . S
C1964 H1955 0.929 . S
C1964 C1956 1.378 . S
C1964 C1959 1.350 . S
C1965 H1952 0.929 . S
C1965 C1957 1.433 . S
C1965 N1967 1.384 . S
N1966 C1962 1.427 1_565 S
N1966 C1963 1.384 . S
N1967 C1959 1.427 . S
N1967 C1965 1.384 . S
H1968 C1974 0.930 . S
H1969 C1978 0.930 . S
H1970 C1983 0.929 . S
H1971 C1981 0.929 . S
H1972 C1976 0.929 . S
H1973 C1982 0.929 . S
C1974 H1968 0.930 . S
C1974 C1975 1.367 . S
C1974 C1982 1.378 . S
C1975 C1974 1.367 . S
C1975 C1983 1.433 . S
C1976 H1972 0.929 . S
C1976 C1978 1.378 . S
C1976 C1980 1.350 . S
C1977 C1980 1.463 . S
C1977 C1982 1.350 . S
C1977 N1985 1.427 . S
C1978 H1969 0.930 . S
C1978 C1976 1.378 . S
C1978 C1979 1.367 . S
C1979 C1978 1.367 . S
C1979 C1981 1.433 . S
C1980 C1976 1.350 . S
C1980 C1977 1.463 . S
C1980 N1984 1.427 . S
C1981 H1971 0.929 . S
C1981 C1979 1.433 . S
C1981 N1984 1.384 . S
C1982 H1973 0.929 . S
C1982 C1974 1.378 . S
C1982 C1977 1.350 . S
C1983 H1970 0.929 . S
C1983 C1975 1.433 . S
C1983 N1985 1.384 . S
N1984 C1980 1.427 . S
N1984 C1981 1.384 . S
N1985 C1977 1.427 . S
N1985 C1983 1.384 . S
H1986 C1992 0.930 . S
H1987 C1996 0.930 . S
H1988 C2001 0.929 . S
H1989 C1999 0.929 . S
H1990 C1994 0.929 . S
H1991 C2000 0.929 . S
C1992 H1986 0.930 . S
C1992 C1993 1.367 . S
C1992 C2000 1.378 . S
C1993 C1992 1.367 . S
C1993 C2001 1.433 . S
C1994 H1990 0.929 . S
C1994 C1996 1.378 . S
C1994 C1998 1.350 . S
C1995 C1998 1.463 . S
C1995 C2000 1.350 . S
C1995 N2003 1.427 . S
C1996 H1987 0.930 . S
C1996 C1994 1.378 . S
C1996 C1997 1.367 . S
C1997 C1996 1.367 . S
C1997 C1999 1.433 . S
C1998 C1994 1.350 . S
C1998 C1995 1.463 . S
C1998 N2002 1.427 . S
C1999 H1989 0.929 . S
C1999 C1997 1.433 . S
C1999 N2002 1.384 . S
C2000 H1991 0.929 . S
C2000 C1992 1.378 . S
C2000 C1995 1.350 . S
C2001 H1988 0.929 . S
C2001 C1993 1.433 . S
C2001 N2003 1.384 . S
N2002 C1998 1.427 . S
N2002 C1999 1.384 . S
N2003 C1995 1.427 . S
N2003 C2001 1.384 . S
H2004 C2010 0.930 . S
H2005 C2014 0.930 . S
H2006 C2019 0.929 . S
H2007 C2017 0.929 . S
H2008 C2012 0.929 . S
H2009 C2018 0.929 . S
C2010 H2004 0.930 . S
C2010 C2011 1.367 . S
C2010 C2018 1.378 . S
C2011 C2010 1.367 . S
C2011 C2019 1.433 . S
C2012 H2008 0.929 . S
C2012 C2014 1.378 . S
C2012 C2016 1.350 . S
C2013 C2016 1.463 . S
C2013 C2018 1.350 . S
C2013 N2021 1.427 . S
C2014 H2005 0.930 . S
C2014 C2012 1.378 . S
C2014 C2015 1.367 . S
C2015 C2014 1.367 . S
C2015 C2017 1.433 . S
C2016 C2012 1.350 . S
C2016 C2013 1.463 . S
C2016 N2020 1.427 . S
C2017 H2007 0.929 . S
C2017 C2015 1.433 . S
C2017 N2020 1.384 . S
C2018 H2009 0.929 . S
C2018 C2010 1.378 . S
C2018 C2013 1.350 . S
C2019 H2006 0.929 . S
C2019 C2011 1.433 . S
C2019 N2021 1.384 . S
N2020 C2016 1.427 . S
N2020 C2017 1.384 . S
N2021 C2013 1.427 . S
N2021 C2019 1.384 . S
H2022 C2028 0.930 . S
H2023 C2032 0.930 . S
H2024 C2037 0.929 . S
H2025 C2035 0.929 . S
H2026 C2030 0.929 . S
H2027 C2036 0.929 . S
C2028 H2022 0.930 . S
C2028 C2029 1.367 . S
C2028 C2036 1.378 1_455 S
C2029 C2028 1.367 . S
C2029 C2037 1.433 . S
C2030 H2026 0.929 . S
C2030 C2032 1.378 . S
C2030 C2034 1.350 . S
C2031 C2034 1.463 . S
C2031 C2036 1.350 . S
C2031 N2039 1.441 . S
C2032 H2023 0.930 . S
C2032 C2030 1.378 . S
C2032 C2033 1.367 . S
C2033 C2032 1.367 . S
C2033 C2035 1.433 . S
C2034 C2030 1.350 . S
C2034 C2031 1.463 . S
C2034 N2038 1.427 . S
C2035 H2025 0.929 . S
C2035 C2033 1.433 . S
C2035 N2038 1.384 . S
C2036 H2027 0.929 . S
C2036 C2028 1.378 1_655 S
C2036 C2031 1.350 . S
C2037 H2024 0.929 . S
C2037 C2029 1.433 . S
C2037 N2039 1.365 1_455 S
N2038 C2034 1.427 . S
N2038 C2035 1.384 . S
N2039 C2031 1.441 . S
N2039 C2037 1.365 1_655 S
H2040 C2046 0.930 . S
H2041 C2050 0.930 . S
H2042 C2055 0.929 . S
H2043 C2053 0.929 . S
H2044 C2048 0.929 . S
H2045 C2054 0.929 . S
C2046 H2040 0.930 . S
C2046 C2047 1.367 . S
C2046 C2054 1.378 . S
C2047 C2046 1.367 . S
C2047 C2055 1.433 . S
C2048 H2044 0.929 . S
C2048 C2050 1.378 . S
C2048 C2052 1.350 . S
C2049 C2052 1.463 . S
C2049 C2054 1.350 . S
C2049 N2057 1.427 . S
C2050 H2041 0.930 . S
C2050 C2048 1.378 . S
C2050 C2051 1.367 . S
C2051 C2050 1.367 . S
C2051 C2053 1.433 . S
C2052 C2048 1.350 . S
C2052 C2049 1.463 . S
C2052 N2056 1.427 . S
C2053 H2043 0.929 . S
C2053 C2051 1.433 . S
C2053 N2056 1.384 . S
C2054 H2045 0.929 . S
C2054 C2046 1.378 . S
C2054 C2049 1.350 . S
C2055 H2042 0.929 . S
C2055 C2047 1.433 . S
C2055 N2057 1.384 . S
N2056 C2052 1.427 . S
N2056 C2053 1.384 . S
N2057 C2049 1.427 . S
N2057 C2055 1.384 . S
H2058 C2064 0.930 . S
H2059 C2068 0.930 . S
H2060 C2073 0.929 . S
H2061 C2071 0.929 . S
H2062 C2066 0.929 . S
H2063 C2072 0.929 . S
C2064 H2058 0.930 . S
C2064 C2065 1.367 . S
C2064 C2072 1.378 . S
C2065 C2064 1.367 . S
C2065 C2073 1.433 . S
C2066 H2062 0.929 . S
C2066 C2068 1.378 . S
C2066 C2070 1.350 . S
C2067 C2070 1.463 1_455 S
C2067 C2072 1.350 . S
C2067 N2075 1.427 . S
C2068 H2059 0.930 . S
C2068 C2066 1.378 . S
C2068 C2069 1.367 . S
C2069 C2068 1.367 . S
C2069 C2071 1.433 . S
C2070 C2066 1.350 . S
C2070 C2067 1.463 1_655 S
C2070 N2074 1.427 . S
C2071 H2061 0.929 . S
C2071 C2069 1.433 . S
C2071 N2074 1.384 . S
C2072 H2063 0.929 . S
C2072 C2064 1.378 . S
C2072 C2067 1.350 . S
C2073 H2060 0.929 . S
C2073 C2065 1.433 . S
C2073 N2075 1.384 . S
N2074 C2070 1.427 . S
N2074 C2071 1.384 . S
N2075 C2067 1.427 . S
N2075 C2073 1.384 . S
H2076 C2082 0.930 . S
H2077 C2086 0.930 . S
H2078 C2091 0.929 . S
H2079 C2089 0.929 . S
H2080 C2084 0.929 . S
H2081 C2090 0.929 . S
C2082 H2076 0.930 . S
C2082 C2083 1.367 . S
C2082 C2090 1.378 . S
C2083 C2082 1.367 . S
C2083 C2091 1.433 . S
C2084 H2080 0.929 . S
C2084 C2086 1.378 . S
C2084 C2088 1.350 . S
C2085 C2088 1.463 . S
C2085 C2090 1.350 . S
C2085 N2093 1.427 . S
C2086 H2077 0.930 . S
C2086 C2084 1.378 . S
C2086 C2087 1.367 . S
C2087 C2086 1.367 . S
C2087 C2089 1.433 . S
C2088 C2084 1.350 . S
C2088 C2085 1.463 . S
C2088 N2092 1.427 . S
C2089 H2079 0.929 . S
C2089 C2087 1.433 . S
C2089 N2092 1.384 . S
C2090 H2081 0.929 . S
C2090 C2082 1.378 . S
C2090 C2085 1.350 . S
C2091 H2078 0.929 . S
C2091 C2083 1.433 . S
C2091 N2093 1.384 . S
N2092 C2088 1.427 . S
N2092 C2089 1.384 . S
N2093 C2085 1.427 . S
N2093 C2091 1.384 . S
H2094 C2100 0.930 . S
H2095 C2104 0.930 . S
H2096 C2109 0.929 . S
H2097 C2107 0.929 . S
H2098 C2102 0.929 . S
H2099 C2108 0.929 . S
C2100 H2094 0.930 . S
C2100 C2101 1.367 . S
C2100 C2108 1.378 . S
C2101 C2100 1.367 . S
C2101 C2109 1.433 . S
C2102 H2098 0.929 . S
C2102 C2104 1.378 . S
C2102 C2106 1.350 . S
C2103 C2106 1.463 . S
C2103 C2108 1.350 . S
C2103 N2111 1.427 . S
C2104 H2095 0.930 . S
C2104 C2102 1.378 . S
C2104 C2105 1.367 . S
C2105 C2104 1.367 . S
C2105 C2107 1.433 . S
C2106 C2102 1.350 . S
C2106 C2103 1.463 . S
C2106 N2110 1.427 . S
C2107 H2097 0.929 . S
C2107 C2105 1.433 . S
C2107 N2110 1.384 . S
C2108 H2099 0.929 . S
C2108 C2100 1.378 . S
C2108 C2103 1.350 . S
C2109 H2096 0.929 . S
C2109 C2101 1.433 . S
C2109 N2111 1.384 . S
N2110 C2106 1.427 . S
N2110 C2107 1.384 . S
N2111 C2103 1.427 . S
N2111 C2109 1.384 . S
H2112 C2118 0.930 . S
H2113 C2122 0.930 . S
H2114 C2127 0.929 . S
H2115 C2125 0.929 . S
H2116 C2120 0.929 . S
H2117 C2126 0.929 . S
C2118 H2112 0.930 . S
C2118 C2119 1.367 . S
C2118 C2126 1.378 . S
C2119 C2118 1.367 . S
C2119 C2127 1.433 . S
C2120 H2116 0.929 . S
C2120 C2122 1.378 . S
C2120 C2124 1.350 . S
C2121 C2124 1.463 . S
C2121 C2126 1.350 . S
C2121 N2129 1.427 . S
C2122 H2113 0.930 . S
C2122 C2120 1.378 . S
C2122 C2123 1.367 . S
C2123 C2122 1.367 . S
C2123 C2125 1.433 . S
C2124 C2120 1.350 . S
C2124 C2121 1.463 . S
C2124 N2128 1.427 . S
C2125 H2115 0.929 . S
C2125 C2123 1.433 . S
C2125 N2128 1.384 . S
C2126 H2117 0.929 . S
C2126 C2118 1.378 . S
C2126 C2121 1.350 . S
C2127 H2114 0.929 . S
C2127 C2119 1.433 . S
C2127 N2129 1.384 . S
N2128 C2124 1.427 . S
N2128 C2125 1.384 . S
N2129 C2121 1.427 . S
N2129 C2127 1.384 . S
H2130 C2136 0.930 . S
H2131 C2140 0.930 . S
H2132 C2145 0.929 . S
H2133 C2143 0.929 . S
H2134 C2138 0.929 . S
H2135 C2144 0.929 . S
C2136 H2130 0.930 . S
C2136 C2137 1.367 . S
C2136 C2144 1.378 . S
C2137 C2136 1.367 . S
C2137 C2145 1.433 . S
C2138 H2134 0.929 . S
C2138 C2140 1.378 . S
C2138 C2142 1.350 . S
C2139 C2142 1.463 1_556 S
C2139 C2144 1.350 . S
C2139 N2147 1.427 . S
C2140 H2131 0.930 . S
C2140 C2138 1.378 . S
C2140 C2141 1.367 . S
C2141 C2140 1.367 . S
C2141 C2143 1.433 . S
C2142 C2138 1.350 . S
C2142 C2139 1.463 1_554 S
C2142 N2146 1.427 . S
C2143 H2133 0.929 . S
C2143 C2141 1.433 . S
C2143 N2146 1.384 . S
C2144 H2135 0.929 . S
C2144 C2136 1.378 . S
C2144 C2139 1.350 . S
C2145 H2132 0.929 . S
C2145 C2137 1.433 . S
C2145 N2147 1.384 . S
N2146 C2142 1.427 . S
N2146 C2143 1.384 . S
N2147 C2139 1.427 . S
N2147 C2145 1.384 . S
H2148 C2154 0.930 . S
H2149 C2158 0.930 . S
H2150 C2163 0.929 . S
H2151 C2161 0.929 . S
H2152 C2156 0.929 . S
H2153 C2162 0.929 . S
C2154 H2148 0.930 . S
C2154 C2155 1.367 . S
C2154 C2162 1.378 . S
C2155 C2154 1.367 . S
C2155 C2163 1.433 . S
C2156 H2152 0.929 . S
C2156 C2158 1.378 . S
C2156 C2160 1.350 . S
C2157 C2160 1.463 . S
C2157 C2162 1.350 . S
C2157 N2165 1.427 . S
C2158 H2149 0.930 . S
C2158 C2156 1.378 . S
C2158 C2159 1.367 . S
C2159 C2158 1.367 . S
C2159 C2161 1.433 . S
C2160 C2156 1.350 . S
C2160 C2157 1.463 . S
C2160 N2164 1.427 . S
C2161 H2151 0.929 . S
C2161 C2159 1.433 . S
C2161 N2164 1.384 . S
C2162 H2153 0.929 . S
C2162 C2154 1.378 . S
C2162 C2157 1.350 . S
C2163 H2150 0.929 . S
C2163 C2155 1.433 . S
C2163 N2165 1.384 . S
N2164 C2160 1.427 . S
N2164 C2161 1.384 . S
N2165 C2157 1.427 . S
N2165 C2163 1.384 . S
H2166 C2172 0.930 . S
H2167 C2176 0.930 . S
H2168 C2181 0.929 . S
H2169 C2179 0.929 . S
H2170 C2174 0.929 . S
H2171 C2180 0.929 . S
C2172 H2166 0.930 . S
C2172 C2173 1.367 . S
C2172 C2180 1.378 . S
C2173 C2172 1.367 . S
C2173 C2181 1.433 . S
C2174 H2170 0.929 . S
C2174 C2176 1.378 . S
C2174 C2178 1.350 . S
C2175 C2178 1.463 . S
C2175 C2180 1.350 . S
C2175 N2183 1.427 . S
C2176 H2167 0.930 . S
C2176 C2174 1.378 . S
C2176 C2177 1.367 . S
C2177 C2176 1.367 . S
C2177 C2179 1.433 . S
C2178 C2174 1.350 . S
C2178 C2175 1.463 . S
C2178 N2182 1.427 . S
C2179 H2169 0.929 . S
C2179 C2177 1.433 . S
C2179 N2182 1.384 . S
C2180 H2171 0.929 . S
C2180 C2172 1.378 . S
C2180 C2175 1.350 . S
C2181 H2168 0.929 . S
C2181 C2173 1.433 . S
C2181 N2183 1.384 . S
N2182 C2178 1.427 . S
N2182 C2179 1.384 . S
N2183 C2175 1.427 . S
N2183 C2181 1.384 . S
H2184 C2190 0.930 . S
H2185 C2194 0.930 . S
H2186 C2199 0.929 . S
H2187 C2197 0.929 . S
H2188 C2192 0.929 . S
H2189 C2198 0.929 . S
C2190 H2184 0.930 . S
C2190 C2191 1.367 . S
C2190 C2198 1.378 . S
C2191 C2190 1.367 . S
C2191 C2199 1.433 . S
C2192 H2188 0.929 . S
C2192 C2194 1.378 . S
C2192 C2196 1.350 . S
C2193 C2196 1.463 . S
C2193 C2198 1.350 . S
C2193 N2201 1.427 . S
C2194 H2185 0.930 . S
C2194 C2192 1.378 . S
C2194 C2195 1.367 . S
C2195 C2194 1.367 . S
C2195 C2197 1.433 . S
C2196 C2192 1.350 . S
C2196 C2193 1.463 . S
C2196 N2200 1.427 . S
C2197 H2187 0.929 . S
C2197 C2195 1.433 . S
C2197 N2200 1.384 . S
C2198 H2189 0.929 . S
C2198 C2190 1.378 . S
C2198 C2193 1.350 . S
C2199 H2186 0.929 . S
C2199 C2191 1.433 . S
C2199 N2201 1.384 . S
N2200 C2196 1.427 . S
N2200 C2197 1.384 . S
N2201 C2193 1.427 . S
N2201 C2199 1.384 . S
H2202 C2208 0.930 . S
H2203 C2212 0.930 . S
H2204 C2217 0.929 . S
H2205 C2215 0.929 . S
H2206 C2210 0.929 1_554 S
H2207 C2216 0.929 . S
C2208 H2202 0.930 . S
C2208 C2209 1.367 . S
C2208 C2216 1.378 . S
C2209 C2208 1.367 . S
C2209 C2217 1.433 . S
C2210 H2206 0.929 1_556 S
C2210 C2212 1.378 . S
C2210 C2214 1.350 1_556 S
C2211 C2214 1.463 . S
C2211 C2216 1.350 . S
C2211 N2219 1.427 . S
C2212 H2203 0.930 . S
C2212 C2210 1.378 . S
C2212 C2213 1.367 . S
C2213 C2212 1.367 . S
C2213 C2215 1.433 . S
C2214 C2210 1.350 1_554 S
C2214 C2211 1.463 . S
C2214 N2218 1.427 . S
C2215 H2205 0.929 . S
C2215 C2213 1.433 . S
C2215 N2218 1.384 1_556 S
C2216 H2207 0.929 . S
C2216 C2208 1.378 . S
C2216 C2211 1.350 . S
C2217 H2204 0.929 . S
C2217 C2209 1.433 . S
C2217 N2219 1.384 . S
N2218 C2214 1.427 . S
N2218 C2215 1.384 1_554 S
N2219 C2211 1.427 . S
N2219 C2217 1.384 . S
H2220 C2226 0.930 . S
H2221 C2230 0.930 . S
H2222 C2235 0.929 . S
H2223 C2233 0.929 . S
H2224 C2228 0.929 . S
H2225 C2234 0.929 . S
C2226 H2220 0.930 . S
C2226 C2227 1.367 . S
C2226 C2234 1.378 . S
C2227 C2226 1.367 . S
C2227 C2235 1.433 . S
C2228 H2224 0.929 . S
C2228 C2230 1.378 . S
C2228 C2232 1.350 . S
C2229 C2232 1.463 . S
C2229 C2234 1.350 . S
C2229 N2237 1.427 . S
C2230 H2221 0.930 . S
C2230 C2228 1.378 . S
C2230 C2231 1.367 . S
C2231 C2230 1.367 . S
C2231 C2233 1.433 . S
C2232 C2228 1.350 . S
C2232 C2229 1.463 . S
C2232 N2236 1.427 . S
C2233 H2223 0.929 . S
C2233 C2231 1.433 . S
C2233 N2236 1.384 . S
C2234 H2225 0.929 . S
C2234 C2226 1.378 . S
C2234 C2229 1.350 . S
C2235 H2222 0.929 . S
C2235 C2227 1.433 . S
C2235 N2237 1.384 . S
N2236 C2232 1.427 . S
N2236 C2233 1.384 . S
N2237 C2229 1.427 . S
N2237 C2235 1.384 . S
H2238 C2244 0.930 . S
H2239 C2248 0.930 . S
H2240 C2253 0.929 . S
H2241 C2251 0.929 . S
H2242 C2246 0.929 . S
H2243 C2252 0.929 . S
C2244 H2238 0.930 . S
C2244 C2245 1.367 . S
C2244 C2252 1.378 . S
C2245 C2244 1.367 . S
C2245 C2253 1.433 . S
C2246 H2242 0.929 . S
C2246 C2248 1.378 . S
C2246 C2250 1.350 . S
C2247 C2250 1.463 . S
C2247 C2252 1.350 . S
C2247 N2255 1.427 . S
C2248 H2239 0.930 . S
C2248 C2246 1.378 . S
C2248 C2249 1.367 . S
C2249 C2248 1.367 . S
C2249 C2251 1.433 . S
C2250 C2246 1.350 . S
C2250 C2247 1.463 . S
C2250 N2254 1.427 . S
C2251 H2241 0.929 . S
C2251 C2249 1.433 . S
C2251 N2254 1.384 . S
C2252 H2243 0.929 . S
C2252 C2244 1.378 . S
C2252 C2247 1.350 . S
C2253 H2240 0.929 . S
C2253 C2245 1.433 . S
C2253 N2255 1.384 . S
N2254 C2250 1.427 . S
N2254 C2251 1.384 . S
N2255 C2247 1.427 . S
N2255 C2253 1.384 . S
H2256 C2262 0.930 . S
H2257 C2266 0.930 . S
H2258 C2271 0.929 . S
H2259 C2269 0.929 . S
H2260 C2264 0.929 . S
H2261 C2270 0.929 . S
C2262 H2256 0.930 . S
C2262 C2263 1.367 . S
C2262 C2270 1.378 . S
C2263 C2262 1.367 . S
C2263 C2271 1.433 . S
C2264 H2260 0.929 . S
C2264 C2266 1.378 . S
C2264 C2268 1.350 . S
C2265 C2268 1.463 . S
C2265 C2270 1.350 . S
C2265 N2273 1.427 . S
C2266 H2257 0.930 . S
C2266 C2264 1.378 . S
C2266 C2267 1.367 . S
C2267 C2266 1.367 . S
C2267 C2269 1.433 . S
C2268 C2264 1.350 . S
C2268 C2265 1.463 . S
C2268 N2272 1.427 . S
C2269 H2259 0.929 . S
C2269 C2267 1.433 . S
C2269 N2272 1.384 . S
C2270 H2261 0.929 . S
C2270 C2262 1.378 . S
C2270 C2265 1.350 . S
C2271 H2258 0.929 . S
C2271 C2263 1.433 . S
C2271 N2273 1.384 . S
N2272 C2268 1.427 . S
N2272 C2269 1.384 . S
N2273 C2265 1.427 . S
N2273 C2271 1.384 . S
H2274 C2280 0.930 . S
H2275 C2284 0.930 . S
H2276 C2289 0.929 . S
H2277 C2287 0.929 . S
H2278 C2282 0.929 . S
H2279 C2288 0.929 . S
C2280 H2274 0.930 . S
C2280 C2281 1.367 . S
C2280 C2288 1.378 . S
C2281 C2280 1.367 . S
C2281 C2289 1.433 . S
C2282 H2278 0.929 . S
C2282 C2284 1.378 . S
C2282 C2286 1.350 . S
C2283 C2286 1.463 . S
C2283 C2288 1.350 . S
C2283 N2291 1.427 . S
C2284 H2275 0.930 . S
C2284 C2282 1.378 . S
C2284 C2285 1.367 . S
C2285 C2284 1.367 . S
C2285 C2287 1.433 . S
C2286 C2282 1.350 . S
C2286 C2283 1.463 . S
C2286 N2290 1.427 . S
C2287 H2277 0.929 . S
C2287 C2285 1.433 . S
C2287 N2290 1.384 . S
C2288 H2279 0.929 . S
C2288 C2280 1.378 . S
C2288 C2283 1.350 . S
C2289 H2276 0.929 . S
C2289 C2281 1.433 . S
C2289 N2291 1.384 . S
N2290 C2286 1.427 . S
N2290 C2287 1.384 . S
N2291 C2283 1.427 . S
N2291 C2289 1.384 . S
H2292 C2298 0.930 . S
H2293 C2302 0.930 . S
H2294 C2307 0.929 . S
H2295 C2305 0.929 . S
H2296 C2300 0.929 1_565 S
H2297 C2306 0.929 . S
C2298 H2292 0.930 . S
C2298 C2299 1.367 . S
C2298 C2306 1.378 . S
C2299 C2298 1.367 . S
C2299 C2307 1.433 . S
C2300 H2296 0.929 1_545 S
C2300 C2302 1.378 . S
C2300 C2304 1.350 1_545 S
C2301 C2304 1.463 . S
C2301 C2306 1.350 . S
C2301 N2309 1.427 . S
C2302 H2293 0.930 . S
C2302 C2300 1.378 . S
C2302 C2303 1.367 . S
C2303 C2302 1.367 . S
C2303 C2305 1.433 . S
C2304 C2300 1.350 1_565 S
C2304 C2301 1.463 . S
C2304 N2308 1.427 1_565 S
C2305 H2295 0.929 . S
C2305 C2303 1.433 . S
C2305 N2308 1.384 . S
C2306 H2297 0.929 . S
C2306 C2298 1.378 . S
C2306 C2301 1.350 . S
C2307 H2294 0.929 . S
C2307 C2299 1.433 . S
C2307 N2309 1.384 . S
N2308 C2304 1.427 1_545 S
N2308 C2305 1.384 . S
N2309 C2301 1.427 . S
N2309 C2307 1.384 . S
H2310 C2316 0.930 . S
H2311 C2320 0.930 . S
H2312 C2325 0.929 . S
H2313 C2323 0.929 . S
H2314 C2318 0.929 . S
H2315 C2324 0.929 . S
C2316 H2310 0.930 . S
C2316 C2317 1.367 . S
C2316 C2324 1.378 . S
C2317 C2316 1.367 . S
C2317 C2325 1.433 . S
C2318 H2314 0.929 . S
C2318 C2320 1.378 . S
C2318 C2322 1.350 . S
C2319 C2322 1.463 . S
C2319 C2324 1.350 . S
C2319 N2327 1.427 . S
C2320 H2311 0.930 . S
C2320 C2318 1.378 . S
C2320 C2321 1.367 . S
C2321 C2320 1.367 . S
C2321 C2323 1.433 . S
C2322 C2318 1.350 . S
C2322 C2319 1.463 . S
C2322 N2326 1.427 . S
C2323 H2313 0.929 . S
C2323 C2321 1.433 . S
C2323 N2326 1.384 . S
C2324 H2315 0.929 . S
C2324 C2316 1.378 . S
C2324 C2319 1.350 . S
C2325 H2312 0.929 . S
C2325 C2317 1.433 . S
C2325 N2327 1.384 . S
N2326 C2322 1.427 . S
N2326 C2323 1.384 . S
N2327 C2319 1.427 . S
N2327 C2325 1.384 . S
H2328 C2334 0.930 . S
H2329 C2338 0.930 . S
H2330 C2343 0.929 . S
H2331 C2341 0.929 . S
H2332 C2336 0.929 . S
H2333 C2342 0.929 . S
C2334 H2328 0.930 . S
C2334 C2335 1.367 . S
C2334 C2342 1.378 . S
C2335 C2334 1.367 . S
C2335 C2343 1.433 . S
C2336 H2332 0.929 . S
C2336 C2338 1.378 . S
C2336 C2340 1.350 . S
C2337 C2340 1.463 . S
C2337 C2342 1.350 . S
C2337 N2345 1.427 . S
C2338 H2329 0.930 . S
C2338 C2336 1.378 . S
C2338 C2339 1.367 . S
C2339 C2338 1.367 . S
C2339 C2341 1.433 . S
C2340 C2336 1.350 . S
C2340 C2337 1.463 . S
C2340 N2344 1.427 . S
C2341 H2331 0.929 . S
C2341 C2339 1.433 . S
C2341 N2344 1.384 . S
C2342 H2333 0.929 . S
C2342 C2334 1.378 . S
C2342 C2337 1.350 . S
C2343 H2330 0.929 . S
C2343 C2335 1.433 . S
C2343 N2345 1.384 . S
N2344 C2340 1.427 . S
N2344 C2341 1.384 . S
N2345 C2337 1.427 . S
N2345 C2343 1.384 . S
H2346 C2352 0.930 . S
H2347 C2356 0.930 . S
H2348 C2361 0.929 . S
H2349 C2359 0.929 . S
H2350 C2354 0.929 . S
H2351 C2360 0.929 . S
C2352 H2346 0.930 . S
C2352 C2353 1.367 . S
C2352 C2360 1.378 . S
C2353 C2352 1.367 . S
C2353 C2361 1.433 . S
C2354 H2350 0.929 . S
C2354 C2356 1.378 . S
C2354 C2358 1.350 . S
C2355 C2358 1.463 . S
C2355 C2360 1.350 . S
C2355 N2363 1.427 . S
C2356 H2347 0.930 . S
C2356 C2354 1.378 . S
C2356 C2357 1.367 . S
C2357 C2356 1.367 . S
C2357 C2359 1.433 . S
C2358 C2354 1.350 . S
C2358 C2355 1.463 . S
C2358 N2362 1.427 . S
C2359 H2349 0.929 . S
C2359 C2357 1.433 . S
C2359 N2362 1.384 . S
C2360 H2351 0.929 . S
C2360 C2352 1.378 . S
C2360 C2355 1.350 . S
C2361 H2348 0.929 . S
C2361 C2353 1.433 . S
C2361 N2363 1.384 . S
N2362 C2358 1.427 . S
N2362 C2359 1.384 . S
N2363 C2355 1.427 . S
N2363 C2361 1.384 . S
H2364 C2370 0.930 . S
H2365 C2374 0.930 . S
H2366 C2379 0.929 . S
H2367 C2377 0.929 . S
H2368 C2372 0.929 . S
H2369 C2378 0.915 1_545 S
C2370 H2364 0.930 . S
C2370 C2371 1.367 . S
C2370 C2378 1.378 . S
C2371 C2370 1.367 . S
C2371 C2379 1.433 . S
C2372 H2368 0.929 . S
C2372 C2374 1.378 . S
C2372 C2376 1.350 . S
C2373 C2376 1.463 . S
C2373 C2378 1.350 1_545 S
C2373 N2381 1.415 1_545 S
C2374 H2365 0.930 . S
C2374 C2372 1.378 . S
C2374 C2375 1.367 . S
C2375 C2374 1.367 . S
C2375 C2377 1.433 . S
C2376 C2372 1.350 . S
C2376 C2373 1.463 . S
C2376 N2380 1.427 . S
C2377 H2367 0.929 . S
C2377 C2375 1.433 . S
C2377 N2380 1.384 . S
C2378 H2369 0.915 1_565 S
C2378 C2370 1.378 . S
C2378 C2373 1.350 1_565 S
C2379 H2366 0.929 . S
C2379 C2371 1.433 . S
C2379 N2381 1.432 . S
N2380 C2376 1.427 . S
N2380 C2377 1.384 . S
N2381 C2373 1.415 1_565 S
N2381 C2379 1.432 . S
H2382 C2388 0.930 . S
H2383 C2392 0.930 . S
H2384 C2397 0.929 . S
H2385 C2395 0.929 . S
H2386 C2390 0.929 1_565 S
H2387 C2396 0.929 . S
C2388 H2382 0.930 . S
C2388 C2389 1.367 . S
C2388 C2396 1.378 . S
C2389 C2388 1.367 . S
C2389 C2397 1.433 . S
C2390 H2386 0.929 1_545 S
C2390 C2392 1.378 . S
C2390 C2394 1.350 1_545 S
C2391 C2394 1.463 . S
C2391 C2396 1.350 . S
C2391 N2399 1.427 . S
C2392 H2383 0.930 . S
C2392 C2390 1.378 . S
C2392 C2393 1.367 . S
C2393 C2392 1.367 . S
C2393 C2395 1.433 . S
C2394 C2390 1.350 1_565 S
C2394 C2391 1.463 . S
C2394 N2398 1.427 . S
C2395 H2385 0.929 . S
C2395 C2393 1.433 . S
C2395 N2398 1.384 1_545 S
C2396 H2387 0.929 . S
C2396 C2388 1.378 . S
C2396 C2391 1.350 . S
C2397 H2384 0.929 . S
C2397 C2389 1.433 . S
C2397 N2399 1.384 . S
N2398 C2394 1.427 . S
N2398 C2395 1.384 1_565 S
N2399 C2391 1.427 . S
N2399 C2397 1.384 . S
C679 C594 1.260 . S
C683 C7 1.204 . S
C697 C23 1.522 . S
C701 C219 1.502 . S
C715 C34 1.228 . S
C719 C567 1.303 . S
C733 C50 1.495 . S
C737 C246 1.497 . S
C751 C624 1.581 . S
C755 C64 1.617 . S
C769 C77 1.426 . S
C773 C301 1.502 . S
C787 C93 1.655 . S
C791 C653 1.616 . S
C805 C105 1.441 . S
C809 C272 1.499 . S
C823 C49 1.204 . S
C827 C664 1.207 . S
C841 C8 1.410 . S
C845 C357 1.424 . S
C859 C373 1.355 . S
C863 C20 1.348 . S
C877 C37 1.528 . S
C881 C343 1.542 . S
C895 C78 1.718 . S
C899 C344 1.661 . S
C913 C90 1.537 . S
C917 C667 1.538 . S
C931 C106 1.618 . S
C935 C358 1.613 . S
C949 C63 1.377 . S
C953 C370 1.389 . S
C967 C552 1.151 . S
C971 C119 1.138 . S
C985 C135 1.693 . S
C989 C275 1.620 . S
C1003 C120 1.439 . S
C1007 C623 1.460 . S
C1021 C302 1.733 . S
C1025 C149 1.780 . S
C1039 C314 1.363 . S
C1043 C161 1.326 . S
C1057 C581 1.232 . S
C1061 C176 1.227 . S
C1075 C597 1.420 . S
C1079 C188 1.427 . S
C1093 C568 1.414 . S
C1097 C202 1.391 . S
C1111 C468 1.237 . S
C1115 C217 1.203 . S
C1129 C233 1.530 . S
C1133 C9 1.494 . S
C1147 C244 1.332 . S
C1151 C441 1.398 . S
C1165 C36 1.449 . S
C1169 C260 1.465 . S
C1183 C274 1.614 . S
C1187 C499 1.579 . S
C1201 C91 1.517 . S
C1205 C286 1.436 . S
C1219 C303 1.635 . S
C1223 C527 1.618 . S
C1237 C62 1.489 . S
C1241 C315 1.423 . S
C1255 C538 1.255 . S
C1259 C259 1.234 . S
C1273 C218 1.433 . S
C1277 C147 1.446 . S
C1291 C163 1.308 . S
C1295 C230 1.316 . S
C1309 C133 1.520 . S
C1313 C247 1.508 . S
C1327 C134 1.668 . S
C1331 C289 1.719 . S
C1345 C300 1.534 . S
C1349 C541 1.533 . S
C1363 C148 1.671 . S
C1367 C316 1.670 . S
C1381 C273 1.365 . S
C1385 C160 1.358 . S
C1399 C329 1.209 . S
C1403 C426 1.234 . S
C1417 C345 1.665 . S
C1421 C65 1.582 . S
C1435 C330 1.405 . S
C1439 C496 1.425 . S
C1453 C359 1.710 . S
C1457 C92 1.669 . S
C1471 C371 1.295 . S
C1475 C104 1.330 . S
C1489 C455 1.275 . S
C1493 C386 1.281 . S
C1507 C398 1.418 . S
C1511 C471 1.399 . S
C1525 C415 1.751 . S
C1529 C442 1.711 . S
C1543 C427 1.354 . S
C1547 C258 1.414 . S
C1561 C443 1.537 . S
C1565 C555 1.522 . S
C1579 C231 1.311 . S
C1583 C454 1.229 . S
C1597 C470 1.480 . S
C1601 C582 1.458 . S
C1615 C484 1.633 . S
C1619 C288 1.595 . S
C1633 C637 1.495 . S
C1637 C497 1.423 . S
C1651 C513 1.650 . S
C1655 C317 1.611 . S
C1669 C608 1.345 . S
C1673 C525 1.286 . S
C1687 C328 1.180 . S
C1691 C469 1.186 . S
C1705 C414 1.630 . S
C1709 C428 1.638 . S
C1723 C440 1.486 . S
C1727 C387 1.474 . S
C1741 C399 1.553 . S
C1745 C457 1.543 . S
C1759 C498 1.708 . S
C1763 C400 1.659 . S
C1777 C331 1.419 . S
C1781 C510 1.417 . S
C1795 C526 1.394 . S
C1799 C413 1.403 . S
C1813 C483 1.402 . S
C1817 C384 1.408 . S
C1831 C539 1.159 . S
C1835 C216 1.167 . S
C1849 C191 1.631 . S
C1853 C611 1.574 . S
C1867 C287 1.476 . S
C1871 C540 1.460 . S
C1885 C638 1.642 . S
C1889 C205 1.681 . S
C1903 C650 1.337 . S
C1907 C175 1.305 . S
C1921 C162 1.273 . S
C1925 C245 1.264 . S
C1939 C132 1.480 . S
C1943 C261 1.481 . S
C1957 C232 1.487 . S
C1961 C146 1.461 . S
C1975 C553 1.226 . S
C1979 C48 1.264 . S
C1993 C429 1.520 . S
C1997 C569 1.552 . S
C2011 C580 1.218 . S
C2015 C21 1.290 . S
C2029 C596 1.498 . S
C2033 C456 1.472 . S
C2047 C79 1.619 . S
C2051 C610 1.638 . S
C2065 C622 1.324 . S
C2069 C511 1.406 . S
C2083 C639 1.659 . S
C2087 C107 1.616 . S
C2101 C482 1.510 . S
C2105 C651 1.445 . S
C2119 C595 1.221 . S
C2123 C118 1.221 . S
C2137 C203 1.376 . S
C2141 C554 1.356 . S
C2155 C177 1.363 . S
C2159 C566 1.353 . S
C2173 C583 1.541 . S
C2177 C189 1.557 . S
C2191 C625 1.742 . S
C2195 C190 1.691 . S
C2209 C121 1.565 . S
C2213 C636 1.584 . S
C2227 C204 1.584 . S
C2231 C652 1.604 . S
C2245 C609 1.358 . S
C2249 C174 1.340 . S
C2263 C6 1.189 . S
C2267 C665 1.165 . S
C2281 C401 1.703 . S
C2285 C485 1.624 . S
C2299 C76 1.458 . S
C2303 C666 1.451 . S
C2317 C512 1.441 . S
C2321 C412 1.407 . S
C2335 C524 1.280 . S
C2339 C385 1.251 . S
C2353 C372 1.248 . S
C2357 C35 1.251 . S
C2371 C342 1.469 . S
C2375 C51 1.461 . S
C2389 C22 1.474 . S
C2393 C356 1.431 . S
