# Generated by pormake.
# Topology umj, (4)-cn, num edge types: 1
# Building blocks:
#     Node 0, Type 0, BuildingBlock: ESEHIV_clean_sbu_0, # of connection points: 4
#     Node 1, Type 0, BuildingBlock: ESEHIV_clean_sbu_0, # of connection points: 4
#     Node 2, Type 0, BuildingBlock: ESEHIV_clean_sbu_0, # of connection points: 4
#     Node 3, Type 0, BuildingBlock: ESEHIV_clean_sbu_0, # of connection points: 4
#     Node 4, Type 0, BuildingBlock: ESEHIV_clean_sbu_0, # of connection points: 4
#     Node 5, Type 0, BuildingBlock: ESEHIV_clean_sbu_0, # of connection points: 4
#     Node 6, Type 0, BuildingBlock: ESEHIV_clean_sbu_0, # of connection points: 4
#     Node 7, Type 0, BuildingBlock: ESEHIV_clean_sbu_0, # of connection points: 4
#     Node 8, Type 0, BuildingBlock: ESEHIV_clean_sbu_0, # of connection points: 4
#     Node 9, Type 0, BuildingBlock: ESEHIV_clean_sbu_0, # of connection points: 4
#     Node 10, Type 0, BuildingBlock: ESEHIV_clean_sbu_0, # of connection points: 4
#     Node 11, Type 0, BuildingBlock: ESEHIV_clean_sbu_0, # of connection points: 4
#     Edge 12, Type (0, 0), BuildingBlock: CIFDUS_clean_linker_0, # of connection points: 2
#     Edge 13, Type (0, 0), BuildingBlock: CIFDUS_clean_linker_0, # of connection points: 2
#     Edge 14, Type (0, 0), BuildingBlock: CIFDUS_clean_linker_0, # of connection points: 2
#     Edge 15, Type (0, 0), BuildingBlock: CIFDUS_clean_linker_0, # of connection points: 2
#     Edge 16, Type (0, 0), BuildingBlock: CIFDUS_clean_linker_0, # of connection points: 2
#     Edge 17, Type (0, 0), BuildingBlock: CIFDUS_clean_linker_0, # of connection points: 2
#     Edge 18, Type (0, 0), BuildingBlock: CIFDUS_clean_linker_0, # of connection points: 2
#     Edge 19, Type (0, 0), BuildingBlock: CIFDUS_clean_linker_0, # of connection points: 2
#     Edge 20, Type (0, 0), BuildingBlock: CIFDUS_clean_linker_0, # of connection points: 2
#     Edge 21, Type (0, 0), BuildingBlock: CIFDUS_clean_linker_0, # of connection points: 2
#     Edge 22, Type (0, 0), BuildingBlock: CIFDUS_clean_linker_0, # of connection points: 2
#     Edge 23, Type (0, 0), BuildingBlock: CIFDUS_clean_linker_0, # of connection points: 2
#     Edge 24, Type (0, 0), BuildingBlock: CIFDUS_clean_linker_0, # of connection points: 2
#     Edge 25, Type (0, 0), BuildingBlock: CIFDUS_clean_linker_0, # of connection points: 2
#     Edge 26, Type (0, 0), BuildingBlock: CIFDUS_clean_linker_0, # of connection points: 2
#     Edge 27, Type (0, 0), BuildingBlock: CIFDUS_clean_linker_0, # of connection points: 2
#     Edge 28, Type (0, 0), BuildingBlock: CIFDUS_clean_linker_0, # of connection points: 2
#     Edge 29, Type (0, 0), BuildingBlock: CIFDUS_clean_linker_0, # of connection points: 2
#     Edge 30, Type (0, 0), BuildingBlock: CIFDUS_clean_linker_0, # of connection points: 2
#     Edge 31, Type (0, 0), BuildingBlock: CIFDUS_clean_linker_0, # of connection points: 2
#     Edge 32, Type (0, 0), BuildingBlock: CIFDUS_clean_linker_0, # of connection points: 2
#     Edge 33, Type (0, 0), BuildingBlock: CIFDUS_clean_linker_0, # of connection points: 2
#     Edge 34, Type (0, 0), BuildingBlock: CIFDUS_clean_linker_0, # of connection points: 2
#     Edge 35, Type (0, 0), BuildingBlock: CIFDUS_clean_linker_0, # of connection points: 2
# Relax obj value: 0.040
# Max RMSD: 0.100
# Mean RMSD: 0.086
data_MOF--net-umj--node1-ESEHIV_clean_sbu_0--edge1-CIFDUS_clean_linker_0
_symmetry_space_group_name_H-M    P1
_symmetry_Int_Tables_number       1
_symmetry_cell_setting            triclinic
loop_
_symmetry_equiv_pos_as_xyz
'x, y, z'
_cell_length_a     26.343618
_cell_length_b     31.026855
_cell_length_c     79.014418
_cell_angle_alpha  90.115427
_cell_angle_beta   89.988337
_cell_angle_gamma 114.73037
loop_
_atom_site_label
_atom_site_type_symbol
_atom_site_fract_x
_atom_site_fract_y
_atom_site_fract_z
_atom_type_partial_charge
Cu0 Cu 0.02089 0.26234 0.09695 0.0
N1 N 0.97598 0.19774 0.09252 0.0
N2 N 0.95339 0.11945 0.09003 0.0
C3 C 0.99224 0.1623 0.09515 0.0
C4 C 0.91099 0.12873 0.08392 0.0
C5 C 0.92505 0.17682 0.08543 0.0
O6 O 0.07816 0.28228 0.07942 0.0
C7 C 0.06244 0.29983 0.12986 0.0
O8 O 0.07193 0.34139 0.12334 0.0
H9 H 0.03212 0.16817 0.10072 0.0
H10 H 0.90035 0.19532 0.08134 0.0
N11 N 0.98429 0.30329 0.0959 0.0
N12 N 0.97598 0.37275 0.09561 0.0
C13 C 1.00975 0.3504 0.09272 0.0
C14 C 0.93227 0.29525 0.10083 0.0
C15 C 0.92694 0.33775 0.1006 0.0
C16 C 0.06063 0.28408 0.06448 0.0
O17 O 1.00751 0.27455 0.06238 0.0
H18 H 0.05317 0.36803 0.08903 0.0
H19 H 0.90134 0.26137 0.10515 0.0
O20 O 0.04637 0.26357 0.12023 0.0
H21 H 0.87289 0.10294 0.07832 0.0
H22 H 0.89052 0.34263 0.10471 0.0
Cu23 Cu 0.75745 1.00408 0.41209 0.0
N24 N 0.77088 0.03029 0.43407 0.0
N25 N 0.77504 0.03775 0.46239 0.0
C26 C 0.75894 1.00747 0.44909 0.0
C27 C 0.79783 0.08145 0.45541 0.0
C28 C 0.79517 0.07671 0.43803 0.0
O29 O 0.67599 0.97194 0.40777 0.0
C30 C 0.82441 0.95027 0.41878 0.0
O31 O 0.80937 0.94795 0.43468 0.0
H32 H 0.7396 0.96928 0.45024 0.0
H33 H 0.81001 0.10521 0.42889 0.0
N34 N 0.78357 0.05354 0.39603 0.0
N35 N 0.82741 0.09737 0.37345 0.0
C36 C 0.82442 0.06272 0.38438 0.0
C37 C 0.76007 0.08344 0.39235 0.0
C38 C 0.78694 0.11047 0.3785 0.0
C39 C 0.63633 0.95507 0.41858 0.0
O40 O 0.64818 0.95065 0.43442 0.0
H41 H 0.85004 0.04314 0.38356 0.0
H42 H 0.72483 0.08463 0.39902 0.0
O43 O 0.80256 0.96782 0.40785 0.0
H44 H 0.81485 0.11465 0.4623 0.0
H45 H 0.7773 0.13763 0.37262 0.0
Cu46 Cu 0.73462 0.78116 0.77384 0.0
N47 N 0.81219 0.81704 0.77185 0.0
N48 N 0.89065 0.88412 0.76962 0.0
C49 C 0.83424 0.86443 0.76964 0.0
C50 C 0.90478 0.8474 0.77199 0.0
C51 C 0.85625 0.806 0.77333 0.0
O52 O 0.7027 0.80725 0.75641 0.0
C53 C 0.74001 0.76868 0.8079 0.0
O54 O 0.76905 0.74673 0.80167 0.0
H55 H 0.80898 0.88426 0.76858 0.0
H56 H 0.85343 0.77069 0.77556 0.0
N57 N 0.70641 0.71577 0.76927 0.0
N58 N 0.64037 0.64135 0.76618 0.0
C59 C 0.65179 0.68645 0.77085 0.0
C60 C 0.73093 0.68844 0.76339 0.0
C61 C 0.69035 0.6425 0.76152 0.0
C62 C 0.72396 0.80733 0.74186 0.0
O63 O 0.76073 0.78915 0.7404 0.0
H64 H 0.62105 0.69836 0.77538 0.0
H65 H 0.77484 0.70107 0.76038 0.0
O66 O 0.71768 0.78736 0.79757 0.0
H67 H 0.94707 0.85018 0.77273 0.0
H68 H 0.69709 0.61266 0.75668 0.0
Cu69 Cu 0.9561 0.74671 0.09734 0.0
N70 N 0.99943 0.81286 0.09498 0.0
N71 N 0.02151 0.89117 0.09281 0.0
C72 C 0.9808 0.84742 0.09603 0.0
C73 C 0.06734 0.88337 0.08943 0.0
C74 C 0.05361 0.83539 0.09072 0.0
O75 O 0.91409 0.72619 0.07632 0.0
C76 C 0.93421 0.7601 0.13167 0.0
O77 O 0.9745 0.8024 0.12925 0.0
H78 H 0.93821 0.84047 0.0993 0.0
H79 H 0.08104 0.81806 0.08839 0.0
N80 N 0.99665 0.70906 0.09787 0.0
N81 N 1.00655 0.6403 0.09775 0.0
C82 C 0.97285 0.66224 0.0942 0.0
C83 C 0.04759 0.71746 0.10398 0.0
C84 C 0.05395 0.67528 0.10381 0.0
C85 C 0.88418 0.74367 0.06891 0.0
O86 O 0.86926 0.77346 0.07702 0.0
H87 H 0.93058 0.64448 0.08947 0.0
H88 H 0.07696 0.7512 0.10896 0.0
O89 O 0.91567 0.73203 0.11903 0.0
H90 H 0.10791 0.9102 0.08589 0.0
H91 H 0.08973 0.67051 0.1086 0.0
Cu92 Cu 0.23515 0.96583 0.41723 0.0
N93 N 0.25894 1.01742 0.43226 0.0
N94 N 0.27473 0.05362 0.45758 0.0
C95 C 0.2626 1.01258 0.44911 0.0
C96 C 0.27918 0.08572 0.44548 0.0
C97 C 0.26906 0.06324 0.4299 0.0
O98 O 0.2861 0.93454 0.42081 0.0
C99 C 0.12613 0.95314 0.41568 0.0
O100 O 0.15313 0.9944 0.40831 0.0
H101 H 0.25518 0.97905 0.45502 0.0
H102 H 0.26684 0.07884 0.41787 0.0
N103 N 0.24018 0.98153 0.39414 0.0
N104 N 0.22688 0.96914 0.36627 0.0
C105 C 0.2148 0.94962 0.38181 0.0
C106 C 0.26905 0.02288 0.38612 0.0
C107 C 0.26116 1.01525 0.36891 0.0
C108 C 0.33528 0.95742 0.41475 0.0
O109 O 0.34659 0.99792 0.40711 0.0
H110 H 0.1896 0.91236 0.38421 0.0
H111 H 0.29541 0.05584 0.39226 0.0
O112 O 0.15429 0.93123 0.42143 0.0
H113 H 0.28659 0.12228 0.44775 0.0
H114 H 0.27993 0.04142 0.3591 0.0
Cu115 Cu 0.27289 0.25766 0.77355 0.0
N116 N 0.19547 0.22049 0.77194 0.0
N117 N 0.11795 0.15217 0.77189 0.0
C118 C 0.17418 0.1729 0.77335 0.0
C119 C 0.10321 0.18852 0.76939 0.0
C120 C 0.15113 0.23068 0.76949 0.0
O121 O 0.30554 0.23177 0.75623 0.0
C122 C 0.26514 0.26958 0.80737 0.0
O123 O 0.23395 0.28908 0.80081 0.0
H124 H 0.20005 0.15389 0.7752 0.0
H125 H 0.15329 0.26602 0.76798 0.0
N126 N 0.30034 0.32291 0.76887 0.0
N127 N 0.36652 0.39732 0.76593 0.0
C128 C 0.35442 0.35271 0.7713 0.0
C129 C 0.27686 0.34944 0.7617 0.0
C130 C 0.3175 0.39539 0.75995 0.0
C131 C 0.28303 0.22956 0.74174 0.0
O132 O 0.24392 0.24512 0.74025 0.0
H133 H 0.38442 0.34137 0.7768 0.0
H134 H 0.23385 0.33621 0.75759 0.0
O135 O 0.29019 0.25263 0.79728 0.0
H136 H 0.06085 0.18508 0.76789 0.0
H137 H 0.31165 0.42457 0.75417 0.0
Cu138 Cu 0.73149 0.96867 0.60549 0.0
N139 N 0.71959 0.94011 0.58409 0.0
N140 N 0.71585 0.93364 0.55583 0.0
C141 C 0.72812 0.96342 0.56924 0.0
C142 C 0.69898 0.88984 0.56258 0.0
C143 C 0.7015 0.89397 0.58 0.0
O144 O 0.68687 1.00608 0.60639 0.0
C145 C 0.84341 0.98217 0.607 0.0
O146 O 0.81883 0.93589 0.60505 0.0
H147 H 0.74232 1.0015 0.56835 0.0
H148 H 0.69113 0.8654 0.58902 0.0
N149 N 0.70634 0.92393 0.62308 0.0
N150 N 0.69925 0.89236 0.64893 0.0
C151 C 0.73069 0.92772 0.63836 0.0
C152 C 0.65803 0.88459 0.62401 0.0
C153 C 0.6535 0.86514 0.63994 0.0
C154 C 0.63473 0.98442 0.60296 0.0
O155 O 0.61474 0.93944 0.59866 0.0
H156 H 0.77005 0.95653 0.64181 0.0
H157 H 0.62777 0.87113 0.61391 0.0
O158 O 0.8128 1.00506 0.60785 0.0
H159 H 0.68648 0.85716 0.55547 0.0
H160 H 0.61956 0.83317 0.64449 0.0
Cu161 Cu 0.76077 0.75647 0.94335 0.0
N162 N 0.78859 0.82179 0.94803 0.0
N163 N 0.85638 0.89587 0.94999 0.0
C164 C 0.8373 0.85384 0.94168 0.0
C165 C 0.81705 0.89008 0.96187 0.0
C166 C 0.77562 0.84436 0.9607 0.0
O167 O 0.79048 0.72858 0.96067 0.0
C168 C 0.75202 0.76666 0.90932 0.0
O169 O 0.721 0.78669 0.91565 0.0
H170 H 0.86003 0.84506 0.93186 0.0
H171 H 0.74103 0.82773 0.96933 0.0
N172 N 0.6837 0.72059 0.94582 0.0
N173 N 0.60692 0.65196 0.94791 0.0
C174 C 0.66106 0.67339 0.94313 0.0
C175 C 0.6424 0.72998 0.95246 0.0
C176 C 0.59483 0.6877 0.95367 0.0
C177 C 0.83373 0.7513 0.96963 0.0
O178 O 0.87112 0.79237 0.96429 0.0
H179 H 0.68498 0.6551 0.93819 0.0
H180 H 0.64709 0.76452 0.95681 0.0
O181 O 0.77661 0.74983 0.91958 0.0
H182 H 0.81989 0.91569 0.97155 0.0
H183 H 0.55538 0.68348 0.95915 0.0
Cu184 Cu 0.06851 0.78196 0.25341 0.0
N185 N 0.11045 0.84624 0.24733 0.0
N186 N 0.12881 0.92422 0.24669 0.0
C187 C 0.09315 0.88012 0.25169 0.0
C188 C 0.17064 0.91753 0.23882 0.0
C189 C 0.15924 0.86958 0.23923 0.0
O190 O 0.06223 0.7884 0.27782 0.0
C191 C 0.98487 0.733 0.22831 0.0
O192 O 1.0043 0.70035 0.22854 0.0
H193 H 0.05517 0.8722 0.25877 0.0
H194 H 0.18489 0.85314 0.23408 0.0
N195 N 0.1007 0.73801 0.24936 0.0
N196 N 0.11259 0.66996 0.25075 0.0
C197 C 0.08921 0.69715 0.25797 0.0
C198 C 0.13278 0.73668 0.23628 0.0
C199 C 0.14013 0.69505 0.2371 0.0
C200 C 0.11058 0.80657 0.28465 0.0
O201 O 0.15377 0.81047 0.27541 0.0
H202 H 0.06217 0.68668 0.26894 0.0
H203 H 0.14813 0.76329 0.22647 0.0
O204 O 1.00077 0.7652 0.23972 0.0
H205 H 0.20685 0.9451 0.23303 0.0
H206 H 0.16371 0.68406 0.22822 0.0
Cu207 Cu 0.29 0.08674 0.60294 0.0
N208 N 0.30381 0.11934 0.58229 0.0
N209 N 0.31178 0.13284 0.55432 0.0
C210 C 0.30155 0.10035 0.56677 0.0
C211 C 0.32073 0.1738 0.56243 0.0
C212 C 0.31566 0.16534 0.57962 0.0
O213 O 0.33458 0.04929 0.60328 0.0
C214 C 0.17786 0.07266 0.6054 0.0
O215 O 0.20231 0.11926 0.60512 0.0
H216 H 0.2927 0.0634 0.56473 0.0
H217 H 0.31944 0.19077 0.58946 0.0
N218 N 0.31336 0.12848 0.6215 0.0
N219 N 0.31813 0.15577 0.64799 0.0
C220 C 0.2887 0.12123 0.63684 0.0
C221 C 0.35985 0.16918 0.62302 0.0
C222 C 0.36297 0.18602 0.63934 0.0
C223 C 0.38745 0.07169 0.60131 0.0
O224 O 0.40841 0.11759 0.59856 0.0
H225 H 0.25037 0.09074 0.63983 0.0
H226 H 0.38965 0.18548 0.61299 0.0
O227 O 0.20856 0.04983 0.6047 0.0
H228 H 0.32899 0.20735 0.5564 0.0
H229 H 0.39513 0.21841 0.64437 0.0
Cu230 Cu 0.22629 0.27504 0.94248 0.0
N231 N 0.20129 0.20956 0.94621 0.0
N232 N 0.13637 0.13481 0.94935 0.0
C233 C 0.14663 0.1812 0.9484 0.0
C234 C 0.18705 0.134 0.94768 0.0
C235 C 0.22704 0.18017 0.94576 0.0
O236 O 0.185 0.29438 0.95912 0.0
C237 C 0.24332 0.26975 0.90857 0.0
O238 O 0.27768 0.25366 0.91525 0.0
H239 H 0.11468 0.19454 0.94861 0.0
H240 H 0.27131 0.19123 0.94372 0.0
N241 N 0.3021 0.31442 0.94638 0.0
N242 N 0.37753 0.38393 0.94887 0.0
C243 C 0.32282 0.36193 0.94468 0.0
C244 C 0.34518 0.30554 0.95179 0.0
C245 C 0.39178 0.34834 0.9533 0.0
C246 C 0.20003 0.29158 0.97431 0.0
O247 O 0.24088 0.27846 0.9767 0.0
H248 H 0.29766 0.37984 0.94043 0.0
H249 H 0.34271 0.27071 0.95475 0.0
O250 O 0.21368 0.28236 0.91852 0.0
H251 H 0.19479 0.10238 0.94774 0.0
H252 H 0.43252 0.35277 0.95775 0.0
Cu253 Cu 0.056 0.26778 0.26113 0.0
N254 N 0.10832 0.24032 0.26178 0.0
N255 N 0.14479 0.18625 0.25957 0.0
C256 C 0.09763 0.1939 0.25958 0.0
C257 C 0.18653 0.22984 0.26213 0.0
C258 C 0.16408 0.26278 0.26344 0.0
O259 O 0.99513 0.23268 0.27712 0.0
C260 C 0.015 0.22908 0.22801 0.0
O261 O 1.0003 0.18701 0.23482 0.0
H262 H 0.05604 0.16643 0.25769 0.0
H263 H 0.18695 0.30063 0.26524 0.0
N264 N 0.0861 0.3334 0.26698 0.0
N265 N 0.10122 0.41077 0.26644 0.0
C266 C 0.0826 0.36903 0.25779 0.0
C267 C 0.10784 0.35345 0.28193 0.0
C268 C 0.11721 0.4008 0.28164 0.0
C269 C 1.00797 0.22096 0.29148 0.0
O270 O 0.06089 0.23228 0.2948 0.0
H271 H 0.06455 0.3639 0.24524 0.0
H272 H 0.11487 0.33461 0.29253 0.0
O273 O 0.03398 0.26573 0.23745 0.0
H274 H 0.23053 0.23784 0.26298 0.0
H275 H 0.13426 0.42587 0.29192 0.0
H276 H 0.06084 0.31109 0.20978 0.0
H277 H 0.97511 0.15905 0.20403 0.0
H278 H 0.98496 0.16725 0.17331 0.0
H279 H 0.01809 0.2175 0.14802 0.0
H280 H 0.10335 0.36953 0.15383 0.0
H281 H 0.09419 0.36123 0.18454 0.0
C282 C 0.04386 0.27969 0.20183 0.0
C283 C 0.01699 0.23448 0.20928 0.0
C284 C 0.05022 0.2846 0.18415 0.0
C285 C 0.99577 0.1943 0.1987 0.0
C286 C 1.00162 0.19893 0.18111 0.0
C287 C 0.03526 0.24882 0.15599 0.0
C288 C 0.06167 0.2941 0.14856 0.0
C289 C 0.02907 0.24387 0.17369 0.0
C290 C 0.083 0.33424 0.15915 0.0
C291 C 0.07755 0.32956 0.17674 0.0
H292 H 0.70315 0.95584 0.47704 0.0
H293 H 0.83609 0.09273 0.48834 0.0
H294 H 0.8286 0.07295 0.51832 0.0
H295 H 0.78587 1.01617 0.54141 0.0
H296 H 0.65439 0.8788 0.53006 0.0
H297 H 0.66084 0.89899 0.50005 0.0
C298 C 0.73095 0.98129 0.48597 0.0
C299 C 0.77015 0.02585 0.48024 0.0
C300 C 0.72695 0.96947 0.50327 0.0
C301 C 0.80497 0.05846 0.49224 0.0
C302 C 0.801 0.04704 0.50945 0.0
C303 C 0.75827 0.99078 0.53241 0.0
C304 C 0.7197 0.94596 0.53807 0.0
C305 C 0.76221 1.00264 0.51512 0.0
C306 C 0.68493 0.91329 0.52611 0.0
C307 C 0.68838 0.92493 0.50892 0.0
H308 H 0.78859 0.73568 0.83188 0.0
H309 H 0.68262 0.80968 0.82608 0.0
H310 H 0.67767 0.81564 0.8569 0.0
H311 H 0.70346 0.79988 0.88536 0.0
H312 H 0.80974 0.72614 0.89111 0.0
H313 H 0.81466 0.7202 0.8603 0.0
C314 C 0.76425 0.7531 0.8373 0.0
C315 C 0.73587 0.77217 0.8266 0.0
C316 C 0.76179 0.75652 0.855 0.0
C317 C 0.70478 0.79467 0.83395 0.0
C318 C 0.702 0.7981 0.85159 0.0
C319 C 0.72783 0.7825 0.87993 0.0
C320 C 0.75625 0.76344 0.89062 0.0
C321 C 0.73038 0.77919 0.86222 0.0
C322 C 0.78753 0.74113 0.88326 0.0
C323 C 0.79028 0.73769 0.86563 0.0
H324 H 0.93857 0.81164 0.1598 0.0
H325 H 0.90516 0.66977 0.14331 0.0
H326 H 0.91058 0.64654 0.17262 0.0
H327 H 0.93972 0.67039 0.20221 0.0
H328 H 0.97242 0.81253 0.21848 0.0
H329 H 0.95145 0.8314 0.19013 0.0
C330 C 0.93096 0.77527 0.16268 0.0
C331 C 0.92194 0.74261 0.14936 0.0
C332 C 0.93475 0.76233 0.17954 0.0
C333 C 0.91186 0.69556 0.1533 0.0
C334 C 0.91557 0.6824 0.17007 0.0
C335 C 0.94097 0.70516 0.19967 0.0
C336 C 0.95856 0.74015 0.21248 0.0
C337 C 0.92921 0.71602 0.18321 0.0
C338 C 0.9593 0.78485 0.20894 0.0
C339 C 0.94765 0.79585 0.19265 0.0
H340 H 0.25784 0.05042 0.53711 0.0
H341 H 0.36596 0.19875 0.53037 0.0
H342 H 0.36402 0.18743 0.4998 0.0
H343 H 0.3315 0.13546 0.47478 0.0
H344 H 0.22349 0.98716 0.48165 0.0
H345 H 0.22668 0.9983 0.51221 0.0
C346 C 0.28152 0.08023 0.52902 0.0
C347 C 0.3118 0.12547 0.53619 0.0
C348 C 0.28047 0.07346 0.51136 0.0
C349 C 0.34154 0.16368 0.52532 0.0
C350 C 0.34073 0.15719 0.50777 0.0
C351 C 0.30842 0.10561 0.48294 0.0
C352 C 0.27746 0.06049 0.47577 0.0
C353 C 0.3101 0.11229 0.50062 0.0
C354 C 0.24841 0.02216 0.48667 0.0
C355 C 0.24988 0.02855 0.50422 0.0
H356 H 0.20965 0.29766 0.83075 0.0
H357 H 0.32716 0.23442 0.82618 0.0
H358 H 0.33034 0.22906 0.85707 0.0
H359 H 0.29954 0.24213 0.88521 0.0
H360 H 0.18136 0.30472 0.8897 0.0
H361 H 0.1786 0.31042 0.85885 0.0
C362 C 0.23615 0.28275 0.83645 0.0
C363 C 0.26829 0.26653 0.82609 0.0
C364 C 0.23751 0.27959 0.85418 0.0
C365 C 0.30209 0.2472 0.8338 0.0
C366 C 0.30386 0.24412 0.85146 0.0
C367 C 0.27309 0.25706 0.87949 0.0
C368 C 0.24066 0.27303 0.88984 0.0
C369 C 0.2717 0.26016 0.86176 0.0
C370 C 0.20667 0.29215 0.88211 0.0
C371 C 0.20515 0.29544 0.86446 0.0
H372 H 0.03468 0.29383 0.03179 0.0
H373 H 0.16861 0.29307 0.06312 0.0
H374 H 0.22486 0.29918 0.03787 0.0
H375 H 0.23326 0.29893 1.007 0.0
H376 H 0.09909 0.29815 0.97548 0.0
H377 H 0.04577 0.29902 1.00081 0.0
C378 C 0.07636 0.29535 0.03315 0.0
C379 C 0.09717 0.29254 0.04939 0.0
C380 C 0.10828 0.29847 0.01855 0.0
C381 C 0.15145 0.29501 0.05084 0.0
C382 C 0.18358 0.29838 0.03638 0.0
C383 C 0.1925 0.29932 1.00561 0.0
C384 C 0.16998 0.29804 0.98932 0.0
C385 C 0.16199 0.29924 0.02019 0.0
C386 C 0.1174 0.29911 0.98782 0.0
C387 C 0.08683 0.29937 1.00232 0.0
H388 H 0.80853 0.13462 0.34427 0.0
H389 H 0.93227 0.1028 0.37053 0.0
H390 H 0.9979 0.13677 0.34726 0.0
H391 H 0.02157 0.17777 0.31992 0.0
H392 H 0.89831 0.20898 0.29312 0.0
H393 H 0.83123 0.17311 0.3161 0.0
C394 C 0.84992 0.13529 0.34495 0.0
C395 C 0.86536 0.11627 0.35929 0.0
C396 C 0.88761 0.15484 0.3314 0.0
C397 C 0.91894 0.11674 0.3597 0.0
C398 C 0.95667 0.13643 0.34639 0.0
C399 C 0.97999 0.1767 0.31903 0.0
C400 C 0.96529 0.19645 0.30478 0.0
C401 C 0.94164 0.15586 0.33224 0.0
C402 C 0.9109 0.19412 0.30387 0.0
C403 C 0.87255 0.17371 0.31706 0.0
H404 H 0.79468 0.8539 0.71698 0.0
H405 H 0.62277 0.80608 0.73234 0.0
H406 H 0.59966 0.82949 0.70467 0.0
H407 H 0.62801 0.85834 0.67528 0.0
H408 H 0.80109 0.908 0.66088 0.0
H409 H 0.82434 0.88925 0.68904 0.0
C410 C 0.7522 0.84907 0.71434 0.0
C411 C 0.71031 0.82793 0.72658 0.0
C412 C 0.73953 0.86261 0.69853 0.0
C413 C 0.65569 0.82246 0.72312 0.0
C414 C 0.64249 0.83549 0.70726 0.0
C415 C 0.67076 0.86512 0.67838 0.0
C416 C 0.71278 0.88412 0.66596 0.0
C417 C 0.68391 0.85467 0.69473 0.0
C418 C 0.76819 0.89359 0.67022 0.0
C419 C 0.78141 0.8827 0.68629 0.0
H420 H 0.79267 0.71477 0.04813 0.0
H421 H 0.97239 0.77011 0.04791 0.0
H422 H 0.97341 0.7753 0.01704 0.0
H423 H 0.92342 0.76879 0.99011 0.0
H424 H 0.74324 0.70705 0.98996 0.0
H425 H 0.74201 0.69888 0.02072 0.0
C426 C 0.83183 0.72747 0.04124 0.0
C427 C 0.88237 0.7423 0.05021 0.0
C428 C 0.83204 0.7291 0.02339 0.0
C429 C 0.93296 0.75837 0.04121 0.0
C430 C 0.9336 0.76147 0.02357 0.0
C431 C 0.88394 0.75276 0.9968 0.0
C432 C 0.83362 0.73865 0.98774 0.0
C433 C 0.88345 0.7475 1.01452 0.0
C434 C 0.78268 0.71781 0.99659 0.0
C435 C 0.78189 0.71351 1.01423 0.0
H436 H 0.2046 0.88069 0.29394 0.0
H437 H 0.04023 0.78983 0.31225 0.0
H438 H 0.06179 0.83249 0.33948 0.0
H439 H 0.12904 0.89558 0.35812 0.0
H440 H 0.29102 0.9874 0.33838 0.0
H441 H 0.26859 0.94457 0.31155 0.0
C442 C 0.1734 0.86985 0.3039 0.0
C443 C 0.12116 0.83158 0.30119 0.0
C444 C 0.18571 0.89498 0.31922 0.0
C445 C 0.08085 0.81894 0.31408 0.0
C446 C 0.09325 0.84334 0.32962 0.0
C447 C 0.15926 0.90603 0.34791 0.0
C448 C 0.21175 0.94463 0.35025 0.0
C449 C 0.14575 0.88135 0.33236 0.0
C450 C 0.25027 0.95827 0.33686 0.0
C451 C 0.23758 0.93357 0.32155 0.0
H452 H 0.38785 0.19094 0.67468 0.0
H453 H 0.21431 0.13217 0.65999 0.0
H454 H 0.18803 0.14605 0.68843 0.0
H455 H 0.21477 0.18037 0.71668 0.0
H456 H 0.38729 0.23778 0.73225 0.0
H457 H 0.41381 0.21842 0.70436 0.0
C458 C 0.34434 0.18107 0.67778 0.0
C459 C 0.30306 0.16095 0.66519 0.0
C460 C 0.32947 0.18886 0.69428 0.0
C461 C 0.24673 0.14749 0.66944 0.0
C462 C 0.23173 0.15562 0.68568 0.0
C463 C 0.25815 0.18808 0.71404 0.0
C464 C 0.29915 0.21079 0.72641 0.0
C465 C 0.27279 0.17697 0.69809 0.0
C466 C 0.35503 0.22009 0.72294 0.0
C467 C 0.37015 0.2094 0.70696 0.0
H468 H 0.07798 0.59717 0.09687 0.0
H469 H 0.90256 0.5676 0.09656 0.0
H470 H 0.8781 0.48305 0.09517 0.0
H471 H 0.90549 0.41653 0.09454 0.0
H472 H 0.08059 0.4453 0.09606 0.0
H473 H 0.10545 0.53016 0.09638 0.0
C474 C 0.03436 0.57239 0.09659 0.0
C475 C 0.99248 0.58966 0.09675 0.0
C476 C 0.02017 0.52308 0.09597 0.0
C477 C 0.93616 0.55629 0.09618 0.0
C478 C 0.9219 0.50748 0.0955 0.0
C479 C 0.94915 0.4411 0.09505 0.0
C480 C 0.99078 0.42359 0.09527 0.0
C481 C 0.96346 0.49036 0.09545 0.0
C482 C 0.04719 0.45685 0.09566 0.0
C483 C 0.06164 0.5058 0.09596 0.0
H484 H 0.5407 0.91656 0.43784 0.0
H485 H 0.60141 0.97987 0.38908 0.0
H486 H 0.51147 0.98149 0.38312 0.0
H487 H 0.41933 0.97293 0.3928 0.0
H488 H 0.35636 0.90915 0.44118 0.0
H489 H 0.44291 0.89903 0.44613 0.0
C490 C 0.53404 0.93004 0.42579 0.0
C491 C 0.57845 0.94852 0.414 0.0
C492 C 0.48179 0.93102 0.42241 0.0
C493 C 0.5685 0.96549 0.39843 0.0
C494 C 0.51697 0.96664 0.39502 0.0
C495 C 0.4241 0.95606 0.40434 0.0
C496 C 0.38154 0.94211 0.41667 0.0
C497 C 0.47391 0.95068 0.40708 0.0
C498 C 0.38821 0.91994 0.43145 0.0
C499 C 0.43798 0.91457 0.43433 0.0
H500 H 0.38864 0.49106 0.76497 0.0
H501 H 0.46848 0.39475 0.76663 0.0
H502 H 0.55992 0.46149 0.767 0.0
H503 H 0.61818 0.54759 0.76698 0.0
H504 H 0.53853 0.64392 0.76439 0.0
H505 H 0.44701 0.57719 0.76425 0.0
C506 C 0.42593 0.48452 0.76528 0.0
C507 C 0.42094 0.43746 0.76589 0.0
C508 C 0.47896 0.52335 0.76537 0.0
C509 C 0.47029 0.43021 0.76647 0.0
C510 C 0.52298 0.46854 0.76656 0.0
C511 C 0.58096 0.55414 0.76624 0.0
C512 C 0.58596 0.60121 0.7658 0.0
C513 C 0.52793 0.51532 0.76605 0.0
C514 C 0.53664 0.60848 0.76504 0.0
C515 C 0.48394 0.57014 0.76485 0.0
H516 H 0.50092 0.11322 0.60374 0.0
H517 H 0.36092 0.97605 0.60088 0.0
H518 H 0.42521 0.93746 0.60133 0.0
H519 H 0.52107 0.94276 0.60194 0.0
H520 H 0.66099 0.07981 0.60552 0.0
H521 H 0.59664 0.11838 0.60544 0.0
C522 C 0.48429 0.07483 0.60321 0.0
C523 C 0.42592 0.04761 0.60215 0.0
C524 C 0.52153 0.05291 0.6036 0.0
C525 C 0.40543 0.99791 0.60168 0.0
C526 C 0.44226 0.97584 0.60191 0.0
C527 C 0.53769 0.98112 0.60271 0.0
C528 C 0.59608 1.00836 0.60362 0.0
C529 C 0.50038 1.00299 0.60277 0.0
C530 C 0.61647 0.05795 0.6048 0.0
C531 C 0.57961 0.08002 0.60472 0.0
H532 H 0.49089 0.42826 0.94798 0.0
H533 H 0.34308 0.45536 0.95013 0.0
H534 H 0.40067 0.54039 0.94974 0.0
H535 H 0.49339 0.60797 0.94875 0.0
H536 H 0.64097 0.58032 0.94789 0.0
H537 H 0.58328 0.4955 0.94784 0.0
C538 C 0.47108 0.45258 0.94852 0.0
C539 C 0.41229 0.43469 0.94897 0.0
C540 C 0.50461 0.5019 0.94847 0.0
C541 C 0.38792 0.46741 0.94946 0.0
C542 C 0.42098 0.51639 0.94936 0.0
C543 C 0.51306 0.58351 0.94867 0.0
C544 C 0.57186 0.60126 0.94814 0.0
C545 C 0.47943 0.53415 0.94884 0.0
C546 C 0.59611 0.56844 0.94792 0.0
C547 C 0.56301 0.51954 0.94803 0.0
H548 H 0.11738 0.59933 0.23113 0.0
H549 H 0.09751 0.63496 0.28274 0.0
H550 H 0.09197 0.55808 0.29217 0.0
H551 H 0.09388 0.48054 0.28593 0.0
H552 H 0.11182 0.44416 0.23427 0.0
H553 H 0.11685 0.52088 0.2248 0.0
C554 C 0.11216 0.59051 0.24446 0.0
C555 C 0.10818 0.62358 0.25618 0.0
C556 C 0.10857 0.54573 0.24984 0.0
C557 C 0.10034 0.61057 0.27337 0.0
C558 C 0.09743 0.56649 0.2788 0.0
C559 C 0.09921 0.48937 0.2726 0.0
C560 C 0.10276 0.45614 0.26088 0.0
C561 C 0.10169 0.53376 0.26718 0.0
C562 C 0.10857 0.46843 0.24361 0.0
C563 C 0.11173 0.5126 0.23818 0.0
H564 H 0.04681 0.10284 0.09306 0.0
H565 H 0.86735 0.03147 0.08829 0.0
H566 H 0.87239 0.95485 0.08862 0.0
H567 H 0.92756 0.90731 0.09005 0.0
H568 H 0.1067 0.97906 0.09586 0.0
H569 H 0.10152 0.05547 0.09536 0.0
C570 C 1.00858 0.07072 0.09226 0.0
C571 C 0.95673 0.07373 0.09058 0.0
C572 C 1.01161 0.02629 0.09259 0.0
C573 C 0.90803 0.03101 0.08934 0.0
C574 C 0.9108 0.98683 0.08963 0.0
C575 C 0.96554 0.93949 0.09137 0.0
C576 C 0.01755 0.93665 0.09288 0.0
C577 C 0.96236 0.98392 0.09121 0.0
C578 C 0.06608 0.97941 0.09438 0.0
C579 C 0.06318 0.02348 0.0942 0.0
H580 H 0.88188 0.91337 0.43874 0.0
H581 H 0.88033 0.96823 0.38863 0.0
H582 H 0.97094 0.96793 0.3827 0.0
H583 H 0.05559 0.96187 0.39286 0.0
H584 H 0.05935 0.90753 0.44274 0.0
H585 H 0.96262 0.89701 0.44756 0.0
C586 C 0.90084 0.92446 0.4264 0.0
C587 C 0.87425 0.94141 0.41423 0.0
C588 C 0.95358 0.92454 0.42308 0.0
C589 C 0.89953 0.95523 0.39828 0.0
C590 C 0.95164 0.95526 0.39489 0.0
C591 C 0.03479 0.94675 0.40467 0.0
C592 C 0.06464 0.93575 0.41748 0.0
C593 C 0.97974 0.94144 0.40736 0.0
C594 C 0.03716 0.91592 0.43265 0.0
C595 C 0.98205 0.91041 0.43544 0.0
H596 H 0.01516 0.10485 0.75796 0.0
H597 H 0.13966 0.08521 0.78846 0.0
H598 H 0.08148 1.0003 0.78987 0.0
H599 H 0.99421 0.93104 0.78291 0.0
H600 H 0.86915 0.95048 0.75268 0.0
H601 H 0.92789 0.03547 0.75093 0.0
C602 C 0.02942 0.08212 0.76503 0.0
C603 C 0.08215 0.10184 0.77299 0.0
C604 C 0.99542 0.03294 0.76589 0.0
C605 C 0.09991 0.07135 0.78194 0.0
C606 C 0.06641 0.02259 0.78284 0.0
C607 C 0.98004 0.95376 0.77579 0.0
C608 C 0.92706 0.93413 0.76802 0.0
C609 C 1.01411 1.00288 0.77485 0.0
C610 C 0.90926 0.96448 0.75902 0.0
C611 C 0.943 1.01321 0.75794 0.0
H612 H 0.91732 0.94144 0.6058 0.0
H613 H 0.91044 0.0777 0.60957 0.0
H614 H 1.01266 0.11712 0.6097 0.0
H615 H 0.10398 0.1131 0.60817 0.0
H616 H 0.11089 0.97686 0.60435 0.0
H617 H 1.00868 0.93733 0.60484 0.0
C618 C 0.93801 0.9798 0.60669 0.0
C619 C 0.90579 1.00649 0.60764 0.0
C620 C 0.99694 1.00227 0.60671 0.0
C621 C 0.9338 0.05616 0.60882 0.0
C622 C 0.99238 0.07875 0.60887 0.0
C623 C 0.0833 0.07471 0.60747 0.0
C624 C 0.11552 0.04808 0.60617 0.0
C625 C 0.02439 0.05219 0.60773 0.0
C626 C 0.08753 0.99836 0.60534 0.0
C627 C 0.02895 0.97571 0.60561 0.0
H628 H 0.88702 0.98684 0.96039 0.0
H629 H 0.95053 0.89478 0.93601 0.0
H630 H 0.04239 0.96026 0.93373 0.0
H631 H 0.10598 0.04407 0.93872 0.0
H632 H 0.04339 0.13556 0.96384 0.0
H633 H 0.95091 0.0702 0.96583 0.0
C634 C 0.92088 0.98087 0.95466 0.0
C635 C 0.91092 0.93546 0.94832 0.0
C636 C 0.97439 0.01884 0.95353 0.0
C637 C 0.95581 0.92909 0.94076 0.0
C638 C 1.00893 0.96664 0.93956 0.0
C639 C 0.07235 0.04968 0.94478 0.0
C640 C 0.0821 0.09508 0.95105 0.0
C641 C 0.01885 1.01169 0.94593 0.0
C642 C 0.03736 0.10145 0.95867 0.0
C643 C 0.98427 0.0639 0.95989 0.0
H644 H 0.20976 1.01495 0.24477 0.0
H645 H 0.03378 0.93482 0.25461 0.0
H646 H 0.02335 1.00799 0.25973 0.0
H647 H 0.0636 0.09543 0.26156 0.0
H648 H 0.23888 0.17549 0.2506 0.0
H649 H 0.24943 0.10232 0.24586 0.0
C650 C 0.16894 1.01321 0.2479 0.0
C651 C 0.12287 0.96851 0.24936 0.0
C652 C 0.16283 0.05592 0.25073 0.0
C653 C 0.07054 0.96795 0.25361 0.0
C654 C 0.06431 1.01014 0.25647 0.0
C655 C 0.10412 0.09719 0.25803 0.0
C656 C 0.15031 0.14187 0.25663 0.0
C657 C 0.11012 0.05444 0.2551 0.0
C658 C 0.20243 0.14237 0.25214 0.0
C659 C 0.2086 0.10019 0.24928 0.0
loop_
_geom_bond_atom_site_label_1
_geom_bond_atom_site_label_2
_geom_bond_distance
_geom_bond_site_symmetry_2
_ccdc_geom_bond_type
Cu0 N1 1.999 . S
Cu0 O6 1.969 1_655 S
Cu0 N11 1.985 . S
Cu0 O20 1.959 . S
N1 Cu0 1.999 . S
N1 C3 1.263 . S
N1 C5 1.389 . S
N2 C3 1.358 . S
N2 C4 1.400 . S
C3 N1 1.263 . S
C3 N2 1.358 . S
C3 H9 0.930 1_655 S
C4 N2 1.400 . S
C4 C5 1.351 . S
C4 H21 0.930 . S
C5 N1 1.389 . S
C5 C4 1.351 . S
C5 H10 0.930 . S
O6 Cu0 1.969 1_455 S
O6 C16 1.294 . S
C7 O8 1.261 1_655 S
C7 O20 1.251 . S
O8 C7 1.261 1_455 S
H9 C3 0.930 1_455 S
H10 C5 0.930 . S
N11 Cu0 1.985 . S
N11 C13 1.335 . S
N11 C14 1.390 1_655 S
N12 C13 1.345 . S
N12 C15 1.336 1_655 S
C13 N11 1.335 . S
C13 N12 1.345 . S
C13 H18 0.930 . S
C14 N11 1.390 1_455 S
C14 C15 1.346 . S
C14 H19 0.930 . S
C15 N12 1.336 1_455 S
C15 C14 1.346 . S
C15 H22 0.929 . S
C16 O6 1.294 . S
C16 O17 1.216 . S
O17 C16 1.216 . S
H18 C13 0.930 . S
H19 C14 0.930 . S
O20 Cu0 1.959 . S
O20 C7 1.251 . S
H21 C4 0.930 . S
H22 C15 0.929 . S
Cu23 N24 1.999 . S
Cu23 O29 1.974 . S
Cu23 N34 1.985 . S
Cu23 O43 1.959 . S
N24 Cu23 1.999 . S
N24 C26 1.263 . S
N24 C28 1.389 . S
N25 C26 1.358 . S
N25 C27 1.400 . S
C26 N24 1.263 . S
C26 N25 1.358 . S
C26 H32 0.930 . S
C27 N25 1.400 . S
C27 C28 1.351 . S
C27 H44 0.930 . S
C28 N24 1.389 . S
C28 C27 1.351 . S
C28 H33 0.930 . S
O29 Cu23 1.974 . S
O29 C39 1.282 . S
C30 O31 1.261 1_545 S
C30 O43 1.251 . S
O31 C30 1.261 1_565 S
H32 C26 0.930 . S
H33 C28 0.930 . S
N34 Cu23 1.985 . S
N34 C36 1.335 . S
N34 C37 1.390 . S
N35 C36 1.345 . S
N35 C38 1.336 . S
C36 N34 1.335 . S
C36 N35 1.345 . S
C36 H41 0.930 . S
C37 N34 1.390 . S
C37 C38 1.346 . S
C37 H42 0.930 . S
C38 N35 1.336 . S
C38 C37 1.346 . S
C38 H45 0.929 . S
C39 O29 1.282 . S
C39 O40 1.216 1_545 S
O40 C39 1.216 1_565 S
H41 C36 0.930 . S
H42 C37 0.930 . S
O43 Cu23 1.959 . S
O43 C30 1.251 . S
H44 C27 0.930 . S
H45 C38 0.929 . S
Cu46 N47 1.999 . S
Cu46 O52 1.974 . S
Cu46 N57 1.985 . S
Cu46 O66 1.959 . S
N47 Cu46 1.999 . S
N47 C49 1.263 . S
N47 C51 1.389 . S
N48 C49 1.358 . S
N48 C50 1.400 . S
C49 N47 1.263 . S
C49 N48 1.358 . S
C49 H55 0.930 . S
C50 N48 1.400 . S
C50 C51 1.351 . S
C50 H67 0.930 . S
C51 N47 1.389 . S
C51 C50 1.351 . S
C51 H56 0.930 . S
O52 Cu46 1.974 . S
O52 C62 1.282 . S
C53 O54 1.261 . S
C53 O66 1.251 . S
O54 C53 1.261 . S
H55 C49 0.930 . S
H56 C51 0.930 . S
N57 Cu46 1.985 . S
N57 C59 1.335 . S
N57 C60 1.390 . S
N58 C59 1.345 . S
N58 C61 1.336 . S
C59 N57 1.335 . S
C59 N58 1.345 . S
C59 H64 0.930 . S
C60 N57 1.390 . S
C60 C61 1.346 . S
C60 H65 0.930 . S
C61 N58 1.336 . S
C61 C60 1.346 . S
C61 H68 0.929 . S
C62 O52 1.282 . S
C62 O63 1.216 . S
O63 C62 1.216 . S
H64 C59 0.930 . S
H65 C60 0.930 . S
O66 Cu46 1.959 . S
O66 C53 1.251 . S
H67 C50 0.930 . S
H68 C61 0.929 . S
Cu69 N70 1.999 . S
Cu69 O75 1.970 1_455 S
Cu69 N80 1.985 . S
Cu69 O89 1.959 . S
N70 Cu69 1.999 . S
N70 C72 1.263 . S
N70 C74 1.389 . S
N71 C72 1.358 . S
N71 C73 1.400 . S
C72 N70 1.263 . S
C72 N71 1.358 . S
C72 H78 0.930 1_455 S
C73 N71 1.400 . S
C73 C74 1.351 . S
C73 H90 0.930 . S
C74 N70 1.389 . S
C74 C73 1.351 . S
C74 H79 0.930 . S
O75 Cu69 1.970 1_655 S
O75 C85 1.293 . S
C76 O77 1.261 1_455 S
C76 O89 1.251 . S
O77 C76 1.261 1_655 S
H78 C72 0.930 1_655 S
H79 C74 0.930 . S
N80 Cu69 1.985 . S
N80 C82 1.335 . S
N80 C83 1.390 1_455 S
N81 C82 1.345 . S
N81 C84 1.336 1_455 S
C82 N80 1.335 . S
C82 N81 1.345 . S
C82 H87 0.930 . S
C83 N80 1.390 1_655 S
C83 C84 1.346 . S
C83 H88 0.930 . S
C84 N81 1.336 1_655 S
C84 C83 1.346 . S
C84 H91 0.929 . S
C85 O75 1.293 . S
C85 O86 1.216 . S
O86 C85 1.216 . S
H87 C82 0.930 . S
H88 C83 0.930 . S
O89 Cu69 1.959 . S
O89 C76 1.251 . S
H90 C73 0.930 . S
H91 C84 0.929 . S
Cu92 N93 1.999 . S
Cu92 O98 1.974 . S
Cu92 N103 1.985 . S
Cu92 O112 1.959 . S
N93 Cu92 1.999 . S
N93 C95 1.263 . S
N93 C97 1.389 . S
N94 C95 1.358 . S
N94 C96 1.400 . S
C95 N93 1.263 . S
C95 N94 1.358 . S
C95 H101 0.930 . S
C96 N94 1.400 . S
C96 C97 1.351 . S
C96 H113 0.930 . S
C97 N93 1.389 . S
C97 C96 1.351 . S
C97 H102 0.930 . S
O98 Cu92 1.974 . S
O98 C108 1.282 . S
C99 O100 1.261 1_565 S
C99 O112 1.251 . S
O100 C99 1.261 1_545 S
H101 C95 0.930 . S
H102 C97 0.930 . S
N103 Cu92 1.985 . S
N103 C105 1.335 . S
N103 C106 1.390 . S
N104 C105 1.345 . S
N104 C107 1.336 . S
C105 N103 1.335 . S
C105 N104 1.345 . S
C105 H110 0.930 . S
C106 N103 1.390 . S
C106 C107 1.346 . S
C106 H111 0.930 . S
C107 N104 1.336 . S
C107 C106 1.346 . S
C107 H114 0.929 . S
C108 O98 1.282 . S
C108 O109 1.216 1_565 S
O109 C108 1.216 1_545 S
H110 C105 0.930 . S
H111 C106 0.930 . S
O112 Cu92 1.959 . S
O112 C99 1.251 . S
H113 C96 0.930 . S
H114 C107 0.929 . S
Cu115 N116 1.999 . S
Cu115 O121 1.974 . S
Cu115 N126 1.985 . S
Cu115 O135 1.959 . S
N116 Cu115 1.999 . S
N116 C118 1.263 . S
N116 C120 1.389 . S
N117 C118 1.358 . S
N117 C119 1.400 . S
C118 N116 1.263 . S
C118 N117 1.358 . S
C118 H124 0.930 . S
C119 N117 1.400 . S
C119 C120 1.351 . S
C119 H136 0.930 . S
C120 N116 1.389 . S
C120 C119 1.351 . S
C120 H125 0.930 . S
O121 Cu115 1.974 . S
O121 C131 1.282 . S
C122 O123 1.261 . S
C122 O135 1.251 . S
O123 C122 1.261 . S
H124 C118 0.930 . S
H125 C120 0.930 . S
N126 Cu115 1.985 . S
N126 C128 1.335 . S
N126 C129 1.390 . S
N127 C128 1.345 . S
N127 C130 1.336 . S
C128 N126 1.335 . S
C128 N127 1.345 . S
C128 H133 0.930 . S
C129 N126 1.390 . S
C129 C130 1.346 . S
C129 H134 0.930 . S
C130 N127 1.336 . S
C130 C129 1.346 . S
C130 H137 0.929 . S
C131 O121 1.282 . S
C131 O132 1.216 . S
O132 C131 1.216 . S
H133 C128 0.930 . S
H134 C129 0.930 . S
O135 Cu115 1.959 . S
O135 C122 1.251 . S
H136 C119 0.930 . S
H137 C130 0.929 . S
Cu138 N139 1.999 . S
Cu138 O144 1.974 . S
Cu138 N149 1.985 . S
Cu138 O158 1.959 . S
N139 Cu138 1.999 . S
N139 C141 1.263 . S
N139 C143 1.389 . S
N140 C141 1.358 . S
N140 C142 1.400 . S
C141 N139 1.263 . S
C141 N140 1.358 . S
C141 H147 0.930 . S
C142 N140 1.400 . S
C142 C143 1.351 . S
C142 H159 0.930 . S
C143 N139 1.389 . S
C143 C142 1.351 . S
C143 H148 0.930 . S
O144 Cu138 1.974 . S
O144 C154 1.282 . S
C145 O146 1.261 1_565 S
C145 O158 1.251 . S
O146 C145 1.261 1_545 S
H147 C141 0.930 . S
H148 C143 0.930 . S
N149 Cu138 1.985 . S
N149 C151 1.335 . S
N149 C152 1.390 . S
N150 C151 1.345 . S
N150 C153 1.336 . S
C151 N149 1.335 . S
C151 N150 1.345 . S
C151 H156 0.930 . S
C152 N149 1.390 . S
C152 C153 1.346 . S
C152 H157 0.930 . S
C153 N150 1.336 . S
C153 C152 1.346 . S
C153 H160 0.929 . S
C154 O144 1.282 . S
C154 O155 1.216 1_565 S
O155 C154 1.216 1_545 S
H156 C151 0.930 . S
H157 C152 0.930 . S
O158 Cu138 1.959 . S
O158 C145 1.251 . S
H159 C142 0.930 . S
H160 C153 0.929 . S
Cu161 N162 1.999 . S
Cu161 O167 1.974 . S
Cu161 N172 1.985 . S
Cu161 O181 1.959 . S
N162 Cu161 1.999 . S
N162 C164 1.263 . S
N162 C166 1.389 . S
N163 C164 1.358 . S
N163 C165 1.400 . S
C164 N162 1.263 . S
C164 N163 1.358 . S
C164 H170 0.930 . S
C165 N163 1.400 . S
C165 C166 1.351 . S
C165 H182 0.930 . S
C166 N162 1.389 . S
C166 C165 1.351 . S
C166 H171 0.930 . S
O167 Cu161 1.974 . S
O167 C177 1.282 . S
C168 O169 1.261 . S
C168 O181 1.251 . S
O169 C168 1.261 . S
H170 C164 0.930 . S
H171 C166 0.930 . S
N172 Cu161 1.985 . S
N172 C174 1.335 . S
N172 C175 1.390 . S
N173 C174 1.345 . S
N173 C176 1.336 . S
C174 N172 1.335 . S
C174 N173 1.345 . S
C174 H179 0.930 . S
C175 N172 1.390 . S
C175 C176 1.346 . S
C175 H180 0.930 . S
C176 N173 1.336 . S
C176 C175 1.346 . S
C176 H183 0.929 . S
C177 O167 1.282 . S
C177 O178 1.216 . S
O178 C177 1.216 . S
H179 C174 0.930 . S
H180 C175 0.930 . S
O181 Cu161 1.959 . S
O181 C168 1.251 . S
H182 C165 0.930 . S
H183 C176 0.929 . S
Cu184 N185 1.999 . S
Cu184 O190 1.974 1_655 S
Cu184 N195 1.985 1_655 S
Cu184 O204 1.959 . S
N185 Cu184 1.999 . S
N185 C187 1.263 1_655 S
N185 C189 1.389 . S
N186 C187 1.358 1_655 S
N186 C188 1.400 . S
C187 N185 1.263 1_455 S
C187 N186 1.358 1_455 S
C187 H193 0.930 . S
C188 N186 1.400 . S
C188 C189 1.351 . S
C188 H205 0.930 . S
C189 N185 1.389 . S
C189 C188 1.351 . S
C189 H194 0.930 . S
O190 Cu184 1.974 1_455 S
O190 C200 1.282 . S
C191 O192 1.261 . S
C191 O204 1.251 1_455 S
O192 C191 1.261 . S
H193 C187 0.930 . S
H194 C189 0.930 . S
N195 Cu184 1.985 1_455 S
N195 C197 1.335 1_455 S
N195 C198 1.390 . S
N196 C197 1.345 1_455 S
N196 C199 1.336 . S
C197 N195 1.335 1_655 S
C197 N196 1.345 1_655 S
C197 H202 0.930 . S
C198 N195 1.390 . S
C198 C199 1.346 . S
C198 H203 0.930 . S
C199 N196 1.336 . S
C199 C198 1.346 . S
C199 H206 0.929 . S
C200 O190 1.282 . S
C200 O201 1.216 . S
O201 C200 1.216 . S
H202 C197 0.930 . S
H203 C198 0.930 . S
O204 Cu184 1.959 . S
O204 C191 1.251 1_655 S
H205 C188 0.930 . S
H206 C199 0.929 . S
Cu207 N208 1.999 . S
Cu207 O213 1.974 . S
Cu207 N218 1.985 . S
Cu207 O227 1.959 . S
N208 Cu207 1.999 . S
N208 C210 1.263 . S
N208 C212 1.389 . S
N209 C210 1.358 . S
N209 C211 1.400 . S
C210 N208 1.263 . S
C210 N209 1.358 . S
C210 H216 0.930 . S
C211 N209 1.400 . S
C211 C212 1.351 . S
C211 H228 0.930 . S
C212 N208 1.389 . S
C212 C211 1.351 . S
C212 H217 0.930 . S
O213 Cu207 1.974 . S
O213 C223 1.282 . S
C214 O215 1.261 1_545 S
C214 O227 1.251 . S
O215 C214 1.261 1_565 S
H216 C210 0.930 . S
H217 C212 0.930 . S
N218 Cu207 1.985 . S
N218 C220 1.335 . S
N218 C221 1.390 . S
N219 C220 1.345 . S
N219 C222 1.336 . S
C220 N218 1.335 . S
C220 N219 1.345 . S
C220 H225 0.930 . S
C221 N218 1.390 . S
C221 C222 1.346 . S
C221 H226 0.930 . S
C222 N219 1.336 . S
C222 C221 1.346 . S
C222 H229 0.929 . S
C223 O213 1.282 . S
C223 O224 1.216 1_545 S
O224 C223 1.216 1_565 S
H225 C220 0.930 . S
H226 C221 0.930 . S
O227 Cu207 1.959 . S
O227 C214 1.251 . S
H228 C211 0.930 . S
H229 C222 0.929 . S
Cu230 N231 1.999 . S
Cu230 O236 1.974 . S
Cu230 N241 1.985 . S
Cu230 O250 1.959 . S
N231 Cu230 1.999 . S
N231 C233 1.263 . S
N231 C235 1.389 . S
N232 C233 1.358 . S
N232 C234 1.400 . S
C233 N231 1.263 . S
C233 N232 1.358 . S
C233 H239 0.930 . S
C234 N232 1.400 . S
C234 C235 1.351 . S
C234 H251 0.930 . S
C235 N231 1.389 . S
C235 C234 1.351 . S
C235 H240 0.930 . S
O236 Cu230 1.974 . S
O236 C246 1.282 . S
C237 O238 1.261 . S
C237 O250 1.251 . S
O238 C237 1.261 . S
H239 C233 0.930 . S
H240 C235 0.930 . S
N241 Cu230 1.985 . S
N241 C243 1.335 . S
N241 C244 1.390 . S
N242 C243 1.345 . S
N242 C245 1.336 . S
C243 N241 1.335 . S
C243 N242 1.345 . S
C243 H248 0.930 . S
C244 N241 1.390 . S
C244 C245 1.346 . S
C244 H249 0.930 . S
C245 N242 1.336 . S
C245 C244 1.346 . S
C245 H252 0.929 . S
C246 O236 1.282 . S
C246 O247 1.216 . S
O247 C246 1.216 . S
H248 C243 0.930 . S
H249 C244 0.930 . S
O250 Cu230 1.959 . S
O250 C237 1.251 . S
H251 C234 0.930 . S
H252 C245 0.929 . S
Cu253 N254 1.999 . S
Cu253 O259 1.974 1_455 S
Cu253 N264 1.985 1_455 S
Cu253 O273 1.959 . S
N254 Cu253 1.999 . S
N254 C256 1.263 1_455 S
N254 C258 1.389 . S
N255 C256 1.358 1_455 S
N255 C257 1.400 . S
C256 N254 1.263 1_655 S
C256 N255 1.358 1_655 S
C256 H262 0.930 . S
C257 N255 1.400 . S
C257 C258 1.351 . S
C257 H274 0.930 . S
C258 N254 1.389 . S
C258 C257 1.351 . S
C258 H263 0.930 . S
O259 Cu253 1.974 1_655 S
O259 C269 1.282 . S
C260 O261 1.261 . S
C260 O273 1.251 1_655 S
O261 C260 1.261 . S
H262 C256 0.930 . S
H263 C258 0.930 . S
N264 Cu253 1.985 1_655 S
N264 C266 1.335 1_655 S
N264 C267 1.390 . S
N265 C266 1.345 1_655 S
N265 C268 1.336 . S
C266 N264 1.335 1_455 S
C266 N265 1.345 1_455 S
C266 H271 0.930 . S
C267 N264 1.390 . S
C267 C268 1.346 . S
C267 H272 0.930 . S
C268 N265 1.336 . S
C268 C267 1.346 . S
C268 H275 0.929 . S
C269 O259 1.282 . S
C269 O270 1.216 . S
O270 C269 1.216 . S
H271 C266 0.930 . S
H272 C267 0.930 . S
O273 Cu253 1.959 . S
O273 C260 1.251 1_455 S
H274 C257 0.930 . S
H275 C268 0.929 . S
H276 C282 0.930 . S
H277 C285 0.930 . S
H278 C286 0.930 . S
H279 C287 0.930 . S
H280 C290 0.930 . S
H281 C291 0.930 . S
C282 H276 0.930 . S
C282 C283 1.355 1_455 S
C282 C284 1.415 . S
C283 C282 1.355 1_655 S
C283 C285 1.419 . S
C284 C282 1.415 . S
C284 C289 1.425 1_455 S
C284 C291 1.409 . S
C285 H277 0.930 . S
C285 C283 1.419 . S
C285 C286 1.362 . S
C286 H278 0.930 . S
C286 C285 1.362 . S
C286 C289 1.409 . S
C287 H279 0.930 . S
C287 C288 1.355 . S
C287 C289 1.415 . S
C288 C287 1.355 . S
C288 C290 1.419 1_655 S
C289 C284 1.425 1_655 S
C289 C286 1.409 . S
C289 C287 1.415 . S
C290 H280 0.930 . S
C290 C288 1.419 1_455 S
C290 C291 1.362 . S
C291 H281 0.930 . S
C291 C284 1.409 . S
C291 C290 1.362 . S
H292 C298 0.930 . S
H293 C301 0.930 . S
H294 C302 0.930 . S
H295 C303 0.930 . S
H296 C306 0.930 . S
H297 C307 0.930 . S
C298 H292 0.930 . S
C298 C299 1.355 1_565 S
C298 C300 1.415 . S
C299 C298 1.355 1_545 S
C299 C301 1.419 . S
C300 C298 1.415 . S
C300 C305 1.425 1_565 S
C300 C307 1.409 . S
C301 H293 0.930 . S
C301 C299 1.419 . S
C301 C302 1.362 . S
C302 H294 0.930 . S
C302 C301 1.362 . S
C302 C305 1.409 . S
C303 H295 0.930 . S
C303 C304 1.355 1_545 S
C303 C305 1.415 . S
C304 C303 1.355 1_565 S
C304 C306 1.419 . S
C305 C300 1.425 1_545 S
C305 C302 1.409 . S
C305 C303 1.415 . S
C306 H296 0.930 . S
C306 C304 1.419 . S
C306 C307 1.362 . S
C307 H297 0.930 . S
C307 C300 1.409 . S
C307 C306 1.362 . S
H308 C314 0.930 . S
H309 C317 0.930 . S
H310 C318 0.930 . S
H311 C319 0.930 . S
H312 C322 0.930 . S
H313 C323 0.930 . S
C314 H308 0.930 . S
C314 C315 1.355 . S
C314 C316 1.415 . S
C315 C314 1.355 . S
C315 C317 1.419 . S
C316 C314 1.415 . S
C316 C321 1.425 . S
C316 C323 1.409 . S
C317 H309 0.930 . S
C317 C315 1.419 . S
C317 C318 1.362 . S
C318 H310 0.930 . S
C318 C317 1.362 . S
C318 C321 1.409 . S
C319 H311 0.930 . S
C319 C320 1.355 . S
C319 C321 1.415 . S
C320 C319 1.355 . S
C320 C322 1.419 . S
C321 C316 1.425 . S
C321 C318 1.409 . S
C321 C319 1.415 . S
C322 H312 0.930 . S
C322 C320 1.419 . S
C322 C323 1.362 . S
C323 H313 0.930 . S
C323 C316 1.409 . S
C323 C322 1.362 . S
H324 C330 0.930 . S
H325 C333 0.930 . S
H326 C334 0.930 . S
H327 C335 0.930 . S
H328 C338 0.930 . S
H329 C339 0.930 . S
C330 H324 0.930 . S
C330 C331 1.355 1_655 S
C330 C332 1.415 . S
C331 C330 1.355 1_455 S
C331 C333 1.419 . S
C332 C330 1.415 . S
C332 C337 1.425 1_655 S
C332 C339 1.409 . S
C333 H325 0.930 . S
C333 C331 1.419 . S
C333 C334 1.362 . S
C334 H326 0.930 . S
C334 C333 1.362 . S
C334 C337 1.409 . S
C335 H327 0.930 . S
C335 C336 1.355 1_455 S
C335 C337 1.415 . S
C336 C335 1.355 1_655 S
C336 C338 1.419 . S
C337 C332 1.425 1_455 S
C337 C334 1.409 . S
C337 C335 1.415 . S
C338 H328 0.930 . S
C338 C336 1.419 . S
C338 C339 1.362 . S
C339 H329 0.930 . S
C339 C332 1.409 . S
C339 C338 1.362 . S
H340 C346 0.930 . S
H341 C349 0.930 . S
H342 C350 0.930 . S
H343 C351 0.930 . S
H344 C354 0.930 . S
H345 C355 0.930 . S
C346 H340 0.930 . S
C346 C347 1.355 1_565 S
C346 C348 1.415 . S
C347 C346 1.355 1_545 S
C347 C349 1.419 . S
C348 C346 1.415 . S
C348 C353 1.425 1_565 S
C348 C355 1.409 . S
C349 H341 0.930 . S
C349 C347 1.419 . S
C349 C350 1.362 . S
C350 H342 0.930 . S
C350 C349 1.362 . S
C350 C353 1.409 . S
C351 H343 0.930 . S
C351 C352 1.355 1_545 S
C351 C353 1.415 . S
C352 C351 1.355 1_565 S
C352 C354 1.419 . S
C353 C348 1.425 1_545 S
C353 C350 1.409 . S
C353 C351 1.415 . S
C354 H344 0.930 . S
C354 C352 1.419 . S
C354 C355 1.362 . S
C355 H345 0.930 . S
C355 C348 1.409 . S
C355 C354 1.362 . S
H356 C362 0.930 . S
H357 C365 0.930 . S
H358 C366 0.930 . S
H359 C367 0.930 . S
H360 C370 0.930 . S
H361 C371 0.930 . S
C362 H356 0.930 . S
C362 C363 1.355 . S
C362 C364 1.415 . S
C363 C362 1.355 . S
C363 C365 1.419 . S
C364 C362 1.415 . S
C364 C369 1.425 . S
C364 C371 1.409 . S
C365 H357 0.930 . S
C365 C363 1.419 . S
C365 C366 1.362 . S
C366 H358 0.930 . S
C366 C365 1.362 . S
C366 C369 1.409 . S
C367 H359 0.930 . S
C367 C368 1.355 . S
C367 C369 1.415 . S
C368 C367 1.355 . S
C368 C370 1.419 . S
C369 C364 1.425 . S
C369 C366 1.409 . S
C369 C367 1.415 . S
C370 H360 0.930 . S
C370 C368 1.419 . S
C370 C371 1.362 . S
C371 H361 0.930 . S
C371 C364 1.409 . S
C371 C370 1.362 . S
H372 C378 0.930 . S
H373 C381 0.930 . S
H374 C382 0.930 . S
H375 C383 0.930 . S
H376 C386 0.930 . S
H377 C387 0.930 . S
C378 H372 0.930 . S
C378 C379 1.355 . S
C378 C380 1.415 1_554 S
C379 C378 1.355 . S
C379 C381 1.419 . S
C380 C378 1.415 1_556 S
C380 C385 1.425 1_556 S
C380 C387 1.409 . S
C381 H373 0.930 . S
C381 C379 1.419 . S
C381 C382 1.362 . S
C382 H374 0.930 . S
C382 C381 1.362 . S
C382 C385 1.409 . S
C383 H375 0.930 . S
C383 C384 1.355 . S
C383 C385 1.415 1_556 S
C384 C383 1.355 . S
C384 C386 1.419 . S
C385 C380 1.425 1_554 S
C385 C382 1.409 . S
C385 C383 1.415 1_554 S
C386 H376 0.930 . S
C386 C384 1.419 . S
C386 C387 1.362 . S
C387 H377 0.930 . S
C387 C380 1.409 . S
C387 C386 1.362 . S
H388 C394 0.930 . S
H389 C397 0.930 . S
H390 C398 0.930 . S
H391 C399 0.930 . S
H392 C402 0.930 . S
H393 C403 0.930 . S
C394 H388 0.930 . S
C394 C395 1.355 . S
C394 C396 1.415 . S
C395 C394 1.355 . S
C395 C397 1.419 . S
C396 C394 1.415 . S
C396 C401 1.425 . S
C396 C403 1.409 . S
C397 H389 0.930 . S
C397 C395 1.419 . S
C397 C398 1.362 . S
C398 H390 0.930 . S
C398 C397 1.362 . S
C398 C401 1.409 . S
C399 H391 0.930 . S
C399 C400 1.355 . S
C399 C401 1.415 . S
C400 C399 1.355 . S
C400 C402 1.419 . S
C401 C396 1.425 . S
C401 C398 1.409 . S
C401 C399 1.415 . S
C402 H392 0.930 . S
C402 C400 1.419 . S
C402 C403 1.362 . S
C403 H393 0.930 . S
C403 C396 1.409 . S
C403 C402 1.362 . S
H404 C410 0.930 . S
H405 C413 0.930 . S
H406 C414 0.930 . S
H407 C415 0.930 . S
H408 C418 0.930 . S
H409 C419 0.930 . S
C410 H404 0.930 . S
C410 C411 1.355 . S
C410 C412 1.415 . S
C411 C410 1.355 . S
C411 C413 1.419 . S
C412 C410 1.415 . S
C412 C417 1.425 . S
C412 C419 1.409 . S
C413 H405 0.930 . S
C413 C411 1.419 . S
C413 C414 1.362 . S
C414 H406 0.930 . S
C414 C413 1.362 . S
C414 C417 1.409 . S
C415 H407 0.930 . S
C415 C416 1.355 . S
C415 C417 1.415 . S
C416 C415 1.355 . S
C416 C418 1.419 . S
C417 C412 1.425 . S
C417 C414 1.409 . S
C417 C415 1.415 . S
C418 H408 0.930 . S
C418 C416 1.419 . S
C418 C419 1.362 . S
C419 H409 0.930 . S
C419 C412 1.409 . S
C419 C418 1.362 . S
H420 C426 0.930 . S
H421 C429 0.930 . S
H422 C430 0.930 . S
H423 C431 0.930 . S
H424 C434 0.930 . S
H425 C435 0.930 . S
C426 H420 0.930 . S
C426 C427 1.355 . S
C426 C428 1.415 . S
C427 C426 1.355 . S
C427 C429 1.419 . S
C428 C426 1.415 . S
C428 C433 1.425 1_554 S
C428 C435 1.409 . S
C429 H421 0.930 . S
C429 C427 1.419 . S
C429 C430 1.362 1_554 S
C430 H422 0.930 . S
C430 C429 1.362 1_556 S
C430 C433 1.409 . S
C431 H423 0.930 . S
C431 C432 1.355 . S
C431 C433 1.415 . S
C432 C431 1.355 . S
C432 C434 1.419 . S
C433 C428 1.425 1_556 S
C433 C430 1.409 . S
C433 C431 1.415 . S
C434 H424 0.930 . S
C434 C432 1.419 . S
C434 C435 1.362 1_556 S
C435 H425 0.930 . S
C435 C428 1.409 . S
C435 C434 1.362 1_554 S
H436 C442 0.930 . S
H437 C445 0.930 1_655 S
H438 C446 0.930 . S
H439 C447 0.930 . S
H440 C450 0.930 . S
H441 C451 0.930 . S
C442 H436 0.930 . S
C442 C443 1.355 . S
C442 C444 1.415 . S
C443 C442 1.355 . S
C443 C445 1.419 . S
C444 C442 1.415 . S
C444 C449 1.425 . S
C444 C451 1.409 . S
C445 H437 0.930 1_455 S
C445 C443 1.419 . S
C445 C446 1.362 . S
C446 H438 0.930 . S
C446 C445 1.362 . S
C446 C449 1.409 . S
C447 H439 0.930 . S
C447 C448 1.355 . S
C447 C449 1.415 . S
C448 C447 1.355 . S
C448 C450 1.419 . S
C449 C444 1.425 . S
C449 C446 1.409 . S
C449 C447 1.415 . S
C450 H440 0.930 . S
C450 C448 1.419 . S
C450 C451 1.362 . S
C451 H441 0.930 . S
C451 C444 1.409 . S
C451 C450 1.362 . S
H452 C458 0.930 . S
H453 C461 0.930 . S
H454 C462 0.930 . S
H455 C463 0.930 . S
H456 C466 0.930 . S
H457 C467 0.930 . S
C458 H452 0.930 . S
C458 C459 1.355 . S
C458 C460 1.415 . S
C459 C458 1.355 . S
C459 C461 1.419 . S
C460 C458 1.415 . S
C460 C465 1.425 . S
C460 C467 1.409 . S
C461 H453 0.930 . S
C461 C459 1.419 . S
C461 C462 1.362 . S
C462 H454 0.930 . S
C462 C461 1.362 . S
C462 C465 1.409 . S
C463 H455 0.930 . S
C463 C464 1.355 . S
C463 C465 1.415 . S
C464 C463 1.355 . S
C464 C466 1.419 . S
C465 C460 1.425 . S
C465 C462 1.409 . S
C465 C463 1.415 . S
C466 H456 0.930 . S
C466 C464 1.419 . S
C466 C467 1.362 . S
C467 H457 0.930 . S
C467 C460 1.409 . S
C467 C466 1.362 . S
H468 C474 0.930 . S
H469 C477 0.930 . S
H470 C478 0.930 . S
H471 C479 0.930 . S
H472 C482 0.930 . S
H473 C483 0.930 . S
C474 H468 0.930 . S
C474 C475 1.355 . S
C474 C476 1.415 . S
C475 C474 1.355 . S
C475 C477 1.419 1_455 S
C476 C474 1.415 . S
C476 C481 1.425 1_455 S
C476 C483 1.409 . S
C477 H469 0.930 . S
C477 C475 1.419 1_655 S
C477 C478 1.362 . S
C478 H470 0.930 . S
C478 C477 1.362 . S
C478 C481 1.409 . S
C479 H471 0.930 . S
C479 C480 1.355 . S
C479 C481 1.415 . S
C480 C479 1.355 . S
C480 C482 1.419 1_655 S
C481 C476 1.425 1_655 S
C481 C478 1.409 . S
C481 C479 1.415 . S
C482 H472 0.930 . S
C482 C480 1.419 1_455 S
C482 C483 1.362 . S
C483 H473 0.930 . S
C483 C476 1.409 . S
C483 C482 1.362 . S
H484 C490 0.930 . S
H485 C493 0.930 . S
H486 C494 0.930 . S
H487 C495 0.930 . S
H488 C498 0.930 . S
H489 C499 0.930 . S
C490 H484 0.930 . S
C490 C491 1.355 1_565 S
C490 C492 1.415 . S
C491 C490 1.355 1_545 S
C491 C493 1.419 . S
C492 C490 1.415 . S
C492 C497 1.425 1_565 S
C492 C499 1.409 . S
C493 H485 0.930 . S
C493 C491 1.419 . S
C493 C494 1.362 . S
C494 H486 0.930 . S
C494 C493 1.362 . S
C494 C497 1.409 . S
C495 H487 0.930 . S
C495 C496 1.355 1_545 S
C495 C497 1.415 . S
C496 C495 1.355 1_565 S
C496 C498 1.419 . S
C497 C492 1.425 1_545 S
C497 C494 1.409 . S
C497 C495 1.415 . S
C498 H488 0.930 . S
C498 C496 1.419 . S
C498 C499 1.362 . S
C499 H489 0.930 . S
C499 C492 1.409 . S
C499 C498 1.362 . S
H500 C506 0.930 . S
H501 C509 0.930 . S
H502 C510 0.930 . S
H503 C511 0.930 . S
H504 C514 0.930 . S
H505 C515 0.930 . S
C506 H500 0.930 . S
C506 C507 1.355 . S
C506 C508 1.415 . S
C507 C506 1.355 . S
C507 C509 1.419 . S
C508 C506 1.415 . S
C508 C513 1.425 . S
C508 C515 1.409 . S
C509 H501 0.930 . S
C509 C507 1.419 . S
C509 C510 1.362 . S
C510 H502 0.930 . S
C510 C509 1.362 . S
C510 C513 1.409 . S
C511 H503 0.930 . S
C511 C512 1.355 . S
C511 C513 1.415 . S
C512 C511 1.355 . S
C512 C514 1.419 . S
C513 C508 1.425 . S
C513 C510 1.409 . S
C513 C511 1.415 . S
C514 H504 0.930 . S
C514 C512 1.419 . S
C514 C515 1.362 . S
C515 H505 0.930 . S
C515 C508 1.409 . S
C515 C514 1.362 . S
H516 C522 0.930 . S
H517 C525 0.930 . S
H518 C526 0.930 . S
H519 C527 0.930 . S
H520 C530 0.930 . S
H521 C531 0.930 . S
C522 H516 0.930 . S
C522 C523 1.355 1_565 S
C522 C524 1.415 . S
C523 C522 1.355 1_545 S
C523 C525 1.419 . S
C524 C522 1.415 . S
C524 C529 1.425 1_565 S
C524 C531 1.409 . S
C525 H517 0.930 . S
C525 C523 1.419 . S
C525 C526 1.362 . S
C526 H518 0.930 . S
C526 C525 1.362 . S
C526 C529 1.409 . S
C527 H519 0.930 . S
C527 C528 1.355 1_545 S
C527 C529 1.415 . S
C528 C527 1.355 1_565 S
C528 C530 1.419 . S
C529 C524 1.425 1_545 S
C529 C526 1.409 . S
C529 C527 1.415 . S
C530 H520 0.930 . S
C530 C528 1.419 . S
C530 C531 1.362 . S
C531 H521 0.930 . S
C531 C524 1.409 . S
C531 C530 1.362 . S
H532 C538 0.930 . S
H533 C541 0.930 . S
H534 C542 0.930 . S
H535 C543 0.930 . S
H536 C546 0.930 . S
H537 C547 0.930 . S
C538 H532 0.930 . S
C538 C539 1.355 . S
C538 C540 1.415 . S
C539 C538 1.355 . S
C539 C541 1.419 . S
C540 C538 1.415 . S
C540 C545 1.425 . S
C540 C547 1.409 . S
C541 H533 0.930 . S
C541 C539 1.419 . S
C541 C542 1.362 . S
C542 H534 0.930 . S
C542 C541 1.362 . S
C542 C545 1.409 . S
C543 H535 0.930 . S
C543 C544 1.355 . S
C543 C545 1.415 . S
C544 C543 1.355 . S
C544 C546 1.419 . S
C545 C540 1.425 . S
C545 C542 1.409 . S
C545 C543 1.415 . S
C546 H536 0.930 . S
C546 C544 1.419 . S
C546 C547 1.362 . S
C547 H537 0.930 . S
C547 C540 1.409 . S
C547 C546 1.362 . S
H548 C554 0.930 . S
H549 C557 0.930 . S
H550 C558 0.930 . S
H551 C559 0.930 . S
H552 C562 0.930 . S
H553 C563 0.930 . S
C554 H548 0.930 . S
C554 C555 1.355 1_455 S
C554 C556 1.415 . S
C555 C554 1.355 1_655 S
C555 C557 1.419 . S
C556 C554 1.415 . S
C556 C561 1.425 1_455 S
C556 C563 1.409 . S
C557 H549 0.930 . S
C557 C555 1.419 . S
C557 C558 1.362 . S
C558 H550 0.930 . S
C558 C557 1.362 . S
C558 C561 1.409 . S
C559 H551 0.930 . S
C559 C560 1.355 1_655 S
C559 C561 1.415 . S
C560 C559 1.355 1_455 S
C560 C562 1.419 . S
C561 C556 1.425 1_655 S
C561 C558 1.409 . S
C561 C559 1.415 . S
C562 H552 0.930 . S
C562 C560 1.419 . S
C562 C563 1.362 . S
C563 H553 0.930 . S
C563 C556 1.409 . S
C563 C562 1.362 . S
H564 C570 0.930 . S
H565 C573 0.930 . S
H566 C574 0.921 1_565 S
H567 C575 0.930 . S
H568 C578 0.930 . S
H569 C579 0.921 1_545 S
C570 H564 0.930 . S
C570 C571 1.355 1_455 S
C570 C572 1.415 . S
C571 C570 1.355 1_655 S
C571 C573 1.419 . S
C572 C570 1.415 . S
C572 C577 1.425 1_445 S
C572 C579 1.393 1_545 S
C573 H565 0.930 . S
C573 C571 1.419 . S
C573 C574 1.388 . S
C574 H566 0.921 1_545 S
C574 C573 1.388 . S
C574 C577 1.393 1_545 S
C575 H567 0.930 . S
C575 C576 1.355 1_655 S
C575 C577 1.415 . S
C576 C575 1.355 1_455 S
C576 C578 1.419 . S
C577 C572 1.425 1_665 S
C577 C574 1.393 1_565 S
C577 C575 1.415 . S
C578 H568 0.930 . S
C578 C576 1.419 . S
C578 C579 1.388 . S
C579 H569 0.921 1_565 S
C579 C572 1.393 1_565 S
C579 C578 1.388 . S
H580 C586 0.930 . S
H581 C589 0.930 . S
H582 C590 0.930 . S
H583 C591 0.930 . S
H584 C594 0.930 . S
H585 C595 0.930 . S
C586 H580 0.930 . S
C586 C587 1.355 1_565 S
C586 C588 1.415 . S
C587 C586 1.355 1_545 S
C587 C589 1.419 . S
C588 C586 1.415 . S
C588 C593 1.425 1_665 S
C588 C595 1.409 . S
C589 H581 0.930 . S
C589 C587 1.419 . S
C589 C590 1.362 1_655 S
C590 H582 0.930 . S
C590 C589 1.362 1_455 S
C590 C593 1.409 . S
C591 H583 0.930 . S
C591 C592 1.355 1_545 S
C591 C593 1.415 . S
C592 C591 1.355 1_565 S
C592 C594 1.419 . S
C593 C588 1.425 1_445 S
C593 C590 1.409 . S
C593 C591 1.415 . S
C594 H584 0.930 . S
C594 C592 1.419 . S
C594 C595 1.362 1_455 S
C595 H585 0.930 . S
C595 C588 1.409 . S
C595 C594 1.362 1_655 S
H596 C602 0.930 . S
H597 C605 0.930 . S
H598 C606 0.930 1_565 S
H599 C607 0.930 . S
H600 C610 0.930 . S
H601 C611 0.930 1_545 S
C602 H596 0.930 . S
C602 C603 1.355 . S
C602 C604 1.415 1_455 S
C603 C602 1.355 . S
C603 C605 1.419 . S
C604 C602 1.415 1_655 S
C604 C609 1.425 1_645 S
C604 C611 1.409 1_545 S
C605 H597 0.930 . S
C605 C603 1.419 . S
C605 C606 1.362 . S
C606 H598 0.930 1_545 S
C606 C605 1.362 . S
C606 C609 1.409 1_545 S
C607 H599 0.930 . S
C607 C608 1.355 . S
C607 C609 1.415 1_655 S
C608 C607 1.355 . S
C608 C610 1.419 . S
C609 C604 1.425 1_465 S
C609 C606 1.409 1_565 S
C609 C607 1.415 1_455 S
C610 H600 0.930 . S
C610 C608 1.419 . S
C610 C611 1.362 . S
C611 H601 0.930 1_565 S
C611 C604 1.409 1_565 S
C611 C610 1.362 . S
H612 C618 0.930 . S
H613 C621 0.930 . S
H614 C622 0.930 . S
H615 C623 0.930 . S
H616 C626 0.930 . S
H617 C627 0.930 . S
C618 H612 0.930 . S
C618 C619 1.355 1_545 S
C618 C620 1.415 . S
C619 C618 1.355 1_565 S
C619 C621 1.419 . S
C620 C618 1.415 . S
C620 C625 1.425 1_645 S
C620 C627 1.409 1_655 S
C621 H613 0.930 . S
C621 C619 1.419 . S
C621 C622 1.362 . S
C622 H614 0.930 . S
C622 C621 1.362 . S
C622 C625 1.409 1_655 S
C623 H615 0.930 . S
C623 C624 1.355 1_565 S
C623 C625 1.415 . S
C624 C623 1.355 1_545 S
C624 C626 1.419 . S
C625 C620 1.425 1_465 S
C625 C622 1.409 1_455 S
C625 C623 1.415 . S
C626 H616 0.930 . S
C626 C624 1.419 . S
C626 C627 1.362 . S
C627 H617 0.930 . S
C627 C620 1.409 1_455 S
C627 C626 1.362 . S
H628 C634 0.930 . S
H629 C637 0.930 . S
H630 C638 0.930 . S
H631 C639 0.930 . S
H632 C642 0.930 . S
H633 C643 0.930 . S
C634 H628 0.930 . S
C634 C635 1.355 . S
C634 C636 1.415 1_565 S
C635 C634 1.355 . S
C635 C637 1.419 . S
C636 C634 1.415 1_545 S
C636 C641 1.425 1_645 S
C636 C643 1.409 . S
C637 H629 0.930 . S
C637 C635 1.419 . S
C637 C638 1.362 1_655 S
C638 H630 0.930 . S
C638 C637 1.362 1_455 S
C638 C641 1.409 . S
C639 H631 0.930 . S
C639 C640 1.355 . S
C639 C641 1.415 1_545 S
C640 C639 1.355 . S
C640 C642 1.419 . S
C641 C636 1.425 1_465 S
C641 C638 1.409 . S
C641 C639 1.415 1_565 S
C642 H632 0.930 . S
C642 C640 1.419 . S
C642 C643 1.362 1_455 S
C643 H633 0.930 . S
C643 C636 1.409 . S
C643 C642 1.362 1_655 S
H644 C650 0.930 . S
H645 C653 0.930 . S
H646 C654 0.930 . S
H647 C655 0.930 . S
H648 C658 0.930 . S
H649 C659 0.930 . S
C650 H644 0.930 . S
C650 C651 1.355 1_455 S
C650 C652 1.415 1_565 S
C651 C650 1.355 1_655 S
C651 C653 1.419 . S
C652 C650 1.415 1_545 S
C652 C657 1.425 1_445 S
C652 C659 1.409 . S
C653 H645 0.930 . S
C653 C651 1.419 . S
C653 C654 1.362 . S
C654 H646 0.930 . S
C654 C653 1.362 . S
C654 C657 1.409 . S
C655 H647 0.930 . S
C655 C656 1.355 1_655 S
C655 C657 1.415 1_545 S
C656 C655 1.355 1_455 S
C656 C658 1.419 . S
C657 C652 1.425 1_665 S
C657 C654 1.409 . S
C657 C655 1.415 1_565 S
C658 H648 0.930 . S
C658 C656 1.419 . S
C658 C659 1.362 . S
C659 H649 0.930 . S
C659 C652 1.409 . S
C659 C658 1.362 . S
C283 C260 1.612 . S
C288 C7 1.628 . S
C299 N25 1.503 . S
C304 N140 1.489 . S
C315 C53 1.651 . S
C320 C168 1.618 . S
C331 C76 1.649 . S
C336 C191 1.652 1_655 S
C347 N209 1.518 . S
C352 N94 1.484 . S
C363 C122 1.611 . S
C368 C237 1.633 . S
C379 C16 1.571 . S
C384 C246 1.560 . S
C395 N35 1.582 . S
C400 C269 1.595 . S
C411 C62 1.582 . S
C416 N150 1.562 . S
C427 C85 1.601 . S
C432 C177 1.619 . S
C443 C200 1.599 . S
C448 N104 1.562 . S
C459 N219 1.606 . S
C464 C131 1.562 . S
C475 N81 1.406 . S
C480 N12 1.448 . S
C491 C39 1.533 . S
C496 C108 1.533 . S
C507 N127 1.506 . S
C512 N58 1.466 . S
C523 C223 1.507 . S
C528 C154 1.535 . S
C539 N242 1.415 . S
C544 N173 1.427 . S
C555 N196 1.484 1_655 S
C560 N265 1.498 1_455 S
C571 N2 1.468 . S
C576 N71 1.432 . S
C587 C30 1.693 . S
C592 C99 1.693 . S
C603 N117 1.396 . S
C608 N48 1.430 . S
C619 C145 1.695 . S
C624 C214 1.689 . S
C635 N163 1.485 . S
C640 N232 1.477 . S
C651 N186 1.388 . S
C656 N255 1.368 . S
