# Generated by pormake.
# Topology snz, (6)-cn, num edge types: 1
# Building blocks:
#     Node 0, Type 0, BuildingBlock: GEDQOX_clean_sbu_0, # of connection points: 6
#     Node 1, Type 0, BuildingBlock: GEDQOX_clean_sbu_0, # of connection points: 6
#     Node 2, Type 0, BuildingBlock: GEDQOX_clean_sbu_0, # of connection points: 6
#     Node 3, Type 0, BuildingBlock: GEDQOX_clean_sbu_0, # of connection points: 6
#     Node 4, Type 0, BuildingBlock: GEDQOX_clean_sbu_0, # of connection points: 6
#     Node 5, Type 0, BuildingBlock: GEDQOX_clean_sbu_0, # of connection points: 6
#     Node 6, Type 0, BuildingBlock: GEDQOX_clean_sbu_0, # of connection points: 6
#     Node 7, Type 0, BuildingBlock: GEDQOX_clean_sbu_0, # of connection points: 6
#     Node 8, Type 0, BuildingBlock: GEDQOX_clean_sbu_0, # of connection points: 6
#     Edge 9, Type (0, 0), BuildingBlock: ZUJKAS_clean_linker_0, # of connection points: 2
#     Edge 10, Type (0, 0), BuildingBlock: ZUJKAS_clean_linker_0, # of connection points: 2
#     Edge 11, Type (0, 0), BuildingBlock: ZUJKAS_clean_linker_0, # of connection points: 2
#     Edge 12, Type (0, 0), BuildingBlock: ZUJKAS_clean_linker_0, # of connection points: 2
#     Edge 13, Type (0, 0), BuildingBlock: ZUJKAS_clean_linker_0, # of connection points: 2
#     Edge 14, Type (0, 0), BuildingBlock: ZUJKAS_clean_linker_0, # of connection points: 2
#     Edge 15, Type (0, 0), BuildingBlock: ZUJKAS_clean_linker_0, # of connection points: 2
#     Edge 16, Type (0, 0), BuildingBlock: ZUJKAS_clean_linker_0, # of connection points: 2
#     Edge 17, Type (0, 0), BuildingBlock: ZUJKAS_clean_linker_0, # of connection points: 2
#     Edge 18, Type (0, 0), BuildingBlock: ZUJKAS_clean_linker_0, # of connection points: 2
#     Edge 19, Type (0, 0), BuildingBlock: ZUJKAS_clean_linker_0, # of connection points: 2
#     Edge 20, Type (0, 0), BuildingBlock: ZUJKAS_clean_linker_0, # of connection points: 2
#     Edge 21, Type (0, 0), BuildingBlock: ZUJKAS_clean_linker_0, # of connection points: 2
#     Edge 22, Type (0, 0), BuildingBlock: ZUJKAS_clean_linker_0, # of connection points: 2
#     Edge 23, Type (0, 0), BuildingBlock: ZUJKAS_clean_linker_0, # of connection points: 2
#     Edge 24, Type (0, 0), BuildingBlock: ZUJKAS_clean_linker_0, # of connection points: 2
#     Edge 25, Type (0, 0), BuildingBlock: ZUJKAS_clean_linker_0, # of connection points: 2
#     Edge 26, Type (0, 0), BuildingBlock: ZUJKAS_clean_linker_0, # of connection points: 2
#     Edge 27, Type (0, 0), BuildingBlock: ZUJKAS_clean_linker_0, # of connection points: 2
#     Edge 28, Type (0, 0), BuildingBlock: ZUJKAS_clean_linker_0, # of connection points: 2
#     Edge 29, Type (0, 0), BuildingBlock: ZUJKAS_clean_linker_0, # of connection points: 2
#     Edge 30, Type (0, 0), BuildingBlock: ZUJKAS_clean_linker_0, # of connection points: 2
#     Edge 31, Type (0, 0), BuildingBlock: ZUJKAS_clean_linker_0, # of connection points: 2
#     Edge 32, Type (0, 0), BuildingBlock: ZUJKAS_clean_linker_0, # of connection points: 2
#     Edge 33, Type (0, 0), BuildingBlock: ZUJKAS_clean_linker_0, # of connection points: 2
#     Edge 34, Type (0, 0), BuildingBlock: ZUJKAS_clean_linker_0, # of connection points: 2
#     Edge 35, Type (0, 0), BuildingBlock: ZUJKAS_clean_linker_0, # of connection points: 2
# Relax obj value: 0.195
# Max RMSD: 0.244
# Mean RMSD: 0.199
data_MOF--net-snz--node1-GEDQOX_clean_sbu_0--edge1-ZUJKAS_clean_linker_0
_symmetry_space_group_name_H-M    P1
_symmetry_Int_Tables_number       1
_symmetry_cell_setting            triclinic
loop_
_symmetry_equiv_pos_as_xyz
'x, y, z'
_cell_length_a     70.763264
_cell_length_b     89.040245
_cell_length_c     19.023114
_cell_angle_alpha  87.940928
_cell_angle_beta   87.922165
_cell_angle_gamma 120.24758
loop_
_atom_site_label
_atom_site_type_symbol
_atom_site_fract_x
_atom_site_fract_y
_atom_site_fract_z
_atom_type_partial_charge
Nd0 Nd 0.12633 0.62024 0.08782 0.0
Nd1 Nd 0.16891 0.65155 0.0883 0.0
C2 C 0.09337 0.58779 0.11309 0.0
C3 C 0.09083 0.57026 0.10438 0.0
C4 C 0.0927 0.56067 0.16156 0.0
C5 C 0.0908 0.54437 0.15255 0.0
C6 C 0.08705 0.53725 0.08606 0.0
C7 C 0.08492 0.54678 0.02931 0.0
C8 C 0.08673 0.56298 0.03831 0.0
C9 C 0.14583 0.63242 0.95545 0.0
C10 C 0.17091 0.61677 0.09938 0.0
C11 C 0.20348 0.68357 0.08125 0.0
C12 C 0.20807 0.70151 0.09319 0.0
C13 C 0.20776 0.71219 0.03755 0.0
C14 C 0.21379 0.72952 0.04732 0.0
C15 C 0.22046 0.73671 0.11287 0.0
C16 C 0.21994 0.72583 0.16932 0.0
C17 C 0.2139 0.70847 0.15955 0.0
C18 C 0.14904 0.63782 0.21952 0.0
C19 C 0.1258 0.65538 0.05146 0.0
O20 O 0.10592 0.59707 0.16196 0.0
O21 O 0.09598 0.5973 0.05561 0.0
O22 O 0.12513 0.62596 0.97112 0.0
O23 O 0.15575 0.6315 0.00764 0.0
O24 O 0.14983 0.60998 0.11754 0.0
O25 O 0.18246 0.63305 0.07297 0.0
O26 O 0.1927 0.67606 0.02643 0.0
O27 O 0.19762 0.67272 0.13651 0.0
O28 O 0.16903 0.64232 0.2013 0.0
O29 O 0.13954 0.64015 0.16891 0.0
O30 O 0.14717 0.66179 0.04216 0.0
O31 O 0.11316 0.63949 0.08153 0.0
H32 H 0.09577 0.56583 0.21328 0.0
H33 H 0.09263 0.53747 0.19741 0.0
H34 H 0.08159 0.54161 0.97765 0.0
H35 H 0.08497 0.56981 -0.00691 0.0
H36 H 0.20331 0.70729 0.98582 0.0
H37 H 0.21361 0.73741 0.00294 0.0
H38 H 0.22515 0.7309 0.22036 0.0
H39 H 0.21438 0.70066 0.20366 0.0
Nd40 Nd 0.66723 0.58538 0.11588 0.0
Nd41 Nd 0.66253 0.54972 0.13289 0.0
C42 C 0.67528 0.61755 0.09524 0.0
C43 C 0.69566 0.63454 0.10386 0.0
C44 C 0.71128 0.6431 0.04698 0.0
C45 C 0.73049 0.65899 0.05487 0.0
C46 C 0.73459 0.66688 0.11973 0.0
C47 C 0.71928 0.65806 0.17725 0.0
C48 C 0.70008 0.64212 0.16942 0.0
C49 C 0.67862 0.57784 0.24405 0.0
C50 C 0.71057 0.58359 0.09317 0.0
C51 C 0.65878 0.52047 0.18636 0.0
C52 C 0.65193 0.50345 0.15809 0.0
C53 C 0.64077 0.48823 0.2025 0.0
C54 C 0.63272 0.4719 0.17485 0.0
C55 C 0.6356 0.4706 0.10225 0.0
C56 C 0.64706 0.48593 0.05819 0.0
C57 C 0.65514 0.50219 0.08583 0.0
C58 C 0.66578 0.55666 0.98988 0.0
C59 C 0.61702 0.55143 0.1247 0.0
O60 O 0.67583 0.60838 0.0437 0.0
O61 O 0.66499 0.60785 0.15277 0.0
O62 O 0.68937 0.59271 0.20891 0.0
O63 O 0.66206 0.5675 0.21225 0.0
O64 O 0.69984 0.59078 0.06764 0.0
O65 O 0.70025 0.56864 0.13158 0.0
O66 O 0.64333 0.52435 0.19418 0.0
O67 O 0.67731 0.5336 0.15939 0.0
O68 O 0.6621 0.54213 0.02011 0.0
O69 O 0.6663 0.567 0.03512 0.0
O70 O 0.6258 0.54139 0.13009 0.0
O71 O 0.62931 0.56865 0.11838 0.0
H72 H 0.70866 0.63758 -0.00402 0.0
H73 H 0.74206 0.66517 0.00971 0.0
H74 H 0.72172 0.66373 0.2279 0.0
H75 H 0.68859 0.63585 0.21471 0.0
H76 H 0.63798 0.48898 0.25832 0.0
H77 H 0.62385 0.4603 0.20992 0.0
H78 H 0.64988 0.48536 0.00224 0.0
H79 H 0.66372 0.51375 0.0505 0.0
Nd80 Nd 0.76711 0.15107 0.15351 0.0
Nd81 Nd 0.76671 0.11812 0.14532 0.0
C82 C 0.7619 0.17623 0.20011 0.0
C83 C 0.74571 0.18166 0.19287 0.0
C84 C 0.73855 0.18677 0.25208 0.0
C85 C 0.72344 0.19234 0.24556 0.0
C86 C 0.71536 0.19279 0.17971 0.0
C87 C 0.72217 0.18723 0.12086 0.0
C88 C 0.73717 0.18163 0.12743 0.0
C89 C 0.76737 0.14288 0.01707 0.0
C90 C 0.71853 0.11456 0.15442 0.0
C91 C 0.77601 0.09277 0.12882 0.0
C92 C 0.79375 0.08842 0.13709 0.0
C93 C 0.802 0.08391 0.07829 0.0
C94 C 0.81646 0.07754 0.08571 0.0
C95 C 0.82335 0.07552 0.15241 0.0
C96 C 0.81584 0.08089 0.21093 0.0
C97 C 0.80118 0.0871 0.20348 0.0
C98 C 0.76977 0.13028 0.2782 0.0
C99 C 0.81277 0.15566 0.11287 0.0
O100 O 0.75511 0.1615 0.23683 0.0
O101 O 0.77397 0.17809 0.14299 0.0
O102 O 0.77672 0.15867 0.03716 0.0
O103 O 0.75596 0.13167 0.06695 0.0
O104 O 0.72964 0.13128 0.16698 0.0
O105 O 0.729 0.10614 0.13803 0.0
O106 O 0.77848 0.10398 0.07791 0.0
O107 O 0.76628 0.09419 0.18563 0.0
O108 O 0.7556 0.11458 0.26383 0.0
O109 O 0.78092 0.13896 0.22374 0.0
O110 O 0.8009 0.13943 0.09484 0.0
O111 O 0.80389 0.1624 0.15287 0.0
H112 H 0.74481 0.18662 0.30309 0.0
H113 H 0.71829 0.19649 0.29161 0.0
H114 H 0.71643 0.18776 0.06928 0.0
H115 H 0.74233 0.17755 0.08114 0.0
H116 H 0.7966 0.08471 0.02642 0.0
H117 H 0.82139 0.07351 0.03895 0.0
H118 H 0.82101 0.08013 0.2631 0.0
H119 H 0.79532 0.09051 0.25018 0.0
Nd120 Nd 0.93006 0.93394 0.21858 0.0
Nd121 Nd 0.97055 0.96762 0.23196 0.0
C122 C 0.89283 0.90398 0.21371 0.0
C123 C 0.88665 0.88558 0.20403 0.0
C124 C 0.87783 0.87323 0.26166 0.0
C125 C 0.8712 0.85574 0.25308 0.0
C126 C 0.87318 0.85005 0.18649 0.0
C127 C 0.88252 0.86254 0.12907 0.0
C128 C 0.88909 0.88004 0.13764 0.0
C129 C 0.95721 0.94697 0.0968 0.0
C130 C 0.97162 0.931 0.26762 0.0
C131 C 1.00664 0.9986 0.22646 0.0
C132 C 1.01015 1.01657 0.22937 0.0
C133 C 1.00793 0.02545 0.17018 0.0
C134 C 1.00964 0.0418 0.17589 0.0
C135 C 1.01336 0.04954 0.24102 0.0
C136 C 1.0161 0.04084 0.29945 0.0
C137 C 1.01465 0.02468 0.29362 0.0
C138 C 0.94342 0.95532 0.35348 0.0
C139 C 0.9273 0.96967 0.20317 0.0
O140 O 0.90148 0.91052 0.27271 0.0
O141 O 0.90222 0.91515 0.15942 0.0
O142 O 0.94885 0.93115 0.12329 0.0
O143 O 0.95216 0.95542 0.1372 0.0
O144 O 0.95008 0.92304 0.26708 0.0
O145 O 0.98373 0.94792 0.24712 0.0
O146 O 0.99841 0.99015 0.1701 0.0
O147 O 0.99828 0.98857 0.28433 0.0
O148 O 0.95269 0.97123 0.32708 0.0
O149 O 0.94808 0.9465 0.3138 0.0
O150 O 0.9487 0.97777 0.19058 0.0
O151 O 0.91635 0.95298 0.22551 0.0
H152 H 0.8757 0.87705 0.31344 0.0
H153 H 0.86382 0.84658 0.2985 0.0
H154 H 0.8847 0.85882 0.07717 0.0
H155 H 0.89592 0.88918 0.09196 0.0
H156 H 1.00449 1.01965 0.11973 0.0
H157 H 1.00746 0.04816 0.12987 0.0
H158 H 1.01939 0.04656 0.35008 0.0
H159 H 1.01666 1.01836 0.34012 0.0
Nd160 Nd 0.43117 0.03387 0.18654 0.0
Nd161 Nd 0.432 1.00193 0.19541 0.0
C162 C 0.43579 0.06441 0.14766 0.0
C163 C 0.44734 0.08211 0.17159 0.0
C164 C 0.45053 0.0961 0.12663 0.0
C165 C 0.45912 0.1127 0.15177 0.0
C166 C 0.46447 0.11545 0.22241 0.0
C167 C 0.46207 0.10149 0.26644 0.0
C168 C 0.4536 0.08495 0.24118 0.0
C169 C 0.42804 1.02295 0.32404 0.0
C170 C 0.47958 0.03494 0.18956 0.0
C171 C 0.41966 0.96844 0.21064 0.0
C172 C 0.39878 0.95201 0.20036 0.0
C173 C 0.38635 0.94076 0.25879 0.0
C174 C 0.36717 0.92491 0.24995 0.0
C175 C 0.35983 0.91982 0.18226 0.0
C176 C 0.37181 0.93148 0.12399 0.0
C177 C 0.39103 0.94732 0.13285 0.0
C178 C 0.43023 1.01382 0.06079 0.0
C179 C 0.38534 0.9997 0.21829 0.0
O180 O 0.44776 0.0586 0.11906 0.0
O181 O 0.42006 0.05289 0.19129 0.0
O182 O 0.41866 0.03112 0.2999 0.0
O183 O 0.44086 1.02216 0.2777 0.0
O184 O 0.46891 0.04303 0.16981 0.0
O185 O 0.46846 1.01838 0.21206 0.0
O186 O 0.41958 0.97747 0.2631 0.0
O187 O 0.43069 0.97837 0.15456 0.0
O188 O 0.4445 1.00954 0.07777 0.0
O189 O 0.41843 1.01256 0.11369 0.0
O190 O 0.39784 0.99389 0.24106 0.0
O191 O 0.39421 1.0144 0.17897 0.0
H192 H 0.44571 0.09406 0.0728 0.0
H193 H 0.46072 0.12321 0.11683 0.0
H194 H 0.46641 0.10331 0.32077 0.0
H195 H 0.45131 0.07426 0.27654 0.0
H196 H 0.39172 0.94406 0.31152 0.0
H197 H 0.35863 0.91635 0.29626 0.0
H198 H 0.36651 0.92832 0.07113 0.0
H199 H 0.39993 0.95576 0.08654 0.0
Nd200 Nd 0.32925 0.46754 0.1683 0.0
Nd201 Nd 0.32946 0.43484 0.15247 0.0
C202 C 0.31967 0.49226 0.19585 0.0
C203 C 0.30296 0.49748 0.18178 0.0
C204 C 0.28664 0.49441 0.23413 0.0
C205 C 0.27232 0.50084 0.22481 0.0
C206 C 0.27404 0.51093 0.16322 0.0
C207 C 0.28996 0.51344 0.10978 0.0
C208 C 0.30411 0.5068 0.11884 0.0
C209 C 0.32505 0.45679 0.03211 0.0
C210 C 0.28393 0.42982 0.19761 0.0
C211 C 0.33338 0.40884 0.10822 0.0
C212 C 0.34855 0.40253 0.11855 0.0
C213 C 0.35727 0.39852 0.05977 0.0
C214 C 0.37219 0.39287 0.06837 0.0
C215 C 0.37847 0.39118 0.13592 0.0
C216 C 0.36992 0.39543 0.19465 0.0
C217 C 0.35512 0.40116 0.18602 0.0
C218 C 0.33032 0.44238 0.29078 0.0
C219 C 0.37738 0.47128 0.14927 0.0
O220 O 0.31371 0.47847 0.23784 0.0
O221 O 0.33317 0.49368 0.14388 0.0
O222 O 0.33746 0.47274 0.04756 0.0
O223 O 0.31518 0.44728 0.08654 0.0
O224 O 0.2957 0.44569 0.21934 0.0
O225 O 0.29279 0.42411 0.15201 0.0
O226 O 0.34169 0.42385 0.07272 0.0
O227 O 0.32069 0.40728 0.16301 0.0
O228 O 0.32096 0.42679 0.26916 0.0
O229 O 0.34119 0.45376 0.24098 0.0
O230 O 0.36617 0.45543 0.12643 0.0
O231 O 0.36678 0.47857 0.17812 0.0
H232 H 0.28519 0.48729 0.28335 0.0
H233 H 0.26004 0.49799 0.26677 0.0
H234 H 0.29225 0.52115 0.06161 0.0
H235 H 0.31642 0.50948 0.07714 0.0
H236 H 0.35254 0.39978 0.00731 0.0
H237 H 0.37872 0.38974 0.02243 0.0
H238 H 0.37425 0.39392 0.24744 0.0
H239 H 0.34876 0.4044 0.23208 0.0
Nd240 Nd 0.52495 0.29015 0.65742 0.0
Nd241 Nd 0.57344 0.29584 0.65629 0.0
C242 C 0.48337 0.27739 0.63697 0.0
C243 C 0.47356 0.28369 0.58541 0.0
C244 C 0.47065 0.27779 0.51693 0.0
C245 C 0.46585 0.28628 0.46384 0.0
C246 C 0.46372 0.30069 0.47855 0.0
C247 C 0.46546 0.30602 0.54767 0.0
C248 C 0.47023 0.29754 0.60077 0.0
C249 C 0.5534 0.32172 0.70849 0.0
C250 C 0.55779 0.30898 0.51639 0.0
C251 C 0.61489 0.30569 0.66129 0.0
C252 C 0.62458 0.29994 0.71567 0.0
C253 C 0.62705 0.30639 0.78324 0.0
C254 C 0.63085 0.29802 0.83949 0.0
C255 C 0.63233 0.28314 0.82912 0.0
C256 C 0.63115 0.27728 0.76104 0.0
C257 C 0.62745 0.28568 0.70466 0.0
C258 C 0.54058 0.26415 0.61924 0.0
C259 C 0.54159 0.27916 0.7978 0.0
O260 O 0.4947 0.27071 0.61068 0.0
O261 O 0.49309 0.28776 0.68733 0.0
O262 O 0.53308 0.31685 0.69889 0.0
O263 O 0.55746 0.31046 0.68717 0.0
O264 O 0.53794 0.30301 0.54675 0.0
O265 O 0.57392 0.30874 0.54886 0.0
O266 O 0.60694 0.3154 0.68229 0.0
O267 O 0.6019 0.29354 0.62074 0.0
O268 O 0.55645 0.26579 0.65689 0.0
O269 O 0.54304 0.27882 0.60343 0.0
O270 O 0.5621 0.28837 0.77182 0.0
O271 O 0.52463 0.27553 0.75993 0.0
H272 H 0.47309 0.26714 0.50351 0.0
H273 H 0.46452 0.28194 0.41082 0.0
H274 H 0.46335 0.31687 0.56052 0.0
H275 H 0.47222 0.30233 0.65311 0.0
H276 H 0.6249 0.31734 0.79368 0.0
H277 H 0.6318 0.30281 0.89157 0.0
H278 H 0.63279 0.26604 0.75158 0.0
H279 H 0.62568 0.28044 0.65321 0.0
Nd280 Nd 0.05404 0.27865 0.65753 0.0
Nd281 Nd 1.04404 0.30845 0.65916 0.0
C282 C 0.0647 0.25579 0.61151 0.0
C283 C 0.05749 0.2414 0.56247 0.0
C284 C 0.07275 0.24135 0.51319 0.0
C285 C 0.06703 0.22694 0.4726 0.0
C286 C 1.04583 0.21211 0.48014 0.0
C287 C 1.03028 0.21259 0.52716 0.0
C288 C 1.03602 0.22698 0.56778 0.0
C289 C 1.01582 0.27027 0.7313 0.0
C290 C 1.03011 0.28686 0.52582 0.0
C291 C 1.03306 0.33097 0.70668 0.0
C292 C 1.04052 0.34544 0.75545 0.0
C293 C 1.02619 0.34465 0.8106 0.0
C294 C 1.03192 0.35899 0.85166 0.0
C295 C 1.05218 0.37459 0.8386 0.0
C296 C 0.06693 0.37499 0.78563 0.0
C297 C 0.06118 0.36068 0.74461 0.0
C298 C 0.08231 0.31668 0.58611 0.0
C299 C 0.06829 0.30065 0.79044 0.0
O300 O 0.07361 0.27179 0.58426 0.0
O301 O 1.05215 0.25304 0.66835 0.0
O302 O 1.02881 0.26467 0.74911 0.0
O303 O 1.02223 0.27913 0.67275 0.0
O304 O 1.04001 0.27907 0.55306 0.0
O305 O 1.02582 0.29732 0.56128 0.0
O306 O 1.02473 0.31507 0.73442 0.0
O307 O 1.04506 0.33375 0.64838 0.0
O308 O 0.06947 0.32239 0.56757 0.0
O309 O 0.07578 0.30792 0.64472 0.0
O310 O 0.05924 0.30898 0.76198 0.0
O311 O 0.07188 0.28964 0.75633 0.0
H312 H 0.08941 0.25225 0.50776 0.0
H313 H 0.07959 0.22717 0.4376 0.0
H314 H 1.01365 0.20169 0.53356 0.0
H315 H 1.02374 0.2266 0.60463 0.0
H316 H 1.01017 0.3331 0.82048 0.0
H317 H 1.02001 0.35807 0.89152 0.0
H318 H 0.08289 0.38653 0.77485 0.0
H319 H 0.07278 0.36175 0.70319 0.0
Nd320 Nd 0.07286 0.80594 0.63739 0.0
Nd321 Nd 1.02305 0.77925 0.67818 0.0
C322 C 0.10899 0.83235 0.5789 0.0
C323 C 0.12996 0.84647 0.54729 0.0
C324 C 0.13061 0.85988 0.50463 0.0
C325 C 0.15036 0.87273 0.47069 0.0
C326 C 0.16975 0.8722 0.47789 0.0
C327 C 0.16891 0.8586 0.52065 0.0
C328 C 0.14921 0.84592 0.55538 0.0
C329 C 0.06986 0.77538 0.69494 0.0
C330 C 1.04284 0.77835 0.52232 0.0
C331 C 0.98721 0.75269 0.73774 0.0
C332 C 0.96647 0.73831 0.7699 0.0
C333 C 0.9663 0.72519 0.8134 0.0
C334 C 0.94666 0.71206 0.84719 0.0
C335 C 0.92704 0.71211 0.83901 0.0
C336 C 0.92732 0.72535 0.79574 0.0
C337 C 0.94686 0.73829 0.76106 0.0
C338 C 1.02548 0.80937 0.61848 0.0
C339 C 0.0527 0.8077 0.79139 0.0
O340 O 0.0907 0.82545 0.54665 0.0
O341 O 0.10773 0.82566 0.64254 0.0
O342 O 0.0878 0.78891 0.66907 0.0
O343 O 0.0541 0.77815 0.68604 0.0
O344 O 0.0616 0.79202 0.53615 0.0
O345 O 1.02605 0.7701 0.56929 0.0
O346 O 1.00575 0.75954 0.76863 0.0
O347 O 0.9881 0.75948 0.67462 0.0
O348 O 1.00776 0.79561 0.64424 0.0
O349 O 1.04167 0.80708 0.62783 0.0
O350 O 1.03394 0.79397 0.77792 0.0
O351 O 0.06967 0.81553 0.74497 0.0
H352 H 0.11583 0.86041 0.49748 0.0
H353 H 0.15042 0.88313 0.43921 0.0
H354 H 0.18336 0.85753 0.5263 0.0
H355 H 0.14891 0.83544 0.58707 0.0
H356 H 0.98133 0.72512 0.8214 0.0
H357 H 0.94686 0.70204 0.88063 0.0
H358 H 0.91237 0.7256 0.78824 0.0
H359 H 0.94673 0.74846 0.72844 0.0
H360 H 0.15618 0.66061 0.87089 0.0
H361 H 0.15668 0.66139 0.74205 0.0
H362 H 0.15433 0.61198 0.74634 0.0
H363 H 0.15316 0.61104 0.87577 0.0
H364 H 0.18056 0.65829 0.62797 0.0
H365 H 0.0958 0.60169 0.66658 0.0
H366 H 0.11061 0.61454 0.73793 0.0
H367 H 0.11628 0.5984 0.70563 0.0
C368 C 0.15642 0.65022 0.84394 0.0
C369 C 0.15442 0.63572 0.88227 0.0
C370 C 0.15671 0.65065 0.77059 0.0
C371 C 0.15485 0.63648 0.73511 0.0
C372 C 0.15527 0.62284 0.77316 0.0
H373 H 0.15117 0.61431 0.30571 0.0
H374 H 0.14804 0.61266 0.43461 0.0
C375 C 0.15492 0.62241 0.84671 0.0
C376 C 0.14996 0.63512 0.66002 0.0
H377 H 0.11057 0.61058 0.54831 0.0
C378 C 0.16526 0.64791 0.61051 0.0
C379 C 0.12971 0.62176 0.63791 0.0
C380 C 0.11203 0.6084 0.68975 0.0
C381 C 0.16116 0.64732 0.53882 0.0
C382 C 0.14125 0.63366 0.5165 0.0
C383 C 0.12576 0.62105 0.56601 0.0
C384 C 0.1375 0.63155 0.44089 0.0
C385 C 0.17829 0.66106 0.4868 0.0
C386 C 0.13138 0.64201 0.40235 0.0
C387 C 0.13275 0.64272 0.32851 0.0
C388 C 0.14058 0.63317 0.29328 0.0
C389 C 0.14499 0.62171 0.33213 0.0
C390 C 0.14326 0.62078 0.40552 0.0
H391 H 0.19331 0.6704 0.51237 0.0
H392 H 0.18289 0.6548 0.44538 0.0
H393 H 0.17144 0.66843 0.46039 0.0
H394 H 0.12697 0.65044 0.42919 0.0
H395 H 0.12961 0.65183 0.29934 0.0
H396 H 0.66684 0.58246 0.90072 0.0
H397 H 0.67612 0.58699 0.77227 0.0
H398 H 0.6913 0.5458 0.78169 0.0
H399 H 0.68178 0.54102 0.90807 0.0
H400 H 0.71859 0.58989 0.68165 0.0
H401 H 0.63644 0.53155 0.65244 0.0
H402 H 0.64192 0.54438 0.72855 0.0
H403 H 0.65356 0.53071 0.71835 0.0
C404 C 0.67234 0.57453 0.87527 0.0
C405 C 0.67302 0.5611 0.91407 0.0
C406 C 0.67777 0.57718 0.8022 0.0
C407 C 0.68422 0.56661 0.76758 0.0
C408 C 0.68622 0.554 0.80722 0.0
H409 H 0.6727 0.54828 0.31555 0.0
H410 H 0.67861 0.545 0.44064 0.0
C411 C 0.68057 0.55121 0.87945 0.0
C412 C 0.6863 0.56718 0.68947 0.0
H413 H 0.65771 0.54627 0.54914 0.0
C414 C 0.70532 0.58039 0.65246 0.0
C415 C 0.6694 0.55433 0.65171 0.0
C416 C 0.64909 0.53941 0.68935 0.0
C417 C 0.70746 0.58144 0.57824 0.0
C418 C 0.6897 0.56939 0.54018 0.0
C419 C 0.67123 0.55567 0.57775 0.0
C420 C 0.68882 0.57169 0.46243 0.0
C421 C 0.72885 0.59529 0.54166 0.0
C422 C 0.69262 0.58771 0.43258 0.0
C423 C 0.68974 0.58964 0.36133 0.0
C424 C 0.68218 0.57544 0.3186 0.0
C425 C 0.67829 0.55936 0.3478 0.0
C426 C 0.68178 0.55754 0.41907 0.0
H427 H 0.74281 0.59824 0.57466 0.0
H428 H 0.73195 0.59129 0.48989 0.0
H429 H 0.72841 0.6075 0.53315 0.0
H430 H 0.69713 0.59865 0.46485 0.0
H431 H 0.69268 0.60215 0.34019 0.0
H432 H 0.79396 0.13518 0.94056 0.0
H433 H 0.79898 0.13722 0.81137 0.0
H434 H 0.74492 0.1464 0.79566 0.0
H435 H 0.7403 0.1448 0.92489 0.0
H436 H 0.76941 0.11798 0.71039 0.0
H437 H 0.79579 0.18815 0.67708 0.0
H438 H 0.79663 0.17784 0.75957 0.0
H439 H 0.77117 0.17533 0.73266 0.0
C440 C 0.78286 0.13721 0.90925 0.0
C441 C 0.76653 0.13955 0.94201 0.0
C442 C 0.78588 0.13857 0.8357 0.0
C443 C 0.77266 0.14238 0.79405 0.0
C444 C 0.75565 0.14389 0.8269 0.0
H445 H 0.73782 0.12579 0.37388 0.0
H446 H 0.74195 0.13339 0.4973 0.0
C447 C 0.75273 0.14264 0.90044 0.0
C448 C 0.77624 0.14433 0.71617 0.0
H449 H 0.78626 0.17223 0.57271 0.0
C450 C 0.77334 0.1299 0.6804 0.0
C451 C 0.78181 0.16003 0.67717 0.0
C452 C 0.78677 0.17631 0.7134 0.0
C453 C 0.77464 0.13042 0.6066 0.0
C454 C 0.77879 0.1457 0.56758 0.0
C455 C 0.78278 0.16047 0.603 0.0
C456 C 0.77727 0.14562 0.49029 0.0
C457 C 0.77099 0.11446 0.57026 0.0
C458 C 0.7959 0.15075 0.44505 0.0
C459 C 0.79356 0.14666 0.37425 0.0
C460 C 0.77257 0.13701 0.34885 0.0
C461 C 0.75411 0.13291 0.393 0.0
C462 C 0.75648 0.13739 0.46304 0.0
H463 H 0.76991 0.10418 0.60781 0.0
H464 H 0.75552 0.109 0.54275 0.0
H465 H 0.78454 0.11804 0.52987 0.0
H466 H 0.81206 0.15697 0.4654 0.0
H467 H 0.80802 0.15001 0.34069 0.0
H468 H 0.91306 0.95325 0.45208 0.0
H469 H 0.91515 0.95171 0.58126 0.0
H470 H 0.9753 0.95077 0.55314 0.0
H471 H 0.97303 0.95191 0.42517 0.0
H472 H 0.92916 0.92384 0.66855 0.0
H473 H 0.97883 0.99621 0.67314 0.0
H474 H 0.95846 0.98574 0.6095 0.0
H475 H 0.98359 0.9855 0.6016 0.0
C476 C 0.92644 0.95241 0.47402 0.0
C477 C 0.94275 0.9525 0.42976 0.0
C478 C 0.92766 0.95157 0.54719 0.0
C479 C 0.94541 0.95117 0.5759 0.0
C480 C 0.96146 0.95096 0.53153 0.0
H481 H 0.98573 0.9461 -0.00133 0.0
H482 H 0.98449 0.94837 0.8694 0.0
C483 C 0.96009 0.95155 0.45884 0.0
C484 C 0.94795 0.95175 0.6522 0.0
H485 H 0.97304 0.97983 0.7805 0.0
C486 C 0.93868 0.93604 0.69329 0.0
C487 C 0.96055 0.96774 0.68336 0.0
C488 C 0.97097 0.98484 0.64004 0.0
C489 C 0.94169 0.93592 0.76566 0.0
C490 C 0.95428 0.9519 0.79695 0.0
C491 C 0.96353 0.96763 0.75581 0.0
C492 C 0.95678 0.95241 0.8734 0.0
C493 C 0.93124 0.9188 0.80879 0.0
C494 C 0.94197 0.95438 0.91725 0.0
C495 C 0.94287 0.95336 -0.00982 0.0
C496 C 0.95847 0.95017 0.02017 0.0
C497 C 0.97364 0.94858 0.97629 0.0
C498 C 0.97292 0.94987 0.90297 0.0
H499 H 0.92251 0.90747 0.77599 0.0
H500 H 0.94395 0.91753 0.83649 0.0
H501 H 0.91938 0.91846 0.8496 0.0
H502 H 0.92931 0.95618 0.89504 0.0
H503 H 0.93078 0.95433 0.02323 0.0
H504 H 0.39421 0.99664 0.401 0.0
H505 H 0.38713 0.99473 0.52919 0.0
H506 H 0.4509 0.04009 0.54569 0.0
H507 H 0.45796 0.04191 0.4173 0.0
H508 H 0.40958 0.99143 0.64006 0.0
H509 H 0.40831 0.05291 0.64561 0.0
H510 H 0.40553 0.04163 0.56612 0.0
H511 H 0.43224 0.05571 0.59704 0.0
C512 C 0.40697 1.00579 0.43253 0.0
C513 C 0.4269 1.01906 0.40007 0.0
C514 C 0.40279 1.00487 0.50541 0.0
C515 C 0.41829 1.0175 0.54667 0.0
C516 C 0.43856 0.03041 0.51453 0.0
H517 H 0.45965 0.02917 0.94856 0.0
H518 H 0.45175 0.03137 0.82531 0.0
C519 C 0.44281 0.03122 0.44163 0.0
C520 C 0.41368 1.01697 0.62365 0.0
H521 H 0.41529 0.04254 0.75582 0.0
C522 C 0.41038 1.00244 0.66531 0.0
C523 C 0.41398 0.03111 0.65647 0.0
C524 C 0.41493 0.04614 0.61399 0.0
C525 C 0.40947 1.0024 0.73906 0.0
C526 C 0.41219 1.01731 0.77164 0.0
C527 C 0.41365 0.03127 0.7304 0.0
C528 C 0.41674 1.01929 0.84692 0.0
C529 C 0.40685 0.98683 0.78209 0.0
C530 C 0.39965 1.01229 0.89971 0.0
C531 C 0.40419 1.01126 0.9702 0.0
C532 C 0.42577 1.0168 0.98816 0.0
C533 C 0.44288 0.02454 0.93564 0.0
C534 C 0.43841 0.02594 0.8656 0.0
H535 H 0.40384 0.97589 0.74901 0.0
H536 H 0.42187 0.99063 0.81064 0.0
H537 H 0.39295 0.98221 0.82217 0.0
H538 H 0.38281 1.00695 0.88606 0.0
H539 H 0.39073 1.00529 0.01008 0.0
H540 H 0.355 0.43587 0.37802 0.0
H541 H 0.35198 0.43409 0.50746 0.0
H542 H 0.30526 0.45168 0.50272 0.0
H543 H 0.30845 0.45355 0.37317 0.0
H544 H 0.3599 0.45926 0.60067 0.0
H545 H 0.2731 0.40643 0.63057 0.0
H546 H 0.28943 0.41209 0.54834 0.0
H547 H 0.27723 0.42467 0.57472 0.0
C548 C 0.34456 0.43978 0.40492 0.0
C549 C 0.33235 0.44525 0.36626 0.0
C550 C 0.34261 0.43855 0.47862 0.0
C551 C 0.32802 0.44237 0.51471 0.0
C552 C 0.31628 0.44832 0.47593 0.0
H553 H 0.2994 0.45914 0.93449 0.0
H554 H 0.29782 0.45173 0.81064 0.0
C555 C 0.31841 0.44972 0.40216 0.0
C556 C 0.32571 0.44074 0.59294 0.0
H557 H 0.28837 0.42183 0.73409 0.0
C558 C 0.34432 0.45095 0.62991 0.0
C559 C 0.30539 0.42967 0.63096 0.0
C560 C 0.28519 0.41744 0.59422 0.0
C561 C 0.34302 0.45118 0.70355 0.0
C562 C 0.32254 0.4407 0.74161 0.0
C563 C 0.30401 0.42996 0.70488 0.0
C564 C 0.32012 0.44187 0.8188 0.0
C565 C 0.36349 0.46327 0.7396 0.0
C566 C 0.33254 0.43824 0.86496 0.0
C567 C 0.33393 0.44295 0.9347 0.0
C568 C 0.32224 0.4507 0.96024 0.0
C569 C 0.30863 0.45324 0.91561 0.0
C570 C 0.30756 0.44885 0.84527 0.0
H571 H 0.37659 0.47313 0.70177 0.0
H572 H 0.3599 0.4702 0.78068 0.0
H573 H 0.36995 0.45556 0.76544 0.0
H574 H 0.34214 0.43266 0.84601 0.0
H575 H 0.345 0.44134 0.96735 0.0
H576 H 0.58891 0.30899 0.42747 0.0
H577 H 0.58582 0.30408 0.30216 0.0
H578 H 0.52886 0.30986 0.30418 0.0
H579 H 0.53164 0.31466 0.42998 0.0
H580 H 0.54512 0.2742 0.26255 0.0
H581 H 0.56545 0.33627 0.11638 0.0
H582 H 0.57524 0.33557 0.20216 0.0
H583 H 0.54743 0.33044 0.19441 0.0
C584 C 0.57621 0.30993 0.40094 0.0
C585 C 0.56035 0.31204 0.43894 0.0
C586 C 0.5744 0.30698 0.32934 0.0
C587 C 0.55703 0.30648 0.29442 0.0
C588 C 0.54244 0.31027 0.3304 0.0
H589 H 0.5085 0.27727 0.88203 0.0
H590 H 0.50895 0.28037 0.00929 0.0
C591 C 0.54408 0.31304 0.40225 0.0
C592 C 0.55242 0.29972 0.22365 0.0
H593 H 0.54912 0.31073 0.0531 0.0
C594 C 0.54607 0.28217 0.21656 0.0
C595 C 0.55352 0.31017 0.16436 0.0
C596 C 0.56093 0.32921 0.16916 0.0
C597 C 0.54066 0.27474 0.15125 0.0
C598 C 0.5418 0.28521 0.09198 0.0
C599 C 0.54803 0.30272 0.09917 0.0
C600 C 0.53822 0.2788 0.02057 0.0
C601 C 0.5336 0.25579 0.146 0.0
C602 C 0.55401 0.27614 0.98587 0.0
C603 C 0.55393 0.27455 0.91319 0.0
C604 C 0.53795 0.27546 0.87459 0.0
C605 C 0.5209 0.27638 0.91059 0.0
C606 C 0.52119 0.27824 0.98316 0.0
H607 H 0.52896 0.24863 0.19861 0.0
H608 H 0.51949 0.24938 0.11224 0.0
H609 H 0.54735 0.25478 0.12131 0.0
H610 H 0.56736 0.27668 0.01395 0.0
H611 H 0.56722 0.27381 0.88658 0.0
H612 H 1.00406 0.29311 0.43733 0.0
H613 H 1.00756 0.2948 0.30667 0.0
H614 H 0.06131 0.28502 0.31531 0.0
H615 H 0.05773 0.28278 0.44077 0.0
H616 H 1.04683 0.31779 0.21977 0.0
H617 H 1.0213 0.24889 0.1851 0.0
H618 H 1.01438 0.25595 0.26492 0.0
H619 H 1.04074 0.25763 0.25145 0.0
C620 C 1.01617 0.29094 0.41063 0.0
C621 C 1.02995 0.28711 0.44908 0.0
C622 C 1.0182 0.29195 0.33676 0.0
C623 C 1.03412 0.28931 0.3024 0.0
C624 C 1.04827 0.28624 0.34111 0.0
H625 H 0.09548 0.29764 0.88502 0.0
H626 H 0.09017 0.2963 0.01535 0.0
C627 C 1.04607 0.28493 0.41328 0.0
C628 C 1.03778 0.29076 0.226 0.0
H629 H 1.04694 0.26982 0.09448 0.0
C630 C 1.04648 0.30727 0.19172 0.0
C631 C 1.03764 0.277 0.1907 0.0
C632 C 1.0278 0.25884 0.22497 0.0
C633 C 0.05577 0.31053 0.12294 0.0
C634 C 0.05623 0.29689 0.08864 0.0
C635 C 1.04723 0.28034 0.12248 0.0
C636 C 0.06097 0.29838 0.01293 0.0
C637 C 0.06481 0.32843 0.08701 0.0
C638 C 1.04585 0.29927 0.971 0.0
C639 C 1.04874 0.29998 0.89909 0.0
C640 C 0.06689 0.29984 0.86713 0.0
C641 C 0.08174 0.2982 0.9089 0.0
C642 C 0.07877 0.2975 0.98247 0.0
H643 H 0.06928 0.33854 0.12586 0.0
H644 H 0.07944 0.33195 0.05152 0.0
H645 H 1.05211 0.3285 0.05465 0.0
H646 H 1.03155 0.29919 -0.00592 0.0
H647 H 1.03632 0.30034 0.86851 0.0
H648 H 1.00829 0.77326 0.44833 0.0
H649 H 1.00945 0.77834 0.32019 0.0
H650 H 0.07249 0.78197 0.29938 0.0
H651 H 0.07166 0.7773 0.4275 0.0
H652 H 0.05483 0.81341 0.2565 0.0
H653 H 1.02759 0.75025 0.13431 0.0
H654 H 1.01679 0.75129 0.22047 0.0
H655 H 1.04427 0.75541 0.20923 0.0
C656 C 1.02189 0.7743 0.41607 0.0
C657 C 1.03982 0.77476 0.44747 0.0
C658 C 1.02265 0.77742 0.34311 0.0
C659 C 1.04112 0.78063 0.30087 0.0
C660 C 0.05812 0.7795 0.33139 0.0
H661 H 0.08804 0.81565 0.86704 0.0
H662 H 0.08717 0.81206 -0.0042 0.0
C663 C 0.05754 0.77669 0.40432 0.0
C664 C 1.04402 0.78731 0.2268 0.0
H665 H 1.04086 0.77538 0.05741 0.0
C666 C 1.05171 0.80513 0.21283 0.0
C667 C 1.04007 0.77643 0.1705 0.0
C668 C 1.03165 0.75724 0.18373 0.0
C669 C 0.05563 0.81237 0.14333 0.0
C670 C 1.05168 0.80148 0.08709 0.0
C671 C 1.04398 0.78367 0.10108 0.0
C672 C 0.05452 0.80804 0.0129 0.0
C673 C 0.06402 0.83155 0.12991 0.0
C674 C 1.03685 0.80775 0.98083 0.0
C675 C 1.03725 0.80969 0.90756 0.0
C676 C 0.05543 0.81208 0.86558 0.0
C677 C 0.074 0.81412 0.89826 0.0
C678 C 0.07345 0.81191 0.97166 0.0
H679 H 0.06747 0.83848 0.17943 0.0
H680 H 0.07926 0.83756 0.09489 0.0
H681 H 1.05169 0.83336 0.10224 0.0
H682 H 1.02211 0.80473 0.01207 0.0
H683 H 1.0227 0.80798 0.88348 0.0
H684 H 0.25581 0.52132 0.26901 0.0
H685 H 0.23512 0.53614 0.25848 0.0
H686 H 0.24207 0.53717 0.03203 0.0
H687 H 0.26068 0.5206 0.04196 0.0
H688 H 0.24586 0.56599 0.21636 0.0
H689 H 0.18115 0.52529 0.0418 0.0
H690 H 0.19869 0.51824 0.07875 0.0
H691 H 0.20749 0.53233 -0.00083 0.0
C692 C 0.25239 0.52405 0.21665 0.0
C693 C 0.26022 0.51949 0.15646 0.0
C694 C 0.24067 0.53288 0.2107 0.0
C695 C 0.23659 0.53782 0.1444 0.0
C696 C 0.24425 0.53324 0.08414 0.0
H697 H 0.20212 0.61585 0.01207 0.0
H698 H 0.21716 0.5963 0.02382 0.0
C699 C 0.25551 0.524 0.09004 0.0
C700 C 0.22583 0.54879 0.1389 0.0
H701 H 0.1879 0.55444 0.05199 0.0
C702 C 0.23302 0.56322 0.18081 0.0
C703 C 0.2088 0.54538 0.09318 0.0
C704 C 0.19843 0.52936 0.05138 0.0
C705 C 0.22425 0.57437 0.1771 0.0
C706 C 0.20808 0.5714 0.12921 0.0
C707 C 0.20059 0.55693 0.08787 0.0
C708 C 0.19873 0.58319 0.12187 0.0
C709 C 0.23245 0.58939 0.22427 0.0
C710 C 0.18327 0.58235 0.17281 0.0
C711 C 0.17439 0.5933 0.1655 0.0
C712 C 0.18108 0.60565 0.10786 0.0
C713 C 0.19681 0.60666 0.05746 0.0
C714 C 0.20532 0.59541 0.06395 0.0
H715 H 0.24702 0.59135 0.25192 0.0
H716 H 0.23672 0.6016 0.1932 0.0
H717 H 0.21922 0.58681 0.26447 0.0
H718 H 0.17794 0.5731 0.21805 0.0
H719 H 0.16236 0.5922 0.20538 0.0
H720 H 0.75136 0.69445 0.02178 0.0
H721 H 0.77984 0.72447 0.0345 0.0
H722 H 0.78924 0.71074 0.24459 0.0
H723 H 0.76106 0.6803 0.23152 0.0
H724 H 0.77496 0.74379 0.13814 0.0
H725 H 0.85283 0.74341 0.16131 0.0
H726 H 0.82895 0.72566 0.12621 0.0
H727 H 0.83002 0.72808 0.21948 0.0
C728 C 0.75985 0.69759 0.07007 0.0
C729 C 0.75374 0.68483 0.12566 0.0
C730 C 0.77611 0.71486 0.07737 0.0
C731 C 0.7868 0.71991 0.14029 0.0
C732 C 0.78144 0.70715 0.19514 0.0
H733 H 0.87277 0.82501 0.2778 0.0
H734 H 0.8532 0.79344 0.26758 0.0
C735 C 0.7651 0.68977 0.18788 0.0
C736 C 0.80143 0.73878 0.15048 0.0
H737 H 0.8542 0.77029 0.17573 0.0
C738 C 0.7923 0.74956 0.1462 0.0
C739 C 0.82398 0.74629 0.16226 0.0
C740 C 0.83466 0.73534 0.16717 0.0
C741 C 0.80499 0.76758 0.15258 0.0
C742 C 0.82774 0.77527 0.16154 0.0
C743 C 0.83685 0.76446 0.16785 0.0
C744 C 0.84203 0.7945 0.16419 0.0
C745 C 0.79372 0.77816 0.15078 0.0
C746 C 0.84306 0.8057 0.10836 0.0
C747 C 0.85379 0.82372 0.11461 0.0
C748 C 0.86415 0.83106 0.17646 0.0
C749 C 0.86446 0.81986 0.23022 0.0
C750 C 0.85347 0.80178 0.22419 0.0
H751 H 0.77588 0.76994 0.16519 0.0
H752 H 0.80091 0.78885 0.1873 0.0
H753 H 0.79566 0.78398 0.09655 0.0
H754 H 0.83483 0.80045 0.06074 0.0
H755 H 0.85304 0.83175 0.07201 0.0
H756 H 0.69457 0.12631 0.08723 0.0
H757 H 0.65464 0.11371 0.09224 0.0
H758 H 0.64668 0.07117 0.23004 0.0
H759 H 0.68674 0.08357 0.22335 0.0
H760 H 0.62023 0.0812 0.05523 0.0
H761 H 0.61166 0.08973 0.33913 0.0
H762 H 0.63784 0.10026 0.28964 0.0
H763 H 0.62539 0.07781 0.321 0.0
C764 C 0.68431 0.11418 0.11817 0.0
C765 C 0.69396 0.10591 0.15444 0.0
C766 C 0.66138 0.10697 0.1211 0.0
C767 C 0.64733 0.09151 0.16224 0.0
C768 C 0.65696 0.08317 0.19839 0.0
H769 H 0.50604 0.02466 0.25145 0.0
H770 H 0.54606 0.03908 0.24384 0.0
C771 C 0.67992 0.09018 0.19403 0.0
C772 C 0.62276 0.08417 0.16681 0.0
H773 H 0.57855 0.07271 0.2827 0.0
C774 C 0.61119 0.07944 0.10503 0.0
C775 C 0.61067 0.08198 0.23138 0.0
C776 C 0.62199 0.08786 0.29904 0.0
C777 C 0.58813 0.07211 0.10643 0.0
C778 C 0.576 0.06954 0.17126 0.0
C779 C 0.5876 0.07451 0.23286 0.0
C780 C 0.55128 0.0611 0.17663 0.0
C781 C 0.57681 0.06668 0.03852 0.0
C782 C 0.54041 0.06866 0.14248 0.0
C783 C 0.51728 0.06045 0.14736 0.0
C784 C 0.5043 0.04434 0.18605 0.0
C785 C 0.51528 0.03695 0.22073 0.0
C786 C 0.53832 0.04525 0.21656 0.0
H787 H 0.58759 0.0661 -0.00393 0.0
H788 H 0.56165 0.05373 0.04646 0.0
H789 H 0.57209 0.07626 0.02058 0.0
H790 H 0.54983 0.08099 0.11213 0.0
H791 H 0.50957 0.06661 0.11995 0.0
H792 H 0.67799 0.17978 0.10935 0.0
H793 H 0.65916 0.19538 0.07464 0.0
H794 H 0.70292 0.23876 0.19239 0.0
H795 H 0.72196 0.22335 0.22685 0.0
H796 H 0.64195 0.21652 0.16668 0.0
H797 H 0.71154 0.25207 0.96395 0.0
H798 H 0.70383 0.23071 0.00166 0.0
H799 H 0.71766 0.24933 0.05301 0.0
C800 C 0.68322 0.19247 0.12907 0.0
C801 C 0.70142 0.20046 0.17036 0.0
C802 C 0.67241 0.20127 0.1097 0.0
C803 C 0.67977 0.21809 0.13133 0.0
C804 C 0.69703 0.22567 0.17605 0.0
H805 H 0.66122 0.29732 0.93066 0.0
H806 H 0.66999 0.28178 0.02018 0.0
C807 C 0.7078 0.21687 0.1957 0.0
C808 C 0.67152 0.2286 0.09891 0.0
H809 H 0.68369 0.25896 0.96478 0.0
C810 C 0.65106 0.22594 0.12298 0.0
C811 C 0.68357 0.24067 0.04175 0.0
C812 C 0.70534 0.24341 0.01298 0.0
C813 C 0.64219 0.23518 0.09054 0.0
C814 C 0.65418 0.24712 0.03296 0.0
C815 C 0.67477 0.24989 0.0097 0.0
C816 C 0.64533 0.25617 -0.00796 0.0
C817 C 0.62014 0.23207 0.11742 0.0
C818 C 0.62827 0.24677 0.94812 0.0
C819 C 0.62333 0.25559 0.89677 0.0
C820 C 0.63547 0.27387 0.88891 0.0
C821 C 0.65161 0.28323 0.93596 0.0
C822 C 0.65658 0.27441 0.98707 0.0
H823 H 0.61549 0.2257 0.17153 0.0
H824 H 0.62006 0.24451 0.11752 0.0
H825 H 0.60751 0.22342 0.08203 0.0
H826 H 0.61972 0.23266 0.95069 0.0
H827 H 0.61058 0.24813 0.86162 0.0
H828 H 1.04148 0.37741 0.97756 0.0
H829 H 1.047 0.40364 0.03344 0.0
H830 H 0.08069 0.43462 0.84214 0.0
H831 H 0.07439 0.40862 0.78506 0.0
H832 H 0.08298 0.43547 0.06119 0.0
H833 H 1.03254 0.44588 0.87251 0.0
H834 H 1.03341 0.42598 0.87903 0.0
H835 H 0.05454 0.44482 0.8278 0.0
C836 C 1.04994 0.38978 0.94709 0.0
C837 C 0.05724 0.39069 0.87613 0.0
C838 C 0.05325 0.40482 0.97947 0.0
C839 C 0.06383 0.42113 0.94163 0.0
C840 C 0.07203 0.42218 0.87214 0.0
H841 H 0.1041 0.52832 0.97448 0.0
H842 H 0.09814 0.49961 0.94953 0.0
C843 C 0.06865 0.40722 0.83972 0.0
C844 C 0.06571 0.437 0.97283 0.0
H845 H 0.0556 0.47021 0.9387 0.0
C846 C 0.07679 0.44297 0.03488 0.0
C847 C 0.05727 0.4467 0.93958 0.0
C848 C 1.04356 0.44042 0.87653 0.0
C849 C 0.08074 0.45883 0.0618 0.0
C850 C 0.07343 0.46898 0.02577 0.0
C851 C 0.06155 0.46261 0.96572 0.0
C852 C 0.07874 0.48666 0.04634 0.0
C853 C 0.09335 0.46494 0.12707 0.0
C854 C 0.07008 0.48911 0.10975 0.0
C855 C 0.07336 0.50562 0.12409 0.0
C856 C 0.08522 0.51999 0.075 0.0
C857 C 0.09449 0.51754 0.01287 0.0
C858 C 0.09123 0.50112 -0.00132 0.0
H859 H 0.10099 0.45713 0.14204 0.0
H860 H 0.10635 0.47886 0.11912 0.0
H861 H 0.08202 0.46377 0.17163 0.0
H862 H 0.06012 0.47814 0.14698 0.0
H863 H 0.06586 0.50697 0.17227 0.0
H864 H 0.91006 0.67704 0.83922 0.0
H865 H 0.87433 0.65405 0.89071 0.0
H866 H 0.86184 0.69302 0.97254 0.0
H867 H 0.89723 0.71603 0.91904 0.0
H868 H 0.85576 0.64462 0.02294 0.0
H869 H 0.80886 0.66615 0.86234 0.0
H870 H 0.83792 0.67498 0.84592 0.0
H871 H 0.82778 0.68279 0.91537 0.0
C872 C 0.89969 0.68065 0.86852 0.0
C873 C 0.9062 0.69826 0.8745 0.0
C874 C 0.87931 0.66754 0.89785 0.0
C875 C 0.86519 0.67182 0.93405 0.0
C876 C 0.87216 0.68942 0.94294 0.0
H877 H 0.7346 0.61687 0.12416 0.0
H878 H 0.77312 0.63717 0.09049 0.0
C879 C 0.89238 0.70254 0.91269 0.0
C880 C 0.84301 0.65787 0.9611 0.0
H881 H 0.78864 0.64418 0.95336 0.0
C882 C 0.84105 0.64445 0.00753 0.0
C883 C 0.82383 0.6576 0.94043 0.0
C884 C 0.82464 0.67105 0.88775 0.0
C885 C 0.82045 0.63105 0.03553 0.0
C886 C 0.80135 0.631 0.01588 0.0
C887 C 0.80333 0.64428 0.96865 0.0
C888 C 0.77907 0.61783 0.04547 0.0
C889 C 0.81934 0.61734 0.08718 0.0
C890 C 0.7697 0.60003 0.03336 0.0
C891 C 0.74756 0.58825 0.05377 0.0
C892 C 0.73463 0.59428 0.08555 0.0
C893 C 0.74432 0.61191 0.10013 0.0
C894 C 0.76629 0.62353 0.08062 0.0
H895 H 0.83544 0.6215 0.10938 0.0
H896 H 0.80695 0.61425 0.1312 0.0
H897 H 0.81443 0.60524 0.05972 0.0
H898 H 0.77915 0.59541 0.00509 0.0
H899 H 0.74027 0.57478 0.04075 0.0
H900 H 0.09344 0.76049 0.65495 0.0
H901 H 0.09921 0.73914 0.71976 0.0
H902 H 0.05479 0.73579 0.88907 0.0
H903 H 1.048 0.75653 0.82133 0.0
H904 H 0.11782 0.74065 0.83015 0.0
H905 H 1.03338 0.68591 0.89455 0.0
H906 H 1.03895 0.70392 0.8341 0.0
H907 H 1.03815 0.70601 0.92792 0.0
C908 C 0.08431 0.75479 0.70505 0.0
C909 C 0.06979 0.76001 0.7316 0.0
C910 C 0.08782 0.74261 0.74288 0.0
C911 C 0.07736 0.73531 0.81004 0.0
C912 C 0.06266 0.74047 0.8368 0.0
H913 H 0.09474 0.66307 0.10746 0.0
H914 H 0.08312 0.68258 0.05378 0.0
C915 C 0.05873 0.75245 0.79783 0.0
C916 C 0.08315 0.72332 0.85192 0.0
H917 H 0.06192 0.68382 0.94629 0.0
C918 C 0.10541 0.72819 0.85499 0.0
C919 C 0.06737 0.70702 0.88652 0.0
C920 C 1.04313 0.7003 0.88522 0.0
C921 C 0.11224 0.71755 0.88986 0.0
C922 C 0.09646 0.701 0.92244 0.0
C923 C 0.07422 0.6963 0.92139 0.0
C924 C 0.10273 0.68837 0.95562 0.0
C925 C 0.13656 0.72455 0.89239 0.0
C926 C 0.11714 0.68438 0.91886 0.0
C927 C 0.12419 0.67365 0.95032 0.0
C928 C 0.11645 0.66576 0.01877 0.0
C929 C 0.10106 0.66884 0.05463 0.0
C930 C 0.09442 0.68008 0.02371 0.0
H931 H 0.1459 0.73902 0.88907 0.0
H932 H 0.14054 0.71987 0.94143 0.0
H933 H 0.14234 0.72027 0.8464 0.0
H934 H 0.12317 0.68966 0.86537 0.0
H935 H 0.13578 0.67148 0.9205 0.0
H936 H 0.61378 0.4601 0.98226 0.0
H937 H 0.60282 0.43302 0.92502 0.0
H938 H 0.62655 0.41517 0.0957 0.0
H939 H 0.63768 0.44236 0.15342 0.0
H940 H 0.63396 0.42286 0.88464 0.0
H941 H 0.56522 0.37258 0.06389 0.0
H942 H 0.57353 0.39539 0.06327 0.0
H943 H 0.59 0.38777 0.10313 0.0
C944 C 0.61657 0.45037 0.00783 0.0
C945 C 0.62684 0.45342 0.07186 0.0
C946 C 0.6102 0.4349 0.97528 0.0
C947 C 0.61389 0.42215 0.00623 0.0
C948 C 0.62334 0.42479 0.07149 0.0
H949 H 0.5824 0.32494 0.80543 0.0
H950 H 0.60136 0.34945 0.88149 0.0
C951 C 0.6297 0.44031 0.10429 0.0
C952 C 0.60939 0.40683 0.96676 0.0
H953 H 0.57466 0.36304 0.96176 0.0
C954 C 0.62118 0.40974 0.90189 0.0
C955 C 0.59286 0.38975 0.98989 0.0
C956 C 0.57952 0.38606 0.05863 0.0
C957 C 0.61622 0.39611 0.858 0.0
C958 C 0.59901 0.37921 0.8795 0.0
C959 C 0.58796 0.37607 0.94593 0.0
C960 C 0.59012 0.3653 0.82971 0.0
C961 C 0.62887 0.39992 0.7878 0.0
C962 C 0.57789 0.36634 0.77541 0.0
C963 C 0.56684 0.35238 0.73326 0.0
C964 C 0.56827 0.33734 0.74388 0.0
C965 C 0.58145 0.33661 0.79574 0.0
C966 C 0.59211 0.35047 0.83929 0.0
H967 H 0.64482 0.41233 0.78647 0.0
H968 H 0.63191 0.38918 0.77571 0.0
H969 H 0.61909 0.40106 0.7458 0.0
H970 H 0.57608 0.37767 0.76775 0.0
H971 H 0.55662 0.3531 0.69377 0.0
H972 H 0.9763 0.26204 0.67792 0.0
H973 H 0.94006 0.24562 0.74224 0.0
H974 H 0.97129 0.24681 0.93428 0.0
H975 H 1.00711 0.26303 0.8707 0.0
H976 H 0.92534 0.213 0.80781 0.0
H977 H 0.92445 0.25694 0.00462 0.0
H978 H 0.94365 0.26478 0.92841 0.0
H979 H 0.94864 0.25523 0.00534 0.0
C980 C 0.97533 0.25925 0.73426 0.0
C981 C 0.99439 0.26375 0.76958 0.0
C982 C 0.95469 0.24982 0.77089 0.0
C983 C 0.95295 0.24513 0.84335 0.0
C984 C 0.97214 0.25054 0.87893 0.0
H985 H 0.85371 0.17394 0.16273 0.0
H986 H 0.88765 0.19583 0.09568 0.0
C987 C 0.99262 0.25972 0.8424 0.0
C988 C 0.93138 0.23273 0.88026 0.0
H989 H 0.89876 0.22639 0.02836 0.0
C990 C 0.91932 0.21601 0.85541 0.0
C991 C 0.92378 0.23656 0.94315 0.0
C992 C 0.93572 0.25441 0.97162 0.0
C993 C 0.90031 0.20283 0.89276 0.0
C994 C 0.89268 0.2066 0.95588 0.0
C995 C 0.90458 0.22343 0.98022 0.0
C996 C 0.87231 0.19327 -0.0032 0.0
C997 C 0.88915 0.18481 0.8655 0.0
C998 C 0.8524 0.18468 0.96401 0.0
C999 C 0.83336 0.17189 0.00159 0.0
C1000 C 0.83365 0.1677 0.07317 0.0
C1001 C 0.85329 0.17666 0.10702 0.0
C1002 C 0.87256 0.18924 0.06891 0.0
H1003 H 0.90059 0.18278 0.83111 0.0
H1004 H 0.88236 0.17458 0.90936 0.0
H1005 H 0.87549 0.18314 0.83347 0.0
H1006 H 0.85149 0.18801 0.90942 0.0
H1007 H 0.81819 0.16573 0.97523 0.0
H1008 H 0.85362 0.07485 0.05633 0.0
H1009 H 0.87188 0.05788 0.06588 0.0
H1010 H 0.8448 0.04089 0.27945 0.0
H1011 H 0.825 0.0565 0.26888 0.0
H1012 H 0.90179 0.05708 0.14695 0.0
H1013 H 0.82387 0.99464 0.20137 0.0
H1014 H 0.8245 1.01451 0.17438 0.0
H1015 H 0.82825 1.01033 0.26466 0.0
C1016 C 0.85108 0.06729 0.10516 0.0
C1017 C 0.83706 0.06691 0.16103 0.0
C1018 C 0.86189 0.05769 0.1108 0.0
C1019 C 0.85926 0.0475 0.17262 0.0
C1020 C 0.84656 0.04804 0.23007 0.0
H1021 H 0.8962 0.96993 0.29303 0.0
H1022 H 0.88134 0.98955 0.28607 0.0
C1023 C 0.83545 0.05737 0.22418 0.0
C1024 C 0.86921 0.03598 0.17636 0.0
H1025 H 0.85641 0.99374 0.21053 0.0
C1026 C 0.89185 0.04321 0.16079 0.0
C1027 C 0.85642 1.01782 0.19439 0.0
C1028 C 0.8319 1.00881 0.209 0.0
C1029 C 0.90204 0.03303 0.16462 0.0
C1030 C 0.88918 1.01478 0.18234 0.0
C1031 C 0.86652 1.00761 0.19735 0.0
C1032 C 0.8986 1.00282 0.18632 0.0
C1033 C 0.92665 0.04224 0.1519 0.0
C1034 C 0.91306 1.00318 0.13237 0.0
C1035 C 0.92206 0.99227 0.13758 0.0
C1036 C 0.91612 0.98005 0.1952 0.0
C1037 C 0.90092 0.97903 0.24755 0.0
C1038 C 0.89248 0.99036 0.24355 0.0
H1039 H 0.93443 0.05619 0.16366 0.0
H1040 H 0.93388 0.03608 0.1846 0.0
H1041 H 0.9308 0.04182 0.09547 0.0
H1042 H 0.91745 1.01189 0.08584 0.0
H1043 H 0.93363 0.99331 0.09606 0.0
H1044 H 0.32187 0.89994 0.26788 0.0
H1045 H 0.29434 0.86916 0.25962 0.0
H1046 H 0.32651 0.86855 0.06394 0.0
H1047 H 0.35472 0.89876 0.07369 0.0
H1048 H 0.26443 0.84888 0.16467 0.0
H1049 H 0.3288 0.83127 0.1838 0.0
H1050 H 0.33385 0.8528 0.19951 0.0
H1051 H 0.33467 0.8466 0.11082 0.0
C1052 C 0.32321 0.89326 0.22321 0.0
C1053 C 0.34097 0.90191 0.17232 0.0
C1054 C 0.30727 0.87567 0.21824 0.0
C1055 C 0.30868 0.86636 0.16221 0.0
C1056 C 0.32538 0.87529 0.10874 0.0
H1057 H 0.24756 0.76352 0.01801 0.0
H1058 H 0.26589 0.7947 0.03349 0.0
C1059 C 0.34141 0.89275 0.11399 0.0
C1060 C 0.29373 0.84713 0.16128 0.0
H1061 H 0.29427 0.80916 0.14815 0.0
C1062 C 0.27092 0.84016 0.16167 0.0
C1063 C 0.3021 0.83566 0.15872 0.0
C1064 C 0.32617 0.84193 0.16398 0.0
C1065 C 0.25646 0.82217 0.15598 0.0
C1066 C 0.26506 0.81094 0.14984 0.0
C1067 C 0.28773 0.81784 0.15188 0.0
C1068 C 0.25123 0.79208 0.13823 0.0
C1069 C 0.23219 0.81533 0.15447 0.0
C1070 C 0.2366 0.78016 0.19173 0.0
C1071 C 0.22595 0.76217 0.18297 0.0
C1072 C 0.22976 0.75578 0.12048 0.0
C1073 C 0.2439 0.76787 0.06634 0.0
C1074 C 0.25452 0.78576 0.07522 0.0
H1075 H 0.22842 0.82601 0.1492 0.0
H1076 H 0.22535 0.80674 0.11014 0.0
H1077 H 0.2238 0.80742 0.20413 0.0
H1078 H 0.23402 0.78472 0.24119 0.0
H1079 H 0.21505 0.75327 0.22557 0.0
H1080 H 0.58728 0.52456 0.04974 0.0
H1081 H 0.54724 0.51142 0.05398 0.0
H1082 H 0.55115 0.54487 0.2182 0.0
H1083 H 0.59116 0.55896 0.20913 0.0
H1084 H 0.51501 0.49307 0.13959 0.0
H1085 H 0.51332 0.55426 0.10659 0.0
H1086 H 0.53853 0.55397 0.0971 0.0
H1087 H 0.52701 0.55399 0.18338 0.0
C1088 C 0.57955 0.52927 0.08595 0.0
C1089 C 0.59252 0.5431 0.12799 0.0
C1090 C 0.55653 0.52168 0.08869 0.0
C1091 C 0.54565 0.52738 0.13482 0.0
C1092 C 0.55872 0.54066 0.17927 0.0
H1093 H 0.4071 0.49733 0.22948 0.0
H1094 H 0.447 0.50979 0.22802 0.0
C1095 C 0.58175 0.54866 0.1747 0.0
C1096 C 0.52084 0.51927 0.13719 0.0
H1097 H 0.47943 0.52882 0.14024 0.0
C1098 C 0.50735 0.50098 0.13922 0.0
C1099 C 0.51028 0.52929 0.13697 0.0
C1100 C 0.52305 0.54895 0.13017 0.0
C1101 C 0.48413 0.4926 0.14238 0.0
C1102 C 0.47361 0.50265 0.14253 0.0
C1103 C 0.4871 0.52091 0.14066 0.0
C1104 C 0.44885 0.49472 0.14386 0.0
C1105 C 0.47126 0.47294 0.14753 0.0
C1106 C 0.43605 0.48223 0.09645 0.0
C1107 C 0.41312 0.47488 0.09811 0.0
C1108 C 0.40208 0.4801 0.14575 0.0
C1109 C 0.41488 0.49301 0.19167 0.0
C1110 C 0.43784 0.50013 0.19093 0.0
H1111 H 0.48083 0.46745 0.17089 0.0
H1112 H 0.45563 0.46782 0.17986 0.0
H1113 H 0.4675 0.46819 0.0938 0.0
H1114 H 0.44377 0.47817 0.05737 0.0
H1115 H 0.404 0.4651 0.06135 0.0
H1116 H 0.05914 0.84275 0.56357 0.0
H1117 H 0.0544 0.86552 0.50145 0.0
H1118 H 0.9845 0.83072 0.51417 0.0
H1119 H 0.98897 0.80866 0.57687 0.0
H1120 H 1.03598 0.86856 0.37751 0.0
H1121 H 0.98628 0.87137 0.60145 0.0
H1122 H 1.00124 0.86 0.60965 0.0
H1123 H 0.97471 0.84967 0.57316 0.0
C1124 C 1.04279 0.84003 0.55342 0.0
C1125 C 1.02446 0.82382 0.57712 0.0
C1126 C 1.04004 0.85308 0.51755 0.0
C1127 C 1.01893 0.85026 0.50443 0.0
C1128 C 1.00092 0.83377 0.5253 0.0
H1129 H 0.9495 0.89671 0.31543 0.0
H1130 H 0.96309 0.87915 0.36917 0.0
C1131 C 1.00359 0.82098 0.56127 0.0
C1132 C 1.01513 0.86421 0.4703 0.0
H1133 H 0.984 0.88366 0.49052 0.0
C1134 C 1.02489 0.87204 0.4029 0.0
C1135 C 1.00058 0.869 0.50229 0.0
C1136 C 0.99029 0.8622 0.57588 0.0
C1137 C 1.01984 0.88371 0.36627 0.0
C1138 C 1.00479 0.88802 0.39767 0.0
C1139 C 0.99549 0.8805 0.46559 0.0
C1140 C 0.99724 0.8993 0.36022 0.0
C1141 C 1.02995 0.89073 0.29278 0.0
C1142 C 1.01171 0.91686 0.33611 0.0
C1143 C 1.00384 0.92724 0.30488 0.0
C1144 C 0.98125 0.92036 0.29664 0.0
C1145 C 0.96701 0.90274 0.32013 0.0
C1146 C 0.9748 0.89252 0.35141 0.0
H1147 H 1.03731 0.88339 0.27002 0.0
H1148 H 1.01753 0.89024 0.25736 0.0
H1149 H 1.04308 0.90455 0.29436 0.0
H1150 H 1.02909 0.92271 0.34295 0.0
H1151 H 1.01541 0.9407 0.28824 0.0
H1152 H 0.53277 0.26673 0.48235 0.0
H1153 H 0.51809 0.24352 0.40027 0.0
H1154 H 0.5084 0.20609 0.56857 0.0
H1155 H 0.52369 0.22945 0.65123 0.0
H1156 H 0.53736 0.212 0.42426 0.0
H1157 H 0.45153 0.19769 0.40263 0.0
H1158 H 0.47374 0.21964 0.41073 0.0
H1159 H 0.4646 0.20414 0.48484 0.0
C1160 C 0.52712 0.25349 0.50226 0.0
C1161 C 0.52931 0.24976 0.57307 0.0
C1162 C 0.51878 0.24031 0.45527 0.0
C1163 C 0.51214 0.22321 0.47882 0.0
C1164 C 0.51351 0.21931 0.54995 0.0
H1165 H 0.45041 0.12157 0.34722 0.0
H1166 H 0.46263 0.14957 0.39776 0.0
C1167 C 0.52219 0.23256 0.59688 0.0
C1168 C 0.50555 0.20961 0.42823 0.0
H1169 H 0.46152 0.17931 0.34634 0.0
C1170 C 0.52087 0.20492 0.40636 0.0
C1171 C 0.48415 0.20076 0.40471 0.0
C1172 C 0.46742 0.20572 0.42656 0.0
C1173 C 0.51499 0.19084 0.36417 0.0
C1174 C 0.49323 0.18139 0.34324 0.0
C1175 C 0.47818 0.18664 0.36253 0.0
C1176 C 0.48512 0.1648 0.30911 0.0
C1177 C 0.53174 0.18564 0.34548 0.0
C1178 C 0.49358 0.16418 0.24214 0.0
C1179 C 0.48681 0.14813 0.21343 0.0
C1180 C 0.47147 0.13255 0.25135 0.0
C1181 C 0.46261 0.13333 0.31749 0.0
C1182 C 0.46937 0.14931 0.34604 0.0
H1183 H 0.54666 0.19259 0.3755 0.0
H1184 H 0.52465 0.1714 0.35589 0.0
H1185 H 0.53676 0.18882 0.28847 0.0
H1186 H 0.50558 0.17605 0.21258 0.0
H1187 H 0.49389 0.14789 0.16232 0.0
H1188 H 0.12281 0.33043 0.63972 0.0
H1189 H 0.15825 0.34698 0.57098 0.0
H1190 H 0.12471 0.33272 0.37825 0.0
H1191 H 0.0895 0.31713 0.44649 0.0
H1192 H 0.18226 0.34173 0.46399 0.0
H1193 H 0.15256 0.38506 0.36438 0.0
H1194 H 0.13815 0.36868 0.43533 0.0
H1195 H 0.13529 0.36274 0.34522 0.0
C1196 C 0.12318 0.33053 0.58272 0.0
C1197 C 0.10358 0.32271 0.54801 0.0
C1198 C 0.14336 0.33999 0.54351 0.0
C1199 C 0.14405 0.3415 0.46944 0.0
C1200 C 0.12453 0.33217 0.43525 0.0
H1201 H 0.24991 0.401 0.14615 0.0
H1202 H 0.21626 0.37852 0.21199 0.0
C1203 C 0.10445 0.32315 0.47419 0.0
C1204 C 0.16461 0.35412 0.42796 0.0
H1205 H 0.18654 0.39029 0.31404 0.0
C1206 C 0.18321 0.35235 0.43128 0.0
C1207 C 0.1659 0.36809 0.38565 0.0
C1208 C 0.14699 0.3714 0.38282 0.0
C1209 C 0.20293 0.36407 0.39254 0.0
C1210 C 0.204 0.37783 0.34989 0.0
C1211 C 0.1855 0.3796 0.34651 0.0
C1212 C 0.22446 0.39108 0.31052 0.0
C1213 C 0.22257 0.36179 0.39718 0.0
C1214 C 0.23982 0.40571 0.34393 0.0
C1215 C 0.2587 0.41874 0.30615 0.0
C1216 C 0.26263 0.41724 0.23448 0.0
C1217 C 0.24718 0.40255 0.20114 0.0
C1218 C 0.2281 0.38966 0.23872 0.0
H1219 H 0.21859 0.3496 0.42794 0.0
H1220 H 0.2291 0.36161 0.34344 0.0
H1221 H 0.23572 0.37303 0.42269 0.0
H1222 H 0.23719 0.40702 0.39929 0.0
H1223 H 0.27054 0.42969 0.33367 0.0
H1224 H 0.4342 0.28664 0.37865 0.0
H1225 H 0.42434 0.30218 0.29268 0.0
H1226 H 0.47297 0.35125 0.36764 0.0
H1227 H 0.48339 0.33582 0.45243 0.0
H1228 H 0.40839 0.32297 0.3425 0.0
H1229 H 0.4801 0.36041 0.15156 0.0
H1230 H 0.47637 0.34205 0.20681 0.0
H1231 H 0.48672 0.36305 0.24223 0.0
C1232 C 0.4432 0.30075 0.37532 0.0
C1233 C 0.4594 0.31007 0.42221 0.0
C1234 C 0.43757 0.30957 0.32639 0.0
C1235 C 0.44816 0.32778 0.3236 0.0
C1236 C 0.46498 0.33718 0.36831 0.0
H1237 H 0.41337 0.40292 0.21765 0.0
H1238 H 0.43213 0.38726 0.252 0.0
C1239 C 0.47065 0.32837 0.41725 0.0
C1240 C 0.43938 0.33675 0.28198 0.0
H1241 H 0.45315 0.36928 0.15564 0.0
C1242 C 0.41798 0.33286 0.30068 0.0
C1243 C 0.45218 0.34973 0.2283 0.0
C1244 C 0.47507 0.35398 0.20553 0.0
C1245 C 0.4092 0.34207 0.26834 0.0
C1246 C 0.42218 0.3553 0.21585 0.0
C1247 C 0.44339 0.359 0.1959 0.0
C1248 C 0.41417 0.36609 0.18484 0.0
C1249 C 0.38647 0.3381 0.29221 0.0
C1250 C 0.39849 0.3594 0.13451 0.0
C1251 C 0.38772 0.36821 0.1152 0.0
C1252 C 0.39256 0.38371 0.14639 0.0
C1253 C 0.4093 0.3909 0.19351 0.0
C1254 C 0.42008 0.38209 0.21266 0.0
H1255 H 0.37917 0.32817 0.33719 0.0
H1256 H 0.38698 0.35017 0.30817 0.0
H1257 H 0.37557 0.33323 0.24785 0.0
H1258 H 0.39376 0.34694 0.11331 0.0
H1259 H 0.37469 0.36234 0.07935 0.0
H1260 H 0.99282 0.05739 0.34495 0.0
H1261 H 0.99729 0.08575 0.36844 0.0
H1262 H 1.04045 0.10863 0.18116 0.0
H1263 H 1.03577 0.08004 0.15688 0.0
H1264 H 1.03718 0.11393 0.39427 0.0
H1265 H 1.00227 0.13109 0.16895 0.0
H1266 H 0.99651 0.10913 0.18872 0.0
H1267 H 1.02249 0.12519 0.14684 0.0
C1268 C 1.0031 0.06841 0.30829 0.0
C1269 C 1.01417 0.06648 0.24956 0.0
C1270 C 1.00558 0.08463 0.32162 0.0
C1271 C 1.01919 0.09942 0.27668 0.0
C1272 C 1.02958 0.09743 0.21617 0.0
H1273 H 0.06031 0.20909 0.34663 0.0
H1274 H 0.05433 0.18251 0.29303 0.0
C1275 C 1.02697 0.08108 0.20245 0.0
C1276 C 1.024 0.11695 0.29812 0.0
H1277 H 1.01861 0.15218 0.25362 0.0
C1278 C 1.03308 0.12226 0.36338 0.0
C1279 C 1.01912 0.12805 0.25733 0.0
C1280 C 1.00942 0.1231 0.18673 0.0
C1281 C 1.03702 0.13807 0.38966 0.0
C1282 C 1.03118 0.14883 0.35076 0.0
C1283 C 1.02282 0.14387 0.2841 0.0
C1284 C 1.03327 0.16499 0.37987 0.0
C1285 C 1.04773 0.14313 0.4588 0.0
C1286 C 1.02289 0.1641 0.44557 0.0
C1287 C 1.02655 0.17926 0.47694 0.0
C1288 C 1.04045 0.19586 0.44308 0.0
C1289 C 1.04991 0.19666 0.37537 0.0
C1290 C 1.04633 0.18142 0.34417 0.0
H1291 H 0.05746 0.13675 0.46968 0.0
H1292 H 0.05871 0.15745 0.45936 0.0
H1293 H 1.03485 0.13883 0.50221 0.0
H1294 H 1.01229 0.1516 0.47365 0.0
H1295 H 1.01903 0.17792 0.52911 0.0
H1296 H 0.21103 0.88679 0.5261 0.0
H1297 H 0.24549 0.90902 0.46566 0.0
H1298 H 0.2108 0.91123 0.28771 0.0
H1299 H 0.17621 0.88839 0.34618 0.0
H1300 H 0.26146 0.90699 0.31286 0.0
H1301 H 0.24976 0.96317 0.36365 0.0
H1302 H 0.23589 0.94313 0.41856 0.0
H1303 H 0.22749 0.94374 0.33131 0.0
C1304 C 0.21066 0.89176 0.47371 0.0
C1305 C 0.19076 0.88577 0.44117 0.0
C1306 C 0.23037 0.90457 0.43955 0.0
C1307 C 0.23053 0.91178 0.37272 0.0
C1308 C 0.21086 0.90588 0.3397 0.0
H1309 H 0.35053 0.99938 0.15468 0.0
H1310 H 0.31124 0.97821 0.18265 0.0
C1311 C 0.19112 0.89292 0.37348 0.0
C1312 C 0.25148 0.92545 0.33782 0.0
H1313 H 0.28362 0.96955 0.30904 0.0
C1314 C 0.26623 0.92065 0.31102 0.0
C1315 C 0.25744 0.94318 0.33519 0.0
C1316 C 0.24194 0.94877 0.36381 0.0
C1317 C 0.28723 0.93325 0.28354 0.0
C1318 C 0.29372 0.95111 0.28455 0.0
C1319 C 0.27857 0.95586 0.30831 0.0
C1320 C 0.31689 0.96487 0.26956 0.0
C1321 C 0.30244 0.9273 0.25522 0.0
C1322 C 0.33274 0.9648 0.31114 0.0
C1323 C 0.35481 0.97662 0.29528 0.0
C1324 C 0.36163 0.98905 0.23805 0.0
C1325 C 0.34572 0.98991 0.19886 0.0
C1326 C 0.32337 0.97782 0.21459 0.0
H1327 H 0.29312 0.91401 0.23581 0.0
H1328 H 0.31379 0.93634 0.21164 0.0
H1329 H 0.31235 0.9268 0.2982 0.0
H1330 H 0.32805 0.95528 0.35514 0.0
H1331 H 0.36658 0.9757 0.32727 0.0
loop_
_geom_bond_atom_site_label_1
_geom_bond_atom_site_label_2
_geom_bond_distance
_geom_bond_site_symmetry_2
_ccdc_geom_bond_type
Nd0 C2 2.836 . S
Nd0 O20 2.500 . S
Nd0 O21 2.492 . S
Nd0 O22 2.487 1_554 S
Nd0 O23 2.682 . S
Nd0 O24 2.410 . S
Nd0 O29 2.414 . S
Nd0 O31 2.424 . S
Nd1 C11 2.836 . S
Nd1 O23 2.414 . S
Nd1 O25 2.424 . S
Nd1 O26 2.500 . S
Nd1 O27 2.492 . S
Nd1 O28 2.487 . S
Nd1 O29 2.682 . S
Nd1 O30 2.410 . S
C2 Nd0 2.836 . S
C2 C3 1.498 . S
C2 O20 1.258 . S
C2 O21 1.239 . S
C3 C2 1.498 . S
C3 C4 1.366 . S
C3 C8 1.407 . S
C4 C3 1.366 . S
C4 C5 1.392 . S
C4 H32 0.930 . S
C5 C4 1.392 . S
C5 C6 1.398 . S
C5 H33 0.929 . S
C6 C5 1.398 . S
C6 C7 1.352 . S
C7 C6 1.352 . S
C7 C8 1.384 . S
C7 H34 0.930 . S
C8 C3 1.407 . S
C8 C7 1.384 . S
C8 H35 0.929 . S
C9 O22 1.241 . S
C9 O23 1.273 1_556 S
C10 O24 1.251 . S
C10 O25 1.268 . S
C11 Nd1 2.836 . S
C11 C12 1.498 . S
C11 O26 1.258 . S
C11 O27 1.239 . S
C12 C11 1.498 . S
C12 C13 1.366 . S
C12 C17 1.407 . S
C13 C12 1.366 . S
C13 C14 1.392 . S
C13 H36 0.930 . S
C14 C13 1.392 . S
C14 C15 1.398 . S
C14 H37 0.929 . S
C15 C14 1.398 . S
C15 C16 1.352 . S
C16 C15 1.352 . S
C16 C17 1.384 . S
C16 H38 0.930 . S
C17 C12 1.407 . S
C17 C16 1.384 . S
C17 H39 0.929 . S
C18 O28 1.241 . S
C18 O29 1.273 . S
C19 O30 1.251 . S
C19 O31 1.268 . S
O20 Nd0 2.500 . S
O20 C2 1.258 . S
O21 Nd0 2.492 . S
O21 C2 1.239 . S
O22 Nd0 2.487 1_556 S
O22 C9 1.241 . S
O23 Nd0 2.682 . S
O23 Nd1 2.414 . S
O23 C9 1.273 1_554 S
O24 Nd0 2.410 . S
O24 C10 1.251 . S
O25 Nd1 2.424 . S
O25 C10 1.268 . S
O26 Nd1 2.500 . S
O26 C11 1.258 . S
O27 Nd1 2.492 . S
O27 C11 1.239 . S
O28 Nd1 2.487 . S
O28 C18 1.241 . S
O29 Nd0 2.414 . S
O29 Nd1 2.682 . S
O29 C18 1.273 . S
O30 Nd1 2.410 . S
O30 C19 1.251 . S
O31 Nd0 2.424 . S
O31 C19 1.268 . S
H32 C4 0.930 . S
H33 C5 0.929 . S
H34 C7 0.930 . S
H35 C8 0.929 . S
H36 C13 0.930 . S
H37 C14 0.929 . S
H38 C16 0.930 . S
H39 C17 0.929 . S
Nd40 C42 2.836 . S
Nd40 O60 2.500 . S
Nd40 O61 2.492 . S
Nd40 O62 2.487 . S
Nd40 O63 2.682 . S
Nd40 O64 2.410 . S
Nd40 O69 2.414 . S
Nd40 O71 2.424 . S
Nd41 C51 2.836 . S
Nd41 O63 2.414 . S
Nd41 O65 2.424 . S
Nd41 O66 2.500 . S
Nd41 O67 2.492 . S
Nd41 O68 2.487 1_554 S
Nd41 O69 2.682 . S
Nd41 O70 2.410 . S
C42 Nd40 2.836 . S
C42 C43 1.498 . S
C42 O60 1.258 . S
C42 O61 1.239 . S
C43 C42 1.498 . S
C43 C44 1.366 . S
C43 C48 1.407 . S
C44 C43 1.366 . S
C44 C45 1.392 . S
C44 H72 0.930 . S
C45 C44 1.392 . S
C45 C46 1.398 . S
C45 H73 0.929 . S
C46 C45 1.398 . S
C46 C47 1.352 . S
C47 C46 1.352 . S
C47 C48 1.384 . S
C47 H74 0.930 . S
C48 C43 1.407 . S
C48 C47 1.384 . S
C48 H75 0.929 . S
C49 O62 1.241 . S
C49 O63 1.273 . S
C50 O64 1.251 . S
C50 O65 1.268 . S
C51 Nd41 2.836 . S
C51 C52 1.498 . S
C51 O66 1.258 . S
C51 O67 1.239 . S
C52 C51 1.498 . S
C52 C53 1.366 . S
C52 C57 1.407 . S
C53 C52 1.366 . S
C53 C54 1.392 . S
C53 H76 0.930 . S
C54 C53 1.392 . S
C54 C55 1.398 . S
C54 H77 0.929 . S
C55 C54 1.398 . S
C55 C56 1.352 . S
C56 C55 1.352 . S
C56 C57 1.384 . S
C56 H78 0.930 . S
C57 C52 1.407 . S
C57 C56 1.384 . S
C57 H79 0.929 . S
C58 O68 1.241 . S
C58 O69 1.273 1_556 S
C59 O70 1.251 . S
C59 O71 1.268 . S
O60 Nd40 2.500 . S
O60 C42 1.258 . S
O61 Nd40 2.492 . S
O61 C42 1.239 . S
O62 Nd40 2.487 . S
O62 C49 1.241 . S
O63 Nd40 2.682 . S
O63 Nd41 2.414 . S
O63 C49 1.273 . S
O64 Nd40 2.410 . S
O64 C50 1.251 . S
O65 Nd41 2.424 . S
O65 C50 1.268 . S
O66 Nd41 2.500 . S
O66 C51 1.258 . S
O67 Nd41 2.492 . S
O67 C51 1.239 . S
O68 Nd41 2.487 1_556 S
O68 C58 1.241 . S
O69 Nd40 2.414 . S
O69 Nd41 2.682 . S
O69 C58 1.273 1_554 S
O70 Nd41 2.410 . S
O70 C59 1.251 . S
O71 Nd40 2.424 . S
O71 C59 1.268 . S
H72 C44 0.930 . S
H73 C45 0.929 . S
H74 C47 0.930 . S
H75 C48 0.929 . S
H76 C53 0.930 . S
H77 C54 0.929 . S
H78 C56 0.930 . S
H79 C57 0.929 . S
Nd80 C82 2.836 . S
Nd80 O100 2.500 . S
Nd80 O101 2.492 . S
Nd80 O102 2.487 . S
Nd80 O103 2.682 . S
Nd80 O104 2.410 . S
Nd80 O109 2.414 . S
Nd80 O111 2.424 . S
Nd81 C91 2.836 . S
Nd81 O103 2.414 . S
Nd81 O105 2.424 . S
Nd81 O106 2.500 . S
Nd81 O107 2.492 . S
Nd81 O108 2.487 . S
Nd81 O109 2.682 . S
Nd81 O110 2.410 . S
C82 Nd80 2.836 . S
C82 C83 1.498 . S
C82 O100 1.258 . S
C82 O101 1.239 . S
C83 C82 1.498 . S
C83 C84 1.366 . S
C83 C88 1.407 . S
C84 C83 1.366 . S
C84 C85 1.392 . S
C84 H112 0.930 . S
C85 C84 1.392 . S
C85 C86 1.398 . S
C85 H113 0.929 . S
C86 C85 1.398 . S
C86 C87 1.352 . S
C87 C86 1.352 . S
C87 C88 1.384 . S
C87 H114 0.930 . S
C88 C83 1.407 . S
C88 C87 1.384 . S
C88 H115 0.929 . S
C89 O102 1.241 . S
C89 O103 1.273 . S
C90 O104 1.251 . S
C90 O105 1.268 . S
C91 Nd81 2.836 . S
C91 C92 1.498 . S
C91 O106 1.258 . S
C91 O107 1.239 . S
C92 C91 1.498 . S
C92 C93 1.366 . S
C92 C97 1.407 . S
C93 C92 1.366 . S
C93 C94 1.392 . S
C93 H116 0.930 . S
C94 C93 1.392 . S
C94 C95 1.398 . S
C94 H117 0.929 . S
C95 C94 1.398 . S
C95 C96 1.352 . S
C96 C95 1.352 . S
C96 C97 1.384 . S
C96 H118 0.930 . S
C97 C92 1.407 . S
C97 C96 1.384 . S
C97 H119 0.929 . S
C98 O108 1.241 . S
C98 O109 1.273 . S
C99 O110 1.251 . S
C99 O111 1.268 . S
O100 Nd80 2.500 . S
O100 C82 1.258 . S
O101 Nd80 2.492 . S
O101 C82 1.239 . S
O102 Nd80 2.487 . S
O102 C89 1.241 . S
O103 Nd80 2.682 . S
O103 Nd81 2.414 . S
O103 C89 1.273 . S
O104 Nd80 2.410 . S
O104 C90 1.251 . S
O105 Nd81 2.424 . S
O105 C90 1.268 . S
O106 Nd81 2.500 . S
O106 C91 1.258 . S
O107 Nd81 2.492 . S
O107 C91 1.239 . S
O108 Nd81 2.487 . S
O108 C98 1.241 . S
O109 Nd80 2.414 . S
O109 Nd81 2.682 . S
O109 C98 1.273 . S
O110 Nd81 2.410 . S
O110 C99 1.251 . S
O111 Nd80 2.424 . S
O111 C99 1.268 . S
H112 C84 0.930 . S
H113 C85 0.929 . S
H114 C87 0.930 . S
H115 C88 0.929 . S
H116 C93 0.930 . S
H117 C94 0.929 . S
H118 C96 0.930 . S
H119 C97 0.929 . S
Nd120 C122 2.836 . S
Nd120 O140 2.500 . S
Nd120 O141 2.492 . S
Nd120 O142 2.487 . S
Nd120 O143 2.682 . S
Nd120 O144 2.410 . S
Nd120 O149 2.414 . S
Nd120 O151 2.424 . S
Nd121 C131 2.836 . S
Nd121 O143 2.414 . S
Nd121 O145 2.424 . S
Nd121 O146 2.500 . S
Nd121 O147 2.492 . S
Nd121 O148 2.487 . S
Nd121 O149 2.682 . S
Nd121 O150 2.410 . S
C122 Nd120 2.836 . S
C122 C123 1.498 . S
C122 O140 1.258 . S
C122 O141 1.239 . S
C123 C122 1.498 . S
C123 C124 1.366 . S
C123 C128 1.407 . S
C124 C123 1.366 . S
C124 C125 1.392 . S
C124 H152 0.930 . S
C125 C124 1.392 . S
C125 C126 1.398 . S
C125 H153 0.929 . S
C126 C125 1.398 . S
C126 C127 1.352 . S
C127 C126 1.352 . S
C127 C128 1.384 . S
C127 H154 0.930 . S
C128 C123 1.407 . S
C128 C127 1.384 . S
C128 H155 0.929 . S
C129 O142 1.241 . S
C129 O143 1.273 . S
C130 O144 1.251 . S
C130 O145 1.268 . S
C131 Nd121 2.836 . S
C131 C132 1.498 1_565 S
C131 O146 1.258 . S
C131 O147 1.239 . S
C132 C131 1.498 1_545 S
C132 C133 1.366 . S
C132 C137 1.407 . S
C133 C132 1.366 . S
C133 C134 1.392 . S
C133 H156 0.930 . S
C134 C133 1.392 . S
C134 C135 1.398 . S
C134 H157 0.929 . S
C135 C134 1.398 . S
C135 C136 1.352 . S
C136 C135 1.352 . S
C136 C137 1.384 . S
C136 H158 0.930 . S
C137 C132 1.407 . S
C137 C136 1.384 . S
C137 H159 0.929 . S
C138 O148 1.241 . S
C138 O149 1.273 . S
C139 O150 1.251 . S
C139 O151 1.268 . S
O140 Nd120 2.500 . S
O140 C122 1.258 . S
O141 Nd120 2.492 . S
O141 C122 1.239 . S
O142 Nd120 2.487 . S
O142 C129 1.241 . S
O143 Nd120 2.682 . S
O143 Nd121 2.414 . S
O143 C129 1.273 . S
O144 Nd120 2.410 . S
O144 C130 1.251 . S
O145 Nd121 2.424 . S
O145 C130 1.268 . S
O146 Nd121 2.500 . S
O146 C131 1.258 . S
O147 Nd121 2.492 . S
O147 C131 1.239 . S
O148 Nd121 2.487 . S
O148 C138 1.241 . S
O149 Nd120 2.414 . S
O149 Nd121 2.682 . S
O149 C138 1.273 . S
O150 Nd121 2.410 . S
O150 C139 1.251 . S
O151 Nd120 2.424 . S
O151 C139 1.268 . S
H152 C124 0.930 . S
H153 C125 0.929 . S
H154 C127 0.930 . S
H155 C128 0.929 . S
H156 C133 0.930 . S
H157 C134 0.929 . S
H158 C136 0.930 . S
H159 C137 0.929 . S
Nd160 C162 2.836 . S
Nd160 O180 2.500 . S
Nd160 O181 2.492 . S
Nd160 O182 2.487 . S
Nd160 O183 2.682 1_545 S
Nd160 O184 2.410 . S
Nd160 O189 2.414 . S
Nd160 O191 2.424 1_545 S
Nd161 C171 2.836 . S
Nd161 O183 2.414 . S
Nd161 O185 2.424 1_565 S
Nd161 O186 2.500 . S
Nd161 O187 2.492 . S
Nd161 O188 2.487 . S
Nd161 O189 2.682 1_565 S
Nd161 O190 2.410 . S
C162 Nd160 2.836 . S
C162 C163 1.498 . S
C162 O180 1.258 . S
C162 O181 1.239 . S
C163 C162 1.498 . S
C163 C164 1.366 . S
C163 C168 1.407 . S
C164 C163 1.366 . S
C164 C165 1.392 . S
C164 H192 0.930 . S
C165 C164 1.392 . S
C165 C166 1.398 . S
C165 H193 0.929 . S
C166 C165 1.398 . S
C166 C167 1.352 . S
C167 C166 1.352 . S
C167 C168 1.384 . S
C167 H194 0.930 . S
C168 C163 1.407 . S
C168 C167 1.384 . S
C168 H195 0.929 . S
C169 O182 1.241 1_565 S
C169 O183 1.273 . S
C170 O184 1.251 . S
C170 O185 1.268 . S
C171 Nd161 2.836 . S
C171 C172 1.498 . S
C171 O186 1.258 . S
C171 O187 1.239 . S
C172 C171 1.498 . S
C172 C173 1.366 . S
C172 C177 1.407 . S
C173 C172 1.366 . S
C173 C174 1.392 . S
C173 H196 0.930 . S
C174 C173 1.392 . S
C174 C175 1.398 . S
C174 H197 0.929 . S
C175 C174 1.398 . S
C175 C176 1.352 . S
C176 C175 1.352 . S
C176 C177 1.384 . S
C176 H198 0.930 . S
C177 C172 1.407 . S
C177 C176 1.384 . S
C177 H199 0.929 . S
C178 O188 1.241 . S
C178 O189 1.273 1_565 S
C179 O190 1.251 . S
C179 O191 1.268 . S
O180 Nd160 2.500 . S
O180 C162 1.258 . S
O181 Nd160 2.492 . S
O181 C162 1.239 . S
O182 Nd160 2.487 . S
O182 C169 1.241 1_545 S
O183 Nd160 2.682 1_565 S
O183 Nd161 2.414 . S
O183 C169 1.273 . S
O184 Nd160 2.410 . S
O184 C170 1.251 . S
O185 Nd161 2.424 1_545 S
O185 C170 1.268 . S
O186 Nd161 2.500 . S
O186 C171 1.258 . S
O187 Nd161 2.492 . S
O187 C171 1.239 . S
O188 Nd161 2.487 . S
O188 C178 1.241 . S
O189 Nd160 2.414 . S
O189 Nd161 2.682 1_545 S
O189 C178 1.273 1_545 S
O190 Nd161 2.410 . S
O190 C179 1.251 . S
O191 Nd160 2.424 1_565 S
O191 C179 1.268 . S
H192 C164 0.930 . S
H193 C165 0.929 . S
H194 C167 0.930 . S
H195 C168 0.929 . S
H196 C173 0.930 . S
H197 C174 0.929 . S
H198 C176 0.930 . S
H199 C177 0.929 . S
Nd200 C202 2.836 . S
Nd200 O220 2.500 . S
Nd200 O221 2.492 . S
Nd200 O222 2.487 . S
Nd200 O223 2.682 . S
Nd200 O224 2.410 . S
Nd200 O229 2.414 . S
Nd200 O231 2.424 . S
Nd201 C211 2.836 . S
Nd201 O223 2.414 . S
Nd201 O225 2.424 . S
Nd201 O226 2.500 . S
Nd201 O227 2.492 . S
Nd201 O228 2.487 . S
Nd201 O229 2.682 . S
Nd201 O230 2.410 . S
C202 Nd200 2.836 . S
C202 C203 1.498 . S
C202 O220 1.258 . S
C202 O221 1.239 . S
C203 C202 1.498 . S
C203 C204 1.366 . S
C203 C208 1.407 . S
C204 C203 1.366 . S
C204 C205 1.392 . S
C204 H232 0.930 . S
C205 C204 1.392 . S
C205 C206 1.398 . S
C205 H233 0.929 . S
C206 C205 1.398 . S
C206 C207 1.352 . S
C207 C206 1.352 . S
C207 C208 1.384 . S
C207 H234 0.930 . S
C208 C203 1.407 . S
C208 C207 1.384 . S
C208 H235 0.929 . S
C209 O222 1.241 . S
C209 O223 1.273 . S
C210 O224 1.251 . S
C210 O225 1.268 . S
C211 Nd201 2.836 . S
C211 C212 1.498 . S
C211 O226 1.258 . S
C211 O227 1.239 . S
C212 C211 1.498 . S
C212 C213 1.366 . S
C212 C217 1.407 . S
C213 C212 1.366 . S
C213 C214 1.392 . S
C213 H236 0.930 . S
C214 C213 1.392 . S
C214 C215 1.398 . S
C214 H237 0.929 . S
C215 C214 1.398 . S
C215 C216 1.352 . S
C216 C215 1.352 . S
C216 C217 1.384 . S
C216 H238 0.930 . S
C217 C212 1.407 . S
C217 C216 1.384 . S
C217 H239 0.929 . S
C218 O228 1.241 . S
C218 O229 1.273 . S
C219 O230 1.251 . S
C219 O231 1.268 . S
O220 Nd200 2.500 . S
O220 C202 1.258 . S
O221 Nd200 2.492 . S
O221 C202 1.239 . S
O222 Nd200 2.487 . S
O222 C209 1.241 . S
O223 Nd200 2.682 . S
O223 Nd201 2.414 . S
O223 C209 1.273 . S
O224 Nd200 2.410 . S
O224 C210 1.251 . S
O225 Nd201 2.424 . S
O225 C210 1.268 . S
O226 Nd201 2.500 . S
O226 C211 1.258 . S
O227 Nd201 2.492 . S
O227 C211 1.239 . S
O228 Nd201 2.487 . S
O228 C218 1.241 . S
O229 Nd200 2.414 . S
O229 Nd201 2.682 . S
O229 C218 1.273 . S
O230 Nd201 2.410 . S
O230 C219 1.251 . S
O231 Nd200 2.424 . S
O231 C219 1.268 . S
H232 C204 0.930 . S
H233 C205 0.929 . S
H234 C207 0.930 . S
H235 C208 0.929 . S
H236 C213 0.930 . S
H237 C214 0.929 . S
H238 C216 0.930 . S
H239 C217 0.929 . S
Nd240 C242 2.836 . S
Nd240 O260 2.500 . S
Nd240 O261 2.492 . S
Nd240 O262 2.487 . S
Nd240 O263 2.682 . S
Nd240 O264 2.410 . S
Nd240 O269 2.414 . S
Nd240 O271 2.424 . S
Nd241 C251 2.836 . S
Nd241 O263 2.414 . S
Nd241 O265 2.424 . S
Nd241 O266 2.500 . S
Nd241 O267 2.492 . S
Nd241 O268 2.487 . S
Nd241 O269 2.682 . S
Nd241 O270 2.410 . S
C242 Nd240 2.836 . S
C242 C243 1.498 . S
C242 O260 1.258 . S
C242 O261 1.239 . S
C243 C242 1.498 . S
C243 C244 1.366 . S
C243 C248 1.407 . S
C244 C243 1.366 . S
C244 C245 1.392 . S
C244 H272 0.930 . S
C245 C244 1.392 . S
C245 C246 1.398 . S
C245 H273 0.929 . S
C246 C245 1.398 . S
C246 C247 1.352 . S
C247 C246 1.352 . S
C247 C248 1.384 . S
C247 H274 0.930 . S
C248 C243 1.407 . S
C248 C247 1.384 . S
C248 H275 0.929 . S
C249 O262 1.241 . S
C249 O263 1.273 . S
C250 O264 1.251 . S
C250 O265 1.268 . S
C251 Nd241 2.836 . S
C251 C252 1.498 . S
C251 O266 1.258 . S
C251 O267 1.239 . S
C252 C251 1.498 . S
C252 C253 1.366 . S
C252 C257 1.407 . S
C253 C252 1.366 . S
C253 C254 1.392 . S
C253 H276 0.930 . S
C254 C253 1.392 . S
C254 C255 1.398 . S
C254 H277 0.929 . S
C255 C254 1.398 . S
C255 C256 1.352 . S
C256 C255 1.352 . S
C256 C257 1.384 . S
C256 H278 0.930 . S
C257 C252 1.407 . S
C257 C256 1.384 . S
C257 H279 0.929 . S
C258 O268 1.241 . S
C258 O269 1.273 . S
C259 O270 1.251 . S
C259 O271 1.268 . S
O260 Nd240 2.500 . S
O260 C242 1.258 . S
O261 Nd240 2.492 . S
O261 C242 1.239 . S
O262 Nd240 2.487 . S
O262 C249 1.241 . S
O263 Nd240 2.682 . S
O263 Nd241 2.414 . S
O263 C249 1.273 . S
O264 Nd240 2.410 . S
O264 C250 1.251 . S
O265 Nd241 2.424 . S
O265 C250 1.268 . S
O266 Nd241 2.500 . S
O266 C251 1.258 . S
O267 Nd241 2.492 . S
O267 C251 1.239 . S
O268 Nd241 2.487 . S
O268 C258 1.241 . S
O269 Nd240 2.414 . S
O269 Nd241 2.682 . S
O269 C258 1.273 . S
O270 Nd241 2.410 . S
O270 C259 1.251 . S
O271 Nd240 2.424 . S
O271 C259 1.268 . S
H272 C244 0.930 . S
H273 C245 0.929 . S
H274 C247 0.930 . S
H275 C248 0.929 . S
H276 C253 0.930 . S
H277 C254 0.929 . S
H278 C256 0.930 . S
H279 C257 0.929 . S
Nd280 C282 2.836 . S
Nd280 O300 2.500 1_655 S
Nd280 O301 2.492 . S
Nd280 O302 2.487 . S
Nd280 O303 2.682 . S
Nd280 O304 2.410 . S
Nd280 O309 2.414 1_655 S
Nd280 O311 2.424 1_655 S
Nd281 C291 2.819 . S
Nd281 O303 2.414 . S
Nd281 O305 2.424 . S
Nd281 O306 2.500 . S
Nd281 O307 2.492 1_655 S
Nd281 O308 2.487 1_655 S
Nd281 O309 2.682 1_655 S
Nd281 O310 2.410 1_655 S
C282 Nd280 2.836 . S
C282 C283 1.498 . S
C282 O300 1.258 1_655 S
C282 O301 1.239 . S
C283 C282 1.498 . S
C283 C284 1.366 1_655 S
C283 C288 1.407 . S
C284 C283 1.366 1_455 S
C284 C285 1.392 . S
C284 H312 0.930 . S
C285 C284 1.392 . S
C285 C286 1.398 1_455 S
C285 H313 0.929 . S
C286 C285 1.398 1_655 S
C286 C287 1.352 . S
C287 C286 1.352 . S
C287 C288 1.384 . S
C287 H314 0.930 . S
C288 C283 1.407 . S
C288 C287 1.384 . S
C288 H315 0.929 . S
C289 O302 1.241 . S
C289 O303 1.273 . S
C290 O304 1.251 . S
C290 O305 1.268 . S
C291 Nd281 2.819 . S
C291 C292 1.536 1_655 S
C291 O306 1.282 . S
C291 O307 1.201 1_655 S
C292 C291 1.536 1_455 S
C292 C293 1.331 1_455 S
C292 C297 1.426 . S
C293 C292 1.331 1_655 S
C293 C294 1.392 . S
C293 H316 0.930 . S
C294 C293 1.392 . S
C294 C295 1.398 1_655 S
C294 H317 0.929 . S
C295 C294 1.398 1_455 S
C295 C296 1.352 . S
C296 C295 1.352 . S
C296 C297 1.384 . S
C296 H318 0.930 . S
C297 C292 1.426 . S
C297 C296 1.384 . S
C297 H319 0.929 . S
C298 O308 1.241 . S
C298 O309 1.273 . S
C299 O310 1.251 . S
C299 O311 1.268 . S
O300 Nd280 2.500 1_455 S
O300 C282 1.258 1_455 S
O301 Nd280 2.492 . S
O301 C282 1.239 . S
O302 Nd280 2.487 . S
O302 C289 1.241 . S
O303 Nd280 2.682 . S
O303 Nd281 2.414 . S
O303 C289 1.273 . S
O304 Nd280 2.410 . S
O304 C290 1.251 . S
O305 Nd281 2.424 . S
O305 C290 1.268 . S
O306 Nd281 2.500 . S
O306 C291 1.282 . S
O307 Nd281 2.492 1_455 S
O307 C291 1.201 1_455 S
O308 Nd281 2.487 1_455 S
O308 C298 1.241 . S
O309 Nd280 2.414 1_455 S
O309 Nd281 2.682 1_455 S
O309 C298 1.273 . S
O310 Nd281 2.410 1_455 S
O310 C299 1.251 . S
O311 Nd280 2.424 1_455 S
O311 C299 1.268 . S
H312 C284 0.930 . S
H313 C285 0.929 . S
H314 C287 0.930 . S
H315 C288 0.929 . S
H316 C293 0.930 . S
H317 C294 0.929 . S
H318 C296 0.930 . S
H319 C297 0.929 . S
Nd320 C322 2.836 . S
Nd320 O340 2.500 . S
Nd320 O341 2.492 . S
Nd320 O342 2.487 . S
Nd320 O343 2.682 1_455 S
Nd320 O344 2.410 . S
Nd320 O349 2.414 1_455 S
Nd320 O351 2.424 . S
Nd321 C331 2.836 . S
Nd321 O343 2.414 . S
Nd321 O345 2.424 . S
Nd321 O346 2.500 . S
Nd321 O347 2.492 . S
Nd321 O348 2.487 . S
Nd321 O349 2.682 . S
Nd321 O350 2.410 . S
C322 Nd320 2.836 . S
C322 C323 1.498 . S
C322 O340 1.258 . S
C322 O341 1.239 . S
C323 C322 1.498 . S
C323 C324 1.366 . S
C323 C328 1.407 . S
C324 C323 1.366 . S
C324 C325 1.392 . S
C324 H352 0.930 . S
C325 C324 1.392 . S
C325 C326 1.398 . S
C325 H353 0.929 . S
C326 C325 1.398 . S
C326 C327 1.352 . S
C327 C326 1.352 . S
C327 C328 1.384 . S
C327 H354 0.930 . S
C328 C323 1.407 . S
C328 C327 1.384 . S
C328 H355 0.929 . S
C329 O342 1.241 . S
C329 O343 1.273 1_455 S
C330 O344 1.251 . S
C330 O345 1.268 1_455 S
C331 Nd321 2.836 . S
C331 C332 1.498 . S
C331 O346 1.258 . S
C331 O347 1.239 . S
C332 C331 1.498 . S
C332 C333 1.366 . S
C332 C337 1.407 . S
C333 C332 1.366 . S
C333 C334 1.392 . S
C333 H356 0.930 . S
C334 C333 1.392 . S
C334 C335 1.398 . S
C334 H357 0.929 . S
C335 C334 1.398 . S
C335 C336 1.352 . S
C336 C335 1.352 . S
C336 C337 1.384 . S
C336 H358 0.930 . S
C337 C332 1.407 . S
C337 C336 1.384 . S
C337 H359 0.929 . S
C338 O348 1.241 . S
C338 O349 1.273 . S
C339 O350 1.251 . S
C339 O351 1.268 1_655 S
O340 Nd320 2.500 . S
O340 C322 1.258 . S
O341 Nd320 2.492 . S
O341 C322 1.239 . S
O342 Nd320 2.487 . S
O342 C329 1.241 . S
O343 Nd320 2.682 1_655 S
O343 Nd321 2.414 . S
O343 C329 1.273 1_655 S
O344 Nd320 2.410 . S
O344 C330 1.251 . S
O345 Nd321 2.424 . S
O345 C330 1.268 1_655 S
O346 Nd321 2.500 . S
O346 C331 1.258 . S
O347 Nd321 2.492 . S
O347 C331 1.239 . S
O348 Nd321 2.487 . S
O348 C338 1.241 . S
O349 Nd320 2.414 1_655 S
O349 Nd321 2.682 . S
O349 C338 1.273 . S
O350 Nd321 2.410 . S
O350 C339 1.251 . S
O351 Nd320 2.424 . S
O351 C339 1.268 1_455 S
H352 C324 0.930 . S
H353 C325 0.929 . S
H354 C327 0.930 . S
H355 C328 0.929 . S
H356 C333 0.930 . S
H357 C334 0.929 . S
H358 C336 0.930 . S
H359 C337 0.929 . S
H360 C368 0.929 . S
H361 C370 0.930 . S
H362 C372 0.930 . S
H363 C375 0.929 . S
H364 C378 0.930 . S
H365 C380 0.960 . S
H366 C380 0.960 . S
H367 C380 0.960 . S
C368 H360 0.929 . S
C368 C369 1.377 . S
C368 C370 1.384 . S
C369 C368 1.377 . S
C369 C375 1.390 . S
C370 H361 0.930 . S
C370 C368 1.384 . S
C370 C371 1.372 . S
C371 C370 1.372 . S
C371 C372 1.400 . S
C371 C376 1.490 . S
C372 H362 0.930 . S
C372 C371 1.400 . S
C372 C375 1.386 . S
H373 C389 0.930 . S
H374 C390 0.931 . S
C375 H363 0.929 . S
C375 C369 1.390 . S
C375 C372 1.386 . S
C376 C371 1.490 . S
C376 C378 1.395 . S
C376 C379 1.403 . S
H377 C383 0.930 . S
C378 H364 0.930 . S
C378 C376 1.395 . S
C378 C381 1.403 . S
C379 C376 1.403 . S
C379 C380 1.524 . S
C379 C383 1.400 . S
C380 H365 0.960 . S
C380 H366 0.960 . S
C380 H367 0.960 . S
C380 C379 1.524 . S
C381 C378 1.403 . S
C381 C382 1.392 . S
C381 C385 1.495 . S
C382 C381 1.392 . S
C382 C383 1.385 . S
C382 C384 1.478 . S
C383 H377 0.930 . S
C383 C379 1.400 . S
C383 C382 1.385 . S
C384 C382 1.478 . S
C384 C386 1.381 . S
C384 C390 1.383 . S
C385 C381 1.495 . S
C385 H391 0.959 . S
C385 H392 0.961 . S
C385 H393 0.960 . S
C386 C384 1.381 . S
C386 C387 1.394 . S
C386 H394 0.930 . S
C387 C386 1.394 . S
C387 C388 1.383 . S
C387 H395 0.929 . S
C388 C387 1.383 . S
C388 C389 1.377 . S
C389 H373 0.930 . S
C389 C388 1.377 . S
C389 C390 1.379 . S
C390 H374 0.931 . S
C390 C384 1.383 . S
C390 C389 1.379 . S
H391 C385 0.959 . S
H392 C385 0.961 . S
H393 C385 0.960 . S
H394 C386 0.930 . S
H395 C387 0.929 . S
H396 C404 0.929 . S
H397 C406 0.930 . S
H398 C408 0.930 . S
H399 C411 0.929 . S
H400 C414 0.930 . S
H401 C416 0.960 . S
H402 C416 0.960 . S
H403 C416 0.960 . S
C404 H396 0.929 . S
C404 C405 1.377 . S
C404 C406 1.384 . S
C405 C404 1.377 . S
C405 C411 1.390 . S
C406 H397 0.930 . S
C406 C404 1.384 . S
C406 C407 1.372 . S
C407 C406 1.372 . S
C407 C408 1.400 . S
C407 C412 1.490 . S
C408 H398 0.930 . S
C408 C407 1.400 . S
C408 C411 1.386 . S
H409 C425 0.930 . S
H410 C426 0.931 . S
C411 H399 0.929 . S
C411 C405 1.390 . S
C411 C408 1.386 . S
C412 C407 1.490 . S
C412 C414 1.395 . S
C412 C415 1.403 . S
H413 C419 0.930 . S
C414 H400 0.930 . S
C414 C412 1.395 . S
C414 C417 1.403 . S
C415 C412 1.403 . S
C415 C416 1.524 . S
C415 C419 1.400 . S
C416 H401 0.960 . S
C416 H402 0.960 . S
C416 H403 0.960 . S
C416 C415 1.524 . S
C417 C414 1.403 . S
C417 C418 1.392 . S
C417 C421 1.495 . S
C418 C417 1.392 . S
C418 C419 1.385 . S
C418 C420 1.478 . S
C419 H413 0.930 . S
C419 C415 1.400 . S
C419 C418 1.385 . S
C420 C418 1.478 . S
C420 C422 1.381 . S
C420 C426 1.383 . S
C421 C417 1.495 . S
C421 H427 0.959 . S
C421 H428 0.961 . S
C421 H429 0.960 . S
C422 C420 1.381 . S
C422 C423 1.394 . S
C422 H430 0.930 . S
C423 C422 1.394 . S
C423 C424 1.383 . S
C423 H431 0.929 . S
C424 C423 1.383 . S
C424 C425 1.377 . S
C425 H409 0.930 . S
C425 C424 1.377 . S
C425 C426 1.379 . S
C426 H410 0.931 . S
C426 C420 1.383 . S
C426 C425 1.379 . S
H427 C421 0.959 . S
H428 C421 0.961 . S
H429 C421 0.960 . S
H430 C422 0.930 . S
H431 C423 0.929 . S
H432 C440 0.929 . S
H433 C442 0.930 . S
H434 C444 0.930 . S
H435 C447 0.929 . S
H436 C450 0.930 . S
H437 C452 0.960 . S
H438 C452 0.960 . S
H439 C452 0.960 . S
C440 H432 0.929 . S
C440 C441 1.377 . S
C440 C442 1.384 . S
C441 C440 1.377 . S
C441 C447 1.390 . S
C442 H433 0.930 . S
C442 C440 1.384 . S
C442 C443 1.372 . S
C443 C442 1.372 . S
C443 C444 1.400 . S
C443 C448 1.490 . S
C444 H434 0.930 . S
C444 C443 1.400 . S
C444 C447 1.386 . S
H445 C461 0.930 . S
H446 C462 0.931 . S
C447 H435 0.929 . S
C447 C441 1.390 . S
C447 C444 1.386 . S
C448 C443 1.490 . S
C448 C450 1.395 . S
C448 C451 1.403 . S
H449 C455 0.930 . S
C450 H436 0.930 . S
C450 C448 1.395 . S
C450 C453 1.403 . S
C451 C448 1.403 . S
C451 C452 1.524 . S
C451 C455 1.400 . S
C452 H437 0.960 . S
C452 H438 0.960 . S
C452 H439 0.960 . S
C452 C451 1.524 . S
C453 C450 1.403 . S
C453 C454 1.392 . S
C453 C457 1.495 . S
C454 C453 1.392 . S
C454 C455 1.385 . S
C454 C456 1.478 . S
C455 H449 0.930 . S
C455 C451 1.400 . S
C455 C454 1.385 . S
C456 C454 1.478 . S
C456 C458 1.381 . S
C456 C462 1.383 . S
C457 C453 1.495 . S
C457 H463 0.959 . S
C457 H464 0.961 . S
C457 H465 0.960 . S
C458 C456 1.381 . S
C458 C459 1.394 . S
C458 H466 0.930 . S
C459 C458 1.394 . S
C459 C460 1.383 . S
C459 H467 0.929 . S
C460 C459 1.383 . S
C460 C461 1.377 . S
C461 H445 0.930 . S
C461 C460 1.377 . S
C461 C462 1.379 . S
C462 H446 0.931 . S
C462 C456 1.383 . S
C462 C461 1.379 . S
H463 C457 0.959 . S
H464 C457 0.961 . S
H465 C457 0.960 . S
H466 C458 0.930 . S
H467 C459 0.929 . S
H468 C476 0.929 . S
H469 C478 0.930 . S
H470 C480 0.930 . S
H471 C483 0.929 . S
H472 C486 0.930 . S
H473 C488 0.960 . S
H474 C488 0.960 . S
H475 C488 0.960 . S
C476 H468 0.929 . S
C476 C477 1.377 . S
C476 C478 1.384 . S
C477 C476 1.377 . S
C477 C483 1.390 . S
C478 H469 0.930 . S
C478 C476 1.384 . S
C478 C479 1.372 . S
C479 C478 1.372 . S
C479 C480 1.400 . S
C479 C484 1.490 . S
C480 H470 0.930 . S
C480 C479 1.400 . S
C480 C483 1.386 . S
H481 C497 0.930 . S
H482 C498 0.931 . S
C483 H471 0.929 . S
C483 C477 1.390 . S
C483 C480 1.386 . S
C484 C479 1.490 . S
C484 C486 1.395 . S
C484 C487 1.403 . S
H485 C491 0.930 . S
C486 H472 0.930 . S
C486 C484 1.395 . S
C486 C489 1.403 . S
C487 C484 1.403 . S
C487 C488 1.524 . S
C487 C491 1.400 . S
C488 H473 0.960 . S
C488 H474 0.960 . S
C488 H475 0.960 . S
C488 C487 1.524 . S
C489 C486 1.403 . S
C489 C490 1.392 . S
C489 C493 1.495 . S
C490 C489 1.392 . S
C490 C491 1.385 . S
C490 C492 1.478 . S
C491 H485 0.930 . S
C491 C487 1.400 . S
C491 C490 1.385 . S
C492 C490 1.478 . S
C492 C494 1.381 . S
C492 C498 1.383 . S
C493 C489 1.495 . S
C493 H499 0.959 . S
C493 H500 0.961 . S
C493 H501 0.960 . S
C494 C492 1.381 . S
C494 C495 1.394 . S
C494 H502 0.930 . S
C495 C494 1.394 . S
C495 C496 1.383 1_556 S
C495 H503 0.929 1_556 S
C496 C495 1.383 1_554 S
C496 C497 1.377 1_554 S
C497 H481 0.930 . S
C497 C496 1.377 1_556 S
C497 C498 1.379 . S
C498 H482 0.931 . S
C498 C492 1.383 . S
C498 C497 1.379 . S
H499 C493 0.959 . S
H500 C493 0.961 . S
H501 C493 0.960 . S
H502 C494 0.930 . S
H503 C495 0.929 1_554 S
H504 C512 0.929 . S
H505 C514 0.930 . S
H506 C516 0.930 . S
H507 C519 0.929 . S
H508 C522 0.930 . S
H509 C524 0.960 . S
H510 C524 0.960 . S
H511 C524 0.960 . S
C512 H504 0.929 . S
C512 C513 1.377 . S
C512 C514 1.384 . S
C513 C512 1.377 . S
C513 C519 1.390 1_565 S
C514 H505 0.930 . S
C514 C512 1.384 . S
C514 C515 1.372 . S
C515 C514 1.372 . S
C515 C516 1.400 1_565 S
C515 C520 1.490 . S
C516 H506 0.930 . S
C516 C515 1.400 1_545 S
C516 C519 1.386 . S
H517 C533 0.930 . S
H518 C534 0.931 . S
C519 H507 0.929 . S
C519 C513 1.390 1_545 S
C519 C516 1.386 . S
C520 C515 1.490 . S
C520 C522 1.395 . S
C520 C523 1.403 1_565 S
H521 C527 0.930 . S
C522 H508 0.930 . S
C522 C520 1.395 . S
C522 C525 1.403 . S
C523 C520 1.403 1_545 S
C523 C524 1.524 . S
C523 C527 1.400 . S
C524 H509 0.960 . S
C524 H510 0.960 . S
C524 H511 0.960 . S
C524 C523 1.524 . S
C525 C522 1.403 . S
C525 C526 1.392 . S
C525 C529 1.495 . S
C526 C525 1.392 . S
C526 C527 1.385 1_565 S
C526 C528 1.478 . S
C527 H521 0.930 . S
C527 C523 1.400 . S
C527 C526 1.385 1_545 S
C528 C526 1.478 . S
C528 C530 1.381 . S
C528 C534 1.383 1_565 S
C529 C525 1.495 . S
C529 H535 0.959 . S
C529 H536 0.961 . S
C529 H537 0.960 . S
C530 C528 1.381 . S
C530 C531 1.394 . S
C530 H538 0.930 . S
C531 C530 1.394 . S
C531 C532 1.383 1_566 S
C531 H539 0.929 1_556 S
C532 C531 1.383 1_544 S
C532 C533 1.377 1_554 S
C533 H517 0.930 . S
C533 C532 1.377 1_556 S
C533 C534 1.379 . S
C534 H518 0.931 . S
C534 C528 1.383 1_545 S
C534 C533 1.379 . S
H535 C529 0.959 . S
H536 C529 0.961 . S
H537 C529 0.960 . S
H538 C530 0.930 . S
H539 C531 0.929 1_554 S
H540 C548 0.929 . S
H541 C550 0.930 . S
H542 C552 0.930 . S
H543 C555 0.929 . S
H544 C558 0.930 . S
H545 C560 0.960 . S
H546 C560 0.960 . S
H547 C560 0.960 . S
C548 H540 0.929 . S
C548 C549 1.377 . S
C548 C550 1.384 . S
C549 C548 1.377 . S
C549 C555 1.390 . S
C550 H541 0.930 . S
C550 C548 1.384 . S
C550 C551 1.372 . S
C551 C550 1.372 . S
C551 C552 1.400 . S
C551 C556 1.490 . S
C552 H542 0.930 . S
C552 C551 1.400 . S
C552 C555 1.386 . S
H553 C569 0.930 . S
H554 C570 0.931 . S
C555 H543 0.929 . S
C555 C549 1.390 . S
C555 C552 1.386 . S
C556 C551 1.490 . S
C556 C558 1.395 . S
C556 C559 1.403 . S
H557 C563 0.930 . S
C558 H544 0.930 . S
C558 C556 1.395 . S
C558 C561 1.403 . S
C559 C556 1.403 . S
C559 C560 1.524 . S
C559 C563 1.400 . S
C560 H545 0.960 . S
C560 H546 0.960 . S
C560 H547 0.960 . S
C560 C559 1.524 . S
C561 C558 1.403 . S
C561 C562 1.392 . S
C561 C565 1.495 . S
C562 C561 1.392 . S
C562 C563 1.385 . S
C562 C564 1.478 . S
C563 H557 0.930 . S
C563 C559 1.400 . S
C563 C562 1.385 . S
C564 C562 1.478 . S
C564 C566 1.381 . S
C564 C570 1.383 . S
C565 C561 1.495 . S
C565 H571 0.959 . S
C565 H572 0.961 . S
C565 H573 0.960 . S
C566 C564 1.381 . S
C566 C567 1.394 . S
C566 H574 0.930 . S
C567 C566 1.394 . S
C567 C568 1.383 . S
C567 H575 0.929 . S
C568 C567 1.383 . S
C568 C569 1.377 . S
C569 H553 0.930 . S
C569 C568 1.377 . S
C569 C570 1.379 . S
C570 H554 0.931 . S
C570 C564 1.383 . S
C570 C569 1.379 . S
H571 C565 0.959 . S
H572 C565 0.961 . S
H573 C565 0.960 . S
H574 C566 0.930 . S
H575 C567 0.929 . S
H576 C584 0.929 . S
H577 C586 0.930 . S
H578 C588 0.930 . S
H579 C591 0.929 . S
H580 C594 0.930 . S
H581 C596 0.960 . S
H582 C596 0.960 . S
H583 C596 0.960 . S
C584 H576 0.929 . S
C584 C585 1.377 . S
C584 C586 1.384 . S
C585 C584 1.377 . S
C585 C591 1.390 . S
C586 H577 0.930 . S
C586 C584 1.384 . S
C586 C587 1.372 . S
C587 C586 1.372 . S
C587 C588 1.400 . S
C587 C592 1.490 . S
C588 H578 0.930 . S
C588 C587 1.400 . S
C588 C591 1.386 . S
H589 C605 0.930 . S
H590 C606 0.931 1_554 S
C591 H579 0.929 . S
C591 C585 1.390 . S
C591 C588 1.386 . S
C592 C587 1.490 . S
C592 C594 1.395 . S
C592 C595 1.403 . S
H593 C599 0.930 . S
C594 H580 0.930 . S
C594 C592 1.395 . S
C594 C597 1.403 . S
C595 C592 1.403 . S
C595 C596 1.524 . S
C595 C599 1.400 . S
C596 H581 0.960 . S
C596 H582 0.960 . S
C596 H583 0.960 . S
C596 C595 1.524 . S
C597 C594 1.403 . S
C597 C598 1.392 . S
C597 C601 1.495 . S
C598 C597 1.392 . S
C598 C599 1.385 . S
C598 C600 1.478 . S
C599 H593 0.930 . S
C599 C595 1.400 . S
C599 C598 1.385 . S
C600 C598 1.478 . S
C600 C602 1.381 1_554 S
C600 C606 1.383 1_554 S
C601 C597 1.495 . S
C601 H607 0.959 . S
C601 H608 0.961 . S
C601 H609 0.960 . S
C602 C600 1.381 1_556 S
C602 C603 1.394 . S
C602 H610 0.930 1_556 S
C603 C602 1.394 . S
C603 C604 1.383 . S
C603 H611 0.929 . S
C604 C603 1.383 . S
C604 C605 1.377 . S
C605 H589 0.930 . S
C605 C604 1.377 . S
C605 C606 1.379 . S
C606 H590 0.931 1_556 S
C606 C600 1.383 1_556 S
C606 C605 1.379 . S
H607 C601 0.959 . S
H608 C601 0.961 . S
H609 C601 0.960 . S
H610 C602 0.930 1_554 S
H611 C603 0.929 . S
H612 C620 0.929 . S
H613 C622 0.930 . S
H614 C624 0.930 . S
H615 C627 0.977 . S
H616 C630 0.930 . S
H617 C632 0.960 . S
H618 C632 0.960 . S
H619 C632 0.960 . S
C620 H612 0.929 . S
C620 C621 1.377 . S
C620 C622 1.384 . S
C621 C620 1.377 . S
C621 C627 1.342 1_655 S
C622 H613 0.930 . S
C622 C620 1.384 . S
C622 C623 1.372 . S
C623 C622 1.372 . S
C623 C624 1.400 1_655 S
C623 C628 1.490 . S
C624 H614 0.930 . S
C624 C623 1.400 1_455 S
C624 C627 1.387 . S
H625 C641 0.930 . S
H626 C642 0.931 1_554 S
C627 H615 0.977 . S
C627 C621 1.342 1_455 S
C627 C624 1.387 . S
C628 C623 1.490 . S
C628 C630 1.395 . S
C628 C631 1.403 . S
H629 C635 0.930 . S
C630 H616 0.930 . S
C630 C628 1.395 . S
C630 C633 1.403 . S
C631 C628 1.403 . S
C631 C632 1.524 . S
C631 C635 1.400 . S
C632 H617 0.960 . S
C632 H618 0.960 . S
C632 H619 0.960 . S
C632 C631 1.524 . S
C633 C630 1.403 . S
C633 C634 1.391 . S
C633 C637 1.496 1_655 S
C634 C633 1.391 . S
C634 C635 1.385 . S
C634 C636 1.478 1_655 S
C635 H629 0.930 . S
C635 C631 1.400 . S
C635 C634 1.385 . S
C636 C634 1.478 1_455 S
C636 C638 1.381 1_454 S
C636 C642 1.383 1_554 S
C637 C633 1.496 1_455 S
C637 H643 0.959 . S
C637 H644 0.961 . S
C637 H645 0.960 1_455 S
C638 C636 1.381 1_656 S
C638 C639 1.394 . S
C638 H646 0.930 . S
C639 C638 1.394 . S
C639 C640 1.383 1_655 S
C639 H647 0.929 . S
C640 C639 1.383 1_455 S
C640 C641 1.377 . S
C641 H625 0.930 . S
C641 C640 1.377 . S
C641 C642 1.379 . S
C642 H626 0.931 1_556 S
C642 C636 1.383 1_556 S
C642 C641 1.379 . S
H643 C637 0.959 . S
H644 C637 0.961 . S
H645 C637 0.960 1_655 S
H646 C638 0.930 . S
H647 C639 0.929 . S
H648 C656 0.929 . S
H649 C658 0.930 . S
H650 C660 0.930 . S
H651 C663 0.929 . S
H652 C666 0.930 . S
H653 C668 0.960 . S
H654 C668 0.960 . S
H655 C668 0.960 . S
C656 H648 0.929 . S
C656 C657 1.377 1_655 S
C656 C658 1.384 . S
C657 C656 1.377 1_455 S
C657 C663 1.390 . S
C658 H649 0.930 . S
C658 C656 1.384 . S
C658 C659 1.345 1_655 S
C659 C658 1.345 1_455 S
C659 C660 1.434 . S
C659 C664 1.484 1_455 S
C660 H650 0.930 . S
C660 C659 1.434 . S
C660 C663 1.386 . S
H661 C677 0.961 . S
H662 C678 0.931 . S
C663 H651 0.929 . S
C663 C657 1.390 . S
C663 C660 1.386 . S
C664 C659 1.484 1_655 S
C664 C666 1.395 1_655 S
C664 C667 1.403 . S
H665 C671 0.930 . S
C666 H652 0.930 . S
C666 C664 1.395 1_455 S
C666 C669 1.403 . S
C667 C664 1.403 . S
C667 C668 1.524 . S
C667 C671 1.400 . S
C668 H653 0.960 . S
C668 H654 0.960 . S
C668 H655 0.960 . S
C668 C667 1.524 . S
C669 C666 1.403 . S
C669 C670 1.392 1_455 S
C669 C673 1.495 . S
C670 C669 1.392 1_655 S
C670 C671 1.385 . S
C670 C672 1.478 . S
C671 H665 0.930 . S
C671 C667 1.400 . S
C671 C670 1.385 . S
C672 C670 1.478 . S
C672 C674 1.381 1_554 S
C672 C678 1.383 1_654 S
C673 C669 1.495 . S
C673 H679 0.959 . S
C673 H680 0.961 . S
C673 H681 0.960 1_455 S
C674 C672 1.381 1_556 S
C674 C675 1.394 . S
C674 H682 0.930 1_556 S
C675 C674 1.394 . S
C675 C676 1.383 . S
C675 H683 0.929 . S
C676 C675 1.383 . S
C676 C677 1.340 1_655 S
C677 H661 0.961 . S
C677 C676 1.340 1_455 S
C677 C678 1.386 . S
C678 H662 0.931 . S
C678 C672 1.383 1_456 S
C678 C677 1.386 . S
H679 C673 0.959 . S
H680 C673 0.961 . S
H681 C673 0.960 1_655 S
H682 C674 0.930 1_554 S
H683 C675 0.929 . S
H684 C692 0.929 . S
H685 C694 0.930 . S
H686 C696 0.930 . S
H687 C699 0.929 . S
H688 C702 0.930 . S
H689 C704 0.960 . S
H690 C704 0.960 . S
H691 C704 0.960 . S
C692 H684 0.929 . S
C692 C693 1.377 . S
C692 C694 1.384 . S
C693 C692 1.377 . S
C693 C699 1.390 . S
C694 H685 0.930 . S
C694 C692 1.384 . S
C694 C695 1.372 . S
C695 C694 1.372 . S
C695 C696 1.400 . S
C695 C700 1.490 . S
C696 H686 0.930 . S
C696 C695 1.400 . S
C696 C699 1.386 . S
H697 C713 0.930 . S
H698 C714 0.931 . S
C699 H687 0.929 . S
C699 C693 1.390 . S
C699 C696 1.386 . S
C700 C695 1.490 . S
C700 C702 1.395 . S
C700 C703 1.403 . S
H701 C707 0.930 . S
C702 H688 0.930 . S
C702 C700 1.395 . S
C702 C705 1.403 . S
C703 C700 1.403 . S
C703 C704 1.524 . S
C703 C707 1.400 . S
C704 H689 0.960 . S
C704 H690 0.960 . S
C704 H691 0.960 . S
C704 C703 1.524 . S
C705 C702 1.403 . S
C705 C706 1.392 . S
C705 C709 1.495 . S
C706 C705 1.392 . S
C706 C707 1.385 . S
C706 C708 1.478 . S
C707 H701 0.930 . S
C707 C703 1.400 . S
C707 C706 1.385 . S
C708 C706 1.478 . S
C708 C710 1.381 . S
C708 C714 1.383 . S
C709 C705 1.495 . S
C709 H715 0.959 . S
C709 H716 0.961 . S
C709 H717 0.960 . S
C710 C708 1.381 . S
C710 C711 1.394 . S
C710 H718 0.930 . S
C711 C710 1.394 . S
C711 C712 1.383 . S
C711 H719 0.929 . S
C712 C711 1.383 . S
C712 C713 1.377 . S
C713 H697 0.930 . S
C713 C712 1.377 . S
C713 C714 1.379 . S
C714 H698 0.931 . S
C714 C708 1.383 . S
C714 C713 1.379 . S
H715 C709 0.959 . S
H716 C709 0.961 . S
H717 C709 0.960 . S
H718 C710 0.930 . S
H719 C711 0.929 . S
H720 C728 0.929 . S
H721 C730 0.930 . S
H722 C732 0.930 . S
H723 C735 0.929 . S
H724 C738 0.930 . S
H725 C740 0.960 . S
H726 C740 0.960 . S
H727 C740 0.960 . S
C728 H720 0.929 . S
C728 C729 1.377 . S
C728 C730 1.384 . S
C729 C728 1.377 . S
C729 C735 1.390 . S
C730 H721 0.930 . S
C730 C728 1.384 . S
C730 C731 1.372 . S
C731 C730 1.372 . S
C731 C732 1.400 . S
C731 C736 1.490 . S
C732 H722 0.930 . S
C732 C731 1.400 . S
C732 C735 1.386 . S
H733 C749 0.930 . S
H734 C750 0.931 . S
C735 H723 0.929 . S
C735 C729 1.390 . S
C735 C732 1.386 . S
C736 C731 1.490 . S
C736 C738 1.395 . S
C736 C739 1.403 . S
H737 C743 0.930 . S
C738 H724 0.930 . S
C738 C736 1.395 . S
C738 C741 1.403 . S
C739 C736 1.403 . S
C739 C740 1.524 . S
C739 C743 1.400 . S
C740 H725 0.960 . S
C740 H726 0.960 . S
C740 H727 0.960 . S
C740 C739 1.524 . S
C741 C738 1.403 . S
C741 C742 1.392 . S
C741 C745 1.495 . S
C742 C741 1.392 . S
C742 C743 1.385 . S
C742 C744 1.478 . S
C743 H737 0.930 . S
C743 C739 1.400 . S
C743 C742 1.385 . S
C744 C742 1.478 . S
C744 C746 1.381 . S
C744 C750 1.383 . S
C745 C741 1.495 . S
C745 H751 0.959 . S
C745 H752 0.961 . S
C745 H753 0.960 . S
C746 C744 1.381 . S
C746 C747 1.394 . S
C746 H754 0.930 . S
C747 C746 1.394 . S
C747 C748 1.383 . S
C747 H755 0.929 . S
C748 C747 1.383 . S
C748 C749 1.377 . S
C749 H733 0.930 . S
C749 C748 1.377 . S
C749 C750 1.379 . S
C750 H734 0.931 . S
C750 C744 1.383 . S
C750 C749 1.379 . S
H751 C745 0.959 . S
H752 C745 0.961 . S
H753 C745 0.960 . S
H754 C746 0.930 . S
H755 C747 0.929 . S
H756 C764 0.929 . S
H757 C766 0.930 . S
H758 C768 0.930 . S
H759 C771 0.929 . S
H760 C774 0.930 . S
H761 C776 0.960 . S
H762 C776 0.960 . S
H763 C776 0.960 . S
C764 H756 0.929 . S
C764 C765 1.377 . S
C764 C766 1.384 . S
C765 C764 1.377 . S
C765 C771 1.390 . S
C766 H757 0.930 . S
C766 C764 1.384 . S
C766 C767 1.372 . S
C767 C766 1.372 . S
C767 C768 1.400 . S
C767 C772 1.490 . S
C768 H758 0.930 . S
C768 C767 1.400 . S
C768 C771 1.386 . S
H769 C785 0.930 . S
H770 C786 0.931 . S
C771 H759 0.929 . S
C771 C765 1.390 . S
C771 C768 1.386 . S
C772 C767 1.490 . S
C772 C774 1.395 . S
C772 C775 1.403 . S
H773 C779 0.930 . S
C774 H760 0.930 . S
C774 C772 1.395 . S
C774 C777 1.403 . S
C775 C772 1.403 . S
C775 C776 1.524 . S
C775 C779 1.400 . S
C776 H761 0.960 . S
C776 H762 0.960 . S
C776 H763 0.960 . S
C776 C775 1.524 . S
C777 C774 1.403 . S
C777 C778 1.392 . S
C777 C781 1.495 . S
C778 C777 1.392 . S
C778 C779 1.385 . S
C778 C780 1.478 . S
C779 H773 0.930 . S
C779 C775 1.400 . S
C779 C778 1.385 . S
C780 C778 1.478 . S
C780 C782 1.381 . S
C780 C786 1.383 . S
C781 C777 1.495 . S
C781 H787 0.959 . S
C781 H788 0.961 . S
C781 H789 0.960 . S
C782 C780 1.381 . S
C782 C783 1.394 . S
C782 H790 0.930 . S
C783 C782 1.394 . S
C783 C784 1.383 . S
C783 H791 0.929 . S
C784 C783 1.383 . S
C784 C785 1.377 . S
C785 H769 0.930 . S
C785 C784 1.377 . S
C785 C786 1.379 . S
C786 H770 0.931 . S
C786 C780 1.383 . S
C786 C785 1.379 . S
H787 C781 0.959 . S
H788 C781 0.961 . S
H789 C781 0.960 . S
H790 C782 0.930 . S
H791 C783 0.929 . S
H792 C800 0.929 . S
H793 C802 0.930 . S
H794 C804 0.930 . S
H795 C807 0.929 . S
H796 C810 0.930 . S
H797 C812 0.960 . S
H798 C812 0.960 . S
H799 C812 0.960 1_554 S
C800 H792 0.929 . S
C800 C801 1.377 . S
C800 C802 1.384 . S
C801 C800 1.377 . S
C801 C807 1.390 . S
C802 H793 0.930 . S
C802 C800 1.384 . S
C802 C803 1.372 . S
C803 C802 1.372 . S
C803 C804 1.400 . S
C803 C808 1.490 . S
C804 H794 0.930 . S
C804 C803 1.400 . S
C804 C807 1.386 . S
H805 C821 0.930 . S
H806 C822 0.931 1_554 S
C807 H795 0.929 . S
C807 C801 1.390 . S
C807 C804 1.386 . S
C808 C803 1.490 . S
C808 C810 1.395 . S
C808 C811 1.403 . S
H809 C815 0.930 . S
C810 H796 0.930 . S
C810 C808 1.395 . S
C810 C813 1.403 . S
C811 C808 1.403 . S
C811 C812 1.524 1_554 S
C811 C815 1.400 1_554 S
C812 H797 0.960 . S
C812 H798 0.960 . S
C812 H799 0.960 1_556 S
C812 C811 1.524 1_556 S
C813 C810 1.403 . S
C813 C814 1.392 . S
C813 C817 1.495 . S
C814 C813 1.392 . S
C814 C815 1.385 1_554 S
C814 C816 1.478 1_554 S
C815 H809 0.930 . S
C815 C811 1.400 1_556 S
C815 C814 1.385 1_556 S
C816 C814 1.478 1_556 S
C816 C818 1.381 . S
C816 C822 1.383 . S
C817 C813 1.495 . S
C817 H823 0.959 . S
C817 H824 0.961 . S
C817 H825 0.960 . S
C818 C816 1.381 . S
C818 C819 1.394 . S
C818 H826 0.930 . S
C819 C818 1.394 . S
C819 C820 1.383 . S
C819 H827 0.929 . S
C820 C819 1.383 . S
C820 C821 1.377 . S
C821 H805 0.930 . S
C821 C820 1.377 . S
C821 C822 1.379 . S
C822 H806 0.931 1_556 S
C822 C816 1.383 . S
C822 C821 1.379 . S
H823 C817 0.959 . S
H824 C817 0.961 . S
H825 C817 0.960 . S
H826 C818 0.930 . S
H827 C819 0.929 . S
H828 C836 0.929 1_554 S
H829 C838 0.930 . S
H830 C840 0.930 . S
H831 C843 0.929 . S
H832 C846 0.930 . S
H833 C848 0.960 . S
H834 C848 0.960 . S
H835 C848 0.933 1_455 S
C836 H828 0.929 1_556 S
C836 C837 1.377 1_655 S
C836 C838 1.384 1_556 S
C837 C836 1.377 1_455 S
C837 C843 1.390 . S
C838 H829 0.930 . S
C838 C836 1.384 1_554 S
C838 C839 1.372 1_654 S
C839 C838 1.372 1_456 S
C839 C840 1.400 . S
C839 C844 1.490 . S
C840 H830 0.930 . S
C840 C839 1.400 . S
C840 C843 1.386 . S
H841 C857 0.930 . S
H842 C858 0.931 . S
C843 H831 0.929 . S
C843 C837 1.390 . S
C843 C840 1.386 . S
C844 C839 1.490 . S
C844 C846 1.395 1_556 S
C844 C847 1.403 . S
H845 C851 0.930 . S
C846 H832 0.930 . S
C846 C844 1.395 1_554 S
C846 C849 1.403 . S
C847 C844 1.403 . S
C847 C848 1.524 1_455 S
C847 C851 1.400 . S
C848 H833 0.960 . S
C848 H834 0.960 . S
C848 H835 0.933 1_655 S
C848 C847 1.524 1_655 S
C849 C846 1.403 . S
C849 C850 1.392 . S
C849 C853 1.495 . S
C850 C849 1.392 . S
C850 C851 1.385 1_554 S
C850 C852 1.478 . S
C851 H845 0.930 . S
C851 C847 1.400 . S
C851 C850 1.385 1_556 S
C852 C850 1.478 . S
C852 C854 1.381 . S
C852 C858 1.383 . S
C853 C849 1.495 . S
C853 H859 0.959 . S
C853 H860 0.961 . S
C853 H861 0.960 . S
C854 C852 1.381 . S
C854 C855 1.394 . S
C854 H862 0.930 . S
C855 C854 1.394 . S
C855 C856 1.383 . S
C855 H863 0.929 . S
C856 C855 1.383 . S
C856 C857 1.377 . S
C857 H841 0.930 . S
C857 C856 1.377 . S
C857 C858 1.379 . S
C858 H842 0.931 . S
C858 C852 1.383 . S
C858 C857 1.379 . S
H859 C853 0.959 . S
H860 C853 0.961 . S
H861 C853 0.960 . S
H862 C854 0.930 . S
H863 C855 0.929 . S
H864 C872 0.929 . S
H865 C874 0.930 . S
H866 C876 0.930 1_554 S
H867 C879 0.929 . S
H868 C882 0.930 . S
H869 C884 0.960 . S
H870 C884 0.960 . S
H871 C884 0.960 . S
C872 H864 0.929 . S
C872 C873 1.377 . S
C872 C874 1.384 . S
C873 C872 1.377 . S
C873 C879 1.390 . S
C874 H865 0.930 . S
C874 C872 1.384 . S
C874 C875 1.372 . S
C875 C874 1.372 . S
C875 C876 1.400 . S
C875 C880 1.490 . S
C876 H866 0.930 1_556 S
C876 C875 1.400 . S
C876 C879 1.386 . S
H877 C893 0.930 . S
H878 C894 0.931 . S
C879 H867 0.929 . S
C879 C873 1.390 . S
C879 C876 1.386 . S
C880 C875 1.490 . S
C880 C882 1.395 1_556 S
C880 C883 1.403 . S
H881 C887 0.930 . S
C882 H868 0.930 . S
C882 C880 1.395 1_554 S
C882 C885 1.403 . S
C883 C880 1.403 . S
C883 C884 1.524 . S
C883 C887 1.400 . S
C884 H869 0.960 . S
C884 H870 0.960 . S
C884 H871 0.960 . S
C884 C883 1.524 . S
C885 C882 1.403 . S
C885 C886 1.392 . S
C885 C889 1.495 . S
C886 C885 1.392 . S
C886 C887 1.385 1_554 S
C886 C888 1.478 . S
C887 H881 0.930 . S
C887 C883 1.400 . S
C887 C886 1.385 1_556 S
C888 C886 1.478 . S
C888 C890 1.381 . S
C888 C894 1.383 . S
C889 C885 1.495 . S
C889 H895 0.959 . S
C889 H896 0.961 . S
C889 H897 0.960 . S
C890 C888 1.381 . S
C890 C891 1.394 . S
C890 H898 0.930 . S
C891 C890 1.394 . S
C891 C892 1.383 . S
C891 H899 0.929 . S
C892 C891 1.383 . S
C892 C893 1.377 . S
C893 H877 0.930 . S
C893 C892 1.377 . S
C893 C894 1.379 . S
C894 H878 0.931 . S
C894 C888 1.383 . S
C894 C893 1.379 . S
H895 C889 0.959 . S
H896 C889 0.961 . S
H897 C889 0.960 . S
H898 C890 0.930 . S
H899 C891 0.929 . S
H900 C908 0.929 . S
H901 C910 0.930 . S
H902 C912 0.930 . S
H903 C915 0.929 . S
H904 C918 0.930 . S
H905 C920 0.960 . S
H906 C920 0.960 . S
H907 C920 0.960 . S
C908 H900 0.929 . S
C908 C909 1.377 . S
C908 C910 1.384 . S
C909 C908 1.377 . S
C909 C915 1.390 . S
C910 H901 0.930 . S
C910 C908 1.384 . S
C910 C911 1.372 . S
C911 C910 1.372 . S
C911 C912 1.400 . S
C911 C916 1.490 . S
C912 H902 0.930 . S
C912 C911 1.400 . S
C912 C915 1.386 . S
H913 C929 0.930 . S
H914 C930 0.931 . S
C915 H903 0.929 . S
C915 C909 1.390 . S
C915 C912 1.386 . S
C916 C911 1.490 . S
C916 C918 1.395 . S
C916 C919 1.403 . S
H917 C923 0.930 . S
C918 H904 0.930 . S
C918 C916 1.395 . S
C918 C921 1.403 . S
C919 C916 1.403 . S
C919 C920 1.524 1_455 S
C919 C923 1.400 . S
C920 H905 0.960 . S
C920 H906 0.960 . S
C920 H907 0.960 . S
C920 C919 1.524 1_655 S
C921 C918 1.403 . S
C921 C922 1.392 . S
C921 C925 1.495 . S
C922 C921 1.392 . S
C922 C923 1.385 . S
C922 C924 1.478 . S
C923 H917 0.930 . S
C923 C919 1.400 . S
C923 C922 1.385 . S
C924 C922 1.478 . S
C924 C926 1.381 . S
C924 C930 1.383 1_556 S
C925 C921 1.495 . S
C925 H931 0.959 . S
C925 H932 0.961 . S
C925 H933 0.960 . S
C926 C924 1.381 . S
C926 C927 1.394 . S
C926 H934 0.930 . S
C927 C926 1.394 . S
C927 C928 1.383 1_556 S
C927 H935 0.929 . S
C928 C927 1.383 1_554 S
C928 C929 1.377 . S
C929 H913 0.930 . S
C929 C928 1.377 . S
C929 C930 1.379 . S
C930 H914 0.931 . S
C930 C924 1.383 1_554 S
C930 C929 1.379 . S
H931 C925 0.959 . S
H932 C925 0.961 . S
H933 C925 0.960 . S
H934 C926 0.930 . S
H935 C927 0.929 . S
H936 C944 0.929 . S
H937 C946 0.931 1_556 S
H938 C948 0.930 . S
H939 C951 0.929 . S
H940 C954 0.930 . S
H941 C956 0.960 . S
H942 C956 0.960 . S
H943 C956 0.960 . S
C944 H936 0.929 . S
C944 C945 1.377 . S
C944 C946 1.383 . S
C945 C944 1.377 . S
C945 C951 1.390 . S
C946 H937 0.931 1_554 S
C946 C944 1.383 . S
C946 C947 1.372 . S
C947 C946 1.372 . S
C947 C948 1.400 . S
C947 C952 1.490 1_554 S
C948 H938 0.930 . S
C948 C947 1.400 . S
C948 C951 1.386 . S
H949 C965 0.930 . S
H950 C966 0.931 . S
C951 H939 0.929 . S
C951 C945 1.390 . S
C951 C948 1.386 . S
C952 C947 1.490 1_556 S
C952 C954 1.395 . S
C952 C955 1.403 . S
H953 C959 0.930 . S
C954 H940 0.930 . S
C954 C952 1.395 . S
C954 C957 1.403 . S
C955 C952 1.403 . S
C955 C956 1.524 1_556 S
C955 C959 1.400 . S
C956 H941 0.960 . S
C956 H942 0.960 . S
C956 H943 0.960 . S
C956 C955 1.524 1_554 S
C957 C954 1.403 . S
C957 C958 1.392 . S
C957 C961 1.495 . S
C958 C957 1.392 . S
C958 C959 1.385 . S
C958 C960 1.478 . S
C959 H953 0.930 . S
C959 C955 1.400 . S
C959 C958 1.385 . S
C960 C958 1.478 . S
C960 C962 1.381 . S
C960 C966 1.383 . S
C961 C957 1.495 . S
C961 H967 0.959 . S
C961 H968 0.961 . S
C961 H969 0.960 . S
C962 C960 1.381 . S
C962 C963 1.394 . S
C962 H970 0.930 . S
C963 C962 1.394 . S
C963 C964 1.383 . S
C963 H971 0.929 . S
C964 C963 1.383 . S
C964 C965 1.377 . S
C965 H949 0.930 . S
C965 C964 1.377 . S
C965 C966 1.379 . S
C966 H950 0.931 . S
C966 C960 1.383 . S
C966 C965 1.379 . S
H967 C961 0.959 . S
H968 C961 0.961 . S
H969 C961 0.960 . S
H970 C962 0.930 . S
H971 C963 0.929 . S
H972 C980 0.929 . S
H973 C982 0.930 . S
H974 C984 0.930 . S
H975 C987 0.929 . S
H976 C990 0.930 . S
H977 C992 0.960 1_554 S
H978 C992 0.960 . S
H979 C992 0.960 . S
C980 H972 0.929 . S
C980 C981 1.377 . S
C980 C982 1.384 . S
C981 C980 1.377 . S
C981 C987 1.390 . S
C982 H973 0.930 . S
C982 C980 1.384 . S
C982 C983 1.372 . S
C983 C982 1.372 . S
C983 C984 1.400 . S
C983 C988 1.490 . S
C984 H974 0.930 . S
C984 C983 1.400 . S
C984 C987 1.386 . S
H985 C1001 0.930 . S
H986 C1002 0.931 . S
C987 H975 0.929 . S
C987 C981 1.390 . S
C987 C984 1.386 . S
C988 C983 1.490 . S
C988 C990 1.395 . S
C988 C991 1.403 . S
H989 C995 0.930 1_554 S
C990 H976 0.930 . S
C990 C988 1.395 . S
C990 C993 1.403 . S
C991 C988 1.403 . S
C991 C992 1.524 . S
C991 C995 1.400 . S
C992 H977 0.960 1_556 S
C992 H978 0.960 . S
C992 H979 0.960 . S
C992 C991 1.524 . S
C993 C990 1.403 . S
C993 C994 1.392 . S
C993 C997 1.495 . S
C994 C993 1.392 . S
C994 C995 1.385 . S
C994 C996 1.478 1_556 S
C995 H989 0.930 1_556 S
C995 C991 1.400 . S
C995 C994 1.385 . S
C996 C994 1.478 1_554 S
C996 C998 1.381 1_554 S
C996 C1002 1.383 . S
C997 C993 1.495 . S
C997 H1003 0.959 . S
C997 H1004 0.961 . S
C997 H1005 0.960 . S
C998 C996 1.381 1_556 S
C998 C999 1.394 1_556 S
C998 H1006 0.930 . S
C999 C998 1.394 1_554 S
C999 C1000 1.383 . S
C999 H1007 0.929 . S
C1000 C999 1.383 . S
C1000 C1001 1.377 . S
C1001 H985 0.930 . S
C1001 C1000 1.377 . S
C1001 C1002 1.379 . S
C1002 H986 0.931 . S
C1002 C996 1.383 . S
C1002 C1001 1.379 . S
H1003 C997 0.959 . S
H1004 C997 0.961 . S
H1005 C997 0.960 . S
H1006 C998 0.930 . S
H1007 C999 0.929 . S
H1008 C1016 0.929 . S
H1009 C1018 0.930 . S
H1010 C1020 0.930 . S
H1011 C1023 0.929 . S
H1012 C1026 0.930 . S
H1013 C1028 0.960 1_565 S
H1014 C1028 0.960 . S
H1015 C1028 0.960 . S
C1016 H1008 0.929 . S
C1016 C1017 1.377 . S
C1016 C1018 1.384 . S
C1017 C1016 1.377 . S
C1017 C1023 1.390 . S
C1018 H1009 0.930 . S
C1018 C1016 1.384 . S
C1018 C1019 1.372 . S
C1019 C1018 1.372 . S
C1019 C1020 1.400 . S
C1019 C1024 1.490 . S
C1020 H1010 0.930 . S
C1020 C1019 1.400 . S
C1020 C1023 1.386 . S
H1021 C1037 0.930 . S
H1022 C1038 0.931 . S
C1023 H1011 0.929 . S
C1023 C1017 1.390 . S
C1023 C1020 1.386 . S
C1024 C1019 1.490 . S
C1024 C1026 1.395 . S
C1024 C1027 1.403 . S
H1025 C1031 0.930 1_565 S
C1026 H1012 0.930 . S
C1026 C1024 1.395 . S
C1026 C1029 1.403 . S
C1027 C1024 1.403 . S
C1027 C1028 1.524 . S
C1027 C1031 1.400 . S
C1028 H1013 0.960 1_545 S
C1028 H1014 0.960 . S
C1028 H1015 0.960 . S
C1028 C1027 1.524 . S
C1029 C1026 1.403 . S
C1029 C1030 1.392 . S
C1029 C1033 1.495 . S
C1030 C1029 1.392 . S
C1030 C1031 1.385 . S
C1030 C1032 1.478 1_545 S
C1031 H1025 0.930 1_545 S
C1031 C1027 1.400 . S
C1031 C1030 1.385 . S
C1032 C1030 1.478 1_565 S
C1032 C1034 1.381 . S
C1032 C1038 1.383 . S
C1033 C1029 1.495 . S
C1033 H1039 0.959 . S
C1033 H1040 0.961 . S
C1033 H1041 0.960 . S
C1034 C1032 1.381 . S
C1034 C1035 1.394 . S
C1034 H1042 0.930 . S
C1035 C1034 1.394 . S
C1035 C1036 1.383 . S
C1035 H1043 0.929 . S
C1036 C1035 1.383 . S
C1036 C1037 1.377 . S
C1037 H1021 0.930 . S
C1037 C1036 1.377 . S
C1037 C1038 1.379 . S
C1038 H1022 0.931 . S
C1038 C1032 1.383 . S
C1038 C1037 1.379 . S
H1039 C1033 0.959 . S
H1040 C1033 0.961 . S
H1041 C1033 0.960 . S
H1042 C1034 0.930 . S
H1043 C1035 0.929 . S
H1044 C1052 0.929 . S
H1045 C1054 0.930 . S
H1046 C1056 0.930 . S
H1047 C1059 0.929 . S
H1048 C1062 0.930 . S
H1049 C1064 0.960 . S
H1050 C1064 0.960 . S
H1051 C1064 0.960 . S
C1052 H1044 0.929 . S
C1052 C1053 1.377 . S
C1052 C1054 1.384 . S
C1053 C1052 1.377 . S
C1053 C1059 1.390 . S
C1054 H1045 0.930 . S
C1054 C1052 1.384 . S
C1054 C1055 1.372 . S
C1055 C1054 1.372 . S
C1055 C1056 1.400 . S
C1055 C1060 1.490 . S
C1056 H1046 0.930 . S
C1056 C1055 1.400 . S
C1056 C1059 1.386 . S
H1057 C1073 0.930 . S
H1058 C1074 0.931 . S
C1059 H1047 0.929 . S
C1059 C1053 1.390 . S
C1059 C1056 1.386 . S
C1060 C1055 1.490 . S
C1060 C1062 1.395 . S
C1060 C1063 1.403 . S
H1061 C1067 0.930 . S
C1062 H1048 0.930 . S
C1062 C1060 1.395 . S
C1062 C1065 1.403 . S
C1063 C1060 1.403 . S
C1063 C1064 1.524 . S
C1063 C1067 1.400 . S
C1064 H1049 0.960 . S
C1064 H1050 0.960 . S
C1064 H1051 0.960 . S
C1064 C1063 1.524 . S
C1065 C1062 1.403 . S
C1065 C1066 1.392 . S
C1065 C1069 1.495 . S
C1066 C1065 1.392 . S
C1066 C1067 1.385 . S
C1066 C1068 1.478 . S
C1067 H1061 0.930 . S
C1067 C1063 1.400 . S
C1067 C1066 1.385 . S
C1068 C1066 1.478 . S
C1068 C1070 1.381 . S
C1068 C1074 1.383 . S
C1069 C1065 1.495 . S
C1069 H1075 0.959 . S
C1069 H1076 0.961 . S
C1069 H1077 0.960 . S
C1070 C1068 1.381 . S
C1070 C1071 1.394 . S
C1070 H1078 0.930 . S
C1071 C1070 1.394 . S
C1071 C1072 1.383 . S
C1071 H1079 0.929 . S
C1072 C1071 1.383 . S
C1072 C1073 1.377 . S
C1073 H1057 0.930 . S
C1073 C1072 1.377 . S
C1073 C1074 1.379 . S
C1074 H1058 0.931 . S
C1074 C1068 1.383 . S
C1074 C1073 1.379 . S
H1075 C1069 0.959 . S
H1076 C1069 0.961 . S
H1077 C1069 0.960 . S
H1078 C1070 0.930 . S
H1079 C1071 0.929 . S
H1080 C1088 0.929 . S
H1081 C1090 0.930 . S
H1082 C1092 0.930 . S
H1083 C1095 0.929 . S
H1084 C1098 0.930 . S
H1085 C1100 0.960 . S
H1086 C1100 0.960 . S
H1087 C1100 0.960 . S
C1088 H1080 0.929 . S
C1088 C1089 1.377 . S
C1088 C1090 1.384 . S
C1089 C1088 1.377 . S
C1089 C1095 1.390 . S
C1090 H1081 0.930 . S
C1090 C1088 1.384 . S
C1090 C1091 1.372 . S
C1091 C1090 1.372 . S
C1091 C1092 1.400 . S
C1091 C1096 1.490 . S
C1092 H1082 0.930 . S
C1092 C1091 1.400 . S
C1092 C1095 1.386 . S
H1093 C1109 0.930 . S
H1094 C1110 0.931 . S
C1095 H1083 0.929 . S
C1095 C1089 1.390 . S
C1095 C1092 1.386 . S
C1096 C1091 1.490 . S
C1096 C1098 1.395 . S
C1096 C1099 1.403 . S
H1097 C1103 0.930 . S
C1098 H1084 0.930 . S
C1098 C1096 1.395 . S
C1098 C1101 1.403 . S
C1099 C1096 1.403 . S
C1099 C1100 1.524 . S
C1099 C1103 1.400 . S
C1100 H1085 0.960 . S
C1100 H1086 0.960 . S
C1100 H1087 0.960 . S
C1100 C1099 1.524 . S
C1101 C1098 1.403 . S
C1101 C1102 1.392 . S
C1101 C1105 1.495 . S
C1102 C1101 1.392 . S
C1102 C1103 1.385 . S
C1102 C1104 1.478 . S
C1103 H1097 0.930 . S
C1103 C1099 1.400 . S
C1103 C1102 1.385 . S
C1104 C1102 1.478 . S
C1104 C1106 1.381 . S
C1104 C1110 1.383 . S
C1105 C1101 1.495 . S
C1105 H1111 0.959 . S
C1105 H1112 0.961 . S
C1105 H1113 0.960 . S
C1106 C1104 1.381 . S
C1106 C1107 1.394 . S
C1106 H1114 0.930 . S
C1107 C1106 1.394 . S
C1107 C1108 1.383 . S
C1107 H1115 0.929 . S
C1108 C1107 1.383 . S
C1108 C1109 1.377 . S
C1109 H1093 0.930 . S
C1109 C1108 1.377 . S
C1109 C1110 1.379 . S
C1110 H1094 0.931 . S
C1110 C1104 1.383 . S
C1110 C1109 1.379 . S
H1111 C1105 0.959 . S
H1112 C1105 0.961 . S
H1113 C1105 0.960 . S
H1114 C1106 0.930 . S
H1115 C1107 0.929 . S
H1116 C1124 0.929 1_455 S
H1117 C1126 0.930 . S
H1118 C1128 0.930 . S
H1119 C1131 0.929 . S
H1120 C1134 0.930 . S
H1121 C1136 0.960 . S
H1122 C1136 0.960 . S
H1123 C1136 0.960 . S
C1124 H1116 0.929 1_655 S
C1124 C1125 1.377 . S
C1124 C1126 1.384 . S
C1125 C1124 1.377 . S
C1125 C1131 1.390 . S
C1126 H1117 0.930 . S
C1126 C1124 1.384 . S
C1126 C1127 1.372 . S
C1127 C1126 1.372 . S
C1127 C1128 1.400 . S
C1127 C1132 1.490 . S
C1128 H1118 0.930 . S
C1128 C1127 1.400 . S
C1128 C1131 1.386 . S
H1129 C1145 0.930 . S
H1130 C1146 0.931 . S
C1131 H1119 0.929 . S
C1131 C1125 1.390 . S
C1131 C1128 1.386 . S
C1132 C1127 1.490 . S
C1132 C1134 1.395 . S
C1132 C1135 1.403 . S
H1133 C1139 0.930 . S
C1134 H1120 0.930 . S
C1134 C1132 1.395 . S
C1134 C1137 1.403 . S
C1135 C1132 1.403 . S
C1135 C1136 1.524 . S
C1135 C1139 1.400 . S
C1136 H1121 0.960 . S
C1136 H1122 0.960 . S
C1136 H1123 0.960 . S
C1136 C1135 1.524 . S
C1137 C1134 1.403 . S
C1137 C1138 1.392 . S
C1137 C1141 1.495 . S
C1138 C1137 1.392 . S
C1138 C1139 1.385 . S
C1138 C1140 1.478 . S
C1139 H1133 0.930 . S
C1139 C1135 1.400 . S
C1139 C1138 1.385 . S
C1140 C1138 1.478 . S
C1140 C1142 1.381 . S
C1140 C1146 1.383 . S
C1141 C1137 1.495 . S
C1141 H1147 0.959 . S
C1141 H1148 0.961 . S
C1141 H1149 0.960 . S
C1142 C1140 1.381 . S
C1142 C1143 1.394 . S
C1142 H1150 0.930 . S
C1143 C1142 1.394 . S
C1143 C1144 1.383 . S
C1143 H1151 0.929 . S
C1144 C1143 1.383 . S
C1144 C1145 1.377 . S
C1145 H1129 0.930 . S
C1145 C1144 1.377 . S
C1145 C1146 1.379 . S
C1146 H1130 0.931 . S
C1146 C1140 1.383 . S
C1146 C1145 1.379 . S
H1147 C1141 0.959 . S
H1148 C1141 0.961 . S
H1149 C1141 0.960 . S
H1150 C1142 0.930 . S
H1151 C1143 0.929 . S
H1152 C1160 0.929 . S
H1153 C1162 0.930 . S
H1154 C1164 0.930 . S
H1155 C1167 0.929 . S
H1156 C1170 0.930 . S
H1157 C1172 0.960 . S
H1158 C1172 0.960 . S
H1159 C1172 0.960 . S
C1160 H1152 0.929 . S
C1160 C1161 1.377 . S
C1160 C1162 1.384 . S
C1161 C1160 1.377 . S
C1161 C1167 1.390 . S
C1162 H1153 0.930 . S
C1162 C1160 1.384 . S
C1162 C1163 1.372 . S
C1163 C1162 1.372 . S
C1163 C1164 1.400 . S
C1163 C1168 1.490 . S
C1164 H1154 0.930 . S
C1164 C1163 1.400 . S
C1164 C1167 1.386 . S
H1165 C1181 0.930 . S
H1166 C1182 0.931 . S
C1167 H1155 0.929 . S
C1167 C1161 1.390 . S
C1167 C1164 1.386 . S
C1168 C1163 1.490 . S
C1168 C1170 1.395 . S
C1168 C1171 1.403 . S
H1169 C1175 0.930 . S
C1170 H1156 0.930 . S
C1170 C1168 1.395 . S
C1170 C1173 1.403 . S
C1171 C1168 1.403 . S
C1171 C1172 1.524 . S
C1171 C1175 1.400 . S
C1172 H1157 0.960 . S
C1172 H1158 0.960 . S
C1172 H1159 0.960 . S
C1172 C1171 1.524 . S
C1173 C1170 1.403 . S
C1173 C1174 1.392 . S
C1173 C1177 1.495 . S
C1174 C1173 1.392 . S
C1174 C1175 1.385 . S
C1174 C1176 1.478 . S
C1175 H1169 0.930 . S
C1175 C1171 1.400 . S
C1175 C1174 1.385 . S
C1176 C1174 1.478 . S
C1176 C1178 1.381 . S
C1176 C1182 1.383 . S
C1177 C1173 1.495 . S
C1177 H1183 0.959 . S
C1177 H1184 0.961 . S
C1177 H1185 0.960 . S
C1178 C1176 1.381 . S
C1178 C1179 1.394 . S
C1178 H1186 0.930 . S
C1179 C1178 1.394 . S
C1179 C1180 1.383 . S
C1179 H1187 0.929 . S
C1180 C1179 1.383 . S
C1180 C1181 1.377 . S
C1181 H1165 0.930 . S
C1181 C1180 1.377 . S
C1181 C1182 1.379 . S
C1182 H1166 0.931 . S
C1182 C1176 1.383 . S
C1182 C1181 1.379 . S
H1183 C1177 0.959 . S
H1184 C1177 0.961 . S
H1185 C1177 0.960 . S
H1186 C1178 0.930 . S
H1187 C1179 0.929 . S
H1188 C1196 0.929 . S
H1189 C1198 0.930 . S
H1190 C1200 0.930 . S
H1191 C1203 0.929 . S
H1192 C1206 0.930 . S
H1193 C1208 0.960 . S
H1194 C1208 0.960 . S
H1195 C1208 0.960 . S
C1196 H1188 0.929 . S
C1196 C1197 1.377 . S
C1196 C1198 1.384 . S
C1197 C1196 1.377 . S
C1197 C1203 1.390 . S
C1198 H1189 0.930 . S
C1198 C1196 1.384 . S
C1198 C1199 1.372 . S
C1199 C1198 1.372 . S
C1199 C1200 1.400 . S
C1199 C1204 1.490 . S
C1200 H1190 0.930 . S
C1200 C1199 1.400 . S
C1200 C1203 1.386 . S
H1201 C1217 0.930 . S
H1202 C1218 0.931 . S
C1203 H1191 0.929 . S
C1203 C1197 1.390 . S
C1203 C1200 1.386 . S
C1204 C1199 1.490 . S
C1204 C1206 1.395 . S
C1204 C1207 1.403 . S
H1205 C1211 0.930 . S
C1206 H1192 0.930 . S
C1206 C1204 1.395 . S
C1206 C1209 1.403 . S
C1207 C1204 1.403 . S
C1207 C1208 1.524 . S
C1207 C1211 1.400 . S
C1208 H1193 0.960 . S
C1208 H1194 0.960 . S
C1208 H1195 0.960 . S
C1208 C1207 1.524 . S
C1209 C1206 1.403 . S
C1209 C1210 1.392 . S
C1209 C1213 1.495 . S
C1210 C1209 1.392 . S
C1210 C1211 1.385 . S
C1210 C1212 1.478 . S
C1211 H1205 0.930 . S
C1211 C1207 1.400 . S
C1211 C1210 1.385 . S
C1212 C1210 1.478 . S
C1212 C1214 1.381 . S
C1212 C1218 1.383 . S
C1213 C1209 1.495 . S
C1213 H1219 0.959 . S
C1213 H1220 0.961 . S
C1213 H1221 0.960 . S
C1214 C1212 1.381 . S
C1214 C1215 1.394 . S
C1214 H1222 0.930 . S
C1215 C1214 1.394 . S
C1215 C1216 1.383 . S
C1215 H1223 0.929 . S
C1216 C1215 1.383 . S
C1216 C1217 1.377 . S
C1217 H1201 0.930 . S
C1217 C1216 1.377 . S
C1217 C1218 1.379 . S
C1218 H1202 0.931 . S
C1218 C1212 1.383 . S
C1218 C1217 1.379 . S
H1219 C1213 0.959 . S
H1220 C1213 0.961 . S
H1221 C1213 0.960 . S
H1222 C1214 0.930 . S
H1223 C1215 0.929 . S
H1224 C1232 0.929 . S
H1225 C1234 0.930 . S
H1226 C1236 0.930 . S
H1227 C1239 0.929 . S
H1228 C1242 0.930 . S
H1229 C1244 0.960 . S
H1230 C1244 0.960 . S
H1231 C1244 0.960 . S
C1232 H1224 0.929 . S
C1232 C1233 1.377 . S
C1232 C1234 1.384 . S
C1233 C1232 1.377 . S
C1233 C1239 1.390 . S
C1234 H1225 0.930 . S
C1234 C1232 1.384 . S
C1234 C1235 1.372 . S
C1235 C1234 1.372 . S
C1235 C1236 1.400 . S
C1235 C1240 1.490 . S
C1236 H1226 0.930 . S
C1236 C1235 1.400 . S
C1236 C1239 1.386 . S
H1237 C1253 0.930 . S
H1238 C1254 0.931 . S
C1239 H1227 0.929 . S
C1239 C1233 1.390 . S
C1239 C1236 1.386 . S
C1240 C1235 1.490 . S
C1240 C1242 1.395 . S
C1240 C1243 1.403 . S
H1241 C1247 0.930 . S
C1242 H1228 0.930 . S
C1242 C1240 1.395 . S
C1242 C1245 1.403 . S
C1243 C1240 1.403 . S
C1243 C1244 1.524 . S
C1243 C1247 1.400 . S
C1244 H1229 0.960 . S
C1244 H1230 0.960 . S
C1244 H1231 0.960 . S
C1244 C1243 1.524 . S
C1245 C1242 1.403 . S
C1245 C1246 1.392 . S
C1245 C1249 1.495 . S
C1246 C1245 1.392 . S
C1246 C1247 1.385 . S
C1246 C1248 1.478 . S
C1247 H1241 0.930 . S
C1247 C1243 1.400 . S
C1247 C1246 1.385 . S
C1248 C1246 1.478 . S
C1248 C1250 1.381 . S
C1248 C1254 1.383 . S
C1249 C1245 1.495 . S
C1249 H1255 0.959 . S
C1249 H1256 0.961 . S
C1249 H1257 0.960 . S
C1250 C1248 1.381 . S
C1250 C1251 1.394 . S
C1250 H1258 0.930 . S
C1251 C1250 1.394 . S
C1251 C1252 1.383 . S
C1251 H1259 0.929 . S
C1252 C1251 1.383 . S
C1252 C1253 1.377 . S
C1253 H1237 0.930 . S
C1253 C1252 1.377 . S
C1253 C1254 1.379 . S
C1254 H1238 0.931 . S
C1254 C1248 1.383 . S
C1254 C1253 1.379 . S
H1255 C1249 0.959 . S
H1256 C1249 0.961 . S
H1257 C1249 0.960 . S
H1258 C1250 0.930 . S
H1259 C1251 0.929 . S
H1260 C1268 0.929 . S
H1261 C1270 0.930 . S
H1262 C1272 0.930 . S
H1263 C1275 0.929 . S
H1264 C1278 0.930 . S
H1265 C1280 0.960 . S
H1266 C1280 0.960 . S
H1267 C1280 0.960 . S
C1268 H1260 0.929 . S
C1268 C1269 1.377 . S
C1268 C1270 1.384 . S
C1269 C1268 1.377 . S
C1269 C1275 1.390 . S
C1270 H1261 0.930 . S
C1270 C1268 1.384 . S
C1270 C1271 1.372 . S
C1271 C1270 1.372 . S
C1271 C1272 1.400 . S
C1271 C1276 1.490 . S
C1272 H1262 0.930 . S
C1272 C1271 1.400 . S
C1272 C1275 1.386 . S
H1273 C1289 0.927 1_455 S
H1274 C1290 0.931 1_455 S
C1275 H1263 0.929 . S
C1275 C1269 1.390 . S
C1275 C1272 1.386 . S
C1276 C1271 1.490 . S
C1276 C1278 1.395 . S
C1276 C1279 1.403 . S
H1277 C1283 0.930 . S
C1278 H1264 0.930 . S
C1278 C1276 1.395 . S
C1278 C1281 1.403 . S
C1279 C1276 1.403 . S
C1279 C1280 1.524 . S
C1279 C1283 1.400 . S
C1280 H1265 0.960 . S
C1280 H1266 0.960 . S
C1280 H1267 0.960 . S
C1280 C1279 1.524 . S
C1281 C1278 1.403 . S
C1281 C1282 1.392 . S
C1281 C1285 1.495 . S
C1282 C1281 1.392 . S
C1282 C1283 1.385 . S
C1282 C1284 1.478 . S
C1283 H1277 0.930 . S
C1283 C1279 1.400 . S
C1283 C1282 1.385 . S
C1284 C1282 1.478 . S
C1284 C1286 1.381 . S
C1284 C1290 1.383 . S
C1285 C1281 1.495 . S
C1285 H1291 0.959 . S
C1285 H1292 0.961 1_655 S
C1285 H1293 0.960 . S
C1286 C1284 1.381 . S
C1286 C1287 1.394 . S
C1286 H1294 0.930 . S
C1287 C1286 1.394 . S
C1287 C1288 1.383 . S
C1287 H1295 0.929 . S
C1288 C1287 1.383 . S
C1288 C1289 1.382 . S
C1289 H1273 0.927 1_655 S
C1289 C1288 1.382 . S
C1289 C1290 1.376 . S
C1290 H1274 0.931 1_655 S
C1290 C1284 1.383 . S
C1290 C1289 1.376 . S
H1291 C1285 0.959 . S
H1292 C1285 0.961 1_455 S
H1293 C1285 0.960 . S
H1294 C1286 0.930 . S
H1295 C1287 0.929 . S
H1296 C1304 0.929 . S
H1297 C1306 0.930 . S
H1298 C1308 0.930 . S
H1299 C1311 0.929 . S
H1300 C1314 0.930 . S
H1301 C1316 0.960 . S
H1302 C1316 0.960 . S
H1303 C1316 0.960 . S
C1304 H1296 0.929 . S
C1304 C1305 1.377 . S
C1304 C1306 1.384 . S
C1305 C1304 1.377 . S
C1305 C1311 1.390 . S
C1306 H1297 0.930 . S
C1306 C1304 1.384 . S
C1306 C1307 1.372 . S
C1307 C1306 1.372 . S
C1307 C1308 1.400 . S
C1307 C1312 1.490 . S
C1308 H1298 0.930 . S
C1308 C1307 1.400 . S
C1308 C1311 1.386 . S
H1309 C1325 0.930 . S
H1310 C1326 0.931 . S
C1311 H1299 0.929 . S
C1311 C1305 1.390 . S
C1311 C1308 1.386 . S
C1312 C1307 1.490 . S
C1312 C1314 1.395 . S
C1312 C1315 1.403 . S
H1313 C1319 0.930 . S
C1314 H1300 0.930 . S
C1314 C1312 1.395 . S
C1314 C1317 1.403 . S
C1315 C1312 1.403 . S
C1315 C1316 1.524 . S
C1315 C1319 1.400 . S
C1316 H1301 0.960 . S
C1316 H1302 0.960 . S
C1316 H1303 0.960 . S
C1316 C1315 1.524 . S
C1317 C1314 1.403 . S
C1317 C1318 1.392 . S
C1317 C1321 1.495 . S
C1318 C1317 1.392 . S
C1318 C1319 1.385 . S
C1318 C1320 1.478 . S
C1319 H1313 0.930 . S
C1319 C1315 1.400 . S
C1319 C1318 1.385 . S
C1320 C1318 1.478 . S
C1320 C1322 1.381 . S
C1320 C1326 1.383 . S
C1321 C1317 1.495 . S
C1321 H1327 0.959 . S
C1321 H1328 0.961 . S
C1321 H1329 0.960 . S
C1322 C1320 1.381 . S
C1322 C1323 1.394 . S
C1322 H1330 0.930 . S
C1323 C1322 1.394 . S
C1323 C1324 1.383 . S
C1323 H1331 0.929 . S
C1324 C1323 1.383 . S
C1324 C1325 1.377 . S
C1325 H1309 0.930 . S
C1325 C1324 1.377 . S
C1325 C1326 1.379 . S
C1326 H1310 0.931 . S
C1326 C1320 1.383 . S
C1326 C1325 1.379 . S
H1327 C1321 0.959 . S
H1328 C1321 0.961 . S
H1329 C1321 0.960 . S
H1330 C1322 0.930 . S
H1331 C1323 0.929 . S
C369 C9 1.089 . S
C388 C18 1.045 . S
C405 C58 1.098 . S
C424 C49 1.072 . S
C441 C89 1.090 1_556 S
C460 C98 1.047 . S
C477 C138 1.092 . S
C496 C129 1.050 . S
C513 C169 1.089 . S
C532 C178 1.045 1_545 S
C549 C218 1.081 . S
C568 C209 1.081 1_556 S
C585 C250 1.029 . S
C604 C259 1.044 . S
C621 C290 1.049 . S
C640 C299 1.068 . S
C657 C330 1.012 . S
C676 C339 0.999 . S
C693 C206 2.609 . S
C712 C10 2.627 . S
C729 C46 1.578 . S
C748 C126 1.540 . S
C765 C90 3.883 . S
C784 C170 3.838 . S
C801 C86 0.529 . S
C820 C255 0.507 . S
C837 C295 1.301 . S
C856 C6 1.279 . S
C873 C335 1.647 . S
C892 C50 1.672 . S
C909 C329 2.580 . S
C928 C19 2.629 . S
C945 C55 1.268 . S
C964 C249 1.275 . S
C981 C289 1.637 . S
C1000 C99 1.701 . S
C1017 C95 2.606 . S
C1036 C139 2.622 . S
C1053 C175 1.579 . S
C1072 C15 1.571 . S
C1089 C59 3.839 . S
C1108 C219 3.878 . S
C1125 C338 2.580 . S
C1144 C130 2.638 . S
C1161 C258 1.240 . S
C1180 C166 1.277 . S
C1197 C298 1.627 . S
C1216 C210 1.674 . S
C1233 C246 0.525 . S
C1252 C215 0.477 . S
C1269 C135 1.269 . S
C1288 C286 1.287 . S
C1305 C326 1.647 . S
C1324 C179 1.662 . S
