# Generated by pormake.
# Topology srs-a, (3)-cn, num edge types: 1
# Building blocks:
#     Node 0, Type 0, BuildingBlock: OLANEW_clean_sbu_2, # of connection points: 3
#     Node 1, Type 0, BuildingBlock: OLANEW_clean_sbu_2, # of connection points: 3
#     Node 2, Type 0, BuildingBlock: OLANEW_clean_sbu_2, # of connection points: 3
#     Node 3, Type 0, BuildingBlock: OLANEW_clean_sbu_2, # of connection points: 3
#     Node 4, Type 0, BuildingBlock: OLANEW_clean_sbu_2, # of connection points: 3
#     Node 5, Type 0, BuildingBlock: OLANEW_clean_sbu_2, # of connection points: 3
#     Node 6, Type 0, BuildingBlock: OLANEW_clean_sbu_2, # of connection points: 3
#     Node 7, Type 0, BuildingBlock: OLANEW_clean_sbu_2, # of connection points: 3
#     Node 8, Type 0, BuildingBlock: OLANEW_clean_sbu_2, # of connection points: 3
#     Node 9, Type 0, BuildingBlock: OLANEW_clean_sbu_2, # of connection points: 3
#     Node 10, Type 0, BuildingBlock: OLANEW_clean_sbu_2, # of connection points: 3
#     Node 11, Type 0, BuildingBlock: OLANEW_clean_sbu_2, # of connection points: 3
#     Node 12, Type 0, BuildingBlock: OLANEW_clean_sbu_2, # of connection points: 3
#     Node 13, Type 0, BuildingBlock: OLANEW_clean_sbu_2, # of connection points: 3
#     Node 14, Type 0, BuildingBlock: OLANEW_clean_sbu_2, # of connection points: 3
#     Node 15, Type 0, BuildingBlock: OLANEW_clean_sbu_2, # of connection points: 3
#     Node 16, Type 0, BuildingBlock: OLANEW_clean_sbu_2, # of connection points: 3
#     Node 17, Type 0, BuildingBlock: OLANEW_clean_sbu_2, # of connection points: 3
#     Node 18, Type 0, BuildingBlock: OLANEW_clean_sbu_2, # of connection points: 3
#     Node 19, Type 0, BuildingBlock: OLANEW_clean_sbu_2, # of connection points: 3
#     Node 20, Type 0, BuildingBlock: OLANEW_clean_sbu_2, # of connection points: 3
#     Node 21, Type 0, BuildingBlock: OLANEW_clean_sbu_2, # of connection points: 3
#     Node 22, Type 0, BuildingBlock: OLANEW_clean_sbu_2, # of connection points: 3
#     Node 23, Type 0, BuildingBlock: OLANEW_clean_sbu_2, # of connection points: 3
#     Edge 24, Type (0, 0), BuildingBlock: CIFDUS_clean_linker_0, # of connection points: 2
#     Edge 25, Type (0, 0), BuildingBlock: CIFDUS_clean_linker_0, # of connection points: 2
#     Edge 26, Type (0, 0), BuildingBlock: CIFDUS_clean_linker_0, # of connection points: 2
#     Edge 27, Type (0, 0), BuildingBlock: CIFDUS_clean_linker_0, # of connection points: 2
#     Edge 28, Type (0, 0), BuildingBlock: CIFDUS_clean_linker_0, # of connection points: 2
#     Edge 29, Type (0, 0), BuildingBlock: CIFDUS_clean_linker_0, # of connection points: 2
#     Edge 30, Type (0, 0), BuildingBlock: CIFDUS_clean_linker_0, # of connection points: 2
#     Edge 31, Type (0, 0), BuildingBlock: CIFDUS_clean_linker_0, # of connection points: 2
#     Edge 32, Type (0, 0), BuildingBlock: CIFDUS_clean_linker_0, # of connection points: 2
#     Edge 33, Type (0, 0), BuildingBlock: CIFDUS_clean_linker_0, # of connection points: 2
#     Edge 34, Type (0, 0), BuildingBlock: CIFDUS_clean_linker_0, # of connection points: 2
#     Edge 35, Type (0, 0), BuildingBlock: CIFDUS_clean_linker_0, # of connection points: 2
#     Edge 36, Type (0, 0), BuildingBlock: CIFDUS_clean_linker_0, # of connection points: 2
#     Edge 37, Type (0, 0), BuildingBlock: CIFDUS_clean_linker_0, # of connection points: 2
#     Edge 38, Type (0, 0), BuildingBlock: CIFDUS_clean_linker_0, # of connection points: 2
#     Edge 39, Type (0, 0), BuildingBlock: CIFDUS_clean_linker_0, # of connection points: 2
#     Edge 40, Type (0, 0), BuildingBlock: CIFDUS_clean_linker_0, # of connection points: 2
#     Edge 41, Type (0, 0), BuildingBlock: CIFDUS_clean_linker_0, # of connection points: 2
#     Edge 42, Type (0, 0), BuildingBlock: CIFDUS_clean_linker_0, # of connection points: 2
#     Edge 43, Type (0, 0), BuildingBlock: CIFDUS_clean_linker_0, # of connection points: 2
#     Edge 44, Type (0, 0), BuildingBlock: CIFDUS_clean_linker_0, # of connection points: 2
#     Edge 45, Type (0, 0), BuildingBlock: CIFDUS_clean_linker_0, # of connection points: 2
#     Edge 46, Type (0, 0), BuildingBlock: CIFDUS_clean_linker_0, # of connection points: 2
#     Edge 47, Type (0, 0), BuildingBlock: CIFDUS_clean_linker_0, # of connection points: 2
#     Edge 48, Type (0, 0), BuildingBlock: CIFDUS_clean_linker_0, # of connection points: 2
#     Edge 49, Type (0, 0), BuildingBlock: CIFDUS_clean_linker_0, # of connection points: 2
#     Edge 50, Type (0, 0), BuildingBlock: CIFDUS_clean_linker_0, # of connection points: 2
#     Edge 51, Type (0, 0), BuildingBlock: CIFDUS_clean_linker_0, # of connection points: 2
#     Edge 52, Type (0, 0), BuildingBlock: CIFDUS_clean_linker_0, # of connection points: 2
#     Edge 53, Type (0, 0), BuildingBlock: CIFDUS_clean_linker_0, # of connection points: 2
#     Edge 54, Type (0, 0), BuildingBlock: CIFDUS_clean_linker_0, # of connection points: 2
#     Edge 55, Type (0, 0), BuildingBlock: CIFDUS_clean_linker_0, # of connection points: 2
#     Edge 56, Type (0, 0), BuildingBlock: CIFDUS_clean_linker_0, # of connection points: 2
#     Edge 57, Type (0, 0), BuildingBlock: CIFDUS_clean_linker_0, # of connection points: 2
#     Edge 58, Type (0, 0), BuildingBlock: CIFDUS_clean_linker_0, # of connection points: 2
#     Edge 59, Type (0, 0), BuildingBlock: CIFDUS_clean_linker_0, # of connection points: 2
# Relax obj value: 0.146
# Max RMSD: 0.220
# Mean RMSD: 0.185
data_MOF--net-srs-a--node1-OLANEW_clean_sbu_2--edge1-CIFDUS_clean_linker_0
_symmetry_space_group_name_H-M    P1
_symmetry_Int_Tables_number       1
_symmetry_cell_setting            triclinic
loop_
_symmetry_equiv_pos_as_xyz
'x, y, z'
_cell_length_a     73.367359
_cell_length_b     75.784414
_cell_length_c     77.152442
_cell_angle_alpha  96.151574
_cell_angle_beta   90.771797
_cell_angle_gamma 91.997647
loop_
_atom_site_label
_atom_site_type_symbol
_atom_site_fract_x
_atom_site_fract_y
_atom_site_fract_z
_atom_type_partial_charge
O0 O 0.07027 0.19944 0.22098 0.0
Cd1 Cd 0.04715 0.21821 0.23487 0.0
O2 O 0.05397 0.17557 0.22556 0.0
Cd3 Cd 0.05128 0.14672 0.22564 0.0
O4 O 0.05624 0.11897 0.22883 0.0
C5 C 0.0604 0.10848 0.21564 0.0
O6 O 0.0606 0.11435 0.20025 0.0
C7 C 0.0681 0.18265 0.21941 0.0
C8 C 0.03312 0.23987 0.21131 0.0
O9 O 0.04681 0.24515 0.22125 0.0
O10 O 0.026 0.2244 0.21263 0.0
O11 O 0.08335 0.68942 0.34844 0.0
Cd12 Cd 0.07162 0.65939 0.33859 0.0
O13 O 0.08641 0.69095 0.32046 0.0
Cd14 Cd 0.09546 0.70361 0.29769 0.0
O15 O 0.10791 0.71908 0.27837 0.0
C16 C 0.12517 0.71928 0.2772 0.0
O17 O 0.13459 0.7099 0.28729 0.0
C18 C 0.08777 0.69839 0.33605 0.0
C19 C 0.06262 0.63806 0.36466 0.0
O20 O 0.07833 0.63736 0.3576 0.0
O21 O 0.05139 0.64918 0.35971 0.0
O22 O 0.52468 0.9529 0.57507 0.0
Cd23 Cd 0.55363 0.93824 0.57094 0.0
O24 O 0.51121 0.92704 0.56747 0.0
Cd25 Cd 0.49039 0.90578 0.56093 0.0
O26 O 0.47729 0.87915 0.5584 0.0
C27 C 0.46486 0.87245 0.54776 0.0
O28 O 0.45995 0.85564 0.54801 0.0
C29 C 0.51001 0.9435 0.57263 0.0
C30 C 0.55823 0.91575 0.59686 0.0
O31 O 0.56426 0.93193 0.59901 0.0
O32 O 0.55031 0.91013 0.58231 0.0
O33 O 0.35425 0.15537 0.84623 0.0
Cd34 Cd 0.36829 0.16662 0.8744 0.0
O35 O 0.32811 0.16813 0.85138 0.0
Cd36 Cd 0.33523 0.17197 0.87907 0.0
O37 O 0.34201 0.15749 0.90114 0.0
C38 C 0.34598 0.14144 0.89682 0.0
O39 O 0.34581 0.13545 0.88018 0.0
C40 C 0.33854 0.15929 0.84096 0.0
C41 C 0.40287 0.18166 0.8698 0.0
O42 O 0.3886 0.1909 0.86938 0.0
O43 O 0.40079 0.16535 0.87259 0.0
O44 O 0.07696 0.99312 0.12143 0.0
Cd45 Cd 0.05182 0.97221 0.12609 0.0
O46 O 0.08032 0.99471 0.14978 0.0
Cd47 Cd 0.09382 0.00182 0.17525 0.0
O48 O 0.10449 0.00088 0.20187 0.0
C49 C 0.10342 0.01317 0.21438 0.0
O50 O 0.10895 0.01022 0.23004 0.0
C51 C 0.08544 0.99956 0.13527 0.0
C52 C 0.06512 0.94397 0.14221 0.0
O53 O 0.06186 0.94235 0.12574 0.0
O54 O 0.06178 0.95875 0.15106 0.0
O55 O 0.1894 0.83329 0.35249 0.0
Cd56 Cd 0.18973 0.82562 0.38245 0.0
O57 O 0.16101 0.84156 0.35397 0.0
Cd58 Cd 0.15563 0.8264 0.37597 0.0
O59 O 0.14374 0.79992 0.37827 0.0
C60 C 0.13346 0.79427 0.36531 0.0
O61 O 0.13081 0.8048 0.35311 0.0
C62 C 0.17596 0.84049 0.34584 0.0
C63 C 0.22263 0.83772 0.39877 0.0
O64 O 0.22019 0.82139 0.39265 0.0
O65 O 0.20947 0.84819 0.39742 0.0
O66 O 0.40827 0.99403 0.58595 0.0
Cd67 Cd 0.37699 0.00375 0.58396 0.0
O68 O 0.42146 0.01906 0.5797 0.0
Cd69 Cd 0.39567 0.02974 0.57196 0.0
O70 O 0.37975 0.02638 0.5477 0.0
C71 C 0.36366 0.01957 0.54617 0.0
O72 O 0.35479 0.01644 0.56026 0.0
C73 C 0.42268 0.00332 0.58382 0.0
C74 C 0.3649 0.02597 0.61241 0.0
O75 O 0.36329 0.00904 0.61206 0.0
O76 O 0.37262 0.03235 0.59953 0.0
O77 O 0.36121 0.08806 0.99248 0.0
Cd78 Cd 0.35971 0.06409 0.01129 0.0
O79 O 0.34841 0.06873 0.97237 0.0
Cd80 Cd 0.33592 0.06242 0.9464 0.0
O81 O 0.32957 0.06516 0.9191 0.0
C82 C 0.33557 0.05424 0.90705 0.0
O83 O 0.34497 0.04085 0.91127 0.0
C84 C 0.35506 0.08428 0.97701 0.0
C85 C 0.32681 0.0638 0.02889 0.0
O86 O 0.34122 0.07144 0.03621 0.0
O87 O 0.328 0.05621 0.0133 0.0
O88 O 0.14334 0.85489 0.23915 0.0
Cd89 Cd 0.13999 0.8508 0.20735 0.0
O90 O 0.17157 0.84615 0.23765 0.0
Cd91 Cd 0.16581 0.83174 0.21209 0.0
O92 O 0.15228 0.80578 0.21299 0.0
C93 C 0.16111 0.79527 0.22145 0.0
O94 O 0.17782 0.80005 0.22679 0.0
C95 C 0.15859 0.85285 0.2466 0.0
C96 C 0.12107 0.87786 0.19427 0.0
O97 O 0.13783 0.88019 0.19912 0.0
O98 O 0.11314 0.86275 0.19565 0.0
O99 O 0.34107 0.92811 0.4721 0.0
Cd100 Cd 0.34709 0.90238 0.45135 0.0
O101 O 0.36236 0.9445 0.46112 0.0
Cd102 Cd 0.37643 0.92097 0.45064 0.0
O103 O 0.39619 0.90467 0.46237 0.0
C104 C 0.40483 0.91256 0.47554 0.0
O105 O 0.40176 0.92937 0.48023 0.0
C106 C 0.34894 0.94321 0.47123 0.0
C107 C 0.31445 0.88834 0.43588 0.0
O108 O 0.32168 0.88137 0.44862 0.0
O109 O 0.32277 0.90172 0.43034 0.0
O110 O 0.3046 0.11324 0.73785 0.0
Cd111 Cd 0.28837 0.09772 0.71251 0.0
O112 O 0.30581 0.08827 0.74987 0.0
Cd113 Cd 0.31164 0.0754 0.77331 0.0
O114 O 0.31719 0.07067 0.8003 0.0
C115 C 0.31373 0.08281 0.81238 0.0
O116 O 0.30677 0.09755 0.80819 0.0
C117 C 0.30939 0.10486 0.75046 0.0
C118 C 0.31034 0.07618 0.69059 0.0
O119 O 0.30872 0.09263 0.68863 0.0
O120 O 0.30178 0.06996 0.70312 0.0
O121 O 0.18662 0.05673 0.10892 0.0
Cd122 Cd 0.20792 0.08201 0.10718 0.0
O123 O 0.17053 0.07708 0.12303 0.0
Cd124 Cd 0.14669 0.08888 0.13564 0.0
O125 O 0.12549 0.10371 0.14957 0.0
C126 C 0.13024 0.11613 0.16133 0.0
O127 O 0.14769 0.11943 0.16475 0.0
C128 C 0.17211 0.06096 0.11688 0.0
C129 C 0.24063 0.07439 0.09058 0.0
O130 O 0.23952 0.07502 0.1072 0.0
O131 O 0.22617 0.07695 0.08182 0.0
O132 O 0.62667 0.41437 0.91406 0.0
Cd133 Cd 0.63009 0.39274 0.93506 0.0
O134 O 0.59786 0.41911 0.91968 0.0
Cd135 Cd 0.59484 0.39471 0.93215 0.0
O136 O 0.58493 0.36764 0.9235 0.0
C137 C 0.58984 0.36185 0.90826 0.0
O138 O 0.60104 0.37183 0.9 0.0
C139 C 0.61241 0.42303 0.91197 0.0
C140 C 0.66344 0.39984 0.95266 0.0
O141 O 0.6621 0.38875 0.9389 0.0
O142 O 0.64892 0.40727 0.95829 0.0
O143 O 0.85005 0.35873 0.21353 0.0
Cd144 Cd 0.82392 0.36304 0.23254 0.0
O145 O 0.83296 0.36849 0.1934 0.0
Cd146 Cd 0.82723 0.37761 0.16801 0.0
O147 O 0.82034 0.38593 0.14259 0.0
C148 C 0.82953 0.38066 0.1293 0.0
O149 O 0.84325 0.3703 0.13114 0.0
C150 C 0.84814 0.36268 0.19803 0.0
C151 C 0.82706 0.39569 0.25289 0.0
O152 O 0.83201 0.38145 0.25892 0.0
O153 O 0.82054 0.39445 0.23729 0.0
O154 O 0.85746 0.56447 0.59402 0.0
Cd155 Cd 0.84087 0.56269 0.62101 0.0
O156 O 0.84516 0.53841 0.58431 0.0
Cd157 Cd 0.8396 0.51721 0.56316 0.0
O158 O 0.83894 0.50408 0.53659 0.0
C159 C 0.85234 0.49524 0.53069 0.0
O160 O 0.86618 0.49313 0.54116 0.0
C161 C 0.85563 0.55168 0.582 0.0
C162 C 0.83355 0.59614 0.63759 0.0
O163 O 0.84809 0.58829 0.64124 0.0
O164 O 0.82252 0.58817 0.62606 0.0
O165 O 0.8653 0.51944 0.35991 0.0
Cd166 Cd 0.83677 0.51386 0.34325 0.0
O167 O 0.85908 0.4948 0.37155 0.0
Cd168 Cd 0.86355 0.47847 0.39271 0.0
O169 O 0.86104 0.47538 0.42033 0.0
C170 C 0.84594 0.47986 0.42704 0.0
O171 O 0.83302 0.48488 0.41687 0.0
C172 C 0.86945 0.50839 0.37046 0.0
C173 C 0.83556 0.48106 0.32308 0.0
O174 O 0.84032 0.49529 0.31645 0.0
O175 O 0.83143 0.48234 0.33925 0.0
O176 O 0.60409 0.4732 0.82032 0.0
Cd177 Cd 0.59859 0.48231 0.79131 0.0
O178 O 0.6325 0.46713 0.81424 0.0
Cd179 Cd 0.6252 0.46317 0.78661 0.0
O180 O 0.61124 0.43778 0.77792 0.0
C181 C 0.62008 0.42424 0.78083 0.0
O182 O 0.63699 0.42664 0.78668 0.0
C183 C 0.61986 0.46917 0.82532 0.0
C184 C 0.60778 0.51838 0.79202 0.0
O185 O 0.59121 0.51303 0.79384 0.0
O186 O 0.6199 0.50665 0.7895 0.0
O187 O 0.59619 0.82769 0.71062 0.0
Cd188 Cd 0.56981 0.84645 0.71077 0.0
O189 O 0.58 0.80884 0.72428 0.0
Cd190 Cd 0.57665 0.78541 0.73831 0.0
O191 O 0.58133 0.76154 0.75087 0.0
C192 C 0.58405 0.76247 0.76725 0.0
O193 O 0.58317 0.77794 0.77662 0.0
C194 C 0.59496 0.81315 0.71741 0.0
C195 C 0.5701 0.86714 0.68299 0.0
O196 O 0.57761 0.87292 0.6977 0.0
O197 O 0.56247 0.85156 0.68143 0.0
O198 O 0.54244 0.2682 0.84972 0.0
Cd199 Cd 0.52638 0.24486 0.83043 0.0
O200 O 0.54635 0.28173 0.82627 0.0
Cd201 Cd 0.55504 0.30399 0.812 0.0
O202 O 0.56734 0.32718 0.80144 0.0
C203 C 0.58451 0.32782 0.79945 0.0
O204 O 0.59403 0.3144 0.8034 0.0
C205 C 0.54899 0.28131 0.84257 0.0
C206 C 0.49284 0.2335 0.84266 0.0
O207 O 0.50749 0.2256 0.84585 0.0
O208 O 0.49413 0.24696 0.83395 0.0
O209 O 0.95499 0.34611 0.15193 0.0
Cd210 Cd 0.98152 0.33752 0.13471 0.0
O211 O 0.94096 0.35747 0.13062 0.0
Cd212 Cd 0.91897 0.37206 0.11987 0.0
O213 O 0.89814 0.38868 0.11025 0.0
C214 C 0.89869 0.39284 0.09472 0.0
O215 O 0.9118 0.38681 0.08454 0.0
C216 C 0.9412 0.35354 0.14624 0.0
C217 C 0.00081 0.31423 0.15299 0.0
O218 O 0.00485 0.33092 0.15481 0.0
O219 O 0.98803 0.30852 0.14213 0.0
O220 O 0.96823 0.53779 0.42632 0.0
Cd221 Cd 0.99625 0.5474 0.44263 0.0
O222 O 0.95359 0.55046 0.44857 0.0
Cd223 Cd 0.92938 0.5565 0.46396 0.0
O224 O 0.91139 0.5566 0.4863 0.0
C225 C 0.90553 0.5708 0.49423 0.0
O226 O 0.90974 0.58607 0.48842 0.0
C227 C 0.95326 0.54212 0.43336 0.0
C228 C 0.01335 0.57497 0.42714 0.0
O229 O 0.01813 0.5589 0.42358 0.0
O230 O 0.00074 0.57803 0.43828 0.0
O231 O 0.67877 0.66546 0.79732 0.0
Cd232 Cd 0.65815 0.65339 0.81819 0.0
O233 O 0.69417 0.68183 0.81821 0.0
Cd234 Cd 0.67022 0.68149 0.83465 0.0
O235 O 0.64557 0.6965 0.83228 0.0
C236 C 0.63741 0.69404 0.81753 0.0
O237 O 0.64314 0.68167 0.80584 0.0
C238 C 0.69249 0.67555 0.80229 0.0
C239 C 0.64958 0.61736 0.80972 0.0
O240 O 0.63896 0.62917 0.80513 0.0
O241 O 0.66426 0.6226 0.81821 0.0
O242 O 0.80325 0.41464 0.03052 0.0
Cd243 Cd 0.80046 0.4262 0.00228 0.0
O244 O 0.78739 0.43598 0.04381 0.0
Cd245 Cd 0.7967 0.45249 0.02393 0.0
O246 O 0.82543 0.44828 0.02962 0.0
C247 C 0.82973 0.45067 0.04576 0.0
O248 O 0.81806 0.45832 0.05667 0.0
C249 C 0.79515 0.42124 0.04406 0.0
C250 C 0.76654 0.41614 0.98693 0.0
O251 O 0.76864 0.43031 0.99753 0.0
O252 O 0.78053 0.40681 0.98346 0.0
O253 O 0.76307 0.70751 0.7234 0.0
Cd254 Cd 0.78361 0.71733 0.70144 0.0
O255 O 0.74108 0.7228 0.71352 0.0
Cd256 Cd 0.71389 0.73397 0.71439 0.0
O257 O 0.68907 0.74926 0.71554 0.0
C258 C 0.69078 0.76611 0.71777 0.0
O259 O 0.70726 0.77354 0.71934 0.0
C260 C 0.74663 0.71223 0.72404 0.0
C261 C 0.79504 0.68768 0.68044 0.0
O262 O 0.80424 0.69401 0.69408 0.0
O263 O 0.78063 0.69561 0.67655 0.0
H264 H 0.0836 0.03419 0.237 0.0
H265 H 0.10734 0.03127 0.18611 0.0
H266 H 0.09486 0.05995 0.18133 0.0
H267 H 0.07817 0.08628 0.19218 0.0
H268 H 0.05604 0.09007 0.24395 0.0
H269 H 0.06701 0.06068 0.24795 0.0
C270 C 0.08594 0.03984 0.22485 0.0
C271 C 0.0958 0.03042 0.21161 0.0
C272 C 0.07912 0.05651 0.22245 0.0
C273 C 0.099 0.03794 0.19605 0.0
C274 C 0.09213 0.05443 0.19347 0.0
C275 C 0.0756 0.08062 0.20428 0.0
C276 C 0.06625 0.09033 0.21773 0.0
C277 C 0.08218 0.06384 0.20659 0.0
C278 C 0.06322 0.08288 0.23341 0.0
C279 C 0.0695 0.06608 0.23571 0.0
H280 H 0.11107 0.77939 0.33922 0.0
H281 H 0.13787 0.7679 0.38667 0.0
H282 H 0.12571 0.73722 0.38205 0.0
H283 H 0.1082 0.71336 0.36388 0.0
H284 H 0.08121 0.72557 0.31684 0.0
H285 H 0.0929 0.75621 0.32185 0.0
C286 C 0.11424 0.77023 0.34862 0.0
C287 C 0.12543 0.77594 0.36323 0.0
C288 C 0.10734 0.75266 0.34583 0.0
C289 C 0.1293 0.76386 0.37529 0.0
C290 C 0.12238 0.74631 0.37264 0.0
C291 C 0.10489 0.72278 0.35477 0.0
C292 C 0.09439 0.71708 0.33968 0.0
C293 C 0.1115 0.74051 0.35787 0.0
C294 C 0.08996 0.72943 0.32811 0.0
C295 C 0.09643 0.74702 0.3311 0.0
H296 H 0.50335 0.97852 0.57441 0.0
H297 H 0.47678 0.92759 0.57902 0.0
H298 H 0.44768 0.94171 0.58365 0.0
H299 H 0.4296 0.96851 0.58577 0.0
H300 H 0.45633 0.01955 0.58171 0.0
H301 H 0.48563 0.00544 0.57808 0.0
C302 C 0.49121 0.97048 0.57645 0.0
C303 C 0.49222 0.95189 0.57577 0.0
C304 C 0.47456 0.97876 0.57948 0.0
C305 C 0.47636 0.94176 0.57865 0.0
C306 C 0.45971 0.9499 0.58161 0.0
C307 C 0.44185 0.97661 0.58433 0.0
C308 C 0.44072 0.99509 0.58399 0.0
C309 C 0.45863 0.96838 0.58194 0.0
C310 C 0.45677 0.00532 0.58202 0.0
C311 C 0.47353 0.99724 0.57985 0.0
H312 H 0.34369 0.14801 0.93223 0.0
H313 H 0.35769 0.10768 0.89117 0.0
H314 H 0.36336 0.08707 0.91258 0.0
H315 H 0.36311 0.07995 0.94278 0.0
H316 H 0.3475 0.11929 0.98387 0.0
H317 H 0.3443 0.14104 0.96276 0.0
C318 C 0.34808 0.13475 0.92799 0.0
C319 C 0.35019 0.1294 0.9101 0.0
C320 C 0.35106 0.12279 0.94038 0.0
C321 C 0.35589 0.11216 0.90483 0.0
C322 C 0.35914 0.10033 0.91707 0.0
C323 C 0.35873 0.09321 0.94705 0.0
C324 C 0.35496 0.0979 0.9647 0.0
C325 C 0.3565 0.10541 0.93483 0.0
C326 C 0.35028 0.11537 0.97027 0.0
C327 C 0.34835 0.12775 0.95821 0.0
H328 H 0.10993 0.73966 0.25416 0.0
H329 H 0.16183 0.72502 0.27431 0.0
H330 H 0.1776 0.74605 0.25741 0.0
H331 H 0.17657 0.77023 0.23885 0.0
H332 H 0.12481 0.78532 0.21885 0.0
H333 H 0.10913 0.76227 0.23352 0.0
C334 C 0.1247 0.74096 0.25475 0.0
C335 C 0.13465 0.73091 0.26566 0.0
C336 C 0.13373 0.75317 0.24503 0.0
C337 C 0.1538 0.73265 0.26612 0.0
C338 C 0.16285 0.7447 0.25646 0.0
C339 C 0.16188 0.76836 0.2375 0.0
C340 C 0.15188 0.77962 0.22791 0.0
C341 C 0.15294 0.75527 0.24615 0.0
C342 C 0.13286 0.77687 0.22618 0.0
C343 C 0.12386 0.76375 0.23465 0.0
H344 H 0.42429 0.92581 0.50456 0.0
H345 H 0.41279 0.87737 0.47081 0.0
H346 H 0.43115 0.86096 0.48982 0.0
H347 H 0.44915 0.86009 0.51676 0.0
H348 H 0.45975 0.90833 0.55095 0.0
H349 H 0.44327 0.92514 0.53091 0.0
C350 C 0.42588 0.91168 0.50127 0.0
C351 C 0.41706 0.90282 0.48631 0.0
C352 C 0.43634 0.9023 0.51232 0.0
C353 C 0.41936 0.88452 0.48225 0.0
C354 C 0.42984 0.87511 0.49313 0.0
C355 C 0.44795 0.87431 0.51977 0.0
C356 C 0.45593 0.88298 0.53521 0.0
C357 C 0.43817 0.88383 0.50832 0.0
C358 C 0.45425 0.9014 0.53894 0.0
C359 C 0.44461 0.91099 0.52756 0.0
H360 H 0.35239 0.13258 0.81954 0.0
H361 H 0.30983 0.17064 0.82261 0.0
H362 H 0.2979 0.15801 0.79402 0.0
H363 H 0.29855 0.13497 0.76888 0.0
H364 H 0.33992 0.09585 0.767 0.0
H365 H 0.35348 0.11015 0.79433 0.0
C366 C 0.34064 0.13827 0.81387 0.0
C367 C 0.33204 0.15255 0.82317 0.0
C368 C 0.33363 0.1307 0.79766 0.0
C369 C 0.31668 0.15961 0.81573 0.0
C370 C 0.30985 0.15241 0.79939 0.0
C371 C 0.31066 0.12977 0.77442 0.0
C372 C 0.31824 0.1144 0.76612 0.0
C373 C 0.31807 0.1378 0.79034 0.0
C374 C 0.33383 0.10761 0.77334 0.0
C375 C 0.34157 0.11578 0.78891 0.0
H376 H 0.136 0.14364 0.18671 0.0
H377 H 0.0932 0.11296 0.15707 0.0
H378 H 0.07027 0.13086 0.17244 0.0
H379 H 0.06223 0.15467 0.195 0.0
H380 H 0.10491 0.18636 0.22349 0.0
H381 H 0.12804 0.1683 0.20825 0.0
C382 C 0.12165 0.14076 0.1837 0.0
C383 C 0.11634 0.12688 0.17084 0.0
C384 C 0.1085 0.15106 0.19265 0.0
C385 C 0.09769 0.12348 0.16699 0.0
C386 C 0.08454 0.13367 0.17582 0.0
C387 C 0.07661 0.15746 0.19795 0.0
C388 C 0.08195 0.17154 0.21051 0.0
C389 C 0.08977 0.14734 0.18883 0.0
C390 C 0.10057 0.17544 0.21393 0.0
C391 C 0.11375 0.16515 0.20524 0.0
H392 H 0.111 0.99962 0.11017 0.0
H393 H 0.09405 0.0284 0.15803 0.0
H394 H 0.12004 0.04946 0.15727 0.0
H395 H 0.14752 0.05958 0.14287 0.0
H396 H 0.16369 0.03176 0.09413 0.0
H397 H 0.13834 0.01014 0.09547 0.0
C398 C 0.11305 0.01052 0.12041 0.0
C399 C 0.10101 0.01227 0.13444 0.0
C400 C 0.12787 0.02268 0.11969 0.0
C401 C 0.10366 0.02646 0.14755 0.0
C402 C 0.11835 0.03859 0.14698 0.0
C403 C 0.14524 0.04907 0.13232 0.0
C404 C 0.15715 0.04758 0.11817 0.0
C405 C 0.13054 0.03683 0.1331 0.0
C406 C 0.15461 0.03326 0.10511 0.0
C407 C 0.14008 0.02094 0.10583 0.0
H408 H 0.18842 0.84768 0.2665 0.0
H409 H 0.13283 0.86449 0.27004 0.0
H410 H 0.13406 0.86406 0.30162 0.0
H411 H 0.14957 0.85535 0.32759 0.0
H412 H 0.20484 0.83765 0.32382 0.0
H413 H 0.20508 0.84218 0.29301 0.0
C414 C 0.17666 0.85155 0.27418 0.0
C415 C 0.16047 0.85586 0.26585 0.0
C416 C 0.17732 0.85093 0.2923 0.0
C417 C 0.14543 0.86098 0.27607 0.0
C418 C 0.14608 0.86066 0.29414 0.0
C419 C 0.16178 0.85272 0.32011 0.0
C420 C 0.17706 0.84591 0.32798 0.0
C421 C 0.16175 0.85509 0.30231 0.0
C422 C 0.19281 0.84275 0.3181 0.0
C423 C 0.19296 0.8453 0.30044 0.0
H424 H 0.33718 0.99365 0.53915 0.0
H425 H 0.3767 0.02575 0.51436 0.0
H426 H 0.37301 0.00607 0.4873 0.0
H427 H 0.36311 0.97696 0.47279 0.0
H428 H 0.32494 0.94392 0.49813 0.0
H429 H 0.32331 0.9669 0.52269 0.0
C430 C 0.34459 0.99664 0.52769 0.0
C431 C 0.3575 0.01091 0.52889 0.0
C432 C 0.34288 0.98492 0.51233 0.0
C433 C 0.36689 0.01467 0.51387 0.0
C434 C 0.36486 0.00337 0.4984 0.0
C435 C 0.35412 0.97491 0.4835 0.0
C436 C 0.34452 0.95856 0.4838 0.0
C437 C 0.35362 0.98797 0.4978 0.0
C438 C 0.33269 0.95628 0.49765 0.0
C439 C 0.33181 0.9694 0.51176 0.0
H440 H 0.32316 0.08365 0.89399 0.0
H441 H 0.34126 0.03079 0.87845 0.0
H442 H 0.33629 0.03502 0.84784 0.0
H443 H 0.32656 0.05357 0.82549 0.0
H444 H 0.30898 0.10665 0.84097 0.0
H445 H 0.31414 0.10251 0.87157 0.0
C446 C 0.32596 0.07303 0.88391 0.0
C447 C 0.33246 0.05688 0.88852 0.0
C448 C 0.32322 0.0756 0.86631 0.0
C449 C 0.33622 0.04334 0.87528 0.0
C450 C 0.33338 0.04574 0.85776 0.0
C451 C 0.32385 0.06425 0.83554 0.0
C452 C 0.31726 0.08034 0.83091 0.0
C453 C 0.32685 0.06179 0.85313 0.0
C454 C 0.31393 0.09407 0.84414 0.0
C455 C 0.31688 0.09172 0.86166 0.0
H456 H 0.59774 0.34656 0.87597 0.0
H457 H 0.56344 0.33973 0.91995 0.0
H458 H 0.54816 0.31377 0.90369 0.0
H459 H 0.54346 0.29396 0.87631 0.0
H460 H 0.57837 0.30063 0.83282 0.0
H461 H 0.59431 0.32587 0.84943 0.0
C462 C 0.58701 0.33935 0.88208 0.0
C463 C 0.58168 0.34517 0.89913 0.0
C464 C 0.57819 0.32457 0.87261 0.0
C465 C 0.5678 0.33557 0.90684 0.0
C466 C 0.55901 0.32075 0.89752 0.0
C467 C 0.5546 0.30093 0.87053 0.0
C468 C 0.55927 0.29591 0.85312 0.0
C469 C 0.56391 0.31529 0.88031 0.0
C470 C 0.57391 0.30483 0.84587 0.0
C471 C 0.58322 0.31909 0.85547 0.0
H472 H 0.90511 0.35062 0.13771 0.0
H473 H 0.94262 0.36376 0.18103 0.0
H474 H 0.91709 0.368 0.20092 0.0
H475 H 0.88409 0.36738 0.20604 0.0
H476 H 0.84665 0.35299 0.16289 0.0
H477 H 0.87212 0.35013 0.14281 0.0
C478 C 0.90766 0.35487 0.15142 0.0
C479 C 0.92568 0.35727 0.15786 0.0
C480 C 0.89292 0.35704 0.16279 0.0
C481 C 0.92883 0.36198 0.17578 0.0
C482 C 0.91425 0.36438 0.18715 0.0
C483 C 0.88153 0.36369 0.19222 0.0
C484 C 0.86351 0.36088 0.18587 0.0
C485 C 0.89625 0.36182 0.18081 0.0
C486 C 0.86036 0.35593 0.16798 0.0
C487 C 0.87492 0.35409 0.15653 0.0
H488 H 0.89821 0.54198 0.51145 0.0
H489 H 0.88947 0.59821 0.51361 0.0
H490 H 0.87329 0.59729 0.541 0.0
H491 H 0.8619 0.5805 0.56459 0.0
H492 H 0.87189 0.52464 0.56281 0.0
H493 H 0.88721 0.52539 0.53496 0.0
C494 C 0.8927 0.55404 0.51784 0.0
C495 C 0.89506 0.57014 0.51045 0.0
C496 C 0.88358 0.55346 0.53364 0.0
C497 C 0.88788 0.58564 0.51899 0.0
C498 C 0.87864 0.58513 0.53468 0.0
C499 C 0.86745 0.56852 0.55806 0.0
C500 C 0.86531 0.55241 0.56542 0.0
C501 C 0.87649 0.56913 0.54217 0.0
C502 C 0.87271 0.53702 0.55699 0.0
C503 C 0.88166 0.53749 0.54119 0.0
H504 H 0.87854 0.53831 0.39156 0.0
H505 H 0.89633 0.48568 0.37505 0.0
H506 H 0.92399 0.49131 0.39327 0.0
H507 H 0.94351 0.51167 0.41325 0.0
H508 H 0.92437 0.56333 0.43176 0.0
H509 H 0.89673 0.55764 0.41362 0.0
C510 C 0.88851 0.52812 0.39203 0.0
C511 C 0.88567 0.51171 0.38191 0.0
C512 C 0.90403 0.53127 0.40294 0.0
C513 C 0.8984 0.49843 0.38275 0.0
C514 C 0.91416 0.50165 0.39313 0.0
C515 C 0.93317 0.52158 0.41338 0.0
C516 C 0.93588 0.53787 0.42376 0.0
C517 C 0.91718 0.51807 0.40319 0.0
C518 C 0.92242 0.55061 0.42399 0.0
C519 C 0.9067 0.54742 0.41353 0.0
H520 H 0.63558 0.39304 0.78523 0.0
H521 H 0.5836 0.41572 0.77616 0.0
H522 H 0.56798 0.38746 0.78015 0.0
H523 H 0.56897 0.35709 0.78869 0.0
H524 H 0.62112 0.33475 0.79795 0.0
H525 H 0.63672 0.36209 0.79138 0.0
C526 C 0.62084 0.39177 0.78392 0.0
C527 C 0.61078 0.40654 0.78057 0.0
C528 C 0.61194 0.37558 0.78644 0.0
C529 C 0.5917 0.40459 0.77876 0.0
C530 C 0.58273 0.38845 0.78114 0.0
C531 C 0.58376 0.35816 0.78914 0.0
C532 C 0.59383 0.34393 0.794 0.0
C533 C 0.5927 0.37398 0.78539 0.0
C534 C 0.61299 0.34549 0.79435 0.0
C535 C 0.62195 0.36115 0.79061 0.0
H536 H 0.61875 0.69253 0.78685 0.0
H537 H 0.62645 0.72448 0.83636 0.0
H538 H 0.60884 0.74796 0.82561 0.0
H539 H 0.59438 0.7607 0.80106 0.0
H540 H 0.58781 0.72891 0.75131 0.0
H541 H 0.60179 0.70407 0.76332 0.0
C542 C 0.61638 0.70452 0.79541 0.0
C543 C 0.62414 0.70684 0.8123 0.0
C544 C 0.6066 0.71809 0.78903 0.0
C545 C 0.62074 0.72238 0.82326 0.0
C546 C 0.61074 0.73586 0.81709 0.0
C547 C 0.59579 0.74827 0.7929 0.0
C548 C 0.59028 0.74678 0.77524 0.0
C549 C 0.6041 0.73408 0.79982 0.0
C550 C 0.59208 0.73051 0.7649 0.0
C551 C 0.6001 0.71628 0.77175 0.0
H552 H 0.89564 0.4035 0.06223 0.0
H553 H 0.87061 0.40838 0.11279 0.0
H554 H 0.84791 0.42766 0.10233 0.0
H555 H 0.83476 0.44255 0.07877 0.0
H556 H 0.85887 0.43693 0.02785 0.0
H557 H 0.88252 0.41867 0.03862 0.0
C558 C 0.88526 0.40882 0.071 0.0
C559 C 0.8849 0.40451 0.0883 0.0
C560 C 0.87218 0.41987 0.06488 0.0
C561 C 0.87129 0.4115 0.09944 0.0
C562 C 0.85831 0.42258 0.09348 0.0
C563 C 0.84536 0.43761 0.07007 0.0
C564 C 0.84518 0.44127 0.05257 0.0
C565 C 0.85862 0.42682 0.07623 0.0
C566 C 0.85879 0.4344 0.0414 0.0
C567 C 0.87225 0.4239 0.04754 0.0
H568 H 0.63051 0.82388 0.72039 0.0
H569 H 0.59522 0.77687 0.71386 0.0
H570 H 0.62165 0.75815 0.71408 0.0
H571 H 0.6549 0.75515 0.71546 0.0
H572 H 0.69019 0.80229 0.72135 0.0
H573 H 0.66371 0.82089 0.72186 0.0
C574 C 0.62863 0.80953 0.71904 0.0
C575 C 0.61092 0.80178 0.71757 0.0
C576 C 0.64391 0.79886 0.71893 0.0
C577 C 0.60866 0.78318 0.71571 0.0
C578 C 0.6238 0.77246 0.71559 0.0
C579 C 0.65681 0.76949 0.71689 0.0
C580 C 0.67455 0.77727 0.71833 0.0
C581 C 0.6415 0.78015 0.71718 0.0
C582 C 0.67673 0.7959 0.72019 0.0
C583 C 0.66158 0.80658 0.72048 0.0
H584 H 0.68518 0.67962 0.76859 0.0
H585 H 0.72849 0.68529 0.80734 0.0
H586 H 0.74926 0.69692 0.78636 0.0
H587 H 0.75482 0.70612 0.75713 0.0
H588 H 0.71085 0.7021 0.71911 0.0
H589 H 0.69051 0.68939 0.73971 0.0
C590 C 0.69923 0.68321 0.77236 0.0
C591 C 0.7054 0.68142 0.78938 0.0
C592 C 0.71086 0.69043 0.76044 0.0
C593 C 0.7235 0.68648 0.79426 0.0
C594 C 0.73534 0.69317 0.7823 0.0
C595 C 0.74075 0.70249 0.75343 0.0
C596 C 0.73422 0.70527 0.73677 0.0
C597 C 0.72912 0.69534 0.7654 0.0
C598 C 0.71602 0.70052 0.73204 0.0
C599 C 0.70446 0.69307 0.74374 0.0
H600 H 0.64039 0.43299 0.89192 0.0
H601 H 0.58374 0.44238 0.90273 0.0
H602 H 0.5818 0.45976 0.87797 0.0
H603 H 0.595 0.46884 0.85114 0.0
H604 H 0.65132 0.45842 0.83972 0.0
H605 H 0.65459 0.44515 0.86698 0.0
C606 C 0.62769 0.43907 0.88906 0.0
C607 C 0.61216 0.43612 0.89902 0.0
C608 C 0.62655 0.44876 0.87459 0.0
C609 C 0.59587 0.44427 0.8952 0.0
C610 C 0.59472 0.45418 0.88099 0.0
C611 C 0.60809 0.46397 0.85474 0.0
C612 C 0.62279 0.46439 0.84324 0.0
C613 C 0.60979 0.45599 0.87026 0.0
C614 C 0.63971 0.45814 0.84823 0.0
C615 C 0.64159 0.45047 0.86379 0.0
H616 H 0.8199 0.39733 0.05146 0.0
H617 H 0.7765 0.42858 0.07429 0.0
H618 H 0.7832 0.41855 0.1027 0.0
H619 H 0.80218 0.40189 0.12121 0.0
H620 H 0.84623 0.3715 0.09839 0.0
H621 H 0.83852 0.38036 0.06979 0.0
C622 C 0.81166 0.4017 0.06256 0.0
C623 C 0.79758 0.41354 0.06071 0.0
C624 C 0.81584 0.39621 0.07889 0.0
C625 C 0.78733 0.41937 0.07534 0.0
C626 C 0.79121 0.41371 0.0916 0.0
C627 C 0.81006 0.39714 0.10998 0.0
C628 C 0.82474 0.38601 0.11196 0.0
C629 C 0.80559 0.40231 0.09356 0.0
C630 C 0.83482 0.38002 0.09725 0.0
C631 C 0.8304 0.38505 0.08087 0.0
H632 H 0.87063 0.47289 0.45193 0.0
H633 H 0.81573 0.49009 0.44511 0.0
H634 H 0.81249 0.49525 0.47662 0.0
H635 H 0.82586 0.49682 0.506 0.0
H636 H 0.88086 0.48003 0.513 0.0
H637 H 0.88334 0.47265 0.48155 0.0
C638 C 0.85789 0.4776 0.45733 0.0
C639 C 0.84351 0.48123 0.44615 0.0
C640 C 0.85614 0.4807 0.47551 0.0
C641 C 0.82707 0.48726 0.45339 0.0
C642 C 0.8252 0.49026 0.47143 0.0
C643 C 0.83835 0.4914 0.50069 0.0
C644 C 0.85319 0.48911 0.51185 0.0
C645 C 0.83975 0.48732 0.48259 0.0
C646 C 0.86922 0.48197 0.50472 0.0
C647 C 0.87068 0.47779 0.48672 0.0
H648 H 0.04428 0.27362 0.2066 0.0
H649 H 0.00526 0.23179 0.18768 0.0
H650 H 0.99252 0.25078 0.16731 0.0
H651 H 0.99176 0.27956 0.15555 0.0
H652 H 0.03026 0.32167 0.17494 0.0
H653 H 0.04398 0.3022 0.19433 0.0
C654 C 0.03302 0.26863 0.19799 0.0
C655 C 0.0257 0.25133 0.19873 0.0
C656 C 0.02567 0.27966 0.18637 0.0
C657 C 0.01112 0.24508 0.18745 0.0
C658 C 0.00383 0.25592 0.17577 0.0
C659 C 0.00325 0.28445 0.16391 0.0
C660 C 0.00995 0.30205 0.1638 0.0
C661 C 0.01091 0.27327 0.17521 0.0
C662 C 0.0248 0.30818 0.17478 0.0
C663 C 0.03265 0.29707 0.1859 0.0
H664 H 0.03382 0.64045 0.38644 0.0
H665 H 0.07913 0.60773 0.37129 0.0
H666 H 0.06831 0.58558 0.38992 0.0
H667 H 0.04484 0.57463 0.40898 0.0
H668 H 5e-05 0.60777 0.42478 0.0
H669 H 0.01186 0.63067 0.40751 0.0
C670 C 0.0414 0.62854 0.38732 0.0
C671 C 0.05714 0.62565 0.37736 0.0
C672 C 0.03515 0.6159 0.39811 0.0
C673 C 0.06695 0.61026 0.37881 0.0
C674 C 0.06074 0.59755 0.3894 0.0
C675 C 0.03774 0.58692 0.40873 0.0
C676 C 0.0215 0.58942 0.41799 0.0
C677 C 0.04467 0.60008 0.39886 0.0
C678 C 0.01257 0.6055 0.41774 0.0
C679 C 0.01928 0.61859 0.40782 0.0
H680 H 0.55611 0.85821 0.65027 0.0
H681 H 0.584 0.90101 0.68273 0.0
H682 H 0.58324 0.91961 0.65881 0.0
H683 H 0.57403 0.924 0.62893 0.0
H684 H 0.54605 0.88123 0.59648 0.0
H685 H 0.54757 0.86234 0.62014 0.0
C686 C 0.56206 0.87159 0.65211 0.0
C687 C 0.57003 0.87821 0.6683 0.0
C688 C 0.56157 0.88224 0.63831 0.0
C689 C 0.57774 0.89557 0.67043 0.0
C690 C 0.57731 0.90624 0.65675 0.0
C691 C 0.56833 0.91052 0.62699 0.0
C692 C 0.5599 0.90407 0.61096 0.0
C693 C 0.56917 0.89974 0.64067 0.0
C694 C 0.55261 0.88656 0.60869 0.0
C695 C 0.55344 0.87574 0.62222 0.0
H696 H 0.41101 0.21404 0.85916 0.0
H697 H 0.43585 0.16672 0.87339 0.0
H698 H 0.46596 0.17898 0.8671 0.0
H699 H 0.48512 0.20263 0.8565 0.0
H700 H 0.46016 0.24951 0.84132 0.0
H701 H 0.43024 0.23795 0.84912 0.0
C702 C 0.42301 0.20645 0.86099 0.0
C703 C 0.42116 0.18947 0.86671 0.0
C704 C 0.44027 0.21348 0.85714 0.0
C705 C 0.43687 0.17979 0.86895 0.0
C706 C 0.4541 0.1868 0.86536 0.0
C707 C 0.47316 0.21039 0.85501 0.0
C708 C 0.47488 0.2269 0.84831 0.0
C709 C 0.45595 0.20355 0.85929 0.0
C710 C 0.45922 0.23673 0.8464 0.0
C711 C 0.44209 0.23013 0.85085 0.0
H712 H 0.09499 0.87438 0.16882 0.0
H713 H 0.12565 0.91336 0.20339 0.0
H714 H 0.11004 0.9373 0.19108 0.0
H715 H 0.08837 0.94713 0.16988 0.0
H716 H 0.06011 0.90837 0.13317 0.0
H717 H 0.07403 0.88429 0.14687 0.0
C718 C 0.09812 0.88812 0.1737 0.0
C719 C 0.1113 0.89217 0.18704 0.0
C720 C 0.08957 0.9018 0.16613 0.0
C721 C 0.11553 0.90999 0.1931 0.0
C722 C 0.10661 0.92365 0.18609 0.0
C723 C 0.08517 0.9334 0.16499 0.0
C724 C 0.07315 0.92945 0.15067 0.0
C725 C 0.09371 0.91972 0.17253 0.0
C726 C 0.06935 0.91166 0.1442 0.0
C727 C 0.07728 0.89793 0.15203 0.0
H728 H 0.23715 0.87113 0.40012 0.0
H729 H 0.24771 0.81917 0.41507 0.0
H730 H 0.27695 0.83034 0.42833 0.0
H731 H 0.29956 0.85496 0.43558 0.0
H732 H 0.28987 0.90625 0.41851 0.0
H733 H 0.26028 0.89528 0.40612 0.0
C734 C 0.24583 0.86229 0.40636 0.0
C735 C 0.24026 0.84442 0.40679 0.0
C736 C 0.26279 0.86868 0.41351 0.0
C737 C 0.25174 0.833 0.41461 0.0
C738 C 0.26844 0.83938 0.4222 0.0
C739 C 0.29093 0.86371 0.42915 0.0
C740 C 0.29681 0.8814 0.42803 0.0
C741 C 0.27411 0.8572 0.42171 0.0
C742 C 0.28565 0.89256 0.41949 0.0
C743 C 0.26871 0.88632 0.41245 0.0
H744 H 0.33112 0.08586 0.66402 0.0
H745 H 0.31392 0.0403 0.68961 0.0
H746 H 0.33008 0.02083 0.6682 0.0
H747 H 0.34774 0.01656 0.64133 0.0
H748 H 0.36479 0.06218 0.61574 0.0
H749 H 0.35014 0.08177 0.6381 0.0
C750 C 0.33098 0.07168 0.66499 0.0
C751 C 0.32121 0.06456 0.67834 0.0
C752 C 0.34024 0.06054 0.6526 0.0
C753 C 0.32128 0.04616 0.67945 0.0
C754 C 0.3305 0.03499 0.66719 0.0
C755 C 0.34838 0.03079 0.64071 0.0
C756 C 0.35726 0.03785 0.6268 0.0
C757 C 0.33982 0.04201 0.65357 0.0
C758 C 0.358 0.05635 0.62626 0.0
C759 C 0.34959 0.06759 0.63903 0.0
H760 H 0.24612 0.06559 0.05604 0.0
H761 H 0.2747 0.077 0.10545 0.0
H762 H 0.30393 0.07457 0.09074 0.0
H763 H 0.32137 0.07032 0.06371 0.0
H764 H 0.29277 0.05777 0.01446 0.0
H765 H 0.26355 0.05951 0.02925 0.0
C766 C 0.25875 0.06746 0.0636 0.0
C767 C 0.25824 0.07159 0.08179 0.0
C768 C 0.2755 0.06592 0.05508 0.0
C769 C 0.27471 0.0738 0.09143 0.0
C770 C 0.29144 0.07248 0.08302 0.0
C771 C 0.30874 0.06793 0.05623 0.0
C772 C 0.30922 0.06406 0.03801 0.0
C773 C 0.29199 0.06874 0.06484 0.0
C774 C 0.29276 0.06078 0.0285 0.0
C775 C 0.27605 0.06181 0.03694 0.0
H776 H 0.696 0.38496 0.94504 0.0
H777 H 0.67106 0.4251 0.98 0.0
H778 H 0.70071 0.43366 0.99365 0.0
H779 H 0.73381 0.43018 0.9953 0.0
H780 H 0.7587 0.38975 0.96067 0.0
H781 H 0.72898 0.38091 0.94726 0.0
C782 C 0.69703 0.39555 0.95568 0.0
C783 C 0.68132 0.4044 0.96144 0.0
C784 C 0.71413 0.40041 0.9635 0.0
C785 C 0.68291 0.41804 0.9753 0.0
C786 C 0.69988 0.42299 0.9831 0.0
C787 C 0.73274 0.41945 0.98481 0.0
C788 C 0.74847 0.41071 0.97895 0.0
C789 C 0.71559 0.41434 0.97723 0.0
C790 C 0.74682 0.39672 0.96543 0.0
C791 C 0.72982 0.39165 0.95774 0.0
H792 H 0.83109 0.4018 0.28808 0.0
H793 H 0.82682 0.42856 0.24165 0.0
H794 H 0.82974 0.45735 0.25922 0.0
H795 H 0.83316 0.47493 0.28781 0.0
H796 H 0.83567 0.44819 0.33438 0.0
H797 H 0.83381 0.41939 0.31674 0.0
C798 C 0.83085 0.41394 0.28182 0.0
C799 C 0.8288 0.41306 0.2636 0.0
C800 C 0.83221 0.43044 0.29203 0.0
C801 C 0.82833 0.42889 0.25566 0.0
C802 C 0.83004 0.44535 0.2657 0.0
C803 C 0.83338 0.46279 0.29408 0.0
C804 C 0.83462 0.46368 0.31235 0.0
C805 C 0.83194 0.44629 0.28388 0.0
C806 C 0.83468 0.44785 0.32032 0.0
C807 C 0.83364 0.43138 0.31025 0.0
H808 H 0.82495 0.66839 0.68514 0.0
H809 H 0.7773 0.67012 0.652 0.0
H810 H 0.78526 0.6422 0.63557 0.0
H811 H 0.80513 0.61677 0.63125 0.0
H812 H 0.8528 0.61504 0.66436 0.0
H813 H 0.84545 0.64351 0.68012 0.0
C814 C 0.81635 0.66272 0.67427 0.0
C815 C 0.80051 0.67131 0.66987 0.0
C816 C 0.82097 0.64662 0.6649 0.0
C817 C 0.78956 0.66378 0.6557 0.0
C818 C 0.79408 0.64779 0.6463 0.0
C819 C 0.81395 0.62263 0.64188 0.0
C820 C 0.82944 0.61372 0.64667 0.0
C821 C 0.80965 0.639 0.6509 0.0
C822 C 0.84077 0.62158 0.66042 0.0
C823 C 0.83657 0.63786 0.66946 0.0
H824 H 0.6164 0.60203 0.80017 0.0
H825 H 0.67224 0.58969 0.81045 0.0
H826 H 0.66441 0.55799 0.80484 0.0
H827 H 0.64152 0.53375 0.79808 0.0
H828 H 0.58533 0.546 0.7895 0.0
H829 H 0.59349 0.57774 0.7933 0.0
C830 C 0.62687 0.5924 0.80106 0.0
C831 C 0.64487 0.59821 0.8057 0.0
C832 C 0.62221 0.57418 0.79817 0.0
C833 C 0.65826 0.58557 0.80696 0.0
C834 C 0.65381 0.56743 0.80374 0.0
C835 C 0.63108 0.54337 0.79689 0.0
C836 C 0.61286 0.53754 0.79347 0.0
C837 C 0.6358 0.56159 0.79948 0.0
C838 C 0.59946 0.55015 0.79216 0.0
C839 C 0.60411 0.56831 0.79434 0.0
loop_
_geom_bond_atom_site_label_1
_geom_bond_atom_site_label_2
_geom_bond_distance
_geom_bond_site_symmetry_2
_ccdc_geom_bond_type
O0 Cd1 2.300 . S
O0 C7 1.275 . S
Cd1 O0 2.300 . S
Cd1 O9 2.381 . S
Cd1 O10 2.378 . S
O2 Cd3 2.385 . S
O2 C7 1.255 . S
Cd3 O2 2.385 . S
Cd3 O4 2.317 . S
O4 Cd3 2.317 . S
O4 C5 1.232 . S
C5 O4 1.232 . S
C5 O6 1.218 . S
O6 C5 1.218 . S
C7 O0 1.275 . S
C7 O2 1.255 . S
C8 O9 1.258 . S
C8 O10 1.256 . S
O9 Cd1 2.381 . S
O9 C8 1.258 . S
O10 Cd1 2.378 . S
O10 C8 1.256 . S
O11 Cd12 2.300 . S
O11 C18 1.275 . S
Cd12 O11 2.300 . S
Cd12 O20 2.381 . S
Cd12 O21 2.378 . S
O13 Cd14 2.385 . S
O13 C18 1.255 . S
Cd14 O13 2.385 . S
Cd14 O15 2.317 . S
O15 Cd14 2.317 . S
O15 C16 1.232 . S
C16 O15 1.232 . S
C16 O17 1.218 . S
O17 C16 1.218 . S
C18 O11 1.275 . S
C18 O13 1.255 . S
C19 O20 1.258 . S
C19 O21 1.256 . S
O20 Cd12 2.381 . S
O20 C19 1.258 . S
O21 Cd12 2.378 . S
O21 C19 1.256 . S
O22 Cd23 2.300 . S
O22 C29 1.275 . S
Cd23 O22 2.300 . S
Cd23 O31 2.381 . S
Cd23 O32 2.378 . S
O24 Cd25 2.385 . S
O24 C29 1.255 . S
Cd25 O24 2.385 . S
Cd25 O26 2.317 . S
O26 Cd25 2.317 . S
O26 C27 1.232 . S
C27 O26 1.232 . S
C27 O28 1.218 . S
O28 C27 1.218 . S
C29 O22 1.275 . S
C29 O24 1.255 . S
C30 O31 1.258 . S
C30 O32 1.256 . S
O31 Cd23 2.381 . S
O31 C30 1.258 . S
O32 Cd23 2.378 . S
O32 C30 1.256 . S
O33 Cd34 2.300 . S
O33 C40 1.275 . S
Cd34 O33 2.300 . S
Cd34 O42 2.381 . S
Cd34 O43 2.378 . S
O35 Cd36 2.385 . S
O35 C40 1.255 . S
Cd36 O35 2.385 . S
Cd36 O37 2.317 . S
O37 Cd36 2.317 . S
O37 C38 1.232 . S
C38 O37 1.232 . S
C38 O39 1.218 . S
O39 C38 1.218 . S
C40 O33 1.275 . S
C40 O35 1.255 . S
C41 O42 1.258 . S
C41 O43 1.256 . S
O42 Cd34 2.381 . S
O42 C41 1.258 . S
O43 Cd34 2.378 . S
O43 C41 1.256 . S
O44 Cd45 2.300 . S
O44 C51 1.275 1_565 S
Cd45 O44 2.300 . S
Cd45 O53 2.381 . S
Cd45 O54 2.378 . S
O46 Cd47 2.385 . S
O46 C51 1.255 . S
Cd47 O46 2.385 . S
Cd47 O48 2.317 . S
O48 Cd47 2.317 . S
O48 C49 1.232 . S
C49 O48 1.232 . S
C49 O50 1.218 . S
O50 C49 1.218 . S
C51 O44 1.275 1_545 S
C51 O46 1.255 . S
C52 O53 1.258 . S
C52 O54 1.256 . S
O53 Cd45 2.381 . S
O53 C52 1.258 . S
O54 Cd45 2.378 . S
O54 C52 1.256 . S
O55 Cd56 2.300 . S
O55 C62 1.275 . S
Cd56 O55 2.300 . S
Cd56 O64 2.381 . S
Cd56 O65 2.378 . S
O57 Cd58 2.385 . S
O57 C62 1.255 . S
Cd58 O57 2.385 . S
Cd58 O59 2.317 . S
O59 Cd58 2.317 . S
O59 C60 1.232 . S
C60 O59 1.232 . S
C60 O61 1.218 . S
O61 C60 1.218 . S
C62 O55 1.275 . S
C62 O57 1.255 . S
C63 O64 1.258 . S
C63 O65 1.256 . S
O64 Cd56 2.381 . S
O64 C63 1.258 . S
O65 Cd56 2.378 . S
O65 C63 1.256 . S
O66 Cd67 2.300 1_565 S
O66 C73 1.275 . S
Cd67 O66 2.300 1_545 S
Cd67 O75 2.381 . S
Cd67 O76 2.378 . S
O68 Cd69 2.385 . S
O68 C73 1.255 1_545 S
Cd69 O68 2.385 . S
Cd69 O70 2.317 . S
O70 Cd69 2.317 . S
O70 C71 1.232 1_545 S
C71 O70 1.232 1_565 S
C71 O72 1.218 . S
O72 C71 1.218 . S
C73 O66 1.275 . S
C73 O68 1.255 1_565 S
C74 O75 1.258 . S
C74 O76 1.256 . S
O75 Cd67 2.381 . S
O75 C74 1.258 . S
O76 Cd67 2.378 . S
O76 C74 1.256 . S
O77 Cd78 2.300 . S
O77 C84 1.275 . S
Cd78 O77 2.300 . S
Cd78 O86 2.381 . S
Cd78 O87 2.378 . S
O79 Cd80 2.385 . S
O79 C84 1.255 . S
Cd80 O79 2.385 . S
Cd80 O81 2.317 . S
O81 Cd80 2.317 . S
O81 C82 1.232 . S
C82 O81 1.232 . S
C82 O83 1.218 . S
O83 C82 1.218 . S
C84 O77 1.275 . S
C84 O79 1.255 . S
C85 O86 1.258 . S
C85 O87 1.256 . S
O86 Cd78 2.381 . S
O86 C85 1.258 . S
O87 Cd78 2.378 . S
O87 C85 1.256 . S
O88 Cd89 2.300 . S
O88 C95 1.275 . S
Cd89 O88 2.300 . S
Cd89 O97 2.381 . S
Cd89 O98 2.378 . S
O90 Cd91 2.385 . S
O90 C95 1.255 . S
Cd91 O90 2.385 . S
Cd91 O92 2.317 . S
O92 Cd91 2.317 . S
O92 C93 1.232 . S
C93 O92 1.232 . S
C93 O94 1.218 . S
O94 C93 1.218 . S
C95 O88 1.275 . S
C95 O90 1.255 . S
C96 O97 1.258 . S
C96 O98 1.256 . S
O97 Cd89 2.381 . S
O97 C96 1.258 . S
O98 Cd89 2.378 . S
O98 C96 1.256 . S
O99 Cd100 2.300 . S
O99 C106 1.275 . S
Cd100 O99 2.300 . S
Cd100 O108 2.381 . S
Cd100 O109 2.378 . S
O101 Cd102 2.385 . S
O101 C106 1.255 . S
Cd102 O101 2.385 . S
Cd102 O103 2.317 . S
O103 Cd102 2.317 . S
O103 C104 1.232 . S
C104 O103 1.232 . S
C104 O105 1.218 . S
O105 C104 1.218 . S
C106 O99 1.275 . S
C106 O101 1.255 . S
C107 O108 1.258 . S
C107 O109 1.256 . S
O108 Cd100 2.381 . S
O108 C107 1.258 . S
O109 Cd100 2.378 . S
O109 C107 1.256 . S
O110 Cd111 2.300 . S
O110 C117 1.275 . S
Cd111 O110 2.300 . S
Cd111 O119 2.381 . S
Cd111 O120 2.378 . S
O112 Cd113 2.385 . S
O112 C117 1.255 . S
Cd113 O112 2.385 . S
Cd113 O114 2.317 . S
O114 Cd113 2.317 . S
O114 C115 1.232 . S
C115 O114 1.232 . S
C115 O116 1.218 . S
O116 C115 1.218 . S
C117 O110 1.275 . S
C117 O112 1.255 . S
C118 O119 1.258 . S
C118 O120 1.256 . S
O119 Cd111 2.381 . S
O119 C118 1.258 . S
O120 Cd111 2.378 . S
O120 C118 1.256 . S
O121 Cd122 2.300 . S
O121 C128 1.275 . S
Cd122 O121 2.300 . S
Cd122 O130 2.381 . S
Cd122 O131 2.378 . S
O123 Cd124 2.385 . S
O123 C128 1.255 . S
Cd124 O123 2.385 . S
Cd124 O125 2.317 . S
O125 Cd124 2.317 . S
O125 C126 1.232 . S
C126 O125 1.232 . S
C126 O127 1.218 . S
O127 C126 1.218 . S
C128 O121 1.275 . S
C128 O123 1.255 . S
C129 O130 1.258 . S
C129 O131 1.256 . S
O130 Cd122 2.381 . S
O130 C129 1.258 . S
O131 Cd122 2.378 . S
O131 C129 1.256 . S
O132 Cd133 2.300 . S
O132 C139 1.275 . S
Cd133 O132 2.300 . S
Cd133 O141 2.381 . S
Cd133 O142 2.378 . S
O134 Cd135 2.385 . S
O134 C139 1.255 . S
Cd135 O134 2.385 . S
Cd135 O136 2.317 . S
O136 Cd135 2.317 . S
O136 C137 1.232 . S
C137 O136 1.232 . S
C137 O138 1.218 . S
O138 C137 1.218 . S
C139 O132 1.275 . S
C139 O134 1.255 . S
C140 O141 1.258 . S
C140 O142 1.256 . S
O141 Cd133 2.381 . S
O141 C140 1.258 . S
O142 Cd133 2.378 . S
O142 C140 1.256 . S
O143 Cd144 2.300 . S
O143 C150 1.275 . S
Cd144 O143 2.300 . S
Cd144 O152 2.381 . S
Cd144 O153 2.378 . S
O145 Cd146 2.385 . S
O145 C150 1.255 . S
Cd146 O145 2.385 . S
Cd146 O147 2.317 . S
O147 Cd146 2.317 . S
O147 C148 1.232 . S
C148 O147 1.232 . S
C148 O149 1.218 . S
O149 C148 1.218 . S
C150 O143 1.275 . S
C150 O145 1.255 . S
C151 O152 1.258 . S
C151 O153 1.256 . S
O152 Cd144 2.381 . S
O152 C151 1.258 . S
O153 Cd144 2.378 . S
O153 C151 1.256 . S
O154 Cd155 2.300 . S
O154 C161 1.275 . S
Cd155 O154 2.300 . S
Cd155 O163 2.381 . S
Cd155 O164 2.378 . S
O156 Cd157 2.385 . S
O156 C161 1.255 . S
Cd157 O156 2.385 . S
Cd157 O158 2.317 . S
O158 Cd157 2.317 . S
O158 C159 1.232 . S
C159 O158 1.232 . S
C159 O160 1.218 . S
O160 C159 1.218 . S
C161 O154 1.275 . S
C161 O156 1.255 . S
C162 O163 1.258 . S
C162 O164 1.256 . S
O163 Cd155 2.381 . S
O163 C162 1.258 . S
O164 Cd155 2.378 . S
O164 C162 1.256 . S
O165 Cd166 2.300 . S
O165 C172 1.275 . S
Cd166 O165 2.300 . S
Cd166 O174 2.381 . S
Cd166 O175 2.378 . S
O167 Cd168 2.385 . S
O167 C172 1.255 . S
Cd168 O167 2.385 . S
Cd168 O169 2.317 . S
O169 Cd168 2.317 . S
O169 C170 1.232 . S
C170 O169 1.232 . S
C170 O171 1.218 . S
O171 C170 1.218 . S
C172 O165 1.275 . S
C172 O167 1.255 . S
C173 O174 1.258 . S
C173 O175 1.256 . S
O174 Cd166 2.381 . S
O174 C173 1.258 . S
O175 Cd166 2.378 . S
O175 C173 1.256 . S
O176 Cd177 2.300 . S
O176 C183 1.275 . S
Cd177 O176 2.300 . S
Cd177 O185 2.381 . S
Cd177 O186 2.378 . S
O178 Cd179 2.385 . S
O178 C183 1.255 . S
Cd179 O178 2.385 . S
Cd179 O180 2.317 . S
O180 Cd179 2.317 . S
O180 C181 1.232 . S
C181 O180 1.232 . S
C181 O182 1.218 . S
O182 C181 1.218 . S
C183 O176 1.275 . S
C183 O178 1.255 . S
C184 O185 1.258 . S
C184 O186 1.256 . S
O185 Cd177 2.381 . S
O185 C184 1.258 . S
O186 Cd177 2.378 . S
O186 C184 1.256 . S
O187 Cd188 2.300 . S
O187 C194 1.275 . S
Cd188 O187 2.300 . S
Cd188 O196 2.381 . S
Cd188 O197 2.378 . S
O189 Cd190 2.385 . S
O189 C194 1.255 . S
Cd190 O189 2.385 . S
Cd190 O191 2.317 . S
O191 Cd190 2.317 . S
O191 C192 1.232 . S
C192 O191 1.232 . S
C192 O193 1.218 . S
O193 C192 1.218 . S
C194 O187 1.275 . S
C194 O189 1.255 . S
C195 O196 1.258 . S
C195 O197 1.256 . S
O196 Cd188 2.381 . S
O196 C195 1.258 . S
O197 Cd188 2.378 . S
O197 C195 1.256 . S
O198 Cd199 2.300 . S
O198 C205 1.275 . S
Cd199 O198 2.300 . S
Cd199 O207 2.381 . S
Cd199 O208 2.378 . S
O200 Cd201 2.385 . S
O200 C205 1.255 . S
Cd201 O200 2.385 . S
Cd201 O202 2.317 . S
O202 Cd201 2.317 . S
O202 C203 1.232 . S
C203 O202 1.232 . S
C203 O204 1.218 . S
O204 C203 1.218 . S
C205 O198 1.275 . S
C205 O200 1.255 . S
C206 O207 1.258 . S
C206 O208 1.256 . S
O207 Cd199 2.381 . S
O207 C206 1.258 . S
O208 Cd199 2.378 . S
O208 C206 1.256 . S
O209 Cd210 2.300 . S
O209 C216 1.275 . S
Cd210 O209 2.300 . S
Cd210 O218 2.381 . S
Cd210 O219 2.378 . S
O211 Cd212 2.385 . S
O211 C216 1.255 . S
Cd212 O211 2.385 . S
Cd212 O213 2.317 . S
O213 Cd212 2.317 . S
O213 C214 1.232 . S
C214 O213 1.232 . S
C214 O215 1.218 . S
O215 C214 1.218 . S
C216 O209 1.275 . S
C216 O211 1.255 . S
C217 O218 1.258 . S
C217 O219 1.256 . S
O218 Cd210 2.381 . S
O218 C217 1.258 . S
O219 Cd210 2.378 . S
O219 C217 1.256 . S
O220 Cd221 2.300 . S
O220 C227 1.275 . S
Cd221 O220 2.300 . S
Cd221 O229 2.381 . S
Cd221 O230 2.378 . S
O222 Cd223 2.385 . S
O222 C227 1.255 . S
Cd223 O222 2.385 . S
Cd223 O224 2.317 . S
O224 Cd223 2.317 . S
O224 C225 1.232 . S
C225 O224 1.232 . S
C225 O226 1.218 . S
O226 C225 1.218 . S
C227 O220 1.275 . S
C227 O222 1.255 . S
C228 O229 1.258 . S
C228 O230 1.256 . S
O229 Cd221 2.381 . S
O229 C228 1.258 . S
O230 Cd221 2.378 . S
O230 C228 1.256 . S
O231 Cd232 2.300 . S
O231 C238 1.275 . S
Cd232 O231 2.300 . S
Cd232 O240 2.381 . S
Cd232 O241 2.378 . S
O233 Cd234 2.385 . S
O233 C238 1.255 . S
Cd234 O233 2.385 . S
Cd234 O235 2.317 . S
O235 Cd234 2.317 . S
O235 C236 1.232 . S
C236 O235 1.232 . S
C236 O237 1.218 . S
O237 C236 1.218 . S
C238 O231 1.275 . S
C238 O233 1.255 . S
C239 O240 1.258 . S
C239 O241 1.256 . S
O240 Cd232 2.381 . S
O240 C239 1.258 . S
O241 Cd232 2.378 . S
O241 C239 1.256 . S
O242 Cd243 2.300 . S
O242 C249 1.275 . S
Cd243 O242 2.300 . S
Cd243 O251 2.381 . S
Cd243 O252 2.378 . S
O244 Cd245 2.385 . S
O244 C249 1.255 . S
Cd245 O244 2.385 . S
Cd245 O246 2.317 . S
O246 Cd245 2.317 . S
O246 C247 1.232 . S
C247 O246 1.232 . S
C247 O248 1.218 . S
O248 C247 1.218 . S
C249 O242 1.275 . S
C249 O244 1.255 . S
C250 O251 1.258 . S
C250 O252 1.256 . S
O251 Cd243 2.381 . S
O251 C250 1.258 . S
O252 Cd243 2.378 . S
O252 C250 1.256 . S
O253 Cd254 2.300 . S
O253 C260 1.275 . S
Cd254 O253 2.300 . S
Cd254 O262 2.381 . S
Cd254 O263 2.378 . S
O255 Cd256 2.385 . S
O255 C260 1.255 . S
Cd256 O255 2.385 . S
Cd256 O257 2.317 . S
O257 Cd256 2.317 . S
O257 C258 1.232 . S
C258 O257 1.232 . S
C258 O259 1.218 . S
O259 C258 1.218 . S
C260 O253 1.275 . S
C260 O255 1.255 . S
C261 O262 1.258 . S
C261 O263 1.256 . S
O262 Cd254 2.381 . S
O262 C261 1.258 . S
O263 Cd254 2.378 . S
O263 C261 1.256 . S
H264 C270 0.930 . S
H265 C273 0.930 . S
H266 C274 0.930 . S
H267 C275 0.930 . S
H268 C278 0.930 . S
H269 C279 0.930 . S
C270 H264 0.930 . S
C270 C271 1.355 . S
C270 C272 1.415 . S
C271 C270 1.355 . S
C271 C273 1.419 . S
C272 C270 1.415 . S
C272 C277 1.425 . S
C272 C279 1.409 . S
C273 H265 0.930 . S
C273 C271 1.419 . S
C273 C274 1.362 . S
C274 H266 0.930 . S
C274 C273 1.362 . S
C274 C277 1.409 . S
C275 H267 0.930 . S
C275 C276 1.355 . S
C275 C277 1.415 . S
C276 C275 1.355 . S
C276 C278 1.419 . S
C277 C272 1.425 . S
C277 C274 1.409 . S
C277 C275 1.415 . S
C278 H268 0.930 . S
C278 C276 1.419 . S
C278 C279 1.362 . S
C279 H269 0.930 . S
C279 C272 1.409 . S
C279 C278 1.362 . S
H280 C286 0.930 . S
H281 C289 0.930 . S
H282 C290 0.930 . S
H283 C291 0.930 . S
H284 C294 0.930 . S
H285 C295 0.930 . S
C286 H280 0.930 . S
C286 C287 1.355 . S
C286 C288 1.415 . S
C287 C286 1.355 . S
C287 C289 1.419 . S
C288 C286 1.415 . S
C288 C293 1.425 . S
C288 C295 1.409 . S
C289 H281 0.930 . S
C289 C287 1.419 . S
C289 C290 1.362 . S
C290 H282 0.930 . S
C290 C289 1.362 . S
C290 C293 1.409 . S
C291 H283 0.930 . S
C291 C292 1.355 . S
C291 C293 1.415 . S
C292 C291 1.355 . S
C292 C294 1.419 . S
C293 C288 1.425 . S
C293 C290 1.409 . S
C293 C291 1.415 . S
C294 H284 0.930 . S
C294 C292 1.419 . S
C294 C295 1.362 . S
C295 H285 0.930 . S
C295 C288 1.409 . S
C295 C294 1.362 . S
H296 C302 0.930 . S
H297 C305 0.930 . S
H298 C306 0.930 . S
H299 C307 0.930 . S
H300 C310 0.930 . S
H301 C311 0.930 . S
C302 H296 0.930 . S
C302 C303 1.355 . S
C302 C304 1.415 . S
C303 C302 1.355 . S
C303 C305 1.419 . S
C304 C302 1.415 . S
C304 C309 1.425 . S
C304 C311 1.409 . S
C305 H297 0.930 . S
C305 C303 1.419 . S
C305 C306 1.362 . S
C306 H298 0.930 . S
C306 C305 1.362 . S
C306 C309 1.409 . S
C307 H299 0.930 . S
C307 C308 1.355 . S
C307 C309 1.415 . S
C308 C307 1.355 . S
C308 C310 1.419 . S
C309 C304 1.425 . S
C309 C306 1.409 . S
C309 C307 1.415 . S
C310 H300 0.930 . S
C310 C308 1.419 . S
C310 C311 1.362 . S
C311 H301 0.930 . S
C311 C304 1.409 . S
C311 C310 1.362 . S
H312 C318 0.930 . S
H313 C321 0.930 . S
H314 C322 0.930 . S
H315 C323 0.930 . S
H316 C326 0.930 . S
H317 C327 0.930 . S
C318 H312 0.930 . S
C318 C319 1.355 . S
C318 C320 1.415 . S
C319 C318 1.355 . S
C319 C321 1.419 . S
C320 C318 1.415 . S
C320 C325 1.425 . S
C320 C327 1.409 . S
C321 H313 0.930 . S
C321 C319 1.419 . S
C321 C322 1.362 . S
C322 H314 0.930 . S
C322 C321 1.362 . S
C322 C325 1.409 . S
C323 H315 0.930 . S
C323 C324 1.355 . S
C323 C325 1.415 . S
C324 C323 1.355 . S
C324 C326 1.419 . S
C325 C320 1.425 . S
C325 C322 1.409 . S
C325 C323 1.415 . S
C326 H316 0.930 . S
C326 C324 1.419 . S
C326 C327 1.362 . S
C327 H317 0.930 . S
C327 C320 1.409 . S
C327 C326 1.362 . S
H328 C334 0.930 . S
H329 C337 0.930 . S
H330 C338 0.930 . S
H331 C339 0.930 . S
H332 C342 0.930 . S
H333 C343 0.930 . S
C334 H328 0.930 . S
C334 C335 1.355 . S
C334 C336 1.415 . S
C335 C334 1.355 . S
C335 C337 1.419 . S
C336 C334 1.415 . S
C336 C341 1.425 . S
C336 C343 1.409 . S
C337 H329 0.930 . S
C337 C335 1.419 . S
C337 C338 1.362 . S
C338 H330 0.930 . S
C338 C337 1.362 . S
C338 C341 1.409 . S
C339 H331 0.930 . S
C339 C340 1.355 . S
C339 C341 1.415 . S
C340 C339 1.355 . S
C340 C342 1.419 . S
C341 C336 1.425 . S
C341 C338 1.409 . S
C341 C339 1.415 . S
C342 H332 0.930 . S
C342 C340 1.419 . S
C342 C343 1.362 . S
C343 H333 0.930 . S
C343 C336 1.409 . S
C343 C342 1.362 . S
H344 C350 0.930 . S
H345 C353 0.930 . S
H346 C354 0.930 . S
H347 C355 0.930 . S
H348 C358 0.930 . S
H349 C359 0.930 . S
C350 H344 0.930 . S
C350 C351 1.355 . S
C350 C352 1.415 . S
C351 C350 1.355 . S
C351 C353 1.419 . S
C352 C350 1.415 . S
C352 C357 1.425 . S
C352 C359 1.409 . S
C353 H345 0.930 . S
C353 C351 1.419 . S
C353 C354 1.362 . S
C354 H346 0.930 . S
C354 C353 1.362 . S
C354 C357 1.409 . S
C355 H347 0.930 . S
C355 C356 1.355 . S
C355 C357 1.415 . S
C356 C355 1.355 . S
C356 C358 1.419 . S
C357 C352 1.425 . S
C357 C354 1.409 . S
C357 C355 1.415 . S
C358 H348 0.930 . S
C358 C356 1.419 . S
C358 C359 1.362 . S
C359 H349 0.930 . S
C359 C352 1.409 . S
C359 C358 1.362 . S
H360 C366 0.930 . S
H361 C369 0.930 . S
H362 C370 0.930 . S
H363 C371 0.930 . S
H364 C374 0.930 . S
H365 C375 0.930 . S
C366 H360 0.930 . S
C366 C367 1.355 . S
C366 C368 1.415 . S
C367 C366 1.355 . S
C367 C369 1.419 . S
C368 C366 1.415 . S
C368 C373 1.425 . S
C368 C375 1.409 . S
C369 H361 0.930 . S
C369 C367 1.419 . S
C369 C370 1.362 . S
C370 H362 0.930 . S
C370 C369 1.362 . S
C370 C373 1.409 . S
C371 H363 0.930 . S
C371 C372 1.355 . S
C371 C373 1.415 . S
C372 C371 1.355 . S
C372 C374 1.419 . S
C373 C368 1.425 . S
C373 C370 1.409 . S
C373 C371 1.415 . S
C374 H364 0.930 . S
C374 C372 1.419 . S
C374 C375 1.362 . S
C375 H365 0.930 . S
C375 C368 1.409 . S
C375 C374 1.362 . S
H376 C382 0.930 . S
H377 C385 0.930 . S
H378 C386 0.930 . S
H379 C387 0.930 . S
H380 C390 0.930 . S
H381 C391 0.930 . S
C382 H376 0.930 . S
C382 C383 1.355 . S
C382 C384 1.415 . S
C383 C382 1.355 . S
C383 C385 1.419 . S
C384 C382 1.415 . S
C384 C389 1.425 . S
C384 C391 1.409 . S
C385 H377 0.930 . S
C385 C383 1.419 . S
C385 C386 1.362 . S
C386 H378 0.930 . S
C386 C385 1.362 . S
C386 C389 1.409 . S
C387 H379 0.930 . S
C387 C388 1.355 . S
C387 C389 1.415 . S
C388 C387 1.355 . S
C388 C390 1.419 . S
C389 C384 1.425 . S
C389 C386 1.409 . S
C389 C387 1.415 . S
C390 H380 0.930 . S
C390 C388 1.419 . S
C390 C391 1.362 . S
C391 H381 0.930 . S
C391 C384 1.409 . S
C391 C390 1.362 . S
H392 C398 0.930 . S
H393 C401 0.930 . S
H394 C402 0.930 . S
H395 C403 0.930 . S
H396 C406 0.930 . S
H397 C407 0.930 . S
C398 H392 0.930 . S
C398 C399 1.355 . S
C398 C400 1.415 . S
C399 C398 1.355 . S
C399 C401 1.419 . S
C400 C398 1.415 . S
C400 C405 1.425 . S
C400 C407 1.409 . S
C401 H393 0.930 . S
C401 C399 1.419 . S
C401 C402 1.362 . S
C402 H394 0.930 . S
C402 C401 1.362 . S
C402 C405 1.409 . S
C403 H395 0.930 . S
C403 C404 1.355 . S
C403 C405 1.415 . S
C404 C403 1.355 . S
C404 C406 1.419 . S
C405 C400 1.425 . S
C405 C402 1.409 . S
C405 C403 1.415 . S
C406 H396 0.930 . S
C406 C404 1.419 . S
C406 C407 1.362 . S
C407 H397 0.930 . S
C407 C400 1.409 . S
C407 C406 1.362 . S
H408 C414 0.930 . S
H409 C417 0.930 . S
H410 C418 0.930 . S
H411 C419 0.930 . S
H412 C422 0.930 . S
H413 C423 0.930 . S
C414 H408 0.930 . S
C414 C415 1.355 . S
C414 C416 1.415 . S
C415 C414 1.355 . S
C415 C417 1.419 . S
C416 C414 1.415 . S
C416 C421 1.425 . S
C416 C423 1.409 . S
C417 H409 0.930 . S
C417 C415 1.419 . S
C417 C418 1.362 . S
C418 H410 0.930 . S
C418 C417 1.362 . S
C418 C421 1.409 . S
C419 H411 0.930 . S
C419 C420 1.355 . S
C419 C421 1.415 . S
C420 C419 1.355 . S
C420 C422 1.419 . S
C421 C416 1.425 . S
C421 C418 1.409 . S
C421 C419 1.415 . S
C422 H412 0.930 . S
C422 C420 1.419 . S
C422 C423 1.362 . S
C423 H413 0.930 . S
C423 C416 1.409 . S
C423 C422 1.362 . S
H424 C430 0.930 . S
H425 C433 0.930 . S
H426 C434 0.930 . S
H427 C435 0.930 . S
H428 C438 0.930 . S
H429 C439 0.930 . S
C430 H424 0.930 . S
C430 C431 1.355 . S
C430 C432 1.415 . S
C431 C430 1.355 . S
C431 C433 1.419 . S
C432 C430 1.415 . S
C432 C437 1.425 . S
C432 C439 1.409 . S
C433 H425 0.930 . S
C433 C431 1.419 . S
C433 C434 1.362 . S
C434 H426 0.930 . S
C434 C433 1.362 . S
C434 C437 1.409 . S
C435 H427 0.930 . S
C435 C436 1.355 . S
C435 C437 1.415 . S
C436 C435 1.355 . S
C436 C438 1.419 . S
C437 C432 1.425 . S
C437 C434 1.409 . S
C437 C435 1.415 . S
C438 H428 0.930 . S
C438 C436 1.419 . S
C438 C439 1.362 . S
C439 H429 0.930 . S
C439 C432 1.409 . S
C439 C438 1.362 . S
H440 C446 0.930 . S
H441 C449 0.930 . S
H442 C450 0.930 . S
H443 C451 0.930 . S
H444 C454 0.930 . S
H445 C455 0.930 . S
C446 H440 0.930 . S
C446 C447 1.355 . S
C446 C448 1.415 . S
C447 C446 1.355 . S
C447 C449 1.419 . S
C448 C446 1.415 . S
C448 C453 1.425 . S
C448 C455 1.409 . S
C449 H441 0.930 . S
C449 C447 1.419 . S
C449 C450 1.362 . S
C450 H442 0.930 . S
C450 C449 1.362 . S
C450 C453 1.409 . S
C451 H443 0.930 . S
C451 C452 1.355 . S
C451 C453 1.415 . S
C452 C451 1.355 . S
C452 C454 1.419 . S
C453 C448 1.425 . S
C453 C450 1.409 . S
C453 C451 1.415 . S
C454 H444 0.930 . S
C454 C452 1.419 . S
C454 C455 1.362 . S
C455 H445 0.930 . S
C455 C448 1.409 . S
C455 C454 1.362 . S
H456 C462 0.930 . S
H457 C465 0.930 . S
H458 C466 0.930 . S
H459 C467 0.930 . S
H460 C470 0.930 . S
H461 C471 0.930 . S
C462 H456 0.930 . S
C462 C463 1.355 . S
C462 C464 1.415 . S
C463 C462 1.355 . S
C463 C465 1.419 . S
C464 C462 1.415 . S
C464 C469 1.425 . S
C464 C471 1.409 . S
C465 H457 0.930 . S
C465 C463 1.419 . S
C465 C466 1.362 . S
C466 H458 0.930 . S
C466 C465 1.362 . S
C466 C469 1.409 . S
C467 H459 0.930 . S
C467 C468 1.355 . S
C467 C469 1.415 . S
C468 C467 1.355 . S
C468 C470 1.419 . S
C469 C464 1.425 . S
C469 C466 1.409 . S
C469 C467 1.415 . S
C470 H460 0.930 . S
C470 C468 1.419 . S
C470 C471 1.362 . S
C471 H461 0.930 . S
C471 C464 1.409 . S
C471 C470 1.362 . S
H472 C478 0.930 . S
H473 C481 0.930 . S
H474 C482 0.930 . S
H475 C483 0.930 . S
H476 C486 0.930 . S
H477 C487 0.930 . S
C478 H472 0.930 . S
C478 C479 1.355 . S
C478 C480 1.415 . S
C479 C478 1.355 . S
C479 C481 1.419 . S
C480 C478 1.415 . S
C480 C485 1.425 . S
C480 C487 1.409 . S
C481 H473 0.930 . S
C481 C479 1.419 . S
C481 C482 1.362 . S
C482 H474 0.930 . S
C482 C481 1.362 . S
C482 C485 1.409 . S
C483 H475 0.930 . S
C483 C484 1.355 . S
C483 C485 1.415 . S
C484 C483 1.355 . S
C484 C486 1.419 . S
C485 C480 1.425 . S
C485 C482 1.409 . S
C485 C483 1.415 . S
C486 H476 0.930 . S
C486 C484 1.419 . S
C486 C487 1.362 . S
C487 H477 0.930 . S
C487 C480 1.409 . S
C487 C486 1.362 . S
H488 C494 0.930 . S
H489 C497 0.930 . S
H490 C498 0.930 . S
H491 C499 0.930 . S
H492 C502 0.930 . S
H493 C503 0.930 . S
C494 H488 0.930 . S
C494 C495 1.355 . S
C494 C496 1.415 . S
C495 C494 1.355 . S
C495 C497 1.419 . S
C496 C494 1.415 . S
C496 C501 1.425 . S
C496 C503 1.409 . S
C497 H489 0.930 . S
C497 C495 1.419 . S
C497 C498 1.362 . S
C498 H490 0.930 . S
C498 C497 1.362 . S
C498 C501 1.409 . S
C499 H491 0.930 . S
C499 C500 1.355 . S
C499 C501 1.415 . S
C500 C499 1.355 . S
C500 C502 1.419 . S
C501 C496 1.425 . S
C501 C498 1.409 . S
C501 C499 1.415 . S
C502 H492 0.930 . S
C502 C500 1.419 . S
C502 C503 1.362 . S
C503 H493 0.930 . S
C503 C496 1.409 . S
C503 C502 1.362 . S
H504 C510 0.930 . S
H505 C513 0.930 . S
H506 C514 0.930 . S
H507 C515 0.930 . S
H508 C518 0.930 . S
H509 C519 0.930 . S
C510 H504 0.930 . S
C510 C511 1.355 . S
C510 C512 1.415 . S
C511 C510 1.355 . S
C511 C513 1.419 . S
C512 C510 1.415 . S
C512 C517 1.425 . S
C512 C519 1.409 . S
C513 H505 0.930 . S
C513 C511 1.419 . S
C513 C514 1.362 . S
C514 H506 0.930 . S
C514 C513 1.362 . S
C514 C517 1.409 . S
C515 H507 0.930 . S
C515 C516 1.355 . S
C515 C517 1.415 . S
C516 C515 1.355 . S
C516 C518 1.419 . S
C517 C512 1.425 . S
C517 C514 1.409 . S
C517 C515 1.415 . S
C518 H508 0.930 . S
C518 C516 1.419 . S
C518 C519 1.362 . S
C519 H509 0.930 . S
C519 C512 1.409 . S
C519 C518 1.362 . S
H520 C526 0.930 . S
H521 C529 0.930 . S
H522 C530 0.930 . S
H523 C531 0.930 . S
H524 C534 0.930 . S
H525 C535 0.930 . S
C526 H520 0.930 . S
C526 C527 1.355 . S
C526 C528 1.415 . S
C527 C526 1.355 . S
C527 C529 1.419 . S
C528 C526 1.415 . S
C528 C533 1.425 . S
C528 C535 1.409 . S
C529 H521 0.930 . S
C529 C527 1.419 . S
C529 C530 1.362 . S
C530 H522 0.930 . S
C530 C529 1.362 . S
C530 C533 1.409 . S
C531 H523 0.930 . S
C531 C532 1.355 . S
C531 C533 1.415 . S
C532 C531 1.355 . S
C532 C534 1.419 . S
C533 C528 1.425 . S
C533 C530 1.409 . S
C533 C531 1.415 . S
C534 H524 0.930 . S
C534 C532 1.419 . S
C534 C535 1.362 . S
C535 H525 0.930 . S
C535 C528 1.409 . S
C535 C534 1.362 . S
H536 C542 0.930 . S
H537 C545 0.930 . S
H538 C546 0.930 . S
H539 C547 0.930 . S
H540 C550 0.930 . S
H541 C551 0.930 . S
C542 H536 0.930 . S
C542 C543 1.355 . S
C542 C544 1.415 . S
C543 C542 1.355 . S
C543 C545 1.419 . S
C544 C542 1.415 . S
C544 C549 1.425 . S
C544 C551 1.409 . S
C545 H537 0.930 . S
C545 C543 1.419 . S
C545 C546 1.362 . S
C546 H538 0.930 . S
C546 C545 1.362 . S
C546 C549 1.409 . S
C547 H539 0.930 . S
C547 C548 1.355 . S
C547 C549 1.415 . S
C548 C547 1.355 . S
C548 C550 1.419 . S
C549 C544 1.425 . S
C549 C546 1.409 . S
C549 C547 1.415 . S
C550 H540 0.930 . S
C550 C548 1.419 . S
C550 C551 1.362 . S
C551 H541 0.930 . S
C551 C544 1.409 . S
C551 C550 1.362 . S
H552 C558 0.930 . S
H553 C561 0.930 . S
H554 C562 0.930 . S
H555 C563 0.930 . S
H556 C566 0.930 . S
H557 C567 0.930 . S
C558 H552 0.930 . S
C558 C559 1.355 . S
C558 C560 1.415 . S
C559 C558 1.355 . S
C559 C561 1.419 . S
C560 C558 1.415 . S
C560 C565 1.425 . S
C560 C567 1.409 . S
C561 H553 0.930 . S
C561 C559 1.419 . S
C561 C562 1.362 . S
C562 H554 0.930 . S
C562 C561 1.362 . S
C562 C565 1.409 . S
C563 H555 0.930 . S
C563 C564 1.355 . S
C563 C565 1.415 . S
C564 C563 1.355 . S
C564 C566 1.419 . S
C565 C560 1.425 . S
C565 C562 1.409 . S
C565 C563 1.415 . S
C566 H556 0.930 . S
C566 C564 1.419 . S
C566 C567 1.362 . S
C567 H557 0.930 . S
C567 C560 1.409 . S
C567 C566 1.362 . S
H568 C574 0.930 . S
H569 C577 0.930 . S
H570 C578 0.930 . S
H571 C579 0.930 . S
H572 C582 0.930 . S
H573 C583 0.930 . S
C574 H568 0.930 . S
C574 C575 1.355 . S
C574 C576 1.415 . S
C575 C574 1.355 . S
C575 C577 1.419 . S
C576 C574 1.415 . S
C576 C581 1.425 . S
C576 C583 1.409 . S
C577 H569 0.930 . S
C577 C575 1.419 . S
C577 C578 1.362 . S
C578 H570 0.930 . S
C578 C577 1.362 . S
C578 C581 1.409 . S
C579 H571 0.930 . S
C579 C580 1.355 . S
C579 C581 1.415 . S
C580 C579 1.355 . S
C580 C582 1.419 . S
C581 C576 1.425 . S
C581 C578 1.409 . S
C581 C579 1.415 . S
C582 H572 0.930 . S
C582 C580 1.419 . S
C582 C583 1.362 . S
C583 H573 0.930 . S
C583 C576 1.409 . S
C583 C582 1.362 . S
H584 C590 0.930 . S
H585 C593 0.930 . S
H586 C594 0.930 . S
H587 C595 0.930 . S
H588 C598 0.930 . S
H589 C599 0.930 . S
C590 H584 0.930 . S
C590 C591 1.355 . S
C590 C592 1.415 . S
C591 C590 1.355 . S
C591 C593 1.419 . S
C592 C590 1.415 . S
C592 C597 1.425 . S
C592 C599 1.409 . S
C593 H585 0.930 . S
C593 C591 1.419 . S
C593 C594 1.362 . S
C594 H586 0.930 . S
C594 C593 1.362 . S
C594 C597 1.409 . S
C595 H587 0.930 . S
C595 C596 1.355 . S
C595 C597 1.415 . S
C596 C595 1.355 . S
C596 C598 1.419 . S
C597 C592 1.425 . S
C597 C594 1.409 . S
C597 C595 1.415 . S
C598 H588 0.930 . S
C598 C596 1.419 . S
C598 C599 1.362 . S
C599 H589 0.930 . S
C599 C592 1.409 . S
C599 C598 1.362 . S
H600 C606 0.930 . S
H601 C609 0.930 . S
H602 C610 0.930 . S
H603 C611 0.930 . S
H604 C614 0.930 . S
H605 C615 0.930 . S
C606 H600 0.930 . S
C606 C607 1.355 . S
C606 C608 1.415 . S
C607 C606 1.355 . S
C607 C609 1.419 . S
C608 C606 1.415 . S
C608 C613 1.425 . S
C608 C615 1.409 . S
C609 H601 0.930 . S
C609 C607 1.419 . S
C609 C610 1.362 . S
C610 H602 0.930 . S
C610 C609 1.362 . S
C610 C613 1.409 . S
C611 H603 0.930 . S
C611 C612 1.355 . S
C611 C613 1.415 . S
C612 C611 1.355 . S
C612 C614 1.419 . S
C613 C608 1.425 . S
C613 C610 1.409 . S
C613 C611 1.415 . S
C614 H604 0.930 . S
C614 C612 1.419 . S
C614 C615 1.362 . S
C615 H605 0.930 . S
C615 C608 1.409 . S
C615 C614 1.362 . S
H616 C622 0.930 . S
H617 C625 0.930 . S
H618 C626 0.930 . S
H619 C627 0.930 . S
H620 C630 0.930 . S
H621 C631 0.930 . S
C622 H616 0.930 . S
C622 C623 1.355 . S
C622 C624 1.415 . S
C623 C622 1.355 . S
C623 C625 1.419 . S
C624 C622 1.415 . S
C624 C629 1.425 . S
C624 C631 1.409 . S
C625 H617 0.930 . S
C625 C623 1.419 . S
C625 C626 1.362 . S
C626 H618 0.930 . S
C626 C625 1.362 . S
C626 C629 1.409 . S
C627 H619 0.930 . S
C627 C628 1.355 . S
C627 C629 1.415 . S
C628 C627 1.355 . S
C628 C630 1.419 . S
C629 C624 1.425 . S
C629 C626 1.409 . S
C629 C627 1.415 . S
C630 H620 0.930 . S
C630 C628 1.419 . S
C630 C631 1.362 . S
C631 H621 0.930 . S
C631 C624 1.409 . S
C631 C630 1.362 . S
H632 C638 0.930 . S
H633 C641 0.930 . S
H634 C642 0.930 . S
H635 C643 0.930 . S
H636 C646 0.930 . S
H637 C647 0.930 . S
C638 H632 0.930 . S
C638 C639 1.355 . S
C638 C640 1.415 . S
C639 C638 1.355 . S
C639 C641 1.419 . S
C640 C638 1.415 . S
C640 C645 1.425 . S
C640 C647 1.409 . S
C641 H633 0.930 . S
C641 C639 1.419 . S
C641 C642 1.362 . S
C642 H634 0.930 . S
C642 C641 1.362 . S
C642 C645 1.409 . S
C643 H635 0.930 . S
C643 C644 1.355 . S
C643 C645 1.415 . S
C644 C643 1.355 . S
C644 C646 1.419 . S
C645 C640 1.425 . S
C645 C642 1.409 . S
C645 C643 1.415 . S
C646 H636 0.930 . S
C646 C644 1.419 . S
C646 C647 1.362 . S
C647 H637 0.930 . S
C647 C640 1.409 . S
C647 C646 1.362 . S
H648 C654 0.930 . S
H649 C657 0.930 . S
H650 C658 0.930 . S
H651 C659 0.930 . S
H652 C662 0.930 . S
H653 C663 0.930 . S
C654 H648 0.930 . S
C654 C655 1.355 . S
C654 C656 1.415 . S
C655 C654 1.355 . S
C655 C657 1.419 . S
C656 C654 1.415 . S
C656 C661 1.425 . S
C656 C663 1.409 . S
C657 H649 0.930 . S
C657 C655 1.419 . S
C657 C658 1.362 . S
C658 H650 0.930 . S
C658 C657 1.362 . S
C658 C661 1.409 . S
C659 H651 0.930 . S
C659 C660 1.355 . S
C659 C661 1.414 1_655 S
C660 C659 1.355 . S
C660 C662 1.419 . S
C661 C656 1.425 . S
C661 C658 1.409 . S
C661 C659 1.414 1_455 S
C662 H652 0.930 . S
C662 C660 1.419 . S
C662 C663 1.362 1_655 S
C663 H653 0.930 . S
C663 C656 1.409 . S
C663 C662 1.362 1_455 S
H664 C670 0.930 . S
H665 C673 0.930 . S
H666 C674 0.930 . S
H667 C675 0.930 . S
H668 C678 0.930 . S
H669 C679 0.930 1_655 S
C670 H664 0.930 . S
C670 C671 1.355 . S
C670 C672 1.415 . S
C671 C670 1.355 . S
C671 C673 1.419 . S
C672 C670 1.415 . S
C672 C677 1.425 . S
C672 C679 1.409 . S
C673 H665 0.930 . S
C673 C671 1.419 . S
C673 C674 1.362 . S
C674 H666 0.930 . S
C674 C673 1.362 . S
C674 C677 1.409 . S
C675 H667 0.930 . S
C675 C676 1.355 . S
C675 C677 1.415 . S
C676 C675 1.355 . S
C676 C678 1.419 1_455 S
C677 C672 1.425 . S
C677 C674 1.409 . S
C677 C675 1.415 . S
C678 H668 0.930 . S
C678 C676 1.419 1_655 S
C678 C679 1.362 1_655 S
C679 H669 0.930 1_455 S
C679 C672 1.409 . S
C679 C678 1.362 1_455 S
H680 C686 0.930 . S
H681 C689 0.930 . S
H682 C690 0.930 . S
H683 C691 0.930 . S
H684 C694 0.930 . S
H685 C695 0.930 . S
C686 H680 0.930 . S
C686 C687 1.355 . S
C686 C688 1.415 . S
C687 C686 1.355 . S
C687 C689 1.419 . S
C688 C686 1.415 . S
C688 C693 1.425 . S
C688 C695 1.409 . S
C689 H681 0.930 . S
C689 C687 1.419 . S
C689 C690 1.362 . S
C690 H682 0.930 . S
C690 C689 1.362 . S
C690 C693 1.409 . S
C691 H683 0.930 . S
C691 C692 1.355 . S
C691 C693 1.415 . S
C692 C691 1.355 . S
C692 C694 1.419 . S
C693 C688 1.425 . S
C693 C690 1.409 . S
C693 C691 1.415 . S
C694 H684 0.930 . S
C694 C692 1.419 . S
C694 C695 1.362 . S
C695 H685 0.930 . S
C695 C688 1.409 . S
C695 C694 1.362 . S
H696 C702 0.930 . S
H697 C705 0.930 . S
H698 C706 0.930 . S
H699 C707 0.930 . S
H700 C710 0.930 . S
H701 C711 0.930 . S
C702 H696 0.930 . S
C702 C703 1.355 . S
C702 C704 1.415 . S
C703 C702 1.355 . S
C703 C705 1.419 . S
C704 C702 1.415 . S
C704 C709 1.425 . S
C704 C711 1.409 . S
C705 H697 0.930 . S
C705 C703 1.419 . S
C705 C706 1.362 . S
C706 H698 0.930 . S
C706 C705 1.362 . S
C706 C709 1.409 . S
C707 H699 0.930 . S
C707 C708 1.355 . S
C707 C709 1.415 . S
C708 C707 1.355 . S
C708 C710 1.419 . S
C709 C704 1.425 . S
C709 C706 1.409 . S
C709 C707 1.415 . S
C710 H700 0.930 . S
C710 C708 1.419 . S
C710 C711 1.362 . S
C711 H701 0.930 . S
C711 C704 1.409 . S
C711 C710 1.362 . S
H712 C718 0.930 . S
H713 C721 0.930 . S
H714 C722 0.930 . S
H715 C723 0.930 . S
H716 C726 0.930 . S
H717 C727 0.930 . S
C718 H712 0.930 . S
C718 C719 1.355 . S
C718 C720 1.415 . S
C719 C718 1.355 . S
C719 C721 1.419 . S
C720 C718 1.415 . S
C720 C725 1.425 . S
C720 C727 1.409 . S
C721 H713 0.930 . S
C721 C719 1.419 . S
C721 C722 1.362 . S
C722 H714 0.930 . S
C722 C721 1.362 . S
C722 C725 1.409 . S
C723 H715 0.930 . S
C723 C724 1.355 . S
C723 C725 1.415 . S
C724 C723 1.355 . S
C724 C726 1.419 . S
C725 C720 1.425 . S
C725 C722 1.409 . S
C725 C723 1.415 . S
C726 H716 0.930 . S
C726 C724 1.419 . S
C726 C727 1.362 . S
C727 H717 0.930 . S
C727 C720 1.409 . S
C727 C726 1.362 . S
H728 C734 0.930 . S
H729 C737 0.930 . S
H730 C738 0.930 . S
H731 C739 0.930 . S
H732 C742 0.930 . S
H733 C743 0.930 . S
C734 H728 0.930 . S
C734 C735 1.355 . S
C734 C736 1.415 . S
C735 C734 1.355 . S
C735 C737 1.419 . S
C736 C734 1.415 . S
C736 C741 1.425 . S
C736 C743 1.409 . S
C737 H729 0.930 . S
C737 C735 1.419 . S
C737 C738 1.362 . S
C738 H730 0.930 . S
C738 C737 1.362 . S
C738 C741 1.409 . S
C739 H731 0.930 . S
C739 C740 1.355 . S
C739 C741 1.415 . S
C740 C739 1.355 . S
C740 C742 1.419 . S
C741 C736 1.425 . S
C741 C738 1.409 . S
C741 C739 1.415 . S
C742 H732 0.930 . S
C742 C740 1.419 . S
C742 C743 1.362 . S
C743 H733 0.930 . S
C743 C736 1.409 . S
C743 C742 1.362 . S
H744 C750 0.930 . S
H745 C753 0.930 . S
H746 C754 0.930 . S
H747 C755 0.930 . S
H748 C758 0.930 . S
H749 C759 0.930 . S
C750 H744 0.930 . S
C750 C751 1.355 . S
C750 C752 1.415 . S
C751 C750 1.355 . S
C751 C753 1.419 . S
C752 C750 1.415 . S
C752 C757 1.425 . S
C752 C759 1.409 . S
C753 H745 0.930 . S
C753 C751 1.419 . S
C753 C754 1.362 . S
C754 H746 0.930 . S
C754 C753 1.362 . S
C754 C757 1.409 . S
C755 H747 0.930 . S
C755 C756 1.355 . S
C755 C757 1.415 . S
C756 C755 1.355 . S
C756 C758 1.419 . S
C757 C752 1.425 . S
C757 C754 1.409 . S
C757 C755 1.415 . S
C758 H748 0.930 . S
C758 C756 1.419 . S
C758 C759 1.362 . S
C759 H749 0.930 . S
C759 C752 1.409 . S
C759 C758 1.362 . S
H760 C766 0.930 . S
H761 C769 0.930 . S
H762 C770 0.930 . S
H763 C771 0.930 . S
H764 C774 0.930 1_556 S
H765 C775 0.930 . S
C766 H760 0.930 . S
C766 C767 1.355 . S
C766 C768 1.415 . S
C767 C766 1.355 . S
C767 C769 1.419 . S
C768 C766 1.415 . S
C768 C773 1.425 . S
C768 C775 1.409 . S
C769 H761 0.930 . S
C769 C767 1.419 . S
C769 C770 1.362 . S
C770 H762 0.930 . S
C770 C769 1.362 . S
C770 C773 1.409 . S
C771 H763 0.930 . S
C771 C772 1.355 . S
C771 C773 1.415 . S
C772 C771 1.355 . S
C772 C774 1.419 . S
C773 C768 1.425 . S
C773 C770 1.409 . S
C773 C771 1.415 . S
C774 H764 0.930 1_554 S
C774 C772 1.419 . S
C774 C775 1.362 . S
C775 H765 0.930 . S
C775 C768 1.409 . S
C775 C774 1.362 . S
H776 C782 0.930 . S
H777 C785 0.930 . S
H778 C786 0.930 . S
H779 C787 0.930 . S
H780 C790 0.930 . S
H781 C791 0.930 . S
C782 H776 0.930 . S
C782 C783 1.355 . S
C782 C784 1.415 . S
C783 C782 1.355 . S
C783 C785 1.419 1_556 S
C784 C782 1.415 . S
C784 C789 1.425 1_556 S
C784 C791 1.409 . S
C785 H777 0.930 . S
C785 C783 1.419 1_554 S
C785 C786 1.362 . S
C786 H778 0.930 . S
C786 C785 1.362 . S
C786 C789 1.409 . S
C787 H779 0.930 . S
C787 C788 1.355 . S
C787 C789 1.415 . S
C788 C787 1.355 . S
C788 C790 1.419 1_554 S
C789 C784 1.425 1_554 S
C789 C786 1.409 . S
C789 C787 1.415 . S
C790 H780 0.930 . S
C790 C788 1.419 1_556 S
C790 C791 1.362 . S
C791 H781 0.930 . S
C791 C784 1.409 . S
C791 C790 1.362 . S
H792 C798 0.930 . S
H793 C801 0.930 . S
H794 C802 0.930 . S
H795 C803 0.930 . S
H796 C806 0.930 . S
H797 C807 0.930 . S
C798 H792 0.930 . S
C798 C799 1.355 . S
C798 C800 1.415 . S
C799 C798 1.355 . S
C799 C801 1.419 . S
C800 C798 1.415 . S
C800 C805 1.425 . S
C800 C807 1.409 . S
C801 H793 0.930 . S
C801 C799 1.419 . S
C801 C802 1.362 . S
C802 H794 0.930 . S
C802 C801 1.362 . S
C802 C805 1.409 . S
C803 H795 0.930 . S
C803 C804 1.355 . S
C803 C805 1.415 . S
C804 C803 1.355 . S
C804 C806 1.419 . S
C805 C800 1.425 . S
C805 C802 1.409 . S
C805 C803 1.415 . S
C806 H796 0.930 . S
C806 C804 1.419 . S
C806 C807 1.362 . S
C807 H797 0.930 . S
C807 C800 1.409 . S
C807 C806 1.362 . S
H808 C814 0.930 . S
H809 C817 0.930 . S
H810 C818 0.930 . S
H811 C819 0.930 . S
H812 C822 0.930 . S
H813 C823 0.930 . S
C814 H808 0.930 . S
C814 C815 1.355 . S
C814 C816 1.415 . S
C815 C814 1.355 . S
C815 C817 1.419 . S
C816 C814 1.415 . S
C816 C821 1.425 . S
C816 C823 1.409 . S
C817 H809 0.930 . S
C817 C815 1.419 . S
C817 C818 1.362 . S
C818 H810 0.930 . S
C818 C817 1.362 . S
C818 C821 1.409 . S
C819 H811 0.930 . S
C819 C820 1.355 . S
C819 C821 1.415 . S
C820 C819 1.355 . S
C820 C822 1.419 . S
C821 C816 1.425 . S
C821 C818 1.409 . S
C821 C819 1.415 . S
C822 H812 0.930 . S
C822 C820 1.419 . S
C822 C823 1.362 . S
C823 H813 0.930 . S
C823 C816 1.409 . S
C823 C822 1.362 . S
H824 C830 0.930 . S
H825 C833 0.930 . S
H826 C834 0.930 . S
H827 C835 0.930 . S
H828 C838 0.930 . S
H829 C839 0.930 . S
C830 H824 0.930 . S
C830 C831 1.355 . S
C830 C832 1.415 . S
C831 C830 1.355 . S
C831 C833 1.419 . S
C832 C830 1.415 . S
C832 C837 1.425 . S
C832 C839 1.409 . S
C833 H825 0.930 . S
C833 C831 1.419 . S
C833 C834 1.362 . S
C834 H826 0.930 . S
C834 C833 1.362 . S
C834 C837 1.409 . S
C835 H827 0.930 . S
C835 C836 1.355 . S
C835 C837 1.415 . S
C836 C835 1.355 . S
C836 C838 1.419 . S
C837 C832 1.425 . S
C837 C834 1.409 . S
C837 C835 1.415 . S
C838 H828 0.930 . S
C838 C836 1.419 . S
C838 C839 1.362 . S
C839 H829 0.930 . S
C839 C832 1.409 . S
C839 C838 1.362 . S
C271 C49 0.866 . S
C276 C5 0.950 . S
C287 C60 1.282 . S
C292 C18 1.166 . S
C303 C29 1.244 . S
C308 C73 1.307 . S
C319 C38 1.245 . S
C324 C84 1.269 . S
C335 C16 1.078 . S
C340 C93 1.206 . S
C351 C104 1.099 . S
C356 C27 0.927 . S
C367 C40 1.330 . S
C372 C117 1.242 . S
C383 C126 0.899 . S
C388 C7 1.276 . S
C399 C51 1.303 . S
C404 C128 1.298 . S
C415 C95 1.403 . S
C420 C62 1.393 . S
C431 C71 1.058 . S
C436 C106 1.259 . S
C447 C82 0.976 . S
C452 C115 1.075 . S
C463 C137 1.301 . S
C468 C205 1.265 . S
C479 C216 1.268 . S
C484 C150 1.292 . S
C495 C225 1.016 . S
C500 C161 1.146 . S
C511 C172 1.256 . S
C516 C227 1.181 . S
C527 C181 1.074 . S
C532 C203 1.020 . S
C543 C236 1.096 . S
C548 C192 0.974 . S
C559 C214 0.973 . S
C564 C247 1.216 . S
C575 C194 1.210 . S
C580 C258 1.040 . S
C591 C238 1.365 . S
C596 C260 1.280 . S
C607 C139 1.383 . S
C612 C183 1.366 . S
C623 C249 1.302 . S
C628 C148 0.867 . S
C639 C170 1.118 . S
C644 C159 0.953 . S
C655 C8 1.572 . S
C660 C217 1.605 . S
C671 C19 1.493 . S
C676 C228 1.502 1_455 S
C687 C195 1.628 . S
C692 C30 1.612 . S
C703 C41 1.700 . S
C708 C206 1.625 . S
C719 C96 1.663 . S
C724 C52 1.638 . S
C735 C63 1.701 . S
C740 C107 1.682 . S
C751 C118 1.570 . S
C756 C74 1.641 . S
C767 C129 1.630 . S
C772 C85 1.569 1_554 S
C783 C140 1.716 . S
C788 C250 1.718 . S
C799 C151 1.479 . S
C804 C173 1.527 . S
C815 C261 1.529 . S
C820 C162 1.575 . S
C831 C239 1.665 . S
C836 C184 1.676 . S
