# Generated by pormake.
# Topology yfr, (5)-cn, num edge types: 1
# Building blocks:
#     Node 0, Type 0, BuildingBlock: XOMCOT_clean_sbu_1, # of connection points: 5
#     Node 1, Type 0, BuildingBlock: XOMCOT_clean_sbu_1, # of connection points: 5
#     Node 2, Type 0, BuildingBlock: XOMCOT_clean_sbu_1, # of connection points: 5
#     Node 3, Type 0, BuildingBlock: XOMCOT_clean_sbu_1, # of connection points: 5
#     Node 4, Type 0, BuildingBlock: XOMCOT_clean_sbu_1, # of connection points: 5
#     Node 5, Type 0, BuildingBlock: XOMCOT_clean_sbu_1, # of connection points: 5
#     Node 6, Type 0, BuildingBlock: XOMCOT_clean_sbu_1, # of connection points: 5
#     Node 7, Type 0, BuildingBlock: XOMCOT_clean_sbu_1, # of connection points: 5
#     Node 8, Type 0, BuildingBlock: XOMCOT_clean_sbu_1, # of connection points: 5
#     Node 9, Type 0, BuildingBlock: XOMCOT_clean_sbu_1, # of connection points: 5
#     Node 10, Type 0, BuildingBlock: XOMCOT_clean_sbu_1, # of connection points: 5
#     Node 11, Type 0, BuildingBlock: XOMCOT_clean_sbu_1, # of connection points: 5
#     Node 12, Type 0, BuildingBlock: XOMCOT_clean_sbu_1, # of connection points: 5
#     Node 13, Type 0, BuildingBlock: XOMCOT_clean_sbu_1, # of connection points: 5
#     Node 14, Type 0, BuildingBlock: XOMCOT_clean_sbu_1, # of connection points: 5
#     Node 15, Type 0, BuildingBlock: XOMCOT_clean_sbu_1, # of connection points: 5
#     Node 16, Type 0, BuildingBlock: XOMCOT_clean_sbu_1, # of connection points: 5
#     Node 17, Type 0, BuildingBlock: XOMCOT_clean_sbu_1, # of connection points: 5
#     Node 18, Type 0, BuildingBlock: XOMCOT_clean_sbu_1, # of connection points: 5
#     Node 19, Type 0, BuildingBlock: XOMCOT_clean_sbu_1, # of connection points: 5
#     Node 20, Type 0, BuildingBlock: XOMCOT_clean_sbu_1, # of connection points: 5
#     Node 21, Type 0, BuildingBlock: XOMCOT_clean_sbu_1, # of connection points: 5
#     Node 22, Type 0, BuildingBlock: XOMCOT_clean_sbu_1, # of connection points: 5
#     Node 23, Type 0, BuildingBlock: XOMCOT_clean_sbu_1, # of connection points: 5
#     Node 24, Type 0, BuildingBlock: XOMCOT_clean_sbu_1, # of connection points: 5
#     Node 25, Type 0, BuildingBlock: XOMCOT_clean_sbu_1, # of connection points: 5
#     Node 26, Type 0, BuildingBlock: XOMCOT_clean_sbu_1, # of connection points: 5
#     Node 27, Type 0, BuildingBlock: XOMCOT_clean_sbu_1, # of connection points: 5
#     Node 28, Type 0, BuildingBlock: XOMCOT_clean_sbu_1, # of connection points: 5
#     Node 29, Type 0, BuildingBlock: XOMCOT_clean_sbu_1, # of connection points: 5
#     Node 30, Type 0, BuildingBlock: XOMCOT_clean_sbu_1, # of connection points: 5
#     Node 31, Type 0, BuildingBlock: XOMCOT_clean_sbu_1, # of connection points: 5
#     Edge 32, Type (0, 0), BuildingBlock: UVAHIK_clean_linker_0, # of connection points: 2
#     Edge 33, Type (0, 0), BuildingBlock: UVAHIK_clean_linker_0, # of connection points: 2
#     Edge 34, Type (0, 0), BuildingBlock: UVAHIK_clean_linker_0, # of connection points: 2
#     Edge 35, Type (0, 0), BuildingBlock: UVAHIK_clean_linker_0, # of connection points: 2
#     Edge 36, Type (0, 0), BuildingBlock: UVAHIK_clean_linker_0, # of connection points: 2
#     Edge 37, Type (0, 0), BuildingBlock: UVAHIK_clean_linker_0, # of connection points: 2
#     Edge 38, Type (0, 0), BuildingBlock: UVAHIK_clean_linker_0, # of connection points: 2
#     Edge 39, Type (0, 0), BuildingBlock: UVAHIK_clean_linker_0, # of connection points: 2
#     Edge 40, Type (0, 0), BuildingBlock: UVAHIK_clean_linker_0, # of connection points: 2
#     Edge 41, Type (0, 0), BuildingBlock: UVAHIK_clean_linker_0, # of connection points: 2
#     Edge 42, Type (0, 0), BuildingBlock: UVAHIK_clean_linker_0, # of connection points: 2
#     Edge 43, Type (0, 0), BuildingBlock: UVAHIK_clean_linker_0, # of connection points: 2
#     Edge 44, Type (0, 0), BuildingBlock: UVAHIK_clean_linker_0, # of connection points: 2
#     Edge 45, Type (0, 0), BuildingBlock: UVAHIK_clean_linker_0, # of connection points: 2
#     Edge 46, Type (0, 0), BuildingBlock: UVAHIK_clean_linker_0, # of connection points: 2
#     Edge 47, Type (0, 0), BuildingBlock: UVAHIK_clean_linker_0, # of connection points: 2
#     Edge 48, Type (0, 0), BuildingBlock: UVAHIK_clean_linker_0, # of connection points: 2
#     Edge 49, Type (0, 0), BuildingBlock: UVAHIK_clean_linker_0, # of connection points: 2
#     Edge 50, Type (0, 0), BuildingBlock: UVAHIK_clean_linker_0, # of connection points: 2
#     Edge 51, Type (0, 0), BuildingBlock: UVAHIK_clean_linker_0, # of connection points: 2
#     Edge 52, Type (0, 0), BuildingBlock: UVAHIK_clean_linker_0, # of connection points: 2
#     Edge 53, Type (0, 0), BuildingBlock: UVAHIK_clean_linker_0, # of connection points: 2
#     Edge 54, Type (0, 0), BuildingBlock: UVAHIK_clean_linker_0, # of connection points: 2
#     Edge 55, Type (0, 0), BuildingBlock: UVAHIK_clean_linker_0, # of connection points: 2
#     Edge 56, Type (0, 0), BuildingBlock: UVAHIK_clean_linker_0, # of connection points: 2
#     Edge 57, Type (0, 0), BuildingBlock: UVAHIK_clean_linker_0, # of connection points: 2
#     Edge 58, Type (0, 0), BuildingBlock: UVAHIK_clean_linker_0, # of connection points: 2
#     Edge 59, Type (0, 0), BuildingBlock: UVAHIK_clean_linker_0, # of connection points: 2
#     Edge 60, Type (0, 0), BuildingBlock: UVAHIK_clean_linker_0, # of connection points: 2
#     Edge 61, Type (0, 0), BuildingBlock: UVAHIK_clean_linker_0, # of connection points: 2
#     Edge 62, Type (0, 0), BuildingBlock: UVAHIK_clean_linker_0, # of connection points: 2
#     Edge 63, Type (0, 0), BuildingBlock: UVAHIK_clean_linker_0, # of connection points: 2
#     Edge 64, Type (0, 0), BuildingBlock: UVAHIK_clean_linker_0, # of connection points: 2
#     Edge 65, Type (0, 0), BuildingBlock: UVAHIK_clean_linker_0, # of connection points: 2
#     Edge 66, Type (0, 0), BuildingBlock: UVAHIK_clean_linker_0, # of connection points: 2
#     Edge 67, Type (0, 0), BuildingBlock: UVAHIK_clean_linker_0, # of connection points: 2
#     Edge 68, Type (0, 0), BuildingBlock: UVAHIK_clean_linker_0, # of connection points: 2
#     Edge 69, Type (0, 0), BuildingBlock: UVAHIK_clean_linker_0, # of connection points: 2
#     Edge 70, Type (0, 0), BuildingBlock: UVAHIK_clean_linker_0, # of connection points: 2
#     Edge 71, Type (0, 0), BuildingBlock: UVAHIK_clean_linker_0, # of connection points: 2
#     Edge 72, Type (0, 0), BuildingBlock: UVAHIK_clean_linker_0, # of connection points: 2
#     Edge 73, Type (0, 0), BuildingBlock: UVAHIK_clean_linker_0, # of connection points: 2
#     Edge 74, Type (0, 0), BuildingBlock: UVAHIK_clean_linker_0, # of connection points: 2
#     Edge 75, Type (0, 0), BuildingBlock: UVAHIK_clean_linker_0, # of connection points: 2
#     Edge 76, Type (0, 0), BuildingBlock: UVAHIK_clean_linker_0, # of connection points: 2
#     Edge 77, Type (0, 0), BuildingBlock: UVAHIK_clean_linker_0, # of connection points: 2
#     Edge 78, Type (0, 0), BuildingBlock: UVAHIK_clean_linker_0, # of connection points: 2
#     Edge 79, Type (0, 0), BuildingBlock: UVAHIK_clean_linker_0, # of connection points: 2
#     Edge 80, Type (0, 0), BuildingBlock: UVAHIK_clean_linker_0, # of connection points: 2
#     Edge 81, Type (0, 0), BuildingBlock: UVAHIK_clean_linker_0, # of connection points: 2
#     Edge 82, Type (0, 0), BuildingBlock: UVAHIK_clean_linker_0, # of connection points: 2
#     Edge 83, Type (0, 0), BuildingBlock: UVAHIK_clean_linker_0, # of connection points: 2
#     Edge 84, Type (0, 0), BuildingBlock: UVAHIK_clean_linker_0, # of connection points: 2
#     Edge 85, Type (0, 0), BuildingBlock: UVAHIK_clean_linker_0, # of connection points: 2
#     Edge 86, Type (0, 0), BuildingBlock: UVAHIK_clean_linker_0, # of connection points: 2
#     Edge 87, Type (0, 0), BuildingBlock: UVAHIK_clean_linker_0, # of connection points: 2
#     Edge 88, Type (0, 0), BuildingBlock: UVAHIK_clean_linker_0, # of connection points: 2
#     Edge 89, Type (0, 0), BuildingBlock: UVAHIK_clean_linker_0, # of connection points: 2
#     Edge 90, Type (0, 0), BuildingBlock: UVAHIK_clean_linker_0, # of connection points: 2
#     Edge 91, Type (0, 0), BuildingBlock: UVAHIK_clean_linker_0, # of connection points: 2
#     Edge 92, Type (0, 0), BuildingBlock: UVAHIK_clean_linker_0, # of connection points: 2
#     Edge 93, Type (0, 0), BuildingBlock: UVAHIK_clean_linker_0, # of connection points: 2
#     Edge 94, Type (0, 0), BuildingBlock: UVAHIK_clean_linker_0, # of connection points: 2
#     Edge 95, Type (0, 0), BuildingBlock: UVAHIK_clean_linker_0, # of connection points: 2
#     Edge 96, Type (0, 0), BuildingBlock: UVAHIK_clean_linker_0, # of connection points: 2
#     Edge 97, Type (0, 0), BuildingBlock: UVAHIK_clean_linker_0, # of connection points: 2
#     Edge 98, Type (0, 0), BuildingBlock: UVAHIK_clean_linker_0, # of connection points: 2
#     Edge 99, Type (0, 0), BuildingBlock: UVAHIK_clean_linker_0, # of connection points: 2
#     Edge 100, Type (0, 0), BuildingBlock: UVAHIK_clean_linker_0, # of connection points: 2
#     Edge 101, Type (0, 0), BuildingBlock: UVAHIK_clean_linker_0, # of connection points: 2
#     Edge 102, Type (0, 0), BuildingBlock: UVAHIK_clean_linker_0, # of connection points: 2
#     Edge 103, Type (0, 0), BuildingBlock: UVAHIK_clean_linker_0, # of connection points: 2
#     Edge 104, Type (0, 0), BuildingBlock: UVAHIK_clean_linker_0, # of connection points: 2
#     Edge 105, Type (0, 0), BuildingBlock: UVAHIK_clean_linker_0, # of connection points: 2
#     Edge 106, Type (0, 0), BuildingBlock: UVAHIK_clean_linker_0, # of connection points: 2
#     Edge 107, Type (0, 0), BuildingBlock: UVAHIK_clean_linker_0, # of connection points: 2
#     Edge 108, Type (0, 0), BuildingBlock: UVAHIK_clean_linker_0, # of connection points: 2
#     Edge 109, Type (0, 0), BuildingBlock: UVAHIK_clean_linker_0, # of connection points: 2
#     Edge 110, Type (0, 0), BuildingBlock: UVAHIK_clean_linker_0, # of connection points: 2
#     Edge 111, Type (0, 0), BuildingBlock: UVAHIK_clean_linker_0, # of connection points: 2
# Relax obj value: 0.546
# Max RMSD: 0.320
# Mean RMSD: 0.320
data_MOF--net-yfr--node1-XOMCOT_clean_sbu_1--edge1-UVAHIK_clean_linker_0
_symmetry_space_group_name_H-M    P1
_symmetry_Int_Tables_number       1
_symmetry_cell_setting            triclinic
loop_
_symmetry_equiv_pos_as_xyz
'x, y, z'
_cell_length_a     67.387607
_cell_length_b     67.369776
_cell_length_c     73.71627
_cell_angle_alpha  90.016485
_cell_angle_beta   90.010778
_cell_angle_gamma 90.004991
loop_
_atom_site_label
_atom_site_type_symbol
_atom_site_fract_x
_atom_site_fract_y
_atom_site_fract_z
_atom_type_partial_charge
C0 C 0.09749 0.1201 0.29872 0.0
C1 C 0.08354 0.11286 0.31055 0.0
N2 N 0.06545 0.1182 0.30447 0.0
N3 N 0.08825 0.13014 0.28537 0.0
C4 C 0.06874 0.12873 0.28918 0.0
H5 H 0.11331 0.11758 0.29942 0.0
Co6 Co 0.10076 0.13917 0.26483 0.0
C7 C 0.08191 0.1771 0.25432 0.0
O8 O 0.0999 0.18331 0.25046 0.0
N9 N 0.11383 0.14741 0.24349 0.0
C10 C 0.13525 0.15619 0.22194 0.0
C11 C 0.13291 0.15247 0.24015 0.0
C12 C 0.10503 0.14803 0.22702 0.0
N13 N 0.11765 0.15338 0.21371 0.0
O14 O 0.08647 0.11944 0.25134 0.0
H15 H 0.14467 0.15322 0.25001 0.0
H16 H 0.08963 0.14417 0.22483 0.0
O17 O 0.0795 0.15937 0.26043 0.0
C18 C 0.0969 0.10449 0.24675 0.0
O19 O 0.11619 0.10516 0.24923 0.0
N20 N 0.11544 0.15679 0.27944 0.0
C21 C 0.13745 0.1766 0.30577 0.0
C22 C 0.11803 0.18246 0.30186 0.0
C23 C 0.10703 0.17192 0.28913 0.0
C24 C 0.13413 0.15047 0.28364 0.0
C25 C 0.14552 0.16028 0.29671 0.0
H26 H 0.09144 0.17527 0.28805 0.0
H27 H 0.1399 0.13714 0.27738 0.0
H28 H 0.05716 0.13438 0.28041 0.0
H29 H 0.08648 0.10413 0.32258 0.0
H30 H 0.14891 0.1605 0.21531 0.0
H31 H 0.11102 0.19437 0.3094 0.0
H32 H 0.16023 0.15489 0.30003 0.0
C33 C 0.13577 0.8513 0.55491 0.0
C34 C 0.14641 0.84386 0.56932 0.0
N35 N 0.14531 0.82388 0.56881 0.0
N36 N 0.12785 0.83609 0.54553 0.0
C37 C 0.13392 0.8196 0.55424 0.0
H38 H 0.13428 0.86677 0.55121 0.0
Co39 Co 0.11435 0.83798 0.52384 0.0
C40 C 0.09505 0.79922 0.51936 0.0
O41 O 0.10405 0.7972 0.50366 0.0
N42 N 0.10081 0.84016 0.50176 0.0
C43 C 0.07656 0.84218 0.48135 0.0
C44 C 0.08091 0.83972 0.49942 0.0
C45 C 0.10822 0.84279 0.48492 0.0
N46 N 0.09378 0.84403 0.4723 0.0
O47 O 0.13494 0.82243 0.51297 0.0
H48 H 0.0702 0.83764 0.51018 0.0
H49 H 0.12386 0.84398 0.48189 0.0
O50 O 0.09889 0.81427 0.52927 0.0
C51 C 0.15018 0.83236 0.50831 0.0
O52 O 0.14932 0.85184 0.50889 0.0
N53 N 0.09524 0.85395 0.53504 0.0
C54 C 0.06767 0.87889 0.55123 0.0
C55 C 0.06985 0.85932 0.55718 0.0
C56 C 0.08396 0.84714 0.5491 0.0
C57 C 0.09369 0.87317 0.52937 0.0
C58 C 0.0799 0.88602 0.53735 0.0
H59 H 0.08599 0.83236 0.55441 0.0
H60 H 0.10318 0.8785 0.51858 0.0
H61 H 0.13023 0.80475 0.54981 0.0
H62 H 0.15476 0.85248 0.57908 0.0
H63 H 0.06193 0.84224 0.47529 0.0
H64 H 0.06091 0.8536 0.56823 0.0
H65 H 0.07869 0.90121 0.53268 0.0
C66 C 0.40638 0.89601 0.79024 0.0
C67 C 0.41448 0.90534 0.805 0.0
N68 N 0.43266 0.89768 0.8079 0.0
N69 N 0.41928 0.88242 0.78392 0.0
C70 C 0.4353 0.88383 0.79482 0.0
H71 H 0.39202 0.89904 0.78429 0.0
Co72 Co 0.41314 0.86803 0.7635 0.0
C73 C 0.43465 0.83026 0.76457 0.0
O74 O 0.41754 0.82211 0.76039 0.0
N75 N 0.40632 0.85436 0.74193 0.0
C76 C 0.39127 0.83893 0.71901 0.0
C77 C 0.38907 0.84609 0.73631 0.0
C78 C 0.41869 0.85198 0.72761 0.0
N79 N 0.4099 0.8427 0.71351 0.0
O80 O 0.42987 0.88558 0.75019 0.0
H81 H 0.37542 0.84543 0.74381 0.0
H82 H 0.43389 0.85713 0.72751 0.0
O83 O 0.43577 0.84916 0.76689 0.0
C84 C 0.42114 0.90011 0.74258 0.0
O85 O 0.40175 0.89943 0.74081 0.0
N86 N 0.39599 0.85257 0.77802 0.0
C87 C 0.36994 0.83588 0.80314 0.0
C88 C 0.39045 0.83346 0.80501 0.0
C89 C 0.40319 0.84228 0.7926 0.0
C90 C 0.37612 0.85636 0.77685 0.0
C91 C 0.3627 0.84752 0.78888 0.0
H92 H 0.4189 0.84154 0.79533 0.0
H93 H 0.37068 0.86675 0.76684 0.0
H94 H 0.44851 0.87485 0.79326 0.0
H95 H 0.40765 0.91713 0.81278 0.0
H96 H 0.3797 0.83226 0.71084 0.0
H97 H 0.39664 0.825 0.81615 0.0
H98 H 0.34695 0.85033 0.78746 0.0
C99 C 0.34798 0.1706 0.04973 0.0
C100 C 0.33967 0.18255 0.06272 0.0
N101 N 0.3496 0.19994 0.06296 0.0
N102 N 0.36316 0.18028 0.04187 0.0
C103 C 0.36378 0.19817 0.05006 0.0
H104 H 0.34345 0.15567 0.04629 0.0
Co105 Co 0.37764 0.16873 0.02363 0.0
C106 C 0.41605 0.18912 0.02114 0.0
O107 O 0.42365 0.17118 0.02027 0.0
N108 N 0.39156 0.15642 0.00435 0.0
C109 C 0.40681 0.13604 0.98507 0.0
C110 C 0.39864 0.13779 0.00206 0.0
C111 C 0.39549 0.16553 0.98839 0.0
N112 N 0.40476 0.15351 0.97647 0.0
O113 O 0.36052 0.18175 0.00671 0.0
H114 H 0.39775 0.12583 0.01168 0.0
H115 H 0.39157 0.1808 0.98559 0.0
O116 O 0.39714 0.19122 0.02274 0.0
C117 C 0.34751 0.17035 -0.00026 0.0
O118 O 0.3497 0.15107 0.00157 0.0
N119 N 0.39238 0.15529 0.04157 0.0
C120 C 0.40924 0.13465 0.07052 0.0
C121 C 0.41207 0.15515 0.06868 0.0
C122 C 0.40309 0.16525 0.05444 0.0
C123 C 0.38797 0.13573 0.04414 0.0
C124 C 0.39681 0.12491 0.05816 0.0
H125 H 0.40438 0.1812 0.05415 0.0
H126 H 0.37722 0.12854 0.03544 0.0
H127 H 0.37442 0.20958 0.04663 0.0
H128 H 0.32763 0.17841 0.07166 0.0
H129 H 0.41306 0.12267 0.97925 0.0
H130 H 0.42117 0.16338 0.07818 0.0
H131 H 0.39357 0.10924 0.0596 0.0
C132 C 0.10877 0.87664 0.19227 0.0
C133 C 0.09622 0.88112 0.17824 0.0
N134 N 0.07752 0.8769 0.18344 0.0
N135 N 0.09812 0.86941 0.20623 0.0
C136 C 0.07907 0.86987 0.20057 0.0
H137 H 0.1246 0.87919 0.19255 0.0
Co138 Co 0.10929 0.86407 0.22848 0.0
C139 C 0.0891 0.82845 0.24318 0.0
O140 O 0.10653 0.82278 0.24927 0.0
N141 N 0.12119 0.85986 0.2513 0.0
C142 C 0.14257 0.85875 0.27433 0.0
C143 C 0.14065 0.85932 0.25579 0.0
C144 C 0.11165 0.85998 0.26746 0.0
N145 N 0.1243 0.85909 0.2816 0.0
O146 O 0.09431 0.88569 0.23844 0.0
H147 H 0.15292 0.86014 0.2465 0.0
H148 H 0.09571 0.86127 0.26884 0.0
O149 O 0.08763 0.84497 0.23455 0.0
C150 C 0.10423 0.90141 0.24164 0.0
O151 O 0.1236 0.901 0.23964 0.0
N152 N 0.12461 0.84389 0.21731 0.0
C153 C 0.14725 0.8187 0.19544 0.0
C154 C 0.12739 0.81435 0.19926 0.0
C155 C 0.11618 0.82744 0.20962 0.0
C156 C 0.14374 0.84875 0.21309 0.0
C157 C 0.15544 0.83625 0.20233 0.0
H158 H 0.10043 0.82487 0.21022 0.0
H159 H 0.14957 0.86306 0.217 0.0
H160 H 0.06663 0.86559 0.20898 0.0
H161 H 0.1005 0.8878 0.16547 0.0
H162 H 0.15633 0.85832 0.2819 0.0
H163 H 0.12015 0.80161 0.19319 0.0
H164 H 0.17045 0.8406 0.19891 0.0
C165 C 0.3508 0.8309 0.45579 0.0
C166 C 0.34199 0.819 0.44304 0.0
N167 N 0.35252 0.80206 0.44184 0.0
N168 N 0.36688 0.8216 0.46251 0.0
C169 C 0.3675 0.80391 0.45393 0.0
H170 H 0.34596 0.84554 0.45989 0.0
Co171 Co 0.38222 0.83375 0.47987 0.0
C172 C 0.42133 0.81483 0.48022 0.0
O173 O 0.42833 0.83304 0.4803 0.0
N174 N 0.39692 0.84667 0.49831 0.0
C175 C 0.41221 0.86781 0.51688 0.0
C176 C 0.40296 0.86569 0.50039 0.0
C177 C 0.40254 0.8377 0.51392 0.0
N178 N 0.4119 0.85017 0.52541 0.0
O179 O 0.36695 0.82008 0.49773 0.0
H180 H 0.40056 0.87767 0.49102 0.0
H181 H 0.39972 0.82221 0.51677 0.0
O182 O 0.40245 0.81201 0.47977 0.0
C183 C 0.35329 0.83026 0.5052 0.0
O184 O 0.3537 0.84966 0.50343 0.0
N185 N 0.39528 0.84754 0.46098 0.0
C186 C 0.40905 0.86767 0.43048 0.0
C187 C 0.41226 0.8473 0.43236 0.0
C188 C 0.40494 0.83745 0.4475 0.0
C189 C 0.39052 0.86705 0.45849 0.0
C190 C 0.39796 0.87767 0.44365 0.0
H191 H 0.40646 0.82152 0.44792 0.0
H192 H 0.38037 0.87428 0.46772 0.0
H193 H 0.37895 0.7929 0.45609 0.0
H194 H 0.32887 0.82254 0.43521 0.0
H195 H 0.41794 0.88153 0.52245 0.0
H196 H 0.42023 0.83901 0.42208 0.0
H197 H 0.39453 0.89329 0.44216 0.0
C198 C 0.41722 0.10704 0.70804 0.0
C199 C 0.4299 0.09727 0.69656 0.0
N200 N 0.44843 0.10407 0.69955 0.0
N201 N 0.42764 0.1201 0.71806 0.0
C202 C 0.44663 0.11797 0.71267 0.0
H203 H 0.40145 0.10445 0.70939 0.0
Co204 Co 0.41673 0.13365 0.73721 0.0
C205 C 0.43527 0.17301 0.73898 0.0
O206 O 0.41708 0.17962 0.74119 0.0
N207 N 0.40529 0.14649 0.75748 0.0
C208 C 0.38573 0.15953 0.77871 0.0
C209 C 0.38656 0.15244 0.76125 0.0
C210 C 0.41542 0.15014 0.77296 0.0
N211 N 0.40391 0.15798 0.7861 0.0
O212 O 0.43201 0.11705 0.75288 0.0
H213 H 0.37394 0.15137 0.75239 0.0
H214 H 0.43104 0.14688 0.77458 0.0
O215 O 0.4382 0.15426 0.73695 0.0
C216 C 0.42243 0.10238 0.75934 0.0
O217 O 0.40295 0.10272 0.75852 0.0
N218 N 0.40122 0.148 0.72041 0.0
C219 C 0.37876 0.16164 0.69125 0.0
C220 C 0.39899 0.16594 0.69236 0.0
C221 C 0.41003 0.15867 0.70682 0.0
C222 C 0.38172 0.14273 0.71889 0.0
C223 C 0.36997 0.14998 0.70471 0.0
H224 H 0.42591 0.16062 0.70636 0.0
H225 H 0.37548 0.13197 0.72815 0.0
H226 H 0.45894 0.12582 0.71879 0.0
H227 H 0.42577 0.08604 0.68676 0.0
H228 H 0.3725 0.16453 0.78567 0.0
H229 H 0.40635 0.17435 0.68178 0.0
H230 H 0.35451 0.14572 0.70376 0.0
C231 C 0.13945 0.16015 0.94876 0.0
C232 C 0.14858 0.17288 0.93693 0.0
N233 N 0.13971 0.19073 0.93826 0.0
N234 N 0.12477 0.16983 0.95741 0.0
C235 C 0.12532 0.18854 0.9509 0.0
H236 H 0.14348 0.14485 0.95124 0.0
Co237 Co 0.11069 0.1576 0.97552 0.0
C238 C 0.07113 0.17569 0.97754 0.0
O239 O 0.06459 0.15735 0.97844 0.0
N240 N 0.09719 0.14447 0.9947 0.0
C241 C 0.0822 0.12302 0.01318 0.0
C242 C 0.08886 0.12623 0.99583 0.0
C243 C 0.09509 0.15202 0.01159 0.0
N244 N 0.0863 0.13923 0.02316 0.0
O245 O 0.12675 0.17188 0.99245 0.0
H246 H 0.0876 0.11558 0.98501 0.0
H247 H 0.10069 0.16642 0.01554 0.0
O248 O 0.08989 0.17885 0.97598 0.0
C249 C 0.14086 0.16143 -0.00116 0.0
O250 O 0.14019 0.14209 -0.00342 0.0
N251 N 0.09732 0.14306 0.95752 0.0
C252 C 0.08641 0.12187 0.92657 0.0
C253 C 0.08032 0.14158 0.92897 0.0
C254 C 0.08636 0.15206 0.94426 0.0
C255 C 0.10404 0.12414 0.95502 0.0
C256 C 0.09831 0.11305 0.93988 0.0
H257 H 0.08319 0.16773 0.94475 0.0
H258 H 0.11449 0.11786 0.96457 0.0
H259 H 0.1155 0.20026 0.95537 0.0
H260 H 0.16113 0.16938 0.92833 0.0
H261 H 0.07523 0.10959 0.01808 0.0
H262 H 0.07139 0.14908 0.91885 0.0
H263 H 0.10386 0.09807 0.93823 0.0
C264 C 0.90163 0.86892 0.69472 0.0
C265 C 0.9076 0.87879 0.67931 0.0
N266 N 0.92743 0.88116 0.68012 0.0
N267 N 0.9177 0.86483 0.70495 0.0
C268 C 0.93317 0.87257 0.69578 0.0
H269 H 0.88655 0.86515 0.69835 0.0
Co270 Co 0.91785 0.85309 0.72758 0.0
C271 C 0.95797 0.83608 0.73104 0.0
O272 O 0.96043 0.84578 0.74635 0.0
N273 N 0.91764 0.84136 0.75051 0.0
C274 C 0.91925 0.81922 0.77276 0.0
C275 C 0.92139 0.82215 0.75445 0.0
C276 C 0.91293 0.8497 0.76658 0.0
N277 N 0.91389 0.83658 0.78043 0.0
O278 O 0.93265 0.87541 0.73644 0.0
H279 H 0.92543 0.81096 0.74459 0.0
H280 H 0.9085 0.86501 0.76805 0.0
O281 O 0.94219 0.83876 0.72181 0.0
C282 C 0.92206 0.89043 0.74049 0.0
O283 O 0.90264 0.88862 0.74021 0.0
N284 N 0.90256 0.8321 0.71856 0.0
C285 C 0.87767 0.80272 0.70488 0.0
C286 C 0.89704 0.80494 0.69825 0.0
C287 C 0.90917 0.81987 0.7051 0.0
C288 C 0.88371 0.83034 0.7251 0.0
C289 C 0.87093 0.81571 0.71839 0.0
H290 H 0.92365 0.82189 0.69913 0.0
H291 H 0.87853 0.84051 0.73543 0.0
H292 H 0.94836 0.8719 0.70052 0.0
H293 H 0.89809 0.88412 0.66852 0.0
H294 H 0.92169 0.80537 0.77984 0.0
H295 H 0.90257 0.79559 0.6874 0.0
H296 H 0.85598 0.81456 0.72369 0.0
C297 C 0.84906 0.16519 0.44229 0.0
C298 C 0.84162 0.17915 0.43059 0.0
N299 N 0.85099 0.1965 0.43376 0.0
N300 N 0.86309 0.17363 0.45273 0.0
C301 C 0.86394 0.19273 0.44734 0.0
H302 H 0.84428 0.14992 0.44347 0.0
Co303 Co 0.87493 0.15999 0.47131 0.0
C304 C 0.91275 0.17961 0.48029 0.0
O305 O 0.92003 0.16155 0.4814 0.0
N306 N 0.88598 0.14551 0.49082 0.0
C307 C 0.89821 0.12298 0.50991 0.0
C308 C 0.89244 0.12656 0.49232 0.0
C309 C 0.88778 0.15293 0.50779 0.0
N310 N 0.8952 0.13961 0.51961 0.0
O311 O 0.85577 0.17159 0.48732 0.0
H312 H 0.89277 0.11566 0.48165 0.0
H313 H 0.88381 0.168 0.51134 0.0
O314 O 0.89436 0.18197 0.47606 0.0
C315 C 0.84197 0.15966 0.49187 0.0
O316 O 0.84403 0.14072 0.48808 0.0
N317 N 0.89187 0.14815 0.45412 0.0
C318 C 0.91066 0.1308 0.42436 0.0
C319 C 0.91434 0.15061 0.42898 0.0
C320 C 0.90445 0.15913 0.44358 0.0
C321 C 0.88725 0.1292 0.44915 0.0
C322 C 0.89694 0.11998 0.43464 0.0
H323 H 0.90623 0.17487 0.44567 0.0
H324 H 0.87542 0.12141 0.45604 0.0
H325 H 0.87379 0.20361 0.45329 0.0
H326 H 0.82988 0.17676 0.42082 0.0
H327 H 0.90359 0.10902 0.51523 0.0
H328 H 0.9245 0.15964 0.42113 0.0
H329 H 0.89313 0.10487 0.43102 0.0
C330 C 0.60341 0.12904 0.18216 0.0
C331 C 0.58937 0.12203 0.17027 0.0
N332 N 0.57138 0.12414 0.17802 0.0
N333 N 0.59428 0.13572 0.19723 0.0
C334 C 0.57478 0.13257 0.19434 0.0
H335 H 0.61931 0.12845 0.18029 0.0
Co336 Co 0.60693 0.14238 0.21848 0.0
C337 C 0.58671 0.17763 0.23362 0.0
O338 O 0.60432 0.18411 0.23848 0.0
N339 N 0.6201 0.1481 0.24046 0.0
C340 C 0.64144 0.15462 0.26275 0.0
C341 C 0.63918 0.15273 0.24428 0.0
C342 C 0.61128 0.14692 0.25689 0.0
N343 N 0.62381 0.15102 0.27064 0.0
O344 O 0.59327 0.1209 0.22999 0.0
H345 H 0.65097 0.15449 0.23457 0.0
H346 H 0.59585 0.14295 0.25869 0.0
O347 O 0.58514 0.16103 0.22516 0.0
C348 C 0.60338 0.10547 0.23366 0.0
O349 O 0.6227 0.10586 0.23128 0.0
N350 N 0.62075 0.1624 0.20584 0.0
C351 C 0.64143 0.18778 0.18271 0.0
C352 C 0.62157 0.19146 0.18708 0.0
C353 C 0.61134 0.17828 0.19815 0.0
C354 C 0.63981 0.15806 0.20098 0.0
C355 C 0.65056 0.17069 0.18956 0.0
H356 H 0.59557 0.18041 0.19953 0.0
H357 H 0.64646 0.14427 0.2054 0.0
H358 H 0.56346 0.13522 0.20447 0.0
H359 H 0.59222 0.11549 0.15711 0.0
H360 H 0.65502 0.15844 0.26977 0.0
H361 H 0.61366 0.20386 0.18114 0.0
H362 H 0.66565 0.16695 0.18586 0.0
C363 C 0.63161 0.85333 0.95129 0.0
C364 C 0.6437 0.84535 0.93812 0.0
N365 N 0.64052 0.82563 0.93766 0.0
N366 N 0.62059 0.8387 0.95869 0.0
C367 C 0.62647 0.82198 0.95024 0.0
H368 H 0.63099 0.86873 0.95539 0.0
Co369 Co 0.60345 0.84116 0.97814 0.0
C370 C 0.56692 0.8209 0.96618 0.0
O371 O 0.55764 0.83744 0.97038 0.0
N372 N 0.58724 0.84349 -0.00109 0.0
C373 C 0.57059 0.83471 0.02374 0.0
C374 C 0.57547 0.82941 0.00637 0.0
C375 C 0.58989 0.85676 0.01247 0.0
N376 N 0.57989 0.85181 0.02768 0.0
O377 O 0.61969 0.82237 0.99075 0.0
H378 H 0.57242 0.81501 0.00061 0.0
H379 H 0.60041 0.86885 0.01178 0.0
O380 O 0.58579 0.81955 0.96868 0.0
C381 C 0.63307 0.83069 0.00029 0.0
O382 O 0.63238 0.85003 0.00242 0.0
N383 N 0.58882 0.86072 0.96502 0.0
C384 C 0.5693 0.88896 0.94377 0.0
C385 C 0.5749 0.87066 0.93644 0.0
C386 C 0.58469 0.8569 0.94716 0.0
C387 C 0.58425 0.87887 0.97218 0.0
C388 C 0.57406 0.89308 0.96188 0.0
H389 H 0.5887 0.84287 0.94108 0.0
H390 H 0.5886 0.88266 0.98578 0.0
H391 H 0.62068 0.80739 0.95336 0.0
H392 H 0.6543 0.85331 0.92983 0.0
H393 H 0.56279 0.82545 0.03341 0.0
H394 H 0.5713 0.86674 0.92256 0.0
H395 H 0.57016 0.90721 0.96793 0.0
C396 C 0.91986 0.10379 0.79241 0.0
C397 C 0.93403 0.09478 0.80292 0.0
N398 N 0.952 0.10088 0.79717 0.0
N399 N 0.92884 0.11568 0.78024 0.0
C400 C 0.94843 0.11363 0.78341 0.0
H401 H 0.90402 0.10132 0.79313 0.0
Co402 Co 0.91557 0.12735 0.76132 0.0
C403 C 0.93339 0.16655 0.75478 0.0
O404 O 0.915 0.17276 0.75303 0.0
N405 N 0.90166 0.1382 0.74139 0.0
C406 C 0.8795 0.14889 0.72122 0.0
C407 C 0.88248 0.14352 0.739 0.0
C408 C 0.90989 0.14046 0.7248 0.0
N409 N 0.89677 0.14683 0.71228 0.0
O410 O 0.92924 0.10946 0.74544 0.0
H411 H 0.87097 0.14311 0.7491 0.0
H412 H 0.9253 0.13725 0.72193 0.0
O413 O 0.93665 0.1481 0.7582 0.0
C414 C 0.91897 0.09468 0.74015 0.0
O415 O 0.89972 0.09488 0.74299 0.0
N416 N 0.90178 0.14308 0.77837 0.0
C417 C 0.88209 0.15957 0.8081 0.0
C418 C 0.90192 0.16432 0.80452 0.0
C419 C 0.91162 0.15552 0.78995 0.0
C420 C 0.88274 0.13756 0.7822 0.0
C421 C 0.87239 0.14606 0.7967 0.0
H422 H 0.92739 0.15791 0.78876 0.0
H423 H 0.87586 0.12573 0.77453 0.0
H424 H 0.95983 0.12054 0.77522 0.0
H425 H 0.9313 0.08445 0.81388 0.0
H426 H 0.86546 0.15306 0.71519 0.0
H427 H 0.91012 0.17436 0.81322 0.0
H428 H 0.85732 0.14139 0.79948 0.0
C429 C 0.6253 0.15476 0.54082 0.0
C430 C 0.63362 0.16721 0.55337 0.0
N431 N 0.62654 0.18566 0.55052 0.0
N432 N 0.61286 0.16519 0.53019 0.0
C433 C 0.61399 0.18406 0.53626 0.0
H434 H 0.62855 0.13916 0.53913 0.0
Co435 Co 0.60099 0.1536 0.51043 0.0
C436 C 0.56307 0.17386 0.50331 0.0
O437 O 0.55591 0.15602 0.5004 0.0
N438 N 0.58988 0.14105 0.48974 0.0
C439 C 0.57706 0.11993 0.46964 0.0
C440 C 0.58129 0.12303 0.48763 0.0
C441 C 0.59046 0.14857 0.47274 0.0
N442 N 0.58301 0.13597 0.46023 0.0
O443 O 0.61993 0.16721 0.4956 0.0
H444 H 0.57823 0.11247 0.49822 0.0
H445 H 0.59698 0.16278 0.46949 0.0
O446 O 0.5814 0.17579 0.50789 0.0
C447 C 0.63422 0.15605 0.49069 0.0
O448 O 0.63261 0.13681 0.49327 0.0
N449 N 0.58452 0.13961 0.52652 0.0
C450 C 0.57027 0.11953 0.5569 0.0
C451 C 0.56422 0.139 0.55322 0.0
C452 C 0.57185 0.14893 0.53823 0.0
C453 C 0.59061 0.12066 0.52998 0.0
C454 C 0.58329 0.11013 0.54487 0.0
H455 H 0.56879 0.16458 0.53711 0.0
H456 H 0.60211 0.11407 0.5217 0.0
H457 H 0.60607 0.19634 0.53019 0.0
H458 H 0.64461 0.1631 0.56339 0.0
H459 H 0.5704 0.10671 0.46395 0.0
H460 H 0.55444 0.14688 0.5624 0.0
H461 H 0.58876 0.09531 0.54758 0.0
C462 C 0.59156 0.89155 0.29841 0.0
C463 C 0.57741 0.89747 0.31063 0.0
N464 N 0.56021 0.88824 0.30654 0.0
N465 N 0.58342 0.87861 0.28669 0.0
C466 C 0.56431 0.87687 0.29187 0.0
H467 H 0.6067 0.89682 0.29768 0.0
Co468 Co 0.59705 0.86953 0.26681 0.0
C469 C 0.57896 0.83169 0.25536 0.0
O470 O 0.59718 0.82546 0.25248 0.0
N471 N 0.61142 0.86138 0.24613 0.0
C472 C 0.63449 0.85465 0.22539 0.0
C473 C 0.63086 0.85721 0.24361 0.0
C474 C 0.60367 0.8612 0.22922 0.0
N475 N 0.61733 0.85727 0.21637 0.0
O476 O 0.58358 0.88916 0.25267 0.0
H477 H 0.64206 0.85669 0.25401 0.0
H478 H 0.58835 0.86484 0.22635 0.0
O479 O 0.57614 0.84945 0.2612 0.0
C480 C 0.59416 0.904 0.24813 0.0
O481 O 0.61332 0.90357 0.25143 0.0
N482 N 0.61068 0.85185 0.28216 0.0
C483 C 0.63095 0.83104 0.30906 0.0
C484 C 0.61153 0.82585 0.30436 0.0
C485 C 0.60142 0.83688 0.29138 0.0
C486 C 0.62921 0.85778 0.28732 0.0
C487 C 0.63977 0.84742 0.30063 0.0
H488 H 0.58583 0.83392 0.28961 0.0
H489 H 0.63556 0.8711 0.28153 0.0
H490 H 0.55361 0.86772 0.28482 0.0
H491 H 0.57958 0.90828 0.3213 0.0
H492 H 0.64875 0.85158 0.21926 0.0
H493 H 0.60384 0.81399 0.31139 0.0
H494 H 0.65448 0.85233 0.30449 0.0
C495 C 0.8563 0.84274 0.05465 0.0
C496 C 0.85098 0.82867 0.06717 0.0
N497 N 0.85898 0.81113 0.06218 0.0
N498 N 0.86764 0.83423 0.04183 0.0
C499 C 0.86904 0.81498 0.04667 0.0
H500 H 0.85167 0.85811 0.05451 0.0
Co501 Co 0.87528 0.84788 0.02147 0.0
C502 C 0.90962 0.82701 0.00502 0.0
O503 O 0.91674 0.84451 0.00062 0.0
N504 N 0.88191 0.86249 0.00049 0.0
C505 C 0.89091 0.88528 0.98025 0.0
C506 C 0.88828 0.88137 -0.00161 0.0
C507 C 0.8803 0.8555 0.98336 0.0
N508 N 0.88596 0.86892 0.97078 0.0
O509 O 0.85327 0.83623 0.00894 0.0
H510 H 0.89106 0.89184 0.00914 0.0
H511 H 0.87528 0.84064 0.98026 0.0
O512 O 0.89308 0.82578 0.01363 0.0
C513 C 0.83845 0.84785 0.00753 0.0
O514 O 0.84055 0.86641 0.01269 0.0
N515 N 0.89565 0.85976 0.03526 0.0
C516 C 0.92142 0.87777 0.05986 0.0
C517 C 0.92497 0.85848 0.05369 0.0
C518 C 0.91158 0.84951 0.04191 0.0
C519 C 0.89142 0.8782 0.04192 0.0
C520 C 0.90424 0.88761 0.05414 0.0
H521 H 0.91366 0.83398 0.0391 0.0
H522 H 0.87775 0.88545 0.03803 0.0
H523 H 0.87696 0.80402 0.03879 0.0
H524 H 0.84138 0.83119 0.07869 0.0
H525 H 0.8965 0.89899 0.97459 0.0
H526 H 0.93753 0.85002 0.05865 0.0
H527 H 0.90067 0.90229 0.05919 0.0
C528 C 0.60183 0.62658 0.80726 0.0
C529 C 0.58811 0.6197 0.8195 0.0
N530 N 0.56979 0.62301 0.81274 0.0
N531 N 0.59226 0.6344 0.79291 0.0
C532 C 0.57281 0.63202 0.79658 0.0
H533 H 0.61775 0.62494 0.80827 0.0
Co534 Co 0.60423 0.6413 0.7714 0.0
C535 C 0.58351 0.67701 0.75734 0.0
O536 O 0.60079 0.68308 0.75125 0.0
N537 N 0.61679 0.64733 0.74914 0.0
C538 C 0.63804 0.65437 0.72693 0.0
C539 C 0.63557 0.65311 0.74537 0.0
C540 C 0.60828 0.64508 0.73264 0.0
N541 N 0.62086 0.64923 0.71891 0.0
O542 O 0.59013 0.61985 0.76004 0.0
H543 H 0.64711 0.65605 0.75509 0.0
H544 H 0.59318 0.64004 0.73076 0.0
O545 O 0.58237 0.66028 0.76567 0.0
C546 C 0.60063 0.60457 0.75663 0.0
O547 O 0.61992 0.60552 0.7591 0.0
N548 N 0.61874 0.66092 0.78392 0.0
C549 C 0.64167 0.68563 0.80586 0.0
C550 C 0.62189 0.69035 0.80201 0.0
C551 C 0.61049 0.67748 0.79153 0.0
C552 C 0.63764 0.65556 0.78843 0.0
C553 C 0.6495 0.66783 0.7992 0.0
H554 H 0.59484 0.68049 0.79046 0.0
H555 H 0.64343 0.64144 0.78384 0.0
H556 H 0.56119 0.63606 0.78716 0.0
H557 H 0.59151 0.61186 0.83191 0.0
H558 H 0.65154 0.65866 0.72002 0.0
H559 H 0.61496 0.70337 0.80787 0.0
H560 H 0.66451 0.66333 0.80247 0.0
C561 C 0.62335 0.3645 0.04811 0.0
C562 C 0.63288 0.35238 0.06026 0.0
N563 N 0.62885 0.33342 0.05581 0.0
N564 N 0.61325 0.35323 0.03616 0.0
C565 C 0.61681 0.33431 0.04119 0.0
H566 H 0.62461 0.38048 0.04739 0.0
Co567 Co 0.60286 0.36321 0.01499 0.0
C568 C 0.56561 0.34209 0.00717 0.0
O569 O 0.55858 0.35954 0.00249 0.0
N570 N 0.59328 0.37385 0.9928 0.0
C571 C 0.58202 0.3927 0.97019 0.0
C572 C 0.58508 0.39161 0.98856 0.0
C573 C 0.59481 0.36446 0.97662 0.0
N574 N 0.58831 0.37564 0.96265 0.0
O575 O 0.62285 0.34855 0.00224 0.0
H576 H 0.5815 0.40335 -0.00212 0.0
H577 H 0.60124 0.34987 0.97505 0.0
O578 O 0.58361 0.34075 0.01284 0.0
C579 C 0.63761 0.35919 -0.00242 0.0
O580 O 0.63623 0.37856 -0.00071 0.0
N581 N 0.58504 0.37834 0.02897 0.0
C582 C 0.56579 0.40134 0.05494 0.0
C583 C 0.56168 0.38107 0.05338 0.0
C584 C 0.57172 0.36975 0.04054 0.0
C585 C 0.58981 0.39793 0.03094 0.0
C586 C 0.57989 0.40991 0.04348 0.0
H587 H 0.56968 0.35388 0.04089 0.0
H588 H 0.60194 0.40412 0.02317 0.0
H589 H 0.6119 0.32149 0.03354 0.0
H590 H 0.64249 0.35711 0.07121 0.0
H591 H 0.57588 0.40525 0.96296 0.0
H592 H 0.55137 0.37388 0.06255 0.0
H593 H 0.58395 0.42539 0.04488 0.0
C594 C 0.91606 0.39442 0.29366 0.0
C595 C 0.92936 0.4043 0.30447 0.0
N596 N 0.94782 0.39908 0.29932 0.0
N597 N 0.92608 0.38283 0.28191 0.0
C598 C 0.94541 0.38592 0.28567 0.0
H599 H 0.90013 0.39628 0.29375 0.0
Co600 Co 0.91459 0.37086 0.26213 0.0
C601 C 0.93252 0.33139 0.2579 0.0
O602 O 0.91428 0.32512 0.2552 0.0
N603 N 0.90262 0.35965 0.2413 0.0
C604 C 0.88244 0.3481 0.21982 0.0
C605 C 0.88384 0.35372 0.23768 0.0
C606 C 0.91223 0.3574 0.22533 0.0
N607 N 0.90032 0.35055 0.21204 0.0
O608 O 0.93012 0.38812 0.24725 0.0
H609 H 0.87155 0.35378 0.24697 0.0
H610 H 0.92775 0.36096 0.22345 0.0
O611 O 0.9356 0.3499 0.26112 0.0
C612 C 0.9209 0.40337 0.2415 0.0
O613 O 0.90143 0.40359 0.24256 0.0
N614 N 0.89886 0.35581 0.27818 0.0
C615 C 0.87587 0.34082 0.30636 0.0
C616 C 0.89586 0.33566 0.30487 0.0
C617 C 0.90722 0.34364 0.29092 0.0
C618 C 0.87962 0.36182 0.28015 0.0
C619 C 0.86762 0.35404 0.29388 0.0
H620 H 0.92299 0.34096 0.29117 0.0
H621 H 0.87382 0.37346 0.27155 0.0
H622 H 0.95742 0.37969 0.27776 0.0
H623 H 0.92571 0.41479 0.31508 0.0
H624 H 0.86904 0.34349 0.21291 0.0
H625 H 0.90282 0.32608 0.31483 0.0
H626 H 0.85238 0.35893 0.29521 0.0
C627 C 0.86784 0.64905 0.55838 0.0
C628 C 0.85599 0.65515 0.57251 0.0
N629 N 0.85247 0.67475 0.5706 0.0
N630 N 0.8722 0.6648 0.54782 0.0
C631 C 0.86208 0.68002 0.55526 0.0
H632 H 0.87325 0.63414 0.55614 0.0
Co633 Co 0.88741 0.66463 0.5267 0.0
C634 C 0.9065 0.70201 0.54492 0.0
O635 O 0.8971 0.7026 0.5605 0.0
N636 N 0.90239 0.66429 0.50533 0.0
C637 C 0.92806 0.6662 0.4865 0.0
C638 C 0.92224 0.66676 0.50432 0.0
C639 C 0.8965 0.6621 0.48794 0.0
N640 N 0.91183 0.6633 0.47617 0.0
O641 O 0.86735 0.68053 0.51539 0.0
H642 H 0.93191 0.66905 0.51585 0.0
H643 H 0.88128 0.65963 0.48393 0.0
O644 O 0.90255 0.6884 0.53338 0.0
C645 C 0.85305 0.67021 0.50918 0.0
O646 O 0.8548 0.65078 0.50904 0.0
N647 N 0.90625 0.64816 0.53798 0.0
C648 C 0.93203 0.62179 0.55501 0.0
C649 C 0.92782 0.64029 0.56276 0.0
C650 C 0.91487 0.65323 0.55407 0.0
C651 C 0.90991 0.63008 0.53032 0.0
C652 C 0.92306 0.61673 0.53849 0.0
H653 H 0.91124 0.66697 0.5607 0.0
H654 H 0.90251 0.62597 0.51784 0.0
H655 H 0.86194 0.69479 0.54952 0.0
H656 H 0.85109 0.64598 0.58369 0.0
H657 H 0.94303 0.6683 0.48156 0.0
H658 H 0.93449 0.64476 0.5755 0.0
H659 H 0.92586 0.60247 0.53219 0.0
C660 C 0.5941 0.38646 0.69143 0.0
C661 C 0.57886 0.3938 0.68105 0.0
N662 N 0.56159 0.38791 0.68851 0.0
N663 N 0.58645 0.37585 0.70524 0.0
C664 C 0.56661 0.37699 0.70316 0.0
H665 H 0.60974 0.38929 0.68944 0.0
Co666 Co 0.60111 0.36653 0.7244 0.0
C667 C 0.58361 0.32825 0.7359 0.0
O668 O 0.60195 0.32204 0.73803 0.0
N669 N 0.61639 0.35797 0.74437 0.0
C670 C 0.6398 0.34873 0.76395 0.0
C671 C 0.63576 0.35306 0.74609 0.0
C672 C 0.60915 0.35669 0.76141 0.0
N673 N 0.62297 0.35099 0.77356 0.0
O674 O 0.58817 0.38589 0.7394 0.0
H675 H 0.64658 0.35281 0.73534 0.0
H676 H 0.59396 0.36026 0.76487 0.0
O677 O 0.58051 0.34608 0.7303 0.0
C678 C 0.59884 0.40086 0.74347 0.0
O679 O 0.61785 0.40048 0.73951 0.0
N680 N 0.61425 0.34927 0.7083 0.0
C681 C 0.63375 0.32942 0.68041 0.0
C682 C 0.61466 0.32373 0.68564 0.0
C683 C 0.60488 0.3343 0.69916 0.0
C684 C 0.63251 0.35558 0.7027 0.0
C685 C 0.64267 0.34572 0.68884 0.0
H686 H 0.58943 0.33101 0.70143 0.0
H687 H 0.6389 0.36883 0.70859 0.0
H688 H 0.55608 0.37084 0.71271 0.0
H689 H 0.58038 0.40295 0.66906 0.0
H690 H 0.65405 0.34436 0.7694 0.0
H691 H 0.60697 0.31184 0.67866 0.0
H692 H 0.65712 0.35097 0.68454 0.0
C693 C 0.85201 0.33584 0.9428 0.0
C694 C 0.84457 0.32139 0.93158 0.0
N695 N 0.85267 0.30386 0.9364 0.0
N696 N 0.86485 0.32752 0.95452 0.0
C697 C 0.86493 0.30802 0.95041 0.0
H698 H 0.84823 0.35144 0.94257 0.0
Co699 Co 0.87671 0.34164 0.97286 0.0
C700 C 0.91511 0.3229 0.9812 0.0
O701 O 0.92205 0.34112 0.98185 0.0
N702 N 0.8879 0.35648 0.99211 0.0
C703 C 0.90025 0.37913 0.01103 0.0
C704 C 0.89394 0.37557 0.99358 0.0
C705 C 0.89045 0.34897 0.00895 0.0
N706 N 0.89799 0.36234 0.02067 0.0
O707 O 0.85797 0.32999 0.98927 0.0
H708 H 0.89368 0.38655 0.98298 0.0
H709 H 0.88702 0.33375 0.01246 0.0
O710 O 0.89666 0.32007 0.97744 0.0
C711 C 0.84441 0.34211 0.994 0.0
O712 O 0.84637 0.36093 0.98968 0.0
N713 N 0.8931 0.35364 0.95534 0.0
C714 C 0.91061 0.37116 0.92504 0.0
C715 C 0.9148 0.35143 0.92963 0.0
C716 C 0.90553 0.34281 0.94452 0.0
C717 C 0.88807 0.37252 0.95048 0.0
C718 C 0.8971 0.38181 0.93568 0.0
H719 H 0.9076 0.32711 0.94662 0.0
H720 H 0.87631 0.38012 0.95764 0.0
H721 H 0.87345 0.29707 0.95779 0.0
H722 H 0.83422 0.3237 0.92055 0.0
H723 H 0.90555 0.39315 0.01631 0.0
H724 H 0.92483 0.34253 0.92153 0.0
H725 H 0.89289 0.39683 0.93212 0.0
C726 C 0.92039 0.60405 0.21031 0.0
C727 C 0.9303 0.5952 0.19625 0.0
N728 N 0.94717 0.60539 0.19336 0.0
N729 N 0.93085 0.61984 0.21614 0.0
C730 C 0.9473 0.62022 0.2057 0.0
H731 H 0.90617 0.59959 0.21576 0.0
Co732 Co 0.92061 0.63548 0.23428 0.0
C733 C 0.94153 0.67369 0.23399 0.0
O734 O 0.92384 0.68179 0.23478 0.0
N735 N 0.90927 0.65058 0.2536 0.0
C736 C 0.88982 0.66895 0.27145 0.0
C737 C 0.89283 0.66215 0.25413 0.0
C738 C 0.91599 0.65093 0.27093 0.0
N739 N 0.90431 0.66172 0.28208 0.0
O740 O 0.93497 0.61935 0.25097 0.0
H741 H 0.88352 0.66599 0.24282 0.0
H742 H 0.92894 0.64291 0.27547 0.0
O743 O 0.9432 0.6547 0.23326 0.0
C744 C 0.92519 0.60488 0.25757 0.0
O745 O 0.90573 0.60539 0.25659 0.0
N746 N 0.9061 0.64915 0.21634 0.0
C747 C 0.88441 0.66226 0.18651 0.0
C748 C 0.90485 0.6655 0.18745 0.0
C749 C 0.91548 0.65856 0.20231 0.0
C750 C 0.88639 0.64463 0.21495 0.0
C751 C 0.87504 0.65172 0.20043 0.0
H752 H 0.9314 0.66002 0.202 0.0
H753 H 0.87947 0.63543 0.22517 0.0
H754 H 0.95864 0.63157 0.20655 0.0
H755 H 0.92535 0.58247 0.18851 0.0
H756 H 0.87781 0.67848 0.2758 0.0
H757 H 0.91262 0.67316 0.17664 0.0
H758 H 0.8593 0.64852 0.1998 0.0
C759 C 0.6405 0.65883 0.44843 0.0
C760 C 0.64839 0.67344 0.43771 0.0
N761 N 0.64003 0.69082 0.4425 0.0
N762 N 0.62716 0.66692 0.45984 0.0
C763 C 0.6271 0.68649 0.45593 0.0
H764 H 0.64479 0.64336 0.44848 0.0
Co765 Co 0.61689 0.65243 0.47866 0.0
C766 C 0.57862 0.67024 0.48971 0.0
O767 O 0.57222 0.65204 0.49225 0.0
N768 N 0.60758 0.63699 0.49826 0.0
C769 C 0.59716 0.613 0.5167 0.0
C770 C 0.60166 0.61783 0.49908 0.0
C771 C 0.60668 0.64332 0.51565 0.0
N772 N 0.60036 0.62907 0.52715 0.0
O773 O 0.63542 0.66551 0.49426 0.0
H774 H 0.60074 0.60767 0.48784 0.0
H775 H 0.61097 0.6581 0.5198 0.0
O776 O 0.59641 0.67307 0.48394 0.0
C777 C 0.65077 0.65558 0.4986 0.0
O778 O 0.65136 0.63656 0.4947 0.0
N779 N 0.60025 0.6394 0.46192 0.0
C780 C 0.58098 0.6201 0.43354 0.0
C781 C 0.57486 0.63895 0.43913 0.0
C782 C 0.58513 0.64864 0.45288 0.0
C783 C 0.60703 0.62145 0.45595 0.0
C784 C 0.59748 0.61139 0.44183 0.0
H785 H 0.58142 0.66394 0.45543 0.0
H786 H 0.62024 0.6151 0.46195 0.0
H787 H 0.61863 0.69745 0.46337 0.0
H788 H 0.65958 0.67151 0.42733 0.0
H789 H 0.59201 0.59868 0.5214 0.0
H790 H 0.5628 0.64652 0.43229 0.0
H791 H 0.603 0.59712 0.43733 0.0
C792 C 0.41158 0.38827 0.20535 0.0
C793 C 0.41905 0.39936 0.19125 0.0
N794 N 0.43897 0.40008 0.19292 0.0
N795 N 0.42674 0.38188 0.21571 0.0
C796 C 0.44318 0.38932 0.20789 0.0
H797 H 0.39608 0.38533 0.20807 0.0
Co798 Co 0.42488 0.3685 0.23743 0.0
C799 C 0.46462 0.3514 0.24248 0.0
O800 O 0.46634 0.36172 0.25753 0.0
N801 N 0.42279 0.35504 0.25945 0.0
C802 C 0.4235 0.33115 0.28016 0.0
C803 C 0.42549 0.3354 0.26206 0.0
C804 C 0.41887 0.36236 0.2761 0.0
N805 N 0.41935 0.34815 0.28904 0.0
O806 O 0.43933 0.3898 0.24847 0.0
H807 H 0.42913 0.32487 0.25148 0.0
H808 H 0.41575 0.37781 0.27868 0.0
O809 O 0.44932 0.35382 0.2325 0.0
C810 C 0.42858 0.40465 0.25265 0.0
O811 O 0.4092 0.40283 0.25165 0.0
N812 N 0.40979 0.34885 0.22614 0.0
C813 C 0.38443 0.32369 0.20736 0.0
C814 C 0.40466 0.32428 0.20317 0.0
C815 C 0.41706 0.33726 0.21249 0.0
C816 C 0.39016 0.34825 0.23062 0.0
C817 C 0.37709 0.33582 0.22124 0.0
H818 H 0.43223 0.33861 0.20805 0.0
H819 H 0.38456 0.35801 0.2411 0.0
H820 H 0.45788 0.38746 0.21354 0.0
H821 H 0.41042 0.40627 0.1806 0.0
H822 H 0.42554 0.31671 0.2863 0.0
H823 H 0.41065 0.31551 0.19212 0.0
H824 H 0.36144 0.3359 0.22457 0.0
C825 C 0.34528 0.65667 0.93823 0.0
C826 C 0.33635 0.66867 0.92564 0.0
N827 N 0.34585 0.68629 0.9255 0.0
N828 N 0.36037 0.66657 0.946 0.0
C829 C 0.3604 0.68462 0.9381 0.0
H830 H 0.34078 0.6418 0.9419 0.0
Co831 Co 0.37395 0.65548 0.96503 0.0
C832 C 0.41295 0.67439 0.9683 0.0
O833 O 0.41975 0.65624 0.97031 0.0
N834 N 0.38667 0.64356 0.98522 0.0
C835 C 0.4004 0.62345 0.00568 0.0
C836 C 0.39284 0.62476 0.98842 0.0
C837 C 0.39043 0.6532 0.00097 0.0
N838 N 0.39882 0.64136 0.01357 0.0
O839 O 0.35733 0.67037 0.981 0.0
H840 H 0.39176 0.61241 0.97925 0.0
H841 H 0.38711 0.66874 0.00312 0.0
O842 O 0.39432 0.67711 0.96537 0.0
C843 C 0.34302 0.66078 0.98805 0.0
O844 O 0.34257 0.64138 0.9862 0.0
N845 N 0.38867 0.64056 0.94802 0.0
C846 C 0.40676 0.61846 0.92079 0.0
C847 C 0.40963 0.63894 0.92177 0.0
C848 C 0.40009 0.64979 0.93521 0.0
C849 C 0.38412 0.62092 0.94603 0.0
C850 C 0.39361 0.60933 0.93285 0.0
H851 H 0.40154 0.66573 0.9349 0.0
H852 H 0.37288 0.61425 0.95453 0.0
H853 H 0.37074 0.69626 0.94164 0.0
H854 H 0.32348 0.66479 0.91763 0.0
H855 H 0.40591 0.61012 0.01215 0.0
H856 H 0.41912 0.64651 0.91213 0.0
H857 H 0.39049 0.5936 0.9319 0.0
C858 C 0.11118 0.6002 0.68867 0.0
C859 C 0.10242 0.58964 0.67484 0.0
N860 N 0.08335 0.59549 0.67351 0.0
N861 N 0.09776 0.61283 0.69578 0.0
C862 C 0.08091 0.60949 0.68642 0.0
H863 H 0.12632 0.59875 0.69336 0.0
Co864 Co 0.10202 0.62923 0.71556 0.0
C865 C 0.07712 0.66404 0.70168 0.0
O866 O 0.0924 0.67381 0.6953 0.0
N867 N 0.10614 0.64523 0.73622 0.0
C868 C 0.11066 0.67071 0.75505 0.0
C869 C 0.10772 0.66522 0.73731 0.0
C870 C 0.10806 0.63901 0.75356 0.0
N871 N 0.11077 0.65417 0.76523 0.0
O872 O 0.08403 0.61258 0.72874 0.0
H873 H 0.10723 0.67529 0.72597 0.0
H874 H 0.10767 0.62364 0.75768 0.0
O875 O 0.07934 0.64698 0.70917 0.0
C876 C 0.09232 0.59687 0.73466 0.0
O877 O 0.11175 0.59546 0.7337 0.0
N878 N 0.12104 0.64402 0.70197 0.0
C879 C 0.14901 0.66635 0.68288 0.0
C880 C 0.13219 0.65876 0.67412 0.0
C881 C 0.11861 0.64736 0.68379 0.0
C882 C 0.13855 0.64916 0.71007 0.0
C883 C 0.1525 0.66084 0.70093 0.0
H884 H 0.10531 0.64254 0.67688 0.0
H885 H 0.14159 0.64473 0.72388 0.0
H886 H 0.06715 0.61728 0.68897 0.0
H887 H 0.10945 0.57837 0.66659 0.0
H888 H 0.11226 0.68571 0.76012 0.0
H889 H 0.12883 0.66255 0.66017 0.0
H890 H 0.16568 0.6658 0.70802 0.0
C891 C 0.13416 0.34766 0.44887 0.0
C892 C 0.14377 0.33539 0.43693 0.0
N893 N 0.13549 0.31723 0.43805 0.0
N894 N 0.11976 0.33737 0.45734 0.0
C895 C 0.12099 0.31878 0.45064 0.0
H896 H 0.13766 0.36305 0.45153 0.0
Co897 Co 0.10502 0.34873 0.47553 0.0
C898 C 0.06583 0.32975 0.47619 0.0
O899 O 0.05882 0.34791 0.47723 0.0
N900 N 0.09076 0.36088 0.49478 0.0
C901 C 0.07472 0.38124 0.51356 0.0
C902 C 0.08186 0.37883 0.49626 0.0
C903 C 0.08848 0.3527 0.5114 0.0
N904 N 0.07907 0.36483 0.52315 0.0
O905 O 0.12097 0.33418 0.49234 0.0
H906 H 0.08052 0.3898 0.48572 0.0
H907 H 0.0944 0.33834 0.51505 0.0
O908 O 0.08469 0.32706 0.475 0.0
C909 C 0.13463 0.34464 0.49948 0.0
O910 O 0.13358 0.36405 0.49799 0.0
N911 N 0.0918 0.36362 0.45771 0.0
C912 C 0.08131 0.3857 0.42719 0.0
C913 C 0.07562 0.36578 0.42881 0.0
C914 C 0.08144 0.35487 0.44391 0.0
C915 C 0.09814 0.38276 0.45598 0.0
C916 C 0.0926 0.39429 0.44107 0.0
H917 H 0.0786 0.33912 0.44386 0.0
H918 H 0.10816 0.38892 0.46598 0.0
H919 H 0.11155 0.30666 0.45494 0.0
H920 H 0.15622 0.33941 0.42841 0.0
H921 H 0.06727 0.3943 0.51871 0.0
H922 H 0.06717 0.35847 0.41824 0.0
H923 H 0.09782 0.40945 0.44002 0.0
C924 C 0.40892 0.6206 0.28876 0.0
C925 C 0.42099 0.61405 0.30245 0.0
N926 N 0.4394 0.6212 0.29955 0.0
N927 N 0.41955 0.63201 0.27735 0.0
C928 C 0.43815 0.63201 0.28413 0.0
H929 H 0.39351 0.61667 0.28683 0.0
Co930 Co 0.40896 0.6412 0.25598 0.0
C931 C 0.42751 0.67975 0.24759 0.0
O932 O 0.4097 0.68562 0.24268 0.0
N933 N 0.3977 0.64946 0.23379 0.0
C934 C 0.3776 0.65832 0.21124 0.0
C935 C 0.37876 0.6541 0.22943 0.0
C936 C 0.40762 0.65072 0.21788 0.0
N937 N 0.39578 0.65617 0.20399 0.0
O938 O 0.42525 0.62241 0.24348 0.0
H939 H 0.36629 0.65416 0.23854 0.0
H940 H 0.42334 0.64778 0.21657 0.0
O941 O 0.42992 0.66198 0.25355 0.0
C942 C 0.41638 0.60673 0.23827 0.0
O943 O 0.3969 0.60621 0.23893 0.0
N944 N 0.39239 0.65808 0.26972 0.0
C945 C 0.36807 0.67595 0.29557 0.0
C946 C 0.38739 0.68278 0.29274 0.0
C947 C 0.39954 0.67319 0.28027 0.0
C948 C 0.37369 0.65095 0.27271 0.0
C949 C 0.36118 0.65975 0.28553 0.0
H950 H 0.41503 0.67712 0.28023 0.0
H951 H 0.36886 0.63763 0.26581 0.0
H952 H 0.45055 0.63939 0.27769 0.0
H953 H 0.41669 0.60409 0.31327 0.0
H954 H 0.36423 0.66201 0.20384 0.0
H955 H 0.3935 0.69456 0.30106 0.0
H956 H 0.34659 0.65359 0.288 0.0
C957 C 0.11891 0.65843 0.04458 0.0
C958 C 0.12795 0.66628 0.05966 0.0
N959 N 0.12873 0.68615 0.05773 0.0
N960 N 0.11382 0.67329 0.03328 0.0
C961 C 0.12003 0.69001 0.0416 0.0
H962 H 0.11693 0.64282 0.04172 0.0
Co963 Co 0.10395 0.67007 0.00999 0.0
C964 C 0.08609 0.70874 0.00116 0.0
O965 O 0.09714 0.70967 0.9865 0.0
N966 N 0.09409 0.66646 0.98657 0.0
C967 C 0.07347 0.66299 0.96324 0.0
C968 C 0.0748 0.66649 0.98156 0.0
C969 C 0.10419 0.66301 0.97107 0.0
N970 N 0.09198 0.66087 0.9567 0.0
O971 O 0.12667 0.68422 0.00101 0.0
H972 H 0.06245 0.66908 0.99062 0.0
H973 H 0.12017 0.66194 0.97027 0.0
O974 O 0.08835 0.69429 0.01215 0.0
C975 C 0.14107 0.67194 0.00116 0.0
O976 O 0.137 0.65314 0.00424 0.0
N977 N 0.08319 0.65489 0.01934 0.0
C978 C 0.05945 0.62884 0.03877 0.0
C979 C 0.05616 0.64932 0.03974 0.0
C980 C 0.06845 0.66218 0.03015 0.0
C981 C 0.0857 0.63495 0.01725 0.0
C982 C 0.07411 0.62156 0.02709 0.0
H983 H 0.06685 0.67786 0.03248 0.0
H984 H 0.09775 0.62948 0.00893 0.0
H985 H 0.11861 0.70464 0.03569 0.0
H986 H 0.13419 0.6579 0.07081 0.0
H987 H 0.05998 0.66251 0.95527 0.0
H988 H 0.04523 0.65541 0.04899 0.0
H989 H 0.07717 0.6058 0.02626 0.0
C990 C 0.09336 0.38294 0.79681 0.0
C991 C 0.0793 0.39042 0.8084 0.0
N992 N 0.06131 0.38456 0.80249 0.0
N993 N 0.0843 0.37222 0.78379 0.0
C994 C 0.06476 0.37346 0.78755 0.0
H995 H 0.10913 0.38582 0.79739 0.0
Co996 Co 0.09698 0.36295 0.76343 0.0
C997 C 0.08007 0.32372 0.75444 0.0
O998 O 0.09843 0.31829 0.75105 0.0
N999 N 0.11017 0.35449 0.74223 0.0
C1000 C 0.13161 0.34595 0.72062 0.0
C1001 C 0.1294 0.35015 0.73876 0.0
C1002 C 0.10114 0.35289 0.72593 0.0
N1003 N 0.11378 0.3477 0.71257 0.0
O1004 O 0.08161 0.38141 0.74947 0.0
H1005 H 0.14134 0.35027 0.74845 0.0
H1006 H 0.08557 0.35603 0.72385 0.0
O1007 O 0.07665 0.34158 0.75983 0.0
C1008 C 0.09123 0.39678 0.74456 0.0
O1009 O 0.11052 0.39721 0.74716 0.0
N1010 N 0.11263 0.34665 0.77846 0.0
C1011 C 0.13574 0.32911 0.80531 0.0
C1012 C 0.1165 0.32233 0.80195 0.0
C1013 C 0.10493 0.33176 0.78891 0.0
C1014 C 0.13114 0.35388 0.78212 0.0
C1015 C 0.14308 0.34519 0.79543 0.0
H1016 H 0.08947 0.32777 0.78816 0.0
H1017 H 0.13629 0.36709 0.77524 0.0
H1018 H 0.05328 0.36733 0.77895 0.0
H1019 H 0.0821 0.3997 0.82011 0.0
H1020 H 0.14536 0.34212 0.71389 0.0
H1021 H 0.11007 0.31059 0.81009 0.0
H1022 H 0.15762 0.35129 0.7983 0.0
C1023 C 0.34249 0.3341 0.5519 0.0
C1024 C 0.33508 0.31944 0.56291 0.0
N1025 N 0.34676 0.30331 0.56122 0.0
N1026 N 0.35877 0.32728 0.54338 0.0
C1027 C 0.36102 0.30845 0.5492 0.0
H1028 H 0.3363 0.34876 0.54998 0.0
Co1029 Co 0.37196 0.34242 0.52659 0.0
C1030 C 0.4113 0.32465 0.52044 0.0
O1031 O 0.418 0.34295 0.52127 0.0
N1032 N 0.38452 0.35842 0.50886 0.0
C1033 C 0.3981 0.38235 0.49212 0.0
C1034 C 0.39096 0.37744 0.50899 0.0
C1035 C 0.38787 0.35227 0.49167 0.0
N1036 N 0.39608 0.36648 0.48118 0.0
O1037 O 0.35499 0.33115 0.50851 0.0
H1038 H 0.39052 0.38748 0.52033 0.0
H1039 H 0.38388 0.33764 0.48688 0.0
O1040 O 0.3926 0.32144 0.52244 0.0
C1041 C 0.34125 0.34285 0.50337 0.0
O1042 O 0.34248 0.3617 0.50782 0.0
N1043 N 0.38646 0.35385 0.54573 0.0
C1044 C 0.40233 0.37113 0.57691 0.0
C1045 C 0.407 0.35153 0.57222 0.0
C1046 C 0.39851 0.343 0.55688 0.0
C1047 C 0.38052 0.37235 0.55091 0.0
C1048 C 0.38874 0.38156 0.56615 0.0
H1049 H 0.40117 0.32745 0.55445 0.0
H1050 H 0.36905 0.3799 0.54331 0.0
H1051 H 0.37294 0.29881 0.54487 0.0
H1052 H 0.32194 0.32053 0.57128 0.0
H1053 H 0.40422 0.39659 0.48827 0.0
H1054 H 0.41709 0.34275 0.58037 0.0
H1055 H 0.38413 0.39645 0.56974 0.0
C1056 C 0.08434 0.12446 0.0538 0.0
C1057 C 0.08472 0.14133 0.04257 0.0
C1058 C 0.08547 0.12641 0.07261 0.0
C1059 C 0.08192 0.16215 0.11071 0.0
H1060 H 0.11894 0.12577 0.13345 0.0
C1061 C 0.09392 0.15756 0.18841 0.0
C1062 C 0.11341 0.1543 0.19457 0.0
C1063 C 0.08955 0.15702 0.1699 0.0
C1064 C 0.10869 0.13616 0.12729 0.0
H1065 H 0.08504 0.17355 0.04251 0.0
H1066 H 0.08763 0.17689 0.07531 0.0
H1067 H 0.11182 0.12259 0.10129 0.0
H1068 H 0.14366 0.14851 0.18602 0.0
H1069 H 0.13614 0.14808 0.15377 0.0
H1070 H 0.07928 0.17604 0.13674 0.0
C1071 C 0.08638 0.16216 0.06953 0.0
C1072 C 0.10436 0.13414 0.1089 0.0
C1073 C 0.08515 0.16022 0.0507 0.0
C1074 C 0.12853 0.15117 0.18177 0.0
C1075 C 0.12417 0.15068 0.16328 0.0
C1076 C 0.08628 0.16419 0.12916 0.0
C1077 C 0.0871 0.14524 0.08065 0.0
C1078 C 0.09095 0.14711 0.10038 0.0
C1079 C 0.10458 0.15326 0.15716 0.0
C1080 C 0.0998 0.15126 0.13761 0.0
H1081 H 0.08407 0.10967 0.04812 0.0
H1082 H 0.08559 0.11309 0.08084 0.0
H1083 H 0.07144 0.1723 0.10455 0.0
H1084 H 0.08199 0.16036 0.19788 0.0
H1085 H 0.0743 0.15899 0.16562 0.0
C1086 C 0.11181 0.83673 0.444 0.0
C1087 C 0.0962 0.84633 0.45306 0.0
C1088 C 0.11377 0.83844 0.42521 0.0
C1089 C 0.10325 0.8707 0.38716 0.0
H1090 H 0.10758 0.82317 0.35766 0.0
C1091 C 0.13125 0.86932 0.31302 0.0
C1092 C 0.11942 0.85892 0.30054 0.0
C1093 C 0.12702 0.86855 0.33153 0.0
C1094 C 0.10628 0.83653 0.36575 0.0
H1095 H 0.07071 0.86555 0.4498 0.0
H1096 H 0.07443 0.86896 0.41687 0.0
H1097 H 0.10332 0.82019 0.39056 0.0
H1098 H 0.09396 0.83964 0.29746 0.0
H1099 H 0.08678 0.83786 0.33008 0.0
H1100 H 0.10677 0.88703 0.36241 0.0
C1101 C 0.08495 0.85995 0.42431 0.0
C1102 C 0.10399 0.83483 0.38451 0.0
C1103 C 0.08277 0.85792 0.44306 0.0
C1104 C 0.10318 0.84786 0.30686 0.0
C1105 C 0.09917 0.84676 0.32544 0.0
C1106 C 0.10593 0.87239 0.36844 0.0
C1107 C 0.10037 0.85009 0.41523 0.0
C1108 C 0.10249 0.8519 0.39536 0.0
C1109 C 0.11111 0.85706 0.33791 0.0
C1110 C 0.10747 0.85532 0.3576 0.0
H1111 H 0.12224 0.82759 0.45142 0.0
H1112 H 0.12585 0.8308 0.41847 0.0
H1113 H 0.1022 0.88405 0.3953 0.0
H1114 H 0.14375 0.87806 0.30841 0.0
H1115 H 0.13648 0.87652 0.34092 0.0
C1116 C 0.4322 0.8525 0.68839 0.0
C1117 C 0.4177 0.83968 0.69552 0.0
C1118 C 0.43766 0.85127 0.67013 0.0
C1119 C 0.43258 0.82044 0.62833 0.0
H1120 H 0.43115 0.8716 0.6043 0.0
C1121 C 0.40941 0.83103 0.55394 0.0
C1122 C 0.41843 0.84612 0.54366 0.0
C1123 C 0.41437 0.82838 0.57217 0.0
C1124 C 0.43202 0.8572 0.61078 0.0
H1125 H 0.3988 0.81451 0.68944 0.0
H1126 H 0.40786 0.8127 0.65758 0.0
H1127 H 0.43128 0.87013 0.63721 0.0
H1128 H 0.44068 0.86936 0.54419 0.0
H1129 H 0.44923 0.86483 0.57608 0.0
H1130 H 0.43239 0.80756 0.60175 0.0
C1131 C 0.41514 0.82363 0.66605 0.0
C1132 C 0.43213 0.85635 0.62969 0.0
C1133 C 0.40972 0.82484 0.68428 0.0
C1134 C 0.43316 0.85789 0.55182 0.0
C1135 C 0.4381 0.85526 0.57007 0.0
C1136 C 0.4324 0.8213 0.60939 0.0
C1137 C 0.42874 0.83721 0.65863 0.0
C1138 C 0.43188 0.83796 0.63869 0.0
C1139 C 0.42845 0.84076 0.58053 0.0
C1140 C 0.4316 0.83969 0.60043 0.0
H1141 H 0.43862 0.86413 0.69664 0.0
H1142 H 0.4484 0.86176 0.66489 0.0
H1143 H 0.43272 0.80604 0.63486 0.0
H1144 H 0.39786 0.82183 0.54818 0.0
H1145 H 0.40646 0.81726 0.57992 0.0
C1146 C 0.42486 0.15097 0.81289 0.0
C1147 C 0.40923 0.16156 0.80475 0.0
C1148 C 0.42865 0.15287 0.83142 0.0
C1149 C 0.41726 0.18295 0.87233 0.0
H1150 H 0.4229 0.13252 0.89714 0.0
C1151 C 0.3985 0.17145 0.94783 0.0
C1152 C 0.40974 0.15776 0.95789 0.0
C1153 C 0.40212 0.17416 0.92935 0.0
C1154 C 0.42176 0.14678 0.89045 0.0
H1155 H 0.38619 0.1834 0.80953 0.0
H1156 H 0.39246 0.18632 0.84196 0.0
H1157 H 0.42281 0.1334 0.86422 0.0
H1158 H 0.43437 0.13713 0.95675 0.0
H1159 H 0.44074 0.14187 0.92446 0.0
H1160 H 0.41559 0.19621 0.89871 0.0
C1161 C 0.40188 0.17666 0.83398 0.0
C1162 C 0.4217 0.14729 0.87155 0.0
C1163 C 0.39811 0.17479 0.81543 0.0
C1164 C 0.42523 0.14748 0.94926 0.0
C1165 C 0.42888 0.15022 0.93079 0.0
C1166 C 0.41731 0.18244 0.89129 0.0
C1167 C 0.41689 0.16536 0.84225 0.0
C1168 C 0.41911 0.16532 0.86227 0.0
C1169 C 0.41708 0.16326 0.92055 0.0
C1170 C 0.41921 0.16429 0.90054 0.0
H1171 H 0.43367 0.14056 0.80516 0.0
H1172 H 0.4405 0.14416 0.83736 0.0
H1173 H 0.4155 0.1971 0.86556 0.0
H1174 H 0.38633 0.17943 0.95402 0.0
H1175 H 0.39258 0.18411 0.9218 0.0
C1176 C 0.88892 0.84671 0.94416 0.0
C1177 C 0.88754 0.86596 0.95144 0.0
C1178 C 0.89106 0.84384 0.92552 0.0
C1179 C 0.88534 0.86908 0.88108 0.0
H1180 H 0.92039 0.82707 0.86471 0.0
C1181 C 0.91085 0.85968 0.80647 0.0
C1182 C 0.91007 0.84028 0.7994 0.0
C1183 C 0.90752 0.86314 0.82492 0.0
C1184 C 0.91044 0.83875 0.8691 0.0
H1185 H 0.887 0.89728 0.94457 0.0
H1186 H 0.89146 0.8923 0.91217 0.0
H1187 H 0.91582 0.8326 0.89709 0.0
H1188 H 0.9046 0.80941 0.80631 0.0
H1189 H 0.89926 0.81547 0.83844 0.0
H1190 H 0.88036 0.8754 0.85295 0.0
C1191 C 0.89053 0.87939 0.92088 0.0
C1192 C 0.90775 0.84189 0.88764 0.0
C1193 C 0.88823 0.88226 0.93953 0.0
C1194 C 0.90573 0.82448 0.81124 0.0
C1195 C 0.9026 0.82794 0.82968 0.0
C1196 C 0.8882 0.86604 0.86251 0.0
C1197 C 0.89209 0.86014 0.91365 0.0
C1198 C 0.89507 0.85701 0.89388 0.0
C1199 C 0.90354 0.84727 0.83671 0.0
C1200 C 0.90069 0.85077 0.85636 0.0
H1201 H 0.88872 0.83377 0.95283 0.0
H1202 H 0.89189 0.82879 0.92041 0.0
H1203 H 0.87527 0.88068 0.88539 0.0
H1204 H 0.9144 0.87219 0.79789 0.0
H1205 H 0.90852 0.87818 0.83003 0.0
C1206 C 0.88787 0.16131 0.68258 0.0
C1207 C 0.89994 0.14874 0.69305 0.0
C1208 C 0.88994 0.16198 0.66374 0.0
C1209 C 0.90694 0.13109 0.62591 0.0
H1210 H 0.90187 0.17962 0.59802 0.0
C1211 C 0.91267 0.13113 0.54803 0.0
C1212 C 0.89825 0.14229 0.53878 0.0
C1213 C 0.91506 0.13316 0.56675 0.0
C1214 C 0.9032 0.16593 0.60564 0.0
H1215 H 0.92398 0.12732 0.69189 0.0
H1216 H 0.92782 0.12879 0.65912 0.0
H1217 H 0.90225 0.18118 0.63113 0.0
H1218 H 0.87509 0.16438 0.54194 0.0
H1219 H 0.87919 0.16785 0.57458 0.0
H1220 H 0.90748 0.11578 0.60053 0.0
C1221 C 0.91661 0.13797 0.66548 0.0
C1222 C 0.90342 0.16683 0.62457 0.0
C1223 C 0.91455 0.13731 0.6843 0.0
C1224 C 0.88653 0.15579 0.54861 0.0
C1225 C 0.8889 0.15779 0.56732 0.0
C1226 C 0.90669 0.13018 0.60701 0.0
C1227 C 0.90412 0.15006 0.65497 0.0
C1228 C 0.90511 0.14939 0.6349 0.0
C1229 C 0.90306 0.14637 0.57663 0.0
C1230 C 0.90462 0.14757 0.59666 0.0
H1231 H 0.87665 0.17045 0.68894 0.0
H1232 H 0.87999 0.17135 0.656 0.0
H1233 H 0.90792 0.11735 0.63349 0.0
H1234 H 0.92213 0.12086 0.54078 0.0
H1235 H 0.92631 0.12437 0.5735 0.0
C1236 C 0.63405 0.14729 0.30264 0.0
C1237 C 0.61921 0.15107 0.28971 0.0
C1238 C 0.62939 0.14656 0.32108 0.0
C1239 C 0.59118 0.16108 0.3546 0.0
H1240 H 0.61519 0.11922 0.38324 0.0
C1241 C 0.58549 0.15704 0.43284 0.0
C1242 C 0.58389 0.13814 0.4408 0.0
C1243 C 0.58846 0.15902 0.41417 0.0
C1244 C 0.60819 0.13087 0.3754 0.0
H1245 H 0.58797 0.15784 0.28611 0.0
H1246 H 0.57976 0.15603 0.31819 0.0
H1247 H 0.62333 0.12213 0.35122 0.0
H1248 H 0.5834 0.10651 0.43511 0.0
H1249 H 0.58794 0.11 0.40263 0.0
H1250 H 0.57568 0.16951 0.37875 0.0
C1251 C 0.59503 0.15376 0.3141 0.0
C1252 C 0.61309 0.13272 0.3571 0.0
C1253 C 0.59969 0.15453 0.29567 0.0
C1254 C 0.58446 0.12131 0.42952 0.0
C1255 C 0.58734 0.12329 0.41088 0.0
C1256 C 0.58623 0.1592 0.37292 0.0
C1257 C 0.60979 0.14959 0.327 0.0
C1258 C 0.60467 0.14786 0.3465 0.0
C1259 C 0.58981 0.14213 0.40305 0.0
C1260 C 0.59468 0.14405 0.38351 0.0
H1261 H 0.64919 0.14445 0.29852 0.0
H1262 H 0.64116 0.14359 0.33071 0.0
H1263 H 0.58457 0.17301 0.34682 0.0
H1264 H 0.58478 0.17034 0.44105 0.0
H1265 H 0.59037 0.17375 0.40857 0.0
C1266 C 0.568 0.8573 0.05883 0.0
C1267 C 0.58297 0.85933 0.04573 0.0
C1268 C 0.57201 0.86094 0.0771 0.0
C1269 C 0.61394 0.85879 0.10846 0.0
H1270 H 0.57595 0.87987 0.14294 0.0
C1271 C 0.62995 0.86369 0.18542 0.0
C1272 C 0.61438 0.8581 0.19704 0.0
C1273 C 0.62668 0.86577 0.16681 0.0
C1274 C 0.58665 0.87383 0.13347 0.0
H1275 H 0.61364 0.86791 0.04137 0.0
H1276 H 0.62054 0.87469 0.07323 0.0
H1277 H 0.56902 0.88204 0.1105 0.0
H1278 H 0.58338 0.84956 0.19809 0.0
H1279 H 0.57767 0.85315 0.16564 0.0
H1280 H 0.63138 0.85024 0.13141 0.0
C1281 C 0.60575 0.86998 0.06939 0.0
C1282 C 0.58271 0.87513 0.11491 0.0
C1283 C 0.60172 0.86636 0.0511 0.0
C1284 C 0.59558 0.85425 0.18957 0.0
C1285 C 0.5923 0.85635 0.17098 0.0
C1286 C 0.61788 0.85752 0.12701 0.0
C1287 C 0.59113 0.86669 0.08264 0.0
C1288 C 0.59618 0.86736 0.10221 0.0
C1289 C 0.60776 0.86231 0.15942 0.0
C1290 C 0.60414 0.86474 0.13971 0.0
H1291 H 0.5534 0.85204 0.05501 0.0
H1292 H 0.56044 0.85814 0.08696 0.0
H1293 H 0.62446 0.85234 0.09905 0.0
H1294 H 0.64453 0.86703 0.19075 0.0
H1295 H 0.63885 0.87053 0.15825 0.0
C1296 C 0.59699 0.64899 0.55519 0.0
C1297 C 0.59882 0.63042 0.54662 0.0
C1298 C 0.59705 0.65042 0.57408 0.0
C1299 C 0.61434 0.62302 0.61424 0.0
H1300 H 0.58365 0.66241 0.64041 0.0
C1301 C 0.63287 0.64419 0.68759 0.0
C1302 C 0.61711 0.64734 0.69974 0.0
C1303 C 0.62928 0.64183 0.6691 0.0
C1304 C 0.59216 0.65119 0.63333 0.0
H1305 H 0.60141 0.59872 0.55138 0.0
H1306 H 0.60087 0.60119 0.58422 0.0
H1307 H 0.57862 0.65821 0.60785 0.0
H1308 H 0.58518 0.65088 0.7018 0.0
H1309 H 0.57886 0.64623 0.66952 0.0
H1310 H 0.62765 0.61575 0.63968 0.0
C1311 C 0.59984 0.61469 0.57631 0.0
C1312 C 0.58944 0.64893 0.61465 0.0
C1313 C 0.59991 0.61327 0.55743 0.0
C1314 C 0.59765 0.64823 0.69288 0.0
C1315 C 0.59404 0.64579 0.67435 0.0
C1316 C 0.61699 0.62521 0.63289 0.0
C1317 C 0.5988 0.63331 0.58486 0.0
C1318 C 0.60065 0.63496 0.60486 0.0
C1319 C 0.60982 0.64244 0.66227 0.0
C1320 C 0.60614 0.6395 0.64261 0.0
H1321 H 0.59573 0.66249 0.54733 0.0
H1322 H 0.59636 0.66502 0.58021 0.0
H1323 H 0.62341 0.61228 0.60712 0.0
H1324 H 0.64801 0.6432 0.69236 0.0
H1325 H 0.6418 0.6396 0.66012 0.0
C1326 C 0.59162 0.35148 0.93753 0.0
C1327 C 0.59016 0.37123 0.9436 0.0
C1328 C 0.59518 0.34733 0.91924 0.0
C1329 C 0.61616 0.37058 0.87831 0.0
H1330 H 0.59004 0.32755 0.8528 0.0
C1331 C 0.63648 0.35208 0.80472 0.0
C1332 C 0.62039 0.34922 0.79288 0.0
C1333 C 0.63357 0.35219 0.82346 0.0
C1334 C 0.59742 0.33965 0.85975 0.0
H1335 H 0.59076 0.40204 0.935 0.0
H1336 H 0.59632 0.39479 0.90318 0.0
H1337 H 0.58232 0.33359 0.8847 0.0
H1338 H 0.58885 0.34289 0.79153 0.0
H1339 H 0.58366 0.34373 0.82414 0.0
H1340 H 0.63071 0.37717 0.85332 0.0
C1341 C 0.59514 0.38252 0.91262 0.0
C1342 C 0.59313 0.34299 0.87804 0.0
C1343 C 0.59165 0.38667 0.93086 0.0
C1344 C 0.60149 0.34557 0.80024 0.0
C1345 C 0.59856 0.34576 0.81897 0.0
C1346 C 0.6204 0.36729 0.86006 0.0
C1347 C 0.5973 0.36283 0.90665 0.0
C1348 C 0.60228 0.35866 0.88745 0.0
C1349 C 0.61449 0.34948 0.83078 0.0
C1350 C 0.61096 0.35191 0.85051 0.0
H1351 H 0.59023 0.33922 0.94691 0.0
H1352 H 0.5968 0.332 0.91507 0.0
H1353 H 0.62373 0.38257 0.88526 0.0
H1354 H 0.65122 0.35496 0.79954 0.0
H1355 H 0.64621 0.35477 0.83223 0.0
C1356 C 0.89401 0.33576 0.18195 0.0
C1357 C 0.90494 0.34872 0.19305 0.0
C1358 C 0.89706 0.33545 0.16322 0.0
C1359 C 0.91374 0.36813 0.12671 0.0
H1360 H 0.91018 0.3204 0.09748 0.0
C1361 C 0.91644 0.37084 0.04859 0.0
C1362 C 0.90198 0.35941 0.03966 0.0
C1363 C 0.91988 0.36834 0.06714 0.0
C1364 C 0.91114 0.33385 0.10548 0.0
H1365 H 0.92816 0.37104 0.19321 0.0
H1366 H 0.93371 0.37026 0.16059 0.0
H1367 H 0.9111 0.31774 0.13051 0.0
H1368 H 0.87979 0.33642 0.04324 0.0
H1369 H 0.88572 0.33211 0.07552 0.0
H1370 H 0.91322 0.38429 0.10177 0.0
C1371 C 0.92262 0.36049 0.16637 0.0
C1372 C 0.91168 0.33233 0.12436 0.0
C1373 C 0.91958 0.36077 0.1851 0.0
C1374 C 0.89125 0.34523 0.04962 0.0
C1375 C 0.89468 0.34274 0.06814 0.0
C1376 C 0.91318 0.36966 0.10784 0.0
C1377 C 0.91111 0.34813 0.1552 0.0
C1378 C 0.91264 0.34948 0.13518 0.0
C1379 C 0.90892 0.35436 0.07713 0.0
C1380 C 0.91151 0.35256 0.09703 0.0
H1381 H 0.88282 0.32611 0.1877 0.0
H1382 H 0.88784 0.32586 0.15497 0.0
H1383 H 0.91418 0.38164 0.13467 0.0
H1384 H 0.92515 0.38166 0.04123 0.0
H1385 H 0.93112 0.37736 0.07366 0.0
C1386 C 0.92411 0.66033 0.31039 0.0
C1387 C 0.90589 0.66352 0.30154 0.0
C1388 C 0.9253 0.66091 0.32931 0.0
C1389 C 0.89953 0.67934 0.37004 0.0
H1390 H 0.92747 0.63677 0.39457 0.0
C1391 C 0.89359 0.66763 0.44728 0.0
C1392 C 0.91108 0.66261 0.45663 0.0
C1393 C 0.89317 0.66775 0.42834 0.0
C1394 C 0.91981 0.6489 0.38794 0.0
H1395 H 0.87465 0.66995 0.30583 0.0
H1396 H 0.87684 0.67123 0.33868 0.0
H1397 H 0.92695 0.63783 0.3615 0.0
H1398 H 0.94167 0.65324 0.45326 0.0
H1399 H 0.94107 0.65396 0.42031 0.0
H1400 H 0.89245 0.69049 0.39642 0.0
C1401 C 0.89022 0.66843 0.33096 0.0
C1402 C 0.91954 0.6495 0.369 0.0
C1403 C 0.889 0.66774 0.31208 0.0
C1404 C 0.92802 0.65744 0.44655 0.0
C1405 C 0.92762 0.65762 0.42762 0.0
C1406 C 0.89988 0.67879 0.38898 0.0
C1407 C 0.90833 0.66484 0.33978 0.0
C1408 C 0.9093 0.66467 0.35986 0.0
C1409 C 0.91022 0.66289 0.41828 0.0
C1410 C 0.90994 0.66351 0.39815 0.0
H1411 H 0.93748 0.65738 0.30273 0.0
H1412 H 0.93952 0.65836 0.33575 0.0
H1413 H 0.89173 0.69134 0.36336 0.0
H1414 H 0.88031 0.67186 0.45456 0.0
H1415 H 0.87944 0.67161 0.42156 0.0
C1416 C 0.4026 0.34666 0.45355 0.0
C1417 C 0.40048 0.36523 0.46206 0.0
C1418 C 0.40563 0.34538 0.43486 0.0
C1419 C 0.39906 0.37436 0.39266 0.0
H1420 H 0.43208 0.3329 0.37213 0.0
C1421 C 0.41929 0.36947 0.31645 0.0
C1422 C 0.41699 0.35068 0.30836 0.0
C1423 C 0.41759 0.37174 0.33522 0.0
C1424 C 0.42273 0.34447 0.3777 0.0
H1425 H 0.40042 0.39706 0.45742 0.0
H1426 H 0.4065 0.39483 0.42504 0.0
H1427 H 0.42956 0.33622 0.40498 0.0
H1428 H 0.41055 0.31965 0.31386 0.0
H1429 H 0.40809 0.32363 0.34656 0.0
H1430 H 0.39254 0.38273 0.36526 0.0
C1431 C 0.4053 0.38122 0.43277 0.0
C1432 C 0.42123 0.34636 0.39651 0.0
C1433 C 0.40208 0.3825 0.45145 0.0
C1434 C 0.4128 0.33427 0.31954 0.0
C1435 C 0.41134 0.33653 0.33831 0.0
C1436 C 0.40075 0.3726 0.37385 0.0
C1437 C 0.40686 0.36264 0.42422 0.0
C1438 C 0.40922 0.36121 0.40422 0.0
C1439 C 0.41379 0.35526 0.34631 0.0
C1440 C 0.41245 0.35753 0.36622 0.0
H1441 H 0.40183 0.33303 0.46125 0.0
H1442 H 0.40656 0.3308 0.42873 0.0
H1443 H 0.38941 0.38574 0.3981 0.0
H1444 H 0.42281 0.38242 0.30842 0.0
H1445 H 0.4197 0.38633 0.34111 0.0
C1446 C 0.4185 0.63589 0.04136 0.0
C1447 C 0.40351 0.64624 0.03209 0.0
C1448 C 0.42186 0.63932 0.05979 0.0
C1449 C 0.41042 0.67366 0.09786 0.0
H1450 H 0.4148 0.62593 0.12697 0.0
C1451 C 0.38997 0.67038 0.17359 0.0
C1452 C 0.401 0.65797 0.18512 0.0
C1453 C 0.3939 0.67093 0.15501 0.0
C1454 C 0.41399 0.63945 0.11906 0.0
H1455 H 0.38069 0.66873 0.03476 0.0
H1456 H 0.38639 0.6746 0.06692 0.0
H1457 H 0.41527 0.62342 0.09409 0.0
H1458 H 0.4253 0.63689 0.18623 0.0
H1459 H 0.43234 0.63803 0.1538 0.0
H1460 H 0.4085 0.68959 0.12295 0.0
C1461 C 0.39579 0.66405 0.05991 0.0
C1462 C 0.41426 0.63802 0.10018 0.0
C1463 C 0.39248 0.66067 0.04146 0.0
C1464 C 0.41658 0.64668 0.17775 0.0
C1465 C 0.4205 0.64719 0.15914 0.0
C1466 C 0.41013 0.67509 0.11677 0.0
C1467 C 0.41025 0.65313 0.06937 0.0
C1468 C 0.41212 0.65506 0.08936 0.0
C1469 C 0.40896 0.65905 0.14753 0.0
C1470 C 0.41153 0.65795 0.12757 0.0
H1471 H 0.42749 0.62497 0.03441 0.0
H1472 H 0.43337 0.63093 0.06661 0.0
H1473 H 0.40905 0.6871 0.08989 0.0
H1474 H 0.37807 0.67948 0.17889 0.0
H1475 H 0.38462 0.68009 0.14642 0.0
C1476 C 0.08553 0.64619 0.92669 0.0
C1477 C 0.09747 0.65786 0.93808 0.0
C1478 C 0.09016 0.64417 0.90833 0.0
C1479 C 0.11297 0.67095 0.87141 0.0
H1480 H 0.11199 0.62036 0.84631 0.0
C1481 C 0.1245 0.66649 0.79413 0.0
C1482 C 0.11247 0.65302 0.78463 0.0
C1483 C 0.12547 0.66591 0.81305 0.0
C1484 C 0.11212 0.63463 0.85307 0.0
H1485 H 0.1237 0.67639 0.93936 0.0
H1486 H 0.13164 0.67315 0.90705 0.0
H1487 H 0.10842 0.6213 0.87925 0.0
H1488 H 0.09204 0.62841 0.78737 0.0
H1489 H 0.09313 0.62774 0.82036 0.0
H1490 H 0.11563 0.68447 0.84534 0.0
C1491 C 0.11881 0.66545 0.91242 0.0
C1492 C 0.1102 0.63512 0.87193 0.0
C1493 C 0.11435 0.6672 0.93087 0.0
C1494 C 0.10163 0.63879 0.79437 0.0
C1495 C 0.10235 0.63838 0.81329 0.0
C1496 C 0.11459 0.6705 0.85253 0.0
C1497 C 0.10666 0.65403 0.90098 0.0
C1498 C 0.11039 0.6533 0.88123 0.0
C1499 C 0.11417 0.65203 0.8229 0.0
C1500 C 0.11395 0.65235 0.84309 0.0
H1501 H 0.07254 0.63873 0.93199 0.0
H1502 H 0.08047 0.63541 0.89975 0.0
H1503 H 0.11292 0.68517 0.87826 0.0
H1504 H 0.13321 0.67742 0.78689 0.0
H1505 H 0.13504 0.67639 0.81994 0.0
C1506 C 0.12404 0.3501 0.68049 0.0
C1507 C 0.1093 0.34635 0.69351 0.0
C1508 C 0.1193 0.35059 0.66208 0.0
C1509 C 0.08108 0.33662 0.62839 0.0
H1510 H 0.10437 0.37998 0.60114 0.0
C1511 C 0.07833 0.34296 0.55011 0.0
C1512 C 0.07731 0.36207 0.54248 0.0
C1513 C 0.07973 0.34049 0.56887 0.0
C1514 C 0.09752 0.36794 0.60859 0.0
H1515 H 0.07822 0.33899 0.69729 0.0
H1516 H 0.06983 0.34036 0.66517 0.0
H1517 H 0.11245 0.37606 0.63303 0.0
H1518 H 0.07555 0.39351 0.54885 0.0
H1519 H 0.07734 0.38914 0.58146 0.0
H1520 H 0.06586 0.32876 0.60388 0.0
C1521 C 0.08509 0.34285 0.66921 0.0
C1522 C 0.10242 0.36549 0.62681 0.0
C1523 C 0.08985 0.34231 0.68764 0.0
C1524 C 0.07633 0.37856 0.55414 0.0
C1525 C 0.07761 0.37609 0.57288 0.0
C1526 C 0.07613 0.33909 0.6101 0.0
C1527 C 0.09969 0.34739 0.65627 0.0
C1528 C 0.09437 0.34975 0.63689 0.0
C1529 C 0.08 0.35709 0.58041 0.0
C1530 C 0.08435 0.35477 0.60001 0.0
H1531 H 0.13914 0.35335 0.68451 0.0
H1532 H 0.13095 0.35377 0.6524 0.0
H1533 H 0.0747 0.32429 0.63579 0.0
H1534 H 0.07865 0.3299 0.54158 0.0
H1535 H 0.08154 0.32564 0.57425 0.0
C1536 C 0.07698 0.92591 0.23581 0.0
C1537 C 0.09442 0.92063 0.24509 0.0
C1538 C 0.07012 0.94556 0.23623 0.0
C1539 C 0.07424 0.99346 0.26038 0.0
H1540 H 0.07299 0.01776 0.21269 0.0
C1541 C 0.09781 0.07207 0.23068 0.0
C1542 C 0.08772 0.08524 0.2422 0.0
C1543 C 0.09202 0.0522 0.2295 0.0
C1544 C 0.07296 0.01114 0.22609 0.0
H1545 H 0.11761 0.93125 0.26295 0.0
H1546 H 0.10528 0.96528 0.26424 0.0
H1547 H 0.07466 0.98157 0.21543 0.0
H1548 H 0.06316 0.08826 0.26096 0.0
H1549 H 0.05328 0.05322 0.25922 0.0
H1550 H 0.07344 0.02303 0.27105 0.0
C1551 C 0.097 0.95439 0.2565 0.0
C1552 C 0.0738 0.99045 0.22766 0.0
C1553 C 0.10409 0.93494 0.25573 0.0
C1554 C 0.07101 0.07845 0.25177 0.0
C1555 C 0.06547 0.05841 0.2509 0.0
C1556 C 0.07308 0.01412 0.25881 0.0
C1557 C 0.08032 0.96007 0.24631 0.0
C1558 C 0.07518 0.98145 0.24481 0.0
C1559 C 0.0763 0.04498 0.24013 0.0
C1560 C 0.07315 0.02321 0.24165 0.0
H1561 H 0.06939 0.91518 0.22732 0.0
H1562 H 0.05723 0.94957 0.22826 0.0
H1563 H 0.07525 0.98689 0.27376 0.0
H1564 H 0.11082 0.07693 0.22327 0.0
H1565 H 0.10077 0.0422 0.22123 0.0
C1566 C 0.17536 0.80656 0.51649 0.0
C1567 C 0.16962 0.82273 0.50565 0.0
C1568 C 0.19521 0.80035 0.51683 0.0
C1569 C 0.24326 0.80372 0.49284 0.0
H1570 H 0.26683 0.80717 0.54075 0.0
C1571 C 0.32118 0.83103 0.52195 0.0
C1572 C 0.33443 0.82076 0.51063 0.0
C1573 C 0.30143 0.82491 0.52346 0.0
C1574 C 0.26043 0.80587 0.52732 0.0
H1575 H 0.17967 0.84426 0.48589 0.0
H1576 H 0.21409 0.833 0.48597 0.0
H1577 H 0.23068 0.80769 0.53748 0.0
H1578 H 0.3377 0.79531 0.49286 0.0
H1579 H 0.30306 0.78477 0.49534 0.0
H1580 H 0.27296 0.8028 0.48259 0.0
C1581 C 0.20339 0.82521 0.49431 0.0
C1582 C 0.23976 0.80603 0.52545 0.0
C1583 C 0.18371 0.83169 0.49428 0.0
C1584 C 0.3279 0.80341 0.50185 0.0
C1585 C 0.30802 0.79748 0.50312 0.0
C1586 C 0.2639 0.80327 0.49472 0.0
C1587 C 0.20949 0.80991 0.50601 0.0
C1588 C 0.23099 0.80566 0.50814 0.0
C1589 C 0.29444 0.80859 0.51345 0.0
C1590 C 0.27273 0.80502 0.51193 0.0
H1591 H 0.16482 0.79959 0.52558 0.0
H1592 H 0.19953 0.78852 0.52596 0.0
H1593 H 0.23689 0.80335 0.47934 0.0
H1594 H 0.3258 0.84448 0.52881 0.0
H1595 H 0.29131 0.83387 0.53143 0.0
C1596 C 0.44909 0.07784 0.75186 0.0
C1597 C 0.43234 0.08305 0.76219 0.0
C1598 C 0.45511 0.05797 0.75065 0.0
C1599 C 0.44814 0.00761 0.77024 0.0
H1600 H 0.44936 0.98991 0.72017 0.0
C1601 C 0.42284 0.93446 0.73007 0.0
C1602 C 0.43124 0.91952 0.7409 0.0
C1603 C 0.42928 0.95412 0.7316 0.0
C1604 C 0.44929 0.99463 0.73422 0.0
H1605 H 0.40981 0.07193 0.7805 0.0
H1606 H 0.42058 0.03745 0.7788 0.0
H1607 H 0.44956 0.02541 0.72697 0.0
H1608 H 0.45378 0.91326 0.76112 0.0
H1609 H 0.46493 0.94768 0.76389 0.0
H1610 H 0.44688 0.97685 0.77746 0.0
C1611 C 0.42901 0.04858 0.77152 0.0
C1612 C 0.44957 0.01496 0.73813 0.0
C1613 C 0.42282 0.06835 0.7725 0.0
C1614 C 0.44713 0.92441 0.75245 0.0
C1615 C 0.45338 0.94415 0.75418 0.0
C1616 C 0.44806 0.98728 0.76633 0.0
C1617 C 0.4447 0.04305 0.76001 0.0
C1618 C 0.44834 0.02168 0.75617 0.0
C1619 C 0.44409 0.9593 0.74418 0.0
C1620 C 0.44798 0.98058 0.74826 0.0
H1621 H 0.45663 0.08881 0.74362 0.0
H1622 H 0.46733 0.05416 0.74177 0.0
H1623 H 0.44729 0.01234 0.78426 0.0
H1624 H 0.41054 0.93114 0.7211 0.0
H1625 H 0.42171 0.96544 0.7238 0.0
C1626 C 0.31592 0.1668 0.98274 0.0
C1627 C 0.32769 0.17789 0.99472 0.0
C1628 C 0.29545 0.16986 0.98193 0.0
C1629 C 0.25451 0.16506 -0.003 0.0
H1630 H 0.22413 0.21364 0.00192 0.0
C1631 C 0.17305 0.16004 0.01513 0.0
C1632 C 0.16012 0.17045 0.00366 0.0
C1633 C 0.19319 0.1648 0.01569 0.0
C1634 C 0.23245 0.19998 0.00054 0.0
H1635 H 0.32757 0.20195 0.01424 0.0
H1636 H 0.29165 0.20713 0.01304 0.0
H1637 H 0.26014 0.21533 -0.00322 0.0
H1638 H 0.15777 0.19499 0.98477 0.0
H1639 H 0.19316 0.20319 0.98556 0.0
H1640 H 0.22718 0.14962 0.00052 0.0
C1641 C 0.29826 0.19624 0.00407 0.0
C1642 C 0.25304 0.20094 -0.00235 0.0
C1643 C 0.31886 0.19333 0.00471 0.0
C1644 C 0.16739 0.18687 0.99392 0.0
C1645 C 0.18768 0.19151 0.99431 0.0
C1646 C 0.23412 0.16411 -5e-05 0.0
C1647 C 0.28623 0.18383 0.99334 0.0
C1648 C 0.26428 0.18344 0.99575 0.0
C1649 C 0.20094 0.17986 0.00452 0.0
C1650 C 0.2228 0.1815 0.00187 0.0
H1651 H 0.32237 0.15487 0.97484 0.0
H1652 H 0.28668 0.16041 0.97314 0.0
H1653 H 0.26268 0.15126 0.99598 0.0
H1654 H 0.16781 0.14737 0.02281 0.0
H1655 H 0.20292 0.15588 0.02408 0.0
C1656 C 0.91811 0.06189 0.72458 0.0
C1657 C 0.92848 0.07565 0.7353 0.0
C1658 C 0.92446 0.04219 0.72344 0.0
C1659 C 0.94449 1.0016 0.71974 0.0
H1660 H 0.94796 0.97868 0.76791 0.0
C1661 C 0.94667 0.91655 0.73158 0.0
C1662 C 0.93078 0.9104 0.74257 0.0
C1663 C 0.95211 0.93664 0.73089 0.0
C1664 C 0.94733 0.98489 0.75436 0.0
H1665 H 0.9542 0.07985 0.75254 0.0
H1666 H 0.96513 0.0452 0.7508 0.0
H1667 H 0.9476 0.01476 0.76432 0.0
H1668 H 0.90894 0.92003 0.76222 0.0
H1669 H 0.91886 0.95487 0.76155 0.0
H1670 H 0.94338 0.97167 0.70987 0.0
C1671 C 0.9522 0.04976 0.74313 0.0
C1672 C 0.94725 0.00553 0.75229 0.0
C1673 C 0.94605 0.06962 0.74398 0.0
C1674 C 0.9213 0.92439 0.7537 0.0
C1675 C 0.92701 0.94431 0.75334 0.0
C1676 C 0.94487 0.98094 0.7218 0.0
C1677 C 0.94112 0.03572 0.73328 0.0
C1678 C 0.94516 0.01411 0.735 0.0
C1679 C 0.94206 0.95077 0.74153 0.0
C1680 C 0.94562 0.97238 0.73918 0.0
H1681 H 0.90446 0.06614 0.71784 0.0
H1682 H 0.9155 0.03171 0.71586 0.0
H1683 H 0.94293 0.0078 0.70626 0.0
H1684 H 0.95406 0.90608 0.72269 0.0
H1685 H 0.96376 0.94123 0.72168 0.0
C1686 C 0.80988 0.15495 0.50776 0.0
C1687 C 0.82203 0.16689 0.49684 0.0
C1688 C 0.78944 0.15822 0.50847 0.0
C1689 C 0.74785 0.19134 0.49414 0.0
H1690 H 0.72071 0.14088 0.48918 0.0
C1691 C 0.66673 0.15335 0.47513 0.0
C1692 C 0.65401 0.16418 0.48646 0.0
C1693 C 0.68704 0.15734 0.47488 0.0
C1694 C 0.728 0.15516 0.49031 0.0
H1695 H 0.82264 0.19245 0.47903 0.0
H1696 H 0.78674 0.19797 0.47994 0.0
H1697 H 0.75621 0.1414 0.49374 0.0
H1698 H 0.65227 0.18856 0.50556 0.0
H1699 H 0.68798 0.19535 0.50542 0.0
H1700 H 0.71931 0.20498 0.49027 0.0
C1701 C 0.79302 0.18629 0.48823 0.0
C1702 C 0.74841 0.15545 0.4933 0.0
C1703 C 0.8136 0.18318 0.48776 0.0
C1704 C 0.66174 0.18015 0.4965 0.0
C1705 C 0.68222 0.18398 0.49647 0.0
C1706 C 0.72725 0.19104 0.49114 0.0
C1707 C 0.78061 0.17322 0.49791 0.0
C1708 C 0.75865 0.17349 0.49534 0.0
C1709 C 0.6952 0.17198 0.48628 0.0
C1710 C 0.71711 0.1729 0.48907 0.0
H1711 H 0.81604 0.14234 0.51493 0.0
H1712 H 0.78042 0.14824 0.5165 0.0
H1713 H 0.75527 0.2055 0.49565 0.0
H1714 H 0.66111 0.141 0.46723 0.0
H1715 H 0.69652 0.14819 0.46645 0.0
C1716 C 0.60359 0.07236 0.24858 0.0
C1717 C 0.59361 0.08647 0.23797 0.0
C1718 C 0.59611 0.05313 0.25029 0.0
C1719 C 0.57207 0.01506 0.25647 0.0
H1720 H 0.57006 0.98859 0.20975 0.0
C1721 C 0.56795 0.92997 0.25112 0.0
C1722 C 0.5851 0.92288 0.24244 0.0
C1723 C 0.56232 0.94988 0.2492 0.0
C1724 C 0.57017 0.99584 0.22287 0.0
H1725 H 0.56772 0.09184 0.22123 0.0
H1726 H 0.55493 0.05781 0.22374 0.0
H1727 H 0.57225 0.02486 0.21109 0.0
H1728 H 0.60886 0.93033 0.22391 0.0
H1729 H 0.59863 0.96482 0.21999 0.0
H1730 H 0.57091 0.98602 0.26825 0.0
C1731 C 0.56832 0.06183 0.231 0.0
C1732 C 0.57134 0.01656 0.22365 0.0
C1733 C 0.57557 0.08127 0.22966 0.0
C1734 C 0.59553 0.93546 0.23066 0.0
C1735 C 0.58964 0.95517 0.2284 0.0
C1736 C 0.57054 0.99438 0.2557 0.0
C1737 C 0.57874 0.04751 0.24107 0.0
C1738 C 0.57307 0.02628 0.24044 0.0
C1739 C 0.57348 0.96278 0.23822 0.0
C1740 C 0.57035 0.98454 0.23889 0.0
H1741 H 0.61755 0.07601 0.25507 0.0
H1742 H 0.60454 0.04232 0.25798 0.0
H1743 H 0.57338 0.02223 0.26957 0.0
H1744 H 0.55983 0.9206 0.26047 0.0
H1745 H 0.54981 0.95542 0.25692 0.0
C1746 C 0.81289 0.82064 0.00646 0.0
C1747 C 0.8184 0.84043 0.00302 0.0
C1748 C 0.79286 0.81496 0.00571 0.0
C1749 C 0.74419 0.83815 0.01221 0.0
H1750 H 0.72172 0.7894 0.99324 0.0
C1751 C 0.66239 0.81092 0.99048 0.0
C1752 C 0.65198 0.82071 0.00436 0.0
C1753 C 0.68296 0.80813 0.99187 0.0
C1754 C 0.72781 0.80305 -0.00136 0.0
H1755 H 0.8076 0.86927 0.99456 0.0
H1756 H 0.77297 0.85933 0.99286 0.0
H1757 H 0.75754 0.79559 0.99044 0.0
H1758 H 0.65421 0.83311 0.03133 0.0
H1759 H 0.68974 0.82717 0.0343 0.0
H1760 H 0.71483 0.84613 0.0199 0.0
C1761 C 0.78391 0.84831 -0.00335 0.0
C1762 C 0.74831 0.80654 -0.0029 0.0
C1763 C 0.80378 0.85399 -0.00249 0.0
C1764 C 0.66194 0.82552 0.02046 0.0
C1765 C 0.68234 0.82237 0.02202 0.0
C1766 C 0.7239 0.83468 0.01378 0.0
C1767 C 0.77809 0.82898 0.00147 0.0
C1768 C 0.75663 0.82433 0.0036 0.0
C1769 C 0.69332 0.81489 0.00728 0.0
C1770 C 0.71534 0.81718 0.00691 0.0
H1771 H 0.82386 0.80989 0.01082 0.0
H1772 H 0.78883 0.79995 0.00948 0.0
H1773 H 0.75014 0.85184 0.01767 0.0
H1774 H 0.65508 0.80731 0.97782 0.0
H1775 H 0.69088 0.80232 0.98025 0.0
C1776 C 0.60072 0.43284 0.76023 0.0
C1777 C 0.58991 0.41991 0.74904 0.0
C1778 C 0.59479 0.45257 0.76236 0.0
C1779 C 0.57339 0.49152 0.73569 0.0
H1780 H 0.57595 0.52206 0.78025 0.0
C1781 C 0.57456 0.57871 0.76186 0.0
C1782 C 0.59154 0.58516 0.7525 0.0
C1783 C 0.56858 0.55879 0.76085 0.0
C1784 C 0.57483 0.51373 0.76772 0.0
H1785 H 0.56403 0.41718 0.73178 0.0
H1786 H 0.55391 0.45202 0.73512 0.0
H1787 H 0.57566 0.48572 0.78158 0.0
H1788 H 0.61483 0.57637 0.73395 0.0
H1789 H 0.60396 0.54188 0.73159 0.0
H1790 H 0.57397 0.5195 0.72179 0.0
C1791 C 0.56677 0.44672 0.7425 0.0
C1792 C 0.57477 0.49296 0.76848 0.0
C1793 C 0.57245 0.42679 0.74072 0.0
C1794 C 0.60163 0.57177 0.74121 0.0
C1795 C 0.59538 0.55206 0.73984 0.0
C1796 C 0.57382 0.51228 0.73491 0.0
C1797 C 0.57819 0.45992 0.75298 0.0
C1798 C 0.57454 0.48165 0.75246 0.0
C1799 C 0.5792 0.5452 0.75009 0.0
C1800 C 0.57504 0.52357 0.75091 0.0
H1801 H 0.61431 0.42791 0.76667 0.0
H1802 H 0.60399 0.46243 0.77038 0.0
H1803 H 0.57341 0.4832 0.72311 0.0
H1804 H 0.5667 0.58871 0.77086 0.0
H1805 H 0.55607 0.55386 0.76889 0.0
C1806 C 0.81415 0.34687 0.01253 0.0
C1807 C 0.82474 0.33527 6e-05 0.0
C1808 C 0.79364 0.34473 0.01427 0.0
C1809 C 0.75223 0.35172 0.00136 0.0
H1810 H 0.71938 0.30494 0.99521 0.0
C1811 C 0.67096 0.36111 0.9834 0.0
C1812 C 0.65729 0.35043 0.99389 0.0
C1813 C 0.69097 0.35581 0.98325 0.0
C1814 C 0.72838 0.31811 -0.003 0.0
H1815 H 0.82255 0.31139 0.98051 0.0
H1816 H 0.7865 0.3079 0.98319 0.0
H1817 H 0.75535 0.30127 -0.00043 0.0
H1818 H 0.65354 0.32504 0.01161 0.0
H1819 H 0.68876 0.31591 0.01161 0.0
H1820 H 0.72561 0.36861 -0.00097 0.0
C1821 C 0.79405 0.31839 0.99193 0.0
C1822 C 0.74897 0.31602 -0.00059 0.0
C1823 C 0.81472 0.3203 0.99044 0.0
C1824 C 0.66376 0.33342 0.00324 0.0
C1825 C 0.68394 0.32823 0.00328 0.0
C1826 C 0.73184 0.35379 -0.00107 0.0
C1827 C 0.78317 0.33131 0.00319 0.0
C1828 C 0.76114 0.33285 0.00163 0.0
C1829 C 0.69788 0.33991 0.99388 0.0
C1830 C 0.71963 0.33708 -0.00347 0.0
H1831 H 0.82157 0.35851 0.02008 0.0
H1832 H 0.78583 0.35452 0.02348 0.0
H1833 H 0.76107 0.36507 0.00262 0.0
H1834 H 0.66633 0.3742 0.97597 0.0
H1835 H 0.70121 0.36479 0.97544 0.0
C1836 C 0.95163 0.58016 0.25005 0.0
C1837 C 0.93492 0.58546 0.26042 0.0
C1838 C 0.9575 0.56027 0.24877 0.0
C1839 C 0.95058 0.50988 0.26803 0.0
H1840 H 0.94989 0.4926 0.21782 0.0
C1841 C 0.92233 0.43764 0.22896 0.0
C1842 C 0.93139 0.42243 0.23899 0.0
C1843 C 0.92923 0.45715 0.2302 0.0
C1844 C 0.95041 0.49721 0.2319 0.0
H1845 H 0.91234 0.57445 0.27871 0.0
H1846 H 0.9229 0.53987 0.27691 0.0
H1847 H 0.95065 0.52804 0.22486 0.0
H1848 H 0.95555 0.4155 0.25737 0.0
H1849 H 0.96736 0.44975 0.25984 0.0
H1850 H 0.94942 0.47905 0.27505 0.0
C1851 C 0.93139 0.55099 0.26966 0.0
C1852 C 0.95098 0.51749 0.23594 0.0
C1853 C 0.92531 0.57079 0.2707 0.0
C1854 C 0.94835 0.42688 0.24936 0.0
C1855 C 0.95501 0.44651 0.2509 0.0
C1856 C 0.95029 0.48959 0.26399 0.0
C1857 C 0.947 0.5454 0.25809 0.0
C1858 C 0.9504 0.52405 0.25405 0.0
C1859 C 0.94512 0.46192 0.24176 0.0
C1860 C 0.94951 0.48306 0.24587 0.0
H1861 H 0.95921 0.5911 0.2418 0.0
H1862 H 0.96965 0.5564 0.23983 0.0
H1863 H 0.9502 0.51452 0.2821 0.0
H1864 H 0.9092 0.43464 0.22093 0.0
H1865 H 0.92121 0.46871 0.22309 0.0
C1866 C 0.67417 0.68437 0.49709 0.0
C1867 C 0.66926 0.66564 0.50419 0.0
C1868 C 0.69346 0.69185 0.49896 0.0
C1869 C 0.74092 0.68612 0.52356 0.0
H1870 H 0.76587 0.69479 0.4768 0.0
C1871 C 0.82079 0.66975 0.49286 0.0
C1872 C 0.8334 0.67899 0.50544 0.0
C1873 C 0.80071 0.67477 0.49205 0.0
C1874 C 0.75905 0.69276 0.48998 0.0
H1875 H 0.68012 0.6407 0.51981 0.0
H1876 H 0.71356 0.65403 0.52361 0.0
H1877 H 0.72977 0.69143 0.4787 0.0
H1878 H 0.83519 0.70144 0.52643 0.0
H1879 H 0.79978 0.70984 0.52538 0.0
H1880 H 0.77029 0.68659 0.53472 0.0
C1881 C 0.70262 0.66287 0.51649 0.0
C1882 C 0.73841 0.69094 0.49109 0.0
C1883 C 0.68351 0.65521 0.51428 0.0
C1884 C 0.82582 0.6942 0.5165 0.0
C1885 C 0.80557 0.69891 0.51599 0.0
C1886 C 0.76154 0.68827 0.52249 0.0
C1887 C 0.708 0.68093 0.50831 0.0
C1888 C 0.72921 0.68689 0.5078 0.0
C1889 C 0.79273 0.68884 0.50408 0.0
C1890 C 0.77086 0.6909 0.5056 0.0
H1891 H 0.66353 0.69261 0.48903 0.0
H1892 H 0.69723 0.70582 0.49254 0.0
H1893 H 0.7342 0.68305 0.53661 0.0
H1894 H 0.82626 0.65792 0.48424 0.0
H1895 H 0.79116 0.66664 0.48284 0.0
C1896 C 0.44439 0.58386 0.24608 0.0
C1897 C 0.42731 0.58791 0.23577 0.0
C1898 C 0.45184 0.56447 0.24715 0.0
C1899 C 0.44917 0.5209 0.25917 0.0
H1900 H 0.45023 0.48343 0.21923 0.0
C1901 C 0.42689 0.43902 0.26485 0.0
C1902 C 0.43714 0.4247 0.25469 0.0
C1903 C 0.43214 0.45903 0.26374 0.0
C1904 C 0.45038 0.49373 0.23052 0.0
H1905 H 0.40555 0.57532 0.21748 0.0
H1906 H 0.41882 0.54168 0.21893 0.0
H1907 H 0.44812 0.51902 0.21297 0.0
H1908 H 0.46148 0.41989 0.23598 0.0
H1909 H 0.47043 0.4551 0.23373 0.0
H1910 H 0.45024 0.49555 0.27673 0.0
C1911 C 0.42642 0.55335 0.22627 0.0
C1912 C 0.44903 0.51409 0.22693 0.0
C1913 C 0.41878 0.57261 0.22547 0.0
C1914 C 0.45347 0.43061 0.24413 0.0
C1915 C 0.45848 0.45075 0.24272 0.0
C1916 C 0.45025 0.50054 0.26276 0.0
C1917 C 0.44255 0.54891 0.23766 0.0
C1918 C 0.44783 0.52785 0.24122 0.0
C1919 C 0.44752 0.46521 0.25216 0.0
C1920 C 0.45029 0.48672 0.24848 0.0
H1921 H 0.45114 0.59534 0.25434 0.0
H1922 H 0.46434 0.56149 0.25598 0.0
H1923 H 0.4481 0.53111 0.27048 0.0
H1924 H 0.41419 0.43485 0.27301 0.0
H1925 H 0.42329 0.46982 0.27105 0.0
C1926 C 0.31197 0.6611 0.00628 0.0
C1927 C 0.32515 0.67113 0.99476 0.0
C1928 C 0.29316 0.66884 0.00979 0.0
C1929 C 0.25533 0.6903 0.01929 0.0
H1930 H 0.22638 0.70112 0.97487 0.0
C1931 C 0.16812 0.69714 0.99485 0.0
C1932 C 0.16207 0.67838 0.00114 0.0
C1933 C 0.18827 0.70259 0.99548 0.0
C1934 C 0.23431 0.69868 0.98746 0.0
H1935 H 0.32938 0.69765 0.97855 0.0
H1936 H 0.29624 0.71116 0.9846 0.0
H1937 H 0.26266 0.69966 0.97433 0.0
H1938 H 0.17234 0.65088 0.01337 0.0
H1939 H 0.20688 0.66046 0.01468 0.0
H1940 H 0.22693 0.68788 0.03211 0.0
C1941 C 0.30056 0.69732 0.99095 0.0
C1942 C 0.25509 0.69784 0.98718 0.0
C1943 C 0.31957 0.68968 0.98763 0.0
C1944 C 0.17642 0.66539 0.00825 0.0
C1945 C 0.19625 0.67094 0.00921 0.0
C1946 C 0.23463 0.69107 0.01954 0.0
C1947 C 0.28696 0.6867 0.0017 0.0
C1948 C 0.26575 0.69267 0.00292 0.0
C1949 C 0.20244 0.68955 0.00287 0.0
C1950 C 0.2239 0.69433 0.00347 0.0
H1951 H 0.31587 0.64677 0.01192 0.0
H1952 H 0.28302 0.66013 0.01795 0.0
H1953 H 0.26312 0.68667 0.03171 0.0
H1954 H 0.15736 0.70746 0.98935 0.0
H1955 H 0.19276 0.71699 0.9904 0.0
C1956 C 0.06338 0.4211 0.74797 0.0
C1957 C 0.08105 0.41532 0.73935 0.0
C1958 C 0.05649 0.44068 0.7464 0.0
C1959 C 0.05974 0.48557 0.75358 0.0
H1960 H 0.06427 0.51725 0.70987 0.0
C1961 C 0.0883 0.56541 0.75176 0.0
C1962 C 0.08084 0.57882 0.7389 0.0
C1963 C 0.08088 0.54609 0.75277 0.0
C1964 C 0.0625 0.50863 0.72216 0.0
H1965 H 0.10455 0.42485 0.72133 0.0
H1966 H 0.0923 0.4587 0.71815 0.0
H1967 H 0.0646 0.48107 0.70774 0.0
H1968 H 0.05916 0.58295 0.71754 0.0
H1969 H 0.04632 0.54889 0.71907 0.0
H1970 H 0.05886 0.51314 0.7681 0.0
C1971 C 0.08377 0.4483 0.7262 0.0
C1972 C 0.06284 0.48791 0.72095 0.0
C1973 C 0.09084 0.42892 0.72805 0.0
C1974 C 0.06494 0.57297 0.72778 0.0
C1975 C 0.05775 0.55345 0.72854 0.0
C1976 C 0.05961 0.5063 0.75482 0.0
C1977 C 0.06695 0.45462 0.73588 0.0
C1978 C 0.06217 0.47616 0.7367 0.0
C1979 C 0.0661 0.53963 0.74066 0.0
C1980 C 0.06169 0.51805 0.73917 0.0
H1981 H 0.05569 0.41096 0.75696 0.0
H1982 H 0.04346 0.44513 0.75398 0.0
H1983 H 0.05933 0.47695 0.76598 0.0
H1984 H 0.10067 0.56954 0.76037 0.0
H1985 H 0.08778 0.5358 0.76212 0.0
C1986 C 0.30968 0.34723 0.48658 0.0
C1987 C 0.32179 0.33521 0.49745 0.0
C1988 C 0.28934 0.34356 0.48534 0.0
C1989 C 0.24801 0.30936 0.49776 0.0
H1990 H 0.22029 0.35919 0.50486 0.0
C1991 C 0.16618 0.34568 0.5168 0.0
C1992 C 0.15398 0.33584 0.50429 0.0
C1993 C 0.18645 0.34155 0.51758 0.0
C1994 C 0.22774 0.34507 0.50312 0.0
H1995 H 0.32249 0.30902 0.51449 0.0
H1996 H 0.28677 0.30276 0.5126 0.0
H1997 H 0.25586 0.35928 0.5007 0.0
H1998 H 0.15304 0.31286 0.48373 0.0
H1999 H 0.18864 0.30585 0.48484 0.0
H2000 H 0.21954 0.29524 0.50051 0.0
C2001 C 0.29302 0.31485 0.50478 0.0
C2002 C 0.24819 0.34516 0.50037 0.0
C2003 C 0.3135 0.31838 0.50581 0.0
C2004 C 0.16209 0.32051 0.49367 0.0
C2005 C 0.18251 0.31656 0.49426 0.0
C2006 C 0.22737 0.30928 0.50048 0.0
C2007 C 0.28059 0.32802 0.49527 0.0
C2008 C 0.25863 0.32736 0.49756 0.0
C2009 C 0.19506 0.32777 0.50558 0.0
C2010 C 0.21703 0.32718 0.5033 0.0
H2011 H 0.31572 0.36026 0.47997 0.0
H2012 H 0.28028 0.35367 0.47747 0.0
H2013 H 0.25563 0.29539 0.49567 0.0
H2014 H 0.16027 0.35751 0.52517 0.0
H2015 H 0.1956 0.35005 0.52684 0.0
C2016 C 0.96863 0.32103 0.25637 0.0
C2017 C 0.94853 0.31627 0.25895 0.0
C2018 C 0.9831 0.30596 0.25625 0.0
C2019 C 0.98779 0.25076 0.25098 0.0
H2020 H 0.0408 0.25943 0.26966 0.0
C2021 C 0.04626 0.18739 0.26015 0.0
C2022 C 0.06554 0.19194 0.25414 0.0
C2023 C 0.03161 0.20226 0.26093 0.0
C2024 C 0.02606 0.2568 0.26432 0.0
H2025 H 0.92806 0.29211 0.2644 0.0
H2026 H 0.95301 0.26635 0.26482 0.0
H2027 H 0.01656 0.2863 0.27083 0.0
H2028 H 0.08427 0.21569 0.24385 0.0
H2029 H 0.05901 0.24121 0.24533 0.0
H2030 H 0.99731 0.22115 0.24473 0.0
C2031 C 0.95772 0.28143 0.26214 0.0
C2032 C 0.01217 0.27227 0.2649 0.0
C2033 C 0.94336 0.29633 0.26203 0.0
C2034 C 0.06967 0.21155 0.24867 0.0
C2035 C 0.05519 0.22631 0.24962 0.0
C2036 C 1.00162 0.23525 0.25059 0.0
C2037 C 0.97778 0.28589 0.25892 0.0
C2038 C 0.99281 0.26951 0.2582 0.0
C2039 C 0.03605 0.22196 0.25591 0.0
C2040 C 0.02096 0.23811 0.25715 0.0
H2041 H 0.97307 0.33625 0.25394 0.0
H2042 H 0.99838 0.31003 0.25361 0.0
H2043 H 0.97321 0.24809 0.24532 0.0
H2044 H 0.04258 0.17249 0.26451 0.0
H2045 H 0.01696 0.19844 0.26586 0.0
C2046 C 0.06766 0.78863 0.5404 0.0
C2047 C 0.07748 0.78675 0.52365 0.0
C2048 C 0.04954 0.77901 0.54346 0.0
C2049 C 0.01608 0.73957 0.52521 0.0
H2050 H 0.9754 0.76915 0.5508 0.0
C2051 C 0.93429 0.7145 0.52531 0.0
C2052 C 0.92456 0.71432 0.54219 0.0
C2053 C 0.95272 0.72379 0.52332 0.0
C2054 C 0.98664 0.76063 0.54375 0.0
H2055 H 0.07618 0.77268 0.49721 0.0
H2056 H 0.04462 0.75618 0.50242 0.0
H2057 H 0.00848 0.78337 0.54734 0.0
H2058 H 0.92616 0.72485 0.56997 0.0
H2059 H 0.95821 0.7413 0.56641 0.0
H2060 H 0.9941 0.717 0.52138 0.0
C2061 C 0.05097 0.76486 0.51334 0.0
C2062 C 0.00567 0.76873 0.54183 0.0
C2063 C 0.06913 0.77438 0.51032 0.0
C2064 C 0.93322 0.72464 0.55678 0.0
C2065 C 0.95162 0.73408 0.55474 0.0
C2066 C 0.99703 0.73155 0.52702 0.0
C2067 C 0.04073 0.76732 0.52983 0.0
C2068 C 0.02065 0.75834 0.53248 0.0
C2069 C 0.9618 0.73336 0.5381 0.0
C2070 C 0.98205 0.74201 0.53625 0.0
H2071 H 0.07373 0.79789 0.55104 0.0
H2072 H 0.04235 0.78092 0.55648 0.0
H2073 H 0.02727 0.73095 0.51822 0.0
H2074 H 0.92785 0.70714 0.51367 0.0
H2075 H 0.95994 0.72335 0.5102 0.0
C2076 C 0.47058 0.82071 0.76077 0.0
C2077 C 0.45162 0.81676 0.76775 0.0
C2078 C 0.48524 0.80584 0.76088 0.0
C2079 C 0.48936 0.75057 0.76365 0.0
H2080 H 0.54566 0.76118 0.7678 0.0
C2081 C 0.54955 0.6883 0.7678 0.0
C2082 C 0.56687 0.69153 0.75757 0.0
C2083 C 0.53519 0.70334 0.76946 0.0
C2084 C 0.52997 0.75798 0.76651 0.0
H2085 H 0.43351 0.79486 0.78148 0.0
H2086 H 0.45907 0.76948 0.78245 0.0
H2087 H 0.52202 0.78842 0.77081 0.0
H2088 H 0.58217 0.71286 0.74047 0.0
H2089 H 0.55734 0.73875 0.74337 0.0
H2090 H 0.49737 0.72009 0.7595 0.0
C2091 C 0.46259 0.78358 0.77619 0.0
C2092 C 0.5164 0.77364 0.76819 0.0
C2093 C 0.44797 0.79824 0.77583 0.0
C2094 C 0.56913 0.70984 0.7486 0.0
C2095 C 0.55494 0.72481 0.75036 0.0
C2096 C 0.50292 0.7349 0.76213 0.0
C2097 C 0.48123 0.78685 0.76816 0.0
C2098 C 0.49587 0.77019 0.76672 0.0
C2099 C 0.53795 0.72192 0.76104 0.0
C2100 C 0.5234 0.73842 0.76341 0.0
H2101 H 0.47369 0.8348 0.75429 0.0
H2102 H 0.49937 0.80895 0.7545 0.0
H2103 H 0.47374 0.74728 0.76202 0.0
H2104 H 0.54736 0.67443 0.77495 0.0
H2105 H 0.52223 0.70064 0.7778 0.0
C2106 C 0.4251 0.22507 0.01548 0.0
C2107 C 0.43008 0.20607 0.02183 0.0
C2108 C 0.43966 0.24002 0.01445 0.0
C2109 C 0.49487 0.24577 0.01303 0.0
H2110 H 0.48341 0.30125 0.02189 0.0
C2111 C 0.55604 0.30721 0.01671 0.0
C2112 C 0.55143 0.32518 0.00798 0.0
C2113 C 0.54152 0.29233 0.0186 0.0
C2114 C 0.48683 0.28581 0.01926 0.0
H2115 H 0.45385 0.18825 0.03319 0.0
H2116 H 0.47871 0.21413 0.03197 0.0
H2117 H 0.45703 0.27668 0.02505 0.0
H2118 H 0.52812 0.34119 0.99379 0.0
H2119 H 0.50321 0.31554 -0.00293 0.0
H2120 H 0.52472 0.25494 0.00739 0.0
C2121 C 0.46394 0.21748 0.02707 0.0
C2122 C 0.47166 0.27171 0.02101 0.0
C2123 C 0.44957 0.20262 0.0279 0.0
C2124 C 0.53223 0.32767 0.00078 0.0
C2125 C 0.51782 0.31297 0.00275 0.0
C2126 C 0.51006 0.25985 0.01141 0.0
C2127 C 0.4594 0.23625 0.01992 0.0
C2128 C 0.47544 0.25147 0.01791 0.0
C2129 C 0.52212 0.29524 0.0119 0.0
C2130 C 0.50622 0.28006 0.01441 0.0
H2131 H 0.41022 0.22814 0.01066 0.0
H2132 H 0.43559 0.25429 0.00881 0.0
H2133 H 0.49834 0.2304 0.01016 0.0
H2134 H 0.57064 0.30483 0.02245 0.0
H2135 H 0.54531 0.27881 0.02573 0.0
C2136 C 0.97682 0.68367 0.24113 0.0
C2137 C 0.95873 0.68725 0.23227 0.0
C2138 C 0.99147 0.69856 0.2418 0.0
C2139 C 0.99599 0.7536 0.23734 0.0
H2140 H 0.0525 0.74317 0.23672 0.0
C2141 C 0.05554 0.81614 0.23269 0.0
C2142 C 0.07265 0.81373 0.24339 0.0
C2143 C 0.04143 0.80084 0.23144 0.0
C2144 C 0.03674 0.74632 0.23706 0.0
H2145 H 0.94235 0.70849 0.21605 0.0
H2146 H 0.96787 0.73387 0.21659 0.0
H2147 H 0.02918 0.71562 0.23371 0.0
H2148 H 0.08781 0.79364 0.2618 0.0
H2149 H 0.06333 0.76728 0.25968 0.0
H2150 H 0.00357 0.7843 0.24055 0.0
C2151 C 0.97064 0.72007 0.22368 0.0
C2152 C 0.02336 0.73049 0.23537 0.0
C2153 C 0.95605 0.7054 0.22322 0.0
C2154 C 0.07492 0.796 0.25328 0.0
C2155 C 0.06094 0.78076 0.25197 0.0
C2156 C 0.00936 0.76941 0.23892 0.0
C2157 C 0.9883 0.71718 0.23347 0.0
C2158 C 0.00278 0.7339 0.23544 0.0
C2159 C 0.04419 0.7828 0.24081 0.0
C2160 C 0.02991 0.76599 0.23883 0.0
H2161 H 0.97921 0.66986 0.24832 0.0
H2162 H 0.00487 0.69578 0.24949 0.0
H2163 H 0.98027 0.75685 0.23789 0.0
H2164 H 0.05337 0.82954 0.22482 0.0
H2165 H 0.0287 0.80288 0.22268 0.0
C2166 C 0.56686 0.70486 0.48201 0.0
C2167 C 0.56384 0.68655 0.4907 0.0
C2168 C 0.55146 0.7189 0.48114 0.0
C2169 C 0.50205 0.73173 0.50122 0.0
H2170 H 0.49423 0.75935 0.45567 0.0
C2171 C 0.43176 0.77945 0.48658 0.0
C2172 C 0.43585 0.79833 0.47943 0.0
C2173 C 0.44681 0.765 0.48747 0.0
C2174 C 0.49624 0.7518 0.46851 0.0
H2175 H 0.54259 0.66905 0.50599 0.0
H2176 H 0.51601 0.69313 0.50429 0.0
H2177 H 0.52253 0.73713 0.45922 0.0
H2178 H 0.45856 0.81654 0.46681 0.0
H2179 H 0.4844 0.79156 0.4682 0.0
H2180 H 0.47564 0.74636 0.51043 0.0
C2181 C 0.53016 0.69689 0.49825 0.0
C2182 C 0.51258 0.73917 0.4706 0.0
C2183 C 0.54545 0.68296 0.49911 0.0
C2184 C 0.45493 0.80217 0.47252 0.0
C2185 C 0.46976 0.78778 0.47319 0.0
C2186 C 0.48564 0.74429 0.49909 0.0
C2187 C 0.53278 0.71493 0.48899 0.0
C2188 C 0.51576 0.72899 0.487 0.0
C2189 C 0.46605 0.76912 0.48093 0.0
C2190 C 0.4826 0.75456 0.48274 0.0
H2191 H 0.58083 0.70807 0.47535 0.0
H2192 H 0.55413 0.73277 0.47413 0.0
H2193 H 0.50411 0.72437 0.51414 0.0
H2194 H 0.41723 0.77611 0.49206 0.0
H2195 H 0.44345 0.75068 0.49339 0.0
C2196 C 0.47139 0.18336 0.74076 0.0
C2197 C 0.45141 0.18792 0.73729 0.0
C2198 C 0.48588 0.19843 0.74048 0.0
C2199 C 0.49026 0.2538 0.74322 0.0
H2200 H 0.54373 0.24462 0.72591 0.0
C2201 C 0.54791 0.31733 0.73162 0.0
C2202 C 0.56739 0.31336 0.73742 0.0
C2203 C 0.53347 0.30225 0.73175 0.0
C2204 C 0.52887 0.2474 0.7309 0.0
H2205 H 0.4312 0.21163 0.72976 0.0
H2206 H 0.45617 0.23735 0.72872 0.0
H2207 H 0.51975 0.21747 0.72563 0.0
H2208 H 0.58666 0.29051 0.74852 0.0
H2209 H 0.56172 0.26459 0.7487 0.0
H2210 H 0.49937 0.28381 0.74827 0.0
C2211 C 0.46076 0.22248 0.73238 0.0
C2212 C 0.51513 0.23178 0.73081 0.0
C2213 C 0.44639 0.2076 0.73285 0.0
C2214 C 0.57189 0.29416 0.74377 0.0
C2215 C 0.5576 0.27917 0.74378 0.0
C2216 C 0.50395 0.26945 0.74317 0.0
C2217 C 0.48066 0.21828 0.73655 0.0
C2218 C 0.4956 0.23475 0.73695 0.0
C2219 C 0.53828 0.28289 0.73755 0.0
C2220 C 0.52345 0.26644 0.73706 0.0
H2221 H 0.47571 0.16835 0.74424 0.0
H2222 H 0.50104 0.1946 0.74383 0.0
H2223 H 0.47551 0.25664 0.74843 0.0
H2224 H 0.54395 0.33191 0.72659 0.0
H2225 H 0.5187 0.30559 0.72684 0.0
C2226 C 0.03658 0.187 0.97163 0.0
C2227 C 0.05613 0.19182 0.97669 0.0
C2228 C 0.02154 0.2012 0.97204 0.0
C2229 C 0.01157 0.25536 0.97416 0.0
H2230 H 0.95962 0.23766 0.99019 0.0
C2231 C 0.94873 0.31056 0.98956 0.0
C2232 C 0.92967 0.30641 0.9827 0.0
C2233 C 0.96372 0.2963 0.98917 0.0
C2234 C 0.97396 0.2428 0.9855 0.0
H2235 H 0.07531 0.21565 0.98565 0.0
H2236 H 0.04877 0.24067 0.98673 0.0
H2237 H 0.98709 0.21416 0.98898 0.0
H2238 H 0.91126 0.28356 0.97069 0.0
H2239 H 0.93763 0.25831 0.97016 0.0
H2240 H 0.99842 0.28409 0.97097 0.0
C2241 C 0.04518 0.2258 0.98224 0.0
C2242 C 0.98977 0.22932 0.98477 0.0
C2243 C 0.06041 0.21149 0.98166 0.0
C2244 C 0.92574 0.28721 0.97613 0.0
C2245 C 0.94086 0.2728 0.9758 0.0
C2246 C 0.99578 0.26886 0.97501 0.0
C2247 C 0.02544 0.22071 0.97771 0.0
C2248 C 0.0088 0.23537 0.979 0.0
C2249 C 0.96016 0.27736 0.98196 0.0
C2250 C 0.97677 0.26276 0.98068 0.0
H2251 H 0.03276 0.17208 0.96741 0.0
H2252 H 0.00676 0.19678 0.9679 0.0
H2253 H 0.02586 0.26054 0.96939 0.0
H2254 H 0.95228 0.32509 0.99496 0.0
H2255 H 0.97821 0.30019 0.99443 0.0
C2256 C 0.97042 0.81002 0.70947 0.0
C2257 C 0.97073 0.81872 0.72682 0.0
C2258 C 0.98053 0.79221 0.70613 0.0
C2259 C 0.99783 0.74708 0.72881 0.0
H2260 H 0.03326 0.74138 0.68778 0.0
C2261 C 0.05175 0.68042 0.7211 0.0
C2262 C 0.05859 0.67543 0.70372 0.0
C2263 C 0.03854 0.6963 0.72347 0.0
C2264 C 0.02307 0.74241 0.69909 0.0
H2265 H 0.98208 0.81557 0.75421 0.0
H2266 H 0.99949 0.78439 0.74839 0.0
H2267 H 0.01597 0.77261 0.69256 0.0
H2268 H 0.05609 0.68204 0.67513 0.0
H2269 H 0.03194 0.70864 0.67899 0.0
H2270 H 0.0045 0.71682 0.73521 0.0
C2271 C 0.99148 0.79141 0.73738 0.0
C2272 C 0.01329 0.76048 0.70188 0.0
C2273 C 0.98168 0.80939 0.74064 0.0
C2274 C 0.05084 0.6855 0.68866 0.0
C2275 C 0.03731 0.70103 0.69096 0.0
C2276 C 0.00735 0.72886 0.72585 0.0
C2277 C 0.99085 0.78252 0.72015 0.0
C2278 C 1.00074 0.7631 0.71688 0.0
C2279 C 0.0317 0.70735 0.70845 0.0
C2280 C 0.02029 0.72628 0.71103 0.0
H2281 H 0.96208 0.8168 0.69855 0.0
H2282 H 0.97977 0.78569 0.69271 0.0
H2283 H 0.98803 0.7486 0.74037 0.0
H2284 H 0.05793 0.6732 0.73297 0.0
H2285 H 0.03481 0.70067 0.73718 0.0
C2286 C 0.94594 0.19285 0.48894 0.0
C2287 C 0.92695 0.19642 0.48168 0.0
C2288 C 0.96066 0.20739 0.48843 0.0
C2289 C 0.96994 0.26097 0.48345 0.0
H2290 H 0.02248 0.24372 0.4687 0.0
C2291 C 0.0318 0.31754 0.46936 0.0
C2292 C 0.05127 0.31326 0.47504 0.0
C2293 C 0.01704 0.30305 0.46971 0.0
C2294 C 0.008 0.24878 0.47308 0.0
H2295 H 0.90834 0.21854 0.46882 0.0
H2296 H 0.93422 0.24427 0.46806 0.0
H2297 H 0.99548 0.21969 0.4705 0.0
H2298 H 0.07063 0.29009 0.48502 0.0
H2299 H 0.04459 0.26456 0.48599 0.0
H2300 H 0.98244 0.28997 0.48631 0.0
C2301 C 0.93762 0.23003 0.47412 0.0
C2302 C 0.99246 0.235 0.47406 0.0
C2303 C 0.92277 0.21533 0.47458 0.0
C2304 C 0.05579 0.29382 0.48053 0.0
C2305 C 0.04084 0.27922 0.48105 0.0
C2306 C 0.9855 0.27473 0.48259 0.0
C2307 C 0.95688 0.22603 0.48069 0.0
C2308 C 0.97323 0.24091 0.47926 0.0
C2309 C 0.02115 0.28379 0.47595 0.0
C2310 C 0.00475 0.26887 0.47731 0.0
H2311 H 0.94966 0.17856 0.49475 0.0
H2312 H 0.97512 0.20394 0.49401 0.0
H2313 H 0.95541 0.26598 0.48777 0.0
H2314 H 0.02783 0.33228 0.46474 0.0
H2315 H 0.0023 0.30704 0.46513 0.0
C2316 C 0.49215 0.3288 0.25239 0.0
C2317 C 0.47773 0.33395 0.23943 0.0
C2318 C 0.50245 0.31083 0.25111 0.0
C2319 C 0.51565 0.26957 0.22001 0.0
H2320 H 0.52329 0.24087 0.26506 0.0
C2321 C 0.55469 0.19259 0.22246 0.0
C2322 C 0.56977 0.19142 0.23559 0.0
C2323 C 0.54102 0.20834 0.22282 0.0
C2324 C 0.52133 0.2487 0.25236 0.0
H2325 H 0.46373 0.32454 0.21436 0.0
H2326 H 0.48163 0.29318 0.21219 0.0
H2327 H 0.50552 0.27234 0.26525 0.0
H2328 H 0.58167 0.20501 0.25991 0.0
H2329 H 0.55789 0.23207 0.2607 0.0
H2330 H 0.53176 0.24595 0.20719 0.0
C2331 C 0.48494 0.30307 0.22337 0.0
C2332 C 0.51122 0.26682 0.25247 0.0
C2333 C 0.47461 0.32107 0.22466 0.0
C2334 C 0.57021 0.20554 0.24961 0.0
C2335 C 0.5565 0.22103 0.25009 0.0
C2336 C 0.52579 0.25139 0.21989 0.0
C2337 C 0.49865 0.2975 0.23683 0.0
C2338 C 0.50857 0.2777 0.23637 0.0
C2339 C 0.54203 0.22296 0.23648 0.0
C2340 C 0.52908 0.24092 0.23614 0.0
H2341 H 0.49506 0.33835 0.26391 0.0
H2342 H 0.51325 0.30726 0.26149 0.0
H2343 H 0.51394 0.27757 0.20736 0.0
H2344 H 0.55413 0.182 0.21141 0.0
H2345 H 0.52993 0.20931 0.21223 0.0
C2346 C 0.5365 0.80711 0.95207 0.0
C2347 C 0.55445 0.80368 0.96126 0.0
C2348 C 0.52202 0.79234 0.95096 0.0
C2349 C 0.50455 0.74957 0.97701 0.0
H2350 H 0.46904 0.74155 0.93623 0.0
C2351 C 0.44625 0.68746 0.9764 0.0
C2352 C 0.42761 0.69081 0.96838 0.0
C2353 C 0.46131 0.70156 0.97525 0.0
C2354 C 0.47865 0.74384 0.94782 0.0
H2355 H 0.57187 0.78171 0.97557 0.0
H2356 H 0.5465 0.75563 0.97356 0.0
H2357 H 0.49757 0.76372 0.9331 0.0
H2358 H 0.41001 0.71194 0.95319 0.0
H2359 H 0.43652 0.737 0.95128 0.0
H2360 H 0.48561 0.72996 0.99184 0.0
C2361 C 0.54359 0.76989 0.96733 0.0
C2362 C 0.49509 0.75643 0.94599 0.0
C2363 C 0.55823 0.78469 0.96828 0.0
C2364 C 0.42418 0.70898 0.95957 0.0
C2365 C 0.43943 0.7232 0.95833 0.0
C2366 C 0.48812 0.73706 0.97886 0.0
C2367 C 0.52506 0.77378 0.95916 0.0
C2368 C 0.50829 0.7594 0.96056 0.0
C2369 C 0.45825 0.71954 0.96605 0.0
C2370 C 0.47498 0.73393 0.96428 0.0
H2371 H 0.5332 0.82164 0.94653 0.0
H2372 H 0.50796 0.79594 0.94465 0.0
H2373 H 0.51407 0.7519 0.98866 0.0
H2374 H 0.44941 0.67366 0.98337 0.0
H2375 H 0.4756 0.69805 0.98115 0.0
C2376 C 0.9441 0.20198 0.75608 0.0
C2377 C 0.9494 0.18178 0.75511 0.0
C2378 C 0.95852 0.21682 0.75653 0.0
C2379 C 0.00946 0.22831 0.74338 0.0
H2380 H 0.00376 0.27212 0.77717 0.0
C2381 C 0.06983 0.28838 0.75034 0.0
C2382 C 0.0644 0.30814 0.75412 0.0
C2383 C 0.05582 0.27314 0.75058 0.0
C2384 C 0.00544 0.2602 0.76744 0.0
H2385 H 0.97424 0.16143 0.75383 0.0
H2386 H 0.99972 0.18765 0.75427 0.0
H2387 H 0.98015 0.24468 0.77792 0.0
H2388 H 0.0397 0.32728 0.76098 0.0
H2389 H 0.01491 0.30061 0.76091 0.0
H2390 H 0.03435 0.24396 0.73251 0.0
C2391 C 0.9842 0.19182 0.75476 0.0
C2392 C 0.99198 0.24436 0.76797 0.0
C2393 C 0.96966 0.17682 0.75456 0.0
C2394 C 0.0444 0.31226 0.75799 0.0
C2395 C 0.03023 0.2969 0.75809 0.0
C2396 C 0.02281 0.24424 0.74271 0.0
C2397 C 0.97874 0.21201 0.75585 0.0
C2398 C 0.9938 0.22823 0.75594 0.0
C2399 C 0.03579 0.27708 0.75441 0.0
C2400 C 0.02105 0.26042 0.75476 0.0
H2401 H 0.92868 0.20648 0.7566 0.0
H2402 H 0.95376 0.23217 0.75712 0.0
H2403 H 0.01108 0.21629 0.73373 0.0
H2404 H 0.08508 0.28449 0.74741 0.0
H2405 H 0.06089 0.25813 0.74809 0.0
C2406 C 0.4209 0.28887 0.51419 0.0
C2407 C 0.42611 0.30833 0.51915 0.0
C2408 C 0.43562 0.27417 0.51239 0.0
C2409 C 0.48706 0.26181 0.52649 0.0
H2410 H 0.48804 0.22888 0.48344 0.0
C2411 C 0.5536 0.20943 0.5107 0.0
C2412 C 0.54879 0.19072 0.50351 0.0
C2413 C 0.53901 0.22431 0.51212 0.0
C2414 C 0.48793 0.23775 0.49568 0.0
H2415 H 0.45085 0.32737 0.52659 0.0
H2416 H 0.47607 0.30199 0.52364 0.0
H2417 H 0.46093 0.25233 0.48789 0.0
H2418 H 0.52492 0.17328 0.4917 0.0
H2419 H 0.49985 0.19863 0.49452 0.0
H2420 H 0.51385 0.2471 0.53448 0.0
C2421 C 0.46075 0.29797 0.52109 0.0
C2422 C 0.47231 0.2512 0.49822 0.0
C2423 C 0.44621 0.3126 0.52264 0.0
C2424 C 0.52927 0.18747 0.49736 0.0
C2425 C 0.5148 0.20217 0.49883 0.0
C2426 C 0.50259 0.24824 0.52405 0.0
C2427 C 0.45574 0.27861 0.51583 0.0
C2428 C 0.4717 0.26344 0.51363 0.0
C2429 C 0.51932 0.22078 0.50636 0.0
C2430 C 0.50327 0.23598 0.50861 0.0
H2431 H 0.40557 0.2851 0.51141 0.0
H2432 H 0.43128 0.25932 0.5084 0.0
H2433 H 0.48697 0.27093 0.5386 0.0
H2434 H 0.56846 0.21244 0.51558 0.0
H2435 H 0.54315 0.23855 0.51778 0.0
C2436 C 0.54255 0.82237 0.25556 0.0
C2437 C 0.56265 0.81687 0.25462 0.0
C2438 C 0.5276 0.80782 0.25509 0.0
C2439 C 0.51868 0.7548 0.26451 0.0
H2440 H 0.47501 0.75943 0.23062 0.0
C2441 C 0.46342 0.68981 0.25193 0.0
C2442 C 0.44354 0.69488 0.24853 0.0
C2443 C 0.47808 0.70463 0.2528 0.0
C2444 C 0.4869 0.75796 0.2404 0.0
H2445 H 0.5827 0.79166 0.25269 0.0
H2446 H 0.55685 0.76665 0.25216 0.0
H2447 H 0.49934 0.78607 0.23279 0.0
H2448 H 0.42349 0.71961 0.24381 0.0
H2449 H 0.44856 0.74507 0.24591 0.0
H2450 H 0.50616 0.72691 0.27242 0.0
C2451 C 0.55258 0.78212 0.25319 0.0
C2452 C 0.50087 0.77329 0.2416 0.0
C2453 C 0.56741 0.79656 0.25336 0.0
C2454 C 0.43867 0.71503 0.24622 0.0
C2455 C 0.45317 0.72975 0.2473 0.0
C2456 C 0.50457 0.73957 0.2635 0.0
C2457 C 0.53252 0.78752 0.25405 0.0
C2458 C 0.51697 0.77184 0.25358 0.0
C2459 C 0.47313 0.72485 0.25046 0.0
C2460 C 0.48848 0.74089 0.25139 0.0
H2461 H 0.5384 0.83787 0.25658 0.0
H2462 H 0.51221 0.8124 0.25581 0.0
H2463 H 0.53089 0.75332 0.27397 0.0
H2464 H 0.46766 0.67444 0.25377 0.0
H2465 H 0.49332 0.7002 0.25508 0.0
C2466 C 0.05621 0.72081 0.01844 0.0
C2467 C 0.06835 0.72175 0.00293 0.0
C2468 C 0.03798 0.73078 0.01899 0.0
C2469 C 0.99996 0.75228 0.98815 0.0
H2470 H 0.97981 0.77684 0.032 0.0
C2471 C 0.93662 0.80958 0.98858 0.0
C2472 C 0.92311 0.80983 0.00308 0.0
C2473 C 0.95247 0.79625 0.98837 0.0
C2474 C 0.98506 0.76974 0.01972 0.0
H2475 H 0.07125 0.73497 0.97624 0.0
H2476 H 0.03984 0.75278 0.9774 0.0
H2477 H 0.01203 0.76029 0.03246 0.0
H2478 H 0.91509 0.7957 0.02842 0.0
H2479 H 0.94301 0.77225 0.02814 0.0
H2480 H 0.97321 0.76219 0.97531 0.0
C2481 C 0.04409 0.74382 0.98895 0.0
C2482 C 0.0036 0.7603 0.01996 0.0
C2483 C 0.06227 0.73378 0.98838 0.0
C2484 C 0.92515 0.79569 0.01697 0.0
C2485 C 0.94127 0.78246 0.01691 0.0
C2486 C 0.98151 0.7618 0.98789 0.0
C2487 C 0.03146 0.74209 0.00409 0.0
C2488 C 0.01144 0.75167 0.0041 0.0
C2489 C 0.95539 0.78294 0.0028 0.0
C2490 C 0.97393 0.77088 0.00361 0.0
H2491 H 0.06052 0.71196 0.03003 0.0
H2492 H 0.02871 0.72905 0.03088 0.0
H2493 H 0.00522 0.74538 0.97578 0.0
H2494 H 0.93544 0.82038 0.97773 0.0
H2495 H 0.96309 0.79717 0.97737 0.0
C2496 C 0.13925 0.28083 0.43499 0.0
C2497 C 0.14121 0.30003 0.42776 0.0
C2498 C 0.14496 0.26425 0.4248 0.0
C2499 C 0.17293 0.24986 0.38305 0.0
H2500 H 0.13505 0.20662 0.38102 0.0
C2501 C 0.1526 0.20667 0.31937 0.0
C2502 C 0.14805 0.18644 0.32069 0.0
C2503 C 0.15843 0.21725 0.33473 0.0
C2504 C 0.14608 0.21831 0.38173 0.0
H2505 H 0.1504 0.31689 0.40418 0.0
H2506 H 0.1599 0.28821 0.38637 0.0
H2507 H 0.1318 0.23184 0.40446 0.0
H2508 H 0.1468 0.16101 0.33857 0.0
H2509 H 0.15665 0.17968 0.36573 0.0
H2510 H 0.18622 0.23702 0.35938 0.0
C2511 C 0.15462 0.28584 0.40007 0.0
C2512 C 0.14421 0.23279 0.39517 0.0
C2513 C 0.14904 0.30232 0.41024 0.0
C2514 C 0.1505 0.1766 0.33731 0.0
C2515 C 0.15601 0.18725 0.35278 0.0
C2516 C 0.17464 0.2355 0.36948 0.0
C2517 C 0.15263 0.26658 0.40717 0.0
C2518 C 0.15711 0.24918 0.3955 0.0
C2519 C 0.1594 0.2078 0.35171 0.0
C2520 C 0.16077 0.22003 0.36831 0.0
H2521 H 0.1335 0.27867 0.44855 0.0
H2522 H 0.14335 0.24963 0.43071 0.0
H2523 H 0.18344 0.26202 0.38323 0.0
H2524 H 0.15057 0.21451 0.30666 0.0
H2525 H 0.1607 0.23311 0.33357 0.0
C2526 C 0.05875 0.9052 0.57344 0.0
C2527 C 0.05284 0.89156 0.56013 0.0
C2528 C 0.04472 0.91329 0.5853 0.0
C2529 C 0.99074 0.91702 0.59535 0.0
H2530 H 0.00682 0.9017 0.64386 0.0
C2531 C 0.93573 0.88849 0.64829 0.0
C2532 C 0.94 0.8904 0.66683 0.0
C2533 C 0.94892 0.89577 0.63529 0.0
C2534 C 0.0021 0.90664 0.63057 0.0
H2535 H 0.02789 0.87666 0.5477 0.0
H2536 H 0.00327 0.89093 0.56819 0.0
H2537 H 0.03137 0.9033 0.61992 0.0
H2538 H 0.96054 0.9027 0.68641 0.0
H2539 H 0.98345 0.91586 0.66376 0.0
H2540 H 0.96128 0.91966 0.60591 0.0
C2541 C 0.0186 0.89557 0.5695 0.0
C2542 C 0.01625 0.90756 0.61679 0.0
C2543 C 0.03264 0.88734 0.55781 0.0
C2544 C 0.95715 0.90068 0.67217 0.0
C2545 C 0.97023 0.90821 0.65919 0.0
C2546 C 0.97658 0.9163 0.60919 0.0
C2547 C 0.02461 0.90789 0.58388 0.0
C2548 C 0.01058 0.91194 0.5989 0.0
C2549 C 0.96657 0.90535 0.64057 0.0
C2550 C 0.98195 0.91025 0.6268 0.0
H2551 H 0.07434 0.90844 0.57551 0.0
H2552 H 0.04972 0.92281 0.59623 0.0
H2553 H 0.98603 0.92064 0.5817 0.0
H2554 H 0.92267 0.88051 0.64382 0.0
H2555 H 0.94572 0.89295 0.62113 0.0
C2556 C 0.34172 0.8132 0.81044 0.0
C2557 C 0.35658 0.82628 0.81634 0.0
C2558 C 0.33241 0.80055 0.82283 0.0
C2559 C 0.3284 0.78782 0.87203 0.0
H2560 H 0.33602 0.73411 0.85451 0.0
C2561 C 0.34792 0.72231 0.91877 0.0
C2562 C 0.34115 0.70319 0.91426 0.0
C2563 C 0.34392 0.73844 0.90743 0.0
C2564 C 0.33332 0.74894 0.85961 0.0
H2565 H 0.37183 0.83811 0.83983 0.0
H2566 H 0.35581 0.81603 0.86141 0.0
H2567 H 0.33742 0.76154 0.83334 0.0
H2568 H 0.32439 0.68634 0.89429 0.0
H2569 H 0.317 0.71441 0.87498 0.0
H2570 H 0.32518 0.77512 0.89851 0.0
C2571 C 0.35123 0.81541 0.84733 0.0
C2572 C 0.33406 0.76472 0.84741 0.0
C2573 C 0.36057 0.82794 0.83497 0.0
C2574 C 0.32978 0.70077 0.89839 0.0
C2575 C 0.32566 0.71689 0.88715 0.0
C2576 C 0.32761 0.77199 0.88427 0.0
C2577 C 0.33778 0.80091 0.84128 0.0
C2578 C 0.3323 0.78437 0.85356 0.0
C2579 C 0.33298 0.73585 0.89135 0.0
C2580 C 0.33072 0.75243 0.87826 0.0
H2581 H 0.33839 0.81173 0.79612 0.0
H2582 H 0.32188 0.78969 0.81783 0.0
H2583 H 0.32676 0.80281 0.87713 0.0
H2584 H 0.35644 0.72486 0.93099 0.0
H2585 H 0.34999 0.75281 0.91097 0.0
C2586 C 0.55178 0.10141 0.15882 0.0
C2587 C 0.55265 0.1176 0.17082 0.0
C2588 C 0.53383 0.09591 0.15083 0.0
C2589 C 0.47924 0.1042 0.15218 0.0
H2590 H 0.48373 0.09946 0.09994 0.0
C2591 C 0.42094 0.13206 0.10258 0.0
C2592 C 0.41962 0.12377 0.08514 0.0
C2593 C 0.43406 0.12423 0.11532 0.0
C2594 C 0.4821 0.10015 0.11454 0.0
H2595 H 0.53531 0.14021 0.18442 0.0
H2596 H 0.50399 0.13088 0.17023 0.0
H2597 H 0.51345 0.0992 0.11838 0.0
H2598 H 0.42944 0.09964 0.06792 0.0
H2599 H 0.45227 0.08571 0.09032 0.0
H2600 H 0.44782 0.10618 0.14812 0.0
C2601 C 0.5171 0.12219 0.16723 0.0
C2602 C 0.49922 0.10006 0.12515 0.0
C2603 C 0.53506 0.12763 0.17529 0.0
C2604 C 0.43025 0.10637 0.08124 0.0
C2605 C 0.44341 0.0985 0.09402 0.0
C2606 C 0.46207 0.10426 0.14154 0.0
C2607 C 0.51638 0.10654 0.15461 0.0
C2608 C 0.49803 0.10284 0.14401 0.0
C2609 C 0.44611 0.1079 0.11088 0.0
C2610 C 0.46339 0.10303 0.12253 0.0
H2611 H 0.56501 0.09308 0.15548 0.0
H2612 H 0.53369 0.08358 0.1414 0.0
H2613 H 0.47785 0.10598 0.16673 0.0
H2614 H 0.4126 0.14528 0.10605 0.0
H2615 H 0.43579 0.13193 0.12812 0.0
C2616 C 0.14537 0.71828 0.06378 0.0
C2617 C 0.13779 0.70007 0.07005 0.0
C2618 C 0.15389 0.73181 0.07589 0.0
C2619 C 0.17351 0.73647 0.12291 0.0
H2620 H 0.15341 0.79025 0.11969 0.0
C2621 C 0.15735 0.78542 0.18397 0.0
C2622 C 0.15801 0.80615 0.18226 0.0
C2623 C 0.16279 0.77331 0.16946 0.0
C2624 C 0.15966 0.77547 0.12058 0.0
H2625 H 0.13332 0.68184 0.09393 0.0
H2626 H 0.14797 0.70537 0.11498 0.0
H2627 H 0.14724 0.76715 0.09501 0.0
H2628 H 0.16645 0.83053 0.16473 0.0
H2629 H 0.1761 0.8093 0.13928 0.0
H2630 H 0.18498 0.74457 0.14898 0.0
C2631 C 0.14775 0.70906 0.10068 0.0
C2632 C 0.15607 0.76219 0.10642 0.0
C2633 C 0.13924 0.69558 0.08861 0.0
C2634 C 0.16589 0.81457 0.1664 0.0
C2635 C 0.17123 0.80243 0.1518 0.0
C2636 C 0.17709 0.74976 0.13709 0.0
C2637 C 0.15504 0.7274 0.0945 0.0
C2638 C 0.16225 0.74233 0.10776 0.0
C2639 C 0.16889 0.78172 0.15292 0.0
C2640 C 0.16951 0.76917 0.13639 0.0
H2641 H 0.14483 0.72204 0.04952 0.0
H2642 H 0.15951 0.74576 0.0707 0.0
H2643 H 0.17885 0.72137 0.12414 0.0
H2644 H 0.15138 0.77862 0.19611 0.0
H2645 H 0.16066 0.75744 0.17076 0.0
C2646 C 0.41193 0.87195 0.39711 0.0
C2647 C 0.41737 0.87797 0.41462 0.0
C2648 C 0.42291 0.87819 0.38211 0.0
C2649 C 0.46544 0.91037 0.36776 0.0
H2650 H 0.47779 0.86499 0.33739 0.0
C2651 C 0.54073 0.89849 0.3334 0.0
C2652 C 0.54143 0.8906 0.31573 0.0
C2653 C 0.52272 0.90056 0.34248 0.0
C2654 C 0.47425 0.87795 0.34547 0.0
H2655 H 0.43752 0.89605 0.43035 0.0
H2656 H 0.45723 0.90651 0.4043 0.0
H2657 H 0.45044 0.863 0.35868 0.0
H2658 H 0.52333 0.87921 0.29366 0.0
H2659 H 0.49192 0.88227 0.30984 0.0
H2660 H 0.49026 0.92475 0.35518 0.0
C2661 C 0.44424 0.89741 0.40192 0.0
C2662 C 0.45847 0.87687 0.35768 0.0
C2663 C 0.43303 0.89141 0.41689 0.0
C2664 C 0.52351 0.88502 0.30733 0.0
C2665 C 0.50546 0.88691 0.31653 0.0
C2666 C 0.48137 0.91136 0.35565 0.0
C2667 C 0.4398 0.8902 0.38444 0.0
C2668 C 0.45422 0.89286 0.36936 0.0
C2669 C 0.50493 0.89461 0.33423 0.0
C2670 C 0.48624 0.89494 0.34478 0.0
H2671 H 0.3998 0.86161 0.39514 0.0
H2672 H 0.41877 0.87276 0.36881 0.0
H2673 H 0.46236 0.92309 0.3763 0.0
H2674 H 0.55414 0.90266 0.3405 0.0
H2675 H 0.52281 0.90615 0.35626 0.0
C2676 C 0.35269 0.26716 0.56366 0.0
C2677 C 0.34476 0.28479 0.57081 0.0
C2678 C 0.3517 0.24948 0.57353 0.0
C2679 C 0.32805 0.22564 0.61361 0.0
H2680 H 0.37889 0.19925 0.61815 0.0
C2681 C 0.35334 0.18363 0.67726 0.0
C2682 C 0.36752 0.16858 0.67538 0.0
C2683 C 0.34607 0.19338 0.6619 0.0
C2684 C 0.3644 0.20602 0.61676 0.0
H2685 H 0.32918 0.29754 0.5938 0.0
H2686 H 0.32757 0.26688 0.61098 0.0
H2687 H 0.37463 0.2249 0.59548 0.0
H2688 H 0.38399 0.15052 0.65636 0.0
H2689 H 0.37083 0.16704 0.62944 0.0
H2690 H 0.31813 0.20722 0.6355 0.0
C2691 C 0.33423 0.26658 0.59761 0.0
C2692 C 0.36197 0.2208 0.60373 0.0
C2693 C 0.33523 0.28421 0.58776 0.0
C2694 C 0.37311 0.16222 0.65801 0.0
C2695 C 0.36568 0.17176 0.64267 0.0
C2696 C 0.33047 0.21079 0.62666 0.0
C2697 C 0.34274 0.2491 0.59075 0.0
C2698 C 0.34399 0.2312 0.60238 0.0
C2699 C 0.35283 0.18808 0.64447 0.0
C2700 C 0.34886 0.20123 0.62873 0.0
H2701 H 0.35978 0.26702 0.55049 0.0
H2702 H 0.3582 0.23618 0.56781 0.0
H2703 H 0.31391 0.23321 0.61268 0.0
H2704 H 0.34899 0.18878 0.6906 0.0
H2705 H 0.33632 0.20598 0.6638 0.0
C2706 C 0.98705 0.10811 0.80422 0.0
C2707 C 0.9709 0.09496 0.80443 0.0
C2708 C 0.00448 0.10344 0.81352 0.0
C2709 C 0.01822 0.07665 0.85406 0.0
H2710 H 0.07084 0.09583 0.8421 0.0
C2711 C 0.07332 0.09158 0.91079 0.0
C2712 C 0.08075 0.11103 0.90989 0.0
C2713 C 0.06511 0.08267 0.89538 0.0
C2714 C 0.05627 0.09025 0.84561 0.0
H2715 H 0.96106 0.06575 0.81291 0.0
H2716 H 0.99143 0.05768 0.82931 0.0
H2717 H 0.04577 0.09303 0.81828 0.0
H2718 H 0.08744 0.13557 0.89188 0.0
H2719 H 0.07258 0.12048 0.86531 0.0
H2720 H 0.02802 0.07526 0.88151 0.0
C2721 C 0.99048 0.07174 0.82224 0.0
C2722 C 0.04195 0.08863 0.83198 0.0
C2723 C 0.97306 0.07642 0.81296 0.0
C2724 C 0.08135 0.12074 0.89305 0.0
C2725 C 0.07312 0.11191 0.87772 0.0
C2726 C 0.03245 0.07839 0.86768 0.0
C2727 C 0.00609 0.0855 0.82317 0.0
C2728 C 0.02253 0.08266 0.83625 0.0
C2729 C 0.06419 0.09309 0.87885 0.0
C2730 C 0.05134 0.08613 0.86378 0.0
H2731 H 0.9858 0.1225 0.79779 0.0
H2732 H 0.01616 0.11447 0.81415 0.0
H2733 H 0.00335 0.07215 0.85785 0.0
H2734 H 0.07283 0.0837 0.92359 0.0
H2735 H 0.05862 0.06803 0.89662 0.0
C2736 C 0.84574 0.79263 0.69006 0.0
C2737 C 0.86455 0.78749 0.6968 0.0
C2738 C 0.83509 0.77921 0.67931 0.0
C2739 C 0.83515 0.72698 0.66207 0.0
H2740 H 0.82206 0.75172 0.61613 0.0
C2741 C 0.83092 0.68023 0.59742 0.0
C2742 C 0.84338 0.6878 0.58374 0.0
C2743 C 0.82487 0.69227 0.61186 0.0
C2744 C 0.82543 0.74456 0.62892 0.0
H2745 H 0.88619 0.76387 0.69905 0.0
H2746 H 0.86789 0.74062 0.68025 0.0
H2747 H 0.82764 0.77235 0.64274 0.0
H2748 H 0.85796 0.71452 0.57402 0.0
H2749 H 0.84759 0.73523 0.59894 0.0
H2750 H 0.83473 0.69933 0.64788 0.0
C2751 C 0.86117 0.75485 0.68322 0.0
C2752 C 0.8284 0.75638 0.64426 0.0
C2753 C 0.8718 0.76825 0.69385 0.0
C2754 C 0.84834 0.70807 0.58416 0.0
C2755 C 0.84228 0.72007 0.59852 0.0
C2756 C 0.83229 0.71517 0.64671 0.0
C2757 C 0.84304 0.76042 0.67525 0.0
C2758 C 0.83435 0.74778 0.66076 0.0
C2759 C 0.83105 0.71217 0.61287 0.0
C2760 C 0.82846 0.72394 0.62976 0.0
H2761 H 0.83984 0.80741 0.69214 0.0
H2762 H 0.82108 0.78387 0.6735 0.0
H2763 H 0.83933 0.71988 0.67469 0.0
H2764 H 0.82637 0.66483 0.59732 0.0
H2765 H 0.81595 0.68582 0.62257 0.0
C2766 C 0.92235 0.13284 0.39231 0.0
C2767 C 0.92076 0.12196 0.40849 0.0
C2768 C 0.93435 0.12609 0.37823 0.0
C2769 C 0.97964 0.09761 0.37278 0.0
H2770 H 0.97168 0.11036 0.32198 0.0
C2771 C 0.04463 0.09573 0.32281 0.0
C2772 C 0.04665 0.11312 0.31245 0.0
C2773 C 0.02692 0.09162 0.33186 0.0
C2774 C 0.97408 0.10665 0.33611 0.0
H2775 H 0.9292 0.09478 0.42215 0.0
H2776 H 0.95023 0.08281 0.39736 0.0
H2777 H 0.94357 0.11148 0.3429 0.0
H2778 H 0.03141 0.13938 0.30277 0.0
H2779 H 1.00053 0.13237 0.31875 0.0
H2780 H 0.01024 0.09365 0.36625 0.0
C2781 C 0.94236 0.09671 0.3957 0.0
C2782 C 0.95801 0.10725 0.34807 0.0
C2783 C 0.93026 0.10347 0.40983 0.0
C2784 C 0.03026 0.12583 0.31059 0.0
C2785 C 0.01255 0.12175 0.31969 0.0
C2786 C 0.99567 0.09697 0.36083 0.0
C2787 C 0.94504 0.10829 0.38001 0.0
C2788 C 0.96078 0.10345 0.36665 0.0
C2789 C 0.01085 0.10483 0.33076 0.0
C2790 C 0.9932 0.10215 0.34251 0.0
H2791 H 0.91488 0.14698 0.39082 0.0
H2792 H 0.93619 0.13547 0.36642 0.0
H2793 H 0.98237 0.09485 0.38703 0.0
H2794 H 0.05683 0.08539 0.32412 0.0
H2795 H 0.02595 0.0783 0.34004 0.0
C2796 C 0.65639 0.31629 0.07118 0.0
C2797 C 0.63699 0.31603 0.06424 0.0
C2798 C 0.66371 0.30016 0.08096 0.0
C2799 C 0.65252 0.24795 0.09463 0.0
H2800 H 0.6778 0.26402 0.13956 0.0
C2801 C 0.65977 0.19318 0.15363 0.0
C2802 C 0.65149 0.20094 0.16961 0.0
C2803 C 0.66512 0.20587 0.13943 0.0
C2804 C 0.67093 0.25925 0.12701 0.0
H2805 H 0.61035 0.29844 0.06122 0.0
H2806 H 0.62276 0.27042 0.07885 0.0
H2807 H 0.67242 0.28837 0.11579 0.0
H2808 H 0.64391 0.22788 0.18402 0.0
H2809 H 0.65308 0.24999 0.15939 0.0
H2810 H 0.6496 0.21917 0.10653 0.0
C2811 C 0.63257 0.28287 0.07645 0.0
C2812 C 0.668 0.27317 0.11327 0.0
C2813 C 0.62536 0.29894 0.06645 0.0
C2814 C 0.65018 0.22158 0.17177 0.0
C2815 C 0.65559 0.23423 0.15768 0.0
C2816 C 0.65532 0.23404 0.10846 0.0
C2817 C 0.65167 0.28349 0.08421 0.0
C2818 C 0.65807 0.26787 0.09719 0.0
C2819 C 0.66238 0.22649 0.14108 0.0
C2820 C 0.66383 0.23976 0.12508 0.0
H2821 H 0.66581 0.32914 0.06926 0.0
H2822 H 0.67863 0.30096 0.08638 0.0
H2823 H 0.6452 0.24328 0.08227 0.0
H2824 H 0.66084 0.17728 0.15163 0.0
H2825 H 0.67051 0.19951 0.12687 0.0
C2826 C 0.56263 0.90569 0.91426 0.0
C2827 C 0.55745 0.90271 0.9325 0.0
C2828 C 0.54888 0.91344 0.90206 0.0
C2829 C 0.49519 0.91162 0.8971 0.0
H2830 H 0.50707 0.9349 0.85024 0.0
C2831 C 0.43868 0.91037 0.83878 0.0
C2832 C 0.4461 0.90324 0.82219 0.0
C2833 C 0.45155 0.91568 0.85277 0.0
C2834 C 0.50355 0.92842 0.8633 0.0
H2835 H 0.53484 0.90784 0.95284 0.0
H2836 H 0.51088 0.92202 0.9316 0.0
H2837 H 0.53119 0.93762 0.87489 0.0
H2838 H 0.47286 0.89661 0.80708 0.0
H2839 H 0.49547 0.90562 0.83172 0.0
H2840 H 0.46785 0.90194 0.88541 0.0
C2841 C 0.52538 0.91778 0.92659 0.0
C2842 C 0.51731 0.93001 0.87742 0.0
C2843 C 0.53916 0.90988 0.93881 0.0
C2844 C 0.46673 0.90183 0.81979 0.0
C2845 C 0.47964 0.90726 0.83378 0.0
C2846 C 0.48141 0.9102 0.88307 0.0
C2847 C 0.52968 0.91851 0.90791 0.0
C2848 C 0.51358 0.92101 0.89431 0.0
C2849 C 0.47215 0.91406 0.85047 0.0
C2850 C 0.4857 0.91802 0.86587 0.0
H2851 H 0.57681 0.90055 0.90913 0.0
H2852 H 0.55279 0.91375 0.88782 0.0
H2853 H 0.49189 0.90417 0.90976 0.0
H2854 H 0.42286 0.91145 0.84112 0.0
H2855 H 0.44536 0.92093 0.86546 0.0
C2856 C 0.88241 0.16937 0.84076 0.0
C2857 C 0.87214 0.16811 0.82422 0.0
C2858 C 0.87435 0.17974 0.85534 0.0
C2859 C 0.84124 0.2216 0.86327 0.0
H2860 H 0.8546 0.21089 0.91351 0.0
C2861 C 0.83194 0.28143 0.91784 0.0
C2862 C 0.84943 0.28497 0.92774 0.0
C2863 C 0.82972 0.26406 0.90772 0.0
C2864 C 0.85066 0.21401 0.89955 0.0
H2865 H 0.84473 0.17541 0.81038 0.0
H2866 H 0.83041 0.19343 0.83607 0.0
H2867 H 0.85878 0.18485 0.89075 0.0
H2868 H 0.87786 0.27249 0.93552 0.0
H2869 H 0.87397 0.24217 0.9179 0.0
H2870 H 0.83378 0.25093 0.87192 0.0
C2871 C 0.84489 0.18666 0.83761 0.0
C2872 C 0.85306 0.19914 0.88652 0.0
C2873 C 0.853 0.17625 0.82296 0.0
C2874 C 0.86416 0.27021 0.92815 0.0
C2875 C 0.86191 0.25279 0.91807 0.0
C2876 C 0.83871 0.2364 0.8763 0.0
C2877 C 0.85576 0.18903 0.85378 0.0
C2878 C 0.84912 0.20303 0.86812 0.0
C2879 C 0.84489 0.2498 0.90738 0.0
C2880 C 0.84408 0.23298 0.89445 0.0
H2881 H 0.89702 0.16287 0.84224 0.0
H2882 H 0.88325 0.18139 0.86748 0.0
H2883 H 0.83828 0.22523 0.84921 0.0
H2884 H 0.82009 0.29225 0.9176 0.0
H2885 H 0.81634 0.262 0.8998 0.0
C2886 C 0.56556 0.12075 0.59036 0.0
C2887 C 0.56435 0.10997 0.5741 0.0
C2888 C 0.5583 0.11277 0.60644 0.0
C2889 C 0.51942 0.07943 0.62115 0.0
H2890 H 0.53853 0.09542 0.6686 0.0
C2891 C 0.4673 0.07913 0.68207 0.0
C2892 C 0.46618 0.09797 0.69025 0.0
C2893 C 0.4833 0.07419 0.67095 0.0
C2894 C 0.5331 0.09064 0.65547 0.0
H2895 H 0.55594 0.08187 0.56207 0.0
H2896 H 0.54307 0.06778 0.5904 0.0
H2897 H 0.56059 0.09756 0.64238 0.0
H2898 H 0.48166 0.12584 0.69417 0.0
H2899 H 0.50955 0.11729 0.67474 0.0
H2900 H 0.49166 0.07351 0.63399 0.0
C2901 C 0.54949 0.08251 0.5906 0.0
C2902 C 0.5457 0.09187 0.64047 0.0
C2903 C 0.55687 0.09052 0.57443 0.0
C2904 C 0.48209 0.11121 0.68812 0.0
C2905 C 0.49813 0.10626 0.67703 0.0
C2906 C 0.50688 0.0781 0.63614 0.0
C2907 C 0.54968 0.09378 0.60668 0.0
C2908 C 0.53863 0.08726 0.62301 0.0
C2909 C 0.49856 0.08796 0.66786 0.0
C2910 C 0.5133 0.08462 0.65328 0.0
H2911 H 0.57166 0.13563 0.59054 0.0
H2912 H 0.55847 0.12199 0.61848 0.0
H2913 H 0.51345 0.07589 0.60789 0.0
H2914 H 0.45553 0.06838 0.68386 0.0
H2915 H 0.4834 0.05988 0.66424 0.0
C2916 C 0.64181 0.79935 0.32312 0.0
C2917 C 0.64096 0.82013 0.32377 0.0
C2918 C 0.64799 0.7886 0.33823 0.0
C2919 C 0.64628 0.79161 0.38712 0.0
H2920 H 0.67458 0.74168 0.3835 0.0
C2921 C 0.62937 0.72365 0.43147 0.0
C2922 C 0.64451 0.70986 0.4348 0.0
C2923 C 0.63325 0.74069 0.42124 0.0
C2924 C 0.66699 0.75576 0.38497 0.0
H2925 H 0.64665 0.84612 0.34027 0.0
H2926 H 0.6574 0.82718 0.36697 0.0
H2927 H 0.67546 0.76487 0.35828 0.0
H2928 H 0.67592 0.70393 0.43183 0.0
H2929 H 0.68284 0.7338 0.41427 0.0
H2930 H 0.63726 0.78216 0.41362 0.0
C2931 C 0.65334 0.81927 0.35472 0.0
C2932 C 0.66737 0.76896 0.37042 0.0
C2933 C 0.64736 0.83008 0.33946 0.0
C2934 C 0.6639 0.71414 0.42904 0.0
C2935 C 0.66784 0.73123 0.419 0.0
C2936 C 0.64588 0.77837 0.40172 0.0
C2937 C 0.65325 0.79841 0.35436 0.0
C2938 C 0.65642 0.78666 0.37108 0.0
C2939 C 0.65241 0.74429 0.41435 0.0
C2940 C 0.65567 0.75999 0.40054 0.0
H2941 H 0.6369 0.79141 0.31115 0.0
H2942 H 0.64752 0.77254 0.33759 0.0
H2943 H 0.63761 0.80512 0.38798 0.0
H2944 H 0.61431 0.72062 0.43577 0.0
H2945 H 0.62097 0.75035 0.41778 0.0
C2946 C 0.04156 0.88456 0.18154 0.0
C2947 C 0.0598 0.88054 0.17302 0.0
C2948 C 0.02474 0.88915 0.17119 0.0
C2949 C 0.01026 0.90675 0.12552 0.0
H2950 H 0.96096 0.87863 0.1341 0.0
C2951 C 0.95552 0.88695 0.06959 0.0
C2952 C 0.93511 0.8866 0.07324 0.0
C2953 C 0.969 0.89186 0.08319 0.0
C2954 C 0.97445 0.88699 0.13177 0.0
H2955 H 0.07442 0.87738 0.14696 0.0
H2956 H 0.04531 0.88537 0.12905 0.0
H2957 H 0.98809 0.87567 0.1559 0.0
H2958 H 0.91257 0.89192 0.0936 0.0
H2959 H 0.93631 0.9004 0.11766 0.0
H2960 H 0.99699 0.91732 0.10098 0.0
C2961 C 0.04406 0.88549 0.1437 0.0
C2962 C 0.99 0.88525 0.14423 0.0
C2963 C 0.06075 0.88085 0.15398 0.0
C2964 C 0.92828 0.89225 0.09048 0.0
C2965 C 0.94183 0.89694 0.10422 0.0
C2966 C 0.99476 0.90847 0.11308 0.0
C2967 C 0.02592 0.88989 0.15216 0.0
C2968 C 0.00831 0.8945 0.14086 0.0
C2969 C 0.96235 0.89631 0.1008 0.0
C2970 C 0.97697 0.89801 0.11573 0.0
H2971 H 0.04038 0.88462 0.19618 0.0
H2972 H 0.01092 0.89245 0.17806 0.0
H2973 H 0.02407 0.91442 0.12279 0.0
H2974 H 0.96108 0.88259 0.05638 0.0
H2975 H 0.98471 0.891 0.08018 0.0
C2976 C 0.65322 0.71911 0.81569 0.0
C2977 C 0.65313 0.69847 0.81827 0.0
C2978 C 0.66059 0.73165 0.82915 0.0
C2979 C 0.66116 0.73278 0.87768 0.0
H2980 H 0.687 0.78368 0.87102 0.0
C2981 C 0.65443 0.79233 0.93247 0.0
C2982 C 0.64985 0.81137 0.926 0.0
C2983 C 0.66183 0.77787 0.92072 0.0
C2984 C 0.67972 0.76953 0.87312 0.0
H2985 H 0.66186 0.67461 0.83627 0.0
H2986 H 0.67458 0.69662 0.86001 0.0
H2987 H 0.68824 0.75892 0.8468 0.0
H2988 H 0.65007 0.83056 0.9025 0.0
H2989 H 0.66211 0.80518 0.88171 0.0
H2990 H 0.65126 0.74365 0.90324 0.0
C2991 C 0.66902 0.70306 0.84754 0.0
C2992 C 0.68058 0.75534 0.8593 0.0
C2993 C 0.66184 0.69049 0.83396 0.0
C2994 C 0.65359 0.81598 0.90778 0.0
C2995 C 0.66064 0.80143 0.89593 0.0
C2996 C 0.66008 0.74702 0.89136 0.0
C2997 C 0.66779 0.72377 0.84552 0.0
C2998 C 0.67077 0.73707 0.86126 0.0
C2999 C 0.66441 0.78203 0.90216 0.0
C3000 C 0.66877 0.76584 0.88902 0.0
H3001 H 0.64667 0.72557 0.80363 0.0
H3002 H 0.65928 0.74755 0.82728 0.0
H3003 H 0.65321 0.71895 0.87947 0.0
H3004 H 0.65203 0.78859 0.94658 0.0
H3005 H 0.66502 0.76326 0.92611 0.0
C3006 C 0.44664 0.42517 0.16933 0.0
C3007 C 0.45289 0.40997 0.18112 0.0
C3008 C 0.4599 0.43364 0.15695 0.0
C3009 C 0.51336 0.4369 0.14489 0.0
H3010 H 0.49448 0.43214 0.0954 0.0
C3011 C 0.55985 0.40671 0.08771 0.0
C3012 C 0.55667 0.41275 0.06977 0.0
C3013 C 0.54906 0.41523 0.10179 0.0
C3014 C 0.49994 0.43419 0.1091 0.0
H3015 H 0.47828 0.39232 0.18945 0.0
H3016 H 0.5012 0.40705 0.16809 0.0
H3017 H 0.4709 0.4308 0.12032 0.0
H3018 H 0.54079 0.4331 0.05232 0.0
H3019 H 0.5214 0.44796 0.07712 0.0
H3020 H 0.54257 0.43891 0.13365 0.0
C3021 C 0.48613 0.41264 0.16854 0.0
C3022 C 0.4864 0.43339 0.12341 0.0
C3023 C 0.47291 0.40411 0.18079 0.0
C3024 C 0.54339 0.42828 0.06614 0.0
C3025 C 0.53234 0.4367 0.08026 0.0
C3026 C 0.5269 0.43772 0.13058 0.0
C3027 C 0.4797 0.42721 0.15625 0.0
C3028 C 0.49311 0.43363 0.14145 0.0
C3029 C 0.5347 0.42984 0.09817 0.0
C3030 C 0.52041 0.43525 0.11261 0.0
H3031 H 0.43147 0.43039 0.16945 0.0
H3032 H 0.45457 0.44493 0.1477 0.0
H3033 H 0.51888 0.43754 0.15868 0.0
H3034 H 0.57011 0.39477 0.09074 0.0
H3035 H 0.55103 0.40938 0.11536 0.0
C3036 C 0.85302 0.2332 0.43245 0.0
C3037 C 0.84784 0.215 0.42438 0.0
C3038 C 0.85074 0.25098 0.42291 0.0
C3039 C 0.82722 0.27321 0.3821 0.0
H3040 H 0.87508 0.30503 0.3803 0.0
C3041 C 0.85211 0.31666 0.31954 0.0
C3042 C 0.86439 0.33323 0.32178 0.0
C3043 C 0.84488 0.30658 0.33471 0.0
C3044 C 0.86134 0.29672 0.38093 0.0
H3045 H 0.83594 0.20138 0.39999 0.0
H3046 H 0.832 0.23222 0.38349 0.0
H3047 H 0.87223 0.27881 0.40267 0.0
H3048 H 0.87771 0.35334 0.34113 0.0
H3049 H 0.86463 0.33611 0.36777 0.0
H3050 H 0.81673 0.29063 0.35977 0.0
C3051 C 0.83747 0.23281 0.3973 0.0
C3052 C 0.85974 0.28163 0.39378 0.0
C3053 C 0.83982 0.21508 0.40677 0.0
C3054 C 0.86819 0.34055 0.33923 0.0
C3055 C 0.86083 0.3306 0.3544 0.0
C3056 C 0.8288 0.28838 0.36926 0.0
C3057 C 0.84316 0.25093 0.40515 0.0
C3058 C 0.84299 0.26925 0.39405 0.0
C3059 C 0.84985 0.313 0.35233 0.0
C3060 C 0.84619 0.29982 0.36811 0.0
H3061 H 0.85889 0.23373 0.4461 0.0
H3062 H 0.85512 0.26476 0.42935 0.0
H3063 H 0.81399 0.26409 0.38222 0.0
H3064 H 0.84925 0.31074 0.30612 0.0
H3065 H 0.83667 0.29296 0.3326 0.0
C3066 C 0.04851 0.58949 0.66483 0.0
C3067 C 0.0688 0.58886 0.66056 0.0
C3068 C 0.03427 0.5849 0.65174 0.0
C3069 C 0.02783 0.58757 0.60285 0.0
H3070 H 0.97653 0.56455 0.61401 0.0
C3071 C 0.96214 0.59996 0.55513 0.0
C3072 C 0.94586 0.60816 0.56435 0.0
C3073 C 0.9771 0.59016 0.56478 0.0
C3074 C 0.99083 0.57088 0.61063 0.0
H3075 H 0.09012 0.58202 0.63944 0.0
H3076 H 0.06522 0.5739 0.61654 0.0
H3077 H 0.00383 0.56109 0.63559 0.0
H3078 H 0.93143 0.61102 0.59047 0.0
H3079 H 0.95747 0.59422 0.60731 0.0
H3080 H 0.01464 0.59837 0.57844 0.0
C3081 C 0.06035 0.57808 0.63001 0.0
C3082 C 0.00643 0.56892 0.62298 0.0
C3083 C 0.0746 0.5826 0.64315 0.0
C3084 C 0.94398 0.60504 0.5831 0.0
C3085 C 0.95882 0.5952 0.5927 0.0
C3086 C 0.01224 0.58957 0.59053 0.0
C3087 C 0.04003 0.57961 0.63405 0.0
C3088 C 0.02486 0.57795 0.61954 0.0
C3089 C 0.97591 0.5883 0.58376 0.0
C3090 C 0.99334 0.58196 0.59463 0.0
H3091 H 0.0436 0.5939 0.67822 0.0
H3092 H 0.01875 0.58643 0.65526 0.0
H3093 H 0.04178 0.59485 0.59985 0.0
H3094 H 0.96389 0.60216 0.54066 0.0
H3095 H 0.99 0.5848 0.5575 0.0
C3096 C 0.64518 0.32863 0.64831 0.0
C3097 C 0.64326 0.31911 0.66514 0.0
C3098 C 0.64993 0.31762 0.63282 0.0
C3099 C 0.66739 0.26856 0.61673 0.0
H3100 H 0.62458 0.27268 0.58174 0.0
C3101 C 0.63848 0.20154 0.57852 0.0
C3102 C 0.63202 0.2032 0.56047 0.0
C3103 C 0.6444 0.21824 0.58821 0.0
C3104 C 0.63695 0.27161 0.59107 0.0
H3105 H 0.64589 0.29125 0.67948 0.0
H3106 H 0.65462 0.27203 0.65259 0.0
H3107 H 0.62872 0.29842 0.60467 0.0
H3108 H 0.62678 0.22381 0.5384 0.0
H3109 H 0.63693 0.25328 0.55555 0.0
H3110 H 0.67507 0.24128 0.60367 0.0
C3111 C 0.65254 0.28791 0.65123 0.0
C3112 C 0.63935 0.28637 0.6042 0.0
C3113 C 0.64749 0.29883 0.6666 0.0
C3114 C 0.63148 0.22208 0.55235 0.0
C3115 C 0.6374 0.23891 0.56211 0.0
C3116 C 0.66508 0.25387 0.60356 0.0
C3117 C 0.65309 0.29704 0.63409 0.0
C3118 C 0.65401 0.28449 0.61765 0.0
C3119 C 0.64401 0.23711 0.58013 0.0
C3120 C 0.64923 0.25476 0.59116 0.0
H3121 H 0.64174 0.34427 0.64695 0.0
H3122 H 0.65027 0.32498 0.61976 0.0
H3123 H 0.67897 0.26691 0.62681 0.0
H3124 H 0.63867 0.18731 0.58532 0.0
H3125 H 0.64882 0.21639 0.60223 0.0
C3126 C 0.9288 0.3989 0.90964 0.0
C3127 C 0.9199 0.38007 0.9088 0.0
C3128 C 0.94009 0.40589 0.89507 0.0
C3129 C 0.95445 0.39504 0.84711 0.0
H3130 H 0.00676 0.41061 0.8637 0.0
C3131 C 0.02626 0.3767 0.80898 0.0
C3132 C 0.04244 0.38975 0.81025 0.0
C3133 C 0.00857 0.38088 0.81808 0.0
C3134 C 0.99214 0.40675 0.85871 0.0
H3135 H 0.91418 0.35465 0.89154 0.0
H3136 H 0.93415 0.36653 0.86639 0.0
H3137 H 0.97958 0.40913 0.88519 0.0
H3138 H 0.05223 0.41819 0.82074 0.0
H3139 H 0.02139 0.42544 0.83668 0.0
H3140 H 0.96745 0.39159 0.82078 0.0
C3141 C 0.93244 0.37602 0.87815 0.0
C3142 C 0.9765 0.40595 0.87106 0.0
C3143 C 0.92123 0.36905 0.89268 0.0
C3144 C 0.0402 0.40759 0.81992 0.0
C3145 C 0.02251 0.4118 0.82897 0.0
C3146 C 0.97014 0.39578 0.83475 0.0
C3147 C 0.94256 0.3942 0.87941 0.0
C3148 C 0.95766 0.39936 0.86555 0.0
C3149 C 0.0067 0.39823 0.82856 0.0
C3150 C 0.9893 0.40097 0.84058 0.0
H3151 H 0.92791 0.40772 0.9219 0.0
H3152 H 0.94752 0.42008 0.89633 0.0
H3153 H 0.94 0.39023 0.8424 0.0
H3154 H 0.02759 0.36282 0.80168 0.0
H3155 H 0.99674 0.36999 0.81768 0.0
C3156 C 0.86156 0.77432 0.06268 0.0
C3157 C 0.85672 0.79231 0.07137 0.0
C3158 C 0.85985 0.75625 0.07189 0.0
C3159 C 0.83706 0.73236 0.11191 0.0
H3160 H 0.88548 0.70142 0.11358 0.0
C3161 C 0.85991 0.68568 0.17324 0.0
C3162 C 0.87334 0.67005 0.17086 0.0
C3163 C 0.85313 0.69639 0.15824 0.0
C3164 C 0.87158 0.70944 0.11296 0.0
H3165 H 0.84612 0.80503 0.09671 0.0
H3166 H 0.84289 0.77371 0.11243 0.0
H3167 H 0.88258 0.72845 0.09203 0.0
H3168 H 0.88888 0.65197 0.15121 0.0
H3169 H 0.87639 0.67005 0.12487 0.0
H3170 H 0.82625 0.7137 0.13322 0.0
C3171 C 0.84778 0.7736 0.09843 0.0
C3172 C 0.86998 0.72503 0.1006 0.0
C3173 C 0.8497 0.79163 0.08935 0.0
C3174 C 0.87856 0.6641 0.15327 0.0
C3175 C 0.87155 0.67456 0.13825 0.0
C3176 C 0.83856 0.71662 0.12417 0.0
C3177 C 0.85303 0.75576 0.08988 0.0
C3178 C 0.85301 0.73708 0.10042 0.0
C3179 C 0.85955 0.69146 0.14061 0.0
C3180 C 0.85614 0.70543 0.12531 0.0
H3181 H 0.86671 0.77408 0.0488 0.0
H3182 H 0.86396 0.74267 0.06499 0.0
H3183 H 0.8237 0.7413 0.11184 0.0
H3184 H 0.85587 0.69057 0.18675 0.0
H3185 H 0.84407 0.70939 0.16064 0.0
C3186 C 0.55035 0.60662 0.41958 0.0
C3187 C 0.5707 0.61058 0.41824 0.0
C3188 C 0.53952 0.60138 0.4042 0.0
C3189 C 0.53867 0.61281 0.35661 0.0
H3190 H 0.49327 0.57746 0.35689 0.0
C3191 C 0.4758 0.61692 0.30273 0.0
C3192 C 0.45668 0.617 0.31038 0.0
C3193 C 0.49234 0.61199 0.31333 0.0
C3194 C 0.50596 0.58734 0.35655 0.0
H3195 H 0.59603 0.61144 0.40023 0.0
H3196 H 0.57692 0.60253 0.37303 0.0
H3197 H 0.51843 0.57453 0.38056 0.0
H3198 H 0.44006 0.61266 0.33526 0.0
H3199 H 0.46866 0.60414 0.3536 0.0
H3200 H 0.52559 0.62641 0.33324 0.0
C3201 C 0.56943 0.60327 0.38601 0.0
C3202 C 0.52036 0.5856 0.37005 0.0
C3203 C 0.58034 0.60823 0.40151 0.0
C3204 C 0.45449 0.6123 0.32883 0.0
C3205 C 0.4709 0.60734 0.33935 0.0
C3206 C 0.5242 0.6146 0.34312 0.0
C3207 C 0.54881 0.60034 0.38716 0.0
C3208 C 0.53642 0.59885 0.37063 0.0
C3209 C 0.48999 0.60699 0.33173 0.0
C3210 C 0.50727 0.60245 0.34346 0.0
H3211 H 0.54266 0.60852 0.43237 0.0
H3212 H 0.52362 0.59948 0.40548 0.0
H3213 H 0.55083 0.62333 0.35681 0.0
H3214 H 0.47794 0.62027 0.28851 0.0
H3215 H 0.5069 0.61188 0.30712 0.0
C3216 C 0.3572 0.32116 0.18468 0.0
C3217 C 0.37113 0.31173 0.1959 0.0
C3218 C 0.34793 0.31058 0.17073 0.0
C3219 C 0.33846 0.26061 0.1522 0.0
H3220 H 0.35191 0.28395 0.10566 0.0
C3221 C 0.32872 0.21775 0.08529 0.0
C3222 C 0.34662 0.21607 0.07555 0.0
C3223 C 0.32668 0.23177 0.09911 0.0
C3224 C 0.34782 0.27738 0.11855 0.0
H3225 H 0.38537 0.28386 0.20242 0.0
H3226 H 0.36881 0.26518 0.17837 0.0
H3227 H 0.35587 0.30347 0.13339 0.0
H3228 H 0.37601 0.22879 0.07216 0.0
H3229 H 0.37225 0.25347 0.09598 0.0
H3230 H 0.33127 0.23421 0.13742 0.0
C3231 C 0.36505 0.28068 0.18024 0.0
C3232 C 0.34991 0.28857 0.13437 0.0
C3233 C 0.37455 0.29133 0.19394 0.0
C3234 C 0.36197 0.22964 0.07923 0.0
C3235 C 0.35983 0.24382 0.0929 0.0
C3236 C 0.33611 0.2495 0.13635 0.0
C3237 C 0.35226 0.29039 0.16808 0.0
C3238 C 0.3459 0.28004 0.15138 0.0
C3239 C 0.34237 0.24465 0.10327 0.0
C3240 C 0.34143 0.25758 0.11946 0.0
H3241 H 0.35454 0.33697 0.18588 0.0
H3242 H 0.3381 0.31835 0.16152 0.0
H3243 H 0.33527 0.25373 0.16516 0.0
H3244 H 0.31635 0.20796 0.08255 0.0
H3245 H 0.31299 0.23229 0.1068 0.0
C3246 C 0.5339 0.6152 0.80986 0.0
C3247 C 0.55118 0.61669 0.82054 0.0
C3248 C 0.51591 0.60925 0.81758 0.0
C3249 C 0.49407 0.58416 0.85731 0.0
H3250 H 0.45066 0.62126 0.85122 0.0
C3251 C 0.43618 0.59884 0.91193 0.0
C3252 C 0.41788 0.60716 0.90715 0.0
C3253 C 0.44973 0.59346 0.89849 0.0
C3254 C 0.4623 0.61033 0.85274 0.0
H3255 H 0.56279 0.61296 0.84784 0.0
H3256 H 0.53161 0.60234 0.86108 0.0
H3257 H 0.48016 0.62463 0.83262 0.0
H3258 H 0.39847 0.61502 0.88494 0.0
H3259 H 0.42178 0.60482 0.86127 0.0
H3260 H 0.47645 0.57016 0.87779 0.0
C3261 C 0.5321 0.60557 0.84669 0.0
C3262 C 0.4793 0.61236 0.84209 0.0
C3263 C 0.55 0.61173 0.83905 0.0
C3264 C 0.41252 0.60845 0.88883 0.0
C3265 C 0.42596 0.60284 0.87534 0.0
C3266 C 0.47696 0.58197 0.86783 0.0
C3267 C 0.51485 0.60443 0.83607 0.0
C3268 C 0.49562 0.59979 0.84478 0.0
C3269 C 0.44513 0.59629 0.88002 0.0
C3270 C 0.4612 0.59554 0.8662 0.0
H3271 H 0.53418 0.61852 0.79552 0.0
H3272 H 0.5028 0.60845 0.8091 0.0
H3273 H 0.50638 0.57408 0.85943 0.0
H3274 H 0.44064 0.59806 0.92604 0.0
H3275 H 0.46437 0.5887 0.90267 0.0
C3276 C 0.16513 0.68031 0.65501 0.0
C3277 C 0.16127 0.68164 0.67371 0.0
C3278 C 0.17192 0.69683 0.64543 0.0
C3279 C 0.16548 0.75022 0.64845 0.0
H3280 H 0.19419 0.74991 0.60288 0.0
C3281 C 0.15867 0.81554 0.59912 0.0
C3282 C 0.15433 0.80997 0.58117 0.0
C3283 C 0.16592 0.80161 0.61149 0.0
C3284 C 0.18617 0.75024 0.61561 0.0
H3285 H 0.16358 0.70069 0.69734 0.0
H3286 H 0.17591 0.72937 0.68068 0.0
H3287 H 0.19695 0.72156 0.62342 0.0
H3288 H 0.15558 0.7857 0.56186 0.0
H3289 H 0.16749 0.76129 0.58353 0.0
H3290 H 0.15386 0.7783 0.64035 0.0
C3291 C 0.17324 0.71569 0.67336 0.0
C3292 C 0.18779 0.73405 0.62738 0.0
C3293 C 0.16637 0.69917 0.68294 0.0
C3294 C 0.15831 0.79039 0.57567 0.0
C3295 C 0.1655 0.77646 0.58804 0.0
C3296 C 0.16385 0.76635 0.63671 0.0
C3297 C 0.17507 0.715 0.65437 0.0
C3298 C 0.17694 0.73358 0.64366 0.0
C3299 C 0.16895 0.78179 0.60621 0.0
C3300 C 0.17363 0.76628 0.61988 0.0
H3301 H 0.16169 0.66687 0.64758 0.0
H3302 H 0.17315 0.69574 0.63081 0.0
H3303 H 0.15664 0.75026 0.66071 0.0
H3304 H 0.15579 0.83048 0.60382 0.0
H3305 H 0.16867 0.80626 0.62533 0.0
C3306 C 0.07732 0.388 0.39363 0.0
C3307 C 0.07586 0.39702 0.41074 0.0
C3308 C 0.06907 0.39704 0.37842 0.0
C3309 C 0.02677 0.42855 0.36902 0.0
H3310 H 0.04078 0.41512 0.31949 0.0
C3311 C 0.9669 0.42541 0.31478 0.0
C3312 C 0.96617 0.40658 0.30657 0.0
C3313 C 0.98398 0.43169 0.32381 0.0
C3314 C 0.03676 0.41922 0.33322 0.0
H3315 H 0.06651 0.42347 0.42511 0.0
H3316 H 0.05223 0.43952 0.39836 0.0
H3317 H 0.06613 0.41396 0.34317 0.0
H3318 H 0.98321 0.38021 0.30025 0.0
H3319 H 0.01297 0.39103 0.31615 0.0
H3320 H 0.99724 0.43277 0.35935 0.0
C3321 C 0.05941 0.42524 0.39679 0.0
C3322 C 0.05123 0.41854 0.34677 0.0
C3323 C 0.06766 0.41612 0.41208 0.0
C3324 C 0.98333 0.39478 0.30644 0.0
C3325 C 1.00042 0.40106 0.31547 0.0
C3326 C 0.01238 0.42938 0.35547 0.0
C3327 C 0.05925 0.41537 0.37996 0.0
C3328 C 0.0461 0.42207 0.365 0.0
C3329 C 1.00068 0.41928 0.32477 0.0
C3330 C 0.01698 0.42368 0.33764 0.0
H3331 H 0.08402 0.37347 0.39215 0.0
H3332 H 0.06914 0.38888 0.36576 0.0
H3333 H 0.02218 0.43123 0.38288 0.0
H3334 H 0.9541 0.43511 0.31463 0.0
H3335 H 0.98387 0.44592 0.33065 0.0
C3336 C 0.3538 0.6731 0.32653 0.0
C3337 C 0.35653 0.6843 0.31069 0.0
C3338 C 0.34742 0.68232 0.34249 0.0
C3339 C 0.32566 0.7277 0.3619 0.0
H3340 H 0.36707 0.72331 0.39824 0.0
C3341 C 0.34144 0.79029 0.41194 0.0
C3342 C 0.34911 0.78615 0.42923 0.0
C3343 C 0.33838 0.7751 0.39944 0.0
C3344 C 0.35504 0.72441 0.38855 0.0
H3345 H 0.35368 0.71335 0.2985 0.0
H3346 H 0.34189 0.72943 0.32624 0.0
H3347 H 0.36692 0.70079 0.37245 0.0
H3348 H 0.35916 0.76285 0.44721 0.0
H3349 H 0.35343 0.736 0.42543 0.0
H3350 H 0.3139 0.75148 0.37778 0.0
C3351 C 0.34468 0.7136 0.32641 0.0
C3352 C 0.35499 0.71148 0.37374 0.0
C3353 C 0.35142 0.70446 0.31058 0.0
C3354 C 0.35342 0.76642 0.43388 0.0
C3355 C 0.35013 0.7511 0.4214 0.0
C3356 C 0.32551 0.74042 0.37686 0.0
C3357 C 0.34339 0.70278 0.34266 0.0
C3358 C 0.34073 0.7135 0.35997 0.0
C3359 C 0.34269 0.75529 0.40396 0.0
C3360 C 0.34068 0.73947 0.38998 0.0
H3361 H 0.35794 0.65756 0.3269 0.0
H3362 H 0.34653 0.67371 0.35487 0.0
H3363 H 0.31443 0.72941 0.35151 0.0
H3364 H 0.33832 0.80541 0.40788 0.0
H3365 H 0.33319 0.77905 0.38601 0.0
C3366 C 0.95338 0.59752 0.16139 0.0
C3367 C 0.96072 0.60233 0.17863 0.0
C3368 C 0.96629 0.59476 0.14687 0.0
C3369 C 0.01727 0.60692 0.13197 0.0
H3370 H 0.00182 0.57403 0.09111 0.0
C3371 C 0.06143 0.60691 0.06571 0.0
C3372 C 0.04982 0.61587 0.05218 0.0
C3373 C 0.05247 0.59912 0.08122 0.0
C3374 C 0.00642 0.58303 0.10254 0.0
H3375 H 0.98717 0.60755 0.1945 0.0
H3376 H 0.01007 0.60197 0.16921 0.0
H3377 H 0.98315 0.57205 0.11944 0.0
H3378 H 0.01991 0.62248 0.04339 0.0
H3379 H 0.0041 0.60814 0.0703 0.0
H3380 H 0.04057 0.61779 0.11493 0.0
C3381 C 0.99428 0.60086 0.16673 0.0
C3382 C 0.99564 0.58212 0.1187 0.0
C3383 C 0.98125 0.60403 0.18123 0.0
C3384 C 0.02907 0.61545 0.05362 0.0
C3385 C 0.02009 0.60726 0.06894 0.0
C3386 C 0.02829 0.60746 0.11597 0.0
C3387 C 0.98693 0.59636 0.14929 0.0
C3388 C 1.00043 0.59467 0.13338 0.0
C3389 C 0.03178 0.59984 0.08318 0.0
C3390 C 0.02254 0.59602 0.10096 0.0
H3391 H 0.93756 0.59643 0.15904 0.0
H3392 H 0.95994 0.59194 0.13363 0.0
H3393 H 0.02133 0.61699 0.1428 0.0
H3394 H 0.07748 0.60736 0.06495 0.0
H3395 H 0.06171 0.59353 0.09211 0.0
C3396 C 0.15302 0.3006 0.81952 0.0
C3397 C 0.14693 0.32044 0.82045 0.0
C3398 C 0.15939 0.2908 0.83512 0.0
C3399 C 0.14631 0.28988 0.882 0.0
H3400 H 0.18607 0.2484 0.88443 0.0
C3401 C 0.14192 0.22729 0.93539 0.0
C3402 C 0.14479 0.20823 0.92811 0.0
C3403 C 0.14702 0.24416 0.92533 0.0
C3404 C 0.17491 0.25996 0.884 0.0
H3405 H 0.14349 0.34606 0.83788 0.0
H3406 H 0.15433 0.32874 0.86545 0.0
H3407 H 0.18785 0.27327 0.8604 0.0
H3408 H 0.15499 0.19192 0.90454 0.0
H3409 H 0.16352 0.22105 0.88698 0.0
H3410 H 0.13244 0.27579 0.90466 0.0
C3411 C 0.15446 0.32088 0.85263 0.0
C3412 C 0.17604 0.27424 0.87033 0.0
C3413 C 0.14839 0.33077 0.83692 0.0
C3414 C 0.15294 0.20637 0.91066 0.0
C3415 C 0.15795 0.22313 0.90063 0.0
C3416 C 0.14506 0.27548 0.89556 0.0
C3417 C 0.15938 0.30063 0.85195 0.0
C3418 C 0.16128 0.28883 0.86877 0.0
C3419 C 0.15503 0.24224 0.90779 0.0
C3420 C 0.15884 0.25984 0.89619 0.0
H3421 H 0.15175 0.29238 0.80693 0.0
H3422 H 0.16284 0.27512 0.83425 0.0
H3423 H 0.13462 0.30087 0.88101 0.0
H3424 H 0.1359 0.22915 0.9489 0.0
H3425 H 0.14467 0.25868 0.93125 0.0
C3426 C 0.41446 0.36946 0.60892 0.0
C3427 C 0.41182 0.38043 0.59291 0.0
C3428 C 0.42643 0.37673 0.62284 0.0
C3429 C 0.47023 0.40771 0.62695 0.0
H3430 H 0.46616 0.39279 0.67762 0.0
C3431 C 0.53848 0.41052 0.67282 0.0
C3432 C 0.54195 0.39276 0.68229 0.0
C3433 C 0.5199 0.41439 0.66525 0.0
C3434 C 0.46747 0.39714 0.66353 0.0
H3435 H 0.41816 0.40837 0.57953 0.0
H3436 H 0.43891 0.42127 0.60403 0.0
H3437 H 0.43688 0.39081 0.65813 0.0
H3438 H 0.52847 0.36561 0.69207 0.0
H3439 H 0.49609 0.37216 0.67861 0.0
H3440 H 0.50092 0.41312 0.63201 0.0
C3441 C 0.432 0.40687 0.60567 0.0
C3442 C 0.45072 0.39604 0.65238 0.0
C3443 C 0.42001 0.39955 0.5917 0.0
C3444 C 0.52619 0.37944 0.68489 0.0
C3445 C 0.50761 0.38326 0.67725 0.0
C3446 C 0.48691 0.40885 0.63807 0.0
C3447 C 0.43597 0.39518 0.62105 0.0
C3448 C 0.45213 0.40059 0.63381 0.0
C3449 C 0.50443 0.40054 0.66695 0.0
C3450 C 0.48589 0.40289 0.65631 0.0
H3451 H 0.40797 0.35483 0.61037 0.0
H3452 H 0.42924 0.36726 0.63442 0.0
H3453 H 0.47195 0.41107 0.61267 0.0
H3454 H 0.55021 0.4213 0.671 0.0
H3455 H 0.5178 0.42799 0.65766 0.0
loop_
_geom_bond_atom_site_label_1
_geom_bond_atom_site_label_2
_geom_bond_distance
_geom_bond_site_symmetry_2
_ccdc_geom_bond_type
C0 C1 1.351 . S
C0 N3 1.368 . S
C0 H5 0.931 . S
C1 C0 1.351 . S
C1 N2 1.373 . S
C1 H29 0.930 . S
N2 C1 1.373 . S
N2 C4 1.340 . S
N3 C0 1.368 . S
N3 C4 1.321 . S
N3 Co6 2.135 . S
C4 N2 1.340 . S
C4 N3 1.321 . S
C4 H28 0.930 . S
H5 C0 0.931 . S
Co6 N3 2.135 . S
Co6 N9 2.121 . S
Co6 O14 2.055 . S
Co6 O17 2.039 . S
Co6 N20 2.140 . S
C7 O8 1.227 . S
C7 O17 1.265 . S
O8 C7 1.227 . S
N9 Co6 2.121 . S
N9 C11 1.375 . S
N9 C12 1.313 . S
C10 C11 1.338 . S
C10 N13 1.377 . S
C10 H30 0.930 . S
C11 N9 1.375 . S
C11 C10 1.338 . S
C11 H15 0.931 . S
C12 N9 1.313 . S
C12 N13 1.344 . S
C12 H16 0.930 . S
N13 C10 1.377 . S
N13 C12 1.344 . S
O14 Co6 2.055 . S
O14 C18 1.253 . S
H15 C11 0.931 . S
H16 C12 0.930 . S
O17 Co6 2.039 . S
O17 C7 1.265 . S
C18 O14 1.253 . S
C18 O19 1.227 . S
O19 C18 1.227 . S
N20 Co6 2.140 . S
N20 C23 1.346 . S
N20 C24 1.345 . S
C21 C22 1.387 . S
C21 C25 1.391 . S
C22 C21 1.387 . S
C22 C23 1.369 . S
C22 H31 0.929 . S
C23 N20 1.346 . S
C23 C22 1.369 . S
C23 H26 0.928 . S
C24 N20 1.345 . S
C24 C25 1.371 . S
C24 H27 0.931 . S
C25 C21 1.391 . S
C25 C24 1.371 . S
C25 H32 0.930 . S
H26 C23 0.928 . S
H27 C24 0.931 . S
H28 C4 0.930 . S
H29 C1 0.930 . S
H30 C10 0.930 . S
H31 C22 0.929 . S
H32 C25 0.930 . S
C33 C34 1.351 . S
C33 N36 1.368 . S
C33 H38 0.931 . S
C34 C33 1.351 . S
C34 N35 1.373 . S
C34 H62 0.930 . S
N35 C34 1.373 . S
N35 C37 1.340 . S
N36 C33 1.368 . S
N36 C37 1.321 . S
N36 Co39 2.135 . S
C37 N35 1.340 . S
C37 N36 1.321 . S
C37 H61 0.930 . S
H38 C33 0.931 . S
Co39 N36 2.135 . S
Co39 N42 2.121 . S
Co39 O47 2.055 . S
Co39 O50 2.039 . S
Co39 N53 2.140 . S
C40 O41 1.227 . S
C40 O50 1.265 . S
O41 C40 1.227 . S
N42 Co39 2.121 . S
N42 C44 1.375 . S
N42 C45 1.313 . S
C43 C44 1.338 . S
C43 N46 1.377 . S
C43 H63 0.930 . S
C44 N42 1.375 . S
C44 C43 1.338 . S
C44 H48 0.931 . S
C45 N42 1.313 . S
C45 N46 1.344 . S
C45 H49 0.930 . S
N46 C43 1.377 . S
N46 C45 1.344 . S
O47 Co39 2.055 . S
O47 C51 1.253 . S
H48 C44 0.931 . S
H49 C45 0.930 . S
O50 Co39 2.039 . S
O50 C40 1.265 . S
C51 O47 1.253 . S
C51 O52 1.227 . S
O52 C51 1.227 . S
N53 Co39 2.140 . S
N53 C56 1.346 . S
N53 C57 1.345 . S
C54 C55 1.387 . S
C54 C58 1.391 . S
C55 C54 1.387 . S
C55 C56 1.369 . S
C55 H64 0.929 . S
C56 N53 1.346 . S
C56 C55 1.369 . S
C56 H59 0.928 . S
C57 N53 1.345 . S
C57 C58 1.371 . S
C57 H60 0.931 . S
C58 C54 1.391 . S
C58 C57 1.371 . S
C58 H65 0.930 . S
H59 C56 0.928 . S
H60 C57 0.931 . S
H61 C37 0.930 . S
H62 C34 0.930 . S
H63 C43 0.930 . S
H64 C55 0.929 . S
H65 C58 0.930 . S
C66 C67 1.351 . S
C66 N69 1.368 . S
C66 H71 0.931 . S
C67 C66 1.351 . S
C67 N68 1.373 . S
C67 H95 0.930 . S
N68 C67 1.373 . S
N68 C70 1.340 . S
N69 C66 1.368 . S
N69 C70 1.321 . S
N69 Co72 2.135 . S
C70 N68 1.340 . S
C70 N69 1.321 . S
C70 H94 0.930 . S
H71 C66 0.931 . S
Co72 N69 2.135 . S
Co72 N75 2.121 . S
Co72 O80 2.055 . S
Co72 O83 2.039 . S
Co72 N86 2.140 . S
C73 O74 1.227 . S
C73 O83 1.265 . S
O74 C73 1.227 . S
N75 Co72 2.121 . S
N75 C77 1.375 . S
N75 C78 1.313 . S
C76 C77 1.338 . S
C76 N79 1.377 . S
C76 H96 0.930 . S
C77 N75 1.375 . S
C77 C76 1.338 . S
C77 H81 0.931 . S
C78 N75 1.313 . S
C78 N79 1.344 . S
C78 H82 0.930 . S
N79 C76 1.377 . S
N79 C78 1.344 . S
O80 Co72 2.055 . S
O80 C84 1.253 . S
H81 C77 0.931 . S
H82 C78 0.930 . S
O83 Co72 2.039 . S
O83 C73 1.265 . S
C84 O80 1.253 . S
C84 O85 1.227 . S
O85 C84 1.227 . S
N86 Co72 2.140 . S
N86 C89 1.346 . S
N86 C90 1.345 . S
C87 C88 1.387 . S
C87 C91 1.391 . S
C88 C87 1.387 . S
C88 C89 1.369 . S
C88 H97 0.929 . S
C89 N86 1.346 . S
C89 C88 1.369 . S
C89 H92 0.928 . S
C90 N86 1.345 . S
C90 C91 1.371 . S
C90 H93 0.931 . S
C91 C87 1.391 . S
C91 C90 1.371 . S
C91 H98 0.930 . S
H92 C89 0.928 . S
H93 C90 0.931 . S
H94 C70 0.930 . S
H95 C67 0.930 . S
H96 C76 0.930 . S
H97 C88 0.929 . S
H98 C91 0.930 . S
C99 C100 1.351 . S
C99 N102 1.368 . S
C99 H104 0.931 . S
C100 C99 1.351 . S
C100 N101 1.373 . S
C100 H128 0.930 . S
N101 C100 1.373 . S
N101 C103 1.340 . S
N102 C99 1.368 . S
N102 C103 1.321 . S
N102 Co105 2.135 . S
C103 N101 1.340 . S
C103 N102 1.321 . S
C103 H127 0.930 . S
H104 C99 0.931 . S
Co105 N102 2.135 . S
Co105 N108 2.121 1_554 S
Co105 O113 2.055 . S
Co105 O116 2.039 . S
Co105 N119 2.140 . S
C106 O107 1.227 . S
C106 O116 1.265 . S
O107 C106 1.227 . S
N108 Co105 2.121 1_556 S
N108 C110 1.375 . S
N108 C111 1.313 . S
C109 C110 1.338 . S
C109 N112 1.377 . S
C109 H129 0.930 . S
C110 N108 1.375 . S
C110 C109 1.338 . S
C110 H114 0.953 . S
C111 N108 1.313 . S
C111 N112 1.344 . S
C111 H115 0.930 . S
N112 C109 1.377 . S
N112 C111 1.344 . S
O113 Co105 2.055 . S
O113 C117 1.253 . S
H114 C110 0.953 . S
H115 C111 0.930 . S
O116 Co105 2.039 . S
O116 C106 1.265 . S
C117 O113 1.253 . S
C117 O118 1.227 . S
O118 C117 1.227 . S
N119 Co105 2.140 . S
N119 C122 1.346 . S
N119 C123 1.345 . S
C120 C121 1.387 . S
C120 C124 1.391 . S
C121 C120 1.387 . S
C121 C122 1.369 . S
C121 H130 0.929 . S
C122 N119 1.346 . S
C122 C121 1.369 . S
C122 H125 0.928 . S
C123 N119 1.345 . S
C123 C124 1.371 . S
C123 H126 0.931 . S
C124 C120 1.391 . S
C124 C123 1.371 . S
C124 H131 0.930 . S
H125 C122 0.928 . S
H126 C123 0.931 . S
H127 C103 0.930 . S
H128 C100 0.930 . S
H129 C109 0.930 . S
H130 C121 0.929 . S
H131 C124 0.930 . S
C132 C133 1.351 . S
C132 N135 1.368 . S
C132 H137 0.931 . S
C133 C132 1.351 . S
C133 N134 1.373 . S
C133 H161 0.930 . S
N134 C133 1.373 . S
N134 C136 1.340 . S
N135 C132 1.368 . S
N135 C136 1.321 . S
N135 Co138 2.135 . S
C136 N134 1.340 . S
C136 N135 1.321 . S
C136 H160 0.930 . S
H137 C132 0.931 . S
Co138 N135 2.135 . S
Co138 N141 2.121 . S
Co138 O146 2.055 . S
Co138 O149 2.039 . S
Co138 N152 2.140 . S
C139 O140 1.227 . S
C139 O149 1.265 . S
O140 C139 1.227 . S
N141 Co138 2.121 . S
N141 C143 1.375 . S
N141 C144 1.313 . S
C142 C143 1.338 . S
C142 N145 1.377 . S
C142 H162 0.930 . S
C143 N141 1.375 . S
C143 C142 1.338 . S
C143 H147 0.931 . S
C144 N141 1.313 . S
C144 N145 1.344 . S
C144 H148 0.930 . S
N145 C142 1.377 . S
N145 C144 1.344 . S
O146 Co138 2.055 . S
O146 C150 1.253 . S
H147 C143 0.931 . S
H148 C144 0.930 . S
O149 Co138 2.039 . S
O149 C139 1.265 . S
C150 O146 1.253 . S
C150 O151 1.227 . S
O151 C150 1.227 . S
N152 Co138 2.140 . S
N152 C155 1.346 . S
N152 C156 1.345 . S
C153 C154 1.387 . S
C153 C157 1.391 . S
C154 C153 1.387 . S
C154 C155 1.369 . S
C154 H163 0.929 . S
C155 N152 1.346 . S
C155 C154 1.369 . S
C155 H158 0.928 . S
C156 N152 1.345 . S
C156 C157 1.371 . S
C156 H159 0.931 . S
C157 C153 1.391 . S
C157 C156 1.371 . S
C157 H164 0.930 . S
H158 C155 0.928 . S
H159 C156 0.931 . S
H160 C136 0.930 . S
H161 C133 0.930 . S
H162 C142 0.930 . S
H163 C154 0.929 . S
H164 C157 0.930 . S
C165 C166 1.351 . S
C165 N168 1.368 . S
C165 H170 0.931 . S
C166 C165 1.351 . S
C166 N167 1.373 . S
C166 H194 0.930 . S
N167 C166 1.373 . S
N167 C169 1.340 . S
N168 C165 1.368 . S
N168 C169 1.321 . S
N168 Co171 2.135 . S
C169 N167 1.340 . S
C169 N168 1.321 . S
C169 H193 0.930 . S
H170 C165 0.931 . S
Co171 N168 2.135 . S
Co171 N174 2.121 . S
Co171 O179 2.055 . S
Co171 O182 2.039 . S
Co171 N185 2.140 . S
C172 O173 1.227 . S
C172 O182 1.265 . S
O173 C172 1.227 . S
N174 Co171 2.121 . S
N174 C176 1.375 . S
N174 C177 1.313 . S
C175 C176 1.338 . S
C175 N178 1.377 . S
C175 H195 0.930 . S
C176 N174 1.375 . S
C176 C175 1.338 . S
C176 H180 0.931 . S
C177 N174 1.313 . S
C177 N178 1.344 . S
C177 H181 0.930 . S
N178 C175 1.377 . S
N178 C177 1.344 . S
O179 Co171 2.055 . S
O179 C183 1.253 . S
H180 C176 0.931 . S
H181 C177 0.930 . S
O182 Co171 2.039 . S
O182 C172 1.265 . S
C183 O179 1.253 . S
C183 O184 1.227 . S
O184 C183 1.227 . S
N185 Co171 2.140 . S
N185 C188 1.346 . S
N185 C189 1.345 . S
C186 C187 1.387 . S
C186 C190 1.391 . S
C187 C186 1.387 . S
C187 C188 1.369 . S
C187 H196 0.929 . S
C188 N185 1.346 . S
C188 C187 1.369 . S
C188 H191 0.928 . S
C189 N185 1.345 . S
C189 C190 1.371 . S
C189 H192 0.931 . S
C190 C186 1.391 . S
C190 C189 1.371 . S
C190 H197 0.930 . S
H191 C188 0.928 . S
H192 C189 0.931 . S
H193 C169 0.930 . S
H194 C166 0.930 . S
H195 C175 0.930 . S
H196 C187 0.929 . S
H197 C190 0.930 . S
C198 C199 1.351 . S
C198 N201 1.368 . S
C198 H203 0.931 . S
C199 C198 1.351 . S
C199 N200 1.373 . S
C199 H227 0.930 . S
N200 C199 1.373 . S
N200 C202 1.340 . S
N201 C198 1.368 . S
N201 C202 1.321 . S
N201 Co204 2.135 . S
C202 N200 1.340 . S
C202 N201 1.321 . S
C202 H226 0.930 . S
H203 C198 0.931 . S
Co204 N201 2.135 . S
Co204 N207 2.121 . S
Co204 O212 2.055 . S
Co204 O215 2.039 . S
Co204 N218 2.140 . S
C205 O206 1.227 . S
C205 O215 1.265 . S
O206 C205 1.227 . S
N207 Co204 2.121 . S
N207 C209 1.375 . S
N207 C210 1.313 . S
C208 C209 1.338 . S
C208 N211 1.377 . S
C208 H228 0.930 . S
C209 N207 1.375 . S
C209 C208 1.338 . S
C209 H213 0.931 . S
C210 N207 1.313 . S
C210 N211 1.344 . S
C210 H214 0.930 . S
N211 C208 1.377 . S
N211 C210 1.344 . S
O212 Co204 2.055 . S
O212 C216 1.253 . S
H213 C209 0.931 . S
H214 C210 0.930 . S
O215 Co204 2.039 . S
O215 C205 1.265 . S
C216 O212 1.253 . S
C216 O217 1.227 . S
O217 C216 1.227 . S
N218 Co204 2.140 . S
N218 C221 1.346 . S
N218 C222 1.345 . S
C219 C220 1.387 . S
C219 C223 1.391 . S
C220 C219 1.387 . S
C220 C221 1.369 . S
C220 H229 0.929 . S
C221 N218 1.346 . S
C221 C220 1.369 . S
C221 H224 0.928 . S
C222 N218 1.345 . S
C222 C223 1.371 . S
C222 H225 0.931 . S
C223 C219 1.391 . S
C223 C222 1.371 . S
C223 H230 0.930 . S
H224 C221 0.928 . S
H225 C222 0.931 . S
H226 C202 0.930 . S
H227 C199 0.930 . S
H228 C208 0.930 . S
H229 C220 0.929 . S
H230 C223 0.930 . S
C231 C232 1.351 . S
C231 N234 1.368 . S
C231 H236 0.931 . S
C232 C231 1.351 . S
C232 N233 1.373 . S
C232 H260 0.930 . S
N233 C232 1.373 . S
N233 C235 1.340 . S
N234 C231 1.368 . S
N234 C235 1.321 . S
N234 Co237 2.135 . S
C235 N233 1.340 . S
C235 N234 1.321 . S
C235 H259 0.930 . S
H236 C231 0.931 . S
Co237 N234 2.135 . S
Co237 N240 2.121 1_556 S
Co237 O245 2.055 . S
Co237 O248 2.039 . S
Co237 N251 2.140 . S
C238 O239 1.227 . S
C238 O248 1.265 . S
O239 C238 1.227 . S
N240 Co237 2.121 1_554 S
N240 C242 1.375 . S
N240 C243 1.313 . S
C241 C242 1.338 . S
C241 N244 1.377 . S
C241 H261 0.930 . S
C242 N240 1.375 . S
C242 C241 1.338 . S
C242 H246 0.953 . S
C243 N240 1.313 . S
C243 N244 1.344 . S
C243 H247 0.930 . S
N244 C241 1.377 . S
N244 C243 1.344 . S
O245 Co237 2.055 . S
O245 C249 1.253 . S
H246 C242 0.953 . S
H247 C243 0.930 . S
O248 Co237 2.039 . S
O248 C238 1.265 . S
C249 O245 1.253 . S
C249 O250 1.227 . S
O250 C249 1.227 . S
N251 Co237 2.140 . S
N251 C254 1.346 . S
N251 C255 1.345 . S
C252 C253 1.387 . S
C252 C256 1.391 . S
C253 C252 1.387 . S
C253 C254 1.369 . S
C253 H262 0.929 . S
C254 N251 1.346 . S
C254 C253 1.369 . S
C254 H257 0.928 . S
C255 N251 1.345 . S
C255 C256 1.371 . S
C255 H258 0.931 . S
C256 C252 1.391 . S
C256 C255 1.371 . S
C256 H263 0.930 . S
H257 C254 0.928 . S
H258 C255 0.931 . S
H259 C235 0.930 . S
H260 C232 0.930 . S
H261 C241 0.930 . S
H262 C253 0.929 . S
H263 C256 0.930 . S
C264 C265 1.351 . S
C264 N267 1.368 . S
C264 H269 0.931 . S
C265 C264 1.351 . S
C265 N266 1.373 . S
C265 H293 0.930 . S
N266 C265 1.373 . S
N266 C268 1.340 . S
N267 C264 1.368 . S
N267 C268 1.321 . S
N267 Co270 2.135 . S
C268 N266 1.340 . S
C268 N267 1.321 . S
C268 H292 0.930 . S
H269 C264 0.931 . S
Co270 N267 2.135 . S
Co270 N273 2.121 . S
Co270 O278 2.055 . S
Co270 O281 2.039 . S
Co270 N284 2.140 . S
C271 O272 1.227 . S
C271 O281 1.265 . S
O272 C271 1.227 . S
N273 Co270 2.121 . S
N273 C275 1.375 . S
N273 C276 1.313 . S
C274 C275 1.338 . S
C274 N277 1.377 . S
C274 H294 0.930 . S
C275 N273 1.375 . S
C275 C274 1.338 . S
C275 H279 0.931 . S
C276 N273 1.313 . S
C276 N277 1.344 . S
C276 H280 0.930 . S
N277 C274 1.377 . S
N277 C276 1.344 . S
O278 Co270 2.055 . S
O278 C282 1.253 . S
H279 C275 0.931 . S
H280 C276 0.930 . S
O281 Co270 2.039 . S
O281 C271 1.265 . S
C282 O278 1.253 . S
C282 O283 1.227 . S
O283 C282 1.227 . S
N284 Co270 2.140 . S
N284 C287 1.346 . S
N284 C288 1.345 . S
C285 C286 1.387 . S
C285 C289 1.391 . S
C286 C285 1.387 . S
C286 C287 1.369 . S
C286 H295 0.929 . S
C287 N284 1.346 . S
C287 C286 1.369 . S
C287 H290 0.928 . S
C288 N284 1.345 . S
C288 C289 1.371 . S
C288 H291 0.931 . S
C289 C285 1.391 . S
C289 C288 1.371 . S
C289 H296 0.930 . S
H290 C287 0.928 . S
H291 C288 0.931 . S
H292 C268 0.930 . S
H293 C265 0.930 . S
H294 C274 0.930 . S
H295 C286 0.929 . S
H296 C289 0.930 . S
C297 C298 1.351 . S
C297 N300 1.368 . S
C297 H302 0.931 . S
C298 C297 1.351 . S
C298 N299 1.373 . S
C298 H326 0.930 . S
N299 C298 1.373 . S
N299 C301 1.340 . S
N300 C297 1.368 . S
N300 C301 1.321 . S
N300 Co303 2.135 . S
C301 N299 1.340 . S
C301 N300 1.321 . S
C301 H325 0.930 . S
H302 C297 0.931 . S
Co303 N300 2.135 . S
Co303 N306 2.121 . S
Co303 O311 2.055 . S
Co303 O314 2.039 . S
Co303 N317 2.140 . S
C304 O305 1.227 . S
C304 O314 1.265 . S
O305 C304 1.227 . S
N306 Co303 2.121 . S
N306 C308 1.375 . S
N306 C309 1.313 . S
C307 C308 1.338 . S
C307 N310 1.377 . S
C307 H327 0.930 . S
C308 N306 1.375 . S
C308 C307 1.338 . S
C308 H312 0.931 . S
C309 N306 1.313 . S
C309 N310 1.344 . S
C309 H313 0.930 . S
N310 C307 1.377 . S
N310 C309 1.344 . S
O311 Co303 2.055 . S
O311 C315 1.253 . S
H312 C308 0.931 . S
H313 C309 0.930 . S
O314 Co303 2.039 . S
O314 C304 1.265 . S
C315 O311 1.253 . S
C315 O316 1.227 . S
O316 C315 1.227 . S
N317 Co303 2.140 . S
N317 C320 1.346 . S
N317 C321 1.345 . S
C318 C319 1.387 . S
C318 C322 1.391 . S
C319 C318 1.387 . S
C319 C320 1.369 . S
C319 H328 0.929 . S
C320 N317 1.346 . S
C320 C319 1.369 . S
C320 H323 0.928 . S
C321 N317 1.345 . S
C321 C322 1.371 . S
C321 H324 0.931 . S
C322 C318 1.391 . S
C322 C321 1.371 . S
C322 H329 0.930 . S
H323 C320 0.928 . S
H324 C321 0.931 . S
H325 C301 0.930 . S
H326 C298 0.930 . S
H327 C307 0.930 . S
H328 C319 0.929 . S
H329 C322 0.930 . S
C330 C331 1.351 . S
C330 N333 1.368 . S
C330 H335 0.931 . S
C331 C330 1.351 . S
C331 N332 1.373 . S
C331 H359 0.930 . S
N332 C331 1.373 . S
N332 C334 1.340 . S
N333 C330 1.368 . S
N333 C334 1.321 . S
N333 Co336 2.135 . S
C334 N332 1.340 . S
C334 N333 1.321 . S
C334 H358 0.930 . S
H335 C330 0.931 . S
Co336 N333 2.135 . S
Co336 N339 2.121 . S
Co336 O344 2.055 . S
Co336 O347 2.039 . S
Co336 N350 2.140 . S
C337 O338 1.227 . S
C337 O347 1.265 . S
O338 C337 1.227 . S
N339 Co336 2.121 . S
N339 C341 1.375 . S
N339 C342 1.313 . S
C340 C341 1.338 . S
C340 N343 1.377 . S
C340 H360 0.930 . S
C341 N339 1.375 . S
C341 C340 1.338 . S
C341 H345 0.931 . S
C342 N339 1.313 . S
C342 N343 1.344 . S
C342 H346 0.930 . S
N343 C340 1.377 . S
N343 C342 1.344 . S
O344 Co336 2.055 . S
O344 C348 1.253 . S
H345 C341 0.931 . S
H346 C342 0.930 . S
O347 Co336 2.039 . S
O347 C337 1.265 . S
C348 O344 1.253 . S
C348 O349 1.227 . S
O349 C348 1.227 . S
N350 Co336 2.140 . S
N350 C353 1.346 . S
N350 C354 1.345 . S
C351 C352 1.387 . S
C351 C355 1.391 . S
C352 C351 1.387 . S
C352 C353 1.369 . S
C352 H361 0.929 . S
C353 N350 1.346 . S
C353 C352 1.369 . S
C353 H356 0.928 . S
C354 N350 1.345 . S
C354 C355 1.371 . S
C354 H357 0.931 . S
C355 C351 1.391 . S
C355 C354 1.371 . S
C355 H362 0.930 . S
H356 C353 0.928 . S
H357 C354 0.931 . S
H358 C334 0.930 . S
H359 C331 0.930 . S
H360 C340 0.930 . S
H361 C352 0.929 . S
H362 C355 0.930 . S
C363 C364 1.351 . S
C363 N366 1.368 . S
C363 H368 0.931 . S
C364 C363 1.351 . S
C364 N365 1.373 . S
C364 H392 0.930 . S
N365 C364 1.373 . S
N365 C367 1.340 . S
N366 C363 1.368 . S
N366 C367 1.321 . S
N366 Co369 2.135 . S
C367 N365 1.340 . S
C367 N366 1.321 . S
C367 H391 0.930 . S
H368 C363 0.931 . S
Co369 N366 2.135 . S
Co369 N372 2.121 1_556 S
Co369 O377 2.055 . S
Co369 O380 2.039 . S
Co369 N383 2.140 . S
C370 O371 1.227 . S
C370 O380 1.265 . S
O371 C370 1.227 . S
N372 Co369 2.121 1_554 S
N372 C374 1.375 . S
N372 C375 1.313 . S
C373 C374 1.338 . S
C373 N376 1.377 . S
C373 H393 0.930 . S
C374 N372 1.375 . S
C374 C373 1.338 . S
C374 H378 0.953 . S
C375 N372 1.313 . S
C375 N376 1.344 . S
C375 H379 0.930 . S
N376 C373 1.377 . S
N376 C375 1.344 . S
O377 Co369 2.055 . S
O377 C381 1.253 . S
H378 C374 0.953 . S
H379 C375 0.930 . S
O380 Co369 2.039 . S
O380 C370 1.265 . S
C381 O377 1.253 . S
C381 O382 1.227 . S
O382 C381 1.227 . S
N383 Co369 2.140 . S
N383 C386 1.346 . S
N383 C387 1.345 . S
C384 C385 1.387 . S
C384 C388 1.391 . S
C385 C384 1.387 . S
C385 C386 1.369 . S
C385 H394 0.929 . S
C386 N383 1.346 . S
C386 C385 1.369 . S
C386 H389 0.928 . S
C387 N383 1.345 . S
C387 C388 1.371 . S
C387 H390 0.931 . S
C388 C384 1.391 . S
C388 C387 1.371 . S
C388 H395 0.930 . S
H389 C386 0.928 . S
H390 C387 0.931 . S
H391 C367 0.930 . S
H392 C364 0.930 . S
H393 C373 0.930 . S
H394 C385 0.929 . S
H395 C388 0.930 . S
C396 C397 1.351 . S
C396 N399 1.368 . S
C396 H401 0.931 . S
C397 C396 1.351 . S
C397 N398 1.373 . S
C397 H425 0.930 . S
N398 C397 1.373 . S
N398 C400 1.340 . S
N399 C396 1.368 . S
N399 C400 1.321 . S
N399 Co402 2.135 . S
C400 N398 1.340 . S
C400 N399 1.321 . S
C400 H424 0.930 . S
H401 C396 0.931 . S
Co402 N399 2.135 . S
Co402 N405 2.121 . S
Co402 O410 2.055 . S
Co402 O413 2.039 . S
Co402 N416 2.140 . S
C403 O404 1.227 . S
C403 O413 1.265 . S
O404 C403 1.227 . S
N405 Co402 2.121 . S
N405 C407 1.375 . S
N405 C408 1.313 . S
C406 C407 1.338 . S
C406 N409 1.377 . S
C406 H426 0.930 . S
C407 N405 1.375 . S
C407 C406 1.338 . S
C407 H411 0.931 . S
C408 N405 1.313 . S
C408 N409 1.344 . S
C408 H412 0.930 . S
N409 C406 1.377 . S
N409 C408 1.344 . S
O410 Co402 2.055 . S
O410 C414 1.253 . S
H411 C407 0.931 . S
H412 C408 0.930 . S
O413 Co402 2.039 . S
O413 C403 1.265 . S
C414 O410 1.253 . S
C414 O415 1.227 . S
O415 C414 1.227 . S
N416 Co402 2.140 . S
N416 C419 1.346 . S
N416 C420 1.345 . S
C417 C418 1.387 . S
C417 C421 1.391 . S
C418 C417 1.387 . S
C418 C419 1.369 . S
C418 H427 0.929 . S
C419 N416 1.346 . S
C419 C418 1.369 . S
C419 H422 0.928 . S
C420 N416 1.345 . S
C420 C421 1.371 . S
C420 H423 0.931 . S
C421 C417 1.391 . S
C421 C420 1.371 . S
C421 H428 0.930 . S
H422 C419 0.928 . S
H423 C420 0.931 . S
H424 C400 0.930 . S
H425 C397 0.930 . S
H426 C406 0.930 . S
H427 C418 0.929 . S
H428 C421 0.930 . S
C429 C430 1.351 . S
C429 N432 1.368 . S
C429 H434 0.931 . S
C430 C429 1.351 . S
C430 N431 1.373 . S
C430 H458 0.930 . S
N431 C430 1.373 . S
N431 C433 1.340 . S
N432 C429 1.368 . S
N432 C433 1.321 . S
N432 Co435 2.135 . S
C433 N431 1.340 . S
C433 N432 1.321 . S
C433 H457 0.930 . S
H434 C429 0.931 . S
Co435 N432 2.135 . S
Co435 N438 2.121 . S
Co435 O443 2.055 . S
Co435 O446 2.039 . S
Co435 N449 2.140 . S
C436 O437 1.227 . S
C436 O446 1.265 . S
O437 C436 1.227 . S
N438 Co435 2.121 . S
N438 C440 1.375 . S
N438 C441 1.313 . S
C439 C440 1.338 . S
C439 N442 1.377 . S
C439 H459 0.930 . S
C440 N438 1.375 . S
C440 C439 1.338 . S
C440 H444 0.931 . S
C441 N438 1.313 . S
C441 N442 1.344 . S
C441 H445 0.930 . S
N442 C439 1.377 . S
N442 C441 1.344 . S
O443 Co435 2.055 . S
O443 C447 1.253 . S
H444 C440 0.931 . S
H445 C441 0.930 . S
O446 Co435 2.039 . S
O446 C436 1.265 . S
C447 O443 1.253 . S
C447 O448 1.227 . S
O448 C447 1.227 . S
N449 Co435 2.140 . S
N449 C452 1.346 . S
N449 C453 1.345 . S
C450 C451 1.387 . S
C450 C454 1.391 . S
C451 C450 1.387 . S
C451 C452 1.369 . S
C451 H460 0.929 . S
C452 N449 1.346 . S
C452 C451 1.369 . S
C452 H455 0.928 . S
C453 N449 1.345 . S
C453 C454 1.371 . S
C453 H456 0.931 . S
C454 C450 1.391 . S
C454 C453 1.371 . S
C454 H461 0.930 . S
H455 C452 0.928 . S
H456 C453 0.931 . S
H457 C433 0.930 . S
H458 C430 0.930 . S
H459 C439 0.930 . S
H460 C451 0.929 . S
H461 C454 0.930 . S
C462 C463 1.351 . S
C462 N465 1.368 . S
C462 H467 0.931 . S
C463 C462 1.351 . S
C463 N464 1.373 . S
C463 H491 0.930 . S
N464 C463 1.373 . S
N464 C466 1.340 . S
N465 C462 1.368 . S
N465 C466 1.321 . S
N465 Co468 2.135 . S
C466 N464 1.340 . S
C466 N465 1.321 . S
C466 H490 0.930 . S
H467 C462 0.931 . S
Co468 N465 2.135 . S
Co468 N471 2.121 . S
Co468 O476 2.055 . S
Co468 O479 2.039 . S
Co468 N482 2.140 . S
C469 O470 1.227 . S
C469 O479 1.265 . S
O470 C469 1.227 . S
N471 Co468 2.121 . S
N471 C473 1.375 . S
N471 C474 1.313 . S
C472 C473 1.338 . S
C472 N475 1.377 . S
C472 H492 0.930 . S
C473 N471 1.375 . S
C473 C472 1.338 . S
C473 H477 0.931 . S
C474 N471 1.313 . S
C474 N475 1.344 . S
C474 H478 0.930 . S
N475 C472 1.377 . S
N475 C474 1.344 . S
O476 Co468 2.055 . S
O476 C480 1.253 . S
H477 C473 0.931 . S
H478 C474 0.930 . S
O479 Co468 2.039 . S
O479 C469 1.265 . S
C480 O476 1.253 . S
C480 O481 1.227 . S
O481 C480 1.227 . S
N482 Co468 2.140 . S
N482 C485 1.346 . S
N482 C486 1.345 . S
C483 C484 1.387 . S
C483 C487 1.391 . S
C484 C483 1.387 . S
C484 C485 1.369 . S
C484 H493 0.929 . S
C485 N482 1.346 . S
C485 C484 1.369 . S
C485 H488 0.928 . S
C486 N482 1.345 . S
C486 C487 1.371 . S
C486 H489 0.931 . S
C487 C483 1.391 . S
C487 C486 1.371 . S
C487 H494 0.930 . S
H488 C485 0.928 . S
H489 C486 0.931 . S
H490 C466 0.930 . S
H491 C463 0.930 . S
H492 C472 0.930 . S
H493 C484 0.929 . S
H494 C487 0.930 . S
C495 C496 1.351 . S
C495 N498 1.368 . S
C495 H500 0.931 . S
C496 C495 1.351 . S
C496 N497 1.373 . S
C496 H524 0.930 . S
N497 C496 1.373 . S
N497 C499 1.340 . S
N498 C495 1.368 . S
N498 C499 1.321 . S
N498 Co501 2.135 . S
C499 N497 1.340 . S
C499 N498 1.321 . S
C499 H523 0.930 . S
H500 C495 0.931 . S
Co501 N498 2.135 . S
Co501 N504 2.121 1_554 S
Co501 O509 2.055 . S
Co501 O512 2.039 . S
Co501 N515 2.140 . S
C502 O503 1.227 . S
C502 O512 1.265 . S
O503 C502 1.227 . S
N504 Co501 2.121 1_556 S
N504 C506 1.375 . S
N504 C507 1.313 . S
C505 C506 1.338 . S
C505 N508 1.377 . S
C505 H525 0.930 . S
C506 N504 1.375 . S
C506 C505 1.338 . S
C506 H510 0.953 . S
C507 N504 1.313 . S
C507 N508 1.344 . S
C507 H511 0.930 . S
N508 C505 1.377 . S
N508 C507 1.344 . S
O509 Co501 2.055 . S
O509 C513 1.253 . S
H510 C506 0.953 . S
H511 C507 0.930 . S
O512 Co501 2.039 . S
O512 C502 1.265 . S
C513 O509 1.253 . S
C513 O514 1.227 . S
O514 C513 1.227 . S
N515 Co501 2.140 . S
N515 C518 1.346 . S
N515 C519 1.345 . S
C516 C517 1.387 . S
C516 C520 1.391 . S
C517 C516 1.387 . S
C517 C518 1.369 . S
C517 H526 0.929 . S
C518 N515 1.346 . S
C518 C517 1.369 . S
C518 H521 0.928 . S
C519 N515 1.345 . S
C519 C520 1.371 . S
C519 H522 0.931 . S
C520 C516 1.391 . S
C520 C519 1.371 . S
C520 H527 0.930 . S
H521 C518 0.928 . S
H522 C519 0.931 . S
H523 C499 0.930 . S
H524 C496 0.930 . S
H525 C505 0.930 . S
H526 C517 0.929 . S
H527 C520 0.930 . S
C528 C529 1.351 . S
C528 N531 1.368 . S
C528 H533 0.931 . S
C529 C528 1.351 . S
C529 N530 1.373 . S
C529 H557 0.930 . S
N530 C529 1.373 . S
N530 C532 1.340 . S
N531 C528 1.368 . S
N531 C532 1.321 . S
N531 Co534 2.135 . S
C532 N530 1.340 . S
C532 N531 1.321 . S
C532 H556 0.930 . S
H533 C528 0.931 . S
Co534 N531 2.135 . S
Co534 N537 2.121 . S
Co534 O542 2.055 . S
Co534 O545 2.039 . S
Co534 N548 2.140 . S
C535 O536 1.227 . S
C535 O545 1.265 . S
O536 C535 1.227 . S
N537 Co534 2.121 . S
N537 C539 1.375 . S
N537 C540 1.313 . S
C538 C539 1.338 . S
C538 N541 1.377 . S
C538 H558 0.930 . S
C539 N537 1.375 . S
C539 C538 1.338 . S
C539 H543 0.931 . S
C540 N537 1.313 . S
C540 N541 1.344 . S
C540 H544 0.930 . S
N541 C538 1.377 . S
N541 C540 1.344 . S
O542 Co534 2.055 . S
O542 C546 1.253 . S
H543 C539 0.931 . S
H544 C540 0.930 . S
O545 Co534 2.039 . S
O545 C535 1.265 . S
C546 O542 1.253 . S
C546 O547 1.227 . S
O547 C546 1.227 . S
N548 Co534 2.140 . S
N548 C551 1.346 . S
N548 C552 1.345 . S
C549 C550 1.387 . S
C549 C553 1.391 . S
C550 C549 1.387 . S
C550 C551 1.369 . S
C550 H559 0.929 . S
C551 N548 1.346 . S
C551 C550 1.369 . S
C551 H554 0.928 . S
C552 N548 1.345 . S
C552 C553 1.371 . S
C552 H555 0.931 . S
C553 C549 1.391 . S
C553 C552 1.371 . S
C553 H560 0.930 . S
H554 C551 0.928 . S
H555 C552 0.931 . S
H556 C532 0.930 . S
H557 C529 0.930 . S
H558 C538 0.930 . S
H559 C550 0.929 . S
H560 C553 0.930 . S
C561 C562 1.351 . S
C561 N564 1.368 . S
C561 H566 0.931 . S
C562 C561 1.351 . S
C562 N563 1.373 . S
C562 H590 0.930 . S
N563 C562 1.373 . S
N563 C565 1.340 . S
N564 C561 1.368 . S
N564 C565 1.321 . S
N564 Co567 2.135 . S
C565 N563 1.340 . S
C565 N564 1.321 . S
C565 H589 0.930 . S
H566 C561 0.931 . S
Co567 N564 2.135 . S
Co567 N570 2.121 1_554 S
Co567 O575 2.055 . S
Co567 O578 2.039 . S
Co567 N581 2.140 . S
C568 O569 1.227 . S
C568 O578 1.265 . S
O569 C568 1.227 . S
N570 Co567 2.121 1_556 S
N570 C572 1.375 . S
N570 C573 1.313 . S
C571 C572 1.338 . S
C571 N574 1.377 . S
C571 H591 0.930 . S
C572 N570 1.375 . S
C572 C571 1.338 . S
C572 H576 0.953 . S
C573 N570 1.313 . S
C573 N574 1.344 . S
C573 H577 0.930 . S
N574 C571 1.377 . S
N574 C573 1.344 . S
O575 Co567 2.055 . S
O575 C579 1.253 . S
H576 C572 0.953 . S
H577 C573 0.930 . S
O578 Co567 2.039 . S
O578 C568 1.265 . S
C579 O575 1.253 . S
C579 O580 1.227 . S
O580 C579 1.227 . S
N581 Co567 2.140 . S
N581 C584 1.346 . S
N581 C585 1.345 . S
C582 C583 1.387 . S
C582 C586 1.391 . S
C583 C582 1.387 . S
C583 C584 1.369 . S
C583 H592 0.929 . S
C584 N581 1.346 . S
C584 C583 1.369 . S
C584 H587 0.928 . S
C585 N581 1.345 . S
C585 C586 1.371 . S
C585 H588 0.931 . S
C586 C582 1.391 . S
C586 C585 1.371 . S
C586 H593 0.930 . S
H587 C584 0.928 . S
H588 C585 0.931 . S
H589 C565 0.930 . S
H590 C562 0.930 . S
H591 C571 0.930 . S
H592 C583 0.929 . S
H593 C586 0.930 . S
C594 C595 1.351 . S
C594 N597 1.368 . S
C594 H599 0.931 . S
C595 C594 1.351 . S
C595 N596 1.373 . S
C595 H623 0.930 . S
N596 C595 1.373 . S
N596 C598 1.340 . S
N597 C594 1.368 . S
N597 C598 1.321 . S
N597 Co600 2.135 . S
C598 N596 1.340 . S
C598 N597 1.321 . S
C598 H622 0.930 . S
H599 C594 0.931 . S
Co600 N597 2.135 . S
Co600 N603 2.121 . S
Co600 O608 2.055 . S
Co600 O611 2.039 . S
Co600 N614 2.140 . S
C601 O602 1.227 . S
C601 O611 1.265 . S
O602 C601 1.227 . S
N603 Co600 2.121 . S
N603 C605 1.375 . S
N603 C606 1.313 . S
C604 C605 1.338 . S
C604 N607 1.377 . S
C604 H624 0.930 . S
C605 N603 1.375 . S
C605 C604 1.338 . S
C605 H609 0.931 . S
C606 N603 1.313 . S
C606 N607 1.344 . S
C606 H610 0.930 . S
N607 C604 1.377 . S
N607 C606 1.344 . S
O608 Co600 2.055 . S
O608 C612 1.253 . S
H609 C605 0.931 . S
H610 C606 0.930 . S
O611 Co600 2.039 . S
O611 C601 1.265 . S
C612 O608 1.253 . S
C612 O613 1.227 . S
O613 C612 1.227 . S
N614 Co600 2.140 . S
N614 C617 1.346 . S
N614 C618 1.345 . S
C615 C616 1.387 . S
C615 C619 1.391 . S
C616 C615 1.387 . S
C616 C617 1.369 . S
C616 H625 0.929 . S
C617 N614 1.346 . S
C617 C616 1.369 . S
C617 H620 0.928 . S
C618 N614 1.345 . S
C618 C619 1.371 . S
C618 H621 0.931 . S
C619 C615 1.391 . S
C619 C618 1.371 . S
C619 H626 0.930 . S
H620 C617 0.928 . S
H621 C618 0.931 . S
H622 C598 0.930 . S
H623 C595 0.930 . S
H624 C604 0.930 . S
H625 C616 0.929 . S
H626 C619 0.930 . S
C627 C628 1.351 . S
C627 N630 1.368 . S
C627 H632 0.931 . S
C628 C627 1.351 . S
C628 N629 1.373 . S
C628 H656 0.930 . S
N629 C628 1.373 . S
N629 C631 1.340 . S
N630 C627 1.368 . S
N630 C631 1.321 . S
N630 Co633 2.135 . S
C631 N629 1.340 . S
C631 N630 1.321 . S
C631 H655 0.930 . S
H632 C627 0.931 . S
Co633 N630 2.135 . S
Co633 N636 2.121 . S
Co633 O641 2.055 . S
Co633 O644 2.039 . S
Co633 N647 2.140 . S
C634 O635 1.227 . S
C634 O644 1.265 . S
O635 C634 1.227 . S
N636 Co633 2.121 . S
N636 C638 1.375 . S
N636 C639 1.313 . S
C637 C638 1.338 . S
C637 N640 1.377 . S
C637 H657 0.930 . S
C638 N636 1.375 . S
C638 C637 1.338 . S
C638 H642 0.931 . S
C639 N636 1.313 . S
C639 N640 1.344 . S
C639 H643 0.930 . S
N640 C637 1.377 . S
N640 C639 1.344 . S
O641 Co633 2.055 . S
O641 C645 1.253 . S
H642 C638 0.931 . S
H643 C639 0.930 . S
O644 Co633 2.039 . S
O644 C634 1.265 . S
C645 O641 1.253 . S
C645 O646 1.227 . S
O646 C645 1.227 . S
N647 Co633 2.140 . S
N647 C650 1.346 . S
N647 C651 1.345 . S
C648 C649 1.387 . S
C648 C652 1.391 . S
C649 C648 1.387 . S
C649 C650 1.369 . S
C649 H658 0.929 . S
C650 N647 1.346 . S
C650 C649 1.369 . S
C650 H653 0.928 . S
C651 N647 1.345 . S
C651 C652 1.371 . S
C651 H654 0.931 . S
C652 C648 1.391 . S
C652 C651 1.371 . S
C652 H659 0.930 . S
H653 C650 0.928 . S
H654 C651 0.931 . S
H655 C631 0.930 . S
H656 C628 0.930 . S
H657 C637 0.930 . S
H658 C649 0.929 . S
H659 C652 0.930 . S
C660 C661 1.351 . S
C660 N663 1.368 . S
C660 H665 0.931 . S
C661 C660 1.351 . S
C661 N662 1.373 . S
C661 H689 0.930 . S
N662 C661 1.373 . S
N662 C664 1.340 . S
N663 C660 1.368 . S
N663 C664 1.321 . S
N663 Co666 2.135 . S
C664 N662 1.340 . S
C664 N663 1.321 . S
C664 H688 0.930 . S
H665 C660 0.931 . S
Co666 N663 2.135 . S
Co666 N669 2.121 . S
Co666 O674 2.055 . S
Co666 O677 2.039 . S
Co666 N680 2.140 . S
C667 O668 1.227 . S
C667 O677 1.265 . S
O668 C667 1.227 . S
N669 Co666 2.121 . S
N669 C671 1.375 . S
N669 C672 1.313 . S
C670 C671 1.338 . S
C670 N673 1.377 . S
C670 H690 0.930 . S
C671 N669 1.375 . S
C671 C670 1.338 . S
C671 H675 0.931 . S
C672 N669 1.313 . S
C672 N673 1.344 . S
C672 H676 0.930 . S
N673 C670 1.377 . S
N673 C672 1.344 . S
O674 Co666 2.055 . S
O674 C678 1.253 . S
H675 C671 0.931 . S
H676 C672 0.930 . S
O677 Co666 2.039 . S
O677 C667 1.265 . S
C678 O674 1.253 . S
C678 O679 1.227 . S
O679 C678 1.227 . S
N680 Co666 2.140 . S
N680 C683 1.346 . S
N680 C684 1.345 . S
C681 C682 1.387 . S
C681 C685 1.391 . S
C682 C681 1.387 . S
C682 C683 1.369 . S
C682 H691 0.929 . S
C683 N680 1.346 . S
C683 C682 1.369 . S
C683 H686 0.928 . S
C684 N680 1.345 . S
C684 C685 1.371 . S
C684 H687 0.931 . S
C685 C681 1.391 . S
C685 C684 1.371 . S
C685 H692 0.930 . S
H686 C683 0.928 . S
H687 C684 0.931 . S
H688 C664 0.930 . S
H689 C661 0.930 . S
H690 C670 0.930 . S
H691 C682 0.929 . S
H692 C685 0.930 . S
C693 C694 1.351 . S
C693 N696 1.368 . S
C693 H698 0.931 . S
C694 C693 1.351 . S
C694 N695 1.373 . S
C694 H722 0.930 . S
N695 C694 1.373 . S
N695 C697 1.340 . S
N696 C693 1.368 . S
N696 C697 1.321 . S
N696 Co699 2.135 . S
C697 N695 1.340 . S
C697 N696 1.321 . S
C697 H721 0.930 . S
H698 C693 0.931 . S
Co699 N696 2.135 . S
Co699 N702 2.121 1_556 S
Co699 O707 2.055 . S
Co699 O710 2.039 . S
Co699 N713 2.140 . S
C700 O701 1.227 . S
C700 O710 1.265 . S
O701 C700 1.227 . S
N702 Co699 2.121 1_554 S
N702 C704 1.375 . S
N702 C705 1.313 . S
C703 C704 1.338 . S
C703 N706 1.377 . S
C703 H723 0.930 . S
C704 N702 1.375 . S
C704 C703 1.338 . S
C704 H708 0.953 . S
C705 N702 1.313 . S
C705 N706 1.344 . S
C705 H709 0.930 . S
N706 C703 1.377 . S
N706 C705 1.344 . S
O707 Co699 2.055 . S
O707 C711 1.253 . S
H708 C704 0.953 . S
H709 C705 0.930 . S
O710 Co699 2.039 . S
O710 C700 1.265 . S
C711 O707 1.253 . S
C711 O712 1.227 . S
O712 C711 1.227 . S
N713 Co699 2.140 . S
N713 C716 1.346 . S
N713 C717 1.345 . S
C714 C715 1.387 . S
C714 C718 1.391 . S
C715 C714 1.387 . S
C715 C716 1.369 . S
C715 H724 0.929 . S
C716 N713 1.346 . S
C716 C715 1.369 . S
C716 H719 0.928 . S
C717 N713 1.345 . S
C717 C718 1.371 . S
C717 H720 0.931 . S
C718 C714 1.391 . S
C718 C717 1.371 . S
C718 H725 0.930 . S
H719 C716 0.928 . S
H720 C717 0.931 . S
H721 C697 0.930 . S
H722 C694 0.930 . S
H723 C703 0.930 . S
H724 C715 0.929 . S
H725 C718 0.930 . S
C726 C727 1.351 . S
C726 N729 1.368 . S
C726 H731 0.931 . S
C727 C726 1.351 . S
C727 N728 1.373 . S
C727 H755 0.930 . S
N728 C727 1.373 . S
N728 C730 1.340 . S
N729 C726 1.368 . S
N729 C730 1.321 . S
N729 Co732 2.135 . S
C730 N728 1.340 . S
C730 N729 1.321 . S
C730 H754 0.930 . S
H731 C726 0.931 . S
Co732 N729 2.135 . S
Co732 N735 2.121 . S
Co732 O740 2.055 . S
Co732 O743 2.039 . S
Co732 N746 2.140 . S
C733 O734 1.227 . S
C733 O743 1.265 . S
O734 C733 1.227 . S
N735 Co732 2.121 . S
N735 C737 1.375 . S
N735 C738 1.313 . S
C736 C737 1.338 . S
C736 N739 1.377 . S
C736 H756 0.930 . S
C737 N735 1.375 . S
C737 C736 1.338 . S
C737 H741 0.931 . S
C738 N735 1.313 . S
C738 N739 1.344 . S
C738 H742 0.930 . S
N739 C736 1.377 . S
N739 C738 1.344 . S
O740 Co732 2.055 . S
O740 C744 1.253 . S
H741 C737 0.931 . S
H742 C738 0.930 . S
O743 Co732 2.039 . S
O743 C733 1.265 . S
C744 O740 1.253 . S
C744 O745 1.227 . S
O745 C744 1.227 . S
N746 Co732 2.140 . S
N746 C749 1.346 . S
N746 C750 1.345 . S
C747 C748 1.387 . S
C747 C751 1.391 . S
C748 C747 1.387 . S
C748 C749 1.369 . S
C748 H757 0.929 . S
C749 N746 1.346 . S
C749 C748 1.369 . S
C749 H752 0.928 . S
C750 N746 1.345 . S
C750 C751 1.371 . S
C750 H753 0.931 . S
C751 C747 1.391 . S
C751 C750 1.371 . S
C751 H758 0.930 . S
H752 C749 0.928 . S
H753 C750 0.931 . S
H754 C730 0.930 . S
H755 C727 0.930 . S
H756 C736 0.930 . S
H757 C748 0.929 . S
H758 C751 0.930 . S
C759 C760 1.351 . S
C759 N762 1.368 . S
C759 H764 0.931 . S
C760 C759 1.351 . S
C760 N761 1.373 . S
C760 H788 0.930 . S
N761 C760 1.373 . S
N761 C763 1.340 . S
N762 C759 1.368 . S
N762 C763 1.321 . S
N762 Co765 2.135 . S
C763 N761 1.340 . S
C763 N762 1.321 . S
C763 H787 0.930 . S
H764 C759 0.931 . S
Co765 N762 2.135 . S
Co765 N768 2.121 . S
Co765 O773 2.055 . S
Co765 O776 2.039 . S
Co765 N779 2.140 . S
C766 O767 1.227 . S
C766 O776 1.265 . S
O767 C766 1.227 . S
N768 Co765 2.121 . S
N768 C770 1.375 . S
N768 C771 1.313 . S
C769 C770 1.338 . S
C769 N772 1.377 . S
C769 H789 0.930 . S
C770 N768 1.375 . S
C770 C769 1.338 . S
C770 H774 0.931 . S
C771 N768 1.313 . S
C771 N772 1.344 . S
C771 H775 0.930 . S
N772 C769 1.377 . S
N772 C771 1.344 . S
O773 Co765 2.055 . S
O773 C777 1.253 . S
H774 C770 0.931 . S
H775 C771 0.930 . S
O776 Co765 2.039 . S
O776 C766 1.265 . S
C777 O773 1.253 . S
C777 O778 1.227 . S
O778 C777 1.227 . S
N779 Co765 2.140 . S
N779 C782 1.346 . S
N779 C783 1.345 . S
C780 C781 1.387 . S
C780 C784 1.391 . S
C781 C780 1.387 . S
C781 C782 1.369 . S
C781 H790 0.929 . S
C782 N779 1.346 . S
C782 C781 1.369 . S
C782 H785 0.928 . S
C783 N779 1.345 . S
C783 C784 1.371 . S
C783 H786 0.931 . S
C784 C780 1.391 . S
C784 C783 1.371 . S
C784 H791 0.930 . S
H785 C782 0.928 . S
H786 C783 0.931 . S
H787 C763 0.930 . S
H788 C760 0.930 . S
H789 C769 0.930 . S
H790 C781 0.929 . S
H791 C784 0.930 . S
C792 C793 1.351 . S
C792 N795 1.368 . S
C792 H797 0.931 . S
C793 C792 1.351 . S
C793 N794 1.373 . S
C793 H821 0.930 . S
N794 C793 1.373 . S
N794 C796 1.340 . S
N795 C792 1.368 . S
N795 C796 1.321 . S
N795 Co798 2.135 . S
C796 N794 1.340 . S
C796 N795 1.321 . S
C796 H820 0.930 . S
H797 C792 0.931 . S
Co798 N795 2.135 . S
Co798 N801 2.121 . S
Co798 O806 2.055 . S
Co798 O809 2.039 . S
Co798 N812 2.140 . S
C799 O800 1.227 . S
C799 O809 1.265 . S
O800 C799 1.227 . S
N801 Co798 2.121 . S
N801 C803 1.375 . S
N801 C804 1.313 . S
C802 C803 1.338 . S
C802 N805 1.377 . S
C802 H822 0.930 . S
C803 N801 1.375 . S
C803 C802 1.338 . S
C803 H807 0.931 . S
C804 N801 1.313 . S
C804 N805 1.344 . S
C804 H808 0.930 . S
N805 C802 1.377 . S
N805 C804 1.344 . S
O806 Co798 2.055 . S
O806 C810 1.253 . S
H807 C803 0.931 . S
H808 C804 0.930 . S
O809 Co798 2.039 . S
O809 C799 1.265 . S
C810 O806 1.253 . S
C810 O811 1.227 . S
O811 C810 1.227 . S
N812 Co798 2.140 . S
N812 C815 1.346 . S
N812 C816 1.345 . S
C813 C814 1.387 . S
C813 C817 1.391 . S
C814 C813 1.387 . S
C814 C815 1.369 . S
C814 H823 0.929 . S
C815 N812 1.346 . S
C815 C814 1.369 . S
C815 H818 0.928 . S
C816 N812 1.345 . S
C816 C817 1.371 . S
C816 H819 0.931 . S
C817 C813 1.391 . S
C817 C816 1.371 . S
C817 H824 0.930 . S
H818 C815 0.928 . S
H819 C816 0.931 . S
H820 C796 0.930 . S
H821 C793 0.930 . S
H822 C802 0.930 . S
H823 C814 0.929 . S
H824 C817 0.930 . S
C825 C826 1.351 . S
C825 N828 1.368 . S
C825 H830 0.931 . S
C826 C825 1.351 . S
C826 N827 1.373 . S
C826 H854 0.930 . S
N827 C826 1.373 . S
N827 C829 1.340 . S
N828 C825 1.368 . S
N828 C829 1.321 . S
N828 Co831 2.135 . S
C829 N827 1.340 . S
C829 N828 1.321 . S
C829 H853 0.930 . S
H830 C825 0.931 . S
Co831 N828 2.135 . S
Co831 N834 2.121 1_556 S
Co831 O839 2.055 . S
Co831 O842 2.039 . S
Co831 N845 2.140 . S
C832 O833 1.227 . S
C832 O842 1.265 . S
O833 C832 1.227 . S
N834 Co831 2.121 1_554 S
N834 C836 1.375 . S
N834 C837 1.313 . S
C835 C836 1.338 . S
C835 N838 1.377 . S
C835 H855 0.930 . S
C836 N834 1.375 . S
C836 C835 1.338 . S
C836 H840 0.953 . S
C837 N834 1.313 . S
C837 N838 1.344 . S
C837 H841 0.930 . S
N838 C835 1.377 . S
N838 C837 1.344 . S
O839 Co831 2.055 . S
O839 C843 1.253 . S
H840 C836 0.953 . S
H841 C837 0.930 . S
O842 Co831 2.039 . S
O842 C832 1.265 . S
C843 O839 1.253 . S
C843 O844 1.227 . S
O844 C843 1.227 . S
N845 Co831 2.140 . S
N845 C848 1.346 . S
N845 C849 1.345 . S
C846 C847 1.387 . S
C846 C850 1.391 . S
C847 C846 1.387 . S
C847 C848 1.369 . S
C847 H856 0.929 . S
C848 N845 1.346 . S
C848 C847 1.369 . S
C848 H851 0.928 . S
C849 N845 1.345 . S
C849 C850 1.371 . S
C849 H852 0.931 . S
C850 C846 1.391 . S
C850 C849 1.371 . S
C850 H857 0.930 . S
H851 C848 0.928 . S
H852 C849 0.931 . S
H853 C829 0.930 . S
H854 C826 0.930 . S
H855 C835 0.930 . S
H856 C847 0.929 . S
H857 C850 0.930 . S
C858 C859 1.351 . S
C858 N861 1.368 . S
C858 H863 0.931 . S
C859 C858 1.351 . S
C859 N860 1.373 . S
C859 H887 0.930 . S
N860 C859 1.373 . S
N860 C862 1.340 . S
N861 C858 1.368 . S
N861 C862 1.321 . S
N861 Co864 2.135 . S
C862 N860 1.340 . S
C862 N861 1.321 . S
C862 H886 0.930 . S
H863 C858 0.931 . S
Co864 N861 2.135 . S
Co864 N867 2.121 . S
Co864 O872 2.055 . S
Co864 O875 2.039 . S
Co864 N878 2.140 . S
C865 O866 1.227 . S
C865 O875 1.265 . S
O866 C865 1.227 . S
N867 Co864 2.121 . S
N867 C869 1.375 . S
N867 C870 1.313 . S
C868 C869 1.338 . S
C868 N871 1.377 . S
C868 H888 0.930 . S
C869 N867 1.375 . S
C869 C868 1.338 . S
C869 H873 0.931 . S
C870 N867 1.313 . S
C870 N871 1.344 . S
C870 H874 0.930 . S
N871 C868 1.377 . S
N871 C870 1.344 . S
O872 Co864 2.055 . S
O872 C876 1.253 . S
H873 C869 0.931 . S
H874 C870 0.930 . S
O875 Co864 2.039 . S
O875 C865 1.265 . S
C876 O872 1.253 . S
C876 O877 1.227 . S
O877 C876 1.227 . S
N878 Co864 2.140 . S
N878 C881 1.346 . S
N878 C882 1.345 . S
C879 C880 1.387 . S
C879 C883 1.391 . S
C880 C879 1.387 . S
C880 C881 1.369 . S
C880 H889 0.929 . S
C881 N878 1.346 . S
C881 C880 1.369 . S
C881 H884 0.928 . S
C882 N878 1.345 . S
C882 C883 1.371 . S
C882 H885 0.931 . S
C883 C879 1.391 . S
C883 C882 1.371 . S
C883 H890 0.930 . S
H884 C881 0.928 . S
H885 C882 0.931 . S
H886 C862 0.930 . S
H887 C859 0.930 . S
H888 C868 0.930 . S
H889 C880 0.929 . S
H890 C883 0.930 . S
C891 C892 1.351 . S
C891 N894 1.368 . S
C891 H896 0.931 . S
C892 C891 1.351 . S
C892 N893 1.373 . S
C892 H920 0.930 . S
N893 C892 1.373 . S
N893 C895 1.340 . S
N894 C891 1.368 . S
N894 C895 1.321 . S
N894 Co897 2.135 . S
C895 N893 1.340 . S
C895 N894 1.321 . S
C895 H919 0.930 . S
H896 C891 0.931 . S
Co897 N894 2.135 . S
Co897 N900 2.121 . S
Co897 O905 2.055 . S
Co897 O908 2.039 . S
Co897 N911 2.140 . S
C898 O899 1.227 . S
C898 O908 1.265 . S
O899 C898 1.227 . S
N900 Co897 2.121 . S
N900 C902 1.375 . S
N900 C903 1.313 . S
C901 C902 1.338 . S
C901 N904 1.377 . S
C901 H921 0.930 . S
C902 N900 1.375 . S
C902 C901 1.338 . S
C902 H906 0.931 . S
C903 N900 1.313 . S
C903 N904 1.344 . S
C903 H907 0.930 . S
N904 C901 1.377 . S
N904 C903 1.344 . S
O905 Co897 2.055 . S
O905 C909 1.253 . S
H906 C902 0.931 . S
H907 C903 0.930 . S
O908 Co897 2.039 . S
O908 C898 1.265 . S
C909 O905 1.253 . S
C909 O910 1.227 . S
O910 C909 1.227 . S
N911 Co897 2.140 . S
N911 C914 1.346 . S
N911 C915 1.345 . S
C912 C913 1.387 . S
C912 C916 1.391 . S
C913 C912 1.387 . S
C913 C914 1.369 . S
C913 H922 0.929 . S
C914 N911 1.346 . S
C914 C913 1.369 . S
C914 H917 0.928 . S
C915 N911 1.345 . S
C915 C916 1.371 . S
C915 H918 0.931 . S
C916 C912 1.391 . S
C916 C915 1.371 . S
C916 H923 0.930 . S
H917 C914 0.928 . S
H918 C915 0.931 . S
H919 C895 0.930 . S
H920 C892 0.930 . S
H921 C901 0.930 . S
H922 C913 0.929 . S
H923 C916 0.930 . S
C924 C925 1.351 . S
C924 N927 1.368 . S
C924 H929 0.931 . S
C925 C924 1.351 . S
C925 N926 1.373 . S
C925 H953 0.930 . S
N926 C925 1.373 . S
N926 C928 1.340 . S
N927 C924 1.368 . S
N927 C928 1.321 . S
N927 Co930 2.135 . S
C928 N926 1.340 . S
C928 N927 1.321 . S
C928 H952 0.930 . S
H929 C924 0.931 . S
Co930 N927 2.135 . S
Co930 N933 2.121 . S
Co930 O938 2.055 . S
Co930 O941 2.039 . S
Co930 N944 2.140 . S
C931 O932 1.227 . S
C931 O941 1.265 . S
O932 C931 1.227 . S
N933 Co930 2.121 . S
N933 C935 1.375 . S
N933 C936 1.313 . S
C934 C935 1.338 . S
C934 N937 1.377 . S
C934 H954 0.930 . S
C935 N933 1.375 . S
C935 C934 1.338 . S
C935 H939 0.931 . S
C936 N933 1.313 . S
C936 N937 1.344 . S
C936 H940 0.930 . S
N937 C934 1.377 . S
N937 C936 1.344 . S
O938 Co930 2.055 . S
O938 C942 1.253 . S
H939 C935 0.931 . S
H940 C936 0.930 . S
O941 Co930 2.039 . S
O941 C931 1.265 . S
C942 O938 1.253 . S
C942 O943 1.227 . S
O943 C942 1.227 . S
N944 Co930 2.140 . S
N944 C947 1.346 . S
N944 C948 1.345 . S
C945 C946 1.387 . S
C945 C949 1.391 . S
C946 C945 1.387 . S
C946 C947 1.369 . S
C946 H955 0.929 . S
C947 N944 1.346 . S
C947 C946 1.369 . S
C947 H950 0.928 . S
C948 N944 1.345 . S
C948 C949 1.371 . S
C948 H951 0.931 . S
C949 C945 1.391 . S
C949 C948 1.371 . S
C949 H956 0.930 . S
H950 C947 0.928 . S
H951 C948 0.931 . S
H952 C928 0.930 . S
H953 C925 0.930 . S
H954 C934 0.930 . S
H955 C946 0.929 . S
H956 C949 0.930 . S
C957 C958 1.351 . S
C957 N960 1.368 . S
C957 H962 0.931 . S
C958 C957 1.351 . S
C958 N959 1.373 . S
C958 H986 0.930 . S
N959 C958 1.373 . S
N959 C961 1.340 . S
N960 C957 1.368 . S
N960 C961 1.321 . S
N960 Co963 2.135 . S
C961 N959 1.340 . S
C961 N960 1.321 . S
C961 H985 0.930 . S
H962 C957 0.931 . S
Co963 N960 2.135 . S
Co963 N966 2.121 1_554 S
Co963 O971 2.055 . S
Co963 O974 2.039 . S
Co963 N977 2.140 . S
C964 O965 1.227 . S
C964 O974 1.265 . S
O965 C964 1.227 . S
N966 Co963 2.121 1_556 S
N966 C968 1.375 . S
N966 C969 1.313 . S
C967 C968 1.338 . S
C967 N970 1.377 . S
C967 H987 0.930 . S
C968 N966 1.375 . S
C968 C967 1.338 . S
C968 H972 0.953 . S
C969 N966 1.313 . S
C969 N970 1.344 . S
C969 H973 0.930 . S
N970 C967 1.377 . S
N970 C969 1.344 . S
O971 Co963 2.055 . S
O971 C975 1.253 . S
H972 C968 0.953 . S
H973 C969 0.930 . S
O974 Co963 2.039 . S
O974 C964 1.265 . S
C975 O971 1.253 . S
C975 O976 1.227 . S
O976 C975 1.227 . S
N977 Co963 2.140 . S
N977 C980 1.346 . S
N977 C981 1.345 . S
C978 C979 1.387 . S
C978 C982 1.391 . S
C979 C978 1.387 . S
C979 C980 1.369 . S
C979 H988 0.929 . S
C980 N977 1.346 . S
C980 C979 1.369 . S
C980 H983 0.928 . S
C981 N977 1.345 . S
C981 C982 1.371 . S
C981 H984 0.931 . S
C982 C978 1.391 . S
C982 C981 1.371 . S
C982 H989 0.930 . S
H983 C980 0.928 . S
H984 C981 0.931 . S
H985 C961 0.930 . S
H986 C958 0.930 . S
H987 C967 0.930 . S
H988 C979 0.929 . S
H989 C982 0.930 . S
C990 C991 1.351 . S
C990 N993 1.368 . S
C990 H995 0.931 . S
C991 C990 1.351 . S
C991 N992 1.373 . S
C991 H1019 0.930 . S
N992 C991 1.373 . S
N992 C994 1.340 . S
N993 C990 1.368 . S
N993 C994 1.321 . S
N993 Co996 2.135 . S
C994 N992 1.340 . S
C994 N993 1.321 . S
C994 H1018 0.930 . S
H995 C990 0.931 . S
Co996 N993 2.135 . S
Co996 N999 2.121 . S
Co996 O1004 2.055 . S
Co996 O1007 2.039 . S
Co996 N1010 2.140 . S
C997 O998 1.227 . S
C997 O1007 1.265 . S
O998 C997 1.227 . S
N999 Co996 2.121 . S
N999 C1001 1.375 . S
N999 C1002 1.313 . S
C1000 C1001 1.338 . S
C1000 N1003 1.377 . S
C1000 H1020 0.930 . S
C1001 N999 1.375 . S
C1001 C1000 1.338 . S
C1001 H1005 0.931 . S
C1002 N999 1.313 . S
C1002 N1003 1.344 . S
C1002 H1006 0.930 . S
N1003 C1000 1.377 . S
N1003 C1002 1.344 . S
O1004 Co996 2.055 . S
O1004 C1008 1.253 . S
H1005 C1001 0.931 . S
H1006 C1002 0.930 . S
O1007 Co996 2.039 . S
O1007 C997 1.265 . S
C1008 O1004 1.253 . S
C1008 O1009 1.227 . S
O1009 C1008 1.227 . S
N1010 Co996 2.140 . S
N1010 C1013 1.346 . S
N1010 C1014 1.345 . S
C1011 C1012 1.387 . S
C1011 C1015 1.391 . S
C1012 C1011 1.387 . S
C1012 C1013 1.369 . S
C1012 H1021 0.929 . S
C1013 N1010 1.346 . S
C1013 C1012 1.369 . S
C1013 H1016 0.928 . S
C1014 N1010 1.345 . S
C1014 C1015 1.371 . S
C1014 H1017 0.931 . S
C1015 C1011 1.391 . S
C1015 C1014 1.371 . S
C1015 H1022 0.930 . S
H1016 C1013 0.928 . S
H1017 C1014 0.931 . S
H1018 C994 0.930 . S
H1019 C991 0.930 . S
H1020 C1000 0.930 . S
H1021 C1012 0.929 . S
H1022 C1015 0.930 . S
C1023 C1024 1.351 . S
C1023 N1026 1.368 . S
C1023 H1028 0.931 . S
C1024 C1023 1.351 . S
C1024 N1025 1.373 . S
C1024 H1052 0.930 . S
N1025 C1024 1.373 . S
N1025 C1027 1.340 . S
N1026 C1023 1.368 . S
N1026 C1027 1.321 . S
N1026 Co1029 2.135 . S
C1027 N1025 1.340 . S
C1027 N1026 1.321 . S
C1027 H1051 0.930 . S
H1028 C1023 0.931 . S
Co1029 N1026 2.135 . S
Co1029 N1032 2.121 . S
Co1029 O1037 2.055 . S
Co1029 O1040 2.039 . S
Co1029 N1043 2.140 . S
C1030 O1031 1.227 . S
C1030 O1040 1.265 . S
O1031 C1030 1.227 . S
N1032 Co1029 2.121 . S
N1032 C1034 1.375 . S
N1032 C1035 1.313 . S
C1033 C1034 1.338 . S
C1033 N1036 1.377 . S
C1033 H1053 0.930 . S
C1034 N1032 1.375 . S
C1034 C1033 1.338 . S
C1034 H1038 0.931 . S
C1035 N1032 1.313 . S
C1035 N1036 1.344 . S
C1035 H1039 0.930 . S
N1036 C1033 1.377 . S
N1036 C1035 1.344 . S
O1037 Co1029 2.055 . S
O1037 C1041 1.253 . S
H1038 C1034 0.931 . S
H1039 C1035 0.930 . S
O1040 Co1029 2.039 . S
O1040 C1030 1.265 . S
C1041 O1037 1.253 . S
C1041 O1042 1.227 . S
O1042 C1041 1.227 . S
N1043 Co1029 2.140 . S
N1043 C1046 1.346 . S
N1043 C1047 1.345 . S
C1044 C1045 1.387 . S
C1044 C1048 1.391 . S
C1045 C1044 1.387 . S
C1045 C1046 1.369 . S
C1045 H1054 0.929 . S
C1046 N1043 1.346 . S
C1046 C1045 1.369 . S
C1046 H1049 0.928 . S
C1047 N1043 1.345 . S
C1047 C1048 1.371 . S
C1047 H1050 0.931 . S
C1048 C1044 1.391 . S
C1048 C1047 1.371 . S
C1048 H1055 0.930 . S
H1049 C1046 0.928 . S
H1050 C1047 0.931 . S
H1051 C1027 0.930 . S
H1052 C1024 0.930 . S
H1053 C1033 0.930 . S
H1054 C1045 0.929 . S
H1055 C1048 0.930 . S
C1056 C1057 1.349 . S
C1056 C1058 1.327 . S
C1056 H1081 0.950 . S
C1057 C1056 1.349 . S
C1057 C1073 1.349 . S
C1058 C1056 1.327 . S
C1058 C1077 1.429 . S
C1058 H1082 0.950 . S
C1059 C1076 1.574 . S
C1059 C1078 1.368 . S
C1059 H1083 0.949 . S
H1060 C1064 0.949 . S
C1061 C1062 1.349 . S
C1061 C1063 1.327 . S
C1061 H1084 0.950 . S
C1062 C1061 1.349 . S
C1062 C1074 1.349 . S
C1063 C1061 1.327 . S
C1063 C1079 1.429 . S
C1063 H1085 0.950 . S
C1064 H1060 0.949 . S
C1064 C1072 1.574 . S
C1064 C1080 1.368 . S
H1065 C1073 0.950 . S
H1066 C1071 0.950 . S
H1067 C1072 0.949 . S
H1068 C1074 0.950 . S
H1069 C1075 0.950 . S
H1070 C1076 0.949 . S
C1071 H1066 0.950 . S
C1071 C1073 1.327 . S
C1071 C1077 1.429 . S
C1072 C1064 1.574 . S
C1072 H1067 0.949 . S
C1072 C1078 1.368 . S
C1073 C1057 1.349 . S
C1073 H1065 0.950 . S
C1073 C1071 1.327 . S
C1074 C1062 1.349 . S
C1074 H1068 0.950 . S
C1074 C1075 1.327 . S
C1075 H1069 0.950 . S
C1075 C1074 1.327 . S
C1075 C1079 1.429 . S
C1076 C1059 1.574 . S
C1076 H1070 0.949 . S
C1076 C1080 1.368 . S
C1077 C1058 1.429 . S
C1077 C1071 1.429 . S
C1077 C1078 1.523 . S
C1078 C1059 1.368 . S
C1078 C1072 1.368 . S
C1078 C1077 1.523 . S
C1079 C1063 1.429 . S
C1079 C1075 1.429 . S
C1079 C1080 1.523 . S
C1080 C1064 1.368 . S
C1080 C1076 1.368 . S
C1080 C1079 1.523 . S
H1081 C1056 0.950 . S
H1082 C1058 0.950 . S
H1083 C1059 0.949 . S
H1084 C1061 0.950 . S
H1085 C1063 0.950 . S
C1086 C1087 1.349 . S
C1086 C1088 1.327 . S
C1086 H1111 0.950 . S
C1087 C1086 1.349 . S
C1087 C1103 1.349 . S
C1088 C1086 1.327 . S
C1088 C1107 1.429 . S
C1088 H1112 0.950 . S
C1089 C1106 1.574 . S
C1089 C1108 1.368 . S
C1089 H1113 0.949 . S
H1090 C1094 0.949 . S
C1091 C1092 1.349 . S
C1091 C1093 1.327 . S
C1091 H1114 0.950 . S
C1092 C1091 1.349 . S
C1092 C1104 1.349 . S
C1093 C1091 1.327 . S
C1093 C1109 1.429 . S
C1093 H1115 0.950 . S
C1094 H1090 0.949 . S
C1094 C1102 1.574 . S
C1094 C1110 1.368 . S
H1095 C1103 0.950 . S
H1096 C1101 0.950 . S
H1097 C1102 0.949 . S
H1098 C1104 0.950 . S
H1099 C1105 0.950 . S
H1100 C1106 0.949 . S
C1101 H1096 0.950 . S
C1101 C1103 1.327 . S
C1101 C1107 1.429 . S
C1102 C1094 1.574 . S
C1102 H1097 0.949 . S
C1102 C1108 1.368 . S
C1103 C1087 1.349 . S
C1103 H1095 0.950 . S
C1103 C1101 1.327 . S
C1104 C1092 1.349 . S
C1104 H1098 0.950 . S
C1104 C1105 1.327 . S
C1105 H1099 0.950 . S
C1105 C1104 1.327 . S
C1105 C1109 1.429 . S
C1106 C1089 1.574 . S
C1106 H1100 0.949 . S
C1106 C1110 1.368 . S
C1107 C1088 1.429 . S
C1107 C1101 1.429 . S
C1107 C1108 1.523 . S
C1108 C1089 1.368 . S
C1108 C1102 1.368 . S
C1108 C1107 1.523 . S
C1109 C1093 1.429 . S
C1109 C1105 1.429 . S
C1109 C1110 1.523 . S
C1110 C1094 1.368 . S
C1110 C1106 1.368 . S
C1110 C1109 1.523 . S
H1111 C1086 0.950 . S
H1112 C1088 0.950 . S
H1113 C1089 0.949 . S
H1114 C1091 0.950 . S
H1115 C1093 0.950 . S
C1116 C1117 1.349 . S
C1116 C1118 1.327 . S
C1116 H1141 0.950 . S
C1117 C1116 1.349 . S
C1117 C1133 1.349 . S
C1118 C1116 1.327 . S
C1118 C1137 1.429 . S
C1118 H1142 0.950 . S
C1119 C1136 1.574 . S
C1119 C1138 1.368 . S
C1119 H1143 0.949 . S
H1120 C1124 0.949 . S
C1121 C1122 1.349 . S
C1121 C1123 1.327 . S
C1121 H1144 0.950 . S
C1122 C1121 1.349 . S
C1122 C1134 1.349 . S
C1123 C1121 1.327 . S
C1123 C1139 1.429 . S
C1123 H1145 0.950 . S
C1124 H1120 0.949 . S
C1124 C1132 1.574 . S
C1124 C1140 1.368 . S
H1125 C1133 0.950 . S
H1126 C1131 0.950 . S
H1127 C1132 0.949 . S
H1128 C1134 0.950 . S
H1129 C1135 0.950 . S
H1130 C1136 0.949 . S
C1131 H1126 0.950 . S
C1131 C1133 1.327 . S
C1131 C1137 1.429 . S
C1132 C1124 1.574 . S
C1132 H1127 0.949 . S
C1132 C1138 1.368 . S
C1133 C1117 1.349 . S
C1133 H1125 0.950 . S
C1133 C1131 1.327 . S
C1134 C1122 1.349 . S
C1134 H1128 0.950 . S
C1134 C1135 1.327 . S
C1135 H1129 0.950 . S
C1135 C1134 1.327 . S
C1135 C1139 1.429 . S
C1136 C1119 1.574 . S
C1136 H1130 0.949 . S
C1136 C1140 1.368 . S
C1137 C1118 1.429 . S
C1137 C1131 1.429 . S
C1137 C1138 1.523 . S
C1138 C1119 1.368 . S
C1138 C1132 1.368 . S
C1138 C1137 1.523 . S
C1139 C1123 1.429 . S
C1139 C1135 1.429 . S
C1139 C1140 1.523 . S
C1140 C1124 1.368 . S
C1140 C1136 1.368 . S
C1140 C1139 1.523 . S
H1141 C1116 0.950 . S
H1142 C1118 0.950 . S
H1143 C1119 0.949 . S
H1144 C1121 0.950 . S
H1145 C1123 0.950 . S
C1146 C1147 1.349 . S
C1146 C1148 1.327 . S
C1146 H1171 0.950 . S
C1147 C1146 1.349 . S
C1147 C1163 1.349 . S
C1148 C1146 1.327 . S
C1148 C1167 1.429 . S
C1148 H1172 0.950 . S
C1149 C1166 1.574 . S
C1149 C1168 1.368 . S
C1149 H1173 0.949 . S
H1150 C1154 0.949 . S
C1151 C1152 1.349 . S
C1151 C1153 1.327 . S
C1151 H1174 0.950 . S
C1152 C1151 1.349 . S
C1152 C1164 1.349 . S
C1153 C1151 1.327 . S
C1153 C1169 1.429 . S
C1153 H1175 0.950 . S
C1154 H1150 0.949 . S
C1154 C1162 1.574 . S
C1154 C1170 1.368 . S
H1155 C1163 0.950 . S
H1156 C1161 0.950 . S
H1157 C1162 0.949 . S
H1158 C1164 0.950 . S
H1159 C1165 0.950 . S
H1160 C1166 0.949 . S
C1161 H1156 0.950 . S
C1161 C1163 1.327 . S
C1161 C1167 1.429 . S
C1162 C1154 1.574 . S
C1162 H1157 0.949 . S
C1162 C1168 1.368 . S
C1163 C1147 1.349 . S
C1163 H1155 0.950 . S
C1163 C1161 1.327 . S
C1164 C1152 1.349 . S
C1164 H1158 0.950 . S
C1164 C1165 1.327 . S
C1165 H1159 0.950 . S
C1165 C1164 1.327 . S
C1165 C1169 1.429 . S
C1166 C1149 1.574 . S
C1166 H1160 0.949 . S
C1166 C1170 1.368 . S
C1167 C1148 1.429 . S
C1167 C1161 1.429 . S
C1167 C1168 1.523 . S
C1168 C1149 1.368 . S
C1168 C1162 1.368 . S
C1168 C1167 1.523 . S
C1169 C1153 1.429 . S
C1169 C1165 1.429 . S
C1169 C1170 1.523 . S
C1170 C1154 1.368 . S
C1170 C1166 1.368 . S
C1170 C1169 1.523 . S
H1171 C1146 0.950 . S
H1172 C1148 0.950 . S
H1173 C1149 0.949 . S
H1174 C1151 0.950 . S
H1175 C1153 0.950 . S
C1176 C1177 1.349 . S
C1176 C1178 1.327 . S
C1176 H1201 0.950 . S
C1177 C1176 1.349 . S
C1177 C1193 1.349 . S
C1178 C1176 1.327 . S
C1178 C1197 1.429 . S
C1178 H1202 0.950 . S
C1179 C1196 1.574 . S
C1179 C1198 1.368 . S
C1179 H1203 0.949 . S
H1180 C1184 0.949 . S
C1181 C1182 1.349 . S
C1181 C1183 1.327 . S
C1181 H1204 0.950 . S
C1182 C1181 1.349 . S
C1182 C1194 1.349 . S
C1183 C1181 1.327 . S
C1183 C1199 1.429 . S
C1183 H1205 0.950 . S
C1184 H1180 0.949 . S
C1184 C1192 1.574 . S
C1184 C1200 1.368 . S
H1185 C1193 0.950 . S
H1186 C1191 0.950 . S
H1187 C1192 0.949 . S
H1188 C1194 0.950 . S
H1189 C1195 0.950 . S
H1190 C1196 0.949 . S
C1191 H1186 0.950 . S
C1191 C1193 1.327 . S
C1191 C1197 1.429 . S
C1192 C1184 1.574 . S
C1192 H1187 0.949 . S
C1192 C1198 1.368 . S
C1193 C1177 1.349 . S
C1193 H1185 0.950 . S
C1193 C1191 1.327 . S
C1194 C1182 1.349 . S
C1194 H1188 0.950 . S
C1194 C1195 1.327 . S
C1195 H1189 0.950 . S
C1195 C1194 1.327 . S
C1195 C1199 1.429 . S
C1196 C1179 1.574 . S
C1196 H1190 0.949 . S
C1196 C1200 1.368 . S
C1197 C1178 1.429 . S
C1197 C1191 1.429 . S
C1197 C1198 1.523 . S
C1198 C1179 1.368 . S
C1198 C1192 1.368 . S
C1198 C1197 1.523 . S
C1199 C1183 1.429 . S
C1199 C1195 1.429 . S
C1199 C1200 1.523 . S
C1200 C1184 1.368 . S
C1200 C1196 1.368 . S
C1200 C1199 1.523 . S
H1201 C1176 0.950 . S
H1202 C1178 0.950 . S
H1203 C1179 0.949 . S
H1204 C1181 0.950 . S
H1205 C1183 0.950 . S
C1206 C1207 1.349 . S
C1206 C1208 1.327 . S
C1206 H1231 0.950 . S
C1207 C1206 1.349 . S
C1207 C1223 1.349 . S
C1208 C1206 1.327 . S
C1208 C1227 1.429 . S
C1208 H1232 0.950 . S
C1209 C1226 1.574 . S
C1209 C1228 1.368 . S
C1209 H1233 0.949 . S
H1210 C1214 0.949 . S
C1211 C1212 1.349 . S
C1211 C1213 1.327 . S
C1211 H1234 0.950 . S
C1212 C1211 1.349 . S
C1212 C1224 1.349 . S
C1213 C1211 1.327 . S
C1213 C1229 1.429 . S
C1213 H1235 0.950 . S
C1214 H1210 0.949 . S
C1214 C1222 1.574 . S
C1214 C1230 1.368 . S
H1215 C1223 0.950 . S
H1216 C1221 0.950 . S
H1217 C1222 0.949 . S
H1218 C1224 0.950 . S
H1219 C1225 0.950 . S
H1220 C1226 0.949 . S
C1221 H1216 0.950 . S
C1221 C1223 1.327 . S
C1221 C1227 1.429 . S
C1222 C1214 1.574 . S
C1222 H1217 0.949 . S
C1222 C1228 1.368 . S
C1223 C1207 1.349 . S
C1223 H1215 0.950 . S
C1223 C1221 1.327 . S
C1224 C1212 1.349 . S
C1224 H1218 0.950 . S
C1224 C1225 1.327 . S
C1225 H1219 0.950 . S
C1225 C1224 1.327 . S
C1225 C1229 1.429 . S
C1226 C1209 1.574 . S
C1226 H1220 0.949 . S
C1226 C1230 1.368 . S
C1227 C1208 1.429 . S
C1227 C1221 1.429 . S
C1227 C1228 1.523 . S
C1228 C1209 1.368 . S
C1228 C1222 1.368 . S
C1228 C1227 1.523 . S
C1229 C1213 1.429 . S
C1229 C1225 1.429 . S
C1229 C1230 1.523 . S
C1230 C1214 1.368 . S
C1230 C1226 1.368 . S
C1230 C1229 1.523 . S
H1231 C1206 0.950 . S
H1232 C1208 0.950 . S
H1233 C1209 0.949 . S
H1234 C1211 0.950 . S
H1235 C1213 0.950 . S
C1236 C1237 1.349 . S
C1236 C1238 1.327 . S
C1236 H1261 0.950 . S
C1237 C1236 1.349 . S
C1237 C1253 1.349 . S
C1238 C1236 1.327 . S
C1238 C1257 1.429 . S
C1238 H1262 0.950 . S
C1239 C1256 1.574 . S
C1239 C1258 1.368 . S
C1239 H1263 0.949 . S
H1240 C1244 0.949 . S
C1241 C1242 1.349 . S
C1241 C1243 1.327 . S
C1241 H1264 0.950 . S
C1242 C1241 1.349 . S
C1242 C1254 1.349 . S
C1243 C1241 1.327 . S
C1243 C1259 1.429 . S
C1243 H1265 0.950 . S
C1244 H1240 0.949 . S
C1244 C1252 1.574 . S
C1244 C1260 1.368 . S
H1245 C1253 0.950 . S
H1246 C1251 0.950 . S
H1247 C1252 0.949 . S
H1248 C1254 0.950 . S
H1249 C1255 0.950 . S
H1250 C1256 0.949 . S
C1251 H1246 0.950 . S
C1251 C1253 1.327 . S
C1251 C1257 1.429 . S
C1252 C1244 1.574 . S
C1252 H1247 0.949 . S
C1252 C1258 1.368 . S
C1253 C1237 1.349 . S
C1253 H1245 0.950 . S
C1253 C1251 1.327 . S
C1254 C1242 1.349 . S
C1254 H1248 0.950 . S
C1254 C1255 1.327 . S
C1255 H1249 0.950 . S
C1255 C1254 1.327 . S
C1255 C1259 1.429 . S
C1256 C1239 1.574 . S
C1256 H1250 0.949 . S
C1256 C1260 1.368 . S
C1257 C1238 1.429 . S
C1257 C1251 1.429 . S
C1257 C1258 1.523 . S
C1258 C1239 1.368 . S
C1258 C1252 1.368 . S
C1258 C1257 1.523 . S
C1259 C1243 1.429 . S
C1259 C1255 1.429 . S
C1259 C1260 1.523 . S
C1260 C1244 1.368 . S
C1260 C1256 1.368 . S
C1260 C1259 1.523 . S
H1261 C1236 0.950 . S
H1262 C1238 0.950 . S
H1263 C1239 0.949 . S
H1264 C1241 0.950 . S
H1265 C1243 0.950 . S
C1266 C1267 1.349 . S
C1266 C1268 1.327 . S
C1266 H1291 0.950 . S
C1267 C1266 1.349 . S
C1267 C1283 1.349 . S
C1268 C1266 1.327 . S
C1268 C1287 1.429 . S
C1268 H1292 0.950 . S
C1269 C1286 1.574 . S
C1269 C1288 1.368 . S
C1269 H1293 0.949 . S
H1270 C1274 0.949 . S
C1271 C1272 1.349 . S
C1271 C1273 1.327 . S
C1271 H1294 0.950 . S
C1272 C1271 1.349 . S
C1272 C1284 1.349 . S
C1273 C1271 1.327 . S
C1273 C1289 1.429 . S
C1273 H1295 0.950 . S
C1274 H1270 0.949 . S
C1274 C1282 1.574 . S
C1274 C1290 1.368 . S
H1275 C1283 0.950 . S
H1276 C1281 0.950 . S
H1277 C1282 0.949 . S
H1278 C1284 0.950 . S
H1279 C1285 0.950 . S
H1280 C1286 0.949 . S
C1281 H1276 0.950 . S
C1281 C1283 1.327 . S
C1281 C1287 1.429 . S
C1282 C1274 1.574 . S
C1282 H1277 0.949 . S
C1282 C1288 1.368 . S
C1283 C1267 1.349 . S
C1283 H1275 0.950 . S
C1283 C1281 1.327 . S
C1284 C1272 1.349 . S
C1284 H1278 0.950 . S
C1284 C1285 1.327 . S
C1285 H1279 0.950 . S
C1285 C1284 1.327 . S
C1285 C1289 1.429 . S
C1286 C1269 1.574 . S
C1286 H1280 0.949 . S
C1286 C1290 1.368 . S
C1287 C1268 1.429 . S
C1287 C1281 1.429 . S
C1287 C1288 1.523 . S
C1288 C1269 1.368 . S
C1288 C1282 1.368 . S
C1288 C1287 1.523 . S
C1289 C1273 1.429 . S
C1289 C1285 1.429 . S
C1289 C1290 1.523 . S
C1290 C1274 1.368 . S
C1290 C1286 1.368 . S
C1290 C1289 1.523 . S
H1291 C1266 0.950 . S
H1292 C1268 0.950 . S
H1293 C1269 0.949 . S
H1294 C1271 0.950 . S
H1295 C1273 0.950 . S
C1296 C1297 1.349 . S
C1296 C1298 1.327 . S
C1296 H1321 0.950 . S
C1297 C1296 1.349 . S
C1297 C1313 1.349 . S
C1298 C1296 1.327 . S
C1298 C1317 1.429 . S
C1298 H1322 0.950 . S
C1299 C1316 1.574 . S
C1299 C1318 1.368 . S
C1299 H1323 0.949 . S
H1300 C1304 0.949 . S
C1301 C1302 1.349 . S
C1301 C1303 1.327 . S
C1301 H1324 0.950 . S
C1302 C1301 1.349 . S
C1302 C1314 1.349 . S
C1303 C1301 1.327 . S
C1303 C1319 1.429 . S
C1303 H1325 0.950 . S
C1304 H1300 0.949 . S
C1304 C1312 1.574 . S
C1304 C1320 1.368 . S
H1305 C1313 0.950 . S
H1306 C1311 0.950 . S
H1307 C1312 0.949 . S
H1308 C1314 0.950 . S
H1309 C1315 0.950 . S
H1310 C1316 0.949 . S
C1311 H1306 0.950 . S
C1311 C1313 1.327 . S
C1311 C1317 1.429 . S
C1312 C1304 1.574 . S
C1312 H1307 0.949 . S
C1312 C1318 1.368 . S
C1313 C1297 1.349 . S
C1313 H1305 0.950 . S
C1313 C1311 1.327 . S
C1314 C1302 1.349 . S
C1314 H1308 0.950 . S
C1314 C1315 1.327 . S
C1315 H1309 0.950 . S
C1315 C1314 1.327 . S
C1315 C1319 1.429 . S
C1316 C1299 1.574 . S
C1316 H1310 0.949 . S
C1316 C1320 1.368 . S
C1317 C1298 1.429 . S
C1317 C1311 1.429 . S
C1317 C1318 1.523 . S
C1318 C1299 1.368 . S
C1318 C1312 1.368 . S
C1318 C1317 1.523 . S
C1319 C1303 1.429 . S
C1319 C1315 1.429 . S
C1319 C1320 1.523 . S
C1320 C1304 1.368 . S
C1320 C1316 1.368 . S
C1320 C1319 1.523 . S
H1321 C1296 0.950 . S
H1322 C1298 0.950 . S
H1323 C1299 0.949 . S
H1324 C1301 0.950 . S
H1325 C1303 0.950 . S
C1326 C1327 1.349 . S
C1326 C1328 1.327 . S
C1326 H1351 0.950 . S
C1327 C1326 1.349 . S
C1327 C1343 1.349 . S
C1328 C1326 1.327 . S
C1328 C1347 1.429 . S
C1328 H1352 0.950 . S
C1329 C1346 1.574 . S
C1329 C1348 1.368 . S
C1329 H1353 0.949 . S
H1330 C1334 0.949 . S
C1331 C1332 1.349 . S
C1331 C1333 1.327 . S
C1331 H1354 0.950 . S
C1332 C1331 1.349 . S
C1332 C1344 1.349 . S
C1333 C1331 1.327 . S
C1333 C1349 1.429 . S
C1333 H1355 0.950 . S
C1334 H1330 0.949 . S
C1334 C1342 1.574 . S
C1334 C1350 1.368 . S
H1335 C1343 0.950 . S
H1336 C1341 0.950 . S
H1337 C1342 0.949 . S
H1338 C1344 0.950 . S
H1339 C1345 0.950 . S
H1340 C1346 0.949 . S
C1341 H1336 0.950 . S
C1341 C1343 1.327 . S
C1341 C1347 1.429 . S
C1342 C1334 1.574 . S
C1342 H1337 0.949 . S
C1342 C1348 1.368 . S
C1343 C1327 1.349 . S
C1343 H1335 0.950 . S
C1343 C1341 1.327 . S
C1344 C1332 1.349 . S
C1344 H1338 0.950 . S
C1344 C1345 1.327 . S
C1345 H1339 0.950 . S
C1345 C1344 1.327 . S
C1345 C1349 1.429 . S
C1346 C1329 1.574 . S
C1346 H1340 0.949 . S
C1346 C1350 1.368 . S
C1347 C1328 1.429 . S
C1347 C1341 1.429 . S
C1347 C1348 1.523 . S
C1348 C1329 1.368 . S
C1348 C1342 1.368 . S
C1348 C1347 1.523 . S
C1349 C1333 1.429 . S
C1349 C1345 1.429 . S
C1349 C1350 1.523 . S
C1350 C1334 1.368 . S
C1350 C1346 1.368 . S
C1350 C1349 1.523 . S
H1351 C1326 0.950 . S
H1352 C1328 0.950 . S
H1353 C1329 0.949 . S
H1354 C1331 0.950 . S
H1355 C1333 0.950 . S
C1356 C1357 1.349 . S
C1356 C1358 1.327 . S
C1356 H1381 0.950 . S
C1357 C1356 1.349 . S
C1357 C1373 1.349 . S
C1358 C1356 1.327 . S
C1358 C1377 1.429 . S
C1358 H1382 0.950 . S
C1359 C1376 1.574 . S
C1359 C1378 1.368 . S
C1359 H1383 0.949 . S
H1360 C1364 0.949 . S
C1361 C1362 1.349 . S
C1361 C1363 1.327 . S
C1361 H1384 0.950 . S
C1362 C1361 1.349 . S
C1362 C1374 1.349 . S
C1363 C1361 1.327 . S
C1363 C1379 1.429 . S
C1363 H1385 0.950 . S
C1364 H1360 0.949 . S
C1364 C1372 1.574 . S
C1364 C1380 1.368 . S
H1365 C1373 0.950 . S
H1366 C1371 0.950 . S
H1367 C1372 0.949 . S
H1368 C1374 0.950 . S
H1369 C1375 0.950 . S
H1370 C1376 0.949 . S
C1371 H1366 0.950 . S
C1371 C1373 1.327 . S
C1371 C1377 1.429 . S
C1372 C1364 1.574 . S
C1372 H1367 0.949 . S
C1372 C1378 1.368 . S
C1373 C1357 1.349 . S
C1373 H1365 0.950 . S
C1373 C1371 1.327 . S
C1374 C1362 1.349 . S
C1374 H1368 0.950 . S
C1374 C1375 1.327 . S
C1375 H1369 0.950 . S
C1375 C1374 1.327 . S
C1375 C1379 1.429 . S
C1376 C1359 1.574 . S
C1376 H1370 0.949 . S
C1376 C1380 1.368 . S
C1377 C1358 1.429 . S
C1377 C1371 1.429 . S
C1377 C1378 1.523 . S
C1378 C1359 1.368 . S
C1378 C1372 1.368 . S
C1378 C1377 1.523 . S
C1379 C1363 1.429 . S
C1379 C1375 1.429 . S
C1379 C1380 1.523 . S
C1380 C1364 1.368 . S
C1380 C1376 1.368 . S
C1380 C1379 1.523 . S
H1381 C1356 0.950 . S
H1382 C1358 0.950 . S
H1383 C1359 0.949 . S
H1384 C1361 0.950 . S
H1385 C1363 0.950 . S
C1386 C1387 1.349 . S
C1386 C1388 1.327 . S
C1386 H1411 0.950 . S
C1387 C1386 1.349 . S
C1387 C1403 1.349 . S
C1388 C1386 1.327 . S
C1388 C1407 1.429 . S
C1388 H1412 0.950 . S
C1389 C1406 1.574 . S
C1389 C1408 1.368 . S
C1389 H1413 0.949 . S
H1390 C1394 0.949 . S
C1391 C1392 1.349 . S
C1391 C1393 1.327 . S
C1391 H1414 0.950 . S
C1392 C1391 1.349 . S
C1392 C1404 1.349 . S
C1393 C1391 1.327 . S
C1393 C1409 1.429 . S
C1393 H1415 0.950 . S
C1394 H1390 0.949 . S
C1394 C1402 1.574 . S
C1394 C1410 1.368 . S
H1395 C1403 0.950 . S
H1396 C1401 0.950 . S
H1397 C1402 0.949 . S
H1398 C1404 0.950 . S
H1399 C1405 0.950 . S
H1400 C1406 0.949 . S
C1401 H1396 0.950 . S
C1401 C1403 1.327 . S
C1401 C1407 1.429 . S
C1402 C1394 1.574 . S
C1402 H1397 0.949 . S
C1402 C1408 1.368 . S
C1403 C1387 1.349 . S
C1403 H1395 0.950 . S
C1403 C1401 1.327 . S
C1404 C1392 1.349 . S
C1404 H1398 0.950 . S
C1404 C1405 1.327 . S
C1405 H1399 0.950 . S
C1405 C1404 1.327 . S
C1405 C1409 1.429 . S
C1406 C1389 1.574 . S
C1406 H1400 0.949 . S
C1406 C1410 1.368 . S
C1407 C1388 1.429 . S
C1407 C1401 1.429 . S
C1407 C1408 1.523 . S
C1408 C1389 1.368 . S
C1408 C1402 1.368 . S
C1408 C1407 1.523 . S
C1409 C1393 1.429 . S
C1409 C1405 1.429 . S
C1409 C1410 1.523 . S
C1410 C1394 1.368 . S
C1410 C1406 1.368 . S
C1410 C1409 1.523 . S
H1411 C1386 0.950 . S
H1412 C1388 0.950 . S
H1413 C1389 0.949 . S
H1414 C1391 0.950 . S
H1415 C1393 0.950 . S
C1416 C1417 1.349 . S
C1416 C1418 1.327 . S
C1416 H1441 0.950 . S
C1417 C1416 1.349 . S
C1417 C1433 1.349 . S
C1418 C1416 1.327 . S
C1418 C1437 1.429 . S
C1418 H1442 0.950 . S
C1419 C1436 1.574 . S
C1419 C1438 1.368 . S
C1419 H1443 0.949 . S
H1420 C1424 0.949 . S
C1421 C1422 1.349 . S
C1421 C1423 1.327 . S
C1421 H1444 0.950 . S
C1422 C1421 1.349 . S
C1422 C1434 1.349 . S
C1423 C1421 1.327 . S
C1423 C1439 1.429 . S
C1423 H1445 0.950 . S
C1424 H1420 0.949 . S
C1424 C1432 1.574 . S
C1424 C1440 1.368 . S
H1425 C1433 0.950 . S
H1426 C1431 0.950 . S
H1427 C1432 0.949 . S
H1428 C1434 0.950 . S
H1429 C1435 0.950 . S
H1430 C1436 0.949 . S
C1431 H1426 0.950 . S
C1431 C1433 1.327 . S
C1431 C1437 1.429 . S
C1432 C1424 1.574 . S
C1432 H1427 0.949 . S
C1432 C1438 1.368 . S
C1433 C1417 1.349 . S
C1433 H1425 0.950 . S
C1433 C1431 1.327 . S
C1434 C1422 1.349 . S
C1434 H1428 0.950 . S
C1434 C1435 1.327 . S
C1435 H1429 0.950 . S
C1435 C1434 1.327 . S
C1435 C1439 1.429 . S
C1436 C1419 1.574 . S
C1436 H1430 0.949 . S
C1436 C1440 1.368 . S
C1437 C1418 1.429 . S
C1437 C1431 1.429 . S
C1437 C1438 1.523 . S
C1438 C1419 1.368 . S
C1438 C1432 1.368 . S
C1438 C1437 1.523 . S
C1439 C1423 1.429 . S
C1439 C1435 1.429 . S
C1439 C1440 1.523 . S
C1440 C1424 1.368 . S
C1440 C1436 1.368 . S
C1440 C1439 1.523 . S
H1441 C1416 0.950 . S
H1442 C1418 0.950 . S
H1443 C1419 0.949 . S
H1444 C1421 0.950 . S
H1445 C1423 0.950 . S
C1446 C1447 1.349 . S
C1446 C1448 1.327 . S
C1446 H1471 0.950 . S
C1447 C1446 1.349 . S
C1447 C1463 1.349 . S
C1448 C1446 1.327 . S
C1448 C1467 1.429 . S
C1448 H1472 0.950 . S
C1449 C1466 1.574 . S
C1449 C1468 1.368 . S
C1449 H1473 0.949 . S
H1450 C1454 0.949 . S
C1451 C1452 1.349 . S
C1451 C1453 1.327 . S
C1451 H1474 0.950 . S
C1452 C1451 1.349 . S
C1452 C1464 1.349 . S
C1453 C1451 1.327 . S
C1453 C1469 1.429 . S
C1453 H1475 0.950 . S
C1454 H1450 0.949 . S
C1454 C1462 1.574 . S
C1454 C1470 1.368 . S
H1455 C1463 0.950 . S
H1456 C1461 0.950 . S
H1457 C1462 0.949 . S
H1458 C1464 0.950 . S
H1459 C1465 0.950 . S
H1460 C1466 0.949 . S
C1461 H1456 0.950 . S
C1461 C1463 1.327 . S
C1461 C1467 1.429 . S
C1462 C1454 1.574 . S
C1462 H1457 0.949 . S
C1462 C1468 1.368 . S
C1463 C1447 1.349 . S
C1463 H1455 0.950 . S
C1463 C1461 1.327 . S
C1464 C1452 1.349 . S
C1464 H1458 0.950 . S
C1464 C1465 1.327 . S
C1465 H1459 0.950 . S
C1465 C1464 1.327 . S
C1465 C1469 1.429 . S
C1466 C1449 1.574 . S
C1466 H1460 0.949 . S
C1466 C1470 1.368 . S
C1467 C1448 1.429 . S
C1467 C1461 1.429 . S
C1467 C1468 1.523 . S
C1468 C1449 1.368 . S
C1468 C1462 1.368 . S
C1468 C1467 1.523 . S
C1469 C1453 1.429 . S
C1469 C1465 1.429 . S
C1469 C1470 1.523 . S
C1470 C1454 1.368 . S
C1470 C1466 1.368 . S
C1470 C1469 1.523 . S
H1471 C1446 0.950 . S
H1472 C1448 0.950 . S
H1473 C1449 0.949 . S
H1474 C1451 0.950 . S
H1475 C1453 0.950 . S
C1476 C1477 1.349 . S
C1476 C1478 1.327 . S
C1476 H1501 0.950 . S
C1477 C1476 1.349 . S
C1477 C1493 1.349 . S
C1478 C1476 1.327 . S
C1478 C1497 1.429 . S
C1478 H1502 0.950 . S
C1479 C1496 1.574 . S
C1479 C1498 1.368 . S
C1479 H1503 0.949 . S
H1480 C1484 0.949 . S
C1481 C1482 1.349 . S
C1481 C1483 1.327 . S
C1481 H1504 0.950 . S
C1482 C1481 1.349 . S
C1482 C1494 1.349 . S
C1483 C1481 1.327 . S
C1483 C1499 1.429 . S
C1483 H1505 0.950 . S
C1484 H1480 0.949 . S
C1484 C1492 1.574 . S
C1484 C1500 1.368 . S
H1485 C1493 0.950 . S
H1486 C1491 0.950 . S
H1487 C1492 0.949 . S
H1488 C1494 0.950 . S
H1489 C1495 0.950 . S
H1490 C1496 0.949 . S
C1491 H1486 0.950 . S
C1491 C1493 1.327 . S
C1491 C1497 1.429 . S
C1492 C1484 1.574 . S
C1492 H1487 0.949 . S
C1492 C1498 1.368 . S
C1493 C1477 1.349 . S
C1493 H1485 0.950 . S
C1493 C1491 1.327 . S
C1494 C1482 1.349 . S
C1494 H1488 0.950 . S
C1494 C1495 1.327 . S
C1495 H1489 0.950 . S
C1495 C1494 1.327 . S
C1495 C1499 1.429 . S
C1496 C1479 1.574 . S
C1496 H1490 0.949 . S
C1496 C1500 1.368 . S
C1497 C1478 1.429 . S
C1497 C1491 1.429 . S
C1497 C1498 1.523 . S
C1498 C1479 1.368 . S
C1498 C1492 1.368 . S
C1498 C1497 1.523 . S
C1499 C1483 1.429 . S
C1499 C1495 1.429 . S
C1499 C1500 1.523 . S
C1500 C1484 1.368 . S
C1500 C1496 1.368 . S
C1500 C1499 1.523 . S
H1501 C1476 0.950 . S
H1502 C1478 0.950 . S
H1503 C1479 0.949 . S
H1504 C1481 0.950 . S
H1505 C1483 0.950 . S
C1506 C1507 1.349 . S
C1506 C1508 1.327 . S
C1506 H1531 0.950 . S
C1507 C1506 1.349 . S
C1507 C1523 1.349 . S
C1508 C1506 1.327 . S
C1508 C1527 1.429 . S
C1508 H1532 0.950 . S
C1509 C1526 1.574 . S
C1509 C1528 1.368 . S
C1509 H1533 0.949 . S
H1510 C1514 0.949 . S
C1511 C1512 1.349 . S
C1511 C1513 1.327 . S
C1511 H1534 0.950 . S
C1512 C1511 1.349 . S
C1512 C1524 1.349 . S
C1513 C1511 1.327 . S
C1513 C1529 1.429 . S
C1513 H1535 0.950 . S
C1514 H1510 0.949 . S
C1514 C1522 1.574 . S
C1514 C1530 1.368 . S
H1515 C1523 0.950 . S
H1516 C1521 0.950 . S
H1517 C1522 0.949 . S
H1518 C1524 0.950 . S
H1519 C1525 0.950 . S
H1520 C1526 0.949 . S
C1521 H1516 0.950 . S
C1521 C1523 1.327 . S
C1521 C1527 1.429 . S
C1522 C1514 1.574 . S
C1522 H1517 0.949 . S
C1522 C1528 1.368 . S
C1523 C1507 1.349 . S
C1523 H1515 0.950 . S
C1523 C1521 1.327 . S
C1524 C1512 1.349 . S
C1524 H1518 0.950 . S
C1524 C1525 1.327 . S
C1525 H1519 0.950 . S
C1525 C1524 1.327 . S
C1525 C1529 1.429 . S
C1526 C1509 1.574 . S
C1526 H1520 0.949 . S
C1526 C1530 1.368 . S
C1527 C1508 1.429 . S
C1527 C1521 1.429 . S
C1527 C1528 1.523 . S
C1528 C1509 1.368 . S
C1528 C1522 1.368 . S
C1528 C1527 1.523 . S
C1529 C1513 1.429 . S
C1529 C1525 1.429 . S
C1529 C1530 1.523 . S
C1530 C1514 1.368 . S
C1530 C1526 1.368 . S
C1530 C1529 1.523 . S
H1531 C1506 0.950 . S
H1532 C1508 0.950 . S
H1533 C1509 0.949 . S
H1534 C1511 0.950 . S
H1535 C1513 0.950 . S
C1536 C1537 1.349 . S
C1536 C1538 1.327 . S
C1536 H1561 0.950 . S
C1537 C1536 1.349 . S
C1537 C1553 1.349 . S
C1538 C1536 1.327 . S
C1538 C1557 1.429 . S
C1538 H1562 0.950 . S
C1539 C1556 1.574 1_565 S
C1539 C1558 1.368 . S
C1539 H1563 0.949 . S
H1540 C1544 0.949 . S
C1541 C1542 1.349 . S
C1541 C1543 1.327 . S
C1541 H1564 0.950 . S
C1542 C1541 1.349 . S
C1542 C1554 1.349 . S
C1543 C1541 1.327 . S
C1543 C1559 1.429 . S
C1543 H1565 0.950 . S
C1544 H1540 0.949 . S
C1544 C1552 1.574 1_545 S
C1544 C1560 1.368 . S
H1545 C1553 0.950 . S
H1546 C1551 0.950 . S
H1547 C1552 0.949 . S
H1548 C1554 0.950 . S
H1549 C1555 0.950 . S
H1550 C1556 0.949 . S
C1551 H1546 0.950 . S
C1551 C1553 1.327 . S
C1551 C1557 1.429 . S
C1552 C1544 1.574 1_565 S
C1552 H1547 0.949 . S
C1552 C1558 1.368 . S
C1553 C1537 1.349 . S
C1553 H1545 0.950 . S
C1553 C1551 1.327 . S
C1554 C1542 1.349 . S
C1554 H1548 0.950 . S
C1554 C1555 1.327 . S
C1555 H1549 0.950 . S
C1555 C1554 1.327 . S
C1555 C1559 1.429 . S
C1556 C1539 1.574 1_545 S
C1556 H1550 0.949 . S
C1556 C1560 1.368 . S
C1557 C1538 1.429 . S
C1557 C1551 1.429 . S
C1557 C1558 1.523 . S
C1558 C1539 1.368 . S
C1558 C1552 1.368 . S
C1558 C1557 1.523 . S
C1559 C1543 1.429 . S
C1559 C1555 1.429 . S
C1559 C1560 1.523 . S
C1560 C1544 1.368 . S
C1560 C1556 1.368 . S
C1560 C1559 1.523 . S
H1561 C1536 0.950 . S
H1562 C1538 0.950 . S
H1563 C1539 0.949 . S
H1564 C1541 0.950 . S
H1565 C1543 0.950 . S
C1566 C1567 1.349 . S
C1566 C1568 1.327 . S
C1566 H1591 0.950 . S
C1567 C1566 1.349 . S
C1567 C1583 1.349 . S
C1568 C1566 1.327 . S
C1568 C1587 1.429 . S
C1568 H1592 0.950 . S
C1569 C1586 1.574 . S
C1569 C1588 1.368 . S
C1569 H1593 0.949 . S
H1570 C1574 0.949 . S
C1571 C1572 1.349 . S
C1571 C1573 1.327 . S
C1571 H1594 0.950 . S
C1572 C1571 1.349 . S
C1572 C1584 1.349 . S
C1573 C1571 1.327 . S
C1573 C1589 1.429 . S
C1573 H1595 0.950 . S
C1574 H1570 0.949 . S
C1574 C1582 1.574 . S
C1574 C1590 1.368 . S
H1575 C1583 0.950 . S
H1576 C1581 0.950 . S
H1577 C1582 0.949 . S
H1578 C1584 0.950 . S
H1579 C1585 0.950 . S
H1580 C1586 0.949 . S
C1581 H1576 0.950 . S
C1581 C1583 1.327 . S
C1581 C1587 1.429 . S
C1582 C1574 1.574 . S
C1582 H1577 0.949 . S
C1582 C1588 1.368 . S
C1583 C1567 1.349 . S
C1583 H1575 0.950 . S
C1583 C1581 1.327 . S
C1584 C1572 1.349 . S
C1584 H1578 0.950 . S
C1584 C1585 1.327 . S
C1585 H1579 0.950 . S
C1585 C1584 1.327 . S
C1585 C1589 1.429 . S
C1586 C1569 1.574 . S
C1586 H1580 0.949 . S
C1586 C1590 1.368 . S
C1587 C1568 1.429 . S
C1587 C1581 1.429 . S
C1587 C1588 1.523 . S
C1588 C1569 1.368 . S
C1588 C1582 1.368 . S
C1588 C1587 1.523 . S
C1589 C1573 1.429 . S
C1589 C1585 1.429 . S
C1589 C1590 1.523 . S
C1590 C1574 1.368 . S
C1590 C1586 1.368 . S
C1590 C1589 1.523 . S
H1591 C1566 0.950 . S
H1592 C1568 0.950 . S
H1593 C1569 0.949 . S
H1594 C1571 0.950 . S
H1595 C1573 0.950 . S
C1596 C1597 1.349 . S
C1596 C1598 1.327 . S
C1596 H1621 0.950 . S
C1597 C1596 1.349 . S
C1597 C1613 1.349 . S
C1598 C1596 1.327 . S
C1598 C1617 1.429 . S
C1598 H1622 0.950 . S
C1599 C1616 1.574 1_545 S
C1599 C1618 1.368 . S
C1599 H1623 0.949 . S
H1600 C1604 0.949 . S
C1601 C1602 1.349 . S
C1601 C1603 1.327 . S
C1601 H1624 0.950 . S
C1602 C1601 1.349 . S
C1602 C1614 1.349 . S
C1603 C1601 1.327 . S
C1603 C1619 1.429 . S
C1603 H1625 0.950 . S
C1604 H1600 0.949 . S
C1604 C1612 1.574 1_565 S
C1604 C1620 1.368 . S
H1605 C1613 0.950 . S
H1606 C1611 0.950 . S
H1607 C1612 0.949 . S
H1608 C1614 0.950 . S
H1609 C1615 0.950 . S
H1610 C1616 0.949 . S
C1611 H1606 0.950 . S
C1611 C1613 1.327 . S
C1611 C1617 1.429 . S
C1612 C1604 1.574 1_545 S
C1612 H1607 0.949 . S
C1612 C1618 1.368 . S
C1613 C1597 1.349 . S
C1613 H1605 0.950 . S
C1613 C1611 1.327 . S
C1614 C1602 1.349 . S
C1614 H1608 0.950 . S
C1614 C1615 1.327 . S
C1615 H1609 0.950 . S
C1615 C1614 1.327 . S
C1615 C1619 1.429 . S
C1616 C1599 1.574 1_565 S
C1616 H1610 0.949 . S
C1616 C1620 1.368 . S
C1617 C1598 1.429 . S
C1617 C1611 1.429 . S
C1617 C1618 1.523 . S
C1618 C1599 1.368 . S
C1618 C1612 1.368 . S
C1618 C1617 1.523 . S
C1619 C1603 1.429 . S
C1619 C1615 1.429 . S
C1619 C1620 1.523 . S
C1620 C1604 1.368 . S
C1620 C1616 1.368 . S
C1620 C1619 1.523 . S
H1621 C1596 0.950 . S
H1622 C1598 0.950 . S
H1623 C1599 0.949 . S
H1624 C1601 0.950 . S
H1625 C1603 0.950 . S
C1626 C1627 1.349 . S
C1626 C1628 1.327 1_554 S
C1626 H1651 0.950 1_554 S
C1627 C1626 1.349 . S
C1627 C1643 1.349 . S
C1628 C1626 1.327 1_556 S
C1628 C1647 1.429 1_556 S
C1628 H1652 0.950 . S
C1629 C1646 1.574 . S
C1629 C1648 1.368 . S
C1629 H1653 0.949 . S
H1630 C1634 0.949 . S
C1631 C1632 1.349 . S
C1631 C1633 1.327 1_556 S
C1631 H1654 0.950 1_556 S
C1632 C1631 1.349 . S
C1632 C1644 1.349 . S
C1633 C1631 1.327 1_554 S
C1633 C1649 1.429 1_554 S
C1633 H1655 0.950 . S
C1634 H1630 0.949 . S
C1634 C1642 1.574 . S
C1634 C1650 1.368 . S
H1635 C1643 0.950 . S
H1636 C1641 0.950 . S
H1637 C1642 0.949 . S
H1638 C1644 0.950 . S
H1639 C1645 0.950 . S
H1640 C1646 0.949 . S
C1641 H1636 0.950 . S
C1641 C1643 1.327 . S
C1641 C1647 1.429 . S
C1642 C1634 1.574 . S
C1642 H1637 0.949 . S
C1642 C1648 1.368 1_556 S
C1643 C1627 1.349 . S
C1643 H1635 0.950 . S
C1643 C1641 1.327 . S
C1644 C1632 1.349 . S
C1644 H1638 0.950 . S
C1644 C1645 1.327 . S
C1645 H1639 0.950 . S
C1645 C1644 1.327 . S
C1645 C1649 1.429 . S
C1646 C1629 1.574 . S
C1646 H1640 0.949 . S
C1646 C1650 1.368 1_554 S
C1647 C1628 1.429 1_554 S
C1647 C1641 1.429 . S
C1647 C1648 1.523 . S
C1648 C1629 1.368 . S
C1648 C1642 1.368 1_554 S
C1648 C1647 1.523 . S
C1649 C1633 1.429 1_556 S
C1649 C1645 1.429 . S
C1649 C1650 1.523 . S
C1650 C1634 1.368 . S
C1650 C1646 1.368 1_556 S
C1650 C1649 1.523 . S
H1651 C1626 0.950 1_556 S
H1652 C1628 0.950 . S
H1653 C1629 0.949 . S
H1654 C1631 0.950 1_554 S
H1655 C1633 0.950 . S
C1656 C1657 1.349 . S
C1656 C1658 1.327 . S
C1656 H1681 0.950 . S
C1657 C1656 1.349 . S
C1657 C1673 1.349 . S
C1658 C1656 1.327 . S
C1658 C1677 1.429 . S
C1658 H1682 0.950 . S
C1659 C1676 1.574 1_545 S
C1659 C1678 1.368 . S
C1659 H1683 0.949 . S
H1660 C1664 0.949 . S
C1661 C1662 1.349 . S
C1661 C1663 1.327 . S
C1661 H1684 0.950 . S
C1662 C1661 1.349 . S
C1662 C1674 1.349 . S
C1663 C1661 1.327 . S
C1663 C1679 1.429 . S
C1663 H1685 0.950 . S
C1664 H1660 0.949 . S
C1664 C1672 1.574 1_565 S
C1664 C1680 1.368 . S
H1665 C1673 0.950 . S
H1666 C1671 0.950 . S
H1667 C1672 0.949 . S
H1668 C1674 0.950 . S
H1669 C1675 0.950 . S
H1670 C1676 0.949 . S
C1671 H1666 0.950 . S
C1671 C1673 1.327 . S
C1671 C1677 1.429 . S
C1672 C1664 1.574 1_545 S
C1672 H1667 0.949 . S
C1672 C1678 1.368 . S
C1673 C1657 1.349 . S
C1673 H1665 0.950 . S
C1673 C1671 1.327 . S
C1674 C1662 1.349 . S
C1674 H1668 0.950 . S
C1674 C1675 1.327 . S
C1675 H1669 0.950 . S
C1675 C1674 1.327 . S
C1675 C1679 1.429 . S
C1676 C1659 1.574 1_565 S
C1676 H1670 0.949 . S
C1676 C1680 1.368 . S
C1677 C1658 1.429 . S
C1677 C1671 1.429 . S
C1677 C1678 1.523 . S
C1678 C1659 1.368 . S
C1678 C1672 1.368 . S
C1678 C1677 1.523 . S
C1679 C1663 1.429 . S
C1679 C1675 1.429 . S
C1679 C1680 1.523 . S
C1680 C1664 1.368 . S
C1680 C1676 1.368 . S
C1680 C1679 1.523 . S
H1681 C1656 0.950 . S
H1682 C1658 0.950 . S
H1683 C1659 0.949 . S
H1684 C1661 0.950 . S
H1685 C1663 0.950 . S
C1686 C1687 1.349 . S
C1686 C1688 1.327 . S
C1686 H1711 0.950 . S
C1687 C1686 1.349 . S
C1687 C1703 1.349 . S
C1688 C1686 1.327 . S
C1688 C1707 1.429 . S
C1688 H1712 0.950 . S
C1689 C1706 1.574 . S
C1689 C1708 1.368 . S
C1689 H1713 0.949 . S
H1690 C1694 0.949 . S
C1691 C1692 1.349 . S
C1691 C1693 1.327 . S
C1691 H1714 0.950 . S
C1692 C1691 1.349 . S
C1692 C1704 1.349 . S
C1693 C1691 1.327 . S
C1693 C1709 1.429 . S
C1693 H1715 0.950 . S
C1694 H1690 0.949 . S
C1694 C1702 1.574 . S
C1694 C1710 1.368 . S
H1695 C1703 0.950 . S
H1696 C1701 0.950 . S
H1697 C1702 0.949 . S
H1698 C1704 0.950 . S
H1699 C1705 0.950 . S
H1700 C1706 0.949 . S
C1701 H1696 0.950 . S
C1701 C1703 1.327 . S
C1701 C1707 1.429 . S
C1702 C1694 1.574 . S
C1702 H1697 0.949 . S
C1702 C1708 1.368 . S
C1703 C1687 1.349 . S
C1703 H1695 0.950 . S
C1703 C1701 1.327 . S
C1704 C1692 1.349 . S
C1704 H1698 0.950 . S
C1704 C1705 1.327 . S
C1705 H1699 0.950 . S
C1705 C1704 1.327 . S
C1705 C1709 1.429 . S
C1706 C1689 1.574 . S
C1706 H1700 0.949 . S
C1706 C1710 1.368 . S
C1707 C1688 1.429 . S
C1707 C1701 1.429 . S
C1707 C1708 1.523 . S
C1708 C1689 1.368 . S
C1708 C1702 1.368 . S
C1708 C1707 1.523 . S
C1709 C1693 1.429 . S
C1709 C1705 1.429 . S
C1709 C1710 1.523 . S
C1710 C1694 1.368 . S
C1710 C1706 1.368 . S
C1710 C1709 1.523 . S
H1711 C1686 0.950 . S
H1712 C1688 0.950 . S
H1713 C1689 0.949 . S
H1714 C1691 0.950 . S
H1715 C1693 0.950 . S
C1716 C1717 1.349 . S
C1716 C1718 1.327 . S
C1716 H1741 0.950 . S
C1717 C1716 1.349 . S
C1717 C1733 1.349 . S
C1718 C1716 1.327 . S
C1718 C1737 1.429 . S
C1718 H1742 0.950 . S
C1719 C1736 1.574 1_545 S
C1719 C1738 1.368 . S
C1719 H1743 0.949 . S
H1720 C1724 0.949 . S
C1721 C1722 1.349 . S
C1721 C1723 1.327 . S
C1721 H1744 0.950 . S
C1722 C1721 1.349 . S
C1722 C1734 1.349 . S
C1723 C1721 1.327 . S
C1723 C1739 1.429 . S
C1723 H1745 0.950 . S
C1724 H1720 0.949 . S
C1724 C1732 1.574 1_565 S
C1724 C1740 1.368 . S
H1725 C1733 0.950 . S
H1726 C1731 0.950 . S
H1727 C1732 0.949 . S
H1728 C1734 0.950 . S
H1729 C1735 0.950 . S
H1730 C1736 0.949 . S
C1731 H1726 0.950 . S
C1731 C1733 1.327 . S
C1731 C1737 1.429 . S
C1732 C1724 1.574 1_545 S
C1732 H1727 0.949 . S
C1732 C1738 1.368 . S
C1733 C1717 1.349 . S
C1733 H1725 0.950 . S
C1733 C1731 1.327 . S
C1734 C1722 1.349 . S
C1734 H1728 0.950 . S
C1734 C1735 1.327 . S
C1735 H1729 0.950 . S
C1735 C1734 1.327 . S
C1735 C1739 1.429 . S
C1736 C1719 1.574 1_565 S
C1736 H1730 0.949 . S
C1736 C1740 1.368 . S
C1737 C1718 1.429 . S
C1737 C1731 1.429 . S
C1737 C1738 1.523 . S
C1738 C1719 1.368 . S
C1738 C1732 1.368 . S
C1738 C1737 1.523 . S
C1739 C1723 1.429 . S
C1739 C1735 1.429 . S
C1739 C1740 1.523 . S
C1740 C1724 1.368 . S
C1740 C1736 1.368 . S
C1740 C1739 1.523 . S
H1741 C1716 0.950 . S
H1742 C1718 0.950 . S
H1743 C1719 0.949 . S
H1744 C1721 0.950 . S
H1745 C1723 0.950 . S
C1746 C1747 1.349 . S
C1746 C1748 1.327 . S
C1746 H1771 0.950 . S
C1747 C1746 1.349 . S
C1747 C1763 1.349 . S
C1748 C1746 1.327 . S
C1748 C1767 1.429 . S
C1748 H1772 0.950 . S
C1749 C1766 1.574 . S
C1749 C1768 1.368 1_556 S
C1749 H1773 0.949 . S
H1750 C1754 0.949 . S
C1751 C1752 1.349 . S
C1751 C1753 1.327 . S
C1751 H1774 0.950 . S
C1752 C1751 1.349 . S
C1752 C1764 1.349 . S
C1753 C1751 1.327 . S
C1753 C1769 1.429 . S
C1753 H1775 0.950 . S
C1754 H1750 0.949 . S
C1754 C1762 1.574 . S
C1754 C1770 1.368 1_554 S
H1755 C1763 0.950 1_556 S
H1756 C1761 0.950 . S
H1757 C1762 0.949 . S
H1758 C1764 0.950 1_554 S
H1759 C1765 0.950 . S
H1760 C1766 0.949 . S
C1761 H1756 0.950 . S
C1761 C1763 1.327 1_556 S
C1761 C1767 1.429 1_556 S
C1762 C1754 1.574 . S
C1762 H1757 0.949 . S
C1762 C1768 1.368 . S
C1763 C1747 1.349 . S
C1763 H1755 0.950 1_554 S
C1763 C1761 1.327 1_554 S
C1764 C1752 1.349 . S
C1764 H1758 0.950 1_556 S
C1764 C1765 1.327 1_556 S
C1765 H1759 0.950 . S
C1765 C1764 1.327 1_554 S
C1765 C1769 1.429 1_554 S
C1766 C1749 1.574 . S
C1766 H1760 0.949 . S
C1766 C1770 1.368 . S
C1767 C1748 1.429 . S
C1767 C1761 1.429 1_554 S
C1767 C1768 1.523 . S
C1768 C1749 1.368 1_554 S
C1768 C1762 1.368 . S
C1768 C1767 1.523 . S
C1769 C1753 1.429 . S
C1769 C1765 1.429 1_556 S
C1769 C1770 1.523 . S
C1770 C1754 1.368 1_556 S
C1770 C1766 1.368 . S
C1770 C1769 1.523 . S
H1771 C1746 0.950 . S
H1772 C1748 0.950 . S
H1773 C1749 0.949 . S
H1774 C1751 0.950 . S
H1775 C1753 0.950 . S
C1776 C1777 1.349 . S
C1776 C1778 1.327 . S
C1776 H1801 0.950 . S
C1777 C1776 1.349 . S
C1777 C1793 1.349 . S
C1778 C1776 1.327 . S
C1778 C1797 1.429 . S
C1778 H1802 0.950 . S
C1779 C1796 1.574 . S
C1779 C1798 1.368 . S
C1779 H1803 0.949 . S
H1780 C1784 0.949 . S
C1781 C1782 1.349 . S
C1781 C1783 1.327 . S
C1781 H1804 0.950 . S
C1782 C1781 1.349 . S
C1782 C1794 1.349 . S
C1783 C1781 1.327 . S
C1783 C1799 1.429 . S
C1783 H1805 0.950 . S
C1784 H1780 0.949 . S
C1784 C1792 1.574 . S
C1784 C1800 1.368 . S
H1785 C1793 0.950 . S
H1786 C1791 0.950 . S
H1787 C1792 0.949 . S
H1788 C1794 0.950 . S
H1789 C1795 0.950 . S
H1790 C1796 0.949 . S
C1791 H1786 0.950 . S
C1791 C1793 1.327 . S
C1791 C1797 1.429 . S
C1792 C1784 1.574 . S
C1792 H1787 0.949 . S
C1792 C1798 1.368 . S
C1793 C1777 1.349 . S
C1793 H1785 0.950 . S
C1793 C1791 1.327 . S
C1794 C1782 1.349 . S
C1794 H1788 0.950 . S
C1794 C1795 1.327 . S
C1795 H1789 0.950 . S
C1795 C1794 1.327 . S
C1795 C1799 1.429 . S
C1796 C1779 1.574 . S
C1796 H1790 0.949 . S
C1796 C1800 1.368 . S
C1797 C1778 1.429 . S
C1797 C1791 1.429 . S
C1797 C1798 1.523 . S
C1798 C1779 1.368 . S
C1798 C1792 1.368 . S
C1798 C1797 1.523 . S
C1799 C1783 1.429 . S
C1799 C1795 1.429 . S
C1799 C1800 1.523 . S
C1800 C1784 1.368 . S
C1800 C1796 1.368 . S
C1800 C1799 1.523 . S
H1801 C1776 0.950 . S
H1802 C1778 0.950 . S
H1803 C1779 0.949 . S
H1804 C1781 0.950 . S
H1805 C1783 0.950 . S
C1806 C1807 1.349 . S
C1806 C1808 1.327 1_556 S
C1806 H1831 0.950 1_556 S
C1807 C1806 1.349 . S
C1807 C1823 1.349 . S
C1808 C1806 1.327 1_554 S
C1808 C1827 1.429 1_554 S
C1808 H1832 0.950 . S
C1809 C1826 1.574 . S
C1809 C1828 1.368 . S
C1809 H1833 0.949 . S
H1810 C1814 0.949 . S
C1811 C1812 1.349 . S
C1811 C1813 1.327 1_554 S
C1811 H1834 0.950 1_554 S
C1812 C1811 1.349 . S
C1812 C1824 1.349 . S
C1813 C1811 1.327 1_556 S
C1813 C1829 1.429 1_556 S
C1813 H1835 0.950 . S
C1814 H1810 0.949 . S
C1814 C1822 1.574 . S
C1814 C1830 1.368 . S
H1815 C1823 0.950 . S
H1816 C1821 0.950 . S
H1817 C1822 0.949 . S
H1818 C1824 0.950 . S
H1819 C1825 0.950 . S
H1820 C1826 0.949 . S
C1821 H1816 0.950 . S
C1821 C1823 1.327 . S
C1821 C1827 1.429 . S
C1822 C1814 1.574 . S
C1822 H1817 0.949 . S
C1822 C1828 1.368 1_554 S
C1823 C1807 1.349 . S
C1823 H1815 0.950 . S
C1823 C1821 1.327 . S
C1824 C1812 1.349 . S
C1824 H1818 0.950 . S
C1824 C1825 1.327 . S
C1825 H1819 0.950 . S
C1825 C1824 1.327 . S
C1825 C1829 1.429 . S
C1826 C1809 1.574 . S
C1826 H1820 0.949 . S
C1826 C1830 1.368 1_556 S
C1827 C1808 1.429 1_556 S
C1827 C1821 1.429 . S
C1827 C1828 1.523 . S
C1828 C1809 1.368 . S
C1828 C1822 1.368 1_556 S
C1828 C1827 1.523 . S
C1829 C1813 1.429 1_554 S
C1829 C1825 1.429 . S
C1829 C1830 1.523 . S
C1830 C1814 1.368 . S
C1830 C1826 1.368 1_554 S
C1830 C1829 1.523 . S
H1831 C1806 0.950 1_554 S
H1832 C1808 0.950 . S
H1833 C1809 0.949 . S
H1834 C1811 0.950 1_556 S
H1835 C1813 0.950 . S
C1836 C1837 1.349 . S
C1836 C1838 1.327 . S
C1836 H1861 0.950 . S
C1837 C1836 1.349 . S
C1837 C1853 1.349 . S
C1838 C1836 1.327 . S
C1838 C1857 1.429 . S
C1838 H1862 0.950 . S
C1839 C1856 1.574 . S
C1839 C1858 1.368 . S
C1839 H1863 0.949 . S
H1840 C1844 0.949 . S
C1841 C1842 1.349 . S
C1841 C1843 1.327 . S
C1841 H1864 0.950 . S
C1842 C1841 1.349 . S
C1842 C1854 1.349 . S
C1843 C1841 1.327 . S
C1843 C1859 1.429 . S
C1843 H1865 0.950 . S
C1844 H1840 0.949 . S
C1844 C1852 1.574 . S
C1844 C1860 1.368 . S
H1845 C1853 0.950 . S
H1846 C1851 0.950 . S
H1847 C1852 0.949 . S
H1848 C1854 0.950 . S
H1849 C1855 0.950 . S
H1850 C1856 0.949 . S
C1851 H1846 0.950 . S
C1851 C1853 1.327 . S
C1851 C1857 1.429 . S
C1852 C1844 1.574 . S
C1852 H1847 0.949 . S
C1852 C1858 1.368 . S
C1853 C1837 1.349 . S
C1853 H1845 0.950 . S
C1853 C1851 1.327 . S
C1854 C1842 1.349 . S
C1854 H1848 0.950 . S
C1854 C1855 1.327 . S
C1855 H1849 0.950 . S
C1855 C1854 1.327 . S
C1855 C1859 1.429 . S
C1856 C1839 1.574 . S
C1856 H1850 0.949 . S
C1856 C1860 1.368 . S
C1857 C1838 1.429 . S
C1857 C1851 1.429 . S
C1857 C1858 1.523 . S
C1858 C1839 1.368 . S
C1858 C1852 1.368 . S
C1858 C1857 1.523 . S
C1859 C1843 1.429 . S
C1859 C1855 1.429 . S
C1859 C1860 1.523 . S
C1860 C1844 1.368 . S
C1860 C1856 1.368 . S
C1860 C1859 1.523 . S
H1861 C1836 0.950 . S
H1862 C1838 0.950 . S
H1863 C1839 0.949 . S
H1864 C1841 0.950 . S
H1865 C1843 0.950 . S
C1866 C1867 1.349 . S
C1866 C1868 1.327 . S
C1866 H1891 0.950 . S
C1867 C1866 1.349 . S
C1867 C1883 1.349 . S
C1868 C1866 1.327 . S
C1868 C1887 1.429 . S
C1868 H1892 0.950 . S
C1869 C1886 1.574 . S
C1869 C1888 1.368 . S
C1869 H1893 0.949 . S
H1870 C1874 0.949 . S
C1871 C1872 1.349 . S
C1871 C1873 1.327 . S
C1871 H1894 0.950 . S
C1872 C1871 1.349 . S
C1872 C1884 1.349 . S
C1873 C1871 1.327 . S
C1873 C1889 1.429 . S
C1873 H1895 0.950 . S
C1874 H1870 0.949 . S
C1874 C1882 1.574 . S
C1874 C1890 1.368 . S
H1875 C1883 0.950 . S
H1876 C1881 0.950 . S
H1877 C1882 0.949 . S
H1878 C1884 0.950 . S
H1879 C1885 0.950 . S
H1880 C1886 0.949 . S
C1881 H1876 0.950 . S
C1881 C1883 1.327 . S
C1881 C1887 1.429 . S
C1882 C1874 1.574 . S
C1882 H1877 0.949 . S
C1882 C1888 1.368 . S
C1883 C1867 1.349 . S
C1883 H1875 0.950 . S
C1883 C1881 1.327 . S
C1884 C1872 1.349 . S
C1884 H1878 0.950 . S
C1884 C1885 1.327 . S
C1885 H1879 0.950 . S
C1885 C1884 1.327 . S
C1885 C1889 1.429 . S
C1886 C1869 1.574 . S
C1886 H1880 0.949 . S
C1886 C1890 1.368 . S
C1887 C1868 1.429 . S
C1887 C1881 1.429 . S
C1887 C1888 1.523 . S
C1888 C1869 1.368 . S
C1888 C1882 1.368 . S
C1888 C1887 1.523 . S
C1889 C1873 1.429 . S
C1889 C1885 1.429 . S
C1889 C1890 1.523 . S
C1890 C1874 1.368 . S
C1890 C1886 1.368 . S
C1890 C1889 1.523 . S
H1891 C1866 0.950 . S
H1892 C1868 0.950 . S
H1893 C1869 0.949 . S
H1894 C1871 0.950 . S
H1895 C1873 0.950 . S
C1896 C1897 1.349 . S
C1896 C1898 1.327 . S
C1896 H1921 0.950 . S
C1897 C1896 1.349 . S
C1897 C1913 1.349 . S
C1898 C1896 1.327 . S
C1898 C1917 1.429 . S
C1898 H1922 0.950 . S
C1899 C1916 1.574 . S
C1899 C1918 1.368 . S
C1899 H1923 0.949 . S
H1900 C1904 0.949 . S
C1901 C1902 1.349 . S
C1901 C1903 1.327 . S
C1901 H1924 0.950 . S
C1902 C1901 1.349 . S
C1902 C1914 1.349 . S
C1903 C1901 1.327 . S
C1903 C1919 1.429 . S
C1903 H1925 0.950 . S
C1904 H1900 0.949 . S
C1904 C1912 1.574 . S
C1904 C1920 1.368 . S
H1905 C1913 0.950 . S
H1906 C1911 0.950 . S
H1907 C1912 0.949 . S
H1908 C1914 0.950 . S
H1909 C1915 0.950 . S
H1910 C1916 0.949 . S
C1911 H1906 0.950 . S
C1911 C1913 1.327 . S
C1911 C1917 1.429 . S
C1912 C1904 1.574 . S
C1912 H1907 0.949 . S
C1912 C1918 1.368 . S
C1913 C1897 1.349 . S
C1913 H1905 0.950 . S
C1913 C1911 1.327 . S
C1914 C1902 1.349 . S
C1914 H1908 0.950 . S
C1914 C1915 1.327 . S
C1915 H1909 0.950 . S
C1915 C1914 1.327 . S
C1915 C1919 1.429 . S
C1916 C1899 1.574 . S
C1916 H1910 0.949 . S
C1916 C1920 1.368 . S
C1917 C1898 1.429 . S
C1917 C1911 1.429 . S
C1917 C1918 1.523 . S
C1918 C1899 1.368 . S
C1918 C1912 1.368 . S
C1918 C1917 1.523 . S
C1919 C1903 1.429 . S
C1919 C1915 1.429 . S
C1919 C1920 1.523 . S
C1920 C1904 1.368 . S
C1920 C1916 1.368 . S
C1920 C1919 1.523 . S
H1921 C1896 0.950 . S
H1922 C1898 0.950 . S
H1923 C1899 0.949 . S
H1924 C1901 0.950 . S
H1925 C1903 0.950 . S
C1926 C1927 1.349 . S
C1926 C1928 1.327 1_556 S
C1926 H1951 0.950 1_556 S
C1927 C1926 1.349 . S
C1927 C1943 1.349 . S
C1928 C1926 1.327 1_554 S
C1928 C1947 1.429 1_554 S
C1928 H1952 0.950 . S
C1929 C1946 1.574 . S
C1929 C1948 1.368 . S
C1929 H1953 0.949 . S
H1930 C1934 0.949 . S
C1931 C1932 1.349 . S
C1931 C1933 1.327 1_554 S
C1931 H1954 0.950 1_554 S
C1932 C1931 1.349 . S
C1932 C1944 1.349 . S
C1933 C1931 1.327 1_556 S
C1933 C1949 1.429 1_556 S
C1933 H1955 0.950 . S
C1934 H1930 0.949 . S
C1934 C1942 1.574 . S
C1934 C1950 1.368 . S
H1935 C1943 0.950 . S
H1936 C1941 0.950 . S
H1937 C1942 0.949 . S
H1938 C1944 0.950 . S
H1939 C1945 0.950 . S
H1940 C1946 0.949 . S
C1941 H1936 0.950 . S
C1941 C1943 1.327 . S
C1941 C1947 1.429 . S
C1942 C1934 1.574 . S
C1942 H1937 0.949 . S
C1942 C1948 1.368 1_554 S
C1943 C1927 1.349 . S
C1943 H1935 0.950 . S
C1943 C1941 1.327 . S
C1944 C1932 1.349 . S
C1944 H1938 0.950 . S
C1944 C1945 1.327 . S
C1945 H1939 0.950 . S
C1945 C1944 1.327 . S
C1945 C1949 1.429 . S
C1946 C1929 1.574 . S
C1946 H1940 0.949 . S
C1946 C1950 1.368 1_556 S
C1947 C1928 1.429 1_556 S
C1947 C1941 1.429 . S
C1947 C1948 1.523 . S
C1948 C1929 1.368 . S
C1948 C1942 1.368 1_556 S
C1948 C1947 1.523 . S
C1949 C1933 1.429 1_554 S
C1949 C1945 1.429 . S
C1949 C1950 1.523 . S
C1950 C1934 1.368 . S
C1950 C1946 1.368 1_554 S
C1950 C1949 1.523 . S
H1951 C1926 0.950 1_554 S
H1952 C1928 0.950 . S
H1953 C1929 0.949 . S
H1954 C1931 0.950 1_556 S
H1955 C1933 0.950 . S
C1956 C1957 1.349 . S
C1956 C1958 1.327 . S
C1956 H1981 0.950 . S
C1957 C1956 1.349 . S
C1957 C1973 1.349 . S
C1958 C1956 1.327 . S
C1958 C1977 1.429 . S
C1958 H1982 0.950 . S
C1959 C1976 1.574 . S
C1959 C1978 1.368 . S
C1959 H1983 0.949 . S
H1960 C1964 0.949 . S
C1961 C1962 1.349 . S
C1961 C1963 1.327 . S
C1961 H1984 0.950 . S
C1962 C1961 1.349 . S
C1962 C1974 1.349 . S
C1963 C1961 1.327 . S
C1963 C1979 1.429 . S
C1963 H1985 0.950 . S
C1964 H1960 0.949 . S
C1964 C1972 1.574 . S
C1964 C1980 1.368 . S
H1965 C1973 0.950 . S
H1966 C1971 0.950 . S
H1967 C1972 0.949 . S
H1968 C1974 0.950 . S
H1969 C1975 0.950 . S
H1970 C1976 0.949 . S
C1971 H1966 0.950 . S
C1971 C1973 1.327 . S
C1971 C1977 1.429 . S
C1972 C1964 1.574 . S
C1972 H1967 0.949 . S
C1972 C1978 1.368 . S
C1973 C1957 1.349 . S
C1973 H1965 0.950 . S
C1973 C1971 1.327 . S
C1974 C1962 1.349 . S
C1974 H1968 0.950 . S
C1974 C1975 1.327 . S
C1975 H1969 0.950 . S
C1975 C1974 1.327 . S
C1975 C1979 1.429 . S
C1976 C1959 1.574 . S
C1976 H1970 0.949 . S
C1976 C1980 1.368 . S
C1977 C1958 1.429 . S
C1977 C1971 1.429 . S
C1977 C1978 1.523 . S
C1978 C1959 1.368 . S
C1978 C1972 1.368 . S
C1978 C1977 1.523 . S
C1979 C1963 1.429 . S
C1979 C1975 1.429 . S
C1979 C1980 1.523 . S
C1980 C1964 1.368 . S
C1980 C1976 1.368 . S
C1980 C1979 1.523 . S
H1981 C1956 0.950 . S
H1982 C1958 0.950 . S
H1983 C1959 0.949 . S
H1984 C1961 0.950 . S
H1985 C1963 0.950 . S
C1986 C1987 1.349 . S
C1986 C1988 1.327 . S
C1986 H2011 0.950 . S
C1987 C1986 1.349 . S
C1987 C2003 1.349 . S
C1988 C1986 1.327 . S
C1988 C2007 1.429 . S
C1988 H2012 0.950 . S
C1989 C2006 1.574 . S
C1989 C2008 1.368 . S
C1989 H2013 0.949 . S
H1990 C1994 0.949 . S
C1991 C1992 1.349 . S
C1991 C1993 1.327 . S
C1991 H2014 0.950 . S
C1992 C1991 1.349 . S
C1992 C2004 1.349 . S
C1993 C1991 1.327 . S
C1993 C2009 1.429 . S
C1993 H2015 0.950 . S
C1994 H1990 0.949 . S
C1994 C2002 1.574 . S
C1994 C2010 1.368 . S
H1995 C2003 0.950 . S
H1996 C2001 0.950 . S
H1997 C2002 0.949 . S
H1998 C2004 0.950 . S
H1999 C2005 0.950 . S
H2000 C2006 0.949 . S
C2001 H1996 0.950 . S
C2001 C2003 1.327 . S
C2001 C2007 1.429 . S
C2002 C1994 1.574 . S
C2002 H1997 0.949 . S
C2002 C2008 1.368 . S
C2003 C1987 1.349 . S
C2003 H1995 0.950 . S
C2003 C2001 1.327 . S
C2004 C1992 1.349 . S
C2004 H1998 0.950 . S
C2004 C2005 1.327 . S
C2005 H1999 0.950 . S
C2005 C2004 1.327 . S
C2005 C2009 1.429 . S
C2006 C1989 1.574 . S
C2006 H2000 0.949 . S
C2006 C2010 1.368 . S
C2007 C1988 1.429 . S
C2007 C2001 1.429 . S
C2007 C2008 1.523 . S
C2008 C1989 1.368 . S
C2008 C2002 1.368 . S
C2008 C2007 1.523 . S
C2009 C1993 1.429 . S
C2009 C2005 1.429 . S
C2009 C2010 1.523 . S
C2010 C1994 1.368 . S
C2010 C2006 1.368 . S
C2010 C2009 1.523 . S
H2011 C1986 0.950 . S
H2012 C1988 0.950 . S
H2013 C1989 0.949 . S
H2014 C1991 0.950 . S
H2015 C1993 0.950 . S
C2016 C2017 1.349 . S
C2016 C2018 1.327 . S
C2016 H2041 0.950 . S
C2017 C2016 1.349 . S
C2017 C2033 1.349 . S
C2018 C2016 1.327 . S
C2018 C2037 1.429 . S
C2018 H2042 0.986 . S
C2019 C2036 1.574 . S
C2019 C2038 1.368 . S
C2019 H2043 0.949 . S
H2020 C2024 0.949 . S
C2021 C2022 1.349 . S
C2021 C2023 1.327 . S
C2021 H2044 0.950 . S
C2022 C2021 1.349 . S
C2022 C2034 1.349 . S
C2023 C2021 1.327 . S
C2023 C2039 1.429 . S
C2023 H2045 0.986 . S
C2024 H2020 0.949 . S
C2024 C2032 1.574 . S
C2024 C2040 1.368 . S
H2025 C2033 0.950 . S
H2026 C2031 0.950 . S
H2027 C2032 0.949 . S
H2028 C2034 0.950 . S
H2029 C2035 0.950 . S
H2030 C2036 0.949 . S
C2031 H2026 0.950 . S
C2031 C2033 1.327 . S
C2031 C2037 1.429 . S
C2032 C2024 1.574 . S
C2032 H2027 0.949 . S
C2032 C2038 1.368 1_455 S
C2033 C2017 1.349 . S
C2033 H2025 0.950 . S
C2033 C2031 1.327 . S
C2034 C2022 1.349 . S
C2034 H2028 0.950 . S
C2034 C2035 1.327 . S
C2035 H2029 0.950 . S
C2035 C2034 1.327 . S
C2035 C2039 1.429 . S
C2036 C2019 1.574 . S
C2036 H2030 0.949 . S
C2036 C2040 1.368 1_655 S
C2037 C2018 1.429 . S
C2037 C2031 1.429 . S
C2037 C2038 1.523 . S
C2038 C2019 1.368 . S
C2038 C2032 1.368 1_655 S
C2038 C2037 1.523 . S
C2039 C2023 1.429 . S
C2039 C2035 1.429 . S
C2039 C2040 1.523 . S
C2040 C2024 1.368 . S
C2040 C2036 1.368 1_455 S
C2040 C2039 1.523 . S
H2041 C2016 0.950 . S
H2042 C2018 0.986 . S
H2043 C2019 0.949 . S
H2044 C2021 0.950 . S
H2045 C2023 0.986 . S
C2046 C2047 1.349 . S
C2046 C2048 1.327 . S
C2046 H2071 0.950 . S
C2047 C2046 1.349 . S
C2047 C2063 1.349 . S
C2048 C2046 1.327 . S
C2048 C2067 1.429 . S
C2048 H2072 0.950 . S
C2049 C2066 1.574 1_455 S
C2049 C2068 1.368 . S
C2049 H2073 0.949 . S
H2050 C2054 0.949 . S
C2051 C2052 1.349 . S
C2051 C2053 1.327 . S
C2051 H2074 0.950 . S
C2052 C2051 1.349 . S
C2052 C2064 1.349 . S
C2053 C2051 1.327 . S
C2053 C2069 1.429 . S
C2053 H2075 0.950 . S
C2054 H2050 0.949 . S
C2054 C2062 1.574 1_655 S
C2054 C2070 1.368 . S
H2055 C2063 0.950 . S
H2056 C2061 0.950 . S
H2057 C2062 0.949 . S
H2058 C2064 0.950 . S
H2059 C2065 0.950 . S
H2060 C2066 0.949 . S
C2061 H2056 0.950 . S
C2061 C2063 1.327 . S
C2061 C2067 1.429 . S
C2062 C2054 1.574 1_455 S
C2062 H2057 0.949 . S
C2062 C2068 1.368 . S
C2063 C2047 1.349 . S
C2063 H2055 0.950 . S
C2063 C2061 1.327 . S
C2064 C2052 1.349 . S
C2064 H2058 0.950 . S
C2064 C2065 1.327 . S
C2065 H2059 0.950 . S
C2065 C2064 1.327 . S
C2065 C2069 1.429 . S
C2066 C2049 1.574 1_655 S
C2066 H2060 0.949 . S
C2066 C2070 1.368 . S
C2067 C2048 1.429 . S
C2067 C2061 1.429 . S
C2067 C2068 1.523 . S
C2068 C2049 1.368 . S
C2068 C2062 1.368 . S
C2068 C2067 1.523 . S
C2069 C2053 1.429 . S
C2069 C2065 1.429 . S
C2069 C2070 1.523 . S
C2070 C2054 1.368 . S
C2070 C2066 1.368 . S
C2070 C2069 1.523 . S
H2071 C2046 0.950 . S
H2072 C2048 0.950 . S
H2073 C2049 0.949 . S
H2074 C2051 0.950 . S
H2075 C2053 0.950 . S
C2076 C2077 1.349 . S
C2076 C2078 1.327 . S
C2076 H2101 0.950 . S
C2077 C2076 1.349 . S
C2077 C2093 1.349 . S
C2078 C2076 1.327 . S
C2078 C2097 1.429 . S
C2078 H2102 0.950 . S
C2079 C2096 1.574 . S
C2079 C2098 1.368 . S
C2079 H2103 0.949 . S
H2080 C2084 0.949 . S
C2081 C2082 1.349 . S
C2081 C2083 1.327 . S
C2081 H2104 0.950 . S
C2082 C2081 1.349 . S
C2082 C2094 1.349 . S
C2083 C2081 1.327 . S
C2083 C2099 1.429 . S
C2083 H2105 0.950 . S
C2084 H2080 0.949 . S
C2084 C2092 1.574 . S
C2084 C2100 1.368 . S
H2085 C2093 0.950 . S
H2086 C2091 0.950 . S
H2087 C2092 0.949 . S
H2088 C2094 0.950 . S
H2089 C2095 0.950 . S
H2090 C2096 0.949 . S
C2091 H2086 0.950 . S
C2091 C2093 1.327 . S
C2091 C2097 1.429 . S
C2092 C2084 1.574 . S
C2092 H2087 0.949 . S
C2092 C2098 1.368 . S
C2093 C2077 1.349 . S
C2093 H2085 0.950 . S
C2093 C2091 1.327 . S
C2094 C2082 1.349 . S
C2094 H2088 0.950 . S
C2094 C2095 1.327 . S
C2095 H2089 0.950 . S
C2095 C2094 1.327 . S
C2095 C2099 1.429 . S
C2096 C2079 1.574 . S
C2096 H2090 0.949 . S
C2096 C2100 1.368 . S
C2097 C2078 1.429 . S
C2097 C2091 1.429 . S
C2097 C2098 1.523 . S
C2098 C2079 1.368 . S
C2098 C2092 1.368 . S
C2098 C2097 1.523 . S
C2099 C2083 1.429 . S
C2099 C2095 1.429 . S
C2099 C2100 1.523 . S
C2100 C2084 1.368 . S
C2100 C2096 1.368 . S
C2100 C2099 1.523 . S
H2101 C2076 0.950 . S
H2102 C2078 0.950 . S
H2103 C2079 0.949 . S
H2104 C2081 0.950 . S
H2105 C2083 0.950 . S
C2106 C2107 1.349 . S
C2106 C2108 1.327 . S
C2106 H2131 0.950 1_554 S
C2107 C2106 1.349 . S
C2107 C2123 1.349 . S
C2108 C2106 1.327 . S
C2108 C2127 1.429 . S
C2108 H2132 0.950 1_554 S
C2109 C2126 1.574 . S
C2109 C2128 1.368 . S
C2109 H2133 0.949 . S
H2110 C2114 0.906 1_556 S
C2111 C2112 1.349 . S
C2111 C2113 1.327 . S
C2111 H2134 0.950 . S
C2112 C2111 1.349 . S
C2112 C2124 1.349 . S
C2113 C2111 1.327 . S
C2113 C2129 1.429 . S
C2113 H2135 0.950 . S
C2114 H2110 0.906 1_554 S
C2114 C2122 1.574 . S
C2114 C2130 1.418 . S
H2115 C2123 0.950 . S
H2116 C2121 0.950 . S
H2117 C2122 0.906 1_556 S
H2118 C2124 0.950 1_556 S
H2119 C2125 0.950 1_556 S
H2120 C2126 0.949 . S
C2121 H2116 0.950 . S
C2121 C2123 1.327 . S
C2121 C2127 1.429 . S
C2122 C2114 1.574 . S
C2122 H2117 0.906 1_554 S
C2122 C2128 1.418 . S
C2123 C2107 1.349 . S
C2123 H2115 0.950 . S
C2123 C2121 1.327 . S
C2124 C2112 1.349 . S
C2124 H2118 0.950 1_554 S
C2124 C2125 1.327 . S
C2125 H2119 0.950 1_554 S
C2125 C2124 1.327 . S
C2125 C2129 1.429 . S
C2126 C2109 1.574 . S
C2126 H2120 0.949 . S
C2126 C2130 1.368 . S
C2127 C2108 1.429 . S
C2127 C2121 1.429 . S
C2127 C2128 1.523 . S
C2128 C2109 1.368 . S
C2128 C2122 1.418 . S
C2128 C2127 1.523 . S
C2129 C2113 1.429 . S
C2129 C2125 1.429 . S
C2129 C2130 1.523 . S
C2130 C2114 1.418 . S
C2130 C2126 1.368 . S
C2130 C2129 1.523 . S
H2131 C2106 0.950 1_556 S
H2132 C2108 0.950 1_556 S
H2133 C2109 0.949 . S
H2134 C2111 0.950 . S
H2135 C2113 0.950 . S
C2136 C2137 1.349 . S
C2136 C2138 1.327 . S
C2136 H2161 0.950 . S
C2137 C2136 1.349 . S
C2137 C2153 1.349 . S
C2138 C2136 1.327 . S
C2138 C2157 1.429 . S
C2138 H2162 0.986 . S
C2139 C2156 1.574 . S
C2139 C2158 1.368 . S
C2139 H2163 0.949 . S
H2140 C2144 0.949 . S
C2141 C2142 1.349 . S
C2141 C2143 1.327 . S
C2141 H2164 0.950 . S
C2142 C2141 1.349 . S
C2142 C2154 1.349 . S
C2143 C2141 1.327 . S
C2143 C2159 1.429 . S
C2143 H2165 0.986 . S
C2144 H2140 0.949 . S
C2144 C2152 1.574 . S
C2144 C2160 1.368 . S
H2145 C2153 0.950 . S
H2146 C2151 0.950 . S
H2147 C2152 0.949 . S
H2148 C2154 0.950 . S
H2149 C2155 0.950 . S
H2150 C2156 0.949 . S
C2151 H2146 0.950 . S
C2151 C2153 1.327 . S
C2151 C2157 1.429 . S
C2152 C2144 1.574 . S
C2152 H2147 0.949 . S
C2152 C2158 1.368 1_455 S
C2153 C2137 1.349 . S
C2153 H2145 0.950 . S
C2153 C2151 1.327 . S
C2154 C2142 1.349 . S
C2154 H2148 0.950 . S
C2154 C2155 1.327 . S
C2155 H2149 0.950 . S
C2155 C2154 1.327 . S
C2155 C2159 1.429 . S
C2156 C2139 1.574 . S
C2156 H2150 0.949 . S
C2156 C2160 1.368 1_655 S
C2157 C2138 1.429 . S
C2157 C2151 1.429 . S
C2157 C2158 1.523 . S
C2158 C2139 1.368 . S
C2158 C2152 1.368 1_655 S
C2158 C2157 1.523 . S
C2159 C2143 1.429 . S
C2159 C2155 1.429 . S
C2159 C2160 1.523 . S
C2160 C2144 1.368 . S
C2160 C2156 1.368 1_455 S
C2160 C2159 1.523 . S
H2161 C2136 0.950 . S
H2162 C2138 0.986 . S
H2163 C2139 0.949 . S
H2164 C2141 0.950 . S
H2165 C2143 0.986 . S
C2166 C2167 1.349 . S
C2166 C2168 1.327 . S
C2166 H2191 0.950 . S
C2167 C2166 1.349 . S
C2167 C2183 1.349 . S
C2168 C2166 1.327 . S
C2168 C2187 1.429 . S
C2168 H2192 0.950 . S
C2169 C2186 1.574 . S
C2169 C2188 1.368 . S
C2169 H2193 0.949 . S
H2170 C2174 0.949 . S
C2171 C2172 1.349 . S
C2171 C2173 1.327 . S
C2171 H2194 0.950 . S
C2172 C2171 1.349 . S
C2172 C2184 1.349 . S
C2173 C2171 1.327 . S
C2173 C2189 1.429 . S
C2173 H2195 0.950 . S
C2174 H2170 0.949 . S
C2174 C2182 1.574 . S
C2174 C2190 1.368 . S
H2175 C2183 0.950 . S
H2176 C2181 0.950 . S
H2177 C2182 0.949 . S
H2178 C2184 0.950 . S
H2179 C2185 0.950 . S
H2180 C2186 0.949 . S
C2181 H2176 0.950 . S
C2181 C2183 1.327 . S
C2181 C2187 1.429 . S
C2182 C2174 1.574 . S
C2182 H2177 0.949 . S
C2182 C2188 1.368 . S
C2183 C2167 1.349 . S
C2183 H2175 0.950 . S
C2183 C2181 1.327 . S
C2184 C2172 1.349 . S
C2184 H2178 0.950 . S
C2184 C2185 1.327 . S
C2185 H2179 0.950 . S
C2185 C2184 1.327 . S
C2185 C2189 1.429 . S
C2186 C2169 1.574 . S
C2186 H2180 0.949 . S
C2186 C2190 1.368 . S
C2187 C2168 1.429 . S
C2187 C2181 1.429 . S
C2187 C2188 1.523 . S
C2188 C2169 1.368 . S
C2188 C2182 1.368 . S
C2188 C2187 1.523 . S
C2189 C2173 1.429 . S
C2189 C2185 1.429 . S
C2189 C2190 1.523 . S
C2190 C2174 1.368 . S
C2190 C2186 1.368 . S
C2190 C2189 1.523 . S
H2191 C2166 0.950 . S
H2192 C2168 0.950 . S
H2193 C2169 0.949 . S
H2194 C2171 0.950 . S
H2195 C2173 0.950 . S
C2196 C2197 1.349 . S
C2196 C2198 1.327 . S
C2196 H2221 0.950 . S
C2197 C2196 1.349 . S
C2197 C2213 1.349 . S
C2198 C2196 1.327 . S
C2198 C2217 1.429 . S
C2198 H2222 0.950 . S
C2199 C2216 1.574 . S
C2199 C2218 1.368 . S
C2199 H2223 0.949 . S
H2200 C2204 0.949 . S
C2201 C2202 1.349 . S
C2201 C2203 1.327 . S
C2201 H2224 0.950 . S
C2202 C2201 1.349 . S
C2202 C2214 1.349 . S
C2203 C2201 1.327 . S
C2203 C2219 1.429 . S
C2203 H2225 0.950 . S
C2204 H2200 0.949 . S
C2204 C2212 1.574 . S
C2204 C2220 1.368 . S
H2205 C2213 0.950 . S
H2206 C2211 0.950 . S
H2207 C2212 0.949 . S
H2208 C2214 0.950 . S
H2209 C2215 0.950 . S
H2210 C2216 0.949 . S
C2211 H2206 0.950 . S
C2211 C2213 1.327 . S
C2211 C2217 1.429 . S
C2212 C2204 1.574 . S
C2212 H2207 0.949 . S
C2212 C2218 1.368 . S
C2213 C2197 1.349 . S
C2213 H2205 0.950 . S
C2213 C2211 1.327 . S
C2214 C2202 1.349 . S
C2214 H2208 0.950 . S
C2214 C2215 1.327 . S
C2215 H2209 0.950 . S
C2215 C2214 1.327 . S
C2215 C2219 1.429 . S
C2216 C2199 1.574 . S
C2216 H2210 0.949 . S
C2216 C2220 1.368 . S
C2217 C2198 1.429 . S
C2217 C2211 1.429 . S
C2217 C2218 1.523 . S
C2218 C2199 1.368 . S
C2218 C2212 1.368 . S
C2218 C2217 1.523 . S
C2219 C2203 1.429 . S
C2219 C2215 1.429 . S
C2219 C2220 1.523 . S
C2220 C2204 1.368 . S
C2220 C2216 1.368 . S
C2220 C2219 1.523 . S
H2221 C2196 0.950 . S
H2222 C2198 0.950 . S
H2223 C2199 0.949 . S
H2224 C2201 0.950 . S
H2225 C2203 0.950 . S
C2226 C2227 1.349 . S
C2226 C2228 1.327 . S
C2226 H2251 0.950 . S
C2227 C2226 1.349 . S
C2227 C2243 1.349 . S
C2228 C2226 1.327 . S
C2228 C2247 1.429 . S
C2228 H2252 0.950 . S
C2229 C2246 1.574 1_455 S
C2229 C2248 1.418 . S
C2229 H2253 0.906 1_556 S
H2230 C2234 0.949 . S
C2231 C2232 1.349 . S
C2231 C2233 1.327 . S
C2231 H2254 0.950 1_556 S
C2232 C2231 1.349 . S
C2232 C2244 1.349 . S
C2233 C2231 1.327 . S
C2233 C2249 1.429 . S
C2233 H2255 0.950 1_556 S
C2234 H2230 0.949 . S
C2234 C2242 1.574 1_655 S
C2234 C2250 1.368 . S
H2235 C2243 0.950 1_554 S
H2236 C2241 0.950 1_554 S
H2237 C2242 0.949 . S
H2238 C2244 0.950 . S
H2239 C2245 0.950 . S
H2240 C2246 0.906 1_554 S
C2241 H2236 0.950 1_556 S
C2241 C2243 1.327 . S
C2241 C2247 1.429 . S
C2242 C2234 1.574 1_455 S
C2242 H2237 0.949 . S
C2242 C2248 1.368 . S
C2243 C2227 1.349 . S
C2243 H2235 0.950 1_556 S
C2243 C2241 1.327 . S
C2244 C2232 1.349 . S
C2244 H2238 0.950 . S
C2244 C2245 1.327 . S
C2245 H2239 0.950 . S
C2245 C2244 1.327 . S
C2245 C2249 1.429 . S
C2246 C2229 1.574 1_655 S
C2246 H2240 0.906 1_556 S
C2246 C2250 1.418 . S
C2247 C2228 1.429 . S
C2247 C2241 1.429 . S
C2247 C2248 1.523 . S
C2248 C2229 1.418 . S
C2248 C2242 1.368 . S
C2248 C2247 1.523 . S
C2249 C2233 1.429 . S
C2249 C2245 1.429 . S
C2249 C2250 1.523 . S
C2250 C2234 1.368 . S
C2250 C2246 1.418 . S
C2250 C2249 1.523 . S
H2251 C2226 0.950 . S
H2252 C2228 0.950 . S
H2253 C2229 0.906 1_554 S
H2254 C2231 0.950 1_554 S
H2255 C2233 0.950 1_554 S
C2256 C2257 1.349 . S
C2256 C2258 1.327 . S
C2256 H2281 0.950 . S
C2257 C2256 1.349 . S
C2257 C2273 1.349 . S
C2258 C2256 1.327 . S
C2258 C2277 1.429 . S
C2258 H2282 0.986 . S
C2259 C2276 1.574 . S
C2259 C2278 1.368 . S
C2259 H2283 0.949 . S
H2260 C2264 0.949 . S
C2261 C2262 1.349 . S
C2261 C2263 1.327 . S
C2261 H2284 0.950 . S
C2262 C2261 1.349 . S
C2262 C2274 1.349 . S
C2263 C2261 1.327 . S
C2263 C2279 1.429 . S
C2263 H2285 0.986 . S
C2264 H2260 0.949 . S
C2264 C2272 1.574 . S
C2264 C2280 1.368 . S
H2265 C2273 0.950 . S
H2266 C2271 0.950 . S
H2267 C2272 0.949 . S
H2268 C2274 0.950 . S
H2269 C2275 0.950 . S
H2270 C2276 0.949 . S
C2271 H2266 0.950 . S
C2271 C2273 1.327 . S
C2271 C2277 1.429 . S
C2272 C2264 1.574 . S
C2272 H2267 0.949 . S
C2272 C2278 1.368 1_455 S
C2273 C2257 1.349 . S
C2273 H2265 0.950 . S
C2273 C2271 1.327 . S
C2274 C2262 1.349 . S
C2274 H2268 0.950 . S
C2274 C2275 1.327 . S
C2275 H2269 0.950 . S
C2275 C2274 1.327 . S
C2275 C2279 1.429 . S
C2276 C2259 1.574 . S
C2276 H2270 0.949 . S
C2276 C2280 1.368 1_655 S
C2277 C2258 1.429 . S
C2277 C2271 1.429 . S
C2277 C2278 1.523 . S
C2278 C2259 1.368 . S
C2278 C2272 1.368 1_655 S
C2278 C2277 1.523 . S
C2279 C2263 1.429 . S
C2279 C2275 1.429 . S
C2279 C2280 1.523 . S
C2280 C2264 1.368 . S
C2280 C2276 1.368 1_455 S
C2280 C2279 1.523 . S
H2281 C2256 0.950 . S
H2282 C2258 0.986 . S
H2283 C2259 0.949 . S
H2284 C2261 0.950 . S
H2285 C2263 0.986 . S
C2286 C2287 1.349 . S
C2286 C2288 1.327 . S
C2286 H2311 0.950 . S
C2287 C2286 1.349 . S
C2287 C2303 1.349 . S
C2288 C2286 1.327 . S
C2288 C2307 1.429 . S
C2288 H2312 0.950 . S
C2289 C2306 1.574 1_655 S
C2289 C2308 1.368 . S
C2289 H2313 0.949 . S
H2290 C2294 0.949 . S
C2291 C2292 1.349 . S
C2291 C2293 1.327 . S
C2291 H2314 0.950 . S
C2292 C2291 1.349 . S
C2292 C2304 1.349 . S
C2293 C2291 1.327 . S
C2293 C2309 1.429 . S
C2293 H2315 0.950 . S
C2294 H2290 0.949 . S
C2294 C2302 1.574 1_455 S
C2294 C2310 1.368 . S
H2295 C2303 0.950 . S
H2296 C2301 0.950 . S
H2297 C2302 0.949 . S
H2298 C2304 0.950 . S
H2299 C2305 0.950 . S
H2300 C2306 0.949 . S
C2301 H2296 0.950 . S
C2301 C2303 1.327 . S
C2301 C2307 1.429 . S
C2302 C2294 1.574 1_655 S
C2302 H2297 0.949 . S
C2302 C2308 1.368 . S
C2303 C2287 1.349 . S
C2303 H2295 0.950 . S
C2303 C2301 1.327 . S
C2304 C2292 1.349 . S
C2304 H2298 0.950 . S
C2304 C2305 1.327 . S
C2305 H2299 0.950 . S
C2305 C2304 1.327 . S
C2305 C2309 1.429 . S
C2306 C2289 1.574 1_455 S
C2306 H2300 0.949 . S
C2306 C2310 1.368 . S
C2307 C2288 1.429 . S
C2307 C2301 1.429 . S
C2307 C2308 1.523 . S
C2308 C2289 1.368 . S
C2308 C2302 1.368 . S
C2308 C2307 1.523 . S
C2309 C2293 1.429 . S
C2309 C2305 1.429 . S
C2309 C2310 1.523 . S
C2310 C2294 1.368 . S
C2310 C2306 1.368 . S
C2310 C2309 1.523 . S
H2311 C2286 0.950 . S
H2312 C2288 0.950 . S
H2313 C2289 0.949 . S
H2314 C2291 0.950 . S
H2315 C2293 0.950 . S
C2316 C2317 1.349 . S
C2316 C2318 1.327 . S
C2316 H2341 0.950 . S
C2317 C2316 1.349 . S
C2317 C2333 1.349 . S
C2318 C2316 1.327 . S
C2318 C2337 1.429 . S
C2318 H2342 0.950 . S
C2319 C2336 1.574 . S
C2319 C2338 1.368 . S
C2319 H2343 0.949 . S
H2320 C2324 0.949 . S
C2321 C2322 1.349 . S
C2321 C2323 1.327 . S
C2321 H2344 0.950 . S
C2322 C2321 1.349 . S
C2322 C2334 1.349 . S
C2323 C2321 1.327 . S
C2323 C2339 1.429 . S
C2323 H2345 0.950 . S
C2324 H2320 0.949 . S
C2324 C2332 1.574 . S
C2324 C2340 1.368 . S
H2325 C2333 0.950 . S
H2326 C2331 0.950 . S
H2327 C2332 0.949 . S
H2328 C2334 0.950 . S
H2329 C2335 0.950 . S
H2330 C2336 0.949 . S
C2331 H2326 0.950 . S
C2331 C2333 1.327 . S
C2331 C2337 1.429 . S
C2332 C2324 1.574 . S
C2332 H2327 0.949 . S
C2332 C2338 1.368 . S
C2333 C2317 1.349 . S
C2333 H2325 0.950 . S
C2333 C2331 1.327 . S
C2334 C2322 1.349 . S
C2334 H2328 0.950 . S
C2334 C2335 1.327 . S
C2335 H2329 0.950 . S
C2335 C2334 1.327 . S
C2335 C2339 1.429 . S
C2336 C2319 1.574 . S
C2336 H2330 0.949 . S
C2336 C2340 1.368 . S
C2337 C2318 1.429 . S
C2337 C2331 1.429 . S
C2337 C2338 1.523 . S
C2338 C2319 1.368 . S
C2338 C2332 1.368 . S
C2338 C2337 1.523 . S
C2339 C2323 1.429 . S
C2339 C2335 1.429 . S
C2339 C2340 1.523 . S
C2340 C2324 1.368 . S
C2340 C2336 1.368 . S
C2340 C2339 1.523 . S
H2341 C2316 0.950 . S
H2342 C2318 0.950 . S
H2343 C2319 0.949 . S
H2344 C2321 0.950 . S
H2345 C2323 0.950 . S
C2346 C2347 1.349 . S
C2346 C2348 1.327 . S
C2346 H2371 0.950 . S
C2347 C2346 1.349 . S
C2347 C2363 1.349 . S
C2348 C2346 1.327 . S
C2348 C2367 1.429 . S
C2348 H2372 0.950 . S
C2349 C2366 1.574 . S
C2349 C2368 1.418 . S
C2349 H2373 0.906 1_556 S
H2350 C2354 0.949 . S
C2351 C2352 1.349 . S
C2351 C2353 1.327 . S
C2351 H2374 0.950 1_556 S
C2352 C2351 1.349 . S
C2352 C2364 1.349 . S
C2353 C2351 1.327 . S
C2353 C2369 1.429 . S
C2353 H2375 0.950 1_556 S
C2354 H2350 0.949 . S
C2354 C2362 1.574 . S
C2354 C2370 1.368 . S
H2355 C2363 0.950 1_554 S
H2356 C2361 0.950 1_554 S
H2357 C2362 0.949 . S
H2358 C2364 0.950 . S
H2359 C2365 0.950 . S
H2360 C2366 0.906 1_554 S
C2361 H2356 0.950 1_556 S
C2361 C2363 1.327 . S
C2361 C2367 1.429 . S
C2362 C2354 1.574 . S
C2362 H2357 0.949 . S
C2362 C2368 1.368 . S
C2363 C2347 1.349 . S
C2363 H2355 0.950 1_556 S
C2363 C2361 1.327 . S
C2364 C2352 1.349 . S
C2364 H2358 0.950 . S
C2364 C2365 1.327 . S
C2365 H2359 0.950 . S
C2365 C2364 1.327 . S
C2365 C2369 1.429 . S
C2366 C2349 1.574 . S
C2366 H2360 0.906 1_556 S
C2366 C2370 1.418 . S
C2367 C2348 1.429 . S
C2367 C2361 1.429 . S
C2367 C2368 1.523 . S
C2368 C2349 1.418 . S
C2368 C2362 1.368 . S
C2368 C2367 1.523 . S
C2369 C2353 1.429 . S
C2369 C2365 1.429 . S
C2369 C2370 1.523 . S
C2370 C2354 1.368 . S
C2370 C2366 1.418 . S
C2370 C2369 1.523 . S
H2371 C2346 0.950 . S
H2372 C2348 0.950 . S
H2373 C2349 0.906 1_554 S
H2374 C2351 0.950 1_554 S
H2375 C2353 0.950 1_554 S
C2376 C2377 1.349 . S
C2376 C2378 1.327 . S
C2376 H2401 0.950 . S
C2377 C2376 1.349 . S
C2377 C2393 1.349 . S
C2378 C2376 1.327 . S
C2378 C2397 1.429 . S
C2378 H2402 0.986 . S
C2379 C2396 1.574 . S
C2379 C2398 1.368 . S
C2379 H2403 0.949 . S
H2380 C2384 0.949 . S
C2381 C2382 1.349 . S
C2381 C2383 1.327 . S
C2381 H2404 0.950 . S
C2382 C2381 1.349 . S
C2382 C2394 1.349 . S
C2383 C2381 1.327 . S
C2383 C2399 1.429 . S
C2383 H2405 0.986 . S
C2384 H2380 0.949 . S
C2384 C2392 1.574 . S
C2384 C2400 1.368 . S
H2385 C2393 0.950 . S
H2386 C2391 0.950 . S
H2387 C2392 0.949 . S
H2388 C2394 0.950 . S
H2389 C2395 0.950 . S
H2390 C2396 0.949 . S
C2391 H2386 0.950 . S
C2391 C2393 1.327 . S
C2391 C2397 1.429 . S
C2392 C2384 1.574 . S
C2392 H2387 0.949 . S
C2392 C2398 1.368 1_455 S
C2393 C2377 1.349 . S
C2393 H2385 0.950 . S
C2393 C2391 1.327 . S
C2394 C2382 1.349 . S
C2394 H2388 0.950 . S
C2394 C2395 1.327 . S
C2395 H2389 0.950 . S
C2395 C2394 1.327 . S
C2395 C2399 1.429 . S
C2396 C2379 1.574 . S
C2396 H2390 0.949 . S
C2396 C2400 1.368 1_655 S
C2397 C2378 1.429 . S
C2397 C2391 1.429 . S
C2397 C2398 1.523 . S
C2398 C2379 1.368 . S
C2398 C2392 1.368 1_655 S
C2398 C2397 1.523 . S
C2399 C2383 1.429 . S
C2399 C2395 1.429 . S
C2399 C2400 1.523 . S
C2400 C2384 1.368 . S
C2400 C2396 1.368 1_455 S
C2400 C2399 1.523 . S
H2401 C2376 0.950 . S
H2402 C2378 0.986 . S
H2403 C2379 0.949 . S
H2404 C2381 0.950 . S
H2405 C2383 0.986 . S
C2406 C2407 1.349 . S
C2406 C2408 1.327 . S
C2406 H2431 0.950 . S
C2407 C2406 1.349 . S
C2407 C2423 1.349 . S
C2408 C2406 1.327 . S
C2408 C2427 1.429 . S
C2408 H2432 0.950 . S
C2409 C2426 1.574 . S
C2409 C2428 1.368 . S
C2409 H2433 0.949 . S
H2410 C2414 0.949 . S
C2411 C2412 1.349 . S
C2411 C2413 1.327 . S
C2411 H2434 0.950 . S
C2412 C2411 1.349 . S
C2412 C2424 1.349 . S
C2413 C2411 1.327 . S
C2413 C2429 1.429 . S
C2413 H2435 0.950 . S
C2414 H2410 0.949 . S
C2414 C2422 1.574 . S
C2414 C2430 1.368 . S
H2415 C2423 0.950 . S
H2416 C2421 0.950 . S
H2417 C2422 0.949 . S
H2418 C2424 0.950 . S
H2419 C2425 0.950 . S
H2420 C2426 0.949 . S
C2421 H2416 0.950 . S
C2421 C2423 1.327 . S
C2421 C2427 1.429 . S
C2422 C2414 1.574 . S
C2422 H2417 0.949 . S
C2422 C2428 1.368 . S
C2423 C2407 1.349 . S
C2423 H2415 0.950 . S
C2423 C2421 1.327 . S
C2424 C2412 1.349 . S
C2424 H2418 0.950 . S
C2424 C2425 1.327 . S
C2425 H2419 0.950 . S
C2425 C2424 1.327 . S
C2425 C2429 1.429 . S
C2426 C2409 1.574 . S
C2426 H2420 0.949 . S
C2426 C2430 1.368 . S
C2427 C2408 1.429 . S
C2427 C2421 1.429 . S
C2427 C2428 1.523 . S
C2428 C2409 1.368 . S
C2428 C2422 1.368 . S
C2428 C2427 1.523 . S
C2429 C2413 1.429 . S
C2429 C2425 1.429 . S
C2429 C2430 1.523 . S
C2430 C2414 1.368 . S
C2430 C2426 1.368 . S
C2430 C2429 1.523 . S
H2431 C2406 0.950 . S
H2432 C2408 0.950 . S
H2433 C2409 0.949 . S
H2434 C2411 0.950 . S
H2435 C2413 0.950 . S
C2436 C2437 1.349 . S
C2436 C2438 1.327 . S
C2436 H2461 0.950 . S
C2437 C2436 1.349 . S
C2437 C2453 1.349 . S
C2438 C2436 1.327 . S
C2438 C2457 1.429 . S
C2438 H2462 0.950 . S
C2439 C2456 1.574 . S
C2439 C2458 1.368 . S
C2439 H2463 0.949 . S
H2440 C2444 0.949 . S
C2441 C2442 1.349 . S
C2441 C2443 1.327 . S
C2441 H2464 0.950 . S
C2442 C2441 1.349 . S
C2442 C2454 1.349 . S
C2443 C2441 1.327 . S
C2443 C2459 1.429 . S
C2443 H2465 0.950 . S
C2444 H2440 0.949 . S
C2444 C2452 1.574 . S
C2444 C2460 1.368 . S
H2445 C2453 0.950 . S
H2446 C2451 0.950 . S
H2447 C2452 0.949 . S
H2448 C2454 0.950 . S
H2449 C2455 0.950 . S
H2450 C2456 0.949 . S
C2451 H2446 0.950 . S
C2451 C2453 1.327 . S
C2451 C2457 1.429 . S
C2452 C2444 1.574 . S
C2452 H2447 0.949 . S
C2452 C2458 1.368 . S
C2453 C2437 1.349 . S
C2453 H2445 0.950 . S
C2453 C2451 1.327 . S
C2454 C2442 1.349 . S
C2454 H2448 0.950 . S
C2454 C2455 1.327 . S
C2455 H2449 0.950 . S
C2455 C2454 1.327 . S
C2455 C2459 1.429 . S
C2456 C2439 1.574 . S
C2456 H2450 0.949 . S
C2456 C2460 1.368 . S
C2457 C2438 1.429 . S
C2457 C2451 1.429 . S
C2457 C2458 1.523 . S
C2458 C2439 1.368 . S
C2458 C2452 1.368 . S
C2458 C2457 1.523 . S
C2459 C2443 1.429 . S
C2459 C2455 1.429 . S
C2459 C2460 1.523 . S
C2460 C2444 1.368 . S
C2460 C2456 1.368 . S
C2460 C2459 1.523 . S
H2461 C2436 0.950 . S
H2462 C2438 0.950 . S
H2463 C2439 0.949 . S
H2464 C2441 0.950 . S
H2465 C2443 0.950 . S
C2466 C2467 1.349 . S
C2466 C2468 1.327 . S
C2466 H2491 0.950 . S
C2467 C2466 1.349 . S
C2467 C2483 1.349 . S
C2468 C2466 1.327 . S
C2468 C2487 1.429 . S
C2468 H2492 0.950 . S
C2469 C2486 1.574 1_455 S
C2469 C2488 1.418 . S
C2469 H2493 0.906 1_554 S
H2470 C2474 0.949 . S
C2471 C2472 1.349 . S
C2471 C2473 1.327 . S
C2471 H2494 0.950 1_554 S
C2472 C2471 1.349 . S
C2472 C2484 1.349 . S
C2473 C2471 1.327 . S
C2473 C2489 1.429 . S
C2473 H2495 0.950 1_554 S
C2474 H2470 0.949 . S
C2474 C2482 1.574 1_655 S
C2474 C2490 1.368 . S
H2475 C2483 0.950 1_556 S
H2476 C2481 0.950 1_556 S
H2477 C2482 0.949 . S
H2478 C2484 0.950 . S
H2479 C2485 0.950 . S
H2480 C2486 0.906 1_556 S
C2481 H2476 0.950 1_554 S
C2481 C2483 1.327 . S
C2481 C2487 1.429 . S
C2482 C2474 1.574 1_455 S
C2482 H2477 0.949 . S
C2482 C2488 1.368 . S
C2483 C2467 1.349 . S
C2483 H2475 0.950 1_554 S
C2483 C2481 1.327 . S
C2484 C2472 1.349 . S
C2484 H2478 0.950 . S
C2484 C2485 1.327 . S
C2485 H2479 0.950 . S
C2485 C2484 1.327 . S
C2485 C2489 1.429 . S
C2486 C2469 1.574 1_655 S
C2486 H2480 0.906 1_554 S
C2486 C2490 1.418 . S
C2487 C2468 1.429 . S
C2487 C2481 1.429 . S
C2487 C2488 1.523 . S
C2488 C2469 1.418 . S
C2488 C2482 1.368 . S
C2488 C2487 1.523 . S
C2489 C2473 1.429 . S
C2489 C2485 1.429 . S
C2489 C2490 1.523 . S
C2490 C2474 1.368 . S
C2490 C2486 1.418 . S
C2490 C2489 1.523 . S
H2491 C2466 0.950 . S
H2492 C2468 0.950 . S
H2493 C2469 0.906 1_556 S
H2494 C2471 0.950 1_556 S
H2495 C2473 0.950 1_556 S
C2496 C2497 1.349 . S
C2496 C2498 1.327 . S
C2496 H2521 0.950 . S
C2497 C2496 1.349 . S
C2497 C2513 1.349 . S
C2498 C2496 1.327 . S
C2498 C2517 1.429 . S
C2498 H2522 0.950 . S
C2499 C2516 1.574 . S
C2499 C2518 1.368 . S
C2499 H2523 0.949 . S
H2500 C2504 0.949 . S
C2501 C2502 1.349 . S
C2501 C2503 1.327 . S
C2501 H2524 0.950 . S
C2502 C2501 1.349 . S
C2502 C2514 1.349 . S
C2503 C2501 1.327 . S
C2503 C2519 1.429 . S
C2503 H2525 0.950 . S
C2504 H2500 0.949 . S
C2504 C2512 1.574 . S
C2504 C2520 1.368 . S
H2505 C2513 0.950 . S
H2506 C2511 0.950 . S
H2507 C2512 0.949 . S
H2508 C2514 0.950 . S
H2509 C2515 0.950 . S
H2510 C2516 0.949 . S
C2511 H2506 0.950 . S
C2511 C2513 1.327 . S
C2511 C2517 1.429 . S
C2512 C2504 1.574 . S
C2512 H2507 0.949 . S
C2512 C2518 1.368 . S
C2513 C2497 1.349 . S
C2513 H2505 0.950 . S
C2513 C2511 1.327 . S
C2514 C2502 1.349 . S
C2514 H2508 0.950 . S
C2514 C2515 1.327 . S
C2515 H2509 0.950 . S
C2515 C2514 1.327 . S
C2515 C2519 1.429 . S
C2516 C2499 1.574 . S
C2516 H2510 0.949 . S
C2516 C2520 1.368 . S
C2517 C2498 1.429 . S
C2517 C2511 1.429 . S
C2517 C2518 1.523 . S
C2518 C2499 1.368 . S
C2518 C2512 1.368 . S
C2518 C2517 1.523 . S
C2519 C2503 1.429 . S
C2519 C2515 1.429 . S
C2519 C2520 1.523 . S
C2520 C2504 1.368 . S
C2520 C2516 1.368 . S
C2520 C2519 1.523 . S
H2521 C2496 0.950 . S
H2522 C2498 0.950 . S
H2523 C2499 0.949 . S
H2524 C2501 0.950 . S
H2525 C2503 0.950 . S
C2526 C2527 1.349 . S
C2526 C2528 1.327 . S
C2526 H2551 0.950 . S
C2527 C2526 1.349 . S
C2527 C2543 1.349 . S
C2528 C2526 1.327 . S
C2528 C2547 1.429 . S
C2528 H2552 0.950 . S
C2529 C2546 1.574 . S
C2529 C2548 1.368 . S
C2529 H2553 0.949 . S
H2530 C2534 0.949 . S
C2531 C2532 1.349 . S
C2531 C2533 1.327 . S
C2531 H2554 0.950 . S
C2532 C2531 1.349 . S
C2532 C2544 1.349 . S
C2533 C2531 1.327 . S
C2533 C2549 1.429 1_655 S
C2533 H2555 0.950 . S
C2534 H2530 0.949 . S
C2534 C2542 1.574 . S
C2534 C2550 1.368 . S
H2535 C2543 0.950 . S
H2536 C2541 0.950 . S
H2537 C2542 0.949 . S
H2538 C2544 0.950 . S
H2539 C2545 0.950 . S
H2540 C2546 0.949 . S
C2541 H2536 0.950 . S
C2541 C2543 1.327 . S
C2541 C2547 1.429 . S
C2542 C2534 1.574 . S
C2542 H2537 0.949 . S
C2542 C2548 1.368 . S
C2543 C2527 1.349 . S
C2543 H2535 0.950 . S
C2543 C2541 1.327 . S
C2544 C2532 1.349 . S
C2544 H2538 0.950 . S
C2544 C2545 1.327 1_655 S
C2545 H2539 0.950 . S
C2545 C2544 1.327 1_455 S
C2545 C2549 1.429 . S
C2546 C2529 1.574 . S
C2546 H2540 0.949 . S
C2546 C2550 1.368 . S
C2547 C2528 1.429 . S
C2547 C2541 1.429 . S
C2547 C2548 1.523 . S
C2548 C2529 1.368 . S
C2548 C2542 1.368 . S
C2548 C2547 1.523 . S
C2549 C2533 1.429 1_455 S
C2549 C2545 1.429 . S
C2549 C2550 1.523 . S
C2550 C2534 1.368 . S
C2550 C2546 1.368 . S
C2550 C2549 1.523 . S
H2551 C2526 0.950 . S
H2552 C2528 0.950 . S
H2553 C2529 0.949 . S
H2554 C2531 0.950 . S
H2555 C2533 0.950 . S
C2556 C2557 1.349 . S
C2556 C2558 1.327 . S
C2556 H2581 0.950 . S
C2557 C2556 1.349 . S
C2557 C2573 1.349 . S
C2558 C2556 1.327 . S
C2558 C2577 1.429 . S
C2558 H2582 0.950 . S
C2559 C2576 1.574 . S
C2559 C2578 1.368 . S
C2559 H2583 0.949 . S
H2560 C2564 0.949 . S
C2561 C2562 1.349 . S
C2561 C2563 1.327 . S
C2561 H2584 0.950 . S
C2562 C2561 1.349 . S
C2562 C2574 1.349 . S
C2563 C2561 1.327 . S
C2563 C2579 1.429 . S
C2563 H2585 0.950 . S
C2564 H2560 0.949 . S
C2564 C2572 1.574 . S
C2564 C2580 1.368 . S
H2565 C2573 0.950 . S
H2566 C2571 0.950 . S
H2567 C2572 0.949 . S
H2568 C2574 0.950 . S
H2569 C2575 0.950 . S
H2570 C2576 0.949 . S
C2571 H2566 0.950 . S
C2571 C2573 1.327 . S
C2571 C2577 1.429 . S
C2572 C2564 1.574 . S
C2572 H2567 0.949 . S
C2572 C2578 1.368 . S
C2573 C2557 1.349 . S
C2573 H2565 0.950 . S
C2573 C2571 1.327 . S
C2574 C2562 1.349 . S
C2574 H2568 0.950 . S
C2574 C2575 1.327 . S
C2575 H2569 0.950 . S
C2575 C2574 1.327 . S
C2575 C2579 1.429 . S
C2576 C2559 1.574 . S
C2576 H2570 0.949 . S
C2576 C2580 1.368 . S
C2577 C2558 1.429 . S
C2577 C2571 1.429 . S
C2577 C2578 1.523 . S
C2578 C2559 1.368 . S
C2578 C2572 1.368 . S
C2578 C2577 1.523 . S
C2579 C2563 1.429 . S
C2579 C2575 1.429 . S
C2579 C2580 1.523 . S
C2580 C2564 1.368 . S
C2580 C2576 1.368 . S
C2580 C2579 1.523 . S
H2581 C2556 0.950 . S
H2582 C2558 0.950 . S
H2583 C2559 0.949 . S
H2584 C2561 0.950 . S
H2585 C2563 0.950 . S
C2586 C2587 1.349 . S
C2586 C2588 1.327 . S
C2586 H2611 0.950 . S
C2587 C2586 1.349 . S
C2587 C2603 1.349 . S
C2588 C2586 1.327 . S
C2588 C2607 1.429 . S
C2588 H2612 0.950 . S
C2589 C2606 1.574 . S
C2589 C2608 1.368 . S
C2589 H2613 0.949 . S
H2590 C2594 0.949 . S
C2591 C2592 1.349 . S
C2591 C2593 1.327 . S
C2591 H2614 0.950 . S
C2592 C2591 1.349 . S
C2592 C2604 1.349 . S
C2593 C2591 1.327 . S
C2593 C2609 1.429 . S
C2593 H2615 0.950 . S
C2594 H2590 0.949 . S
C2594 C2602 1.574 . S
C2594 C2610 1.368 . S
H2595 C2603 0.950 . S
H2596 C2601 0.950 . S
H2597 C2602 0.949 . S
H2598 C2604 0.950 . S
H2599 C2605 0.950 . S
H2600 C2606 0.949 . S
C2601 H2596 0.950 . S
C2601 C2603 1.327 . S
C2601 C2607 1.429 . S
C2602 C2594 1.574 . S
C2602 H2597 0.949 . S
C2602 C2608 1.368 . S
C2603 C2587 1.349 . S
C2603 H2595 0.950 . S
C2603 C2601 1.327 . S
C2604 C2592 1.349 . S
C2604 H2598 0.950 . S
C2604 C2605 1.327 . S
C2605 H2599 0.950 . S
C2605 C2604 1.327 . S
C2605 C2609 1.429 . S
C2606 C2589 1.574 . S
C2606 H2600 0.949 . S
C2606 C2610 1.368 . S
C2607 C2588 1.429 . S
C2607 C2601 1.429 . S
C2607 C2608 1.523 . S
C2608 C2589 1.368 . S
C2608 C2602 1.368 . S
C2608 C2607 1.523 . S
C2609 C2593 1.429 . S
C2609 C2605 1.429 . S
C2609 C2610 1.523 . S
C2610 C2594 1.368 . S
C2610 C2606 1.368 . S
C2610 C2609 1.523 . S
H2611 C2586 0.950 . S
H2612 C2588 0.950 . S
H2613 C2589 0.949 . S
H2614 C2591 0.950 . S
H2615 C2593 0.950 . S
C2616 C2617 1.349 . S
C2616 C2618 1.327 . S
C2616 H2641 0.950 . S
C2617 C2616 1.349 . S
C2617 C2633 1.349 . S
C2618 C2616 1.327 . S
C2618 C2637 1.429 . S
C2618 H2642 0.950 . S
C2619 C2636 1.574 . S
C2619 C2638 1.368 . S
C2619 H2643 0.949 . S
H2620 C2624 0.949 . S
C2621 C2622 1.349 . S
C2621 C2623 1.327 . S
C2621 H2644 0.950 . S
C2622 C2621 1.349 . S
C2622 C2634 1.349 . S
C2623 C2621 1.327 . S
C2623 C2639 1.429 . S
C2623 H2645 0.950 . S
C2624 H2620 0.949 . S
C2624 C2632 1.574 . S
C2624 C2640 1.368 . S
H2625 C2633 0.950 . S
H2626 C2631 0.950 . S
H2627 C2632 0.949 . S
H2628 C2634 0.950 . S
H2629 C2635 0.950 . S
H2630 C2636 0.949 . S
C2631 H2626 0.950 . S
C2631 C2633 1.327 . S
C2631 C2637 1.429 . S
C2632 C2624 1.574 . S
C2632 H2627 0.949 . S
C2632 C2638 1.368 . S
C2633 C2617 1.349 . S
C2633 H2625 0.950 . S
C2633 C2631 1.327 . S
C2634 C2622 1.349 . S
C2634 H2628 0.950 . S
C2634 C2635 1.327 . S
C2635 H2629 0.950 . S
C2635 C2634 1.327 . S
C2635 C2639 1.429 . S
C2636 C2619 1.574 . S
C2636 H2630 0.949 . S
C2636 C2640 1.368 . S
C2637 C2618 1.429 . S
C2637 C2631 1.429 . S
C2637 C2638 1.523 . S
C2638 C2619 1.368 . S
C2638 C2632 1.368 . S
C2638 C2637 1.523 . S
C2639 C2623 1.429 . S
C2639 C2635 1.429 . S
C2639 C2640 1.523 . S
C2640 C2624 1.368 . S
C2640 C2636 1.368 . S
C2640 C2639 1.523 . S
H2641 C2616 0.950 . S
H2642 C2618 0.950 . S
H2643 C2619 0.949 . S
H2644 C2621 0.950 . S
H2645 C2623 0.950 . S
C2646 C2647 1.349 . S
C2646 C2648 1.327 . S
C2646 H2671 0.950 . S
C2647 C2646 1.349 . S
C2647 C2663 1.349 . S
C2648 C2646 1.327 . S
C2648 C2667 1.429 . S
C2648 H2672 0.950 . S
C2649 C2666 1.574 . S
C2649 C2668 1.368 . S
C2649 H2673 0.949 . S
H2650 C2654 0.949 . S
C2651 C2652 1.349 . S
C2651 C2653 1.327 . S
C2651 H2674 0.950 . S
C2652 C2651 1.349 . S
C2652 C2664 1.349 . S
C2653 C2651 1.327 . S
C2653 C2669 1.429 . S
C2653 H2675 0.950 . S
C2654 H2650 0.949 . S
C2654 C2662 1.574 . S
C2654 C2670 1.368 . S
H2655 C2663 0.950 . S
H2656 C2661 0.950 . S
H2657 C2662 0.949 . S
H2658 C2664 0.950 . S
H2659 C2665 0.950 . S
H2660 C2666 0.949 . S
C2661 H2656 0.950 . S
C2661 C2663 1.327 . S
C2661 C2667 1.429 . S
C2662 C2654 1.574 . S
C2662 H2657 0.949 . S
C2662 C2668 1.368 . S
C2663 C2647 1.349 . S
C2663 H2655 0.950 . S
C2663 C2661 1.327 . S
C2664 C2652 1.349 . S
C2664 H2658 0.950 . S
C2664 C2665 1.327 . S
C2665 H2659 0.950 . S
C2665 C2664 1.327 . S
C2665 C2669 1.429 . S
C2666 C2649 1.574 . S
C2666 H2660 0.949 . S
C2666 C2670 1.368 . S
C2667 C2648 1.429 . S
C2667 C2661 1.429 . S
C2667 C2668 1.523 . S
C2668 C2649 1.368 . S
C2668 C2662 1.368 . S
C2668 C2667 1.523 . S
C2669 C2653 1.429 . S
C2669 C2665 1.429 . S
C2669 C2670 1.523 . S
C2670 C2654 1.368 . S
C2670 C2666 1.368 . S
C2670 C2669 1.523 . S
H2671 C2646 0.950 . S
H2672 C2648 0.950 . S
H2673 C2649 0.949 . S
H2674 C2651 0.950 . S
H2675 C2653 0.950 . S
C2676 C2677 1.349 . S
C2676 C2678 1.327 . S
C2676 H2701 0.950 . S
C2677 C2676 1.349 . S
C2677 C2693 1.349 . S
C2678 C2676 1.327 . S
C2678 C2697 1.429 . S
C2678 H2702 0.950 . S
C2679 C2696 1.574 . S
C2679 C2698 1.368 . S
C2679 H2703 0.949 . S
H2680 C2684 0.949 . S
C2681 C2682 1.349 . S
C2681 C2683 1.327 . S
C2681 H2704 0.950 . S
C2682 C2681 1.349 . S
C2682 C2694 1.349 . S
C2683 C2681 1.327 . S
C2683 C2699 1.429 . S
C2683 H2705 0.950 . S
C2684 H2680 0.949 . S
C2684 C2692 1.574 . S
C2684 C2700 1.368 . S
H2685 C2693 0.950 . S
H2686 C2691 0.950 . S
H2687 C2692 0.949 . S
H2688 C2694 0.950 . S
H2689 C2695 0.950 . S
H2690 C2696 0.949 . S
C2691 H2686 0.950 . S
C2691 C2693 1.327 . S
C2691 C2697 1.429 . S
C2692 C2684 1.574 . S
C2692 H2687 0.949 . S
C2692 C2698 1.368 . S
C2693 C2677 1.349 . S
C2693 H2685 0.950 . S
C2693 C2691 1.327 . S
C2694 C2682 1.349 . S
C2694 H2688 0.950 . S
C2694 C2695 1.327 . S
C2695 H2689 0.950 . S
C2695 C2694 1.327 . S
C2695 C2699 1.429 . S
C2696 C2679 1.574 . S
C2696 H2690 0.949 . S
C2696 C2700 1.368 . S
C2697 C2678 1.429 . S
C2697 C2691 1.429 . S
C2697 C2698 1.523 . S
C2698 C2679 1.368 . S
C2698 C2692 1.368 . S
C2698 C2697 1.523 . S
C2699 C2683 1.429 . S
C2699 C2695 1.429 . S
C2699 C2700 1.523 . S
C2700 C2684 1.368 . S
C2700 C2696 1.368 . S
C2700 C2699 1.523 . S
H2701 C2676 0.950 . S
H2702 C2678 0.950 . S
H2703 C2679 0.949 . S
H2704 C2681 0.950 . S
H2705 C2683 0.950 . S
C2706 C2707 1.349 . S
C2706 C2708 1.327 1_655 S
C2706 H2731 0.950 . S
C2707 C2706 1.349 . S
C2707 C2723 1.349 . S
C2708 C2706 1.327 1_455 S
C2708 C2727 1.429 . S
C2708 H2732 0.950 . S
C2709 C2726 1.574 . S
C2709 C2728 1.368 . S
C2709 H2733 0.949 . S
H2710 C2714 0.949 . S
C2711 C2712 1.349 . S
C2711 C2713 1.327 . S
C2711 H2734 0.950 . S
C2712 C2711 1.349 . S
C2712 C2724 1.349 . S
C2713 C2711 1.327 . S
C2713 C2729 1.429 . S
C2713 H2735 0.950 . S
C2714 H2710 0.949 . S
C2714 C2722 1.574 . S
C2714 C2730 1.368 . S
H2715 C2723 0.950 . S
H2716 C2721 0.950 . S
H2717 C2722 0.949 . S
H2718 C2724 0.950 . S
H2719 C2725 0.950 . S
H2720 C2726 0.949 . S
C2721 H2716 0.950 . S
C2721 C2723 1.327 . S
C2721 C2727 1.429 1_655 S
C2722 C2714 1.574 . S
C2722 H2717 0.949 . S
C2722 C2728 1.368 . S
C2723 C2707 1.349 . S
C2723 H2715 0.950 . S
C2723 C2721 1.327 . S
C2724 C2712 1.349 . S
C2724 H2718 0.950 . S
C2724 C2725 1.327 . S
C2725 H2719 0.950 . S
C2725 C2724 1.327 . S
C2725 C2729 1.429 . S
C2726 C2709 1.574 . S
C2726 H2720 0.949 . S
C2726 C2730 1.368 . S
C2727 C2708 1.429 . S
C2727 C2721 1.429 1_455 S
C2727 C2728 1.523 . S
C2728 C2709 1.368 . S
C2728 C2722 1.368 . S
C2728 C2727 1.523 . S
C2729 C2713 1.429 . S
C2729 C2725 1.429 . S
C2729 C2730 1.523 . S
C2730 C2714 1.368 . S
C2730 C2726 1.368 . S
C2730 C2729 1.523 . S
H2731 C2706 0.950 . S
H2732 C2708 0.950 . S
H2733 C2709 0.949 . S
H2734 C2711 0.950 . S
H2735 C2713 0.950 . S
C2736 C2737 1.349 . S
C2736 C2738 1.327 . S
C2736 H2761 0.950 . S
C2737 C2736 1.349 . S
C2737 C2753 1.349 . S
C2738 C2736 1.327 . S
C2738 C2757 1.429 . S
C2738 H2762 0.950 . S
C2739 C2756 1.574 . S
C2739 C2758 1.368 . S
C2739 H2763 0.949 . S
H2740 C2744 0.949 . S
C2741 C2742 1.349 . S
C2741 C2743 1.327 . S
C2741 H2764 0.950 . S
C2742 C2741 1.349 . S
C2742 C2754 1.349 . S
C2743 C2741 1.327 . S
C2743 C2759 1.429 . S
C2743 H2765 0.950 . S
C2744 H2740 0.949 . S
C2744 C2752 1.574 . S
C2744 C2760 1.368 . S
H2745 C2753 0.950 . S
H2746 C2751 0.950 . S
H2747 C2752 0.949 . S
H2748 C2754 0.950 . S
H2749 C2755 0.950 . S
H2750 C2756 0.949 . S
C2751 H2746 0.950 . S
C2751 C2753 1.327 . S
C2751 C2757 1.429 . S
C2752 C2744 1.574 . S
C2752 H2747 0.949 . S
C2752 C2758 1.368 . S
C2753 C2737 1.349 . S
C2753 H2745 0.950 . S
C2753 C2751 1.327 . S
C2754 C2742 1.349 . S
C2754 H2748 0.950 . S
C2754 C2755 1.327 . S
C2755 H2749 0.950 . S
C2755 C2754 1.327 . S
C2755 C2759 1.429 . S
C2756 C2739 1.574 . S
C2756 H2750 0.949 . S
C2756 C2760 1.368 . S
C2757 C2738 1.429 . S
C2757 C2751 1.429 . S
C2757 C2758 1.523 . S
C2758 C2739 1.368 . S
C2758 C2752 1.368 . S
C2758 C2757 1.523 . S
C2759 C2743 1.429 . S
C2759 C2755 1.429 . S
C2759 C2760 1.523 . S
C2760 C2744 1.368 . S
C2760 C2756 1.368 . S
C2760 C2759 1.523 . S
H2761 C2736 0.950 . S
H2762 C2738 0.950 . S
H2763 C2739 0.949 . S
H2764 C2741 0.950 . S
H2765 C2743 0.950 . S
C2766 C2767 1.349 . S
C2766 C2768 1.327 . S
C2766 H2791 0.950 . S
C2767 C2766 1.349 . S
C2767 C2783 1.349 . S
C2768 C2766 1.327 . S
C2768 C2787 1.429 . S
C2768 H2792 0.950 . S
C2769 C2786 1.574 . S
C2769 C2788 1.368 . S
C2769 H2793 0.949 . S
H2770 C2774 0.949 . S
C2771 C2772 1.349 . S
C2771 C2773 1.327 . S
C2771 H2794 0.950 . S
C2772 C2771 1.349 . S
C2772 C2784 1.349 . S
C2773 C2771 1.327 . S
C2773 C2789 1.429 1_455 S
C2773 H2795 0.950 . S
C2774 H2770 0.949 . S
C2774 C2782 1.574 . S
C2774 C2790 1.368 . S
H2775 C2783 0.950 . S
H2776 C2781 0.950 . S
H2777 C2782 0.949 . S
H2778 C2784 0.950 . S
H2779 C2785 0.950 . S
H2780 C2786 0.949 . S
C2781 H2776 0.950 . S
C2781 C2783 1.327 . S
C2781 C2787 1.429 . S
C2782 C2774 1.574 . S
C2782 H2777 0.949 . S
C2782 C2788 1.368 . S
C2783 C2767 1.349 . S
C2783 H2775 0.950 . S
C2783 C2781 1.327 . S
C2784 C2772 1.349 . S
C2784 H2778 0.950 . S
C2784 C2785 1.327 1_455 S
C2785 H2779 0.950 . S
C2785 C2784 1.327 1_655 S
C2785 C2789 1.429 . S
C2786 C2769 1.574 . S
C2786 H2780 0.949 . S
C2786 C2790 1.368 . S
C2787 C2768 1.429 . S
C2787 C2781 1.429 . S
C2787 C2788 1.523 . S
C2788 C2769 1.368 . S
C2788 C2782 1.368 . S
C2788 C2787 1.523 . S
C2789 C2773 1.429 1_655 S
C2789 C2785 1.429 . S
C2789 C2790 1.523 . S
C2790 C2774 1.368 . S
C2790 C2786 1.368 . S
C2790 C2789 1.523 . S
H2791 C2766 0.950 . S
H2792 C2768 0.950 . S
H2793 C2769 0.949 . S
H2794 C2771 0.950 . S
H2795 C2773 0.950 . S
C2796 C2797 1.349 . S
C2796 C2798 1.327 . S
C2796 H2821 0.950 . S
C2797 C2796 1.349 . S
C2797 C2813 1.349 . S
C2798 C2796 1.327 . S
C2798 C2817 1.429 . S
C2798 H2822 0.950 . S
C2799 C2816 1.574 . S
C2799 C2818 1.368 . S
C2799 H2823 0.949 . S
H2800 C2804 0.949 . S
C2801 C2802 1.349 . S
C2801 C2803 1.327 . S
C2801 H2824 0.950 . S
C2802 C2801 1.349 . S
C2802 C2814 1.349 . S
C2803 C2801 1.327 . S
C2803 C2819 1.429 . S
C2803 H2825 0.950 . S
C2804 H2800 0.949 . S
C2804 C2812 1.574 . S
C2804 C2820 1.368 . S
H2805 C2813 0.950 . S
H2806 C2811 0.950 . S
H2807 C2812 0.949 . S
H2808 C2814 0.950 . S
H2809 C2815 0.950 . S
H2810 C2816 0.949 . S
C2811 H2806 0.950 . S
C2811 C2813 1.327 . S
C2811 C2817 1.429 . S
C2812 C2804 1.574 . S
C2812 H2807 0.949 . S
C2812 C2818 1.368 . S
C2813 C2797 1.349 . S
C2813 H2805 0.950 . S
C2813 C2811 1.327 . S
C2814 C2802 1.349 . S
C2814 H2808 0.950 . S
C2814 C2815 1.327 . S
C2815 H2809 0.950 . S
C2815 C2814 1.327 . S
C2815 C2819 1.429 . S
C2816 C2799 1.574 . S
C2816 H2810 0.949 . S
C2816 C2820 1.368 . S
C2817 C2798 1.429 . S
C2817 C2811 1.429 . S
C2817 C2818 1.523 . S
C2818 C2799 1.368 . S
C2818 C2812 1.368 . S
C2818 C2817 1.523 . S
C2819 C2803 1.429 . S
C2819 C2815 1.429 . S
C2819 C2820 1.523 . S
C2820 C2804 1.368 . S
C2820 C2816 1.368 . S
C2820 C2819 1.523 . S
H2821 C2796 0.950 . S
H2822 C2798 0.950 . S
H2823 C2799 0.949 . S
H2824 C2801 0.950 . S
H2825 C2803 0.950 . S
C2826 C2827 1.349 . S
C2826 C2828 1.327 . S
C2826 H2851 0.950 . S
C2827 C2826 1.349 . S
C2827 C2843 1.349 . S
C2828 C2826 1.327 . S
C2828 C2847 1.429 . S
C2828 H2852 0.950 . S
C2829 C2846 1.574 . S
C2829 C2848 1.368 . S
C2829 H2853 0.949 . S
H2830 C2834 0.949 . S
C2831 C2832 1.349 . S
C2831 C2833 1.327 . S
C2831 H2854 0.950 . S
C2832 C2831 1.349 . S
C2832 C2844 1.349 . S
C2833 C2831 1.327 . S
C2833 C2849 1.429 . S
C2833 H2855 0.950 . S
C2834 H2830 0.949 . S
C2834 C2842 1.574 . S
C2834 C2850 1.368 . S
H2835 C2843 0.950 . S
H2836 C2841 0.950 . S
H2837 C2842 0.949 . S
H2838 C2844 0.950 . S
H2839 C2845 0.950 . S
H2840 C2846 0.949 . S
C2841 H2836 0.950 . S
C2841 C2843 1.327 . S
C2841 C2847 1.429 . S
C2842 C2834 1.574 . S
C2842 H2837 0.949 . S
C2842 C2848 1.368 . S
C2843 C2827 1.349 . S
C2843 H2835 0.950 . S
C2843 C2841 1.327 . S
C2844 C2832 1.349 . S
C2844 H2838 0.950 . S
C2844 C2845 1.327 . S
C2845 H2839 0.950 . S
C2845 C2844 1.327 . S
C2845 C2849 1.429 . S
C2846 C2829 1.574 . S
C2846 H2840 0.949 . S
C2846 C2850 1.368 . S
C2847 C2828 1.429 . S
C2847 C2841 1.429 . S
C2847 C2848 1.523 . S
C2848 C2829 1.368 . S
C2848 C2842 1.368 . S
C2848 C2847 1.523 . S
C2849 C2833 1.429 . S
C2849 C2845 1.429 . S
C2849 C2850 1.523 . S
C2850 C2834 1.368 . S
C2850 C2846 1.368 . S
C2850 C2849 1.523 . S
H2851 C2826 0.950 . S
H2852 C2828 0.950 . S
H2853 C2829 0.949 . S
H2854 C2831 0.950 . S
H2855 C2833 0.950 . S
C2856 C2857 1.349 . S
C2856 C2858 1.327 . S
C2856 H2881 0.950 . S
C2857 C2856 1.349 . S
C2857 C2873 1.349 . S
C2858 C2856 1.327 . S
C2858 C2877 1.429 . S
C2858 H2882 0.950 . S
C2859 C2876 1.574 . S
C2859 C2878 1.368 . S
C2859 H2883 0.949 . S
H2860 C2864 0.949 . S
C2861 C2862 1.349 . S
C2861 C2863 1.327 . S
C2861 H2884 0.950 . S
C2862 C2861 1.349 . S
C2862 C2874 1.349 . S
C2863 C2861 1.327 . S
C2863 C2879 1.429 . S
C2863 H2885 0.950 . S
C2864 H2860 0.949 . S
C2864 C2872 1.574 . S
C2864 C2880 1.368 . S
H2865 C2873 0.950 . S
H2866 C2871 0.950 . S
H2867 C2872 0.949 . S
H2868 C2874 0.950 . S
H2869 C2875 0.950 . S
H2870 C2876 0.949 . S
C2871 H2866 0.950 . S
C2871 C2873 1.327 . S
C2871 C2877 1.429 . S
C2872 C2864 1.574 . S
C2872 H2867 0.949 . S
C2872 C2878 1.368 . S
C2873 C2857 1.349 . S
C2873 H2865 0.950 . S
C2873 C2871 1.327 . S
C2874 C2862 1.349 . S
C2874 H2868 0.950 . S
C2874 C2875 1.327 . S
C2875 H2869 0.950 . S
C2875 C2874 1.327 . S
C2875 C2879 1.429 . S
C2876 C2859 1.574 . S
C2876 H2870 0.949 . S
C2876 C2880 1.368 . S
C2877 C2858 1.429 . S
C2877 C2871 1.429 . S
C2877 C2878 1.523 . S
C2878 C2859 1.368 . S
C2878 C2872 1.368 . S
C2878 C2877 1.523 . S
C2879 C2863 1.429 . S
C2879 C2875 1.429 . S
C2879 C2880 1.523 . S
C2880 C2864 1.368 . S
C2880 C2876 1.368 . S
C2880 C2879 1.523 . S
H2881 C2856 0.950 . S
H2882 C2858 0.950 . S
H2883 C2859 0.949 . S
H2884 C2861 0.950 . S
H2885 C2863 0.950 . S
C2886 C2887 1.349 . S
C2886 C2888 1.327 . S
C2886 H2911 0.950 . S
C2887 C2886 1.349 . S
C2887 C2903 1.349 . S
C2888 C2886 1.327 . S
C2888 C2907 1.429 . S
C2888 H2912 0.950 . S
C2889 C2906 1.574 . S
C2889 C2908 1.368 . S
C2889 H2913 0.949 . S
H2890 C2894 0.949 . S
C2891 C2892 1.349 . S
C2891 C2893 1.327 . S
C2891 H2914 0.950 . S
C2892 C2891 1.349 . S
C2892 C2904 1.349 . S
C2893 C2891 1.327 . S
C2893 C2909 1.429 . S
C2893 H2915 0.950 . S
C2894 H2890 0.949 . S
C2894 C2902 1.574 . S
C2894 C2910 1.368 . S
H2895 C2903 0.950 . S
H2896 C2901 0.950 . S
H2897 C2902 0.949 . S
H2898 C2904 0.950 . S
H2899 C2905 0.950 . S
H2900 C2906 0.949 . S
C2901 H2896 0.950 . S
C2901 C2903 1.327 . S
C2901 C2907 1.429 . S
C2902 C2894 1.574 . S
C2902 H2897 0.949 . S
C2902 C2908 1.368 . S
C2903 C2887 1.349 . S
C2903 H2895 0.950 . S
C2903 C2901 1.327 . S
C2904 C2892 1.349 . S
C2904 H2898 0.950 . S
C2904 C2905 1.327 . S
C2905 H2899 0.950 . S
C2905 C2904 1.327 . S
C2905 C2909 1.429 . S
C2906 C2889 1.574 . S
C2906 H2900 0.949 . S
C2906 C2910 1.368 . S
C2907 C2888 1.429 . S
C2907 C2901 1.429 . S
C2907 C2908 1.523 . S
C2908 C2889 1.368 . S
C2908 C2902 1.368 . S
C2908 C2907 1.523 . S
C2909 C2893 1.429 . S
C2909 C2905 1.429 . S
C2909 C2910 1.523 . S
C2910 C2894 1.368 . S
C2910 C2906 1.368 . S
C2910 C2909 1.523 . S
H2911 C2886 0.950 . S
H2912 C2888 0.950 . S
H2913 C2889 0.949 . S
H2914 C2891 0.950 . S
H2915 C2893 0.950 . S
C2916 C2917 1.349 . S
C2916 C2918 1.327 . S
C2916 H2941 0.950 . S
C2917 C2916 1.349 . S
C2917 C2933 1.349 . S
C2918 C2916 1.327 . S
C2918 C2937 1.429 . S
C2918 H2942 0.950 . S
C2919 C2936 1.574 . S
C2919 C2938 1.368 . S
C2919 H2943 0.949 . S
H2920 C2924 0.949 . S
C2921 C2922 1.349 . S
C2921 C2923 1.327 . S
C2921 H2944 0.950 . S
C2922 C2921 1.349 . S
C2922 C2934 1.349 . S
C2923 C2921 1.327 . S
C2923 C2939 1.429 . S
C2923 H2945 0.950 . S
C2924 H2920 0.949 . S
C2924 C2932 1.574 . S
C2924 C2940 1.368 . S
H2925 C2933 0.950 . S
H2926 C2931 0.950 . S
H2927 C2932 0.949 . S
H2928 C2934 0.950 . S
H2929 C2935 0.950 . S
H2930 C2936 0.949 . S
C2931 H2926 0.950 . S
C2931 C2933 1.327 . S
C2931 C2937 1.429 . S
C2932 C2924 1.574 . S
C2932 H2927 0.949 . S
C2932 C2938 1.368 . S
C2933 C2917 1.349 . S
C2933 H2925 0.950 . S
C2933 C2931 1.327 . S
C2934 C2922 1.349 . S
C2934 H2928 0.950 . S
C2934 C2935 1.327 . S
C2935 H2929 0.950 . S
C2935 C2934 1.327 . S
C2935 C2939 1.429 . S
C2936 C2919 1.574 . S
C2936 H2930 0.949 . S
C2936 C2940 1.368 . S
C2937 C2918 1.429 . S
C2937 C2931 1.429 . S
C2937 C2938 1.523 . S
C2938 C2919 1.368 . S
C2938 C2932 1.368 . S
C2938 C2937 1.523 . S
C2939 C2923 1.429 . S
C2939 C2935 1.429 . S
C2939 C2940 1.523 . S
C2940 C2924 1.368 . S
C2940 C2936 1.368 . S
C2940 C2939 1.523 . S
H2941 C2916 0.950 . S
H2942 C2918 0.950 . S
H2943 C2919 0.949 . S
H2944 C2921 0.950 . S
H2945 C2923 0.950 . S
C2946 C2947 1.349 . S
C2946 C2948 1.327 1_455 S
C2946 H2971 0.950 . S
C2947 C2946 1.349 . S
C2947 C2963 1.349 . S
C2948 C2946 1.327 1_655 S
C2948 C2967 1.429 . S
C2948 H2972 0.950 . S
C2949 C2966 1.574 . S
C2949 C2968 1.368 . S
C2949 H2973 0.949 . S
H2950 C2954 0.949 . S
C2951 C2952 1.349 . S
C2951 C2953 1.327 . S
C2951 H2974 0.950 . S
C2952 C2951 1.349 . S
C2952 C2964 1.349 . S
C2953 C2951 1.327 . S
C2953 C2969 1.429 . S
C2953 H2975 0.950 . S
C2954 H2950 0.949 . S
C2954 C2962 1.574 . S
C2954 C2970 1.368 . S
H2955 C2963 0.950 . S
H2956 C2961 0.950 . S
H2957 C2962 0.949 . S
H2958 C2964 0.950 . S
H2959 C2965 0.950 . S
H2960 C2966 0.949 . S
C2961 H2956 0.950 . S
C2961 C2963 1.327 . S
C2961 C2967 1.429 1_455 S
C2962 C2954 1.574 . S
C2962 H2957 0.949 . S
C2962 C2968 1.368 . S
C2963 C2947 1.349 . S
C2963 H2955 0.950 . S
C2963 C2961 1.327 . S
C2964 C2952 1.349 . S
C2964 H2958 0.950 . S
C2964 C2965 1.327 . S
C2965 H2959 0.950 . S
C2965 C2964 1.327 . S
C2965 C2969 1.429 . S
C2966 C2949 1.574 . S
C2966 H2960 0.949 . S
C2966 C2970 1.368 . S
C2967 C2948 1.429 . S
C2967 C2961 1.429 1_655 S
C2967 C2968 1.523 . S
C2968 C2949 1.368 . S
C2968 C2962 1.368 . S
C2968 C2967 1.523 . S
C2969 C2953 1.429 . S
C2969 C2965 1.429 . S
C2969 C2970 1.523 . S
C2970 C2954 1.368 . S
C2970 C2966 1.368 . S
C2970 C2969 1.523 . S
H2971 C2946 0.950 . S
H2972 C2948 0.950 . S
H2973 C2949 0.949 . S
H2974 C2951 0.950 . S
H2975 C2953 0.950 . S
C2976 C2977 1.349 . S
C2976 C2978 1.327 . S
C2976 H3001 0.950 . S
C2977 C2976 1.349 . S
C2977 C2993 1.349 . S
C2978 C2976 1.327 . S
C2978 C2997 1.429 . S
C2978 H3002 0.950 . S
C2979 C2996 1.574 . S
C2979 C2998 1.368 . S
C2979 H3003 0.949 . S
H2980 C2984 0.949 . S
C2981 C2982 1.349 . S
C2981 C2983 1.327 . S
C2981 H3004 0.950 . S
C2982 C2981 1.349 . S
C2982 C2994 1.349 . S
C2983 C2981 1.327 . S
C2983 C2999 1.429 . S
C2983 H3005 0.950 . S
C2984 H2980 0.949 . S
C2984 C2992 1.574 . S
C2984 C3000 1.368 . S
H2985 C2993 0.950 . S
H2986 C2991 0.950 . S
H2987 C2992 0.949 . S
H2988 C2994 0.950 . S
H2989 C2995 0.950 . S
H2990 C2996 0.949 . S
C2991 H2986 0.950 . S
C2991 C2993 1.327 . S
C2991 C2997 1.429 . S
C2992 C2984 1.574 . S
C2992 H2987 0.949 . S
C2992 C2998 1.368 . S
C2993 C2977 1.349 . S
C2993 H2985 0.950 . S
C2993 C2991 1.327 . S
C2994 C2982 1.349 . S
C2994 H2988 0.950 . S
C2994 C2995 1.327 . S
C2995 H2989 0.950 . S
C2995 C2994 1.327 . S
C2995 C2999 1.429 . S
C2996 C2979 1.574 . S
C2996 H2990 0.949 . S
C2996 C3000 1.368 . S
C2997 C2978 1.429 . S
C2997 C2991 1.429 . S
C2997 C2998 1.523 . S
C2998 C2979 1.368 . S
C2998 C2992 1.368 . S
C2998 C2997 1.523 . S
C2999 C2983 1.429 . S
C2999 C2995 1.429 . S
C2999 C3000 1.523 . S
C3000 C2984 1.368 . S
C3000 C2996 1.368 . S
C3000 C2999 1.523 . S
H3001 C2976 0.950 . S
H3002 C2978 0.950 . S
H3003 C2979 0.949 . S
H3004 C2981 0.950 . S
H3005 C2983 0.950 . S
C3006 C3007 1.349 . S
C3006 C3008 1.327 . S
C3006 H3031 0.950 . S
C3007 C3006 1.349 . S
C3007 C3023 1.349 . S
C3008 C3006 1.327 . S
C3008 C3027 1.429 . S
C3008 H3032 0.950 . S
C3009 C3026 1.574 . S
C3009 C3028 1.368 . S
C3009 H3033 0.949 . S
H3010 C3014 0.949 . S
C3011 C3012 1.349 . S
C3011 C3013 1.327 . S
C3011 H3034 0.950 . S
C3012 C3011 1.349 . S
C3012 C3024 1.349 . S
C3013 C3011 1.327 . S
C3013 C3029 1.429 . S
C3013 H3035 0.950 . S
C3014 H3010 0.949 . S
C3014 C3022 1.574 . S
C3014 C3030 1.368 . S
H3015 C3023 0.950 . S
H3016 C3021 0.950 . S
H3017 C3022 0.949 . S
H3018 C3024 0.950 . S
H3019 C3025 0.950 . S
H3020 C3026 0.949 . S
C3021 H3016 0.950 . S
C3021 C3023 1.327 . S
C3021 C3027 1.429 . S
C3022 C3014 1.574 . S
C3022 H3017 0.949 . S
C3022 C3028 1.368 . S
C3023 C3007 1.349 . S
C3023 H3015 0.950 . S
C3023 C3021 1.327 . S
C3024 C3012 1.349 . S
C3024 H3018 0.950 . S
C3024 C3025 1.327 . S
C3025 H3019 0.950 . S
C3025 C3024 1.327 . S
C3025 C3029 1.429 . S
C3026 C3009 1.574 . S
C3026 H3020 0.949 . S
C3026 C3030 1.368 . S
C3027 C3008 1.429 . S
C3027 C3021 1.429 . S
C3027 C3028 1.523 . S
C3028 C3009 1.368 . S
C3028 C3022 1.368 . S
C3028 C3027 1.523 . S
C3029 C3013 1.429 . S
C3029 C3025 1.429 . S
C3029 C3030 1.523 . S
C3030 C3014 1.368 . S
C3030 C3026 1.368 . S
C3030 C3029 1.523 . S
H3031 C3006 0.950 . S
H3032 C3008 0.950 . S
H3033 C3009 0.949 . S
H3034 C3011 0.950 . S
H3035 C3013 0.950 . S
C3036 C3037 1.349 . S
C3036 C3038 1.327 . S
C3036 H3061 0.950 . S
C3037 C3036 1.349 . S
C3037 C3053 1.349 . S
C3038 C3036 1.327 . S
C3038 C3057 1.429 . S
C3038 H3062 0.950 . S
C3039 C3056 1.574 . S
C3039 C3058 1.368 . S
C3039 H3063 0.949 . S
H3040 C3044 0.949 . S
C3041 C3042 1.349 . S
C3041 C3043 1.327 . S
C3041 H3064 0.950 . S
C3042 C3041 1.349 . S
C3042 C3054 1.349 . S
C3043 C3041 1.327 . S
C3043 C3059 1.429 . S
C3043 H3065 0.950 . S
C3044 H3040 0.949 . S
C3044 C3052 1.574 . S
C3044 C3060 1.368 . S
H3045 C3053 0.950 . S
H3046 C3051 0.950 . S
H3047 C3052 0.949 . S
H3048 C3054 0.950 . S
H3049 C3055 0.950 . S
H3050 C3056 0.949 . S
C3051 H3046 0.950 . S
C3051 C3053 1.327 . S
C3051 C3057 1.429 . S
C3052 C3044 1.574 . S
C3052 H3047 0.949 . S
C3052 C3058 1.368 . S
C3053 C3037 1.349 . S
C3053 H3045 0.950 . S
C3053 C3051 1.327 . S
C3054 C3042 1.349 . S
C3054 H3048 0.950 . S
C3054 C3055 1.327 . S
C3055 H3049 0.950 . S
C3055 C3054 1.327 . S
C3055 C3059 1.429 . S
C3056 C3039 1.574 . S
C3056 H3050 0.949 . S
C3056 C3060 1.368 . S
C3057 C3038 1.429 . S
C3057 C3051 1.429 . S
C3057 C3058 1.523 . S
C3058 C3039 1.368 . S
C3058 C3052 1.368 . S
C3058 C3057 1.523 . S
C3059 C3043 1.429 . S
C3059 C3055 1.429 . S
C3059 C3060 1.523 . S
C3060 C3044 1.368 . S
C3060 C3056 1.368 . S
C3060 C3059 1.523 . S
H3061 C3036 0.950 . S
H3062 C3038 0.950 . S
H3063 C3039 0.949 . S
H3064 C3041 0.950 . S
H3065 C3043 0.950 . S
C3066 C3067 1.349 . S
C3066 C3068 1.327 1_455 S
C3066 H3091 0.950 . S
C3067 C3066 1.349 . S
C3067 C3083 1.349 . S
C3068 C3066 1.327 1_655 S
C3068 C3087 1.429 . S
C3068 H3092 0.950 . S
C3069 C3086 1.574 . S
C3069 C3088 1.368 . S
C3069 H3093 0.949 . S
H3070 C3074 0.949 . S
C3071 C3072 1.349 . S
C3071 C3073 1.327 . S
C3071 H3094 0.950 . S
C3072 C3071 1.349 . S
C3072 C3084 1.349 . S
C3073 C3071 1.327 . S
C3073 C3089 1.429 . S
C3073 H3095 0.950 . S
C3074 H3070 0.949 . S
C3074 C3082 1.574 . S
C3074 C3090 1.368 . S
H3075 C3083 0.950 . S
H3076 C3081 0.950 . S
H3077 C3082 0.949 . S
H3078 C3084 0.950 . S
H3079 C3085 0.950 . S
H3080 C3086 0.949 . S
C3081 H3076 0.950 . S
C3081 C3083 1.327 . S
C3081 C3087 1.429 1_455 S
C3082 C3074 1.574 . S
C3082 H3077 0.949 . S
C3082 C3088 1.368 . S
C3083 C3067 1.349 . S
C3083 H3075 0.950 . S
C3083 C3081 1.327 . S
C3084 C3072 1.349 . S
C3084 H3078 0.950 . S
C3084 C3085 1.327 . S
C3085 H3079 0.950 . S
C3085 C3084 1.327 . S
C3085 C3089 1.429 . S
C3086 C3069 1.574 . S
C3086 H3080 0.949 . S
C3086 C3090 1.368 . S
C3087 C3068 1.429 . S
C3087 C3081 1.429 1_655 S
C3087 C3088 1.523 . S
C3088 C3069 1.368 . S
C3088 C3082 1.368 . S
C3088 C3087 1.523 . S
C3089 C3073 1.429 . S
C3089 C3085 1.429 . S
C3089 C3090 1.523 . S
C3090 C3074 1.368 . S
C3090 C3086 1.368 . S
C3090 C3089 1.523 . S
H3091 C3066 0.950 . S
H3092 C3068 0.950 . S
H3093 C3069 0.949 . S
H3094 C3071 0.950 . S
H3095 C3073 0.950 . S
C3096 C3097 1.349 . S
C3096 C3098 1.327 . S
C3096 H3121 0.950 . S
C3097 C3096 1.349 . S
C3097 C3113 1.349 . S
C3098 C3096 1.327 . S
C3098 C3117 1.429 . S
C3098 H3122 0.950 . S
C3099 C3116 1.574 . S
C3099 C3118 1.368 . S
C3099 H3123 0.949 . S
H3100 C3104 0.949 . S
C3101 C3102 1.349 . S
C3101 C3103 1.327 . S
C3101 H3124 0.950 . S
C3102 C3101 1.349 . S
C3102 C3114 1.349 . S
C3103 C3101 1.327 . S
C3103 C3119 1.429 . S
C3103 H3125 0.950 . S
C3104 H3100 0.949 . S
C3104 C3112 1.574 . S
C3104 C3120 1.368 . S
H3105 C3113 0.950 . S
H3106 C3111 0.950 . S
H3107 C3112 0.949 . S
H3108 C3114 0.950 . S
H3109 C3115 0.950 . S
H3110 C3116 0.949 . S
C3111 H3106 0.950 . S
C3111 C3113 1.327 . S
C3111 C3117 1.429 . S
C3112 C3104 1.574 . S
C3112 H3107 0.949 . S
C3112 C3118 1.368 . S
C3113 C3097 1.349 . S
C3113 H3105 0.950 . S
C3113 C3111 1.327 . S
C3114 C3102 1.349 . S
C3114 H3108 0.950 . S
C3114 C3115 1.327 . S
C3115 H3109 0.950 . S
C3115 C3114 1.327 . S
C3115 C3119 1.429 . S
C3116 C3099 1.574 . S
C3116 H3110 0.949 . S
C3116 C3120 1.368 . S
C3117 C3098 1.429 . S
C3117 C3111 1.429 . S
C3117 C3118 1.523 . S
C3118 C3099 1.368 . S
C3118 C3112 1.368 . S
C3118 C3117 1.523 . S
C3119 C3103 1.429 . S
C3119 C3115 1.429 . S
C3119 C3120 1.523 . S
C3120 C3104 1.368 . S
C3120 C3116 1.368 . S
C3120 C3119 1.523 . S
H3121 C3096 0.950 . S
H3122 C3098 0.950 . S
H3123 C3099 0.949 . S
H3124 C3101 0.950 . S
H3125 C3103 0.950 . S
C3126 C3127 1.349 . S
C3126 C3128 1.327 . S
C3126 H3151 0.950 . S
C3127 C3126 1.349 . S
C3127 C3143 1.349 . S
C3128 C3126 1.327 . S
C3128 C3147 1.429 . S
C3128 H3152 0.950 . S
C3129 C3146 1.574 . S
C3129 C3148 1.368 . S
C3129 H3153 0.949 . S
H3130 C3134 0.949 1_455 S
C3131 C3132 1.349 . S
C3131 C3133 1.327 1_455 S
C3131 H3154 0.950 . S
C3132 C3131 1.349 . S
C3132 C3144 1.349 . S
C3133 C3131 1.327 1_655 S
C3133 C3149 1.429 . S
C3133 H3155 0.950 . S
C3134 H3130 0.949 1_655 S
C3134 C3142 1.574 . S
C3134 C3150 1.368 . S
H3135 C3143 0.950 . S
H3136 C3141 0.950 . S
H3137 C3142 0.949 . S
H3138 C3144 0.950 . S
H3139 C3145 0.950 . S
H3140 C3146 0.949 . S
C3141 H3136 0.950 . S
C3141 C3143 1.327 . S
C3141 C3147 1.429 . S
C3142 C3134 1.574 . S
C3142 H3137 0.949 . S
C3142 C3148 1.368 . S
C3143 C3127 1.349 . S
C3143 H3135 0.950 . S
C3143 C3141 1.327 . S
C3144 C3132 1.349 . S
C3144 H3138 0.950 . S
C3144 C3145 1.327 . S
C3145 H3139 0.950 . S
C3145 C3144 1.327 . S
C3145 C3149 1.429 1_455 S
C3146 C3129 1.574 . S
C3146 H3140 0.949 . S
C3146 C3150 1.368 . S
C3147 C3128 1.429 . S
C3147 C3141 1.429 . S
C3147 C3148 1.523 . S
C3148 C3129 1.368 . S
C3148 C3142 1.368 . S
C3148 C3147 1.523 . S
C3149 C3133 1.429 . S
C3149 C3145 1.429 1_655 S
C3149 C3150 1.523 . S
C3150 C3134 1.368 . S
C3150 C3146 1.368 . S
C3150 C3149 1.523 . S
H3151 C3126 0.950 . S
H3152 C3128 0.950 . S
H3153 C3129 0.949 . S
H3154 C3131 0.950 . S
H3155 C3133 0.950 . S
C3156 C3157 1.349 . S
C3156 C3158 1.327 . S
C3156 H3181 0.950 . S
C3157 C3156 1.349 . S
C3157 C3173 1.349 . S
C3158 C3156 1.327 . S
C3158 C3177 1.429 . S
C3158 H3182 0.950 . S
C3159 C3176 1.574 . S
C3159 C3178 1.368 . S
C3159 H3183 0.949 . S
H3160 C3164 0.949 . S
C3161 C3162 1.349 . S
C3161 C3163 1.327 . S
C3161 H3184 0.950 . S
C3162 C3161 1.349 . S
C3162 C3174 1.349 . S
C3163 C3161 1.327 . S
C3163 C3179 1.429 . S
C3163 H3185 0.950 . S
C3164 H3160 0.949 . S
C3164 C3172 1.574 . S
C3164 C3180 1.368 . S
H3165 C3173 0.950 . S
H3166 C3171 0.950 . S
H3167 C3172 0.949 . S
H3168 C3174 0.950 . S
H3169 C3175 0.950 . S
H3170 C3176 0.949 . S
C3171 H3166 0.950 . S
C3171 C3173 1.327 . S
C3171 C3177 1.429 . S
C3172 C3164 1.574 . S
C3172 H3167 0.949 . S
C3172 C3178 1.368 . S
C3173 C3157 1.349 . S
C3173 H3165 0.950 . S
C3173 C3171 1.327 . S
C3174 C3162 1.349 . S
C3174 H3168 0.950 . S
C3174 C3175 1.327 . S
C3175 H3169 0.950 . S
C3175 C3174 1.327 . S
C3175 C3179 1.429 . S
C3176 C3159 1.574 . S
C3176 H3170 0.949 . S
C3176 C3180 1.368 . S
C3177 C3158 1.429 . S
C3177 C3171 1.429 . S
C3177 C3178 1.523 . S
C3178 C3159 1.368 . S
C3178 C3172 1.368 . S
C3178 C3177 1.523 . S
C3179 C3163 1.429 . S
C3179 C3175 1.429 . S
C3179 C3180 1.523 . S
C3180 C3164 1.368 . S
C3180 C3176 1.368 . S
C3180 C3179 1.523 . S
H3181 C3156 0.950 . S
H3182 C3158 0.950 . S
H3183 C3159 0.949 . S
H3184 C3161 0.950 . S
H3185 C3163 0.950 . S
C3186 C3187 1.349 . S
C3186 C3188 1.327 . S
C3186 H3211 0.950 . S
C3187 C3186 1.349 . S
C3187 C3203 1.349 . S
C3188 C3186 1.327 . S
C3188 C3207 1.429 . S
C3188 H3212 0.950 . S
C3189 C3206 1.574 . S
C3189 C3208 1.368 . S
C3189 H3213 0.949 . S
H3190 C3194 0.949 . S
C3191 C3192 1.349 . S
C3191 C3193 1.327 . S
C3191 H3214 0.950 . S
C3192 C3191 1.349 . S
C3192 C3204 1.349 . S
C3193 C3191 1.327 . S
C3193 C3209 1.429 . S
C3193 H3215 0.950 . S
C3194 H3190 0.949 . S
C3194 C3202 1.574 . S
C3194 C3210 1.368 . S
H3195 C3203 0.950 . S
H3196 C3201 0.950 . S
H3197 C3202 0.949 . S
H3198 C3204 0.950 . S
H3199 C3205 0.950 . S
H3200 C3206 0.949 . S
C3201 H3196 0.950 . S
C3201 C3203 1.327 . S
C3201 C3207 1.429 . S
C3202 C3194 1.574 . S
C3202 H3197 0.949 . S
C3202 C3208 1.368 . S
C3203 C3187 1.349 . S
C3203 H3195 0.950 . S
C3203 C3201 1.327 . S
C3204 C3192 1.349 . S
C3204 H3198 0.950 . S
C3204 C3205 1.327 . S
C3205 H3199 0.950 . S
C3205 C3204 1.327 . S
C3205 C3209 1.429 . S
C3206 C3189 1.574 . S
C3206 H3200 0.949 . S
C3206 C3210 1.368 . S
C3207 C3188 1.429 . S
C3207 C3201 1.429 . S
C3207 C3208 1.523 . S
C3208 C3189 1.368 . S
C3208 C3202 1.368 . S
C3208 C3207 1.523 . S
C3209 C3193 1.429 . S
C3209 C3205 1.429 . S
C3209 C3210 1.523 . S
C3210 C3194 1.368 . S
C3210 C3206 1.368 . S
C3210 C3209 1.523 . S
H3211 C3186 0.950 . S
H3212 C3188 0.950 . S
H3213 C3189 0.949 . S
H3214 C3191 0.950 . S
H3215 C3193 0.950 . S
C3216 C3217 1.349 . S
C3216 C3218 1.327 . S
C3216 H3241 0.950 . S
C3217 C3216 1.349 . S
C3217 C3233 1.349 . S
C3218 C3216 1.327 . S
C3218 C3237 1.429 . S
C3218 H3242 0.950 . S
C3219 C3236 1.574 . S
C3219 C3238 1.368 . S
C3219 H3243 0.949 . S
H3220 C3224 0.949 . S
C3221 C3222 1.349 . S
C3221 C3223 1.327 . S
C3221 H3244 0.950 . S
C3222 C3221 1.349 . S
C3222 C3234 1.349 . S
C3223 C3221 1.327 . S
C3223 C3239 1.429 . S
C3223 H3245 0.950 . S
C3224 H3220 0.949 . S
C3224 C3232 1.574 . S
C3224 C3240 1.368 . S
H3225 C3233 0.950 . S
H3226 C3231 0.950 . S
H3227 C3232 0.949 . S
H3228 C3234 0.950 . S
H3229 C3235 0.950 . S
H3230 C3236 0.949 . S
C3231 H3226 0.950 . S
C3231 C3233 1.327 . S
C3231 C3237 1.429 . S
C3232 C3224 1.574 . S
C3232 H3227 0.949 . S
C3232 C3238 1.368 . S
C3233 C3217 1.349 . S
C3233 H3225 0.950 . S
C3233 C3231 1.327 . S
C3234 C3222 1.349 . S
C3234 H3228 0.950 . S
C3234 C3235 1.327 . S
C3235 H3229 0.950 . S
C3235 C3234 1.327 . S
C3235 C3239 1.429 . S
C3236 C3219 1.574 . S
C3236 H3230 0.949 . S
C3236 C3240 1.368 . S
C3237 C3218 1.429 . S
C3237 C3231 1.429 . S
C3237 C3238 1.523 . S
C3238 C3219 1.368 . S
C3238 C3232 1.368 . S
C3238 C3237 1.523 . S
C3239 C3223 1.429 . S
C3239 C3235 1.429 . S
C3239 C3240 1.523 . S
C3240 C3224 1.368 . S
C3240 C3236 1.368 . S
C3240 C3239 1.523 . S
H3241 C3216 0.950 . S
H3242 C3218 0.950 . S
H3243 C3219 0.949 . S
H3244 C3221 0.950 . S
H3245 C3223 0.950 . S
C3246 C3247 1.349 . S
C3246 C3248 1.327 . S
C3246 H3271 0.950 . S
C3247 C3246 1.349 . S
C3247 C3263 1.349 . S
C3248 C3246 1.327 . S
C3248 C3267 1.429 . S
C3248 H3272 0.950 . S
C3249 C3266 1.574 . S
C3249 C3268 1.368 . S
C3249 H3273 0.949 . S
H3250 C3254 0.949 . S
C3251 C3252 1.349 . S
C3251 C3253 1.327 . S
C3251 H3274 0.950 . S
C3252 C3251 1.349 . S
C3252 C3264 1.349 . S
C3253 C3251 1.327 . S
C3253 C3269 1.429 . S
C3253 H3275 0.950 . S
C3254 H3250 0.949 . S
C3254 C3262 1.574 . S
C3254 C3270 1.368 . S
H3255 C3263 0.950 . S
H3256 C3261 0.950 . S
H3257 C3262 0.949 . S
H3258 C3264 0.950 . S
H3259 C3265 0.950 . S
H3260 C3266 0.949 . S
C3261 H3256 0.950 . S
C3261 C3263 1.327 . S
C3261 C3267 1.429 . S
C3262 C3254 1.574 . S
C3262 H3257 0.949 . S
C3262 C3268 1.368 . S
C3263 C3247 1.349 . S
C3263 H3255 0.950 . S
C3263 C3261 1.327 . S
C3264 C3252 1.349 . S
C3264 H3258 0.950 . S
C3264 C3265 1.327 . S
C3265 H3259 0.950 . S
C3265 C3264 1.327 . S
C3265 C3269 1.429 . S
C3266 C3249 1.574 . S
C3266 H3260 0.949 . S
C3266 C3270 1.368 . S
C3267 C3248 1.429 . S
C3267 C3261 1.429 . S
C3267 C3268 1.523 . S
C3268 C3249 1.368 . S
C3268 C3262 1.368 . S
C3268 C3267 1.523 . S
C3269 C3253 1.429 . S
C3269 C3265 1.429 . S
C3269 C3270 1.523 . S
C3270 C3254 1.368 . S
C3270 C3266 1.368 . S
C3270 C3269 1.523 . S
H3271 C3246 0.950 . S
H3272 C3248 0.950 . S
H3273 C3249 0.949 . S
H3274 C3251 0.950 . S
H3275 C3253 0.950 . S
C3276 C3277 1.349 . S
C3276 C3278 1.327 . S
C3276 H3301 0.950 . S
C3277 C3276 1.349 . S
C3277 C3293 1.349 . S
C3278 C3276 1.327 . S
C3278 C3297 1.429 . S
C3278 H3302 0.950 . S
C3279 C3296 1.574 . S
C3279 C3298 1.368 . S
C3279 H3303 0.949 . S
H3280 C3284 0.949 . S
C3281 C3282 1.349 . S
C3281 C3283 1.327 . S
C3281 H3304 0.950 . S
C3282 C3281 1.349 . S
C3282 C3294 1.349 . S
C3283 C3281 1.327 . S
C3283 C3299 1.429 . S
C3283 H3305 0.950 . S
C3284 H3280 0.949 . S
C3284 C3292 1.574 . S
C3284 C3300 1.368 . S
H3285 C3293 0.950 . S
H3286 C3291 0.950 . S
H3287 C3292 0.949 . S
H3288 C3294 0.950 . S
H3289 C3295 0.950 . S
H3290 C3296 0.949 . S
C3291 H3286 0.950 . S
C3291 C3293 1.327 . S
C3291 C3297 1.429 . S
C3292 C3284 1.574 . S
C3292 H3287 0.949 . S
C3292 C3298 1.368 . S
C3293 C3277 1.349 . S
C3293 H3285 0.950 . S
C3293 C3291 1.327 . S
C3294 C3282 1.349 . S
C3294 H3288 0.950 . S
C3294 C3295 1.327 . S
C3295 H3289 0.950 . S
C3295 C3294 1.327 . S
C3295 C3299 1.429 . S
C3296 C3279 1.574 . S
C3296 H3290 0.949 . S
C3296 C3300 1.368 . S
C3297 C3278 1.429 . S
C3297 C3291 1.429 . S
C3297 C3298 1.523 . S
C3298 C3279 1.368 . S
C3298 C3292 1.368 . S
C3298 C3297 1.523 . S
C3299 C3283 1.429 . S
C3299 C3295 1.429 . S
C3299 C3300 1.523 . S
C3300 C3284 1.368 . S
C3300 C3296 1.368 . S
C3300 C3299 1.523 . S
H3301 C3276 0.950 . S
H3302 C3278 0.950 . S
H3303 C3279 0.949 . S
H3304 C3281 0.950 . S
H3305 C3283 0.950 . S
C3306 C3307 1.349 . S
C3306 C3308 1.327 . S
C3306 H3331 0.950 . S
C3307 C3306 1.349 . S
C3307 C3323 1.349 . S
C3308 C3306 1.327 . S
C3308 C3327 1.429 . S
C3308 H3332 0.950 . S
C3309 C3326 1.574 . S
C3309 C3328 1.368 . S
C3309 H3333 0.949 . S
H3310 C3314 0.949 . S
C3311 C3312 1.349 . S
C3311 C3313 1.327 . S
C3311 H3334 0.950 . S
C3312 C3311 1.349 . S
C3312 C3324 1.349 . S
C3313 C3311 1.327 . S
C3313 C3329 1.429 1_655 S
C3313 H3335 0.950 . S
C3314 H3310 0.949 . S
C3314 C3322 1.574 . S
C3314 C3330 1.368 . S
H3315 C3323 0.950 . S
H3316 C3321 0.950 . S
H3317 C3322 0.949 . S
H3318 C3324 0.950 . S
H3319 C3325 0.950 . S
H3320 C3326 0.949 . S
C3321 H3316 0.950 . S
C3321 C3323 1.327 . S
C3321 C3327 1.429 . S
C3322 C3314 1.574 . S
C3322 H3317 0.949 . S
C3322 C3328 1.368 . S
C3323 C3307 1.349 . S
C3323 H3315 0.950 . S
C3323 C3321 1.327 . S
C3324 C3312 1.349 . S
C3324 H3318 0.950 . S
C3324 C3325 1.327 1_655 S
C3325 H3319 0.950 . S
C3325 C3324 1.327 1_455 S
C3325 C3329 1.429 . S
C3326 C3309 1.574 . S
C3326 H3320 0.949 . S
C3326 C3330 1.368 . S
C3327 C3308 1.429 . S
C3327 C3321 1.429 . S
C3327 C3328 1.523 . S
C3328 C3309 1.368 . S
C3328 C3322 1.368 . S
C3328 C3327 1.523 . S
C3329 C3313 1.429 1_455 S
C3329 C3325 1.429 . S
C3329 C3330 1.523 . S
C3330 C3314 1.368 . S
C3330 C3326 1.368 . S
C3330 C3329 1.523 . S
H3331 C3306 0.950 . S
H3332 C3308 0.950 . S
H3333 C3309 0.949 . S
H3334 C3311 0.950 . S
H3335 C3313 0.950 . S
C3336 C3337 1.349 . S
C3336 C3338 1.327 . S
C3336 H3361 0.950 . S
C3337 C3336 1.349 . S
C3337 C3353 1.349 . S
C3338 C3336 1.327 . S
C3338 C3357 1.429 . S
C3338 H3362 0.950 . S
C3339 C3356 1.574 . S
C3339 C3358 1.368 . S
C3339 H3363 0.949 . S
H3340 C3344 0.949 . S
C3341 C3342 1.349 . S
C3341 C3343 1.327 . S
C3341 H3364 0.950 . S
C3342 C3341 1.349 . S
C3342 C3354 1.349 . S
C3343 C3341 1.327 . S
C3343 C3359 1.429 . S
C3343 H3365 0.950 . S
C3344 H3340 0.949 . S
C3344 C3352 1.574 . S
C3344 C3360 1.368 . S
H3345 C3353 0.950 . S
H3346 C3351 0.950 . S
H3347 C3352 0.949 . S
H3348 C3354 0.950 . S
H3349 C3355 0.950 . S
H3350 C3356 0.949 . S
C3351 H3346 0.950 . S
C3351 C3353 1.327 . S
C3351 C3357 1.429 . S
C3352 C3344 1.574 . S
C3352 H3347 0.949 . S
C3352 C3358 1.368 . S
C3353 C3337 1.349 . S
C3353 H3345 0.950 . S
C3353 C3351 1.327 . S
C3354 C3342 1.349 . S
C3354 H3348 0.950 . S
C3354 C3355 1.327 . S
C3355 H3349 0.950 . S
C3355 C3354 1.327 . S
C3355 C3359 1.429 . S
C3356 C3339 1.574 . S
C3356 H3350 0.949 . S
C3356 C3360 1.368 . S
C3357 C3338 1.429 . S
C3357 C3351 1.429 . S
C3357 C3358 1.523 . S
C3358 C3339 1.368 . S
C3358 C3352 1.368 . S
C3358 C3357 1.523 . S
C3359 C3343 1.429 . S
C3359 C3355 1.429 . S
C3359 C3360 1.523 . S
C3360 C3344 1.368 . S
C3360 C3356 1.368 . S
C3360 C3359 1.523 . S
H3361 C3336 0.950 . S
H3362 C3338 0.950 . S
H3363 C3339 0.949 . S
H3364 C3341 0.950 . S
H3365 C3343 0.950 . S
C3366 C3367 1.349 . S
C3366 C3368 1.327 . S
C3366 H3391 0.950 . S
C3367 C3366 1.349 . S
C3367 C3383 1.349 . S
C3368 C3366 1.327 . S
C3368 C3387 1.429 1_655 S
C3368 H3392 0.950 . S
C3369 C3386 1.574 . S
C3369 C3388 1.368 . S
C3369 H3393 0.949 . S
H3370 C3374 0.949 . S
C3371 C3372 1.349 . S
C3371 C3373 1.327 . S
C3371 H3394 0.950 . S
C3372 C3371 1.349 . S
C3372 C3384 1.349 . S
C3373 C3371 1.327 . S
C3373 C3389 1.429 . S
C3373 H3395 0.950 . S
C3374 H3370 0.949 . S
C3374 C3382 1.574 . S
C3374 C3390 1.368 . S
H3375 C3383 0.950 . S
H3376 C3381 0.950 . S
H3377 C3382 0.949 . S
H3378 C3384 0.950 . S
H3379 C3385 0.950 . S
H3380 C3386 0.949 . S
C3381 H3376 0.950 . S
C3381 C3383 1.327 1_455 S
C3381 C3387 1.429 . S
C3382 C3374 1.574 . S
C3382 H3377 0.949 . S
C3382 C3388 1.368 . S
C3383 C3367 1.349 . S
C3383 H3375 0.950 . S
C3383 C3381 1.327 1_655 S
C3384 C3372 1.349 . S
C3384 H3378 0.950 . S
C3384 C3385 1.327 . S
C3385 H3379 0.950 . S
C3385 C3384 1.327 . S
C3385 C3389 1.429 . S
C3386 C3369 1.574 . S
C3386 H3380 0.949 . S
C3386 C3390 1.368 . S
C3387 C3368 1.429 1_455 S
C3387 C3381 1.429 . S
C3387 C3388 1.523 . S
C3388 C3369 1.368 . S
C3388 C3382 1.368 . S
C3388 C3387 1.523 . S
C3389 C3373 1.429 . S
C3389 C3385 1.429 . S
C3389 C3390 1.523 . S
C3390 C3374 1.368 . S
C3390 C3386 1.368 . S
C3390 C3389 1.523 . S
H3391 C3366 0.950 . S
H3392 C3368 0.950 . S
H3393 C3369 0.949 . S
H3394 C3371 0.950 . S
H3395 C3373 0.950 . S
C3396 C3397 1.349 . S
C3396 C3398 1.327 . S
C3396 H3421 0.950 . S
C3397 C3396 1.349 . S
C3397 C3413 1.349 . S
C3398 C3396 1.327 . S
C3398 C3417 1.429 . S
C3398 H3422 0.950 . S
C3399 C3416 1.574 . S
C3399 C3418 1.368 . S
C3399 H3423 0.949 . S
H3400 C3404 0.949 . S
C3401 C3402 1.349 . S
C3401 C3403 1.327 . S
C3401 H3424 0.950 . S
C3402 C3401 1.349 . S
C3402 C3414 1.349 . S
C3403 C3401 1.327 . S
C3403 C3419 1.429 . S
C3403 H3425 0.950 . S
C3404 H3400 0.949 . S
C3404 C3412 1.574 . S
C3404 C3420 1.368 . S
H3405 C3413 0.950 . S
H3406 C3411 0.950 . S
H3407 C3412 0.949 . S
H3408 C3414 0.950 . S
H3409 C3415 0.950 . S
H3410 C3416 0.949 . S
C3411 H3406 0.950 . S
C3411 C3413 1.327 . S
C3411 C3417 1.429 . S
C3412 C3404 1.574 . S
C3412 H3407 0.949 . S
C3412 C3418 1.368 . S
C3413 C3397 1.349 . S
C3413 H3405 0.950 . S
C3413 C3411 1.327 . S
C3414 C3402 1.349 . S
C3414 H3408 0.950 . S
C3414 C3415 1.327 . S
C3415 H3409 0.950 . S
C3415 C3414 1.327 . S
C3415 C3419 1.429 . S
C3416 C3399 1.574 . S
C3416 H3410 0.949 . S
C3416 C3420 1.368 . S
C3417 C3398 1.429 . S
C3417 C3411 1.429 . S
C3417 C3418 1.523 . S
C3418 C3399 1.368 . S
C3418 C3412 1.368 . S
C3418 C3417 1.523 . S
C3419 C3403 1.429 . S
C3419 C3415 1.429 . S
C3419 C3420 1.523 . S
C3420 C3404 1.368 . S
C3420 C3416 1.368 . S
C3420 C3419 1.523 . S
H3421 C3396 0.950 . S
H3422 C3398 0.950 . S
H3423 C3399 0.949 . S
H3424 C3401 0.950 . S
H3425 C3403 0.950 . S
C3426 C3427 1.349 . S
C3426 C3428 1.327 . S
C3426 H3451 0.950 . S
C3427 C3426 1.349 . S
C3427 C3443 1.349 . S
C3428 C3426 1.327 . S
C3428 C3447 1.429 . S
C3428 H3452 0.950 . S
C3429 C3446 1.574 . S
C3429 C3448 1.368 . S
C3429 H3453 0.949 . S
H3430 C3434 0.949 . S
C3431 C3432 1.349 . S
C3431 C3433 1.327 . S
C3431 H3454 0.950 . S
C3432 C3431 1.349 . S
C3432 C3444 1.349 . S
C3433 C3431 1.327 . S
C3433 C3449 1.429 . S
C3433 H3455 0.950 . S
C3434 H3430 0.949 . S
C3434 C3442 1.574 . S
C3434 C3450 1.368 . S
H3435 C3443 0.950 . S
H3436 C3441 0.950 . S
H3437 C3442 0.949 . S
H3438 C3444 0.950 . S
H3439 C3445 0.950 . S
H3440 C3446 0.949 . S
C3441 H3436 0.950 . S
C3441 C3443 1.327 . S
C3441 C3447 1.429 . S
C3442 C3434 1.574 . S
C3442 H3437 0.949 . S
C3442 C3448 1.368 . S
C3443 C3427 1.349 . S
C3443 H3435 0.950 . S
C3443 C3441 1.327 . S
C3444 C3432 1.349 . S
C3444 H3438 0.950 . S
C3444 C3445 1.327 . S
C3445 H3439 0.950 . S
C3445 C3444 1.327 . S
C3445 C3449 1.429 . S
C3446 C3429 1.574 . S
C3446 H3440 0.949 . S
C3446 C3450 1.368 . S
C3447 C3428 1.429 . S
C3447 C3441 1.429 . S
C3447 C3448 1.523 . S
C3448 C3429 1.368 . S
C3448 C3442 1.368 . S
C3448 C3447 1.523 . S
C3449 C3433 1.429 . S
C3449 C3445 1.429 . S
C3449 C3450 1.523 . S
C3450 C3434 1.368 . S
C3450 C3446 1.368 . S
C3450 C3449 1.523 . S
H3451 C3426 0.950 . S
H3452 C3428 0.950 . S
H3453 C3429 0.949 . S
H3454 C3431 0.950 . S
H3455 C3433 0.950 . S
C1057 N244 1.770 . S
C1062 N13 1.770 . S
C1087 N46 1.770 . S
C1092 N145 1.770 . S
C1117 N79 1.770 . S
C1122 N178 1.770 . S
C1147 N211 1.770 . S
C1152 N112 1.770 . S
C1177 N508 1.770 . S
C1182 N277 1.770 . S
C1207 N409 1.770 . S
C1212 N310 1.770 . S
C1237 N343 1.770 . S
C1242 N442 1.770 . S
C1267 N376 1.770 . S
C1272 N475 1.770 . S
C1297 N772 1.770 . S
C1302 N541 1.770 . S
C1327 N574 1.770 . S
C1332 N673 1.770 . S
C1357 N607 1.770 . S
C1362 N706 1.770 . S
C1387 N739 1.770 . S
C1392 N640 1.770 . S
C1417 N1036 1.770 . S
C1422 N805 1.770 . S
C1447 N838 1.770 . S
C1452 N937 1.770 . S
C1477 N970 1.770 . S
C1482 N871 1.770 . S
C1507 N1003 1.770 . S
C1512 N904 1.770 . S
C1537 C150 0.856 . S
C1542 C18 0.856 . S
C1567 C51 0.856 . S
C1572 C183 0.856 . S
C1597 C216 0.856 . S
C1602 C84 0.856 . S
C1627 C117 0.856 . S
C1632 C249 0.856 . S
C1657 C414 0.856 . S
C1662 C282 0.856 . S
C1687 C315 0.856 . S
C1692 C447 0.856 . S
C1717 C348 0.856 . S
C1722 C480 0.856 . S
C1747 C513 0.856 . S
C1752 C381 0.856 . S
C1777 C678 0.856 . S
C1782 C546 0.856 . S
C1807 C711 0.856 . S
C1812 C579 0.856 . S
C1837 C744 0.856 . S
C1842 C612 0.856 . S
C1867 C777 0.856 . S
C1872 C645 0.856 . S
C1897 C942 0.856 . S
C1902 C810 0.856 . S
C1927 C843 0.856 . S
C1932 C975 0.856 . S
C1957 C1008 0.856 . S
C1962 C876 0.856 . S
C1987 C1041 0.856 . S
C1992 C909 0.856 . S
C2017 C601 0.735 . S
C2022 C7 0.735 . S
C2047 C40 0.735 . S
C2052 C634 0.735 . S
C2077 C73 0.735 . S
C2082 C535 0.735 . S
C2107 C106 0.735 . S
C2112 C568 0.735 . S
C2137 C733 0.735 . S
C2142 C139 0.735 . S
C2167 C766 0.735 . S
C2172 C172 0.735 . S
C2197 C205 0.735 . S
C2202 C667 0.735 . S
C2227 C238 0.735 . S
C2232 C700 0.735 . S
C2257 C271 0.735 . S
C2262 C865 0.735 . S
C2287 C304 0.735 . S
C2292 C898 0.735 . S
C2317 C799 0.735 . S
C2322 C337 0.735 . S
C2347 C370 0.735 . S
C2352 C832 0.735 . S
C2377 C403 0.735 . S
C2382 C997 0.735 . S
C2407 C1030 0.735 . S
C2412 C436 0.735 . S
C2437 C469 0.735 . S
C2442 C931 0.735 . S
C2467 C964 0.735 . S
C2472 C502 0.735 . S
C2497 N893 0.448 . S
C2502 C21 0.587 . S
C2527 C54 0.587 . S
C2532 N266 0.448 . S
C2557 C87 0.587 . S
C2562 N827 0.448 . S
C2587 N332 0.448 . S
C2592 C120 0.587 . S
C2617 N959 0.448 . S
C2622 C153 0.587 . S
C2647 C186 0.587 . S
C2652 N464 0.448 . S
C2677 N1025 0.448 . S
C2682 C219 0.587 . S
C2707 N398 0.448 . S
C2712 C252 0.587 . S
C2737 C285 0.587 . S
C2742 N629 0.448 . S
C2767 C318 0.587 . S
C2772 N2 0.448 . S
C2797 N563 0.448 . S
C2802 C351 0.587 . S
C2827 C384 0.587 . S
C2832 N68 0.448 . S
C2857 C417 0.587 . S
C2862 N695 0.448 . S
C2887 C450 0.587 . S
C2892 N200 0.448 . S
C2917 C483 0.587 . S
C2922 N761 0.448 . S
C2947 N134 0.448 . S
C2952 C516 0.587 . S
C2977 C549 0.587 . S
C2982 N365 0.448 . S
C3007 N794 0.448 . S
C3012 C582 0.587 . S
C3037 N299 0.448 . S
C3042 C615 0.587 . S
C3067 N860 0.448 . S
C3072 C648 0.587 . S
C3097 C681 0.587 . S
C3102 N431 0.448 . S
C3127 C714 0.587 . S
C3132 N992 0.448 . S
C3157 N497 0.448 . S
C3162 C747 0.587 . S
C3187 C780 0.587 . S
C3192 N926 0.448 . S
C3217 C813 0.587 . S
C3222 N101 0.448 . S
C3247 N530 0.448 . S
C3252 C846 0.587 . S
C3277 C879 0.587 . S
C3282 N35 0.448 . S
C3307 C912 0.587 . S
C3312 N596 0.448 . S
C3337 C945 0.587 . S
C3342 N167 0.448 . S
C3367 N728 0.448 . S
C3372 C978 0.587 . S
C3397 C1011 0.587 . S
C3402 N233 0.448 . S
C3427 C1044 0.587 . S
C3432 N662 0.448 . S
