# Generated by pormake.
# Topology uob, (4)-cn, num edge types: 1
# Building blocks:
#     Node 0, Type 0, BuildingBlock: KUFVIS_clean_sbu_0, # of connection points: 4
#     Node 1, Type 0, BuildingBlock: KUFVIS_clean_sbu_0, # of connection points: 4
#     Node 2, Type 0, BuildingBlock: KUFVIS_clean_sbu_0, # of connection points: 4
#     Node 3, Type 0, BuildingBlock: KUFVIS_clean_sbu_0, # of connection points: 4
#     Node 4, Type 0, BuildingBlock: KUFVIS_clean_sbu_0, # of connection points: 4
#     Node 5, Type 0, BuildingBlock: KUFVIS_clean_sbu_0, # of connection points: 4
#     Node 6, Type 0, BuildingBlock: KUFVIS_clean_sbu_0, # of connection points: 4
#     Node 7, Type 0, BuildingBlock: KUFVIS_clean_sbu_0, # of connection points: 4
#     Node 8, Type 0, BuildingBlock: KUFVIS_clean_sbu_0, # of connection points: 4
#     Node 9, Type 0, BuildingBlock: KUFVIS_clean_sbu_0, # of connection points: 4
#     Node 10, Type 0, BuildingBlock: KUFVIS_clean_sbu_0, # of connection points: 4
#     Node 11, Type 0, BuildingBlock: KUFVIS_clean_sbu_0, # of connection points: 4
#     Node 12, Type 0, BuildingBlock: KUFVIS_clean_sbu_0, # of connection points: 4
#     Node 13, Type 0, BuildingBlock: KUFVIS_clean_sbu_0, # of connection points: 4
#     Node 14, Type 0, BuildingBlock: KUFVIS_clean_sbu_0, # of connection points: 4
#     Node 15, Type 0, BuildingBlock: KUFVIS_clean_sbu_0, # of connection points: 4
#     Edge 16, Type (0, 0), BuildingBlock: AJUNOK_clean_linker_0, # of connection points: 2
#     Edge 17, Type (0, 0), BuildingBlock: AJUNOK_clean_linker_0, # of connection points: 2
#     Edge 18, Type (0, 0), BuildingBlock: AJUNOK_clean_linker_0, # of connection points: 2
#     Edge 19, Type (0, 0), BuildingBlock: AJUNOK_clean_linker_0, # of connection points: 2
#     Edge 20, Type (0, 0), BuildingBlock: AJUNOK_clean_linker_0, # of connection points: 2
#     Edge 21, Type (0, 0), BuildingBlock: AJUNOK_clean_linker_0, # of connection points: 2
#     Edge 22, Type (0, 0), BuildingBlock: AJUNOK_clean_linker_0, # of connection points: 2
#     Edge 23, Type (0, 0), BuildingBlock: AJUNOK_clean_linker_0, # of connection points: 2
#     Edge 24, Type (0, 0), BuildingBlock: AJUNOK_clean_linker_0, # of connection points: 2
#     Edge 25, Type (0, 0), BuildingBlock: AJUNOK_clean_linker_0, # of connection points: 2
#     Edge 26, Type (0, 0), BuildingBlock: AJUNOK_clean_linker_0, # of connection points: 2
#     Edge 27, Type (0, 0), BuildingBlock: AJUNOK_clean_linker_0, # of connection points: 2
#     Edge 28, Type (0, 0), BuildingBlock: AJUNOK_clean_linker_0, # of connection points: 2
#     Edge 29, Type (0, 0), BuildingBlock: AJUNOK_clean_linker_0, # of connection points: 2
#     Edge 30, Type (0, 0), BuildingBlock: AJUNOK_clean_linker_0, # of connection points: 2
#     Edge 31, Type (0, 0), BuildingBlock: AJUNOK_clean_linker_0, # of connection points: 2
#     Edge 32, Type (0, 0), BuildingBlock: AJUNOK_clean_linker_0, # of connection points: 2
#     Edge 33, Type (0, 0), BuildingBlock: AJUNOK_clean_linker_0, # of connection points: 2
#     Edge 34, Type (0, 0), BuildingBlock: AJUNOK_clean_linker_0, # of connection points: 2
#     Edge 35, Type (0, 0), BuildingBlock: AJUNOK_clean_linker_0, # of connection points: 2
#     Edge 36, Type (0, 0), BuildingBlock: AJUNOK_clean_linker_0, # of connection points: 2
#     Edge 37, Type (0, 0), BuildingBlock: AJUNOK_clean_linker_0, # of connection points: 2
#     Edge 38, Type (0, 0), BuildingBlock: AJUNOK_clean_linker_0, # of connection points: 2
#     Edge 39, Type (0, 0), BuildingBlock: AJUNOK_clean_linker_0, # of connection points: 2
#     Edge 40, Type (0, 0), BuildingBlock: AJUNOK_clean_linker_0, # of connection points: 2
#     Edge 41, Type (0, 0), BuildingBlock: AJUNOK_clean_linker_0, # of connection points: 2
#     Edge 42, Type (0, 0), BuildingBlock: AJUNOK_clean_linker_0, # of connection points: 2
#     Edge 43, Type (0, 0), BuildingBlock: AJUNOK_clean_linker_0, # of connection points: 2
#     Edge 44, Type (0, 0), BuildingBlock: AJUNOK_clean_linker_0, # of connection points: 2
#     Edge 45, Type (0, 0), BuildingBlock: AJUNOK_clean_linker_0, # of connection points: 2
#     Edge 46, Type (0, 0), BuildingBlock: AJUNOK_clean_linker_0, # of connection points: 2
#     Edge 47, Type (0, 0), BuildingBlock: AJUNOK_clean_linker_0, # of connection points: 2
# Relax obj value: 0.183
# Max RMSD: 0.227
# Mean RMSD: 0.227
data_MOF--net-uob--node1-KUFVIS_clean_sbu_0--edge1-AJUNOK_clean_linker_0
_symmetry_space_group_name_H-M    P1
_symmetry_Int_Tables_number       1
_symmetry_cell_setting            triclinic
loop_
_symmetry_equiv_pos_as_xyz
'x, y, z'
_cell_length_a     40.055942
_cell_length_b     40.065887
_cell_length_c     19.313331
_cell_angle_alpha  90.123485
_cell_angle_beta   89.972264
_cell_angle_gamma 89.976003
loop_
_atom_site_label
_atom_site_type_symbol
_atom_site_fract_x
_atom_site_fract_y
_atom_site_fract_z
_atom_type_partial_charge
Mn0 Mn 0.1421 0.06488 0.2818 0.0
Mn1 Mn 0.08141 0.12292 0.28802 0.0
C2 C 0.11262 0.07311 0.38092 0.0
C3 C 0.20017 0.05857 0.31239 0.0
C4 C 0.06949 0.05314 0.23191 0.0
O5 O 0.15003 0.09063 0.19243 0.0
O6 O 0.10787 0.12744 0.20185 0.0
C7 C 0.12729 0.18022 0.30578 0.0
N8 N 0.1012 0.1616 0.32917 0.0
C9 C 0.0967 0.19503 0.43247 0.0
C10 C 0.12337 0.21472 0.40925 0.0
C11 C 0.13873 0.20726 0.34564 0.0
C12 C 0.08635 0.16846 0.39046 0.0
H13 H 0.13938 0.17437 0.25727 0.0
C14 C 0.13249 0.11474 0.16882 0.0
O15 O 0.18512 0.03583 0.27575 0.0
O16 O 0.18259 0.08447 0.32439 0.0
N17 N 0.05345 0.12181 0.36838 0.0
C18 C 0.02728 0.10113 0.38208 0.0
C19 C 0.00886 0.10555 0.44334 0.0
C20 C 0.01733 0.13135 0.48944 0.0
C21 C 0.04366 0.15299 0.47307 0.0
C22 C 0.06079 0.14766 0.41078 0.0
H23 H 0.02071 0.08122 0.34688 0.0
O24 O 0.12951 0.04604 0.37258 0.0
O25 O 0.11462 0.09519 0.33222 0.0
O26 O 0.09976 0.04192 0.23832 0.0
O27 O 0.06069 0.0828 0.24883 0.0
C28 C 0.05362 0.17961 0.51611 0.0
C29 C 0.0802 0.20053 0.49593 0.0
H30 H 0.13234 0.23552 0.43996 0.0
H31 H 0.15944 0.22223 0.32754 0.0
H32 H 0.98836 0.08893 0.45525 0.0
H33 H 1.00334 0.13441 0.53705 0.0
H34 H 0.04105 0.18412 0.56487 0.0
H35 H 0.08777 0.2208 0.52952 0.0
Mn36 Mn 0.94567 0.63398 0.53511 0.0
Mn37 Mn 0.88738 0.57351 0.53659 0.0
C38 C 0.93607 0.60422 0.63309 0.0
C39 C 0.95216 0.69189 0.56641 0.0
C40 C 0.95819 0.56107 0.48672 0.0
O41 O 0.92126 0.64234 0.44406 0.0
O42 O 0.88469 0.59989 0.44997 0.0
C43 C 0.82995 0.61977 0.54843 0.0
N44 N 0.84808 0.59383 0.57409 0.0
C45 C 0.81286 0.5904 0.67483 0.0
C46 C 0.79368 0.61692 0.64925 0.0
C47 C 0.80227 0.63166 0.58575 0.0
C48 C 0.84008 0.57954 0.63523 0.0
H49 H 0.83664 0.63142 0.50002 0.0
C50 C 0.89757 0.62482 0.41848 0.0
O51 O 0.97525 0.67654 0.53121 0.0
O52 O 0.92584 0.67471 0.57687 0.0
N53 N 0.88657 0.5458 0.61724 0.0
C54 C 0.90646 0.51926 0.6328 0.0
C55 C 0.90071 0.50123 0.69396 0.0
C56 C 0.87443 0.5105 0.73815 0.0
C57 C 0.85358 0.53716 0.7198 0.0
C58 C 0.8602 0.55385 0.65765 0.0
H59 H 0.92686 0.51221 0.59939 0.0
O60 O 0.96323 0.62114 0.62671 0.0
O61 O 0.9145 0.60654 0.5833 0.0
O62 O 0.96909 0.59147 0.49289 0.0
O63 O 0.92819 0.55232 0.50121 0.0
C64 C 0.82643 0.54778 0.76066 0.0
C65 C 0.80615 0.57445 0.73825 0.0
H66 H 0.77237 0.62622 0.678 0.0
H67 H 0.78766 0.65222 0.56577 0.0
H68 H 0.91673 0.48048 0.70736 0.0
H69 H 0.87035 0.49684 0.78574 0.0
H70 H 0.82095 0.53559 0.80931 0.0
H71 H 0.7854 0.58245 0.77 0.0
Mn72 Mn 0.37379 0.4519 0.78913 0.0
Mn73 Mn 0.43537 0.39489 0.79453 0.0
C74 C 0.40241 0.44298 0.88905 0.0
C75 C 0.31581 0.45739 0.82099 0.0
C76 C 0.44629 0.4652 0.74031 0.0
O77 O 0.36673 0.42661 0.69849 0.0
O78 O 0.40882 0.38971 0.70871 0.0
C79 C 0.39111 0.33637 0.81201 0.0
N80 N 0.41666 0.35574 0.83544 0.0
C81 C 0.42196 0.3227 0.93871 0.0
C82 C 0.39586 0.30223 0.91549 0.0
C83 C 0.38036 0.30912 0.85185 0.0
C84 C 0.43164 0.34942 0.89674 0.0
H85 H 0.37889 0.3418 0.76349 0.0
C86 C 0.38427 0.40228 0.67537 0.0
O87 O 0.33056 0.48058 0.78527 0.0
O88 O 0.33329 0.43115 0.82995 0.0
N89 N 0.46329 0.3969 0.87479 0.0
C90 C 0.48887 0.41833 0.88857 0.0
C91 C 0.50737 0.41452 0.94982 0.0
C92 C 0.49958 0.38856 -0.00415 0.0
C93 C 0.47378 0.36626 0.9795 0.0
C94 C 0.45659 0.37098 0.91718 0.0
H95 H 0.49493 0.43836 0.85343 0.0
O96 O 0.38553 0.47004 0.88122 0.0
O97 O 0.4013 0.42151 0.83895 0.0
O98 O 0.41598 0.47615 0.74773 0.0
O99 O 0.45522 0.43543 0.75556 0.0
C100 C 0.4644 0.33956 0.02261 0.0
C101 C 0.4384 0.31793 0.00233 0.0
H102 H 0.3874 0.2813 0.94629 0.0
H103 H 0.36007 0.29356 0.83374 0.0
H104 H 0.5274 0.43171 0.96178 0.0
H105 H 0.5136 0.38595 0.04347 0.0
H106 H 0.47695 0.33555 0.07151 0.0
H107 H 0.43115 0.29774 0.036 0.0
Mn108 Mn 0.56101 0.8861 0.05354 0.0
Mn109 Mn 0.61754 0.94786 0.06271 0.0
C110 C 0.56965 0.91401 0.15516 0.0
C111 C 0.55613 0.82756 0.08053 0.0
C112 C 0.54743 0.95865 0.0064 0.0
O113 O 0.58734 0.87946 0.96406 0.0
O114 O 0.62357 0.922 0.97581 0.0
C115 C 0.67666 0.90415 0.07905 0.0
N116 N 0.65682 0.92915 0.10352 0.0
C117 C 0.6904 0.9347 0.20625 0.0
C118 C 0.71129 0.90915 0.18193 0.0
C119 C 0.70435 0.89379 0.11809 0.0
C120 C 0.66316 0.94396 0.16509 0.0
H121 H 0.67134 0.89212 0.03021 0.0
C122 C 0.61176 0.89713 0.9421 0.0
O123 O 0.53292 0.84259 0.04528 0.0
O124 O 0.58153 0.84559 0.09396 0.0
N125 N 0.61489 0.97475 0.14469 0.0
C126 C 0.59247 0.99919 0.16058 0.0
C127 C 0.59606 0.01724 0.22255 0.0
C128 C 0.62268 0.01006 0.26743 0.0
C129 C 0.6458 0.98522 0.24939 0.0
C130 C 0.64116 0.96834 0.18656 0.0
H131 H 0.57185 1.00469 0.12654 0.0
O132 O 0.54237 0.89752 0.1459 0.0
O133 O 0.59092 0.91333 0.1048 0.0
O134 O 0.53693 0.92815 0.01181 0.0
O135 O 0.57696 0.96786 0.02343 0.0
C136 C 0.67328 0.97658 0.29125 0.0
C137 C 0.69544 0.95119 0.26989 0.0
H138 H 0.73265 0.90107 0.21194 0.0
H139 H 0.72029 0.87396 0.09907 0.0
H140 H 0.57817 0.03646 0.23595 0.0
H141 H 0.62515 0.02378 0.31554 0.0
H142 H 0.67757 0.98923 0.34007 0.0
H143 H 0.71631 0.94457 0.30272 0.0
Mn144 Mn 0.13536 0.44769 0.01847 0.0
Mn145 Mn 0.07549 0.3887 0.01912 0.0
C146 C 0.10609 0.43608 0.92035 0.0
C147 C 0.19281 0.45589 0.98725 0.0
C148 C 0.06251 0.45979 0.06677 0.0
O149 O 0.14392 0.42445 0.11092 0.0
O150 O 0.10232 0.38687 0.1051 0.0
C151 C 0.1213 0.33085 0.00929 0.0
N152 N 0.09543 0.34893 0.9831 0.0
C153 C 0.09031 0.31177 0.88568 0.0
C154 C 0.11676 0.29264 0.9118 0.0
C155 C 0.13234 0.30226 0.97384 0.0
C156 C 0.08037 0.33998 0.92326 0.0
H157 H 0.13346 0.33824 0.05679 0.0
C158 C 0.12687 0.40049 0.13673 0.0
O159 O 0.17666 0.47871 0.02173 0.0
O160 O 0.17685 0.42858 0.97838 0.0
N161 N 0.0475 0.38729 0.93887 0.0
C162 C 0.02139 0.40758 0.92224 0.0
C163 C 1.00307 0.40131 0.86159 0.0
C164 C 0.01149 0.37401 0.81924 0.0
C165 C 0.03771 0.35282 0.83872 0.0
C166 C 0.05488 0.36017 0.90004 0.0
H167 H 0.01487 0.42863 0.95451 0.0
O168 O 0.12235 0.46368 0.9257 0.0
O169 O 0.10853 0.4153 0.97145 0.0
O170 O 0.09261 0.47115 0.05923 0.0
O171 O 0.05423 0.42961 0.05339 0.0
C172 C 0.04737 0.32461 0.79993 0.0
C173 C 0.07362 0.30411 0.82352 0.0
H174 H 0.12539 0.27061 0.88449 0.0
H175 H 0.15285 0.2877 -0.00577 0.0
H176 H 0.98267 0.4176 0.84728 0.0
H177 H 0.9975 0.36942 0.7722 0.0
H178 H 0.03471 0.31839 0.75207 0.0
H179 H 0.08078 0.28245 0.79369 0.0
Mn180 Mn 0.56428 0.64237 0.26333 0.0
Mn181 Mn 0.62162 0.58061 0.26612 0.0
C182 C 0.57657 0.61339 0.16522 0.0
C183 C 0.55873 0.70042 0.23315 0.0
C184 C 0.54911 0.56955 0.30746 0.0
O185 O 0.58657 0.6499 0.35705 0.0
O186 O 0.62225 0.60658 0.35306 0.0
C187 C 0.67999 0.62607 0.26341 0.0
N188 N 0.6623 0.60055 0.23454 0.0
C189 C 0.70057 0.59714 0.13866 0.0
C190 C 0.71937 0.62311 0.1678 0.0
C191 C 0.70898 0.63767 0.2304 0.0
C192 C 0.67189 0.58665 0.17386 0.0
H193 H 0.67196 0.63767 0.31106 0.0
C194 C 0.60958 0.63188 0.38366 0.0
O195 O 0.53481 0.68503 0.26567 0.0
O196 O 0.58529 0.68318 0.22551 0.0
N197 N 0.62468 0.55333 0.18482 0.0
C198 C 0.60637 0.52586 0.16809 0.0
C199 C 0.61341 0.50836 0.10671 0.0
C200 C 0.64025 0.51837 0.06481 0.0
C201 C 0.66049 0.54502 0.0861 0.0
C202 C 0.65206 0.56156 0.14768 0.0
H203 H 0.5871 0.51699 0.20222 0.0
O204 O 0.54934 0.6304 0.16918 0.0
O205 O 0.59656 0.61472 0.21784 0.0
O206 O 0.53891 0.60011 0.30105 0.0
O207 O 0.57914 0.5599 0.29533 0.0
C208 C 0.68905 0.55539 0.04943 0.0
C209 C 0.70906 0.58144 0.07576 0.0
H210 H 0.74171 0.63215 0.14239 0.0
H211 H 0.72322 0.65788 0.25302 0.0
H212 H 0.59845 0.48697 0.09221 0.0
H213 H 0.64568 0.50482 0.01753 0.0
H214 H 0.69603 0.54329 0.00138 0.0
H215 H 0.73104 0.58913 0.04761 0.0
Mn216 Mn 0.38562 0.05871 0.49399 0.0
Mn217 Mn 0.44752 0.11495 0.48459 0.0
C218 C 0.41341 0.06718 0.39196 0.0
C219 C 0.32701 0.05447 0.46621 0.0
C220 C 0.45794 0.04507 0.54204 0.0
O221 O 0.37927 0.08509 0.58376 0.0
O222 O 0.42141 0.12176 0.57082 0.0
C223 C 0.4044 0.17427 0.46564 0.0
N224 N 0.42937 0.15407 0.44239 0.0
C225 C 0.4363 0.18724 0.33971 0.0
C226 C 0.41083 0.20856 0.36276 0.0
C227 C 0.39474 0.20198 0.42593 0.0
C228 C 0.44475 0.15996 0.38131 0.0
H229 H 0.39189 0.16924 0.51405 0.0
C230 C 0.39684 0.10974 0.60514 0.0
O231 O 0.34172 0.03106 0.50136 0.0
O232 O 0.34533 0.07971 0.45357 0.0
N233 N 0.47473 0.11138 0.40335 0.0
C234 C 0.4989 0.0885 0.3885 0.0
C235 C 0.51741 0.09155 0.32707 0.0
C236 C 0.51098 0.11814 0.2817 0.0
C237 C 0.48641 0.14172 0.2987 0.0
C238 C 0.46896 0.13754 0.36093 0.0
H239 H 0.50387 0.06795 0.423 0.0
O240 O 0.39685 0.04 0.4014 0.0
O241 O 0.41292 0.08841 0.44246 0.0
O242 O 0.42754 0.03438 0.53567 0.0
O243 O 0.46704 0.07462 0.52537 0.0
C244 C 0.47866 0.16929 0.25653 0.0
C245 C 0.45356 0.19194 0.27698 0.0
H246 H 0.40335 0.22996 0.33227 0.0
H247 H 0.37495 0.21822 0.44395 0.0
H248 H 0.53642 0.07331 0.3145 0.0
H249 H 0.52511 0.12025 0.23407 0.0
H250 H 0.49183 0.17333 0.20827 0.0
H251 H 0.44782 0.21299 0.24434 0.0
Mn252 Mn 0.95229 0.87314 0.76707 0.0
Mn253 Mn 0.89904 0.93825 0.77453 0.0
C254 C 0.94258 0.90467 0.67119 0.0
C255 C 0.95437 0.81536 0.73291 0.0
C256 C 0.97137 0.94364 0.81915 0.0
O257 O 0.92943 0.86611 0.86073 0.0
O258 O 0.8944 0.91006 0.8581 0.0
C259 C 0.83767 0.8977 0.75926 0.0
N260 N 0.85787 0.92265 0.73617 0.0
C261 C 0.82287 0.93171 0.63672 0.0
C262 C 0.80151 0.90634 0.65978 0.0
C263 C 0.80897 0.88925 0.72131 0.0
C264 C 0.85103 0.9391 0.67679 0.0
H265 H 0.84354 0.88419 0.80601 0.0
C266 C 0.90649 0.88423 0.88778 0.0
O267 O 0.97903 0.82881 0.76681 0.0
O268 O 0.92881 0.83419 0.72653 0.0
N269 N 0.90062 0.96774 0.69674 0.0
C270 C 0.92311 0.99236 0.6829 0.0
C271 C 0.91909 0.01204 0.62338 0.0
C272 C 0.89182 1.00642 0.57914 0.0
C273 C 0.86842 0.98167 0.59569 0.0
C274 C 0.87348 0.9632 0.65628 0.0
H275 H 0.94413 0.99676 0.71667 0.0
O276 O 0.9683 0.88542 0.67379 0.0
O277 O 0.92239 0.90373 0.7236 0.0
O278 O 0.98011 0.91307 0.80679 0.0
O279 O 0.94174 0.95502 0.81098 0.0
C280 C 0.84026 0.97462 0.55453 0.0
C281 C 0.81756 0.94963 0.57505 0.0
H282 H 0.77946 0.89963 0.63041 0.0
H283 H 0.79274 0.86948 0.73922 0.0
H284 H 0.93711 0.03129 0.61133 0.0
H285 H 0.88901 0.02136 0.53283 0.0
H286 H 0.83581 0.98825 0.50702 0.0
H287 H 0.79606 0.94442 0.54315 0.0
Mn288 Mn 0.63415 0.56698 0.78805 0.0
Mn289 Mn 0.57343 0.62483 0.79815 0.0
C290 C 0.60735 0.57668 0.88991 0.0
C291 C 0.69266 0.56136 0.81724 0.0
C292 C 0.56072 0.55448 0.74466 0.0
O293 O 0.6404 0.59222 0.69734 0.0
O294 O 0.59865 0.62932 0.71078 0.0
C295 C 0.6188 0.68279 0.81145 0.0
N296 N 0.5933 0.66399 0.83694 0.0
C297 C 0.58892 0.69883 0.93811 0.0
C298 C 0.61495 0.71874 0.91271 0.0
C299 C 0.63002 0.71061 0.84918 0.0
C300 C 0.57889 0.67137 0.8984 0.0
H301 H 0.63058 0.67653 0.76284 0.0
C302 C 0.62268 0.61669 0.67582 0.0
O303 O 0.67742 0.53806 0.78263 0.0
O304 O 0.67517 0.58748 0.82676 0.0
N305 N 0.54682 0.62372 0.88051 0.0
C306 C 0.52135 0.6026 0.89682 0.0
C307 C 0.50341 0.60752 0.95853 0.0
C308 C 0.5116 0.63429 0.00242 0.0
C309 C 0.53733 0.6562 0.98365 0.0
C310 C 0.55405 0.65027 0.92112 0.0
H311 H 0.515 0.58195 0.86343 0.0
O312 O 0.62341 0.54919 0.88091 0.0
O313 O 0.60794 0.59792 0.83971 0.0
O314 O 0.59109 0.54334 0.74904 0.0
O315 O 0.55234 0.58435 0.761 0.0
C316 C 0.54693 0.68378 0.02434 0.0
C317 C 0.57278 0.70499 0.00162 0.0
H318 H 0.62369 0.74019 0.94176 0.0
H319 H 0.65027 0.72572 0.82941 0.0
H320 H 0.48347 0.59059 0.97244 0.0
H321 H 0.49792 0.63783 0.05027 0.0
H322 H 0.5346 0.6889 0.07313 0.0
H323 H 0.58004 0.72604 0.03312 0.0
Mn324 Mn 0.44126 0.14447 0.02198 0.0
Mn325 Mn 0.38304 0.08392 0.01658 0.0
C326 C 0.42891 0.11511 0.1189 0.0
C327 C 0.44666 0.20221 0.05626 0.0
C328 C 0.45554 0.07087 0.97991 0.0
O329 O 0.4206 0.15215 0.92671 0.0
O330 O 0.38465 0.10914 0.9286 0.0
C331 C 0.32633 0.13139 0.01531 0.0
N332 N 0.34274 0.10546 0.04559 0.0
C333 C 0.30382 0.10463 0.14056 0.0
C334 C 0.28635 0.13114 0.11009 0.0
C335 C 0.29769 0.14458 0.04721 0.0
C336 C 0.33223 0.09257 0.10643 0.0
H337 H 0.33512 0.14207 0.9674 0.0
C338 C 0.39845 0.13378 0.89799 0.0
O339 O 0.4709 0.18711 0.02414 0.0
O340 O 0.41979 0.18528 0.05945 0.0
N341 N 0.37795 0.05701 0.09758 0.0
C342 C 0.39519 0.02902 0.11559 0.0
C343 C 0.38655 0.01193 0.17645 0.0
C344 C 0.35964 0.02321 0.21692 0.0
C345 C 0.34092 0.05077 0.19479 0.0
C346 C 0.35065 0.06667 0.13355 0.0
H347 H 0.41576 0.02019 0.08436 0.0
O348 O 0.45575 0.13258 0.11589 0.0
O349 O 0.40855 0.11703 0.06683 0.0
O350 O 0.46609 0.10146 0.9855 0.0
O351 O 0.42516 0.06206 -0.00943 0.0
C352 C 0.31263 0.06272 0.23039 0.0
C353 C 0.29413 0.08968 0.20339 0.0
H354 H 0.26425 0.14137 0.13454 0.0
H355 H 0.28444 0.16514 0.02351 0.0
H356 H 0.40068 0.99023 0.19228 0.0
H357 H 0.35316 0.01012 0.26406 0.0
H358 H 0.30473 0.0511 0.27812 0.0
H359 H 0.27228 0.09852 0.23086 0.0
Mn360 Mn 0.88473 0.94948 0.29393 0.0
Mn361 Mn 0.94697 0.89348 0.30026 0.0
C362 C 0.91402 0.94159 0.39435 0.0
C363 C 0.82639 0.95262 0.32726 0.0
C364 C 0.95645 0.96341 0.24252 0.0
O365 O 0.87772 0.92345 0.20399 0.0
O366 O 0.91998 0.88681 0.21526 0.0
C367 C 0.90399 0.83433 0.32171 0.0
N368 N 0.92936 0.8544 0.34343 0.0
C369 C 0.93717 0.82155 0.44624 0.0
C370 C 0.91134 0.80033 0.42472 0.0
C371 C 0.8946 0.80683 0.36228 0.0
C372 C 0.94534 0.84861 0.40384 0.0
H373 H 0.89094 0.83937 0.27394 0.0
C374 C 0.89535 0.89906 0.1815 0.0
O375 O 0.84001 0.9764 0.29143 0.0
O376 O 0.84535 0.92757 0.33645 0.0
N377 N 0.97527 0.89697 0.37983 0.0
C378 C 0.99979 0.91968 0.39306 0.0
C379 C 0.0189 0.91676 0.45371 0.0
C380 C 0.0128 0.89037 0.49977 0.0
C381 C 0.98789 0.86693 0.48434 0.0
C382 C 0.96986 0.87096 0.42281 0.0
H383 H 1.0045 0.94008 0.35803 0.0
O384 O 0.89676 0.96837 0.38583 0.0
O385 O 0.91294 0.92004 0.34447 0.0
O386 O 0.92611 0.97414 0.25056 0.0
O387 O 0.96579 0.93385 0.25857 0.0
C388 C 0.98029 0.83968 0.52748 0.0
C389 C 0.95495 0.81707 0.50836 0.0
H390 H 0.90402 0.77913 0.45597 0.0
H391 H 0.87447 0.79071 0.34554 0.0
H392 H 0.03813 0.93492 0.46513 0.0
H393 H 0.02739 0.88834 0.54679 0.0
H394 H 0.99377 0.83584 0.57542 0.0
H395 H 0.9494 0.79622 0.54157 0.0
Mn396 Mn 0.06377 0.37685 0.54256 0.0
Mn397 Mn 0.11943 0.43955 0.54931 0.0
C398 C 0.07137 0.40618 0.64271 0.0
C399 C 0.06014 0.31849 0.5736 0.0
C400 C 0.04947 0.44858 0.49134 0.0
O401 O 0.09007 0.36995 0.45317 0.0
O402 O 0.12613 0.41273 0.46394 0.0
C403 C 0.17903 0.397 0.56986 0.0
N404 N 0.15873 0.42209 0.59216 0.0
C405 C 0.1914 0.42953 0.69557 0.0
C406 C 0.21283 0.40396 0.67344 0.0
C407 C 0.20656 0.38758 0.61038 0.0
C408 C 0.16439 0.43784 0.65301 0.0
H409 H 0.17416 0.3842 0.52166 0.0
C410 C 0.11425 0.38778 0.43057 0.0
O411 O 0.03667 0.33248 0.5373 0.0
O412 O 0.08521 0.33725 0.5849 0.0
N413 N 0.11593 0.4677 0.62922 0.0
C414 C 0.09326 0.49229 0.64246 0.0
C415 C 0.09605 0.51118 0.70353 0.0
C416 C 0.12228 0.50482 0.74996 0.0
C417 C 0.14576 0.47995 0.73436 0.0
C418 C 0.1419 0.46219 0.67234 0.0
H419 H 0.07305 0.49727 0.60697 0.0
O420 O 0.04468 0.38874 0.6341 0.0
O421 O 0.09307 0.40525 0.59309 0.0
O422 O 0.03901 0.41816 0.49908 0.0
O423 O 0.07885 0.45821 0.50811 0.0
C424 C 0.17283 0.47206 0.77791 0.0
C425 C 0.19556 0.44681 0.75857 0.0
H426 H 0.23402 0.39655 0.70469 0.0
H427 H 0.22286 0.36767 0.59316 0.0
H428 H 0.07791 0.53045 0.715 0.0
H429 H 0.12417 0.51921 0.79734 0.0
H430 H 0.17636 0.4852 0.82641 0.0
H431 H 0.21615 0.44082 0.79248 0.0
Mn432 Mn 0.64568 0.94275 0.52631 0.0
Mn433 Mn 0.58623 0.88331 0.52774 0.0
C434 C 0.61719 0.9306 0.42828 0.0
C435 C 0.70361 0.9497 0.49591 0.0
C436 C 0.57154 0.9551 0.56705 0.0
O437 O 0.65315 0.92148 0.62102 0.0
O438 O 0.61085 0.88485 0.61638 0.0
C439 C 0.63483 0.82759 0.52847 0.0
N440 N 0.60873 0.84367 0.49803 0.0
C441 C 0.60887 0.80512 0.40229 0.0
C442 C 0.63561 0.78802 0.43283 0.0
C443 C 0.64866 0.79934 0.49617 0.0
C444 C 0.59621 0.83318 0.43676 0.0
H445 H 0.64514 0.83633 0.57685 0.0
C446 C 0.63486 0.89901 0.6486 0.0
O447 O 0.68758 0.97337 0.52801 0.0
O448 O 0.6872 0.92261 0.48935 0.0
N449 N 0.55986 0.87826 0.44586 0.0
C450 C 0.53171 0.89518 0.42754 0.0
C451 C 0.51496 0.88648 0.36622 0.0
C452 C 0.52675 0.85985 0.32558 0.0
C453 C 0.55451 0.84147 0.3479 0.0
C454 C 0.57007 0.85125 0.40958 0.0
H455 H 0.52248 0.91553 0.45891 0.0
O456 O 0.63411 0.95776 0.43263 0.0
O457 O 0.61917 0.90988 0.47964 0.0
O458 O 0.60194 0.96632 0.56266 0.0
O459 O 0.56338 0.9247 0.55466 0.0
C460 C 0.56702 0.81351 0.31203 0.0
C461 C 0.59424 0.79539 0.33907 0.0
H462 H 0.64631 0.7662 0.40811 0.0
H463 H 0.66938 0.78636 0.51996 0.0
H464 H 0.49312 0.90036 0.35019 0.0
H465 H 0.51391 0.85331 0.27809 0.0
H466 H 0.55564 0.80557 0.26402 0.0
H467 H 0.60353 0.77381 0.3113 0.0
Mn468 Mn 0.06862 0.13369 0.75713 0.0
Mn469 Mn 0.12796 0.07414 0.75376 0.0
C470 C 0.07953 0.10507 0.65785 0.0
C471 C 0.06153 0.19183 0.72833 0.0
C472 C 0.05663 0.05986 0.79805 0.0
O473 O 0.09226 0.14178 0.84926 0.0
O474 O 0.12789 0.09864 0.8428 0.0
C475 C 0.18416 0.12228 0.75343 0.0
N476 N 0.16733 0.09671 0.72259 0.0
C477 C 0.20441 0.09769 0.62449 0.0
C478 C 0.22219 0.12392 0.65535 0.0
C479 C 0.21201 0.13625 0.72013 0.0
C480 C 0.17683 0.0848 0.66008 0.0
H481 H 0.17638 0.13207 0.80297 0.0
C482 C 0.1152 0.12347 0.8751 0.0
O483 O 0.03836 0.17587 0.76191 0.0
O484 O 0.08809 0.17501 0.71796 0.0
N485 N 0.13197 0.04835 0.67052 0.0
C486 C 0.11536 0.01999 0.65262 0.0
C487 C 0.123 1.00385 0.58996 0.0
C488 C 0.14865 0.01627 0.5477 0.0
C489 C 0.1672 0.04396 0.56987 0.0
C490 C 0.15833 0.05897 0.63285 0.0
H491 H 0.09689 0.00951 0.68651 0.0
O492 O 0.052 0.12139 0.66429 0.0
O493 O 0.10075 0.10735 0.70822 0.0
O494 O 0.04561 0.09034 0.7965 0.0
O495 O 0.08659 0.05123 0.78207 0.0
C496 C 0.19455 0.05683 0.5327 0.0
C497 C 0.21307 0.08375 0.55991 0.0
H498 H 0.24371 0.13472 0.62986 0.0
H499 H 0.22557 0.15652 0.74428 0.0
H500 H 0.10934 0.98174 0.57459 0.0
H501 H 0.15449 1.00382 0.49936 0.0
H502 H 0.20176 0.04592 0.48362 0.0
H503 H 0.23418 0.09333 0.53127 0.0
Mn504 Mn 0.87585 0.56238 0.00966 0.0
Mn505 Mn 0.93682 0.61991 0.0042 0.0
C506 C 0.9053 0.57065 0.91024 0.0
C507 C 0.81753 0.55763 0.97856 0.0
C508 C 0.94857 0.54968 0.05807 0.0
O509 O 0.86819 0.58775 0.10009 0.0
O510 O 0.91053 0.62424 0.09072 0.0
C511 C 0.89082 0.67724 0.98833 0.0
N512 N 0.91691 0.65875 0.96424 0.0
C513 C 0.92078 0.69228 0.86131 0.0
C514 C 0.89414 0.71187 0.8853 0.0
C515 C 0.87909 0.70429 0.94907 0.0
C516 C 0.93142 0.6657 0.90273 0.0
H517 H 0.87892 0.67128 0.03693 0.0
C518 C 0.88593 0.61168 0.12396 0.0
O519 O 0.83209 0.53422 0.01397 0.0
O520 O 0.83572 0.58313 0.96769 0.0
N521 N 0.96456 0.61909 0.92345 0.0
C522 C 0.99089 0.59866 0.90913 0.0
C523 C 0.0092 0.60339 0.84787 0.0
C524 C 1.00037 0.62916 0.80224 0.0
C525 C 0.97387 0.65054 0.8192 0.0
C526 C 0.95696 0.64499 0.8816 0.0
H527 H 0.99764 0.57869 0.94378 0.0
O528 O 0.88815 0.54376 0.9181 0.0
O529 O 0.90351 0.59251 0.95957 0.0
O530 O 0.91815 0.53879 0.05213 0.0
O531 O 0.95748 0.57945 0.04211 0.0
C532 C 0.96359 0.67715 0.77671 0.0
C533 C 0.93697 0.69791 0.79763 0.0
H534 H 0.88496 0.73267 0.85504 0.0
H535 H 0.85839 0.71915 0.96776 0.0
H536 H 0.02984 0.58698 0.83552 0.0
H537 H 0.01423 0.63244 0.75456 0.0
H538 H 0.97596 0.68179 0.72784 0.0
H539 H 0.92913 0.71815 0.7645 0.0
Mn540 Mn 0.44715 0.38078 0.26278 0.0
Mn541 Mn 0.39283 0.44511 0.26725 0.0
C542 C 0.43644 0.41098 0.16542 0.0
C543 C 0.45076 0.32287 0.23126 0.0
C544 C 0.4651 0.45192 0.31311 0.0
O545 O 0.42398 0.37386 0.35614 0.0
O546 O 0.38884 0.41765 0.35171 0.0
C547 C 0.33167 0.40395 0.25553 0.0
N548 N 0.3517 0.42857 0.23033 0.0
C549 C 0.31594 0.43625 0.13149 0.0
C550 C 0.29482 0.41116 0.15666 0.0
C551 C 0.30274 0.39493 0.21893 0.0
C552 C 0.34438 0.44422 0.17027 0.0
H553 H 0.33778 0.39119 0.30305 0.0
C554 C 0.40088 0.39204 0.38232 0.0
O555 O 0.47507 0.33728 0.26459 0.0
O556 O 0.42474 0.34097 0.22323 0.0
N557 N 0.39368 0.47371 0.18789 0.0
C558 C 0.4155 0.49874 0.17284 0.0
C559 C 0.41104 0.51758 0.11231 0.0
C560 C 0.38379 0.51096 0.06863 0.0
C561 C 0.36083 0.48606 0.08678 0.0
C562 C 0.36647 0.46828 0.14805 0.0
H563 H 0.43608 0.50432 0.20684 0.0
O564 O 0.4629 0.39277 0.16902 0.0
O565 O 0.4165 0.41024 0.21815 0.0
O566 O 0.47425 0.42135 0.30226 0.0
O567 O 0.43548 0.46291 0.3025 0.0
C568 C 0.33246 0.47833 0.04673 0.0
C569 C 0.31006 0.45344 0.06912 0.0
H570 H 0.27255 0.40405 0.12844 0.0
H571 H 0.28664 0.37542 0.23853 0.0
H572 H 0.42859 0.53713 0.09933 0.0
H573 H 0.38055 0.52537 0.02172 0.0
H574 H 0.32756 0.49144 -0.00121 0.0
H575 H 0.28832 0.44777 0.03814 0.0
C576 C 0.2777 0.02401 0.4087 0.0
C577 C 0.29282 0.05351 0.434 0.0
C578 C 0.24852 0.02516 0.36647 0.0
C579 C 0.23366 0.05586 0.34749 0.0
H580 H 0.28893 1.00004 0.41985 0.0
H581 H 0.23734 1.00195 0.34947 0.0
S582 S 0.26338 0.14011 0.40113 0.0
N583 N 0.28961 0.11405 0.43823 0.0
N584 N 0.23704 0.11632 0.35807 0.0
C585 C 0.24883 0.08526 0.37281 0.0
C586 C 0.27766 0.08405 0.41613 0.0
C587 C 0.98494 0.76613 0.67497 0.0
C588 C 0.95507 0.78277 0.69354 0.0
C589 C 0.98478 0.73784 0.63011 0.0
C590 C 0.95477 0.72535 0.60153 0.0
H591 H 0.00859 0.77517 0.6946 0.0
H592 H 0.00809 0.72513 0.61953 0.0
S593 S 0.86997 0.76047 0.63077 0.0
N594 N 0.89469 0.78403 0.6783 0.0
N595 N 0.89477 0.73309 0.59316 0.0
C596 C 0.92507 0.74231 0.61873 0.0
C597 C 0.92509 0.77027 0.66486 0.0
C598 C 0.27034 0.43031 0.8883 0.0
C599 C 0.28326 0.45998 0.85966 0.0
C600 C 0.24264 0.43019 0.93238 0.0
C601 C 0.22576 0.45971 0.95094 0.0
H602 H 0.28184 0.40645 0.87691 0.0
H603 H 0.23405 0.40625 0.95137 0.0
S604 S 0.24878 0.54468 0.89132 0.0
N605 N 0.27701 0.52028 0.85443 0.0
N606 N 0.22397 0.51994 0.93652 0.0
C607 C 0.23822 0.48986 0.9234 0.0
C608 C 0.26698 0.49001 0.8779 0.0
C609 C 0.52515 0.77839 0.13687 0.0
C610 C 0.55479 0.79323 0.11176 0.0
C611 C 0.526 0.74905 0.17849 0.0
C612 C 0.55653 0.73373 0.19714 0.0
H613 H 0.5013 0.79002 0.12617 0.0
H614 H 0.50267 0.73822 0.1956 0.0
S615 S 0.64106 0.7622 0.14235 0.0
N616 N 0.61525 0.78904 0.10635 0.0
N617 N 0.61705 0.73617 0.18552 0.0
C618 C 0.5861 0.74855 0.17177 0.0
C619 C 0.58517 0.77755 0.12895 0.0
C620 C 0.74081 0.52816 0.87299 0.0
C621 C 0.72568 0.5588 0.85454 0.0
C622 C 0.76944 0.52702 0.91683 0.0
C623 C 0.78379 0.55646 0.94428 0.0
H624 H 0.73028 0.50496 0.85427 0.0
H625 H 0.78092 0.50311 0.92754 0.0
S626 S 0.75332 0.64293 0.91397 0.0
N627 N 0.72796 0.61921 0.8683 0.0
N628 N 0.77956 0.61687 0.95108 0.0
C629 C 0.76839 0.58694 0.92686 0.0
C630 C 0.74005 0.58817 0.88212 0.0
C631 C 0.48107 0.27677 0.1632 0.0
C632 C 0.45192 0.28966 0.19484 0.0
C633 C 0.47971 0.24921 0.11649 0.0
C634 C 0.44908 0.2338 0.09887 0.0
H635 H 0.50487 0.28874 0.17261 0.0
H636 H 0.50273 0.23992 0.09427 0.0
S637 S 0.36573 0.25749 0.17006 0.0
N638 N 0.39198 0.28341 0.20772 0.0
N639 N 0.38893 0.23403 0.11902 0.0
C640 C 0.41997 0.24658 0.13108 0.0
C641 C 0.42153 0.27369 0.17922 0.0
C642 C 0.77711 0.98319 0.38554 0.0
C643 C 0.79348 0.95341 0.36535 0.0
C644 C 0.74895 0.98271 0.43079 0.0
C645 C 0.73649 0.95249 0.45843 0.0
H646 H 0.78637 1.00697 0.36724 0.0
H647 H 0.73652 1.006 0.44298 0.0
S648 S 0.77084 0.86776 0.42366 0.0
N649 N 0.79416 0.8929 0.37677 0.0
N650 N 0.74397 0.89232 0.46341 0.0
C651 C 0.75312 0.92286 0.43912 0.0
C652 C 0.78075 0.92323 0.39234 0.0
C653 C 0.02903 0.26816 0.62588 0.0
C654 C 0.059 0.28501 0.60916 0.0
C655 C 0.02905 0.23897 0.66802 0.0
C656 C 0.05901 0.22575 0.6954 0.0
H657 H 1.00545 0.27778 0.60719 0.0
H658 H 1.00567 0.22623 0.67754 0.0
S659 S 0.14403 0.26083 0.66917 0.0
N660 N 0.11937 0.28553 0.62425 0.0
N661 N 0.11909 0.23287 0.70407 0.0
C662 C 0.08881 0.2428 0.67959 0.0
C663 C 0.08889 0.27173 0.63652 0.0
C664 C 0.04537 0.9955 0.22033 0.0
C665 C 0.04125 0.03011 0.21452 0.0
C666 C 0.01768 0.97412 0.22325 0.0
C667 C 0.98439 0.9863 0.22199 0.0
H668 H 0.07002 0.9849 0.22731 0.0
H669 H 0.02275 0.94785 0.23105 0.0
S670 S 0.96008 0.07409 0.18942 0.0
N671 N 1.00124 0.07496 0.19281 0.0
N672 N 0.94944 0.03476 0.20188 0.0
C673 C 0.97999 0.02042 0.20894 0.0
C674 C 0.00828 0.04225 0.20437 0.0
C675 C 0.96968 0.49937 0.47557 0.0
C676 C 0.9815 0.53269 0.47083 0.0
C677 C 0.99143 0.47185 0.4766 0.0
C678 C 0.02607 0.47616 0.47137 0.0
H679 H 0.94336 0.49429 0.48267 0.0
H680 H 0.98106 0.44729 0.48582 0.0
S681 S 0.06943 0.55709 0.43945 0.0
N682 N 0.02985 0.56755 0.44908 0.0
N683 N 0.07069 0.5161 0.44729 0.0
C684 C 0.03793 0.50897 0.45829 0.0
C685 C 0.01575 0.53709 0.45888 0.0
C686 C 0.47086 0.52295 0.73168 0.0
C687 C 0.47451 0.48839 0.72309 0.0
C688 C 0.49881 0.54413 0.73327 0.0
C689 C 0.53196 0.5318 0.72766 0.0
H690 H 0.44646 0.53362 0.7415 0.0
H691 H 0.49416 0.57035 0.7429 0.0
S692 S 0.55482 0.44409 0.68899 0.0
N693 N 0.51376 0.4435 0.69598 0.0
N694 N 0.566 0.48322 0.70229 0.0
C695 C 0.53575 0.49773 0.7128 0.0
C696 C 0.50719 0.47615 0.70973 0.0
C697 C 0.53554 0.02004 -0.00865 0.0
C698 C 0.52432 0.98653 0.98618 0.0
C699 C 0.5138 0.04733 0.98419 0.0
C700 C 0.47974 0.04264 0.97047 0.0
H701 H 0.56123 0.02556 0.00443 0.0
H702 H 0.52354 0.07217 -0.0067 0.0
S703 S 0.43859 0.9606 0.93791 0.0
N704 N 0.47747 0.95075 0.9574 0.0
N705 N 0.43676 1.00173 0.94123 0.0
C706 C 0.46871 0.00941 0.95882 0.0
C707 C 0.49086 0.98154 0.96731 0.0
C708 C 0.0379 0.51752 0.07595 0.0
C709 C 0.03394 0.48289 0.08219 0.0
C710 C 0.01012 0.53889 0.07373 0.0
C711 C 0.97687 0.52672 0.07628 0.0
H712 H 0.0625 0.52817 0.06872 0.0
H713 H 0.01506 0.56519 0.06605 0.0
S714 S 0.95287 0.43873 0.10781 0.0
N715 N 0.99402 0.43794 0.10373 0.0
N716 N 0.94215 0.47809 0.09618 0.0
C717 C 0.97264 0.49251 0.08875 0.0
C718 C 1.001 0.47069 0.09248 0.0
C719 C 0.49552 0.49795 0.37769 0.0
C720 C 0.49056 0.47868 0.31719 0.0
C721 C 0.51348 0.52847 0.37552 0.0
C722 C 0.52464 0.54175 0.31203 0.0
H723 H 0.48536 0.48949 0.42656 0.0
H724 H 0.51859 0.54165 0.42336 0.0
S725 S 0.51458 0.50279 0.13921 0.0
N726 N 0.49843 0.47533 0.1932 0.0
N727 N 0.52677 0.53436 0.1879 0.0
C728 C 0.51822 0.5233 0.25174 0.0
C729 C 0.50259 0.49144 0.25458 0.0
C730 C 0.5193 0.03421 0.55994 0.0
C731 C 0.48597 0.02226 0.56263 0.0
C732 C 0.54694 0.0129 0.56656 0.0
C733 C 0.54277 0.97856 0.57728 0.0
H734 H 0.52447 0.06019 0.54906 0.0
H735 H 0.57166 0.02325 0.5593 0.0
S736 S 0.46125 0.93535 0.60321 0.0
N737 N 0.45082 0.97433 0.58626 0.0
N738 N 0.50244 0.93435 0.6016 0.0
C739 C 0.50966 0.96671 0.5868 0.0
C740 C 0.48144 0.98845 0.5788 0.0
C741 C 0.03156 1.00748 0.75393 0.0
C742 C 0.03337 0.03133 0.80744 0.0
C743 C 0.01437 0.97735 0.76191 0.0
C744 C 0.99708 0.97004 0.82316 0.0
H745 H 0.04296 0.01247 0.70441 0.0
H746 H 0.01279 0.96057 0.7179 0.0
S747 S 0.99203 0.02455 0.97846 0.0
N748 N 0.01622 0.04554 0.92446 0.0
N749 N 0.9813 0.98981 0.9377 0.0
C750 C 0.99773 0.99398 0.87682 0.0
C751 C 0.01637 0.02442 0.8694 0.0
C752 C 0.11315 0.1131 0.55436 0.0
C753 C 0.08899 0.09445 0.58956 0.0
C754 C 0.11983 0.10661 0.4851 0.0
C755 C 0.10231 0.0815 0.45004 0.0
H756 H 0.12647 0.13311 0.58021 0.0
H757 H 0.13896 0.121 0.45899 0.0
S758 S 0.03711 0.02576 0.52036 0.0
N759 N 0.0469 0.05086 0.58528 0.0
N760 N 0.06137 0.03685 0.45506 0.0
C761 C 0.07868 0.06221 0.48505 0.0
C762 C 0.07114 0.06951 0.55497 0.0
C763 C 0.90265 0.61087 0.73743 0.0
C764 C 0.92724 0.59309 0.70136 0.0
C765 C 0.8966 0.6041 0.80678 0.0
C766 C 0.91505 0.57946 0.84102 0.0
H767 H 0.88854 0.63049 0.71224 0.0
H768 H 0.8772 0.61788 0.83359 0.0
S769 S 0.98179 0.52606 0.76836 0.0
N770 N 0.97094 0.55104 0.70415 0.0
N771 N 0.95737 0.5361 0.83425 0.0
C772 C 0.93913 0.561 0.80514 0.0
C773 C 0.94616 0.56877 0.73524 0.0
C774 C 0.44407 0.44485 0.06103 0.0
C775 C 0.42553 0.42118 0.09769 0.0
C776 C 0.43631 0.45212 -0.00741 0.0
C777 C 0.41164 0.43385 0.95829 0.0
H778 H 0.46455 0.45775 0.08522 0.0
H779 H 0.45019 0.47141 0.96583 0.0
S780 S 0.35663 0.36866 0.03134 0.0
N781 N 0.3815 0.37947 0.0958 0.0
N782 N 0.36774 0.39211 0.96497 0.0
C783 C 0.39297 0.40995 -0.00591 0.0
C784 C 0.40004 0.40349 0.06444 0.0
C785 C 0.61706 0.90083 0.31836 0.0
C786 C 0.60144 0.92329 0.36335 0.0
C787 C 0.60676 0.8986 0.24984 0.0
C788 C 0.58068 0.9188 0.22544 0.0
H789 H 0.63801 0.88586 0.3356 0.0
H790 H 0.61925 0.88109 0.21569 0.0
S791 S 0.53118 0.98006 0.32533 0.0
N792 N 0.55941 0.96615 0.38043 0.0
N793 N 0.53777 0.95976 0.25192 0.0
C794 C 0.56407 0.94037 0.2707 0.0
C795 C 0.57541 0.94353 0.33971 0.0
C796 C 0.06252 0.43822 0.74985 0.0
C797 C 0.08076 0.41439 0.71265 0.0
C798 C 0.07054 0.44497 0.81865 0.0
C799 C 0.09514 0.4262 0.85237 0.0
H800 H 0.04264 0.45217 0.72516 0.0
H801 H 0.05735 0.46468 0.8458 0.0
S802 S 0.14809 0.35954 0.77781 0.0
N803 N 0.12343 0.37123 0.71378 0.0
N804 N 0.13775 0.38318 0.84464 0.0
C805 C 0.11287 0.4017 0.81614 0.0
C806 C 0.10552 0.39563 0.74575 0.0
C807 C 0.56774 0.57806 0.06354 0.0
C808 C 0.58696 0.60202 0.09799 0.0
C809 C 0.57504 0.56918 -0.00424 0.0
C810 C 0.59965 0.58647 0.95948 0.0
H811 H 0.5466 0.5667 0.08832 0.0
H812 H 0.56049 0.54982 0.97069 0.0
S813 S 0.65527 0.65311 0.025 0.0
N814 N 0.63097 0.64365 0.09125 0.0
N815 N 0.64369 0.62823 0.96106 0.0
C816 C 0.61876 0.61097 -0.00738 0.0
C817 C 0.61227 0.61891 0.06261 0.0
C818 C 0.39736 0.10419 0.29743 0.0
C819 C 0.41783 0.07826 0.32154 0.0
C820 C 0.39916 0.11443 0.2288 0.0
C821 C 0.42152 0.09895 0.18337 0.0
H822 H 0.37997 0.11664 0.33191 0.0
H823 H 0.38403 0.13532 0.21188 0.0
S824 S 0.47894 0.02911 0.22054 0.0
N825 N 0.45887 0.03556 0.29421 0.0
N826 N 0.46466 0.05726 0.16575 0.0
C827 C 0.44204 0.07308 0.20676 0.0
C828 C 0.43924 0.06173 0.27582 0.0
C829 C 0.95235 0.94088 0.57079 0.0
C830 C 0.93276 0.91682 0.60411 0.0
C831 C 0.94593 0.94937 0.5021 0.0
C832 C 0.92172 0.9319 0.46441 0.0
H833 H 0.97256 0.95318 0.59803 0.0
H834 H 0.96051 0.96888 0.47781 0.0
S835 S 0.86476 0.86609 0.5284 0.0
N836 N 0.88838 0.87571 0.59561 0.0
N837 N 0.87742 0.89045 0.4647 0.0
C838 C 0.90216 0.90766 0.49711 0.0
C839 C 0.90774 0.90005 0.56752 0.0
C840 C 0.14843 0.10496 0.97776 0.0
C841 C 0.12588 0.12806 0.9484 0.0
C842 C 0.15335 0.1031 0.04934 0.0
C843 C 0.13605 0.12435 0.09479 0.0
H844 H 0.16086 0.08647 0.94585 0.0
H845 H 0.1688 0.08307 0.06911 0.0
S846 S 0.08232 0.19589 0.04335 0.0
N847 N 0.09182 0.1773 0.96955 0.0
N848 N 0.10144 0.17427 0.10427 0.0
C849 C 0.11698 0.15048 0.06564 0.0
C850 C 0.11176 0.1522 -0.00753 0.0
C851 C 0.90964 0.64645 0.29964 0.0
C852 C 0.88794 0.62953 0.34466 0.0
C853 C 0.9067 0.64302 0.22772 0.0
C854 C 0.88207 0.62234 0.1976 0.0
H855 H 0.93069 0.66036 0.3198 0.0
H856 H 0.92561 0.65481 0.19599 0.0
S857 S 0.81304 0.58078 0.29223 0.0
N858 N 0.83638 0.59749 0.35363 0.0
N859 N 0.83128 0.59065 0.2184 0.0
C860 C 0.8577 0.60874 0.24171 0.0
C861 C 0.86054 0.61243 0.31518 0.0
C862 C 0.36205 0.41186 0.55614 0.0
C863 C 0.38053 0.39183 0.60174 0.0
C864 C 0.36649 0.40936 0.48446 0.0
C865 C 0.38984 0.38693 0.45523 0.0
H866 H 0.34599 0.43149 0.57573 0.0
H867 H 0.35318 0.42703 0.4523 0.0
S868 S 0.43661 0.32182 0.55105 0.0
N869 N 0.417 0.34326 0.61178 0.0
N870 N 0.42591 0.33927 0.47696 0.0
C871 C 0.40507 0.36374 0.49962 0.0
C872 C 0.40027 0.36603 0.57287 0.0
C873 C 0.61391 0.86983 0.75444 0.0
C874 C 0.6369 0.89229 0.72439 0.0
C875 C 0.60778 0.86961 0.82579 0.0
C876 C 0.62462 0.89157 0.87051 0.0
H877 H 0.59861 0.85378 0.72229 0.0
H878 H 0.58811 0.85359 0.84509 0.0
S879 S 0.69426 0.94822 0.82088 0.0
N880 N 0.68139 0.93212 0.74684 0.0
N881 N 0.67058 0.93125 0.88125 0.0
C882 C 0.65077 0.91103 0.84236 0.0
C883 C 0.65678 0.91145 0.76932 0.0
C884 C 0.1064 0.3638 0.31197 0.0
C885 C 0.12539 0.38355 0.35741 0.0
C886 C 0.10955 0.36715 0.24015 0.0
C887 C 0.13163 0.39061 0.21049 0.0
H888 H 0.08706 0.34746 0.3316 0.0
H889 H 0.09259 0.35287 0.20801 0.0
S890 S 0.1943 0.44075 0.30647 0.0
N891 N 0.17272 0.42159 0.36741 0.0
N892 N 0.17801 0.42834 0.23227 0.0
C893 C 0.15386 0.40723 0.25507 0.0
C894 C 0.15088 0.40359 0.32851 0.0
C895 C 0.60024 0.64823 0.57448 0.0
C896 C 0.62584 0.62824 0.60305 0.0
C897 C 0.59693 0.65227 0.50291 0.0
C898 C 0.61923 0.63671 0.4571 0.0
H899 H 0.5809 0.65882 0.607 0.0
H900 H 0.57519 0.66535 0.48356 0.0
S901 S 0.69654 0.59098 0.50592 0.0
N902 N 0.67803 0.59919 0.58042 0.0
N903 N 0.67228 0.60725 0.44571 0.0
C904 C 0.64754 0.62062 0.48523 0.0
C905 C 0.65073 0.61626 0.55825 0.0
C906 C 0.4174 0.14218 0.7077 0.0
C907 C 0.39195 0.12282 0.67675 0.0
C908 C 0.41762 0.14882 0.77897 0.0
C909 C 0.39233 0.13648 0.82229 0.0
H910 H 0.43873 0.1504 0.67777 0.0
H911 H 0.43917 0.16133 0.80076 0.0
S912 S 0.31533 0.0927 0.76467 0.0
N913 N 0.33749 0.09723 0.69319 0.0
N914 N 0.33765 0.10995 0.82706 0.0
C915 C 0.36473 0.12061 0.79086 0.0
C916 C 0.36461 0.11368 0.71821 0.0
C917 C 0.9164 0.86707 0.07862 0.0
C918 C 0.89142 0.88751 0.10843 0.0
C919 C 0.91917 0.86312 0.00672 0.0
C920 C 0.89697 0.87924 0.96156 0.0
H921 H 0.9357 0.85601 0.11044 0.0
H922 H 0.94053 0.84963 0.98659 0.0
S923 S 0.82128 0.92693 0.01346 0.0
N924 N 0.83992 0.918 0.08735 0.0
N925 N 0.84473 0.91013 0.95231 0.0
C926 C 0.86929 0.89596 -0.00908 0.0
C927 C 0.86661 0.90021 0.06426 0.0
loop_
_geom_bond_atom_site_label_1
_geom_bond_atom_site_label_2
_geom_bond_distance
_geom_bond_site_symmetry_2
_ccdc_geom_bond_type
Mn0 O5 2.095 . S
Mn0 O15 2.162 . S
Mn0 O16 2.297 . S
Mn0 O24 2.385 . S
Mn0 O25 2.209 . S
Mn0 O26 2.094 . S
Mn1 O6 2.121 . S
Mn1 N8 2.257 . S
Mn1 N17 2.282 . S
Mn1 O25 2.215 . S
Mn1 O27 2.117 . S
C2 O24 1.234 . S
C2 O25 1.283 . S
C3 O15 1.281 . S
C3 O16 1.236 . S
C4 O26 1.240 . S
C4 O27 1.264 . S
O5 Mn0 2.095 . S
O5 C14 1.250 . S
O6 Mn1 2.121 . S
O6 C14 1.258 . S
C7 N8 1.326 . S
C7 C11 1.460 . S
C7 H13 0.929 . S
N8 Mn1 2.257 . S
N8 C7 1.326 . S
N8 C12 1.362 . S
C9 C10 1.258 . S
C9 C12 1.431 . S
C9 C29 1.449 1_455 S
C10 C9 1.258 . S
C10 C11 1.477 . S
C10 H30 0.931 . S
C11 C7 1.460 . S
C11 C10 1.477 . S
C11 H31 0.930 . S
C12 N8 1.362 . S
C12 C9 1.431 . S
C12 C22 1.476 . S
H13 C7 0.929 . S
C14 O5 1.250 . S
C14 O6 1.258 . S
O15 Mn0 2.162 . S
O15 C3 1.281 . S
O16 Mn0 2.297 . S
O16 C3 1.236 . S
N17 Mn1 2.282 . S
N17 C18 1.328 . S
N17 C22 1.318 . S
C18 N17 1.328 . S
C18 C19 1.457 1_455 S
C18 H23 0.929 . S
C19 C18 1.457 1_655 S
C19 C20 1.291 . S
C19 H32 0.931 . S
C20 C19 1.291 . S
C20 C21 1.373 . S
C20 H33 0.929 . S
C21 C20 1.373 . S
C21 C22 1.396 1_655 S
C21 C28 1.403 . S
C22 C12 1.476 . S
C22 N17 1.318 . S
C22 C21 1.396 1_455 S
H23 C18 0.929 . S
O24 Mn0 2.385 . S
O24 C2 1.234 . S
O25 Mn0 2.209 . S
O25 Mn1 2.215 . S
O25 C2 1.283 . S
O26 Mn0 2.094 . S
O26 C4 1.240 . S
O27 Mn1 2.117 . S
O27 C4 1.264 . S
C28 C21 1.403 . S
C28 C29 1.399 . S
C28 H34 0.929 . S
C29 C9 1.449 1_655 S
C29 C28 1.399 . S
C29 H35 0.930 . S
H30 C10 0.931 . S
H31 C11 0.930 . S
H32 C19 0.931 . S
H33 C20 0.929 . S
H34 C28 0.929 . S
H35 C29 0.930 . S
Mn36 O41 2.095 . S
Mn36 O51 2.162 . S
Mn36 O52 2.297 . S
Mn36 O60 2.385 . S
Mn36 O61 2.209 . S
Mn36 O62 2.094 . S
Mn37 O42 2.121 . S
Mn37 N44 2.257 . S
Mn37 N53 2.282 . S
Mn37 O61 2.215 . S
Mn37 O63 2.117 . S
C38 O60 1.234 . S
C38 O61 1.283 . S
C39 O51 1.281 . S
C39 O52 1.236 . S
C40 O62 1.240 . S
C40 O63 1.264 . S
O41 Mn36 2.095 . S
O41 C50 1.250 . S
O42 Mn37 2.121 . S
O42 C50 1.258 . S
C43 N44 1.326 . S
C43 C47 1.460 . S
C43 H49 0.929 . S
N44 Mn37 2.257 . S
N44 C43 1.326 . S
N44 C48 1.362 . S
C45 C46 1.258 . S
C45 C48 1.431 . S
C45 C65 1.449 . S
C46 C45 1.258 . S
C46 C47 1.477 . S
C46 H66 0.931 . S
C47 C43 1.460 . S
C47 C46 1.477 . S
C47 H67 0.930 . S
C48 N44 1.362 . S
C48 C45 1.431 . S
C48 C58 1.476 . S
H49 C43 0.929 . S
C50 O41 1.250 . S
C50 O42 1.258 . S
O51 Mn36 2.162 . S
O51 C39 1.281 . S
O52 Mn36 2.297 . S
O52 C39 1.236 . S
N53 Mn37 2.282 . S
N53 C54 1.328 . S
N53 C58 1.318 . S
C54 N53 1.328 . S
C54 C55 1.457 . S
C54 H59 0.929 . S
C55 C54 1.457 . S
C55 C56 1.291 . S
C55 H68 0.931 . S
C56 C55 1.291 . S
C56 C57 1.373 . S
C56 H69 0.929 . S
C57 C56 1.373 . S
C57 C58 1.396 . S
C57 C64 1.403 . S
C58 C48 1.476 . S
C58 N53 1.318 . S
C58 C57 1.396 . S
H59 C54 0.929 . S
O60 Mn36 2.385 . S
O60 C38 1.234 . S
O61 Mn36 2.209 . S
O61 Mn37 2.215 . S
O61 C38 1.283 . S
O62 Mn36 2.094 . S
O62 C40 1.240 . S
O63 Mn37 2.117 . S
O63 C40 1.264 . S
C64 C57 1.403 . S
C64 C65 1.399 . S
C64 H70 0.929 . S
C65 C45 1.449 . S
C65 C64 1.399 . S
C65 H71 0.930 . S
H66 C46 0.931 . S
H67 C47 0.930 . S
H68 C55 0.931 . S
H69 C56 0.929 . S
H70 C64 0.929 . S
H71 C65 0.930 . S
Mn72 O77 2.095 . S
Mn72 O87 2.162 . S
Mn72 O88 2.297 . S
Mn72 O96 2.385 . S
Mn72 O97 2.209 . S
Mn72 O98 2.094 . S
Mn73 O78 2.121 . S
Mn73 N80 2.257 . S
Mn73 N89 2.282 . S
Mn73 O97 2.215 . S
Mn73 O99 2.117 . S
C74 O96 1.234 . S
C74 O97 1.283 . S
C75 O87 1.281 . S
C75 O88 1.236 . S
C76 O98 1.240 . S
C76 O99 1.264 . S
O77 Mn72 2.095 . S
O77 C86 1.250 . S
O78 Mn73 2.121 . S
O78 C86 1.258 . S
C79 N80 1.326 . S
C79 C83 1.460 . S
C79 H85 0.929 . S
N80 Mn73 2.257 . S
N80 C79 1.326 . S
N80 C84 1.362 . S
C81 C82 1.258 . S
C81 C84 1.431 . S
C81 C101 1.449 . S
C82 C81 1.258 . S
C82 C83 1.477 . S
C82 H102 0.931 . S
C83 C79 1.460 . S
C83 C82 1.477 . S
C83 H103 0.930 . S
C84 N80 1.362 . S
C84 C81 1.431 . S
C84 C94 1.476 . S
H85 C79 0.929 . S
C86 O77 1.250 . S
C86 O78 1.258 . S
O87 Mn72 2.162 . S
O87 C75 1.281 . S
O88 Mn72 2.297 . S
O88 C75 1.236 . S
N89 Mn73 2.282 . S
N89 C90 1.328 . S
N89 C94 1.318 . S
C90 N89 1.328 . S
C90 C91 1.457 1_556 S
C90 H95 0.929 . S
C91 C90 1.457 1_554 S
C91 C92 1.291 . S
C91 H104 0.931 . S
C92 C91 1.291 . S
C92 C93 1.373 1_554 S
C92 H105 0.929 . S
C93 C92 1.373 1_556 S
C93 C94 1.396 . S
C93 C100 1.403 1_556 S
C94 C84 1.476 . S
C94 N89 1.318 . S
C94 C93 1.396 . S
H95 C90 0.929 . S
O96 Mn72 2.385 . S
O96 C74 1.234 . S
O97 Mn72 2.209 . S
O97 Mn73 2.215 . S
O97 C74 1.283 . S
O98 Mn72 2.094 . S
O98 C76 1.240 . S
O99 Mn73 2.117 . S
O99 C76 1.264 . S
C100 C93 1.403 1_554 S
C100 C101 1.399 1_554 S
C100 H106 0.929 . S
C101 C81 1.449 . S
C101 C100 1.399 1_556 S
C101 H107 0.930 . S
H102 C82 0.931 . S
H103 C83 0.930 . S
H104 C91 0.931 . S
H105 C92 0.929 . S
H106 C100 0.929 . S
H107 C101 0.930 . S
Mn108 O113 2.095 1_554 S
Mn108 O123 2.162 . S
Mn108 O124 2.297 . S
Mn108 O132 2.385 . S
Mn108 O133 2.209 . S
Mn108 O134 2.094 . S
Mn109 O114 2.121 1_554 S
Mn109 N116 2.257 . S
Mn109 N125 2.282 . S
Mn109 O133 2.215 . S
Mn109 O135 2.117 . S
C110 O132 1.234 . S
C110 O133 1.283 . S
C111 O123 1.281 . S
C111 O124 1.236 . S
C112 O134 1.240 . S
C112 O135 1.264 . S
O113 Mn108 2.095 1_556 S
O113 C122 1.250 . S
O114 Mn109 2.121 1_556 S
O114 C122 1.258 . S
C115 N116 1.326 . S
C115 C119 1.460 . S
C115 H121 0.929 1_554 S
N116 Mn109 2.257 . S
N116 C115 1.326 . S
N116 C120 1.362 . S
C117 C118 1.258 . S
C117 C120 1.431 . S
C117 C137 1.449 1_565 S
C118 C117 1.258 . S
C118 C119 1.477 . S
C118 H138 0.931 . S
C119 C115 1.460 . S
C119 C118 1.477 . S
C119 H139 0.930 . S
C120 N116 1.362 . S
C120 C117 1.431 . S
C120 C130 1.476 . S
H121 C115 0.929 1_556 S
C122 O113 1.250 . S
C122 O114 1.258 . S
O123 Mn108 2.162 . S
O123 C111 1.281 . S
O124 Mn108 2.297 . S
O124 C111 1.236 . S
N125 Mn109 2.282 . S
N125 C126 1.328 . S
N125 C130 1.318 . S
C126 N125 1.328 . S
C126 C127 1.457 1_565 S
C126 H131 0.929 . S
C127 C126 1.457 1_545 S
C127 C128 1.291 . S
C127 H140 0.931 . S
C128 C127 1.291 . S
C128 C129 1.373 . S
C128 H141 0.929 . S
C129 C128 1.373 . S
C129 C130 1.396 1_545 S
C129 C136 1.403 . S
C130 C120 1.476 . S
C130 N125 1.318 . S
C130 C129 1.396 1_565 S
H131 C126 0.929 . S
O132 Mn108 2.385 . S
O132 C110 1.234 . S
O133 Mn108 2.209 . S
O133 Mn109 2.215 . S
O133 C110 1.283 . S
O134 Mn108 2.094 . S
O134 C112 1.240 . S
O135 Mn109 2.117 . S
O135 C112 1.264 . S
C136 C129 1.403 . S
C136 C137 1.399 . S
C136 H142 0.929 . S
C137 C117 1.449 1_545 S
C137 C136 1.399 . S
C137 H143 0.930 . S
H138 C118 0.931 . S
H139 C119 0.930 . S
H140 C127 0.931 . S
H141 C128 0.929 . S
H142 C136 0.929 . S
H143 C137 0.930 . S
Mn144 O149 2.096 1_556 S
Mn144 O159 2.162 . S
Mn144 O160 2.297 . S
Mn144 O168 2.384 . S
Mn144 O169 2.208 . S
Mn144 O170 2.094 1_556 S
Mn145 O150 2.121 . S
Mn145 N152 2.257 1_554 S
Mn145 N161 2.282 1_554 S
Mn145 O169 2.215 1_554 S
Mn145 O171 2.117 . S
C146 O168 1.234 . S
C146 O169 1.283 . S
C147 O159 1.281 . S
C147 O160 1.236 . S
C148 O170 1.240 . S
C148 O171 1.264 . S
O149 Mn144 2.096 1_554 S
O149 C158 1.250 . S
O150 Mn145 2.121 . S
O150 C158 1.258 . S
C151 N152 1.326 1_554 S
C151 C155 1.460 . S
C151 H157 0.929 . S
N152 Mn145 2.257 1_556 S
N152 C151 1.326 1_556 S
N152 C156 1.362 . S
C153 C154 1.258 . S
C153 C156 1.431 . S
C153 C173 1.449 1_455 S
C154 C153 1.258 . S
C154 C155 1.477 1_556 S
C154 H174 0.931 . S
C155 C151 1.460 . S
C155 C154 1.477 1_554 S
C155 H175 0.930 . S
C156 N152 1.362 . S
C156 C153 1.431 . S
C156 C166 1.476 . S
H157 C151 0.929 . S
C158 O149 1.250 . S
C158 O150 1.258 . S
O159 Mn144 2.162 . S
O159 C147 1.281 . S
O160 Mn144 2.297 . S
O160 C147 1.236 . S
N161 Mn145 2.282 1_556 S
N161 C162 1.328 . S
N161 C166 1.318 . S
C162 N161 1.328 . S
C162 C163 1.457 1_455 S
C162 H167 0.929 . S
C163 C162 1.457 1_655 S
C163 C164 1.291 . S
C163 H176 0.931 . S
C164 C163 1.291 . S
C164 C165 1.373 . S
C164 H177 0.929 . S
C165 C164 1.373 . S
C165 C166 1.396 1_655 S
C165 C172 1.403 . S
C166 C156 1.476 . S
C166 N161 1.318 . S
C166 C165 1.396 1_455 S
H167 C162 0.929 . S
O168 Mn144 2.384 . S
O168 C146 1.234 . S
O169 Mn144 2.208 . S
O169 Mn145 2.215 1_556 S
O169 C146 1.283 . S
O170 Mn144 2.094 1_554 S
O170 C148 1.240 . S
O171 Mn145 2.117 . S
O171 C148 1.264 . S
C172 C165 1.403 . S
C172 C173 1.399 . S
C172 H178 0.929 . S
C173 C153 1.449 1_655 S
C173 C172 1.399 . S
C173 H179 0.930 . S
H174 C154 0.931 . S
H175 C155 0.930 . S
H176 C163 0.931 . S
H177 C164 0.929 . S
H178 C172 0.929 . S
H179 C173 0.930 . S
Mn180 O185 2.095 . S
Mn180 O195 2.162 . S
Mn180 O196 2.297 . S
Mn180 O204 2.385 . S
Mn180 O205 2.209 . S
Mn180 O206 2.094 . S
Mn181 O186 2.121 . S
Mn181 N188 2.257 . S
Mn181 N197 2.282 . S
Mn181 O205 2.215 . S
Mn181 O207 2.117 . S
C182 O204 1.234 . S
C182 O205 1.283 . S
C183 O195 1.281 . S
C183 O196 1.236 . S
C184 O206 1.240 . S
C184 O207 1.264 . S
O185 Mn180 2.095 . S
O185 C194 1.250 . S
O186 Mn181 2.121 . S
O186 C194 1.258 . S
C187 N188 1.326 . S
C187 C191 1.460 . S
C187 H193 0.929 . S
N188 Mn181 2.257 . S
N188 C187 1.326 . S
N188 C192 1.362 . S
C189 C190 1.258 . S
C189 C192 1.431 . S
C189 C209 1.449 . S
C190 C189 1.258 . S
C190 C191 1.477 . S
C190 H210 0.931 . S
C191 C187 1.460 . S
C191 C190 1.477 . S
C191 H211 0.930 . S
C192 N188 1.362 . S
C192 C189 1.431 . S
C192 C202 1.476 . S
H193 C187 0.929 . S
C194 O185 1.250 . S
C194 O186 1.258 . S
O195 Mn180 2.162 . S
O195 C183 1.281 . S
O196 Mn180 2.297 . S
O196 C183 1.236 . S
N197 Mn181 2.282 . S
N197 C198 1.328 . S
N197 C202 1.318 . S
C198 N197 1.328 . S
C198 C199 1.457 . S
C198 H203 0.929 . S
C199 C198 1.457 . S
C199 C200 1.291 . S
C199 H212 0.931 . S
C200 C199 1.291 . S
C200 C201 1.373 . S
C200 H213 0.929 1_554 S
C201 C200 1.373 . S
C201 C202 1.396 . S
C201 C208 1.403 . S
C202 C192 1.476 . S
C202 N197 1.318 . S
C202 C201 1.396 . S
H203 C198 0.929 . S
O204 Mn180 2.385 . S
O204 C182 1.234 . S
O205 Mn180 2.209 . S
O205 Mn181 2.215 . S
O205 C182 1.283 . S
O206 Mn180 2.094 . S
O206 C184 1.240 . S
O207 Mn181 2.117 . S
O207 C184 1.264 . S
C208 C201 1.403 . S
C208 C209 1.399 . S
C208 H214 0.929 . S
C209 C189 1.449 . S
C209 C208 1.399 . S
C209 H215 0.930 . S
H210 C190 0.931 . S
H211 C191 0.930 . S
H212 C199 0.931 . S
H213 C200 0.929 1_556 S
H214 C208 0.929 . S
H215 C209 0.930 . S
Mn216 O221 2.095 . S
Mn216 O231 2.162 . S
Mn216 O232 2.297 . S
Mn216 O240 2.385 . S
Mn216 O241 2.209 . S
Mn216 O242 2.094 . S
Mn217 O222 2.121 . S
Mn217 N224 2.257 . S
Mn217 N233 2.282 . S
Mn217 O241 2.215 . S
Mn217 O243 2.117 . S
C218 O240 1.234 . S
C218 O241 1.283 . S
C219 O231 1.281 . S
C219 O232 1.236 . S
C220 O242 1.240 . S
C220 O243 1.264 . S
O221 Mn216 2.095 . S
O221 C230 1.250 . S
O222 Mn217 2.121 . S
O222 C230 1.258 . S
C223 N224 1.326 . S
C223 C227 1.460 . S
C223 H229 0.929 . S
N224 Mn217 2.257 . S
N224 C223 1.326 . S
N224 C228 1.362 . S
C225 C226 1.258 . S
C225 C228 1.431 . S
C225 C245 1.449 . S
C226 C225 1.258 . S
C226 C227 1.477 . S
C226 H246 0.931 . S
C227 C223 1.460 . S
C227 C226 1.477 . S
C227 H247 0.930 . S
C228 N224 1.362 . S
C228 C225 1.431 . S
C228 C238 1.476 . S
H229 C223 0.929 . S
C230 O221 1.250 . S
C230 O222 1.258 . S
O231 Mn216 2.162 . S
O231 C219 1.281 . S
O232 Mn216 2.297 . S
O232 C219 1.236 . S
N233 Mn217 2.282 . S
N233 C234 1.328 . S
N233 C238 1.318 . S
C234 N233 1.328 . S
C234 C235 1.457 . S
C234 H239 0.929 . S
C235 C234 1.457 . S
C235 C236 1.291 . S
C235 H248 0.931 . S
C236 C235 1.291 . S
C236 C237 1.373 . S
C236 H249 0.929 . S
C237 C236 1.373 . S
C237 C238 1.396 . S
C237 C244 1.403 . S
C238 C228 1.476 . S
C238 N233 1.318 . S
C238 C237 1.396 . S
H239 C234 0.929 . S
O240 Mn216 2.385 . S
O240 C218 1.234 . S
O241 Mn216 2.209 . S
O241 Mn217 2.215 . S
O241 C218 1.283 . S
O242 Mn216 2.094 . S
O242 C220 1.240 . S
O243 Mn217 2.117 . S
O243 C220 1.264 . S
C244 C237 1.403 . S
C244 C245 1.399 . S
C244 H250 0.929 . S
C245 C225 1.449 . S
C245 C244 1.399 . S
C245 H251 0.930 . S
H246 C226 0.931 . S
H247 C227 0.930 . S
H248 C235 0.931 . S
H249 C236 0.929 . S
H250 C244 0.929 . S
H251 C245 0.930 . S
Mn252 O257 2.095 . S
Mn252 O267 2.162 . S
Mn252 O268 2.297 . S
Mn252 O276 2.385 . S
Mn252 O277 2.209 . S
Mn252 O278 2.094 . S
Mn253 O258 2.121 . S
Mn253 N260 2.257 . S
Mn253 N269 2.282 . S
Mn253 O277 2.215 . S
Mn253 O279 2.117 . S
C254 O276 1.234 . S
C254 O277 1.283 . S
C255 O267 1.281 . S
C255 O268 1.236 . S
C256 O278 1.240 . S
C256 O279 1.264 . S
O257 Mn252 2.095 . S
O257 C266 1.250 . S
O258 Mn253 2.121 . S
O258 C266 1.258 . S
C259 N260 1.326 . S
C259 C263 1.460 . S
C259 H265 0.929 . S
N260 Mn253 2.257 . S
N260 C259 1.326 . S
N260 C264 1.362 . S
C261 C262 1.258 . S
C261 C264 1.431 . S
C261 C281 1.449 1_565 S
C262 C261 1.258 . S
C262 C263 1.477 . S
C262 H282 0.931 . S
C263 C259 1.460 . S
C263 C262 1.477 . S
C263 H283 0.930 . S
C264 N260 1.362 . S
C264 C261 1.431 . S
C264 C274 1.476 . S
H265 C259 0.929 . S
C266 O257 1.250 . S
C266 O258 1.258 . S
O267 Mn252 2.162 . S
O267 C255 1.281 . S
O268 Mn252 2.297 . S
O268 C255 1.236 . S
N269 Mn253 2.282 . S
N269 C270 1.328 . S
N269 C274 1.318 . S
C270 N269 1.328 . S
C270 C271 1.457 1_565 S
C270 H275 0.929 . S
C271 C270 1.457 1_545 S
C271 C272 1.291 . S
C271 H284 0.931 . S
C272 C271 1.291 . S
C272 C273 1.373 . S
C272 H285 0.929 . S
C273 C272 1.373 . S
C273 C274 1.396 1_545 S
C273 C280 1.403 . S
C274 C264 1.476 . S
C274 N269 1.318 . S
C274 C273 1.396 1_565 S
H275 C270 0.929 . S
O276 Mn252 2.385 . S
O276 C254 1.234 . S
O277 Mn252 2.209 . S
O277 Mn253 2.215 . S
O277 C254 1.283 . S
O278 Mn252 2.094 . S
O278 C256 1.240 . S
O279 Mn253 2.117 . S
O279 C256 1.264 . S
C280 C273 1.403 . S
C280 C281 1.399 . S
C280 H286 0.929 . S
C281 C261 1.449 1_545 S
C281 C280 1.399 . S
C281 H287 0.930 . S
H282 C262 0.931 . S
H283 C263 0.930 . S
H284 C271 0.931 . S
H285 C272 0.929 . S
H286 C280 0.929 . S
H287 C281 0.930 . S
Mn288 O293 2.095 . S
Mn288 O303 2.162 . S
Mn288 O304 2.297 . S
Mn288 O312 2.385 . S
Mn288 O313 2.209 . S
Mn288 O314 2.094 . S
Mn289 O294 2.121 . S
Mn289 N296 2.257 . S
Mn289 N305 2.282 . S
Mn289 O313 2.215 . S
Mn289 O315 2.117 . S
C290 O312 1.234 . S
C290 O313 1.283 . S
C291 O303 1.281 . S
C291 O304 1.236 . S
C292 O314 1.240 . S
C292 O315 1.264 . S
O293 Mn288 2.095 . S
O293 C302 1.250 . S
O294 Mn289 2.121 . S
O294 C302 1.258 . S
C295 N296 1.326 . S
C295 C299 1.460 . S
C295 H301 0.929 . S
N296 Mn289 2.257 . S
N296 C295 1.326 . S
N296 C300 1.362 . S
C297 C298 1.258 . S
C297 C300 1.431 . S
C297 C317 1.449 . S
C298 C297 1.258 . S
C298 C299 1.477 . S
C298 H318 0.931 . S
C299 C295 1.460 . S
C299 C298 1.477 . S
C299 H319 0.930 . S
C300 N296 1.362 . S
C300 C297 1.431 . S
C300 C310 1.476 . S
H301 C295 0.929 . S
C302 O293 1.250 . S
C302 O294 1.258 . S
O303 Mn288 2.162 . S
O303 C291 1.281 . S
O304 Mn288 2.297 . S
O304 C291 1.236 . S
N305 Mn289 2.282 . S
N305 C306 1.328 . S
N305 C310 1.318 . S
C306 N305 1.328 . S
C306 C307 1.457 1_556 S
C306 H311 0.929 . S
C307 C306 1.457 1_554 S
C307 C308 1.291 . S
C307 H320 0.931 . S
C308 C307 1.291 . S
C308 C309 1.373 1_554 S
C308 H321 0.929 . S
C309 C308 1.373 1_556 S
C309 C310 1.396 . S
C309 C316 1.403 1_556 S
C310 C300 1.476 . S
C310 N305 1.318 . S
C310 C309 1.396 . S
H311 C306 0.929 . S
O312 Mn288 2.385 . S
O312 C290 1.234 . S
O313 Mn288 2.209 . S
O313 Mn289 2.215 . S
O313 C290 1.283 . S
O314 Mn288 2.094 . S
O314 C292 1.240 . S
O315 Mn289 2.117 . S
O315 C292 1.264 . S
C316 C309 1.403 1_554 S
C316 C317 1.399 1_554 S
C316 H322 0.929 . S
C317 C297 1.449 . S
C317 C316 1.399 1_556 S
C317 H323 0.930 . S
H318 C298 0.931 . S
H319 C299 0.930 . S
H320 C307 0.931 . S
H321 C308 0.929 . S
H322 C316 0.929 . S
H323 C317 0.930 . S
Mn324 O329 2.095 1_554 S
Mn324 O339 2.162 . S
Mn324 O340 2.297 . S
Mn324 O348 2.385 . S
Mn324 O349 2.209 . S
Mn324 O350 2.094 . S
Mn325 O330 2.121 1_554 S
Mn325 N332 2.257 . S
Mn325 N341 2.282 . S
Mn325 O349 2.215 . S
Mn325 O351 2.117 . S
C326 O348 1.234 . S
C326 O349 1.283 . S
C327 O339 1.281 . S
C327 O340 1.236 . S
C328 O350 1.240 . S
C328 O351 1.264 . S
O329 Mn324 2.095 1_556 S
O329 C338 1.250 . S
O330 Mn325 2.121 1_556 S
O330 C338 1.258 . S
C331 N332 1.326 . S
C331 C335 1.460 . S
C331 H337 0.929 1_554 S
N332 Mn325 2.257 . S
N332 C331 1.326 . S
N332 C336 1.362 . S
C333 C334 1.258 . S
C333 C336 1.431 . S
C333 C353 1.449 1_545 S
C334 C333 1.258 . S
C334 C335 1.477 . S
C334 H354 0.931 . S
C335 C331 1.460 . S
C335 C334 1.477 . S
C335 H355 0.930 . S
C336 N332 1.362 . S
C336 C333 1.431 . S
C336 C346 1.476 . S
H337 C331 0.929 1_556 S
C338 O329 1.250 . S
C338 O330 1.258 . S
O339 Mn324 2.162 . S
O339 C327 1.281 . S
O340 Mn324 2.297 . S
O340 C327 1.236 . S
N341 Mn325 2.282 . S
N341 C342 1.328 . S
N341 C346 1.318 . S
C342 N341 1.328 . S
C342 C343 1.457 1_545 S
C342 H347 0.929 . S
C343 C342 1.457 1_565 S
C343 C344 1.291 . S
C343 H356 0.931 . S
C344 C343 1.291 . S
C344 C345 1.373 . S
C344 H357 0.929 . S
C345 C344 1.373 . S
C345 C346 1.396 1_565 S
C345 C352 1.403 . S
C346 C336 1.476 . S
C346 N341 1.318 . S
C346 C345 1.396 1_545 S
H347 C342 0.929 . S
O348 Mn324 2.385 . S
O348 C326 1.234 . S
O349 Mn324 2.209 . S
O349 Mn325 2.215 . S
O349 C326 1.283 . S
O350 Mn324 2.094 . S
O350 C328 1.240 . S
O351 Mn325 2.117 . S
O351 C328 1.264 . S
C352 C345 1.403 . S
C352 C353 1.399 . S
C352 H358 0.929 . S
C353 C333 1.449 1_565 S
C353 C352 1.399 . S
C353 H359 0.930 . S
H354 C334 0.931 . S
H355 C335 0.930 . S
H356 C343 0.931 . S
H357 C344 0.929 . S
H358 C352 0.929 . S
H359 C353 0.930 . S
Mn360 O365 2.095 . S
Mn360 O375 2.162 . S
Mn360 O376 2.297 . S
Mn360 O384 2.385 . S
Mn360 O385 2.209 . S
Mn360 O386 2.094 . S
Mn361 O366 2.121 . S
Mn361 N368 2.257 . S
Mn361 N377 2.282 . S
Mn361 O385 2.215 . S
Mn361 O387 2.117 . S
C362 O384 1.234 . S
C362 O385 1.283 . S
C363 O375 1.281 . S
C363 O376 1.236 . S
C364 O386 1.240 . S
C364 O387 1.264 . S
O365 Mn360 2.095 . S
O365 C374 1.250 . S
O366 Mn361 2.121 . S
O366 C374 1.258 . S
C367 N368 1.326 . S
C367 C371 1.460 . S
C367 H373 0.929 . S
N368 Mn361 2.257 . S
N368 C367 1.326 . S
N368 C372 1.362 . S
C369 C370 1.258 . S
C369 C372 1.431 . S
C369 C389 1.449 1_655 S
C370 C369 1.258 . S
C370 C371 1.477 . S
C370 H390 0.931 . S
C371 C367 1.460 . S
C371 C370 1.477 . S
C371 H391 0.930 . S
C372 N368 1.362 . S
C372 C369 1.431 . S
C372 C382 1.476 . S
H373 C367 0.929 . S
C374 O365 1.250 . S
C374 O366 1.258 . S
O375 Mn360 2.162 . S
O375 C363 1.281 . S
O376 Mn360 2.297 . S
O376 C363 1.236 . S
N377 Mn361 2.282 . S
N377 C378 1.328 . S
N377 C382 1.318 . S
C378 N377 1.328 . S
C378 C379 1.457 1_655 S
C378 H383 0.929 . S
C379 C378 1.457 1_455 S
C379 C380 1.291 . S
C379 H392 0.931 . S
C380 C379 1.291 . S
C380 C381 1.373 . S
C380 H393 0.929 . S
C381 C380 1.373 . S
C381 C382 1.396 1_455 S
C381 C388 1.403 . S
C382 C372 1.476 . S
C382 N377 1.318 . S
C382 C381 1.396 1_655 S
H383 C378 0.929 . S
O384 Mn360 2.385 . S
O384 C362 1.234 . S
O385 Mn360 2.209 . S
O385 Mn361 2.215 . S
O385 C362 1.283 . S
O386 Mn360 2.094 . S
O386 C364 1.240 . S
O387 Mn361 2.117 . S
O387 C364 1.264 . S
C388 C381 1.403 . S
C388 C389 1.399 . S
C388 H394 0.929 . S
C389 C369 1.449 1_455 S
C389 C388 1.399 . S
C389 H395 0.930 . S
H390 C370 0.931 . S
H391 C371 0.930 . S
H392 C379 0.931 . S
H393 C380 0.929 . S
H394 C388 0.929 . S
H395 C389 0.930 . S
Mn396 O401 2.095 . S
Mn396 O411 2.162 . S
Mn396 O412 2.297 . S
Mn396 O420 2.385 . S
Mn396 O421 2.209 . S
Mn396 O422 2.094 . S
Mn397 O402 2.121 . S
Mn397 N404 2.257 . S
Mn397 N413 2.282 . S
Mn397 O421 2.215 . S
Mn397 O423 2.117 . S
C398 O420 1.234 . S
C398 O421 1.283 . S
C399 O411 1.281 . S
C399 O412 1.236 . S
C400 O422 1.240 . S
C400 O423 1.264 . S
O401 Mn396 2.095 . S
O401 C410 1.250 . S
O402 Mn397 2.121 . S
O402 C410 1.258 . S
C403 N404 1.326 . S
C403 C407 1.460 . S
C403 H409 0.929 . S
N404 Mn397 2.257 . S
N404 C403 1.326 . S
N404 C408 1.362 . S
C405 C406 1.258 . S
C405 C408 1.431 . S
C405 C425 1.449 . S
C406 C405 1.258 . S
C406 C407 1.477 . S
C406 H426 0.931 . S
C407 C403 1.460 . S
C407 C406 1.477 . S
C407 H427 0.930 . S
C408 N404 1.362 . S
C408 C405 1.431 . S
C408 C418 1.476 . S
H409 C403 0.929 . S
C410 O401 1.250 . S
C410 O402 1.258 . S
O411 Mn396 2.162 . S
O411 C399 1.281 . S
O412 Mn396 2.297 . S
O412 C399 1.236 . S
N413 Mn397 2.282 . S
N413 C414 1.328 . S
N413 C418 1.318 . S
C414 N413 1.328 . S
C414 C415 1.457 . S
C414 H419 0.929 . S
C415 C414 1.457 . S
C415 C416 1.291 . S
C415 H428 0.931 . S
C416 C415 1.291 . S
C416 C417 1.373 . S
C416 H429 0.929 . S
C417 C416 1.373 . S
C417 C418 1.396 . S
C417 C424 1.403 . S
C418 C408 1.476 . S
C418 N413 1.318 . S
C418 C417 1.396 . S
H419 C414 0.929 . S
O420 Mn396 2.385 . S
O420 C398 1.234 . S
O421 Mn396 2.209 . S
O421 Mn397 2.215 . S
O421 C398 1.283 . S
O422 Mn396 2.094 . S
O422 C400 1.240 . S
O423 Mn397 2.117 . S
O423 C400 1.264 . S
C424 C417 1.403 . S
C424 C425 1.399 . S
C424 H430 0.929 . S
C425 C405 1.449 . S
C425 C424 1.399 . S
C425 H431 0.930 . S
H426 C406 0.931 . S
H427 C407 0.930 . S
H428 C415 0.931 . S
H429 C416 0.929 . S
H430 C424 0.929 . S
H431 C425 0.930 . S
Mn432 O437 2.095 . S
Mn432 O447 2.162 . S
Mn432 O448 2.297 . S
Mn432 O456 2.385 . S
Mn432 O457 2.209 . S
Mn432 O458 2.094 . S
Mn433 O438 2.121 . S
Mn433 N440 2.257 . S
Mn433 N449 2.282 . S
Mn433 O457 2.215 . S
Mn433 O459 2.117 . S
C434 O456 1.234 . S
C434 O457 1.283 . S
C435 O447 1.281 . S
C435 O448 1.236 . S
C436 O458 1.240 . S
C436 O459 1.264 . S
O437 Mn432 2.095 . S
O437 C446 1.250 . S
O438 Mn433 2.121 . S
O438 C446 1.258 . S
C439 N440 1.326 . S
C439 C443 1.460 . S
C439 H445 0.929 . S
N440 Mn433 2.257 . S
N440 C439 1.326 . S
N440 C444 1.362 . S
C441 C442 1.258 . S
C441 C444 1.431 . S
C441 C461 1.449 . S
C442 C441 1.258 . S
C442 C443 1.477 . S
C442 H462 0.931 . S
C443 C439 1.460 . S
C443 C442 1.477 . S
C443 H463 0.930 . S
C444 N440 1.362 . S
C444 C441 1.431 . S
C444 C454 1.476 . S
H445 C439 0.929 . S
C446 O437 1.250 . S
C446 O438 1.258 . S
O447 Mn432 2.162 . S
O447 C435 1.281 . S
O448 Mn432 2.297 . S
O448 C435 1.236 . S
N449 Mn433 2.282 . S
N449 C450 1.328 . S
N449 C454 1.318 . S
C450 N449 1.328 . S
C450 C451 1.457 . S
C450 H455 0.929 . S
C451 C450 1.457 . S
C451 C452 1.291 . S
C451 H464 0.931 . S
C452 C451 1.291 . S
C452 C453 1.373 . S
C452 H465 0.929 . S
C453 C452 1.373 . S
C453 C454 1.396 . S
C453 C460 1.403 . S
C454 C444 1.476 . S
C454 N449 1.318 . S
C454 C453 1.396 . S
H455 C450 0.929 . S
O456 Mn432 2.385 . S
O456 C434 1.234 . S
O457 Mn432 2.209 . S
O457 Mn433 2.215 . S
O457 C434 1.283 . S
O458 Mn432 2.094 . S
O458 C436 1.240 . S
O459 Mn433 2.117 . S
O459 C436 1.264 . S
C460 C453 1.403 . S
C460 C461 1.399 . S
C460 H466 0.929 . S
C461 C441 1.449 . S
C461 C460 1.399 . S
C461 H467 0.930 . S
H462 C442 0.931 . S
H463 C443 0.930 . S
H464 C451 0.931 . S
H465 C452 0.929 . S
H466 C460 0.929 . S
H467 C461 0.930 . S
Mn468 O473 2.095 . S
Mn468 O483 2.162 . S
Mn468 O484 2.297 . S
Mn468 O492 2.385 . S
Mn468 O493 2.209 . S
Mn468 O494 2.094 . S
Mn469 O474 2.121 . S
Mn469 N476 2.257 . S
Mn469 N485 2.282 . S
Mn469 O493 2.215 . S
Mn469 O495 2.117 . S
C470 O492 1.234 . S
C470 O493 1.283 . S
C471 O483 1.281 . S
C471 O484 1.236 . S
C472 O494 1.240 . S
C472 O495 1.264 . S
O473 Mn468 2.095 . S
O473 C482 1.250 . S
O474 Mn469 2.121 . S
O474 C482 1.258 . S
C475 N476 1.326 . S
C475 C479 1.460 . S
C475 H481 0.929 . S
N476 Mn469 2.257 . S
N476 C475 1.326 . S
N476 C480 1.362 . S
C477 C478 1.258 . S
C477 C480 1.431 . S
C477 C497 1.449 1_545 S
C478 C477 1.258 . S
C478 C479 1.477 . S
C478 H498 0.931 . S
C479 C475 1.460 . S
C479 C478 1.477 . S
C479 H499 0.930 . S
C480 N476 1.362 . S
C480 C477 1.431 . S
C480 C490 1.476 . S
H481 C475 0.929 . S
C482 O473 1.250 . S
C482 O474 1.258 . S
O483 Mn468 2.162 . S
O483 C471 1.281 . S
O484 Mn468 2.297 . S
O484 C471 1.236 . S
N485 Mn469 2.282 . S
N485 C486 1.328 . S
N485 C490 1.318 . S
C486 N485 1.328 . S
C486 C487 1.457 1_545 S
C486 H491 0.929 . S
C487 C486 1.457 1_565 S
C487 C488 1.291 . S
C487 H500 0.931 . S
C488 C487 1.291 . S
C488 C489 1.373 . S
C488 H501 0.929 . S
C489 C488 1.373 . S
C489 C490 1.396 1_565 S
C489 C496 1.403 . S
C490 C480 1.476 . S
C490 N485 1.318 . S
C490 C489 1.396 1_545 S
H491 C486 0.929 . S
O492 Mn468 2.385 . S
O492 C470 1.234 . S
O493 Mn468 2.209 . S
O493 Mn469 2.215 . S
O493 C470 1.283 . S
O494 Mn468 2.094 . S
O494 C472 1.240 . S
O495 Mn469 2.117 . S
O495 C472 1.264 . S
C496 C489 1.403 . S
C496 C497 1.399 . S
C496 H502 0.929 . S
C497 C477 1.449 1_565 S
C497 C496 1.399 . S
C497 H503 0.930 . S
H498 C478 0.931 . S
H499 C479 0.930 . S
H500 C487 0.931 . S
H501 C488 0.929 . S
H502 C496 0.929 . S
H503 C497 0.930 . S
Mn504 O509 2.096 1_556 S
Mn504 O519 2.162 . S
Mn504 O520 2.297 . S
Mn504 O528 2.384 . S
Mn504 O529 2.208 . S
Mn504 O530 2.094 1_556 S
Mn505 O510 2.121 . S
Mn505 N512 2.257 1_554 S
Mn505 N521 2.282 1_554 S
Mn505 O529 2.215 1_554 S
Mn505 O531 2.117 . S
C506 O528 1.234 . S
C506 O529 1.283 . S
C507 O519 1.281 . S
C507 O520 1.236 . S
C508 O530 1.240 . S
C508 O531 1.264 . S
O509 Mn504 2.096 1_554 S
O509 C518 1.250 . S
O510 Mn505 2.121 . S
O510 C518 1.258 . S
C511 N512 1.326 1_554 S
C511 C515 1.460 . S
C511 H517 0.929 . S
N512 Mn505 2.257 1_556 S
N512 C511 1.326 1_556 S
N512 C516 1.362 . S
C513 C514 1.258 . S
C513 C516 1.431 . S
C513 C533 1.449 1_655 S
C514 C513 1.258 . S
C514 C515 1.477 1_556 S
C514 H534 0.931 . S
C515 C511 1.460 . S
C515 C514 1.477 1_554 S
C515 H535 0.930 . S
C516 N512 1.362 . S
C516 C513 1.431 . S
C516 C526 1.476 . S
H517 C511 0.929 . S
C518 O509 1.250 . S
C518 O510 1.258 . S
O519 Mn504 2.162 . S
O519 C507 1.281 . S
O520 Mn504 2.297 . S
O520 C507 1.236 . S
N521 Mn505 2.282 1_556 S
N521 C522 1.328 . S
N521 C526 1.318 . S
C522 N521 1.328 . S
C522 C523 1.457 1_655 S
C522 H527 0.929 . S
C523 C522 1.457 1_455 S
C523 C524 1.291 . S
C523 H536 0.931 . S
C524 C523 1.291 . S
C524 C525 1.373 . S
C524 H537 0.929 . S
C525 C524 1.373 . S
C525 C526 1.396 1_455 S
C525 C532 1.403 . S
C526 C516 1.476 . S
C526 N521 1.318 . S
C526 C525 1.396 1_655 S
H527 C522 0.929 . S
O528 Mn504 2.384 . S
O528 C506 1.234 . S
O529 Mn504 2.208 . S
O529 Mn505 2.215 1_556 S
O529 C506 1.283 . S
O530 Mn504 2.094 1_554 S
O530 C508 1.240 . S
O531 Mn505 2.117 . S
O531 C508 1.264 . S
C532 C525 1.403 . S
C532 C533 1.399 . S
C532 H538 0.929 . S
C533 C513 1.449 1_455 S
C533 C532 1.399 . S
C533 H539 0.930 . S
H534 C514 0.931 . S
H535 C515 0.930 . S
H536 C523 0.931 . S
H537 C524 0.929 . S
H538 C532 0.929 . S
H539 C533 0.930 . S
Mn540 O545 2.095 . S
Mn540 O555 2.162 . S
Mn540 O556 2.297 . S
Mn540 O564 2.385 . S
Mn540 O565 2.209 . S
Mn540 O566 2.094 . S
Mn541 O546 2.121 . S
Mn541 N548 2.257 . S
Mn541 N557 2.282 . S
Mn541 O565 2.215 . S
Mn541 O567 2.117 . S
C542 O564 1.234 . S
C542 O565 1.283 . S
C543 O555 1.281 . S
C543 O556 1.236 . S
C544 O566 1.240 . S
C544 O567 1.264 . S
O545 Mn540 2.095 . S
O545 C554 1.250 . S
O546 Mn541 2.121 . S
O546 C554 1.258 . S
C547 N548 1.326 . S
C547 C551 1.460 . S
C547 H553 0.929 . S
N548 Mn541 2.257 . S
N548 C547 1.326 . S
N548 C552 1.362 . S
C549 C550 1.258 . S
C549 C552 1.431 . S
C549 C569 1.449 . S
C550 C549 1.258 . S
C550 C551 1.477 . S
C550 H570 0.931 . S
C551 C547 1.460 . S
C551 C550 1.477 . S
C551 H571 0.930 . S
C552 N548 1.362 . S
C552 C549 1.431 . S
C552 C562 1.476 . S
H553 C547 0.929 . S
C554 O545 1.250 . S
C554 O546 1.258 . S
O555 Mn540 2.162 . S
O555 C543 1.281 . S
O556 Mn540 2.297 . S
O556 C543 1.236 . S
N557 Mn541 2.282 . S
N557 C558 1.328 . S
N557 C562 1.318 . S
C558 N557 1.328 . S
C558 C559 1.457 . S
C558 H563 0.929 . S
C559 C558 1.457 . S
C559 C560 1.291 . S
C559 H572 0.931 . S
C560 C559 1.291 . S
C560 C561 1.373 . S
C560 H573 0.929 1_554 S
C561 C560 1.373 . S
C561 C562 1.396 . S
C561 C568 1.403 . S
C562 C552 1.476 . S
C562 N557 1.318 . S
C562 C561 1.396 . S
H563 C558 0.929 . S
O564 Mn540 2.385 . S
O564 C542 1.234 . S
O565 Mn540 2.209 . S
O565 Mn541 2.215 . S
O565 C542 1.283 . S
O566 Mn540 2.094 . S
O566 C544 1.240 . S
O567 Mn541 2.117 . S
O567 C544 1.264 . S
C568 C561 1.403 . S
C568 C569 1.399 . S
C568 H574 0.929 . S
C569 C549 1.449 . S
C569 C568 1.399 . S
C569 H575 0.930 . S
H570 C550 0.931 . S
H571 C551 0.930 . S
H572 C559 0.931 . S
H573 C560 0.929 1_556 S
H574 C568 0.929 . S
H575 C569 0.930 . S
C576 C577 1.369 . S
C576 C578 1.419 . S
C576 H580 0.930 . S
C577 C576 1.369 . S
C577 C586 1.429 . S
C578 C576 1.419 . S
C578 C579 1.363 . S
C578 H581 0.929 . S
C579 C578 1.363 . S
C579 C585 1.428 . S
H580 C576 0.930 . S
H581 C578 0.929 . S
S582 N583 1.613 . S
S582 N584 1.610 . S
N583 S582 1.613 . S
N583 C586 1.350 . S
N584 S582 1.610 . S
N584 C585 1.351 . S
C585 C579 1.428 . S
C585 N584 1.351 . S
C585 C586 1.434 . S
C586 C577 1.429 . S
C586 N583 1.350 . S
C586 C585 1.434 . S
C587 C588 1.369 . S
C587 C589 1.419 . S
C587 H591 0.930 . S
C588 C587 1.369 . S
C588 C597 1.429 . S
C589 C587 1.419 . S
C589 C590 1.363 . S
C589 H592 0.929 . S
C590 C589 1.363 . S
C590 C596 1.428 . S
H591 C587 0.930 . S
H592 C589 0.929 . S
S593 N594 1.613 . S
S593 N595 1.610 . S
N594 S593 1.613 . S
N594 C597 1.350 . S
N595 S593 1.610 . S
N595 C596 1.351 . S
C596 C590 1.428 . S
C596 N595 1.351 . S
C596 C597 1.434 . S
C597 C588 1.429 . S
C597 N594 1.350 . S
C597 C596 1.434 . S
C598 C599 1.369 . S
C598 C600 1.419 . S
C598 H602 0.930 . S
C599 C598 1.369 . S
C599 C608 1.429 . S
C600 C598 1.419 . S
C600 C601 1.363 . S
C600 H603 0.929 . S
C601 C600 1.363 . S
C601 C607 1.428 . S
H602 C598 0.930 . S
H603 C600 0.929 . S
S604 N605 1.613 . S
S604 N606 1.610 . S
N605 S604 1.613 . S
N605 C608 1.350 . S
N606 S604 1.610 . S
N606 C607 1.351 . S
C607 C601 1.428 . S
C607 N606 1.351 . S
C607 C608 1.434 . S
C608 C599 1.429 . S
C608 N605 1.350 . S
C608 C607 1.434 . S
C609 C610 1.369 . S
C609 C611 1.419 . S
C609 H613 0.930 . S
C610 C609 1.369 . S
C610 C619 1.429 . S
C611 C609 1.419 . S
C611 C612 1.363 . S
C611 H614 0.929 . S
C612 C611 1.363 . S
C612 C618 1.428 . S
H613 C609 0.930 . S
H614 C611 0.929 . S
S615 N616 1.613 . S
S615 N617 1.610 . S
N616 S615 1.613 . S
N616 C619 1.350 . S
N617 S615 1.610 . S
N617 C618 1.351 . S
C618 C612 1.428 . S
C618 N617 1.351 . S
C618 C619 1.434 . S
C619 C610 1.429 . S
C619 N616 1.350 . S
C619 C618 1.434 . S
C620 C621 1.369 . S
C620 C622 1.419 . S
C620 H624 0.930 . S
C621 C620 1.369 . S
C621 C630 1.429 . S
C622 C620 1.419 . S
C622 C623 1.363 . S
C622 H625 0.929 1_556 S
C623 C622 1.363 . S
C623 C629 1.428 . S
H624 C620 0.930 . S
H625 C622 0.929 1_554 S
S626 N627 1.613 . S
S626 N628 1.610 . S
N627 S626 1.613 . S
N627 C630 1.350 . S
N628 S626 1.610 . S
N628 C629 1.351 . S
C629 C623 1.428 . S
C629 N628 1.351 . S
C629 C630 1.434 . S
C630 C621 1.429 . S
C630 N627 1.350 . S
C630 C629 1.434 . S
C631 C632 1.369 . S
C631 C633 1.419 . S
C631 H635 0.930 . S
C632 C631 1.369 . S
C632 C641 1.429 . S
C633 C631 1.419 . S
C633 C634 1.363 . S
C633 H636 0.929 . S
C634 C633 1.363 . S
C634 C640 1.428 . S
H635 C631 0.930 . S
H636 C633 0.929 . S
S637 N638 1.613 . S
S637 N639 1.610 . S
N638 S637 1.613 . S
N638 C641 1.350 . S
N639 S637 1.610 . S
N639 C640 1.351 . S
C640 C634 1.428 . S
C640 N639 1.351 . S
C640 C641 1.434 . S
C641 C632 1.429 . S
C641 N638 1.350 . S
C641 C640 1.434 . S
C642 C643 1.369 . S
C642 C644 1.419 . S
C642 H646 0.930 . S
C643 C642 1.369 . S
C643 C652 1.429 . S
C644 C642 1.419 . S
C644 C645 1.363 . S
C644 H647 0.929 . S
C645 C644 1.363 . S
C645 C651 1.428 . S
H646 C642 0.930 . S
H647 C644 0.929 . S
S648 N649 1.613 . S
S648 N650 1.610 . S
N649 S648 1.613 . S
N649 C652 1.350 . S
N650 S648 1.610 . S
N650 C651 1.351 . S
C651 C645 1.428 . S
C651 N650 1.351 . S
C651 C652 1.434 . S
C652 C643 1.429 . S
C652 N649 1.350 . S
C652 C651 1.434 . S
C653 C654 1.369 . S
C653 C655 1.419 . S
C653 H657 0.930 . S
C654 C653 1.369 . S
C654 C663 1.429 . S
C655 C653 1.419 . S
C655 C656 1.363 . S
C655 H658 0.929 . S
C656 C655 1.363 . S
C656 C662 1.428 . S
H657 C653 0.930 . S
H658 C655 0.929 . S
S659 N660 1.613 . S
S659 N661 1.610 . S
N660 S659 1.613 . S
N660 C663 1.350 . S
N661 S659 1.610 . S
N661 C662 1.351 . S
C662 C656 1.428 . S
C662 N661 1.351 . S
C662 C663 1.434 . S
C663 C654 1.429 . S
C663 N660 1.350 . S
C663 C662 1.434 . S
C664 C665 1.369 1_565 S
C664 C666 1.419 1_455 S
C664 H668 0.930 . S
C665 C664 1.369 1_545 S
C665 C674 1.429 . S
C666 C664 1.419 1_655 S
C666 C667 1.363 . S
C666 H669 0.929 . S
C667 C666 1.363 . S
C667 C673 1.428 1_565 S
H668 C664 0.930 . S
H669 C666 0.929 . S
S670 N671 1.613 1_655 S
S670 N672 1.610 . S
N671 S670 1.613 1_455 S
N671 C674 1.350 . S
N672 S670 1.610 . S
N672 C673 1.351 . S
C673 C667 1.428 1_545 S
C673 N672 1.351 . S
C673 C674 1.434 1_655 S
C674 C665 1.429 . S
C674 N671 1.350 . S
C674 C673 1.434 1_455 S
C675 C676 1.369 . S
C675 C677 1.419 . S
C675 H679 0.930 . S
C676 C675 1.369 . S
C676 C685 1.429 1_655 S
C677 C675 1.419 . S
C677 C678 1.363 1_655 S
C677 H680 0.929 . S
C678 C677 1.363 1_455 S
C678 C684 1.428 . S
H679 C675 0.930 . S
H680 C677 0.929 . S
S681 N682 1.613 . S
S681 N683 1.610 . S
N682 S681 1.613 . S
N682 C685 1.350 . S
N683 S681 1.610 . S
N683 C684 1.351 . S
C684 C678 1.428 . S
C684 N683 1.351 . S
C684 C685 1.434 . S
C685 C676 1.429 1_455 S
C685 N682 1.350 . S
C685 C684 1.434 . S
C686 C687 1.369 . S
C686 C688 1.419 . S
C686 H690 0.930 . S
C687 C686 1.369 . S
C687 C696 1.429 . S
C688 C686 1.419 . S
C688 C689 1.363 . S
C688 H691 0.929 . S
C689 C688 1.363 . S
C689 C695 1.428 . S
H690 C686 0.930 . S
H691 C688 0.929 . S
S692 N693 1.613 . S
S692 N694 1.610 . S
N693 S692 1.613 . S
N693 C696 1.350 . S
N694 S692 1.610 . S
N694 C695 1.351 . S
C695 C689 1.428 . S
C695 N694 1.351 . S
C695 C696 1.434 . S
C696 C687 1.429 . S
C696 N693 1.350 . S
C696 C695 1.434 . S
C697 C698 1.369 . S
C697 C699 1.419 1_565 S
C697 H701 0.930 . S
C698 C697 1.369 . S
C698 C707 1.429 . S
C699 C697 1.419 1_545 S
C699 C700 1.363 . S
C699 H702 0.929 . S
C700 C699 1.363 . S
C700 C706 1.428 . S
H701 C697 0.930 . S
H702 C699 0.929 . S
S703 N704 1.613 . S
S703 N705 1.610 1_565 S
N704 S703 1.613 . S
N704 C707 1.350 . S
N705 S703 1.610 1_545 S
N705 C706 1.351 . S
C706 C700 1.428 . S
C706 N705 1.351 . S
C706 C707 1.434 1_545 S
C707 C698 1.429 . S
C707 N704 1.350 . S
C707 C706 1.434 1_565 S
C708 C709 1.369 1_556 S
C708 C710 1.419 1_455 S
C708 H712 0.930 . S
C709 C708 1.369 1_554 S
C709 C718 1.429 . S
C710 C708 1.419 1_655 S
C710 C711 1.363 1_556 S
C710 H713 0.929 . S
C711 C710 1.363 1_554 S
C711 C717 1.428 . S
H712 C708 0.930 . S
H713 C710 0.929 . S
S714 N715 1.613 1_655 S
S714 N716 1.610 . S
N715 S714 1.613 1_455 S
N715 C718 1.350 . S
N716 S714 1.610 . S
N716 C717 1.351 . S
C717 C711 1.428 . S
C717 N716 1.351 . S
C717 C718 1.434 1_655 S
C718 C709 1.429 . S
C718 N715 1.350 . S
C718 C717 1.434 1_455 S
C719 C720 1.369 . S
C719 C721 1.419 . S
C719 H723 0.930 . S
C720 C719 1.369 . S
C720 C729 1.429 . S
C721 C719 1.419 . S
C721 C722 1.363 . S
C721 H724 0.929 . S
C722 C721 1.363 . S
C722 C728 1.428 . S
H723 C719 0.930 . S
H724 C721 0.929 . S
S725 N726 1.613 . S
S725 N727 1.610 . S
N726 S725 1.613 . S
N726 C729 1.350 . S
N727 S725 1.610 . S
N727 C728 1.351 . S
C728 C722 1.428 . S
C728 N727 1.351 . S
C728 C729 1.434 . S
C729 C720 1.429 . S
C729 N726 1.350 . S
C729 C728 1.434 . S
C730 C731 1.369 . S
C730 C732 1.419 . S
C730 H734 0.930 . S
C731 C730 1.369 . S
C731 C740 1.429 1_545 S
C732 C730 1.419 . S
C732 C733 1.363 1_545 S
C732 H735 0.929 . S
C733 C732 1.363 1_565 S
C733 C739 1.428 . S
H734 C730 0.930 . S
H735 C732 0.929 . S
S736 N737 1.613 . S
S736 N738 1.610 . S
N737 S736 1.613 . S
N737 C740 1.350 . S
N738 S736 1.610 . S
N738 C739 1.351 . S
C739 C733 1.428 . S
C739 N738 1.351 . S
C739 C740 1.434 . S
C740 C731 1.429 1_565 S
C740 N737 1.350 . S
C740 C739 1.434 . S
C741 C742 1.369 . S
C741 C743 1.419 1_445 S
C741 H745 0.930 . S
C742 C741 1.369 . S
C742 C751 1.429 . S
C743 C741 1.419 1_665 S
C743 C744 1.363 . S
C743 H746 0.929 . S
C744 C743 1.363 . S
C744 C750 1.428 . S
H745 C741 0.930 . S
H746 C743 0.929 . S
S747 N748 1.613 1_565 S
S747 N749 1.617 . S
N748 S747 1.613 1_545 S
N748 C751 1.350 . S
N749 S747 1.617 . S
N749 C750 1.350 1_455 S
C750 C744 1.428 . S
C750 N749 1.350 1_655 S
C750 C751 1.434 1_665 S
C751 C742 1.429 . S
C751 N748 1.350 . S
C751 C750 1.434 1_445 S
C752 C753 1.369 . S
C752 C754 1.419 . S
C752 H756 0.930 . S
C753 C752 1.369 . S
C753 C762 1.429 . S
C754 C752 1.419 . S
C754 C755 1.363 . S
C754 H757 0.929 . S
C755 C754 1.363 . S
C755 C761 1.428 . S
H756 C752 0.930 . S
H757 C754 0.929 . S
S758 N759 1.613 . S
S758 N760 1.610 . S
N759 S758 1.613 . S
N759 C762 1.350 . S
N760 S758 1.610 . S
N760 C761 1.351 . S
C761 C755 1.428 . S
C761 N760 1.351 . S
C761 C762 1.434 . S
C762 C753 1.429 . S
C762 N759 1.350 . S
C762 C761 1.434 . S
C763 C764 1.369 . S
C763 C765 1.419 . S
C763 H767 0.930 . S
C764 C763 1.369 . S
C764 C773 1.429 . S
C765 C763 1.419 . S
C765 C766 1.363 . S
C765 H768 0.929 . S
C766 C765 1.363 . S
C766 C772 1.428 . S
H767 C763 0.930 . S
H768 C765 0.929 . S
S769 N770 1.613 . S
S769 N771 1.610 . S
N770 S769 1.613 . S
N770 C773 1.350 . S
N771 S769 1.610 . S
N771 C772 1.351 . S
C772 C766 1.428 . S
C772 N771 1.351 . S
C772 C773 1.434 . S
C773 C764 1.429 . S
C773 N770 1.350 . S
C773 C772 1.434 . S
C774 C775 1.369 . S
C774 C776 1.419 . S
C774 H778 0.930 . S
C775 C774 1.369 . S
C775 C784 1.429 . S
C776 C774 1.419 . S
C776 C777 1.363 1_554 S
C776 H779 0.929 1_554 S
C777 C776 1.363 1_556 S
C777 C783 1.425 1_556 S
H778 C774 0.930 . S
H779 C776 0.929 1_556 S
S780 N781 1.613 . S
S780 N782 1.610 1_554 S
N781 S780 1.613 . S
N781 C784 1.350 . S
N782 S780 1.610 1_556 S
N782 C783 1.348 1_556 S
C783 C777 1.425 1_554 S
C783 N782 1.348 1_554 S
C783 C784 1.441 . S
C784 C775 1.429 . S
C784 N781 1.350 . S
C784 C783 1.441 . S
C785 C786 1.369 . S
C785 C787 1.419 . S
C785 H789 0.930 . S
C786 C785 1.369 . S
C786 C795 1.429 . S
C787 C785 1.419 . S
C787 C788 1.363 . S
C787 H790 0.929 . S
C788 C787 1.363 . S
C788 C794 1.428 . S
H789 C785 0.930 . S
H790 C787 0.929 . S
S791 N792 1.613 . S
S791 N793 1.610 . S
N792 S791 1.613 . S
N792 C795 1.350 . S
N793 S791 1.610 . S
N793 C794 1.351 . S
C794 C788 1.428 . S
C794 N793 1.351 . S
C794 C795 1.434 . S
C795 C786 1.429 . S
C795 N792 1.350 . S
C795 C794 1.434 . S
C796 C797 1.369 . S
C796 C798 1.419 . S
C796 H800 0.930 . S
C797 C796 1.369 . S
C797 C806 1.429 . S
C798 C796 1.419 . S
C798 C799 1.363 . S
C798 H801 0.929 . S
C799 C798 1.363 . S
C799 C805 1.428 . S
H800 C796 0.930 . S
H801 C798 0.929 . S
S802 N803 1.613 . S
S802 N804 1.610 . S
N803 S802 1.613 . S
N803 C806 1.350 . S
N804 S802 1.610 . S
N804 C805 1.351 . S
C805 C799 1.428 . S
C805 N804 1.351 . S
C805 C806 1.434 . S
C806 C797 1.429 . S
C806 N803 1.350 . S
C806 C805 1.434 . S
C807 C808 1.369 . S
C807 C809 1.432 . S
C807 H811 0.930 . S
C808 C807 1.369 . S
C808 C817 1.429 . S
C809 C807 1.432 . S
C809 C810 1.356 1_554 S
C809 H812 0.923 1_554 S
C810 C809 1.356 1_556 S
C810 C816 1.428 1_556 S
H811 C807 0.930 . S
H812 C809 0.923 1_556 S
S813 N814 1.613 . S
S813 N815 1.610 1_554 S
N814 S813 1.613 . S
N814 C817 1.350 . S
N815 S813 1.610 1_556 S
N815 C816 1.351 1_556 S
C816 C810 1.428 1_554 S
C816 N815 1.351 1_554 S
C816 C817 1.434 . S
C817 C808 1.429 . S
C817 N814 1.350 . S
C817 C816 1.434 . S
C818 C819 1.369 . S
C818 C820 1.419 . S
C818 H822 0.930 . S
C819 C818 1.369 . S
C819 C828 1.429 . S
C820 C818 1.419 . S
C820 C821 1.363 . S
C820 H823 0.929 . S
C821 C820 1.363 . S
C821 C827 1.428 . S
H822 C818 0.930 . S
H823 C820 0.929 . S
S824 N825 1.613 . S
S824 N826 1.610 . S
N825 S824 1.613 . S
N825 C828 1.350 . S
N826 S824 1.610 . S
N826 C827 1.351 . S
C827 C821 1.428 . S
C827 N826 1.351 . S
C827 C828 1.434 . S
C828 C819 1.429 . S
C828 N825 1.350 . S
C828 C827 1.434 . S
C829 C830 1.369 . S
C829 C831 1.419 . S
C829 H833 0.930 . S
C830 C829 1.369 . S
C830 C839 1.429 . S
C831 C829 1.419 . S
C831 C832 1.363 . S
C831 H834 0.929 . S
C832 C831 1.363 . S
C832 C838 1.428 . S
H833 C829 0.930 . S
H834 C831 0.929 . S
S835 N836 1.613 . S
S835 N837 1.610 . S
N836 S835 1.613 . S
N836 C839 1.350 . S
N837 S835 1.610 . S
N837 C838 1.351 . S
C838 C832 1.428 . S
C838 N837 1.351 . S
C838 C839 1.434 . S
C839 C830 1.429 . S
C839 N836 1.350 . S
C839 C838 1.434 . S
C840 C841 1.369 . S
C840 C842 1.419 1_556 S
C840 H844 0.930 . S
C841 C840 1.369 . S
C841 C850 1.429 . S
C842 C840 1.419 1_554 S
C842 C843 1.363 . S
C842 H845 0.929 . S
C843 C842 1.363 . S
C843 C849 1.428 . S
H844 C840 0.930 . S
H845 C842 0.929 . S
S846 N847 1.613 1_554 S
S846 N848 1.610 . S
N847 S846 1.613 1_556 S
N847 C850 1.350 . S
N848 S846 1.610 . S
N848 C849 1.351 . S
C849 C843 1.428 . S
C849 N848 1.351 . S
C849 C850 1.434 1_554 S
C850 C841 1.429 . S
C850 N847 1.350 . S
C850 C849 1.434 1_556 S
C851 C852 1.369 . S
C851 C853 1.419 . S
C851 H855 0.930 . S
C852 C851 1.369 . S
C852 C861 1.429 . S
C853 C851 1.419 . S
C853 C854 1.363 . S
C853 H856 0.929 . S
C854 C853 1.363 . S
C854 C860 1.428 . S
H855 C851 0.930 . S
H856 C853 0.929 . S
S857 N858 1.613 . S
S857 N859 1.610 . S
N858 S857 1.613 . S
N858 C861 1.350 . S
N859 S857 1.610 . S
N859 C860 1.351 . S
C860 C854 1.428 . S
C860 N859 1.351 . S
C860 C861 1.434 . S
C861 C852 1.429 . S
C861 N858 1.350 . S
C861 C860 1.434 . S
C862 C863 1.369 . S
C862 C864 1.419 . S
C862 H866 0.930 . S
C863 C862 1.369 . S
C863 C872 1.429 . S
C864 C862 1.419 . S
C864 C865 1.363 . S
C864 H867 0.929 . S
C865 C864 1.363 . S
C865 C871 1.428 . S
H866 C862 0.930 . S
H867 C864 0.929 . S
S868 N869 1.613 . S
S868 N870 1.610 . S
N869 S868 1.613 . S
N869 C872 1.350 . S
N870 S868 1.610 . S
N870 C871 1.351 . S
C871 C865 1.428 . S
C871 N870 1.351 . S
C871 C872 1.434 . S
C872 C863 1.429 . S
C872 N869 1.350 . S
C872 C871 1.434 . S
C873 C874 1.369 . S
C873 C875 1.419 . S
C873 H877 0.930 . S
C874 C873 1.369 . S
C874 C883 1.429 . S
C875 C873 1.419 . S
C875 C876 1.363 . S
C875 H878 0.929 . S
C876 C875 1.363 . S
C876 C882 1.428 . S
H877 C873 0.930 . S
H878 C875 0.929 . S
S879 N880 1.613 . S
S879 N881 1.610 . S
N880 S879 1.613 . S
N880 C883 1.350 . S
N881 S879 1.610 . S
N881 C882 1.351 . S
C882 C876 1.428 . S
C882 N881 1.351 . S
C882 C883 1.434 . S
C883 C874 1.429 . S
C883 N880 1.350 . S
C883 C882 1.434 . S
C884 C885 1.369 . S
C884 C886 1.419 . S
C884 H888 0.930 . S
C885 C884 1.369 . S
C885 C894 1.429 . S
C886 C884 1.419 . S
C886 C887 1.363 . S
C886 H889 0.929 . S
C887 C886 1.363 . S
C887 C893 1.428 . S
H888 C884 0.930 . S
H889 C886 0.929 . S
S890 N891 1.613 . S
S890 N892 1.610 . S
N891 S890 1.613 . S
N891 C894 1.350 . S
N892 S890 1.610 . S
N892 C893 1.351 . S
C893 C887 1.428 . S
C893 N892 1.351 . S
C893 C894 1.434 . S
C894 C885 1.429 . S
C894 N891 1.350 . S
C894 C893 1.434 . S
C895 C896 1.369 . S
C895 C897 1.419 . S
C895 H899 0.930 . S
C896 C895 1.369 . S
C896 C905 1.429 . S
C897 C895 1.419 . S
C897 C898 1.363 . S
C897 H900 0.929 . S
C898 C897 1.363 . S
C898 C904 1.428 . S
H899 C895 0.930 . S
H900 C897 0.929 . S
S901 N902 1.613 . S
S901 N903 1.610 . S
N902 S901 1.613 . S
N902 C905 1.350 . S
N903 S901 1.610 . S
N903 C904 1.351 . S
C904 C898 1.428 . S
C904 N903 1.351 . S
C904 C905 1.434 . S
C905 C896 1.429 . S
C905 N902 1.350 . S
C905 C904 1.434 . S
C906 C907 1.369 . S
C906 C908 1.419 . S
C906 H910 0.930 . S
C907 C906 1.369 . S
C907 C916 1.429 . S
C908 C906 1.419 . S
C908 C909 1.363 . S
C908 H911 0.929 . S
C909 C908 1.363 . S
C909 C915 1.428 . S
H910 C906 0.930 . S
H911 C908 0.929 . S
S912 N913 1.613 . S
S912 N914 1.610 . S
N913 S912 1.613 . S
N913 C916 1.350 . S
N914 S912 1.610 . S
N914 C915 1.351 . S
C915 C909 1.428 . S
C915 N914 1.351 . S
C915 C916 1.434 . S
C916 C907 1.429 . S
C916 N913 1.350 . S
C916 C915 1.434 . S
C917 C918 1.369 . S
C917 C919 1.419 1_554 S
C917 H921 0.930 . S
C918 C917 1.369 . S
C918 C927 1.429 . S
C919 C917 1.419 1_556 S
C919 C920 1.363 . S
C919 H922 0.929 . S
C920 C919 1.363 . S
C920 C926 1.428 . S
H921 C917 0.930 . S
H922 C919 0.929 . S
S923 N924 1.613 . S
S923 N925 1.610 1_554 S
N924 S923 1.613 . S
N924 C927 1.350 . S
N925 S923 1.610 1_556 S
N925 C926 1.351 . S
C926 C920 1.428 . S
C926 N925 1.351 . S
C926 C927 1.434 1_556 S
C927 C918 1.429 . S
C927 N924 1.350 . S
C927 C926 1.434 1_554 S
C577 C219 1.515 . S
C579 C3 1.510 . S
C588 C255 1.508 . S
C590 C39 1.515 . S
C599 C75 1.512 . S
C601 C147 1.512 . S
C610 C111 1.508 . S
C612 C183 1.515 . S
C621 C291 1.515 . S
C623 C507 1.510 . S
C632 C543 1.514 . S
C634 C327 1.510 . S
C643 C363 1.508 . S
C645 C435 1.515 . S
C654 C399 1.509 . S
C656 C471 1.514 . S
C665 C4 1.439 . S
C667 C364 1.448 . S
C676 C40 1.448 . S
C678 C400 1.439 . S
C687 C76 1.439 . S
C689 C292 1.447 . S
C698 C112 1.449 . S
C700 C328 1.440 . S
C709 C148 1.439 . S
C711 C508 1.448 . S
C720 C544 1.447 . S
C722 C184 1.441 . S
C731 C220 1.449 . S
C733 C436 1.440 . S
C742 C472 1.441 . S
C744 C256 1.446 . S
C753 C470 0.835 . S
C755 C2 0.822 . S
C764 C38 0.842 . S
C766 C506 0.820 . S
C775 C542 0.830 . S
C777 C74 0.837 . S
C786 C434 0.820 . S
C788 C110 0.834 . S
C797 C398 0.843 . S
C799 C146 0.825 . S
C808 C182 0.829 . S
C810 C290 0.837 . S
C819 C218 0.837 . S
C821 C326 0.821 . S
C830 C254 0.824 . S
C832 C362 0.840 . S
C841 C482 1.491 . S
C843 C14 1.491 . S
C852 C50 1.489 . S
C854 C518 1.490 . S
C863 C86 1.497 . S
C865 C554 1.497 . S
C874 C446 1.491 . S
C876 C122 1.491 . S
C885 C410 1.489 . S
C887 C158 1.491 . S
C896 C302 1.498 . S
C898 C194 1.497 . S
C907 C230 1.495 . S
C909 C338 1.493 . S
C918 C374 1.498 . S
C920 C266 1.497 . S
