# Generated by pormake.
# Topology xfg, (7)-cn, num edge types: 1
# Building blocks:
#     Node 0, Type 0, BuildingBlock: HICVOG_clean_sbu_0, # of connection points: 7
#     Node 1, Type 0, BuildingBlock: HICVOG_clean_sbu_0, # of connection points: 7
#     Node 2, Type 0, BuildingBlock: HICVOG_clean_sbu_0, # of connection points: 7
#     Node 3, Type 0, BuildingBlock: HICVOG_clean_sbu_0, # of connection points: 7
#     Node 4, Type 0, BuildingBlock: HICVOG_clean_sbu_0, # of connection points: 7
#     Node 5, Type 0, BuildingBlock: HICVOG_clean_sbu_0, # of connection points: 7
#     Node 6, Type 0, BuildingBlock: HICVOG_clean_sbu_0, # of connection points: 7
#     Node 7, Type 0, BuildingBlock: HICVOG_clean_sbu_0, # of connection points: 7
#     Node 8, Type 0, BuildingBlock: HICVOG_clean_sbu_0, # of connection points: 7
#     Node 9, Type 0, BuildingBlock: HICVOG_clean_sbu_0, # of connection points: 7
#     Node 10, Type 0, BuildingBlock: HICVOG_clean_sbu_0, # of connection points: 7
#     Node 11, Type 0, BuildingBlock: HICVOG_clean_sbu_0, # of connection points: 7
#     Node 12, Type 0, BuildingBlock: HICVOG_clean_sbu_0, # of connection points: 7
#     Node 13, Type 0, BuildingBlock: HICVOG_clean_sbu_0, # of connection points: 7
#     Node 14, Type 0, BuildingBlock: HICVOG_clean_sbu_0, # of connection points: 7
#     Node 15, Type 0, BuildingBlock: HICVOG_clean_sbu_0, # of connection points: 7
#     Edge 16, Type (0, 0), BuildingBlock: KIFKEQ_clean_linker_1, # of connection points: 2
#     Edge 17, Type (0, 0), BuildingBlock: KIFKEQ_clean_linker_1, # of connection points: 2
#     Edge 18, Type (0, 0), BuildingBlock: KIFKEQ_clean_linker_1, # of connection points: 2
#     Edge 19, Type (0, 0), BuildingBlock: KIFKEQ_clean_linker_1, # of connection points: 2
#     Edge 20, Type (0, 0), BuildingBlock: KIFKEQ_clean_linker_1, # of connection points: 2
#     Edge 21, Type (0, 0), BuildingBlock: KIFKEQ_clean_linker_1, # of connection points: 2
#     Edge 22, Type (0, 0), BuildingBlock: KIFKEQ_clean_linker_1, # of connection points: 2
#     Edge 23, Type (0, 0), BuildingBlock: KIFKEQ_clean_linker_1, # of connection points: 2
#     Edge 24, Type (0, 0), BuildingBlock: KIFKEQ_clean_linker_1, # of connection points: 2
#     Edge 25, Type (0, 0), BuildingBlock: KIFKEQ_clean_linker_1, # of connection points: 2
#     Edge 26, Type (0, 0), BuildingBlock: KIFKEQ_clean_linker_1, # of connection points: 2
#     Edge 27, Type (0, 0), BuildingBlock: KIFKEQ_clean_linker_1, # of connection points: 2
#     Edge 28, Type (0, 0), BuildingBlock: KIFKEQ_clean_linker_1, # of connection points: 2
#     Edge 29, Type (0, 0), BuildingBlock: KIFKEQ_clean_linker_1, # of connection points: 2
#     Edge 30, Type (0, 0), BuildingBlock: KIFKEQ_clean_linker_1, # of connection points: 2
#     Edge 31, Type (0, 0), BuildingBlock: KIFKEQ_clean_linker_1, # of connection points: 2
#     Edge 32, Type (0, 0), BuildingBlock: KIFKEQ_clean_linker_1, # of connection points: 2
#     Edge 33, Type (0, 0), BuildingBlock: KIFKEQ_clean_linker_1, # of connection points: 2
#     Edge 34, Type (0, 0), BuildingBlock: KIFKEQ_clean_linker_1, # of connection points: 2
#     Edge 35, Type (0, 0), BuildingBlock: KIFKEQ_clean_linker_1, # of connection points: 2
#     Edge 36, Type (0, 0), BuildingBlock: KIFKEQ_clean_linker_1, # of connection points: 2
#     Edge 37, Type (0, 0), BuildingBlock: KIFKEQ_clean_linker_1, # of connection points: 2
#     Edge 38, Type (0, 0), BuildingBlock: KIFKEQ_clean_linker_1, # of connection points: 2
#     Edge 39, Type (0, 0), BuildingBlock: KIFKEQ_clean_linker_1, # of connection points: 2
#     Edge 40, Type (0, 0), BuildingBlock: KIFKEQ_clean_linker_1, # of connection points: 2
#     Edge 41, Type (0, 0), BuildingBlock: KIFKEQ_clean_linker_1, # of connection points: 2
#     Edge 42, Type (0, 0), BuildingBlock: KIFKEQ_clean_linker_1, # of connection points: 2
#     Edge 43, Type (0, 0), BuildingBlock: KIFKEQ_clean_linker_1, # of connection points: 2
#     Edge 44, Type (0, 0), BuildingBlock: KIFKEQ_clean_linker_1, # of connection points: 2
#     Edge 45, Type (0, 0), BuildingBlock: KIFKEQ_clean_linker_1, # of connection points: 2
#     Edge 46, Type (0, 0), BuildingBlock: KIFKEQ_clean_linker_1, # of connection points: 2
#     Edge 47, Type (0, 0), BuildingBlock: KIFKEQ_clean_linker_1, # of connection points: 2
#     Edge 48, Type (0, 0), BuildingBlock: KIFKEQ_clean_linker_1, # of connection points: 2
#     Edge 49, Type (0, 0), BuildingBlock: KIFKEQ_clean_linker_1, # of connection points: 2
#     Edge 50, Type (0, 0), BuildingBlock: KIFKEQ_clean_linker_1, # of connection points: 2
#     Edge 51, Type (0, 0), BuildingBlock: KIFKEQ_clean_linker_1, # of connection points: 2
#     Edge 52, Type (0, 0), BuildingBlock: KIFKEQ_clean_linker_1, # of connection points: 2
#     Edge 53, Type (0, 0), BuildingBlock: KIFKEQ_clean_linker_1, # of connection points: 2
#     Edge 54, Type (0, 0), BuildingBlock: KIFKEQ_clean_linker_1, # of connection points: 2
#     Edge 55, Type (0, 0), BuildingBlock: KIFKEQ_clean_linker_1, # of connection points: 2
#     Edge 56, Type (0, 0), BuildingBlock: KIFKEQ_clean_linker_1, # of connection points: 2
#     Edge 57, Type (0, 0), BuildingBlock: KIFKEQ_clean_linker_1, # of connection points: 2
#     Edge 58, Type (0, 0), BuildingBlock: KIFKEQ_clean_linker_1, # of connection points: 2
#     Edge 59, Type (0, 0), BuildingBlock: KIFKEQ_clean_linker_1, # of connection points: 2
#     Edge 60, Type (0, 0), BuildingBlock: KIFKEQ_clean_linker_1, # of connection points: 2
#     Edge 61, Type (0, 0), BuildingBlock: KIFKEQ_clean_linker_1, # of connection points: 2
#     Edge 62, Type (0, 0), BuildingBlock: KIFKEQ_clean_linker_1, # of connection points: 2
#     Edge 63, Type (0, 0), BuildingBlock: KIFKEQ_clean_linker_1, # of connection points: 2
#     Edge 64, Type (0, 0), BuildingBlock: KIFKEQ_clean_linker_1, # of connection points: 2
#     Edge 65, Type (0, 0), BuildingBlock: KIFKEQ_clean_linker_1, # of connection points: 2
#     Edge 66, Type (0, 0), BuildingBlock: KIFKEQ_clean_linker_1, # of connection points: 2
#     Edge 67, Type (0, 0), BuildingBlock: KIFKEQ_clean_linker_1, # of connection points: 2
#     Edge 68, Type (0, 0), BuildingBlock: KIFKEQ_clean_linker_1, # of connection points: 2
#     Edge 69, Type (0, 0), BuildingBlock: KIFKEQ_clean_linker_1, # of connection points: 2
#     Edge 70, Type (0, 0), BuildingBlock: KIFKEQ_clean_linker_1, # of connection points: 2
#     Edge 71, Type (0, 0), BuildingBlock: KIFKEQ_clean_linker_1, # of connection points: 2
# Relax obj value: 0.142
# Max RMSD: 0.173
# Mean RMSD: 0.170
data_MOF--net-xfg--node1-HICVOG_clean_sbu_0--edge1-KIFKEQ_clean_linker_1
_symmetry_space_group_name_H-M    P1
_symmetry_Int_Tables_number       1
_symmetry_cell_setting            triclinic
loop_
_symmetry_equiv_pos_as_xyz
'x, y, z'
_cell_length_a     29.702042
_cell_length_b     29.732153
_cell_length_c     69.859114
_cell_angle_alpha  90.025659
_cell_angle_beta   90.041769
_cell_angle_gamma 90.252002
loop_
_atom_site_label
_atom_site_type_symbol
_atom_site_fract_x
_atom_site_fract_y
_atom_site_fract_z
_atom_type_partial_charge
Zn0 Zn 0.23095 0.13252 0.0541 0.0
C1 C 0.25192 0.2458 0.02268 0.0
N2 N 0.23925 0.26371 0.03948 0.0
C3 C 0.23275 0.22743 0.05038 0.0
N4 N 0.24162 0.18896 0.04103 0.0
N5 N 0.25344 0.19989 0.02327 0.0
C6 C 0.20881 0.13077 0.9743 0.0
O7 O 0.1954 0.10214 0.98745 0.0
O8 O 0.26149 0.13451 0.08043 0.0
Zn9 Zn 0.27317 0.15612 1.00372 0.0
N10 N 0.16672 0.1297 0.0574 0.0
C11 C 0.09392 0.13713 0.04362 0.0
C12 C 0.14059 0.1359 0.04167 0.0
C13 C 0.14823 0.12431 0.07503 0.0
N14 N 0.07531 0.13186 0.06123 0.0
C15 C 0.10114 0.12519 0.07708 0.0
O16 O 0.2722 0.08843 0.01113 0.0
C17 C 0.26337 0.06108 0.02473 0.0
O18 O 0.24889 0.07519 0.04075 0.0
H19 H 0.15606 0.14057 0.02779 0.0
H20 H 0.17018 0.12074 0.08728 0.0
C21 C 0.36744 0.14093 1.00213 0.0
C22 C 0.41204 0.149 0.99627 0.0
C23 C 0.38793 0.21582 0.98073 0.0
C24 C 0.34371 0.20699 0.98624 0.0
N25 N 0.33451 0.17013 0.99704 0.0
N26 N 0.42088 0.18658 0.98574 0.0
H27 H 0.35827 0.11095 0.00995 0.0
C28 C 0.27258 0.09932 0.08969 0.0
O29 O 0.26428 0.05971 0.0821 0.0
O30 O 0.23841 0.16014 0.9787 0.0
H31 H 0.31681 0.22876 0.98161 0.0
H32 H 0.07263 0.14239 0.03126 0.0
H33 H 0.39591 0.24514 0.9722 0.0
Zn34 Zn 0.67652 0.47582 0.30446 0.0
C35 C 0.56343 0.50928 0.27483 0.0
N36 N 0.54586 0.50112 0.2922 0.0
C37 C 0.58212 0.4908 0.30257 0.0
N38 N 0.62033 0.49277 0.29232 0.0
N39 N 0.60919 0.50455 0.27458 0.0
C40 C 0.67855 0.45517 0.22519 0.0
O41 O 0.70905 0.44388 0.23792 0.0
O42 O 0.67756 0.50035 0.33178 0.0
Zn43 Zn 0.65343 0.52007 0.25442 0.0
N44 N 0.6766 0.411 0.30614 0.0
C45 C 0.66268 0.33946 0.29206 0.0
C46 C 0.66457 0.38622 0.29061 0.0
C47 C 0.68712 0.39103 0.32305 0.0
N48 N 0.67313 0.31942 0.30896 0.0
C49 C 0.68568 0.34385 0.32459 0.0
O50 O 0.72093 0.51898 0.26214 0.0
C51 C 0.74836 0.5099 0.27567 0.0
O52 O 0.73435 0.49469 0.29161 0.0
H53 H 0.65605 0.40277 0.27731 0.0
H54 H 0.69538 0.41198 0.33521 0.0
C55 C 0.67207 0.61373 0.25066 0.0
C56 C 0.66544 0.65769 0.24377 0.0
C57 C 0.5977 0.63322 0.2288 0.0
C58 C 0.60507 0.58964 0.23535 0.0
N59 N 0.64169 0.58094 0.24637 0.0
N60 N 0.62805 0.66601 0.23304 0.0
H61 H 0.70178 0.60485 0.25869 0.0
C62 C 0.67635 0.54201 0.33596 0.0
O63 O 0.67485 0.57169 0.32205 0.0
O64 O 0.64814 0.48314 0.22994 0.0
H65 H 0.58234 0.56277 0.23136 0.0
H66 H 0.65287 0.31922 0.27987 0.0
H67 H 0.56858 0.64078 0.22008 0.0
Zn68 Zn 0.29266 0.90035 0.50578 0.0
C69 C 0.31788 0.82942 0.55431 0.0
N70 N 0.30769 0.79317 0.54387 0.0
C71 C 0.30053 0.81071 0.52642 0.0
N72 N 0.30599 0.85636 0.52618 0.0
N73 N 0.31701 0.86756 0.54401 0.0
C74 C 0.26827 0.926 0.58726 0.0
O75 O 0.23883 0.9263 0.57321 0.0
O76 O 0.33079 0.89448 0.48168 0.0
Zn77 Zn 0.3346 0.92378 0.55603 0.0
N78 N 0.23216 0.88906 0.4971 0.0
C79 C 0.17968 0.84794 0.47819 0.0
C80 C 0.2231 0.85366 0.4854 0.0
C81 C 0.19991 0.91946 0.50162 0.0
N82 N 0.14764 0.87888 0.48237 0.0
C83 C 0.15658 0.91512 0.49372 0.0
O84 O 0.31609 0.9814 0.54312 0.0
C85 C 0.30198 0.99537 0.52701 0.0
O86 O 0.29382 0.96795 0.51335 0.0
H87 H 0.24953 0.83058 0.48147 0.0
H88 H 0.20844 0.9469 0.5111 0.0
C89 C 0.41988 0.92432 0.57506 0.0
C90 C 0.46714 0.92417 0.57618 0.0
C91 C 0.47075 0.92402 0.54221 0.0
C92 C 0.42384 0.92373 0.54122 0.0
N93 N 0.39943 0.92406 0.55764 0.0
N94 N 0.49126 0.92439 0.55961 0.0
H95 H 0.39937 0.92523 0.58783 0.0
C96 C 0.35874 0.92514 0.47694 0.0
O97 O 0.36931 0.95624 0.48955 0.0
O98 O 0.31006 0.92529 0.58326 0.0
H99 H 0.4069 0.92339 0.5275 0.0
H100 H 0.17175 0.81975 0.46898 0.0
H101 H 0.49073 0.92402 0.52927 0.0
Zn102 Zn 0.8762 0.58719 0.80499 0.0
C103 C 0.98925 0.54973 0.77639 0.0
N104 N 1.00627 0.55601 0.79402 0.0
C105 C 0.97007 0.56765 0.80415 0.0
N106 N 0.93239 0.56834 0.79348 0.0
N107 N 0.94383 0.55684 0.77575 0.0
C108 C 0.87404 0.60828 0.72604 0.0
O109 O 0.84212 0.61763 0.7384 0.0
O110 O 0.87406 0.56389 0.83243 0.0
Zn111 Zn 0.89981 0.54319 0.75516 0.0
N112 N 0.87703 0.65203 0.80598 0.0
C113 C 0.89255 0.72265 0.7914 0.0
C114 C 0.88965 0.67587 0.79029 0.0
C115 C 0.86682 0.67294 0.8227 0.0
N116 N 0.8826 0.74363 0.80815 0.0
C117 C 0.86944 0.7201 0.82392 0.0
O118 O 0.83208 0.54304 0.76276 0.0
C119 C 0.80462 0.55216 0.77627 0.0
O120 O 0.81856 0.56793 0.79213 0.0
H121 H 0.89793 0.65856 0.77713 0.0
H122 H 0.85808 0.65272 0.83502 0.0
C123 C 0.88224 0.44965 0.75057 0.0
C124 C 0.88927 0.40607 0.74333 0.0
C125 C 0.95614 0.4321 0.72817 0.0
C126 C 0.94838 0.4753 0.7351 0.0
N127 N 0.91201 0.48301 0.74637 0.0
N128 N 0.9264 0.39871 0.73233 0.0
H129 H 0.85272 0.45781 0.75885 0.0
C130 C 0.87515 0.52222 0.83658 0.0
O131 O 0.87687 0.49261 0.82263 0.0
O132 O 0.9054 0.5816 0.73104 0.0
H133 H 0.97068 0.50263 0.73125 0.0
H134 H 0.90286 0.74215 0.77908 0.0
H135 H 0.98509 0.42529 0.71926 0.0
Zn136 Zn 0.83499 0.93069 0.95423 0.0
C137 C 0.80105 0.81735 0.98375 0.0
N138 N 0.80659 0.79996 0.96617 0.0
C139 C 0.81706 0.83606 0.9557 0.0
N140 N 0.81768 0.87411 0.96612 0.0
N141 N 0.80725 0.86294 0.98401 0.0
C142 C 0.85644 0.93704 0.03309 0.0
O143 O 0.86385 0.96885 0.02043 0.0
O144 O 0.8117 0.93129 0.92686 0.0
Zn145 Zn 0.79322 0.90725 1.00427 0.0
N146 N 0.89987 0.93306 0.9534 0.0
C147 C 0.97024 0.93653 0.96961 0.0
C148 C 0.92335 0.93365 0.97009 0.0
C149 C 0.92127 0.93491 0.93623 0.0
N150 N 0.9917 0.93849 0.95245 0.0
C151 C 0.96852 0.93737 0.93563 0.0
O152 O 0.79183 0.97471 0.99629 0.0
C153 C 0.79938 1.00209 0.98257 0.0
O154 O 0.81436 0.98821 0.96661 0.0
H155 H 0.90567 0.93223 0.98361 0.0
H156 H 0.90149 0.93517 0.92322 0.0
C157 C 0.70034 0.92438 0.00865 0.0
C158 C 0.65732 0.91968 0.01676 0.0
C159 C 0.68178 0.85332 0.03251 0.0
C160 C 0.72497 0.85951 0.02513 0.0
N161 N 0.73319 0.89467 0.01321 0.0
N162 N 0.64916 0.88367 0.02832 0.0
H163 H 0.70815 0.95166 0.99899 0.0
C164 C 0.76988 0.93093 0.92291 0.0
O165 O 0.74059 0.93083 0.937 0.0
O166 O 0.83199 0.90354 0.02832 0.0
H167 H 0.75186 0.837 0.02911 0.0
H168 H 0.98945 0.93733 0.98277 0.0
H169 H 0.6745 0.82529 0.0419 0.0
Zn170 Zn 0.37516 0.5812 0.70419 0.0
C171 C 0.48945 0.54995 0.73342 0.0
N172 N 0.50698 0.55644 0.71594 0.0
C173 C 0.47082 0.56602 0.70537 0.0
N174 N 0.4325 0.56512 0.71568 0.0
N175 N 0.44373 0.5548 0.73359 0.0
C176 C 0.3745 0.60513 0.78295 0.0
O177 O 0.3434 0.61508 0.77029 0.0
O178 O 0.37139 0.55695 0.67692 0.0
Zn179 Zn 0.40018 0.53969 0.75413 0.0
N180 N 0.37285 0.64591 0.70337 0.0
C181 C 0.37075 0.71596 0.71979 0.0
C182 C 0.37306 0.66911 0.72012 0.0
C183 C 0.37068 0.6675 0.68628 0.0
N184 N 0.36869 0.73765 0.7027 0.0
C185 C 0.36903 0.71472 0.68582 0.0
O186 O 0.3322 0.53862 0.74703 0.0
C187 C 0.30462 0.54644 0.73341 0.0
O188 O 0.31843 0.56111 0.71738 0.0
H189 H 0.37477 0.65124 0.73359 0.0
H190 H 0.36985 0.6479 0.67323 0.0
C191 C 0.38503 0.44564 0.75762 0.0
C192 C 0.39277 0.40189 0.76449 0.0
C193 C 0.45809 0.42871 0.78063 0.0
C194 C 0.44961 0.47209 0.77406 0.0
N195 N 0.41363 0.47951 0.7625 0.0
N196 N 0.42944 0.39483 0.77582 0.0
H197 H 0.35577 0.45348 0.74909 0.0
C198 C 0.3821 0.51686 0.67251 0.0
O199 O 0.39672 0.48964 0.68593 0.0
O200 O 0.40552 0.57777 0.77828 0.0
H201 H 0.47105 0.49974 0.77837 0.0
H202 H 0.37059 0.73495 0.733 0.0
H203 H 0.48672 0.42214 0.78977 0.0
Zn204 Zn 0.72885 0.13396 0.45481 0.0
C205 C 0.76519 0.247 0.48375 0.0
N206 N 0.75914 0.26428 0.46618 0.0
C207 C 0.7482 0.22814 0.4558 0.0
N208 N 0.74775 0.19021 0.46629 0.0
N209 N 0.75888 0.20145 0.48411 0.0
C210 C 0.71251 0.13201 0.5341 0.0
O211 O 0.69895 0.10251 0.52131 0.0
O212 O 0.75192 0.13223 0.42747 0.0
Zn213 Zn 0.77506 0.15729 0.50415 0.0
N214 N 0.664 0.13433 0.45393 0.0
C215 C 0.59351 0.15132 0.46827 0.0
C216 C 0.64033 0.14857 0.4694 0.0
C217 C 0.6429 0.12226 0.43745 0.0
N218 N 0.57235 0.13968 0.45173 0.0
C219 C 0.59574 0.12485 0.43622 0.0
O220 O 0.77376 0.08949 0.49669 0.0
C221 C 0.76383 0.06216 0.4832 0.0
O222 O 0.74785 0.0763 0.46745 0.0
H223 H 0.65779 0.15827 0.48237 0.0
H224 H 0.66297 0.11218 0.42529 0.0
C225 C 0.86907 0.14012 0.50665 0.0
C226 C 0.91347 0.14733 0.51301 0.0
C227 C 0.88963 0.21429 0.52853 0.0
C228 C 0.8456 0.20631 0.52252 0.0
N229 N 0.83636 0.16979 0.5115 0.0
N230 N 0.92234 0.18458 0.52377 0.0
H231 H 0.85983 0.11045 0.49862 0.0
C232 C 0.79365 0.13447 0.42347 0.0
O233 O 0.82302 0.13703 0.4375 0.0
O234 O 0.74028 0.16251 0.52905 0.0
H235 H 0.81883 0.22849 0.52693 0.0
H236 H 0.57414 0.16293 0.4804 0.0
H237 H 0.89762 0.24333 0.53724 0.0
Zn238 Zn 0.17821 0.47342 0.20282 0.0
C239 C 0.06354 0.49805 0.23279 0.0
N240 N 0.04621 0.48505 0.21589 0.0
C241 C 0.08294 0.47776 0.20537 0.0
N242 N 0.12115 0.48623 0.21506 0.0
N243 N 0.10956 0.49902 0.23262 0.0
C244 C 0.1797 0.46109 0.28313 0.0
O245 O 0.20909 0.44697 0.27046 0.0
O246 O 0.1785 0.49841 0.17565 0.0
Zn247 Zn 0.15285 0.52066 0.2522 0.0
N248 N 0.18193 0.40885 0.20105 0.0
C249 C 0.1873 0.3379 0.21654 0.0
C250 C 0.1845 0.38466 0.21749 0.0
C251 C 0.18159 0.38831 0.18366 0.0
N252 N 0.18731 0.31731 0.19918 0.0
C253 C 0.18418 0.34116 0.18259 0.0
O254 O 0.22076 0.52101 0.24492 0.0
C255 C 0.24848 0.51136 0.23157 0.0
O256 O 0.23487 0.49457 0.21586 0.0
H257 H 0.18451 0.40167 0.23118 0.0
H258 H 0.18008 0.40869 0.17086 0.0
C259 C 0.16663 0.61539 0.25345 0.0
C260 C 0.15778 0.65976 0.2593 0.0
C261 C 0.09059 0.63427 0.27432 0.0
C262 C 0.10035 0.59027 0.26895 0.0
N263 N 0.13767 0.58187 0.25835 0.0
N264 N 0.11961 0.6678 0.26954 0.0
H265 H 0.19713 0.60685 0.2459 0.0
C266 C 0.18002 0.54012 0.17161 0.0
O267 O 0.18174 0.5696 0.18561 0.0
O268 O 0.14914 0.48828 0.27781 0.0
H269 H 0.07898 0.56292 0.2736 0.0
H270 H 0.18962 0.31812 0.22949 0.0
H271 H 0.06084 0.64159 0.28267 0.0
Zn272 Zn 0.72475 0.63384 0.55455 0.0
C273 C 0.76029 0.74658 0.52496 0.0
N274 N 0.75306 0.7641 0.54242 0.0
C275 C 0.74209 0.72796 0.55276 0.0
N276 N 0.74273 0.68986 0.54242 0.0
N277 N 0.75436 0.70095 0.52464 0.0
C278 C 0.70334 0.62949 0.47526 0.0
O279 O 0.69372 0.59797 0.48779 0.0
O280 O 0.74875 0.63294 0.58196 0.0
Zn281 Zn 0.76833 0.65653 0.50437 0.0
N282 N 0.65983 0.63384 0.55608 0.0
C283 C 0.58844 0.64782 0.54192 0.0
C284 C 0.63522 0.64544 0.54047 0.0
C285 C 0.63967 0.62421 0.57306 0.0
N286 N 0.56823 0.63836 0.5589 0.0
C287 C 0.59249 0.62626 0.57462 0.0
O288 O 0.76796 0.58928 0.51244 0.0
C289 C 0.75917 0.56196 0.52606 0.0
O290 O 0.74376 0.57595 0.54194 0.0
H291 H 0.65192 0.65332 0.52712 0.0
H292 H 0.6605 0.61632 0.58529 0.0
C293 C 0.86103 0.63707 0.49949 0.0
C294 C 0.90413 0.64177 0.49143 0.0
C295 C 0.881 0.71019 0.47698 0.0
C296 C 0.83774 0.70414 0.48429 0.0
N297 N 0.82882 0.66804 0.4956 0.0
N298 N 0.913 0.6788 0.48057 0.0
H299 H 0.85268 0.60884 0.50856 0.0
C300 C 0.79035 0.63414 0.58634 0.0
O301 O 0.82043 0.6356 0.57257 0.0
O302 O 0.73016 0.66108 0.48012 0.0
H303 H 0.8113 0.7275 0.4807 0.0
H304 H 0.56834 0.65731 0.52966 0.0
H305 H 0.8888 0.73899 0.4681 0.0
Zn306 Zn 0.17665 0.9712 0.80492 0.0
C307 C 0.06372 1.00745 0.77596 0.0
N308 N 0.04626 1.00025 0.79344 0.0
C309 C 0.08239 0.98905 0.80373 0.0
N310 N 0.1204 0.98939 0.7933 0.0
N311 N 0.10925 1.00116 0.77556 0.0
C312 C 0.17905 0.94995 0.72622 0.0
O313 O 0.21049 0.94011 0.73875 0.0
O314 O 0.17841 0.99422 0.83233 0.0
Zn315 Zn 0.15343 1.01518 0.7552 0.0
N316 N 0.17753 0.9064 0.80547 0.0
C317 C 0.1799 0.83646 0.78898 0.0
C318 C 0.17805 0.88335 0.78869 0.0
C319 C 0.17835 0.88462 0.82255 0.0
N320 N 0.18098 0.81461 0.80605 0.0
C321 C 0.17986 0.83739 0.82296 0.0
O322 O 0.22116 1.01525 0.76279 0.0
C323 C 0.24833 1.00677 0.77649 0.0
O324 O 0.23408 0.99146 0.79235 0.0
H325 H 0.17739 0.90134 0.77523 0.0
H326 H 0.17864 0.90408 0.83564 0.0
C327 C 0.17138 0.10839 0.75142 0.0
C328 C 0.16667 0.15165 0.74359 0.0
C329 C 0.10057 0.127 0.72742 0.0
C330 C 0.10666 0.08372 0.73459 0.0
N331 N 0.1417 0.07545 0.74656 0.0
N332 N 0.13079 0.15974 0.73193 0.0
H333 H 0.19852 0.10043 0.76112 0.0
C334 C 0.17965 0.03605 0.83615 0.0
O335 O 0.18029 0.06505 0.82197 0.0
O336 O 0.14795 0.97706 0.73105 0.0
H337 H 0.08414 0.05678 0.73043 0.0
H338 H 0.18066 0.81758 0.77574 0.0
H339 H 0.07266 0.13429 0.71798 0.0
Zn340 Zn 0.78902 0.40716 0.00524 0.0
C341 C 0.82017 0.33537 0.05306 0.0
N342 N 0.81032 0.29914 0.04254 0.0
C343 C 0.80104 0.31691 0.02532 0.0
N344 N 0.80485 0.36276 0.02527 0.0
N345 N 0.81701 0.37378 0.043 0.0
C346 C 0.7691 0.4316 0.08634 0.0
O347 O 0.73967 0.43223 0.07229 0.0
O348 O 0.8257 0.40248 0.98065 0.0
Zn349 Zn 0.83427 0.43022 0.05492 0.0
N350 N 0.72809 0.39508 0.99722 0.0
C351 C 0.67536 0.35278 0.97892 0.0
C352 C 0.71899 0.35928 0.98575 0.0
C353 C 0.69562 0.42521 1.00185 0.0
N354 N 0.64309 0.38339 0.9832 0.0
C355 C 0.65199 0.42007 0.99431 0.0
O356 O 0.81461 0.48799 0.04237 0.0
C357 C 0.799 0.50208 0.02654 0.0
O358 O 0.78978 0.47475 0.01296 0.0
H359 H 0.74557 0.33652 0.98167 0.0
H360 H 0.70423 0.45307 0.01109 0.0
C361 C 0.92066 0.43092 0.07293 0.0
C362 C 0.96798 0.43164 0.0735 0.0
C363 C 0.96938 0.43352 0.03952 0.0
C364 C 0.92243 0.43241 0.03907 0.0
N365 N 0.8991 0.43133 0.05577 0.0
N366 N 0.99102 0.43328 0.05666 0.0
H367 H 0.90094 0.43075 0.08593 0.0
C368 C 0.85297 0.43362 0.97576 0.0
O369 O 0.86377 0.46463 0.98837 0.0
O370 O 0.81088 0.43101 0.08233 0.0
H371 H 0.9046 0.43259 0.02556 0.0
H372 H 0.66742 0.32426 0.96989 0.0
H373 H 0.98849 0.43465 0.02635 0.0
Zn374 Zn 0.38647 0.08135 0.30697 0.0
C375 C 0.49866 0.04841 0.27669 0.0
N376 N 0.51659 0.05419 0.29418 0.0
C377 C 0.48067 0.06385 0.30485 0.0
N378 N 0.44229 0.0639 0.29465 0.0
N379 N 0.45298 0.05391 0.27666 0.0
C380 C 0.38188 0.10142 0.22626 0.0
O381 O 0.35027 0.11257 0.23849 0.0
O382 O 0.38548 0.05659 0.33418 0.0
Zn383 Zn 0.40809 0.03979 0.25653 0.0
N384 N 0.38694 0.14612 0.30867 0.0
C385 C 0.38915 0.21736 0.29326 0.0
C386 C 0.3883 0.17051 0.29225 0.0
C387 C 0.38658 0.16652 0.32609 0.0
N388 N 0.38896 0.23782 0.31065 0.0
C389 C 0.38809 0.21374 0.32723 0.0
O390 O 0.34052 0.04101 0.26442 0.0
C391 C 0.31357 0.04925 0.27822 0.0
O392 O 0.32821 0.06324 0.29427 0.0
H393 H 0.38868 0.1536 0.27853 0.0
H394 H 0.38479 0.14601 0.33884 0.0
C395 C 0.38803 0.94693 0.25228 0.0
C396 C 0.39232 0.90382 0.24425 0.0
C397 C 0.46049 0.92707 0.2294 0.0
C398 C 0.45479 0.97031 0.23667 0.0
N399 N 0.41901 0.97917 0.24814 0.0
N400 N 0.42903 0.89503 0.2332 0.0
H401 H 0.36009 0.95535 0.26147 0.0
C402 C 0.38506 1.01481 0.33812 0.0
O403 O 0.38471 0.9855 0.32404 0.0
O404 O 0.4136 0.07587 0.23185 0.0
H405 H 0.4781 0.99682 0.23287 0.0
H406 H 0.39003 0.23733 0.28032 0.0
H407 H 0.489 0.91931 0.22037 0.0
Zn408 Zn 0.28541 0.39982 0.50355 0.0
C409 C 0.34155 0.33153 0.45889 0.0
N410 N 0.33672 0.29509 0.46986 0.0
C411 C 0.3186 0.31187 0.48595 0.0
N412 N 0.31225 0.35734 0.48488 0.0
N413 N 0.32652 0.369 0.46752 0.0
C414 C 0.29522 0.4599 0.41883 0.0
O415 O 0.30508 0.4992 0.42639 0.0
O416 O 0.3129 0.39553 0.53006 0.0
Zn417 Zn 0.3346 0.42611 0.45453 0.0
N418 N 0.22285 0.38451 0.50721 0.0
C419 C 0.16713 0.33598 0.52037 0.0
C420 C 0.21207 0.34581 0.51648 0.0
C421 C 0.19067 0.41475 0.5023 0.0
N422 N 0.13497 0.36625 0.51559 0.0
C423 C 0.1453 0.40579 0.50674 0.0
O424 O 0.31391 0.48201 0.46803 0.0
C425 C 0.29768 0.4957 0.48378 0.0
O426 O 0.2875 0.46802 0.49708 0.0
H427 H 0.23824 0.32349 0.52132 0.0
H428 H 0.2009 0.44626 0.49593 0.0
C429 C 0.4199 0.43342 0.43467 0.0
C430 C 0.46698 0.43887 0.43395 0.0
C431 C 0.46891 0.44291 0.46789 0.0
C432 C 0.42234 0.4375 0.46851 0.0
N433 N 0.3988 0.43313 0.45193 0.0
N434 N 0.49006 0.44373 0.45068 0.0
H435 H 0.40002 0.43034 0.42175 0.0
C436 C 0.34757 0.41771 0.53524 0.0
O437 O 0.37114 0.43941 0.52227 0.0
O438 O 0.30483 0.42436 0.42812 0.0
H439 H 0.40486 0.43691 0.48209 0.0
H440 H 0.15796 0.30516 0.52765 0.0
H441 H 0.4881 0.44666 0.48096 0.0
Zn442 Zn 0.88558 0.08698 0.20533 0.0
C443 C 0.99826 0.05995 0.23661 0.0
N444 N 1.01669 0.07017 0.21962 0.0
C445 C 0.98077 0.07891 0.20877 0.0
N446 N 0.94187 0.07379 0.21835 0.0
N447 N 0.9523 0.0616 0.23612 0.0
C448 C 0.88263 0.10691 0.28484 0.0
O449 O 0.85313 0.11931 0.27188 0.0
O450 O 0.88813 0.06052 0.17834 0.0
Zn451 Zn 0.90786 0.04276 0.2555 0.0
N452 N 0.88204 0.1516 0.20311 0.0
C453 C 0.87922 0.22292 0.21846 0.0
C454 C 0.88229 0.17621 0.21949 0.0
C455 C 0.8791 0.17172 0.18568 0.0
N456 N 0.87623 0.24311 0.20107 0.0
C457 C 0.87642 0.21889 0.18452 0.0
O458 O 0.84051 0.0434 0.2476 0.0
C459 C 0.81339 0.05196 0.23389 0.0
O460 O 0.82772 0.06709 0.218 0.0
H461 H 0.88464 0.15953 0.23322 0.0
H462 H 0.8783 0.15103 0.17294 0.0
C463 C 0.89072 0.94891 0.25694 0.0
C464 C 0.8959 0.90467 0.26368 0.0
C465 C 0.96217 0.92763 0.28018 0.0
C466 C 0.95554 0.97178 0.27416 0.0
N467 N 0.92025 0.98139 0.26251 0.0
N468 N 0.9321 0.89532 0.27497 0.0
H469 H 0.86327 0.95799 0.24759 0.0
C470 C 0.86051 0.03146 0.17181 0.0
O471 O 0.82795 1.01672 0.1829 0.0
O472 O 0.91223 0.07793 0.28035 0.0
H473 H 0.9778 0.9983 0.27899 0.0
H474 H 0.87912 0.24301 0.23137 0.0
H475 H 0.99031 0.91928 0.28933 0.0
Zn476 Zn 0.26644 0.65589 1.00265 0.0
C477 C 0.23111 0.7259 0.95485 0.0
N478 N 0.24107 0.76257 0.96505 0.0
C479 C 0.25137 0.74543 0.98229 0.0
N480 N 0.24832 0.69952 0.98261 0.0
N481 N 0.23533 0.68787 0.96506 0.0
C482 C 0.28421 0.63035 0.92172 0.0
O483 O 0.31369 0.63041 0.93575 0.0
O484 O 0.2306 0.65992 0.02748 0.0
Zn485 Zn 0.21949 0.63099 0.95322 0.0
N486 N 0.3274 0.67008 0.0101 0.0
C487 C 0.37945 0.71592 0.02717 0.0
C488 C 0.33569 0.70695 0.02105 0.0
C489 C 0.36081 0.64097 0.00548 0.0
N490 N 0.41285 0.68677 0.02264 0.0
C491 C 0.40494 0.64914 0.01199 0.0
O492 O 0.24158 0.57458 0.96581 0.0
C493 C 0.25813 0.56078 0.9815 0.0
O494 O 0.2671 0.58817 0.99509 0.0
H495 H 0.30839 0.72862 0.02532 0.0
H496 H 0.35231 0.61095 0.99754 0.0
C497 C 0.13234 0.62533 0.93568 0.0
C498 C 0.08517 0.62104 0.93551 0.0
C499 C 0.08533 0.62041 0.9695 0.0
C500 C 0.13211 0.62486 0.96956 0.0
N501 N 0.15463 0.62699 0.95267 0.0
N502 N 0.06301 0.61835 0.95253 0.0
H503 H 0.15137 0.6264 0.92249 0.0
C504 C 0.20338 0.6288 0.03242 0.0
O505 O 0.1923 0.59786 0.01982 0.0
O506 O 0.24243 0.63036 0.92575 0.0
H507 H 0.15048 0.62621 0.98293 0.0
H508 H 0.38669 0.74528 0.03581 0.0
H509 H 0.06691 0.61834 0.98282 0.0
Zn510 Zn 0.65315 1.01787 0.75442 0.0
C511 C 0.58262 0.97215 0.70826 0.0
N512 N 0.54619 0.97882 0.71907 0.0
C513 C 0.56392 0.99358 0.73563 0.0
N514 N 0.60982 0.99621 0.73498 0.0
N515 N 0.62097 0.98292 0.71744 0.0
C516 C 0.71165 1.01255 0.66894 0.0
O517 O 0.75105 1.00392 0.67663 0.0
O518 O 0.64914 0.98388 0.7796 0.0
Zn519 Zn 0.67786 0.97294 0.70462 0.0
N520 N 0.63873 0.07909 0.76084 0.0
C521 C 0.59504 0.13241 0.77795 0.0
C522 C 0.60274 0.08828 0.77214 0.0
C523 C 0.66792 0.11197 0.75543 0.0
N524 N 0.62482 0.16513 0.77294 0.0
C525 C 0.66171 0.1562 0.76202 0.0
O526 O 0.73439 0.99391 0.71782 0.0
C527 C 0.74841 1.00959 0.73366 0.0
O528 O 0.72104 1.01828 0.74724 0.0
H529 H 0.58082 0.06144 0.7769 0.0
H530 H 0.69595 0.10315 0.74637 0.0
C531 C 0.68426 0.8876 0.68511 0.0
C532 C 0.68896 0.84055 0.68441 0.0
C533 C 0.69153 0.8386 0.71836 0.0
C534 C 0.68679 0.88518 0.71897 0.0
N535 N 0.68351 0.90869 0.70237 0.0
N536 N 0.69276 0.81744 0.70115 0.0
H537 H 0.68212 0.90746 0.67217 0.0
C538 C 0.67872 0.95499 0.78425 0.0
O539 O 0.7079 0.94184 0.77131 0.0
O540 O 0.67611 1.00191 0.6781 0.0
H541 H 0.68594 0.90266 0.73255 0.0
H542 H 0.56635 0.14042 0.78683 0.0
H543 H 0.69445 0.81941 0.73145 0.0
H544 H 0.17526 0.98534 0.86886 0.0
H545 H 0.18194 0.12288 0.84913 0.0
H546 H 0.17695 1.01149 0.90191 0.0
H547 H 0.18238 0.14914 0.88218 0.0
H548 H 0.14781 0.07029 0.9599 0.0
H549 H 0.13586 0.0497 0.92649 0.0
H550 H 0.23191 0.15135 0.90915 0.0
H551 H 0.24289 0.1727 0.94248 0.0
C552 C 0.17691 1.02119 0.87157 0.0
C553 C 0.17908 0.05196 0.85631 0.0
C554 C 0.17741 0.03627 0.89056 0.0
C555 C 0.17996 0.08253 0.8948 0.0
C556 C 0.18113 0.11328 0.87951 0.0
C557 C 0.1807 0.09819 0.86052 0.0
C558 C 0.16583 0.08877 0.94894 0.0
C559 C 0.19651 0.12303 0.95393 0.0
C560 C 0.15928 0.07665 0.92976 0.0
C561 C 0.18335 0.09838 0.91506 0.0
C562 C 0.21247 0.13405 0.92001 0.0
C563 C 0.21888 0.14628 0.93919 0.0
H564 H 0.82081 0.42722 0.11881 0.0
H565 H 0.68252 0.43192 0.09977 0.0
H566 H 0.7956 0.42737 0.15198 0.0
H567 H 0.65719 0.43077 0.13294 0.0
H568 H 0.63431 0.48823 0.19376 0.0
H569 H 0.65463 0.47862 0.16026 0.0
H570 H 0.75903 0.38538 0.17659 0.0
H571 H 0.7395 0.39608 0.21017 0.0
C572 C 0.78499 0.4281 0.12169 0.0
C573 C 0.75374 0.43016 0.10659 0.0
C574 C 0.77044 0.42771 0.14076 0.0
C575 C 0.72424 0.42923 0.14525 0.0
C576 C 0.69302 0.43032 0.1301 0.0
C577 C 0.70757 0.43079 0.11103 0.0
C578 C 0.6611 0.46508 0.19021 0.0
C579 C 0.68544 0.4432 0.20472 0.0
C580 C 0.67276 0.45946 0.17093 0.0
C581 C 0.70893 0.43161 0.16563 0.0
C582 C 0.73169 0.4079 0.18011 0.0
C583 C 0.72017 0.4137 0.19939 0.0
H584 H 0.3841 0.92825 0.35155 0.0
H585 H 0.38952 0.06641 0.37059 0.0
H586 H 0.38469 0.90295 0.38473 0.0
H587 H 0.38882 0.04124 0.40375 0.0
H588 H 0.32609 0.88033 0.44548 0.0
H589 H 0.33651 0.90028 0.41197 0.0
H590 H 0.43024 1.00491 0.42847 0.0
H591 H 0.41875 0.98577 0.46204 0.0
C592 C 0.38529 0.95327 0.36281 0.0
C593 C 0.38626 0.9994 0.35836 0.0
C594 C 0.38543 0.93873 0.38188 0.0
C595 C 0.38656 0.96993 0.39704 0.0
C596 C 0.38846 1.01609 0.39254 0.0
C597 C 0.38838 0.03062 0.37347 0.0
C598 C 0.34955 0.90707 0.44197 0.0
C599 C 0.37131 0.93163 0.45652 0.0
C600 C 0.35562 0.91853 0.42268 0.0
C601 C 0.38381 0.95469 0.41742 0.0
C602 C 0.40746 0.97759 0.43195 0.0
C603 C 0.4012 0.96629 0.45123 0.0
H604 H 0.87623 0.63677 0.60067 0.0
H605 H 0.7369 0.63452 0.61832 0.0
H606 H 0.89976 0.63722 0.63412 0.0
H607 H 0.76036 0.63371 0.65173 0.0
H608 H 0.81185 0.66555 0.71067 0.0
H609 H 0.79388 0.67667 0.67695 0.0
H610 H 0.90276 0.58816 0.66121 0.0
H611 H 0.92146 0.57807 0.6949 0.0
C612 C 0.85058 0.63623 0.61168 0.0
C613 C 0.80465 0.63515 0.60676 0.0
C614 C 0.86411 0.6363 0.6309 0.0
C615 C 0.83208 0.63531 0.64574 0.0
C616 C 0.7861 0.63502 0.64077 0.0
C617 C 0.77258 0.63503 0.62155 0.0
C618 C 0.83248 0.64906 0.70001 0.0
C619 C 0.868 0.62072 0.70556 0.0
C620 C 0.82187 0.65509 0.68064 0.0
C621 C 0.84636 0.63279 0.66627 0.0
C622 C 0.88328 0.60619 0.6718 0.0
C623 C 0.89402 0.60032 0.69119 0.0
H624 H 0.84234 0.88147 0.064 0.0
H625 H 0.89345 1.01284 0.04871 0.0
H626 H 0.84878 0.901 0.09782 0.0
H627 H 0.89785 0.03313 0.08225 0.0
H628 H 0.92366 0.05441 0.14491 0.0
H629 H 0.9307 1.02649 0.1123 0.0
H630 H 0.81105 0.94526 0.12035 0.0
H631 H 0.80605 0.97103 0.15329 0.0
C632 C 0.85543 0.91433 0.06784 0.0
C633 C 0.86713 0.9456 0.05358 0.0
C634 C 0.85863 0.92581 0.08727 0.0
C635 C 0.87317 0.96902 0.09294 0.0
C636 C 0.88692 0.99941 0.07862 0.0
C637 C 0.88419 0.98777 0.05926 0.0
C638 C 0.89943 0.02994 0.13982 0.0
C639 C 0.86466 1.01464 0.15184 0.0
C640 C 0.90308 1.01424 0.12098 0.0
C641 C 0.87148 0.98339 0.11349 0.0
C642 C 0.83669 0.96815 0.12559 0.0
C643 C 0.83348 0.98336 0.1445 0.0
H644 H 0.23232 0.63212 0.88926 0.0
H645 H 0.37075 0.63212 0.90826 0.0
H646 H 0.25748 0.63164 0.85608 0.0
H647 H 0.39597 0.63297 0.87507 0.0
H648 H 0.41996 0.57416 0.81447 0.0
H649 H 0.39967 0.58423 0.84796 0.0
H650 H 0.2929 0.67443 0.83131 0.0
H651 H 0.31243 0.66331 0.79777 0.0
C652 C 0.26815 0.63222 0.88636 0.0
C653 C 0.29948 0.63159 0.90146 0.0
C654 C 0.28265 0.63242 0.86729 0.0
C655 C 0.32888 0.63218 0.86279 0.0
C656 C 0.36015 0.63246 0.87793 0.0
C657 C 0.34565 0.63216 0.897 0.0
C658 C 0.39266 0.59678 0.81795 0.0
C659 C 0.36765 0.61764 0.80336 0.0
C660 C 0.38101 0.60264 0.83721 0.0
C661 C 0.34418 0.62971 0.84242 0.0
C662 C 0.32076 0.6525 0.82786 0.0
C663 C 0.33228 0.64647 0.8086 0.0
H664 H 0.63619 0.03646 0.64882 0.0
H665 H 0.7812 0.03896 0.64576 0.0
H666 H 0.63174 0.06997 0.61699 0.0
H667 H 0.7769 0.07325 0.61411 0.0
H668 H 0.75558 0.16976 0.56492 0.0
H669 H 0.75276 0.14454 0.59815 0.0
H670 H 0.65019 0.04728 0.5833 0.0
H671 H 0.65293 0.07241 0.55005 0.0
C672 C 0.66706 0.04389 0.64135 0.0
C673 C 0.70891 0.03431 0.6498 0.0
C674 C 0.66456 0.06331 0.62312 0.0
C675 C 0.70397 0.0744 0.61301 0.0
C676 C 0.74588 0.06564 0.6216 0.0
C677 C 0.74832 0.04569 0.63972 0.0
C678 C 0.73172 0.14365 0.56878 0.0
C679 C 0.70464 0.12295 0.55475 0.0
C680 C 0.73045 0.1289 0.58781 0.0
C681 C 0.7017 0.0935 0.59332 0.0
C682 C 0.67264 0.07469 0.57954 0.0
C683 C 0.67425 0.08909 0.56047 0.0
H684 H 0.23843 0.40176 0.29954 0.0
H685 H 0.142 0.50491 0.31368 0.0
H686 H 0.26241 0.39898 0.33296 0.0
H687 H 0.16608 0.50207 0.34709 0.0
H688 H 0.27044 0.52953 0.39552 0.0
H689 H 0.23718 0.52556 0.36364 0.0
H690 H 0.23795 0.38054 0.3665 0.0
H691 H 0.27041 0.38461 0.3986 0.0
C692 C 0.22173 0.42324 0.30982 0.0
C693 C 0.18842 0.4537 0.30386 0.0
C694 C 0.23545 0.42158 0.329 0.0
C695 C 0.21653 0.45068 0.34265 0.0
C696 C 0.18178 0.47967 0.33686 0.0
C697 C 0.16769 0.48098 0.31773 0.0
C698 C 0.26334 0.49675 0.38944 0.0
C699 C 0.27374 0.45728 0.39959 0.0
C700 C 0.24399 0.4945 0.37118 0.0
C701 C 0.23488 0.45273 0.36251 0.0
C702 C 0.24492 0.41325 0.3727 0.0
C703 C 0.26371 0.41555 0.39108 0.0
H704 H 0.67513 0.48945 0.3682 0.0
H705 H 0.67486 0.62817 0.34988 0.0
H706 H 0.67625 0.51376 0.4015 0.0
H707 H 0.67475 0.65257 0.38321 0.0
H708 H 0.6454 0.56696 0.4602 0.0
H709 H 0.63401 0.54806 0.42659 0.0
H710 H 0.7238 0.65615 0.41028 0.0
H711 H 0.73414 0.6758 0.44386 0.0
C712 C 0.67512 0.52518 0.37127 0.0
C713 C 0.67547 0.55683 0.35631 0.0
C714 C 0.67531 0.53919 0.39042 0.0
C715 C 0.67571 0.58526 0.39516 0.0
C716 C 0.67516 0.61686 0.38017 0.0
C717 C 0.67502 0.60283 0.36101 0.0
C718 C 0.66213 0.58722 0.44944 0.0
C719 C 0.69087 0.62281 0.4548 0.0
C720 C 0.65594 0.57607 0.43012 0.0
C721 C 0.67849 0.60007 0.41562 0.0
C722 C 0.70556 0.63704 0.42097 0.0
C723 C 0.71158 0.64833 0.44029 0.0
H724 H 0.32017 0.92301 0.61968 0.0
H725 H 0.18171 0.92546 0.60077 0.0
H726 H 0.29517 0.92322 0.65286 0.0
H727 H 0.15659 0.92433 0.63398 0.0
H728 H 0.13359 0.98186 0.69488 0.0
H729 H 0.1535 0.97221 0.66133 0.0
H730 H 0.25949 0.88064 0.67751 0.0
H731 H 0.24039 0.8914 0.71112 0.0
C732 C 0.28435 0.92342 0.62259 0.0
C733 C 0.25298 0.92479 0.60752 0.0
C734 C 0.26993 0.92305 0.64167 0.0
C735 C 0.22374 0.92387 0.64622 0.0
C736 C 0.1924 0.92438 0.6311 0.0
C737 C 0.20684 0.92485 0.61201 0.0
C738 C 0.16062 0.95903 0.69128 0.0
C739 C 0.18557 0.93769 0.70576 0.0
C740 C 0.17206 0.95341 0.67197 0.0
C741 C 0.20858 0.92608 0.66662 0.0
C742 C 0.23188 0.90279 0.68107 0.0
C743 C 0.22061 0.90862 0.70038 0.0
H744 H 0.821 0.38757 0.94449 0.0
H745 H 0.9103 0.49634 0.96048 0.0
H746 H 0.83005 0.40753 0.91089 0.0
H747 H 0.9203 0.5156 0.92684 0.0
H748 H 0.87752 0.43601 0.85032 0.0
H749 H 0.87874 0.41139 0.8836 0.0
H750 H 0.87624 0.55001 0.90214 0.0
H751 H 0.87622 0.57459 0.86888 0.0
C752 C 0.8434 0.4151 0.94083 0.0
C753 C 0.86465 0.44051 0.95525 0.0
C754 C 0.84866 0.42657 0.9215 0.0
C755 C 0.87547 0.46362 0.91608 0.0
C756 C 0.89858 0.48752 0.93047 0.0
C757 C 0.89318 0.47616 0.94979 0.0
C758 C 0.87733 0.46127 0.86149 0.0
C759 C 0.87629 0.5073 0.85689 0.0
C760 C 0.87786 0.44711 0.88061 0.0
C761 C 0.87741 0.4786 0.89565 0.0
C762 C 0.87712 0.5247 0.891 0.0
C763 C 0.87664 0.53885 0.87188 0.0
H764 H 0.30135 0.03071 0.11276 0.0
H765 H 0.29201 0.17529 0.11042 0.0
H766 H 0.33328 0.03588 0.14487 0.0
H767 H 0.32341 0.18061 0.14265 0.0
H768 H 0.3216 0.1584 0.20941 0.0
H769 H 0.29934 0.16057 0.17578 0.0
H770 H 0.4015 0.06269 0.16234 0.0
H771 H 0.42383 0.06044 0.19598 0.0
C772 C 0.3062 0.0637 0.11904 0.0
C773 C 0.29357 0.10269 0.10901 0.0
C774 C 0.3248 0.06666 0.13743 0.0
C775 C 0.33097 0.10867 0.14636 0.0
C776 C 0.31877 0.14769 0.13628 0.0
C777 C 0.30066 0.14469 0.11779 0.0
C778 C 0.33996 0.138 0.19923 0.0
C779 C 0.37439 0.10911 0.20546 0.0
C780 C 0.3272 0.13929 0.17993 0.0
C781 C 0.34825 0.11137 0.1664 0.0
C782 C 0.38415 0.08411 0.17245 0.0
C783 C 0.39725 0.08318 0.19172 0.0
H784 H 0.32747 0.54859 0.64416 0.0
H785 H 0.43084 0.45034 0.65536 0.0
H786 H 0.32105 0.52099 0.61119 0.0
H787 H 0.42533 0.42389 0.62214 0.0
H788 H 0.42548 0.44701 0.55235 0.0
H789 H 0.43592 0.46949 0.58591 0.0
H790 H 0.29821 0.43299 0.59799 0.0
H791 H 0.28794 0.40921 0.56475 0.0
C792 C 0.34902 0.52136 0.63954 0.0
C793 C 0.37939 0.50137 0.65237 0.0
C794 C 0.34524 0.50555 0.62073 0.0
C795 C 0.3726 0.47028 0.61423 0.0
C796 C 0.40387 0.4511 0.62686 0.0
C797 C 0.40683 0.46611 0.64584 0.0
C798 C 0.3977 0.44304 0.56225 0.0
C799 C 0.35594 0.42619 0.55589 0.0
C800 C 0.4037 0.45592 0.5814 0.0
C801 C 0.36774 0.45321 0.5944 0.0
C802 C 0.32634 0.43557 0.58818 0.0
C803 C 0.32065 0.42169 0.56919 0.0
H804 H 0.82136 0.16609 0.29953 0.0
H805 H 0.92744 0.07535 0.31638 0.0
H806 H 0.80225 0.17806 0.33306 0.0
H807 H 0.90761 0.0864 0.34986 0.0
H808 H 0.74153 0.13605 0.39113 0.0
H809 H 0.76641 0.13529 0.35793 0.0
H810 H 0.90507 0.13672 0.37671 0.0
H811 H 0.88011 0.13637 0.40995 0.0
C812 C 0.84098 0.14907 0.31038 0.0
C813 C 0.87577 0.11952 0.30521 0.0
C814 C 0.82973 0.15563 0.32963 0.0
C815 C 0.85292 0.13274 0.34422 0.0
C816 C 0.88918 0.1049 0.33907 0.0
C817 C 0.90052 0.09844 0.31982 0.0
C818 C 0.77734 0.13614 0.38819 0.0
C819 C 0.80881 0.13563 0.40323 0.0
C820 C 0.79166 0.13619 0.36911 0.0
C821 C 0.83784 0.13578 0.36457 0.0
C822 C 0.86928 0.13631 0.37964 0.0
C823 C 0.85494 0.13628 0.39873 0.0
H824 H 0.14443 0.56763 0.04771 0.0
H825 H 0.23704 0.67358 0.06369 0.0
H826 H 0.13394 0.54862 0.08135 0.0
H827 H 0.22768 0.65375 0.09727 0.0
H828 H 0.1812 0.6265 0.15795 0.0
H829 H 0.18028 0.65133 0.1247 0.0
H830 H 0.17566 0.51278 0.10605 0.0
H831 H 0.17524 0.4881 0.13926 0.0
C832 C 0.16223 0.58721 0.05841 0.0
C833 C 0.19175 0.62203 0.05294 0.0
C834 C 0.15655 0.576 0.07773 0.0
C835 C 0.18044 0.59914 0.09213 0.0
C836 C 0.20838 0.63534 0.08668 0.0
C837 C 0.21385 0.64672 0.06735 0.0
C838 C 0.17984 0.60132 0.14675 0.0
C839 C 0.17871 0.55527 0.15132 0.0
C840 C 0.17951 0.61559 0.12764 0.0
C841 C 0.17811 0.58418 0.11256 0.0
C842 C 0.17619 0.53809 0.11719 0.0
C843 C 0.17642 0.52384 0.1363 0.0
H844 H 0.82142 0.92599 0.89048 0.0
H845 H 0.68324 0.93141 0.90955 0.0
H846 H 0.79606 0.92617 0.85732 0.0
H847 H 0.65776 0.9304 0.87638 0.0
H848 H 0.73906 0.89514 0.79918 0.0
H849 H 0.75868 0.88414 0.83273 0.0
H850 H 0.65602 0.97912 0.8492 0.0
H851 H 0.63562 0.98913 0.81572 0.0
C852 C 0.7856 0.92704 0.8876 0.0
C853 C 0.75441 0.92934 0.9027 0.0
C854 C 0.77097 0.92666 0.86855 0.0
C855 C 0.72476 0.92849 0.86408 0.0
C856 C 0.69359 0.92972 0.87923 0.0
C857 C 0.70822 0.93011 0.89829 0.0
C858 C 0.72014 0.91312 0.80997 0.0
C859 C 0.6859 0.94322 0.8047 0.0
C860 C 0.7317 0.90712 0.82924 0.0
C861 C 0.70941 0.93117 0.84374 0.0
C862 C 0.67374 0.95969 0.8385 0.0
C863 C 0.66206 0.96555 0.81924 0.0
H864 H 0.23076 0.26523 0.17393 0.0
H865 H 0.14023 0.36262 0.14914 0.0
H866 H 0.23832 0.22885 0.1427 0.0
H867 H 0.14776 0.32612 0.11804 0.0
H868 H 0.14996 0.22913 0.06693 0.0
H869 H 0.13299 0.25021 0.10021 0.0
H870 H 0.27539 0.26071 0.11198 0.0
H871 H 0.29196 0.23888 0.07898 0.0
C872 C 0.21205 0.27854 0.1619 0.0
C873 C 0.18556 0.31732 0.16395 0.0
C874 C 0.21644 0.25774 0.14405 0.0
C875 C 0.19371 0.27479 0.128 0.0
C876 C 0.16543 0.31214 0.13022 0.0
C877 C 0.16158 0.33337 0.148 0.0
C878 C 0.1774 0.23451 0.07691 0.0
C879 C 0.22219 0.23119 0.07078 0.0
C880 C 0.16779 0.24697 0.0958 0.0
C881 C 0.20296 0.25664 0.10867 0.0
C882 C 0.2477 0.25253 0.10247 0.0
C883 C 0.25721 0.24001 0.08367 0.0
H884 H 0.58461 0.40868 0.31956 0.0
H885 H 0.56888 0.55021 0.33096 0.0
H886 H 0.56463 0.39155 0.35291 0.0
H887 H 0.54947 0.53356 0.36421 0.0
H888 H 0.54058 0.49014 0.426 0.0
H889 H 0.57887 0.49911 0.3953 0.0
H890 H 0.48823 0.40219 0.36981 0.0
H891 H 0.44997 0.39297 0.40048 0.0
C892 C 0.57837 0.43606 0.32943 0.0
C893 C 0.57905 0.48071 0.32302 0.0
C894 C 0.56657 0.42634 0.34837 0.0
C895 C 0.5555 0.46126 0.36109 0.0
C896 C 0.5583 0.50604 0.35478 0.0
C897 C 0.56931 0.5156 0.33581 0.0
C898 C 0.52913 0.47036 0.4139 0.0
C899 C 0.49167 0.44155 0.41557 0.0
C900 C 0.55105 0.47555 0.39636 0.0
C901 C 0.53644 0.45142 0.38022 0.0
C902 C 0.50038 0.42097 0.38208 0.0
C903 C 0.47805 0.41621 0.39957 0.0
H904 H 0.40059 0.82457 0.57044 0.0
H905 H 0.25879 0.82281 0.5834 0.0
H906 H 0.41768 0.80427 0.6037 0.0
H907 H 0.27549 0.80367 0.6167 0.0
H908 H 0.32237 0.79147 0.67826 0.0
H909 H 0.31374 0.82935 0.64737 0.0
H910 H 0.40228 0.73213 0.6213 0.0
H911 H 0.41106 0.6946 0.65201 0.0
C912 C 0.3733 0.82136 0.58064 0.0
C913 C 0.32855 0.82623 0.57471 0.0
C914 C 0.38295 0.80952 0.59956 0.0
C915 C 0.34791 0.80269 0.61279 0.0
C916 C 0.30319 0.8094 0.60691 0.0
C917 C 0.29359 0.8203 0.58792 0.0
C918 C 0.34037 0.77857 0.66596 0.0
C919 C 0.36666 0.73953 0.66747 0.0
C920 C 0.33535 0.80017 0.64831 0.0
C921 C 0.35725 0.7836 0.63196 0.0
C922 C 0.38526 0.74588 0.63369 0.0
C923 C 0.38979 0.72399 0.65124 0.0
H924 H 1.01171 0.56866 0.92805 0.0
H925 H 0.10049 0.66637 0.90196 0.0
H926 H 0.97304 0.55847 0.89736 0.0
H927 H 0.06166 0.65647 0.87147 0.0
H928 H 0.96506 0.64923 0.82158 0.0
H929 H 0.98399 0.66616 0.85506 0.0
H930 H 1.00354 0.52452 0.86578 0.0
H931 H 0.98509 0.50803 0.83237 0.0
C932 C 1.02255 0.58839 0.91585 0.0
C933 C 0.05964 0.61775 0.91733 0.0
C934 C 1.00043 0.58254 0.89833 0.0
C935 C 1.01433 0.60674 0.88209 0.0
C936 C 0.04998 0.63769 0.88381 0.0
C937 C 0.07258 0.64294 0.90121 0.0
C938 C 0.9719 0.62181 0.83134 0.0
C939 C 0.97282 0.57735 0.82469 0.0
C940 C 0.98313 0.63143 0.85037 0.0
C941 C 0.9952 0.59661 0.86297 0.0
C942 C 0.99392 0.55193 0.85645 0.0
C943 C 0.98351 0.54249 0.83738 0.0
H944 H 0.9074 0.79805 0.83722 0.0
H945 H 0.80736 0.69746 0.85138 0.0
H946 H 0.89282 0.83607 0.86769 0.0
H947 H 0.79407 0.73425 0.88179 0.0
H948 H 0.7525 0.82083 0.92956 0.0
H949 H 0.76271 0.80131 0.89588 0.0
H950 H 0.90638 0.82005 0.90206 0.0
H951 H 0.89551 0.84096 0.9357 0.0
C952 C 0.88226 0.78413 0.84678 0.0
C953 C 0.85921 0.74421 0.84201 0.0
C954 C 0.87411 0.80577 0.86425 0.0
C955 C 0.84232 0.7882 0.87717 0.0
C956 C 0.81842 0.74904 0.8721 0.0
C957 C 0.82664 0.72741 0.85475 0.0
C958 C 0.78605 0.82195 0.92348 0.0
C959 C 0.82318 0.83309 0.93493 0.0
C960 C 0.79199 0.81047 0.9043 0.0
C961 C 0.83542 0.80864 0.89635 0.0
C962 C 0.87245 0.82182 0.90766 0.0
C963 C 0.86635 0.83383 0.92687 0.0
H964 H 0.6174 0.56669 0.60272 0.0
H965 H 0.51359 0.6619 0.58777 0.0
H966 H 0.58025 0.55218 0.63295 0.0
H967 H 0.47524 0.64598 0.61805 0.0
H968 H 0.46347 0.64497 0.68586 0.0
H969 H 0.48739 0.6587 0.65276 0.0
H970 H 0.51397 0.51683 0.64589 0.0
H971 H 0.49172 0.50392 0.67903 0.0
C972 C 0.58675 0.58478 0.60589 0.0
C973 C 0.56899 0.61615 0.5929 0.0
C974 C 0.56493 0.57581 0.62315 0.0
C975 C 0.52456 0.59771 0.6279 0.0
C976 C 0.5064 0.62874 0.61486 0.0
C977 C 0.52825 0.63764 0.59749 0.0
C978 C 0.47266 0.6167 0.67693 0.0
C979 C 0.47452 0.57326 0.68465 0.0
C980 C 0.4866 0.62448 0.65805 0.0
C981 C 0.50287 0.58889 0.64672 0.0
C982 C 0.50239 0.5451 0.6543 0.0
C983 C 0.48915 0.53756 0.67317 0.0
H984 H 0.65189 0.26401 0.33785 0.0
H985 H 0.74601 0.37 0.35234 0.0
H986 H 0.66906 0.22627 0.36812 0.0
H987 H 0.76168 0.33347 0.38257 0.0
H988 H 0.81053 0.24795 0.42931 0.0
H989 H 0.79773 0.26796 0.39587 0.0
H990 H 0.65584 0.23933 0.40273 0.0
H991 H 0.66932 0.21846 0.43619 0.0
C992 C 0.67619 0.27927 0.34746 0.0
C993 C 0.69688 0.32051 0.34278 0.0
C994 C 0.68581 0.25775 0.36482 0.0
C995 C 0.71676 0.27679 0.37775 0.0
C996 C 0.73809 0.31751 0.37285 0.0
C997 C 0.72843 0.33898 0.3556 0.0
C998 C 0.77687 0.24486 0.42344 0.0
C999 C 0.74097 0.2311 0.43507 0.0
C1000 C 0.76942 0.25661 0.40439 0.0
C1001 C 0.72565 0.25598 0.39672 0.0
C1002 C 0.69002 0.23981 0.40814 0.0
C1003 C 0.69764 0.22766 0.42725 0.0
H1004 H 0.94558 0.38952 0.10719 0.0
H1005 H 0.04722 0.47442 0.0814 0.0
H1006 H 0.98324 0.39626 0.13798 0.0
H1007 H 0.0853 0.48078 0.11235 0.0
H1008 H 0.08103 0.53619 0.17603 0.0
H1009 H 0.06187 0.51989 0.14271 0.0
H1010 H 0.05357 0.37825 0.15617 0.0
H1011 H 0.07386 0.39496 0.18952 0.0
C1012 C 0.97605 0.40948 0.10805 0.0
C1013 C 0.99286 0.43225 0.09191 0.0
C1014 C 0.99802 0.41281 0.12567 0.0
C1015 C 0.03714 0.43917 0.12758 0.0
C1016 C 0.05501 0.46048 0.1113 0.0
C1017 C 0.03327 0.45674 0.0936 0.0
C1018 C 0.07676 0.50149 0.17161 0.0
C1019 C 0.08011 0.46663 0.185 0.0
C1020 C 0.06571 0.49211 0.1526 0.0
C1021 C 0.05633 0.44776 0.14683 0.0
C1022 C 0.06065 0.41273 0.16024 0.0
C1023 C 0.07248 0.42214 0.17921 0.0
H1024 H 0.80144 0.74242 0.58117 0.0
H1025 H 0.65992 0.72428 0.56972 0.0
H1026 H 0.78459 0.76091 0.61451 0.0
H1027 H 0.64262 0.74321 0.60315 0.0
H1028 H 0.64343 0.85746 0.65094 0.0
H1029 H 0.65299 0.81978 0.62018 0.0
H1030 H 0.74997 0.72995 0.64557 0.0
H1031 H 0.74044 0.76755 0.67642 0.0
C1032 C 0.76681 0.7413 0.58602 0.0
C1033 C 0.73196 0.73107 0.57321 0.0
C1034 C 0.75715 0.75173 0.60504 0.0
C1035 C 0.71231 0.75347 0.61137 0.0
C1036 C 0.67745 0.74202 0.5986 0.0
C1037 C 0.68728 0.73081 0.57961 0.0
C1038 C 0.66667 0.82961 0.65 0.0
C1039 C 0.69185 0.81602 0.66601 0.0
C1040 C 0.67166 0.80764 0.63245 0.0
C1041 C 0.70224 0.772 0.63054 0.0
C1042 C 0.72627 0.75741 0.64668 0.0
C1043 C 0.72077 0.77893 0.6643 0.0
H1044 H 0.07949 0.90656 0.82025 0.0
H1045 H 0.07422 0.04843 0.83262 0.0
H1046 H 0.05913 0.8897 0.85355 0.0
H1047 H 0.05503 0.03197 0.86595 0.0
H1048 H 0.04442 0.98585 0.92778 0.0
H1049 H 0.08188 0.995 0.89681 0.0
H1050 H 0.98592 0.90366 0.87108 0.0
H1051 H 0.94868 0.89442 0.9019 0.0
C1052 C 0.07551 0.93397 0.83032 0.0
C1053 C 0.07928 0.97867 0.82418 0.0
C1054 C 0.06362 0.92443 0.84927 0.0
C1055 C 0.05573 0.95953 0.86234 0.0
C1056 C 0.06149 1.00424 0.85628 0.0
C1057 C 0.07241 1.0137 0.83726 0.0
C1058 C 0.03168 0.96736 0.91554 0.0
C1059 C 0.99309 0.9401 0.9172 0.0
C1060 C 0.05306 0.97268 0.89784 0.0
C1061 C 0.03675 0.95011 0.88155 0.0
C1062 C 0.99946 0.92121 0.88342 0.0
C1063 C 0.97775 0.9164 0.90102 0.0
H1064 H 0.9156 0.19672 0.15014 0.0
H1065 H 0.82948 0.29528 0.17685 0.0
H1066 H 0.90546 0.23384 0.11934 0.0
H1067 H 0.81968 0.33265 0.14596 0.0
H1068 H 0.76233 0.32972 0.08262 0.0
H1069 H 0.77988 0.3086 0.11561 0.0
H1070 H 0.92147 0.30608 0.10155 0.0
H1071 H 0.90354 0.32833 0.06858 0.0
C1072 C 0.89447 0.22626 0.14945 0.0
C1073 C 0.87259 0.24252 0.16589 0.0
C1074 C 0.88921 0.24792 0.13184 0.0
C1075 C 0.8617 0.2861 0.13025 0.0
C1076 C 0.84085 0.30312 0.14676 0.0
C1077 C 0.84655 0.28177 0.16442 0.0
C1078 C 0.79725 0.32618 0.08685 0.0
C1079 C 0.83176 0.3318 0.07339 0.0
C1080 C 0.80733 0.31401 0.10566 0.0
C1081 C 0.85207 0.30571 0.11116 0.0
C1082 C 0.88671 0.31229 0.09771 0.0
C1083 C 0.87659 0.32535 0.07895 0.0
H1084 H 0.61646 0.0588 0.41036 0.0
H1085 H 0.51978 0.16363 0.42176 0.0
H1086 H 0.58011 0.04332 0.37993 0.0
H1087 H 0.48239 0.14718 0.39126 0.0
H1088 H 0.48172 0.14403 0.32338 0.0
H1089 H 0.50272 0.15701 0.35686 0.0
H1090 H 0.5113 1.01345 0.36571 0.0
H1091 H 0.49181 1.001 0.33209 0.0
C1092 C 0.58741 0.07858 0.40638 0.0
C1093 C 0.57158 0.11311 0.41831 0.0
C1094 C 0.56609 0.0692 0.38903 0.0
C1095 C 0.52834 0.09403 0.38318 0.0
C1096 C 0.51163 0.12773 0.39534 0.0
C1097 C 0.53288 0.13696 0.41281 0.0
C1098 C 0.48665 0.11544 0.33274 0.0
C1099 C 0.48427 0.07159 0.32549 0.0
C1100 C 0.49865 0.12276 0.35186 0.0
C1101 C 0.50867 0.08624 0.36392 0.0
C1102 C 0.50431 0.04227 0.35672 0.0
C1103 C 0.49283 0.03508 0.33759 0.0
H1104 H 0.28507 0.33216 0.42888 0.0
H1105 H 0.42486 0.31758 0.44402 0.0
H1106 H 0.30192 0.30936 0.39605 0.0
H1107 H 0.4422 0.29515 0.41095 0.0
H1108 H 0.42518 0.18704 0.36153 0.0
H1109 H 0.41951 0.22452 0.39243 0.0
H1110 H 0.34506 0.33265 0.36621 0.0
H1111 H 0.35057 0.29507 0.33517 0.0
C1112 C 0.31973 0.32586 0.42489 0.0
C1113 C 0.35396 0.32793 0.43865 0.0
C1114 C 0.32939 0.31277 0.40616 0.0
C1115 C 0.37341 0.30104 0.4009 0.0
C1116 C 0.40798 0.30415 0.41462 0.0
C1117 C 0.39823 0.3173 0.43341 0.0
C1118 C 0.40767 0.2188 0.36228 0.0
C1119 C 0.38755 0.23761 0.3459 0.0
C1120 C 0.40498 0.24059 0.37997 0.0
C1121 C 0.38176 0.28144 0.38172 0.0
C1122 C 0.36297 0.30105 0.36527 0.0
C1123 C 0.36618 0.27955 0.34752 0.0
H1124 H 0.97608 0.15748 0.18886 0.0
H1125 H 0.99906 1.01513 0.18299 0.0
H1126 H 1.00052 0.16912 0.15564 0.0
H1127 H 1.0238 1.02634 0.15001 0.0
H1128 H 0.12938 0.07296 0.10707 0.0
H1129 H 0.09306 0.06272 0.13786 0.0
H1130 H 0.9855 0.15115 0.12054 0.0
H1131 H 1.02266 0.16249 0.0896 0.0
C1132 C 0.98472 0.12863 0.18016 0.0
C1133 C 0.98497 0.08538 0.18812 0.0
C1134 C 0.99899 0.13521 0.16127 0.0
C1135 C 1.01453 0.09866 0.15035 0.0
C1136 C 1.01272 0.05519 0.15819 0.0
C1137 C 0.99811 0.04867 0.17692 0.0
C1138 C 0.09838 0.09083 0.10983 0.0
C1139 C 0.07924 0.11906 0.09595 0.0
C1140 C 0.07717 0.08438 0.1274 0.0
C1141 C 0.03627 0.10588 0.13153 0.0
C1142 C 1.01708 0.13428 0.11774 0.0
C1143 C 0.03823 0.14055 0.10004 0.0
H1144 H 0.29017 0.73423 0.9259 0.0
H1145 H 0.14829 0.72698 0.93843 0.0
H1146 H 0.27332 0.75201 0.89248 0.0
H1147 H 0.13102 0.74598 0.90501 0.0
H1148 H 0.13654 0.85682 0.85656 0.0
H1149 H 0.14514 0.81946 0.88734 0.0
H1150 H 0.23592 0.72372 0.86172 0.0
H1151 H 0.22725 0.76122 0.83074 0.0
C1152 C 0.25536 0.73529 0.92127 0.0
C1153 C 0.22043 0.72831 0.93442 0.0
C1154 C 0.24568 0.74538 0.90221 0.0
C1155 C 0.20085 0.7502 0.89616 0.0
C1156 C 0.16585 0.7422 0.9093 0.0
C1157 C 0.17561 0.73116 0.92831 0.0
C1158 C 0.15813 0.82769 0.85743 0.0
C1159 C 0.18186 0.81246 0.8413 0.0
C1160 C 0.1626 0.80593 0.87502 0.0
C1161 C 0.19124 0.76873 0.87691 0.0
C1162 C 0.21375 0.75244 0.86065 0.0
C1163 C 0.20872 0.77384 0.84295 0.0
H1164 H 0.57723 0.03036 0.67904 0.0
H1165 H 0.57499 0.88893 0.69242 0.0
H1166 H 0.55492 1.01365 0.64608 0.0
H1167 H 0.553 0.8718 0.65923 0.0
H1168 H 0.44208 0.88432 0.6101 0.0
H1169 H 0.47902 0.89103 0.64114 0.0
H1170 H 0.58336 0.97293 0.61571 0.0
H1171 H 0.54652 0.96606 0.5845 0.0
C1172 C 0.57344 0.99558 0.67466 0.0
C1173 C 0.57895 0.96079 0.68792 0.0
C1174 C 0.56067 0.98599 0.65586 0.0
C1175 C 0.5528 0.94144 0.65007 0.0
C1176 C 0.55915 0.90643 0.66332 0.0
C1177 C 0.57205 0.9161 0.68217 0.0
C1178 C 0.47297 0.90356 0.61105 0.0
C1179 C 0.49094 0.9253 0.59486 0.0
C1180 C 0.49442 0.90692 0.6288 0.0
C1181 C 0.53397 0.93254 0.6308 0.0
C1182 C 0.55279 0.95308 0.61454 0.0
C1183 C 0.53172 0.9491 0.59671 0.0
H1184 H 0.66712 1.01032 0.00909 0.0
H1185 H 0.56638 0.90698 0.01828 0.0
H1186 H 0.60822 0.06539 1.00439 0.0
H1187 H 0.50728 0.96288 0.01387 0.0
H1188 H 0.41934 0.08717 0.02583 0.0
H1189 H 0.47813 0.03163 0.03046 0.0
H1190 H 0.54805 0.08218 0.98072 0.0
H1191 H 0.48892 0.13734 0.97573 0.0
C1192 C 0.63251 0.99894 0.00974 0.0
C1193 C 0.62159 0.95369 0.01361 0.0
C1194 C 0.5987 0.03079 0.00718 0.0
C1195 C 0.5532 1.01839 0.00866 0.0
C1196 C 0.54214 0.97343 0.01279 0.0
C1197 C 0.57599 0.94143 0.01524 0.0
C1198 C 0.44671 0.0862 0.01564 0.0
C1199 C 0.44874 0.1164 1.00013 0.0
C1200 C 0.48055 0.05436 0.01839 0.0
C1201 C 0.51745 0.05236 0.00587 0.0
C1202 C 0.52012 0.08313 0.99067 0.0
C1203 C 0.48618 0.11476 0.98784 0.0
H1204 H 0.72892 0.66651 0.27277 0.0
H1205 H 0.67776 0.733 0.22215 0.0
H1206 H 0.7851 0.72543 0.27646 0.0
H1207 H 0.73357 0.79242 0.22627 0.0
H1208 H 0.80533 0.91341 0.25492 0.0
H1209 H 0.75072 0.85387 0.2497 0.0
H1210 H 0.85368 0.75433 0.25921 0.0
H1211 H 0.90918 0.81397 0.26407 0.0
C1212 C 0.72982 0.69315 0.26224 0.0
C1213 C 0.69904 0.69427 0.24689 0.0
C1214 C 0.76206 0.72711 0.26445 0.0
C1215 C 0.76393 0.76331 0.25157 0.0
C1216 C 0.73276 0.76502 0.23648 0.0
C1217 C 0.70075 0.73091 0.23416 0.0
C1218 C 0.81701 0.87903 0.25542 0.0
C1219 C 0.86225 0.86872 0.25958 0.0
C1220 C 0.78537 0.84481 0.25255 0.0
C1221 C 0.79794 0.79949 0.25403 0.0
C1222 C 0.84297 0.78903 0.25817 0.0
C1223 C 0.87475 0.82323 0.26089 0.0
H1224 H 0.92113 0.08535 0.48348 0.0
H1225 H 0.98943 0.13469 0.53412 0.0
H1226 H 0.97941 1.02913 0.47926 0.0
H1227 H 0.04811 0.07888 0.52951 0.0
H1228 H 0.16732 1.00572 0.50156 0.0
H1229 H 0.10895 0.06143 0.50607 0.0
H1230 H 1.00705 0.96003 0.49624 0.0
H1231 H 0.06554 0.90347 0.49206 0.0
C1232 C 0.94809 0.08406 0.49388 0.0
C1233 C 0.94989 0.11424 0.50942 0.0
C1234 C 0.98166 0.05184 0.49136 0.0
C1235 C 1.01807 0.04942 0.50414 0.0
C1236 C 1.02054 0.08015 0.51937 0.0
C1237 C 0.98686 0.11215 0.52198 0.0
C1238 C 0.13261 0.99469 0.5008 0.0
C1239 C 0.12126 0.94956 0.49687 0.0
C1240 C 0.0991 1.02692 0.50325 0.0
C1241 C 0.0535 1.01503 0.50159 0.0
C1242 C 0.04201 0.97019 0.49745 0.0
C1243 C 0.07552 0.93781 0.49513 0.0
H1244 H 0.75271 0.14859 0.75384 0.0
H1245 H 0.64738 0.24675 0.76251 0.0
H1246 H 0.80669 0.20877 0.74895 0.0
H1247 H 0.70236 0.30704 0.75806 0.0
H1248 H 0.82641 0.3956 0.77246 0.0
H1249 H 0.77092 0.336 0.7759 0.0
H1250 H 0.82274 0.27085 0.72534 0.0
H1251 H 0.87777 0.33105 0.72142 0.0
C1252 C 0.74056 0.1828 0.7543 0.0
C1253 C 0.69507 0.19257 0.7582 0.0
C1254 C 0.77185 0.21738 0.75164 0.0
C1255 C 0.7587 0.26251 0.75309 0.0
C1256 C 0.71347 0.27246 0.75702 0.0
C1257 C 0.682 0.23789 0.7595 0.0
C1258 C 0.82572 0.36927 0.76179 0.0
C1259 C 0.8563 0.36893 0.74637 0.0
C1260 C 0.79389 0.3349 0.76387 0.0
C1261 C 0.7923 0.29905 0.7508 0.0
C1262 C 0.82335 0.29803 0.73568 0.0
C1263 C 0.85491 0.33257 0.73347 0.0
H1264 H 0.25699 0.14357 0.75277 0.0
H1265 H 0.15355 0.24222 0.74151 0.0
H1266 H 0.31132 0.20351 0.75777 0.0
H1267 H 0.20876 0.30224 0.74614 0.0
H1268 H 0.33329 0.39083 0.73417 0.0
H1269 H 0.27861 0.33077 0.72968 0.0
H1270 H 0.32609 0.2659 0.78109 0.0
H1271 H 0.38032 0.32647 0.78599 0.0
C1272 C 0.24536 0.1779 0.75173 0.0
C1273 C 0.20029 0.1879 0.74713 0.0
C1274 C 0.27683 0.21232 0.75446 0.0
C1275 C 0.26425 0.25749 0.75241 0.0
C1276 C 0.21947 0.26763 0.74766 0.0
C1277 C 0.18785 0.23323 0.74507 0.0
C1278 C 0.3318 0.36437 0.74477 0.0
C1279 C 0.36082 0.36425 0.76074 0.0
C1280 C 0.30047 0.32976 0.7421 0.0
C1281 C 0.29784 0.29392 0.75513 0.0
C1282 C 0.32753 0.29303 0.77076 0.0
C1283 C 0.35862 0.32779 0.77354 0.0
H1284 H 0.1679 0.736 0.28044 0.0
H1285 H 0.22133 0.66869 0.23048 0.0
H1286 H 0.22398 0.79524 0.27675 0.0
H1287 H 0.27779 0.72761 0.22715 0.0
H1288 H 0.40308 0.81296 0.24243 0.0
H1289 H 0.34545 0.75465 0.24535 0.0
H1290 H 0.24436 0.85653 0.25405 0.0
H1291 H 0.30125 0.91477 0.25083 0.0
C1292 C 0.19134 0.73384 0.26861 0.0
C1293 C 0.19044 0.69692 0.25601 0.0
C1294 C 0.22349 0.76783 0.26653 0.0
C1295 C 0.25552 0.76573 0.25179 0.0
C1296 C 0.25407 0.72954 0.23889 0.0
C1297 C 0.22172 0.69564 0.24089 0.0
C1298 C 0.36858 0.82297 0.245 0.0
C1299 C 0.35722 0.86863 0.24679 0.0
C1300 C 0.33558 0.78957 0.24658 0.0
C1301 C 0.29049 0.80111 0.25 0.0
C1302 C 0.27901 0.84665 0.25175 0.0
C1303 C 0.31189 0.88006 0.25006 0.0
H1304 H 0.89263 0.55046 0.49668 0.0
H1305 H 0.99525 0.65318 0.49064 0.0
H1306 H 0.95051 0.4937 0.49988 0.0
H1307 H 0.05334 0.5958 0.49371 0.0
H1308 H 0.14126 0.47344 0.47948 0.0
H1309 H 0.08326 0.53036 0.47595 0.0
H1310 H 1.00889 0.471 0.52271 0.0
H1311 H 0.06691 0.41428 0.52646 0.0
C1312 C 0.92747 0.56125 0.49642 0.0
C1313 C 0.93921 0.60678 0.49383 0.0
C1314 C 0.96071 0.52848 0.49813 0.0
C1315 C 1.00647 0.54028 0.49714 0.0
C1316 C 1.01831 0.58562 0.49435 0.0
C1317 C 0.98504 0.61849 0.49269 0.0
C1318 C 0.11294 0.47269 0.4892 0.0
C1319 C 0.10928 0.43949 0.50349 0.0
C1320 C 0.07959 0.50536 0.48711 0.0
C1321 C 0.04167 0.50534 0.49913 0.0
C1322 C 0.03752 0.47168 0.51311 0.0
C1323 C 0.07086 0.43915 0.51525 0.0
H1324 H 0.56111 0.40719 0.99282 0.0
H1325 H 0.66146 0.51098 1.00208 0.0
H1326 H 0.50187 0.463 0.99669 0.0
H1327 H 0.60227 0.56599 0.00628 0.0
H1328 H 0.48088 0.63865 0.03337 0.0
H1329 H 0.54061 0.58369 0.02931 0.0
H1330 H 0.47361 0.53097 0.97919 0.0
H1331 H 0.41431 0.5863 0.98286 0.0
C1332 C 0.57064 0.44171 0.99579 0.0
C1333 C 0.61622 0.4541 0.9975 0.0
C1334 C 0.53666 0.47368 0.99793 0.0
C1335 C 0.54748 0.51878 1.00186 0.0
C1336 C 0.59292 0.53129 1.00359 0.0
C1337 C 0.62691 0.49945 1.00132 0.0
C1338 C 0.4789 0.61563 0.02137 0.0
C1339 C 0.44208 0.61662 0.00869 0.0
C1340 C 0.5132 0.58412 0.01907 0.0
C1341 C 0.5115 0.55277 1.00405 0.0
C1342 C 0.47527 0.55415 0.99115 0.0
C1343 C 0.4411 0.58588 0.99335 0.0
H1344 H 0.33063 0.78907 0.98576 0.0
H1345 H 0.19892 0.77795 0.01097 0.0
H1346 H 0.33857 0.86506 0.99863 0.0
H1347 H 0.20629 0.85419 0.02379 0.0
H1348 H 0.23804 0.99275 0.04901 0.0
H1349 H 0.24219 0.91172 0.04381 0.0
H1350 H 0.30287 0.93483 0.98854 0.0
H1351 H 0.29901 1.01594 0.99377 0.0
C1352 C 0.30437 0.80196 0.995 0.0
C1353 C 0.26459 0.77693 0.99772 0.0
C1354 C 0.30841 0.84606 1.00199 0.0
C1355 C 0.27264 0.86651 0.01187 0.0
C1356 C 0.23466 0.83978 0.01628 0.0
C1357 C 0.23064 0.7956 0.00921 0.0
C1358 C 0.25263 0.98069 0.03577 0.0
C1359 C 0.26809 1.01132 0.02179 0.0
C1360 C 0.25483 0.934 0.03278 0.0
C1361 C 0.27298 0.91632 0.01578 0.0
C1362 C 0.2893 0.94693 1.00196 0.0
C1363 C 0.28677 0.99366 0.00489 0.0
H1364 H 0.03089 0.44678 0.26183 0.0
H1365 H 1.02015 0.57717 0.23556 0.0
H1366 H 0.9549 0.45452 0.27479 0.0
H1367 H 0.94443 0.58558 0.24863 0.0
H1368 H 0.81698 0.48583 0.29999 0.0
H1369 H 0.89801 0.49054 0.29463 0.0
H1370 H 0.8742 0.54986 0.23917 0.0
H1371 H 0.79312 0.54558 0.24459 0.0
C1372 C 1.01339 0.47835 0.25986 0.0
C1373 C 0.03211 0.51183 0.24808 0.0
C1374 C 0.96936 0.48259 0.26703 0.0
C1375 C 0.94281 0.5203 0.26242 0.0
C1376 C 0.9633 0.55563 0.25217 0.0
C1377 C 1.00725 0.55134 0.24506 0.0
C1378 C 0.8289 0.50027 0.28668 0.0
C1379 C 0.7981 0.51519 0.27269 0.0
C1380 C 0.87558 0.50279 0.28359 0.0
C1381 C 0.89306 0.52066 0.26648 0.0
C1382 C 0.86227 0.53653 0.25267 0.0
C1383 C 0.81556 0.53374 0.25571 0.0
H1384 H 0.32298 0.06379 0.55199 0.0
H1385 H 0.26952 0.04023 0.49534 0.0
H1386 H 0.31856 0.14472 0.5468 0.0
H1387 H 0.26569 0.12128 0.49007 0.0
H1388 H 0.23949 0.26725 0.48616 0.0
H1389 H 0.22946 0.19108 0.49854 0.0
H1390 H 0.35639 0.20236 0.52834 0.0
H1391 H 0.36562 0.2788 0.51612 0.0
C1392 C 0.31003 0.07575 0.53843 0.0
C1393 C 0.29681 0.04505 0.52405 0.0
C1394 C 0.30767 0.1224 0.53544 0.0
C1395 C 0.29174 0.14 0.51802 0.0
C1396 C 0.27751 0.10929 0.5038 0.0
C1397 C 0.28006 0.06259 0.50676 0.0
C1398 C 0.26388 0.2544 0.4963 0.0
C1399 C 0.30267 0.27976 0.50063 0.0
C1400 C 0.25876 0.21018 0.50301 0.0
C1401 C 0.29257 0.18981 0.51413 0.0
C1402 C 0.32943 0.21668 0.51992 0.0
C1403 C 0.33449 0.26098 0.51316 0.0
H1404 H 0.53381 0.4724 0.73932 0.0
H1405 H 0.52023 0.60726 0.76086 0.0
H1406 H 0.60987 0.46842 0.75244 0.0
H1407 H 0.59656 0.60383 0.77394 0.0
H1408 H 0.73591 0.57921 0.7999 0.0
H1409 H 0.65486 0.57229 0.79489 0.0
H1410 H 0.67886 0.50481 0.74117 0.0
H1411 H 0.76 0.5115 0.7462 0.0
C1412 C 0.54617 0.50031 0.74784 0.0
C1413 C 0.5205 0.5398 0.74938 0.0
C1414 C 0.5903 0.4985 0.75496 0.0
C1415 C 0.61009 0.53623 0.76383 0.0
C1416 C 0.58266 0.57403 0.76721 0.0
C1417 C 0.53842 0.57582 0.76 0.0
C1418 C 0.72404 0.56256 0.78705 0.0
C1419 C 0.7549 0.54601 0.77343 0.0
C1420 C 0.67735 0.55875 0.78416 0.0
C1421 C 0.65993 0.53784 0.76766 0.0
C1422 C 0.69079 0.52052 0.75422 0.0
C1423 C 0.73752 0.52467 0.75702 0.0
H1424 H 0.76 0.04632 0.01296 0.0
H1425 H 0.82435 0.07095 0.95853 0.0
H1426 H 0.75362 0.12734 0.01805 0.0
H1427 H 0.81773 0.15185 0.9636 0.0
H1428 H 0.85591 0.2863 0.9971 0.0
H1429 H 0.85097 0.21007 0.98409 0.0
H1430 H 0.71711 0.19643 0.00743 0.0
H1431 H 0.72259 0.27247 0.02047 0.0
C1432 C 0.77246 0.06889 1.00199 0.0
C1433 C 0.79286 0.05169 0.98536 0.0
C1434 C 0.76848 0.11555 0.00483 0.0
C1435 C 0.78505 0.14655 0.99121 0.0
C1436 C 0.80484 0.12928 0.97447 0.0
C1437 C 0.80845 0.08267 0.97155 0.0
C1438 C 0.82439 0.26807 0.99839 0.0
C1439 C 0.78929 0.28595 0.00948 0.0
C1440 C 0.82176 0.22387 0.99122 0.0
C1441 C 0.78403 0.19635 0.99511 0.0
C1442 C 0.74712 0.21606 0.0045 0.0
C1443 C 0.74976 0.26019 0.01157 0.0
H1444 H 0.23589 0.57189 0.70946 0.0
H1445 H 0.26003 0.50839 0.76408 0.0
H1446 H 0.15486 0.56621 0.71469 0.0
H1447 H 0.17886 0.50288 0.76931 0.0
H1448 H 0.03338 0.47167 0.77152 0.0
H1449 H 0.10936 0.46616 0.75847 0.0
H1450 H 0.09723 0.60021 0.73542 0.0
H1451 H 1.02095 0.60523 0.74846 0.0
C1452 C 0.22404 0.55638 0.72256 0.0
C1453 C 0.25491 0.54066 0.73637 0.0
C1454 C 0.17736 0.55331 0.72557 0.0
C1455 C 0.15995 0.53395 0.74239 0.0
C1456 C 0.1908 0.51739 0.75603 0.0
C1457 C 0.23753 0.52084 0.7531 0.0
C1458 C 0.04599 0.49893 0.76271 0.0
C1459 C 1.02067 0.53853 0.7607 0.0
C1460 C 0.09006 0.49624 0.75562 0.0
C1461 C 0.11015 0.53317 0.74631 0.0
C1462 C 0.08307 0.57102 0.7425 0.0
C1463 C 0.03888 0.5737 0.74969 0.0
H1464 H 0.73617 0.99399 0.45929 0.0
H1465 H 0.80345 1.0169 0.51326 0.0
H1466 H 0.74184 0.91294 0.46406 0.0
H1467 H 0.80886 0.93572 0.51807 0.0
H1468 H 0.83881 0.79042 0.5196 0.0
H1469 H 0.84426 0.86663 0.50681 0.0
H1470 H 0.70914 0.85455 0.48458 0.0
H1471 H 0.70423 0.77808 0.49732 0.0
C1472 C 0.75245 0.98187 0.47216 0.0
C1473 C 0.76925 1.01242 0.48592 0.0
C1474 C 0.75554 0.93517 0.47491 0.0
C1475 C 0.77595 0.91738 0.49141 0.0
C1476 C 0.79353 0.94792 0.50501 0.0
C1477 C 0.79012 0.99468 0.50234 0.0
C1478 C 0.81129 0.80308 0.51098 0.0
C1479 C 0.77144 0.7777 0.50914 0.0
C1480 C 0.81394 0.84732 0.50406 0.0
C1481 C 0.77671 0.8675 0.49509 0.0
C1482 C 0.73857 0.84037 0.4914 0.0
C1483 C 0.73595 0.79604 0.49841 0.0
H1484 H 0.53217 0.45406 0.24675 0.0
H1485 H 0.51949 0.58751 0.26994 0.0
H1486 H 0.456 0.45898 0.23363 0.0
H1487 H 0.44359 0.59301 0.25674 0.0
H1488 H 0.29288 0.55097 0.26198 0.0
H1489 H 0.37399 0.55702 0.26726 0.0
H1490 H 0.39833 0.49192 0.21303 0.0
H1491 H 0.31737 0.48556 0.2078 0.0
C1492 C 0.51421 0.48558 0.24798 0.0
C1493 C 0.53235 0.52074 0.25904 0.0
C1494 C 0.47006 0.4882 0.24074 0.0
C1495 C 0.4429 0.52601 0.24453 0.0
C1496 C 0.46292 0.56295 0.2539 0.0
C1497 C 0.50697 0.56028 0.26106 0.0
C1498 C 0.31544 0.53825 0.2511 0.0
C1499 C 0.29816 0.51765 0.23449 0.0
C1500 C 0.36216 0.54202 0.25404 0.0
C1501 C 0.39311 0.52508 0.24054 0.0
C1502 C 0.37578 0.50508 0.22382 0.0
C1503 C 0.32912 0.50161 0.2208 0.0
H1504 H 0.73246 0.49306 0.54977 0.0
H1505 H 0.80057 0.51791 0.49619 0.0
H1506 H 0.74048 0.41216 0.54496 0.0
H1507 H 0.80827 0.43701 0.49133 0.0
H1508 H 0.84225 0.29314 0.48949 0.0
H1509 H 0.84529 0.36917 0.5026 0.0
H1510 H 0.71017 0.35278 0.52429 0.0
H1511 H 0.70775 0.2764 0.51129 0.0
C1512 C 0.7494 0.48139 0.53698 0.0
C1513 C 0.76572 0.51239 0.52333 0.0
C1514 C 0.75384 0.4348 0.53421 0.0
C1515 C 0.77518 0.41766 0.5178 0.0
C1516 C 0.79226 0.44871 0.50432 0.0
C1517 C 0.78749 0.4953 0.50701 0.0
C1518 C 0.81422 0.30484 0.49806 0.0
C1519 C 0.7751 0.27829 0.49967 0.0
C1520 C 0.81549 0.34895 0.50517 0.0
C1521 C 0.77751 0.36788 0.51406 0.0
C1522 C 0.74013 0.33958 0.51753 0.0
C1523 C 0.73894 0.29532 0.51037 0.0
H1524 H 0.5221 0.0736 0.73824 0.0
H1525 H 0.53045 0.94333 0.76475 0.0
H1526 H 0.44592 0.08285 0.75075 0.0
H1527 H 0.45418 0.95198 0.77722 0.0
H1528 H 0.29413 0.04273 0.74566 0.0
H1529 H 0.37549 0.04732 0.74085 0.0
H1530 H 0.39718 0.98878 0.79661 0.0
H1531 H 0.31605 0.98377 0.80136 0.0
C1532 C 0.50862 0.04803 0.74771 0.0
C1533 C 0.53288 1.00821 0.7509 0.0
C1534 C 0.4644 0.05279 0.75449 0.0
C1535 C 0.44318 1.01773 0.76464 0.0
C1536 C 0.4692 0.97984 0.76952 0.0
C1537 C 0.51341 0.97509 0.76264 0.0
C1538 C 0.31618 0.03115 0.75697 0.0
C1539 C 0.29812 1.01262 0.77385 0.0
C1540 C 0.36303 0.03411 0.75429 0.0
C1541 C 0.3933 1.01845 0.76835 0.0
C1542 C 0.37517 1.00082 0.78538 0.0
C1543 C 0.32841 0.99812 0.78812 0.0
H1544 H 0.82777 0.57068 0.05001 0.0
H1545 H 0.7579 0.54687 0.99672 0.0
H1546 H 0.82209 0.65169 0.04499 0.0
H1547 H 0.75246 0.62795 0.99165 0.0
H1548 H 0.85834 0.78596 0.01098 0.0
H1549 H 0.85392 0.7097 0.02399 0.0
H1550 H 0.71784 0.6974 1.00287 0.0
H1551 H 0.7228 0.77339 0.98981 0.0
C1552 C 0.81089 0.5826 0.03725 0.0
C1553 C 0.79341 0.55181 0.02375 0.0
C1554 C 0.80781 0.62928 0.03435 0.0
C1555 C 0.7867 0.6468 0.01794 0.0
C1556 C 0.76838 0.616 0.00463 0.0
C1557 C 0.77182 0.56929 0.00744 0.0
C1558 C 0.82657 0.76801 0.01019 0.0
C1559 C 0.79062 0.78624 0.9997 0.0
C1560 C 0.82421 0.7238 0.01736 0.0
C1561 C 0.78588 0.69663 0.01407 0.0
C1562 C 0.7483 0.71671 0.00532 0.0
C1563 C 0.75069 0.76084 0.99824 0.0
H1564 H 0.246 0.07524 0.30264 0.0
H1565 H 0.26736 1.01218 0.24772 0.0
H1566 H 0.16474 0.07056 0.29789 0.0
H1567 H 0.18596 1.00778 0.24293 0.0
H1568 H 0.03971 0.98018 0.24093 0.0
H1569 H 0.11589 0.97249 0.25364 0.0
H1570 H 0.1071 0.1057 0.27787 0.0
H1571 H 0.03076 0.11287 0.26519 0.0
C1572 C 0.23348 0.06008 0.28957 0.0
C1573 C 0.26367 0.04424 0.27553 0.0
C1574 C 0.18666 0.05756 0.28683 0.0
C1575 C 0.16837 0.0387 0.27005 0.0
C1576 C 0.19854 1.02194 0.25619 0.0
C1577 C 0.24542 1.0248 0.25885 0.0
C1578 C 0.05304 1.0067 0.24998 0.0
C1579 C 1.02862 0.04674 0.2524 0.0
C1580 C 0.09729 1.0028 0.25685 0.0
C1581 C 0.11842 0.03891 0.26638 0.0
C1582 C 0.09219 0.07708 0.27063 0.0
C1583 C 0.0479 0.08098 0.26365 0.0
H1584 H 0.2221 0.76694 0.5207 0.0
H1585 H 0.35706 0.77945 0.49893 0.0
H1586 H 0.21683 0.69085 0.50771 0.0
H1587 H 0.35233 0.70314 0.48599 0.0
H1588 H 0.32566 0.56422 0.4602 0.0
H1589 H 0.31985 0.64515 0.46519 0.0
H1590 H 0.25212 0.62158 0.51892 0.0
H1591 H 0.25764 0.54045 0.51389 0.0
C1592 C 0.24975 0.75434 0.51215 0.0
C1593 C 0.28965 0.77971 0.51051 0.0
C1594 C 0.2472 0.71019 0.50512 0.0
C1595 C 0.28457 0.69011 0.49623 0.0
C1596 C 0.32279 0.71726 0.49274 0.0
C1597 C 0.32531 0.76149 0.49986 0.0
C1598 C 0.30919 0.57613 0.47306 0.0
C1599 C 0.29222 0.54538 0.48668 0.0
C1600 C 0.30602 0.62277 0.47593 0.0
C1601 C 0.28539 0.6403 0.49242 0.0
C1602 C 0.26763 0.60957 0.50587 0.0
C1603 C 0.27112 0.56285 0.50308 0.0
H1604 H 0.76862 1.01018 0.26355 0.0
H1605 H 0.74484 0.07988 0.2103 0.0
H1606 H 0.68749 1.00336 0.26844 0.0
H1607 H 0.6637 0.07287 0.21518 0.0
H1608 H 0.52917 0.10677 0.24965 0.0
H1609 H 0.60535 0.10374 0.23644 0.0
H1610 H 0.61855 0.96737 0.25677 0.0
H1611 H 0.54264 0.97093 0.27003 0.0
C1612 C 0.74619 1.0238 0.25281 0.0
C1613 C 0.76366 0.04575 0.23657 0.0
C1614 C 0.69947 1.01955 0.25552 0.0
C1615 C 0.66866 0.03739 0.24216 0.0
C1616 C 0.68616 0.05891 0.22583 0.0
C1617 C 0.73288 0.06277 0.22302 0.0
C1618 C 0.54728 0.07524 0.25021 0.0
C1619 C 0.52939 0.0388 0.26056 0.0
C1620 C 0.59144 0.07368 0.24293 0.0
C1621 C 0.61882 0.03568 0.24597 0.0
C1622 C 0.59901 0.99759 0.25452 0.0
C1623 C 0.55496 0.99919 0.26172 0.0
H1624 H 0.23472 0.49266 0.95682 0.0
H1625 H 0.29611 0.5158 0.01204 0.0
H1626 H 0.24101 0.41173 0.96152 0.0
H1627 H 0.30207 0.43461 0.01678 0.0
H1628 H 0.33125 0.28906 0.01895 0.0
H1629 H 0.33851 0.36529 0.00628 0.0
H1630 H 0.2059 0.35386 0.98139 0.0
H1631 H 0.1992 0.27751 0.99401 0.0
C1632 C 0.2499 0.48062 0.96995 0.0
C1633 C 0.26475 0.51118 0.98409 0.0
C1634 C 0.25333 0.43397 0.97265 0.0
C1635 C 0.27209 0.41626 0.98951 0.0
C1636 C 0.28802 0.4468 1.00346 0.0
C1637 C 0.2843 0.49354 1.00082 0.0
C1638 C 0.30482 0.30187 0.00977 0.0
C1639 C 0.26509 0.2767 0.00709 0.0
C1640 C 0.30846 0.34609 1.00292 0.0
C1641 C 0.27236 0.36643 0.99319 0.0
C1642 C 0.23451 0.33953 0.98876 0.0
C1643 C 0.23088 0.29528 0.99572 0.0
H1644 H 0.81673 0.98339 0.70969 0.0
H1645 H 0.79348 0.04939 0.76384 0.0
H1646 H 0.89781 0.98973 0.71458 0.0
H1647 H 0.87473 0.05543 0.76878 0.0
H1648 H 1.02024 0.08583 0.77082 0.0
H1649 H 0.94415 0.09131 0.75783 0.0
H1650 H 0.95583 0.95686 0.7351 0.0
H1651 H 0.03217 0.95194 0.74803 0.0
C1652 C 0.82879 0.99957 0.72261 0.0
C1653 C 0.79815 1.01575 0.7364 0.0
C1654 C 0.87551 1.00302 0.72543 0.0
C1655 C 0.89321 1.02319 0.74205 0.0
C1656 C 0.86258 0.04028 0.75565 0.0
C1657 C 0.8158 0.03649 0.7529 0.0
C1658 C 1.00752 0.05849 0.76206 0.0
C1659 C 0.0327 1.0188 0.76014 0.0
C1660 C 0.96336 0.06115 0.75502 0.0
C1661 C 0.94309 1.02409 0.74584 0.0
C1662 C 0.97009 0.98616 0.74207 0.0
C1663 C 1.01434 0.98353 0.7492 0.0
loop_
_geom_bond_atom_site_label_1
_geom_bond_atom_site_label_2
_geom_bond_distance
_geom_bond_site_symmetry_2
_ccdc_geom_bond_type
Zn0 N4 2.020 . S
Zn0 O8 2.019 . S
Zn0 N10 2.119 . S
Zn0 O18 1.975 1_545 S
C1 N2 1.334 . S
C1 N5 1.336 . S
N2 C1 1.334 . S
N2 C3 1.334 . S
C3 N2 1.334 . S
C3 N4 1.336 . S
N4 Zn0 2.020 . S
N4 C3 1.336 . S
N4 N5 1.354 . S
N5 C1 1.336 . S
N5 N4 1.354 . S
N5 Zn9 2.020 . S
C6 O7 1.244 1_556 S
C6 O30 1.257 . S
O7 C6 1.244 1_554 S
O8 Zn0 2.019 . S
O8 C28 1.257 . S
Zn9 N5 2.020 . S
Zn9 O16 1.975 1_545 S
Zn9 N25 2.119 . S
Zn9 O30 2.019 1_554 S
N10 Zn0 2.119 . S
N10 C12 1.334 . S
N10 C13 1.328 . S
C11 C12 1.391 . S
C11 N14 1.329 . S
C11 H32 0.930 . S
C12 N10 1.334 . S
C12 C11 1.391 . S
C12 H19 0.930 . S
C13 N10 1.328 . S
C13 C15 1.392 . S
C13 H20 0.930 . S
N14 C11 1.329 . S
N14 C15 1.331 . S
C15 C13 1.392 . S
C15 N14 1.331 . S
O16 Zn9 1.975 1_565 S
O16 C17 1.252 . S
C17 O16 1.252 . S
C17 O18 1.252 . S
O18 Zn0 1.975 1_565 S
O18 C17 1.252 . S
H19 C12 0.930 . S
H20 C13 0.930 . S
C21 C22 1.392 . S
C21 N25 1.328 . S
C21 H27 0.912 1_554 S
C22 C21 1.392 . S
C22 N26 1.331 . S
C23 C24 1.391 . S
C23 N26 1.329 . S
C23 H33 0.930 . S
C24 C23 1.391 . S
C24 N25 1.334 . S
C24 H31 0.930 . S
N25 Zn9 2.119 . S
N25 C21 1.328 . S
N25 C24 1.334 . S
N26 C22 1.331 . S
N26 C23 1.329 . S
H27 C21 0.912 1_556 S
C28 O8 1.257 . S
C28 O29 1.244 . S
O29 C28 1.244 . S
O30 C6 1.257 . S
O30 Zn9 2.019 1_556 S
H31 C24 0.930 . S
H32 C11 0.930 . S
H33 C23 0.930 . S
Zn34 N38 2.020 . S
Zn34 O42 2.019 . S
Zn34 N44 2.119 . S
Zn34 O52 1.975 . S
C35 N36 1.334 . S
C35 N39 1.336 . S
N36 C35 1.334 . S
N36 C37 1.334 . S
C37 N36 1.334 . S
C37 N38 1.336 . S
N38 Zn34 2.020 . S
N38 C37 1.336 . S
N38 N39 1.354 . S
N39 C35 1.336 . S
N39 N38 1.354 . S
N39 Zn43 2.020 . S
C40 O41 1.244 . S
C40 O64 1.257 . S
O41 C40 1.244 . S
O42 Zn34 2.019 . S
O42 C62 1.257 . S
Zn43 N39 2.020 . S
Zn43 O50 1.975 . S
Zn43 N59 2.119 . S
Zn43 O64 2.019 . S
N44 Zn34 2.119 . S
N44 C46 1.334 . S
N44 C47 1.328 . S
C45 C46 1.391 . S
C45 N48 1.329 . S
C45 H66 0.930 . S
C46 N44 1.334 . S
C46 C45 1.391 . S
C46 H53 0.930 . S
C47 N44 1.328 . S
C47 C49 1.392 . S
C47 H54 0.930 . S
N48 C45 1.329 . S
N48 C49 1.331 . S
C49 C47 1.392 . S
C49 N48 1.331 . S
O50 Zn43 1.975 . S
O50 C51 1.252 . S
C51 O50 1.252 . S
C51 O52 1.252 . S
O52 Zn34 1.975 . S
O52 C51 1.252 . S
H53 C46 0.930 . S
H54 C47 0.930 . S
C55 C56 1.392 . S
C55 N59 1.328 . S
C55 H61 0.930 . S
C56 C55 1.392 . S
C56 N60 1.331 . S
C57 C58 1.391 . S
C57 N60 1.329 . S
C57 H67 0.930 . S
C58 C57 1.391 . S
C58 N59 1.334 . S
C58 H65 0.930 . S
N59 Zn43 2.119 . S
N59 C55 1.328 . S
N59 C58 1.334 . S
N60 C56 1.331 . S
N60 C57 1.329 . S
H61 C55 0.930 . S
C62 O42 1.257 . S
C62 O63 1.244 . S
O63 C62 1.244 . S
O64 C40 1.257 . S
O64 Zn43 2.019 . S
H65 C58 0.930 . S
H66 C45 0.930 . S
H67 C57 0.930 . S
Zn68 N72 2.020 . S
Zn68 O76 2.019 . S
Zn68 N78 2.119 . S
Zn68 O86 1.975 1_565 S
C69 N70 1.334 . S
C69 N73 1.336 . S
N70 C69 1.334 . S
N70 C71 1.334 . S
C71 N70 1.334 . S
C71 N72 1.336 . S
N72 Zn68 2.020 . S
N72 C71 1.336 . S
N72 N73 1.354 . S
N73 C69 1.336 . S
N73 N72 1.354 . S
N73 Zn77 2.020 . S
C74 O75 1.244 . S
C74 O98 1.257 . S
O75 C74 1.244 . S
O76 Zn68 2.019 . S
O76 C96 1.257 . S
Zn77 N73 2.020 . S
Zn77 O84 1.975 1_565 S
Zn77 N93 2.119 . S
Zn77 O98 2.019 . S
N78 Zn68 2.119 . S
N78 C80 1.334 . S
N78 C81 1.328 . S
C79 C80 1.391 . S
C79 N82 1.329 . S
C79 H100 0.930 . S
C80 N78 1.334 . S
C80 C79 1.391 . S
C80 H87 0.930 . S
C81 N78 1.328 . S
C81 C83 1.392 . S
C81 H88 0.930 . S
N82 C79 1.329 . S
N82 C83 1.331 . S
C83 C81 1.392 . S
C83 N82 1.331 . S
O84 Zn77 1.975 1_545 S
O84 C85 1.252 . S
C85 O84 1.252 . S
C85 O86 1.252 . S
O86 Zn68 1.975 1_545 S
O86 C85 1.252 . S
H87 C80 0.930 . S
H88 C81 0.930 . S
C89 C90 1.392 . S
C89 N93 1.328 . S
C89 H95 0.930 . S
C90 C89 1.392 . S
C90 N94 1.331 . S
C91 C92 1.391 . S
C91 N94 1.329 . S
C91 H101 0.930 . S
C92 C91 1.391 . S
C92 N93 1.334 . S
C92 H99 0.930 . S
N93 Zn77 2.119 . S
N93 C89 1.328 . S
N93 C92 1.334 . S
N94 C90 1.331 . S
N94 C91 1.329 . S
H95 C89 0.930 . S
C96 O76 1.257 . S
C96 O97 1.244 . S
O97 C96 1.244 . S
O98 C74 1.257 . S
O98 Zn77 2.019 . S
H99 C92 0.930 . S
H100 C79 0.930 . S
H101 C91 0.930 . S
Zn102 N106 2.020 . S
Zn102 O110 2.019 . S
Zn102 N112 2.119 . S
Zn102 O120 1.975 . S
C103 N104 1.334 . S
C103 N107 1.336 . S
N104 C103 1.334 . S
N104 C105 1.334 . S
C105 N104 1.334 . S
C105 N106 1.336 . S
N106 Zn102 2.020 . S
N106 C105 1.336 . S
N106 N107 1.354 . S
N107 C103 1.336 . S
N107 N106 1.354 . S
N107 Zn111 2.020 . S
C108 O109 1.244 . S
C108 O132 1.257 . S
O109 C108 1.244 . S
O110 Zn102 2.019 . S
O110 C130 1.257 . S
Zn111 N107 2.020 . S
Zn111 O118 1.975 . S
Zn111 N127 2.119 . S
Zn111 O132 2.019 . S
N112 Zn102 2.119 . S
N112 C114 1.334 . S
N112 C115 1.328 . S
C113 C114 1.391 . S
C113 N116 1.329 . S
C113 H134 0.930 . S
C114 N112 1.334 . S
C114 C113 1.391 . S
C114 H121 0.930 . S
C115 N112 1.328 . S
C115 C117 1.392 . S
C115 H122 0.930 . S
N116 C113 1.329 . S
N116 C117 1.331 . S
C117 C115 1.392 . S
C117 N116 1.331 . S
O118 Zn111 1.975 . S
O118 C119 1.252 . S
C119 O118 1.252 . S
C119 O120 1.252 . S
O120 Zn102 1.975 . S
O120 C119 1.252 . S
H121 C114 0.930 . S
H122 C115 0.930 . S
C123 C124 1.392 . S
C123 N127 1.328 . S
C123 H129 0.930 . S
C124 C123 1.392 . S
C124 N128 1.331 . S
C125 C126 1.391 . S
C125 N128 1.329 . S
C125 H135 0.930 . S
C126 C125 1.391 . S
C126 N127 1.334 . S
C126 H133 0.930 . S
N127 Zn111 2.119 . S
N127 C123 1.328 . S
N127 C126 1.334 . S
N128 C124 1.331 . S
N128 C125 1.329 . S
H129 C123 0.930 . S
C130 O110 1.257 . S
C130 O131 1.244 . S
O131 C130 1.244 . S
O132 C108 1.257 . S
O132 Zn111 2.019 . S
H133 C126 0.930 . S
H134 C113 0.930 . S
H135 C125 0.930 . S
Zn136 N140 2.020 . S
Zn136 O144 2.019 . S
Zn136 N146 2.119 . S
Zn136 O154 1.975 1_565 S
C137 N138 1.334 . S
C137 N141 1.336 . S
N138 C137 1.334 . S
N138 C139 1.334 . S
C139 N138 1.334 . S
C139 N140 1.336 . S
N140 Zn136 2.020 . S
N140 C139 1.336 . S
N140 N141 1.354 . S
N141 C137 1.336 . S
N141 N140 1.354 . S
N141 Zn145 2.020 . S
C142 O143 1.244 1_554 S
C142 O166 1.257 . S
O143 C142 1.244 1_556 S
O144 Zn136 2.019 . S
O144 C164 1.257 . S
Zn145 N141 2.020 . S
Zn145 O152 1.975 1_565 S
Zn145 N161 2.119 . S
Zn145 O166 2.019 1_556 S
N146 Zn136 2.119 . S
N146 C148 1.334 . S
N146 C149 1.328 . S
C147 C148 1.391 . S
C147 N150 1.329 . S
C147 H168 0.930 . S
C148 N146 1.334 . S
C148 C147 1.391 . S
C148 H155 0.930 . S
C149 N146 1.328 . S
C149 C151 1.392 . S
C149 H156 0.930 . S
N150 C147 1.329 . S
N150 C151 1.331 . S
C151 C149 1.392 . S
C151 N150 1.331 . S
O152 Zn145 1.975 1_545 S
O152 C153 1.252 . S
C153 O152 1.252 . S
C153 O154 1.252 . S
O154 Zn136 1.975 1_545 S
O154 C153 1.252 . S
H155 C148 0.930 . S
H156 C149 0.930 . S
C157 C158 1.392 . S
C157 N161 1.328 . S
C157 H163 0.912 1_556 S
C158 C157 1.392 . S
C158 N162 1.331 . S
C159 C160 1.391 . S
C159 N162 1.329 . S
C159 H169 0.930 . S
C160 C159 1.391 . S
C160 N161 1.334 . S
C160 H167 0.930 . S
N161 Zn145 2.119 . S
N161 C157 1.328 . S
N161 C160 1.334 . S
N162 C158 1.331 . S
N162 C159 1.329 . S
H163 C157 0.912 1_554 S
C164 O144 1.257 . S
C164 O165 1.244 . S
O165 C164 1.244 . S
O166 C142 1.257 . S
O166 Zn145 2.019 1_554 S
H167 C160 0.930 . S
H168 C147 0.930 . S
H169 C159 0.930 . S
Zn170 N174 2.020 . S
Zn170 O178 2.019 . S
Zn170 N180 2.119 . S
Zn170 O188 1.975 . S
C171 N172 1.334 . S
C171 N175 1.336 . S
N172 C171 1.334 . S
N172 C173 1.334 . S
C173 N172 1.334 . S
C173 N174 1.336 . S
N174 Zn170 2.020 . S
N174 C173 1.336 . S
N174 N175 1.354 . S
N175 C171 1.336 . S
N175 N174 1.354 . S
N175 Zn179 2.020 . S
C176 O177 1.244 . S
C176 O200 1.257 . S
O177 C176 1.244 . S
O178 Zn170 2.019 . S
O178 C198 1.257 . S
Zn179 N175 2.020 . S
Zn179 O186 1.975 . S
Zn179 N195 2.119 . S
Zn179 O200 2.019 . S
N180 Zn170 2.119 . S
N180 C182 1.334 . S
N180 C183 1.328 . S
C181 C182 1.391 . S
C181 N184 1.329 . S
C181 H202 0.930 . S
C182 N180 1.334 . S
C182 C181 1.391 . S
C182 H189 0.930 . S
C183 N180 1.328 . S
C183 C185 1.392 . S
C183 H190 0.930 . S
N184 C181 1.329 . S
N184 C185 1.331 . S
C185 C183 1.392 . S
C185 N184 1.331 . S
O186 Zn179 1.975 . S
O186 C187 1.252 . S
C187 O186 1.252 . S
C187 O188 1.252 . S
O188 Zn170 1.975 . S
O188 C187 1.252 . S
H189 C182 0.930 . S
H190 C183 0.930 . S
C191 C192 1.392 . S
C191 N195 1.328 . S
C191 H197 0.930 . S
C192 C191 1.392 . S
C192 N196 1.331 . S
C193 C194 1.391 . S
C193 N196 1.329 . S
C193 H203 0.930 . S
C194 C193 1.391 . S
C194 N195 1.334 . S
C194 H201 0.930 . S
N195 Zn179 2.119 . S
N195 C191 1.328 . S
N195 C194 1.334 . S
N196 C192 1.331 . S
N196 C193 1.329 . S
H197 C191 0.930 . S
C198 O178 1.257 . S
C198 O199 1.244 . S
O199 C198 1.244 . S
O200 C176 1.257 . S
O200 Zn179 2.019 . S
H201 C194 0.930 . S
H202 C181 0.930 . S
H203 C193 0.930 . S
Zn204 N208 2.020 . S
Zn204 O212 2.019 . S
Zn204 N214 2.119 . S
Zn204 O222 1.975 1_545 S
C205 N206 1.334 . S
C205 N209 1.336 . S
N206 C205 1.334 . S
N206 C207 1.334 . S
C207 N206 1.334 . S
C207 N208 1.336 . S
N208 Zn204 2.020 . S
N208 C207 1.336 . S
N208 N209 1.354 . S
N209 C205 1.336 . S
N209 N208 1.354 . S
N209 Zn213 2.020 . S
C210 O211 1.244 . S
C210 O234 1.257 . S
O211 C210 1.244 . S
O212 Zn204 2.019 . S
O212 C232 1.257 . S
Zn213 N209 2.020 . S
Zn213 O220 1.975 1_545 S
Zn213 N229 2.119 . S
Zn213 O234 2.019 . S
N214 Zn204 2.119 . S
N214 C216 1.334 . S
N214 C217 1.328 . S
C215 C216 1.391 . S
C215 N218 1.329 . S
C215 H236 0.930 . S
C216 N214 1.334 . S
C216 C215 1.391 . S
C216 H223 0.930 . S
C217 N214 1.328 . S
C217 C219 1.392 . S
C217 H224 0.930 . S
N218 C215 1.329 . S
N218 C219 1.331 . S
C219 C217 1.392 . S
C219 N218 1.331 . S
O220 Zn213 1.975 1_565 S
O220 C221 1.252 . S
C221 O220 1.252 . S
C221 O222 1.252 . S
O222 Zn204 1.975 1_565 S
O222 C221 1.252 . S
H223 C216 0.930 . S
H224 C217 0.930 . S
C225 C226 1.392 . S
C225 N229 1.328 . S
C225 H231 0.930 . S
C226 C225 1.392 . S
C226 N230 1.331 . S
C227 C228 1.391 . S
C227 N230 1.329 . S
C227 H237 0.930 . S
C228 C227 1.391 . S
C228 N229 1.334 . S
C228 H235 0.930 . S
N229 Zn213 2.119 . S
N229 C225 1.328 . S
N229 C228 1.334 . S
N230 C226 1.331 . S
N230 C227 1.329 . S
H231 C225 0.930 . S
C232 O212 1.257 . S
C232 O233 1.244 . S
O233 C232 1.244 . S
O234 C210 1.257 . S
O234 Zn213 2.019 . S
H235 C228 0.930 . S
H236 C215 0.930 . S
H237 C227 0.930 . S
Zn238 N242 2.020 . S
Zn238 O246 2.019 . S
Zn238 N248 2.119 . S
Zn238 O256 1.975 . S
C239 N240 1.334 . S
C239 N243 1.336 . S
N240 C239 1.334 . S
N240 C241 1.334 . S
C241 N240 1.334 . S
C241 N242 1.336 . S
N242 Zn238 2.020 . S
N242 C241 1.336 . S
N242 N243 1.354 . S
N243 C239 1.336 . S
N243 N242 1.354 . S
N243 Zn247 2.020 . S
C244 O245 1.244 . S
C244 O268 1.257 . S
O245 C244 1.244 . S
O246 Zn238 2.019 . S
O246 C266 1.257 . S
Zn247 N243 2.020 . S
Zn247 O254 1.975 . S
Zn247 N263 2.119 . S
Zn247 O268 2.019 . S
N248 Zn238 2.119 . S
N248 C250 1.334 . S
N248 C251 1.328 . S
C249 C250 1.391 . S
C249 N252 1.329 . S
C249 H270 0.930 . S
C250 N248 1.334 . S
C250 C249 1.391 . S
C250 H257 0.930 . S
C251 N248 1.328 . S
C251 C253 1.392 . S
C251 H258 0.930 . S
N252 C249 1.329 . S
N252 C253 1.331 . S
C253 C251 1.392 . S
C253 N252 1.331 . S
O254 Zn247 1.975 . S
O254 C255 1.252 . S
C255 O254 1.252 . S
C255 O256 1.252 . S
O256 Zn238 1.975 . S
O256 C255 1.252 . S
H257 C250 0.930 . S
H258 C251 0.930 . S
C259 C260 1.392 . S
C259 N263 1.328 . S
C259 H265 0.930 . S
C260 C259 1.392 . S
C260 N264 1.331 . S
C261 C262 1.391 . S
C261 N264 1.329 . S
C261 H271 0.930 . S
C262 C261 1.391 . S
C262 N263 1.334 . S
C262 H269 0.930 . S
N263 Zn247 2.119 . S
N263 C259 1.328 . S
N263 C262 1.334 . S
N264 C260 1.331 . S
N264 C261 1.329 . S
H265 C259 0.930 . S
C266 O246 1.257 . S
C266 O267 1.244 . S
O267 C266 1.244 . S
O268 C244 1.257 . S
O268 Zn247 2.019 . S
H269 C262 0.930 . S
H270 C249 0.930 . S
H271 C261 0.930 . S
Zn272 N276 2.020 . S
Zn272 O280 2.019 . S
Zn272 N282 2.119 . S
Zn272 O290 1.975 . S
C273 N274 1.334 . S
C273 N277 1.336 . S
N274 C273 1.334 . S
N274 C275 1.334 . S
C275 N274 1.334 . S
C275 N276 1.336 . S
N276 Zn272 2.020 . S
N276 C275 1.336 . S
N276 N277 1.354 . S
N277 C273 1.336 . S
N277 N276 1.354 . S
N277 Zn281 2.020 . S
C278 O279 1.244 . S
C278 O302 1.257 . S
O279 C278 1.244 . S
O280 Zn272 2.019 . S
O280 C300 1.257 . S
Zn281 N277 2.020 . S
Zn281 O288 1.975 . S
Zn281 N297 2.119 . S
Zn281 O302 2.019 . S
N282 Zn272 2.119 . S
N282 C284 1.334 . S
N282 C285 1.328 . S
C283 C284 1.391 . S
C283 N286 1.329 . S
C283 H304 0.930 . S
C284 N282 1.334 . S
C284 C283 1.391 . S
C284 H291 0.930 . S
C285 N282 1.328 . S
C285 C287 1.392 . S
C285 H292 0.930 . S
N286 C283 1.329 . S
N286 C287 1.331 . S
C287 C285 1.392 . S
C287 N286 1.331 . S
O288 Zn281 1.975 . S
O288 C289 1.252 . S
C289 O288 1.252 . S
C289 O290 1.252 . S
O290 Zn272 1.975 . S
O290 C289 1.252 . S
H291 C284 0.930 . S
H292 C285 0.930 . S
C293 C294 1.392 . S
C293 N297 1.328 . S
C293 H299 0.930 . S
C294 C293 1.392 . S
C294 N298 1.331 . S
C295 C296 1.391 . S
C295 N298 1.329 . S
C295 H305 0.930 . S
C296 C295 1.391 . S
C296 N297 1.334 . S
C296 H303 0.930 . S
N297 Zn281 2.119 . S
N297 C293 1.328 . S
N297 C296 1.334 . S
N298 C294 1.331 . S
N298 C295 1.329 . S
H299 C293 0.930 . S
C300 O280 1.257 . S
C300 O301 1.244 . S
O301 C300 1.244 . S
O302 C278 1.257 . S
O302 Zn281 2.019 . S
H303 C296 0.930 . S
H304 C283 0.930 . S
H305 C295 0.930 . S
Zn306 N310 2.020 . S
Zn306 O314 2.019 . S
Zn306 N316 2.119 . S
Zn306 O324 1.975 1_565 S
C307 N308 1.334 . S
C307 N311 1.336 . S
N308 C307 1.334 . S
N308 C309 1.334 1_545 S
C309 N308 1.334 1_565 S
C309 N310 1.336 . S
N310 Zn306 2.020 . S
N310 C309 1.336 . S
N310 N311 1.354 1_565 S
N311 C307 1.336 . S
N311 N310 1.354 1_545 S
N311 Zn315 2.020 . S
C312 O313 1.244 . S
C312 O336 1.257 1_565 S
O313 C312 1.244 . S
O314 Zn306 2.019 . S
O314 C334 1.257 1_565 S
Zn315 N311 2.020 . S
Zn315 O322 1.975 1_545 S
Zn315 N331 2.119 . S
Zn315 O336 2.019 . S
N316 Zn306 2.119 . S
N316 C318 1.334 . S
N316 C319 1.328 . S
C317 C318 1.391 . S
C317 N320 1.329 . S
C317 H338 0.930 . S
C318 N316 1.334 . S
C318 C317 1.391 . S
C318 H325 0.930 . S
C319 N316 1.328 . S
C319 C321 1.392 . S
C319 H326 0.930 . S
N320 C317 1.329 . S
N320 C321 1.331 . S
C321 C319 1.392 . S
C321 N320 1.331 . S
O322 Zn315 1.975 1_565 S
O322 C323 1.254 . S
C323 O322 1.254 . S
C323 O324 1.250 1_565 S
O324 Zn306 1.975 1_545 S
O324 C323 1.250 1_545 S
H325 C318 0.930 . S
H326 C319 0.930 . S
C327 C328 1.392 . S
C327 N331 1.328 . S
C327 H333 0.930 . S
C328 C327 1.392 . S
C328 N332 1.331 . S
C329 C330 1.391 . S
C329 N332 1.329 . S
C329 H339 0.930 . S
C330 C329 1.391 . S
C330 N331 1.334 . S
C330 H337 0.930 . S
N331 Zn315 2.119 . S
N331 C327 1.328 . S
N331 C330 1.334 . S
N332 C328 1.331 . S
N332 C329 1.329 . S
H333 C327 0.930 . S
C334 O314 1.257 1_545 S
C334 O335 1.244 . S
O335 C334 1.244 . S
O336 C312 1.257 1_545 S
O336 Zn315 2.019 . S
H337 C330 0.930 . S
H338 C317 0.930 . S
H339 C329 0.930 . S
Zn340 N344 2.020 . S
Zn340 O348 2.019 1_554 S
Zn340 N350 2.119 . S
Zn340 O358 1.975 . S
C341 N342 1.334 . S
C341 N345 1.336 . S
N342 C341 1.334 . S
N342 C343 1.334 . S
C343 N342 1.334 . S
C343 N344 1.336 . S
N344 Zn340 2.020 . S
N344 C343 1.336 . S
N344 N345 1.354 . S
N345 C341 1.336 . S
N345 N344 1.354 . S
N345 Zn349 2.020 . S
C346 O347 1.244 . S
C346 O370 1.257 . S
O347 C346 1.244 . S
O348 Zn340 2.019 1_556 S
O348 C368 1.257 . S
Zn349 N345 2.020 . S
Zn349 O356 1.975 . S
Zn349 N365 2.119 . S
Zn349 O370 2.019 . S
N350 Zn340 2.119 . S
N350 C352 1.334 . S
N350 C353 1.328 . S
C351 C352 1.391 . S
C351 N354 1.329 . S
C351 H372 0.930 . S
C352 N350 1.334 . S
C352 C351 1.391 . S
C352 H359 0.930 . S
C353 N350 1.328 . S
C353 C355 1.392 . S
C353 H360 0.928 1_554 S
N354 C351 1.329 . S
N354 C355 1.331 . S
C355 C353 1.392 . S
C355 N354 1.331 . S
O356 Zn349 1.975 . S
O356 C357 1.252 . S
C357 O356 1.252 . S
C357 O358 1.252 . S
O358 Zn340 1.975 . S
O358 C357 1.252 . S
H359 C352 0.930 . S
H360 C353 0.928 1_556 S
C361 C362 1.392 . S
C361 N365 1.328 . S
C361 H367 0.930 . S
C362 C361 1.392 . S
C362 N366 1.331 . S
C363 C364 1.391 . S
C363 N366 1.329 . S
C363 H373 0.930 . S
C364 C363 1.391 . S
C364 N365 1.334 . S
C364 H371 0.930 . S
N365 Zn349 2.119 . S
N365 C361 1.328 . S
N365 C364 1.334 . S
N366 C362 1.331 . S
N366 C363 1.329 . S
H367 C361 0.930 . S
C368 O348 1.257 . S
C368 O369 1.244 1_556 S
O369 C368 1.244 1_554 S
O370 C346 1.257 . S
O370 Zn349 2.019 . S
H371 C364 0.930 . S
H372 C351 0.930 . S
H373 C363 0.930 . S
Zn374 N378 2.020 . S
Zn374 O382 2.019 . S
Zn374 N384 2.119 . S
Zn374 O392 1.975 1_545 S
C375 N376 1.334 . S
C375 N379 1.336 . S
N376 C375 1.334 . S
N376 C377 1.334 1_565 S
C377 N376 1.334 1_545 S
C377 N378 1.336 . S
N378 Zn374 2.020 . S
N378 C377 1.336 . S
N378 N379 1.354 1_545 S
N379 C375 1.336 . S
N379 N378 1.354 1_565 S
N379 Zn383 2.020 . S
C380 O381 1.244 . S
C380 O404 1.257 1_545 S
O381 C380 1.244 . S
O382 Zn374 2.019 . S
O382 C402 1.257 1_545 S
Zn383 N379 2.020 . S
Zn383 O390 1.975 1_565 S
Zn383 N399 2.119 . S
Zn383 O404 2.019 . S
N384 Zn374 2.119 . S
N384 C386 1.334 . S
N384 C387 1.328 . S
C385 C386 1.391 . S
C385 N388 1.329 . S
C385 H406 0.930 . S
C386 N384 1.334 . S
C386 C385 1.391 . S
C386 H393 0.930 . S
C387 N384 1.328 . S
C387 C389 1.392 . S
C387 H394 0.930 . S
N388 C385 1.329 . S
N388 C389 1.331 . S
C389 C387 1.392 . S
C389 N388 1.331 . S
O390 Zn383 1.975 1_545 S
O390 C391 1.254 . S
C391 O390 1.254 . S
C391 O392 1.250 1_545 S
O392 Zn374 1.975 1_565 S
O392 C391 1.250 1_565 S
H393 C386 0.930 . S
H394 C387 0.930 . S
C395 C396 1.392 . S
C395 N399 1.328 . S
C395 H401 0.930 . S
C396 C395 1.392 . S
C396 N400 1.331 . S
C397 C398 1.391 . S
C397 N400 1.329 . S
C397 H407 0.930 . S
C398 C397 1.391 . S
C398 N399 1.334 . S
C398 H405 0.930 . S
N399 Zn383 2.119 . S
N399 C395 1.328 . S
N399 C398 1.334 . S
N400 C396 1.331 . S
N400 C397 1.329 . S
H401 C395 0.930 . S
C402 O382 1.257 1_565 S
C402 O403 1.244 . S
O403 C402 1.244 . S
O404 C380 1.257 1_565 S
O404 Zn383 2.019 . S
H405 C398 0.930 . S
H406 C385 0.930 . S
H407 C397 0.930 . S
Zn408 N412 2.020 . S
Zn408 O416 2.019 . S
Zn408 N418 2.119 . S
Zn408 O426 1.975 . S
C409 N410 1.334 . S
C409 N413 1.336 . S
N410 C409 1.334 . S
N410 C411 1.334 . S
C411 N410 1.334 . S
C411 N412 1.336 . S
N412 Zn408 2.020 . S
N412 C411 1.336 . S
N412 N413 1.354 . S
N413 C409 1.336 . S
N413 N412 1.354 . S
N413 Zn417 2.020 . S
C414 O415 1.244 . S
C414 O438 1.257 . S
O415 C414 1.244 . S
O416 Zn408 2.019 . S
O416 C436 1.257 . S
Zn417 N413 2.020 . S
Zn417 O424 1.975 . S
Zn417 N433 2.119 . S
Zn417 O438 2.019 . S
N418 Zn408 2.119 . S
N418 C420 1.334 . S
N418 C421 1.328 . S
C419 C420 1.391 . S
C419 N422 1.329 . S
C419 H440 0.930 . S
C420 N418 1.334 . S
C420 C419 1.391 . S
C420 H427 0.930 . S
C421 N418 1.328 . S
C421 C423 1.392 . S
C421 H428 0.930 . S
N422 C419 1.329 . S
N422 C423 1.331 . S
C423 C421 1.392 . S
C423 N422 1.331 . S
O424 Zn417 1.975 . S
O424 C425 1.252 . S
C425 O424 1.252 . S
C425 O426 1.252 . S
O426 Zn408 1.975 . S
O426 C425 1.252 . S
H427 C420 0.930 . S
H428 C421 0.930 . S
C429 C430 1.392 . S
C429 N433 1.328 . S
C429 H435 0.930 . S
C430 C429 1.392 . S
C430 N434 1.331 . S
C431 C432 1.391 . S
C431 N434 1.329 . S
C431 H441 0.930 . S
C432 C431 1.391 . S
C432 N433 1.334 . S
C432 H439 0.930 . S
N433 Zn417 2.119 . S
N433 C429 1.328 . S
N433 C432 1.334 . S
N434 C430 1.331 . S
N434 C431 1.329 . S
H435 C429 0.930 . S
C436 O416 1.257 . S
C436 O437 1.244 . S
O437 C436 1.244 . S
O438 C414 1.257 . S
O438 Zn417 2.019 . S
H439 C432 0.930 . S
H440 C419 0.930 . S
H441 C431 0.930 . S
Zn442 N446 2.020 . S
Zn442 O450 2.019 . S
Zn442 N452 2.119 . S
Zn442 O460 1.975 1_545 S
C443 N444 1.334 . S
C443 N447 1.336 . S
N444 C443 1.334 . S
N444 C445 1.334 1_565 S
C445 N444 1.334 1_545 S
C445 N446 1.336 . S
N446 Zn442 2.020 . S
N446 C445 1.336 . S
N446 N447 1.354 1_545 S
N447 C443 1.336 . S
N447 N446 1.354 1_565 S
N447 Zn451 2.020 . S
C448 O449 1.244 . S
C448 O472 1.257 1_545 S
O449 C448 1.244 . S
O450 Zn442 2.019 . S
O450 C470 1.257 1_545 S
Zn451 N447 2.020 . S
Zn451 O458 1.975 1_565 S
Zn451 N467 2.119 . S
Zn451 O472 2.019 . S
N452 Zn442 2.119 . S
N452 C454 1.334 . S
N452 C455 1.328 . S
C453 C454 1.391 . S
C453 N456 1.329 . S
C453 H474 0.930 . S
C454 N452 1.334 . S
C454 C453 1.391 . S
C454 H461 0.930 . S
C455 N452 1.328 . S
C455 C457 1.392 . S
C455 H462 0.930 . S
N456 C453 1.329 . S
N456 C457 1.331 . S
C457 C455 1.392 . S
C457 N456 1.331 . S
O458 Zn451 1.975 1_545 S
O458 C459 1.254 . S
C459 O458 1.254 . S
C459 O460 1.250 1_545 S
O460 Zn442 1.975 1_565 S
O460 C459 1.250 1_565 S
H461 C454 0.930 . S
H462 C455 0.930 . S
C463 C464 1.392 . S
C463 N467 1.328 . S
C463 H469 0.930 . S
C464 C463 1.392 . S
C464 N468 1.331 . S
C465 C466 1.391 . S
C465 N468 1.329 . S
C465 H475 0.930 . S
C466 C465 1.391 . S
C466 N467 1.334 . S
C466 H473 0.930 . S
N467 Zn451 2.119 . S
N467 C463 1.328 . S
N467 C466 1.334 . S
N468 C464 1.331 . S
N468 C465 1.329 . S
H469 C463 0.930 . S
C470 O450 1.257 1_565 S
C470 O471 1.244 . S
O471 C470 1.244 . S
O472 C448 1.257 1_565 S
O472 Zn451 2.019 . S
H473 C466 0.930 . S
H474 C453 0.930 . S
H475 C465 0.930 . S
Zn476 N480 2.020 . S
Zn476 O484 2.019 1_556 S
Zn476 N486 2.119 . S
Zn476 O494 1.975 . S
C477 N478 1.334 . S
C477 N481 1.336 . S
N478 C477 1.334 . S
N478 C479 1.334 . S
C479 N478 1.334 . S
C479 N480 1.336 . S
N480 Zn476 2.020 . S
N480 C479 1.336 . S
N480 N481 1.354 . S
N481 C477 1.336 . S
N481 N480 1.354 . S
N481 Zn485 2.020 . S
C482 O483 1.244 . S
C482 O506 1.257 . S
O483 C482 1.244 . S
O484 Zn476 2.019 1_554 S
O484 C504 1.257 . S
Zn485 N481 2.020 . S
Zn485 O492 1.975 . S
Zn485 N501 2.119 . S
Zn485 O506 2.019 . S
N486 Zn476 2.119 . S
N486 C488 1.334 . S
N486 C489 1.328 . S
C487 C488 1.391 . S
C487 N490 1.329 . S
C487 H508 0.930 . S
C488 N486 1.334 . S
C488 C487 1.391 . S
C488 H495 0.930 . S
C489 N486 1.328 . S
C489 C491 1.392 . S
C489 H496 0.928 1_556 S
N490 C487 1.329 . S
N490 C491 1.331 . S
C491 C489 1.392 . S
C491 N490 1.331 . S
O492 Zn485 1.975 . S
O492 C493 1.252 . S
C493 O492 1.252 . S
C493 O494 1.252 . S
O494 Zn476 1.975 . S
O494 C493 1.252 . S
H495 C488 0.930 . S
H496 C489 0.928 1_554 S
C497 C498 1.392 . S
C497 N501 1.328 . S
C497 H503 0.930 . S
C498 C497 1.392 . S
C498 N502 1.331 . S
C499 C500 1.391 . S
C499 N502 1.329 . S
C499 H509 0.930 . S
C500 C499 1.391 . S
C500 N501 1.334 . S
C500 H507 0.930 . S
N501 Zn485 2.119 . S
N501 C497 1.328 . S
N501 C500 1.334 . S
N502 C498 1.331 . S
N502 C499 1.329 . S
H503 C497 0.930 . S
C504 O484 1.257 . S
C504 O505 1.244 1_554 S
O505 C504 1.244 1_556 S
O506 C482 1.257 . S
O506 Zn485 2.019 . S
H507 C500 0.930 . S
H508 C487 0.930 . S
H509 C499 0.930 . S
Zn510 N514 2.020 . S
Zn510 O518 2.019 . S
Zn510 N520 2.119 . S
Zn510 O528 1.975 1_545 S
C511 N512 1.334 1_565 S
C511 N515 1.336 . S
N512 C511 1.334 1_545 S
N512 C513 1.334 . S
C513 N512 1.334 . S
C513 N514 1.336 . S
N514 Zn510 2.020 . S
N514 C513 1.336 . S
N514 N515 1.354 1_545 S
N515 C511 1.336 . S
N515 N514 1.354 1_565 S
N515 Zn519 2.020 . S
C516 O517 1.244 . S
C516 O540 1.257 1_545 S
O517 C516 1.244 . S
O518 Zn510 2.019 . S
O518 C538 1.257 1_545 S
Zn519 N515 2.020 . S
Zn519 O526 1.975 1_565 S
Zn519 N535 2.119 . S
Zn519 O540 2.019 . S
N520 Zn510 2.119 . S
N520 C522 1.334 . S
N520 C523 1.328 . S
C521 C522 1.391 . S
C521 N524 1.329 . S
C521 H542 0.930 . S
C522 N520 1.334 . S
C522 C521 1.391 . S
C522 H529 0.930 . S
C523 N520 1.328 . S
C523 C525 1.392 . S
C523 H530 0.930 . S
N524 C521 1.329 . S
N524 C525 1.331 . S
C525 C523 1.392 . S
C525 N524 1.331 . S
O526 Zn519 1.975 1_545 S
O526 C527 1.250 1_545 S
C527 O526 1.250 1_565 S
C527 O528 1.254 . S
O528 Zn510 1.975 1_565 S
O528 C527 1.254 . S
H529 C522 0.930 . S
H530 C523 0.930 . S
C531 C532 1.392 . S
C531 N535 1.328 . S
C531 H537 0.930 . S
C532 C531 1.392 . S
C532 N536 1.331 . S
C533 C534 1.391 . S
C533 N536 1.329 . S
C533 H543 0.930 . S
C534 C533 1.391 . S
C534 N535 1.334 . S
C534 H541 0.930 . S
N535 Zn519 2.119 . S
N535 C531 1.328 . S
N535 C534 1.334 . S
N536 C532 1.331 . S
N536 C533 1.329 . S
H537 C531 0.930 . S
C538 O518 1.257 1_565 S
C538 O539 1.244 . S
O539 C538 1.244 . S
O540 C516 1.257 1_565 S
O540 Zn519 2.019 . S
H541 C534 0.930 . S
H542 C521 0.930 . S
H543 C533 0.930 . S
H544 C552 0.950 . S
H545 C557 0.950 . S
H546 C554 0.950 . S
H547 C556 0.950 . S
H548 C558 0.950 . S
H549 C560 0.950 . S
H550 C562 0.950 1_565 S
H551 C563 0.950 1_565 S
C552 H544 0.950 . S
C552 C553 1.386 1_565 S
C552 C554 1.391 . S
C553 C552 1.386 1_545 S
C553 C557 1.393 . S
C554 H546 0.950 . S
C554 C552 1.391 . S
C554 C555 1.400 1_565 S
C555 C554 1.400 1_545 S
C555 C556 1.398 . S
C555 C561 1.491 . S
C556 H547 0.950 . S
C556 C555 1.398 . S
C556 C557 1.391 . S
C557 H545 0.950 . S
C557 C553 1.393 . S
C557 C556 1.391 . S
C558 H548 0.950 . S
C558 C559 1.386 . S
C558 C560 1.391 . S
C559 C558 1.386 . S
C559 C563 1.393 . S
C560 H549 0.950 . S
C560 C558 1.391 . S
C560 C561 1.400 . S
C561 C555 1.491 . S
C561 C560 1.400 . S
C561 C562 1.398 . S
C562 H550 0.950 1_545 S
C562 C561 1.398 . S
C562 C563 1.391 . S
C563 H551 0.950 1_545 S
C563 C559 1.393 . S
C563 C562 1.391 . S
H564 C572 0.950 . S
H565 C577 0.950 . S
H566 C574 0.950 . S
H567 C576 0.950 . S
H568 C578 0.950 . S
H569 C580 0.950 . S
H570 C582 0.950 . S
H571 C583 0.950 . S
C572 H564 0.950 . S
C572 C573 1.386 . S
C572 C574 1.391 . S
C573 C572 1.386 . S
C573 C577 1.393 . S
C574 H566 0.950 . S
C574 C572 1.391 . S
C574 C575 1.400 . S
C575 C574 1.400 . S
C575 C576 1.398 . S
C575 C581 1.491 . S
C576 H567 0.950 . S
C576 C575 1.398 . S
C576 C577 1.391 . S
C577 H565 0.950 . S
C577 C573 1.393 . S
C577 C576 1.391 . S
C578 H568 0.950 . S
C578 C579 1.386 . S
C578 C580 1.391 . S
C579 C578 1.386 . S
C579 C583 1.393 . S
C580 H569 0.950 . S
C580 C578 1.391 . S
C580 C581 1.400 . S
C581 C575 1.491 . S
C581 C580 1.400 . S
C581 C582 1.398 . S
C582 H570 0.950 . S
C582 C581 1.398 . S
C582 C583 1.391 . S
C583 H571 0.950 . S
C583 C579 1.393 . S
C583 C582 1.391 . S
H584 C592 0.950 . S
H585 C597 0.950 . S
H586 C594 0.950 . S
H587 C596 0.950 . S
H588 C598 0.950 1_545 S
H589 C600 0.956 . S
H590 C602 0.950 . S
H591 C603 0.950 . S
C592 H584 0.950 . S
C592 C593 1.386 . S
C592 C594 1.391 . S
C593 C592 1.386 . S
C593 C597 1.393 1_565 S
C594 H586 0.950 . S
C594 C592 1.391 . S
C594 C595 1.400 . S
C595 C594 1.400 . S
C595 C596 1.398 1_565 S
C595 C601 1.491 . S
C596 H587 0.950 . S
C596 C595 1.398 1_545 S
C596 C597 1.391 . S
C597 H585 0.950 . S
C597 C593 1.393 1_545 S
C597 C596 1.391 . S
C598 H588 0.950 1_565 S
C598 C599 1.386 . S
C598 C600 1.391 1_565 S
C599 C598 1.386 . S
C599 C603 1.393 . S
C600 H589 0.956 . S
C600 C598 1.391 1_545 S
C600 C601 1.395 1_545 S
C601 C595 1.491 . S
C601 C600 1.395 1_565 S
C601 C602 1.398 . S
C602 H590 0.950 . S
C602 C601 1.398 . S
C602 C603 1.391 . S
C603 H591 0.950 . S
C603 C599 1.393 . S
C603 C602 1.391 . S
H604 C612 0.950 . S
H605 C617 0.950 . S
H606 C614 0.950 . S
H607 C616 0.950 . S
H608 C618 0.950 . S
H609 C620 0.950 . S
H610 C622 0.950 . S
H611 C623 0.950 . S
C612 H604 0.950 . S
C612 C613 1.386 . S
C612 C614 1.391 . S
C613 C612 1.386 . S
C613 C617 1.393 . S
C614 H606 0.950 . S
C614 C612 1.391 . S
C614 C615 1.400 . S
C615 C614 1.400 . S
C615 C616 1.398 . S
C615 C621 1.491 . S
C616 H607 0.950 . S
C616 C615 1.398 . S
C616 C617 1.391 . S
C617 H605 0.950 . S
C617 C613 1.393 . S
C617 C616 1.391 . S
C618 H608 0.950 . S
C618 C619 1.386 . S
C618 C620 1.391 . S
C619 C618 1.386 . S
C619 C623 1.393 . S
C620 H609 0.950 . S
C620 C618 1.391 . S
C620 C621 1.400 . S
C621 C615 1.491 . S
C621 C620 1.400 . S
C621 C622 1.398 . S
C622 H610 0.950 . S
C622 C621 1.398 . S
C622 C623 1.391 . S
C623 H611 0.950 . S
C623 C619 1.393 . S
C623 C622 1.391 . S
H624 C632 0.950 . S
H625 C637 0.950 1_545 S
H626 C634 0.950 . S
H627 C636 0.950 . S
H628 C638 0.950 . S
H629 C640 0.950 . S
H630 C642 0.950 . S
H631 C643 0.950 . S
C632 H624 0.950 . S
C632 C633 1.386 . S
C632 C634 1.391 . S
C633 C632 1.386 . S
C633 C637 1.393 . S
C634 H626 0.950 . S
C634 C632 1.391 . S
C634 C635 1.400 . S
C635 C634 1.400 . S
C635 C636 1.398 1_565 S
C635 C641 1.491 . S
C636 H627 0.950 . S
C636 C635 1.398 1_545 S
C636 C637 1.391 1_545 S
C637 H625 0.950 1_565 S
C637 C633 1.393 . S
C637 C636 1.391 1_565 S
C638 H628 0.950 . S
C638 C639 1.386 1_545 S
C638 C640 1.391 . S
C639 C638 1.386 1_565 S
C639 C643 1.393 . S
C640 H629 0.950 . S
C640 C638 1.391 . S
C640 C641 1.400 1_545 S
C641 C635 1.491 . S
C641 C640 1.400 1_565 S
C641 C642 1.398 . S
C642 H630 0.950 . S
C642 C641 1.398 . S
C642 C643 1.391 . S
C643 H631 0.950 . S
C643 C639 1.393 . S
C643 C642 1.391 . S
H644 C652 0.950 . S
H645 C657 0.950 . S
H646 C654 0.950 . S
H647 C656 0.950 . S
H648 C658 0.950 . S
H649 C660 0.950 . S
H650 C662 0.950 . S
H651 C663 0.950 . S
C652 H644 0.950 . S
C652 C653 1.386 . S
C652 C654 1.391 . S
C653 C652 1.386 . S
C653 C657 1.393 . S
C654 H646 0.950 . S
C654 C652 1.391 . S
C654 C655 1.400 . S
C655 C654 1.400 . S
C655 C656 1.398 . S
C655 C661 1.491 . S
C656 H647 0.950 . S
C656 C655 1.398 . S
C656 C657 1.391 . S
C657 H645 0.950 . S
C657 C653 1.393 . S
C657 C656 1.391 . S
C658 H648 0.950 . S
C658 C659 1.386 . S
C658 C660 1.391 . S
C659 C658 1.386 . S
C659 C663 1.393 . S
C660 H649 0.950 . S
C660 C658 1.391 . S
C660 C661 1.400 . S
C661 C655 1.491 . S
C661 C660 1.400 . S
C661 C662 1.398 . S
C662 H650 0.950 . S
C662 C661 1.398 . S
C662 C663 1.391 . S
C663 H651 0.950 . S
C663 C659 1.393 . S
C663 C662 1.391 . S
H664 C672 0.950 . S
H665 C677 0.950 . S
H666 C674 0.950 . S
H667 C676 0.950 . S
H668 C678 0.950 . S
H669 C680 0.950 . S
H670 C682 0.950 . S
H671 C683 0.950 1_565 S
C672 H664 0.950 . S
C672 C673 1.386 1_565 S
C672 C674 1.391 . S
C673 C672 1.386 1_545 S
C673 C677 1.393 . S
C674 H666 0.950 . S
C674 C672 1.391 . S
C674 C675 1.400 1_565 S
C675 C674 1.400 1_545 S
C675 C676 1.398 . S
C675 C681 1.491 . S
C676 H667 0.950 . S
C676 C675 1.398 . S
C676 C677 1.391 . S
C677 H665 0.950 . S
C677 C673 1.393 . S
C677 C676 1.391 . S
C678 H668 0.950 . S
C678 C679 1.386 . S
C678 C680 1.391 . S
C679 C678 1.386 . S
C679 C683 1.393 . S
C680 H669 0.950 . S
C680 C678 1.391 . S
C680 C681 1.400 . S
C681 C675 1.491 . S
C681 C680 1.400 . S
C681 C682 1.398 1_545 S
C682 H670 0.950 . S
C682 C681 1.398 1_565 S
C682 C683 1.391 1_565 S
C683 H671 0.950 1_545 S
C683 C679 1.393 . S
C683 C682 1.391 1_545 S
H684 C692 0.950 . S
H685 C697 0.950 . S
H686 C694 0.950 . S
H687 C696 0.950 . S
H688 C698 0.950 . S
H689 C700 0.950 . S
H690 C702 0.950 . S
H691 C703 0.950 . S
C692 H684 0.950 . S
C692 C693 1.386 . S
C692 C694 1.391 . S
C693 C692 1.386 . S
C693 C697 1.393 . S
C694 H686 0.950 . S
C694 C692 1.391 . S
C694 C695 1.400 . S
C695 C694 1.400 . S
C695 C696 1.398 . S
C695 C701 1.491 . S
C696 H687 0.950 . S
C696 C695 1.398 . S
C696 C697 1.391 . S
C697 H685 0.950 . S
C697 C693 1.393 . S
C697 C696 1.391 . S
C698 H688 0.950 . S
C698 C699 1.386 . S
C698 C700 1.391 . S
C699 C698 1.386 . S
C699 C703 1.393 . S
C700 H689 0.950 . S
C700 C698 1.391 . S
C700 C701 1.400 . S
C701 C695 1.491 . S
C701 C700 1.400 . S
C701 C702 1.398 . S
C702 H690 0.950 . S
C702 C701 1.398 . S
C702 C703 1.391 . S
C703 H691 0.950 . S
C703 C699 1.393 . S
C703 C702 1.391 . S
H704 C712 0.950 . S
H705 C717 0.950 . S
H706 C714 0.950 . S
H707 C716 0.950 . S
H708 C718 0.950 . S
H709 C720 0.950 . S
H710 C722 0.950 . S
H711 C723 0.950 . S
C712 H704 0.950 . S
C712 C713 1.386 . S
C712 C714 1.391 . S
C713 C712 1.386 . S
C713 C717 1.393 . S
C714 H706 0.950 . S
C714 C712 1.391 . S
C714 C715 1.400 . S
C715 C714 1.400 . S
C715 C716 1.398 . S
C715 C721 1.491 . S
C716 H707 0.950 . S
C716 C715 1.398 . S
C716 C717 1.391 . S
C717 H705 0.950 . S
C717 C713 1.393 . S
C717 C716 1.391 . S
C718 H708 0.950 . S
C718 C719 1.386 . S
C718 C720 1.391 . S
C719 C718 1.386 . S
C719 C723 1.393 . S
C720 H709 0.950 . S
C720 C718 1.391 . S
C720 C721 1.400 . S
C721 C715 1.491 . S
C721 C720 1.400 . S
C721 C722 1.398 . S
C722 H710 0.950 . S
C722 C721 1.398 . S
C722 C723 1.391 . S
C723 H711 0.950 . S
C723 C719 1.393 . S
C723 C722 1.391 . S
H724 C732 0.950 . S
H725 C737 0.950 . S
H726 C734 0.950 . S
H727 C736 0.950 . S
H728 C738 0.950 1_545 S
H729 C740 0.950 . S
H730 C742 0.950 . S
H731 C743 0.950 . S
C732 H724 0.950 . S
C732 C733 1.386 . S
C732 C734 1.391 . S
C733 C732 1.386 . S
C733 C737 1.393 1_565 S
C734 H726 0.950 . S
C734 C732 1.391 . S
C734 C735 1.400 . S
C735 C734 1.400 . S
C735 C736 1.398 1_565 S
C735 C741 1.491 . S
C736 H727 0.950 . S
C736 C735 1.398 1_545 S
C736 C737 1.391 . S
C737 H725 0.950 . S
C737 C733 1.393 1_545 S
C737 C736 1.391 . S
C738 H728 0.950 1_565 S
C738 C739 1.386 . S
C738 C740 1.391 1_565 S
C739 C738 1.386 . S
C739 C743 1.393 . S
C740 H729 0.950 . S
C740 C738 1.391 1_545 S
C740 C741 1.400 1_545 S
C741 C735 1.491 . S
C741 C740 1.400 1_565 S
C741 C742 1.398 . S
C742 H730 0.950 . S
C742 C741 1.398 . S
C742 C743 1.391 . S
C743 H731 0.950 . S
C743 C739 1.393 . S
C743 C742 1.391 . S
H744 C752 0.950 . S
H745 C757 0.950 . S
H746 C754 0.950 . S
H747 C756 0.950 . S
H748 C758 0.950 . S
H749 C760 0.950 . S
H750 C762 0.950 . S
H751 C763 0.950 . S
C752 H744 0.950 . S
C752 C753 1.386 . S
C752 C754 1.391 . S
C753 C752 1.386 . S
C753 C757 1.393 . S
C754 H746 0.950 . S
C754 C752 1.391 . S
C754 C755 1.400 . S
C755 C754 1.400 . S
C755 C756 1.398 . S
C755 C761 1.491 . S
C756 H747 0.950 . S
C756 C755 1.398 . S
C756 C757 1.391 . S
C757 H745 0.950 . S
C757 C753 1.393 . S
C757 C756 1.391 . S
C758 H748 0.950 . S
C758 C759 1.386 . S
C758 C760 1.391 . S
C759 C758 1.386 . S
C759 C763 1.393 . S
C760 H749 0.950 . S
C760 C758 1.391 . S
C760 C761 1.400 . S
C761 C755 1.491 . S
C761 C760 1.400 . S
C761 C762 1.398 . S
C762 H750 0.950 . S
C762 C761 1.398 . S
C762 C763 1.391 . S
C763 H751 0.950 . S
C763 C759 1.393 . S
C763 C762 1.391 . S
H764 C772 0.950 . S
H765 C777 0.950 . S
H766 C774 0.950 . S
H767 C776 0.950 . S
H768 C778 0.950 . S
H769 C780 0.950 . S
H770 C782 0.950 . S
H771 C783 0.950 . S
C772 H764 0.950 . S
C772 C773 1.386 . S
C772 C774 1.391 . S
C773 C772 1.386 . S
C773 C777 1.393 . S
C774 H766 0.950 . S
C774 C772 1.391 . S
C774 C775 1.400 . S
C775 C774 1.400 . S
C775 C776 1.398 . S
C775 C781 1.491 . S
C776 H767 0.950 . S
C776 C775 1.398 . S
C776 C777 1.391 . S
C777 H765 0.950 . S
C777 C773 1.393 . S
C777 C776 1.391 . S
C778 H768 0.950 . S
C778 C779 1.386 . S
C778 C780 1.391 . S
C779 C778 1.386 . S
C779 C783 1.393 . S
C780 H769 0.950 . S
C780 C778 1.391 . S
C780 C781 1.400 . S
C781 C775 1.491 . S
C781 C780 1.400 . S
C781 C782 1.398 . S
C782 H770 0.950 . S
C782 C781 1.398 . S
C782 C783 1.391 . S
C783 H771 0.950 . S
C783 C779 1.393 . S
C783 C782 1.391 . S
H784 C792 0.950 . S
H785 C797 0.950 . S
H786 C794 0.950 . S
H787 C796 0.950 . S
H788 C798 0.950 . S
H789 C800 0.950 . S
H790 C802 0.950 . S
H791 C803 0.950 . S
C792 H784 0.950 . S
C792 C793 1.386 . S
C792 C794 1.391 . S
C793 C792 1.386 . S
C793 C797 1.393 . S
C794 H786 0.950 . S
C794 C792 1.391 . S
C794 C795 1.400 . S
C795 C794 1.400 . S
C795 C796 1.398 . S
C795 C801 1.491 . S
C796 H787 0.950 . S
C796 C795 1.398 . S
C796 C797 1.391 . S
C797 H785 0.950 . S
C797 C793 1.393 . S
C797 C796 1.391 . S
C798 H788 0.950 . S
C798 C799 1.386 . S
C798 C800 1.391 . S
C799 C798 1.386 . S
C799 C803 1.393 . S
C800 H789 0.950 . S
C800 C798 1.391 . S
C800 C801 1.400 . S
C801 C795 1.491 . S
C801 C800 1.400 . S
C801 C802 1.398 . S
C802 H790 0.950 . S
C802 C801 1.398 . S
C802 C803 1.391 . S
C803 H791 0.950 . S
C803 C799 1.393 . S
C803 C802 1.391 . S
H804 C812 0.950 . S
H805 C817 0.950 . S
H806 C814 0.950 . S
H807 C816 0.950 . S
H808 C818 0.950 . S
H809 C820 0.950 . S
H810 C822 0.950 . S
H811 C823 0.950 . S
C812 H804 0.950 . S
C812 C813 1.386 . S
C812 C814 1.391 . S
C813 C812 1.386 . S
C813 C817 1.393 1_545 S
C814 H806 0.950 . S
C814 C812 1.391 . S
C814 C815 1.400 . S
C815 C814 1.400 . S
C815 C816 1.398 1_545 S
C815 C821 1.491 . S
C816 H807 0.950 . S
C816 C815 1.398 1_565 S
C816 C817 1.391 . S
C817 H805 0.950 . S
C817 C813 1.393 1_565 S
C817 C816 1.391 . S
C818 H808 0.950 . S
C818 C819 1.386 1_565 S
C818 C820 1.391 . S
C819 C818 1.386 1_545 S
C819 C823 1.393 . S
C820 H809 0.950 . S
C820 C818 1.391 . S
C820 C821 1.400 1_565 S
C821 C815 1.491 . S
C821 C820 1.400 1_545 S
C821 C822 1.398 . S
C822 H810 0.950 . S
C822 C821 1.398 . S
C822 C823 1.391 . S
C823 H811 0.950 . S
C823 C819 1.393 . S
C823 C822 1.391 . S
H824 C832 0.950 . S
H825 C837 0.950 . S
H826 C834 0.950 . S
H827 C836 0.950 . S
H828 C838 0.950 . S
H829 C840 0.950 . S
H830 C842 0.950 . S
H831 C843 0.950 . S
C832 H824 0.950 . S
C832 C833 1.386 . S
C832 C834 1.391 . S
C833 C832 1.386 . S
C833 C837 1.393 . S
C834 H826 0.950 . S
C834 C832 1.391 . S
C834 C835 1.400 . S
C835 C834 1.400 . S
C835 C836 1.398 . S
C835 C841 1.491 . S
C836 H827 0.950 . S
C836 C835 1.398 . S
C836 C837 1.391 . S
C837 H825 0.950 . S
C837 C833 1.393 . S
C837 C836 1.391 . S
C838 H828 0.950 . S
C838 C839 1.386 . S
C838 C840 1.391 . S
C839 C838 1.386 . S
C839 C843 1.393 . S
C840 H829 0.950 . S
C840 C838 1.391 . S
C840 C841 1.400 . S
C841 C835 1.491 . S
C841 C840 1.400 . S
C841 C842 1.398 . S
C842 H830 0.950 . S
C842 C841 1.398 . S
C842 C843 1.391 . S
C843 H831 0.950 . S
C843 C839 1.393 . S
C843 C842 1.391 . S
H844 C852 0.950 . S
H845 C857 0.950 . S
H846 C854 0.950 . S
H847 C856 0.950 . S
H848 C858 0.950 . S
H849 C860 0.950 . S
H850 C862 0.950 . S
H851 C863 0.950 . S
C852 H844 0.950 . S
C852 C853 1.386 1_545 S
C852 C854 1.391 . S
C853 C852 1.386 1_565 S
C853 C857 1.393 . S
C854 H846 0.950 . S
C854 C852 1.391 . S
C854 C855 1.400 1_545 S
C855 C854 1.400 1_565 S
C855 C856 1.398 . S
C855 C861 1.491 . S
C856 H847 0.950 . S
C856 C855 1.398 . S
C856 C857 1.391 . S
C857 H845 0.950 . S
C857 C853 1.393 . S
C857 C856 1.391 . S
C858 H848 0.950 . S
C858 C859 1.386 . S
C858 C860 1.391 . S
C859 C858 1.386 . S
C859 C863 1.393 1_565 S
C860 H849 0.950 . S
C860 C858 1.391 . S
C860 C861 1.400 . S
C861 C855 1.491 . S
C861 C860 1.400 . S
C861 C862 1.398 1_565 S
C862 H850 0.950 . S
C862 C861 1.398 1_545 S
C862 C863 1.391 . S
C863 H851 0.950 . S
C863 C859 1.393 1_545 S
C863 C862 1.391 . S
H864 C872 0.950 . S
H865 C877 0.950 . S
H866 C874 0.950 . S
H867 C876 0.950 . S
H868 C878 0.950 . S
H869 C880 0.950 . S
H870 C882 0.950 . S
H871 C883 0.950 . S
C872 H864 0.950 . S
C872 C873 1.386 . S
C872 C874 1.391 . S
C873 C872 1.386 . S
C873 C877 1.393 . S
C874 H866 0.950 . S
C874 C872 1.391 . S
C874 C875 1.400 . S
C875 C874 1.400 . S
C875 C876 1.398 . S
C875 C881 1.491 . S
C876 H867 0.950 . S
C876 C875 1.398 . S
C876 C877 1.391 . S
C877 H865 0.950 . S
C877 C873 1.393 . S
C877 C876 1.391 . S
C878 H868 0.950 . S
C878 C879 1.386 . S
C878 C880 1.391 . S
C879 C878 1.386 . S
C879 C883 1.393 . S
C880 H869 0.950 . S
C880 C878 1.391 . S
C880 C881 1.400 . S
C881 C875 1.491 . S
C881 C880 1.400 . S
C881 C882 1.398 . S
C882 H870 0.950 . S
C882 C881 1.398 . S
C882 C883 1.391 . S
C883 H871 0.950 . S
C883 C879 1.393 . S
C883 C882 1.391 . S
H884 C892 0.950 . S
H885 C897 0.950 . S
H886 C894 0.950 . S
H887 C896 0.950 . S
H888 C898 0.950 . S
H889 C900 0.950 . S
H890 C902 0.950 . S
H891 C903 0.950 . S
C892 H884 0.950 . S
C892 C893 1.386 . S
C892 C894 1.391 . S
C893 C892 1.386 . S
C893 C897 1.393 . S
C894 H886 0.950 . S
C894 C892 1.391 . S
C894 C895 1.400 . S
C895 C894 1.400 . S
C895 C896 1.398 . S
C895 C901 1.491 . S
C896 H887 0.950 . S
C896 C895 1.398 . S
C896 C897 1.391 . S
C897 H885 0.950 . S
C897 C893 1.393 . S
C897 C896 1.391 . S
C898 H888 0.950 . S
C898 C899 1.386 . S
C898 C900 1.391 . S
C899 C898 1.386 . S
C899 C903 1.393 . S
C900 H889 0.950 . S
C900 C898 1.391 . S
C900 C901 1.400 . S
C901 C895 1.491 . S
C901 C900 1.400 . S
C901 C902 1.398 . S
C902 H890 0.950 . S
C902 C901 1.398 . S
C902 C903 1.391 . S
C903 H891 0.950 . S
C903 C899 1.393 . S
C903 C902 1.391 . S
H904 C912 0.950 . S
H905 C917 0.950 . S
H906 C914 0.950 . S
H907 C916 0.950 . S
H908 C918 0.950 . S
H909 C920 0.950 . S
H910 C922 0.950 . S
H911 C923 0.950 . S
C912 H904 0.950 . S
C912 C913 1.386 . S
C912 C914 1.391 . S
C913 C912 1.386 . S
C913 C917 1.393 . S
C914 H906 0.950 . S
C914 C912 1.391 . S
C914 C915 1.400 . S
C915 C914 1.400 . S
C915 C916 1.398 . S
C915 C921 1.491 . S
C916 H907 0.950 . S
C916 C915 1.398 . S
C916 C917 1.391 . S
C917 H905 0.950 . S
C917 C913 1.393 . S
C917 C916 1.391 . S
C918 H908 0.950 . S
C918 C919 1.386 . S
C918 C920 1.391 . S
C919 C918 1.386 . S
C919 C923 1.393 . S
C920 H909 0.950 . S
C920 C918 1.391 . S
C920 C921 1.400 . S
C921 C915 1.491 . S
C921 C920 1.400 . S
C921 C922 1.398 . S
C922 H910 0.950 . S
C922 C921 1.398 . S
C922 C923 1.391 . S
C923 H911 0.950 . S
C923 C919 1.393 . S
C923 C922 1.391 . S
H924 C932 0.950 . S
H925 C937 0.950 . S
H926 C934 0.950 . S
H927 C936 0.950 . S
H928 C938 0.950 . S
H929 C940 0.950 . S
H930 C942 0.950 . S
H931 C943 0.950 . S
C932 H924 0.950 . S
C932 C933 1.386 . S
C932 C934 1.391 1_455 S
C933 C932 1.386 . S
C933 C937 1.393 . S
C934 H926 0.950 . S
C934 C932 1.391 1_655 S
C934 C935 1.400 . S
C935 C934 1.400 . S
C935 C936 1.398 1_655 S
C935 C941 1.491 . S
C936 H927 0.950 . S
C936 C935 1.398 1_455 S
C936 C937 1.391 . S
C937 H925 0.950 . S
C937 C933 1.393 . S
C937 C936 1.391 . S
C938 H928 0.950 . S
C938 C939 1.386 . S
C938 C940 1.391 . S
C939 C938 1.386 . S
C939 C943 1.393 . S
C940 H929 0.950 . S
C940 C938 1.391 . S
C940 C941 1.400 . S
C941 C935 1.491 . S
C941 C940 1.400 . S
C941 C942 1.398 . S
C942 H930 0.950 . S
C942 C941 1.398 . S
C942 C943 1.391 . S
C943 H931 0.950 . S
C943 C939 1.393 . S
C943 C942 1.391 . S
H944 C952 0.950 . S
H945 C957 0.950 . S
H946 C954 0.950 . S
H947 C956 0.950 . S
H948 C958 0.950 . S
H949 C960 0.950 . S
H950 C962 0.950 . S
H951 C963 0.950 . S
C952 H944 0.950 . S
C952 C953 1.386 . S
C952 C954 1.391 . S
C953 C952 1.386 . S
C953 C957 1.393 . S
C954 H946 0.950 . S
C954 C952 1.391 . S
C954 C955 1.400 . S
C955 C954 1.400 . S
C955 C956 1.398 . S
C955 C961 1.491 . S
C956 H947 0.950 . S
C956 C955 1.398 . S
C956 C957 1.391 . S
C957 H945 0.950 . S
C957 C953 1.393 . S
C957 C956 1.391 . S
C958 H948 0.950 . S
C958 C959 1.386 . S
C958 C960 1.391 . S
C959 C958 1.386 . S
C959 C963 1.393 . S
C960 H949 0.950 . S
C960 C958 1.391 . S
C960 C961 1.400 . S
C961 C955 1.491 . S
C961 C960 1.400 . S
C961 C962 1.398 . S
C962 H950 0.950 . S
C962 C961 1.398 . S
C962 C963 1.391 . S
C963 H951 0.950 . S
C963 C959 1.393 . S
C963 C962 1.391 . S
H964 C972 0.950 . S
H965 C977 0.950 . S
H966 C974 0.950 . S
H967 C976 0.950 . S
H968 C978 0.950 . S
H969 C980 0.950 . S
H970 C982 0.950 . S
H971 C983 0.950 . S
C972 H964 0.950 . S
C972 C973 1.386 . S
C972 C974 1.391 . S
C973 C972 1.386 . S
C973 C977 1.393 . S
C974 H966 0.950 . S
C974 C972 1.391 . S
C974 C975 1.400 . S
C975 C974 1.400 . S
C975 C976 1.398 . S
C975 C981 1.491 . S
C976 H967 0.950 . S
C976 C975 1.398 . S
C976 C977 1.391 . S
C977 H965 0.950 . S
C977 C973 1.393 . S
C977 C976 1.391 . S
C978 H968 0.950 . S
C978 C979 1.386 . S
C978 C980 1.391 . S
C979 C978 1.386 . S
C979 C983 1.393 . S
C980 H969 0.950 . S
C980 C978 1.391 . S
C980 C981 1.400 . S
C981 C975 1.491 . S
C981 C980 1.400 . S
C981 C982 1.398 . S
C982 H970 0.950 . S
C982 C981 1.398 . S
C982 C983 1.391 . S
C983 H971 0.950 . S
C983 C979 1.393 . S
C983 C982 1.391 . S
H984 C992 0.950 . S
H985 C997 0.950 . S
H986 C994 0.950 . S
H987 C996 0.950 . S
H988 C998 0.950 . S
H989 C1000 0.950 . S
H990 C1002 0.950 . S
H991 C1003 0.950 . S
C992 H984 0.950 . S
C992 C993 1.386 . S
C992 C994 1.391 . S
C993 C992 1.386 . S
C993 C997 1.393 . S
C994 H986 0.950 . S
C994 C992 1.391 . S
C994 C995 1.400 . S
C995 C994 1.400 . S
C995 C996 1.398 . S
C995 C1001 1.491 . S
C996 H987 0.950 . S
C996 C995 1.398 . S
C996 C997 1.391 . S
C997 H985 0.950 . S
C997 C993 1.393 . S
C997 C996 1.391 . S
C998 H988 0.950 . S
C998 C999 1.386 . S
C998 C1000 1.391 . S
C999 C998 1.386 . S
C999 C1003 1.393 . S
C1000 H989 0.950 . S
C1000 C998 1.391 . S
C1000 C1001 1.400 . S
C1001 C995 1.491 . S
C1001 C1000 1.400 . S
C1001 C1002 1.398 . S
C1002 H990 0.950 . S
C1002 C1001 1.398 . S
C1002 C1003 1.391 . S
C1003 H991 0.950 . S
C1003 C999 1.393 . S
C1003 C1002 1.391 . S
H1004 C1012 0.950 . S
H1005 C1017 0.950 . S
H1006 C1014 0.950 . S
H1007 C1016 0.950 1_455 S
H1008 C1018 0.950 . S
H1009 C1020 0.950 . S
H1010 C1022 0.950 . S
H1011 C1023 0.950 . S
C1012 H1004 0.950 . S
C1012 C1013 1.386 . S
C1012 C1014 1.391 . S
C1013 C1012 1.386 . S
C1013 C1017 1.393 . S
C1014 H1006 0.950 . S
C1014 C1012 1.391 . S
C1014 C1015 1.400 1_655 S
C1015 C1014 1.400 1_455 S
C1015 C1016 1.398 1_455 S
C1015 C1021 1.491 . S
C1016 H1007 0.950 1_655 S
C1016 C1015 1.398 1_655 S
C1016 C1017 1.391 . S
C1017 H1005 0.950 . S
C1017 C1013 1.393 . S
C1017 C1016 1.391 . S
C1018 H1008 0.950 . S
C1018 C1019 1.386 . S
C1018 C1020 1.391 . S
C1019 C1018 1.386 . S
C1019 C1023 1.393 . S
C1020 H1009 0.950 . S
C1020 C1018 1.391 . S
C1020 C1021 1.400 . S
C1021 C1015 1.491 . S
C1021 C1020 1.400 . S
C1021 C1022 1.398 . S
C1022 H1010 0.950 . S
C1022 C1021 1.398 . S
C1022 C1023 1.391 . S
C1023 H1011 0.950 . S
C1023 C1019 1.393 . S
C1023 C1022 1.391 . S
H1024 C1032 0.950 . S
H1025 C1037 0.950 . S
H1026 C1034 0.950 . S
H1027 C1036 0.950 . S
H1028 C1038 0.950 . S
H1029 C1040 0.950 . S
H1030 C1042 0.950 . S
H1031 C1043 0.950 . S
C1032 H1024 0.950 . S
C1032 C1033 1.386 . S
C1032 C1034 1.391 . S
C1033 C1032 1.386 . S
C1033 C1037 1.393 . S
C1034 H1026 0.950 . S
C1034 C1032 1.391 . S
C1034 C1035 1.400 . S
C1035 C1034 1.400 . S
C1035 C1036 1.398 . S
C1035 C1041 1.491 . S
C1036 H1027 0.950 . S
C1036 C1035 1.398 . S
C1036 C1037 1.391 . S
C1037 H1025 0.950 . S
C1037 C1033 1.393 . S
C1037 C1036 1.391 . S
C1038 H1028 0.950 . S
C1038 C1039 1.386 . S
C1038 C1040 1.391 . S
C1039 C1038 1.386 . S
C1039 C1043 1.393 . S
C1040 H1029 0.950 . S
C1040 C1038 1.391 . S
C1040 C1041 1.400 . S
C1041 C1035 1.491 . S
C1041 C1040 1.400 . S
C1041 C1042 1.398 . S
C1042 H1030 0.950 . S
C1042 C1041 1.398 . S
C1042 C1043 1.391 . S
C1043 H1031 0.950 . S
C1043 C1039 1.393 . S
C1043 C1042 1.391 . S
H1044 C1052 0.950 . S
H1045 C1057 0.950 . S
H1046 C1054 0.950 . S
H1047 C1056 0.950 . S
H1048 C1058 0.950 . S
H1049 C1060 0.950 1_455 S
H1050 C1062 0.950 . S
H1051 C1063 0.950 . S
C1052 H1044 0.950 . S
C1052 C1053 1.386 . S
C1052 C1054 1.391 . S
C1053 C1052 1.386 . S
C1053 C1057 1.393 1_565 S
C1054 H1046 0.950 . S
C1054 C1052 1.391 . S
C1054 C1055 1.400 . S
C1055 C1054 1.400 . S
C1055 C1056 1.398 1_565 S
C1055 C1061 1.491 . S
C1056 H1047 0.950 . S
C1056 C1055 1.398 1_545 S
C1056 C1057 1.391 . S
C1057 H1045 0.950 . S
C1057 C1053 1.393 1_545 S
C1057 C1056 1.391 . S
C1058 H1048 0.950 . S
C1058 C1059 1.386 1_545 S
C1058 C1060 1.391 . S
C1059 C1058 1.386 1_565 S
C1059 C1063 1.393 . S
C1060 H1049 0.950 1_655 S
C1060 C1058 1.391 . S
C1060 C1061 1.400 1_645 S
C1061 C1055 1.491 . S
C1061 C1060 1.400 1_465 S
C1061 C1062 1.398 1_455 S
C1062 H1050 0.950 . S
C1062 C1061 1.398 1_655 S
C1062 C1063 1.391 . S
C1063 H1051 0.950 . S
C1063 C1059 1.393 . S
C1063 C1062 1.391 . S
H1064 C1072 0.950 . S
H1065 C1077 0.950 . S
H1066 C1074 0.950 . S
H1067 C1076 0.950 . S
H1068 C1078 0.950 . S
H1069 C1080 0.950 . S
H1070 C1082 0.950 . S
H1071 C1083 0.950 . S
C1072 H1064 0.950 . S
C1072 C1073 1.386 . S
C1072 C1074 1.391 . S
C1073 C1072 1.386 . S
C1073 C1077 1.393 . S
C1074 H1066 0.950 . S
C1074 C1072 1.391 . S
C1074 C1075 1.400 . S
C1075 C1074 1.400 . S
C1075 C1076 1.398 . S
C1075 C1081 1.491 . S
C1076 H1067 0.950 . S
C1076 C1075 1.398 . S
C1076 C1077 1.391 . S
C1077 H1065 0.950 . S
C1077 C1073 1.393 . S
C1077 C1076 1.391 . S
C1078 H1068 0.950 . S
C1078 C1079 1.386 . S
C1078 C1080 1.391 . S
C1079 C1078 1.386 . S
C1079 C1083 1.393 . S
C1080 H1069 0.950 . S
C1080 C1078 1.391 . S
C1080 C1081 1.400 . S
C1081 C1075 1.491 . S
C1081 C1080 1.400 . S
C1081 C1082 1.398 . S
C1082 H1070 0.950 . S
C1082 C1081 1.398 . S
C1082 C1083 1.391 . S
C1083 H1071 0.950 . S
C1083 C1079 1.393 . S
C1083 C1082 1.391 . S
H1084 C1092 0.950 . S
H1085 C1097 0.950 . S
H1086 C1094 0.950 . S
H1087 C1096 0.950 . S
H1088 C1098 0.950 . S
H1089 C1100 0.950 . S
H1090 C1102 0.943 1_565 S
H1091 C1103 0.943 1_565 S
C1092 H1084 0.950 . S
C1092 C1093 1.386 1_565 S
C1092 C1094 1.391 . S
C1093 C1092 1.386 1_545 S
C1093 C1097 1.393 . S
C1094 H1086 0.950 . S
C1094 C1092 1.391 . S
C1094 C1095 1.400 1_565 S
C1095 C1094 1.400 1_545 S
C1095 C1096 1.398 . S
C1095 C1101 1.491 . S
C1096 H1087 0.950 . S
C1096 C1095 1.398 . S
C1096 C1097 1.391 . S
C1097 H1085 0.950 . S
C1097 C1093 1.393 . S
C1097 C1096 1.391 . S
C1098 H1088 0.950 . S
C1098 C1099 1.386 . S
C1098 C1100 1.391 . S
C1099 C1098 1.386 . S
C1099 C1103 1.400 . S
C1100 H1089 0.950 . S
C1100 C1098 1.391 . S
C1100 C1101 1.400 . S
C1101 C1095 1.491 . S
C1101 C1100 1.400 . S
C1101 C1102 1.405 . S
C1102 H1090 0.943 1_545 S
C1102 C1101 1.405 . S
C1102 C1103 1.391 . S
C1103 H1091 0.943 1_545 S
C1103 C1099 1.400 . S
C1103 C1102 1.391 . S
H1104 C1112 0.950 . S
H1105 C1117 0.950 . S
H1106 C1114 0.950 . S
H1107 C1116 0.950 . S
H1108 C1118 0.950 . S
H1109 C1120 0.950 . S
H1110 C1122 0.950 . S
H1111 C1123 0.950 . S
C1112 H1104 0.950 . S
C1112 C1113 1.386 . S
C1112 C1114 1.391 . S
C1113 C1112 1.386 . S
C1113 C1117 1.393 . S
C1114 H1106 0.950 . S
C1114 C1112 1.391 . S
C1114 C1115 1.400 . S
C1115 C1114 1.400 . S
C1115 C1116 1.398 . S
C1115 C1121 1.491 . S
C1116 H1107 0.950 . S
C1116 C1115 1.398 . S
C1116 C1117 1.391 . S
C1117 H1105 0.950 . S
C1117 C1113 1.393 . S
C1117 C1116 1.391 . S
C1118 H1108 0.950 . S
C1118 C1119 1.386 . S
C1118 C1120 1.391 . S
C1119 C1118 1.386 . S
C1119 C1123 1.393 . S
C1120 H1109 0.950 . S
C1120 C1118 1.391 . S
C1120 C1121 1.400 . S
C1121 C1115 1.491 . S
C1121 C1120 1.400 . S
C1121 C1122 1.398 . S
C1122 H1110 0.950 . S
C1122 C1121 1.398 . S
C1122 C1123 1.391 . S
C1123 H1111 0.950 . S
C1123 C1119 1.393 . S
C1123 C1122 1.391 . S
H1124 C1132 0.950 . S
H1125 C1137 0.950 . S
H1126 C1134 0.950 . S
H1127 C1136 0.950 . S
H1128 C1138 0.950 . S
H1129 C1140 0.950 . S
H1130 C1142 0.950 . S
H1131 C1143 0.950 . S
C1132 H1124 0.950 . S
C1132 C1133 1.386 . S
C1132 C1134 1.391 . S
C1133 C1132 1.386 . S
C1133 C1137 1.393 1_545 S
C1134 H1126 0.950 . S
C1134 C1132 1.391 . S
C1134 C1135 1.400 . S
C1135 C1134 1.400 . S
C1135 C1136 1.398 1_545 S
C1135 C1141 1.491 . S
C1136 H1127 0.950 . S
C1136 C1135 1.398 1_565 S
C1136 C1137 1.391 . S
C1137 H1125 0.950 . S
C1137 C1133 1.393 1_565 S
C1137 C1136 1.391 . S
C1138 H1128 0.950 . S
C1138 C1139 1.386 1_565 S
C1138 C1140 1.391 . S
C1139 C1138 1.386 1_545 S
C1139 C1143 1.393 . S
C1140 H1129 0.950 . S
C1140 C1138 1.391 . S
C1140 C1141 1.400 1_465 S
C1141 C1135 1.491 . S
C1141 C1140 1.400 1_645 S
C1141 C1142 1.398 . S
C1142 H1130 0.950 . S
C1142 C1141 1.398 . S
C1142 C1143 1.391 1_655 S
C1143 H1131 0.950 . S
C1143 C1139 1.393 . S
C1143 C1142 1.391 1_455 S
H1144 C1152 0.950 . S
H1145 C1157 0.950 . S
H1146 C1154 0.950 . S
H1147 C1156 0.950 . S
H1148 C1158 0.950 . S
H1149 C1160 0.950 . S
H1150 C1162 0.950 . S
H1151 C1163 0.950 . S
C1152 H1144 0.950 . S
C1152 C1153 1.386 . S
C1152 C1154 1.391 . S
C1153 C1152 1.386 . S
C1153 C1157 1.393 . S
C1154 H1146 0.950 . S
C1154 C1152 1.391 . S
C1154 C1155 1.400 . S
C1155 C1154 1.400 . S
C1155 C1156 1.398 . S
C1155 C1161 1.491 . S
C1156 H1147 0.950 . S
C1156 C1155 1.398 . S
C1156 C1157 1.391 . S
C1157 H1145 0.950 . S
C1157 C1153 1.393 . S
C1157 C1156 1.391 . S
C1158 H1148 0.950 . S
C1158 C1159 1.386 . S
C1158 C1160 1.391 . S
C1159 C1158 1.386 . S
C1159 C1163 1.393 . S
C1160 H1149 0.950 . S
C1160 C1158 1.391 . S
C1160 C1161 1.400 . S
C1161 C1155 1.491 . S
C1161 C1160 1.400 . S
C1161 C1162 1.398 . S
C1162 H1150 0.950 . S
C1162 C1161 1.398 . S
C1162 C1163 1.391 . S
C1163 H1151 0.950 . S
C1163 C1159 1.393 . S
C1163 C1162 1.391 . S
H1164 C1172 0.950 . S
H1165 C1177 0.950 . S
H1166 C1174 0.950 . S
H1167 C1176 0.950 . S
H1168 C1178 0.950 . S
H1169 C1180 0.950 . S
H1170 C1182 0.950 . S
H1171 C1183 0.950 . S
C1172 H1164 0.950 . S
C1172 C1173 1.386 1_545 S
C1172 C1174 1.391 . S
C1173 C1172 1.386 1_565 S
C1173 C1177 1.393 . S
C1174 H1166 0.950 . S
C1174 C1172 1.391 . S
C1174 C1175 1.400 1_545 S
C1175 C1174 1.400 1_565 S
C1175 C1176 1.398 . S
C1175 C1181 1.491 . S
C1176 H1167 0.950 . S
C1176 C1175 1.398 . S
C1176 C1177 1.391 . S
C1177 H1165 0.950 . S
C1177 C1173 1.393 . S
C1177 C1176 1.391 . S
C1178 H1168 0.950 . S
C1178 C1179 1.386 . S
C1178 C1180 1.391 . S
C1179 C1178 1.386 . S
C1179 C1183 1.393 1_565 S
C1180 H1169 0.950 . S
C1180 C1178 1.391 . S
C1180 C1181 1.400 . S
C1181 C1175 1.491 . S
C1181 C1180 1.400 . S
C1181 C1182 1.398 1_565 S
C1182 H1170 0.950 . S
C1182 C1181 1.398 1_545 S
C1182 C1183 1.391 . S
C1183 H1171 0.950 . S
C1183 C1179 1.393 1_545 S
C1183 C1182 1.391 . S
H1184 C1192 0.950 . S
H1185 C1197 0.950 . S
H1186 C1194 0.950 . S
H1187 C1196 0.950 . S
H1188 C1198 0.950 . S
H1189 C1200 0.950 . S
H1190 C1202 0.950 . S
H1191 C1203 0.950 . S
C1192 H1184 0.950 . S
C1192 C1193 1.386 1_545 S
C1192 C1194 1.391 . S
C1193 C1192 1.386 1_565 S
C1193 C1197 1.393 . S
C1194 H1186 0.950 . S
C1194 C1192 1.391 . S
C1194 C1195 1.400 1_545 S
C1195 C1194 1.400 1_565 S
C1195 C1196 1.398 . S
C1195 C1201 1.491 1_566 S
C1196 H1187 0.950 . S
C1196 C1195 1.398 . S
C1196 C1197 1.391 . S
C1197 H1185 0.950 . S
C1197 C1193 1.393 . S
C1197 C1196 1.391 . S
C1198 H1188 0.950 . S
C1198 C1199 1.386 1_565 S
C1198 C1200 1.391 . S
C1199 C1198 1.386 1_545 S
C1199 C1203 1.393 . S
C1200 H1189 0.950 . S
C1200 C1198 1.391 . S
C1200 C1201 1.400 1_565 S
C1201 C1195 1.491 1_544 S
C1201 C1200 1.400 1_545 S
C1201 C1202 1.398 . S
C1202 H1190 0.950 . S
C1202 C1201 1.398 . S
C1202 C1203 1.391 . S
C1203 H1191 0.950 . S
C1203 C1199 1.393 . S
C1203 C1202 1.391 . S
H1204 C1212 0.950 . S
H1205 C1217 0.950 . S
H1206 C1214 0.950 . S
H1207 C1216 0.950 . S
H1208 C1218 0.950 . S
H1209 C1220 0.950 . S
H1210 C1222 0.950 . S
H1211 C1223 0.950 . S
C1212 H1204 0.950 . S
C1212 C1213 1.386 . S
C1212 C1214 1.391 . S
C1213 C1212 1.386 . S
C1213 C1217 1.393 . S
C1214 H1206 0.950 . S
C1214 C1212 1.391 . S
C1214 C1215 1.400 . S
C1215 C1214 1.400 . S
C1215 C1216 1.398 . S
C1215 C1221 1.491 . S
C1216 H1207 0.950 . S
C1216 C1215 1.398 . S
C1216 C1217 1.391 . S
C1217 H1205 0.950 . S
C1217 C1213 1.393 . S
C1217 C1216 1.391 . S
C1218 H1208 0.950 . S
C1218 C1219 1.386 . S
C1218 C1220 1.391 . S
C1219 C1218 1.386 . S
C1219 C1223 1.393 . S
C1220 H1209 0.950 . S
C1220 C1218 1.391 . S
C1220 C1221 1.400 . S
C1221 C1215 1.491 . S
C1221 C1220 1.400 . S
C1221 C1222 1.398 . S
C1222 H1210 0.950 . S
C1222 C1221 1.398 . S
C1222 C1223 1.391 . S
C1223 H1211 0.950 . S
C1223 C1219 1.393 . S
C1223 C1222 1.391 . S
H1224 C1232 0.950 . S
H1225 C1237 0.950 . S
H1226 C1234 0.950 . S
H1227 C1236 0.950 . S
H1228 C1238 0.950 . S
H1229 C1240 0.950 . S
H1230 C1242 0.950 . S
H1231 C1243 0.950 . S
C1232 H1224 0.950 . S
C1232 C1233 1.386 1_565 S
C1232 C1234 1.391 . S
C1233 C1232 1.386 1_545 S
C1233 C1237 1.393 . S
C1234 H1226 0.950 . S
C1234 C1232 1.391 . S
C1234 C1235 1.400 1_565 S
C1235 C1234 1.400 1_545 S
C1235 C1236 1.398 . S
C1235 C1241 1.491 1_645 S
C1236 H1227 0.950 . S
C1236 C1235 1.398 . S
C1236 C1237 1.391 . S
C1237 H1225 0.950 . S
C1237 C1233 1.393 . S
C1237 C1236 1.391 . S
C1238 H1228 0.950 . S
C1238 C1239 1.386 1_545 S
C1238 C1240 1.391 . S
C1239 C1238 1.386 1_565 S
C1239 C1243 1.393 . S
C1240 H1229 0.950 . S
C1240 C1238 1.391 . S
C1240 C1241 1.400 1_545 S
C1241 C1235 1.491 1_465 S
C1241 C1240 1.400 1_565 S
C1241 C1242 1.398 . S
C1242 H1230 0.950 . S
C1242 C1241 1.398 . S
C1242 C1243 1.391 . S
C1243 H1231 0.950 . S
C1243 C1239 1.393 . S
C1243 C1242 1.391 . S
H1244 C1252 0.950 . S
H1245 C1257 0.950 . S
H1246 C1254 0.950 . S
H1247 C1256 0.950 . S
H1248 C1258 0.950 . S
H1249 C1260 0.950 . S
H1250 C1262 0.950 . S
H1251 C1263 0.950 . S
C1252 H1244 0.950 . S
C1252 C1253 1.386 . S
C1252 C1254 1.391 . S
C1253 C1252 1.386 . S
C1253 C1257 1.393 . S
C1254 H1246 0.950 . S
C1254 C1252 1.391 . S
C1254 C1255 1.400 . S
C1255 C1254 1.400 . S
C1255 C1256 1.398 . S
C1255 C1261 1.491 . S
C1256 H1247 0.950 . S
C1256 C1255 1.398 . S
C1256 C1257 1.391 . S
C1257 H1245 0.950 . S
C1257 C1253 1.393 . S
C1257 C1256 1.391 . S
C1258 H1248 0.950 . S
C1258 C1259 1.386 . S
C1258 C1260 1.391 . S
C1259 C1258 1.386 . S
C1259 C1263 1.393 . S
C1260 H1249 0.950 . S
C1260 C1258 1.391 . S
C1260 C1261 1.400 . S
C1261 C1255 1.491 . S
C1261 C1260 1.400 . S
C1261 C1262 1.398 . S
C1262 H1250 0.950 . S
C1262 C1261 1.398 . S
C1262 C1263 1.391 . S
C1263 H1251 0.950 . S
C1263 C1259 1.393 . S
C1263 C1262 1.391 . S
H1264 C1272 0.950 . S
H1265 C1277 0.950 . S
H1266 C1274 0.950 . S
H1267 C1276 0.950 . S
H1268 C1278 0.950 . S
H1269 C1280 0.950 . S
H1270 C1282 0.950 . S
H1271 C1283 0.950 . S
C1272 H1264 0.950 . S
C1272 C1273 1.386 . S
C1272 C1274 1.391 . S
C1273 C1272 1.386 . S
C1273 C1277 1.393 . S
C1274 H1266 0.950 . S
C1274 C1272 1.391 . S
C1274 C1275 1.400 . S
C1275 C1274 1.400 . S
C1275 C1276 1.398 . S
C1275 C1281 1.491 . S
C1276 H1267 0.950 . S
C1276 C1275 1.398 . S
C1276 C1277 1.391 . S
C1277 H1265 0.950 . S
C1277 C1273 1.393 . S
C1277 C1276 1.391 . S
C1278 H1268 0.950 . S
C1278 C1279 1.386 . S
C1278 C1280 1.391 . S
C1279 C1278 1.386 . S
C1279 C1283 1.393 . S
C1280 H1269 0.950 . S
C1280 C1278 1.391 . S
C1280 C1281 1.400 . S
C1281 C1275 1.491 . S
C1281 C1280 1.400 . S
C1281 C1282 1.398 . S
C1282 H1270 0.950 . S
C1282 C1281 1.398 . S
C1282 C1283 1.391 . S
C1283 H1271 0.950 . S
C1283 C1279 1.393 . S
C1283 C1282 1.391 . S
H1284 C1292 0.950 . S
H1285 C1297 0.950 . S
H1286 C1294 0.950 . S
H1287 C1296 0.950 . S
H1288 C1298 0.950 . S
H1289 C1300 0.950 . S
H1290 C1302 0.950 . S
H1291 C1303 0.950 . S
C1292 H1284 0.950 . S
C1292 C1293 1.386 . S
C1292 C1294 1.391 . S
C1293 C1292 1.386 . S
C1293 C1297 1.393 . S
C1294 H1286 0.950 . S
C1294 C1292 1.391 . S
C1294 C1295 1.400 . S
C1295 C1294 1.400 . S
C1295 C1296 1.398 . S
C1295 C1301 1.491 . S
C1296 H1287 0.950 . S
C1296 C1295 1.398 . S
C1296 C1297 1.391 . S
C1297 H1285 0.950 . S
C1297 C1293 1.393 . S
C1297 C1296 1.391 . S
C1298 H1288 0.950 . S
C1298 C1299 1.386 . S
C1298 C1300 1.391 . S
C1299 C1298 1.386 . S
C1299 C1303 1.393 . S
C1300 H1289 0.950 . S
C1300 C1298 1.391 . S
C1300 C1301 1.400 . S
C1301 C1295 1.491 . S
C1301 C1300 1.400 . S
C1301 C1302 1.398 . S
C1302 H1290 0.950 . S
C1302 C1301 1.398 . S
C1302 C1303 1.391 . S
C1303 H1291 0.950 . S
C1303 C1299 1.393 . S
C1303 C1302 1.391 . S
H1304 C1312 0.950 . S
H1305 C1317 0.950 . S
H1306 C1314 0.950 . S
H1307 C1316 0.950 . S
H1308 C1318 0.950 . S
H1309 C1320 0.950 . S
H1310 C1322 0.950 . S
H1311 C1323 0.950 . S
C1312 H1304 0.950 . S
C1312 C1313 1.386 . S
C1312 C1314 1.391 . S
C1313 C1312 1.386 . S
C1313 C1317 1.393 . S
C1314 H1306 0.950 . S
C1314 C1312 1.391 . S
C1314 C1315 1.400 . S
C1315 C1314 1.400 . S
C1315 C1316 1.398 . S
C1315 C1321 1.491 1_655 S
C1316 H1307 0.950 . S
C1316 C1315 1.398 . S
C1316 C1317 1.391 . S
C1317 H1305 0.950 . S
C1317 C1313 1.393 . S
C1317 C1316 1.391 . S
C1318 H1308 0.950 . S
C1318 C1319 1.386 . S
C1318 C1320 1.391 . S
C1319 C1318 1.386 . S
C1319 C1323 1.393 . S
C1320 H1309 0.950 . S
C1320 C1318 1.391 . S
C1320 C1321 1.400 . S
C1321 C1315 1.491 1_455 S
C1321 C1320 1.400 . S
C1321 C1322 1.398 . S
C1322 H1310 0.950 . S
C1322 C1321 1.398 . S
C1322 C1323 1.391 . S
C1323 H1311 0.950 . S
C1323 C1319 1.393 . S
C1323 C1322 1.391 . S
H1324 C1332 0.950 . S
H1325 C1337 0.950 . S
H1326 C1334 0.950 . S
H1327 C1336 0.950 . S
H1328 C1338 0.950 . S
H1329 C1340 0.950 . S
H1330 C1342 0.950 . S
H1331 C1343 0.950 . S
C1332 H1324 0.950 . S
C1332 C1333 1.386 . S
C1332 C1334 1.391 . S
C1333 C1332 1.386 . S
C1333 C1337 1.393 . S
C1334 H1326 0.950 . S
C1334 C1332 1.391 . S
C1334 C1335 1.400 . S
C1335 C1334 1.400 . S
C1335 C1336 1.398 . S
C1335 C1341 1.491 1_554 S
C1336 H1327 0.950 . S
C1336 C1335 1.398 . S
C1336 C1337 1.391 . S
C1337 H1325 0.950 . S
C1337 C1333 1.393 . S
C1337 C1336 1.391 . S
C1338 H1328 0.950 . S
C1338 C1339 1.386 . S
C1338 C1340 1.391 . S
C1339 C1338 1.386 . S
C1339 C1343 1.393 . S
C1340 H1329 0.950 . S
C1340 C1338 1.391 . S
C1340 C1341 1.400 . S
C1341 C1335 1.491 1_556 S
C1341 C1340 1.400 . S
C1341 C1342 1.398 . S
C1342 H1330 0.950 . S
C1342 C1341 1.398 . S
C1342 C1343 1.391 . S
C1343 H1331 0.950 . S
C1343 C1339 1.393 . S
C1343 C1342 1.391 . S
H1344 C1352 0.950 . S
H1345 C1357 0.950 . S
H1346 C1354 0.950 . S
H1347 C1356 0.950 . S
H1348 C1358 0.950 . S
H1349 C1360 0.950 . S
H1350 C1362 0.950 1_556 S
H1351 C1363 0.950 . S
C1352 H1344 0.950 . S
C1352 C1353 1.386 . S
C1352 C1354 1.391 . S
C1353 C1352 1.386 . S
C1353 C1357 1.393 1_556 S
C1354 H1346 0.950 . S
C1354 C1352 1.391 . S
C1354 C1355 1.400 1_556 S
C1355 C1354 1.400 1_554 S
C1355 C1356 1.398 . S
C1355 C1361 1.491 . S
C1356 H1347 0.950 . S
C1356 C1355 1.398 . S
C1356 C1357 1.391 . S
C1357 H1345 0.950 . S
C1357 C1353 1.393 1_554 S
C1357 C1356 1.391 . S
C1358 H1348 0.950 . S
C1358 C1359 1.386 . S
C1358 C1360 1.391 . S
C1359 C1358 1.386 . S
C1359 C1363 1.393 . S
C1360 H1349 0.950 . S
C1360 C1358 1.391 . S
C1360 C1361 1.400 . S
C1361 C1355 1.491 . S
C1361 C1360 1.400 . S
C1361 C1362 1.398 . S
C1362 H1350 0.950 1_554 S
C1362 C1361 1.398 . S
C1362 C1363 1.391 . S
C1363 H1351 0.950 . S
C1363 C1359 1.393 . S
C1363 C1362 1.391 . S
H1364 C1372 0.950 . S
H1365 C1377 0.950 . S
H1366 C1374 0.950 . S
H1367 C1376 0.950 . S
H1368 C1378 0.950 . S
H1369 C1380 0.950 . S
H1370 C1382 0.950 . S
H1371 C1383 0.950 . S
C1372 H1364 0.950 . S
C1372 C1373 1.386 . S
C1372 C1374 1.391 1_455 S
C1373 C1372 1.386 . S
C1373 C1377 1.393 . S
C1374 H1366 0.950 . S
C1374 C1372 1.391 1_655 S
C1374 C1375 1.400 . S
C1375 C1374 1.400 . S
C1375 C1376 1.398 1_655 S
C1375 C1381 1.491 . S
C1376 H1367 0.950 . S
C1376 C1375 1.398 1_455 S
C1376 C1377 1.391 . S
C1377 H1365 0.950 . S
C1377 C1373 1.393 . S
C1377 C1376 1.391 . S
C1378 H1368 0.950 . S
C1378 C1379 1.386 . S
C1378 C1380 1.391 . S
C1379 C1378 1.386 . S
C1379 C1383 1.393 . S
C1380 H1369 0.950 . S
C1380 C1378 1.391 . S
C1380 C1381 1.400 . S
C1381 C1375 1.491 . S
C1381 C1380 1.400 . S
C1381 C1382 1.398 . S
C1382 H1370 0.950 . S
C1382 C1381 1.398 . S
C1382 C1383 1.391 . S
C1383 H1371 0.950 . S
C1383 C1379 1.393 . S
C1383 C1382 1.391 . S
H1384 C1392 0.950 . S
H1385 C1397 0.950 . S
H1386 C1394 0.950 . S
H1387 C1396 0.950 . S
H1388 C1398 0.950 . S
H1389 C1400 0.950 . S
H1390 C1402 0.950 . S
H1391 C1403 0.950 . S
C1392 H1384 0.950 . S
C1392 C1393 1.386 . S
C1392 C1394 1.391 . S
C1393 C1392 1.386 . S
C1393 C1397 1.393 . S
C1394 H1386 0.950 . S
C1394 C1392 1.391 . S
C1394 C1395 1.400 . S
C1395 C1394 1.400 . S
C1395 C1396 1.398 . S
C1395 C1401 1.491 . S
C1396 H1387 0.950 . S
C1396 C1395 1.398 . S
C1396 C1397 1.391 . S
C1397 H1385 0.950 . S
C1397 C1393 1.393 . S
C1397 C1396 1.391 . S
C1398 H1388 0.950 . S
C1398 C1399 1.386 . S
C1398 C1400 1.391 . S
C1399 C1398 1.386 . S
C1399 C1403 1.393 . S
C1400 H1389 0.950 . S
C1400 C1398 1.391 . S
C1400 C1401 1.400 . S
C1401 C1395 1.491 . S
C1401 C1400 1.400 . S
C1401 C1402 1.398 . S
C1402 H1390 0.950 . S
C1402 C1401 1.398 . S
C1402 C1403 1.391 . S
C1403 H1391 0.950 . S
C1403 C1399 1.393 . S
C1403 C1402 1.391 . S
H1404 C1412 0.950 . S
H1405 C1417 0.950 . S
H1406 C1414 0.950 . S
H1407 C1416 0.950 . S
H1408 C1418 0.950 . S
H1409 C1420 0.950 . S
H1410 C1422 0.950 . S
H1411 C1423 0.950 . S
C1412 H1404 0.950 . S
C1412 C1413 1.386 . S
C1412 C1414 1.391 . S
C1413 C1412 1.386 . S
C1413 C1417 1.393 . S
C1414 H1406 0.950 . S
C1414 C1412 1.391 . S
C1414 C1415 1.400 . S
C1415 C1414 1.400 . S
C1415 C1416 1.398 . S
C1415 C1421 1.491 . S
C1416 H1407 0.950 . S
C1416 C1415 1.398 . S
C1416 C1417 1.391 . S
C1417 H1405 0.950 . S
C1417 C1413 1.393 . S
C1417 C1416 1.391 . S
C1418 H1408 0.950 . S
C1418 C1419 1.386 . S
C1418 C1420 1.391 . S
C1419 C1418 1.386 . S
C1419 C1423 1.393 . S
C1420 H1409 0.950 . S
C1420 C1418 1.391 . S
C1420 C1421 1.400 . S
C1421 C1415 1.491 . S
C1421 C1420 1.400 . S
C1421 C1422 1.398 . S
C1422 H1410 0.950 . S
C1422 C1421 1.398 . S
C1422 C1423 1.391 . S
C1423 H1411 0.950 . S
C1423 C1419 1.393 . S
C1423 C1422 1.391 . S
H1424 C1432 0.950 . S
H1425 C1437 0.950 . S
H1426 C1434 0.950 1_554 S
H1427 C1436 0.950 . S
H1428 C1438 0.950 . S
H1429 C1440 0.950 . S
H1430 C1442 0.950 . S
H1431 C1443 0.950 . S
C1432 H1424 0.950 . S
C1432 C1433 1.386 . S
C1432 C1434 1.391 . S
C1433 C1432 1.386 . S
C1433 C1437 1.393 . S
C1434 H1426 0.950 1_556 S
C1434 C1432 1.391 . S
C1434 C1435 1.400 . S
C1435 C1434 1.400 . S
C1435 C1436 1.398 . S
C1435 C1441 1.491 . S
C1436 H1427 0.950 . S
C1436 C1435 1.398 . S
C1436 C1437 1.391 . S
C1437 H1425 0.950 . S
C1437 C1433 1.393 . S
C1437 C1436 1.391 . S
C1438 H1428 0.950 . S
C1438 C1439 1.386 1_556 S
C1438 C1440 1.391 . S
C1439 C1438 1.386 1_554 S
C1439 C1443 1.393 . S
C1440 H1429 0.950 . S
C1440 C1438 1.391 . S
C1440 C1441 1.400 . S
C1441 C1435 1.491 . S
C1441 C1440 1.400 . S
C1441 C1442 1.398 1_556 S
C1442 H1430 0.950 . S
C1442 C1441 1.398 1_554 S
C1442 C1443 1.391 . S
C1443 H1431 0.950 . S
C1443 C1439 1.393 . S
C1443 C1442 1.391 . S
H1444 C1452 0.950 . S
H1445 C1457 0.950 . S
H1446 C1454 0.950 . S
H1447 C1456 0.950 . S
H1448 C1458 0.950 . S
H1449 C1460 0.950 . S
H1450 C1462 0.950 . S
H1451 C1463 0.950 . S
C1452 H1444 0.950 . S
C1452 C1453 1.386 . S
C1452 C1454 1.391 . S
C1453 C1452 1.386 . S
C1453 C1457 1.393 . S
C1454 H1446 0.950 . S
C1454 C1452 1.391 . S
C1454 C1455 1.400 . S
C1455 C1454 1.400 . S
C1455 C1456 1.398 . S
C1455 C1461 1.491 . S
C1456 H1447 0.950 . S
C1456 C1455 1.398 . S
C1456 C1457 1.391 . S
C1457 H1445 0.950 . S
C1457 C1453 1.393 . S
C1457 C1456 1.391 . S
C1458 H1448 0.950 . S
C1458 C1459 1.386 . S
C1458 C1460 1.391 1_655 S
C1459 C1458 1.386 . S
C1459 C1463 1.393 . S
C1460 H1449 0.950 . S
C1460 C1458 1.391 1_455 S
C1460 C1461 1.400 . S
C1461 C1455 1.491 . S
C1461 C1460 1.400 . S
C1461 C1462 1.398 1_455 S
C1462 H1450 0.950 . S
C1462 C1461 1.398 1_655 S
C1462 C1463 1.391 . S
C1463 H1451 0.950 . S
C1463 C1459 1.393 . S
C1463 C1462 1.391 . S
H1464 C1472 0.950 . S
H1465 C1477 0.950 . S
H1466 C1474 0.950 . S
H1467 C1476 0.950 . S
H1468 C1478 0.950 . S
H1469 C1480 0.950 . S
H1470 C1482 0.950 . S
H1471 C1483 0.950 . S
C1472 H1464 0.950 . S
C1472 C1473 1.386 . S
C1472 C1474 1.391 . S
C1473 C1472 1.386 . S
C1473 C1477 1.393 . S
C1474 H1466 0.950 . S
C1474 C1472 1.391 . S
C1474 C1475 1.400 . S
C1475 C1474 1.400 . S
C1475 C1476 1.398 . S
C1475 C1481 1.491 . S
C1476 H1467 0.950 . S
C1476 C1475 1.398 . S
C1476 C1477 1.391 . S
C1477 H1465 0.950 . S
C1477 C1473 1.393 . S
C1477 C1476 1.391 . S
C1478 H1468 0.950 . S
C1478 C1479 1.386 . S
C1478 C1480 1.391 . S
C1479 C1478 1.386 . S
C1479 C1483 1.393 . S
C1480 H1469 0.950 . S
C1480 C1478 1.391 . S
C1480 C1481 1.400 . S
C1481 C1475 1.491 . S
C1481 C1480 1.400 . S
C1481 C1482 1.398 . S
C1482 H1470 0.950 . S
C1482 C1481 1.398 . S
C1482 C1483 1.391 . S
C1483 H1471 0.950 . S
C1483 C1479 1.393 . S
C1483 C1482 1.391 . S
H1484 C1492 0.950 . S
H1485 C1497 0.950 . S
H1486 C1494 0.950 . S
H1487 C1496 0.950 . S
H1488 C1498 0.950 . S
H1489 C1500 0.950 . S
H1490 C1502 0.950 . S
H1491 C1503 0.950 . S
C1492 H1484 0.950 . S
C1492 C1493 1.386 . S
C1492 C1494 1.391 . S
C1493 C1492 1.386 . S
C1493 C1497 1.393 . S
C1494 H1486 0.950 . S
C1494 C1492 1.391 . S
C1494 C1495 1.400 . S
C1495 C1494 1.400 . S
C1495 C1496 1.398 . S
C1495 C1501 1.491 . S
C1496 H1487 0.950 . S
C1496 C1495 1.398 . S
C1496 C1497 1.391 . S
C1497 H1485 0.950 . S
C1497 C1493 1.393 . S
C1497 C1496 1.391 . S
C1498 H1488 0.950 . S
C1498 C1499 1.386 . S
C1498 C1500 1.391 . S
C1499 C1498 1.386 . S
C1499 C1503 1.393 . S
C1500 H1489 0.950 . S
C1500 C1498 1.391 . S
C1500 C1501 1.400 . S
C1501 C1495 1.491 . S
C1501 C1500 1.400 . S
C1501 C1502 1.398 . S
C1502 H1490 0.950 . S
C1502 C1501 1.398 . S
C1502 C1503 1.391 . S
C1503 H1491 0.950 . S
C1503 C1499 1.393 . S
C1503 C1502 1.391 . S
H1504 C1512 0.950 . S
H1505 C1517 0.950 . S
H1506 C1514 0.950 . S
H1507 C1516 0.950 . S
H1508 C1518 0.950 . S
H1509 C1520 0.950 . S
H1510 C1522 0.950 . S
H1511 C1523 0.950 . S
C1512 H1504 0.950 . S
C1512 C1513 1.386 . S
C1512 C1514 1.391 . S
C1513 C1512 1.386 . S
C1513 C1517 1.393 . S
C1514 H1506 0.950 . S
C1514 C1512 1.391 . S
C1514 C1515 1.400 . S
C1515 C1514 1.400 . S
C1515 C1516 1.398 . S
C1515 C1521 1.491 . S
C1516 H1507 0.950 . S
C1516 C1515 1.398 . S
C1516 C1517 1.391 . S
C1517 H1505 0.950 . S
C1517 C1513 1.393 . S
C1517 C1516 1.391 . S
C1518 H1508 0.950 . S
C1518 C1519 1.386 . S
C1518 C1520 1.391 . S
C1519 C1518 1.386 . S
C1519 C1523 1.393 . S
C1520 H1509 0.950 . S
C1520 C1518 1.391 . S
C1520 C1521 1.400 . S
C1521 C1515 1.491 . S
C1521 C1520 1.400 . S
C1521 C1522 1.398 . S
C1522 H1510 0.950 . S
C1522 C1521 1.398 . S
C1522 C1523 1.391 . S
C1523 H1511 0.950 . S
C1523 C1519 1.393 . S
C1523 C1522 1.391 . S
H1524 C1532 0.950 . S
H1525 C1537 0.950 . S
H1526 C1534 0.950 . S
H1527 C1536 0.950 . S
H1528 C1538 0.950 . S
H1529 C1540 0.950 . S
H1530 C1542 0.950 . S
H1531 C1543 0.950 . S
C1532 H1524 0.950 . S
C1532 C1533 1.386 . S
C1532 C1534 1.391 . S
C1533 C1532 1.386 . S
C1533 C1537 1.393 1_545 S
C1534 H1526 0.950 . S
C1534 C1532 1.391 . S
C1534 C1535 1.400 . S
C1535 C1534 1.400 . S
C1535 C1536 1.398 1_545 S
C1535 C1541 1.491 . S
C1536 H1527 0.950 . S
C1536 C1535 1.398 1_565 S
C1536 C1537 1.391 . S
C1537 H1525 0.950 . S
C1537 C1533 1.393 1_565 S
C1537 C1536 1.391 . S
C1538 H1528 0.950 . S
C1538 C1539 1.386 1_565 S
C1538 C1540 1.391 . S
C1539 C1538 1.386 1_545 S
C1539 C1543 1.393 . S
C1540 H1529 0.950 . S
C1540 C1538 1.391 . S
C1540 C1541 1.400 1_565 S
C1541 C1535 1.491 . S
C1541 C1540 1.400 1_545 S
C1541 C1542 1.398 . S
C1542 H1530 0.950 . S
C1542 C1541 1.398 . S
C1542 C1543 1.391 . S
C1543 H1531 0.950 . S
C1543 C1539 1.393 . S
C1543 C1542 1.391 . S
H1544 C1552 0.950 . S
H1545 C1557 0.950 . S
H1546 C1554 0.950 . S
H1547 C1556 0.950 . S
H1548 C1558 0.950 . S
H1549 C1560 0.950 . S
H1550 C1562 0.965 . S
H1551 C1563 0.950 . S
C1552 H1544 0.950 . S
C1552 C1553 1.386 . S
C1552 C1554 1.391 . S
C1553 C1552 1.386 . S
C1553 C1557 1.393 . S
C1554 H1546 0.950 . S
C1554 C1552 1.391 . S
C1554 C1555 1.400 . S
C1555 C1554 1.400 . S
C1555 C1556 1.398 . S
C1555 C1561 1.491 . S
C1556 H1547 0.950 . S
C1556 C1555 1.398 . S
C1556 C1557 1.391 . S
C1557 H1545 0.950 . S
C1557 C1553 1.393 . S
C1557 C1556 1.391 . S
C1558 H1548 0.950 . S
C1558 C1559 1.386 . S
C1558 C1560 1.391 . S
C1559 C1558 1.386 . S
C1559 C1563 1.393 . S
C1560 H1549 0.950 . S
C1560 C1558 1.391 . S
C1560 C1561 1.400 1_556 S
C1561 C1555 1.491 . S
C1561 C1560 1.400 1_554 S
C1561 C1562 1.402 . S
C1562 H1550 0.965 . S
C1562 C1561 1.402 . S
C1562 C1563 1.374 1_554 S
C1563 H1551 0.950 . S
C1563 C1559 1.393 . S
C1563 C1562 1.374 1_556 S
H1564 C1572 0.950 . S
H1565 C1577 0.950 . S
H1566 C1574 0.950 . S
H1567 C1576 0.950 . S
H1568 C1578 0.943 1_545 S
H1569 C1580 0.950 . S
H1570 C1582 0.950 . S
H1571 C1583 0.950 . S
C1572 H1564 0.950 . S
C1572 C1573 1.390 . S
C1572 C1574 1.391 . S
C1573 C1572 1.390 . S
C1573 C1577 1.389 1_565 S
C1574 H1566 0.950 . S
C1574 C1572 1.391 . S
C1574 C1575 1.400 . S
C1575 C1574 1.400 . S
C1575 C1576 1.398 1_565 S
C1575 C1581 1.491 . S
C1576 H1567 0.950 . S
C1576 C1575 1.398 1_545 S
C1576 C1577 1.391 . S
C1577 H1565 0.950 . S
C1577 C1573 1.389 1_545 S
C1577 C1576 1.391 . S
C1578 H1568 0.943 1_565 S
C1578 C1579 1.394 . S
C1578 C1580 1.390 1_665 S
C1579 C1578 1.394 . S
C1579 C1583 1.393 . S
C1580 H1569 0.950 . S
C1580 C1578 1.390 1_445 S
C1580 C1581 1.400 1_545 S
C1581 C1575 1.491 . S
C1581 C1580 1.400 1_565 S
C1581 C1582 1.398 1_455 S
C1582 H1570 0.950 . S
C1582 C1581 1.398 1_655 S
C1582 C1583 1.391 . S
C1583 H1571 0.950 . S
C1583 C1579 1.393 . S
C1583 C1582 1.391 . S
H1584 C1592 0.950 . S
H1585 C1597 0.950 . S
H1586 C1594 0.950 . S
H1587 C1596 0.950 . S
H1588 C1598 0.950 . S
H1589 C1600 0.950 . S
H1590 C1602 0.950 . S
H1591 C1603 0.950 . S
C1592 H1584 0.950 . S
C1592 C1593 1.386 . S
C1592 C1594 1.391 . S
C1593 C1592 1.386 . S
C1593 C1597 1.393 . S
C1594 H1586 0.950 . S
C1594 C1592 1.391 . S
C1594 C1595 1.400 . S
C1595 C1594 1.400 . S
C1595 C1596 1.398 . S
C1595 C1601 1.491 . S
C1596 H1587 0.950 . S
C1596 C1595 1.398 . S
C1596 C1597 1.391 . S
C1597 H1585 0.950 . S
C1597 C1593 1.393 . S
C1597 C1596 1.391 . S
C1598 H1588 0.950 . S
C1598 C1599 1.386 . S
C1598 C1600 1.391 . S
C1599 C1598 1.386 . S
C1599 C1603 1.393 . S
C1600 H1589 0.950 . S
C1600 C1598 1.391 . S
C1600 C1601 1.400 . S
C1601 C1595 1.491 . S
C1601 C1600 1.400 . S
C1601 C1602 1.398 . S
C1602 H1590 0.950 . S
C1602 C1601 1.398 . S
C1602 C1603 1.391 . S
C1603 H1591 0.950 . S
C1603 C1599 1.393 . S
C1603 C1602 1.391 . S
H1604 C1612 0.950 . S
H1605 C1617 0.950 . S
H1606 C1614 0.950 . S
H1607 C1616 0.950 . S
H1608 C1618 0.950 . S
H1609 C1620 0.950 . S
H1610 C1622 0.950 . S
H1611 C1623 0.950 . S
C1612 H1604 0.950 . S
C1612 C1613 1.384 1_545 S
C1612 C1614 1.391 . S
C1613 C1612 1.384 1_565 S
C1613 C1617 1.396 . S
C1614 H1606 0.950 . S
C1614 C1612 1.391 . S
C1614 C1615 1.400 1_545 S
C1615 C1614 1.400 1_565 S
C1615 C1616 1.398 . S
C1615 C1621 1.491 . S
C1616 H1607 0.950 . S
C1616 C1615 1.398 . S
C1616 C1617 1.391 . S
C1617 H1605 0.950 . S
C1617 C1613 1.396 . S
C1617 C1616 1.391 . S
C1618 H1608 0.950 . S
C1618 C1619 1.386 . S
C1618 C1620 1.391 . S
C1619 C1618 1.386 . S
C1619 C1623 1.393 . S
C1620 H1609 0.950 . S
C1620 C1618 1.391 . S
C1620 C1621 1.400 . S
C1621 C1615 1.491 . S
C1621 C1620 1.400 . S
C1621 C1622 1.398 . S
C1622 H1610 0.950 . S
C1622 C1621 1.398 . S
C1622 C1623 1.391 . S
C1623 H1611 0.950 . S
C1623 C1619 1.393 . S
C1623 C1622 1.391 . S
H1624 C1632 0.950 . S
H1625 C1637 0.950 . S
H1626 C1634 0.950 . S
H1627 C1636 0.950 . S
H1628 C1638 0.950 . S
H1629 C1640 0.950 . S
H1630 C1642 0.950 . S
H1631 C1643 0.950 . S
C1632 H1624 0.950 . S
C1632 C1633 1.386 . S
C1632 C1634 1.391 . S
C1633 C1632 1.386 . S
C1633 C1637 1.393 . S
C1634 H1626 0.950 . S
C1634 C1632 1.391 . S
C1634 C1635 1.400 . S
C1635 C1634 1.400 . S
C1635 C1636 1.398 . S
C1635 C1641 1.491 . S
C1636 H1627 0.950 . S
C1636 C1635 1.398 . S
C1636 C1637 1.391 . S
C1637 H1625 0.950 . S
C1637 C1633 1.393 . S
C1637 C1636 1.391 . S
C1638 H1628 0.950 . S
C1638 C1639 1.386 . S
C1638 C1640 1.391 . S
C1639 C1638 1.386 . S
C1639 C1643 1.393 . S
C1640 H1629 0.950 . S
C1640 C1638 1.391 . S
C1640 C1641 1.400 1_554 S
C1641 C1635 1.491 . S
C1641 C1640 1.400 1_556 S
C1641 C1642 1.398 . S
C1642 H1630 0.950 . S
C1642 C1641 1.398 . S
C1642 C1643 1.391 1_556 S
C1643 H1631 0.950 . S
C1643 C1639 1.393 . S
C1643 C1642 1.391 1_554 S
H1644 C1652 0.950 . S
H1645 C1657 0.950 . S
H1646 C1654 0.950 . S
H1647 C1656 0.950 . S
H1648 C1658 0.950 . S
H1649 C1660 0.950 . S
H1650 C1662 0.950 . S
H1651 C1663 0.950 . S
C1652 H1644 0.950 . S
C1652 C1653 1.386 . S
C1652 C1654 1.391 . S
C1653 C1652 1.386 . S
C1653 C1657 1.393 . S
C1654 H1646 0.950 . S
C1654 C1652 1.391 . S
C1654 C1655 1.400 . S
C1655 C1654 1.400 . S
C1655 C1656 1.398 . S
C1655 C1661 1.491 . S
C1656 H1647 0.950 . S
C1656 C1655 1.398 . S
C1656 C1657 1.391 . S
C1657 H1645 0.950 . S
C1657 C1653 1.393 . S
C1657 C1656 1.391 . S
C1658 H1648 0.950 . S
C1658 C1659 1.386 . S
C1658 C1660 1.391 1_455 S
C1659 C1658 1.386 . S
C1659 C1663 1.393 . S
C1660 H1649 0.950 . S
C1660 C1658 1.391 1_655 S
C1660 C1661 1.400 . S
C1661 C1655 1.491 . S
C1661 C1660 1.400 . S
C1661 C1662 1.398 1_655 S
C1662 H1650 0.950 . S
C1662 C1661 1.398 1_455 S
C1662 C1663 1.391 . S
C1663 H1651 0.950 . S
C1663 C1659 1.393 . S
C1663 C1662 1.391 . S
C553 C334 1.083 . S
C559 C6 1.079 . S
C573 C346 1.109 . S
C579 C40 1.108 . S
C593 C402 1.064 . S
C599 C96 1.065 . S
C613 C300 1.097 . S
C619 C108 1.089 . S
C633 C142 1.082 . S
C639 C470 1.082 . S
C653 C482 1.094 . S
C659 C176 1.087 . S
C673 C516 1.065 . S
C679 C210 1.063 . S
C693 C244 1.092 . S
C699 C414 1.102 . S
C713 C62 1.136 . S
C719 C278 1.128 . S
C733 C74 1.135 . S
C739 C312 1.137 . S
C753 C368 1.131 . S
C759 C130 1.138 . S
C773 C28 1.121 . S
C779 C380 1.121 . S
C793 C198 1.121 . S
C799 C436 1.119 . S
C813 C448 1.127 . S
C819 C232 1.135 . S
C833 C504 1.118 . S
C839 C266 1.125 . S
C853 C164 1.121 . S
C859 C538 1.124 . S
C873 C253 1.262 . S
C879 C3 1.189 . S
C893 C37 1.233 . S
C899 C430 1.288 . S
C913 C69 1.223 . S
C919 C185 1.276 . S
C933 C498 1.275 . S
C939 C105 1.203 . S
C953 C117 1.268 . S
C959 C139 1.201 . S
C973 C287 1.282 . S
C979 C173 1.221 . S
C993 C49 1.271 . S
C999 C207 1.210 . S
C1013 C362 1.276 . S
C1019 C241 1.203 . S
C1033 C275 1.289 . S
C1039 C532 1.372 . S
C1053 C309 1.242 . S
C1059 C151 1.293 . S
C1073 C457 1.383 . S
C1079 C341 1.325 . S
C1093 C219 1.287 . S
C1099 C377 1.225 . S
C1113 C409 1.324 . S
C1119 C389 1.385 . S
C1133 C445 1.220 . S
C1139 C15 1.285 . S
C1153 C477 1.323 . S
C1159 C321 1.385 . S
C1173 C511 1.245 . S
C1179 C90 1.294 . S
C1193 C158 0.558 . S
C1199 C22 0.558 . S
C1213 C56 0.655 . S
C1219 C464 0.652 . S
C1233 C226 0.577 . S
C1239 C83 0.577 . S
C1253 C525 0.584 . S
C1259 C124 0.588 . S
C1273 C328 0.617 . S
C1279 C192 0.620 . S
C1293 C260 0.658 . S
C1299 C396 0.655 . S
C1313 C294 0.647 . S
C1319 C423 0.647 . S
C1333 C355 0.550 . S
C1339 C491 0.550 . S
C1353 C479 2.493 . S
C1359 C17 2.598 . S
C1373 C239 2.528 . S
C1379 C51 2.626 . S
C1393 C85 2.598 . S
C1399 C411 2.504 . S
C1413 C171 2.521 . S
C1419 C119 2.631 . S
C1433 C153 2.601 . S
C1439 C343 2.500 . S
C1453 C187 2.631 . S
C1459 C103 2.520 . S
C1473 C221 2.605 . S
C1479 C273 2.487 . S
C1493 C35 2.519 . S
C1499 C255 2.634 . S
C1513 C289 2.661 . S
C1519 C205 2.580 . S
C1533 C513 2.546 . S
C1539 C323 2.652 1_545 S
C1553 C357 2.672 . S
C1559 C137 2.566 . S
C1573 C391 2.649 1_565 S
C1579 C443 2.552 . S
C1593 C71 2.581 . S
C1599 C425 2.662 . S
C1613 C459 2.650 1_565 S
C1619 C375 2.551 . S
C1633 C493 2.670 . S
C1639 C1 2.563 . S
C1653 C527 2.645 1_545 S
C1659 C307 2.546 . S
