# Generated by pormake.
# Topology wiv, (6)-cn, num edge types: 1
# Building blocks:
#     Node 0, Type 0, BuildingBlock: MIFKUJ_clean_sbu_0, # of connection points: 6
#     Node 1, Type 0, BuildingBlock: MIFKUJ_clean_sbu_0, # of connection points: 6
#     Node 2, Type 0, BuildingBlock: MIFKUJ_clean_sbu_0, # of connection points: 6
#     Node 3, Type 0, BuildingBlock: MIFKUJ_clean_sbu_0, # of connection points: 6
#     Node 4, Type 0, BuildingBlock: MIFKUJ_clean_sbu_0, # of connection points: 6
#     Node 5, Type 0, BuildingBlock: MIFKUJ_clean_sbu_0, # of connection points: 6
#     Node 6, Type 0, BuildingBlock: MIFKUJ_clean_sbu_0, # of connection points: 6
#     Node 7, Type 0, BuildingBlock: MIFKUJ_clean_sbu_0, # of connection points: 6
#     Node 8, Type 0, BuildingBlock: MIFKUJ_clean_sbu_0, # of connection points: 6
#     Node 9, Type 0, BuildingBlock: MIFKUJ_clean_sbu_0, # of connection points: 6
#     Node 10, Type 0, BuildingBlock: MIFKUJ_clean_sbu_0, # of connection points: 6
#     Node 11, Type 0, BuildingBlock: MIFKUJ_clean_sbu_0, # of connection points: 6
#     Node 12, Type 0, BuildingBlock: MIFKUJ_clean_sbu_0, # of connection points: 6
#     Node 13, Type 0, BuildingBlock: MIFKUJ_clean_sbu_0, # of connection points: 6
#     Node 14, Type 0, BuildingBlock: MIFKUJ_clean_sbu_0, # of connection points: 6
#     Node 15, Type 0, BuildingBlock: MIFKUJ_clean_sbu_0, # of connection points: 6
#     Edge 16, Type (0, 0), BuildingBlock: KIFKEQ_clean_linker_1, # of connection points: 2
#     Edge 17, Type (0, 0), BuildingBlock: KIFKEQ_clean_linker_1, # of connection points: 2
#     Edge 18, Type (0, 0), BuildingBlock: KIFKEQ_clean_linker_1, # of connection points: 2
#     Edge 19, Type (0, 0), BuildingBlock: KIFKEQ_clean_linker_1, # of connection points: 2
#     Edge 20, Type (0, 0), BuildingBlock: KIFKEQ_clean_linker_1, # of connection points: 2
#     Edge 21, Type (0, 0), BuildingBlock: KIFKEQ_clean_linker_1, # of connection points: 2
#     Edge 22, Type (0, 0), BuildingBlock: KIFKEQ_clean_linker_1, # of connection points: 2
#     Edge 23, Type (0, 0), BuildingBlock: KIFKEQ_clean_linker_1, # of connection points: 2
#     Edge 24, Type (0, 0), BuildingBlock: KIFKEQ_clean_linker_1, # of connection points: 2
#     Edge 25, Type (0, 0), BuildingBlock: KIFKEQ_clean_linker_1, # of connection points: 2
#     Edge 26, Type (0, 0), BuildingBlock: KIFKEQ_clean_linker_1, # of connection points: 2
#     Edge 27, Type (0, 0), BuildingBlock: KIFKEQ_clean_linker_1, # of connection points: 2
#     Edge 28, Type (0, 0), BuildingBlock: KIFKEQ_clean_linker_1, # of connection points: 2
#     Edge 29, Type (0, 0), BuildingBlock: KIFKEQ_clean_linker_1, # of connection points: 2
#     Edge 30, Type (0, 0), BuildingBlock: KIFKEQ_clean_linker_1, # of connection points: 2
#     Edge 31, Type (0, 0), BuildingBlock: KIFKEQ_clean_linker_1, # of connection points: 2
#     Edge 32, Type (0, 0), BuildingBlock: KIFKEQ_clean_linker_1, # of connection points: 2
#     Edge 33, Type (0, 0), BuildingBlock: KIFKEQ_clean_linker_1, # of connection points: 2
#     Edge 34, Type (0, 0), BuildingBlock: KIFKEQ_clean_linker_1, # of connection points: 2
#     Edge 35, Type (0, 0), BuildingBlock: KIFKEQ_clean_linker_1, # of connection points: 2
#     Edge 36, Type (0, 0), BuildingBlock: KIFKEQ_clean_linker_1, # of connection points: 2
#     Edge 37, Type (0, 0), BuildingBlock: KIFKEQ_clean_linker_1, # of connection points: 2
#     Edge 38, Type (0, 0), BuildingBlock: KIFKEQ_clean_linker_1, # of connection points: 2
#     Edge 39, Type (0, 0), BuildingBlock: KIFKEQ_clean_linker_1, # of connection points: 2
#     Edge 40, Type (0, 0), BuildingBlock: KIFKEQ_clean_linker_1, # of connection points: 2
#     Edge 41, Type (0, 0), BuildingBlock: KIFKEQ_clean_linker_1, # of connection points: 2
#     Edge 42, Type (0, 0), BuildingBlock: KIFKEQ_clean_linker_1, # of connection points: 2
#     Edge 43, Type (0, 0), BuildingBlock: KIFKEQ_clean_linker_1, # of connection points: 2
#     Edge 44, Type (0, 0), BuildingBlock: KIFKEQ_clean_linker_1, # of connection points: 2
#     Edge 45, Type (0, 0), BuildingBlock: KIFKEQ_clean_linker_1, # of connection points: 2
#     Edge 46, Type (0, 0), BuildingBlock: KIFKEQ_clean_linker_1, # of connection points: 2
#     Edge 47, Type (0, 0), BuildingBlock: KIFKEQ_clean_linker_1, # of connection points: 2
#     Edge 48, Type (0, 0), BuildingBlock: KIFKEQ_clean_linker_1, # of connection points: 2
#     Edge 49, Type (0, 0), BuildingBlock: KIFKEQ_clean_linker_1, # of connection points: 2
#     Edge 50, Type (0, 0), BuildingBlock: KIFKEQ_clean_linker_1, # of connection points: 2
#     Edge 51, Type (0, 0), BuildingBlock: KIFKEQ_clean_linker_1, # of connection points: 2
#     Edge 52, Type (0, 0), BuildingBlock: KIFKEQ_clean_linker_1, # of connection points: 2
#     Edge 53, Type (0, 0), BuildingBlock: KIFKEQ_clean_linker_1, # of connection points: 2
#     Edge 54, Type (0, 0), BuildingBlock: KIFKEQ_clean_linker_1, # of connection points: 2
#     Edge 55, Type (0, 0), BuildingBlock: KIFKEQ_clean_linker_1, # of connection points: 2
#     Edge 56, Type (0, 0), BuildingBlock: KIFKEQ_clean_linker_1, # of connection points: 2
#     Edge 57, Type (0, 0), BuildingBlock: KIFKEQ_clean_linker_1, # of connection points: 2
#     Edge 58, Type (0, 0), BuildingBlock: KIFKEQ_clean_linker_1, # of connection points: 2
#     Edge 59, Type (0, 0), BuildingBlock: KIFKEQ_clean_linker_1, # of connection points: 2
#     Edge 60, Type (0, 0), BuildingBlock: KIFKEQ_clean_linker_1, # of connection points: 2
#     Edge 61, Type (0, 0), BuildingBlock: KIFKEQ_clean_linker_1, # of connection points: 2
#     Edge 62, Type (0, 0), BuildingBlock: KIFKEQ_clean_linker_1, # of connection points: 2
#     Edge 63, Type (0, 0), BuildingBlock: KIFKEQ_clean_linker_1, # of connection points: 2
# Relax obj value: 0.041
# Max RMSD: 0.118
# Mean RMSD: 0.118
data_MOF--net-wiv--node1-MIFKUJ_clean_sbu_0--edge1-KIFKEQ_clean_linker_1
_symmetry_space_group_name_H-M    P1
_symmetry_Int_Tables_number       1
_symmetry_cell_setting            triclinic
loop_
_symmetry_equiv_pos_as_xyz
'x, y, z'
_cell_length_a     60.315853
_cell_length_b     60.293956
_cell_length_c     18.550065
_cell_angle_alpha  90.004973
_cell_angle_beta   90.011697
_cell_angle_gamma 89.997138
loop_
_atom_site_label
_atom_site_type_symbol
_atom_site_fract_x
_atom_site_fract_y
_atom_site_fract_z
_atom_type_partial_charge
Zn0 Zn 0.37474 0.11597 0.09203 0.0
Zn1 Zn 0.37145 0.12111 0.25795 0.0
C2 C 0.33312 0.10105 0.04319 0.0
O3 O 0.34589 0.08427 0.02526 0.0
C4 C 0.41607 0.13634 0.26691 0.0
O5 O 0.40574 0.15336 0.29572 0.0
O6 O 0.38518 0.11338 0.989 0.0
O7 O 0.3849 0.14611 0.12779 0.0
O8 O 0.35911 0.14853 0.21106 0.0
C9 C 0.37967 0.12912 0.94697 0.0
O10 O 0.36957 0.14653 0.97413 0.0
O11 O 0.34151 0.117 0.07881 0.0
C12 C 0.37993 0.11155 0.40517 0.0
O13 O 0.39302 0.09704 0.37388 0.0
O14 O 0.36789 0.12401 0.36594 0.0
O15 O 0.3582 0.09192 0.22993 0.0
O16 O 0.38289 0.08734 0.14405 0.0
O17 O 0.4047 0.12015 0.24314 0.0
C18 C 0.37171 0.15783 0.16532 0.0
C19 C 0.36991 0.07914 0.19113 0.0
Zn20 Zn 0.13949 0.62742 0.75052 0.0
Zn21 Zn 0.13225 0.6258 0.91551 0.0
C22 C 0.15415 0.58261 0.74244 0.0
O23 O 0.17102 0.59274 0.71206 0.0
C24 C 0.11421 0.66689 0.95744 0.0
O25 O 0.09784 0.65328 0.97256 0.0
O26 O 0.14309 0.63017 0.64301 0.0
O27 O 0.11043 0.6412 0.77522 0.0
O28 O 0.10439 0.61658 0.86025 0.0
C29 C 0.12737 0.62351 0.60275 0.0
O30 O 0.10906 0.61609 0.63263 0.0
O31 O 0.13833 0.59425 0.76751 0.0
C32 C 0.1435 0.62516 0.06071 0.0
O33 O 0.15869 0.63808 0.03214 0.0
O34 O 0.12942 0.61597 0.01923 0.0
O35 O 0.16346 0.61671 0.88545 0.0
O36 O 0.16623 0.64078 0.79716 0.0
O37 O 0.13134 0.6592 0.92616 0.0
C38 C 0.09698 0.6297 0.81212 0.0
C39 C 0.17523 0.62969 0.84732 0.0
Zn40 Zn 0.62579 0.88248 0.07892 0.0
Zn41 Zn 0.62742 0.87706 0.24465 0.0
C42 C 0.66896 0.89943 0.0489 0.0
O43 O 0.65736 0.91766 0.04001 0.0
C44 C 0.58312 0.86071 0.25362 0.0
O45 O 0.5937 0.84368 0.2814 0.0
O46 O 0.61676 0.88451 0.97465 0.0
O47 O 0.61519 0.8524 0.11305 0.0
O48 O 0.64096 0.85041 0.1962 0.0
C49 C 0.62625 0.87053 0.93359 0.0
O50 O 0.63933 0.85553 0.96246 0.0
O51 O 0.65925 0.88203 0.07133 0.0
C52 C 0.62328 0.88815 0.39253 0.0
O53 O 0.61423 0.90586 0.36356 0.0
O54 O 0.63106 0.87315 0.35151 0.0
O55 O 0.63908 0.90722 0.22055 0.0
O56 O 0.61632 0.91092 0.1285 0.0
O57 O 0.59424 0.87716 0.23058 0.0
C58 C 0.62854 0.84087 0.15052 0.0
C59 C 0.62776 0.91952 0.17893 0.0
Zn60 Zn 0.86062 0.38677 0.77297 0.0
Zn61 Zn 0.86945 0.35005 0.95742 0.0
C62 C 0.84399 0.4305 0.7651 0.0
O63 O 0.82777 0.41955 0.73392 0.0
C64 C 0.88717 0.31363 0.03709 0.0
O65 O 0.90229 0.32869 0.05143 0.0
O66 O 0.8572 0.38405 0.66587 0.0
O67 O 0.89081 0.37458 0.79627 0.0
O68 O 0.89663 0.35492 0.89574 0.0
C69 C 0.87199 0.39164 0.62382 0.0
O70 O 0.8899 0.40074 0.65117 0.0
O71 O 0.86022 0.41967 0.7911 0.0
C72 C 0.85585 0.36262 0.09297 0.0
O73 O 0.84114 0.3477 0.07343 0.0
O74 O 0.87069 0.36832 0.04796 0.0
O75 O 0.83881 0.35344 0.91573 0.0
O76 O 0.83335 0.3727 0.81503 0.0
O77 O 0.87141 0.31856 0.9944 0.0
C78 C 0.90362 0.36375 0.83775 0.0
C79 C 0.82615 0.36097 0.86682 0.0
Zn80 Zn 0.37601 0.36709 0.18332 0.0
Zn81 Zn 0.373 0.36023 0.01728 0.0
C82 C 0.33567 0.3863 0.22637 0.0
O83 O 0.34964 0.4027 0.23706 0.0
C84 C 0.4176 0.34457 0.00952 0.0
O85 O 0.4073 0.32761 0.98024 0.0
O86 O 0.38675 0.37002 0.28603 0.0
O87 O 0.38469 0.33604 0.15086 0.0
O88 O 0.35995 0.33327 0.06424 0.0
C89 C 0.38074 0.35449 0.32818 0.0
O90 O 0.37003 0.33743 0.30113 0.0
O91 O 0.3428 0.3685 0.1977 0.0
C92 C 0.3818 0.36997 0.87055 0.0
O93 O 0.39486 0.38439 0.90249 0.0
O94 O 0.36972 0.3574 0.90922 0.0
O95 O 0.36012 0.38958 0.04404 0.0
O96 O 0.38549 0.39461 0.12745 0.0
O97 O 0.40618 0.36071 0.03339 0.0
C98 C 0.37187 0.3242 0.11234 0.0
C99 C 0.37246 0.40255 0.08002 0.0
Zn100 Zn 0.3786 0.61223 0.0027 0.0
Zn101 Zn 0.38344 0.64719 0.81386 0.0
C102 C 0.36375 0.56781 0.00293 0.0
O103 O 0.34574 0.57799 0.02516 0.0
C104 C 0.39903 0.6823 0.72539 0.0
O105 O 0.4148 0.6676 0.71514 0.0
O106 O 0.37551 0.6153 0.1102 0.0
O107 O 0.40763 0.62667 0.97791 0.0
O108 O 0.41088 0.64568 0.87588 0.0
C109 C 0.38751 0.60366 0.152 0.0
O110 O 0.40219 0.59005 0.12403 0.0
O111 O 0.38054 0.57935 0.98542 0.0
C112 C 0.36991 0.62731 0.68489 0.0
O113 O 0.35201 0.63829 0.70369 0.0
O114 O 0.38635 0.62707 0.72776 0.0
O115 O 0.35327 0.6428 0.85834 0.0
O116 O 0.35016 0.62393 0.96064 0.0
O117 O 0.38337 0.67771 0.76883 0.0
C118 C 0.41903 0.63825 0.93433 0.0
C119 C 0.34156 0.63476 0.90895 0.0
Zn120 Zn 0.62935 0.63152 0.16888 0.0
Zn121 Zn 0.62805 0.63883 0.00094 0.0
C122 C 0.67119 0.61367 0.20072 0.0
O123 O 0.65803 0.59698 0.21639 0.0
C124 C 0.58379 0.65497 0.00359 0.0
O125 O 0.5939 0.67179 0.97282 0.0
O126 O 0.62227 0.62784 0.27484 0.0
O127 O 0.61942 0.66246 0.13978 0.0
O128 O 0.64177 0.66576 0.0465 0.0
C129 C 0.60805 0.6385 0.31171 0.0
O130 O 0.59462 0.65243 0.2792 0.0
O131 O 0.6628 0.631 0.17261 0.0
C132 C 0.61514 0.63077 0.8554 0.0
O133 O 0.60108 0.6179 0.88966 0.0
O134 O 0.62932 0.64174 0.89177 0.0
O135 O 0.64154 0.6094 0.02441 0.0
O136 O 0.61879 0.60395 0.11525 0.0
O137 O 0.59529 0.6385 0.02453 0.0
C138 C 0.63098 0.67455 0.09791 0.0
C139 C 0.63051 0.59625 0.06397 0.0
Zn140 Zn 0.62332 0.38669 0.99362 0.0
Zn141 Zn 0.61752 0.35148 0.80692 0.0
C142 C 0.63905 0.43093 0.98688 0.0
O143 O 0.65696 0.42088 0.0105 0.0
C144 C 0.6021 0.31682 0.71559 0.0
O145 O 0.5869 0.33193 0.70289 0.0
O146 O 0.62615 0.38631 0.10184 0.0
O147 O 0.59392 0.3727 0.9687 0.0
O148 O 0.58988 0.35342 0.86755 0.0
C149 C 0.61202 0.37768 0.14417 0.0
O150 O 0.59474 0.36736 0.11723 0.0
O151 O 0.62218 0.41932 0.97066 0.0
C152 C 0.63179 0.37012 0.67815 0.0
O153 O 0.64897 0.35809 0.69736 0.0
O154 O 0.61551 0.37171 0.72134 0.0
O155 O 0.64749 0.35503 0.85295 0.0
O156 O 0.65172 0.37323 0.95634 0.0
O157 O 0.61722 0.321 0.76147 0.0
C158 C 0.58207 0.36128 0.92585 0.0
C159 C 0.65956 0.36212 0.90406 0.0
Zn160 Zn 0.8532 0.629 0.54854 0.0
Zn161 Zn 0.88742 0.63492 0.7368 0.0
C162 C 0.81847 0.61354 0.45719 0.0
O163 O 0.83351 0.59825 0.44459 0.0
C164 C 0.93244 0.64804 0.73582 0.0
O165 O 0.92327 0.66604 0.76239 0.0
O166 O 0.87344 0.62697 0.46241 0.0
O167 O 0.85664 0.65922 0.59327 0.0
O168 O 0.87474 0.66329 0.69695 0.0
C169 C 0.86975 0.64259 0.41787 0.0
O170 O 0.85594 0.65843 0.43663 0.0
O171 O 0.8227 0.62864 0.50309 0.0
C172 C 0.89251 0.6229 0.88588 0.0
O173 O 0.89876 0.60388 0.85794 0.0
O174 O 0.88645 0.63853 0.84437 0.0
O175 O 0.87238 0.60594 0.71522 0.0
O176 O 0.85445 0.6017 0.61146 0.0
O177 O 0.92001 0.63223 0.71535 0.0
C178 C 0.86385 0.67125 0.64434 0.0
C179 C 0.86116 0.59415 0.67167 0.0
Zn180 Zn 0.62396 0.13002 0.25811 0.0
Zn181 Zn 0.61821 0.12752 0.42342 0.0
C182 C 0.6366 0.08573 0.22904 0.0
O183 O 0.6506 0.0966 0.18786 0.0
C184 C 0.60045 0.16919 0.46042 0.0
O185 O 0.58409 0.15588 0.47814 0.0
O186 O 0.62638 0.13513 0.15121 0.0
O187 O 0.59474 0.14282 0.28892 0.0
O188 O 0.59064 0.11692 0.37093 0.0
C189 C 0.61075 0.12861 0.11038 0.0
O190 O 0.59281 0.12009 0.13948 0.0
O191 O 0.62324 0.09664 0.26848 0.0
C192 C 0.62931 0.12879 0.56922 0.0
O193 O 0.64434 0.14178 0.5401 0.0
O194 O 0.61561 0.11891 0.52812 0.0
O195 O 0.64883 0.11768 0.39277 0.0
O196 O 0.652 0.14133 0.30312 0.0
O197 O 0.61738 0.16103 0.42927 0.0
C198 C 0.58217 0.13006 0.32489 0.0
C199 C 0.6609 0.12948 0.35175 0.0
Zn200 Zn 0.14639 0.38205 0.54254 0.0
Zn201 Zn 0.11134 0.37667 0.73155 0.0
C202 C 0.19264 0.39465 0.5076 0.0
O203 O 0.19058 0.40986 0.55788 0.0
C204 C 0.06811 0.3593 0.73839 0.0
O205 O 0.07982 0.34287 0.76525 0.0
O206 O 0.12596 0.38411 0.45696 0.0
O207 O 0.14323 0.35208 0.58931 0.0
O208 O 0.12458 0.34858 0.6918 0.0
C209 C 0.12646 0.36759 0.41438 0.0
O210 O 0.13777 0.34991 0.43347 0.0
O211 O 0.17657 0.38159 0.495 0.0
C212 C 0.10246 0.38554 0.88133 0.0
O213 O 0.08784 0.39926 0.85358 0.0
O214 O 0.11477 0.3743 0.83933 0.0
O215 O 0.12471 0.40622 0.70473 0.0
O216 O 0.14415 0.4098 0.60352 0.0
O217 O 0.07825 0.37636 0.71508 0.0
C218 C 0.13585 0.34026 0.64065 0.0
C219 C 0.13611 0.41789 0.66128 0.0
Zn220 Zn 0.37551 0.86818 0.24706 0.0
Zn221 Zn 0.38124 0.86915 0.41486 0.0
C222 C 0.35998 0.91296 0.24537 0.0
O223 O 0.34258 0.90304 0.21749 0.0
C224 C 0.3997 0.82861 0.46144 0.0
O225 O 0.41582 0.84245 0.47725 0.0
O226 O 0.37328 0.86554 0.1392 0.0
O227 O 0.40446 0.85444 0.27497 0.0
O228 O 0.40873 0.87925 0.36043 0.0
C229 C 0.38505 0.87837 0.10049 0.0
O230 O 0.3987 0.8923 0.13211 0.0
O231 O 0.37631 0.90123 0.26602 0.0
C232 C 0.36894 0.87328 0.55969 0.0
O233 O 0.35261 0.86129 0.53365 0.0
O234 O 0.38397 0.88007 0.51699 0.0
O235 O 0.34998 0.87703 0.38368 0.0
O236 O 0.34787 0.85517 0.2889 0.0
O237 O 0.38276 0.83596 0.4283 0.0
C238 C 0.4171 0.86645 0.31321 0.0
C239 C 0.33853 0.86521 0.34078 0.0
Zn240 Zn 0.85352 0.88054 0.71105 0.0
Zn241 Zn 0.88659 0.87367 0.51972 0.0
C242 C 0.81332 0.89858 0.77473 0.0
O243 O 0.82234 0.91767 0.75741 0.0
C244 C 0.92979 0.85599 0.51364 0.0
O245 O 0.91821 0.83963 0.48583 0.0
O246 O 0.874 0.88278 0.7961 0.0
O247 O 0.85654 0.85029 0.66598 0.0
O248 O 0.873 0.8458 0.5597 0.0
C249 C 0.87334 0.86626 0.83862 0.0
O250 O 0.86164 0.84881 0.81994 0.0
O251 O 0.82324 0.88069 0.75806 0.0
C252 C 0.89591 0.88283 0.37137 0.0
O253 O 0.91014 0.8967 0.40041 0.0
O254 O 0.88353 0.87129 0.41223 0.0
O255 O 0.87402 0.90356 0.54545 0.0
O256 O 0.85587 0.908 0.64868 0.0
O257 O 0.91957 0.87297 0.53713 0.0
C258 C 0.86274 0.83809 0.61394 0.0
C259 C 0.86339 0.91567 0.58963 0.0
Zn260 Zn 0.8635 0.12511 0.50674 0.0
Zn261 Zn 0.8706 0.12473 0.33848 0.0
C262 C 0.84895 0.08059 0.50996 0.0
O263 O 0.83214 0.09085 0.54031 0.0
C264 C 0.88812 0.1654 0.29023 0.0
O265 O 0.90459 0.1518 0.27614 0.0
O266 O 0.86093 0.1273 0.6147 0.0
O267 O 0.8917 0.14036 0.48108 0.0
O268 O 0.89857 0.11646 0.39471 0.0
C269 C 0.87357 0.11519 0.65294 0.0
O270 O 0.88809 0.1023 0.62077 0.0
O271 O 0.86509 0.09211 0.48652 0.0
C272 C 0.85845 0.11896 0.1942 0.0
O273 O 0.8414 0.12992 0.22012 0.0
O274 O 0.87399 0.11337 0.23688 0.0
O275 O 0.83932 0.11593 0.36907 0.0
O276 O 0.83587 0.13752 0.4641 0.0
O277 O 0.87113 0.15788 0.32265 0.0
C278 C 0.90554 0.12967 0.44324 0.0
C279 C 0.82717 0.12712 0.4118 0.0
Zn280 Zn 0.151 0.13113 0.70306 0.0
Zn281 Zn 0.11476 0.13705 0.5146 0.0
C282 C 0.18639 0.11353 0.78419 0.0
O283 O 0.1713 0.09798 0.79171 0.0
C284 C 0.06946 0.15129 0.5262 0.0
O285 O 0.07828 0.17041 0.50791 0.0
O286 O 0.13224 0.12755 0.79235 0.0
O287 O 0.14669 0.16157 0.65943 0.0
O288 O 0.12736 0.16502 0.55783 0.0
C289 C 0.12405 0.14383 0.82683 0.0
O290 O 0.12484 0.16376 0.79839 0.0
O291 O 0.18198 0.13021 0.74467 0.0
C292 C 0.10168 0.13413 0.3634 0.0
O293 O 0.08323 0.12616 0.39054 0.0
O294 O 0.11735 0.13984 0.40557 0.0
O295 O 0.12916 0.1081 0.53887 0.0
O296 O 0.14854 0.10398 0.63982 0.0
O297 O 0.08212 0.13476 0.53681 0.0
C298 C 0.13855 0.17341 0.60919 0.0
C299 C 0.14073 0.09628 0.58125 0.0
Zn300 Zn 0.13569 0.88814 0.48608 0.0
Zn301 Zn 0.12969 0.84986 0.30181 0.0
C302 C 0.15208 0.93177 0.49396 0.0
O303 O 0.16879 0.9206 0.52133 0.0
C304 C 0.11362 0.8141 0.21649 0.0
O305 O 0.09842 0.82911 0.2026 0.0
O306 O 0.13878 0.88388 0.5934 0.0
O307 O 0.10642 0.8748 0.45988 0.0
O308 O 0.10203 0.85365 0.36282 0.0
C309 C 0.12722 0.89545 0.63668 0.0
O310 O 0.11307 0.90992 0.61042 0.0
O311 O 0.13531 0.92116 0.47083 0.0
C312 C 0.14375 0.86736 0.16914 0.0
O313 O 0.16123 0.85581 0.18861 0.0
O314 O 0.12749 0.8688 0.21251 0.0
O315 O 0.16026 0.85414 0.34466 0.0
O316 O 0.16316 0.87561 0.4416 0.0
O317 O 0.12891 0.81874 0.26129 0.0
C318 C 0.09435 0.86295 0.41913 0.0
C319 C 0.17185 0.86357 0.39306 0.0
H320 H 0.39682 0.93879 0.26495 0.0
H321 H 0.32636 0.94252 0.22441 0.0
H322 H 0.39946 0.97913 0.25452 0.0
H323 H 0.32906 0.98278 0.21411 0.0
H324 H 0.33992 0.05611 0.2722 0.0
H325 H 0.33778 0.01611 0.29045 0.0
H326 H 0.3949 0.00704 0.1534 0.0
H327 H 0.39711 0.04711 0.1349 0.0
C328 C 0.38187 0.94822 0.25459 0.0
C329 C 0.36138 0.93746 0.24541 0.0
C330 C 0.38343 0.97129 0.24806 0.0
C331 C 0.36449 0.98408 0.23317 0.0
C332 C 0.34391 0.97337 0.22607 0.0
C333 C 0.34239 0.95031 0.23173 0.0
C334 C 0.35206 0.04562 0.24595 0.0
C335 C 0.36867 0.05482 0.20194 0.0
C336 C 0.35076 0.0227 0.25626 0.0
C337 C 0.36618 0.00846 0.22345 0.0
C338 C 0.38293 0.01764 0.17998 0.0
C339 C 0.38409 0.04057 0.169 0.0
H340 H 0.95626 0.60961 0.72168 0.0
H341 H 0.96364 0.67998 0.75881 0.0
H342 H 0.99618 0.60464 0.73841 0.0
H343 H 0.00344 0.67497 0.77539 0.0
H344 H 0.07629 0.65997 0.7263 0.0
H345 H 0.03677 0.6639 0.70314 0.0
H346 H 0.02336 0.60825 0.84293 0.0
H347 H 0.06311 0.60423 0.86644 0.0
C348 C 0.96642 0.62405 0.73255 0.0
C349 C 0.9568 0.64521 0.73883 0.0
C350 C 0.98923 0.62115 0.74278 0.0
C351 C 0.00288 0.6394 0.75852 0.0
C352 C 0.99334 0.66062 0.76285 0.0
C353 C 0.97054 0.66348 0.75348 0.0
C354 C 0.06497 0.64852 0.75218 0.0
C355 C 0.07287 0.6318 0.79845 0.0
C356 C 0.04231 0.65085 0.73902 0.0
C357 C 0.02699 0.63641 0.77124 0.0
C358 C 0.03483 0.6195 0.81686 0.0
C359 C 0.05756 0.6173 0.83067 0.0
H360 H 0.61659 0.95124 0.08034 0.0
H361 H 0.64015 0.94282 0.29867 0.0
H362 H 0.6185 0.9915 0.0948 0.0
H363 H 0.64173 0.98313 0.31318 0.0
H364 H 0.61638 0.05706 0.32309 0.0
H365 H 0.61377 0.01658 0.31276 0.0
H366 H 0.65113 0.01895 0.11451 0.0
H367 H 0.65404 0.05915 0.12502 0.0
C368 C 0.62202 0.95798 0.13152 0.0
C369 C 0.62827 0.94388 0.18829 0.0
C370 C 0.6232 0.98099 0.13964 0.0
C371 C 0.63028 0.99035 0.20506 0.0
C372 C 0.6361 0.9763 0.26235 0.0
C373 C 0.6353 0.95327 0.25384 0.0
C374 C 0.6241 0.0489 0.27753 0.0
C375 C 0.63543 0.06127 0.22493 0.0
C376 C 0.62265 0.02578 0.27176 0.0
C377 C 0.63215 0.01473 0.21264 0.0
C378 C 0.64349 0.0271 0.16024 0.0
C379 C 0.64526 0.0501 0.1666 0.0
H380 H 0.9245 0.37938 0.71677 0.0
H381 H 0.93689 0.34399 0.91541 0.0
H382 H 0.96373 0.3773 0.68691 0.0
H383 H 0.9762 0.3423 0.88603 0.0
H384 H 0.04201 0.32508 0.78357 0.0
H385 H 0.00209 0.32521 0.80299 0.0
H386 H 0.99882 0.39286 0.72693 0.0
H387 H 0.03876 0.39259 0.70614 0.0
C388 C 0.93555 0.37117 0.75418 0.0
C389 C 0.92746 0.36191 0.81867 0.0
C390 C 0.9581 0.37008 0.73714 0.0
C391 C 0.97314 0.35968 0.78407 0.0
C392 C 0.96503 0.35019 0.84815 0.0
C393 C 0.94248 0.35127 0.86522 0.0
C394 C 0.03277 0.33993 0.7703 0.0
C395 C 0.0436 0.35886 0.74354 0.0
C396 C 0.00988 0.34005 0.78195 0.0
C397 C 0.99726 0.35911 0.7672 0.0
C398 C 0.008 0.37783 0.73831 0.0
C399 C 0.03092 0.3777 0.72657 0.0
H400 H 0.39948 0.43499 0.13486 0.0
H401 H 0.34352 0.42476 0.99305 0.0
H402 H 0.39772 0.47485 0.11122 0.0
H403 H 0.34188 0.46446 0.96946 0.0
H404 H 0.32991 0.53849 0.023 0.0
H405 H 0.33248 0.49846 0.03943 0.0
H406 H 0.40337 0.5017 0.00866 0.0
H407 H 0.40086 0.54186 0.99242 0.0
C408 C 0.38685 0.44122 0.09863 0.0
C409 C 0.37161 0.4267 0.06603 0.0
C410 C 0.38594 0.46401 0.08473 0.0
C411 C 0.36966 0.47274 0.03848 0.0
C412 C 0.35448 0.45823 0.00584 0.0
C413 C 0.35549 0.43547 0.01923 0.0
C414 C 0.34603 0.53067 0.0191 0.0
C415 C 0.36518 0.54335 0.00642 0.0
C416 C 0.34748 0.50772 0.02829 0.0
C417 C 0.36814 0.49698 0.02561 0.0
C418 C 0.38726 0.50959 0.01177 0.0
C419 C 0.38579 0.53254 0.00187 0.0
H420 H 0.55478 0.68761 0.96502 0.0
H421 H 0.5573 0.62029 0.04457 0.0
H422 H 0.5146 0.68501 0.95495 0.0
H423 H 0.51712 0.61755 0.03307 0.0
H424 H 0.44242 0.62521 0.05377 0.0
H425 H 0.48171 0.63075 0.07851 0.0
H426 H 0.48874 0.66587 0.87681 0.0
H427 H 0.44942 0.66077 0.85261 0.0
C428 C 0.54675 0.67229 0.98084 0.0
C429 C 0.55926 0.6541 0.00514 0.0
C430 C 0.52372 0.67076 0.9746 0.0
C431 C 0.51265 0.651 0.99243 0.0
C432 C 0.52509 0.63308 0.01941 0.0
C433 C 0.54815 0.63463 0.02576 0.0
C434 C 0.4523 0.63425 0.01484 0.0
C435 C 0.44272 0.64248 0.95101 0.0
C436 C 0.47486 0.63732 0.02893 0.0
C437 C 0.4884 0.64871 0.97963 0.0
C438 C 0.47875 0.65728 0.91646 0.0
C439 C 0.45619 0.65423 0.90235 0.0
H440 H 0.60452 0.56351 0.12219 0.0
H441 H 0.65848 0.57432 0.97296 0.0
H442 H 0.60622 0.52369 0.0976 0.0
H443 H 0.66011 0.53463 0.94866 0.0
H444 H 0.67305 0.46038 0.00215 0.0
H445 H 0.67055 0.50046 0.0181 0.0
H446 H 0.59944 0.49705 0.99389 0.0
H447 H 0.60188 0.45688 0.9778 0.0
C448 C 0.61672 0.55742 0.08419 0.0
C449 C 0.63139 0.57209 0.04967 0.0
C450 C 0.61758 0.53465 0.06974 0.0
C451 C 0.63329 0.52608 0.02114 0.0
C452 C 0.64795 0.54074 0.98675 0.0
C453 C 0.64694 0.56349 1.00056 0.0
C454 C 0.65689 0.46819 0.99942 0.0
C455 C 0.63766 0.45544 0.98876 0.0
C456 C 0.65548 0.49116 0.0084 0.0
C457 C 0.63478 0.50186 0.00767 0.0
C458 C 0.61558 0.4892 0.9955 0.0
C459 C 0.61702 0.46623 0.98566 0.0
H460 H 0.44669 0.31188 0.97191 0.0
H461 H 0.4439 0.38029 0.04065 0.0
H462 H 0.48672 0.31486 0.95735 0.0
H463 H 0.48384 0.38349 0.02408 0.0
H464 H 0.55851 0.37778 0.04038 0.0
H465 H 0.51947 0.37235 0.06782 0.0
H466 H 0.51235 0.33214 0.87635 0.0
H467 H 0.55161 0.33682 0.85039 0.0
C468 C 0.45463 0.32754 0.98419 0.0
C469 C 0.44209 0.34587 0.00715 0.0
C470 C 0.47758 0.3293 0.97532 0.0
C471 C 0.48853 0.34947 0.98883 0.0
C472 C 0.47603 0.36762 0.01388 0.0
C473 C 0.45309 0.36582 0.02315 0.0
C474 C 0.54873 0.36752 0.00458 0.0
C475 C 0.55833 0.35763 0.94336 0.0
C476 C 0.52624 0.36459 0.01998 0.0
C477 C 0.5127 0.35182 0.97434 0.0
C478 C 0.52233 0.3418 0.91339 0.0
C479 C 0.54485 0.34463 0.89816 0.0
H480 H 0.87717 0.45824 0.81001 0.0
H481 H 0.8123 0.45825 0.71104 0.0
H482 H 0.87981 0.49816 0.79151 0.0
H483 H 0.81477 0.49824 0.69388 0.0
H484 H 0.84119 0.56233 0.58845 0.0
H485 H 0.8357 0.52331 0.61738 0.0
H486 H 0.86482 0.53385 0.82741 0.0
H487 H 0.87069 0.57276 0.79818 0.0
C488 C 0.86332 0.4668 0.78535 0.0
C489 C 0.84459 0.45502 0.76161 0.0
C490 C 0.8648 0.48972 0.77497 0.0
C491 C 0.84756 0.50138 0.74072 0.0
C492 C 0.8285 0.4897 0.7193 0.0
C493 C 0.82703 0.46679 0.72963 0.0
C494 C 0.84631 0.55639 0.64099 0.0
C495 C 0.85655 0.5707 0.69072 0.0
C496 C 0.84305 0.53402 0.65775 0.0
C497 C 0.84989 0.52543 0.72468 0.0
C498 C 0.85967 0.53985 0.77498 0.0
C499 C 0.86295 0.5622 0.75824 0.0
H500 H 0.55858 0.15992 0.24511 0.0
H501 H 0.55084 0.10145 0.37756 0.0
H502 H 0.51859 0.16111 0.2259 0.0
H503 H 0.51077 0.1027 0.35812 0.0
H504 H 0.44268 0.10015 0.24526 0.0
H505 H 0.48306 0.0983 0.25624 0.0
H506 H 0.48508 0.16843 0.30278 0.0
H507 H 0.44483 0.17034 0.29191 0.0
C508 C 0.54836 0.1473 0.27007 0.0
C509 C 0.5579 0.13062 0.31309 0.0
C510 C 0.52546 0.14804 0.25921 0.0
C511 C 0.51158 0.132 0.29048 0.0
C512 C 0.5211 0.11516 0.33277 0.0
C513 C 0.54402 0.11454 0.34428 0.0
C514 C 0.45177 0.11521 0.25715 0.0
C515 C 0.44057 0.13539 0.26785 0.0
C516 C 0.47485 0.1141 0.26395 0.0
C517 C 0.48719 0.1332 0.28062 0.0
C518 C 0.47603 0.15347 0.28939 0.0
C519 C 0.45297 0.15453 0.28345 0.0
H520 H 0.18576 0.55336 0.69726 0.0
H521 H 0.11905 0.55632 0.78152 0.0
H522 H 0.18232 0.51338 0.68286 0.0
H523 H 0.11541 0.51631 0.76553 0.0
H524 H 0.15792 0.44884 0.57953 0.0
H525 H 0.16284 0.48812 0.60483 0.0
H526 H 0.12797 0.48034 0.80665 0.0
H527 H 0.12257 0.44108 0.78071 0.0
C528 C 0.17037 0.54547 0.71304 0.0
C529 C 0.15263 0.55808 0.74019 0.0
C530 C 0.16835 0.52254 0.70428 0.0
C531 C 0.14851 0.51161 0.72226 0.0
C532 C 0.131 0.52413 0.75166 0.0
C533 C 0.13305 0.5471 0.7606 0.0
C534 C 0.15134 0.45544 0.62945 0.0
C535 C 0.13979 0.44173 0.67791 0.0
C536 C 0.1543 0.47799 0.64421 0.0
C537 C 0.14584 0.48743 0.70789 0.0
C538 C 0.13447 0.47369 0.7567 0.0
C539 C 0.13148 0.45112 0.74192 0.0
H540 H 0.55622 0.89669 0.23306 0.0
H541 H 0.55465 0.8264 0.27839 0.0
H542 H 0.51588 0.89825 0.24482 0.0
H543 H 0.51438 0.82802 0.28996 0.0
H544 H 0.4406 0.83671 0.23265 0.0
H545 H 0.4806 0.83549 0.2134 0.0
H546 H 0.48856 0.8934 0.34784 0.0
H547 H 0.44851 0.89467 0.36737 0.0
C548 C 0.54726 0.88155 0.24484 0.0
C549 C 0.55862 0.86142 0.25498 0.0
C550 C 0.5242 0.88249 0.25208 0.0
C551 C 0.51203 0.86328 0.26863 0.0
C552 C 0.52332 0.84306 0.27675 0.0
C553 C 0.54639 0.84216 0.27038 0.0
C554 C 0.45086 0.84921 0.25808 0.0
C555 C 0.44138 0.86577 0.30167 0.0
C556 C 0.47377 0.84845 0.24722 0.0
C557 C 0.48767 0.86436 0.27903 0.0
C558 C 0.4782 0.88105 0.32207 0.0
C559 C 0.4553 0.88168 0.33362 0.0
H560 H 0.87677 0.9382 0.46862 0.0
H561 H 0.84311 0.94742 0.67216 0.0
H562 H 0.87237 0.9776 0.44233 0.0
H563 H 0.839 0.98671 0.64619 0.0
H564 H 0.81667 0.05187 0.55295 0.0
H565 H 0.81929 0.01182 0.56638 0.0
H566 H 0.88633 0.01355 0.48467 0.0
H567 H 0.88358 0.05373 0.46999 0.0
C568 C 0.8684 0.94857 0.50777 0.0
C569 C 0.86024 0.93954 0.57256 0.0
C570 C 0.86598 0.9712 0.49276 0.0
C571 C 0.85529 0.98531 0.54202 0.0
C572 C 0.847 0.97625 0.60648 0.0
C573 C 0.84946 0.95368 0.62156 0.0
C574 C 0.83192 0.04373 0.53715 0.0
C575 C 0.84998 0.05604 0.51087 0.0
C576 C 0.83346 0.02075 0.5453 0.0
C577 C 0.85311 0.00949 0.52745 0.0
C578 C 0.87091 0.02169 0.49853 0.0
C579 C 0.86936 0.04473 0.49032 0.0
H580 H 0.04641 0.11222 0.53061 0.0
H581 H 0.03753 0.18308 0.51068 0.0
H582 H 0.00674 0.10675 0.51163 0.0
H583 H 0.9979 0.17755 0.49142 0.0
H584 H 0.92516 0.1596 0.53301 0.0
H585 H 0.96449 0.16452 0.55728 0.0
H586 H 0.97985 0.11142 0.40927 0.0
H587 H 0.9403 0.10635 0.38494 0.0
C588 C 0.03598 0.12665 0.52298 0.0
C589 C 0.04514 0.14811 0.52223 0.0
C590 C 0.01329 0.12348 0.5114 0.0
C591 C 0.99924 0.1417 0.49956 0.0
C592 C 0.00829 0.16319 0.50085 0.0
C593 C 0.031 0.16635 0.51179 0.0
C594 C 0.93687 0.14893 0.50553 0.0
C595 C 0.92956 0.13257 0.45695 0.0
C596 C 0.95943 0.15184 0.51929 0.0
C597 C 0.97525 0.13836 0.48524 0.0
C598 C 0.968 0.12191 0.43689 0.0
C599 C 0.94538 0.1191 0.42262 0.0
H600 H 0.18539 0.95905 0.53944 0.0
H601 H 0.11831 0.95995 0.45747 0.0
H602 H 0.18413 0.99915 0.55514 0.0
H603 H 0.11691 1.0 0.4746 0.0
H604 H 0.12757 0.07425 0.45951 0.0
H605 H 0.1318 0.03501 0.43208 0.0
H606 H 0.16573 0.02524 0.63476 0.0
H607 H 0.16195 0.06459 0.66171 0.0
C608 C 0.1704 0.96781 0.52439 0.0
C609 C 0.15191 0.95629 0.49745 0.0
C610 C 0.16965 0.99078 0.53386 0.0
C611 C 0.15037 0.00276 0.51665 0.0
C612 C 0.1321 0.99131 0.48771 0.0
C613 C 0.13287 0.96833 0.47815 0.0
C614 C 0.13607 0.0638 0.49812 0.0
C615 C 0.14434 0.07261 0.56303 0.0
C616 C 0.13838 0.04125 0.48248 0.0
C617 C 0.149 0.02696 0.53132 0.0
C618 C 0.15768 0.03584 0.59553 0.0
C619 C 0.1554 0.0584 0.61119 0.0
H620 H 0.07284 0.87804 0.53935 0.0
H621 H 0.06183 0.84217 0.34068 0.0
H622 H 0.03362 0.87506 0.56813 0.0
H623 H 0.02245 0.83965 0.36889 0.0
H624 H 0.95626 0.82198 0.46858 0.0
H625 H 0.99624 0.82247 0.45029 0.0
H626 H 0.9987 0.89007 0.52727 0.0
H627 H 0.95876 0.88941 0.5471 0.0
C628 C 0.06207 0.86952 0.50169 0.0
C629 C 0.07053 0.8604 0.43747 0.0
C630 C 0.03953 0.86792 0.51811 0.0
C631 C 0.02484 0.8572 0.47076 0.0
C632 C 0.03334 0.84779 0.40705 0.0
C633 C 0.05592 0.84934 0.39064 0.0
C634 C 0.96535 0.83688 0.48233 0.0
C635 C 0.9543 0.85569 0.50912 0.0
C636 C 0.98827 0.83721 0.4713 0.0
C637 C 0.00068 0.85636 0.4867 0.0
C638 C 0.9897 0.87496 0.51549 0.0
C639 C 0.96677 0.87461 0.52667 0.0
H640 H 0.4043 0.184 0.10881 0.0
H641 H 0.33915 0.18678 0.20524 0.0
H642 H 0.40432 0.22441 0.09705 0.0
H643 H 0.33911 0.22717 0.1923 0.0
H644 H 0.33992 0.29507 0.06859 0.0
H645 H 0.33983 0.25471 0.08241 0.0
H646 H 0.40355 0.2579 0.1878 0.0
H647 H 0.40356 0.29828 0.17515 0.0
C648 C 0.38997 0.19323 0.12724 0.0
C649 C 0.37171 0.18224 0.15795 0.0
C650 C 0.39005 0.21633 0.12082 0.0
C651 C 0.37171 0.22883 0.14374 0.0
C652 C 0.35339 0.21786 0.17387 0.0
C653 C 0.35347 0.1948 0.18155 0.0
C654 C 0.3539 0.28716 0.09478 0.0
C655 C 0.37174 0.29983 0.12084 0.0
C656 C 0.35378 0.26411 0.10294 0.0
C657 C 0.37169 0.25327 0.13609 0.0
C658 C 0.3896 0.26588 0.16168 0.0
C659 C 0.38954 0.28897 0.15475 0.0
H660 H 0.3109 0.62409 0.01241 0.0
H661 H 0.31664 0.64886 0.79459 0.0
H662 H 0.27066 0.62431 0.0013 0.0
H663 H 0.27661 0.64811 0.78229 0.0
H664 H 0.20335 0.66151 0.79676 0.0
H665 H 0.24307 0.66464 0.81672 0.0
H666 H 0.24167 0.60464 0.94434 0.0
H667 H 0.20171 0.60213 0.92688 0.0
C668 C 0.30359 0.6296 0.96215 0.0
C669 C 0.31705 0.63641 0.90435 0.0
C670 C 0.28049 0.62954 0.95554 0.0
C671 C 0.27027 0.63607 0.8907 0.0
C672 C 0.28377 0.64328 0.83345 0.0
C673 C 0.30683 0.64359 0.84036 0.0
C674 C 0.21152 0.64902 0.82923 0.0
C675 C 0.19939 0.63152 0.85997 0.0
C676 C 0.23436 0.65074 0.84042 0.0
C677 C 0.24572 0.63484 0.88186 0.0
C678 C 0.2335 0.61741 0.91307 0.0
C679 C 0.21058 0.61585 0.90261 0.0
H680 H 0.59599 0.8141 0.09696 0.0
H681 H 0.66199 0.81258 0.18737 0.0
H682 H 0.59661 0.77367 0.08531 0.0
H683 H 0.6627 0.77218 0.17436 0.0
H684 H 0.66165 0.70426 0.04909 0.0
H685 H 0.66116 0.74464 0.06281 0.0
H686 H 0.59915 0.74026 0.17796 0.0
H687 H 0.59977 0.69986 0.16558 0.0
C688 C 0.61065 0.80514 0.11402 0.0
C689 C 0.62895 0.81647 0.14306 0.0
C690 C 0.61094 0.78204 0.10768 0.0
C691 C 0.62971 0.7699 0.1289 0.0
C692 C 0.64809 0.78122 0.15729 0.0
C693 C 0.64763 0.80428 0.16499 0.0
C694 C 0.64794 0.71192 0.07742 0.0
C695 C 0.63077 0.69892 0.10637 0.0
C696 C 0.64772 0.73497 0.0855 0.0
C697 C 0.63011 0.74547 0.12136 0.0
C698 C 0.61285 0.73253 0.14979 0.0
C699 C 0.61329 0.70944 0.143 0.0
H700 H 0.80122 0.36473 0.9878 0.0
H701 H 0.79693 0.35013 0.76078 0.0
H702 H 0.76109 0.36361 0.99728 0.0
H703 H 0.75685 0.34675 0.77056 0.0
H704 H 0.68525 0.36803 0.7862 0.0
H705 H 0.72528 0.36616 0.77807 0.0
H706 H 0.72836 0.34582 0.00193 0.0
H707 H 0.68823 0.34986 0.01066 0.0
C708 C 0.79159 0.36067 0.94028 0.0
C709 C 0.80205 0.35763 0.87353 0.0
C710 C 0.76849 0.35984 0.94561 0.0
C711 C 0.75529 0.35522 0.88463 0.0
C712 C 0.7661 0.3511 0.81848 0.0
C713 C 0.78916 0.35274 0.81276 0.0
C714 C 0.69457 0.36305 0.83341 0.0
C715 C 0.68375 0.35907 0.89899 0.0
C716 C 0.71763 0.36176 0.82881 0.0
C717 C 0.73049 0.35573 0.88923 0.0
C718 C 0.71936 0.35106 0.95446 0.0
C719 C 0.69629 0.35312 0.95956 0.0
H720 H 0.85376 0.69981 0.75333 0.0
H721 H 0.86733 0.69713 0.52535 0.0
H722 H 0.84983 0.73994 0.7463 0.0
H723 H 0.86554 0.73727 0.51851 0.0
H724 H 0.84959 0.80948 0.50857 0.0
H725 H 0.84635 0.76928 0.51669 0.0
H726 H 0.86841 0.7722 0.73882 0.0
H727 H 0.86955 0.81233 0.73148 0.0
C728 C 0.85606 0.70794 0.70178 0.0
C729 C 0.86077 0.69547 0.63989 0.0
C730 C 0.85406 0.73101 0.69762 0.0
C731 C 0.85755 0.74226 0.63186 0.0
C732 C 0.86218 0.72951 0.56992 0.0
C733 C 0.86341 0.7064 0.57375 0.0
C734 C 0.85337 0.80138 0.55925 0.0
C735 C 0.85967 0.81391 0.61951 0.0
C736 C 0.85179 0.77827 0.56394 0.0
C737 C 0.8573 0.76708 0.62834 0.0
C738 C 0.86347 0.77991 0.68868 0.0
C739 C 0.8643 0.80302 0.68454 0.0
H740 H 0.80323 0.11323 0.29482 0.0
H741 H 0.79594 0.14136 0.50786 0.0
H742 H 0.76298 0.1138 0.27969 0.0
H743 H 0.75576 0.14178 0.49263 0.0
H744 H 0.68476 0.11408 0.46633 0.0
H745 H 0.72501 0.11333 0.48018 0.0
H746 H 0.73249 0.14302 0.2698 0.0
H747 H 0.69219 0.14386 0.25579 0.0
C748 C 0.79307 0.11952 0.33839 0.0
C749 C 0.8028 0.1273 0.40248 0.0
C750 C 0.77004 0.11993 0.32955 0.0
C751 C 0.75628 0.12783 0.385 0.0
C752 C 0.76598 0.13544 0.44924 0.0
C753 C 0.78899 0.1353 0.45774 0.0
C754 C 0.69498 0.12043 0.42297 0.0
C755 C 0.6853 0.12906 0.35999 0.0
C756 C 0.71801 0.1201 0.4311 0.0
C757 C 0.73185 0.12812 0.37607 0.0
C758 C 0.7222 0.13657 0.31283 0.0
C759 C 0.69915 0.13718 0.30506 0.0
H760 H 0.15392 0.31555 0.53147 0.0
H761 H 0.1253 0.30965 0.74433 0.0
H762 H 0.15687 0.27528 0.52403 0.0
H763 H 0.12824 0.26939 0.73647 0.0
H764 H 0.15446 0.19838 0.72136 0.0
H765 H 0.15615 0.23874 0.72989 0.0
H766 H 0.12968 0.24421 0.51434 0.0
H767 H 0.12803 0.20392 0.50539 0.0
C768 C 0.14841 0.30572 0.57692 0.0
C769 C 0.13925 0.31589 0.63837 0.0
C770 C 0.15001 0.28263 0.57243 0.0
C771 C 0.1427 0.26918 0.62951 0.0
C772 C 0.13419 0.27933 0.69185 0.0
C773 C 0.1324 0.30241 0.69615 0.0
C774 C 0.14918 0.20816 0.67548 0.0
C775 C 0.14105 0.19787 0.61273 0.0
C776 C 0.15004 0.23129 0.68061 0.0
C777 C 0.143 0.24463 0.62287 0.0
C778 C 0.13543 0.23436 0.55948 0.0
C779 C 0.13437 0.21126 0.55455 0.0
H780 H 0.30762 0.85241 0.24134 0.0
H781 H 0.31452 0.87468 0.46147 0.0
H782 H 0.26753 0.85105 0.25593 0.0
H783 H 0.27463 0.87214 0.47766 0.0
H784 H 0.20197 0.89044 0.45913 0.0
H785 H 0.24195 0.89011 0.44675 0.0
H786 H 0.23745 0.83249 0.30856 0.0
H787 H 0.19714 0.8336 0.31815 0.0
C788 C 0.30057 0.85674 0.29317 0.0
C789 C 0.31423 0.86373 0.35016 0.0
C790 C 0.27756 0.8558 0.3018 0.0
C791 C 0.26768 0.8615 0.36803 0.0
C792 C 0.28149 0.86807 0.42539 0.0
C793 C 0.30444 0.86939 0.41632 0.0
C794 C 0.20949 0.87758 0.42648 0.0
C795 C 0.19633 0.86204 0.3896 0.0
C796 C 0.23252 0.87731 0.41966 0.0
C797 C 0.2431 0.86125 0.3767 0.0
C798 C 0.22993 0.84537 0.34107 0.0
C799 C 0.2068 0.84587 0.34701 0.0
H800 H 0.22022 0.14396 0.79048 0.0
H801 H 0.20055 0.07941 0.86891 0.0
H802 H 0.25491 0.14104 0.8581 0.0
H803 H 0.23492 0.07667 0.93692 0.0
H804 H 0.30996 0.0688 0.97312 0.0
H805 H 0.27439 0.07219 0.91228 0.0
H806 H 0.26918 0.14019 0.98351 0.0
H807 H 0.30509 0.13691 0.04391 0.0
C808 C 0.22327 0.12918 0.82211 0.0
C809 C 0.20765 0.11188 0.82396 0.0
C810 C 0.24306 0.12758 0.86133 0.0
C811 C 0.24767 0.10862 0.90294 0.0
C812 C 0.232 0.09139 0.9048 0.0
C813 C 0.21224 0.093 0.8659 0.0
C814 C 0.30116 0.08443 0.9765 0.0
C815 C 0.31038 0.10259 0.01337 0.0
C816 C 0.28071 0.08635 0.94176 0.0
C817 C 0.26898 0.10649 0.94277 0.0
C818 C 0.27795 0.12454 0.98098 0.0
C819 C 0.29841 0.12258 0.01617 0.0
H820 H 0.079 0.6889 0.01517 0.0
H821 H 0.14867 0.69644 0.96689 0.0
H822 H 0.07905 0.72469 0.07585 0.0
H823 H 0.14863 0.73252 0.02713 0.0
H824 H 0.14485 0.78105 0.22067 0.0
H825 H 0.14506 0.74638 0.15249 0.0
H826 H 0.08287 0.76449 0.05316 0.0
H827 H 0.08249 0.79894 0.12173 0.0
C828 C 0.09428 0.69834 0.01664 0.0
C829 C 0.11384 0.68979 0.98626 0.0
C830 C 0.09428 0.71891 0.05128 0.0
C831 C 0.11387 0.73141 0.0567 0.0
C832 C 0.13334 0.72315 0.02467 0.0
C833 C 0.1333 0.70259 0.98953 0.0
C834 C 0.13119 0.77759 0.18448 0.0
C835 C 0.11361 0.79273 0.17693 0.0
C836 C 0.13141 0.75782 0.14491 0.0
C837 C 0.11401 0.7527 0.09723 0.0
C838 C 0.09642 0.76783 0.08991 0.0
C839 C 0.09625 0.78761 0.12915 0.0
H840 H 0.69069 0.86316 0.99641 0.0
H841 H 0.69844 0.93331 0.03506 0.0
H842 H 0.72578 0.86256 0.93167 0.0
H843 H 0.73419 0.93262 0.97417 0.0
H844 H 0.78235 0.93124 0.78745 0.0
H845 H 0.7485 0.93077 0.85848 0.0
H846 H 0.76424 0.86459 0.93273 0.0
H847 H 0.79749 0.86473 0.85815 0.0
C848 C 0.70024 0.87834 0.99277 0.0
C849 C 0.69182 0.89831 0.02054 0.0
C850 C 0.72043 0.87802 0.95566 0.0
C851 C 0.73287 0.89761 0.94658 0.0
C852 C 0.72488 0.91733 0.97799 0.0
C853 C 0.70449 0.91771 0.01375 0.0
C854 C 0.7785 0.91656 0.81874 0.0
C855 C 0.79252 0.898 0.81697 0.0
C856 C 0.75917 0.91635 0.86024 0.0
C857 C 0.75357 0.89771 0.90228 0.0
C858 C 0.76772 0.87913 0.90044 0.0
C859 C 0.78686 0.87922 0.85782 0.0
H860 H 0.85585 0.28073 0.03366 0.0
H861 H 0.91943 0.29754 0.12617 0.0
H862 H 0.85618 0.24561 0.09921 0.0
H863 H 0.9196 0.2626 0.19217 0.0
H864 H 0.92288 0.18687 0.22745 0.0
H865 H 0.92264 0.22275 0.16729 0.0
H866 H 0.85377 0.23145 0.22445 0.0
H867 H 0.85391 0.19531 0.28415 0.0
C868 C 0.86991 0.27692 0.06781 0.0
C869 C 0.88764 0.29192 0.07447 0.0
C870 C 0.87 0.25689 0.10589 0.0
C871 C 0.88787 0.25135 0.15114 0.0
C872 C 0.90567 0.26628 0.15731 0.0
C873 C 0.90553 0.28634 0.11957 0.0
C874 C 0.90772 0.1965 0.22783 0.0
C875 C 0.8884 0.1882 0.26052 0.0
C876 C 0.90761 0.21712 0.19351 0.0
C877 C 0.88816 0.22991 0.19074 0.0
C878 C 0.86895 0.22185 0.22484 0.0
C879 C 0.86909 0.20124 0.25961 0.0
H880 H 0.31394 0.42329 0.27206 0.0
H881 H 0.3065 0.35232 0.25176 0.0
H882 H 0.27878 0.42533 0.33601 0.0
H883 H 0.27156 0.35423 0.31785 0.0
H884 H 0.20047 0.3681 0.39064 0.0
H885 H 0.23376 0.36642 0.31645 0.0
H886 H 0.26472 0.4158 0.45211 0.0
H887 H 0.23121 0.41794 0.52494 0.0
C888 C 0.30472 0.40811 0.28093 0.0
C889 C 0.31305 0.38763 0.25708 0.0
C890 C 0.28463 0.40926 0.31822 0.0
C891 C 0.27244 0.38992 0.33319 0.0
C892 C 0.2804 0.3695 0.30691 0.0
C893 C 0.30045 0.36838 0.26903 0.0
C894 C 0.21439 0.3786 0.40469 0.0
C895 C 0.21316 0.39318 0.46378 0.0
C896 C 0.23353 0.37756 0.36224 0.0
C897 C 0.25195 0.39103 0.37796 0.0
C898 C 0.25073 0.40548 0.43746 0.0
C899 C 0.23155 0.4066 0.47969 0.0
H900 H 0.36715 0.71473 0.72315 0.0
H901 H 0.43104 0.69747 0.63387 0.0
H902 H 0.36735 0.74916 0.6537 0.0
H903 H 0.43108 0.73168 0.56405 0.0
H904 H 0.43439 0.80733 0.52536 0.0
H905 H 0.43402 0.77164 0.58673 0.0
H906 H 0.36536 0.76259 0.52739 0.0
H907 H 0.36563 0.79854 0.46642 0.0
C908 C 0.38122 0.71826 0.68874 0.0
C909 C 0.39912 0.70339 0.68434 0.0
C910 C 0.38124 0.7379 0.64847 0.0
C911 C 0.39921 0.74313 0.60324 0.0
C912 C 0.41709 0.72824 0.59889 0.0
C913 C 0.41702 0.70859 0.63882 0.0
C914 C 0.41926 0.79765 0.52467 0.0
C915 C 0.40003 0.80581 0.49109 0.0
C916 C 0.41908 0.77714 0.55969 0.0
C917 C 0.39962 0.76433 0.5623 0.0
C918 C 0.38053 0.77222 0.52711 0.0
C919 C 0.38075 0.7927 0.49161 0.0
H920 H 0.69437 0.57838 0.25282 0.0
H921 H 0.70037 0.6485 0.20882 0.0
H922 H 0.73053 0.57868 0.31095 0.0
H923 H 0.73683 0.64871 0.26649 0.0
H924 H 0.78521 0.64451 0.46097 0.0
H925 H 0.75084 0.6447 0.39134 0.0
H926 H 0.77019 0.58341 0.28848 0.0
H927 H 0.80435 0.58304 0.35858 0.0
C928 C 0.70356 0.59381 0.25454 0.0
C929 C 0.69443 0.61344 0.22644 0.0
C930 C 0.72435 0.59395 0.28769 0.0
C931 C 0.7365 0.61375 0.29384 0.0
C932 C 0.72773 0.63326 0.26349 0.0
C933 C 0.70695 0.63309 0.22984 0.0
C934 C 0.78211 0.63106 0.42358 0.0
C935 C 0.79747 0.61369 0.4157 0.0
C936 C 0.76252 0.63128 0.38318 0.0
C937 C 0.7578 0.61409 0.33424 0.0
C938 C 0.77322 0.59679 0.3262 0.0
C939 C 0.79283 0.59661 0.36634 0.0
H940 H 0.56562 0.19231 0.51579 0.0
H941 H 0.63542 0.1982 0.46715 0.0
H942 H 0.56635 0.22848 0.57406 0.0
H943 H 0.63608 0.23465 0.52504 0.0
H944 H 0.63297 0.28343 0.71895 0.0
H945 H 0.63271 0.24884 0.65032 0.0
H946 H 0.57109 0.26817 0.54971 0.0
H947 H 0.57117 0.30255 0.61869 0.0
C948 C 0.58106 0.20148 0.51659 0.0
C949 C 0.60047 0.19235 0.48694 0.0
C950 C 0.58146 0.22226 0.54982 0.0
C951 C 0.6013 0.23438 0.55458 0.0
C952 C 0.6206 0.22557 0.52303 0.0
C953 C 0.62016 0.2048 0.48925 0.0
C954 C 0.61935 0.28028 0.68226 0.0
C955 C 0.60203 0.29571 0.67465 0.0
C956 C 0.61931 0.26056 0.64245 0.0
C957 C 0.6019 0.25578 0.59447 0.0
C958 C 0.58464 0.27125 0.58672 0.0
C959 C 0.58473 0.29099 0.6262 0.0
H960 H 0.40813 0.09188 0.50077 0.0
H961 H 0.35248 0.13686 0.48939 0.0
H962 H 0.40956 0.09662 0.6309 0.0
H963 H 0.35341 0.14105 0.62009 0.0
H964 H 0.39028 0.09191 0.86965 0.0
H965 H 0.39035 0.08759 0.73901 0.0
H966 H 0.37474 0.15716 0.71473 0.0
H967 H 0.37396 0.16126 0.84524 0.0
C968 C 0.39605 0.10264 0.52612 0.0
C969 C 0.38017 0.11399 0.48464 0.0
C970 C 0.39681 0.10528 0.60093 0.0
C971 C 0.38162 0.11924 0.63626 0.0
C972 C 0.36562 0.13047 0.59469 0.0
C973 C 0.36497 0.12794 0.51974 0.0
C974 C 0.38708 0.10632 0.83638 0.0
C975 C 0.38206 0.12691 0.86785 0.0
C976 C 0.38716 0.10386 0.76137 0.0
C977 C 0.38238 0.12199 0.71609 0.0
C978 C 0.37802 0.14273 0.74779 0.0
C979 C 0.37777 0.14513 0.82271 0.0
H980 H 0.09511 0.6174 0.50131 0.0
H981 H 0.16548 0.62855 0.52497 0.0
H982 H 0.09931 0.61679 0.3707 0.0
H983 H 0.16987 0.62706 0.39466 0.0
H984 H 0.16626 0.64894 0.16082 0.0
H985 H 0.16227 0.64809 0.29075 0.0
H986 H 0.1133 0.59606 0.2714 0.0
H987 H 0.11671 0.59759 0.1402 0.0
C988 C 0.11151 0.61958 0.47859 0.0
C989 C 0.12994 0.62319 0.52344 0.0
C990 C 0.11395 0.61904 0.40365 0.0
C991 C 0.13493 0.62188 0.37183 0.0
C992 C 0.15339 0.62522 0.41701 0.0
C993 C 0.1509 0.62601 0.49185 0.0
C994 C 0.15472 0.6372 0.18412 0.0
C995 C 0.14181 0.62331 0.14008 0.0
C996 C 0.15252 0.63662 0.25894 0.0
C997 C 0.13751 0.62197 0.29194 0.0
C998 C 0.1248 0.6078 0.24787 0.0
C999 C 0.12686 0.60853 0.17269 0.0
H1000 H 0.6155 0.91962 0.49516 0.0
H1001 H 0.6311 0.85018 0.46859 0.0
H1002 H 0.61545 0.91494 0.62556 0.0
H1003 H 0.63014 0.84522 0.59876 0.0
H1004 H 0.65148 0.84937 0.83341 0.0
H1005 H 0.65051 0.85365 0.70343 0.0
H1006 H 0.59557 0.89932 0.72357 0.0
H1007 H 0.59721 0.89569 0.85455 0.0
C1008 C 0.61878 0.90332 0.51722 0.0
C1009 C 0.62344 0.8853 0.47165 0.0
C1010 C 0.61856 0.90057 0.59202 0.0
C1011 C 0.62276 0.87969 0.62296 0.0
C1012 C 0.62723 0.86163 0.57707 0.0
C1013 C 0.6277 0.86444 0.50234 0.0
C1014 C 0.63908 0.86023 0.81018 0.0
C1015 C 0.62441 0.8722 0.85431 0.0
C1016 C 0.63845 0.86261 0.73541 0.0
C1017 C 0.62295 0.87682 0.70269 0.0
C1018 C 0.60798 0.88851 0.74689 0.0
C1019 C 0.60879 0.88631 0.82194 0.0
H1020 H 0.88233 0.39482 0.15268 0.0
H1021 H 0.83144 0.34699 0.20491 0.0
H1022 H 0.88528 0.40469 0.28013 0.0
H1023 H 0.83504 0.35601 0.3314 0.0
H1024 H 0.83336 0.38591 0.55039 0.0
H1025 H 0.82832 0.38245 0.42081 0.0
H1026 H 0.89901 0.3898 0.38987 0.0
H1027 H 0.90382 0.39437 0.51954 0.0
C1028 C 0.87172 0.3865 0.19128 0.0
C1029 C 0.85666 0.37014 0.16872 0.0
C1030 C 0.87353 0.39201 0.26436 0.0
C1031 C 0.86044 0.38112 0.31631 0.0
C1032 C 0.8451 0.36509 0.29312 0.0
C1033 C 0.84313 0.35979 0.22032 0.0
C1034 C 0.8478 0.38689 0.5158 0.0
C1035 C 0.869 0.3902 0.54503 0.0
C1036 C 0.84494 0.38482 0.44147 0.0
C1037 C 0.86328 0.38559 0.39467 0.0
C1038 C 0.88446 0.3894 0.42401 0.0
C1039 C 0.88726 0.39184 0.49841 0.0
H1040 H 0.37507 0.32213 0.4289 0.0
H1041 H 0.39187 0.39142 0.4064 0.0
H1042 H 0.37611 0.3258 0.55944 0.0
H1043 H 0.3922 0.39533 0.5373 0.0
H1044 H 0.41007 0.38993 0.77575 0.0
H1045 H 0.41135 0.38582 0.64533 0.0
H1046 H 0.35492 0.3417 0.65443 0.0
H1047 H 0.35415 0.34525 0.7853 0.0
C1048 C 0.37904 0.33816 0.45188 0.0
C1049 C 0.38337 0.35649 0.40727 0.0
C1050 C 0.37944 0.34032 0.52684 0.0
C1051 C 0.38398 0.36092 0.55917 0.0
C1052 C 0.38885 0.37915 0.51443 0.0
C1053 C 0.38863 0.37694 0.4393 0.0
C1054 C 0.3979 0.37937 0.74994 0.0
C1055 C 0.38201 0.3679 0.79098 0.0
C1056 C 0.39858 0.37709 0.67498 0.0
C1057 C 0.38328 0.36339 0.63909 0.0
C1058 C 0.36724 0.35208 0.68024 0.0
C1059 C 0.36667 0.35423 0.7553 0.0
H1060 H 0.35988 0.63113 0.22696 0.0
H1061 H 0.4088 0.57952 0.25605 0.0
H1062 H 0.35542 0.63384 0.35694 0.0
H1063 H 0.40393 0.58188 0.38644 0.0
H1064 H 0.40771 0.61458 0.61423 0.0
H1065 H 0.41169 0.60701 0.48567 0.0
H1066 H 0.34084 0.6136 0.45845 0.0
H1067 H 0.33694 0.62169 0.58636 0.0
C1068 C 0.36959 0.62025 0.26107 0.0
C1069 C 0.38472 0.60514 0.23111 0.0
C1070 C 0.3669 0.62167 0.33567 0.0
C1071 C 0.37921 0.60796 0.38216 0.0
C1072 C 0.39433 0.5928 0.35219 0.0
C1073 C 0.39706 0.59141 0.27744 0.0
C1074 C 0.39295 0.61402 0.581 0.0
C1075 C 0.37204 0.61895 0.61029 0.0
C1076 C 0.39522 0.60965 0.50729 0.0
C1077 C 0.37661 0.61004 0.46156 0.0
C1078 C 0.35557 0.6137 0.49185 0.0
C1079 C 0.35332 0.61817 0.56529 0.0
H1080 H 0.6468 0.64662 0.76251 0.0
H1081 H 0.58075 0.61896 0.76835 0.0
H1082 H 0.64475 0.6485 0.63068 0.0
H1083 H 0.57868 0.6211 0.63715 0.0
H1084 H 0.57652 0.65274 0.40756 0.0
H1085 H 0.57817 0.65141 0.53942 0.0
H1086 H 0.64226 0.61979 0.52785 0.0
H1087 H 0.64059 0.62083 0.39646 0.0
C1088 C 0.63184 0.64105 0.73575 0.0
C1089 C 0.61399 0.63256 0.77582 0.0
C1090 C 0.63071 0.64203 0.66037 0.0
C1091 C 0.61155 0.63493 0.62375 0.0
C1092 C 0.59358 0.62682 0.66394 0.0
C1093 C 0.59485 0.62549 0.73906 0.0
C1094 C 0.5909 0.6454 0.43316 0.0
C1095 C 0.60837 0.63683 0.39147 0.0
C1096 C 0.59182 0.64462 0.50858 0.0
C1097 C 0.61041 0.63561 0.5438 0.0
C1098 C 0.62785 0.62704 0.50215 0.0
C1099 C 0.62677 0.62748 0.42688 0.0
H1100 H 0.66385 0.37017 0.57487 0.0
H1101 H 0.5948 0.38604 0.6099 0.0
H1102 H 0.65882 0.37509 0.44579 0.0
H1103 H 0.58988 0.39134 0.48041 0.0
H1104 H 0.5844 0.36224 0.24942 0.0
H1105 H 0.5893 0.3649 0.37942 0.0
H1106 H 0.65047 0.40088 0.34768 0.0
H1107 H 0.64578 0.39792 0.21742 0.0
C1108 C 0.64771 0.3752 0.55517 0.0
C1109 C 0.62967 0.37747 0.60251 0.0
C1110 C 0.64485 0.37811 0.48113 0.0
C1111 C 0.62388 0.38333 0.45286 0.0
C1112 C 0.60615 0.38695 0.50061 0.0
C1113 C 0.60902 0.3841 0.5748 0.0
C1114 C 0.59886 0.37078 0.27009 0.0
C1115 C 0.61478 0.37971 0.22307 0.0
C1116 C 0.60156 0.3725 0.34463 0.0
C1117 C 0.62024 0.38318 0.3738 0.0
C1118 C 0.63599 0.3924 0.32678 0.0
C1119 C 0.63329 0.39072 0.25219 0.0
H1120 H 0.89384 0.66204 0.95886 0.0
H1121 H 0.89155 0.59114 0.99075 0.0
H1122 H 0.89279 0.66769 0.08864 0.0
H1123 H 0.8893 0.59671 0.12071 0.0
H1124 H 0.89778 0.61189 0.35688 0.0
H1125 H 0.90678 0.60783 0.22907 0.0
H1126 H 0.86677 0.66549 0.18085 0.0
H1127 H 0.85879 0.67008 0.30758 0.0
C1128 C 0.89297 0.64766 0.99375 0.0
C1129 C 0.89254 0.62616 0.96474 0.0
C1130 C 0.89229 0.65087 0.06823 0.0
C1131 C 0.8907 0.63268 0.1155 0.0
C1132 C 0.89082 0.61113 0.08628 0.0
C1133 C 0.89191 0.60791 0.01169 0.0
C1134 C 0.89129 0.6239 0.31892 0.0
C1135 C 0.87753 0.64126 0.34239 0.0
C1136 C 0.89626 0.62147 0.24557 0.0
C1137 C 0.88741 0.63624 0.19425 0.0
C1138 C 0.87424 0.65398 0.21849 0.0
C1139 C 0.86952 0.65654 0.29152 0.0
H1140 H 0.65066 0.15424 0.6684 0.0
H1141 H 0.60301 0.10106 0.64947 0.0
H1142 H 0.64588 0.15434 0.7982 0.0
H1143 H 0.59882 0.10052 0.78043 0.0
H1144 H 0.57891 0.12203 0.00781 0.0
H1145 H 0.58359 0.12153 0.8773 0.0
H1146 H 0.65369 0.13412 0.90387 0.0
H1147 H 0.64879 0.13548 0.03393 0.0
C1148 C 0.63937 0.14232 0.69208 0.0
C1149 C 0.62722 0.12761 0.64857 0.0
C1150 C 0.6367 0.14231 0.76678 0.0
C1151 C 0.62199 0.12742 0.80011 0.0
C1152 C 0.61005 0.11246 0.75658 0.0
C1153 C 0.61257 0.11263 0.68156 0.0
C1154 C 0.59529 0.12481 0.98566 0.0
C1155 C 0.61345 0.12894 0.03115 0.0
C1156 C 0.59802 0.12432 0.91082 0.0
C1157 C 0.61903 0.12774 0.87981 0.0
C1158 C 0.63719 0.1318 0.9256 0.0
C1159 C 0.63441 0.13252 1.00031 0.0
H1160 H 0.11173 0.40489 0.34474 0.0
H1161 H 0.12279 0.3347 0.31439 0.0
H1162 H 0.1042 0.40892 0.21619 0.0
H1163 H 0.11476 0.33863 0.18645 0.0
H1164 H 0.13148 0.35939 0.95587 0.0
H1165 H 0.13431 0.35469 0.08576 0.0
H1166 H 0.07972 0.40016 0.11613 0.0
H1167 H 0.0772 0.40526 0.98585 0.0
C1168 C 0.11207 0.39024 0.31097 0.0
C1169 C 0.1181 0.36952 0.33964 0.0
C1170 C 0.10772 0.39254 0.23724 0.0
C1171 C 0.10923 0.37415 0.1908 0.0
C1172 C 0.11398 0.35322 0.22041 0.0
C1173 C 0.11841 0.35094 0.2939 0.0
C1174 C 0.12007 0.36839 0.99015 0.0
C1175 C 0.10415 0.38273 0.96044 0.0
C1176 C 0.12156 0.36555 0.0647 0.0
C1177 C 0.10713 0.37693 0.11142 0.0
C1178 C 0.0912 0.39129 0.08171 0.0
C1179 C 0.08972 0.39415 0.00702 0.0
H1180 H 0.40276 0.90781 0.00459 0.0
H1181 H 0.36226 0.84882 0.0169 0.0
H1182 H 0.39828 0.90835 0.87409 0.0
H1183 H 0.35839 0.8489 0.88628 0.0
H1184 H 0.33703 0.86645 0.66099 0.0
H1185 H 0.34073 0.86881 0.79134 0.0
H1186 H 0.40907 0.88907 0.76696 0.0
H1187 H 0.4051 0.8874 0.63621 0.0
C1188 C 0.39305 0.89484 0.97938 0.0
C1189 C 0.38284 0.87828 0.0211 0.0
C1190 C 0.39056 0.8951 0.90448 0.0
C1191 C 0.37792 0.87872 0.86955 0.0
C1192 C 0.36788 0.86204 0.91141 0.0
C1193 C 0.37024 0.86187 0.98632 0.0
C1194 C 0.35279 0.8716 0.68344 0.0
C1195 C 0.3708 0.87667 0.63835 0.0
C1196 C 0.35497 0.87278 0.75824 0.0
C1197 C 0.37528 0.87886 0.78981 0.0
C1198 C 0.39313 0.88452 0.74455 0.0
C1199 C 0.39088 0.88352 0.66957 0.0
H1200 H 0.86772 0.85644 0.2947 0.0
H1201 H 0.92147 0.90318 0.26898 0.0
H1202 H 0.86563 0.85203 0.16464 0.0
H1203 H 0.91969 0.89837 0.13842 0.0
H1204 H 0.88768 0.9035 0.90923 0.0
H1205 H 0.89524 0.90715 0.03788 0.0
H1206 H 0.88605 0.83655 0.0646 0.0
H1207 H 0.87796 0.83299 0.93658 0.0
C1208 C 0.87919 0.86569 0.26131 0.0
C1209 C 0.89472 0.8802 0.29222 0.0
C1210 C 0.87813 0.86301 0.18669 0.0
C1211 C 0.89263 0.87471 0.14113 0.0
C1212 C 0.90819 0.88923 0.17201 0.0
C1213 C 0.90924 0.89194 0.24681 0.0
C1214 C 0.88769 0.88871 0.94236 0.0
C1215 C 0.88195 0.868 0.91297 0.0
C1216 C 0.89205 0.89079 0.0161 0.0
C1217 C 0.89087 0.87218 0.06169 0.0
C1218 C 0.88655 0.85128 0.03125 0.0
C1219 C 0.88208 0.84922 0.95777 0.0
H1220 H 0.89543 0.10751 0.11693 0.0
H1221 H 0.82587 0.12301 0.09364 0.0
H1222 H 0.89921 0.10609 0.98602 0.0
H1223 H 0.82943 0.12089 0.96324 0.0
H1224 H 0.84876 0.14277 0.73755 0.0
H1225 H 0.84527 0.14226 0.86826 0.0
H1226 H 0.88971 0.0861 0.87868 0.0
H1227 H 0.89375 0.0871 0.74804 0.0
C1228 C 0.88088 0.11022 0.08388 0.0
C1229 C 0.86039 0.11551 0.11556 0.0
C1230 C 0.88301 0.10936 0.00882 0.0
C1231 C 0.86467 0.11361 0.96395 0.0
C1232 C 0.84402 0.11805 0.99601 0.0
C1233 C 0.84194 0.11909 0.07085 0.0
C1234 C 0.85781 0.13034 0.76774 0.0
C1235 C 0.87154 0.115 0.73241 0.0
C1236 C 0.85569 0.12992 0.84272 0.0
C1237 C 0.8671 0.11404 0.88413 0.0
C1238 C 0.88088 0.09872 0.84866 0.0
C1239 C 0.88312 0.09924 0.77367 0.0
H1240 H 0.13684 0.11081 0.91816 0.0
H1241 H 0.09804 0.171 0.90929 0.0
H1242 H 0.13091 0.10879 0.04824 0.0
H1243 H 0.09169 0.16857 0.03968 0.0
H1244 H 0.06882 0.13699 0.26299 0.0
H1245 H 0.07275 0.13903 0.13178 0.0
H1246 H 0.14392 0.13684 0.15392 0.0
H1247 H 0.1401 0.13533 0.28533 0.0
C1248 C 0.12668 0.12337 0.94369 0.0
C1249 C 0.11786 0.14107 0.90347 0.0
C1250 C 0.12347 0.12229 0.01819 0.0
C1251 C 0.111 0.13861 0.05372 0.0
C1252 C 0.10137 0.15579 0.0133 0.0
C1253 C 0.10498 0.15716 0.93888 0.0
C1254 C 0.08531 0.13703 0.23987 0.0
C1255 C 0.10417 0.13599 0.28434 0.0
C1256 C 0.08752 0.13827 0.16494 0.0
C1257 C 0.10861 0.13798 0.13307 0.0
C1258 C 0.12748 0.13693 0.17739 0.0
C1259 C 0.12529 0.13619 0.25243 0.0
H1260 H 0.10727 0.91955 0.74359 0.0
H1261 H 0.15317 0.86558 0.70845 0.0
H1262 H 0.11191 0.91548 0.87357 0.0
H1263 H 0.15735 0.86114 0.83807 0.0
H1264 H 0.17668 0.87045 0.06921 0.0
H1265 H 0.17306 0.87913 0.94164 0.0
H1266 H 0.10285 0.8903 0.97065 0.0
H1267 H 0.1066 0.88216 0.09892 0.0
C1268 C 0.11829 0.90676 0.76356 0.0
C1269 C 0.12987 0.89289 0.71561 0.0
C1270 C 0.12087 0.90438 0.83811 0.0
C1271 C 0.13507 0.88805 0.86637 0.0
C1272 C 0.1466 0.87417 0.81825 0.0
C1273 C 0.14407 0.8766 0.74383 0.0
C1274 C 0.16051 0.87504 0.04859 0.0
C1275 C 0.1419 0.87549 0.09411 0.0
C1276 C 0.1584 0.87985 0.97529 0.0
C1277 C 0.13761 0.88508 0.94559 0.0
C1278 C 0.11914 0.88647 0.99176 0.0
C1279 C 0.12128 0.88177 0.06532 0.0
loop_
_geom_bond_atom_site_label_1
_geom_bond_atom_site_label_2
_geom_bond_distance
_geom_bond_site_symmetry_2
_ccdc_geom_bond_type
Zn0 O6 1.969 1_554 S
Zn0 O7 1.965 . S
Zn0 O11 2.024 . S
Zn0 O16 1.969 . S
Zn1 O8 1.969 . S
Zn1 O14 1.969 . S
Zn1 O15 1.965 . S
Zn1 O17 2.024 . S
C2 O3 1.229 1_554 S
C2 O11 1.058 . S
O3 C2 1.229 1_556 S
C4 O5 1.229 . S
C4 O17 1.058 . S
O5 C4 1.229 . S
O6 Zn0 1.969 1_556 S
O6 C9 1.267 . S
O7 Zn0 1.965 . S
O7 C18 1.260 . S
O8 Zn1 1.969 . S
O8 C18 1.258 . S
C9 O6 1.267 . S
C9 O10 1.228 . S
O10 C9 1.228 . S
O11 Zn0 2.024 . S
O11 C2 1.058 . S
C12 O13 1.228 . S
C12 O14 1.267 . S
O13 C12 1.228 . S
O14 Zn1 1.969 . S
O14 C12 1.267 . S
O15 Zn1 1.965 . S
O15 C19 1.260 . S
O16 Zn0 1.969 . S
O16 C19 1.258 . S
O17 Zn1 2.024 . S
O17 C4 1.058 . S
C18 O7 1.260 . S
C18 O8 1.258 . S
C19 O15 1.260 . S
C19 O16 1.258 . S
Zn20 O26 1.969 . S
Zn20 O27 1.965 . S
Zn20 O31 2.024 . S
Zn20 O36 1.969 . S
Zn21 O28 1.969 . S
Zn21 O34 1.969 1_556 S
Zn21 O35 1.965 . S
Zn21 O37 2.024 . S
C22 O23 1.229 . S
C22 O31 1.058 . S
O23 C22 1.229 . S
C24 O25 1.229 1_556 S
C24 O37 1.058 . S
O25 C24 1.229 1_554 S
O26 Zn20 1.969 . S
O26 C29 1.267 . S
O27 Zn20 1.965 . S
O27 C38 1.260 . S
O28 Zn21 1.969 . S
O28 C38 1.258 . S
C29 O26 1.267 . S
C29 O30 1.228 . S
O30 C29 1.228 . S
O31 Zn20 2.024 . S
O31 C22 1.058 . S
C32 O33 1.228 . S
C32 O34 1.267 . S
O33 C32 1.228 . S
O34 Zn21 1.969 1_554 S
O34 C32 1.267 . S
O35 Zn21 1.965 . S
O35 C39 1.260 . S
O36 Zn20 1.969 . S
O36 C39 1.258 . S
O37 Zn21 2.024 . S
O37 C24 1.058 . S
C38 O27 1.260 . S
C38 O28 1.258 . S
C39 O35 1.260 . S
C39 O36 1.258 . S
Zn40 O46 1.969 1_554 S
Zn40 O47 1.965 . S
Zn40 O51 2.024 . S
Zn40 O56 1.969 . S
Zn41 O48 1.969 . S
Zn41 O54 1.969 . S
Zn41 O55 1.965 . S
Zn41 O57 2.024 . S
C42 O43 1.229 1_554 S
C42 O51 1.058 . S
O43 C42 1.229 1_556 S
C44 O45 1.229 . S
C44 O57 1.058 . S
O45 C44 1.229 . S
O46 Zn40 1.969 1_556 S
O46 C49 1.267 . S
O47 Zn40 1.965 . S
O47 C58 1.260 . S
O48 Zn41 1.969 . S
O48 C58 1.258 . S
C49 O46 1.267 . S
C49 O50 1.228 . S
O50 C49 1.228 . S
O51 Zn40 2.024 . S
O51 C42 1.058 . S
C52 O53 1.228 . S
C52 O54 1.267 . S
O53 C52 1.228 . S
O54 Zn41 1.969 . S
O54 C52 1.267 . S
O55 Zn41 1.965 . S
O55 C59 1.260 . S
O56 Zn40 1.969 . S
O56 C59 1.258 . S
O57 Zn41 2.024 . S
O57 C44 1.058 . S
C58 O47 1.260 . S
C58 O48 1.258 . S
C59 O55 1.260 . S
C59 O56 1.258 . S
Zn60 O66 1.969 . S
Zn60 O67 1.965 . S
Zn60 O71 2.024 . S
Zn60 O76 1.969 . S
Zn61 O68 1.969 . S
Zn61 O74 1.969 1_556 S
Zn61 O75 1.965 . S
Zn61 O77 2.024 . S
C62 O63 1.229 . S
C62 O71 1.058 . S
O63 C62 1.229 . S
C64 O65 1.229 1_556 S
C64 O77 1.058 . S
O65 C64 1.229 1_554 S
O66 Zn60 1.969 . S
O66 C69 1.267 . S
O67 Zn60 1.965 . S
O67 C78 1.260 . S
O68 Zn61 1.969 . S
O68 C78 1.258 . S
C69 O66 1.267 . S
C69 O70 1.228 . S
O70 C69 1.228 . S
O71 Zn60 2.024 . S
O71 C62 1.058 . S
C72 O73 1.228 . S
C72 O74 1.267 . S
O73 C72 1.228 . S
O74 Zn61 1.969 1_554 S
O74 C72 1.267 . S
O75 Zn61 1.965 . S
O75 C79 1.260 . S
O76 Zn60 1.969 . S
O76 C79 1.258 . S
O77 Zn61 2.024 . S
O77 C64 1.058 . S
C78 O67 1.260 . S
C78 O68 1.258 . S
C79 O75 1.260 . S
C79 O76 1.258 . S
Zn80 O86 1.969 . S
Zn80 O87 1.965 . S
Zn80 O91 2.024 . S
Zn80 O96 1.969 . S
Zn81 O88 1.969 . S
Zn81 O94 1.969 1_554 S
Zn81 O95 1.965 . S
Zn81 O97 2.024 . S
C82 O83 1.229 . S
C82 O91 1.058 . S
O83 C82 1.229 . S
C84 O85 1.229 1_554 S
C84 O97 1.058 . S
O85 C84 1.229 1_556 S
O86 Zn80 1.969 . S
O86 C89 1.267 . S
O87 Zn80 1.965 . S
O87 C98 1.260 . S
O88 Zn81 1.969 . S
O88 C98 1.258 . S
C89 O86 1.267 . S
C89 O90 1.228 . S
O90 C89 1.228 . S
O91 Zn80 2.024 . S
O91 C82 1.058 . S
C92 O93 1.228 . S
C92 O94 1.267 . S
O93 C92 1.228 . S
O94 Zn81 1.969 1_556 S
O94 C92 1.267 . S
O95 Zn81 1.965 . S
O95 C99 1.260 . S
O96 Zn80 1.969 . S
O96 C99 1.258 . S
O97 Zn81 2.024 . S
O97 C84 1.058 . S
C98 O87 1.260 . S
C98 O88 1.258 . S
C99 O95 1.260 . S
C99 O96 1.258 . S
Zn100 O106 1.969 1_556 S
Zn100 O107 1.965 . S
Zn100 O111 2.024 . S
Zn100 O116 1.969 . S
Zn101 O108 1.969 . S
Zn101 O114 1.969 . S
Zn101 O115 1.965 . S
Zn101 O117 2.024 . S
C102 O103 1.229 1_556 S
C102 O111 1.058 . S
O103 C102 1.229 1_554 S
C104 O105 1.229 . S
C104 O117 1.058 . S
O105 C104 1.229 . S
O106 Zn100 1.969 1_554 S
O106 C109 1.267 . S
O107 Zn100 1.965 . S
O107 C118 1.260 . S
O108 Zn101 1.969 . S
O108 C118 1.258 . S
C109 O106 1.267 . S
C109 O110 1.228 . S
O110 C109 1.228 . S
O111 Zn100 2.024 . S
O111 C102 1.058 . S
C112 O113 1.228 . S
C112 O114 1.267 . S
O113 C112 1.228 . S
O114 Zn101 1.969 . S
O114 C112 1.267 . S
O115 Zn101 1.965 . S
O115 C119 1.260 . S
O116 Zn100 1.969 . S
O116 C119 1.258 . S
O117 Zn101 2.024 . S
O117 C104 1.058 . S
C118 O107 1.260 . S
C118 O108 1.258 . S
C119 O115 1.260 . S
C119 O116 1.258 . S
Zn120 O126 1.969 . S
Zn120 O127 1.965 . S
Zn120 O131 2.024 . S
Zn120 O136 1.969 . S
Zn121 O128 1.969 . S
Zn121 O134 1.969 1_554 S
Zn121 O135 1.965 . S
Zn121 O137 2.024 . S
C122 O123 1.229 . S
C122 O131 1.058 . S
O123 C122 1.229 . S
C124 O125 1.229 1_554 S
C124 O137 1.058 . S
O125 C124 1.229 1_556 S
O126 Zn120 1.969 . S
O126 C129 1.267 . S
O127 Zn120 1.965 . S
O127 C138 1.260 . S
O128 Zn121 1.969 . S
O128 C138 1.258 . S
C129 O126 1.267 . S
C129 O130 1.228 . S
O130 C129 1.228 . S
O131 Zn120 2.024 . S
O131 C122 1.058 . S
C132 O133 1.228 . S
C132 O134 1.267 . S
O133 C132 1.228 . S
O134 Zn121 1.969 1_556 S
O134 C132 1.267 . S
O135 Zn121 1.965 . S
O135 C139 1.260 . S
O136 Zn120 1.969 . S
O136 C139 1.258 . S
O137 Zn121 2.024 . S
O137 C124 1.058 . S
C138 O127 1.260 . S
C138 O128 1.258 . S
C139 O135 1.260 . S
C139 O136 1.258 . S
Zn140 O146 1.969 1_556 S
Zn140 O147 1.965 . S
Zn140 O151 2.024 . S
Zn140 O156 1.969 . S
Zn141 O148 1.969 . S
Zn141 O154 1.969 . S
Zn141 O155 1.965 . S
Zn141 O157 2.024 . S
C142 O143 1.229 1_556 S
C142 O151 1.058 . S
O143 C142 1.229 1_554 S
C144 O145 1.229 . S
C144 O157 1.058 . S
O145 C144 1.229 . S
O146 Zn140 1.969 1_554 S
O146 C149 1.267 . S
O147 Zn140 1.965 . S
O147 C158 1.260 . S
O148 Zn141 1.969 . S
O148 C158 1.258 . S
C149 O146 1.267 . S
C149 O150 1.228 . S
O150 C149 1.228 . S
O151 Zn140 2.024 . S
O151 C142 1.058 . S
C152 O153 1.228 . S
C152 O154 1.267 . S
O153 C152 1.228 . S
O154 Zn141 1.969 . S
O154 C152 1.267 . S
O155 Zn141 1.965 . S
O155 C159 1.260 . S
O156 Zn140 1.969 . S
O156 C159 1.258 . S
O157 Zn141 2.024 . S
O157 C144 1.058 . S
C158 O147 1.260 . S
C158 O148 1.258 . S
C159 O155 1.260 . S
C159 O156 1.258 . S
Zn160 O166 1.969 . S
Zn160 O167 1.965 . S
Zn160 O171 2.024 . S
Zn160 O176 1.969 . S
Zn161 O168 1.969 . S
Zn161 O174 1.969 . S
Zn161 O175 1.965 . S
Zn161 O177 2.024 . S
C162 O163 1.229 . S
C162 O171 1.058 . S
O163 C162 1.229 . S
C164 O165 1.229 . S
C164 O177 1.058 . S
O165 C164 1.229 . S
O166 Zn160 1.969 . S
O166 C169 1.267 . S
O167 Zn160 1.965 . S
O167 C178 1.260 . S
O168 Zn161 1.969 . S
O168 C178 1.258 . S
C169 O166 1.267 . S
C169 O170 1.228 . S
O170 C169 1.228 . S
O171 Zn160 2.024 . S
O171 C162 1.058 . S
C172 O173 1.228 . S
C172 O174 1.267 . S
O173 C172 1.228 . S
O174 Zn161 1.969 . S
O174 C172 1.267 . S
O175 Zn161 1.965 . S
O175 C179 1.260 . S
O176 Zn160 1.969 . S
O176 C179 1.258 . S
O177 Zn161 2.024 . S
O177 C164 1.058 . S
C178 O167 1.260 . S
C178 O168 1.258 . S
C179 O175 1.260 . S
C179 O176 1.258 . S
Zn180 O186 1.969 . S
Zn180 O187 1.965 . S
Zn180 O191 2.024 . S
Zn180 O196 1.969 . S
Zn181 O188 1.969 . S
Zn181 O194 1.969 . S
Zn181 O195 1.965 . S
Zn181 O197 2.024 . S
C182 O183 1.229 . S
C182 O191 1.058 . S
O183 C182 1.229 . S
C184 O185 1.229 . S
C184 O197 1.058 . S
O185 C184 1.229 . S
O186 Zn180 1.969 . S
O186 C189 1.267 . S
O187 Zn180 1.965 . S
O187 C198 1.260 . S
O188 Zn181 1.969 . S
O188 C198 1.258 . S
C189 O186 1.267 . S
C189 O190 1.228 . S
O190 C189 1.228 . S
O191 Zn180 2.024 . S
O191 C182 1.058 . S
C192 O193 1.228 . S
C192 O194 1.267 . S
O193 C192 1.228 . S
O194 Zn181 1.969 . S
O194 C192 1.267 . S
O195 Zn181 1.965 . S
O195 C199 1.260 . S
O196 Zn180 1.969 . S
O196 C199 1.258 . S
O197 Zn181 2.024 . S
O197 C184 1.058 . S
C198 O187 1.260 . S
C198 O188 1.258 . S
C199 O195 1.260 . S
C199 O196 1.258 . S
Zn200 O206 1.969 . S
Zn200 O207 1.965 . S
Zn200 O211 2.024 . S
Zn200 O216 1.969 . S
Zn201 O208 1.969 . S
Zn201 O214 1.969 . S
Zn201 O215 1.965 . S
Zn201 O217 2.024 . S
C202 O203 1.229 . S
C202 O211 1.058 . S
O203 C202 1.229 . S
C204 O205 1.229 . S
C204 O217 1.058 . S
O205 C204 1.229 . S
O206 Zn200 1.969 . S
O206 C209 1.267 . S
O207 Zn200 1.965 . S
O207 C218 1.260 . S
O208 Zn201 1.969 . S
O208 C218 1.258 . S
C209 O206 1.267 . S
C209 O210 1.228 . S
O210 C209 1.228 . S
O211 Zn200 2.024 . S
O211 C202 1.058 . S
C212 O213 1.228 . S
C212 O214 1.267 . S
O213 C212 1.228 . S
O214 Zn201 1.969 . S
O214 C212 1.267 . S
O215 Zn201 1.965 . S
O215 C219 1.260 . S
O216 Zn200 1.969 . S
O216 C219 1.258 . S
O217 Zn201 2.024 . S
O217 C204 1.058 . S
C218 O207 1.260 . S
C218 O208 1.258 . S
C219 O215 1.260 . S
C219 O216 1.258 . S
Zn220 O226 1.969 . S
Zn220 O227 1.965 . S
Zn220 O231 2.024 . S
Zn220 O236 1.969 . S
Zn221 O228 1.969 . S
Zn221 O234 1.969 . S
Zn221 O235 1.965 . S
Zn221 O237 2.024 . S
C222 O223 1.229 . S
C222 O231 1.058 . S
O223 C222 1.229 . S
C224 O225 1.229 . S
C224 O237 1.058 . S
O225 C224 1.229 . S
O226 Zn220 1.969 . S
O226 C229 1.267 . S
O227 Zn220 1.965 . S
O227 C238 1.260 . S
O228 Zn221 1.969 . S
O228 C238 1.258 . S
C229 O226 1.267 . S
C229 O230 1.228 . S
O230 C229 1.228 . S
O231 Zn220 2.024 . S
O231 C222 1.058 . S
C232 O233 1.228 . S
C232 O234 1.267 . S
O233 C232 1.228 . S
O234 Zn221 1.969 . S
O234 C232 1.267 . S
O235 Zn221 1.965 . S
O235 C239 1.260 . S
O236 Zn220 1.969 . S
O236 C239 1.258 . S
O237 Zn221 2.024 . S
O237 C224 1.058 . S
C238 O227 1.260 . S
C238 O228 1.258 . S
C239 O235 1.260 . S
C239 O236 1.258 . S
Zn240 O246 1.969 . S
Zn240 O247 1.965 . S
Zn240 O251 2.024 . S
Zn240 O256 1.969 . S
Zn241 O248 1.969 . S
Zn241 O254 1.969 . S
Zn241 O255 1.965 . S
Zn241 O257 2.024 . S
C242 O243 1.229 . S
C242 O251 1.058 . S
O243 C242 1.229 . S
C244 O245 1.229 . S
C244 O257 1.058 . S
O245 C244 1.229 . S
O246 Zn240 1.969 . S
O246 C249 1.267 . S
O247 Zn240 1.965 . S
O247 C258 1.260 . S
O248 Zn241 1.969 . S
O248 C258 1.258 . S
C249 O246 1.267 . S
C249 O250 1.228 . S
O250 C249 1.228 . S
O251 Zn240 2.024 . S
O251 C242 1.058 . S
C252 O253 1.228 . S
C252 O254 1.267 . S
O253 C252 1.228 . S
O254 Zn241 1.969 . S
O254 C252 1.267 . S
O255 Zn241 1.965 . S
O255 C259 1.260 . S
O256 Zn240 1.969 . S
O256 C259 1.258 . S
O257 Zn241 2.024 . S
O257 C244 1.058 . S
C258 O247 1.260 . S
C258 O248 1.258 . S
C259 O255 1.260 . S
C259 O256 1.258 . S
Zn260 O266 1.969 . S
Zn260 O267 1.965 . S
Zn260 O271 2.024 . S
Zn260 O276 1.969 . S
Zn261 O268 1.969 . S
Zn261 O274 1.969 . S
Zn261 O275 1.965 . S
Zn261 O277 2.024 . S
C262 O263 1.229 . S
C262 O271 1.058 . S
O263 C262 1.229 . S
C264 O265 1.229 . S
C264 O277 1.058 . S
O265 C264 1.229 . S
O266 Zn260 1.969 . S
O266 C269 1.267 . S
O267 Zn260 1.965 . S
O267 C278 1.260 . S
O268 Zn261 1.969 . S
O268 C278 1.258 . S
C269 O266 1.267 . S
C269 O270 1.228 . S
O270 C269 1.228 . S
O271 Zn260 2.024 . S
O271 C262 1.058 . S
C272 O273 1.228 . S
C272 O274 1.267 . S
O273 C272 1.228 . S
O274 Zn261 1.969 . S
O274 C272 1.267 . S
O275 Zn261 1.965 . S
O275 C279 1.260 . S
O276 Zn260 1.969 . S
O276 C279 1.258 . S
O277 Zn261 2.024 . S
O277 C264 1.058 . S
C278 O267 1.260 . S
C278 O268 1.258 . S
C279 O275 1.260 . S
C279 O276 1.258 . S
Zn280 O286 1.969 . S
Zn280 O287 1.965 . S
Zn280 O291 2.024 . S
Zn280 O296 1.969 . S
Zn281 O288 1.969 . S
Zn281 O294 1.969 . S
Zn281 O295 1.965 . S
Zn281 O297 2.024 . S
C282 O283 1.229 . S
C282 O291 1.058 . S
O283 C282 1.229 . S
C284 O285 1.229 . S
C284 O297 1.058 . S
O285 C284 1.229 . S
O286 Zn280 1.969 . S
O286 C289 1.267 . S
O287 Zn280 1.965 . S
O287 C298 1.260 . S
O288 Zn281 1.969 . S
O288 C298 1.258 . S
C289 O286 1.267 . S
C289 O290 1.228 . S
O290 C289 1.228 . S
O291 Zn280 2.024 . S
O291 C282 1.058 . S
C292 O293 1.228 . S
C292 O294 1.267 . S
O293 C292 1.228 . S
O294 Zn281 1.969 . S
O294 C292 1.267 . S
O295 Zn281 1.965 . S
O295 C299 1.260 . S
O296 Zn280 1.969 . S
O296 C299 1.258 . S
O297 Zn281 2.024 . S
O297 C284 1.058 . S
C298 O287 1.260 . S
C298 O288 1.258 . S
C299 O295 1.260 . S
C299 O296 1.258 . S
Zn300 O306 1.969 . S
Zn300 O307 1.965 . S
Zn300 O311 2.024 . S
Zn300 O316 1.969 . S
Zn301 O308 1.969 . S
Zn301 O314 1.969 . S
Zn301 O315 1.965 . S
Zn301 O317 2.024 . S
C302 O303 1.229 . S
C302 O311 1.058 . S
O303 C302 1.229 . S
C304 O305 1.229 . S
C304 O317 1.058 . S
O305 C304 1.229 . S
O306 Zn300 1.969 . S
O306 C309 1.267 . S
O307 Zn300 1.965 . S
O307 C318 1.260 . S
O308 Zn301 1.969 . S
O308 C318 1.258 . S
C309 O306 1.267 . S
C309 O310 1.228 . S
O310 C309 1.228 . S
O311 Zn300 2.024 . S
O311 C302 1.058 . S
C312 O313 1.228 . S
C312 O314 1.267 . S
O313 C312 1.228 . S
O314 Zn301 1.969 . S
O314 C312 1.267 . S
O315 Zn301 1.965 . S
O315 C319 1.260 . S
O316 Zn300 1.969 . S
O316 C319 1.258 . S
O317 Zn301 2.024 . S
O317 C304 1.058 . S
C318 O307 1.260 . S
C318 O308 1.258 . S
C319 O315 1.260 . S
C319 O316 1.258 . S
H320 C328 0.950 . S
H321 C333 0.950 . S
H322 C330 0.960 . S
H323 C332 0.950 1_545 S
H324 C334 0.950 . S
H325 C336 0.950 . S
H326 C338 0.950 . S
H327 C339 0.950 . S
C328 H320 0.950 . S
C328 C329 1.386 . S
C328 C330 1.391 . S
C329 C328 1.386 . S
C329 C333 1.393 . S
C330 H322 0.960 . S
C330 C328 1.391 . S
C330 C331 1.400 1_565 S
C331 C330 1.400 1_545 S
C331 C332 1.398 1_545 S
C331 C337 1.491 . S
C332 H323 0.950 1_565 S
C332 C331 1.398 1_565 S
C332 C333 1.391 . S
C333 H321 0.950 . S
C333 C329 1.393 . S
C333 C332 1.391 . S
C334 H324 0.950 . S
C334 C335 1.386 . S
C334 C336 1.391 . S
C335 C334 1.386 . S
C335 C339 1.393 . S
C336 H325 0.950 . S
C336 C334 1.391 . S
C336 C337 1.400 . S
C337 C331 1.491 . S
C337 C336 1.400 . S
C337 C338 1.398 . S
C338 H326 0.950 . S
C338 C337 1.398 . S
C338 C339 1.391 . S
C339 H327 0.950 . S
C339 C335 1.393 . S
C339 C338 1.391 . S
H340 C348 0.950 . S
H341 C353 0.950 . S
H342 C350 0.950 . S
H343 C352 0.950 1_455 S
H344 C354 0.950 . S
H345 C356 0.950 . S
H346 C358 0.950 . S
H347 C359 0.950 . S
C348 H340 0.950 . S
C348 C349 1.386 . S
C348 C350 1.391 . S
C349 C348 1.386 . S
C349 C353 1.393 . S
C350 H342 0.950 . S
C350 C348 1.391 . S
C350 C351 1.400 1_655 S
C351 C350 1.400 1_455 S
C351 C352 1.398 1_455 S
C351 C357 1.491 . S
C352 H343 0.950 1_655 S
C352 C351 1.398 1_655 S
C352 C353 1.391 . S
C353 H341 0.950 . S
C353 C349 1.393 . S
C353 C352 1.391 . S
C354 H344 0.950 . S
C354 C355 1.386 . S
C354 C356 1.391 . S
C355 C354 1.386 . S
C355 C359 1.393 . S
C356 H345 0.950 . S
C356 C354 1.391 . S
C356 C357 1.400 . S
C357 C351 1.491 . S
C357 C356 1.400 . S
C357 C358 1.398 . S
C358 H346 0.950 . S
C358 C357 1.398 . S
C358 C359 1.391 . S
C359 H347 0.950 . S
C359 C355 1.393 . S
C359 C358 1.391 . S
H360 C368 0.950 . S
H361 C373 0.950 . S
H362 C370 0.950 . S
H363 C372 0.950 . S
H364 C374 0.950 . S
H365 C376 0.928 1_565 S
H366 C378 0.950 1_565 S
H367 C379 0.950 . S
C368 H360 0.950 . S
C368 C369 1.386 . S
C368 C370 1.391 . S
C369 C368 1.386 . S
C369 C373 1.393 . S
C370 H362 0.950 . S
C370 C368 1.391 . S
C370 C371 1.400 . S
C371 C370 1.400 . S
C371 C372 1.398 . S
C371 C377 1.491 . S
C372 H363 0.950 . S
C372 C371 1.398 . S
C372 C373 1.391 . S
C373 H361 0.950 . S
C373 C369 1.393 . S
C373 C372 1.391 . S
C374 H364 0.950 . S
C374 C375 1.386 . S
C374 C376 1.391 . S
C375 C374 1.386 . S
C375 C379 1.393 . S
C376 H365 0.928 1_545 S
C376 C374 1.391 . S
C376 C377 1.400 1_545 S
C377 C371 1.491 . S
C377 C376 1.400 1_565 S
C377 C378 1.398 1_565 S
C378 H366 0.950 1_545 S
C378 C377 1.398 1_545 S
C378 C379 1.391 . S
C379 H367 0.950 . S
C379 C375 1.393 . S
C379 C378 1.391 . S
H380 C388 0.950 . S
H381 C393 0.950 . S
H382 C390 0.950 . S
H383 C392 0.950 . S
H384 C394 0.950 . S
H385 C396 0.950 . S
H386 C398 0.950 1_655 S
H387 C399 0.950 . S
C388 H380 0.950 . S
C388 C389 1.386 . S
C388 C390 1.391 . S
C389 C388 1.386 . S
C389 C393 1.393 . S
C390 H382 0.950 . S
C390 C388 1.391 . S
C390 C391 1.400 . S
C391 C390 1.400 . S
C391 C392 1.398 . S
C391 C397 1.491 . S
C392 H383 0.950 . S
C392 C391 1.398 . S
C392 C393 1.391 . S
C393 H381 0.950 . S
C393 C389 1.393 . S
C393 C392 1.391 . S
C394 H384 0.950 . S
C394 C395 1.386 . S
C394 C396 1.391 . S
C395 C394 1.386 . S
C395 C399 1.393 . S
C396 H385 0.950 . S
C396 C394 1.391 . S
C396 C397 1.400 1_455 S
C397 C391 1.491 . S
C397 C396 1.400 1_655 S
C397 C398 1.398 1_655 S
C398 H386 0.950 1_455 S
C398 C397 1.398 1_455 S
C398 C399 1.391 . S
C399 H387 0.950 . S
C399 C395 1.393 . S
C399 C398 1.391 . S
H400 C408 0.950 . S
H401 C413 0.950 . S
H402 C410 0.950 . S
H403 C412 0.950 . S
H404 C414 0.950 . S
H405 C416 0.948 1_556 S
H406 C418 0.950 . S
H407 C419 0.950 . S
C408 H400 0.950 . S
C408 C409 1.386 . S
C408 C410 1.391 . S
C409 C408 1.386 . S
C409 C413 1.393 . S
C410 H402 0.950 . S
C410 C408 1.391 . S
C410 C411 1.400 . S
C411 C410 1.400 . S
C411 C412 1.398 . S
C411 C417 1.491 . S
C412 H403 0.950 . S
C412 C411 1.398 . S
C412 C413 1.391 . S
C413 H401 0.950 . S
C413 C409 1.393 . S
C413 C412 1.391 . S
C414 H404 0.950 . S
C414 C415 1.386 . S
C414 C416 1.389 1_556 S
C415 C414 1.386 . S
C415 C419 1.393 1_556 S
C416 H405 0.948 1_554 S
C416 C414 1.389 1_554 S
C416 C417 1.404 . S
C417 C411 1.491 . S
C417 C416 1.404 . S
C417 C418 1.398 . S
C418 H406 0.950 . S
C418 C417 1.398 . S
C418 C419 1.391 . S
C419 H407 0.950 . S
C419 C415 1.393 1_554 S
C419 C418 1.391 . S
H420 C428 0.950 . S
H421 C433 0.950 . S
H422 C430 0.950 . S
H423 C432 0.950 . S
H424 C434 0.950 . S
H425 C436 0.950 . S
H426 C438 0.950 . S
H427 C439 0.950 . S
C428 H420 0.950 . S
C428 C429 1.386 1_556 S
C428 C430 1.391 . S
C429 C428 1.386 1_554 S
C429 C433 1.393 . S
C430 H422 0.950 . S
C430 C428 1.391 . S
C430 C431 1.400 . S
C431 C430 1.400 . S
C431 C432 1.398 . S
C431 C437 1.491 . S
C432 H423 0.950 . S
C432 C431 1.398 . S
C432 C433 1.391 1_556 S
C433 H421 0.950 . S
C433 C429 1.393 . S
C433 C432 1.391 1_554 S
C434 H424 0.950 . S
C434 C435 1.386 . S
C434 C436 1.391 . S
C435 C434 1.386 . S
C435 C439 1.393 . S
C436 H425 0.950 . S
C436 C434 1.391 . S
C436 C437 1.400 . S
C437 C431 1.491 . S
C437 C436 1.400 . S
C437 C438 1.398 . S
C438 H426 0.950 . S
C438 C437 1.398 . S
C438 C439 1.391 . S
C439 H427 0.950 . S
C439 C435 1.393 . S
C439 C438 1.391 . S
H440 C448 0.950 . S
H441 C453 0.950 . S
H442 C450 0.950 . S
H443 C452 0.950 1_556 S
H444 C454 0.950 . S
H445 C456 0.950 . S
H446 C458 0.950 . S
H447 C459 0.950 . S
C448 H440 0.950 . S
C448 C449 1.386 . S
C448 C450 1.391 . S
C449 C448 1.386 . S
C449 C453 1.393 . S
C450 H442 0.950 . S
C450 C448 1.391 . S
C450 C451 1.400 . S
C451 C450 1.400 . S
C451 C452 1.398 . S
C451 C457 1.491 . S
C452 H443 0.950 1_554 S
C452 C451 1.398 . S
C452 C453 1.391 . S
C453 H441 0.950 . S
C453 C449 1.393 . S
C453 C452 1.391 . S
C454 H444 0.950 . S
C454 C455 1.386 . S
C454 C456 1.391 . S
C455 C454 1.386 . S
C455 C459 1.393 1_556 S
C456 H445 0.950 . S
C456 C454 1.391 . S
C456 C457 1.400 1_556 S
C457 C451 1.491 . S
C457 C456 1.400 1_554 S
C457 C458 1.398 . S
C458 H446 0.950 . S
C458 C457 1.398 . S
C458 C459 1.391 . S
C459 H447 0.950 . S
C459 C455 1.393 1_554 S
C459 C458 1.391 . S
H460 C468 0.950 . S
H461 C473 0.950 . S
H462 C470 0.950 . S
H463 C472 0.950 . S
H464 C474 0.950 . S
H465 C476 0.950 . S
H466 C478 0.950 . S
H467 C479 0.950 . S
C468 H460 0.950 . S
C468 C469 1.386 1_556 S
C468 C470 1.391 . S
C469 C468 1.386 1_554 S
C469 C473 1.393 . S
C470 H462 0.950 . S
C470 C468 1.391 . S
C470 C471 1.400 . S
C471 C470 1.400 . S
C471 C472 1.398 1_556 S
C471 C477 1.491 . S
C472 H463 0.950 . S
C472 C471 1.398 1_554 S
C472 C473 1.391 . S
C473 H461 0.950 . S
C473 C469 1.393 . S
C473 C472 1.391 . S
C474 H464 0.950 . S
C474 C475 1.386 . S
C474 C476 1.391 . S
C475 C474 1.386 . S
C475 C479 1.393 . S
C476 H465 0.950 . S
C476 C474 1.391 . S
C476 C477 1.400 . S
C477 C471 1.491 . S
C477 C476 1.400 . S
C477 C478 1.398 . S
C478 H466 0.950 . S
C478 C477 1.398 . S
C478 C479 1.391 . S
C479 H467 0.950 . S
C479 C475 1.393 . S
C479 C478 1.391 . S
H480 C488 0.950 . S
H481 C493 0.950 . S
H482 C490 0.950 . S
H483 C492 0.950 . S
H484 C494 0.950 . S
H485 C496 0.950 . S
H486 C498 0.950 . S
H487 C499 0.950 . S
C488 H480 0.950 . S
C488 C489 1.386 . S
C488 C490 1.391 . S
C489 C488 1.386 . S
C489 C493 1.393 . S
C490 H482 0.950 . S
C490 C488 1.391 . S
C490 C491 1.400 . S
C491 C490 1.400 . S
C491 C492 1.398 . S
C491 C497 1.491 . S
C492 H483 0.950 . S
C492 C491 1.398 . S
C492 C493 1.391 . S
C493 H481 0.950 . S
C493 C489 1.393 . S
C493 C492 1.391 . S
C494 H484 0.950 . S
C494 C495 1.386 . S
C494 C496 1.391 . S
C495 C494 1.386 . S
C495 C499 1.393 . S
C496 H485 0.950 . S
C496 C494 1.391 . S
C496 C497 1.400 . S
C497 C491 1.491 . S
C497 C496 1.400 . S
C497 C498 1.398 . S
C498 H486 0.950 . S
C498 C497 1.398 . S
C498 C499 1.391 . S
C499 H487 0.950 . S
C499 C495 1.393 . S
C499 C498 1.391 . S
H500 C508 0.950 . S
H501 C513 0.950 . S
H502 C510 0.950 . S
H503 C512 0.950 . S
H504 C514 0.950 . S
H505 C516 0.950 . S
H506 C518 0.950 . S
H507 C519 0.950 . S
C508 H500 0.950 . S
C508 C509 1.386 . S
C508 C510 1.391 . S
C509 C508 1.386 . S
C509 C513 1.393 . S
C510 H502 0.950 . S
C510 C508 1.391 . S
C510 C511 1.400 . S
C511 C510 1.400 . S
C511 C512 1.398 . S
C511 C517 1.491 . S
C512 H503 0.950 . S
C512 C511 1.398 . S
C512 C513 1.391 . S
C513 H501 0.950 . S
C513 C509 1.393 . S
C513 C512 1.391 . S
C514 H504 0.950 . S
C514 C515 1.386 . S
C514 C516 1.391 . S
C515 C514 1.386 . S
C515 C519 1.393 . S
C516 H505 0.950 . S
C516 C514 1.391 . S
C516 C517 1.400 . S
C517 C511 1.491 . S
C517 C516 1.400 . S
C517 C518 1.398 . S
C518 H506 0.950 . S
C518 C517 1.398 . S
C518 C519 1.391 . S
C519 H507 0.950 . S
C519 C515 1.393 . S
C519 C518 1.391 . S
H520 C528 0.950 . S
H521 C533 0.950 . S
H522 C530 0.950 . S
H523 C532 0.950 . S
H524 C534 0.950 . S
H525 C536 0.950 . S
H526 C538 0.950 . S
H527 C539 0.950 . S
C528 H520 0.950 . S
C528 C529 1.386 . S
C528 C530 1.391 . S
C529 C528 1.386 . S
C529 C533 1.393 . S
C530 H522 0.950 . S
C530 C528 1.391 . S
C530 C531 1.400 . S
C531 C530 1.400 . S
C531 C532 1.398 . S
C531 C537 1.491 . S
C532 H523 0.950 . S
C532 C531 1.398 . S
C532 C533 1.391 . S
C533 H521 0.950 . S
C533 C529 1.393 . S
C533 C532 1.391 . S
C534 H524 0.950 . S
C534 C535 1.386 . S
C534 C536 1.391 . S
C535 C534 1.386 . S
C535 C539 1.393 . S
C536 H525 0.950 . S
C536 C534 1.391 . S
C536 C537 1.400 . S
C537 C531 1.491 . S
C537 C536 1.400 . S
C537 C538 1.398 . S
C538 H526 0.950 . S
C538 C537 1.398 . S
C538 C539 1.391 . S
C539 H527 0.950 . S
C539 C535 1.393 . S
C539 C538 1.391 . S
H540 C548 0.950 . S
H541 C553 0.950 . S
H542 C550 0.950 . S
H543 C552 0.950 . S
H544 C554 0.950 . S
H545 C556 0.950 . S
H546 C558 0.950 . S
H547 C559 0.950 . S
C548 H540 0.950 . S
C548 C549 1.386 . S
C548 C550 1.391 . S
C549 C548 1.386 . S
C549 C553 1.393 . S
C550 H542 0.950 . S
C550 C548 1.391 . S
C550 C551 1.400 . S
C551 C550 1.400 . S
C551 C552 1.398 . S
C551 C557 1.491 . S
C552 H543 0.950 . S
C552 C551 1.398 . S
C552 C553 1.391 . S
C553 H541 0.950 . S
C553 C549 1.393 . S
C553 C552 1.391 . S
C554 H544 0.950 . S
C554 C555 1.386 . S
C554 C556 1.391 . S
C555 C554 1.386 . S
C555 C559 1.393 . S
C556 H545 0.950 . S
C556 C554 1.391 . S
C556 C557 1.400 . S
C557 C551 1.491 . S
C557 C556 1.400 . S
C557 C558 1.398 . S
C558 H546 0.950 . S
C558 C557 1.398 . S
C558 C559 1.391 . S
C559 H547 0.950 . S
C559 C555 1.393 . S
C559 C558 1.391 . S
H560 C568 0.950 . S
H561 C573 0.950 . S
H562 C570 0.950 . S
H563 C572 0.950 . S
H564 C574 0.950 . S
H565 C576 0.950 . S
H566 C578 0.950 1_565 S
H567 C579 0.950 . S
C568 H560 0.950 . S
C568 C569 1.386 . S
C568 C570 1.391 . S
C569 C568 1.386 . S
C569 C573 1.393 . S
C570 H562 0.950 . S
C570 C568 1.391 . S
C570 C571 1.400 . S
C571 C570 1.400 . S
C571 C572 1.398 . S
C571 C577 1.491 . S
C572 H563 0.950 . S
C572 C571 1.398 . S
C572 C573 1.391 . S
C573 H561 0.950 . S
C573 C569 1.393 . S
C573 C572 1.391 . S
C574 H564 0.950 . S
C574 C575 1.386 . S
C574 C576 1.391 . S
C575 C574 1.386 . S
C575 C579 1.393 . S
C576 H565 0.950 . S
C576 C574 1.391 . S
C576 C577 1.400 1_545 S
C577 C571 1.491 . S
C577 C576 1.400 1_565 S
C577 C578 1.398 1_565 S
C578 H566 0.950 1_545 S
C578 C577 1.398 1_545 S
C578 C579 1.391 . S
C579 H567 0.950 . S
C579 C575 1.393 . S
C579 C578 1.391 . S
H580 C588 0.950 . S
H581 C593 0.950 . S
H582 C590 0.950 . S
H583 C592 0.950 1_655 S
H584 C594 0.950 . S
H585 C596 0.950 . S
H586 C598 0.950 . S
H587 C599 0.950 . S
C588 H580 0.950 . S
C588 C589 1.386 . S
C588 C590 1.391 . S
C589 C588 1.386 . S
C589 C593 1.393 . S
C590 H582 0.950 . S
C590 C588 1.391 . S
C590 C591 1.400 1_455 S
C591 C590 1.400 1_655 S
C591 C592 1.398 1_655 S
C591 C597 1.491 . S
C592 H583 0.950 1_455 S
C592 C591 1.398 1_455 S
C592 C593 1.391 . S
C593 H581 0.950 . S
C593 C589 1.393 . S
C593 C592 1.391 . S
C594 H584 0.950 . S
C594 C595 1.386 . S
C594 C596 1.391 . S
C595 C594 1.386 . S
C595 C599 1.393 . S
C596 H585 0.950 . S
C596 C594 1.391 . S
C596 C597 1.400 . S
C597 C591 1.491 . S
C597 C596 1.400 . S
C597 C598 1.398 . S
C598 H586 0.950 . S
C598 C597 1.398 . S
C598 C599 1.391 . S
C599 H587 0.950 . S
C599 C595 1.393 . S
C599 C598 1.391 . S
H600 C608 0.950 . S
H601 C613 0.950 . S
H602 C610 0.939 1_545 S
H603 C612 0.950 1_545 S
H604 C614 0.950 . S
H605 C616 0.950 . S
H606 C618 0.950 . S
H607 C619 0.950 . S
C608 H600 0.950 . S
C608 C609 1.386 . S
C608 C610 1.391 . S
C609 C608 1.386 . S
C609 C613 1.393 . S
C610 H602 0.939 1_565 S
C610 C608 1.391 . S
C610 C611 1.400 1_565 S
C611 C610 1.400 1_545 S
C611 C612 1.398 1_545 S
C611 C617 1.491 . S
C612 H603 0.950 1_565 S
C612 C611 1.398 1_565 S
C612 C613 1.391 . S
C613 H601 0.950 . S
C613 C609 1.393 . S
C613 C612 1.391 . S
C614 H604 0.950 . S
C614 C615 1.386 . S
C614 C616 1.391 . S
C615 C614 1.386 . S
C615 C619 1.393 . S
C616 H605 0.950 . S
C616 C614 1.391 . S
C616 C617 1.400 . S
C617 C611 1.491 . S
C617 C616 1.400 . S
C617 C618 1.398 . S
C618 H606 0.950 . S
C618 C617 1.398 . S
C618 C619 1.391 . S
C619 H607 0.950 . S
C619 C615 1.393 . S
C619 C618 1.391 . S
H620 C628 0.950 . S
H621 C633 0.950 . S
H622 C630 0.950 . S
H623 C632 0.950 . S
H624 C634 0.950 . S
H625 C636 0.950 . S
H626 C638 0.950 1_455 S
H627 C639 0.950 . S
C628 H620 0.950 . S
C628 C629 1.386 . S
C628 C630 1.391 . S
C629 C628 1.386 . S
C629 C633 1.393 . S
C630 H622 0.950 . S
C630 C628 1.391 . S
C630 C631 1.400 . S
C631 C630 1.400 . S
C631 C632 1.398 . S
C631 C637 1.491 . S
C632 H623 0.950 . S
C632 C631 1.398 . S
C632 C633 1.391 . S
C633 H621 0.950 . S
C633 C629 1.393 . S
C633 C632 1.391 . S
C634 H624 0.950 . S
C634 C635 1.386 . S
C634 C636 1.391 . S
C635 C634 1.386 . S
C635 C639 1.393 . S
C636 H625 0.950 . S
C636 C634 1.391 . S
C636 C637 1.400 1_655 S
C637 C631 1.491 . S
C637 C636 1.400 1_455 S
C637 C638 1.398 1_455 S
C638 H626 0.950 1_655 S
C638 C637 1.398 1_655 S
C638 C639 1.391 . S
C639 H627 0.950 . S
C639 C635 1.393 . S
C639 C638 1.391 . S
H640 C648 0.950 . S
H641 C653 0.950 . S
H642 C650 0.950 . S
H643 C652 0.950 . S
H644 C654 0.950 . S
H645 C656 0.950 . S
H646 C658 0.950 . S
H647 C659 0.950 . S
C648 H640 0.950 . S
C648 C649 1.386 . S
C648 C650 1.391 . S
C649 C648 1.386 . S
C649 C653 1.393 . S
C650 H642 0.950 . S
C650 C648 1.391 . S
C650 C651 1.400 . S
C651 C650 1.400 . S
C651 C652 1.398 . S
C651 C657 1.491 . S
C652 H643 0.950 . S
C652 C651 1.398 . S
C652 C653 1.391 . S
C653 H641 0.950 . S
C653 C649 1.393 . S
C653 C652 1.391 . S
C654 H644 0.950 . S
C654 C655 1.386 . S
C654 C656 1.391 . S
C655 C654 1.386 . S
C655 C659 1.393 . S
C656 H645 0.950 . S
C656 C654 1.391 . S
C656 C657 1.400 . S
C657 C651 1.491 . S
C657 C656 1.400 . S
C657 C658 1.398 . S
C658 H646 0.950 . S
C658 C657 1.398 . S
C658 C659 1.391 . S
C659 H647 0.950 . S
C659 C655 1.393 . S
C659 C658 1.391 . S
H660 C668 0.950 . S
H661 C673 0.950 . S
H662 C670 0.950 . S
H663 C672 0.950 . S
H664 C674 0.950 . S
H665 C676 0.950 . S
H666 C678 0.950 . S
H667 C679 0.950 . S
C668 H660 0.950 . S
C668 C669 1.386 . S
C668 C670 1.391 . S
C669 C668 1.386 . S
C669 C673 1.393 . S
C670 H662 0.950 . S
C670 C668 1.391 . S
C670 C671 1.400 . S
C671 C670 1.400 . S
C671 C672 1.398 . S
C671 C677 1.491 . S
C672 H663 0.950 . S
C672 C671 1.398 . S
C672 C673 1.391 . S
C673 H661 0.950 . S
C673 C669 1.393 . S
C673 C672 1.391 . S
C674 H664 0.950 . S
C674 C675 1.386 . S
C674 C676 1.391 . S
C675 C674 1.386 . S
C675 C679 1.393 . S
C676 H665 0.950 . S
C676 C674 1.391 . S
C676 C677 1.400 . S
C677 C671 1.491 . S
C677 C676 1.400 . S
C677 C678 1.398 . S
C678 H666 0.950 . S
C678 C677 1.398 . S
C678 C679 1.391 . S
C679 H667 0.950 . S
C679 C675 1.393 . S
C679 C678 1.391 . S
H680 C688 0.950 . S
H681 C693 0.950 . S
H682 C690 0.950 . S
H683 C692 0.950 . S
H684 C694 0.950 . S
H685 C696 0.950 . S
H686 C698 0.950 . S
H687 C699 0.950 . S
C688 H680 0.950 . S
C688 C689 1.386 . S
C688 C690 1.391 . S
C689 C688 1.386 . S
C689 C693 1.393 . S
C690 H682 0.950 . S
C690 C688 1.391 . S
C690 C691 1.400 . S
C691 C690 1.400 . S
C691 C692 1.398 . S
C691 C697 1.491 . S
C692 H683 0.950 . S
C692 C691 1.398 . S
C692 C693 1.391 . S
C693 H681 0.950 . S
C693 C689 1.393 . S
C693 C692 1.391 . S
C694 H684 0.950 . S
C694 C695 1.386 . S
C694 C696 1.391 . S
C695 C694 1.386 . S
C695 C699 1.393 . S
C696 H685 0.950 . S
C696 C694 1.391 . S
C696 C697 1.400 . S
C697 C691 1.491 . S
C697 C696 1.400 . S
C697 C698 1.398 . S
C698 H686 0.950 . S
C698 C697 1.398 . S
C698 C699 1.391 . S
C699 H687 0.950 . S
C699 C695 1.393 . S
C699 C698 1.391 . S
H700 C708 0.950 . S
H701 C713 0.950 . S
H702 C710 0.950 . S
H703 C712 0.950 . S
H704 C714 0.950 . S
H705 C716 0.950 . S
H706 C718 0.950 . S
H707 C719 0.950 . S
C708 H700 0.950 . S
C708 C709 1.386 . S
C708 C710 1.391 . S
C709 C708 1.386 . S
C709 C713 1.393 . S
C710 H702 0.950 . S
C710 C708 1.391 . S
C710 C711 1.400 . S
C711 C710 1.400 . S
C711 C712 1.398 . S
C711 C717 1.491 . S
C712 H703 0.950 . S
C712 C711 1.398 . S
C712 C713 1.391 . S
C713 H701 0.950 . S
C713 C709 1.393 . S
C713 C712 1.391 . S
C714 H704 0.950 . S
C714 C715 1.386 . S
C714 C716 1.391 . S
C715 C714 1.386 . S
C715 C719 1.393 . S
C716 H705 0.950 . S
C716 C714 1.391 . S
C716 C717 1.400 . S
C717 C711 1.491 . S
C717 C716 1.400 . S
C717 C718 1.398 . S
C718 H706 0.950 . S
C718 C717 1.398 . S
C718 C719 1.391 . S
C719 H707 0.950 . S
C719 C715 1.393 . S
C719 C718 1.391 . S
H720 C728 0.950 . S
H721 C733 0.950 . S
H722 C730 0.950 . S
H723 C732 0.950 . S
H724 C734 0.950 . S
H725 C736 0.950 . S
H726 C738 0.950 . S
H727 C739 0.950 . S
C728 H720 0.950 . S
C728 C729 1.386 . S
C728 C730 1.391 . S
C729 C728 1.386 . S
C729 C733 1.393 . S
C730 H722 0.950 . S
C730 C728 1.391 . S
C730 C731 1.400 . S
C731 C730 1.400 . S
C731 C732 1.398 . S
C731 C737 1.491 . S
C732 H723 0.950 . S
C732 C731 1.398 . S
C732 C733 1.391 . S
C733 H721 0.950 . S
C733 C729 1.393 . S
C733 C732 1.391 . S
C734 H724 0.950 . S
C734 C735 1.386 . S
C734 C736 1.391 . S
C735 C734 1.386 . S
C735 C739 1.393 . S
C736 H725 0.950 . S
C736 C734 1.391 . S
C736 C737 1.400 . S
C737 C731 1.491 . S
C737 C736 1.400 . S
C737 C738 1.398 . S
C738 H726 0.950 . S
C738 C737 1.398 . S
C738 C739 1.391 . S
C739 H727 0.950 . S
C739 C735 1.393 . S
C739 C738 1.391 . S
H740 C748 0.950 . S
H741 C753 0.950 . S
H742 C750 0.950 . S
H743 C752 0.950 . S
H744 C754 0.950 . S
H745 C756 0.950 . S
H746 C758 0.950 . S
H747 C759 0.950 . S
C748 H740 0.950 . S
C748 C749 1.386 . S
C748 C750 1.391 . S
C749 C748 1.386 . S
C749 C753 1.393 . S
C750 H742 0.950 . S
C750 C748 1.391 . S
C750 C751 1.400 . S
C751 C750 1.400 . S
C751 C752 1.398 . S
C751 C757 1.491 . S
C752 H743 0.950 . S
C752 C751 1.398 . S
C752 C753 1.391 . S
C753 H741 0.950 . S
C753 C749 1.393 . S
C753 C752 1.391 . S
C754 H744 0.950 . S
C754 C755 1.386 . S
C754 C756 1.391 . S
C755 C754 1.386 . S
C755 C759 1.393 . S
C756 H745 0.950 . S
C756 C754 1.391 . S
C756 C757 1.400 . S
C757 C751 1.491 . S
C757 C756 1.400 . S
C757 C758 1.398 . S
C758 H746 0.950 . S
C758 C757 1.398 . S
C758 C759 1.391 . S
C759 H747 0.950 . S
C759 C755 1.393 . S
C759 C758 1.391 . S
H760 C768 0.950 . S
H761 C773 0.950 . S
H762 C770 0.950 . S
H763 C772 0.950 . S
H764 C774 0.950 . S
H765 C776 0.950 . S
H766 C778 0.950 . S
H767 C779 0.950 . S
C768 H760 0.950 . S
C768 C769 1.386 . S
C768 C770 1.391 . S
C769 C768 1.386 . S
C769 C773 1.393 . S
C770 H762 0.950 . S
C770 C768 1.391 . S
C770 C771 1.400 . S
C771 C770 1.400 . S
C771 C772 1.398 . S
C771 C777 1.491 . S
C772 H763 0.950 . S
C772 C771 1.398 . S
C772 C773 1.391 . S
C773 H761 0.950 . S
C773 C769 1.393 . S
C773 C772 1.391 . S
C774 H764 0.950 . S
C774 C775 1.386 . S
C774 C776 1.391 . S
C775 C774 1.386 . S
C775 C779 1.393 . S
C776 H765 0.950 . S
C776 C774 1.391 . S
C776 C777 1.400 . S
C777 C771 1.491 . S
C777 C776 1.400 . S
C777 C778 1.398 . S
C778 H766 0.950 . S
C778 C777 1.398 . S
C778 C779 1.391 . S
C779 H767 0.950 . S
C779 C775 1.393 . S
C779 C778 1.391 . S
H780 C788 0.950 . S
H781 C793 0.950 . S
H782 C790 0.950 . S
H783 C792 0.950 . S
H784 C794 0.950 . S
H785 C796 0.950 . S
H786 C798 0.950 . S
H787 C799 0.950 . S
C788 H780 0.950 . S
C788 C789 1.386 . S
C788 C790 1.391 . S
C789 C788 1.386 . S
C789 C793 1.393 . S
C790 H782 0.950 . S
C790 C788 1.391 . S
C790 C791 1.400 . S
C791 C790 1.400 . S
C791 C792 1.398 . S
C791 C797 1.491 . S
C792 H783 0.950 . S
C792 C791 1.398 . S
C792 C793 1.391 . S
C793 H781 0.950 . S
C793 C789 1.393 . S
C793 C792 1.391 . S
C794 H784 0.950 . S
C794 C795 1.386 . S
C794 C796 1.391 . S
C795 C794 1.386 . S
C795 C799 1.393 . S
C796 H785 0.950 . S
C796 C794 1.391 . S
C796 C797 1.400 . S
C797 C791 1.491 . S
C797 C796 1.400 . S
C797 C798 1.398 . S
C798 H786 0.950 . S
C798 C797 1.398 . S
C798 C799 1.391 . S
C799 H787 0.950 . S
C799 C795 1.393 . S
C799 C798 1.391 . S
H800 C808 0.950 . S
H801 C813 0.950 . S
H802 C810 0.950 . S
H803 C812 0.950 . S
H804 C814 0.950 . S
H805 C816 0.950 . S
H806 C818 0.950 . S
H807 C819 0.950 . S
C808 H800 0.950 . S
C808 C809 1.386 . S
C808 C810 1.391 . S
C809 C808 1.386 . S
C809 C813 1.393 . S
C810 H802 0.950 . S
C810 C808 1.391 . S
C810 C811 1.400 . S
C811 C810 1.400 . S
C811 C812 1.398 . S
C811 C817 1.491 . S
C812 H803 0.950 . S
C812 C811 1.398 . S
C812 C813 1.391 . S
C813 H801 0.950 . S
C813 C809 1.393 . S
C813 C812 1.391 . S
C814 H804 0.950 . S
C814 C815 1.386 1_554 S
C814 C816 1.391 1_554 S
C815 C814 1.386 1_556 S
C815 C819 1.393 . S
C816 H805 0.950 . S
C816 C814 1.391 1_556 S
C816 C817 1.400 . S
C817 C811 1.491 . S
C817 C816 1.400 . S
C817 C818 1.398 . S
C818 H806 0.950 . S
C818 C817 1.398 . S
C818 C819 1.391 . S
C819 H807 0.950 . S
C819 C815 1.393 . S
C819 C818 1.391 . S
H820 C828 0.950 . S
H821 C833 0.950 . S
H822 C830 0.950 . S
H823 C832 0.950 . S
H824 C834 0.950 . S
H825 C836 0.950 . S
H826 C838 0.950 . S
H827 C839 0.950 . S
C828 H820 0.950 . S
C828 C829 1.386 1_556 S
C828 C830 1.391 1_556 S
C829 C828 1.386 1_554 S
C829 C833 1.393 . S
C830 H822 0.950 . S
C830 C828 1.391 1_554 S
C830 C831 1.400 . S
C831 C830 1.400 . S
C831 C832 1.398 . S
C831 C837 1.491 . S
C832 H823 0.950 . S
C832 C831 1.398 . S
C832 C833 1.391 . S
C833 H821 0.950 . S
C833 C829 1.393 . S
C833 C832 1.391 . S
C834 H824 0.950 . S
C834 C835 1.386 . S
C834 C836 1.391 . S
C835 C834 1.386 . S
C835 C839 1.393 . S
C836 H825 0.950 . S
C836 C834 1.391 . S
C836 C837 1.400 . S
C837 C831 1.491 . S
C837 C836 1.400 . S
C837 C838 1.398 . S
C838 H826 0.950 . S
C838 C837 1.398 . S
C838 C839 1.391 . S
C839 H827 0.950 . S
C839 C835 1.393 . S
C839 C838 1.391 . S
H840 C848 0.950 . S
H841 C853 0.950 . S
H842 C850 0.950 . S
H843 C852 0.950 . S
H844 C854 0.950 . S
H845 C856 0.950 . S
H846 C858 0.950 . S
H847 C859 0.950 . S
C848 H840 0.950 . S
C848 C849 1.386 . S
C848 C850 1.391 . S
C849 C848 1.386 . S
C849 C853 1.393 1_556 S
C850 H842 0.950 . S
C850 C848 1.391 . S
C850 C851 1.400 . S
C851 C850 1.400 . S
C851 C852 1.398 . S
C851 C857 1.491 . S
C852 H843 0.950 . S
C852 C851 1.398 . S
C852 C853 1.391 1_556 S
C853 H841 0.950 . S
C853 C849 1.393 1_554 S
C853 C852 1.391 1_554 S
C854 H844 0.950 . S
C854 C855 1.386 . S
C854 C856 1.391 . S
C855 C854 1.386 . S
C855 C859 1.393 . S
C856 H845 0.950 . S
C856 C854 1.391 . S
C856 C857 1.400 . S
C857 C851 1.491 . S
C857 C856 1.400 . S
C857 C858 1.398 . S
C858 H846 0.950 . S
C858 C857 1.398 . S
C858 C859 1.391 . S
C859 H847 0.950 . S
C859 C855 1.393 . S
C859 C858 1.391 . S
H860 C868 0.950 . S
H861 C873 0.950 . S
H862 C870 0.950 . S
H863 C872 0.950 . S
H864 C874 0.950 . S
H865 C876 0.950 . S
H866 C878 0.950 . S
H867 C879 0.950 . S
C868 H860 0.950 . S
C868 C869 1.386 . S
C868 C870 1.391 . S
C869 C868 1.386 . S
C869 C873 1.393 1_554 S
C870 H862 0.950 . S
C870 C868 1.391 . S
C870 C871 1.400 . S
C871 C870 1.400 . S
C871 C872 1.398 . S
C871 C877 1.491 . S
C872 H863 0.950 . S
C872 C871 1.398 . S
C872 C873 1.391 1_554 S
C873 H861 0.950 . S
C873 C869 1.393 1_556 S
C873 C872 1.391 1_556 S
C874 H864 0.950 . S
C874 C875 1.386 . S
C874 C876 1.391 . S
C875 C874 1.386 . S
C875 C879 1.393 . S
C876 H865 0.950 . S
C876 C874 1.391 . S
C876 C877 1.400 . S
C877 C871 1.491 . S
C877 C876 1.400 . S
C877 C878 1.398 . S
C878 H866 0.950 . S
C878 C877 1.398 . S
C878 C879 1.391 . S
C879 H867 0.950 . S
C879 C875 1.393 . S
C879 C878 1.391 . S
H880 C888 0.950 . S
H881 C893 0.950 . S
H882 C890 0.950 . S
H883 C892 0.950 . S
H884 C894 0.950 . S
H885 C896 0.950 . S
H886 C898 0.950 . S
H887 C899 0.950 . S
C888 H880 0.950 . S
C888 C889 1.386 . S
C888 C890 1.391 . S
C889 C888 1.386 . S
C889 C893 1.393 . S
C890 H882 0.950 . S
C890 C888 1.391 . S
C890 C891 1.400 . S
C891 C890 1.400 . S
C891 C892 1.398 . S
C891 C897 1.491 . S
C892 H883 0.950 . S
C892 C891 1.398 . S
C892 C893 1.391 . S
C893 H881 0.950 . S
C893 C889 1.393 . S
C893 C892 1.391 . S
C894 H884 0.950 . S
C894 C895 1.386 . S
C894 C896 1.391 . S
C895 C894 1.386 . S
C895 C899 1.393 . S
C896 H885 0.950 . S
C896 C894 1.391 . S
C896 C897 1.400 . S
C897 C891 1.491 . S
C897 C896 1.400 . S
C897 C898 1.398 . S
C898 H886 0.950 . S
C898 C897 1.398 . S
C898 C899 1.391 . S
C899 H887 0.950 . S
C899 C895 1.393 . S
C899 C898 1.391 . S
H900 C908 0.950 . S
H901 C913 0.950 . S
H902 C910 0.950 . S
H903 C912 0.950 . S
H904 C914 0.950 . S
H905 C916 0.950 . S
H906 C918 0.950 . S
H907 C919 0.950 . S
C908 H900 0.950 . S
C908 C909 1.386 . S
C908 C910 1.391 . S
C909 C908 1.386 . S
C909 C913 1.393 . S
C910 H902 0.950 . S
C910 C908 1.391 . S
C910 C911 1.400 . S
C911 C910 1.400 . S
C911 C912 1.398 . S
C911 C917 1.491 . S
C912 H903 0.950 . S
C912 C911 1.398 . S
C912 C913 1.391 . S
C913 H901 0.950 . S
C913 C909 1.393 . S
C913 C912 1.391 . S
C914 H904 0.950 . S
C914 C915 1.386 . S
C914 C916 1.391 . S
C915 C914 1.386 . S
C915 C919 1.393 . S
C916 H905 0.950 . S
C916 C914 1.391 . S
C916 C917 1.400 . S
C917 C911 1.491 . S
C917 C916 1.400 . S
C917 C918 1.398 . S
C918 H906 0.950 . S
C918 C917 1.398 . S
C918 C919 1.391 . S
C919 H907 0.950 . S
C919 C915 1.393 . S
C919 C918 1.391 . S
H920 C928 0.950 . S
H921 C933 0.950 . S
H922 C930 0.950 . S
H923 C932 0.950 . S
H924 C934 0.950 . S
H925 C936 0.950 . S
H926 C938 0.950 . S
H927 C939 0.950 . S
C928 H920 0.950 . S
C928 C929 1.386 . S
C928 C930 1.391 . S
C929 C928 1.386 . S
C929 C933 1.393 . S
C930 H922 0.950 . S
C930 C928 1.391 . S
C930 C931 1.400 . S
C931 C930 1.400 . S
C931 C932 1.398 . S
C931 C937 1.491 . S
C932 H923 0.950 . S
C932 C931 1.398 . S
C932 C933 1.391 . S
C933 H921 0.950 . S
C933 C929 1.393 . S
C933 C932 1.391 . S
C934 H924 0.950 . S
C934 C935 1.386 . S
C934 C936 1.391 . S
C935 C934 1.386 . S
C935 C939 1.393 . S
C936 H925 0.950 . S
C936 C934 1.391 . S
C936 C937 1.400 . S
C937 C931 1.491 . S
C937 C936 1.400 . S
C937 C938 1.398 . S
C938 H926 0.950 . S
C938 C937 1.398 . S
C938 C939 1.391 . S
C939 H927 0.950 . S
C939 C935 1.393 . S
C939 C938 1.391 . S
H940 C948 0.950 . S
H941 C953 0.950 . S
H942 C950 0.950 . S
H943 C952 0.950 . S
H944 C954 0.950 . S
H945 C956 0.950 . S
H946 C958 0.950 . S
H947 C959 0.950 . S
C948 H940 0.950 . S
C948 C949 1.386 . S
C948 C950 1.391 . S
C949 C948 1.386 . S
C949 C953 1.393 . S
C950 H942 0.950 . S
C950 C948 1.391 . S
C950 C951 1.400 . S
C951 C950 1.400 . S
C951 C952 1.398 . S
C951 C957 1.491 . S
C952 H943 0.950 . S
C952 C951 1.398 . S
C952 C953 1.391 . S
C953 H941 0.950 . S
C953 C949 1.393 . S
C953 C952 1.391 . S
C954 H944 0.950 . S
C954 C955 1.386 . S
C954 C956 1.391 . S
C955 C954 1.386 . S
C955 C959 1.393 . S
C956 H945 0.950 . S
C956 C954 1.391 . S
C956 C957 1.400 . S
C957 C951 1.491 . S
C957 C956 1.400 . S
C957 C958 1.398 . S
C958 H946 0.950 . S
C958 C957 1.398 . S
C958 C959 1.391 . S
C959 H947 0.950 . S
C959 C955 1.393 . S
C959 C958 1.391 . S
H960 C968 0.950 . S
H961 C973 0.950 . S
H962 C970 0.950 . S
H963 C972 0.950 . S
H964 C974 0.950 . S
H965 C976 0.950 . S
H966 C978 0.950 . S
H967 C979 0.950 . S
C968 H960 0.950 . S
C968 C969 1.386 . S
C968 C970 1.391 . S
C969 C968 1.386 . S
C969 C973 1.393 . S
C970 H962 0.950 . S
C970 C968 1.391 . S
C970 C971 1.400 . S
C971 C970 1.400 . S
C971 C972 1.398 . S
C971 C977 1.491 . S
C972 H963 0.950 . S
C972 C971 1.398 . S
C972 C973 1.391 . S
C973 H961 0.950 . S
C973 C969 1.393 . S
C973 C972 1.391 . S
C974 H964 0.950 . S
C974 C975 1.386 . S
C974 C976 1.391 . S
C975 C974 1.386 . S
C975 C979 1.393 . S
C976 H965 0.950 . S
C976 C974 1.391 . S
C976 C977 1.400 . S
C977 C971 1.491 . S
C977 C976 1.400 . S
C977 C978 1.398 . S
C978 H966 0.950 . S
C978 C977 1.398 . S
C978 C979 1.391 . S
C979 H967 0.950 . S
C979 C975 1.393 . S
C979 C978 1.391 . S
H980 C988 0.950 . S
H981 C993 0.950 . S
H982 C990 0.950 . S
H983 C992 0.950 . S
H984 C994 0.950 . S
H985 C996 0.950 . S
H986 C998 0.950 . S
H987 C999 0.950 . S
C988 H980 0.950 . S
C988 C989 1.386 . S
C988 C990 1.391 . S
C989 C988 1.386 . S
C989 C993 1.393 . S
C990 H982 0.950 . S
C990 C988 1.391 . S
C990 C991 1.400 . S
C991 C990 1.400 . S
C991 C992 1.398 . S
C991 C997 1.491 . S
C992 H983 0.950 . S
C992 C991 1.398 . S
C992 C993 1.391 . S
C993 H981 0.950 . S
C993 C989 1.393 . S
C993 C992 1.391 . S
C994 H984 0.950 . S
C994 C995 1.386 . S
C994 C996 1.391 . S
C995 C994 1.386 . S
C995 C999 1.393 . S
C996 H985 0.950 . S
C996 C994 1.391 . S
C996 C997 1.400 . S
C997 C991 1.491 . S
C997 C996 1.400 . S
C997 C998 1.398 . S
C998 H986 0.950 . S
C998 C997 1.398 . S
C998 C999 1.391 . S
C999 H987 0.950 . S
C999 C995 1.393 . S
C999 C998 1.391 . S
H1000 C1008 0.950 . S
H1001 C1013 0.950 . S
H1002 C1010 0.950 . S
H1003 C1012 0.950 . S
H1004 C1014 0.950 . S
H1005 C1016 0.950 . S
H1006 C1018 0.950 . S
H1007 C1019 0.950 . S
C1008 H1000 0.950 . S
C1008 C1009 1.386 . S
C1008 C1010 1.391 . S
C1009 C1008 1.386 . S
C1009 C1013 1.393 . S
C1010 H1002 0.950 . S
C1010 C1008 1.391 . S
C1010 C1011 1.400 . S
C1011 C1010 1.400 . S
C1011 C1012 1.398 . S
C1011 C1017 1.491 . S
C1012 H1003 0.950 . S
C1012 C1011 1.398 . S
C1012 C1013 1.391 . S
C1013 H1001 0.950 . S
C1013 C1009 1.393 . S
C1013 C1012 1.391 . S
C1014 H1004 0.950 . S
C1014 C1015 1.386 . S
C1014 C1016 1.391 . S
C1015 C1014 1.386 . S
C1015 C1019 1.393 . S
C1016 H1005 0.950 . S
C1016 C1014 1.391 . S
C1016 C1017 1.400 . S
C1017 C1011 1.491 . S
C1017 C1016 1.400 . S
C1017 C1018 1.398 . S
C1018 H1006 0.950 . S
C1018 C1017 1.398 . S
C1018 C1019 1.391 . S
C1019 H1007 0.950 . S
C1019 C1015 1.393 . S
C1019 C1018 1.391 . S
H1020 C1028 0.950 . S
H1021 C1033 0.950 . S
H1022 C1030 0.950 . S
H1023 C1032 0.950 . S
H1024 C1034 0.950 . S
H1025 C1036 0.950 . S
H1026 C1038 0.950 . S
H1027 C1039 0.950 . S
C1028 H1020 0.950 . S
C1028 C1029 1.386 . S
C1028 C1030 1.391 . S
C1029 C1028 1.386 . S
C1029 C1033 1.393 . S
C1030 H1022 0.950 . S
C1030 C1028 1.391 . S
C1030 C1031 1.400 . S
C1031 C1030 1.400 . S
C1031 C1032 1.398 . S
C1031 C1037 1.491 . S
C1032 H1023 0.950 . S
C1032 C1031 1.398 . S
C1032 C1033 1.391 . S
C1033 H1021 0.950 . S
C1033 C1029 1.393 . S
C1033 C1032 1.391 . S
C1034 H1024 0.950 . S
C1034 C1035 1.386 . S
C1034 C1036 1.391 . S
C1035 C1034 1.386 . S
C1035 C1039 1.393 . S
C1036 H1025 0.950 . S
C1036 C1034 1.391 . S
C1036 C1037 1.400 . S
C1037 C1031 1.491 . S
C1037 C1036 1.400 . S
C1037 C1038 1.398 . S
C1038 H1026 0.950 . S
C1038 C1037 1.398 . S
C1038 C1039 1.391 . S
C1039 H1027 0.950 . S
C1039 C1035 1.393 . S
C1039 C1038 1.391 . S
H1040 C1048 0.950 . S
H1041 C1053 0.950 . S
H1042 C1050 0.950 . S
H1043 C1052 0.950 . S
H1044 C1054 0.950 . S
H1045 C1056 0.950 . S
H1046 C1058 0.950 . S
H1047 C1059 0.950 . S
C1048 H1040 0.950 . S
C1048 C1049 1.386 . S
C1048 C1050 1.391 . S
C1049 C1048 1.386 . S
C1049 C1053 1.393 . S
C1050 H1042 0.950 . S
C1050 C1048 1.391 . S
C1050 C1051 1.400 . S
C1051 C1050 1.400 . S
C1051 C1052 1.398 . S
C1051 C1057 1.491 . S
C1052 H1043 0.950 . S
C1052 C1051 1.398 . S
C1052 C1053 1.391 . S
C1053 H1041 0.950 . S
C1053 C1049 1.393 . S
C1053 C1052 1.391 . S
C1054 H1044 0.950 . S
C1054 C1055 1.386 . S
C1054 C1056 1.391 . S
C1055 C1054 1.386 . S
C1055 C1059 1.393 . S
C1056 H1045 0.950 . S
C1056 C1054 1.391 . S
C1056 C1057 1.400 . S
C1057 C1051 1.491 . S
C1057 C1056 1.400 . S
C1057 C1058 1.398 . S
C1058 H1046 0.950 . S
C1058 C1057 1.398 . S
C1058 C1059 1.391 . S
C1059 H1047 0.950 . S
C1059 C1055 1.393 . S
C1059 C1058 1.391 . S
H1060 C1068 0.950 . S
H1061 C1073 0.950 . S
H1062 C1070 0.950 . S
H1063 C1072 0.950 . S
H1064 C1074 0.950 . S
H1065 C1076 0.950 . S
H1066 C1078 0.950 . S
H1067 C1079 0.950 . S
C1068 H1060 0.950 . S
C1068 C1069 1.386 . S
C1068 C1070 1.391 . S
C1069 C1068 1.386 . S
C1069 C1073 1.393 . S
C1070 H1062 0.950 . S
C1070 C1068 1.391 . S
C1070 C1071 1.400 . S
C1071 C1070 1.400 . S
C1071 C1072 1.398 . S
C1071 C1077 1.491 . S
C1072 H1063 0.950 . S
C1072 C1071 1.398 . S
C1072 C1073 1.391 . S
C1073 H1061 0.950 . S
C1073 C1069 1.393 . S
C1073 C1072 1.391 . S
C1074 H1064 0.950 . S
C1074 C1075 1.386 . S
C1074 C1076 1.391 . S
C1075 C1074 1.386 . S
C1075 C1079 1.393 . S
C1076 H1065 0.950 . S
C1076 C1074 1.391 . S
C1076 C1077 1.400 . S
C1077 C1071 1.491 . S
C1077 C1076 1.400 . S
C1077 C1078 1.398 . S
C1078 H1066 0.950 . S
C1078 C1077 1.398 . S
C1078 C1079 1.391 . S
C1079 H1067 0.950 . S
C1079 C1075 1.393 . S
C1079 C1078 1.391 . S
H1080 C1088 0.950 . S
H1081 C1093 0.950 . S
H1082 C1090 0.950 . S
H1083 C1092 0.950 . S
H1084 C1094 0.950 . S
H1085 C1096 0.950 . S
H1086 C1098 0.950 . S
H1087 C1099 0.950 . S
C1088 H1080 0.950 . S
C1088 C1089 1.386 . S
C1088 C1090 1.391 . S
C1089 C1088 1.386 . S
C1089 C1093 1.393 . S
C1090 H1082 0.950 . S
C1090 C1088 1.391 . S
C1090 C1091 1.400 . S
C1091 C1090 1.400 . S
C1091 C1092 1.398 . S
C1091 C1097 1.491 . S
C1092 H1083 0.950 . S
C1092 C1091 1.398 . S
C1092 C1093 1.391 . S
C1093 H1081 0.950 . S
C1093 C1089 1.393 . S
C1093 C1092 1.391 . S
C1094 H1084 0.950 . S
C1094 C1095 1.386 . S
C1094 C1096 1.391 . S
C1095 C1094 1.386 . S
C1095 C1099 1.393 . S
C1096 H1085 0.950 . S
C1096 C1094 1.391 . S
C1096 C1097 1.400 . S
C1097 C1091 1.491 . S
C1097 C1096 1.400 . S
C1097 C1098 1.398 . S
C1098 H1086 0.950 . S
C1098 C1097 1.398 . S
C1098 C1099 1.391 . S
C1099 H1087 0.950 . S
C1099 C1095 1.393 . S
C1099 C1098 1.391 . S
H1100 C1108 0.950 . S
H1101 C1113 0.950 . S
H1102 C1110 0.950 . S
H1103 C1112 0.950 . S
H1104 C1114 0.950 . S
H1105 C1116 0.950 . S
H1106 C1118 0.950 . S
H1107 C1119 0.950 . S
C1108 H1100 0.950 . S
C1108 C1109 1.386 . S
C1108 C1110 1.391 . S
C1109 C1108 1.386 . S
C1109 C1113 1.393 . S
C1110 H1102 0.950 . S
C1110 C1108 1.391 . S
C1110 C1111 1.400 . S
C1111 C1110 1.400 . S
C1111 C1112 1.398 . S
C1111 C1117 1.491 . S
C1112 H1103 0.950 . S
C1112 C1111 1.398 . S
C1112 C1113 1.391 . S
C1113 H1101 0.950 . S
C1113 C1109 1.393 . S
C1113 C1112 1.391 . S
C1114 H1104 0.950 . S
C1114 C1115 1.386 . S
C1114 C1116 1.391 . S
C1115 C1114 1.386 . S
C1115 C1119 1.393 . S
C1116 H1105 0.950 . S
C1116 C1114 1.391 . S
C1116 C1117 1.400 . S
C1117 C1111 1.491 . S
C1117 C1116 1.400 . S
C1117 C1118 1.398 . S
C1118 H1106 0.950 . S
C1118 C1117 1.398 . S
C1118 C1119 1.391 . S
C1119 H1107 0.950 . S
C1119 C1115 1.393 . S
C1119 C1118 1.391 . S
H1120 C1128 0.950 . S
H1121 C1133 0.950 . S
H1122 C1130 0.950 . S
H1123 C1132 0.950 . S
H1124 C1134 0.950 . S
H1125 C1136 0.950 . S
H1126 C1138 0.950 . S
H1127 C1139 0.950 . S
C1128 H1120 0.950 . S
C1128 C1129 1.386 . S
C1128 C1130 1.391 1_556 S
C1129 C1128 1.386 . S
C1129 C1133 1.393 . S
C1130 H1122 0.950 . S
C1130 C1128 1.391 1_554 S
C1130 C1131 1.400 . S
C1131 C1130 1.400 . S
C1131 C1132 1.398 . S
C1131 C1137 1.491 . S
C1132 H1123 0.950 . S
C1132 C1131 1.398 . S
C1132 C1133 1.391 1_554 S
C1133 H1121 0.950 . S
C1133 C1129 1.393 . S
C1133 C1132 1.391 1_556 S
C1134 H1124 0.950 . S
C1134 C1135 1.386 . S
C1134 C1136 1.391 . S
C1135 C1134 1.386 . S
C1135 C1139 1.393 . S
C1136 H1125 0.950 . S
C1136 C1134 1.391 . S
C1136 C1137 1.400 . S
C1137 C1131 1.491 . S
C1137 C1136 1.400 . S
C1137 C1138 1.398 . S
C1138 H1126 0.950 . S
C1138 C1137 1.398 . S
C1138 C1139 1.391 . S
C1139 H1127 0.950 . S
C1139 C1135 1.393 . S
C1139 C1138 1.391 . S
H1140 C1148 0.950 . S
H1141 C1153 0.950 . S
H1142 C1150 0.950 . S
H1143 C1152 0.950 . S
H1144 C1154 0.950 . S
H1145 C1156 0.950 . S
H1146 C1158 0.950 . S
H1147 C1159 0.950 . S
C1148 H1140 0.950 . S
C1148 C1149 1.386 . S
C1148 C1150 1.391 . S
C1149 C1148 1.386 . S
C1149 C1153 1.393 . S
C1150 H1142 0.950 . S
C1150 C1148 1.391 . S
C1150 C1151 1.400 . S
C1151 C1150 1.400 . S
C1151 C1152 1.398 . S
C1151 C1157 1.491 . S
C1152 H1143 0.950 . S
C1152 C1151 1.398 . S
C1152 C1153 1.391 . S
C1153 H1141 0.950 . S
C1153 C1149 1.393 . S
C1153 C1152 1.391 . S
C1154 H1144 0.950 . S
C1154 C1155 1.386 . S
C1154 C1156 1.391 1_554 S
C1155 C1154 1.386 . S
C1155 C1159 1.393 . S
C1156 H1145 0.950 . S
C1156 C1154 1.391 1_556 S
C1156 C1157 1.400 . S
C1157 C1151 1.491 . S
C1157 C1156 1.400 . S
C1157 C1158 1.398 . S
C1158 H1146 0.950 . S
C1158 C1157 1.398 . S
C1158 C1159 1.391 1_556 S
C1159 H1147 0.950 . S
C1159 C1155 1.393 . S
C1159 C1158 1.391 1_554 S
H1160 C1168 0.950 . S
H1161 C1173 0.950 . S
H1162 C1170 0.950 . S
H1163 C1172 0.950 . S
H1164 C1174 0.950 . S
H1165 C1176 0.950 . S
H1166 C1178 0.950 . S
H1167 C1179 0.950 . S
C1168 H1160 0.950 . S
C1168 C1169 1.386 . S
C1168 C1170 1.391 . S
C1169 C1168 1.386 . S
C1169 C1173 1.393 . S
C1170 H1162 0.950 . S
C1170 C1168 1.391 . S
C1170 C1171 1.400 . S
C1171 C1170 1.400 . S
C1171 C1172 1.398 . S
C1171 C1177 1.491 . S
C1172 H1163 0.950 . S
C1172 C1171 1.398 . S
C1172 C1173 1.391 . S
C1173 H1161 0.950 . S
C1173 C1169 1.393 . S
C1173 C1172 1.391 . S
C1174 H1164 0.950 . S
C1174 C1175 1.386 . S
C1174 C1176 1.391 1_556 S
C1175 C1174 1.386 . S
C1175 C1179 1.393 . S
C1176 H1165 0.950 . S
C1176 C1174 1.391 1_554 S
C1176 C1177 1.400 . S
C1177 C1171 1.491 . S
C1177 C1176 1.400 . S
C1177 C1178 1.398 . S
C1178 H1166 0.950 . S
C1178 C1177 1.398 . S
C1178 C1179 1.391 1_554 S
C1179 H1167 0.950 . S
C1179 C1175 1.393 . S
C1179 C1178 1.391 1_556 S
H1180 C1188 0.950 . S
H1181 C1193 0.950 . S
H1182 C1190 0.950 . S
H1183 C1192 0.950 . S
H1184 C1194 0.950 . S
H1185 C1196 0.950 . S
H1186 C1198 0.950 . S
H1187 C1199 0.950 . S
C1188 H1180 0.950 . S
C1188 C1189 1.386 . S
C1188 C1190 1.391 1_554 S
C1189 C1188 1.386 . S
C1189 C1193 1.393 . S
C1190 H1182 0.950 . S
C1190 C1188 1.391 1_556 S
C1190 C1191 1.400 . S
C1191 C1190 1.400 . S
C1191 C1192 1.398 . S
C1191 C1197 1.491 . S
C1192 H1183 0.950 . S
C1192 C1191 1.398 . S
C1192 C1193 1.391 1_556 S
C1193 H1181 0.950 . S
C1193 C1189 1.393 . S
C1193 C1192 1.391 1_554 S
C1194 H1184 0.950 . S
C1194 C1195 1.386 . S
C1194 C1196 1.391 . S
C1195 C1194 1.386 . S
C1195 C1199 1.393 . S
C1196 H1185 0.950 . S
C1196 C1194 1.391 . S
C1196 C1197 1.400 . S
C1197 C1191 1.491 . S
C1197 C1196 1.400 . S
C1197 C1198 1.398 . S
C1198 H1186 0.950 . S
C1198 C1197 1.398 . S
C1198 C1199 1.391 . S
C1199 H1187 0.950 . S
C1199 C1195 1.393 . S
C1199 C1198 1.391 . S
H1200 C1208 0.950 . S
H1201 C1213 0.950 . S
H1202 C1210 0.950 . S
H1203 C1212 0.950 . S
H1204 C1214 0.950 . S
H1205 C1216 0.950 . S
H1206 C1218 0.950 . S
H1207 C1219 0.950 . S
C1208 H1200 0.950 . S
C1208 C1209 1.386 . S
C1208 C1210 1.391 . S
C1209 C1208 1.386 . S
C1209 C1213 1.393 . S
C1210 H1202 0.950 . S
C1210 C1208 1.391 . S
C1210 C1211 1.400 . S
C1211 C1210 1.400 . S
C1211 C1212 1.398 . S
C1211 C1217 1.491 . S
C1212 H1203 0.950 . S
C1212 C1211 1.398 . S
C1212 C1213 1.391 . S
C1213 H1201 0.950 . S
C1213 C1209 1.393 . S
C1213 C1212 1.391 . S
C1214 H1204 0.950 . S
C1214 C1215 1.386 . S
C1214 C1216 1.391 1_556 S
C1215 C1214 1.386 . S
C1215 C1219 1.393 . S
C1216 H1205 0.950 . S
C1216 C1214 1.391 1_554 S
C1216 C1217 1.400 . S
C1217 C1211 1.491 . S
C1217 C1216 1.400 . S
C1217 C1218 1.398 . S
C1218 H1206 0.950 . S
C1218 C1217 1.398 . S
C1218 C1219 1.391 1_554 S
C1219 H1207 0.950 . S
C1219 C1215 1.393 . S
C1219 C1218 1.391 1_556 S
H1220 C1228 0.950 . S
H1221 C1233 0.950 . S
H1222 C1230 0.950 . S
H1223 C1232 0.950 . S
H1224 C1234 0.950 . S
H1225 C1236 0.950 . S
H1226 C1238 0.950 . S
H1227 C1239 0.950 . S
C1228 H1220 0.950 . S
C1228 C1229 1.386 . S
C1228 C1230 1.391 1_554 S
C1229 C1228 1.386 . S
C1229 C1233 1.393 . S
C1230 H1222 0.950 . S
C1230 C1228 1.391 1_556 S
C1230 C1231 1.400 . S
C1231 C1230 1.400 . S
C1231 C1232 1.398 . S
C1231 C1237 1.491 . S
C1232 H1223 0.950 . S
C1232 C1231 1.398 . S
C1232 C1233 1.391 1_556 S
C1233 H1221 0.950 . S
C1233 C1229 1.393 . S
C1233 C1232 1.391 1_554 S
C1234 H1224 0.950 . S
C1234 C1235 1.386 . S
C1234 C1236 1.391 . S
C1235 C1234 1.386 . S
C1235 C1239 1.393 . S
C1236 H1225 0.950 . S
C1236 C1234 1.391 . S
C1236 C1237 1.400 . S
C1237 C1231 1.491 . S
C1237 C1236 1.400 . S
C1237 C1238 1.398 . S
C1238 H1226 0.950 . S
C1238 C1237 1.398 . S
C1238 C1239 1.391 . S
C1239 H1227 0.950 . S
C1239 C1235 1.393 . S
C1239 C1238 1.391 . S
H1240 C1248 0.950 . S
H1241 C1253 0.950 . S
H1242 C1250 0.950 . S
H1243 C1252 0.950 . S
H1244 C1254 0.950 . S
H1245 C1256 0.950 . S
H1246 C1258 0.950 . S
H1247 C1259 0.950 . S
C1248 H1240 0.950 . S
C1248 C1249 1.386 . S
C1248 C1250 1.391 1_556 S
C1249 C1248 1.386 . S
C1249 C1253 1.393 . S
C1250 H1242 0.950 . S
C1250 C1248 1.391 1_554 S
C1250 C1251 1.400 . S
C1251 C1250 1.400 . S
C1251 C1252 1.398 . S
C1251 C1257 1.491 . S
C1252 H1243 0.950 . S
C1252 C1251 1.398 . S
C1252 C1253 1.391 1_554 S
C1253 H1241 0.950 . S
C1253 C1249 1.393 . S
C1253 C1252 1.391 1_556 S
C1254 H1244 0.950 . S
C1254 C1255 1.386 . S
C1254 C1256 1.391 . S
C1255 C1254 1.386 . S
C1255 C1259 1.393 . S
C1256 H1245 0.950 . S
C1256 C1254 1.391 . S
C1256 C1257 1.400 . S
C1257 C1251 1.491 . S
C1257 C1256 1.400 . S
C1257 C1258 1.398 . S
C1258 H1246 0.950 . S
C1258 C1257 1.398 . S
C1258 C1259 1.391 . S
C1259 H1247 0.950 . S
C1259 C1255 1.393 . S
C1259 C1258 1.391 . S
H1260 C1268 0.950 . S
H1261 C1273 0.950 . S
H1262 C1270 0.950 . S
H1263 C1272 0.950 . S
H1264 C1274 0.950 . S
H1265 C1276 0.950 . S
H1266 C1278 0.950 . S
H1267 C1279 0.950 . S
C1268 H1260 0.950 . S
C1268 C1269 1.386 . S
C1268 C1270 1.391 . S
C1269 C1268 1.386 . S
C1269 C1273 1.393 . S
C1270 H1262 0.950 . S
C1270 C1268 1.391 . S
C1270 C1271 1.400 . S
C1271 C1270 1.400 . S
C1271 C1272 1.398 . S
C1271 C1277 1.491 . S
C1272 H1263 0.950 . S
C1272 C1271 1.398 . S
C1272 C1273 1.391 . S
C1273 H1261 0.950 . S
C1273 C1269 1.393 . S
C1273 C1272 1.391 . S
C1274 H1264 0.950 . S
C1274 C1275 1.386 . S
C1274 C1276 1.391 1_554 S
C1275 C1274 1.386 . S
C1275 C1279 1.393 . S
C1276 H1265 0.950 . S
C1276 C1274 1.391 1_556 S
C1276 C1277 1.400 . S
C1277 C1271 1.491 . S
C1277 C1276 1.400 . S
C1277 C1278 1.398 . S
C1278 H1266 0.950 . S
C1278 C1277 1.398 . S
C1278 C1279 1.391 1_556 S
C1279 H1267 0.950 . S
C1279 C1275 1.393 . S
C1279 C1278 1.391 1_554 S
C329 C222 1.532 . S
C335 C19 1.571 . S
C349 C164 1.554 . S
C355 C38 1.569 . S
C369 C59 1.571 . S
C375 C182 1.553 . S
C389 C78 1.574 . S
C395 C204 1.549 . S
C409 C99 1.572 . S
C415 C102 1.532 . S
C429 C124 1.534 . S
C435 C118 1.568 . S
C449 C139 1.574 . S
C455 C142 1.533 . S
C469 C84 1.535 . S
C475 C158 1.566 . S
C489 C62 1.543 . S
C495 C179 1.563 . S
C509 C198 1.576 . S
C515 C4 1.535 . S
C529 C22 1.554 . S
C535 C219 1.565 . S
C549 C44 1.554 . S
C555 C238 1.566 . S
C569 C259 1.562 . S
C575 C262 1.545 . S
C589 C284 1.554 . S
C595 C278 1.567 . S
C609 C302 1.553 . S
C615 C299 1.571 . S
C629 C318 1.574 . S
C635 C244 1.550 . S
C649 C18 1.485 . S
C655 C98 1.488 . S
C669 C119 1.489 . S
C675 C39 1.479 . S
C689 C58 1.482 . S
C695 C138 1.489 . S
C709 C79 1.473 . S
C715 C159 1.486 . S
C729 C178 1.472 . S
C735 C258 1.484 . S
C749 C279 1.471 . S
C755 C199 1.483 . S
C769 C218 1.489 . S
C775 C298 1.479 . S
C789 C239 1.489 . S
C795 C319 1.479 . S
C809 C282 1.518 . S
C815 C2 1.511 1_556 S
C829 C24 1.508 1_554 S
C835 C304 1.514 . S
C849 C42 1.507 1_556 S
C855 C242 1.513 . S
C869 C64 1.533 1_554 S
C875 C264 1.527 . S
C889 C82 1.541 . S
C895 C202 1.541 . S
C909 C104 1.519 . S
C915 C224 1.526 . S
C929 C122 1.523 . S
C935 C162 1.516 . S
C949 C184 1.510 . S
C955 C144 1.516 . S
C969 C12 1.330 . S
C975 C9 1.330 . S
C989 C29 1.330 . S
C995 C32 1.330 . S
C1009 C52 1.316 . S
C1015 C49 1.316 . S
C1029 C72 1.316 . S
C1035 C69 1.316 . S
C1049 C89 1.325 . S
C1055 C92 1.325 . S
C1069 C109 1.315 . S
C1075 C112 1.315 . S
C1089 C132 1.313 . S
C1095 C129 1.313 . S
C1109 C152 1.312 . S
C1115 C149 1.312 . S
C1129 C172 1.332 . S
C1135 C169 1.332 . S
C1149 C192 1.310 . S
C1155 C189 1.310 . S
C1169 C209 1.321 . S
C1175 C212 1.321 . S
C1189 C229 1.320 . S
C1195 C232 1.320 . S
C1209 C252 1.332 . S
C1215 C249 1.332 . S
C1229 C272 1.315 . S
C1235 C269 1.315 . S
C1249 C289 1.315 . S
C1255 C292 1.315 . S
C1269 C309 1.326 . S
C1275 C312 1.326 . S
