# Generated by pormake.
# Topology fcl, (5)-cn, num edge types: 1
# Building blocks:
#     Node 0, Type 0, BuildingBlock: BEQFEK_clean_sbu_0, # of connection points: 5
#     Node 1, Type 0, BuildingBlock: BEQFEK_clean_sbu_0, # of connection points: 5
#     Node 2, Type 0, BuildingBlock: BEQFEK_clean_sbu_0, # of connection points: 5
#     Node 3, Type 0, BuildingBlock: BEQFEK_clean_sbu_0, # of connection points: 5
#     Node 4, Type 0, BuildingBlock: BEQFEK_clean_sbu_0, # of connection points: 5
#     Node 5, Type 0, BuildingBlock: BEQFEK_clean_sbu_0, # of connection points: 5
#     Node 6, Type 0, BuildingBlock: BEQFEK_clean_sbu_0, # of connection points: 5
#     Node 7, Type 0, BuildingBlock: BEQFEK_clean_sbu_0, # of connection points: 5
#     Node 8, Type 0, BuildingBlock: BEQFEK_clean_sbu_0, # of connection points: 5
#     Node 9, Type 0, BuildingBlock: BEQFEK_clean_sbu_0, # of connection points: 5
#     Node 10, Type 0, BuildingBlock: BEQFEK_clean_sbu_0, # of connection points: 5
#     Node 11, Type 0, BuildingBlock: BEQFEK_clean_sbu_0, # of connection points: 5
#     Node 12, Type 0, BuildingBlock: BEQFEK_clean_sbu_0, # of connection points: 5
#     Node 13, Type 0, BuildingBlock: BEQFEK_clean_sbu_0, # of connection points: 5
#     Node 14, Type 0, BuildingBlock: BEQFEK_clean_sbu_0, # of connection points: 5
#     Node 15, Type 0, BuildingBlock: BEQFEK_clean_sbu_0, # of connection points: 5
#     Node 16, Type 0, BuildingBlock: BEQFEK_clean_sbu_0, # of connection points: 5
#     Node 17, Type 0, BuildingBlock: BEQFEK_clean_sbu_0, # of connection points: 5
#     Node 18, Type 0, BuildingBlock: BEQFEK_clean_sbu_0, # of connection points: 5
#     Node 19, Type 0, BuildingBlock: BEQFEK_clean_sbu_0, # of connection points: 5
#     Node 20, Type 0, BuildingBlock: BEQFEK_clean_sbu_0, # of connection points: 5
#     Node 21, Type 0, BuildingBlock: BEQFEK_clean_sbu_0, # of connection points: 5
#     Node 22, Type 0, BuildingBlock: BEQFEK_clean_sbu_0, # of connection points: 5
#     Node 23, Type 0, BuildingBlock: BEQFEK_clean_sbu_0, # of connection points: 5
#     Node 24, Type 0, BuildingBlock: BEQFEK_clean_sbu_0, # of connection points: 5
#     Node 25, Type 0, BuildingBlock: BEQFEK_clean_sbu_0, # of connection points: 5
#     Node 26, Type 0, BuildingBlock: BEQFEK_clean_sbu_0, # of connection points: 5
#     Node 27, Type 0, BuildingBlock: BEQFEK_clean_sbu_0, # of connection points: 5
#     Node 28, Type 0, BuildingBlock: BEQFEK_clean_sbu_0, # of connection points: 5
#     Node 29, Type 0, BuildingBlock: BEQFEK_clean_sbu_0, # of connection points: 5
#     Node 30, Type 0, BuildingBlock: BEQFEK_clean_sbu_0, # of connection points: 5
#     Node 31, Type 0, BuildingBlock: BEQFEK_clean_sbu_0, # of connection points: 5
#     Node 32, Type 0, BuildingBlock: BEQFEK_clean_sbu_0, # of connection points: 5
#     Node 33, Type 0, BuildingBlock: BEQFEK_clean_sbu_0, # of connection points: 5
#     Node 34, Type 0, BuildingBlock: BEQFEK_clean_sbu_0, # of connection points: 5
#     Node 35, Type 0, BuildingBlock: BEQFEK_clean_sbu_0, # of connection points: 5
#     Node 36, Type 0, BuildingBlock: BEQFEK_clean_sbu_0, # of connection points: 5
#     Node 37, Type 0, BuildingBlock: BEQFEK_clean_sbu_0, # of connection points: 5
#     Node 38, Type 0, BuildingBlock: BEQFEK_clean_sbu_0, # of connection points: 5
#     Node 39, Type 0, BuildingBlock: BEQFEK_clean_sbu_0, # of connection points: 5
#     Node 40, Type 0, BuildingBlock: BEQFEK_clean_sbu_0, # of connection points: 5
#     Node 41, Type 0, BuildingBlock: BEQFEK_clean_sbu_0, # of connection points: 5
#     Node 42, Type 0, BuildingBlock: BEQFEK_clean_sbu_0, # of connection points: 5
#     Node 43, Type 0, BuildingBlock: BEQFEK_clean_sbu_0, # of connection points: 5
#     Node 44, Type 0, BuildingBlock: BEQFEK_clean_sbu_0, # of connection points: 5
#     Node 45, Type 0, BuildingBlock: BEQFEK_clean_sbu_0, # of connection points: 5
#     Node 46, Type 0, BuildingBlock: BEQFEK_clean_sbu_0, # of connection points: 5
#     Node 47, Type 0, BuildingBlock: BEQFEK_clean_sbu_0, # of connection points: 5
#     Edge 48, Type (0, 0), BuildingBlock: AJUNOK_clean_linker_0, # of connection points: 2
#     Edge 49, Type (0, 0), BuildingBlock: AJUNOK_clean_linker_0, # of connection points: 2
#     Edge 50, Type (0, 0), BuildingBlock: AJUNOK_clean_linker_0, # of connection points: 2
#     Edge 51, Type (0, 0), BuildingBlock: AJUNOK_clean_linker_0, # of connection points: 2
#     Edge 52, Type (0, 0), BuildingBlock: AJUNOK_clean_linker_0, # of connection points: 2
#     Edge 53, Type (0, 0), BuildingBlock: AJUNOK_clean_linker_0, # of connection points: 2
#     Edge 54, Type (0, 0), BuildingBlock: AJUNOK_clean_linker_0, # of connection points: 2
#     Edge 55, Type (0, 0), BuildingBlock: AJUNOK_clean_linker_0, # of connection points: 2
#     Edge 56, Type (0, 0), BuildingBlock: AJUNOK_clean_linker_0, # of connection points: 2
#     Edge 57, Type (0, 0), BuildingBlock: AJUNOK_clean_linker_0, # of connection points: 2
#     Edge 58, Type (0, 0), BuildingBlock: AJUNOK_clean_linker_0, # of connection points: 2
#     Edge 59, Type (0, 0), BuildingBlock: AJUNOK_clean_linker_0, # of connection points: 2
#     Edge 60, Type (0, 0), BuildingBlock: AJUNOK_clean_linker_0, # of connection points: 2
#     Edge 61, Type (0, 0), BuildingBlock: AJUNOK_clean_linker_0, # of connection points: 2
#     Edge 62, Type (0, 0), BuildingBlock: AJUNOK_clean_linker_0, # of connection points: 2
#     Edge 63, Type (0, 0), BuildingBlock: AJUNOK_clean_linker_0, # of connection points: 2
#     Edge 64, Type (0, 0), BuildingBlock: AJUNOK_clean_linker_0, # of connection points: 2
#     Edge 65, Type (0, 0), BuildingBlock: AJUNOK_clean_linker_0, # of connection points: 2
#     Edge 66, Type (0, 0), BuildingBlock: AJUNOK_clean_linker_0, # of connection points: 2
#     Edge 67, Type (0, 0), BuildingBlock: AJUNOK_clean_linker_0, # of connection points: 2
#     Edge 68, Type (0, 0), BuildingBlock: AJUNOK_clean_linker_0, # of connection points: 2
#     Edge 69, Type (0, 0), BuildingBlock: AJUNOK_clean_linker_0, # of connection points: 2
#     Edge 70, Type (0, 0), BuildingBlock: AJUNOK_clean_linker_0, # of connection points: 2
#     Edge 71, Type (0, 0), BuildingBlock: AJUNOK_clean_linker_0, # of connection points: 2
#     Edge 72, Type (0, 0), BuildingBlock: AJUNOK_clean_linker_0, # of connection points: 2
#     Edge 73, Type (0, 0), BuildingBlock: AJUNOK_clean_linker_0, # of connection points: 2
#     Edge 74, Type (0, 0), BuildingBlock: AJUNOK_clean_linker_0, # of connection points: 2
#     Edge 75, Type (0, 0), BuildingBlock: AJUNOK_clean_linker_0, # of connection points: 2
#     Edge 76, Type (0, 0), BuildingBlock: AJUNOK_clean_linker_0, # of connection points: 2
#     Edge 77, Type (0, 0), BuildingBlock: AJUNOK_clean_linker_0, # of connection points: 2
#     Edge 78, Type (0, 0), BuildingBlock: AJUNOK_clean_linker_0, # of connection points: 2
#     Edge 79, Type (0, 0), BuildingBlock: AJUNOK_clean_linker_0, # of connection points: 2
#     Edge 80, Type (0, 0), BuildingBlock: AJUNOK_clean_linker_0, # of connection points: 2
#     Edge 81, Type (0, 0), BuildingBlock: AJUNOK_clean_linker_0, # of connection points: 2
#     Edge 82, Type (0, 0), BuildingBlock: AJUNOK_clean_linker_0, # of connection points: 2
#     Edge 83, Type (0, 0), BuildingBlock: AJUNOK_clean_linker_0, # of connection points: 2
#     Edge 84, Type (0, 0), BuildingBlock: AJUNOK_clean_linker_0, # of connection points: 2
#     Edge 85, Type (0, 0), BuildingBlock: AJUNOK_clean_linker_0, # of connection points: 2
#     Edge 86, Type (0, 0), BuildingBlock: AJUNOK_clean_linker_0, # of connection points: 2
#     Edge 87, Type (0, 0), BuildingBlock: AJUNOK_clean_linker_0, # of connection points: 2
#     Edge 88, Type (0, 0), BuildingBlock: AJUNOK_clean_linker_0, # of connection points: 2
#     Edge 89, Type (0, 0), BuildingBlock: AJUNOK_clean_linker_0, # of connection points: 2
#     Edge 90, Type (0, 0), BuildingBlock: AJUNOK_clean_linker_0, # of connection points: 2
#     Edge 91, Type (0, 0), BuildingBlock: AJUNOK_clean_linker_0, # of connection points: 2
#     Edge 92, Type (0, 0), BuildingBlock: AJUNOK_clean_linker_0, # of connection points: 2
#     Edge 93, Type (0, 0), BuildingBlock: AJUNOK_clean_linker_0, # of connection points: 2
#     Edge 94, Type (0, 0), BuildingBlock: AJUNOK_clean_linker_0, # of connection points: 2
#     Edge 95, Type (0, 0), BuildingBlock: AJUNOK_clean_linker_0, # of connection points: 2
#     Edge 96, Type (0, 0), BuildingBlock: AJUNOK_clean_linker_0, # of connection points: 2
#     Edge 97, Type (0, 0), BuildingBlock: AJUNOK_clean_linker_0, # of connection points: 2
#     Edge 98, Type (0, 0), BuildingBlock: AJUNOK_clean_linker_0, # of connection points: 2
#     Edge 99, Type (0, 0), BuildingBlock: AJUNOK_clean_linker_0, # of connection points: 2
#     Edge 100, Type (0, 0), BuildingBlock: AJUNOK_clean_linker_0, # of connection points: 2
#     Edge 101, Type (0, 0), BuildingBlock: AJUNOK_clean_linker_0, # of connection points: 2
#     Edge 102, Type (0, 0), BuildingBlock: AJUNOK_clean_linker_0, # of connection points: 2
#     Edge 103, Type (0, 0), BuildingBlock: AJUNOK_clean_linker_0, # of connection points: 2
#     Edge 104, Type (0, 0), BuildingBlock: AJUNOK_clean_linker_0, # of connection points: 2
#     Edge 105, Type (0, 0), BuildingBlock: AJUNOK_clean_linker_0, # of connection points: 2
#     Edge 106, Type (0, 0), BuildingBlock: AJUNOK_clean_linker_0, # of connection points: 2
#     Edge 107, Type (0, 0), BuildingBlock: AJUNOK_clean_linker_0, # of connection points: 2
#     Edge 108, Type (0, 0), BuildingBlock: AJUNOK_clean_linker_0, # of connection points: 2
#     Edge 109, Type (0, 0), BuildingBlock: AJUNOK_clean_linker_0, # of connection points: 2
#     Edge 110, Type (0, 0), BuildingBlock: AJUNOK_clean_linker_0, # of connection points: 2
#     Edge 111, Type (0, 0), BuildingBlock: AJUNOK_clean_linker_0, # of connection points: 2
#     Edge 112, Type (0, 0), BuildingBlock: AJUNOK_clean_linker_0, # of connection points: 2
#     Edge 113, Type (0, 0), BuildingBlock: AJUNOK_clean_linker_0, # of connection points: 2
#     Edge 114, Type (0, 0), BuildingBlock: AJUNOK_clean_linker_0, # of connection points: 2
#     Edge 115, Type (0, 0), BuildingBlock: AJUNOK_clean_linker_0, # of connection points: 2
#     Edge 116, Type (0, 0), BuildingBlock: AJUNOK_clean_linker_0, # of connection points: 2
#     Edge 117, Type (0, 0), BuildingBlock: AJUNOK_clean_linker_0, # of connection points: 2
#     Edge 118, Type (0, 0), BuildingBlock: AJUNOK_clean_linker_0, # of connection points: 2
#     Edge 119, Type (0, 0), BuildingBlock: AJUNOK_clean_linker_0, # of connection points: 2
#     Edge 120, Type (0, 0), BuildingBlock: AJUNOK_clean_linker_0, # of connection points: 2
#     Edge 121, Type (0, 0), BuildingBlock: AJUNOK_clean_linker_0, # of connection points: 2
#     Edge 122, Type (0, 0), BuildingBlock: AJUNOK_clean_linker_0, # of connection points: 2
#     Edge 123, Type (0, 0), BuildingBlock: AJUNOK_clean_linker_0, # of connection points: 2
#     Edge 124, Type (0, 0), BuildingBlock: AJUNOK_clean_linker_0, # of connection points: 2
#     Edge 125, Type (0, 0), BuildingBlock: AJUNOK_clean_linker_0, # of connection points: 2
#     Edge 126, Type (0, 0), BuildingBlock: AJUNOK_clean_linker_0, # of connection points: 2
#     Edge 127, Type (0, 0), BuildingBlock: AJUNOK_clean_linker_0, # of connection points: 2
#     Edge 128, Type (0, 0), BuildingBlock: AJUNOK_clean_linker_0, # of connection points: 2
#     Edge 129, Type (0, 0), BuildingBlock: AJUNOK_clean_linker_0, # of connection points: 2
#     Edge 130, Type (0, 0), BuildingBlock: AJUNOK_clean_linker_0, # of connection points: 2
#     Edge 131, Type (0, 0), BuildingBlock: AJUNOK_clean_linker_0, # of connection points: 2
#     Edge 132, Type (0, 0), BuildingBlock: AJUNOK_clean_linker_0, # of connection points: 2
#     Edge 133, Type (0, 0), BuildingBlock: AJUNOK_clean_linker_0, # of connection points: 2
#     Edge 134, Type (0, 0), BuildingBlock: AJUNOK_clean_linker_0, # of connection points: 2
#     Edge 135, Type (0, 0), BuildingBlock: AJUNOK_clean_linker_0, # of connection points: 2
#     Edge 136, Type (0, 0), BuildingBlock: AJUNOK_clean_linker_0, # of connection points: 2
#     Edge 137, Type (0, 0), BuildingBlock: AJUNOK_clean_linker_0, # of connection points: 2
#     Edge 138, Type (0, 0), BuildingBlock: AJUNOK_clean_linker_0, # of connection points: 2
#     Edge 139, Type (0, 0), BuildingBlock: AJUNOK_clean_linker_0, # of connection points: 2
#     Edge 140, Type (0, 0), BuildingBlock: AJUNOK_clean_linker_0, # of connection points: 2
#     Edge 141, Type (0, 0), BuildingBlock: AJUNOK_clean_linker_0, # of connection points: 2
#     Edge 142, Type (0, 0), BuildingBlock: AJUNOK_clean_linker_0, # of connection points: 2
#     Edge 143, Type (0, 0), BuildingBlock: AJUNOK_clean_linker_0, # of connection points: 2
#     Edge 144, Type (0, 0), BuildingBlock: AJUNOK_clean_linker_0, # of connection points: 2
#     Edge 145, Type (0, 0), BuildingBlock: AJUNOK_clean_linker_0, # of connection points: 2
#     Edge 146, Type (0, 0), BuildingBlock: AJUNOK_clean_linker_0, # of connection points: 2
#     Edge 147, Type (0, 0), BuildingBlock: AJUNOK_clean_linker_0, # of connection points: 2
#     Edge 148, Type (0, 0), BuildingBlock: AJUNOK_clean_linker_0, # of connection points: 2
#     Edge 149, Type (0, 0), BuildingBlock: AJUNOK_clean_linker_0, # of connection points: 2
#     Edge 150, Type (0, 0), BuildingBlock: AJUNOK_clean_linker_0, # of connection points: 2
#     Edge 151, Type (0, 0), BuildingBlock: AJUNOK_clean_linker_0, # of connection points: 2
#     Edge 152, Type (0, 0), BuildingBlock: AJUNOK_clean_linker_0, # of connection points: 2
#     Edge 153, Type (0, 0), BuildingBlock: AJUNOK_clean_linker_0, # of connection points: 2
#     Edge 154, Type (0, 0), BuildingBlock: AJUNOK_clean_linker_0, # of connection points: 2
#     Edge 155, Type (0, 0), BuildingBlock: AJUNOK_clean_linker_0, # of connection points: 2
#     Edge 156, Type (0, 0), BuildingBlock: AJUNOK_clean_linker_0, # of connection points: 2
#     Edge 157, Type (0, 0), BuildingBlock: AJUNOK_clean_linker_0, # of connection points: 2
#     Edge 158, Type (0, 0), BuildingBlock: AJUNOK_clean_linker_0, # of connection points: 2
#     Edge 159, Type (0, 0), BuildingBlock: AJUNOK_clean_linker_0, # of connection points: 2
#     Edge 160, Type (0, 0), BuildingBlock: AJUNOK_clean_linker_0, # of connection points: 2
#     Edge 161, Type (0, 0), BuildingBlock: AJUNOK_clean_linker_0, # of connection points: 2
#     Edge 162, Type (0, 0), BuildingBlock: AJUNOK_clean_linker_0, # of connection points: 2
#     Edge 163, Type (0, 0), BuildingBlock: AJUNOK_clean_linker_0, # of connection points: 2
#     Edge 164, Type (0, 0), BuildingBlock: AJUNOK_clean_linker_0, # of connection points: 2
#     Edge 165, Type (0, 0), BuildingBlock: AJUNOK_clean_linker_0, # of connection points: 2
#     Edge 166, Type (0, 0), BuildingBlock: AJUNOK_clean_linker_0, # of connection points: 2
#     Edge 167, Type (0, 0), BuildingBlock: AJUNOK_clean_linker_0, # of connection points: 2
# Relax obj value: 0.519
# Max RMSD: 0.277
# Mean RMSD: 0.277
data_MOF--net-fcl--node1-BEQFEK_clean_sbu_0--edge1-AJUNOK_clean_linker_0
_symmetry_space_group_name_H-M    P1
_symmetry_Int_Tables_number       1
_symmetry_cell_setting            triclinic
loop_
_symmetry_equiv_pos_as_xyz
'x, y, z'
_cell_length_a     50.677565
_cell_length_b     50.757474
_cell_length_c     50.691212
_cell_angle_alpha  89.960609
_cell_angle_beta   89.977625
_cell_angle_gamma 90.011591
loop_
_atom_site_label
_atom_site_type_symbol
_atom_site_fract_x
_atom_site_fract_y
_atom_site_fract_z
_atom_type_partial_charge
Co0 Co 0.04188 0.15088 0.48097 0.0
Co1 Co 0.0251 0.16113 0.42238 0.0
C2 C 0.01568 0.20137 0.4658 0.0
O3 O 0.0265 0.18749 0.484 0.0
O4 O 0.01362 0.19295 0.44208 0.0
C5 C 0.04497 0.13268 0.53815 0.0
O6 O 0.02806 0.15069 0.54594 0.0
C7 C 0.99197 0.16516 0.37456 0.0
C8 C 0.01884 0.14539 0.34643 0.0
C9 C 0.9934 0.15474 0.34932 0.0
N10 N 0.0154 0.16124 0.38632 0.0
N11 N 0.0316 0.15034 0.36905 0.0
C12 C 0.96805 0.17575 0.38824 0.0
H13 H 0.97011 0.17376 0.40996 0.0
H14 H 0.94993 0.16562 0.3813 0.0
H15 H 0.96608 0.19699 0.38342 0.0
C16 C 0.99937 0.11047 0.47502 0.0
N17 N 0.01643 0.12811 0.46453 0.0
N18 N 0.01146 0.13041 0.43917 0.0
C19 C 0.99201 0.11329 0.43264 0.0
C20 C 0.98331 0.10059 0.45523 0.0
C21 C 0.99718 0.10437 0.50379 0.0
H22 H 0.01549 0.09439 0.51036 0.0
H23 H 0.99486 0.12296 0.515 0.0
H24 H 0.98024 0.09119 0.50809 0.0
O25 O 0.07642 0.15473 0.46137 0.0
O26 O 0.06348 0.16301 0.42067 0.0
H27 H 0.99567 0.11318 0.39048 0.0
H28 H 0.97193 0.09018 0.4031 0.0
C29 C 0.98038 0.11013 0.40573 0.0
H30 H 0.96404 0.12433 0.40319 0.0
H31 H 0.05075 0.1442 0.37342 0.0
O32 O 0.05212 0.13213 0.51412 0.0
C33 C 0.08173 0.16044 0.43747 0.0
Co34 Co 0.11748 0.7915 0.73294 0.0
Co35 Co 0.10955 0.77408 0.67414 0.0
C36 C 0.06717 0.76619 0.71655 0.0
O37 O 0.08043 0.77668 0.73542 0.0
O38 O 0.07678 0.76397 0.69328 0.0
C39 C 0.13709 0.7971 0.79024 0.0
O40 O 0.1181 0.78263 0.80034 0.0
C41 C 0.10693 0.73922 0.62752 0.0
C42 C 0.12373 0.76628 0.59769 0.0
C43 C 0.116 0.74052 0.60177 0.0
N44 N 0.10981 0.76319 0.63839 0.0
N45 N 0.11906 0.77941 0.62018 0.0
C46 C 0.09806 0.71523 0.6422 0.0
H47 H 0.10002 0.71824 0.66381 0.0
H48 H 0.10941 0.69765 0.63582 0.0
H49 H 0.07698 0.71158 0.63759 0.0
C50 C 0.15671 0.7477 0.72907 0.0
N51 N 0.14011 0.76521 0.71766 0.0
N52 N 0.13941 0.76057 0.69218 0.0
C53 C 0.15677 0.74112 0.6865 0.0
C54 C 0.16773 0.73181 0.70971 0.0
C55 C 0.16089 0.74516 0.75815 0.0
H56 H 0.17293 0.76203 0.76503 0.0
H57 H 0.14157 0.74557 0.76841 0.0
H58 H 0.17152 0.72677 0.76331 0.0
O59 O 0.11408 0.82577 0.71241 0.0
O60 O 0.10856 0.81216 0.67145 0.0
H61 H 0.18365 0.72522 0.6579 0.0
H62 H 0.15079 0.71284 0.65591 0.0
C63 C 0.16257 0.73084 0.65955 0.0
H64 H 0.1583 0.74609 0.64457 0.0
H65 H 0.12405 0.79905 0.62363 0.0
O66 O 0.13708 0.80197 0.76564 0.0
C67 C 0.10973 0.83062 0.68811 0.0
Co68 Co 0.47909 0.86689 0.98542 0.0
Co69 Co 0.49867 0.85353 0.9279 0.0
C70 C 0.50136 0.81281 0.96994 0.0
O71 O 0.49095 0.82836 0.98709 0.0
O72 O 0.50672 0.8202 0.94635 0.0
C73 C 0.47629 0.885 0.04273 0.0
O74 O 0.4935 0.86722 0.05036 0.0
C75 C 0.52722 0.85131 0.87581 0.0
C76 C 0.50128 0.87947 0.85492 0.0
C77 C 0.525 0.86631 0.85297 0.0
N78 N 0.5062 0.85661 0.89118 0.0
N79 N 0.49036 0.87255 0.87795 0.0
C80 C 0.55005 0.83441 0.88375 0.0
H81 H 0.54849 0.82865 0.90483 0.0
H82 H 0.56893 0.84483 0.87994 0.0
H83 H 0.55004 0.81635 0.87143 0.0
C84 C 0.52244 0.90689 0.98019 0.0
N85 N 0.50635 0.88817 0.96994 0.0
N86 N 0.51442 0.8826 0.94594 0.0
C87 C 0.53583 0.89755 0.94034 0.0
C88 C 0.54164 0.91338 0.96179 0.0
C89 C 0.52019 0.91793 1.00741 0.0
H90 H 0.49987 0.92529 0.01054 0.0
H91 H 0.52444 0.90219 0.02197 0.0
H92 H 0.53416 0.93446 0.0106 0.0
O93 O 0.44508 0.86635 0.96522 0.0
O94 O 0.46006 0.85335 0.92661 0.0
H95 H 0.54081 0.89739 0.89872 0.0
H96 H 0.56979 0.9079 0.9162 0.0
C97 C 0.55284 0.89413 0.91657 0.0
H98 H 0.56079 0.87389 0.91667 0.0
H99 H 0.4731 0.88068 0.88565 0.0
O100 O 0.46881 0.88534 0.01879 0.0
C101 C 0.44096 0.8587 0.9417 0.0
Co102 Co 0.40168 0.23068 0.22811 0.0
Co103 Co 0.40954 0.24683 0.16854 0.0
C104 C 0.45281 0.25322 0.21042 0.0
O105 O 0.43915 0.2444 0.22987 0.0
O106 O 0.44286 0.25552 0.18731 0.0
C107 C 0.3833 0.2273 0.28582 0.0
O108 O 0.40218 0.24302 0.29405 0.0
C109 C 0.4114 0.28237 0.12223 0.0
C110 C 0.39521 0.25522 0.09236 0.0
C111 C 0.40149 0.28149 0.0965 0.0
N112 N 0.40958 0.25809 0.13274 0.0
N113 N 0.40085 0.24183 0.11442 0.0
C114 C 0.42299 0.30539 0.13663 0.0
H115 H 0.40872 0.31316 0.15121 0.0
H116 H 0.42875 0.32129 0.12273 0.0
H117 H 0.44059 0.29882 0.14787 0.0
C118 C 0.36238 0.27429 0.22334 0.0
N119 N 0.37938 0.25694 0.21232 0.0
N120 N 0.37988 0.26093 0.1867 0.0
C121 C 0.36183 0.27964 0.18056 0.0
C122 C 0.35073 0.28921 0.20362 0.0
C123 C 0.35816 0.27745 0.25235 0.0
H124 H 0.3775 0.2778 0.26254 0.0
H125 H 0.34713 0.29573 0.25701 0.0
H126 H 0.34655 0.26046 0.25973 0.0
O127 O 0.40453 0.19621 0.20783 0.0
O128 O 0.40963 0.20861 0.1663 0.0
H129 H 0.36043 0.27333 0.13858 0.0
H130 H 0.33318 0.29163 0.15177 0.0
C131 C 0.35475 0.28836 0.15329 0.0
H132 H 0.36428 0.30748 0.14898 0.0
H133 H 0.3967 0.22195 0.1176 0.0
O134 O 0.38254 0.22074 0.26159 0.0
C135 C 0.40849 0.19067 0.1836 0.0
Co136 Co 0.04086 0.86432 0.03431 0.0
Co137 Co 0.02924 0.86021 0.09441 0.0
C138 C 0.02012 0.81466 0.05452 0.0
O139 O 0.0263 0.82767 0.03369 0.0
O140 O 0.02072 0.82542 0.07741 0.0
C141 C 0.04515 0.88328 0.97651 0.0
O142 O 0.03051 0.86436 0.96658 0.0
C143 C 0.99626 0.85757 0.14194 0.0
C144 C 0.02287 0.87771 0.17007 0.0
C145 C 0.99745 0.86834 0.16704 0.0
N146 N 0.01983 0.86123 0.13043 0.0
N147 N 0.03587 0.87245 0.14764 0.0
C148 C 0.97248 0.84709 0.12793 0.0
H149 H 0.97476 0.84934 0.10626 0.0
H150 H 0.95427 0.85712 0.13479 0.0
H151 H 0.97052 0.82579 0.13242 0.0
C152 C 0.99652 0.90263 0.03912 0.0
N153 N 0.01519 0.88719 0.05026 0.0
N154 N 0.0123 0.8879 0.07599 0.0
C155 C 0.99268 0.90499 0.08202 0.0
C156 C 0.98153 0.9143 0.05884 0.0
C157 C 0.99244 0.90538 0.01003 0.0
H158 H 1.00851 0.9177 1.00178 0.0
H159 H 0.99323 0.88568 1.00061 0.0
H160 H 0.97339 0.91505 1.00531 0.0
O161 O 0.07602 0.86005 0.05285 0.0
O162 O 0.06747 0.86329 0.09538 0.0
H163 H 1.0001 0.90902 0.12361 0.0
H164 H 0.97767 0.9329 0.11017 0.0
C165 C 0.9839 0.91199 0.1093 0.0
H166 H 0.96653 0.89992 0.11476 0.0
H167 H 0.05509 0.87845 0.14339 0.0
O168 O 0.0502 0.88334 1.00105 0.0
C169 C 0.08377 0.86042 0.07675 0.0
Co170 Co 0.40185 0.79157 0.28654 0.0
Co171 Co 0.41152 0.77383 0.34535 0.0
C172 C 0.45442 0.76934 0.30478 0.0
O173 O 0.43998 0.77862 0.28608 0.0
O174 O 0.44554 0.76548 0.32816 0.0
C175 C 0.38521 0.79456 0.22853 0.0
O176 O 0.40413 0.77858 0.22093 0.0
C177 C 0.41492 0.74618 0.39758 0.0
C178 C 0.38525 0.77052 0.41836 0.0
C179 C 0.40065 0.74822 0.42099 0.0
N180 N 0.40742 0.76603 0.38166 0.0
N181 N 0.39028 0.7808 0.39457 0.0
C182 C 0.43579 0.72641 0.3908 0.0
H183 H 0.44894 0.73431 0.37517 0.0
H184 H 0.42676 0.70797 0.38345 0.0
H185 H 0.44746 0.72144 0.40865 0.0
C186 C 0.36217 0.7479 0.29099 0.0
N187 N 0.37968 0.76489 0.30188 0.0
N188 N 0.3832 0.75827 0.32668 0.0
C189 C 0.36782 0.73725 0.33241 0.0
C190 C 0.35414 0.72985 0.30996 0.0
C191 C 0.3542 0.74793 0.26262 0.0
H192 H 0.34506 0.76715 0.25779 0.0
H193 H 0.37193 0.74517 0.25012 0.0
H194 H 0.33973 0.73214 0.2582 0.0
O195 O 0.4035 0.82616 0.30619 0.0
O196 O 0.41177 0.81202 0.34643 0.0
H197 H 0.36395 0.73533 0.37437 0.0
H198 H 0.35526 0.70512 0.3579 0.0
C199 C 0.36895 0.72214 0.3577 0.0
H200 H 0.38918 0.71456 0.36035 0.0
H201 H 0.38074 0.79713 0.38647 0.0
O202 O 0.38385 0.80132 0.25265 0.0
C203 C 0.40913 0.83072 0.33023 0.0
Co204 Co 0.47786 0.15142 0.53537 0.0
Co205 Co 0.49392 0.16086 0.59427 0.0
C206 C 0.49868 0.20342 0.55183 0.0
O207 O 0.49071 0.18892 0.5327 0.0
O208 O 0.50118 0.1945 0.57534 0.0
C209 C 0.47506 0.13337 0.47819 0.0
O210 O 0.49056 0.15257 0.47031 0.0
C211 C 0.52757 0.16502 0.64152 0.0
C212 C 0.50075 0.14623 0.6704 0.0
C213 C 0.52631 0.15504 0.66694 0.0
N214 N 0.50389 0.16138 0.6302 0.0
N215 N 0.48774 0.15108 0.64791 0.0
C216 C 0.55146 0.17492 0.62726 0.0
H217 H 0.54904 0.17251 0.60563 0.0
H218 H 0.56952 0.16467 0.6342 0.0
H219 H 0.55383 0.19622 0.63155 0.0
C220 C 0.52269 0.11328 0.54043 0.0
N221 N 0.50487 0.12993 0.55127 0.0
N222 N 0.50956 0.13165 0.57671 0.0
C223 C 0.52945 0.11492 0.58297 0.0
C224 C 0.53895 0.10338 0.5601 0.0
C225 C 0.52489 0.10761 0.51158 0.0
H226 H 0.50713 0.09662 0.50517 0.0
H227 H 0.52596 0.12642 0.50051 0.0
H228 H 0.54248 0.09547 0.50695 0.0
O229 O 0.44309 0.15416 0.55525 0.0
O230 O 0.45584 0.15962 0.59648 0.0
H231 H 0.54646 0.08936 0.61226 0.0
H232 H 0.55722 0.12273 0.61371 0.0
C233 C 0.53981 0.11006 0.61015 0.0
H234 H 0.52432 0.11378 0.62504 0.0
H235 H 0.4684 0.14525 0.64398 0.0
O236 O 0.46818 0.13224 0.5023 0.0
C237 C 0.43771 0.15826 0.57947 0.0
Co238 Co 0.11697 0.22721 0.78648 0.0
Co239 Co 0.1113 0.24178 0.84635 0.0
C240 C 0.0668 0.25054 0.80667 0.0
O241 O 0.07969 0.24185 0.78663 0.0
O242 O 0.07743 0.25206 0.82957 0.0
C243 C 0.13458 0.22379 0.72817 0.0
O244 O 0.11607 0.23957 0.71925 0.0
C245 C 0.10887 0.27187 0.89642 0.0
C246 C 0.13331 0.24532 0.92095 0.0
C247 C 0.12123 0.26975 0.92087 0.0
N248 N 0.11438 0.25 0.88257 0.0
N249 N 0.12832 0.23397 0.89764 0.0
C250 C 0.09161 0.29369 0.88652 0.0
H251 H 0.0755 0.2854 0.87424 0.0
H252 H 0.10312 0.30726 0.87387 0.0
H253 H 0.08309 0.30502 0.9032 0.0
C254 C 0.15687 0.27034 0.79092 0.0
N255 N 0.14038 0.2526 0.80212 0.0
N256 N 0.13996 0.25669 0.8277 0.0
C257 C 0.15707 0.27629 0.83363 0.0
C258 C 0.16785 0.28601 0.81047 0.0
C259 C 0.161 0.27332 0.76186 0.0
H260 H 0.14161 0.27431 0.75181 0.0
H261 H 0.17266 0.29118 0.75703 0.0
H262 H 0.17193 0.25592 0.75446 0.0
O263 O 0.11401 0.19204 0.80522 0.0
O264 O 0.11033 0.20372 0.84697 0.0
H265 H 0.1613 0.27107 0.87543 0.0
H266 H 0.18136 0.29692 0.86188 0.0
C267 C 0.16187 0.28709 0.86065 0.0
H268 H 0.14668 0.30201 0.86529 0.0
H269 H 0.1359 0.21591 0.89139 0.0
O270 O 0.13499 0.21788 0.75255 0.0
C271 C 0.11051 0.18611 0.82939 0.0
Co272 Co 0.48303 0.04256 0.15154 0.0
Co273 Co 0.42332 0.02752 0.15805 0.0
C274 C 0.46381 0.02099 0.20252 0.0
O275 O 0.48374 0.02927 0.18923 0.0
O276 O 0.44086 0.01915 0.19211 0.0
C277 C 0.54089 0.04431 0.13514 0.0
O278 O 0.54773 0.02797 0.15404 0.0
C279 C 0.37613 0.99351 0.16088 0.0
C280 C 0.34743 0.01975 0.14113 0.0
C281 C 0.35088 0.99441 0.15045 0.0
N282 N 0.38737 0.0172 0.15714 0.0
N283 N 0.36978 0.033 0.14615 0.0
C284 C 0.39026 0.96994 0.17157 0.0
H285 H 0.41195 0.97252 0.16981 0.0
H286 H 0.38383 0.95173 0.16129 0.0
H287 H 0.38526 0.96776 0.19277 0.0
C288 C 0.47899 0.99785 0.11319 0.0
N289 N 0.46773 0.01597 0.12921 0.0
N290 N 0.44211 0.01191 0.12959 0.0
C291 C 0.43628 0.99208 0.11272 0.0
C292 C 0.45948 0.98197 0.10244 0.0
C293 C 0.50803 0.99503 0.10885 0.0
H294 H 0.51537 0.01269 0.09829 0.0
H295 H 0.51815 0.99351 0.12816 0.0
H296 H 0.51284 0.97748 0.09674 0.0
O297 O 0.46329 0.07734 0.1529 0.0
O298 O 0.42149 0.06576 0.15692 0.0
H299 H 0.40778 0.9756 0.08594 0.0
H300 H 0.40466 0.965 0.11931 0.0
C301 C 0.40916 0.98225 0.10672 0.0
H302 H 0.39452 0.99809 0.10977 0.0
H303 H 0.37371 0.05227 0.14016 0.0
O304 O 0.51705 0.05202 0.13365 0.0
C305 C 0.43903 0.08343 0.1557 0.0
Co306 Co 0.2281 0.23496 0.40008 0.0
Co307 Co 0.2449 0.1761 0.40855 0.0
C308 C 0.2497 0.21638 0.45236 0.0
O309 O 0.2411 0.23561 0.4382 0.0
O310 O 0.25285 0.19312 0.44298 0.0
C311 C 0.22144 0.29296 0.38131 0.0
O312 O 0.23394 0.30401 0.40113 0.0
C313 C 0.2739 0.12534 0.41274 0.0
C314 C 0.25077 0.10298 0.38322 0.0
C315 C 0.27326 0.10182 0.39858 0.0
N316 N 0.2533 0.14004 0.40494 0.0
N317 N 0.23919 0.12621 0.38796 0.0
C318 C 0.29263 0.13341 0.43411 0.0
H319 H 0.28124 0.1413 0.45106 0.0
H320 H 0.30556 0.14956 0.42707 0.0
H321 H 0.30485 0.11652 0.44078 0.0
C322 C 0.27192 0.23106 0.36057 0.0
N323 N 0.25488 0.21988 0.37788 0.0
N324 N 0.26085 0.19484 0.38034 0.0
C325 C 0.28134 0.18918 0.36414 0.0
C326 C 0.28918 0.21196 0.35121 0.0
C327 C 0.2726 0.25978 0.35404 0.0
H328 H 0.2547 0.26486 0.34258 0.0
H329 H 0.27262 0.27146 0.37252 0.0
H330 H 0.29012 0.26505 0.34204 0.0
O331 O 0.19328 0.21539 0.40186 0.0
O332 O 0.20669 0.17458 0.40803 0.0
H333 H 0.28109 0.14733 0.35931 0.0
H334 H 0.31107 0.16284 0.34813 0.0
C335 C 0.29538 0.16332 0.36336 0.0
H336 H 0.30469 0.15989 0.38274 0.0
H337 H 0.2225 0.13335 0.37827 0.0
O338 O 0.21848 0.26811 0.381 0.0
C339 C 0.18825 0.19121 0.40627 0.0
Co340 Co 0.0368 0.97717 0.64971 0.0
Co341 Co 0.09594 0.99367 0.65949 0.0
C342 C 0.05536 0.9989 0.70232 0.0
O343 O 0.03653 0.99009 0.68777 0.0
O344 O 0.07886 1.00225 0.69354 0.0
C345 C 0.97898 0.97638 0.63299 0.0
O346 O 0.97241 0.99399 0.6508 0.0
C347 C 0.1483 0.02115 0.66286 0.0
C348 C 0.16868 0.99738 0.63249 0.0
C349 C 0.17146 0.01954 0.64807 0.0
N350 N 0.13236 1.0013 0.65538 0.0
N351 N 0.14507 0.98683 0.63785 0.0
C352 C 0.14175 0.04047 0.68422 0.0
H353 H 0.12779 0.03146 0.69849 0.0
H354 H 0.13223 0.05822 0.67584 0.0
H355 H 0.16001 0.04679 0.69454 0.0
C356 C 0.0422 0.02006 0.60929 0.0
N357 N 0.05263 1.00333 0.62732 0.0
N358 N 0.07747 0.00974 0.63111 0.0
C359 C 0.08356 0.03054 0.61552 0.0
C360 C 0.06139 0.03787 0.60135 0.0
C361 C 0.01411 0.01986 0.60036 0.0
H362 H 1.00923 1.00008 0.59255 0.0
H363 H 1.0011 0.02431 0.61735 0.0
H364 H 0.01049 0.03455 0.58456 0.0
O365 O 0.05585 0.94238 0.65099 0.0
O366 O 0.09651 0.95522 0.65951 0.0
H367 H 0.12551 0.03216 0.61151 0.0
H368 H 0.10923 0.06256 0.6031 0.0
C369 C 0.10897 0.04544 0.61667 0.0
H370 H 0.11176 0.05286 0.63692 0.0
H371 H 0.13689 0.97062 0.62821 0.0
O372 O 1.00259 0.96792 0.63227 0.0
C373 C 0.07978 0.93702 0.65638 0.0
Co374 Co 0.29391 0.78726 0.90064 0.0
Co375 Co 0.27885 0.84675 0.90717 0.0
C376 C 0.27085 0.80627 0.95121 0.0
O377 O 0.27945 0.78649 0.93793 0.0
O378 O 0.26929 0.82928 0.94093 0.0
C379 C 0.29627 0.72937 0.88428 0.0
O380 O 0.28034 0.72221 0.90344 0.0
C381 C 0.24629 0.89471 0.91007 0.0
C382 C 0.27278 0.9221 0.88875 0.0
C383 C 0.24759 0.91961 0.89887 0.0
N384 N 0.26954 0.88276 0.90589 0.0
N385 N 0.28555 0.89957 0.89401 0.0
C386 C 0.22261 0.88136 0.9216 0.0
H387 H 0.22459 0.85963 0.9201 0.0
H388 H 0.20426 0.88806 0.91169 0.0
H389 H 0.22114 0.88665 0.94278 0.0
C390 C 0.25033 0.79191 0.86093 0.0
N391 N 0.26804 0.80296 0.87757 0.0
N392 N 0.26384 0.8285 0.87823 0.0
C393 C 0.24435 0.83456 0.86098 0.0
C394 C 0.23478 0.81153 0.8499 0.0
C395 C 0.24721 0.76293 0.85676 0.0
H396 H 0.26465 0.75542 0.84593 0.0
H397 H 0.24604 0.75287 0.87613 0.0
H398 H 0.22932 0.75825 0.84505 0.0
O399 O 0.32901 0.80646 0.90378 0.0
O400 O 0.31697 0.84807 0.90715 0.0
H401 H 0.2494 0.87649 0.8583 0.0
H402 H 0.22522 0.86329 0.83607 0.0
C403 C 0.23363 0.86159 0.85617 0.0
H404 H 0.21741 0.86554 0.87022 0.0
H405 H 0.30454 0.89492 0.88755 0.0
O406 O 0.30341 0.75334 0.88262 0.0
C407 C 0.33479 0.8307 0.90704 0.0
Co408 Co 0.484 0.97748 0.36673 0.0
Co409 Co 0.42431 0.99275 0.36092 0.0
C410 C 0.46382 1.00141 0.31649 0.0
O411 O 0.48365 0.99224 0.3294 0.0
O412 O 0.44088 1.00313 0.32703 0.0
C413 C 0.54231 0.97466 0.38364 0.0
O414 O 0.55045 0.99147 0.36568 0.0
C415 C 0.37442 0.02295 0.35788 0.0
C416 C 0.35083 0.99921 0.38594 0.0
C417 C 0.35073 0.02256 0.37185 0.0
N418 N 0.38824 1.00143 0.3647 0.0
N419 N 0.37367 0.98697 0.38075 0.0
C420 C 0.38354 0.0424 0.33759 0.0
H421 H 0.40013 0.05424 0.34547 0.0
H422 H 0.36722 0.05557 0.33131 0.0
H423 H 0.39121 0.03161 0.32018 0.0
C424 C 0.48013 0.02033 0.40713 0.0
N425 N 0.46882 1.00291 0.39035 0.0
N426 N 0.44337 1.00772 0.38938 0.0
C427 C 0.43769 0.02772 0.4061 0.0
C428 C 0.46081 0.03666 0.41749 0.0
C429 C 0.50912 0.02253 0.41204 0.0
H430 H 0.516 1.00441 0.42209 0.0
H431 H 0.51959 0.02458 0.39295 0.0
H432 H 0.51397 0.03961 0.42479 0.0
O433 O 0.4648 0.94258 0.36458 0.0
O434 O 0.4232 0.95459 0.36018 0.0
H435 H 0.39585 0.02529 0.41111 0.0
H436 H 0.41042 0.05398 0.42591 0.0
C437 C 0.4113 0.04049 0.40875 0.0
H438 H 0.4075 0.05217 0.39078 0.0
H439 H 0.38008 0.96954 0.3896 0.0
O440 O 0.51816 0.96786 0.38407 0.0
C441 C 0.44057 0.93679 0.36116 0.0
Co442 Co 0.29062 0.23291 0.6171 0.0
Co443 Co 0.27461 0.17361 0.60838 0.0
C444 C 0.26553 0.21467 0.56597 0.0
O445 O 0.27576 0.23355 0.57954 0.0
O446 O 0.26339 0.19127 0.5753 0.0
C447 C 0.29372 0.29088 0.63495 0.0
O448 O 0.27797 0.29912 0.61611 0.0
C449 C 0.24576 0.1225 0.60577 0.0
C450 C 0.27274 0.09912 0.6309 0.0
C451 C 0.24854 0.09825 0.61838 0.0
N452 N 0.2671 0.13715 0.61149 0.0
N453 N 0.28337 0.12276 0.62588 0.0
C454 C 0.224 0.13151 0.58792 0.0
H455 H 0.21987 0.15274 0.59108 0.0
H456 H 0.20582 0.11965 0.59032 0.0
H457 H 0.23076 0.12936 0.56721 0.0
C458 C 0.24773 0.2275 0.65733 0.0
N459 N 0.265 0.21676 0.64001 0.0
N460 N 0.25966 0.19153 0.63766 0.0
C461 C 0.23939 0.18537 0.65398 0.0
C462 C 0.23096 0.20801 0.66671 0.0
C463 C 0.24613 0.25621 0.66366 0.0
H464 H 0.26452 0.26228 0.67377 0.0
H465 H 0.24414 0.26762 0.64511 0.0
H466 H 0.22925 0.26076 0.67682 0.0
O467 O 0.32563 0.21402 0.61451 0.0
O468 O 0.31299 0.17321 0.60684 0.0
H469 H 0.24113 0.14334 0.65712 0.0
H470 H 0.21233 0.15761 0.67213 0.0
C471 C 0.22612 0.15907 0.65523 0.0
H472 H 0.21453 0.15604 0.63702 0.0
H473 H 0.30109 0.12969 0.63373 0.0
O474 O 0.30016 0.26665 0.63577 0.0
C475 C 0.33112 0.19011 0.60924 0.0
Co476 Co 0.03546 0.03903 0.86594 0.0
Co477 Co 0.095 0.02371 0.85815 0.0
C478 C 0.05377 0.01415 0.81561 0.0
O479 O 0.03455 0.02416 0.82878 0.0
O480 O 0.07707 0.0125 0.82527 0.0
C481 C 0.97751 0.04172 0.88354 0.0
O482 O 0.96938 0.02611 0.86455 0.0
C483 C 0.14426 0.99245 0.85585 0.0
C484 C 0.17049 0.02008 0.87712 0.0
C485 C 0.16901 0.99477 0.86725 0.0
N486 N 0.13136 0.01525 0.85971 0.0
N487 N 0.14751 0.03192 0.87157 0.0
C488 C 0.13215 0.96826 0.84416 0.0
H489 H 0.11028 0.96959 0.84463 0.0
H490 H 0.13896 0.95033 0.8547 0.0
H491 H 0.13856 0.96658 0.8233 0.0
C492 C 0.0407 0.99609 0.9059 0.0
N493 N 0.05157 0.0136 0.88894 0.0
N494 N 0.07712 0.00931 0.8878 0.0
C495 C 0.08335 0.98986 0.90501 0.0
C496 C 0.06044 0.98049 0.9166 0.0
C497 C 0.01173 0.99309 0.91058 0.0
H498 H 1.00451 0.0105 0.9216 0.0
H499 H 1.00132 0.99202 0.89139 0.0
H500 H 1.00714 0.97524 0.92236 0.0
O501 O 0.05441 0.074 0.86314 0.0
O502 O 0.0957 0.0619 0.8567 0.0
H503 H 0.12526 0.99461 0.9071 0.0
H504 H 0.11236 0.96995 0.929 0.0
C505 C 0.11036 0.97884 0.90913 0.0
H506 H 0.11399 0.96301 0.89461 0.0
H507 H 0.14212 0.05074 0.87781 0.0
O508 O 1.00171 0.04832 0.88447 0.0
C509 C 0.07844 0.07975 0.85851 0.0
Co510 Co 0.23082 0.78425 0.11502 0.0
Co511 Co 0.24254 0.84441 0.11092 0.0
C512 C 0.25158 0.80445 0.06532 0.0
O513 O 0.24542 0.78364 0.07831 0.0
O514 O 0.25104 0.82729 0.07616 0.0
C515 C 0.22799 0.72662 0.13292 0.0
O516 O 0.24393 0.71838 0.11422 0.0
C517 C 0.27569 0.89196 0.10858 0.0
C518 C 0.24891 0.92 0.12861 0.0
C519 C 0.27441 0.917 0.11943 0.0
N520 N 0.25208 0.88043 0.11202 0.0
N521 N 0.23596 0.8976 0.12317 0.0
C522 C 0.29957 0.87808 0.09817 0.0
H523 H 0.29731 0.85641 0.10027 0.0
H524 H 0.31769 0.8849 0.1084 0.0
H525 H 0.30169 0.88271 0.07688 0.0
C526 C 0.27479 0.78927 0.15401 0.0
N527 N 0.25635 0.80024 0.13816 0.0
N528 N 0.25919 0.82595 0.13877 0.0
C529 C 0.2785 0.83214 0.15617 0.0
C530 C 0.28955 0.80907 0.1658 0.0
C531 C 0.27885 0.76027 0.15719 0.0
H532 H 0.26214 0.75203 0.16864 0.0
H533 H 0.2793 0.75077 0.13751 0.0
H534 H 0.29733 0.75569 0.16798 0.0
O535 O 0.19573 0.80289 0.11061 0.0
O536 O 0.20427 0.8454 0.11378 0.0
H537 H 0.29317 0.86045 0.18413 0.0
H538 H 0.30445 0.86499 0.15115 0.0
C539 C 0.28706 0.85946 0.16316 0.0
H540 H 0.27078 0.87362 0.16008 0.0
H541 H 0.21669 0.89335 0.12902 0.0
O542 O 0.22128 0.75074 0.13354 0.0
C543 C 0.18799 0.82677 0.11087 0.0
Co544 Co 0.15293 0.48468 0.0373 0.0
Co545 Co 0.16012 0.42514 0.02247 0.0
C546 C 0.20339 0.46552 0.01287 0.0
O547 O 0.1902 0.4849 0.02253 0.0
O548 O 0.19347 0.44232 0.01118 0.0
C549 C 0.13477 0.54295 0.0413 0.0
O550 O 0.15351 0.55295 0.02644 0.0
C551 C 0.16274 0.37372 0.99419 0.0
C552 C 0.137 0.35096 0.02112 0.0
C553 C 0.14994 0.3496 0.99715 0.0
N554 N 0.15672 0.38875 0.01516 0.0
N555 N 0.14195 0.37473 0.03143 0.0
C556 C 0.18096 0.38212 0.97248 0.0
H557 H 0.19628 0.39555 0.98042 0.0
H558 H 0.16993 0.393 0.9571 0.0
H559 H 0.19043 0.36471 0.9632 0.0
C560 C 0.11312 0.47969 0.99435 0.0
N561 N 0.12985 0.46872 0.01199 0.0
N562 N 0.13111 0.44327 1.00751 0.0
C563 C 0.11442 0.43716 0.98758 0.0
C564 C 0.10296 0.4601 0.97821 0.0
C565 C 0.10804 0.50861 0.9919 0.0
H566 H 0.09708 0.51536 0.00957 0.0
H567 H 0.1271 0.51929 0.99088 0.0
H568 H 0.09604 0.51337 0.97424 0.0
O569 O 0.155 0.46633 0.07254 0.0
O570 O 0.16133 0.42505 0.06073 0.0
H571 H 0.11057 0.39529 0.99167 0.0
H572 H 0.09265 0.40886 0.96427 0.0
C573 C 0.11112 0.41033 0.97588 0.0
H574 H 0.12777 0.40629 0.96241 0.0
H575 H 0.13387 0.38198 0.04891 0.0
O576 O 0.13467 0.51839 0.04614 0.0
C577 C 0.15937 0.44236 0.07848 0.0
Co578 Co 0.65181 0.03627 0.97793 0.0
Co579 Co 0.66072 0.09514 0.99514 0.0
C580 C 0.70416 0.05526 1.00013 0.0
O581 O 0.68987 0.03628 0.99122 0.0
O582 O 0.69501 0.07854 1.00355 0.0
C583 C 0.63551 0.97852 0.97721 0.0
O584 O 0.65248 0.97259 0.99588 0.0
C585 C 0.66488 0.14644 0.02343 0.0
C586 C 0.63371 0.16769 1.00144 0.0
C587 C 0.65005 0.16957 0.02317 0.0
N588 N 0.65654 0.13124 1.00341 0.0
N589 N 0.63856 0.14444 0.98994 0.0
C590 C 0.68733 0.13929 0.04127 0.0
H591 H 0.68153 0.12297 0.05458 0.0
H592 H 0.69385 0.15648 0.05311 0.0
H593 H 0.70407 0.13199 0.02919 0.0
C594 C 0.6111 0.0407 0.02101 0.0
N595 N 0.62896 0.05149 1.00426 0.0
N596 N 0.63261 0.07621 0.01105 0.0
C597 C 0.6172 0.08183 0.03212 0.0
C598 C 0.60333 0.05948 0.03934 0.0
C599 C 0.60207 0.01269 0.02035 0.0
H600 H 0.59493 1.00789 1.00027 0.0
H601 H 0.61883 0.99964 0.02543 0.0
H602 H 0.58579 0.00912 0.03456 0.0
O603 O 0.65342 0.05576 0.94316 0.0
O604 O 0.66062 0.09634 0.95684 0.0
H605 H 0.61317 0.12367 0.03423 0.0
H606 H 0.60447 0.10704 0.06434 0.0
C607 C 0.61824 0.10699 0.04736 0.0
H608 H 0.63846 0.10969 0.05498 0.0
H609 H 0.62835 0.13682 0.97378 0.0
O610 O 0.63495 1.00189 0.96816 0.0
C611 C 0.6584 0.07987 0.93831 0.0
Co612 Co 0.23117 0.40416 0.22594 0.0
Co613 Co 0.17161 0.41058 0.24097 0.0
C614 C 0.21339 0.45424 0.24856 0.0
O615 O 0.23337 0.4411 0.24027 0.0
O616 O 0.19042 0.44383 0.24988 0.0
C617 C 0.28851 0.3847 0.22038 0.0
O618 O 0.29858 0.40392 0.23452 0.0
C619 C 0.12689 0.4093 0.27751 0.0
C620 C 0.09512 0.39891 0.24952 0.0
C621 C 0.10104 0.40033 0.27614 0.0
N622 N 0.13617 0.41131 0.25277 0.0
N623 N 0.11676 0.40622 0.23616 0.0
C624 C 0.14347 0.41325 0.30165 0.0
H625 H 0.16477 0.41229 0.29667 0.0
H626 H 0.13855 0.39864 0.31717 0.0
H627 H 0.13927 0.43309 0.30979 0.0
C628 C 0.22651 0.3652 0.26967 0.0
N629 N 0.21543 0.38162 0.25187 0.0
N630 N 0.18969 0.38079 0.25464 0.0
C631 C 0.18358 0.36216 0.27277 0.0
C632 C 0.20673 0.35232 0.28354 0.0
C633 C 0.25558 0.36257 0.27398 0.0
H634 H 0.26388 0.34961 0.25845 0.0
H635 H 0.2651 0.38219 0.27248 0.0
H636 H 0.26011 0.35363 0.29342 0.0
O637 O 0.21102 0.40783 0.19149 0.0
O638 O 0.16901 0.41071 0.20296 0.0
H639 H 0.15571 0.3309 0.27824 0.0
H640 H 0.15089 0.35829 0.29941 0.0
C641 C 0.15631 0.3527 0.27901 0.0
H642 H 0.14185 0.36024 0.26452 0.0
H643 H 0.1189 0.40541 0.21571 0.0
O644 O 0.26388 0.38447 0.2157 0.0
C645 C 0.18677 0.41084 0.18545 0.0
Co646 Co 0.86785 0.98316 0.47649 0.0
Co647 Co 0.8611 0.9239 0.49285 0.0
C648 C 0.8173 0.96393 0.50112 0.0
O649 O 0.83046 0.9833 0.49132 0.0
O650 O 0.82745 0.94088 0.50332 0.0
C651 C 0.88567 0.04134 0.47109 0.0
O652 O 0.86696 0.05123 0.48605 0.0
C653 C 0.85818 0.87355 0.52272 0.0
C654 C 0.88697 0.85086 0.49901 0.0
C655 C 0.87251 0.85011 0.52213 0.0
N656 N 0.8651 0.88784 0.50151 0.0
N657 N 0.88161 0.8738 0.48706 0.0
C658 C 0.8374 0.88186 0.54203 0.0
H659 H 0.81978 0.88877 0.53104 0.0
H660 H 0.84448 0.89877 0.55389 0.0
H661 H 0.83168 0.86536 0.55522 0.0
C662 C 0.90793 0.97966 0.51954 0.0
N663 N 0.89118 0.96815 0.50223 0.0
N664 N 0.88967 0.9429 0.50774 0.0
C665 C 0.90592 0.93753 0.52823 0.0
C666 C 0.91765 0.96067 0.53669 0.0
C667 C 0.91346 1.00856 0.52072 0.0
H668 H 0.92393 0.01453 0.50248 0.0
H669 H 0.89457 0.01953 0.52195 0.0
H670 H 0.92607 0.01379 0.53781 0.0
O671 O 0.86556 0.96375 0.44183 0.0
O672 O 0.86003 0.92258 0.45456 0.0
H673 H 0.91054 0.89566 0.52743 0.0
H674 H 0.92387 0.91089 0.55651 0.0
C675 C 0.90754 0.91158 0.54201 0.0
H676 H 0.88888 0.90833 0.55275 0.0
H677 H 0.89063 0.88064 0.46986 0.0
O678 O 0.88594 0.01674 0.46646 0.0
C679 C 0.8615 0.93959 0.43643 0.0
Co680 Co 0.78494 0.11546 0.22811 0.0
Co681 Co 0.84521 0.11087 0.24042 0.0
C682 C 0.80451 0.06572 0.24906 0.0
O683 O 0.7838 0.07878 0.24263 0.0
O684 O 0.82746 0.07643 0.24878 0.0
C685 C 0.7274 0.13542 0.22455 0.0
O686 O 0.71749 0.11645 0.23915 0.0
C687 C 0.89249 0.10919 0.27424 0.0
C688 C 0.92116 0.12771 0.24703 0.0
C689 C 0.91767 0.11976 0.27286 0.0
N690 N 0.8813 0.11165 0.25034 0.0
N691 N 0.89889 0.12186 0.234 0.0
C692 C 0.87832 0.09969 0.29833 0.0
H693 H 0.85664 0.10159 0.29574 0.0
H694 H 0.88493 0.11059 0.31611 0.0
H695 H 0.88303 0.07855 0.30134 0.0
C696 C 0.79008 0.15411 0.27217 0.0
N697 N 0.80105 0.13816 0.25384 0.0
N698 N 0.8268 0.13892 0.25653 0.0
C699 C 0.83302 0.15667 0.27545 0.0
C700 C 0.80995 0.16639 0.28641 0.0
C701 C 0.76107 0.15668 0.27684 0.0
H702 H 0.75261 0.16981 0.26155 0.0
H703 H 0.75159 0.13706 0.27535 0.0
H704 H 0.75674 0.16541 0.29642 0.0
O705 O 0.80397 0.11101 0.19302 0.0
O706 O 0.84646 0.11366 0.20229 0.0
H707 H 0.86146 0.18508 0.28905 0.0
H708 H 0.86606 0.15259 0.30132 0.0
C709 C 0.86039 0.16399 0.28359 0.0
H710 H 0.87439 0.16039 0.26725 0.0
H711 H 0.89499 0.12689 0.21443 0.0
O712 O 0.75185 0.13513 0.2189 0.0
C713 C 0.82804 0.11119 0.18569 0.0
Co714 Co 0.36801 0.53662 0.54162 0.0
Co715 Co 0.36166 0.59642 0.52722 0.0
C716 C 0.31751 0.55641 0.51826 0.0
O717 O 0.33066 0.5366 0.5271 0.0
O718 O 0.32781 0.57946 0.51675 0.0
C719 C 0.38646 0.47827 0.54683 0.0
O720 O 0.36672 0.4677 0.5338 0.0
C721 C 0.35965 0.64674 0.49739 0.0
C722 C 0.38348 0.67107 0.52467 0.0
C723 C 0.3719 0.67117 0.49998 0.0
N724 N 0.36472 0.63271 0.5193 0.0
N725 N 0.37832 0.64765 0.53573 0.0
C726 C 0.34291 0.63702 0.47509 0.0
H727 H 0.32651 0.62483 0.48295 0.0
H728 H 0.35467 0.62434 0.46179 0.0
H729 H 0.33482 0.65376 0.46353 0.0
C730 C 0.40701 0.54118 0.49799 0.0
N731 N 0.39086 0.55243 0.51599 0.0
N732 N 0.39044 0.57798 0.51195 0.0
C733 C 0.40739 0.58386 0.49212 0.0
C734 C 0.41791 0.56069 0.48219 0.0
C735 C 0.41089 0.51212 0.49501 0.0
H736 H 0.39147 0.50204 0.49548 0.0
H737 H 0.42135 0.50712 0.47646 0.0
H738 H 0.42295 0.50486 0.51174 0.0
O739 O 0.36551 0.55514 0.57687 0.0
O740 O 0.36074 0.59679 0.5655 0.0
H741 H 0.41119 0.62566 0.49746 0.0
H742 H 0.43247 0.61212 0.47259 0.0
C743 C 0.41253 0.61088 0.48152 0.0
H744 H 0.3981 0.61541 0.46582 0.0
H745 H 0.38557 0.64127 0.55391 0.0
O746 O 0.38688 0.50304 0.55051 0.0
C747 C 0.36176 0.57917 0.58306 0.0
Co748 Co 0.23425 0.61744 0.29058 0.0
Co749 Co 0.17419 0.61356 0.27661 0.0
C750 C 0.21355 0.56803 0.26796 0.0
O751 O 0.23404 0.5809 0.27545 0.0
O752 O 0.19059 0.57873 0.26757 0.0
C753 C 0.29242 0.63398 0.2941 0.0
O754 O 0.3005 0.61594 0.27736 0.0
C755 C 0.12427 0.61005 0.2461 0.0
C756 C 0.10047 0.63823 0.26943 0.0
C757 C 0.10039 0.62368 0.24638 0.0
N758 N 0.13812 0.61738 0.26746 0.0
N759 N 0.12346 0.63358 0.28164 0.0
C760 C 0.13349 0.58959 0.22692 0.0
H761 H 0.14182 0.57262 0.23795 0.0
H762 H 0.14961 0.59763 0.21452 0.0
H763 H 0.11708 0.58266 0.2142 0.0
C764 C 0.23085 0.65725 0.24716 0.0
N765 N 0.2192 0.64126 0.26511 0.0
N766 N 0.19369 0.64094 0.26052 0.0
C767 C 0.1883 0.65731 0.24013 0.0
C768 C 0.2117 0.66777 0.23067 0.0
C769 C 0.25996 0.66122 0.24467 0.0
H770 H 0.26724 0.67152 0.26251 0.0
H771 H 0.26984 0.64181 0.24315 0.0
H772 H 0.26511 0.67336 0.22721 0.0
O773 O 0.21509 0.61331 0.32534 0.0
O774 O 0.17288 0.61538 0.31493 0.0
H775 H 0.14657 0.66319 0.2431 0.0
H776 H 0.16118 0.67785 0.21429 0.0
C777 C 0.16179 0.6606 0.22768 0.0
H778 H 0.15735 0.64285 0.2159 0.0
H779 H 0.12981 0.64276 0.29892 0.0
O780 O 0.26823 0.63469 0.3007 0.0
C781 C 0.19088 0.61317 0.33203 0.0
Co782 Co 0.28605 0.40058 0.79251 0.0
Co783 Co 0.34462 0.40944 0.7757 0.0
C784 C 0.30173 0.45158 0.76891 0.0
O785 O 0.28291 0.43801 0.77901 0.0
O786 O 0.32503 0.44215 0.76671 0.0
C787 C 0.22888 0.38258 0.79617 0.0
O788 O 0.2208 0.40189 0.78091 0.0
C789 C 0.38908 0.41367 0.73874 0.0
C790 C 0.42202 0.40294 0.76517 0.0
C791 C 0.41579 0.40815 0.73916 0.0
N792 N 0.37981 0.41137 0.76345 0.0
N793 N 0.39975 0.4057 0.77925 0.0
C794 C 0.37249 0.41982 0.71513 0.0
H795 H 0.35129 0.41635 0.71944 0.0
H796 H 0.37891 0.40803 0.69785 0.0
H797 H 0.37519 0.44089 0.70998 0.0
C798 C 0.29031 0.36238 0.74756 0.0
N799 N 0.30141 0.3788 0.76542 0.0
N800 N 0.32697 0.37966 0.76114 0.0
C801 C 0.33301 0.36246 0.74163 0.0
C802 C 0.30994 0.35161 0.73177 0.0
C803 C 0.26131 0.35774 0.74493 0.0
H804 H 0.25436 0.34634 0.76224 0.0
H805 H 0.25084 0.37691 0.74447 0.0
H806 H 0.25646 0.34635 0.7269 0.0
O807 O 0.30687 0.40222 0.82676 0.0
O808 O 0.34804 0.40855 0.81399 0.0
H809 H 0.37514 0.36238 0.74688 0.0
H810 H 0.36221 0.33463 0.72915 0.0
C811 C 0.36021 0.35616 0.73224 0.0
H812 H 0.36367 0.36567 0.71288 0.0
H813 H 0.39789 0.40201 0.79941 0.0
O814 O 0.25309 0.38138 0.80263 0.0
C815 C 0.33116 0.40602 0.83221 0.0
Co816 Co 0.54111 0.64787 0.98503 0.0
Co817 Co 0.52119 0.66055 0.92786 0.0
C818 C 0.51264 0.70009 0.96789 0.0
O819 O 0.52482 0.68539 0.98465 0.0
O820 O 0.50825 0.69248 0.94428 0.0
C821 C 0.52648 0.62777 0.03639 0.0
O822 O 0.50279 0.63458 0.02838 0.0
C823 C 0.49364 0.66004 0.87576 0.0
C824 C 0.51877 0.62972 0.85699 0.0
C825 C 0.49551 0.64354 0.85402 0.0
N826 N 0.51447 0.6552 0.89148 0.0
N827 N 0.52982 0.63783 0.87957 0.0
C828 C 0.47111 0.67779 0.88266 0.0
H829 H 0.47319 0.68548 0.90304 0.0
H830 H 0.45211 0.66713 0.88043 0.0
H831 H 0.47081 0.69461 0.86868 0.0
C832 C 0.50754 0.59988 0.97472 0.0
N833 N 0.51902 0.62274 0.96708 0.0
N834 N 0.5072 0.63104 0.94563 0.0
C835 C 0.48649 0.61519 0.94035 0.0
C836 C 0.48606 0.59483 0.95847 0.0
C837 C 0.52067 0.57951 0.9915 0.0
H838 H 0.537 0.58783 1.00327 0.0
H839 H 0.50602 0.56914 1.00387 0.0
H840 H 0.52931 0.56435 0.97831 0.0
O841 O 0.57608 0.65108 0.96732 0.0
O842 O 0.5602 0.6634 0.92859 0.0
H843 H 0.47282 0.6161 0.90061 0.0
H844 H 0.44718 0.60992 0.92429 0.0
C845 C 0.46553 0.62123 0.92054 0.0
H846 H 0.46086 0.64249 0.92137 0.0
H847 H 0.54678 0.62978 0.88801 0.0
O848 O 0.54623 0.63392 0.02204 0.0
C849 C 0.57965 0.65926 0.94381 0.0
Co850 Co 0.61642 0.29214 0.23494 0.0
Co851 Co 0.61347 0.27938 0.17462 0.0
C852 C 0.56725 0.27016 0.21358 0.0
O853 O 0.57983 0.27694 0.23449 0.0
O854 O 0.57842 0.27031 0.19082 0.0
C855 C 0.63333 0.29508 0.29301 0.0
O856 O 0.61468 0.27892 0.3009 0.0
C857 C 0.61076 0.24831 0.12518 0.0
C858 C 0.63777 0.2724 0.10075 0.0
C859 C 0.62434 0.24868 0.10125 0.0
N860 N 0.61715 0.27026 0.13853 0.0
N861 N 0.63261 0.28488 0.12347 0.0
C862 C 0.59125 0.22842 0.13499 0.0
H863 H 0.57385 0.23879 0.14329 0.0
H864 H 0.60002 0.21676 0.15128 0.0
H865 H 0.58475 0.21509 0.11891 0.0
C866 C 0.6563 0.24872 0.23114 0.0
N867 N 0.64037 0.26686 0.21972 0.0
N868 N 0.64095 0.26334 0.19407 0.0
C869 C 0.65812 0.24373 0.18837 0.0
C870 C 0.66807 0.23351 0.21167 0.0
C871 C 0.659 0.24481 0.26023 0.0
H872 H 0.67036 0.2615 0.26856 0.0
H873 H 0.63916 0.24442 0.26942 0.0
H874 H 0.66962 0.22633 0.26506 0.0
O875 O 0.61165 0.32705 0.21591 0.0
O876 O 0.61518 0.31763 0.17358 0.0
H877 H 0.66463 0.24881 0.14693 0.0
H878 H 0.68071 0.22033 0.16066 0.0
C879 C 0.66271 0.23267 0.16147 0.0
H880 H 0.64579 0.22004 0.1563 0.0
H881 H 0.64106 0.30266 0.12942 0.0
O882 O 0.63418 0.302 0.2689 0.0
C883 C 0.61193 0.33426 0.19182 0.0
Co884 Co 0.97868 0.36594 0.48317 0.0
Co885 Co 0.99574 0.35515 0.42469 0.0
C886 C 0.99856 0.31372 0.46909 0.0
O887 O 0.9908 0.32856 0.488 0.0
O888 O 1.00118 0.32235 0.44553 0.0
C889 C 0.97263 0.38706 0.53935 0.0
O890 O 0.9864 0.36769 0.54965 0.0
C891 C 0.03373 0.3502 0.38081 0.0
C892 C 1.00671 0.35486 0.34695 0.0
C893 C 0.03308 0.35301 0.35362 0.0
N894 N 1.00881 0.3511 0.38983 0.0
N895 N 0.99275 0.35311 0.36939 0.0
C896 C 0.05753 0.34653 0.39787 0.0
H897 H 0.05289 0.35117 0.41876 0.0
H898 H 0.07427 0.35868 0.39074 0.0
H899 H 0.06376 0.32561 0.39674 0.0
C900 C 0.02361 0.40353 0.47818 0.0
N901 N 1.00623 0.38644 0.4674 0.0
N902 N 0.01064 0.38501 0.44189 0.0
C903 C 0.02959 0.40271 0.4355 0.0
C904 C 0.03897 0.4144 0.45834 0.0
C905 C 0.02609 0.40878 0.50708 0.0
H906 H 1.00968 0.42181 0.51334 0.0
H907 H 0.02472 0.38998 0.51814 0.0
H908 H 0.04496 0.41875 0.5119 0.0
O909 O 0.94503 0.36305 0.46166 0.0
O910 O 0.95777 0.35741 0.42033 0.0
H911 H 0.03976 0.43055 0.40543 0.0
H912 H 0.05899 0.40129 0.4055 0.0
C913 C 0.0387 0.40892 0.4082 0.0
H914 H 0.02499 0.40081 0.3933 0.0
H915 H 0.97229 0.35484 0.37081 0.0
O916 O 0.96796 0.38706 0.51472 0.0
C917 C 0.93962 0.3593 0.43736 0.0
Co918 Co 0.90141 0.72769 0.73446 0.0
Co919 Co 0.91091 0.74501 0.67563 0.0
C920 C 0.95382 0.75011 0.71635 0.0
O921 O 0.93939 0.74103 0.73518 0.0
O922 O 0.94491 0.75353 0.69293 0.0
C923 C 0.8837 0.72557 0.79213 0.0
O924 O 0.90175 0.74256 0.79963 0.0
C925 C 0.91519 0.7734 0.62428 0.0
C926 C 0.88508 0.75043 0.60256 0.0
C927 C 0.90071 0.77267 0.60091 0.0
N928 N 0.90727 0.75312 0.63939 0.0
N929 N 0.88997 0.73908 0.6259 0.0
C930 C 0.93694 0.79192 0.63176 0.0
H931 H 0.9306 0.8048 0.64822 0.0
H932 H 0.94316 0.80417 0.6147 0.0
H933 H 0.95406 0.78037 0.63904 0.0
C934 C 0.86102 0.77084 0.72965 0.0
N935 N 0.8789 0.75408 0.71897 0.0
N936 N 0.88233 0.76052 0.6941 0.0
C937 C 0.86651 0.78117 0.68817 0.0
C938 C 0.85265 0.78852 0.71052 0.0
C939 C 0.85281 0.77093 0.75795 0.0
H940 H 0.844 0.75159 0.76287 0.0
H941 H 0.87035 0.77429 0.77054 0.0
H942 H 0.83795 0.78644 0.76209 0.0
O943 O 0.90348 0.69299 0.71487 0.0
O944 O 0.91102 0.70686 0.67437 0.0
H945 H 0.86263 0.78249 0.64622 0.0
H946 H 0.85299 0.81258 0.66234 0.0
C947 C 0.8672 0.796 0.66273 0.0
H948 H 0.88719 0.80418 0.66005 0.0
H949 H 0.88014 0.72262 0.63339 0.0
O950 O 0.88333 0.71788 0.76825 0.0
C951 C 0.90874 0.68828 0.69077 0.0
Co952 Co 0.54127 0.36616 0.53624 0.0
Co953 Co 0.52472 0.35739 0.59503 0.0
C954 C 0.51526 0.31627 0.55195 0.0
O955 O 0.52587 0.3296 0.53321 0.0
O956 O 0.51349 0.32548 0.57538 0.0
C957 C 0.54506 0.38472 0.47916 0.0
O958 O 0.52918 0.36601 0.4709 0.0
C959 C 0.48962 0.35653 0.64106 0.0
C960 C 0.51799 0.36955 0.67153 0.0
C961 C 0.4914 0.36568 0.66678 0.0
N962 N 0.51403 0.3565 0.63075 0.0
N963 N 0.53096 0.3632 0.64939 0.0
C964 C 0.46512 0.35079 0.62561 0.0
H965 H 0.46879 0.35334 0.60416 0.0
H966 H 0.44849 0.36343 0.63212 0.0
H967 H 0.45938 0.32998 0.62912 0.0
C968 C 0.49835 0.40625 0.54169 0.0
N969 N 0.51568 0.38904 0.5524 0.0
N970 N 0.51187 0.38828 0.57803 0.0
C971 C 0.49337 0.40643 0.58451 0.0
C972 C 0.48364 0.41784 0.56164 0.0
C973 C 0.4948 0.41049 0.51272 0.0
H974 H 0.5118 0.42194 0.5051 0.0
H975 H 0.49418 0.39119 0.50252 0.0
H976 H 0.47651 0.42166 0.5083 0.0
O977 O 0.5758 0.36195 0.55612 0.0
O978 O 0.56279 0.35539 0.59717 0.0
H979 H 0.48236 0.43483 0.61388 0.0
H980 H 0.46551 0.40425 0.61618 0.0
C981 C 0.48495 0.41324 0.61194 0.0
H982 H 0.49995 0.40689 0.62644 0.0
H983 H 0.55116 0.36574 0.64636 0.0
O984 O 0.55166 0.3854 0.50334 0.0
C985 C 0.58098 0.35682 0.5802 0.0
Co986 Co 0.90167 0.29082 0.78815 0.0
Co987 Co 0.90809 0.27523 0.84767 0.0
C988 C 0.95245 0.26802 0.80759 0.0
O989 O 0.9392 0.27682 0.78782 0.0
O990 O 0.94209 0.26587 0.83058 0.0
C991 C 0.88402 0.29559 0.72984 0.0
O992 O 0.90353 0.28159 0.72012 0.0
C993 C 0.91169 0.24521 0.89794 0.0
C994 C 0.88626 0.27096 0.9223 0.0
C995 C 0.89946 0.24712 0.92248 0.0
N996 N 0.90513 0.26665 0.88383 0.0
N997 N 0.89054 0.2822 0.89878 0.0
C998 C 0.92986 0.22405 0.88826 0.0
H999 H 0.9449 0.23266 0.87487 0.0
H1000 H 0.91868 0.20916 0.87688 0.0
H1001 H 0.93971 0.21405 0.90507 0.0
C1002 C 0.86261 0.2469 0.79207 0.0
N1003 N 0.87885 0.26471 0.8035 0.0
N1004 N 0.87969 0.25998 0.82896 0.0
C1005 C 0.86316 0.2398 0.83463 0.0
C1006 C 0.85224 0.23047 0.81138 0.0
C1007 C 0.85822 0.2446 0.763 0.0
H1008 H 0.84672 0.26188 0.75618 0.0
H1009 H 0.87751 0.24448 0.75267 0.0
H1010 H 0.84702 0.22655 0.75783 0.0
O1011 O 0.90408 0.32578 0.80733 0.0
O1012 O 0.90836 0.31334 0.84878 0.0
H1013 H 0.85901 0.24359 0.87657 0.0
H1014 H 0.84065 0.21673 0.86255 0.0
C1015 C 0.85937 0.22796 0.86139 0.0
H1016 H 0.87568 0.2141 0.8655 0.0
H1017 H 0.88218 0.29986 0.89237 0.0
O1018 O 0.88326 0.30017 0.75448 0.0
C1019 C 0.90769 0.33131 0.83157 0.0
Co1020 Co 0.97697 0.65126 0.03378 0.0
Co1021 Co 0.98989 0.65535 0.09416 0.0
C1022 C 0.99889 0.70101 0.05518 0.0
O1023 O 0.99191 0.68803 0.03458 0.0
O1024 O 0.99893 0.69034 0.07815 0.0
C1025 C 0.97518 0.63555 0.97554 0.0
O1026 O 0.99199 0.65403 0.9687 0.0
C1027 C 0.01988 0.65958 0.14425 0.0
C1028 C 0.99782 0.63 0.16757 0.0
C1029 C 0.02027 0.6455 0.16787 0.0
N1030 N 0.99885 0.65155 0.13028 0.0
N1031 N 0.98536 0.63453 0.14469 0.0
C1032 C 0.0382 0.68097 0.13533 0.0
H1033 H 0.02645 0.69772 0.12758 0.0
H1034 H 0.05067 0.67382 0.11885 0.0
H1035 H 0.05086 0.68796 0.15176 0.0
C1036 C 0.02024 0.61138 0.03795 0.0
N1037 N 1.00224 0.62754 0.04924 0.0
N1038 N 1.00663 0.62819 0.07478 0.0
C1039 C 0.02705 0.61198 0.08052 0.0
C1040 C 0.03655 0.60107 0.05734 0.0
C1041 C 0.02296 0.60702 1.00892 0.0
H1042 H 1.00496 0.59707 1.00156 0.0
H1043 H 0.02509 0.62629 0.99885 0.0
H1044 H 0.04018 0.59444 1.00409 0.0
O1045 O 0.94201 0.65503 0.05247 0.0
O1046 O 0.95143 0.65317 0.09494 0.0
H1047 H 0.02462 0.60563 0.12217 0.0
H1048 H 0.05484 0.59393 0.10768 0.0
C1049 C 0.03977 0.60972 0.107 0.0
H1050 H 0.04973 0.62851 0.11149 0.0
H1051 H 0.9685 0.6247 0.13817 0.0
O1052 O 0.96745 0.6342 0.99938 0.0
C1053 C 0.93476 0.65529 0.07652 0.0
Co1054 Co 0.61812 0.72836 0.28777 0.0
Co1055 Co 0.61002 0.7453 0.3466 0.0
C1056 C 0.56769 0.75432 0.30563 0.0
O1057 O 0.581 0.74349 0.28694 0.0
O1058 O 0.5771 0.75687 0.32896 0.0
C1059 C 0.63506 0.72379 0.22952 0.0
O1060 O 0.61584 0.73856 0.22038 0.0
C1061 C 0.60749 0.77427 0.39736 0.0
C1062 C 0.63186 0.74703 0.42126 0.0
C1063 C 0.61965 0.77135 0.42182 0.0
N1064 N 0.61313 0.75284 0.38291 0.0
N1065 N 0.62708 0.73642 0.39756 0.0
C1066 C 0.59008 0.79619 0.38796 0.0
H1067 H 0.5953 0.80177 0.36745 0.0
H1068 H 0.59078 0.81356 0.40115 0.0
H1069 H 0.56945 0.78888 0.38743 0.0
C1070 C 0.65837 0.77117 0.29203 0.0
N1071 N 0.64139 0.75393 0.3033 0.0
N1072 N 0.63949 0.75945 0.32854 0.0
C1073 C 0.65592 0.7797 0.33424 0.0
C1074 C 0.66802 0.78813 0.31122 0.0
C1075 C 0.66388 0.77273 0.26309 0.0
H1076 H 0.64499 0.77411 0.25215 0.0
H1077 H 0.67649 0.78988 0.25807 0.0
H1078 H 0.6743 0.75458 0.25687 0.0
O1079 O 0.61529 0.69349 0.30689 0.0
O1080 O 0.60785 0.70729 0.34738 0.0
H1081 H 0.65884 0.77771 0.37637 0.0
H1082 H 0.6762 0.80504 0.36192 0.0
C1083 C 0.65815 0.79277 0.36059 0.0
H1084 H 0.64095 0.80582 0.36365 0.0
H1085 H 0.63474 0.71857 0.39082 0.0
O1086 O 0.63611 0.71874 0.25405 0.0
C1087 C 0.60978 0.68877 0.33092 0.0
Co1088 Co 0.98336 0.54185 0.65102 0.0
Co1089 Co 0.92388 0.52626 0.65856 0.0
C1090 C 0.96564 0.51628 0.70087 0.0
O1091 O 0.98488 0.52642 0.68785 0.0
O1092 O 0.94234 0.5149 0.69119 0.0
C1093 C 0.04112 0.54503 0.6335 0.0
O1094 O 0.04914 0.52978 0.65285 0.0
C1095 C 0.87632 0.49279 0.66078 0.0
C1096 C 0.84787 0.51999 0.64195 0.0
C1097 C 0.85104 0.49434 0.6505 0.0
N1098 N 0.88785 0.51642 0.65767 0.0
N1099 N 0.87043 0.53278 0.64725 0.0
C1100 C 0.89017 0.4687 0.67064 0.0
H1101 H 0.91189 0.47117 0.66919 0.0
H1102 H 0.88372 0.45098 0.65954 0.0
H1103 H 0.88488 0.46566 0.69166 0.0
C1104 C 0.97821 0.49915 0.6109 0.0
N1105 N 0.96732 0.51658 0.62788 0.0
N1106 N 0.9417 0.51264 0.62856 0.0
C1107 C 0.93545 0.4937 0.61084 0.0
C1108 C 0.9584 0.48414 0.59952 0.0
C1109 C 1.00722 0.49561 0.6069 0.0
H1110 H 0.0149 0.51252 0.59541 0.0
H1111 H 0.01727 0.49508 0.62631 0.0
H1112 H 0.01176 0.47731 0.59585 0.0
O1113 O 0.96388 0.57656 0.65457 0.0
O1114 O 0.92242 0.56443 0.66028 0.0
H1115 H 0.90638 0.47687 0.58485 0.0
H1116 H 0.90423 0.46646 0.61832 0.0
C1117 C 0.90827 0.48366 0.60553 0.0
H1118 H 0.89362 0.49941 0.60898 0.0
H1119 H 0.8746 0.55216 0.6418 0.0
O1120 O 0.01691 0.5515 0.63225 0.0
C1121 C 0.93977 0.58227 0.65898 0.0
Co1122 Co 0.72487 0.73266 0.90061 0.0
Co1123 Co 0.74073 0.67312 0.90576 0.0
C1124 C 0.74874 0.71208 0.95071 0.0
O1125 O 0.73969 0.732 0.93786 0.0
O1126 O 0.75069 0.68926 0.94002 0.0
C1127 C 0.72138 0.79099 0.88504 0.0
O1128 O 0.73723 0.7986 0.90406 0.0
C1129 C 0.77075 0.62302 0.90843 0.0
C1130 C 0.74715 0.60009 0.87976 0.0
C1131 C 0.77031 0.59956 0.89416 0.0
N1132 N 0.74942 0.63713 0.90152 0.0
N1133 N 0.73504 0.62294 0.88508 0.0
C1134 C 0.79003 0.63158 0.92912 0.0
H1135 H 0.77904 0.63883 0.94661 0.0
H1136 H 0.80201 0.64831 0.92178 0.0
H1137 H 0.80314 0.61511 0.93511 0.0
C1138 C 0.76849 0.72968 0.8608 0.0
N1139 N 0.75069 0.71796 0.87694 0.0
N1140 N 0.75579 0.6926 0.8777 0.0
C1141 C 0.7763 0.68735 0.86143 0.0
C1142 C 0.78537 0.7107 0.85061 0.0
C1143 C 0.77052 0.75874 0.85647 0.0
H1144 H 0.75249 0.76564 0.84624 0.0
H1145 H 0.77205 0.76885 0.87578 0.0
H1146 H 0.78781 0.76398 0.84411 0.0
O1147 O 0.68995 0.71337 0.90356 0.0
O1148 O 0.70257 0.67192 0.90645 0.0
H1149 H 0.77451 0.64558 0.8561 0.0
H1150 H 0.80346 0.66053 0.84216 0.0
C1151 C 0.78948 0.66117 0.85895 0.0
H1152 H 0.80074 0.65739 0.87718 0.0
H1153 H 0.71776 0.62962 0.87612 0.0
O1154 O 0.71492 0.76684 0.88343 0.0
C1155 C 0.68453 0.68906 0.90672 0.0
Co1156 Co 0.52902 0.47823 0.15806 0.0
Co1157 Co 0.58923 0.49177 0.1558 0.0
C1158 C 0.55372 0.50025 0.20522 0.0
O1159 O 0.53231 0.4926 0.19416 0.0
O1160 O 0.57577 0.50094 0.19257 0.0
C1161 C 0.47634 0.45423 0.14061 0.0
O1162 O 0.47817 0.43371 0.15628 0.0
C1163 C 0.63844 0.52366 0.152 0.0
C1164 C 0.66224 0.49626 0.12784 0.0
C1165 C 0.66242 0.52127 0.13867 0.0
N1166 N 0.6248 0.50118 0.14862 0.0
N1167 N 0.63935 0.48484 0.1345 0.0
C1168 C 0.62868 0.5464 0.16804 0.0
H1169 H 0.61465 0.53939 0.18333 0.0
H1170 H 0.61805 0.56047 0.15514 0.0
H1171 H 0.64543 0.55686 0.17749 0.0
C1172 C 0.52865 0.52339 0.122 0.0
N1173 N 0.54214 0.50438 0.13471 0.0
N1174 N 0.56733 0.50719 0.13 0.0
C1175 C 0.57065 0.52672 0.11214 0.0
C1176 C 0.5461 0.53807 0.10647 0.0
C1177 C 0.50081 0.53037 0.12924 0.0
H1178 H 0.49702 0.52517 0.15018 0.0
H1179 H 0.49697 0.5517 0.12638 0.0
H1180 H 0.4869 0.5188 0.11697 0.0
O1181 O 0.54798 0.44292 0.15957 0.0
O1182 O 0.58998 0.45349 0.1544 0.0
H1183 H 0.59382 0.5407 0.07933 0.0
H1184 H 0.60644 0.54914 0.11137 0.0
C1185 C 0.59663 0.53345 0.0998 0.0
H1186 H 0.60962 0.51589 0.09939 0.0
H1187 H 0.63317 0.46622 0.12837 0.0
O1188 O 0.49355 0.47241 0.14179 0.0
C1189 C 0.57222 0.43632 0.15782 0.0
Co1190 Co 0.79205 0.28612 0.40094 0.0
Co1191 Co 0.7769 0.34553 0.40791 0.0
C1192 C 0.76999 0.3054 0.45214 0.0
O1193 O 0.77847 0.28569 0.43864 0.0
O1194 O 0.76784 0.32847 0.44203 0.0
C1195 C 0.79679 0.22787 0.38296 0.0
O1196 O 0.78392 0.21762 0.40299 0.0
C1197 C 0.74802 0.39642 0.41174 0.0
C1198 C 0.77418 0.42004 0.38595 0.0
C1199 C 0.75048 0.42083 0.39943 0.0
N1200 N 0.76904 0.38177 0.40499 0.0
N1201 N 0.78484 0.39628 0.39018 0.0
C1202 C 0.72674 0.38737 0.43014 0.0
H1203 H 0.73507 0.37359 0.44497 0.0
H1204 H 0.71123 0.37668 0.41912 0.0
H1205 H 0.7175 0.40446 0.44022 0.0
C1206 C 0.74746 0.29044 0.36263 0.0
N1207 N 0.76564 0.30169 0.37861 0.0
N1208 N 0.76105 0.32712 0.37966 0.0
C1209 C 0.74061 0.33297 0.3635 0.0
C1210 C 0.73094 0.30986 0.35263 0.0
C1211 C 0.74494 0.26142 0.35816 0.0
H1212 H 0.76191 0.25464 0.34616 0.0
H1213 H 0.74534 0.25098 0.37738 0.0
H1214 H 0.72656 0.25636 0.34743 0.0
O1215 O 0.82739 0.30492 0.40288 0.0
O1216 O 0.815 0.34624 0.40769 0.0
H1217 H 0.71732 0.36114 0.34157 0.0
H1218 H 0.71521 0.36378 0.37664 0.0
C1219 C 0.72883 0.35977 0.3601 0.0
H1220 H 0.74455 0.37488 0.35963 0.0
H1221 H 0.80226 0.38942 0.38162 0.0
O1222 O 0.80072 0.25258 0.3822 0.0
C1223 C 0.83299 0.3291 0.4066 0.0
Co1224 Co 0.9832 0.47774 0.86624 0.0
Co1225 Co 0.92416 0.49411 0.85739 0.0
C1226 C 0.96455 0.49907 0.81395 0.0
O1227 O 0.98365 0.4905 0.82826 0.0
O1228 O 0.94115 0.50217 0.82305 0.0
C1229 C 0.04117 0.47534 0.88231 0.0
O1230 O 0.04847 0.49171 0.8636 0.0
C1231 C 0.87306 0.52275 0.85298 0.0
C1232 C 0.85094 0.4999 0.88294 0.0
C1233 C 0.84956 0.52215 0.86727 0.0
N1234 N 0.88796 0.50238 0.86099 0.0
N1235 N 0.87426 0.48842 0.87823 0.0
C1236 C 0.88086 0.54122 0.83128 0.0
H1237 H 0.88836 0.52964 0.8143 0.0
H1238 H 0.89726 0.55409 0.83783 0.0
H1239 H 0.8639 0.55347 0.82481 0.0
C1240 C 0.979 0.52181 0.90536 0.0
N1241 N 0.96797 0.50441 0.88837 0.0
N1242 N 0.94292 0.5104 0.88548 0.0
C1243 C 0.93719 0.53139 0.90092 0.0
C1244 C 0.95991 0.53957 0.9137 0.0
C1245 C 1.00757 0.52239 0.91263 0.0
H1246 H 0.01296 0.50338 0.92192 0.0
H1247 H 0.01958 0.52515 0.89456 0.0
H1248 H 0.01205 0.53845 0.92677 0.0
O1249 O 0.96378 0.44304 0.86531 0.0
O1250 O 0.92288 0.45587 0.85812 0.0
H1251 H 0.8952 0.53147 0.90494 0.0
H1252 H 0.91067 0.56132 0.91617 0.0
C1253 C 0.91138 0.54558 0.90105 0.0
H1254 H 0.90847 0.55478 0.88154 0.0
H1255 H 0.88156 0.47193 0.88812 0.0
O1256 O 0.01716 0.46824 0.88374 0.0
C1257 C 0.93966 0.43768 0.86081 0.0
Co1258 Co 0.78852 0.7322 0.11506 0.0
Co1259 Co 0.77562 0.67203 0.11017 0.0
C1260 C 0.76754 0.71232 0.06489 0.0
O1261 O 0.77408 0.73288 0.07812 0.0
O1262 O 0.7675 0.68934 0.07548 0.0
C1263 C 0.79325 0.78996 0.13409 0.0
O1264 O 0.77855 0.79992 0.1152 0.0
C1265 C 0.74368 0.62314 0.10523 0.0
C1266 C 0.76828 0.5969 0.12988 0.0
C1267 C 0.74441 0.59819 0.1167 0.0
N1268 N 0.76581 0.63603 0.11218 0.0
N1269 N 0.78064 0.61997 0.12633 0.0
C1270 C 0.7229 0.63444 0.08753 0.0
H1271 H 0.7321 0.64786 0.07289 0.0
H1272 H 0.70865 0.64616 0.09922 0.0
H1273 H 0.71204 0.61852 0.07719 0.0
C1274 C 0.74502 0.72741 0.1544 0.0
N1275 N 0.76289 0.71631 0.13801 0.0
N1276 N 0.75909 0.69071 0.13779 0.0
C1277 C 0.73947 0.68466 0.15487 0.0
C1278 C 0.72963 0.70777 0.16561 0.0
C1279 C 0.74191 0.75643 0.15838 0.0
H1280 H 0.75862 0.76372 0.17044 0.0
H1281 H 0.74227 0.76656 0.139 0.0
H1282 H 0.72332 0.7613 0.16884 0.0
O1283 O 0.82331 0.71319 0.11092 0.0
O1284 O 0.814 0.67074 0.11294 0.0
H1285 H 0.74513 0.64309 0.16008 0.0
H1286 H 0.71767 0.65636 0.17828 0.0
C1287 C 0.72881 0.65755 0.1595 0.0
H1288 H 0.71503 0.65237 0.14343 0.0
H1289 H 0.79858 0.62528 0.13489 0.0
O1290 O 0.79824 0.76542 0.13412 0.0
C1291 C 0.83063 0.68918 0.11072 0.0
Co1292 Co 0.53813 0.54164 0.37 0.0
Co1293 Co 0.59792 0.527 0.36352 0.0
C1294 C 0.55861 0.51888 0.31919 0.0
O1295 O 0.5389 0.52764 0.33256 0.0
O1296 O 0.58168 0.51687 0.32936 0.0
C1297 C 0.47953 0.5446 0.38606 0.0
O1298 O 0.47141 0.52933 0.3668 0.0
C1299 C 0.64871 0.4981 0.36077 0.0
C1300 C 0.67201 0.52391 0.38714 0.0
C1301 C 0.67282 0.5002 0.37374 0.0
N1302 N 0.63415 0.51927 0.36713 0.0
N1303 N 0.64848 0.53489 0.38226 0.0
C1304 C 0.63983 0.47698 0.34216 0.0
H1305 H 0.62741 0.48572 0.32638 0.0
H1306 H 0.62761 0.46227 0.3527 0.0
H1307 H 0.65704 0.46678 0.33326 0.0
C1308 C 0.54238 0.4981 0.40924 0.0
N1309 N 0.55367 0.51596 0.39295 0.0
N1310 N 0.57916 0.51139 0.39194 0.0
C1311 C 0.58496 0.49119 0.40843 0.0
C1312 C 0.56179 0.48174 0.41945 0.0
C1313 C 0.51333 0.49556 0.41373 0.0
H1314 H 0.50623 0.51323 0.42441 0.0
H1315 H 0.50307 0.49438 0.39446 0.0
H1316 H 0.50839 0.47794 0.42572 0.0
O1317 O 0.55661 0.57674 0.36807 0.0
O1318 O 0.59821 0.56521 0.36286 0.0
H1319 H 0.62685 0.49515 0.41282 0.0
H1320 H 0.6129 0.46787 0.43063 0.0
C1321 C 0.61176 0.47943 0.41211 0.0
H1322 H 0.61602 0.46591 0.39558 0.0
H1323 H 0.64157 0.55235 0.39064 0.0
O1324 O 0.50385 0.55062 0.38754 0.0
C1325 C 0.58067 0.58282 0.36418 0.0
Co1326 Co 0.72949 0.2849 0.61688 0.0
Co1327 Co 0.74341 0.34465 0.61026 0.0
C1328 C 0.75217 0.30413 0.56633 0.0
O1329 O 0.74372 0.28417 0.57946 0.0
O1330 O 0.7533 0.32709 0.57673 0.0
C1331 C 0.72643 0.22704 0.63477 0.0
O1332 O 0.74162 0.21849 0.6156 0.0
C1333 C 0.77584 0.39269 0.60741 0.0
C1334 C 0.74899 0.42015 0.62812 0.0
C1335 C 0.77432 0.41766 0.61837 0.0
N1336 N 0.75254 0.38071 0.61134 0.0
N1337 N 0.73634 0.39755 0.62287 0.0
C1338 C 0.79973 0.37933 0.59635 0.0
H1339 H 0.79783 0.35761 0.59814 0.0
H1340 H 0.81792 0.38627 0.60637 0.0
H1341 H 0.80141 0.38436 0.57511 0.0
C1342 C 0.77297 0.29015 0.65631 0.0
N1343 N 0.75514 0.301 0.63968 0.0
N1344 N 0.75874 0.32663 0.63924 0.0
C1345 C 0.77799 0.33295 0.65666 0.0
C1346 C 0.788 0.31 0.6676 0.0
C1347 C 0.77656 0.26119 0.66031 0.0
H1348 H 0.75976 0.25354 0.67204 0.0
H1349 H 0.77679 0.25113 0.64091 0.0
H1350 H 0.79505 0.25667 0.6711 0.0
O1351 O 0.69428 0.30363 0.61433 0.0
O1352 O 0.70518 0.34552 0.61022 0.0
H1353 H 0.77193 0.37474 0.65943 0.0
H1354 H 0.79582 0.36189 0.68222 0.0
C1355 C 0.78797 0.36018 0.6619 0.0
H1356 H 0.80447 0.36461 0.6483 0.0
H1357 H 0.71728 0.39289 0.62911 0.0
O1358 O 0.72032 0.25132 0.63564 0.0
C1359 C 0.68782 0.32767 0.61108 0.0
Co1360 Co 0.65155 0.9834 0.54172 0.0
Co1361 Co 0.65964 0.92424 0.52519 0.0
C1362 C 0.70335 0.96383 0.51888 0.0
O1363 O 0.68958 0.98316 0.52791 0.0
O1364 O 0.69362 0.94071 0.51592 0.0
C1365 C 0.63492 0.04146 0.544 0.0
O1366 O 0.65324 0.04876 0.52716 0.0
C1367 C 0.663 0.87184 0.49841 0.0
C1368 C 0.63214 0.85185 0.52198 0.0
C1369 C 0.64822 0.84875 0.50018 0.0
N1370 N 0.65507 0.88804 0.51783 0.0
N1371 N 0.63725 0.8756 0.53221 0.0
C1372 C 0.68467 0.87814 0.47931 0.0
H1373 H 0.69912 0.8917 0.4886 0.0
H1374 H 0.6766 0.88806 0.46161 0.0
H1375 H 0.6947 0.8598 0.47286 0.0
C1376 C 0.6113 0.97887 0.49834 0.0
N1377 N 0.62862 0.968 0.51556 0.0
N1378 N 0.63156 0.94302 0.50947 0.0
C1379 C 0.61612 0.93722 0.48851 0.0
C1380 C 0.60287 0.95975 0.48064 0.0
C1381 C 0.60383 1.00735 0.49784 0.0
H1382 H 0.59504 0.01275 0.5171 0.0
H1383 H 0.62174 0.01944 0.49454 0.0
H1384 H 0.58922 0.01168 0.48213 0.0
O1385 O 0.65352 0.96424 0.57676 0.0
O1386 O 0.66023 0.92352 0.56336 0.0
H1387 H 0.61128 0.89539 0.48707 0.0
H1388 H 0.60379 0.91162 0.45636 0.0
C1389 C 0.61701 0.91173 0.47376 0.0
H1390 H 0.63735 0.90846 0.46672 0.0
H1391 H 0.62733 0.88403 0.54816 0.0
O1392 O 0.63393 0.01752 0.55138 0.0
C1393 C 0.6584 0.94014 0.58175 0.0
Co1394 Co 0.15353 0.53446 0.47771 0.0
Co1395 Co 0.15768 0.59436 0.49022 0.0
C1396 C 0.20349 0.5543 0.49811 0.0
O1397 O 0.19049 0.53351 0.49185 0.0
O1398 O 0.19255 0.57709 0.49795 0.0
C1399 C 0.13476 0.47681 0.47326 0.0
O1400 O 0.15399 0.46718 0.48772 0.0
C1401 C 0.15999 0.64097 0.52435 0.0
C1402 C 0.14064 0.6699 0.49802 0.0
C1403 C 0.1493 0.66609 0.52358 0.0
N1404 N 0.15693 0.63015 0.50038 0.0
N1405 N 0.14622 0.64786 0.48454 0.0
C1406 C 0.16981 0.6263 0.54801 0.0
H1407 H 0.16757 0.60473 0.54512 0.0
H1408 H 0.15931 0.6327 0.56613 0.0
H1409 H 0.1911 0.63066 0.55064 0.0
C1410 C 0.11508 0.53885 0.52226 0.0
N1411 N 0.13078 0.55008 0.50383 0.0
N1412 N 0.13 0.57575 0.50685 0.0
C1413 C 0.11253 0.58169 0.52617 0.0
C1414 C 0.1031 0.55849 0.53711 0.0
C1415 C 0.11221 0.50979 0.52614 0.0
H1416 H 0.13189 0.5003 0.5253 0.0
H1417 H 0.10248 0.505 0.54515 0.0
H1418 H 0.09985 0.50173 0.51001 0.0
O1419 O 0.15737 0.55371 0.44272 0.0
O1420 O 0.154 0.59601 0.45221 0.0
H1421 H 0.08385 0.60965 0.54004 0.0
H1422 H 0.11637 0.61443 0.55245 0.0
C1423 C 0.10503 0.6089 0.53463 0.0
H1424 H 0.10852 0.6232 0.51853 0.0
H1425 H 0.14068 0.6442 0.46506 0.0
O1426 O 0.13437 0.50131 0.46809 0.0
C1427 C 0.15656 0.57776 0.43549 0.0
Co1428 Co 0.73226 0.90215 0.72907 0.0
Co1429 Co 0.67269 0.9104 0.74378 0.0
C1430 C 0.71447 0.95373 0.74965 0.0
O1431 O 0.73407 0.93961 0.74211 0.0
O1432 O 0.69107 0.94433 0.75156 0.0
C1433 C 0.78977 0.88373 0.72623 0.0
O1434 O 0.79809 0.90224 0.74231 0.0
C1435 C 0.62511 0.91267 0.77713 0.0
C1436 C 0.59675 0.89413 0.74961 0.0
C1437 C 0.59993 0.90202 0.77549 0.0
N1438 N 0.63657 0.91015 0.75337 0.0
N1439 N 0.61917 0.89998 0.73684 0.0
C1440 C 0.63926 0.92188 0.80135 0.0
H1441 H 0.66091 0.91951 0.79895 0.0
H1442 H 0.63228 0.91115 0.81911 0.0
H1443 H 0.63504 0.94313 0.80424 0.0
C1444 C 0.72692 0.86391 0.7736 0.0
N1445 N 0.71616 0.88039 0.7556 0.0
N1446 N 0.69053 0.88132 0.75945 0.0
C1447 C 0.68412 0.86413 0.7789 0.0
C1448 C 0.70702 0.85323 0.78907 0.0
C1449 C 0.75586 0.85905 0.77661 0.0
H1450 H 0.76301 0.84786 0.75926 0.0
H1451 H 0.76641 0.87816 0.77748 0.0
H1452 H 0.76036 0.8474 0.79457 0.0
O1453 O 0.71281 0.90462 0.69414 0.0
O1454 O 0.67109 0.90934 0.70566 0.0
H1455 H 0.65513 0.83678 0.79338 0.0
H1456 H 0.65209 0.86939 0.80587 0.0
C1457 C 0.65673 0.85787 0.78793 0.0
H1458 H 0.6423 0.8619 0.7721 0.0
H1459 H 0.6233 0.8949 0.71733 0.0
O1460 O 0.76559 0.88317 0.71958 0.0
C1461 C 0.68865 0.90811 0.68803 0.0
Co1462 Co 0.37069 0.47492 0.97992 0.0
Co1463 Co 0.35699 0.41676 0.99592 0.0
C1464 C 0.31692 0.46255 0.99694 0.0
O1465 O 0.33283 0.48123 0.99078 0.0
O1466 O 0.32482 0.43875 0.99915 0.0
C1467 C 0.3929 0.53006 0.97718 0.0
O1468 O 0.37468 0.53823 0.9937 0.0
C1469 C 0.33822 0.37951 0.03244 0.0
C1470 C 0.3467 0.37216 0.0169 0.0
C1471 C 0.33636 0.3541 0.03787 0.0
N1472 N 0.35072 0.38244 0.01013 0.0
N1473 N 0.36258 0.36219 0.99785 0.0
C1474 C 0.32589 0.40221 0.05037 0.0
H1475 H 0.33879 0.41989 0.04996 0.0
H1476 H 0.32314 0.39524 0.07095 0.0
H1477 H 0.30634 0.40789 0.04228 0.0
C1478 C 0.40555 0.46799 0.02745 0.0
N1479 N 0.38948 0.45814 1.00854 0.0
N1480 N 0.38554 0.43301 0.01341 0.0
C1481 C 0.39969 0.42589 0.03486 0.0
C1482 C 0.41237 0.44794 0.04493 0.0
C1483 C 0.41158 0.49665 0.03061 0.0
H1484 H 0.4251 0.50298 0.01461 0.0
H1485 H 0.39301 0.50802 0.0291 0.0
H1486 H 0.42084 0.50107 0.04991 0.0
O1487 O 0.36751 0.45361 0.946 0.0
O1488 O 0.36157 0.41215 0.95809 0.0
H1489 H 0.40192 0.38413 0.02856 0.0
H1490 H 0.4201 0.39573 0.05691 0.0
C1491 C 0.40181 0.39833 0.04515 0.0
H1492 H 0.38471 0.39404 0.05804 0.0
H1493 H 0.37229 0.36911 0.98121 0.0
O1494 O 0.39272 0.50622 0.96946 0.0
C1495 C 0.36362 0.42944 0.94019 0.0
Co1496 Co 0.28589 0.61665 0.72933 0.0
Co1497 Co 0.34477 0.60651 0.74599 0.0
C1498 C 0.30202 0.56453 0.75145 0.0
O1499 O 0.28322 0.57909 0.7427 0.0
O1500 O 0.32561 0.5732 0.75415 0.0
C1501 C 0.22861 0.63528 0.72571 0.0
O1502 O 0.22021 0.6161 0.74096 0.0
C1503 C 0.39302 0.60256 0.77861 0.0
C1504 C 0.42118 0.62116 0.75088 0.0
C1505 C 0.41851 0.61239 0.77654 0.0
N1506 N 0.38097 0.60628 0.7553 0.0
N1507 N 0.39822 0.61652 0.73863 0.0
C1508 C 0.37935 0.5928 0.8029 0.0
H1509 H 0.35765 0.59511 0.80095 0.0
H1510 H 0.38662 0.60327 0.82069 0.0
H1511 H 0.38376 0.57154 0.80538 0.0
C1512 C 0.29135 0.65553 0.77333 0.0
N1513 N 0.30205 0.63831 0.75599 0.0
N1514 N 0.32741 0.63619 0.76097 0.0
C1515 C 0.33379 0.65317 0.78058 0.0
C1516 C 0.31106 0.66539 0.78955 0.0
C1517 C 0.26256 0.66167 0.77521 0.0
H1518 H 0.25646 0.67259 0.75729 0.0
H1519 H 0.25118 0.64305 0.77633 0.0
H1520 H 0.25796 0.67403 0.79265 0.0
O1521 O 0.30576 0.61375 0.69461 0.0
O1522 O 0.34661 0.60683 0.7079 0.0
H1523 H 0.37596 0.65363 0.77608 0.0
H1524 H 0.36327 0.67799 0.79837 0.0
C1525 C 0.3609 0.65743 0.7914 0.0
H1526 H 0.36397 0.64443 0.80865 0.0
H1527 H 0.39375 0.62233 0.7194 0.0
O1528 O 0.2529 0.6362 0.71942 0.0
C1529 C 0.3299 0.60882 0.68956 0.0
Co1530 Co 0.86723 0.03282 0.04058 0.0
Co1531 Co 0.8624 0.09288 0.02674 0.0
C1532 C 0.81765 0.05331 0.01663 0.0
O1533 O 0.83045 0.03319 0.02525 0.0
O1534 O 0.82796 0.07644 0.01613 0.0
C1535 C 0.8843 0.97457 0.04402 0.0
O1536 O 0.8651 0.96607 0.02885 0.0
C1537 C 0.86031 0.14415 0.99825 0.0
C1538 C 0.88745 0.16651 0.02407 0.0
C1539 C 0.87377 0.16796 1.00054 0.0
N1540 N 0.86662 0.12916 0.01916 0.0
N1541 N 0.88226 0.14295 0.03479 0.0
C1542 C 0.84104 0.13596 0.97744 0.0
H1543 H 0.82204 0.13111 0.98714 0.0
H1544 H 0.84794 0.11778 0.9675 0.0
H1545 H 0.83756 0.15179 0.96276 0.0
C1546 C 0.90684 0.03724 0.99704 0.0
N1547 N 0.89083 0.04854 0.01519 0.0
N1548 N 0.89035 0.07406 0.0109 0.0
C1549 C 0.90676 0.07985 0.99062 0.0
C1550 C 0.91736 0.05666 0.98084 0.0
C1551 C 0.91071 1.0082 0.99407 0.0
H1552 H 0.89123 0.99829 0.99339 0.0
H1553 H 0.92208 1.00326 0.97604 0.0
H1554 H 0.92181 1.00075 0.01135 0.0
O1555 O 0.86315 0.05114 0.07582 0.0
O1556 O 0.86311 0.09323 0.06506 0.0
H1557 H 0.91242 0.12148 0.99471 0.0
H1558 H 0.92821 0.10755 0.96619 0.0
C1559 C 0.9104 0.10665 0.97886 0.0
H1560 H 0.89315 0.11151 0.96644 0.0
H1561 H 0.89075 0.13565 0.05205 0.0
O1562 O 0.88538 0.9989 0.04993 0.0
C1563 C 0.862 0.07533 0.08232 0.0
Co1564 Co 0.73385 0.11671 0.79154 0.0
Co1565 Co 0.67444 0.11025 0.77565 0.0
C1566 C 0.71548 0.06693 0.76669 0.0
O1567 O 0.73492 0.07973 0.77671 0.0
O1568 O 0.69239 0.07705 0.76504 0.0
C1569 C 0.79172 0.13381 0.79525 0.0
O1570 O 0.79988 0.11484 0.77964 0.0
C1571 C 0.62726 0.10908 0.74162 0.0
C1572 C 0.59884 0.12812 0.76872 0.0
C1573 C 0.60219 0.11988 0.74298 0.0
N1574 N 0.63853 0.11166 0.76546 0.0
N1575 N 0.6211 0.12219 0.78174 0.0
C1576 C 0.64125 0.09926 0.71757 0.0
H1577 H 0.66296 0.10049 0.72025 0.0
H1578 H 0.63506 0.11047 0.69981 0.0
H1579 H 0.63583 0.07832 0.71442 0.0
C1580 C 0.73005 0.15593 0.74773 0.0
N1581 N 0.71861 0.13973 0.7656 0.0
N1582 N 0.69301 0.13963 0.76154 0.0
C1583 C 0.68734 0.15699 0.74206 0.0
C1584 C 0.71064 0.16728 0.73214 0.0
C1585 C 0.75917 0.15949 0.74463 0.0
H1586 H 0.76678 0.17066 0.76178 0.0
H1587 H 0.7689 0.13994 0.74406 0.0
H1588 H 0.76417 0.17066 0.72649 0.0
O1589 O 0.71401 0.11402 0.82615 0.0
O1590 O 0.67251 0.10921 0.81392 0.0
H1591 H 0.64558 0.15994 0.74799 0.0
H1592 H 0.65915 0.18445 0.72635 0.0
C1593 C 0.66032 0.16346 0.7323 0.0
H1594 H 0.65585 0.15155 0.71458 0.0
H1595 H 0.62512 0.12733 0.80126 0.0
O1596 O 0.76746 0.13493 0.80157 0.0
C1597 C 0.68978 0.11033 0.83185 0.0
Co1598 Co 0.78682 0.90112 0.2904 0.0
Co1599 Co 0.8462 0.90749 0.27421 0.0
C1600 C 0.80586 0.95162 0.26709 0.0
O1601 O 0.78617 0.93844 0.27614 0.0
O1602 O 0.8288 0.94125 0.26487 0.0
C1603 C 0.72885 0.88444 0.29413 0.0
O1604 O 0.72092 0.90325 0.27819 0.0
C1605 C 0.89444 0.9099 0.2415 0.0
C1606 C 0.92166 0.88874 0.26826 0.0
C1607 C 0.91938 0.89884 0.24308 0.0
N1608 N 0.88224 0.90576 0.26466 0.0
N1609 N 0.89895 0.89391 0.2808 0.0
C1610 C 0.88156 0.92171 0.21773 0.0
H1611 H 0.85975 0.92123 0.21977 0.0
H1612 H 0.88782 0.91125 0.19954 0.0
H1613 H 0.88794 0.94254 0.21592 0.0
C1614 C 0.79045 0.86138 0.24688 0.0
N1615 N 0.80191 0.87805 0.26429 0.0
N1616 N 0.8274 0.87868 0.25957 0.0
C1617 C 0.83302 0.86144 0.23999 0.0
C1618 C 0.80976 0.85033 0.23094 0.0
C1619 C 0.76137 0.85714 0.24443 0.0
H1620 H 0.75427 0.84631 0.26204 0.0
H1621 H 0.75125 0.87647 0.24347 0.0
H1622 H 0.7563 0.84543 0.22668 0.0
O1623 O 0.80656 0.90387 0.32511 0.0
O1624 O 0.84798 0.90789 0.31232 0.0
H1625 H 0.87494 0.85861 0.24431 0.0
H1626 H 0.86136 0.83678 0.21996 0.0
C1627 C 0.85984 0.85672 0.2287 0.0
H1628 H 0.86358 0.87104 0.21269 0.0
H1629 H 0.89417 0.88753 0.29977 0.0
O1630 O 0.75307 0.88323 0.3006 0.0
C1631 C 0.83088 0.9074 0.33043 0.0
C1632 C 0.03673 0.10502 0.57859 0.0
C1633 C 0.05119 0.10954 0.55526 0.0
C1634 C 0.04001 0.08175 0.5933 0.0
C1635 C 0.0579 0.06214 0.5853 0.0
H1636 H 0.02227 0.11924 0.58527 0.0
H1637 H 0.02843 0.07904 0.61107 0.0
S1638 S 0.10127 0.06425 0.52656 0.0
N1639 N 0.08489 0.09235 0.52552 0.0
N1640 N 0.09056 0.04871 0.5531 0.0
C1641 C 0.07279 0.06648 0.56241 0.0
C1642 C 0.06958 0.09013 0.54744 0.0
C1643 C 0.18769 0.7967 0.84614 0.0
C1644 C 0.21001 0.80842 0.83453 0.0
C1645 C 0.16392 0.79394 0.83207 0.0
C1646 C 0.16151 0.80287 0.80582 0.0
H1647 H 0.18867 0.78955 0.86626 0.0
H1648 H 0.14747 0.78433 0.84174 0.0
S1649 S 0.21471 0.83526 0.7668 0.0
N1650 N 0.22853 0.82898 0.79561 0.0
N1651 N 0.18406 0.82449 0.76913 0.0
C1652 C 0.18381 0.81507 0.79424 0.0
C1653 C 0.20797 0.81765 0.80858 0.0
C1654 C 0.45278 0.95357 0.06256 0.0
C1655 C 0.46285 0.95663 0.08813 0.0
C1656 C 0.45618 0.92991 0.04863 0.0
C1657 C 0.47007 0.90837 0.05959 0.0
H1658 H 0.44265 0.96977 0.05302 0.0
H1659 H 0.44849 0.9289 0.02873 0.0
S1660 S 0.4984 0.90604 0.12712 0.0
N1661 N 0.48558 0.93586 0.12477 0.0
N1662 N 0.49261 0.89157 0.09852 0.0
C1663 C 0.47955 0.91105 0.08557 0.0
C1664 C 0.47585 0.93512 0.0998 0.0
C1665 C 0.33428 0.23109 0.34312 0.0
C1666 C 0.31306 0.2155 0.33442 0.0
C1667 C 0.35725 0.23408 0.32776 0.0
C1668 C 0.35992 0.2216 0.30303 0.0
H1669 H 0.33311 0.24104 0.36199 0.0
H1670 H 0.37282 0.24667 0.33519 0.0
S1671 S 0.30976 0.17803 0.27187 0.0
N1672 N 0.29608 0.18716 0.29997 0.0
N1673 N 0.339 0.19238 0.27108 0.0
C1674 C 0.3388 0.20559 0.2944 0.0
C1675 C 0.31547 0.20265 0.31007 0.0
C1676 C 0.0449 0.93375 0.92058 0.0
C1677 C 0.05736 0.95575 0.93194 0.0
C1678 C 0.04184 0.91009 0.93472 0.0
C1679 C 0.05119 0.9075 0.96079 0.0
H1680 H 0.03735 0.93491 0.90062 0.0
H1681 H 0.03164 0.8939 0.92527 0.0
S1682 S 0.08578 0.95977 0.99904 0.0
N1683 N 0.07921 0.97373 0.97037 0.0
N1684 N 0.07417 0.92944 0.99698 0.0
C1685 C 0.0642 0.92944 0.97208 0.0
C1686 C 0.06708 0.9535 0.95768 0.0
C1687 C 0.33942 0.81247 0.22175 0.0
C1688 C 0.36209 0.80022 0.21107 0.0
C1689 C 0.31613 0.81535 0.20702 0.0
C1690 C 0.31455 0.80637 0.18092 0.0
H1691 H 0.33928 0.81925 0.242 0.0
H1692 H 0.29906 0.82423 0.21632 0.0
S1693 S 0.36842 0.77531 0.14247 0.0
N1694 N 0.38151 0.78043 0.17187 0.0
N1695 N 0.33787 0.78648 0.14418 0.0
C1696 C 0.33715 0.79502 0.16957 0.0
C1697 C 0.36087 0.79185 0.18459 0.0
C1698 C 0.45367 0.06439 0.45762 0.0
C1699 C 0.4644 0.06165 0.43228 0.0
C1700 C 0.4564 0.08797 0.47178 0.0
C1701 C 0.47005 0.10985 0.46119 0.0
H1702 H 0.44323 0.04807 0.46664 0.0
H1703 H 0.44812 0.08878 0.49146 0.0
S1704 S 0.50024 0.11291 0.39446 0.0
N1705 N 0.48785 0.08287 0.39635 0.0
N1706 N 0.49342 0.12718 0.42294 0.0
C1707 C 0.48034 0.10744 0.43547 0.0
C1708 C 0.47746 0.08335 0.42106 0.0
C1709 C 0.18526 0.22635 0.67239 0.0
C1710 C 0.20635 0.21134 0.68236 0.0
C1711 C 0.16172 0.22945 0.6868 0.0
C1712 C 0.15835 0.21763 0.71176 0.0
H1713 H 0.18703 0.23584 0.65332 0.0
H1714 H 0.1463 0.24168 0.6785 0.0
S1715 S 0.20791 0.17566 0.74604 0.0
N1716 N 0.22251 0.18428 0.71823 0.0
N1717 N 0.17843 0.18949 0.74526 0.0
C1718 C 0.17931 0.20207 0.7216 0.0
C1719 C 0.20324 0.19911 0.70694 0.0
C1720 C 0.55043 0.06689 0.09204 0.0
C1721 C 0.55859 0.04931 0.11206 0.0
C1722 C 0.56489 0.06994 0.06859 0.0
C1723 C 0.58805 0.05549 0.06408 0.0
H1724 H 0.53244 0.07819 0.09425 0.0
H1725 H 0.55778 0.08357 0.05375 0.0
S1726 S 0.61904 1.00793 0.11011 0.0
N1727 N 0.59222 0.01785 0.12572 0.0
N1728 N 0.61933 0.0239 0.08172 0.0
C1729 C 0.59683 0.03828 0.08394 0.0
C1730 C 0.58218 0.03517 0.10791 0.0
C1731 C 0.22196 0.33519 0.35504 0.0
C1732 C 0.21539 0.30826 0.35678 0.0
C1733 C 0.21897 0.34925 0.33131 0.0
C1734 C 0.20944 0.33696 0.30834 0.0
H1735 H 0.22991 0.34545 0.37199 0.0
H1736 H 0.22436 0.3699 0.33084 0.0
S1737 S 0.18908 0.26725 0.30183 0.0
N1738 N 0.19806 0.27017 0.33299 0.0
N1739 N 0.19342 0.29663 0.28854 0.0
C1740 C 0.20245 0.31032 0.30972 0.0
C1741 C 0.20518 0.29598 0.33388 0.0
C1742 C 0.97131 0.9555 0.58873 0.0
C1743 C 0.96159 0.97095 0.60979 0.0
C1744 C 0.95711 0.95251 0.56516 0.0
C1745 C 0.93251 0.96464 0.56166 0.0
H1746 H 0.99043 0.94607 0.59009 0.0
H1747 H 0.96555 0.94076 0.54944 0.0
S1748 S 0.8968 1.00517 0.61088 0.0
N1749 N 0.9248 0.99743 0.62565 0.0
N1750 N 0.898 0.99118 0.5815 0.0
C1751 C 0.92204 0.9794 0.58264 0.0
C1752 C 0.93655 0.98264 0.60667 0.0
C1753 C 0.31579 0.72121 0.83937 0.0
C1754 C 0.30165 0.71154 0.86139 0.0
C1755 C 0.31884 0.70621 0.81629 0.0
C1756 C 0.30795 0.6809 0.81423 0.0
H1757 H 0.32415 0.74085 0.83962 0.0
H1758 H 0.32944 0.71466 0.79976 0.0
S1759 S 0.27078 0.6453 0.86618 0.0
N1760 N 0.27765 0.67414 0.87961 0.0
N1761 N 0.28374 0.64604 0.8363 0.0
C1762 C 0.29443 0.67059 0.83614 0.0
C1763 C 0.29124 0.68584 0.85968 0.0
C1764 C 0.59615 0.98042 0.43603 0.0
C1765 C 0.58733 0.96326 0.45598 0.0
C1766 C 0.58218 0.98316 0.41219 0.0
C1767 C 0.55884 0.96881 0.40737 0.0
H1768 H 0.61402 0.99177 0.43887 0.0
H1769 H 0.58945 0.99709 0.39773 0.0
S1770 S 0.52816 0.92053 0.45339 0.0
N1771 N 0.55429 0.93147 0.46943 0.0
N1772 N 0.52822 0.93599 0.42473 0.0
C1773 C 0.55021 0.95114 0.42714 0.0
C1774 C 0.56437 0.94856 0.45139 0.0
C1775 C 0.31311 0.29698 0.68034 0.0
C1776 C 0.29968 0.30783 0.65842 0.0
C1777 C 0.31653 0.31122 0.70388 0.0
C1778 C 0.30671 0.33692 0.70654 0.0
H1779 H 0.32054 0.27699 0.67964 0.0
H1780 H 0.32645 0.30183 0.72031 0.0
S1781 S 0.27222 0.37562 0.65498 0.0
N1782 N 0.27785 0.34682 0.6409 0.0
N1783 N 0.28463 0.37347 0.68502 0.0
C1784 C 0.29408 0.34842 0.6847 0.0
C1785 C 0.29051 0.33395 0.6607 0.0
C1786 C 0.97159 0.06032 0.92913 0.0
C1787 C 0.96063 0.04712 0.90716 0.0
C1788 C 0.95753 0.06327 0.95282 0.0
C1789 C 0.93188 0.05326 0.95557 0.0
H1790 H 0.99151 0.068 0.92835 0.0
H1791 H 0.9669 0.07322 0.96923 0.0
S1792 S 0.893 0.01903 0.90403 0.0
N1793 N 0.92167 0.02509 0.88974 0.0
N1794 N 0.89527 0.03111 0.93419 0.0
C1795 C 0.92028 0.04076 0.93374 0.0
C1796 C 0.9346 0.03762 0.90957 0.0
C1797 C 0.20544 0.70747 0.20208 0.0
C1798 C 0.21556 0.68197 0.20532 0.0
C1799 C 0.2087 0.7212 0.17827 0.0
C1800 C 0.22233 0.71004 0.15665 0.0
H1801 H 0.19512 0.71697 0.2182 0.0
H1802 H 0.20089 0.74103 0.1771 0.0
S1803 S 0.25097 0.6427 0.15488 0.0
N1804 N 0.23836 0.64529 0.18481 0.0
N1805 N 0.24495 0.67109 0.1401 0.0
C1806 C 0.23198 0.68416 0.15956 0.0
C1807 C 0.22854 0.67017 0.18386 0.0
C1808 C 0.10678 0.58381 0.03675 0.0
C1809 C 0.11048 0.55848 0.04755 0.0
C1810 C 0.08281 0.59743 0.03988 0.0
C1811 C 0.0616 0.58625 0.05386 0.0
H1812 H 0.1223 0.59303 0.02531 0.0
H1813 H 0.0808 0.61686 0.03123 0.0
S1814 S 0.0608 0.52114 0.08678 0.0
N1815 N 0.09059 0.52331 0.07377 0.0
N1816 N 0.04568 0.54885 0.07892 0.0
C1817 C 0.06502 0.56127 0.06509 0.0
C1818 C 0.0894 0.54743 0.06215 0.0
C1819 C 0.60718 0.93917 0.98816 0.0
C1820 C 0.61274 0.9607 0.97145 0.0
C1821 C 0.58401 0.92418 0.98519 0.0
C1822 C 0.56551 0.93009 0.96539 0.0
H1823 H 0.6205 0.93417 1.0041 0.0
H1824 H 0.58056 0.90779 0.99845 0.0
S1825 S 0.57055 0.9836 0.91593 0.0
N1826 N 0.59769 0.98646 0.93372 0.0
N1827 N 0.5542 0.95849 0.92864 0.0
C1828 C 0.57085 0.95123 0.94837 0.0
C1829 C 0.59442 0.96643 0.95124 0.0
C1830 C 0.34624 0.3364 0.21734 0.0
C1831 C 0.33474 0.31352 0.20675 0.0
C1832 C 0.33144 0.35956 0.22091 0.0
C1833 C 0.30452 0.36076 0.214 0.0
H1834 H 0.36683 0.3363 0.22309 0.0
H1835 H 0.34112 0.37651 0.22956 0.0
S1836 S 0.26542 0.30562 0.18531 0.0
N1837 N 0.29522 0.29314 0.1894 0.0
N1838 N 0.26725 0.33643 0.19556 0.0
C1839 C 0.293 0.33788 0.20292 0.0
C1840 C 0.30813 0.31435 0.19945 0.0
C1841 C 0.93681 0.09663 0.47172 0.0
C1842 C 0.95839 0.08546 0.45833 0.0
C1843 C 0.91299 0.08273 0.47485 0.0
C1844 C 0.90981 0.05709 0.46466 0.0
H1845 H 0.93844 0.11624 0.47998 0.0
H1846 H 0.89719 0.09198 0.48585 0.0
S1847 S 0.96072 0.01952 0.42734 0.0
N1848 N 0.97529 0.04767 0.43462 0.0
N1849 N 0.93066 0.02157 0.43975 0.0
C1850 C 0.93128 0.04603 0.45064 0.0
C1851 C 0.95551 0.06018 0.4477 0.0
C1852 C 0.68572 0.16241 0.22844 0.0
C1853 C 0.71196 0.16007 0.21945 0.0
C1854 C 0.67172 0.18625 0.22609 0.0
C1855 C 0.68342 0.20872 0.21481 0.0
H1856 H 0.67595 0.14581 0.23767 0.0
H1857 H 0.65155 0.18713 0.23314 0.0
S1858 S 0.75121 0.21367 0.18808 0.0
N1859 N 0.74878 0.18289 0.19834 0.0
N1860 N 0.72243 0.22743 0.19458 0.0
C1861 C 0.7094 0.20677 0.2056 0.0
C1862 C 0.72365 0.18254 0.20774 0.0
C1863 C 0.41264 0.436 0.54505 0.0
C1864 C 0.41081 0.46262 0.55277 0.0
C1865 C 0.43623 0.42169 0.54808 0.0
C1866 C 0.45894 0.4334 0.55889 0.0
H1867 H 0.39589 0.4262 0.53614 0.0
H1868 H 0.43678 0.40132 0.54173 0.0
S1869 S 0.46511 0.50203 0.58266 0.0
N1870 N 0.43426 0.49975 0.57246 0.0
N1871 N 0.47838 0.4728 0.57746 0.0
C1872 C 0.45745 0.4597 0.56704 0.0
C1873 C 0.43347 0.4743 0.56417 0.0
C1874 C 0.347 0.68558 0.28899 0.0
C1875 C 0.33838 0.70543 0.3063 0.0
C1876 C 0.33271 0.662 0.28599 0.0
C1877 C 0.30922 0.65739 0.3002 0.0
H1878 H 0.36495 0.68831 0.2777 0.0
H1879 H 0.33984 0.64758 0.27196 0.0
S1880 S 0.27896 0.70332 0.34875 0.0
N1881 N 0.30542 0.71904 0.33811 0.0
N1882 N 0.27866 0.67486 0.33302 0.0
C1883 C 0.30079 0.67709 0.318 0.0
C1884 C 0.3153 0.70105 0.32089 0.0
C1885 C 0.20844 0.31333 0.81697 0.0
C1886 C 0.18266 0.31105 0.80722 0.0
C1887 C 0.22273 0.33685 0.81417 0.0
C1888 C 0.21185 0.3591 0.80137 0.0
H1889 H 0.21775 0.29668 0.82658 0.0
H1890 H 0.24274 0.3373 0.82164 0.0
S1891 S 0.14403 0.36337 0.77392 0.0
N1892 N 0.14608 0.33308 0.78564 0.0
N1893 N 0.17291 0.37725 0.7799 0.0
C1894 C 0.18572 0.35713 0.79209 0.0
C1895 C 0.17117 0.33313 0.79508 0.0
C1896 C 0.55793 0.583 0.08797 0.0
C1897 C 0.54014 0.56164 0.08951 0.0
C1898 C 0.55314 0.60476 0.07141 0.0
C1899 C 0.52958 0.60692 0.05691 0.0
H1900 H 0.57586 0.583 0.09951 0.0
H1901 H 0.56803 0.62 0.06991 0.0
S1902 S 0.47567 0.55739 0.05474 0.0
N1903 N 0.49846 0.54389 0.07361 0.0
N1904 N 0.4872 0.58677 0.0469 0.0
C1905 C 0.5108 0.58663 0.05965 0.0
C1906 C 0.51662 0.56355 0.07478 0.0
C1907 C 0.67876 0.31411 0.29896 0.0
C1908 C 0.65697 0.30049 0.30984 0.0
C1909 C 0.70254 0.31697 0.31285 0.0
C1910 C 0.7056 0.30646 0.33825 0.0
H1911 H 0.67776 0.32218 0.2792 0.0
H1912 H 0.71881 0.32724 0.30351 0.0
S1913 S 0.65469 0.27087 0.37685 0.0
N1914 N 0.64009 0.27743 0.34846 0.0
N1915 N 0.68473 0.2833 0.37456 0.0
C1916 C 0.68397 0.29351 0.34979 0.0
C1917 C 0.6597 0.29045 0.33563 0.0
C1918 C 0.97244 0.43697 0.59566 0.0
C1919 C 0.96129 0.45952 0.58401 0.0
C1920 C 0.97526 0.41338 0.58141 0.0
C1921 C 0.96696 0.41141 0.55494 0.0
H1922 H 0.97914 0.43765 0.61594 0.0
H1923 H 0.98441 0.39673 0.59114 0.0
S1924 S 0.93604 0.46529 0.51578 0.0
N1925 N 0.94179 0.47869 0.54488 0.0
N1926 N 0.94646 0.43455 0.518 0.0
C1927 C 0.95528 0.43392 0.54331 0.0
C1928 C 0.95262 0.4579 0.55786 0.0
C1929 C 0.81447 0.70334 0.81142 0.0
C1930 C 0.81076 0.71461 0.8364 0.0
C1931 C 0.83851 0.706 0.79794 0.0
C1932 C 0.85987 0.72029 0.80875 0.0
H1933 H 0.79857 0.69247 0.80217 0.0
H1934 H 0.84002 0.69726 0.77852 0.0
S1935 S 0.86049 0.75191 0.87482 0.0
N1936 N 0.83065 0.73906 0.87237 0.0
N1937 N 0.8757 0.74474 0.84691 0.0
C1938 C 0.8565 0.73113 0.83413 0.0
C1939 C 0.83198 0.7282 0.84792 0.0
C1940 C 0.56816 0.45347 0.45941 0.0
C1941 C 0.55818 0.45648 0.43381 0.0
C1942 C 0.56468 0.42985 0.47341 0.0
C1943 C 0.55097 0.40823 0.46238 0.0
H1944 H 0.57842 0.46965 0.46884 0.0
H1945 H 0.57233 0.42884 0.49333 0.0
S1946 S 0.52267 0.40592 0.39483 0.0
N1947 N 0.53544 0.43576 0.39718 0.0
N1948 N 0.52849 0.39141 0.42342 0.0
C1949 C 0.54152 0.4109 0.43638 0.0
C1950 C 0.54517 0.435 0.42214 0.0
C1951 C 0.8352 0.29588 0.6724 0.0
C1952 C 0.81245 0.30721 0.68352 0.0
C1953 C 0.85855 0.29302 0.68715 0.0
C1954 C 0.86005 0.30144 0.71361 0.0
H1955 H 0.83488 0.28905 0.65216 0.0
H1956 H 0.87536 0.2837 0.67783 0.0
S1957 S 0.80545 0.33277 0.7515 0.0
N1958 N 0.79258 0.32692 0.72218 0.0
N1959 N 0.83624 0.32227 0.74993 0.0
C1960 C 0.83734 0.31332 0.72469 0.0
C1961 C 0.81361 0.31599 0.70966 0.0
C1962 C 0.95044 0.56839 0.95264 0.0
C1963 C 0.96365 0.5645 0.92864 0.0
C1964 C 0.95345 0.59185 0.96698 0.0
C1965 C 0.96986 0.61249 0.95793 0.0
H1966 H 0.93785 0.55302 0.96053 0.0
H1967 H 0.94318 0.59352 0.98565 0.0
S1968 S 1.00741 0.6124 0.89495 0.0
N1969 N 0.99254 0.58346 0.89552 0.0
N1970 N 0.9986 0.62749 0.92245 0.0
C1971 C 0.98265 0.609 0.93348 0.0
C1972 C 0.97951 0.58503 0.9189 0.0
C1973 C 0.65992 0.72646 0.18648 0.0
C1974 C 0.65854 0.7175 0.21278 0.0
C1975 C 0.68294 0.72317 0.17131 0.0
C1976 C 0.70546 0.7109 0.18186 0.0
H1977 H 0.64329 0.73652 0.17763 0.0
H1978 H 0.6832 0.73045 0.15121 0.0
S1979 S 0.71259 0.68351 0.24914 0.0
N1980 N 0.68214 0.69503 0.24827 0.0
N1981 N 0.72523 0.68964 0.21976 0.0
C1982 C 0.70439 0.70155 0.20781 0.0
C1983 C 0.68099 0.70462 0.22325 0.0
C1984 C 0.06175 0.5642 0.56365 0.0
C1985 C 0.08801 0.55563 0.56211 0.0
C1986 C 0.04721 0.5616 0.5871 0.0
C1987 C 0.05827 0.55017 0.61001 0.0
H1988 H 0.05223 0.5726 0.54647 0.0
H1989 H 0.02684 0.56806 0.58696 0.0
S1990 S 0.12732 0.52646 0.61641 0.0
N1991 N 0.12522 0.53684 0.5856 0.0
N1992 N 0.09793 0.53145 0.62959 0.0
C1993 C 0.08487 0.54214 0.60878 0.0
C1994 C 0.09968 0.54495 0.58487 0.0
C1995 C 0.69984 0.81253 0.81621 0.0
C1996 C 0.70979 0.83822 0.81412 0.0
C1997 C 0.70268 0.79797 0.8396 0.0
C1998 C 0.71577 0.80844 0.8619 0.0
H1999 H 0.69022 0.80341 0.79946 0.0
H2000 H 0.69514 0.77801 0.83986 0.0
S2001 S 0.74364 0.87596 0.86675 0.0
N2002 N 0.73173 0.87434 0.83647 0.0
N2003 N 0.73756 0.847 0.88035 0.0
C2004 C 0.72514 0.83453 0.86016 0.0
C2005 C 0.72209 0.84936 0.83631 0.0
C2006 C 0.46777 0.46397 0.09297 0.0
C2007 C 0.45869 0.45356 0.11715 0.0
C2008 C 0.45269 0.46208 0.06984 0.0
C2009 C 0.42771 0.4501 0.06995 0.0
H2010 H 0.4871 0.47301 0.09166 0.0
H2011 H 0.46083 0.46975 0.05161 0.0
S2012 S 0.39355 0.42236 0.12853 0.0
N2013 N 0.42251 0.43201 0.13997 0.0
N2014 N 0.39355 0.42969 0.09678 0.0
C2015 C 0.41796 0.44042 0.09413 0.0
C2016 C 0.43359 0.44185 0.11764 0.0
C2017 C 0.79512 0.18514 0.3576 0.0
C2018 C 0.80221 0.21198 0.3587 0.0
C2019 C 0.79771 0.17054 0.33416 0.0
C2020 C 0.80735 0.1822 0.3109 0.0
H2021 H 0.78712 0.17538 0.37484 0.0
H2022 H 0.792 0.14997 0.33417 0.0
S2023 S 0.82886 0.25138 0.30266 0.0
N2024 N 0.81997 0.24929 0.33392 0.0
N2025 N 0.82395 0.22181 0.29008 0.0
C2026 C 0.81475 0.20875 0.31163 0.0
C2027 C 0.81242 0.22363 0.33545 0.0
C2028 C 0.04839 0.45558 0.92716 0.0
C2029 C 0.05862 0.46971 0.90538 0.0
C2030 C 0.06282 0.45256 0.95057 0.0
C2031 C 0.08813 0.46336 0.95318 0.0
H2032 H 0.02871 0.44729 0.92648 0.0
H2033 H 0.05396 0.442 0.9669 0.0
S2034 S 0.12525 0.50002 0.90194 0.0
N2035 N 0.0966 0.49338 0.8879 0.0
N2036 N 0.12377 0.48715 0.93184 0.0
C2037 C 0.09909 0.4767 0.93149 0.0
C2038 C 0.08437 0.47995 0.90761 0.0
C2039 C 0.79044 0.83188 0.16071 0.0
C2040 C 0.79943 0.8057 0.15829 0.0
C2041 C 0.79375 0.84613 0.18429 0.0
C2042 C 0.80611 0.83478 0.20637 0.0
H2043 H 0.78037 0.84137 0.14444 0.0
H2044 H 0.78653 0.8662 0.18529 0.0
S2045 S 0.83342 0.76732 0.21091 0.0
N2046 N 0.82181 0.76934 0.18055 0.0
N2047 N 0.82736 0.79616 0.22465 0.0
C2048 C 0.8154 0.80889 0.20431 0.0
C2049 C 0.81225 0.79437 0.18035 0.0
C2050 C 0.45867 0.56671 0.4549 0.0
C2051 C 0.43274 0.55736 0.45711 0.0
C2052 C 0.47314 0.56339 0.43151 0.0
C2053 C 0.46231 0.55044 0.40932 0.0
H2054 H 0.46801 0.57631 0.47154 0.0
H2055 H 0.49328 0.57053 0.43115 0.0
S2056 S 0.39406 0.52411 0.40477 0.0
N2057 N 0.39602 0.53615 0.43497 0.0
N2058 N 0.42317 0.52943 0.39107 0.0
C2059 C 0.43599 0.54166 0.41116 0.0
C2060 C 0.42126 0.54519 0.43502 0.0
C2061 C 0.705 0.20775 0.70434 0.0
C2062 C 0.71405 0.18177 0.70687 0.0
C2063 C 0.70824 0.22175 0.68065 0.0
C2064 C 0.72077 0.21039 0.65847 0.0
H2065 H 0.69572 0.21747 0.72094 0.0
H2066 H 0.70135 0.24194 0.68003 0.0
S2067 S 0.7462 0.14186 0.65477 0.0
N2068 N 0.73456 0.14448 0.68509 0.0
N2069 N 0.74107 0.17074 0.64064 0.0
C2070 C 0.72927 0.18405 0.66067 0.0
C2071 C 0.72585 0.1698 0.68483 0.0
C2072 C 0.56675 0.06316 0.5676 0.0
C2073 C 0.56405 0.0885 0.55691 0.0
C2074 C 0.59014 0.04867 0.56427 0.0
C2075 C 0.61182 0.05887 0.54995 0.0
H2076 H 0.55046 0.05423 0.57818 0.0
H2077 H 0.59086 0.02897 0.57244 0.0
S2078 S 0.61503 0.12551 0.51976 0.0
N2079 N 0.58525 0.12405 0.53293 0.0
N2080 N 0.62909 0.09687 0.52622 0.0
C2081 C 0.6095 0.08464 0.53983 0.0
C2082 C 0.58566 0.09939 0.54336 0.0
C2083 C 0.08605 0.41935 0.47254 0.0
C2084 C 0.06329 0.43045 0.46121 0.0
C2085 C 0.10933 0.43414 0.47557 0.0
C2086 C 0.11076 0.46064 0.46736 0.0
H2087 H 0.08578 0.39907 0.47923 0.0
H2088 H 0.12615 0.4248 0.48483 0.0
S2089 S 0.05604 0.4986 0.43633 0.0
N2090 N 0.0433 0.46917 0.44179 0.0
N2091 N 0.08681 0.49708 0.44691 0.0
C2092 C 0.08802 0.47175 0.45555 0.0
C2093 C 0.06436 0.45664 0.45264 0.0
C2094 C 0.83044 0.85624 0.73412 0.0
C2095 C 0.80661 0.86028 0.72035 0.0
C2096 C 0.8451 0.8329 0.73105 0.0
C2097 C 0.83655 0.81274 0.71407 0.0
H2098 H 0.83761 0.87094 0.74783 0.0
H2099 H 0.86329 0.8306 0.74203 0.0
S2100 S 0.77631 0.81337 0.67278 0.0
N2101 N 0.77574 0.84194 0.68833 0.0
N2102 N 0.80328 0.79825 0.683 0.0
C2103 C 0.81312 0.81656 0.6999 0.0
C2104 C 0.79818 0.84026 0.70291 0.0
C2105 C 0.42532 0.56496 0.99052 0.0
C2106 C 0.41649 0.54662 0.97163 0.0
C2107 C 0.44854 0.57958 0.98659 0.0
C2108 C 0.46366 0.57665 0.96352 0.0
H2109 H 0.41442 0.5678 1.00869 0.0
H2110 H 0.45434 0.59383 1.00139 0.0
S2111 S 0.44914 0.53185 0.90776 0.0
N2112 N 0.42493 0.52646 0.92893 0.0
N2113 N 0.46819 0.55445 0.92143 0.0
C2114 C 0.45512 0.55852 0.94447 0.0
C2115 C 0.43167 0.54337 0.94857 0.0
C2116 C 0.2085 0.70444 0.70394 0.0
C2117 C 0.18255 0.70679 0.71326 0.0
C2118 C 0.22278 0.68095 0.70724 0.0
C2119 C 0.21171 0.65879 0.72005 0.0
H2120 H 0.21797 0.72103 0.69437 0.0
H2121 H 0.24293 0.68046 0.70015 0.0
S2122 S 0.14333 0.65464 0.7462 0.0
N2123 N 0.14559 0.68485 0.73431 0.0
N2124 N 0.17234 0.64077 0.74089 0.0
C2125 C 0.18538 0.66081 0.72881 0.0
C2126 C 0.17087 0.68477 0.72535 0.0
C2127 C 0.95414 0.95506 0.06442 0.0
C2128 C 0.9562 0.92884 0.05599 0.0
C2129 C 0.93051 0.96922 0.06141 0.0
C2130 C 0.90792 0.95778 0.04969 0.0
H2131 H 0.97108 0.96488 0.07296 0.0
H2132 H 0.93028 0.98959 0.06773 0.0
S2133 S 0.90287 0.88862 0.02629 0.0
N2134 N 0.9335 0.89124 0.0371 0.0
N2135 N 0.88919 0.91779 0.03095 0.0
C2136 C 0.90965 0.93119 0.04188 0.0
C2137 C 0.93373 0.91678 0.0451 0.0
C2138 C 0.79787 0.179 0.81457 0.0
C2139 C 0.80871 0.15722 0.80098 0.0
C2140 C 0.81202 0.20256 0.81782 0.0
C2141 C 0.83762 0.20536 0.80772 0.0
H2142 H 0.77797 0.17817 0.82233 0.0
H2143 H 0.80273 0.21884 0.82805 0.0
S2144 S 0.87617 0.15433 0.77241 0.0
N2145 N 0.84749 0.14004 0.77843 0.0
N2146 N 0.87405 0.18426 0.78499 0.0
C2147 C 0.84911 0.18372 0.79481 0.0
C2148 C 0.8347 0.15968 0.79138 0.0
C2149 C 0.70789 0.81638 0.31824 0.0
C2150 C 0.68269 0.81318 0.30731 0.0
C2151 C 0.7221 0.83987 0.31473 0.0
C2152 C 0.7117 0.86119 0.30009 0.0
H2153 H 0.71682 0.80045 0.32933 0.0
H2154 H 0.7417 0.84101 0.32316 0.0
S2155 S 0.6453 0.86298 0.26909 0.0
N2156 N 0.64705 0.83345 0.28265 0.0
N2157 N 0.67369 0.87756 0.27568 0.0
C2158 C 0.68606 0.85837 0.28969 0.0
C2159 C 0.67162 0.83438 0.29334 0.0
C2160 C 0.02143 0.24501 0.48904 0.0
C2161 C 1.0075 0.22903 0.47098 0.0
C2162 C 0.01757 0.27256 0.48978 0.0
C2163 C 0.99971 0.2848 0.47247 0.0
H2164 H 0.03653 0.23645 0.50149 0.0
H2165 H 0.02963 0.28441 0.50283 0.0
S2166 S 0.95524 0.25155 0.42486 0.0
N2167 N 0.9727 0.22742 0.43799 0.0
N2168 N 0.96576 0.27876 0.43924 0.0
C2169 C 0.98438 0.26884 0.45582 0.0
C2170 C 0.98817 0.24106 0.45513 0.0
C2171 C 0.02261 0.7717 0.73857 0.0
C2172 C 0.03897 0.75857 0.72023 0.0
C2173 C 0.99492 0.76822 0.73835 0.0
C2174 C 0.98284 0.7517 0.71963 0.0
H2175 H 0.03105 0.78575 0.75225 0.0
H2176 H 0.98288 0.77943 0.75197 0.0
S2177 S 0.01687 0.70964 0.67043 0.0
N2178 N 0.0409 0.7258 0.68526 0.0
N2179 N 0.98937 0.71985 0.68455 0.0
C2180 C 0.99909 0.7373 0.70244 0.0
C2181 C 0.02701 0.74056 0.70282 0.0
C2182 C 0.52186 0.77151 0.98864 0.0
C2183 C 0.50139 0.7841 0.97481 0.0
C2184 C 0.52416 0.74377 0.98847 0.0
C2185 C 0.50622 0.72796 0.97422 0.0
H2186 H 0.53691 0.78313 0.99836 0.0
H2187 H 0.54113 0.73486 0.99791 0.0
S2188 S 0.44747 0.75175 0.93759 0.0
N2189 N 0.46162 0.77884 0.94875 0.0
N2190 N 0.46588 0.72713 0.94829 0.0
C2191 C 0.48476 0.74047 0.96187 0.0
C2192 C 0.4824 0.76845 0.96216 0.0
C2193 C 0.5244 0.26268 0.19051 0.0
C2194 C 0.53826 0.26465 0.2145 0.0
C2195 C 0.49704 0.25961 0.18978 0.0
C2196 C 0.48182 0.25799 0.213 0.0
H2197 H 0.53465 0.26392 0.17179 0.0
H2198 H 0.48786 0.25819 0.17054 0.0
S2199 S 0.5081 0.26144 0.28127 0.0
N2200 N 0.53451 0.26457 0.26239 0.0
N2201 N 0.48281 0.25819 0.26097 0.0
C2202 C 0.49527 0.25955 0.23728 0.0
C2203 C 0.52344 0.26303 0.23804 0.0
C2204 C 1.00808 0.74422 0.077 0.0
C2205 C 1.00505 0.72979 0.05346 0.0
C2206 C 0.01238 0.77142 0.07686 0.0
C2207 C 0.01414 0.78583 0.05316 0.0
H2208 H 1.00684 0.73455 0.09601 0.0
H2209 H 0.01457 0.78112 0.09576 0.0
S2210 S 1.0078 0.75781 0.98577 0.0
N2211 N 1.00409 0.73216 1.00551 0.0
N2212 N 0.01257 0.78345 1.00523 0.0
C2213 C 0.0113 0.77178 0.02932 0.0
C2214 C 1.00668 0.74383 0.02947 0.0
C2215 C 0.52344 0.74803 0.28343 0.0
C2216 C 0.53954 0.76175 0.30156 0.0
C2217 C 0.49574 0.75125 0.28338 0.0
C2218 C 0.48342 0.76817 0.30155 0.0
H2219 H 0.53208 0.73367 0.27021 0.0
H2220 H 0.48389 0.73954 0.27002 0.0
S2221 S 0.5167 0.81176 0.34989 0.0
N2222 N 0.54099 0.79543 0.33566 0.0
N2223 N 0.48939 0.80098 0.33583 0.0
C2224 C 0.4994 0.78318 0.31846 0.0
C2225 C 0.52734 0.78013 0.31838 0.0
C2226 C 0.52047 0.27199 0.52968 0.0
C2227 C 0.50727 0.28832 0.54798 0.0
C2228 C 0.51691 0.24438 0.52989 0.0
C2229 C 0.50025 0.23237 0.54855 0.0
H2230 H 0.5347 0.28039 0.51613 0.0
H2231 H 0.52822 0.23235 0.51634 0.0
S2232 S 0.45781 0.26641 0.59746 0.0
N2233 N 0.4742 0.29037 0.58275 0.0
N2234 N 0.46804 0.23894 0.5834 0.0
C2235 C 0.48569 0.2486 0.56562 0.0
C2236 C 0.48904 0.27645 0.56526 0.0
C2237 C 0.99626 0.2618 0.82896 0.0
C2238 C 0.98145 0.26305 0.80549 0.0
C2239 C 0.02358 0.25859 0.82872 0.0
C2240 C 0.03785 0.25607 0.805 0.0
H2241 H 0.98678 0.26365 0.84803 0.0
H2242 H 0.03346 0.25766 0.84765 0.0
S2243 S 1.00888 0.25805 0.73773 0.0
N2244 N 0.98325 0.26186 0.75754 0.0
N2245 N 0.03495 0.25515 0.75709 0.0
C2246 C 0.02347 0.25724 0.7812 0.0
C2247 C 0.9953 0.26091 0.78145 0.0
C2248 C 0.44234 0.01682 0.24648 0.0
C2249 C 0.46573 0.01609 0.23152 0.0
C2250 C 0.44241 0.01293 0.27372 0.0
C2251 C 0.46586 1.00776 0.28772 0.0
H2252 H 0.42348 0.02064 0.23717 0.0
H2253 H 0.42353 0.01356 0.28371 0.0
S2254 S 0.5329 1.00431 0.25821 0.0
N2255 N 0.51337 0.01053 0.23286 0.0
N2256 N 0.51351 1.00261 0.28439 0.0
C2257 C 0.48962 1.00722 0.27318 0.0
C2258 C 0.48956 0.01155 0.24511 0.0
C2259 C 0.27103 0.23741 0.52169 0.0
C2260 C 0.25806 0.21864 0.53772 0.0
C2261 C 0.2676 0.23768 0.49399 0.0
C2262 C 0.25126 0.21905 0.4815 0.0
H2263 H 0.28492 0.25108 0.5304 0.0
H2264 H 0.27869 0.25166 0.48224 0.0
S2265 S 0.20958 0.16881 0.51457 0.0
N2266 N 0.2256 0.18332 0.53889 0.0
N2267 N 0.21972 0.18355 0.48737 0.0
C2268 C 0.23702 0.2014 0.49743 0.0
C2269 C 0.24024 0.20127 0.52538 0.0
C2270 C 0.03281 0.01653 0.74326 0.0
C2271 C 0.05187 1.00031 0.73129 0.0
C2272 C 0.03219 0.01973 0.77094 0.0
C2273 C 0.05045 1.00662 0.7874 0.0
H2274 H 0.01922 0.02771 0.73115 0.0
H2275 H 0.01828 0.0336 0.77933 0.0
S2276 S 0.10093 0.95824 0.76554 0.0
N2277 N 0.0871 0.96861 0.73796 0.0
N2278 N 0.08567 0.97409 0.78952 0.0
C2279 C 0.06817 0.98885 0.77553 0.0
C2280 C 0.06896 0.98586 0.74761 0.0
C2281 C 0.26263 0.82741 0.99488 0.0
C2282 C 0.2652 0.80405 0.98009 0.0
C2283 C 0.25891 0.82701 0.02216 0.0
C2284 C 0.25722 0.80322 0.03637 0.0
H2285 H 0.26384 0.84652 0.98543 0.0
H2286 H 0.25707 0.84582 0.03208 0.0
S2287 S 0.26237 0.73619 1.00739 0.0
N2288 N 0.26582 0.75615 0.98186 0.0
N2289 N 0.25827 0.75536 0.0334 0.0
C2290 C 0.25959 0.77954 0.02198 0.0
C2291 C 0.2637 0.77996 0.99389 0.0
C2292 C 0.24416 0.44758 0.99213 0.0
C2293 C 0.23179 0.46849 1.00553 0.0
C2294 C 0.27147 0.44669 0.98883 0.0
C2295 C 0.28796 0.4668 0.99845 0.0
H2296 H 0.23278 0.43105 0.98484 0.0
H2297 H 0.27982 0.42962 0.97906 0.0
S2298 S 0.26582 0.52763 0.03221 0.0
N2299 N 0.23825 0.51113 0.02666 0.0
N2300 N 0.28996 0.50951 0.01987 0.0
C2301 C 0.27599 0.4888 0.01028 0.0
C2302 C 0.24786 0.48963 0.01395 0.0
C2303 C 0.74509 0.03247 0.01757 0.0
C2304 C 0.7332 0.05213 1.00204 0.0
C2305 C 0.77274 0.03189 0.02116 0.0
C2306 C 0.78931 0.0508 1.00911 0.0
H2307 H 0.73293 0.01825 0.02788 0.0
H2308 H 0.78103 0.01733 0.0344 0.0
S2309 S 0.76783 0.10312 0.9626 0.0
N2310 N 0.74017 0.08879 0.97204 0.0
N2311 N 0.79167 0.08733 0.97816 0.0
C2312 C 0.77756 0.06926 0.99206 0.0
C2313 C 0.74965 0.07002 0.9887 0.0
C2314 C 0.19169 0.49794 0.25394 0.0
C2315 C 0.2152 0.48313 0.25382 0.0
C2316 C 0.19174 0.52517 0.25771 0.0
C2317 C 0.2153 0.53926 0.26186 0.0
H2318 H 0.17276 0.48854 0.25081 0.0
H2319 H 0.17283 0.53511 0.25771 0.0
S2320 S 0.28261 0.51017 0.2631 0.0
N2321 N 0.26299 0.48473 0.25772 0.0
N2322 N 0.26315 0.53619 0.26534 0.0
C2323 C 0.23915 0.52486 0.26165 0.0
C2324 C 0.23909 0.49683 0.2575 0.0
C2325 C 0.74807 0.94423 0.5215 0.0
C2326 C 0.73242 0.9663 0.51543 0.0
C2327 C 0.77538 0.94445 0.51804 0.0
C2328 C 0.78868 0.96665 0.50791 0.0
H2329 H 0.73913 0.92634 0.52904 0.0
H2330 H 0.78598 0.92655 0.52281 0.0
S2331 S 0.75707 0.03041 0.49048 0.0
N2332 N 0.73225 0.01173 0.50039 0.0
N2333 N 0.78391 0.01209 0.49311 0.0
C2334 C 0.77343 0.98935 0.50258 0.0
C2335 C 0.7453 0.9892 0.50653 0.0
C2336 C 0.82719 0.99529 0.25982 0.0
C2337 C 0.80373 0.98053 0.26187 0.0
C2338 C 0.82689 0.02257 0.25643 0.0
C2339 C 0.80312 0.03679 0.25455 0.0
H2340 H 0.84629 0.98581 0.2612 0.0
H2341 H 0.84578 0.03246 0.25495 0.0
S2342 S 0.73586 1.00789 0.25861 0.0
N2343 N 0.75576 0.98232 0.262 0.0
N2344 N 0.75516 0.03389 0.25503 0.0
C2345 C 0.77933 0.02244 0.2565 0.0
C2346 C 0.77965 0.99434 0.2603 0.0
C2347 C 0.24682 0.57691 0.5041 0.0
C2348 C 0.23249 0.55314 0.50354 0.0
C2349 C 0.27408 0.57736 0.50809 0.0
C2350 C 0.28871 0.55408 0.51207 0.0
H2351 H 0.237 0.59565 0.50122 0.0
H2352 H 0.28362 0.59646 0.50843 0.0
S2353 S 0.26104 0.4863 0.51225 0.0
N2354 N 0.23518 0.50539 0.50693 0.0
N2355 N 0.28665 0.50626 0.51496 0.0
C2356 C 0.27479 0.53001 0.51152 0.0
C2357 C 0.24674 0.52953 0.50713 0.0
C2358 C 0.28012 0.49625 0.77478 0.0
C2359 C 0.29789 0.47967 0.76117 0.0
C2360 C 0.28035 0.52386 0.77089 0.0
C2361 C 0.29845 0.5356 0.75341 0.0
H2362 H 0.26698 0.48806 0.7895 0.0
H2363 H 0.26727 0.5361 0.78251 0.0
S2364 S 0.34583 0.50082 0.70988 0.0
N2365 N 0.33156 0.47712 0.72703 0.0
N2366 N 0.33222 0.52847 0.72022 0.0
C2367 C 0.31498 0.5191 0.73854 0.0
C2368 C 0.31463 0.49128 0.74227 0.0
C2369 C 0.98759 0.52067 0.74549 0.0
C2370 C 0.96894 0.50824 0.72896 0.0
C2371 C 0.9871 0.51697 0.77312 0.0
C2372 C 0.96778 0.50095 0.78497 0.0
H2373 H 1.00174 0.53438 0.73724 0.0
H2374 H 1.00103 0.52764 0.7853 0.0
S2375 S 0.91763 0.46049 0.75041 0.0
N2376 N 0.93305 0.47645 0.72658 0.0
N2377 N 0.93185 0.47011 0.77805 0.0
C2378 C 0.95026 0.48717 0.76855 0.0
C2379 C 0.95092 0.49063 0.74067 0.0
C2380 C 0.7573 0.69035 0.99405 0.0
C2381 C 0.75443 0.7139 0.97961 0.0
C2382 C 0.76092 0.69037 0.02135 0.0
C2383 C 0.76218 0.71395 0.03592 0.0
H2384 H 0.75638 0.67138 0.98432 0.0
H2385 H 0.763 0.67143 0.031 0.0
S2386 S 0.7562 0.78135 1.00791 0.0
N2387 N 0.75314 0.76175 0.98208 0.0
N2388 N 0.76048 0.76183 0.03365 0.0
C2389 C 0.75956 0.73782 0.02186 0.0
C2390 C 0.75556 0.73779 0.99376 0.0
C2391 C 0.57798 0.50678 0.2477 0.0
C2392 C 0.5538 0.506 0.23411 0.0
C2393 C 0.57904 0.51025 0.27507 0.0
C2394 C 0.55599 0.51343 0.29034 0.0
H2395 H 0.59645 0.5043 0.23722 0.0
H2396 H 0.59836 0.51075 0.2842 0.0
S2397 S 0.48743 0.51328 0.26452 0.0
N2398 N 0.50599 0.50879 0.23812 0.0
N2399 N 0.50805 0.5157 0.28961 0.0
C2400 C 0.53158 0.51286 0.27707 0.0
C2401 C 0.53047 0.50907 0.24903 0.0
C2402 C 0.76798 0.32606 0.49654 0.0
C2403 C 0.76564 0.30311 0.48118 0.0
C2404 C 0.76463 0.32562 0.52385 0.0
C2405 C 0.75835 0.30225 0.5375 0.0
H2406 H 0.77269 0.34483 0.48748 0.0
H2407 H 0.76657 0.34419 0.53419 0.0
S2408 S 0.75084 0.23621 0.50681 0.0
N2409 N 0.75766 0.25588 0.48172 0.0
N2410 N 0.75063 0.25507 0.53338 0.0
C2411 C 0.75635 0.27887 0.52255 0.0
C2412 C 0.76018 0.27929 0.49441 0.0
C2413 C 0.7369 0.99467 0.76737 0.0
C2414 C 0.71729 0.98273 0.75179 0.0
C2415 C 0.73735 0.02226 0.77104 0.0
C2416 C 0.71838 0.03872 0.75898 0.0
H2417 H 0.75119 0.98258 0.77767 0.0
H2418 H 0.75184 0.03057 0.78435 0.0
S2419 S 0.66614 0.01711 0.71232 0.0
N2420 N 0.68067 0.98956 0.72168 0.0
N2421 N 0.68177 0.04094 0.72798 0.0
C2422 C 0.69998 0.02694 0.74184 0.0
C2423 C 0.69936 0.99909 0.73841 0.0
C2424 C 0.94849 0.11065 0.30984 0.0
C2425 C 0.93417 0.12884 0.2948 0.0
C2426 C 0.96708 0.11935 0.3283 0.0
C2427 C 0.97145 0.14643 0.33246 0.0
H2428 H 0.94612 0.0897 0.30651 0.0
H2429 H 0.97861 0.10484 0.33893 0.0
S2430 S 0.937 0.20169 0.2998 0.0
N2431 N 0.92428 0.17496 0.28624 0.0
N2432 N 0.95881 0.1912 0.32162 0.0
C2433 C 0.95621 0.16473 0.31863 0.0
C2434 C 0.93764 0.15593 0.29953 0.0
C2435 C 0.10578 0.70625 0.56848 0.0
C2436 C 0.12422 0.71865 0.58485 0.0
C2437 C 0.11412 0.68846 0.54913 0.0
C2438 C 0.14105 0.68242 0.54593 0.0
H2439 H 0.08502 0.71119 0.5699 0.0
H2440 H 0.09949 0.6798 0.53617 0.0
S2441 S 0.19668 0.70857 0.58511 0.0
N2442 N 0.17028 0.72315 0.59744 0.0
N2443 N 0.18582 0.68903 0.56144 0.0
C2444 C 0.15947 0.69372 0.56302 0.0
C2445 C 0.15105 0.71211 0.58242 0.0
C2446 C 0.55805 0.85723 0.8178 0.0
C2447 C 0.54637 0.87497 0.83541 0.0
C2448 C 0.57597 0.86619 0.79876 0.0
C2449 C 0.58298 0.89302 0.79718 0.0
H2450 H 0.55255 0.83661 0.81808 0.0
H2451 H 0.58412 0.85211 0.78492 0.0
S2452 S 0.55952 0.94678 0.8404 0.0
N2453 N 0.54405 0.92023 0.85119 0.0
N2454 N 0.57817 0.93681 0.81562 0.0
C2455 C 0.57241 0.91066 0.81548 0.0
C2456 C 0.55392 0.90167 0.83458 0.0
C2457 C 0.36334 0.34302 0.07759 0.0
C2458 C 0.35581 0.33731 0.05158 0.0
C2459 C 0.38009 0.32606 0.09161 0.0
C2460 C 0.3902 0.30293 0.07996 0.0
H2461 H 0.3554 0.36017 0.08752 0.0
H2462 H 0.38358 0.33049 0.11212 0.0
S2463 S 0.37807 0.28073 0.0112 0.0
N2464 N 0.36024 0.30776 0.01425 0.0
N2465 N 0.39314 0.2768 0.03979 0.0
C2466 C 0.38398 0.29806 0.0533 0.0
C2467 C 0.36633 0.31491 0.03936 0.0
C2468 C 0.95265 0.91021 0.20903 0.0
C2469 C 0.93667 0.8913 0.22123 0.0
C2470 C 0.97193 0.90255 0.19083 0.0
C2471 C 0.97538 0.87585 0.18413 0.0
H2472 H 0.95094 0.93081 0.21437 0.0
H2473 H 0.98455 0.91753 0.18229 0.0
S2474 S 0.93688 0.81925 0.20923 0.0
N2475 N 0.9244 0.8451 0.22459 0.0
N2476 N 0.96039 0.83081 0.18984 0.0
C2477 C 0.95864 0.85697 0.19524 0.0
C2478 C 0.9393 0.8647 0.21402 0.0
C2479 C 0.38418 0.68329 0.45373 0.0
C2480 C 0.37798 0.69106 0.47963 0.0
C2481 C 0.3928 0.70169 0.43502 0.0
C2482 C 0.396 0.72837 0.4417 0.0
H2483 H 0.38285 0.66285 0.44789 0.0
H2484 H 0.39605 0.69499 0.41504 0.0
S2485 S 0.38298 0.75863 0.50698 0.0
N2486 N 0.37578 0.72717 0.51103 0.0
N2487 N 0.39258 0.76162 0.476 0.0
C2488 C 0.3902 0.7363 0.4676 0.0
C2489 C 0.38116 0.71767 0.48654 0.0
C2490 C 0.55216 0.11949 0.68821 0.0
C2491 C 0.54834 0.14657 0.68357 0.0
C2492 C 0.57081 0.11073 0.70657 0.0
C2493 C 0.58573 0.12889 0.72102 0.0
H2494 H 0.54015 0.10503 0.67804 0.0
H2495 H 0.57275 0.0898 0.71032 0.0
S2496 S 0.58445 0.20167 0.71461 0.0
N2497 N 0.56211 0.19125 0.6933 0.0
N2498 N 0.59677 0.17492 0.72852 0.0
C2499 C 0.58282 0.15594 0.71578 0.0
C2500 C 0.56419 0.16479 0.69678 0.0
C2501 C 0.13197 0.31643 0.93268 0.0
C2502 C 0.12692 0.29035 0.94062 0.0
C2503 C 0.14041 0.33541 0.95085 0.0
C2504 C 0.14466 0.32885 0.97746 0.0
H2505 H 0.13 0.32222 0.91225 0.0
H2506 H 0.1429 0.35544 0.944 0.0
S2507 S 0.13485 0.26317 1.00811 0.0
N2508 N 0.12678 0.25895 0.97685 0.0
N2509 N 0.14348 0.29441 0.0108 0.0
C2510 C 0.13996 0.30278 0.98556 0.0
C2511 C 0.131 0.28359 0.96719 0.0
C2512 C 0.29995 0.94056 0.15384 0.0
C2513 C 0.29637 0.9342 0.12704 0.0
C2514 C 0.31881 0.95915 0.16161 0.0
C2515 C 0.3342 0.97214 0.14271 0.0
H2516 H 0.28769 0.93147 0.16882 0.0
H2517 H 0.32057 0.9642 0.1823 0.0
S2518 S 0.33342 0.96136 0.07037 0.0
N2519 N 0.31068 0.94107 0.0819 0.0
N2520 N 0.34574 0.97665 0.09636 0.0
C2521 C 0.33145 0.96529 0.11599 0.0
C2522 C 0.31259 0.94607 0.10816 0.0
C2523 C 0.28662 0.0558 0.38949 0.0
C2524 C 0.29409 0.08206 0.39407 0.0
C2525 C 0.30502 0.03703 0.38129 0.0
C2526 C 0.33157 0.04382 0.37705 0.0
H2527 H 0.26626 0.04977 0.39201 0.0
H2528 H 0.29841 0.01694 0.37831 0.0
S2529 S 0.3613 0.11008 0.38624 0.0
N2530 N 0.32974 0.11414 0.393 0.0
N2531 N 0.36463 0.07857 0.37911 0.0
C2532 C 0.33939 0.07 0.38175 0.0
C2533 C 0.32057 0.0892 0.38993 0.0
C2534 C 0.18506 0.06658 0.64183 0.0
C2535 C 0.19186 0.03973 0.64306 0.0
C2536 C 0.20322 0.08545 0.63301 0.0
C2537 C 0.22854 0.07805 0.62442 0.0
H2538 H 0.16542 0.07311 0.6469 0.0
H2539 H 0.19749 0.10599 0.63345 0.0
S2540 S 0.25632 0.01051 0.62437 0.0
N2541 N 0.22602 1.00688 0.63577 0.0
N2542 N 0.25981 0.04231 0.61845 0.0
C2543 C 0.23566 0.05137 0.6258 0.0
C2544 C 0.21737 0.03223 0.63515 0.0
C2545 C 0.20191 0.96018 0.85649 0.0
C2546 C 0.18672 0.97344 0.87533 0.0
C2547 C 0.22126 0.94217 0.86439 0.0
C2548 C 0.22554 0.93668 0.89129 0.0
H2549 H 0.19951 0.9645 0.83569 0.0
H2550 H 0.23326 0.93277 0.84941 0.0
S2551 S 0.18914 0.96465 0.94794 0.0
N2552 N 0.176 0.97897 0.92179 0.0
N2553 N 0.21209 0.94456 0.93652 0.0
C2554 C 0.20958 0.94884 0.91018 0.0
C2555 C 0.1902 0.96745 0.9022 0.0
C2556 C 0.63276 0.23422 0.0553 0.0
C2557 C 0.62941 0.22742 0.08199 0.0
C2558 C 0.64065 0.21551 0.03668 0.0
C2559 C 0.64587 0.18935 0.04405 0.0
H2560 H 0.62929 0.25424 0.04874 0.0
H2561 H 0.64244 0.22153 0.01624 0.0
S2562 S 0.64038 0.16129 0.11146 0.0
N2563 N 0.63285 0.1927 0.11497 0.0
N2564 N 0.64635 0.1573 0.07973 0.0
C2565 C 0.64263 0.1822 0.07064 0.0
C2566 C 0.63469 0.2013 0.08968 0.0
C2567 C 0.08251 0.39839 0.32181 0.0
C2568 C 0.08594 0.38673 0.29697 0.0
C2569 C 0.06685 0.38623 0.34105 0.0
C2570 C 0.05426 0.36204 0.33605 0.0
H2571 H 0.09104 0.4175 0.32602 0.0
H2572 H 0.06337 0.3966 0.3593 0.0
S2573 S 0.05908 0.32219 0.27522 0.0
N2574 N 0.0773 0.34849 0.26921 0.0
N2575 N 0.04733 0.32617 0.30534 0.0
C2576 C 0.05835 0.34973 0.31175 0.0
C2577 C 0.07436 0.36194 0.2922 0.0
C2578 C 0.88239 0.80445 0.5363 0.0
C2579 C 0.87794 0.83087 0.54327 0.0
C2580 C 0.89101 0.78607 0.55495 0.0
C2581 C 0.89588 0.79348 0.5812 0.0
H2582 H 0.87928 0.79793 0.51619 0.0
H2583 H 0.89363 0.76579 0.54882 0.0
S2584 S 0.88765 0.86038 0.60958 0.0
N2585 N 0.87997 0.86374 0.57814 0.0
N2586 N 0.89492 0.82895 0.61344 0.0
C2587 C 0.89156 0.81985 0.58848 0.0
C2588 C 0.88285 0.83861 0.56945 0.0
C2589 C 0.05401 0.63079 0.23254 0.0
C2590 C 0.0806 0.6276 0.22536 0.0
C2591 C 0.0349 0.6376 0.21386 0.0
C2592 C 0.04166 0.64182 0.18731 0.0
H2593 H 0.04791 0.62809 0.25286 0.0
H2594 H 0.01458 0.63944 0.22026 0.0
S2595 S 0.10872 0.63625 0.15827 0.0
N2596 N 0.11293 0.63019 0.18996 0.0
N2597 N 0.07681 0.64142 0.15457 0.0
C2598 C 0.0682 0.63864 0.17979 0.0
C2599 C 0.08773 0.63189 0.19889 0.0
C2600 C 0.44833 0.3629 0.69034 0.0
C2601 C 0.4703 0.37776 0.68253 0.0
C2602 C 0.4296 0.37361 0.70758 0.0
C2603 C 0.43223 0.3995 0.71711 0.0
H2604 H 0.44628 0.3426 0.68407 0.0
H2605 H 0.41374 0.36114 0.71451 0.0
S2606 S 0.48435 0.44741 0.6999 0.0
N2607 N 0.49233 0.42042 0.68354 0.0
N2608 N 0.45702 0.44027 0.71617 0.0
C2609 C 0.45328 0.41493 0.70839 0.0
C2610 C 0.47237 0.40411 0.69095 0.0
C2611 C 0.46286 0.65434 0.81904 0.0
C2612 C 0.47428 0.63574 0.83594 0.0
C2613 C 0.44433 0.64655 0.80014 0.0
C2614 C 0.43642 0.62003 0.79795 0.0
H2615 H 0.46891 0.6748 0.81986 0.0
H2616 H 0.43632 0.66132 0.78694 0.0
S2617 S 0.45901 0.56429 0.83915 0.0
N2618 N 0.47544 0.59002 0.85047 0.0
N2619 N 0.44031 0.57554 0.81495 0.0
C2620 C 0.44688 0.60148 0.81544 0.0
C2621 C 0.46597 0.60932 0.83446 0.0
C2622 C 0.88335 0.18138 0.95405 0.0
C2623 C 0.87882 0.18841 0.9805 0.0
C2624 C 0.89101 0.20027 0.93541 0.0
C2625 C 0.89507 0.22669 0.94273 0.0
H2626 H 0.88148 0.1611 0.94772 0.0
H2627 H 0.89304 0.19414 0.91508 0.0
S2628 S 0.88702 0.25483 0.00978 0.0
N2629 N 0.87936 0.2234 0.01318 0.0
N2630 N 0.89463 0.25874 0.97836 0.0
C2631 C 0.89108 0.23381 0.96922 0.0
C2632 C 0.8829 0.2147 0.98806 0.0
C2633 C 0.64266 0.83485 0.45324 0.0
C2634 C 0.64363 0.82821 0.48016 0.0
C2635 C 0.63412 0.81659 0.43441 0.0
C2636 C 0.62559 0.79134 0.44196 0.0
H2637 H 0.64768 0.85446 0.4466 0.0
H2638 H 0.63468 0.82221 0.41381 0.0
S2639 S 0.62492 0.76402 0.50977 0.0
N2640 N 0.63616 0.79434 0.51328 0.0
N2641 N 0.61936 0.76029 0.4779 0.0
C2642 C 0.62673 0.78437 0.46872 0.0
C2643 C 0.63579 0.80277 0.48782 0.0
C2644 C 0.81929 0.45864 0.66102 0.0
C2645 C 0.83407 0.4725 0.64226 0.0
C2646 C 0.80041 0.44019 0.653 0.0
C2647 C 0.7962 0.43488 0.62607 0.0
H2648 H 0.8216 0.46283 0.68184 0.0
H2649 H 0.78864 0.43038 0.66792 0.0
S2650 S 0.83167 0.46441 0.56959 0.0
N2651 N 0.84446 0.47886 0.59584 0.0
N2652 N 0.80935 0.44353 0.58089 0.0
C2653 C 0.81182 0.44761 0.60726 0.0
C2654 C 0.8307 0.46669 0.61536 0.0
C2655 C 0.80346 0.5355 0.87642 0.0
C2656 C 0.82975 0.54294 0.87174 0.0
C2657 C 0.78468 0.55389 0.88467 0.0
C2658 C 0.79154 0.58037 0.88894 0.0
H2659 H 0.7974 0.51517 0.87393 0.0
H2660 H 0.76455 0.54733 0.88768 0.0
S2661 S 0.85788 0.61003 0.87951 0.0
N2662 N 0.8619 0.57854 0.87262 0.0
N2663 N 0.82635 0.61335 0.88686 0.0
C2664 C 0.81775 0.58816 0.88417 0.0
C2665 C 0.83693 0.56938 0.87584 0.0
C2666 C 0.67717 0.56777 0.12985 0.0
C2667 C 0.68336 0.54101 0.13361 0.0
C2668 C 0.69679 0.58618 0.12339 0.0
C2669 C 0.72321 0.57838 0.11988 0.0
H2670 H 0.65705 0.57463 0.13148 0.0
H2671 H 0.69122 0.60669 0.12195 0.0
S2672 S 0.7496 0.51053 0.12661 0.0
N2673 N 0.71783 0.50766 0.13317 0.0
N2674 N 0.75439 0.54201 0.12004 0.0
C2675 C 0.72953 0.55162 0.12308 0.0
C2676 C 0.70969 0.533 0.13005 0.0
C2677 C 0.70396 0.43451 0.39055 0.0
C2678 C 0.73045 0.44141 0.39503 0.0
C2679 C 0.68546 0.45346 0.38277 0.0
C2680 C 0.69294 0.47983 0.37872 0.0
H2681 H 0.69749 0.41428 0.39232 0.0
H2682 H 0.66513 0.44739 0.38052 0.0
S2683 S 0.75989 0.50792 0.38774 0.0
N2684 N 0.76318 0.47642 0.39516 0.0
N2685 N 0.72855 0.5119 0.37985 0.0
C2686 C 0.71936 0.48694 0.38311 0.0
C2687 C 0.73809 0.46775 0.39132 0.0
C2688 C 0.11331 0.18582 0.40908 0.0
C2689 C 0.1091 0.167 0.42922 0.0
C2690 C 0.13886 0.19368 0.40163 0.0
C2691 C 0.16121 0.18246 0.4135 0.0
H2692 H 0.09668 0.19509 0.39938 0.0
H2693 H 0.14112 0.20851 0.38642 0.0
S2694 S 0.16106 0.13223 0.46702 0.0
N2695 N 0.12951 0.13755 0.46091 0.0
N2696 N 0.17746 0.15153 0.44653 0.0
C2697 C 0.15727 0.16333 0.4334 0.0
C2698 C 0.13127 0.15582 0.44137 0.0
C2699 C 0.10717 0.90542 0.68263 0.0
C2700 C 0.08792 0.90967 0.66292 0.0
C2701 C 0.11419 0.87991 0.69081 0.0
C2702 C 0.10276 0.85762 0.6791 0.0
H2703 H 0.11642 0.92201 0.6924 0.0
H2704 H 0.12872 0.87764 0.70632 0.0
S2705 S 0.05153 0.8579 0.62653 0.0
N2706 N 0.0575 0.88939 0.6321 0.0
N2707 N 0.0711 0.84146 0.64671 0.0
C2708 C 0.08376 0.86159 0.65908 0.0
C2709 C 0.07621 0.88757 0.6512 0.0
C2710 C 0.38418 0.82528 0.90562 0.0
C2711 C 0.36188 0.83886 0.91483 0.0
C2712 C 0.40967 0.83243 0.91389 0.0
C2713 C 0.41382 0.85297 0.93224 0.0
H2714 H 0.38193 0.80905 0.89194 0.0
H2715 H 0.42625 0.82124 0.90636 0.0
S2716 S 0.36198 0.89427 0.96292 0.0
N2717 N 0.34566 0.8739 0.94349 0.0
N2718 N 0.39344 0.88664 0.95937 0.0
C2719 C 0.39171 0.86659 0.9417 0.0
C2720 C 0.36581 0.85973 0.93289 0.0
C2721 C 0.4101 0.11581 0.17917 0.0
C2722 C 0.431 0.11101 0.16134 0.0
C2723 C 0.40284 0.14153 0.18644 0.0
C2724 C 0.41568 0.16347 0.17554 0.0
H2725 H 0.39965 0.09949 0.18818 0.0
H2726 H 0.38701 0.14424 0.20054 0.0
S2727 S 0.4715 0.1618 0.12793 0.0
N2728 N 0.46453 0.13046 0.13326 0.0
N2729 N 0.45042 0.17878 0.14604 0.0
C2730 C 0.43636 0.15898 0.15739 0.0
C2731 C 0.44416 0.13279 0.15054 0.0
C2732 C 0.12356 0.86464 0.10568 0.0
C2733 C 0.11113 0.85289 0.08382 0.0
C2734 C 0.14812 0.85561 0.11483 0.0
C2735 C 0.16067 0.83379 0.10316 0.0
H2736 H 0.11422 0.88098 0.11578 0.0
H2737 H 0.15735 0.86573 0.13122 0.0
S2738 S 0.13609 0.79566 0.04578 0.0
N2739 N 0.11319 0.81826 0.0508 0.0
N2740 N 0.15888 0.80078 0.06849 0.0
C2741 C 0.14828 0.82164 0.08152 0.0
C2742 C 0.12366 0.83133 0.07172 0.0
C2743 C 0.41192 0.90542 0.33617 0.0
C2744 C 0.43237 0.9095 0.35465 0.0
C2745 C 0.40438 0.87998 0.32828 0.0
C2746 C 0.41647 0.85762 0.33915 0.0
H2747 H 0.40205 0.92208 0.32715 0.0
H2748 H 0.38892 0.87783 0.31368 0.0
S2749 S 0.47075 0.85755 0.38863 0.0
N2750 N 0.46457 0.88907 0.38349 0.0
N2751 N 0.44998 0.84124 0.36957 0.0
C2752 C 0.43668 0.86144 0.35801 0.0
C2753 C 0.44476 0.88736 0.36551 0.0
C2754 C 0.38831 0.15394 0.57657 0.0
C2755 C 0.41063 0.16577 0.58784 0.0
C2756 C 0.36276 0.16157 0.58421 0.0
C2757 C 0.35853 0.18187 0.60281 0.0
H2758 H 0.39059 0.13858 0.56192 0.0
H2759 H 0.34614 0.15185 0.57494 0.0
S2760 S 0.41046 0.21979 0.63743 0.0
N2761 N 0.42687 0.19904 0.61848 0.0
N2762 N 0.37891 0.21378 0.63201 0.0
C2763 C 0.38068 0.19406 0.61397 0.0
C2764 C 0.40668 0.1859 0.6067 0.0
C2765 C 0.11442 0.1369 0.82582 0.0
C2766 C 0.10261 0.1591 0.83725 0.0
C2767 C 0.10677 0.11138 0.83335 0.0
C2768 C 0.08648 0.1071 0.85201 0.0
H2769 H 0.12985 0.13926 0.8112 0.0
H2770 H 0.1165 0.09482 0.82403 0.0
S2771 S 0.04854 0.15879 0.88689 0.0
N2772 N 0.06933 0.17526 0.86796 0.0
N2773 N 0.05452 0.1273 0.88133 0.0
C2774 C 0.07425 0.12915 0.86325 0.0
C2775 C 0.08244 0.15512 0.85608 0.0
C2776 C 0.19101 0.40668 0.13632 0.0
C2777 C 0.17909 0.41846 0.15831 0.0
C2778 C 0.18396 0.41424 0.11063 0.0
C2779 C 0.16533 0.43442 0.10599 0.0
H2780 H 0.20568 0.39138 0.13898 0.0
H2781 H 0.19365 0.40455 0.09424 0.0
S2782 S 0.12924 0.47219 0.157 0.0
N2783 N 0.14792 0.45153 0.17389 0.0
N2784 N 0.13546 0.46622 0.12559 0.0
C2785 C 0.15357 0.44661 0.12782 0.0
C2786 C 0.16023 0.43848 0.15397 0.0
C2787 C 0.6531 0.0782 0.889 0.0
C2788 C 0.66572 0.0886 0.91131 0.0
C2789 C 0.66059 0.08603 0.86347 0.0
C2790 C 0.68153 0.10394 0.85924 0.0
H2791 H 0.63726 0.06404 0.89128 0.0
H2792 H 0.65031 0.0774 0.84686 0.0
S2793 S 0.72147 0.13631 0.91109 0.0
N2794 N 0.70029 0.1178 0.92753 0.0
N2795 N 0.71479 0.13165 0.87956 0.0
C2796 C 0.69445 0.11429 0.88137 0.0
C2797 C 0.68643 0.10685 0.90736 0.0
C2798 C 0.82832 0.90328 0.37979 0.0
C2799 C 0.8394 0.91508 0.35735 0.0
C2800 C 0.83624 0.91092 0.40522 0.0
C2801 C 0.85495 0.93119 0.40917 0.0
H2802 H 0.81361 0.88793 0.37769 0.0
H2803 H 0.82711 0.90128 0.42197 0.0
S2804 S 0.88916 0.96897 0.35683 0.0
N2805 N 0.86997 0.94823 0.34067 0.0
N2806 N 0.88403 0.96302 0.38845 0.0
C2807 C 0.86592 0.94334 0.3869 0.0
C2808 C 0.85837 0.93515 0.36102 0.0
C2809 C 0.82373 0.08177 0.14635 0.0
C2810 C 0.83555 0.10377 0.15843 0.0
C2811 C 0.83347 0.0716 0.12243 0.0
C2812 C 0.85505 0.08339 0.10952 0.0
H2813 H 0.80734 0.07185 0.15583 0.0
H2814 H 0.82355 0.05487 0.1136 0.0
S2815 S 0.89271 0.14155 0.13276 0.0
N2816 N 0.87018 0.13676 0.15584 0.0
N2817 N 0.88765 0.11844 0.11039 0.0
C2818 C 0.8668 0.10556 0.12126 0.0
C2819 C 0.85729 0.11552 0.14583 0.0
C2820 C 0.32846 0.61455 0.64029 0.0
C2821 C 0.33857 0.60159 0.66254 0.0
C2822 C 0.33673 0.60753 0.61478 0.0
C2823 C 0.35484 0.58679 0.61049 0.0
H2824 H 0.31428 0.63034 0.64261 0.0
H2825 H 0.32835 0.6181 0.59821 0.0
S2826 S 0.38644 0.54601 0.66218 0.0
N2827 N 0.36759 0.56682 0.67865 0.0
N2828 N 0.38227 0.55323 0.63069 0.0
C2829 C 0.36481 0.57346 0.63254 0.0
C2830 C 0.35691 0.58098 0.65854 0.0
C2831 C 0.19549 0.58459 0.37197 0.0
C2832 C 0.18287 0.60573 0.35915 0.0
C2833 C 0.1858 0.57449 0.39593 0.0
C2834 C 0.16345 0.5855 0.40818 0.0
H2835 H 0.21257 0.57532 0.36308 0.0
H2836 H 0.19637 0.55849 0.40535 0.0
S2837 S 0.12347 0.64121 0.38286 0.0
N2838 N 0.14663 0.63703 0.36031 0.0
N2839 N 0.12919 0.61887 0.40587 0.0
C2840 C 0.15083 0.60677 0.39568 0.0
C2841 C 0.16032 0.61665 0.37104 0.0
C2842 C 0.36889 0.4338 0.89099 0.0
C2843 C 0.35659 0.42185 0.91274 0.0
C2844 C 0.36101 0.42784 0.86507 0.0
C2845 C 0.33993 0.41036 0.85989 0.0
H2846 H 0.38468 0.44787 0.89402 0.0
H2847 H 0.37104 0.43767 0.84895 0.0
S2848 S 0.30071 0.3744 0.91002 0.0
N2849 N 0.3222 0.39162 0.92738 0.0
N2850 N 0.30696 0.38126 0.87879 0.0
C2851 C 0.3274 0.39839 0.88147 0.0
C2852 C 0.33585 0.40391 0.90782 0.0
C2853 C 0.63503 0.69361 0.90628 0.0
C2854 C 0.65776 0.68059 0.91523 0.0
C2855 C 0.60985 0.68613 0.91524 0.0
C2856 C 0.6065 0.66586 0.93407 0.0
H2857 H 0.63669 0.7096 0.89222 0.0
H2858 H 0.59288 0.69676 0.90778 0.0
S2859 S 0.65978 0.62605 0.96432 0.0
N2860 N 0.67528 0.64641 0.94418 0.0
N2861 N 0.62811 0.63303 0.96134 0.0
C2862 C 0.62907 0.65284 0.9433 0.0
C2863 C 0.65463 0.66001 0.93379 0.0
C2864 C 0.57046 0.39643 0.18687 0.0
C2865 C 0.58105 0.40928 0.16463 0.0
C2866 C 0.58161 0.37294 0.19656 0.0
C2867 C 0.60346 0.36117 0.18408 0.0
H2868 H 0.55396 0.40503 0.19738 0.0
H2869 H 0.57257 0.36355 0.2135 0.0
S2870 S 0.63835 0.38676 0.12505 0.0
N2871 N 0.61484 0.4086 0.13063 0.0
N2872 N 0.63503 0.364 0.14812 0.0
C2873 C 0.61401 0.37367 0.16167 0.0
C2874 C 0.60303 0.39782 0.15216 0.0
C2875 C 0.90793 0.33449 0.40874 0.0
C2876 C 0.91224 0.35312 0.429 0.0
C2877 C 0.88234 0.32653 0.40155 0.0
C2878 C 0.8601 0.33746 0.41385 0.0
H2879 H 0.92452 0.32538 0.39881 0.0
H2880 H 0.87997 0.31189 0.38619 0.0
S2881 S 0.86055 0.38689 0.46802 0.0
N2882 N 0.89206 0.38194 0.46138 0.0
N2883 N 0.84403 0.36778 0.4475 0.0
C2884 C 0.86414 0.35635 0.43393 0.0
C2885 C 0.89017 0.36396 0.44162 0.0
C2886 C 0.90379 0.63899 0.69244 0.0
C2887 C 0.91613 0.66138 0.68189 0.0
C2888 C 0.9112 0.61358 0.68431 0.0
C2889 C 0.93176 0.60955 0.66589 0.0
H2890 H 0.88821 0.6411 0.70692 0.0
H2891 H 0.90111 0.59689 0.69303 0.0
S2892 S 0.97089 0.66167 0.63295 0.0
N2893 N 0.95007 0.67788 0.65203 0.0
N2894 N 0.96438 0.63014 0.63759 0.0
C2895 C 0.94443 0.63175 0.65543 0.0
C2896 C 0.9365 0.65763 0.66319 0.0
C2897 C 0.63015 0.36258 0.57821 0.0
C2898 C 0.60806 0.34952 0.58855 0.0
C2899 C 0.65575 0.35574 0.58627 0.0
C2900 C 0.66029 0.33508 0.60441 0.0
H2901 H 0.62762 0.37835 0.56402 0.0
H2902 H 0.6722 0.36637 0.57772 0.0
S2903 S 0.60906 0.29412 0.63659 0.0
N2904 N 0.59231 0.3148 0.61781 0.0
N2905 N 0.6405 0.30148 0.63213 0.0
C2906 C 0.63839 0.32165 0.61462 0.0
C2907 C 0.61228 0.32901 0.60692 0.0
C2908 C 0.90372 0.38056 0.82811 0.0
C2909 C 0.91519 0.35833 0.83988 0.0
C2910 C 0.9113 0.40609 0.83569 0.0
C2911 C 0.93117 0.41035 0.85478 0.0
H2912 H 0.88872 0.37824 0.81307 0.0
H2913 H 0.90197 0.42265 0.82595 0.0
S2914 S 0.96805 0.35865 0.8908 0.0
N2915 N 0.94764 0.34219 0.87149 0.0
N2916 N 0.9623 0.39014 0.88495 0.0
C2917 C 0.94298 0.38829 0.86646 0.0
C2918 C 0.93486 0.36232 0.85923 0.0
C2919 C 0.87036 0.66006 0.11468 0.0
C2920 C 0.85793 0.68199 0.10308 0.0
C2921 C 0.89497 0.65104 0.10558 0.0
C2922 C 0.90748 0.66289 0.08379 0.0
H2923 H 0.86103 0.64986 0.13098 0.0
H2924 H 0.90425 0.63461 0.1156 0.0
S2925 S 0.88286 0.72048 0.04602 0.0
N2926 N 0.85997 0.71526 0.06864 0.0
N2927 N 0.90566 0.69777 0.05098 0.0
C2928 C 0.89506 0.68457 0.07178 0.0
C2929 C 0.87045 0.69427 0.08157 0.0
C2930 C 0.61575 0.63968 0.33014 0.0
C2931 C 0.60255 0.66191 0.33987 0.0
C2932 C 0.60898 0.6143 0.33886 0.0
C2933 C 0.58827 0.61014 0.35709 0.0
H2934 H 0.63156 0.64191 0.31593 0.0
H2935 H 0.61967 0.59771 0.33071 0.0
S2936 S 0.54697 0.66189 0.38782 0.0
N2937 N 0.56763 0.67822 0.36863 0.0
N2938 N 0.55451 0.63045 0.38424 0.0
C2939 C 0.57474 0.6322 0.36671 0.0
C2940 C 0.58199 0.65808 0.35832 0.0
C2941 C 0.65274 0.94121 0.63102 0.0
C2942 C 0.6658 0.93142 0.6087 0.0
C2943 C 0.65987 0.93284 0.65646 0.0
C2944 C 0.68083 0.91492 0.66062 0.0
H2945 H 0.63676 0.95522 0.6288 0.0
H2946 H 0.64924 0.94104 0.67309 0.0
S2947 S 0.72211 0.88439 0.60868 0.0
N2948 N 0.70101 0.90307 0.59235 0.0
N2949 N 0.71479 0.88814 0.64021 0.0
C2950 C 0.69429 0.90531 0.63849 0.0
C2951 C 0.68666 0.91333 0.61255 0.0
loop_
_geom_bond_atom_site_label_1
_geom_bond_atom_site_label_2
_geom_bond_distance
_geom_bond_site_symmetry_2
_ccdc_geom_bond_type
Co0 O3 1.970 . S
Co0 N17 1.989 . S
Co0 O25 1.967 . S
Co0 O32 1.920 . S
Co1 O4 1.966 . S
Co1 N10 2.022 1_455 S
Co1 N18 1.987 1_455 S
Co1 O26 1.941 . S
C2 O3 1.258 . S
C2 O4 1.263 . S
O3 Co0 1.970 . S
O3 C2 1.258 . S
O4 Co1 1.966 . S
O4 C2 1.263 . S
C5 O6 1.235 . S
C5 O32 1.289 . S
O6 C5 1.235 . S
C7 C9 1.400 . S
C7 N10 1.351 . S
C7 C12 1.501 . S
C8 C9 1.387 . S
C8 N11 1.341 . S
C9 C7 1.400 . S
C9 C8 1.387 . S
N10 Co1 2.022 1_655 S
N10 C7 1.351 . S
N10 N11 1.365 . S
N11 C8 1.341 . S
N11 N10 1.365 . S
N11 H31 0.862 1_655 S
C12 C7 1.501 . S
C12 H13 0.961 . S
C12 H14 0.961 . S
C12 H15 0.960 . S
H13 C12 0.961 . S
H14 C12 0.961 . S
H15 C12 0.960 . S
C16 N17 1.342 . S
C16 C20 1.401 1_455 S
C16 C21 1.499 . S
N17 Co0 1.989 . S
N17 C16 1.342 . S
N17 N18 1.380 1_455 S
N18 Co1 1.987 1_655 S
N18 N17 1.380 1_655 S
N18 C19 1.356 . S
C19 N18 1.356 . S
C19 C20 1.396 . S
C19 C29 1.510 . S
C20 C16 1.401 1_655 S
C20 C19 1.396 . S
C21 C16 1.499 . S
C21 H22 0.959 . S
C21 H23 0.970 . S
C21 H24 0.961 . S
H22 C21 0.959 . S
H23 C21 0.970 . S
H24 C21 0.961 . S
O25 Co0 1.967 . S
O25 C33 1.258 . S
O26 Co1 1.941 . S
O26 C33 1.266 . S
H27 C29 0.959 . S
H28 C29 0.961 . S
C29 C19 1.510 . S
C29 H27 0.959 . S
C29 H28 0.961 . S
C29 H30 0.960 . S
H30 C29 0.960 . S
H31 N11 0.862 1_455 S
O32 Co0 1.920 . S
O32 C5 1.289 . S
C33 O25 1.258 . S
C33 O26 1.266 . S
Co34 O37 1.970 . S
Co34 N51 1.989 . S
Co34 O59 1.967 . S
Co34 O66 1.920 . S
Co35 O38 1.966 . S
Co35 N44 2.022 . S
Co35 N52 1.993 . S
Co35 O60 1.941 . S
C36 O37 1.258 . S
C36 O38 1.263 . S
O37 Co34 1.970 . S
O37 C36 1.258 . S
O38 Co35 1.966 . S
O38 C36 1.263 . S
C39 O40 1.235 . S
C39 O66 1.289 . S
O40 C39 1.235 . S
C41 C43 1.400 . S
C41 N44 1.351 . S
C41 C46 1.501 . S
C42 C43 1.387 . S
C42 N45 1.341 . S
C43 C41 1.400 . S
C43 C42 1.387 . S
N44 Co35 2.022 . S
N44 C41 1.351 . S
N44 N45 1.365 . S
N45 C42 1.341 . S
N45 N44 1.365 . S
N45 H65 0.862 . S
C46 C41 1.501 . S
C46 H47 0.961 . S
C46 H48 0.961 . S
C46 H49 0.960 . S
H47 C46 0.961 . S
H48 C46 0.961 . S
H49 C46 0.960 . S
C50 N51 1.342 . S
C50 C54 1.401 . S
C50 C55 1.499 . S
N51 Co34 1.989 . S
N51 C50 1.342 . S
N51 N52 1.388 . S
N52 Co35 1.993 . S
N52 N51 1.388 . S
N52 C53 1.346 . S
C53 N52 1.346 . S
C53 C54 1.396 . S
C53 C63 1.510 . S
C54 C50 1.401 . S
C54 C53 1.396 . S
C55 C50 1.499 . S
C55 H56 0.959 . S
C55 H57 0.960 . S
C55 H58 0.961 . S
H56 C55 0.959 . S
H57 C55 0.960 . S
H58 C55 0.961 . S
O59 Co34 1.967 . S
O59 C67 1.258 . S
O60 Co35 1.941 . S
O60 C67 1.266 . S
H61 C63 0.959 . S
H62 C63 0.961 . S
C63 C53 1.510 . S
C63 H61 0.959 . S
C63 H62 0.961 . S
C63 H64 0.960 . S
H64 C63 0.960 . S
H65 N45 0.862 . S
O66 Co34 1.920 . S
O66 C39 1.289 . S
C67 O59 1.258 . S
C67 O60 1.266 . S
Co68 O71 1.970 . S
Co68 N85 1.989 . S
Co68 O93 1.967 . S
Co68 O100 1.920 . S
Co69 O72 1.966 . S
Co69 N78 2.022 . S
Co69 N86 1.993 . S
Co69 O94 1.941 . S
C70 O71 1.258 . S
C70 O72 1.263 . S
O71 Co68 1.970 . S
O71 C70 1.258 . S
O72 Co69 1.966 . S
O72 C70 1.263 . S
C73 O74 1.235 . S
C73 O100 1.289 1_554 S
O74 C73 1.235 . S
C75 C77 1.400 . S
C75 N78 1.351 . S
C75 C80 1.501 . S
C76 C77 1.387 . S
C76 N79 1.341 . S
C77 C75 1.400 . S
C77 C76 1.387 . S
N78 Co69 2.022 . S
N78 C75 1.351 . S
N78 N79 1.365 . S
N79 C76 1.341 . S
N79 N78 1.365 . S
N79 H99 0.862 . S
C80 C75 1.501 . S
C80 H81 0.961 . S
C80 H82 0.961 . S
C80 H83 0.960 . S
H81 C80 0.961 . S
H82 C80 0.961 . S
H83 C80 0.960 . S
C84 N85 1.342 . S
C84 C88 1.401 . S
C84 C89 1.499 . S
N85 Co68 1.989 . S
N85 C84 1.342 . S
N85 N86 1.388 . S
N86 Co69 1.993 . S
N86 N85 1.388 . S
N86 C87 1.346 . S
C87 N86 1.346 . S
C87 C88 1.396 . S
C87 C97 1.510 . S
C88 C84 1.401 . S
C88 C87 1.396 . S
C89 C84 1.499 . S
C89 H90 0.959 . S
C89 H91 0.960 . S
C89 H92 0.961 . S
H90 C89 0.959 . S
H91 C89 0.960 . S
H92 C89 0.961 . S
O93 Co68 1.967 . S
O93 C101 1.258 . S
O94 Co69 1.941 . S
O94 C101 1.266 . S
H95 C97 0.959 . S
H96 C97 0.961 . S
C97 C87 1.510 . S
C97 H95 0.959 . S
C97 H96 0.961 . S
C97 H98 0.960 . S
H98 C97 0.960 . S
H99 N79 0.862 . S
O100 Co68 1.920 . S
O100 C73 1.289 1_556 S
C101 O93 1.258 . S
C101 O94 1.266 . S
Co102 O105 1.970 . S
Co102 N119 1.989 . S
Co102 O127 1.967 . S
Co102 O134 1.920 . S
Co103 O106 1.966 . S
Co103 N112 2.022 . S
Co103 N120 1.993 . S
Co103 O128 1.941 . S
C104 O105 1.258 . S
C104 O106 1.263 . S
O105 Co102 1.970 . S
O105 C104 1.258 . S
O106 Co103 1.966 . S
O106 C104 1.263 . S
C107 O108 1.235 . S
C107 O134 1.289 . S
O108 C107 1.235 . S
C109 C111 1.400 . S
C109 N112 1.351 . S
C109 C114 1.501 . S
C110 C111 1.387 . S
C110 N113 1.341 . S
C111 C109 1.400 . S
C111 C110 1.387 . S
N112 Co103 2.022 . S
N112 C109 1.351 . S
N112 N113 1.365 . S
N113 C110 1.341 . S
N113 N112 1.365 . S
N113 H133 0.862 . S
C114 C109 1.501 . S
C114 H115 0.961 . S
C114 H116 0.961 . S
C114 H117 0.960 . S
H115 C114 0.961 . S
H116 C114 0.961 . S
H117 C114 0.960 . S
C118 N119 1.342 . S
C118 C122 1.401 . S
C118 C123 1.499 . S
N119 Co102 1.989 . S
N119 C118 1.342 . S
N119 N120 1.388 . S
N120 Co103 1.993 . S
N120 N119 1.388 . S
N120 C121 1.346 . S
C121 N120 1.346 . S
C121 C122 1.396 . S
C121 C131 1.510 . S
C122 C118 1.401 . S
C122 C121 1.396 . S
C123 C118 1.499 . S
C123 H124 0.959 . S
C123 H125 0.960 . S
C123 H126 0.961 . S
H124 C123 0.959 . S
H125 C123 0.960 . S
H126 C123 0.961 . S
O127 Co102 1.967 . S
O127 C135 1.258 . S
O128 Co103 1.941 . S
O128 C135 1.266 . S
H129 C131 0.959 . S
H130 C131 0.961 . S
C131 C121 1.510 . S
C131 H129 0.959 . S
C131 H130 0.961 . S
C131 H132 0.960 . S
H132 C131 0.960 . S
H133 N113 0.862 . S
O134 Co102 1.920 . S
O134 C107 1.289 . S
C135 O127 1.258 . S
C135 O128 1.266 . S
Co136 O139 1.970 . S
Co136 N153 1.989 . S
Co136 O161 1.967 . S
Co136 O168 1.920 . S
Co137 O140 1.966 . S
Co137 N146 2.022 1_455 S
Co137 N154 1.987 1_455 S
Co137 O162 1.941 . S
C138 O139 1.258 . S
C138 O140 1.263 . S
O139 Co136 1.970 . S
O139 C138 1.258 . S
O140 Co137 1.966 . S
O140 C138 1.263 . S
C141 O142 1.235 . S
C141 O168 1.289 1_556 S
O142 C141 1.235 . S
C143 C145 1.400 . S
C143 N146 1.351 . S
C143 C148 1.501 . S
C144 C145 1.387 . S
C144 N147 1.341 . S
C145 C143 1.400 . S
C145 C144 1.387 . S
N146 Co137 2.022 1_655 S
N146 C143 1.351 . S
N146 N147 1.365 . S
N147 C144 1.341 . S
N147 N146 1.365 . S
N147 H167 0.862 1_655 S
C148 C143 1.501 . S
C148 H149 0.961 . S
C148 H150 0.961 . S
C148 H151 0.960 . S
H149 C148 0.961 . S
H150 C148 0.961 . S
H151 C148 0.960 . S
C152 N153 1.342 . S
C152 C156 1.401 1_455 S
C152 C157 1.499 . S
N153 Co136 1.989 . S
N153 C152 1.342 . S
N153 N154 1.380 1_455 S
N154 Co137 1.987 1_655 S
N154 N153 1.380 1_655 S
N154 C155 1.356 . S
C155 N154 1.356 . S
C155 C156 1.396 . S
C155 C165 1.510 . S
C156 C152 1.401 1_655 S
C156 C155 1.396 . S
C157 C152 1.499 . S
C157 H158 0.959 . S
C157 H159 0.970 . S
C157 H160 0.961 . S
H158 C157 0.959 . S
H159 C157 0.970 . S
H160 C157 0.961 . S
O161 Co136 1.967 . S
O161 C169 1.258 . S
O162 Co137 1.941 . S
O162 C169 1.266 . S
H163 C165 0.959 . S
H164 C165 0.961 . S
C165 C155 1.510 . S
C165 H163 0.959 . S
C165 H164 0.961 . S
C165 H166 0.960 . S
H166 C165 0.960 . S
H167 N147 0.862 1_455 S
O168 Co136 1.920 . S
O168 C141 1.289 1_554 S
C169 O161 1.258 . S
C169 O162 1.266 . S
Co170 O173 1.970 . S
Co170 N187 1.989 . S
Co170 O195 1.967 . S
Co170 O202 1.920 . S
Co171 O174 1.966 . S
Co171 N180 2.022 . S
Co171 N188 1.993 . S
Co171 O196 1.941 . S
C172 O173 1.258 . S
C172 O174 1.263 . S
O173 Co170 1.970 . S
O173 C172 1.258 . S
O174 Co171 1.966 . S
O174 C172 1.263 . S
C175 O176 1.235 . S
C175 O202 1.289 . S
O176 C175 1.235 . S
C177 C179 1.400 . S
C177 N180 1.351 . S
C177 C182 1.501 . S
C178 C179 1.387 . S
C178 N181 1.341 . S
C179 C177 1.400 . S
C179 C178 1.387 . S
N180 Co171 2.022 . S
N180 C177 1.351 . S
N180 N181 1.365 . S
N181 C178 1.341 . S
N181 N180 1.365 . S
N181 H201 0.862 . S
C182 C177 1.501 . S
C182 H183 0.961 . S
C182 H184 0.961 . S
C182 H185 0.960 . S
H183 C182 0.961 . S
H184 C182 0.961 . S
H185 C182 0.960 . S
C186 N187 1.342 . S
C186 C190 1.401 . S
C186 C191 1.499 . S
N187 Co170 1.989 . S
N187 C186 1.342 . S
N187 N188 1.388 . S
N188 Co171 1.993 . S
N188 N187 1.388 . S
N188 C189 1.346 . S
C189 N188 1.346 . S
C189 C190 1.396 . S
C189 C199 1.510 . S
C190 C186 1.401 . S
C190 C189 1.396 . S
C191 C186 1.499 . S
C191 H192 0.959 . S
C191 H193 0.960 . S
C191 H194 0.961 . S
H192 C191 0.959 . S
H193 C191 0.960 . S
H194 C191 0.961 . S
O195 Co170 1.967 . S
O195 C203 1.258 . S
O196 Co171 1.941 . S
O196 C203 1.266 . S
H197 C199 0.959 . S
H198 C199 0.961 . S
C199 C189 1.510 . S
C199 H197 0.959 . S
C199 H198 0.961 . S
C199 H200 0.960 . S
H200 C199 0.960 . S
H201 N181 0.862 . S
O202 Co170 1.920 . S
O202 C175 1.289 . S
C203 O195 1.258 . S
C203 O196 1.266 . S
Co204 O207 1.970 . S
Co204 N221 1.989 . S
Co204 O229 1.967 . S
Co204 O236 1.920 . S
Co205 O208 1.966 . S
Co205 N214 2.022 . S
Co205 N222 1.993 . S
Co205 O230 1.941 . S
C206 O207 1.258 . S
C206 O208 1.263 . S
O207 Co204 1.970 . S
O207 C206 1.258 . S
O208 Co205 1.966 . S
O208 C206 1.263 . S
C209 O210 1.235 . S
C209 O236 1.289 . S
O210 C209 1.235 . S
C211 C213 1.400 . S
C211 N214 1.351 . S
C211 C216 1.501 . S
C212 C213 1.387 . S
C212 N215 1.341 . S
C213 C211 1.400 . S
C213 C212 1.387 . S
N214 Co205 2.022 . S
N214 C211 1.351 . S
N214 N215 1.365 . S
N215 C212 1.341 . S
N215 N214 1.365 . S
N215 H235 0.862 . S
C216 C211 1.501 . S
C216 H217 0.961 . S
C216 H218 0.961 . S
C216 H219 0.960 . S
H217 C216 0.961 . S
H218 C216 0.961 . S
H219 C216 0.960 . S
C220 N221 1.342 . S
C220 C224 1.401 . S
C220 C225 1.499 . S
N221 Co204 1.989 . S
N221 C220 1.342 . S
N221 N222 1.388 . S
N222 Co205 1.993 . S
N222 N221 1.388 . S
N222 C223 1.346 . S
C223 N222 1.346 . S
C223 C224 1.396 . S
C223 C233 1.510 . S
C224 C220 1.401 . S
C224 C223 1.396 . S
C225 C220 1.499 . S
C225 H226 0.959 . S
C225 H227 0.960 . S
C225 H228 0.961 . S
H226 C225 0.959 . S
H227 C225 0.960 . S
H228 C225 0.961 . S
O229 Co204 1.967 . S
O229 C237 1.258 . S
O230 Co205 1.941 . S
O230 C237 1.266 . S
H231 C233 0.959 . S
H232 C233 0.961 . S
C233 C223 1.510 . S
C233 H231 0.959 . S
C233 H232 0.961 . S
C233 H234 0.960 . S
H234 C233 0.960 . S
H235 N215 0.862 . S
O236 Co204 1.920 . S
O236 C209 1.289 . S
C237 O229 1.258 . S
C237 O230 1.266 . S
Co238 O241 1.970 . S
Co238 N255 1.989 . S
Co238 O263 1.967 . S
Co238 O270 1.920 . S
Co239 O242 1.966 . S
Co239 N248 2.022 . S
Co239 N256 1.993 . S
Co239 O264 1.941 . S
C240 O241 1.258 . S
C240 O242 1.263 . S
O241 Co238 1.970 . S
O241 C240 1.258 . S
O242 Co239 1.966 . S
O242 C240 1.263 . S
C243 O244 1.235 . S
C243 O270 1.289 . S
O244 C243 1.235 . S
C245 C247 1.400 . S
C245 N248 1.351 . S
C245 C250 1.501 . S
C246 C247 1.387 . S
C246 N249 1.341 . S
C247 C245 1.400 . S
C247 C246 1.387 . S
N248 Co239 2.022 . S
N248 C245 1.351 . S
N248 N249 1.365 . S
N249 C246 1.341 . S
N249 N248 1.365 . S
N249 H269 0.862 . S
C250 C245 1.501 . S
C250 H251 0.961 . S
C250 H252 0.961 . S
C250 H253 0.960 . S
H251 C250 0.961 . S
H252 C250 0.961 . S
H253 C250 0.960 . S
C254 N255 1.342 . S
C254 C258 1.401 . S
C254 C259 1.499 . S
N255 Co238 1.989 . S
N255 C254 1.342 . S
N255 N256 1.388 . S
N256 Co239 1.993 . S
N256 N255 1.388 . S
N256 C257 1.346 . S
C257 N256 1.346 . S
C257 C258 1.396 . S
C257 C267 1.510 . S
C258 C254 1.401 . S
C258 C257 1.396 . S
C259 C254 1.499 . S
C259 H260 0.959 . S
C259 H261 0.960 . S
C259 H262 0.961 . S
H260 C259 0.959 . S
H261 C259 0.960 . S
H262 C259 0.961 . S
O263 Co238 1.967 . S
O263 C271 1.258 . S
O264 Co239 1.941 . S
O264 C271 1.266 . S
H265 C267 0.959 . S
H266 C267 0.961 . S
C267 C257 1.510 . S
C267 H265 0.959 . S
C267 H266 0.961 . S
C267 H268 0.960 . S
H268 C267 0.960 . S
H269 N249 0.862 . S
O270 Co238 1.920 . S
O270 C243 1.289 . S
C271 O263 1.258 . S
C271 O264 1.266 . S
Co272 O275 1.970 . S
Co272 N289 1.989 . S
Co272 O297 1.967 . S
Co272 O304 1.920 . S
Co273 O276 1.966 . S
Co273 N282 2.022 1_545 S
Co273 N290 1.987 1_545 S
Co273 O298 1.941 . S
C274 O275 1.258 . S
C274 O276 1.263 . S
O275 Co272 1.970 . S
O275 C274 1.258 . S
O276 Co273 1.966 . S
O276 C274 1.263 . S
C277 O278 1.235 . S
C277 O304 1.289 . S
O278 C277 1.235 . S
C279 C281 1.400 . S
C279 N282 1.351 . S
C279 C284 1.501 . S
C280 C281 1.387 . S
C280 N283 1.341 . S
C281 C279 1.400 . S
C281 C280 1.387 . S
N282 Co273 2.022 1_565 S
N282 C279 1.351 . S
N282 N283 1.365 . S
N283 C280 1.341 . S
N283 N282 1.365 . S
N283 H303 0.862 1_565 S
C284 C279 1.501 . S
C284 H285 0.961 . S
C284 H286 0.961 . S
C284 H287 0.960 . S
H285 C284 0.961 . S
H286 C284 0.961 . S
H287 C284 0.960 . S
C288 N289 1.342 . S
C288 C292 1.401 1_545 S
C288 C293 1.499 . S
N289 Co272 1.989 . S
N289 C288 1.342 . S
N289 N290 1.380 1_545 S
N290 Co273 1.987 1_565 S
N290 N289 1.380 1_565 S
N290 C291 1.356 . S
C291 N290 1.356 . S
C291 C292 1.396 . S
C291 C301 1.510 . S
C292 C288 1.401 1_565 S
C292 C291 1.396 . S
C293 C288 1.499 . S
C293 H294 0.959 . S
C293 H295 0.970 . S
C293 H296 0.961 . S
H294 C293 0.959 . S
H295 C293 0.970 . S
H296 C293 0.961 . S
O297 Co272 1.967 . S
O297 C305 1.258 . S
O298 Co273 1.941 . S
O298 C305 1.266 . S
H299 C301 0.959 . S
H300 C301 0.961 . S
C301 C291 1.510 . S
C301 H299 0.959 . S
C301 H300 0.961 . S
C301 H302 0.960 . S
H302 C301 0.960 . S
H303 N283 0.862 1_545 S
O304 Co272 1.920 . S
O304 C277 1.289 . S
C305 O297 1.258 . S
C305 O298 1.266 . S
Co306 O309 1.970 . S
Co306 N323 1.989 . S
Co306 O331 1.967 . S
Co306 O338 1.920 . S
Co307 O310 1.966 . S
Co307 N316 2.022 . S
Co307 N324 1.993 . S
Co307 O332 1.941 . S
C308 O309 1.258 . S
C308 O310 1.263 . S
O309 Co306 1.970 . S
O309 C308 1.258 . S
O310 Co307 1.966 . S
O310 C308 1.263 . S
C311 O312 1.235 . S
C311 O338 1.289 . S
O312 C311 1.235 . S
C313 C315 1.400 . S
C313 N316 1.351 . S
C313 C318 1.501 . S
C314 C315 1.387 . S
C314 N317 1.341 . S
C315 C313 1.400 . S
C315 C314 1.387 . S
N316 Co307 2.022 . S
N316 C313 1.351 . S
N316 N317 1.365 . S
N317 C314 1.341 . S
N317 N316 1.365 . S
N317 H337 0.862 . S
C318 C313 1.501 . S
C318 H319 0.961 . S
C318 H320 0.961 . S
C318 H321 0.960 . S
H319 C318 0.961 . S
H320 C318 0.961 . S
H321 C318 0.960 . S
C322 N323 1.342 . S
C322 C326 1.401 . S
C322 C327 1.499 . S
N323 Co306 1.989 . S
N323 C322 1.342 . S
N323 N324 1.388 . S
N324 Co307 1.993 . S
N324 N323 1.388 . S
N324 C325 1.346 . S
C325 N324 1.346 . S
C325 C326 1.396 . S
C325 C335 1.510 . S
C326 C322 1.401 . S
C326 C325 1.396 . S
C327 C322 1.499 . S
C327 H328 0.959 . S
C327 H329 0.960 . S
C327 H330 0.961 . S
H328 C327 0.959 . S
H329 C327 0.960 . S
H330 C327 0.961 . S
O331 Co306 1.967 . S
O331 C339 1.258 . S
O332 Co307 1.941 . S
O332 C339 1.266 . S
H333 C335 0.959 . S
H334 C335 0.961 . S
C335 C325 1.510 . S
C335 H333 0.959 . S
C335 H334 0.961 . S
C335 H336 0.960 . S
H336 C335 0.960 . S
H337 N317 0.862 . S
O338 Co306 1.920 . S
O338 C311 1.289 . S
C339 O331 1.258 . S
C339 O332 1.266 . S
Co340 O343 1.970 . S
Co340 N357 1.989 . S
Co340 O365 1.967 . S
Co340 O372 1.920 . S
Co341 O344 1.966 . S
Co341 N350 2.022 1_565 S
Co341 N358 1.987 1_565 S
Co341 O366 1.941 . S
C342 O343 1.258 . S
C342 O344 1.263 . S
O343 Co340 1.970 . S
O343 C342 1.258 . S
O344 Co341 1.966 . S
O344 C342 1.263 . S
C345 O346 1.235 . S
C345 O372 1.289 1_655 S
O346 C345 1.235 . S
C347 C349 1.400 . S
C347 N350 1.351 . S
C347 C352 1.501 . S
C348 C349 1.387 . S
C348 N351 1.341 . S
C349 C347 1.400 . S
C349 C348 1.387 . S
N350 Co341 2.022 1_545 S
N350 C347 1.351 . S
N350 N351 1.365 . S
N351 C348 1.341 . S
N351 N350 1.365 . S
N351 H371 0.862 1_545 S
C352 C347 1.501 . S
C352 H353 0.961 . S
C352 H354 0.961 . S
C352 H355 0.960 . S
H353 C352 0.961 . S
H354 C352 0.961 . S
H355 C352 0.960 . S
C356 N357 1.342 . S
C356 C360 1.401 1_565 S
C356 C361 1.499 . S
N357 Co340 1.989 . S
N357 C356 1.342 . S
N357 N358 1.380 1_565 S
N358 Co341 1.987 1_545 S
N358 N357 1.380 1_545 S
N358 C359 1.356 . S
C359 N358 1.356 . S
C359 C360 1.396 . S
C359 C369 1.510 . S
C360 C356 1.401 1_545 S
C360 C359 1.396 . S
C361 C356 1.499 . S
C361 H362 0.959 . S
C361 H363 0.971 . S
C361 H364 0.961 . S
H362 C361 0.959 . S
H363 C361 0.971 . S
H364 C361 0.961 . S
O365 Co340 1.967 . S
O365 C373 1.258 . S
O366 Co341 1.941 . S
O366 C373 1.266 . S
H367 C369 0.959 . S
H368 C369 0.961 . S
C369 C359 1.510 . S
C369 H367 0.959 . S
C369 H368 0.961 . S
C369 H370 0.960 . S
H370 C369 0.960 . S
H371 N351 0.862 1_565 S
O372 Co340 1.920 . S
O372 C345 1.289 1_455 S
C373 O365 1.258 . S
C373 O366 1.266 . S
Co374 O377 1.970 . S
Co374 N391 1.989 . S
Co374 O399 1.967 . S
Co374 O406 1.920 . S
Co375 O378 1.966 . S
Co375 N384 2.022 . S
Co375 N392 1.993 . S
Co375 O400 1.941 . S
C376 O377 1.258 . S
C376 O378 1.263 . S
O377 Co374 1.970 . S
O377 C376 1.258 . S
O378 Co375 1.966 . S
O378 C376 1.263 . S
C379 O380 1.235 . S
C379 O406 1.289 . S
O380 C379 1.235 . S
C381 C383 1.400 . S
C381 N384 1.351 . S
C381 C386 1.501 . S
C382 C383 1.387 . S
C382 N385 1.341 . S
C383 C381 1.400 . S
C383 C382 1.387 . S
N384 Co375 2.022 . S
N384 C381 1.351 . S
N384 N385 1.365 . S
N385 C382 1.341 . S
N385 N384 1.365 . S
N385 H405 0.862 . S
C386 C381 1.501 . S
C386 H387 0.961 . S
C386 H388 0.961 . S
C386 H389 0.960 . S
H387 C386 0.961 . S
H388 C386 0.961 . S
H389 C386 0.960 . S
C390 N391 1.342 . S
C390 C394 1.401 . S
C390 C395 1.499 . S
N391 Co374 1.989 . S
N391 C390 1.342 . S
N391 N392 1.388 . S
N392 Co375 1.993 . S
N392 N391 1.388 . S
N392 C393 1.346 . S
C393 N392 1.346 . S
C393 C394 1.396 . S
C393 C403 1.510 . S
C394 C390 1.401 . S
C394 C393 1.396 . S
C395 C390 1.499 . S
C395 H396 0.959 . S
C395 H397 0.960 . S
C395 H398 0.961 . S
H396 C395 0.959 . S
H397 C395 0.960 . S
H398 C395 0.961 . S
O399 Co374 1.967 . S
O399 C407 1.258 . S
O400 Co375 1.941 . S
O400 C407 1.266 . S
H401 C403 0.959 . S
H402 C403 0.961 . S
C403 C393 1.510 . S
C403 H401 0.959 . S
C403 H402 0.961 . S
C403 H404 0.960 . S
H404 C403 0.960 . S
H405 N385 0.862 . S
O406 Co374 1.920 . S
O406 C379 1.289 . S
C407 O399 1.258 . S
C407 O400 1.266 . S
Co408 O411 1.970 . S
Co408 N425 1.989 . S
Co408 O433 1.967 . S
Co408 O440 1.920 . S
Co409 O412 1.966 . S
Co409 N418 2.022 1_565 S
Co409 N426 1.987 1_565 S
Co409 O434 1.941 . S
C410 O411 1.258 . S
C410 O412 1.263 . S
O411 Co408 1.970 . S
O411 C410 1.258 . S
O412 Co409 1.966 . S
O412 C410 1.263 . S
C413 O414 1.235 . S
C413 O440 1.289 . S
O414 C413 1.235 . S
C415 C417 1.400 . S
C415 N418 1.351 . S
C415 C420 1.501 . S
C416 C417 1.387 . S
C416 N419 1.341 . S
C417 C415 1.400 . S
C417 C416 1.387 . S
N418 Co409 2.022 1_545 S
N418 C415 1.351 . S
N418 N419 1.365 . S
N419 C416 1.341 . S
N419 N418 1.365 . S
N419 H439 0.862 1_545 S
C420 C415 1.501 . S
C420 H421 0.961 . S
C420 H422 0.961 . S
C420 H423 0.960 . S
H421 C420 0.961 . S
H422 C420 0.961 . S
H423 C420 0.960 . S
C424 N425 1.342 . S
C424 C428 1.401 1_565 S
C424 C429 1.499 . S
N425 Co408 1.989 . S
N425 C424 1.342 . S
N425 N426 1.380 1_565 S
N426 Co409 1.987 1_545 S
N426 N425 1.380 1_545 S
N426 C427 1.356 . S
C427 N426 1.356 . S
C427 C428 1.396 . S
C427 C437 1.510 . S
C428 C424 1.401 1_545 S
C428 C427 1.396 . S
C429 C424 1.499 . S
C429 H430 0.959 . S
C429 H431 0.970 . S
C429 H432 0.961 . S
H430 C429 0.959 . S
H431 C429 0.970 . S
H432 C429 0.961 . S
O433 Co408 1.967 . S
O433 C441 1.258 . S
O434 Co409 1.941 . S
O434 C441 1.266 . S
H435 C437 0.959 . S
H436 C437 0.961 . S
C437 C427 1.510 . S
C437 H435 0.959 . S
C437 H436 0.961 . S
C437 H438 0.960 . S
H438 C437 0.960 . S
H439 N419 0.862 1_565 S
O440 Co408 1.920 . S
O440 C413 1.289 . S
C441 O433 1.258 . S
C441 O434 1.266 . S
Co442 O445 1.970 . S
Co442 N459 1.989 . S
Co442 O467 1.967 . S
Co442 O474 1.920 . S
Co443 O446 1.966 . S
Co443 N452 2.022 . S
Co443 N460 1.993 . S
Co443 O468 1.941 . S
C444 O445 1.258 . S
C444 O446 1.263 . S
O445 Co442 1.970 . S
O445 C444 1.258 . S
O446 Co443 1.966 . S
O446 C444 1.263 . S
C447 O448 1.235 . S
C447 O474 1.289 . S
O448 C447 1.235 . S
C449 C451 1.400 . S
C449 N452 1.351 . S
C449 C454 1.501 . S
C450 C451 1.387 . S
C450 N453 1.341 . S
C451 C449 1.400 . S
C451 C450 1.387 . S
N452 Co443 2.022 . S
N452 C449 1.351 . S
N452 N453 1.365 . S
N453 C450 1.341 . S
N453 N452 1.365 . S
N453 H473 0.862 . S
C454 C449 1.501 . S
C454 H455 0.961 . S
C454 H456 0.961 . S
C454 H457 0.960 . S
H455 C454 0.961 . S
H456 C454 0.961 . S
H457 C454 0.960 . S
C458 N459 1.342 . S
C458 C462 1.401 . S
C458 C463 1.499 . S
N459 Co442 1.989 . S
N459 C458 1.342 . S
N459 N460 1.388 . S
N460 Co443 1.993 . S
N460 N459 1.388 . S
N460 C461 1.346 . S
C461 N460 1.346 . S
C461 C462 1.396 . S
C461 C471 1.510 . S
C462 C458 1.401 . S
C462 C461 1.396 . S
C463 C458 1.499 . S
C463 H464 0.959 . S
C463 H465 0.960 . S
C463 H466 0.961 . S
H464 C463 0.959 . S
H465 C463 0.960 . S
H466 C463 0.961 . S
O467 Co442 1.967 . S
O467 C475 1.258 . S
O468 Co443 1.941 . S
O468 C475 1.266 . S
H469 C471 0.959 . S
H470 C471 0.961 . S
C471 C461 1.510 . S
C471 H469 0.959 . S
C471 H470 0.961 . S
C471 H472 0.960 . S
H472 C471 0.960 . S
H473 N453 0.862 . S
O474 Co442 1.920 . S
O474 C447 1.289 . S
C475 O467 1.258 . S
C475 O468 1.266 . S
Co476 O479 1.970 . S
Co476 N493 1.989 . S
Co476 O501 1.967 . S
Co476 O508 1.920 . S
Co477 O480 1.966 . S
Co477 N486 2.022 1_545 S
Co477 N494 1.987 1_545 S
Co477 O502 1.941 . S
C478 O479 1.258 . S
C478 O480 1.263 . S
O479 Co476 1.970 . S
O479 C478 1.258 . S
O480 Co477 1.966 . S
O480 C478 1.263 . S
C481 O482 1.235 . S
C481 O508 1.289 1_655 S
O482 C481 1.235 . S
C483 C485 1.400 . S
C483 N486 1.351 . S
C483 C488 1.501 . S
C484 C485 1.387 . S
C484 N487 1.341 . S
C485 C483 1.400 . S
C485 C484 1.387 . S
N486 Co477 2.022 1_565 S
N486 C483 1.351 . S
N486 N487 1.365 . S
N487 C484 1.341 . S
N487 N486 1.365 . S
N487 H507 0.862 1_565 S
C488 C483 1.501 . S
C488 H489 0.961 . S
C488 H490 0.961 . S
C488 H491 0.960 . S
H489 C488 0.961 . S
H490 C488 0.961 . S
H491 C488 0.960 . S
C492 N493 1.342 . S
C492 C496 1.401 1_545 S
C492 C497 1.499 . S
N493 Co476 1.989 . S
N493 C492 1.342 . S
N493 N494 1.380 1_545 S
N494 Co477 1.987 1_565 S
N494 N493 1.380 1_565 S
N494 C495 1.356 . S
C495 N494 1.356 . S
C495 C496 1.396 . S
C495 C505 1.510 . S
C496 C492 1.401 1_565 S
C496 C495 1.396 . S
C497 C492 1.499 . S
C497 H498 0.959 . S
C497 H499 0.970 . S
C497 H500 0.961 . S
H498 C497 0.959 . S
H499 C497 0.970 . S
H500 C497 0.961 . S
O501 Co476 1.967 . S
O501 C509 1.258 . S
O502 Co477 1.941 . S
O502 C509 1.266 . S
H503 C505 0.959 . S
H504 C505 0.961 . S
C505 C495 1.510 . S
C505 H503 0.959 . S
C505 H504 0.961 . S
C505 H506 0.960 . S
H506 C505 0.960 . S
H507 N487 0.862 1_545 S
O508 Co476 1.920 . S
O508 C481 1.289 1_455 S
C509 O501 1.258 . S
C509 O502 1.266 . S
Co510 O513 1.970 . S
Co510 N527 1.989 . S
Co510 O535 1.967 . S
Co510 O542 1.920 . S
Co511 O514 1.966 . S
Co511 N520 2.022 . S
Co511 N528 1.993 . S
Co511 O536 1.941 . S
C512 O513 1.258 . S
C512 O514 1.263 . S
O513 Co510 1.970 . S
O513 C512 1.258 . S
O514 Co511 1.966 . S
O514 C512 1.263 . S
C515 O516 1.235 . S
C515 O542 1.289 . S
O516 C515 1.235 . S
C517 C519 1.400 . S
C517 N520 1.351 . S
C517 C522 1.501 . S
C518 C519 1.387 . S
C518 N521 1.341 . S
C519 C517 1.400 . S
C519 C518 1.387 . S
N520 Co511 2.022 . S
N520 C517 1.351 . S
N520 N521 1.365 . S
N521 C518 1.341 . S
N521 N520 1.365 . S
N521 H541 0.862 . S
C522 C517 1.501 . S
C522 H523 0.961 . S
C522 H524 0.961 . S
C522 H525 0.960 . S
H523 C522 0.961 . S
H524 C522 0.961 . S
H525 C522 0.960 . S
C526 N527 1.342 . S
C526 C530 1.401 . S
C526 C531 1.499 . S
N527 Co510 1.989 . S
N527 C526 1.342 . S
N527 N528 1.388 . S
N528 Co511 1.993 . S
N528 N527 1.388 . S
N528 C529 1.346 . S
C529 N528 1.346 . S
C529 C530 1.396 . S
C529 C539 1.510 . S
C530 C526 1.401 . S
C530 C529 1.396 . S
C531 C526 1.499 . S
C531 H532 0.959 . S
C531 H533 0.960 . S
C531 H534 0.961 . S
H532 C531 0.959 . S
H533 C531 0.960 . S
H534 C531 0.961 . S
O535 Co510 1.967 . S
O535 C543 1.258 . S
O536 Co511 1.941 . S
O536 C543 1.266 . S
H537 C539 0.959 . S
H538 C539 0.961 . S
C539 C529 1.510 . S
C539 H537 0.959 . S
C539 H538 0.961 . S
C539 H540 0.960 . S
H540 C539 0.960 . S
H541 N521 0.862 . S
O542 Co510 1.920 . S
O542 C515 1.289 . S
C543 O535 1.258 . S
C543 O536 1.266 . S
Co544 O547 1.970 . S
Co544 N561 1.989 . S
Co544 O569 1.967 . S
Co544 O576 1.920 . S
Co545 O548 1.966 . S
Co545 N554 2.022 1_554 S
Co545 N562 1.987 1_554 S
Co545 O570 1.941 . S
C546 O547 1.258 . S
C546 O548 1.263 . S
O547 Co544 1.970 . S
O547 C546 1.258 . S
O548 Co545 1.966 . S
O548 C546 1.263 . S
C549 O550 1.235 . S
C549 O576 1.289 . S
O550 C549 1.235 . S
C551 C553 1.400 . S
C551 N554 1.351 . S
C551 C556 1.501 . S
C552 C553 1.387 . S
C552 N555 1.341 . S
C553 C551 1.400 . S
C553 C552 1.387 . S
N554 Co545 2.022 1_556 S
N554 C551 1.351 . S
N554 N555 1.365 . S
N555 C552 1.341 . S
N555 N554 1.365 . S
N555 H575 0.862 1_556 S
C556 C551 1.501 . S
C556 H557 0.961 . S
C556 H558 0.961 . S
C556 H559 0.960 . S
H557 C556 0.961 . S
H558 C556 0.961 . S
H559 C556 0.960 . S
C560 N561 1.342 . S
C560 C564 1.401 1_554 S
C560 C565 1.499 . S
N561 Co544 1.989 . S
N561 C560 1.342 . S
N561 N562 1.380 1_554 S
N562 Co545 1.987 1_556 S
N562 N561 1.380 1_556 S
N562 C563 1.356 . S
C563 N562 1.356 . S
C563 C564 1.396 . S
C563 C573 1.510 . S
C564 C560 1.401 1_556 S
C564 C563 1.396 . S
C565 C560 1.499 . S
C565 H566 0.959 . S
C565 H567 0.970 . S
C565 H568 0.961 . S
H566 C565 0.959 . S
H567 C565 0.970 . S
H568 C565 0.961 . S
O569 Co544 1.967 . S
O569 C577 1.258 . S
O570 Co545 1.941 . S
O570 C577 1.266 . S
H571 C573 0.959 . S
H572 C573 0.961 . S
C573 C563 1.510 . S
C573 H571 0.959 . S
C573 H572 0.961 . S
C573 H574 0.960 . S
H574 C573 0.960 . S
H575 N555 0.862 1_554 S
O576 Co544 1.920 . S
O576 C549 1.289 . S
C577 O569 1.258 . S
C577 O570 1.266 . S
Co578 O581 1.970 . S
Co578 N595 1.989 . S
Co578 O603 1.967 . S
Co578 O610 1.920 . S
Co579 O582 1.966 . S
Co579 N588 2.022 1_556 S
Co579 N596 1.987 1_556 S
Co579 O604 1.941 . S
C580 O581 1.258 . S
C580 O582 1.263 . S
O581 Co578 1.970 . S
O581 C580 1.258 . S
O582 Co579 1.966 . S
O582 C580 1.263 . S
C583 O584 1.235 . S
C583 O610 1.289 1_565 S
O584 C583 1.235 . S
C585 C587 1.400 . S
C585 N588 1.351 . S
C585 C590 1.501 . S
C586 C587 1.387 . S
C586 N589 1.341 . S
C587 C585 1.400 . S
C587 C586 1.387 . S
N588 Co579 2.022 1_554 S
N588 C585 1.351 . S
N588 N589 1.365 . S
N589 C586 1.341 . S
N589 N588 1.365 . S
N589 H609 0.862 1_554 S
C590 C585 1.501 . S
C590 H591 0.961 . S
C590 H592 0.961 . S
C590 H593 0.960 . S
H591 C590 0.961 . S
H592 C590 0.961 . S
H593 C590 0.960 . S
C594 N595 1.342 . S
C594 C598 1.401 1_556 S
C594 C599 1.499 . S
N595 Co578 1.989 . S
N595 C594 1.342 . S
N595 N596 1.380 1_556 S
N596 Co579 1.987 1_554 S
N596 N595 1.380 1_554 S
N596 C597 1.356 . S
C597 N596 1.356 . S
C597 C598 1.396 . S
C597 C607 1.510 . S
C598 C594 1.401 1_554 S
C598 C597 1.396 . S
C599 C594 1.499 . S
C599 H600 0.959 . S
C599 H601 0.971 . S
C599 H602 0.961 . S
H600 C599 0.959 . S
H601 C599 0.971 . S
H602 C599 0.961 . S
O603 Co578 1.967 . S
O603 C611 1.258 . S
O604 Co579 1.941 . S
O604 C611 1.266 . S
H605 C607 0.959 . S
H606 C607 0.961 . S
C607 C597 1.510 . S
C607 H605 0.959 . S
C607 H606 0.961 . S
C607 H608 0.960 . S
H608 C607 0.960 . S
H609 N589 0.862 1_556 S
O610 Co578 1.920 . S
O610 C583 1.289 1_545 S
C611 O603 1.258 . S
C611 O604 1.266 . S
Co612 O615 1.970 . S
Co612 N629 1.989 . S
Co612 O637 1.967 . S
Co612 O644 1.920 . S
Co613 O616 1.966 . S
Co613 N622 2.022 . S
Co613 N630 1.993 . S
Co613 O638 1.941 . S
C614 O615 1.258 . S
C614 O616 1.263 . S
O615 Co612 1.970 . S
O615 C614 1.258 . S
O616 Co613 1.966 . S
O616 C614 1.263 . S
C617 O618 1.235 . S
C617 O644 1.289 . S
O618 C617 1.235 . S
C619 C621 1.400 . S
C619 N622 1.351 . S
C619 C624 1.501 . S
C620 C621 1.387 . S
C620 N623 1.341 . S
C621 C619 1.400 . S
C621 C620 1.387 . S
N622 Co613 2.022 . S
N622 C619 1.351 . S
N622 N623 1.365 . S
N623 C620 1.341 . S
N623 N622 1.365 . S
N623 H643 0.862 . S
C624 C619 1.501 . S
C624 H625 0.961 . S
C624 H626 0.961 . S
C624 H627 0.960 . S
H625 C624 0.961 . S
H626 C624 0.961 . S
H627 C624 0.960 . S
C628 N629 1.342 . S
C628 C632 1.401 . S
C628 C633 1.499 . S
N629 Co612 1.989 . S
N629 C628 1.342 . S
N629 N630 1.388 . S
N630 Co613 1.993 . S
N630 N629 1.388 . S
N630 C631 1.346 . S
C631 N630 1.346 . S
C631 C632 1.396 . S
C631 C641 1.510 . S
C632 C628 1.401 . S
C632 C631 1.396 . S
C633 C628 1.499 . S
C633 H634 0.959 . S
C633 H635 0.960 . S
C633 H636 0.961 . S
H634 C633 0.959 . S
H635 C633 0.960 . S
H636 C633 0.961 . S
O637 Co612 1.967 . S
O637 C645 1.258 . S
O638 Co613 1.941 . S
O638 C645 1.266 . S
H639 C641 0.959 . S
H640 C641 0.961 . S
C641 C631 1.510 . S
C641 H639 0.959 . S
C641 H640 0.961 . S
C641 H642 0.960 . S
H642 C641 0.960 . S
H643 N623 0.862 . S
O644 Co612 1.920 . S
O644 C617 1.289 . S
C645 O637 1.258 . S
C645 O638 1.266 . S
Co646 O649 1.970 . S
Co646 N663 1.989 . S
Co646 O671 1.967 . S
Co646 O678 1.920 . S
Co647 O650 1.966 . S
Co647 N656 2.022 . S
Co647 N664 1.993 . S
Co647 O672 1.941 . S
C648 O649 1.258 . S
C648 O650 1.263 . S
O649 Co646 1.970 . S
O649 C648 1.258 . S
O650 Co647 1.966 . S
O650 C648 1.263 . S
C651 O652 1.235 . S
C651 O678 1.289 1_545 S
O652 C651 1.235 . S
C653 C655 1.400 . S
C653 N656 1.351 . S
C653 C658 1.501 . S
C654 C655 1.387 . S
C654 N657 1.341 . S
C655 C653 1.400 . S
C655 C654 1.387 . S
N656 Co647 2.022 . S
N656 C653 1.351 . S
N656 N657 1.365 . S
N657 C654 1.341 . S
N657 N656 1.365 . S
N657 H677 0.862 . S
C658 C653 1.501 . S
C658 H659 0.961 . S
C658 H660 0.961 . S
C658 H661 0.960 . S
H659 C658 0.961 . S
H660 C658 0.961 . S
H661 C658 0.960 . S
C662 N663 1.342 . S
C662 C666 1.401 . S
C662 C667 1.499 . S
N663 Co646 1.989 . S
N663 C662 1.342 . S
N663 N664 1.388 . S
N664 Co647 1.993 . S
N664 N663 1.388 . S
N664 C665 1.346 . S
C665 N664 1.346 . S
C665 C666 1.396 . S
C665 C675 1.510 . S
C666 C662 1.401 . S
C666 C665 1.396 . S
C667 C662 1.499 . S
C667 H668 0.959 . S
C667 H669 0.960 . S
C667 H670 0.961 . S
H668 C667 0.959 . S
H669 C667 0.960 . S
H670 C667 0.961 . S
O671 Co646 1.967 . S
O671 C679 1.258 . S
O672 Co647 1.941 . S
O672 C679 1.266 . S
H673 C675 0.959 . S
H674 C675 0.961 . S
C675 C665 1.510 . S
C675 H673 0.959 . S
C675 H674 0.961 . S
C675 H676 0.960 . S
H676 C675 0.960 . S
H677 N657 0.862 . S
O678 Co646 1.920 . S
O678 C651 1.289 1_565 S
C679 O671 1.258 . S
C679 O672 1.266 . S
Co680 O683 1.970 . S
Co680 N697 1.989 . S
Co680 O705 1.967 . S
Co680 O712 1.920 . S
Co681 O684 1.966 . S
Co681 N690 2.022 . S
Co681 N698 1.993 . S
Co681 O706 1.941 . S
C682 O683 1.258 . S
C682 O684 1.263 . S
O683 Co680 1.970 . S
O683 C682 1.258 . S
O684 Co681 1.966 . S
O684 C682 1.263 . S
C685 O686 1.235 . S
C685 O712 1.289 . S
O686 C685 1.235 . S
C687 C689 1.400 . S
C687 N690 1.351 . S
C687 C692 1.501 . S
C688 C689 1.387 . S
C688 N691 1.341 . S
C689 C687 1.400 . S
C689 C688 1.387 . S
N690 Co681 2.022 . S
N690 C687 1.351 . S
N690 N691 1.365 . S
N691 C688 1.341 . S
N691 N690 1.365 . S
N691 H711 0.862 . S
C692 C687 1.501 . S
C692 H693 0.961 . S
C692 H694 0.961 . S
C692 H695 0.960 . S
H693 C692 0.961 . S
H694 C692 0.961 . S
H695 C692 0.960 . S
C696 N697 1.342 . S
C696 C700 1.401 . S
C696 C701 1.499 . S
N697 Co680 1.989 . S
N697 C696 1.342 . S
N697 N698 1.388 . S
N698 Co681 1.993 . S
N698 N697 1.388 . S
N698 C699 1.346 . S
C699 N698 1.346 . S
C699 C700 1.396 . S
C699 C709 1.510 . S
C700 C696 1.401 . S
C700 C699 1.396 . S
C701 C696 1.499 . S
C701 H702 0.959 . S
C701 H703 0.960 . S
C701 H704 0.961 . S
H702 C701 0.959 . S
H703 C701 0.960 . S
H704 C701 0.961 . S
O705 Co680 1.967 . S
O705 C713 1.258 . S
O706 Co681 1.941 . S
O706 C713 1.266 . S
H707 C709 0.959 . S
H708 C709 0.961 . S
C709 C699 1.510 . S
C709 H707 0.959 . S
C709 H708 0.961 . S
C709 H710 0.960 . S
H710 C709 0.960 . S
H711 N691 0.862 . S
O712 Co680 1.920 . S
O712 C685 1.289 . S
C713 O705 1.258 . S
C713 O706 1.266 . S
Co714 O717 1.970 . S
Co714 N731 1.989 . S
Co714 O739 1.967 . S
Co714 O746 1.920 . S
Co715 O718 1.966 . S
Co715 N724 2.022 . S
Co715 N732 1.993 . S
Co715 O740 1.941 . S
C716 O717 1.258 . S
C716 O718 1.263 . S
O717 Co714 1.970 . S
O717 C716 1.258 . S
O718 Co715 1.966 . S
O718 C716 1.263 . S
C719 O720 1.235 . S
C719 O746 1.289 . S
O720 C719 1.235 . S
C721 C723 1.400 . S
C721 N724 1.351 . S
C721 C726 1.501 . S
C722 C723 1.387 . S
C722 N725 1.341 . S
C723 C721 1.400 . S
C723 C722 1.387 . S
N724 Co715 2.022 . S
N724 C721 1.351 . S
N724 N725 1.365 . S
N725 C722 1.341 . S
N725 N724 1.365 . S
N725 H745 0.862 . S
C726 C721 1.501 . S
C726 H727 0.961 . S
C726 H728 0.961 . S
C726 H729 0.960 . S
H727 C726 0.961 . S
H728 C726 0.961 . S
H729 C726 0.960 . S
C730 N731 1.342 . S
C730 C734 1.401 . S
C730 C735 1.499 . S
N731 Co714 1.989 . S
N731 C730 1.342 . S
N731 N732 1.388 . S
N732 Co715 1.993 . S
N732 N731 1.388 . S
N732 C733 1.346 . S
C733 N732 1.346 . S
C733 C734 1.396 . S
C733 C743 1.510 . S
C734 C730 1.401 . S
C734 C733 1.396 . S
C735 C730 1.499 . S
C735 H736 0.959 . S
C735 H737 0.960 . S
C735 H738 0.961 . S
H736 C735 0.959 . S
H737 C735 0.960 . S
H738 C735 0.961 . S
O739 Co714 1.967 . S
O739 C747 1.258 . S
O740 Co715 1.941 . S
O740 C747 1.266 . S
H741 C743 0.959 . S
H742 C743 0.961 . S
C743 C733 1.510 . S
C743 H741 0.959 . S
C743 H742 0.961 . S
C743 H744 0.960 . S
H744 C743 0.960 . S
H745 N725 0.862 . S
O746 Co714 1.920 . S
O746 C719 1.289 . S
C747 O739 1.258 . S
C747 O740 1.266 . S
Co748 O751 1.970 . S
Co748 N765 1.989 . S
Co748 O773 1.967 . S
Co748 O780 1.920 . S
Co749 O752 1.966 . S
Co749 N758 2.022 . S
Co749 N766 1.993 . S
Co749 O774 1.941 . S
C750 O751 1.258 . S
C750 O752 1.263 . S
O751 Co748 1.970 . S
O751 C750 1.258 . S
O752 Co749 1.966 . S
O752 C750 1.263 . S
C753 O754 1.235 . S
C753 O780 1.289 . S
O754 C753 1.235 . S
C755 C757 1.400 . S
C755 N758 1.351 . S
C755 C760 1.501 . S
C756 C757 1.387 . S
C756 N759 1.341 . S
C757 C755 1.400 . S
C757 C756 1.387 . S
N758 Co749 2.022 . S
N758 C755 1.351 . S
N758 N759 1.365 . S
N759 C756 1.341 . S
N759 N758 1.365 . S
N759 H779 0.862 . S
C760 C755 1.501 . S
C760 H761 0.961 . S
C760 H762 0.961 . S
C760 H763 0.960 . S
H761 C760 0.961 . S
H762 C760 0.961 . S
H763 C760 0.960 . S
C764 N765 1.342 . S
C764 C768 1.401 . S
C764 C769 1.499 . S
N765 Co748 1.989 . S
N765 C764 1.342 . S
N765 N766 1.388 . S
N766 Co749 1.993 . S
N766 N765 1.388 . S
N766 C767 1.346 . S
C767 N766 1.346 . S
C767 C768 1.396 . S
C767 C777 1.510 . S
C768 C764 1.401 . S
C768 C767 1.396 . S
C769 C764 1.499 . S
C769 H770 0.959 . S
C769 H771 0.960 . S
C769 H772 0.961 . S
H770 C769 0.959 . S
H771 C769 0.960 . S
H772 C769 0.961 . S
O773 Co748 1.967 . S
O773 C781 1.258 . S
O774 Co749 1.941 . S
O774 C781 1.266 . S
H775 C777 0.959 . S
H776 C777 0.961 . S
C777 C767 1.510 . S
C777 H775 0.959 . S
C777 H776 0.961 . S
C777 H778 0.960 . S
H778 C777 0.960 . S
H779 N759 0.862 . S
O780 Co748 1.920 . S
O780 C753 1.289 . S
C781 O773 1.258 . S
C781 O774 1.266 . S
Co782 O785 1.970 . S
Co782 N799 1.989 . S
Co782 O807 1.967 . S
Co782 O814 1.920 . S
Co783 O786 1.966 . S
Co783 N792 2.022 . S
Co783 N800 1.993 . S
Co783 O808 1.941 . S
C784 O785 1.258 . S
C784 O786 1.263 . S
O785 Co782 1.970 . S
O785 C784 1.258 . S
O786 Co783 1.966 . S
O786 C784 1.263 . S
C787 O788 1.235 . S
C787 O814 1.289 . S
O788 C787 1.235 . S
C789 C791 1.400 . S
C789 N792 1.351 . S
C789 C794 1.501 . S
C790 C791 1.387 . S
C790 N793 1.341 . S
C791 C789 1.400 . S
C791 C790 1.387 . S
N792 Co783 2.022 . S
N792 C789 1.351 . S
N792 N793 1.365 . S
N793 C790 1.341 . S
N793 N792 1.365 . S
N793 H813 0.862 . S
C794 C789 1.501 . S
C794 H795 0.961 . S
C794 H796 0.961 . S
C794 H797 0.960 . S
H795 C794 0.961 . S
H796 C794 0.961 . S
H797 C794 0.960 . S
C798 N799 1.342 . S
C798 C802 1.401 . S
C798 C803 1.499 . S
N799 Co782 1.989 . S
N799 C798 1.342 . S
N799 N800 1.388 . S
N800 Co783 1.993 . S
N800 N799 1.388 . S
N800 C801 1.346 . S
C801 N800 1.346 . S
C801 C802 1.396 . S
C801 C811 1.510 . S
C802 C798 1.401 . S
C802 C801 1.396 . S
C803 C798 1.499 . S
C803 H804 0.959 . S
C803 H805 0.960 . S
C803 H806 0.961 . S
H804 C803 0.959 . S
H805 C803 0.960 . S
H806 C803 0.961 . S
O807 Co782 1.967 . S
O807 C815 1.258 . S
O808 Co783 1.941 . S
O808 C815 1.266 . S
H809 C811 0.959 . S
H810 C811 0.961 . S
C811 C801 1.510 . S
C811 H809 0.959 . S
C811 H810 0.961 . S
C811 H812 0.960 . S
H812 C811 0.960 . S
H813 N793 0.862 . S
O814 Co782 1.920 . S
O814 C787 1.289 . S
C815 O807 1.258 . S
C815 O808 1.266 . S
Co816 O819 1.970 . S
Co816 N833 1.989 . S
Co816 O841 1.967 . S
Co816 O848 1.920 . S
Co817 O820 1.966 . S
Co817 N826 2.022 . S
Co817 N834 1.993 . S
Co817 O842 1.941 . S
C818 O819 1.258 . S
C818 O820 1.263 . S
O819 Co816 1.970 . S
O819 C818 1.258 . S
O820 Co817 1.966 . S
O820 C818 1.263 . S
C821 O822 1.235 . S
C821 O848 1.289 1_554 S
O822 C821 1.235 . S
C823 C825 1.400 . S
C823 N826 1.351 . S
C823 C828 1.501 . S
C824 C825 1.387 . S
C824 N827 1.341 . S
C825 C823 1.400 . S
C825 C824 1.387 . S
N826 Co817 2.022 . S
N826 C823 1.351 . S
N826 N827 1.365 . S
N827 C824 1.341 . S
N827 N826 1.365 . S
N827 H847 0.862 . S
C828 C823 1.501 . S
C828 H829 0.961 . S
C828 H830 0.961 . S
C828 H831 0.960 . S
H829 C828 0.961 . S
H830 C828 0.961 . S
H831 C828 0.960 . S
C832 N833 1.342 . S
C832 C836 1.401 . S
C832 C837 1.499 . S
N833 Co816 1.989 . S
N833 C832 1.342 . S
N833 N834 1.388 . S
N834 Co817 1.993 . S
N834 N833 1.388 . S
N834 C835 1.346 . S
C835 N834 1.346 . S
C835 C836 1.396 . S
C835 C845 1.510 . S
C836 C832 1.401 . S
C836 C835 1.396 . S
C837 C832 1.499 . S
C837 H838 0.959 . S
C837 H839 0.960 . S
C837 H840 0.961 . S
H838 C837 0.959 . S
H839 C837 0.960 . S
H840 C837 0.961 . S
O841 Co816 1.967 . S
O841 C849 1.258 . S
O842 Co817 1.941 . S
O842 C849 1.266 . S
H843 C845 0.959 . S
H844 C845 0.961 . S
C845 C835 1.510 . S
C845 H843 0.959 . S
C845 H844 0.961 . S
C845 H846 0.960 . S
H846 C845 0.960 . S
H847 N827 0.862 . S
O848 Co816 1.920 . S
O848 C821 1.289 1_556 S
C849 O841 1.258 . S
C849 O842 1.266 . S
Co850 O853 1.970 . S
Co850 N867 1.989 . S
Co850 O875 1.967 . S
Co850 O882 1.920 . S
Co851 O854 1.966 . S
Co851 N860 2.022 . S
Co851 N868 1.993 . S
Co851 O876 1.941 . S
C852 O853 1.258 . S
C852 O854 1.263 . S
O853 Co850 1.970 . S
O853 C852 1.258 . S
O854 Co851 1.966 . S
O854 C852 1.263 . S
C855 O856 1.235 . S
C855 O882 1.289 . S
O856 C855 1.235 . S
C857 C859 1.400 . S
C857 N860 1.351 . S
C857 C862 1.501 . S
C858 C859 1.387 . S
C858 N861 1.341 . S
C859 C857 1.400 . S
C859 C858 1.387 . S
N860 Co851 2.022 . S
N860 C857 1.351 . S
N860 N861 1.365 . S
N861 C858 1.341 . S
N861 N860 1.365 . S
N861 H881 0.862 . S
C862 C857 1.501 . S
C862 H863 0.961 . S
C862 H864 0.961 . S
C862 H865 0.960 . S
H863 C862 0.961 . S
H864 C862 0.961 . S
H865 C862 0.960 . S
C866 N867 1.342 . S
C866 C870 1.401 . S
C866 C871 1.499 . S
N867 Co850 1.989 . S
N867 C866 1.342 . S
N867 N868 1.388 . S
N868 Co851 1.993 . S
N868 N867 1.388 . S
N868 C869 1.346 . S
C869 N868 1.346 . S
C869 C870 1.396 . S
C869 C879 1.510 . S
C870 C866 1.401 . S
C870 C869 1.396 . S
C871 C866 1.499 . S
C871 H872 0.959 . S
C871 H873 0.960 . S
C871 H874 0.961 . S
H872 C871 0.959 . S
H873 C871 0.960 . S
H874 C871 0.961 . S
O875 Co850 1.967 . S
O875 C883 1.258 . S
O876 Co851 1.941 . S
O876 C883 1.266 . S
H877 C879 0.959 . S
H878 C879 0.961 . S
C879 C869 1.510 . S
C879 H877 0.959 . S
C879 H878 0.961 . S
C879 H880 0.960 . S
H880 C879 0.960 . S
H881 N861 0.862 . S
O882 Co850 1.920 . S
O882 C855 1.289 . S
C883 O875 1.258 . S
C883 O876 1.266 . S
Co884 O887 1.970 . S
Co884 N901 1.989 . S
Co884 O909 1.967 . S
Co884 O916 1.920 . S
Co885 O888 1.966 . S
Co885 N894 2.022 1_655 S
Co885 N902 1.987 1_655 S
Co885 O910 1.941 . S
C886 O887 1.258 . S
C886 O888 1.263 . S
O887 Co884 1.970 . S
O887 C886 1.258 . S
O888 Co885 1.966 . S
O888 C886 1.263 . S
C889 O890 1.235 . S
C889 O916 1.289 . S
O890 C889 1.235 . S
C891 C893 1.400 . S
C891 N894 1.351 . S
C891 C896 1.501 . S
C892 C893 1.387 . S
C892 N895 1.341 . S
C893 C891 1.400 . S
C893 C892 1.387 . S
N894 Co885 2.022 1_455 S
N894 C891 1.351 . S
N894 N895 1.365 . S
N895 C892 1.341 . S
N895 N894 1.365 . S
N895 H915 0.862 1_455 S
C896 C891 1.501 . S
C896 H897 0.961 . S
C896 H898 0.961 . S
C896 H899 0.960 . S
H897 C896 0.961 . S
H898 C896 0.961 . S
H899 C896 0.960 . S
C900 N901 1.342 . S
C900 C904 1.401 1_655 S
C900 C905 1.499 . S
N901 Co884 1.989 . S
N901 C900 1.342 . S
N901 N902 1.380 1_655 S
N902 Co885 1.987 1_455 S
N902 N901 1.380 1_455 S
N902 C903 1.356 . S
C903 N902 1.356 . S
C903 C904 1.396 . S
C903 C913 1.510 . S
C904 C900 1.401 1_455 S
C904 C903 1.396 . S
C905 C900 1.499 . S
C905 H906 0.959 . S
C905 H907 0.970 . S
C905 H908 0.961 . S
H906 C905 0.959 . S
H907 C905 0.970 . S
H908 C905 0.961 . S
O909 Co884 1.967 . S
O909 C917 1.258 . S
O910 Co885 1.941 . S
O910 C917 1.266 . S
H911 C913 0.959 . S
H912 C913 0.961 . S
C913 C903 1.510 . S
C913 H911 0.959 . S
C913 H912 0.961 . S
C913 H914 0.960 . S
H914 C913 0.960 . S
H915 N895 0.862 1_655 S
O916 Co884 1.920 . S
O916 C889 1.289 . S
C917 O909 1.258 . S
C917 O910 1.266 . S
Co918 O921 1.970 . S
Co918 N935 1.989 . S
Co918 O943 1.967 . S
Co918 O950 1.920 . S
Co919 O922 1.966 . S
Co919 N928 2.022 . S
Co919 N936 1.993 . S
Co919 O944 1.941 . S
C920 O921 1.258 . S
C920 O922 1.263 . S
O921 Co918 1.970 . S
O921 C920 1.258 . S
O922 Co919 1.966 . S
O922 C920 1.263 . S
C923 O924 1.235 . S
C923 O950 1.289 . S
O924 C923 1.235 . S
C925 C927 1.400 . S
C925 N928 1.351 . S
C925 C930 1.501 . S
C926 C927 1.387 . S
C926 N929 1.341 . S
C927 C925 1.400 . S
C927 C926 1.387 . S
N928 Co919 2.022 . S
N928 C925 1.351 . S
N928 N929 1.365 . S
N929 C926 1.341 . S
N929 N928 1.365 . S
N929 H949 0.862 . S
C930 C925 1.501 . S
C930 H931 0.961 . S
C930 H932 0.961 . S
C930 H933 0.960 . S
H931 C930 0.961 . S
H932 C930 0.961 . S
H933 C930 0.960 . S
C934 N935 1.342 . S
C934 C938 1.401 . S
C934 C939 1.499 . S
N935 Co918 1.989 . S
N935 C934 1.342 . S
N935 N936 1.388 . S
N936 Co919 1.993 . S
N936 N935 1.388 . S
N936 C937 1.346 . S
C937 N936 1.346 . S
C937 C938 1.396 . S
C937 C947 1.510 . S
C938 C934 1.401 . S
C938 C937 1.396 . S
C939 C934 1.499 . S
C939 H940 0.959 . S
C939 H941 0.960 . S
C939 H942 0.961 . S
H940 C939 0.959 . S
H941 C939 0.960 . S
H942 C939 0.961 . S
O943 Co918 1.967 . S
O943 C951 1.258 . S
O944 Co919 1.941 . S
O944 C951 1.266 . S
H945 C947 0.959 . S
H946 C947 0.961 . S
C947 C937 1.510 . S
C947 H945 0.959 . S
C947 H946 0.961 . S
C947 H948 0.960 . S
H948 C947 0.960 . S
H949 N929 0.862 . S
O950 Co918 1.920 . S
O950 C923 1.289 . S
C951 O943 1.258 . S
C951 O944 1.266 . S
Co952 O955 1.970 . S
Co952 N969 1.989 . S
Co952 O977 1.967 . S
Co952 O984 1.920 . S
Co953 O956 1.966 . S
Co953 N962 2.022 . S
Co953 N970 1.993 . S
Co953 O978 1.941 . S
C954 O955 1.258 . S
C954 O956 1.263 . S
O955 Co952 1.970 . S
O955 C954 1.258 . S
O956 Co953 1.966 . S
O956 C954 1.263 . S
C957 O958 1.235 . S
C957 O984 1.289 . S
O958 C957 1.235 . S
C959 C961 1.400 . S
C959 N962 1.351 . S
C959 C964 1.501 . S
C960 C961 1.387 . S
C960 N963 1.341 . S
C961 C959 1.400 . S
C961 C960 1.387 . S
N962 Co953 2.022 . S
N962 C959 1.351 . S
N962 N963 1.365 . S
N963 C960 1.341 . S
N963 N962 1.365 . S
N963 H983 0.862 . S
C964 C959 1.501 . S
C964 H965 0.961 . S
C964 H966 0.961 . S
C964 H967 0.960 . S
H965 C964 0.961 . S
H966 C964 0.961 . S
H967 C964 0.960 . S
C968 N969 1.342 . S
C968 C972 1.401 . S
C968 C973 1.499 . S
N969 Co952 1.989 . S
N969 C968 1.342 . S
N969 N970 1.388 . S
N970 Co953 1.993 . S
N970 N969 1.388 . S
N970 C971 1.346 . S
C971 N970 1.346 . S
C971 C972 1.396 . S
C971 C981 1.510 . S
C972 C968 1.401 . S
C972 C971 1.396 . S
C973 C968 1.499 . S
C973 H974 0.959 . S
C973 H975 0.960 . S
C973 H976 0.961 . S
H974 C973 0.959 . S
H975 C973 0.960 . S
H976 C973 0.961 . S
O977 Co952 1.967 . S
O977 C985 1.258 . S
O978 Co953 1.941 . S
O978 C985 1.266 . S
H979 C981 0.959 . S
H980 C981 0.961 . S
C981 C971 1.510 . S
C981 H979 0.959 . S
C981 H980 0.961 . S
C981 H982 0.960 . S
H982 C981 0.960 . S
H983 N963 0.862 . S
O984 Co952 1.920 . S
O984 C957 1.289 . S
C985 O977 1.258 . S
C985 O978 1.266 . S
Co986 O989 1.970 . S
Co986 N1003 1.989 . S
Co986 O1011 1.967 . S
Co986 O1018 1.920 . S
Co987 O990 1.966 . S
Co987 N996 2.022 . S
Co987 N1004 1.993 . S
Co987 O1012 1.941 . S
C988 O989 1.258 . S
C988 O990 1.263 . S
O989 Co986 1.970 . S
O989 C988 1.258 . S
O990 Co987 1.966 . S
O990 C988 1.263 . S
C991 O992 1.235 . S
C991 O1018 1.289 . S
O992 C991 1.235 . S
C993 C995 1.400 . S
C993 N996 1.351 . S
C993 C998 1.501 . S
C994 C995 1.387 . S
C994 N997 1.341 . S
C995 C993 1.400 . S
C995 C994 1.387 . S
N996 Co987 2.022 . S
N996 C993 1.351 . S
N996 N997 1.365 . S
N997 C994 1.341 . S
N997 N996 1.365 . S
N997 H1017 0.862 . S
C998 C993 1.501 . S
C998 H999 0.961 . S
C998 H1000 0.961 . S
C998 H1001 0.960 . S
H999 C998 0.961 . S
H1000 C998 0.961 . S
H1001 C998 0.960 . S
C1002 N1003 1.342 . S
C1002 C1006 1.401 . S
C1002 C1007 1.499 . S
N1003 Co986 1.989 . S
N1003 C1002 1.342 . S
N1003 N1004 1.388 . S
N1004 Co987 1.993 . S
N1004 N1003 1.388 . S
N1004 C1005 1.346 . S
C1005 N1004 1.346 . S
C1005 C1006 1.396 . S
C1005 C1015 1.510 . S
C1006 C1002 1.401 . S
C1006 C1005 1.396 . S
C1007 C1002 1.499 . S
C1007 H1008 0.959 . S
C1007 H1009 0.960 . S
C1007 H1010 0.961 . S
H1008 C1007 0.959 . S
H1009 C1007 0.960 . S
H1010 C1007 0.961 . S
O1011 Co986 1.967 . S
O1011 C1019 1.258 . S
O1012 Co987 1.941 . S
O1012 C1019 1.266 . S
H1013 C1015 0.959 . S
H1014 C1015 0.961 . S
C1015 C1005 1.510 . S
C1015 H1013 0.959 . S
C1015 H1014 0.961 . S
C1015 H1016 0.960 . S
H1016 C1015 0.960 . S
H1017 N997 0.862 . S
O1018 Co986 1.920 . S
O1018 C991 1.289 . S
C1019 O1011 1.258 . S
C1019 O1012 1.266 . S
Co1020 O1023 1.970 . S
Co1020 N1037 1.989 . S
Co1020 O1045 1.967 . S
Co1020 O1052 1.920 . S
Co1021 O1024 1.966 . S
Co1021 N1030 2.022 1_655 S
Co1021 N1038 1.987 1_655 S
Co1021 O1046 1.941 . S
C1022 O1023 1.258 . S
C1022 O1024 1.263 . S
O1023 Co1020 1.970 . S
O1023 C1022 1.258 . S
O1024 Co1021 1.966 . S
O1024 C1022 1.263 . S
C1025 O1026 1.235 . S
C1025 O1052 1.289 1_556 S
O1026 C1025 1.235 . S
C1027 C1029 1.400 . S
C1027 N1030 1.351 . S
C1027 C1032 1.501 . S
C1028 C1029 1.387 . S
C1028 N1031 1.341 . S
C1029 C1027 1.400 . S
C1029 C1028 1.387 . S
N1030 Co1021 2.022 1_455 S
N1030 C1027 1.351 . S
N1030 N1031 1.365 . S
N1031 C1028 1.341 . S
N1031 N1030 1.365 . S
N1031 H1051 0.862 1_455 S
C1032 C1027 1.501 . S
C1032 H1033 0.961 . S
C1032 H1034 0.961 . S
C1032 H1035 0.960 . S
H1033 C1032 0.961 . S
H1034 C1032 0.961 . S
H1035 C1032 0.960 . S
C1036 N1037 1.342 . S
C1036 C1040 1.401 1_655 S
C1036 C1041 1.499 . S
N1037 Co1020 1.989 . S
N1037 C1036 1.342 . S
N1037 N1038 1.380 1_655 S
N1038 Co1021 1.987 1_455 S
N1038 N1037 1.380 1_455 S
N1038 C1039 1.356 . S
C1039 N1038 1.356 . S
C1039 C1040 1.396 . S
C1039 C1049 1.510 . S
C1040 C1036 1.401 1_455 S
C1040 C1039 1.396 . S
C1041 C1036 1.499 . S
C1041 H1042 0.959 . S
C1041 H1043 0.971 . S
C1041 H1044 0.961 . S
H1042 C1041 0.959 . S
H1043 C1041 0.971 . S
H1044 C1041 0.961 . S
O1045 Co1020 1.967 . S
O1045 C1053 1.258 . S
O1046 Co1021 1.941 . S
O1046 C1053 1.266 . S
H1047 C1049 0.959 . S
H1048 C1049 0.961 . S
C1049 C1039 1.510 . S
C1049 H1047 0.959 . S
C1049 H1048 0.961 . S
C1049 H1050 0.960 . S
H1050 C1049 0.960 . S
H1051 N1031 0.862 1_655 S
O1052 Co1020 1.920 . S
O1052 C1025 1.289 1_554 S
C1053 O1045 1.258 . S
C1053 O1046 1.266 . S
Co1054 O1057 1.970 . S
Co1054 N1071 1.989 . S
Co1054 O1079 1.967 . S
Co1054 O1086 1.920 . S
Co1055 O1058 1.966 . S
Co1055 N1064 2.022 . S
Co1055 N1072 1.993 . S
Co1055 O1080 1.941 . S
C1056 O1057 1.258 . S
C1056 O1058 1.263 . S
O1057 Co1054 1.970 . S
O1057 C1056 1.258 . S
O1058 Co1055 1.966 . S
O1058 C1056 1.263 . S
C1059 O1060 1.235 . S
C1059 O1086 1.289 . S
O1060 C1059 1.235 . S
C1061 C1063 1.400 . S
C1061 N1064 1.351 . S
C1061 C1066 1.501 . S
C1062 C1063 1.387 . S
C1062 N1065 1.341 . S
C1063 C1061 1.400 . S
C1063 C1062 1.387 . S
N1064 Co1055 2.022 . S
N1064 C1061 1.351 . S
N1064 N1065 1.365 . S
N1065 C1062 1.341 . S
N1065 N1064 1.365 . S
N1065 H1085 0.862 . S
C1066 C1061 1.501 . S
C1066 H1067 0.961 . S
C1066 H1068 0.961 . S
C1066 H1069 0.960 . S
H1067 C1066 0.961 . S
H1068 C1066 0.961 . S
H1069 C1066 0.960 . S
C1070 N1071 1.342 . S
C1070 C1074 1.401 . S
C1070 C1075 1.499 . S
N1071 Co1054 1.989 . S
N1071 C1070 1.342 . S
N1071 N1072 1.388 . S
N1072 Co1055 1.993 . S
N1072 N1071 1.388 . S
N1072 C1073 1.346 . S
C1073 N1072 1.346 . S
C1073 C1074 1.396 . S
C1073 C1083 1.510 . S
C1074 C1070 1.401 . S
C1074 C1073 1.396 . S
C1075 C1070 1.499 . S
C1075 H1076 0.959 . S
C1075 H1077 0.960 . S
C1075 H1078 0.961 . S
H1076 C1075 0.959 . S
H1077 C1075 0.960 . S
H1078 C1075 0.961 . S
O1079 Co1054 1.967 . S
O1079 C1087 1.258 . S
O1080 Co1055 1.941 . S
O1080 C1087 1.266 . S
H1081 C1083 0.959 . S
H1082 C1083 0.961 . S
C1083 C1073 1.510 . S
C1083 H1081 0.959 . S
C1083 H1082 0.961 . S
C1083 H1084 0.960 . S
H1084 C1083 0.960 . S
H1085 N1065 0.862 . S
O1086 Co1054 1.920 . S
O1086 C1059 1.289 . S
C1087 O1079 1.258 . S
C1087 O1080 1.266 . S
Co1088 O1091 1.970 . S
Co1088 N1105 1.989 . S
Co1088 O1113 1.967 . S
Co1088 O1120 1.920 . S
Co1089 O1092 1.966 . S
Co1089 N1098 2.022 . S
Co1089 N1106 1.993 . S
Co1089 O1114 1.941 . S
C1090 O1091 1.258 . S
C1090 O1092 1.263 . S
O1091 Co1088 1.970 . S
O1091 C1090 1.258 . S
O1092 Co1089 1.966 . S
O1092 C1090 1.263 . S
C1093 O1094 1.235 . S
C1093 O1120 1.289 1_455 S
O1094 C1093 1.235 . S
C1095 C1097 1.400 . S
C1095 N1098 1.351 . S
C1095 C1100 1.501 . S
C1096 C1097 1.387 . S
C1096 N1099 1.341 . S
C1097 C1095 1.400 . S
C1097 C1096 1.387 . S
N1098 Co1089 2.022 . S
N1098 C1095 1.351 . S
N1098 N1099 1.365 . S
N1099 C1096 1.341 . S
N1099 N1098 1.365 . S
N1099 H1119 0.862 . S
C1100 C1095 1.501 . S
C1100 H1101 0.961 . S
C1100 H1102 0.961 . S
C1100 H1103 0.960 . S
H1101 C1100 0.961 . S
H1102 C1100 0.961 . S
H1103 C1100 0.960 . S
C1104 N1105 1.342 . S
C1104 C1108 1.401 . S
C1104 C1109 1.499 . S
N1105 Co1088 1.989 . S
N1105 C1104 1.342 . S
N1105 N1106 1.388 . S
N1106 Co1089 1.993 . S
N1106 N1105 1.388 . S
N1106 C1107 1.346 . S
C1107 N1106 1.346 . S
C1107 C1108 1.396 . S
C1107 C1117 1.510 . S
C1108 C1104 1.401 . S
C1108 C1107 1.396 . S
C1109 C1104 1.499 . S
C1109 H1110 0.959 . S
C1109 H1111 0.960 . S
C1109 H1112 0.961 . S
H1110 C1109 0.959 . S
H1111 C1109 0.960 . S
H1112 C1109 0.961 . S
O1113 Co1088 1.967 . S
O1113 C1121 1.258 . S
O1114 Co1089 1.941 . S
O1114 C1121 1.266 . S
H1115 C1117 0.959 . S
H1116 C1117 0.961 . S
C1117 C1107 1.510 . S
C1117 H1115 0.959 . S
C1117 H1116 0.961 . S
C1117 H1118 0.960 . S
H1118 C1117 0.960 . S
H1119 N1099 0.862 . S
O1120 Co1088 1.920 . S
O1120 C1093 1.289 1_655 S
C1121 O1113 1.258 . S
C1121 O1114 1.266 . S
Co1122 O1125 1.970 . S
Co1122 N1139 1.989 . S
Co1122 O1147 1.967 . S
Co1122 O1154 1.920 . S
Co1123 O1126 1.966 . S
Co1123 N1132 2.022 . S
Co1123 N1140 1.993 . S
Co1123 O1148 1.941 . S
C1124 O1125 1.258 . S
C1124 O1126 1.263 . S
O1125 Co1122 1.970 . S
O1125 C1124 1.258 . S
O1126 Co1123 1.966 . S
O1126 C1124 1.263 . S
C1127 O1128 1.235 . S
C1127 O1154 1.289 . S
O1128 C1127 1.235 . S
C1129 C1131 1.400 . S
C1129 N1132 1.351 . S
C1129 C1134 1.501 . S
C1130 C1131 1.387 . S
C1130 N1133 1.341 . S
C1131 C1129 1.400 . S
C1131 C1130 1.387 . S
N1132 Co1123 2.022 . S
N1132 C1129 1.351 . S
N1132 N1133 1.365 . S
N1133 C1130 1.341 . S
N1133 N1132 1.365 . S
N1133 H1153 0.862 . S
C1134 C1129 1.501 . S
C1134 H1135 0.961 . S
C1134 H1136 0.961 . S
C1134 H1137 0.960 . S
H1135 C1134 0.961 . S
H1136 C1134 0.961 . S
H1137 C1134 0.960 . S
C1138 N1139 1.342 . S
C1138 C1142 1.401 . S
C1138 C1143 1.499 . S
N1139 Co1122 1.989 . S
N1139 C1138 1.342 . S
N1139 N1140 1.388 . S
N1140 Co1123 1.993 . S
N1140 N1139 1.388 . S
N1140 C1141 1.346 . S
C1141 N1140 1.346 . S
C1141 C1142 1.396 . S
C1141 C1151 1.510 . S
C1142 C1138 1.401 . S
C1142 C1141 1.396 . S
C1143 C1138 1.499 . S
C1143 H1144 0.959 . S
C1143 H1145 0.960 . S
C1143 H1146 0.961 . S
H1144 C1143 0.959 . S
H1145 C1143 0.960 . S
H1146 C1143 0.961 . S
O1147 Co1122 1.967 . S
O1147 C1155 1.258 . S
O1148 Co1123 1.941 . S
O1148 C1155 1.266 . S
H1149 C1151 0.959 . S
H1150 C1151 0.961 . S
C1151 C1141 1.510 . S
C1151 H1149 0.959 . S
C1151 H1150 0.961 . S
C1151 H1152 0.960 . S
H1152 C1151 0.960 . S
H1153 N1133 0.862 . S
O1154 Co1122 1.920 . S
O1154 C1127 1.289 . S
C1155 O1147 1.258 . S
C1155 O1148 1.266 . S
Co1156 O1159 1.970 . S
Co1156 N1173 1.989 . S
Co1156 O1181 1.967 . S
Co1156 O1188 1.920 . S
Co1157 O1160 1.966 . S
Co1157 N1166 2.022 . S
Co1157 N1174 1.993 . S
Co1157 O1182 1.941 . S
C1158 O1159 1.258 . S
C1158 O1160 1.263 . S
O1159 Co1156 1.970 . S
O1159 C1158 1.258 . S
O1160 Co1157 1.966 . S
O1160 C1158 1.263 . S
C1161 O1162 1.235 . S
C1161 O1188 1.289 . S
O1162 C1161 1.235 . S
C1163 C1165 1.400 . S
C1163 N1166 1.351 . S
C1163 C1168 1.501 . S
C1164 C1165 1.387 . S
C1164 N1167 1.341 . S
C1165 C1163 1.400 . S
C1165 C1164 1.387 . S
N1166 Co1157 2.022 . S
N1166 C1163 1.351 . S
N1166 N1167 1.365 . S
N1167 C1164 1.341 . S
N1167 N1166 1.365 . S
N1167 H1187 0.862 . S
C1168 C1163 1.501 . S
C1168 H1169 0.961 . S
C1168 H1170 0.961 . S
C1168 H1171 0.960 . S
H1169 C1168 0.961 . S
H1170 C1168 0.961 . S
H1171 C1168 0.960 . S
C1172 N1173 1.342 . S
C1172 C1176 1.401 . S
C1172 C1177 1.499 . S
N1173 Co1156 1.989 . S
N1173 C1172 1.342 . S
N1173 N1174 1.388 . S
N1174 Co1157 1.993 . S
N1174 N1173 1.388 . S
N1174 C1175 1.346 . S
C1175 N1174 1.346 . S
C1175 C1176 1.396 . S
C1175 C1185 1.510 . S
C1176 C1172 1.401 . S
C1176 C1175 1.396 . S
C1177 C1172 1.499 . S
C1177 H1178 0.959 . S
C1177 H1179 0.960 . S
C1177 H1180 0.961 . S
H1178 C1177 0.959 . S
H1179 C1177 0.960 . S
H1180 C1177 0.961 . S
O1181 Co1156 1.967 . S
O1181 C1189 1.258 . S
O1182 Co1157 1.941 . S
O1182 C1189 1.266 . S
H1183 C1185 0.959 . S
H1184 C1185 0.961 . S
C1185 C1175 1.510 . S
C1185 H1183 0.959 . S
C1185 H1184 0.961 . S
C1185 H1186 0.960 . S
H1186 C1185 0.960 . S
H1187 N1167 0.862 . S
O1188 Co1156 1.920 . S
O1188 C1161 1.289 . S
C1189 O1181 1.258 . S
C1189 O1182 1.266 . S
Co1190 O1193 1.970 . S
Co1190 N1207 1.989 . S
Co1190 O1215 1.967 . S
Co1190 O1222 1.920 . S
Co1191 O1194 1.966 . S
Co1191 N1200 2.022 . S
Co1191 N1208 1.993 . S
Co1191 O1216 1.941 . S
C1192 O1193 1.258 . S
C1192 O1194 1.263 . S
O1193 Co1190 1.970 . S
O1193 C1192 1.258 . S
O1194 Co1191 1.966 . S
O1194 C1192 1.263 . S
C1195 O1196 1.235 . S
C1195 O1222 1.289 . S
O1196 C1195 1.235 . S
C1197 C1199 1.400 . S
C1197 N1200 1.351 . S
C1197 C1202 1.501 . S
C1198 C1199 1.387 . S
C1198 N1201 1.341 . S
C1199 C1197 1.400 . S
C1199 C1198 1.387 . S
N1200 Co1191 2.022 . S
N1200 C1197 1.351 . S
N1200 N1201 1.365 . S
N1201 C1198 1.341 . S
N1201 N1200 1.365 . S
N1201 H1221 0.862 . S
C1202 C1197 1.501 . S
C1202 H1203 0.961 . S
C1202 H1204 0.961 . S
C1202 H1205 0.960 . S
H1203 C1202 0.961 . S
H1204 C1202 0.961 . S
H1205 C1202 0.960 . S
C1206 N1207 1.342 . S
C1206 C1210 1.401 . S
C1206 C1211 1.499 . S
N1207 Co1190 1.989 . S
N1207 C1206 1.342 . S
N1207 N1208 1.388 . S
N1208 Co1191 1.993 . S
N1208 N1207 1.388 . S
N1208 C1209 1.346 . S
C1209 N1208 1.346 . S
C1209 C1210 1.396 . S
C1209 C1219 1.510 . S
C1210 C1206 1.401 . S
C1210 C1209 1.396 . S
C1211 C1206 1.499 . S
C1211 H1212 0.959 . S
C1211 H1213 0.960 . S
C1211 H1214 0.961 . S
H1212 C1211 0.959 . S
H1213 C1211 0.960 . S
H1214 C1211 0.961 . S
O1215 Co1190 1.967 . S
O1215 C1223 1.258 . S
O1216 Co1191 1.941 . S
O1216 C1223 1.266 . S
H1217 C1219 0.959 . S
H1218 C1219 0.961 . S
C1219 C1209 1.510 . S
C1219 H1217 0.959 . S
C1219 H1218 0.961 . S
C1219 H1220 0.960 . S
H1220 C1219 0.960 . S
H1221 N1201 0.862 . S
O1222 Co1190 1.920 . S
O1222 C1195 1.289 . S
C1223 O1215 1.258 . S
C1223 O1216 1.266 . S
Co1224 O1227 1.970 . S
Co1224 N1241 1.989 . S
Co1224 O1249 1.967 . S
Co1224 O1256 1.920 . S
Co1225 O1228 1.966 . S
Co1225 N1234 2.022 . S
Co1225 N1242 1.993 . S
Co1225 O1250 1.941 . S
C1226 O1227 1.258 . S
C1226 O1228 1.263 . S
O1227 Co1224 1.970 . S
O1227 C1226 1.258 . S
O1228 Co1225 1.966 . S
O1228 C1226 1.263 . S
C1229 O1230 1.235 . S
C1229 O1256 1.289 1_455 S
O1230 C1229 1.235 . S
C1231 C1233 1.400 . S
C1231 N1234 1.351 . S
C1231 C1236 1.501 . S
C1232 C1233 1.387 . S
C1232 N1235 1.341 . S
C1233 C1231 1.400 . S
C1233 C1232 1.387 . S
N1234 Co1225 2.022 . S
N1234 C1231 1.351 . S
N1234 N1235 1.365 . S
N1235 C1232 1.341 . S
N1235 N1234 1.365 . S
N1235 H1255 0.862 . S
C1236 C1231 1.501 . S
C1236 H1237 0.961 . S
C1236 H1238 0.961 . S
C1236 H1239 0.960 . S
H1237 C1236 0.961 . S
H1238 C1236 0.961 . S
H1239 C1236 0.960 . S
C1240 N1241 1.342 . S
C1240 C1244 1.401 . S
C1240 C1245 1.499 . S
N1241 Co1224 1.989 . S
N1241 C1240 1.342 . S
N1241 N1242 1.388 . S
N1242 Co1225 1.993 . S
N1242 N1241 1.388 . S
N1242 C1243 1.346 . S
C1243 N1242 1.346 . S
C1243 C1244 1.396 . S
C1243 C1253 1.510 . S
C1244 C1240 1.401 . S
C1244 C1243 1.396 . S
C1245 C1240 1.499 . S
C1245 H1246 0.959 . S
C1245 H1247 0.960 . S
C1245 H1248 0.961 . S
H1246 C1245 0.959 . S
H1247 C1245 0.960 . S
H1248 C1245 0.961 . S
O1249 Co1224 1.967 . S
O1249 C1257 1.258 . S
O1250 Co1225 1.941 . S
O1250 C1257 1.266 . S
H1251 C1253 0.959 . S
H1252 C1253 0.961 . S
C1253 C1243 1.510 . S
C1253 H1251 0.959 . S
C1253 H1252 0.961 . S
C1253 H1254 0.960 . S
H1254 C1253 0.960 . S
H1255 N1235 0.862 . S
O1256 Co1224 1.920 . S
O1256 C1229 1.289 1_655 S
C1257 O1249 1.258 . S
C1257 O1250 1.266 . S
Co1258 O1261 1.970 . S
Co1258 N1275 1.989 . S
Co1258 O1283 1.967 . S
Co1258 O1290 1.920 . S
Co1259 O1262 1.966 . S
Co1259 N1268 2.022 . S
Co1259 N1276 1.993 . S
Co1259 O1284 1.941 . S
C1260 O1261 1.258 . S
C1260 O1262 1.263 . S
O1261 Co1258 1.970 . S
O1261 C1260 1.258 . S
O1262 Co1259 1.966 . S
O1262 C1260 1.263 . S
C1263 O1264 1.235 . S
C1263 O1290 1.289 . S
O1264 C1263 1.235 . S
C1265 C1267 1.400 . S
C1265 N1268 1.351 . S
C1265 C1270 1.501 . S
C1266 C1267 1.387 . S
C1266 N1269 1.341 . S
C1267 C1265 1.400 . S
C1267 C1266 1.387 . S
N1268 Co1259 2.022 . S
N1268 C1265 1.351 . S
N1268 N1269 1.365 . S
N1269 C1266 1.341 . S
N1269 N1268 1.365 . S
N1269 H1289 0.862 . S
C1270 C1265 1.501 . S
C1270 H1271 0.961 . S
C1270 H1272 0.961 . S
C1270 H1273 0.960 . S
H1271 C1270 0.961 . S
H1272 C1270 0.961 . S
H1273 C1270 0.960 . S
C1274 N1275 1.342 . S
C1274 C1278 1.401 . S
C1274 C1279 1.499 . S
N1275 Co1258 1.989 . S
N1275 C1274 1.342 . S
N1275 N1276 1.388 . S
N1276 Co1259 1.993 . S
N1276 N1275 1.388 . S
N1276 C1277 1.346 . S
C1277 N1276 1.346 . S
C1277 C1278 1.396 . S
C1277 C1287 1.510 . S
C1278 C1274 1.401 . S
C1278 C1277 1.396 . S
C1279 C1274 1.499 . S
C1279 H1280 0.959 . S
C1279 H1281 0.960 . S
C1279 H1282 0.961 . S
H1280 C1279 0.959 . S
H1281 C1279 0.960 . S
H1282 C1279 0.961 . S
O1283 Co1258 1.967 . S
O1283 C1291 1.258 . S
O1284 Co1259 1.941 . S
O1284 C1291 1.266 . S
H1285 C1287 0.959 . S
H1286 C1287 0.961 . S
C1287 C1277 1.510 . S
C1287 H1285 0.959 . S
C1287 H1286 0.961 . S
C1287 H1288 0.960 . S
H1288 C1287 0.960 . S
H1289 N1269 0.862 . S
O1290 Co1258 1.920 . S
O1290 C1263 1.289 . S
C1291 O1283 1.258 . S
C1291 O1284 1.266 . S
Co1292 O1295 1.970 . S
Co1292 N1309 1.989 . S
Co1292 O1317 1.967 . S
Co1292 O1324 1.920 . S
Co1293 O1296 1.966 . S
Co1293 N1302 2.022 . S
Co1293 N1310 1.993 . S
Co1293 O1318 1.941 . S
C1294 O1295 1.258 . S
C1294 O1296 1.263 . S
O1295 Co1292 1.970 . S
O1295 C1294 1.258 . S
O1296 Co1293 1.966 . S
O1296 C1294 1.263 . S
C1297 O1298 1.235 . S
C1297 O1324 1.289 . S
O1298 C1297 1.235 . S
C1299 C1301 1.400 . S
C1299 N1302 1.351 . S
C1299 C1304 1.501 . S
C1300 C1301 1.387 . S
C1300 N1303 1.341 . S
C1301 C1299 1.400 . S
C1301 C1300 1.387 . S
N1302 Co1293 2.022 . S
N1302 C1299 1.351 . S
N1302 N1303 1.365 . S
N1303 C1300 1.341 . S
N1303 N1302 1.365 . S
N1303 H1323 0.862 . S
C1304 C1299 1.501 . S
C1304 H1305 0.961 . S
C1304 H1306 0.961 . S
C1304 H1307 0.960 . S
H1305 C1304 0.961 . S
H1306 C1304 0.961 . S
H1307 C1304 0.960 . S
C1308 N1309 1.342 . S
C1308 C1312 1.401 . S
C1308 C1313 1.499 . S
N1309 Co1292 1.989 . S
N1309 C1308 1.342 . S
N1309 N1310 1.388 . S
N1310 Co1293 1.993 . S
N1310 N1309 1.388 . S
N1310 C1311 1.346 . S
C1311 N1310 1.346 . S
C1311 C1312 1.396 . S
C1311 C1321 1.510 . S
C1312 C1308 1.401 . S
C1312 C1311 1.396 . S
C1313 C1308 1.499 . S
C1313 H1314 0.959 . S
C1313 H1315 0.960 . S
C1313 H1316 0.961 . S
H1314 C1313 0.959 . S
H1315 C1313 0.960 . S
H1316 C1313 0.961 . S
O1317 Co1292 1.967 . S
O1317 C1325 1.258 . S
O1318 Co1293 1.941 . S
O1318 C1325 1.266 . S
H1319 C1321 0.959 . S
H1320 C1321 0.961 . S
C1321 C1311 1.510 . S
C1321 H1319 0.959 . S
C1321 H1320 0.961 . S
C1321 H1322 0.960 . S
H1322 C1321 0.960 . S
H1323 N1303 0.862 . S
O1324 Co1292 1.920 . S
O1324 C1297 1.289 . S
C1325 O1317 1.258 . S
C1325 O1318 1.266 . S
Co1326 O1329 1.970 . S
Co1326 N1343 1.989 . S
Co1326 O1351 1.967 . S
Co1326 O1358 1.920 . S
Co1327 O1330 1.966 . S
Co1327 N1336 2.022 . S
Co1327 N1344 1.993 . S
Co1327 O1352 1.941 . S
C1328 O1329 1.258 . S
C1328 O1330 1.263 . S
O1329 Co1326 1.970 . S
O1329 C1328 1.258 . S
O1330 Co1327 1.966 . S
O1330 C1328 1.263 . S
C1331 O1332 1.235 . S
C1331 O1358 1.289 . S
O1332 C1331 1.235 . S
C1333 C1335 1.400 . S
C1333 N1336 1.351 . S
C1333 C1338 1.501 . S
C1334 C1335 1.387 . S
C1334 N1337 1.341 . S
C1335 C1333 1.400 . S
C1335 C1334 1.387 . S
N1336 Co1327 2.022 . S
N1336 C1333 1.351 . S
N1336 N1337 1.365 . S
N1337 C1334 1.341 . S
N1337 N1336 1.365 . S
N1337 H1357 0.862 . S
C1338 C1333 1.501 . S
C1338 H1339 0.961 . S
C1338 H1340 0.961 . S
C1338 H1341 0.960 . S
H1339 C1338 0.961 . S
H1340 C1338 0.961 . S
H1341 C1338 0.960 . S
C1342 N1343 1.342 . S
C1342 C1346 1.401 . S
C1342 C1347 1.499 . S
N1343 Co1326 1.989 . S
N1343 C1342 1.342 . S
N1343 N1344 1.388 . S
N1344 Co1327 1.993 . S
N1344 N1343 1.388 . S
N1344 C1345 1.346 . S
C1345 N1344 1.346 . S
C1345 C1346 1.396 . S
C1345 C1355 1.510 . S
C1346 C1342 1.401 . S
C1346 C1345 1.396 . S
C1347 C1342 1.499 . S
C1347 H1348 0.959 . S
C1347 H1349 0.960 . S
C1347 H1350 0.961 . S
H1348 C1347 0.959 . S
H1349 C1347 0.960 . S
H1350 C1347 0.961 . S
O1351 Co1326 1.967 . S
O1351 C1359 1.258 . S
O1352 Co1327 1.941 . S
O1352 C1359 1.266 . S
H1353 C1355 0.959 . S
H1354 C1355 0.961 . S
C1355 C1345 1.510 . S
C1355 H1353 0.959 . S
C1355 H1354 0.961 . S
C1355 H1356 0.960 . S
H1356 C1355 0.960 . S
H1357 N1337 0.862 . S
O1358 Co1326 1.920 . S
O1358 C1331 1.289 . S
C1359 O1351 1.258 . S
C1359 O1352 1.266 . S
Co1360 O1363 1.970 . S
Co1360 N1377 1.989 . S
Co1360 O1385 1.967 . S
Co1360 O1392 1.920 . S
Co1361 O1364 1.966 . S
Co1361 N1370 2.022 . S
Co1361 N1378 1.993 . S
Co1361 O1386 1.941 . S
C1362 O1363 1.258 . S
C1362 O1364 1.263 . S
O1363 Co1360 1.970 . S
O1363 C1362 1.258 . S
O1364 Co1361 1.966 . S
O1364 C1362 1.263 . S
C1365 O1366 1.235 . S
C1365 O1392 1.289 1_545 S
O1366 C1365 1.235 . S
C1367 C1369 1.400 . S
C1367 N1370 1.351 . S
C1367 C1372 1.501 . S
C1368 C1369 1.387 . S
C1368 N1371 1.341 . S
C1369 C1367 1.400 . S
C1369 C1368 1.387 . S
N1370 Co1361 2.022 . S
N1370 C1367 1.351 . S
N1370 N1371 1.365 . S
N1371 C1368 1.341 . S
N1371 N1370 1.365 . S
N1371 H1391 0.862 . S
C1372 C1367 1.501 . S
C1372 H1373 0.961 . S
C1372 H1374 0.961 . S
C1372 H1375 0.960 . S
H1373 C1372 0.961 . S
H1374 C1372 0.961 . S
H1375 C1372 0.960 . S
C1376 N1377 1.342 . S
C1376 C1380 1.401 . S
C1376 C1381 1.499 . S
N1377 Co1360 1.989 . S
N1377 C1376 1.342 . S
N1377 N1378 1.388 . S
N1378 Co1361 1.993 . S
N1378 N1377 1.388 . S
N1378 C1379 1.346 . S
C1379 N1378 1.346 . S
C1379 C1380 1.396 . S
C1379 C1389 1.510 . S
C1380 C1376 1.401 . S
C1380 C1379 1.396 . S
C1381 C1376 1.499 . S
C1381 H1382 0.959 . S
C1381 H1383 0.960 . S
C1381 H1384 0.961 . S
H1382 C1381 0.959 . S
H1383 C1381 0.960 . S
H1384 C1381 0.961 . S
O1385 Co1360 1.967 . S
O1385 C1393 1.258 . S
O1386 Co1361 1.941 . S
O1386 C1393 1.266 . S
H1387 C1389 0.959 . S
H1388 C1389 0.961 . S
C1389 C1379 1.510 . S
C1389 H1387 0.959 . S
C1389 H1388 0.961 . S
C1389 H1390 0.960 . S
H1390 C1389 0.960 . S
H1391 N1371 0.862 . S
O1392 Co1360 1.920 . S
O1392 C1365 1.289 1_565 S
C1393 O1385 1.258 . S
C1393 O1386 1.266 . S
Co1394 O1397 1.970 . S
Co1394 N1411 1.989 . S
Co1394 O1419 1.967 . S
Co1394 O1426 1.920 . S
Co1395 O1398 1.966 . S
Co1395 N1404 2.022 . S
Co1395 N1412 1.993 . S
Co1395 O1420 1.941 . S
C1396 O1397 1.258 . S
C1396 O1398 1.263 . S
O1397 Co1394 1.970 . S
O1397 C1396 1.258 . S
O1398 Co1395 1.966 . S
O1398 C1396 1.263 . S
C1399 O1400 1.235 . S
C1399 O1426 1.289 . S
O1400 C1399 1.235 . S
C1401 C1403 1.400 . S
C1401 N1404 1.351 . S
C1401 C1406 1.501 . S
C1402 C1403 1.387 . S
C1402 N1405 1.341 . S
C1403 C1401 1.400 . S
C1403 C1402 1.387 . S
N1404 Co1395 2.022 . S
N1404 C1401 1.351 . S
N1404 N1405 1.365 . S
N1405 C1402 1.341 . S
N1405 N1404 1.365 . S
N1405 H1425 0.862 . S
C1406 C1401 1.501 . S
C1406 H1407 0.961 . S
C1406 H1408 0.961 . S
C1406 H1409 0.960 . S
H1407 C1406 0.961 . S
H1408 C1406 0.961 . S
H1409 C1406 0.960 . S
C1410 N1411 1.342 . S
C1410 C1414 1.401 . S
C1410 C1415 1.499 . S
N1411 Co1394 1.989 . S
N1411 C1410 1.342 . S
N1411 N1412 1.388 . S
N1412 Co1395 1.993 . S
N1412 N1411 1.388 . S
N1412 C1413 1.346 . S
C1413 N1412 1.346 . S
C1413 C1414 1.396 . S
C1413 C1423 1.510 . S
C1414 C1410 1.401 . S
C1414 C1413 1.396 . S
C1415 C1410 1.499 . S
C1415 H1416 0.959 . S
C1415 H1417 0.960 . S
C1415 H1418 0.961 . S
H1416 C1415 0.959 . S
H1417 C1415 0.960 . S
H1418 C1415 0.961 . S
O1419 Co1394 1.967 . S
O1419 C1427 1.258 . S
O1420 Co1395 1.941 . S
O1420 C1427 1.266 . S
H1421 C1423 0.959 . S
H1422 C1423 0.961 . S
C1423 C1413 1.510 . S
C1423 H1421 0.959 . S
C1423 H1422 0.961 . S
C1423 H1424 0.960 . S
H1424 C1423 0.960 . S
H1425 N1405 0.862 . S
O1426 Co1394 1.920 . S
O1426 C1399 1.289 . S
C1427 O1419 1.258 . S
C1427 O1420 1.266 . S
Co1428 O1431 1.970 . S
Co1428 N1445 1.989 . S
Co1428 O1453 1.967 . S
Co1428 O1460 1.920 . S
Co1429 O1432 1.966 . S
Co1429 N1438 2.022 . S
Co1429 N1446 1.993 . S
Co1429 O1454 1.941 . S
C1430 O1431 1.258 . S
C1430 O1432 1.263 . S
O1431 Co1428 1.970 . S
O1431 C1430 1.258 . S
O1432 Co1429 1.966 . S
O1432 C1430 1.263 . S
C1433 O1434 1.235 . S
C1433 O1460 1.289 . S
O1434 C1433 1.235 . S
C1435 C1437 1.400 . S
C1435 N1438 1.351 . S
C1435 C1440 1.501 . S
C1436 C1437 1.387 . S
C1436 N1439 1.341 . S
C1437 C1435 1.400 . S
C1437 C1436 1.387 . S
N1438 Co1429 2.022 . S
N1438 C1435 1.351 . S
N1438 N1439 1.365 . S
N1439 C1436 1.341 . S
N1439 N1438 1.365 . S
N1439 H1459 0.862 . S
C1440 C1435 1.501 . S
C1440 H1441 0.961 . S
C1440 H1442 0.961 . S
C1440 H1443 0.960 . S
H1441 C1440 0.961 . S
H1442 C1440 0.961 . S
H1443 C1440 0.960 . S
C1444 N1445 1.342 . S
C1444 C1448 1.401 . S
C1444 C1449 1.499 . S
N1445 Co1428 1.989 . S
N1445 C1444 1.342 . S
N1445 N1446 1.388 . S
N1446 Co1429 1.993 . S
N1446 N1445 1.388 . S
N1446 C1447 1.346 . S
C1447 N1446 1.346 . S
C1447 C1448 1.396 . S
C1447 C1457 1.510 . S
C1448 C1444 1.401 . S
C1448 C1447 1.396 . S
C1449 C1444 1.499 . S
C1449 H1450 0.959 . S
C1449 H1451 0.960 . S
C1449 H1452 0.961 . S
H1450 C1449 0.959 . S
H1451 C1449 0.960 . S
H1452 C1449 0.961 . S
O1453 Co1428 1.967 . S
O1453 C1461 1.258 . S
O1454 Co1429 1.941 . S
O1454 C1461 1.266 . S
H1455 C1457 0.959 . S
H1456 C1457 0.961 . S
C1457 C1447 1.510 . S
C1457 H1455 0.959 . S
C1457 H1456 0.961 . S
C1457 H1458 0.960 . S
H1458 C1457 0.960 . S
H1459 N1439 0.862 . S
O1460 Co1428 1.920 . S
O1460 C1433 1.289 . S
C1461 O1453 1.258 . S
C1461 O1454 1.266 . S
Co1462 O1465 1.970 . S
Co1462 N1479 1.989 . S
Co1462 O1487 1.967 . S
Co1462 O1494 1.920 . S
Co1463 O1466 1.966 . S
Co1463 N1472 2.022 1_556 S
Co1463 N1480 1.987 1_556 S
Co1463 O1488 1.941 . S
C1464 O1465 1.258 . S
C1464 O1466 1.263 . S
O1465 Co1462 1.970 . S
O1465 C1464 1.258 . S
O1466 Co1463 1.966 . S
O1466 C1464 1.263 . S
C1467 O1468 1.235 . S
C1467 O1494 1.289 . S
O1468 C1467 1.235 . S
C1469 C1471 1.400 . S
C1469 N1472 1.351 . S
C1469 C1474 1.501 . S
C1470 C1471 1.387 . S
C1470 N1473 1.341 . S
C1471 C1469 1.400 . S
C1471 C1470 1.387 . S
N1472 Co1463 2.022 1_554 S
N1472 C1469 1.351 . S
N1472 N1473 1.365 . S
N1473 C1470 1.341 . S
N1473 N1472 1.365 . S
N1473 H1493 0.862 1_554 S
C1474 C1469 1.501 . S
C1474 H1475 0.961 . S
C1474 H1476 0.961 . S
C1474 H1477 0.960 . S
H1475 C1474 0.961 . S
H1476 C1474 0.961 . S
H1477 C1474 0.960 . S
C1478 N1479 1.342 . S
C1478 C1482 1.401 1_556 S
C1478 C1483 1.499 . S
N1479 Co1462 1.989 . S
N1479 C1478 1.342 . S
N1479 N1480 1.380 1_556 S
N1480 Co1463 1.987 1_554 S
N1480 N1479 1.380 1_554 S
N1480 C1481 1.356 . S
C1481 N1480 1.356 . S
C1481 C1482 1.396 . S
C1481 C1491 1.510 . S
C1482 C1478 1.401 1_554 S
C1482 C1481 1.396 . S
C1483 C1478 1.499 . S
C1483 H1484 0.959 . S
C1483 H1485 0.970 . S
C1483 H1486 0.961 . S
H1484 C1483 0.959 . S
H1485 C1483 0.970 . S
H1486 C1483 0.961 . S
O1487 Co1462 1.967 . S
O1487 C1495 1.258 . S
O1488 Co1463 1.941 . S
O1488 C1495 1.266 . S
H1489 C1491 0.959 . S
H1490 C1491 0.961 . S
C1491 C1481 1.510 . S
C1491 H1489 0.959 . S
C1491 H1490 0.961 . S
C1491 H1492 0.960 . S
H1492 C1491 0.960 . S
H1493 N1473 0.862 1_556 S
O1494 Co1462 1.920 . S
O1494 C1467 1.289 . S
C1495 O1487 1.258 . S
C1495 O1488 1.266 . S
Co1496 O1499 1.970 . S
Co1496 N1513 1.989 . S
Co1496 O1521 1.967 . S
Co1496 O1528 1.920 . S
Co1497 O1500 1.966 . S
Co1497 N1506 2.022 . S
Co1497 N1514 1.993 . S
Co1497 O1522 1.941 . S
C1498 O1499 1.258 . S
C1498 O1500 1.263 . S
O1499 Co1496 1.970 . S
O1499 C1498 1.258 . S
O1500 Co1497 1.966 . S
O1500 C1498 1.263 . S
C1501 O1502 1.235 . S
C1501 O1528 1.289 . S
O1502 C1501 1.235 . S
C1503 C1505 1.400 . S
C1503 N1506 1.351 . S
C1503 C1508 1.501 . S
C1504 C1505 1.387 . S
C1504 N1507 1.341 . S
C1505 C1503 1.400 . S
C1505 C1504 1.387 . S
N1506 Co1497 2.022 . S
N1506 C1503 1.351 . S
N1506 N1507 1.365 . S
N1507 C1504 1.341 . S
N1507 N1506 1.365 . S
N1507 H1527 0.862 . S
C1508 C1503 1.501 . S
C1508 H1509 0.961 . S
C1508 H1510 0.961 . S
C1508 H1511 0.960 . S
H1509 C1508 0.961 . S
H1510 C1508 0.961 . S
H1511 C1508 0.960 . S
C1512 N1513 1.342 . S
C1512 C1516 1.401 . S
C1512 C1517 1.499 . S
N1513 Co1496 1.989 . S
N1513 C1512 1.342 . S
N1513 N1514 1.388 . S
N1514 Co1497 1.993 . S
N1514 N1513 1.388 . S
N1514 C1515 1.346 . S
C1515 N1514 1.346 . S
C1515 C1516 1.396 . S
C1515 C1525 1.510 . S
C1516 C1512 1.401 . S
C1516 C1515 1.396 . S
C1517 C1512 1.499 . S
C1517 H1518 0.959 . S
C1517 H1519 0.960 . S
C1517 H1520 0.961 . S
H1518 C1517 0.959 . S
H1519 C1517 0.960 . S
H1520 C1517 0.961 . S
O1521 Co1496 1.967 . S
O1521 C1529 1.258 . S
O1522 Co1497 1.941 . S
O1522 C1529 1.266 . S
H1523 C1525 0.959 . S
H1524 C1525 0.961 . S
C1525 C1515 1.510 . S
C1525 H1523 0.959 . S
C1525 H1524 0.961 . S
C1525 H1526 0.960 . S
H1526 C1525 0.960 . S
H1527 N1507 0.862 . S
O1528 Co1496 1.920 . S
O1528 C1501 1.289 . S
C1529 O1521 1.258 . S
C1529 O1522 1.266 . S
Co1530 O1533 1.970 . S
Co1530 N1547 1.989 . S
Co1530 O1555 1.967 . S
Co1530 O1562 1.920 . S
Co1531 O1534 1.966 . S
Co1531 N1540 2.022 1_554 S
Co1531 N1548 1.987 1_554 S
Co1531 O1556 1.941 . S
C1532 O1533 1.258 . S
C1532 O1534 1.263 . S
O1533 Co1530 1.970 . S
O1533 C1532 1.258 . S
O1534 Co1531 1.966 . S
O1534 C1532 1.263 . S
C1535 O1536 1.235 . S
C1535 O1562 1.289 1_565 S
O1536 C1535 1.235 . S
C1537 C1539 1.400 . S
C1537 N1540 1.351 . S
C1537 C1542 1.501 . S
C1538 C1539 1.387 . S
C1538 N1541 1.341 . S
C1539 C1537 1.400 . S
C1539 C1538 1.387 . S
N1540 Co1531 2.022 1_556 S
N1540 C1537 1.351 . S
N1540 N1541 1.365 . S
N1541 C1538 1.341 . S
N1541 N1540 1.365 . S
N1541 H1561 0.862 1_556 S
C1542 C1537 1.501 . S
C1542 H1543 0.961 . S
C1542 H1544 0.961 . S
C1542 H1545 0.960 . S
H1543 C1542 0.961 . S
H1544 C1542 0.961 . S
H1545 C1542 0.960 . S
C1546 N1547 1.342 . S
C1546 C1550 1.401 1_554 S
C1546 C1551 1.499 . S
N1547 Co1530 1.989 . S
N1547 C1546 1.342 . S
N1547 N1548 1.380 1_554 S
N1548 Co1531 1.987 1_556 S
N1548 N1547 1.380 1_556 S
N1548 C1549 1.356 . S
C1549 N1548 1.356 . S
C1549 C1550 1.396 . S
C1549 C1559 1.510 . S
C1550 C1546 1.401 1_556 S
C1550 C1549 1.396 . S
C1551 C1546 1.499 . S
C1551 H1552 0.959 . S
C1551 H1553 0.970 . S
C1551 H1554 0.961 . S
H1552 C1551 0.959 . S
H1553 C1551 0.970 . S
H1554 C1551 0.961 . S
O1555 Co1530 1.967 . S
O1555 C1563 1.258 . S
O1556 Co1531 1.941 . S
O1556 C1563 1.266 . S
H1557 C1559 0.959 . S
H1558 C1559 0.961 . S
C1559 C1549 1.510 . S
C1559 H1557 0.959 . S
C1559 H1558 0.961 . S
C1559 H1560 0.960 . S
H1560 C1559 0.960 . S
H1561 N1541 0.862 1_554 S
O1562 Co1530 1.920 . S
O1562 C1535 1.289 1_545 S
C1563 O1555 1.258 . S
C1563 O1556 1.266 . S
Co1564 O1567 1.970 . S
Co1564 N1581 1.989 . S
Co1564 O1589 1.967 . S
Co1564 O1596 1.920 . S
Co1565 O1568 1.966 . S
Co1565 N1574 2.022 . S
Co1565 N1582 1.993 . S
Co1565 O1590 1.941 . S
C1566 O1567 1.258 . S
C1566 O1568 1.263 . S
O1567 Co1564 1.970 . S
O1567 C1566 1.258 . S
O1568 Co1565 1.966 . S
O1568 C1566 1.263 . S
C1569 O1570 1.235 . S
C1569 O1596 1.289 . S
O1570 C1569 1.235 . S
C1571 C1573 1.400 . S
C1571 N1574 1.351 . S
C1571 C1576 1.501 . S
C1572 C1573 1.387 . S
C1572 N1575 1.341 . S
C1573 C1571 1.400 . S
C1573 C1572 1.387 . S
N1574 Co1565 2.022 . S
N1574 C1571 1.351 . S
N1574 N1575 1.365 . S
N1575 C1572 1.341 . S
N1575 N1574 1.365 . S
N1575 H1595 0.862 . S
C1576 C1571 1.501 . S
C1576 H1577 0.961 . S
C1576 H1578 0.961 . S
C1576 H1579 0.960 . S
H1577 C1576 0.961 . S
H1578 C1576 0.961 . S
H1579 C1576 0.960 . S
C1580 N1581 1.342 . S
C1580 C1584 1.401 . S
C1580 C1585 1.499 . S
N1581 Co1564 1.989 . S
N1581 C1580 1.342 . S
N1581 N1582 1.388 . S
N1582 Co1565 1.993 . S
N1582 N1581 1.388 . S
N1582 C1583 1.346 . S
C1583 N1582 1.346 . S
C1583 C1584 1.396 . S
C1583 C1593 1.510 . S
C1584 C1580 1.401 . S
C1584 C1583 1.396 . S
C1585 C1580 1.499 . S
C1585 H1586 0.959 . S
C1585 H1587 0.960 . S
C1585 H1588 0.961 . S
H1586 C1585 0.959 . S
H1587 C1585 0.960 . S
H1588 C1585 0.961 . S
O1589 Co1564 1.967 . S
O1589 C1597 1.258 . S
O1590 Co1565 1.941 . S
O1590 C1597 1.266 . S
H1591 C1593 0.959 . S
H1592 C1593 0.961 . S
C1593 C1583 1.510 . S
C1593 H1591 0.959 . S
C1593 H1592 0.961 . S
C1593 H1594 0.960 . S
H1594 C1593 0.960 . S
H1595 N1575 0.862 . S
O1596 Co1564 1.920 . S
O1596 C1569 1.289 . S
C1597 O1589 1.258 . S
C1597 O1590 1.266 . S
Co1598 O1601 1.970 . S
Co1598 N1615 1.989 . S
Co1598 O1623 1.967 . S
Co1598 O1630 1.920 . S
Co1599 O1602 1.966 . S
Co1599 N1608 2.022 . S
Co1599 N1616 1.993 . S
Co1599 O1624 1.941 . S
C1600 O1601 1.258 . S
C1600 O1602 1.263 . S
O1601 Co1598 1.970 . S
O1601 C1600 1.258 . S
O1602 Co1599 1.966 . S
O1602 C1600 1.263 . S
C1603 O1604 1.235 . S
C1603 O1630 1.289 . S
O1604 C1603 1.235 . S
C1605 C1607 1.400 . S
C1605 N1608 1.351 . S
C1605 C1610 1.501 . S
C1606 C1607 1.387 . S
C1606 N1609 1.341 . S
C1607 C1605 1.400 . S
C1607 C1606 1.387 . S
N1608 Co1599 2.022 . S
N1608 C1605 1.351 . S
N1608 N1609 1.365 . S
N1609 C1606 1.341 . S
N1609 N1608 1.365 . S
N1609 H1629 0.862 . S
C1610 C1605 1.501 . S
C1610 H1611 0.961 . S
C1610 H1612 0.961 . S
C1610 H1613 0.960 . S
H1611 C1610 0.961 . S
H1612 C1610 0.961 . S
H1613 C1610 0.960 . S
C1614 N1615 1.342 . S
C1614 C1618 1.401 . S
C1614 C1619 1.499 . S
N1615 Co1598 1.989 . S
N1615 C1614 1.342 . S
N1615 N1616 1.388 . S
N1616 Co1599 1.993 . S
N1616 N1615 1.388 . S
N1616 C1617 1.346 . S
C1617 N1616 1.346 . S
C1617 C1618 1.396 . S
C1617 C1627 1.510 . S
C1618 C1614 1.401 . S
C1618 C1617 1.396 . S
C1619 C1614 1.499 . S
C1619 H1620 0.959 . S
C1619 H1621 0.960 . S
C1619 H1622 0.961 . S
H1620 C1619 0.959 . S
H1621 C1619 0.960 . S
H1622 C1619 0.961 . S
O1623 Co1598 1.967 . S
O1623 C1631 1.258 . S
O1624 Co1599 1.941 . S
O1624 C1631 1.266 . S
H1625 C1627 0.959 . S
H1626 C1627 0.961 . S
C1627 C1617 1.510 . S
C1627 H1625 0.959 . S
C1627 H1626 0.961 . S
C1627 H1628 0.960 . S
H1628 C1627 0.960 . S
H1629 N1609 0.862 . S
O1630 Co1598 1.920 . S
O1630 C1603 1.289 . S
C1631 O1623 1.258 . S
C1631 O1624 1.266 . S
C1632 C1633 1.369 . S
C1632 C1634 1.419 . S
C1632 H1636 0.930 . S
C1633 C1632 1.369 . S
C1633 C1642 1.429 . S
C1634 C1632 1.419 . S
C1634 C1635 1.363 . S
C1634 H1637 0.929 . S
C1635 C1634 1.363 . S
C1635 C1641 1.428 . S
H1636 C1632 0.930 . S
H1637 C1634 0.929 . S
S1638 N1639 1.613 . S
S1638 N1640 1.610 . S
N1639 S1638 1.613 . S
N1639 C1642 1.350 . S
N1640 S1638 1.610 . S
N1640 C1641 1.351 . S
C1641 C1635 1.428 . S
C1641 N1640 1.351 . S
C1641 C1642 1.434 . S
C1642 C1633 1.429 . S
C1642 N1639 1.350 . S
C1642 C1641 1.434 . S
C1643 C1644 1.369 . S
C1643 C1645 1.419 . S
C1643 H1647 0.930 . S
C1644 C1643 1.369 . S
C1644 C1653 1.429 . S
C1645 C1643 1.419 . S
C1645 C1646 1.363 . S
C1645 H1648 0.929 . S
C1646 C1645 1.363 . S
C1646 C1652 1.428 . S
H1647 C1643 0.930 . S
H1648 C1645 0.929 . S
S1649 N1650 1.613 . S
S1649 N1651 1.610 . S
N1650 S1649 1.613 . S
N1650 C1653 1.350 . S
N1651 S1649 1.610 . S
N1651 C1652 1.351 . S
C1652 C1646 1.428 . S
C1652 N1651 1.351 . S
C1652 C1653 1.434 . S
C1653 C1644 1.429 . S
C1653 N1650 1.350 . S
C1653 C1652 1.434 . S
C1654 C1655 1.369 . S
C1654 C1656 1.419 . S
C1654 H1658 0.930 . S
C1655 C1654 1.369 . S
C1655 C1664 1.429 . S
C1656 C1654 1.419 . S
C1656 C1657 1.363 . S
C1656 H1659 0.929 . S
C1657 C1656 1.363 . S
C1657 C1663 1.428 . S
H1658 C1654 0.930 . S
H1659 C1656 0.929 . S
S1660 N1661 1.613 . S
S1660 N1662 1.610 . S
N1661 S1660 1.613 . S
N1661 C1664 1.350 . S
N1662 S1660 1.610 . S
N1662 C1663 1.351 . S
C1663 C1657 1.428 . S
C1663 N1662 1.351 . S
C1663 C1664 1.434 . S
C1664 C1655 1.429 . S
C1664 N1661 1.350 . S
C1664 C1663 1.434 . S
C1665 C1666 1.369 . S
C1665 C1667 1.419 . S
C1665 H1669 0.930 . S
C1666 C1665 1.369 . S
C1666 C1675 1.429 . S
C1667 C1665 1.419 . S
C1667 C1668 1.363 . S
C1667 H1670 0.929 . S
C1668 C1667 1.363 . S
C1668 C1674 1.428 . S
H1669 C1665 0.930 . S
H1670 C1667 0.929 . S
S1671 N1672 1.613 . S
S1671 N1673 1.610 . S
N1672 S1671 1.613 . S
N1672 C1675 1.350 . S
N1673 S1671 1.610 . S
N1673 C1674 1.351 . S
C1674 C1668 1.428 . S
C1674 N1673 1.351 . S
C1674 C1675 1.434 . S
C1675 C1666 1.429 . S
C1675 N1672 1.350 . S
C1675 C1674 1.434 . S
C1676 C1677 1.369 . S
C1676 C1678 1.419 . S
C1676 H1680 0.930 . S
C1677 C1676 1.369 . S
C1677 C1686 1.429 . S
C1678 C1676 1.419 . S
C1678 C1679 1.363 . S
C1678 H1681 0.929 . S
C1679 C1678 1.363 . S
C1679 C1685 1.428 . S
H1680 C1676 0.930 . S
H1681 C1678 0.929 . S
S1682 N1683 1.613 . S
S1682 N1684 1.610 . S
N1683 S1682 1.613 . S
N1683 C1686 1.350 . S
N1684 S1682 1.610 . S
N1684 C1685 1.351 . S
C1685 C1679 1.428 . S
C1685 N1684 1.351 . S
C1685 C1686 1.434 . S
C1686 C1677 1.429 . S
C1686 N1683 1.350 . S
C1686 C1685 1.434 . S
C1687 C1688 1.369 . S
C1687 C1689 1.419 . S
C1687 H1691 0.930 . S
C1688 C1687 1.369 . S
C1688 C1697 1.429 . S
C1689 C1687 1.419 . S
C1689 C1690 1.363 . S
C1689 H1692 0.929 . S
C1690 C1689 1.363 . S
C1690 C1696 1.428 . S
H1691 C1687 0.930 . S
H1692 C1689 0.929 . S
S1693 N1694 1.613 . S
S1693 N1695 1.610 . S
N1694 S1693 1.613 . S
N1694 C1697 1.350 . S
N1695 S1693 1.610 . S
N1695 C1696 1.351 . S
C1696 C1690 1.428 . S
C1696 N1695 1.351 . S
C1696 C1697 1.434 . S
C1697 C1688 1.429 . S
C1697 N1694 1.350 . S
C1697 C1696 1.434 . S
C1698 C1699 1.369 . S
C1698 C1700 1.419 . S
C1698 H1702 0.930 . S
C1699 C1698 1.369 . S
C1699 C1708 1.429 . S
C1700 C1698 1.419 . S
C1700 C1701 1.363 . S
C1700 H1703 0.929 . S
C1701 C1700 1.363 . S
C1701 C1707 1.428 . S
H1702 C1698 0.930 . S
H1703 C1700 0.929 . S
S1704 N1705 1.613 . S
S1704 N1706 1.610 . S
N1705 S1704 1.613 . S
N1705 C1708 1.350 . S
N1706 S1704 1.610 . S
N1706 C1707 1.351 . S
C1707 C1701 1.428 . S
C1707 N1706 1.351 . S
C1707 C1708 1.434 . S
C1708 C1699 1.429 . S
C1708 N1705 1.350 . S
C1708 C1707 1.434 . S
C1709 C1710 1.369 . S
C1709 C1711 1.419 . S
C1709 H1713 0.930 . S
C1710 C1709 1.369 . S
C1710 C1719 1.429 . S
C1711 C1709 1.419 . S
C1711 C1712 1.363 . S
C1711 H1714 0.929 . S
C1712 C1711 1.363 . S
C1712 C1718 1.428 . S
H1713 C1709 0.930 . S
H1714 C1711 0.929 . S
S1715 N1716 1.613 . S
S1715 N1717 1.610 . S
N1716 S1715 1.613 . S
N1716 C1719 1.350 . S
N1717 S1715 1.610 . S
N1717 C1718 1.351 . S
C1718 C1712 1.428 . S
C1718 N1717 1.351 . S
C1718 C1719 1.434 . S
C1719 C1710 1.429 . S
C1719 N1716 1.350 . S
C1719 C1718 1.434 . S
C1720 C1721 1.369 . S
C1720 C1722 1.419 . S
C1720 H1724 0.930 . S
C1721 C1720 1.369 . S
C1721 C1730 1.429 . S
C1722 C1720 1.419 . S
C1722 C1723 1.363 . S
C1722 H1725 0.929 . S
C1723 C1722 1.363 . S
C1723 C1729 1.428 . S
H1724 C1720 0.930 . S
H1725 C1722 0.929 . S
S1726 N1727 1.613 1_565 S
S1726 N1728 1.610 1_565 S
N1727 S1726 1.613 1_545 S
N1727 C1730 1.350 . S
N1728 S1726 1.610 1_545 S
N1728 C1729 1.351 . S
C1729 C1723 1.428 . S
C1729 N1728 1.351 . S
C1729 C1730 1.434 . S
C1730 C1721 1.429 . S
C1730 N1727 1.350 . S
C1730 C1729 1.434 . S
C1731 C1732 1.369 . S
C1731 C1733 1.419 . S
C1731 H1735 0.930 . S
C1732 C1731 1.369 . S
C1732 C1741 1.429 . S
C1733 C1731 1.419 . S
C1733 C1734 1.363 . S
C1733 H1736 0.929 . S
C1734 C1733 1.363 . S
C1734 C1740 1.428 . S
H1735 C1731 0.930 . S
H1736 C1733 0.929 . S
S1737 N1738 1.613 . S
S1737 N1739 1.610 . S
N1738 S1737 1.613 . S
N1738 C1741 1.350 . S
N1739 S1737 1.610 . S
N1739 C1740 1.351 . S
C1740 C1734 1.428 . S
C1740 N1739 1.351 . S
C1740 C1741 1.434 . S
C1741 C1732 1.429 . S
C1741 N1738 1.350 . S
C1741 C1740 1.434 . S
C1742 C1743 1.369 . S
C1742 C1744 1.419 . S
C1742 H1746 0.930 . S
C1743 C1742 1.369 . S
C1743 C1752 1.429 . S
C1744 C1742 1.419 . S
C1744 C1745 1.363 . S
C1744 H1747 0.929 . S
C1745 C1744 1.363 . S
C1745 C1751 1.428 . S
H1746 C1742 0.930 . S
H1747 C1744 0.929 . S
S1748 N1749 1.613 1_545 S
S1748 N1750 1.610 1_545 S
N1749 S1748 1.613 1_565 S
N1749 C1752 1.350 . S
N1750 S1748 1.610 1_565 S
N1750 C1751 1.351 . S
C1751 C1745 1.428 . S
C1751 N1750 1.351 . S
C1751 C1752 1.434 . S
C1752 C1743 1.429 . S
C1752 N1749 1.350 . S
C1752 C1751 1.434 . S
C1753 C1754 1.369 . S
C1753 C1755 1.419 . S
C1753 H1757 0.930 . S
C1754 C1753 1.369 . S
C1754 C1763 1.429 . S
C1755 C1753 1.419 . S
C1755 C1756 1.363 . S
C1755 H1758 0.929 . S
C1756 C1755 1.363 . S
C1756 C1762 1.428 . S
H1757 C1753 0.930 . S
H1758 C1755 0.929 . S
S1759 N1760 1.613 . S
S1759 N1761 1.610 . S
N1760 S1759 1.613 . S
N1760 C1763 1.350 . S
N1761 S1759 1.610 . S
N1761 C1762 1.351 . S
C1762 C1756 1.428 . S
C1762 N1761 1.351 . S
C1762 C1763 1.434 . S
C1763 C1754 1.429 . S
C1763 N1760 1.350 . S
C1763 C1762 1.434 . S
C1764 C1765 1.369 . S
C1764 C1766 1.419 . S
C1764 H1768 0.930 . S
C1765 C1764 1.369 . S
C1765 C1774 1.429 . S
C1766 C1764 1.419 . S
C1766 C1767 1.363 . S
C1766 H1769 0.929 . S
C1767 C1766 1.363 . S
C1767 C1773 1.428 . S
H1768 C1764 0.930 . S
H1769 C1766 0.929 . S
S1770 N1771 1.613 . S
S1770 N1772 1.610 . S
N1771 S1770 1.613 . S
N1771 C1774 1.350 . S
N1772 S1770 1.610 . S
N1772 C1773 1.351 . S
C1773 C1767 1.428 . S
C1773 N1772 1.351 . S
C1773 C1774 1.434 . S
C1774 C1765 1.429 . S
C1774 N1771 1.350 . S
C1774 C1773 1.434 . S
C1775 C1776 1.369 . S
C1775 C1777 1.419 . S
C1775 H1779 0.930 . S
C1776 C1775 1.369 . S
C1776 C1785 1.429 . S
C1777 C1775 1.419 . S
C1777 C1778 1.363 . S
C1777 H1780 0.929 . S
C1778 C1777 1.363 . S
C1778 C1784 1.428 . S
H1779 C1775 0.930 . S
H1780 C1777 0.929 . S
S1781 N1782 1.613 . S
S1781 N1783 1.610 . S
N1782 S1781 1.613 . S
N1782 C1785 1.350 . S
N1783 S1781 1.610 . S
N1783 C1784 1.351 . S
C1784 C1778 1.428 . S
C1784 N1783 1.351 . S
C1784 C1785 1.434 . S
C1785 C1776 1.429 . S
C1785 N1782 1.350 . S
C1785 C1784 1.434 . S
C1786 C1787 1.369 . S
C1786 C1788 1.419 . S
C1786 H1790 0.930 . S
C1787 C1786 1.369 . S
C1787 C1796 1.429 . S
C1788 C1786 1.419 . S
C1788 C1789 1.363 . S
C1788 H1791 0.929 . S
C1789 C1788 1.363 . S
C1789 C1795 1.428 . S
H1790 C1786 0.930 . S
H1791 C1788 0.929 . S
S1792 N1793 1.613 1_565 S
S1792 N1794 1.610 1_565 S
N1793 S1792 1.613 1_545 S
N1793 C1796 1.350 . S
N1794 S1792 1.610 1_545 S
N1794 C1795 1.351 . S
C1795 C1789 1.428 . S
C1795 N1794 1.351 . S
C1795 C1796 1.434 . S
C1796 C1787 1.429 . S
C1796 N1793 1.350 . S
C1796 C1795 1.434 . S
C1797 C1798 1.369 . S
C1797 C1799 1.419 . S
C1797 H1801 0.930 . S
C1798 C1797 1.369 . S
C1798 C1807 1.429 . S
C1799 C1797 1.419 . S
C1799 C1800 1.363 . S
C1799 H1802 0.929 . S
C1800 C1799 1.363 . S
C1800 C1806 1.428 . S
H1801 C1797 0.930 . S
H1802 C1799 0.929 . S
S1803 N1804 1.613 . S
S1803 N1805 1.610 . S
N1804 S1803 1.613 . S
N1804 C1807 1.350 . S
N1805 S1803 1.610 . S
N1805 C1806 1.351 . S
C1806 C1800 1.428 . S
C1806 N1805 1.351 . S
C1806 C1807 1.434 . S
C1807 C1798 1.429 . S
C1807 N1804 1.350 . S
C1807 C1806 1.434 . S
C1808 C1809 1.369 . S
C1808 C1810 1.419 . S
C1808 H1812 0.930 . S
C1809 C1808 1.369 . S
C1809 C1818 1.429 . S
C1810 C1808 1.419 . S
C1810 C1811 1.363 . S
C1810 H1813 0.929 . S
C1811 C1810 1.363 . S
C1811 C1817 1.428 . S
H1812 C1808 0.930 . S
H1813 C1810 0.929 . S
S1814 N1815 1.613 . S
S1814 N1816 1.610 . S
N1815 S1814 1.613 . S
N1815 C1818 1.350 . S
N1816 S1814 1.610 . S
N1816 C1817 1.351 . S
C1817 C1811 1.428 . S
C1817 N1816 1.351 . S
C1817 C1818 1.434 . S
C1818 C1809 1.429 . S
C1818 N1815 1.350 . S
C1818 C1817 1.434 . S
C1819 C1820 1.369 . S
C1819 C1821 1.419 . S
C1819 H1823 0.930 . S
C1820 C1819 1.369 . S
C1820 C1829 1.429 . S
C1821 C1819 1.419 . S
C1821 C1822 1.363 . S
C1821 H1824 0.929 . S
C1822 C1821 1.363 . S
C1822 C1828 1.428 . S
H1823 C1819 0.930 . S
H1824 C1821 0.929 . S
S1825 N1826 1.613 . S
S1825 N1827 1.610 . S
N1826 S1825 1.613 . S
N1826 C1829 1.350 . S
N1827 S1825 1.610 . S
N1827 C1828 1.351 . S
C1828 C1822 1.428 . S
C1828 N1827 1.351 . S
C1828 C1829 1.434 . S
C1829 C1820 1.429 . S
C1829 N1826 1.350 . S
C1829 C1828 1.434 . S
C1830 C1831 1.369 . S
C1830 C1832 1.419 . S
C1830 H1834 0.930 . S
C1831 C1830 1.369 . S
C1831 C1840 1.429 . S
C1832 C1830 1.419 . S
C1832 C1833 1.363 . S
C1832 H1835 0.929 . S
C1833 C1832 1.363 . S
C1833 C1839 1.428 . S
H1834 C1830 0.930 . S
H1835 C1832 0.929 . S
S1836 N1837 1.613 . S
S1836 N1838 1.610 . S
N1837 S1836 1.613 . S
N1837 C1840 1.350 . S
N1838 S1836 1.610 . S
N1838 C1839 1.351 . S
C1839 C1833 1.428 . S
C1839 N1838 1.351 . S
C1839 C1840 1.434 . S
C1840 C1831 1.429 . S
C1840 N1837 1.350 . S
C1840 C1839 1.434 . S
C1841 C1842 1.369 . S
C1841 C1843 1.419 . S
C1841 H1845 0.930 . S
C1842 C1841 1.369 . S
C1842 C1851 1.429 . S
C1843 C1841 1.419 . S
C1843 C1844 1.363 . S
C1843 H1846 0.929 . S
C1844 C1843 1.363 . S
C1844 C1850 1.428 . S
H1845 C1841 0.930 . S
H1846 C1843 0.929 . S
S1847 N1848 1.613 . S
S1847 N1849 1.610 . S
N1848 S1847 1.613 . S
N1848 C1851 1.350 . S
N1849 S1847 1.610 . S
N1849 C1850 1.351 . S
C1850 C1844 1.428 . S
C1850 N1849 1.351 . S
C1850 C1851 1.434 . S
C1851 C1842 1.429 . S
C1851 N1848 1.350 . S
C1851 C1850 1.434 . S
C1852 C1853 1.369 . S
C1852 C1854 1.419 . S
C1852 H1856 0.930 . S
C1853 C1852 1.369 . S
C1853 C1862 1.429 . S
C1854 C1852 1.419 . S
C1854 C1855 1.363 . S
C1854 H1857 0.929 . S
C1855 C1854 1.363 . S
C1855 C1861 1.428 . S
H1856 C1852 0.930 . S
H1857 C1854 0.929 . S
S1858 N1859 1.613 . S
S1858 N1860 1.610 . S
N1859 S1858 1.613 . S
N1859 C1862 1.350 . S
N1860 S1858 1.610 . S
N1860 C1861 1.351 . S
C1861 C1855 1.428 . S
C1861 N1860 1.351 . S
C1861 C1862 1.434 . S
C1862 C1853 1.429 . S
C1862 N1859 1.350 . S
C1862 C1861 1.434 . S
C1863 C1864 1.369 . S
C1863 C1865 1.419 . S
C1863 H1867 0.930 . S
C1864 C1863 1.369 . S
C1864 C1873 1.429 . S
C1865 C1863 1.419 . S
C1865 C1866 1.363 . S
C1865 H1868 0.929 . S
C1866 C1865 1.363 . S
C1866 C1872 1.428 . S
H1867 C1863 0.930 . S
H1868 C1865 0.929 . S
S1869 N1870 1.613 . S
S1869 N1871 1.610 . S
N1870 S1869 1.613 . S
N1870 C1873 1.350 . S
N1871 S1869 1.610 . S
N1871 C1872 1.351 . S
C1872 C1866 1.428 . S
C1872 N1871 1.351 . S
C1872 C1873 1.434 . S
C1873 C1864 1.429 . S
C1873 N1870 1.350 . S
C1873 C1872 1.434 . S
C1874 C1875 1.369 . S
C1874 C1876 1.419 . S
C1874 H1878 0.930 . S
C1875 C1874 1.369 . S
C1875 C1884 1.429 . S
C1876 C1874 1.419 . S
C1876 C1877 1.363 . S
C1876 H1879 0.929 . S
C1877 C1876 1.363 . S
C1877 C1883 1.428 . S
H1878 C1874 0.930 . S
H1879 C1876 0.929 . S
S1880 N1881 1.613 . S
S1880 N1882 1.610 . S
N1881 S1880 1.613 . S
N1881 C1884 1.350 . S
N1882 S1880 1.610 . S
N1882 C1883 1.351 . S
C1883 C1877 1.428 . S
C1883 N1882 1.351 . S
C1883 C1884 1.434 . S
C1884 C1875 1.429 . S
C1884 N1881 1.350 . S
C1884 C1883 1.434 . S
C1885 C1886 1.369 . S
C1885 C1887 1.419 . S
C1885 H1889 0.930 . S
C1886 C1885 1.369 . S
C1886 C1895 1.429 . S
C1887 C1885 1.419 . S
C1887 C1888 1.363 . S
C1887 H1890 0.929 . S
C1888 C1887 1.363 . S
C1888 C1894 1.428 . S
H1889 C1885 0.930 . S
H1890 C1887 0.929 . S
S1891 N1892 1.613 . S
S1891 N1893 1.610 . S
N1892 S1891 1.613 . S
N1892 C1895 1.350 . S
N1893 S1891 1.610 . S
N1893 C1894 1.351 . S
C1894 C1888 1.428 . S
C1894 N1893 1.351 . S
C1894 C1895 1.434 . S
C1895 C1886 1.429 . S
C1895 N1892 1.350 . S
C1895 C1894 1.434 . S
C1896 C1897 1.369 . S
C1896 C1898 1.419 . S
C1896 H1900 0.930 . S
C1897 C1896 1.369 . S
C1897 C1906 1.429 . S
C1898 C1896 1.419 . S
C1898 C1899 1.363 . S
C1898 H1901 0.929 . S
C1899 C1898 1.363 . S
C1899 C1905 1.428 . S
H1900 C1896 0.930 . S
H1901 C1898 0.929 . S
S1902 N1903 1.613 1_556 S
S1902 N1904 1.610 1_556 S
N1903 S1902 1.613 1_554 S
N1903 C1906 1.350 . S
N1904 S1902 1.610 1_554 S
N1904 C1905 1.351 . S
C1905 C1899 1.428 . S
C1905 N1904 1.351 . S
C1905 C1906 1.434 . S
C1906 C1897 1.429 . S
C1906 N1903 1.350 . S
C1906 C1905 1.434 . S
C1907 C1908 1.369 . S
C1907 C1909 1.419 . S
C1907 H1911 0.930 . S
C1908 C1907 1.369 . S
C1908 C1917 1.429 . S
C1909 C1907 1.419 . S
C1909 C1910 1.363 . S
C1909 H1912 0.929 . S
C1910 C1909 1.363 . S
C1910 C1916 1.428 . S
H1911 C1907 0.930 . S
H1912 C1909 0.929 . S
S1913 N1914 1.613 . S
S1913 N1915 1.610 . S
N1914 S1913 1.613 . S
N1914 C1917 1.350 . S
N1915 S1913 1.610 . S
N1915 C1916 1.351 . S
C1916 C1910 1.428 . S
C1916 N1915 1.351 . S
C1916 C1917 1.434 . S
C1917 C1908 1.429 . S
C1917 N1914 1.350 . S
C1917 C1916 1.434 . S
C1918 C1919 1.369 . S
C1918 C1920 1.419 . S
C1918 H1922 0.930 . S
C1919 C1918 1.369 . S
C1919 C1928 1.429 . S
C1920 C1918 1.419 . S
C1920 C1921 1.363 . S
C1920 H1923 0.929 . S
C1921 C1920 1.363 . S
C1921 C1927 1.428 . S
H1922 C1918 0.930 . S
H1923 C1920 0.929 . S
S1924 N1925 1.613 . S
S1924 N1926 1.610 . S
N1925 S1924 1.613 . S
N1925 C1928 1.350 . S
N1926 S1924 1.610 . S
N1926 C1927 1.351 . S
C1927 C1921 1.428 . S
C1927 N1926 1.351 . S
C1927 C1928 1.434 . S
C1928 C1919 1.429 . S
C1928 N1925 1.350 . S
C1928 C1927 1.434 . S
C1929 C1930 1.369 . S
C1929 C1931 1.419 . S
C1929 H1933 0.930 . S
C1930 C1929 1.369 . S
C1930 C1939 1.429 . S
C1931 C1929 1.419 . S
C1931 C1932 1.363 . S
C1931 H1934 0.929 . S
C1932 C1931 1.363 . S
C1932 C1938 1.428 . S
H1933 C1929 0.930 . S
H1934 C1931 0.929 . S
S1935 N1936 1.613 . S
S1935 N1937 1.610 . S
N1936 S1935 1.613 . S
N1936 C1939 1.350 . S
N1937 S1935 1.610 . S
N1937 C1938 1.351 . S
C1938 C1932 1.428 . S
C1938 N1937 1.351 . S
C1938 C1939 1.434 . S
C1939 C1930 1.429 . S
C1939 N1936 1.350 . S
C1939 C1938 1.434 . S
C1940 C1941 1.369 . S
C1940 C1942 1.419 . S
C1940 H1944 0.930 . S
C1941 C1940 1.369 . S
C1941 C1950 1.429 . S
C1942 C1940 1.419 . S
C1942 C1943 1.363 . S
C1942 H1945 0.929 . S
C1943 C1942 1.363 . S
C1943 C1949 1.428 . S
H1944 C1940 0.930 . S
H1945 C1942 0.929 . S
S1946 N1947 1.613 . S
S1946 N1948 1.610 . S
N1947 S1946 1.613 . S
N1947 C1950 1.350 . S
N1948 S1946 1.610 . S
N1948 C1949 1.351 . S
C1949 C1943 1.428 . S
C1949 N1948 1.351 . S
C1949 C1950 1.434 . S
C1950 C1941 1.429 . S
C1950 N1947 1.350 . S
C1950 C1949 1.434 . S
C1951 C1952 1.369 . S
C1951 C1953 1.419 . S
C1951 H1955 0.930 . S
C1952 C1951 1.369 . S
C1952 C1961 1.429 . S
C1953 C1951 1.419 . S
C1953 C1954 1.363 . S
C1953 H1956 0.929 . S
C1954 C1953 1.363 . S
C1954 C1960 1.428 . S
H1955 C1951 0.930 . S
H1956 C1953 0.929 . S
S1957 N1958 1.613 . S
S1957 N1959 1.610 . S
N1958 S1957 1.613 . S
N1958 C1961 1.350 . S
N1959 S1957 1.610 . S
N1959 C1960 1.351 . S
C1960 C1954 1.428 . S
C1960 N1959 1.351 . S
C1960 C1961 1.434 . S
C1961 C1952 1.429 . S
C1961 N1958 1.350 . S
C1961 C1960 1.434 . S
C1962 C1963 1.369 . S
C1962 C1964 1.419 . S
C1962 H1966 0.930 . S
C1963 C1962 1.369 . S
C1963 C1972 1.429 . S
C1964 C1962 1.419 . S
C1964 C1965 1.363 . S
C1964 H1967 0.929 . S
C1965 C1964 1.363 . S
C1965 C1971 1.428 . S
H1966 C1962 0.930 . S
H1967 C1964 0.929 . S
S1968 N1969 1.613 . S
S1968 N1970 1.610 . S
N1969 S1968 1.613 . S
N1969 C1972 1.350 . S
N1970 S1968 1.610 . S
N1970 C1971 1.351 . S
C1971 C1965 1.428 . S
C1971 N1970 1.351 . S
C1971 C1972 1.434 . S
C1972 C1963 1.429 . S
C1972 N1969 1.350 . S
C1972 C1971 1.434 . S
C1973 C1974 1.369 . S
C1973 C1975 1.419 . S
C1973 H1977 0.930 . S
C1974 C1973 1.369 . S
C1974 C1983 1.429 . S
C1975 C1973 1.419 . S
C1975 C1976 1.363 . S
C1975 H1978 0.929 . S
C1976 C1975 1.363 . S
C1976 C1982 1.428 . S
H1977 C1973 0.930 . S
H1978 C1975 0.929 . S
S1979 N1980 1.613 . S
S1979 N1981 1.610 . S
N1980 S1979 1.613 . S
N1980 C1983 1.350 . S
N1981 S1979 1.610 . S
N1981 C1982 1.351 . S
C1982 C1976 1.428 . S
C1982 N1981 1.351 . S
C1982 C1983 1.434 . S
C1983 C1974 1.429 . S
C1983 N1980 1.350 . S
C1983 C1982 1.434 . S
C1984 C1985 1.369 . S
C1984 C1986 1.419 . S
C1984 H1988 0.930 . S
C1985 C1984 1.369 . S
C1985 C1994 1.429 . S
C1986 C1984 1.419 . S
C1986 C1987 1.363 . S
C1986 H1989 0.929 . S
C1987 C1986 1.363 . S
C1987 C1993 1.428 . S
H1988 C1984 0.930 . S
H1989 C1986 0.929 . S
S1990 N1991 1.613 . S
S1990 N1992 1.610 . S
N1991 S1990 1.613 . S
N1991 C1994 1.350 . S
N1992 S1990 1.610 . S
N1992 C1993 1.351 . S
C1993 C1987 1.428 . S
C1993 N1992 1.351 . S
C1993 C1994 1.434 . S
C1994 C1985 1.429 . S
C1994 N1991 1.350 . S
C1994 C1993 1.434 . S
C1995 C1996 1.369 . S
C1995 C1997 1.419 . S
C1995 H1999 0.930 . S
C1996 C1995 1.369 . S
C1996 C2005 1.429 . S
C1997 C1995 1.419 . S
C1997 C1998 1.363 . S
C1997 H2000 0.929 . S
C1998 C1997 1.363 . S
C1998 C2004 1.428 . S
H1999 C1995 0.930 . S
H2000 C1997 0.929 . S
S2001 N2002 1.613 . S
S2001 N2003 1.610 . S
N2002 S2001 1.613 . S
N2002 C2005 1.350 . S
N2003 S2001 1.610 . S
N2003 C2004 1.351 . S
C2004 C1998 1.428 . S
C2004 N2003 1.351 . S
C2004 C2005 1.434 . S
C2005 C1996 1.429 . S
C2005 N2002 1.350 . S
C2005 C2004 1.434 . S
C2006 C2007 1.369 . S
C2006 C2008 1.419 . S
C2006 H2010 0.930 . S
C2007 C2006 1.369 . S
C2007 C2016 1.429 . S
C2008 C2006 1.419 . S
C2008 C2009 1.363 . S
C2008 H2011 0.929 . S
C2009 C2008 1.363 . S
C2009 C2015 1.428 . S
H2010 C2006 0.930 . S
H2011 C2008 0.929 . S
S2012 N2013 1.613 . S
S2012 N2014 1.610 . S
N2013 S2012 1.613 . S
N2013 C2016 1.350 . S
N2014 S2012 1.610 . S
N2014 C2015 1.351 . S
C2015 C2009 1.428 . S
C2015 N2014 1.351 . S
C2015 C2016 1.434 . S
C2016 C2007 1.429 . S
C2016 N2013 1.350 . S
C2016 C2015 1.434 . S
C2017 C2018 1.369 . S
C2017 C2019 1.419 . S
C2017 H2021 0.930 . S
C2018 C2017 1.369 . S
C2018 C2027 1.429 . S
C2019 C2017 1.419 . S
C2019 C2020 1.363 . S
C2019 H2022 0.929 . S
C2020 C2019 1.363 . S
C2020 C2026 1.428 . S
H2021 C2017 0.930 . S
H2022 C2019 0.929 . S
S2023 N2024 1.613 . S
S2023 N2025 1.610 . S
N2024 S2023 1.613 . S
N2024 C2027 1.350 . S
N2025 S2023 1.610 . S
N2025 C2026 1.351 . S
C2026 C2020 1.428 . S
C2026 N2025 1.351 . S
C2026 C2027 1.434 . S
C2027 C2018 1.429 . S
C2027 N2024 1.350 . S
C2027 C2026 1.434 . S
C2028 C2029 1.369 . S
C2028 C2030 1.419 . S
C2028 H2032 0.930 . S
C2029 C2028 1.369 . S
C2029 C2038 1.429 . S
C2030 C2028 1.419 . S
C2030 C2031 1.363 . S
C2030 H2033 0.929 . S
C2031 C2030 1.363 . S
C2031 C2037 1.428 . S
H2032 C2028 0.930 . S
H2033 C2030 0.929 . S
S2034 N2035 1.615 . S
S2034 N2036 1.610 1_655 S
N2035 S2034 1.615 . S
N2035 C2038 1.345 1_655 S
N2036 S2034 1.610 1_455 S
N2036 C2037 1.351 . S
C2037 C2031 1.428 . S
C2037 N2036 1.351 . S
C2037 C2038 1.434 . S
C2038 C2029 1.429 . S
C2038 N2035 1.345 1_455 S
C2038 C2037 1.434 . S
C2039 C2040 1.369 . S
C2039 C2041 1.419 . S
C2039 H2043 0.930 . S
C2040 C2039 1.369 . S
C2040 C2049 1.429 . S
C2041 C2039 1.419 . S
C2041 C2042 1.363 . S
C2041 H2044 0.929 . S
C2042 C2041 1.363 . S
C2042 C2048 1.428 . S
H2043 C2039 0.930 . S
H2044 C2041 0.929 . S
S2045 N2046 1.613 . S
S2045 N2047 1.610 . S
N2046 S2045 1.613 . S
N2046 C2049 1.350 . S
N2047 S2045 1.610 . S
N2047 C2048 1.351 . S
C2048 C2042 1.428 . S
C2048 N2047 1.351 . S
C2048 C2049 1.434 . S
C2049 C2040 1.429 . S
C2049 N2046 1.350 . S
C2049 C2048 1.434 . S
C2050 C2051 1.369 . S
C2050 C2052 1.419 . S
C2050 H2054 0.930 . S
C2051 C2050 1.369 . S
C2051 C2060 1.429 . S
C2052 C2050 1.419 . S
C2052 C2053 1.363 . S
C2052 H2055 0.929 . S
C2053 C2052 1.363 . S
C2053 C2059 1.428 . S
H2054 C2050 0.930 . S
H2055 C2052 0.929 . S
S2056 N2057 1.613 . S
S2056 N2058 1.610 . S
N2057 S2056 1.613 . S
N2057 C2060 1.350 . S
N2058 S2056 1.610 . S
N2058 C2059 1.351 . S
C2059 C2053 1.428 . S
C2059 N2058 1.351 . S
C2059 C2060 1.434 . S
C2060 C2051 1.429 . S
C2060 N2057 1.350 . S
C2060 C2059 1.434 . S
C2061 C2062 1.369 . S
C2061 C2063 1.419 . S
C2061 H2065 0.930 . S
C2062 C2061 1.369 . S
C2062 C2071 1.429 . S
C2063 C2061 1.419 . S
C2063 C2064 1.363 . S
C2063 H2066 0.929 . S
C2064 C2063 1.363 . S
C2064 C2070 1.428 . S
H2065 C2061 0.930 . S
H2066 C2063 0.929 . S
S2067 N2068 1.613 . S
S2067 N2069 1.610 . S
N2068 S2067 1.613 . S
N2068 C2071 1.350 . S
N2069 S2067 1.610 . S
N2069 C2070 1.351 . S
C2070 C2064 1.428 . S
C2070 N2069 1.351 . S
C2070 C2071 1.434 . S
C2071 C2062 1.429 . S
C2071 N2068 1.350 . S
C2071 C2070 1.434 . S
C2072 C2073 1.369 . S
C2072 C2074 1.419 . S
C2072 H2076 0.930 . S
C2073 C2072 1.369 . S
C2073 C2082 1.429 . S
C2074 C2072 1.419 . S
C2074 C2075 1.363 . S
C2074 H2077 0.956 . S
C2075 C2074 1.363 . S
C2075 C2081 1.428 . S
H2076 C2072 0.930 . S
H2077 C2074 0.956 . S
S2078 N2079 1.613 . S
S2078 N2080 1.610 . S
N2079 S2078 1.613 . S
N2079 C2082 1.350 . S
N2080 S2078 1.610 . S
N2080 C2081 1.351 . S
C2081 C2075 1.428 . S
C2081 N2080 1.351 . S
C2081 C2082 1.434 . S
C2082 C2073 1.429 . S
C2082 N2079 1.350 . S
C2082 C2081 1.434 . S
C2083 C2084 1.369 . S
C2083 C2085 1.419 . S
C2083 H2087 0.930 . S
C2084 C2083 1.369 . S
C2084 C2093 1.429 . S
C2085 C2083 1.419 . S
C2085 C2086 1.363 . S
C2085 H2088 0.929 . S
C2086 C2085 1.363 . S
C2086 C2092 1.428 . S
H2087 C2083 0.930 . S
H2088 C2085 0.929 . S
S2089 N2090 1.613 . S
S2089 N2091 1.610 . S
N2090 S2089 1.613 . S
N2090 C2093 1.350 . S
N2091 S2089 1.610 . S
N2091 C2092 1.351 . S
C2092 C2086 1.428 . S
C2092 N2091 1.351 . S
C2092 C2093 1.434 . S
C2093 C2084 1.429 . S
C2093 N2090 1.350 . S
C2093 C2092 1.434 . S
C2094 C2095 1.369 . S
C2094 C2096 1.419 . S
C2094 H2098 0.930 . S
C2095 C2094 1.369 . S
C2095 C2104 1.429 . S
C2096 C2094 1.419 . S
C2096 C2097 1.363 . S
C2096 H2099 0.929 . S
C2097 C2096 1.363 . S
C2097 C2103 1.428 . S
H2098 C2094 0.930 . S
H2099 C2096 0.929 . S
S2100 N2101 1.613 . S
S2100 N2102 1.610 . S
N2101 S2100 1.613 . S
N2101 C2104 1.350 . S
N2102 S2100 1.610 . S
N2102 C2103 1.351 . S
C2103 C2097 1.428 . S
C2103 N2102 1.351 . S
C2103 C2104 1.434 . S
C2104 C2095 1.429 . S
C2104 N2101 1.350 . S
C2104 C2103 1.434 . S
C2105 C2106 1.369 . S
C2105 C2107 1.419 . S
C2105 H2109 0.930 . S
C2106 C2105 1.369 . S
C2106 C2115 1.429 . S
C2107 C2105 1.419 . S
C2107 C2108 1.363 . S
C2107 H2110 0.929 . S
C2108 C2107 1.363 . S
C2108 C2114 1.428 . S
H2109 C2105 0.930 . S
H2110 C2107 0.929 . S
S2111 N2112 1.613 . S
S2111 N2113 1.610 . S
N2112 S2111 1.613 . S
N2112 C2115 1.350 . S
N2113 S2111 1.610 . S
N2113 C2114 1.351 . S
C2114 C2108 1.428 . S
C2114 N2113 1.351 . S
C2114 C2115 1.434 . S
C2115 C2106 1.429 . S
C2115 N2112 1.350 . S
C2115 C2114 1.434 . S
C2116 C2117 1.369 . S
C2116 C2118 1.419 . S
C2116 H2120 0.930 . S
C2117 C2116 1.369 . S
C2117 C2126 1.429 . S
C2118 C2116 1.419 . S
C2118 C2119 1.363 . S
C2118 H2121 0.929 . S
C2119 C2118 1.363 . S
C2119 C2125 1.428 . S
H2120 C2116 0.930 . S
H2121 C2118 0.929 . S
S2122 N2123 1.613 . S
S2122 N2124 1.610 . S
N2123 S2122 1.613 . S
N2123 C2126 1.350 . S
N2124 S2122 1.610 . S
N2124 C2125 1.351 . S
C2125 C2119 1.428 . S
C2125 N2124 1.351 . S
C2125 C2126 1.434 . S
C2126 C2117 1.429 . S
C2126 N2123 1.350 . S
C2126 C2125 1.434 . S
C2127 C2128 1.369 . S
C2127 C2129 1.419 . S
C2127 H2131 0.930 . S
C2128 C2127 1.369 . S
C2128 C2137 1.429 . S
C2129 C2127 1.419 . S
C2129 C2130 1.363 . S
C2129 H2132 0.929 . S
C2130 C2129 1.363 . S
C2130 C2136 1.428 . S
H2131 C2127 0.930 . S
H2132 C2129 0.929 . S
S2133 N2134 1.613 . S
S2133 N2135 1.610 . S
N2134 S2133 1.613 . S
N2134 C2137 1.350 . S
N2135 S2133 1.610 . S
N2135 C2136 1.351 . S
C2136 C2130 1.428 . S
C2136 N2135 1.351 . S
C2136 C2137 1.434 . S
C2137 C2128 1.429 . S
C2137 N2134 1.350 . S
C2137 C2136 1.434 . S
C2138 C2139 1.369 . S
C2138 C2140 1.419 . S
C2138 H2142 0.930 . S
C2139 C2138 1.369 . S
C2139 C2148 1.429 . S
C2140 C2138 1.419 . S
C2140 C2141 1.363 . S
C2140 H2143 0.929 . S
C2141 C2140 1.363 . S
C2141 C2147 1.428 . S
H2142 C2138 0.930 . S
H2143 C2140 0.929 . S
S2144 N2145 1.613 . S
S2144 N2146 1.610 . S
N2145 S2144 1.613 . S
N2145 C2148 1.350 . S
N2146 S2144 1.610 . S
N2146 C2147 1.351 . S
C2147 C2141 1.428 . S
C2147 N2146 1.351 . S
C2147 C2148 1.434 . S
C2148 C2139 1.429 . S
C2148 N2145 1.350 . S
C2148 C2147 1.434 . S
C2149 C2150 1.369 . S
C2149 C2151 1.419 . S
C2149 H2153 0.930 . S
C2150 C2149 1.369 . S
C2150 C2159 1.429 . S
C2151 C2149 1.419 . S
C2151 C2152 1.363 . S
C2151 H2154 0.929 . S
C2152 C2151 1.363 . S
C2152 C2158 1.428 . S
H2153 C2149 0.930 . S
H2154 C2151 0.929 . S
S2155 N2156 1.613 . S
S2155 N2157 1.610 . S
N2156 S2155 1.613 . S
N2156 C2159 1.350 . S
N2157 S2155 1.610 . S
N2157 C2158 1.351 . S
C2158 C2152 1.428 . S
C2158 N2157 1.351 . S
C2158 C2159 1.434 . S
C2159 C2150 1.429 . S
C2159 N2156 1.350 . S
C2159 C2158 1.434 . S
C2160 C2161 1.369 . S
C2160 C2162 1.419 . S
C2160 H2164 0.930 . S
C2161 C2160 1.369 . S
C2161 C2170 1.429 1_455 S
C2162 C2160 1.419 . S
C2162 C2163 1.363 1_455 S
C2162 H2165 0.929 . S
C2163 C2162 1.363 1_655 S
C2163 C2169 1.428 . S
H2164 C2160 0.930 . S
H2165 C2162 0.929 . S
S2166 N2167 1.613 . S
S2166 N2168 1.610 . S
N2167 S2166 1.613 . S
N2167 C2170 1.350 . S
N2168 S2166 1.610 . S
N2168 C2169 1.351 . S
C2169 C2163 1.428 . S
C2169 N2168 1.351 . S
C2169 C2170 1.434 . S
C2170 C2161 1.429 1_655 S
C2170 N2167 1.350 . S
C2170 C2169 1.434 . S
C2171 C2172 1.369 . S
C2171 C2173 1.419 1_455 S
C2171 H2175 0.930 . S
C2172 C2171 1.369 . S
C2172 C2181 1.429 . S
C2173 C2171 1.419 1_655 S
C2173 C2174 1.363 . S
C2173 H2176 0.929 . S
C2174 C2173 1.363 . S
C2174 C2180 1.428 . S
H2175 C2171 0.930 . S
H2176 C2173 0.929 . S
S2177 N2178 1.613 . S
S2177 N2179 1.610 1_455 S
N2178 S2177 1.613 . S
N2178 C2181 1.350 . S
N2179 S2177 1.610 1_655 S
N2179 C2180 1.351 . S
C2180 C2174 1.428 . S
C2180 N2179 1.351 . S
C2180 C2181 1.434 1_655 S
C2181 C2172 1.429 . S
C2181 N2178 1.350 . S
C2181 C2180 1.434 1_455 S
C2182 C2183 1.369 . S
C2182 C2184 1.419 . S
C2182 H2186 0.930 . S
C2183 C2182 1.369 . S
C2183 C2192 1.429 . S
C2184 C2182 1.419 . S
C2184 C2185 1.363 . S
C2184 H2187 0.929 . S
C2185 C2184 1.363 . S
C2185 C2191 1.428 . S
H2186 C2182 0.930 . S
H2187 C2184 0.929 . S
S2188 N2189 1.613 . S
S2188 N2190 1.610 . S
N2189 S2188 1.613 . S
N2189 C2192 1.350 . S
N2190 S2188 1.610 . S
N2190 C2191 1.351 . S
C2191 C2185 1.428 . S
C2191 N2190 1.351 . S
C2191 C2192 1.434 . S
C2192 C2183 1.429 . S
C2192 N2189 1.350 . S
C2192 C2191 1.434 . S
C2193 C2194 1.369 . S
C2193 C2195 1.419 . S
C2193 H2197 0.930 . S
C2194 C2193 1.369 . S
C2194 C2203 1.429 . S
C2195 C2193 1.419 . S
C2195 C2196 1.363 . S
C2195 H2198 0.929 . S
C2196 C2195 1.363 . S
C2196 C2202 1.428 . S
H2197 C2193 0.930 . S
H2198 C2195 0.929 . S
S2199 N2200 1.613 . S
S2199 N2201 1.610 . S
N2200 S2199 1.613 . S
N2200 C2203 1.350 . S
N2201 S2199 1.610 . S
N2201 C2202 1.351 . S
C2202 C2196 1.428 . S
C2202 N2201 1.351 . S
C2202 C2203 1.434 . S
C2203 C2194 1.429 . S
C2203 N2200 1.350 . S
C2203 C2202 1.434 . S
C2204 C2205 1.369 1_455 S
C2204 C2206 1.419 . S
C2204 H2208 0.930 . S
C2205 C2204 1.369 1_655 S
C2205 C2214 1.429 . S
C2206 C2204 1.419 . S
C2206 C2207 1.363 . S
C2206 H2209 0.929 . S
C2207 C2206 1.363 . S
C2207 C2213 1.428 1_455 S
H2208 C2204 0.930 . S
H2209 C2206 0.929 . S
S2210 N2211 1.613 . S
S2210 N2212 1.610 . S
N2211 S2210 1.613 . S
N2211 C2214 1.350 . S
N2212 S2210 1.610 . S
N2212 C2213 1.351 . S
C2213 C2207 1.428 1_655 S
C2213 N2212 1.351 . S
C2213 C2214 1.434 . S
C2214 C2205 1.429 . S
C2214 N2211 1.350 . S
C2214 C2213 1.434 . S
C2215 C2216 1.369 . S
C2215 C2217 1.419 . S
C2215 H2219 0.930 . S
C2216 C2215 1.369 . S
C2216 C2225 1.429 . S
C2217 C2215 1.419 . S
C2217 C2218 1.363 . S
C2217 H2220 0.929 . S
C2218 C2217 1.363 . S
C2218 C2224 1.428 . S
H2219 C2215 0.930 . S
H2220 C2217 0.929 . S
S2221 N2222 1.613 . S
S2221 N2223 1.610 . S
N2222 S2221 1.613 . S
N2222 C2225 1.350 . S
N2223 S2221 1.610 . S
N2223 C2224 1.351 . S
C2224 C2218 1.428 . S
C2224 N2223 1.351 . S
C2224 C2225 1.434 . S
C2225 C2216 1.429 . S
C2225 N2222 1.350 . S
C2225 C2224 1.434 . S
C2226 C2227 1.369 . S
C2226 C2228 1.419 . S
C2226 H2230 0.930 . S
C2227 C2226 1.369 . S
C2227 C2236 1.429 . S
C2228 C2226 1.419 . S
C2228 C2229 1.363 . S
C2228 H2231 0.929 . S
C2229 C2228 1.363 . S
C2229 C2235 1.428 . S
H2230 C2226 0.930 . S
H2231 C2228 0.929 . S
S2232 N2233 1.613 . S
S2232 N2234 1.610 . S
N2233 S2232 1.613 . S
N2233 C2236 1.350 . S
N2234 S2232 1.610 . S
N2234 C2235 1.351 . S
C2235 C2229 1.428 . S
C2235 N2234 1.351 . S
C2235 C2236 1.434 . S
C2236 C2227 1.429 . S
C2236 N2233 1.350 . S
C2236 C2235 1.434 . S
C2237 C2238 1.369 . S
C2237 C2239 1.419 1_655 S
C2237 H2241 0.930 . S
C2238 C2237 1.369 . S
C2238 C2247 1.429 . S
C2239 C2237 1.419 1_455 S
C2239 C2240 1.363 . S
C2239 H2242 0.929 . S
C2240 C2239 1.363 . S
C2240 C2246 1.428 . S
H2241 C2237 0.930 . S
H2242 C2239 0.929 . S
S2243 N2244 1.582 1_455 S
S2243 N2245 1.642 . S
N2244 S2243 1.582 1_655 S
N2244 C2247 1.350 . S
N2245 S2243 1.642 . S
N2245 C2246 1.351 . S
C2246 C2240 1.428 . S
C2246 N2245 1.351 . S
C2246 C2247 1.434 1_455 S
C2247 C2238 1.429 . S
C2247 N2244 1.350 . S
C2247 C2246 1.434 1_655 S
C2248 C2249 1.369 . S
C2248 C2250 1.419 . S
C2248 H2252 0.930 . S
C2249 C2248 1.369 . S
C2249 C2258 1.429 1_545 S
C2250 C2248 1.419 . S
C2250 C2251 1.363 1_545 S
C2250 H2253 0.929 . S
C2251 C2250 1.363 1_565 S
C2251 C2257 1.428 . S
H2252 C2248 0.930 . S
H2253 C2250 0.929 . S
S2254 N2255 1.613 . S
S2254 N2256 1.610 . S
N2255 S2254 1.613 . S
N2255 C2258 1.350 . S
N2256 S2254 1.610 . S
N2256 C2257 1.351 . S
C2257 C2251 1.428 . S
C2257 N2256 1.351 . S
C2257 C2258 1.434 . S
C2258 C2249 1.429 1_565 S
C2258 N2255 1.350 . S
C2258 C2257 1.434 . S
C2259 C2260 1.369 . S
C2259 C2261 1.419 . S
C2259 H2263 0.930 . S
C2260 C2259 1.369 . S
C2260 C2269 1.429 . S
C2261 C2259 1.419 . S
C2261 C2262 1.363 . S
C2261 H2264 0.929 . S
C2262 C2261 1.363 . S
C2262 C2268 1.428 . S
H2263 C2259 0.930 . S
H2264 C2261 0.929 . S
S2265 N2266 1.613 . S
S2265 N2267 1.610 . S
N2266 S2265 1.613 . S
N2266 C2269 1.350 . S
N2267 S2265 1.610 . S
N2267 C2268 1.351 . S
C2268 C2262 1.428 . S
C2268 N2267 1.351 . S
C2268 C2269 1.434 . S
C2269 C2260 1.429 . S
C2269 N2266 1.350 . S
C2269 C2268 1.434 . S
C2270 C2271 1.369 1_545 S
C2270 C2272 1.419 . S
C2270 H2274 0.930 . S
C2271 C2270 1.369 1_565 S
C2271 C2280 1.429 . S
C2272 C2270 1.419 . S
C2272 C2273 1.363 . S
C2272 H2275 0.929 . S
C2273 C2272 1.363 . S
C2273 C2279 1.428 1_545 S
H2274 C2270 0.930 . S
H2275 C2272 0.929 . S
S2276 N2277 1.613 . S
S2276 N2278 1.610 . S
N2277 S2276 1.613 . S
N2277 C2280 1.350 . S
N2278 S2276 1.610 . S
N2278 C2279 1.351 . S
C2279 C2273 1.428 1_565 S
C2279 N2278 1.351 . S
C2279 C2280 1.434 . S
C2280 C2271 1.429 . S
C2280 N2277 1.350 . S
C2280 C2279 1.434 . S
C2281 C2282 1.369 . S
C2281 C2283 1.419 1_556 S
C2281 H2285 0.930 . S
C2282 C2281 1.369 . S
C2282 C2291 1.429 . S
C2283 C2281 1.419 1_554 S
C2283 C2284 1.363 . S
C2283 H2286 0.929 . S
C2284 C2283 1.363 . S
C2284 C2290 1.428 . S
H2285 C2281 0.930 . S
H2286 C2283 0.929 . S
S2287 N2288 1.613 . S
S2287 N2289 1.610 1_556 S
N2288 S2287 1.613 . S
N2288 C2291 1.350 . S
N2289 S2287 1.610 1_554 S
N2289 C2290 1.351 . S
C2290 C2284 1.428 . S
C2290 N2289 1.351 . S
C2290 C2291 1.434 1_554 S
C2291 C2282 1.429 . S
C2291 N2288 1.350 . S
C2291 C2290 1.434 1_556 S
C2292 C2293 1.369 1_556 S
C2292 C2294 1.419 . S
C2292 H2296 0.930 . S
C2293 C2292 1.369 1_554 S
C2293 C2302 1.429 . S
C2294 C2292 1.419 . S
C2294 C2295 1.363 . S
C2294 H2297 0.929 . S
C2295 C2294 1.363 . S
C2295 C2301 1.428 1_556 S
H2296 C2292 0.930 . S
H2297 C2294 0.929 . S
S2298 N2299 1.613 . S
S2298 N2300 1.610 . S
N2299 S2298 1.613 . S
N2299 C2302 1.350 . S
N2300 S2298 1.610 . S
N2300 C2301 1.351 . S
C2301 C2295 1.428 1_554 S
C2301 N2300 1.351 . S
C2301 C2302 1.434 . S
C2302 C2293 1.429 . S
C2302 N2299 1.350 . S
C2302 C2301 1.434 . S
C2303 C2304 1.369 1_554 S
C2303 C2305 1.419 . S
C2303 H2307 0.930 . S
C2304 C2303 1.369 1_556 S
C2304 C2313 1.429 . S
C2305 C2303 1.419 . S
C2305 C2306 1.363 . S
C2305 H2308 0.929 . S
C2306 C2305 1.363 . S
C2306 C2312 1.428 1_554 S
H2307 C2303 0.930 . S
H2308 C2305 0.929 . S
S2309 N2310 1.613 . S
S2309 N2311 1.610 . S
N2310 S2309 1.613 . S
N2310 C2313 1.350 . S
N2311 S2309 1.610 . S
N2311 C2312 1.351 . S
C2312 C2306 1.428 1_556 S
C2312 N2311 1.351 . S
C2312 C2313 1.434 . S
C2313 C2304 1.429 . S
C2313 N2310 1.350 . S
C2313 C2312 1.434 . S
C2314 C2315 1.369 . S
C2314 C2316 1.419 . S
C2314 H2318 0.930 . S
C2315 C2314 1.369 . S
C2315 C2324 1.429 . S
C2316 C2314 1.419 . S
C2316 C2317 1.363 . S
C2316 H2319 0.929 . S
C2317 C2316 1.363 . S
C2317 C2323 1.428 . S
H2318 C2314 0.930 . S
H2319 C2316 0.929 . S
S2320 N2321 1.613 . S
S2320 N2322 1.610 . S
N2321 S2320 1.613 . S
N2321 C2324 1.350 . S
N2322 S2320 1.610 . S
N2322 C2323 1.351 . S
C2323 C2317 1.428 . S
C2323 N2322 1.351 . S
C2323 C2324 1.434 . S
C2324 C2315 1.429 . S
C2324 N2321 1.350 . S
C2324 C2323 1.434 . S
C2325 C2326 1.369 . S
C2325 C2327 1.419 . S
C2325 H2329 0.930 . S
C2326 C2325 1.369 . S
C2326 C2335 1.429 . S
C2327 C2325 1.419 . S
C2327 C2328 1.363 . S
C2327 H2330 0.929 . S
C2328 C2327 1.363 . S
C2328 C2334 1.428 . S
H2329 C2325 0.930 . S
H2330 C2327 0.929 . S
S2331 N2332 1.613 . S
S2331 N2333 1.610 . S
N2332 S2331 1.613 . S
N2332 C2335 1.350 . S
N2333 S2331 1.610 . S
N2333 C2334 1.351 . S
C2334 C2328 1.428 . S
C2334 N2333 1.351 . S
C2334 C2335 1.434 . S
C2335 C2326 1.429 . S
C2335 N2332 1.350 . S
C2335 C2334 1.434 . S
C2336 C2337 1.369 . S
C2336 C2338 1.419 1_565 S
C2336 H2340 0.930 . S
C2337 C2336 1.369 . S
C2337 C2346 1.429 . S
C2338 C2336 1.419 1_545 S
C2338 C2339 1.363 . S
C2338 H2341 0.929 . S
C2339 C2338 1.363 . S
C2339 C2345 1.428 . S
H2340 C2336 0.930 . S
H2341 C2338 0.929 . S
S2342 N2343 1.613 . S
S2342 N2344 1.610 1_565 S
N2343 S2342 1.613 . S
N2343 C2346 1.350 . S
N2344 S2342 1.610 1_545 S
N2344 C2345 1.351 . S
C2345 C2339 1.428 . S
C2345 N2344 1.351 . S
C2345 C2346 1.434 1_545 S
C2346 C2337 1.429 . S
C2346 N2343 1.350 . S
C2346 C2345 1.434 1_565 S
C2347 C2348 1.369 . S
C2347 C2349 1.419 . S
C2347 H2351 0.930 . S
C2348 C2347 1.369 . S
C2348 C2357 1.429 . S
C2349 C2347 1.419 . S
C2349 C2350 1.363 . S
C2349 H2352 0.929 . S
C2350 C2349 1.363 . S
C2350 C2356 1.428 . S
H2351 C2347 0.930 . S
H2352 C2349 0.929 . S
S2353 N2354 1.613 . S
S2353 N2355 1.610 . S
N2354 S2353 1.613 . S
N2354 C2357 1.350 . S
N2355 S2353 1.610 . S
N2355 C2356 1.351 . S
C2356 C2350 1.428 . S
C2356 N2355 1.351 . S
C2356 C2357 1.434 . S
C2357 C2348 1.429 . S
C2357 N2354 1.350 . S
C2357 C2356 1.434 . S
C2358 C2359 1.369 . S
C2358 C2360 1.419 . S
C2358 H2362 0.930 . S
C2359 C2358 1.369 . S
C2359 C2368 1.429 . S
C2360 C2358 1.419 . S
C2360 C2361 1.363 . S
C2360 H2363 0.929 . S
C2361 C2360 1.363 . S
C2361 C2367 1.428 . S
H2362 C2358 0.930 . S
H2363 C2360 0.929 . S
S2364 N2365 1.613 . S
S2364 N2366 1.610 . S
N2365 S2364 1.613 . S
N2365 C2368 1.350 . S
N2366 S2364 1.610 . S
N2366 C2367 1.351 . S
C2367 C2361 1.428 . S
C2367 N2366 1.351 . S
C2367 C2368 1.434 . S
C2368 C2359 1.429 . S
C2368 N2365 1.350 . S
C2368 C2367 1.434 . S
C2369 C2370 1.369 . S
C2369 C2371 1.419 . S
C2369 H2373 0.930 . S
C2370 C2369 1.369 . S
C2370 C2379 1.429 . S
C2371 C2369 1.419 . S
C2371 C2372 1.363 . S
C2371 H2374 0.929 . S
C2372 C2371 1.363 . S
C2372 C2378 1.428 . S
H2373 C2369 0.930 . S
H2374 C2371 0.929 . S
S2375 N2376 1.613 . S
S2375 N2377 1.610 . S
N2376 S2375 1.613 . S
N2376 C2379 1.350 . S
N2377 S2375 1.610 . S
N2377 C2378 1.351 . S
C2378 C2372 1.428 . S
C2378 N2377 1.351 . S
C2378 C2379 1.434 . S
C2379 C2370 1.429 . S
C2379 N2376 1.350 . S
C2379 C2378 1.434 . S
C2380 C2381 1.369 . S
C2380 C2382 1.419 1_556 S
C2380 H2384 0.930 . S
C2381 C2380 1.369 . S
C2381 C2390 1.429 . S
C2382 C2380 1.419 1_554 S
C2382 C2383 1.363 . S
C2382 H2385 0.929 . S
C2383 C2382 1.363 . S
C2383 C2389 1.428 . S
H2384 C2380 0.930 . S
H2385 C2382 0.929 . S
S2386 N2387 1.613 . S
S2386 N2388 1.610 1_556 S
N2387 S2386 1.613 . S
N2387 C2390 1.350 . S
N2388 S2386 1.610 1_554 S
N2388 C2389 1.351 . S
C2389 C2383 1.428 . S
C2389 N2388 1.351 . S
C2389 C2390 1.434 1_554 S
C2390 C2381 1.429 . S
C2390 N2387 1.350 . S
C2390 C2389 1.434 1_556 S
C2391 C2392 1.369 . S
C2391 C2393 1.419 . S
C2391 H2395 0.930 . S
C2392 C2391 1.369 . S
C2392 C2401 1.429 . S
C2393 C2391 1.419 . S
C2393 C2394 1.363 . S
C2393 H2396 0.929 . S
C2394 C2393 1.363 . S
C2394 C2400 1.428 . S
H2395 C2391 0.930 . S
H2396 C2393 0.929 . S
S2397 N2398 1.613 . S
S2397 N2399 1.610 . S
N2398 S2397 1.613 . S
N2398 C2401 1.350 . S
N2399 S2397 1.610 . S
N2399 C2400 1.351 . S
C2400 C2394 1.428 . S
C2400 N2399 1.351 . S
C2400 C2401 1.434 . S
C2401 C2392 1.429 . S
C2401 N2398 1.350 . S
C2401 C2400 1.434 . S
C2402 C2403 1.369 . S
C2402 C2404 1.419 . S
C2402 H2406 0.930 . S
C2403 C2402 1.369 . S
C2403 C2412 1.429 . S
C2404 C2402 1.419 . S
C2404 C2405 1.363 . S
C2404 H2407 0.929 . S
C2405 C2404 1.363 . S
C2405 C2411 1.428 . S
H2406 C2402 0.930 . S
H2407 C2404 0.929 . S
S2408 N2409 1.613 . S
S2408 N2410 1.610 . S
N2409 S2408 1.613 . S
N2409 C2412 1.350 . S
N2410 S2408 1.610 . S
N2410 C2411 1.351 . S
C2411 C2405 1.428 . S
C2411 N2410 1.351 . S
C2411 C2412 1.434 . S
C2412 C2403 1.429 . S
C2412 N2409 1.350 . S
C2412 C2411 1.434 . S
C2413 C2414 1.369 . S
C2413 C2415 1.419 1_565 S
C2413 H2417 0.930 . S
C2414 C2413 1.369 . S
C2414 C2423 1.429 . S
C2415 C2413 1.419 1_545 S
C2415 C2416 1.363 . S
C2415 H2418 0.929 . S
C2416 C2415 1.363 . S
C2416 C2422 1.428 . S
H2417 C2413 0.930 . S
H2418 C2415 0.929 . S
S2419 N2420 1.613 1_545 S
S2419 N2421 1.610 . S
N2420 S2419 1.613 1_565 S
N2420 C2423 1.350 . S
N2421 S2419 1.610 . S
N2421 C2422 1.351 . S
C2422 C2416 1.428 . S
C2422 N2421 1.351 . S
C2422 C2423 1.434 1_545 S
C2423 C2414 1.429 . S
C2423 N2420 1.350 . S
C2423 C2422 1.434 1_565 S
C2424 C2425 1.369 . S
C2424 C2426 1.419 . S
C2424 H2428 0.930 . S
C2425 C2424 1.369 . S
C2425 C2434 1.429 . S
C2426 C2424 1.419 . S
C2426 C2427 1.363 . S
C2426 H2429 0.929 . S
C2427 C2426 1.363 . S
C2427 C2433 1.428 . S
H2428 C2424 0.930 . S
H2429 C2426 0.929 . S
S2430 N2431 1.613 . S
S2430 N2432 1.610 . S
N2431 S2430 1.613 . S
N2431 C2434 1.350 . S
N2432 S2430 1.610 . S
N2432 C2433 1.351 . S
C2433 C2427 1.428 . S
C2433 N2432 1.351 . S
C2433 C2434 1.434 . S
C2434 C2425 1.429 . S
C2434 N2431 1.350 . S
C2434 C2433 1.434 . S
C2435 C2436 1.369 . S
C2435 C2437 1.419 . S
C2435 H2439 0.930 . S
C2436 C2435 1.369 . S
C2436 C2445 1.429 . S
C2437 C2435 1.419 . S
C2437 C2438 1.363 . S
C2437 H2440 0.929 . S
C2438 C2437 1.363 . S
C2438 C2444 1.428 . S
H2439 C2435 0.930 . S
H2440 C2437 0.929 . S
S2441 N2442 1.613 . S
S2441 N2443 1.610 . S
N2442 S2441 1.613 . S
N2442 C2445 1.350 . S
N2443 S2441 1.610 . S
N2443 C2444 1.351 . S
C2444 C2438 1.428 . S
C2444 N2443 1.351 . S
C2444 C2445 1.434 . S
C2445 C2436 1.429 . S
C2445 N2442 1.350 . S
C2445 C2444 1.434 . S
C2446 C2447 1.369 . S
C2446 C2448 1.419 . S
C2446 H2450 0.930 . S
C2447 C2446 1.369 . S
C2447 C2456 1.429 . S
C2448 C2446 1.419 . S
C2448 C2449 1.363 . S
C2448 H2451 0.929 . S
C2449 C2448 1.363 . S
C2449 C2455 1.428 . S
H2450 C2446 0.930 . S
H2451 C2448 0.929 . S
S2452 N2453 1.613 . S
S2452 N2454 1.610 . S
N2453 S2452 1.613 . S
N2453 C2456 1.350 . S
N2454 S2452 1.610 . S
N2454 C2455 1.351 . S
C2455 C2449 1.428 . S
C2455 N2454 1.351 . S
C2455 C2456 1.434 . S
C2456 C2447 1.429 . S
C2456 N2453 1.350 . S
C2456 C2455 1.434 . S
C2457 C2458 1.369 . S
C2457 C2459 1.419 . S
C2457 H2461 0.930 . S
C2458 C2457 1.369 . S
C2458 C2467 1.429 . S
C2459 C2457 1.419 . S
C2459 C2460 1.363 . S
C2459 H2462 0.929 . S
C2460 C2459 1.363 . S
C2460 C2466 1.428 . S
H2461 C2457 0.930 . S
H2462 C2459 0.929 . S
S2463 N2464 1.613 . S
S2463 N2465 1.610 . S
N2464 S2463 1.613 . S
N2464 C2467 1.350 . S
N2465 S2463 1.610 . S
N2465 C2466 1.351 . S
C2466 C2460 1.428 . S
C2466 N2465 1.351 . S
C2466 C2467 1.434 . S
C2467 C2458 1.429 . S
C2467 N2464 1.350 . S
C2467 C2466 1.434 . S
C2468 C2469 1.369 . S
C2468 C2470 1.419 . S
C2468 H2472 0.930 . S
C2469 C2468 1.369 . S
C2469 C2478 1.429 . S
C2470 C2468 1.419 . S
C2470 C2471 1.363 . S
C2470 H2473 0.929 . S
C2471 C2470 1.363 . S
C2471 C2477 1.428 . S
H2472 C2468 0.930 . S
H2473 C2470 0.929 . S
S2474 N2475 1.613 . S
S2474 N2476 1.610 . S
N2475 S2474 1.613 . S
N2475 C2478 1.350 . S
N2476 S2474 1.610 . S
N2476 C2477 1.351 . S
C2477 C2471 1.428 . S
C2477 N2476 1.351 . S
C2477 C2478 1.434 . S
C2478 C2469 1.429 . S
C2478 N2475 1.350 . S
C2478 C2477 1.434 . S
C2479 C2480 1.369 . S
C2479 C2481 1.419 . S
C2479 H2483 0.930 . S
C2480 C2479 1.369 . S
C2480 C2489 1.429 . S
C2481 C2479 1.419 . S
C2481 C2482 1.363 . S
C2481 H2484 0.929 . S
C2482 C2481 1.363 . S
C2482 C2488 1.428 . S
H2483 C2479 0.930 . S
H2484 C2481 0.929 . S
S2485 N2486 1.613 . S
S2485 N2487 1.610 . S
N2486 S2485 1.613 . S
N2486 C2489 1.350 . S
N2487 S2485 1.610 . S
N2487 C2488 1.351 . S
C2488 C2482 1.428 . S
C2488 N2487 1.351 . S
C2488 C2489 1.434 . S
C2489 C2480 1.429 . S
C2489 N2486 1.350 . S
C2489 C2488 1.434 . S
C2490 C2491 1.369 . S
C2490 C2492 1.419 . S
C2490 H2494 0.930 . S
C2491 C2490 1.369 . S
C2491 C2500 1.429 . S
C2492 C2490 1.419 . S
C2492 C2493 1.363 . S
C2492 H2495 0.929 . S
C2493 C2492 1.363 . S
C2493 C2499 1.428 . S
H2494 C2490 0.930 . S
H2495 C2492 0.929 . S
S2496 N2497 1.613 . S
S2496 N2498 1.610 . S
N2497 S2496 1.613 . S
N2497 C2500 1.350 . S
N2498 S2496 1.610 . S
N2498 C2499 1.351 . S
C2499 C2493 1.428 . S
C2499 N2498 1.351 . S
C2499 C2500 1.434 . S
C2500 C2491 1.429 . S
C2500 N2497 1.350 . S
C2500 C2499 1.434 . S
C2501 C2502 1.369 . S
C2501 C2503 1.419 . S
C2501 H2505 0.930 . S
C2502 C2501 1.369 . S
C2502 C2511 1.429 . S
C2503 C2501 1.419 . S
C2503 C2504 1.363 . S
C2503 H2506 0.929 . S
C2504 C2503 1.363 . S
C2504 C2510 1.428 . S
H2505 C2501 0.930 . S
H2506 C2503 0.929 . S
S2507 N2508 1.613 . S
S2507 N2509 1.610 . S
N2508 S2507 1.613 . S
N2508 C2511 1.350 . S
N2509 S2507 1.610 . S
N2509 C2510 1.351 . S
C2510 C2504 1.428 . S
C2510 N2509 1.351 . S
C2510 C2511 1.434 . S
C2511 C2502 1.429 . S
C2511 N2508 1.350 . S
C2511 C2510 1.434 . S
C2512 C2513 1.369 . S
C2512 C2514 1.419 . S
C2512 H2516 0.930 . S
C2513 C2512 1.369 . S
C2513 C2522 1.429 . S
C2514 C2512 1.419 . S
C2514 C2515 1.363 . S
C2514 H2517 0.929 . S
C2515 C2514 1.363 . S
C2515 C2521 1.428 . S
H2516 C2512 0.930 . S
H2517 C2514 0.929 . S
S2518 N2519 1.613 . S
S2518 N2520 1.610 . S
N2519 S2518 1.613 . S
N2519 C2522 1.350 . S
N2520 S2518 1.610 . S
N2520 C2521 1.351 . S
C2521 C2515 1.428 . S
C2521 N2520 1.351 . S
C2521 C2522 1.434 . S
C2522 C2513 1.429 . S
C2522 N2519 1.350 . S
C2522 C2521 1.434 . S
C2523 C2524 1.369 . S
C2523 C2525 1.419 . S
C2523 H2527 0.930 . S
C2524 C2523 1.369 . S
C2524 C2533 1.429 . S
C2525 C2523 1.419 . S
C2525 C2526 1.363 . S
C2525 H2528 0.929 . S
C2526 C2525 1.363 . S
C2526 C2532 1.428 . S
H2527 C2523 0.930 . S
H2528 C2525 0.929 . S
S2529 N2530 1.613 . S
S2529 N2531 1.610 . S
N2530 S2529 1.613 . S
N2530 C2533 1.350 . S
N2531 S2529 1.610 . S
N2531 C2532 1.351 . S
C2532 C2526 1.428 . S
C2532 N2531 1.351 . S
C2532 C2533 1.434 . S
C2533 C2524 1.429 . S
C2533 N2530 1.350 . S
C2533 C2532 1.434 . S
C2534 C2535 1.369 . S
C2534 C2536 1.419 . S
C2534 H2538 0.930 . S
C2535 C2534 1.369 . S
C2535 C2544 1.429 . S
C2536 C2534 1.419 . S
C2536 C2537 1.363 . S
C2536 H2539 0.929 . S
C2537 C2536 1.363 . S
C2537 C2543 1.428 . S
H2538 C2534 0.930 . S
H2539 C2536 0.929 . S
S2540 N2541 1.613 . S
S2540 N2542 1.610 . S
N2541 S2540 1.613 . S
N2541 C2544 1.350 . S
N2542 S2540 1.610 . S
N2542 C2543 1.351 . S
C2543 C2537 1.428 . S
C2543 N2542 1.351 . S
C2543 C2544 1.434 . S
C2544 C2535 1.429 . S
C2544 N2541 1.350 . S
C2544 C2543 1.434 . S
C2545 C2546 1.369 . S
C2545 C2547 1.419 . S
C2545 H2549 0.930 . S
C2546 C2545 1.369 . S
C2546 C2555 1.429 . S
C2547 C2545 1.419 . S
C2547 C2548 1.363 . S
C2547 H2550 0.929 . S
C2548 C2547 1.363 . S
C2548 C2554 1.428 . S
H2549 C2545 0.930 . S
H2550 C2547 0.929 . S
S2551 N2552 1.613 . S
S2551 N2553 1.610 . S
N2552 S2551 1.613 . S
N2552 C2555 1.350 . S
N2553 S2551 1.610 . S
N2553 C2554 1.351 . S
C2554 C2548 1.428 . S
C2554 N2553 1.351 . S
C2554 C2555 1.434 . S
C2555 C2546 1.429 . S
C2555 N2552 1.350 . S
C2555 C2554 1.434 . S
C2556 C2557 1.369 . S
C2556 C2558 1.419 . S
C2556 H2560 0.930 . S
C2557 C2556 1.369 . S
C2557 C2566 1.429 . S
C2558 C2556 1.419 . S
C2558 C2559 1.363 . S
C2558 H2561 0.929 . S
C2559 C2558 1.363 . S
C2559 C2565 1.428 . S
H2560 C2556 0.930 . S
H2561 C2558 0.929 . S
S2562 N2563 1.613 . S
S2562 N2564 1.610 . S
N2563 S2562 1.613 . S
N2563 C2566 1.350 . S
N2564 S2562 1.610 . S
N2564 C2565 1.351 . S
C2565 C2559 1.428 . S
C2565 N2564 1.351 . S
C2565 C2566 1.434 . S
C2566 C2557 1.429 . S
C2566 N2563 1.350 . S
C2566 C2565 1.434 . S
C2567 C2568 1.369 . S
C2567 C2569 1.419 . S
C2567 H2571 0.930 . S
C2568 C2567 1.369 . S
C2568 C2577 1.429 . S
C2569 C2567 1.419 . S
C2569 C2570 1.363 . S
C2569 H2572 0.929 . S
C2570 C2569 1.363 . S
C2570 C2576 1.428 . S
H2571 C2567 0.930 . S
H2572 C2569 0.929 . S
S2573 N2574 1.613 . S
S2573 N2575 1.610 . S
N2574 S2573 1.613 . S
N2574 C2577 1.350 . S
N2575 S2573 1.610 . S
N2575 C2576 1.351 . S
C2576 C2570 1.428 . S
C2576 N2575 1.351 . S
C2576 C2577 1.434 . S
C2577 C2568 1.429 . S
C2577 N2574 1.350 . S
C2577 C2576 1.434 . S
C2578 C2579 1.369 . S
C2578 C2580 1.419 . S
C2578 H2582 0.930 . S
C2579 C2578 1.369 . S
C2579 C2588 1.429 . S
C2580 C2578 1.419 . S
C2580 C2581 1.363 . S
C2580 H2583 0.929 . S
C2581 C2580 1.363 . S
C2581 C2587 1.428 . S
H2582 C2578 0.930 . S
H2583 C2580 0.929 . S
S2584 N2585 1.613 . S
S2584 N2586 1.610 . S
N2585 S2584 1.613 . S
N2585 C2588 1.350 . S
N2586 S2584 1.610 . S
N2586 C2587 1.351 . S
C2587 C2581 1.428 . S
C2587 N2586 1.351 . S
C2587 C2588 1.434 . S
C2588 C2579 1.429 . S
C2588 N2585 1.350 . S
C2588 C2587 1.434 . S
C2589 C2590 1.369 . S
C2589 C2591 1.419 . S
C2589 H2593 0.930 . S
C2590 C2589 1.369 . S
C2590 C2599 1.429 . S
C2591 C2589 1.419 . S
C2591 C2592 1.363 . S
C2591 H2594 0.929 . S
C2592 C2591 1.363 . S
C2592 C2598 1.428 . S
H2593 C2589 0.930 . S
H2594 C2591 0.929 . S
S2595 N2596 1.613 . S
S2595 N2597 1.610 . S
N2596 S2595 1.613 . S
N2596 C2599 1.350 . S
N2597 S2595 1.610 . S
N2597 C2598 1.351 . S
C2598 C2592 1.428 . S
C2598 N2597 1.351 . S
C2598 C2599 1.434 . S
C2599 C2590 1.429 . S
C2599 N2596 1.350 . S
C2599 C2598 1.434 . S
C2600 C2601 1.369 . S
C2600 C2602 1.419 . S
C2600 H2604 0.930 . S
C2601 C2600 1.369 . S
C2601 C2610 1.429 . S
C2602 C2600 1.419 . S
C2602 C2603 1.363 . S
C2602 H2605 0.929 . S
C2603 C2602 1.363 . S
C2603 C2609 1.428 . S
H2604 C2600 0.930 . S
H2605 C2602 0.929 . S
S2606 N2607 1.613 . S
S2606 N2608 1.610 . S
N2607 S2606 1.613 . S
N2607 C2610 1.350 . S
N2608 S2606 1.610 . S
N2608 C2609 1.351 . S
C2609 C2603 1.428 . S
C2609 N2608 1.351 . S
C2609 C2610 1.434 . S
C2610 C2601 1.429 . S
C2610 N2607 1.350 . S
C2610 C2609 1.434 . S
C2611 C2612 1.369 . S
C2611 C2613 1.419 . S
C2611 H2615 0.930 . S
C2612 C2611 1.369 . S
C2612 C2621 1.429 . S
C2613 C2611 1.419 . S
C2613 C2614 1.363 . S
C2613 H2616 0.929 . S
C2614 C2613 1.363 . S
C2614 C2620 1.428 . S
H2615 C2611 0.930 . S
H2616 C2613 0.929 . S
S2617 N2618 1.613 . S
S2617 N2619 1.610 . S
N2618 S2617 1.613 . S
N2618 C2621 1.350 . S
N2619 S2617 1.610 . S
N2619 C2620 1.351 . S
C2620 C2614 1.428 . S
C2620 N2619 1.351 . S
C2620 C2621 1.434 . S
C2621 C2612 1.429 . S
C2621 N2618 1.350 . S
C2621 C2620 1.434 . S
C2622 C2623 1.369 . S
C2622 C2624 1.419 . S
C2622 H2626 0.930 . S
C2623 C2622 1.369 . S
C2623 C2632 1.429 . S
C2624 C2622 1.419 . S
C2624 C2625 1.363 . S
C2624 H2627 0.929 . S
C2625 C2624 1.363 . S
C2625 C2631 1.428 . S
H2626 C2622 0.930 . S
H2627 C2624 0.929 . S
S2628 N2629 1.613 . S
S2628 N2630 1.610 . S
N2629 S2628 1.613 . S
N2629 C2632 1.350 . S
N2630 S2628 1.610 . S
N2630 C2631 1.351 . S
C2631 C2625 1.428 . S
C2631 N2630 1.351 . S
C2631 C2632 1.434 . S
C2632 C2623 1.429 . S
C2632 N2629 1.350 . S
C2632 C2631 1.434 . S
C2633 C2634 1.369 . S
C2633 C2635 1.419 . S
C2633 H2637 0.930 . S
C2634 C2633 1.369 . S
C2634 C2643 1.429 . S
C2635 C2633 1.419 . S
C2635 C2636 1.363 . S
C2635 H2638 0.929 . S
C2636 C2635 1.363 . S
C2636 C2642 1.428 . S
H2637 C2633 0.930 . S
H2638 C2635 0.929 . S
S2639 N2640 1.613 . S
S2639 N2641 1.610 . S
N2640 S2639 1.613 . S
N2640 C2643 1.350 . S
N2641 S2639 1.610 . S
N2641 C2642 1.351 . S
C2642 C2636 1.428 . S
C2642 N2641 1.351 . S
C2642 C2643 1.434 . S
C2643 C2634 1.429 . S
C2643 N2640 1.350 . S
C2643 C2642 1.434 . S
C2644 C2645 1.369 . S
C2644 C2646 1.419 . S
C2644 H2648 0.930 . S
C2645 C2644 1.369 . S
C2645 C2654 1.429 . S
C2646 C2644 1.419 . S
C2646 C2647 1.363 . S
C2646 H2649 0.929 . S
C2647 C2646 1.363 . S
C2647 C2653 1.428 . S
H2648 C2644 0.930 . S
H2649 C2646 0.929 . S
S2650 N2651 1.613 . S
S2650 N2652 1.610 . S
N2651 S2650 1.613 . S
N2651 C2654 1.350 . S
N2652 S2650 1.610 . S
N2652 C2653 1.351 . S
C2653 C2647 1.428 . S
C2653 N2652 1.351 . S
C2653 C2654 1.434 . S
C2654 C2645 1.429 . S
C2654 N2651 1.350 . S
C2654 C2653 1.434 . S
C2655 C2656 1.369 . S
C2655 C2657 1.419 . S
C2655 H2659 0.930 . S
C2656 C2655 1.369 . S
C2656 C2665 1.429 . S
C2657 C2655 1.419 . S
C2657 C2658 1.363 . S
C2657 H2660 0.929 . S
C2658 C2657 1.363 . S
C2658 C2664 1.428 . S
H2659 C2655 0.930 . S
H2660 C2657 0.929 . S
S2661 N2662 1.613 . S
S2661 N2663 1.610 . S
N2662 S2661 1.613 . S
N2662 C2665 1.350 . S
N2663 S2661 1.610 . S
N2663 C2664 1.351 . S
C2664 C2658 1.428 . S
C2664 N2663 1.351 . S
C2664 C2665 1.434 . S
C2665 C2656 1.429 . S
C2665 N2662 1.350 . S
C2665 C2664 1.434 . S
C2666 C2667 1.369 . S
C2666 C2668 1.419 . S
C2666 H2670 0.930 . S
C2667 C2666 1.369 . S
C2667 C2676 1.429 . S
C2668 C2666 1.419 . S
C2668 C2669 1.363 . S
C2668 H2671 0.929 . S
C2669 C2668 1.363 . S
C2669 C2675 1.428 . S
H2670 C2666 0.930 . S
H2671 C2668 0.929 . S
S2672 N2673 1.613 . S
S2672 N2674 1.610 . S
N2673 S2672 1.613 . S
N2673 C2676 1.350 . S
N2674 S2672 1.610 . S
N2674 C2675 1.351 . S
C2675 C2669 1.428 . S
C2675 N2674 1.351 . S
C2675 C2676 1.434 . S
C2676 C2667 1.429 . S
C2676 N2673 1.350 . S
C2676 C2675 1.434 . S
C2677 C2678 1.369 . S
C2677 C2679 1.419 . S
C2677 H2681 0.930 . S
C2678 C2677 1.369 . S
C2678 C2687 1.429 . S
C2679 C2677 1.419 . S
C2679 C2680 1.363 . S
C2679 H2682 0.929 . S
C2680 C2679 1.363 . S
C2680 C2686 1.428 . S
H2681 C2677 0.930 . S
H2682 C2679 0.929 . S
S2683 N2684 1.613 . S
S2683 N2685 1.610 . S
N2684 S2683 1.613 . S
N2684 C2687 1.350 . S
N2685 S2683 1.610 . S
N2685 C2686 1.351 . S
C2686 C2680 1.428 . S
C2686 N2685 1.351 . S
C2686 C2687 1.434 . S
C2687 C2678 1.429 . S
C2687 N2684 1.350 . S
C2687 C2686 1.434 . S
C2688 C2689 1.369 . S
C2688 C2690 1.419 . S
C2688 H2692 0.930 . S
C2689 C2688 1.369 . S
C2689 C2698 1.429 . S
C2690 C2688 1.419 . S
C2690 C2691 1.363 . S
C2690 H2693 0.929 . S
C2691 C2690 1.363 . S
C2691 C2697 1.428 . S
H2692 C2688 0.930 . S
H2693 C2690 0.929 . S
S2694 N2695 1.613 . S
S2694 N2696 1.610 . S
N2695 S2694 1.613 . S
N2695 C2698 1.350 . S
N2696 S2694 1.610 . S
N2696 C2697 1.351 . S
C2697 C2691 1.428 . S
C2697 N2696 1.351 . S
C2697 C2698 1.434 . S
C2698 C2689 1.429 . S
C2698 N2695 1.350 . S
C2698 C2697 1.434 . S
C2699 C2700 1.369 . S
C2699 C2701 1.419 . S
C2699 H2703 0.930 . S
C2700 C2699 1.369 . S
C2700 C2709 1.429 . S
C2701 C2699 1.419 . S
C2701 C2702 1.363 . S
C2701 H2704 0.929 . S
C2702 C2701 1.363 . S
C2702 C2708 1.428 . S
H2703 C2699 0.930 . S
H2704 C2701 0.929 . S
S2705 N2706 1.613 . S
S2705 N2707 1.610 . S
N2706 S2705 1.613 . S
N2706 C2709 1.350 . S
N2707 S2705 1.610 . S
N2707 C2708 1.351 . S
C2708 C2702 1.428 . S
C2708 N2707 1.351 . S
C2708 C2709 1.434 . S
C2709 C2700 1.429 . S
C2709 N2706 1.350 . S
C2709 C2708 1.434 . S
C2710 C2711 1.369 . S
C2710 C2712 1.419 . S
C2710 H2714 0.930 . S
C2711 C2710 1.369 . S
C2711 C2720 1.429 . S
C2712 C2710 1.419 . S
C2712 C2713 1.363 . S
C2712 H2715 0.929 . S
C2713 C2712 1.363 . S
C2713 C2719 1.428 . S
H2714 C2710 0.930 . S
H2715 C2712 0.929 . S
S2716 N2717 1.613 . S
S2716 N2718 1.610 . S
N2717 S2716 1.613 . S
N2717 C2720 1.350 . S
N2718 S2716 1.610 . S
N2718 C2719 1.351 . S
C2719 C2713 1.428 . S
C2719 N2718 1.351 . S
C2719 C2720 1.434 . S
C2720 C2711 1.429 . S
C2720 N2717 1.350 . S
C2720 C2719 1.434 . S
C2721 C2722 1.369 . S
C2721 C2723 1.419 . S
C2721 H2725 0.930 . S
C2722 C2721 1.369 . S
C2722 C2731 1.429 . S
C2723 C2721 1.419 . S
C2723 C2724 1.363 . S
C2723 H2726 0.929 . S
C2724 C2723 1.363 . S
C2724 C2730 1.428 . S
H2725 C2721 0.930 . S
H2726 C2723 0.929 . S
S2727 N2728 1.613 . S
S2727 N2729 1.610 . S
N2728 S2727 1.613 . S
N2728 C2731 1.350 . S
N2729 S2727 1.610 . S
N2729 C2730 1.351 . S
C2730 C2724 1.428 . S
C2730 N2729 1.351 . S
C2730 C2731 1.434 . S
C2731 C2722 1.429 . S
C2731 N2728 1.350 . S
C2731 C2730 1.434 . S
C2732 C2733 1.369 . S
C2732 C2734 1.419 . S
C2732 H2736 0.930 . S
C2733 C2732 1.369 . S
C2733 C2742 1.429 . S
C2734 C2732 1.419 . S
C2734 C2735 1.363 . S
C2734 H2737 0.929 . S
C2735 C2734 1.363 . S
C2735 C2741 1.428 . S
H2736 C2732 0.930 . S
H2737 C2734 0.929 . S
S2738 N2739 1.613 . S
S2738 N2740 1.610 . S
N2739 S2738 1.613 . S
N2739 C2742 1.350 . S
N2740 S2738 1.610 . S
N2740 C2741 1.351 . S
C2741 C2735 1.428 . S
C2741 N2740 1.351 . S
C2741 C2742 1.434 . S
C2742 C2733 1.429 . S
C2742 N2739 1.350 . S
C2742 C2741 1.434 . S
C2743 C2744 1.369 . S
C2743 C2745 1.419 . S
C2743 H2747 0.930 . S
C2744 C2743 1.369 . S
C2744 C2753 1.429 . S
C2745 C2743 1.419 . S
C2745 C2746 1.363 . S
C2745 H2748 0.929 . S
C2746 C2745 1.363 . S
C2746 C2752 1.428 . S
H2747 C2743 0.930 . S
H2748 C2745 0.929 . S
S2749 N2750 1.613 . S
S2749 N2751 1.610 . S
N2750 S2749 1.613 . S
N2750 C2753 1.350 . S
N2751 S2749 1.610 . S
N2751 C2752 1.351 . S
C2752 C2746 1.428 . S
C2752 N2751 1.351 . S
C2752 C2753 1.434 . S
C2753 C2744 1.429 . S
C2753 N2750 1.350 . S
C2753 C2752 1.434 . S
C2754 C2755 1.369 . S
C2754 C2756 1.419 . S
C2754 H2758 0.930 . S
C2755 C2754 1.369 . S
C2755 C2764 1.429 . S
C2756 C2754 1.419 . S
C2756 C2757 1.363 . S
C2756 H2759 0.929 . S
C2757 C2756 1.363 . S
C2757 C2763 1.428 . S
H2758 C2754 0.930 . S
H2759 C2756 0.929 . S
S2760 N2761 1.613 . S
S2760 N2762 1.610 . S
N2761 S2760 1.613 . S
N2761 C2764 1.350 . S
N2762 S2760 1.610 . S
N2762 C2763 1.351 . S
C2763 C2757 1.428 . S
C2763 N2762 1.351 . S
C2763 C2764 1.434 . S
C2764 C2755 1.429 . S
C2764 N2761 1.350 . S
C2764 C2763 1.434 . S
C2765 C2766 1.369 . S
C2765 C2767 1.419 . S
C2765 H2769 0.930 . S
C2766 C2765 1.369 . S
C2766 C2775 1.429 . S
C2767 C2765 1.419 . S
C2767 C2768 1.363 . S
C2767 H2770 0.929 . S
C2768 C2767 1.363 . S
C2768 C2774 1.428 . S
H2769 C2765 0.930 . S
H2770 C2767 0.929 . S
S2771 N2772 1.613 . S
S2771 N2773 1.610 . S
N2772 S2771 1.613 . S
N2772 C2775 1.350 . S
N2773 S2771 1.610 . S
N2773 C2774 1.351 . S
C2774 C2768 1.428 . S
C2774 N2773 1.351 . S
C2774 C2775 1.434 . S
C2775 C2766 1.429 . S
C2775 N2772 1.350 . S
C2775 C2774 1.434 . S
C2776 C2777 1.369 . S
C2776 C2778 1.419 . S
C2776 H2780 0.930 . S
C2777 C2776 1.369 . S
C2777 C2786 1.429 . S
C2778 C2776 1.419 . S
C2778 C2779 1.363 . S
C2778 H2781 0.929 . S
C2779 C2778 1.363 . S
C2779 C2785 1.428 . S
H2780 C2776 0.930 . S
H2781 C2778 0.929 . S
S2782 N2783 1.613 . S
S2782 N2784 1.610 . S
N2783 S2782 1.613 . S
N2783 C2786 1.350 . S
N2784 S2782 1.610 . S
N2784 C2785 1.351 . S
C2785 C2779 1.428 . S
C2785 N2784 1.351 . S
C2785 C2786 1.434 . S
C2786 C2777 1.429 . S
C2786 N2783 1.350 . S
C2786 C2785 1.434 . S
C2787 C2788 1.369 . S
C2787 C2789 1.419 . S
C2787 H2791 0.930 . S
C2788 C2787 1.369 . S
C2788 C2797 1.429 . S
C2789 C2787 1.419 . S
C2789 C2790 1.363 . S
C2789 H2792 0.929 . S
C2790 C2789 1.363 . S
C2790 C2796 1.428 . S
H2791 C2787 0.930 . S
H2792 C2789 0.929 . S
S2793 N2794 1.613 . S
S2793 N2795 1.610 . S
N2794 S2793 1.613 . S
N2794 C2797 1.350 . S
N2795 S2793 1.610 . S
N2795 C2796 1.351 . S
C2796 C2790 1.428 . S
C2796 N2795 1.351 . S
C2796 C2797 1.434 . S
C2797 C2788 1.429 . S
C2797 N2794 1.350 . S
C2797 C2796 1.434 . S
C2798 C2799 1.369 . S
C2798 C2800 1.419 . S
C2798 H2802 0.930 . S
C2799 C2798 1.369 . S
C2799 C2808 1.429 . S
C2800 C2798 1.419 . S
C2800 C2801 1.363 . S
C2800 H2803 0.929 . S
C2801 C2800 1.363 . S
C2801 C2807 1.428 . S
H2802 C2798 0.930 . S
H2803 C2800 0.929 . S
S2804 N2805 1.613 . S
S2804 N2806 1.610 . S
N2805 S2804 1.613 . S
N2805 C2808 1.350 . S
N2806 S2804 1.610 . S
N2806 C2807 1.351 . S
C2807 C2801 1.428 . S
C2807 N2806 1.351 . S
C2807 C2808 1.434 . S
C2808 C2799 1.429 . S
C2808 N2805 1.350 . S
C2808 C2807 1.434 . S
C2809 C2810 1.369 . S
C2809 C2811 1.419 . S
C2809 H2813 0.930 . S
C2810 C2809 1.369 . S
C2810 C2819 1.429 . S
C2811 C2809 1.419 . S
C2811 C2812 1.363 . S
C2811 H2814 0.929 . S
C2812 C2811 1.363 . S
C2812 C2818 1.428 . S
H2813 C2809 0.930 . S
H2814 C2811 0.929 . S
S2815 N2816 1.613 . S
S2815 N2817 1.610 . S
N2816 S2815 1.613 . S
N2816 C2819 1.350 . S
N2817 S2815 1.610 . S
N2817 C2818 1.351 . S
C2818 C2812 1.428 . S
C2818 N2817 1.351 . S
C2818 C2819 1.434 . S
C2819 C2810 1.429 . S
C2819 N2816 1.350 . S
C2819 C2818 1.434 . S
C2820 C2821 1.369 . S
C2820 C2822 1.419 . S
C2820 H2824 0.930 . S
C2821 C2820 1.369 . S
C2821 C2830 1.429 . S
C2822 C2820 1.419 . S
C2822 C2823 1.363 . S
C2822 H2825 0.929 . S
C2823 C2822 1.363 . S
C2823 C2829 1.428 . S
H2824 C2820 0.930 . S
H2825 C2822 0.929 . S
S2826 N2827 1.613 . S
S2826 N2828 1.610 . S
N2827 S2826 1.613 . S
N2827 C2830 1.350 . S
N2828 S2826 1.610 . S
N2828 C2829 1.351 . S
C2829 C2823 1.428 . S
C2829 N2828 1.351 . S
C2829 C2830 1.434 . S
C2830 C2821 1.429 . S
C2830 N2827 1.350 . S
C2830 C2829 1.434 . S
C2831 C2832 1.369 . S
C2831 C2833 1.419 . S
C2831 H2835 0.930 . S
C2832 C2831 1.369 . S
C2832 C2841 1.429 . S
C2833 C2831 1.419 . S
C2833 C2834 1.363 . S
C2833 H2836 0.929 . S
C2834 C2833 1.363 . S
C2834 C2840 1.428 . S
H2835 C2831 0.930 . S
H2836 C2833 0.929 . S
S2837 N2838 1.613 . S
S2837 N2839 1.610 . S
N2838 S2837 1.613 . S
N2838 C2841 1.350 . S
N2839 S2837 1.610 . S
N2839 C2840 1.351 . S
C2840 C2834 1.428 . S
C2840 N2839 1.351 . S
C2840 C2841 1.434 . S
C2841 C2832 1.429 . S
C2841 N2838 1.350 . S
C2841 C2840 1.434 . S
C2842 C2843 1.369 . S
C2842 C2844 1.419 . S
C2842 H2846 0.930 . S
C2843 C2842 1.369 . S
C2843 C2852 1.429 . S
C2844 C2842 1.419 . S
C2844 C2845 1.363 . S
C2844 H2847 0.929 . S
C2845 C2844 1.363 . S
C2845 C2851 1.428 . S
H2846 C2842 0.930 . S
H2847 C2844 0.929 . S
S2848 N2849 1.613 . S
S2848 N2850 1.610 . S
N2849 S2848 1.613 . S
N2849 C2852 1.350 . S
N2850 S2848 1.610 . S
N2850 C2851 1.351 . S
C2851 C2845 1.428 . S
C2851 N2850 1.351 . S
C2851 C2852 1.434 . S
C2852 C2843 1.429 . S
C2852 N2849 1.350 . S
C2852 C2851 1.434 . S
C2853 C2854 1.369 . S
C2853 C2855 1.419 . S
C2853 H2857 0.930 . S
C2854 C2853 1.369 . S
C2854 C2863 1.429 . S
C2855 C2853 1.419 . S
C2855 C2856 1.363 . S
C2855 H2858 0.929 . S
C2856 C2855 1.363 . S
C2856 C2862 1.428 . S
H2857 C2853 0.930 . S
H2858 C2855 0.929 . S
S2859 N2860 1.613 . S
S2859 N2861 1.610 . S
N2860 S2859 1.613 . S
N2860 C2863 1.350 . S
N2861 S2859 1.610 . S
N2861 C2862 1.351 . S
C2862 C2856 1.428 . S
C2862 N2861 1.351 . S
C2862 C2863 1.434 . S
C2863 C2854 1.429 . S
C2863 N2860 1.350 . S
C2863 C2862 1.434 . S
C2864 C2865 1.369 . S
C2864 C2866 1.419 . S
C2864 H2868 0.930 . S
C2865 C2864 1.369 . S
C2865 C2874 1.429 . S
C2866 C2864 1.419 . S
C2866 C2867 1.363 . S
C2866 H2869 0.929 . S
C2867 C2866 1.363 . S
C2867 C2873 1.428 . S
H2868 C2864 0.930 . S
H2869 C2866 0.929 . S
S2870 N2871 1.613 . S
S2870 N2872 1.610 . S
N2871 S2870 1.613 . S
N2871 C2874 1.350 . S
N2872 S2870 1.610 . S
N2872 C2873 1.351 . S
C2873 C2867 1.428 . S
C2873 N2872 1.351 . S
C2873 C2874 1.434 . S
C2874 C2865 1.429 . S
C2874 N2871 1.350 . S
C2874 C2873 1.434 . S
C2875 C2876 1.369 . S
C2875 C2877 1.419 . S
C2875 H2879 0.930 . S
C2876 C2875 1.369 . S
C2876 C2885 1.429 . S
C2877 C2875 1.419 . S
C2877 C2878 1.363 . S
C2877 H2880 0.929 . S
C2878 C2877 1.363 . S
C2878 C2884 1.428 . S
H2879 C2875 0.930 . S
H2880 C2877 0.929 . S
S2881 N2882 1.613 . S
S2881 N2883 1.610 . S
N2882 S2881 1.613 . S
N2882 C2885 1.350 . S
N2883 S2881 1.610 . S
N2883 C2884 1.351 . S
C2884 C2878 1.428 . S
C2884 N2883 1.351 . S
C2884 C2885 1.434 . S
C2885 C2876 1.429 . S
C2885 N2882 1.350 . S
C2885 C2884 1.434 . S
C2886 C2887 1.369 . S
C2886 C2888 1.419 . S
C2886 H2890 0.930 . S
C2887 C2886 1.369 . S
C2887 C2896 1.429 . S
C2888 C2886 1.419 . S
C2888 C2889 1.363 . S
C2888 H2891 0.929 . S
C2889 C2888 1.363 . S
C2889 C2895 1.428 . S
H2890 C2886 0.930 . S
H2891 C2888 0.929 . S
S2892 N2893 1.613 . S
S2892 N2894 1.610 . S
N2893 S2892 1.613 . S
N2893 C2896 1.350 . S
N2894 S2892 1.610 . S
N2894 C2895 1.351 . S
C2895 C2889 1.428 . S
C2895 N2894 1.351 . S
C2895 C2896 1.434 . S
C2896 C2887 1.429 . S
C2896 N2893 1.350 . S
C2896 C2895 1.434 . S
C2897 C2898 1.369 . S
C2897 C2899 1.419 . S
C2897 H2901 0.930 . S
C2898 C2897 1.369 . S
C2898 C2907 1.429 . S
C2899 C2897 1.419 . S
C2899 C2900 1.363 . S
C2899 H2902 0.929 . S
C2900 C2899 1.363 . S
C2900 C2906 1.428 . S
H2901 C2897 0.930 . S
H2902 C2899 0.929 . S
S2903 N2904 1.613 . S
S2903 N2905 1.610 . S
N2904 S2903 1.613 . S
N2904 C2907 1.350 . S
N2905 S2903 1.610 . S
N2905 C2906 1.351 . S
C2906 C2900 1.428 . S
C2906 N2905 1.351 . S
C2906 C2907 1.434 . S
C2907 C2898 1.429 . S
C2907 N2904 1.350 . S
C2907 C2906 1.434 . S
C2908 C2909 1.369 . S
C2908 C2910 1.419 . S
C2908 H2912 0.930 . S
C2909 C2908 1.369 . S
C2909 C2918 1.429 . S
C2910 C2908 1.419 . S
C2910 C2911 1.363 . S
C2910 H2913 0.929 . S
C2911 C2910 1.363 . S
C2911 C2917 1.428 . S
H2912 C2908 0.930 . S
H2913 C2910 0.929 . S
S2914 N2915 1.613 . S
S2914 N2916 1.610 . S
N2915 S2914 1.613 . S
N2915 C2918 1.350 . S
N2916 S2914 1.610 . S
N2916 C2917 1.351 . S
C2917 C2911 1.428 . S
C2917 N2916 1.351 . S
C2917 C2918 1.434 . S
C2918 C2909 1.429 . S
C2918 N2915 1.350 . S
C2918 C2917 1.434 . S
C2919 C2920 1.369 . S
C2919 C2921 1.419 . S
C2919 H2923 0.930 . S
C2920 C2919 1.369 . S
C2920 C2929 1.429 . S
C2921 C2919 1.419 . S
C2921 C2922 1.363 . S
C2921 H2924 0.929 . S
C2922 C2921 1.363 . S
C2922 C2928 1.428 . S
H2923 C2919 0.930 . S
H2924 C2921 0.929 . S
S2925 N2926 1.613 . S
S2925 N2927 1.610 . S
N2926 S2925 1.613 . S
N2926 C2929 1.350 . S
N2927 S2925 1.610 . S
N2927 C2928 1.351 . S
C2928 C2922 1.428 . S
C2928 N2927 1.351 . S
C2928 C2929 1.434 . S
C2929 C2920 1.429 . S
C2929 N2926 1.350 . S
C2929 C2928 1.434 . S
C2930 C2931 1.369 . S
C2930 C2932 1.419 . S
C2930 H2934 0.930 . S
C2931 C2930 1.369 . S
C2931 C2940 1.429 . S
C2932 C2930 1.419 . S
C2932 C2933 1.363 . S
C2932 H2935 0.929 . S
C2933 C2932 1.363 . S
C2933 C2939 1.428 . S
H2934 C2930 0.930 . S
H2935 C2932 0.929 . S
S2936 N2937 1.613 . S
S2936 N2938 1.610 . S
N2937 S2936 1.613 . S
N2937 C2940 1.350 . S
N2938 S2936 1.610 . S
N2938 C2939 1.351 . S
C2939 C2933 1.428 . S
C2939 N2938 1.351 . S
C2939 C2940 1.434 . S
C2940 C2931 1.429 . S
C2940 N2937 1.350 . S
C2940 C2939 1.434 . S
C2941 C2942 1.369 . S
C2941 C2943 1.419 . S
C2941 H2945 0.930 . S
C2942 C2941 1.369 . S
C2942 C2951 1.429 . S
C2943 C2941 1.419 . S
C2943 C2944 1.363 . S
C2943 H2946 0.929 . S
C2944 C2943 1.363 . S
C2944 C2950 1.428 . S
H2945 C2941 0.930 . S
H2946 C2943 0.929 . S
S2947 N2948 1.613 . S
S2947 N2949 1.610 . S
N2948 S2947 1.613 . S
N2948 C2951 1.350 . S
N2949 S2947 1.610 . S
N2949 C2950 1.351 . S
C2950 C2944 1.428 . S
C2950 N2949 1.351 . S
C2950 C2951 1.434 . S
C2951 C2942 1.429 . S
C2951 N2948 1.350 . S
C2951 C2950 1.434 . S
C1633 C5 1.758 . S
C1635 C360 1.866 . S
C1644 C394 1.862 . S
C1646 C39 1.768 . S
C1655 C292 1.866 . S
C1657 C73 1.759 . S
C1666 C326 1.867 . S
C1668 C107 1.763 . S
C1677 C496 1.861 . S
C1679 C141 1.768 . S
C1688 C175 1.758 . S
C1690 C530 1.865 . S
C1699 C428 1.859 . S
C1701 C209 1.765 . S
C1710 C462 1.867 . S
C1712 C243 1.762 . S
C1721 C277 1.760 . S
C1723 C598 1.863 . S
C1732 C311 1.762 . S
C1734 C632 1.866 . S
C1743 C345 1.760 . S
C1745 C666 1.863 . S
C1754 C379 1.764 . S
C1756 C1516 1.860 . S
C1765 C1380 1.858 . S
C1767 C413 1.769 . S
C1776 C447 1.769 . S
C1778 C802 1.859 . S
C1787 C481 1.764 . S
C1789 C1550 1.860 . S
C1798 C768 1.864 . S
C1800 C515 1.760 . S
C1809 C549 1.766 . S
C1811 C1040 1.864 . S
C1820 C583 1.768 . S
C1822 C88 1.862 . S
C1831 C122 1.866 . S
C1833 C617 1.763 . S
C1842 C20 1.860 . S
C1844 C651 1.769 . S
C1853 C685 1.758 . S
C1855 C870 1.866 . S
C1864 C719 1.758 . S
C1866 C972 1.866 . S
C1875 C190 1.866 . S
C1877 C753 1.764 . S
C1886 C258 1.862 . S
C1888 C787 1.761 . S
C1897 C1176 1.867 . S
C1899 C821 1.759 . S
C1908 C855 1.759 . S
C1910 C1210 1.864 . S
C1919 C1108 1.866 . S
C1921 C889 1.764 . S
C1930 C1142 1.864 . S
C1932 C923 1.760 . S
C1941 C1312 1.859 . S
C1943 C957 1.765 . S
C1952 C1346 1.864 . S
C1954 C991 1.766 . S
C1963 C1244 1.859 . S
C1965 C1025 1.765 . S
C1974 C1059 1.758 . S
C1976 C1278 1.866 . S
C1985 C1414 1.860 . S
C1987 C1093 1.764 . S
C1996 C1448 1.858 . S
C1998 C1127 1.767 . S
C2007 C1161 1.771 . S
C2009 C1482 1.860 . S
C2018 C1195 1.767 . S
C2020 C700 1.863 . S
C2029 C1229 1.758 . S
C2031 C564 1.865 . S
C2040 C1263 1.762 . S
C2042 C1618 1.866 . S
C2051 C734 1.860 . S
C2053 C1297 1.763 . S
C2062 C1584 1.865 . S
C2064 C1331 1.760 . S
C2073 C224 1.857 . S
C2075 C1365 1.768 . S
C2084 C904 1.867 . S
C2086 C1399 1.762 . S
C2095 C1433 1.766 . S
C2097 C938 1.864 . S
C2106 C1467 1.767 . S
C2108 C836 1.864 . S
C2117 C54 1.859 . S
C2119 C1501 1.765 . S
C2128 C156 1.857 . S
C2130 C1535 1.768 . S
C2139 C1569 1.764 . S
C2141 C1006 1.860 . S
C2150 C1074 1.859 . S
C2152 C1603 1.764 . S
C2161 C2 2.232 . S
C2163 C886 2.232 . S
C2172 C36 2.232 . S
C2174 C920 2.232 . S
C2183 C70 2.233 . S
C2185 C818 2.232 . S
C2194 C852 2.234 . S
C2196 C104 2.233 . S
C2205 C1022 2.234 . S
C2207 C138 2.233 . S
C2216 C1056 2.232 . S
C2218 C172 2.232 . S
C2227 C954 2.232 . S
C2229 C206 2.233 . S
C2238 C988 2.234 . S
C2240 C240 2.234 . S
C2249 C274 2.233 . S
C2251 C410 2.234 . S
C2260 C444 2.232 . S
C2262 C308 2.233 . S
C2271 C342 2.234 . S
C2273 C478 2.232 . S
C2282 C376 2.232 . S
C2284 C512 2.234 . S
C2293 C546 2.234 . S
C2295 C1464 2.234 . S
C2304 C580 2.233 . S
C2306 C1532 2.232 . S
C2315 C614 2.232 . S
C2317 C750 2.234 . S
C2326 C1362 2.232 . S
C2328 C648 2.233 . S
C2337 C1600 2.233 . S
C2339 C682 2.234 . S
C2348 C1396 2.234 . S
C2350 C716 2.233 . S
C2359 C784 2.232 . S
C2361 C1498 2.233 . S
C2370 C1090 2.232 . S
C2372 C1226 2.233 . S
C2381 C1124 2.233 . S
C2383 C1260 2.234 . S
C2392 C1158 2.233 . S
C2394 C1294 2.234 . S
C2403 C1192 2.233 . S
C2405 C1328 2.234 . S
C2414 C1430 2.233 . S
C2416 C1566 2.232 . S
C2425 C689 0.963 . S
C2427 C9 0.974 . S
C2436 C43 0.960 . S
C2438 C1403 0.981 . S
C2447 C77 0.961 . S
C2449 C1437 0.982 . S
C2458 C1471 0.963 . S
C2460 C111 0.973 . S
C2469 C1607 0.960 . S
C2471 C145 0.981 . S
C2480 C723 0.979 . S
C2482 C179 0.963 . S
C2491 C213 0.983 . S
C2493 C1573 0.969 . S
C2502 C247 0.973 . S
C2504 C553 0.965 . S
C2513 C519 0.983 . S
C2515 C281 0.968 . S
C2524 C315 0.981 . S
C2526 C417 0.971 . S
C2535 C349 0.967 . S
C2537 C451 0.970 . S
C2546 C485 0.960 . S
C2548 C383 0.978 . S
C2557 C859 0.981 . S
C2559 C587 0.971 . S
C2568 C621 0.961 . S
C2570 C893 0.975 . S
C2579 C655 0.981 . S
C2581 C927 0.971 . S
C2590 C757 0.975 . S
C2592 C1029 0.976 . S
C2601 C961 0.962 . S
C2603 C791 0.975 . S
C2612 C825 0.960 . S
C2614 C1505 0.981 . S
C2623 C1539 0.964 . S
C2625 C995 0.973 . S
C2634 C1369 0.964 . S
C2636 C1063 0.972 . S
C2645 C1097 0.961 . S
C2647 C1335 0.981 . S
C2656 C1233 0.975 . S
C2658 C1131 0.976 . S
C2667 C1165 0.972 . S
C2669 C1267 0.966 . S
C2678 C1199 0.970 . S
C2680 C1301 0.967 . S
C2689 C33 1.638 . S
C2691 C339 1.637 . S
C2700 C373 1.637 . S
C2702 C67 1.637 . S
C2711 C407 1.640 . S
C2713 C101 1.640 . S
C2722 C305 1.637 . S
C2724 C135 1.637 . S
C2733 C169 1.636 . S
C2735 C543 1.637 . S
C2744 C441 1.640 . S
C2746 C203 1.639 . S
C2755 C237 1.639 . S
C2757 C475 1.640 . S
C2766 C271 1.640 . S
C2768 C509 1.640 . S
C2777 C645 1.637 . S
C2779 C577 1.638 . S
C2788 C611 1.639 . S
C2790 C1597 1.640 . S
C2799 C1631 1.638 . S
C2801 C679 1.639 . S
C2810 C713 1.640 . S
C2812 C1563 1.640 . S
C2821 C1529 1.638 . S
C2823 C747 1.639 . S
C2832 C781 1.640 . S
C2834 C1427 1.640 . S
C2843 C1495 1.639 . S
C2845 C815 1.640 . S
C2854 C1155 1.636 . S
C2856 C849 1.638 . S
C2865 C1189 1.640 . S
C2867 C883 1.639 . S
C2876 C917 1.638 . S
C2878 C1223 1.637 . S
C2887 C951 1.640 . S
C2889 C1121 1.640 . S
C2898 C985 1.636 . S
C2900 C1359 1.638 . S
C2909 C1019 1.640 . S
C2911 C1257 1.640 . S
C2920 C1291 1.636 . S
C2922 C1053 1.637 . S
C2931 C1087 1.639 . S
C2933 C1325 1.640 . S
C2942 C1393 1.638 . S
C2944 C1461 1.639 . S
