# Generated by pormake.
# Topology sml, (6)-cn, num edge types: 1
# Building blocks:
#     Node 0, Type 0, BuildingBlock: KUMBUR_clean_sbu_1, # of connection points: 6
#     Node 1, Type 0, BuildingBlock: KUMBUR_clean_sbu_1, # of connection points: 6
#     Node 2, Type 0, BuildingBlock: KUMBUR_clean_sbu_1, # of connection points: 6
#     Node 3, Type 0, BuildingBlock: KUMBUR_clean_sbu_1, # of connection points: 6
#     Node 4, Type 0, BuildingBlock: KUMBUR_clean_sbu_1, # of connection points: 6
#     Node 5, Type 0, BuildingBlock: KUMBUR_clean_sbu_1, # of connection points: 6
#     Edge 6, Type (0, 0), BuildingBlock: UVAHIK_clean_linker_0, # of connection points: 2
#     Edge 7, Type (0, 0), BuildingBlock: UVAHIK_clean_linker_0, # of connection points: 2
#     Edge 8, Type (0, 0), BuildingBlock: UVAHIK_clean_linker_0, # of connection points: 2
#     Edge 9, Type (0, 0), BuildingBlock: UVAHIK_clean_linker_0, # of connection points: 2
#     Edge 10, Type (0, 0), BuildingBlock: UVAHIK_clean_linker_0, # of connection points: 2
#     Edge 11, Type (0, 0), BuildingBlock: UVAHIK_clean_linker_0, # of connection points: 2
#     Edge 12, Type (0, 0), BuildingBlock: UVAHIK_clean_linker_0, # of connection points: 2
#     Edge 13, Type (0, 0), BuildingBlock: UVAHIK_clean_linker_0, # of connection points: 2
#     Edge 14, Type (0, 0), BuildingBlock: UVAHIK_clean_linker_0, # of connection points: 2
#     Edge 15, Type (0, 0), BuildingBlock: UVAHIK_clean_linker_0, # of connection points: 2
#     Edge 16, Type (0, 0), BuildingBlock: UVAHIK_clean_linker_0, # of connection points: 2
#     Edge 17, Type (0, 0), BuildingBlock: UVAHIK_clean_linker_0, # of connection points: 2
#     Edge 18, Type (0, 0), BuildingBlock: UVAHIK_clean_linker_0, # of connection points: 2
#     Edge 19, Type (0, 0), BuildingBlock: UVAHIK_clean_linker_0, # of connection points: 2
#     Edge 20, Type (0, 0), BuildingBlock: UVAHIK_clean_linker_0, # of connection points: 2
#     Edge 21, Type (0, 0), BuildingBlock: UVAHIK_clean_linker_0, # of connection points: 2
#     Edge 22, Type (0, 0), BuildingBlock: UVAHIK_clean_linker_0, # of connection points: 2
#     Edge 23, Type (0, 0), BuildingBlock: UVAHIK_clean_linker_0, # of connection points: 2
# Relax obj value: 0.053
# Max RMSD: 0.161
# Mean RMSD: 0.161
data_MOF--net-sml--node1-KUMBUR_clean_sbu_1--edge1-UVAHIK_clean_linker_0
_symmetry_space_group_name_H-M    P1
_symmetry_Int_Tables_number       1
_symmetry_cell_setting            triclinic
loop_
_symmetry_equiv_pos_as_xyz
'x, y, z'
_cell_length_a     44.890465
_cell_length_b     44.76186
_cell_length_c     28.740189
_cell_angle_alpha  89.930338
_cell_angle_beta   90.182321
_cell_angle_gamma 119.91724
loop_
_atom_site_label
_atom_site_type_symbol
_atom_site_fract_x
_atom_site_fract_y
_atom_site_fract_z
_atom_type_partial_charge
Tb0 Tb 0.15796 0.40947 0.93275 0.0
C1 C 0.28604 0.41466 0.04741 0.0
N2 N 0.2517 0.39241 0.04804 0.0
C3 C 0.26162 0.34461 0.05226 0.0
C4 C 0.30974 0.40276 0.04763 0.0
C5 C 0.23919 0.35785 0.05266 0.0
C6 C 0.29705 0.36714 0.0489 0.0
C7 C 0.33259 0.47359 0.05445 0.0
C8 C 0.29728 0.44946 0.05065 0.0
C9 C 0.35655 0.46214 0.0521 0.0
C10 C 0.34514 0.42675 0.04862 0.0
Tb11 Tb 0.21751 0.41649 0.04606 0.0
N12 N 0.27331 0.45937 0.0532 0.0
C13 C 0.34255 0.50825 0.06204 0.0
C14 C 0.28264 0.49266 0.06405 0.0
C15 C 0.31742 0.51773 0.06757 0.0
H16 H 0.21183 0.34052 0.05604 0.0
H17 H 0.32482 0.54428 0.07473 0.0
H18 H 0.10883 0.4405 0.9667 0.0
H19 H 0.12839 0.2787 0.89245 0.0
H20 H 0.2632 0.49994 0.06855 0.0
H21 H 0.36945 0.52766 0.06509 0.0
H22 H 0.16283 0.3416 0.88886 0.0
H23 H 0.2516 0.3171 0.05473 0.0
H24 H 0.38387 0.48029 0.05438 0.0
H25 H 0.36384 0.41817 0.04835 0.0
H26 H 0.04894 0.4176 0.99337 0.0
H27 H 0.31438 0.35687 0.04903 0.0
H28 H 0.07051 0.25072 0.92771 0.0
N29 N 0.10315 0.39087 0.95654 0.0
C30 C 0.08174 0.35627 0.95755 0.0
C31 C 0.05787 0.40007 0.9835 0.0
C32 C 0.04762 0.34205 0.97323 0.0
C33 C 0.09167 0.41296 0.96827 0.0
C34 C 0.03581 0.36446 0.98634 0.0
N35 N 0.12765 0.35016 0.92871 0.0
C36 C 0.13891 0.33024 0.90757 0.0
C37 C 0.07317 0.29908 0.94477 0.0
C38 C 0.09458 0.33521 0.94397 0.0
C39 C 0.0861 0.27858 0.92772 0.0
C40 C 0.11884 0.29427 0.9081 0.0
H41 H 0.00976 0.35455 0.99862 0.0
H42 H 0.00039 0.29463 0.98795 0.0
H43 H 0.02265 0.25695 0.96266 0.0
O44 O 0.14693 0.39753 0.86137 0.0
O45 O 0.14201 0.3999 1.00567 0.0
O46 O 0.16762 0.371 0.03339 0.0
O47 O 0.14356 0.43916 0.89204 0.0
O48 O 0.19859 0.39669 0.92298 0.0
O49 O 0.19823 0.37496 0.99491 0.0
O50 O 0.19111 0.42227 0.10272 0.0
O51 O 0.24608 0.45449 0.99139 0.0
O52 O 0.21229 0.44813 0.92516 0.0
O53 O 0.22916 0.40714 0.11347 0.0
O54 O 0.20101 0.45487 0.04079 0.0
O55 O 0.17436 0.45743 0.97087 0.0
C56 C 0.14066 0.37487 0.03077 0.0
C57 C 0.16383 0.44698 0.81466 0.0
C58 C 0.18216 0.45476 0.7333 0.0
C59 C 0.20376 0.49016 0.74182 0.0
C60 C 0.18508 0.48262 0.82183 0.0
C61 C 0.2051 0.50391 0.78574 0.0
C62 C 0.1622 0.43323 0.77005 0.0
C63 C 0.20912 0.38108 0.95183 0.0
C64 C 0.14345 0.42418 0.85342 0.0
C65 C 0.0266 0.3061 0.97558 0.0
C66 C 0.03934 0.28465 0.96138 0.0
C67 C 0.2415 0.46293 0.94892 0.0
C68 C 0.18362 0.38619 0.16668 0.0
C69 C 0.16248 0.37097 0.24626 0.0
C70 C 0.14148 0.33656 0.23196 0.0
C71 C 0.16343 0.3516 0.15348 0.0
C72 C 0.18322 0.39578 0.21304 0.0
C73 C 0.14206 0.32702 0.18586 0.0
C74 C 0.18771 0.46859 0.01267 0.0
C75 C 0.20607 0.41235 0.13294 0.0
H76 H 0.21908 0.50744 0.71419 0.0
H77 H 0.18653 0.49414 0.85547 0.0
H78 H 0.2216 0.53125 0.79179 0.0
H79 H 0.14569 0.40584 0.7641 0.0
H80 H 0.12542 0.31681 0.2567 0.0
H81 H 0.16445 0.34364 0.11829 0.0
H82 H 0.19921 0.42252 0.22323 0.0
H83 H 0.1263 0.30037 0.17538 0.0
Tb84 Tb 0.83424 0.24801 0.43497 0.0
C85 C 0.70622 0.12438 0.3241 0.0
N86 N 0.74047 0.136 0.3226 0.0
C87 C 0.72974 0.07795 0.32123 0.0
C88 C 0.68219 0.08887 0.32567 0.0
C89 C 0.75251 0.11351 0.31908 0.0
C90 C 0.69444 0.06557 0.32529 0.0
C91 C 0.66003 0.13737 0.3179 0.0
C92 C 0.69531 0.14819 0.32034 0.0
C93 C 0.63581 0.1021 0.32186 0.0
C94 C 0.64688 0.07788 0.32579 0.0
Tb95 Tb 0.77518 0.19424 0.32242 0.0
N96 N 0.71951 0.18194 0.3164 0.0
C97 C 0.65031 0.16224 0.3101 0.0
C98 C 0.71034 0.20599 0.30522 0.0
C99 C 0.6756 0.19662 0.30299 0.0
H100 H 0.77975 0.12311 0.31513 0.0
H101 H 0.66835 0.21587 0.29564 0.0
H102 H 0.88182 0.32817 0.39938 0.0
H103 H 0.86682 0.14922 0.4772 0.0
H104 H 0.7299 0.23255 0.29963 0.0
H105 H 0.62344 0.15502 0.30807 0.0
H106 H 0.83139 0.17664 0.4804 0.0
H107 H 0.73939 0.06013 0.31955 0.0
H108 H 0.60852 0.09322 0.32059 0.0
H109 H 0.62795 0.05069 0.32743 0.0
H110 H 0.94135 0.36584 0.37169 0.0
H111 H 0.67684 0.03802 0.32655 0.0
H112 H 0.92441 0.17977 0.44115 0.0
N113 N 0.8887 0.28502 0.41046 0.0
C114 C 0.91068 0.27247 0.40967 0.0
C115 C 0.93301 0.3396 0.38215 0.0
C116 C 0.94459 0.29276 0.39344 0.0
C117 C 0.89943 0.31832 0.39796 0.0
C118 C 0.95562 0.3267 0.37954 0.0
N119 N 0.86558 0.22013 0.43934 0.0
C120 C 0.85511 0.18933 0.46125 0.0
C121 C 0.92055 0.22471 0.42326 0.0
C122 C 0.89855 0.23874 0.42382 0.0
C123 C 0.90835 0.19152 0.44094 0.0
C124 C 0.87577 0.17409 0.46099 0.0
H125 H 0.98151 0.34314 0.36687 0.0
H126 H 0.99228 0.29356 0.37864 0.0
H127 H 0.97134 0.23405 0.40513 0.0
O128 O 0.84429 0.24616 0.5065 0.0
O129 O 0.85073 0.2542 0.3622 0.0
O130 O 0.82522 0.19936 0.33599 0.0
O131 O 0.84949 0.29207 0.47613 0.0
O132 O 0.79428 0.19419 0.44506 0.0
O133 O 0.79533 0.17274 0.37353 0.0
O134 O 0.80014 0.22526 0.26414 0.0
O135 O 0.74626 0.20273 0.37724 0.0
O136 O 0.78018 0.23342 0.44185 0.0
O137 O 0.76322 0.17148 0.25607 0.0
O138 O 0.79229 0.24941 0.32578 0.0
O139 O 0.81622 0.27839 0.39676 0.0
C140 C 0.85193 0.23036 0.33739 0.0
C141 C 0.82819 0.27919 0.55298 0.0
C142 C 0.81328 0.27402 0.63556 0.0
C143 C 0.7884 0.2834 0.62508 0.0
C144 C 0.80378 0.28938 0.5438 0.0
C145 C 0.78376 0.29101 0.57954 0.0
C146 C 0.83282 0.27145 0.59905 0.0
C147 C 0.78467 0.16791 0.41673 0.0
C148 C 0.84872 0.27661 0.51468 0.0
C149 C 0.96619 0.27849 0.39135 0.0
C150 C 0.9542 0.24454 0.40623 0.0
C151 C 0.75084 0.21728 0.41856 0.0
C152 C 0.80792 0.19586 0.20151 0.0
C153 C 0.82818 0.20026 0.1216 0.0
C154 C 0.84982 0.18776 0.13663 0.0
C155 C 0.82881 0.18242 0.21538 0.0
C156 C 0.80758 0.2047 0.15466 0.0
C157 C 0.85003 0.17888 0.18318 0.0
C158 C 0.80441 0.27641 0.35389 0.0
C159 C 0.7854 0.19956 0.23514 0.0
H160 H 0.77246 0.28485 0.65219 0.0
H161 H 0.80029 0.29627 0.50896 0.0
H162 H 0.7647 0.29844 0.57194 0.0
H163 H 0.85203 0.26415 0.6065 0.0
H164 H 0.86655 0.18475 0.11237 0.0
H165 H 0.82848 0.17444 0.25101 0.0
H166 H 0.79054 0.21406 0.14385 0.0
H167 H 0.86648 0.16891 0.19423 0.0
Tb168 Tb 0.58247 0.75104 0.60793 0.0
C169 C 0.55761 0.85893 0.71339 0.0
N170 N 0.58606 0.85565 0.7146 0.0
C171 C 0.6218 0.91705 0.70838 0.0
C172 C 0.56002 0.89134 0.70769 0.0
C173 C 0.61796 0.88434 0.71508 0.0
C174 C 0.59268 0.92052 0.70376 0.0
C175 C 0.49621 0.83245 0.72555 0.0
C176 C 0.52624 0.83007 0.7221 0.0
C177 C 0.49806 0.86428 0.7173 0.0
C178 C 0.52993 0.89369 0.70829 0.0
Tb179 Tb 0.57662 0.80069 0.72257 0.0
N180 N 0.52559 0.79986 0.72978 0.0
C181 C 0.46562 0.80308 0.73889 0.0
C182 C 0.49647 0.7718 0.7461 0.0
C183 C 0.4659 0.7728 0.75006 0.0
H184 H 0.6405 0.88209 0.72121 0.0
H185 H 0.44264 0.75027 0.76174 0.0
H186 H 0.54454 0.67063 0.6437 0.0
H187 H 0.71309 0.83785 0.55046 0.0
H188 H 0.49676 0.74852 0.7551 0.0
H189 H 0.44195 0.80383 0.74208 0.0
H190 H 0.65155 0.81778 0.55718 0.0
H191 H 0.6472 0.93961 0.70757 0.0
H192 H 0.47522 0.86664 0.71925 0.0
H193 H 0.53119 0.91831 0.70353 0.0
H194 H 0.5616 0.62784 0.66638 0.0
H195 H 0.5957 0.94592 0.69931 0.0
H196 H 0.73647 0.80149 0.57893 0.0
N197 N 0.5956 0.70976 0.62835 0.0
C198 C 0.62899 0.71819 0.62398 0.0
C199 C 0.58083 0.65325 0.6548 0.0
C200 C 0.63997 0.69487 0.63684 0.0
C201 C 0.57124 0.67745 0.64199 0.0
C202 C 0.6154 0.6621 0.65267 0.0
N203 N 0.64004 0.77202 0.59469 0.0
C204 C 0.6613 0.80231 0.57234 0.0
C205 C 0.68708 0.76061 0.60259 0.0
C206 C 0.6521 0.75067 0.6074 0.0
C207 C 0.70939 0.79284 0.5832 0.0
C208 C 0.69631 0.8135 0.56731 0.0
H209 H 0.62278 0.64337 0.66283 0.0
H210 H 0.68402 0.68753 0.64332 0.0
H211 H 0.7253 0.74509 0.61316 0.0
O212 O 0.59033 0.74606 0.53663 0.0
O213 O 0.59776 0.74378 0.67736 0.0
O214 O 0.62289 0.79753 0.70834 0.0
O215 O 0.54238 0.71165 0.56938 0.0
O216 O 0.60372 0.8071 0.60317 0.0
O217 O 0.62212 0.82875 0.67742 0.0
O218 O 0.56869 0.77384 0.78548 0.0
O219 O 0.53559 0.78378 0.66925 0.0
O220 O 0.56182 0.78571 0.59957 0.0
O221 O 0.59342 0.82893 0.78519 0.0
O222 O 0.5505 0.74433 0.72309 0.0
O223 O 0.53413 0.72375 0.64747 0.0
C224 C 0.62161 0.76785 0.70326 0.0
C225 C 0.53996 0.72949 0.49263 0.0
C226 C 0.53601 0.7437 0.41137 0.0
C227 C 0.50575 0.7443 0.42224 0.0
C228 C 0.5098 0.73053 0.50247 0.0
C229 C 0.49284 0.73774 0.4674 0.0
C230 C 0.55291 0.73605 0.44693 0.0
C231 C 0.62205 0.83292 0.63197 0.0
C232 C 0.55845 0.72259 0.53004 0.0
C233 C 0.67495 0.70498 0.63335 0.0
C234 C 0.69847 0.7378 0.6163 0.0
C235 C 0.53765 0.78694 0.62365 0.0
C236 C 0.60923 0.80267 0.84425 0.0
C237 C 0.62244 0.79367 0.92376 0.0
C238 C 0.6549 0.80009 0.90871 0.0
C239 C 0.64199 0.80983 0.83012 0.0
C240 C 0.59962 0.7948 0.89104 0.0
C241 C 0.66459 0.80827 0.86221 0.0
C242 C 0.52942 0.72117 0.69301 0.0
C243 C 0.58412 0.80164 0.81046 0.0
H244 H 0.49171 0.74938 0.39564 0.0
H245 H 0.4993 0.72593 0.53731 0.0
H246 H 0.46954 0.73827 0.47529 0.0
H247 H 0.57641 0.73577 0.43935 0.0
H248 H 0.67309 0.79958 0.93309 0.0
H249 H 0.64997 0.81651 0.79436 0.0
H250 H 0.57419 0.78911 0.90181 0.0
H251 H 0.68979 0.81359 0.85109 0.0
Tb252 Tb 0.74327 0.56909 0.10028 0.0
C253 C 0.84605 0.54239 0.98344 0.0
N254 N 0.84919 0.57318 0.99546 0.0
C255 C 0.90838 0.59502 0.01561 0.0
C256 C 0.87393 0.53645 0.98808 0.0
C257 C 0.87991 0.5996 0.01062 0.0
C258 C 0.90535 0.56325 1.0045 0.0
C259 C 0.8099 0.48397 0.95572 0.0
C260 C 0.81428 0.51642 0.96802 0.0
C261 C 0.83753 0.47779 0.96057 0.0
C262 C 0.86946 0.50396 0.97669 0.0
Tb263 Tb 0.80129 0.57798 0.98602 0.0
N264 N 0.78794 0.52321 0.96441 0.0
C265 C 0.77812 0.45893 0.93799 0.0
C266 C 0.75806 0.49986 0.94298 0.0
C267 C 0.75231 0.46715 0.93079 0.0
H268 H 0.88269 0.62448 0.01766 0.0
H269 H 0.72825 0.44861 0.91473 0.0
H270 H 0.66208 0.51392 0.0746 0.0
H271 H 0.80941 0.70503 0.14481 0.0
H272 H 0.73902 0.50642 0.93298 0.0
H273 H 0.7737 0.43368 0.92809 0.0
H274 H 0.80512 0.64915 0.13109 0.0
H275 H 0.93267 0.61606 0.02773 0.0
H276 H 0.83456 0.45296 0.95149 0.0
H277 H 0.89054 0.49884 0.98014 0.0
H278 H 0.60762 0.51478 0.06845 0.0
H279 H 0.92741 0.55973 1.00851 0.0
H280 H 0.75767 0.71102 0.13938 0.0
N281 N 0.69176 0.56694 0.09261 0.0
C282 C 0.69177 0.59673 0.10174 0.0
C283 C 0.63114 0.53804 0.07764 0.0
C284 C 0.66129 0.59837 0.09888 0.0
C285 C 0.66208 0.53771 0.08072 0.0
C286 C 0.63072 0.56849 0.08677 0.0
N287 N 0.75182 0.62335 0.11368 0.0
C288 C 0.78248 0.65115 0.12641 0.0
C289 C 0.72398 0.65743 0.1215 0.0
C290 C 0.72278 0.62587 0.11277 0.0
C291 C 0.75564 0.68628 0.13244 0.0
C292 C 0.78494 0.68304 0.13524 0.0
H293 H 0.60672 0.56866 0.0843 0.0
H294 H 0.63919 0.63152 0.1058 0.0
H295 H 0.69405 0.68323 0.12565 0.0
O296 O 0.75794 0.57231 0.17066 0.0
O297 O 0.73893 0.59668 0.04023 0.0
O298 O 0.79184 0.61992 1.0058 0.0
O299 O 0.70696 0.53513 0.14844 0.0
O300 O 0.79928 0.59399 0.10933 0.0
O301 O 0.82323 0.61903 0.03846 0.0
O302 O 0.7917 0.57929 0.91354 0.0
O303 O 0.80578 0.54984 0.04649 0.0
O304 O 0.75212 0.52801 0.07663 0.0
O305 O 0.84184 0.61312 0.94438 0.0
O306 O 0.74501 0.55373 0.97751 0.0
O307 O 0.72145 0.52768 0.04829 0.0
C308 C 0.76156 0.61746 0.00989 0.0
C309 C 0.71297 0.55945 0.22339 0.0
C310 C 0.71524 0.57403 0.30567 0.0
C311 C 0.68769 0.58008 0.29855 0.0
C312 C 0.68505 0.56506 0.21735 0.0
C313 C 0.6727 0.57551 0.25468 0.0
C314 C 0.72779 0.56369 0.2678 0.0
C315 C 0.82587 0.61459 0.08331 0.0
C316 C 0.72712 0.54955 0.18388 0.0
C317 C 0.66236 0.62973 0.10777 0.0
C318 C 0.69362 0.65919 0.11902 0.0
C319 C 0.78206 0.52983 0.07633 0.0
C320 C 0.8377 0.61982 0.86157 0.0
C321 C 0.83225 0.6251 0.77792 0.0
C322 C 0.86554 0.65387 0.77725 0.0
C323 C 0.87109 0.64852 0.85991 0.0
C324 C 0.81839 0.60786 0.82016 0.0
C325 C 0.88486 0.66534 0.81798 0.0
C326 C 0.71884 0.53156 1.00312 0.0
C327 C 0.82331 0.6036 0.90689 0.0
H328 H 0.67732 0.58776 0.32715 0.0
H329 H 0.67254 0.56119 0.18399 0.0
H330 H 0.65126 0.57988 0.24964 0.0
H331 H 0.7493 0.55936 0.27271 0.0
H332 H 0.87667 0.66735 0.74498 0.0
H333 H 0.88654 0.65828 0.89116 0.0
H334 H 0.7926 0.58582 0.82084 0.0
H335 H 0.91053 0.68747 0.8171 0.0
Tb336 Tb 0.24422 0.82568 0.27394 0.0
C337 C 0.11361 0.70249 0.38158 0.0
N338 N 0.12773 0.73724 0.38276 0.0
C339 C 0.07162 0.73121 0.38111 0.0
C340 C 0.07778 0.68056 0.3785 0.0
C341 C 0.10738 0.75182 0.3848 0.0
C342 C 0.05678 0.69544 0.3771 0.0
C343 C 0.12155 0.6531 0.39062 0.0
C344 C 0.13507 0.68897 0.38746 0.0
C345 C 0.08602 0.63093 0.38504 0.0
C346 C 0.06416 0.64465 0.37892 0.0
Tb347 Tb 0.18618 0.76837 0.38576 0.0
N348 N 0.16912 0.71126 0.39305 0.0
C349 C 0.14404 0.64077 0.40079 0.0
C350 C 0.19079 0.69958 0.40645 0.0
C351 C 0.17874 0.66416 0.40944 0.0
H352 H 0.11884 0.77943 0.38861 0.0
H353 H 0.19616 0.65494 0.41858 0.0
H354 H 0.32548 0.86942 0.30454 0.0
H355 H 0.15315 0.86775 0.22801 0.0
H356 H 0.21757 0.7176 0.41326 0.0
H357 H 0.13472 0.61336 0.40343 0.0
H358 H 0.17557 0.82793 0.22763 0.0
H359 H 0.05555 0.7429 0.3815 0.0
H360 H 0.07511 0.60323 0.3868 0.0
H361 H 0.03669 0.6273 0.37613 0.0
H362 H 0.36743 0.92912 0.32816 0.0
H363 H 0.02909 0.67953 0.37463 0.0
H364 H 0.18809 0.92633 0.26071 0.0
N365 N 0.28472 0.88002 0.2946 0.0
C366 C 0.27482 0.9041 0.29449 0.0
C367 C 0.34142 0.92239 0.31895 0.0
C368 C 0.2977 0.93833 0.30809 0.0
C369 C 0.31767 0.88866 0.30558 0.0
C370 C 0.33132 0.94729 0.3206 0.0
N371 N 0.22062 0.8609 0.26713 0.0
C372 C 0.19014 0.85215 0.24548 0.0
C373 C 0.23039 0.91852 0.27978 0.0
C374 C 0.24151 0.8941 0.28099 0.0
C375 C 0.19761 0.90837 0.2623 0.0
C376 C 0.17773 0.87526 0.24411 0.0
H377 H 0.3497 0.97334 0.33125 0.0
H378 H 0.30336 0.98876 0.31949 0.0
H379 H 0.24447 0.9715 0.29431 0.0
O380 O 0.2461 0.83842 0.20262 0.0
O381 O 0.25146 0.84318 0.34628 0.0
O382 O 0.1967 0.82075 0.37206 0.0
O383 O 0.2853 0.82959 0.23365 0.0
O384 O 0.18965 0.78836 0.26276 0.0
O385 O 0.16896 0.79178 0.33356 0.0
O386 O 0.21733 0.79211 0.44446 0.0
O387 O 0.19425 0.73762 0.33282 0.0
O388 O 0.22356 0.77059 0.26724 0.0
O389 O 0.1629 0.75834 0.45158 0.0
O390 O 0.23928 0.77947 0.38278 0.0
O391 O 0.2731 0.80838 0.31744 0.0
C392 C 0.22855 0.84614 0.37077 0.0
C393 C 0.2912 0.84311 0.15082 0.0
C394 C 0.29004 0.84426 0.06585 0.0
C395 C 0.32526 0.85512 0.06525 0.0
C396 C 0.32632 0.85356 0.14932 0.0
C397 C 0.3432 0.85956 0.10674 0.0
C398 C 0.27297 0.8382 0.1088 0.0
C399 C 0.16366 0.78052 0.29065 0.0
C400 C 0.27378 0.83666 0.19621 0.0
C401 C 0.28629 0.96238 0.30873 0.0
C402 C 0.25271 0.95249 0.29459 0.0
C403 C 0.2077 0.74154 0.2909 0.0
C404 C 0.18967 0.80321 0.506 0.0
C405 C 0.19682 0.82571 0.58512 0.0
C406 C 0.18666 0.84911 0.56941 0.0
C407 C 0.17876 0.82607 0.49136 0.0
C408 C 0.19847 0.8029 0.55289 0.0
C409 C 0.17765 0.84918 0.52287 0.0
C410 C 0.268 0.79278 0.35835 0.0
C411 C 0.19138 0.77913 0.47296 0.0
H412 H 0.33883 0.85988 0.03253 0.0
H413 H 0.3408 0.85728 0.18111 0.0
H414 H 0.37031 0.86772 0.10589 0.0
H415 H 0.24577 0.82982 0.10942 0.0
H416 H 0.18486 0.86681 0.59335 0.0
H417 H 0.17091 0.82583 0.45568 0.0
H418 H 0.20668 0.785 0.56417 0.0
H419 H 0.16942 0.86695 0.5113 0.0
Tb420 Tb 0.41061 0.16874 0.75286 0.0
C421 C 0.39296 0.28544 0.64072 0.0
N422 N 0.37667 0.25061 0.63844 0.0
C423 C 0.32225 0.24826 0.63327 0.0
C424 C 0.3745 0.30324 0.64106 0.0
C425 C 0.34191 0.23189 0.63253 0.0
C426 C 0.33857 0.28406 0.63853 0.0
C427 C 0.44651 0.33935 0.63452 0.0
C428 C 0.42828 0.30315 0.6378 0.0
C429 C 0.42857 0.35754 0.63804 0.0
C430 C 0.39256 0.33948 0.64142 0.0
Tb431 Tb 0.41066 0.22625 0.64059 0.0
N432 N 0.44434 0.28453 0.63344 0.0
C433 C 0.48184 0.35589 0.62536 0.0
C434 C 0.47817 0.30017 0.62085 0.0
C435 C 0.4976 0.33614 0.61756 0.0
H436 H 0.32933 0.20421 0.62842 0.0
H437 H 0.52464 0.34857 0.609 0.0
H438 H 0.44377 0.12115 0.72149 0.0
H439 H 0.27948 0.13335 0.79955 0.0
H440 H 0.49028 0.28484 0.61482 0.0
H441 H 0.49684 0.3837 0.62248 0.0
H442 H 0.34205 0.16982 0.80161 0.0
H443 H 0.29458 0.23327 0.62985 0.0
H444 H 0.44211 0.38543 0.63628 0.0
H445 H 0.3789 0.35373 0.64225 0.0
H446 H 0.4228 0.06133 0.69462 0.0
H447 H 0.32335 0.29671 0.63875 0.0
H448 H 0.25286 0.07571 0.76298 0.0
N449 N 0.3936 0.11378 0.73067 0.0
C450 C 0.3593 0.09141 0.72959 0.0
C451 C 0.40466 0.06951 0.70419 0.0
C452 C 0.34613 0.05728 0.71398 0.0
C453 C 0.41646 0.10326 0.71948 0.0
C454 C 0.36932 0.0465 0.70095 0.0
N455 N 0.35158 0.13615 0.75942 0.0
C456 C 0.3312 0.14605 0.7823 0.0
C457 C 0.30166 0.08055 0.74378 0.0
C458 C 0.33751 0.10314 0.74373 0.0
C459 C 0.28053 0.09222 0.76225 0.0
C460 C 0.29545 0.12482 0.78264 0.0
H461 H 0.36025 0.02046 0.68876 0.0
H462 H 0.2997 0.00891 0.69961 0.0
H463 H 0.26071 0.02919 0.72613 0.0
O464 O 0.39968 0.1536 0.82363 0.0
O465 O 0.40171 0.15241 0.67995 0.0
O466 O 0.36882 0.17424 0.65433 0.0
O467 O 0.44795 0.16425 0.79213 0.0
O468 O 0.39486 0.20708 0.76457 0.0
O469 O 0.37091 0.20394 0.69371 0.0
O470 O 0.4188 0.19973 0.586 0.0
O471 O 0.44985 0.25707 0.69338 0.0
O472 O 0.4444 0.22435 0.76053 0.0
O473 O 0.40204 0.23611 0.57175 0.0
O474 O 0.45534 0.21932 0.64757 0.0
O475 O 0.45611 0.18482 0.7093 0.0
C476 C 0.3755 0.14898 0.65567 0.0
C477 C 0.44038 0.14726 0.87361 0.0
C478 C 0.43823 0.14246 0.95848 0.0
C479 C 0.46163 0.13029 0.95656 0.0
C480 C 0.46405 0.13545 0.87275 0.0
C481 C 0.47452 0.12698 0.914 0.0
C482 C 0.42765 0.15102 0.91675 0.0
C483 C 0.37755 0.21588 0.73628 0.0
C484 C 0.42916 0.15529 0.82932 0.0
C485 C 0.3104 0.03516 0.71197 0.0
C486 C 0.2882 0.04677 0.72687 0.0
C487 C 0.45832 0.25343 0.7364 0.0
C488 C 0.3835 0.18939 0.52023 0.0
C489 C 0.36967 0.16558 0.44154 0.0
C490 C 0.33581 0.14287 0.45608 0.0
C491 C 0.34938 0.16729 0.53352 0.0
C492 C 0.39353 0.18878 0.47407 0.0
C493 C 0.32577 0.1439 0.5017 0.0
C494 C 0.46901 0.20366 0.67119 0.0
C495 C 0.40866 0.21335 0.55409 0.0
H496 H 0.47027 0.12371 0.98818 0.0
H497 H 0.4742 0.13239 0.84006 0.0
H498 H 0.49267 0.11774 0.91298 0.0
H499 H 0.40949 0.16029 0.91787 0.0
H500 H 0.31684 0.12489 0.43182 0.0
H501 H 0.34103 0.16823 0.56847 0.0
H502 H 0.41983 0.20618 0.4636 0.0
H503 H 0.29951 0.1267 0.5123 0.0
C504 C 0.37783 0.25919 0.79061 0.0
C505 C 0.36079 0.23406 0.75617 0.0
C506 C 0.36162 0.27535 0.81175 0.0
C507 C 0.29403 0.2972 0.79561 0.0
H508 H 0.29474 0.30271 0.93043 0.0
C509 C 0.22126 0.33223 0.94713 0.0
C510 C 0.22776 0.36475 0.93194 0.0
C511 C 0.23814 0.31649 0.92654 0.0
C512 C 0.29429 0.30126 0.89279 0.0
H513 H 0.31297 0.20483 0.71842 0.0
H514 H 0.28508 0.23429 0.75379 0.0
H515 H 0.32313 0.27488 0.89188 0.0
H516 H 0.25625 0.40605 0.88285 0.0
H517 H 0.28521 0.37821 0.84611 0.0
H518 H 0.26546 0.32384 0.7965 0.0
C519 C 0.31113 0.24176 0.76398 0.0
C520 C 0.3107 0.28559 0.87075 0.0
C521 C 0.32719 0.22522 0.74336 0.0
C522 C 0.25094 0.38101 0.89532 0.0
C523 C 0.26742 0.36509 0.87428 0.0
C524 C 0.27807 0.31333 0.81762 0.0
C525 C 0.3281 0.26677 0.79869 0.0
C526 C 0.31069 0.28338 0.82196 0.0
C527 C 0.26114 0.33265 0.88961 0.0
C528 C 0.27803 0.31548 0.86641 0.0
H529 H 0.4037 0.26628 0.8013 0.0
H530 H 0.37535 0.29469 0.8382 0.0
H531 H 0.29378 0.29595 0.75795 0.0
H532 H 0.2025 0.31856 0.97406 0.0
H533 H 0.23248 0.29126 0.93859 0.0
C534 C 0.09355 0.37251 0.07849 0.0
C535 C 0.1115 0.35626 0.06281 0.0
C536 C 0.06451 0.35487 0.10618 0.0
C537 C 0.02057 0.28308 0.18715 0.0
H538 H 0.94251 0.29489 0.15874 0.0
C539 C 0.89281 0.21858 0.29286 0.0
C540 C 0.8801 0.24068 0.30387 0.0
C541 C 0.92027 0.22925 0.26183 0.0
C542 C 0.96414 0.29145 0.16723 0.0
H543 H 0.11313 0.30875 0.06344 0.0
H544 H 0.06222 0.27771 0.11324 0.0
H545 H 0.99204 0.31944 0.10707 0.0
H546 H 0.88641 0.29138 0.29244 0.0
H547 H 0.93413 0.30998 0.23853 0.0
H548 H 0.99272 0.25561 0.24798 0.0
C549 C 0.0709 0.30426 0.104 0.0
C550 C 0.99247 0.30547 0.13765 0.0
C551 C 0.1 0.32198 0.07576 0.0
C552 C 0.8955 0.27369 0.28408 0.0
C553 C 0.92267 0.28425 0.25301 0.0
C554 C 0.9921 0.26898 0.21688 0.0
C555 C 0.05268 0.3205 0.119 0.0
C556 C 0.0213 0.30213 0.14783 0.0
C557 C 0.93523 0.2621 0.24125 0.0
C558 C 0.96395 0.27374 0.20771 0.0
H559 H 0.10179 0.3989 0.06905 0.0
H560 H 0.05135 0.36826 0.11772 0.0
H561 H 0.04256 0.28031 0.19595 0.0
H562 H 0.88164 0.19321 0.30843 0.0
H563 H 0.92945 0.21166 0.2534 0.0
C564 C 0.7775 0.10884 0.42274 0.0
C565 C 0.76846 0.13314 0.43748 0.0
C566 C 0.76318 0.07653 0.44414 0.0
C567 C 0.72144 0.03094 0.55297 0.0
H568 H 0.68975 0.94873 0.47768 0.0
C569 C 0.629 0.87486 0.57021 0.0
C570 C 0.64129 0.86782 0.6114 0.0
C571 C 0.64628 0.90743 0.54988 0.0
C572 C 0.69843 0.97144 0.4992 0.0
H573 H 0.73791 0.14315 0.48641 0.0
H574 H 0.71277 0.08666 0.52387 0.0
H575 H 0.71554 0.00501 0.44012 0.0
H576 H 0.68205 0.88918 0.66284 0.0
H577 H 0.71226 0.94677 0.62752 0.0
H578 H 0.7036 -0.00284 0.612 0.0
C579 C 0.73097 0.09253 0.49589 0.0
C580 C 0.71349 0.00372 0.4777 0.0
C581 C 0.74518 0.12475 0.47432 0.0
C582 C 0.67159 0.8941 0.63165 0.0
C583 C 0.68888 0.92697 0.61137 0.0
C584 C 0.7065 -0.00139 0.57453 0.0
C585 C 0.73988 0.06806 0.48114 0.0
C586 C 0.72487 0.03383 0.50426 0.0
C587 C 0.67644 0.93389 0.57009 0.0
C588 C 0.69446 0.96847 0.54782 0.0
H589 H 0.79626 0.11509 0.39543 0.0
H590 H 0.77097 0.05847 0.43239 0.0
H591 H 0.73035 0.0537 0.57446 0.0
H592 H 0.60567 0.85523 0.55379 0.0
H593 H 0.63568 0.91202 0.51855 0.0
C594 C 0.62222 0.72654 0.76028 0.0
C595 C 0.64017 0.75788 0.73628 0.0
C596 C 0.63933 0.7165 0.79162 0.0
C597 C 0.71906 0.72021 0.81683 0.0
H598 H 0.68533 0.69815 0.94341 0.0
C599 C 0.77605 0.6648 0.95133 0.0
C600 C 0.7521 0.63874 0.98057 0.0
C601 C 0.76604 0.68393 0.92316 0.0
C602 C 0.69492 0.70386 0.90811 0.0
H603 H 0.69002 0.80278 0.72444 0.0
H604 H 0.72055 0.78443 0.77859 0.0
H605 H 0.66076 0.72259 0.89015 0.0
H606 H 0.69862 0.61183 1.00212 0.0
H607 H 0.6813 0.6443 0.95313 0.0
H608 H 0.75192 0.6998 0.83376 0.0
C609 C 0.69308 0.76817 0.77375 0.0
C610 C 0.68098 0.71809 0.8778 0.0
C611 C 0.67571 0.7787 0.74314 0.0
C612 C 0.71803 0.63214 0.98084 0.0
C613 C 0.70805 0.65099 0.95271 0.0
C614 C 0.73271 0.70544 0.84699 0.0
C615 C 0.67488 0.73716 0.79859 0.0
C616 C 0.6925 0.72582 0.83173 0.0
C617 C 0.73184 0.67722 0.92352 0.0
C618 C 0.72028 0.6964 0.89277 0.0
H619 H 0.59483 0.70996 0.75516 0.0
H620 H 0.62485 0.6923 0.81003 0.0
H621 H 0.72814 0.7258 0.78127 0.0
H622 H 0.80246 0.67042 0.95016 0.0
H623 H 0.78513 0.70406 0.90132 0.0
C624 C 0.11838 0.73709 0.23853 0.0
C625 C 0.12883 0.76424 0.27035 0.0
C626 C 0.08551 0.72162 0.21878 0.0
C627 C 0.00829 0.68069 0.20362 0.0
H628 H 0.96958 0.73698 0.16352 0.0
C629 C 0.86688 0.62024 0.14612 0.0
C630 C 0.85983 0.63399 0.10638 0.0
C631 C 0.89948 0.63698 0.16659 0.0
C632 C 0.98011 0.72091 0.17425 0.0
H633 H 0.11399 0.79767 0.30513 0.0
H634 H 0.05621 0.77028 0.27142 0.0
H635 H 0.02716 0.7644 0.19751 0.0
H636 H 0.88103 0.67672 0.0579 0.0
H637 H 0.93825 0.70598 0.09349 0.0
H638 H 0.96162 0.63728 0.17959 0.0
C639 C 0.0733 0.76083 0.26162 0.0
C640 C 0.01296 0.7366 0.19424 0.0
C641 C 0.10619 0.77624 0.2814 0.0
C642 C 0.88581 0.66543 0.08836 0.0
C643 C 0.9185 0.68226 0.1089 0.0
C644 C 0.97547 0.66503 0.18373 0.0
C645 C 0.06251 0.73325 0.23014 0.0
C646 C 0.02747 0.71667 0.20913 0.0
C647 C 0.92583 0.66799 0.14797 0.0
C648 C 0.96092 0.68491 0.16886 0.0
H649 H 0.13558 0.72763 0.2292 0.0
H650 H 0.07828 0.70083 0.19412 0.0
H651 H 0.0185 0.66451 0.21512 0.0
H652 H 0.84739 0.59602 0.16082 0.0
H653 H 0.90403 0.62556 0.19707 0.0
C654 C 0.32247 0.10516 0.61409 0.0
C655 C 0.35758 0.11928 0.62408 0.0
C656 C 0.30565 0.07639 0.58487 0.0
C657 C 0.32344 0.02965 0.49329 0.0
H658 H 0.23519 0.95153 0.52682 0.0
C659 C 0.27437 0.89601 0.41414 0.0
C660 C 0.23992 0.8772 0.39973 0.0
C661 C 0.28628 0.92649 0.43923 0.0
C662 C 0.25958 0.97338 0.51668 0.0
H663 H 0.40252 0.1142 0.6126 0.0
H664 H 0.37336 0.06417 0.5619 0.0
H665 H 0.26062 0.00346 0.57538 0.0
H666 H 0.19088 0.87553 0.39998 0.0
H667 H 0.21159 0.92873 0.44549 0.0
H668 H 0.32288 -0.00055 0.43529 0.0
C669 C 0.35884 0.0755 0.57576 0.0
C670 C 0.27413 0.00307 0.54443 0.0
C671 C 0.37549 0.10401 0.60503 0.0
C672 C 0.21743 0.88929 0.41138 0.0
C673 C 0.2293 0.91973 0.43715 0.0
C674 C 0.30899 6e-05 0.46571 0.0
C675 C 0.32379 0.06147 0.56506 0.0
C676 C 0.30658 0.03123 0.53354 0.0
C677 C 0.26396 0.93878 0.45092 0.0
C678 C 0.27727 0.97133 0.47763 0.0
H679 H 0.30804 0.11624 0.62905 0.0
H680 H 0.27864 0.06614 0.57725 0.0
H681 H 0.34812 0.05121 0.48341 0.0
H682 H 0.29227 0.88724 0.40587 0.0
H683 H 0.31301 0.94032 0.4499 0.0
C684 C 0.20985 0.45228 0.6589 0.0
C685 C 0.17994 0.44105 0.68558 0.0
C686 C 0.2077 0.44295 0.61215 0.0
C687 C 0.14998 0.38229 0.52231 0.0
H688 H 0.20822 0.45613 0.43788 0.0
C689 C 0.13367 0.36691 0.32276 0.0
C690 C 0.16383 0.38053 0.29607 0.0
C691 C 0.13524 0.37431 0.37026 0.0
C692 C 0.19205 0.4351 0.46096 0.0
H693 H 0.12436 0.40998 0.68462 0.0
H694 H 0.12056 0.39363 0.60279 0.0
H695 H 0.21197 0.46714 0.52121 0.0
H696 H 0.21931 0.41274 0.29836 0.0
H697 H 0.2221 0.42554 0.38113 0.0
H698 H 0.13011 0.35023 0.46197 0.0
C699 C 0.14572 0.40954 0.61815 0.0
C700 C 0.19423 0.4414 0.50879 0.0
C701 C 0.14788 0.41887 0.66505 0.0
C702 C 0.19555 0.40223 0.31778 0.0
C703 C 0.19714 0.40955 0.36528 0.0
C704 C 0.14785 0.37596 0.47441 0.0
C705 C 0.17558 0.42217 0.5909 0.0
C706 C 0.1733 0.41507 0.54007 0.0
C707 C 0.16703 0.39543 0.39223 0.0
C708 C 0.16889 0.40228 0.44314 0.0
H709 H 0.23497 0.46884 0.67401 0.0
H710 H 0.23124 0.45242 0.59246 0.0
H711 H 0.13374 0.36137 0.54548 0.0
H712 H 0.1088 0.35052 0.3069 0.0
H713 H 0.1115 0.36356 0.38975 0.0
C714 C 0.82469 0.23681 0.05736 0.0
C715 C 0.82656 0.20769 0.07141 0.0
C716 C 0.82369 0.24383 0.01008 0.0
C717 C 0.84472 0.22436 0.8934 0.0
H718 H 0.78547 0.25859 0.85001 0.0
C719 C 0.82152 0.23868 0.69732 0.0
C720 C 0.81872 0.26755 0.68478 0.0
C721 C 0.82371 0.23145 0.74429 0.0
C722 C 0.80249 0.24943 0.8616 0.0
H723 H 0.82757 0.16244 0.04659 0.0
H724 H 0.82585 0.17467 0.96437 0.0
H725 H 0.78607 0.24573 0.93224 0.0
H726 H 0.81822 0.3126 0.71141 0.0
H727 H 0.82232 0.30024 0.79287 0.0
H728 H 0.86109 0.22805 0.82262 0.0
C729 C 0.82592 0.19252 0.98983 0.0
C730 C 0.80281 0.24205 0.9088 0.0
C731 C 0.82692 0.18552 0.03703 0.0
C732 C 0.81956 0.28972 0.72 0.0
C733 C 0.82182 0.28258 0.76673 0.0
C734 C 0.84439 0.23175 0.84613 0.0
C735 C 0.8245 0.22185 0.97571 0.0
C736 C 0.824 0.22952 0.92535 0.0
C737 C 0.82326 0.25303 0.77958 0.0
C738 C 0.82339 0.24454 0.82968 0.0
H739 H 0.82469 0.25459 0.08289 0.0
H740 H 0.82297 0.26685 1.00044 0.0
H741 H 0.8617 0.21517 0.90505 0.0
H742 H 0.8208 0.22105 0.67097 0.0
H743 H 0.82464 0.20838 0.753 0.0
C744 C 0.562 0.7309 0.34187 0.0
C745 C 0.54929 0.75069 0.36281 0.0
C746 C 0.57143 0.73557 0.29486 0.0
C747 C 0.55263 0.76589 0.18585 0.0
H748 H 0.63493 0.76871 0.13931 0.0
C749 C 0.59703 0.80301 0.99609 0.0
C750 C 0.61276 0.78663 0.97363 0.0
C751 C 0.5892 0.79764 0.04347 0.0
C752 C 0.61155 0.76744 0.15159 0.0
H753 H 0.53882 0.79252 0.35145 0.0
H754 H 0.55481 0.8003 0.26962 0.0
H755 H 0.62284 0.76194 0.22263 0.0
H756 H 0.63163 0.75089 0.98292 0.0
H757 H 0.61738 0.74094 0.06547 0.0
H758 H 0.54091 0.77085 0.11513 0.0
C759 C 0.55682 0.78071 0.28926 0.0
C760 C 0.60473 0.7637 0.19939 0.0
C761 C 0.54762 0.7762 0.33616 0.0
C762 C 0.61995 0.76426 0.99944 0.0
C763 C 0.61188 0.75866 0.04679 0.0
C764 C 0.55927 0.76935 0.13812 0.0
C765 C 0.56819 0.76001 0.26782 0.0
C766 C 0.57536 0.76322 0.21706 0.0
C767 C 0.59665 0.7755 0.06955 0.0
C768 C 0.58898 0.77048 0.12033 0.0
H769 H 0.56344 0.71091 0.36128 0.0
H770 H 0.58002 0.71918 0.27925 0.0
H771 H 0.52942 0.76494 0.19831 0.0
H772 H 0.59157 0.82073 0.9773 0.0
H773 H 0.57803 0.81152 0.05985 0.0
C774 C 0.80694 0.63758 0.70883 0.0
C775 C 0.81262 0.61402 0.73396 0.0
C776 C 0.79457 0.63028 0.66332 0.0
C777 C 0.75535 0.56237 0.57295 0.0
H778 H 0.80348 0.64077 0.49042 0.0
C779 C 0.73595 0.55269 0.37231 0.0
C780 C 0.73034 0.5783 0.35281 0.0
C781 C 0.74729 0.55554 0.4184 0.0
C782 C 0.78968 0.61867 0.51301 0.0
H783 H 0.80814 0.56361 0.73272 0.0
H784 H 0.78685 0.55083 0.65231 0.0
H785 H 0.81763 0.64717 0.57282 0.0
H786 H 0.73369 0.62761 0.36534 0.0
H787 H 0.7534 0.6326 0.44547 0.0
H788 H 0.72739 0.53395 0.51258 0.0
C789 C 0.79163 0.57482 0.66796 0.0
C790 C 0.79765 0.62235 0.56032 0.0
C791 C 0.80374 0.58205 0.71391 0.0
C792 C 0.73745 0.60732 0.37963 0.0
C793 C 0.74901 0.61029 0.4254 0.0
C794 C 0.74741 0.55865 0.52537 0.0
C795 C 0.78811 0.59945 0.64166 0.0
C796 C 0.78014 0.59448 0.59106 0.0
C797 C 0.75363 0.58425 0.44553 0.0
C798 C 0.7641 0.58697 0.49509 0.0
H799 H 0.81337 0.66228 0.72387 0.0
H800 H 0.79116 0.64936 0.64452 0.0
H801 H 0.74141 0.54041 0.5957 0.0
H802 H 0.73054 0.52998 0.35243 0.0
H803 H 0.75096 0.53524 0.43288 0.0
C804 C 0.19211 0.79329 0.65898 0.0
C805 C 0.20488 0.82481 0.6352 0.0
C806 C 0.19765 0.7927 0.7069 0.0
C807 C 0.21923 0.84825 0.81161 0.0
H808 H 0.2411 0.78262 0.86755 0.0
C809 C 0.28211 0.86833 0.99178 0.0
C810 C 0.2719 0.83983 0.02113 0.0
C811 C 0.26881 0.864 0.94675 0.0
C812 C 0.23444 0.80075 0.85255 0.0
H813 H 0.235 0.88032 0.64263 0.0
H814 H 0.24504 0.87935 0.72576 0.0
H815 H 0.22956 0.7799 0.78401 0.0
H816 H 0.23936 0.78456 0.02726 0.0
H817 H 0.21609 0.77676 0.94779 0.0
H818 H 0.22495 0.86963 0.87982 0.0
C819 C 0.22986 0.85505 0.70782 0.0
C820 C 0.2279 0.79925 0.80464 0.0
C821 C 0.22422 0.85564 0.66009 0.0
C822 C 0.24733 0.80693 1.00524 0.0
C823 C 0.23432 0.80248 0.95976 0.0
C824 C 0.2259 0.84983 0.85932 0.0
C825 C 0.21615 0.82362 0.73206 0.0
C826 C 0.22089 0.82344 0.78343 0.0
C827 C 0.24533 0.83097 0.92981 0.0
C828 C 0.23422 0.82654 0.88024 0.0
H829 H 0.17688 0.76909 0.64084 0.0
H830 H 0.18657 0.76803 0.72443 0.0
H831 H 0.213 0.86671 0.79674 0.0
H832 H 0.30119 0.89389 1.00331 0.0
H833 H 0.2781 0.88642 0.9245 0.0
C834 C 0.36931 0.1341 0.36926 0.0
C835 C 0.37934 0.16543 0.39214 0.0
C836 C 0.37539 0.13348 0.32171 0.0
C837 C 0.42486 0.18838 0.22114 0.0
H838 H 0.3538 0.11226 0.15049 0.0
C839 C 0.43066 0.17804 0.01995 0.0
C840 C 0.42541 0.14599 1.00449 0.0
C841 C 0.42305 0.18215 0.06602 0.0
C842 C 0.37391 0.13365 0.16972 0.0
H843 H 0.40446 0.2208 0.38335 0.0
H844 H 0.4146 0.21979 0.29999 0.0
H845 H 0.34623 0.11638 0.23358 0.0
H846 H 0.40666 0.09286 0.02402 0.0
H847 H 0.39276 0.09973 0.10386 0.0
H848 H 0.45238 0.2056 0.15676 0.0
C849 C 0.40244 0.19566 0.31889 0.0
C850 C 0.36972 0.13593 0.21751 0.0
C851 C 0.39664 0.19628 0.36669 0.0
C852 C 0.41095 0.11783 0.03513 0.0
C853 C 0.4029 0.12177 0.08078 0.0
C854 C 0.42893 0.18623 0.17313 0.0
C855 C 0.39131 0.16416 0.29556 0.0
C856 C 0.39539 0.16296 0.24412 0.0
C857 C 0.40951 0.15411 0.09712 0.0
C858 C 0.40374 0.1585 0.14704 0.0
H859 H 0.35646 0.10996 0.38814 0.0
H860 H 0.36736 0.10881 0.30539 0.0
H861 H 0.44531 0.20943 0.24041 0.0
H862 H 0.442 0.2002 0.99703 0.0
H863 H 0.42815 0.20731 0.07751 0.0
C864 C 0.15887 0.48653 0.06949 0.0
C865 C 0.18296 0.49562 0.03367 0.0
C866 C 0.15715 0.5119 0.09537 0.0
C867 C 0.18702 0.60558 0.09997 0.0
H868 H 0.17764 0.5895 0.23328 0.0
C869 C 0.22689 0.71531 0.23032 0.0
C870 C 0.20371 0.71089 0.26603 0.0
C871 C 0.22164 0.68765 0.20257 0.0
C872 C 0.17983 0.59414 0.19611 0.0
H873 H 0.22377 0.53774 0.99567 0.0
H874 H 0.22148 0.5827 0.04163 0.0
H875 H 0.17277 0.54427 0.18128 0.0
H876 H 0.15733 0.67369 0.30137 0.0
H877 H 0.14847 0.62477 0.25318 0.0
H878 H 0.19521 0.65593 0.1152 0.0
C879 C 0.20327 0.55595 0.04915 0.0
C880 C 0.17696 0.56824 0.16621 0.0
C881 C 0.2047 0.53039 0.02285 0.0
C882 C 0.17585 0.67779 0.27463 0.0
C883 C 0.17067 0.64988 0.24684 0.0
C884 C 0.19015 0.63154 0.1299 0.0
C885 C 0.17998 0.54695 0.08646 0.0
C886 C 0.1809 0.57379 0.1178 0.0
C887 C 0.19315 0.65482 0.20989 0.0
C888 C 0.18708 0.62623 0.17828 0.0
H889 H 0.14205 0.45972 0.07838 0.0
H890 H 0.13845 0.50402 0.12311 0.0
H891 H 0.18955 0.6105 0.06288 0.0
H892 H 0.24893 0.74039 0.22318 0.0
H893 H 0.23982 0.69201 0.17506 0.0
C894 C 0.72379 0.24046 0.47222 0.0
C895 C 0.72031 0.21416 0.44233 0.0
C896 C 0.696 0.23657 0.49844 0.0
C897 C 0.60231 0.19107 0.50337 0.0
H898 H 0.61736 0.21778 0.63359 0.0
C899 C 0.51671 0.18917 0.67075 0.0
C900 C 0.49985 0.20517 0.64987 0.0
C901 C 0.54352 0.18793 0.64752 0.0
C902 C 0.61272 0.2099 0.59744 0.0
H903 H 0.68463 0.1635 0.41513 0.0
H904 H 0.63544 0.15701 0.46 0.0
H905 H 0.66413 0.21967 0.58767 0.0
H906 H 0.4989 0.23316 0.58836 0.0
H907 H 0.54502 0.23075 0.54858 0.0
H908 H 0.55118 0.18206 0.51284 0.0
C909 C 0.65993 0.18054 0.4635 0.0
C910 C 0.6395 0.21126 0.57107 0.0
C911 C 0.68798 0.18434 0.43758 0.0
C912 C 0.51103 0.22054 0.60583 0.0
C913 C 0.53736 0.21894 0.58261 0.0
C914 C 0.57569 0.19009 0.52958 0.0
C915 C 0.66388 0.2064 0.49486 0.0
C916 C 0.63471 0.20236 0.52359 0.0
C917 C 0.55357 0.20224 0.60282 0.0
C918 C 0.5808 0.20003 0.57665 0.0
H919 H 0.74803 0.26415 0.47517 0.0
H920 H 0.69959 0.25734 0.52132 0.0
H921 H 0.59791 0.18416 0.46687 0.0
H922 H 0.5088 0.17702 0.70454 0.0
H923 H 0.55573 0.17498 0.6639 0.0
C924 C 0.3054 0.49809 0.9365 0.0
C925 C 0.27191 0.49013 0.92419 0.0
C926 C 0.33368 0.52223 0.91083 0.0
C927 C 0.35705 0.56141 0.79469 0.0
H928 H 0.4385 0.63284 0.85599 0.0
C929 C 0.46725 0.67584 0.69477 0.0
C930 C 0.50061 0.68973 0.71279 0.0
C931 C 0.43933 0.64957 0.71884 0.0
C932 C 0.41625 0.6127 0.83816 0.0
H933 H 0.24217 0.50218 0.87625 0.0
H934 H 0.29117 0.54369 0.83096 0.0
H935 H 0.39036 0.59133 0.90254 0.0
H936 H 0.53152 0.68595 0.76795 0.0
H937 H 0.48344 0.63914 0.80844 0.0
H938 H 0.38301 0.58234 0.7303 0.0
C939 C 0.29557 0.53105 0.86018 0.0
C940 C 0.3886 0.58901 0.86498 0.0
C941 C 0.26746 0.50725 0.88612 0.0
C942 C 0.50593 0.67578 0.75358 0.0
C943 C 0.47828 0.64921 0.77705 0.0
C944 C 0.38489 0.58487 0.76781 0.0
C945 C 0.32896 0.53858 0.872 0.0
C946 C 0.35865 0.56324 0.84354 0.0
C947 C 0.44447 0.63647 0.76091 0.0
C948 C 0.41486 0.6109 0.78918 0.0
H949 H 0.30975 0.48495 0.96495 0.0
H950 H 0.35914 0.52737 0.92057 0.0
H951 H 0.33438 0.54153 0.77724 0.0
H952 H 0.46258 0.68657 0.66362 0.0
H953 H 0.41367 0.64064 0.70549 0.0
C954 C 0.79404 0.32647 0.35485 0.0
C955 C 0.80757 0.30784 0.33305 0.0
C956 C 0.79425 0.35416 0.33168 0.0
C957 C 0.8357 0.41781 0.23879 0.0
H958 H 0.7461 0.40842 0.21804 0.0
C959 C 0.81399 0.49948 0.10082 0.0
C960 C 0.78804 0.50765 0.10871 0.0
C961 C 0.81824 0.47732 0.13107 0.0
C962 C 0.77151 0.41208 0.22419 0.0
H963 H 0.83348 0.30417 0.2717 0.0
H964 H 0.83484 0.35311 0.23198 0.0
H965 H 0.75153 0.36789 0.26879 0.0
H966 H 0.74713 0.50013 0.15558 0.0
H967 H 0.75568 0.46349 0.20945 0.0
H968 H 0.85598 0.46228 0.19496 0.0
C969 C 0.8237 0.34621 0.26643 0.0
C970 C 0.77451 0.38869 0.25325 0.0
C971 C 0.82273 0.31815 0.28899 0.0
C972 C 0.76715 0.49409 0.14818 0.0
C973 C 0.77188 0.47269 0.17895 0.0
C974 C 0.83286 0.44169 0.2104 0.0
C975 C 0.80884 0.36402 0.28709 0.0
C976 C 0.80653 0.39108 0.26036 0.0
C977 C 0.7971 0.46347 0.17052 0.0
C978 C 0.80063 0.43894 0.20222 0.0
H979 H 0.78214 0.31876 0.38878 0.0
H980 H 0.78266 0.36759 0.34825 0.0
H981 H 0.86071 0.42016 0.24382 0.0
H982 H 0.83052 0.50951 0.07082 0.0
H983 H 0.83763 0.47053 0.12283 0.0
C984 C 0.29349 0.7798 0.42762 0.0
C985 C 0.29742 0.79241 0.38177 0.0
C986 C 0.32119 0.78172 0.4521 0.0
C987 C 0.40613 0.78982 0.43955 0.0
H988 H 0.41543 0.81656 0.56955 0.0
C989 C 0.51967 0.8056 0.55212 0.0
C990 C 0.51205 0.79193 0.5974 0.0
C991 C 0.49511 0.80844 0.52558 0.0
C992 C 0.41303 0.80875 0.53344 0.0
H993 H 0.33401 0.81641 0.32564 0.0
H994 H 0.38275 0.81959 0.3688 0.0
H995 H 0.37024 0.81652 0.52226 0.0
H996 H 0.47254 0.77036 0.65015 0.0
H997 H 0.42951 0.7754 0.60397 0.0
H998 H 0.44866 0.78162 0.45089 0.0
C999 C 0.35785 0.80817 0.38546 0.0
C1000 C 0.38718 0.8088 0.50628 0.0
C1001 C 0.32994 0.80637 0.36076 0.0
C1002 C 0.47944 0.78167 0.61585 0.0
C1003 C 0.45476 0.78447 0.58924 0.0
C1004 C 0.432 0.78975 0.46676 0.0
C1005 C 0.3538 0.7963 0.43169 0.0
C1006 C 0.38311 0.79887 0.45919 0.0
C1007 C 0.46221 0.79751 0.54353 0.0
C1008 C 0.43553 0.79886 0.51418 0.0
H1009 H 0.26908 0.76894 0.44545 0.0
H1010 H 0.31698 0.77171 0.48727 0.0
H1011 H 0.40345 0.78171 0.40355 0.0
H1012 H 0.54455 0.81377 0.53676 0.0
H1013 H 0.50191 0.81905 0.49082 0.0
C1014 C 0.66726 0.4728 0.99588 0.0
C1015 C 0.68727 0.50637 0.97853 0.0
C1016 C 0.63999 0.44771 0.96969 0.0
C1017 C 0.60892 0.42805 0.84773 0.0
H1018 H 0.52868 0.35294 0.90604 0.0
C1019 C 0.49399 0.31793 0.74598 0.0
C1020 C 0.4844 0.28453 0.76152 0.0
C1021 C 0.51761 0.34689 0.77132 0.0
C1022 C 0.55099 0.37378 0.88933 0.0
H1023 H 0.69337 0.54069 0.92157 0.0
H1024 H 0.64499 0.49725 0.87644 0.0
H1025 H 0.57042 0.40071 0.95354 0.0
H1026 H 0.49248 0.25558 0.81607 0.0
H1027 H 0.53288 0.30588 0.86037 0.0
H1028 H 0.58902 0.40093 0.7834 0.0
C1029 C 0.65097 0.48988 0.90955 0.0
C1030 C 0.57501 0.40109 0.91653 0.0
C1031 C 0.67851 0.51485 0.93553 0.0
C1032 C 0.499 0.28083 0.803 0.0
C1033 C 0.52214 0.30964 0.82856 0.0
C1034 C 0.58461 0.40091 0.82044 0.0
C1035 C 0.63182 0.45577 0.92579 0.0
C1036 C 0.60465 0.42828 0.89626 0.0
C1037 C 0.53155 0.34294 0.81315 0.0
C1038 C 0.55578 0.37321 0.84114 0.0
H1039 H 0.67363 0.46545 0.02876 0.0
H1040 H 0.62624 0.42167 0.98314 0.0
H1041 H 0.63163 0.4482 0.83091 0.0
H1042 H 0.48264 0.32176 0.71505 0.0
H1043 H 0.5243 0.37233 0.75887 0.0
loop_
_geom_bond_atom_site_label_1
_geom_bond_atom_site_label_2
_geom_bond_distance
_geom_bond_site_symmetry_2
_ccdc_geom_bond_type
Tb0 N29 2.617 . S
Tb0 N35 2.572 . S
Tb0 O44 2.465 . S
Tb0 O45 2.387 1_556 S
Tb0 O47 2.428 . S
Tb0 O48 2.308 . S
Tb0 O52 2.349 . S
Tb0 O55 2.393 . S
Tb0 C64 2.802 . S
C1 N2 1.379 . S
C1 C4 1.416 . S
C1 C8 1.424 . S
N2 C1 1.379 . S
N2 C5 1.334 . S
N2 Tb11 2.617 . S
C3 C5 1.390 . S
C3 C6 1.339 . S
C3 H23 0.930 . S
C4 C1 1.416 . S
C4 C6 1.416 . S
C4 C10 1.448 . S
C5 N2 1.334 . S
C5 C3 1.390 . S
C5 H16 0.930 . S
C6 C3 1.339 . S
C6 C4 1.416 . S
C6 H27 0.930 . S
C7 C8 1.413 . S
C7 C9 1.427 . S
C7 C13 1.416 . S
C8 C1 1.424 . S
C8 C7 1.413 . S
C8 N12 1.361 . S
C9 C7 1.427 . S
C9 C10 1.328 . S
C9 H24 0.929 . S
C10 C4 1.448 . S
C10 C9 1.328 . S
C10 H25 0.930 . S
Tb11 N2 2.617 . S
Tb11 N12 2.572 . S
Tb11 O46 2.349 . S
Tb11 O49 2.393 . S
Tb11 O50 2.465 . S
Tb11 O51 2.387 1_554 S
Tb11 O53 2.428 . S
Tb11 O54 2.308 . S
Tb11 C75 2.802 . S
N12 C8 1.361 . S
N12 Tb11 2.572 . S
N12 C14 1.340 . S
C13 C7 1.416 . S
C13 C15 1.332 . S
C13 H21 0.931 . S
C14 N12 1.340 . S
C14 C15 1.407 . S
C14 H20 0.930 . S
C15 C13 1.332 . S
C15 C14 1.407 . S
C15 H17 0.929 . S
H16 C5 0.930 . S
H17 C15 0.929 . S
H18 C33 0.930 . S
H19 C40 0.929 . S
H20 C14 0.930 . S
H21 C13 0.931 . S
H22 C36 0.930 . S
H23 C3 0.930 . S
H24 C9 0.929 . S
H25 C10 0.930 . S
H26 C31 0.930 . S
H27 C6 0.930 . S
H28 C39 0.931 . S
N29 Tb0 2.617 . S
N29 C30 1.379 . S
N29 C33 1.334 . S
C30 N29 1.379 . S
C30 C32 1.416 . S
C30 C38 1.424 . S
C31 H26 0.930 . S
C31 C33 1.390 . S
C31 C34 1.339 . S
C32 C30 1.416 . S
C32 C34 1.416 . S
C32 C65 1.448 . S
C33 H18 0.930 . S
C33 N29 1.334 . S
C33 C31 1.390 . S
C34 C31 1.339 . S
C34 C32 1.416 . S
C34 H41 0.930 . S
N35 Tb0 2.572 . S
N35 C36 1.340 . S
N35 C38 1.361 . S
C36 H22 0.930 . S
C36 N35 1.340 . S
C36 C40 1.407 . S
C37 C38 1.413 . S
C37 C39 1.416 . S
C37 C66 1.427 . S
C38 C30 1.424 . S
C38 N35 1.361 . S
C38 C37 1.413 . S
C39 H28 0.931 . S
C39 C37 1.416 . S
C39 C40 1.332 . S
C40 H19 0.929 . S
C40 C36 1.407 . S
C40 C39 1.332 . S
H41 C34 0.930 . S
H42 C65 0.964 . S
H43 C66 0.929 . S
O44 Tb0 2.465 . S
O44 C64 1.264 . S
O45 Tb0 2.387 1_554 S
O45 C56 1.264 . S
O46 Tb11 2.349 . S
O46 C56 1.243 . S
O47 Tb0 2.428 . S
O47 C64 1.256 . S
O48 Tb0 2.308 . S
O48 C63 1.266 . S
O49 Tb11 2.393 . S
O49 C63 1.248 1_554 S
O50 Tb11 2.465 . S
O50 C75 1.264 . S
O51 Tb11 2.387 1_556 S
O51 C67 1.264 . S
O52 Tb0 2.349 . S
O52 C67 1.243 . S
O53 Tb11 2.428 . S
O53 C75 1.256 . S
O54 Tb11 2.308 . S
O54 C74 1.266 . S
O55 Tb0 2.393 . S
O55 C74 1.248 1_556 S
C56 O45 1.264 . S
C56 O46 1.243 . S
C57 C60 1.399 . S
C57 C62 1.383 . S
C57 C64 1.496 . S
C58 C59 1.399 . S
C58 C62 1.389 . S
C59 C58 1.399 . S
C59 C61 1.380 . S
C59 H76 0.929 . S
C60 C57 1.399 . S
C60 C61 1.392 . S
C60 H77 0.929 . S
C61 C59 1.380 . S
C61 C60 1.392 . S
C61 H78 0.929 . S
C62 C57 1.383 . S
C62 C58 1.389 . S
C62 H79 0.931 . S
C63 O48 1.266 . S
C63 O49 1.248 1_556 S
C64 Tb0 2.802 . S
C64 O44 1.264 . S
C64 O47 1.256 . S
C64 C57 1.496 . S
C65 C32 1.448 . S
C65 H42 0.964 . S
C65 C66 1.328 . S
C66 C37 1.427 . S
C66 H43 0.929 . S
C66 C65 1.328 . S
C67 O51 1.264 . S
C67 O52 1.243 . S
C68 C71 1.399 . S
C68 C72 1.383 . S
C68 C75 1.496 . S
C69 C70 1.399 . S
C69 C72 1.389 . S
C70 C69 1.399 . S
C70 C73 1.380 . S
C70 H80 0.929 . S
C71 C68 1.399 . S
C71 C73 1.392 . S
C71 H81 0.929 . S
C72 C68 1.383 . S
C72 C69 1.389 . S
C72 H82 0.931 . S
C73 C70 1.380 . S
C73 C71 1.392 . S
C73 H83 0.929 . S
C74 O54 1.266 . S
C74 O55 1.248 1_554 S
C75 Tb11 2.802 . S
C75 O50 1.264 . S
C75 O53 1.256 . S
C75 C68 1.496 . S
H76 C59 0.929 . S
H77 C60 0.929 . S
H78 C61 0.929 . S
H79 C62 0.931 . S
H80 C70 0.929 . S
H81 C71 0.929 . S
H82 C72 0.931 . S
H83 C73 0.929 . S
Tb84 N113 2.617 . S
Tb84 N119 2.572 . S
Tb84 O128 2.465 . S
Tb84 O129 2.387 . S
Tb84 O131 2.428 . S
Tb84 O132 2.308 . S
Tb84 O136 2.349 . S
Tb84 O139 2.393 . S
Tb84 C148 2.802 . S
C85 N86 1.379 . S
C85 C88 1.416 . S
C85 C92 1.424 . S
N86 C85 1.379 . S
N86 C89 1.334 . S
N86 Tb95 2.617 . S
C87 C89 1.390 . S
C87 C90 1.339 . S
C87 H107 0.930 . S
C88 C85 1.416 . S
C88 C90 1.416 . S
C88 C94 1.448 . S
C89 N86 1.334 . S
C89 C87 1.390 . S
C89 H100 0.930 . S
C90 C87 1.339 . S
C90 C88 1.416 . S
C90 H111 0.930 . S
C91 C92 1.413 . S
C91 C93 1.427 . S
C91 C97 1.416 . S
C92 C85 1.424 . S
C92 C91 1.413 . S
C92 N96 1.361 . S
C93 C91 1.427 . S
C93 C94 1.328 . S
C93 H108 0.929 . S
C94 C88 1.448 . S
C94 C93 1.328 . S
C94 H109 0.930 . S
Tb95 N86 2.617 . S
Tb95 N96 2.572 . S
Tb95 O130 2.349 . S
Tb95 O133 2.393 . S
Tb95 O134 2.465 . S
Tb95 O135 2.387 . S
Tb95 O137 2.428 . S
Tb95 O138 2.308 . S
Tb95 C159 2.802 . S
N96 C92 1.361 . S
N96 Tb95 2.572 . S
N96 C98 1.340 . S
C97 C91 1.416 . S
C97 C99 1.332 . S
C97 H105 0.931 . S
C98 N96 1.340 . S
C98 C99 1.407 . S
C98 H104 0.930 . S
C99 C97 1.332 . S
C99 C98 1.407 . S
C99 H101 0.929 . S
H100 C89 0.930 . S
H101 C99 0.929 . S
H102 C117 0.930 . S
H103 C124 0.929 . S
H104 C98 0.930 . S
H105 C97 0.931 . S
H106 C120 0.930 . S
H107 C87 0.930 . S
H108 C93 0.929 . S
H109 C94 0.930 . S
H110 C115 0.930 . S
H111 C90 0.930 . S
H112 C123 0.931 . S
N113 Tb84 2.617 . S
N113 C114 1.379 . S
N113 C117 1.334 . S
C114 N113 1.379 . S
C114 C116 1.416 . S
C114 C122 1.424 . S
C115 H110 0.930 . S
C115 C117 1.390 . S
C115 C118 1.339 . S
C116 C114 1.416 . S
C116 C118 1.416 . S
C116 C149 1.448 . S
C117 H102 0.930 . S
C117 N113 1.334 . S
C117 C115 1.390 . S
C118 C115 1.339 . S
C118 C116 1.416 . S
C118 H125 0.930 . S
N119 Tb84 2.572 . S
N119 C120 1.340 . S
N119 C122 1.361 . S
C120 H106 0.930 . S
C120 N119 1.340 . S
C120 C124 1.407 . S
C121 C122 1.413 . S
C121 C123 1.416 . S
C121 C150 1.427 . S
C122 C114 1.424 . S
C122 N119 1.361 . S
C122 C121 1.413 . S
C123 H112 0.931 . S
C123 C121 1.416 . S
C123 C124 1.332 . S
C124 H103 0.929 . S
C124 C120 1.407 . S
C124 C123 1.332 . S
H125 C118 0.930 . S
H126 C149 0.949 . S
H127 C150 0.929 . S
O128 Tb84 2.465 . S
O128 C148 1.264 . S
O129 Tb84 2.387 . S
O129 C140 1.264 . S
O130 Tb95 2.349 . S
O130 C140 1.243 . S
O131 Tb84 2.428 . S
O131 C148 1.256 . S
O132 Tb84 2.308 . S
O132 C147 1.266 . S
O133 Tb95 2.393 . S
O133 C147 1.248 . S
O134 Tb95 2.465 . S
O134 C159 1.264 . S
O135 Tb95 2.387 . S
O135 C151 1.264 . S
O136 Tb84 2.349 . S
O136 C151 1.243 . S
O137 Tb95 2.428 . S
O137 C159 1.256 . S
O138 Tb95 2.308 . S
O138 C158 1.266 . S
O139 Tb84 2.393 . S
O139 C158 1.248 . S
C140 O129 1.264 . S
C140 O130 1.243 . S
C141 C144 1.399 . S
C141 C146 1.383 . S
C141 C148 1.496 . S
C142 C143 1.399 . S
C142 C146 1.389 . S
C143 C142 1.399 . S
C143 C145 1.380 . S
C143 H160 0.929 . S
C144 C141 1.399 . S
C144 C145 1.392 . S
C144 H161 0.929 . S
C145 C143 1.380 . S
C145 C144 1.392 . S
C145 H162 0.929 . S
C146 C141 1.383 . S
C146 C142 1.389 . S
C146 H163 0.931 . S
C147 O132 1.266 . S
C147 O133 1.248 . S
C148 Tb84 2.802 . S
C148 O128 1.264 . S
C148 O131 1.256 . S
C148 C141 1.496 . S
C149 C116 1.448 . S
C149 H126 0.949 . S
C149 C150 1.328 . S
C150 C121 1.427 . S
C150 H127 0.929 . S
C150 C149 1.328 . S
C151 O135 1.264 . S
C151 O136 1.243 . S
C152 C155 1.399 . S
C152 C156 1.383 . S
C152 C159 1.496 . S
C153 C154 1.399 . S
C153 C156 1.389 . S
C154 C153 1.399 . S
C154 C157 1.380 . S
C154 H164 0.929 . S
C155 C152 1.399 . S
C155 C157 1.392 . S
C155 H165 0.929 . S
C156 C152 1.383 . S
C156 C153 1.389 . S
C156 H166 0.931 . S
C157 C154 1.380 . S
C157 C155 1.392 . S
C157 H167 0.929 . S
C158 O138 1.266 . S
C158 O139 1.248 . S
C159 Tb95 2.802 . S
C159 O134 1.264 . S
C159 O137 1.256 . S
C159 C152 1.496 . S
H160 C143 0.929 . S
H161 C144 0.929 . S
H162 C145 0.929 . S
H163 C146 0.931 . S
H164 C154 0.929 . S
H165 C155 0.929 . S
H166 C156 0.931 . S
H167 C157 0.929 . S
Tb168 N197 2.617 . S
Tb168 N203 2.572 . S
Tb168 O212 2.465 . S
Tb168 O213 2.387 . S
Tb168 O215 2.428 . S
Tb168 O216 2.308 . S
Tb168 O220 2.349 . S
Tb168 O223 2.393 . S
Tb168 C232 2.802 . S
C169 N170 1.379 . S
C169 C172 1.416 . S
C169 C176 1.424 . S
N170 C169 1.379 . S
N170 C173 1.334 . S
N170 Tb179 2.617 . S
C171 C173 1.390 . S
C171 C174 1.339 . S
C171 H191 0.930 . S
C172 C169 1.416 . S
C172 C174 1.416 . S
C172 C178 1.448 . S
C173 N170 1.334 . S
C173 C171 1.390 . S
C173 H184 0.930 . S
C174 C171 1.339 . S
C174 C172 1.416 . S
C174 H195 0.930 . S
C175 C176 1.413 . S
C175 C177 1.427 . S
C175 C181 1.416 . S
C176 C169 1.424 . S
C176 C175 1.413 . S
C176 N180 1.361 . S
C177 C175 1.427 . S
C177 C178 1.328 . S
C177 H192 0.929 . S
C178 C172 1.448 . S
C178 C177 1.328 . S
C178 H193 0.930 . S
Tb179 N170 2.617 . S
Tb179 N180 2.572 . S
Tb179 O214 2.349 . S
Tb179 O217 2.393 . S
Tb179 O218 2.465 . S
Tb179 O219 2.387 . S
Tb179 O221 2.428 . S
Tb179 O222 2.308 . S
Tb179 C243 2.802 . S
N180 C176 1.361 . S
N180 Tb179 2.572 . S
N180 C182 1.340 . S
C181 C175 1.416 . S
C181 C183 1.332 . S
C181 H189 0.931 . S
C182 N180 1.340 . S
C182 C183 1.407 . S
C182 H188 0.930 . S
C183 C181 1.332 . S
C183 C182 1.407 . S
C183 H185 0.929 . S
H184 C173 0.930 . S
H185 C183 0.929 . S
H186 C201 0.930 . S
H187 C208 0.929 . S
H188 C182 0.930 . S
H189 C181 0.931 . S
H190 C204 0.930 . S
H191 C171 0.930 . S
H192 C177 0.929 . S
H193 C178 0.930 . S
H194 C199 0.930 . S
H195 C174 0.930 . S
H196 C207 0.931 . S
N197 Tb168 2.617 . S
N197 C198 1.379 . S
N197 C201 1.334 . S
C198 N197 1.379 . S
C198 C200 1.416 . S
C198 C206 1.424 . S
C199 H194 0.930 . S
C199 C201 1.390 . S
C199 C202 1.339 . S
C200 C198 1.416 . S
C200 C202 1.416 . S
C200 C233 1.448 . S
C201 H186 0.930 . S
C201 N197 1.334 . S
C201 C199 1.390 . S
C202 C199 1.339 . S
C202 C200 1.416 . S
C202 H209 0.930 . S
N203 Tb168 2.572 . S
N203 C204 1.340 . S
N203 C206 1.361 . S
C204 H190 0.930 . S
C204 N203 1.340 . S
C204 C208 1.407 . S
C205 C206 1.413 . S
C205 C207 1.416 . S
C205 C234 1.427 . S
C206 C198 1.424 . S
C206 N203 1.361 . S
C206 C205 1.413 . S
C207 H196 0.931 . S
C207 C205 1.416 . S
C207 C208 1.332 . S
C208 H187 0.929 . S
C208 C204 1.407 . S
C208 C207 1.332 . S
H209 C202 0.930 . S
H210 C233 0.930 . S
H211 C234 0.929 . S
O212 Tb168 2.465 . S
O212 C232 1.264 . S
O213 Tb168 2.387 . S
O213 C224 1.264 . S
O214 Tb179 2.349 . S
O214 C224 1.243 . S
O215 Tb168 2.428 . S
O215 C232 1.256 . S
O216 Tb168 2.308 . S
O216 C231 1.266 . S
O217 Tb179 2.393 . S
O217 C231 1.248 . S
O218 Tb179 2.465 . S
O218 C243 1.264 . S
O219 Tb179 2.387 . S
O219 C235 1.264 . S
O220 Tb168 2.349 . S
O220 C235 1.243 . S
O221 Tb179 2.428 . S
O221 C243 1.256 . S
O222 Tb179 2.308 . S
O222 C242 1.266 . S
O223 Tb168 2.393 . S
O223 C242 1.248 . S
C224 O213 1.264 . S
C224 O214 1.243 . S
C225 C228 1.399 . S
C225 C230 1.383 . S
C225 C232 1.496 . S
C226 C227 1.399 . S
C226 C230 1.389 . S
C227 C226 1.399 . S
C227 C229 1.380 . S
C227 H244 0.929 . S
C228 C225 1.399 . S
C228 C229 1.392 . S
C228 H245 0.929 . S
C229 C227 1.380 . S
C229 C228 1.392 . S
C229 H246 0.929 . S
C230 C225 1.383 . S
C230 C226 1.389 . S
C230 H247 0.931 . S
C231 O216 1.266 . S
C231 O217 1.248 . S
C232 Tb168 2.802 . S
C232 O212 1.264 . S
C232 O215 1.256 . S
C232 C225 1.496 . S
C233 C200 1.448 . S
C233 H210 0.930 . S
C233 C234 1.328 . S
C234 C205 1.427 . S
C234 H211 0.929 . S
C234 C233 1.328 . S
C235 O219 1.264 . S
C235 O220 1.243 . S
C236 C239 1.399 . S
C236 C240 1.383 . S
C236 C243 1.496 . S
C237 C238 1.399 . S
C237 C240 1.389 . S
C238 C237 1.399 . S
C238 C241 1.380 . S
C238 H248 0.929 . S
C239 C236 1.399 . S
C239 C241 1.392 . S
C239 H249 0.929 . S
C240 C236 1.383 . S
C240 C237 1.389 . S
C240 H250 0.931 . S
C241 C238 1.380 . S
C241 C239 1.392 . S
C241 H251 0.929 . S
C242 O222 1.266 . S
C242 O223 1.248 . S
C243 Tb179 2.802 . S
C243 O218 1.264 . S
C243 O221 1.256 . S
C243 C236 1.496 . S
H244 C227 0.929 . S
H245 C228 0.929 . S
H246 C229 0.929 . S
H247 C230 0.931 . S
H248 C238 0.929 . S
H249 C239 0.929 . S
H250 C240 0.931 . S
H251 C241 0.929 . S
Tb252 N281 2.617 . S
Tb252 N287 2.572 . S
Tb252 O296 2.465 . S
Tb252 O297 2.387 . S
Tb252 O299 2.428 . S
Tb252 O300 2.308 . S
Tb252 O304 2.349 . S
Tb252 O307 2.393 . S
Tb252 C316 2.802 . S
C253 N254 1.379 . S
C253 C256 1.416 . S
C253 C260 1.424 . S
N254 C253 1.379 . S
N254 C257 1.334 . S
N254 Tb263 2.617 . S
C255 C257 1.390 . S
C255 C258 1.339 . S
C255 H275 0.930 . S
C256 C253 1.416 . S
C256 C258 1.416 . S
C256 C262 1.448 . S
C257 N254 1.334 . S
C257 C255 1.390 . S
C257 H268 0.930 . S
C258 C255 1.339 . S
C258 C256 1.416 . S
C258 H279 0.930 . S
C259 C260 1.413 . S
C259 C261 1.427 . S
C259 C265 1.416 . S
C260 C253 1.424 . S
C260 C259 1.413 . S
C260 N264 1.361 . S
C261 C259 1.427 . S
C261 C262 1.328 . S
C261 H276 0.929 . S
C262 C256 1.448 . S
C262 C261 1.328 . S
C262 H277 0.930 . S
Tb263 N254 2.617 . S
Tb263 N264 2.572 . S
Tb263 O298 2.349 . S
Tb263 O301 2.393 1_556 S
Tb263 O302 2.465 . S
Tb263 O303 2.387 1_556 S
Tb263 O305 2.428 . S
Tb263 O306 2.308 . S
Tb263 C327 2.802 . S
N264 C260 1.361 . S
N264 Tb263 2.572 . S
N264 C266 1.340 . S
C265 C259 1.416 . S
C265 C267 1.332 . S
C265 H273 0.931 . S
C266 N264 1.340 . S
C266 C267 1.407 . S
C266 H272 0.930 . S
C267 C265 1.332 . S
C267 C266 1.407 . S
C267 H269 0.929 . S
H268 C257 0.930 . S
H269 C267 0.929 . S
H270 C285 0.930 . S
H271 C292 0.929 . S
H272 C266 0.930 . S
H273 C265 0.931 . S
H274 C288 0.930 . S
H275 C255 0.930 . S
H276 C261 0.929 . S
H277 C262 0.930 . S
H278 C283 0.930 . S
H279 C258 0.930 . S
H280 C291 0.931 . S
N281 Tb252 2.617 . S
N281 C282 1.379 . S
N281 C285 1.334 . S
C282 N281 1.379 . S
C282 C284 1.416 . S
C282 C290 1.424 . S
C283 H278 0.930 . S
C283 C285 1.390 . S
C283 C286 1.339 . S
C284 C282 1.416 . S
C284 C286 1.416 . S
C284 C317 1.448 . S
C285 H270 0.930 . S
C285 N281 1.334 . S
C285 C283 1.390 . S
C286 C283 1.339 . S
C286 C284 1.416 . S
C286 H293 0.930 . S
N287 Tb252 2.572 . S
N287 C288 1.340 . S
N287 C290 1.361 . S
C288 H274 0.930 . S
C288 N287 1.340 . S
C288 C292 1.407 . S
C289 C290 1.413 . S
C289 C291 1.416 . S
C289 C318 1.427 . S
C290 C282 1.424 . S
C290 N287 1.361 . S
C290 C289 1.413 . S
C291 H280 0.931 . S
C291 C289 1.416 . S
C291 C292 1.332 . S
C292 H271 0.929 . S
C292 C288 1.407 . S
C292 C291 1.332 . S
H293 C286 0.930 . S
H294 C317 0.930 . S
H295 C318 0.929 . S
O296 Tb252 2.465 . S
O296 C316 1.264 . S
O297 Tb252 2.387 . S
O297 C308 1.264 1_554 S
O298 Tb263 2.349 . S
O298 C308 1.243 . S
O299 Tb252 2.428 . S
O299 C316 1.256 . S
O300 Tb252 2.308 . S
O300 C315 1.266 . S
O301 Tb263 2.393 1_554 S
O301 C315 1.248 . S
O302 Tb263 2.465 . S
O302 C327 1.264 . S
O303 Tb263 2.387 1_554 S
O303 C319 1.264 . S
O304 Tb252 2.349 . S
O304 C319 1.243 . S
O305 Tb263 2.428 . S
O305 C327 1.256 . S
O306 Tb263 2.308 . S
O306 C326 1.266 . S
O307 Tb252 2.393 . S
O307 C326 1.248 1_554 S
C308 O297 1.264 1_556 S
C308 O298 1.243 . S
C309 C312 1.399 . S
C309 C314 1.383 . S
C309 C316 1.496 . S
C310 C311 1.399 . S
C310 C314 1.389 . S
C311 C310 1.399 . S
C311 C313 1.380 . S
C311 H328 0.929 . S
C312 C309 1.399 . S
C312 C313 1.392 . S
C312 H329 0.929 . S
C313 C311 1.380 . S
C313 C312 1.392 . S
C313 H330 0.929 . S
C314 C309 1.383 . S
C314 C310 1.389 . S
C314 H331 0.931 . S
C315 O300 1.266 . S
C315 O301 1.248 . S
C316 Tb252 2.802 . S
C316 O296 1.264 . S
C316 O299 1.256 . S
C316 C309 1.496 . S
C317 C284 1.448 . S
C317 H294 0.930 . S
C317 C318 1.328 . S
C318 C289 1.427 . S
C318 H295 0.929 . S
C318 C317 1.328 . S
C319 O303 1.264 . S
C319 O304 1.243 . S
C320 C323 1.399 . S
C320 C324 1.383 . S
C320 C327 1.496 . S
C321 C322 1.399 . S
C321 C324 1.389 . S
C322 C321 1.399 . S
C322 C325 1.380 . S
C322 H332 0.929 . S
C323 C320 1.399 . S
C323 C325 1.392 . S
C323 H333 0.929 . S
C324 C320 1.383 . S
C324 C321 1.389 . S
C324 H334 0.931 . S
C325 C322 1.380 . S
C325 C323 1.392 . S
C325 H335 0.929 . S
C326 O306 1.266 . S
C326 O307 1.248 1_556 S
C327 Tb263 2.802 . S
C327 O302 1.264 . S
C327 O305 1.256 . S
C327 C320 1.496 . S
H328 C311 0.929 . S
H329 C312 0.929 . S
H330 C313 0.929 . S
H331 C314 0.931 . S
H332 C322 0.929 . S
H333 C323 0.929 . S
H334 C324 0.931 . S
H335 C325 0.929 . S
Tb336 N365 2.617 . S
Tb336 N371 2.572 . S
Tb336 O380 2.465 . S
Tb336 O381 2.387 . S
Tb336 O383 2.428 . S
Tb336 O384 2.308 . S
Tb336 O388 2.349 . S
Tb336 O391 2.393 . S
Tb336 C400 2.802 . S
C337 N338 1.379 . S
C337 C340 1.416 . S
C337 C344 1.424 . S
N338 C337 1.379 . S
N338 C341 1.334 . S
N338 Tb347 2.617 . S
C339 C341 1.390 . S
C339 C342 1.339 . S
C339 H359 0.930 . S
C340 C337 1.416 . S
C340 C342 1.416 . S
C340 C346 1.448 . S
C341 N338 1.334 . S
C341 C339 1.390 . S
C341 H352 0.930 . S
C342 C339 1.339 . S
C342 C340 1.416 . S
C342 H363 0.930 . S
C343 C344 1.413 . S
C343 C345 1.427 . S
C343 C349 1.416 . S
C344 C337 1.424 . S
C344 C343 1.413 . S
C344 N348 1.361 . S
C345 C343 1.427 . S
C345 C346 1.328 . S
C345 H360 0.929 . S
C346 C340 1.448 . S
C346 C345 1.328 . S
C346 H361 0.930 . S
Tb347 N338 2.617 . S
Tb347 N348 2.572 . S
Tb347 O382 2.349 . S
Tb347 O385 2.393 . S
Tb347 O386 2.465 . S
Tb347 O387 2.387 . S
Tb347 O389 2.428 . S
Tb347 O390 2.308 . S
Tb347 C411 2.802 . S
N348 C344 1.361 . S
N348 Tb347 2.572 . S
N348 C350 1.340 . S
C349 C343 1.416 . S
C349 C351 1.332 . S
C349 H357 0.931 . S
C350 N348 1.340 . S
C350 C351 1.407 . S
C350 H356 0.930 . S
C351 C349 1.332 . S
C351 C350 1.407 . S
C351 H353 0.929 . S
H352 C341 0.930 . S
H353 C351 0.929 . S
H354 C369 0.930 . S
H355 C376 0.929 . S
H356 C350 0.930 . S
H357 C349 0.931 . S
H358 C372 0.930 . S
H359 C339 0.930 . S
H360 C345 0.929 . S
H361 C346 0.930 . S
H362 C367 0.930 . S
H363 C342 0.930 . S
H364 C375 0.931 . S
N365 Tb336 2.617 . S
N365 C366 1.379 . S
N365 C369 1.334 . S
C366 N365 1.379 . S
C366 C368 1.416 . S
C366 C374 1.424 . S
C367 H362 0.930 . S
C367 C369 1.390 . S
C367 C370 1.339 . S
C368 C366 1.416 . S
C368 C370 1.416 . S
C368 C401 1.448 . S
C369 H354 0.930 . S
C369 N365 1.334 . S
C369 C367 1.390 . S
C370 C367 1.339 . S
C370 C368 1.416 . S
C370 H377 0.930 . S
N371 Tb336 2.572 . S
N371 C372 1.340 . S
N371 C374 1.361 . S
C372 H358 0.930 . S
C372 N371 1.340 . S
C372 C376 1.407 . S
C373 C374 1.413 . S
C373 C375 1.416 . S
C373 C402 1.427 . S
C374 C366 1.424 . S
C374 N371 1.361 . S
C374 C373 1.413 . S
C375 H364 0.931 . S
C375 C373 1.416 . S
C375 C376 1.332 . S
C376 H355 0.929 . S
C376 C372 1.407 . S
C376 C375 1.332 . S
H377 C370 0.930 . S
H378 C401 0.948 . S
H379 C402 0.929 . S
O380 Tb336 2.465 . S
O380 C400 1.264 . S
O381 Tb336 2.387 . S
O381 C392 1.264 . S
O382 Tb347 2.349 . S
O382 C392 1.243 . S
O383 Tb336 2.428 . S
O383 C400 1.256 . S
O384 Tb336 2.308 . S
O384 C399 1.266 . S
O385 Tb347 2.393 . S
O385 C399 1.248 . S
O386 Tb347 2.465 . S
O386 C411 1.264 . S
O387 Tb347 2.387 . S
O387 C403 1.264 . S
O388 Tb336 2.349 . S
O388 C403 1.243 . S
O389 Tb347 2.428 . S
O389 C411 1.256 . S
O390 Tb347 2.308 . S
O390 C410 1.266 . S
O391 Tb336 2.393 . S
O391 C410 1.248 . S
C392 O381 1.264 . S
C392 O382 1.243 . S
C393 C396 1.399 . S
C393 C398 1.383 . S
C393 C400 1.496 . S
C394 C395 1.399 . S
C394 C398 1.389 . S
C395 C394 1.399 . S
C395 C397 1.380 . S
C395 H412 0.929 . S
C396 C393 1.399 . S
C396 C397 1.392 . S
C396 H413 0.929 . S
C397 C395 1.380 . S
C397 C396 1.392 . S
C397 H414 0.929 . S
C398 C393 1.383 . S
C398 C394 1.389 . S
C398 H415 0.931 . S
C399 O384 1.266 . S
C399 O385 1.248 . S
C400 Tb336 2.802 . S
C400 O380 1.264 . S
C400 O383 1.256 . S
C400 C393 1.496 . S
C401 C368 1.448 . S
C401 H378 0.948 . S
C401 C402 1.328 . S
C402 C373 1.427 . S
C402 H379 0.929 . S
C402 C401 1.328 . S
C403 O387 1.264 . S
C403 O388 1.243 . S
C404 C407 1.399 . S
C404 C408 1.383 . S
C404 C411 1.496 . S
C405 C406 1.399 . S
C405 C408 1.389 . S
C406 C405 1.399 . S
C406 C409 1.380 . S
C406 H416 0.929 . S
C407 C404 1.399 . S
C407 C409 1.392 . S
C407 H417 0.929 . S
C408 C404 1.383 . S
C408 C405 1.389 . S
C408 H418 0.931 . S
C409 C406 1.380 . S
C409 C407 1.392 . S
C409 H419 0.929 . S
C410 O390 1.266 . S
C410 O391 1.248 . S
C411 Tb347 2.802 . S
C411 O386 1.264 . S
C411 O389 1.256 . S
C411 C404 1.496 . S
H412 C395 0.929 . S
H413 C396 0.929 . S
H414 C397 0.929 . S
H415 C398 0.931 . S
H416 C406 0.929 . S
H417 C407 0.929 . S
H418 C408 0.931 . S
H419 C409 0.929 . S
Tb420 N449 2.617 . S
Tb420 N455 2.572 . S
Tb420 O464 2.465 . S
Tb420 O465 2.387 . S
Tb420 O467 2.428 . S
Tb420 O468 2.308 . S
Tb420 O472 2.349 . S
Tb420 O475 2.393 . S
Tb420 C484 2.802 . S
C421 N422 1.379 . S
C421 C424 1.416 . S
C421 C428 1.424 . S
N422 C421 1.379 . S
N422 C425 1.334 . S
N422 Tb431 2.617 . S
C423 C425 1.390 . S
C423 C426 1.339 . S
C423 H443 0.930 . S
C424 C421 1.416 . S
C424 C426 1.416 . S
C424 C430 1.448 . S
C425 N422 1.334 . S
C425 C423 1.390 . S
C425 H436 0.930 . S
C426 C423 1.339 . S
C426 C424 1.416 . S
C426 H447 0.930 . S
C427 C428 1.413 . S
C427 C429 1.427 . S
C427 C433 1.416 . S
C428 C421 1.424 . S
C428 C427 1.413 . S
C428 N432 1.361 . S
C429 C427 1.427 . S
C429 C430 1.328 . S
C429 H444 0.929 . S
C430 C424 1.448 . S
C430 C429 1.328 . S
C430 H445 0.930 . S
Tb431 N422 2.617 . S
Tb431 N432 2.572 . S
Tb431 O466 2.349 . S
Tb431 O469 2.393 . S
Tb431 O470 2.465 . S
Tb431 O471 2.387 . S
Tb431 O473 2.428 . S
Tb431 O474 2.308 . S
Tb431 C495 2.802 . S
N432 C428 1.361 . S
N432 Tb431 2.572 . S
N432 C434 1.340 . S
C433 C427 1.416 . S
C433 C435 1.332 . S
C433 H441 0.931 . S
C434 N432 1.340 . S
C434 C435 1.407 . S
C434 H440 0.930 . S
C435 C433 1.332 . S
C435 C434 1.407 . S
C435 H437 0.929 . S
H436 C425 0.930 . S
H437 C435 0.929 . S
H438 C453 0.930 . S
H439 C460 0.929 . S
H440 C434 0.930 . S
H441 C433 0.931 . S
H442 C456 0.930 . S
H443 C423 0.930 . S
H444 C429 0.929 . S
H445 C430 0.930 . S
H446 C451 0.930 . S
H447 C426 0.930 . S
H448 C459 0.931 . S
N449 Tb420 2.617 . S
N449 C450 1.379 . S
N449 C453 1.334 . S
C450 N449 1.379 . S
C450 C452 1.416 . S
C450 C458 1.424 . S
C451 H446 0.930 . S
C451 C453 1.390 . S
C451 C454 1.339 . S
C452 C450 1.416 . S
C452 C454 1.416 . S
C452 C485 1.448 . S
C453 H438 0.930 . S
C453 N449 1.334 . S
C453 C451 1.390 . S
C454 C451 1.339 . S
C454 C452 1.416 . S
C454 H461 0.930 . S
N455 Tb420 2.572 . S
N455 C456 1.340 . S
N455 C458 1.361 . S
C456 H442 0.930 . S
C456 N455 1.340 . S
C456 C460 1.407 . S
C457 C458 1.413 . S
C457 C459 1.416 . S
C457 C486 1.427 . S
C458 C450 1.424 . S
C458 N455 1.361 . S
C458 C457 1.413 . S
C459 H448 0.931 . S
C459 C457 1.416 . S
C459 C460 1.332 . S
C460 H439 0.929 . S
C460 C456 1.407 . S
C460 C459 1.332 . S
H461 C454 0.930 . S
H462 C485 0.964 . S
H463 C486 0.929 . S
O464 Tb420 2.465 . S
O464 C484 1.264 . S
O465 Tb420 2.387 . S
O465 C476 1.264 . S
O466 Tb431 2.349 . S
O466 C476 1.243 . S
O467 Tb420 2.428 . S
O467 C484 1.256 . S
O468 Tb420 2.308 . S
O468 C483 1.266 . S
O469 Tb431 2.393 . S
O469 C483 1.248 . S
O470 Tb431 2.465 . S
O470 C495 1.264 . S
O471 Tb431 2.387 . S
O471 C487 1.264 . S
O472 Tb420 2.349 . S
O472 C487 1.243 . S
O473 Tb431 2.428 . S
O473 C495 1.256 . S
O474 Tb431 2.308 . S
O474 C494 1.266 . S
O475 Tb420 2.393 . S
O475 C494 1.248 . S
C476 O465 1.264 . S
C476 O466 1.243 . S
C477 C480 1.399 . S
C477 C482 1.383 . S
C477 C484 1.496 . S
C478 C479 1.399 . S
C478 C482 1.389 . S
C479 C478 1.399 . S
C479 C481 1.380 . S
C479 H496 0.929 1_556 S
C480 C477 1.399 . S
C480 C481 1.392 . S
C480 H497 0.929 . S
C481 C479 1.380 . S
C481 C480 1.392 . S
C481 H498 0.929 . S
C482 C477 1.383 . S
C482 C478 1.389 . S
C482 H499 0.931 . S
C483 O468 1.266 . S
C483 O469 1.248 . S
C484 Tb420 2.802 . S
C484 O464 1.264 . S
C484 O467 1.256 . S
C484 C477 1.496 . S
C485 C452 1.448 . S
C485 H462 0.964 . S
C485 C486 1.328 . S
C486 C457 1.427 . S
C486 H463 0.929 . S
C486 C485 1.328 . S
C487 O471 1.264 . S
C487 O472 1.243 . S
C488 C491 1.399 . S
C488 C492 1.383 . S
C488 C495 1.496 . S
C489 C490 1.399 . S
C489 C492 1.389 . S
C490 C489 1.399 . S
C490 C493 1.380 . S
C490 H500 0.929 . S
C491 C488 1.399 . S
C491 C493 1.392 . S
C491 H501 0.929 . S
C492 C488 1.383 . S
C492 C489 1.389 . S
C492 H502 0.931 . S
C493 C490 1.380 . S
C493 C491 1.392 . S
C493 H503 0.929 . S
C494 O474 1.266 . S
C494 O475 1.248 . S
C495 Tb431 2.802 . S
C495 O470 1.264 . S
C495 O473 1.256 . S
C495 C488 1.496 . S
H496 C479 0.929 1_554 S
H497 C480 0.929 . S
H498 C481 0.929 . S
H499 C482 0.931 . S
H500 C490 0.929 . S
H501 C491 0.929 . S
H502 C492 0.931 . S
H503 C493 0.929 . S
C504 C505 1.349 . S
C504 C506 1.327 . S
C504 H529 0.950 . S
C505 C504 1.349 . S
C505 C521 1.349 . S
C506 C504 1.327 . S
C506 C525 1.429 . S
C506 H530 0.950 . S
C507 C524 1.574 . S
C507 C526 1.368 . S
C507 H531 0.949 . S
H508 C512 0.949 . S
C509 C510 1.349 . S
C509 C511 1.327 . S
C509 H532 0.950 . S
C510 C509 1.349 . S
C510 C522 1.349 . S
C511 C509 1.327 . S
C511 C527 1.429 . S
C511 H533 0.950 . S
C512 H508 0.949 . S
C512 C520 1.574 . S
C512 C528 1.368 . S
H513 C521 0.950 . S
H514 C519 0.950 . S
H515 C520 0.949 . S
H516 C522 0.950 . S
H517 C523 0.950 . S
H518 C524 0.949 . S
C519 H514 0.950 . S
C519 C521 1.327 . S
C519 C525 1.429 . S
C520 C512 1.574 . S
C520 H515 0.949 . S
C520 C526 1.368 . S
C521 C505 1.349 . S
C521 H513 0.950 . S
C521 C519 1.327 . S
C522 C510 1.349 . S
C522 H516 0.950 . S
C522 C523 1.327 . S
C523 H517 0.950 . S
C523 C522 1.327 . S
C523 C527 1.429 . S
C524 C507 1.574 . S
C524 H518 0.949 . S
C524 C528 1.368 . S
C525 C506 1.429 . S
C525 C519 1.429 . S
C525 C526 1.523 . S
C526 C507 1.368 . S
C526 C520 1.368 . S
C526 C525 1.523 . S
C527 C511 1.429 . S
C527 C523 1.429 . S
C527 C528 1.523 . S
C528 C512 1.368 . S
C528 C524 1.368 . S
C528 C527 1.523 . S
H529 C504 0.950 . S
H530 C506 0.950 . S
H531 C507 0.949 . S
H532 C509 0.950 . S
H533 C511 0.950 . S
C534 C535 1.349 . S
C534 C536 1.327 . S
C534 H559 0.950 . S
C535 C534 1.349 . S
C535 C551 1.349 . S
C536 C534 1.327 . S
C536 C555 1.429 . S
C536 H560 0.950 . S
C537 C554 1.574 1_455 S
C537 C556 1.368 . S
C537 H561 0.949 . S
H538 C542 0.949 . S
C539 C540 1.349 . S
C539 C541 1.327 . S
C539 H562 0.950 . S
C540 C539 1.349 . S
C540 C552 1.349 . S
C541 C539 1.327 . S
C541 C557 1.429 . S
C541 H563 0.950 . S
C542 H538 0.949 . S
C542 C550 1.574 1_655 S
C542 C558 1.368 . S
H543 C551 0.950 . S
H544 C549 0.950 . S
H545 C550 0.949 . S
H546 C552 0.950 . S
H547 C553 0.950 . S
H548 C554 0.949 . S
C549 H544 0.950 . S
C549 C551 1.327 . S
C549 C555 1.429 . S
C550 C542 1.574 1_455 S
C550 H545 0.949 . S
C550 C556 1.368 . S
C551 C535 1.349 . S
C551 H543 0.950 . S
C551 C549 1.327 . S
C552 C540 1.349 . S
C552 H546 0.950 . S
C552 C553 1.327 . S
C553 H547 0.950 . S
C553 C552 1.327 . S
C553 C557 1.429 . S
C554 C537 1.574 1_655 S
C554 H548 0.949 . S
C554 C558 1.368 . S
C555 C536 1.429 . S
C555 C549 1.429 . S
C555 C556 1.523 . S
C556 C537 1.368 . S
C556 C550 1.368 . S
C556 C555 1.523 . S
C557 C541 1.429 . S
C557 C553 1.429 . S
C557 C558 1.523 . S
C558 C542 1.368 . S
C558 C554 1.368 . S
C558 C557 1.523 . S
H559 C534 0.950 . S
H560 C536 0.950 . S
H561 C537 0.949 . S
H562 C539 0.950 . S
H563 C541 0.950 . S
C564 C565 1.349 . S
C564 C566 1.327 . S
C564 H589 0.950 . S
C565 C564 1.349 . S
C565 C581 1.349 . S
C566 C564 1.327 . S
C566 C585 1.429 . S
C566 H590 0.950 . S
C567 C584 1.574 1_545 S
C567 C586 1.368 . S
C567 H591 0.949 . S
H568 C572 0.949 . S
C569 C570 1.349 . S
C569 C571 1.327 . S
C569 H592 0.950 . S
C570 C569 1.349 . S
C570 C582 1.349 . S
C571 C569 1.327 . S
C571 C587 1.429 . S
C571 H593 0.950 . S
C572 H568 0.949 . S
C572 C580 1.574 1_565 S
C572 C588 1.368 . S
H573 C581 0.950 . S
H574 C579 0.950 . S
H575 C580 0.949 . S
H576 C582 0.950 . S
H577 C583 0.950 . S
H578 C584 0.949 . S
C579 H574 0.950 . S
C579 C581 1.327 . S
C579 C585 1.429 . S
C580 C572 1.574 1_545 S
C580 H575 0.949 . S
C580 C586 1.368 . S
C581 C565 1.349 . S
C581 H573 0.950 . S
C581 C579 1.327 . S
C582 C570 1.349 . S
C582 H576 0.950 . S
C582 C583 1.327 . S
C583 H577 0.950 . S
C583 C582 1.327 . S
C583 C587 1.429 . S
C584 C567 1.574 1_565 S
C584 H578 0.949 . S
C584 C588 1.368 . S
C585 C566 1.429 . S
C585 C579 1.429 . S
C585 C586 1.523 . S
C586 C567 1.368 . S
C586 C580 1.368 . S
C586 C585 1.523 . S
C587 C571 1.429 . S
C587 C583 1.429 . S
C587 C588 1.523 . S
C588 C572 1.368 . S
C588 C584 1.368 . S
C588 C587 1.523 . S
H589 C564 0.950 . S
H590 C566 0.950 . S
H591 C567 0.949 . S
H592 C569 0.950 . S
H593 C571 0.950 . S
C594 C595 1.349 . S
C594 C596 1.327 . S
C594 H619 0.950 . S
C595 C594 1.349 . S
C595 C611 1.349 . S
C596 C594 1.327 . S
C596 C615 1.429 . S
C596 H620 0.950 . S
C597 C614 1.574 . S
C597 C616 1.368 . S
C597 H621 0.949 . S
H598 C602 0.949 . S
C599 C600 1.349 . S
C599 C601 1.327 . S
C599 H622 0.950 . S
C600 C599 1.349 . S
C600 C612 1.349 . S
C601 C599 1.327 . S
C601 C617 1.429 . S
C601 H623 0.950 . S
C602 H598 0.949 . S
C602 C610 1.574 . S
C602 C618 1.368 . S
H603 C611 0.950 . S
H604 C609 0.950 . S
H605 C610 0.949 . S
H606 C612 0.950 1_554 S
H607 C613 0.950 . S
H608 C614 0.949 . S
C609 H604 0.950 . S
C609 C611 1.327 . S
C609 C615 1.429 . S
C610 C602 1.574 . S
C610 H605 0.949 . S
C610 C616 1.368 . S
C611 C595 1.349 . S
C611 H603 0.950 . S
C611 C609 1.327 . S
C612 C600 1.349 . S
C612 H606 0.950 1_556 S
C612 C613 1.327 . S
C613 H607 0.950 . S
C613 C612 1.327 . S
C613 C617 1.429 . S
C614 C597 1.574 . S
C614 H608 0.949 . S
C614 C618 1.368 . S
C615 C596 1.429 . S
C615 C609 1.429 . S
C615 C616 1.523 . S
C616 C597 1.368 . S
C616 C610 1.368 . S
C616 C615 1.523 . S
C617 C601 1.429 . S
C617 C613 1.429 . S
C617 C618 1.523 . S
C618 C602 1.368 . S
C618 C614 1.368 . S
C618 C617 1.523 . S
H619 C594 0.950 . S
H620 C596 0.950 . S
H621 C597 0.949 . S
H622 C599 0.950 . S
H623 C601 0.950 . S
C624 C625 1.349 . S
C624 C626 1.327 . S
C624 H649 0.950 . S
C625 C624 1.349 . S
C625 C641 1.349 . S
C626 C624 1.327 . S
C626 C645 1.429 . S
C626 H650 0.950 . S
C627 C644 1.574 1_455 S
C627 C646 1.368 . S
C627 H651 0.949 . S
H628 C632 0.949 . S
C629 C630 1.349 . S
C629 C631 1.327 . S
C629 H652 0.950 . S
C630 C629 1.349 . S
C630 C642 1.349 . S
C631 C629 1.327 . S
C631 C647 1.429 . S
C631 H653 0.950 . S
C632 H628 0.949 . S
C632 C640 1.574 1_655 S
C632 C648 1.368 . S
H633 C641 0.950 . S
H634 C639 0.950 . S
H635 C640 0.949 . S
H636 C642 0.950 . S
H637 C643 0.950 . S
H638 C644 0.949 . S
C639 H634 0.950 . S
C639 C641 1.327 . S
C639 C645 1.429 . S
C640 C632 1.574 1_455 S
C640 H635 0.949 . S
C640 C646 1.368 . S
C641 C625 1.349 . S
C641 H633 0.950 . S
C641 C639 1.327 . S
C642 C630 1.349 . S
C642 H636 0.950 . S
C642 C643 1.327 . S
C643 H637 0.950 . S
C643 C642 1.327 . S
C643 C647 1.429 . S
C644 C627 1.574 1_655 S
C644 H638 0.949 . S
C644 C648 1.368 . S
C645 C626 1.429 . S
C645 C639 1.429 . S
C645 C646 1.523 . S
C646 C627 1.368 . S
C646 C640 1.368 . S
C646 C645 1.523 . S
C647 C631 1.429 . S
C647 C643 1.429 . S
C647 C648 1.523 . S
C648 C632 1.368 . S
C648 C644 1.368 . S
C648 C647 1.523 . S
H649 C624 0.950 . S
H650 C626 0.950 . S
H651 C627 0.949 . S
H652 C629 0.950 . S
H653 C631 0.950 . S
C654 C655 1.349 . S
C654 C656 1.327 . S
C654 H679 0.950 . S
C655 C654 1.349 . S
C655 C671 1.349 . S
C656 C654 1.327 . S
C656 C675 1.429 . S
C656 H680 0.950 . S
C657 C674 1.574 1_545 S
C657 C676 1.368 . S
C657 H681 0.949 . S
H658 C662 0.949 . S
C659 C660 1.349 . S
C659 C661 1.327 . S
C659 H682 0.950 . S
C660 C659 1.349 . S
C660 C672 1.349 . S
C661 C659 1.327 . S
C661 C677 1.429 . S
C661 H683 0.950 . S
C662 H658 0.949 . S
C662 C670 1.574 1_565 S
C662 C678 1.368 . S
H663 C671 0.950 . S
H664 C669 0.950 . S
H665 C670 0.949 . S
H666 C672 0.950 . S
H667 C673 0.950 . S
H668 C674 0.949 . S
C669 H664 0.950 . S
C669 C671 1.327 . S
C669 C675 1.429 . S
C670 C662 1.574 1_545 S
C670 H665 0.949 . S
C670 C676 1.368 . S
C671 C655 1.349 . S
C671 H663 0.950 . S
C671 C669 1.327 . S
C672 C660 1.349 . S
C672 H666 0.950 . S
C672 C673 1.327 . S
C673 H667 0.950 . S
C673 C672 1.327 . S
C673 C677 1.429 . S
C674 C657 1.574 1_565 S
C674 H668 0.949 . S
C674 C678 1.368 . S
C675 C656 1.429 . S
C675 C669 1.429 . S
C675 C676 1.523 . S
C676 C657 1.368 . S
C676 C670 1.368 . S
C676 C675 1.523 . S
C677 C661 1.429 . S
C677 C673 1.429 . S
C677 C678 1.523 . S
C678 C662 1.368 . S
C678 C674 1.368 . S
C678 C677 1.523 . S
H679 C654 0.950 . S
H680 C656 0.950 . S
H681 C657 0.949 . S
H682 C659 0.950 . S
H683 C661 0.950 . S
C684 C685 1.349 . S
C684 C686 1.327 . S
C684 H709 0.950 . S
C685 C684 1.349 . S
C685 C701 1.349 . S
C686 C684 1.327 . S
C686 C705 1.429 . S
C686 H710 0.950 . S
C687 C704 1.574 . S
C687 C706 1.368 . S
C687 H711 0.949 . S
H688 C692 0.949 . S
C689 C690 1.349 . S
C689 C691 1.327 . S
C689 H712 0.950 . S
C690 C689 1.349 . S
C690 C702 1.349 . S
C691 C689 1.327 . S
C691 C707 1.429 . S
C691 H713 0.950 . S
C692 H688 0.949 . S
C692 C700 1.574 . S
C692 C708 1.368 . S
H693 C701 0.950 . S
H694 C699 0.950 . S
H695 C700 0.949 . S
H696 C702 0.950 . S
H697 C703 0.950 . S
H698 C704 0.949 . S
C699 H694 0.950 . S
C699 C701 1.327 . S
C699 C705 1.429 . S
C700 C692 1.574 . S
C700 H695 0.949 . S
C700 C706 1.368 . S
C701 C685 1.349 . S
C701 H693 0.950 . S
C701 C699 1.327 . S
C702 C690 1.349 . S
C702 H696 0.950 . S
C702 C703 1.327 . S
C703 H697 0.950 . S
C703 C702 1.327 . S
C703 C707 1.429 . S
C704 C687 1.574 . S
C704 H698 0.949 . S
C704 C708 1.368 . S
C705 C686 1.429 . S
C705 C699 1.429 . S
C705 C706 1.523 . S
C706 C687 1.368 . S
C706 C700 1.368 . S
C706 C705 1.523 . S
C707 C691 1.429 . S
C707 C703 1.429 . S
C707 C708 1.523 . S
C708 C692 1.368 . S
C708 C704 1.368 . S
C708 C707 1.523 . S
H709 C684 0.950 . S
H710 C686 0.950 . S
H711 C687 0.949 . S
H712 C689 0.950 . S
H713 C691 0.950 . S
C714 C715 1.349 . S
C714 C716 1.327 1_554 S
C714 H739 0.950 . S
C715 C714 1.349 . S
C715 C731 1.349 . S
C716 C714 1.327 1_556 S
C716 C735 1.429 . S
C716 H740 0.950 . S
C717 C734 1.574 . S
C717 C736 1.368 . S
C717 H741 0.949 . S
H718 C722 0.949 . S
C719 C720 1.349 . S
C719 C721 1.327 . S
C719 H742 0.950 . S
C720 C719 1.349 . S
C720 C732 1.349 . S
C721 C719 1.327 . S
C721 C737 1.429 . S
C721 H743 0.950 . S
C722 H718 0.949 . S
C722 C730 1.574 . S
C722 C738 1.368 . S
H723 C731 0.950 . S
H724 C729 0.950 . S
H725 C730 0.949 . S
H726 C732 0.950 . S
H727 C733 0.950 . S
H728 C734 0.949 . S
C729 H724 0.950 . S
C729 C731 1.327 1_556 S
C729 C735 1.429 . S
C730 C722 1.574 . S
C730 H725 0.949 . S
C730 C736 1.368 . S
C731 C715 1.349 . S
C731 H723 0.950 . S
C731 C729 1.327 1_554 S
C732 C720 1.349 . S
C732 H726 0.950 . S
C732 C733 1.327 . S
C733 H727 0.950 . S
C733 C732 1.327 . S
C733 C737 1.429 . S
C734 C717 1.574 . S
C734 H728 0.949 . S
C734 C738 1.368 . S
C735 C716 1.429 . S
C735 C729 1.429 . S
C735 C736 1.523 . S
C736 C717 1.368 . S
C736 C730 1.368 . S
C736 C735 1.523 . S
C737 C721 1.429 . S
C737 C733 1.429 . S
C737 C738 1.523 . S
C738 C722 1.368 . S
C738 C734 1.368 . S
C738 C737 1.523 . S
H739 C714 0.950 . S
H740 C716 0.950 . S
H741 C717 0.949 . S
H742 C719 0.950 . S
H743 C721 0.950 . S
C744 C745 1.349 . S
C744 C746 1.327 . S
C744 H769 0.950 . S
C745 C744 1.349 . S
C745 C761 1.349 . S
C746 C744 1.327 . S
C746 C765 1.429 . S
C746 H770 0.950 . S
C747 C764 1.574 . S
C747 C766 1.368 . S
C747 H771 0.949 . S
H748 C752 0.949 . S
C749 C750 1.349 . S
C749 C751 1.327 1_556 S
C749 H772 0.950 . S
C750 C749 1.349 . S
C750 C762 1.337 1_556 S
C751 C749 1.327 1_554 S
C751 C767 1.429 . S
C751 H773 0.950 . S
C752 H748 0.949 . S
C752 C760 1.574 . S
C752 C768 1.368 . S
H753 C761 0.950 . S
H754 C759 0.950 . S
H755 C760 0.949 . S
H756 C762 0.939 1_556 S
H757 C763 0.950 . S
H758 C764 0.949 . S
C759 H754 0.950 . S
C759 C761 1.327 . S
C759 C765 1.429 . S
C760 C752 1.574 . S
C760 H755 0.949 . S
C760 C766 1.368 . S
C761 C745 1.349 . S
C761 H753 0.950 . S
C761 C759 1.327 . S
C762 C750 1.337 1_554 S
C762 H756 0.939 1_554 S
C762 C763 1.350 . S
C763 H757 0.950 . S
C763 C762 1.350 . S
C763 C767 1.429 . S
C764 C747 1.574 . S
C764 H758 0.949 . S
C764 C768 1.368 . S
C765 C746 1.429 . S
C765 C759 1.429 . S
C765 C766 1.523 . S
C766 C747 1.368 . S
C766 C760 1.368 . S
C766 C765 1.523 . S
C767 C751 1.429 . S
C767 C763 1.429 . S
C767 C768 1.523 . S
C768 C752 1.368 . S
C768 C764 1.368 . S
C768 C767 1.523 . S
H769 C744 0.950 . S
H770 C746 0.950 . S
H771 C747 0.949 . S
H772 C749 0.950 . S
H773 C751 0.950 . S
C774 C775 1.349 . S
C774 C776 1.327 . S
C774 H799 0.950 . S
C775 C774 1.349 . S
C775 C791 1.349 . S
C776 C774 1.327 . S
C776 C795 1.429 . S
C776 H800 0.950 . S
C777 C794 1.574 . S
C777 C796 1.368 . S
C777 H801 0.949 . S
H778 C782 0.949 . S
C779 C780 1.349 . S
C779 C781 1.327 . S
C779 H802 0.950 . S
C780 C779 1.349 . S
C780 C792 1.349 . S
C781 C779 1.327 . S
C781 C797 1.429 . S
C781 H803 0.950 . S
C782 H778 0.949 . S
C782 C790 1.574 . S
C782 C798 1.368 . S
H783 C791 0.950 . S
H784 C789 0.950 . S
H785 C790 0.949 . S
H786 C792 0.950 . S
H787 C793 0.950 . S
H788 C794 0.949 . S
C789 H784 0.950 . S
C789 C791 1.327 . S
C789 C795 1.429 . S
C790 C782 1.574 . S
C790 H785 0.949 . S
C790 C796 1.368 . S
C791 C775 1.349 . S
C791 H783 0.950 . S
C791 C789 1.327 . S
C792 C780 1.349 . S
C792 H786 0.950 . S
C792 C793 1.327 . S
C793 H787 0.950 . S
C793 C792 1.327 . S
C793 C797 1.429 . S
C794 C777 1.574 . S
C794 H788 0.949 . S
C794 C798 1.368 . S
C795 C776 1.429 . S
C795 C789 1.429 . S
C795 C796 1.523 . S
C796 C777 1.368 . S
C796 C790 1.368 . S
C796 C795 1.523 . S
C797 C781 1.429 . S
C797 C793 1.429 . S
C797 C798 1.523 . S
C798 C782 1.368 . S
C798 C794 1.368 . S
C798 C797 1.523 . S
H799 C774 0.950 . S
H800 C776 0.950 . S
H801 C777 0.949 . S
H802 C779 0.950 . S
H803 C781 0.950 . S
C804 C805 1.349 . S
C804 C806 1.327 . S
C804 H829 0.950 . S
C805 C804 1.349 . S
C805 C821 1.349 . S
C806 C804 1.327 . S
C806 C825 1.429 . S
C806 H830 0.950 . S
C807 C824 1.574 . S
C807 C826 1.368 . S
C807 H831 0.949 . S
H808 C812 0.949 . S
C809 C810 1.349 . S
C809 C811 1.327 1_554 S
C809 H832 0.950 . S
C810 C809 1.349 . S
C810 C822 1.349 . S
C811 C809 1.327 1_556 S
C811 C827 1.429 . S
C811 H833 0.950 . S
C812 H808 0.949 . S
C812 C820 1.574 . S
C812 C828 1.368 . S
H813 C821 0.950 . S
H814 C819 0.950 . S
H815 C820 0.949 . S
H816 C822 0.950 . S
H817 C823 0.950 . S
H818 C824 0.949 . S
C819 H814 0.950 . S
C819 C821 1.327 . S
C819 C825 1.429 . S
C820 C812 1.574 . S
C820 H815 0.949 . S
C820 C826 1.368 . S
C821 C805 1.349 . S
C821 H813 0.950 . S
C821 C819 1.327 . S
C822 C810 1.349 . S
C822 H816 0.950 . S
C822 C823 1.327 1_554 S
C823 H817 0.950 . S
C823 C822 1.327 1_556 S
C823 C827 1.429 . S
C824 C807 1.574 . S
C824 H818 0.949 . S
C824 C828 1.368 . S
C825 C806 1.429 . S
C825 C819 1.429 . S
C825 C826 1.523 . S
C826 C807 1.368 . S
C826 C820 1.368 . S
C826 C825 1.523 . S
C827 C811 1.429 . S
C827 C823 1.429 . S
C827 C828 1.523 . S
C828 C812 1.368 . S
C828 C824 1.368 . S
C828 C827 1.523 . S
H829 C804 0.950 . S
H830 C806 0.950 . S
H831 C807 0.949 . S
H832 C809 0.950 . S
H833 C811 0.950 . S
C834 C835 1.349 . S
C834 C836 1.327 . S
C834 H859 0.950 . S
C835 C834 1.349 . S
C835 C851 1.349 . S
C836 C834 1.327 . S
C836 C855 1.429 . S
C836 H860 0.950 . S
C837 C854 1.574 . S
C837 C856 1.368 . S
C837 H861 0.949 . S
H838 C842 0.949 . S
C839 C840 1.349 1_554 S
C839 C841 1.327 . S
C839 H862 0.950 1_554 S
C840 C839 1.349 1_556 S
C840 C852 1.349 1_556 S
C841 C839 1.327 . S
C841 C857 1.429 . S
C841 H863 0.950 . S
C842 H838 0.949 . S
C842 C850 1.574 . S
C842 C858 1.368 . S
H843 C851 0.950 . S
H844 C849 0.950 . S
H845 C850 0.949 . S
H846 C852 0.950 1_556 S
H847 C853 0.950 . S
H848 C854 0.949 . S
C849 H844 0.950 . S
C849 C851 1.327 . S
C849 C855 1.429 . S
C850 C842 1.574 . S
C850 H845 0.949 . S
C850 C856 1.368 . S
C851 C835 1.349 . S
C851 H843 0.950 . S
C851 C849 1.327 . S
C852 C840 1.349 1_554 S
C852 H846 0.950 1_554 S
C852 C853 1.327 . S
C853 H847 0.950 . S
C853 C852 1.327 . S
C853 C857 1.429 . S
C854 C837 1.574 . S
C854 H848 0.949 . S
C854 C858 1.368 . S
C855 C836 1.429 . S
C855 C849 1.429 . S
C855 C856 1.523 . S
C856 C837 1.368 . S
C856 C850 1.368 . S
C856 C855 1.523 . S
C857 C841 1.429 . S
C857 C853 1.429 . S
C857 C858 1.523 . S
C858 C842 1.368 . S
C858 C854 1.368 . S
C858 C857 1.523 . S
H859 C834 0.950 . S
H860 C836 0.950 . S
H861 C837 0.949 . S
H862 C839 0.950 1_556 S
H863 C841 0.950 . S
C864 C865 1.349 . S
C864 C866 1.327 . S
C864 H889 0.950 . S
C865 C864 1.349 . S
C865 C881 1.349 . S
C866 C864 1.327 . S
C866 C885 1.429 . S
C866 H890 0.950 . S
C867 C884 1.574 . S
C867 C886 1.368 . S
C867 H891 0.949 . S
H868 C872 0.949 . S
C869 C870 1.349 . S
C869 C871 1.327 . S
C869 H892 0.950 . S
C870 C869 1.349 . S
C870 C882 1.349 . S
C871 C869 1.327 . S
C871 C887 1.429 . S
C871 H893 0.950 . S
C872 H868 0.949 . S
C872 C880 1.574 . S
C872 C888 1.368 . S
H873 C881 0.950 . S
H874 C879 0.950 . S
H875 C880 0.949 . S
H876 C882 0.950 . S
H877 C883 0.950 . S
H878 C884 0.949 . S
C879 H874 0.950 . S
C879 C881 1.327 . S
C879 C885 1.429 . S
C880 C872 1.574 . S
C880 H875 0.949 . S
C880 C886 1.368 . S
C881 C865 1.349 . S
C881 H873 0.950 . S
C881 C879 1.327 . S
C882 C870 1.349 . S
C882 H876 0.950 . S
C882 C883 1.327 . S
C883 H877 0.950 . S
C883 C882 1.327 . S
C883 C887 1.429 . S
C884 C867 1.574 . S
C884 H878 0.949 . S
C884 C888 1.368 . S
C885 C866 1.429 . S
C885 C879 1.429 . S
C885 C886 1.523 . S
C886 C867 1.368 . S
C886 C880 1.368 . S
C886 C885 1.523 . S
C887 C871 1.429 . S
C887 C883 1.429 . S
C887 C888 1.523 . S
C888 C872 1.368 . S
C888 C884 1.368 . S
C888 C887 1.523 . S
H889 C864 0.950 . S
H890 C866 0.950 . S
H891 C867 0.949 . S
H892 C869 0.950 . S
H893 C871 0.950 . S
C894 C895 1.349 . S
C894 C896 1.327 . S
C894 H919 0.950 . S
C895 C894 1.349 . S
C895 C911 1.349 . S
C896 C894 1.327 . S
C896 C915 1.429 . S
C896 H920 0.950 . S
C897 C914 1.574 . S
C897 C916 1.368 . S
C897 H921 0.949 . S
H898 C902 0.949 . S
C899 C900 1.349 . S
C899 C901 1.327 . S
C899 H922 0.950 . S
C900 C899 1.349 . S
C900 C912 1.349 . S
C901 C899 1.327 . S
C901 C917 1.429 . S
C901 H923 0.950 . S
C902 H898 0.949 . S
C902 C910 1.574 . S
C902 C918 1.368 . S
H903 C911 0.950 . S
H904 C909 0.950 . S
H905 C910 0.949 . S
H906 C912 0.950 . S
H907 C913 0.950 . S
H908 C914 0.949 . S
C909 H904 0.950 . S
C909 C911 1.327 . S
C909 C915 1.429 . S
C910 C902 1.574 . S
C910 H905 0.949 . S
C910 C916 1.368 . S
C911 C895 1.349 . S
C911 H903 0.950 . S
C911 C909 1.327 . S
C912 C900 1.349 . S
C912 H906 0.950 . S
C912 C913 1.327 . S
C913 H907 0.950 . S
C913 C912 1.327 . S
C913 C917 1.429 . S
C914 C897 1.574 . S
C914 H908 0.949 . S
C914 C918 1.368 . S
C915 C896 1.429 . S
C915 C909 1.429 . S
C915 C916 1.523 . S
C916 C897 1.368 . S
C916 C910 1.368 . S
C916 C915 1.523 . S
C917 C901 1.429 . S
C917 C913 1.429 . S
C917 C918 1.523 . S
C918 C902 1.368 . S
C918 C914 1.368 . S
C918 C917 1.523 . S
H919 C894 0.950 . S
H920 C896 0.950 . S
H921 C897 0.949 . S
H922 C899 0.950 . S
H923 C901 0.950 . S
C924 C925 1.349 . S
C924 C926 1.327 . S
C924 H949 0.950 . S
C925 C924 1.349 . S
C925 C941 1.349 . S
C926 C924 1.327 . S
C926 C945 1.429 . S
C926 H950 0.950 . S
C927 C944 1.574 . S
C927 C946 1.368 . S
C927 H951 0.949 . S
H928 C932 0.949 . S
C929 C930 1.349 . S
C929 C931 1.327 . S
C929 H952 0.950 . S
C930 C929 1.349 . S
C930 C942 1.349 . S
C931 C929 1.327 . S
C931 C947 1.429 . S
C931 H953 0.950 . S
C932 H928 0.949 . S
C932 C940 1.574 . S
C932 C948 1.368 . S
H933 C941 0.950 . S
H934 C939 0.950 . S
H935 C940 0.949 . S
H936 C942 0.950 . S
H937 C943 0.950 . S
H938 C944 0.949 . S
C939 H934 0.950 . S
C939 C941 1.327 . S
C939 C945 1.429 . S
C940 C932 1.574 . S
C940 H935 0.949 . S
C940 C946 1.368 . S
C941 C925 1.349 . S
C941 H933 0.950 . S
C941 C939 1.327 . S
C942 C930 1.349 . S
C942 H936 0.950 . S
C942 C943 1.327 . S
C943 H937 0.950 . S
C943 C942 1.327 . S
C943 C947 1.429 . S
C944 C927 1.574 . S
C944 H938 0.949 . S
C944 C948 1.368 . S
C945 C926 1.429 . S
C945 C939 1.429 . S
C945 C946 1.523 . S
C946 C927 1.368 . S
C946 C940 1.368 . S
C946 C945 1.523 . S
C947 C931 1.429 . S
C947 C943 1.429 . S
C947 C948 1.523 . S
C948 C932 1.368 . S
C948 C944 1.368 . S
C948 C947 1.523 . S
H949 C924 0.950 . S
H950 C926 0.950 . S
H951 C927 0.949 . S
H952 C929 0.950 . S
H953 C931 0.950 . S
C954 C955 1.349 . S
C954 C956 1.327 . S
C954 H979 0.950 . S
C955 C954 1.349 . S
C955 C971 1.349 . S
C956 C954 1.327 . S
C956 C975 1.429 . S
C956 H980 0.950 . S
C957 C974 1.574 . S
C957 C976 1.368 . S
C957 H981 0.949 . S
H958 C962 0.949 . S
C959 C960 1.349 . S
C959 C961 1.327 . S
C959 H982 0.950 . S
C960 C959 1.349 . S
C960 C972 1.349 . S
C961 C959 1.327 . S
C961 C977 1.429 . S
C961 H983 0.950 . S
C962 H958 0.949 . S
C962 C970 1.574 . S
C962 C978 1.368 . S
H963 C971 0.950 . S
H964 C969 0.950 . S
H965 C970 0.949 . S
H966 C972 0.950 . S
H967 C973 0.950 . S
H968 C974 0.949 . S
C969 H964 0.950 . S
C969 C971 1.327 . S
C969 C975 1.429 . S
C970 C962 1.574 . S
C970 H965 0.949 . S
C970 C976 1.368 . S
C971 C955 1.349 . S
C971 H963 0.950 . S
C971 C969 1.327 . S
C972 C960 1.349 . S
C972 H966 0.950 . S
C972 C973 1.327 . S
C973 H967 0.950 . S
C973 C972 1.327 . S
C973 C977 1.429 . S
C974 C957 1.574 . S
C974 H968 0.949 . S
C974 C978 1.368 . S
C975 C956 1.429 . S
C975 C969 1.429 . S
C975 C976 1.523 . S
C976 C957 1.368 . S
C976 C970 1.368 . S
C976 C975 1.523 . S
C977 C961 1.429 . S
C977 C973 1.429 . S
C977 C978 1.523 . S
C978 C962 1.368 . S
C978 C974 1.368 . S
C978 C977 1.523 . S
H979 C954 0.950 . S
H980 C956 0.950 . S
H981 C957 0.949 . S
H982 C959 0.950 . S
H983 C961 0.950 . S
C984 C985 1.349 . S
C984 C986 1.327 . S
C984 H1009 0.950 . S
C985 C984 1.349 . S
C985 C1001 1.349 . S
C986 C984 1.327 . S
C986 C1005 1.429 . S
C986 H1010 0.950 . S
C987 C1004 1.574 . S
C987 C1006 1.368 . S
C987 H1011 0.949 . S
H988 C992 0.949 . S
C989 C990 1.349 . S
C989 C991 1.327 . S
C989 H1012 0.950 . S
C990 C989 1.349 . S
C990 C1002 1.349 . S
C991 C989 1.327 . S
C991 C1007 1.429 . S
C991 H1013 0.950 . S
C992 H988 0.949 . S
C992 C1000 1.574 . S
C992 C1008 1.368 . S
H993 C1001 0.950 . S
H994 C999 0.950 . S
H995 C1000 0.949 . S
H996 C1002 0.950 . S
H997 C1003 0.950 . S
H998 C1004 0.949 . S
C999 H994 0.950 . S
C999 C1001 1.327 . S
C999 C1005 1.429 . S
C1000 C992 1.574 . S
C1000 H995 0.949 . S
C1000 C1006 1.368 . S
C1001 C985 1.349 . S
C1001 H993 0.950 . S
C1001 C999 1.327 . S
C1002 C990 1.349 . S
C1002 H996 0.950 . S
C1002 C1003 1.327 . S
C1003 H997 0.950 . S
C1003 C1002 1.327 . S
C1003 C1007 1.429 . S
C1004 C987 1.574 . S
C1004 H998 0.949 . S
C1004 C1008 1.368 . S
C1005 C986 1.429 . S
C1005 C999 1.429 . S
C1005 C1006 1.523 . S
C1006 C987 1.368 . S
C1006 C1000 1.368 . S
C1006 C1005 1.523 . S
C1007 C991 1.429 . S
C1007 C1003 1.429 . S
C1007 C1008 1.523 . S
C1008 C992 1.368 . S
C1008 C1004 1.368 . S
C1008 C1007 1.523 . S
H1009 C984 0.950 . S
H1010 C986 0.950 . S
H1011 C987 0.949 . S
H1012 C989 0.950 . S
H1013 C991 0.950 . S
C1014 C1015 1.349 . S
C1014 C1016 1.327 . S
C1014 H1039 0.950 . S
C1015 C1014 1.349 . S
C1015 C1031 1.349 . S
C1016 C1014 1.327 . S
C1016 C1035 1.429 . S
C1016 H1040 0.950 . S
C1017 C1034 1.574 . S
C1017 C1036 1.368 . S
C1017 H1041 0.949 . S
H1018 C1022 0.949 . S
C1019 C1020 1.349 . S
C1019 C1021 1.327 . S
C1019 H1042 0.950 . S
C1020 C1019 1.349 . S
C1020 C1032 1.349 . S
C1021 C1019 1.327 . S
C1021 C1037 1.429 . S
C1021 H1043 0.950 . S
C1022 H1018 0.949 . S
C1022 C1030 1.574 . S
C1022 C1038 1.368 . S
H1023 C1031 0.950 . S
H1024 C1029 0.950 . S
H1025 C1030 0.949 . S
H1026 C1032 0.950 . S
H1027 C1033 0.950 . S
H1028 C1034 0.949 . S
C1029 H1024 0.950 . S
C1029 C1031 1.327 . S
C1029 C1035 1.429 . S
C1030 C1022 1.574 . S
C1030 H1025 0.949 . S
C1030 C1036 1.368 . S
C1031 C1015 1.349 . S
C1031 H1023 0.950 . S
C1031 C1029 1.327 . S
C1032 C1020 1.349 . S
C1032 H1026 0.950 . S
C1032 C1033 1.327 . S
C1033 H1027 0.950 . S
C1033 C1032 1.327 . S
C1033 C1037 1.429 . S
C1034 C1017 1.574 . S
C1034 H1028 0.949 . S
C1034 C1038 1.368 . S
C1035 C1016 1.429 . S
C1035 C1029 1.429 . S
C1035 C1036 1.523 . S
C1036 C1017 1.368 . S
C1036 C1030 1.368 . S
C1036 C1035 1.523 . S
C1037 C1021 1.429 . S
C1037 C1033 1.429 . S
C1037 C1038 1.523 . S
C1038 C1022 1.368 . S
C1038 C1034 1.368 . S
C1038 C1037 1.523 . S
H1039 C1014 0.950 . S
H1040 C1016 0.950 . S
H1041 C1017 0.949 . S
H1042 C1019 0.950 . S
H1043 C1021 0.950 . S
C505 C483 1.282 . S
C510 C63 1.282 . S
C535 C56 1.250 . S
C540 C140 1.250 . S
C565 C147 1.283 . S
C570 C231 1.283 . S
C595 C224 1.249 . S
C600 C308 1.249 . S
C625 C399 1.284 . S
C630 C315 1.284 . S
C655 C476 1.250 . S
C660 C392 1.250 . S
C685 C58 1.113 . S
C690 C69 1.113 . S
C715 C153 1.113 . S
C720 C142 1.113 . S
C745 C226 1.113 . S
C750 C237 1.113 . S
C775 C321 1.113 . S
C780 C310 1.113 . S
C805 C405 1.113 . S
C810 C394 1.113 . S
C835 C489 1.113 . S
C840 C478 1.113 . S
C865 C74 1.587 . S
C870 C403 1.601 . S
C895 C151 1.601 . S
C900 C494 1.586 . S
C925 C67 1.601 . S
C930 C242 1.587 . S
C955 C158 1.587 . S
C960 C319 1.601 . S
C985 C410 1.586 . S
C990 C235 1.601 . S
C1015 C326 1.587 . S
C1020 C487 1.601 . S
