# Generated by pormake.
# Topology reo, (8)-cn, num edge types: 1
# Building blocks:
#     Node 0, Type 0, BuildingBlock: EBIMEJ_clean_sbu_0, # of connection points: 8
#     Node 1, Type 0, BuildingBlock: EBIMEJ_clean_sbu_0, # of connection points: 8
#     Node 2, Type 0, BuildingBlock: EBIMEJ_clean_sbu_0, # of connection points: 8
#     Edge 3, Type (0, 0), BuildingBlock: UVAHIK_clean_linker_0, # of connection points: 2
#     Edge 4, Type (0, 0), BuildingBlock: UVAHIK_clean_linker_0, # of connection points: 2
#     Edge 5, Type (0, 0), BuildingBlock: UVAHIK_clean_linker_0, # of connection points: 2
#     Edge 6, Type (0, 0), BuildingBlock: UVAHIK_clean_linker_0, # of connection points: 2
#     Edge 7, Type (0, 0), BuildingBlock: UVAHIK_clean_linker_0, # of connection points: 2
#     Edge 8, Type (0, 0), BuildingBlock: UVAHIK_clean_linker_0, # of connection points: 2
#     Edge 9, Type (0, 0), BuildingBlock: UVAHIK_clean_linker_0, # of connection points: 2
#     Edge 10, Type (0, 0), BuildingBlock: UVAHIK_clean_linker_0, # of connection points: 2
#     Edge 11, Type (0, 0), BuildingBlock: UVAHIK_clean_linker_0, # of connection points: 2
#     Edge 12, Type (0, 0), BuildingBlock: UVAHIK_clean_linker_0, # of connection points: 2
#     Edge 13, Type (0, 0), BuildingBlock: UVAHIK_clean_linker_0, # of connection points: 2
#     Edge 14, Type (0, 0), BuildingBlock: UVAHIK_clean_linker_0, # of connection points: 2
# Relax obj value: 0.147
# Max RMSD: 0.258
# Mean RMSD: 0.249
data_MOF--net-reo--node1-EBIMEJ_clean_sbu_0--edge1-UVAHIK_clean_linker_0
_symmetry_space_group_name_H-M    P1
_symmetry_Int_Tables_number       1
_symmetry_cell_setting            triclinic
loop_
_symmetry_equiv_pos_as_xyz
'x, y, z'
_cell_length_a     30.339725
_cell_length_b     30.985021
_cell_length_c     30.940666
_cell_angle_alpha  91.859027
_cell_angle_beta   92.186089
_cell_angle_gamma 100.6477
loop_
_atom_site_label
_atom_site_type_symbol
_atom_site_fract_x
_atom_site_fract_y
_atom_site_fract_z
_atom_type_partial_charge
Co0 Co 1.0054 0.01702 0.41449 0.0
Co1 Co 0.00804 0.07226 0.50448 0.0
Co2 Co 0.01041 0.97442 0.5044 0.0
H3 H 1.00006 1.00239 0.46585 0.0
O4 O 0.98045 0.01862 0.47093 0.0
H5 H 0.01798 0.04409 0.54335 0.0
O6 O 0.03776 0.02808 0.53835 0.0
Co7 Co 0.01125 0.02762 0.59429 0.0
O8 O 0.02003 0.09358 0.6076 0.0
O9 O 0.03392 0.12449 0.54348 0.0
O10 O 0.9936 0.96187 0.60182 0.0
O11 O 0.02918 0.93407 0.54862 0.0
O12 O 0.98818 0.02752 0.35149 0.0
O13 O 0.94289 0.98933 0.39034 0.0
O14 O 0.94933 1.00739 0.56846 0.0
O15 O 0.94909 0.06832 0.53378 0.0
C16 C 0.9957 0.91929 0.42461 0.0
C17 C 0.99796 0.11329 0.42057 0.0
C18 C 0.05634 0.02778 0.66208 0.0
C19 C 0.09056 1.01016 0.45389 0.0
C20 C 0.03201 0.12721 0.58484 0.0
C21 C 0.01149 0.93096 0.58581 0.0
C22 C 0.94926 1.00542 0.35396 0.0
C23 C 0.92822 0.03548 0.55326 0.0
O24 O 0.01077 0.95319 0.40326 0.0
O25 O 0.98553 0.92228 0.4644 0.0
O26 O 0.98818 0.11247 0.46071 0.0
O27 O 0.01193 0.08161 0.4011 0.0
O28 O 0.01809 1.0045 0.65509 0.0
O29 O 0.06799 0.05203 0.63126 0.0
O30 O 0.0693 0.03642 0.43528 0.0
O31 O 0.07021 0.97925 0.47629 0.0
Co32 Co 0.58754 0.02996 0.95636 0.0
Co33 Co 0.48555 0.06253 0.98917 0.0
Co34 Co 0.51232 0.97403 0.01044 0.0
H35 H 0.5386 1.00806 0.97942 0.0
O36 O 0.52071 0.01915 0.96242 0.0
H37 H 0.46225 0.0275 0.01995 0.0
O38 O 0.48073 0.01805 0.03739 0.0
Co39 Co 0.41587 0.99941 0.04131 0.0
O40 O 0.38663 0.05187 0.02843 0.0
O41 O 0.44712 0.10189 0.01525 0.0
O42 O 0.41717 0.93552 0.05053 0.0
O43 O 0.48983 0.92843 0.05286 0.0
O44 O 0.64831 0.0237 0.93126 0.0
O45 O 0.59927 0.04532 0.89336 0.0
O46 O 0.40392 0.97348 0.98116 0.0
O47 O 0.43464 0.03391 0.94853 0.0
C48 C 0.59329 0.94026 0.98217 0.0
C49 C 0.53792 0.10094 0.93105 0.0
C50 C 0.37539 1.00013 0.10925 0.0
C51 C 0.59772 0.03024 0.0517 0.0
C52 C 0.4054 0.09159 0.02289 0.0
C53 C 0.44832 0.91418 0.05965 0.0
C54 C 0.63783 0.03636 0.89479 0.0
C55 C 0.40945 0.99595 0.94762 0.0
O56 O 0.61452 0.97898 0.97628 0.0
O57 O 0.55039 0.93206 0.9857 0.0
O58 O 0.50257 0.10893 0.94638 0.0
O59 O 0.54027 0.06054 0.93261 0.0
O60 O 0.36348 1.0156 0.07466 0.0
O61 O 0.41027 0.98435 0.10535 0.0
O62 O 0.61172 0.04747 0.01684 0.0
O63 O 0.56263 1.00029 0.05255 0.0
Co64 Co 0.97735 0.60519 0.00522 0.0
Co65 Co 0.9913 0.51297 0.04875 0.0
Co66 Co 0.01275 0.52815 0.95446 0.0
H67 H 0.98819 0.55692 0.9851 0.0
O68 O 0.96735 0.54085 0.99865 0.0
H69 H 0.01696 0.48406 0.01889 0.0
O70 O 0.037 0.5004 0.00464 0.0
Co71 Co 0.03247 0.43642 1.00178 0.0
O72 O 0.02663 0.41935 0.06412 0.0
O73 O 0.01335 0.48032 0.09834 0.0
O74 O 0.04045 0.43294 0.93692 0.0
O75 O 0.04961 0.50161 0.9122 0.0
O76 O 0.95491 0.66272 0.02099 0.0
O77 O 0.91334 0.61281 0.9851 0.0
O78 O 0.96666 0.41409 0.9939 0.0
O79 O 0.93921 0.46272 0.03537 0.0
C80 C 0.98619 0.60264 0.90762 0.0
C81 C 0.96619 0.5829 0.09902 0.0
C82 C 0.09108 0.38957 0.0045 0.0
C83 C 0.07325 0.60326 1.00191 0.0
C84 C 0.02198 0.44128 0.09868 0.0
C85 C 0.05119 0.46059 0.90754 0.0
C86 C 0.91692 0.65059 1.00236 0.0
C87 C 0.9343 0.42719 0.01187 0.0
O88 O 0.98486 0.62411 0.94338 0.0
O89 O 0.99073 0.56217 0.90607 0.0
O90 O 0.95547 0.54133 0.09065 0.0
O91 O 0.98293 0.60976 0.07082 0.0
O92 O 0.05186 0.37817 0.01689 0.0
O93 O 0.09717 0.42773 0.9905 0.0
O94 O 0.04241 0.61234 0.02534 0.0
O95 O 0.06466 0.57802 0.96798 0.0
C96 C 0.05521 0.38945 0.14436 0.0
C97 C 0.02493 0.41847 0.13999 0.0
C98 C 0.0534 0.36146 0.17907 0.0
C99 C 1.00049 0.33413 0.28539 0.0
H100 H 0.02638 0.21953 0.25453 0.0
C101 C 1.00557 0.19527 0.41007 0.0
C102 C 0.99324 0.15155 0.39396 0.0
C103 C 0.00767 0.23042 0.38186 0.0
C104 C 0.0184 0.25108 0.26386 0.0
H105 H 0.96972 0.44173 0.16953 0.0
H106 H 0.96541 0.39174 0.22971 0.0
H107 H 0.03379 0.27555 0.20157 0.0
H108 H 0.97009 0.11078 0.33644 0.0
H109 H 0.97189 0.17101 0.28825 0.0
H110 H 0.9832 0.3083 0.34746 0.0
C111 C 0.99145 0.39132 0.20684 0.0
C112 C 0.02357 0.28384 0.23344 0.0
C113 C 0.99389 0.42013 0.17232 0.0
C114 C 0.98047 0.14397 0.34982 0.0
C115 C 0.98194 0.17873 0.32199 0.0
C116 C 0.99491 0.30099 0.31592 0.0
C117 C 0.02042 0.36062 0.21006 0.0
C118 C 0.01492 0.32606 0.24357 0.0
C119 C 0.99706 0.22251 0.33709 0.0
C120 C 1.00354 0.2588 0.30549 0.0
H121 H 0.0797 0.38752 0.12011 0.0
H122 H 0.07741 0.33965 0.18089 0.0
H123 H 0.99375 0.36616 0.29477 0.0
H124 H 0.01578 0.20219 0.44388 0.0
H125 H 0.01945 0.26358 0.39485 0.0
C126 C 0.91951 0.0309 0.28519 0.0
C127 C 0.91287 1.00469 0.32134 0.0
C128 C 0.88292 0.03615 0.25854 0.0
C129 C 0.76545 0.98823 0.22866 0.0
H130 H 0.75844 0.10706 0.19709 0.0
C131 C 0.61449 0.01936 0.12978 0.0
C132 C 0.62662 0.04066 0.09141 0.0
C133 C 0.64582 0.02159 0.16426 0.0
C134 C 0.75999 0.07378 0.20581 0.0
H135 H 0.86378 0.96124 0.3567 0.0
H136 H 0.8 0.97025 0.31011 0.0
H137 H 0.82289 0.09381 0.2411 0.0
H138 H 0.67926 0.0852 0.06102 0.0
H139 H 0.73398 0.08836 0.12084 0.0
H140 H 0.70323 0.96793 0.19281 0.0
C141 C 0.83323 0.98685 0.30236 0.0
C142 C 0.79691 0.06615 0.23061 0.0
C143 C 0.86971 0.98173 0.32901 0.0
C144 C 0.66906 0.06784 0.08989 0.0
C145 C 0.70038 0.06996 0.12432 0.0
C146 C 0.7286 0.99583 0.20395 0.0
C147 C 0.83937 1.01499 0.26759 0.0
C148 C 0.80017 0.02322 0.24176 0.0
C149 C 0.68969 0.04512 0.16088 0.0
C150 C 0.72577 0.03859 0.19187 0.0
H151 H 0.95259 0.04872 0.27852 0.0
H152 H 0.88857 0.05733 0.23135 0.0
H153 H 0.76734 0.95478 0.23651 0.0
H154 H 0.58173 0.99885 0.13231 0.0
H155 H 0.63652 1.00294 0.1926 0.0
C156 C 0.95607 0.84074 0.40811 0.0
C157 C 0.9913 0.87598 0.40134 0.0
C158 C 0.94926 0.80271 0.38064 0.0
C159 C 0.97553 0.77028 0.26955 0.0
H160 H 0.94369 0.64961 0.30397 0.0
C161 C 1.00478 0.63179 0.1588 0.0
C162 C 0.96644 0.60168 0.14362 0.0
C163 C 1.00361 0.65883 0.19537 0.0
C164 C 0.95203 0.68322 0.29401 0.0
H165 H 0.04905 0.89753 0.363 0.0
H166 H 0.03812 0.83164 0.31653 0.0
H167 H 0.95021 0.71036 0.35873 0.0
H168 H 0.89759 0.57401 0.15659 0.0
H169 H 0.89558 0.62184 0.22179 0.0
H170 H 0.97893 0.7436 0.20545 0.0
C171 C 0.01458 0.83358 0.34166 0.0
C172 C 0.95576 0.71796 0.32524 0.0
C173 C 0.02105 0.87134 0.36856 0.0
C174 C 0.9277 0.5967 0.16789 0.0
C175 C 0.92652 0.62409 0.20496 0.0
C176 C 0.97218 0.73588 0.23875 0.0
C177 C 0.97775 0.79936 0.34622 0.0
C178 C 0.96883 0.76191 0.31346 0.0
C179 C 0.96404 0.6566 0.21784 0.0
C180 C 0.96149 0.69201 0.25069 0.0
H181 H 0.93261 0.84346 0.43313 0.0
H182 H 0.92067 0.77688 0.38516 0.0
H183 H 0.98425 0.80364 0.25895 0.0
H184 H 0.03518 0.63616 0.14083 0.0
H185 H 0.03313 0.68323 0.20486 0.0
C186 C 0.31994 0.02789 0.15487 0.0
C187 C 0.35109 1.00012 0.14947 0.0
C188 C 0.29672 0.02782 0.19295 0.0
C189 C 0.29758 0.99193 0.3068 0.0
H190 H 0.17509 1.01179 0.29917 0.0
C191 C 0.14836 0.96825 0.42921 0.0
C192 C 0.13562 1.00885 0.43839 0.0
C193 C 0.18237 0.96567 0.40041 0.0
C194 C 0.20929 1.00613 0.30159 0.0
H195 H 0.3824 0.95034 0.17913 0.0
H196 H 0.34036 0.94859 0.24485 0.0
H197 H 0.21617 1.00902 0.23338 0.0
H198 H 0.15171 0.07897 0.42909 0.0
H199 H 0.21092 0.07425 0.37892 0.0
H200 H 0.28937 0.98794 0.37543 0.0
C201 C 0.33475 0.97147 0.22044 0.0
C202 C 0.23303 1.00495 0.26405 0.0
C203 C 0.35861 0.97219 0.18265 0.0
C204 C 0.16082 0.04727 0.42245 0.0
C205 C 0.19456 0.04464 0.39374 0.0
C206 C 0.27343 0.99249 0.34442 0.0
C207 C 0.30348 0.9993 0.2261 0.0
C208 C 0.27775 0.99853 0.26615 0.0
C209 C 0.20397 1.00366 0.38098 0.0
C210 C 0.2294 1.00019 0.34194 0.0
H211 H 0.3139 0.05007 0.12988 0.0
H212 H 0.27375 0.05048 0.19646 0.0
H213 H 0.33206 0.98734 0.30977 0.0
H214 H 0.12917 0.93808 0.44063 0.0
H215 H 0.18907 0.93372 0.39054 0.0
C216 C 0.98925 0.8901 0.65237 0.0
C217 C 0.01085 0.89154 0.61275 0.0
C218 C 0.98948 0.85546 0.67991 0.0
C219 C 1.00229 0.7402 0.68775 0.0
H220 H 0.02071 0.77424 0.80976 0.0
C221 C 1.00564 0.61703 0.82959 0.0
C222 C 0.98479 0.6277 0.86736 0.0
C223 C 0.01031 0.64573 0.7949 0.0
C224 C 0.01514 0.76398 0.77588 0.0
H225 H 0.04865 0.85598 0.57087 0.0
H226 H 0.04874 0.79444 0.61956 0.0
H227 H 0.02837 0.83047 0.75628 0.0
H228 H 0.94961 0.67534 0.89668 0.0
H229 H 0.95707 0.72428 0.83675 0.0
H230 H 0.98854 0.67336 0.70801 0.0
C231 C 0.03176 0.82088 0.62893 0.0
C232 C 0.01967 0.79633 0.7451 0.0
C233 C 0.0318 0.85616 0.60108 0.0
C234 C 0.96651 0.66626 0.86848 0.0
C235 C 0.97106 0.69461 0.8341 0.0
C236 C 0.9978 0.70755 0.71881 0.0
C237 C 0.01117 0.8206 0.66909 0.0
C238 C 0.01211 0.78509 0.70067 0.0
C239 C 0.99424 0.6856 0.79737 0.0
C240 C 1.00297 0.71916 0.76339 0.0
H241 H 0.97214 0.91612 0.66273 0.0
H242 H 0.97235 0.85604 0.70996 0.0
H243 H 0.99621 0.73038 0.65382 0.0
H244 H 0.02027 0.58771 0.8277 0.0
H245 H 0.02824 0.63768 0.76705 0.0
C246 C 0.34587 0.94357 0.91035 0.0
C247 C 0.37991 0.98106 0.90901 0.0
C248 C 0.31142 0.93529 0.87839 0.0
C249 C 0.27186 0.97214 0.77337 0.0
H250 H 0.15896 0.96603 0.83003 0.0
C251 C 0.13086 0.04668 0.70019 0.0
C252 C 0.08799 0.02024 0.69669 0.0
C253 C 0.16473 0.03408 0.72557 0.0
C254 C 0.19005 0.96697 0.81367 0.0
H255 H 0.4076 0.03604 0.87047 0.0
H256 H 0.34738 0.02184 0.81504 0.0
H257 H 0.22481 0.95197 0.87091 0.0
H258 H 0.0456 0.9618 0.71919 0.0
H259 H 0.10516 0.94001 0.76439 0.0
H260 H 0.23748 0.98935 0.71674 0.0
C261 C 0.34711 0.99892 0.84078 0.0
C262 C 0.22767 0.95864 0.83688 0.0
C263 C 0.38149 1.00729 0.87276 0.0
C264 C 0.07848 0.98275 0.72151 0.0
C265 C 0.11249 0.97016 0.74709 0.0
C266 C 0.23432 0.98061 0.75026 0.0
C267 C 0.31064 0.96415 0.8445 0.0
C268 C 0.2693 0.96274 0.81734 0.0
C269 C 0.15623 0.99491 0.7479 0.0
C270 C 0.19364 0.97971 0.77072 0.0
H271 H 0.34409 0.92221 0.93751 0.0
H272 H 0.28406 0.9078 0.88153 0.0
H273 H 0.30336 0.97486 0.75741 0.0
H274 H 0.13886 0.07593 0.6816 0.0
H275 H 0.19798 0.05432 0.72673 0.0
C276 C 0.04501 0.45258 0.82619 0.0
C277 C 0.06345 0.44201 0.86594 0.0
C278 C 0.04809 0.42694 0.78844 0.0
C279 C 0.10614 0.33962 0.74351 0.0
H280 H 0.99472 0.30077 0.67597 0.0
C281 C 0.06366 0.17291 0.65045 0.0
C282 C 0.04363 0.17047 0.60851 0.0
C283 C 0.07091 0.21215 0.67537 0.0
C284 C 0.02632 0.31187 0.69399 0.0
H285 H 0.10178 0.39826 0.89694 0.0
H286 H 0.10764 0.35433 0.83185 0.0
H287 H 0.99987 0.36007 0.73116 0.0
H288 H 0.01567 0.20743 0.55966 0.0
H289 H 0.02747 0.27641 0.60399 0.0
H290 H 0.13176 0.28985 0.70794 0.0
C291 C 0.09086 0.38215 0.8292 0.0
C292 C 0.02936 0.34598 0.72559 0.0
C293 C 0.08741 0.40732 0.86671 0.0
C294 C 0.03161 0.20851 0.5917 0.0
C295 C 0.03803 0.24779 0.61715 0.0
C296 C 0.10295 0.30538 0.7123 0.0
C297 C 0.07017 0.3907 0.78974 0.0
C298 C 0.06898 0.35952 0.75158 0.0
C299 C 0.05761 0.24991 0.65937 0.0
C300 C 0.06271 0.29038 0.68789 0.0
H301 H 0.02583 0.47876 0.82479 0.0
H302 H 0.03209 0.43472 0.75855 0.0
H303 H 0.13747 0.34969 0.76221 0.0
H304 H 0.07326 0.14415 0.66433 0.0
H305 H 0.0856 0.21251 0.70788 0.0
C306 C 0.6608 0.07013 0.82565 0.0
C307 C 0.6667 0.04034 0.85765 0.0
C308 C 0.68578 0.07222 0.78864 0.0
C309 C 0.72871 1.00792 0.71253 0.0
H310 H 0.82272 0.10626 0.68918 0.0
C311 C 0.86003 0.99715 0.58727 0.0
C312 C 0.88343 0.0357 0.57002 0.0
C313 C 0.82604 0.99905 0.61582 0.0
C314 C 0.79577 0.07903 0.69449 0.0
H315 H 0.70337 0.98984 0.87685 0.0
H316 H 0.74623 0.99242 0.81076 0.0
H317 H 0.78145 0.10768 0.75526 0.0
H318 H 0.88582 0.10565 0.56466 0.0
H319 H 0.82477 0.10878 0.61318 0.0
H320 H 0.74174 0.97941 0.65168 0.0
C321 C 0.72271 1.01448 0.81494 0.0
C322 C 0.7727 0.0797 0.73262 0.0
C323 C 0.69848 1.01314 0.85256 0.0
C324 C 0.86851 0.07542 0.57764 0.0
C325 C 0.83403 0.07728 0.60603 0.0
C326 C 0.75107 1.00757 0.67398 0.0
C327 C 0.71619 0.04384 0.78274 0.0
C328 C 0.73971 0.04379 0.74215 0.0
C329 C 0.81414 0.03951 0.62728 0.0
C330 C 0.78558 0.04271 0.66484 0.0
H331 H 0.63662 0.09161 0.82915 0.0
H332 H 0.68047 0.09507 0.76404 0.0
H333 H 0.70279 0.9802 0.71927 0.0
H334 H 0.87055 0.96594 0.58162 0.0
H335 H 0.81184 0.96921 0.63145 0.0
C336 C 0.11626 0.32036 0.02554 0.0
C337 C 0.12565 0.36145 0.0066 0.0
C338 C 0.14869 0.29366 0.02795 0.0
C339 C 0.25458 0.2747 0.98047 0.0
H340 H 0.26312 0.20777 0.08319 0.0
C341 C 0.39203 0.16802 0.00809 0.0
C342 C 0.37699 0.126 0.02392 0.0
C343 C 0.36364 0.19904 0.00668 0.0
C344 C 0.26101 0.22599 0.05413 0.0
H345 H 0.17638 0.40671 0.97509 0.0
H346 H 0.23335 0.36026 0.97964 0.0
H347 H 0.20952 0.2572 0.07907 0.0
H348 H 0.32015 0.08413 0.05106 0.0
H349 H 0.2713 0.1379 0.04886 0.0
H350 H 0.30622 0.2432 0.95563 0.0
C351 C 0.20072 0.34843 0.99229 0.0
C352 C 0.23013 0.25432 0.0517 0.0
C353 C 0.16819 0.37521 0.98992 0.0
C354 C 0.33315 0.11612 0.03884 0.0
C355 C 0.30505 0.14712 0.03777 0.0
C356 C 0.28566 0.24639 0.98298 0.0
C357 C 0.19147 0.30733 0.01153 0.0
C358 C 0.22603 0.27869 0.01464 0.0
C359 C 0.31975 0.18892 0.02149 0.0
C360 C 0.28887 0.22125 0.01966 0.0
H361 H 0.08376 0.30878 0.0386 0.0
H362 H 0.13997 0.26197 0.04231 0.0
H363 H 0.2521 0.29253 0.95123 0.0
H364 H 0.42543 0.1767 0.99603 0.0
H365 H 0.37613 0.23103 0.99418 0.0
C366 C 0.14893 0.6425 0.98264 0.0
C367 C 0.12018 0.62333 0.01392 0.0
C368 C 0.19272 0.66368 0.99457 0.0
C369 C 0.26468 0.70959 0.09307 0.0
H370 H 0.35329 0.73419 0.00607 0.0
C371 C 0.39696 0.86441 0.10342 0.0
C372 C 0.43276 0.86989 0.07552 0.0
C373 C 0.36837 0.82394 0.10535 0.0
C374 C 0.32976 0.7269 0.03142 0.0
H375 H 0.11479 0.60891 0.08163 0.0
H376 H 0.19197 0.6425 0.10219 0.0
H377 H 0.28494 0.68195 0.98917 0.0
H378 H 0.47072 0.83618 0.03233 0.0
H379 H 0.42227 0.76418 0.03757 0.0
H380 H 0.3107 0.75242 0.13614 0.0
C381 C 0.18063 0.64378 0.06878 0.0
C382 C 0.28956 0.69752 0.02123 0.0
C383 C 0.13634 0.62406 0.05703 0.0
C384 C 0.44331 0.83276 0.05415 0.0
C385 C 0.41484 0.79173 0.0565 0.0
C386 C 0.30551 0.7377 0.10372 0.0
C387 C 0.2094 0.66483 0.03793 0.0
C388 C 0.25534 0.69008 0.05114 0.0
C389 C 0.37521 0.7875 0.07981 0.0
C390 C 0.33769 0.74878 0.07236 0.0
H391 H 0.137 0.64255 0.94918 0.0
H392 H 0.21276 0.68024 0.96974 0.0
H393 H 0.2398 0.70523 0.11743 0.0
H394 H 0.38813 0.89259 0.12027 0.0
H395 H 0.33857 0.8229 0.12367 0.0
C396 C 0.62011 0.13042 0.94652 0.0
C397 C 0.57764 0.13696 0.93181 0.0
C398 C 0.65665 0.16515 0.94981 0.0
C399 C 0.68643 0.28279 0.96997 0.0
H400 H 0.80192 0.26722 0.9292 0.0
C401 C 0.85062 0.41487 0.99756 0.0
C402 C 0.88998 0.39823 0.00581 0.0
C403 C 0.81021 0.3861 0.98579 0.0
C404 C 0.77003 0.27202 0.94119 0.0
H405 H 0.5399 0.18576 0.91011 0.0
H406 H 0.60403 0.24725 0.91682 0.0
H407 H 0.73575 0.21111 0.91144 0.0
H408 H 0.91765 0.33888 0.01133 0.0
H409 H 0.84751 0.28903 0.99284 0.0
H410 H 0.72111 0.34289 1.00134 0.0
C411 C 0.60895 0.21469 0.92499 0.0
C412 C 0.73211 0.23998 0.9307 0.0
C413 C 0.57242 0.17955 0.92106 0.0
C414 C 0.88787 0.35259 1.00444 0.0
C415 C 0.84772 0.32403 0.99339 0.0
C416 C 0.72461 0.31478 0.98092 0.0
C417 C 0.65142 0.20771 0.93943 0.0
C418 C 0.69014 0.24455 0.94578 0.0
C419 C 0.80863 0.34034 0.98262 0.0
C420 C 0.76706 0.30916 0.96758 0.0
H421 H 0.62512 0.09899 0.95713 0.0
H422 H 0.68876 0.15898 0.96204 0.0
H423 H 0.65443 0.28694 0.98218 0.0
H424 H 0.85156 0.45001 0.9982 0.0
H425 H 0.7807 0.39974 0.97771 0.0
C426 C 0.83935 0.66153 0.97902 0.0
C427 C 0.88102 0.67754 1.00077 0.0
C428 C 0.80541 0.68685 0.97793 0.0
C429 C 0.77073 0.78368 0.03369 0.0
H430 H 0.69271 0.78187 0.93114 0.0
C431 C 0.66541 0.91749 1.0039 0.0
C432 C 0.62085 0.90539 0.98713 0.0
C433 C 0.69349 0.88664 0.00719 0.0
C434 C 0.71379 0.78227 0.96026 0.0
H435 H 0.91976 0.73302 0.03804 0.0
H436 H 0.86132 0.77743 0.03556 0.0
H437 H 0.74955 0.73525 0.93273 0.0
H438 H 0.57083 0.85076 0.96113 0.0
H439 H 0.62066 0.7964 0.96604 0.0
H440 H 0.73586 0.83166 0.06065 0.0
C441 C 0.85419 0.74495 0.01999 0.0
C442 C 0.7465 0.75549 0.96124 0.0
C443 C 0.88801 0.71959 0.02115 0.0
C444 C 0.6049 0.86113 0.97423 0.0
C445 C 0.63353 0.83013 0.9768 0.0
C446 C 0.73838 0.81064 0.03254 0.0
C447 C 0.81219 0.72896 0.99854 0.0
C448 C 0.7759 0.75614 0.99783 0.0
C449 C 0.67825 0.84261 0.99334 0.0
C450 C 0.70978 0.81073 0.99566 0.0
H451 H 0.83284 0.62926 0.96298 0.0
H452 H 0.77357 0.67301 0.96148 0.0
H453 H 0.79171 0.78449 0.06291 0.0
H454 H 0.67883 0.95119 0.01453 0.0
H455 H 0.7277 0.89762 0.01971 0.0
loop_
_geom_bond_atom_site_label_1
_geom_bond_atom_site_label_2
_geom_bond_distance
_geom_bond_site_symmetry_2
_ccdc_geom_bond_type
Co0 H3 2.400 . S
Co0 O4 2.009 . S
Co0 O12 2.113 1_565 S
Co0 O13 2.315 . S
Co0 O24 2.053 . S
Co0 O27 2.094 1_565 S
Co0 O30 2.122 1_665 S
Co1 O4 2.126 1_545 S
Co1 H5 2.388 1_655 S
Co1 O6 2.053 1_655 S
Co1 O9 2.047 1_655 S
Co1 O15 2.113 . S
Co1 O26 2.063 . S
Co2 H3 2.388 1_455 S
Co2 O4 2.053 1_455 S
Co2 O6 2.126 1_565 S
Co2 O11 2.063 . S
Co2 O25 2.047 1_455 S
Co2 O31 2.113 . S
H3 Co0 2.400 . S
H3 Co2 2.388 1_655 S
H3 O4 0.760 . S
O4 Co0 2.009 . S
O4 Co1 2.126 1_565 S
O4 Co2 2.053 1_655 S
O4 H3 0.760 . S
H5 Co1 2.388 1_455 S
H5 O6 0.760 . S
H5 Co7 2.400 . S
O6 Co1 2.053 1_455 S
O6 Co2 2.126 1_545 S
O6 H5 0.760 . S
O6 Co7 2.009 . S
Co7 H5 2.400 . S
Co7 O6 2.009 . S
Co7 O8 2.053 . S
Co7 O10 2.094 1_545 S
Co7 O14 2.122 1_445 S
Co7 O28 2.114 1_545 S
Co7 O29 2.315 . S
O8 Co7 2.053 . S
O8 C20 1.259 . S
O9 Co1 2.047 1_455 S
O9 C20 1.257 . S
O10 Co7 2.094 1_565 S
O10 C21 1.253 . S
O11 Co2 2.063 . S
O11 C21 1.268 . S
O12 Co0 2.113 1_545 S
O12 C22 1.284 1_545 S
O13 Co0 2.315 . S
O13 C22 1.252 . S
O14 Co7 2.122 1_665 S
O14 C23 1.272 1_565 S
O15 Co1 2.113 . S
O15 C23 1.245 . S
C16 O24 1.259 . S
C16 O25 1.257 . S
C17 O26 1.268 . S
C17 O27 1.253 . S
C18 O28 1.284 1_545 S
C18 O29 1.253 . S
C19 O30 1.272 1_565 S
C19 O31 1.245 . S
C20 O8 1.259 . S
C20 O9 1.257 . S
C21 O10 1.253 . S
C21 O11 1.268 . S
C22 O12 1.284 1_565 S
C22 O13 1.252 . S
C23 O14 1.272 1_545 S
C23 O15 1.245 . S
O24 Co0 2.053 . S
O24 C16 1.259 . S
O25 Co2 2.047 1_655 S
O25 C16 1.257 . S
O26 Co1 2.063 . S
O26 C17 1.268 . S
O27 Co0 2.094 1_545 S
O27 C17 1.253 . S
O28 Co7 2.114 1_565 S
O28 C18 1.284 1_565 S
O29 Co7 2.315 . S
O29 C18 1.253 . S
O30 Co0 2.122 1_445 S
O30 C19 1.272 1_545 S
O31 Co2 2.113 . S
O31 C19 1.245 . S
Co32 H35 2.400 1_545 S
Co32 O36 2.012 1_545 S
Co32 O44 2.115 . S
Co32 O45 2.315 . S
Co32 O56 2.053 1_545 S
Co32 O59 2.094 . S
Co32 O62 2.122 1_556 S
Co33 O36 2.108 1_545 S
Co33 H37 2.388 1_556 S
Co33 O38 2.072 1_556 S
Co33 O41 2.047 1_556 S
Co33 O47 2.113 . S
Co33 O58 2.063 . S
Co34 H35 2.388 1_554 S
Co34 O36 2.068 1_554 S
Co34 O38 2.103 1_565 S
Co34 O43 2.063 . S
Co34 O57 2.047 1_554 S
Co34 O63 2.113 . S
H35 Co32 2.400 1_565 S
H35 Co34 2.388 1_556 S
H35 O36 0.762 . S
O36 Co32 2.012 1_565 S
O36 Co33 2.108 1_565 S
O36 Co34 2.068 1_556 S
O36 H35 0.762 . S
H37 Co33 2.388 1_554 S
H37 O38 0.763 . S
H37 Co39 2.400 1_545 S
O38 Co33 2.072 1_554 S
O38 Co34 2.103 1_545 S
O38 H37 0.763 . S
O38 Co39 2.012 1_545 S
Co39 H37 2.400 1_565 S
Co39 O38 2.012 1_565 S
Co39 O40 2.053 1_565 S
Co39 O42 2.094 . S
Co39 O46 2.122 1_554 S
Co39 O60 2.115 . S
Co39 O61 2.315 . S
O40 Co39 2.053 1_545 S
O40 C52 1.259 . S
O41 Co33 2.047 1_554 S
O41 C52 1.257 . S
O42 Co39 2.094 . S
O42 C53 1.253 . S
O43 Co34 2.063 . S
O43 C53 1.268 . S
O44 Co32 2.115 . S
O44 C54 1.281 . S
O45 Co32 2.315 . S
O45 C54 1.252 . S
O46 Co39 2.122 1_556 S
O46 C55 1.272 1_565 S
O47 Co33 2.113 . S
O47 C55 1.245 . S
C48 O56 1.259 . S
C48 O57 1.257 . S
C49 O58 1.268 . S
C49 O59 1.253 . S
C50 O60 1.281 . S
C50 O61 1.252 . S
C51 O62 1.272 1_565 S
C51 O63 1.245 . S
C52 O40 1.259 . S
C52 O41 1.257 . S
C53 O42 1.253 . S
C53 O43 1.268 . S
C54 O44 1.281 . S
C54 O45 1.252 . S
C55 O46 1.272 1_545 S
C55 O47 1.245 . S
O56 Co32 2.053 1_565 S
O56 C48 1.259 . S
O57 Co34 2.047 1_556 S
O57 C48 1.257 . S
O58 Co33 2.063 . S
O58 C49 1.268 . S
O59 Co32 2.094 . S
O59 C49 1.253 . S
O60 Co39 2.115 . S
O60 C50 1.281 . S
O61 Co39 2.315 . S
O61 C50 1.252 . S
O62 Co32 2.122 1_554 S
O62 C51 1.272 1_545 S
O63 Co34 2.113 . S
O63 C51 1.245 . S
Co64 H67 2.399 1_554 S
Co64 O68 2.009 1_554 S
Co64 O76 2.116 . S
Co64 O77 2.317 . S
Co64 O88 2.032 1_554 S
Co64 O91 2.115 . S
Co64 O94 2.123 1_655 S
Co65 O68 2.126 1_554 S
Co65 H69 2.388 1_655 S
Co65 O70 2.053 1_655 S
Co65 O73 2.047 1_655 S
Co65 O79 2.113 . S
Co65 O90 2.063 . S
Co66 H67 2.388 1_455 S
Co66 O68 2.053 1_455 S
Co66 O70 2.126 1_556 S
Co66 O75 2.063 . S
Co66 O89 2.047 1_455 S
Co66 O95 2.113 . S
H67 Co64 2.399 1_556 S
H67 Co66 2.388 1_655 S
H67 O68 0.760 . S
O68 Co64 2.009 1_556 S
O68 Co65 2.126 1_556 S
O68 Co66 2.053 1_655 S
O68 H67 0.760 . S
H69 Co65 2.388 1_455 S
H69 O70 0.760 . S
H69 Co71 2.400 1_554 S
O70 Co65 2.053 1_455 S
O70 Co66 2.126 1_554 S
O70 H69 0.760 . S
O70 Co71 2.009 1_554 S
Co71 H69 2.400 1_556 S
Co71 O70 2.009 1_556 S
Co71 O72 2.038 1_556 S
Co71 O74 2.108 . S
Co71 O78 2.123 1_455 S
Co71 O92 2.116 . S
Co71 O93 2.316 . S
O72 Co71 2.038 1_554 S
O72 C84 1.259 . S
O73 Co65 2.047 1_455 S
O73 C84 1.257 . S
O74 Co71 2.108 . S
O74 C85 1.253 . S
O75 Co66 2.063 . S
O75 C85 1.268 . S
O76 Co64 2.116 . S
O76 C86 1.281 . S
O77 Co64 2.317 . S
O77 C86 1.252 . S
O78 Co71 2.123 1_655 S
O78 C87 1.272 1_556 S
O79 Co65 2.113 . S
O79 C87 1.245 . S
C80 O88 1.259 . S
C80 O89 1.257 . S
C81 O90 1.268 . S
C81 O91 1.253 . S
C82 O92 1.281 . S
C82 O93 1.252 . S
C83 O94 1.272 1_556 S
C83 O95 1.245 . S
C84 O72 1.259 . S
C84 O73 1.257 . S
C85 O74 1.253 . S
C85 O75 1.268 . S
C86 O76 1.281 . S
C86 O77 1.252 . S
C87 O78 1.272 1_554 S
C87 O79 1.245 . S
O88 Co64 2.032 1_556 S
O88 C80 1.259 . S
O89 Co66 2.047 1_655 S
O89 C80 1.257 . S
O90 Co65 2.063 . S
O90 C81 1.268 . S
O91 Co64 2.115 . S
O91 C81 1.253 . S
O92 Co71 2.116 . S
O92 C82 1.281 . S
O93 Co71 2.316 . S
O93 C82 1.252 . S
O94 Co64 2.123 1_455 S
O94 C83 1.272 1_554 S
O95 Co66 2.113 . S
O95 C83 1.245 . S
C96 C97 1.349 . S
C96 C98 1.327 . S
C96 H121 0.950 . S
C97 C96 1.349 . S
C97 C113 1.349 1_455 S
C98 C96 1.327 . S
C98 C117 1.429 1_455 S
C98 H122 0.950 . S
C99 C116 1.574 . S
C99 C118 1.368 . S
C99 H123 0.949 . S
H100 C104 0.949 1_455 S
C101 C102 1.349 . S
C101 C103 1.327 . S
C101 H124 0.950 . S
C102 C101 1.349 . S
C102 C114 1.349 . S
C103 C101 1.327 . S
C103 C119 1.429 . S
C103 H125 0.950 . S
C104 H100 0.949 1_655 S
C104 C112 1.574 1_655 S
C104 C120 1.368 . S
H105 C113 0.950 . S
H106 C111 0.950 . S
H107 C112 0.955 . S
H108 C114 0.950 . S
H109 C115 0.950 . S
H110 C116 0.949 . S
C111 H106 0.950 . S
C111 C113 1.327 . S
C111 C117 1.429 . S
C112 C104 1.574 1_455 S
C112 H107 0.955 . S
C112 C118 1.362 1_455 S
C113 C97 1.349 1_655 S
C113 H105 0.950 . S
C113 C111 1.327 . S
C114 C102 1.349 . S
C114 H108 0.950 . S
C114 C115 1.327 . S
C115 H109 0.950 . S
C115 C114 1.327 . S
C115 C119 1.429 . S
C116 C99 1.574 . S
C116 H110 0.949 . S
C116 C120 1.368 . S
C117 C98 1.429 1_655 S
C117 C111 1.429 . S
C117 C118 1.523 . S
C118 C99 1.368 . S
C118 C112 1.362 1_655 S
C118 C117 1.523 . S
C119 C103 1.429 . S
C119 C115 1.429 . S
C119 C120 1.523 . S
C120 C104 1.368 . S
C120 C116 1.368 . S
C120 C119 1.523 . S
H121 C96 0.950 . S
H122 C98 0.950 . S
H123 C99 0.949 . S
H124 C101 0.950 . S
H125 C103 0.950 . S
C126 C127 1.349 . S
C126 C128 1.327 . S
C126 H151 0.950 . S
C127 C126 1.349 . S
C127 C143 1.349 1_545 S
C128 C126 1.327 . S
C128 C147 1.435 . S
C128 H152 0.950 . S
C129 C146 1.574 . S
C129 C148 1.368 . S
C129 H153 0.949 . S
H130 C134 0.949 . S
C131 C132 1.349 . S
C131 C133 1.327 . S
C131 H154 0.950 . S
C132 C131 1.349 . S
C132 C144 1.349 1_565 S
C133 C131 1.327 . S
C133 C149 1.429 . S
C133 H155 0.950 . S
C134 H130 0.949 . S
C134 C142 1.574 . S
C134 C150 1.368 1_545 S
H135 C143 0.950 . S
H136 C141 0.950 . S
H137 C142 0.949 . S
H138 C144 0.950 . S
H139 C145 0.950 . S
H140 C146 0.949 . S
C141 H136 0.950 . S
C141 C143 1.327 . S
C141 C147 1.419 1_565 S
C142 C134 1.574 . S
C142 H137 0.949 . S
C142 C148 1.368 1_545 S
C143 C127 1.349 1_565 S
C143 H135 0.950 . S
C143 C141 1.327 . S
C144 C132 1.349 1_545 S
C144 H138 0.950 . S
C144 C145 1.327 . S
C145 H139 0.950 . S
C145 C144 1.327 . S
C145 C149 1.429 1_545 S
C146 C129 1.574 . S
C146 H140 0.949 . S
C146 C150 1.368 . S
C147 C128 1.435 . S
C147 C141 1.419 1_545 S
C147 C148 1.527 1_545 S
C148 C129 1.368 . S
C148 C142 1.368 1_565 S
C148 C147 1.527 1_565 S
C149 C133 1.429 . S
C149 C145 1.429 1_565 S
C149 C150 1.523 . S
C150 C134 1.368 1_565 S
C150 C146 1.368 . S
C150 C149 1.523 . S
H151 C126 0.950 . S
H152 C128 0.950 . S
H153 C129 0.949 . S
H154 C131 0.950 . S
H155 C133 0.950 . S
C156 C157 1.349 . S
C156 C158 1.327 . S
C156 H181 0.950 . S
C157 C156 1.349 . S
C157 C173 1.349 . S
C158 C156 1.327 . S
C158 C177 1.429 . S
C158 H182 0.950 . S
C159 C176 1.574 . S
C159 C178 1.368 . S
C159 H183 0.949 1_655 S
H160 C164 0.949 . S
C161 C162 1.349 . S
C161 C163 1.327 . S
C161 H184 0.950 1_655 S
C162 C161 1.349 . S
C162 C174 1.349 . S
C163 C161 1.327 . S
C163 C179 1.429 . S
C163 H185 0.950 1_655 S
C164 H160 0.949 . S
C164 C172 1.574 . S
C164 C180 1.368 . S
H165 C173 0.950 1_455 S
H166 C171 0.950 1_455 S
H167 C172 0.949 . S
H168 C174 0.950 . S
H169 C175 0.950 . S
H170 C176 0.949 1_455 S
C171 H166 0.950 1_655 S
C171 C173 1.327 . S
C171 C177 1.429 . S
C172 C164 1.574 . S
C172 H167 0.949 . S
C172 C178 1.368 . S
C173 C157 1.349 . S
C173 H165 0.950 1_655 S
C173 C171 1.327 . S
C174 C162 1.349 . S
C174 H168 0.950 . S
C174 C175 1.327 . S
C175 H169 0.950 . S
C175 C174 1.327 . S
C175 C179 1.429 . S
C176 C159 1.574 . S
C176 H170 0.949 1_655 S
C176 C180 1.368 . S
C177 C158 1.429 . S
C177 C171 1.429 . S
C177 C178 1.523 . S
C178 C159 1.368 . S
C178 C172 1.368 . S
C178 C177 1.523 . S
C179 C163 1.429 . S
C179 C175 1.429 . S
C179 C180 1.523 . S
C180 C164 1.368 . S
C180 C176 1.368 . S
C180 C179 1.523 . S
H181 C156 0.950 . S
H182 C158 0.950 . S
H183 C159 0.949 1_455 S
H184 C161 0.950 1_455 S
H185 C163 0.950 1_455 S
C186 C187 1.342 1_545 S
C186 C188 1.328 . S
C186 H211 0.956 . S
C187 C186 1.342 1_565 S
C187 C203 1.349 . S
C188 C186 1.328 . S
C188 C207 1.429 1_545 S
C188 H212 0.950 . S
C189 C206 1.574 . S
C189 C208 1.368 . S
C189 H213 0.949 . S
H190 C194 0.949 . S
C191 C192 1.349 . S
C191 C193 1.327 . S
C191 H214 0.950 . S
C192 C191 1.349 . S
C192 C204 1.349 1_565 S
C193 C191 1.327 . S
C193 C209 1.429 . S
C193 H215 0.950 . S
C194 H190 0.949 . S
C194 C202 1.574 . S
C194 C210 1.368 1_545 S
H195 C203 0.950 . S
H196 C201 0.950 . S
H197 C202 0.949 . S
H198 C204 0.950 . S
H199 C205 0.950 . S
H200 C206 0.949 . S
C201 H196 0.950 . S
C201 C203 1.327 . S
C201 C207 1.429 . S
C202 C194 1.574 . S
C202 H197 0.949 . S
C202 C208 1.368 1_545 S
C203 C187 1.349 . S
C203 H195 0.950 . S
C203 C201 1.327 . S
C204 C192 1.349 1_545 S
C204 H198 0.950 . S
C204 C205 1.327 . S
C205 H199 0.950 . S
C205 C204 1.327 . S
C205 C209 1.429 1_545 S
C206 C189 1.574 . S
C206 H200 0.949 . S
C206 C210 1.368 . S
C207 C188 1.429 1_565 S
C207 C201 1.429 . S
C207 C208 1.523 . S
C208 C189 1.368 . S
C208 C202 1.368 1_565 S
C208 C207 1.523 . S
C209 C193 1.429 . S
C209 C205 1.429 1_565 S
C209 C210 1.523 . S
C210 C194 1.368 1_565 S
C210 C206 1.368 . S
C210 C209 1.523 . S
H211 C186 0.956 . S
H212 C188 0.950 . S
H213 C189 0.949 . S
H214 C191 0.950 . S
H215 C193 0.950 . S
C216 C217 1.349 . S
C216 C218 1.327 . S
C216 H241 0.950 . S
C217 C216 1.349 . S
C217 C233 1.349 . S
C218 C216 1.327 . S
C218 C237 1.429 . S
C218 H242 0.950 . S
C219 C236 1.574 . S
C219 C238 1.368 . S
C219 H243 0.949 . S
H220 C224 0.949 1_655 S
C221 C222 1.349 1_455 S
C221 C223 1.327 . S
C221 H244 0.950 . S
C222 C221 1.349 1_655 S
C222 C234 1.349 . S
C223 C221 1.327 . S
C223 C239 1.429 . S
C223 H245 0.950 . S
C224 H220 0.949 1_455 S
C224 C232 1.574 . S
C224 C240 1.368 . S
H225 C233 0.950 . S
H226 C231 0.950 . S
H227 C232 0.949 . S
H228 C234 0.950 . S
H229 C235 0.950 . S
H230 C236 0.949 . S
C231 H226 0.950 . S
C231 C233 1.327 . S
C231 C237 1.429 . S
C232 C224 1.574 . S
C232 H227 0.949 . S
C232 C238 1.368 . S
C233 C217 1.349 . S
C233 H225 0.950 . S
C233 C231 1.327 . S
C234 C222 1.349 . S
C234 H228 0.950 . S
C234 C235 1.327 . S
C235 H229 0.950 . S
C235 C234 1.327 . S
C235 C239 1.429 1_655 S
C236 C219 1.574 . S
C236 H230 0.949 . S
C236 C240 1.368 . S
C237 C218 1.429 . S
C237 C231 1.429 . S
C237 C238 1.523 . S
C238 C219 1.368 . S
C238 C232 1.368 . S
C238 C237 1.523 . S
C239 C223 1.429 . S
C239 C235 1.429 1_455 S
C239 C240 1.523 . S
C240 C224 1.368 . S
C240 C236 1.368 . S
C240 C239 1.523 . S
H241 C216 0.950 . S
H242 C218 0.950 . S
H243 C219 0.949 . S
H244 C221 0.950 . S
H245 C223 0.950 . S
C246 C247 1.349 1_565 S
C246 C248 1.327 . S
C246 H271 0.950 . S
C247 C246 1.349 1_545 S
C247 C263 1.349 . S
C248 C246 1.327 . S
C248 C267 1.429 1_565 S
C248 H272 0.950 . S
C249 C266 1.574 . S
C249 C268 1.368 . S
C249 H273 0.949 . S
H250 C254 0.949 . S
C251 C252 1.349 1_545 S
C251 C253 1.327 . S
C251 H274 0.950 . S
C252 C251 1.349 1_565 S
C252 C264 1.349 . S
C253 C251 1.327 . S
C253 C269 1.416 1_545 S
C253 H275 0.950 . S
C254 H250 0.949 . S
C254 C262 1.574 . S
C254 C270 1.368 1_565 S
H255 C263 0.950 . S
H256 C261 0.950 . S
H257 C262 0.949 . S
H258 C264 0.950 . S
H259 C265 0.950 . S
H260 C266 0.949 . S
C261 H256 0.950 . S
C261 C263 1.327 . S
C261 C267 1.429 . S
C262 C254 1.574 . S
C262 H257 0.949 . S
C262 C268 1.368 1_565 S
C263 C247 1.349 . S
C263 H255 0.950 . S
C263 C261 1.327 . S
C264 C252 1.349 . S
C264 H258 0.950 . S
C264 C265 1.327 . S
C265 H259 0.950 . S
C265 C264 1.327 . S
C265 C269 1.439 . S
C266 C249 1.574 . S
C266 H260 0.949 . S
C266 C270 1.368 . S
C267 C248 1.429 1_545 S
C267 C261 1.429 . S
C267 C268 1.523 . S
C268 C249 1.368 . S
C268 C262 1.368 1_545 S
C268 C267 1.523 . S
C269 C253 1.416 1_565 S
C269 C265 1.439 . S
C269 C270 1.526 1_565 S
C270 C254 1.368 1_545 S
C270 C266 1.368 . S
C270 C269 1.526 1_545 S
H271 C246 0.950 . S
H272 C248 0.950 . S
H273 C249 0.949 . S
H274 C251 0.950 . S
H275 C253 0.950 . S
C276 C277 1.349 . S
C276 C278 1.327 . S
C276 H301 0.950 1_455 S
C277 C276 1.349 . S
C277 C293 1.349 . S
C278 C276 1.327 . S
C278 C297 1.429 . S
C278 H302 0.950 1_455 S
C279 C296 1.574 . S
C279 C298 1.368 . S
C279 H303 0.949 . S
H280 C284 0.949 . S
C281 C282 1.349 . S
C281 C283 1.327 . S
C281 H304 0.950 . S
C282 C281 1.349 . S
C282 C294 1.349 1_455 S
C283 C281 1.327 . S
C283 C299 1.429 . S
C283 H305 0.950 . S
C284 H280 0.949 . S
C284 C292 1.574 . S
C284 C300 1.368 1_655 S
H285 C293 0.950 . S
H286 C291 0.950 . S
H287 C292 0.949 . S
H288 C294 0.950 . S
H289 C295 0.950 . S
H290 C296 0.949 . S
C291 H286 0.950 . S
C291 C293 1.327 . S
C291 C297 1.429 . S
C292 C284 1.574 . S
C292 H287 0.949 . S
C292 C298 1.368 1_655 S
C293 C277 1.349 . S
C293 H285 0.950 . S
C293 C291 1.327 . S
C294 C282 1.349 1_655 S
C294 H288 0.950 . S
C294 C295 1.327 . S
C295 H289 0.950 . S
C295 C294 1.327 . S
C295 C299 1.429 1_655 S
C296 C279 1.574 . S
C296 H290 0.949 . S
C296 C300 1.368 . S
C297 C278 1.429 . S
C297 C291 1.429 . S
C297 C298 1.523 . S
C298 C279 1.368 . S
C298 C292 1.368 1_455 S
C298 C297 1.523 . S
C299 C283 1.429 . S
C299 C295 1.429 1_455 S
C299 C300 1.523 . S
C300 C284 1.368 1_455 S
C300 C296 1.368 . S
C300 C299 1.523 . S
H301 C276 0.950 1_655 S
H302 C278 0.950 1_655 S
H303 C279 0.949 . S
H304 C281 0.950 . S
H305 C283 0.950 . S
C306 C307 1.349 . S
C306 C308 1.327 . S
C306 H331 0.950 . S
C307 C306 1.349 . S
C307 C323 1.349 1_545 S
C308 C306 1.327 . S
C308 C327 1.429 . S
C308 H332 0.950 . S
C309 C326 1.574 . S
C309 C328 1.368 1_565 S
C309 H333 0.949 . S
H310 C314 0.949 . S
C311 C312 1.349 1_565 S
C311 C313 1.327 . S
C311 H334 0.950 . S
C312 C311 1.349 1_545 S
C312 C324 1.349 . S
C313 C311 1.327 . S
C313 C329 1.429 1_565 S
C313 H335 0.950 . S
C314 H310 0.949 . S
C314 C322 1.574 . S
C314 C330 1.368 . S
H315 C323 0.950 . S
H316 C321 0.950 . S
H317 C322 0.949 . S
H318 C324 0.950 . S
H319 C325 0.950 . S
H320 C326 0.949 . S
C321 H316 0.950 . S
C321 C323 1.327 . S
C321 C327 1.429 1_565 S
C322 C314 1.574 . S
C322 H317 0.949 . S
C322 C328 1.368 . S
C323 C307 1.349 1_565 S
C323 H315 0.950 . S
C323 C321 1.327 . S
C324 C312 1.349 . S
C324 H318 0.950 . S
C324 C325 1.327 . S
C325 H319 0.950 . S
C325 C324 1.327 . S
C325 C329 1.429 . S
C326 C309 1.574 . S
C326 H320 0.949 . S
C326 C330 1.368 1_565 S
C327 C308 1.429 . S
C327 C321 1.429 1_545 S
C327 C328 1.523 . S
C328 C309 1.368 1_545 S
C328 C322 1.368 . S
C328 C327 1.523 . S
C329 C313 1.429 1_545 S
C329 C325 1.429 . S
C329 C330 1.523 . S
C330 C314 1.368 . S
C330 C326 1.368 1_545 S
C330 C329 1.523 . S
H331 C306 0.950 . S
H332 C308 0.950 . S
H333 C309 0.949 . S
H334 C311 0.950 . S
H335 C313 0.950 . S
C336 C337 1.349 1_554 S
C336 C338 1.327 . S
C336 H361 0.950 . S
C337 C336 1.349 1_556 S
C337 C353 1.349 . S
C338 C336 1.327 . S
C338 C357 1.429 1_554 S
C338 H362 0.950 . S
C339 C356 1.574 . S
C339 C358 1.368 . S
C339 H363 0.949 . S
H340 C344 0.949 . S
C341 C342 1.349 1_556 S
C341 C343 1.327 . S
C341 H364 0.950 . S
C342 C341 1.349 1_554 S
C342 C354 1.349 . S
C343 C341 1.327 . S
C343 C359 1.429 1_556 S
C343 H365 0.950 . S
C344 H340 0.949 . S
C344 C352 1.574 . S
C344 C360 1.368 . S
H345 C353 0.950 . S
H346 C351 0.950 . S
H347 C352 0.949 . S
H348 C354 0.950 . S
H349 C355 0.950 . S
H350 C356 0.949 . S
C351 H346 0.950 . S
C351 C353 1.327 . S
C351 C357 1.429 . S
C352 C344 1.574 . S
C352 H347 0.949 . S
C352 C358 1.368 1_554 S
C353 C337 1.349 . S
C353 H345 0.950 . S
C353 C351 1.327 . S
C354 C342 1.349 . S
C354 H348 0.950 . S
C354 C355 1.327 . S
C355 H349 0.950 . S
C355 C354 1.327 . S
C355 C359 1.429 . S
C356 C339 1.574 . S
C356 H350 0.949 . S
C356 C360 1.368 1_556 S
C357 C338 1.429 1_556 S
C357 C351 1.429 . S
C357 C358 1.523 . S
C358 C339 1.368 . S
C358 C352 1.368 1_556 S
C358 C357 1.523 . S
C359 C343 1.429 1_554 S
C359 C355 1.429 . S
C359 C360 1.523 . S
C360 C344 1.368 . S
C360 C356 1.368 1_554 S
C360 C359 1.523 . S
H361 C336 0.950 . S
H362 C338 0.950 . S
H363 C339 0.949 . S
H364 C341 0.950 . S
H365 C343 0.950 . S
C366 C367 1.349 . S
C366 C368 1.327 . S
C366 H391 0.950 . S
C367 C366 1.349 . S
C367 C383 1.349 1_556 S
C368 C366 1.327 . S
C368 C387 1.430 . S
C368 H392 0.950 . S
C369 C386 1.574 . S
C369 C388 1.368 . S
C369 H393 0.949 . S
H370 C374 0.949 . S
C371 C372 1.349 . S
C371 C373 1.327 . S
C371 H394 0.950 . S
C372 C371 1.349 . S
C372 C384 1.349 . S
C373 C371 1.327 . S
C373 C389 1.429 . S
C373 H395 0.950 . S
C374 H370 0.949 . S
C374 C382 1.574 . S
C374 C390 1.368 1_556 S
H375 C383 0.950 . S
H376 C381 0.950 . S
H377 C382 0.949 . S
H378 C384 0.950 1_556 S
H379 C385 0.962 . S
H380 C386 0.949 . S
C381 H376 0.950 . S
C381 C383 1.327 . S
C381 C387 1.427 1_554 S
C382 C374 1.574 . S
C382 H377 0.949 . S
C382 C388 1.368 1_556 S
C383 C367 1.349 1_554 S
C383 H375 0.950 . S
C383 C381 1.327 . S
C384 C372 1.349 . S
C384 H378 0.950 1_554 S
C384 C385 1.326 1_554 S
C385 H379 0.962 . S
C385 C384 1.326 1_556 S
C385 C389 1.418 1_556 S
C386 C369 1.574 . S
C386 H380 0.949 . S
C386 C390 1.368 . S
C387 C368 1.430 . S
C387 C381 1.427 1_556 S
C387 C388 1.523 1_556 S
C388 C369 1.368 . S
C388 C382 1.368 1_554 S
C388 C387 1.523 1_554 S
C389 C373 1.429 . S
C389 C385 1.418 1_554 S
C389 C390 1.523 . S
C390 C374 1.368 1_554 S
C390 C386 1.368 . S
C390 C389 1.523 . S
H391 C366 0.950 . S
H392 C368 0.950 . S
H393 C369 0.949 . S
H394 C371 0.950 . S
H395 C373 0.950 . S
C396 C397 1.349 . S
C396 C398 1.327 . S
C396 H421 0.950 . S
C397 C396 1.349 . S
C397 C413 1.349 . S
C398 C396 1.327 . S
C398 C417 1.429 . S
C398 H422 0.950 1_556 S
C399 C416 1.574 . S
C399 C418 1.368 . S
C399 H423 0.949 . S
H400 C404 0.949 . S
C401 C402 1.349 1_556 S
C401 C403 1.327 . S
C401 H424 0.950 . S
C402 C401 1.349 1_554 S
C402 C414 1.349 . S
C403 C401 1.327 . S
C403 C419 1.425 1_556 S
C403 H425 0.950 . S
C404 H400 0.949 . S
C404 C412 1.574 . S
C404 C420 1.368 1_554 S
H405 C413 0.950 . S
H406 C411 0.950 . S
H407 C412 0.949 . S
H408 C414 0.950 . S
H409 C415 0.950 . S
H410 C416 0.949 . S
C411 H406 0.950 . S
C411 C413 1.327 . S
C411 C417 1.429 . S
C412 C404 1.574 . S
C412 H407 0.949 . S
C412 C418 1.368 1_554 S
C413 C397 1.349 . S
C413 H405 0.950 . S
C413 C411 1.327 . S
C414 C402 1.349 . S
C414 H408 0.950 . S
C414 C415 1.327 . S
C415 H409 0.950 . S
C415 C414 1.327 . S
C415 C419 1.433 . S
C416 C399 1.574 . S
C416 H410 0.949 . S
C416 C420 1.368 . S
C417 C398 1.429 . S
C417 C411 1.429 . S
C417 C418 1.523 . S
C418 C399 1.368 . S
C418 C412 1.368 1_556 S
C418 C417 1.523 . S
C419 C403 1.425 1_554 S
C419 C415 1.433 . S
C419 C420 1.522 1_554 S
C420 C404 1.368 1_556 S
C420 C416 1.368 . S
C420 C419 1.522 1_556 S
H421 C396 0.950 . S
H422 C398 0.950 1_554 S
H423 C399 0.949 . S
H424 C401 0.950 . S
H425 C403 0.950 . S
C426 C427 1.349 1_556 S
C426 C428 1.327 . S
C426 H451 0.950 . S
C427 C426 1.349 1_554 S
C427 C443 1.349 . S
C428 C426 1.327 . S
C428 C447 1.429 1_556 S
C428 H452 0.950 . S
C429 C446 1.574 . S
C429 C448 1.368 . S
C429 H453 0.949 . S
H430 C434 0.949 . S
C431 C432 1.349 1_554 S
C431 C433 1.327 . S
C431 H454 0.950 . S
C432 C431 1.349 1_556 S
C432 C444 1.349 . S
C433 C431 1.327 . S
C433 C449 1.429 1_554 S
C433 H455 0.950 . S
C434 H430 0.949 . S
C434 C442 1.574 . S
C434 C450 1.368 . S
H435 C443 0.950 . S
H436 C441 0.950 . S
H437 C442 0.949 . S
H438 C444 0.950 . S
H439 C445 0.950 . S
H440 C446 0.949 . S
C441 H436 0.950 . S
C441 C443 1.327 . S
C441 C447 1.429 . S
C442 C434 1.574 . S
C442 H437 0.949 . S
C442 C448 1.368 1_556 S
C443 C427 1.349 . S
C443 H435 0.950 . S
C443 C441 1.327 . S
C444 C432 1.349 . S
C444 H438 0.950 . S
C444 C445 1.327 . S
C445 H439 0.950 . S
C445 C444 1.327 . S
C445 C449 1.429 . S
C446 C429 1.574 . S
C446 H440 0.949 . S
C446 C450 1.368 1_554 S
C447 C428 1.429 1_554 S
C447 C441 1.429 . S
C447 C448 1.523 . S
C448 C429 1.368 . S
C448 C442 1.368 1_554 S
C448 C447 1.523 . S
C449 C433 1.429 1_556 S
C449 C445 1.429 . S
C449 C450 1.523 . S
C450 C434 1.368 . S
C450 C446 1.368 1_556 S
C450 C449 1.523 . S
H451 C426 0.950 . S
H452 C428 0.950 . S
H453 C429 0.949 . S
H454 C431 0.950 . S
H455 C433 0.950 . S
C97 C84 2.129 . S
C102 C17 2.066 . S
C127 C22 0.860 1_545 S
C132 C51 0.847 . S
C157 C16 1.513 . S
C162 C81 1.474 . S
C187 C50 1.487 . S
C192 C19 1.442 . S
C217 C21 2.071 . S
C222 C80 2.134 . S
C247 C55 0.849 . S
C252 C18 0.858 1_565 S
C277 C85 1.475 . S
C282 C20 1.512 . S
C307 C54 1.487 . S
C312 C23 1.450 . S
C337 C82 2.091 . S
C342 C52 2.081 . S
C367 C83 0.823 . S
C372 C53 0.820 . S
C397 C49 0.819 . S
C402 C87 0.825 . S
C427 C86 2.091 . S
C432 C48 2.091 . S
