# Generated by pormake.
# Topology wns, (7)-cn, num edge types: 1
# Building blocks:
#     Node 0, Type 0, BuildingBlock: NUHQUE_clean_sbu_2, # of connection points: 7
#     Node 1, Type 0, BuildingBlock: NUHQUE_clean_sbu_2, # of connection points: 7
#     Node 2, Type 0, BuildingBlock: NUHQUE_clean_sbu_2, # of connection points: 7
#     Node 3, Type 0, BuildingBlock: NUHQUE_clean_sbu_2, # of connection points: 7
#     Node 4, Type 0, BuildingBlock: NUHQUE_clean_sbu_2, # of connection points: 7
#     Node 5, Type 0, BuildingBlock: NUHQUE_clean_sbu_2, # of connection points: 7
#     Node 6, Type 0, BuildingBlock: NUHQUE_clean_sbu_2, # of connection points: 7
#     Node 7, Type 0, BuildingBlock: NUHQUE_clean_sbu_2, # of connection points: 7
#     Node 8, Type 0, BuildingBlock: NUHQUE_clean_sbu_2, # of connection points: 7
#     Node 9, Type 0, BuildingBlock: NUHQUE_clean_sbu_2, # of connection points: 7
#     Node 10, Type 0, BuildingBlock: NUHQUE_clean_sbu_2, # of connection points: 7
#     Node 11, Type 0, BuildingBlock: NUHQUE_clean_sbu_2, # of connection points: 7
#     Edge 12, Type (0, 0), BuildingBlock: OJICUG_clean_linker_0, # of connection points: 2
#     Edge 13, Type (0, 0), BuildingBlock: OJICUG_clean_linker_0, # of connection points: 2
#     Edge 14, Type (0, 0), BuildingBlock: OJICUG_clean_linker_0, # of connection points: 2
#     Edge 15, Type (0, 0), BuildingBlock: OJICUG_clean_linker_0, # of connection points: 2
#     Edge 16, Type (0, 0), BuildingBlock: OJICUG_clean_linker_0, # of connection points: 2
#     Edge 17, Type (0, 0), BuildingBlock: OJICUG_clean_linker_0, # of connection points: 2
#     Edge 18, Type (0, 0), BuildingBlock: OJICUG_clean_linker_0, # of connection points: 2
#     Edge 19, Type (0, 0), BuildingBlock: OJICUG_clean_linker_0, # of connection points: 2
#     Edge 20, Type (0, 0), BuildingBlock: OJICUG_clean_linker_0, # of connection points: 2
#     Edge 21, Type (0, 0), BuildingBlock: OJICUG_clean_linker_0, # of connection points: 2
#     Edge 22, Type (0, 0), BuildingBlock: OJICUG_clean_linker_0, # of connection points: 2
#     Edge 23, Type (0, 0), BuildingBlock: OJICUG_clean_linker_0, # of connection points: 2
#     Edge 24, Type (0, 0), BuildingBlock: OJICUG_clean_linker_0, # of connection points: 2
#     Edge 25, Type (0, 0), BuildingBlock: OJICUG_clean_linker_0, # of connection points: 2
#     Edge 26, Type (0, 0), BuildingBlock: OJICUG_clean_linker_0, # of connection points: 2
#     Edge 27, Type (0, 0), BuildingBlock: OJICUG_clean_linker_0, # of connection points: 2
#     Edge 28, Type (0, 0), BuildingBlock: OJICUG_clean_linker_0, # of connection points: 2
#     Edge 29, Type (0, 0), BuildingBlock: OJICUG_clean_linker_0, # of connection points: 2
#     Edge 30, Type (0, 0), BuildingBlock: OJICUG_clean_linker_0, # of connection points: 2
#     Edge 31, Type (0, 0), BuildingBlock: OJICUG_clean_linker_0, # of connection points: 2
#     Edge 32, Type (0, 0), BuildingBlock: OJICUG_clean_linker_0, # of connection points: 2
#     Edge 33, Type (0, 0), BuildingBlock: OJICUG_clean_linker_0, # of connection points: 2
#     Edge 34, Type (0, 0), BuildingBlock: OJICUG_clean_linker_0, # of connection points: 2
#     Edge 35, Type (0, 0), BuildingBlock: OJICUG_clean_linker_0, # of connection points: 2
#     Edge 36, Type (0, 0), BuildingBlock: OJICUG_clean_linker_0, # of connection points: 2
#     Edge 37, Type (0, 0), BuildingBlock: OJICUG_clean_linker_0, # of connection points: 2
#     Edge 38, Type (0, 0), BuildingBlock: OJICUG_clean_linker_0, # of connection points: 2
#     Edge 39, Type (0, 0), BuildingBlock: OJICUG_clean_linker_0, # of connection points: 2
#     Edge 40, Type (0, 0), BuildingBlock: OJICUG_clean_linker_0, # of connection points: 2
#     Edge 41, Type (0, 0), BuildingBlock: OJICUG_clean_linker_0, # of connection points: 2
#     Edge 42, Type (0, 0), BuildingBlock: OJICUG_clean_linker_0, # of connection points: 2
#     Edge 43, Type (0, 0), BuildingBlock: OJICUG_clean_linker_0, # of connection points: 2
#     Edge 44, Type (0, 0), BuildingBlock: OJICUG_clean_linker_0, # of connection points: 2
#     Edge 45, Type (0, 0), BuildingBlock: OJICUG_clean_linker_0, # of connection points: 2
#     Edge 46, Type (0, 0), BuildingBlock: OJICUG_clean_linker_0, # of connection points: 2
#     Edge 47, Type (0, 0), BuildingBlock: OJICUG_clean_linker_0, # of connection points: 2
#     Edge 48, Type (0, 0), BuildingBlock: OJICUG_clean_linker_0, # of connection points: 2
#     Edge 49, Type (0, 0), BuildingBlock: OJICUG_clean_linker_0, # of connection points: 2
#     Edge 50, Type (0, 0), BuildingBlock: OJICUG_clean_linker_0, # of connection points: 2
#     Edge 51, Type (0, 0), BuildingBlock: OJICUG_clean_linker_0, # of connection points: 2
#     Edge 52, Type (0, 0), BuildingBlock: OJICUG_clean_linker_0, # of connection points: 2
#     Edge 53, Type (0, 0), BuildingBlock: OJICUG_clean_linker_0, # of connection points: 2
# Relax obj value: 0.194
# Max RMSD: 0.263
# Mean RMSD: 0.263
data_MOF--net-wns--node1-NUHQUE_clean_sbu_2--edge1-OJICUG_clean_linker_0
_symmetry_space_group_name_H-M    P1
_symmetry_Int_Tables_number       1
_symmetry_cell_setting            triclinic
loop_
_symmetry_equiv_pos_as_xyz
'x, y, z'
_cell_length_a     37.606989
_cell_length_b     37.304151
_cell_length_c     28.274184
_cell_angle_alpha  89.676876
_cell_angle_beta   89.95832
_cell_angle_gamma 120.43802
loop_
_atom_site_label
_atom_site_type_symbol
_atom_site_fract_x
_atom_site_fract_y
_atom_site_fract_z
_atom_type_partial_charge
O0 O 0.49353 0.22345 0.92817 0.0
Tb1 Tb 0.51062 0.23343 1.00291 0.0
Eu2 Eu 0.44145 0.27686 0.07095 0.0
C3 C 0.52128 0.24783 0.89665 0.0
O4 O 0.55796 0.2759 0.91182 0.0
C5 C 0.42145 0.18561 0.03492 0.0
O6 O 0.43811 0.26692 0.15026 0.0
C7 C 0.4003 0.31465 0.05192 0.0
C8 C 0.45576 0.24877 0.1722 0.0
O9 O 0.47554 0.23468 0.14728 0.0
C10 C 0.53591 0.32144 0.03497 0.0
C11 C 0.38971 0.34433 0.07339 0.0
C12 C 0.37209 0.36296 0.0456 0.0
C13 C 0.358 0.38775 0.06679 0.0
C14 C 0.361 0.39273 0.11619 0.0
C15 C 0.37793 0.3741 0.1445 0.0
C16 C 0.39286 0.35048 0.1226 0.0
O17 O 0.45825 0.19347 0.04751 0.0
O18 O 0.41365 0.21619 0.02936 0.0
O19 O 0.54844 0.20612 0.98537 0.0
O20 O 0.56609 0.24724 0.04367 0.0
C21 C 0.57534 0.22356 0.01902 0.0
O22 O 0.5112 0.32069 0.0686 0.0
O23 O 0.52065 0.29581 0.99936 0.0
O24 O 0.38457 0.27844 0.07329 0.0
O25 O 0.43846 0.32878 0.03778 0.0
H26 H 0.3689 0.35771 1.00779 0.0
H27 H 0.34795 0.40951 0.13306 0.0
H28 H 0.4059 0.33577 0.14394 0.0
O29 O 0.81913 0.25779 0.93872 0.0
Tb30 Tb 0.79456 0.26144 1.00708 0.0
Eu31 Eu 0.77578 0.17332 0.09264 0.0
C32 C 0.7937 0.23725 0.90399 0.0
O33 O 0.75379 0.2178 0.91206 0.0
C34 C 0.8611 0.25279 0.0564 0.0
O35 O 0.77653 0.17143 0.17245 0.0
C36 C 0.74775 0.09725 0.06535 0.0
C37 C 0.77686 0.20091 0.19801 0.0
O38 O 0.77934 0.23343 0.1765 0.0
C39 C 0.71333 0.19681 0.04601 0.0
C40 C 0.72149 0.05517 0.08457 0.0
C41 C 0.7062 0.02091 0.05436 0.0
C42 C 0.68544 0.9803 0.07294 0.0
C43 C 0.68007 0.97442 0.12217 0.0
C44 C 0.6951 1.00851 0.15282 0.0
C45 C 0.71545 0.04888 0.13359 0.0
O46 O 0.84242 0.27413 0.05775 0.0
O47 O 0.83942 0.21206 0.05924 0.0
O48 O 0.7996 0.31762 0.97698 0.0
O49 O 0.77401 0.29808 0.04591 0.0
C50 C 0.78463 0.32659 0.01353 0.0
O51 O 0.72734 0.19305 0.08729 0.0
O52 O 0.73636 0.20372 0.00862 0.0
O53 O 0.78266 0.11941 0.08773 0.0
O54 O 0.73003 0.11863 0.0537 0.0
H55 H 0.71138 0.02588 0.01656 0.0
H56 H 0.66422 0.94314 0.13669 0.0
H57 H 0.72739 0.07556 0.15675 0.0
O58 O 0.77724 0.52488 0.89963 0.0
Tb59 Tb 0.77532 0.52123 0.97651 0.0
Eu60 Eu 0.81276 0.5657 0.09768 0.0
C61 C 0.8061 0.55751 0.87672 0.0
O62 O 0.83558 0.58817 0.90081 0.0
C63 C 0.76994 0.59204 0.02154 0.0
O64 O 0.80734 0.56305 0.17748 0.0
C65 C 0.88606 0.62433 0.07164 0.0
C66 C 0.82796 0.55094 0.20437 0.0
O67 O 0.85242 0.53984 0.18432 0.0
C68 C 0.81296 0.49081 0.04609 0.0
C69 C 0.92898 0.64376 0.08771 0.0
C70 C 0.96137 0.66651 0.05555 0.0
C71 C 1.00222 0.68865 0.0716 0.0
C72 C 1.01046 0.68709 0.11979 0.0
C73 C 0.97842 0.66423 0.15218 0.0
C74 C 0.93766 0.6422 0.13567 0.0
O75 O 0.79082 0.58434 0.99021 0.0
O76 O 0.76413 0.57628 0.06452 0.0
O77 O 0.72735 0.45576 0.97433 0.0
O78 O 0.7174 0.49657 0.01692 0.0
C79 C 0.70166 0.45825 1.00301 0.0
O80 O 0.80086 0.50059 0.08522 0.0
O81 O 0.82365 0.51576 0.00946 0.0
O82 O 0.86114 0.63061 0.09824 0.0
O83 O 0.86914 0.58606 0.05654 0.0
H84 H 0.9547 0.6684 0.01861 0.0
H85 H 0.04195 0.70504 0.1323 0.0
H86 H 0.9125 0.62458 0.16027 0.0
O87 O 0.25191 0.51903 0.59836 0.0
Tb88 Tb 0.2544 0.52893 0.52217 0.0
Eu89 Eu 0.27404 0.45631 0.43895 0.0
C90 C 0.21765 0.49971 0.62338 0.0
O91 O 0.18188 0.48437 0.60205 0.0
C92 C 0.1912 0.43937 0.49589 0.0
O93 O 0.25499 0.46346 0.36553 0.0
C94 C 0.3017 0.40503 0.4375 0.0
C95 C 0.25412 0.49694 0.35259 0.0
O96 O 0.26167 0.52562 0.38417 0.0
C97 C 0.33481 0.54401 0.48021 0.0
C98 C 0.33055 0.39331 0.4171 0.0
C99 C 0.34434 0.37218 0.4463 0.0
C100 C 0.36589 0.3541 0.42701 0.0
C101 C 0.37496 0.35865 0.37845 0.0
C102 C 0.36134 0.37938 0.34851 0.0
C103 C 0.33944 0.39716 0.36826 0.0
O104 O 0.19952 0.47787 0.49169 0.0
O105 O 0.22012 0.42946 0.49119 0.0
O106 O 0.25015 0.58278 0.54289 0.0
O107 O 0.26611 0.57876 0.47169 0.0
C108 C 0.25897 0.60087 0.50162 0.0
O109 O 0.32697 0.52295 0.44091 0.0
O110 O 0.31018 0.52636 0.51621 0.0
O111 O 0.27166 0.40136 0.41041 0.0
O112 O 0.31615 0.43683 0.46643 0.0
H113 H 0.33601 0.36753 0.48349 0.0
H114 H 0.39195 0.34495 0.36369 0.0
H115 H 0.32745 0.41196 0.3454 0.0
O116 O 0.54404 0.78871 0.60362 0.0
Tb117 Tb 0.54421 0.78005 0.52768 0.0
Eu118 Eu 0.58436 0.81381 0.41543 0.0
C119 C 0.57578 0.79695 0.63046 0.0
O120 O 0.61026 0.80371 0.61068 0.0
C121 C 0.60443 0.75887 0.48287 0.0
O122 O 0.57889 0.81378 0.33617 0.0
C123 C 0.64595 0.88627 0.43877 0.0
C124 C 0.54712 0.78349 0.31426 0.0
O125 O 0.51885 0.75203 0.3391 0.0
C126 C 0.51301 0.82252 0.4636 0.0
C127 C 0.66366 0.92957 0.42141 0.0
C128 C 0.6816 0.96311 0.45311 0.0
C129 C 0.70081 1.00427 0.43601 0.0
C130 C 0.70161 1.01172 0.38731 0.0
C131 C 0.68349 0.97866 0.35523 0.0
C132 C 0.66433 0.93765 0.37266 0.0
O133 O 0.6015 0.78075 0.51715 0.0
O134 O 0.58989 0.75916 0.44071 0.0
O135 O 0.48987 0.72247 0.55035 0.0
O136 O 0.50537 0.7308 0.47735 0.0
C137 C 0.47916 0.7057 0.50884 0.0
O138 O 0.52164 0.80734 0.42629 0.0
O139 O 0.53403 0.82885 0.50269 0.0
O140 O 0.64922 0.86059 0.40992 0.0
O141 O 0.60987 0.86934 0.45992 0.0
H142 H 0.68126 0.95728 0.49077 0.0
H143 H 0.71593 0.04354 0.37454 0.0
H144 H 0.65093 0.91192 0.3481 0.0
O145 O 0.27751 0.81157 0.58313 0.0
Tb146 Tb 0.2876 0.81307 0.50732 0.0
Eu147 Eu 0.18247 0.77975 0.42524 0.0
C148 C 0.28027 0.8426 0.60785 0.0
O149 O 0.29088 0.87811 0.58682 0.0
C150 C 0.25419 0.86652 0.47042 0.0
O151 O 0.19951 0.79404 0.34834 0.0
C152 C 0.10309 0.74537 0.4359 0.0
C153 C 0.23486 0.7999 0.3321 0.0
O154 O 0.26122 0.79883 0.36173 0.0
C155 C 0.22303 0.73146 0.46592 0.0
C156 C 0.06264 0.7126 0.41818 0.0
C157 C 0.02951 0.69215 0.45022 0.0
C158 C 0.9894 0.66571 0.43355 0.0
C159 C 0.98263 0.65901 0.38496 0.0
C160 C 0.01514 0.6791 0.35245 0.0
C161 C 0.05532 0.70549 0.36931 0.0
O162 O 0.28126 0.8555 0.46041 0.0
O163 O 0.21427 0.83921 0.46885 0.0
O164 O 0.3538 0.84213 0.51646 0.0
O165 O 0.32252 0.7877 0.47371 0.0
C166 C 0.35825 0.81616 0.49007 0.0
O167 O 0.20261 0.73176 0.42859 0.0
O168 O 0.2286 0.75758 0.49946 0.0
O169 O 0.12519 0.77688 0.40725 0.0
O170 O 0.12533 0.73413 0.46097 0.0
H171 H 0.03458 0.69833 0.48778 0.0
H172 H 0.95154 0.63836 0.37243 0.0
H173 H 0.08044 0.72213 0.34437 0.0
O174 O 0.49708 0.76532 0.08903 0.0
Tb175 Tb 0.49096 0.77473 0.01424 0.0
Eu176 Eu 0.57553 0.74564 0.93186 0.0
C177 C 0.52694 0.79596 0.11288 0.0
O178 O 0.55174 0.8309 0.09054 0.0
C179 C 0.58288 0.82748 0.98136 0.0
O180 O 0.58305 0.76862 0.85675 0.0
C181 C 0.62588 0.71852 0.94611 0.0
C182 C 0.55303 0.76766 0.83206 0.0
O183 O 0.51677 0.75395 0.85195 0.0
C184 C 0.48706 0.70099 0.95561 0.0
C185 C 0.63967 0.69222 0.92394 0.0
C186 C 0.66082 0.6782 0.95203 0.0
C187 C 0.67741 0.65578 0.93185 0.0
C188 C 0.67164 0.6462 0.88359 0.0
C189 C 0.6501 0.65949 0.85483 0.0
C190 C 0.63414 0.68284 0.87535 0.0
O191 O 0.54753 0.82659 0.98669 0.0
O192 O 0.58495 0.79348 0.98867 0.0
O193 O 0.42951 0.75467 0.98628 0.0
O194 O 0.46815 0.81738 0.00987 0.0
C195 C 0.4327 0.79101 0.9915 0.0
O196 O 0.50983 0.69129 0.93034 0.0
O197 O 0.50703 0.73939 0.96969 0.0
O198 O 0.63674 0.75403 0.92493 0.0
O199 O 0.58805 0.69963 0.96278 0.0
H200 H 0.66585 0.68622 0.98922 0.0
H201 H 0.68527 0.62939 0.86813 0.0
H202 H 0.61789 0.69398 0.85373 0.0
O203 O 0.23243 0.80367 0.10156 0.0
Tb204 Tb 0.23169 0.79198 0.02641 0.0
Eu205 Eu 0.23312 0.83717 0.91319 0.0
C206 C 0.26104 0.80568 0.12993 0.0
O207 O 0.29167 0.80257 0.1122 0.0
C208 C 0.1565 0.78716 0.97952 0.0
O209 O 0.24018 0.84435 0.83399 0.0
C210 C 0.25524 0.911 0.94542 0.0
C211 C 0.24351 0.81688 0.80849 0.0
O212 O 0.24057 0.784 0.82961 0.0
C213 C 0.30445 0.82817 0.96137 0.0
C214 C 0.28196 0.95401 0.92765 0.0
C215 C 0.29967 0.9879 0.95902 0.0
C216 C 0.32287 0.02887 0.94132 0.0
C217 C 0.32878 0.0355 0.89241 0.0
C218 C 0.3123 1.00214 0.86082 0.0
C219 C 0.28885 0.96141 0.87871 0.0
O220 O 0.1832 0.80563 0.0134 0.0
O221 O 0.16929 0.78642 0.93647 0.0
O222 O 0.22303 0.73278 0.05264 0.0
O223 O 0.21519 0.73874 0.97936 0.0
C224 C 0.21482 0.71382 0.0122 0.0
O225 O 0.2801 0.81693 0.92426 0.0
O226 O 0.29266 0.83617 1.00157 0.0
O227 O 0.22136 0.88817 0.92125 0.0
O228 O 0.27363 0.89044 0.95756 0.0
H229 H 0.29476 0.98252 0.9968 0.0
H230 H 0.34639 0.06707 0.87888 0.0
H231 H 0.27592 0.93537 0.85457 0.0
O232 O 0.24654 0.50467 0.12206 0.0
Tb233 Tb 0.24943 0.51706 0.04656 0.0
Eu234 Eu 0.20344 0.47866 0.93457 0.0
C235 C 0.24462 0.52932 0.15372 0.0
O236 O 0.24417 0.5627 0.13958 0.0
C237 C 0.25781 0.45145 0.99364 0.0
O238 O 0.19671 0.47627 0.85506 0.0
C239 C 0.13306 0.4209 0.96984 0.0
C240 C 0.22965 0.49431 0.82783 0.0
O241 O 0.26617 0.51323 0.84783 0.0
C242 C 0.20797 0.55533 0.99152 0.0
C243 C 0.09183 0.39124 0.95102 0.0
C244 C 0.05814 0.36958 0.98202 0.0
C245 C 0.01926 0.33991 0.9644 0.0
C246 C 0.01421 0.33272 0.91559 0.0
C247 C 0.04727 0.35447 0.884 0.0
C248 C 0.08617 0.38374 0.90211 0.0
O249 O 0.2393 0.456 0.03042 0.0
O250 O 0.25641 0.46767 0.9526 0.0
O251 O 0.30911 0.57304 0.05988 0.0
O252 O 0.29646 0.54654 0.99125 0.0
C253 C 0.32368 0.57654 0.01723 0.0
O254 O 0.21849 0.54487 0.95149 0.0
O255 O 0.20359 0.53385 0.03028 0.0
O256 O 0.1629 0.41453 0.95714 0.0
O257 O 0.14417 0.46031 0.96831 0.0
H258 H 0.06226 0.37536 0.01971 0.0
H259 H 0.9838 0.31096 0.90209 0.0
H260 H 0.11223 0.40035 0.87835 0.0
O261 O 0.80588 0.50729 0.43182 0.0
Tb262 Tb 0.77875 0.48488 0.50174 0.0
Eu263 Eu 0.74882 0.5554 0.57533 0.0
C264 C 0.79605 0.53074 0.40651 0.0
O265 O 0.77233 0.54321 0.42563 0.0
C266 C 0.83588 0.57287 0.53389 0.0
O267 O 0.76054 0.54512 0.65114 0.0
C268 C 0.7208 0.60649 0.57174 0.0
C269 C 0.79304 0.57337 0.67416 0.0
O270 O 0.82003 0.60738 0.65174 0.0
C271 C 0.69187 0.4667 0.52747 0.0
C272 C 0.69049 0.61771 0.58896 0.0
C273 C 0.67418 0.6344 0.55656 0.0
C274 C 0.64952 0.65039 0.5723 0.0
C275 C 0.64149 0.64973 0.62084 0.0
C276 C 0.65834 0.63441 0.65387 0.0
C277 C 0.68221 0.61757 0.63764 0.0
O278 O 0.82523 0.53449 0.54428 0.0
O279 O 0.80769 0.58383 0.53165 0.0
O280 O 0.77997 0.42946 0.47957 0.0
O281 O 0.77184 0.43685 0.5524 0.0
C282 C 0.77532 0.41305 0.52145 0.0
O283 O 0.69755 0.48835 0.56623 0.0
O284 O 0.71972 0.48132 0.4938 0.0
O285 O 0.74914 0.61003 0.60157 0.0
O286 O 0.70846 0.57503 0.5426 0.0
H287 H 0.68164 0.63601 0.51927 0.0
H288 H 0.62338 0.66299 0.63329 0.0
H289 H 0.69614 0.60652 0.66299 0.0
O290 O 0.47088 0.22375 0.40174 0.0
Tb291 Tb 0.47996 0.23287 0.47794 0.0
Eu292 Eu 0.44547 0.20818 0.59617 0.0
C293 C 0.45933 0.24644 0.37758 0.0
O294 O 0.4525 0.27288 0.4006 0.0
C295 C 0.41727 0.2507 0.52158 0.0
O296 O 0.45393 0.21341 0.67578 0.0
C297 C 0.38341 0.13442 0.57815 0.0
C298 C 0.48959 0.24062 0.69437 0.0
O299 O 0.51968 0.26597 0.66594 0.0
C300 C 0.51638 0.19791 0.54574 0.0
C301 C 0.36326 0.09092 0.59533 0.0
C302 C 0.34513 0.05825 0.56263 0.0
C303 C 0.32207 0.01679 0.57841 0.0
C304 C 0.31788 1.00815 0.62702 0.0
C305 C 0.33608 0.04023 0.66022 0.0
C306 C 0.35899 0.08167 0.64409 0.0
O307 O 0.41995 0.22476 0.49277 0.0
O308 O 0.43505 0.2578 0.56333 0.0
O309 O 0.53631 0.28862 0.45473 0.0
O310 O 0.51396 0.28709 0.52405 0.0
C311 C 0.5431 0.30931 0.49374 0.0
O312 O 0.50836 0.21558 0.58126 0.0
O313 O 0.49444 0.18812 0.50681 0.0
O314 O 0.38121 0.1612 0.60614 0.0
O315 O 0.41926 0.14978 0.55675 0.0
H316 H 0.34803 0.06509 0.52503 0.0
H317 H 0.30102 0.97605 0.63898 0.0
H318 H 0.37242 0.10676 0.66945 0.0
O319 O 0.75504 0.21329 0.42613 0.0
Tb320 Tb 0.74292 0.21023 0.5018 0.0
Eu321 Eu 0.84924 0.23357 0.60285 0.0
C322 C 0.75006 0.1815 0.40101 0.0
O323 O 0.73711 0.1454 0.42185 0.0
C324 C 0.77471 0.15603 0.54376 0.0
O325 O 0.82803 0.22278 0.67888 0.0
C326 C 0.92792 0.26041 0.59798 0.0
C327 C 0.84993 0.25108 0.71069 0.0
O328 O 0.88346 0.28519 0.6971 0.0
C329 C 0.81206 0.28288 0.55788 0.0
C330 C 0.96894 0.29142 0.61661 0.0
C331 C 1.00218 0.31231 0.58489 0.0
C332 C 0.04227 0.33859 0.60178 0.0
C333 C 0.04892 0.34494 0.65052 0.0
C334 C 0.0161 0.32518 0.68276 0.0
C335 C 0.97617 0.29797 0.66556 0.0
O336 O 0.75145 0.1719 0.55343 0.0
O337 O 0.81339 0.17427 0.55867 0.0
O338 O 0.67622 0.17473 0.50749 0.0
O339 O 0.70844 0.23958 0.52551 0.0
C340 C 0.67226 0.20564 0.52226 0.0
O341 O 0.83579 0.28616 0.59342 0.0
O342 O 0.8033 0.25268 0.52857 0.0
O343 O 0.90251 0.23076 0.627 0.0
O344 O 0.9093 0.27357 0.56935 0.0
H345 H 0.99712 0.30708 0.54718 0.0
H346 H 0.07998 0.36522 0.66333 0.0
H347 H 0.95086 0.28187 0.69029 0.0
C348 C 0.37314 0.07113 1.00457 0.0
C349 C 0.34233 0.06571 0.9726 0.0
H350 H 0.42256 0.11348 0.04919 0.0
C351 C 0.33502 0.0987 0.9649 0.0
H352 H 0.37967 0.04634 0.01067 0.0
C353 C 0.35939 0.13708 0.9869 0.0
C354 C 0.39207 0.14351 0.01651 0.0
H355 H 0.3115 0.09529 0.94019 0.0
H356 H 0.35382 0.16224 0.97886 0.0
C357 C 0.39793 0.10973 0.02614 0.0
C358 C 0.92971 0.31761 0.04437 0.0
C359 C 0.90464 0.27417 0.04019 0.0
H360 H 0.98638 0.37248 0.02444 0.0
C361 C 0.92022 0.2522 0.01605 0.0
H362 H 0.91863 0.33539 0.06297 0.0
C363 C 0.95874 0.27352 0.99363 0.0
C364 C 0.98277 0.31711 0.99572 0.0
H365 H 0.90172 0.21878 0.0121 0.0
H366 H 0.96907 0.2561 0.97299 0.0
C367 C 0.96857 0.33886 0.02263 0.0
C368 C 0.76476 0.63937 0.96435 0.0
C369 C 0.74921 0.61411 1.00486 0.0
H370 H 0.75416 0.6727 0.90997 0.0
C371 C 0.71188 0.60669 0.02487 0.0
H372 H 0.79384 0.64616 0.94864 0.0
C373 C 0.68897 0.62192 1.00239 0.0
C374 C 0.70335 0.64454 0.95987 0.0
H375 H 0.69931 0.58726 0.05609 0.0
H376 H 0.65919 0.61421 0.01674 0.0
C377 C 0.74206 0.65444 0.9421 0.0
C378 C 0.14772 0.37782 0.54792 0.0
C379 C 0.15103 0.40919 0.51735 0.0
H380 H 0.11035 0.33098 0.59911 0.0
C381 C 0.11664 0.41415 0.5112 0.0
H382 H 0.17375 0.37344 0.55363 0.0
C383 C 0.08019 0.38935 0.53659 0.0
C384 C 0.07785 0.35977 0.56918 0.0
H385 H 0.11834 0.43805 0.48776 0.0
H386 H 0.05461 0.39473 0.53259 0.0
C387 C 0.11157 0.35364 0.57402 0.0
C388 C 0.66335 0.70412 0.50966 0.0
C389 C 0.63529 0.67206 0.53988 0.0
H390 H 0.6753 0.75725 0.46728 0.0
C391 C 0.59521 0.6655 0.54486 0.0
H392 H 0.69456 0.71019 0.50557 0.0
C393 C 0.58452 0.69251 0.52347 0.0
C394 C 0.61345 0.72619 0.49614 0.0
H395 H 0.57286 0.64088 0.5676 0.0
H396 H 0.55426 0.68832 0.53025 0.0
C397 C 0.65247 0.73112 0.48795 0.0
C398 C 0.31066 0.93931 0.48578 0.0
C399 C 0.2694 0.90755 0.49257 0.0
H400 H 0.35946 0.99936 0.50715 0.0
C401 C 0.24431 0.91435 0.52367 0.0
H402 H 0.33064 0.93509 0.4617 0.0
C403 C 0.26103 0.95095 0.54999 0.0
C404 C 0.30282 0.98171 0.5449 0.0
H405 H 0.21246 0.89051 0.52966 0.0
H406 H 0.24168 0.95465 0.57559 0.0
C407 C 0.32713 0.97619 0.51147 0.0
C408 C 0.64595 0.87091 0.02931 0.0
C409 C 0.61855 0.86819 0.9939 0.0
H410 H 0.68906 0.90908 0.08228 0.0
C411 C 0.6193 0.90457 0.97894 0.0
H412 H 0.64597 0.84339 0.04172 0.0
C413 C 0.64367 0.94205 1.0024 0.0
C414 C 0.66758 0.94371 0.04133 0.0
H415 H 0.59844 0.90324 0.95167 0.0
H416 H 0.64113 0.96876 0.99252 0.0
C417 C 0.67016 0.90838 0.05299 0.0
C418 C 0.08497 0.72484 0.97691 0.0
C419 C 0.11254 0.76524 0.99288 0.0
H420 H 0.02742 0.66821 0.98991 0.0
C421 C 0.10018 0.78199 0.02934 0.0
H422 H 0.09403 0.71118 0.94912 0.0
C423 C 0.06267 0.75772 0.05243 0.0
C424 C 0.03671 0.7161 0.03967 0.0
H425 H 0.12077 0.81317 0.04208 0.0
H426 H 0.05501 0.77075 0.08222 0.0
C427 C 0.04709 0.70029 1.00031 0.0
C428 C 0.34599 0.44711 0.05069 0.0
C429 C 0.33761 0.40686 0.03929 0.0
H430 H 0.32725 0.49249 0.04488 0.0
C431 C 0.30602 0.3837 1.00648 0.0
H432 H 0.3704 0.4661 0.07523 0.0
C433 C 0.28154 0.39931 0.98843 0.0
C434 C 0.28831 0.43828 1.00289 0.0
H435 H 0.2985 0.35252 0.99717 0.0
H436 H 0.25582 0.37992 0.96559 0.0
C437 C 0.32145 0.4624 0.03311 0.0
C438 C 0.8847 0.63392 0.48407 0.0
C439 C 0.87742 0.60043 0.51359 0.0
H440 H 0.92633 0.68088 0.43555 0.0
C441 C 0.90937 0.59174 0.52073 0.0
H442 H 0.86079 0.64142 0.47775 0.0
C443 C 0.94716 0.61487 0.49708 0.0
C444 C 0.95333 0.64666 0.46558 0.0
H445 H 0.90474 0.56627 0.54351 0.0
H446 H 0.9707 0.60654 0.5015 0.0
C447 C 0.92217 0.65655 0.45998 0.0
C448 C 0.37509 0.26144 0.46186 0.0
C449 C 0.39938 0.27529 0.50285 0.0
H450 H 0.34555 0.27544 0.40627 0.0
C451 C 0.40935 0.31407 0.52179 0.0
H452 H 0.36632 0.23149 0.44665 0.0
C453 C 0.39717 0.33946 0.49837 0.0
C454 C 0.37516 0.32639 0.45567 0.0
H455 H 0.42806 0.32556 0.55332 0.0
H456 H 0.40648 0.36992 0.51239 0.0
C457 C 0.36328 0.28667 0.43854 0.0
C458 C 0.76303 0.06645 0.46892 0.0
C459 C 0.71998 0.04029 0.46816 0.0
H460 H 0.8143 0.12347 0.49401 0.0
C461 C 0.69519 0.0516 0.49353 0.0
H462 H 0.78262 0.05849 0.4489 0.0
C463 C 0.71311 0.08908 0.51832 0.0
C464 C 0.75623 0.11573 0.51868 0.0
H465 H 0.66191 0.03217 0.49273 0.0
H466 H 0.6931 0.09737 0.53685 0.0
C467 C 0.78106 0.10362 0.49447 0.0
C468 C 0.38353 0.41336 0.21935 0.0
C469 C 0.37657 0.37663 0.19711 0.0
H470 H 0.38427 0.44314 0.28441 0.0
C471 C 0.36542 0.34132 0.22532 0.0
H472 H 0.39261 0.4413 0.19882 0.0
C473 C 0.36076 0.34247 0.27421 0.0
C474 C 0.36713 0.37896 0.29639 0.0
H475 H 0.35891 0.31224 0.20951 0.0
H476 H 0.35108 0.31428 0.29454 0.0
C477 C 0.3787 0.41446 0.26839 0.0
C478 C 0.72471 0.02691 0.23446 0.0
C479 C 0.69125 1.00189 0.20488 0.0
H480 H 0.7488 0.03878 0.30466 0.0
C481 C 0.65477 0.96968 0.22523 0.0
H482 H 0.7535 0.05152 0.21986 0.0
C483 C 0.65203 0.96236 0.27401 0.0
C484 C 0.68573 0.98706 0.30351 0.0
H485 H 0.62824 0.95019 0.20348 0.0
H486 H 0.62341 0.93749 0.28862 0.0
C487 C 0.72201 0.01957 0.28315 0.0
C488 C 0.9621 0.6715 0.23609 0.0
C489 C 0.98735 0.66633 0.20357 0.0
H490 H 0.95165 0.68055 0.30806 0.0
C491 C 0.02209 0.66535 0.22034 0.0
H492 H 0.9357 0.67342 0.22431 0.0
C493 C 0.03137 0.66959 0.26864 0.0
C494 C 1.00601 0.67474 0.30105 0.0
H495 H 0.04199 0.66114 0.19614 0.0
H496 H 0.05809 0.66839 0.28068 0.0
C497 C 0.97134 0.67572 0.28416 0.0
C498 C 0.65872 0.67734 0.72217 0.0
C499 C 0.6537 0.6396 0.70524 0.0
H500 H 0.66135 0.71315 0.78236 0.0
C501 C 0.64469 0.60747 0.73768 0.0
H502 H 0.66629 0.703 0.69818 0.0
C503 C 0.64151 0.61324 0.78602 0.0
C504 C 0.6477 0.65142 0.80309 0.0
H505 H 0.64013 0.57791 0.72568 0.0
H506 H 0.63478 0.58793 0.81019 0.0
C507 C 0.65569 0.68316 0.77046 0.0
C508 C 0.29182 0.99886 0.72917 0.0
C509 C 0.3303 0.03007 0.71158 0.0
H510 H 0.25596 0.96564 0.78989 0.0
C511 C 0.36315 0.05102 0.74329 0.0
H512 H 0.26569 0.98246 0.70579 0.0
C513 C 0.35754 0.04127 0.79152 0.0
C514 C 0.31891 1.01044 0.80916 0.0
H515 H 0.39334 0.07467 0.73079 0.0
H516 H 0.38354 0.05785 0.81503 0.0
C517 C 0.28622 0.9891 0.77737 0.0
C518 C 1.00591 0.29945 0.76679 0.0
C519 C 0.02409 0.33263 0.73431 0.0
H520 H 1.00001 0.28005 0.83906 0.0
C521 C 0.0508 0.37297 0.75128 0.0
H522 H 0.98583 0.26793 0.75479 0.0
C523 C 0.05888 0.38001 0.79965 0.0
C524 C 0.04048 0.34686 0.83223 0.0
H525 H 0.06502 0.39929 0.72719 0.0
H526 H 0.07879 0.41159 0.81157 0.0
C527 C 0.01414 0.30645 0.81511 0.0
C528 C 0.63169 0.22652 0.07068 0.0
C529 C 0.61042 0.2166 0.02738 0.0
H530 H 0.68041 0.22701 0.11131 0.0
C531 C 0.62239 0.19894 0.99154 0.0
H532 H 0.623 0.24002 0.09902 0.0
C533 C 0.65532 0.19209 0.99828 0.0
C534 C 0.67666 0.2018 0.04145 0.0
H535 H 0.60664 0.19092 0.95783 0.0
H536 H 0.66416 0.17914 0.96948 0.0
C537 C 0.66426 0.21874 0.07786 0.0
C538 C 0.8058 0.39762 0.98567 0.0
C539 C 0.78795 0.36703 0.02096 0.0
H540 H 0.82842 0.46077 0.96633 0.0
C541 C 0.77763 0.37692 0.0648 0.0
H542 H 0.81429 0.39081 0.95169 0.0
C543 C 0.78593 0.41732 0.07349 0.0
C544 C 0.80468 0.44822 0.0384 0.0
H545 H 0.76405 0.35376 0.09268 0.0
H546 H 0.77793 0.42435 0.10762 0.0
C547 C 0.81418 0.43781 0.99431 0.0
C548 C 0.63304 0.428 0.04479 0.0
C549 C 0.66027 0.42302 0.01516 0.0
H550 H 0.57208 0.39951 0.07498 0.0
C551 C 0.64719 0.3839 0.99534 0.0
H552 H 0.64246 0.45784 0.0607 0.0
C553 C 0.60725 0.35087 1.00329 0.0
C554 C 0.57933 0.35596 0.03143 0.0
H555 H 0.66758 0.37894 0.97276 0.0
H556 H 0.59808 0.32134 0.98681 0.0
C557 C 0.59287 0.39463 0.05307 0.0
C558 C 0.2358 0.67541 0.43562 0.0
C559 C 0.2364 0.70063 0.47277 0.0
H560 H 0.24367 0.62432 0.4154 0.0
C561 C 0.24835 0.69507 0.51807 0.0
H562 H 0.227 0.67918 0.40029 0.0
C563 C 0.25727 0.66361 0.52672 0.0
C564 C 0.25531 0.6375 0.49013 0.0
H565 H 0.2494 0.71407 0.54748 0.0
H566 H 0.26477 0.65908 0.56243 0.0
C567 C 0.24559 0.64428 0.44417 0.0
C568 C 0.43444 0.64588 0.45529 0.0
C569 C 0.44237 0.66475 0.49993 0.0
H570 H 0.39402 0.59238 0.41376 0.0
C571 C 0.41466 0.64406 0.53716 0.0
H572 H 0.45539 0.66135 0.42598 0.0
C573 C 0.37979 0.60518 0.53024 0.0
C574 C 0.37184 0.58573 0.48593 0.0
H575 H 0.41984 0.65795 0.57188 0.0
H576 H 0.35917 0.5903 0.55996 0.0
C577 C 0.39942 0.60651 0.44835 0.0
C578 C 0.44011 0.79689 0.43871 0.0
C579 C 0.4746 0.82401 0.4659 0.0
H580 H 0.37557 0.77244 0.4258 0.0
C581 C 0.47079 0.84952 0.49936 0.0
H582 H 0.4421 0.77653 0.41304 0.0
C583 C 0.43305 0.84737 0.50635 0.0
C584 C 0.39819 0.81918 0.48058 0.0
H585 H 0.49687 0.87066 0.52081 0.0
H586 H 0.43097 0.86712 0.53283 0.0
C587 C 0.40203 0.79425 0.4463 0.0
C588 C 0.33629 0.78525 0.94309 0.0
C589 C 0.33939 0.82119 0.96285 0.0
H590 H 0.36343 0.74673 0.93775 0.0
C591 C 0.37397 0.84774 0.98987 0.0
H592 H 0.30939 0.76396 0.92283 0.0
C593 C 0.40475 0.83821 0.99789 0.0
C594 C 0.40096 0.80143 0.97998 0.0
H595 H 0.3767 0.87542 1.0057 0.0
H596 H 0.43089 0.85902 0.01946 0.0
C597 C 0.3668 0.77517 0.95204 0.0
C598 C 0.20439 0.64683 0.04491 0.0
C599 C 0.20964 0.67194 1.0053 0.0
H600 H 0.19913 0.59068 0.07164 0.0
C601 C 0.21237 0.65757 0.96029 0.0
H602 H 0.20219 0.65696 0.08007 0.0
C603 C 0.21107 0.61935 0.95533 0.0
C604 C 0.20658 0.59457 0.99526 0.0
H605 H 0.21668 0.67638 0.92911 0.0
H606 H 0.21422 0.60956 0.92036 0.0
C607 C 0.20263 0.60866 0.03997 0.0
C608 C 0.38961 0.64361 0.02927 0.0
C609 C 0.36494 0.60904 1.00087 0.0
H610 H 0.44764 0.69988 0.03702 0.0
C611 C 0.38024 0.60547 0.95689 0.0
H612 H 0.37858 0.64706 0.06338 0.0
C613 C 0.41986 0.63564 0.94194 0.0
C614 C 0.44449 0.6703 0.97027 0.0
H615 H 0.36186 0.57902 0.93436 0.0
H616 H 0.43124 0.63187 0.90821 0.0
C617 C 0.42897 0.67404 0.014 0.0
C618 C 0.77896 0.35114 0.49539 0.0
C619 C 0.77947 0.37647 0.53224 0.0
H620 H 0.7883 0.30132 0.47485 0.0
C621 C 0.78761 0.36868 0.5785 0.0
H622 H 0.77282 0.35647 0.45939 0.0
C623 C 0.79702 0.33735 0.58731 0.0
C624 C 0.79763 0.31277 0.55015 0.0
H625 H 0.78841 0.38789 0.60753 0.0
H626 H 0.80464 0.33293 0.62299 0.0
C627 C 0.78775 0.31951 0.50428 0.0
C628 C 0.60969 0.36962 0.46696 0.0
C629 C 0.57981 0.35043 0.50258 0.0
H630 H 0.66812 0.421 0.44683 0.0
C631 C 0.58621 0.3702 0.54652 0.0
H632 H 0.6056 0.35509 0.43276 0.0
C633 C 0.6223 0.40841 0.55474 0.0
C634 C 0.65256 0.42729 0.51917 0.0
H635 H 0.56362 0.35594 0.57464 0.0
H636 H 0.62675 0.42278 0.58907 0.0
C637 C 0.64561 0.40748 0.47514 0.0
C638 C 0.59596 0.16901 0.51314 0.0
C639 C 0.63219 0.20254 0.53152 0.0
H640 H 0.5308 0.14147 0.50307 0.0
C641 C 0.62966 0.2331 0.5576 0.0
H642 H 0.59708 0.14503 0.49289 0.0
C643 C 0.59147 0.23039 0.56458 0.0
C644 C 0.55548 0.19766 0.54453 0.0
H645 H 0.65717 0.25919 0.57222 0.0
H646 H 0.59038 0.25484 0.58386 0.0
C647 C 0.55806 0.1669 0.51903 0.0
C648 C 0.53513 0.27152 0.76497 0.0
C649 C 0.49663 0.24212 0.74637 0.0
H650 H 0.57291 0.2962 0.82614 0.0
C651 C 0.46579 0.21415 0.77784 0.0
H652 H 0.55967 0.29354 0.742 0.0
C653 C 0.47347 0.21565 0.82672 0.0
C654 C 0.51214 0.24513 0.84508 0.0
H655 H 0.4358 0.19098 0.76473 0.0
H656 H 0.44918 0.19375 0.85002 0.0
C657 C 0.54276 0.27299 0.81348 0.0
C658 C 0.79592 0.21557 0.77352 0.0
C659 C 0.83642 0.24561 0.76075 0.0
H660 H 0.75069 0.18946 0.82873 0.0
C661 C 0.86359 0.27129 0.79608 0.0
H662 H 0.77429 0.19527 0.74718 0.0
C663 C 0.85021 0.26766 0.84301 0.0
C664 C 0.80923 0.23863 0.85543 0.0
H665 H 0.89514 0.29451 0.78742 0.0
H666 H 0.87166 0.28837 0.86923 0.0
C667 C 0.7824 0.2123 0.82029 0.0
C668 C 0.83411 0.5958 0.7998 0.0
C669 C 0.80405 0.56054 0.82449 0.0
H670 H 0.85439 0.62743 0.73315 0.0
C671 C 0.77122 0.52878 0.79894 0.0
H672 H 0.85984 0.62083 0.81832 0.0
C673 C 0.76807 0.53258 0.75004 0.0
C674 C 0.7977 0.56821 0.7255 0.0
H675 H 0.74753 0.50116 0.81677 0.0
H676 H 0.74205 0.50779 0.73164 0.0
C677 C 0.83099 0.59958 0.75089 0.0
C678 C 0.25873 0.51571 0.69798 0.0
C679 C 0.22006 0.49685 0.67565 0.0
H680 H 0.29202 0.52969 0.76297 0.0
C681 C 0.18427 0.47617 0.70384 0.0
H682 H 0.28698 0.53187 0.67752 0.0
C683 C 0.18721 0.47492 0.75325 0.0
C684 C 0.22599 0.49433 0.77549 0.0
H685 H 0.15399 0.46116 0.68782 0.0
H686 H 0.1591 0.45898 0.77399 0.0
C687 C 0.26164 0.51448 0.74717 0.0
C688 C 0.60393 0.79967 0.71144 0.0
C689 C 0.57102 0.79378 0.6826 0.0
H690 H 0.62412 0.79628 0.78108 0.0
C691 C 0.53275 0.78196 0.70386 0.0
H692 H 0.63385 0.80887 0.6963 0.0
C693 C 0.5271 0.77464 0.75265 0.0
C694 C 0.55962 0.77899 0.78118 0.0
H695 H 0.50674 0.7772 0.68267 0.0
H696 H 0.49696 0.76453 0.76775 0.0
C697 C 0.5983 0.79237 0.76014 0.0
C698 C 0.25316 0.79285 0.72966 0.0
C699 C 0.2522 0.82363 0.75704 0.0
H700 H 0.26271 0.77469 0.66156 0.0
C701 C 0.26059 0.86107 0.73495 0.0
H702 H 0.24689 0.76369 0.74548 0.0
C703 C 0.26993 0.86755 0.68652 0.0
C704 C 0.27089 0.83664 0.65923 0.0
H705 H 0.26027 0.88552 0.7551 0.0
H706 H 0.2763 0.89668 0.67051 0.0
C707 C 0.26228 0.79922 0.68141 0.0
C708 C 0.5045 0.75608 0.18958 0.0
C709 C 0.53246 0.79194 0.16414 0.0
H710 H 0.48715 0.72522 0.25695 0.0
C711 C 0.56572 0.82451 0.18831 0.0
H712 H 0.47857 0.73045 0.172 0.0
C713 C 0.57071 0.82148 0.23686 0.0
C714 C 0.5425 0.78585 0.26247 0.0
H715 H 0.58791 0.85257 0.16982 0.0
H716 H 0.5965 0.84734 0.25435 0.0
C717 C 0.50942 0.7531 0.23827 0.0
C718 C 0.22163 0.8075 0.20034 0.0
C719 C 0.25638 0.80762 0.18175 0.0
H720 H 0.18766 0.80508 0.26215 0.0
C721 C 0.28526 0.80749 0.21319 0.0
H722 H 0.19878 0.80768 0.1772 0.0
C723 C 0.27888 0.80608 0.26213 0.0
C724 C 0.24344 0.80465 0.28059 0.0
H725 H 0.31239 0.80765 0.20004 0.0
H726 H 0.30128 0.80518 0.28539 0.0
C727 C 0.21521 0.80597 0.24915 0.0
C728 C 0.24664 0.54806 0.23939 0.0
C729 C 0.24456 0.52009 0.20485 0.0
H730 H 0.25111 0.56267 0.31314 0.0
C731 C 0.24351 0.48349 0.21957 0.0
H732 H 0.24741 0.57649 0.22929 0.0
C733 C 0.24544 0.47548 0.26758 0.0
C734 C 0.24863 0.50394 0.30208 0.0
H735 H 0.24173 0.46115 0.19397 0.0
H736 H 0.24528 0.44731 0.2775 0.0
C737 C 0.24873 0.54011 0.28748 0.0
C738 C 0.79091 0.55814 0.32709 0.0
C739 C 0.80739 0.53908 0.35557 0.0
H740 H 0.78427 0.57667 0.25739 0.0
C741 C 0.83258 0.5259 0.33419 0.0
H742 H 0.77142 0.56875 0.34227 0.0
C743 C 0.84009 0.53061 0.2853 0.0
C744 C 0.82235 0.54834 0.25662 0.0
H745 H 0.8459 0.51123 0.35506 0.0
H746 H 0.85907 0.5195 0.26988 0.0
C747 C 0.79817 0.56258 0.27826 0.0
C748 C 0.43858 0.26471 0.30098 0.0
C749 C 0.45628 0.24451 0.32512 0.0
H750 H 0.4242 0.28161 0.23427 0.0
C751 C 0.47244 0.22426 0.2985 0.0
H752 H 0.42564 0.28047 0.32031 0.0
C753 C 0.47187 0.22516 0.24888 0.0
C754 C 0.4548 0.24603 0.22478 0.0
H755 H 0.48638 0.2085 0.31596 0.0
H756 H 0.48522 0.20987 0.22944 0.0
C757 C 0.4377 0.26533 0.25151 0.0
C758 C 0.76855 0.22432 0.32665 0.0
C759 C 0.75824 0.18656 0.34926 0.0
H760 H 0.78254 0.25846 0.26156 0.0
C761 C 0.75538 0.15386 0.32182 0.0
H762 H 0.77108 0.2502 0.34662 0.0
C763 C 0.76224 0.15873 0.27285 0.0
C764 C 0.77186 0.19632 0.25021 0.0
H765 H 0.74761 0.12439 0.33808 0.0
H766 H 0.75933 0.13278 0.25267 0.0
C767 C 0.77514 0.22909 0.27777 0.0
loop_
_geom_bond_atom_site_label_1
_geom_bond_atom_site_label_2
_geom_bond_distance
_geom_bond_site_symmetry_2
_ccdc_geom_bond_type
O0 Tb1 2.292 1_556 S
O0 C3 1.255 . S
Tb1 O0 2.292 1_554 S
Tb1 O17 2.326 . S
Tb1 O19 2.500 1_554 S
Tb1 O20 2.473 . S
Tb1 O23 2.324 . S
Eu2 O6 2.292 . S
Eu2 C7 2.852 . S
Eu2 O18 2.324 . S
Eu2 O22 2.326 . S
Eu2 O24 2.500 . S
Eu2 O25 2.473 . S
C3 O0 1.255 . S
C3 O4 1.247 . S
O4 C3 1.247 . S
C5 O17 1.242 . S
C5 O18 1.258 . S
O6 Eu2 2.292 . S
O6 C8 1.255 . S
C7 Eu2 2.852 . S
C7 C11 1.503 . S
C7 O24 1.273 . S
C7 O25 1.257 . S
C8 O6 1.255 . S
C8 O9 1.247 . S
O9 C8 1.247 . S
C10 O22 1.242 . S
C10 O23 1.258 . S
C11 C7 1.503 . S
C11 C12 1.379 . S
C11 C16 1.392 . S
C12 C11 1.379 . S
C12 C13 1.404 . S
C12 H26 0.929 . S
C13 C12 1.404 . S
C13 C14 1.389 . S
C14 C13 1.389 . S
C14 C15 1.399 . S
C14 H27 0.931 . S
C15 C14 1.399 . S
C15 C16 1.390 . S
C16 C11 1.392 . S
C16 C15 1.390 . S
C16 H28 0.929 . S
O17 Tb1 2.326 . S
O17 C5 1.242 . S
O18 Eu2 2.324 . S
O18 C5 1.258 . S
O19 Tb1 2.500 1_556 S
O19 C21 1.273 1_556 S
O20 Tb1 2.473 . S
O20 C21 1.257 . S
C21 O19 1.273 1_554 S
C21 O20 1.257 . S
O22 Eu2 2.326 . S
O22 C10 1.242 . S
O23 Tb1 2.324 . S
O23 C10 1.258 . S
O24 Eu2 2.500 . S
O24 C7 1.273 . S
O25 Eu2 2.473 . S
O25 C7 1.257 . S
H26 C12 0.929 . S
H27 C14 0.931 . S
H28 C16 0.929 . S
O29 Tb30 2.292 1_556 S
O29 C32 1.255 . S
Tb30 O29 2.292 1_554 S
Tb30 O46 2.326 . S
Tb30 O48 2.500 1_554 S
Tb30 O49 2.473 . S
Tb30 O52 2.324 . S
Eu31 O35 2.292 . S
Eu31 C36 2.852 . S
Eu31 O47 2.324 . S
Eu31 O51 2.326 . S
Eu31 O53 2.500 . S
Eu31 O54 2.473 . S
C32 O29 1.255 . S
C32 O33 1.247 . S
O33 C32 1.247 . S
C34 O46 1.242 . S
C34 O47 1.258 . S
O35 Eu31 2.292 . S
O35 C37 1.255 . S
C36 Eu31 2.852 . S
C36 C40 1.503 . S
C36 O53 1.273 . S
C36 O54 1.257 . S
C37 O35 1.255 . S
C37 O38 1.247 . S
O38 C37 1.247 . S
C39 O51 1.242 . S
C39 O52 1.258 . S
C40 C36 1.503 . S
C40 C41 1.379 . S
C40 C45 1.392 . S
C41 C40 1.379 . S
C41 C42 1.404 . S
C41 H55 0.929 . S
C42 C41 1.404 . S
C42 C43 1.389 . S
C43 C42 1.389 . S
C43 C44 1.399 . S
C43 H56 0.931 1_545 S
C44 C43 1.399 . S
C44 C45 1.390 . S
C45 C40 1.392 . S
C45 C44 1.390 . S
C45 H57 0.929 . S
O46 Tb30 2.326 . S
O46 C34 1.242 . S
O47 Eu31 2.324 . S
O47 C34 1.258 . S
O48 Tb30 2.500 1_556 S
O48 C50 1.273 1_556 S
O49 Tb30 2.473 . S
O49 C50 1.257 . S
C50 O48 1.273 1_554 S
C50 O49 1.257 . S
O51 Eu31 2.326 . S
O51 C39 1.242 . S
O52 Tb30 2.324 . S
O52 C39 1.258 . S
O53 Eu31 2.500 . S
O53 C36 1.273 . S
O54 Eu31 2.473 . S
O54 C36 1.257 . S
H55 C41 0.929 . S
H56 C43 0.931 1_565 S
H57 C45 0.929 . S
O58 Tb59 2.292 1_556 S
O58 C61 1.255 . S
Tb59 O58 2.292 1_554 S
Tb59 O75 2.326 . S
Tb59 O77 2.500 1_554 S
Tb59 O78 2.473 . S
Tb59 O81 2.324 . S
Eu60 O64 2.292 . S
Eu60 C65 2.852 . S
Eu60 O76 2.324 . S
Eu60 O80 2.326 . S
Eu60 O82 2.500 . S
Eu60 O83 2.473 . S
C61 O58 1.255 . S
C61 O62 1.247 . S
O62 C61 1.247 . S
C63 O75 1.242 . S
C63 O76 1.258 . S
O64 Eu60 2.292 . S
O64 C66 1.255 . S
C65 Eu60 2.852 . S
C65 C69 1.503 . S
C65 O82 1.273 . S
C65 O83 1.257 . S
C66 O64 1.255 . S
C66 O67 1.247 . S
O67 C66 1.247 . S
C68 O80 1.242 . S
C68 O81 1.258 . S
C69 C65 1.503 . S
C69 C70 1.379 . S
C69 C74 1.392 . S
C70 C69 1.379 . S
C70 C71 1.404 . S
C70 H84 0.929 . S
C71 C70 1.404 . S
C71 C72 1.389 . S
C72 C71 1.389 . S
C72 C73 1.399 . S
C72 H85 0.931 1_655 S
C73 C72 1.399 . S
C73 C74 1.390 . S
C74 C69 1.392 . S
C74 C73 1.390 . S
C74 H86 0.929 . S
O75 Tb59 2.326 . S
O75 C63 1.242 . S
O76 Eu60 2.324 . S
O76 C63 1.258 . S
O77 Tb59 2.500 1_556 S
O77 C79 1.273 1_556 S
O78 Tb59 2.473 . S
O78 C79 1.257 . S
C79 O77 1.273 1_554 S
C79 O78 1.257 . S
O80 Eu60 2.326 . S
O80 C68 1.242 . S
O81 Tb59 2.324 . S
O81 C68 1.258 . S
O82 Eu60 2.500 . S
O82 C65 1.273 . S
O83 Eu60 2.473 . S
O83 C65 1.257 . S
H84 C70 0.929 . S
H85 C72 0.931 1_455 S
H86 C74 0.929 . S
O87 Tb88 2.292 . S
O87 C90 1.255 . S
Tb88 O87 2.292 . S
Tb88 O104 2.326 . S
Tb88 O106 2.500 . S
Tb88 O107 2.473 . S
Tb88 O110 2.324 . S
Eu89 O93 2.292 . S
Eu89 C94 2.852 . S
Eu89 O105 2.324 . S
Eu89 O109 2.326 . S
Eu89 O111 2.500 . S
Eu89 O112 2.473 . S
C90 O87 1.255 . S
C90 O91 1.247 . S
O91 C90 1.247 . S
C92 O104 1.242 . S
C92 O105 1.258 . S
O93 Eu89 2.292 . S
O93 C95 1.255 . S
C94 Eu89 2.852 . S
C94 C98 1.503 . S
C94 O111 1.273 . S
C94 O112 1.257 . S
C95 O93 1.255 . S
C95 O96 1.247 . S
O96 C95 1.247 . S
C97 O109 1.242 . S
C97 O110 1.258 . S
C98 C94 1.503 . S
C98 C99 1.379 . S
C98 C103 1.392 . S
C99 C98 1.379 . S
C99 C100 1.404 . S
C99 H113 0.929 . S
C100 C99 1.404 . S
C100 C101 1.389 . S
C101 C100 1.389 . S
C101 C102 1.399 . S
C101 H114 0.931 . S
C102 C101 1.399 . S
C102 C103 1.390 . S
C103 C98 1.392 . S
C103 C102 1.390 . S
C103 H115 0.929 . S
O104 Tb88 2.326 . S
O104 C92 1.242 . S
O105 Eu89 2.324 . S
O105 C92 1.258 . S
O106 Tb88 2.500 . S
O106 C108 1.273 . S
O107 Tb88 2.473 . S
O107 C108 1.257 . S
C108 O106 1.273 . S
C108 O107 1.257 . S
O109 Eu89 2.326 . S
O109 C97 1.242 . S
O110 Tb88 2.324 . S
O110 C97 1.258 . S
O111 Eu89 2.500 . S
O111 C94 1.273 . S
O112 Eu89 2.473 . S
O112 C94 1.257 . S
H113 C99 0.929 . S
H114 C101 0.931 . S
H115 C103 0.929 . S
O116 Tb117 2.292 . S
O116 C119 1.255 . S
Tb117 O116 2.292 . S
Tb117 O133 2.326 . S
Tb117 O135 2.500 . S
Tb117 O136 2.473 . S
Tb117 O139 2.324 . S
Eu118 O122 2.292 . S
Eu118 C123 2.852 . S
Eu118 O134 2.324 . S
Eu118 O138 2.326 . S
Eu118 O140 2.500 . S
Eu118 O141 2.473 . S
C119 O116 1.255 . S
C119 O120 1.247 . S
O120 C119 1.247 . S
C121 O133 1.242 . S
C121 O134 1.258 . S
O122 Eu118 2.292 . S
O122 C124 1.255 . S
C123 Eu118 2.852 . S
C123 C127 1.503 . S
C123 O140 1.273 . S
C123 O141 1.257 . S
C124 O122 1.255 . S
C124 O125 1.247 . S
O125 C124 1.247 . S
C126 O138 1.242 . S
C126 O139 1.258 . S
C127 C123 1.503 . S
C127 C128 1.379 . S
C127 C132 1.392 . S
C128 C127 1.379 . S
C128 C129 1.404 . S
C128 H142 0.929 . S
C129 C128 1.404 . S
C129 C130 1.389 . S
C130 C129 1.389 . S
C130 C131 1.399 . S
C130 H143 0.931 1_565 S
C131 C130 1.399 . S
C131 C132 1.390 . S
C132 C127 1.392 . S
C132 C131 1.390 . S
C132 H144 0.929 . S
O133 Tb117 2.326 . S
O133 C121 1.242 . S
O134 Eu118 2.324 . S
O134 C121 1.258 . S
O135 Tb117 2.500 . S
O135 C137 1.273 . S
O136 Tb117 2.473 . S
O136 C137 1.257 . S
C137 O135 1.273 . S
C137 O136 1.257 . S
O138 Eu118 2.326 . S
O138 C126 1.242 . S
O139 Tb117 2.324 . S
O139 C126 1.258 . S
O140 Eu118 2.500 . S
O140 C123 1.273 . S
O141 Eu118 2.473 . S
O141 C123 1.257 . S
H142 C128 0.929 . S
H143 C130 0.931 1_545 S
H144 C132 0.929 . S
O145 Tb146 2.292 . S
O145 C148 1.255 . S
Tb146 O145 2.292 . S
Tb146 O162 2.326 . S
Tb146 O164 2.500 . S
Tb146 O165 2.473 . S
Tb146 O168 2.324 . S
Eu147 O151 2.292 . S
Eu147 C152 2.852 . S
Eu147 O163 2.324 . S
Eu147 O167 2.326 . S
Eu147 O169 2.500 . S
Eu147 O170 2.473 . S
C148 O145 1.255 . S
C148 O149 1.247 . S
O149 C148 1.247 . S
C150 O162 1.242 . S
C150 O163 1.258 . S
O151 Eu147 2.292 . S
O151 C153 1.255 . S
C152 Eu147 2.852 . S
C152 C156 1.503 . S
C152 O169 1.273 . S
C152 O170 1.257 . S
C153 O151 1.255 . S
C153 O154 1.247 . S
O154 C153 1.247 . S
C155 O167 1.242 . S
C155 O168 1.258 . S
C156 C152 1.503 . S
C156 C157 1.379 . S
C156 C161 1.392 . S
C157 C156 1.379 . S
C157 C158 1.404 . S
C157 H171 0.929 . S
C158 C157 1.404 . S
C158 C159 1.389 . S
C159 C158 1.389 . S
C159 C160 1.399 . S
C159 H172 0.931 1_455 S
C160 C159 1.399 . S
C160 C161 1.390 . S
C161 C156 1.392 . S
C161 C160 1.390 . S
C161 H173 0.929 . S
O162 Tb146 2.326 . S
O162 C150 1.242 . S
O163 Eu147 2.324 . S
O163 C150 1.258 . S
O164 Tb146 2.500 . S
O164 C166 1.273 . S
O165 Tb146 2.473 . S
O165 C166 1.257 . S
C166 O164 1.273 . S
C166 O165 1.257 . S
O167 Eu147 2.326 . S
O167 C155 1.242 . S
O168 Tb146 2.324 . S
O168 C155 1.258 . S
O169 Eu147 2.500 . S
O169 C152 1.273 . S
O170 Eu147 2.473 . S
O170 C152 1.257 . S
H171 C157 0.929 . S
H172 C159 0.931 1_655 S
H173 C161 0.929 . S
O174 Tb175 2.292 1_554 S
O174 C177 1.255 . S
Tb175 O174 2.292 1_556 S
Tb175 O191 2.326 . S
Tb175 O193 2.500 1_556 S
Tb175 O194 2.473 . S
Tb175 O197 2.324 . S
Eu176 O180 2.292 . S
Eu176 C181 2.852 . S
Eu176 O192 2.324 . S
Eu176 O196 2.326 . S
Eu176 O198 2.500 . S
Eu176 O199 2.473 . S
C177 O174 1.255 . S
C177 O178 1.247 . S
O178 C177 1.247 . S
C179 O191 1.242 . S
C179 O192 1.258 . S
O180 Eu176 2.292 . S
O180 C182 1.255 . S
C181 Eu176 2.852 . S
C181 C185 1.503 . S
C181 O198 1.273 . S
C181 O199 1.257 . S
C182 O180 1.255 . S
C182 O183 1.247 . S
O183 C182 1.247 . S
C184 O196 1.242 . S
C184 O197 1.258 . S
C185 C181 1.503 . S
C185 C186 1.379 . S
C185 C190 1.392 . S
C186 C185 1.379 . S
C186 C187 1.404 . S
C186 H200 0.929 . S
C187 C186 1.404 . S
C187 C188 1.389 . S
C188 C187 1.389 . S
C188 C189 1.399 . S
C188 H201 0.931 . S
C189 C188 1.399 . S
C189 C190 1.390 . S
C190 C185 1.392 . S
C190 C189 1.390 . S
C190 H202 0.929 . S
O191 Tb175 2.326 . S
O191 C179 1.242 . S
O192 Eu176 2.324 . S
O192 C179 1.258 . S
O193 Tb175 2.500 1_554 S
O193 C195 1.273 1_554 S
O194 Tb175 2.473 . S
O194 C195 1.257 . S
C195 O193 1.273 1_556 S
C195 O194 1.257 . S
O196 Eu176 2.326 . S
O196 C184 1.242 . S
O197 Tb175 2.324 . S
O197 C184 1.258 . S
O198 Eu176 2.500 . S
O198 C181 1.273 . S
O199 Eu176 2.473 . S
O199 C181 1.257 . S
H200 C186 0.929 . S
H201 C188 0.931 . S
H202 C190 0.929 . S
O203 Tb204 2.292 1_554 S
O203 C206 1.255 . S
Tb204 O203 2.292 1_556 S
Tb204 O220 2.326 . S
Tb204 O222 2.500 1_556 S
Tb204 O223 2.473 . S
Tb204 O226 2.324 . S
Eu205 O209 2.292 . S
Eu205 C210 2.852 . S
Eu205 O221 2.324 . S
Eu205 O225 2.326 . S
Eu205 O227 2.500 . S
Eu205 O228 2.473 . S
C206 O203 1.255 . S
C206 O207 1.247 . S
O207 C206 1.247 . S
C208 O220 1.242 . S
C208 O221 1.258 . S
O209 Eu205 2.292 . S
O209 C211 1.255 . S
C210 Eu205 2.852 . S
C210 C214 1.503 . S
C210 O227 1.273 . S
C210 O228 1.257 . S
C211 O209 1.255 . S
C211 O212 1.247 . S
O212 C211 1.247 . S
C213 O225 1.242 . S
C213 O226 1.258 . S
C214 C210 1.503 . S
C214 C215 1.379 . S
C214 C219 1.392 . S
C215 C214 1.379 . S
C215 C216 1.404 . S
C215 H229 0.929 . S
C216 C215 1.404 . S
C216 C217 1.389 . S
C217 C216 1.389 . S
C217 C218 1.399 . S
C217 H230 0.931 1_565 S
C218 C217 1.399 . S
C218 C219 1.390 . S
C219 C214 1.392 . S
C219 C218 1.390 . S
C219 H231 0.929 . S
O220 Tb204 2.326 . S
O220 C208 1.242 . S
O221 Eu205 2.324 . S
O221 C208 1.258 . S
O222 Tb204 2.500 1_554 S
O222 C224 1.273 1_554 S
O223 Tb204 2.473 . S
O223 C224 1.257 . S
C224 O222 1.273 1_556 S
C224 O223 1.257 . S
O225 Eu205 2.326 . S
O225 C213 1.242 . S
O226 Tb204 2.324 . S
O226 C213 1.258 . S
O227 Eu205 2.500 . S
O227 C210 1.273 . S
O228 Eu205 2.473 . S
O228 C210 1.257 . S
H229 C215 0.929 . S
H230 C217 0.931 1_545 S
H231 C219 0.929 . S
O232 Tb233 2.292 1_554 S
O232 C235 1.255 . S
Tb233 O232 2.292 1_556 S
Tb233 O249 2.326 . S
Tb233 O251 2.500 1_556 S
Tb233 O252 2.473 . S
Tb233 O255 2.324 . S
Eu234 O238 2.292 . S
Eu234 C239 2.852 . S
Eu234 O250 2.324 . S
Eu234 O254 2.326 . S
Eu234 O256 2.500 . S
Eu234 O257 2.473 . S
C235 O232 1.255 . S
C235 O236 1.247 . S
O236 C235 1.247 . S
C237 O249 1.242 . S
C237 O250 1.258 . S
O238 Eu234 2.292 . S
O238 C240 1.255 . S
C239 Eu234 2.852 . S
C239 C243 1.503 . S
C239 O256 1.273 . S
C239 O257 1.257 . S
C240 O238 1.255 . S
C240 O241 1.247 . S
O241 C240 1.247 . S
C242 O254 1.242 . S
C242 O255 1.258 . S
C243 C239 1.503 . S
C243 C244 1.379 . S
C243 C248 1.392 . S
C244 C243 1.379 . S
C244 C245 1.404 . S
C244 H258 0.929 . S
C245 C244 1.404 . S
C245 C246 1.389 . S
C246 C245 1.389 . S
C246 C247 1.399 . S
C246 H259 0.931 1_455 S
C247 C246 1.399 . S
C247 C248 1.390 . S
C248 C243 1.392 . S
C248 C247 1.390 . S
C248 H260 0.929 . S
O249 Tb233 2.326 . S
O249 C237 1.242 . S
O250 Eu234 2.324 . S
O250 C237 1.258 . S
O251 Tb233 2.500 1_554 S
O251 C253 1.273 1_554 S
O252 Tb233 2.473 . S
O252 C253 1.257 . S
C253 O251 1.273 1_556 S
C253 O252 1.257 . S
O254 Eu234 2.326 . S
O254 C242 1.242 . S
O255 Tb233 2.324 . S
O255 C242 1.258 . S
O256 Eu234 2.500 . S
O256 C239 1.273 . S
O257 Eu234 2.473 . S
O257 C239 1.257 . S
H258 C244 0.929 . S
H259 C246 0.931 1_655 S
H260 C248 0.929 . S
O261 Tb262 2.292 . S
O261 C264 1.255 . S
Tb262 O261 2.292 . S
Tb262 O278 2.326 . S
Tb262 O280 2.500 . S
Tb262 O281 2.473 . S
Tb262 O284 2.324 . S
Eu263 O267 2.292 . S
Eu263 C268 2.852 . S
Eu263 O279 2.324 . S
Eu263 O283 2.326 . S
Eu263 O285 2.500 . S
Eu263 O286 2.473 . S
C264 O261 1.255 . S
C264 O265 1.247 . S
O265 C264 1.247 . S
C266 O278 1.242 . S
C266 O279 1.258 . S
O267 Eu263 2.292 . S
O267 C269 1.255 . S
C268 Eu263 2.852 . S
C268 C272 1.503 . S
C268 O285 1.273 . S
C268 O286 1.257 . S
C269 O267 1.255 . S
C269 O270 1.247 . S
O270 C269 1.247 . S
C271 O283 1.242 . S
C271 O284 1.258 . S
C272 C268 1.503 . S
C272 C273 1.379 . S
C272 C277 1.392 . S
C273 C272 1.379 . S
C273 C274 1.404 . S
C273 H287 0.929 . S
C274 C273 1.404 . S
C274 C275 1.389 . S
C275 C274 1.389 . S
C275 C276 1.399 . S
C275 H288 0.931 . S
C276 C275 1.399 . S
C276 C277 1.390 . S
C277 C272 1.392 . S
C277 C276 1.390 . S
C277 H289 0.929 . S
O278 Tb262 2.326 . S
O278 C266 1.242 . S
O279 Eu263 2.324 . S
O279 C266 1.258 . S
O280 Tb262 2.500 . S
O280 C282 1.273 . S
O281 Tb262 2.473 . S
O281 C282 1.257 . S
C282 O280 1.273 . S
C282 O281 1.257 . S
O283 Eu263 2.326 . S
O283 C271 1.242 . S
O284 Tb262 2.324 . S
O284 C271 1.258 . S
O285 Eu263 2.500 . S
O285 C268 1.273 . S
O286 Eu263 2.473 . S
O286 C268 1.257 . S
H287 C273 0.929 . S
H288 C275 0.931 . S
H289 C277 0.929 . S
O290 Tb291 2.292 . S
O290 C293 1.255 . S
Tb291 O290 2.292 . S
Tb291 O307 2.326 . S
Tb291 O309 2.500 . S
Tb291 O310 2.473 . S
Tb291 O313 2.324 . S
Eu292 O296 2.292 . S
Eu292 C297 2.852 . S
Eu292 O308 2.324 . S
Eu292 O312 2.326 . S
Eu292 O314 2.500 . S
Eu292 O315 2.473 . S
C293 O290 1.255 . S
C293 O294 1.247 . S
O294 C293 1.247 . S
C295 O307 1.242 . S
C295 O308 1.258 . S
O296 Eu292 2.292 . S
O296 C298 1.255 . S
C297 Eu292 2.852 . S
C297 C301 1.503 . S
C297 O314 1.273 . S
C297 O315 1.257 . S
C298 O296 1.255 . S
C298 O299 1.247 . S
O299 C298 1.247 . S
C300 O312 1.242 . S
C300 O313 1.258 . S
C301 C297 1.503 . S
C301 C302 1.379 . S
C301 C306 1.392 . S
C302 C301 1.379 . S
C302 C303 1.404 . S
C302 H316 0.929 . S
C303 C302 1.404 . S
C303 C304 1.389 . S
C304 C303 1.389 . S
C304 C305 1.399 . S
C304 H317 0.931 1_545 S
C305 C304 1.399 . S
C305 C306 1.390 . S
C306 C301 1.392 . S
C306 C305 1.390 . S
C306 H318 0.929 . S
O307 Tb291 2.326 . S
O307 C295 1.242 . S
O308 Eu292 2.324 . S
O308 C295 1.258 . S
O309 Tb291 2.500 . S
O309 C311 1.273 . S
O310 Tb291 2.473 . S
O310 C311 1.257 . S
C311 O309 1.273 . S
C311 O310 1.257 . S
O312 Eu292 2.326 . S
O312 C300 1.242 . S
O313 Tb291 2.324 . S
O313 C300 1.258 . S
O314 Eu292 2.500 . S
O314 C297 1.273 . S
O315 Eu292 2.473 . S
O315 C297 1.257 . S
H316 C302 0.929 . S
H317 C304 0.931 1_565 S
H318 C306 0.929 . S
O319 Tb320 2.292 . S
O319 C322 1.255 . S
Tb320 O319 2.292 . S
Tb320 O336 2.326 . S
Tb320 O338 2.500 . S
Tb320 O339 2.473 . S
Tb320 O342 2.324 . S
Eu321 O325 2.292 . S
Eu321 C326 2.852 . S
Eu321 O337 2.324 . S
Eu321 O341 2.326 . S
Eu321 O343 2.500 . S
Eu321 O344 2.473 . S
C322 O319 1.255 . S
C322 O323 1.247 . S
O323 C322 1.247 . S
C324 O336 1.242 . S
C324 O337 1.258 . S
O325 Eu321 2.292 . S
O325 C327 1.255 . S
C326 Eu321 2.852 . S
C326 C330 1.503 . S
C326 O343 1.273 . S
C326 O344 1.257 . S
C327 O325 1.255 . S
C327 O328 1.247 . S
O328 C327 1.247 . S
C329 O341 1.242 . S
C329 O342 1.258 . S
C330 C326 1.503 . S
C330 C331 1.379 . S
C330 C335 1.392 . S
C331 C330 1.379 . S
C331 C332 1.404 . S
C331 H345 0.929 . S
C332 C331 1.404 . S
C332 C333 1.389 . S
C333 C332 1.389 . S
C333 C334 1.399 . S
C333 H346 0.931 1_655 S
C334 C333 1.399 . S
C334 C335 1.390 . S
C335 C330 1.392 . S
C335 C334 1.390 . S
C335 H347 0.929 . S
O336 Tb320 2.326 . S
O336 C324 1.242 . S
O337 Eu321 2.324 . S
O337 C324 1.258 . S
O338 Tb320 2.500 . S
O338 C340 1.273 . S
O339 Tb320 2.473 . S
O339 C340 1.257 . S
C340 O338 1.273 . S
C340 O339 1.257 . S
O341 Eu321 2.326 . S
O341 C329 1.242 . S
O342 Tb320 2.324 . S
O342 C329 1.258 . S
O343 Eu321 2.500 . S
O343 C326 1.273 . S
O344 Eu321 2.473 . S
O344 C326 1.257 . S
H345 C331 0.929 . S
H346 C333 0.931 1_455 S
H347 C335 0.929 . S
C348 C349 1.387 . S
C348 H352 0.950 . S
C348 C357 1.390 1_556 S
C349 C348 1.387 . S
C349 C351 1.387 . S
H350 C357 0.950 . S
C351 C349 1.387 . S
C351 C353 1.390 1_556 S
C351 H355 0.950 . S
H352 C348 0.950 . S
C353 C351 1.390 1_554 S
C353 C354 1.387 . S
C353 H356 0.950 . S
C354 C353 1.387 . S
C354 C357 1.387 . S
H355 C351 0.950 . S
H356 C353 0.950 . S
C357 C348 1.390 1_554 S
C357 H350 0.950 . S
C357 C354 1.387 . S
C358 C359 1.387 . S
C358 H362 0.950 . S
C358 C367 1.390 . S
C359 C358 1.387 . S
C359 C361 1.387 1_554 S
H360 C367 0.950 . S
C361 C359 1.387 1_556 S
C361 C363 1.390 . S
C361 H365 0.950 . S
H362 C358 0.950 . S
C363 C361 1.390 . S
C363 C364 1.387 . S
C363 H366 0.950 . S
C364 C363 1.387 . S
C364 C367 1.387 1_556 S
H365 C361 0.950 . S
H366 C363 0.950 . S
C367 C358 1.390 . S
C367 H360 0.950 . S
C367 C364 1.387 1_554 S
C368 C369 1.387 1_556 S
C368 H372 0.950 . S
C368 C377 1.390 . S
C369 C368 1.387 1_554 S
C369 C371 1.387 . S
H370 C377 0.950 . S
C371 C369 1.387 . S
C371 C373 1.390 . S
C371 H375 0.950 . S
H372 C368 0.950 . S
C373 C371 1.390 . S
C373 C374 1.387 1_554 S
C373 H376 0.950 . S
C374 C373 1.387 1_556 S
C374 C377 1.387 . S
H375 C371 0.950 . S
H376 C373 0.950 . S
C377 C368 1.390 . S
C377 H370 0.950 . S
C377 C374 1.387 . S
C378 C379 1.387 . S
C378 H382 0.950 . S
C378 C387 1.390 . S
C379 C378 1.387 . S
C379 C381 1.387 . S
H380 C387 0.950 . S
C381 C379 1.387 . S
C381 C383 1.390 . S
C381 H385 0.950 . S
H382 C378 0.950 . S
C383 C381 1.390 . S
C383 C384 1.387 . S
C383 H386 0.950 . S
C384 C383 1.387 . S
C384 C387 1.387 . S
H385 C381 0.950 . S
H386 C383 0.950 . S
C387 C378 1.390 . S
C387 H380 0.950 . S
C387 C384 1.387 . S
C388 C389 1.387 . S
C388 H392 0.950 . S
C388 C397 1.390 . S
C389 C388 1.387 . S
C389 C391 1.387 . S
H390 C397 0.950 . S
C391 C389 1.387 . S
C391 C393 1.390 . S
C391 H395 0.950 . S
H392 C388 0.950 . S
C393 C391 1.390 . S
C393 C394 1.387 . S
C393 H396 0.950 . S
C394 C393 1.387 . S
C394 C397 1.387 . S
H395 C391 0.950 . S
H396 C393 0.950 . S
C397 C388 1.390 . S
C397 H390 0.950 . S
C397 C394 1.387 . S
C398 C399 1.387 . S
C398 H402 0.950 . S
C398 C407 1.390 . S
C399 C398 1.387 . S
C399 C401 1.387 . S
H400 C407 0.950 . S
C401 C399 1.387 . S
C401 C403 1.390 . S
C401 H405 0.950 . S
H402 C398 0.950 . S
C403 C401 1.390 . S
C403 C404 1.387 . S
C403 H406 0.950 . S
C404 C403 1.387 . S
C404 C407 1.387 . S
H405 C401 0.950 . S
H406 C403 0.950 . S
C407 C398 1.390 . S
C407 H400 0.950 . S
C407 C404 1.387 . S
C408 C409 1.387 . S
C408 H412 0.950 . S
C408 C417 1.390 1_556 S
C409 C408 1.387 . S
C409 C411 1.387 . S
H410 C417 0.950 . S
C411 C409 1.387 . S
C411 C413 1.390 1_556 S
C411 H415 0.950 . S
H412 C408 0.950 . S
C413 C411 1.390 1_554 S
C413 C414 1.387 . S
C413 H416 0.950 . S
C414 C413 1.387 . S
C414 C417 1.387 . S
H415 C411 0.950 . S
H416 C413 0.950 . S
C417 C408 1.390 1_554 S
C417 H410 0.950 . S
C417 C414 1.387 . S
C418 C419 1.387 . S
C418 H422 0.950 . S
C418 C427 1.390 . S
C419 C418 1.387 . S
C419 C421 1.387 1_556 S
H420 C427 0.950 . S
C421 C419 1.387 1_554 S
C421 C423 1.390 . S
C421 H425 0.950 . S
H422 C418 0.950 . S
C423 C421 1.390 . S
C423 C424 1.387 . S
C423 H426 0.950 . S
C424 C423 1.387 . S
C424 C427 1.387 1_554 S
H425 C421 0.950 . S
H426 C423 0.950 . S
C427 C418 1.390 . S
C427 H420 0.950 . S
C427 C424 1.387 1_556 S
C428 C429 1.387 . S
C428 H432 0.950 . S
C428 C437 1.390 . S
C429 C428 1.387 . S
C429 C431 1.387 1_554 S
H430 C437 0.950 . S
C431 C429 1.387 1_556 S
C431 C433 1.390 . S
C431 H435 0.950 . S
H432 C428 0.950 . S
C433 C431 1.390 . S
C433 C434 1.387 . S
C433 H436 0.950 . S
C434 C433 1.387 . S
C434 C437 1.387 1_556 S
H435 C431 0.950 . S
H436 C433 0.950 . S
C437 C428 1.390 . S
C437 H430 0.950 . S
C437 C434 1.387 1_554 S
C438 C439 1.387 . S
C438 H442 0.950 . S
C438 C447 1.390 . S
C439 C438 1.387 . S
C439 C441 1.387 . S
H440 C447 0.950 . S
C441 C439 1.387 . S
C441 C443 1.390 . S
C441 H445 0.950 . S
H442 C438 0.950 . S
C443 C441 1.390 . S
C443 C444 1.387 . S
C443 H446 0.950 . S
C444 C443 1.387 . S
C444 C447 1.387 . S
H445 C441 0.950 . S
H446 C443 0.950 . S
C447 C438 1.390 . S
C447 H440 0.950 . S
C447 C444 1.387 . S
C448 C449 1.387 . S
C448 H452 0.950 . S
C448 C457 1.390 . S
C449 C448 1.387 . S
C449 C451 1.387 . S
H450 C457 0.950 . S
C451 C449 1.387 . S
C451 C453 1.390 . S
C451 H455 0.950 . S
H452 C448 0.950 . S
C453 C451 1.390 . S
C453 C454 1.387 . S
C453 H456 0.950 . S
C454 C453 1.387 . S
C454 C457 1.387 . S
H455 C451 0.950 . S
H456 C453 0.950 . S
C457 C448 1.390 . S
C457 H450 0.950 . S
C457 C454 1.387 . S
C458 C459 1.387 . S
C458 H462 0.950 . S
C458 C467 1.390 . S
C459 C458 1.387 . S
C459 C461 1.387 . S
H460 C467 0.950 . S
C461 C459 1.387 . S
C461 C463 1.390 . S
C461 H465 0.950 . S
H462 C458 0.950 . S
C463 C461 1.390 . S
C463 C464 1.387 . S
C463 H466 0.950 . S
C464 C463 1.387 . S
C464 C467 1.387 . S
H465 C461 0.950 . S
H466 C463 0.950 . S
C467 C458 1.390 . S
C467 H460 0.950 . S
C467 C464 1.387 . S
C468 C469 1.387 . S
C468 H472 0.950 . S
C468 C477 1.390 . S
C469 C468 1.387 . S
C469 C471 1.387 . S
H470 C477 0.950 . S
C471 C469 1.387 . S
C471 C473 1.390 . S
C471 H475 0.950 . S
H472 C468 0.950 . S
C473 C471 1.390 . S
C473 C474 1.387 . S
C473 H476 0.950 . S
C474 C473 1.387 . S
C474 C477 1.387 . S
H475 C471 0.950 . S
H476 C473 0.950 . S
C477 C468 1.390 . S
C477 H470 0.950 . S
C477 C474 1.387 . S
C478 C479 1.387 . S
C478 H482 0.950 . S
C478 C487 1.390 . S
C479 C478 1.387 . S
C479 C481 1.388 1_545 S
H480 C487 0.953 . S
C481 C479 1.388 1_565 S
C481 C483 1.390 . S
C481 H485 0.953 . S
H482 C478 0.950 . S
C483 C481 1.390 . S
C483 C484 1.387 . S
C483 H486 0.950 . S
C484 C483 1.387 . S
C484 C487 1.388 1_565 S
H485 C481 0.953 . S
H486 C483 0.950 . S
C487 C478 1.390 . S
C487 H480 0.953 . S
C487 C484 1.388 1_545 S
C488 C489 1.387 . S
C488 H492 0.950 . S
C488 C497 1.390 . S
C489 C488 1.387 . S
C489 C491 1.387 1_655 S
H490 C497 0.950 . S
C491 C489 1.387 1_455 S
C491 C493 1.390 . S
C491 H495 0.950 . S
H492 C488 0.950 . S
C493 C491 1.390 . S
C493 C494 1.387 . S
C493 H496 0.950 . S
C494 C493 1.387 . S
C494 C497 1.387 1_455 S
H495 C491 0.950 . S
H496 C493 0.950 . S
C497 C488 1.390 . S
C497 H490 0.950 . S
C497 C494 1.387 1_655 S
C498 C499 1.387 . S
C498 H502 0.950 . S
C498 C507 1.390 . S
C499 C498 1.387 . S
C499 C501 1.387 . S
H500 C507 0.950 . S
C501 C499 1.387 . S
C501 C503 1.390 . S
C501 H505 0.950 . S
H502 C498 0.950 . S
C503 C501 1.390 . S
C503 C504 1.387 . S
C503 H506 0.950 . S
C504 C503 1.387 . S
C504 C507 1.387 . S
H505 C501 0.950 . S
H506 C503 0.950 . S
C507 C498 1.390 . S
C507 H500 0.950 . S
C507 C504 1.387 . S
C508 C509 1.387 . S
C508 H512 0.946 . S
C508 C517 1.390 1_545 S
C509 C508 1.387 . S
C509 C511 1.387 . S
H510 C517 0.950 . S
C511 C509 1.387 . S
C511 C513 1.390 1_545 S
C511 H515 0.950 . S
H512 C508 0.946 . S
C513 C511 1.390 1_565 S
C513 C514 1.387 . S
C513 H516 0.946 . S
C514 C513 1.387 . S
C514 C517 1.387 . S
H515 C511 0.950 . S
H516 C513 0.946 . S
C517 C508 1.390 1_565 S
C517 H510 0.950 . S
C517 C514 1.387 . S
C518 C519 1.387 . S
C518 H522 0.950 . S
C518 C527 1.390 . S
C519 C518 1.387 . S
C519 C521 1.387 1_655 S
H520 C527 0.950 . S
C521 C519 1.387 1_455 S
C521 C523 1.390 . S
C521 H525 0.950 . S
H522 C518 0.950 . S
C523 C521 1.390 . S
C523 C524 1.387 . S
C523 H526 0.950 . S
C524 C523 1.387 . S
C524 C527 1.387 1_455 S
H525 C521 0.950 . S
H526 C523 0.950 . S
C527 C518 1.390 . S
C527 H520 0.950 . S
C527 C524 1.387 1_655 S
C528 C529 1.387 . S
C528 H532 0.950 . S
C528 C537 1.390 . S
C529 C528 1.387 . S
C529 C531 1.387 . S
H530 C537 0.950 . S
C531 C529 1.387 . S
C531 C533 1.390 . S
C531 H535 0.950 . S
H532 C528 0.950 . S
C533 C531 1.390 . S
C533 C534 1.387 . S
C533 H536 0.950 . S
C534 C533 1.387 . S
C534 C537 1.387 . S
H535 C531 0.950 . S
H536 C533 0.950 . S
C537 C528 1.390 . S
C537 H530 0.950 . S
C537 C534 1.387 . S
C538 C539 1.387 . S
C538 H542 0.950 . S
C538 C547 1.390 . S
C539 C538 1.387 . S
C539 C541 1.387 . S
H540 C547 0.950 . S
C541 C539 1.387 . S
C541 C543 1.390 . S
C541 H545 0.950 . S
H542 C538 0.950 . S
C543 C541 1.390 . S
C543 C544 1.387 . S
C543 H546 0.950 . S
C544 C543 1.387 . S
C544 C547 1.387 . S
H545 C541 0.950 . S
H546 C543 0.950 . S
C547 C538 1.390 . S
C547 H540 0.950 . S
C547 C544 1.387 . S
C548 C549 1.387 . S
C548 H552 0.950 . S
C548 C557 1.390 . S
C549 C548 1.387 . S
C549 C551 1.387 . S
H550 C557 0.950 . S
C551 C549 1.387 . S
C551 C553 1.390 . S
C551 H555 0.950 . S
H552 C548 0.950 . S
C553 C551 1.390 . S
C553 C554 1.387 . S
C553 H556 0.950 . S
C554 C553 1.387 . S
C554 C557 1.387 . S
H555 C551 0.950 . S
H556 C553 0.950 . S
C557 C548 1.390 . S
C557 H550 0.950 . S
C557 C554 1.387 . S
C558 C559 1.387 . S
C558 H562 0.950 . S
C558 C567 1.390 . S
C559 C558 1.387 . S
C559 C561 1.387 . S
H560 C567 0.950 . S
C561 C559 1.387 . S
C561 C563 1.390 . S
C561 H565 0.950 . S
H562 C558 0.950 . S
C563 C561 1.390 . S
C563 C564 1.387 . S
C563 H566 0.950 . S
C564 C563 1.387 . S
C564 C567 1.387 . S
H565 C561 0.950 . S
H566 C563 0.950 . S
C567 C558 1.390 . S
C567 H560 0.950 . S
C567 C564 1.387 . S
C568 C569 1.387 . S
C568 H572 0.950 . S
C568 C577 1.390 . S
C569 C568 1.387 . S
C569 C571 1.387 . S
H570 C577 0.950 . S
C571 C569 1.387 . S
C571 C573 1.390 . S
C571 H575 0.950 . S
H572 C568 0.950 . S
C573 C571 1.390 . S
C573 C574 1.387 . S
C573 H576 0.950 . S
C574 C573 1.387 . S
C574 C577 1.387 . S
H575 C571 0.950 . S
H576 C573 0.950 . S
C577 C568 1.390 . S
C577 H570 0.950 . S
C577 C574 1.387 . S
C578 C579 1.387 . S
C578 H582 0.950 . S
C578 C587 1.390 . S
C579 C578 1.387 . S
C579 C581 1.387 . S
H580 C587 0.950 . S
C581 C579 1.387 . S
C581 C583 1.390 . S
C581 H585 0.950 . S
H582 C578 0.950 . S
C583 C581 1.390 . S
C583 C584 1.387 . S
C583 H586 0.950 . S
C584 C583 1.387 . S
C584 C587 1.387 . S
H585 C581 0.950 . S
H586 C583 0.950 . S
C587 C578 1.390 . S
C587 H580 0.950 . S
C587 C584 1.387 . S
C588 C589 1.387 . S
C588 H592 0.950 . S
C588 C597 1.390 . S
C589 C588 1.387 . S
C589 C591 1.387 . S
H590 C597 0.950 . S
C591 C589 1.387 . S
C591 C593 1.390 . S
C591 H595 0.950 . S
H592 C588 0.950 . S
C593 C591 1.390 . S
C593 C594 1.387 . S
C593 H596 0.950 . S
C594 C593 1.387 . S
C594 C597 1.387 . S
H595 C591 0.950 . S
H596 C593 0.950 . S
C597 C588 1.390 . S
C597 H590 0.950 . S
C597 C594 1.387 . S
C598 C599 1.387 . S
C598 H602 0.950 . S
C598 C607 1.390 . S
C599 C598 1.387 . S
C599 C601 1.387 . S
H600 C607 0.950 . S
C601 C599 1.387 . S
C601 C603 1.390 . S
C601 H605 0.950 . S
H602 C598 0.950 . S
C603 C601 1.390 . S
C603 C604 1.387 . S
C603 H606 0.950 . S
C604 C603 1.387 . S
C604 C607 1.387 . S
H605 C601 0.950 . S
H606 C603 0.950 . S
C607 C598 1.390 . S
C607 H600 0.950 . S
C607 C604 1.387 . S
C608 C609 1.387 . S
C608 H612 0.950 1_556 S
C608 C617 1.390 . S
C609 C608 1.387 . S
C609 C611 1.387 . S
H610 C617 0.950 . S
C611 C609 1.387 . S
C611 C613 1.390 . S
C611 H615 0.950 . S
H612 C608 0.950 1_554 S
C613 C611 1.390 . S
C613 C614 1.387 . S
C613 H616 0.950 . S
C614 C613 1.387 . S
C614 C617 1.387 . S
H615 C611 0.950 . S
H616 C613 0.950 . S
C617 C608 1.390 . S
C617 H610 0.950 . S
C617 C614 1.387 . S
C618 C619 1.387 . S
C618 H622 0.950 . S
C618 C627 1.390 . S
C619 C618 1.387 . S
C619 C621 1.387 . S
H620 C627 0.950 . S
C621 C619 1.387 . S
C621 C623 1.390 . S
C621 H625 0.950 . S
H622 C618 0.950 . S
C623 C621 1.390 . S
C623 C624 1.387 . S
C623 H626 0.950 . S
C624 C623 1.387 . S
C624 C627 1.387 . S
H625 C621 0.950 . S
H626 C623 0.950 . S
C627 C618 1.390 . S
C627 H620 0.950 . S
C627 C624 1.387 . S
C628 C629 1.387 . S
C628 H632 0.950 . S
C628 C637 1.390 . S
C629 C628 1.387 . S
C629 C631 1.387 . S
H630 C637 0.950 . S
C631 C629 1.387 . S
C631 C633 1.390 . S
C631 H635 0.950 . S
H632 C628 0.950 . S
C633 C631 1.390 . S
C633 C634 1.387 . S
C633 H636 0.950 . S
C634 C633 1.387 . S
C634 C637 1.387 . S
H635 C631 0.950 . S
H636 C633 0.950 . S
C637 C628 1.390 . S
C637 H630 0.950 . S
C637 C634 1.387 . S
C638 C639 1.387 . S
C638 H642 0.950 . S
C638 C647 1.390 . S
C639 C638 1.387 . S
C639 C641 1.387 . S
H640 C647 0.950 . S
C641 C639 1.387 . S
C641 C643 1.390 . S
C641 H645 0.950 . S
H642 C638 0.950 . S
C643 C641 1.390 . S
C643 C644 1.387 . S
C643 H646 0.950 . S
C644 C643 1.387 . S
C644 C647 1.387 . S
H645 C641 0.950 . S
H646 C643 0.950 . S
C647 C638 1.390 . S
C647 H640 0.950 . S
C647 C644 1.387 . S
C648 C649 1.387 . S
C648 H652 0.950 . S
C648 C657 1.390 . S
C649 C648 1.387 . S
C649 C651 1.387 . S
H650 C657 0.950 . S
C651 C649 1.387 . S
C651 C653 1.390 . S
C651 H655 0.950 . S
H652 C648 0.950 . S
C653 C651 1.390 . S
C653 C654 1.387 . S
C653 H656 0.950 . S
C654 C653 1.387 . S
C654 C657 1.387 . S
H655 C651 0.950 . S
H656 C653 0.950 . S
C657 C648 1.390 . S
C657 H650 0.950 . S
C657 C654 1.387 . S
C658 C659 1.387 . S
C658 H662 0.950 . S
C658 C667 1.390 . S
C659 C658 1.387 . S
C659 C661 1.387 . S
H660 C667 0.950 . S
C661 C659 1.387 . S
C661 C663 1.390 . S
C661 H665 0.950 . S
H662 C658 0.950 . S
C663 C661 1.390 . S
C663 C664 1.387 . S
C663 H666 0.950 . S
C664 C663 1.387 . S
C664 C667 1.387 . S
H665 C661 0.950 . S
H666 C663 0.950 . S
C667 C658 1.390 . S
C667 H660 0.950 . S
C667 C664 1.387 . S
C668 C669 1.387 . S
C668 H672 0.950 . S
C668 C677 1.390 . S
C669 C668 1.387 . S
C669 C671 1.387 . S
H670 C677 0.950 . S
C671 C669 1.387 . S
C671 C673 1.390 . S
C671 H675 0.950 . S
H672 C668 0.950 . S
C673 C671 1.390 . S
C673 C674 1.387 . S
C673 H676 0.950 . S
C674 C673 1.387 . S
C674 C677 1.387 . S
H675 C671 0.950 . S
H676 C673 0.950 . S
C677 C668 1.390 . S
C677 H670 0.950 . S
C677 C674 1.387 . S
C678 C679 1.387 . S
C678 H682 0.950 . S
C678 C687 1.390 . S
C679 C678 1.387 . S
C679 C681 1.387 . S
H680 C687 0.950 . S
C681 C679 1.387 . S
C681 C683 1.390 . S
C681 H685 0.950 . S
H682 C678 0.950 . S
C683 C681 1.390 . S
C683 C684 1.387 . S
C683 H686 0.950 . S
C684 C683 1.387 . S
C684 C687 1.387 . S
H685 C681 0.950 . S
H686 C683 0.950 . S
C687 C678 1.390 . S
C687 H680 0.950 . S
C687 C684 1.387 . S
C688 C689 1.387 . S
C688 H692 0.950 . S
C688 C697 1.390 . S
C689 C688 1.387 . S
C689 C691 1.387 . S
H690 C697 0.950 . S
C691 C689 1.387 . S
C691 C693 1.390 . S
C691 H695 0.950 . S
H692 C688 0.950 . S
C693 C691 1.390 . S
C693 C694 1.387 . S
C693 H696 0.950 . S
C694 C693 1.387 . S
C694 C697 1.387 . S
H695 C691 0.950 . S
H696 C693 0.950 . S
C697 C688 1.390 . S
C697 H690 0.950 . S
C697 C694 1.387 . S
C698 C699 1.387 . S
C698 H702 0.950 . S
C698 C707 1.390 . S
C699 C698 1.387 . S
C699 C701 1.387 . S
H700 C707 0.950 . S
C701 C699 1.387 . S
C701 C703 1.390 . S
C701 H705 0.950 . S
H702 C698 0.950 . S
C703 C701 1.390 . S
C703 C704 1.387 . S
C703 H706 0.950 . S
C704 C703 1.387 . S
C704 C707 1.387 . S
H705 C701 0.950 . S
H706 C703 0.950 . S
C707 C698 1.390 . S
C707 H700 0.950 . S
C707 C704 1.387 . S
C708 C709 1.387 . S
C708 H712 0.950 . S
C708 C717 1.390 . S
C709 C708 1.387 . S
C709 C711 1.387 . S
H710 C717 0.950 . S
C711 C709 1.387 . S
C711 C713 1.390 . S
C711 H715 0.950 . S
H712 C708 0.950 . S
C713 C711 1.390 . S
C713 C714 1.387 . S
C713 H716 0.950 . S
C714 C713 1.387 . S
C714 C717 1.387 . S
H715 C711 0.950 . S
H716 C713 0.950 . S
C717 C708 1.390 . S
C717 H710 0.950 . S
C717 C714 1.387 . S
C718 C719 1.387 . S
C718 H722 0.950 . S
C718 C727 1.390 . S
C719 C718 1.387 . S
C719 C721 1.387 . S
H720 C727 0.950 . S
C721 C719 1.387 . S
C721 C723 1.390 . S
C721 H725 0.950 . S
H722 C718 0.950 . S
C723 C721 1.390 . S
C723 C724 1.387 . S
C723 H726 0.950 . S
C724 C723 1.387 . S
C724 C727 1.387 . S
H725 C721 0.950 . S
H726 C723 0.950 . S
C727 C718 1.390 . S
C727 H720 0.950 . S
C727 C724 1.387 . S
C728 C729 1.387 . S
C728 H732 0.950 . S
C728 C737 1.390 . S
C729 C728 1.387 . S
C729 C731 1.387 . S
H730 C737 0.950 . S
C731 C729 1.387 . S
C731 C733 1.390 . S
C731 H735 0.950 . S
H732 C728 0.950 . S
C733 C731 1.390 . S
C733 C734 1.387 . S
C733 H736 0.950 . S
C734 C733 1.387 . S
C734 C737 1.387 . S
H735 C731 0.950 . S
H736 C733 0.950 . S
C737 C728 1.390 . S
C737 H730 0.950 . S
C737 C734 1.387 . S
C738 C739 1.387 . S
C738 H742 0.950 . S
C738 C747 1.390 . S
C739 C738 1.387 . S
C739 C741 1.387 . S
H740 C747 0.950 . S
C741 C739 1.387 . S
C741 C743 1.390 . S
C741 H745 0.950 . S
H742 C738 0.950 . S
C743 C741 1.390 . S
C743 C744 1.387 . S
C743 H746 0.950 . S
C744 C743 1.387 . S
C744 C747 1.387 . S
H745 C741 0.950 . S
H746 C743 0.950 . S
C747 C738 1.390 . S
C747 H740 0.950 . S
C747 C744 1.387 . S
C748 C749 1.387 . S
C748 H752 0.950 . S
C748 C757 1.390 . S
C749 C748 1.387 . S
C749 C751 1.387 . S
H750 C757 0.950 . S
C751 C749 1.387 . S
C751 C753 1.390 . S
C751 H755 0.950 . S
H752 C748 0.950 . S
C753 C751 1.390 . S
C753 C754 1.387 . S
C753 H756 0.950 . S
C754 C753 1.387 . S
C754 C757 1.387 . S
H755 C751 0.950 . S
H756 C753 0.950 . S
C757 C748 1.390 . S
C757 H750 0.950 . S
C757 C754 1.387 . S
C758 C759 1.387 . S
C758 H762 0.950 . S
C758 C767 1.390 . S
C759 C758 1.387 . S
C759 C761 1.387 . S
H760 C767 0.950 . S
C761 C759 1.387 . S
C761 C763 1.390 . S
C761 H765 0.950 . S
H762 C758 0.950 . S
C763 C761 1.390 . S
C763 C764 1.387 . S
C763 H766 0.950 . S
C764 C763 1.387 . S
C764 C767 1.387 . S
H765 C761 0.950 . S
H766 C763 0.950 . S
C767 C758 1.390 . S
C767 H760 0.950 . S
C767 C764 1.387 . S
C349 C216 2.289 1_545 S
C354 C5 2.479 . S
C359 C34 2.479 . S
C364 C245 2.288 1_655 S
C369 C63 2.479 . S
C374 C187 2.287 . S
C379 C92 2.478 . S
C384 C332 2.286 1_455 S
C389 C274 2.287 . S
C394 C121 2.478 . S
C399 C150 2.479 . S
C404 C303 2.289 1_565 S
C409 C179 2.479 . S
C414 C42 2.289 1_565 S
C419 C208 2.478 . S
C424 C71 2.286 1_455 S
C429 C13 2.287 . S
C434 C237 2.478 . S
C439 C266 2.479 . S
C444 C158 2.288 1_655 S
C449 C295 2.478 . S
C454 C100 2.287 . S
C459 C129 2.289 1_545 S
C464 C324 2.479 . S
C469 C15 1.814 . S
C474 C102 1.813 . S
C479 C44 1.816 . S
C484 C131 1.816 . S
C489 C73 1.815 . S
C494 C160 1.816 . S
C499 C276 1.813 . S
C504 C189 1.815 . S
C509 C305 1.813 . S
C514 C218 1.813 . S
C519 C334 1.814 . S
C524 C247 1.813 . S
C529 C21 1.906 . S
C534 C39 1.691 . S
C539 C50 1.907 . S
C544 C68 1.691 . S
C549 C79 1.906 . S
C554 C10 1.691 . S
C559 C155 1.696 . S
C564 C108 1.906 . S
C569 C137 1.905 . S
C574 C97 1.694 . S
C579 C126 1.691 . S
C584 C166 1.906 . S
C589 C213 1.691 . S
C594 C195 1.906 . S
C599 C224 1.906 . S
C604 C242 1.691 . S
C609 C253 1.905 . S
C614 C184 1.694 . S
C619 C282 1.905 . S
C624 C329 1.694 . S
C629 C311 1.905 . S
C634 C271 1.694 . S
C639 C340 1.906 . S
C644 C300 1.691 . S
C649 C298 1.346 . S
C654 C3 1.370 . S
C659 C327 1.344 . S
C664 C32 1.370 . S
C669 C61 1.370 . S
C674 C269 1.346 . S
C679 C90 1.368 . S
C684 C240 1.346 . S
C689 C119 1.367 . S
C694 C182 1.342 . S
C699 C211 1.347 . S
C704 C148 1.369 . S
C709 C177 1.367 . S
C714 C124 1.342 . S
C719 C206 1.370 . S
C724 C153 1.346 . S
C729 C235 1.366 . S
C734 C95 1.343 . S
C739 C264 1.368 . S
C744 C66 1.346 . S
C749 C293 1.366 . S
C754 C8 1.343 . S
C759 C322 1.370 . S
C764 C37 1.344 . S
