# Generated by pormake.
# Topology und, (4)-cn, num edge types: 1
# Building blocks:
#     Node 0, Type 0, BuildingBlock: CEKHIL_clean_sbu_0, # of connection points: 4
#     Node 1, Type 0, BuildingBlock: CEKHIL_clean_sbu_0, # of connection points: 4
#     Node 2, Type 0, BuildingBlock: CEKHIL_clean_sbu_0, # of connection points: 4
#     Node 3, Type 0, BuildingBlock: CEKHIL_clean_sbu_0, # of connection points: 4
#     Node 4, Type 0, BuildingBlock: CEKHIL_clean_sbu_0, # of connection points: 4
#     Node 5, Type 0, BuildingBlock: CEKHIL_clean_sbu_0, # of connection points: 4
#     Node 6, Type 0, BuildingBlock: CEKHIL_clean_sbu_0, # of connection points: 4
#     Node 7, Type 0, BuildingBlock: CEKHIL_clean_sbu_0, # of connection points: 4
#     Node 8, Type 0, BuildingBlock: CEKHIL_clean_sbu_0, # of connection points: 4
#     Node 9, Type 0, BuildingBlock: CEKHIL_clean_sbu_0, # of connection points: 4
#     Node 10, Type 0, BuildingBlock: CEKHIL_clean_sbu_0, # of connection points: 4
#     Node 11, Type 0, BuildingBlock: CEKHIL_clean_sbu_0, # of connection points: 4
#     Node 12, Type 0, BuildingBlock: CEKHIL_clean_sbu_0, # of connection points: 4
#     Node 13, Type 0, BuildingBlock: CEKHIL_clean_sbu_0, # of connection points: 4
#     Node 14, Type 0, BuildingBlock: CEKHIL_clean_sbu_0, # of connection points: 4
#     Node 15, Type 0, BuildingBlock: CEKHIL_clean_sbu_0, # of connection points: 4
#     Edge 16, Type (0, 0), BuildingBlock: TEMPAE_clean_linker_10, # of connection points: 2
#     Edge 17, Type (0, 0), BuildingBlock: TEMPAE_clean_linker_10, # of connection points: 2
#     Edge 18, Type (0, 0), BuildingBlock: TEMPAE_clean_linker_10, # of connection points: 2
#     Edge 19, Type (0, 0), BuildingBlock: TEMPAE_clean_linker_10, # of connection points: 2
#     Edge 20, Type (0, 0), BuildingBlock: TEMPAE_clean_linker_10, # of connection points: 2
#     Edge 21, Type (0, 0), BuildingBlock: TEMPAE_clean_linker_10, # of connection points: 2
#     Edge 22, Type (0, 0), BuildingBlock: TEMPAE_clean_linker_10, # of connection points: 2
#     Edge 23, Type (0, 0), BuildingBlock: TEMPAE_clean_linker_10, # of connection points: 2
#     Edge 24, Type (0, 0), BuildingBlock: TEMPAE_clean_linker_10, # of connection points: 2
#     Edge 25, Type (0, 0), BuildingBlock: TEMPAE_clean_linker_10, # of connection points: 2
#     Edge 26, Type (0, 0), BuildingBlock: TEMPAE_clean_linker_10, # of connection points: 2
#     Edge 27, Type (0, 0), BuildingBlock: TEMPAE_clean_linker_10, # of connection points: 2
#     Edge 28, Type (0, 0), BuildingBlock: TEMPAE_clean_linker_10, # of connection points: 2
#     Edge 29, Type (0, 0), BuildingBlock: TEMPAE_clean_linker_10, # of connection points: 2
#     Edge 30, Type (0, 0), BuildingBlock: TEMPAE_clean_linker_10, # of connection points: 2
#     Edge 31, Type (0, 0), BuildingBlock: TEMPAE_clean_linker_10, # of connection points: 2
#     Edge 32, Type (0, 0), BuildingBlock: TEMPAE_clean_linker_10, # of connection points: 2
#     Edge 33, Type (0, 0), BuildingBlock: TEMPAE_clean_linker_10, # of connection points: 2
#     Edge 34, Type (0, 0), BuildingBlock: TEMPAE_clean_linker_10, # of connection points: 2
#     Edge 35, Type (0, 0), BuildingBlock: TEMPAE_clean_linker_10, # of connection points: 2
#     Edge 36, Type (0, 0), BuildingBlock: TEMPAE_clean_linker_10, # of connection points: 2
#     Edge 37, Type (0, 0), BuildingBlock: TEMPAE_clean_linker_10, # of connection points: 2
#     Edge 38, Type (0, 0), BuildingBlock: TEMPAE_clean_linker_10, # of connection points: 2
#     Edge 39, Type (0, 0), BuildingBlock: TEMPAE_clean_linker_10, # of connection points: 2
#     Edge 40, Type (0, 0), BuildingBlock: TEMPAE_clean_linker_10, # of connection points: 2
#     Edge 41, Type (0, 0), BuildingBlock: TEMPAE_clean_linker_10, # of connection points: 2
#     Edge 42, Type (0, 0), BuildingBlock: TEMPAE_clean_linker_10, # of connection points: 2
#     Edge 43, Type (0, 0), BuildingBlock: TEMPAE_clean_linker_10, # of connection points: 2
#     Edge 44, Type (0, 0), BuildingBlock: TEMPAE_clean_linker_10, # of connection points: 2
#     Edge 45, Type (0, 0), BuildingBlock: TEMPAE_clean_linker_10, # of connection points: 2
#     Edge 46, Type (0, 0), BuildingBlock: TEMPAE_clean_linker_10, # of connection points: 2
#     Edge 47, Type (0, 0), BuildingBlock: TEMPAE_clean_linker_10, # of connection points: 2
# Relax obj value: 0.006
# Max RMSD: 0.041
# Mean RMSD: 0.041
data_MOF--net-und--node1-CEKHIL_clean_sbu_0--edge1-TEMPAE_clean_linker_10
_symmetry_space_group_name_H-M    P1
_symmetry_Int_Tables_number       1
_symmetry_cell_setting            triclinic
loop_
_symmetry_equiv_pos_as_xyz
'x, y, z'
_cell_length_a     60.177106
_cell_length_b     60.176392
_cell_length_c     22.28363
_cell_angle_alpha  90.011514
_cell_angle_beta   90.036716
_cell_angle_gamma 93.561784
loop_
_atom_site_label
_atom_site_type_symbol
_atom_site_fract_x
_atom_site_fract_y
_atom_site_fract_z
_atom_type_partial_charge
Co0 Co 0.24616 0.35249 0.04496 0.0
O1 O 0.23748 0.37368 0.10319 0.0
O2 O 0.22061 0.36797 0.01605 0.0
C3 C 0.24875 0.32495 0.11222 0.0
O4 O 0.25082 0.33091 0.97508 0.0
Co5 Co 0.29253 0.33328 0.0581 0.0
O6 O 0.28065 0.31162 0.99736 0.0
C7 C 0.28902 0.37908 0.01341 0.0
C8 C 0.22162 0.3785 0.06726 0.0
C9 C 0.2638 0.31501 0.96463 0.0
O10 O 0.26776 0.37568 0.00854 0.0
O11 O 0.30148 0.36501 0.03726 0.0
O12 O 0.22969 0.32855 0.08806 0.0
O13 O 0.2651 0.33887 0.09834 0.0
Co14 Co 0.9171 0.02467 0.24808 0.0
O15 O 0.89665 0.03272 0.18695 0.0
O16 O 0.90044 0.04983 0.27427 0.0
C17 C 0.94608 0.02265 0.18516 0.0
O18 O 0.93768 0.02077 0.32075 0.0
Co19 Co 0.9371 0.97853 0.23821 0.0
O20 O 0.95514 0.98896 0.30808 0.0
C21 C 0.8907 0.98131 0.27761 0.0
C22 C 0.89087 0.04855 0.22172 0.0
C23 C 0.95179 0.00661 0.33749 0.0
O24 O 0.8938 0.0026 0.28251 0.0
O25 O 0.9052 0.96907 0.25493 0.0
O26 O 0.94123 0.04168 0.20727 0.0
O27 O 0.93228 0.00601 0.19708 0.0
Co28 Co 0.25874 0.68221 0.53871 0.0
O29 O 0.26553 0.66104 0.59923 0.0
O30 O 0.28419 0.66568 0.51445 0.0
C31 C 0.25585 0.71021 0.60463 0.0
O32 O 0.25645 0.70365 0.46718 0.0
Co33 Co 0.21344 0.7041 0.54196 0.0
O34 O 0.22902 0.72619 0.48861 0.0
C35 C 0.21605 0.65888 0.49122 0.0
C36 C 0.28203 0.65569 0.56625 0.0
C37 C 0.24557 0.72114 0.45695 0.0
O38 O 0.23723 0.6596 0.49958 0.0
O39 O 0.20365 0.67442 0.50667 0.0
O40 O 0.27514 0.7056 0.58362 0.0
O41 O 0.23921 0.69702 0.58815 0.0
Co42 Co 0.58505 0.00873 0.74931 0.0
O43 O 0.60537 1.00031 0.68862 0.0
O44 O 0.59965 0.98198 0.77355 0.0
C45 C 0.55707 0.01379 0.68476 0.0
O46 O 0.56426 0.01314 0.82096 0.0
Co47 Co 0.56909 0.05666 0.74271 0.0
O48 O 0.54968 0.04659 0.81039 0.0
C49 C 0.61414 0.04952 0.78611 0.0
C50 C 0.60993 0.98367 0.72204 0.0
C51 C 0.55126 0.02824 0.83819 0.0
O52 O 0.6094 0.02842 0.78795 0.0
O53 O 0.60116 0.06349 0.76429 0.0
O54 O 0.56015 0.99412 0.70578 0.0
O55 O 0.57193 0.02925 0.69915 0.0
Co56 Co 0.7592 0.68286 0.99719 0.0
O57 O 0.76636 0.66197 0.93636 0.0
O58 O 0.78409 0.66585 0.02288 0.0
C59 C 0.75732 0.71167 0.93356 0.0
O60 O 0.75617 0.70377 0.06937 0.0
Co61 Co 0.71313 0.70336 0.98895 0.0
O62 O 0.72394 0.72081 0.05958 0.0
C63 C 0.7158 0.65704 0.02861 0.0
C64 C 0.78228 0.65606 0.97072 0.0
C65 C 0.74199 0.71762 0.0874 0.0
O66 O 0.73707 0.66016 0.03351 0.0
O67 O 0.70353 0.67141 0.00542 0.0
O68 O 0.77637 0.70637 0.95464 0.0
O69 O 0.74045 0.69835 0.94717 0.0
Co70 Co 0.0866 0.00994 0.78937 0.0
O71 O 0.10879 0.00278 0.84696 0.0
O72 O 0.10303 0.98507 0.76089 0.0
C73 C 0.05921 0.01165 0.85776 0.0
O74 O 0.06435 0.01292 0.72011 0.0
Co75 Co 0.06455 0.05514 0.80025 0.0
O76 O 0.04285 0.04116 0.74247 0.0
C77 C 0.11052 0.05377 0.75397 0.0
C78 C 0.11393 0.98689 0.81143 0.0
C79 C 0.04738 0.02457 0.71013 0.0
O80 O 0.10839 0.03239 0.75072 0.0
O81 O 0.09575 0.06558 0.77727 0.0
O82 O 0.0639 0.99266 0.83492 0.0
O83 O 0.0721 0.02854 0.84177 0.0
Co84 Co 0.74303 0.35206 0.50019 0.0
O85 O 0.73672 0.37414 0.44148 0.0
O86 O 0.71902 0.36981 0.52791 0.0
C87 C 0.74351 0.32402 0.43372 0.0
O88 O 0.74516 0.33016 0.57059 0.0
Co89 Co 0.78737 0.3283 0.4907 0.0
O90 O 0.77271 0.30761 0.54968 0.0
C91 C 0.78766 0.37444 0.5365 0.0
C92 C 0.72112 0.38021 0.4767 0.0
C93 C 0.7563 0.31291 0.58163 0.0
O94 O 0.76624 0.37321 0.53804 0.0
O95 O 0.79902 0.35906 0.51453 0.0
O96 O 0.72476 0.32988 0.45549 0.0
O97 O 0.76097 0.33627 0.44886 0.0
Co98 Co 0.41606 0.02468 0.28975 0.0
O99 O 0.39363 0.0311 0.34725 0.0
O100 O 0.39856 0.04869 0.26078 0.0
C101 C 0.44372 0.02438 0.35759 0.0
O102 O 0.43841 0.02234 0.22054 0.0
Co103 Co 0.43941 0.98026 0.30143 0.0
O104 O 0.46056 0.99462 0.24305 0.0
C105 C 0.39363 0.98006 0.25338 0.0
C106 C 0.38781 0.04663 0.31146 0.0
C107 C 0.45562 0.01103 0.21054 0.0
O108 O 0.39507 0.00147 0.25132 0.0
O109 O 0.40875 0.96863 0.2765 0.0
O110 O 0.438 0.04303 0.33487 0.0
O111 O 0.4315 0.00687 0.34242 0.0
Co112 Co 0.74392 0.85204 0.53778 0.0
O113 O 0.73571 0.87373 0.59533 0.0
O114 O 0.71849 0.86757 0.50876 0.0
C115 C 0.74627 0.82482 0.60614 0.0
O116 O 0.74796 0.83006 0.46857 0.0
Co117 Co 0.78979 0.83181 0.54989 0.0
O118 O 0.7769 0.80965 0.49172 0.0
C119 C 0.7871 0.87747 0.50263 0.0
C120 C 0.71974 0.87836 0.55953 0.0
C121 C 0.76022 0.81353 0.45893 0.0
O122 O 0.76573 0.87471 0.49988 0.0
O123 O 0.79939 0.86309 0.52584 0.0
O124 O 0.72723 0.82862 0.58213 0.0
O125 O 0.76283 0.83834 0.59128 0.0
Co126 Co 0.41708 0.5262 0.75267 0.0
O127 O 0.39431 0.53353 0.69693 0.0
O128 O 0.40107 0.55098 0.78312 0.0
C129 C 0.44397 0.52474 0.68322 0.0
O130 O 0.43995 0.52299 0.82039 0.0
Co131 Co 0.43837 0.48067 0.73884 0.0
O132 O 0.45947 0.49313 0.80005 0.0
C133 C 0.39297 0.48238 0.78811 0.0
C134 C 0.38966 0.5493 0.73343 0.0
C135 C 0.45596 0.51021 0.83171 0.0
O136 O 0.39556 0.50373 0.79223 0.0
O137 O 0.40727 0.47049 0.76304 0.0
O138 O 0.43923 0.54371 0.70597 0.0
O139 O 0.43122 0.50773 0.69902 0.0
Co140 Co 0.75835 0.1826 0.04082 0.0
O141 O 0.76658 0.16048 0.09735 0.0
O142 O 0.78407 0.16754 0.01163 0.0
C143 C 0.75544 0.20939 0.11039 0.0
O144 O 0.75429 0.205 0.97235 0.0
Co145 Co 0.71201 0.20231 0.05389 0.0
O146 O 0.72267 0.22239 0.98854 0.0
C147 C 0.71552 0.15817 0.99729 0.0
C148 C 0.78266 0.15623 0.06152 0.0
C149 C 0.74023 0.21956 0.95826 0.0
O150 O 0.73691 0.16001 1.00077 0.0
O151 O 0.70286 0.17247 0.01913 0.0
O152 O 0.77462 0.20589 0.08689 0.0
O153 O 0.7391 0.19576 0.0946 0.0
Co154 Co 0.08515 0.5082 0.24987 0.0
O155 O 0.10721 0.50133 0.19172 0.0
O156 O 0.10104 0.48262 0.27601 0.0
C157 C 0.05812 0.51128 0.18143 0.0
O158 O 0.06294 0.51056 0.31946 0.0
Co159 Co 0.06326 0.55338 0.24476 0.0
O160 O 0.04073 0.53817 0.29752 0.0
C161 C 0.10781 0.55076 0.29999 0.0
C162 C 0.112 0.48488 0.2257 0.0
C163 C 0.04552 0.52156 0.32931 0.0
O164 O 0.10733 0.52961 0.29108 0.0
O165 O 0.09239 0.56311 0.2832 0.0
O166 O 0.06218 0.49194 0.20308 0.0
O167 O 0.07119 0.52787 0.19873 0.0
Co168 Co 0.26007 0.1829 0.5036 0.0
O169 O 0.26609 0.16125 0.44346 0.0
O170 O 0.2842 0.16496 0.52954 0.0
C171 C 0.2593 0.21149 0.43889 0.0
O172 O 0.25832 0.2043 0.57523 0.0
Co173 Co 0.21534 0.20605 0.49627 0.0
O174 O 0.22734 0.22339 0.56574 0.0
C175 C 0.21565 0.1595 0.53699 0.0
C176 C 0.28179 0.15488 0.47793 0.0
C177 C 0.2452 0.21918 0.59306 0.0
O178 O 0.23702 0.16135 0.54087 0.0
O179 O 0.20418 0.17466 0.5144 0.0
O180 O 0.27812 0.20545 0.45983 0.0
O181 O 0.24192 0.19905 0.45362 0.0
Co182 Co 0.58657 0.51168 0.2933 0.0
O183 O 0.60828 0.50427 0.35198 0.0
O184 O 0.60289 0.48661 0.26571 0.0
C185 C 0.55877 0.51386 0.36006 0.0
O186 O 0.56492 0.51475 0.2229 0.0
Co187 Co 0.56538 0.55728 0.30245 0.0
O188 O 0.54642 0.54594 0.23517 0.0
C189 C 0.61131 0.55518 0.25727 0.0
C190 C 0.61356 0.4884 0.31659 0.0
C191 C 0.55004 0.52814 0.20687 0.0
O192 O 0.60895 0.53377 0.25526 0.0
O193 O 0.59667 0.56726 0.27992 0.0
O194 O 0.56323 0.49477 0.33747 0.0
O195 O 0.57206 0.53058 0.3451 0.0
Co196 Co 0.24453 0.85171 0.997 0.0
O197 O 0.23694 0.87291 0.93742 0.0
O198 O 0.21998 0.86885 0.02488 0.0
C199 C 0.24549 0.8231 0.93256 0.0
O200 O 0.24822 0.83046 0.06821 0.0
Co201 Co 0.29021 0.83074 0.9839 0.0
O202 O 0.2798 0.81273 0.05377 0.0
C203 C 0.28856 0.8768 0.02706 0.0
C204 C 0.22142 0.87885 0.97296 0.0
C205 C 0.26232 0.81613 0.08385 0.0
O206 O 0.26727 0.87409 0.03241 0.0
O207 O 0.30041 0.86232 1.0027 0.0
O208 O 0.2267 0.82842 0.95512 0.0
O209 O 0.26254 0.83636 0.9448 0.0
Co210 Co 0.91618 0.52411 0.78991 0.0
O211 O 0.89418 0.53202 0.84711 0.0
O212 O 0.89986 0.5487 0.75947 0.0
C213 C 0.94397 0.52303 0.857 0.0
O214 O 0.93812 0.52013 0.72065 0.0
Co215 Co 0.93679 0.47822 0.80532 0.0
O216 O 0.95498 0.48804 0.73515 0.0
C217 C 0.89105 0.48025 0.75975 0.0
C218 C 0.88905 0.54746 0.81015 0.0
C219 C 0.9521 0.50569 0.70522 0.0
O220 O 0.8941 0.50146 0.75308 0.0
O221 O 0.90514 0.46839 0.78582 0.0
O222 O 0.93901 0.54185 0.83373 0.0
O223 O 0.93086 0.50601 0.84335 0.0
C224 C 0.2396 0.28716 0.15386 0.0
C225 C 0.25096 0.30806 0.15881 0.0
C226 C 0.24125 0.2712 0.19926 0.0
C227 C 0.25376 0.27678 0.25162 0.0
C228 C 0.26497 0.29806 0.257 0.0
C229 C 0.26381 0.31331 0.20982 0.0
C230 C 0.22979 0.24836 0.19103 0.0
C231 C 0.27781 0.30487 0.313 0.0
C232 C 0.24012 0.24231 0.39082 0.0
C233 C 0.2583 0.22896 0.39328 0.0
C234 C 0.23865 0.25836 0.34559 0.0
C235 C 0.25531 0.26031 0.30067 0.0
C236 C 0.27358 0.24661 0.30276 0.0
C237 C 0.27507 0.23138 0.34987 0.0
C238 C 0.21938 0.27328 0.34599 0.0
C239 C 0.29125 0.24768 0.25455 0.0
H240 H 0.22974 0.28321 0.11408 0.0
H241 H 0.27234 0.32966 0.21369 0.0
H242 H 0.24203 0.23543 0.19603 0.0
H243 H 0.21696 0.24525 0.22622 0.0
H244 H 0.22168 0.24637 0.14639 0.0
H245 H 0.28475 0.3224 0.31099 0.0
H246 H 0.2668 0.30292 0.35283 0.0
H247 H 0.29174 0.29391 0.31977 0.0
H248 H 0.22721 0.24036 0.42468 0.0
H249 H 0.28897 0.22074 0.35151 0.0
H250 H 0.20911 0.27035 0.30508 0.0
H251 H 0.2257 0.291 0.3454 0.0
H252 H 0.20853 0.27043 0.38593 0.0
H253 H 0.28341 0.24465 0.20994 0.0
H254 H 0.30391 0.23527 0.26169 0.0
H255 H 0.29984 0.26452 0.25331 0.0
C256 C 0.96888 0.99121 0.42906 0.0
C257 C 0.96438 0.0099 0.39443 0.0
C258 C 0.98198 0.99318 0.48111 0.0
C259 C 0.99137 0.01434 0.49853 0.0
C260 C 0.98678 0.03336 0.46401 0.0
C261 C 0.97307 0.03096 0.41272 0.0
C262 C 0.98582 0.97255 0.51737 0.0
C263 C 0.9968 0.05616 0.48049 0.0
C264 C 0.01011 0.02294 0.66061 0.0
C265 C 0.033 0.01988 0.65699 0.0
C266 C 0.99637 0.02094 0.60966 0.0
C267 C 0.00583 0.01641 0.55312 0.0
C268 C 0.02895 0.01321 0.54922 0.0
C269 C 0.04221 0.01466 0.60139 0.0
C270 C 0.97173 0.02373 0.61636 0.0
C271 C 0.03977 0.00875 0.48968 0.0
H272 H 0.96204 0.97489 0.4154 0.0
H273 H 0.9698 0.0454 0.3858 0.0
H274 H 0.00381 0.96956 0.51802 0.0
H275 H 0.98058 0.97492 0.56456 0.0
H276 H 0.97656 0.95749 0.49912 0.0
H277 H 0.99183 0.06922 0.44881 0.0
H278 H 0.99156 0.06067 0.52639 0.0
H279 H 0.01523 0.05603 0.48078 0.0
H280 H 0.00293 0.02697 0.70359 0.0
H281 H 0.05995 0.01265 0.59826 0.0
H282 H 0.96212 0.00872 0.59915 0.0
H283 H 0.96686 0.03809 0.58925 0.0
H284 H 0.96688 0.02645 0.66376 0.0
H285 H 0.03222 0.99316 0.46981 0.0
H286 H 0.05801 0.00725 0.49392 0.0
H287 H 0.03678 0.02244 0.45786 0.0
C288 C 0.23366 0.72887 0.68198 0.0
C289 C 0.25348 0.72792 0.64935 0.0
C290 C 0.23186 0.74434 0.72846 0.0
C291 C 0.25021 0.75938 0.74182 0.0
C292 C 0.27003 0.75891 0.70785 0.0
C293 C 0.27148 0.74306 0.66216 0.0
C294 C 0.21052 0.74427 0.76413 0.0
C295 C 0.2898 0.77498 0.72023 0.0
C296 C 0.23903 0.81184 0.8275 0.0
C297 C 0.24632 0.80654 0.88498 0.0
C298 C 0.24031 0.79665 0.78024 0.0
C299 C 0.2487 0.77559 0.79149 0.0
C300 C 0.25579 0.7701 0.85004 0.0
C301 C 0.25474 0.78585 0.89622 0.0
C302 C 0.23299 0.80322 0.71822 0.0
C303 C 0.26447 0.74765 0.86378 0.0
H304 H 0.21974 0.7171 0.67232 0.0
H305 H 0.2868 0.7424 0.63683 0.0
H306 H 0.21399 0.7409 0.81208 0.0
H307 H 0.20351 0.76086 0.76177 0.0
H308 H 0.19776 0.73156 0.74775 0.0
H309 H 0.30368 0.77293 0.68828 0.0
H310 H 0.28475 0.79237 0.71738 0.0
H311 H 0.296 0.77245 0.76646 0.0
H312 H 0.23266 0.82805 0.81942 0.0
H313 H 0.26035 0.78199 0.94109 0.0
H314 H 0.21941 0.79139 0.70212 0.0
H315 H 0.24704 0.80237 0.68627 0.0
H316 H 0.22702 0.82032 0.71709 0.0
H317 H 0.25186 0.73423 0.85115 0.0
H318 H 0.26865 0.7458 0.91202 0.0
H319 H 0.27961 0.74522 0.83677 0.0
C320 C 0.49255 0.01186 0.15952 0.0
C321 C 0.46982 0.01582 0.15713 0.0
C322 C 0.50602 0.01375 0.10814 0.0
C323 C 0.49647 0.01921 0.0524 0.0
C324 C 0.47355 0.02343 0.04973 0.0
C325 C 0.46054 0.02195 0.10232 0.0
C326 C 0.53048 0.00976 0.11351 0.0
C327 C 0.46265 0.02897 0.99104 0.0
C328 C 0.53434 0.04383 0.92975 0.0
C329 C 0.538 0.02518 0.89404 0.0
C330 C 0.52108 0.04204 0.98146 0.0
C331 C 0.51068 0.02115 0.99743 0.0
C332 C 0.5143 0.00219 0.96161 0.0
C333 C 0.52819 0.00437 0.9107 0.0
C334 C 0.51827 0.06255 0.01917 0.0
C335 C 0.50321 0.9797 0.97657 0.0
H336 H 0.49981 0.00715 0.20185 0.0
H337 H 0.44292 0.02468 0.10007 0.0
H338 H 0.5345 0.99541 0.08514 0.0
H339 H 0.54065 0.02451 0.09697 0.0
H340 H 0.53546 0.00635 0.16046 0.0
H341 H 0.44461 0.0314 0.99625 0.0
H342 H 0.47087 0.04437 0.9718 0.0
H343 H 0.46471 0.01538 0.95822 0.0
H344 H 0.54206 0.05995 0.91741 0.0
H345 H 0.53083 0.98997 0.88298 0.0
H346 H 0.52375 0.05958 0.06589 0.0
H347 H 0.50045 0.06621 0.02105 0.0
H348 H 0.52794 0.07744 1.00139 0.0
H349 H 0.5085 0.97436 0.02174 0.0
H350 H 0.50725 0.96674 0.94349 0.0
H351 H 0.48488 0.98079 0.97792 0.0
C352 C 0.23857 0.79401 0.15846 0.0
C353 C 0.25936 0.80351 0.14068 0.0
C354 C 0.23659 0.78024 0.20966 0.0
C355 C 0.25575 0.77645 0.24456 0.0
C356 C 0.27661 0.78664 0.2276 0.0
C357 C 0.27819 0.79977 0.17561 0.0
C358 C 0.21411 0.76938 0.22575 0.0
C359 C 0.29733 0.78368 0.26434 0.0
C360 C 0.24723 0.7582 0.40677 0.0
C361 C 0.25076 0.73538 0.40388 0.0
C362 C 0.24906 0.77175 0.35553 0.0
C363 C 0.25406 0.76219 0.29948 0.0
C364 C 0.25798 0.7392 0.29636 0.0
C365 C 0.25653 0.7261 0.34881 0.0
C366 C 0.24541 0.79626 0.36135 0.0
C367 C 0.26309 0.72833 0.23734 0.0
H368 H 0.22405 0.79669 0.13123 0.0
H369 H 0.29429 0.80725 0.16224 0.0
H370 H 0.215 0.75101 0.22663 0.0
H371 H 0.20921 0.7746 0.27136 0.0
H372 H 0.20094 0.77365 0.19355 0.0
H373 H 0.31214 0.79333 0.24605 0.0
H374 H 0.29468 0.78907 0.31129 0.0
H375 H 0.30092 0.76583 0.26573 0.0
H376 H 0.24278 0.76545 0.44933 0.0
H377 H 0.25891 0.70842 0.3462 0.0
H378 H 0.23087 0.80047 0.33392 0.0
H379 H 0.26011 0.8063 0.34399 0.0
H380 H 0.24245 0.80124 0.40855 0.0
H381 H 0.24928 0.73046 0.20522 0.0
H382 H 0.26549 0.71027 0.24231 0.0
H383 H 0.27837 0.73651 0.21739 0.0
C384 C 0.47368 0.00497 0.40919 0.0
C385 C 0.46117 0.02368 0.4035 0.0
C386 C 0.4898 0.00393 0.45445 0.0
C387 C 0.49272 0.02165 0.49614 0.0
C388 C 0.47995 0.04051 0.49068 0.0
C389 C 0.46459 0.04147 0.44361 0.0
C390 C 0.50369 0.9839 0.45764 0.0
C391 C 0.48207 0.05938 0.53542 0.0
C392 C 0.5186 0.00739 0.64541 0.0
C393 C 0.54014 0.01718 0.63895 0.0
C394 C 0.50273 0.00931 0.59989 0.0
C395 C 0.509 0.0204 0.54584 0.0
C396 C 0.53087 0.03017 0.53914 0.0
C397 C 0.54608 0.02884 0.58646 0.0
C398 C 0.47932 0.99944 0.60953 0.0
C399 C 0.5384 0.04137 0.48135 0.0
H400 H 0.47103 0.99127 0.37784 0.0
H401 H 0.45466 0.05583 0.43948 0.0
H402 H 0.52165 0.98934 0.45777 0.0
H403 H 0.50018 0.97471 0.50003 0.0
H404 H 0.50037 0.9723 0.41945 0.0
H405 H 0.47053 0.07262 0.52548 0.0
H406 H 0.47853 0.05291 0.58128 0.0
H407 H 0.49934 0.06696 0.53562 0.0
H408 H 0.51416 0.99838 0.68625 0.0
H409 H 0.56294 0.03607 0.58141 0.0
H410 H 0.47558 0.98575 0.57707 0.0
H411 H 0.46717 0.01225 0.60136 0.0
H412 H 0.47678 0.99277 0.65566 0.0
H413 H 0.5362 0.02944 0.44353 0.0
H414 H 0.55614 0.04768 0.48302 0.0
H415 H 0.52804 0.05553 0.47145 0.0
C416 C 0.23347 0.22991 0.69505 0.0
C417 C 0.24967 0.23127 0.64985 0.0
C418 C 0.23566 0.24313 0.74686 0.0
C419 C 0.25421 0.25863 0.75289 0.0
C420 C 0.27075 0.25996 0.70738 0.0
C421 C 0.2684 0.24605 0.65655 0.0
C422 C 0.21796 0.24067 0.79483 0.0
C423 C 0.29057 0.27652 0.71162 0.0
C424 C 0.24811 0.30714 0.86119 0.0
C425 C 0.26008 0.30034 0.91127 0.0
C426 C 0.24627 0.29388 0.80903 0.0
C427 C 0.25634 0.27318 0.80725 0.0
C428 C 0.268 0.26605 0.85816 0.0
C429 C 0.26983 0.27972 0.9092 0.0
C430 C 0.23382 0.30215 0.75551 0.0
C431 C 0.27858 0.24393 0.85879 0.0
H432 H 0.21891 0.21854 0.68948 0.0
H433 H 0.28069 0.24737 0.62097 0.0
H434 H 0.22565 0.237 0.8387 0.0
H435 H 0.20967 0.25652 0.79989 0.0
H436 H 0.20508 0.22719 0.78441 0.0
H437 H 0.30191 0.27554 0.67251 0.0
H438 H 0.28482 0.29366 0.71435 0.0
H439 H 0.30012 0.2736 0.75316 0.0
H440 H 0.24068 0.32309 0.86214 0.0
H441 H 0.27898 0.27418 0.94776 0.0
H442 H 0.21968 0.29018 0.74419 0.0
H443 H 0.24498 0.30329 0.71584 0.0
H444 H 0.22726 0.31875 0.76359 0.0
H445 H 0.26578 0.23025 0.84999 0.0
H446 H 0.28682 0.24066 0.90227 0.0
H447 H 0.29117 0.24346 0.82254 0.0
C448 C 0.0385 0.03411 0.93037 0.0
C449 C 0.04155 0.01356 0.90295 0.0
C450 C 0.02289 0.0359 0.97651 0.0
C451 C 0.01002 0.01669 0.99535 0.0
C452 C 0.01273 0.99598 0.96703 0.0
C453 C 0.02851 0.99466 0.9211 0.0
C454 C 0.02039 0.05828 0.00563 0.0
C455 C 0.99915 0.97519 0.98572 0.0
C456 C 0.98443 0.01648 0.15102 0.0
C457 C 0.96258 0.02127 0.13761 0.0
C458 C 1.00016 0.01495 0.10497 0.0
C459 C 0.99366 0.01829 0.04463 0.0
C460 C 0.97148 0.02316 0.03128 0.0
C461 C 0.95617 0.0246 0.07818 0.0
C462 C 0.02368 0.00976 0.12075 0.0
C463 C 0.96395 0.0268 0.96757 0.0
H464 H 0.04857 0.04877 0.91649 0.0
H465 H 0.03082 0.97874 0.89997 0.0
H466 H 0.00293 0.063 1.00163 0.0
H467 H 0.02426 0.0573 0.05421 0.0
H468 H 0.03151 0.07164 0.98523 0.0
H469 H 0.00303 0.96046 0.9585 0.0
H470 H 0.00234 0.97152 0.03365 0.0
H471 H 0.98113 0.97778 0.98125 0.0
H472 H 0.98914 0.0139 0.19737 0.0
H473 H 0.93911 0.02829 0.0685 0.0
H474 H 0.03554 0.02331 0.10457 0.0
H475 H 0.02801 0.99422 0.09798 0.0
H476 H 0.02604 0.00775 0.16986 0.0
H477 H 0.97408 0.04084 0.94709 0.0
H478 H 0.94611 0.03049 0.96498 0.0
H479 H 0.96651 0.01178 0.94017 0.0
C480 C 0.77119 0.72969 0.84009 0.0
C481 C 0.75586 0.7288 0.88731 0.0
C482 C 0.76937 0.74485 0.79297 0.0
C483 C 0.75237 0.76006 0.79474 0.0
C484 C 0.73714 0.75955 0.84331 0.0
C485 C 0.73877 0.7435 0.88852 0.0
C486 C 0.78536 0.74431 0.74084 0.0
C487 C 0.71934 0.77608 0.84778 0.0
C488 C 0.76282 0.81217 0.70109 0.0
C489 C 0.74831 0.80787 0.6528 0.0
C490 C 0.76388 0.79696 0.74843 0.0
C491 C 0.75075 0.77664 0.74597 0.0
C492 C 0.73645 0.772 0.6964 0.0
C493 C 0.73507 0.78793 0.65083 0.0
C494 C 0.77878 0.80279 0.80145 0.0
C495 C 0.72283 0.75015 0.69121 0.0
H496 H 0.78418 0.71798 0.83903 0.0
H497 H 0.72698 0.74267 0.92535 0.0
H498 H 0.77596 0.74208 0.69817 0.0
H499 H 0.79538 0.76036 0.73771 0.0
H500 H 0.7969 0.73068 0.74501 0.0
H501 H 0.70952 0.77408 0.88985 0.0
H502 H 0.72706 0.79331 0.84601 0.0
H503 H 0.7078 0.77408 0.80909 0.0
H504 H 0.77282 0.82778 0.70281 0.0
H505 H 0.72391 0.78469 0.61319 0.0
H506 H 0.79186 0.79067 0.80529 0.0
H507 H 0.76892 0.80175 0.84355 0.0
H508 H 0.787 0.81978 0.79779 0.0
H509 H 0.73392 0.7361 0.69352 0.0
H510 H 0.71321 0.74883 0.64865 0.0
H511 H 0.71103 0.74822 0.7293 0.0
C512 C 0.76151 0.2917 0.38986 0.0
C513 C 0.74445 0.30643 0.38849 0.0
C514 C 0.76292 0.27535 0.34539 0.0
C515 C 0.7475 0.27455 0.29724 0.0
C516 C 0.7304 0.28966 0.29548 0.0
C517 C 0.7288 0.30515 0.342 0.0
C518 C 0.78082 0.25893 0.34998 0.0
C519 C 0.71418 0.28987 0.24375 0.0
C520 C 0.76564 0.24664 0.15429 0.0
C521 C 0.75287 0.22643 0.15654 0.0
C522 C 0.76368 0.26273 0.19921 0.0
C523 C 0.7493 0.25798 0.24849 0.0
C524 C 0.73658 0.23742 0.25117 0.0
C525 C 0.7382 0.22204 0.2044 0.0
C526 C 0.77687 0.28482 0.19379 0.0
C527 C 0.72167 0.23146 0.304 0.0
H528 H 0.77355 0.29278 0.42613 0.0
H529 H 0.7158 0.31685 0.34083 0.0
H530 H 0.77325 0.24165 0.34758 0.0
H531 H 0.7925 0.26117 0.31169 0.0
H532 H 0.79048 0.26086 0.39236 0.0
H533 H 0.70228 0.30316 0.24841 0.0
H534 H 0.72341 0.29243 0.20096 0.0
H535 H 0.70456 0.27359 0.24049 0.0
H536 H 0.7769 0.24997 0.11695 0.0
H537 H 0.72855 0.20623 0.20629 0.0
H538 H 0.78881 0.28694 0.23159 0.0
H539 H 0.76553 0.29864 0.19647 0.0
H540 H 0.78631 0.28632 0.15101 0.0
H541 H 0.73151 0.23248 0.34615 0.0
H542 H 0.71353 0.21444 0.30011 0.0
H543 H 0.70853 0.24351 0.30794 0.0
C544 C 0.76397 0.2415 0.88299 0.0
C545 C 0.74307 0.23272 0.9022 0.0
C546 C 0.76596 0.25511 0.83148 0.0
C547 C 0.7467 0.25944 0.79762 0.0
C548 C 0.72568 0.25009 0.81623 0.0
C549 C 0.72411 0.23714 0.86853 0.0
C550 C 0.78862 0.26512 0.81372 0.0
C551 C 0.70481 0.25362 0.78064 0.0
C552 C 0.74647 0.30906 0.69073 0.0
C553 C 0.75141 0.29917 0.63579 0.0
C554 C 0.74521 0.29642 0.74398 0.0
C555 C 0.74841 0.27326 0.74187 0.0
C556 C 0.7526 0.26312 0.68602 0.0
C557 C 0.75434 0.27623 0.63393 0.0
C558 C 0.74106 0.30793 0.80273 0.0
C559 C 0.7554 0.23841 0.68127 0.0
H560 H 0.77861 0.23824 0.90912 0.0
H561 H 0.70792 0.23018 0.88282 0.0
H562 H 0.79305 0.25923 0.76837 0.0
H563 H 0.78829 0.28352 0.81141 0.0
H564 H 0.80182 0.26078 0.84574 0.0
H565 H 0.68982 0.24475 0.80045 0.0
H566 H 0.70196 0.27163 0.7783 0.0
H567 H 0.70678 0.24768 0.7339 0.0
H568 H 0.74457 0.32685 0.69249 0.0
H569 H 0.75818 0.26853 0.59148 0.0
H570 H 0.75504 0.30552 0.83411 0.0
H571 H 0.72571 0.30046 0.82404 0.0
H572 H 0.73929 0.32607 0.79697 0.0
H573 H 0.76999 0.23391 0.70805 0.0
H574 H 0.75776 0.23297 0.63418 0.0
H575 H 0.74056 0.22897 0.70002 0.0
C576 C 0.76612 0.74136 0.15744 0.0
C577 C 0.74568 0.72999 0.14431 0.0
C578 C 0.76851 0.75515 0.20852 0.0
C579 C 0.75021 0.75704 0.24805 0.0
C580 C 0.72982 0.74489 0.23584 0.0
C581 C 0.72773 0.73181 0.18377 0.0
C582 C 0.79039 0.76816 0.21936 0.0
C583 C 0.71012 0.7458 0.27755 0.0
C584 C 0.76213 0.77675 0.40783 0.0
C585 C 0.75599 0.79887 0.40601 0.0
C586 C 0.76016 0.76295 0.35703 0.0
C587 C 0.75231 0.77157 0.30243 0.0
C588 C 0.74592 0.79386 0.30034 0.0
C589 C 0.74758 0.80718 0.35238 0.0
C590 C 0.7665 0.73912 0.36185 0.0
C591 C 0.73773 0.80378 0.24281 0.0
H592 H 0.77991 0.74016 0.12658 0.0
H593 H 0.71193 0.72293 0.17377 0.0
H594 H 0.78772 0.78624 0.22034 0.0
H595 H 0.79724 0.76374 0.26369 0.0
H596 H 0.80292 0.76503 0.18426 0.0
H597 H 0.6958 0.73453 0.26305 0.0
H598 H 0.71496 0.74111 0.32369 0.0
H599 H 0.70462 0.76303 0.27965 0.0
H600 H 0.76854 0.77018 0.44926 0.0
H601 H 0.74306 0.82432 0.35051 0.0
H602 H 0.78037 0.73623 0.33061 0.0
H603 H 0.75221 0.72762 0.34856 0.0
H604 H 0.77172 0.73479 0.408 0.0
H605 H 0.75052 0.80267 0.20724 0.0
H606 H 0.7339 0.8215 0.24821 0.0
H607 H 0.7225 0.7942 0.22704 0.0
C608 C 0.51984 0.50799 0.14746 0.0
C609 C 0.53757 0.52412 0.15059 0.0
C610 C 0.50618 0.50617 0.0961 0.0
C611 C 0.51063 0.52065 0.04667 0.0
C612 C 0.52885 0.53669 0.04958 0.0
C613 C 0.54193 0.53838 0.1018 0.0
C614 C 0.48679 0.48902 0.09506 0.0
C615 C 0.53448 0.55214 0.99766 0.0
C616 C 0.48943 0.502 0.89286 0.0
C617 C 0.47046 0.51427 0.88543 0.0
C618 C 0.50256 0.50398 0.94485 0.0
C619 C 0.49672 0.5186 0.99111 0.0
C620 C 0.47785 0.53135 0.98376 0.0
C621 C 0.46496 0.52908 0.93096 0.0
C622 C 0.52263 0.49022 0.95045 0.0
C623 C 0.47109 0.54715 0.03209 0.0
H624 H 0.51627 0.49729 0.18585 0.0
H625 H 0.55553 0.55103 0.1048 0.0
H626 H 0.47105 0.49733 0.08785 0.0
H627 H 0.48862 0.47735 0.0571 0.0
H628 H 0.48537 0.47928 0.13737 0.0
H629 H 0.54938 0.56348 0.0068 0.0
H630 H 0.53764 0.54231 0.95674 0.0
H631 H 0.52019 0.56234 0.98778 0.0
H632 H 0.49402 0.49057 0.85805 0.0
H633 H 0.45033 0.53855 0.92596 0.0
H634 H 0.52075 0.4791 0.99006 0.0
H635 H 0.53786 0.50127 0.95763 0.0
H636 H 0.52511 0.47983 0.91007 0.0
H637 H 0.46754 0.53783 0.07433 0.0
H638 H 0.45611 0.556 0.01945 0.0
H639 H 0.48495 0.55968 0.04152 0.0
C640 C 0.00875 0.5212 0.38106 0.0
C641 C 0.03132 0.51656 0.38257 0.0
C642 C 0.99545 0.51938 0.43276 0.0
C643 C 0.00503 0.51322 0.48787 0.0
C644 C 0.02773 0.50814 0.48954 0.0
C645 C 0.04056 0.50963 0.43667 0.0
C646 C 0.97119 0.5243 0.42849 0.0
C647 C 0.03863 0.50176 0.54754 0.0
C648 C 0.97511 0.52895 0.63158 0.0
C649 C 0.96473 0.50844 0.64843 0.0
C650 C 0.98859 0.53073 0.57984 0.0
C651 C 0.99112 0.51169 0.54339 0.0
C652 C 0.98005 0.49113 0.5595 0.0
C653 C 0.96729 0.4897 0.61216 0.0
C654 C 1.00046 0.55285 0.56478 0.0
C655 C 0.98164 0.47061 0.52107 0.0
H656 H 0.00151 0.52652 0.33927 0.0
H657 H 0.05806 0.50633 0.43826 0.0
H658 H 0.96057 0.50991 0.44535 0.0
H659 H 0.96791 0.53881 0.45714 0.0
H660 H 0.96609 0.52797 0.38179 0.0
H661 H 0.05644 0.49846 0.54144 0.0
H662 H 0.03745 0.51534 0.58089 0.0
H663 H 0.02979 0.48666 0.56664 0.0
H664 H 0.9733 0.54339 0.65986 0.0
H665 H 0.95911 0.47384 0.62487 0.0
H666 H 0.99511 0.55853 0.52 0.0
H667 H 0.01868 0.55099 0.56247 0.0
H668 H 0.99721 0.5659 0.59834 0.0
H669 H 0.97607 0.47402 0.47468 0.0
H670 H 0.9714 0.45609 0.53886 0.0
H671 H 0.9992 0.4661 0.51831 0.0
C672 C 0.04593 0.52746 0.08571 0.0
C673 C 0.04109 0.5138 0.13537 0.0
C674 C 0.03055 0.52885 0.03886 0.0
C675 C 0.00954 0.51702 0.04336 0.0
C676 C 0.00436 0.50372 0.09451 0.0
C677 C 0.02046 0.50187 0.13946 0.0
C678 C 0.03695 0.54256 0.98406 0.0
C679 C 0.9818 0.49158 0.10191 0.0
C680 C 0.96335 0.53814 0.94747 0.0
C681 C 0.96131 0.52181 0.9028 0.0
C682 C 0.97871 0.53654 0.99427 0.0
C683 C 0.99295 0.51869 0.99463 0.0
C684 C 0.99135 0.50248 0.94842 0.0
C685 C 0.97512 0.50397 0.90363 0.0
C686 C 0.97936 0.55365 0.04396 0.0
C687 C 0.00684 0.48371 0.94611 0.0
H688 H 0.06208 0.53643 0.08253 0.0
H689 H 0.01683 0.49139 0.17825 0.0
H690 H 0.03529 0.53201 0.94324 0.0
H691 H 0.02555 0.5562 0.97863 0.0
H692 H 0.0543 0.54997 0.98663 0.0
H693 H 0.98005 0.48297 0.1459 0.0
H694 H 0.96851 0.50349 0.09791 0.0
H695 H 0.97903 0.47905 0.06575 0.0
H696 H 0.95236 0.55176 0.94694 0.0
H697 H 0.97346 0.49143 0.8687 0.0
H698 H 0.99596 0.56272 0.04564 0.0
H699 H 0.97668 0.54524 0.08793 0.0
H700 H 0.96652 0.56597 0.03813 0.0
H701 H 0.02441 0.49052 0.94702 0.0
H702 H 0.00424 0.47328 0.90526 0.0
H703 H 0.00428 0.4729 0.98612 0.0
C704 C 0.46136 0.53806 0.58833 0.0
C705 C 0.46095 0.52322 0.63664 0.0
C706 C 0.47668 0.53629 0.54154 0.0
C707 C 0.49253 0.51991 0.54485 0.0
C708 C 0.49246 0.50519 0.59451 0.0
C709 C 0.47624 0.5067 0.6393 0.0
C710 C 0.47571 0.55171 0.48827 0.0
C711 C 0.50967 0.48812 0.60073 0.0
C712 C 0.52186 0.50204 0.40374 0.0
C713 C 0.54139 0.51589 0.40558 0.0
C714 C 0.50554 0.50346 0.44829 0.0
C715 C 0.50939 0.51845 0.49675 0.0
C716 C 0.52929 0.53224 0.49904 0.0
C717 C 0.54488 0.53109 0.45269 0.0
C718 C 0.48415 0.48907 0.44329 0.0
C719 C 0.53431 0.54789 0.551 0.0
H720 H 0.44923 0.55065 0.5863 0.0
H721 H 0.47582 0.49532 0.67705 0.0
H722 H 0.49139 0.56232 0.48494 0.0
H723 H 0.47403 0.54186 0.44622 0.0
H724 H 0.46157 0.5627 0.49119 0.0
H725 H 0.50787 0.47863 0.64341 0.0
H726 H 0.50825 0.47618 0.56281 0.0
H727 H 0.52663 0.49645 0.59896 0.0
H728 H 0.51922 0.49034 0.36703 0.0
H729 H 0.56019 0.54159 0.45434 0.0
H730 H 0.46969 0.49965 0.4444 0.0
H731 H 0.48247 0.47756 0.4821 0.0
H732 H 0.48334 0.47906 0.40136 0.0
H733 H 0.52164 0.56048 0.55337 0.0
H734 H 0.55102 0.55673 0.54724 0.0
H735 H 0.53349 0.53848 0.59385 0.0
C736 C 0.12809 0.44728 0.22682 0.0
C737 C 0.12838 0.46914 0.20505 0.0
C738 C 0.14239 0.4319 0.20264 0.0
C739 C 0.15754 0.4387 0.15642 0.0
C740 C 0.15808 0.46087 0.13512 0.0
C741 C 0.14342 0.47573 0.15935 0.0
C742 C 0.14121 0.40835 0.22621 0.0
C743 C 0.17427 0.46899 0.08694 0.0
C744 C 0.21014 0.40774 0.1377 0.0
C745 C 0.20533 0.39456 0.08675 0.0
C746 C 0.19471 0.42201 0.16078 0.0
C747 C 0.17376 0.42313 0.13257 0.0
C748 C 0.16878 0.41001 0.08077 0.0
C749 C 0.1847 0.39593 0.05822 0.0
C750 C 0.20089 0.43592 0.21547 0.0
C751 C 0.14657 0.41072 0.0496 0.0
H752 H 0.11632 0.44205 0.26159 0.0
H753 H 0.14376 0.49263 0.14236 0.0
H754 H 0.13795 0.39645 0.18873 0.0
H755 H 0.15742 0.40462 0.24638 0.0
H756 H 0.12798 0.40545 0.26058 0.0
H757 H 0.17239 0.48668 0.07482 0.0
H758 H 0.1916 0.46725 0.10245 0.0
H759 H 0.1718 0.45866 0.04597 0.0
H760 H 0.22607 0.40687 0.16002 0.0
H761 H 0.18082 0.38567 0.01917 0.0
H762 H 0.18883 0.43201 0.25217 0.0
H763 H 0.20006 0.45385 0.20476 0.0
H764 H 0.21788 0.43309 0.23214 0.0
H765 H 0.13294 0.40616 0.08165 0.0
H766 H 0.1451 0.39924 0.01054 0.0
H767 H 0.14413 0.42788 0.03382 0.0
C768 C 0.82064 0.90346 0.48909 0.0
C769 C 0.79843 0.89737 0.47434 0.0
C770 C 0.83283 0.92013 0.45715 0.0
C771 C 0.82264 0.93094 0.40891 0.0
C772 C 0.79982 0.92591 0.39618 0.0
C773 C 0.78792 0.90919 0.42924 0.0
C774 C 0.85706 0.92517 0.47275 0.0
C775 C 0.78834 0.93717 0.34533 0.0
C776 C 0.858 0.98029 0.34782 0.0
C777 C 0.87044 0.96988 0.30387 0.0
C778 C 0.8412 0.96819 0.38008 0.0
C779 C 0.83677 0.94525 0.36784 0.0
C780 C 0.84813 0.93515 0.32047 0.0
C781 C 0.86481 0.94757 0.28917 0.0
C782 C 0.82928 0.97959 0.42985 0.0
C783 C 0.84378 0.91078 0.30546 0.0
H784 H 0.82878 0.89468 0.52453 0.0
H785 H 0.77074 0.90464 0.41766 0.0
H786 H 0.86767 0.91933 0.43596 0.0
H787 H 0.86071 0.94338 0.47748 0.0
H788 H 0.86185 0.91694 0.51505 0.0
H789 H 0.76996 0.93417 0.34745 0.0
H790 H 0.79255 0.95538 0.34578 0.0
H791 H 0.7942 0.93064 0.30193 0.0
H792 H 0.86215 0.99755 0.35933 0.0
H793 H 0.87407 0.93948 0.25459 0.0
H794 H 0.83576 0.97422 0.4738 0.0
H795 H 0.81118 0.97484 0.42883 0.0
H796 H 0.83173 0.99801 0.42694 0.0
H797 H 0.8498 0.90049 0.34272 0.0
H798 H 0.85229 0.90607 0.26353 0.0
H799 H 0.82566 0.90662 0.30038 0.0
C800 C 0.31545 0.63268 0.55468 0.0
C801 C 0.29807 0.64005 0.58987 0.0
C802 C 0.33078 0.61827 0.57874 0.0
C803 C 0.32872 0.61127 0.63941 0.0
C804 C 0.3113 0.61882 0.67505 0.0
C805 C 0.2962 0.633 0.64987 0.0
C806 C 0.34912 0.61049 0.53927 0.0
C807 C 0.30848 0.61182 0.73987 0.0
C808 C 0.35385 0.55738 0.68522 0.0
C809 C 0.37313 0.56519 0.71577 0.0
C810 C 0.33914 0.57219 0.66091 0.0
C811 C 0.34424 0.59542 0.66545 0.0
C812 C 0.36372 0.6034 0.69649 0.0
C813 C 0.3778 0.58815 0.72212 0.0
C814 C 0.31821 0.56296 0.62999 0.0
C815 C 0.36996 0.62802 0.70128 0.0
H816 H 0.31704 0.63811 0.50842 0.0
H817 H 0.28295 0.63872 0.67774 0.0
H818 H 0.36557 0.61496 0.55999 0.0
H819 H 0.34755 0.59209 0.53514 0.0
H820 H 0.34879 0.61784 0.49358 0.0
H821 H 0.29422 0.61943 0.76176 0.0
H822 H 0.30583 0.59344 0.74274 0.0
H823 H 0.32382 0.61664 0.76556 0.0
H824 H 0.35034 0.53958 0.6801 0.0
H825 H 0.39298 0.59416 0.74464 0.0
H826 H 0.31828 0.56833 0.58237 0.0
H827 H 0.30338 0.56961 0.6515 0.0
H828 H 0.31644 0.54448 0.63152 0.0
H829 H 0.37171 0.63537 0.65573 0.0
H830 H 0.38582 0.63152 0.72608 0.0
H831 H 0.35658 0.63654 0.72446 0.0
C832 C 0.68525 0.14305 0.93082 0.0
C833 C 0.70459 0.13944 0.96347 0.0
C834 C 0.67364 0.12566 0.90032 0.0
C835 C 0.68133 0.10393 0.90329 0.0
C836 C 0.70121 0.10021 0.93488 0.0
C837 C 0.71279 0.11814 0.96428 0.0
C838 C 0.65276 0.13051 0.86621 0.0
C839 C 0.7098 0.07725 0.93923 0.0
C840 C 0.63309 0.06177 0.8796 0.0
C841 C 0.63405 0.05869 0.81751 0.0
C842 C 0.64958 0.07507 0.90937 0.0
C843 C 0.66749 0.08524 0.87604 0.0
C844 C 0.66948 0.08048 0.81405 0.0
C845 C 0.65245 0.0675 0.78518 0.0
C846 C 0.64663 0.07995 0.97526 0.0
C847 C 0.68854 0.0906 0.77721 0.0
H848 H 0.67912 0.15961 0.92917 0.0
H849 H 0.72778 0.11536 0.9895 0.0
H850 H 0.65398 0.12483 0.81904 0.0
H851 H 0.63815 0.12125 0.88666 0.0
H852 H 0.64968 0.14853 0.86605 0.0
H853 H 0.72662 0.07752 0.95991 0.0
H854 H 0.69823 0.06645 0.96686 0.0
H855 H 0.71049 0.06953 0.89411 0.0
H856 H 0.61862 0.05507 0.90415 0.0
H857 H 0.65301 0.06508 0.73699 0.0
H858 H 0.64152 0.09724 0.98069 0.0
H859 H 0.66254 0.07869 0.9998 0.0
H860 H 0.63372 0.06845 0.99627 0.0
H861 H 0.68573 0.10834 0.76805 0.0
H862 H 0.69009 0.0819 0.73357 0.0
H863 H 0.7045 0.09009 0.80197 0.0
C864 C 0.1223 0.57604 0.38022 0.0
C865 C 0.12663 0.56163 0.33299 0.0
C866 C 0.13959 0.58877 0.40818 0.0
C867 C 0.16165 0.58759 0.38693 0.0
C868 C 0.16626 0.57226 0.34095 0.0
C869 C 0.14862 0.55917 0.3149 0.0
C870 C 0.134 0.60444 0.45818 0.0
C871 C 0.18948 0.57079 0.31644 0.0
C872 C 0.19303 0.64327 0.40782 0.0
C873 C 0.20527 0.63967 0.45985 0.0
C874 C 0.18019 0.62585 0.38077 0.0
C875 C 0.179 0.6045 0.40776 0.0
C876 C 0.19219 0.60055 0.45894 0.0
C877 C 0.20546 0.61823 0.4841 0.0
C878 C 0.16685 0.63067 0.32534 0.0
C879 C 0.19106 0.57816 0.4896 0.0
H880 H 0.10525 0.57768 0.39448 0.0
H881 H 0.15185 0.54801 0.27815 0.0
H882 H 0.1456 0.6029 0.49648 0.0
H883 H 0.13591 0.62188 0.4419 0.0
H884 H 0.11667 0.6012 0.4746 0.0
H885 H 0.19086 0.55594 0.28736 0.0
H886 H 0.19401 0.5859 0.28948 0.0
H887 H 0.20178 0.5702 0.35341 0.0
H888 H 0.19312 0.65991 0.38907 0.0
H889 H 0.21493 0.61561 0.52463 0.0
H890 H 0.14892 0.63056 0.33704 0.0
H891 H 0.16875 0.61761 0.2909 0.0
H892 H 0.17196 0.64713 0.30547 0.0
H893 H 0.17491 0.57563 0.51341 0.0
H894 H 0.20469 0.57682 0.52281 0.0
H895 H 0.1919 0.56453 0.45632 0.0
C896 C 0.63867 0.97315 0.64889 0.0
C897 C 0.62585 0.96764 0.70005 0.0
C898 C 0.6533 0.95834 0.62453 0.0
C899 C 0.65516 0.93729 0.65158 0.0
C900 C 0.64226 0.93152 0.70325 0.0
C901 C 0.6278 0.94684 0.72714 0.0
C902 C 0.66697 0.96536 0.57011 0.0
C903 C 0.64376 0.90918 0.73318 0.0
C904 C 0.68159 0.89323 0.5564 0.0
C905 C 0.70336 0.89427 0.57902 0.0
C906 C 0.66552 0.9068 0.5804 0.0
C907 C 0.67153 0.92197 0.62732 0.0
C908 C 0.69364 0.92336 0.64922 0.0
C909 C 0.70918 0.90942 0.62513 0.0
C910 C 0.64207 0.90477 0.55612 0.0
C911 C 0.70093 0.93963 0.69811 0.0
H912 H 0.63737 0.98922 0.62766 0.0
H913 H 0.61785 0.94243 0.76637 0.0
H914 H 0.68496 0.96544 0.58104 0.0
H915 H 0.66374 0.95328 0.53306 0.0
H916 H 0.66329 0.98219 0.55382 0.0
H917 H 0.63206 0.90688 0.77154 0.0
H918 H 0.64006 0.89564 0.70016 0.0
H919 H 0.66095 0.90742 0.74975 0.0
H920 H 0.67695 0.88136 0.5213 0.0
H921 H 0.72602 0.91035 0.64273 0.0
H922 H 0.63765 0.92093 0.53696 0.0
H923 H 0.63017 0.90063 0.59307 0.0
H924 H 0.63989 0.89178 0.52081 0.0
H925 H 0.69837 0.95688 0.6833 0.0
H926 H 0.71873 0.93855 0.71033 0.0
H927 H 0.69066 0.93644 0.73888 0.0
C928 C 0.36854 0.44793 0.80536 0.0
C929 C 0.37329 0.47067 0.81658 0.0
C930 C 0.35179 0.43577 0.83702 0.0
C931 C 0.33944 0.44656 0.88118 0.0
C932 C 0.34316 0.46978 0.89023 0.0
C933 C 0.36007 0.4816 0.85773 0.0
C934 C 0.34821 0.41105 0.82552 0.0
C935 C 0.33017 0.48189 0.93651 0.0
C936 C 0.2902 0.41032 0.93874 0.0
C937 C 0.30011 0.39931 0.98634 0.0
C938 C 0.30231 0.42702 0.9062 0.0
C939 C 0.32471 0.43284 0.92207 0.0
C940 C 0.33411 0.42303 0.97311 0.0
C941 C 0.32173 0.40634 0.00444 0.0
C942 C 0.29165 0.43724 0.85236 0.0
C943 C 0.35784 0.42899 0.99214 0.0
H944 H 0.37838 0.43938 0.77297 0.0
H945 H 0.3635 0.4992 0.86645 0.0
H946 H 0.35348 0.40172 0.8655 0.0
H947 H 0.3303 0.40645 0.81788 0.0
H948 H 0.35778 0.4056 0.78611 0.0
H949 H 0.33237 0.50025 0.93118 0.0
H950 H 0.31217 0.47679 0.93369 0.0
H951 H 0.33593 0.4775 0.98206 0.0
H952 H 0.27345 0.40504 0.92465 0.0
H953 H 0.32935 0.39818 0.0419 0.0
H954 H 0.29835 0.43004 0.81078 0.0
H955 H 0.29564 0.45548 0.85089 0.0
H956 H 0.27327 0.43403 0.85235 0.0
H957 H 0.36943 0.42265 0.95837 0.0
H958 H 0.36177 0.42178 0.0365 0.0
H959 H 0.36101 0.44732 0.99446 0.0
C960 C 0.79177 0.12235 0.11796 0.0
C961 C 0.79881 0.1399 0.07969 0.0
C962 C 0.8069 0.10779 0.14142 0.0
C963 C 0.82981 0.11113 0.12751 0.0
C964 C 0.83704 0.12879 0.08857 0.0
C965 C 0.82138 0.14283 0.06448 0.0
C966 C 0.79834 0.08884 0.18126 0.0
C967 C 0.86136 0.13308 0.07331 0.0
C968 C 0.87038 0.08373 0.2323 0.0
C969 C 0.87493 0.06461 0.19968 0.0
C970 C 0.85601 0.09927 0.209 0.0
C971 C 0.84593 0.09552 0.15197 0.0
C972 C 0.85046 0.07621 0.11914 0.0
C973 C 0.86486 0.06109 0.14327 0.0
C974 C 0.85162 0.11969 0.24533 0.0
C975 C 0.83993 0.07139 0.05856 0.0
H976 H 0.7743 0.12002 0.12977 0.0
H977 H 0.82691 0.1566 0.03567 0.0
H978 H 0.8028 0.07273 0.16186 0.0
H979 H 0.80629 0.09037 0.22611 0.0
H980 H 0.77998 0.08837 0.18712 0.0
H981 H 0.86436 0.14773 0.04341 0.0
H982 H 0.87118 0.13594 0.11506 0.0
H983 H 0.86769 0.11827 0.0509 0.0
H984 H 0.87818 0.08665 0.27567 0.0
H985 H 0.86825 0.04639 0.11752 0.0
H986 H 0.83364 0.11973 0.25625 0.0
H987 H 0.85597 0.13491 0.21865 0.0
H988 H 0.86127 0.12058 0.28787 0.0
H989 H 0.82154 0.06997 0.06295 0.0
H990 H 0.84542 0.05576 0.03836 0.0
H991 H 0.84419 0.08532 0.02721 0.0
C992 C 0.81705 0.63504 0.98095 0.0
C993 C 0.79792 0.63978 0.94864 0.0
C994 C 0.83231 0.62044 0.95757 0.0
C995 C 0.82824 0.61031 0.90076 0.0
C996 C 0.80888 0.61497 0.86829 0.0
C997 C 0.79404 0.62961 0.89253 0.0
C998 C 0.85281 0.61589 0.99346 0.0
C999 C 0.80377 0.60441 0.80792 0.0
C1000 C 0.87529 0.58591 0.8125 0.0
C1001 C 0.87252 0.56336 0.82803 0.0
C1002 C 0.86125 0.60151 0.83666 0.0
C1003 C 0.84372 0.59421 0.87588 0.0
C1004 C 0.84048 0.57131 0.88998 0.0
C1005 C 0.8551 0.55624 0.86655 0.0
C1006 C 0.86544 0.62583 0.82132 0.0
C1007 C 0.82164 0.5627 0.93009 0.0
H1008 H 0.82023 0.64292 0.02411 0.0
H1009 H 0.77932 0.63314 0.86707 0.0
H1010 H 0.8528 0.59789 0.00414 0.0
H1011 H 0.86797 0.62023 0.96653 0.0
H1012 H 0.85385 0.62547 0.0361 0.0
H1013 H 0.78804 0.60986 0.78826 0.0
H1014 H 0.81754 0.60868 0.77609 0.0
H1015 H 0.80241 0.58601 0.81237 0.0
H1016 H 0.88899 0.59148 0.78352 0.0
H1017 H 0.85295 0.53878 0.87861 0.0
H1018 H 0.86847 0.63565 0.86302 0.0
H1019 H 0.85054 0.63216 0.79937 0.0
H1020 H 0.87997 0.62886 0.79102 0.0
H1021 H 0.82333 0.57056 0.97502 0.0
H1022 H 0.82115 0.54433 0.93567 0.0
H1023 H 0.80548 0.56725 0.91114 0.0
C1024 C 0.21358 0.1263 0.60549 0.0
C1025 C 0.20339 0.13973 0.56336 0.0
C1026 C 0.20113 0.10944 0.63656 0.0
C1027 C 0.17805 0.10591 0.62485 0.0
C1028 C 0.16805 0.11846 0.57966 0.0
C1029 C 0.18081 0.13523 0.54963 0.0
C1030 C 0.21239 0.09634 0.68429 0.0
C1031 C 0.14353 0.11505 0.56528 0.0
C1032 C 0.14179 0.0561 0.67942 0.0
C1033 C 0.13023 0.06568 0.72654 0.0
C1034 C 0.15841 0.0686 0.64763 0.0
C1035 C 0.16367 0.09107 0.66391 0.0
C1036 C 0.15312 0.10027 0.71407 0.0
C1037 C 0.13646 0.08751 0.74451 0.0
C1038 C 0.16931 0.05822 0.59444 0.0
C1039 C 0.15849 0.12405 0.73353 0.0
H1040 H 0.23104 0.12961 0.61626 0.0
H1041 H 0.17286 0.14527 0.51649 0.0
H1042 H 0.20701 0.10184 0.72924 0.0
H1043 H 0.20749 0.07832 0.6803 0.0
H1044 H 0.23083 0.09868 0.68177 0.0
H1045 H 0.13881 0.12463 0.52512 0.0
H1046 H 0.13892 0.09715 0.55736 0.0
H1047 H 0.13361 0.12042 0.60402 0.0
H1048 H 0.13708 0.03921 0.66537 0.0
H1049 H 0.12785 0.0949 0.78154 0.0
H1050 H 0.18759 0.062 0.59527 0.0
H1051 H 0.16289 0.06538 0.55243 0.0
H1052 H 0.16591 0.03987 0.59307 0.0
H1053 H 0.17675 0.12741 0.73796 0.0
H1054 H 0.15054 0.12791 0.77697 0.0
H1055 H 0.15258 0.13557 0.69894 0.0
C1056 C 0.71119 0.40969 0.40461 0.0
C1057 C 0.70584 0.3971 0.45624 0.0
C1058 C 0.69639 0.42449 0.38069 0.0
C1059 C 0.67556 0.42669 0.40868 0.0
C1060 C 0.6701 0.41423 0.46126 0.0
C1061 C 0.68538 0.39964 0.48464 0.0
C1062 C 0.70306 0.4377 0.32521 0.0
C1063 C 0.64801 0.41607 0.49227 0.0
C1064 C 0.64583 0.47961 0.38039 0.0
C1065 C 0.63028 0.47283 0.33605 0.0
C1066 C 0.66071 0.46483 0.40397 0.0
C1067 C 0.6598 0.44252 0.3836 0.0
C1068 C 0.64425 0.43558 0.33842 0.0
C1069 C 0.6298 0.45091 0.31469 0.0
C1070 C 0.67736 0.47309 0.45093 0.0
C1071 C 0.64262 0.41187 0.31599 0.0
H1072 H 0.72699 0.40788 0.38239 0.0
H1073 H 0.68106 0.38984 0.52422 0.0
H1074 H 0.691 0.43373 0.2885 0.0
H1075 H 0.70267 0.45578 0.33457 0.0
H1076 H 0.71998 0.43425 0.30923 0.0
H1077 H 0.64617 0.40509 0.53225 0.0
H1078 H 0.64618 0.43352 0.50663 0.0
H1079 H 0.63423 0.41161 0.46055 0.0
H1080 H 0.64633 0.49658 0.39693 0.0
H1081 H 0.61765 0.44555 0.28092 0.0
H1082 H 0.69452 0.47047 0.43544 0.0
H1083 H 0.67466 0.46347 0.49303 0.0
H1084 H 0.67617 0.49105 0.46113 0.0
H1085 H 0.65878 0.40759 0.29661 0.0
H1086 H 0.62947 0.40903 0.28133 0.0
H1087 H 0.63893 0.40031 0.35399 0.0
C1088 C 0.36975 0.94515 0.23661 0.0
C1089 C 0.37428 0.96786 0.22468 0.0
C1090 C 0.35312 0.93268 0.20513 0.0
C1091 C 0.3408 0.94311 0.16016 0.0
C1092 C 0.34446 0.96626 0.14996 0.0
C1093 C 0.36113 0.97841 0.18255 0.0
C1094 C 0.3495 0.90808 0.21801 0.0
C1095 C 0.33165 0.97796 0.10244 0.0
C1096 C 0.32232 0.9027 0.03753 0.0
C1097 C 0.3004 0.89651 0.0548 0.0
C1098 C 0.33517 0.91895 0.06931 0.0
C1099 C 0.32595 0.92916 0.11999 0.0
C1100 C 0.30339 0.92405 0.13544 0.0
C1101 C 0.29082 0.90781 0.10242 0.0
C1102 C 0.35907 0.92419 0.05075 0.0
C1103 C 0.29297 0.93462 0.18909 0.0
H1104 H 0.37959 0.93692 0.2697 0.0
H1105 H 0.36445 0.99597 0.17312 0.0
H1106 H 0.33156 0.90355 0.22539 0.0
H1107 H 0.35487 0.89841 0.17876 0.0
H1108 H 0.35895 0.90296 0.25801 0.0
H1109 H 0.33427 0.99636 0.10558 0.0
H1110 H 0.33711 0.97267 0.05737 0.0
H1111 H 0.31357 0.97332 0.10607 0.0
H1112 H 0.32974 0.89428 1.00022 0.0
H1113 H 0.27388 0.90313 0.11603 0.0
H1114 H 0.37037 0.91781 0.08521 0.0
H1115 H 0.36267 0.94245 0.04761 0.0
H1116 H 0.36297 0.91657 0.00689 0.0
H1117 H 0.29981 0.92765 0.23082 0.0
H1118 H 0.27458 0.93152 0.18965 0.0
H1119 H 0.29705 0.95285 0.18971 0.0
C1120 C 0.78929 0.40792 0.60402 0.0
C1121 C 0.79997 0.39389 0.56445 0.0
C1122 C 0.80146 0.42475 0.63598 0.0
C1123 C 0.82478 0.42762 0.62782 0.0
C1124 C 0.83542 0.41436 0.58543 0.0
C1125 C 0.82291 0.39763 0.55444 0.0
C1126 C 0.78954 0.43862 0.68067 0.0
C1127 C 0.86024 0.41707 0.57487 0.0
C1128 C 0.86083 0.47759 0.68217 0.0
C1129 C 0.87134 0.46847 0.73186 0.0
C1130 C 0.84457 0.46492 0.64949 0.0
C1131 C 0.8386 0.44279 0.66744 0.0
C1132 C 0.84798 0.43414 0.72013 0.0
C1133 C 0.86431 0.44704 0.75148 0.0
C1134 C 0.83492 0.47472 0.59359 0.0
C1135 C 0.8418 0.41073 0.74138 0.0
H1136 H 0.77156 0.40522 0.61194 0.0
H1137 H 0.83128 0.38711 0.52333 0.0
H1138 H 0.79408 0.43372 0.72687 0.0
H1139 H 0.79473 0.45653 0.6754 0.0
H1140 H 0.77116 0.43645 0.6759 0.0
H1141 H 0.86562 0.40679 0.53676 0.0
H1142 H 0.86538 0.43477 0.56565 0.0
H1143 H 0.86919 0.41212 0.61584 0.0
H1144 H 0.86617 0.49416 0.66679 0.0
H1145 H 0.87212 0.44003 0.7904 0.0
H1146 H 0.81662 0.47119 0.59192 0.0
H1147 H 0.84207 0.46691 0.55346 0.0
H1148 H 0.83862 0.49301 0.59083 0.0
H1149 H 0.82344 0.4077 0.74306 0.0
H1150 H 0.84873 0.40742 0.7865 0.0
H1151 H 0.84826 0.39862 0.70921 0.0
C1152 C 0.31796 0.13611 0.48122 0.0
C1153 C 0.29675 0.13791 0.45642 0.0
C1154 C 0.33287 0.12148 0.45635 0.0
C1155 C 0.32624 0.10814 0.40616 0.0
C1156 C 0.30464 0.10957 0.38198 0.0
C1157 C 0.29025 0.1245 0.40712 0.0
C1158 C 0.35583 0.12054 0.48315 0.0
C1159 C 0.29672 0.09536 0.32933 0.0
C1160 C 0.37023 0.08342 0.30719 0.0
C1161 C 0.37084 0.06192 0.33099 0.0
C1162 C 0.35588 0.09874 0.33138 0.0
C1163 C 0.34161 0.09223 0.37978 0.0
C1164 C 0.34172 0.0703 0.40258 0.0
C1165 C 0.35641 0.05551 0.37822 0.0
C1166 C 0.35633 0.12202 0.3061 0.0
C1167 C 0.3265 0.06251 0.45325 0.0
H1168 H 0.32315 0.14658 0.51891 0.0
H1169 H 0.27384 0.12575 0.38778 0.0
H1170 H 0.35842 0.1034 0.49888 0.0
H1171 H 0.36862 0.12473 0.44841 0.0
H1172 H 0.35856 0.13219 0.52152 0.0
H1173 H 0.27931 0.09826 0.31631 0.0
H1174 H 0.30767 0.09893 0.29003 0.0
H1175 H 0.29772 0.07748 0.34043 0.0
H1176 H 0.38151 0.08852 0.27114 0.0
H1177 H 0.35675 0.03887 0.39673 0.0
H1178 H 0.36092 0.13428 0.34193 0.0
H1179 H 0.33953 0.12568 0.28976 0.0
H1180 H 0.36835 0.12449 0.26852 0.0
H1181 H 0.33019 0.07276 0.49384 0.0
H1182 H 0.32824 0.04474 0.46482 0.0
H1183 H 0.3089 0.06468 0.44084 0.0
C1184 C 0.64465 0.55548 0.18914 0.0
C1185 C 0.63098 0.56677 0.22835 0.0
C1186 C 0.66139 0.56712 0.1556 0.0
C1187 C 0.66447 0.59054 0.16155 0.0
C1188 C 0.65157 0.60179 0.20353 0.0
C1189 C 0.63504 0.58979 0.23636 0.0
C1190 C 0.67496 0.55454 0.11162 0.0
C1191 C 0.65442 0.62675 0.21164 0.0
C1192 C 0.71399 0.62657 0.10525 0.0
C1193 C 0.70455 0.63694 0.05581 0.0
C1194 C 0.70166 0.61015 0.13813 0.0
C1195 C 0.67955 0.60383 0.12053 0.0
C1196 C 0.6707 0.6129 0.06768 0.0
C1197 C 0.68324 0.62947 0.03623 0.0
C1198 C 0.71168 0.60087 0.19419 0.0
C1199 C 0.64734 0.60631 0.04671 0.0
H1200 H 0.64171 0.53768 0.18275 0.0
H1201 H 0.62481 0.59867 0.26709 0.0
H1202 H 0.66963 0.55827 0.06522 0.0
H1203 H 0.69288 0.55988 0.11535 0.0
H1204 H 0.6729 0.53625 0.11865 0.0
H1205 H 0.64426 0.63271 0.2493 0.0
H1206 H 0.67214 0.63194 0.22018 0.0
H1207 H 0.64938 0.63515 0.16989 0.0
H1208 H 0.73048 0.63226 0.12056 0.0
H1209 H 0.67602 0.63718 0.99745 0.0
H1210 H 0.7081 0.58259 0.19691 0.0
H1211 H 0.7041 0.60836 0.23418 0.0
H1212 H 0.72998 0.60453 0.19621 0.0
H1213 H 0.64438 0.58794 0.04667 0.0
H1214 H 0.64404 0.61264 1.00092 0.0
H1215 H 0.63517 0.61315 0.07807 0.0
C1216 C 0.1857 0.89845 0.98203 0.0
C1217 C 0.20578 0.89538 0.95219 0.0
C1218 C 0.17029 0.91293 0.95868 0.0
C1219 C 0.1752 0.9247 0.90461 0.0
C1220 C 0.1956 0.92186 0.87498 0.0
C1221 C 0.21054 0.90725 0.89897 0.0
C1222 C 0.14867 0.91548 0.99147 0.0
C1223 C 0.20168 0.93426 0.81777 0.0
C1224 C 0.12918 0.94896 0.81165 0.0
C1225 C 0.1305 0.97117 0.83085 0.0
C1226 C 0.14334 0.93349 0.83608 0.0
C1227 C 0.15946 0.94058 0.87968 0.0
C1228 C 0.16118 0.96315 0.89788 0.0
C1229 C 0.14656 0.97807 0.87374 0.0
C1230 C 0.14083 0.90952 0.81601 0.0
C1231 C 0.17847 0.97156 0.94299 0.0
H1232 H 0.18184 0.88923 0.02286 0.0
H1233 H 0.22603 0.90504 0.87555 0.0
H1234 H 0.14734 0.93311 0.00479 0.0
H1235 H 0.13442 0.91096 0.96128 0.0
H1236 H 0.14716 0.90492 0.03232 0.0
H1237 H 0.21825 0.93023 0.80031 0.0
H1238 H 0.18901 0.93013 0.78267 0.0
H1239 H 0.20184 0.95247 0.82568 0.0
H1240 H 0.11658 0.9435 0.77916 0.0
H1241 H 0.14766 0.99525 0.88868 0.0
H1242 H 0.13737 0.89854 0.85535 0.0
H1243 H 0.15658 0.90457 0.7956 0.0
H1244 H 0.12717 0.90656 0.78283 0.0
H1245 H 0.17607 0.96241 0.98594 0.0
H1246 H 0.17774 0.98966 0.952 0.0
H1247 H 0.19537 0.96844 0.92639 0.0
loop_
_geom_bond_atom_site_label_1
_geom_bond_atom_site_label_2
_geom_bond_distance
_geom_bond_site_symmetry_2
_ccdc_geom_bond_type
Co0 O1 2.216 . S
Co0 O2 2.091 . S
Co0 O4 2.004 1_554 S
Co0 O10 2.021 1_554 S
Co0 O12 2.137 . S
Co0 O13 2.244 . S
O1 Co0 2.216 . S
O1 C8 1.247 . S
O2 Co0 2.091 . S
O2 C8 1.261 . S
C3 O12 1.247 . S
C3 O13 1.272 . S
O4 Co0 2.004 1_556 S
O4 C9 1.259 . S
Co5 O6 2.061 1_554 S
Co5 O11 2.054 . S
Co5 O13 2.135 . S
O6 Co5 2.061 1_556 S
O6 C9 1.235 . S
C7 O10 1.238 . S
C7 O11 1.237 1_556 S
C8 O1 1.247 . S
C8 O2 1.261 . S
C9 O4 1.259 . S
C9 O6 1.235 . S
O10 Co0 2.021 1_556 S
O10 C7 1.238 . S
O11 Co5 2.054 . S
O11 C7 1.237 1_554 S
O12 Co0 2.137 . S
O12 C3 1.247 . S
O13 Co0 2.244 . S
O13 C3 1.272 . S
O13 Co5 2.135 . S
Co14 O15 2.216 . S
Co14 O16 2.091 . S
Co14 O18 2.004 . S
Co14 O24 2.021 . S
Co14 O26 2.137 . S
Co14 O27 2.244 . S
O15 Co14 2.216 . S
O15 C22 1.247 . S
O16 Co14 2.091 . S
O16 C22 1.261 . S
C17 O26 1.247 . S
C17 O27 1.272 . S
O18 Co14 2.004 . S
O18 C23 1.259 . S
Co19 O20 2.061 . S
Co19 O25 2.052 . S
Co19 O27 2.135 1_565 S
O20 Co19 2.061 . S
O20 C23 1.235 1_565 S
C21 O24 1.238 1_565 S
C21 O25 1.241 . S
C22 O15 1.247 . S
C22 O16 1.261 . S
C23 O18 1.259 . S
C23 O20 1.235 1_545 S
O24 Co14 2.021 . S
O24 C21 1.238 1_545 S
O25 Co19 2.052 . S
O25 C21 1.241 . S
O26 Co14 2.137 . S
O26 C17 1.247 . S
O27 Co14 2.244 . S
O27 C17 1.272 . S
O27 Co19 2.135 1_545 S
Co28 O29 2.216 . S
Co28 O30 2.091 . S
Co28 O32 2.004 . S
Co28 O38 2.021 . S
Co28 O40 2.137 . S
Co28 O41 2.244 . S
O29 Co28 2.216 . S
O29 C36 1.247 . S
O30 Co28 2.091 . S
O30 C36 1.261 . S
C31 O40 1.247 . S
C31 O41 1.272 . S
O32 Co28 2.004 . S
O32 C37 1.259 . S
Co33 O34 2.061 . S
Co33 O39 2.052 . S
Co33 O41 2.135 . S
O34 Co33 2.061 . S
O34 C37 1.235 . S
C35 O38 1.238 . S
C35 O39 1.241 . S
C36 O29 1.247 . S
C36 O30 1.261 . S
C37 O32 1.259 . S
C37 O34 1.235 . S
O38 Co28 2.021 . S
O38 C35 1.238 . S
O39 Co33 2.052 . S
O39 C35 1.241 . S
O40 Co28 2.137 . S
O40 C31 1.247 . S
O41 Co28 2.244 . S
O41 C31 1.272 . S
O41 Co33 2.135 . S
Co42 O43 2.216 . S
Co42 O44 2.091 1_545 S
Co42 O46 2.004 . S
Co42 O52 2.021 . S
Co42 O54 2.137 1_545 S
Co42 O55 2.244 . S
O43 Co42 2.216 . S
O43 C50 1.247 1_545 S
O44 Co42 2.091 1_565 S
O44 C50 1.261 . S
C45 O54 1.247 1_545 S
C45 O55 1.272 . S
O46 Co42 2.004 . S
O46 C51 1.259 . S
Co47 O48 2.061 . S
Co47 O53 2.052 . S
Co47 O55 2.135 . S
O48 Co47 2.061 . S
O48 C51 1.235 . S
C49 O52 1.238 . S
C49 O53 1.241 . S
C50 O43 1.247 1_565 S
C50 O44 1.261 . S
C51 O46 1.259 . S
C51 O48 1.235 . S
O52 Co42 2.021 . S
O52 C49 1.238 . S
O53 Co47 2.052 . S
O53 C49 1.241 . S
O54 Co42 2.137 1_565 S
O54 C45 1.247 1_565 S
O55 Co42 2.244 . S
O55 C45 1.272 . S
O55 Co47 2.135 . S
Co56 O57 2.216 1_554 S
Co56 O58 2.091 . S
Co56 O60 2.004 . S
Co56 O66 2.021 . S
Co56 O68 2.137 1_554 S
Co56 O69 2.244 1_554 S
O57 Co56 2.216 1_556 S
O57 C64 1.247 . S
O58 Co56 2.091 . S
O58 C64 1.261 1_554 S
C59 O68 1.247 . S
C59 O69 1.272 . S
O60 Co56 2.004 . S
O60 C65 1.259 . S
Co61 O62 2.061 . S
Co61 O67 2.052 . S
Co61 O69 2.135 1_554 S
O62 Co61 2.061 . S
O62 C65 1.235 . S
C63 O66 1.238 . S
C63 O67 1.241 . S
C64 O57 1.247 . S
C64 O58 1.261 1_556 S
C65 O60 1.259 . S
C65 O62 1.235 . S
O66 Co56 2.021 . S
O66 C63 1.238 . S
O67 Co61 2.052 . S
O67 C63 1.241 . S
O68 Co56 2.137 1_556 S
O68 C59 1.247 . S
O69 Co56 2.244 1_556 S
O69 C59 1.272 . S
O69 Co61 2.135 1_556 S
Co70 O71 2.216 . S
Co70 O72 2.091 1_545 S
Co70 O74 2.004 . S
Co70 O80 2.021 . S
Co70 O82 2.137 1_545 S
Co70 O83 2.244 . S
O71 Co70 2.216 . S
O71 C78 1.247 1_545 S
O72 Co70 2.091 1_565 S
O72 C78 1.261 . S
C73 O82 1.247 1_545 S
C73 O83 1.272 . S
O74 Co70 2.004 . S
O74 C79 1.259 . S
Co75 O76 2.061 . S
Co75 O81 2.052 . S
Co75 O83 2.135 . S
O76 Co75 2.061 . S
O76 C79 1.235 . S
C77 O80 1.238 . S
C77 O81 1.241 . S
C78 O71 1.247 1_565 S
C78 O72 1.261 . S
C79 O74 1.259 . S
C79 O76 1.235 . S
O80 Co70 2.021 . S
O80 C77 1.238 . S
O81 Co75 2.052 . S
O81 C77 1.241 . S
O82 Co70 2.137 1_565 S
O82 C73 1.247 1_565 S
O83 Co70 2.244 . S
O83 C73 1.272 . S
O83 Co75 2.135 . S
Co84 O85 2.216 . S
Co84 O86 2.091 . S
Co84 O88 2.004 . S
Co84 O94 2.021 . S
Co84 O96 2.137 . S
Co84 O97 2.244 . S
O85 Co84 2.216 . S
O85 C92 1.247 . S
O86 Co84 2.091 . S
O86 C92 1.261 . S
C87 O96 1.247 . S
C87 O97 1.272 . S
O88 Co84 2.004 . S
O88 C93 1.259 . S
Co89 O90 2.061 . S
Co89 O95 2.052 . S
Co89 O97 2.135 . S
O90 Co89 2.061 . S
O90 C93 1.235 . S
C91 O94 1.238 . S
C91 O95 1.241 . S
C92 O85 1.247 . S
C92 O86 1.261 . S
C93 O88 1.259 . S
C93 O90 1.235 . S
O94 Co84 2.021 . S
O94 C91 1.238 . S
O95 Co89 2.052 . S
O95 C91 1.241 . S
O96 Co84 2.137 . S
O96 C87 1.247 . S
O97 Co84 2.244 . S
O97 C87 1.272 . S
O97 Co89 2.135 . S
Co98 O99 2.216 . S
Co98 O100 2.091 . S
Co98 O102 2.004 . S
Co98 O108 2.021 . S
Co98 O110 2.137 . S
Co98 O111 2.244 . S
O99 Co98 2.216 . S
O99 C106 1.247 . S
O100 Co98 2.091 . S
O100 C106 1.261 . S
C101 O110 1.247 . S
C101 O111 1.272 . S
O102 Co98 2.004 . S
O102 C107 1.259 . S
Co103 O104 2.061 . S
Co103 O109 2.052 . S
Co103 O111 2.135 1_565 S
O104 Co103 2.061 . S
O104 C107 1.235 1_565 S
C105 O108 1.238 1_565 S
C105 O109 1.241 . S
C106 O99 1.247 . S
C106 O100 1.261 . S
C107 O102 1.259 . S
C107 O104 1.235 1_545 S
O108 Co98 2.021 . S
O108 C105 1.238 1_545 S
O109 Co103 2.052 . S
O109 C105 1.241 . S
O110 Co98 2.137 . S
O110 C101 1.247 . S
O111 Co98 2.244 . S
O111 C101 1.272 . S
O111 Co103 2.135 1_545 S
Co112 O113 2.216 . S
Co112 O114 2.091 . S
Co112 O116 2.004 . S
Co112 O122 2.021 . S
Co112 O124 2.137 . S
Co112 O125 2.244 . S
O113 Co112 2.216 . S
O113 C120 1.247 . S
O114 Co112 2.091 . S
O114 C120 1.261 . S
C115 O124 1.247 . S
C115 O125 1.272 . S
O116 Co112 2.004 . S
O116 C121 1.259 . S
Co117 O118 2.061 . S
Co117 O123 2.052 . S
Co117 O125 2.135 . S
O118 Co117 2.061 . S
O118 C121 1.235 . S
C119 O122 1.238 . S
C119 O123 1.241 . S
C120 O113 1.247 . S
C120 O114 1.261 . S
C121 O116 1.259 . S
C121 O118 1.235 . S
O122 Co112 2.021 . S
O122 C119 1.238 . S
O123 Co117 2.052 . S
O123 C119 1.241 . S
O124 Co112 2.137 . S
O124 C115 1.247 . S
O125 Co112 2.244 . S
O125 C115 1.272 . S
O125 Co117 2.135 . S
Co126 O127 2.216 . S
Co126 O128 2.091 . S
Co126 O130 2.004 . S
Co126 O136 2.021 . S
Co126 O138 2.137 . S
Co126 O139 2.244 . S
O127 Co126 2.216 . S
O127 C134 1.247 . S
O128 Co126 2.091 . S
O128 C134 1.261 . S
C129 O138 1.247 . S
C129 O139 1.272 . S
O130 Co126 2.004 . S
O130 C135 1.259 . S
Co131 O132 2.061 . S
Co131 O137 2.052 . S
Co131 O139 2.135 . S
O132 Co131 2.061 . S
O132 C135 1.235 . S
C133 O136 1.238 . S
C133 O137 1.241 . S
C134 O127 1.247 . S
C134 O128 1.261 . S
C135 O130 1.259 . S
C135 O132 1.235 . S
O136 Co126 2.021 . S
O136 C133 1.238 . S
O137 Co131 2.052 . S
O137 C133 1.241 . S
O138 Co126 2.137 . S
O138 C129 1.247 . S
O139 Co126 2.244 . S
O139 C129 1.272 . S
O139 Co131 2.135 . S
Co140 O141 2.216 . S
Co140 O142 2.091 . S
Co140 O144 2.004 1_554 S
Co140 O150 2.021 1_554 S
Co140 O152 2.137 . S
Co140 O153 2.244 . S
O141 Co140 2.216 . S
O141 C148 1.247 . S
O142 Co140 2.091 . S
O142 C148 1.261 . S
C143 O152 1.247 . S
C143 O153 1.272 . S
O144 Co140 2.004 1_556 S
O144 C149 1.259 . S
Co145 O146 2.061 1_554 S
Co145 O151 2.054 . S
Co145 O153 2.135 . S
O146 Co145 2.061 1_556 S
O146 C149 1.235 . S
C147 O150 1.238 . S
C147 O151 1.237 1_556 S
C148 O141 1.247 . S
C148 O142 1.261 . S
C149 O144 1.259 . S
C149 O146 1.235 . S
O150 Co140 2.021 1_556 S
O150 C147 1.238 . S
O151 Co145 2.054 . S
O151 C147 1.237 1_554 S
O152 Co140 2.137 . S
O152 C143 1.247 . S
O153 Co140 2.244 . S
O153 C143 1.272 . S
O153 Co145 2.135 . S
Co154 O155 2.216 . S
Co154 O156 2.091 . S
Co154 O158 2.004 . S
Co154 O164 2.021 . S
Co154 O166 2.137 . S
Co154 O167 2.244 . S
O155 Co154 2.216 . S
O155 C162 1.247 . S
O156 Co154 2.091 . S
O156 C162 1.261 . S
C157 O166 1.247 . S
C157 O167 1.272 . S
O158 Co154 2.004 . S
O158 C163 1.259 . S
Co159 O160 2.061 . S
Co159 O165 2.052 . S
Co159 O167 2.135 . S
O160 Co159 2.061 . S
O160 C163 1.235 . S
C161 O164 1.238 . S
C161 O165 1.241 . S
C162 O155 1.247 . S
C162 O156 1.261 . S
C163 O158 1.259 . S
C163 O160 1.235 . S
O164 Co154 2.021 . S
O164 C161 1.238 . S
O165 Co159 2.052 . S
O165 C161 1.241 . S
O166 Co154 2.137 . S
O166 C157 1.247 . S
O167 Co154 2.244 . S
O167 C157 1.272 . S
O167 Co159 2.135 . S
Co168 O169 2.216 . S
Co168 O170 2.091 . S
Co168 O172 2.004 . S
Co168 O178 2.021 . S
Co168 O180 2.137 . S
Co168 O181 2.244 . S
O169 Co168 2.216 . S
O169 C176 1.247 . S
O170 Co168 2.091 . S
O170 C176 1.261 . S
C171 O180 1.247 . S
C171 O181 1.272 . S
O172 Co168 2.004 . S
O172 C177 1.259 . S
Co173 O174 2.061 . S
Co173 O179 2.052 . S
Co173 O181 2.135 . S
O174 Co173 2.061 . S
O174 C177 1.235 . S
C175 O178 1.238 . S
C175 O179 1.241 . S
C176 O169 1.247 . S
C176 O170 1.261 . S
C177 O172 1.259 . S
C177 O174 1.235 . S
O178 Co168 2.021 . S
O178 C175 1.238 . S
O179 Co173 2.052 . S
O179 C175 1.241 . S
O180 Co168 2.137 . S
O180 C171 1.247 . S
O181 Co168 2.244 . S
O181 C171 1.272 . S
O181 Co173 2.135 . S
Co182 O183 2.216 . S
Co182 O184 2.091 . S
Co182 O186 2.004 . S
Co182 O192 2.021 . S
Co182 O194 2.137 . S
Co182 O195 2.244 . S
O183 Co182 2.216 . S
O183 C190 1.247 . S
O184 Co182 2.091 . S
O184 C190 1.261 . S
C185 O194 1.247 . S
C185 O195 1.272 . S
O186 Co182 2.004 . S
O186 C191 1.259 . S
Co187 O188 2.061 . S
Co187 O193 2.052 . S
Co187 O195 2.135 . S
O188 Co187 2.061 . S
O188 C191 1.235 . S
C189 O192 1.238 . S
C189 O193 1.241 . S
C190 O183 1.247 . S
C190 O184 1.261 . S
C191 O186 1.259 . S
C191 O188 1.235 . S
O192 Co182 2.021 . S
O192 C189 1.238 . S
O193 Co187 2.052 . S
O193 C189 1.241 . S
O194 Co182 2.137 . S
O194 C185 1.247 . S
O195 Co182 2.244 . S
O195 C185 1.272 . S
O195 Co187 2.135 . S
Co196 O197 2.216 1_554 S
Co196 O198 2.091 . S
Co196 O200 2.004 . S
Co196 O206 2.021 . S
Co196 O208 2.137 1_554 S
Co196 O209 2.244 1_554 S
O197 Co196 2.216 1_556 S
O197 C204 1.247 . S
O198 Co196 2.091 . S
O198 C204 1.261 1_554 S
C199 O208 1.247 . S
C199 O209 1.272 . S
O200 Co196 2.004 . S
O200 C205 1.259 . S
Co201 O202 2.061 . S
Co201 O207 2.052 . S
Co201 O209 2.135 1_554 S
O202 Co201 2.061 . S
O202 C205 1.235 . S
C203 O206 1.238 . S
C203 O207 1.241 . S
C204 O197 1.247 . S
C204 O198 1.261 1_556 S
C205 O200 1.259 . S
C205 O202 1.235 . S
O206 Co196 2.021 . S
O206 C203 1.238 . S
O207 Co201 2.052 . S
O207 C203 1.241 . S
O208 Co196 2.137 1_556 S
O208 C199 1.247 . S
O209 Co196 2.244 1_556 S
O209 C199 1.272 . S
O209 Co201 2.135 1_556 S
Co210 O211 2.216 . S
Co210 O212 2.091 . S
Co210 O214 2.004 . S
Co210 O220 2.021 . S
Co210 O222 2.137 . S
Co210 O223 2.244 . S
O211 Co210 2.216 . S
O211 C218 1.247 . S
O212 Co210 2.091 . S
O212 C218 1.261 . S
C213 O222 1.247 . S
C213 O223 1.272 . S
O214 Co210 2.004 . S
O214 C219 1.259 . S
Co215 O216 2.061 . S
Co215 O221 2.052 . S
Co215 O223 2.135 . S
O216 Co215 2.061 . S
O216 C219 1.235 . S
C217 O220 1.238 . S
C217 O221 1.241 . S
C218 O211 1.247 . S
C218 O212 1.261 . S
C219 O214 1.259 . S
C219 O216 1.235 . S
O220 Co210 2.021 . S
O220 C217 1.238 . S
O221 Co215 2.052 . S
O221 C217 1.241 . S
O222 Co210 2.137 . S
O222 C213 1.247 . S
O223 Co210 2.244 . S
O223 C213 1.272 . S
O223 Co215 2.135 . S
C224 C225 1.391 . S
C224 C226 1.394 . S
C224 H240 0.931 . S
C225 C224 1.391 . S
C225 C229 1.376 . S
C226 C224 1.394 . S
C226 C227 1.369 . S
C226 C230 1.531 . S
C227 C226 1.369 . S
C227 C228 1.410 . S
C227 C235 1.503 . S
C228 C227 1.410 . S
C228 C229 1.392 . S
C228 C231 1.511 . S
C229 C225 1.376 . S
C229 C228 1.392 . S
C229 H241 0.929 . S
C230 C226 1.531 . S
C230 H242 0.960 . S
C230 H243 0.962 . S
C230 H244 0.960 . S
C231 C228 1.511 . S
C231 H245 0.961 . S
C231 H246 0.961 . S
C231 H247 0.961 . S
C232 C233 1.370 . S
C232 C234 1.363 . S
C232 H248 0.931 . S
C233 C232 1.370 . S
C233 C237 1.408 . S
C234 C232 1.363 . S
C234 C235 1.370 . S
C234 C238 1.524 . S
C235 C227 1.503 . S
C235 C234 1.370 . S
C235 C236 1.403 . S
C236 C235 1.403 . S
C236 C237 1.404 . S
C236 C239 1.539 . S
C237 C233 1.408 . S
C237 C236 1.404 . S
C237 H249 0.930 . S
C238 C234 1.524 . S
C238 H250 0.956 . S
C238 H251 0.961 . S
C238 H252 0.961 . S
C239 C236 1.539 . S
C239 H253 0.958 . S
C239 H254 0.961 . S
C239 H255 0.960 . S
H240 C224 0.931 . S
H241 C229 0.929 . S
H242 C230 0.960 . S
H243 C230 0.962 . S
H244 C230 0.960 . S
H245 C231 0.961 . S
H246 C231 0.961 . S
H247 C231 0.961 . S
H248 C232 0.931 . S
H249 C237 0.930 . S
H250 C238 0.956 . S
H251 C238 0.961 . S
H252 C238 0.961 . S
H253 C239 0.958 . S
H254 C239 0.961 . S
H255 C239 0.960 . S
C256 C257 1.391 1_565 S
C256 C258 1.394 . S
C256 H272 0.931 . S
C257 C256 1.391 1_545 S
C257 C261 1.376 . S
C258 C256 1.394 . S
C258 C259 1.369 1_565 S
C258 C262 1.531 . S
C259 C258 1.369 1_545 S
C259 C260 1.410 . S
C259 C267 1.503 1_655 S
C260 C259 1.410 . S
C260 C261 1.392 . S
C260 C263 1.511 1_655 S
C261 C257 1.376 . S
C261 C260 1.392 . S
C261 H273 0.929 . S
C262 C258 1.531 . S
C262 H274 0.960 1_655 S
C262 H275 0.962 . S
C262 H276 0.960 . S
C263 C260 1.511 1_455 S
C263 H277 0.961 1_455 S
C263 H278 0.961 . S
C263 H279 0.961 . S
C264 C265 1.370 . S
C264 C266 1.363 . S
C264 H280 0.931 . S
C265 C264 1.370 . S
C265 C269 1.408 . S
C266 C264 1.363 . S
C266 C267 1.370 . S
C266 C270 1.524 1_455 S
C267 C259 1.503 1_455 S
C267 C266 1.370 . S
C267 C268 1.403 . S
C268 C267 1.403 . S
C268 C269 1.404 . S
C268 C271 1.539 . S
C269 C265 1.408 . S
C269 C268 1.404 . S
C269 H281 0.930 . S
C270 C266 1.524 1_655 S
C270 H282 0.956 . S
C270 H283 0.961 . S
C270 H284 0.961 . S
C271 C268 1.539 . S
C271 H285 0.977 . S
C271 H286 0.961 . S
C271 H287 0.960 . S
H272 C256 0.931 . S
H273 C261 0.929 . S
H274 C262 0.960 1_455 S
H275 C262 0.962 . S
H276 C262 0.960 . S
H277 C263 0.961 1_655 S
H278 C263 0.961 . S
H279 C263 0.961 . S
H280 C264 0.931 . S
H281 C269 0.930 . S
H282 C270 0.956 . S
H283 C270 0.961 . S
H284 C270 0.961 . S
H285 C271 0.977 . S
H286 C271 0.961 . S
H287 C271 0.960 . S
C288 C289 1.391 . S
C288 C290 1.394 . S
C288 H304 0.931 . S
C289 C288 1.391 . S
C289 C293 1.376 . S
C290 C288 1.394 . S
C290 C291 1.369 . S
C290 C294 1.531 . S
C291 C290 1.369 . S
C291 C292 1.410 . S
C291 C299 1.503 . S
C292 C291 1.410 . S
C292 C293 1.392 . S
C292 C295 1.511 . S
C293 C289 1.376 . S
C293 C292 1.392 . S
C293 H305 0.929 . S
C294 C290 1.531 . S
C294 H306 0.960 . S
C294 H307 0.962 . S
C294 H308 0.960 . S
C295 C292 1.511 . S
C295 H309 0.961 . S
C295 H310 0.961 . S
C295 H311 0.961 . S
C296 C297 1.370 . S
C296 C298 1.363 . S
C296 H312 0.931 . S
C297 C296 1.370 . S
C297 C301 1.408 . S
C298 C296 1.363 . S
C298 C299 1.370 . S
C298 C302 1.524 . S
C299 C291 1.503 . S
C299 C298 1.370 . S
C299 C300 1.403 . S
C300 C299 1.403 . S
C300 C301 1.404 . S
C300 C303 1.539 . S
C301 C297 1.408 . S
C301 C300 1.404 . S
C301 H313 0.930 . S
C302 C298 1.524 . S
C302 H314 0.956 . S
C302 H315 0.961 . S
C302 H316 0.961 . S
C303 C300 1.539 . S
C303 H317 0.958 . S
C303 H318 0.961 . S
C303 H319 0.960 . S
H304 C288 0.931 . S
H305 C293 0.929 . S
H306 C294 0.960 . S
H307 C294 0.962 . S
H308 C294 0.960 . S
H309 C295 0.961 . S
H310 C295 0.961 . S
H311 C295 0.961 . S
H312 C296 0.931 . S
H313 C301 0.930 . S
H314 C302 0.956 . S
H315 C302 0.961 . S
H316 C302 0.961 . S
H317 C303 0.958 . S
H318 C303 0.961 . S
H319 C303 0.960 . S
C320 C321 1.391 . S
C320 C322 1.394 . S
C320 H336 0.931 . S
C321 C320 1.391 . S
C321 C325 1.376 . S
C322 C320 1.394 . S
C322 C323 1.369 . S
C322 C326 1.531 . S
C323 C322 1.369 . S
C323 C324 1.410 . S
C323 C331 1.503 1_554 S
C324 C323 1.410 . S
C324 C325 1.392 . S
C324 C327 1.511 1_554 S
C325 C321 1.376 . S
C325 C324 1.392 . S
C325 H337 0.929 . S
C326 C322 1.531 . S
C326 H338 0.960 1_545 S
C326 H339 0.962 . S
C326 H340 0.960 1_545 S
C327 C324 1.511 1_556 S
C327 H341 0.961 . S
C327 H342 0.961 . S
C327 H343 0.961 . S
C328 C329 1.370 . S
C328 C330 1.363 . S
C328 H344 0.931 . S
C329 C328 1.370 . S
C329 C333 1.408 1_545 S
C330 C328 1.363 . S
C330 C331 1.370 . S
C330 C334 1.524 1_556 S
C331 C323 1.503 1_556 S
C331 C330 1.370 . S
C331 C332 1.403 1_545 S
C332 C331 1.403 1_565 S
C332 C333 1.404 . S
C332 C335 1.539 . S
C333 C329 1.408 1_565 S
C333 C332 1.404 . S
C333 H345 0.930 . S
C334 C330 1.524 1_554 S
C334 H346 0.956 . S
C334 H347 0.961 . S
C334 H348 0.961 1_554 S
C335 C332 1.539 . S
C335 H349 0.967 . S
C335 H350 0.961 . S
C335 H351 0.960 . S
H336 C320 0.931 . S
H337 C325 0.929 . S
H338 C326 0.960 1_565 S
H339 C326 0.962 . S
H340 C326 0.960 1_565 S
H341 C327 0.961 . S
H342 C327 0.961 . S
H343 C327 0.961 . S
H344 C328 0.931 . S
H345 C333 0.930 . S
H346 C334 0.956 . S
H347 C334 0.961 . S
H348 C334 0.961 1_556 S
H349 C335 0.967 . S
H350 C335 0.961 . S
H351 C335 0.960 . S
C352 C353 1.391 . S
C352 C354 1.394 . S
C352 H368 0.931 . S
C353 C352 1.391 . S
C353 C357 1.376 . S
C354 C352 1.394 . S
C354 C355 1.369 . S
C354 C358 1.531 . S
C355 C354 1.369 . S
C355 C356 1.410 . S
C355 C363 1.503 . S
C356 C355 1.410 . S
C356 C357 1.392 . S
C356 C359 1.511 . S
C357 C353 1.376 . S
C357 C356 1.392 . S
C357 H369 0.929 . S
C358 C354 1.531 . S
C358 H370 0.960 . S
C358 H371 0.962 . S
C358 H372 0.960 . S
C359 C356 1.511 . S
C359 H373 0.961 . S
C359 H374 0.961 . S
C359 H375 0.961 . S
C360 C361 1.370 . S
C360 C362 1.363 . S
C360 H376 0.931 . S
C361 C360 1.370 . S
C361 C365 1.408 . S
C362 C360 1.363 . S
C362 C363 1.370 . S
C362 C366 1.524 . S
C363 C355 1.503 . S
C363 C362 1.370 . S
C363 C364 1.403 . S
C364 C363 1.403 . S
C364 C365 1.404 . S
C364 C367 1.539 . S
C365 C361 1.408 . S
C365 C364 1.404 . S
C365 H377 0.930 . S
C366 C362 1.524 . S
C366 H378 0.956 . S
C366 H379 0.961 . S
C366 H380 0.961 . S
C367 C364 1.539 . S
C367 H381 0.958 . S
C367 H382 0.961 . S
C367 H383 0.960 . S
H368 C352 0.931 . S
H369 C357 0.929 . S
H370 C358 0.960 . S
H371 C358 0.962 . S
H372 C358 0.960 . S
H373 C359 0.961 . S
H374 C359 0.961 . S
H375 C359 0.961 . S
H376 C360 0.931 . S
H377 C365 0.930 . S
H378 C366 0.956 . S
H379 C366 0.961 . S
H380 C366 0.961 . S
H381 C367 0.958 . S
H382 C367 0.961 . S
H383 C367 0.960 . S
C384 C385 1.391 1_565 S
C384 C386 1.394 . S
C384 H400 0.931 . S
C385 C384 1.391 1_545 S
C385 C389 1.376 . S
C386 C384 1.394 . S
C386 C387 1.336 1_565 S
C386 C390 1.564 . S
C387 C386 1.336 1_545 S
C387 C388 1.410 . S
C387 C395 1.503 . S
C388 C387 1.410 . S
C388 C389 1.392 . S
C388 C391 1.511 . S
C389 C385 1.376 . S
C389 C388 1.392 . S
C389 H401 0.929 . S
C390 C386 1.564 . S
C390 H402 0.960 . S
C390 H403 0.962 . S
C390 H404 0.960 . S
C391 C388 1.511 . S
C391 H405 0.961 . S
C391 H406 0.961 . S
C391 H407 0.961 . S
C392 C393 1.370 . S
C392 C394 1.363 . S
C392 H408 0.931 . S
C393 C392 1.370 . S
C393 C397 1.408 . S
C394 C392 1.363 . S
C394 C395 1.370 . S
C394 C398 1.524 . S
C395 C387 1.503 . S
C395 C394 1.370 . S
C395 C396 1.403 . S
C396 C395 1.403 . S
C396 C397 1.404 . S
C396 C399 1.539 . S
C397 C393 1.408 . S
C397 C396 1.404 . S
C397 H409 0.930 . S
C398 C394 1.524 . S
C398 H410 0.956 1_545 S
C398 H411 0.961 . S
C398 H412 0.961 . S
C399 C396 1.539 . S
C399 H413 0.958 . S
C399 H414 0.961 . S
C399 H415 0.960 . S
H400 C384 0.931 . S
H401 C389 0.929 . S
H402 C390 0.960 . S
H403 C390 0.962 . S
H404 C390 0.960 . S
H405 C391 0.961 . S
H406 C391 0.961 . S
H407 C391 0.961 . S
H408 C392 0.931 . S
H409 C397 0.930 . S
H410 C398 0.956 1_565 S
H411 C398 0.961 . S
H412 C398 0.961 . S
H413 C399 0.958 . S
H414 C399 0.961 . S
H415 C399 0.960 . S
C416 C417 1.391 . S
C416 C418 1.394 . S
C416 H432 0.931 . S
C417 C416 1.391 . S
C417 C421 1.376 . S
C418 C416 1.394 . S
C418 C419 1.369 . S
C418 C422 1.531 . S
C419 C418 1.369 . S
C419 C420 1.410 . S
C419 C427 1.503 . S
C420 C419 1.410 . S
C420 C421 1.392 . S
C420 C423 1.511 . S
C421 C417 1.376 . S
C421 C420 1.392 . S
C421 H433 0.929 . S
C422 C418 1.531 . S
C422 H434 0.960 . S
C422 H435 0.962 . S
C422 H436 0.960 . S
C423 C420 1.511 . S
C423 H437 0.961 . S
C423 H438 0.961 . S
C423 H439 0.961 . S
C424 C425 1.370 . S
C424 C426 1.363 . S
C424 H440 0.931 . S
C425 C424 1.370 . S
C425 C429 1.408 . S
C426 C424 1.363 . S
C426 C427 1.370 . S
C426 C430 1.524 . S
C427 C419 1.503 . S
C427 C426 1.370 . S
C427 C428 1.403 . S
C428 C427 1.403 . S
C428 C429 1.404 . S
C428 C431 1.539 . S
C429 C425 1.408 . S
C429 C428 1.404 . S
C429 H441 0.930 . S
C430 C426 1.524 . S
C430 H442 0.956 . S
C430 H443 0.961 . S
C430 H444 0.961 . S
C431 C428 1.539 . S
C431 H445 0.958 . S
C431 H446 0.961 . S
C431 H447 0.960 . S
H432 C416 0.931 . S
H433 C421 0.929 . S
H434 C422 0.960 . S
H435 C422 0.962 . S
H436 C422 0.960 . S
H437 C423 0.961 . S
H438 C423 0.961 . S
H439 C423 0.961 . S
H440 C424 0.931 . S
H441 C429 0.930 . S
H442 C430 0.956 . S
H443 C430 0.961 . S
H444 C430 0.961 . S
H445 C431 0.958 . S
H446 C431 0.961 . S
H447 C431 0.960 . S
C448 C449 1.391 . S
C448 C450 1.394 . S
C448 H464 0.931 . S
C449 C448 1.391 . S
C449 C453 1.348 1_545 S
C450 C448 1.394 . S
C450 C451 1.369 . S
C450 C454 1.531 1_556 S
C451 C450 1.369 . S
C451 C452 1.410 1_545 S
C451 C459 1.503 1_456 S
C452 C451 1.410 1_565 S
C452 C453 1.392 . S
C452 C455 1.511 1_455 S
C453 C449 1.348 1_565 S
C453 C452 1.392 . S
C453 H465 0.959 . S
C454 C450 1.531 1_554 S
C454 H466 0.960 1_455 S
C454 H467 0.962 . S
C454 H468 0.960 1_554 S
C455 C452 1.511 1_655 S
C455 H469 0.961 1_655 S
C455 H470 0.961 1_556 S
C455 H471 0.961 . S
C456 C457 1.370 . S
C456 C458 1.363 . S
C456 H472 0.931 . S
C457 C456 1.370 . S
C457 C461 1.408 . S
C458 C456 1.363 . S
C458 C459 1.370 . S
C458 C462 1.524 1_655 S
C459 C451 1.503 1_654 S
C459 C458 1.370 . S
C459 C460 1.403 . S
C460 C459 1.403 . S
C460 C461 1.404 . S
C460 C463 1.539 1_554 S
C461 C457 1.408 . S
C461 C460 1.404 . S
C461 H473 0.930 . S
C462 C458 1.524 1_455 S
C462 H474 0.956 . S
C462 H475 0.961 1_545 S
C462 H476 0.961 . S
C463 C460 1.539 1_556 S
C463 H477 0.958 . S
C463 H478 0.961 . S
C463 H479 0.960 . S
H464 C448 0.931 . S
H465 C453 0.959 . S
H466 C454 0.960 1_655 S
H467 C454 0.962 . S
H468 C454 0.960 1_556 S
H469 C455 0.961 1_455 S
H470 C455 0.961 1_554 S
H471 C455 0.961 . S
H472 C456 0.931 . S
H473 C461 0.930 . S
H474 C462 0.956 . S
H475 C462 0.961 1_565 S
H476 C462 0.961 . S
H477 C463 0.958 . S
H478 C463 0.961 . S
H479 C463 0.960 . S
C480 C481 1.391 . S
C480 C482 1.394 . S
C480 H496 0.931 . S
C481 C480 1.391 . S
C481 C485 1.376 . S
C482 C480 1.394 . S
C482 C483 1.369 . S
C482 C486 1.531 . S
C483 C482 1.369 . S
C483 C484 1.410 . S
C483 C491 1.503 . S
C484 C483 1.410 . S
C484 C485 1.392 . S
C484 C487 1.511 . S
C485 C481 1.376 . S
C485 C484 1.392 . S
C485 H497 0.929 . S
C486 C482 1.531 . S
C486 H498 0.960 . S
C486 H499 0.962 . S
C486 H500 0.960 . S
C487 C484 1.511 . S
C487 H501 0.961 . S
C487 H502 0.961 . S
C487 H503 0.961 . S
C488 C489 1.370 . S
C488 C490 1.363 . S
C488 H504 0.931 . S
C489 C488 1.370 . S
C489 C493 1.408 . S
C490 C488 1.363 . S
C490 C491 1.370 . S
C490 C494 1.524 . S
C491 C483 1.503 . S
C491 C490 1.370 . S
C491 C492 1.403 . S
C492 C491 1.403 . S
C492 C493 1.404 . S
C492 C495 1.539 . S
C493 C489 1.408 . S
C493 C492 1.404 . S
C493 H505 0.930 . S
C494 C490 1.524 . S
C494 H506 0.956 . S
C494 H507 0.961 . S
C494 H508 0.961 . S
C495 C492 1.539 . S
C495 H509 0.958 . S
C495 H510 0.961 . S
C495 H511 0.960 . S
H496 C480 0.931 . S
H497 C485 0.929 . S
H498 C486 0.960 . S
H499 C486 0.962 . S
H500 C486 0.960 . S
H501 C487 0.961 . S
H502 C487 0.961 . S
H503 C487 0.961 . S
H504 C488 0.931 . S
H505 C493 0.930 . S
H506 C494 0.956 . S
H507 C494 0.961 . S
H508 C494 0.961 . S
H509 C495 0.958 . S
H510 C495 0.961 . S
H511 C495 0.960 . S
C512 C513 1.391 . S
C512 C514 1.394 . S
C512 H528 0.931 . S
C513 C512 1.391 . S
C513 C517 1.376 . S
C514 C512 1.394 . S
C514 C515 1.369 . S
C514 C518 1.531 . S
C515 C514 1.369 . S
C515 C516 1.410 . S
C515 C523 1.503 . S
C516 C515 1.410 . S
C516 C517 1.392 . S
C516 C519 1.511 . S
C517 C513 1.376 . S
C517 C516 1.392 . S
C517 H529 0.929 . S
C518 C514 1.531 . S
C518 H530 0.960 . S
C518 H531 0.962 . S
C518 H532 0.960 . S
C519 C516 1.511 . S
C519 H533 0.961 . S
C519 H534 0.961 . S
C519 H535 0.961 . S
C520 C521 1.370 . S
C520 C522 1.363 . S
C520 H536 0.931 . S
C521 C520 1.370 . S
C521 C525 1.408 . S
C522 C520 1.363 . S
C522 C523 1.370 . S
C522 C526 1.524 . S
C523 C515 1.503 . S
C523 C522 1.370 . S
C523 C524 1.403 . S
C524 C523 1.403 . S
C524 C525 1.404 . S
C524 C527 1.539 . S
C525 C521 1.408 . S
C525 C524 1.404 . S
C525 H537 0.930 . S
C526 C522 1.524 . S
C526 H538 0.956 . S
C526 H539 0.961 . S
C526 H540 0.961 . S
C527 C524 1.539 . S
C527 H541 0.958 . S
C527 H542 0.961 . S
C527 H543 0.960 . S
H528 C512 0.931 . S
H529 C517 0.929 . S
H530 C518 0.960 . S
H531 C518 0.962 . S
H532 C518 0.960 . S
H533 C519 0.961 . S
H534 C519 0.961 . S
H535 C519 0.961 . S
H536 C520 0.931 . S
H537 C525 0.930 . S
H538 C526 0.956 . S
H539 C526 0.961 . S
H540 C526 0.961 . S
H541 C527 0.958 . S
H542 C527 0.961 . S
H543 C527 0.960 . S
C544 C545 1.391 . S
C544 C546 1.394 . S
C544 H560 0.931 . S
C545 C544 1.391 . S
C545 C549 1.376 . S
C546 C544 1.394 . S
C546 C547 1.369 . S
C546 C550 1.531 . S
C547 C546 1.369 . S
C547 C548 1.410 . S
C547 C555 1.503 . S
C548 C547 1.410 . S
C548 C549 1.392 . S
C548 C551 1.511 . S
C549 C545 1.376 . S
C549 C548 1.392 . S
C549 H561 0.929 . S
C550 C546 1.531 . S
C550 H562 0.960 . S
C550 H563 0.962 . S
C550 H564 0.960 . S
C551 C548 1.511 . S
C551 H565 0.961 . S
C551 H566 0.961 . S
C551 H567 0.961 . S
C552 C553 1.370 . S
C552 C554 1.363 . S
C552 H568 0.931 . S
C553 C552 1.370 . S
C553 C557 1.408 . S
C554 C552 1.363 . S
C554 C555 1.370 . S
C554 C558 1.524 . S
C555 C547 1.503 . S
C555 C554 1.370 . S
C555 C556 1.403 . S
C556 C555 1.403 . S
C556 C557 1.404 . S
C556 C559 1.539 . S
C557 C553 1.408 . S
C557 C556 1.404 . S
C557 H569 0.930 . S
C558 C554 1.524 . S
C558 H570 0.956 . S
C558 H571 0.961 . S
C558 H572 0.961 . S
C559 C556 1.539 . S
C559 H573 0.958 . S
C559 H574 0.961 . S
C559 H575 0.960 . S
H560 C544 0.931 . S
H561 C549 0.929 . S
H562 C550 0.960 . S
H563 C550 0.962 . S
H564 C550 0.960 . S
H565 C551 0.961 . S
H566 C551 0.961 . S
H567 C551 0.961 . S
H568 C552 0.931 . S
H569 C557 0.930 . S
H570 C558 0.956 . S
H571 C558 0.961 . S
H572 C558 0.961 . S
H573 C559 0.958 . S
H574 C559 0.961 . S
H575 C559 0.960 . S
C576 C577 1.391 . S
C576 C578 1.394 . S
C576 H592 0.931 . S
C577 C576 1.391 . S
C577 C581 1.376 . S
C578 C576 1.394 . S
C578 C579 1.369 . S
C578 C582 1.531 . S
C579 C578 1.369 . S
C579 C580 1.410 . S
C579 C587 1.503 . S
C580 C579 1.410 . S
C580 C581 1.392 . S
C580 C583 1.511 . S
C581 C577 1.376 . S
C581 C580 1.392 . S
C581 H593 0.929 . S
C582 C578 1.531 . S
C582 H594 0.960 . S
C582 H595 0.962 . S
C582 H596 0.960 . S
C583 C580 1.511 . S
C583 H597 0.961 . S
C583 H598 0.961 . S
C583 H599 0.961 . S
C584 C585 1.370 . S
C584 C586 1.363 . S
C584 H600 0.931 . S
C585 C584 1.370 . S
C585 C589 1.408 . S
C586 C584 1.363 . S
C586 C587 1.370 . S
C586 C590 1.524 . S
C587 C579 1.503 . S
C587 C586 1.370 . S
C587 C588 1.403 . S
C588 C587 1.403 . S
C588 C589 1.404 . S
C588 C591 1.539 . S
C589 C585 1.408 . S
C589 C588 1.404 . S
C589 H601 0.930 . S
C590 C586 1.524 . S
C590 H602 0.956 . S
C590 H603 0.961 . S
C590 H604 0.961 . S
C591 C588 1.539 . S
C591 H605 0.958 . S
C591 H606 0.961 . S
C591 H607 0.960 . S
H592 C576 0.931 . S
H593 C581 0.929 . S
H594 C582 0.960 . S
H595 C582 0.962 . S
H596 C582 0.960 . S
H597 C583 0.961 . S
H598 C583 0.961 . S
H599 C583 0.961 . S
H600 C584 0.931 . S
H601 C589 0.930 . S
H602 C590 0.956 . S
H603 C590 0.961 . S
H604 C590 0.961 . S
H605 C591 0.958 . S
H606 C591 0.961 . S
H607 C591 0.960 . S
C608 C609 1.391 . S
C608 C610 1.394 . S
C608 H624 0.931 . S
C609 C608 1.391 . S
C609 C613 1.376 . S
C610 C608 1.394 . S
C610 C611 1.369 . S
C610 C614 1.531 . S
C611 C610 1.369 . S
C611 C612 1.410 . S
C611 C619 1.503 1_554 S
C612 C611 1.410 . S
C612 C613 1.392 . S
C612 C615 1.511 1_554 S
C613 C609 1.376 . S
C613 C612 1.392 . S
C613 H625 0.929 . S
C614 C610 1.531 . S
C614 H626 0.960 . S
C614 H627 0.962 . S
C614 H628 0.960 . S
C615 C612 1.511 1_556 S
C615 H629 0.961 . S
C615 H630 0.961 . S
C615 H631 0.957 1_556 S
C616 C617 1.370 . S
C616 C618 1.363 . S
C616 H632 0.931 . S
C617 C616 1.370 . S
C617 C621 1.408 . S
C618 C616 1.363 . S
C618 C619 1.370 . S
C618 C622 1.524 . S
C619 C611 1.503 1_556 S
C619 C618 1.370 . S
C619 C620 1.403 . S
C620 C619 1.403 . S
C620 C621 1.404 . S
C620 C623 1.539 1_556 S
C621 C617 1.408 . S
C621 C620 1.404 . S
C621 H633 0.930 . S
C622 C618 1.524 . S
C622 H634 0.956 . S
C622 H635 0.961 . S
C622 H636 0.961 . S
C623 C620 1.539 1_554 S
C623 H637 0.958 . S
C623 H638 0.961 . S
C623 H639 0.960 . S
H624 C608 0.931 . S
H625 C613 0.929 . S
H626 C614 0.960 . S
H627 C614 0.962 . S
H628 C614 0.960 . S
H629 C615 0.961 . S
H630 C615 0.961 . S
H631 C615 0.957 1_554 S
H632 C616 0.931 . S
H633 C621 0.930 . S
H634 C622 0.956 . S
H635 C622 0.961 . S
H636 C622 0.961 . S
H637 C623 0.958 . S
H638 C623 0.961 . S
H639 C623 0.960 . S
C640 C641 1.391 . S
C640 C642 1.394 . S
C640 H656 0.931 . S
C641 C640 1.391 . S
C641 C645 1.376 . S
C642 C640 1.394 . S
C642 C643 1.369 . S
C642 C646 1.531 1_455 S
C643 C642 1.369 . S
C643 C644 1.410 . S
C643 C651 1.503 1_455 S
C644 C643 1.410 . S
C644 C645 1.392 . S
C644 C647 1.511 . S
C645 C641 1.376 . S
C645 C644 1.392 . S
C645 H657 0.929 . S
C646 C642 1.531 1_655 S
C646 H658 0.960 . S
C646 H659 0.962 . S
C646 H660 0.960 . S
C647 C644 1.511 . S
C647 H661 0.961 . S
C647 H662 0.961 . S
C647 H663 0.961 . S
C648 C649 1.370 . S
C648 C650 1.363 . S
C648 H664 0.931 . S
C649 C648 1.370 . S
C649 C653 1.408 . S
C650 C648 1.363 . S
C650 C651 1.370 . S
C650 C654 1.524 1_655 S
C651 C643 1.503 1_655 S
C651 C650 1.370 . S
C651 C652 1.403 . S
C652 C651 1.403 . S
C652 C653 1.404 . S
C652 C655 1.539 . S
C653 C649 1.408 . S
C653 C652 1.404 . S
C653 H665 0.930 . S
C654 C650 1.524 1_455 S
C654 H666 0.956 . S
C654 H667 0.961 . S
C654 H668 0.961 . S
C655 C652 1.539 . S
C655 H669 0.958 . S
C655 H670 0.961 . S
C655 H671 0.960 . S
H656 C640 0.931 . S
H657 C645 0.929 . S
H658 C646 0.960 . S
H659 C646 0.962 . S
H660 C646 0.960 . S
H661 C647 0.961 . S
H662 C647 0.961 . S
H663 C647 0.961 . S
H664 C648 0.931 . S
H665 C653 0.930 . S
H666 C654 0.956 . S
H667 C654 0.961 . S
H668 C654 0.961 . S
H669 C655 0.958 . S
H670 C655 0.961 . S
H671 C655 0.960 . S
C672 C673 1.391 . S
C672 C674 1.394 . S
C672 H688 0.931 . S
C673 C672 1.391 . S
C673 C677 1.376 . S
C674 C672 1.394 . S
C674 C675 1.369 . S
C674 C678 1.531 1_554 S
C675 C674 1.369 . S
C675 C676 1.410 . S
C675 C683 1.503 1_454 S
C676 C675 1.410 . S
C676 C677 1.392 . S
C676 C679 1.511 1_455 S
C677 C673 1.376 . S
C677 C676 1.392 . S
C677 H689 0.929 . S
C678 C674 1.531 1_556 S
C678 H690 0.960 . S
C678 H691 0.962 . S
C678 H692 0.960 . S
C679 C676 1.511 1_655 S
C679 H693 0.961 . S
C679 H694 0.961 . S
C679 H695 0.961 . S
C680 C681 1.370 . S
C680 C682 1.363 . S
C680 H696 0.931 . S
C681 C680 1.370 . S
C681 C685 1.408 . S
C682 C680 1.363 . S
C682 C683 1.370 . S
C682 C686 1.524 1_556 S
C683 C675 1.503 1_656 S
C683 C682 1.370 . S
C683 C684 1.403 . S
C684 C683 1.403 . S
C684 C685 1.404 . S
C684 C687 1.539 1_655 S
C685 C681 1.408 . S
C685 C684 1.404 . S
C685 H697 0.930 . S
C686 C682 1.524 1_554 S
C686 H698 0.956 . S
C686 H699 0.961 . S
C686 H700 0.961 . S
C687 C684 1.539 1_455 S
C687 H701 0.958 . S
C687 H702 0.961 . S
C687 H703 0.960 . S
H688 C672 0.931 . S
H689 C677 0.929 . S
H690 C678 0.960 . S
H691 C678 0.962 . S
H692 C678 0.960 . S
H693 C679 0.961 . S
H694 C679 0.961 . S
H695 C679 0.961 . S
H696 C680 0.931 . S
H697 C685 0.930 . S
H698 C686 0.956 . S
H699 C686 0.961 . S
H700 C686 0.961 . S
H701 C687 0.958 . S
H702 C687 0.961 . S
H703 C687 0.960 . S
C704 C705 1.391 . S
C704 C706 1.394 . S
C704 H720 0.931 . S
C705 C704 1.391 . S
C705 C709 1.376 . S
C706 C704 1.394 . S
C706 C707 1.369 . S
C706 C710 1.531 . S
C707 C706 1.369 . S
C707 C708 1.410 . S
C707 C715 1.503 . S
C708 C707 1.410 . S
C708 C709 1.392 . S
C708 C711 1.511 . S
C709 C705 1.376 . S
C709 C708 1.392 . S
C709 H721 0.929 . S
C710 C706 1.531 . S
C710 H722 0.960 . S
C710 H723 0.962 . S
C710 H724 0.960 . S
C711 C708 1.511 . S
C711 H725 0.961 . S
C711 H726 0.961 . S
C711 H727 0.961 . S
C712 C713 1.370 . S
C712 C714 1.363 . S
C712 H728 0.931 . S
C713 C712 1.370 . S
C713 C717 1.408 . S
C714 C712 1.363 . S
C714 C715 1.370 . S
C714 C718 1.524 . S
C715 C707 1.503 . S
C715 C714 1.370 . S
C715 C716 1.403 . S
C716 C715 1.403 . S
C716 C717 1.404 . S
C716 C719 1.539 . S
C717 C713 1.408 . S
C717 C716 1.404 . S
C717 H729 0.930 . S
C718 C714 1.524 . S
C718 H730 0.956 . S
C718 H731 0.961 . S
C718 H732 0.961 . S
C719 C716 1.539 . S
C719 H733 0.958 . S
C719 H734 0.961 . S
C719 H735 0.960 . S
H720 C704 0.931 . S
H721 C709 0.929 . S
H722 C710 0.960 . S
H723 C710 0.962 . S
H724 C710 0.960 . S
H725 C711 0.961 . S
H726 C711 0.961 . S
H727 C711 0.961 . S
H728 C712 0.931 . S
H729 C717 0.930 . S
H730 C718 0.956 . S
H731 C718 0.961 . S
H732 C718 0.961 . S
H733 C719 0.958 . S
H734 C719 0.961 . S
H735 C719 0.960 . S
C736 C737 1.391 . S
C736 C738 1.394 . S
C736 H752 0.931 . S
C737 C736 1.391 . S
C737 C741 1.376 . S
C738 C736 1.394 . S
C738 C739 1.369 . S
C738 C742 1.531 . S
C739 C738 1.369 . S
C739 C740 1.410 . S
C739 C747 1.503 . S
C740 C739 1.410 . S
C740 C741 1.392 . S
C740 C743 1.511 . S
C741 C737 1.376 . S
C741 C740 1.392 . S
C741 H753 0.929 . S
C742 C738 1.531 . S
C742 H754 0.960 . S
C742 H755 0.962 . S
C742 H756 0.960 . S
C743 C740 1.511 . S
C743 H757 0.961 . S
C743 H758 0.961 . S
C743 H759 0.961 . S
C744 C745 1.370 . S
C744 C746 1.363 . S
C744 H760 0.931 . S
C745 C744 1.370 . S
C745 C749 1.408 . S
C746 C744 1.363 . S
C746 C747 1.370 . S
C746 C750 1.524 . S
C747 C739 1.503 . S
C747 C746 1.370 . S
C747 C748 1.403 . S
C748 C747 1.403 . S
C748 C749 1.404 . S
C748 C751 1.539 . S
C749 C745 1.408 . S
C749 C748 1.404 . S
C749 H761 0.930 . S
C750 C746 1.524 . S
C750 H762 0.956 . S
C750 H763 0.961 . S
C750 H764 0.961 . S
C751 C748 1.539 . S
C751 H765 0.958 . S
C751 H766 0.961 1_554 S
C751 H767 0.960 . S
H752 C736 0.931 . S
H753 C741 0.929 . S
H754 C742 0.960 . S
H755 C742 0.962 . S
H756 C742 0.960 . S
H757 C743 0.961 . S
H758 C743 0.961 . S
H759 C743 0.961 . S
H760 C744 0.931 . S
H761 C749 0.930 . S
H762 C750 0.956 . S
H763 C750 0.961 . S
H764 C750 0.961 . S
H765 C751 0.958 . S
H766 C751 0.961 1_556 S
H767 C751 0.960 . S
C768 C769 1.391 . S
C768 C770 1.394 . S
C768 H784 0.931 . S
C769 C768 1.391 . S
C769 C773 1.376 . S
C770 C768 1.394 . S
C770 C771 1.369 . S
C770 C774 1.531 . S
C771 C770 1.369 . S
C771 C772 1.410 . S
C771 C779 1.503 . S
C772 C771 1.410 . S
C772 C773 1.392 . S
C772 C775 1.511 . S
C773 C769 1.376 . S
C773 C772 1.392 . S
C773 H785 0.929 . S
C774 C770 1.531 . S
C774 H786 0.960 . S
C774 H787 0.962 . S
C774 H788 0.960 . S
C775 C772 1.511 . S
C775 H789 0.961 . S
C775 H790 0.961 . S
C775 H791 0.961 . S
C776 C777 1.370 . S
C776 C778 1.363 . S
C776 H792 0.931 . S
C777 C776 1.370 . S
C777 C781 1.408 . S
C778 C776 1.363 . S
C778 C779 1.370 . S
C778 C782 1.524 . S
C779 C771 1.503 . S
C779 C778 1.370 . S
C779 C780 1.403 . S
C780 C779 1.403 . S
C780 C781 1.404 . S
C780 C783 1.539 . S
C781 C777 1.408 . S
C781 C780 1.404 . S
C781 H793 0.930 . S
C782 C778 1.524 . S
C782 H794 0.956 . S
C782 H795 0.961 . S
C782 H796 0.961 . S
C783 C780 1.539 . S
C783 H797 0.958 . S
C783 H798 0.961 . S
C783 H799 0.960 . S
H784 C768 0.931 . S
H785 C773 0.929 . S
H786 C774 0.960 . S
H787 C774 0.962 . S
H788 C774 0.960 . S
H789 C775 0.961 . S
H790 C775 0.961 . S
H791 C775 0.961 . S
H792 C776 0.931 . S
H793 C781 0.930 . S
H794 C782 0.956 . S
H795 C782 0.961 . S
H796 C782 0.961 . S
H797 C783 0.958 . S
H798 C783 0.961 . S
H799 C783 0.960 . S
C800 C801 1.391 . S
C800 C802 1.394 . S
C800 H816 0.931 . S
C801 C800 1.391 . S
C801 C805 1.376 . S
C802 C800 1.394 . S
C802 C803 1.369 . S
C802 C806 1.531 . S
C803 C802 1.369 . S
C803 C804 1.410 . S
C803 C811 1.503 . S
C804 C803 1.410 . S
C804 C805 1.392 . S
C804 C807 1.511 . S
C805 C801 1.376 . S
C805 C804 1.392 . S
C805 H817 0.929 . S
C806 C802 1.531 . S
C806 H818 0.960 . S
C806 H819 0.962 . S
C806 H820 0.960 . S
C807 C804 1.511 . S
C807 H821 0.961 . S
C807 H822 0.961 . S
C807 H823 0.961 . S
C808 C809 1.370 . S
C808 C810 1.363 . S
C808 H824 0.931 . S
C809 C808 1.370 . S
C809 C813 1.408 . S
C810 C808 1.363 . S
C810 C811 1.370 . S
C810 C814 1.524 . S
C811 C803 1.503 . S
C811 C810 1.370 . S
C811 C812 1.403 . S
C812 C811 1.403 . S
C812 C813 1.404 . S
C812 C815 1.539 . S
C813 C809 1.408 . S
C813 C812 1.404 . S
C813 H825 0.930 . S
C814 C810 1.524 . S
C814 H826 0.956 . S
C814 H827 0.961 . S
C814 H828 0.961 . S
C815 C812 1.539 . S
C815 H829 0.958 . S
C815 H830 0.961 . S
C815 H831 0.960 . S
H816 C800 0.931 . S
H817 C805 0.929 . S
H818 C806 0.960 . S
H819 C806 0.962 . S
H820 C806 0.960 . S
H821 C807 0.961 . S
H822 C807 0.961 . S
H823 C807 0.961 . S
H824 C808 0.931 . S
H825 C813 0.930 . S
H826 C814 0.956 . S
H827 C814 0.961 . S
H828 C814 0.961 . S
H829 C815 0.958 . S
H830 C815 0.961 . S
H831 C815 0.960 . S
C832 C833 1.391 . S
C832 C834 1.394 . S
C832 H848 0.931 . S
C833 C832 1.391 . S
C833 C837 1.376 . S
C834 C832 1.394 . S
C834 C835 1.369 . S
C834 C838 1.531 . S
C835 C834 1.369 . S
C835 C836 1.410 . S
C835 C843 1.503 . S
C836 C835 1.410 . S
C836 C837 1.392 . S
C836 C839 1.511 . S
C837 C833 1.376 . S
C837 C836 1.392 . S
C837 H849 0.929 . S
C838 C834 1.531 . S
C838 H850 0.960 . S
C838 H851 0.962 . S
C838 H852 0.960 . S
C839 C836 1.511 . S
C839 H853 0.961 . S
C839 H854 0.961 . S
C839 H855 0.961 . S
C840 C841 1.370 . S
C840 C842 1.363 . S
C840 H856 0.931 . S
C841 C840 1.370 . S
C841 C845 1.408 . S
C842 C840 1.363 . S
C842 C843 1.370 . S
C842 C846 1.524 . S
C843 C835 1.503 . S
C843 C842 1.370 . S
C843 C844 1.403 . S
C844 C843 1.403 . S
C844 C845 1.404 . S
C844 C847 1.539 . S
C845 C841 1.408 . S
C845 C844 1.404 . S
C845 H857 0.930 . S
C846 C842 1.524 . S
C846 H858 0.956 . S
C846 H859 0.961 . S
C846 H860 0.961 . S
C847 C844 1.539 . S
C847 H861 0.958 . S
C847 H862 0.961 . S
C847 H863 0.960 . S
H848 C832 0.931 . S
H849 C837 0.929 . S
H850 C838 0.960 . S
H851 C838 0.962 . S
H852 C838 0.960 . S
H853 C839 0.961 . S
H854 C839 0.961 . S
H855 C839 0.961 . S
H856 C840 0.931 . S
H857 C845 0.930 . S
H858 C846 0.956 . S
H859 C846 0.961 . S
H860 C846 0.961 . S
H861 C847 0.958 . S
H862 C847 0.961 . S
H863 C847 0.960 . S
C864 C865 1.391 . S
C864 C866 1.394 . S
C864 H880 0.931 . S
C865 C864 1.391 . S
C865 C869 1.376 . S
C866 C864 1.394 . S
C866 C867 1.369 . S
C866 C870 1.531 . S
C867 C866 1.369 . S
C867 C868 1.410 . S
C867 C875 1.503 . S
C868 C867 1.410 . S
C868 C869 1.392 . S
C868 C871 1.511 . S
C869 C865 1.376 . S
C869 C868 1.392 . S
C869 H881 0.929 . S
C870 C866 1.531 . S
C870 H882 0.960 . S
C870 H883 0.962 . S
C870 H884 0.960 . S
C871 C868 1.511 . S
C871 H885 0.961 . S
C871 H886 0.961 . S
C871 H887 0.961 . S
C872 C873 1.370 . S
C872 C874 1.363 . S
C872 H888 0.931 . S
C873 C872 1.370 . S
C873 C877 1.408 . S
C874 C872 1.363 . S
C874 C875 1.370 . S
C874 C878 1.524 . S
C875 C867 1.503 . S
C875 C874 1.370 . S
C875 C876 1.403 . S
C876 C875 1.403 . S
C876 C877 1.404 . S
C876 C879 1.539 . S
C877 C873 1.408 . S
C877 C876 1.404 . S
C877 H889 0.930 . S
C878 C874 1.524 . S
C878 H890 0.956 . S
C878 H891 0.961 . S
C878 H892 0.961 . S
C879 C876 1.539 . S
C879 H893 0.958 . S
C879 H894 0.961 . S
C879 H895 0.960 . S
H880 C864 0.931 . S
H881 C869 0.929 . S
H882 C870 0.960 . S
H883 C870 0.962 . S
H884 C870 0.960 . S
H885 C871 0.961 . S
H886 C871 0.961 . S
H887 C871 0.961 . S
H888 C872 0.931 . S
H889 C877 0.930 . S
H890 C878 0.956 . S
H891 C878 0.961 . S
H892 C878 0.961 . S
H893 C879 0.958 . S
H894 C879 0.961 . S
H895 C879 0.960 . S
C896 C897 1.391 . S
C896 C898 1.394 . S
C896 H912 0.931 . S
C897 C896 1.391 . S
C897 C901 1.376 . S
C898 C896 1.394 . S
C898 C899 1.369 . S
C898 C902 1.531 . S
C899 C898 1.369 . S
C899 C900 1.410 . S
C899 C907 1.503 . S
C900 C899 1.410 . S
C900 C901 1.392 . S
C900 C903 1.511 . S
C901 C897 1.376 . S
C901 C900 1.392 . S
C901 H913 0.929 . S
C902 C898 1.531 . S
C902 H914 0.960 . S
C902 H915 0.962 . S
C902 H916 0.960 . S
C903 C900 1.511 . S
C903 H917 0.961 . S
C903 H918 0.961 . S
C903 H919 0.961 . S
C904 C905 1.370 . S
C904 C906 1.363 . S
C904 H920 0.931 . S
C905 C904 1.370 . S
C905 C909 1.408 . S
C906 C904 1.363 . S
C906 C907 1.370 . S
C906 C910 1.524 . S
C907 C899 1.503 . S
C907 C906 1.370 . S
C907 C908 1.403 . S
C908 C907 1.403 . S
C908 C909 1.404 . S
C908 C911 1.539 . S
C909 C905 1.408 . S
C909 C908 1.404 . S
C909 H921 0.930 . S
C910 C906 1.524 . S
C910 H922 0.956 . S
C910 H923 0.961 . S
C910 H924 0.961 . S
C911 C908 1.539 . S
C911 H925 0.958 . S
C911 H926 0.961 . S
C911 H927 0.960 . S
H912 C896 0.931 . S
H913 C901 0.929 . S
H914 C902 0.960 . S
H915 C902 0.962 . S
H916 C902 0.960 . S
H917 C903 0.961 . S
H918 C903 0.961 . S
H919 C903 0.961 . S
H920 C904 0.931 . S
H921 C909 0.930 . S
H922 C910 0.956 . S
H923 C910 0.961 . S
H924 C910 0.961 . S
H925 C911 0.958 . S
H926 C911 0.961 . S
H927 C911 0.960 . S
C928 C929 1.391 . S
C928 C930 1.394 . S
C928 H944 0.931 . S
C929 C928 1.391 . S
C929 C933 1.376 . S
C930 C928 1.394 . S
C930 C931 1.369 . S
C930 C934 1.531 . S
C931 C930 1.369 . S
C931 C932 1.410 . S
C931 C939 1.503 . S
C932 C931 1.410 . S
C932 C933 1.392 . S
C932 C935 1.511 . S
C933 C929 1.376 . S
C933 C932 1.392 . S
C933 H945 0.929 . S
C934 C930 1.531 . S
C934 H946 0.960 . S
C934 H947 0.962 . S
C934 H948 0.960 . S
C935 C932 1.511 . S
C935 H949 0.961 . S
C935 H950 0.961 . S
C935 H951 0.961 . S
C936 C937 1.370 . S
C936 C938 1.363 . S
C936 H952 0.931 . S
C937 C936 1.370 . S
C937 C941 1.408 . S
C938 C936 1.363 . S
C938 C939 1.370 . S
C938 C942 1.524 . S
C939 C931 1.503 . S
C939 C938 1.370 . S
C939 C940 1.403 . S
C940 C939 1.403 . S
C940 C941 1.404 . S
C940 C943 1.539 1_556 S
C941 C937 1.408 . S
C941 C940 1.404 . S
C941 H953 0.930 1_556 S
C942 C938 1.524 . S
C942 H954 0.956 . S
C942 H955 0.961 . S
C942 H956 0.961 . S
C943 C940 1.539 1_554 S
C943 H957 0.958 1_554 S
C943 H958 0.961 . S
C943 H959 0.960 1_554 S
H944 C928 0.931 . S
H945 C933 0.929 . S
H946 C934 0.960 . S
H947 C934 0.962 . S
H948 C934 0.960 . S
H949 C935 0.961 . S
H950 C935 0.961 . S
H951 C935 0.961 . S
H952 C936 0.931 . S
H953 C941 0.930 1_554 S
H954 C942 0.956 . S
H955 C942 0.961 . S
H956 C942 0.961 . S
H957 C943 0.958 1_556 S
H958 C943 0.961 . S
H959 C943 0.960 1_556 S
C960 C961 1.391 . S
C960 C962 1.394 . S
C960 H976 0.931 . S
C961 C960 1.391 . S
C961 C965 1.376 . S
C962 C960 1.394 . S
C962 C963 1.369 . S
C962 C966 1.531 . S
C963 C962 1.369 . S
C963 C964 1.410 . S
C963 C971 1.503 . S
C964 C963 1.410 . S
C964 C965 1.392 . S
C964 C967 1.511 . S
C965 C961 1.376 . S
C965 C964 1.392 . S
C965 H977 0.929 . S
C966 C962 1.531 . S
C966 H978 0.960 . S
C966 H979 0.962 . S
C966 H980 0.960 . S
C967 C964 1.511 . S
C967 H981 0.961 . S
C967 H982 0.961 . S
C967 H983 0.961 . S
C968 C969 1.370 . S
C968 C970 1.363 . S
C968 H984 0.931 . S
C969 C968 1.370 . S
C969 C973 1.408 . S
C970 C968 1.363 . S
C970 C971 1.370 . S
C970 C974 1.524 . S
C971 C963 1.503 . S
C971 C970 1.370 . S
C971 C972 1.403 . S
C972 C971 1.403 . S
C972 C973 1.404 . S
C972 C975 1.539 . S
C973 C969 1.408 . S
C973 C972 1.404 . S
C973 H985 0.930 . S
C974 C970 1.524 . S
C974 H986 0.956 . S
C974 H987 0.961 . S
C974 H988 0.961 . S
C975 C972 1.539 . S
C975 H989 0.958 . S
C975 H990 0.961 . S
C975 H991 0.960 . S
H976 C960 0.931 . S
H977 C965 0.929 . S
H978 C966 0.960 . S
H979 C966 0.962 . S
H980 C966 0.960 . S
H981 C967 0.961 . S
H982 C967 0.961 . S
H983 C967 0.961 . S
H984 C968 0.931 . S
H985 C973 0.930 . S
H986 C974 0.956 . S
H987 C974 0.961 . S
H988 C974 0.961 . S
H989 C975 0.958 . S
H990 C975 0.961 . S
H991 C975 0.960 . S
C992 C993 1.391 . S
C992 C994 1.394 . S
C992 H1008 0.931 1_556 S
C993 C992 1.391 . S
C993 C997 1.376 . S
C994 C992 1.394 . S
C994 C995 1.369 . S
C994 C998 1.531 1_556 S
C995 C994 1.369 . S
C995 C996 1.410 . S
C995 C1003 1.503 . S
C996 C995 1.410 . S
C996 C997 1.392 . S
C996 C999 1.511 . S
C997 C993 1.376 . S
C997 C996 1.392 . S
C997 H1009 0.929 . S
C998 C994 1.531 1_554 S
C998 H1010 0.960 1_554 S
C998 H1011 0.962 . S
C998 H1012 0.960 . S
C999 C996 1.511 . S
C999 H1013 0.961 . S
C999 H1014 0.961 . S
C999 H1015 0.961 . S
C1000 C1001 1.370 . S
C1000 C1002 1.363 . S
C1000 H1016 0.931 . S
C1001 C1000 1.370 . S
C1001 C1005 1.408 . S
C1002 C1000 1.363 . S
C1002 C1003 1.370 . S
C1002 C1006 1.524 . S
C1003 C995 1.503 . S
C1003 C1002 1.370 . S
C1003 C1004 1.403 . S
C1004 C1003 1.403 . S
C1004 C1005 1.404 . S
C1004 C1007 1.539 . S
C1005 C1001 1.408 . S
C1005 C1004 1.404 . S
C1005 H1017 0.930 . S
C1006 C1002 1.524 . S
C1006 H1018 0.956 . S
C1006 H1019 0.961 . S
C1006 H1020 0.961 . S
C1007 C1004 1.539 . S
C1007 H1021 0.958 . S
C1007 H1022 0.961 . S
C1007 H1023 0.960 . S
H1008 C992 0.931 1_554 S
H1009 C997 0.929 . S
H1010 C998 0.960 1_556 S
H1011 C998 0.962 . S
H1012 C998 0.960 . S
H1013 C999 0.961 . S
H1014 C999 0.961 . S
H1015 C999 0.961 . S
H1016 C1000 0.931 . S
H1017 C1005 0.930 . S
H1018 C1006 0.956 . S
H1019 C1006 0.961 . S
H1020 C1006 0.961 . S
H1021 C1007 0.958 . S
H1022 C1007 0.961 . S
H1023 C1007 0.960 . S
C1024 C1025 1.391 . S
C1024 C1026 1.394 . S
C1024 H1040 0.931 . S
C1025 C1024 1.391 . S
C1025 C1029 1.376 . S
C1026 C1024 1.394 . S
C1026 C1027 1.369 . S
C1026 C1030 1.531 . S
C1027 C1026 1.369 . S
C1027 C1028 1.410 . S
C1027 C1035 1.503 . S
C1028 C1027 1.410 . S
C1028 C1029 1.392 . S
C1028 C1031 1.511 . S
C1029 C1025 1.376 . S
C1029 C1028 1.392 . S
C1029 H1041 0.929 . S
C1030 C1026 1.531 . S
C1030 H1042 0.960 . S
C1030 H1043 0.962 . S
C1030 H1044 0.960 . S
C1031 C1028 1.511 . S
C1031 H1045 0.961 . S
C1031 H1046 0.961 . S
C1031 H1047 0.961 . S
C1032 C1033 1.370 . S
C1032 C1034 1.363 . S
C1032 H1048 0.931 . S
C1033 C1032 1.370 . S
C1033 C1037 1.408 . S
C1034 C1032 1.363 . S
C1034 C1035 1.370 . S
C1034 C1038 1.524 . S
C1035 C1027 1.503 . S
C1035 C1034 1.370 . S
C1035 C1036 1.403 . S
C1036 C1035 1.403 . S
C1036 C1037 1.404 . S
C1036 C1039 1.539 . S
C1037 C1033 1.408 . S
C1037 C1036 1.404 . S
C1037 H1049 0.930 . S
C1038 C1034 1.524 . S
C1038 H1050 0.956 . S
C1038 H1051 0.961 . S
C1038 H1052 0.961 . S
C1039 C1036 1.539 . S
C1039 H1053 0.958 . S
C1039 H1054 0.961 . S
C1039 H1055 0.960 . S
H1040 C1024 0.931 . S
H1041 C1029 0.929 . S
H1042 C1030 0.960 . S
H1043 C1030 0.962 . S
H1044 C1030 0.960 . S
H1045 C1031 0.961 . S
H1046 C1031 0.961 . S
H1047 C1031 0.961 . S
H1048 C1032 0.931 . S
H1049 C1037 0.930 . S
H1050 C1038 0.956 . S
H1051 C1038 0.961 . S
H1052 C1038 0.961 . S
H1053 C1039 0.958 . S
H1054 C1039 0.961 . S
H1055 C1039 0.960 . S
C1056 C1057 1.391 . S
C1056 C1058 1.394 . S
C1056 H1072 0.931 . S
C1057 C1056 1.391 . S
C1057 C1061 1.376 . S
C1058 C1056 1.394 . S
C1058 C1059 1.369 . S
C1058 C1062 1.531 . S
C1059 C1058 1.369 . S
C1059 C1060 1.410 . S
C1059 C1067 1.503 . S
C1060 C1059 1.410 . S
C1060 C1061 1.392 . S
C1060 C1063 1.511 . S
C1061 C1057 1.376 . S
C1061 C1060 1.392 . S
C1061 H1073 0.929 . S
C1062 C1058 1.531 . S
C1062 H1074 0.960 . S
C1062 H1075 0.962 . S
C1062 H1076 0.960 . S
C1063 C1060 1.511 . S
C1063 H1077 0.961 . S
C1063 H1078 0.961 . S
C1063 H1079 0.961 . S
C1064 C1065 1.370 . S
C1064 C1066 1.363 . S
C1064 H1080 0.931 . S
C1065 C1064 1.370 . S
C1065 C1069 1.408 . S
C1066 C1064 1.363 . S
C1066 C1067 1.370 . S
C1066 C1070 1.524 . S
C1067 C1059 1.503 . S
C1067 C1066 1.370 . S
C1067 C1068 1.403 . S
C1068 C1067 1.403 . S
C1068 C1069 1.404 . S
C1068 C1071 1.539 . S
C1069 C1065 1.408 . S
C1069 C1068 1.404 . S
C1069 H1081 0.930 . S
C1070 C1066 1.524 . S
C1070 H1082 0.956 . S
C1070 H1083 0.961 . S
C1070 H1084 0.961 . S
C1071 C1068 1.539 . S
C1071 H1085 0.958 . S
C1071 H1086 0.961 . S
C1071 H1087 0.960 . S
H1072 C1056 0.931 . S
H1073 C1061 0.929 . S
H1074 C1062 0.960 . S
H1075 C1062 0.962 . S
H1076 C1062 0.960 . S
H1077 C1063 0.961 . S
H1078 C1063 0.961 . S
H1079 C1063 0.961 . S
H1080 C1064 0.931 . S
H1081 C1069 0.930 . S
H1082 C1070 0.956 . S
H1083 C1070 0.961 . S
H1084 C1070 0.961 . S
H1085 C1071 0.958 . S
H1086 C1071 0.961 . S
H1087 C1071 0.960 . S
C1088 C1089 1.391 . S
C1088 C1090 1.394 . S
C1088 H1104 0.931 . S
C1089 C1088 1.391 . S
C1089 C1093 1.376 . S
C1090 C1088 1.394 . S
C1090 C1091 1.369 . S
C1090 C1094 1.531 . S
C1091 C1090 1.369 . S
C1091 C1092 1.410 . S
C1091 C1099 1.503 . S
C1092 C1091 1.410 . S
C1092 C1093 1.392 . S
C1092 C1095 1.511 . S
C1093 C1089 1.376 . S
C1093 C1092 1.392 . S
C1093 H1105 0.929 . S
C1094 C1090 1.531 . S
C1094 H1106 0.960 . S
C1094 H1107 0.962 . S
C1094 H1108 0.960 . S
C1095 C1092 1.511 . S
C1095 H1109 0.961 . S
C1095 H1110 0.961 . S
C1095 H1111 0.961 . S
C1096 C1097 1.370 . S
C1096 C1098 1.363 . S
C1096 H1112 0.931 . S
C1097 C1096 1.370 . S
C1097 C1101 1.408 . S
C1098 C1096 1.363 . S
C1098 C1099 1.370 . S
C1098 C1102 1.524 . S
C1099 C1091 1.503 . S
C1099 C1098 1.370 . S
C1099 C1100 1.403 . S
C1100 C1099 1.403 . S
C1100 C1101 1.404 . S
C1100 C1103 1.539 . S
C1101 C1097 1.408 . S
C1101 C1100 1.404 . S
C1101 H1113 0.930 . S
C1102 C1098 1.524 . S
C1102 H1114 0.956 . S
C1102 H1115 0.961 . S
C1102 H1116 0.961 . S
C1103 C1100 1.539 . S
C1103 H1117 0.958 . S
C1103 H1118 0.961 . S
C1103 H1119 0.960 . S
H1104 C1088 0.931 . S
H1105 C1093 0.929 . S
H1106 C1094 0.960 . S
H1107 C1094 0.962 . S
H1108 C1094 0.960 . S
H1109 C1095 0.961 . S
H1110 C1095 0.961 . S
H1111 C1095 0.961 . S
H1112 C1096 0.931 . S
H1113 C1101 0.930 . S
H1114 C1102 0.956 . S
H1115 C1102 0.961 . S
H1116 C1102 0.961 . S
H1117 C1103 0.958 . S
H1118 C1103 0.961 . S
H1119 C1103 0.960 . S
C1120 C1121 1.391 . S
C1120 C1122 1.394 . S
C1120 H1136 0.931 . S
C1121 C1120 1.391 . S
C1121 C1125 1.376 . S
C1122 C1120 1.394 . S
C1122 C1123 1.369 . S
C1122 C1126 1.531 . S
C1123 C1122 1.369 . S
C1123 C1124 1.410 . S
C1123 C1131 1.503 . S
C1124 C1123 1.410 . S
C1124 C1125 1.392 . S
C1124 C1127 1.511 . S
C1125 C1121 1.376 . S
C1125 C1124 1.392 . S
C1125 H1137 0.929 . S
C1126 C1122 1.531 . S
C1126 H1138 0.960 . S
C1126 H1139 0.962 . S
C1126 H1140 0.960 . S
C1127 C1124 1.511 . S
C1127 H1141 0.961 . S
C1127 H1142 0.961 . S
C1127 H1143 0.961 . S
C1128 C1129 1.370 . S
C1128 C1130 1.363 . S
C1128 H1144 0.931 . S
C1129 C1128 1.370 . S
C1129 C1133 1.408 . S
C1130 C1128 1.363 . S
C1130 C1131 1.370 . S
C1130 C1134 1.524 . S
C1131 C1123 1.503 . S
C1131 C1130 1.370 . S
C1131 C1132 1.403 . S
C1132 C1131 1.403 . S
C1132 C1133 1.404 . S
C1132 C1135 1.539 . S
C1133 C1129 1.408 . S
C1133 C1132 1.404 . S
C1133 H1145 0.930 . S
C1134 C1130 1.524 . S
C1134 H1146 0.956 . S
C1134 H1147 0.961 . S
C1134 H1148 0.961 . S
C1135 C1132 1.539 . S
C1135 H1149 0.958 . S
C1135 H1150 0.961 . S
C1135 H1151 0.960 . S
H1136 C1120 0.931 . S
H1137 C1125 0.929 . S
H1138 C1126 0.960 . S
H1139 C1126 0.962 . S
H1140 C1126 0.960 . S
H1141 C1127 0.961 . S
H1142 C1127 0.961 . S
H1143 C1127 0.961 . S
H1144 C1128 0.931 . S
H1145 C1133 0.930 . S
H1146 C1134 0.956 . S
H1147 C1134 0.961 . S
H1148 C1134 0.961 . S
H1149 C1135 0.958 . S
H1150 C1135 0.961 . S
H1151 C1135 0.960 . S
C1152 C1153 1.391 . S
C1152 C1154 1.394 . S
C1152 H1168 0.931 . S
C1153 C1152 1.391 . S
C1153 C1157 1.376 . S
C1154 C1152 1.394 . S
C1154 C1155 1.369 . S
C1154 C1158 1.531 . S
C1155 C1154 1.369 . S
C1155 C1156 1.410 . S
C1155 C1163 1.503 . S
C1156 C1155 1.410 . S
C1156 C1157 1.392 . S
C1156 C1159 1.511 . S
C1157 C1153 1.376 . S
C1157 C1156 1.392 . S
C1157 H1169 0.929 . S
C1158 C1154 1.531 . S
C1158 H1170 0.960 . S
C1158 H1171 0.962 . S
C1158 H1172 0.960 . S
C1159 C1156 1.511 . S
C1159 H1173 0.961 . S
C1159 H1174 0.961 . S
C1159 H1175 0.961 . S
C1160 C1161 1.370 . S
C1160 C1162 1.363 . S
C1160 H1176 0.931 . S
C1161 C1160 1.370 . S
C1161 C1165 1.408 . S
C1162 C1160 1.363 . S
C1162 C1163 1.370 . S
C1162 C1166 1.524 . S
C1163 C1155 1.503 . S
C1163 C1162 1.370 . S
C1163 C1164 1.403 . S
C1164 C1163 1.403 . S
C1164 C1165 1.404 . S
C1164 C1167 1.539 . S
C1165 C1161 1.408 . S
C1165 C1164 1.404 . S
C1165 H1177 0.930 . S
C1166 C1162 1.524 . S
C1166 H1178 0.956 . S
C1166 H1179 0.961 . S
C1166 H1180 0.961 . S
C1167 C1164 1.539 . S
C1167 H1181 0.958 . S
C1167 H1182 0.961 . S
C1167 H1183 0.960 . S
H1168 C1152 0.931 . S
H1169 C1157 0.929 . S
H1170 C1158 0.960 . S
H1171 C1158 0.962 . S
H1172 C1158 0.960 . S
H1173 C1159 0.961 . S
H1174 C1159 0.961 . S
H1175 C1159 0.961 . S
H1176 C1160 0.931 . S
H1177 C1165 0.930 . S
H1178 C1166 0.956 . S
H1179 C1166 0.961 . S
H1180 C1166 0.961 . S
H1181 C1167 0.958 . S
H1182 C1167 0.961 . S
H1183 C1167 0.960 . S
C1184 C1185 1.391 . S
C1184 C1186 1.394 . S
C1184 H1200 0.931 . S
C1185 C1184 1.391 . S
C1185 C1189 1.376 . S
C1186 C1184 1.394 . S
C1186 C1187 1.369 . S
C1186 C1190 1.531 . S
C1187 C1186 1.369 . S
C1187 C1188 1.410 . S
C1187 C1195 1.503 . S
C1188 C1187 1.410 . S
C1188 C1189 1.392 . S
C1188 C1191 1.511 . S
C1189 C1185 1.376 . S
C1189 C1188 1.392 . S
C1189 H1201 0.929 . S
C1190 C1186 1.531 . S
C1190 H1202 0.960 . S
C1190 H1203 0.962 . S
C1190 H1204 0.960 . S
C1191 C1188 1.511 . S
C1191 H1205 0.961 . S
C1191 H1206 0.961 . S
C1191 H1207 0.961 . S
C1192 C1193 1.370 . S
C1192 C1194 1.363 . S
C1192 H1208 0.931 . S
C1193 C1192 1.370 . S
C1193 C1197 1.408 . S
C1194 C1192 1.363 . S
C1194 C1195 1.370 . S
C1194 C1198 1.524 . S
C1195 C1187 1.503 . S
C1195 C1194 1.370 . S
C1195 C1196 1.403 . S
C1196 C1195 1.403 . S
C1196 C1197 1.404 . S
C1196 C1199 1.539 . S
C1197 C1193 1.408 . S
C1197 C1196 1.404 . S
C1197 H1209 0.930 1_554 S
C1198 C1194 1.524 . S
C1198 H1210 0.956 . S
C1198 H1211 0.961 . S
C1198 H1212 0.961 . S
C1199 C1196 1.539 . S
C1199 H1213 0.958 1_554 S
C1199 H1214 0.961 1_554 S
C1199 H1215 0.960 . S
H1200 C1184 0.931 . S
H1201 C1189 0.929 . S
H1202 C1190 0.960 . S
H1203 C1190 0.962 . S
H1204 C1190 0.960 . S
H1205 C1191 0.961 . S
H1206 C1191 0.961 . S
H1207 C1191 0.961 . S
H1208 C1192 0.931 . S
H1209 C1197 0.930 1_556 S
H1210 C1198 0.956 . S
H1211 C1198 0.961 . S
H1212 C1198 0.961 . S
H1213 C1199 0.958 1_556 S
H1214 C1199 0.961 1_556 S
H1215 C1199 0.960 . S
C1216 C1217 1.391 . S
C1216 C1218 1.394 . S
C1216 H1232 0.931 1_556 S
C1217 C1216 1.391 . S
C1217 C1221 1.376 . S
C1218 C1216 1.394 . S
C1218 C1219 1.369 . S
C1218 C1222 1.531 1_556 S
C1219 C1218 1.369 . S
C1219 C1220 1.410 . S
C1219 C1227 1.503 . S
C1220 C1219 1.410 . S
C1220 C1221 1.392 . S
C1220 C1223 1.511 . S
C1221 C1217 1.376 . S
C1221 C1220 1.392 . S
C1221 H1233 0.929 . S
C1222 C1218 1.531 1_554 S
C1222 H1234 0.960 1_554 S
C1222 H1235 0.962 . S
C1222 H1236 0.960 . S
C1223 C1220 1.511 . S
C1223 H1237 0.961 . S
C1223 H1238 0.961 . S
C1223 H1239 0.961 . S
C1224 C1225 1.370 . S
C1224 C1226 1.363 . S
C1224 H1240 0.931 . S
C1225 C1224 1.370 . S
C1225 C1229 1.408 . S
C1226 C1224 1.363 . S
C1226 C1227 1.370 . S
C1226 C1230 1.524 . S
C1227 C1219 1.503 . S
C1227 C1226 1.370 . S
C1227 C1228 1.403 . S
C1228 C1227 1.403 . S
C1228 C1229 1.404 . S
C1228 C1231 1.539 . S
C1229 C1225 1.408 . S
C1229 C1228 1.404 . S
C1229 H1241 0.930 . S
C1230 C1226 1.524 . S
C1230 H1242 0.956 . S
C1230 H1243 0.961 . S
C1230 H1244 0.961 . S
C1231 C1228 1.539 . S
C1231 H1245 0.958 . S
C1231 H1246 0.961 . S
C1231 H1247 0.960 . S
H1232 C1216 0.931 1_554 S
H1233 C1221 0.929 . S
H1234 C1222 0.960 1_556 S
H1235 C1222 0.962 . S
H1236 C1222 0.960 . S
H1237 C1223 0.961 . S
H1238 C1223 0.961 . S
H1239 C1223 0.961 . S
H1240 C1224 0.931 . S
H1241 C1229 0.930 . S
H1242 C1230 0.956 . S
H1243 C1230 0.961 . S
H1244 C1230 0.961 . S
H1245 C1231 0.958 . S
H1246 C1231 0.961 . S
H1247 C1231 0.960 . S
C225 C3 1.504 . S
C233 C171 1.496 . S
C257 C23 1.308 . S
C265 C79 1.325 . S
C289 C31 1.496 . S
C297 C199 1.501 . S
C321 C107 1.301 . S
C329 C51 1.328 . S
C353 C205 1.303 . S
C361 C37 1.329 . S
C385 C101 1.490 . S
C393 C45 1.504 . S
C417 C177 1.340 . S
C425 C9 1.313 . S
C449 C73 1.496 . S
C457 C17 1.501 . S
C481 C59 1.506 . S
C489 C115 1.496 . S
C513 C87 1.487 . S
C521 C143 1.505 . S
C545 C149 1.333 . S
C553 C93 1.317 . S
C577 C65 1.299 . S
C585 C121 1.330 . S
C609 C191 1.296 . S
C617 C135 1.331 . S
C641 C163 1.331 . S
C649 C219 1.315 . S
C673 C157 1.490 . S
C681 C213 1.504 . S
C705 C129 1.486 . S
C713 C185 1.504 . S
C737 C162 1.479 . S
C745 C8 1.486 . S
C769 C119 1.443 . S
C777 C21 1.463 . S
C801 C36 1.480 . S
C809 C134 1.484 . S
C833 C147 1.470 . S
C841 C49 1.475 . S
C865 C161 1.473 . S
C873 C35 1.476 . S
C897 C50 1.486 . S
C905 C120 1.487 . S
C929 C133 1.447 . S
C937 C7 1.466 . S
C961 C148 1.483 . S
C969 C22 1.485 . S
C993 C64 1.485 . S
C1001 C218 1.488 . S
C1025 C175 1.447 . S
C1033 C77 1.463 . S
C1057 C92 1.478 . S
C1065 C190 1.484 . S
C1089 C105 1.482 . S
C1097 C203 1.473 . S
C1121 C91 1.449 . S
C1129 C217 1.464 . S
C1153 C176 1.486 . S
C1161 C106 1.487 . S
C1185 C189 1.454 . S
C1193 C63 1.467 . S
C1217 C204 1.486 . S
C1225 C78 1.488 . S
