# Generated by pormake.
# Topology smk, (6)-cn, num edge types: 1
# Building blocks:
#     Node 0, Type 0, BuildingBlock: UKALOJ_clean_sbu_0, # of connection points: 6
#     Node 1, Type 0, BuildingBlock: UKALOJ_clean_sbu_0, # of connection points: 6
#     Node 2, Type 0, BuildingBlock: UKALOJ_clean_sbu_0, # of connection points: 6
#     Node 3, Type 0, BuildingBlock: UKALOJ_clean_sbu_0, # of connection points: 6
#     Node 4, Type 0, BuildingBlock: UKALOJ_clean_sbu_0, # of connection points: 6
#     Node 5, Type 0, BuildingBlock: UKALOJ_clean_sbu_0, # of connection points: 6
#     Edge 6, Type (0, 0), BuildingBlock: UVAHIK_clean_linker_0, # of connection points: 2
#     Edge 7, Type (0, 0), BuildingBlock: UVAHIK_clean_linker_0, # of connection points: 2
#     Edge 8, Type (0, 0), BuildingBlock: UVAHIK_clean_linker_0, # of connection points: 2
#     Edge 9, Type (0, 0), BuildingBlock: UVAHIK_clean_linker_0, # of connection points: 2
#     Edge 10, Type (0, 0), BuildingBlock: UVAHIK_clean_linker_0, # of connection points: 2
#     Edge 11, Type (0, 0), BuildingBlock: UVAHIK_clean_linker_0, # of connection points: 2
#     Edge 12, Type (0, 0), BuildingBlock: UVAHIK_clean_linker_0, # of connection points: 2
#     Edge 13, Type (0, 0), BuildingBlock: UVAHIK_clean_linker_0, # of connection points: 2
#     Edge 14, Type (0, 0), BuildingBlock: UVAHIK_clean_linker_0, # of connection points: 2
#     Edge 15, Type (0, 0), BuildingBlock: UVAHIK_clean_linker_0, # of connection points: 2
#     Edge 16, Type (0, 0), BuildingBlock: UVAHIK_clean_linker_0, # of connection points: 2
#     Edge 17, Type (0, 0), BuildingBlock: UVAHIK_clean_linker_0, # of connection points: 2
#     Edge 18, Type (0, 0), BuildingBlock: UVAHIK_clean_linker_0, # of connection points: 2
#     Edge 19, Type (0, 0), BuildingBlock: UVAHIK_clean_linker_0, # of connection points: 2
#     Edge 20, Type (0, 0), BuildingBlock: UVAHIK_clean_linker_0, # of connection points: 2
#     Edge 21, Type (0, 0), BuildingBlock: UVAHIK_clean_linker_0, # of connection points: 2
#     Edge 22, Type (0, 0), BuildingBlock: UVAHIK_clean_linker_0, # of connection points: 2
#     Edge 23, Type (0, 0), BuildingBlock: UVAHIK_clean_linker_0, # of connection points: 2
# Relax obj value: 0.277
# Max RMSD: 0.213
# Mean RMSD: 0.213
data_MOF--net-smk--node1-UKALOJ_clean_sbu_0--edge1-UVAHIK_clean_linker_0
_symmetry_space_group_name_H-M    P1
_symmetry_Int_Tables_number       1
_symmetry_cell_setting            triclinic
loop_
_symmetry_equiv_pos_as_xyz
'x, y, z'
_cell_length_a     58.269702
_cell_length_b     58.279633
_cell_length_c     18.966134
_cell_angle_alpha  89.854278
_cell_angle_beta   90.073115
_cell_angle_gamma 119.98443
loop_
_atom_site_label
_atom_site_type_symbol
_atom_site_fract_x
_atom_site_fract_y
_atom_site_fract_z
_atom_type_partial_charge
Zn0 Zn 0.42563 0.21278 0.49874 0.0
O1 O 0.39395 0.17431 0.52579 0.0
C2 C 0.44772 0.22332 0.63972 0.0
Zn3 Zn 0.45631 0.20055 0.50932 0.0
C4 C 0.40016 0.15666 0.53876 0.0
O5 O 0.42441 0.16294 0.53731 0.0
C6 C 0.48173 0.25613 0.46473 0.0
O7 O 0.45212 0.18831 0.40522 0.0
O8 O 0.42194 0.20034 0.39458 0.0
N9 N 0.48168 0.18655 0.53124 0.0
C10 C 0.50706 0.19443 0.51445 0.0
C11 C 0.49442 0.16274 0.58816 0.0
N12 N 0.4739 0.16674 0.57668 0.0
N13 N 0.51559 0.17994 0.55004 0.0
C14 C 0.3832 0.22978 0.52324 0.0
C15 C 0.38417 0.24831 0.42553 0.0
N16 N 0.39997 0.22676 0.48038 0.0
N17 N 0.40038 0.23814 0.41955 0.0
N18 N 0.37324 0.24356 0.49034 0.0
H19 H 0.37732 0.19999 0.60004 0.0
H20 H 0.3552 0.2132 0.60872 0.0
H21 H 0.38942 0.23269 0.63459 0.0
C22 C 0.37572 0.21809 0.59572 0.0
C23 C 0.52288 0.21526 0.46081 0.0
H24 H 0.50976 0.21541 0.41859 0.0
H25 H 0.53827 0.21178 0.43707 0.0
H26 H 0.53281 0.23484 0.48708 0.0
O27 O 0.48733 0.23823 0.47992 0.0
O28 O 0.4578 0.25091 0.4692 0.0
C29 C 0.43531 0.19071 0.36798 0.0
O30 O 0.43032 0.22511 0.60373 0.0
O31 O 0.46064 0.21338 0.61261 0.0
Zn32 Zn 0.22447 0.4231 0.73624 0.0
O33 O 0.2369 0.39529 0.71053 0.0
C34 C 0.24231 0.42412 0.87842 0.0
Zn35 Zn 0.26682 0.45519 0.74773 0.0
C36 C 0.26152 0.40313 0.70617 0.0
O37 O 0.27823 0.42724 0.71892 0.0
C38 C 0.22978 0.47566 0.77079 0.0
O39 O 0.2699 0.46693 0.64326 0.0
O40 O 0.22835 0.43497 0.6316 0.0
N41 N 0.30593 0.4822 0.76881 0.0
C42 C 0.31978 0.50879 0.7761 0.0
C43 C 0.34481 0.49404 0.81023 0.0
N44 N 0.32168 0.47318 0.7896 0.0
N45 N 0.34415 0.5167 0.80298 0.0
C46 C 0.16318 0.3891 0.75497 0.0
C47 C 0.15239 0.35946 0.67616 0.0
N48 N 0.18554 0.39449 0.72017 0.0
N49 N 0.17875 0.37606 0.67115 0.0
N50 N 0.14206 0.36725 0.72815 0.0
H51 H 0.14722 0.39089 0.85615 0.0
H52 H 0.15683 0.41912 0.79958 0.0
H53 H 0.18167 0.41516 0.84425 0.0
C54 C 0.16228 0.40434 0.81758 0.0
C55 C 0.30991 0.52691 0.75335 0.0
H56 H 0.29587 0.51817 0.70865 0.0
H57 H 0.32665 0.54649 0.73742 0.0
H58 H 0.29949 0.52984 0.79817 0.0
O59 O 0.25424 0.48269 0.77413 0.0
O60 O 0.21293 0.45152 0.75873 0.0
C61 C 0.24925 0.45424 0.60564 0.0
O62 O 0.22159 0.41188 0.84129 0.0
O63 O 0.26325 0.44288 0.85172 0.0
Zn64 Zn 0.81151 0.21576 0.83647 0.0
O65 O 0.85021 0.22477 0.86911 0.0
C66 C 0.79963 0.22935 0.97471 0.0
Zn67 Zn 0.82277 0.2586 0.84193 0.0
C68 C 0.86734 0.24892 0.88076 0.0
O69 O 0.86055 0.26647 0.87572 0.0
C70 C 0.76774 0.22601 0.79208 0.0
O71 O 0.8362 0.265 0.73843 0.0
O72 O 0.82504 0.22301 0.73266 0.0
N73 N 0.83482 0.29816 0.85384 0.0
C74 C 0.82226 0.31063 0.87895 0.0
C75 C 0.86238 0.34018 0.85934 0.0
N76 N 0.85972 0.31659 0.84167 0.0
N77 N 0.83923 0.33704 0.88339 0.0
C78 C 0.79491 0.15653 0.86972 0.0
C79 C 0.78384 0.13895 0.76799 0.0
N80 N 0.79963 0.17613 0.82373 0.0
N81 N 0.79287 0.16511 0.7605 0.0
N82 N 0.78479 0.13301 0.83618 0.0
H83 H 0.81864 0.18046 0.95629 0.0
H84 H 0.80558 0.14521 0.96718 0.0
H85 H 0.78391 0.1587 -0.02465 0.0
C86 C 0.80131 0.16054 0.94666 0.0
C87 C 0.79295 0.29707 0.89189 0.0
H88 H 0.78257 0.29009 0.84081 0.0
H89 H 0.78647 0.31031 0.91484 0.0
H90 H 0.78664 0.27957 0.92642 0.0
O91 O 0.78514 0.24981 0.80571 0.0
O92 O 0.77329 0.20768 0.80147 0.0
C93 C 0.83468 0.24567 0.70387 0.0
O94 O 0.79817 0.20985 0.94109 0.0
O95 O 0.80926 0.25179 0.945 0.0
Zn96 Zn 0.60043 0.80501 0.07469 0.0
O97 O 0.631 0.84482 0.05408 0.0
C98 C 0.59979 0.8191 0.21871 0.0
Zn99 Zn 0.57066 0.81844 0.08879 0.0
C100 C 0.6253 0.86327 0.05536 0.0
O101 O 0.60166 0.85762 0.06889 0.0
C102 C 0.54569 0.75981 0.10155 0.0
O103 O 0.56019 0.81434 -0.01679 0.0
O104 O 0.58918 0.80084 0.96966 0.0
N105 N 0.5459 0.83303 0.11442 0.0
C106 C 0.51937 0.82183 0.12137 0.0
C107 C 0.53655 0.86096 0.16236 0.0
N108 N 0.55643 0.85742 0.13949 0.0
N109 N 0.51301 0.83883 0.15226 0.0
C110 C 0.64699 0.79286 0.08682 0.0
C111 C 0.63653 0.76355 0.00732 0.0
N112 N 0.62531 0.79029 0.05358 0.0
N113 N 0.619 0.77217 0.00396 0.0
N114 N 0.65428 0.77603 0.05926 0.0
H115 H 0.65991 0.83078 0.13503 0.0
H116 H 0.68302 0.81873 0.14295 0.0
H117 H 0.65323 0.8043 0.19538 0.0
C118 C 0.66175 0.81291 0.14311 0.0
C119 C 0.4998 0.79488 0.09465 0.0
H120 H 0.50777 0.78992 0.04763 0.0
H121 H 0.48081 0.79387 0.0807 0.0
H122 H 0.49592 0.78016 0.1367 0.0
O123 O 0.54028 0.77837 0.10657 0.0
O124 O 0.56961 0.7657 0.09209 0.0
C125 C 0.57196 0.80582 0.94406 0.0
O126 O 0.61079 0.80952 0.18074 0.0
O127 O 0.58212 0.82327 0.19308 0.0
Zn128 Zn 0.76778 0.57063 0.18446 0.0
O129 O 0.75862 0.57248 0.07931 0.0
C130 C 0.79848 0.54566 0.14242 0.0
Zn131 Zn 0.81029 0.60181 0.17068 0.0
C132 C 0.7771 0.58989 0.0414 0.0
O133 O 0.8 0.60453 0.06741 0.0
C134 C 0.80058 0.58152 0.31334 0.0
O135 O 0.80326 0.63324 0.19777 0.0
O136 O 0.76135 0.60264 0.20721 0.0
N137 N 0.84939 0.62782 0.14756 0.0
C138 C 0.87039 0.64461 0.18718 0.0
C139 C 0.8852 0.64252 0.08624 0.0
N140 N 0.85868 0.62684 0.08464 0.0
N141 N 0.89308 0.65406 0.14986 0.0
C142 C 0.71203 0.51905 0.19352 0.0
C143 C 0.69247 0.53113 0.26683 0.0
N144 N 0.72886 0.54473 0.20883 0.0
N145 N 0.71654 0.55218 0.25403 0.0
N146 N 0.68911 0.50998 0.22979 0.0
H147 H 0.72985 0.51665 0.09667 0.0
H148 H 0.69873 0.48729 0.11801 0.0
H149 H 0.7284 0.49467 0.16566 0.0
C150 C 0.71749 0.5035 0.14009 0.0
C151 C 0.8689 0.64991 0.26376 0.0
H152 H 0.84962 0.64848 0.27595 0.0
H153 H 0.88518 0.66982 0.27872 0.0
H154 H 0.87092 0.63502 0.29562 0.0
O155 O 0.81947 0.59808 0.2751 0.0
O156 O 0.77734 0.56859 0.28836 0.0
C157 C 0.77925 0.62695 0.20869 0.0
O158 O 0.77521 0.53965 0.16103 0.0
O159 O 0.8166 0.5699 0.14112 0.0
Zn160 Zn 0.2198 0.79937 0.40639 0.0
O161 O 0.17955 0.78769 0.38262 0.0
C162 C 0.20322 0.78162 0.54822 0.0
Zn163 Zn 0.20901 0.75679 0.41733 0.0
C164 C 0.16252 0.76315 0.37828 0.0
O165 O 0.16971 0.74619 0.39011 0.0
C166 C 0.26685 0.7932 0.43801 0.0
O167 O 0.21651 0.75307 0.31277 0.0
O168 O 0.22648 0.79473 0.30112 0.0
N169 N 0.19606 0.71741 0.4388 0.0
C170 C 0.20822 0.70321 0.45087 0.0
C171 C 0.16744 0.67832 0.47607 0.0
N172 N 0.17068 0.70174 0.45411 0.0
N173 N 0.19073 0.67871 0.47523 0.0
C174 C 0.24479 0.86024 0.42836 0.0
C175 C 0.23339 0.8723 0.33473 0.0
N176 N 0.23086 0.83841 0.38841 0.0
N177 N 0.22388 0.84598 0.33021 0.0
N178 N 0.24667 0.88177 0.3957 0.0
H179 H 0.237 0.85531 0.53874 0.0
H180 H 0.27062 0.87897 0.51854 0.0
H181 H 0.25903 0.84415 0.50881 0.0
C182 C 0.25363 0.85974 0.50244 0.0
C183 C 0.23676 0.71286 0.43518 0.0
H184 H 0.24323 0.72623 0.38869 0.0
H185 H 0.24007 0.69602 0.42455 0.0
H186 H 0.24881 0.72391 0.4815 0.0
O187 O 0.24918 0.76882 0.44178 0.0
O188 O 0.25979 0.81032 0.42692 0.0
C189 C 0.22394 0.77355 0.27469 0.0
O190 O 0.21234 0.80267 0.51202 0.0
O191 O 0.20087 0.76071 0.52116 0.0
C192 C 0.41294 0.18523 0.25341 0.0
C193 C 0.43409 0.18646 0.29194 0.0
C194 C 0.41506 0.18889 0.18088 0.0
C195 C 0.45429 0.19435 0.02438 0.0
H196 H 0.43711 0.24841 0.97065 0.0
C197 C 0.47486 0.23463 0.7479 0.0
C198 C 0.45159 0.23039 0.7143 0.0
C199 C 0.47626 0.23495 0.82098 0.0
C200 C 0.44205 0.2334 -0.0148 0.0
H201 H 0.47264 0.18937 0.28508 0.0
H202 H 0.47643 0.19603 0.15792 0.0
H203 H 0.42941 0.23179 0.09155 0.0
H204 H 0.41279 0.22613 0.7294 0.0
H205 H 0.41505 0.2263 0.85748 0.0
H206 H 0.46662 0.19571 0.91793 0.0
C207 C 0.4583 0.19229 0.18372 0.0
C208 C 0.4374 0.22369 0.05382 0.0
C209 C 0.45611 0.18845 0.25636 0.0
C210 C 0.43088 0.22936 0.75424 0.0
C211 C 0.43223 0.22953 0.82748 0.0
C212 C 0.45897 0.20409 0.95582 0.0
C213 C 0.43838 0.19394 0.14628 0.0
C214 C 0.44313 0.20382 0.07353 0.0
C215 C 0.45435 0.23087 0.86107 0.0
C216 C 0.45262 0.22347 0.93561 0.0
H217 H 0.39555 0.18323 0.27979 0.0
H218 H 0.39914 0.18934 0.15245 0.0
H219 H 0.45882 0.17902 0.03853 0.0
H220 H 0.49133 0.23605 0.71786 0.0
H221 H 0.49372 0.23656 0.84609 0.0
C222 C 0.27397 0.47154 0.49363 0.0
C223 C 0.24989 0.4598 0.53044 0.0
C224 C 0.27387 0.47054 0.42034 0.0
C225 C 0.23196 0.45274 0.26195 0.0
H226 H 0.27078 0.41746 0.20728 0.0
C227 C 0.21762 0.4077 -0.00924 0.0
C228 C 0.24167 0.41894 0.95384 0.0
C229 C 0.2178 0.40923 0.06397 0.0
C230 C 0.25988 0.42728 0.22205 0.0
H231 H 0.20715 0.44124 0.52099 0.0
H232 H 0.20699 0.43939 0.39315 0.0
H233 H 0.27538 0.43466 0.32668 0.0
H234 H 0.28439 0.43724 0.96322 0.0
H235 H 0.28468 0.43997 0.09088 0.0
H236 H 0.21645 0.44535 0.15729 0.0
C237 C 0.22586 0.4491 0.42038 0.0
C238 C 0.26278 0.43743 0.2897 0.0
C239 C 0.22595 0.44994 0.49345 0.0
C240 C 0.26562 0.42886 -0.00918 0.0
C241 C 0.26578 0.43024 0.0638 0.0
C242 C 0.22907 0.4426 0.19426 0.0
C243 C 0.24971 0.45802 0.38373 0.0
C244 C 0.24885 0.45023 0.31003 0.0
C245 C 0.242 0.42176 0.10042 0.0
C246 C 0.24299 0.42978 0.17396 0.0
H247 H 0.29269 0.47952 0.52127 0.0
H248 H 0.2925 0.47792 0.39258 0.0
H249 H 0.22101 0.4625 0.27681 0.0
H250 H 0.19889 0.39971 0.96315 0.0
H251 H 0.19922 0.40217 0.09171 0.0
C252 C 0.79422 0.24867 0.08546 0.0
C253 C 0.79381 0.22728 0.05032 0.0
C254 C 0.79585 0.25014 0.15857 0.0
C255 C 0.79361 0.21435 0.3208 0.0
H256 H 0.8549 0.28155 0.37272 0.0
C257 C 0.83897 0.22697 0.59074 0.0
C258 C 0.84007 0.24826 0.62807 0.0
C259 C 0.83657 0.22601 0.51778 0.0
C260 C 0.83774 0.26277 0.35885 0.0
H261 H 0.79154 0.18925 0.06395 0.0
H262 H 0.79454 0.19187 0.19147 0.0
H263 H 0.83773 0.27496 0.25266 0.0
H264 H 0.84304 0.28679 0.61862 0.0
H265 H 0.83854 0.28493 0.49101 0.0
H266 H 0.79368 0.20212 0.42686 0.0
C267 C 0.79367 0.2075 0.16267 0.0
C268 C 0.82773 0.25908 0.29065 0.0
C269 C 0.79201 0.20602 0.08954 0.0
C270 C 0.84193 0.27 0.59104 0.0
C271 C 0.83941 0.26898 0.51802 0.0
C272 C 0.80361 0.21804 0.38896 0.0
C273 C 0.79705 0.23024 0.19724 0.0
C274 C 0.80565 0.23481 0.27113 0.0
C275 C 0.83522 0.2463 0.48151 0.0
C276 C 0.82585 0.24221 0.40829 0.0
H277 H 0.79511 0.26514 0.05643 0.0
H278 H 0.79784 0.26759 0.18454 0.0
H279 H 0.77652 0.19553 0.30684 0.0
H280 H 0.83806 0.21018 0.61808 0.0
H281 H 0.83406 0.20864 0.49019 0.0
C282 C 0.61446 0.81094 0.33426 0.0
C283 C 0.60755 0.82622 0.29179 0.0
C284 C 0.61638 0.8148 0.40694 0.0
C285 C 0.58216 0.83232 0.53291 0.0
H286 H 0.62433 0.82005 0.66965 0.0
C287 C 0.56451 0.82394 0.8339 0.0
C288 C 0.56887 0.80507 0.86784 0.0
C289 C 0.56945 0.82845 0.76196 0.0
C290 C 0.61235 0.82335 0.6317 0.0
H291 H 0.60113 0.85982 0.28833 0.0
H292 H 0.60496 0.86682 0.41519 0.0
H293 H 0.63911 0.82943 0.54717 0.0
H294 H 0.57841 0.77386 0.8537 0.0
H295 H 0.58623 0.78118 0.72749 0.0
H296 H 0.55495 0.82538 0.61669 0.0
C297 C 0.60802 0.85142 0.39313 0.0
C298 C 0.62093 0.82891 0.56219 0.0
C299 C 0.60571 0.84732 0.32095 0.0
C300 C 0.57535 0.7888 0.82835 0.0
C301 C 0.58006 0.79315 0.75663 0.0
C302 C 0.57357 0.82672 0.60231 0.0
C303 C 0.61172 0.83415 0.43686 0.0
C304 C 0.60559 0.83289 0.51211 0.0
C305 C 0.57852 0.81392 0.72386 0.0
C306 C 0.58827 0.82154 0.65165 0.0
H307 H 0.61626 0.79479 0.31215 0.0
H308 H 0.61923 0.80121 0.43988 0.0
H309 H 0.5697 0.83482 0.49482 0.0
H310 H 0.55957 0.83672 0.86371 0.0
H311 H 0.56797 0.84446 0.73736 0.0
C312 C 0.78695 0.55462 0.42189 0.0
C313 C 0.80457 0.57839 0.38783 0.0
C314 C 0.78593 0.55342 0.49495 0.0
C315 C 0.81631 0.5896 0.65885 0.0
H316 H 0.74314 0.56492 0.71116 0.0
C317 C 0.79197 0.61321 0.92736 0.0
C318 C 0.77367 0.59083 0.96543 0.0
C319 C 0.79395 0.61173 0.85481 0.0
C320 C 0.76358 0.57169 0.69728 0.0
H321 H 0.83693 0.61855 0.40175 0.0
H322 H 0.83478 0.6167 0.53021 0.0
H323 H 0.75368 0.55918 0.5906 0.0
H324 H 0.74112 0.55039 0.9579 0.0
H325 H 0.74473 0.54773 0.83049 0.0
H326 H 0.8262 0.60239 0.76551 0.0
C327 C 0.82192 0.59896 0.50059 0.0
C328 C 0.76962 0.56821 0.62871 0.0
C329 C 0.82313 0.60007 0.42725 0.0
C330 C 0.75542 0.56788 0.92944 0.0
C331 C 0.75752 0.56635 0.85671 0.0
C332 C 0.81026 0.59308 0.72747 0.0
C333 C 0.8023 0.57609 0.53459 0.0
C334 C 0.79604 0.5773 0.60891 0.0
C335 C 0.77774 0.58783 0.8197 0.0
C336 C 0.78389 0.58442 0.74686 0.0
H337 H 0.77282 0.53748 0.39208 0.0
H338 H 0.77109 0.53538 0.52033 0.0
H339 H 0.83678 0.59665 0.6447 0.0
H340 H 0.80594 0.63128 0.95414 0.0
H341 H 0.80919 0.62876 0.82676 0.0
C342 C 0.2388 0.79545 0.15901 0.0
C343 C 0.2257 0.77198 0.1984 0.0
C344 C 0.23439 0.795 0.08703 0.0
C345 C 0.20623 0.75268 0.93265 0.0
H346 H 0.18953 0.80694 0.87734 0.0
C347 C 0.1779 0.75678 0.6529 0.0
C348 C 0.19595 0.78109 0.62188 0.0
C349 C 0.17479 0.75479 0.72551 0.0
C350 C 0.19396 0.79163 0.89244 0.0
H351 H 0.20008 0.72932 0.19359 0.0
H352 H 0.19219 0.72856 0.0672 0.0
H353 H 0.20189 0.80478 -0.00078 0.0
H354 H 0.22261 0.82293 0.64009 0.0
H355 H 0.21776 0.81936 0.76795 0.0
H356 H 0.19888 0.73984 0.82579 0.0
C357 C 0.20577 0.74725 0.09197 0.0
C358 C 0.20128 0.79053 0.96158 0.0
C359 C 0.21035 0.74768 0.16407 0.0
C360 C 0.20876 0.80397 0.66328 0.0
C361 C 0.20583 0.80193 0.7362 0.0
C362 C 0.19885 0.75372 0.86364 0.0
C363 C 0.21672 0.77109 0.05391 0.0
C364 C 0.20804 0.77143 -0.01838 0.0
C365 C 0.18993 0.77704 0.76773 0.0
C366 C 0.19315 0.7735 0.84282 0.0
H367 H 0.25109 0.81437 0.1845 0.0
H368 H 0.24367 0.8135 0.05798 0.0
H369 H 0.21139 0.73782 0.94708 0.0
H370 H 0.16728 0.739 0.6214 0.0
H371 H 0.16204 0.73553 0.74895 0.0
C372 C 0.35306 0.11926 0.52913 0.0
C373 C 0.37969 0.12836 0.54662 0.0
C374 C 0.33496 0.09202 0.52446 0.0
C375 C 0.32638 0.0253 0.56578 0.0
H376 H 0.2823 1.00355 0.39833 0.0
C377 C 0.28559 0.92217 0.44093 0.0
C378 C 0.25902 0.90881 0.41923 0.0
C379 C 0.29756 0.94847 0.46359 0.0
C380 C 0.29421 1.00928 0.44583 0.0
H381 H 0.40775 0.11595 0.5773 0.0
H382 H 0.37659 0.06894 0.56842 0.0
H383 H 0.30735 0.05036 0.42954 0.0
H384 H 0.2245 0.91265 0.40033 0.0
H385 H 0.24555 0.95899 0.43903 0.0
H386 H 0.31403 0.98426 0.58024 0.0
C387 C 0.36941 0.08259 0.55878 0.0
C388 C 0.3085 0.03613 0.46399 0.0
C389 C 0.3874 0.10968 0.56346 0.0
C390 C 0.24492 0.92253 0.41785 0.0
C391 C 0.25696 0.94896 0.43983 0.0
C392 C 0.3123 0.99852 0.54725 0.0
C393 C 0.34312 0.07335 0.5374 0.0
C394 C 0.32521 0.04456 0.52343 0.0
C395 C 0.28337 0.96214 0.46351 0.0
C396 C 0.29646 0.99027 0.48635 0.0
H397 H 0.34646 0.13313 0.5159 0.0
H398 H 0.31475 0.0856 0.50897 0.0
H399 H 0.33859 0.03096 0.61271 0.0
H400 H 0.29719 0.91236 0.43936 0.0
H401 H 0.31814 0.9583 0.47975 0.0
C402 C 0.34025 0.25789 0.47356 0.0
C403 C 0.35783 0.2547 0.5178 0.0
C404 C 0.32754 0.27148 0.49692 0.0
C405 C 0.33542 0.32133 0.63055 0.0
H406 H 0.26531 0.30428 0.56796 0.0
C407 C 0.29773 0.39457 0.66901 0.0
C408 C 0.2709 0.38466 0.68564 0.0
C409 C 0.30691 0.37747 0.64971 0.0
C410 C 0.28479 0.30916 0.58666 0.0
H411 H 0.37633 0.26417 0.62097 0.0
H412 H 0.35307 0.28614 0.66327 0.0
H413 H 0.28282 0.27553 0.53525 0.0
H414 H 0.23263 0.34891 0.69482 0.0
H415 H 0.24881 0.31888 0.66292 0.0
H416 H 0.3372 0.35444 0.68363 0.0
C417 C 0.34921 0.27842 0.61006 0.0
C418 C 0.295 0.29284 0.56709 0.0
C419 C 0.36212 0.26514 0.58636 0.0
C420 C 0.25342 0.35718 0.68222 0.0
C421 C 0.26268 0.33998 0.6635 0.0
C422 C 0.32516 0.33746 0.65056 0.0
C423 C 0.33215 0.28228 0.56525 0.0
C424 C 0.32056 0.29882 0.58836 0.0
C425 C 0.28961 0.34992 0.64728 0.0
C426 C 0.29984 0.33183 0.62825 0.0
H427 H 0.33684 0.25037 0.42014 0.0
H428 H 0.3149 0.27436 0.46039 0.0
H429 H 0.35533 0.32693 0.64715 0.0
H430 H 0.31171 0.41566 0.67031 0.0
H431 H 0.32763 0.38598 0.63601 0.0
C432 C 0.91424 0.28429 0.90158 0.0
C433 C 0.8958 0.25743 0.88958 0.0
C434 C 0.9414 0.29372 0.89605 0.0
C435 C 0.98755 0.27772 0.80553 0.0
H436 H 0.04029 0.33819 0.91068 0.0
C437 C 0.10055 0.32574 0.75401 0.0
C438 C 0.11482 0.35356 0.75112 0.0
C439 C 0.07421 0.31225 0.77707 0.0
C440 C 0.02578 0.32136 0.88069 0.0
H441 H 0.89159 0.21905 0.86718 0.0
H442 H 0.93917 0.23544 0.85894 0.0
H443 H 0.99389 0.31683 0.94614 0.0
H444 H 0.11203 0.38893 0.7654 0.0
H445 H 0.06631 0.36554 0.80727 0.0
H446 H 0.01952 0.28245 0.73982 0.0
C447 C 0.93253 0.24933 0.8711 0.0
C448 C 0.99917 0.3091 0.90099 0.0
C449 C 0.90525 0.23987 0.87658 0.0
C450 C 0.10196 0.36759 0.76992 0.0
C451 C 0.07571 0.35416 0.79352 0.0
C452 C 1.01421 0.28988 0.78557 0.0
C453 C 0.95091 0.27652 0.87863 0.0
C454 C 0.9796 0.28745 0.8628 0.0
C455 C 0.06156 0.32634 0.79768 0.0
C456 C 0.03355 0.31216 0.82207 0.0
H457 H 0.9077 0.2984 0.91183 0.0
H458 H 0.95483 0.3148 0.90162 0.0
H459 H 0.97305 0.26139 0.77412 0.0
H460 H 0.10996 0.31445 0.73937 0.0
H461 H 0.06386 0.29082 0.77973 0.0
C462 C 0.66877 0.89716 0.00218 0.0
C463 C 0.6456 0.89108 0.0397 0.0
C464 C 0.68694 0.92343 -0.01633 0.0
C465 C 0.7095 0.99267 0.03088 0.0
H466 H 0.72951 1.00854 0.83435 0.0
C467 C 0.75532 0.09886 0.92119 0.0
C468 C 0.77343 0.10671 0.8652 0.0
C469 C 0.74246 0.07269 0.94544 0.0
C470 C 0.72464 1.00454 0.88974 0.0
H471 H 0.62375 0.90786 0.08908 0.0
H472 H 0.65566 0.95359 0.05814 0.0
H473 H 0.70273 0.96257 0.87236 0.0
H474 H 0.79235 0.09355 0.79053 0.0
H475 H 0.77066 0.04788 0.83423 0.0
H476 H 0.73148 0.03443 0.04892 0.0
C477 C 0.65971 0.93808 0.04262 0.0
C478 C 0.70918 0.97813 0.91139 0.0
C479 C 0.64137 0.91186 0.05999 0.0
C480 C 0.77858 0.08793 0.83414 0.0
C481 C 0.76596 0.06176 0.8589 0.0
C482 C 0.72525 0.01904 0.00951 0.0
C483 C 0.68253 0.94414 0.00358 0.0
C484 C 0.70104 0.97195 -0.01807 0.0
C485 C 0.74748 0.05368 0.91448 0.0
C486 C 0.73263 0.02542 0.93834 0.0
H487 H 0.67254 0.88157 -0.01437 0.0
H488 H 0.70443 0.92757 0.9538 0.0
H489 H 0.70379 0.98846 0.0858 0.0
H490 H 0.75031 0.11274 0.9444 0.0
H491 H 0.7279 0.06723 -0.01304 0.0
C492 C 0.78952 0.67433 0.20095 0.0
C493 C 0.77138 0.64749 0.21463 0.0
C494 C 0.78085 0.69281 0.19569 0.0
C495 C 0.72263 0.70189 0.2302 0.0
H496 H 0.74999 0.75018 0.07137 0.0
C497 C 0.68612 0.76092 0.03436 0.0
C498 C 0.67353 0.76905 0.08324 0.0
C499 C 0.70196 0.75055 0.05704 0.0
C500 C 0.74205 0.73678 0.11585 0.0
H501 H 0.73011 0.61935 0.23714 0.0
H502 H 0.71508 0.65118 0.2272 0.0
H503 H 0.76982 0.72328 0.10183 0.0
H504 H 0.66756 0.77222 0.19479 0.0
H505 H 0.6962 0.75555 0.23444 0.0
H506 H 0.69386 0.71411 0.24176 0.0
C507 C 0.73604 0.65822 0.22119 0.0
C508 C 0.75371 0.7216 0.13402 0.0
C509 C 0.74468 0.63984 0.22649 0.0
C510 C 0.67767 0.76712 0.15554 0.0
C511 C 0.6937 0.75696 0.17832 0.0
C512 C 0.71087 0.71692 0.21178 0.0
C513 C 0.75386 0.68485 0.20414 0.0
C514 C 0.74377 0.7035 0.19051 0.0
C515 C 0.70562 0.74799 0.12943 0.0
C516 C 0.72006 0.73419 0.15345 0.0
H517 H 0.81023 0.68091 0.19159 0.0
H518 H 0.7952 0.71322 0.18358 0.0
H519 H 0.7147 0.68852 0.27475 0.0
H520 H 0.68302 0.76187 -0.02163 0.0
H521 H 0.71037 0.74348 0.01765 0.0
C522 C 0.93233 0.69296 0.20046 0.0
C523 C 0.91986 0.66686 0.17533 0.0
C524 C 0.95888 0.70547 0.2223 0.0
C525 C 0.01957 0.70001 0.2035 0.0
H526 H 0.04411 0.74539 0.36813 0.0
C527 C 0.11774 0.72735 0.34013 0.0
C528 C 0.13478 0.75411 0.35723 0.0
C529 C 0.09189 0.71865 0.31747 0.0
C530 C 0.03756 0.73298 0.32162 0.0
H531 H 0.92471 0.63316 0.15395 0.0
H532 H 0.97064 0.65446 0.19348 0.0
H533 H 0.99802 0.72641 0.3297 0.0
H534 H 0.13775 0.79262 0.36532 0.0
H535 H 0.09215 0.77719 0.32645 0.0
H536 H 0.05883 0.70596 0.19653 0.0
C537 C 0.96044 0.6657 0.19504 0.0
C538 C 1.01119 0.72214 0.29946 0.0
C539 C 0.93411 0.65337 0.17287 0.0
C540 C 0.12513 0.77189 0.3524 0.0
C541 C 0.09904 0.76307 0.33044 0.0
C542 C 0.04574 0.7106 0.22598 0.0
C543 C 0.97334 0.69203 0.21932 0.0
C544 C 1.00175 0.70515 0.24074 0.0
C545 C 0.08228 0.7364 0.31194 0.0
C546 C 0.05494 0.72687 0.28584 0.0
H547 H 0.92167 0.70375 0.20183 0.0
H548 H 0.96821 0.72583 0.24002 0.0
H549 H 1.01328 0.68764 0.15692 0.0
H550 H 0.12446 0.71308 0.34327 0.0
H551 H 0.07932 0.69792 0.30446 0.0
C552 C 0.52853 0.28721 0.42739 0.0
C553 C 0.50272 0.28245 0.43951 0.0
C554 C 0.5482 0.31163 0.40143 0.0
C555 C 0.5582 0.37133 0.30588 0.0
H556 H 0.62943 0.40193 0.38097 0.0
C557 C 0.64154 0.47892 0.24777 0.0
C558 C 0.66739 0.4834 0.23899 0.0
C559 C 0.62085 0.45385 0.26679 0.0
C560 C 0.60974 0.39349 0.35866 0.0
H561 H 0.4774 0.29983 0.43388 0.0
H562 H 0.51191 0.34269 0.38939 0.0
H563 H 0.59458 0.35989 0.4273 0.0
H564 H 0.69189 0.46516 0.24427 0.0
H565 H 0.65573 0.42124 0.27519 0.0
H566 H 0.57346 0.40517 0.2376 0.0
C567 C 0.51681 0.32732 0.3992 0.0
C568 C 0.58972 0.36939 0.38535 0.0
C569 C 0.49708 0.30281 0.42518 0.0
C570 C 0.67206 0.46216 0.24832 0.0
C571 C 0.6514 0.43711 0.2674 0.0
C572 C 0.57826 0.39551 0.2792 0.0
C573 C 0.54261 0.332 0.38697 0.0
C574 C 0.56372 0.35795 0.3592 0.0
C575 C 0.62565 0.43277 0.2782 0.0
C576 C 0.60429 0.40683 0.30515 0.0
H577 H 0.53355 0.27197 0.43697 0.0
H578 H 0.56771 0.31437 0.39156 0.0
H579 H 0.53847 0.3629 0.28389 0.0
H580 H 0.63755 0.49508 0.24174 0.0
H581 H 0.60133 0.45129 0.27541 0.0
C582 C 0.24012 0.52294 0.7766 0.0
C583 C 0.22166 0.49603 0.7654 0.0
C584 C 0.23475 0.54266 0.75401 0.0
C585 C 0.19661 0.55245 0.61571 0.0
H586 H 0.21832 0.61928 0.70924 0.0
C587 C 0.17572 0.63156 0.49634 0.0
C588 C 0.19505 0.65833 0.5046 0.0
C589 C 0.1782 0.61165 0.53074 0.0
C590 C 0.21245 0.60085 0.68197 0.0
H591 H 0.18196 0.46874 0.72772 0.0
H592 H 0.17255 0.50309 0.68917 0.0
H593 H 0.22269 0.58473 0.7704 0.0
H594 H 0.23169 0.68521 0.55799 0.0
H595 H 0.2368 0.65056 0.61518 0.0
H596 H 0.18698 0.56862 0.52672 0.0
C597 C 0.19145 0.50896 0.71398 0.0
C598 C 0.21482 0.581 0.71728 0.0
C599 C 0.19676 0.48926 0.73684 0.0
C600 C 0.21698 0.66477 0.54817 0.0
C601 C 0.21957 0.64487 0.58234 0.0
C602 C 0.1944 0.57232 0.58028 0.0
C603 C 0.21078 0.53588 0.71971 0.0
C604 C 0.20695 0.55657 0.6845 0.0
C605 C 0.20009 0.61804 0.57462 0.0
C606 C 0.20236 0.59683 0.61278 0.0
H607 H 0.25928 0.52886 0.79935 0.0
H608 H 0.25005 0.56321 0.75951 0.0
H609 H 0.19089 0.53407 0.58833 0.0
H610 H 0.15841 0.62609 0.46403 0.0
H611 H 0.16257 0.5913 0.52434 0.0
C612 C 0.72171 0.19362 0.75061 0.0
C613 C 0.74166 0.21992 0.76309 0.0
C614 C 0.69743 0.18811 0.72128 0.0
C615 C 0.66603 0.21919 0.61814 0.0
H616 H 0.60053 0.16188 0.69371 0.0
C617 C 0.56381 0.20924 0.56594 0.0
C618 C 0.54184 0.18373 0.55757 0.0
C619 C 0.58864 0.21262 0.58317 0.0
C620 C 0.61864 0.17769 0.67117 0.0
H621 H 0.75168 0.26103 0.75408 0.0
H622 H 0.70935 0.25142 0.70448 0.0
H623 H 0.64278 0.16959 0.74043 0.0
H624 H 0.5286 0.14184 0.56007 0.0
H625 H 0.5721 0.14764 0.58952 0.0
H626 H 0.64186 0.22756 0.54969 0.0
C627 C 0.71253 0.23504 0.71644 0.0
C628 C 0.64288 0.18213 0.69805 0.0
C629 C 0.73675 0.24054 0.74572 0.0
C630 C 0.54531 0.1617 0.56566 0.0
C631 C 0.57013 0.16504 0.58299 0.0
C632 C 0.6418 0.21477 0.59132 0.0
C633 C 0.6926 0.20878 0.70359 0.0
C634 C 0.66686 0.20313 0.67243 0.0
C635 C 0.592 0.19054 0.59311 0.0
C636 C 0.61781 0.19414 0.61802 0.0
H637 H 0.72489 0.17727 0.76309 0.0
H638 H 0.68258 0.16767 0.71148 0.0
H639 H 0.68415 0.23524 0.5963 0.0
H640 H 0.56157 0.22654 0.56292 0.0
H641 H 0.60493 0.23251 0.59192 0.0
C642 C 0.4974 0.72509 0.09602 0.0
C643 C 0.52418 0.73191 0.0924 0.0
C644 C 0.47742 0.70047 0.07159 0.0
C645 C 0.46862 0.65071 0.94063 0.0
H646 H 0.39955 0.60791 0.02624 0.0
C647 C 0.39097 0.5495 0.82554 0.0
C648 C 0.36408 0.54212 0.8296 0.0
C649 C 0.41034 0.57251 0.85862 0.0
C650 C 0.4186 0.61982 0.00104 0.0
H651 H 0.55067 0.71717 0.06527 0.0
H652 H 0.51588 0.67432 0.02321 0.0
H653 H 0.43336 0.64712 0.08756 0.0
H654 H 0.33646 0.55284 0.87395 0.0
H655 H 0.37021 0.59364 0.92832 0.0
H656 H 0.45389 0.62398 0.85346 0.0
C657 C 0.51038 0.68823 0.0438 0.0
C658 C 0.43802 0.64221 0.03649 0.0
C659 C 0.5303 0.71274 0.06862 0.0
C660 C 0.35702 0.55842 0.86721 0.0
C661 C 0.3764 0.58155 0.89994 0.0
C662 C 0.44918 0.6285 0.90495 0.0
C663 C 0.48382 0.68218 0.04273 0.0
C664 C 0.46328 0.65786 0.00676 0.0
C665 C 0.40331 0.58875 0.89686 0.0
C666 C 0.4239 0.6127 0.93464 0.0
H667 H 0.49189 0.73921 0.11434 0.0
H668 H 0.45713 0.6964 0.0716 0.0
H669 H 0.48771 0.66266 0.91559 0.0
H670 H 0.39692 0.53708 0.79788 0.0
H671 H 0.43076 0.57709 0.85593 0.0
C672 C 0.78788 0.49837 0.14215 0.0
C673 C 0.80419 0.52472 0.12009 0.0
C674 C 0.79273 0.47841 0.11897 0.0
C675 C 0.81954 0.45984 0.97213 0.0
H676 H 0.82657 0.41258 0.10319 0.0
C677 C 0.84625 0.38229 0.87488 0.0
C678 C 0.83522 0.35788 0.91019 0.0
C679 C 0.84329 0.40299 0.90169 0.0
C680 C 0.82419 0.42523 0.06558 0.0
H681 H 0.83836 0.55085 0.05652 0.0
H682 H 0.84635 0.51575 0.01446 0.0
H683 H 0.81933 0.44765 0.14792 0.0
H684 H 0.81431 0.3367 0.00426 0.0
H685 H 0.80726 0.37187 0.04862 0.0
H686 H 0.82319 0.43703 0.88957 0.0
C687 C 0.83002 0.51068 0.05028 0.0
C688 C 0.82024 0.44546 0.09145 0.0
C689 C 0.82552 0.53074 0.07462 0.0
C690 C 0.82189 0.35486 0.97415 0.0
C691 C 0.81845 0.37535 0.00039 0.0
C692 C 0.82295 0.43931 0.94613 0.0
C693 C 0.81364 0.48434 0.07215 0.0
C694 C 0.81798 0.463 0.04496 0.0
C695 C 0.82908 0.39976 0.96453 0.0
C696 C 0.82542 0.42171 -0.00756 0.0
H697 H 0.77139 0.49316 0.17745 0.0
H698 H 0.77977 0.45822 0.13635 0.0
H699 H 0.81754 0.47294 0.93517 0.0
H700 H 0.8572 0.38531 0.82638 0.0
H701 H 0.85246 0.42164 0.8734 0.0
C702 C 0.48195 0.85479 0.17891 0.0
C703 C 0.48805 0.83433 0.18007 0.0
C704 C 0.45909 0.85164 0.21207 0.0
C705 C 0.4099 0.81149 0.35007 0.0
H706 H 0.3683 0.83919 0.26423 0.0
C707 C 0.30323 0.78192 0.43677 0.0
C708 C 0.29528 0.80104 0.43206 0.0
C709 C 0.32853 0.78783 0.41486 0.0
C710 C 0.37992 0.8317 0.28956 0.0
H711 H 0.47541 0.79489 0.21979 0.0
H712 H 0.43503 0.78883 0.27472 0.0
H713 H 0.4079 0.84506 0.20485 0.0
H714 H 0.30869 0.84212 0.40589 0.0
H715 H 0.35284 0.85244 0.36854 0.0
H716 H 0.3815 0.79767 0.43415 0.0
C717 C 0.44791 0.80742 0.24834 0.0
C718 C 0.40265 0.83503 0.25537 0.0
C719 C 0.4708 0.81063 0.21535 0.0
C720 C 0.314 0.82681 0.40998 0.0
C721 C 0.33926 0.83268 0.38781 0.0
C722 C 0.38708 0.80806 0.38414 0.0
C723 C 0.44185 0.82796 0.24773 0.0
C724 C 0.41787 0.82483 0.2849 0.0
C725 C 0.34651 0.813 0.38763 0.0
C726 C 0.37174 0.81802 0.35415 0.0
H727 H 0.49514 0.87341 0.1531 0.0
H728 H 0.45533 0.86805 0.2113 0.0
H729 H 0.42139 0.80381 0.37515 0.0
H730 H 0.28948 0.76196 0.45381 0.0
H731 H 0.33342 0.77218 0.41546 0.0
loop_
_geom_bond_atom_site_label_1
_geom_bond_atom_site_label_2
_geom_bond_distance
_geom_bond_site_symmetry_2
_ccdc_geom_bond_type
Zn0 O1 2.055 . S
Zn0 O8 2.046 . S
Zn0 N16 2.036 . S
Zn0 O28 2.053 . S
Zn0 O30 2.066 . S
O1 Zn0 2.055 . S
O1 C4 1.259 . S
C2 O30 1.256 . S
C2 O31 1.244 . S
Zn3 O5 2.046 . S
Zn3 O7 2.055 . S
Zn3 N9 2.036 . S
Zn3 O27 2.066 . S
Zn3 O31 2.053 . S
C4 O1 1.259 . S
C4 O5 1.254 . S
O5 Zn3 2.046 . S
O5 C4 1.254 . S
C6 O27 1.256 . S
C6 O28 1.244 . S
O7 Zn3 2.055 . S
O7 C29 1.259 . S
O8 Zn0 2.046 . S
O8 C29 1.254 . S
N9 Zn3 2.036 . S
N9 C10 1.298 . S
N9 N12 1.398 . S
C10 N9 1.298 . S
C10 N13 1.367 . S
C10 C23 1.481 . S
C11 N12 1.299 . S
C11 N13 1.379 . S
N12 N9 1.398 . S
N12 C11 1.299 . S
N13 C10 1.367 . S
N13 C11 1.379 . S
C14 N16 1.298 . S
C14 N18 1.367 . S
C14 C22 1.481 . S
C15 N17 1.299 . S
C15 N18 1.379 . S
N16 Zn0 2.036 . S
N16 C14 1.298 . S
N16 N17 1.398 . S
N17 C15 1.299 . S
N17 N16 1.398 . S
N18 C14 1.367 . S
N18 C15 1.379 . S
H19 C22 0.980 . S
H20 C22 0.981 . S
H21 C22 0.981 . S
C22 C14 1.481 . S
C22 H19 0.980 . S
C22 H20 0.981 . S
C22 H21 0.981 . S
C23 C10 1.481 . S
C23 H24 0.980 . S
C23 H25 0.981 . S
C23 H26 0.981 . S
H24 C23 0.980 . S
H25 C23 0.981 . S
H26 C23 0.981 . S
O27 Zn3 2.066 . S
O27 C6 1.256 . S
O28 Zn0 2.053 . S
O28 C6 1.244 . S
C29 O7 1.259 . S
C29 O8 1.254 . S
O30 Zn0 2.066 . S
O30 C2 1.256 . S
O31 C2 1.244 . S
O31 Zn3 2.053 . S
Zn32 O33 2.055 . S
Zn32 O40 2.046 . S
Zn32 N48 2.036 . S
Zn32 O60 2.053 . S
Zn32 O62 2.066 . S
O33 Zn32 2.055 . S
O33 C36 1.259 . S
C34 O62 1.256 . S
C34 O63 1.244 . S
Zn35 O37 2.046 . S
Zn35 O39 2.055 . S
Zn35 N41 2.036 . S
Zn35 O59 2.066 . S
Zn35 O63 2.053 . S
C36 O33 1.259 . S
C36 O37 1.254 . S
O37 Zn35 2.046 . S
O37 C36 1.254 . S
C38 O59 1.256 . S
C38 O60 1.244 . S
O39 Zn35 2.055 . S
O39 C61 1.259 . S
O40 Zn32 2.046 . S
O40 C61 1.254 . S
N41 Zn35 2.036 . S
N41 C42 1.298 . S
N41 N44 1.398 . S
C42 N41 1.298 . S
C42 N45 1.367 . S
C42 C55 1.481 . S
C43 N44 1.299 . S
C43 N45 1.379 . S
N44 N41 1.398 . S
N44 C43 1.299 . S
N45 C42 1.367 . S
N45 C43 1.379 . S
C46 N48 1.298 . S
C46 N50 1.367 . S
C46 C54 1.481 . S
C47 N49 1.299 . S
C47 N50 1.379 . S
N48 Zn32 2.036 . S
N48 C46 1.298 . S
N48 N49 1.398 . S
N49 C47 1.299 . S
N49 N48 1.398 . S
N50 C46 1.367 . S
N50 C47 1.379 . S
H51 C54 0.980 . S
H52 C54 0.981 . S
H53 C54 0.981 . S
C54 C46 1.481 . S
C54 H51 0.980 . S
C54 H52 0.981 . S
C54 H53 0.981 . S
C55 C42 1.481 . S
C55 H56 0.980 . S
C55 H57 0.981 . S
C55 H58 0.981 . S
H56 C55 0.980 . S
H57 C55 0.981 . S
H58 C55 0.981 . S
O59 Zn35 2.066 . S
O59 C38 1.256 . S
O60 Zn32 2.053 . S
O60 C38 1.244 . S
C61 O39 1.259 . S
C61 O40 1.254 . S
O62 Zn32 2.066 . S
O62 C34 1.256 . S
O63 C34 1.244 . S
O63 Zn35 2.053 . S
Zn64 O65 2.055 . S
Zn64 O72 2.046 . S
Zn64 N80 2.036 . S
Zn64 O92 2.053 . S
Zn64 O94 2.066 1_556 S
O65 Zn64 2.055 . S
O65 C68 1.259 . S
C66 O94 1.256 . S
C66 O95 1.244 . S
Zn67 O69 2.046 . S
Zn67 O71 2.055 . S
Zn67 N73 2.036 . S
Zn67 O91 2.066 . S
Zn67 O95 2.053 1_556 S
C68 O65 1.259 . S
C68 O69 1.254 . S
O69 Zn67 2.046 . S
O69 C68 1.254 . S
C70 O91 1.256 . S
C70 O92 1.244 . S
O71 Zn67 2.055 . S
O71 C93 1.259 . S
O72 Zn64 2.046 . S
O72 C93 1.254 . S
N73 Zn67 2.036 . S
N73 C74 1.298 . S
N73 N76 1.398 1_556 S
C74 N73 1.298 . S
C74 N77 1.367 . S
C74 C87 1.481 . S
C75 N76 1.299 . S
C75 N77 1.379 1_554 S
N76 N73 1.398 1_554 S
N76 C75 1.299 . S
N77 C74 1.367 . S
N77 C75 1.379 1_556 S
C78 N80 1.298 . S
C78 N82 1.367 . S
C78 C86 1.481 . S
C79 N81 1.299 . S
C79 N82 1.379 . S
N80 Zn64 2.036 . S
N80 C78 1.298 . S
N80 N81 1.398 . S
N81 C79 1.299 . S
N81 N80 1.398 . S
N82 C78 1.367 . S
N82 C79 1.379 . S
H83 C86 0.980 . S
H84 C86 0.981 . S
H85 C86 0.981 1_554 S
C86 C78 1.481 . S
C86 H83 0.980 . S
C86 H84 0.981 . S
C86 H85 0.981 1_556 S
C87 C74 1.481 . S
C87 H88 0.980 . S
C87 H89 0.981 . S
C87 H90 0.981 . S
H88 C87 0.980 . S
H89 C87 0.981 . S
H90 C87 0.981 . S
O91 Zn67 2.066 . S
O91 C70 1.256 . S
O92 Zn64 2.053 . S
O92 C70 1.244 . S
C93 O71 1.259 . S
C93 O72 1.254 . S
O94 Zn64 2.066 1_554 S
O94 C66 1.256 . S
O95 C66 1.244 . S
O95 Zn67 2.053 1_554 S
Zn96 O97 2.055 . S
Zn96 O104 2.046 1_554 S
Zn96 N112 2.036 . S
Zn96 O124 2.053 . S
Zn96 O126 2.066 . S
O97 Zn96 2.055 . S
O97 C100 1.259 . S
C98 O126 1.256 . S
C98 O127 1.244 . S
Zn99 O101 2.046 . S
Zn99 O103 2.055 1_554 S
Zn99 N105 2.036 . S
Zn99 O123 2.066 . S
Zn99 O127 2.053 . S
C100 O97 1.259 . S
C100 O101 1.254 . S
O101 Zn99 2.046 . S
O101 C100 1.254 . S
C102 O123 1.256 . S
C102 O124 1.244 . S
O103 Zn99 2.055 1_556 S
O103 C125 1.259 . S
O104 Zn96 2.046 1_556 S
O104 C125 1.254 . S
N105 Zn99 2.036 . S
N105 C106 1.298 . S
N105 N108 1.398 . S
C106 N105 1.298 . S
C106 N109 1.367 . S
C106 C119 1.481 1_554 S
C107 N108 1.299 . S
C107 N109 1.379 . S
N108 N105 1.398 . S
N108 C107 1.299 . S
N109 C106 1.367 . S
N109 C107 1.379 . S
C110 N112 1.298 . S
C110 N114 1.367 . S
C110 C118 1.481 . S
C111 N113 1.299 . S
C111 N114 1.379 . S
N112 Zn96 2.036 . S
N112 C110 1.298 . S
N112 N113 1.398 . S
N113 C111 1.299 . S
N113 N112 1.398 . S
N114 C110 1.367 . S
N114 C111 1.379 . S
H115 C118 0.980 . S
H116 C118 0.981 . S
H117 C118 0.981 . S
C118 C110 1.481 . S
C118 H115 0.980 . S
C118 H116 0.981 . S
C118 H117 0.981 . S
C119 C106 1.481 1_556 S
C119 H120 0.980 . S
C119 H121 0.981 . S
C119 H122 0.981 . S
H120 C119 0.980 . S
H121 C119 0.981 . S
H122 C119 0.981 . S
O123 Zn99 2.066 . S
O123 C102 1.256 . S
O124 Zn96 2.053 . S
O124 C102 1.244 . S
C125 O103 1.259 . S
C125 O104 1.254 . S
O126 Zn96 2.066 . S
O126 C98 1.256 . S
O127 C98 1.244 . S
O127 Zn99 2.053 . S
Zn128 O129 2.055 . S
Zn128 O136 2.046 . S
Zn128 N144 2.036 . S
Zn128 O156 2.053 . S
Zn128 O158 2.066 . S
O129 Zn128 2.055 . S
O129 C132 1.259 . S
C130 O158 1.256 . S
C130 O159 1.244 . S
Zn131 O133 2.046 . S
Zn131 O135 2.055 . S
Zn131 N137 2.036 . S
Zn131 O155 2.066 . S
Zn131 O159 2.053 . S
C132 O129 1.259 . S
C132 O133 1.254 . S
O133 Zn131 2.046 . S
O133 C132 1.254 . S
C134 O155 1.256 . S
C134 O156 1.244 . S
O135 Zn131 2.055 . S
O135 C157 1.259 . S
O136 Zn128 2.046 . S
O136 C157 1.254 . S
N137 Zn131 2.036 . S
N137 C138 1.298 . S
N137 N140 1.398 . S
C138 N137 1.298 . S
C138 N141 1.367 . S
C138 C151 1.481 . S
C139 N140 1.299 . S
C139 N141 1.379 . S
N140 N137 1.398 . S
N140 C139 1.299 . S
N141 C138 1.367 . S
N141 C139 1.379 . S
C142 N144 1.298 . S
C142 N146 1.367 . S
C142 C150 1.481 . S
C143 N145 1.299 . S
C143 N146 1.379 . S
N144 Zn128 2.036 . S
N144 C142 1.298 . S
N144 N145 1.398 . S
N145 C143 1.299 . S
N145 N144 1.398 . S
N146 C142 1.367 . S
N146 C143 1.379 . S
H147 C150 0.980 . S
H148 C150 0.981 . S
H149 C150 0.981 . S
C150 C142 1.481 . S
C150 H147 0.980 . S
C150 H148 0.981 . S
C150 H149 0.981 . S
C151 C138 1.481 . S
C151 H152 0.980 . S
C151 H153 0.981 . S
C151 H154 0.981 . S
H152 C151 0.980 . S
H153 C151 0.981 . S
H154 C151 0.981 . S
O155 Zn131 2.066 . S
O155 C134 1.256 . S
O156 Zn128 2.053 . S
O156 C134 1.244 . S
C157 O135 1.259 . S
C157 O136 1.254 . S
O158 Zn128 2.066 . S
O158 C130 1.256 . S
O159 C130 1.244 . S
O159 Zn131 2.053 . S
Zn160 O161 2.055 . S
Zn160 O168 2.046 . S
Zn160 N176 2.036 . S
Zn160 O188 2.053 . S
Zn160 O190 2.066 . S
O161 Zn160 2.055 . S
O161 C164 1.259 . S
C162 O190 1.256 . S
C162 O191 1.244 . S
Zn163 O165 2.046 . S
Zn163 O167 2.055 . S
Zn163 N169 2.036 . S
Zn163 O187 2.066 . S
Zn163 O191 2.053 . S
C164 O161 1.259 . S
C164 O165 1.254 . S
O165 Zn163 2.046 . S
O165 C164 1.254 . S
C166 O187 1.256 . S
C166 O188 1.244 . S
O167 Zn163 2.055 . S
O167 C189 1.259 . S
O168 Zn160 2.046 . S
O168 C189 1.254 . S
N169 Zn163 2.036 . S
N169 C170 1.298 . S
N169 N172 1.398 . S
C170 N169 1.298 . S
C170 N173 1.367 . S
C170 C183 1.481 . S
C171 N172 1.299 . S
C171 N173 1.379 . S
N172 N169 1.398 . S
N172 C171 1.299 . S
N173 C170 1.367 . S
N173 C171 1.379 . S
C174 N176 1.298 . S
C174 N178 1.367 . S
C174 C182 1.481 . S
C175 N177 1.299 . S
C175 N178 1.379 . S
N176 Zn160 2.036 . S
N176 C174 1.298 . S
N176 N177 1.398 . S
N177 C175 1.299 . S
N177 N176 1.398 . S
N178 C174 1.367 . S
N178 C175 1.379 . S
H179 C182 0.980 . S
H180 C182 0.981 . S
H181 C182 0.981 . S
C182 C174 1.481 . S
C182 H179 0.980 . S
C182 H180 0.981 . S
C182 H181 0.981 . S
C183 C170 1.481 . S
C183 H184 0.980 . S
C183 H185 0.981 . S
C183 H186 0.981 . S
H184 C183 0.980 . S
H185 C183 0.981 . S
H186 C183 0.981 . S
O187 Zn163 2.066 . S
O187 C166 1.256 . S
O188 Zn160 2.053 . S
O188 C166 1.244 . S
C189 O167 1.259 . S
C189 O168 1.254 . S
O190 Zn160 2.066 . S
O190 C162 1.256 . S
O191 C162 1.244 . S
O191 Zn163 2.053 . S
C192 C193 1.349 . S
C192 C194 1.327 . S
C192 H217 0.950 . S
C193 C192 1.349 . S
C193 C209 1.349 . S
C194 C192 1.327 . S
C194 C213 1.429 . S
C194 H218 0.950 . S
C195 C212 1.574 . S
C195 C214 1.368 . S
C195 H219 0.949 . S
H196 C200 0.949 . S
C197 C198 1.349 . S
C197 C199 1.327 . S
C197 H220 0.950 . S
C198 C197 1.349 . S
C198 C210 1.349 . S
C199 C197 1.327 . S
C199 C215 1.429 . S
C199 H221 0.950 . S
C200 H196 0.949 . S
C200 C208 1.574 . S
C200 C216 1.369 . S
H201 C209 0.950 . S
H202 C207 0.950 . S
H203 C208 0.949 . S
H204 C210 0.950 . S
H205 C211 0.950 . S
H206 C212 0.949 1_556 S
C207 H202 0.950 . S
C207 C209 1.327 . S
C207 C213 1.429 . S
C208 C200 1.574 . S
C208 H203 0.949 . S
C208 C214 1.368 . S
C209 C193 1.349 . S
C209 H201 0.950 . S
C209 C207 1.327 . S
C210 C198 1.349 . S
C210 H204 0.950 . S
C210 C211 1.327 . S
C211 H205 0.950 . S
C211 C210 1.327 . S
C211 C215 1.429 . S
C212 C195 1.574 . S
C212 H206 0.949 1_554 S
C212 C216 1.369 . S
C213 C194 1.429 . S
C213 C207 1.429 . S
C213 C214 1.523 . S
C214 C195 1.368 . S
C214 C208 1.368 . S
C214 C213 1.523 . S
C215 C199 1.429 . S
C215 C211 1.429 . S
C215 C216 1.521 1_556 S
C216 C200 1.369 . S
C216 C212 1.369 . S
C216 C215 1.521 1_554 S
H217 C192 0.950 . S
H218 C194 0.950 . S
H219 C195 0.949 . S
H220 C197 0.950 . S
H221 C199 0.950 . S
C222 C223 1.349 . S
C222 C224 1.327 . S
C222 H247 0.950 . S
C223 C222 1.349 . S
C223 C239 1.349 . S
C224 C222 1.327 . S
C224 C243 1.429 . S
C224 H248 0.950 . S
C225 C242 1.574 . S
C225 C244 1.368 . S
C225 H249 0.949 . S
H226 C230 0.949 . S
C227 C228 1.349 . S
C227 C229 1.327 1_556 S
C227 H250 0.950 . S
C228 C227 1.349 . S
C228 C240 1.349 . S
C229 C227 1.327 1_554 S
C229 C245 1.429 . S
C229 H251 0.950 . S
C230 H226 0.949 . S
C230 C238 1.574 . S
C230 C246 1.368 . S
H231 C239 0.950 . S
H232 C237 0.950 . S
H233 C238 0.949 . S
H234 C240 0.950 . S
H235 C241 0.950 . S
H236 C242 0.949 . S
C237 H232 0.950 . S
C237 C239 1.327 . S
C237 C243 1.429 . S
C238 C230 1.574 . S
C238 H233 0.949 . S
C238 C244 1.368 . S
C239 C223 1.349 . S
C239 H231 0.950 . S
C239 C237 1.327 . S
C240 C228 1.349 . S
C240 H234 0.950 . S
C240 C241 1.327 1_556 S
C241 H235 0.950 . S
C241 C240 1.327 1_554 S
C241 C245 1.429 . S
C242 C225 1.574 . S
C242 H236 0.949 . S
C242 C246 1.368 . S
C243 C224 1.429 . S
C243 C237 1.429 . S
C243 C244 1.523 . S
C244 C225 1.368 . S
C244 C238 1.368 . S
C244 C243 1.523 . S
C245 C229 1.429 . S
C245 C241 1.429 . S
C245 C246 1.523 . S
C246 C230 1.368 . S
C246 C242 1.368 . S
C246 C245 1.523 . S
H247 C222 0.950 . S
H248 C224 0.950 . S
H249 C225 0.949 . S
H250 C227 0.950 . S
H251 C229 0.950 . S
C252 C253 1.349 . S
C252 C254 1.327 . S
C252 H277 0.950 . S
C253 C252 1.349 . S
C253 C269 1.349 . S
C254 C252 1.327 . S
C254 C273 1.429 . S
C254 H278 0.950 . S
C255 C272 1.574 . S
C255 C274 1.368 . S
C255 H279 0.949 . S
H256 C260 0.949 . S
C257 C258 1.349 . S
C257 C259 1.327 . S
C257 H280 0.950 . S
C258 C257 1.349 . S
C258 C270 1.349 . S
C259 C257 1.327 . S
C259 C275 1.429 . S
C259 H281 0.950 . S
C260 H256 0.949 . S
C260 C268 1.574 . S
C260 C276 1.368 . S
H261 C269 0.950 . S
H262 C267 0.950 . S
H263 C268 0.949 . S
H264 C270 0.950 . S
H265 C271 0.950 . S
H266 C272 0.949 . S
C267 H262 0.950 . S
C267 C269 1.327 . S
C267 C273 1.429 . S
C268 C260 1.574 . S
C268 H263 0.949 . S
C268 C274 1.368 . S
C269 C253 1.349 . S
C269 H261 0.950 . S
C269 C267 1.327 . S
C270 C258 1.349 . S
C270 H264 0.950 . S
C270 C271 1.327 . S
C271 H265 0.950 . S
C271 C270 1.327 . S
C271 C275 1.429 . S
C272 C255 1.574 . S
C272 H266 0.949 . S
C272 C276 1.368 . S
C273 C254 1.429 . S
C273 C267 1.429 . S
C273 C274 1.523 . S
C274 C255 1.368 . S
C274 C268 1.368 . S
C274 C273 1.523 . S
C275 C259 1.429 . S
C275 C271 1.429 . S
C275 C276 1.523 . S
C276 C260 1.368 . S
C276 C272 1.368 . S
C276 C275 1.523 . S
H277 C252 0.950 . S
H278 C254 0.950 . S
H279 C255 0.949 . S
H280 C257 0.950 . S
H281 C259 0.950 . S
C282 C283 1.349 . S
C282 C284 1.327 . S
C282 H307 0.950 . S
C283 C282 1.349 . S
C283 C299 1.349 . S
C284 C282 1.327 . S
C284 C303 1.429 . S
C284 H308 0.950 . S
C285 C302 1.574 . S
C285 C304 1.368 . S
C285 H309 0.949 . S
H286 C290 0.949 . S
C287 C288 1.349 . S
C287 C289 1.327 . S
C287 H310 0.950 . S
C288 C287 1.349 . S
C288 C300 1.349 . S
C289 C287 1.327 . S
C289 C305 1.429 . S
C289 H311 0.950 . S
C290 H286 0.949 . S
C290 C298 1.574 . S
C290 C306 1.368 . S
H291 C299 0.950 . S
H292 C297 0.950 . S
H293 C298 0.949 . S
H294 C300 0.950 . S
H295 C301 0.950 . S
H296 C302 0.949 . S
C297 H292 0.950 . S
C297 C299 1.327 . S
C297 C303 1.429 . S
C298 C290 1.574 . S
C298 H293 0.949 . S
C298 C304 1.368 . S
C299 C283 1.349 . S
C299 H291 0.950 . S
C299 C297 1.327 . S
C300 C288 1.349 . S
C300 H294 0.950 . S
C300 C301 1.327 . S
C301 H295 0.950 . S
C301 C300 1.327 . S
C301 C305 1.429 . S
C302 C285 1.574 . S
C302 H296 0.949 . S
C302 C306 1.368 . S
C303 C284 1.429 . S
C303 C297 1.429 . S
C303 C304 1.523 . S
C304 C285 1.368 . S
C304 C298 1.368 . S
C304 C303 1.523 . S
C305 C289 1.429 . S
C305 C301 1.429 . S
C305 C306 1.523 . S
C306 C290 1.368 . S
C306 C302 1.368 . S
C306 C305 1.523 . S
H307 C282 0.950 . S
H308 C284 0.950 . S
H309 C285 0.949 . S
H310 C287 0.950 . S
H311 C289 0.950 . S
C312 C313 1.349 . S
C312 C314 1.327 . S
C312 H337 0.950 . S
C313 C312 1.349 . S
C313 C329 1.349 . S
C314 C312 1.327 . S
C314 C333 1.429 . S
C314 H338 0.950 . S
C315 C332 1.574 . S
C315 C334 1.368 . S
C315 H339 0.949 . S
H316 C320 0.949 . S
C317 C318 1.349 . S
C317 C319 1.327 1_554 S
C317 H340 0.950 . S
C318 C317 1.349 . S
C318 C330 1.349 . S
C319 C317 1.327 1_556 S
C319 C335 1.429 . S
C319 H341 0.950 . S
C320 H316 0.949 . S
C320 C328 1.574 . S
C320 C336 1.368 . S
H321 C329 0.950 . S
H322 C327 0.950 . S
H323 C328 0.949 . S
H324 C330 0.950 . S
H325 C331 0.950 . S
H326 C332 0.949 . S
C327 H322 0.950 . S
C327 C329 1.327 . S
C327 C333 1.429 . S
C328 C320 1.574 . S
C328 H323 0.949 . S
C328 C334 1.368 . S
C329 C313 1.349 . S
C329 H321 0.950 . S
C329 C327 1.327 . S
C330 C318 1.349 . S
C330 H324 0.950 . S
C330 C331 1.327 1_554 S
C331 H325 0.950 . S
C331 C330 1.327 1_556 S
C331 C335 1.429 . S
C332 C315 1.574 . S
C332 H326 0.949 . S
C332 C336 1.368 . S
C333 C314 1.429 . S
C333 C327 1.429 . S
C333 C334 1.523 . S
C334 C315 1.368 . S
C334 C328 1.368 . S
C334 C333 1.523 . S
C335 C319 1.429 . S
C335 C331 1.429 . S
C335 C336 1.523 . S
C336 C320 1.368 . S
C336 C332 1.368 . S
C336 C335 1.523 . S
H337 C312 0.950 . S
H338 C314 0.950 . S
H339 C315 0.949 . S
H340 C317 0.950 . S
H341 C319 0.950 . S
C342 C343 1.349 . S
C342 C344 1.327 . S
C342 H367 0.950 . S
C343 C342 1.349 . S
C343 C359 1.349 . S
C344 C342 1.327 . S
C344 C363 1.429 . S
C344 H368 0.950 . S
C345 C362 1.574 . S
C345 C364 1.368 . S
C345 H369 0.949 . S
H346 C350 0.949 . S
C347 C348 1.349 . S
C347 C349 1.327 . S
C347 H370 0.950 . S
C348 C347 1.349 . S
C348 C360 1.349 . S
C349 C347 1.327 . S
C349 C365 1.429 . S
C349 H371 0.950 . S
C350 H346 0.949 . S
C350 C358 1.574 . S
C350 C366 1.368 . S
H351 C359 0.950 . S
H352 C357 0.950 . S
H353 C358 0.949 . S
H354 C360 0.950 . S
H355 C361 0.950 . S
H356 C362 0.949 . S
C357 H352 0.950 . S
C357 C359 1.327 . S
C357 C363 1.429 . S
C358 C350 1.574 . S
C358 H353 0.949 . S
C358 C364 1.368 . S
C359 C343 1.349 . S
C359 H351 0.950 . S
C359 C357 1.327 . S
C360 C348 1.349 . S
C360 H354 0.950 . S
C360 C361 1.327 . S
C361 H355 0.950 . S
C361 C360 1.327 . S
C361 C365 1.429 . S
C362 C345 1.574 . S
C362 H356 0.949 . S
C362 C366 1.368 . S
C363 C344 1.429 . S
C363 C357 1.429 . S
C363 C364 1.523 1_554 S
C364 C345 1.368 . S
C364 C358 1.368 . S
C364 C363 1.523 1_556 S
C365 C349 1.429 . S
C365 C361 1.429 . S
C365 C366 1.523 . S
C366 C350 1.368 . S
C366 C362 1.368 . S
C366 C365 1.523 . S
H367 C342 0.950 . S
H368 C344 0.950 . S
H369 C345 0.949 . S
H370 C347 0.950 . S
H371 C349 0.950 . S
C372 C373 1.349 . S
C372 C374 1.327 . S
C372 H397 0.950 . S
C373 C372 1.349 . S
C373 C389 1.349 . S
C374 C372 1.327 . S
C374 C393 1.429 . S
C374 H398 0.950 . S
C375 C392 1.574 . S
C375 C394 1.368 . S
C375 H399 0.949 . S
H376 C380 0.949 . S
C377 C378 1.349 . S
C377 C379 1.327 . S
C377 H400 0.950 . S
C378 C377 1.349 . S
C378 C390 1.349 . S
C379 C377 1.327 . S
C379 C395 1.429 . S
C379 H401 0.950 . S
C380 H376 0.949 . S
C380 C388 1.574 . S
C380 C396 1.374 . S
H381 C389 0.950 . S
H382 C387 0.950 . S
H383 C388 0.949 . S
H384 C390 0.950 . S
H385 C391 0.950 . S
H386 C392 0.949 1_565 S
C387 H382 0.950 . S
C387 C389 1.327 . S
C387 C393 1.429 . S
C388 C380 1.574 . S
C388 H383 0.949 . S
C388 C394 1.368 . S
C389 C373 1.349 . S
C389 H381 0.950 . S
C389 C387 1.327 . S
C390 C378 1.349 . S
C390 H384 0.950 . S
C390 C391 1.327 . S
C391 H385 0.950 . S
C391 C390 1.327 . S
C391 C395 1.429 . S
C392 C375 1.574 . S
C392 H386 0.949 1_545 S
C392 C396 1.397 . S
C393 C374 1.429 . S
C393 C387 1.429 . S
C393 C394 1.523 . S
C394 C375 1.368 . S
C394 C388 1.368 . S
C394 C393 1.523 . S
C395 C379 1.429 . S
C395 C391 1.429 . S
C395 C396 1.481 1_565 S
C396 C380 1.374 . S
C396 C392 1.397 . S
C396 C395 1.481 1_545 S
H397 C372 0.950 . S
H398 C374 0.950 . S
H399 C375 0.949 . S
H400 C377 0.950 . S
H401 C379 0.950 . S
C402 C403 1.349 . S
C402 C404 1.327 . S
C402 H427 0.950 . S
C403 C402 1.349 . S
C403 C419 1.349 . S
C404 C402 1.327 . S
C404 C423 1.429 . S
C404 H428 0.950 . S
C405 C422 1.574 . S
C405 C424 1.368 . S
C405 H429 0.949 . S
H406 C410 0.949 . S
C407 C408 1.349 . S
C407 C409 1.327 . S
C407 H430 0.950 . S
C408 C407 1.349 . S
C408 C420 1.349 . S
C409 C407 1.327 . S
C409 C425 1.429 . S
C409 H431 0.950 . S
C410 H406 0.949 . S
C410 C418 1.574 . S
C410 C426 1.368 . S
H411 C419 0.950 . S
H412 C417 0.950 . S
H413 C418 0.949 . S
H414 C420 0.950 . S
H415 C421 0.950 . S
H416 C422 0.949 . S
C417 H412 0.950 . S
C417 C419 1.327 . S
C417 C423 1.429 . S
C418 C410 1.574 . S
C418 H413 0.949 . S
C418 C424 1.368 . S
C419 C403 1.349 . S
C419 H411 0.950 . S
C419 C417 1.327 . S
C420 C408 1.349 . S
C420 H414 0.950 . S
C420 C421 1.327 . S
C421 H415 0.950 . S
C421 C420 1.327 . S
C421 C425 1.429 . S
C422 C405 1.574 . S
C422 H416 0.949 . S
C422 C426 1.368 . S
C423 C404 1.429 . S
C423 C417 1.429 . S
C423 C424 1.523 . S
C424 C405 1.368 . S
C424 C418 1.368 . S
C424 C423 1.523 . S
C425 C409 1.429 . S
C425 C421 1.429 . S
C425 C426 1.523 . S
C426 C410 1.368 . S
C426 C422 1.368 . S
C426 C425 1.523 . S
H427 C402 0.950 . S
H428 C404 0.950 . S
H429 C405 0.949 . S
H430 C407 0.950 . S
H431 C409 0.950 . S
C432 C433 1.349 . S
C432 C434 1.327 . S
C432 H457 0.950 1_556 S
C433 C432 1.349 . S
C433 C449 1.349 . S
C434 C432 1.327 . S
C434 C453 1.429 . S
C434 H458 0.950 . S
C435 C452 1.574 . S
C435 C454 1.368 . S
C435 H459 0.949 . S
H436 C440 0.949 1_455 S
C437 C438 1.349 . S
C437 C439 1.327 . S
C437 H460 0.950 . S
C438 C437 1.349 . S
C438 C450 1.349 . S
C439 C437 1.327 . S
C439 C455 1.429 . S
C439 H461 0.950 . S
C440 H436 0.949 1_655 S
C440 C448 1.574 . S
C440 C456 1.372 . S
H441 C449 0.950 . S
H442 C447 0.950 . S
H443 C448 0.949 . S
H444 C450 0.950 . S
H445 C451 0.950 . S
H446 C452 0.949 . S
C447 H442 0.950 . S
C447 C449 1.327 . S
C447 C453 1.429 . S
C448 C440 1.574 . S
C448 H443 0.949 . S
C448 C454 1.368 . S
C449 C433 1.349 . S
C449 H441 0.950 . S
C449 C447 1.327 . S
C450 C438 1.349 . S
C450 H444 0.950 . S
C450 C451 1.327 . S
C451 H445 0.950 . S
C451 C450 1.327 . S
C451 C455 1.429 . S
C452 C435 1.574 . S
C452 H446 0.949 . S
C452 C456 1.402 . S
C453 C434 1.429 . S
C453 C447 1.429 . S
C453 C454 1.523 . S
C454 C435 1.368 . S
C454 C448 1.368 . S
C454 C453 1.523 . S
C455 C439 1.429 . S
C455 C451 1.429 . S
C455 C456 1.477 1_455 S
C456 C440 1.372 . S
C456 C452 1.402 . S
C456 C455 1.477 1_655 S
H457 C432 0.950 1_554 S
H458 C434 0.950 . S
H459 C435 0.949 . S
H460 C437 0.950 . S
H461 C439 0.950 . S
C462 C463 1.349 . S
C462 C464 1.327 . S
C462 H487 0.950 1_554 S
C463 C462 1.349 . S
C463 C479 1.349 . S
C464 C462 1.327 . S
C464 C483 1.429 . S
C464 H488 0.950 1_554 S
C465 C482 1.574 . S
C465 C484 1.368 . S
C465 H489 0.949 . S
H466 C470 0.949 . S
C467 C468 1.349 1_554 S
C467 C469 1.327 . S
C467 H490 0.950 . S
C468 C467 1.349 1_556 S
C468 C480 1.349 . S
C469 C467 1.327 . S
C469 C485 1.429 1_554 S
C469 H491 0.950 . S
C470 H466 0.949 . S
C470 C478 1.574 . S
C470 C486 1.379 1_556 S
H471 C479 0.950 . S
H472 C477 0.950 . S
H473 C478 0.949 . S
H474 C480 0.950 . S
H475 C481 0.950 . S
H476 C482 0.949 1_545 S
C477 H472 0.950 . S
C477 C479 1.327 . S
C477 C483 1.429 . S
C478 C470 1.574 . S
C478 H473 0.949 . S
C478 C484 1.368 1_556 S
C479 C463 1.349 . S
C479 H471 0.950 . S
C479 C477 1.327 . S
C480 C468 1.349 . S
C480 H474 0.950 . S
C480 C481 1.327 . S
C481 H475 0.950 . S
C481 C480 1.327 . S
C481 C485 1.429 . S
C482 C465 1.574 . S
C482 H476 0.949 1_565 S
C482 C486 1.392 . S
C483 C464 1.429 . S
C483 C477 1.429 . S
C483 C484 1.523 . S
C484 C465 1.368 . S
C484 C478 1.368 1_554 S
C484 C483 1.523 . S
C485 C469 1.429 1_556 S
C485 C481 1.429 . S
C485 C486 1.481 1_546 S
C486 C470 1.379 1_554 S
C486 C482 1.392 . S
C486 C485 1.481 1_564 S
H487 C462 0.950 1_556 S
H488 C464 0.950 1_556 S
H489 C465 0.949 . S
H490 C467 0.950 . S
H491 C469 0.950 . S
C492 C493 1.349 . S
C492 C494 1.327 . S
C492 H517 0.950 . S
C493 C492 1.349 . S
C493 C509 1.349 . S
C494 C492 1.327 . S
C494 C513 1.429 . S
C494 H518 0.950 . S
C495 C512 1.574 . S
C495 C514 1.368 . S
C495 H519 0.949 . S
H496 C500 0.949 . S
C497 C498 1.349 . S
C497 C499 1.327 . S
C497 H520 0.950 . S
C498 C497 1.349 . S
C498 C510 1.349 . S
C499 C497 1.327 . S
C499 C515 1.429 . S
C499 H521 0.950 . S
C500 H496 0.949 . S
C500 C508 1.574 . S
C500 C516 1.368 . S
H501 C509 0.950 . S
H502 C507 0.950 . S
H503 C508 0.949 . S
H504 C510 0.950 . S
H505 C511 0.950 . S
H506 C512 0.949 . S
C507 H502 0.950 . S
C507 C509 1.327 . S
C507 C513 1.429 . S
C508 C500 1.574 . S
C508 H503 0.949 . S
C508 C514 1.368 . S
C509 C493 1.349 . S
C509 H501 0.950 . S
C509 C507 1.327 . S
C510 C498 1.349 . S
C510 H504 0.950 . S
C510 C511 1.327 . S
C511 H505 0.950 . S
C511 C510 1.327 . S
C511 C515 1.429 . S
C512 C495 1.574 . S
C512 H506 0.949 . S
C512 C516 1.368 . S
C513 C494 1.429 . S
C513 C507 1.429 . S
C513 C514 1.523 . S
C514 C495 1.368 . S
C514 C508 1.368 . S
C514 C513 1.523 . S
C515 C499 1.429 . S
C515 C511 1.429 . S
C515 C516 1.523 . S
C516 C500 1.368 . S
C516 C512 1.368 . S
C516 C515 1.523 . S
H517 C492 0.950 . S
H518 C494 0.950 . S
H519 C495 0.949 . S
H520 C497 0.950 . S
H521 C499 0.950 . S
C522 C523 1.349 . S
C522 C524 1.327 . S
C522 H547 0.950 . S
C523 C522 1.349 . S
C523 C539 1.349 . S
C524 C522 1.327 . S
C524 C543 1.429 . S
C524 H548 0.950 . S
C525 C542 1.574 . S
C525 C544 1.410 . S
C525 H549 0.949 . S
H526 C530 0.949 . S
C527 C528 1.349 . S
C527 C529 1.327 . S
C527 H550 0.950 . S
C528 C527 1.349 . S
C528 C540 1.349 . S
C529 C527 1.327 . S
C529 C545 1.429 . S
C529 H551 0.950 . S
C530 H526 0.949 . S
C530 C538 1.574 . S
C530 C546 1.368 . S
H531 C539 0.950 . S
H532 C537 0.950 . S
H533 C538 0.977 . S
H534 C540 0.950 . S
H535 C541 0.950 . S
H536 C542 0.949 . S
C537 H532 0.950 . S
C537 C539 1.327 . S
C537 C543 1.429 . S
C538 C530 1.574 . S
C538 H533 0.977 . S
C538 C544 1.363 . S
C539 C523 1.349 . S
C539 H531 0.950 . S
C539 C537 1.327 . S
C540 C528 1.349 . S
C540 H534 0.950 . S
C540 C541 1.327 . S
C541 H535 0.950 . S
C541 C540 1.327 . S
C541 C545 1.429 . S
C542 C525 1.574 . S
C542 H536 0.949 . S
C542 C546 1.368 . S
C543 C524 1.429 . S
C543 C537 1.429 . S
C543 C544 1.477 1_655 S
C544 C525 1.410 . S
C544 C538 1.363 . S
C544 C543 1.477 1_455 S
C545 C529 1.429 . S
C545 C541 1.429 . S
C545 C546 1.523 . S
C546 C530 1.368 . S
C546 C542 1.368 . S
C546 C545 1.523 . S
H547 C522 0.950 . S
H548 C524 0.950 . S
H549 C525 0.949 . S
H550 C527 0.950 . S
H551 C529 0.950 . S
C552 C553 1.349 . S
C552 C554 1.327 . S
C552 H577 0.950 . S
C553 C552 1.349 . S
C553 C569 1.349 . S
C554 C552 1.327 . S
C554 C573 1.429 . S
C554 H578 0.950 . S
C555 C572 1.574 . S
C555 C574 1.368 . S
C555 H579 0.949 . S
H556 C560 0.949 . S
C557 C558 1.349 . S
C557 C559 1.327 . S
C557 H580 0.950 . S
C558 C557 1.349 . S
C558 C570 1.349 . S
C559 C557 1.327 . S
C559 C575 1.429 . S
C559 H581 0.950 . S
C560 H556 0.949 . S
C560 C568 1.574 . S
C560 C576 1.368 . S
H561 C569 0.950 . S
H562 C567 0.950 . S
H563 C568 0.949 . S
H564 C570 0.950 . S
H565 C571 0.950 . S
H566 C572 0.949 . S
C567 H562 0.950 . S
C567 C569 1.327 . S
C567 C573 1.429 . S
C568 C560 1.574 . S
C568 H563 0.949 . S
C568 C574 1.368 . S
C569 C553 1.349 . S
C569 H561 0.950 . S
C569 C567 1.327 . S
C570 C558 1.349 . S
C570 H564 0.950 . S
C570 C571 1.327 . S
C571 H565 0.950 . S
C571 C570 1.327 . S
C571 C575 1.429 . S
C572 C555 1.574 . S
C572 H566 0.949 . S
C572 C576 1.368 . S
C573 C554 1.429 . S
C573 C567 1.429 . S
C573 C574 1.523 . S
C574 C555 1.368 . S
C574 C568 1.368 . S
C574 C573 1.523 . S
C575 C559 1.429 . S
C575 C571 1.429 . S
C575 C576 1.523 . S
C576 C560 1.368 . S
C576 C572 1.368 . S
C576 C575 1.523 . S
H577 C552 0.950 . S
H578 C554 0.950 . S
H579 C555 0.949 . S
H580 C557 0.950 . S
H581 C559 0.950 . S
C582 C583 1.349 . S
C582 C584 1.327 . S
C582 H607 0.950 . S
C583 C582 1.349 . S
C583 C599 1.349 . S
C584 C582 1.327 . S
C584 C603 1.429 . S
C584 H608 0.950 . S
C585 C602 1.574 . S
C585 C604 1.368 . S
C585 H609 0.949 . S
H586 C590 0.949 . S
C587 C588 1.349 . S
C587 C589 1.327 . S
C587 H610 0.950 . S
C588 C587 1.349 . S
C588 C600 1.349 . S
C589 C587 1.327 . S
C589 C605 1.429 . S
C589 H611 0.950 . S
C590 H586 0.949 . S
C590 C598 1.574 . S
C590 C606 1.368 . S
H591 C599 0.950 . S
H592 C597 0.950 . S
H593 C598 0.949 . S
H594 C600 0.950 . S
H595 C601 0.950 . S
H596 C602 0.949 . S
C597 H592 0.950 . S
C597 C599 1.327 . S
C597 C603 1.429 . S
C598 C590 1.574 . S
C598 H593 0.949 . S
C598 C604 1.368 . S
C599 C583 1.349 . S
C599 H591 0.950 . S
C599 C597 1.327 . S
C600 C588 1.349 . S
C600 H594 0.950 . S
C600 C601 1.327 . S
C601 H595 0.950 . S
C601 C600 1.327 . S
C601 C605 1.429 . S
C602 C585 1.574 . S
C602 H596 0.949 . S
C602 C606 1.368 . S
C603 C584 1.429 . S
C603 C597 1.429 . S
C603 C604 1.523 . S
C604 C585 1.368 . S
C604 C598 1.368 . S
C604 C603 1.523 . S
C605 C589 1.429 . S
C605 C601 1.429 . S
C605 C606 1.523 . S
C606 C590 1.368 . S
C606 C602 1.368 . S
C606 C605 1.523 . S
H607 C582 0.950 . S
H608 C584 0.950 . S
H609 C585 0.949 . S
H610 C587 0.950 . S
H611 C589 0.950 . S
C612 C613 1.349 . S
C612 C614 1.327 . S
C612 H637 0.950 . S
C613 C612 1.349 . S
C613 C629 1.349 . S
C614 C612 1.327 . S
C614 C633 1.429 . S
C614 H638 0.950 . S
C615 C632 1.574 . S
C615 C634 1.368 . S
C615 H639 0.949 . S
H616 C620 0.949 . S
C617 C618 1.349 . S
C617 C619 1.327 . S
C617 H640 0.950 . S
C618 C617 1.349 . S
C618 C630 1.349 . S
C619 C617 1.327 . S
C619 C635 1.429 . S
C619 H641 0.950 . S
C620 H616 0.949 . S
C620 C628 1.574 . S
C620 C636 1.368 . S
H621 C629 0.950 . S
H622 C627 0.950 . S
H623 C628 0.949 . S
H624 C630 0.950 . S
H625 C631 0.950 . S
H626 C632 0.949 . S
C627 H622 0.950 . S
C627 C629 1.327 . S
C627 C633 1.429 . S
C628 C620 1.574 . S
C628 H623 0.949 . S
C628 C634 1.368 . S
C629 C613 1.349 . S
C629 H621 0.950 . S
C629 C627 1.327 . S
C630 C618 1.349 . S
C630 H624 0.950 . S
C630 C631 1.327 . S
C631 H625 0.950 . S
C631 C630 1.327 . S
C631 C635 1.429 . S
C632 C615 1.574 . S
C632 H626 0.949 . S
C632 C636 1.368 . S
C633 C614 1.429 . S
C633 C627 1.429 . S
C633 C634 1.523 . S
C634 C615 1.368 . S
C634 C628 1.368 . S
C634 C633 1.523 . S
C635 C619 1.429 . S
C635 C631 1.429 . S
C635 C636 1.523 . S
C636 C620 1.368 . S
C636 C632 1.368 . S
C636 C635 1.523 . S
H637 C612 0.950 . S
H638 C614 0.950 . S
H639 C615 0.949 . S
H640 C617 0.950 . S
H641 C619 0.950 . S
C642 C643 1.349 . S
C642 C644 1.327 . S
C642 H667 0.950 . S
C643 C642 1.349 . S
C643 C659 1.349 1_554 S
C644 C642 1.327 . S
C644 C663 1.429 1_554 S
C644 H668 0.950 . S
C645 C662 1.574 . S
C645 C664 1.368 . S
C645 H669 0.949 . S
H646 C650 0.949 . S
C647 C648 1.349 . S
C647 C649 1.327 . S
C647 H670 0.950 . S
C648 C647 1.349 . S
C648 C660 1.349 . S
C649 C647 1.327 . S
C649 C665 1.429 . S
C649 H671 0.950 . S
C650 H646 0.949 . S
C650 C658 1.574 . S
C650 C666 1.368 . S
H651 C659 0.950 . S
H652 C657 0.950 . S
H653 C658 0.949 . S
H654 C660 0.950 . S
H655 C661 0.950 . S
H656 C662 0.949 . S
C657 H652 0.950 . S
C657 C659 1.327 . S
C657 C663 1.429 . S
C658 C650 1.574 . S
C658 H653 0.949 . S
C658 C664 1.368 . S
C659 C643 1.349 1_556 S
C659 H651 0.950 . S
C659 C657 1.327 . S
C660 C648 1.349 . S
C660 H654 0.950 . S
C660 C661 1.327 . S
C661 H655 0.950 . S
C661 C660 1.327 . S
C661 C665 1.429 . S
C662 C645 1.574 . S
C662 H656 0.949 . S
C662 C666 1.368 . S
C663 C644 1.429 1_556 S
C663 C657 1.429 . S
C663 C664 1.523 . S
C664 C645 1.368 . S
C664 C658 1.368 . S
C664 C663 1.523 . S
C665 C649 1.429 . S
C665 C661 1.429 . S
C665 C666 1.523 . S
C666 C650 1.368 . S
C666 C662 1.368 . S
C666 C665 1.523 . S
H667 C642 0.950 . S
H668 C644 0.950 . S
H669 C645 0.949 . S
H670 C647 0.950 . S
H671 C649 0.950 . S
C672 C673 1.349 . S
C672 C674 1.327 . S
C672 H697 0.950 . S
C673 C672 1.349 . S
C673 C689 1.349 . S
C674 C672 1.327 . S
C674 C693 1.429 . S
C674 H698 0.950 . S
C675 C692 1.574 . S
C675 C694 1.368 . S
C675 H699 0.949 . S
H676 C680 0.949 . S
C677 C678 1.349 . S
C677 C679 1.327 . S
C677 H700 0.950 . S
C678 C677 1.349 . S
C678 C690 1.349 . S
C679 C677 1.327 . S
C679 C695 1.429 1_556 S
C679 H701 0.950 . S
C680 H676 0.949 . S
C680 C688 1.574 . S
C680 C696 1.368 . S
H681 C689 0.950 . S
H682 C687 0.950 . S
H683 C688 0.949 . S
H684 C690 0.950 . S
H685 C691 0.950 . S
H686 C692 0.949 . S
C687 H682 0.950 . S
C687 C689 1.327 . S
C687 C693 1.429 . S
C688 C680 1.574 . S
C688 H683 0.949 . S
C688 C694 1.368 . S
C689 C673 1.349 . S
C689 H681 0.950 . S
C689 C687 1.327 . S
C690 C678 1.349 . S
C690 H684 0.950 . S
C690 C691 1.327 1_556 S
C691 H685 0.950 . S
C691 C690 1.327 1_554 S
C691 C695 1.429 . S
C692 C675 1.574 . S
C692 H686 0.949 . S
C692 C696 1.368 . S
C693 C674 1.429 . S
C693 C687 1.429 . S
C693 C694 1.523 . S
C694 C675 1.368 . S
C694 C688 1.368 . S
C694 C693 1.523 . S
C695 C679 1.429 1_554 S
C695 C691 1.429 . S
C695 C696 1.523 . S
C696 C680 1.368 . S
C696 C692 1.368 . S
C696 C695 1.523 . S
H697 C672 0.950 . S
H698 C674 0.950 . S
H699 C675 0.949 . S
H700 C677 0.950 . S
H701 C679 0.950 . S
C702 C703 1.349 . S
C702 C704 1.327 . S
C702 H727 0.950 . S
C703 C702 1.349 . S
C703 C719 1.349 . S
C704 C702 1.327 . S
C704 C723 1.429 . S
C704 H728 0.950 . S
C705 C722 1.574 . S
C705 C724 1.368 . S
C705 H729 0.949 . S
H706 C710 0.949 . S
C707 C708 1.349 . S
C707 C709 1.327 . S
C707 H730 0.950 . S
C708 C707 1.349 . S
C708 C720 1.349 . S
C709 C707 1.327 . S
C709 C725 1.429 . S
C709 H731 0.950 . S
C710 H706 0.949 . S
C710 C718 1.574 . S
C710 C726 1.368 . S
H711 C719 0.950 . S
H712 C717 0.950 . S
H713 C718 0.949 . S
H714 C720 0.950 . S
H715 C721 0.950 . S
H716 C722 0.949 . S
C717 H712 0.950 . S
C717 C719 1.327 . S
C717 C723 1.429 . S
C718 C710 1.574 . S
C718 H713 0.949 . S
C718 C724 1.368 . S
C719 C703 1.349 . S
C719 H711 0.950 . S
C719 C717 1.327 . S
C720 C708 1.349 . S
C720 H714 0.950 . S
C720 C721 1.327 . S
C721 H715 0.950 . S
C721 C720 1.327 . S
C721 C725 1.429 . S
C722 C705 1.574 . S
C722 H716 0.949 . S
C722 C726 1.368 . S
C723 C704 1.429 . S
C723 C717 1.429 . S
C723 C724 1.523 . S
C724 C705 1.368 . S
C724 C718 1.368 . S
C724 C723 1.523 . S
C725 C709 1.429 . S
C725 C721 1.429 . S
C725 C726 1.523 . S
C726 C710 1.368 . S
C726 C722 1.368 . S
C726 C725 1.523 . S
H727 C702 0.950 . S
H728 C704 0.950 . S
H729 C705 0.949 . S
H730 C707 0.950 . S
H731 C709 0.950 . S
C193 C29 0.864 . S
C198 C2 0.866 . S
C223 C61 0.864 . S
C228 C34 0.866 . S
C253 C66 0.866 . S
C258 C93 0.864 . S
C283 C98 0.866 . S
C288 C125 0.864 . S
C313 C134 0.866 . S
C318 C132 0.864 . S
C343 C189 0.864 . S
C348 C162 0.866 . S
C373 C4 1.462 . S
C378 N178 1.447 . S
C403 N18 1.447 . S
C408 C36 1.462 . S
C433 C68 1.462 . S
C438 N50 1.447 . S
C463 C100 1.462 . S
C468 N82 1.447 . S
C493 C157 1.462 . S
C498 N114 1.447 . S
C523 N141 1.447 . S
C528 C164 1.462 . S
C553 C6 1.923 . S
C558 N146 1.832 . S
C583 C38 1.923 . S
C588 N173 1.832 . S
C613 C70 1.923 . S
C618 N13 1.832 . S
C643 C102 1.923 . S
C648 N45 1.832 . S
C673 C130 1.923 . S
C678 N77 1.832 . S
C703 N109 1.832 . S
C708 C166 1.923 . S
