# Generated by pormake.
# Topology lhb, (8)-cn, num edge types: 1
# Building blocks:
#     Node 0, Type 0, BuildingBlock: GIZVER_clean_sbu_0, # of connection points: 8
#     Node 1, Type 0, BuildingBlock: GIZVER_clean_sbu_0, # of connection points: 8
#     Node 2, Type 0, BuildingBlock: GIZVER_clean_sbu_0, # of connection points: 8
#     Node 3, Type 0, BuildingBlock: GIZVER_clean_sbu_0, # of connection points: 8
#     Node 4, Type 0, BuildingBlock: GIZVER_clean_sbu_0, # of connection points: 8
#     Node 5, Type 0, BuildingBlock: GIZVER_clean_sbu_0, # of connection points: 8
#     Node 6, Type 0, BuildingBlock: GIZVER_clean_sbu_0, # of connection points: 8
#     Node 7, Type 0, BuildingBlock: GIZVER_clean_sbu_0, # of connection points: 8
#     Edge 8, Type (0, 0), BuildingBlock: ZUJKAS_clean_linker_0, # of connection points: 2
#     Edge 9, Type (0, 0), BuildingBlock: ZUJKAS_clean_linker_0, # of connection points: 2
#     Edge 10, Type (0, 0), BuildingBlock: ZUJKAS_clean_linker_0, # of connection points: 2
#     Edge 11, Type (0, 0), BuildingBlock: ZUJKAS_clean_linker_0, # of connection points: 2
#     Edge 12, Type (0, 0), BuildingBlock: ZUJKAS_clean_linker_0, # of connection points: 2
#     Edge 13, Type (0, 0), BuildingBlock: ZUJKAS_clean_linker_0, # of connection points: 2
#     Edge 14, Type (0, 0), BuildingBlock: ZUJKAS_clean_linker_0, # of connection points: 2
#     Edge 15, Type (0, 0), BuildingBlock: ZUJKAS_clean_linker_0, # of connection points: 2
#     Edge 16, Type (0, 0), BuildingBlock: ZUJKAS_clean_linker_0, # of connection points: 2
#     Edge 17, Type (0, 0), BuildingBlock: ZUJKAS_clean_linker_0, # of connection points: 2
#     Edge 18, Type (0, 0), BuildingBlock: ZUJKAS_clean_linker_0, # of connection points: 2
#     Edge 19, Type (0, 0), BuildingBlock: ZUJKAS_clean_linker_0, # of connection points: 2
#     Edge 20, Type (0, 0), BuildingBlock: ZUJKAS_clean_linker_0, # of connection points: 2
#     Edge 21, Type (0, 0), BuildingBlock: ZUJKAS_clean_linker_0, # of connection points: 2
#     Edge 22, Type (0, 0), BuildingBlock: ZUJKAS_clean_linker_0, # of connection points: 2
#     Edge 23, Type (0, 0), BuildingBlock: ZUJKAS_clean_linker_0, # of connection points: 2
#     Edge 24, Type (0, 0), BuildingBlock: ZUJKAS_clean_linker_0, # of connection points: 2
#     Edge 25, Type (0, 0), BuildingBlock: ZUJKAS_clean_linker_0, # of connection points: 2
#     Edge 26, Type (0, 0), BuildingBlock: ZUJKAS_clean_linker_0, # of connection points: 2
#     Edge 27, Type (0, 0), BuildingBlock: ZUJKAS_clean_linker_0, # of connection points: 2
#     Edge 28, Type (0, 0), BuildingBlock: ZUJKAS_clean_linker_0, # of connection points: 2
#     Edge 29, Type (0, 0), BuildingBlock: ZUJKAS_clean_linker_0, # of connection points: 2
#     Edge 30, Type (0, 0), BuildingBlock: ZUJKAS_clean_linker_0, # of connection points: 2
#     Edge 31, Type (0, 0), BuildingBlock: ZUJKAS_clean_linker_0, # of connection points: 2
#     Edge 32, Type (0, 0), BuildingBlock: ZUJKAS_clean_linker_0, # of connection points: 2
#     Edge 33, Type (0, 0), BuildingBlock: ZUJKAS_clean_linker_0, # of connection points: 2
#     Edge 34, Type (0, 0), BuildingBlock: ZUJKAS_clean_linker_0, # of connection points: 2
#     Edge 35, Type (0, 0), BuildingBlock: ZUJKAS_clean_linker_0, # of connection points: 2
#     Edge 36, Type (0, 0), BuildingBlock: ZUJKAS_clean_linker_0, # of connection points: 2
#     Edge 37, Type (0, 0), BuildingBlock: ZUJKAS_clean_linker_0, # of connection points: 2
#     Edge 38, Type (0, 0), BuildingBlock: ZUJKAS_clean_linker_0, # of connection points: 2
#     Edge 39, Type (0, 0), BuildingBlock: ZUJKAS_clean_linker_0, # of connection points: 2
# Relax obj value: 0.107
# Max RMSD: 0.184
# Mean RMSD: 0.184
data_MOF--net-lhb--node1-GIZVER_clean_sbu_0--edge1-ZUJKAS_clean_linker_0
_symmetry_space_group_name_H-M    P1
_symmetry_Int_Tables_number       1
_symmetry_cell_setting            triclinic
loop_
_symmetry_equiv_pos_as_xyz
'x, y, z'
_cell_length_a     31.39159
_cell_length_b     19.222175
_cell_length_c     91.318816
_cell_angle_alpha  97.783616
_cell_angle_beta   90.08406
_cell_angle_gamma 90.054148
loop_
_atom_site_label
_atom_site_type_symbol
_atom_site_fract_x
_atom_site_fract_y
_atom_site_fract_z
_atom_type_partial_charge
Co0 Co 0.01075 0.02198 0.99918 0.0
Co1 Co 0.93319 0.04886 1.00605 0.0
Co2 Co 0.98583 1.0158 0.03565 0.0
O3 O 0.97277 0.99296 1.01384 0.0
H4 H 0.96445 0.94436 1.01139 0.0
O5 O -0.00233 0.03934 0.0575 0.0
Co6 Co 0.96623 0.9936 0.07196 0.0
Co7 Co 0.04304 0.9865 0.06262 0.0
H8 H 0.00245 0.08886 0.06056 0.0
O9 O 0.9015 0.02089 0.98891 0.0
O10 O 0.96485 0.07646 0.99046 0.0
O11 O 0.91931 0.13276 1.01882 0.0
O12 O 0.96252 0.11523 0.03745 0.0
O13 O 0.93047 0.97563 0.04049 0.0
O14 O 0.93738 0.95545 0.08531 0.0
O15 O 0.96589 0.06376 0.08813 0.0
O16 O 0.95815 0.9149 0.05726 0.0
O17 O 0.00936 0.91655 0.03343 0.0
O18 O 0.05972 0.90379 0.04994 0.0
O19 O 0.02184 0.95989 0.0799 0.0
O20 O 0.07861 0.02903 0.07615 0.0
C21 C 0.03224 0.97742 0.97869 0.0
C22 C 0.04544 0.105 1.02409 0.0
C23 C 0.93789 0.15455 1.03093 0.0
C24 C 0.93058 0.05608 0.98295 0.0
C25 C 0.94357 1.01505 0.09346 0.0
C26 C 0.93115 0.92067 0.04696 0.0
C27 C 0.0375 0.87929 0.03885 0.0
C28 C 0.0542 0.99973 0.08507 0.0
O29 O 0.046 0.03866 0.9847 0.0
O30 O 0.00257 0.946 0.98539 0.0
O31 O 0.04245 0.05353 1.03138 0.0
O32 O 0.02563 0.10486 1.01194 0.0
Co33 Co 0.28769 0.25776 0.32289 0.0
Co34 Co 0.21106 0.25332 0.31214 0.0
Co35 Co 0.26942 0.2805 0.2861 0.0
O36 O 0.25812 0.30564 0.30814 0.0
H37 H 0.25449 0.35533 0.31127 0.0
O38 O 0.28175 0.25741 0.26433 0.0
Co39 Co 0.24268 0.28341 0.24953 0.0
Co40 Co 0.31952 0.31632 0.2566 0.0
H41 H 0.29133 0.20946 0.26194 0.0
O42 O 0.17557 0.29296 0.32593 0.0
O43 O 0.23097 0.21996 0.32892 0.0
O44 O 0.19223 0.17528 0.29828 0.0
O45 O 0.25013 0.17945 0.28459 0.0
O46 O 0.21145 0.30967 0.28164 0.0
O47 O 0.20711 0.29705 0.23491 0.0
O48 O 0.25349 0.20851 0.23578 0.0
O49 O 0.22427 0.36497 0.26242 0.0
O50 O 0.28838 0.38184 0.28738 0.0
O51 O 0.33288 0.40071 0.26929 0.0
O52 O 0.28734 0.34137 0.24085 0.0
O53 O 0.35187 0.28938 0.23985 0.0
C54 C 0.30601 0.27277 0.34502 0.0
C55 C 0.33125 0.20307 0.29967 0.0
C56 C 0.21803 0.14626 0.28871 0.0
C57 C 0.1989 0.25943 0.33445 0.0
C58 C 0.22304 0.23737 0.22892 0.0
C59 C 0.20608 0.36207 0.27479 0.0
C60 C 0.3128 0.4221 0.28109 0.0
C61 C 0.32227 0.32234 0.23359 0.0
O62 O 0.31394 0.21614 0.33614 0.0
O63 O 0.28446 0.3232 0.33999 0.0
O64 O 0.32643 0.24913 0.29097 0.0
O65 O 0.29985 0.18604 0.30741 0.0
Co66 Co 0.78288 0.74192 0.32133 0.0
Co67 Co 0.70644 0.7373 0.31127 0.0
Co68 Co 0.76248 0.76534 0.28465 0.0
O69 O 0.75248 0.78994 0.30682 0.0
H70 H 0.74906 0.83958 0.31004 0.0
O71 O 0.77339 0.7424 0.26274 0.0
Co72 Co 0.73306 0.76895 0.24833 0.0
Co73 Co 0.80992 0.80156 0.25463 0.0
H74 H 0.7829 0.69449 0.26022 0.0
O75 O 0.67107 0.77654 0.32495 0.0
O76 O 0.7265 0.7031 0.32799 0.0
O77 O 0.68618 0.6603 0.29743 0.0
O78 O 0.74272 0.66466 0.28313 0.0
O79 O 0.70447 0.79623 0.28061 0.0
O80 O 0.69597 0.78331 0.23422 0.0
O81 O 0.74143 0.6931 0.23451 0.0
O82 O 0.71696 0.85132 0.26133 0.0
O83 O 0.78231 0.86633 0.28601 0.0
O84 O 0.82361 0.88629 0.26714 0.0
O85 O 0.77733 0.82499 0.23885 0.0
O86 O 0.84207 0.77329 0.23801 0.0
C87 C 0.80332 0.75782 0.34327 0.0
C88 C 0.82481 0.68647 0.29774 0.0
C89 C 0.71113 0.63139 0.28758 0.0
C90 C 0.69283 0.73952 0.33325 0.0
C91 C 0.71042 0.72283 0.22808 0.0
C92 C 0.69942 0.84899 0.27383 0.0
C93 C 0.80563 0.90691 0.27938 0.0
C94 C 0.81237 0.80556 0.23164 0.0
O95 O 0.81057 0.70077 0.33442 0.0
O96 O 0.78084 0.80762 0.33838 0.0
O97 O 0.81953 0.73255 0.28907 0.0
O98 O 0.7939 0.66994 0.30575 0.0
Co99 Co 0.00703 0.52154 0.49886 0.0
Co100 Co 0.93003 0.55021 0.50676 0.0
Co101 Co 0.98517 0.52036 0.53591 0.0
O102 O 0.97068 0.49449 0.51414 0.0
H103 H 0.96346 0.44541 0.51185 0.0
O104 O -0.00165 0.54504 0.55767 0.0
Co105 Co 0.96882 0.4989 0.57278 0.0
Co106 Co 0.04561 0.49176 0.56167 0.0
H107 H 0.00327 0.59462 0.5606 0.0
O108 O 0.89786 0.52345 0.48959 0.0
O109 O 0.961 0.57932 0.49112 0.0
O110 O 0.9161 0.63349 0.51984 0.0
O111 O 0.96565 0.62129 0.53694 0.0
O112 O 0.92877 0.48793 0.54157 0.0
O113 O 0.94334 0.45991 0.58682 0.0
O114 O 0.97412 0.56648 0.58934 0.0
O115 O 0.95484 0.42292 0.55788 0.0
O116 O 0.00505 0.41977 0.53432 0.0
O117 O 0.06194 0.41036 0.54828 0.0
O118 O 0.02538 0.4599 0.57854 0.0
O119 O 0.08182 0.53091 0.57563 0.0
C120 C 0.02544 0.47733 0.47798 0.0
C121 C 0.05239 0.58811 0.52122 0.0
C122 C 0.93824 0.65829 0.531 0.0
C123 C 0.92668 0.55913 0.48363 0.0
C124 C 0.95411 0.5169 0.59521 0.0
C125 C 0.928 0.43204 0.54771 0.0
C126 C 0.03563 0.3838 0.53858 0.0
C127 C 0.05783 0.4983 0.5841 0.0
O128 O 0.04076 0.53752 0.48396 0.0
O129 O -0.00418 0.44705 0.48495 0.0
O130 O 0.04314 0.54952 0.531 0.0
O131 O 0.02484 0.60046 0.51174 0.0
Co132 Co 0.28856 0.77376 0.82286 0.0
Co133 Co 0.21216 0.75822 0.81207 0.0
Co134 Co 0.2699 0.78352 0.7855 0.0
O135 O 0.25698 0.81361 0.8073 0.0
H136 H 0.25069 0.86303 0.8097 0.0
O137 O 0.28402 0.7539 0.76385 0.0
Co138 Co 0.24656 0.77594 0.74827 0.0
Co139 Co 0.32233 0.81214 0.75613 0.0
H140 H 0.29401 0.70591 0.76208 0.0
O141 O 0.17596 0.79611 0.82596 0.0
O142 O 0.23417 0.72941 0.82909 0.0
O143 O 0.19509 0.67742 0.79861 0.0
O144 O 0.25374 0.68206 0.78528 0.0
O145 O 0.21075 0.80566 0.78049 0.0
O146 O 0.21215 0.78754 0.73331 0.0
O147 O 0.2594 0.70075 0.73464 0.0
O148 O 0.22638 0.85502 0.76072 0.0
O149 O 0.28562 0.88506 0.78541 0.0
O150 O 0.33574 0.89734 0.76866 0.0
O151 O 0.29113 0.83548 0.74001 0.0
O152 O 0.35595 0.78468 0.73974 0.0
C153 C 0.30586 0.79797 0.84499 0.0
C154 C 0.33456 0.71693 0.80031 0.0
C155 C 0.22172 0.64853 0.78932 0.0
C156 C 0.20062 0.76511 0.83454 0.0
C157 C 0.22886 0.72824 0.72753 0.0
C158 C 0.19999 0.84264 0.77058 0.0
C159 C 0.31274 0.92237 0.77952 0.0
C160 C 0.32685 0.81727 0.73316 0.0
O161 O 0.31698 0.74037 0.83694 0.0
O162 O 0.28166 0.84277 0.83914 0.0
O163 O 0.32804 0.75952 0.79098 0.0
O164 O 0.30397 0.69957 0.80832 0.0
Co165 Co 0.78313 0.24438 0.82206 0.0
Co166 Co 0.70657 0.24235 0.8126 0.0
Co167 Co 0.7629 0.27316 0.78599 0.0
O168 O 0.7529 0.29414 0.80801 0.0
H169 H 0.74998 0.34359 0.8115 0.0
O170 O 0.77365 0.25279 0.76403 0.0
Co171 Co 0.73422 0.28169 0.74975 0.0
Co172 Co 0.81169 0.30977 0.75608 0.0
H173 H 0.78127 0.20421 0.76121 0.0
O174 O 0.67146 0.28301 0.82623 0.0
O175 O 0.72658 0.2093 0.82943 0.0
O176 O 0.68697 0.16371 0.7992 0.0
O177 O 0.73968 0.17379 0.78355 0.0
O178 O 0.70615 0.3106 0.78232 0.0
O179 O 0.69754 0.2979 0.73566 0.0
O180 O 0.74216 0.20642 0.73582 0.0
O181 O 0.71924 0.36407 0.76284 0.0
O182 O 0.78605 0.37302 0.78804 0.0
O183 O 0.82652 0.39269 0.76888 0.0
O184 O 0.77941 0.33679 0.74053 0.0
O185 O 0.8429 0.28126 0.73916 0.0
C186 C 0.80497 0.26048 0.84376 0.0
C187 C 0.81862 0.17705 0.79648 0.0
C188 C 0.71011 0.13786 0.78851 0.0
C189 C 0.69341 0.24701 0.83468 0.0
C190 C 0.71157 0.23727 0.72944 0.0
C191 C 0.7023 0.36339 0.77547 0.0
C192 C 0.80957 0.41324 0.78132 0.0
C193 C 0.81372 0.31583 0.73307 0.0
O194 O 0.81084 0.20257 0.83501 0.0
O195 O 0.78338 0.31123 0.83887 0.0
O196 O 0.81851 0.23259 0.79019 0.0
O197 O 0.79182 0.1687 0.80668 0.0
Co198 Co 0.50883 0.02139 0.49864 0.0
Co199 Co 0.4312 0.04682 0.50634 0.0
Co200 Co 0.48525 1.01686 0.53537 0.0
O201 O 0.47225 0.99157 0.51353 0.0
H202 H 0.46563 0.94234 0.51103 0.0
O203 O 0.49729 0.04152 0.5572 0.0
Co204 Co 0.46416 0.99971 0.57193 0.0
Co205 Co 0.54042 0.98429 0.56231 0.0
H206 H 0.50386 0.0906 0.56006 0.0
O207 O 0.40049 0.02168 0.48886 0.0
O208 O 0.46271 0.0804 0.49133 0.0
O209 O 0.41452 0.12697 0.51992 0.0
O210 O 0.46669 0.11803 0.53624 0.0
O211 O 0.42789 0.98639 0.54047 0.0
O212 O 0.43399 0.96593 0.58549 0.0
O213 O 0.46823 0.06951 0.58814 0.0
O214 O 0.45118 0.9222 0.5573 0.0
O215 O 0.50387 0.91562 0.53387 0.0
O216 O 0.5569 0.90246 0.54926 0.0
O217 O 0.51817 0.95711 0.57941 0.0
O218 O 0.57718 0.02176 0.57579 0.0
C219 C 0.52778 0.98039 0.47764 0.0
C220 C 0.55382 0.08409 0.52147 0.0
C221 C 0.4376 0.15333 0.53071 0.0
C222 C 0.42897 0.06029 0.48351 0.0
C223 C 0.44361 0.0242 0.59365 0.0
C224 C 0.42584 0.93093 0.54669 0.0
C225 C 0.53259 0.87796 0.53876 0.0
C226 C 0.5531 0.99051 0.58449 0.0
O227 O 0.54289 0.03992 0.48406 0.0
O228 O 0.49777 0.949 0.4842 0.0
O229 O 0.5439 0.04432 0.53095 0.0
O230 O 0.52661 0.09847 0.51205 0.0
Co231 Co 0.50514 0.53293 0.9989 0.0
Co232 Co 0.42826 0.56702 1.00563 0.0
Co233 Co 0.47545 0.53672 0.03551 0.0
O234 O 0.46532 0.50822 1.01359 0.0
H235 H 0.45561 0.46019 1.01141 0.0
O236 O 0.48486 0.56582 0.05758 0.0
Co237 Co 0.45098 0.52507 0.07252 0.0
Co238 Co 0.52851 0.50861 0.06253 0.0
H239 H 0.49156 0.61501 0.0602 0.0
O240 O 0.39773 0.54054 0.98854 0.0
O241 O 0.46174 0.59495 0.9905 0.0
O242 O 0.4111 0.64881 1.01866 0.0
O243 O 0.46266 0.63881 0.03504 0.0
O244 O 0.41569 0.51698 0.0397 0.0
O245 O 0.42075 0.49056 0.08603 0.0
O246 O 0.4585 0.59079 0.0893 0.0
O247 O 0.43459 0.4543 0.05729 0.0
O248 O 0.48853 0.43455 0.03566 0.0
O249 O 0.5476 0.43039 0.04876 0.0
O250 O 0.50425 0.47726 0.07888 0.0
O251 O 0.56341 0.54407 0.07695 0.0
C252 C 0.52525 0.48839 0.97828 0.0
C253 C 0.54989 0.59164 1.02237 0.0
C254 C 0.43442 0.67492 1.02937 0.0
C255 C 0.42722 0.57608 0.98285 0.0
C256 C 0.43324 0.54582 0.09464 0.0
C257 C 0.40584 0.47618 0.04907 0.0
C258 C 0.52089 0.4013 0.03949 0.0
C259 C 0.53757 0.51203 0.08495 0.0
O260 O 0.54171 0.54673 0.98476 0.0
O261 O 0.4931 0.46044 0.9845 0.0
O262 O 0.53596 0.5547 1.03184 0.0
O263 O 0.52537 0.6092 1.01239 0.0
H264 H 0.03305 0.92279 0.10782 0.0
H265 H 0.05855 0.94474 0.13367 0.0
H266 H 0.12474 0.12979 0.124 0.0
H267 H 0.10017 0.10844 0.09865 0.0
H268 H 0.17634 0.04009 0.13772 0.0
H269 H 0.02386 0.0986 0.16795 0.0
H270 H 0.02735 1.01783 0.15548 0.0
H271 H 0.02837 0.10025 0.14829 0.0
C272 C 0.05275 0.96832 0.1113 0.0
C273 C 0.06502 1.01319 0.10109 0.0
C274 C 0.06724 0.98095 0.12606 0.0
C275 C 0.09387 0.03883 0.13077 0.0
C276 C 0.10472 0.08444 0.12065 0.0
H277 H 0.16613 0.29072 0.2107 0.0
H278 H 0.13562 0.2331 0.18759 0.0
C279 C 0.09054 0.07193 0.10608 0.0
C280 C 0.11224 0.05258 0.14597 0.0
H281 H 0.08709 0.1137 0.18181 0.0
C282 C 0.15684 0.05511 0.14743 0.0
C283 C 0.08682 0.07287 0.15859 0.0
C284 C 0.03892 0.07284 0.15762 0.0
C285 C 0.17665 0.08018 0.16094 0.0
C286 C 0.15121 0.10205 0.17351 0.0
C287 C 0.10662 0.09688 0.1722 0.0
C288 C 0.17003 0.13574 0.18775 0.0
C289 C 0.22457 0.08674 0.1614 0.0
C290 C 0.1997 0.10038 0.19563 0.0
C291 C 0.21765 0.13364 0.20885 0.0
C292 C 0.20592 0.20267 0.21455 0.0
C293 C 0.17602 0.23763 0.20666 0.0
C294 C 0.15833 0.20457 0.19345 0.0
H295 H 0.23857 0.08276 0.15015 0.0
H296 H 0.2345 0.13756 0.16775 0.0
H297 H 0.2381 0.0438 0.16694 0.0
H298 H 0.20872 0.04684 0.19163 0.0
H299 H 0.24021 0.10487 0.2147 0.0
H300 H 0.86528 0.9755 0.10082 0.0
H301 H 0.84039 0.95356 0.12503 0.0
H302 H 0.95638 0.04205 0.14477 0.0
H303 H 0.98143 0.06555 0.12031 0.0
H304 H 0.87982 0.86252 0.14027 0.0
H305 H 0.86913 0.12085 0.17547 0.0
H306 H 0.87249 0.11265 0.15557 0.0
H307 H 0.91951 0.10354 0.1664 0.0
C308 C 0.88501 0.99261 0.11038 0.0
C309 C 0.92531 0.0225 0.10862 0.0
C310 C 0.87082 0.97947 0.12425 0.0
C311 C 0.89654 0.99553 0.13683 0.0
C312 C 0.93576 0.02969 0.1353 0.0
H313 H 0.88157 0.77293 0.2138 0.0
H314 H 0.90103 0.81996 0.19121 0.0
C315 C 0.95001 0.04344 0.12131 0.0
C316 C 0.8838 0.96933 0.15095 0.0
H317 H 0.86105 0.01939 0.18756 0.0
C318 C 0.87566 0.89709 0.15058 0.0
C319 C 0.87803 1.01402 0.16447 0.0
C320 C 0.88486 0.09219 0.16556 0.0
C321 C 0.86221 0.86846 0.1632 0.0
C322 C 0.85718 0.91281 0.17678 0.0
C323 C 0.86495 0.98519 0.17719 0.0
C324 C 0.84476 0.88436 0.19067 0.0
C325 C 0.85282 0.79082 0.16181 0.0
C326 C 0.8066 0.90496 0.19808 0.0
C327 C 0.79517 0.87777 0.21109 0.0
C328 C 0.8219 0.82991 0.21709 0.0
C329 C 0.85995 0.80927 0.20955 0.0
C330 C 0.87121 0.83618 0.19656 0.0
H331 H 0.84734 0.76783 0.15013 0.0
H332 H 0.88044 0.76347 0.16603 0.0
H333 H 0.82439 0.78042 0.16841 0.0
H334 H 0.78558 0.94201 0.19378 0.0
H335 H 0.76579 0.89531 0.2166 0.0
H336 H 0.08106 0.5334 0.45979 0.0
H337 H 0.11271 0.47711 0.43682 0.0
H338 H 0.04294 0.28723 0.44076 0.0
H339 H 0.01025 0.34397 0.4637 0.0
H340 H 0.16356 0.36102 0.43124 0.0
H341 H 0.01293 0.31993 0.39912 0.0
H342 H 0.01572 0.37518 0.4167 0.0
H343 H 0.01428 0.28128 0.41594 0.0
C344 C 0.07206 0.47982 0.45574 0.0
C345 C 0.04274 0.44349 0.46358 0.0
C346 C 0.09046 0.44749 0.44261 0.0
C347 C 0.0801 0.37798 0.43693 0.0
C348 C 0.05095 0.34129 0.44474 0.0
H349 H 0.22118 0.17884 0.35656 0.0
H350 H 0.19522 0.19501 0.38235 0.0
C351 C 0.03228 0.37382 0.45788 0.0
C352 C 0.09973 0.34512 0.42276 0.0
H353 H 0.07613 0.28236 0.38684 0.0
C354 C 0.14443 0.34288 0.42158 0.0
C355 C 0.07485 0.32163 0.4101 0.0
C356 C 0.02681 0.32499 0.41041 0.0
C357 C 0.16477 0.32047 0.408 0.0
C358 C 0.13986 0.29896 0.39529 0.0
C359 C 0.09525 0.29825 0.39662 0.0
C360 C 0.1585 0.28846 0.38012 0.0
C361 C 0.21262 0.32417 0.40711 0.0
C362 C 0.14702 0.33558 0.3704 0.0
C363 C 0.16139 0.32626 0.35586 0.0
C364 C 0.18777 0.26925 0.35047 0.0
C365 C 0.20076 0.22301 0.36032 0.0
C366 C 0.18601 0.23236 0.37506 0.0
H367 H 0.22742 0.34552 0.41784 0.0
H368 H 0.22554 0.27086 0.40361 0.0
H369 H 0.22195 0.35772 0.39865 0.0
H370 H 0.12633 0.37964 0.37403 0.0
H371 H 0.15119 0.36394 0.34877 0.0
H372 H 0.77782 0.84152 0.36933 0.0
H373 H 0.80038 0.82804 0.39475 0.0
H374 H 0.88584 0.66184 0.3773 0.0
H375 H 0.86522 0.67655 0.35246 0.0
H376 H 0.79273 0.71967 0.41005 0.0
H377 H 0.96439 0.76864 0.40574 0.0
H378 H 0.92726 0.78965 0.3919 0.0
H379 H 0.94898 0.70224 0.39102 0.0
C380 C 0.80232 0.80369 0.37096 0.0
C381 C 0.81967 0.76042 0.35875 0.0
C382 C 0.81496 0.79546 0.38551 0.0
C383 C 0.84563 0.74464 0.38807 0.0
C384 C 0.86326 0.70286 0.37581 0.0
H385 H 0.86942 0.50775 0.4621 0.0
H386 H 0.84976 0.55768 0.4398 0.0
C387 C 0.85093 0.71108 0.36148 0.0
C388 C 0.85782 0.73067 0.40333 0.0
H389 H 0.94414 0.69235 0.42375 0.0
C390 C 0.82587 0.71497 0.41315 0.0
C391 C 0.90101 0.72571 0.40771 0.0
C392 C 0.93725 0.7483 0.39858 0.0
C393 C 0.83584 0.69102 0.42671 0.0
C394 C 0.87907 0.67961 0.43041 0.0
C395 C 0.91095 0.69908 0.42094 0.0
C396 C 0.89207 0.64739 0.44389 0.0
C397 C 0.79968 0.6791 0.43695 0.0
C398 C 0.9245 0.67793 0.45336 0.0
C399 C 0.9369 0.64785 0.4659 0.0
C400 C 0.91689 0.58674 0.46945 0.0
C401 C 0.88522 0.55522 0.45982 0.0
C402 C 0.87346 0.5845 0.44712 0.0
H403 H 0.77212 0.71349 0.43532 0.0
H404 H 0.78862 0.62392 0.43447 0.0
H405 H 0.80961 0.68927 0.44872 0.0
H406 H 0.93988 0.72595 0.45119 0.0
H407 H 0.96129 0.67382 0.47307 0.0
H408 H 0.05355 0.40394 0.60452 0.0
H409 H 0.07965 0.42361 0.63032 0.0
H410 H 0.1124 0.6367 0.6251 0.0
H411 H 0.08628 0.61783 0.59977 0.0
H412 H 0.18086 0.55034 0.63532 0.0
H413 H 0.03144 0.55397 0.6683 0.0
H414 H 0.03934 0.48532 0.65302 0.0
H415 H 0.03118 0.57373 0.6495 0.0
C416 C 0.06537 0.4553 0.60906 0.0
C417 C 0.06779 0.50934 0.60015 0.0
C418 C 0.08046 0.46643 0.62374 0.0
C419 C 0.09815 0.53168 0.62962 0.0
C420 C 0.09913 0.58593 0.62082 0.0
H421 H 0.16639 0.77493 0.7105 0.0
H422 H 0.13613 0.71649 0.68748 0.0
C423 C 0.08416 0.57495 0.60631 0.0
C424 C 0.11819 0.54406 0.64454 0.0
H425 H 0.09505 0.58502 0.68126 0.0
C426 C 0.16228 0.5566 0.64542 0.0
C427 C 0.09379 0.55286 0.65765 0.0
C428 C 0.04626 0.5411 0.65722 0.0
C429 C 0.18241 0.58037 0.65895 0.0
C430 C 0.15786 0.5913 0.67205 0.0
C431 C 0.11393 0.57634 0.67124 0.0
C432 C 0.17639 0.62475 0.68637 0.0
C433 C 0.22936 0.5974 0.65899 0.0
C434 C 0.20935 0.59281 0.69351 0.0
C435 C 0.22708 0.62649 0.70676 0.0
C436 C 0.21207 0.6927 0.71314 0.0
C437 C 0.17899 0.72417 0.70594 0.0
C438 C 0.16136 0.69058 0.69277 0.0
H439 H 0.24193 0.59826 0.64765 0.0
H440 H 0.23569 0.6492 0.66562 0.0
H441 H 0.2472 0.55702 0.66409 0.0
H442 H 0.22121 0.54165 0.68889 0.0
H443 H 0.25221 0.60042 0.71206 0.0
H444 H 0.77425 0.42093 0.72025 0.0
H445 H 0.79529 0.46832 0.69761 0.0
H446 H 0.89618 0.31577 0.69062 0.0
H447 H 0.87579 0.26866 0.71317 0.0
H448 H 0.88472 0.52083 0.69066 0.0
H449 H 0.82445 0.2984 0.65084 0.0
H450 H 0.80447 0.31732 0.6695 0.0
H451 H 0.85496 0.27445 0.66608 0.0
C452 C 0.80063 0.39694 0.71382 0.0
C453 C 0.82321 0.34071 0.71858 0.0
C454 C 0.81282 0.42451 0.70092 0.0
C455 C 0.84739 0.39574 0.69239 0.0
C456 C 0.86935 0.33881 0.69696 0.0
H457 H 0.97723 0.41703 0.61137 0.0
H458 H 0.95247 0.39889 0.63576 0.0
C459 C 0.85755 0.31182 0.70989 0.0
C460 C 0.86093 0.42448 0.67868 0.0
H461 H 0.87032 0.37917 0.64134 0.0
C462 C 0.88121 0.49033 0.67983 0.0
C463 C 0.85629 0.3849 0.66455 0.0
C464 C 0.83358 0.31505 0.66255 0.0
C465 C 0.8987 0.51593 0.66732 0.0
C466 C 0.8952 0.47517 0.65322 0.0
C467 C 0.87346 0.41053 0.65209 0.0
C468 C 0.91601 0.49503 0.63957 0.0
C469 C 0.92222 0.58499 0.6694 0.0
C470 C 0.90572 0.55714 0.63366 0.0
C471 C 0.92126 0.56879 0.61967 0.0
C472 C 0.94687 0.51807 0.61134 0.0
C473 C 0.95849 0.45797 0.61763 0.0
C474 C 0.94376 0.447 0.63155 0.0
H475 H 0.93132 0.60108 0.68113 0.0
H476 H 0.95141 0.58221 0.66251 0.0
H477 H 0.9013 0.6263 0.66593 0.0
H478 H 0.88385 0.59472 0.63946 0.0
H479 H 0.91081 0.61467 0.61497 0.0
H480 H 0.22495 0.6844 0.85631 0.0
H481 H 0.20059 0.69929 0.88232 0.0
H482 H 0.12753 0.88051 0.87456 0.0
H483 H 0.15118 0.86652 0.84911 0.0
H484 H 0.20546 0.82437 0.90553 0.0
H485 H 0.03945 0.7479 0.89061 0.0
H486 H 0.08374 0.72558 0.87825 0.0
H487 H 0.06029 0.81165 0.87984 0.0
C488 C 0.20375 0.72732 0.86022 0.0
C489 C 0.18951 0.7735 0.85053 0.0
C490 C 0.18985 0.73577 0.87504 0.0
C491 C 0.16141 0.79015 0.88028 0.0
C492 C 0.14862 0.83728 0.87072 0.0
H493 H 0.08882 0.03465 0.96094 0.0
H494 H 0.12188 0.97924 0.93816 0.0
C495 C 0.16231 0.82903 0.8561 0.0
C496 C 0.14418 0.79942 0.89561 0.0
H497 H 0.04951 0.81894 0.91414 0.0
C498 C 0.17148 0.82176 0.9075 0.0
C499 C 0.09987 0.79528 0.89825 0.0
C500 C 0.06914 0.76812 0.88608 0.0
C501 C 0.15533 0.84423 0.92175 0.0
C502 C 0.11062 0.84578 0.9241 0.0
C503 C 0.08367 0.81894 0.91239 0.0
C504 C 0.09092 0.87863 0.93827 0.0
C505 C 0.18643 0.86685 0.93409 0.0
C506 C 0.06091 0.84186 0.94571 0.0
C507 C 0.04126 0.874 0.9587 0.0
C508 C 0.05109 0.94378 0.9645 0.0
C509 C 0.08063 0.98072 0.95689 0.0
C510 C 0.10005 0.94873 0.94391 0.0
H511 H 0.21764 0.84014 0.93199 0.0
H512 H 0.19206 0.9242 0.93478 0.0
H513 H 0.17403 0.8555 0.9449 0.0
H514 H 0.05284 0.78803 0.94152 0.0
H515 H 0.01873 0.84391 0.96426 0.0
H516 H 0.78063 0.34498 0.86981 0.0
H517 H 0.80392 0.33162 0.89517 0.0
H518 H 0.88807 0.16392 0.87748 0.0
H519 H 0.86679 0.17858 0.8527 0.0
H520 H 0.79608 0.22359 0.91048 0.0
H521 H 0.96784 0.26954 0.90561 0.0
H522 H 0.93053 0.29125 0.8919 0.0
H523 H 0.95187 0.20352 0.89091 0.0
C524 C 0.80504 0.3069 0.87138 0.0
C525 C 0.82188 0.26321 0.85914 0.0
C526 C 0.81809 0.29874 0.88588 0.0
C527 C 0.84859 0.24753 0.88835 0.0
C528 C 0.86567 0.2053 0.87605 0.0
H529 H 0.87264 1.00661 0.9615 0.0
H530 H 0.85276 0.05847 0.93944 0.0
C531 C 0.85296 0.21347 0.86176 0.0
C532 C 0.86107 0.23338 0.90354 0.0
H533 H 0.94766 0.19225 0.92349 0.0
C534 C 0.82926 0.21806 0.91344 0.0
C535 C 0.90434 0.2274 0.90773 0.0
C536 C 0.94047 0.24965 0.89852 0.0
C537 C 0.83944 0.19329 0.92689 0.0
C538 C 0.88267 0.18062 0.93036 0.0
C539 C 0.91445 0.19989 0.92084 0.0
C540 C 0.89577 0.14721 0.94366 0.0
C541 C 0.80352 0.18176 0.93726 0.0
C542 C 0.92862 0.17659 0.95306 0.0
C543 C 0.94113 0.14542 0.96543 0.0
C544 C 0.9208 0.08437 0.96888 0.0
C545 C 0.88871 0.05396 0.95929 0.0
C546 C 0.87683 0.08435 0.94674 0.0
H547 H 0.77621 0.21701 0.93583 0.0
H548 H 0.79189 0.12693 0.93471 0.0
H549 H 0.81391 0.19107 0.94898 0.0
H550 H 0.94424 0.22455 0.95098 0.0
H551 H 0.96583 0.17057 0.97258 0.0
H552 H 0.74076 0.12392 0.71046 0.0
H553 H 0.70853 0.07123 0.68704 0.0
H554 H 0.60536 0.22007 0.69357 0.0
H555 H 0.63788 0.27411 0.71662 0.0
H556 H 0.63028 1.00892 0.6795 0.0
H557 H 0.64879 0.25185 0.65353 0.0
H558 H 0.67403 0.24085 0.6708 0.0
H559 H 0.61864 0.26461 0.67034 0.0
C560 C 0.71128 0.14553 0.70687 0.0
C561 C 0.69229 0.20396 0.71532 0.0
C562 C 0.69275 0.11511 0.69352 0.0
C563 C 0.65481 0.14231 0.68839 0.0
C564 C 0.63513 0.1991 0.69708 0.0
H565 H 0.50991 0.95254 0.60889 0.0
H566 H 0.53088 0.98278 0.63502 0.0
C567 C 0.65382 0.22997 0.7103 0.0
C568 C 0.63665 0.11336 0.67371 0.0
H569 H 0.60984 0.15951 0.64008 0.0
C570 C 0.6258 0.04173 0.67086 0.0
C571 C 0.63091 0.1561 0.66239 0.0
C572 C 0.64406 0.23242 0.66433 0.0
C573 C 0.60985 1.01171 0.65696 0.0
C574 C 0.60406 0.05468 0.6457 0.0
C575 C 0.61406 0.12649 0.64872 0.0
C576 C 0.59217 0.0264 0.6302 0.0
C577 C 0.60068 0.93402 0.65429 0.0
C578 C 0.6198 0.03891 0.61882 0.0
C579 C 0.60752 0.02347 0.60409 0.0
C580 C 0.56713 0.99466 0.60019 0.0
C581 C 0.54068 0.97646 0.61151 0.0
C582 C 0.55287 0.99309 0.62645 0.0
H583 H 0.61473 0.90605 0.66302 0.0
H584 H 0.5657 0.92563 0.65423 0.0
H585 H 0.61328 0.91036 0.64339 0.0
H586 H 0.65055 0.06334 0.62135 0.0
H587 H 0.62952 0.03667 0.59577 0.0
H588 H 0.48077 0.09301 0.61942 0.0
H589 H 0.46247 0.07276 0.64484 0.0
H590 H 0.35236 0.95332 0.62817 0.0
H591 H 0.37053 0.97199 0.60313 0.0
H592 H 0.37565 0.08496 0.66333 0.0
H593 H 0.43886 0.81598 0.64703 0.0
H594 H 0.45375 0.88939 0.63768 0.0
H595 H 0.40304 0.84727 0.63399 0.0
C596 C 0.45204 0.06424 0.62127 0.0
C597 C 0.42772 0.03276 0.60919 0.0
C598 C 0.44166 0.05244 0.63579 0.0
C599 C 0.40644 1.01021 0.63837 0.0
C600 C 0.37998 0.98511 0.62647 0.0
H601 H 0.2754 0.88763 0.71548 0.0
H602 H 0.29554 0.93715 0.69307 0.0
C603 C 0.39046 0.99611 0.61211 0.0
C604 C 0.39898 0.98523 0.65296 0.0
H605 H 0.39832 0.83463 0.66907 0.0
C606 C 0.38106 0.03049 0.66469 0.0
C607 C 0.40624 0.91425 0.65479 0.0
C608 C 0.42684 0.86379 0.64278 0.0
C609 C 0.3692 1.00608 0.67803 0.0
C610 C 0.37448 0.93402 0.67958 0.0
C611 C 0.39365 0.88956 0.66795 0.0
C612 C 0.36137 0.9035 0.6932 0.0
C613 C 0.35165 0.05808 0.6904 0.0
C614 C 0.39084 0.86511 0.70049 0.0
C615 C 0.37916 0.83561 0.71313 0.0
C616 C 0.3376 0.84362 0.71892 0.0
C617 C 0.30774 0.8807 0.71143 0.0
C618 C 0.31942 0.90987 0.69868 0.0
H619 H 0.36157 0.11261 0.68927 0.0
H620 H 0.31633 0.05613 0.69004 0.0
H621 H 0.3623 0.04565 0.70135 0.0
H622 H 0.42328 0.85865 0.69651 0.0
H623 H 0.40318 0.80759 0.71852 0.0
H624 H 0.49308 0.38012 0.9583 0.0
H625 H 0.52623 0.3258 0.93519 0.0
H626 H 0.63477 0.46306 0.94385 0.0
H627 H 0.60141 0.51877 0.96646 0.0
H628 H 0.61118 0.46184 0.91679 0.0
H629 H 0.62034 0.1851 0.92708 0.0
H630 H 0.56699 0.21862 0.9286 0.0
H631 H 0.60715 0.25581 0.94144 0.0
C632 C 0.52404 0.39851 0.95526 0.0
C633 C 0.54439 0.45412 0.96422 0.0
C634 C 0.54325 0.36685 0.94212 0.0
C635 C 0.58354 0.38924 0.93782 0.0
C636 C 0.60382 0.44445 0.94685 0.0
H637 H 0.73552 0.20923 0.85938 0.0
H638 H 0.71304 0.2386 0.8854 0.0
C639 C 0.58452 0.47653 0.95981 0.0
C640 C 0.60358 0.35926 0.92349 0.0
H641 H 0.63254 0.20625 0.90206 0.0
C642 C 0.61623 0.40595 0.91372 0.0
C643 C 0.61101 0.28637 0.91943 0.0
C644 C 0.60109 0.23363 0.92976 0.0
C645 C 0.63453 0.38198 0.89995 0.0
C646 C 0.63955 0.30902 0.89552 0.0
C647 C 0.62844 0.26214 0.90542 0.0
C648 C 0.65208 0.28168 0.88009 0.0
C649 C 0.64786 0.43519 0.8901 0.0
C650 C 0.62479 0.2934 0.86855 0.0
C651 C 0.63781 0.2782 0.8539 0.0
C652 C 0.67853 0.25018 0.85027 0.0
C653 C 0.7046 0.23266 0.86178 0.0
C654 C 0.69161 0.24892 0.87664 0.0
H655 H 0.65317 0.48784 0.89653 0.0
H656 H 0.6775 0.41852 0.88398 0.0
H657 H 0.62229 0.44018 0.8819 0.0
H658 H 0.59384 0.31719 0.87092 0.0
H659 H 0.61616 0.29087 0.84541 0.0
H660 H 0.36139 0.53926 0.96369 0.0
H661 H 0.34199 0.58958 0.94147 0.0
H662 H 0.45151 0.72584 0.9472 0.0
H663 H 0.47125 0.67571 0.96966 0.0
H664 H 0.37186 0.79487 0.94054 0.0
H665 H 0.40318 0.55416 0.90119 0.0
H666 H 0.36921 0.54123 0.9164 0.0
H667 H 0.42387 0.56629 0.91982 0.0
C668 C 0.38173 0.57952 0.96023 0.0
C669 C 0.41811 0.60302 0.96853 0.0
C670 C 0.37049 0.60832 0.94746 0.0
C671 C 0.39528 0.66144 0.94255 0.0
C672 C 0.43178 0.68499 0.95074 0.0
H673 H 0.38452 0.77148 0.85432 0.0
H674 H 0.40569 0.7486 0.87886 0.0
C675 C 0.44324 0.65584 0.96353 0.0
C676 C 0.38295 0.69155 0.92885 0.0
H677 H 0.36777 0.64691 0.89168 0.0
C678 C 0.37114 0.76267 0.92983 0.0
C679 C 0.38195 0.64975 0.91485 0.0
C680 C 0.39555 0.57377 0.9129 0.0
C681 C 0.35814 0.79272 0.91723 0.0
C682 C 0.35669 0.75055 0.90326 0.0
C683 C 0.36864 0.67953 0.90234 0.0
C684 C 0.34532 0.77863 0.88919 0.0
C685 C 0.34682 0.86957 0.91895 0.0
C686 C 0.30484 0.80711 0.8868 0.0
C687 C 0.29286 0.82202 0.87263 0.0
C688 C 0.32086 0.80719 0.86061 0.0
C689 C 0.36218 0.78363 0.86334 0.0
C690 C 0.37424 0.76982 0.87739 0.0
H691 H 0.35888 0.89811 0.92954 0.0
H692 H 0.35994 0.8948 0.90968 0.0
H693 H 0.31164 0.87505 0.91881 0.0
H694 H 0.28164 0.81389 0.89563 0.0
H695 H 0.26082 0.83991 0.87089 0.0
H696 H 0.57883 0.62004 0.10071 0.0
H697 H 0.60255 0.63234 0.12619 0.0
H698 H 0.54131 0.43707 0.13188 0.0
H699 H 0.51697 0.42386 0.10582 0.0
H700 H 0.53268 0.56199 0.15669 0.0
H701 H 0.69897 0.50094 0.13939 0.0
H702 H 0.67377 0.56336 0.12923 0.0
H703 H 0.65373 0.47497 0.12763 0.0
C704 C 0.57018 0.57932 0.10728 0.0
C705 C 0.54664 0.52013 0.10109 0.0
C706 C 0.58383 0.58666 0.12191 0.0
C707 C 0.57462 0.535 0.13085 0.0
C708 C 0.54923 0.47719 0.12507 0.0
H709 H 0.72584 0.59066 0.21325 0.0
H710 H 0.69054 0.53337 0.19079 0.0
C711 C 0.53529 0.46972 0.11023 0.0
C712 C 0.59328 0.54257 0.14598 0.0
H713 H 0.6896 0.56677 0.16344 0.0
C714 C 0.56691 0.56151 0.15825 0.0
C715 C 0.63796 0.54129 0.14807 0.0
C716 C 0.66781 0.5184 0.1354 0.0
C717 C 0.58421 0.58353 0.17238 0.0
C718 C 0.6291 0.58805 0.17421 0.0
C719 C 0.65527 0.56438 0.1621 0.0
C720 C 0.6496 0.62148 0.18821 0.0
C721 C 0.55411 0.60276 0.18514 0.0
C722 C 0.63926 0.6907 0.1941 0.0
C723 C 0.65937 0.7235 0.20689 0.0
C724 C 0.69081 0.68828 0.21408 0.0
C725 C 0.70182 0.6194 0.20802 0.0
C726 C 0.6815 0.58645 0.19521 0.0
H727 H 0.52346 0.57389 0.1833 0.0
H728 H 0.56822 0.59134 0.19571 0.0
H729 H 0.54691 0.65971 0.18615 0.0
H730 H 0.61591 0.71996 0.18869 0.0
H731 H 0.65022 0.77672 0.21114 0.0
H732 H 0.2753 0.41287 0.21895 0.0
H733 H 0.2946 0.46149 0.19632 0.0
H734 H 0.41044 0.34039 0.19317 0.0
H735 H 0.3915 0.2915 0.21563 0.0
H736 H 0.37104 0.5398 0.19033 0.0
H737 H 0.35447 0.29068 0.15213 0.0
H738 H 0.33173 0.30257 0.17044 0.0
H739 H 0.3877 0.28548 0.16797 0.0
C740 C 0.30469 0.396 0.21337 0.0
C741 C 0.33169 0.34787 0.21916 0.0
C742 C 0.31584 0.42429 0.20047 0.0
C743 C 0.35397 0.40457 0.19296 0.0
C744 C 0.38069 0.35606 0.19864 0.0
H745 H 0.47867 0.59167 0.12035 0.0
H746 H 0.46083 0.56445 0.14525 0.0
C747 C 0.36972 0.32806 0.21153 0.0
C748 C 0.36585 0.43407 0.17916 0.0
H749 H 0.38415 0.38716 0.14225 0.0
C750 C 0.37384 0.50651 0.1798 0.0
C751 C 0.36955 0.39081 0.1654 0.0
C752 C 0.3601 0.31315 0.16383 0.0
C753 C 0.38545 0.53656 0.16707 0.0
C754 C 0.38932 0.4931 0.15332 0.0
C755 C 0.38142 0.4207 0.15276 0.0
C756 C 0.39858 0.52108 0.13911 0.0
C757 C 0.39253 0.61471 0.16836 0.0
C758 C 0.3693 0.50809 0.12744 0.0
C759 C 0.3796 0.52293 0.11332 0.0
C760 C 0.4195 0.55142 0.11036 0.0
C761 C 0.44769 0.56992 0.12225 0.0
C762 C 0.43746 0.55423 0.1365 0.0
H763 H 0.3799 0.64256 0.17892 0.0
H764 H 0.42723 0.62538 0.16795 0.0
H765 H 0.37719 0.63659 0.15902 0.0
H766 H 0.33901 0.48325 0.1291 0.0
H767 H 0.35702 0.50821 0.10445 0.0
H768 H 0.59759 0.02372 0.46358 0.0
H769 H 0.62914 0.97094 0.44034 0.0
H770 H 0.53127 0.81198 0.43554 0.0
H771 H 0.49985 0.86377 0.45916 0.0
H772 H 0.61233 0.75723 0.42794 0.0
H773 H 0.58024 0.99105 0.40014 0.0
H774 H 0.61083 1.01052 0.41679 0.0
H775 H 0.55683 0.97986 0.41768 0.0
C776 C 0.58248 0.97773 0.45759 0.0
C777 C 0.54576 0.94858 0.46319 0.0
C778 C 0.60066 0.94757 0.44425 0.0
C779 C 0.58229 0.88807 0.43602 0.0
C780 C 0.546 0.858 0.44166 0.0
H781 H 0.61345 0.77318 0.34329 0.0
H782 H 0.58948 0.79939 0.3686 0.0
C783 C 0.5279 0.88792 0.45512 0.0
C784 C 0.60037 0.85886 0.42136 0.0
H785 H 0.6234 0.90266 0.38723 0.0
C786 C 0.61466 0.78886 0.419 0.0
C787 C 0.60336 0.90001 0.40966 0.0
C788 C 0.58665 0.97428 0.41111 0.0
C789 C 0.63167 0.75901 0.40527 0.0
C790 C 0.63495 0.80054 0.39364 0.0
C791 C 0.62112 0.8707 0.39613 0.0
C792 C 0.6489 0.77203 0.37836 0.0
C793 C 0.64485 0.68293 0.4032 0.0
C794 C 0.68989 0.74399 0.37521 0.0
C795 C 0.70364 0.72716 0.36046 0.0
C796 C 0.67721 0.74056 0.34871 0.0
C797 C 0.63535 0.76389 0.352 0.0
C798 C 0.62144 0.77911 0.36655 0.0
H799 H 0.63162 0.65436 0.41197 0.0
H800 H 0.63429 0.65607 0.39226 0.0
H801 H 0.68011 0.67974 0.40367 0.0
H802 H 0.71189 0.73801 0.3841 0.0
H803 H 0.73542 0.70697 0.35832 0.0
H804 H 0.46244 0.17908 0.47432 0.0
H805 H 0.44091 0.23542 0.453 0.0
H806 H 0.35338 0.06538 0.43967 0.0
H807 H 0.37319 1.01096 0.46139 0.0
H808 H 0.44623 0.20672 0.42532 0.0
H809 H 0.27402 0.22131 0.4367 0.0
H810 H 0.31166 0.19559 0.4499 0.0
H811 H 0.29123 0.13187 0.43523 0.0
C812 C 0.43862 0.1536 0.46684 0.0
C813 C 0.41934 0.09063 0.46966 0.0
C814 C 0.42615 0.1861 0.45463 0.0
C815 C 0.39438 0.15619 0.44482 0.0
C816 C 0.37655 0.09157 0.4473 0.0
H817 H 0.3682 0.19265 0.35424 0.0
H818 H 0.38864 0.17769 0.37906 0.0
C819 C 0.3884 0.05978 0.45966 0.0
C820 C 0.38123 0.19086 0.43171 0.0
H821 H 0.29468 0.23067 0.41152 0.0
C822 C 0.413 0.21285 0.4225 0.0
C823 C 0.33793 0.20157 0.42805 0.0
C824 C 0.30185 0.18711 0.43811 0.0
C825 C 0.40283 0.24092 0.40946 0.0
C826 C 0.35963 0.24483 0.40504 0.0
C827 C 0.32779 0.22694 0.41467 0.0
C828 C 0.34742 0.25902 0.38983 0.0
C829 C 0.43884 0.26576 0.40053 0.0
C830 C 0.31617 0.30891 0.3873 0.0
C831 C 0.30325 0.31679 0.37276 0.0
C832 C 0.32143 0.27468 0.36056 0.0
C833 C 0.35327 0.22629 0.36327 0.0
C834 C 0.36557 0.21802 0.37759 0.0
H835 H 0.46557 0.28664 0.40783 0.0
H836 H 0.45134 0.2207 0.39287 0.0
H837 H 0.42833 0.30732 0.394 0.0
H838 H 0.30151 0.34115 0.39656 0.0
H839 H 0.27828 0.35381 0.37112 0.0
H840 H 0.08692 0.7799 0.04956 0.0
H841 H 0.07113 0.65471 0.04803 0.0
H842 H 0.9673 0.67797 1.01813 0.0
H843 H 0.983 0.8029 1.01941 0.0
H844 H 0.99091 0.60881 0.05737 0.0
H845 H 0.02634 0.49584 0.99946 0.0
H846 H 0.04806 0.57878 1.00789 0.0
H847 H -0.006 0.57362 1.00134 0.0
C848 C 0.06159 0.75816 0.04226 0.0
C849 C 0.03611 0.8019 0.03468 0.0
C850 C 0.05244 0.68657 0.04149 0.0
C851 C 0.01801 0.65712 0.03301 0.0
C852 C -0.00562 0.69941 1.0246 0.0
H853 H 0.89061 0.25589 1.02009 0.0
H854 H 0.90752 0.38072 1.0223 0.0
C855 C 0.00351 0.77102 1.02534 0.0
C856 C 0.00419 0.58424 0.03411 0.0
H857 H 0.98729 0.42398 1.01388 0.0
C858 C 0.99037 0.56816 0.04789 0.0
C859 C 0.00328 0.53162 1.02172 0.0
C860 C 0.01904 0.5454 1.00678 0.0
C861 C 0.97487 0.50108 0.04955 0.0
C862 C 0.97373 0.44855 0.03713 0.0
C863 C 0.98787 0.46454 1.02338 0.0
C864 C 0.95857 0.37615 0.03806 0.0
C865 C 0.95893 0.48751 0.06448 0.0
C866 C 0.98035 0.33273 0.04674 0.0
C867 C 0.97047 0.2612 0.04563 0.0
C868 C 0.9391 0.2316 0.03562 0.0
C869 C 0.91511 0.27657 1.02785 0.0
C870 C 0.9249 0.348 1.02902 0.0
H871 H 0.95155 0.53717 0.07175 0.0
H872 H 0.92991 0.45413 0.06336 0.0
H873 H 0.98391 0.45947 0.06998 0.0
H874 H 0.00684 0.35307 0.05365 0.0
H875 H 0.98983 0.22832 0.05173 0.0
H876 H 0.25914 0.49242 0.30164 0.0
H877 H 0.23942 0.6162 0.3035 0.0
H878 H 0.33789 0.64973 0.27235 0.0
H879 H 0.35774 0.52606 0.27026 0.0
H880 H 0.28855 0.75012 0.30928 0.0
H881 H 0.22051 0.69282 0.25268 0.0
H882 H 0.23218 0.62496 0.26397 0.0
H883 H 0.27448 0.66419 0.25468 0.0
C884 C 0.27747 0.52635 0.29549 0.0
C885 C 0.30957 0.49887 0.28558 0.0
C886 C 0.26598 0.59706 0.29653 0.0
C887 C 0.28656 0.64126 0.28777 0.0
C888 C 0.32116 0.61577 0.27897 0.0
H889 H 0.26949 0.06362 0.26946 0.0
H890 H 0.28055 0.93736 0.26858 0.0
C891 C 0.33264 0.54516 0.27788 0.0
C892 C 0.26997 0.71242 0.28693 0.0
H893 H 0.22344 0.81261 0.2632 0.0
C894 C 0.27399 0.76384 0.29928 0.0
C895 C 0.2507 0.72952 0.27387 0.0
C896 C 0.24378 0.67496 0.26056 0.0
C897 C 0.26064 0.83306 0.2987 0.0
C898 C 0.24229 0.85056 0.28551 0.0
C899 C 0.2375 0.79876 0.27327 0.0
C900 C 0.23022 0.92352 0.28406 0.0
C901 C 0.26751 0.88759 0.31203 0.0
C902 C 0.19669 0.95638 0.29243 0.0
C903 C 0.19006 0.02849 0.29291 0.0
C904 C 0.21711 0.06883 0.28509 0.0
C905 C 0.24829 0.03433 0.27571 0.0
C906 C 0.25475 0.96219 0.27521 0.0
H907 H 0.28842 0.86811 0.32041 0.0
H908 H 0.28191 0.93584 0.30869 0.0
H909 H 0.23632 0.90217 0.31727 0.0
H910 H 0.17703 0.92688 0.29915 0.0
H911 H 0.16558 0.05316 0.30018 0.0
H912 H 0.75726 0.97649 0.30171 0.0
H913 H 0.73961 0.10135 0.30505 0.0
H914 H 0.83022 0.13552 0.2713 0.0
H915 H 0.84857 1.01123 0.26798 0.0
H916 H 0.82769 0.2446 0.29488 0.0
H917 H 0.66517 0.17266 0.2734 0.0
H918 H 0.68103 0.13629 0.28967 0.0
H919 H 0.70803 0.10973 0.27249 0.0
C920 C 0.77432 1.01075 0.29526 0.0
C921 C 0.80378 0.98345 0.28436 0.0
C922 C 0.76383 0.08203 0.2971 0.0
C923 C 0.78266 0.12703 0.28809 0.0
C924 C 0.81493 0.10134 0.27822 0.0
H925 H 0.75975 0.54907 0.26731 0.0
H926 H 0.77364 0.42381 0.26684 0.0
C927 C 0.82546 0.0302 0.27637 0.0
C928 C 0.76691 0.19949 0.28805 0.0
H929 H 0.68067 0.29332 0.27897 0.0
C930 C 0.79553 0.25536 0.29146 0.0
C931 C 0.72484 0.21316 0.28358 0.0
C932 C 0.69299 0.1549 0.27945 0.0
C933 C 0.7833 0.32471 0.29048 0.0
C934 C 0.74166 0.33814 0.2856 0.0
C935 C 0.71269 0.28254 0.28252 0.0
C936 C 0.72768 0.41 0.28385 0.0
C937 C 0.81496 0.38307 0.29487 0.0
C938 C 0.69486 0.44209 0.2927 0.0
C939 C 0.68635 0.5135 0.29285 0.0
C940 C 0.71076 0.55389 0.28419 0.0
C941 C 0.74074 0.51977 0.27426 0.0
C942 C 0.74903 0.44833 0.27408 0.0
H943 H 0.84081 0.36634 0.30194 0.0
H944 H 0.82982 0.39851 0.28477 0.0
H945 H 0.79908 0.42999 0.30091 0.0
H946 H 0.67762 0.41299 0.30016 0.0
H947 H 0.66286 0.53788 0.30057 0.0
H948 H 0.88932 0.75637 0.51967 0.0
H949 H 0.90394 0.88199 0.52151 0.0
H950 H 0.0041 0.86172 0.55297 0.0
H951 H 0.9899 0.73587 0.55128 0.0
H952 H 0.94947 0.99088 0.55816 0.0
H953 H 0.01938 0.93479 0.5018 0.0
H954 H 0.96621 0.90291 0.50403 0.0
H955 H 0.00982 0.86684 0.51326 0.0
C956 C 0.91375 0.77867 0.5273 0.0
C957 C 0.93894 0.73558 0.53514 0.0
C958 C 0.92216 0.85048 0.52825 0.0
C959 C 0.9557 0.88043 0.5371 0.0
C960 C 0.97831 0.83916 0.54598 0.0
H961 H 0.08179 0.28474 0.5507 0.0
H962 H 0.0641 0.16023 0.54951 0.0
C963 C 0.97001 0.76723 0.54502 0.0
C964 C 0.96977 0.95292 0.53604 0.0
H965 H 0.01789 0.05338 0.5127 0.0
C966 C 0.96448 1.00467 0.54826 0.0
C967 C 0.98938 0.97034 0.52306 0.0
C968 C -0.00307 0.91588 0.50979 0.0
C969 C 0.97785 0.07402 0.54777 0.0
C970 C -0.00224 0.09125 0.53484 0.0
C971 C 0.00285 0.0396 0.5226 0.0
C972 C 0.01271 0.16329 0.53382 0.0
C973 C 0.96989 0.1288 0.56095 0.0
C974 C 0.9912 0.20479 0.52472 0.0
C975 C 0.0014 0.2758 0.52526 0.0
C976 C 0.03327 0.30644 0.53495 0.0
C977 C 0.05706 0.26306 0.54314 0.0
C978 C 0.04675 0.19204 0.54259 0.0
H979 H 0.94731 0.10999 0.56891 0.0
H980 H 0.00045 0.14228 0.56677 0.0
H981 H 0.95694 0.17754 0.55735 0.0
H982 H 0.96502 0.18319 0.5178 0.0
H983 H 0.98252 0.30749 0.51875 0.0
H984 H 0.26244 0.99754 0.80039 0.0
H985 H 0.24618 0.12254 0.8023 0.0
H986 H 0.34152 0.14711 0.76945 0.0
H987 H 0.35791 0.02201 0.76728 0.0
H988 H 0.29605 0.25002 0.80751 0.0
H989 H 0.22631 0.20013 0.75104 0.0
H990 H 0.23874 0.13038 0.76174 0.0
H991 H 0.28046 0.17167 0.75257 0.0
C992 C 0.28071 0.02965 0.79379 0.0
C993 C 0.31089 0.99943 0.78345 0.0
C994 C 0.27127 0.10104 0.7949 0.0
C995 C 0.29188 0.14312 0.78571 0.0
C996 C 0.32468 0.11472 0.77638 0.0
H997 H 0.27137 0.56851 0.76913 0.0
H998 H 0.28355 0.44237 0.76758 0.0
C999 C 0.33417 0.04334 0.77524 0.0
C1000 C 0.27682 0.2152 0.7851 0.0
H1001 H 0.22918 0.3186 0.76227 0.0
C1002 C 0.28127 0.26514 0.79767 0.0
C1003 C 0.25725 0.23404 0.77223 0.0
C1004 C 0.24998 0.18122 0.75865 0.0
C1005 C 0.26768 0.33449 0.79759 0.0
C1006 C 0.24851 0.35349 0.78467 0.0
C1007 C 0.24371 0.30338 0.77214 0.0
C1008 C 0.23561 0.42641 0.78378 0.0
C1009 C 0.27497 0.38738 0.81116 0.0
C1010 C 0.20297 0.45793 0.7928 0.0
C1011 C 0.19579 0.53002 0.79371 0.0
C1012 C 0.22136 0.57138 0.78563 0.0
C1013 C 0.25147 0.53826 0.77563 0.0
C1014 C 0.25851 0.46624 0.77472 0.0
H1015 H 0.29725 0.36743 0.81909 0.0
H1016 H 0.28796 0.43711 0.80806 0.0
H1017 H 0.24414 0.39946 0.81687 0.0
H1018 H 0.1845 0.42738 0.79966 0.0
H1019 H 0.17216 0.55379 0.80144 0.0
H1020 H 0.76123 0.48575 0.80339 0.0
H1021 H 0.7441 0.61084 0.806 0.0
H1022 H 0.83656 0.63986 0.77247 0.0
H1023 H 0.85454 0.51565 0.76999 0.0
H1024 H 0.83366 0.75215 0.7942 0.0
H1025 H 0.67003 0.67849 0.77437 0.0
H1026 H 0.68589 0.64536 0.791 0.0
H1027 H 0.71258 0.61521 0.77392 0.0
C1028 C 0.77883 0.51899 0.79687 0.0
C1029 C 0.80864 0.4901 0.78624 0.0
C1030 C 0.76859 0.59045 0.79825 0.0
C1031 C 0.78792 0.6341 0.78903 0.0
C1032 C 0.82073 0.60692 0.77953 0.0
H1033 H 0.76036 0.05964 0.76794 0.0
H1034 H 0.77707 0.93508 0.76705 0.0
C1035 C 0.83107 0.53572 0.77817 0.0
C1036 C 0.7723 0.70653 0.78839 0.0
H1037 H 0.68521 0.79938 0.77963 0.0
C1038 C 0.8012 0.76254 0.79105 0.0
C1039 C 0.72995 0.71991 0.78416 0.0
C1040 C 0.69784 0.66163 0.78056 0.0
C1041 C 0.78885 0.83165 0.78976 0.0
C1042 C 0.74662 0.84492 0.78539 0.0
C1043 C 0.71761 0.78902 0.78287 0.0
C1044 C 0.73163 0.91693 0.78394 0.0
C1045 C 0.82101 0.88989 0.79336 0.0
C1046 C 0.69809 0.9466 0.7928 0.0
C1047 C 0.68788 1.01755 0.79315 0.0
C1048 C 0.71123 0.06031 0.78468 0.0
C1049 C 0.74202 0.02863 0.77474 0.0
C1050 C 0.75203 0.95753 0.77435 0.0
H1051 H 0.8478 0.87384 0.80012 0.0
H1052 H 0.83455 0.90378 0.78292 0.0
H1053 H 0.80595 0.93754 0.79941 0.0
H1054 H 0.68144 0.91593 0.80012 0.0
H1055 H 0.66381 0.03983 0.80088 0.0
H1056 H 0.4795 0.80444 0.51846 0.0
H1057 H 0.46094 0.68034 0.51704 0.0
H1058 H 0.55941 0.65254 0.54868 0.0
H1059 H 0.5781 0.77674 0.55035 0.0
H1060 H 0.51292 0.54851 0.51182 0.0
H1061 H 0.44114 0.6063 0.56782 0.0
H1062 H 0.45178 0.67367 0.5563 0.0
H1063 H 0.49462 0.63763 0.56592 0.0
C1064 C 0.49802 0.77173 0.52485 0.0
C1065 C 0.52986 0.80092 0.53472 0.0
C1066 C 0.48723 0.70085 0.52404 0.0
C1067 C 0.50823 0.65815 0.53301 0.0
C1068 C 0.54245 0.68537 0.54187 0.0
H1069 H 0.48854 0.23345 0.55077 0.0
H1070 H 0.50075 0.35972 0.55224 0.0
C1071 C 0.55328 0.75623 0.54271 0.0
C1072 C 0.49248 0.58661 0.53392 0.0
H1073 H 0.44399 0.48677 0.55728 0.0
C1074 C 0.49766 0.53489 0.5217 0.0
C1075 C 0.47227 0.56973 0.54682 0.0
C1076 C 0.4642 0.62471 0.55996 0.0
C1077 C 0.48424 0.46568 0.52222 0.0
C1078 C 0.46467 0.44849 0.53521 0.0
C1079 C 0.459 0.50045 0.54736 0.0
C1080 C 0.45157 0.37583 0.53645 0.0
C1081 C 0.49203 0.41095 0.50901 0.0
C1082 C 0.41826 0.34434 0.52772 0.0
C1083 C 0.411 0.27228 0.52688 0.0
C1084 C 0.43718 0.23059 0.53471 0.0
C1085 C 0.46798 0.26374 0.5445 0.0
C1086 C 0.47512 0.3359 0.54534 0.0
H1087 H 0.51399 0.43011 0.5009 0.0
H1088 H 0.50563 0.36256 0.51255 0.0
H1089 H 0.46129 0.39672 0.50336 0.0
H1090 H 0.39937 0.37486 0.52096 0.0
H1091 H 0.38672 0.24874 0.51933 0.0
H1092 H 0.38845 0.77274 1.01688 0.0
H1093 H 0.40358 0.89833 1.01907 0.0
H1094 H 0.49849 0.87704 0.05235 0.0
H1095 H 0.48346 0.75162 0.05043 0.0
H1096 H 0.4475 1.0031 0.0572 0.0
H1097 H 0.51906 0.95286 1.00107 0.0
H1098 H 0.46503 0.92338 1.00241 0.0
H1099 H 0.50676 0.88328 1.01183 0.0
C1100 C 0.4118 0.79491 1.02494 0.0
C1101 C 0.43543 0.7519 0.03325 0.0
C1102 C 0.42054 0.86654 1.02609 0.0
C1103 C 0.45291 0.89593 0.03555 0.0
C1104 C 0.47374 0.85469 0.04485 0.0
H1105 H 0.57131 0.3071 0.05139 0.0
H1106 H 0.55963 0.18043 0.04941 0.0
C1107 C 0.46504 0.78309 0.04373 0.0
C1108 C 0.46752 0.96811 0.0349 0.0
H1109 H 0.51565 0.0714 1.01219 0.0
C1110 C 0.46253 1.01819 0.04741 0.0
C1111 C 0.48746 0.98679 1.0221 0.0
C1112 C 0.49532 0.93374 1.00861 0.0
C1113 C 0.47599 0.08757 0.04733 0.0
C1114 C 0.49552 0.10641 0.03448 0.0
C1115 C 0.50084 0.05621 1.02201 0.0
C1116 C 0.50823 0.17928 0.03359 0.0
C1117 C 0.46827 0.14067 0.06082 0.0
C1118 C 0.48487 0.219 1.02462 0.0
C1119 C 0.49148 0.29114 1.02567 0.0
C1120 C 0.52157 0.32436 0.0357 0.0
C1121 C 0.54764 0.28317 0.04365 0.0
C1122 C 0.5409 0.21096 0.04261 0.0
H1123 H 0.44605 0.12052 0.06873 0.0
H1124 H 0.49897 0.1536 0.06659 0.0
H1125 H 0.455 0.18997 0.05761 0.0
H1126 H 0.45979 0.19492 1.01749 0.0
H1127 H 0.47126 0.32134 1.01926 0.0
H1128 H 0.33971 0.55658 0.04213 0.0
H1129 H 0.26402 0.53174 0.04398 0.0
H1130 H 0.29342 0.34793 0.06446 0.0
H1131 H 0.36961 0.37344 0.06294 0.0
H1132 H 0.23665 0.41181 1.0283 0.0
H1133 H 0.18531 0.4197 0.08632 0.0
H1134 H 0.23262 0.46423 0.08114 0.0
H1135 H 0.23409 0.3719 0.08271 0.0
C1136 C 0.3301 0.51158 0.04731 0.0
C1137 C 0.36046 0.46587 0.05211 0.0
C1138 C 0.28682 0.49806 0.04851 0.0
C1139 C 0.27316 0.43844 0.05445 0.0
C1140 C 0.30332 0.39517 0.06014 0.0
H1141 H 0.10863 0.10974 0.04444 0.0
H1142 H 0.15382 0.20948 0.05339 0.0
C1143 C 0.3468 0.40917 0.05909 0.0
C1144 C 0.22912 0.41332 0.05177 0.0
H1145 H 0.14558 0.34098 0.06806 0.0
C1146 C 0.21604 0.39806 0.037 0.0
C1147 C 0.20252 0.39589 0.06316 0.0
C1148 C 0.21419 0.41447 0.07924 0.0
C1149 C 0.17904 0.35938 0.03316 0.0
C1150 C 0.15386 0.33726 0.04452 0.0
C1151 C 0.16503 0.35793 0.05939 0.0
C1152 C 0.12117 0.28231 0.0411 0.0
C1153 C 0.16965 0.33725 1.01696 0.0
C1154 C 0.08703 0.29079 1.03156 0.0
C1155 C 0.06212 0.23302 1.02599 0.0
C1156 C 0.07016 0.16686 1.03032 0.0
C1157 C 0.10212 0.15998 0.04078 0.0
C1158 C 0.12764 0.21712 0.04602 0.0
H1159 H 0.19638 0.34935 1.00975 0.0
H1160 H 0.16315 0.27999 1.01475 0.0
H1161 H 0.14107 0.36555 1.01374 0.0
H1162 H 0.08076 0.34125 1.02798 0.0
H1163 H 0.03677 0.24002 1.01825 0.0
H1164 H 0.9285 0.79041 0.05594 0.0
H1165 H 0.8786 0.69536 0.04755 0.0
H1166 H 0.82564 0.81913 1.01592 0.0
H1167 H 0.87544 0.91311 1.02395 0.0
H1168 H 0.79547 0.72307 0.05185 0.0
H1169 H 0.81917 0.62515 0.99289 0.0
H1170 H 0.86053 0.67074 1.00421 0.0
H1171 H 0.82028 0.71922 0.99578 0.0
C1172 C 0.90677 0.79667 0.04699 0.0
C1173 C 0.90513 0.85984 0.04084 0.0
C1174 C 0.87866 0.74209 0.04211 0.0
C1175 C 0.84878 0.74997 1.03101 0.0
C1176 C 0.84912 0.81114 1.02423 0.0
H1177 H 0.59256 0.69006 1.00895 0.0
H1178 H 0.66966 0.71244 1.00977 0.0
C1179 C 0.87717 0.86545 1.02904 0.0
C1180 C 0.81154 0.70305 1.02874 0.0
H1181 H 0.74512 0.62595 1.00169 0.0
C1182 C 0.78499 0.69976 0.04095 0.0
C1183 C 0.79795 0.67328 1.0145 0.0
C1184 C 0.8263 0.67169 1.00114 0.0
C1185 C 0.74363 0.67307 0.03916 0.0
C1186 C 0.72898 0.64759 1.02478 0.0
C1187 C 0.75648 0.64632 1.01266 0.0
C1188 C 0.68417 0.62711 1.0222 0.0
C1189 C 0.71502 0.67704 0.05255 0.0
C1190 C 0.66746 0.57078 1.02856 0.0
C1191 C 0.62376 0.55901 1.02838 0.0
C1192 C 0.59613 0.60264 1.0216 0.0
C1193 C 0.61318 0.65624 1.01437 0.0
C1194 C 0.65707 0.66865 1.01474 0.0
H1195 H 0.72874 0.71051 0.06229 0.0
H1196 H 0.68326 0.69826 0.05014 0.0
H1197 H 0.71039 0.62353 0.05555 0.0
H1198 H 0.68808 0.53765 0.03415 0.0
H1199 H 0.61161 0.51617 0.03376 0.0
H1200 H 0.1854 0.38861 0.30379 0.0
H1201 H 0.13124 0.46883 0.31493 0.0
H1202 H 0.11252 0.54681 0.27329 0.0
H1203 H 0.16794 0.46702 0.26197 0.0
H1204 H 0.10092 0.64656 0.30564 0.0
H1205 H 0.01209 0.39329 0.29329 0.0
H1206 H 0.06283 0.3941 0.30251 0.0
H1207 H 0.0604 0.40922 0.28359 0.0
C1208 C 0.17081 0.42422 0.29706 0.0
C1209 C 0.17995 0.42034 0.28189 0.0
C1210 C 0.14023 0.47053 0.30352 0.0
C1211 C 0.11799 0.51278 0.29486 0.0
C1212 C 0.12981 0.51436 0.28009 0.0
H1213 H 0.89702 0.72762 0.28508 0.0
H1214 H 0.96946 0.69263 0.28935 0.0
C1215 C 0.16103 0.46846 0.27362 0.0
C1216 C 0.07675 0.54149 0.30007 0.0
H1217 H 0.97273 0.49352 0.3015 0.0
C1218 C 0.07284 0.61335 0.30496 0.0
C1219 C 0.0407 0.49714 0.29945 0.0
C1220 C 0.04383 0.41912 0.2944 0.0
C1221 C 0.03278 0.64288 0.30856 0.0
C1222 C -0.00377 0.59932 0.30678 0.0
C1223 C 0.00081 0.52672 0.30287 0.0
C1224 C 0.95298 0.62822 0.30622 0.0
C1225 C 0.0299 0.72052 0.31385 0.0
C1226 C 0.91935 0.60166 0.31395 0.0
C1227 C 0.87736 0.62011 0.31122 0.0
C1228 C 0.86865 0.66566 0.30079 0.0
C1229 C 0.90256 0.69273 0.29326 0.0
C1230 C 0.94422 0.67387 0.29589 0.0
H1231 H 0.05862 0.73915 0.32036 0.0
H1232 H 0.02845 0.74952 0.30415 0.0
H1233 H 0.00117 0.73357 0.32075 0.0
H1234 H 0.92553 0.56504 0.32173 0.0
H1235 H 0.85186 0.59785 0.31707 0.0
H1236 H 0.39881 0.9121 0.51812 0.0
H1237 H 0.35057 0.82262 0.50655 0.0
H1238 H 0.34711 0.72764 0.5467 0.0
H1239 H 0.39871 0.8145 0.55811 0.0
H1240 H 0.33134 0.63152 0.51935 0.0
H1241 H 0.23422 0.87642 0.52547 0.0
H1242 H 0.28067 0.87783 0.5141 0.0
H1243 H 0.28641 0.87301 0.53354 0.0
C1244 C 0.3893 0.87072 0.52435 0.0
C1245 C 0.40175 0.87107 0.53915 0.0
C1246 C 0.36183 0.81943 0.51766 0.0
C1247 C 0.34469 0.77009 0.52593 0.0
C1248 C 0.36006 0.76587 0.54021 0.0
H1249 H 0.11957 0.56256 0.53855 0.0
H1250 H 0.19386 0.59295 0.53537 0.0
C1251 C 0.38896 0.81593 0.54677 0.0
C1252 C 0.30449 0.73539 0.52111 0.0
H1253 H 0.19958 0.77206 0.51681 0.0
C1254 C 0.30253 0.66192 0.51858 0.0
C1255 C 0.26713 0.77578 0.5202 0.0
C1256 C 0.26693 0.85504 0.52358 0.0
C1257 C 0.2635 0.62749 0.51548 0.0
C1258 C 0.22608 0.66805 0.5151 0.0
C1259 C 0.22855 0.74137 0.51694 0.0
C1260 C 0.18325 0.63741 0.51512 0.0
C1261 C 0.26245 0.54836 0.513 0.0
C1262 C 0.15265 0.65375 0.50492 0.0
C1263 C 0.10989 0.63807 0.5069 0.0
C1264 C 0.09729 0.60568 0.5191 0.0
C1265 C 0.12827 0.5877 0.52905 0.0
C1266 C 0.17089 0.60371 0.5271 0.0
H1267 H 0.29327 0.52649 0.50853 0.0
H1268 H 0.25692 0.52873 0.52372 0.0
H1269 H 0.23646 0.52848 0.50529 0.0
H1270 H 0.16168 0.68109 0.49577 0.0
H1271 H 0.08677 0.65227 0.49901 0.0
H1272 H 0.89759 0.41417 0.51955 0.0
H1273 H 0.8488 0.32439 0.50849 0.0
H1274 H 0.8512 0.22713 0.54836 0.0
H1275 H 0.90333 0.31448 0.55923 0.0
H1276 H 0.83325 0.13207 0.52059 0.0
H1277 H 0.73433 0.3746 0.52966 0.0
H1278 H 0.77937 0.37929 0.51776 0.0
H1279 H 0.7875 0.37104 0.53695 0.0
C1280 C 0.88928 0.37226 0.5258 0.0
C1281 C 0.90352 0.3721 0.54039 0.0
C1282 C 0.86149 0.32078 0.5194 0.0
C1283 C 0.8459 0.27061 0.52777 0.0
C1284 C 0.863 0.26596 0.5418 0.0
H1285 H 0.62023 0.0549 0.5388 0.0
H1286 H 0.69463 0.08688 0.53639 0.0
C1287 C 0.89219 0.31629 0.54805 0.0
C1288 C 0.80551 0.23546 0.52339 0.0
H1289 H 0.70007 0.27085 0.52004 0.0
C1290 C 0.80409 0.16208 0.52029 0.0
C1291 C 0.76772 0.27536 0.52315 0.0
C1292 C 0.76703 0.35433 0.52718 0.0
C1293 C 0.76522 0.12725 0.5171 0.0
C1294 C 0.72746 0.16729 0.51717 0.0
C1295 C 0.72931 0.24062 0.51979 0.0
C1296 C 0.68488 0.13555 0.51662 0.0
C1297 C 0.76471 0.04822 0.51392 0.0
C1298 C 0.65479 0.15346 0.5064 0.0
C1299 C 0.612 0.13678 0.50794 0.0
C1300 C 0.59885 0.10187 0.51971 0.0
C1301 C 0.62937 0.08206 0.52964 0.0
C1302 C 0.67204 0.09904 0.52812 0.0
H1303 H 0.79586 0.02754 0.50951 0.0
H1304 H 0.75853 0.02622 0.52434 0.0
H1305 H 0.73925 0.02949 0.50588 0.0
H1306 H 0.66421 0.18288 0.49762 0.0
H1307 H 0.58924 0.15237 0.50008 0.0
H1308 H 0.85602 0.07715 0.81057 0.0
H1309 H 0.91073 0.9935 0.80025 0.0
H1310 H 0.89193 0.05757 0.75722 0.0
H1311 H 0.83951 0.1435 0.76758 0.0
H1312 H 0.92181 0.88276 0.77474 0.0
H1313 H 0.0114 0.13053 0.77104 0.0
H1314 H 0.96204 0.12938 0.78105 0.0
H1315 H 0.96173 0.12063 0.76121 0.0
C1316 C 0.86307 0.07218 0.79886 0.0
C1317 C 0.84457 0.11773 0.78992 0.0
C1318 C 0.89394 0.02424 0.79297 0.0
C1319 C 0.90556 0.02066 0.77806 0.0
C1320 C 0.88355 0.06048 0.76879 0.0
H1321 H 0.16108 0.89814 0.74795 0.0
H1322 H 0.08563 0.92732 0.74604 0.0
C1323 C 0.85379 0.1097 0.77475 0.0
C1324 C 0.94561 0.98641 0.77299 0.0
H1325 H 0.04815 0.02542 0.76517 0.0
C1326 C 0.94939 0.9135 0.77242 0.0
C1327 C 0.98126 0.02721 0.76996 0.0
C1328 C 0.97923 0.1063 0.77093 0.0
C1329 C 0.9887 0.88031 0.76931 0.0
C1330 C 0.02475 0.92168 0.76703 0.0
C1331 C 0.02029 0.99398 0.76684 0.0
C1332 C 0.06836 0.8939 0.76695 0.0
C1333 C 0.99147 0.80172 0.76884 0.0
C1334 C 0.08344 0.86639 0.77941 0.0
C1335 C 0.12631 0.85 0.78057 0.0
C1336 C 0.15495 0.86166 0.76934 0.0
C1337 C 0.13977 0.88887 0.7568 0.0
C1338 C 0.0967 0.90484 0.75561 0.0
H1339 H 0.96066 0.77615 0.76533 0.0
H1340 H 0.01687 0.77909 0.76119 0.0
H1341 H -0.00119 0.78915 0.78007 0.0
H1342 H 0.06237 0.86003 0.78852 0.0
H1343 H 0.13707 0.82928 0.7904 0.0
H1344 H 0.68693 0.39659 0.80477 0.0
H1345 H 0.63766 0.48445 0.81648 0.0
H1346 H 0.6132 0.55404 0.77432 0.0
H1347 H 0.66412 0.4674 0.76248 0.0
H1348 H 0.61101 0.66328 0.80394 0.0
H1349 H 0.51306 0.4189 0.80097 0.0
H1350 H 0.56491 0.41979 0.80939 0.0
H1351 H 0.56033 0.42285 0.78991 0.0
C1352 C 0.67214 0.4319 0.79803 0.0
C1353 C 0.67851 0.42426 0.78266 0.0
C1354 C 0.64434 0.48245 0.80479 0.0
C1355 C 0.62187 0.52483 0.7962 0.0
C1356 C 0.63068 0.52156 0.78106 0.0
H1357 H 0.40563 0.74904 0.78572 0.0
H1358 H 0.47826 0.71378 0.78981 0.0
C1359 C 0.65935 0.47183 0.77432 0.0
C1360 C 0.5831 0.56012 0.80216 0.0
H1361 H 0.4786 0.52532 0.80758 0.0
C1362 C 0.58209 0.63348 0.80502 0.0
C1363 C 0.54591 0.52047 0.80377 0.0
C1364 C 0.54571 0.44115 0.80082 0.0
C1365 C 0.54374 0.6687 0.80875 0.0
C1366 C 0.5058 0.6291 0.80912 0.0
C1367 C 0.5077 0.5556 0.8073 0.0
C1368 C 0.46326 0.66102 0.80868 0.0
C1369 C 0.54411 0.74777 0.81184 0.0
C1370 C 0.43033 0.64143 0.81768 0.0
C1371 C 0.38826 0.65936 0.81501 0.0
C1372 C 0.37869 0.69808 0.80344 0.0
C1373 C 0.41193 0.71944 0.79477 0.0
C1374 C 0.45372 0.70054 0.79729 0.0
H1375 H 0.57428 0.76684 0.81738 0.0
H1376 H 0.54232 0.76976 0.80123 0.0
H1377 H 0.51689 0.76812 0.81891 0.0
H1378 H 0.43699 0.60974 0.82637 0.0
H1379 H 0.36332 0.64158 0.82179 0.0
H1380 H 0.68166 0.87659 0.30307 0.0
H1381 H 0.63185 0.96262 0.31499 0.0
H1382 H 0.61133 0.04168 0.27357 0.0
H1383 H 0.66289 0.95671 0.2615 0.0
H1384 H 0.60671 0.14404 0.30513 0.0
H1385 H 0.50847 0.89933 0.29632 0.0
H1386 H 0.55979 0.89652 0.30502 0.0
H1387 H 0.55647 0.90824 0.2859 0.0
C1388 C 0.66775 0.91366 0.29655 0.0
C1389 C 0.67535 0.909 0.28127 0.0
C1390 C 0.63962 0.96319 0.30345 0.0
C1391 C 0.61803 1.00764 0.2951 0.0
C1392 C 0.62815 1.00758 0.28014 0.0
H1393 H 0.4039 0.23968 0.28661 0.0
H1394 H 0.47574 0.20129 0.29073 0.0
C1395 C 0.65715 0.95875 0.27325 0.0
C1396 C 0.57862 0.04106 0.30094 0.0
H1397 H 0.47358 1.00396 0.30447 0.0
C1398 C 0.57758 0.1137 0.30524 0.0
C1399 C 0.5412 1.0005 0.30132 0.0
C1400 C 0.54114 0.92183 0.29687 0.0
C1401 C 0.53901 0.14767 0.30923 0.0
C1402 C 0.50094 0.10773 0.30841 0.0
C1403 C 0.50278 0.03447 0.30511 0.0
C1404 C 0.45859 0.14037 0.30814 0.0
C1405 C 0.5393 0.22598 0.31389 0.0
C1406 C 0.42469 0.11718 0.31626 0.0
C1407 C 0.383 0.13721 0.31356 0.0
C1408 C 0.37484 0.1814 0.30283 0.0
C1409 C 0.40905 0.20587 0.29502 0.0
C1410 C 0.45041 0.18512 0.29757 0.0
H1411 H 0.56902 0.24253 0.32003 0.0
H1412 H 0.5385 0.25307 0.30391 0.0
H1413 H 0.51152 0.24336 0.32096 0.0
H1414 H 0.43033 0.08139 0.32426 0.0
H1415 H 0.35727 0.11691 0.31963 0.0
loop_
_geom_bond_atom_site_label_1
_geom_bond_atom_site_label_2
_geom_bond_distance
_geom_bond_site_symmetry_2
_ccdc_geom_bond_type
Co0 O3 2.044 1_455 S
Co0 O10 2.264 1_455 S
Co0 O29 2.286 . S
Co0 O30 2.069 1_545 S
Co0 O32 2.015 . S
Co1 O3 2.128 . S
Co1 O9 2.073 . S
Co1 O10 2.327 . S
Co1 O11 1.976 . S
Co2 O3 2.087 1_454 S
Co2 O5 2.087 . S
Co2 O12 2.120 1_455 S
Co2 O13 2.140 1_445 S
Co2 O17 2.103 1_544 S
Co2 O31 2.147 . S
O3 Co0 2.044 1_655 S
O3 Co1 2.128 . S
O3 Co2 2.087 1_656 S
O3 H4 0.973 1_545 S
H4 O3 0.973 1_565 S
O5 Co2 2.087 . S
O5 Co6 2.040 1_445 S
O5 Co7 2.115 1_545 S
O5 H8 0.988 . S
Co6 O5 2.040 1_665 S
Co6 O14 2.286 . S
Co6 O15 2.069 1_565 S
Co6 O16 2.015 . S
Co6 O19 2.264 1_655 S
Co7 O5 2.115 1_565 S
Co7 O18 1.976 . S
Co7 O19 2.327 . S
Co7 O20 2.073 . S
H8 O5 0.988 . S
O9 Co1 2.073 . S
O9 C24 1.245 . S
O10 Co0 2.264 1_655 S
O10 Co1 2.327 . S
O10 C24 1.257 . S
O11 Co1 1.976 . S
O11 C23 1.251 1_556 S
O12 Co2 2.120 1_655 S
O12 C23 1.274 . S
O13 Co2 2.140 1_665 S
O13 C26 1.246 . S
O14 Co6 2.286 . S
O14 C25 1.259 1_565 S
O15 Co6 2.069 1_545 S
O15 C25 1.289 . S
O16 Co6 2.015 . S
O16 C26 1.257 . S
O17 Co2 2.103 1_566 S
O17 C27 1.274 1_556 S
O18 Co7 1.976 . S
O18 C27 1.251 . S
O19 Co6 2.264 1_455 S
O19 Co7 2.327 . S
O19 C28 1.257 . S
O20 Co7 2.073 . S
O20 C28 1.245 . S
C21 O29 1.259 1_565 S
C21 O30 1.289 . S
C22 O31 1.246 1_556 S
C22 O32 1.257 . S
C23 O11 1.251 1_554 S
C23 O12 1.274 . S
C24 O9 1.245 . S
C24 O10 1.257 . S
C25 O14 1.259 1_545 S
C25 O15 1.289 . S
C26 O13 1.246 . S
C26 O16 1.257 . S
C27 O17 1.274 1_554 S
C27 O18 1.251 . S
C28 O19 1.257 . S
C28 O20 1.245 . S
O29 Co0 2.286 . S
O29 C21 1.259 1_545 S
O30 Co0 2.069 1_565 S
O30 C21 1.289 . S
O31 Co2 2.147 . S
O31 C22 1.246 1_554 S
O32 Co0 2.015 . S
O32 C22 1.257 . S
Co33 O36 2.042 . S
Co33 O43 2.264 . S
Co33 O62 2.286 . S
Co33 O63 2.069 . S
Co33 O65 2.015 . S
Co34 O36 2.122 . S
Co34 O42 2.073 . S
Co34 O43 2.327 . S
Co34 O44 1.976 . S
Co35 O36 2.087 . S
Co35 O38 2.087 . S
Co35 O45 2.111 . S
Co35 O46 2.143 . S
Co35 O50 2.111 . S
Co35 O64 2.143 . S
O36 Co33 2.042 . S
O36 Co34 2.122 . S
O36 Co35 2.087 . S
O36 H37 0.980 . S
H37 O36 0.980 . S
O38 Co35 2.087 . S
O38 Co39 2.042 . S
O38 Co40 2.122 . S
O38 H41 0.980 . S
Co39 O38 2.042 . S
Co39 O47 2.286 . S
Co39 O48 2.069 . S
Co39 O49 2.015 . S
Co39 O52 2.264 . S
Co40 O38 2.122 . S
Co40 O51 1.976 . S
Co40 O52 2.327 . S
Co40 O53 2.073 . S
H41 O38 0.980 . S
O42 Co34 2.073 . S
O42 C57 1.245 . S
O43 Co33 2.264 . S
O43 Co34 2.327 . S
O43 C57 1.257 . S
O44 Co34 1.976 . S
O44 C56 1.251 . S
O45 Co35 2.111 . S
O45 C56 1.274 . S
O46 Co35 2.143 . S
O46 C59 1.246 . S
O47 Co39 2.286 . S
O47 C58 1.259 . S
O48 Co39 2.069 . S
O48 C58 1.289 . S
O49 Co39 2.015 . S
O49 C59 1.257 . S
O50 Co35 2.111 . S
O50 C60 1.274 . S
O51 Co40 1.976 . S
O51 C60 1.251 . S
O52 Co39 2.264 . S
O52 Co40 2.327 . S
O52 C61 1.257 . S
O53 Co40 2.073 . S
O53 C61 1.245 . S
C54 O62 1.259 . S
C54 O63 1.289 . S
C55 O64 1.246 . S
C55 O65 1.257 . S
C56 O44 1.251 . S
C56 O45 1.274 . S
C57 O42 1.245 . S
C57 O43 1.257 . S
C58 O47 1.259 . S
C58 O48 1.289 . S
C59 O46 1.246 . S
C59 O49 1.257 . S
C60 O50 1.274 . S
C60 O51 1.251 . S
C61 O52 1.257 . S
C61 O53 1.245 . S
O62 Co33 2.286 . S
O62 C54 1.259 . S
O63 Co33 2.069 . S
O63 C54 1.289 . S
O64 Co35 2.143 . S
O64 C55 1.246 . S
O65 Co33 2.015 . S
O65 C55 1.257 . S
Co66 O69 2.042 . S
Co66 O76 2.264 . S
Co66 O95 2.286 . S
Co66 O96 2.069 . S
Co66 O98 2.015 . S
Co67 O69 2.122 . S
Co67 O75 2.073 . S
Co67 O76 2.327 . S
Co67 O77 1.976 . S
Co68 O69 2.087 . S
Co68 O71 2.087 . S
Co68 O78 2.111 . S
Co68 O79 2.143 . S
Co68 O83 2.111 . S
Co68 O97 2.143 . S
O69 Co66 2.042 . S
O69 Co67 2.122 . S
O69 Co68 2.087 . S
O69 H70 0.980 . S
H70 O69 0.980 . S
O71 Co68 2.087 . S
O71 Co72 2.042 . S
O71 Co73 2.122 . S
O71 H74 0.980 . S
Co72 O71 2.042 . S
Co72 O80 2.286 . S
Co72 O81 2.069 . S
Co72 O82 2.015 . S
Co72 O85 2.264 . S
Co73 O71 2.122 . S
Co73 O84 1.976 . S
Co73 O85 2.327 . S
Co73 O86 2.073 . S
H74 O71 0.980 . S
O75 Co67 2.073 . S
O75 C90 1.245 . S
O76 Co66 2.264 . S
O76 Co67 2.327 . S
O76 C90 1.257 . S
O77 Co67 1.976 . S
O77 C89 1.251 . S
O78 Co68 2.111 . S
O78 C89 1.274 . S
O79 Co68 2.143 . S
O79 C92 1.246 . S
O80 Co72 2.286 . S
O80 C91 1.259 . S
O81 Co72 2.069 . S
O81 C91 1.289 . S
O82 Co72 2.015 . S
O82 C92 1.257 . S
O83 Co68 2.111 . S
O83 C93 1.274 . S
O84 Co73 1.976 . S
O84 C93 1.251 . S
O85 Co72 2.264 . S
O85 Co73 2.327 . S
O85 C94 1.257 . S
O86 Co73 2.073 . S
O86 C94 1.245 . S
C87 O95 1.259 . S
C87 O96 1.289 . S
C88 O97 1.246 . S
C88 O98 1.257 . S
C89 O77 1.251 . S
C89 O78 1.274 . S
C90 O75 1.245 . S
C90 O76 1.257 . S
C91 O80 1.259 . S
C91 O81 1.289 . S
C92 O79 1.246 . S
C92 O82 1.257 . S
C93 O83 1.274 . S
C93 O84 1.251 . S
C94 O85 1.257 . S
C94 O86 1.245 . S
O95 Co66 2.286 . S
O95 C87 1.259 . S
O96 Co66 2.069 . S
O96 C87 1.289 . S
O97 Co68 2.143 . S
O97 C88 1.246 . S
O98 Co66 2.015 . S
O98 C88 1.257 . S
Co99 O102 2.042 1_455 S
Co99 O109 2.264 1_455 S
Co99 O128 2.286 . S
Co99 O129 2.069 . S
Co99 O131 2.015 . S
Co100 O102 2.122 . S
Co100 O108 2.073 . S
Co100 O109 2.327 . S
Co100 O110 1.976 . S
Co101 O102 2.087 1_455 S
Co101 O104 2.087 . S
Co101 O111 2.111 1_455 S
Co101 O112 2.143 1_455 S
Co101 O116 2.111 . S
Co101 O130 2.143 . S
O102 Co99 2.042 1_655 S
O102 Co100 2.122 . S
O102 Co101 2.087 1_655 S
O102 H103 0.980 . S
H103 O102 0.980 . S
O104 Co101 2.087 . S
O104 Co105 2.042 1_455 S
O104 Co106 2.122 . S
O104 H107 0.980 . S
Co105 O104 2.042 1_655 S
Co105 O113 2.286 . S
Co105 O114 2.069 . S
Co105 O115 2.015 . S
Co105 O118 2.264 1_655 S
Co106 O104 2.122 . S
Co106 O117 1.976 . S
Co106 O118 2.327 . S
Co106 O119 2.073 . S
H107 O104 0.980 . S
O108 Co100 2.073 . S
O108 C123 1.245 . S
O109 Co99 2.264 1_655 S
O109 Co100 2.327 . S
O109 C123 1.257 . S
O110 Co100 1.976 . S
O110 C122 1.251 . S
O111 Co101 2.111 1_655 S
O111 C122 1.274 . S
O112 Co101 2.143 1_655 S
O112 C125 1.246 . S
O113 Co105 2.286 . S
O113 C124 1.259 . S
O114 Co105 2.069 . S
O114 C124 1.289 . S
O115 Co105 2.015 . S
O115 C125 1.257 . S
O116 Co101 2.111 . S
O116 C126 1.274 . S
O117 Co106 1.976 . S
O117 C126 1.251 . S
O118 Co105 2.264 1_455 S
O118 Co106 2.327 . S
O118 C127 1.257 . S
O119 Co106 2.073 . S
O119 C127 1.245 . S
C120 O128 1.259 . S
C120 O129 1.289 . S
C121 O130 1.246 . S
C121 O131 1.257 . S
C122 O110 1.251 . S
C122 O111 1.274 . S
C123 O108 1.245 . S
C123 O109 1.257 . S
C124 O113 1.259 . S
C124 O114 1.289 . S
C125 O112 1.246 . S
C125 O115 1.257 . S
C126 O116 1.274 . S
C126 O117 1.251 . S
C127 O118 1.257 . S
C127 O119 1.245 . S
O128 Co99 2.286 . S
O128 C120 1.259 . S
O129 Co99 2.069 . S
O129 C120 1.289 . S
O130 Co101 2.143 . S
O130 C121 1.246 . S
O131 Co99 2.015 . S
O131 C121 1.257 . S
Co132 O135 2.042 . S
Co132 O142 2.264 . S
Co132 O161 2.286 . S
Co132 O162 2.069 . S
Co132 O164 2.015 . S
Co133 O135 2.122 . S
Co133 O141 2.073 . S
Co133 O142 2.327 . S
Co133 O143 1.976 . S
Co134 O135 2.087 . S
Co134 O137 2.087 . S
Co134 O144 2.111 . S
Co134 O145 2.143 . S
Co134 O149 2.111 . S
Co134 O163 2.143 . S
O135 Co132 2.042 . S
O135 Co133 2.122 . S
O135 Co134 2.087 . S
O135 H136 0.980 . S
H136 O135 0.980 . S
O137 Co134 2.087 . S
O137 Co138 2.042 . S
O137 Co139 2.122 . S
O137 H140 0.980 . S
Co138 O137 2.042 . S
Co138 O146 2.286 . S
Co138 O147 2.069 . S
Co138 O148 2.015 . S
Co138 O151 2.264 . S
Co139 O137 2.122 . S
Co139 O150 1.976 . S
Co139 O151 2.327 . S
Co139 O152 2.073 . S
H140 O137 0.980 . S
O141 Co133 2.073 . S
O141 C156 1.245 . S
O142 Co132 2.264 . S
O142 Co133 2.327 . S
O142 C156 1.257 . S
O143 Co133 1.976 . S
O143 C155 1.251 . S
O144 Co134 2.111 . S
O144 C155 1.274 . S
O145 Co134 2.143 . S
O145 C158 1.246 . S
O146 Co138 2.286 . S
O146 C157 1.259 . S
O147 Co138 2.069 . S
O147 C157 1.289 . S
O148 Co138 2.015 . S
O148 C158 1.257 . S
O149 Co134 2.111 . S
O149 C159 1.274 . S
O150 Co139 1.976 . S
O150 C159 1.251 . S
O151 Co138 2.264 . S
O151 Co139 2.327 . S
O151 C160 1.257 . S
O152 Co139 2.073 . S
O152 C160 1.245 . S
C153 O161 1.259 . S
C153 O162 1.289 . S
C154 O163 1.246 . S
C154 O164 1.257 . S
C155 O143 1.251 . S
C155 O144 1.274 . S
C156 O141 1.245 . S
C156 O142 1.257 . S
C157 O146 1.259 . S
C157 O147 1.289 . S
C158 O145 1.246 . S
C158 O148 1.257 . S
C159 O149 1.274 . S
C159 O150 1.251 . S
C160 O151 1.257 . S
C160 O152 1.245 . S
O161 Co132 2.286 . S
O161 C153 1.259 . S
O162 Co132 2.069 . S
O162 C153 1.289 . S
O163 Co134 2.143 . S
O163 C154 1.246 . S
O164 Co132 2.015 . S
O164 C154 1.257 . S
Co165 O168 2.042 . S
Co165 O175 2.264 . S
Co165 O194 2.286 . S
Co165 O195 2.069 . S
Co165 O197 2.015 . S
Co166 O168 2.122 . S
Co166 O174 2.073 . S
Co166 O175 2.327 . S
Co166 O176 1.976 . S
Co167 O168 2.087 . S
Co167 O170 2.087 . S
Co167 O177 2.111 . S
Co167 O178 2.143 . S
Co167 O182 2.111 . S
Co167 O196 2.143 . S
O168 Co165 2.042 . S
O168 Co166 2.122 . S
O168 Co167 2.087 . S
O168 H169 0.980 . S
H169 O168 0.980 . S
O170 Co167 2.087 . S
O170 Co171 2.042 . S
O170 Co172 2.122 . S
O170 H173 0.980 . S
Co171 O170 2.042 . S
Co171 O179 2.286 . S
Co171 O180 2.069 . S
Co171 O181 2.015 . S
Co171 O184 2.264 . S
Co172 O170 2.122 . S
Co172 O183 1.976 . S
Co172 O184 2.327 . S
Co172 O185 2.073 . S
H173 O170 0.980 . S
O174 Co166 2.073 . S
O174 C189 1.245 . S
O175 Co165 2.264 . S
O175 Co166 2.327 . S
O175 C189 1.257 . S
O176 Co166 1.976 . S
O176 C188 1.251 . S
O177 Co167 2.111 . S
O177 C188 1.274 . S
O178 Co167 2.143 . S
O178 C191 1.246 . S
O179 Co171 2.286 . S
O179 C190 1.259 . S
O180 Co171 2.069 . S
O180 C190 1.289 . S
O181 Co171 2.015 . S
O181 C191 1.257 . S
O182 Co167 2.111 . S
O182 C192 1.274 . S
O183 Co172 1.976 . S
O183 C192 1.251 . S
O184 Co171 2.264 . S
O184 Co172 2.327 . S
O184 C193 1.257 . S
O185 Co172 2.073 . S
O185 C193 1.245 . S
C186 O194 1.259 . S
C186 O195 1.289 . S
C187 O196 1.246 . S
C187 O197 1.257 . S
C188 O176 1.251 . S
C188 O177 1.274 . S
C189 O174 1.245 . S
C189 O175 1.257 . S
C190 O179 1.259 . S
C190 O180 1.289 . S
C191 O178 1.246 . S
C191 O181 1.257 . S
C192 O182 1.274 . S
C192 O183 1.251 . S
C193 O184 1.257 . S
C193 O185 1.245 . S
O194 Co165 2.286 . S
O194 C186 1.259 . S
O195 Co165 2.069 . S
O195 C186 1.289 . S
O196 Co167 2.143 . S
O196 C187 1.246 . S
O197 Co165 2.015 . S
O197 C187 1.257 . S
Co198 O201 2.045 . S
Co198 O208 2.264 . S
Co198 O227 2.286 . S
Co198 O228 2.069 1_545 S
Co198 O230 2.015 . S
Co199 O201 2.130 . S
Co199 O207 2.073 . S
Co199 O208 2.327 . S
Co199 O209 1.976 . S
Co200 O201 2.087 . S
Co200 O203 2.087 . S
Co200 O210 2.122 . S
Co200 O211 2.139 1_545 S
Co200 O215 2.100 1_545 S
Co200 O229 2.148 . S
O201 Co198 2.045 . S
O201 Co199 2.130 . S
O201 Co200 2.087 . S
O201 H202 0.971 1_545 S
H202 O201 0.971 1_565 S
O203 Co200 2.087 . S
O203 Co204 2.039 1_545 S
O203 Co205 2.113 1_545 S
O203 H206 0.991 . S
Co204 O203 2.039 1_565 S
Co204 O212 2.286 . S
Co204 O213 2.069 1_565 S
Co204 O214 2.015 . S
Co204 O217 2.264 . S
Co205 O203 2.113 1_565 S
Co205 O216 1.976 . S
Co205 O217 2.327 . S
Co205 O218 2.073 . S
H206 O203 0.991 . S
O207 Co199 2.073 . S
O207 C222 1.245 . S
O208 Co198 2.264 . S
O208 Co199 2.327 . S
O208 C222 1.257 . S
O209 Co199 1.976 . S
O209 C221 1.251 . S
O210 Co200 2.122 . S
O210 C221 1.274 . S
O211 Co200 2.139 1_565 S
O211 C224 1.246 . S
O212 Co204 2.286 . S
O212 C223 1.259 1_565 S
O213 Co204 2.069 1_545 S
O213 C223 1.289 . S
O214 Co204 2.015 . S
O214 C224 1.257 . S
O215 Co200 2.100 1_565 S
O215 C225 1.274 . S
O216 Co205 1.976 . S
O216 C225 1.251 . S
O217 Co204 2.264 . S
O217 Co205 2.327 . S
O217 C226 1.257 . S
O218 Co205 2.073 . S
O218 C226 1.245 . S
C219 O227 1.259 1_565 S
C219 O228 1.289 . S
C220 O229 1.246 . S
C220 O230 1.257 . S
C221 O209 1.251 . S
C221 O210 1.274 . S
C222 O207 1.245 . S
C222 O208 1.257 . S
C223 O212 1.259 1_545 S
C223 O213 1.289 . S
C224 O211 1.246 . S
C224 O214 1.257 . S
C225 O215 1.274 . S
C225 O216 1.251 . S
C226 O217 1.257 . S
C226 O218 1.245 . S
O227 Co198 2.286 . S
O227 C219 1.259 1_545 S
O228 Co198 2.069 1_565 S
O228 C219 1.289 . S
O229 Co200 2.148 . S
O229 C220 1.246 . S
O230 Co198 2.015 . S
O230 C220 1.257 . S
Co231 O234 2.042 . S
Co231 O241 2.264 . S
Co231 O260 2.286 . S
Co231 O261 2.069 . S
Co231 O263 2.015 . S
Co232 O234 2.122 . S
Co232 O240 2.073 . S
Co232 O241 2.327 . S
Co232 O242 1.976 . S
Co233 O234 2.087 1_554 S
Co233 O236 2.087 . S
Co233 O243 2.111 . S
Co233 O244 2.143 . S
Co233 O248 2.111 1_554 S
Co233 O262 2.143 . S
O234 Co231 2.042 . S
O234 Co232 2.122 . S
O234 Co233 2.087 1_556 S
O234 H235 0.980 . S
H235 O234 0.980 . S
O236 Co233 2.087 . S
O236 Co237 2.042 . S
O236 Co238 2.122 . S
O236 H239 0.980 . S
Co237 O236 2.042 . S
Co237 O245 2.286 . S
Co237 O246 2.069 . S
Co237 O247 2.015 . S
Co237 O250 2.264 . S
Co238 O236 2.122 . S
Co238 O249 1.976 . S
Co238 O250 2.327 . S
Co238 O251 2.073 . S
H239 O236 0.980 . S
O240 Co232 2.073 . S
O240 C255 1.245 . S
O241 Co231 2.264 . S
O241 Co232 2.327 . S
O241 C255 1.257 . S
O242 Co232 1.976 . S
O242 C254 1.251 1_556 S
O243 Co233 2.111 . S
O243 C254 1.274 . S
O244 Co233 2.143 . S
O244 C257 1.246 . S
O245 Co237 2.286 . S
O245 C256 1.259 . S
O246 Co237 2.069 . S
O246 C256 1.289 . S
O247 Co237 2.015 . S
O247 C257 1.257 . S
O248 Co233 2.111 1_556 S
O248 C258 1.274 1_556 S
O249 Co238 1.976 . S
O249 C258 1.251 . S
O250 Co237 2.264 . S
O250 Co238 2.327 . S
O250 C259 1.257 . S
O251 Co238 2.073 . S
O251 C259 1.245 . S
C252 O260 1.259 . S
C252 O261 1.289 . S
C253 O262 1.246 1_556 S
C253 O263 1.257 . S
C254 O242 1.251 1_554 S
C254 O243 1.274 . S
C255 O240 1.245 . S
C255 O241 1.257 . S
C256 O245 1.259 . S
C256 O246 1.289 . S
C257 O244 1.246 . S
C257 O247 1.257 . S
C258 O248 1.274 1_554 S
C258 O249 1.251 . S
C259 O250 1.257 . S
C259 O251 1.245 . S
O260 Co231 2.286 . S
O260 C252 1.259 . S
O261 Co231 2.069 . S
O261 C252 1.289 . S
O262 Co233 2.143 . S
O262 C253 1.246 1_554 S
O263 Co231 2.015 . S
O263 C253 1.257 . S
H264 C272 0.929 . S
H265 C274 0.930 . S
H266 C276 0.930 . S
H267 C279 0.929 . S
H268 C282 0.930 1_565 S
H269 C284 0.960 . S
H270 C284 0.960 . S
H271 C284 0.960 . S
C272 H264 0.929 . S
C272 C273 1.377 . S
C272 C274 1.384 . S
C273 C272 1.377 . S
C273 C279 1.390 1_565 S
C274 H265 0.930 . S
C274 C272 1.384 . S
C274 C275 1.372 1_565 S
C275 C274 1.372 1_545 S
C275 C276 1.400 . S
C275 C280 1.490 . S
C276 H266 0.930 . S
C276 C275 1.400 . S
C276 C279 1.386 . S
H277 C293 0.930 . S
H278 C294 0.931 . S
C279 H267 0.929 . S
C279 C273 1.390 1_545 S
C279 C276 1.386 . S
C280 C275 1.490 . S
C280 C282 1.395 . S
C280 C283 1.403 . S
H281 C287 0.930 . S
C282 H268 0.930 1_545 S
C282 C280 1.395 . S
C282 C285 1.403 . S
C283 C280 1.403 . S
C283 C284 1.524 . S
C283 C287 1.400 . S
C284 H269 0.960 . S
C284 H270 0.960 . S
C284 H271 0.960 . S
C284 C283 1.524 . S
C285 C282 1.403 . S
C285 C286 1.392 . S
C285 C289 1.495 1_545 S
C286 C285 1.392 . S
C286 C287 1.385 . S
C286 C288 1.478 . S
C287 H281 0.930 . S
C287 C283 1.400 . S
C287 C286 1.385 . S
C288 C286 1.478 . S
C288 C290 1.381 . S
C288 C294 1.383 . S
C289 C285 1.495 1_565 S
C289 H295 0.959 . S
C289 H296 0.961 1_565 S
C289 H297 0.960 . S
C290 C288 1.381 . S
C290 C291 1.394 . S
C290 H298 0.930 . S
C291 C290 1.394 . S
C291 C292 1.383 . S
C291 H299 0.929 . S
C292 C291 1.383 . S
C292 C293 1.377 . S
C293 H277 0.930 . S
C293 C292 1.377 . S
C293 C294 1.379 . S
C294 H278 0.931 . S
C294 C288 1.383 . S
C294 C293 1.379 . S
H295 C289 0.959 . S
H296 C289 0.961 1_545 S
H297 C289 0.960 . S
H298 C290 0.930 . S
H299 C291 0.929 . S
H300 C308 0.929 . S
H301 C310 0.930 . S
H302 C312 0.930 . S
H303 C315 0.929 . S
H304 C318 0.930 . S
H305 C320 0.960 . S
H306 C320 0.960 . S
H307 C320 0.960 . S
C308 H300 0.929 . S
C308 C309 1.377 1_565 S
C308 C310 1.384 . S
C309 C308 1.377 1_545 S
C309 C315 1.390 . S
C310 H301 0.930 . S
C310 C308 1.384 . S
C310 C311 1.372 . S
C311 C310 1.372 . S
C311 C312 1.400 1_565 S
C311 C316 1.490 . S
C312 H302 0.930 . S
C312 C311 1.400 1_545 S
C312 C315 1.386 . S
H313 C329 0.930 . S
H314 C330 0.931 . S
C315 H303 0.929 . S
C315 C309 1.390 . S
C315 C312 1.386 . S
C316 C311 1.490 . S
C316 C318 1.395 . S
C316 C319 1.403 . S
H317 C323 0.930 . S
C318 H304 0.930 . S
C318 C316 1.395 . S
C318 C321 1.403 . S
C319 C316 1.403 . S
C319 C320 1.524 1_565 S
C319 C323 1.400 . S
C320 H305 0.960 . S
C320 H306 0.960 . S
C320 H307 0.960 . S
C320 C319 1.524 1_545 S
C321 C318 1.403 . S
C321 C322 1.392 . S
C321 C325 1.495 . S
C322 C321 1.392 . S
C322 C323 1.385 . S
C322 C324 1.478 . S
C323 H317 0.930 . S
C323 C319 1.400 . S
C323 C322 1.385 . S
C324 C322 1.478 . S
C324 C326 1.381 . S
C324 C330 1.383 . S
C325 C321 1.495 . S
C325 H331 0.959 . S
C325 H332 0.961 . S
C325 H333 0.960 . S
C326 C324 1.381 . S
C326 C327 1.394 . S
C326 H334 0.930 . S
C327 C326 1.394 . S
C327 C328 1.383 . S
C327 H335 0.929 . S
C328 C327 1.383 . S
C328 C329 1.377 . S
C329 H313 0.930 . S
C329 C328 1.377 . S
C329 C330 1.379 . S
C330 H314 0.931 . S
C330 C324 1.383 . S
C330 C329 1.379 . S
H331 C325 0.959 . S
H332 C325 0.961 . S
H333 C325 0.960 . S
H334 C326 0.930 . S
H335 C327 0.929 . S
H336 C344 0.929 . S
H337 C346 0.930 . S
H338 C348 0.930 . S
H339 C351 0.929 . S
H340 C354 0.930 . S
H341 C356 0.960 . S
H342 C356 0.960 . S
H343 C356 0.960 . S
C344 H336 0.929 . S
C344 C345 1.377 . S
C344 C346 1.384 . S
C345 C344 1.377 . S
C345 C351 1.390 . S
C346 H337 0.930 . S
C346 C344 1.384 . S
C346 C347 1.372 . S
C347 C346 1.372 . S
C347 C348 1.400 . S
C347 C352 1.490 . S
C348 H338 0.930 . S
C348 C347 1.400 . S
C348 C351 1.386 . S
H349 C365 0.930 . S
H350 C366 0.931 . S
C351 H339 0.929 . S
C351 C345 1.390 . S
C351 C348 1.386 . S
C352 C347 1.490 . S
C352 C354 1.395 . S
C352 C355 1.403 . S
H353 C359 0.930 . S
C354 H340 0.930 . S
C354 C352 1.395 . S
C354 C357 1.403 . S
C355 C352 1.403 . S
C355 C356 1.524 . S
C355 C359 1.400 . S
C356 H341 0.960 . S
C356 H342 0.960 . S
C356 H343 0.960 . S
C356 C355 1.524 . S
C357 C354 1.403 . S
C357 C358 1.392 . S
C357 C361 1.495 . S
C358 C357 1.392 . S
C358 C359 1.385 . S
C358 C360 1.478 . S
C359 H353 0.930 . S
C359 C355 1.400 . S
C359 C358 1.385 . S
C360 C358 1.478 . S
C360 C362 1.381 . S
C360 C366 1.383 . S
C361 C357 1.495 . S
C361 H367 0.959 . S
C361 H368 0.961 . S
C361 H369 0.960 . S
C362 C360 1.381 . S
C362 C363 1.394 . S
C362 H370 0.930 . S
C363 C362 1.394 . S
C363 C364 1.383 . S
C363 H371 0.929 . S
C364 C363 1.383 . S
C364 C365 1.377 . S
C365 H349 0.930 . S
C365 C364 1.377 . S
C365 C366 1.379 . S
C366 H350 0.931 . S
C366 C360 1.383 . S
C366 C365 1.379 . S
H367 C361 0.959 . S
H368 C361 0.961 . S
H369 C361 0.960 . S
H370 C362 0.930 . S
H371 C363 0.929 . S
H372 C380 0.929 . S
H373 C382 0.930 . S
H374 C384 0.930 . S
H375 C387 0.929 . S
H376 C390 0.930 . S
H377 C392 0.960 . S
H378 C392 0.960 . S
H379 C392 0.960 . S
C380 H372 0.929 . S
C380 C381 1.377 . S
C380 C382 1.384 . S
C381 C380 1.377 . S
C381 C387 1.390 . S
C382 H373 0.930 . S
C382 C380 1.384 . S
C382 C383 1.372 . S
C383 C382 1.372 . S
C383 C384 1.400 . S
C383 C388 1.490 . S
C384 H374 0.930 . S
C384 C383 1.400 . S
C384 C387 1.386 . S
H385 C401 0.930 . S
H386 C402 0.931 . S
C387 H375 0.929 . S
C387 C381 1.390 . S
C387 C384 1.386 . S
C388 C383 1.490 . S
C388 C390 1.395 . S
C388 C391 1.403 . S
H389 C395 0.930 . S
C390 H376 0.930 . S
C390 C388 1.395 . S
C390 C393 1.403 . S
C391 C388 1.403 . S
C391 C392 1.524 . S
C391 C395 1.400 . S
C392 H377 0.960 . S
C392 H378 0.960 . S
C392 H379 0.960 . S
C392 C391 1.524 . S
C393 C390 1.403 . S
C393 C394 1.392 . S
C393 C397 1.495 . S
C394 C393 1.392 . S
C394 C395 1.385 . S
C394 C396 1.478 . S
C395 H389 0.930 . S
C395 C391 1.400 . S
C395 C394 1.385 . S
C396 C394 1.478 . S
C396 C398 1.381 . S
C396 C402 1.383 . S
C397 C393 1.495 . S
C397 H403 0.959 . S
C397 H404 0.961 . S
C397 H405 0.960 . S
C398 C396 1.381 . S
C398 C399 1.394 . S
C398 H406 0.930 . S
C399 C398 1.394 . S
C399 C400 1.383 . S
C399 H407 0.929 . S
C400 C399 1.383 . S
C400 C401 1.377 . S
C401 H385 0.930 . S
C401 C400 1.377 . S
C401 C402 1.379 . S
C402 H386 0.931 . S
C402 C396 1.383 . S
C402 C401 1.379 . S
H403 C397 0.959 . S
H404 C397 0.961 . S
H405 C397 0.960 . S
H406 C398 0.930 . S
H407 C399 0.929 . S
H408 C416 0.929 . S
H409 C418 0.930 . S
H410 C420 0.930 . S
H411 C423 0.929 . S
H412 C426 0.930 . S
H413 C428 0.960 . S
H414 C428 0.960 . S
H415 C428 0.960 . S
C416 H408 0.929 . S
C416 C417 1.377 . S
C416 C418 1.384 . S
C417 C416 1.377 . S
C417 C423 1.390 . S
C418 H409 0.930 . S
C418 C416 1.384 . S
C418 C419 1.372 . S
C419 C418 1.372 . S
C419 C420 1.400 . S
C419 C424 1.490 . S
C420 H410 0.930 . S
C420 C419 1.400 . S
C420 C423 1.386 . S
H421 C437 0.930 . S
H422 C438 0.931 . S
C423 H411 0.929 . S
C423 C417 1.390 . S
C423 C420 1.386 . S
C424 C419 1.490 . S
C424 C426 1.395 . S
C424 C427 1.403 . S
H425 C431 0.930 . S
C426 H412 0.930 . S
C426 C424 1.395 . S
C426 C429 1.403 . S
C427 C424 1.403 . S
C427 C428 1.524 . S
C427 C431 1.400 . S
C428 H413 0.960 . S
C428 H414 0.960 . S
C428 H415 0.960 . S
C428 C427 1.524 . S
C429 C426 1.403 . S
C429 C430 1.392 . S
C429 C433 1.495 . S
C430 C429 1.392 . S
C430 C431 1.385 . S
C430 C432 1.478 . S
C431 H425 0.930 . S
C431 C427 1.400 . S
C431 C430 1.385 . S
C432 C430 1.478 . S
C432 C434 1.381 . S
C432 C438 1.383 . S
C433 C429 1.495 . S
C433 H439 0.959 . S
C433 H440 0.961 . S
C433 H441 0.960 . S
C434 C432 1.381 . S
C434 C435 1.394 . S
C434 H442 0.930 . S
C435 C434 1.394 . S
C435 C436 1.383 . S
C435 H443 0.929 . S
C436 C435 1.383 . S
C436 C437 1.377 . S
C437 H421 0.930 . S
C437 C436 1.377 . S
C437 C438 1.379 . S
C438 H422 0.931 . S
C438 C432 1.383 . S
C438 C437 1.379 . S
H439 C433 0.959 . S
H440 C433 0.961 . S
H441 C433 0.960 . S
H442 C434 0.930 . S
H443 C435 0.929 . S
H444 C452 0.929 . S
H445 C454 0.930 . S
H446 C456 0.930 . S
H447 C459 0.929 . S
H448 C462 0.930 . S
H449 C464 0.960 . S
H450 C464 0.960 . S
H451 C464 0.960 . S
C452 H444 0.929 . S
C452 C453 1.377 . S
C452 C454 1.384 . S
C453 C452 1.377 . S
C453 C459 1.390 . S
C454 H445 0.930 . S
C454 C452 1.384 . S
C454 C455 1.372 . S
C455 C454 1.372 . S
C455 C456 1.400 . S
C455 C460 1.490 . S
C456 H446 0.930 . S
C456 C455 1.400 . S
C456 C459 1.386 . S
H457 C473 0.930 . S
H458 C474 0.931 . S
C459 H447 0.929 . S
C459 C453 1.390 . S
C459 C456 1.386 . S
C460 C455 1.490 . S
C460 C462 1.395 . S
C460 C463 1.403 . S
H461 C467 0.930 . S
C462 H448 0.930 . S
C462 C460 1.395 . S
C462 C465 1.403 . S
C463 C460 1.403 . S
C463 C464 1.524 . S
C463 C467 1.400 . S
C464 H449 0.960 . S
C464 H450 0.960 . S
C464 H451 0.960 . S
C464 C463 1.524 . S
C465 C462 1.403 . S
C465 C466 1.392 . S
C465 C469 1.495 . S
C466 C465 1.392 . S
C466 C467 1.385 . S
C466 C468 1.478 . S
C467 H461 0.930 . S
C467 C463 1.400 . S
C467 C466 1.385 . S
C468 C466 1.478 . S
C468 C470 1.381 . S
C468 C474 1.383 . S
C469 C465 1.495 . S
C469 H475 0.959 . S
C469 H476 0.961 . S
C469 H477 0.960 . S
C470 C468 1.381 . S
C470 C471 1.394 . S
C470 H478 0.930 . S
C471 C470 1.394 . S
C471 C472 1.383 . S
C471 H479 0.929 . S
C472 C471 1.383 . S
C472 C473 1.377 . S
C473 H457 0.930 . S
C473 C472 1.377 . S
C473 C474 1.379 . S
C474 H458 0.931 . S
C474 C468 1.383 . S
C474 C473 1.379 . S
H475 C469 0.959 . S
H476 C469 0.961 . S
H477 C469 0.960 . S
H478 C470 0.930 . S
H479 C471 0.929 . S
H480 C488 0.929 . S
H481 C490 0.930 . S
H482 C492 0.930 . S
H483 C495 0.929 . S
H484 C498 0.930 . S
H485 C500 0.960 . S
H486 C500 0.960 . S
H487 C500 0.960 . S
C488 H480 0.929 . S
C488 C489 1.377 . S
C488 C490 1.384 . S
C489 C488 1.377 . S
C489 C495 1.390 . S
C490 H481 0.930 . S
C490 C488 1.384 . S
C490 C491 1.372 . S
C491 C490 1.372 . S
C491 C492 1.400 . S
C491 C496 1.490 . S
C492 H482 0.930 . S
C492 C491 1.400 . S
C492 C495 1.386 . S
H493 C509 0.930 1_545 S
H494 C510 0.931 . S
C495 H483 0.929 . S
C495 C489 1.390 . S
C495 C492 1.386 . S
C496 C491 1.490 . S
C496 C498 1.395 . S
C496 C499 1.403 . S
H497 C503 0.930 . S
C498 H484 0.930 . S
C498 C496 1.395 . S
C498 C501 1.403 . S
C499 C496 1.403 . S
C499 C500 1.524 . S
C499 C503 1.400 . S
C500 H485 0.960 . S
C500 H486 0.960 . S
C500 H487 0.960 . S
C500 C499 1.524 . S
C501 C498 1.403 . S
C501 C502 1.392 . S
C501 C505 1.495 . S
C502 C501 1.392 . S
C502 C503 1.385 . S
C502 C504 1.478 . S
C503 H497 0.930 . S
C503 C499 1.400 . S
C503 C502 1.385 . S
C504 C502 1.478 . S
C504 C506 1.381 . S
C504 C510 1.383 . S
C505 C501 1.495 . S
C505 H511 0.959 . S
C505 H512 0.961 . S
C505 H513 0.960 . S
C506 C504 1.381 . S
C506 C507 1.394 . S
C506 H514 0.930 . S
C507 C506 1.394 . S
C507 C508 1.383 . S
C507 H515 0.929 . S
C508 C507 1.383 . S
C508 C509 1.377 . S
C509 H493 0.930 1_565 S
C509 C508 1.377 . S
C509 C510 1.379 . S
C510 H494 0.931 . S
C510 C504 1.383 . S
C510 C509 1.379 . S
H511 C505 0.959 . S
H512 C505 0.961 . S
H513 C505 0.960 . S
H514 C506 0.930 . S
H515 C507 0.929 . S
H516 C524 0.929 . S
H517 C526 0.930 . S
H518 C528 0.930 . S
H519 C531 0.929 . S
H520 C534 0.930 . S
H521 C536 0.960 . S
H522 C536 0.960 . S
H523 C536 0.960 . S
C524 H516 0.929 . S
C524 C525 1.377 . S
C524 C526 1.384 . S
C525 C524 1.377 . S
C525 C531 1.390 . S
C526 H517 0.930 . S
C526 C524 1.384 . S
C526 C527 1.372 . S
C527 C526 1.372 . S
C527 C528 1.400 . S
C527 C532 1.490 . S
C528 H518 0.930 . S
C528 C527 1.400 . S
C528 C531 1.386 . S
H529 C545 0.930 . S
H530 C546 0.931 . S
C531 H519 0.929 . S
C531 C525 1.390 . S
C531 C528 1.386 . S
C532 C527 1.490 . S
C532 C534 1.395 . S
C532 C535 1.403 . S
H533 C539 0.930 . S
C534 H520 0.930 . S
C534 C532 1.395 . S
C534 C537 1.403 . S
C535 C532 1.403 . S
C535 C536 1.524 . S
C535 C539 1.400 . S
C536 H521 0.960 . S
C536 H522 0.960 . S
C536 H523 0.960 . S
C536 C535 1.524 . S
C537 C534 1.403 . S
C537 C538 1.392 . S
C537 C541 1.495 . S
C538 C537 1.392 . S
C538 C539 1.385 . S
C538 C540 1.478 . S
C539 H533 0.930 . S
C539 C535 1.400 . S
C539 C538 1.385 . S
C540 C538 1.478 . S
C540 C542 1.381 . S
C540 C546 1.383 . S
C541 C537 1.495 . S
C541 H547 0.959 . S
C541 H548 0.961 . S
C541 H549 0.960 . S
C542 C540 1.381 . S
C542 C543 1.394 . S
C542 H550 0.930 . S
C543 C542 1.394 . S
C543 C544 1.383 . S
C543 H551 0.929 1_655 S
C544 C543 1.383 . S
C544 C545 1.377 . S
C545 H529 0.930 . S
C545 C544 1.377 . S
C545 C546 1.379 . S
C546 H530 0.931 . S
C546 C540 1.383 . S
C546 C545 1.379 . S
H547 C541 0.959 . S
H548 C541 0.961 . S
H549 C541 0.960 . S
H550 C542 0.930 . S
H551 C543 0.929 1_455 S
H552 C560 0.929 . S
H553 C562 0.930 . S
H554 C564 0.930 . S
H555 C567 0.929 . S
H556 C570 0.930 . S
H557 C572 0.960 . S
H558 C572 0.960 . S
H559 C572 0.960 . S
C560 H552 0.929 . S
C560 C561 1.377 . S
C560 C562 1.384 . S
C561 C560 1.377 . S
C561 C567 1.390 . S
C562 H553 0.930 . S
C562 C560 1.384 . S
C562 C563 1.372 . S
C563 C562 1.372 . S
C563 C564 1.400 . S
C563 C568 1.490 . S
C564 H554 0.930 . S
C564 C563 1.400 . S
C564 C567 1.386 . S
H565 C581 0.930 . S
H566 C582 0.931 . S
C567 H555 0.929 . S
C567 C561 1.390 . S
C567 C564 1.386 . S
C568 C563 1.490 . S
C568 C570 1.395 . S
C568 C571 1.403 . S
H569 C575 0.930 . S
C570 H556 0.930 . S
C570 C568 1.395 . S
C570 C573 1.403 . S
C571 C568 1.403 . S
C571 C572 1.524 . S
C571 C575 1.400 . S
C572 H557 0.960 . S
C572 H558 0.960 . S
C572 H559 0.960 . S
C572 C571 1.524 . S
C573 C570 1.403 . S
C573 C574 1.392 . S
C573 C577 1.495 1_545 S
C574 C573 1.392 . S
C574 C575 1.385 . S
C574 C576 1.478 . S
C575 H569 0.930 . S
C575 C571 1.400 . S
C575 C574 1.385 . S
C576 C574 1.478 . S
C576 C578 1.381 . S
C576 C582 1.383 . S
C577 C573 1.495 1_565 S
C577 H583 0.959 . S
C577 H584 0.961 . S
C577 H585 0.960 . S
C578 C576 1.381 . S
C578 C579 1.394 1_545 S
C578 H586 0.930 . S
C579 C578 1.394 1_565 S
C579 C580 1.383 . S
C579 H587 0.929 . S
C580 C579 1.383 . S
C580 C581 1.377 . S
C581 H565 0.930 . S
C581 C580 1.377 . S
C581 C582 1.379 1_565 S
C582 H566 0.931 . S
C582 C576 1.383 . S
C582 C581 1.379 1_545 S
H583 C577 0.959 . S
H584 C577 0.961 . S
H585 C577 0.960 . S
H586 C578 0.930 . S
H587 C579 0.929 . S
H588 C596 0.929 . S
H589 C598 0.930 1_545 S
H590 C600 0.930 . S
H591 C603 0.929 . S
H592 C606 0.930 1_545 S
H593 C608 0.960 . S
H594 C608 0.960 . S
H595 C608 0.960 . S
C596 H588 0.929 . S
C596 C597 1.377 . S
C596 C598 1.384 1_545 S
C597 C596 1.377 . S
C597 C603 1.390 1_545 S
C598 H589 0.930 1_565 S
C598 C596 1.384 1_565 S
C598 C599 1.372 . S
C599 C598 1.372 . S
C599 C600 1.400 . S
C599 C604 1.490 . S
C600 H590 0.930 . S
C600 C599 1.400 . S
C600 C603 1.386 . S
H601 C617 0.930 . S
H602 C618 0.931 . S
C603 H591 0.929 . S
C603 C597 1.390 1_565 S
C603 C600 1.386 . S
C604 C599 1.490 . S
C604 C606 1.395 . S
C604 C607 1.403 . S
H605 C611 0.930 . S
C606 H592 0.930 1_565 S
C606 C604 1.395 . S
C606 C609 1.403 . S
C607 C604 1.403 . S
C607 C608 1.524 . S
C607 C611 1.400 . S
C608 H593 0.960 . S
C608 H594 0.960 . S
C608 H595 0.960 . S
C608 C607 1.524 . S
C609 C606 1.403 . S
C609 C610 1.392 . S
C609 C613 1.495 1_565 S
C610 C609 1.392 . S
C610 C611 1.385 . S
C610 C612 1.478 . S
C611 H605 0.930 . S
C611 C607 1.400 . S
C611 C610 1.385 . S
C612 C610 1.478 . S
C612 C614 1.381 . S
C612 C618 1.383 . S
C613 C609 1.495 1_545 S
C613 H619 0.959 . S
C613 H620 0.961 . S
C613 H621 0.960 . S
C614 C612 1.381 . S
C614 C615 1.394 . S
C614 H622 0.930 . S
C615 C614 1.394 . S
C615 C616 1.383 . S
C615 H623 0.929 . S
C616 C615 1.383 . S
C616 C617 1.377 . S
C617 H601 0.930 . S
C617 C616 1.377 . S
C617 C618 1.379 . S
C618 H602 0.931 . S
C618 C612 1.383 . S
C618 C617 1.379 . S
H619 C613 0.959 . S
H620 C613 0.961 . S
H621 C613 0.960 . S
H622 C614 0.930 . S
H623 C615 0.929 . S
H624 C632 0.929 . S
H625 C634 0.930 . S
H626 C636 0.930 . S
H627 C639 0.929 . S
H628 C642 0.930 . S
H629 C644 0.960 . S
H630 C644 0.960 . S
H631 C644 0.960 . S
C632 H624 0.929 . S
C632 C633 1.377 . S
C632 C634 1.384 . S
C633 C632 1.377 . S
C633 C639 1.390 . S
C634 H625 0.930 . S
C634 C632 1.384 . S
C634 C635 1.372 . S
C635 C634 1.372 . S
C635 C636 1.400 . S
C635 C640 1.490 . S
C636 H626 0.930 . S
C636 C635 1.400 . S
C636 C639 1.386 . S
H637 C653 0.930 . S
H638 C654 0.931 . S
C639 H627 0.929 . S
C639 C633 1.390 . S
C639 C636 1.386 . S
C640 C635 1.490 . S
C640 C642 1.395 . S
C640 C643 1.403 . S
H641 C647 0.930 . S
C642 H628 0.930 . S
C642 C640 1.395 . S
C642 C645 1.403 . S
C643 C640 1.403 . S
C643 C644 1.524 . S
C643 C647 1.400 . S
C644 H629 0.960 . S
C644 H630 0.960 . S
C644 H631 0.960 . S
C644 C643 1.524 . S
C645 C642 1.403 . S
C645 C646 1.392 . S
C645 C649 1.495 . S
C646 C645 1.392 . S
C646 C647 1.385 . S
C646 C648 1.478 . S
C647 H641 0.930 . S
C647 C643 1.400 . S
C647 C646 1.385 . S
C648 C646 1.478 . S
C648 C650 1.381 . S
C648 C654 1.383 . S
C649 C645 1.495 . S
C649 H655 0.959 . S
C649 H656 0.961 . S
C649 H657 0.960 . S
C650 C648 1.381 . S
C650 C651 1.394 . S
C650 H658 0.930 . S
C651 C650 1.394 . S
C651 C652 1.383 . S
C651 H659 0.929 . S
C652 C651 1.383 . S
C652 C653 1.377 . S
C653 H637 0.930 . S
C653 C652 1.377 . S
C653 C654 1.379 . S
C654 H638 0.931 . S
C654 C648 1.383 . S
C654 C653 1.379 . S
H655 C649 0.959 . S
H656 C649 0.961 . S
H657 C649 0.960 . S
H658 C650 0.930 . S
H659 C651 0.929 . S
H660 C668 0.929 . S
H661 C670 0.930 . S
H662 C672 0.930 . S
H663 C675 0.929 . S
H664 C678 0.930 . S
H665 C680 0.960 . S
H666 C680 0.960 . S
H667 C680 0.960 . S
C668 H660 0.929 . S
C668 C669 1.377 . S
C668 C670 1.384 . S
C669 C668 1.377 . S
C669 C675 1.390 . S
C670 H661 0.930 . S
C670 C668 1.384 . S
C670 C671 1.372 . S
C671 C670 1.372 . S
C671 C672 1.400 . S
C671 C676 1.490 . S
C672 H662 0.930 . S
C672 C671 1.400 . S
C672 C675 1.386 . S
H673 C689 0.930 . S
H674 C690 0.931 . S
C675 H663 0.929 . S
C675 C669 1.390 . S
C675 C672 1.386 . S
C676 C671 1.490 . S
C676 C678 1.395 . S
C676 C679 1.403 . S
H677 C683 0.930 . S
C678 H664 0.930 . S
C678 C676 1.395 . S
C678 C681 1.403 . S
C679 C676 1.403 . S
C679 C680 1.524 . S
C679 C683 1.400 . S
C680 H665 0.960 . S
C680 H666 0.960 . S
C680 H667 0.960 . S
C680 C679 1.524 . S
C681 C678 1.403 . S
C681 C682 1.392 . S
C681 C685 1.495 . S
C682 C681 1.392 . S
C682 C683 1.385 . S
C682 C684 1.478 . S
C683 H677 0.930 . S
C683 C679 1.400 . S
C683 C682 1.385 . S
C684 C682 1.478 . S
C684 C686 1.381 . S
C684 C690 1.383 . S
C685 C681 1.495 . S
C685 H691 0.959 . S
C685 H692 0.961 . S
C685 H693 0.960 . S
C686 C684 1.381 . S
C686 C687 1.394 . S
C686 H694 0.930 . S
C687 C686 1.394 . S
C687 C688 1.383 . S
C687 H695 0.929 . S
C688 C687 1.383 . S
C688 C689 1.377 . S
C689 H673 0.930 . S
C689 C688 1.377 . S
C689 C690 1.379 . S
C690 H674 0.931 . S
C690 C684 1.383 . S
C690 C689 1.379 . S
H691 C685 0.959 . S
H692 C685 0.961 . S
H693 C685 0.960 . S
H694 C686 0.930 . S
H695 C687 0.929 . S
H696 C704 0.929 . S
H697 C706 0.930 . S
H698 C708 0.930 . S
H699 C711 0.929 . S
H700 C714 0.930 . S
H701 C716 0.960 . S
H702 C716 0.960 . S
H703 C716 0.960 . S
C704 H696 0.929 . S
C704 C705 1.377 . S
C704 C706 1.384 . S
C705 C704 1.377 . S
C705 C711 1.390 . S
C706 H697 0.930 . S
C706 C704 1.384 . S
C706 C707 1.372 . S
C707 C706 1.372 . S
C707 C708 1.400 . S
C707 C712 1.490 . S
C708 H698 0.930 . S
C708 C707 1.400 . S
C708 C711 1.386 . S
H709 C725 0.930 . S
H710 C726 0.931 . S
C711 H699 0.929 . S
C711 C705 1.390 . S
C711 C708 1.386 . S
C712 C707 1.490 . S
C712 C714 1.395 . S
C712 C715 1.403 . S
H713 C719 0.930 . S
C714 H700 0.930 . S
C714 C712 1.395 . S
C714 C717 1.403 . S
C715 C712 1.403 . S
C715 C716 1.524 . S
C715 C719 1.400 . S
C716 H701 0.960 . S
C716 H702 0.960 . S
C716 H703 0.960 . S
C716 C715 1.524 . S
C717 C714 1.403 . S
C717 C718 1.392 . S
C717 C721 1.495 . S
C718 C717 1.392 . S
C718 C719 1.385 . S
C718 C720 1.478 . S
C719 H713 0.930 . S
C719 C715 1.400 . S
C719 C718 1.385 . S
C720 C718 1.478 . S
C720 C722 1.381 . S
C720 C726 1.383 . S
C721 C717 1.495 . S
C721 H727 0.959 . S
C721 H728 0.961 . S
C721 H729 0.960 . S
C722 C720 1.381 . S
C722 C723 1.394 . S
C722 H730 0.930 . S
C723 C722 1.394 . S
C723 C724 1.383 . S
C723 H731 0.929 . S
C724 C723 1.383 . S
C724 C725 1.377 . S
C725 H709 0.930 . S
C725 C724 1.377 . S
C725 C726 1.379 . S
C726 H710 0.931 . S
C726 C720 1.383 . S
C726 C725 1.379 . S
H727 C721 0.959 . S
H728 C721 0.961 . S
H729 C721 0.960 . S
H730 C722 0.930 . S
H731 C723 0.929 . S
H732 C740 0.929 . S
H733 C742 0.930 . S
H734 C744 0.930 . S
H735 C747 0.929 . S
H736 C750 0.930 . S
H737 C752 0.960 . S
H738 C752 0.960 . S
H739 C752 0.960 . S
C740 H732 0.929 . S
C740 C741 1.377 . S
C740 C742 1.384 . S
C741 C740 1.377 . S
C741 C747 1.390 . S
C742 H733 0.930 . S
C742 C740 1.384 . S
C742 C743 1.372 . S
C743 C742 1.372 . S
C743 C744 1.400 . S
C743 C748 1.490 . S
C744 H734 0.930 . S
C744 C743 1.400 . S
C744 C747 1.386 . S
H745 C761 0.930 . S
H746 C762 0.931 . S
C747 H735 0.929 . S
C747 C741 1.390 . S
C747 C744 1.386 . S
C748 C743 1.490 . S
C748 C750 1.395 . S
C748 C751 1.403 . S
H749 C755 0.930 . S
C750 H736 0.930 . S
C750 C748 1.395 . S
C750 C753 1.403 . S
C751 C748 1.403 . S
C751 C752 1.524 . S
C751 C755 1.400 . S
C752 H737 0.960 . S
C752 H738 0.960 . S
C752 H739 0.960 . S
C752 C751 1.524 . S
C753 C750 1.403 . S
C753 C754 1.392 . S
C753 C757 1.495 . S
C754 C753 1.392 . S
C754 C755 1.385 . S
C754 C756 1.478 . S
C755 H749 0.930 . S
C755 C751 1.400 . S
C755 C754 1.385 . S
C756 C754 1.478 . S
C756 C758 1.381 . S
C756 C762 1.383 . S
C757 C753 1.495 . S
C757 H763 0.959 . S
C757 H764 0.961 . S
C757 H765 0.960 . S
C758 C756 1.381 . S
C758 C759 1.394 . S
C758 H766 0.930 . S
C759 C758 1.394 . S
C759 C760 1.383 . S
C759 H767 0.929 . S
C760 C759 1.383 . S
C760 C761 1.377 . S
C761 H745 0.930 . S
C761 C760 1.377 . S
C761 C762 1.379 . S
C762 H746 0.931 . S
C762 C756 1.383 . S
C762 C761 1.379 . S
H763 C757 0.959 . S
H764 C757 0.961 . S
H765 C757 0.960 . S
H766 C758 0.930 . S
H767 C759 0.929 . S
H768 C776 0.929 . S
H769 C778 0.930 . S
H770 C780 0.930 . S
H771 C783 0.929 . S
H772 C786 0.930 . S
H773 C788 0.960 . S
H774 C788 0.960 . S
H775 C788 0.960 . S
C776 H768 0.929 . S
C776 C777 1.377 . S
C776 C778 1.384 . S
C777 C776 1.377 . S
C777 C783 1.390 . S
C778 H769 0.930 . S
C778 C776 1.384 . S
C778 C779 1.372 . S
C779 C778 1.372 . S
C779 C780 1.400 . S
C779 C784 1.490 . S
C780 H770 0.930 . S
C780 C779 1.400 . S
C780 C783 1.386 . S
H781 C797 0.930 . S
H782 C798 0.931 . S
C783 H771 0.929 . S
C783 C777 1.390 . S
C783 C780 1.386 . S
C784 C779 1.490 . S
C784 C786 1.395 . S
C784 C787 1.403 . S
H785 C791 0.930 . S
C786 H772 0.930 . S
C786 C784 1.395 . S
C786 C789 1.403 . S
C787 C784 1.403 . S
C787 C788 1.524 . S
C787 C791 1.400 . S
C788 H773 0.960 . S
C788 H774 0.960 . S
C788 H775 0.960 . S
C788 C787 1.524 . S
C789 C786 1.403 . S
C789 C790 1.392 . S
C789 C793 1.495 . S
C790 C789 1.392 . S
C790 C791 1.385 . S
C790 C792 1.478 . S
C791 H785 0.930 . S
C791 C787 1.400 . S
C791 C790 1.385 . S
C792 C790 1.478 . S
C792 C794 1.381 . S
C792 C798 1.383 . S
C793 C789 1.495 . S
C793 H799 0.959 . S
C793 H800 0.961 . S
C793 H801 0.960 . S
C794 C792 1.381 . S
C794 C795 1.394 . S
C794 H802 0.930 . S
C795 C794 1.394 . S
C795 C796 1.383 . S
C795 H803 0.929 . S
C796 C795 1.383 . S
C796 C797 1.377 . S
C797 H781 0.930 . S
C797 C796 1.377 . S
C797 C798 1.379 . S
C798 H782 0.931 . S
C798 C792 1.383 . S
C798 C797 1.379 . S
H799 C793 0.959 . S
H800 C793 0.961 . S
H801 C793 0.960 . S
H802 C794 0.930 . S
H803 C795 0.929 . S
H804 C812 0.929 . S
H805 C814 0.930 . S
H806 C816 0.930 . S
H807 C819 0.939 . S
H808 C822 0.930 . S
H809 C824 0.960 . S
H810 C824 0.960 . S
H811 C824 0.960 . S
C812 H804 0.929 . S
C812 C813 1.377 . S
C812 C814 1.384 . S
C813 C812 1.377 . S
C813 C819 1.390 . S
C814 H805 0.930 . S
C814 C812 1.384 . S
C814 C815 1.372 . S
C815 C814 1.372 . S
C815 C816 1.400 . S
C815 C820 1.490 . S
C816 H806 0.930 . S
C816 C815 1.400 . S
C816 C819 1.386 . S
H817 C833 0.930 . S
H818 C834 0.931 . S
C819 H807 0.939 . S
C819 C813 1.390 . S
C819 C816 1.386 . S
C820 C815 1.490 . S
C820 C822 1.395 . S
C820 C823 1.403 . S
H821 C827 0.930 . S
C822 H808 0.930 . S
C822 C820 1.395 . S
C822 C825 1.403 . S
C823 C820 1.403 . S
C823 C824 1.524 . S
C823 C827 1.400 . S
C824 H809 0.960 . S
C824 H810 0.960 . S
C824 H811 0.960 . S
C824 C823 1.524 . S
C825 C822 1.403 . S
C825 C826 1.392 . S
C825 C829 1.495 . S
C826 C825 1.392 . S
C826 C827 1.385 . S
C826 C828 1.478 . S
C827 H821 0.930 . S
C827 C823 1.400 . S
C827 C826 1.385 . S
C828 C826 1.478 . S
C828 C830 1.381 . S
C828 C834 1.383 . S
C829 C825 1.495 . S
C829 H835 0.959 . S
C829 H836 0.961 . S
C829 H837 0.960 . S
C830 C828 1.381 . S
C830 C831 1.394 . S
C830 H838 0.930 . S
C831 C830 1.394 . S
C831 C832 1.383 . S
C831 H839 0.929 . S
C832 C831 1.383 . S
C832 C833 1.377 . S
C833 H817 0.930 . S
C833 C832 1.377 . S
C833 C834 1.379 . S
C834 H818 0.931 . S
C834 C828 1.383 . S
C834 C833 1.379 . S
H835 C829 0.959 . S
H836 C829 0.961 . S
H837 C829 0.960 . S
H838 C830 0.930 . S
H839 C831 0.929 . S
H840 C848 0.929 . S
H841 C850 0.930 . S
H842 C852 0.930 . S
H843 C855 0.929 . S
H844 C858 0.931 . S
H845 C860 0.960 . S
H846 C860 0.960 . S
H847 C860 0.960 1_655 S
C848 H840 0.929 . S
C848 C849 1.377 . S
C848 C850 1.384 . S
C849 C848 1.377 . S
C849 C855 1.390 1_454 S
C850 H841 0.930 . S
C850 C848 1.384 . S
C850 C851 1.372 . S
C851 C850 1.372 . S
C851 C852 1.400 1_454 S
C851 C856 1.490 . S
C852 H842 0.930 . S
C852 C851 1.400 1_656 S
C852 C855 1.386 . S
H853 C869 0.930 1_556 S
H854 C870 0.931 1_556 S
C855 H843 0.929 . S
C855 C849 1.390 1_656 S
C855 C852 1.386 . S
C856 C851 1.490 . S
C856 C858 1.393 1_455 S
C856 C859 1.403 1_554 S
H857 C863 0.930 . S
C858 H844 0.931 . S
C858 C856 1.393 1_655 S
C858 C861 1.404 . S
C859 C856 1.403 1_556 S
C859 C860 1.524 . S
C859 C863 1.400 . S
C860 H845 0.960 . S
C860 H846 0.960 . S
C860 H847 0.960 1_455 S
C860 C859 1.524 . S
C861 C858 1.404 . S
C861 C862 1.392 1_655 S
C861 C865 1.495 . S
C862 C861 1.392 1_455 S
C862 C863 1.385 1_554 S
C862 C864 1.478 . S
C863 H857 0.930 . S
C863 C859 1.400 . S
C863 C862 1.385 1_556 S
C864 C862 1.478 . S
C864 C866 1.385 . S
C864 C870 1.379 1_455 S
C865 C861 1.495 . S
C865 H871 0.959 . S
C865 H872 0.961 . S
C865 H873 0.960 1_655 S
C866 C864 1.385 . S
C866 C867 1.394 . S
C866 H874 0.930 . S
C867 C866 1.394 . S
C867 C868 1.382 1_455 S
C867 H875 0.929 . S
C868 C867 1.382 1_655 S
C868 C869 1.378 . S
C869 H853 0.930 1_554 S
C869 C868 1.378 . S
C869 C870 1.379 . S
C870 H854 0.931 1_554 S
C870 C864 1.379 1_655 S
C870 C869 1.379 . S
H871 C865 0.959 . S
H872 C865 0.961 . S
H873 C865 0.960 1_455 S
H874 C866 0.930 . S
H875 C867 0.929 . S
H876 C884 0.929 . S
H877 C886 0.930 . S
H878 C888 0.930 . S
H879 C891 0.929 . S
H880 C894 0.930 . S
H881 C896 0.960 . S
H882 C896 0.960 . S
H883 C896 0.960 . S
C884 H876 0.929 . S
C884 C885 1.377 . S
C884 C886 1.384 . S
C885 C884 1.377 . S
C885 C891 1.390 . S
C886 H877 0.930 . S
C886 C884 1.384 . S
C886 C887 1.372 . S
C887 C886 1.372 . S
C887 C888 1.400 . S
C887 C892 1.490 . S
C888 H878 0.930 . S
C888 C887 1.400 . S
C888 C891 1.386 . S
H889 C905 0.930 . S
H890 C906 0.931 . S
C891 H879 0.929 . S
C891 C885 1.390 . S
C891 C888 1.386 . S
C892 C887 1.490 . S
C892 C894 1.395 . S
C892 C895 1.403 . S
H893 C899 0.930 . S
C894 H880 0.930 . S
C894 C892 1.395 . S
C894 C897 1.403 . S
C895 C892 1.403 . S
C895 C896 1.524 . S
C895 C899 1.400 . S
C896 H881 0.960 . S
C896 H882 0.960 . S
C896 H883 0.960 . S
C896 C895 1.524 . S
C897 C894 1.403 . S
C897 C898 1.392 . S
C897 C901 1.495 . S
C898 C897 1.392 . S
C898 C899 1.385 . S
C898 C900 1.478 . S
C899 H893 0.930 . S
C899 C895 1.400 . S
C899 C898 1.385 . S
C900 C898 1.478 . S
C900 C902 1.381 . S
C900 C906 1.383 . S
C901 C897 1.495 . S
C901 H907 0.959 . S
C901 H908 0.961 . S
C901 H909 0.960 . S
C902 C900 1.381 . S
C902 C903 1.394 1_565 S
C902 H910 0.930 . S
C903 C902 1.394 1_545 S
C903 C904 1.383 . S
C903 H911 0.929 . S
C904 C903 1.383 . S
C904 C905 1.377 . S
C905 H889 0.930 . S
C905 C904 1.377 . S
C905 C906 1.379 1_545 S
C906 H890 0.931 . S
C906 C900 1.383 . S
C906 C905 1.379 1_565 S
H907 C901 0.959 . S
H908 C901 0.961 . S
H909 C901 0.960 . S
H910 C902 0.930 . S
H911 C903 0.929 . S
H912 C920 0.929 1_565 S
H913 C922 0.930 . S
H914 C924 0.930 . S
H915 C927 0.929 . S
H916 C930 0.930 . S
H917 C932 0.960 . S
H918 C932 0.960 . S
H919 C932 0.960 . S
C920 H912 0.929 1_545 S
C920 C921 1.377 1_545 S
C920 C922 1.384 . S
C921 C920 1.377 1_565 S
C921 C927 1.390 . S
C922 H913 0.930 . S
C922 C920 1.384 . S
C922 C923 1.372 . S
C923 C922 1.372 . S
C923 C924 1.400 . S
C923 C928 1.490 . S
C924 H914 0.930 . S
C924 C923 1.400 . S
C924 C927 1.386 1_545 S
H925 C941 0.930 . S
H926 C942 0.931 . S
C927 H915 0.929 . S
C927 C921 1.390 . S
C927 C924 1.386 1_565 S
C928 C923 1.490 . S
C928 C930 1.395 . S
C928 C931 1.403 . S
H929 C935 0.930 . S
C930 H916 0.930 . S
C930 C928 1.395 . S
C930 C933 1.403 . S
C931 C928 1.403 . S
C931 C932 1.524 . S
C931 C935 1.400 . S
C932 H917 0.960 . S
C932 H918 0.960 . S
C932 H919 0.960 . S
C932 C931 1.524 . S
C933 C930 1.403 . S
C933 C934 1.392 . S
C933 C937 1.495 . S
C934 C933 1.392 . S
C934 C935 1.385 . S
C934 C936 1.478 . S
C935 H929 0.930 . S
C935 C931 1.400 . S
C935 C934 1.385 . S
C936 C934 1.478 . S
C936 C938 1.381 . S
C936 C942 1.383 . S
C937 C933 1.495 . S
C937 H943 0.959 . S
C937 H944 0.961 . S
C937 H945 0.960 . S
C938 C936 1.381 . S
C938 C939 1.394 . S
C938 H946 0.930 . S
C939 C938 1.394 . S
C939 C940 1.383 . S
C939 H947 0.929 . S
C940 C939 1.383 . S
C940 C941 1.377 . S
C941 H925 0.930 . S
C941 C940 1.377 . S
C941 C942 1.379 . S
C942 H926 0.931 . S
C942 C936 1.383 . S
C942 C941 1.379 . S
H943 C937 0.959 . S
H944 C937 0.961 . S
H945 C937 0.960 . S
H946 C938 0.930 . S
H947 C939 0.929 . S
H948 C956 0.929 . S
H949 C958 0.930 . S
H950 C960 0.930 . S
H951 C963 0.929 . S
H952 C966 0.930 . S
H953 C968 0.960 . S
H954 C968 0.960 . S
H955 C968 0.960 . S
C956 H948 0.929 . S
C956 C957 1.378 1_655 S
C956 C958 1.384 . S
C957 C956 1.378 1_455 S
C957 C963 1.389 . S
C958 H949 0.930 . S
C958 C956 1.384 . S
C958 C959 1.372 . S
C959 C958 1.372 . S
C959 C960 1.400 1_655 S
C959 C964 1.490 . S
C960 H950 0.930 . S
C960 C959 1.400 1_455 S
C960 C963 1.386 . S
H961 C977 0.930 . S
H962 C978 0.931 . S
C963 H951 0.929 . S
C963 C957 1.389 . S
C963 C960 1.386 . S
C964 C959 1.490 . S
C964 C966 1.395 . S
C964 C967 1.403 1_655 S
H965 C971 0.930 . S
C966 H952 0.930 . S
C966 C964 1.395 . S
C966 C969 1.403 1_565 S
C967 C964 1.403 1_455 S
C967 C968 1.524 . S
C967 C971 1.400 1_565 S
C968 H953 0.960 . S
C968 H954 0.960 . S
C968 H955 0.960 . S
C968 C967 1.524 . S
C969 C966 1.403 1_545 S
C969 C970 1.392 . S
C969 C973 1.495 . S
C970 C969 1.392 . S
C970 C971 1.385 1_655 S
C970 C972 1.478 . S
C971 H965 0.930 . S
C971 C967 1.400 1_545 S
C971 C970 1.385 1_455 S
C972 C970 1.478 . S
C972 C974 1.398 . S
C972 C978 1.365 1_655 S
C973 C969 1.495 . S
C973 H979 0.959 . S
C973 H980 0.961 . S
C973 H981 0.960 . S
C974 C972 1.398 . S
C974 C975 1.394 . S
C974 H982 0.930 . S
C975 C974 1.394 . S
C975 C976 1.383 1_655 S
C975 H983 0.929 . S
C976 C975 1.383 1_455 S
C976 C977 1.377 . S
C977 H961 0.930 . S
C977 C976 1.377 . S
C977 C978 1.379 . S
C978 H962 0.931 . S
C978 C972 1.365 1_455 S
C978 C977 1.379 . S
H979 C973 0.959 . S
H980 C973 0.961 . S
H981 C973 0.960 . S
H982 C974 0.930 . S
H983 C975 0.929 . S
H984 C992 0.929 . S
H985 C994 0.930 . S
H986 C996 0.930 . S
H987 C999 0.937 . S
H988 C1002 0.930 . S
H989 C1004 0.960 . S
H990 C1004 0.960 . S
H991 C1004 0.960 . S
C992 H984 0.929 . S
C992 C993 1.377 . S
C992 C994 1.384 1_565 S
C993 C992 1.377 . S
C993 C999 1.398 . S
C994 H985 0.930 . S
C994 C992 1.384 1_545 S
C994 C995 1.372 . S
C995 C994 1.372 . S
C995 C996 1.400 . S
C995 C1000 1.490 . S
C996 H986 0.930 . S
C996 C995 1.400 . S
C996 C999 1.369 1_545 S
H997 C1013 0.930 . S
H998 C1014 0.931 . S
C999 H987 0.937 . S
C999 C993 1.398 . S
C999 C996 1.369 1_565 S
C1000 C995 1.490 . S
C1000 C1002 1.395 . S
C1000 C1003 1.403 . S
H1001 C1007 0.930 . S
C1002 H988 0.930 . S
C1002 C1000 1.395 . S
C1002 C1005 1.403 . S
C1003 C1000 1.403 . S
C1003 C1004 1.524 . S
C1003 C1007 1.400 . S
C1004 H989 0.960 . S
C1004 H990 0.960 . S
C1004 H991 0.960 . S
C1004 C1003 1.524 . S
C1005 C1002 1.403 . S
C1005 C1006 1.392 . S
C1005 C1009 1.495 . S
C1006 C1005 1.392 . S
C1006 C1007 1.385 . S
C1006 C1008 1.478 . S
C1007 H1001 0.930 . S
C1007 C1003 1.400 . S
C1007 C1006 1.385 . S
C1008 C1006 1.478 . S
C1008 C1010 1.381 . S
C1008 C1014 1.383 . S
C1009 C1005 1.495 . S
C1009 H1015 0.959 . S
C1009 H1016 0.961 . S
C1009 H1017 0.960 . S
C1010 C1008 1.381 . S
C1010 C1011 1.394 . S
C1010 H1018 0.930 . S
C1011 C1010 1.394 . S
C1011 C1012 1.383 . S
C1011 H1019 0.929 . S
C1012 C1011 1.383 . S
C1012 C1013 1.377 . S
C1013 H997 0.930 . S
C1013 C1012 1.377 . S
C1013 C1014 1.379 . S
C1014 H998 0.931 . S
C1014 C1008 1.383 . S
C1014 C1013 1.379 . S
H1015 C1009 0.959 . S
H1016 C1009 0.961 . S
H1017 C1009 0.960 . S
H1018 C1010 0.930 . S
H1019 C1011 0.929 . S
H1020 C1028 0.929 . S
H1021 C1030 0.930 . S
H1022 C1032 0.930 . S
H1023 C1035 0.929 . S
H1024 C1038 0.930 . S
H1025 C1040 0.960 . S
H1026 C1040 0.960 . S
H1027 C1040 0.960 . S
C1028 H1020 0.929 . S
C1028 C1029 1.377 . S
C1028 C1030 1.384 . S
C1029 C1028 1.377 . S
C1029 C1035 1.390 . S
C1030 H1021 0.930 . S
C1030 C1028 1.384 . S
C1030 C1031 1.372 . S
C1031 C1030 1.372 . S
C1031 C1032 1.400 . S
C1031 C1036 1.490 . S
C1032 H1022 0.930 . S
C1032 C1031 1.400 . S
C1032 C1035 1.386 . S
H1033 C1049 0.930 1_545 S
H1034 C1050 0.931 . S
C1035 H1023 0.929 . S
C1035 C1029 1.390 . S
C1035 C1032 1.386 . S
C1036 C1031 1.490 . S
C1036 C1038 1.395 . S
C1036 C1039 1.403 . S
H1037 C1043 0.930 . S
C1038 H1024 0.930 . S
C1038 C1036 1.395 . S
C1038 C1041 1.403 . S
C1039 C1036 1.403 . S
C1039 C1040 1.524 . S
C1039 C1043 1.400 . S
C1040 H1025 0.960 . S
C1040 H1026 0.960 . S
C1040 H1027 0.960 . S
C1040 C1039 1.524 . S
C1041 C1038 1.403 . S
C1041 C1042 1.392 . S
C1041 C1045 1.495 . S
C1042 C1041 1.392 . S
C1042 C1043 1.385 . S
C1042 C1044 1.478 . S
C1043 H1037 0.930 . S
C1043 C1039 1.400 . S
C1043 C1042 1.385 . S
C1044 C1042 1.478 . S
C1044 C1046 1.381 . S
C1044 C1050 1.383 . S
C1045 C1041 1.495 . S
C1045 H1051 0.959 . S
C1045 H1052 0.961 . S
C1045 H1053 0.960 . S
C1046 C1044 1.381 . S
C1046 C1047 1.394 1_565 S
C1046 H1054 0.930 . S
C1047 C1046 1.394 1_545 S
C1047 C1048 1.383 . S
C1047 H1055 0.929 . S
C1048 C1047 1.383 . S
C1048 C1049 1.377 1_545 S
C1049 H1033 0.930 1_565 S
C1049 C1048 1.377 1_565 S
C1049 C1050 1.379 . S
C1050 H1034 0.931 . S
C1050 C1044 1.383 . S
C1050 C1049 1.379 . S
H1051 C1045 0.959 . S
H1052 C1045 0.961 . S
H1053 C1045 0.960 . S
H1054 C1046 0.930 . S
H1055 C1047 0.929 . S
H1056 C1064 0.929 . S
H1057 C1066 0.930 . S
H1058 C1068 0.930 . S
H1059 C1071 0.929 . S
H1060 C1074 0.930 . S
H1061 C1076 0.960 . S
H1062 C1076 0.960 . S
H1063 C1076 0.960 . S
C1064 H1056 0.929 . S
C1064 C1065 1.377 . S
C1064 C1066 1.384 . S
C1065 C1064 1.377 . S
C1065 C1071 1.390 . S
C1066 H1057 0.930 . S
C1066 C1064 1.384 . S
C1066 C1067 1.372 . S
C1067 C1066 1.372 . S
C1067 C1068 1.400 . S
C1067 C1072 1.490 . S
C1068 H1058 0.930 . S
C1068 C1067 1.400 . S
C1068 C1071 1.386 . S
H1069 C1085 0.930 . S
H1070 C1086 0.931 . S
C1071 H1059 0.929 . S
C1071 C1065 1.390 . S
C1071 C1068 1.386 . S
C1072 C1067 1.490 . S
C1072 C1074 1.395 . S
C1072 C1075 1.403 . S
H1073 C1079 0.930 . S
C1074 H1060 0.930 . S
C1074 C1072 1.395 . S
C1074 C1077 1.403 . S
C1075 C1072 1.403 . S
C1075 C1076 1.524 . S
C1075 C1079 1.400 . S
C1076 H1061 0.960 . S
C1076 H1062 0.960 . S
C1076 H1063 0.960 . S
C1076 C1075 1.524 . S
C1077 C1074 1.403 . S
C1077 C1078 1.392 . S
C1077 C1081 1.495 . S
C1078 C1077 1.392 . S
C1078 C1079 1.385 . S
C1078 C1080 1.478 . S
C1079 H1073 0.930 . S
C1079 C1075 1.400 . S
C1079 C1078 1.385 . S
C1080 C1078 1.478 . S
C1080 C1082 1.381 . S
C1080 C1086 1.383 . S
C1081 C1077 1.495 . S
C1081 H1087 0.959 . S
C1081 H1088 0.961 . S
C1081 H1089 0.960 . S
C1082 C1080 1.381 . S
C1082 C1083 1.394 . S
C1082 H1090 0.930 . S
C1083 C1082 1.394 . S
C1083 C1084 1.383 . S
C1083 H1091 0.929 . S
C1084 C1083 1.383 . S
C1084 C1085 1.377 . S
C1085 H1069 0.930 . S
C1085 C1084 1.377 . S
C1085 C1086 1.379 . S
C1086 H1070 0.931 . S
C1086 C1080 1.383 . S
C1086 C1085 1.379 . S
H1087 C1081 0.959 . S
H1088 C1081 0.961 . S
H1089 C1081 0.960 . S
H1090 C1082 0.930 . S
H1091 C1083 0.929 . S
H1092 C1100 0.929 . S
H1093 C1102 0.930 . S
H1094 C1104 0.939 . S
H1095 C1107 0.929 . S
H1096 C1110 0.930 . S
H1097 C1112 0.960 . S
H1098 C1112 0.960 . S
H1099 C1112 0.960 . S
C1100 H1092 0.929 . S
C1100 C1101 1.377 . S
C1100 C1102 1.384 . S
C1101 C1100 1.377 . S
C1101 C1107 1.390 . S
C1102 H1093 0.930 . S
C1102 C1100 1.384 . S
C1102 C1103 1.372 . S
C1103 C1102 1.372 . S
C1103 C1104 1.400 . S
C1103 C1108 1.490 . S
C1104 H1094 0.939 . S
C1104 C1103 1.400 . S
C1104 C1107 1.386 . S
H1105 C1121 0.940 . S
H1106 C1122 0.931 . S
C1107 H1095 0.929 . S
C1107 C1101 1.390 . S
C1107 C1104 1.386 . S
C1108 C1103 1.490 . S
C1108 C1110 1.395 . S
C1108 C1111 1.403 1_554 S
H1109 C1115 0.930 . S
C1110 H1096 0.930 . S
C1110 C1108 1.395 . S
C1110 C1113 1.403 1_565 S
C1111 C1108 1.403 1_556 S
C1111 C1112 1.524 . S
C1111 C1115 1.400 1_565 S
C1112 H1097 0.960 . S
C1112 H1098 0.960 . S
C1112 H1099 0.960 . S
C1112 C1111 1.524 . S
C1113 C1110 1.403 1_545 S
C1113 C1114 1.392 . S
C1113 C1117 1.495 . S
C1114 C1113 1.392 . S
C1114 C1115 1.385 1_554 S
C1114 C1116 1.478 . S
C1115 H1109 0.930 . S
C1115 C1111 1.400 1_545 S
C1115 C1114 1.385 1_556 S
C1116 C1114 1.478 . S
C1116 C1118 1.381 . S
C1116 C1122 1.383 . S
C1117 C1113 1.495 . S
C1117 H1123 0.959 . S
C1117 H1124 0.961 . S
C1117 H1125 0.960 . S
C1118 C1116 1.381 . S
C1118 C1119 1.394 . S
C1118 H1126 0.930 . S
C1119 C1118 1.394 . S
C1119 C1120 1.383 . S
C1119 H1127 0.929 . S
C1120 C1119 1.383 . S
C1120 C1121 1.377 . S
C1121 H1105 0.940 . S
C1121 C1120 1.377 . S
C1121 C1122 1.379 . S
C1122 H1106 0.931 . S
C1122 C1116 1.383 . S
C1122 C1121 1.379 . S
H1123 C1117 0.959 . S
H1124 C1117 0.961 . S
H1125 C1117 0.960 . S
H1126 C1118 0.930 . S
H1127 C1119 0.929 . S
H1128 C1136 0.929 . S
H1129 C1138 0.930 . S
H1130 C1140 0.930 . S
H1131 C1143 0.929 . S
H1132 C1146 0.930 . S
H1133 C1148 0.960 . S
H1134 C1148 0.960 . S
H1135 C1148 0.960 . S
C1136 H1128 0.929 . S
C1136 C1137 1.377 . S
C1136 C1138 1.384 . S
C1137 C1136 1.377 . S
C1137 C1143 1.390 . S
C1138 H1129 0.930 . S
C1138 C1136 1.384 . S
C1138 C1139 1.372 . S
C1139 C1138 1.372 . S
C1139 C1140 1.400 . S
C1139 C1144 1.490 . S
C1140 H1130 0.930 . S
C1140 C1139 1.400 . S
C1140 C1143 1.386 . S
H1141 C1157 0.911 1_554 S
H1142 C1158 0.930 . S
C1143 H1131 0.929 . S
C1143 C1137 1.390 . S
C1143 C1140 1.386 . S
C1144 C1139 1.490 . S
C1144 C1146 1.395 1_554 S
C1144 C1147 1.403 . S
H1145 C1151 0.930 . S
C1146 H1132 0.930 . S
C1146 C1144 1.395 1_556 S
C1146 C1149 1.403 . S
C1147 C1144 1.403 . S
C1147 C1148 1.524 . S
C1147 C1151 1.400 . S
C1148 H1133 0.960 . S
C1148 H1134 0.960 . S
C1148 H1135 0.960 . S
C1148 C1147 1.524 . S
C1149 C1146 1.403 . S
C1149 C1150 1.391 1_556 S
C1149 C1153 1.495 . S
C1150 C1149 1.391 1_554 S
C1150 C1151 1.387 . S
C1150 C1152 1.478 1_554 S
C1151 H1145 0.930 . S
C1151 C1147 1.400 . S
C1151 C1150 1.387 . S
C1152 C1150 1.478 1_556 S
C1152 C1154 1.381 . S
C1152 C1158 1.384 1_556 S
C1153 C1149 1.495 . S
C1153 H1159 0.959 . S
C1153 H1160 0.961 . S
C1153 H1161 0.960 . S
C1154 C1152 1.381 . S
C1154 C1155 1.394 . S
C1154 H1162 0.930 . S
C1155 C1154 1.394 . S
C1155 C1156 1.383 . S
C1155 H1163 0.929 . S
C1156 C1155 1.383 . S
C1156 C1157 1.381 . S
C1157 H1141 0.911 1_556 S
C1157 C1156 1.381 . S
C1157 C1158 1.380 1_556 S
C1158 H1142 0.930 . S
C1158 C1152 1.384 1_554 S
C1158 C1157 1.380 1_554 S
H1159 C1153 0.959 . S
H1160 C1153 0.961 . S
H1161 C1153 0.960 . S
H1162 C1154 0.930 . S
H1163 C1155 0.929 . S
H1164 C1172 0.929 . S
H1165 C1174 0.930 . S
H1166 C1176 0.901 1_556 S
H1167 C1179 0.929 . S
H1168 C1182 0.930 . S
H1169 C1184 0.960 . S
H1170 C1184 0.960 . S
H1171 C1184 0.960 . S
C1172 H1164 0.929 . S
C1172 C1173 1.377 . S
C1172 C1174 1.384 . S
C1173 C1172 1.377 . S
C1173 C1179 1.390 . S
C1174 H1165 0.930 . S
C1174 C1172 1.384 . S
C1174 C1175 1.372 . S
C1175 C1174 1.372 . S
C1175 C1176 1.400 . S
C1175 C1180 1.490 . S
C1176 H1166 0.901 1_554 S
C1176 C1175 1.400 . S
C1176 C1179 1.386 . S
H1177 C1193 0.930 . S
H1178 C1194 0.932 1_556 S
C1179 H1167 0.929 . S
C1179 C1173 1.390 . S
C1179 C1176 1.386 . S
C1180 C1175 1.490 . S
C1180 C1182 1.395 . S
C1180 C1183 1.403 1_554 S
H1181 C1187 0.930 . S
C1182 H1168 0.930 . S
C1182 C1180 1.395 . S
C1182 C1185 1.403 . S
C1183 C1180 1.403 1_556 S
C1183 C1184 1.524 . S
C1183 C1187 1.400 . S
C1184 H1169 0.960 . S
C1184 H1170 0.960 . S
C1184 H1171 0.960 . S
C1184 C1183 1.524 . S
C1185 C1182 1.403 . S
C1185 C1186 1.392 . S
C1185 C1189 1.495 . S
C1186 C1185 1.392 . S
C1186 C1187 1.385 1_554 S
C1186 C1188 1.478 . S
C1187 H1181 0.930 . S
C1187 C1183 1.400 . S
C1187 C1186 1.385 1_556 S
C1188 C1186 1.478 . S
C1188 C1190 1.381 . S
C1188 C1194 1.382 . S
C1189 C1185 1.495 . S
C1189 H1195 0.959 . S
C1189 H1196 0.961 . S
C1189 H1197 0.960 . S
C1190 C1188 1.381 . S
C1190 C1191 1.394 . S
C1190 H1198 0.930 . S
C1191 C1190 1.394 . S
C1191 C1192 1.382 1_554 S
C1191 H1199 0.929 . S
C1192 C1191 1.382 1_556 S
C1192 C1193 1.378 . S
C1193 H1177 0.930 . S
C1193 C1192 1.378 . S
C1193 C1194 1.380 1_556 S
C1194 H1178 0.932 1_554 S
C1194 C1188 1.382 . S
C1194 C1193 1.380 1_554 S
H1195 C1189 0.959 . S
H1196 C1189 0.961 . S
H1197 C1189 0.960 . S
H1198 C1190 0.930 . S
H1199 C1191 0.929 . S
H1200 C1208 0.929 . S
H1201 C1210 0.930 . S
H1202 C1212 0.930 . S
H1203 C1215 0.929 . S
H1204 C1218 0.930 . S
H1205 C1220 0.960 1_655 S
H1206 C1220 0.960 . S
H1207 C1220 0.960 . S
C1208 H1200 0.929 . S
C1208 C1209 1.377 . S
C1208 C1210 1.384 . S
C1209 C1208 1.377 . S
C1209 C1215 1.390 . S
C1210 H1201 0.930 . S
C1210 C1208 1.384 . S
C1210 C1211 1.372 . S
C1211 C1210 1.372 . S
C1211 C1212 1.400 . S
C1211 C1216 1.490 . S
C1212 H1202 0.930 . S
C1212 C1211 1.400 . S
C1212 C1215 1.386 . S
H1213 C1229 0.930 . S
H1214 C1230 0.931 . S
C1215 H1203 0.929 . S
C1215 C1209 1.390 . S
C1215 C1212 1.386 . S
C1216 C1211 1.490 . S
C1216 C1218 1.395 . S
C1216 C1219 1.403 . S
H1217 C1223 0.930 . S
C1218 H1204 0.930 . S
C1218 C1216 1.395 . S
C1218 C1221 1.403 . S
C1219 C1216 1.403 . S
C1219 C1220 1.524 . S
C1219 C1223 1.400 1_455 S
C1220 H1205 0.960 1_455 S
C1220 H1206 0.960 . S
C1220 H1207 0.960 . S
C1220 C1219 1.524 . S
C1221 C1218 1.403 . S
C1221 C1222 1.392 1_455 S
C1221 C1225 1.495 . S
C1222 C1221 1.392 1_655 S
C1222 C1223 1.385 . S
C1222 C1224 1.478 . S
C1223 H1217 0.930 . S
C1223 C1219 1.400 1_655 S
C1223 C1222 1.385 . S
C1224 C1222 1.478 . S
C1224 C1226 1.381 . S
C1224 C1230 1.383 . S
C1225 C1221 1.495 . S
C1225 H1231 0.959 . S
C1225 H1232 0.963 1_455 S
C1225 H1233 0.960 . S
C1226 C1224 1.381 . S
C1226 C1227 1.394 . S
C1226 H1234 0.930 . S
C1227 C1226 1.394 . S
C1227 C1228 1.383 . S
C1227 H1235 0.929 . S
C1228 C1227 1.383 . S
C1228 C1229 1.377 . S
C1229 H1213 0.930 . S
C1229 C1228 1.377 . S
C1229 C1230 1.379 . S
C1230 H1214 0.931 . S
C1230 C1224 1.383 . S
C1230 C1229 1.379 . S
H1231 C1225 0.959 . S
H1232 C1225 0.963 1_655 S
H1233 C1225 0.960 . S
H1234 C1226 0.930 . S
H1235 C1227 0.929 . S
H1236 C1244 0.929 . S
H1237 C1246 0.930 . S
H1238 C1248 0.930 . S
H1239 C1251 0.929 . S
H1240 C1254 0.930 . S
H1241 C1256 0.960 . S
H1242 C1256 0.960 . S
H1243 C1256 0.960 . S
C1244 H1236 0.929 . S
C1244 C1245 1.377 . S
C1244 C1246 1.384 . S
C1245 C1244 1.377 . S
C1245 C1251 1.390 . S
C1246 H1237 0.930 . S
C1246 C1244 1.384 . S
C1246 C1247 1.372 . S
C1247 C1246 1.372 . S
C1247 C1248 1.400 . S
C1247 C1252 1.490 . S
C1248 H1238 0.930 . S
C1248 C1247 1.400 . S
C1248 C1251 1.386 . S
H1249 C1265 0.930 . S
H1250 C1266 0.931 . S
C1251 H1239 0.929 . S
C1251 C1245 1.390 . S
C1251 C1248 1.386 . S
C1252 C1247 1.490 . S
C1252 C1254 1.395 . S
C1252 C1255 1.403 . S
H1253 C1259 0.930 . S
C1254 H1240 0.930 . S
C1254 C1252 1.395 . S
C1254 C1257 1.403 . S
C1255 C1252 1.403 . S
C1255 C1256 1.524 . S
C1255 C1259 1.400 . S
C1256 H1241 0.960 . S
C1256 H1242 0.960 . S
C1256 H1243 0.960 . S
C1256 C1255 1.524 . S
C1257 C1254 1.403 . S
C1257 C1258 1.392 . S
C1257 C1261 1.495 . S
C1258 C1257 1.392 . S
C1258 C1259 1.385 . S
C1258 C1260 1.478 . S
C1259 H1253 0.930 . S
C1259 C1255 1.400 . S
C1259 C1258 1.385 . S
C1260 C1258 1.478 . S
C1260 C1262 1.381 . S
C1260 C1266 1.383 . S
C1261 C1257 1.495 . S
C1261 H1267 0.959 . S
C1261 H1268 0.961 . S
C1261 H1269 0.960 . S
C1262 C1260 1.381 . S
C1262 C1263 1.394 . S
C1262 H1270 0.930 . S
C1263 C1262 1.394 . S
C1263 C1264 1.383 . S
C1263 H1271 0.929 . S
C1264 C1263 1.383 . S
C1264 C1265 1.377 . S
C1265 H1249 0.930 . S
C1265 C1264 1.377 . S
C1265 C1266 1.379 . S
C1266 H1250 0.931 . S
C1266 C1260 1.383 . S
C1266 C1265 1.379 . S
H1267 C1261 0.959 . S
H1268 C1261 0.961 . S
H1269 C1261 0.960 . S
H1270 C1262 0.930 . S
H1271 C1263 0.929 . S
H1272 C1280 0.929 . S
H1273 C1282 0.930 . S
H1274 C1284 0.930 . S
H1275 C1287 0.929 . S
H1276 C1290 0.930 . S
H1277 C1292 0.960 . S
H1278 C1292 0.960 . S
H1279 C1292 0.960 . S
C1280 H1272 0.929 . S
C1280 C1281 1.377 . S
C1280 C1282 1.384 . S
C1281 C1280 1.377 . S
C1281 C1287 1.390 . S
C1282 H1273 0.930 . S
C1282 C1280 1.384 . S
C1282 C1283 1.372 . S
C1283 C1282 1.372 . S
C1283 C1284 1.400 . S
C1283 C1288 1.490 . S
C1284 H1274 0.930 . S
C1284 C1283 1.400 . S
C1284 C1287 1.386 . S
H1285 C1301 0.930 . S
H1286 C1302 0.931 . S
C1287 H1275 0.929 . S
C1287 C1281 1.390 . S
C1287 C1284 1.386 . S
C1288 C1283 1.490 . S
C1288 C1290 1.395 . S
C1288 C1291 1.403 . S
H1289 C1295 0.930 . S
C1290 H1276 0.930 . S
C1290 C1288 1.395 . S
C1290 C1293 1.403 . S
C1291 C1288 1.403 . S
C1291 C1292 1.524 . S
C1291 C1295 1.400 . S
C1292 H1277 0.960 . S
C1292 H1278 0.960 . S
C1292 H1279 0.960 . S
C1292 C1291 1.524 . S
C1293 C1290 1.403 . S
C1293 C1294 1.392 . S
C1293 C1297 1.495 . S
C1294 C1293 1.392 . S
C1294 C1295 1.385 . S
C1294 C1296 1.478 . S
C1295 H1289 0.930 . S
C1295 C1291 1.400 . S
C1295 C1294 1.385 . S
C1296 C1294 1.478 . S
C1296 C1298 1.381 . S
C1296 C1302 1.383 . S
C1297 C1293 1.495 . S
C1297 H1303 0.959 . S
C1297 H1304 0.961 . S
C1297 H1305 0.960 . S
C1298 C1296 1.381 . S
C1298 C1299 1.394 . S
C1298 H1306 0.930 . S
C1299 C1298 1.394 . S
C1299 C1300 1.383 . S
C1299 H1307 0.929 . S
C1300 C1299 1.383 . S
C1300 C1301 1.377 . S
C1301 H1285 0.930 . S
C1301 C1300 1.377 . S
C1301 C1302 1.379 . S
C1302 H1286 0.931 . S
C1302 C1296 1.383 . S
C1302 C1301 1.379 . S
H1303 C1297 0.959 . S
H1304 C1297 0.961 . S
H1305 C1297 0.960 . S
H1306 C1298 0.930 . S
H1307 C1299 0.929 . S
H1308 C1316 0.929 . S
H1309 C1318 0.930 . S
H1310 C1320 0.930 . S
H1311 C1323 0.929 . S
H1312 C1326 0.930 . S
H1313 C1328 0.960 . S
H1314 C1328 0.960 1_655 S
H1315 C1328 0.960 . S
C1316 H1308 0.929 . S
C1316 C1317 1.377 . S
C1316 C1318 1.384 . S
C1317 C1316 1.377 . S
C1317 C1323 1.390 . S
C1318 H1309 0.930 . S
C1318 C1316 1.384 . S
C1318 C1319 1.372 . S
C1319 C1318 1.372 . S
C1319 C1320 1.400 . S
C1319 C1324 1.490 . S
C1320 H1310 0.930 . S
C1320 C1319 1.400 . S
C1320 C1323 1.386 . S
H1321 C1337 0.930 . S
H1322 C1338 0.931 . S
C1323 H1311 0.929 . S
C1323 C1317 1.390 . S
C1323 C1320 1.386 . S
C1324 C1319 1.490 . S
C1324 C1326 1.395 1_545 S
C1324 C1327 1.403 1_655 S
H1325 C1331 0.930 . S
C1326 H1312 0.930 . S
C1326 C1324 1.395 1_565 S
C1326 C1329 1.403 1_655 S
C1327 C1324 1.403 1_455 S
C1327 C1328 1.524 . S
C1327 C1331 1.400 . S
C1328 H1313 0.960 . S
C1328 H1314 0.960 1_455 S
C1328 H1315 0.960 . S
C1328 C1327 1.524 . S
C1329 C1326 1.403 1_455 S
C1329 C1330 1.392 . S
C1329 C1333 1.495 . S
C1330 C1329 1.392 . S
C1330 C1331 1.385 1_565 S
C1330 C1332 1.478 . S
C1331 H1325 0.930 . S
C1331 C1327 1.400 . S
C1331 C1330 1.385 1_545 S
C1332 C1330 1.478 . S
C1332 C1334 1.381 . S
C1332 C1338 1.383 . S
C1333 C1329 1.495 . S
C1333 H1339 0.959 1_455 S
C1333 H1340 0.961 . S
C1333 H1341 0.960 . S
C1334 C1332 1.381 . S
C1334 C1335 1.394 . S
C1334 H1342 0.930 . S
C1335 C1334 1.394 . S
C1335 C1336 1.383 . S
C1335 H1343 0.929 . S
C1336 C1335 1.383 . S
C1336 C1337 1.377 . S
C1337 H1321 0.930 . S
C1337 C1336 1.377 . S
C1337 C1338 1.379 . S
C1338 H1322 0.931 . S
C1338 C1332 1.383 . S
C1338 C1337 1.379 . S
H1339 C1333 0.959 1_655 S
H1340 C1333 0.961 . S
H1341 C1333 0.960 . S
H1342 C1334 0.930 . S
H1343 C1335 0.929 . S
H1344 C1352 0.929 . S
H1345 C1354 0.930 . S
H1346 C1356 0.930 . S
H1347 C1359 0.929 . S
H1348 C1362 0.930 . S
H1349 C1364 0.960 . S
H1350 C1364 0.960 . S
H1351 C1364 0.960 . S
C1352 H1344 0.929 . S
C1352 C1353 1.377 . S
C1352 C1354 1.384 . S
C1353 C1352 1.377 . S
C1353 C1359 1.390 . S
C1354 H1345 0.930 . S
C1354 C1352 1.384 . S
C1354 C1355 1.372 . S
C1355 C1354 1.372 . S
C1355 C1356 1.400 . S
C1355 C1360 1.490 . S
C1356 H1346 0.930 . S
C1356 C1355 1.400 . S
C1356 C1359 1.386 . S
H1357 C1373 0.930 . S
H1358 C1374 0.931 . S
C1359 H1347 0.929 . S
C1359 C1353 1.390 . S
C1359 C1356 1.386 . S
C1360 C1355 1.490 . S
C1360 C1362 1.395 . S
C1360 C1363 1.403 . S
H1361 C1367 0.930 . S
C1362 H1348 0.930 . S
C1362 C1360 1.395 . S
C1362 C1365 1.403 . S
C1363 C1360 1.403 . S
C1363 C1364 1.524 . S
C1363 C1367 1.400 . S
C1364 H1349 0.960 . S
C1364 H1350 0.960 . S
C1364 H1351 0.960 . S
C1364 C1363 1.524 . S
C1365 C1362 1.403 . S
C1365 C1366 1.392 . S
C1365 C1369 1.495 . S
C1366 C1365 1.392 . S
C1366 C1367 1.385 . S
C1366 C1368 1.478 . S
C1367 H1361 0.930 . S
C1367 C1363 1.400 . S
C1367 C1366 1.385 . S
C1368 C1366 1.478 . S
C1368 C1370 1.381 . S
C1368 C1374 1.383 . S
C1369 C1365 1.495 . S
C1369 H1375 0.959 . S
C1369 H1376 0.961 . S
C1369 H1377 0.960 . S
C1370 C1368 1.381 . S
C1370 C1371 1.394 . S
C1370 H1378 0.930 . S
C1371 C1370 1.394 . S
C1371 C1372 1.383 . S
C1371 H1379 0.929 . S
C1372 C1371 1.383 . S
C1372 C1373 1.377 . S
C1373 H1357 0.930 . S
C1373 C1372 1.377 . S
C1373 C1374 1.379 . S
C1374 H1358 0.931 . S
C1374 C1368 1.383 . S
C1374 C1373 1.379 . S
H1375 C1369 0.959 . S
H1376 C1369 0.961 . S
H1377 C1369 0.960 . S
H1378 C1370 0.930 . S
H1379 C1371 0.929 . S
H1380 C1388 0.929 . S
H1381 C1390 0.930 . S
H1382 C1392 0.930 . S
H1383 C1395 0.929 . S
H1384 C1398 0.930 . S
H1385 C1400 0.960 . S
H1386 C1400 0.960 . S
H1387 C1400 0.960 . S
C1388 H1380 0.929 . S
C1388 C1389 1.377 . S
C1388 C1390 1.384 . S
C1389 C1388 1.377 . S
C1389 C1395 1.390 . S
C1390 H1381 0.930 . S
C1390 C1388 1.384 . S
C1390 C1391 1.372 . S
C1391 C1390 1.372 . S
C1391 C1392 1.400 . S
C1391 C1396 1.490 . S
C1392 H1382 0.930 . S
C1392 C1391 1.400 . S
C1392 C1395 1.386 . S
H1393 C1409 0.930 . S
H1394 C1410 0.931 . S
C1395 H1383 0.929 . S
C1395 C1389 1.390 . S
C1395 C1392 1.386 . S
C1396 C1391 1.490 . S
C1396 C1398 1.395 1_565 S
C1396 C1399 1.403 . S
H1397 C1403 0.930 . S
C1398 H1384 0.930 . S
C1398 C1396 1.395 1_545 S
C1398 C1401 1.403 . S
C1399 C1396 1.403 . S
C1399 C1400 1.524 . S
C1399 C1403 1.400 . S
C1400 H1385 0.960 . S
C1400 H1386 0.960 . S
C1400 H1387 0.960 . S
C1400 C1399 1.524 . S
C1401 C1398 1.403 . S
C1401 C1402 1.392 . S
C1401 C1405 1.495 . S
C1402 C1401 1.392 . S
C1402 C1403 1.385 1_545 S
C1402 C1404 1.478 . S
C1403 H1397 0.930 . S
C1403 C1399 1.400 . S
C1403 C1402 1.385 1_565 S
C1404 C1402 1.478 . S
C1404 C1406 1.381 . S
C1404 C1410 1.383 . S
C1405 C1401 1.495 . S
C1405 H1411 0.959 . S
C1405 H1412 0.961 . S
C1405 H1413 0.960 . S
C1406 C1404 1.381 . S
C1406 C1407 1.394 . S
C1406 H1414 0.930 . S
C1407 C1406 1.394 . S
C1407 C1408 1.383 . S
C1407 H1415 0.929 . S
C1408 C1407 1.383 . S
C1408 C1409 1.377 . S
C1409 H1393 0.930 . S
C1409 C1408 1.377 . S
C1409 C1410 1.379 . S
C1410 H1394 0.931 . S
C1410 C1404 1.383 . S
C1410 C1409 1.379 . S
H1411 C1405 0.959 . S
H1412 C1405 0.961 . S
H1413 C1405 0.960 . S
H1414 C1406 0.930 . S
H1415 C1407 0.929 . S
C273 C28 1.678 . S
C292 C58 1.710 . S
C309 C25 2.199 . S
C328 C94 2.219 . S
C345 C120 1.708 . S
C364 C57 1.688 . S
C381 C87 2.200 . S
C400 C123 2.182 . S
C417 C127 1.676 . S
C436 C157 1.713 . S
C453 C193 2.210 . S
C472 C124 2.217 . S
C489 C156 1.673 . S
C508 C21 1.693 . S
C525 C186 2.197 . S
C544 C24 2.182 . S
C561 C190 1.708 . S
C580 C226 1.666 . S
C597 C223 2.197 . S
C616 C160 2.183 . S
C633 C252 1.708 . S
C652 C189 1.666 . S
C669 C255 2.208 . S
C688 C153 2.218 . S
C705 C259 1.673 . S
C724 C91 1.695 . S
C741 C61 2.210 . S
C760 C256 2.197 . S
C777 C219 1.706 . S
C796 C90 1.683 . S
C813 C222 2.203 . S
C832 C54 2.182 . S
C849 C27 1.041 . S
C868 C23 1.074 . S
C885 C60 1.049 . S
C904 C56 1.008 . S
C921 C93 1.055 . S
C940 C89 1.085 . S
C957 C122 1.036 1_455 S
C976 C126 1.018 . S
C993 C159 1.040 . S
C1012 C155 0.993 . S
C1029 C192 1.056 . S
C1048 C188 1.077 . S
C1065 C225 1.051 . S
C1084 C221 1.018 . S
C1101 C254 1.035 . S
C1120 C258 1.015 . S
C1137 C257 0.545 . S
C1156 C22 0.510 . S
C1173 C26 0.567 . S
C1192 C253 0.611 . S
C1209 C59 0.566 . S
C1228 C88 0.549 . S
C1245 C224 0.566 . S
C1264 C121 0.547 . S
C1281 C125 0.566 . S
C1300 C220 0.549 . S
C1317 C187 0.546 . S
C1336 C158 0.501 . S
C1353 C191 0.555 . S
C1372 C154 0.503 . S
C1389 C92 0.560 . S
C1408 C55 0.518 . S
