# Generated by pormake.
# Topology uob, (4)-cn, num edge types: 1
# Building blocks:
#     Node 0, Type 0, BuildingBlock: ICAMEG_clean_sbu_1, # of connection points: 4
#     Node 1, Type 0, BuildingBlock: ICAMEG_clean_sbu_1, # of connection points: 4
#     Node 2, Type 0, BuildingBlock: ICAMEG_clean_sbu_1, # of connection points: 4
#     Node 3, Type 0, BuildingBlock: ICAMEG_clean_sbu_1, # of connection points: 4
#     Node 4, Type 0, BuildingBlock: ICAMEG_clean_sbu_1, # of connection points: 4
#     Node 5, Type 0, BuildingBlock: ICAMEG_clean_sbu_1, # of connection points: 4
#     Node 6, Type 0, BuildingBlock: ICAMEG_clean_sbu_1, # of connection points: 4
#     Node 7, Type 0, BuildingBlock: ICAMEG_clean_sbu_1, # of connection points: 4
#     Node 8, Type 0, BuildingBlock: ICAMEG_clean_sbu_1, # of connection points: 4
#     Node 9, Type 0, BuildingBlock: ICAMEG_clean_sbu_1, # of connection points: 4
#     Node 10, Type 0, BuildingBlock: ICAMEG_clean_sbu_1, # of connection points: 4
#     Node 11, Type 0, BuildingBlock: ICAMEG_clean_sbu_1, # of connection points: 4
#     Node 12, Type 0, BuildingBlock: ICAMEG_clean_sbu_1, # of connection points: 4
#     Node 13, Type 0, BuildingBlock: ICAMEG_clean_sbu_1, # of connection points: 4
#     Node 14, Type 0, BuildingBlock: ICAMEG_clean_sbu_1, # of connection points: 4
#     Node 15, Type 0, BuildingBlock: ICAMEG_clean_sbu_1, # of connection points: 4
#     Edge 16, Type (0, 0), BuildingBlock: ZUJKAS_clean_linker_0, # of connection points: 2
#     Edge 17, Type (0, 0), BuildingBlock: ZUJKAS_clean_linker_0, # of connection points: 2
#     Edge 18, Type (0, 0), BuildingBlock: ZUJKAS_clean_linker_0, # of connection points: 2
#     Edge 19, Type (0, 0), BuildingBlock: ZUJKAS_clean_linker_0, # of connection points: 2
#     Edge 20, Type (0, 0), BuildingBlock: ZUJKAS_clean_linker_0, # of connection points: 2
#     Edge 21, Type (0, 0), BuildingBlock: ZUJKAS_clean_linker_0, # of connection points: 2
#     Edge 22, Type (0, 0), BuildingBlock: ZUJKAS_clean_linker_0, # of connection points: 2
#     Edge 23, Type (0, 0), BuildingBlock: ZUJKAS_clean_linker_0, # of connection points: 2
#     Edge 24, Type (0, 0), BuildingBlock: ZUJKAS_clean_linker_0, # of connection points: 2
#     Edge 25, Type (0, 0), BuildingBlock: ZUJKAS_clean_linker_0, # of connection points: 2
#     Edge 26, Type (0, 0), BuildingBlock: ZUJKAS_clean_linker_0, # of connection points: 2
#     Edge 27, Type (0, 0), BuildingBlock: ZUJKAS_clean_linker_0, # of connection points: 2
#     Edge 28, Type (0, 0), BuildingBlock: ZUJKAS_clean_linker_0, # of connection points: 2
#     Edge 29, Type (0, 0), BuildingBlock: ZUJKAS_clean_linker_0, # of connection points: 2
#     Edge 30, Type (0, 0), BuildingBlock: ZUJKAS_clean_linker_0, # of connection points: 2
#     Edge 31, Type (0, 0), BuildingBlock: ZUJKAS_clean_linker_0, # of connection points: 2
#     Edge 32, Type (0, 0), BuildingBlock: ZUJKAS_clean_linker_0, # of connection points: 2
#     Edge 33, Type (0, 0), BuildingBlock: ZUJKAS_clean_linker_0, # of connection points: 2
#     Edge 34, Type (0, 0), BuildingBlock: ZUJKAS_clean_linker_0, # of connection points: 2
#     Edge 35, Type (0, 0), BuildingBlock: ZUJKAS_clean_linker_0, # of connection points: 2
#     Edge 36, Type (0, 0), BuildingBlock: ZUJKAS_clean_linker_0, # of connection points: 2
#     Edge 37, Type (0, 0), BuildingBlock: ZUJKAS_clean_linker_0, # of connection points: 2
#     Edge 38, Type (0, 0), BuildingBlock: ZUJKAS_clean_linker_0, # of connection points: 2
#     Edge 39, Type (0, 0), BuildingBlock: ZUJKAS_clean_linker_0, # of connection points: 2
#     Edge 40, Type (0, 0), BuildingBlock: ZUJKAS_clean_linker_0, # of connection points: 2
#     Edge 41, Type (0, 0), BuildingBlock: ZUJKAS_clean_linker_0, # of connection points: 2
#     Edge 42, Type (0, 0), BuildingBlock: ZUJKAS_clean_linker_0, # of connection points: 2
#     Edge 43, Type (0, 0), BuildingBlock: ZUJKAS_clean_linker_0, # of connection points: 2
#     Edge 44, Type (0, 0), BuildingBlock: ZUJKAS_clean_linker_0, # of connection points: 2
#     Edge 45, Type (0, 0), BuildingBlock: ZUJKAS_clean_linker_0, # of connection points: 2
#     Edge 46, Type (0, 0), BuildingBlock: ZUJKAS_clean_linker_0, # of connection points: 2
#     Edge 47, Type (0, 0), BuildingBlock: ZUJKAS_clean_linker_0, # of connection points: 2
# Relax obj value: 0.108
# Max RMSD: 0.131
# Mean RMSD: 0.131
data_MOF--net-uob--node1-ICAMEG_clean_sbu_1--edge1-ZUJKAS_clean_linker_0
_symmetry_space_group_name_H-M    P1
_symmetry_Int_Tables_number       1
_symmetry_cell_setting            triclinic
loop_
_symmetry_equiv_pos_as_xyz
'x, y, z'
_cell_length_a     73.756652
_cell_length_b     73.756315
_cell_length_c     37.423229
_cell_angle_alpha  89.988976
_cell_angle_beta   89.998259
_cell_angle_gamma 89.996088
loop_
_atom_site_label
_atom_site_type_symbol
_atom_site_fract_x
_atom_site_fract_y
_atom_site_fract_z
_atom_type_partial_charge
Co0 Co 0.10377 0.07387 0.29532 0.0
Co1 Co 0.12428 0.03185 0.3033 0.0
O2 O 0.12398 0.05719 0.28782 0.0
C3 C 0.10852 0.07362 0.21749 0.0
O4 O 0.11056 0.05599 0.21999 0.0
C5 C 0.15509 0.04857 0.34023 0.0
O6 O 0.14406 0.06204 0.34745 0.0
O7 O 0.11472 0.03824 0.3515 0.0
O8 O 0.10048 0.06497 0.34491 0.0
H9 H 0.09861 0.97536 0.35878 0.0
H10 H 0.13873 0.08807 0.26812 0.0
O11 O 0.10634 0.08312 0.24552 0.0
H12 H 0.12828 0.11986 0.3822 0.0
H13 H 0.07159 0.13383 0.28448 0.0
H14 H 0.06739 0.07095 0.32855 0.0
H15 H 0.10593 0.09785 0.35937 0.0
H16 H 0.09709 0.11258 0.27636 0.0
O17 O 0.14953 0.03512 0.32189 0.0
H18 H 0.09815 0.0073 0.33922 0.0
H19 H 0.15202 0.00253 0.30029 0.0
H20 H 0.04162 0.09178 0.3375 0.0
H21 H 0.16139 0.11009 0.28981 0.0
H22 H 0.04363 0.12347 0.31538 0.0
H23 H 0.15625 0.1261 0.34731 0.0
O24 O 0.08604 0.05557 0.27814 0.0
H25 H 0.16575 0.03838 0.19757 0.0
H26 H 0.11439 0.00423 0.24847 0.0
H27 H 0.12562 0.99648 0.18829 0.0
H28 H 0.15149 0.0136 0.16249 0.0
H29 H 0.15398 0.04578 0.25754 0.0
H30 H 0.15314 0.97057 0.31971 0.0
H31 H 0.12626 0.95677 0.34905 0.0
O32 O 0.099 0.02824 0.28562 0.0
C33 C 0.10525 0.05135 0.36357 0.0
C34 C 0.11039 0.9812 0.34592 0.0
C35 C 0.141 0.97852 0.32404 0.0
N36 N 0.12498 0.00671 0.31838 0.0
C37 C 0.11018 0.99926 0.3347 0.0
C38 C 0.1403 0.99663 0.31317 0.0
C39 C 0.12592 0.97079 0.34049 0.0
C40 C 0.13632 0.09514 0.29296 0.0
N41 N 0.12099 0.09177 0.31234 0.0
C42 C 0.14923 0.10753 0.3052 0.0
C43 C 0.14635 0.11649 0.33749 0.0
C44 C 0.13067 0.11298 0.35708 0.0
C45 C 0.11807 0.10049 0.34405 0.0
C46 C 0.07057 0.12007 0.29435 0.0
C47 C 0.06842 0.08477 0.31912 0.0
C48 C 0.08496 0.10797 0.28979 0.0
N49 N 0.0838 0.09061 0.30234 0.0
C50 C 0.05376 0.09648 0.32414 0.0
C51 C 0.05489 0.11425 0.31169 0.0
C52 C 0.08567 0.0383 0.27675 0.0
C53 C 0.15449 0.03079 0.20857 0.0
C54 C 0.12562 0.01177 0.23738 0.0
C55 C 0.13195 0.00729 0.20333 0.0
C56 C 0.14647 0.0169 0.18887 0.0
N57 N 0.13358 0.02539 0.25654 0.0
C58 C 0.14783 0.03487 0.24256 0.0
Co59 Co 0.9335 0.61315 0.52945 0.0
Co60 Co 0.97437 0.6272 0.5653 0.0
O61 O 0.95385 0.62997 0.53261 0.0
C62 C 0.94769 0.61254 0.45584 0.0
O63 O 0.96402 0.61061 0.46929 0.0
C64 C 0.95808 0.66211 0.58483 0.0
O65 O 0.94243 0.65366 0.58366 0.0
O66 O 0.95819 0.6213 0.60633 0.0
O67 O 0.93235 0.61094 0.58222 0.0
H68 H 0.01141 0.59649 0.66036 0.0
H69 H 0.93164 0.64843 0.49184 0.0
O70 O 0.93411 0.61475 0.47633 0.0
H71 H 0.88027 0.64873 0.57619 0.0
H72 H 0.87447 0.59029 0.47911 0.0
H73 H 0.92355 0.5788 0.5657 0.0
H74 H 0.90044 0.62215 0.57193 0.0
H75 H 0.90011 0.61158 0.48461 0.0
O76 O 0.97266 0.65355 0.57788 0.0
H77 H 0.98557 0.59984 0.61902 0.0
H78 H 0.00695 0.6497 0.58102 0.0
H79 H 0.89808 0.55724 0.56133 0.0
H80 H 0.91171 0.67526 0.49502 0.0
H81 H 0.87331 0.56293 0.51777 0.0
H82 H 0.88586 0.67554 0.53754 0.0
O83 O 0.95023 0.59198 0.5273 0.0
H84 H 0.99488 0.66315 0.45864 0.0
H85 H 0.00774 0.61026 0.53519 0.0
H86 H 0.02773 0.61685 0.48398 0.0
H87 H 0.02137 0.64349 0.44534 0.0
H88 H 0.97514 0.65598 0.50995 0.0
H89 H 0.03296 0.64698 0.62215 0.0
H90 H 0.03534 0.62018 0.66209 0.0
O91 O 0.97623 0.60088 0.55353 0.0
C92 C 0.94235 0.61454 0.609 0.0
C93 C 0.01057 0.60819 0.64298 0.0
C94 C 0.02265 0.63655 0.62158 0.0
N95 N 0.99487 0.62485 0.59739 0.0
C96 C 0.99601 0.61013 0.61944 0.0
C97 C 0.00788 0.63803 0.59839 0.0
C98 C 0.02398 0.6215 0.64397 0.0
C99 C 0.9203 0.6484 0.51015 0.0
N100 N 0.91717 0.63373 0.53158 0.0
C101 C 0.90911 0.66365 0.51194 0.0
C102 C 0.89462 0.6638 0.53584 0.0
C103 C 0.89149 0.64877 0.55755 0.0
C104 C 0.90298 0.63377 0.55508 0.0
C105 C 0.88516 0.58768 0.49825 0.0
C106 C 0.91276 0.58143 0.54686 0.0
C107 C 0.89973 0.59967 0.50144 0.0
N108 N 0.91323 0.59651 0.52567 0.0
C109 C 0.8984 0.56915 0.54442 0.0
C110 C 0.88452 0.57234 0.51995 0.0
C111 C 0.96629 0.58895 0.53848 0.0
C112 C 0.99782 0.65154 0.47534 0.0
C113 C 0.00485 0.62185 0.51844 0.0
C114 C 0.01624 0.62553 0.48952 0.0
C115 C 0.01267 0.64048 0.46786 0.0
N116 N 0.99035 0.63279 0.52565 0.0
C117 C 0.98673 0.64745 0.5045 0.0
Co118 Co 0.38499 0.43058 0.7876 0.0
Co119 Co 0.37137 0.47342 0.81407 0.0
O120 O 0.36758 0.45049 0.78887 0.0
C121 C 0.38063 0.43955 0.71136 0.0
O122 O 0.38211 0.45673 0.72005 0.0
C123 C 0.33964 0.45709 0.84855 0.0
O124 O 0.34888 0.4419 0.84789 0.0
O125 O 0.3814 0.461 0.85709 0.0
O126 O 0.38992 0.43323 0.83937 0.0
H127 H 0.40654 0.51903 0.88577 0.0
H128 H 0.34806 0.42511 0.7584 0.0
O129 O 0.38065 0.42739 0.73545 0.0
H130 H 0.35424 0.38022 0.85531 0.0
H131 H 0.40762 0.36923 0.74898 0.0
H132 H 0.42143 0.42426 0.81868 0.0
H133 H 0.3796 0.40062 0.84018 0.0
H134 H 0.38564 0.39438 0.75208 0.0
O135 O 0.34646 0.4715 0.83538 0.0
H136 H 0.40184 0.4901 0.85401 0.0
H137 H 0.34807 0.5057 0.82747 0.0
H138 H 0.44374 0.39937 0.81654 0.0
H139 H 0.3224 0.40487 0.77246 0.0
H140 H 0.43689 0.37161 0.78149 0.0
H141 H 0.32539 0.38227 0.82133 0.0
O142 O 0.40526 0.44754 0.77677 0.0
H143 H 0.32626 0.48369 0.71553 0.0
H144 H 0.38347 0.50471 0.76967 0.0
H145 H 0.37163 0.52015 0.71605 0.0
H146 H 0.3428 0.50967 0.68867 0.0
H147 H 0.33867 0.46855 0.76899 0.0
H148 H 0.35213 0.53474 0.85921 0.0
H149 H 0.38156 0.54158 0.88852 0.0
O150 O 0.39632 0.47542 0.79376 0.0
C151 C 0.38829 0.44545 0.86312 0.0
C152 C 0.39367 0.51623 0.873 0.0
C153 C 0.36312 0.52504 0.85814 0.0
N154 N 0.37476 0.4963 0.83867 0.0
C155 C 0.39095 0.4999 0.85489 0.0
C156 C 0.36089 0.50857 0.84028 0.0
C157 C 0.37964 0.52887 0.87457 0.0
C158 C 0.34952 0.41518 0.77945 0.0
N159 N 0.36533 0.41399 0.79833 0.0
C160 C 0.33492 0.40381 0.78739 0.0
C161 C 0.3366 0.39115 0.81485 0.0
C162 C 0.35278 0.39 0.83394 0.0
C163 C 0.36708 0.40161 0.82529 0.0
C164 C 0.41075 0.38124 0.76442 0.0
C165 C 0.4183 0.41217 0.80358 0.0
C166 C 0.39836 0.39553 0.76622 0.0
N167 N 0.40219 0.4107 0.7858 0.0
C168 C 0.43101 0.39814 0.80237 0.0
C169 C 0.42716 0.38258 0.78267 0.0
C170 C 0.40801 0.46451 0.78067 0.0
C171 C 0.33881 0.48842 0.72727 0.0
C172 C 0.37095 0.50004 0.75783 0.0
C173 C 0.36429 0.50886 0.72752 0.0
C174 C 0.34811 0.50298 0.71219 0.0
N175 N 0.36172 0.4858 0.77252 0.0
C176 C 0.34586 0.47993 0.7576 0.0
Co177 Co 0.56985 0.88515 0.03096 0.0
Co178 Co 0.52904 0.86925 0.06403 0.0
O179 O 0.55007 0.8676 0.03236 0.0
C180 C 0.55623 0.88612 0.95703 0.0
O181 O 0.53974 0.88705 0.97009 0.0
C182 C 0.54672 0.83503 0.08344 0.0
O183 O 0.56199 0.84414 0.08236 0.0
O184 O 0.54437 0.87558 0.10596 0.0
O185 O 0.57041 0.88661 0.08391 0.0
H186 H 0.4895 0.89761 0.15801 0.0
H187 H 0.57336 0.85055 0.99141 0.0
O188 O 0.56978 0.88433 0.97778 0.0
H189 H 0.62385 0.85077 0.07777 0.0
H190 H 0.62852 0.91076 0.98428 0.0
H191 H 0.57824 0.91926 0.06951 0.0
H192 H 0.60277 0.87666 0.07427 0.0
H193 H 0.60358 0.88854 0.98754 0.0
O194 O 0.53179 0.84295 0.07628 0.0
H195 H 0.51596 0.8957 0.11787 0.0
H196 H 0.49729 0.84523 0.07755 0.0
H197 H 0.60299 0.94173 0.06738 0.0
H198 H 0.59422 0.82442 0.9938 0.0
H199 H 0.62837 0.93754 0.02452 0.0
H200 H 0.61964 0.8244 0.03733 0.0
O201 O 0.55241 0.90574 0.02929 0.0
H202 H 0.51151 0.83301 0.95573 0.0
H203 H 0.49537 0.88489 0.03253 0.0
H204 H 0.47634 0.87771 0.98021 0.0
H205 H 0.48436 0.85158 0.94144 0.0
H206 H 0.53025 0.84078 0.00815 0.0
H207 H 0.4707 0.8465 0.11748 0.0
H208 H 0.46664 0.87288 0.15798 0.0
O209 O 0.52618 0.89555 0.05278 0.0
C210 C 0.56002 0.88261 0.10988 0.0
C211 C 0.49107 0.88609 0.14037 0.0
C212 C 0.48053 0.85739 0.11766 0.0
N213 N 0.50804 0.87049 0.09511 0.0
C214 C 0.50599 0.88497 0.11748 0.0
C215 C 0.49562 0.85673 0.09515 0.0
C216 C 0.47826 0.87219 0.14037 0.0
C217 C 0.5845 0.85071 0.01017 0.0
N218 N 0.58688 0.86513 0.03258 0.0
C219 C 0.59622 0.83585 0.01151 0.0
C220 C 0.61046 0.83584 0.03597 0.0
C221 C 0.61283 0.85062 0.05869 0.0
C222 C 0.60083 0.86523 0.05663 0.0
C223 C 0.61757 0.91271 0.00313 0.0
C224 C 0.5893 0.91729 0.05096 0.0
C225 C 0.60339 0.90019 0.00505 0.0
N226 N 0.58955 0.90253 0.02891 0.0
C227 C 0.60325 0.93008 0.0498 0.0
C228 C 0.61747 0.92773 0.02572 0.0
C229 C 0.53601 0.90802 0.03923 0.0
C230 C 0.50785 0.8444 0.97247 0.0
C231 C 0.49898 0.87353 0.01572 0.0
C232 C 0.48813 0.86951 0.98618 0.0
C233 C 0.49263 0.85484 0.96445 0.0
N234 N 0.51385 0.86319 0.02347 0.0
C235 C 0.51837 0.84882 0.00226 0.0
Co236 Co 0.10859 0.4262 0.03047 0.0
Co237 Co 0.12748 0.46897 0.02147 0.0
O238 O 0.12611 0.44494 0.04375 0.0
C239 C 0.10073 0.43261 0.10662 0.0
O240 O 0.10338 0.44998 0.10105 0.0
C241 C 0.16274 0.45228 0.00542 0.0
O242 O 0.15376 0.43719 -0.00022 0.0
O243 O 0.1244 0.45879 0.97241 0.0
O244 O 0.1133 0.43068 0.97921 0.0
H245 H 0.10728 0.51906 0.93962 0.0
H246 H 0.13782 0.41752 0.0819 0.0
O247 O 0.10316 0.4212 0.08163 0.0
H248 H 0.14697 0.37565 0.98078 0.0
H249 H 0.07792 0.36546 0.04174 0.0
H250 H 0.07973 0.42328 0.97565 0.0
H251 H 0.12153 0.39735 0.98061 0.0
H252 H 0.10012 0.38912 0.05772 0.0
O253 O 0.15438 0.46644 0.01585 0.0
H254 H 0.10564 0.48883 0.96766 0.0
H255 H 0.15279 0.50026 0.0288 0.0
H256 H 0.05742 0.39993 0.95857 0.0
H257 H 0.16335 0.39591 0.08336 0.0
H258 H 0.05642 0.37077 0.99175 0.0
H259 H 0.16809 0.37482 0.03246 0.0
O260 O 0.08835 0.44408 0.02984 0.0
H261 H 0.155 0.47255 0.14404 0.0
H262 H 0.11013 0.49926 0.0617 0.0
H263 H 0.11337 0.51176 0.12251 0.0
H264 H 0.13595 0.49839 0.16412 0.0
H265 H 0.1512 0.46039 0.08307 0.0
H266 H 0.15504 0.53056 0.0012 0.0
H267 H 0.13213 0.54015 0.95637 0.0
O268 O 0.10073 0.47187 0.02594 0.0
C269 C 0.11895 0.44368 0.95985 0.0
C270 C 0.11731 0.51506 0.95921 0.0
C271 C 0.14413 0.5215 0.99374 0.0
N272 N 0.12901 0.49286 4e-05 0.0
C273 C 0.11642 0.49799 0.97525 0.0
C274 C 0.1428 0.50432 0.00922 0.0
C275 C 0.13127 0.52688 0.96859 0.0
C276 C 0.13971 0.40827 0.05982 0.0
N277 N 0.12818 0.40866 0.03126 0.0
C278 C 0.15423 0.39611 0.06072 0.0
C279 C 0.15689 0.3843 0.03213 0.0
C280 C 0.14505 0.38477 0.00311 0.0
C281 C 0.1307 0.39712 0.00312 0.0
C282 C 0.07825 0.37809 0.02704 0.0
C283 C 0.07945 0.41058 0.99005 0.0
C284 C 0.09077 0.39156 0.03601 0.0
N285 N 0.09131 0.40751 0.01745 0.0
C286 C 0.06676 0.39743 0.98033 0.0
C287 C 0.06619 0.38108 -0.00102 0.0
C288 C 0.08709 0.46132 0.02836 0.0
C289 C 0.14514 0.47852 0.12612 0.0
C290 C 0.11996 0.49335 0.07969 0.0
C291 C 0.12176 0.50051 0.11406 0.0
C292 C 0.13444 0.49301 0.13739 0.0
N293 N 0.13054 0.47916 0.06883 0.0
C294 C 0.14299 0.47174 0.09154 0.0
Co295 Co 0.56947 0.60598 0.28784 0.0
Co296 Co 0.52845 0.6241 0.26162 0.0
O297 O 0.55223 0.62597 0.28442 0.0
C298 C 0.56488 0.61763 0.36228 0.0
O299 O 0.54739 0.61835 0.35591 0.0
C300 C 0.54633 0.65412 0.2241 0.0
O301 O 0.56047 0.64341 0.22127 0.0
O302 O 0.53916 0.61283 0.2182 0.0
O303 O 0.56352 0.59778 0.23861 0.0
H304 H 0.47866 0.59324 0.19306 0.0
H305 H 0.58168 0.64331 0.30449 0.0
O306 O 0.57585 0.6135 0.33738 0.0
H307 H 0.61977 0.62338 0.20356 0.0
H308 H 0.62882 0.57725 0.32272 0.0
H309 H 0.56886 0.56707 0.26801 0.0
H310 H 0.59689 0.60286 0.2295 0.0
H311 H 0.60695 0.60239 0.31693 0.0
O312 O 0.53207 0.64862 0.23995 0.0
H313 H 0.50857 0.59541 0.22229 0.0
H314 H 0.49793 0.65003 0.25131 0.0
H315 H 0.59036 0.54158 0.27301 0.0
H316 H 0.60451 0.66423 0.27955 0.0
H317 H 0.62059 0.5466 0.30052 0.0
H318 H 0.6237 0.65432 0.22862 0.0
O319 O 0.55047 0.58965 0.30737 0.0
H320 H 0.52437 0.67033 0.35988 0.0
H321 H 0.49725 0.61494 0.30902 0.0
H322 H 0.48422 0.62824 0.36377 0.0
H323 H 0.49779 0.65616 0.38951 0.0
H324 H 0.53709 0.65647 0.30538 0.0
H325 H 0.46797 0.64853 0.22211 0.0
H326 H 0.45813 0.61994 0.19287 0.0
O327 O 0.5245 0.59945 0.28244 0.0
C328 C 0.55229 0.6018 0.214 0.0
C329 C 0.48275 0.60574 0.20587 0.0
C330 C 0.47676 0.63678 0.22213 0.0
N331 N 0.50487 0.62274 0.2389 0.0
C332 C 0.49963 0.60702 0.22259 0.0
C333 C 0.49374 0.63756 0.23858 0.0
C334 C 0.47125 0.62074 0.20573 0.0
C335 C 0.59012 0.63884 0.28259 0.0
N336 N 0.58802 0.62187 0.26859 0.0
C337 C 0.60297 0.65077 0.26847 0.0
C338 C 0.61371 0.64521 0.23986 0.0
C339 C 0.6115 0.62786 0.22577 0.0
C340 C 0.5985 0.61631 0.24052 0.0
C341 C 0.61571 0.57491 0.31059 0.0
C342 C 0.58203 0.56938 0.27979 0.0
C343 C 0.60326 0.58908 0.30729 0.0
N344 N 0.58671 0.58623 0.29183 0.0
C345 C 0.59413 0.55489 0.28265 0.0
C346 C 0.61108 0.55771 0.29812 0.0
C347 C 0.5336 0.58803 0.30074 0.0
C348 C 0.51831 0.6582 0.34886 0.0
C349 C 0.50327 0.62705 0.32013 0.0
C350 C 0.4958 0.63455 0.35108 0.0
C351 C 0.50341 0.65022 0.3655 0.0
N352 N 0.51787 0.63497 0.30395 0.0
C353 C 0.52541 0.65034 0.31792 0.0
Co354 Co 0.38437 0.07033 0.53916 0.0
Co355 Co 0.36875 0.02917 0.50722 0.0
O356 O 0.36707 0.05032 0.53861 0.0
C357 C 0.38613 0.05696 0.61323 0.0
O358 O 0.387 0.04043 0.60033 0.0
C359 C 0.33433 0.0465 0.48826 0.0
O360 O 0.34331 0.06184 0.48941 0.0
O361 O 0.37474 0.04437 0.46489 0.0
O362 O 0.38534 0.07075 0.48617 0.0
H363 H 0.39706 0.98947 0.41345 0.0
H364 H 0.35011 0.07353 0.57993 0.0
O365 O 0.38405 0.07043 0.59238 0.0
H366 H 0.34885 0.12373 0.49292 0.0
H367 H 0.40962 0.12951 0.58409 0.0
H368 H 0.41801 0.07902 0.4993 0.0
H369 H 0.37505 0.103 0.49575 0.0
H370 H 0.38771 0.10426 0.582 0.0
O371 O 0.34237 0.03163 0.49531 0.0
H372 H 0.39508 0.01611 0.45313 0.0
H373 H 0.34497 0.99714 0.49469 0.0
H374 H 0.44016 0.10409 0.50025 0.0
H375 H 0.32368 0.09403 0.57824 0.0
H376 H 0.43603 0.12956 0.54289 0.0
H377 H 0.32292 0.1193 0.53438 0.0
O378 O 0.40518 0.05317 0.54035 0.0
H379 H 0.33316 0.01179 0.61645 0.0
H380 H 0.38485 0.9958 0.53904 0.0
H381 H 0.37809 0.97695 0.59185 0.0
H382 H 0.35205 0.98489 0.63092 0.0
H383 H 0.3405 0.03035 0.56354 0.0
H384 H 0.34632 0.97038 0.45523 0.0
H385 H 0.37255 0.96638 0.41435 0.0
O386 O 0.39512 0.02662 0.51805 0.0
C387 C 0.38141 0.06015 0.4605 0.0
C388 C 0.38561 0.99102 0.43126 0.0
C389 C 0.35711 0.98031 0.45467 0.0
N390 N 0.37004 0.00805 0.47648 0.0
C391 C 0.38445 0.00603 0.45389 0.0
C392 C 0.35641 0.9955 0.47691 0.0
C393 C 0.37184 0.97808 0.43175 0.0
C394 C 0.34994 0.08461 0.56103 0.0
N395 N 0.36412 0.08711 0.53807 0.0
C396 C 0.33492 0.09613 0.56009 0.0
C397 C 0.33449 0.11029 0.53544 0.0
C398 C 0.34902 0.11277 0.51215 0.0
C399 C 0.36381 0.10097 0.51383 0.0
C400 C 0.41154 0.11851 0.56533 0.0
C401 C 0.41606 0.09013 0.51776 0.0
C402 C 0.39921 0.10416 0.56408 0.0
N403 N 0.40151 0.09027 0.54034 0.0
C404 C 0.42867 0.10425 0.51825 0.0
C405 C 0.42636 0.11853 0.54221 0.0
C406 C 0.40758 0.03671 0.53089 0.0
C407 C 0.34451 0.00816 0.59957 0.0
C408 C 0.37353 0.99937 0.55599 0.0
C409 C 0.36975 0.98863 0.5858 0.0
C410 C 0.35513 0.99308 0.6077 0.0
N411 N 0.36301 0.0141 0.54814 0.0
C412 C 0.34869 0.01858 0.56952 0.0
Co413 Co 0.93428 0.88895 0.7845 0.0
Co414 Co 0.97545 0.8777 0.74657 0.0
O415 O 0.95442 0.87234 0.77646 0.0
C416 C 0.94682 0.88142 0.85775 0.0
O417 O 0.96339 0.88488 0.84691 0.0
C418 C 0.95939 0.84513 0.71478 0.0
O419 O 0.94389 0.85382 0.7166 0.0
O420 O 0.95994 0.88703 0.70715 0.0
O421 O 0.93437 0.89662 0.73358 0.0
H422 H 0.01398 0.91556 0.66473 0.0
H423 H 0.931 0.85055 0.80689 0.0
O424 O 0.93367 0.88178 0.83578 0.0
H425 H 0.88171 0.86024 0.71994 0.0
H426 H 0.87451 0.9075 0.8382 0.0
H427 H 0.92568 0.92656 0.76213 0.0
H428 H 0.90214 0.88533 0.73655 0.0
H429 H 0.89994 0.88663 0.82629 0.0
O430 O 0.97389 0.85273 0.7257 0.0
H431 H 0.98748 0.909 0.70283 0.0
H432 H 0.00828 0.85661 0.72595 0.0
H433 H 0.90045 0.94781 0.77309 0.0
H434 H 0.9108 0.82511 0.79123 0.0
H435 H 0.87463 0.93831 0.81138 0.0
H436 H 0.88598 0.82987 0.74735 0.0
O437 O 0.95127 0.90904 0.79633 0.0
H438 H 0.99425 0.83325 0.84138 0.0
H439 H 0.00831 0.89173 0.78378 0.0
H440 H 0.02749 0.88086 0.83335 0.0
H441 H 0.02052 0.8514 0.86245 0.0
H442 H 0.97533 0.84471 0.79193 0.0
H443 H 0.03494 0.86253 0.68785 0.0
H444 H 0.03794 0.89221 0.65705 0.0
O445 O 0.97711 0.90272 0.76672 0.0
C446 C 0.94453 0.89486 0.70631 0.0
C447 C 0.01287 0.9026 0.67814 0.0
C448 C 0.02462 0.87283 0.69108 0.0
N449 N 0.99646 0.88254 0.71693 0.0
C450 C 0.99793 0.89885 0.69986 0.0
C451 C 0.00949 0.86955 0.71257 0.0
C452 C 0.0263 0.88949 0.67381 0.0
C453 C 0.92012 0.85277 0.78806 0.0
N454 N 0.91771 0.86942 0.77277 0.0
C455 C 0.90877 0.8383 0.77918 0.0
C456 C 0.89486 0.84097 0.75452 0.0
C457 C 0.89247 0.858 0.73911 0.0
C458 C 0.9041 0.87215 0.74857 0.0
C459 C 0.88566 0.91178 0.82139 0.0
C460 C 0.91443 0.92229 0.77862 0.0
C461 C 0.90011 0.90004 0.81461 0.0
N462 N 0.9142 0.90533 0.79327 0.0
C463 C 0.90021 0.9344 0.78482 0.0
C464 C 0.88574 0.92906 0.80633 0.0
C465 C 0.9673 0.91303 0.78615 0.0
C466 C 0.99745 0.84609 0.82885 0.0
C467 C 0.00516 0.87892 0.79639 0.0
C468 C 0.01609 0.87282 0.82439 0.0
C469 C 0.01218 0.85629 0.84069 0.0
N470 N 0.99078 0.86881 0.78486 0.0
C471 C 0.98683 0.85261 0.80075 0.0
Co472 Co 0.60587 0.57144 0.7903 0.0
Co473 Co 0.62318 0.52872 0.80748 0.0
O474 O 0.62513 0.55332 0.7884 0.0
C475 C 0.6138 0.56807 0.71367 0.0
O476 O 0.61442 0.55046 0.71858 0.0
C477 C 0.65359 0.54503 0.8464 0.0
O478 O 0.64304 0.55919 0.85064 0.0
O479 O 0.61223 0.53755 0.85293 0.0
O480 O 0.59996 0.56467 0.84024 0.0
H481 H 0.59181 0.47628 0.86687 0.0
H482 H 0.64275 0.58231 0.76725 0.0
O483 O 0.61112 0.57862 0.74003 0.0
H484 H 0.62989 0.61894 0.87452 0.0
H485 H 0.5784 0.63269 0.7658 0.0
H486 H 0.5682 0.57214 0.81799 0.0
H487 H 0.60704 0.59763 0.85101 0.0
H488 H 0.60263 0.60963 0.76492 0.0
O489 O 0.64788 0.53123 0.82926 0.0
H490 H 0.59419 0.5073 0.84266 0.0
H491 H 0.64896 0.49776 0.81312 0.0
H492 H 0.54365 0.59483 0.81971 0.0
H493 H 0.66594 0.60355 0.78971 0.0
H494 H 0.54868 0.62536 0.79348 0.0
H495 H 0.65959 0.62199 0.8438 0.0
O496 O 0.58764 0.55366 0.77278 0.0
H497 H 0.66882 0.52841 0.70781 0.0
H498 H 0.61353 0.49964 0.75553 0.0
H499 H 0.62644 0.48878 0.69863 0.0
H500 H 0.65431 0.50317 0.67444 0.0
H501 H 0.65535 0.53896 0.76446 0.0
H502 H 0.64724 0.46668 0.83731 0.0
H503 H 0.61847 0.45574 0.86428 0.0
O504 O 0.59843 0.526 0.78655 0.0
C505 C 0.60309 0.55156 0.86151 0.0
C506 C 0.6044 0.48087 0.85508 0.0
C507 C 0.63552 0.47549 0.83853 0.0
N508 N 0.62165 0.50426 0.82624 0.0
C509 C 0.60581 0.4984 0.84123 0.0
C510 C 0.63643 0.49311 0.82495 0.0
C511 C 0.61937 0.46936 0.85365 0.0
C512 C 0.63982 0.59044 0.79057 0.0
N513 N 0.62354 0.58881 0.80767 0.0
C514 C 0.65303 0.60238 0.80326 0.0
C515 C 0.64947 0.6127 0.83365 0.0
C516 C 0.63281 0.61099 0.85091 0.0
C517 C 0.61994 0.59888 0.8375 0.0
C518 C 0.57606 0.61945 0.77741 0.0
C519 C 0.57053 0.58544 0.80675 0.0
C520 C 0.58972 0.60633 0.77694 0.0
N521 N 0.58688 0.58962 0.79169 0.0
C522 C 0.55656 0.59821 0.8077 0.0
C523 C 0.55939 0.61533 0.79294 0.0
C524 C 0.58617 0.53643 0.77405 0.0
C525 C 0.6567 0.52199 0.71812 0.0
C526 C 0.62563 0.50601 0.74512 0.0
C527 C 0.6329 0.49977 0.71293 0.0
C528 C 0.64854 0.50785 0.69939 0.0
N529 N 0.63374 0.51986 0.76336 0.0
C530 C 0.64906 0.52786 0.75025 0.0
Co531 Co 0.43129 0.11283 0.03317 0.0
Co532 Co 0.4727 0.1262 0.06764 0.0
O533 O 0.45206 0.12917 0.03533 0.0
C534 C 0.44523 0.11118 0.95946 0.0
O535 O 0.46155 0.10901 0.97277 0.0
C536 C 0.45708 0.1614 0.08687 0.0
O537 O 0.44131 0.15321 0.08551 0.0
O538 O 0.45667 0.12081 0.1091 0.0
O539 O 0.43028 0.11123 0.08607 0.0
H540 H 0.50964 0.09535 0.16268 0.0
H541 H 0.43015 0.14772 0.99403 0.0
O542 O 0.43175 0.11384 0.98001 0.0
H543 H 0.37911 0.15024 0.079 0.0
H544 H 0.37149 0.09097 0.98468 0.0
H545 H 0.42059 0.07917 0.07106 0.0
H546 H 0.39862 0.12314 0.07572 0.0
H547 H 0.39771 0.11162 0.98884 0.0
O548 O 0.47153 0.15262 0.07987 0.0
H549 H 0.48365 0.09895 0.1218 0.0
H550 H 0.50581 0.14814 0.08214 0.0
H551 H 0.39453 0.05826 0.06802 0.0
H552 H 0.41087 0.17504 -0.0038 0.0
H553 H 0.36975 0.06411 0.02458 0.0
H554 H 0.38518 0.17644 0.03903 0.0
O555 O 0.44747 0.09123 0.03168 0.0
H556 H 0.49328 0.16126 0.9599 0.0
H557 H 0.50555 0.10847 0.03709 0.0
H558 H 0.52536 0.11443 0.9853 0.0
H559 H 0.5193 0.14102 0.94634 0.0
H560 H 0.47371 0.15471 0.0118 0.0
H561 H 0.53197 0.14516 0.12282 0.0
H562 H 0.53404 0.11857 0.16335 0.0
O563 O 0.47398 0.09979 0.0564 0.0
C564 C 0.44062 0.11464 0.11243 0.0
C565 C 0.50894 0.10695 0.14503 0.0
C566 C 0.52146 0.13493 0.12269 0.0
N567 N 0.49333 0.12363 0.09934 0.0
C568 C 0.4943 0.10903 0.12173 0.0
C569 C 0.50661 0.13655 0.09976 0.0
C570 C 0.52261 0.12 0.14542 0.0
C571 C 0.41888 0.14816 0.01248 0.0
N572 N 0.41548 0.13383 0.03463 0.0
C573 C 0.40806 0.16369 0.0137 0.0
C574 C 0.39367 0.16448 0.03777 0.0
C575 C 0.39026 0.14979 0.06022 0.0
C576 C 0.40138 0.1345 0.0583 0.0
C577 C 0.38218 0.0883 0.00378 0.0
C578 C 0.4098 0.08186 0.05225 0.0
C579 C 0.39708 0.09992 0.00621 0.0
N580 N 0.41059 0.09668 0.03038 0.0
C581 C 0.3951 0.06995 0.05058 0.0
C582 C 0.38121 0.07323 0.02618 0.0
C583 C 0.46359 0.08795 0.04232 0.0
C584 C 0.49609 0.14967 0.97674 0.0
C585 C 0.50279 0.12004 0.0202 0.0
C586 C 0.51408 0.12336 0.99096 0.0
C587 C 0.51068 0.13829 0.96912 0.0
N588 N 0.48855 0.1313 0.02755 0.0
C589 C 0.4851 0.14593 0.00623 0.0
Co590 Co 0.88753 0.92373 0.28282 0.0
Co591 Co 0.87165 0.96719 0.29838 0.0
O592 O 0.86979 0.94315 0.27658 0.0
C593 C 0.88784 0.93006 0.20524 0.0
O594 O 0.88774 0.9475 0.21225 0.0
C595 C 0.83821 0.95181 0.32814 0.0
O596 O 0.84731 0.93663 0.33161 0.0
O597 O 0.87932 0.95692 0.34534 0.0
O598 O 0.88869 0.92845 0.33489 0.0
H599 H 0.90172 0.01659 0.36933 0.0
H600 H 0.85309 0.91627 0.24485 0.0
O601 O 0.88699 0.91857 0.23053 0.0
H602 H 0.85317 0.87511 0.3487 0.0
H603 H 0.91362 0.86173 0.25993 0.0
H604 H 0.92146 0.91948 0.32451 0.0
H605 H 0.879 0.89559 0.33763 0.0
H606 H 0.89129 0.88639 0.25316 0.0
O607 O 0.84577 0.96566 0.31429 0.0
H608 H 0.89932 0.98628 0.34186 0.0
H609 H 0.84726 0.99939 0.30079 0.0
H610 H 0.94403 0.89512 0.33229 0.0
H611 H 0.82704 0.8959 0.25472 0.0
H612 H 0.94018 0.86599 0.29985 0.0
H613 H 0.82695 0.87518 0.30705 0.0
O614 O 0.90817 0.94075 0.27495 0.0
H615 H 0.83245 0.97182 0.18897 0.0
H616 H 0.88566 0.99682 0.25171 0.0
H617 H 0.87678 0.00948 0.19326 0.0
H618 H 0.84998 0.99698 0.16152 0.0
H619 H 0.84191 0.95946 0.24734 0.0
H620 H 0.84903 0.02979 0.32807 0.0
H621 H 0.87644 0.03858 0.36251 0.0
O622 O 0.89748 0.96899 0.28346 0.0
C623 C 0.88563 0.94172 0.35578 0.0
C624 C 0.88973 0.01294 0.35429 0.0
C625 C 0.86014 0.02034 0.33117 0.0
N626 N 0.87323 0.99114 0.31952 0.0
C627 C 0.88832 0.99582 0.33859 0.0
C628 C 0.8592 0.0031 0.31586 0.0
C629 C 0.87553 0.02527 0.35049 0.0
C630 C 0.85322 0.90716 0.26747 0.0
N631 N 0.86757 0.90707 0.29055 0.0
C632 C 0.8384 0.89571 0.27301 0.0
C633 C 0.83835 0.88411 0.30241 0.0
C634 C 0.85305 0.88407 0.3258 0.0
C635 C 0.86762 0.89573 0.31944 0.0
C636 C 0.91542 0.87434 0.27426 0.0
C637 C 0.91963 0.9068 0.31049 0.0
C638 C 0.90285 0.88837 0.27048 0.0
N639 N 0.905 0.9043 0.28864 0.0
C640 C 0.93248 0.89307 0.31491 0.0
C641 C 0.93032 0.87674 0.29668 0.0
C642 C 0.91021 0.95793 0.27588 0.0
C643 C 0.84413 0.97741 0.20258 0.0
C644 C 0.87401 0.99128 0.23801 0.0
C645 C 0.86903 0.99853 0.20496 0.0
C646 C 0.85398 0.99151 0.18717 0.0
N647 N 0.86425 0.97747 0.25297 0.0
C648 C 0.8495 0.97051 0.23569 0.0
Co649 Co 0.07637 0.38823 0.53009 0.0
Co650 Co 0.03832 0.37419 0.57624 0.0
O651 O 0.05738 0.37065 0.54073 0.0
C652 C 0.05873 0.38251 0.46054 0.0
O653 O 0.04309 0.384 0.47704 0.0
C654 C 0.05708 0.34098 0.59882 0.0
O655 O 0.07224 0.35 0.59422 0.0
O656 O 0.05604 0.38273 0.61255 0.0
O657 O 0.07965 0.39382 0.58164 0.0
H658 H 0.0045 0.40779 0.67214 0.0
H659 H 0.07893 0.35101 0.50073 0.0
O660 O 0.07348 0.38326 0.47812 0.0
H661 H 0.13357 0.35875 0.5751 0.0
H662 H 0.13147 0.41081 0.46432 0.0
H663 H 0.08562 0.42509 0.55603 0.0
H664 H 0.11161 0.38373 0.56834 0.0
H665 H 0.10753 0.38873 0.47937 0.0
O666 O 0.04189 0.34866 0.59299 0.0
H667 H 0.02838 0.40352 0.62677 0.0
H668 H 0.00772 0.35127 0.60202 0.0
H669 H 0.10942 0.4475 0.54206 0.0
H670 H 0.10061 0.32571 0.50655 0.0
H671 H 0.13255 0.44041 0.49589 0.0
H672 H 0.12813 0.32948 0.54407 0.0
O673 O 0.05829 0.40816 0.52612 0.0
H674 H 0.01471 0.33241 0.48093 0.0
H675 H 0.00289 0.38821 0.54966 0.0
H676 H 0.98094 0.37837 0.50387 0.0
H677 H 0.98679 0.35026 0.46918 0.0
H678 H 0.03638 0.34283 0.52675 0.0
H679 H 0.98369 0.3549 0.64734 0.0
H680 H 0.98193 0.38336 0.68266 0.0
O681 O 0.0346 0.39973 0.56021 0.0
C682 C 0.07127 0.39086 0.61079 0.0
C683 C 0.00507 0.39536 0.65681 0.0
C684 C 0.99341 0.36566 0.64293 0.0
N685 N 0.01931 0.37725 0.61152 0.0
C686 C 0.01852 0.39289 0.631 0.0
C687 C 0.00706 0.36367 0.61735 0.0
C688 C 0.99243 0.38164 0.66273 0.0
C689 C 0.09097 0.35281 0.5168 0.0
N690 N 0.09404 0.36885 0.53404 0.0
C691 C 0.10316 0.33842 0.52013 0.0
C692 C 0.11858 0.34053 0.54123 0.0
C693 C 0.12164 0.35695 0.55866 0.0
C694 C 0.10913 0.37103 0.55479 0.0
C695 C 0.12149 0.41404 0.48454 0.0
C696 C 0.09571 0.42186 0.53607 0.0
C697 C 0.10788 0.40161 0.49312 0.0
N698 N 0.09529 0.40556 0.51876 0.0
C699 C 0.10912 0.43463 0.5282 0.0
C700 C 0.12209 0.43065 0.50227 0.0
C701 C 0.04287 0.41114 0.54042 0.0
C702 C 0.01199 0.34465 0.49594 0.0
C703 C 0.00555 0.37599 0.53461 0.0
C704 C 0.99306 0.37047 0.50877 0.0
C705 C 0.99634 0.35469 0.48933 0.0
N706 N 0.02085 0.36605 0.54099 0.0
C707 C 0.02417 0.35058 0.52201 0.0
Co708 Co 0.6121 0.93218 0.53702 0.0
Co709 Co 0.62618 0.97366 0.50391 0.0
O710 O 0.62878 0.95269 0.53555 0.0
C711 C 0.61063 0.94556 0.61116 0.0
O712 O 0.60879 0.96203 0.59838 0.0
C713 C 0.6609 0.95735 0.48385 0.0
O714 O 0.65236 0.94177 0.48538 0.0
O715 O 0.62032 0.95812 0.46197 0.0
O716 O 0.61057 0.9316 0.48412 0.0
H717 H 0.59587 0.01211 0.41053 0.0
H718 H 0.64689 0.93014 0.57632 0.0
O719 O 0.61303 0.93221 0.59018 0.0
H720 H 0.64869 0.87973 0.48985 0.0
H721 H 0.58914 0.87238 0.58357 0.0
H722 H 0.57831 0.92237 0.49866 0.0
H723 H 0.62192 0.89966 0.49359 0.0
H724 H 0.61024 0.89828 0.58033 0.0
O725 O 0.65252 0.97199 0.4912 0.0
H726 H 0.59903 0.98567 0.45044 0.0
H727 H 0.6488 0.00639 0.49026 0.0
H728 H 0.55696 0.89665 0.50078 0.0
H729 H 0.67389 0.91044 0.5737 0.0
H730 H 0.56232 0.87142 0.54348 0.0
H731 H 0.67493 0.88507 0.53011 0.0
O732 O 0.59078 0.94872 0.53888 0.0
H733 H 0.66205 0.99252 0.61181 0.0
H734 H 0.60926 0.00659 0.53583 0.0
H735 H 0.61582 0.02581 0.58821 0.0
H736 H 0.6424 0.01883 0.62656 0.0
H737 H 0.6549 0.97357 0.55934 0.0
H738 H 0.64627 0.03299 0.45056 0.0
H739 H 0.61961 0.036 0.41044 0.0
O740 O 0.59984 0.9754 0.51554 0.0
C741 C 0.61401 0.94216 0.45811 0.0
C742 C 0.60751 0.011 0.42801 0.0
C743 C 0.63581 0.0227 0.45044 0.0
N744 N 0.62397 0.99462 0.47294 0.0
C745 C 0.60933 0.9961 0.45077 0.0
C746 C 0.63718 0.00761 0.47282 0.0
C747 C 0.62084 0.02438 0.42794 0.0
C748 C 0.64718 0.91901 0.55754 0.0
N749 N 0.63283 0.91602 0.53523 0.0
C750 C 0.66253 0.90795 0.55607 0.0
C751 C 0.66311 0.89373 0.53158 0.0
C752 C 0.6484 0.89074 0.50896 0.0
C753 C 0.63329 0.9021 0.51115 0.0
C754 C 0.58668 0.88327 0.56479 0.0
C755 C 0.58079 0.91138 0.51715 0.0
C756 C 0.59856 0.89799 0.56289 0.0
N757 N 0.59558 0.91174 0.53912 0.0
C758 C 0.56863 0.89688 0.5183 0.0
C759 C 0.57163 0.88274 0.54229 0.0
C760 C 0.5878 0.96503 0.52905 0.0
C761 C 0.65046 0.99573 0.59525 0.0
C762 C 0.62082 0.00345 0.55246 0.0
C763 C 0.62449 0.01439 0.58203 0.0
C764 C 0.63941 0.01048 0.60353 0.0
N765 N 0.63175 0.98904 0.54446 0.0
C766 C 0.64639 0.98509 0.56544 0.0
Co767 Co 0.07411 0.11045 0.7921 0.0
Co768 Co 0.0341 0.12653 0.75633 0.0
O769 O 0.05627 0.12954 0.78418 0.0
C770 C 0.06419 0.1222 0.86449 0.0
O771 O 0.04723 0.12185 0.85391 0.0
C772 C 0.05315 0.15679 0.72195 0.0
O773 O 0.0676 0.1464 0.72243 0.0
O774 O 0.0476 0.1151 0.71627 0.0
O775 O 0.07173 0.10186 0.74192 0.0
H776 H 0.9897 0.09304 0.67878 0.0
H777 H 0.08321 0.14842 0.81081 0.0
O778 O 0.07687 0.11843 0.84267 0.0
H779 H 0.12845 0.13028 0.72061 0.0
H780 H 0.13206 0.08485 0.8422 0.0
H781 H 0.07684 0.07156 0.77268 0.0
H782 H 0.10519 0.10863 0.74114 0.0
H783 H 0.10949 0.10882 0.83053 0.0
O784 O 0.03818 0.15095 0.73445 0.0
H785 H 0.01757 0.09664 0.71452 0.0
H786 H 0.00357 0.15123 0.73764 0.0
H787 H 0.09912 0.04723 0.78348 0.0
H788 H 0.10633 0.17046 0.79122 0.0
H789 H 0.12697 0.05382 0.81847 0.0
H790 H 0.12911 0.16145 0.7457 0.0
O791 O 0.05487 0.09317 0.80708 0.0
H792 H 0.02271 0.1737 0.85058 0.0
H793 H 0.00064 0.1168 0.79675 0.0
H794 H 0.984 0.13026 0.84739 0.0
H795 H 0.99501 0.15893 0.87461 0.0
H796 H 0.03904 0.15968 0.80013 0.0
H797 H 0.97562 0.1483 0.70188 0.0
H798 H 0.9685 0.11901 0.67229 0.0
O799 O 0.02982 0.10201 0.77747 0.0
C800 C 0.06155 0.10491 0.71509 0.0
C801 C 0.99261 0.10585 0.69169 0.0
C802 C 0.98472 0.13687 0.70461 0.0
N803 N 0.01206 0.12404 0.72853 0.0
C804 C 0.00833 0.10794 0.71208 0.0
C805 C 0.00057 0.13846 0.72479 0.0
C806 C 0.98073 0.12043 0.68802 0.0
C807 C 0.09321 0.14434 0.79129 0.0
N808 N 0.09291 0.12724 0.77728 0.0
C809 C 0.10621 0.1569 0.78018 0.0
C810 C 0.11897 0.15184 0.75459 0.0
C811 C 0.1186 0.13436 0.74048 0.0
C812 C 0.10538 0.12217 0.75217 0.0
C813 C 0.12 0.08183 0.82684 0.0
C814 C 0.08898 0.07456 0.78773 0.0
C815 C 0.10716 0.09533 0.8202 0.0
N816 N 0.09195 0.09162 0.80067 0.0
C817 C 0.10152 0.06072 0.79385 0.0
C818 C 0.11714 0.06442 0.81351 0.0
C819 C 0.03844 0.09091 0.79741 0.0
C820 C 0.01775 0.16123 0.83888 0.0
C821 C 0.00555 0.12925 0.80853 0.0
C822 C 0.99605 0.13683 0.83714 0.0
C823 C 0.00222 0.15293 0.85238 0.0
N824 N 0.02075 0.1375 0.7954 0.0
C825 C 0.0269 0.15328 0.81021 0.0
Co826 Co 0.88536 0.57242 0.03424 0.0
Co827 Co 0.86931 0.53082 0.00541 0.0
O828 O 0.86811 0.55235 0.03586 0.0
C829 C 0.88896 0.55947 0.10839 0.0
O830 O 0.88934 0.54286 0.09583 0.0
C831 C 0.83451 0.54785 0.98735 0.0
O832 O 0.84329 0.56332 0.98782 0.0
O833 O 0.87486 0.54549 0.96202 0.0
O834 O 0.88488 0.57249 0.98128 0.0
H835 H 0.89668 0.48976 0.91284 0.0
H836 H 0.85222 0.57564 0.07848 0.0
O837 O 0.8865 0.57283 0.08744 0.0
H838 H 0.84834 0.62538 0.99072 0.0
H839 H 0.91146 0.63196 0.07524 0.0
H840 H 0.91783 0.58107 0.9907 0.0
H841 H 0.87469 0.60479 0.99121 0.0
H842 H 0.88966 0.60661 0.07593 0.0
O843 O 0.8428 0.53314 0.99456 0.0
H844 H 0.89516 0.5169 0.95123 0.0
H845 H 0.84529 0.49875 -0.00472 0.0
H846 H 0.93985 0.60622 0.98887 0.0
H847 H 0.82568 0.59601 0.07914 0.0
H848 H 0.93674 0.6319 0.03137 0.0
H849 H 0.82359 0.62104 0.03493 0.0
O850 O 0.90636 0.55539 0.03346 0.0
H851 H 0.83498 0.51493 0.11706 0.0
H852 H 0.88568 0.49778 0.03808 0.0
H853 H 0.87949 0.47962 0.09206 0.0
H854 H 0.85395 0.48814 0.13193 0.0
H855 H 0.84176 0.53281 0.06295 0.0
H856 H 0.84618 0.47148 0.95714 0.0
H857 H 0.87206 0.46682 0.91565 0.0
O858 O 0.89574 0.52834 0.01518 0.0
C859 C 0.88096 0.56141 0.95642 0.0
C860 C 0.88536 0.4916 0.93089 0.0
C861 C 0.85701 0.48135 0.95572 0.0
N862 N 0.87023 0.50932 0.97567 0.0
C863 C 0.88446 0.50691 0.95277 0.0
C864 C 0.85656 0.49683 0.9772 0.0
C865 C 0.87154 0.47875 0.93246 0.0
C866 C 0.85148 0.58662 0.0594 0.0
N867 N 0.86501 0.58907 0.03493 0.0
C868 C 0.83639 0.59806 0.0598 0.0
C869 C 0.83522 0.61209 0.03495 0.0
C870 C 0.84909 0.61452 0.01012 0.0
C871 C 0.86397 0.6028 0.01048 0.0
C872 C 0.91294 0.62087 0.05653 0.0
C873 C 0.91632 0.59226 0.00912 0.0
C874 C 0.90066 0.60646 0.05684 0.0
N875 N 0.90239 0.59245 0.03318 0.0
C876 C 0.92886 0.60643 0.00803 0.0
C877 C 0.92712 0.62083 0.03191 0.0
C878 C 0.90857 0.53872 0.02539 0.0
C879 C 0.84611 0.51105 0.09984 0.0
C880 C 0.87458 0.50161 0.05536 0.0
C881 C 0.87111 0.49125 0.08584 0.0
C882 C 0.85677 0.49603 0.10819 0.0
N883 N 0.86402 0.51628 0.0473 0.0
C884 C 0.84997 0.52108 0.06911 0.0
Co885 Co 0.42858 0.38718 0.29155 0.0
Co886 Co 0.47116 0.37445 0.26211 0.0
O887 O 0.44879 0.37017 0.28888 0.0
C888 C 0.43821 0.38234 0.36725 0.0
O889 O 0.45524 0.38457 0.35806 0.0
C890 C 0.45582 0.34157 0.23028 0.0
O891 O 0.44036 0.35037 0.22991 0.0
O892 O 0.45764 0.38318 0.21944 0.0
O893 O 0.43075 0.39291 0.23987 0.0
H894 H 0.51383 0.4097 0.18381 0.0
H895 H 0.42397 0.34978 0.31889 0.0
O896 O 0.42586 0.38205 0.34353 0.0
H897 H 0.37834 0.35644 0.22348 0.0
H898 H 0.36707 0.40805 0.33297 0.0
H899 H 0.42133 0.4239 0.26256 0.0
H900 H 0.39836 0.38196 0.23947 0.0
H901 H 0.39266 0.38665 0.32813 0.0
O902 O 0.46997 0.34912 0.2429 0.0
H903 H 0.48566 0.40448 0.21784 0.0
H904 H 0.50432 0.35236 0.249 0.0
H905 H 0.39599 0.44564 0.26643 0.0
H906 H 0.40412 0.32394 0.30397 0.0
H907 H 0.36862 0.43776 0.30185 0.0
H908 H 0.38116 0.32717 0.25585 0.0
O909 O 0.44527 0.40756 0.30317 0.0
H910 H 0.48485 0.33172 0.36316 0.0
H911 H 0.50256 0.38869 0.30365 0.0
H912 H 0.51929 0.37855 0.35713 0.0
H913 H 0.51047 0.34984 0.3872 0.0
H914 H 0.46839 0.34245 0.30979 0.0
H915 H 0.53264 0.35693 0.21504 0.0
H916 H 0.53756 0.38581 0.18228 0.0
O917 O 0.47249 0.39983 0.28037 0.0
C918 C 0.44223 0.39065 0.21489 0.0
C919 C 0.51189 0.3971 0.19813 0.0
C920 C 0.52243 0.36747 0.21562 0.0
N921 N 0.49347 0.37825 0.23576 0.0
C922 C 0.496 0.39411 0.21757 0.0
C923 C 0.50637 0.36495 0.23476 0.0
C924 C 0.52519 0.38368 0.19724 0.0
C925 C 0.41388 0.35133 0.29818 0.0
N926 N 0.41228 0.36737 0.28018 0.0
C927 C 0.40273 0.33664 0.28974 0.0
C928 C 0.38987 0.33845 0.2627 0.0
C929 C 0.38829 0.35487 0.24451 0.0
C930 C 0.39969 0.36926 0.25363 0.0
C931 C 0.37891 0.41163 0.31739 0.0
C932 C 0.40941 0.42033 0.27783 0.0
C933 C 0.39345 0.39958 0.3146 0.0
N934 N 0.4084 0.40396 0.29483 0.0
C935 C 0.39513 0.43271 0.28001 0.0
C936 C 0.37978 0.42829 0.29992 0.0
C937 C 0.46187 0.41091 0.29617 0.0
C938 C 0.48885 0.34422 0.35023 0.0
C939 C 0.49861 0.37621 0.31667 0.0
C940 C 0.50816 0.37052 0.34688 0.0
C941 C 0.50321 0.35441 0.36373 0.0
N942 N 0.48458 0.36611 0.30353 0.0
C943 C 0.47962 0.35033 0.31994 0.0
H944 H 0.31189 0.07564 0.48066 0.0
H945 H 0.28082 0.0758 0.45799 0.0
H946 H 0.28271 0.01767 0.44576 0.0
H947 H 0.31364 0.01732 0.46921 0.0
H948 H 0.26959 0.06509 0.39247 0.0
H949 H 0.23484 0.02436 0.49652 0.0
H950 H 0.25733 0.03347 0.5027 0.0
H951 H 0.25403 0.01303 0.47731 0.0
C952 C 0.30563 0.06286 0.47351 0.0
C953 C 0.3152 0.04646 0.47673 0.0
C954 C 0.28788 0.06298 0.46057 0.0
C955 C 0.27939 0.04673 0.45061 0.0
C956 C 0.28885 0.03031 0.45409 0.0
H957 H 0.17954 0.02073 0.34038 0.0
H958 H 0.20993 0.02061 0.3667 0.0
C959 C 0.30656 0.03015 0.46731 0.0
C960 C 0.26103 0.04712 0.43463 0.0
H961 H 0.21818 0.03014 0.4431 0.0
C962 C 0.25832 0.05756 0.40369 0.0
C963 C 0.24636 0.03725 0.44932 0.0
C964 C 0.2482 0.02654 0.48348 0.0
C965 C 0.24139 0.05817 0.38672 0.0
C966 C 0.22683 0.04815 0.40119 0.0
C967 C 0.22947 0.03773 0.43209 0.0
C968 C 0.20867 0.04844 0.3847 0.0
C969 C 0.2392 0.06927 0.35313 0.0
C970 C 0.198 0.06414 0.38628 0.0
C971 C 0.18063 0.06426 0.37144 0.0
C972 C 0.1737 0.04866 0.35472 0.0
C973 C 0.18453 0.03298 0.35294 0.0
C974 C 0.20184 0.03286 0.36803 0.0
H975 H 0.25247 0.07359 0.34194 0.0
H976 H 0.23175 0.06143 0.33248 0.0
H977 H 0.23116 0.0816 0.35925 0.0
H978 H 0.20304 0.07624 0.39936 0.0
H979 H 0.17263 0.07654 0.37322 0.0
H980 H 0.93075 0.82388 0.69523 0.0
H981 H 0.93167 0.79298 0.67175 0.0
H982 H 0.99007 0.79341 0.67757 0.0
H983 H 0.98931 0.82424 0.70159 0.0
H984 H 0.94841 0.78014 0.61 0.0
H985 H 0.97665 0.74706 0.73123 0.0
H986 H 0.96743 0.76973 0.73184 0.0
H987 H 0.98983 0.76572 0.71465 0.0
C988 C 0.9438 0.81741 0.69159 0.0
C989 C 0.95996 0.82649 0.70039 0.0
C990 C 0.94429 0.79976 0.67816 0.0
C991 C 0.96091 0.79084 0.6734 0.0
C992 C 0.97708 0.79993 0.68174 0.0
H993 H 0.9882 0.68294 0.59639 0.0
H994 H 0.98924 0.71461 0.61578 0.0
C995 C 0.97662 0.81757 0.6953 0.0
C996 C 0.96127 0.77212 0.65919 0.0
H997 H 0.97371 0.72876 0.67958 0.0
C998 C 0.95391 0.76889 0.6252 0.0
C999 C 0.9685 0.75751 0.67912 0.0
C1000 C 0.97592 0.76008 0.71636 0.0
C1001 C 0.95368 0.7514 0.61046 0.0
C1002 C 0.96079 0.73679 0.63049 0.0
C1003 C 0.96832 0.74004 0.66431 0.0
C1004 C 0.96011 0.71791 0.61729 0.0
C1005 C 0.94604 0.74872 0.57344 0.0
C1006 C 0.94337 0.70931 0.61189 0.0
C1007 C 0.94271 0.69124 0.60089 0.0
C1008 C 0.9588 0.68142 0.59524 0.0
C1009 C 0.97556 0.69013 0.60044 0.0
C1010 C 0.97619 0.7082 0.61155 0.0
H1011 H 0.94543 0.76167 0.5583 0.0
H1012 H 0.95429 0.73883 0.55806 0.0
H1013 H 0.93205 0.7433 0.57558 0.0
H1014 H 0.9308 0.71651 0.61678 0.0
H1015 H 0.92958 0.68493 0.59715 0.0
H1016 H 0.31893 0.48681 0.8647 0.0
H1017 H 0.28973 0.48726 0.89587 0.0
H1018 H 0.29038 0.42886 0.90188 0.0
H1019 H 0.31964 0.42827 0.87147 0.0
H1020 H 0.25727 0.47211 0.87703 0.0
H1021 H 0.28103 0.44277 0.00505 0.0
H1022 H 0.29644 0.45106 0.97133 0.0
H1023 H 0.2865 0.42887 0.96722 0.0
C1024 C 0.31285 0.47407 0.87271 0.0
C1025 C 0.32165 0.45751 0.8659 0.0
C1026 C 0.2962 0.47436 0.89056 0.0
C1027 C 0.2881 0.45812 0.9019 0.0
C1028 C 0.29664 0.44157 0.8943 0.0
H1029 H 0.18517 0.42458 0.98557 0.0
H1030 H 0.21618 0.42699 0.96282 0.0
C1031 C 0.31331 0.44127 0.87667 0.0
C1032 C 0.27044 0.45839 0.92069 0.0
H1033 H 0.24891 0.44389 -0.00369 0.0
C1034 C 0.25547 0.46614 0.90328 0.0
C1035 C 0.26817 0.45061 0.955 0.0
C1036 C 0.28393 0.44302 0.97591 0.0
C1037 C 0.23815 0.46576 0.91873 0.0
C1038 C 0.23583 0.45756 0.95256 0.0
C1039 C 0.2508 0.4501 0.97029 0.0
C1040 C 0.21775 0.45608 0.96928 0.0
C1041 C 0.22234 0.47362 0.89835 0.0
C1042 C 0.20866 0.47161 0.98133 0.0
C1043 C 0.19098 0.47029 0.99448 0.0
C1044 C 0.18212 0.45341 -0.00437 0.0
C1045 C 0.19158 0.43779 0.98484 0.0
C1046 C 0.20928 0.43912 0.97188 0.0
H1047 H 0.22589 0.47671 0.87015 0.0
H1048 H 0.21068 0.4641 0.89866 0.0
H1049 H 0.21794 0.4864 0.9114 0.0
H1050 H 0.21511 0.48478 0.97987 0.0
H1051 H 0.18409 0.48258 0.00266 0.0
H1052 H 0.5175 0.81366 0.09907 0.0
H1053 H 0.51784 0.78246 0.12133 0.0
H1054 H 0.57622 0.78186 0.11583 0.0
H1055 H 0.57609 0.81307 0.09354 0.0
H1056 H 0.55642 0.74975 0.0863 0.0
H1057 H 0.53678 0.76914 0.2247 0.0
H1058 H 0.52313 0.77832 0.18918 0.0
H1059 H 0.54639 0.78513 0.1934 0.0
C1060 C 0.53041 0.80687 0.10238 0.0
C1061 C 0.54678 0.81587 0.09481 0.0
C1062 C 0.53057 0.78909 0.11521 0.0
C1063 C 0.54706 0.78003 0.12054 0.0
C1064 C 0.56338 0.78873 0.112 0.0
H1065 H 0.57544 0.67186 0.19535 0.0
H1066 H 0.57599 0.70234 0.16956 0.0
C1067 C 0.56326 0.80655 0.09937 0.0
C1068 C 0.54728 0.76156 0.13568 0.0
H1069 H 0.53859 0.73785 0.21201 0.0
C1070 C 0.55259 0.74708 0.11379 0.0
C1071 C 0.54225 0.75827 0.17151 0.0
C1072 C 0.53692 0.77351 0.19628 0.0
C1073 C 0.55262 0.72921 0.12668 0.0
C1074 C 0.54762 0.72589 0.1626 0.0
C1075 C 0.54241 0.74044 0.18449 0.0
C1076 C 0.5474 0.70741 0.178 0.0
C1077 C 0.55754 0.71402 0.10146 0.0
C1078 C 0.53127 0.70039 0.1922 0.0
C1079 C 0.53095 0.6831 0.20731 0.0
C1080 C 0.54678 0.6725 0.20849 0.0
C1081 C 0.56298 0.67963 0.19452 0.0
C1082 C 0.5633 0.69699 0.17958 0.0
H1083 H 0.55626 0.71823 0.07307 0.0
H1084 H 0.57183 0.70997 0.10616 0.0
H1085 H 0.5488 0.70197 0.10598 0.0
H1086 H 0.51888 0.70827 0.19141 0.0
H1087 H 0.51825 0.67801 0.21785 0.0
H1088 H 0.67722 0.51656 0.8515 0.0
H1089 H 0.70768 0.51675 0.87752 0.0
H1090 H 0.70216 0.57362 0.90178 0.0
H1091 H 0.67169 0.57362 0.87589 0.0
H1092 H 0.73567 0.56203 0.86457 0.0
H1093 H 0.72002 0.52221 0.98709 0.0
H1094 H 0.71212 0.51304 0.94533 0.0
H1095 H 0.70273 0.53388 0.96175 0.0
C1096 C 0.68247 0.52911 0.86241 0.0
C1097 C 0.67203 0.54507 0.86177 0.0
C1098 C 0.69981 0.52915 0.87741 0.0
C1099 C 0.707 0.54515 0.89187 0.0
C1100 C 0.69674 0.56113 0.89092 0.0
H1101 H 0.81167 0.57659 0.978 0.0
H1102 H 0.78049 0.57594 0.9559 0.0
C1103 C 0.67935 0.56108 0.87616 0.0
C1104 C 0.72545 0.54534 0.90719 0.0
H1105 H 0.75075 0.52969 0.97701 0.0
C1106 C 0.73901 0.55503 0.88921 0.0
C1107 C 0.72966 0.53607 0.93916 0.0
C1108 C 0.71539 0.52578 0.95973 0.0
C1109 C 0.75684 0.5555 0.90214 0.0
C1110 C 0.76105 0.54643 0.93444 0.0
C1111 C 0.74746 0.53669 0.95235 0.0
C1112 C 0.77954 0.54677 0.94984 0.0
C1113 C 0.77109 0.56532 0.8806 0.0
C1114 C 0.78904 0.53052 0.95525 0.0
C1115 C 0.80678 0.53082 0.96831 0.0
C1116 C 0.81532 0.5474 0.97614 0.0
C1117 C 0.80555 0.56361 0.97178 0.0
C1118 C 0.78777 0.56328 0.95897 0.0
H1119 H 0.76687 0.56707 0.8523 0.0
H1120 H 0.77326 0.57901 0.89214 0.0
H1121 H 0.78421 0.55794 0.88117 0.0
H1122 H 0.78287 0.51762 0.94861 0.0
H1123 H 0.81393 0.51809 0.97146 0.0
H1124 H 0.48609 0.32071 0.22038 0.0
H1125 H 0.48775 0.29058 0.19315 0.0
H1126 H 0.42971 0.29054 0.17912 0.0
H1127 H 0.42791 0.3207 0.20579 0.0
H1128 H 0.47137 0.25851 0.21461 0.0
H1129 H 0.44816 0.27832 0.07917 0.0
H1130 H 0.45534 0.2947 0.1121 0.0
H1131 H 0.43293 0.28514 0.11406 0.0
C1132 C 0.47367 0.3143 0.21145 0.0
C1133 C 0.45687 0.32314 0.21498 0.0
C1134 C 0.47466 0.29711 0.19588 0.0
C1135 C 0.4589 0.28852 0.1835 0.0
C1136 C 0.44208 0.29715 0.18769 0.0
H1137 H 0.42894 0.18458 0.09935 0.0
H1138 H 0.43056 0.21566 0.12177 0.0
C1139 C 0.44108 0.31434 0.20314 0.0
C1140 C 0.45993 0.27031 0.16706 0.0
H1141 H 0.44921 0.24661 0.09162 0.0
C1142 C 0.46671 0.25591 0.1876 0.0
C1143 C 0.45386 0.26703 0.13179 0.0
C1144 C 0.44733 0.28214 0.10784 0.0
C1145 C 0.46701 0.23815 0.17421 0.0
C1146 C 0.46057 0.23482 0.13924 0.0
C1147 C 0.45408 0.24926 0.11847 0.0
C1148 C 0.45985 0.21632 0.12424 0.0
C1149 C 0.47366 0.223 0.19792 0.0
C1150 C 0.47583 0.20659 0.11755 0.0
C1151 C 0.47498 0.18882 0.10471 0.0
C1152 C 0.45811 0.18053 0.09835 0.0
C1153 C 0.44215 0.19052 0.10421 0.0
C1154 C 0.44303 0.20829 0.11694 0.0
H1155 H 0.47477 0.22728 0.2263 0.0
H1156 H 0.46444 0.21112 0.19632 0.0
H1157 H 0.48728 0.2186 0.18878 0.0
H1158 H 0.48894 0.2127 0.12253 0.0
H1159 H 0.48752 0.18151 0.10031 0.0
H1160 H 0.81716 0.92443 0.35433 0.0
H1161 H 0.78703 0.92691 0.38107 0.0
H1162 H 0.78729 0.9846 0.36217 0.0
H1163 H 0.81729 0.98224 0.33479 0.0
H1164 H 0.77756 0.94697 0.44065 0.0
H1165 H 0.73833 0.96934 0.32181 0.0
H1166 H 0.76085 0.95991 0.31841 0.0
H1167 H 0.75775 0.98311 0.3318 0.0
C1168 C 0.81074 0.93763 0.35555 0.0
C1169 C 0.81959 0.95314 0.34239 0.0
C1170 C 0.79355 0.93902 0.37087 0.0
C1171 C 0.78487 0.9559 0.37325 0.0
C1172 C 0.7936 0.97139 0.35994 0.0
H1173 H 0.68106 0.98721 0.46634 0.0
H1174 H 0.71186 0.98772 0.44182 0.0
C1175 C 0.81078 0.97002 0.34444 0.0
C1176 C 0.76701 0.95733 0.39099 0.0
H1177 H 0.72286 0.96931 0.37728 0.0
C1178 C 0.76559 0.95183 0.4268 0.0
C1179 C 0.75147 0.96377 0.37286 0.0
C1180 C 0.75207 0.96923 0.33401 0.0
C1181 C 0.74899 0.95258 0.445 0.0
C1182 C 0.73343 0.95881 0.42674 0.0
C1183 C 0.73488 0.96459 0.39115 0.0
C1184 C 0.71532 0.95861 0.44355 0.0
C1185 C 0.74823 0.9468 0.48365 0.0
C1186 C 0.70716 0.94206 0.4526 0.0
C1187 C 0.68961 0.94171 0.46647 0.0
C1188 C 0.67989 0.95791 0.47145 0.0
C1189 C 0.68823 0.97451 0.46292 0.0
C1190 C 0.70578 0.97483 0.44886 0.0
H1191 H 0.76189 0.94677 0.49616 0.0
H1192 H 0.73921 0.95588 0.49927 0.0
H1193 H 0.74268 0.93284 0.48529 0.0
H1194 H 0.71424 0.92939 0.44818 0.0
H1195 H 0.68358 0.9287 0.47279 0.0
H1196 H 0.02839 0.31937 0.61656 0.0
H1197 H 0.02922 0.2878 0.63626 0.0
H1198 H 0.08748 0.28756 0.62635 0.0
H1199 H 0.08684 0.31926 0.60714 0.0
H1200 H 0.04252 0.25764 0.6004 0.0
H1201 H 0.07953 0.26878 0.72788 0.0
H1202 H 0.06948 0.28711 0.70279 0.0
H1203 H 0.09073 0.2775 0.68888 0.0
C1204 C 0.0414 0.31264 0.61869 0.0
C1205 C 0.05757 0.32186 0.61056 0.0
C1206 C 0.04184 0.2946 0.62991 0.0
C1207 C 0.05842 0.28545 0.63326 0.0
C1208 C 0.07457 0.29451 0.62468 0.0
H1209 H 0.08343 0.1749 0.69944 0.0
H1210 H 0.08517 0.20586 0.67603 0.0
C1211 C 0.07417 0.3126 0.61357 0.0
C1212 C 0.05868 0.26632 0.64516 0.0
H1213 H 0.07374 0.23834 0.71151 0.0
C1214 C 0.04933 0.25341 0.62469 0.0
C1215 C 0.06763 0.26087 0.67683 0.0
C1216 C 0.07729 0.27429 0.70059 0.0
C1217 C 0.04871 0.23514 0.63502 0.0
C1218 C 0.05748 0.22975 0.66687 0.0
C1219 C 0.06706 0.24258 0.68707 0.0
C1220 C 0.05637 0.21094 0.68031 0.0
C1221 C 0.0388 0.22174 0.61165 0.0
C1222 C 0.03962 0.20369 0.69078 0.0
C1223 C 0.03856 0.18606 0.70419 0.0
C1224 C 0.05427 0.17539 0.70744 0.0
C1225 C 0.07107 0.18273 0.69706 0.0
C1226 C 0.0721 0.20041 0.68375 0.0
H1227 H 0.03683 0.22702 0.58412 0.0
H1228 H 0.04627 0.20868 0.61015 0.0
H1229 H 0.02523 0.21901 0.62328 0.0
H1230 H 0.02737 0.21175 0.68891 0.0
H1231 H 0.02543 0.18084 0.71209 0.0
H1232 H 0.0534 0.05461 0.26015 0.0
H1233 H 0.02401 0.03997 0.25209 0.0
H1234 H 0.04906 0.98746 0.26289 0.0
H1235 H 0.07864 0.00188 0.27098 0.0
H1236 H 0.01959 0.99253 0.20548 0.0
H1237 H 0.00164 0.0138 0.34376 0.0
H1238 H 0.01053 0.03115 0.31485 0.0
H1239 H 0.02479 0.01264 0.32823 0.0
C1240 C 0.05279 0.03993 0.26025 0.0
C1241 C 0.06839 0.02943 0.26669 0.0
C1242 C 0.03597 0.03162 0.25563 0.0
C1243 C 0.03444 0.0127 0.25728 0.0
C1244 C 0.05005 0.0021 0.26159 0.0
H1245 H 0.9419 0.93952 0.263 0.0
H1246 H 0.9722 0.9524 0.25524 0.0
C1247 C 0.06691 0.01039 0.26631 0.0
C1248 C 0.01637 0.00415 0.25783 0.0
H1249 H 0.97872 0.99967 0.3099 0.0
C1250 C 0.01062 0.994 0.22825 0.0
C1251 C 0.00485 0.00611 0.28773 0.0
C1252 C 0.01073 0.01639 0.32063 0.0
C1253 C 0.99329 0.98607 0.22749 0.0
C1254 C 0.98171 0.98817 0.25734 0.0
C1255 C 0.98762 0.99817 0.287 0.0
C1256 C 0.96329 0.9803 0.2586 0.0
C1257 C 0.98735 0.97592 0.19453 0.0
C1258 C 0.94829 0.99172 0.26329 0.0
C1259 C 0.93101 0.98445 0.26805 0.0
C1260 C 0.92838 0.96555 0.26835 0.0
C1261 C 0.94341 0.95413 0.26281 0.0
C1262 C 0.96074 0.96145 0.25812 0.0
H1263 H 0.99597 0.97922 0.17106 0.0
H1264 H 0.9884 0.96113 0.19959 0.0
H1265 H 0.97302 0.97906 0.1879 0.0
H1266 H 0.95002 0.00631 0.26392 0.0
H1267 H 0.9198 0.99369 0.27218 0.0
H1268 H 0.99397 0.57328 0.57559 0.0
H1269 H 0.00644 0.54294 0.5679 0.0
H1270 H 0.96912 0.53307 0.48126 0.0
H1271 H 0.95597 0.56322 0.48991 0.0
H1272 H 0.97019 0.50493 0.52271 0.0
H1273 H 0.0409 0.52468 0.4948 0.0
H1274 H 0.03371 0.53402 0.53664 0.0
H1275 H 0.0227 0.54101 0.49586 0.0
C1276 C 0.98846 0.5647 0.55477 0.0
C1277 C 0.97401 0.57066 0.53331 0.0
C1278 C 0.99574 0.5474 0.55016 0.0
C1279 C 0.98906 0.53587 0.52337 0.0
C1280 C 0.97458 0.54177 0.50193 0.0
H1281 H 0.04931 0.43512 0.48603 0.0
H1282 H 0.03508 0.46473 0.47671 0.0
C1283 C 0.96707 0.55899 0.50694 0.0
C1284 C 0.99659 0.51734 0.51914 0.0
H1285 H 0.03639 0.49388 0.51488 0.0
C1286 C 0.98465 0.50253 0.52044 0.0
C1287 C 0.01541 0.51413 0.51524 0.0
C1288 C 0.02886 0.52934 0.51013 0.0
C1289 C 0.99108 0.48463 0.51977 0.0
C1290 C 0.01002 0.48147 0.51917 0.0
C1291 C 0.02189 0.49626 0.51602 0.0
C1292 C 0.01785 0.46306 0.52346 0.0
C1293 C 0.97746 0.46936 0.51959 0.0
C1294 C 0.01299 0.45231 0.5529 0.0
C1295 C 0.02085 0.4353 0.55792 0.0
C1296 C 0.03412 0.42888 0.53413 0.0
C1297 C 0.03915 0.43972 0.50486 0.0
C1298 C 0.03102 0.45663 0.49949 0.0
H1299 H 0.96456 0.47364 0.5068 0.0
H1300 H 0.98272 0.45728 0.50523 0.0
H1301 H 0.9743 0.46545 0.54754 0.0
H1302 H 0.00336 0.45721 0.57249 0.0
H1303 H 0.01683 0.42739 0.58098 0.0
H1304 H 0.43715 0.44593 0.75371 0.0
H1305 H 0.46771 0.45758 0.74294 0.0
H1306 H 0.45044 0.51107 0.77421 0.0
H1307 H 0.4198 0.4997 0.78521 0.0
H1308 H 0.47706 0.50106 0.70155 0.0
H1309 H 0.49638 0.48108 0.84026 0.0
H1310 H 0.48145 0.46687 0.81426 0.0
H1311 H 0.47361 0.48842 0.82999 0.0
C1312 C 0.43972 0.46024 0.75787 0.0
C1313 C 0.42601 0.47185 0.77062 0.0
C1314 C 0.45718 0.46684 0.75157 0.0
C1315 C 0.46119 0.48513 0.75777 0.0
C1316 C 0.44747 0.49692 0.76913 0.0
H1317 H 0.55525 0.55378 0.75196 0.0
H1318 H 0.52537 0.54039 0.74277 0.0
C1319 C 0.43 0.49035 0.7755 0.0
C1320 C 0.48006 0.49158 0.75561 0.0
H1321 H 0.51854 0.49548 0.8054 0.0
C1322 C 0.48622 0.49982 0.7241 0.0
C1323 C 0.49185 0.48979 0.78509 0.0
C1324 C 0.48563 0.48109 0.81947 0.0
C1325 C 0.50403 0.50645 0.72143 0.0
C1326 C 0.51573 0.505 0.75125 0.0
C1327 C 0.50956 0.49651 0.78254 0.0
C1328 C 0.53423 0.51277 0.75148 0.0
C1329 C 0.51021 0.5148 0.68671 0.0
C1330 C 0.54917 0.50167 0.75925 0.0
C1331 C 0.56627 0.50928 0.76483 0.0
C1332 C 0.56874 0.52818 0.76297 0.0
C1333 C 0.55388 0.53918 0.75356 0.0
C1334 C 0.53677 0.53154 0.74804 0.0
H1335 H 0.50168 0.51028 0.66392 0.0
H1336 H 0.50913 0.52977 0.68865 0.0
H1337 H 0.52457 0.51131 0.68101 0.0
H1338 H 0.54746 0.48716 0.76216 0.0
H1339 H 0.57737 0.50037 0.77191 0.0
H1340 H 0.50902 0.92334 0.07866 0.0
H1341 H 0.49633 0.95371 0.07248 0.0
H1342 H 0.53127 0.96369 0.98203 0.0
H1343 H 0.54474 0.9336 0.98941 0.0
H1344 H 0.53178 0.99148 0.02264 0.0
H1345 H 0.4599 0.97298 0.00517 0.0
H1346 H 0.46831 0.96369 0.04615 0.0
H1347 H 0.47774 0.95627 0.00412 0.0
C1348 C 0.51391 0.93197 0.05731 0.0
C1349 C 0.52786 0.92612 0.03451 0.0
C1350 C 0.50651 0.94928 0.05355 0.0
C1351 C 0.51249 0.96087 0.0262 0.0
C1352 C 0.52635 0.95497 0.00321 0.0
H1353 H 0.4536 0.06276 0.99252 0.0
H1354 H 0.46614 0.03229 0.98436 0.0
C1355 C 0.53405 0.9378 0.00747 0.0
C1356 C 0.50509 0.97953 0.02311 0.0
H1357 H 0.46568 0.00376 0.02409 0.0
C1358 C 0.51731 0.99413 0.02241 0.0
C1359 C 0.48623 0.98308 0.02193 0.0
C1360 C 0.47233 0.96814 0.01895 0.0
C1361 C 0.51121 0.01213 0.02211 0.0
C1362 C 0.49237 0.01567 0.02417 0.0
C1363 C 0.48014 0.00109 0.02325 0.0
C1364 C 0.48509 0.0343 0.0284 0.0
C1365 C 0.52509 0.02711 0.01926 0.0
C1366 C 0.49138 0.04549 0.05612 0.0
C1367 C 0.48452 0.06298 0.06035 0.0
C1368 C 0.4708 0.06944 0.03764 0.0
C1369 C 0.46414 0.0581 0.01048 0.0
C1370 C 0.4713 0.04071 0.00578 0.0
H1371 H 0.53742 0.02241 0.00494 0.0
H1372 H 0.51957 0.03911 0.00503 0.0
H1373 H 0.52931 0.0313 0.04649 0.0
H1374 H 0.5015 0.04065 0.07476 0.0
H1375 H 0.48974 0.07132 0.08182 0.0
H1376 H 0.05475 0.44454 0.04275 0.0
H1377 H 0.02455 0.45827 0.04398 0.0
H1378 H 0.04769 0.51031 0.01826 0.0
H1379 H 0.07797 0.49686 0.0171 0.0
H1380 H 0.01314 0.49146 0.08794 0.0
H1381 H 0.00699 0.4981 0.94013 0.0
H1382 H 0.02219 0.48203 0.9609 0.0
H1383 H 0.02778 0.50569 0.96043 0.0
C1384 C 0.05346 0.45891 0.03737 0.0
C1385 C 0.0688 0.46958 0.02968 0.0
C1386 C 0.03621 0.46672 0.03819 0.0
C1387 C 0.03398 0.48523 0.031 0.0
C1388 C 0.0492 0.49596 0.02365 0.0
H1389 H 0.93916 0.55445 0.05336 0.0
H1390 H 0.9697 0.54152 0.05619 0.0
C1391 C 0.06648 0.48823 0.02306 0.0
C1392 C 0.01568 0.4933 0.03076 0.0
H1393 H 0.98316 0.51006 0.97498 0.0
C1394 C 0.00655 0.49558 0.06332 0.0
C1395 C 0.00721 0.4985 -0.0015 0.0
C1396 C 0.01642 0.49591 0.96287 0.0
C1397 C 0.98908 0.5031 0.06445 0.0
C1398 C 0.98066 0.50843 0.0322 0.0
C1399 C 0.98976 0.50603 -0.00037 0.0
C1400 C 0.96218 0.51609 0.03154 0.0
C1401 C 0.97958 0.50505 0.09993 0.0
C1402 C 0.94796 0.50607 0.01653 0.0
C1403 C 0.93052 0.51334 0.01494 0.0
C1404 C 0.92702 0.53089 0.02801 0.0
C1405 C 0.94136 0.54091 0.04305 0.0
C1406 C 0.9588 0.53354 0.04483 0.0
H1407 H 0.98674 0.49768 0.12164 0.0
H1408 H 0.9789 0.51962 0.10723 0.0
H1409 H 0.96546 0.49989 0.0981 0.0
H1410 H 0.95039 0.49259 0.00603 0.0
H1411 H 0.91984 0.50524 0.0031 0.0
H1412 H 0.45222 0.43217 0.35294 0.0
H1413 H 0.46419 0.46221 0.36813 0.0
H1414 H 0.49914 0.46021 0.27564 0.0
H1415 H 0.48811 0.42991 0.26183 0.0
H1416 H 0.51676 0.47383 0.32841 0.0
H1417 H 0.44989 0.50837 0.32229 0.0
H1418 H 0.45131 0.49103 0.35575 0.0
H1419 H 0.45281 0.48506 0.30919 0.0
C1420 C 0.4625 0.43819 0.336 0.0
C1421 C 0.46917 0.4288 0.30608 0.0
C1422 C 0.46924 0.45539 0.34454 0.0
C1423 C 0.48228 0.4637 0.32259 0.0
C1424 C 0.48909 0.45413 0.29303 0.0
H1425 H 0.50415 0.57218 0.27025 0.0
H1426 H 0.49164 0.5424 0.28313 0.0
C1427 C 0.48274 0.43681 0.28507 0.0
C1428 C 0.48887 0.48239 0.32955 0.0
H1429 H 0.4752 0.52652 0.33518 0.0
C1430 C 0.50767 0.48536 0.33006 0.0
C1431 C 0.47698 0.49743 0.33171 0.0
C1432 C 0.45664 0.49539 0.3294 0.0
C1433 C 0.51496 0.50292 0.33037 0.0
C1434 C 0.50307 0.51799 0.33219 0.0
C1435 C 0.48428 0.51497 0.33391 0.0
C1436 C 0.50962 0.53689 0.32764 0.0
C1437 C 0.53522 0.50506 0.32625 0.0
C1438 C 0.52353 0.54406 0.34906 0.0
C1439 C 0.5311 0.56097 0.34102 0.0
C1440 C 0.52442 0.57123 0.31223 0.0
C1441 C 0.50962 0.56461 0.29257 0.0
C1442 C 0.50242 0.54755 0.29999 0.0
H1443 H 0.54173 0.49242 0.31642 0.0
H1444 H 0.53854 0.51617 0.30733 0.0
H1445 H 0.54128 0.50834 0.3526 0.0
H1446 H 0.52889 0.53638 0.37134 0.0
H1447 H 0.54233 0.56589 0.35696 0.0
H1448 H 0.42322 0.01 0.49126 0.0
H1449 H 0.45372 0.99762 0.49748 0.0
H1450 H 0.46323 0.03251 0.58818 0.0
H1451 H 0.43302 0.04569 0.58071 0.0
H1452 H 0.49113 0.03323 0.54803 0.0
H1453 H 0.473 0.96121 0.56474 0.0
H1454 H 0.46383 0.96964 0.52368 0.0
H1455 H 0.45618 0.97894 0.56565 0.0
C1456 C 0.43179 0.01495 0.51264 0.0
C1457 C 0.42578 0.02879 0.5355 0.0
C1458 C 0.44917 0.00773 0.51642 0.0
C1459 C 0.46066 0.01377 0.54389 0.0
C1460 C 0.4546 0.02754 0.56691 0.0
H1461 H 0.56247 0.95503 0.57853 0.0
H1462 H 0.53203 0.96763 0.58651 0.0
C1463 C 0.43736 0.03508 0.5626 0.0
C1464 C 0.47935 0.00648 0.54718 0.0
H1465 H 0.50381 0.96722 0.54638 0.0
C1466 C 0.49387 0.01879 0.54821 0.0
C1467 C 0.48301 0.98764 0.54831 0.0
C1468 C 0.46814 0.97364 0.55097 0.0
C1469 C 0.51191 0.01279 0.54884 0.0
C1470 C 0.51557 0.99398 0.54675 0.0
C1471 C 0.50106 0.98166 0.54728 0.0
C1472 C 0.53426 0.9868 0.54286 0.0
C1473 C 0.52678 0.02676 0.55212 0.0
C1474 C 0.5456 0.99323 0.51549 0.0
C1475 C 0.56308 0.98633 0.5114 0.0
C1476 C 0.56939 0.97244 0.53386 0.0
C1477 C 0.55793 0.9657 0.56076 0.0
C1478 C 0.54055 0.9729 0.56535 0.0
H1479 H 0.52194 0.03901 0.5665 0.0
H1480 H 0.53875 0.02127 0.5665 0.0
H1481 H 0.53107 0.0311 0.52502 0.0
H1482 H 0.54086 0.00344 0.49693 0.0
H1483 H 0.57152 0.99163 0.49014 0.0
H1484 H 0.04671 0.06808 0.85289 0.0
H1485 H 0.0335 0.03824 0.86505 0.0
H1486 H 0.9972 0.04499 0.77557 0.0
H1487 H 0.00953 0.07505 0.76467 0.0
H1488 H 0.98034 0.02843 0.82705 0.0
H1489 H 0.04719 0.99504 0.80787 0.0
H1490 H 0.04648 0.01061 0.84463 0.0
H1491 H 0.04382 0.01885 0.79964 0.0
C1492 C 0.03575 0.06326 0.83613 0.0
C1493 C 0.02932 0.07383 0.80753 0.0
C1494 C 0.02831 0.04615 0.84293 0.0
C1495 C 0.01473 0.03912 0.82057 0.0
C1496 C 0.00774 0.05004 0.79311 0.0
H1497 H 0.99329 0.93239 0.7515 0.0
H1498 H 0.00434 0.96262 0.76575 0.0
C1499 C 0.01485 0.06726 0.78683 0.0
C1500 C 0.00828 0.02013 0.82409 0.0
H1501 H 0.02232 0.9761 0.81898 0.0
C1502 C 0.98951 0.01696 0.82551 0.0
C1503 C 0.02028 0.00517 0.82186 0.0
C1504 C 0.04054 0.00752 0.81808 0.0
C1505 C 0.98235 0.99938 0.82292 0.0
C1506 C 0.99436 0.98444 0.82044 0.0
C1507 C 0.01314 0.98756 0.82095 0.0
C1508 C 0.98788 0.96572 0.81333 0.0
C1509 C 0.96203 0.99716 0.82064 0.0
C1510 C 0.97511 0.95721 0.83558 0.0
C1511 C 0.96841 0.94001 0.82692 0.0
C1512 C 0.97478 0.93084 0.79645 0.0
C1513 C 0.98812 0.93908 0.77515 0.0
C1514 C 0.99447 0.95638 0.78334 0.0
H1515 H 0.95515 0.01012 0.8139 0.0
H1516 H 0.95828 0.98692 0.8002 0.0
H1517 H 0.95678 0.99257 0.8469 0.0
H1518 H 0.97023 0.96388 0.85947 0.0
H1519 H 0.95832 0.93386 0.84412 0.0
H1520 H 0.08788 0.07948 0.70335 0.0
H1521 H 0.09556 0.06465 0.64713 0.0
H1522 H 0.05383 0.09518 0.59331 0.0
H1523 H 0.04569 0.10985 0.64961 0.0
H1524 H 0.05429 0.05842 0.57503 0.0
H1525 H 0.12315 0.08898 0.56587 0.0
H1526 H 0.11855 0.07657 0.60616 0.0
H1527 H 0.10626 0.09707 0.59687 0.0
C1528 C 0.08032 0.08311 0.67959 0.0
C1529 C 0.06625 0.096 0.68095 0.0
C1530 C 0.08479 0.07463 0.64747 0.0
C1531 C 0.07544 0.07903 0.61607 0.0
C1532 C 0.06122 0.09165 0.61735 0.0
H1533 H 0.07814 0.07083 0.39428 0.0
H1534 H 0.07088 0.07322 0.45747 0.0
C1535 C 0.05664 0.10007 0.6495 0.0
C1536 C 0.08057 0.07072 0.58163 0.0
H1537 H 0.11437 0.0694 0.51944 0.0
C1538 C 0.06748 0.06066 0.563 0.0
C1539 C 0.09785 0.07357 0.56621 0.0
C1540 C 0.11225 0.08474 0.58459 0.0
C1541 C 0.07102 0.05389 0.52873 0.0
C1542 C 0.088 0.05741 0.51275 0.0
C1543 C 0.1014 0.06667 0.53202 0.0
C1544 C 0.09124 0.05396 0.47449 0.0
C1545 C 0.05643 0.04342 0.50946 0.0
C1546 C 0.10517 0.04233 0.46322 0.0
C1547 C 0.10937 0.04086 0.42688 0.0
C1548 C 0.09991 0.05131 0.40155 0.0
C1549 C 0.08573 0.06264 0.41307 0.0
C1550 C 0.08144 0.06392 0.44917 0.0
H1551 H 0.04659 0.03733 0.52848 0.0
H1552 H 0.04887 0.05277 0.49162 0.0
H1553 H 0.06237 0.03248 0.49277 0.0
H1554 H 0.11299 0.03471 0.48258 0.0
H1555 H 0.12041 0.03209 0.41878 0.0
H1556 H 0.9595 0.61776 0.67384 0.0
H1557 H 0.94766 0.60904 0.73251 0.0
H1558 H 0.89728 0.59256 0.68391 0.0
H1559 H 0.90877 0.60133 0.62544 0.0
H1560 H 0.89306 0.6136 0.74623 0.0
H1561 H 0.94064 0.55596 0.76554 0.0
H1562 H 0.9512 0.57734 0.75565 0.0
H1563 H 0.93713 0.56663 0.72266 0.0
C1564 C 0.94587 0.61237 0.67563 0.0
C1565 C 0.93513 0.6102 0.64486 0.0
C1566 C 0.93918 0.6073 0.70912 0.0
C1567 C 0.92171 0.59994 0.71231 0.0
C1568 C 0.91083 0.59816 0.68188 0.0
H1569 H 0.8787 0.54109 0.89514 0.0
H1570 H 0.88703 0.55047 0.83455 0.0
C1571 C 0.91746 0.60318 0.64847 0.0
C1572 C 0.91469 0.59399 0.74733 0.0
H1573 H 0.92168 0.56351 0.81449 0.0
C1574 C 0.89927 0.60264 0.76118 0.0
C1575 C 0.92268 0.57947 0.76631 0.0
C1576 C 0.93873 0.56917 0.75173 0.0
C1577 C 0.89183 0.59738 0.79405 0.0
C1578 C 0.90018 0.58326 0.81358 0.0
C1579 C 0.91537 0.57437 0.79939 0.0
C1580 C 0.89383 0.57797 0.8495 0.0
C1581 C 0.87503 0.60686 0.80749 0.0
C1582 C 0.89488 0.59038 0.87773 0.0
C1583 C 0.89016 0.58512 0.91225 0.0
C1584 C 0.88438 0.56727 0.91924 0.0
C1585 C 0.88302 0.55495 0.89069 0.0
C1586 C 0.8878 0.56025 0.8561 0.0
H1587 H 0.86762 0.61375 0.7855 0.0
H1588 H 0.86572 0.59714 0.82079 0.0
H1589 H 0.879 0.6173 0.82735 0.0
H1590 H 0.89982 0.60403 0.87324 0.0
H1591 H 0.89146 0.59497 0.93355 0.0
H1592 H 0.41042 0.40653 0.19429 0.0
H1593 H 0.40194 0.41685 0.13477 0.0
H1594 H 0.45385 0.39976 0.09392 0.0
H1595 H 0.46266 0.3894 0.15362 0.0
H1596 H 0.4418 0.43574 0.07207 0.0
H1597 H 0.39005 0.38201 0.05057 0.0
H1598 H 0.38786 0.39448 0.09161 0.0
H1599 H 0.40737 0.38034 0.08452 0.0
C1600 C 0.42009 0.40488 0.17275 0.0
C1601 C 0.43719 0.39696 0.17872 0.0
C1602 C 0.41517 0.41078 0.13874 0.0
C1603 C 0.4272 0.40885 0.11006 0.0
C1604 C 0.44439 0.40127 0.11585 0.0
H1605 H 0.4039 0.41395 0.88584 0.0
H1606 H 0.41375 0.40621 0.94595 0.0
C1607 C 0.44935 0.39532 0.14992 0.0
C1608 C 0.4217 0.41459 0.07392 0.0
H1609 H 0.39152 0.4054 0.00736 0.0
C1610 C 0.43084 0.42913 0.0578 0.0
C1611 C 0.40747 0.40581 0.05552 0.0
C1612 C 0.39768 0.38969 0.07122 0.0
C1613 C 0.42597 0.43524 0.02361 0.0
C1614 C 0.41152 0.42664 0.0055 0.0
C1615 C 0.40249 0.41203 0.02157 0.0
C1616 C 0.40607 0.43196 0.96906 0.0
C1617 C 0.4365 0.45056 0.00682 0.0
C1618 C 0.39843 0.44903 0.96227 0.0
C1619 C 0.39271 0.45357 0.92778 0.0
C1620 C 0.39449 0.44102 0.89967 0.0
C1621 C 0.40225 0.42395 0.90677 0.0
C1622 C 0.40792 0.41947 0.94112 0.0
H1623 H 0.44942 0.45324 0.02115 0.0
H1624 H 0.43959 0.44752 0.9784 0.0
H1625 H 0.4282 0.4631 0.00761 0.0
H1626 H 0.39666 0.45873 0.98371 0.0
H1627 H 0.38679 0.46681 0.92325 0.0
H1628 H 0.61665 0.96078 0.39481 0.0
H1629 H 0.60848 0.94987 0.33516 0.0
H1630 H 0.59423 0.89779 0.37936 0.0
H1631 H 0.60239 0.90838 0.43884 0.0
H1632 H 0.61567 0.89637 0.31579 0.0
H1633 H 0.55519 0.94099 0.30321 0.0
H1634 H 0.57608 0.95226 0.31413 0.0
H1635 H 0.5662 0.9367 0.34547 0.0
C1636 C 0.61188 0.94697 0.39184 0.0
C1637 C 0.6101 0.93549 0.42168 0.0
C1638 C 0.60714 0.94081 0.3578 0.0
C1639 C 0.60056 0.92313 0.35312 0.0
C1640 C 0.59923 0.91151 0.38258 0.0
H1641 H 0.54143 0.87901 0.17295 0.0
H1642 H 0.5517 0.88778 0.23267 0.0
C1643 C 0.6039 0.91763 0.41656 0.0
C1644 C 0.59474 0.91671 0.31762 0.0
H1645 H 0.5629 0.92325 0.25281 0.0
C1646 C 0.60415 0.90222 0.30194 0.0
C1647 C 0.57954 0.92424 0.30008 0.0
C1648 C 0.56853 0.93931 0.31661 0.0
C1649 C 0.59887 0.8952 0.26873 0.0
C1650 C 0.58393 0.90302 0.25081 0.0
C1651 C 0.57439 0.91735 0.2667 0.0
C1652 C 0.57816 0.89678 0.21515 0.0
C1653 C 0.60914 0.87933 0.25331 0.0
C1654 C 0.58968 0.89898 0.18573 0.0
C1655 C 0.58391 0.89401 0.15166 0.0
C1656 C 0.56644 0.8868 0.14637 0.0
C1657 C 0.55499 0.88443 0.17607 0.0
C1658 C 0.56079 0.88946 0.21018 0.0
H1659 H 0.61717 0.87213 0.27404 0.0
H1660 H 0.59974 0.86952 0.24053 0.0
H1661 H 0.61866 0.88431 0.23256 0.0
H1662 H 0.60302 0.9049 0.18902 0.0
H1663 H 0.59307 0.89612 0.12943 0.0
H1664 H 0.10367 0.40858 0.61858 0.0
H1665 H 0.11642 0.42136 0.67328 0.0
H1666 H 0.07036 0.4019 0.73298 0.0
H1667 H 0.05733 0.38919 0.6785 0.0
H1668 H 0.08003 0.43946 0.74454 0.0
H1669 H 0.13851 0.39206 0.75781 0.0
H1670 H 0.13558 0.40335 0.71557 0.0
H1671 H 0.11915 0.38698 0.73002 0.0
C1672 C 0.09627 0.40689 0.64335 0.0
C1673 C 0.07948 0.39778 0.64415 0.0
C1674 C 0.10362 0.41419 0.67455 0.0
C1675 C 0.09435 0.41246 0.70702 0.0
C1676 C 0.07767 0.40335 0.70802 0.0
H1677 H 0.11134 0.41238 0.92433 0.0
H1678 H 0.10872 0.40787 0.8604 0.0
C1679 C 0.0703 0.39603 0.6769 0.0
C1680 C 0.10184 0.42021 0.7402 0.0
H1681 H 0.13427 0.41336 0.80368 0.0
C1682 C 0.09205 0.43401 0.75731 0.0
C1683 C 0.11755 0.41302 0.75646 0.0
C1684 C 0.12832 0.39796 0.73927 0.0
C1685 C 0.09705 0.44019 0.79131 0.0
C1686 C 0.11233 0.43246 0.80825 0.0
C1687 C 0.12267 0.41933 0.79032 0.0
C1688 C 0.11584 0.43544 0.84659 0.0
C1689 C 0.08531 0.45408 0.80982 0.0
C1690 C 0.12104 0.45243 0.85996 0.0
C1691 C 0.12255 0.45514 0.89687 0.0
C1692 C 0.11884 0.44086 0.92074 0.0
C1693 C 0.11423 0.42374 0.90691 0.0
C1694 C 0.11279 0.42107 0.87027 0.0
H1695 H 0.07284 0.45725 0.79439 0.0
H1696 H 0.08131 0.44915 0.83673 0.0
H1697 H 0.09311 0.46681 0.81341 0.0
H1698 H 0.1236 0.46363 0.84193 0.0
H1699 H 0.12618 0.46848 0.90666 0.0
H1700 H 0.57316 0.57237 0.19831 0.0
H1701 H 0.57978 0.55979 0.13958 0.0
H1702 H 0.54508 0.59979 0.09066 0.0
H1703 H 0.53794 0.61228 0.14966 0.0
H1704 H 0.54142 0.56518 0.06098 0.0
H1705 H 0.61381 0.58553 0.0707 0.0
H1706 H 0.60619 0.57127 0.10655 0.0
H1707 H 0.5968 0.59363 0.10143 0.0
C1708 C 0.56684 0.57848 0.17513 0.0
C1709 C 0.55521 0.5935 0.17859 0.0
C1710 C 0.5707 0.57128 0.14159 0.0
C1711 C 0.56324 0.57913 0.11084 0.0
C1712 C 0.55105 0.59364 0.11418 0.0
H1713 H 0.57854 0.57615 0.88635 0.0
H1714 H 0.56788 0.57999 0.94739 0.0
C1715 C 0.54701 0.60076 0.14784 0.0
C1716 C 0.56873 0.57264 0.07513 0.0
H1717 H 0.60532 0.56855 0.01994 0.0
C1718 C 0.55539 0.56585 0.052 0.0
C1719 C 0.58699 0.57355 0.06361 0.0
C1720 C 0.60176 0.58153 0.0867 0.0
C1721 C 0.55984 0.56003 0.01743 0.0
C1722 C 0.57803 0.56116 0.00585 0.0
C1723 C 0.59142 0.56756 0.02921 0.0
C1724 C 0.58326 0.55746 0.96857 0.0
C1725 C 0.54507 0.55281 0.99343 0.0
C1726 C 0.59558 0.54357 0.96045 0.0
C1727 C 0.60178 0.54129 0.92543 0.0
C1728 C 0.59593 0.55309 0.89823 0.0
C1729 C 0.58338 0.56683 0.90659 0.0
C1730 C 0.57712 0.56898 0.94142 0.0
H1731 H 0.53302 0.5484 0.00897 0.0
H1732 H 0.54074 0.56367 0.97477 0.0
H1733 H 0.55006 0.54121 0.97729 0.0
H1734 H 0.60059 0.53469 0.98129 0.0
H1735 H 0.61144 0.5306 0.91987 0.0
H1736 H 0.3941 0.09337 0.43997 0.0
H1737 H 0.40232 0.1032 0.38 0.0
H1738 H 0.38589 0.05136 0.33771 0.0
H1739 H 0.37771 0.04121 0.39784 0.0
H1740 H 0.42088 0.06287 0.31655 0.0
H1741 H 0.36923 0.11657 0.29527 0.0
H1742 H 0.38154 0.11852 0.33651 0.0
H1743 H 0.36698 0.09934 0.32928 0.0
C1744 C 0.39202 0.08407 0.41797 0.0
C1745 C 0.38521 0.06648 0.42377 0.0
C1746 C 0.39665 0.08978 0.38366 0.0
C1747 C 0.39449 0.07808 0.35451 0.0
C1748 C 0.38753 0.0606 0.35999 0.0
H1749 H 0.40662 0.10319 0.13062 0.0
H1750 H 0.39561 0.09472 0.18968 0.0
C1751 C 0.38285 0.05485 0.39433 0.0
C1752 C 0.40052 0.08377 0.31864 0.0
H1753 H 0.39368 0.11553 0.25375 0.0
C1754 C 0.41489 0.07432 0.30268 0.0
C1755 C 0.39257 0.09864 0.3007 0.0
C1756 C 0.37661 0.10878 0.31611 0.0
C1757 C 0.42176 0.07955 0.26934 0.0
C1758 C 0.41418 0.09476 0.2519 0.0
C1759 C 0.39959 0.10402 0.26754 0.0
C1760 C 0.42079 0.10083 0.21668 0.0
C1761 C 0.4369 0.06863 0.2528 0.0
C1762 C 0.4385 0.10743 0.21258 0.0
C1763 C 0.4449 0.11232 0.1788 0.0
C1764 C 0.43364 0.11072 0.14864 0.0
C1765 C 0.41571 0.10456 0.15318 0.0
C1766 C 0.40935 0.09972 0.18692 0.0
H1767 H 0.43847 0.05519 0.26584 0.0
H1768 H 0.43445 0.06653 0.22381 0.0
H1769 H 0.44985 0.07613 0.25581 0.0
H1770 H 0.44742 0.10862 0.23547 0.0
H1771 H 0.45875 0.11706 0.17629 0.0
H1772 H 0.96131 0.89384 0.64091 0.0
H1773 H 0.94972 0.90554 0.58422 0.0
H1774 H 0.90134 0.92438 0.63722 0.0
H1775 H 0.9126 0.9126 0.69386 0.0
H1776 H 0.89432 0.90448 0.57646 0.0
H1777 H 0.94521 0.95807 0.54942 0.0
H1778 H 0.9551 0.93634 0.55882 0.0
H1779 H 0.94239 0.94787 0.59296 0.0
C1780 C 0.94824 0.90055 0.64059 0.0
C1781 C 0.93788 0.90221 0.67196 0.0
C1782 C 0.94172 0.90736 0.60822 0.0
C1783 C 0.92482 0.91606 0.60673 0.0
C1784 C 0.91448 0.91781 0.63793 0.0
H1785 H 0.88447 0.96701 0.40971 0.0
H1786 H 0.89225 0.96237 0.47279 0.0
C1787 C 0.92095 0.91102 0.67027 0.0
C1788 C 0.91739 0.92228 0.57219 0.0
H1789 H 0.92654 0.94906 0.50007 0.0
C1790 C 0.90124 0.9144 0.55994 0.0
C1791 C 0.92629 0.93543 0.55103 0.0
C1792 C 0.94312 0.94507 0.56384 0.0
C1793 C 0.8942 0.91868 0.52622 0.0
C1794 C 0.90372 0.93097 0.50416 0.0
C1795 C 0.91938 0.93953 0.51706 0.0
C1796 C 0.89846 0.93388 0.46658 0.0
C1797 C 0.87681 0.90979 0.51421 0.0
C1798 C 0.89958 0.91943 0.44243 0.0
C1799 C 0.89523 0.92199 0.40661 0.0
C1800 C 0.88969 0.93912 0.39413 0.0
C1801 C 0.88857 0.95363 0.41847 0.0
C1802 C 0.89304 0.95103 0.45444 0.0
H1803 H 0.86866 0.90496 0.53729 0.0
H1804 H 0.86845 0.91929 0.49813 0.0
H1805 H 0.8801 0.89788 0.49729 0.0
H1806 H 0.90407 0.90617 0.45125 0.0
H1807 H 0.89638 0.91052 0.3887 0.0
H1808 H 0.04084 0.12824 0.92016 0.0
H1809 H 0.04801 0.12676 0.98397 0.0
H1810 H 0.10451 0.11871 0.95863 0.0
H1811 H 0.09762 0.12066 0.89529 0.0
H1812 H 0.06091 0.09682 0.01389 0.0
H1813 H 0.10872 0.15259 0.04199 0.0
H1814 H 0.09497 0.15201 0.00207 0.0
H1815 H 0.11604 0.13968 0.00409 0.0
C1816 C 0.05485 0.12663 0.92824 0.0
C1817 C 0.06863 0.12437 0.9027 0.0
C1818 C 0.05892 0.12581 0.96467 0.0
C1819 C 0.07682 0.1228 0.97605 0.0
C1820 C 0.09069 0.12149 0.95057 0.0
H1821 H 0.11232 0.05794 0.15174 0.0
H1822 H 0.1048 0.07139 0.09386 0.0
C1823 C 0.08667 0.12242 0.91426 0.0
C1824 C 0.08072 0.11832 0.01379 0.0
H1825 H 0.11036 0.12665 0.08185 0.0
C1826 C 0.0715 0.10357 0.02898 0.0
C1827 C 0.09443 0.1272 0.03358 0.0
C1828 C 0.10395 0.14387 0.01968 0.0
C1829 C 0.07621 0.09691 0.06274 0.0
C1830 C 0.09082 0.10494 0.08136 0.0
C1831 C 0.09944 0.12027 0.06707 0.0
C1832 C 0.09728 0.0975 0.1157 0.0
C1833 C 0.06553 0.08126 0.07805 0.0
C1834 C 0.09643 0.10807 0.14674 0.0
C1835 C 0.1009 0.10051 0.17975 0.0
C1836 C 0.10627 0.08224 0.1822 0.0
C1837 C 0.10804 0.07198 0.15077 0.0
C1838 C 0.10365 0.0796 0.11774 0.0
H1839 H 0.05191 0.08016 0.06556 0.0
H1840 H 0.07291 0.06842 0.07279 0.0
H1841 H 0.06381 0.08271 0.10739 0.0
H1842 H 0.09169 0.12196 0.1456 0.0
H1843 H 0.09949 0.10882 0.20346 0.0
H1844 H 0.9166 0.61911 0.41904 0.0
H1845 H 0.90887 0.6085 0.35928 0.0
H1846 H 0.96282 0.58694 0.34648 0.0
H1847 H 0.97081 0.59762 0.40655 0.0
H1848 H 0.94817 0.60529 0.28476 0.0
H1849 H 0.90134 0.55355 0.33999 0.0
H1850 H 0.89716 0.57605 0.35638 0.0
H1851 H 0.91819 0.56494 0.36689 0.0
C1852 C 0.92693 0.61232 0.40341 0.0
C1853 C 0.94426 0.609 0.41766 0.0
C1854 C 0.92244 0.60618 0.36937 0.0
C1855 C 0.93514 0.59655 0.34902 0.0
C1856 C 0.9528 0.59418 0.36211 0.0
H1857 H 0.90267 0.53573 0.15793 0.0
H1858 H 0.91506 0.54332 0.21689 0.0
C1859 C 0.95735 0.60037 0.39629 0.0
C1860 C 0.92962 0.58859 0.31454 0.0
H1861 H 0.89876 0.55972 0.27744 0.0
C1862 C 0.93753 0.59518 0.28309 0.0
C1863 C 0.91597 0.57515 0.31263 0.0
C1864 C 0.90778 0.56685 0.34578 0.0
C1865 C 0.93144 0.58933 0.24953 0.0
C1866 C 0.91695 0.5768 0.24761 0.0
C1867 C 0.9097 0.5695 0.27908 0.0
C1868 C 0.90853 0.57186 0.21318 0.0
C1869 C 0.94044 0.59675 0.2164 0.0
C1870 C 0.90014 0.58528 0.19247 0.0
C1871 C 0.89303 0.58101 0.15904 0.0
C1872 C 0.8941 0.56321 0.14578 0.0
C1873 C 0.90167 0.54957 0.1674 0.0
C1874 C 0.90882 0.55389 0.20095 0.0
H1875 H 0.95429 0.60189 0.22221 0.0
H1876 H 0.94136 0.58625 0.19521 0.0
H1877 H 0.93229 0.60823 0.20591 0.0
H1878 H 0.89937 0.59914 0.20194 0.0
H1879 H 0.88712 0.5918 0.14323 0.0
H1880 H 0.39137 0.45981 0.65385 0.0
H1881 H 0.39926 0.44845 0.5944 0.0
H1882 H 0.38155 0.39488 0.62476 0.0
H1883 H 0.37389 0.40601 0.68425 0.0
H1884 H 0.4165 0.39566 0.5983 0.0
H1885 H 0.36919 0.4323 0.50829 0.0
H1886 H 0.38155 0.44674 0.5383 0.0
H1887 H 0.36556 0.43065 0.5559 0.0
C1888 C 0.38874 0.44572 0.64757 0.0
C1889 C 0.38213 0.43377 0.67376 0.0
C1890 C 0.39323 0.43926 0.61359 0.0
C1891 C 0.39094 0.42084 0.60526 0.0
C1892 C 0.38345 0.40913 0.63076 0.0
H1893 H 0.40521 0.37414 0.39544 0.0
H1894 H 0.3942 0.38157 0.45514 0.0
C1895 C 0.37905 0.41553 0.66469 0.0
C1896 C 0.39779 0.41341 0.57119 0.0
H1897 H 0.3937 0.41667 0.48072 0.0
C1898 C 0.41144 0.40014 0.57255 0.0
C1899 C 0.39108 0.41924 0.53778 0.0
C1900 C 0.37592 0.4329 0.53483 0.0
C1901 C 0.41875 0.39269 0.54125 0.0
C1902 C 0.4124 0.3989 0.50783 0.0
C1903 C 0.39858 0.41199 0.50648 0.0
C1904 C 0.41988 0.39213 0.47375 0.0
C1905 C 0.43302 0.37812 0.54423 0.0
C1906 C 0.43812 0.39514 0.46486 0.0
C1907 C 0.44452 0.39078 0.43078 0.0
C1908 C 0.43268 0.38358 0.40503 0.0
C1909 C 0.41465 0.37976 0.41467 0.0
C1910 C 0.40831 0.38403 0.44871 0.0
H1911 H 0.43287 0.37155 0.57096 0.0
H1912 H 0.43108 0.36753 0.52349 0.0
H1913 H 0.4466 0.38428 0.54026 0.0
H1914 H 0.44719 0.40164 0.48367 0.0
H1915 H 0.45844 0.394 0.42405 0.0
H1916 H 0.59528 0.96803 0.66107 0.0
H1917 H 0.58471 0.95944 0.72087 0.0
H1918 H 0.60668 0.90577 0.7062 0.0
H1919 H 0.61717 0.91411 0.64669 0.0
H1920 H 0.56906 0.90724 0.72605 0.0
H1921 H 0.6136 0.94866 0.81431 0.0
H1922 H 0.60225 0.96029 0.77844 0.0
H1923 H 0.61937 0.94378 0.76839 0.0
C1924 C 0.5982 0.95453 0.67093 0.0
C1925 C 0.60697 0.94171 0.64914 0.0
C1926 C 0.59213 0.94965 0.70501 0.0
C1927 C 0.5949 0.93197 0.71772 0.0
C1928 C 0.60435 0.91945 0.69667 0.0
H1929 H 0.58786 0.88156 0.92086 0.0
H1930 H 0.59529 0.8928 0.86139 0.0
C1931 C 0.61038 0.92427 0.66273 0.0
C1932 C 0.58714 0.92599 0.75207 0.0
H1933 H 0.59171 0.93024 0.84228 0.0
C1934 C 0.57388 0.91234 0.75153 0.0
C1935 C 0.59355 0.93271 0.78504 0.0
C1936 C 0.60806 0.94709 0.78687 0.0
C1937 C 0.56713 0.90486 0.78329 0.0
C1938 C 0.57375 0.91138 0.81626 0.0
C1939 C 0.58668 0.92534 0.81681 0.0
C1940 C 0.5684 0.90311 0.85056 0.0
C1941 C 0.55352 0.88962 0.78141 0.0
C1942 C 0.55065 0.9048 0.86364 0.0
C1943 C 0.54629 0.89829 0.89767 0.0
C1944 C 0.5597 0.89017 0.91906 0.0
C1945 C 0.57725 0.88783 0.90511 0.0
C1946 C 0.58155 0.89429 0.87121 0.0
H1947 H 0.55214 0.88413 0.75391 0.0
H1948 H 0.55748 0.87842 0.79965 0.0
H1949 H 0.54006 0.8947 0.79012 0.0
H1950 H 0.54038 0.91173 0.8481 0.0
H1951 H 0.5327 0.90038 0.90781 0.0
H1952 H 0.03059 0.38513 0.41283 0.0
H1953 H 0.03296 0.38935 0.348 0.0
H1954 H 0.09119 0.38502 0.35523 0.0
H1955 H 0.08897 0.38031 0.41923 0.0
H1956 H 0.04938 0.41728 0.31602 0.0
H1957 H 0.08156 0.35413 0.26946 0.0
H1958 H 0.0713 0.35603 0.3131 0.0
H1959 H 0.09428 0.3635 0.3058 0.0
C1960 C 0.04385 0.38464 0.40041 0.0
C1961 C 0.05959 0.38246 0.42116 0.0
C1962 C 0.04518 0.38709 0.36344 0.0
C1963 C 0.06223 0.38727 0.34676 0.0
C1964 C 0.07786 0.38446 0.36734 0.0
H1965 H 0.10238 0.44944 0.17167 0.0
H1966 H 0.09065 0.43801 0.22863 0.0
C1967 C 0.07656 0.38193 0.40408 0.0
C1968 C 0.06411 0.39231 0.30871 0.0
H1969 H 0.08714 0.38089 0.23311 0.0
C1970 C 0.05731 0.40916 0.29759 0.0
C1971 C 0.07418 0.38159 0.2845 0.0
C1972 C 0.08055 0.36272 0.29377 0.0
C1973 C 0.06126 0.41607 0.26356 0.0
C1974 C 0.07277 0.40608 0.24062 0.0
C1975 C 0.07863 0.38874 0.25098 0.0
C1976 C 0.0793 0.41342 0.20612 0.0
C1977 C 0.05313 0.43403 0.25275 0.0
C1978 C 0.07736 0.40314 0.17486 0.0
C1979 C 0.08448 0.40939 0.14266 0.0
C1980 C 0.09353 0.42614 0.14102 0.0
C1981 C 0.09536 0.43654 0.1722 0.0
C1982 C 0.0885 0.4301 0.20463 0.0
H1983 H 0.0402 0.43661 0.26712 0.0
H1984 H 0.06267 0.44509 0.25987 0.0
H1985 H 0.0505 0.43461 0.22356 0.0
H1986 H 0.07039 0.39021 0.17539 0.0
H1987 H 0.08272 0.40114 0.11896 0.0
H1988 H 0.60933 0.60349 0.69457 0.0
H1989 H 0.60349 0.61532 0.63484 0.0
H1990 H 0.6118 0.56202 0.59036 0.0
H1991 H 0.61729 0.54989 0.65027 0.0
H1992 H 0.62211 0.61597 0.57011 0.0
H1993 H 0.55946 0.57439 0.56275 0.0
H1994 H 0.57209 0.5773 0.60361 0.0
H1995 H 0.57969 0.56142 0.57038 0.0
C1996 C 0.61016 0.59428 0.67208 0.0
C1997 C 0.61342 0.57566 0.6772 0.0
C1998 C 0.60686 0.6011 0.63797 0.0
C1999 C 0.60681 0.58945 0.60844 0.0
C2000 C 0.61138 0.57113 0.61306 0.0
H2001 H 0.59956 0.61218 0.38505 0.0
H2002 H 0.60985 0.6085 0.44633 0.0
C2003 C 0.61459 0.56424 0.64724 0.0
C2004 C 0.60065 0.59623 0.57337 0.0
H2005 H 0.5679 0.59021 0.51029 0.0
C2006 C 0.61023 0.61041 0.55699 0.0
C2007 C 0.58486 0.58926 0.55692 0.0
C2008 C 0.5733 0.57488 0.57443 0.0
C2009 C 0.60472 0.61745 0.52388 0.0
C2010 C 0.58945 0.60985 0.50663 0.0
C2011 C 0.57962 0.596 0.52354 0.0
C2012 C 0.58392 0.61511 0.47011 0.0
C2013 C 0.61522 0.63302 0.5079 0.0
C2014 C 0.56591 0.62015 0.46305 0.0
C2015 C 0.55985 0.62198 0.42787 0.0
C2016 C 0.57174 0.61876 0.39924 0.0
C2017 C 0.59003 0.61475 0.40648 0.0
C2018 C 0.59601 0.61279 0.44158 0.0
H2019 H 0.62218 0.64108 0.52891 0.0
H2020 H 0.62578 0.62758 0.4897 0.0
H2021 H 0.60625 0.64218 0.49233 0.0
H2022 H 0.55635 0.62194 0.48476 0.0
H2023 H 0.54572 0.62516 0.42315 0.0
H2024 H 0.40014 0.03338 0.66268 0.0
H2025 H 0.41168 0.04104 0.72224 0.0
H2026 H 0.39395 0.0963 0.70813 0.0
H2027 H 0.3825 0.08888 0.64883 0.0
H2028 H 0.43134 0.09189 0.72799 0.0
H2029 H 0.38373 0.05373 0.81575 0.0
H2030 H 0.3942 0.04134 0.77982 0.0
H2031 H 0.3784 0.05913 0.76986 0.0
C2032 C 0.39837 0.04706 0.67258 0.0
C2033 C 0.39048 0.06055 0.65103 0.0
C2034 C 0.405 0.05141 0.70654 0.0
C2035 C 0.40367 0.06923 0.71937 0.0
C2036 C 0.39516 0.0825 0.69851 0.0
H2037 H 0.41426 0.11842 0.92283 0.0
H2038 H 0.40619 0.10799 0.86313 0.0
C2039 C 0.38858 0.0782 0.6647 0.0
C2040 C 0.41188 0.07449 0.75378 0.0
H2041 H 0.40697 0.0703 0.84394 0.0
C2042 C 0.42615 0.08709 0.75341 0.0
C2043 C 0.40498 0.06817 0.78667 0.0
C2044 C 0.38941 0.05493 0.78834 0.0
C2045 C 0.43344 0.09392 0.78527 0.0
C2046 C 0.42633 0.08783 0.81816 0.0
C2047 C 0.41237 0.07488 0.81853 0.0
C2048 C 0.43222 0.0956 0.85256 0.0
C2049 C 0.44818 0.10807 0.78361 0.0
C2050 C 0.44972 0.09246 0.86587 0.0
C2051 C 0.45445 0.0985 0.90006 0.0
C2052 C 0.44164 0.10759 0.92136 0.0
C2053 C 0.4244 0.11137 0.90716 0.0
C2054 C 0.41974 0.10538 0.87312 0.0
H2055 H 0.45009 0.11345 0.75613 0.0
H2056 H 0.445 0.11954 0.80179 0.0
H2057 H 0.46117 0.10199 0.79255 0.0
H2058 H 0.45947 0.08478 0.8504 0.0
H2059 H 0.46778 0.09529 0.91038 0.0
H2060 H 0.89662 0.95019 0.14633 0.0
H2061 H 0.906 0.93883 0.0878 0.0
H2062 H 0.89652 0.88393 0.12291 0.0
H2063 H 0.88739 0.89509 0.1816 0.0
H2064 H 0.93026 0.88874 0.09184 0.0
H2065 H 0.87574 0.91745 0.00678 0.0
H2066 H 0.88685 0.93397 0.03435 0.0
H2067 H 0.8739 0.91611 0.05481 0.0
C2068 C 0.89625 0.93572 0.14142 0.0
C2069 C 0.89129 0.92355 0.1686 0.0
C2070 C 0.90157 0.92926 0.10795 0.0
C2071 C 0.90182 0.91056 0.10105 0.0
C2072 C 0.89642 0.89841 0.12779 0.0
H2073 H 0.91636 0.86764 0.88814 0.0
H2074 H 0.90627 0.87181 0.9497 0.0
C2075 C 0.89115 0.90484 0.16125 0.0
C2076 C 0.9086 0.90359 0.06655 0.0
H2077 H 0.90157 0.90557 0.97669 0.0
C2078 C 0.92392 0.89228 0.06662 0.0
C2079 C 0.90017 0.90809 0.03386 0.0
C2080 C 0.88315 0.91943 0.03233 0.0
C2081 C 0.9313 0.88565 0.03464 0.0
C2082 C 0.92328 0.89074 0.00187 0.0
C2083 C 0.90774 0.90174 0.0019 0.0
C2084 C 0.93085 0.88522 0.96696 0.0
C2085 C 0.94751 0.8732 0.03624 0.0
C2086 C 0.94829 0.8908 0.95667 0.0
C2087 C 0.95418 0.88826 0.92152 0.0
C2088 C 0.94256 0.8804 0.89614 0.0
C2089 C 0.92555 0.87385 0.90712 0.0
C2090 C 0.91976 0.87624 0.94223 0.0
H2091 H 0.94867 0.8665 0.06274 0.0
H2092 H 0.94675 0.86259 0.01525 0.0
H2093 H 0.96002 0.88124 0.0318 0.0
H2094 H 0.95693 0.89805 0.97519 0.0
H2095 H 0.96729 0.89356 0.91373 0.0
loop_
_geom_bond_atom_site_label_1
_geom_bond_atom_site_label_2
_geom_bond_distance
_geom_bond_site_symmetry_2
_ccdc_geom_bond_type
Co0 O2 2.143 . S
Co0 O8 2.074 . S
Co0 O11 2.093 . S
Co0 O24 2.097 . S
Co0 N41 2.151 . S
Co0 N49 2.214 . S
Co1 O2 2.160 . S
Co1 O7 2.058 . S
Co1 O17 2.057 . S
Co1 O32 2.037 . S
Co1 N36 2.145 . S
Co1 N57 2.257 . S
O2 Co0 2.143 . S
O2 Co1 2.160 . S
C3 O4 1.278 . S
C3 O11 1.224 . S
O4 C3 1.278 . S
C5 O6 1.245 . S
C5 O17 1.232 . S
O6 C5 1.245 . S
O7 Co1 2.058 . S
O7 C33 1.269 . S
O8 Co0 2.074 . S
O8 C33 1.257 . S
H9 C34 0.930 . S
H10 C40 0.930 . S
O11 Co0 2.093 . S
O11 C3 1.224 . S
H12 C44 0.929 . S
H13 C46 0.930 . S
H14 C47 0.930 . S
H15 C45 0.929 . S
H16 C48 0.928 . S
O17 Co1 2.057 . S
O17 C5 1.232 . S
H18 C37 0.929 . S
H19 C38 0.929 . S
H20 C50 0.931 . S
H21 C42 0.929 . S
H22 C51 0.930 . S
H23 C43 0.931 . S
O24 Co0 2.097 . S
O24 C52 1.214 . S
H25 C53 0.929 . S
H26 C54 0.929 . S
H27 C55 0.930 1_565 S
H28 C56 0.929 1_565 S
H29 C58 0.930 . S
H30 C35 0.930 . S
H31 C39 0.965 . S
O32 Co1 2.037 . S
O32 C52 1.234 . S
C33 O7 1.269 . S
C33 O8 1.257 . S
C34 H9 0.930 . S
C34 C37 1.388 . S
C34 C39 1.401 1_545 S
C35 H30 0.930 . S
C35 C38 1.404 . S
C35 C39 1.336 1_545 S
N36 Co1 2.145 . S
N36 C37 1.397 . S
N36 C38 1.334 . S
C37 H18 0.929 . S
C37 C34 1.388 . S
C37 N36 1.397 . S
C38 H19 0.929 . S
C38 C35 1.404 . S
C38 N36 1.334 . S
C39 H31 0.965 . S
C39 C34 1.401 1_565 S
C39 C35 1.336 1_565 S
C40 H10 0.930 . S
C40 N41 1.330 . S
C40 C42 1.446 . S
N41 Co0 2.151 . S
N41 C40 1.330 . S
N41 C45 1.418 . S
C42 H21 0.929 . S
C42 C40 1.446 . S
C42 C43 1.332 . S
C43 H23 0.931 . S
C43 C42 1.332 . S
C43 C44 1.267 . S
C44 H12 0.929 . S
C44 C43 1.267 . S
C44 C45 1.251 . S
C45 H15 0.929 . S
C45 N41 1.418 . S
C45 C44 1.251 . S
C46 H13 0.930 . S
C46 C48 1.406 . S
C46 C51 1.261 . S
C47 H14 0.930 . S
C47 N49 1.325 . S
C47 C50 1.357 . S
C48 H16 0.928 . S
C48 C46 1.406 . S
C48 N49 1.261 . S
N49 Co0 2.214 . S
N49 C47 1.325 . S
N49 C48 1.261 . S
C50 H20 0.931 . S
C50 C47 1.357 . S
C50 C51 1.312 . S
C51 H22 0.930 . S
C51 C46 1.261 . S
C51 C50 1.312 . S
C52 O24 1.214 . S
C52 O32 1.234 . S
C53 H25 0.929 . S
C53 C56 1.391 . S
C53 C58 1.391 . S
C54 H26 0.929 . S
C54 C55 1.390 . S
C54 N57 1.391 . S
C55 H27 0.930 1_545 S
C55 C54 1.390 . S
C55 C56 1.392 . S
C56 H28 0.929 1_545 S
C56 C53 1.391 . S
C56 C55 1.392 . S
N57 Co1 2.257 . S
N57 C54 1.391 . S
N57 C58 1.388 . S
C58 H29 0.930 . S
C58 C53 1.391 . S
C58 N57 1.388 . S
Co59 O61 2.143 . S
Co59 O67 2.074 . S
Co59 O70 2.093 . S
Co59 O83 2.097 . S
Co59 N100 2.151 . S
Co59 N108 2.214 . S
Co60 O61 2.160 . S
Co60 O66 2.058 . S
Co60 O76 2.057 . S
Co60 O91 2.037 . S
Co60 N95 2.145 . S
Co60 N116 2.257 . S
O61 Co59 2.143 . S
O61 Co60 2.160 . S
C62 O63 1.278 . S
C62 O70 1.224 . S
O63 C62 1.278 . S
C64 O65 1.245 . S
C64 O76 1.232 . S
O65 C64 1.245 . S
O66 Co60 2.058 . S
O66 C92 1.269 . S
O67 Co59 2.074 . S
O67 C92 1.257 . S
H68 C93 0.930 . S
H69 C99 0.930 . S
O70 Co59 2.093 . S
O70 C62 1.224 . S
H71 C103 0.929 . S
H72 C105 0.930 . S
H73 C106 0.930 . S
H74 C104 0.929 . S
H75 C107 0.928 . S
O76 Co60 2.057 . S
O76 C64 1.232 . S
H77 C96 0.929 . S
H78 C97 0.929 . S
H79 C109 0.931 . S
H80 C101 0.929 . S
H81 C110 0.930 . S
H82 C102 0.931 . S
O83 Co59 2.097 . S
O83 C111 1.214 . S
H84 C112 0.929 . S
H85 C113 0.929 . S
H86 C114 0.930 1_455 S
H87 C115 0.929 1_455 S
H88 C117 0.930 . S
H89 C94 0.930 . S
H90 C98 0.966 . S
O91 Co60 2.037 . S
O91 C111 1.234 . S
C92 O66 1.269 . S
C92 O67 1.257 . S
C93 H68 0.930 . S
C93 C96 1.388 . S
C93 C98 1.401 1_655 S
C94 H89 0.930 . S
C94 C97 1.404 . S
C94 C98 1.336 1_655 S
N95 Co60 2.145 . S
N95 C96 1.397 . S
N95 C97 1.334 . S
C96 H77 0.929 . S
C96 C93 1.388 . S
C96 N95 1.397 . S
C97 H78 0.929 . S
C97 C94 1.404 . S
C97 N95 1.334 . S
C98 H90 0.966 . S
C98 C93 1.401 1_455 S
C98 C94 1.336 1_455 S
C99 H69 0.930 . S
C99 N100 1.330 . S
C99 C101 1.446 . S
N100 Co59 2.151 . S
N100 C99 1.330 . S
N100 C104 1.418 . S
C101 H80 0.929 . S
C101 C99 1.446 . S
C101 C102 1.332 . S
C102 H82 0.931 . S
C102 C101 1.332 . S
C102 C103 1.267 . S
C103 H71 0.929 . S
C103 C102 1.267 . S
C103 C104 1.251 . S
C104 H74 0.929 . S
C104 N100 1.418 . S
C104 C103 1.251 . S
C105 H72 0.930 . S
C105 C107 1.406 . S
C105 C110 1.261 . S
C106 H73 0.930 . S
C106 N108 1.325 . S
C106 C109 1.357 . S
C107 H75 0.928 . S
C107 C105 1.406 . S
C107 N108 1.261 . S
N108 Co59 2.214 . S
N108 C106 1.325 . S
N108 C107 1.261 . S
C109 H79 0.931 . S
C109 C106 1.357 . S
C109 C110 1.312 . S
C110 H81 0.930 . S
C110 C105 1.261 . S
C110 C109 1.312 . S
C111 O83 1.214 . S
C111 O91 1.234 . S
C112 H84 0.929 . S
C112 C115 1.391 . S
C112 C117 1.391 . S
C113 H85 0.929 . S
C113 C114 1.390 . S
C113 N116 1.391 . S
C114 H86 0.930 1_655 S
C114 C113 1.390 . S
C114 C115 1.392 . S
C115 H87 0.929 1_655 S
C115 C112 1.391 . S
C115 C114 1.392 . S
N116 Co60 2.257 . S
N116 C113 1.391 . S
N116 C117 1.388 . S
C117 H88 0.930 . S
C117 C112 1.391 . S
C117 N116 1.388 . S
Co118 O120 2.143 . S
Co118 O126 2.074 . S
Co118 O129 2.093 . S
Co118 O142 2.097 . S
Co118 N159 2.151 . S
Co118 N167 2.214 . S
Co119 O120 2.160 . S
Co119 O125 2.058 . S
Co119 O135 2.057 . S
Co119 O150 2.037 . S
Co119 N154 2.145 . S
Co119 N175 2.257 . S
O120 Co118 2.143 . S
O120 Co119 2.160 . S
C121 O122 1.278 . S
C121 O129 1.224 . S
O122 C121 1.278 . S
C123 O124 1.245 . S
C123 O135 1.232 . S
O124 C123 1.245 . S
O125 Co119 2.058 . S
O125 C151 1.269 . S
O126 Co118 2.074 . S
O126 C151 1.257 . S
H127 C152 0.930 . S
H128 C158 0.930 . S
O129 Co118 2.093 . S
O129 C121 1.224 . S
H130 C162 0.929 . S
H131 C164 0.930 . S
H132 C165 0.930 . S
H133 C163 0.929 . S
H134 C166 0.928 . S
O135 Co119 2.057 . S
O135 C123 1.232 . S
H136 C155 0.929 . S
H137 C156 0.929 . S
H138 C168 0.931 . S
H139 C160 0.929 . S
H140 C169 0.930 . S
H141 C161 0.931 . S
O142 Co118 2.097 . S
O142 C170 1.214 . S
H143 C171 0.929 . S
H144 C172 0.929 . S
H145 C173 0.930 . S
H146 C174 0.929 . S
H147 C176 0.930 . S
H148 C153 0.930 . S
H149 C157 0.930 . S
O150 Co119 2.037 . S
O150 C170 1.234 . S
C151 O125 1.269 . S
C151 O126 1.257 . S
C152 H127 0.930 . S
C152 C155 1.388 . S
C152 C157 1.418 . S
C153 H148 0.930 . S
C153 C156 1.404 . S
C153 C157 1.353 . S
N154 Co119 2.145 . S
N154 C155 1.397 . S
N154 C156 1.334 . S
C155 H136 0.929 . S
C155 C152 1.388 . S
C155 N154 1.397 . S
C156 H137 0.929 . S
C156 C153 1.404 . S
C156 N154 1.334 . S
C157 H149 0.930 . S
C157 C152 1.418 . S
C157 C153 1.353 . S
C158 H128 0.930 . S
C158 N159 1.330 . S
C158 C160 1.446 . S
N159 Co118 2.151 . S
N159 C158 1.330 . S
N159 C163 1.418 . S
C160 H139 0.929 . S
C160 C158 1.446 . S
C160 C161 1.332 . S
C161 H141 0.931 . S
C161 C160 1.332 . S
C161 C162 1.267 . S
C162 H130 0.929 . S
C162 C161 1.267 . S
C162 C163 1.251 . S
C163 H133 0.929 . S
C163 N159 1.418 . S
C163 C162 1.251 . S
C164 H131 0.930 . S
C164 C166 1.406 . S
C164 C169 1.261 . S
C165 H132 0.930 . S
C165 N167 1.325 . S
C165 C168 1.357 . S
C166 H134 0.928 . S
C166 C164 1.406 . S
C166 N167 1.261 . S
N167 Co118 2.214 . S
N167 C165 1.325 . S
N167 C166 1.261 . S
C168 H138 0.931 . S
C168 C165 1.357 . S
C168 C169 1.312 . S
C169 H140 0.930 . S
C169 C164 1.261 . S
C169 C168 1.312 . S
C170 O142 1.214 . S
C170 O150 1.234 . S
C171 H143 0.929 . S
C171 C174 1.391 . S
C171 C176 1.391 . S
C172 H144 0.929 . S
C172 C173 1.390 . S
C172 N175 1.391 . S
C173 H145 0.930 . S
C173 C172 1.390 . S
C173 C174 1.392 . S
C174 H146 0.929 . S
C174 C171 1.391 . S
C174 C173 1.392 . S
N175 Co119 2.257 . S
N175 C172 1.391 . S
N175 C176 1.388 . S
C176 H147 0.930 . S
C176 C171 1.391 . S
C176 N175 1.388 . S
Co177 O179 2.143 . S
Co177 O185 2.074 . S
Co177 O188 2.123 . S
Co177 O201 2.097 . S
Co177 N218 2.151 . S
Co177 N226 2.214 . S
Co178 O179 2.160 . S
Co178 O184 2.058 . S
Co178 O194 2.057 . S
Co178 O209 2.037 . S
Co178 N213 2.145 . S
Co178 N234 2.257 . S
O179 Co177 2.143 . S
O179 Co178 2.160 . S
C180 O181 1.278 . S
C180 O188 1.208 1_556 S
O181 C180 1.278 . S
C182 O183 1.245 . S
C182 O194 1.232 . S
O183 C182 1.245 . S
O184 Co178 2.058 . S
O184 C210 1.269 . S
O185 Co177 2.074 . S
O185 C210 1.257 . S
H186 C211 0.930 . S
H187 C217 0.930 . S
O188 Co177 2.123 . S
O188 C180 1.208 1_554 S
H189 C221 0.929 . S
H190 C223 0.930 . S
H191 C224 0.930 . S
H192 C222 0.929 . S
H193 C225 0.928 . S
O194 Co178 2.057 . S
O194 C182 1.232 . S
H195 C214 0.929 . S
H196 C215 0.929 . S
H197 C227 0.931 . S
H198 C219 0.929 . S
H199 C228 0.930 . S
H200 C220 0.931 . S
O201 Co177 2.097 . S
O201 C229 1.214 . S
H202 C230 0.929 . S
H203 C231 0.929 . S
H204 C232 0.930 . S
H205 C233 0.929 . S
H206 C235 0.930 . S
H207 C212 0.930 . S
H208 C216 0.930 . S
O209 Co178 2.037 . S
O209 C229 1.234 . S
C210 O184 1.269 . S
C210 O185 1.257 . S
C211 H186 0.930 . S
C211 C214 1.388 . S
C211 C216 1.418 . S
C212 H207 0.930 . S
C212 C215 1.404 . S
C212 C216 1.353 . S
N213 Co178 2.145 . S
N213 C214 1.397 . S
N213 C215 1.334 . S
C214 H195 0.929 . S
C214 C211 1.388 . S
C214 N213 1.397 . S
C215 H196 0.929 . S
C215 C212 1.404 . S
C215 N213 1.334 . S
C216 H208 0.930 . S
C216 C211 1.418 . S
C216 C212 1.353 . S
C217 H187 0.930 . S
C217 N218 1.330 . S
C217 C219 1.446 . S
N218 Co177 2.151 . S
N218 C217 1.330 . S
N218 C222 1.418 . S
C219 H198 0.929 . S
C219 C217 1.446 . S
C219 C220 1.332 . S
C220 H200 0.931 . S
C220 C219 1.332 . S
C220 C221 1.267 . S
C221 H189 0.929 . S
C221 C220 1.267 . S
C221 C222 1.251 . S
C222 H192 0.929 . S
C222 N218 1.418 . S
C222 C221 1.251 . S
C223 H190 0.930 . S
C223 C225 1.406 . S
C223 C228 1.261 . S
C224 H191 0.930 . S
C224 N226 1.325 . S
C224 C227 1.357 . S
C225 H193 0.928 . S
C225 C223 1.406 . S
C225 N226 1.261 . S
N226 Co177 2.214 . S
N226 C224 1.325 . S
N226 C225 1.261 . S
C227 H197 0.931 . S
C227 C224 1.357 . S
C227 C228 1.312 . S
C228 H199 0.930 . S
C228 C223 1.261 . S
C228 C227 1.312 . S
C229 O201 1.214 . S
C229 O209 1.234 . S
C230 H202 0.929 . S
C230 C233 1.391 . S
C230 C235 1.391 1_556 S
C231 H203 0.929 . S
C231 C232 1.390 . S
C231 N234 1.391 . S
C232 H204 0.930 . S
C232 C231 1.390 . S
C232 C233 1.392 1_554 S
C233 H205 0.929 . S
C233 C230 1.391 . S
C233 C232 1.392 1_556 S
N234 Co178 2.257 . S
N234 C231 1.391 . S
N234 C235 1.388 . S
C235 H206 0.930 . S
C235 C230 1.391 1_554 S
C235 N234 1.388 . S
Co236 O238 2.143 . S
Co236 O244 2.074 1_554 S
Co236 O247 2.093 . S
Co236 O260 2.097 . S
Co236 N277 2.151 . S
Co236 N285 2.214 . S
Co237 O238 2.160 1_556 S
Co237 O243 2.058 . S
Co237 O253 2.057 . S
Co237 O268 2.037 . S
Co237 N272 2.145 . S
Co237 N293 2.257 1_556 S
O238 Co236 2.143 . S
O238 Co237 2.160 1_554 S
C239 O240 1.278 . S
C239 O247 1.224 . S
O240 C239 1.278 . S
C241 O242 1.245 1_556 S
C241 O253 1.232 . S
O242 C241 1.245 1_554 S
O243 Co237 2.058 . S
O243 C269 1.269 . S
O244 Co236 2.074 1_556 S
O244 C269 1.257 . S
H245 C270 0.930 . S
H246 C276 0.930 . S
O247 Co236 2.093 . S
O247 C239 1.224 . S
H248 C280 0.933 . S
H249 C282 0.930 . S
H250 C283 0.930 1_556 S
H251 C281 0.940 . S
H252 C284 0.928 . S
O253 Co237 2.057 . S
O253 C241 1.232 . S
H254 C273 0.929 . S
H255 C274 0.929 . S
H256 C286 0.931 . S
H257 C278 0.929 . S
H258 C287 0.930 . S
H259 C279 0.931 . S
O260 Co236 2.097 . S
O260 C288 1.214 . S
H261 C289 0.929 . S
H262 C290 0.929 . S
H263 C291 0.930 . S
H264 C292 0.929 . S
H265 C294 0.930 . S
H266 C271 0.930 . S
H267 C275 0.930 . S
O268 Co237 2.037 . S
O268 C288 1.234 1_556 S
C269 O243 1.269 . S
C269 O244 1.257 . S
C270 H245 0.930 . S
C270 C273 1.388 . S
C270 C275 1.418 . S
C271 H266 0.930 . S
C271 C274 1.404 . S
C271 C275 1.353 . S
N272 Co237 2.145 . S
N272 C273 1.397 . S
N272 C274 1.334 . S
C273 H254 0.929 . S
C273 C270 1.388 . S
C273 N272 1.397 . S
C274 H255 0.929 . S
C274 C271 1.404 . S
C274 N272 1.334 . S
C275 H267 0.930 . S
C275 C270 1.418 . S
C275 C271 1.353 . S
C276 H246 0.930 . S
C276 N277 1.330 . S
C276 C278 1.446 . S
N277 Co236 2.151 . S
N277 C276 1.330 . S
N277 C281 1.407 1_554 S
C278 H257 0.929 . S
C278 C276 1.446 . S
C278 C279 1.332 . S
C279 H259 0.931 . S
C279 C278 1.332 . S
C279 C280 1.263 1_554 S
C280 H248 0.933 . S
C280 C279 1.263 1_556 S
C280 C281 1.251 . S
C281 H251 0.940 . S
C281 N277 1.407 1_556 S
C281 C280 1.251 . S
C282 H249 0.930 . S
C282 C284 1.406 . S
C282 C287 1.261 . S
C283 H250 0.930 1_554 S
C283 N285 1.325 . S
C283 C286 1.357 1_554 S
C284 H252 0.928 . S
C284 C282 1.406 . S
C284 N285 1.261 . S
N285 Co236 2.214 . S
N285 C283 1.325 . S
N285 C284 1.261 . S
C286 H256 0.931 . S
C286 C283 1.357 1_556 S
C286 C287 1.312 1_556 S
C287 H258 0.930 . S
C287 C282 1.261 . S
C287 C286 1.312 1_554 S
C288 O260 1.214 . S
C288 O268 1.234 1_554 S
C289 H261 0.929 . S
C289 C292 1.391 . S
C289 C294 1.391 . S
C290 H262 0.929 . S
C290 C291 1.390 . S
C290 N293 1.391 . S
C291 H263 0.930 . S
C291 C290 1.390 . S
C291 C292 1.392 . S
C292 H264 0.929 . S
C292 C289 1.391 . S
C292 C291 1.392 . S
N293 Co237 2.257 1_554 S
N293 C290 1.391 . S
N293 C294 1.388 . S
C294 H265 0.930 . S
C294 C289 1.391 . S
C294 N293 1.388 . S
Co295 O297 2.143 . S
Co295 O303 2.074 . S
Co295 O306 2.093 . S
Co295 O319 2.097 . S
Co295 N336 2.151 . S
Co295 N344 2.214 . S
Co296 O297 2.160 . S
Co296 O302 2.058 . S
Co296 O312 2.057 . S
Co296 O327 2.037 . S
Co296 N331 2.145 . S
Co296 N352 2.257 . S
O297 Co295 2.143 . S
O297 Co296 2.160 . S
C298 O299 1.278 . S
C298 O306 1.224 . S
O299 C298 1.278 . S
C300 O301 1.245 . S
C300 O312 1.232 . S
O301 C300 1.245 . S
O302 Co296 2.058 . S
O302 C328 1.269 . S
O303 Co295 2.074 . S
O303 C328 1.257 . S
H304 C329 0.930 . S
H305 C335 0.930 . S
O306 Co295 2.093 . S
O306 C298 1.224 . S
H307 C339 0.929 . S
H308 C341 0.930 . S
H309 C342 0.930 . S
H310 C340 0.929 . S
H311 C343 0.928 . S
O312 Co296 2.057 . S
O312 C300 1.232 . S
H313 C332 0.929 . S
H314 C333 0.929 . S
H315 C345 0.931 . S
H316 C337 0.929 . S
H317 C346 0.930 . S
H318 C338 0.931 . S
O319 Co295 2.097 . S
O319 C347 1.214 . S
H320 C348 0.929 . S
H321 C349 0.929 . S
H322 C350 0.930 . S
H323 C351 0.929 . S
H324 C353 0.930 . S
H325 C330 0.930 . S
H326 C334 0.930 . S
O327 Co296 2.037 . S
O327 C347 1.234 . S
C328 O302 1.269 . S
C328 O303 1.257 . S
C329 H304 0.930 . S
C329 C332 1.388 . S
C329 C334 1.418 . S
C330 H325 0.930 . S
C330 C333 1.404 . S
C330 C334 1.353 . S
N331 Co296 2.145 . S
N331 C332 1.397 . S
N331 C333 1.334 . S
C332 H313 0.929 . S
C332 C329 1.388 . S
C332 N331 1.397 . S
C333 H314 0.929 . S
C333 C330 1.404 . S
C333 N331 1.334 . S
C334 H326 0.930 . S
C334 C329 1.418 . S
C334 C330 1.353 . S
C335 H305 0.930 . S
C335 N336 1.330 . S
C335 C337 1.446 . S
N336 Co295 2.151 . S
N336 C335 1.330 . S
N336 C340 1.418 . S
C337 H316 0.929 . S
C337 C335 1.446 . S
C337 C338 1.332 . S
C338 H318 0.931 . S
C338 C337 1.332 . S
C338 C339 1.267 . S
C339 H307 0.929 . S
C339 C338 1.267 . S
C339 C340 1.251 . S
C340 H310 0.929 . S
C340 N336 1.418 . S
C340 C339 1.251 . S
C341 H308 0.930 . S
C341 C343 1.406 . S
C341 C346 1.261 . S
C342 H309 0.930 . S
C342 N344 1.325 . S
C342 C345 1.357 . S
C343 H311 0.928 . S
C343 C341 1.406 . S
C343 N344 1.261 . S
N344 Co295 2.214 . S
N344 C342 1.325 . S
N344 C343 1.261 . S
C345 H315 0.931 . S
C345 C342 1.357 . S
C345 C346 1.312 . S
C346 H317 0.930 . S
C346 C341 1.261 . S
C346 C345 1.312 . S
C347 O319 1.214 . S
C347 O327 1.234 . S
C348 H320 0.929 . S
C348 C351 1.391 . S
C348 C353 1.391 . S
C349 H321 0.929 . S
C349 C350 1.390 . S
C349 N352 1.391 . S
C350 H322 0.930 . S
C350 C349 1.390 . S
C350 C351 1.392 . S
C351 H323 0.929 . S
C351 C348 1.391 . S
C351 C350 1.392 . S
N352 Co296 2.257 . S
N352 C349 1.391 . S
N352 C353 1.388 . S
C353 H324 0.930 . S
C353 C348 1.391 . S
C353 N352 1.388 . S
Co354 O356 2.143 . S
Co354 O362 2.074 . S
Co354 O365 2.093 . S
Co354 O378 2.097 . S
Co354 N395 2.151 . S
Co354 N403 2.214 . S
Co355 O356 2.160 . S
Co355 O361 2.058 . S
Co355 O371 2.057 . S
Co355 O386 2.037 . S
Co355 N390 2.145 . S
Co355 N411 2.257 . S
O356 Co354 2.143 . S
O356 Co355 2.160 . S
C357 O358 1.278 . S
C357 O365 1.224 . S
O358 C357 1.278 . S
C359 O360 1.245 . S
C359 O371 1.232 . S
O360 C359 1.245 . S
O361 Co355 2.058 . S
O361 C387 1.269 . S
O362 Co354 2.074 . S
O362 C387 1.257 . S
H363 C388 0.930 . S
H364 C394 0.930 . S
O365 Co354 2.093 . S
O365 C357 1.224 . S
H366 C398 0.929 . S
H367 C400 0.930 . S
H368 C401 0.930 . S
H369 C399 0.929 . S
H370 C402 0.928 . S
O371 Co355 2.057 . S
O371 C359 1.232 . S
H372 C391 0.929 . S
H373 C392 0.929 . S
H374 C404 0.931 . S
H375 C396 0.929 . S
H376 C405 0.930 . S
H377 C397 0.931 . S
O378 Co354 2.097 . S
O378 C406 1.214 . S
H379 C407 0.929 . S
H380 C408 0.929 . S
H381 C409 0.930 1_565 S
H382 C410 0.929 1_565 S
H383 C412 0.930 . S
H384 C389 0.930 . S
H385 C393 0.965 . S
O386 Co355 2.037 . S
O386 C406 1.234 . S
C387 O361 1.269 . S
C387 O362 1.257 . S
C388 H363 0.930 . S
C388 C391 1.388 . S
C388 C393 1.401 1_545 S
C389 H384 0.930 . S
C389 C392 1.404 . S
C389 C393 1.336 1_545 S
N390 Co355 2.145 . S
N390 C391 1.397 . S
N390 C392 1.334 . S
C391 H372 0.929 . S
C391 C388 1.388 . S
C391 N390 1.397 . S
C392 H373 0.929 . S
C392 C389 1.404 . S
C392 N390 1.334 . S
C393 H385 0.965 . S
C393 C388 1.401 1_565 S
C393 C389 1.336 1_565 S
C394 H364 0.930 . S
C394 N395 1.330 . S
C394 C396 1.446 . S
N395 Co354 2.151 . S
N395 C394 1.330 . S
N395 C399 1.418 . S
C396 H375 0.929 . S
C396 C394 1.446 . S
C396 C397 1.332 . S
C397 H377 0.931 . S
C397 C396 1.332 . S
C397 C398 1.267 . S
C398 H366 0.929 . S
C398 C397 1.267 . S
C398 C399 1.251 . S
C399 H369 0.929 . S
C399 N395 1.418 . S
C399 C398 1.251 . S
C400 H367 0.930 . S
C400 C402 1.406 . S
C400 C405 1.261 . S
C401 H368 0.930 . S
C401 N403 1.325 . S
C401 C404 1.357 . S
C402 H370 0.928 . S
C402 C400 1.406 . S
C402 N403 1.261 . S
N403 Co354 2.214 . S
N403 C401 1.325 . S
N403 C402 1.261 . S
C404 H374 0.931 . S
C404 C401 1.357 . S
C404 C405 1.312 . S
C405 H376 0.930 . S
C405 C400 1.261 . S
C405 C404 1.312 . S
C406 O378 1.214 . S
C406 O386 1.234 . S
C407 H379 0.929 . S
C407 C410 1.391 . S
C407 C412 1.391 . S
C408 H380 0.929 . S
C408 C409 1.390 . S
C408 N411 1.391 . S
C409 H381 0.930 1_545 S
C409 C408 1.390 . S
C409 C410 1.392 . S
C410 H382 0.929 1_545 S
C410 C407 1.391 . S
C410 C409 1.392 . S
N411 Co355 2.257 . S
N411 C408 1.391 . S
N411 C412 1.388 . S
C412 H383 0.930 . S
C412 C407 1.391 . S
C412 N411 1.388 . S
Co413 O415 2.143 . S
Co413 O421 2.074 . S
Co413 O424 2.093 . S
Co413 O437 2.097 . S
Co413 N454 2.151 . S
Co413 N462 2.214 . S
Co414 O415 2.160 . S
Co414 O420 2.058 . S
Co414 O430 2.057 . S
Co414 O445 2.037 . S
Co414 N449 2.145 . S
Co414 N470 2.257 . S
O415 Co413 2.143 . S
O415 Co414 2.160 . S
C416 O417 1.278 . S
C416 O424 1.224 . S
O417 C416 1.278 . S
C418 O419 1.245 . S
C418 O430 1.232 . S
O419 C418 1.245 . S
O420 Co414 2.058 . S
O420 C446 1.269 . S
O421 Co413 2.074 . S
O421 C446 1.257 . S
H422 C447 0.930 . S
H423 C453 0.930 . S
O424 Co413 2.093 . S
O424 C416 1.224 . S
H425 C457 0.929 . S
H426 C459 0.930 . S
H427 C460 0.930 . S
H428 C458 0.929 . S
H429 C461 0.928 . S
O430 Co414 2.057 . S
O430 C418 1.232 . S
H431 C450 0.929 . S
H432 C451 0.929 . S
H433 C463 0.931 . S
H434 C455 0.929 . S
H435 C464 0.930 . S
H436 C456 0.931 . S
O437 Co413 2.097 . S
O437 C465 1.214 . S
H438 C466 0.929 . S
H439 C467 0.929 . S
H440 C468 0.930 1_455 S
H441 C469 0.929 1_455 S
H442 C471 0.930 . S
H443 C448 0.930 . S
H444 C452 0.967 . S
O445 Co414 2.037 . S
O445 C465 1.234 . S
C446 O420 1.269 . S
C446 O421 1.257 . S
C447 H422 0.930 . S
C447 C450 1.388 . S
C447 C452 1.400 1_655 S
C448 H443 0.930 . S
C448 C451 1.404 . S
C448 C452 1.335 1_655 S
N449 Co414 2.145 . S
N449 C450 1.397 . S
N449 C451 1.334 . S
C450 H431 0.929 . S
C450 C447 1.388 . S
C450 N449 1.397 . S
C451 H432 0.929 . S
C451 C448 1.404 . S
C451 N449 1.334 . S
C452 H444 0.967 . S
C452 C447 1.400 1_455 S
C452 C448 1.335 1_455 S
C453 H423 0.930 . S
C453 N454 1.330 . S
C453 C455 1.446 . S
N454 Co413 2.151 . S
N454 C453 1.330 . S
N454 C458 1.418 . S
C455 H434 0.929 . S
C455 C453 1.446 . S
C455 C456 1.332 . S
C456 H436 0.931 . S
C456 C455 1.332 . S
C456 C457 1.267 . S
C457 H425 0.929 . S
C457 C456 1.267 . S
C457 C458 1.251 . S
C458 H428 0.929 . S
C458 N454 1.418 . S
C458 C457 1.251 . S
C459 H426 0.930 . S
C459 C461 1.406 . S
C459 C464 1.261 . S
C460 H427 0.930 . S
C460 N462 1.325 . S
C460 C463 1.357 . S
C461 H429 0.928 . S
C461 C459 1.406 . S
C461 N462 1.261 . S
N462 Co413 2.214 . S
N462 C460 1.325 . S
N462 C461 1.261 . S
C463 H433 0.931 . S
C463 C460 1.357 . S
C463 C464 1.312 . S
C464 H435 0.930 . S
C464 C459 1.261 . S
C464 C463 1.312 . S
C465 O437 1.214 . S
C465 O445 1.234 . S
C466 H438 0.929 . S
C466 C469 1.391 . S
C466 C471 1.391 . S
C467 H439 0.929 . S
C467 C468 1.390 . S
C467 N470 1.391 . S
C468 H440 0.930 1_655 S
C468 C467 1.390 . S
C468 C469 1.392 . S
C469 H441 0.929 1_655 S
C469 C466 1.391 . S
C469 C468 1.392 . S
N470 Co414 2.257 . S
N470 C467 1.391 . S
N470 C471 1.388 . S
C471 H442 0.930 . S
C471 C466 1.391 . S
C471 N470 1.388 . S
Co472 O474 2.143 . S
Co472 O480 2.074 . S
Co472 O483 2.093 . S
Co472 O496 2.097 . S
Co472 N513 2.151 . S
Co472 N521 2.214 . S
Co473 O474 2.160 . S
Co473 O479 2.058 . S
Co473 O489 2.057 . S
Co473 O504 2.037 . S
Co473 N508 2.145 . S
Co473 N529 2.257 . S
O474 Co472 2.143 . S
O474 Co473 2.160 . S
C475 O476 1.278 . S
C475 O483 1.224 . S
O476 C475 1.278 . S
C477 O478 1.245 . S
C477 O489 1.232 . S
O478 C477 1.245 . S
O479 Co473 2.058 . S
O479 C505 1.269 . S
O480 Co472 2.074 . S
O480 C505 1.257 . S
H481 C506 0.930 . S
H482 C512 0.930 . S
O483 Co472 2.093 . S
O483 C475 1.224 . S
H484 C516 0.929 . S
H485 C518 0.930 . S
H486 C519 0.930 . S
H487 C517 0.929 . S
H488 C520 0.928 . S
O489 Co473 2.057 . S
O489 C477 1.232 . S
H490 C509 0.929 . S
H491 C510 0.929 . S
H492 C522 0.931 . S
H493 C514 0.929 . S
H494 C523 0.930 . S
H495 C515 0.931 . S
O496 Co472 2.097 . S
O496 C524 1.214 . S
H497 C525 0.929 . S
H498 C526 0.929 . S
H499 C527 0.930 . S
H500 C528 0.929 . S
H501 C530 0.930 . S
H502 C507 0.930 . S
H503 C511 0.930 . S
O504 Co473 2.037 . S
O504 C524 1.234 . S
C505 O479 1.269 . S
C505 O480 1.257 . S
C506 H481 0.930 . S
C506 C509 1.388 . S
C506 C511 1.418 . S
C507 H502 0.930 . S
C507 C510 1.404 . S
C507 C511 1.353 . S
N508 Co473 2.145 . S
N508 C509 1.397 . S
N508 C510 1.334 . S
C509 H490 0.929 . S
C509 C506 1.388 . S
C509 N508 1.397 . S
C510 H491 0.929 . S
C510 C507 1.404 . S
C510 N508 1.334 . S
C511 H503 0.930 . S
C511 C506 1.418 . S
C511 C507 1.353 . S
C512 H482 0.930 . S
C512 N513 1.330 . S
C512 C514 1.446 . S
N513 Co472 2.151 . S
N513 C512 1.330 . S
N513 C517 1.418 . S
C514 H493 0.929 . S
C514 C512 1.446 . S
C514 C515 1.332 . S
C515 H495 0.931 . S
C515 C514 1.332 . S
C515 C516 1.267 . S
C516 H484 0.929 . S
C516 C515 1.267 . S
C516 C517 1.251 . S
C517 H487 0.929 . S
C517 N513 1.418 . S
C517 C516 1.251 . S
C518 H485 0.930 . S
C518 C520 1.406 . S
C518 C523 1.261 . S
C519 H486 0.930 . S
C519 N521 1.325 . S
C519 C522 1.357 . S
C520 H488 0.928 . S
C520 C518 1.406 . S
C520 N521 1.261 . S
N521 Co472 2.214 . S
N521 C519 1.325 . S
N521 C520 1.261 . S
C522 H492 0.931 . S
C522 C519 1.357 . S
C522 C523 1.312 . S
C523 H494 0.930 . S
C523 C518 1.261 . S
C523 C522 1.312 . S
C524 O496 1.214 . S
C524 O504 1.234 . S
C525 H497 0.929 . S
C525 C528 1.391 . S
C525 C530 1.391 . S
C526 H498 0.929 . S
C526 C527 1.390 . S
C526 N529 1.391 . S
C527 H499 0.930 . S
C527 C526 1.390 . S
C527 C528 1.392 . S
C528 H500 0.929 . S
C528 C525 1.391 . S
C528 C527 1.392 . S
N529 Co473 2.257 . S
N529 C526 1.391 . S
N529 C530 1.388 . S
C530 H501 0.930 . S
C530 C525 1.391 . S
C530 N529 1.388 . S
Co531 O533 2.143 . S
Co531 O539 2.074 . S
Co531 O542 2.123 . S
Co531 O555 2.097 . S
Co531 N572 2.151 . S
Co531 N580 2.214 . S
Co532 O533 2.160 . S
Co532 O538 2.058 . S
Co532 O548 2.057 . S
Co532 O563 2.037 . S
Co532 N567 2.145 . S
Co532 N588 2.257 . S
O533 Co531 2.143 . S
O533 Co532 2.160 . S
C534 O535 1.278 . S
C534 O542 1.208 1_556 S
O535 C534 1.278 . S
C536 O537 1.245 . S
C536 O548 1.232 . S
O537 C536 1.245 . S
O538 Co532 2.058 . S
O538 C564 1.269 . S
O539 Co531 2.074 . S
O539 C564 1.257 . S
H540 C565 0.930 . S
H541 C571 0.930 . S
O542 Co531 2.123 . S
O542 C534 1.208 1_554 S
H543 C575 0.929 . S
H544 C577 0.930 . S
H545 C578 0.930 . S
H546 C576 0.929 . S
H547 C579 0.928 . S
O548 Co532 2.057 . S
O548 C536 1.232 . S
H549 C568 0.929 . S
H550 C569 0.929 . S
H551 C581 0.931 . S
H552 C573 0.929 . S
H553 C582 0.930 . S
H554 C574 0.931 . S
O555 Co531 2.097 . S
O555 C583 1.214 . S
H556 C584 0.929 . S
H557 C585 0.929 . S
H558 C586 0.930 . S
H559 C587 0.929 . S
H560 C589 0.930 . S
H561 C566 0.930 . S
H562 C570 0.930 . S
O563 Co532 2.037 . S
O563 C583 1.234 . S
C564 O538 1.269 . S
C564 O539 1.257 . S
C565 H540 0.930 . S
C565 C568 1.388 . S
C565 C570 1.418 . S
C566 H561 0.930 . S
C566 C569 1.404 . S
C566 C570 1.353 . S
N567 Co532 2.145 . S
N567 C568 1.397 . S
N567 C569 1.334 . S
C568 H549 0.929 . S
C568 C565 1.388 . S
C568 N567 1.397 . S
C569 H550 0.929 . S
C569 C566 1.404 . S
C569 N567 1.334 . S
C570 H562 0.930 . S
C570 C565 1.418 . S
C570 C566 1.353 . S
C571 H541 0.930 . S
C571 N572 1.330 . S
C571 C573 1.446 . S
N572 Co531 2.151 . S
N572 C571 1.330 . S
N572 C576 1.418 . S
C573 H552 0.929 . S
C573 C571 1.446 . S
C573 C574 1.332 . S
C574 H554 0.931 . S
C574 C573 1.332 . S
C574 C575 1.267 . S
C575 H543 0.929 . S
C575 C574 1.267 . S
C575 C576 1.251 . S
C576 H546 0.929 . S
C576 N572 1.418 . S
C576 C575 1.251 . S
C577 H544 0.930 . S
C577 C579 1.406 . S
C577 C582 1.261 . S
C578 H545 0.930 . S
C578 N580 1.325 . S
C578 C581 1.357 . S
C579 H547 0.928 . S
C579 C577 1.406 . S
C579 N580 1.261 . S
N580 Co531 2.214 . S
N580 C578 1.325 . S
N580 C579 1.261 . S
C581 H551 0.931 . S
C581 C578 1.357 . S
C581 C582 1.312 . S
C582 H553 0.930 . S
C582 C577 1.261 . S
C582 C581 1.312 . S
C583 O555 1.214 . S
C583 O563 1.234 . S
C584 H556 0.929 . S
C584 C587 1.391 . S
C584 C589 1.391 1_556 S
C585 H557 0.929 . S
C585 C586 1.390 . S
C585 N588 1.391 . S
C586 H558 0.930 . S
C586 C585 1.390 . S
C586 C587 1.392 1_554 S
C587 H559 0.929 . S
C587 C584 1.391 . S
C587 C586 1.392 1_556 S
N588 Co532 2.257 . S
N588 C585 1.391 . S
N588 C589 1.388 . S
C589 H560 0.930 . S
C589 C584 1.391 1_554 S
C589 N588 1.388 . S
Co590 O592 2.143 . S
Co590 O598 2.074 . S
Co590 O601 2.093 . S
Co590 O614 2.097 . S
Co590 N631 2.151 . S
Co590 N639 2.214 . S
Co591 O592 2.160 . S
Co591 O597 2.058 . S
Co591 O607 2.057 . S
Co591 O622 2.037 . S
Co591 N626 2.145 . S
Co591 N647 2.257 . S
O592 Co590 2.143 . S
O592 Co591 2.160 . S
C593 O594 1.278 . S
C593 O601 1.224 . S
O594 C593 1.278 . S
C595 O596 1.245 . S
C595 O607 1.232 . S
O596 C595 1.245 . S
O597 Co591 2.058 . S
O597 C623 1.269 . S
O598 Co590 2.074 . S
O598 C623 1.257 . S
H599 C624 0.930 . S
H600 C630 0.930 . S
O601 Co590 2.093 . S
O601 C593 1.224 . S
H602 C634 0.929 . S
H603 C636 0.930 . S
H604 C637 0.930 . S
H605 C635 0.929 . S
H606 C638 0.928 . S
O607 Co591 2.057 . S
O607 C595 1.232 . S
H608 C627 0.929 . S
H609 C628 0.929 . S
H610 C640 0.931 . S
H611 C632 0.929 . S
H612 C641 0.930 . S
H613 C633 0.931 . S
O614 Co590 2.097 . S
O614 C642 1.214 . S
H615 C643 0.929 . S
H616 C644 0.929 . S
H617 C645 0.930 1_545 S
H618 C646 0.929 1_545 S
H619 C648 0.930 . S
H620 C625 0.930 . S
H621 C629 0.965 . S
O622 Co591 2.037 . S
O622 C642 1.234 . S
C623 O597 1.269 . S
C623 O598 1.257 . S
C624 H599 0.930 . S
C624 C627 1.388 . S
C624 C629 1.401 1_565 S
C625 H620 0.930 . S
C625 C628 1.404 . S
C625 C629 1.336 1_565 S
N626 Co591 2.145 . S
N626 C627 1.397 . S
N626 C628 1.334 . S
C627 H608 0.929 . S
C627 C624 1.388 . S
C627 N626 1.397 . S
C628 H609 0.929 . S
C628 C625 1.404 . S
C628 N626 1.334 . S
C629 H621 0.965 . S
C629 C624 1.401 1_545 S
C629 C625 1.336 1_545 S
C630 H600 0.930 . S
C630 N631 1.330 . S
C630 C632 1.446 . S
N631 Co590 2.151 . S
N631 C630 1.330 . S
N631 C635 1.418 . S
C632 H611 0.929 . S
C632 C630 1.446 . S
C632 C633 1.332 . S
C633 H613 0.931 . S
C633 C632 1.332 . S
C633 C634 1.267 . S
C634 H602 0.929 . S
C634 C633 1.267 . S
C634 C635 1.251 . S
C635 H605 0.929 . S
C635 N631 1.418 . S
C635 C634 1.251 . S
C636 H603 0.930 . S
C636 C638 1.406 . S
C636 C641 1.261 . S
C637 H604 0.930 . S
C637 N639 1.325 . S
C637 C640 1.357 . S
C638 H606 0.928 . S
C638 C636 1.406 . S
C638 N639 1.261 . S
N639 Co590 2.214 . S
N639 C637 1.325 . S
N639 C638 1.261 . S
C640 H610 0.931 . S
C640 C637 1.357 . S
C640 C641 1.312 . S
C641 H612 0.930 . S
C641 C636 1.261 . S
C641 C640 1.312 . S
C642 O614 1.214 . S
C642 O622 1.234 . S
C643 H615 0.929 . S
C643 C646 1.391 . S
C643 C648 1.391 . S
C644 H616 0.929 . S
C644 C645 1.390 . S
C644 N647 1.391 . S
C645 H617 0.930 1_565 S
C645 C644 1.390 . S
C645 C646 1.392 . S
C646 H618 0.929 1_565 S
C646 C643 1.391 . S
C646 C645 1.392 . S
N647 Co591 2.257 . S
N647 C644 1.391 . S
N647 C648 1.388 . S
C648 H619 0.930 . S
C648 C643 1.391 . S
C648 N647 1.388 . S
Co649 O651 2.143 . S
Co649 O657 2.074 . S
Co649 O660 2.093 . S
Co649 O673 2.097 . S
Co649 N690 2.151 . S
Co649 N698 2.214 . S
Co650 O651 2.160 . S
Co650 O656 2.058 . S
Co650 O666 2.057 . S
Co650 O681 2.037 . S
Co650 N685 2.145 . S
Co650 N706 2.257 . S
O651 Co649 2.143 . S
O651 Co650 2.160 . S
C652 O653 1.278 . S
C652 O660 1.224 . S
O653 C652 1.278 . S
C654 O655 1.245 . S
C654 O666 1.232 . S
O655 C654 1.245 . S
O656 Co650 2.058 . S
O656 C682 1.269 . S
O657 Co649 2.074 . S
O657 C682 1.257 . S
H658 C683 0.930 . S
H659 C689 0.930 . S
O660 Co649 2.093 . S
O660 C652 1.224 . S
H661 C693 0.929 . S
H662 C695 0.930 . S
H663 C696 0.930 . S
H664 C694 0.929 . S
H665 C697 0.928 . S
O666 Co650 2.057 . S
O666 C654 1.232 . S
H667 C686 0.929 . S
H668 C687 0.929 . S
H669 C699 0.931 . S
H670 C691 0.929 . S
H671 C700 0.930 . S
H672 C692 0.931 . S
O673 Co649 2.097 . S
O673 C701 1.214 . S
H674 C702 0.929 . S
H675 C703 0.929 . S
H676 C704 0.930 1_655 S
H677 C705 0.929 1_655 S
H678 C707 0.930 . S
H679 C684 0.930 . S
H680 C688 0.966 . S
O681 Co650 2.037 . S
O681 C701 1.234 . S
C682 O656 1.269 . S
C682 O657 1.257 . S
C683 H658 0.930 . S
C683 C686 1.388 . S
C683 C688 1.401 1_455 S
C684 H679 0.930 . S
C684 C687 1.404 . S
C684 C688 1.336 1_455 S
N685 Co650 2.145 . S
N685 C686 1.397 . S
N685 C687 1.334 . S
C686 H667 0.929 . S
C686 C683 1.388 . S
C686 N685 1.397 . S
C687 H668 0.929 . S
C687 C684 1.404 . S
C687 N685 1.334 . S
C688 H680 0.966 . S
C688 C683 1.401 1_655 S
C688 C684 1.336 1_655 S
C689 H659 0.930 . S
C689 N690 1.330 . S
C689 C691 1.446 . S
N690 Co649 2.151 . S
N690 C689 1.330 . S
N690 C694 1.418 . S
C691 H670 0.929 . S
C691 C689 1.446 . S
C691 C692 1.332 . S
C692 H672 0.931 . S
C692 C691 1.332 . S
C692 C693 1.267 . S
C693 H661 0.929 . S
C693 C692 1.267 . S
C693 C694 1.251 . S
C694 H664 0.929 . S
C694 N690 1.418 . S
C694 C693 1.251 . S
C695 H662 0.930 . S
C695 C697 1.406 . S
C695 C700 1.261 . S
C696 H663 0.930 . S
C696 N698 1.325 . S
C696 C699 1.357 . S
C697 H665 0.928 . S
C697 C695 1.406 . S
C697 N698 1.261 . S
N698 Co649 2.214 . S
N698 C696 1.325 . S
N698 C697 1.261 . S
C699 H669 0.931 . S
C699 C696 1.357 . S
C699 C700 1.312 . S
C700 H671 0.930 . S
C700 C695 1.261 . S
C700 C699 1.312 . S
C701 O673 1.214 . S
C701 O681 1.234 . S
C702 H674 0.929 . S
C702 C705 1.391 . S
C702 C707 1.391 . S
C703 H675 0.929 . S
C703 C704 1.390 . S
C703 N706 1.391 . S
C704 H676 0.930 1_455 S
C704 C703 1.390 . S
C704 C705 1.392 . S
C705 H677 0.929 1_455 S
C705 C702 1.391 . S
C705 C704 1.392 . S
N706 Co650 2.257 . S
N706 C703 1.391 . S
N706 C707 1.388 . S
C707 H678 0.930 . S
C707 C702 1.391 . S
C707 N706 1.388 . S
Co708 O710 2.143 . S
Co708 O716 2.074 . S
Co708 O719 2.093 . S
Co708 O732 2.097 . S
Co708 N749 2.151 . S
Co708 N757 2.214 . S
Co709 O710 2.160 . S
Co709 O715 2.058 . S
Co709 O725 2.057 . S
Co709 O740 2.037 . S
Co709 N744 2.145 . S
Co709 N765 2.257 . S
O710 Co708 2.143 . S
O710 Co709 2.160 . S
C711 O712 1.278 . S
C711 O719 1.224 . S
O712 C711 1.278 . S
C713 O714 1.245 . S
C713 O725 1.232 . S
O714 C713 1.245 . S
O715 Co709 2.058 . S
O715 C741 1.269 . S
O716 Co708 2.074 . S
O716 C741 1.257 . S
H717 C742 0.930 . S
H718 C748 0.930 . S
O719 Co708 2.093 . S
O719 C711 1.224 . S
H720 C752 0.929 . S
H721 C754 0.930 . S
H722 C755 0.930 . S
H723 C753 0.929 . S
H724 C756 0.928 . S
O725 Co709 2.057 . S
O725 C713 1.232 . S
H726 C745 0.929 . S
H727 C746 0.929 . S
H728 C758 0.931 . S
H729 C750 0.929 . S
H730 C759 0.930 . S
H731 C751 0.931 . S
O732 Co708 2.097 . S
O732 C760 1.214 . S
H733 C761 0.929 . S
H734 C762 0.929 . S
H735 C763 0.930 1_545 S
H736 C764 0.929 1_545 S
H737 C766 0.930 . S
H738 C743 0.930 . S
H739 C747 0.965 . S
O740 Co709 2.037 . S
O740 C760 1.234 . S
C741 O715 1.269 . S
C741 O716 1.257 . S
C742 H717 0.930 . S
C742 C745 1.388 . S
C742 C747 1.401 1_565 S
C743 H738 0.930 . S
C743 C746 1.404 . S
C743 C747 1.336 1_565 S
N744 Co709 2.145 . S
N744 C745 1.397 . S
N744 C746 1.334 . S
C745 H726 0.929 . S
C745 C742 1.388 . S
C745 N744 1.397 . S
C746 H727 0.929 . S
C746 C743 1.404 . S
C746 N744 1.334 . S
C747 H739 0.965 . S
C747 C742 1.401 1_545 S
C747 C743 1.336 1_545 S
C748 H718 0.930 . S
C748 N749 1.330 . S
C748 C750 1.446 . S
N749 Co708 2.151 . S
N749 C748 1.330 . S
N749 C753 1.418 . S
C750 H729 0.929 . S
C750 C748 1.446 . S
C750 C751 1.332 . S
C751 H731 0.931 . S
C751 C750 1.332 . S
C751 C752 1.267 . S
C752 H720 0.929 . S
C752 C751 1.267 . S
C752 C753 1.251 . S
C753 H723 0.929 . S
C753 N749 1.418 . S
C753 C752 1.251 . S
C754 H721 0.930 . S
C754 C756 1.406 . S
C754 C759 1.261 . S
C755 H722 0.930 . S
C755 N757 1.325 . S
C755 C758 1.357 . S
C756 H724 0.928 . S
C756 C754 1.406 . S
C756 N757 1.261 . S
N757 Co708 2.214 . S
N757 C755 1.325 . S
N757 C756 1.261 . S
C758 H728 0.931 . S
C758 C755 1.357 . S
C758 C759 1.312 . S
C759 H730 0.930 . S
C759 C754 1.261 . S
C759 C758 1.312 . S
C760 O732 1.214 . S
C760 O740 1.234 . S
C761 H733 0.929 . S
C761 C764 1.391 . S
C761 C766 1.391 . S
C762 H734 0.929 . S
C762 C763 1.390 . S
C762 N765 1.391 . S
C763 H735 0.930 1_565 S
C763 C762 1.390 . S
C763 C764 1.392 . S
C764 H736 0.929 1_565 S
C764 C761 1.391 . S
C764 C763 1.392 . S
N765 Co709 2.257 . S
N765 C762 1.391 . S
N765 C766 1.388 . S
C766 H737 0.930 . S
C766 C761 1.391 . S
C766 N765 1.388 . S
Co767 O769 2.143 . S
Co767 O775 2.074 . S
Co767 O778 2.093 . S
Co767 O791 2.097 . S
Co767 N808 2.151 . S
Co767 N816 2.214 . S
Co768 O769 2.160 . S
Co768 O774 2.058 . S
Co768 O784 2.057 . S
Co768 O799 2.037 . S
Co768 N803 2.145 . S
Co768 N824 2.257 . S
O769 Co767 2.143 . S
O769 Co768 2.160 . S
C770 O771 1.278 . S
C770 O778 1.224 . S
O771 C770 1.278 . S
C772 O773 1.245 . S
C772 O784 1.232 . S
O773 C772 1.245 . S
O774 Co768 2.058 . S
O774 C800 1.269 . S
O775 Co767 2.074 . S
O775 C800 1.257 . S
H776 C801 0.930 . S
H777 C807 0.930 . S
O778 Co767 2.093 . S
O778 C770 1.224 . S
H779 C811 0.929 . S
H780 C813 0.930 . S
H781 C814 0.930 . S
H782 C812 0.929 . S
H783 C815 0.928 . S
O784 Co768 2.057 . S
O784 C772 1.232 . S
H785 C804 0.929 . S
H786 C805 0.929 . S
H787 C817 0.931 . S
H788 C809 0.929 . S
H789 C818 0.930 . S
H790 C810 0.931 . S
O791 Co767 2.097 . S
O791 C819 1.214 . S
H792 C820 0.929 . S
H793 C821 0.929 . S
H794 C822 0.930 1_655 S
H795 C823 0.929 1_655 S
H796 C825 0.930 . S
H797 C802 0.930 . S
H798 C806 0.967 . S
O799 Co768 2.037 . S
O799 C819 1.234 . S
C800 O774 1.269 . S
C800 O775 1.257 . S
C801 H776 0.930 . S
C801 C804 1.388 . S
C801 C806 1.400 1_455 S
C802 H797 0.930 . S
C802 C805 1.404 . S
C802 C806 1.335 1_455 S
N803 Co768 2.145 . S
N803 C804 1.397 . S
N803 C805 1.334 . S
C804 H785 0.929 . S
C804 C801 1.388 . S
C804 N803 1.397 . S
C805 H786 0.929 . S
C805 C802 1.404 . S
C805 N803 1.334 . S
C806 H798 0.967 . S
C806 C801 1.400 1_655 S
C806 C802 1.335 1_655 S
C807 H777 0.930 . S
C807 N808 1.330 . S
C807 C809 1.446 . S
N808 Co767 2.151 . S
N808 C807 1.330 . S
N808 C812 1.418 . S
C809 H788 0.929 . S
C809 C807 1.446 . S
C809 C810 1.332 . S
C810 H790 0.931 . S
C810 C809 1.332 . S
C810 C811 1.267 . S
C811 H779 0.929 . S
C811 C810 1.267 . S
C811 C812 1.251 . S
C812 H782 0.929 . S
C812 N808 1.418 . S
C812 C811 1.251 . S
C813 H780 0.930 . S
C813 C815 1.406 . S
C813 C818 1.261 . S
C814 H781 0.930 . S
C814 N816 1.325 . S
C814 C817 1.357 . S
C815 H783 0.928 . S
C815 C813 1.406 . S
C815 N816 1.261 . S
N816 Co767 2.214 . S
N816 C814 1.325 . S
N816 C815 1.261 . S
C817 H787 0.931 . S
C817 C814 1.357 . S
C817 C818 1.312 . S
C818 H789 0.930 . S
C818 C813 1.261 . S
C818 C817 1.312 . S
C819 O791 1.214 . S
C819 O799 1.234 . S
C820 H792 0.929 . S
C820 C823 1.391 . S
C820 C825 1.391 . S
C821 H793 0.929 . S
C821 C822 1.390 . S
C821 N824 1.391 . S
C822 H794 0.930 1_455 S
C822 C821 1.390 . S
C822 C823 1.392 . S
C823 H795 0.929 1_455 S
C823 C820 1.391 . S
C823 C822 1.392 . S
N824 Co768 2.257 . S
N824 C821 1.391 . S
N824 C825 1.388 . S
C825 H796 0.930 . S
C825 C820 1.391 . S
C825 N824 1.388 . S
Co826 O828 2.143 . S
Co826 O834 2.074 1_554 S
Co826 O837 2.093 . S
Co826 O850 2.097 . S
Co826 N867 2.151 . S
Co826 N875 2.214 . S
Co827 O828 2.160 1_556 S
Co827 O833 2.058 . S
Co827 O843 2.057 . S
Co827 O858 2.037 . S
Co827 N862 2.145 . S
Co827 N883 2.257 1_556 S
O828 Co826 2.143 . S
O828 Co827 2.160 1_554 S
C829 O830 1.278 . S
C829 O837 1.224 . S
O830 C829 1.278 . S
C831 O832 1.245 1_556 S
C831 O843 1.232 . S
O832 C831 1.245 1_554 S
O833 Co827 2.058 . S
O833 C859 1.269 . S
O834 Co826 2.074 1_556 S
O834 C859 1.257 . S
H835 C860 0.930 . S
H836 C866 0.930 . S
O837 Co826 2.093 . S
O837 C829 1.224 . S
H838 C870 0.933 . S
H839 C872 0.930 . S
H840 C873 0.930 1_556 S
H841 C871 0.940 . S
H842 C874 0.928 . S
O843 Co827 2.057 . S
O843 C831 1.232 . S
H844 C863 0.929 . S
H845 C864 0.929 . S
H846 C876 0.931 . S
H847 C868 0.929 . S
H848 C877 0.930 . S
H849 C869 0.931 . S
O850 Co826 2.097 . S
O850 C878 1.214 . S
H851 C879 0.929 . S
H852 C880 0.929 . S
H853 C881 0.930 . S
H854 C882 0.929 . S
H855 C884 0.930 . S
H856 C861 0.930 . S
H857 C865 0.930 . S
O858 Co827 2.037 . S
O858 C878 1.234 1_556 S
C859 O833 1.269 . S
C859 O834 1.257 . S
C860 H835 0.930 . S
C860 C863 1.388 . S
C860 C865 1.418 . S
C861 H856 0.930 . S
C861 C864 1.404 . S
C861 C865 1.353 . S
N862 Co827 2.145 . S
N862 C863 1.397 . S
N862 C864 1.334 . S
C863 H844 0.929 . S
C863 C860 1.388 . S
C863 N862 1.397 . S
C864 H845 0.929 . S
C864 C861 1.404 . S
C864 N862 1.334 . S
C865 H857 0.930 . S
C865 C860 1.418 . S
C865 C861 1.353 . S
C866 H836 0.930 . S
C866 N867 1.330 . S
C866 C868 1.446 . S
N867 Co826 2.151 . S
N867 C866 1.330 . S
N867 C871 1.407 1_554 S
C868 H847 0.929 . S
C868 C866 1.446 . S
C868 C869 1.332 . S
C869 H849 0.931 . S
C869 C868 1.332 . S
C869 C870 1.263 1_554 S
C870 H838 0.933 . S
C870 C869 1.263 1_556 S
C870 C871 1.251 . S
C871 H841 0.940 . S
C871 N867 1.407 1_556 S
C871 C870 1.251 . S
C872 H839 0.930 . S
C872 C874 1.406 . S
C872 C877 1.261 . S
C873 H840 0.930 1_554 S
C873 N875 1.325 . S
C873 C876 1.357 1_554 S
C874 H842 0.928 . S
C874 C872 1.406 . S
C874 N875 1.261 . S
N875 Co826 2.214 . S
N875 C873 1.325 . S
N875 C874 1.261 . S
C876 H846 0.931 . S
C876 C873 1.357 1_556 S
C876 C877 1.312 1_556 S
C877 H848 0.930 . S
C877 C872 1.261 . S
C877 C876 1.312 1_554 S
C878 O850 1.214 . S
C878 O858 1.234 1_554 S
C879 H851 0.929 . S
C879 C882 1.391 . S
C879 C884 1.391 . S
C880 H852 0.929 . S
C880 C881 1.390 . S
C880 N883 1.391 . S
C881 H853 0.930 . S
C881 C880 1.390 . S
C881 C882 1.392 . S
C882 H854 0.929 . S
C882 C879 1.391 . S
C882 C881 1.392 . S
N883 Co827 2.257 1_554 S
N883 C880 1.391 . S
N883 C884 1.388 . S
C884 H855 0.930 . S
C884 C879 1.391 . S
C884 N883 1.388 . S
Co885 O887 2.143 . S
Co885 O893 2.074 . S
Co885 O896 2.093 . S
Co885 O909 2.097 . S
Co885 N926 2.151 . S
Co885 N934 2.214 . S
Co886 O887 2.160 . S
Co886 O892 2.058 . S
Co886 O902 2.057 . S
Co886 O917 2.037 . S
Co886 N921 2.145 . S
Co886 N942 2.257 . S
O887 Co885 2.143 . S
O887 Co886 2.160 . S
C888 O889 1.278 . S
C888 O896 1.224 . S
O889 C888 1.278 . S
C890 O891 1.245 . S
C890 O902 1.232 . S
O891 C890 1.245 . S
O892 Co886 2.058 . S
O892 C918 1.269 . S
O893 Co885 2.074 . S
O893 C918 1.257 . S
H894 C919 0.930 . S
H895 C925 0.930 . S
O896 Co885 2.093 . S
O896 C888 1.224 . S
H897 C929 0.929 . S
H898 C931 0.930 . S
H899 C932 0.930 . S
H900 C930 0.929 . S
H901 C933 0.928 . S
O902 Co886 2.057 . S
O902 C890 1.232 . S
H903 C922 0.929 . S
H904 C923 0.929 . S
H905 C935 0.931 . S
H906 C927 0.929 . S
H907 C936 0.930 . S
H908 C928 0.931 . S
O909 Co885 2.097 . S
O909 C937 1.214 . S
H910 C938 0.929 . S
H911 C939 0.929 . S
H912 C940 0.930 . S
H913 C941 0.929 . S
H914 C943 0.930 . S
H915 C920 0.930 . S
H916 C924 0.930 . S
O917 Co886 2.037 . S
O917 C937 1.234 . S
C918 O892 1.269 . S
C918 O893 1.257 . S
C919 H894 0.930 . S
C919 C922 1.388 . S
C919 C924 1.418 . S
C920 H915 0.930 . S
C920 C923 1.404 . S
C920 C924 1.353 . S
N921 Co886 2.145 . S
N921 C922 1.397 . S
N921 C923 1.334 . S
C922 H903 0.929 . S
C922 C919 1.388 . S
C922 N921 1.397 . S
C923 H904 0.929 . S
C923 C920 1.404 . S
C923 N921 1.334 . S
C924 H916 0.930 . S
C924 C919 1.418 . S
C924 C920 1.353 . S
C925 H895 0.930 . S
C925 N926 1.330 . S
C925 C927 1.446 . S
N926 Co885 2.151 . S
N926 C925 1.330 . S
N926 C930 1.418 . S
C927 H906 0.929 . S
C927 C925 1.446 . S
C927 C928 1.332 . S
C928 H908 0.931 . S
C928 C927 1.332 . S
C928 C929 1.267 . S
C929 H897 0.929 . S
C929 C928 1.267 . S
C929 C930 1.251 . S
C930 H900 0.929 . S
C930 N926 1.418 . S
C930 C929 1.251 . S
C931 H898 0.930 . S
C931 C933 1.406 . S
C931 C936 1.261 . S
C932 H899 0.930 . S
C932 N934 1.325 . S
C932 C935 1.357 . S
C933 H901 0.928 . S
C933 C931 1.406 . S
C933 N934 1.261 . S
N934 Co885 2.214 . S
N934 C932 1.325 . S
N934 C933 1.261 . S
C935 H905 0.931 . S
C935 C932 1.357 . S
C935 C936 1.312 . S
C936 H907 0.930 . S
C936 C931 1.261 . S
C936 C935 1.312 . S
C937 O909 1.214 . S
C937 O917 1.234 . S
C938 H910 0.929 . S
C938 C941 1.391 . S
C938 C943 1.391 . S
C939 H911 0.929 . S
C939 C940 1.390 . S
C939 N942 1.391 . S
C940 H912 0.930 . S
C940 C939 1.390 . S
C940 C941 1.392 . S
C941 H913 0.929 . S
C941 C938 1.391 . S
C941 C940 1.392 . S
N942 Co886 2.257 . S
N942 C939 1.391 . S
N942 C943 1.388 . S
C943 H914 0.930 . S
C943 C938 1.391 . S
C943 N942 1.388 . S
H944 C952 0.929 . S
H945 C954 0.930 . S
H946 C956 0.930 . S
H947 C959 0.929 . S
H948 C962 0.930 . S
H949 C964 0.960 . S
H950 C964 0.960 . S
H951 C964 0.960 . S
C952 H944 0.929 . S
C952 C953 1.377 . S
C952 C954 1.384 . S
C953 C952 1.377 . S
C953 C959 1.390 . S
C954 H945 0.930 . S
C954 C952 1.384 . S
C954 C955 1.372 . S
C955 C954 1.372 . S
C955 C956 1.400 . S
C955 C960 1.490 . S
C956 H946 0.930 . S
C956 C955 1.400 . S
C956 C959 1.386 . S
H957 C973 0.930 . S
H958 C974 0.931 . S
C959 H947 0.929 . S
C959 C953 1.390 . S
C959 C956 1.386 . S
C960 C955 1.490 . S
C960 C962 1.395 . S
C960 C963 1.403 . S
H961 C967 0.930 . S
C962 H948 0.930 . S
C962 C960 1.395 . S
C962 C965 1.403 . S
C963 C960 1.403 . S
C963 C964 1.524 . S
C963 C967 1.400 . S
C964 H949 0.960 . S
C964 H950 0.960 . S
C964 H951 0.960 . S
C964 C963 1.524 . S
C965 C962 1.403 . S
C965 C966 1.392 . S
C965 C969 1.495 . S
C966 C965 1.392 . S
C966 C967 1.385 . S
C966 C968 1.478 . S
C967 H961 0.930 . S
C967 C963 1.400 . S
C967 C966 1.385 . S
C968 C966 1.478 . S
C968 C970 1.381 . S
C968 C974 1.383 . S
C969 C965 1.495 . S
C969 H975 0.959 . S
C969 H976 0.961 . S
C969 H977 0.960 . S
C970 C968 1.381 . S
C970 C971 1.394 . S
C970 H978 0.930 . S
C971 C970 1.394 . S
C971 C972 1.383 . S
C971 H979 0.929 . S
C972 C971 1.383 . S
C972 C973 1.377 . S
C973 H957 0.930 . S
C973 C972 1.377 . S
C973 C974 1.379 . S
C974 H958 0.931 . S
C974 C968 1.383 . S
C974 C973 1.379 . S
H975 C969 0.959 . S
H976 C969 0.961 . S
H977 C969 0.960 . S
H978 C970 0.930 . S
H979 C971 0.929 . S
H980 C988 0.929 . S
H981 C990 0.930 . S
H982 C992 0.930 . S
H983 C995 0.929 . S
H984 C998 0.930 . S
H985 C1000 0.960 . S
H986 C1000 0.960 . S
H987 C1000 0.960 . S
C988 H980 0.929 . S
C988 C989 1.377 . S
C988 C990 1.384 . S
C989 C988 1.377 . S
C989 C995 1.390 . S
C990 H981 0.930 . S
C990 C988 1.384 . S
C990 C991 1.372 . S
C991 C990 1.372 . S
C991 C992 1.400 . S
C991 C996 1.490 . S
C992 H982 0.930 . S
C992 C991 1.400 . S
C992 C995 1.386 . S
H993 C1009 0.930 . S
H994 C1010 0.931 . S
C995 H983 0.929 . S
C995 C989 1.390 . S
C995 C992 1.386 . S
C996 C991 1.490 . S
C996 C998 1.395 . S
C996 C999 1.403 . S
H997 C1003 0.930 . S
C998 H984 0.930 . S
C998 C996 1.395 . S
C998 C1001 1.403 . S
C999 C996 1.403 . S
C999 C1000 1.524 . S
C999 C1003 1.400 . S
C1000 H985 0.960 . S
C1000 H986 0.960 . S
C1000 H987 0.960 . S
C1000 C999 1.524 . S
C1001 C998 1.403 . S
C1001 C1002 1.392 . S
C1001 C1005 1.495 . S
C1002 C1001 1.392 . S
C1002 C1003 1.385 . S
C1002 C1004 1.478 . S
C1003 H997 0.930 . S
C1003 C999 1.400 . S
C1003 C1002 1.385 . S
C1004 C1002 1.478 . S
C1004 C1006 1.381 . S
C1004 C1010 1.383 . S
C1005 C1001 1.495 . S
C1005 H1011 0.959 . S
C1005 H1012 0.961 . S
C1005 H1013 0.960 . S
C1006 C1004 1.381 . S
C1006 C1007 1.394 . S
C1006 H1014 0.930 . S
C1007 C1006 1.394 . S
C1007 C1008 1.383 . S
C1007 H1015 0.929 . S
C1008 C1007 1.383 . S
C1008 C1009 1.377 . S
C1009 H993 0.930 . S
C1009 C1008 1.377 . S
C1009 C1010 1.379 . S
C1010 H994 0.931 . S
C1010 C1004 1.383 . S
C1010 C1009 1.379 . S
H1011 C1005 0.959 . S
H1012 C1005 0.961 . S
H1013 C1005 0.960 . S
H1014 C1006 0.930 . S
H1015 C1007 0.929 . S
H1016 C1024 0.929 . S
H1017 C1026 0.930 . S
H1018 C1028 0.930 . S
H1019 C1031 0.929 . S
H1020 C1034 0.930 . S
H1021 C1036 0.960 . S
H1022 C1036 0.960 . S
H1023 C1036 0.960 . S
C1024 H1016 0.929 . S
C1024 C1025 1.377 . S
C1024 C1026 1.384 . S
C1025 C1024 1.377 . S
C1025 C1031 1.390 . S
C1026 H1017 0.930 . S
C1026 C1024 1.384 . S
C1026 C1027 1.372 . S
C1027 C1026 1.372 . S
C1027 C1028 1.400 . S
C1027 C1032 1.490 . S
C1028 H1018 0.930 . S
C1028 C1027 1.400 . S
C1028 C1031 1.386 . S
H1029 C1045 0.930 . S
H1030 C1046 0.931 . S
C1031 H1019 0.929 . S
C1031 C1025 1.390 . S
C1031 C1028 1.386 . S
C1032 C1027 1.490 . S
C1032 C1034 1.395 . S
C1032 C1035 1.403 . S
H1033 C1039 0.930 . S
C1034 H1020 0.930 . S
C1034 C1032 1.395 . S
C1034 C1037 1.403 . S
C1035 C1032 1.403 . S
C1035 C1036 1.524 . S
C1035 C1039 1.400 . S
C1036 H1021 0.960 . S
C1036 H1022 0.960 . S
C1036 H1023 0.960 . S
C1036 C1035 1.524 . S
C1037 C1034 1.403 . S
C1037 C1038 1.392 . S
C1037 C1041 1.495 . S
C1038 C1037 1.392 . S
C1038 C1039 1.385 . S
C1038 C1040 1.478 . S
C1039 H1033 0.930 . S
C1039 C1035 1.400 . S
C1039 C1038 1.385 . S
C1040 C1038 1.478 . S
C1040 C1042 1.381 . S
C1040 C1046 1.383 . S
C1041 C1037 1.495 . S
C1041 H1047 0.959 . S
C1041 H1048 0.961 . S
C1041 H1049 0.960 . S
C1042 C1040 1.381 . S
C1042 C1043 1.394 . S
C1042 H1050 0.930 . S
C1043 C1042 1.394 . S
C1043 C1044 1.383 . S
C1043 H1051 0.929 . S
C1044 C1043 1.383 . S
C1044 C1045 1.377 . S
C1045 H1029 0.930 . S
C1045 C1044 1.377 . S
C1045 C1046 1.379 . S
C1046 H1030 0.931 . S
C1046 C1040 1.383 . S
C1046 C1045 1.379 . S
H1047 C1041 0.959 . S
H1048 C1041 0.961 . S
H1049 C1041 0.960 . S
H1050 C1042 0.930 . S
H1051 C1043 0.929 . S
H1052 C1060 0.929 . S
H1053 C1062 0.930 . S
H1054 C1064 0.930 . S
H1055 C1067 0.929 . S
H1056 C1070 0.930 . S
H1057 C1072 0.960 . S
H1058 C1072 0.960 . S
H1059 C1072 0.960 . S
C1060 H1052 0.929 . S
C1060 C1061 1.377 . S
C1060 C1062 1.384 . S
C1061 C1060 1.377 . S
C1061 C1067 1.390 . S
C1062 H1053 0.930 . S
C1062 C1060 1.384 . S
C1062 C1063 1.372 . S
C1063 C1062 1.372 . S
C1063 C1064 1.400 . S
C1063 C1068 1.490 . S
C1064 H1054 0.930 . S
C1064 C1063 1.400 . S
C1064 C1067 1.386 . S
H1065 C1081 0.930 . S
H1066 C1082 0.931 . S
C1067 H1055 0.929 . S
C1067 C1061 1.390 . S
C1067 C1064 1.386 . S
C1068 C1063 1.490 . S
C1068 C1070 1.395 . S
C1068 C1071 1.403 . S
H1069 C1075 0.930 . S
C1070 H1056 0.930 . S
C1070 C1068 1.395 . S
C1070 C1073 1.403 . S
C1071 C1068 1.403 . S
C1071 C1072 1.524 . S
C1071 C1075 1.400 . S
C1072 H1057 0.960 . S
C1072 H1058 0.960 . S
C1072 H1059 0.960 . S
C1072 C1071 1.524 . S
C1073 C1070 1.403 . S
C1073 C1074 1.392 . S
C1073 C1077 1.495 . S
C1074 C1073 1.392 . S
C1074 C1075 1.385 . S
C1074 C1076 1.478 . S
C1075 H1069 0.930 . S
C1075 C1071 1.400 . S
C1075 C1074 1.385 . S
C1076 C1074 1.478 . S
C1076 C1078 1.381 . S
C1076 C1082 1.383 . S
C1077 C1073 1.495 . S
C1077 H1083 0.959 . S
C1077 H1084 0.961 . S
C1077 H1085 0.960 . S
C1078 C1076 1.381 . S
C1078 C1079 1.394 . S
C1078 H1086 0.930 . S
C1079 C1078 1.394 . S
C1079 C1080 1.383 . S
C1079 H1087 0.929 . S
C1080 C1079 1.383 . S
C1080 C1081 1.377 . S
C1081 H1065 0.930 . S
C1081 C1080 1.377 . S
C1081 C1082 1.379 . S
C1082 H1066 0.931 . S
C1082 C1076 1.383 . S
C1082 C1081 1.379 . S
H1083 C1077 0.959 . S
H1084 C1077 0.961 . S
H1085 C1077 0.960 . S
H1086 C1078 0.930 . S
H1087 C1079 0.929 . S
H1088 C1096 0.929 . S
H1089 C1098 0.930 . S
H1090 C1100 0.930 . S
H1091 C1103 0.929 . S
H1092 C1106 0.930 . S
H1093 C1108 0.960 . S
H1094 C1108 0.960 . S
H1095 C1108 0.960 . S
C1096 H1088 0.929 . S
C1096 C1097 1.377 . S
C1096 C1098 1.384 . S
C1097 C1096 1.377 . S
C1097 C1103 1.390 . S
C1098 H1089 0.930 . S
C1098 C1096 1.384 . S
C1098 C1099 1.372 . S
C1099 C1098 1.372 . S
C1099 C1100 1.400 . S
C1099 C1104 1.490 . S
C1100 H1090 0.930 . S
C1100 C1099 1.400 . S
C1100 C1103 1.386 . S
H1101 C1117 0.930 1_554 S
H1102 C1118 0.931 . S
C1103 H1091 0.929 . S
C1103 C1097 1.390 . S
C1103 C1100 1.386 . S
C1104 C1099 1.490 . S
C1104 C1106 1.395 . S
C1104 C1107 1.403 . S
H1105 C1111 0.930 . S
C1106 H1092 0.930 . S
C1106 C1104 1.395 . S
C1106 C1109 1.403 . S
C1107 C1104 1.403 . S
C1107 C1108 1.524 . S
C1107 C1111 1.400 . S
C1108 H1093 0.960 . S
C1108 H1094 0.960 . S
C1108 H1095 0.960 . S
C1108 C1107 1.524 . S
C1109 C1106 1.403 . S
C1109 C1110 1.392 . S
C1109 C1113 1.495 . S
C1110 C1109 1.392 . S
C1110 C1111 1.385 . S
C1110 C1112 1.478 . S
C1111 H1105 0.930 . S
C1111 C1107 1.400 . S
C1111 C1110 1.385 . S
C1112 C1110 1.478 . S
C1112 C1114 1.381 . S
C1112 C1118 1.383 . S
C1113 C1109 1.495 . S
C1113 H1119 0.959 . S
C1113 H1120 0.961 . S
C1113 H1121 0.960 . S
C1114 C1112 1.381 . S
C1114 C1115 1.394 . S
C1114 H1122 0.930 . S
C1115 C1114 1.394 . S
C1115 C1116 1.383 . S
C1115 H1123 0.929 . S
C1116 C1115 1.383 . S
C1116 C1117 1.377 . S
C1117 H1101 0.930 1_556 S
C1117 C1116 1.377 . S
C1117 C1118 1.379 . S
C1118 H1102 0.931 . S
C1118 C1112 1.383 . S
C1118 C1117 1.379 . S
H1119 C1113 0.959 . S
H1120 C1113 0.961 . S
H1121 C1113 0.960 . S
H1122 C1114 0.930 . S
H1123 C1115 0.929 . S
H1124 C1132 0.929 . S
H1125 C1134 0.930 . S
H1126 C1136 0.930 . S
H1127 C1139 0.929 . S
H1128 C1142 0.930 . S
H1129 C1144 0.960 . S
H1130 C1144 0.960 . S
H1131 C1144 0.960 . S
C1132 H1124 0.929 . S
C1132 C1133 1.377 . S
C1132 C1134 1.384 . S
C1133 C1132 1.377 . S
C1133 C1139 1.390 . S
C1134 H1125 0.930 . S
C1134 C1132 1.384 . S
C1134 C1135 1.372 . S
C1135 C1134 1.372 . S
C1135 C1136 1.400 . S
C1135 C1140 1.490 . S
C1136 H1126 0.930 . S
C1136 C1135 1.400 . S
C1136 C1139 1.386 . S
H1137 C1153 0.930 . S
H1138 C1154 0.931 . S
C1139 H1127 0.929 . S
C1139 C1133 1.390 . S
C1139 C1136 1.386 . S
C1140 C1135 1.490 . S
C1140 C1142 1.395 . S
C1140 C1143 1.403 . S
H1141 C1147 0.930 . S
C1142 H1128 0.930 . S
C1142 C1140 1.395 . S
C1142 C1145 1.403 . S
C1143 C1140 1.403 . S
C1143 C1144 1.524 . S
C1143 C1147 1.400 . S
C1144 H1129 0.960 . S
C1144 H1130 0.960 . S
C1144 H1131 0.960 . S
C1144 C1143 1.524 . S
C1145 C1142 1.403 . S
C1145 C1146 1.392 . S
C1145 C1149 1.495 . S
C1146 C1145 1.392 . S
C1146 C1147 1.385 . S
C1146 C1148 1.478 . S
C1147 H1141 0.930 . S
C1147 C1143 1.400 . S
C1147 C1146 1.385 . S
C1148 C1146 1.478 . S
C1148 C1150 1.381 . S
C1148 C1154 1.383 . S
C1149 C1145 1.495 . S
C1149 H1155 0.959 . S
C1149 H1156 0.961 . S
C1149 H1157 0.960 . S
C1150 C1148 1.381 . S
C1150 C1151 1.394 . S
C1150 H1158 0.930 . S
C1151 C1150 1.394 . S
C1151 C1152 1.383 . S
C1151 H1159 0.929 . S
C1152 C1151 1.383 . S
C1152 C1153 1.377 . S
C1153 H1137 0.930 . S
C1153 C1152 1.377 . S
C1153 C1154 1.379 . S
C1154 H1138 0.931 . S
C1154 C1148 1.383 . S
C1154 C1153 1.379 . S
H1155 C1149 0.959 . S
H1156 C1149 0.961 . S
H1157 C1149 0.960 . S
H1158 C1150 0.930 . S
H1159 C1151 0.929 . S
H1160 C1168 0.929 . S
H1161 C1170 0.930 . S
H1162 C1172 0.930 . S
H1163 C1175 0.929 . S
H1164 C1178 0.930 . S
H1165 C1180 0.960 . S
H1166 C1180 0.960 . S
H1167 C1180 0.960 . S
C1168 H1160 0.929 . S
C1168 C1169 1.377 . S
C1168 C1170 1.384 . S
C1169 C1168 1.377 . S
C1169 C1175 1.390 . S
C1170 H1161 0.930 . S
C1170 C1168 1.384 . S
C1170 C1171 1.372 . S
C1171 C1170 1.372 . S
C1171 C1172 1.400 . S
C1171 C1176 1.490 . S
C1172 H1162 0.930 . S
C1172 C1171 1.400 . S
C1172 C1175 1.386 . S
H1173 C1189 0.930 . S
H1174 C1190 0.931 . S
C1175 H1163 0.929 . S
C1175 C1169 1.390 . S
C1175 C1172 1.386 . S
C1176 C1171 1.490 . S
C1176 C1178 1.395 . S
C1176 C1179 1.403 . S
H1177 C1183 0.930 . S
C1178 H1164 0.930 . S
C1178 C1176 1.395 . S
C1178 C1181 1.403 . S
C1179 C1176 1.403 . S
C1179 C1180 1.524 . S
C1179 C1183 1.400 . S
C1180 H1165 0.960 . S
C1180 H1166 0.960 . S
C1180 H1167 0.960 . S
C1180 C1179 1.524 . S
C1181 C1178 1.403 . S
C1181 C1182 1.392 . S
C1181 C1185 1.495 . S
C1182 C1181 1.392 . S
C1182 C1183 1.385 . S
C1182 C1184 1.478 . S
C1183 H1177 0.930 . S
C1183 C1179 1.400 . S
C1183 C1182 1.385 . S
C1184 C1182 1.478 . S
C1184 C1186 1.381 . S
C1184 C1190 1.383 . S
C1185 C1181 1.495 . S
C1185 H1191 0.959 . S
C1185 H1192 0.961 . S
C1185 H1193 0.960 . S
C1186 C1184 1.381 . S
C1186 C1187 1.394 . S
C1186 H1194 0.930 . S
C1187 C1186 1.394 . S
C1187 C1188 1.383 . S
C1187 H1195 0.929 . S
C1188 C1187 1.383 . S
C1188 C1189 1.377 . S
C1189 H1173 0.930 . S
C1189 C1188 1.377 . S
C1189 C1190 1.379 . S
C1190 H1174 0.931 . S
C1190 C1184 1.383 . S
C1190 C1189 1.379 . S
H1191 C1185 0.959 . S
H1192 C1185 0.961 . S
H1193 C1185 0.960 . S
H1194 C1186 0.930 . S
H1195 C1187 0.929 . S
H1196 C1204 0.929 . S
H1197 C1206 0.930 . S
H1198 C1208 0.930 . S
H1199 C1211 0.929 . S
H1200 C1214 0.930 . S
H1201 C1216 0.960 . S
H1202 C1216 0.960 . S
H1203 C1216 0.960 . S
C1204 H1196 0.929 . S
C1204 C1205 1.377 . S
C1204 C1206 1.384 . S
C1205 C1204 1.377 . S
C1205 C1211 1.390 . S
C1206 H1197 0.930 . S
C1206 C1204 1.384 . S
C1206 C1207 1.372 . S
C1207 C1206 1.372 . S
C1207 C1208 1.400 . S
C1207 C1212 1.490 . S
C1208 H1198 0.930 . S
C1208 C1207 1.400 . S
C1208 C1211 1.386 . S
H1209 C1225 0.930 . S
H1210 C1226 0.931 . S
C1211 H1199 0.929 . S
C1211 C1205 1.390 . S
C1211 C1208 1.386 . S
C1212 C1207 1.490 . S
C1212 C1214 1.395 . S
C1212 C1215 1.403 . S
H1213 C1219 0.930 . S
C1214 H1200 0.930 . S
C1214 C1212 1.395 . S
C1214 C1217 1.403 . S
C1215 C1212 1.403 . S
C1215 C1216 1.524 . S
C1215 C1219 1.400 . S
C1216 H1201 0.960 . S
C1216 H1202 0.960 . S
C1216 H1203 0.960 . S
C1216 C1215 1.524 . S
C1217 C1214 1.403 . S
C1217 C1218 1.392 . S
C1217 C1221 1.495 . S
C1218 C1217 1.392 . S
C1218 C1219 1.385 . S
C1218 C1220 1.478 . S
C1219 H1213 0.930 . S
C1219 C1215 1.400 . S
C1219 C1218 1.385 . S
C1220 C1218 1.478 . S
C1220 C1222 1.381 . S
C1220 C1226 1.383 . S
C1221 C1217 1.495 . S
C1221 H1227 0.959 . S
C1221 H1228 0.961 . S
C1221 H1229 0.960 . S
C1222 C1220 1.381 . S
C1222 C1223 1.394 . S
C1222 H1230 0.930 . S
C1223 C1222 1.394 . S
C1223 C1224 1.383 . S
C1223 H1231 0.929 . S
C1224 C1223 1.383 . S
C1224 C1225 1.377 . S
C1225 H1209 0.930 . S
C1225 C1224 1.377 . S
C1225 C1226 1.379 . S
C1226 H1210 0.931 . S
C1226 C1220 1.383 . S
C1226 C1225 1.379 . S
H1227 C1221 0.959 . S
H1228 C1221 0.961 . S
H1229 C1221 0.960 . S
H1230 C1222 0.930 . S
H1231 C1223 0.929 . S
H1232 C1240 0.929 . S
H1233 C1242 0.930 . S
H1234 C1244 0.930 . S
H1235 C1247 0.929 . S
H1236 C1250 0.930 . S
H1237 C1252 0.960 . S
H1238 C1252 0.960 . S
H1239 C1252 0.960 . S
C1240 H1232 0.929 . S
C1240 C1241 1.377 . S
C1240 C1242 1.384 . S
C1241 C1240 1.377 . S
C1241 C1247 1.390 . S
C1242 H1233 0.930 . S
C1242 C1240 1.384 . S
C1242 C1243 1.372 . S
C1243 C1242 1.372 . S
C1243 C1244 1.400 . S
C1243 C1248 1.490 . S
C1244 H1234 0.930 . S
C1244 C1243 1.400 . S
C1244 C1247 1.386 . S
H1245 C1261 0.930 . S
H1246 C1262 0.931 . S
C1247 H1235 0.929 . S
C1247 C1241 1.390 . S
C1247 C1244 1.386 . S
C1248 C1243 1.490 . S
C1248 C1250 1.395 . S
C1248 C1251 1.403 . S
H1249 C1255 0.930 . S
C1250 H1236 0.930 . S
C1250 C1248 1.395 . S
C1250 C1253 1.403 1_445 S
C1251 C1248 1.403 . S
C1251 C1252 1.524 . S
C1251 C1255 1.400 1_445 S
C1252 H1237 0.960 . S
C1252 H1238 0.960 . S
C1252 H1239 0.960 . S
C1252 C1251 1.524 . S
C1253 C1250 1.403 1_665 S
C1253 C1254 1.392 . S
C1253 C1257 1.495 . S
C1254 C1253 1.392 . S
C1254 C1255 1.385 . S
C1254 C1256 1.478 . S
C1255 H1249 0.930 . S
C1255 C1251 1.400 1_665 S
C1255 C1254 1.385 . S
C1256 C1254 1.478 . S
C1256 C1258 1.381 . S
C1256 C1262 1.383 . S
C1257 C1253 1.495 . S
C1257 H1263 0.959 . S
C1257 H1264 0.961 . S
C1257 H1265 0.960 . S
C1258 C1256 1.381 . S
C1258 C1259 1.394 . S
C1258 H1266 0.930 . S
C1259 C1258 1.394 . S
C1259 C1260 1.383 . S
C1259 H1267 0.929 . S
C1260 C1259 1.383 . S
C1260 C1261 1.377 . S
C1261 H1245 0.930 . S
C1261 C1260 1.377 . S
C1261 C1262 1.379 . S
C1262 H1246 0.931 . S
C1262 C1256 1.383 . S
C1262 C1261 1.379 . S
H1263 C1257 0.959 . S
H1264 C1257 0.961 . S
H1265 C1257 0.960 . S
H1266 C1258 0.930 . S
H1267 C1259 0.929 . S
H1268 C1276 0.929 . S
H1269 C1278 0.930 . S
H1270 C1280 0.930 . S
H1271 C1283 0.929 . S
H1272 C1286 0.930 . S
H1273 C1288 0.960 . S
H1274 C1288 0.960 . S
H1275 C1288 0.960 . S
C1276 H1268 0.929 . S
C1276 C1277 1.377 . S
C1276 C1278 1.384 . S
C1277 C1276 1.377 . S
C1277 C1283 1.390 . S
C1278 H1269 0.930 . S
C1278 C1276 1.384 . S
C1278 C1279 1.372 . S
C1279 C1278 1.372 . S
C1279 C1280 1.400 . S
C1279 C1284 1.490 . S
C1280 H1270 0.930 . S
C1280 C1279 1.400 . S
C1280 C1283 1.386 . S
H1281 C1297 0.930 . S
H1282 C1298 0.931 . S
C1283 H1271 0.929 . S
C1283 C1277 1.390 . S
C1283 C1280 1.386 . S
C1284 C1279 1.490 . S
C1284 C1286 1.395 . S
C1284 C1287 1.403 1_655 S
H1285 C1291 0.930 . S
C1286 H1272 0.930 . S
C1286 C1284 1.395 . S
C1286 C1289 1.403 . S
C1287 C1284 1.403 1_455 S
C1287 C1288 1.524 . S
C1287 C1291 1.400 . S
C1288 H1273 0.960 . S
C1288 H1274 0.960 . S
C1288 H1275 0.960 . S
C1288 C1287 1.524 . S
C1289 C1286 1.403 . S
C1289 C1290 1.392 1_655 S
C1289 C1293 1.495 . S
C1290 C1289 1.392 1_455 S
C1290 C1291 1.385 . S
C1290 C1292 1.478 . S
C1291 H1285 0.930 . S
C1291 C1287 1.400 . S
C1291 C1290 1.385 . S
C1292 C1290 1.478 . S
C1292 C1294 1.381 . S
C1292 C1298 1.383 . S
C1293 C1289 1.495 . S
C1293 H1299 0.959 . S
C1293 H1300 0.961 . S
C1293 H1301 0.960 . S
C1294 C1292 1.381 . S
C1294 C1295 1.394 . S
C1294 H1302 0.930 . S
C1295 C1294 1.394 . S
C1295 C1296 1.383 . S
C1295 H1303 0.929 . S
C1296 C1295 1.383 . S
C1296 C1297 1.377 . S
C1297 H1281 0.930 . S
C1297 C1296 1.377 . S
C1297 C1298 1.379 . S
C1298 H1282 0.931 . S
C1298 C1292 1.383 . S
C1298 C1297 1.379 . S
H1299 C1293 0.959 . S
H1300 C1293 0.961 . S
H1301 C1293 0.960 . S
H1302 C1294 0.930 . S
H1303 C1295 0.929 . S
H1304 C1312 0.929 . S
H1305 C1314 0.930 . S
H1306 C1316 0.930 . S
H1307 C1319 0.929 . S
H1308 C1322 0.930 . S
H1309 C1324 0.960 . S
H1310 C1324 0.960 . S
H1311 C1324 0.960 . S
C1312 H1304 0.929 . S
C1312 C1313 1.377 . S
C1312 C1314 1.384 . S
C1313 C1312 1.377 . S
C1313 C1319 1.390 . S
C1314 H1305 0.930 . S
C1314 C1312 1.384 . S
C1314 C1315 1.372 . S
C1315 C1314 1.372 . S
C1315 C1316 1.400 . S
C1315 C1320 1.490 . S
C1316 H1306 0.930 . S
C1316 C1315 1.400 . S
C1316 C1319 1.386 . S
H1317 C1333 0.930 . S
H1318 C1334 0.931 . S
C1319 H1307 0.929 . S
C1319 C1313 1.390 . S
C1319 C1316 1.386 . S
C1320 C1315 1.490 . S
C1320 C1322 1.395 . S
C1320 C1323 1.403 . S
H1321 C1327 0.930 . S
C1322 H1308 0.930 . S
C1322 C1320 1.395 . S
C1322 C1325 1.403 . S
C1323 C1320 1.403 . S
C1323 C1324 1.524 . S
C1323 C1327 1.400 . S
C1324 H1309 0.960 . S
C1324 H1310 0.960 . S
C1324 H1311 0.960 . S
C1324 C1323 1.524 . S
C1325 C1322 1.403 . S
C1325 C1326 1.392 . S
C1325 C1329 1.495 . S
C1326 C1325 1.392 . S
C1326 C1327 1.385 . S
C1326 C1328 1.478 . S
C1327 H1321 0.930 . S
C1327 C1323 1.400 . S
C1327 C1326 1.385 . S
C1328 C1326 1.478 . S
C1328 C1330 1.381 . S
C1328 C1334 1.383 . S
C1329 C1325 1.495 . S
C1329 H1335 0.959 . S
C1329 H1336 0.961 . S
C1329 H1337 0.960 . S
C1330 C1328 1.381 . S
C1330 C1331 1.394 . S
C1330 H1338 0.930 . S
C1331 C1330 1.394 . S
C1331 C1332 1.383 . S
C1331 H1339 0.929 . S
C1332 C1331 1.383 . S
C1332 C1333 1.377 . S
C1333 H1317 0.930 . S
C1333 C1332 1.377 . S
C1333 C1334 1.379 . S
C1334 H1318 0.931 . S
C1334 C1328 1.383 . S
C1334 C1333 1.379 . S
H1335 C1329 0.959 . S
H1336 C1329 0.961 . S
H1337 C1329 0.960 . S
H1338 C1330 0.930 . S
H1339 C1331 0.929 . S
H1340 C1348 0.929 . S
H1341 C1350 0.930 . S
H1342 C1352 0.930 . S
H1343 C1355 0.929 . S
H1344 C1358 0.930 . S
H1345 C1360 0.960 . S
H1346 C1360 0.960 . S
H1347 C1360 0.960 . S
C1348 H1340 0.929 . S
C1348 C1349 1.377 . S
C1348 C1350 1.384 . S
C1349 C1348 1.377 . S
C1349 C1355 1.390 . S
C1350 H1341 0.930 . S
C1350 C1348 1.384 . S
C1350 C1351 1.372 . S
C1351 C1350 1.372 . S
C1351 C1352 1.400 . S
C1351 C1356 1.490 . S
C1352 H1342 0.930 . S
C1352 C1351 1.400 . S
C1352 C1355 1.386 . S
H1353 C1369 0.930 . S
H1354 C1370 0.931 . S
C1355 H1343 0.929 . S
C1355 C1349 1.390 . S
C1355 C1352 1.386 . S
C1356 C1351 1.490 . S
C1356 C1358 1.395 . S
C1356 C1359 1.403 . S
H1357 C1363 0.930 . S
C1358 H1344 0.930 . S
C1358 C1356 1.395 . S
C1358 C1361 1.403 1_565 S
C1359 C1356 1.403 . S
C1359 C1360 1.524 . S
C1359 C1363 1.400 1_565 S
C1360 H1345 0.960 . S
C1360 H1346 0.960 . S
C1360 H1347 0.960 . S
C1360 C1359 1.524 . S
C1361 C1358 1.403 1_545 S
C1361 C1362 1.392 . S
C1361 C1365 1.495 . S
C1362 C1361 1.392 . S
C1362 C1363 1.385 . S
C1362 C1364 1.478 . S
C1363 H1357 0.930 . S
C1363 C1359 1.400 1_545 S
C1363 C1362 1.385 . S
C1364 C1362 1.478 . S
C1364 C1366 1.381 . S
C1364 C1370 1.383 . S
C1365 C1361 1.495 . S
C1365 H1371 0.959 . S
C1365 H1372 0.961 . S
C1365 H1373 0.960 . S
C1366 C1364 1.381 . S
C1366 C1367 1.394 . S
C1366 H1374 0.930 . S
C1367 C1366 1.394 . S
C1367 C1368 1.383 . S
C1367 H1375 0.929 . S
C1368 C1367 1.383 . S
C1368 C1369 1.377 . S
C1369 H1353 0.930 . S
C1369 C1368 1.377 . S
C1369 C1370 1.379 . S
C1370 H1354 0.931 . S
C1370 C1364 1.383 . S
C1370 C1369 1.379 . S
H1371 C1365 0.959 . S
H1372 C1365 0.961 . S
H1373 C1365 0.960 . S
H1374 C1366 0.930 . S
H1375 C1367 0.929 . S
H1376 C1384 0.929 . S
H1377 C1386 0.930 . S
H1378 C1388 0.930 . S
H1379 C1391 0.929 . S
H1380 C1394 0.930 . S
H1381 C1396 0.960 . S
H1382 C1396 0.960 . S
H1383 C1396 0.960 . S
C1384 H1376 0.929 . S
C1384 C1385 1.377 1_556 S
C1384 C1386 1.384 . S
C1385 C1384 1.377 1_554 S
C1385 C1391 1.390 . S
C1386 H1377 0.930 . S
C1386 C1384 1.384 . S
C1386 C1387 1.372 1_556 S
C1387 C1386 1.372 1_554 S
C1387 C1388 1.400 . S
C1387 C1392 1.490 . S
C1388 H1378 0.930 . S
C1388 C1387 1.400 . S
C1388 C1391 1.386 . S
H1389 C1405 0.930 . S
H1390 C1406 0.931 . S
C1391 H1379 0.929 . S
C1391 C1385 1.390 . S
C1391 C1388 1.386 . S
C1392 C1387 1.490 . S
C1392 C1394 1.395 . S
C1392 C1395 1.403 1_554 S
H1393 C1399 0.930 . S
C1394 H1380 0.930 . S
C1394 C1392 1.395 . S
C1394 C1397 1.403 1_455 S
C1395 C1392 1.403 1_556 S
C1395 C1396 1.524 . S
C1395 C1399 1.400 1_455 S
C1396 H1381 0.960 . S
C1396 H1382 0.960 . S
C1396 H1383 0.960 . S
C1396 C1395 1.524 . S
C1397 C1394 1.403 1_655 S
C1397 C1398 1.392 . S
C1397 C1401 1.495 . S
C1398 C1397 1.392 . S
C1398 C1399 1.385 1_554 S
C1398 C1400 1.478 . S
C1399 H1393 0.930 . S
C1399 C1395 1.400 1_655 S
C1399 C1398 1.385 1_556 S
C1400 C1398 1.478 . S
C1400 C1402 1.381 . S
C1400 C1406 1.383 . S
C1401 C1397 1.495 . S
C1401 H1407 0.959 . S
C1401 H1408 0.961 . S
C1401 H1409 0.960 . S
C1402 C1400 1.381 . S
C1402 C1403 1.394 1_554 S
C1402 H1410 0.930 1_554 S
C1403 C1402 1.394 1_556 S
C1403 C1404 1.383 1_556 S
C1403 H1411 0.929 . S
C1404 C1403 1.383 1_554 S
C1404 C1405 1.377 . S
C1405 H1389 0.930 . S
C1405 C1404 1.377 . S
C1405 C1406 1.379 . S
C1406 H1390 0.931 . S
C1406 C1400 1.383 . S
C1406 C1405 1.379 . S
H1407 C1401 0.959 . S
H1408 C1401 0.961 . S
H1409 C1401 0.960 . S
H1410 C1402 0.930 1_556 S
H1411 C1403 0.929 . S
H1412 C1420 0.929 . S
H1413 C1422 0.930 . S
H1414 C1424 0.930 . S
H1415 C1427 0.929 . S
H1416 C1430 0.930 . S
H1417 C1432 0.960 . S
H1418 C1432 0.960 . S
H1419 C1432 0.960 . S
C1420 H1412 0.929 . S
C1420 C1421 1.377 . S
C1420 C1422 1.384 . S
C1421 C1420 1.377 . S
C1421 C1427 1.390 . S
C1422 H1413 0.930 . S
C1422 C1420 1.384 . S
C1422 C1423 1.372 . S
C1423 C1422 1.372 . S
C1423 C1424 1.400 . S
C1423 C1428 1.490 . S
C1424 H1414 0.930 . S
C1424 C1423 1.400 . S
C1424 C1427 1.386 . S
H1425 C1441 0.930 . S
H1426 C1442 0.931 . S
C1427 H1415 0.929 . S
C1427 C1421 1.390 . S
C1427 C1424 1.386 . S
C1428 C1423 1.490 . S
C1428 C1430 1.395 . S
C1428 C1431 1.403 . S
H1429 C1435 0.930 . S
C1430 H1416 0.930 . S
C1430 C1428 1.395 . S
C1430 C1433 1.403 . S
C1431 C1428 1.403 . S
C1431 C1432 1.524 . S
C1431 C1435 1.400 . S
C1432 H1417 0.960 . S
C1432 H1418 0.960 . S
C1432 H1419 0.960 . S
C1432 C1431 1.524 . S
C1433 C1430 1.403 . S
C1433 C1434 1.392 . S
C1433 C1437 1.495 . S
C1434 C1433 1.392 . S
C1434 C1435 1.385 . S
C1434 C1436 1.478 . S
C1435 H1429 0.930 . S
C1435 C1431 1.400 . S
C1435 C1434 1.385 . S
C1436 C1434 1.478 . S
C1436 C1438 1.381 . S
C1436 C1442 1.383 . S
C1437 C1433 1.495 . S
C1437 H1443 0.959 . S
C1437 H1444 0.961 . S
C1437 H1445 0.960 . S
C1438 C1436 1.381 . S
C1438 C1439 1.394 . S
C1438 H1446 0.930 . S
C1439 C1438 1.394 . S
C1439 C1440 1.383 . S
C1439 H1447 0.929 . S
C1440 C1439 1.383 . S
C1440 C1441 1.377 . S
C1441 H1425 0.930 . S
C1441 C1440 1.377 . S
C1441 C1442 1.379 . S
C1442 H1426 0.931 . S
C1442 C1436 1.383 . S
C1442 C1441 1.379 . S
H1443 C1437 0.959 . S
H1444 C1437 0.961 . S
H1445 C1437 0.960 . S
H1446 C1438 0.930 . S
H1447 C1439 0.929 . S
H1448 C1456 0.929 . S
H1449 C1458 0.930 . S
H1450 C1460 0.930 . S
H1451 C1463 0.929 . S
H1452 C1466 0.930 . S
H1453 C1468 0.960 . S
H1454 C1468 0.960 . S
H1455 C1468 0.960 . S
C1456 H1448 0.929 . S
C1456 C1457 1.377 . S
C1456 C1458 1.384 . S
C1457 C1456 1.377 . S
C1457 C1463 1.390 . S
C1458 H1449 0.930 . S
C1458 C1456 1.384 . S
C1458 C1459 1.372 . S
C1459 C1458 1.372 . S
C1459 C1460 1.400 . S
C1459 C1464 1.490 . S
C1460 H1450 0.930 . S
C1460 C1459 1.400 . S
C1460 C1463 1.386 . S
H1461 C1477 0.930 . S
H1462 C1478 0.931 . S
C1463 H1451 0.929 . S
C1463 C1457 1.390 . S
C1463 C1460 1.386 . S
C1464 C1459 1.490 . S
C1464 C1466 1.395 . S
C1464 C1467 1.403 1_545 S
H1465 C1471 0.930 . S
C1466 H1452 0.930 . S
C1466 C1464 1.395 . S
C1466 C1469 1.403 . S
C1467 C1464 1.403 1_565 S
C1467 C1468 1.524 . S
C1467 C1471 1.400 . S
C1468 H1453 0.960 . S
C1468 H1454 0.960 . S
C1468 H1455 0.960 . S
C1468 C1467 1.524 . S
C1469 C1466 1.403 . S
C1469 C1470 1.392 1_545 S
C1469 C1473 1.495 . S
C1470 C1469 1.392 1_565 S
C1470 C1471 1.385 . S
C1470 C1472 1.478 . S
C1471 H1465 0.930 . S
C1471 C1467 1.400 . S
C1471 C1470 1.385 . S
C1472 C1470 1.478 . S
C1472 C1474 1.381 . S
C1472 C1478 1.383 . S
C1473 C1469 1.495 . S
C1473 H1479 0.959 . S
C1473 H1480 0.961 . S
C1473 H1481 0.960 . S
C1474 C1472 1.381 . S
C1474 C1475 1.394 . S
C1474 H1482 0.930 . S
C1475 C1474 1.394 . S
C1475 C1476 1.383 . S
C1475 H1483 0.929 . S
C1476 C1475 1.383 . S
C1476 C1477 1.377 . S
C1477 H1461 0.930 . S
C1477 C1476 1.377 . S
C1477 C1478 1.379 . S
C1478 H1462 0.931 . S
C1478 C1472 1.383 . S
C1478 C1477 1.379 . S
H1479 C1473 0.959 . S
H1480 C1473 0.961 . S
H1481 C1473 0.960 . S
H1482 C1474 0.930 . S
H1483 C1475 0.929 . S
H1484 C1492 0.929 . S
H1485 C1494 0.930 . S
H1486 C1496 0.930 . S
H1487 C1499 0.929 . S
H1488 C1502 0.930 . S
H1489 C1504 0.964 . S
H1490 C1504 0.959 1_545 S
H1491 C1504 0.958 1_545 S
C1492 H1484 0.929 . S
C1492 C1493 1.377 . S
C1492 C1494 1.384 . S
C1493 C1492 1.377 . S
C1493 C1499 1.390 . S
C1494 H1485 0.930 . S
C1494 C1492 1.384 . S
C1494 C1495 1.372 . S
C1495 C1494 1.372 . S
C1495 C1496 1.400 . S
C1495 C1500 1.490 . S
C1496 H1486 0.930 . S
C1496 C1495 1.400 . S
C1496 C1499 1.386 . S
H1497 C1513 0.930 . S
H1498 C1514 0.931 . S
C1499 H1487 0.929 . S
C1499 C1493 1.390 . S
C1499 C1496 1.386 . S
C1500 C1495 1.490 . S
C1500 C1502 1.395 1_455 S
C1500 C1503 1.445 . S
H1501 C1507 0.930 . S
C1502 H1488 0.930 . S
C1502 C1500 1.395 1_655 S
C1502 C1505 1.415 . S
C1503 C1500 1.445 . S
C1503 C1504 1.522 1_545 S
C1503 C1507 1.359 1_545 S
C1504 H1489 0.964 . S
C1504 H1490 0.959 1_565 S
C1504 H1491 0.958 1_565 S
C1504 C1503 1.522 1_565 S
C1505 C1502 1.415 . S
C1505 C1506 1.381 1_545 S
C1505 C1509 1.495 . S
C1506 C1505 1.381 1_565 S
C1506 C1507 1.385 1_655 S
C1506 C1508 1.478 . S
C1507 H1501 0.930 . S
C1507 C1503 1.359 1_565 S
C1507 C1506 1.385 1_455 S
C1508 C1506 1.478 . S
C1508 C1510 1.381 . S
C1508 C1514 1.383 . S
C1509 C1505 1.495 . S
C1509 H1515 1.002 . S
C1509 H1516 0.950 1_545 S
C1509 H1517 0.930 1_545 S
C1510 C1508 1.381 . S
C1510 C1511 1.394 . S
C1510 H1518 0.930 . S
C1511 C1510 1.394 . S
C1511 C1512 1.383 . S
C1511 H1519 0.929 . S
C1512 C1511 1.383 . S
C1512 C1513 1.377 . S
C1513 H1497 0.930 . S
C1513 C1512 1.377 . S
C1513 C1514 1.379 . S
C1514 H1498 0.931 . S
C1514 C1508 1.383 . S
C1514 C1513 1.379 . S
H1515 C1509 1.002 . S
H1516 C1509 0.950 1_565 S
H1517 C1509 0.930 1_565 S
H1518 C1510 0.930 . S
H1519 C1511 0.929 . S
H1520 C1528 0.929 . S
H1521 C1530 0.930 . S
H1522 C1532 0.930 . S
H1523 C1535 0.929 . S
H1524 C1538 0.930 . S
H1525 C1540 0.960 . S
H1526 C1540 0.960 . S
H1527 C1540 0.960 . S
C1528 H1520 0.929 . S
C1528 C1529 1.377 . S
C1528 C1530 1.384 . S
C1529 C1528 1.377 . S
C1529 C1535 1.390 . S
C1530 H1521 0.930 . S
C1530 C1528 1.384 . S
C1530 C1531 1.372 . S
C1531 C1530 1.372 . S
C1531 C1532 1.400 . S
C1531 C1536 1.490 . S
C1532 H1522 0.930 . S
C1532 C1531 1.400 . S
C1532 C1535 1.386 . S
H1533 C1549 0.930 . S
H1534 C1550 0.931 . S
C1535 H1523 0.929 . S
C1535 C1529 1.390 . S
C1535 C1532 1.386 . S
C1536 C1531 1.490 . S
C1536 C1538 1.395 . S
C1536 C1539 1.403 . S
H1537 C1543 0.930 . S
C1538 H1524 0.930 . S
C1538 C1536 1.395 . S
C1538 C1541 1.403 . S
C1539 C1536 1.403 . S
C1539 C1540 1.524 . S
C1539 C1543 1.400 . S
C1540 H1525 0.960 . S
C1540 H1526 0.960 . S
C1540 H1527 0.960 . S
C1540 C1539 1.524 . S
C1541 C1538 1.403 . S
C1541 C1542 1.392 . S
C1541 C1545 1.495 . S
C1542 C1541 1.392 . S
C1542 C1543 1.385 . S
C1542 C1544 1.478 . S
C1543 H1537 0.930 . S
C1543 C1539 1.400 . S
C1543 C1542 1.385 . S
C1544 C1542 1.478 . S
C1544 C1546 1.381 . S
C1544 C1550 1.383 . S
C1545 C1541 1.495 . S
C1545 H1551 0.959 . S
C1545 H1552 0.961 . S
C1545 H1553 0.960 . S
C1546 C1544 1.381 . S
C1546 C1547 1.394 . S
C1546 H1554 0.930 . S
C1547 C1546 1.394 . S
C1547 C1548 1.383 . S
C1547 H1555 0.929 . S
C1548 C1547 1.383 . S
C1548 C1549 1.377 . S
C1549 H1533 0.930 . S
C1549 C1548 1.377 . S
C1549 C1550 1.379 . S
C1550 H1534 0.931 . S
C1550 C1544 1.383 . S
C1550 C1549 1.379 . S
H1551 C1545 0.959 . S
H1552 C1545 0.961 . S
H1553 C1545 0.960 . S
H1554 C1546 0.930 . S
H1555 C1547 0.929 . S
H1556 C1564 0.929 . S
H1557 C1566 0.930 . S
H1558 C1568 0.930 . S
H1559 C1571 0.929 . S
H1560 C1574 0.930 . S
H1561 C1576 0.960 . S
H1562 C1576 0.960 . S
H1563 C1576 0.960 . S
C1564 H1556 0.929 . S
C1564 C1565 1.377 . S
C1564 C1566 1.384 . S
C1565 C1564 1.377 . S
C1565 C1571 1.390 . S
C1566 H1557 0.930 . S
C1566 C1564 1.384 . S
C1566 C1567 1.372 . S
C1567 C1566 1.372 . S
C1567 C1568 1.400 . S
C1567 C1572 1.490 . S
C1568 H1558 0.930 . S
C1568 C1567 1.400 . S
C1568 C1571 1.386 . S
H1569 C1585 0.930 . S
H1570 C1586 0.931 . S
C1571 H1559 0.929 . S
C1571 C1565 1.390 . S
C1571 C1568 1.386 . S
C1572 C1567 1.490 . S
C1572 C1574 1.395 . S
C1572 C1575 1.403 . S
H1573 C1579 0.930 . S
C1574 H1560 0.930 . S
C1574 C1572 1.395 . S
C1574 C1577 1.403 . S
C1575 C1572 1.403 . S
C1575 C1576 1.524 . S
C1575 C1579 1.400 . S
C1576 H1561 0.960 . S
C1576 H1562 0.960 . S
C1576 H1563 0.960 . S
C1576 C1575 1.524 . S
C1577 C1574 1.403 . S
C1577 C1578 1.392 . S
C1577 C1581 1.495 . S
C1578 C1577 1.392 . S
C1578 C1579 1.385 . S
C1578 C1580 1.478 . S
C1579 H1573 0.930 . S
C1579 C1575 1.400 . S
C1579 C1578 1.385 . S
C1580 C1578 1.478 . S
C1580 C1582 1.381 . S
C1580 C1586 1.383 . S
C1581 C1577 1.495 . S
C1581 H1587 0.959 . S
C1581 H1588 0.961 . S
C1581 H1589 0.960 . S
C1582 C1580 1.381 . S
C1582 C1583 1.394 . S
C1582 H1590 0.930 . S
C1583 C1582 1.394 . S
C1583 C1584 1.383 . S
C1583 H1591 0.929 . S
C1584 C1583 1.383 . S
C1584 C1585 1.377 . S
C1585 H1569 0.930 . S
C1585 C1584 1.377 . S
C1585 C1586 1.379 . S
C1586 H1570 0.931 . S
C1586 C1580 1.383 . S
C1586 C1585 1.379 . S
H1587 C1581 0.959 . S
H1588 C1581 0.961 . S
H1589 C1581 0.960 . S
H1590 C1582 0.930 . S
H1591 C1583 0.929 . S
H1592 C1600 0.929 . S
H1593 C1602 0.930 . S
H1594 C1604 0.930 . S
H1595 C1607 0.929 . S
H1596 C1610 0.930 . S
H1597 C1612 0.960 . S
H1598 C1612 0.960 . S
H1599 C1612 0.960 . S
C1600 H1592 0.929 . S
C1600 C1601 1.377 . S
C1600 C1602 1.384 . S
C1601 C1600 1.377 . S
C1601 C1607 1.390 . S
C1602 H1593 0.930 . S
C1602 C1600 1.384 . S
C1602 C1603 1.372 . S
C1603 C1602 1.372 . S
C1603 C1604 1.400 . S
C1603 C1608 1.490 . S
C1604 H1594 0.930 . S
C1604 C1603 1.400 . S
C1604 C1607 1.386 . S
H1605 C1621 0.930 . S
H1606 C1622 0.931 . S
C1607 H1595 0.929 . S
C1607 C1601 1.390 . S
C1607 C1604 1.386 . S
C1608 C1603 1.490 . S
C1608 C1610 1.395 . S
C1608 C1611 1.403 . S
H1609 C1615 0.930 . S
C1610 H1596 0.930 . S
C1610 C1608 1.395 . S
C1610 C1613 1.403 . S
C1611 C1608 1.403 . S
C1611 C1612 1.524 . S
C1611 C1615 1.400 . S
C1612 H1597 0.960 . S
C1612 H1598 0.960 . S
C1612 H1599 0.960 . S
C1612 C1611 1.524 . S
C1613 C1610 1.403 . S
C1613 C1614 1.392 . S
C1613 C1617 1.493 1_554 S
C1614 C1613 1.392 . S
C1614 C1615 1.385 . S
C1614 C1616 1.478 1_554 S
C1615 H1609 0.930 . S
C1615 C1611 1.400 . S
C1615 C1614 1.385 . S
C1616 C1614 1.478 1_556 S
C1616 C1618 1.381 . S
C1616 C1622 1.383 . S
C1617 C1613 1.493 1_556 S
C1617 H1623 0.957 1_556 S
C1617 H1624 0.964 . S
C1617 H1625 0.961 . S
C1618 C1616 1.381 . S
C1618 C1619 1.394 . S
C1618 H1626 0.930 . S
C1619 C1618 1.394 . S
C1619 C1620 1.383 . S
C1619 H1627 0.929 . S
C1620 C1619 1.383 . S
C1620 C1621 1.377 . S
C1621 H1605 0.930 . S
C1621 C1620 1.377 . S
C1621 C1622 1.379 . S
C1622 H1606 0.931 . S
C1622 C1616 1.383 . S
C1622 C1621 1.379 . S
H1623 C1617 0.957 1_554 S
H1624 C1617 0.964 . S
H1625 C1617 0.961 . S
H1626 C1618 0.930 . S
H1627 C1619 0.929 . S
H1628 C1636 0.929 . S
H1629 C1638 0.930 . S
H1630 C1640 0.930 . S
H1631 C1643 0.929 . S
H1632 C1646 0.930 . S
H1633 C1648 0.960 . S
H1634 C1648 0.960 . S
H1635 C1648 0.960 . S
C1636 H1628 0.929 . S
C1636 C1637 1.377 . S
C1636 C1638 1.384 . S
C1637 C1636 1.377 . S
C1637 C1643 1.390 . S
C1638 H1629 0.930 . S
C1638 C1636 1.384 . S
C1638 C1639 1.372 . S
C1639 C1638 1.372 . S
C1639 C1640 1.400 . S
C1639 C1644 1.490 . S
C1640 H1630 0.930 . S
C1640 C1639 1.400 . S
C1640 C1643 1.386 . S
H1641 C1657 0.930 . S
H1642 C1658 0.931 . S
C1643 H1631 0.929 . S
C1643 C1637 1.390 . S
C1643 C1640 1.386 . S
C1644 C1639 1.490 . S
C1644 C1646 1.395 . S
C1644 C1647 1.403 . S
H1645 C1651 0.930 . S
C1646 H1632 0.930 . S
C1646 C1644 1.395 . S
C1646 C1649 1.403 . S
C1647 C1644 1.403 . S
C1647 C1648 1.524 . S
C1647 C1651 1.400 . S
C1648 H1633 0.960 . S
C1648 H1634 0.960 . S
C1648 H1635 0.960 . S
C1648 C1647 1.524 . S
C1649 C1646 1.403 . S
C1649 C1650 1.392 . S
C1649 C1653 1.495 . S
C1650 C1649 1.392 . S
C1650 C1651 1.385 . S
C1650 C1652 1.478 . S
C1651 H1645 0.930 . S
C1651 C1647 1.400 . S
C1651 C1650 1.385 . S
C1652 C1650 1.478 . S
C1652 C1654 1.381 . S
C1652 C1658 1.383 . S
C1653 C1649 1.495 . S
C1653 H1659 0.959 . S
C1653 H1660 0.961 . S
C1653 H1661 0.960 . S
C1654 C1652 1.381 . S
C1654 C1655 1.394 . S
C1654 H1662 0.930 . S
C1655 C1654 1.394 . S
C1655 C1656 1.383 . S
C1655 H1663 0.929 . S
C1656 C1655 1.383 . S
C1656 C1657 1.377 . S
C1657 H1641 0.930 . S
C1657 C1656 1.377 . S
C1657 C1658 1.379 . S
C1658 H1642 0.931 . S
C1658 C1652 1.383 . S
C1658 C1657 1.379 . S
H1659 C1653 0.959 . S
H1660 C1653 0.961 . S
H1661 C1653 0.960 . S
H1662 C1654 0.930 . S
H1663 C1655 0.929 . S
H1664 C1672 0.929 . S
H1665 C1674 0.930 . S
H1666 C1676 0.930 . S
H1667 C1679 0.929 . S
H1668 C1682 0.930 . S
H1669 C1684 0.960 . S
H1670 C1684 0.960 . S
H1671 C1684 0.960 . S
C1672 H1664 0.929 . S
C1672 C1673 1.377 . S
C1672 C1674 1.384 . S
C1673 C1672 1.377 . S
C1673 C1679 1.390 . S
C1674 H1665 0.930 . S
C1674 C1672 1.384 . S
C1674 C1675 1.372 . S
C1675 C1674 1.372 . S
C1675 C1676 1.400 . S
C1675 C1680 1.490 . S
C1676 H1666 0.930 . S
C1676 C1675 1.400 . S
C1676 C1679 1.386 . S
H1677 C1693 0.930 . S
H1678 C1694 0.931 . S
C1679 H1667 0.929 . S
C1679 C1673 1.390 . S
C1679 C1676 1.386 . S
C1680 C1675 1.490 . S
C1680 C1682 1.395 . S
C1680 C1683 1.403 . S
H1681 C1687 0.930 . S
C1682 H1668 0.930 . S
C1682 C1680 1.395 . S
C1682 C1685 1.403 . S
C1683 C1680 1.403 . S
C1683 C1684 1.524 . S
C1683 C1687 1.400 . S
C1684 H1669 0.960 . S
C1684 H1670 0.960 . S
C1684 H1671 0.960 . S
C1684 C1683 1.524 . S
C1685 C1682 1.403 . S
C1685 C1686 1.392 . S
C1685 C1689 1.495 . S
C1686 C1685 1.392 . S
C1686 C1687 1.385 . S
C1686 C1688 1.478 . S
C1687 H1681 0.930 . S
C1687 C1683 1.400 . S
C1687 C1686 1.385 . S
C1688 C1686 1.478 . S
C1688 C1690 1.381 . S
C1688 C1694 1.383 . S
C1689 C1685 1.495 . S
C1689 H1695 0.959 . S
C1689 H1696 0.961 . S
C1689 H1697 0.960 . S
C1690 C1688 1.381 . S
C1690 C1691 1.394 . S
C1690 H1698 0.930 . S
C1691 C1690 1.394 . S
C1691 C1692 1.383 . S
C1691 H1699 0.929 . S
C1692 C1691 1.383 . S
C1692 C1693 1.377 . S
C1693 H1677 0.930 . S
C1693 C1692 1.377 . S
C1693 C1694 1.379 . S
C1694 H1678 0.931 . S
C1694 C1688 1.383 . S
C1694 C1693 1.379 . S
H1695 C1689 0.959 . S
H1696 C1689 0.961 . S
H1697 C1689 0.960 . S
H1698 C1690 0.930 . S
H1699 C1691 0.929 . S
H1700 C1708 0.929 . S
H1701 C1710 0.930 . S
H1702 C1712 0.930 . S
H1703 C1715 0.929 . S
H1704 C1718 0.930 . S
H1705 C1720 0.960 . S
H1706 C1720 0.960 . S
H1707 C1720 0.960 . S
C1708 H1700 0.929 . S
C1708 C1709 1.377 . S
C1708 C1710 1.384 . S
C1709 C1708 1.377 . S
C1709 C1715 1.390 . S
C1710 H1701 0.930 . S
C1710 C1708 1.384 . S
C1710 C1711 1.372 . S
C1711 C1710 1.372 . S
C1711 C1712 1.400 . S
C1711 C1716 1.490 . S
C1712 H1702 0.930 . S
C1712 C1711 1.400 . S
C1712 C1715 1.386 . S
H1713 C1729 0.930 . S
H1714 C1730 0.931 . S
C1715 H1703 0.929 . S
C1715 C1709 1.390 . S
C1715 C1712 1.386 . S
C1716 C1711 1.490 . S
C1716 C1718 1.395 . S
C1716 C1719 1.403 . S
H1717 C1723 0.930 . S
C1718 H1704 0.930 . S
C1718 C1716 1.395 . S
C1718 C1721 1.403 . S
C1719 C1716 1.403 . S
C1719 C1720 1.524 . S
C1719 C1723 1.400 . S
C1720 H1705 0.960 . S
C1720 H1706 0.960 . S
C1720 H1707 0.960 . S
C1720 C1719 1.524 . S
C1721 C1718 1.403 . S
C1721 C1722 1.392 . S
C1721 C1725 1.495 1_554 S
C1722 C1721 1.392 . S
C1722 C1723 1.385 . S
C1722 C1724 1.478 1_554 S
C1723 H1717 0.930 . S
C1723 C1719 1.400 . S
C1723 C1722 1.385 . S
C1724 C1722 1.478 1_556 S
C1724 C1726 1.381 . S
C1724 C1730 1.383 . S
C1725 C1721 1.495 1_556 S
C1725 H1731 0.959 1_556 S
C1725 H1732 0.961 . S
C1725 H1733 0.960 . S
C1726 C1724 1.381 . S
C1726 C1727 1.394 . S
C1726 H1734 0.930 . S
C1727 C1726 1.394 . S
C1727 C1728 1.383 . S
C1727 H1735 0.929 . S
C1728 C1727 1.383 . S
C1728 C1729 1.377 . S
C1729 H1713 0.930 . S
C1729 C1728 1.377 . S
C1729 C1730 1.379 . S
C1730 H1714 0.931 . S
C1730 C1724 1.383 . S
C1730 C1729 1.379 . S
H1731 C1725 0.959 1_554 S
H1732 C1725 0.961 . S
H1733 C1725 0.960 . S
H1734 C1726 0.930 . S
H1735 C1727 0.929 . S
H1736 C1744 0.929 . S
H1737 C1746 0.930 . S
H1738 C1748 0.930 . S
H1739 C1751 0.929 . S
H1740 C1754 0.930 . S
H1741 C1756 0.960 . S
H1742 C1756 0.960 . S
H1743 C1756 0.960 . S
C1744 H1736 0.929 . S
C1744 C1745 1.377 . S
C1744 C1746 1.384 . S
C1745 C1744 1.377 . S
C1745 C1751 1.390 . S
C1746 H1737 0.930 . S
C1746 C1744 1.384 . S
C1746 C1747 1.372 . S
C1747 C1746 1.372 . S
C1747 C1748 1.400 . S
C1747 C1752 1.490 . S
C1748 H1738 0.930 . S
C1748 C1747 1.400 . S
C1748 C1751 1.386 . S
H1749 C1765 0.930 . S
H1750 C1766 0.931 . S
C1751 H1739 0.929 . S
C1751 C1745 1.390 . S
C1751 C1748 1.386 . S
C1752 C1747 1.490 . S
C1752 C1754 1.395 . S
C1752 C1755 1.403 . S
H1753 C1759 0.930 . S
C1754 H1740 0.930 . S
C1754 C1752 1.395 . S
C1754 C1757 1.403 . S
C1755 C1752 1.403 . S
C1755 C1756 1.524 . S
C1755 C1759 1.400 . S
C1756 H1741 0.960 . S
C1756 H1742 0.960 . S
C1756 H1743 0.960 . S
C1756 C1755 1.524 . S
C1757 C1754 1.403 . S
C1757 C1758 1.392 . S
C1757 C1761 1.495 . S
C1758 C1757 1.392 . S
C1758 C1759 1.385 . S
C1758 C1760 1.478 . S
C1759 H1753 0.930 . S
C1759 C1755 1.400 . S
C1759 C1758 1.385 . S
C1760 C1758 1.478 . S
C1760 C1762 1.381 . S
C1760 C1766 1.383 . S
C1761 C1757 1.495 . S
C1761 H1767 0.959 . S
C1761 H1768 0.961 . S
C1761 H1769 0.960 . S
C1762 C1760 1.381 . S
C1762 C1763 1.394 . S
C1762 H1770 0.930 . S
C1763 C1762 1.394 . S
C1763 C1764 1.383 . S
C1763 H1771 0.929 . S
C1764 C1763 1.383 . S
C1764 C1765 1.377 . S
C1765 H1749 0.930 . S
C1765 C1764 1.377 . S
C1765 C1766 1.379 . S
C1766 H1750 0.931 . S
C1766 C1760 1.383 . S
C1766 C1765 1.379 . S
H1767 C1761 0.959 . S
H1768 C1761 0.961 . S
H1769 C1761 0.960 . S
H1770 C1762 0.930 . S
H1771 C1763 0.929 . S
H1772 C1780 0.929 . S
H1773 C1782 0.930 . S
H1774 C1784 0.930 . S
H1775 C1787 0.929 . S
H1776 C1790 0.930 . S
H1777 C1792 0.960 . S
H1778 C1792 0.960 . S
H1779 C1792 0.960 . S
C1780 H1772 0.929 . S
C1780 C1781 1.377 . S
C1780 C1782 1.384 . S
C1781 C1780 1.377 . S
C1781 C1787 1.390 . S
C1782 H1773 0.930 . S
C1782 C1780 1.384 . S
C1782 C1783 1.372 . S
C1783 C1782 1.372 . S
C1783 C1784 1.400 . S
C1783 C1788 1.490 . S
C1784 H1774 0.930 . S
C1784 C1783 1.400 . S
C1784 C1787 1.386 . S
H1785 C1801 0.930 . S
H1786 C1802 0.931 . S
C1787 H1775 0.929 . S
C1787 C1781 1.390 . S
C1787 C1784 1.386 . S
C1788 C1783 1.490 . S
C1788 C1790 1.395 . S
C1788 C1791 1.403 . S
H1789 C1795 0.930 . S
C1790 H1776 0.930 . S
C1790 C1788 1.395 . S
C1790 C1793 1.403 . S
C1791 C1788 1.403 . S
C1791 C1792 1.524 . S
C1791 C1795 1.400 . S
C1792 H1777 0.960 . S
C1792 H1778 0.960 . S
C1792 H1779 0.960 . S
C1792 C1791 1.524 . S
C1793 C1790 1.403 . S
C1793 C1794 1.392 . S
C1793 C1797 1.495 . S
C1794 C1793 1.392 . S
C1794 C1795 1.385 . S
C1794 C1796 1.478 . S
C1795 H1789 0.930 . S
C1795 C1791 1.400 . S
C1795 C1794 1.385 . S
C1796 C1794 1.478 . S
C1796 C1798 1.381 . S
C1796 C1802 1.383 . S
C1797 C1793 1.495 . S
C1797 H1803 0.959 . S
C1797 H1804 0.961 . S
C1797 H1805 0.960 . S
C1798 C1796 1.381 . S
C1798 C1799 1.394 . S
C1798 H1806 0.930 . S
C1799 C1798 1.394 . S
C1799 C1800 1.383 . S
C1799 H1807 0.929 . S
C1800 C1799 1.383 . S
C1800 C1801 1.377 . S
C1801 H1785 0.930 . S
C1801 C1800 1.377 . S
C1801 C1802 1.379 . S
C1802 H1786 0.931 . S
C1802 C1796 1.383 . S
C1802 C1801 1.379 . S
H1803 C1797 0.959 . S
H1804 C1797 0.961 . S
H1805 C1797 0.960 . S
H1806 C1798 0.930 . S
H1807 C1799 0.929 . S
H1808 C1816 0.929 . S
H1809 C1818 0.930 . S
H1810 C1820 0.930 . S
H1811 C1823 0.929 . S
H1812 C1826 0.930 . S
H1813 C1828 0.960 . S
H1814 C1828 0.962 . S
H1815 C1828 0.960 1_556 S
C1816 H1808 0.929 . S
C1816 C1817 1.377 . S
C1816 C1818 1.384 . S
C1817 C1816 1.377 . S
C1817 C1823 1.390 . S
C1818 H1809 0.930 . S
C1818 C1816 1.384 . S
C1818 C1819 1.372 . S
C1819 C1818 1.372 . S
C1819 C1820 1.400 . S
C1819 C1824 1.490 1_556 S
C1820 H1810 0.930 . S
C1820 C1819 1.400 . S
C1820 C1823 1.386 . S
H1821 C1837 0.930 . S
H1822 C1838 0.931 . S
C1823 H1811 0.929 . S
C1823 C1817 1.390 . S
C1823 C1820 1.386 . S
C1824 C1819 1.490 1_554 S
C1824 C1826 1.395 . S
C1824 C1827 1.403 . S
H1825 C1831 0.930 . S
C1826 H1812 0.930 . S
C1826 C1824 1.395 . S
C1826 C1829 1.403 . S
C1827 C1824 1.403 . S
C1827 C1828 1.524 . S
C1827 C1831 1.400 . S
C1828 H1813 0.960 . S
C1828 H1814 0.962 . S
C1828 H1815 0.960 1_554 S
C1828 C1827 1.524 . S
C1829 C1826 1.403 . S
C1829 C1830 1.392 . S
C1829 C1833 1.495 . S
C1830 C1829 1.392 . S
C1830 C1831 1.385 . S
C1830 C1832 1.478 . S
C1831 H1825 0.930 . S
C1831 C1827 1.400 . S
C1831 C1830 1.385 . S
C1832 C1830 1.478 . S
C1832 C1834 1.381 . S
C1832 C1838 1.383 . S
C1833 C1829 1.495 . S
C1833 H1839 0.959 . S
C1833 H1840 0.961 . S
C1833 H1841 0.960 . S
C1834 C1832 1.381 . S
C1834 C1835 1.394 . S
C1834 H1842 0.930 . S
C1835 C1834 1.394 . S
C1835 C1836 1.383 . S
C1835 H1843 0.929 . S
C1836 C1835 1.383 . S
C1836 C1837 1.377 . S
C1837 H1821 0.930 . S
C1837 C1836 1.377 . S
C1837 C1838 1.379 . S
C1838 H1822 0.931 . S
C1838 C1832 1.383 . S
C1838 C1837 1.379 . S
H1839 C1833 0.959 . S
H1840 C1833 0.961 . S
H1841 C1833 0.960 . S
H1842 C1834 0.930 . S
H1843 C1835 0.929 . S
H1844 C1852 0.929 . S
H1845 C1854 0.930 . S
H1846 C1856 0.930 . S
H1847 C1859 0.929 . S
H1848 C1862 0.930 . S
H1849 C1864 0.960 . S
H1850 C1864 0.960 . S
H1851 C1864 0.960 . S
C1852 H1844 0.929 . S
C1852 C1853 1.377 . S
C1852 C1854 1.384 . S
C1853 C1852 1.377 . S
C1853 C1859 1.390 . S
C1854 H1845 0.930 . S
C1854 C1852 1.384 . S
C1854 C1855 1.372 . S
C1855 C1854 1.372 . S
C1855 C1856 1.400 . S
C1855 C1860 1.490 . S
C1856 H1846 0.930 . S
C1856 C1855 1.400 . S
C1856 C1859 1.386 . S
H1857 C1873 0.930 . S
H1858 C1874 0.931 . S
C1859 H1847 0.929 . S
C1859 C1853 1.390 . S
C1859 C1856 1.386 . S
C1860 C1855 1.490 . S
C1860 C1862 1.395 . S
C1860 C1863 1.403 . S
H1861 C1867 0.930 . S
C1862 H1848 0.930 . S
C1862 C1860 1.395 . S
C1862 C1865 1.403 . S
C1863 C1860 1.403 . S
C1863 C1864 1.524 . S
C1863 C1867 1.400 . S
C1864 H1849 0.960 . S
C1864 H1850 0.960 . S
C1864 H1851 0.960 . S
C1864 C1863 1.524 . S
C1865 C1862 1.403 . S
C1865 C1866 1.392 . S
C1865 C1869 1.495 . S
C1866 C1865 1.392 . S
C1866 C1867 1.385 . S
C1866 C1868 1.478 . S
C1867 H1861 0.930 . S
C1867 C1863 1.400 . S
C1867 C1866 1.385 . S
C1868 C1866 1.478 . S
C1868 C1870 1.381 . S
C1868 C1874 1.383 . S
C1869 C1865 1.495 . S
C1869 H1875 0.959 . S
C1869 H1876 0.961 . S
C1869 H1877 0.960 . S
C1870 C1868 1.381 . S
C1870 C1871 1.394 . S
C1870 H1878 0.930 . S
C1871 C1870 1.394 . S
C1871 C1872 1.383 . S
C1871 H1879 0.929 . S
C1872 C1871 1.383 . S
C1872 C1873 1.377 . S
C1873 H1857 0.930 . S
C1873 C1872 1.377 . S
C1873 C1874 1.379 . S
C1874 H1858 0.931 . S
C1874 C1868 1.383 . S
C1874 C1873 1.379 . S
H1875 C1869 0.959 . S
H1876 C1869 0.961 . S
H1877 C1869 0.960 . S
H1878 C1870 0.930 . S
H1879 C1871 0.929 . S
H1880 C1888 0.929 . S
H1881 C1890 0.930 . S
H1882 C1892 0.930 . S
H1883 C1895 0.929 . S
H1884 C1898 0.930 . S
H1885 C1900 0.960 . S
H1886 C1900 0.960 . S
H1887 C1900 0.960 . S
C1888 H1880 0.929 . S
C1888 C1889 1.377 . S
C1888 C1890 1.384 . S
C1889 C1888 1.377 . S
C1889 C1895 1.390 . S
C1890 H1881 0.930 . S
C1890 C1888 1.384 . S
C1890 C1891 1.372 . S
C1891 C1890 1.372 . S
C1891 C1892 1.400 . S
C1891 C1896 1.490 . S
C1892 H1882 0.930 . S
C1892 C1891 1.400 . S
C1892 C1895 1.386 . S
H1893 C1909 0.930 . S
H1894 C1910 0.931 . S
C1895 H1883 0.929 . S
C1895 C1889 1.390 . S
C1895 C1892 1.386 . S
C1896 C1891 1.490 . S
C1896 C1898 1.395 . S
C1896 C1899 1.403 . S
H1897 C1903 0.930 . S
C1898 H1884 0.930 . S
C1898 C1896 1.395 . S
C1898 C1901 1.403 . S
C1899 C1896 1.403 . S
C1899 C1900 1.524 . S
C1899 C1903 1.400 . S
C1900 H1885 0.960 . S
C1900 H1886 0.960 . S
C1900 H1887 0.960 . S
C1900 C1899 1.524 . S
C1901 C1898 1.403 . S
C1901 C1902 1.392 . S
C1901 C1905 1.495 . S
C1902 C1901 1.392 . S
C1902 C1903 1.385 . S
C1902 C1904 1.478 . S
C1903 H1897 0.930 . S
C1903 C1899 1.400 . S
C1903 C1902 1.385 . S
C1904 C1902 1.478 . S
C1904 C1906 1.381 . S
C1904 C1910 1.383 . S
C1905 C1901 1.495 . S
C1905 H1911 0.959 . S
C1905 H1912 0.961 . S
C1905 H1913 0.960 . S
C1906 C1904 1.381 . S
C1906 C1907 1.394 . S
C1906 H1914 0.930 . S
C1907 C1906 1.394 . S
C1907 C1908 1.383 . S
C1907 H1915 0.929 . S
C1908 C1907 1.383 . S
C1908 C1909 1.377 . S
C1909 H1893 0.930 . S
C1909 C1908 1.377 . S
C1909 C1910 1.379 . S
C1910 H1894 0.931 . S
C1910 C1904 1.383 . S
C1910 C1909 1.379 . S
H1911 C1905 0.959 . S
H1912 C1905 0.961 . S
H1913 C1905 0.960 . S
H1914 C1906 0.930 . S
H1915 C1907 0.929 . S
H1916 C1924 0.929 . S
H1917 C1926 0.930 . S
H1918 C1928 0.930 . S
H1919 C1931 0.929 . S
H1920 C1934 0.930 . S
H1921 C1936 0.960 . S
H1922 C1936 0.960 . S
H1923 C1936 0.960 . S
C1924 H1916 0.929 . S
C1924 C1925 1.377 . S
C1924 C1926 1.384 . S
C1925 C1924 1.377 . S
C1925 C1931 1.390 . S
C1926 H1917 0.930 . S
C1926 C1924 1.384 . S
C1926 C1927 1.372 . S
C1927 C1926 1.372 . S
C1927 C1928 1.400 . S
C1927 C1932 1.490 . S
C1928 H1918 0.930 . S
C1928 C1927 1.400 . S
C1928 C1931 1.386 . S
H1929 C1945 0.930 . S
H1930 C1946 0.931 . S
C1931 H1919 0.929 . S
C1931 C1925 1.390 . S
C1931 C1928 1.386 . S
C1932 C1927 1.490 . S
C1932 C1934 1.395 . S
C1932 C1935 1.403 . S
H1933 C1939 0.930 . S
C1934 H1920 0.930 . S
C1934 C1932 1.395 . S
C1934 C1937 1.403 . S
C1935 C1932 1.403 . S
C1935 C1936 1.524 . S
C1935 C1939 1.400 . S
C1936 H1921 0.960 . S
C1936 H1922 0.960 . S
C1936 H1923 0.960 . S
C1936 C1935 1.524 . S
C1937 C1934 1.403 . S
C1937 C1938 1.392 . S
C1937 C1941 1.495 . S
C1938 C1937 1.392 . S
C1938 C1939 1.385 . S
C1938 C1940 1.478 . S
C1939 H1933 0.930 . S
C1939 C1935 1.400 . S
C1939 C1938 1.385 . S
C1940 C1938 1.478 . S
C1940 C1942 1.381 . S
C1940 C1946 1.383 . S
C1941 C1937 1.495 . S
C1941 H1947 0.959 . S
C1941 H1948 0.961 . S
C1941 H1949 0.960 . S
C1942 C1940 1.381 . S
C1942 C1943 1.394 . S
C1942 H1950 0.930 . S
C1943 C1942 1.394 . S
C1943 C1944 1.383 . S
C1943 H1951 0.929 . S
C1944 C1943 1.383 . S
C1944 C1945 1.377 . S
C1945 H1929 0.930 . S
C1945 C1944 1.377 . S
C1945 C1946 1.379 . S
C1946 H1930 0.931 . S
C1946 C1940 1.383 . S
C1946 C1945 1.379 . S
H1947 C1941 0.959 . S
H1948 C1941 0.961 . S
H1949 C1941 0.960 . S
H1950 C1942 0.930 . S
H1951 C1943 0.929 . S
H1952 C1960 0.929 . S
H1953 C1962 0.930 . S
H1954 C1964 0.930 . S
H1955 C1967 0.929 . S
H1956 C1970 0.930 . S
H1957 C1972 0.960 . S
H1958 C1972 0.960 . S
H1959 C1972 0.960 . S
C1960 H1952 0.929 . S
C1960 C1961 1.377 . S
C1960 C1962 1.384 . S
C1961 C1960 1.377 . S
C1961 C1967 1.390 . S
C1962 H1953 0.930 . S
C1962 C1960 1.384 . S
C1962 C1963 1.372 . S
C1963 C1962 1.372 . S
C1963 C1964 1.400 . S
C1963 C1968 1.490 . S
C1964 H1954 0.930 . S
C1964 C1963 1.400 . S
C1964 C1967 1.386 . S
H1965 C1981 0.930 . S
H1966 C1982 0.931 . S
C1967 H1955 0.929 . S
C1967 C1961 1.390 . S
C1967 C1964 1.386 . S
C1968 C1963 1.490 . S
C1968 C1970 1.395 . S
C1968 C1971 1.403 . S
H1969 C1975 0.930 . S
C1970 H1956 0.930 . S
C1970 C1968 1.395 . S
C1970 C1973 1.403 . S
C1971 C1968 1.403 . S
C1971 C1972 1.524 . S
C1971 C1975 1.400 . S
C1972 H1957 0.960 . S
C1972 H1958 0.960 . S
C1972 H1959 0.960 . S
C1972 C1971 1.524 . S
C1973 C1970 1.403 . S
C1973 C1974 1.392 . S
C1973 C1977 1.495 . S
C1974 C1973 1.392 . S
C1974 C1975 1.385 . S
C1974 C1976 1.478 . S
C1975 H1969 0.930 . S
C1975 C1971 1.400 . S
C1975 C1974 1.385 . S
C1976 C1974 1.478 . S
C1976 C1978 1.381 . S
C1976 C1982 1.383 . S
C1977 C1973 1.495 . S
C1977 H1983 0.959 . S
C1977 H1984 0.961 . S
C1977 H1985 0.960 . S
C1978 C1976 1.381 . S
C1978 C1979 1.394 . S
C1978 H1986 0.930 . S
C1979 C1978 1.394 . S
C1979 C1980 1.383 . S
C1979 H1987 0.929 . S
C1980 C1979 1.383 . S
C1980 C1981 1.377 . S
C1981 H1965 0.930 . S
C1981 C1980 1.377 . S
C1981 C1982 1.379 . S
C1982 H1966 0.931 . S
C1982 C1976 1.383 . S
C1982 C1981 1.379 . S
H1983 C1977 0.959 . S
H1984 C1977 0.961 . S
H1985 C1977 0.960 . S
H1986 C1978 0.930 . S
H1987 C1979 0.929 . S
H1988 C1996 0.929 . S
H1989 C1998 0.930 . S
H1990 C2000 0.930 . S
H1991 C2003 0.929 . S
H1992 C2006 0.930 . S
H1993 C2008 0.960 . S
H1994 C2008 0.960 . S
H1995 C2008 0.960 . S
C1996 H1988 0.929 . S
C1996 C1997 1.377 . S
C1996 C1998 1.384 . S
C1997 C1996 1.377 . S
C1997 C2003 1.390 . S
C1998 H1989 0.930 . S
C1998 C1996 1.384 . S
C1998 C1999 1.372 . S
C1999 C1998 1.372 . S
C1999 C2000 1.400 . S
C1999 C2004 1.490 . S
C2000 H1990 0.930 . S
C2000 C1999 1.400 . S
C2000 C2003 1.386 . S
H2001 C2017 0.930 . S
H2002 C2018 0.931 . S
C2003 H1991 0.929 . S
C2003 C1997 1.390 . S
C2003 C2000 1.386 . S
C2004 C1999 1.490 . S
C2004 C2006 1.395 . S
C2004 C2007 1.403 . S
H2005 C2011 0.930 . S
C2006 H1992 0.930 . S
C2006 C2004 1.395 . S
C2006 C2009 1.403 . S
C2007 C2004 1.403 . S
C2007 C2008 1.524 . S
C2007 C2011 1.400 . S
C2008 H1993 0.960 . S
C2008 H1994 0.960 . S
C2008 H1995 0.960 . S
C2008 C2007 1.524 . S
C2009 C2006 1.403 . S
C2009 C2010 1.392 . S
C2009 C2013 1.495 . S
C2010 C2009 1.392 . S
C2010 C2011 1.385 . S
C2010 C2012 1.478 . S
C2011 H2005 0.930 . S
C2011 C2007 1.400 . S
C2011 C2010 1.385 . S
C2012 C2010 1.478 . S
C2012 C2014 1.381 . S
C2012 C2018 1.383 . S
C2013 C2009 1.495 . S
C2013 H2019 0.959 . S
C2013 H2020 0.961 . S
C2013 H2021 0.960 . S
C2014 C2012 1.381 . S
C2014 C2015 1.394 . S
C2014 H2022 0.930 . S
C2015 C2014 1.394 . S
C2015 C2016 1.383 . S
C2015 H2023 0.929 . S
C2016 C2015 1.383 . S
C2016 C2017 1.377 . S
C2017 H2001 0.930 . S
C2017 C2016 1.377 . S
C2017 C2018 1.379 . S
C2018 H2002 0.931 . S
C2018 C2012 1.383 . S
C2018 C2017 1.379 . S
H2019 C2013 0.959 . S
H2020 C2013 0.961 . S
H2021 C2013 0.960 . S
H2022 C2014 0.930 . S
H2023 C2015 0.929 . S
H2024 C2032 0.929 . S
H2025 C2034 0.930 . S
H2026 C2036 0.930 . S
H2027 C2039 0.929 . S
H2028 C2042 0.930 . S
H2029 C2044 0.960 . S
H2030 C2044 0.960 . S
H2031 C2044 0.960 . S
C2032 H2024 0.929 . S
C2032 C2033 1.377 . S
C2032 C2034 1.384 . S
C2033 C2032 1.377 . S
C2033 C2039 1.390 . S
C2034 H2025 0.930 . S
C2034 C2032 1.384 . S
C2034 C2035 1.372 . S
C2035 C2034 1.372 . S
C2035 C2036 1.400 . S
C2035 C2040 1.490 . S
C2036 H2026 0.930 . S
C2036 C2035 1.400 . S
C2036 C2039 1.386 . S
H2037 C2053 0.930 . S
H2038 C2054 0.931 . S
C2039 H2027 0.929 . S
C2039 C2033 1.390 . S
C2039 C2036 1.386 . S
C2040 C2035 1.490 . S
C2040 C2042 1.395 . S
C2040 C2043 1.403 . S
H2041 C2047 0.930 . S
C2042 H2028 0.930 . S
C2042 C2040 1.395 . S
C2042 C2045 1.403 . S
C2043 C2040 1.403 . S
C2043 C2044 1.524 . S
C2043 C2047 1.400 . S
C2044 H2029 0.960 . S
C2044 H2030 0.960 . S
C2044 H2031 0.960 . S
C2044 C2043 1.524 . S
C2045 C2042 1.403 . S
C2045 C2046 1.392 . S
C2045 C2049 1.495 . S
C2046 C2045 1.392 . S
C2046 C2047 1.385 . S
C2046 C2048 1.478 . S
C2047 H2041 0.930 . S
C2047 C2043 1.400 . S
C2047 C2046 1.385 . S
C2048 C2046 1.478 . S
C2048 C2050 1.381 . S
C2048 C2054 1.383 . S
C2049 C2045 1.495 . S
C2049 H2055 0.959 . S
C2049 H2056 0.961 . S
C2049 H2057 0.960 . S
C2050 C2048 1.381 . S
C2050 C2051 1.394 . S
C2050 H2058 0.930 . S
C2051 C2050 1.394 . S
C2051 C2052 1.383 . S
C2051 H2059 0.929 . S
C2052 C2051 1.383 . S
C2052 C2053 1.377 . S
C2053 H2037 0.930 . S
C2053 C2052 1.377 . S
C2053 C2054 1.379 . S
C2054 H2038 0.931 . S
C2054 C2048 1.383 . S
C2054 C2053 1.379 . S
H2055 C2049 0.959 . S
H2056 C2049 0.961 . S
H2057 C2049 0.960 . S
H2058 C2050 0.930 . S
H2059 C2051 0.929 . S
H2060 C2068 0.929 . S
H2061 C2070 0.930 . S
H2062 C2072 0.930 . S
H2063 C2075 0.929 . S
H2064 C2078 0.930 . S
H2065 C2080 0.960 . S
H2066 C2080 0.960 . S
H2067 C2080 0.960 . S
C2068 H2060 0.929 . S
C2068 C2069 1.377 . S
C2068 C2070 1.384 . S
C2069 C2068 1.377 . S
C2069 C2075 1.390 . S
C2070 H2061 0.930 . S
C2070 C2068 1.384 . S
C2070 C2071 1.372 . S
C2071 C2070 1.372 . S
C2071 C2072 1.400 . S
C2071 C2076 1.490 . S
C2072 H2062 0.930 . S
C2072 C2071 1.400 . S
C2072 C2075 1.386 . S
H2073 C2089 0.930 . S
H2074 C2090 0.931 . S
C2075 H2063 0.929 . S
C2075 C2069 1.390 . S
C2075 C2072 1.386 . S
C2076 C2071 1.490 . S
C2076 C2078 1.395 . S
C2076 C2079 1.403 . S
H2077 C2083 0.930 1_556 S
C2078 H2064 0.930 . S
C2078 C2076 1.395 . S
C2078 C2081 1.403 . S
C2079 C2076 1.403 . S
C2079 C2080 1.524 . S
C2079 C2083 1.400 . S
C2080 H2065 0.960 . S
C2080 H2066 0.960 . S
C2080 H2067 0.960 . S
C2080 C2079 1.524 . S
C2081 C2078 1.403 . S
C2081 C2082 1.392 . S
C2081 C2085 1.495 . S
C2082 C2081 1.392 . S
C2082 C2083 1.385 . S
C2082 C2084 1.478 1_554 S
C2083 H2077 0.930 1_554 S
C2083 C2079 1.400 . S
C2083 C2082 1.385 . S
C2084 C2082 1.478 1_556 S
C2084 C2086 1.381 . S
C2084 C2090 1.383 . S
C2085 C2081 1.495 . S
C2085 H2091 0.959 . S
C2085 H2092 0.961 . S
C2085 H2093 0.960 . S
C2086 C2084 1.381 . S
C2086 C2087 1.394 . S
C2086 H2094 0.930 . S
C2087 C2086 1.394 . S
C2087 C2088 1.383 . S
C2087 H2095 0.929 . S
C2088 C2087 1.383 . S
C2088 C2089 1.377 . S
C2089 H2073 0.930 . S
C2089 C2088 1.377 . S
C2089 C2090 1.379 . S
C2090 H2074 0.931 . S
C2090 C2084 1.383 . S
C2090 C2089 1.379 . S
H2091 C2085 0.959 . S
H2092 C2085 0.961 . S
H2093 C2085 0.960 . S
H2094 C2086 0.930 . S
H2095 C2087 0.929 . S
C953 C359 1.511 . S
C972 C5 1.497 . S
C989 C418 1.509 . S
C1008 C64 1.521 . S
C1025 C123 1.507 . S
C1044 C241 1.486 . S
C1061 C182 1.510 . S
C1080 C300 1.489 . S
C1097 C477 1.508 . S
C1116 C831 1.486 . S
C1133 C890 1.506 . S
C1152 C536 1.489 . S
C1169 C595 1.509 . S
C1188 C713 1.521 . S
C1205 C654 1.504 . S
C1224 C772 1.510 . S
C1241 C52 1.450 . S
C1260 C642 1.442 . S
C1277 C111 1.453 . S
C1296 C701 1.455 . S
C1313 C170 1.451 . S
C1332 C524 1.445 . S
C1349 C229 1.452 . S
C1368 C583 1.450 . S
C1385 C288 1.451 . S
C1404 C878 1.448 . S
C1421 C937 1.450 . S
C1440 C347 1.440 . S
C1457 C406 1.452 . S
C1476 C760 1.452 . S
C1493 C819 1.450 . S
C1512 C465 1.441 . S
C1529 C800 0.252 . S
C1548 C33 0.251 . S
C1565 C92 0.213 . S
C1584 C859 0.241 . S
C1601 C918 0.250 . S
C1620 C151 0.277 . S
C1637 C741 0.237 . S
C1656 C210 0.323 . S
C1673 C682 0.230 . S
C1692 C269 0.143 . S
C1709 C328 0.246 . S
C1728 C505 0.302 . S
C1745 C387 0.246 . S
C1764 C564 0.301 . S
C1781 C446 0.219 . S
C1800 C623 0.314 . S
C1817 C770 1.620 . S
C1836 C3 1.598 . S
C1853 C62 1.621 . S
C1872 C829 1.612 . S
C1889 C121 1.616 . S
C1908 C888 1.611 . S
C1925 C711 1.618 . S
C1944 C180 1.604 . S
C1961 C652 1.617 . S
C1980 C239 1.609 . S
C1997 C475 1.618 . S
C2016 C298 1.626 . S
C2033 C357 1.617 . S
C2052 C534 1.605 . S
C2069 C593 1.615 . S
C2088 C416 1.625 . S
