# Generated by pormake.
# Topology afw, (4)-cn, num edge types: 1
# Building blocks:
#     Node 0, Type 0, BuildingBlock: QUQFOY_clean_sbu_1, # of connection points: 4
#     Node 1, Type 0, BuildingBlock: QUQFOY_clean_sbu_1, # of connection points: 4
#     Node 2, Type 0, BuildingBlock: QUQFOY_clean_sbu_1, # of connection points: 4
#     Node 3, Type 0, BuildingBlock: QUQFOY_clean_sbu_1, # of connection points: 4
#     Node 4, Type 0, BuildingBlock: QUQFOY_clean_sbu_1, # of connection points: 4
#     Node 5, Type 0, BuildingBlock: QUQFOY_clean_sbu_1, # of connection points: 4
#     Node 6, Type 0, BuildingBlock: QUQFOY_clean_sbu_1, # of connection points: 4
#     Node 7, Type 0, BuildingBlock: QUQFOY_clean_sbu_1, # of connection points: 4
#     Node 8, Type 0, BuildingBlock: QUQFOY_clean_sbu_1, # of connection points: 4
#     Edge 9, Type (0, 0), BuildingBlock: MIFKUJ_clean_linker_0, # of connection points: 2
#     Edge 10, Type (0, 0), BuildingBlock: MIFKUJ_clean_linker_0, # of connection points: 2
#     Edge 11, Type (0, 0), BuildingBlock: MIFKUJ_clean_linker_0, # of connection points: 2
#     Edge 12, Type (0, 0), BuildingBlock: MIFKUJ_clean_linker_0, # of connection points: 2
#     Edge 13, Type (0, 0), BuildingBlock: MIFKUJ_clean_linker_0, # of connection points: 2
#     Edge 14, Type (0, 0), BuildingBlock: MIFKUJ_clean_linker_0, # of connection points: 2
#     Edge 15, Type (0, 0), BuildingBlock: MIFKUJ_clean_linker_0, # of connection points: 2
#     Edge 16, Type (0, 0), BuildingBlock: MIFKUJ_clean_linker_0, # of connection points: 2
#     Edge 17, Type (0, 0), BuildingBlock: MIFKUJ_clean_linker_0, # of connection points: 2
#     Edge 18, Type (0, 0), BuildingBlock: MIFKUJ_clean_linker_0, # of connection points: 2
#     Edge 19, Type (0, 0), BuildingBlock: MIFKUJ_clean_linker_0, # of connection points: 2
#     Edge 20, Type (0, 0), BuildingBlock: MIFKUJ_clean_linker_0, # of connection points: 2
#     Edge 21, Type (0, 0), BuildingBlock: MIFKUJ_clean_linker_0, # of connection points: 2
#     Edge 22, Type (0, 0), BuildingBlock: MIFKUJ_clean_linker_0, # of connection points: 2
#     Edge 23, Type (0, 0), BuildingBlock: MIFKUJ_clean_linker_0, # of connection points: 2
#     Edge 24, Type (0, 0), BuildingBlock: MIFKUJ_clean_linker_0, # of connection points: 2
#     Edge 25, Type (0, 0), BuildingBlock: MIFKUJ_clean_linker_0, # of connection points: 2
#     Edge 26, Type (0, 0), BuildingBlock: MIFKUJ_clean_linker_0, # of connection points: 2
# Relax obj value: 0.129
# Max RMSD: 0.151
# Mean RMSD: 0.151
data_MOF--net-afw--node1-QUQFOY_clean_sbu_1--edge1-MIFKUJ_clean_linker_0
_symmetry_space_group_name_H-M    P1
_symmetry_Int_Tables_number       1
_symmetry_cell_setting            triclinic
loop_
_symmetry_equiv_pos_as_xyz
'x, y, z'
_cell_length_a     55.343096
_cell_length_b     55.294336
_cell_length_c     48.524622
_cell_angle_alpha  90.037134
_cell_angle_beta   89.988433
_cell_angle_gamma 120.00283
loop_
_atom_site_label
_atom_site_type_symbol
_atom_site_fract_x
_atom_site_fract_y
_atom_site_fract_z
_atom_type_partial_charge
O0 O 0.05473 0.21768 0.99131 0.0
Cd1 Cd 0.01779 0.21738 0.98419 0.0
Cd2 Cd 0.01775 0.21683 0.04156 0.0
O3 O 0.05659 0.22073 0.03666 0.0
O4 O 0.01978 0.2242 0.94367 0.0
O5 O 0.01858 0.2533 0.97404 0.0
C6 C 0.02048 0.24741 0.94865 0.0
C7 C 0.01152 0.24451 0.07409 0.0
C8 C 0.0672 0.21945 0.01386 0.0
C9 C 0.97208 0.16641 0.01224 0.0
O10 O 0.98403 0.17749 0.03491 0.0
O11 O 0.98134 0.17955 0.98965 0.0
O12 O 0.01577 0.22454 0.0814 0.0
O13 O 0.01132 0.24925 0.04804 0.0
O14 O 0.85678 0.81994 0.02795 0.0
Cd15 Cd 0.82059 0.82041 0.03696 0.0
Cd16 Cd 0.81842 0.82137 0.97967 0.0
O17 O 0.85505 0.82012 0.98255 0.0
O18 O 0.81604 0.81137 0.07708 0.0
O19 O 0.78463 0.78495 0.04604 0.0
C20 C 0.79277 0.7892 0.07142 0.0
C21 C 0.78508 0.79336 0.94677 0.0
C22 C 0.86741 0.8202 0.00466 0.0
C23 C 0.82321 0.87102 0.01093 0.0
O24 O 0.82155 0.85946 0.98781 0.0
O25 O 0.82255 0.85868 0.03329 0.0
O26 O 0.8085 0.81472 0.93979 0.0
O27 O 0.7806 0.78745 0.97269 0.0
O28 O 0.17126 0.98731 0.98506 0.0
Cd29 Cd 0.21016 0.02218 0.98002 0.0
Cd30 Cd 0.20899 0.02112 0.03635 0.0
O31 O 0.17281 0.98333 0.03015 0.0
O32 O 0.2197 0.02132 0.94054 0.0
O33 O 0.24343 0.01695 0.97496 0.0
C34 C 0.23963 0.01739 0.94872 0.0
C35 C 0.24186 0.02489 0.06893 0.0
C36 C 0.16024 0.97426 0.00728 0.0
C37 C 0.20924 0.06989 0.00819 0.0
O38 O 0.20643 0.05678 0.03056 0.0
O39 O 0.21277 0.06047 0.98556 0.0
O40 O 0.21811 0.02187 0.07622 0.0
O41 O 0.24674 0.02494 0.04288 0.0
O42 O 0.64905 0.51355 0.36835 0.0
Cd43 Cd 0.68364 0.55266 0.37346 0.0
Cd44 Cd 0.681 0.55127 0.31669 0.0
O45 O 0.64382 0.51458 0.32335 0.0
O46 O 0.68354 0.56073 0.41352 0.0
O47 O 0.6783 0.58564 0.38095 0.0
C48 C 0.67937 0.5809 0.40687 0.0
C49 C 0.68409 0.58291 0.28286 0.0
C50 C 0.6356 0.50212 0.3464 0.0
C51 C 0.73051 0.55173 0.34389 0.0
O52 O 0.71682 0.549 0.32197 0.0
O53 O 0.72184 0.55541 0.3669 0.0
O54 O 0.68215 0.55938 0.27652 0.0
O55 O 0.68323 0.58822 0.30866 0.0
O56 O 0.52327 0.1554 0.35934 0.0
Cd57 Cd 0.48771 0.15638 0.37048 0.0
Cd58 Cd 0.48329 0.15883 0.31325 0.0
O59 O 0.52091 0.15954 0.3143 0.0
O60 O 0.48456 0.14701 0.41048 0.0
O61 O 0.45211 0.12083 0.38019 0.0
C62 C 0.46113 0.12484 0.40527 0.0
C63 C 0.45024 0.13109 0.28002 0.0
C64 C 0.53351 0.15777 0.33541 0.0
C65 C 0.48831 0.2072 0.34662 0.0
O66 O 0.48509 0.19587 0.32308 0.0
O67 O 0.48964 0.19485 0.36822 0.0
O68 O 0.47316 0.1532 0.27339 0.0
O69 O 0.44601 0.12431 0.30577 0.0
O70 O 0.87349 0.39009 0.36339 0.0
Cd71 Cd 0.87422 0.35386 0.37083 0.0
Cd72 Cd 0.87258 0.35092 0.31396 0.0
O73 O 0.87251 0.38829 0.31795 0.0
O74 O 0.88422 0.35614 0.41061 0.0
O75 O 0.91109 0.35558 0.37721 0.0
C76 C 0.90707 0.35715 0.40323 0.0
C77 C 0.90198 0.34711 0.28174 0.0
C78 C 0.87253 0.40038 0.34029 0.0
C79 C 0.82432 0.30488 0.34497 0.0
O80 O 0.83545 0.31458 0.32167 0.0
O81 O 0.83644 0.31726 0.36714 0.0
O82 O 0.88035 0.34845 0.27422 0.0
O83 O 0.90746 0.34869 0.30779 0.0
O84 O 0.3856 0.88052 0.65842 0.0
Cd85 Cd 0.34984 0.88182 0.64939 0.0
Cd86 Cd 0.34652 0.88028 0.70674 0.0
O87 O 0.38406 0.88088 0.70382 0.0
O88 O 0.35473 0.89117 0.60935 0.0
O89 O 0.35143 0.91838 0.64068 0.0
C90 C 0.35502 0.91403 0.61523 0.0
C91 C 0.34139 0.90769 0.74054 0.0
C92 C 0.39595 0.88015 0.68168 0.0
C93 C 0.30105 0.83165 0.67472 0.0
O94 O 0.31129 0.84265 0.69796 0.0
O95 O 0.31274 0.84429 0.65249 0.0
O96 O 0.34289 0.88585 0.74681 0.0
O97 O 0.34331 0.91444 0.71482 0.0
O98 O 0.18825 0.48832 0.69578 0.0
Cd99 Cd 0.15072 0.48682 0.70274 0.0
Cd100 Cd 0.15001 0.48646 0.64576 0.0
O101 O 0.18565 0.48369 0.65057 0.0
O102 O 0.14432 0.47846 0.74292 0.0
O103 O 0.11609 0.44989 0.71094 0.0
C104 C 0.12255 0.45504 0.7367 0.0
C105 C 0.11688 0.45853 0.61269 0.0
C106 C 0.19851 0.48626 0.67306 0.0
C107 C 0.15374 0.53665 0.67474 0.0
O108 O 0.15449 0.52543 0.65212 0.0
O109 O 0.1507 0.52392 0.69744 0.0
O110 O 0.14093 0.47899 0.60578 0.0
O111 O 0.11166 0.4534 0.63866 0.0
O112 O 0.50316 0.64625 0.6562 0.0
Cd113 Cd 0.54143 0.68214 0.65193 0.0
Cd114 Cd 0.53869 0.67967 0.70822 0.0
O115 O 0.50287 0.64178 0.70138 0.0
O116 O 0.55058 0.68239 0.61211 0.0
O117 O 0.5758 0.67897 0.64552 0.0
C118 C 0.57139 0.67955 0.61945 0.0
C119 C 0.57234 0.68371 0.73988 0.0
C120 C 0.49135 0.63284 0.67804 0.0
C121 C 0.53788 0.7282 0.681 0.0
O122 O 0.53519 0.71483 0.70315 0.0
O123 O 0.54222 0.71954 0.65826 0.0
O124 O 0.54848 0.67997 0.74781 0.0
O125 O 0.57686 0.68427 0.71369 0.0
H126 H 0.20854 0.10011 0.96377 0.0
H127 H 0.19515 0.13605 0.96335 0.0
H128 H 0.18723 0.13111 0.05188 0.0
H129 H 0.20086 0.09543 0.05256 0.0
H130 H 0.14494 0.12636 0.97959 0.0
H131 H 0.1961 0.19257 0.0777 0.0
H132 H 0.24004 0.21114 0.10385 0.0
H133 H 0.28283 0.20945 0.0307 0.0
H134 H 0.23926 0.19126 0.00401 0.0
H135 H 0.09251 0.20964 0.05757 0.0
H136 H 0.12704 0.19442 0.05531 0.0
H137 H 0.13332 0.20705 0.96733 0.0
H138 H 0.0985 0.2218 0.96928 0.0
H139 H 0.18061 0.21221 0.03635 0.0
H140 H 0.12854 0.14898 0.93771 0.0
H141 H 0.08343 0.12925 0.91335 0.0
H142 H 0.0418 0.12289 0.98997 0.0
H143 H 0.08644 0.14187 0.01478 0.0
C144 C 0.20455 0.10708 0.98322 0.0
C145 C 0.20554 0.09467 0.00819 0.0
C146 C 0.19686 0.12762 0.98293 0.0
C147 C 0.19023 0.13633 0.00756 0.0
C148 C 0.19261 0.12503 0.03263 0.0
C149 C 0.20026 0.10447 0.03296 0.0
C150 C 0.17771 0.15461 0.00684 0.0
C151 C 0.15319 0.1455 0.99147 0.0
C152 C 0.1879 0.17909 0.02309 0.0
C153 C 0.21431 0.19032 0.03891 0.0
C154 C 0.21491 0.19628 0.06716 0.0
C155 C 0.23975 0.20672 0.08208 0.0
C156 C 0.26419 0.21139 0.06896 0.0
C157 C 0.26386 0.20572 0.04086 0.0
C158 C 0.23908 0.19529 0.02583 0.0
C159 C 0.10173 0.20985 0.03781 0.0
C160 C 0.09233 0.21639 0.01352 0.0
C161 C 0.12156 0.20123 0.03659 0.0
C162 C 0.13231 0.19908 0.01109 0.0
C163 C 0.12493 0.20813 0.98717 0.0
C164 C 0.10499 0.21654 0.98833 0.0
C165 C 0.14805 0.18391 0.00902 0.0
C166 C 0.17285 0.19339 0.02404 0.0
C167 C 0.13803 0.15953 0.99268 0.0
C168 C 0.1109 0.14721 0.97802 0.0
C169 C 0.10971 0.1432 0.94934 0.0
C170 C 0.08421 0.13212 0.93546 0.0
C171 C 0.05975 0.12488 0.95007 0.0
C172 C 0.06071 0.1285 0.97863 0.0
C173 C 0.08611 0.13941 0.99262 0.0
H174 H 0.04007 0.11644 0.93927 0.0
H175 H 0.2834 0.21946 0.08056 0.0
H176 H 0.83823 0.90647 0.05524 0.0
H177 H 0.85493 0.95656 0.0544 0.0
H178 H 0.83793 0.95194 0.96721 0.0
H179 H 0.82169 0.90198 0.96775 0.0
H180 H 0.88946 0.99109 0.97745 0.0
H181 H 0.80033 0.96682 0.01477 0.0
H182 H 0.76053 0.94406 0.04679 0.0
H183 H 0.81396 0.98962 0.11452 0.0
H184 H 0.85419 0.01238 0.08298 0.0
H185 H 0.94036 0.13583 0.9682 0.0
H186 H 0.90667 0.08577 0.967 0.0
H187 H 0.9185 0.08011 0.05413 0.0
H188 H 0.95155 0.13015 0.05568 0.0
H189 H 0.86532 0.04617 0.04092 0.0
H190 H 0.95467 0.06473 0.00535 0.0
H191 H 0.9954 0.08642 0.97436 0.0
H192 H 0.94177 0.05058 0.90423 0.0
H193 H 0.90065 0.02881 0.93483 0.0
C194 C 0.83748 0.91597 0.03598 0.0
C195 C 0.82883 0.90022 0.01152 0.0
C196 C 0.84695 0.94465 0.03556 0.0
C197 C 0.84764 0.95806 0.01074 0.0
C198 C 0.83767 0.94209 0.98658 0.0
C199 C 0.82835 0.91348 0.98695 0.0
C200 C 0.86143 0.98902 0.00939 0.0
C201 C 0.88371 0.00307 0.99092 0.0
C202 C 0.8545 0.00475 0.02747 0.0
C203 C 0.83033 0.99115 0.04651 0.0
C204 C 0.80365 0.97183 0.03653 0.0
C205 C 0.781 0.95896 0.05459 0.0
C206 C 0.78472 0.96535 0.08268 0.0
C207 C 0.8111 0.98468 0.09276 0.0
C208 C 0.83383 0.9976 0.07479 0.0
C209 C 0.93547 0.12403 0.9872 0.0
C210 C 0.94894 0.13699 0.01198 0.0
C211 C 0.91627 0.09537 0.98646 0.0
C212 C 0.91047 0.07905 0.01037 0.0
C213 C 0.92269 0.09222 0.03539 0.0
C214 C 0.94169 0.12088 0.03621 0.0
C215 C 0.89335 0.04808 0.00909 0.0
C216 C 0.87064 0.03408 0.02714 0.0
C217 C 0.89992 0.03228 0.99074 0.0
C218 C 0.92459 0.04544 0.97233 0.0
C219 C 0.95156 0.06167 0.9833 0.0
C220 C 0.97472 0.07394 0.96582 0.0
C221 C 0.97119 0.07 0.93734 0.0
C222 C 0.94448 0.05368 0.92629 0.0
C223 C 0.92124 0.04134 0.94369 0.0
H224 H 0.98915 0.07951 0.92384 0.0
H225 H 0.76716 0.95536 0.09663 0.0
H226 H 0.89744 0.81542 0.04691 0.0
H227 H 0.94741 0.83182 0.04743 0.0
H228 H 0.95263 0.85215 0.96105 0.0
H229 H 0.90251 0.83523 0.96016 0.0
H230 H 0.9893 0.8344 0.97469 0.0
H231 H 0.96416 0.90097 0.00862 0.0
H232 H 0.93887 0.91694 0.03858 0.0
H233 H 0.97555 0.90256 0.11017 0.0
H234 H 1.00076 0.88612 0.08062 0.0
H235 H 0.12553 0.95222 0.96281 0.0
H236 H 0.07624 0.91674 0.96303 0.0
H237 H 0.08033 0.9054 0.05052 0.0
H238 H 0.12963 0.94139 0.0506 0.0
H239 H 0.03902 0.91427 0.03894 0.0
H240 H 0.06963 0.85364 0.00319 0.0
H241 H 0.09529 0.83911 0.97207 0.0
H242 H 0.04941 0.84371 0.90288 0.0
H243 H 0.02374 0.85866 0.93352 0.0
C244 C 0.90906 0.82276 0.02784 0.0
C245 C 0.89605 0.82445 0.00359 0.0
C246 C 0.93765 0.83217 0.0282 0.0
C247 C 0.95385 0.84381 0.00444 0.0
C248 C 0.94055 0.84338 0.97966 0.0
C249 C 0.91187 0.83373 0.97921 0.0
C250 C 0.98478 0.85932 0.00616 0.0
C251 C 1.00025 0.85193 0.98864 0.0
C252 C 0.99903 0.88193 0.02467 0.0
C253 C 0.98408 0.89203 0.04244 0.0
C254 C 0.96667 0.90103 0.03076 0.0
C255 C 0.95238 0.91019 0.04766 0.0
C256 C 0.95554 0.91068 0.07626 0.0
C257 C 0.97308 0.90211 0.08801 0.0
C258 C 0.98738 0.89288 0.07121 0.0
C259 C 0.11613 0.94187 0.98205 0.0
C260 C 0.13154 0.94985 0.00674 0.0
C261 C 0.08791 0.9214 0.9821 0.0
C262 C 0.07455 0.90823 0.00676 0.0
C263 C 0.09018 0.91527 0.03123 0.0
C264 C 0.1184 0.93584 0.03123 0.0
C265 C 0.04379 0.88944 0.00748 0.0
C266 C 0.02825 0.89639 0.02534 0.0
C267 C 0.02961 0.86662 0.98914 0.0
C268 C 0.04489 0.85746 0.97065 0.0
C269 C 0.06514 0.85175 0.98131 0.0
C270 C 0.07967 0.8434 0.96376 0.0
C271 C 0.07402 0.84054 0.93551 0.0
C272 C 0.05377 0.84595 0.92477 0.0
C273 C 0.0392 0.85432 0.94222 0.0
H274 H 0.0853 0.83409 0.92196 0.0
H275 H 0.94446 0.91778 0.08931 0.0
H276 H 0.85972 0.42267 0.29593 0.0
H277 H 0.84513 0.45772 0.29695 0.0
H278 H 0.86117 0.4685 0.38436 0.0
H279 H 0.8754 0.43327 0.38363 0.0
H280 H 0.80965 0.45714 0.37296 0.0
H281 H 0.90078 0.52098 0.33829 0.0
H282 H 0.941 0.53748 0.30688 0.0
H283 H 0.88971 0.5337 0.23876 0.0
H284 H 0.84906 0.5168 0.26969 0.0
H285 H 0.76386 0.55373 0.38668 0.0
H286 H 0.79764 0.53751 0.38628 0.0
H287 H 0.78488 0.52186 0.29892 0.0
H288 H 0.75159 0.53857 0.29898 0.0
H289 H 0.83859 0.53946 0.31251 0.0
H290 H 0.74734 0.47014 0.34422 0.0
H291 H 0.70555 0.45168 0.37374 0.0
H292 H 0.75586 0.46357 0.44539 0.0
H293 H 0.79803 0.48246 0.41628 0.0
C294 C 0.86074 0.43293 0.31527 0.0
C295 C 0.86846 0.42493 0.33975 0.0
C296 C 0.85247 0.45307 0.3158 0.0
C297 C 0.85205 0.46577 0.34075 0.0
C298 C 0.86123 0.45892 0.3649 0.0
C299 C 0.86939 0.43876 0.36442 0.0
C300 C 0.83915 0.48372 0.34227 0.0
C301 C 0.81645 0.47553 0.36018 0.0
C302 C 0.84738 0.50716 0.32495 0.0
C303 C 0.87181 0.51741 0.3063 0.0
C304 C 0.89801 0.52346 0.31658 0.0
C305 C 0.9209 0.53293 0.29886 0.0
C306 C 0.9179 0.53658 0.27084 0.0
C307 C 0.892 0.53084 0.26048 0.0
C308 C 0.86904 0.52135 0.2781 0.0
C309 C 0.76869 0.54744 0.36726 0.0
C310 C 0.75465 0.54704 0.34295 0.0
C311 C 0.78796 0.5381 0.36708 0.0
C312 C 0.79333 0.52791 0.34267 0.0
C313 C 0.78098 0.5295 0.31802 0.0
C314 C 0.76184 0.53898 0.31813 0.0
C315 C 0.80929 0.51289 0.34328 0.0
C316 C 0.83227 0.52141 0.32564 0.0
C317 C 0.80119 0.48948 0.36061 0.0
C318 C 0.77586 0.47801 0.37813 0.0
C319 C 0.74951 0.469 0.36629 0.0
C320 C 0.72576 0.45844 0.38294 0.0
C321 C 0.72806 0.45654 0.41143 0.0
C322 C 0.75412 0.46512 0.42332 0.0
C323 C 0.77795 0.47574 0.40676 0.0
H324 H 0.70965 0.44835 0.42429 0.0
H325 H 0.93564 0.54391 0.25716 0.0
H326 H 0.50445 0.24193 0.39166 0.0
H327 H 0.52083 0.29202 0.39194 0.0
H328 H 0.50099 0.28848 0.30556 0.0
H329 H 0.48485 0.23858 0.30499 0.0
H330 H 0.554 0.32728 0.31571 0.0
H331 H 0.46471 0.30223 0.35411 0.0
H332 H 0.42553 0.27913 0.38679 0.0
H333 H 0.47998 0.32493 0.45382 0.0
H334 H 0.5196 0.34804 0.4216 0.0
H335 H 0.60176 0.4705 0.30395 0.0
H336 H 0.56814 0.42042 0.30445 0.0
H337 H 0.58322 0.41732 0.39123 0.0
H338 H 0.61631 0.4674 0.3911 0.0
H339 H 0.5293 0.38185 0.37932 0.0
H340 H 0.61861 0.40212 0.34367 0.0
H341 H 0.65941 0.42478 0.31281 0.0
H342 H 0.60636 0.38696 0.24263 0.0
H343 H 0.56518 0.36436 0.2731 0.0
C344 C 0.50299 0.25166 0.37286 0.0
C345 C 0.49358 0.23624 0.34824 0.0
C346 C 0.5123 0.28032 0.37308 0.0
C347 C 0.51217 0.29402 0.34875 0.0
C348 C 0.50138 0.27837 0.32454 0.0
C349 C 0.49212 0.24979 0.32428 0.0
C350 C 0.52597 0.32497 0.34776 0.0
C351 C 0.54815 0.33916 0.32922 0.0
C352 C 0.51899 0.34052 0.36602 0.0
C353 C 0.49519 0.3267 0.38545 0.0
C354 C 0.46839 0.30722 0.37585 0.0
C355 C 0.44609 0.29415 0.39429 0.0
C356 C 0.45028 0.30051 0.42237 0.0
C357 C 0.47677 0.32001 0.43206 0.0
C358 C 0.49915 0.33313 0.41371 0.0
C359 C 0.59755 0.45929 0.32326 0.0
C360 C 0.61206 0.47293 0.34739 0.0
C361 C 0.57837 0.43063 0.3235 0.0
C362 C 0.57359 0.41501 0.34776 0.0
C363 C 0.58663 0.4289 0.37225 0.0
C364 C 0.60566 0.45758 0.37209 0.0
C365 C 0.55714 0.38401 0.34716 0.0
C366 C 0.53473 0.36987 0.36551 0.0
C367 C 0.56407 0.36837 0.32896 0.0
C368 C 0.5888 0.38182 0.31062 0.0
C369 C 0.61563 0.39881 0.32164 0.0
C370 C 0.63882 0.41162 0.30423 0.0
C371 C 0.63547 0.40739 0.27577 0.0
C372 C 0.60892 0.39027 0.26468 0.0
C373 C 0.58565 0.37744 0.282 0.0
H374 H 0.65344 0.41732 0.26232 0.0
H375 H 0.43298 0.29037 0.43661 0.0
H376 H 0.57409 0.19464 0.30166 0.0
H377 H 0.62333 0.20889 0.30254 0.0
H378 H 0.60674 0.14507 0.36303 0.0
H379 H 0.55757 0.13263 0.36395 0.0
H380 H 0.64834 0.18543 0.37907 0.0
H381 H 0.62978 0.14528 0.29132 0.0
H382 H 0.61093 0.13334 0.24413 0.0
H383 H 0.66103 0.21917 0.21995 0.0
H384 H 0.6799 0.23173 0.26708 0.0
H385 H 0.80093 0.25844 0.31219 0.0
H386 H 0.75195 0.22123 0.3113 0.0
H387 H 0.73382 0.26268 0.37689 0.0
H388 H 0.78291 0.29812 0.37935 0.0
H389 H 0.70981 0.22009 0.29708 0.0
H390 H 0.67748 0.22494 0.41169 0.0
H391 H 0.69649 0.22812 0.45834 0.0
H392 H 0.74831 0.19652 0.42812 0.0
H393 H 0.72934 0.19275 0.38136 0.0
C394 C 0.58088 0.18329 0.31473 0.0
C395 C 0.56207 0.16246 0.33263 0.0
C396 C 0.60912 0.19129 0.31508 0.0
C397 C 0.61905 0.17779 0.33246 0.0
C398 C 0.59985 0.15598 0.34947 0.0
C399 C 0.57171 0.1487 0.34987 0.0
C400 C 0.64967 0.1884 0.33471 0.0
C401 C 0.6617 0.19263 0.36106 0.0
C402 C 0.66739 0.1968 0.31132 0.0
C403 C 0.65619 0.18945 0.28282 0.0
C404 C 0.63667 0.16164 0.27599 0.0
C405 C 0.62599 0.15477 0.24923 0.0
C406 C 0.63476 0.17549 0.22906 0.0
C407 C 0.65427 0.20314 0.23559 0.0
C408 C 0.66501 0.21014 0.26232 0.0
C409 C 0.78648 0.25902 0.32688 0.0
C410 C 0.79566 0.28089 0.34605 0.0
C411 C 0.75845 0.23787 0.32628 0.0
C412 C 0.73891 0.23868 0.34428 0.0
C413 C 0.74833 0.26066 0.36347 0.0
C414 C 0.77647 0.28116 0.36474 0.0
C415 C 0.70843 0.21827 0.3415 0.0
C416 C 0.69644 0.21223 0.31505 0.0
C417 C 0.69077 0.20672 0.36472 0.0
C418 C 0.70206 0.20869 0.39294 0.0
C419 C 0.69279 0.21847 0.41501 0.0
C420 C 0.7036 0.22044 0.44148 0.0
C421 C 0.72363 0.21258 0.44618 0.0
C422 C 0.73285 0.20268 0.42444 0.0
C423 C 0.7221 0.20066 0.39793 0.0
H424 H 0.73199 0.21414 0.46668 0.0
H425 H 0.62645 0.17012 0.20836 0.0
H426 H 0.42874 0.88153 0.63888 0.0
H427 H 0.46183 0.86456 0.63891 0.0
H428 H 0.4501 0.84977 0.72642 0.0
H429 H 0.41718 0.86711 0.7267 0.0
H430 H 0.50447 0.8672 0.71064 0.0
H431 H 0.41151 0.79786 0.68382 0.0
H432 H 0.36817 0.77905 0.65662 0.0
H433 H 0.41415 0.78797 0.58238 0.0
H434 H 0.45786 0.80724 0.60913 0.0
H435 H 0.52654 0.75131 0.72553 0.0
H436 H 0.51149 0.7859 0.72514 0.0
H437 H 0.52297 0.79427 0.63703 0.0
H438 H 0.53772 0.75934 0.63714 0.0
H439 H 0.47197 0.78339 0.65138 0.0
H440 H 0.56498 0.848 0.6808 0.0
H441 H 0.60703 0.8652 0.70974 0.0
H442 H 0.56002 0.86321 0.78097 0.0
H443 H 0.51757 0.84561 0.75253 0.0
C444 C 0.43361 0.87525 0.65827 0.0
C445 C 0.41995 0.87527 0.68272 0.0
C446 C 0.45253 0.86553 0.65823 0.0
C447 C 0.45797 0.85538 0.68257 0.0
C448 C 0.4461 0.85741 0.7074 0.0
C449 C 0.42724 0.86729 0.70749 0.0
C450 C 0.47342 0.83988 0.68152 0.0
C451 C 0.49736 0.84879 0.69782 0.0
C452 C 0.46426 0.81604 0.66453 0.0
C453 C 0.43799 0.80428 0.64843 0.0
C454 C 0.41241 0.79601 0.66167 0.0
C455 C 0.38777 0.78524 0.64635 0.0
C456 C 0.38842 0.78239 0.61778 0.0
C457 C 0.41369 0.79024 0.6045 0.0
C458 C 0.4384 0.80108 0.61973 0.0
C459 C 0.52639 0.76085 0.7061 0.0
C460 C 0.53313 0.75233 0.68132 0.0
C461 C 0.5179 0.78079 0.70595 0.0
C462 C 0.51617 0.79277 0.68107 0.0
C463 C 0.52414 0.78528 0.65647 0.0
C464 C 0.53263 0.76534 0.65659 0.0
C465 C 0.50328 0.81073 0.68036 0.0
C466 C 0.47952 0.80208 0.66388 0.0
C467 C 0.51249 0.83456 0.6974 0.0
C468 C 0.53803 0.84528 0.71455 0.0
C469 C 0.56355 0.85103 0.70267 0.0
C470 C 0.58747 0.86089 0.71898 0.0
C471 C 0.58619 0.86524 0.74718 0.0
C472 C 0.56098 0.85981 0.75912 0.0
C473 C 0.53699 0.84993 0.74291 0.0
H474 H 0.60473 0.87287 0.75977 0.0
H475 H 0.36932 0.77404 0.60595 0.0
H476 H 0.26956 0.79975 0.71791 0.0
H477 H 0.23641 0.74968 0.71778 0.0
H478 H 0.2459 0.74721 0.62979 0.0
H479 H 0.27898 0.79749 0.62962 0.0
H480 H 0.19136 0.71077 0.64716 0.0
H481 H 0.28468 0.73251 0.66977 0.0
H482 H 0.32907 0.75626 0.69541 0.0
H483 H 0.28562 0.71944 0.77085 0.0
H484 H 0.24088 0.69577 0.74568 0.0
H485 H 0.16382 0.57097 0.63037 0.0
H486 H 0.18054 0.62099 0.63097 0.0
H487 H 0.17371 0.6189 0.7196 0.0
H488 H 0.15734 0.56885 0.71925 0.0
H489 H 0.22427 0.65787 0.70327 0.0
H490 H 0.13069 0.63195 0.67845 0.0
H491 H 0.08722 0.60801 0.65138 0.0
H492 H 0.13166 0.6518 0.5786 0.0
H493 H 0.1755 0.67573 0.60515 0.0
C494 C 0.26424 0.78873 0.69841 0.0
C495 C 0.27728 0.8026 0.67381 0.0
C496 C 0.24528 0.76008 0.69839 0.0
C497 C 0.23911 0.74466 0.67386 0.0
C498 C 0.25046 0.75872 0.64897 0.0
C499 C 0.26942 0.78747 0.64894 0.0
C500 C 0.22323 0.71369 0.67466 0.0
C501 C 0.19857 0.69912 0.65926 0.0
C502 C 0.23251 0.69857 0.69074 0.0
C503 C 0.2594 0.71262 0.7059 0.0
C504 C 0.28456 0.72965 0.69186 0.0
C505 C 0.30979 0.74307 0.7063 0.0
C506 C 0.31015 0.73942 0.73475 0.0
C507 C 0.28529 0.72228 0.74881 0.0
C508 C 0.26 0.70885 0.73448 0.0
C509 C 0.16535 0.58099 0.64999 0.0
C510 C 0.15943 0.56588 0.67479 0.0
C511 C 0.1748 0.60963 0.65027 0.0
C512 C 0.17832 0.62373 0.67533 0.0
C513 C 0.17118 0.60846 0.70002 0.0
C514 C 0.16175 0.57981 0.69977 0.0
C515 C 0.19211 0.65469 0.67594 0.0
C516 C 0.21667 0.66937 0.69146 0.0
C517 C 0.18279 0.66977 0.65978 0.0
C518 C 0.15644 0.65547 0.64377 0.0
C519 C 0.13125 0.63632 0.65663 0.0
C520 C 0.10653 0.62278 0.64139 0.0
C521 C 0.10669 0.62834 0.61328 0.0
C522 C 0.13157 0.6475 0.60037 0.0
C523 C 0.15635 0.66109 0.61552 0.0
H524 H 0.08753 0.61783 0.60152 0.0
H525 H 0.32971 0.74983 0.7459 0.0
H526 H 0.23267 0.49384 0.71698 0.0
H527 H 0.28246 0.5095 0.71562 0.0
H528 H 0.27918 0.50376 0.62694 0.0
H529 H 0.22942 0.4884 0.62801 0.0
H530 H 0.31775 0.49185 0.69527 0.0
H531 H 0.33492 0.56314 0.60201 0.0
H532 H 0.31212 0.58626 0.57895 0.0
H533 H 0.27436 0.58853 0.65551 0.0
H534 H 0.29725 0.56581 0.67906 0.0
H535 H 0.46142 0.6071 0.63165 0.0
H536 H 0.41189 0.57244 0.6287 0.0
H537 H 0.40638 0.56944 0.71743 0.0
H538 H 0.45604 0.60383 0.7206 0.0
H539 H 0.37204 0.58192 0.64591 0.0
H540 H 0.35112 0.50711 0.73816 0.0
H541 H 0.37432 0.48514 0.7625 0.0
H542 H 0.4211 0.49152 0.68957 0.0
H543 H 0.39791 0.51316 0.66466 0.0
C544 C 0.24236 0.49536 0.69718 0.0
C545 C 0.22711 0.49032 0.67256 0.0
C546 C 0.27085 0.5042 0.69647 0.0
C547 C 0.28461 0.50825 0.67117 0.0
C548 C 0.26902 0.50113 0.64668 0.0
C549 C 0.24054 0.4923 0.64735 0.0
C550 C 0.31554 0.52286 0.67032 0.0
C551 C 0.3297 0.51159 0.68458 0.0
C552 C 0.33107 0.54843 0.65605 0.0
C553 C 0.3175 0.56245 0.64218 0.0
C554 C 0.3218 0.56864 0.61391 0.0
C555 C 0.30887 0.58168 0.60076 0.0
C556 C 0.29171 0.58875 0.61573 0.0
C557 C 0.28756 0.58293 0.64391 0.0
C558 C 0.30048 0.56995 0.65716 0.0
C559 C 0.44985 0.59866 0.65058 0.0
C560 C 0.46269 0.60847 0.67638 0.0
C561 C 0.42149 0.57884 0.64884 0.0
C562 C 0.40537 0.56832 0.67281 0.0
C563 C 0.41843 0.57695 0.69863 0.0
C564 C 0.44685 0.59674 0.7004 0.0
C565 C 0.37451 0.55096 0.6708 0.0
C566 C 0.36026 0.5619 0.65618 0.0
C567 C 0.35904 0.52525 0.6849 0.0
C568 C 0.37293 0.512 0.69962 0.0
C569 C 0.36627 0.50372 0.72727 0.0
C570 C 0.37944 0.49134 0.74118 0.0
C571 C 0.39923 0.48701 0.72762 0.0
C572 C 0.40584 0.49499 0.70009 0.0
C573 C 0.39272 0.50735 0.68608 0.0
H574 H 0.40941 0.47744 0.73842 0.0
H575 H 0.28169 0.59881 0.60551 0.0
H576 H 0.01916 0.29648 0.95064 0.0
H577 H 0.03116 0.33072 0.9134 0.0
H578 H 0.04518 0.27763 0.8585 0.0
H579 H 0.03298 0.24334 0.89521 0.0
H580 H 0.08966 0.33243 0.86071 0.0
H581 H 0.99018 0.28281 0.84831 0.0
H582 H 0.94122 0.26318 0.86287 0.0
H583 H 0.9569 0.34529 0.88367 0.0
H584 H 0.0061 0.36538 0.86959 0.0
H585 H 0.07556 0.40341 0.73113 0.0
H586 H 0.05313 0.36747 0.76684 0.0
H587 H 0.11177 0.42356 0.82694 0.0
H588 H 0.13415 0.45946 0.79166 0.0
H589 H 0.02906 0.36573 0.82043 0.0
H590 H 0.13431 0.38509 0.86279 0.0
H591 H 0.18285 0.40366 0.84712 0.0
H592 H 0.1542 0.37891 0.7641 0.0
H593 H 0.1055 0.35983 0.77935 0.0
C594 C 0.02445 0.29197 0.93053 0.0
C595 C 0.02518 0.26722 0.92592 0.0
C596 C 0.03124 0.31151 0.90928 0.0
C597 C 0.03908 0.30669 0.88321 0.0
C598 C 0.03923 0.28176 0.87846 0.0
C599 C 0.03216 0.26215 0.8995 0.0
C600 C 0.04882 0.32824 0.86128 0.0
C601 C 0.07639 0.33972 0.85196 0.0
C602 C 0.03145 0.33758 0.84971 0.0
C603 C 0.0019 0.32556 0.85817 0.0
C604 C 0.98326 0.29666 0.85624 0.0
C605 C 0.95545 0.28545 0.86435 0.0
C606 C 0.94597 0.30297 0.87426 0.0
C607 C 0.96428 0.33174 0.87602 0.0
C608 C 0.99212 0.34305 0.86796 0.0
C609 C 0.0834 0.40822 0.75204 0.0
C610 C 0.1068 0.43423 0.75848 0.0
C611 C 0.0705 0.38771 0.77242 0.0
C612 C 0.08096 0.39281 0.79945 0.0
C613 C 0.1035 0.41915 0.80616 0.0
C614 C 0.11627 0.43965 0.78592 0.0
C615 C 0.06995 0.37006 0.82019 0.0
C616 C 0.04226 0.35844 0.82929 0.0
C617 C 0.08714 0.36039 0.83153 0.0
C618 C 0.1163 0.3713 0.82219 0.0
C619 C 0.13838 0.38351 0.84122 0.0
C620 C 0.16591 0.39413 0.8324 0.0
C621 C 0.17161 0.39255 0.80461 0.0
C622 C 0.14977 0.38022 0.7856 0.0
C623 C 0.1222 0.36953 0.79432 0.0
H624 H 0.19294 0.40082 0.79783 0.0
H625 H 0.92443 0.29426 0.88052 0.0
H626 H 0.72945 0.75586 0.95419 0.0
H627 H 0.69394 0.73272 0.91842 0.0
H628 H 0.75739 0.7706 0.8557 0.0
H629 H 0.79267 0.79445 0.89124 0.0
H630 H 0.7161 0.77715 0.84253 0.0
H631 H 0.72365 0.69864 0.87216 0.0
H632 H 0.72406 0.66513 0.90539 0.0
H633 H 0.63948 0.63879 0.92818 0.0
H634 H 0.63868 0.67242 0.89533 0.0
H635 H 0.62781 0.70258 0.73058 0.0
H636 H 0.6647 0.71647 0.76518 0.0
H637 H 0.60347 0.69107 0.83002 0.0
H638 H 0.56656 0.67717 0.79567 0.0
H639 H 0.64426 0.67662 0.84083 0.0
H640 H 0.63849 0.7574 0.81279 0.0
H641 H 0.63835 0.79071 0.77911 0.0
H642 H 0.72081 0.81229 0.75276 0.0
H643 H 0.72127 0.77879 0.78605 0.0
C644 C 0.73584 0.75897 0.93278 0.0
C645 C 0.76385 0.77706 0.92554 0.0
C646 C 0.71554 0.74562 0.91232 0.0
C647 C 0.72295 0.7497 0.88426 0.0
C648 C 0.75107 0.76716 0.87713 0.0
C649 C 0.77126 0.78075 0.89751 0.0
C650 C 0.70134 0.73725 0.86226 0.0
C651 C 0.70076 0.75505 0.84195 0.0
C652 C 0.68081 0.70852 0.86172 0.0
C653 C 0.6812 0.68824 0.88145 0.0
C654 C 0.70521 0.68586 0.88441 0.0
C655 C 0.7055 0.66681 0.90315 0.0
C656 C 0.68184 0.64989 0.91893 0.0
C657 C 0.6578 0.65193 0.91596 0.0
C658 C 0.65741 0.67096 0.89726 0.0
C659 C 0.62216 0.69956 0.75219 0.0
C660 C 0.59429 0.68899 0.76038 0.0
C661 C 0.64326 0.70758 0.77193 0.0
C662 C 0.63684 0.70507 0.80017 0.0
C663 C 0.60888 0.6932 0.80835 0.0
C664 C 0.58783 0.68538 0.78867 0.0
C665 C 0.65932 0.71653 0.82123 0.0
C666 C 0.6599 0.69862 0.84138 0.0
C667 C 0.67999 0.74513 0.82159 0.0
C668 C 0.67979 0.76537 0.80168 0.0
C669 C 0.6565 0.76908 0.79966 0.0
C670 C 0.65638 0.78802 0.78067 0.0
C671 C 0.67952 0.80354 0.76375 0.0
C672 C 0.70288 0.80021 0.76585 0.0
C673 C 0.70309 0.78127 0.78478 0.0
H674 H 0.67939 0.8182 0.74906 0.0
H675 H 0.6821 0.63516 0.93343 0.0
H676 H 0.3276 0.94864 0.73425 0.0
H677 H 0.31551 0.97152 0.77058 0.0
H678 H 0.33233 0.92567 0.83225 0.0
H679 H 0.34368 0.90228 0.79613 0.0
H680 H 0.28485 0.92234 0.84282 0.0
H681 H 0.37619 0.99726 0.82137 0.0
H682 H 0.41423 0.03108 0.79161 0.0
H683 H 0.36419 0.06692 0.7677 0.0
H684 H 0.32568 0.03305 0.79704 0.0
H685 H 0.27297 0.9947 0.95811 0.0
H686 H 0.29563 0.98037 0.92349 0.0
H687 H 0.26642 0.01304 0.85902 0.0
H688 H 0.24353 0.02716 0.89338 0.0
H689 H 0.32219 0.0244 0.8512 0.0
H690 H 0.23023 0.94717 0.87099 0.0
H691 H 0.19271 0.9135 0.90133 0.0
H692 H 0.24566 0.8823 0.92912 0.0
H693 H 0.28367 0.91611 0.89922 0.0
C694 C 0.32901 0.94369 0.75556 0.0
C695 C 0.3365 0.92358 0.76229 0.0
C696 C 0.32221 0.95687 0.77634 0.0
C697 C 0.32317 0.95048 0.80424 0.0
C698 C 0.33134 0.93091 0.81092 0.0
C699 C 0.33788 0.91759 0.79021 0.0
C700 C 0.31414 0.96286 0.82641 0.0
C701 C 0.29345 0.94471 0.84488 0.0
C702 C 0.32483 0.99201 0.82885 0.0
C703 C 0.34794 0.01243 0.8112 0.0
C704 C 0.37321 0.0122 0.80959 0.0
C705 C 0.39487 0.03141 0.79284 0.0
C706 C 0.39161 0.05109 0.77772 0.0
C707 C 0.36668 0.05164 0.77939 0.0
C708 C 0.34493 0.03246 0.79611 0.0
C709 C 0.27175 0.99922 0.9366 0.0
C710 C 0.2563 0.01187 0.92845 0.0
C711 C 0.28464 0.99097 0.91686 0.0
C712 C 0.2825 0.99547 0.88869 0.0
C713 C 0.26832 0.00939 0.88064 0.0
C714 C 0.25516 0.01733 0.90031 0.0
C715 C 0.29318 0.98385 0.86748 0.0
C716 C 0.31395 0.00209 0.84917 0.0
C717 C 0.28274 0.95479 0.86523 0.0
C718 C 0.25989 0.93438 0.88312 0.0
C719 C 0.23396 0.9333 0.88376 0.0
C720 C 0.21259 0.91416 0.90084 0.0
C721 C 0.21683 0.89583 0.91721 0.0
C722 C 0.24243 0.89655 0.91647 0.0
C723 C 0.26388 0.91569 0.89946 0.0
H724 H 0.20026 0.88102 0.93041 0.0
H725 H 0.40841 0.06594 0.76476 0.0
H726 H 0.45904 0.13018 0.225 0.0
H727 H 0.42425 0.10706 0.18887 0.0
H728 H 0.35902 0.07345 0.25018 0.0
H729 H 0.39408 0.09561 0.28662 0.0
H730 H 0.34669 0.03631 0.21149 0.0
H731 H 0.37556 0.13372 0.21161 0.0
H732 H 0.40892 0.18435 0.21017 0.0
H733 H 0.43688 0.17555 0.13019 0.0
H734 H 0.40392 0.12478 0.13132 0.0
H735 H 0.23509 0.01959 0.12471 0.0
H736 H 0.27114 0.03247 0.15978 0.0
H737 H 0.33319 0.05483 0.09619 0.0
H738 H 0.29713 0.04195 0.06084 0.0
H739 H 0.34769 0.09624 0.13492 0.0
H740 H 0.31436 0.99766 0.13484 0.0
H741 H 0.27873 0.94775 0.13743 0.0
H742 H 0.2562 0.9598 0.21886 0.0
H743 H 0.29144 0.00989 0.21661 0.0
C744 C 0.43731 0.11763 0.23082 0.0
C745 C 0.42924 0.11492 0.25862 0.0
C746 C 0.4174 0.10453 0.21012 0.0
C747 C 0.38888 0.0891 0.21667 0.0
C748 C 0.38086 0.08537 0.24455 0.0
C749 C 0.4009 0.09807 0.26537 0.0
C750 C 0.36749 0.07783 0.1944 0.0
C751 C 0.34676 0.0495 0.19491 0.0
C752 C 0.36771 0.09487 0.17245 0.0
C753 C 0.38748 0.12542 0.17167 0.0
C754 C 0.38896 0.14255 0.1938 0.0
C755 C 0.40778 0.17128 0.19303 0.0
C756 C 0.42506 0.18315 0.17014 0.0
C757 C 0.42351 0.16632 0.14793 0.0
C758 C 0.40475 0.13758 0.14861 0.0
C759 C 0.25634 0.02688 0.11813 0.0
C760 C 0.26326 0.02982 0.08996 0.0
C761 C 0.27691 0.03412 0.13824 0.0
C762 C 0.30484 0.04448 0.13062 0.0
C763 C 0.31174 0.04682 0.10251 0.0
C764 C 0.29111 0.03937 0.08234 0.0
C765 C 0.32701 0.05477 0.15199 0.0
C766 C 0.3478 0.08301 0.15137 0.0
C767 C 0.32651 0.03774 0.17401 0.0
C768 C 0.3054 0.00759 0.17546 0.0
C769 C 0.30166 0.98972 0.15322 0.0
C770 C 0.28156 0.96138 0.15464 0.0
C771 C 0.26517 0.95062 0.17827 0.0
C772 C 0.2689 0.96817 0.20056 0.0
C773 C 0.28896 0.99653 0.19923 0.0
H774 H 0.24961 0.92867 0.17933 0.0
H775 H 0.43962 0.20539 0.16958 0.0
H776 H 0.02274 0.24795 0.12905 0.0
H777 H 0.00959 0.27041 0.16464 0.0
H778 H 0.97313 0.2984 0.10274 0.0
H779 H 0.98725 0.27679 0.06681 0.0
H780 H 0.99755 0.33741 0.14038 0.0
H781 H 0.93306 0.23891 0.14276 0.0
H782 H 0.91856 0.18893 0.14554 0.0
H783 H 0.9568 0.20193 0.22526 0.0
H784 H 0.97186 0.25209 0.22279 0.0
H785 H 0.89952 0.35008 0.22579 0.0
H786 H 0.92385 0.33786 0.1914 0.0
H787 H 0.96655 0.32065 0.25609 0.0
H788 H 0.94222 0.33291 0.29077 0.0
H789 H 0.94131 0.27778 0.21835 0.0
H790 H 0.00229 0.37703 0.21615 0.0
H791 H 0.01407 0.42621 0.21237 0.0
H792 H 0.97885 0.41069 0.13104 0.0
H793 H 0.96649 0.36131 0.13448 0.0
C794 C 0.01216 0.25913 0.12296 0.0
C795 C 0.00579 0.26038 0.09514 0.0
C796 C 0.00453 0.27186 0.14337 0.0
C797 C 0.98974 0.28554 0.13651 0.0
C798 C 0.98439 0.28784 0.10859 0.0
C799 C 0.99243 0.27546 0.08807 0.0
C800 C 0.97894 0.29641 0.15852 0.0
C801 C 0.98502 0.32428 0.15728 0.0
C802 C 0.96294 0.27947 0.18088 0.0
C803 C 0.95384 0.2493 0.18246 0.0
C804 C 0.93855 0.23114 0.16079 0.0
C805 C 0.93021 0.20278 0.16233 0.0
C806 C 0.93682 0.19227 0.18553 0.0
C807 C 0.95174 0.21011 0.20728 0.0
C808 C 0.96016 0.2385 0.20584 0.0
C809 C 0.91435 0.34404 0.23275 0.0
C810 C 0.91889 0.3424 0.26104 0.0
C811 C 0.92834 0.33718 0.21302 0.0
C812 C 0.94713 0.32849 0.22116 0.0
C813 C 0.95217 0.32737 0.24937 0.0
C814 C 0.93833 0.33447 0.26915 0.0
C815 C 0.95994 0.31873 0.20022 0.0
C816 C 0.95408 0.29099 0.2016 0.0
C817 C 0.97575 0.33568 0.17784 0.0
C818 C 0.98326 0.3654 0.17567 0.0
C819 C 0.99685 0.38405 0.19754 0.0
C820 C 0.00368 0.41197 0.19545 0.0
C821 C 0.99716 0.42155 0.17151 0.0
C822 C 0.98387 0.40324 0.14958 0.0
C823 C 0.97698 0.37529 0.15158 0.0
H824 H 0.00246 0.44318 0.16992 0.0
H825 H 0.93034 0.17031 0.18667 0.0
H826 H 0.6773 0.62879 0.28603 0.0
H827 H 0.68728 0.66371 0.25005 0.0
H828 H 0.71375 0.61961 0.19558 0.0
H829 H 0.70238 0.58416 0.23066 0.0
H830 H 0.73109 0.6996 0.22758 0.0
H831 H 0.70776 0.62885 0.12986 0.0
H832 H 0.67326 0.5812 0.11489 0.0
H833 H 0.61479 0.57855 0.1747 0.0
H834 H 0.64877 0.62632 0.18977 0.0
H835 H 0.81331 0.78039 0.11866 0.0
H836 H 0.78822 0.746 0.15441 0.0
H837 H 0.7109 0.71837 0.11049 0.0
H838 H 0.73655 0.75175 0.0735 0.0
H839 H 0.70913 0.6758 0.12876 0.0
H840 H 0.72981 0.75968 0.17338 0.0
H841 H 0.75793 0.80847 0.18909 0.0
H842 H 0.80968 0.78682 0.23681 0.0
H843 H 0.78212 0.73797 0.2211 0.0
C844 C 0.68484 0.6264 0.26619 0.0
C845 C 0.68882 0.60361 0.2611 0.0
C846 C 0.69062 0.6464 0.24565 0.0
C847 C 0.70086 0.64419 0.21977 0.0
C848 C 0.70501 0.62147 0.21489 0.0
C849 C 0.69868 0.60124 0.23513 0.0
C850 C 0.7089 0.66631 0.19837 0.0
C851 C 0.72605 0.69437 0.20602 0.0
C852 C 0.70159 0.65982 0.17024 0.0
C853 C 0.68093 0.63114 0.16107 0.0
C854 C 0.68749 0.61818 0.13971 0.0
C855 C 0.66803 0.59112 0.13124 0.0
C856 C 0.64188 0.57684 0.14388 0.0
C857 C 0.63509 0.58961 0.16498 0.0
C858 C 0.65446 0.61666 0.17352 0.0
C859 C 0.79093 0.76709 0.11668 0.0
C860 C 0.77684 0.76886 0.09339 0.0
C861 C 0.7765 0.74754 0.13732 0.0
C862 C 0.74742 0.72994 0.13573 0.0
C863 C 0.73327 0.73172 0.11239 0.0
C864 C 0.7479 0.75083 0.09127 0.0
C865 C 0.73227 0.70895 0.15787 0.0
C866 C 0.71379 0.6811 0.15037 0.0
C867 C 0.73734 0.71581 0.18626 0.0
C868 C 0.75395 0.74516 0.19592 0.0
C869 C 0.74728 0.76535 0.1871 0.0
C870 C 0.76311 0.79302 0.19602 0.0
C871 C 0.78559 0.80074 0.21391 0.0
C872 C 0.79225 0.7808 0.22296 0.0
C873 C 0.7765 0.7531 0.21409 0.0
H874 H 0.79783 0.82218 0.22078 0.0
H875 H 0.62685 0.55589 0.13729 0.0
H876 H 0.06054 0.42403 0.61934 0.0
H877 H 0.02541 0.4019 0.58308 0.0
H878 H 0.09044 0.43444 0.52154 0.0
H879 H 0.12542 0.45735 0.55756 0.0
H880 H 0.05196 0.44438 0.50625 0.0
H881 H 0.05154 0.36278 0.53944 0.0
H882 H 0.04842 0.32864 0.57397 0.0
H883 H 0.96516 0.30922 0.59458 0.0
H884 H 0.96791 0.34353 0.56041 0.0
H885 H 0.96159 0.37144 0.39461 0.0
H886 H 0.99786 0.38361 0.4296 0.0
H887 H 0.93721 0.36524 0.49381 0.0
H888 H 0.90096 0.35314 0.45909 0.0
H889 H 0.9743 0.34621 0.50616 0.0
H890 H 0.97691 0.43046 0.47477 0.0
H891 H 0.98035 0.46435 0.43975 0.0
H892 H 0.06078 0.47805 0.41515 0.0
H893 H 0.05763 0.44392 0.44979 0.0
C894 C 0.06734 0.42614 0.5981 0.0
C895 C 0.09573 0.44251 0.59131 0.0
C896 C 0.04724 0.41337 0.57736 0.0
C897 C 0.05522 0.41628 0.54948 0.0
C898 C 0.08369 0.43193 0.54283 0.0
C899 C 0.10369 0.44498 0.56348 0.0
C900 C 0.03395 0.40467 0.52711 0.0
C901 C 0.03533 0.42274 0.50603 0.0
C902 C 0.01179 0.3766 0.52698 0.0
C903 C 0.01004 0.35592 0.54753 0.0
C904 C 0.03264 0.35139 0.55148 0.0
C905 C 0.03093 0.33197 0.57096 0.0
C906 C 0.00663 0.31682 0.58651 0.0
C907 C 0.98398 0.321 0.58254 0.0
C908 C 0.98559 0.3404 0.5631 0.0
C909 C 0.95591 0.36962 0.41618 0.0
C910 C 0.92845 0.36154 0.42407 0.0
C911 C 0.97666 0.37665 0.43614 0.0
C912 C 0.97026 0.37557 0.4643 0.0
C913 C 0.9426 0.36622 0.47222 0.0
C914 C 0.92194 0.35943 0.45231 0.0
C915 C 0.99258 0.38592 0.4855 0.0
C916 C 0.99123 0.3677 0.50635 0.0
C917 C 0.01492 0.4138 0.48538 0.0
C918 C 0.01689 0.43441 0.46464 0.0
C919 C 0.99522 0.44052 0.46173 0.0
C920 C 0.99714 0.45981 0.44198 0.0
C921 C 0.02073 0.47328 0.42518 0.0
C922 C 0.04249 0.46756 0.42814 0.0
C923 C 0.04066 0.44826 0.44783 0.0
H924 H 0.02218 0.48821 0.40991 0.0
H925 H 0.00534 0.3018 0.60158 0.0
H926 H 0.65655 0.61466 0.40116 0.0
H927 H 0.64379 0.63644 0.43799 0.0
H928 H 0.67883 0.60531 0.49827 0.0
H929 H 0.6907 0.58275 0.46169 0.0
H930 H 0.63023 0.59426 0.5146 0.0
H931 H 0.7098 0.67682 0.4803 0.0
H932 H 0.73953 0.71115 0.44527 0.0
H933 H 0.67397 0.72866 0.42662 0.0
H934 H 0.64369 0.69415 0.4613 0.0
H935 H 0.61139 0.66477 0.62747 0.0
H936 H 0.63562 0.65325 0.59205 0.0
H937 H 0.59383 0.67312 0.52856 0.0
H938 H 0.56971 0.68478 0.56369 0.0
H939 H 0.64876 0.69179 0.51542 0.0
H940 H 0.56862 0.60675 0.54744 0.0
H941 H 0.53901 0.57243 0.58256 0.0
H942 H 0.60695 0.56004 0.60563 0.0
H943 H 0.6371 0.5946 0.57088 0.0
C944 C 0.66188 0.61281 0.42223 0.0
C945 C 0.67455 0.59691 0.42852 0.0
C946 C 0.65468 0.62538 0.4433 0.0
C947 C 0.66051 0.62274 0.471 0.0
C948 C 0.674 0.6076 0.47713 0.0
C949 C 0.68085 0.59476 0.45616 0.0
C950 C 0.6509 0.63401 0.49375 0.0
C951 C 0.63481 0.61577 0.51498 0.0
C952 C 0.65621 0.66189 0.49406 0.0
C953 C 0.6744 0.68272 0.47324 0.0
C954 C 0.70165 0.68784 0.46859 0.0
C955 C 0.71861 0.70736 0.44882 0.0
C956 C 0.70862 0.72203 0.43368 0.0
C957 C 0.68167 0.71726 0.43834 0.0
C958 C 0.66461 0.69775 0.45808 0.0
C959 C 0.60766 0.66706 0.60597 0.0
C960 C 0.58845 0.67547 0.5984 0.0
C961 C 0.62145 0.66039 0.58576 0.0
C962 C 0.61628 0.66203 0.55766 0.0
C963 C 0.59812 0.67169 0.55009 0.0
C964 C 0.58426 0.67823 0.57024 0.0
C965 C 0.62831 0.65205 0.53611 0.0
C966 C 0.64462 0.67043 0.51509 0.0
C967 C 0.62333 0.62434 0.53599 0.0
C968 C 0.60519 0.60348 0.55679 0.0
C969 C 0.57731 0.59687 0.56016 0.0
C970 C 0.56042 0.57735 0.57997 0.0
C971 C 0.57112 0.56413 0.59637 0.0
C972 C 0.59871 0.57034 0.59294 0.0
C973 C 0.6157 0.58988 0.57319 0.0
H974 H 0.55801 0.54902 0.61169 0.0
H975 H 0.72179 0.73713 0.41838 0.0
H976 H 0.37895 0.91791 0.56538 0.0
H977 H 0.39196 0.95396 0.53055 0.0
H978 H 0.35626 0.99311 0.58012 0.0
H979 H 0.34458 0.95768 0.61595 0.0
H980 H 0.36777 0.96986 0.49806 0.0
H981 H 0.38945 0.06272 0.56869 0.0
H982 H 0.40377 0.07858 0.61655 0.0
H983 H 0.44554 0.03089 0.62096 0.0
H984 H 0.43174 0.01503 0.57305 0.0
H985 H 0.40581 0.08418 0.4071 0.0
H986 H 0.38212 0.04927 0.44338 0.0
H987 H 0.45967 0.08302 0.48835 0.0
H988 H 0.48276 0.11869 0.45318 0.0
H989 H 0.42231 0.07004 0.52338 0.0
H990 H 0.4309 0.02117 0.44521 0.0
H991 H 0.42433 0.00489 0.39699 0.0
H992 H 0.33541 0.96385 0.40713 0.0
H993 H 0.34148 0.98017 0.45534 0.0
C994 C 0.37377 0.93414 0.56888 0.0
C995 C 0.36089 0.93506 0.59351 0.0
C996 C 0.38114 0.95475 0.54884 0.0
C997 C 0.37545 0.9766 0.55268 0.0
C998 C 0.36153 0.97692 0.57685 0.0
C999 C 0.3547 0.95658 0.59727 0.0
C1000 C 0.38497 0.99922 0.53163 0.0
C1001 C 0.37959 0.99177 0.50366 0.0
C1002 C 0.40071 0.02789 0.53869 0.0
C1003 C 0.40924 0.03742 0.56744 0.0
C1004 C 0.40173 0.05567 0.57988 0.0
C1005 C 0.40975 0.06465 0.60701 0.0
C1006 C 0.42545 0.05565 0.62182 0.0
C1007 C 0.43327 0.03775 0.6095 0.0
C1008 C 0.42534 0.02874 0.58238 0.0
C1009 C 0.41766 0.08421 0.42488 0.0
C1010 C 0.44614 0.10412 0.42727 0.0
C1011 C 0.40417 0.06415 0.44555 0.0
C1012 C 0.41914 0.06309 0.46854 0.0
C1013 C 0.4475 0.08333 0.47101 0.0
C1014 C 0.46076 0.10372 0.45077 0.0
C1015 C 0.40585 0.04065 0.48976 0.0
C1016 C 0.41027 0.04814 0.51777 0.0
C1017 C 0.39036 0.01196 0.48269 0.0
C1018 C 0.38665 0.00216 0.45373 0.0
C1019 C 0.40996 0.00884 0.43707 0.0
C1020 C 0.40632 0.99958 0.40977 0.0
C1021 C 0.37947 0.98343 0.39897 0.0
C1022 C 0.3562 0.97642 0.41549 0.0
C1023 C 0.35972 0.98566 0.44281 0.0
H1024 H 0.3767 0.97628 0.37783 0.0
H1025 H 0.43163 0.06262 0.64282 0.0
loop_
_geom_bond_atom_site_label_1
_geom_bond_atom_site_label_2
_geom_bond_distance
_geom_bond_site_symmetry_2
_ccdc_geom_bond_type
O0 Cd1 2.223 . S
O0 C8 1.315 . S
Cd1 O0 2.223 . S
Cd1 O4 2.297 . S
Cd1 O5 2.439 . S
Cd1 O11 2.240 1_456 S
Cd2 O3 2.240 . S
Cd2 O10 2.223 1_455 S
Cd2 O12 2.297 1_455 S
Cd2 O13 2.439 1_455 S
O3 Cd2 2.240 . S
O3 C8 1.279 1_554 S
O4 Cd1 2.297 . S
O4 C6 1.247 . S
O5 Cd1 2.439 . S
O5 C6 1.208 . S
C6 O4 1.247 . S
C6 O5 1.208 . S
C7 O12 1.247 . S
C7 O13 1.208 . S
C8 O0 1.315 . S
C8 O3 1.279 1_556 S
C9 O10 1.315 . S
C9 O11 1.279 . S
O10 Cd2 2.223 1_655 S
O10 C9 1.315 . S
O11 Cd1 2.240 1_654 S
O11 C9 1.279 . S
O12 Cd2 2.297 1_655 S
O12 C7 1.247 . S
O13 Cd2 2.439 1_655 S
O13 C7 1.208 . S
O14 Cd15 2.223 . S
O14 C22 1.315 . S
Cd15 O14 2.223 . S
Cd15 O18 2.297 . S
Cd15 O19 2.439 . S
Cd15 O25 2.240 . S
Cd16 O17 2.240 1_556 S
Cd16 O24 2.223 . S
Cd16 O26 2.297 . S
Cd16 O27 2.439 . S
O17 Cd16 2.240 1_554 S
O17 C22 1.279 . S
O18 Cd15 2.297 . S
O18 C20 1.247 . S
O19 Cd15 2.439 . S
O19 C20 1.208 . S
C20 O18 1.247 . S
C20 O19 1.208 . S
C21 O26 1.247 . S
C21 O27 1.208 . S
C22 O14 1.315 . S
C22 O17 1.279 . S
C23 O24 1.315 . S
C23 O25 1.279 1_556 S
O24 Cd16 2.223 . S
O24 C23 1.315 . S
O25 Cd15 2.240 . S
O25 C23 1.279 1_554 S
O26 Cd16 2.297 . S
O26 C21 1.247 . S
O27 Cd16 2.439 . S
O27 C21 1.208 . S
O28 Cd29 2.223 1_565 S
O28 C36 1.315 . S
Cd29 O28 2.223 1_545 S
Cd29 O32 2.297 1_545 S
Cd29 O33 2.439 . S
Cd29 O39 2.240 1_556 S
Cd30 O31 2.240 1_545 S
Cd30 O38 2.223 . S
Cd30 O40 2.297 . S
Cd30 O41 2.439 . S
O31 Cd30 2.240 1_565 S
O31 C36 1.279 1_554 S
O32 Cd29 2.297 1_565 S
O32 C34 1.247 . S
O33 Cd29 2.439 . S
O33 C34 1.208 1_545 S
C34 O32 1.247 . S
C34 O33 1.208 1_565 S
C35 O40 1.247 . S
C35 O41 1.208 . S
C36 O28 1.315 . S
C36 O31 1.279 1_556 S
C37 O38 1.315 . S
C37 O39 1.279 . S
O38 Cd30 2.223 . S
O38 C37 1.315 . S
O39 Cd29 2.240 1_554 S
O39 C37 1.279 . S
O40 Cd30 2.297 . S
O40 C35 1.247 . S
O41 Cd30 2.439 . S
O41 C35 1.208 . S
O42 Cd43 2.223 . S
O42 C50 1.315 . S
Cd43 O42 2.223 . S
Cd43 O46 2.297 . S
Cd43 O47 2.439 . S
Cd43 O53 2.240 . S
Cd44 O45 2.240 . S
Cd44 O52 2.223 . S
Cd44 O54 2.297 . S
Cd44 O55 2.439 . S
O45 Cd44 2.240 . S
O45 C50 1.279 . S
O46 Cd43 2.297 . S
O46 C48 1.247 . S
O47 Cd43 2.439 . S
O47 C48 1.208 . S
C48 O46 1.247 . S
C48 O47 1.208 . S
C49 O54 1.247 . S
C49 O55 1.208 . S
C50 O42 1.315 . S
C50 O45 1.279 . S
C51 O52 1.315 . S
C51 O53 1.279 . S
O52 Cd44 2.223 . S
O52 C51 1.315 . S
O53 Cd43 2.240 . S
O53 C51 1.279 . S
O54 Cd44 2.297 . S
O54 C49 1.247 . S
O55 Cd44 2.439 . S
O55 C49 1.208 . S
O56 Cd57 2.223 . S
O56 C64 1.315 . S
Cd57 O56 2.223 . S
Cd57 O60 2.297 . S
Cd57 O61 2.439 . S
Cd57 O67 2.240 . S
Cd58 O59 2.240 . S
Cd58 O66 2.223 . S
Cd58 O68 2.297 . S
Cd58 O69 2.439 . S
O59 Cd58 2.240 . S
O59 C64 1.279 . S
O60 Cd57 2.297 . S
O60 C62 1.247 . S
O61 Cd57 2.439 . S
O61 C62 1.208 . S
C62 O60 1.247 . S
C62 O61 1.208 . S
C63 O68 1.247 . S
C63 O69 1.208 . S
C64 O56 1.315 . S
C64 O59 1.279 . S
C65 O66 1.315 . S
C65 O67 1.279 . S
O66 Cd58 2.223 . S
O66 C65 1.315 . S
O67 Cd57 2.240 . S
O67 C65 1.279 . S
O68 Cd58 2.297 . S
O68 C63 1.247 . S
O69 Cd58 2.439 . S
O69 C63 1.208 . S
O70 Cd71 2.223 . S
O70 C78 1.315 . S
Cd71 O70 2.223 . S
Cd71 O74 2.297 . S
Cd71 O75 2.439 . S
Cd71 O81 2.240 . S
Cd72 O73 2.240 . S
Cd72 O80 2.223 . S
Cd72 O82 2.297 . S
Cd72 O83 2.439 . S
O73 Cd72 2.240 . S
O73 C78 1.279 . S
O74 Cd71 2.297 . S
O74 C76 1.247 . S
O75 Cd71 2.439 . S
O75 C76 1.208 . S
C76 O74 1.247 . S
C76 O75 1.208 . S
C77 O82 1.247 . S
C77 O83 1.208 . S
C78 O70 1.315 . S
C78 O73 1.279 . S
C79 O80 1.315 . S
C79 O81 1.279 . S
O80 Cd72 2.223 . S
O80 C79 1.315 . S
O81 Cd71 2.240 . S
O81 C79 1.279 . S
O82 Cd72 2.297 . S
O82 C77 1.247 . S
O83 Cd72 2.439 . S
O83 C77 1.208 . S
O84 Cd85 2.223 . S
O84 C92 1.315 . S
Cd85 O84 2.223 . S
Cd85 O88 2.297 . S
Cd85 O89 2.439 . S
Cd85 O95 2.240 . S
Cd86 O87 2.240 . S
Cd86 O94 2.223 . S
Cd86 O96 2.297 . S
Cd86 O97 2.439 . S
O87 Cd86 2.240 . S
O87 C92 1.279 . S
O88 Cd85 2.297 . S
O88 C90 1.247 . S
O89 Cd85 2.439 . S
O89 C90 1.208 . S
C90 O88 1.247 . S
C90 O89 1.208 . S
C91 O96 1.247 . S
C91 O97 1.208 . S
C92 O84 1.315 . S
C92 O87 1.279 . S
C93 O94 1.315 . S
C93 O95 1.279 . S
O94 Cd86 2.223 . S
O94 C93 1.315 . S
O95 Cd85 2.240 . S
O95 C93 1.279 . S
O96 Cd86 2.297 . S
O96 C91 1.247 . S
O97 Cd86 2.439 . S
O97 C91 1.208 . S
O98 Cd99 2.223 . S
O98 C106 1.315 . S
Cd99 O98 2.223 . S
Cd99 O102 2.297 . S
Cd99 O103 2.439 . S
Cd99 O109 2.240 . S
Cd100 O101 2.240 . S
Cd100 O108 2.223 . S
Cd100 O110 2.297 . S
Cd100 O111 2.439 . S
O101 Cd100 2.240 . S
O101 C106 1.279 . S
O102 Cd99 2.297 . S
O102 C104 1.247 . S
O103 Cd99 2.439 . S
O103 C104 1.208 . S
C104 O102 1.247 . S
C104 O103 1.208 . S
C105 O110 1.247 . S
C105 O111 1.208 . S
C106 O98 1.315 . S
C106 O101 1.279 . S
C107 O108 1.315 . S
C107 O109 1.279 . S
O108 Cd100 2.223 . S
O108 C107 1.315 . S
O109 Cd99 2.240 . S
O109 C107 1.279 . S
O110 Cd100 2.297 . S
O110 C105 1.247 . S
O111 Cd100 2.439 . S
O111 C105 1.208 . S
O112 Cd113 2.223 . S
O112 C120 1.315 . S
Cd113 O112 2.223 . S
Cd113 O116 2.297 . S
Cd113 O117 2.439 . S
Cd113 O123 2.240 . S
Cd114 O115 2.240 . S
Cd114 O122 2.223 . S
Cd114 O124 2.297 . S
Cd114 O125 2.439 . S
O115 Cd114 2.240 . S
O115 C120 1.279 . S
O116 Cd113 2.297 . S
O116 C118 1.247 . S
O117 Cd113 2.439 . S
O117 C118 1.208 . S
C118 O116 1.247 . S
C118 O117 1.208 . S
C119 O124 1.247 . S
C119 O125 1.208 . S
C120 O112 1.315 . S
C120 O115 1.279 . S
C121 O122 1.315 . S
C121 O123 1.279 . S
O122 Cd114 2.223 . S
O122 C121 1.315 . S
O123 Cd113 2.240 . S
O123 C121 1.279 . S
O124 Cd114 2.297 . S
O124 C119 1.247 . S
O125 Cd114 2.439 . S
O125 C119 1.208 . S
H126 C144 0.951 . S
H127 C146 0.951 . S
H128 C148 0.950 . S
H129 C149 0.950 . S
H130 C151 0.950 . S
H131 C154 0.950 . S
H132 C155 0.950 . S
H133 C157 0.950 . S
H134 C158 0.950 . S
H135 C159 0.951 . S
H136 C161 0.951 . S
H137 C163 0.950 . S
H138 C164 0.950 . S
H139 C166 0.950 . S
H140 C169 0.950 . S
H141 C170 0.950 . S
H142 C172 0.950 . S
H143 C173 0.950 . S
C144 H126 0.951 . S
C144 C145 1.366 . S
C144 C146 1.388 . S
C145 C144 1.366 . S
C145 C149 1.385 . S
C146 H127 0.951 . S
C146 C144 1.388 . S
C146 C147 1.366 . S
C147 C146 1.366 . S
C147 C148 1.414 . S
C147 C150 1.499 . S
C148 H128 0.950 . S
C148 C147 1.414 . S
C148 C149 1.374 . S
C149 H129 0.950 . S
C149 C145 1.385 . S
C149 C148 1.374 . S
C150 C147 1.499 . S
C150 C151 1.373 1_554 S
C150 C152 1.389 . S
C151 H130 0.950 . S
C151 C150 1.373 1_556 S
C151 C167 1.377 . S
C152 C150 1.389 . S
C152 C153 1.524 . S
C152 C166 1.377 . S
C153 C152 1.524 . S
C153 C154 1.397 . S
C153 C158 1.363 . S
C154 H131 0.950 . S
C154 C153 1.397 . S
C154 C155 1.334 . S
C155 H132 0.950 . S
C155 C154 1.334 . S
C155 C156 1.287 . S
C156 C155 1.287 . S
C156 C157 1.524 . S
C156 H175 0.913 . S
C157 H133 0.950 . S
C157 C156 1.524 . S
C157 C158 1.415 . S
C158 H134 0.950 . S
C158 C153 1.363 . S
C158 C157 1.415 . S
C159 H135 0.951 . S
C159 C160 1.366 . S
C159 C161 1.388 . S
C160 C159 1.366 . S
C160 C164 1.385 1_554 S
C161 H136 0.951 . S
C161 C159 1.388 . S
C161 C162 1.366 . S
C162 C161 1.366 . S
C162 C163 1.414 1_554 S
C162 C165 1.499 . S
C163 H137 0.950 . S
C163 C162 1.414 1_556 S
C163 C164 1.374 . S
C164 H138 0.950 . S
C164 C160 1.385 1_556 S
C164 C163 1.374 . S
C165 C162 1.499 . S
C165 C166 1.373 . S
C165 C167 1.389 1_554 S
C166 H139 0.950 . S
C166 C152 1.377 . S
C166 C165 1.373 . S
C167 C151 1.377 . S
C167 C165 1.389 1_556 S
C167 C168 1.524 . S
C168 C167 1.524 . S
C168 C169 1.397 . S
C168 C173 1.363 . S
C169 H140 0.950 . S
C169 C168 1.397 . S
C169 C170 1.334 . S
C170 H141 0.950 . S
C170 C169 1.334 . S
C170 C171 1.287 . S
C171 C170 1.287 . S
C171 C172 1.524 . S
C171 H174 0.999 . S
C172 H142 0.950 . S
C172 C171 1.524 . S
C172 C173 1.415 . S
C173 H143 0.950 . S
C173 C168 1.363 . S
C173 C172 1.415 . S
H174 C171 0.999 . S
H175 C156 0.913 . S
H176 C194 0.951 . S
H177 C196 0.951 . S
H178 C198 0.950 . S
H179 C199 0.950 . S
H180 C201 0.950 1_565 S
H181 C204 0.950 . S
H182 C205 0.950 . S
H183 C207 0.950 . S
H184 C208 0.950 1_545 S
H185 C209 0.951 . S
H186 C211 0.951 . S
H187 C213 0.950 . S
H188 C214 0.950 . S
H189 C216 0.950 . S
H190 C219 0.950 . S
H191 C220 0.950 1_455 S
H192 C222 0.950 . S
H193 C223 0.950 . S
C194 H176 0.951 . S
C194 C195 1.366 . S
C194 C196 1.388 . S
C195 C194 1.366 . S
C195 C199 1.385 1_554 S
C196 H177 0.951 . S
C196 C194 1.388 . S
C196 C197 1.366 . S
C197 C196 1.366 . S
C197 C198 1.414 1_554 S
C197 C200 1.499 . S
C198 H178 0.950 . S
C198 C197 1.414 1_556 S
C198 C199 1.374 . S
C199 H179 0.950 . S
C199 C195 1.385 1_556 S
C199 C198 1.374 . S
C200 C197 1.499 . S
C200 C201 1.373 1_564 S
C200 C202 1.389 1_565 S
C201 H180 0.950 1_545 S
C201 C200 1.373 1_546 S
C201 C217 1.377 . S
C202 C200 1.389 1_545 S
C202 C203 1.524 1_545 S
C202 C216 1.377 . S
C203 C202 1.524 1_565 S
C203 C204 1.397 . S
C203 C208 1.363 . S
C204 H181 0.950 . S
C204 C203 1.397 . S
C204 C205 1.334 . S
C205 H182 0.950 . S
C205 C204 1.334 . S
C205 C206 1.287 . S
C206 C205 1.287 . S
C206 C207 1.524 . S
C206 H225 0.913 . S
C207 H183 0.950 . S
C207 C206 1.524 . S
C207 C208 1.415 . S
C208 H184 0.950 1_565 S
C208 C203 1.363 . S
C208 C207 1.415 . S
C209 H185 0.951 . S
C209 C210 1.366 1_556 S
C209 C211 1.388 . S
C210 C209 1.366 1_554 S
C210 C214 1.385 . S
C211 H186 0.951 . S
C211 C209 1.388 . S
C211 C212 1.366 1_556 S
C212 C211 1.366 1_554 S
C212 C213 1.414 . S
C212 C215 1.499 . S
C213 H187 0.950 . S
C213 C212 1.414 . S
C213 C214 1.374 . S
C214 H188 0.950 . S
C214 C210 1.385 . S
C214 C213 1.374 . S
C215 C212 1.499 . S
C215 C216 1.373 . S
C215 C217 1.389 1_554 S
C216 H189 0.950 . S
C216 C202 1.377 . S
C216 C215 1.373 . S
C217 C201 1.377 . S
C217 C215 1.389 1_556 S
C217 C218 1.524 . S
C218 C217 1.524 . S
C218 C219 1.397 . S
C218 C223 1.363 . S
C219 H190 0.950 . S
C219 C218 1.397 . S
C219 C220 1.334 . S
C220 H191 0.950 1_655 S
C220 C219 1.334 . S
C220 C221 1.287 . S
C221 C220 1.287 . S
C221 C222 1.524 . S
C221 H224 0.999 1_655 S
C222 H192 0.950 . S
C222 C221 1.524 . S
C222 C223 1.415 . S
C223 H193 0.950 . S
C223 C218 1.363 . S
C223 C222 1.415 . S
H224 C221 0.999 1_455 S
H225 C206 0.913 . S
H226 C244 0.951 . S
H227 C246 0.951 . S
H228 C248 0.950 1_556 S
H229 C249 0.950 1_556 S
H230 C251 0.950 . S
H231 C254 0.950 . S
H232 C255 0.950 . S
H233 C257 0.950 . S
H234 C258 0.950 1_455 S
H235 C259 0.951 . S
H236 C261 0.951 . S
H237 C263 0.950 . S
H238 C264 0.950 . S
H239 C266 0.950 . S
H240 C269 0.950 . S
H241 C270 0.950 . S
H242 C272 0.950 . S
H243 C273 0.950 . S
C244 H226 0.951 . S
C244 C245 1.366 . S
C244 C246 1.388 . S
C245 C244 1.366 . S
C245 C249 1.385 . S
C246 H227 0.951 . S
C246 C244 1.388 . S
C246 C247 1.366 . S
C247 C246 1.366 . S
C247 C248 1.414 . S
C247 C250 1.499 . S
C248 H228 0.950 1_554 S
C248 C247 1.414 . S
C248 C249 1.374 . S
C249 H229 0.950 1_554 S
C249 C245 1.385 . S
C249 C248 1.374 . S
C250 C247 1.499 . S
C250 C251 1.373 1_554 S
C250 C252 1.389 1_655 S
C251 H230 0.950 . S
C251 C250 1.373 1_556 S
C251 C267 1.377 1_655 S
C252 C250 1.389 1_455 S
C252 C253 1.524 1_455 S
C252 C266 1.377 . S
C253 C252 1.524 1_655 S
C253 C254 1.397 . S
C253 C258 1.363 . S
C254 H231 0.950 . S
C254 C253 1.397 . S
C254 C255 1.334 . S
C255 H232 0.950 . S
C255 C254 1.334 . S
C255 C256 1.287 . S
C256 C255 1.287 . S
C256 C257 1.524 . S
C256 H275 0.913 . S
C257 H233 0.950 . S
C257 C256 1.524 . S
C257 C258 1.415 . S
C258 H234 0.950 1_655 S
C258 C253 1.363 . S
C258 C257 1.415 . S
C259 H235 0.951 . S
C259 C260 1.366 1_556 S
C259 C261 1.388 . S
C260 C259 1.366 1_554 S
C260 C264 1.385 . S
C261 H236 0.951 . S
C261 C259 1.388 . S
C261 C262 1.366 1_556 S
C262 C261 1.366 1_554 S
C262 C263 1.414 . S
C262 C265 1.499 . S
C263 H237 0.950 . S
C263 C262 1.414 . S
C263 C264 1.374 . S
C264 H238 0.950 . S
C264 C260 1.385 . S
C264 C263 1.374 . S
C265 C262 1.499 . S
C265 C266 1.373 . S
C265 C267 1.389 1_554 S
C266 H239 0.950 . S
C266 C252 1.377 . S
C266 C265 1.373 . S
C267 C251 1.377 1_455 S
C267 C265 1.389 1_556 S
C267 C268 1.524 . S
C268 C267 1.524 . S
C268 C269 1.397 . S
C268 C273 1.363 . S
C269 H240 0.950 . S
C269 C268 1.397 . S
C269 C270 1.334 . S
C270 H241 0.950 . S
C270 C269 1.334 . S
C270 C271 1.287 . S
C271 C270 1.287 . S
C271 C272 1.524 . S
C271 H274 0.999 . S
C272 H242 0.950 . S
C272 C271 1.524 . S
C272 C273 1.415 . S
C273 H243 0.950 . S
C273 C268 1.363 . S
C273 C272 1.415 . S
H274 C271 0.999 . S
H275 C256 0.913 . S
H276 C294 0.951 . S
H277 C296 0.951 . S
H278 C298 0.950 . S
H279 C299 0.950 . S
H280 C301 0.950 . S
H281 C304 0.950 . S
H282 C305 0.950 . S
H283 C307 0.950 . S
H284 C308 0.950 . S
H285 C309 0.951 . S
H286 C311 0.951 . S
H287 C313 0.950 . S
H288 C314 0.950 . S
H289 C316 0.950 . S
H290 C319 0.950 . S
H291 C320 0.950 . S
H292 C322 0.950 . S
H293 C323 0.950 . S
C294 H276 0.951 . S
C294 C295 1.366 . S
C294 C296 1.388 . S
C295 C294 1.366 . S
C295 C299 1.385 . S
C296 H277 0.951 . S
C296 C294 1.388 . S
C296 C297 1.366 . S
C297 C296 1.366 . S
C297 C298 1.414 . S
C297 C300 1.499 . S
C298 H278 0.950 . S
C298 C297 1.414 . S
C298 C299 1.374 . S
C299 H279 0.950 . S
C299 C295 1.385 . S
C299 C298 1.374 . S
C300 C297 1.499 . S
C300 C301 1.373 . S
C300 C302 1.389 . S
C301 H280 0.950 . S
C301 C300 1.373 . S
C301 C317 1.377 . S
C302 C300 1.389 . S
C302 C303 1.524 . S
C302 C316 1.377 . S
C303 C302 1.524 . S
C303 C304 1.397 . S
C303 C308 1.363 . S
C304 H281 0.950 . S
C304 C303 1.397 . S
C304 C305 1.334 . S
C305 H282 0.950 . S
C305 C304 1.334 . S
C305 C306 1.287 . S
C306 C305 1.287 . S
C306 C307 1.524 . S
C306 H325 0.913 . S
C307 H283 0.950 . S
C307 C306 1.524 . S
C307 C308 1.415 . S
C308 H284 0.950 . S
C308 C303 1.363 . S
C308 C307 1.415 . S
C309 H285 0.951 . S
C309 C310 1.366 . S
C309 C311 1.388 . S
C310 C309 1.366 . S
C310 C314 1.385 . S
C311 H286 0.951 . S
C311 C309 1.388 . S
C311 C312 1.366 . S
C312 C311 1.366 . S
C312 C313 1.414 . S
C312 C315 1.499 . S
C313 H287 0.950 . S
C313 C312 1.414 . S
C313 C314 1.374 . S
C314 H288 0.950 . S
C314 C310 1.385 . S
C314 C313 1.374 . S
C315 C312 1.499 . S
C315 C316 1.373 . S
C315 C317 1.389 . S
C316 H289 0.950 . S
C316 C302 1.377 . S
C316 C315 1.373 . S
C317 C301 1.377 . S
C317 C315 1.389 . S
C317 C318 1.524 . S
C318 C317 1.524 . S
C318 C319 1.397 . S
C318 C323 1.363 . S
C319 H290 0.950 . S
C319 C318 1.397 . S
C319 C320 1.334 . S
C320 H291 0.950 . S
C320 C319 1.334 . S
C320 C321 1.287 . S
C321 C320 1.287 . S
C321 C322 1.524 . S
C321 H324 0.999 . S
C322 H292 0.950 . S
C322 C321 1.524 . S
C322 C323 1.415 . S
C323 H293 0.950 . S
C323 C318 1.363 . S
C323 C322 1.415 . S
H324 C321 0.999 . S
H325 C306 0.913 . S
H326 C344 0.951 . S
H327 C346 0.951 . S
H328 C348 0.950 . S
H329 C349 0.950 . S
H330 C351 0.950 . S
H331 C354 0.950 . S
H332 C355 0.950 . S
H333 C357 0.950 . S
H334 C358 0.950 . S
H335 C359 0.951 . S
H336 C361 0.951 . S
H337 C363 0.950 . S
H338 C364 0.950 . S
H339 C366 0.950 . S
H340 C369 0.950 . S
H341 C370 0.950 . S
H342 C372 0.950 . S
H343 C373 0.950 . S
C344 H326 0.951 . S
C344 C345 1.366 . S
C344 C346 1.388 . S
C345 C344 1.366 . S
C345 C349 1.385 . S
C346 H327 0.951 . S
C346 C344 1.388 . S
C346 C347 1.366 . S
C347 C346 1.366 . S
C347 C348 1.414 . S
C347 C350 1.499 . S
C348 H328 0.950 . S
C348 C347 1.414 . S
C348 C349 1.374 . S
C349 H329 0.950 . S
C349 C345 1.385 . S
C349 C348 1.374 . S
C350 C347 1.499 . S
C350 C351 1.373 . S
C350 C352 1.389 . S
C351 H330 0.950 . S
C351 C350 1.373 . S
C351 C367 1.377 . S
C352 C350 1.389 . S
C352 C353 1.524 . S
C352 C366 1.377 . S
C353 C352 1.524 . S
C353 C354 1.397 . S
C353 C358 1.363 . S
C354 H331 0.950 . S
C354 C353 1.397 . S
C354 C355 1.334 . S
C355 H332 0.950 . S
C355 C354 1.334 . S
C355 C356 1.287 . S
C356 C355 1.287 . S
C356 C357 1.524 . S
C356 H375 0.913 . S
C357 H333 0.950 . S
C357 C356 1.524 . S
C357 C358 1.415 . S
C358 H334 0.950 . S
C358 C353 1.363 . S
C358 C357 1.415 . S
C359 H335 0.951 . S
C359 C360 1.366 . S
C359 C361 1.388 . S
C360 C359 1.366 . S
C360 C364 1.385 . S
C361 H336 0.951 . S
C361 C359 1.388 . S
C361 C362 1.366 . S
C362 C361 1.366 . S
C362 C363 1.414 . S
C362 C365 1.499 . S
C363 H337 0.950 . S
C363 C362 1.414 . S
C363 C364 1.374 . S
C364 H338 0.950 . S
C364 C360 1.385 . S
C364 C363 1.374 . S
C365 C362 1.499 . S
C365 C366 1.373 . S
C365 C367 1.389 . S
C366 H339 0.950 . S
C366 C352 1.377 . S
C366 C365 1.373 . S
C367 C351 1.377 . S
C367 C365 1.389 . S
C367 C368 1.524 . S
C368 C367 1.524 . S
C368 C369 1.397 . S
C368 C373 1.363 . S
C369 H340 0.950 . S
C369 C368 1.397 . S
C369 C370 1.334 . S
C370 H341 0.950 . S
C370 C369 1.334 . S
C370 C371 1.287 . S
C371 C370 1.287 . S
C371 C372 1.524 . S
C371 H374 0.999 . S
C372 H342 0.950 . S
C372 C371 1.524 . S
C372 C373 1.415 . S
C373 H343 0.950 . S
C373 C368 1.363 . S
C373 C372 1.415 . S
H374 C371 0.999 . S
H375 C356 0.913 . S
H376 C394 0.951 . S
H377 C396 0.951 . S
H378 C398 0.950 . S
H379 C399 0.950 . S
H380 C401 0.950 . S
H381 C404 0.950 . S
H382 C405 0.950 . S
H383 C407 0.950 . S
H384 C408 0.950 . S
H385 C409 0.951 . S
H386 C411 0.951 . S
H387 C413 0.950 . S
H388 C414 0.950 . S
H389 C416 0.950 . S
H390 C419 0.950 . S
H391 C420 0.950 . S
H392 C422 0.950 . S
H393 C423 0.950 . S
C394 H376 0.951 . S
C394 C395 1.366 . S
C394 C396 1.388 . S
C395 C394 1.366 . S
C395 C399 1.385 . S
C396 H377 0.951 . S
C396 C394 1.388 . S
C396 C397 1.366 . S
C397 C396 1.366 . S
C397 C398 1.414 . S
C397 C400 1.499 . S
C398 H378 0.950 . S
C398 C397 1.414 . S
C398 C399 1.374 . S
C399 H379 0.950 . S
C399 C395 1.385 . S
C399 C398 1.374 . S
C400 C397 1.499 . S
C400 C401 1.373 . S
C400 C402 1.389 . S
C401 H380 0.950 . S
C401 C400 1.373 . S
C401 C417 1.377 . S
C402 C400 1.389 . S
C402 C403 1.524 . S
C402 C416 1.377 . S
C403 C402 1.524 . S
C403 C404 1.397 . S
C403 C408 1.363 . S
C404 H381 0.950 . S
C404 C403 1.397 . S
C404 C405 1.334 . S
C405 H382 0.950 . S
C405 C404 1.334 . S
C405 C406 1.287 . S
C406 C405 1.287 . S
C406 C407 1.524 . S
C406 H425 0.913 . S
C407 H383 0.950 . S
C407 C406 1.524 . S
C407 C408 1.415 . S
C408 H384 0.950 . S
C408 C403 1.363 . S
C408 C407 1.415 . S
C409 H385 0.951 . S
C409 C410 1.366 . S
C409 C411 1.388 . S
C410 C409 1.366 . S
C410 C414 1.385 . S
C411 H386 0.951 . S
C411 C409 1.388 . S
C411 C412 1.366 . S
C412 C411 1.366 . S
C412 C413 1.414 . S
C412 C415 1.499 . S
C413 H387 0.950 . S
C413 C412 1.414 . S
C413 C414 1.374 . S
C414 H388 0.950 . S
C414 C410 1.385 . S
C414 C413 1.374 . S
C415 C412 1.499 . S
C415 C416 1.373 . S
C415 C417 1.389 . S
C416 H389 0.950 . S
C416 C402 1.377 . S
C416 C415 1.373 . S
C417 C401 1.377 . S
C417 C415 1.389 . S
C417 C418 1.524 . S
C418 C417 1.524 . S
C418 C419 1.397 . S
C418 C423 1.363 . S
C419 H390 0.950 . S
C419 C418 1.397 . S
C419 C420 1.334 . S
C420 H391 0.950 . S
C420 C419 1.334 . S
C420 C421 1.287 . S
C421 C420 1.287 . S
C421 C422 1.524 . S
C421 H424 0.999 . S
C422 H392 0.950 . S
C422 C421 1.524 . S
C422 C423 1.415 . S
C423 H393 0.950 . S
C423 C418 1.363 . S
C423 C422 1.415 . S
H424 C421 0.999 . S
H425 C406 0.913 . S
H426 C444 0.951 . S
H427 C446 0.951 . S
H428 C448 0.950 . S
H429 C449 0.950 . S
H430 C451 0.950 . S
H431 C454 0.950 . S
H432 C455 0.950 . S
H433 C457 0.950 . S
H434 C458 0.950 . S
H435 C459 0.951 . S
H436 C461 0.951 . S
H437 C463 0.950 . S
H438 C464 0.950 . S
H439 C466 0.950 . S
H440 C469 0.950 . S
H441 C470 0.950 . S
H442 C472 0.950 . S
H443 C473 0.950 . S
C444 H426 0.951 . S
C444 C445 1.366 . S
C444 C446 1.388 . S
C445 C444 1.366 . S
C445 C449 1.385 . S
C446 H427 0.951 . S
C446 C444 1.388 . S
C446 C447 1.366 . S
C447 C446 1.366 . S
C447 C448 1.414 . S
C447 C450 1.499 . S
C448 H428 0.950 . S
C448 C447 1.414 . S
C448 C449 1.374 . S
C449 H429 0.950 . S
C449 C445 1.385 . S
C449 C448 1.374 . S
C450 C447 1.499 . S
C450 C451 1.373 . S
C450 C452 1.389 . S
C451 H430 0.950 . S
C451 C450 1.373 . S
C451 C467 1.377 . S
C452 C450 1.389 . S
C452 C453 1.524 . S
C452 C466 1.377 . S
C453 C452 1.524 . S
C453 C454 1.397 . S
C453 C458 1.363 . S
C454 H431 0.950 . S
C454 C453 1.397 . S
C454 C455 1.334 . S
C455 H432 0.950 . S
C455 C454 1.334 . S
C455 C456 1.287 . S
C456 C455 1.287 . S
C456 C457 1.524 . S
C456 H475 0.913 . S
C457 H433 0.950 . S
C457 C456 1.524 . S
C457 C458 1.415 . S
C458 H434 0.950 . S
C458 C453 1.363 . S
C458 C457 1.415 . S
C459 H435 0.951 . S
C459 C460 1.366 . S
C459 C461 1.388 . S
C460 C459 1.366 . S
C460 C464 1.385 . S
C461 H436 0.951 . S
C461 C459 1.388 . S
C461 C462 1.366 . S
C462 C461 1.366 . S
C462 C463 1.414 . S
C462 C465 1.499 . S
C463 H437 0.950 . S
C463 C462 1.414 . S
C463 C464 1.374 . S
C464 H438 0.950 . S
C464 C460 1.385 . S
C464 C463 1.374 . S
C465 C462 1.499 . S
C465 C466 1.373 . S
C465 C467 1.389 . S
C466 H439 0.950 . S
C466 C452 1.377 . S
C466 C465 1.373 . S
C467 C451 1.377 . S
C467 C465 1.389 . S
C467 C468 1.524 . S
C468 C467 1.524 . S
C468 C469 1.397 . S
C468 C473 1.363 . S
C469 H440 0.950 . S
C469 C468 1.397 . S
C469 C470 1.334 . S
C470 H441 0.950 . S
C470 C469 1.334 . S
C470 C471 1.287 . S
C471 C470 1.287 . S
C471 C472 1.524 . S
C471 H474 0.999 . S
C472 H442 0.950 . S
C472 C471 1.524 . S
C472 C473 1.415 . S
C473 H443 0.950 . S
C473 C468 1.363 . S
C473 C472 1.415 . S
H474 C471 0.999 . S
H475 C456 0.913 . S
H476 C494 0.951 . S
H477 C496 0.951 . S
H478 C498 0.950 . S
H479 C499 0.950 . S
H480 C501 0.950 . S
H481 C504 0.950 . S
H482 C505 0.950 . S
H483 C507 0.950 . S
H484 C508 0.950 . S
H485 C509 0.951 . S
H486 C511 0.951 . S
H487 C513 0.950 . S
H488 C514 0.950 . S
H489 C516 0.950 . S
H490 C519 0.950 . S
H491 C520 0.950 . S
H492 C522 0.950 . S
H493 C523 0.950 . S
C494 H476 0.951 . S
C494 C495 1.366 . S
C494 C496 1.388 . S
C495 C494 1.366 . S
C495 C499 1.385 . S
C496 H477 0.951 . S
C496 C494 1.388 . S
C496 C497 1.366 . S
C497 C496 1.366 . S
C497 C498 1.414 . S
C497 C500 1.499 . S
C498 H478 0.950 . S
C498 C497 1.414 . S
C498 C499 1.374 . S
C499 H479 0.950 . S
C499 C495 1.385 . S
C499 C498 1.374 . S
C500 C497 1.499 . S
C500 C501 1.373 . S
C500 C502 1.389 . S
C501 H480 0.950 . S
C501 C500 1.373 . S
C501 C517 1.377 . S
C502 C500 1.389 . S
C502 C503 1.524 . S
C502 C516 1.377 . S
C503 C502 1.524 . S
C503 C504 1.397 . S
C503 C508 1.363 . S
C504 H481 0.950 . S
C504 C503 1.397 . S
C504 C505 1.334 . S
C505 H482 0.950 . S
C505 C504 1.334 . S
C505 C506 1.287 . S
C506 C505 1.287 . S
C506 C507 1.524 . S
C506 H525 0.913 . S
C507 H483 0.950 . S
C507 C506 1.524 . S
C507 C508 1.415 . S
C508 H484 0.950 . S
C508 C503 1.363 . S
C508 C507 1.415 . S
C509 H485 0.951 . S
C509 C510 1.366 . S
C509 C511 1.388 . S
C510 C509 1.366 . S
C510 C514 1.385 . S
C511 H486 0.951 . S
C511 C509 1.388 . S
C511 C512 1.366 . S
C512 C511 1.366 . S
C512 C513 1.414 . S
C512 C515 1.499 . S
C513 H487 0.950 . S
C513 C512 1.414 . S
C513 C514 1.374 . S
C514 H488 0.950 . S
C514 C510 1.385 . S
C514 C513 1.374 . S
C515 C512 1.499 . S
C515 C516 1.373 . S
C515 C517 1.389 . S
C516 H489 0.950 . S
C516 C502 1.377 . S
C516 C515 1.373 . S
C517 C501 1.377 . S
C517 C515 1.389 . S
C517 C518 1.524 . S
C518 C517 1.524 . S
C518 C519 1.397 . S
C518 C523 1.363 . S
C519 H490 0.950 . S
C519 C518 1.397 . S
C519 C520 1.334 . S
C520 H491 0.950 . S
C520 C519 1.334 . S
C520 C521 1.287 . S
C521 C520 1.287 . S
C521 C522 1.524 . S
C521 H524 0.999 . S
C522 H492 0.950 . S
C522 C521 1.524 . S
C522 C523 1.415 . S
C523 H493 0.950 . S
C523 C518 1.363 . S
C523 C522 1.415 . S
H524 C521 0.999 . S
H525 C506 0.913 . S
H526 C544 0.951 . S
H527 C546 0.951 . S
H528 C548 0.950 . S
H529 C549 0.950 . S
H530 C551 0.950 . S
H531 C554 0.950 . S
H532 C555 0.950 . S
H533 C557 0.950 . S
H534 C558 0.950 . S
H535 C559 0.951 . S
H536 C561 0.951 . S
H537 C563 0.950 . S
H538 C564 0.950 . S
H539 C566 0.950 . S
H540 C569 0.950 . S
H541 C570 0.950 . S
H542 C572 0.950 . S
H543 C573 0.950 . S
C544 H526 0.951 . S
C544 C545 1.366 . S
C544 C546 1.388 . S
C545 C544 1.366 . S
C545 C549 1.385 . S
C546 H527 0.951 . S
C546 C544 1.388 . S
C546 C547 1.366 . S
C547 C546 1.366 . S
C547 C548 1.414 . S
C547 C550 1.499 . S
C548 H528 0.950 . S
C548 C547 1.414 . S
C548 C549 1.374 . S
C549 H529 0.950 . S
C549 C545 1.385 . S
C549 C548 1.374 . S
C550 C547 1.499 . S
C550 C551 1.373 . S
C550 C552 1.389 . S
C551 H530 0.950 . S
C551 C550 1.373 . S
C551 C567 1.377 . S
C552 C550 1.389 . S
C552 C553 1.524 . S
C552 C566 1.377 . S
C553 C552 1.524 . S
C553 C554 1.397 . S
C553 C558 1.363 . S
C554 H531 0.950 . S
C554 C553 1.397 . S
C554 C555 1.334 . S
C555 H532 0.950 . S
C555 C554 1.334 . S
C555 C556 1.287 . S
C556 C555 1.287 . S
C556 C557 1.524 . S
C556 H575 0.913 . S
C557 H533 0.950 . S
C557 C556 1.524 . S
C557 C558 1.415 . S
C558 H534 0.950 . S
C558 C553 1.363 . S
C558 C557 1.415 . S
C559 H535 0.951 . S
C559 C560 1.366 . S
C559 C561 1.388 . S
C560 C559 1.366 . S
C560 C564 1.385 . S
C561 H536 0.951 . S
C561 C559 1.388 . S
C561 C562 1.366 . S
C562 C561 1.366 . S
C562 C563 1.414 . S
C562 C565 1.499 . S
C563 H537 0.950 . S
C563 C562 1.414 . S
C563 C564 1.374 . S
C564 H538 0.950 . S
C564 C560 1.385 . S
C564 C563 1.374 . S
C565 C562 1.499 . S
C565 C566 1.373 . S
C565 C567 1.389 . S
C566 H539 0.950 . S
C566 C552 1.377 . S
C566 C565 1.373 . S
C567 C551 1.377 . S
C567 C565 1.389 . S
C567 C568 1.524 . S
C568 C567 1.524 . S
C568 C569 1.397 . S
C568 C573 1.363 . S
C569 H540 0.950 . S
C569 C568 1.397 . S
C569 C570 1.334 . S
C570 H541 0.950 . S
C570 C569 1.334 . S
C570 C571 1.287 . S
C571 C570 1.287 . S
C571 C572 1.524 . S
C571 H574 0.999 . S
C572 H542 0.950 . S
C572 C571 1.524 . S
C572 C573 1.415 . S
C573 H543 0.950 . S
C573 C568 1.363 . S
C573 C572 1.415 . S
H574 C571 0.999 . S
H575 C556 0.913 . S
H576 C594 0.951 . S
H577 C596 0.951 . S
H578 C598 0.950 . S
H579 C599 0.950 . S
H580 C601 0.950 . S
H581 C604 0.950 . S
H582 C605 0.950 . S
H583 C607 0.950 . S
H584 C608 0.950 . S
H585 C609 0.951 . S
H586 C611 0.951 . S
H587 C613 0.950 . S
H588 C614 0.950 . S
H589 C616 0.950 . S
H590 C619 0.950 . S
H591 C620 0.950 . S
H592 C622 0.950 . S
H593 C623 0.950 . S
C594 H576 0.951 . S
C594 C595 1.366 . S
C594 C596 1.388 . S
C595 C594 1.366 . S
C595 C599 1.385 . S
C596 H577 0.951 . S
C596 C594 1.388 . S
C596 C597 1.366 . S
C597 C596 1.366 . S
C597 C598 1.414 . S
C597 C600 1.499 . S
C598 H578 0.950 . S
C598 C597 1.414 . S
C598 C599 1.374 . S
C599 H579 0.950 . S
C599 C595 1.385 . S
C599 C598 1.374 . S
C600 C597 1.499 . S
C600 C601 1.373 . S
C600 C602 1.389 . S
C601 H580 0.950 . S
C601 C600 1.373 . S
C601 C617 1.377 . S
C602 C600 1.389 . S
C602 C603 1.524 . S
C602 C616 1.377 . S
C603 C602 1.524 . S
C603 C604 1.397 . S
C603 C608 1.363 . S
C604 H581 0.950 . S
C604 C603 1.397 . S
C604 C605 1.334 . S
C605 H582 0.950 . S
C605 C604 1.334 . S
C605 C606 1.287 1_455 S
C606 C605 1.287 1_655 S
C606 C607 1.524 . S
C606 H625 0.913 . S
C607 H583 0.950 . S
C607 C606 1.524 . S
C607 C608 1.415 1_655 S
C608 H584 0.950 . S
C608 C603 1.363 . S
C608 C607 1.415 1_455 S
C609 H585 0.951 . S
C609 C610 1.366 . S
C609 C611 1.388 . S
C610 C609 1.366 . S
C610 C614 1.385 . S
C611 H586 0.951 . S
C611 C609 1.388 . S
C611 C612 1.366 . S
C612 C611 1.366 . S
C612 C613 1.414 . S
C612 C615 1.499 . S
C613 H587 0.950 . S
C613 C612 1.414 . S
C613 C614 1.374 . S
C614 H588 0.950 . S
C614 C610 1.385 . S
C614 C613 1.374 . S
C615 C612 1.499 . S
C615 C616 1.373 . S
C615 C617 1.389 . S
C616 H589 0.950 . S
C616 C602 1.377 . S
C616 C615 1.373 . S
C617 C601 1.377 . S
C617 C615 1.389 . S
C617 C618 1.524 . S
C618 C617 1.524 . S
C618 C619 1.397 . S
C618 C623 1.363 . S
C619 H590 0.950 . S
C619 C618 1.397 . S
C619 C620 1.334 . S
C620 H591 0.950 . S
C620 C619 1.334 . S
C620 C621 1.287 . S
C621 C620 1.287 . S
C621 C622 1.524 . S
C621 H624 0.999 . S
C622 H592 0.950 . S
C622 C621 1.524 . S
C622 C623 1.415 . S
C623 H593 0.950 . S
C623 C618 1.363 . S
C623 C622 1.415 . S
H624 C621 0.999 . S
H625 C606 0.913 . S
H626 C644 0.951 . S
H627 C646 0.951 . S
H628 C648 0.950 . S
H629 C649 0.950 . S
H630 C651 0.950 . S
H631 C654 0.950 . S
H632 C655 0.950 . S
H633 C657 0.950 . S
H634 C658 0.950 . S
H635 C659 0.951 . S
H636 C661 0.951 . S
H637 C663 0.950 . S
H638 C664 0.950 . S
H639 C666 0.950 . S
H640 C669 0.950 . S
H641 C670 0.950 . S
H642 C672 0.950 . S
H643 C673 0.950 . S
C644 H626 0.951 . S
C644 C645 1.366 . S
C644 C646 1.388 . S
C645 C644 1.366 . S
C645 C649 1.385 . S
C646 H627 0.951 . S
C646 C644 1.388 . S
C646 C647 1.366 . S
C647 C646 1.366 . S
C647 C648 1.414 . S
C647 C650 1.499 . S
C648 H628 0.950 . S
C648 C647 1.414 . S
C648 C649 1.374 . S
C649 H629 0.950 . S
C649 C645 1.385 . S
C649 C648 1.374 . S
C650 C647 1.499 . S
C650 C651 1.373 . S
C650 C652 1.389 . S
C651 H630 0.950 . S
C651 C650 1.373 . S
C651 C667 1.377 . S
C652 C650 1.389 . S
C652 C653 1.524 . S
C652 C666 1.377 . S
C653 C652 1.524 . S
C653 C654 1.397 . S
C653 C658 1.363 . S
C654 H631 0.950 . S
C654 C653 1.397 . S
C654 C655 1.334 . S
C655 H632 0.950 . S
C655 C654 1.334 . S
C655 C656 1.287 . S
C656 C655 1.287 . S
C656 C657 1.524 . S
C656 H675 0.913 . S
C657 H633 0.950 . S
C657 C656 1.524 . S
C657 C658 1.415 . S
C658 H634 0.950 . S
C658 C653 1.363 . S
C658 C657 1.415 . S
C659 H635 0.951 . S
C659 C660 1.366 . S
C659 C661 1.388 . S
C660 C659 1.366 . S
C660 C664 1.385 . S
C661 H636 0.951 . S
C661 C659 1.388 . S
C661 C662 1.366 . S
C662 C661 1.366 . S
C662 C663 1.414 . S
C662 C665 1.499 . S
C663 H637 0.950 . S
C663 C662 1.414 . S
C663 C664 1.374 . S
C664 H638 0.950 . S
C664 C660 1.385 . S
C664 C663 1.374 . S
C665 C662 1.499 . S
C665 C666 1.373 . S
C665 C667 1.389 . S
C666 H639 0.950 . S
C666 C652 1.377 . S
C666 C665 1.373 . S
C667 C651 1.377 . S
C667 C665 1.389 . S
C667 C668 1.524 . S
C668 C667 1.524 . S
C668 C669 1.397 . S
C668 C673 1.363 . S
C669 H640 0.950 . S
C669 C668 1.397 . S
C669 C670 1.334 . S
C670 H641 0.950 . S
C670 C669 1.334 . S
C670 C671 1.287 . S
C671 C670 1.287 . S
C671 C672 1.524 . S
C671 H674 0.999 . S
C672 H642 0.950 . S
C672 C671 1.524 . S
C672 C673 1.415 . S
C673 H643 0.950 . S
C673 C668 1.363 . S
C673 C672 1.415 . S
H674 C671 0.999 . S
H675 C656 0.913 . S
H676 C694 0.951 . S
H677 C696 0.951 . S
H678 C698 0.950 . S
H679 C699 0.950 . S
H680 C701 0.950 . S
H681 C704 0.950 . S
H682 C705 0.950 . S
H683 C707 0.950 . S
H684 C708 0.965 . S
H685 C709 0.951 . S
H686 C711 0.951 . S
H687 C713 0.950 1_545 S
H688 C714 0.950 1_545 S
H689 C716 0.950 . S
H690 C719 0.950 . S
H691 C720 0.950 . S
H692 C722 0.950 . S
H693 C723 0.950 . S
C694 H676 0.951 . S
C694 C695 1.366 . S
C694 C696 1.388 . S
C695 C694 1.366 . S
C695 C699 1.385 . S
C696 H677 0.951 . S
C696 C694 1.388 . S
C696 C697 1.366 . S
C697 C696 1.366 . S
C697 C698 1.414 . S
C697 C700 1.499 . S
C698 H678 0.950 . S
C698 C697 1.414 . S
C698 C699 1.374 . S
C699 H679 0.950 . S
C699 C695 1.385 . S
C699 C698 1.374 . S
C700 C697 1.499 . S
C700 C701 1.373 . S
C700 C702 1.389 . S
C701 H680 0.950 . S
C701 C700 1.373 . S
C701 C717 1.377 . S
C702 C700 1.389 . S
C702 C703 1.524 . S
C702 C716 1.377 . S
C703 C702 1.524 . S
C703 C704 1.397 . S
C703 C708 1.348 1_565 S
C704 H681 0.950 . S
C704 C703 1.397 . S
C704 C705 1.334 . S
C705 H682 0.950 . S
C705 C704 1.334 . S
C705 C706 1.287 . S
C706 C705 1.287 . S
C706 C707 1.524 1_565 S
C706 H725 0.913 1_565 S
C707 H683 0.950 . S
C707 C706 1.524 1_545 S
C707 C708 1.415 . S
C708 H684 0.965 . S
C708 C703 1.348 1_545 S
C708 C707 1.415 . S
C709 H685 0.951 . S
C709 C710 1.366 . S
C709 C711 1.388 . S
C710 C709 1.366 . S
C710 C714 1.385 . S
C711 H686 0.951 . S
C711 C709 1.388 . S
C711 C712 1.366 . S
C712 C711 1.366 . S
C712 C713 1.414 . S
C712 C715 1.499 . S
C713 H687 0.950 1_565 S
C713 C712 1.414 . S
C713 C714 1.374 . S
C714 H688 0.950 1_565 S
C714 C710 1.385 . S
C714 C713 1.374 . S
C715 C712 1.499 . S
C715 C716 1.373 . S
C715 C717 1.389 . S
C716 H689 0.950 . S
C716 C702 1.377 . S
C716 C715 1.373 . S
C717 C701 1.377 . S
C717 C715 1.389 . S
C717 C718 1.524 . S
C718 C717 1.524 . S
C718 C719 1.397 . S
C718 C723 1.363 . S
C719 H690 0.950 . S
C719 C718 1.397 . S
C719 C720 1.334 . S
C720 H691 0.950 . S
C720 C719 1.334 . S
C720 C721 1.287 . S
C721 C720 1.287 . S
C721 C722 1.524 . S
C721 H724 0.999 . S
C722 H692 0.950 . S
C722 C721 1.524 . S
C722 C723 1.415 . S
C723 H693 0.950 . S
C723 C718 1.363 . S
C723 C722 1.415 . S
H724 C721 0.999 . S
H725 C706 0.913 1_545 S
H726 C744 0.951 . S
H727 C746 0.951 . S
H728 C748 0.950 . S
H729 C749 0.950 . S
H730 C751 0.950 . S
H731 C754 0.950 . S
H732 C755 0.950 . S
H733 C757 0.950 . S
H734 C758 0.950 . S
H735 C759 0.951 . S
H736 C761 0.951 . S
H737 C763 0.950 . S
H738 C764 0.950 . S
H739 C766 0.950 . S
H740 C769 0.950 . S
H741 C770 0.950 . S
H742 C772 0.950 . S
H743 C773 0.950 . S
C744 H726 0.951 . S
C744 C745 1.366 . S
C744 C746 1.388 . S
C745 C744 1.366 . S
C745 C749 1.385 . S
C746 H727 0.951 . S
C746 C744 1.388 . S
C746 C747 1.366 . S
C747 C746 1.366 . S
C747 C748 1.414 . S
C747 C750 1.499 . S
C748 H728 0.950 . S
C748 C747 1.414 . S
C748 C749 1.374 . S
C749 H729 0.950 . S
C749 C745 1.385 . S
C749 C748 1.374 . S
C750 C747 1.499 . S
C750 C751 1.373 . S
C750 C752 1.389 . S
C751 H730 0.950 . S
C751 C750 1.373 . S
C751 C767 1.377 . S
C752 C750 1.389 . S
C752 C753 1.524 . S
C752 C766 1.377 . S
C753 C752 1.524 . S
C753 C754 1.397 . S
C753 C758 1.363 . S
C754 H731 0.950 . S
C754 C753 1.397 . S
C754 C755 1.334 . S
C755 H732 0.950 . S
C755 C754 1.334 . S
C755 C756 1.287 . S
C756 C755 1.287 . S
C756 C757 1.524 . S
C756 H775 0.913 . S
C757 H733 0.950 . S
C757 C756 1.524 . S
C757 C758 1.415 . S
C758 H734 0.950 . S
C758 C753 1.363 . S
C758 C757 1.415 . S
C759 H735 0.951 . S
C759 C760 1.366 . S
C759 C761 1.388 . S
C760 C759 1.366 . S
C760 C764 1.385 . S
C761 H736 0.951 . S
C761 C759 1.388 . S
C761 C762 1.366 . S
C762 C761 1.366 . S
C762 C763 1.414 . S
C762 C765 1.499 . S
C763 H737 0.950 . S
C763 C762 1.414 . S
C763 C764 1.374 . S
C764 H738 0.950 . S
C764 C760 1.385 . S
C764 C763 1.374 . S
C765 C762 1.499 . S
C765 C766 1.373 . S
C765 C767 1.389 . S
C766 H739 0.950 . S
C766 C752 1.377 . S
C766 C765 1.373 . S
C767 C751 1.377 . S
C767 C765 1.389 . S
C767 C768 1.524 . S
C768 C767 1.524 . S
C768 C769 1.397 . S
C768 C773 1.363 . S
C769 H740 0.950 . S
C769 C768 1.397 . S
C769 C770 1.334 . S
C770 H741 0.950 . S
C770 C769 1.334 . S
C770 C771 1.287 . S
C771 C770 1.287 . S
C771 C772 1.524 . S
C771 H774 0.999 . S
C772 H742 0.950 . S
C772 C771 1.524 . S
C772 C773 1.415 . S
C773 H743 0.950 . S
C773 C768 1.363 . S
C773 C772 1.415 . S
H774 C771 0.999 . S
H775 C756 0.913 . S
H776 C794 0.951 1_455 S
H777 C796 0.951 . S
H778 C798 0.950 . S
H779 C799 0.950 . S
H780 C801 0.950 . S
H781 C804 0.950 . S
H782 C805 0.950 . S
H783 C807 0.950 . S
H784 C808 0.950 . S
H785 C809 0.951 . S
H786 C811 0.951 . S
H787 C813 0.950 . S
H788 C814 0.950 . S
H789 C816 0.950 . S
H790 C819 0.950 . S
H791 C820 0.950 . S
H792 C822 0.950 . S
H793 C823 0.950 . S
C794 H776 0.951 1_655 S
C794 C795 1.366 . S
C794 C796 1.388 . S
C795 C794 1.366 . S
C795 C799 1.385 . S
C796 H777 0.951 . S
C796 C794 1.388 . S
C796 C797 1.366 . S
C797 C796 1.366 . S
C797 C798 1.414 . S
C797 C800 1.499 . S
C798 H778 0.950 . S
C798 C797 1.414 . S
C798 C799 1.374 . S
C799 H779 0.950 . S
C799 C795 1.385 . S
C799 C798 1.374 . S
C800 C797 1.499 . S
C800 C801 1.373 . S
C800 C802 1.389 . S
C801 H780 0.950 . S
C801 C800 1.373 . S
C801 C817 1.377 . S
C802 C800 1.389 . S
C802 C803 1.524 . S
C802 C816 1.377 . S
C803 C802 1.524 . S
C803 C804 1.397 . S
C803 C808 1.363 . S
C804 H781 0.950 . S
C804 C803 1.397 . S
C804 C805 1.334 . S
C805 H782 0.950 . S
C805 C804 1.334 . S
C805 C806 1.287 . S
C806 C805 1.287 . S
C806 C807 1.524 . S
C806 H825 0.913 . S
C807 H783 0.950 . S
C807 C806 1.524 . S
C807 C808 1.415 . S
C808 H784 0.950 . S
C808 C803 1.363 . S
C808 C807 1.415 . S
C809 H785 0.951 . S
C809 C810 1.366 . S
C809 C811 1.388 . S
C810 C809 1.366 . S
C810 C814 1.385 . S
C811 H786 0.951 . S
C811 C809 1.388 . S
C811 C812 1.366 . S
C812 C811 1.366 . S
C812 C813 1.414 . S
C812 C815 1.499 . S
C813 H787 0.950 . S
C813 C812 1.414 . S
C813 C814 1.374 . S
C814 H788 0.950 . S
C814 C810 1.385 . S
C814 C813 1.374 . S
C815 C812 1.499 . S
C815 C816 1.373 . S
C815 C817 1.389 . S
C816 H789 0.950 . S
C816 C802 1.377 . S
C816 C815 1.373 . S
C817 C801 1.377 . S
C817 C815 1.389 . S
C817 C818 1.524 . S
C818 C817 1.524 . S
C818 C819 1.397 . S
C818 C823 1.363 . S
C819 H790 0.950 . S
C819 C818 1.397 . S
C819 C820 1.334 . S
C820 H791 0.950 . S
C820 C819 1.334 . S
C820 C821 1.287 . S
C821 C820 1.287 . S
C821 C822 1.524 . S
C821 H824 0.999 . S
C822 H792 0.950 . S
C822 C821 1.524 . S
C822 C823 1.415 . S
C823 H793 0.950 . S
C823 C818 1.363 . S
C823 C822 1.415 . S
H824 C821 0.999 . S
H825 C806 0.913 . S
H826 C844 0.951 . S
H827 C846 0.951 . S
H828 C848 0.950 . S
H829 C849 0.950 . S
H830 C851 0.950 . S
H831 C854 0.950 . S
H832 C855 0.950 . S
H833 C857 0.950 . S
H834 C858 0.950 . S
H835 C859 0.951 . S
H836 C861 0.951 . S
H837 C863 0.950 . S
H838 C864 0.950 . S
H839 C866 0.950 . S
H840 C869 0.950 . S
H841 C870 0.950 . S
H842 C872 0.950 . S
H843 C873 0.950 . S
C844 H826 0.951 . S
C844 C845 1.366 . S
C844 C846 1.388 . S
C845 C844 1.366 . S
C845 C849 1.385 . S
C846 H827 0.951 . S
C846 C844 1.388 . S
C846 C847 1.366 . S
C847 C846 1.366 . S
C847 C848 1.414 . S
C847 C850 1.499 . S
C848 H828 0.950 . S
C848 C847 1.414 . S
C848 C849 1.374 . S
C849 H829 0.950 . S
C849 C845 1.385 . S
C849 C848 1.374 . S
C850 C847 1.499 . S
C850 C851 1.373 . S
C850 C852 1.389 . S
C851 H830 0.950 . S
C851 C850 1.373 . S
C851 C867 1.377 . S
C852 C850 1.389 . S
C852 C853 1.524 . S
C852 C866 1.377 . S
C853 C852 1.524 . S
C853 C854 1.397 . S
C853 C858 1.363 . S
C854 H831 0.950 . S
C854 C853 1.397 . S
C854 C855 1.334 . S
C855 H832 0.950 . S
C855 C854 1.334 . S
C855 C856 1.287 . S
C856 C855 1.287 . S
C856 C857 1.524 . S
C856 H875 0.913 . S
C857 H833 0.950 . S
C857 C856 1.524 . S
C857 C858 1.415 . S
C858 H834 0.950 . S
C858 C853 1.363 . S
C858 C857 1.415 . S
C859 H835 0.951 . S
C859 C860 1.366 . S
C859 C861 1.388 . S
C860 C859 1.366 . S
C860 C864 1.385 . S
C861 H836 0.951 . S
C861 C859 1.388 . S
C861 C862 1.366 . S
C862 C861 1.366 . S
C862 C863 1.414 . S
C862 C865 1.499 . S
C863 H837 0.950 . S
C863 C862 1.414 . S
C863 C864 1.374 . S
C864 H838 0.950 . S
C864 C860 1.385 . S
C864 C863 1.374 . S
C865 C862 1.499 . S
C865 C866 1.373 . S
C865 C867 1.389 . S
C866 H839 0.950 . S
C866 C852 1.377 . S
C866 C865 1.373 . S
C867 C851 1.377 . S
C867 C865 1.389 . S
C867 C868 1.524 . S
C868 C867 1.524 . S
C868 C869 1.397 . S
C868 C873 1.363 . S
C869 H840 0.950 . S
C869 C868 1.397 . S
C869 C870 1.334 . S
C870 H841 0.950 . S
C870 C869 1.334 . S
C870 C871 1.287 . S
C871 C870 1.287 . S
C871 C872 1.524 . S
C871 H874 0.999 . S
C872 H842 0.950 . S
C872 C871 1.524 . S
C872 C873 1.415 . S
C873 H843 0.950 . S
C873 C868 1.363 . S
C873 C872 1.415 . S
H874 C871 0.999 . S
H875 C856 0.913 . S
H876 C894 0.951 . S
H877 C896 0.951 . S
H878 C898 0.950 . S
H879 C899 0.950 . S
H880 C901 0.950 . S
H881 C904 0.950 . S
H882 C905 0.950 . S
H883 C907 0.950 . S
H884 C908 0.950 . S
H885 C909 0.951 . S
H886 C911 0.951 1_455 S
H887 C913 0.950 . S
H888 C914 0.950 . S
H889 C916 0.950 . S
H890 C919 0.950 . S
H891 C920 0.950 . S
H892 C922 0.950 . S
H893 C923 0.950 . S
C894 H876 0.951 . S
C894 C895 1.366 . S
C894 C896 1.388 . S
C895 C894 1.366 . S
C895 C899 1.385 . S
C896 H877 0.951 . S
C896 C894 1.388 . S
C896 C897 1.366 . S
C897 C896 1.366 . S
C897 C898 1.414 . S
C897 C900 1.499 . S
C898 H878 0.950 . S
C898 C897 1.414 . S
C898 C899 1.374 . S
C899 H879 0.950 . S
C899 C895 1.385 . S
C899 C898 1.374 . S
C900 C897 1.499 . S
C900 C901 1.373 . S
C900 C902 1.389 . S
C901 H880 0.950 . S
C901 C900 1.373 . S
C901 C917 1.377 . S
C902 C900 1.389 . S
C902 C903 1.524 . S
C902 C916 1.377 1_455 S
C903 C902 1.524 . S
C903 C904 1.397 . S
C903 C908 1.363 1_455 S
C904 H881 0.950 . S
C904 C903 1.397 . S
C904 C905 1.334 . S
C905 H882 0.950 . S
C905 C904 1.334 . S
C905 C906 1.287 . S
C906 C905 1.287 . S
C906 C907 1.524 1_455 S
C906 H925 0.913 . S
C907 H883 0.950 . S
C907 C906 1.524 1_655 S
C907 C908 1.415 . S
C908 H884 0.950 . S
C908 C903 1.363 1_655 S
C908 C907 1.415 . S
C909 H885 0.951 . S
C909 C910 1.366 . S
C909 C911 1.388 . S
C910 C909 1.366 . S
C910 C914 1.385 . S
C911 H886 0.951 1_655 S
C911 C909 1.388 . S
C911 C912 1.366 . S
C912 C911 1.366 . S
C912 C913 1.414 . S
C912 C915 1.499 . S
C913 H887 0.950 . S
C913 C912 1.414 . S
C913 C914 1.374 . S
C914 H888 0.950 . S
C914 C910 1.385 . S
C914 C913 1.374 . S
C915 C912 1.499 . S
C915 C916 1.373 . S
C915 C917 1.389 1_655 S
C916 H889 0.950 . S
C916 C902 1.377 1_655 S
C916 C915 1.373 . S
C917 C901 1.377 . S
C917 C915 1.389 1_455 S
C917 C918 1.524 . S
C918 C917 1.524 . S
C918 C919 1.397 1_455 S
C918 C923 1.363 . S
C919 H890 0.950 . S
C919 C918 1.397 1_655 S
C919 C920 1.334 . S
C920 H891 0.950 . S
C920 C919 1.334 . S
C920 C921 1.287 1_655 S
C921 C920 1.287 1_455 S
C921 C922 1.524 . S
C921 H924 0.999 . S
C922 H892 0.950 . S
C922 C921 1.524 . S
C922 C923 1.415 . S
C923 H893 0.950 . S
C923 C918 1.363 . S
C923 C922 1.415 . S
H924 C921 0.999 . S
H925 C906 0.913 . S
H926 C944 0.951 . S
H927 C946 0.951 . S
H928 C948 0.950 . S
H929 C949 0.950 . S
H930 C951 0.950 . S
H931 C954 0.950 . S
H932 C955 0.950 . S
H933 C957 0.950 . S
H934 C958 0.950 . S
H935 C959 0.951 . S
H936 C961 0.951 . S
H937 C963 0.950 . S
H938 C964 0.950 . S
H939 C966 0.950 . S
H940 C969 0.950 . S
H941 C970 0.950 . S
H942 C972 0.950 . S
H943 C973 0.950 . S
C944 H926 0.951 . S
C944 C945 1.366 . S
C944 C946 1.388 . S
C945 C944 1.366 . S
C945 C949 1.385 . S
C946 H927 0.951 . S
C946 C944 1.388 . S
C946 C947 1.366 . S
C947 C946 1.366 . S
C947 C948 1.414 . S
C947 C950 1.499 . S
C948 H928 0.950 . S
C948 C947 1.414 . S
C948 C949 1.374 . S
C949 H929 0.950 . S
C949 C945 1.385 . S
C949 C948 1.374 . S
C950 C947 1.499 . S
C950 C951 1.373 . S
C950 C952 1.389 . S
C951 H930 0.950 . S
C951 C950 1.373 . S
C951 C967 1.377 . S
C952 C950 1.389 . S
C952 C953 1.524 . S
C952 C966 1.377 . S
C953 C952 1.524 . S
C953 C954 1.397 . S
C953 C958 1.363 . S
C954 H931 0.950 . S
C954 C953 1.397 . S
C954 C955 1.334 . S
C955 H932 0.950 . S
C955 C954 1.334 . S
C955 C956 1.287 . S
C956 C955 1.287 . S
C956 C957 1.524 . S
C956 H975 0.913 . S
C957 H933 0.950 . S
C957 C956 1.524 . S
C957 C958 1.415 . S
C958 H934 0.950 . S
C958 C953 1.363 . S
C958 C957 1.415 . S
C959 H935 0.951 . S
C959 C960 1.366 . S
C959 C961 1.388 . S
C960 C959 1.366 . S
C960 C964 1.385 . S
C961 H936 0.951 . S
C961 C959 1.388 . S
C961 C962 1.366 . S
C962 C961 1.366 . S
C962 C963 1.414 . S
C962 C965 1.499 . S
C963 H937 0.950 . S
C963 C962 1.414 . S
C963 C964 1.374 . S
C964 H938 0.950 . S
C964 C960 1.385 . S
C964 C963 1.374 . S
C965 C962 1.499 . S
C965 C966 1.373 . S
C965 C967 1.389 . S
C966 H939 0.950 . S
C966 C952 1.377 . S
C966 C965 1.373 . S
C967 C951 1.377 . S
C967 C965 1.389 . S
C967 C968 1.524 . S
C968 C967 1.524 . S
C968 C969 1.397 . S
C968 C973 1.363 . S
C969 H940 0.950 . S
C969 C968 1.397 . S
C969 C970 1.334 . S
C970 H941 0.950 . S
C970 C969 1.334 . S
C970 C971 1.287 . S
C971 C970 1.287 . S
C971 C972 1.524 . S
C971 H974 0.999 . S
C972 H942 0.950 . S
C972 C971 1.524 . S
C972 C973 1.415 . S
C973 H943 0.950 . S
C973 C968 1.363 . S
C973 C972 1.415 . S
H974 C971 0.999 . S
H975 C956 0.913 . S
H976 C994 0.951 . S
H977 C996 0.951 . S
H978 C998 0.950 . S
H979 C999 0.950 . S
H980 C1001 0.950 . S
H981 C1004 0.950 . S
H982 C1005 0.950 . S
H983 C1007 0.950 . S
H984 C1008 0.950 . S
H985 C1009 0.951 . S
H986 C1011 0.951 . S
H987 C1013 0.950 . S
H988 C1014 0.950 . S
H989 C1016 0.950 . S
H990 C1019 0.961 1_545 S
H991 C1020 0.950 . S
H992 C1022 0.950 . S
H993 C1023 0.950 . S
C994 H976 0.951 . S
C994 C995 1.366 . S
C994 C996 1.388 . S
C995 C994 1.366 . S
C995 C999 1.385 . S
C996 H977 0.951 . S
C996 C994 1.388 . S
C996 C997 1.366 . S
C997 C996 1.366 . S
C997 C998 1.414 . S
C997 C1000 1.493 1_565 S
C998 H978 0.950 . S
C998 C997 1.414 . S
C998 C999 1.374 . S
C999 H979 0.950 . S
C999 C995 1.385 . S
C999 C998 1.374 . S
C1000 C997 1.493 1_545 S
C1000 C1001 1.374 1_545 S
C1000 C1002 1.394 . S
C1001 H980 0.950 . S
C1001 C1000 1.374 1_565 S
C1001 C1017 1.377 1_565 S
C1002 C1000 1.394 . S
C1002 C1003 1.524 . S
C1002 C1016 1.377 . S
C1003 C1002 1.524 . S
C1003 C1004 1.397 . S
C1003 C1008 1.363 . S
C1004 H981 0.950 . S
C1004 C1003 1.397 . S
C1004 C1005 1.334 . S
C1005 H982 0.950 . S
C1005 C1004 1.334 . S
C1005 C1006 1.287 . S
C1006 C1005 1.287 . S
C1006 C1007 1.524 . S
C1006 H1025 0.913 . S
C1007 H983 0.950 . S
C1007 C1006 1.524 . S
C1007 C1008 1.415 . S
C1008 H984 0.950 . S
C1008 C1003 1.363 . S
C1008 C1007 1.415 . S
C1009 H985 0.951 . S
C1009 C1010 1.366 . S
C1009 C1011 1.388 . S
C1010 C1009 1.366 . S
C1010 C1014 1.385 . S
C1011 H986 0.951 . S
C1011 C1009 1.388 . S
C1011 C1012 1.366 . S
C1012 C1011 1.366 . S
C1012 C1013 1.414 . S
C1012 C1015 1.499 . S
C1013 H987 0.950 . S
C1013 C1012 1.414 . S
C1013 C1014 1.374 . S
C1014 H988 0.950 . S
C1014 C1010 1.385 . S
C1014 C1013 1.374 . S
C1015 C1012 1.499 . S
C1015 C1016 1.373 . S
C1015 C1017 1.389 . S
C1016 H989 0.950 . S
C1016 C1002 1.377 . S
C1016 C1015 1.373 . S
C1017 C1001 1.377 1_545 S
C1017 C1015 1.389 . S
C1017 C1018 1.524 1_545 S
C1018 C1017 1.524 1_565 S
C1018 C1019 1.397 . S
C1018 C1023 1.363 . S
C1019 H990 0.961 1_565 S
C1019 C1018 1.397 . S
C1019 C1020 1.334 . S
C1020 H991 0.950 . S
C1020 C1019 1.334 . S
C1020 C1021 1.287 . S
C1021 C1020 1.287 . S
C1021 C1022 1.524 . S
C1021 H1024 0.999 . S
C1022 H992 0.950 . S
C1022 C1021 1.524 . S
C1022 C1023 1.415 . S
C1023 H993 0.950 . S
C1023 C1018 1.363 . S
C1023 C1022 1.415 . S
H1024 C1021 0.999 . S
H1025 C1006 0.913 . S
C145 C37 1.114 . S
C160 C8 1.114 1_554 S
C195 C23 1.114 1_554 S
C210 C9 1.114 . S
C245 C22 1.114 . S
C260 C36 1.114 1_554 S
C295 C78 1.113 . S
C310 C51 1.114 . S
C345 C65 1.114 . S
C360 C50 1.114 . S
C395 C64 1.114 . S
C410 C79 1.114 . S
C445 C92 1.114 . S
C460 C121 1.114 . S
C495 C93 1.115 . S
C510 C107 1.114 . S
C545 C106 1.114 . S
C560 C120 1.114 . S
C595 C6 1.482 . S
C610 C104 1.482 . S
C645 C21 1.482 . S
C660 C119 1.481 . S
C695 C91 1.482 . S
C710 C34 1.482 . S
C745 C63 1.482 . S
C760 C35 1.482 . S
C795 C7 1.482 . S
C810 C77 1.482 . S
C845 C49 1.482 . S
C860 C20 1.482 . S
C895 C105 1.482 . S
C910 C76 1.482 . S
C945 C48 1.481 . S
C960 C118 1.481 . S
C995 C90 1.481 . S
C1010 C62 1.481 . S
