# Generated by pormake.
# Topology wgh, (5)-cn, num edge types: 1
# Building blocks:
#     Node 0, Type 0, BuildingBlock: XOMCOT_clean_sbu_0, # of connection points: 5
#     Node 1, Type 0, BuildingBlock: XOMCOT_clean_sbu_0, # of connection points: 5
#     Node 2, Type 0, BuildingBlock: XOMCOT_clean_sbu_0, # of connection points: 5
#     Node 3, Type 0, BuildingBlock: XOMCOT_clean_sbu_0, # of connection points: 5
#     Node 4, Type 0, BuildingBlock: XOMCOT_clean_sbu_0, # of connection points: 5
#     Node 5, Type 0, BuildingBlock: XOMCOT_clean_sbu_0, # of connection points: 5
#     Node 6, Type 0, BuildingBlock: XOMCOT_clean_sbu_0, # of connection points: 5
#     Node 7, Type 0, BuildingBlock: XOMCOT_clean_sbu_0, # of connection points: 5
#     Node 8, Type 0, BuildingBlock: XOMCOT_clean_sbu_0, # of connection points: 5
#     Node 9, Type 0, BuildingBlock: XOMCOT_clean_sbu_0, # of connection points: 5
#     Node 10, Type 0, BuildingBlock: XOMCOT_clean_sbu_0, # of connection points: 5
#     Node 11, Type 0, BuildingBlock: XOMCOT_clean_sbu_0, # of connection points: 5
#     Node 12, Type 0, BuildingBlock: XOMCOT_clean_sbu_0, # of connection points: 5
#     Node 13, Type 0, BuildingBlock: XOMCOT_clean_sbu_0, # of connection points: 5
#     Node 14, Type 0, BuildingBlock: XOMCOT_clean_sbu_0, # of connection points: 5
#     Node 15, Type 0, BuildingBlock: XOMCOT_clean_sbu_0, # of connection points: 5
#     Node 16, Type 0, BuildingBlock: XOMCOT_clean_sbu_0, # of connection points: 5
#     Node 17, Type 0, BuildingBlock: XOMCOT_clean_sbu_0, # of connection points: 5
#     Node 18, Type 0, BuildingBlock: XOMCOT_clean_sbu_0, # of connection points: 5
#     Node 19, Type 0, BuildingBlock: XOMCOT_clean_sbu_0, # of connection points: 5
#     Node 20, Type 0, BuildingBlock: XOMCOT_clean_sbu_0, # of connection points: 5
#     Node 21, Type 0, BuildingBlock: XOMCOT_clean_sbu_0, # of connection points: 5
#     Node 22, Type 0, BuildingBlock: XOMCOT_clean_sbu_0, # of connection points: 5
#     Node 23, Type 0, BuildingBlock: XOMCOT_clean_sbu_0, # of connection points: 5
#     Node 24, Type 0, BuildingBlock: XOMCOT_clean_sbu_0, # of connection points: 5
#     Node 25, Type 0, BuildingBlock: XOMCOT_clean_sbu_0, # of connection points: 5
#     Node 26, Type 0, BuildingBlock: XOMCOT_clean_sbu_0, # of connection points: 5
#     Node 27, Type 0, BuildingBlock: XOMCOT_clean_sbu_0, # of connection points: 5
#     Node 28, Type 0, BuildingBlock: XOMCOT_clean_sbu_0, # of connection points: 5
#     Node 29, Type 0, BuildingBlock: XOMCOT_clean_sbu_0, # of connection points: 5
#     Node 30, Type 0, BuildingBlock: XOMCOT_clean_sbu_0, # of connection points: 5
#     Node 31, Type 0, BuildingBlock: XOMCOT_clean_sbu_0, # of connection points: 5
#     Edge 32, Type (0, 0), BuildingBlock: CIFDUS_clean_linker_0, # of connection points: 2
#     Edge 33, Type (0, 0), BuildingBlock: CIFDUS_clean_linker_0, # of connection points: 2
#     Edge 34, Type (0, 0), BuildingBlock: CIFDUS_clean_linker_0, # of connection points: 2
#     Edge 35, Type (0, 0), BuildingBlock: CIFDUS_clean_linker_0, # of connection points: 2
#     Edge 36, Type (0, 0), BuildingBlock: CIFDUS_clean_linker_0, # of connection points: 2
#     Edge 37, Type (0, 0), BuildingBlock: CIFDUS_clean_linker_0, # of connection points: 2
#     Edge 38, Type (0, 0), BuildingBlock: CIFDUS_clean_linker_0, # of connection points: 2
#     Edge 39, Type (0, 0), BuildingBlock: CIFDUS_clean_linker_0, # of connection points: 2
#     Edge 40, Type (0, 0), BuildingBlock: CIFDUS_clean_linker_0, # of connection points: 2
#     Edge 41, Type (0, 0), BuildingBlock: CIFDUS_clean_linker_0, # of connection points: 2
#     Edge 42, Type (0, 0), BuildingBlock: CIFDUS_clean_linker_0, # of connection points: 2
#     Edge 43, Type (0, 0), BuildingBlock: CIFDUS_clean_linker_0, # of connection points: 2
#     Edge 44, Type (0, 0), BuildingBlock: CIFDUS_clean_linker_0, # of connection points: 2
#     Edge 45, Type (0, 0), BuildingBlock: CIFDUS_clean_linker_0, # of connection points: 2
#     Edge 46, Type (0, 0), BuildingBlock: CIFDUS_clean_linker_0, # of connection points: 2
#     Edge 47, Type (0, 0), BuildingBlock: CIFDUS_clean_linker_0, # of connection points: 2
#     Edge 48, Type (0, 0), BuildingBlock: CIFDUS_clean_linker_0, # of connection points: 2
#     Edge 49, Type (0, 0), BuildingBlock: CIFDUS_clean_linker_0, # of connection points: 2
#     Edge 50, Type (0, 0), BuildingBlock: CIFDUS_clean_linker_0, # of connection points: 2
#     Edge 51, Type (0, 0), BuildingBlock: CIFDUS_clean_linker_0, # of connection points: 2
#     Edge 52, Type (0, 0), BuildingBlock: CIFDUS_clean_linker_0, # of connection points: 2
#     Edge 53, Type (0, 0), BuildingBlock: CIFDUS_clean_linker_0, # of connection points: 2
#     Edge 54, Type (0, 0), BuildingBlock: CIFDUS_clean_linker_0, # of connection points: 2
#     Edge 55, Type (0, 0), BuildingBlock: CIFDUS_clean_linker_0, # of connection points: 2
#     Edge 56, Type (0, 0), BuildingBlock: CIFDUS_clean_linker_0, # of connection points: 2
#     Edge 57, Type (0, 0), BuildingBlock: CIFDUS_clean_linker_0, # of connection points: 2
#     Edge 58, Type (0, 0), BuildingBlock: CIFDUS_clean_linker_0, # of connection points: 2
#     Edge 59, Type (0, 0), BuildingBlock: CIFDUS_clean_linker_0, # of connection points: 2
#     Edge 60, Type (0, 0), BuildingBlock: CIFDUS_clean_linker_0, # of connection points: 2
#     Edge 61, Type (0, 0), BuildingBlock: CIFDUS_clean_linker_0, # of connection points: 2
#     Edge 62, Type (0, 0), BuildingBlock: CIFDUS_clean_linker_0, # of connection points: 2
#     Edge 63, Type (0, 0), BuildingBlock: CIFDUS_clean_linker_0, # of connection points: 2
#     Edge 64, Type (0, 0), BuildingBlock: CIFDUS_clean_linker_0, # of connection points: 2
#     Edge 65, Type (0, 0), BuildingBlock: CIFDUS_clean_linker_0, # of connection points: 2
#     Edge 66, Type (0, 0), BuildingBlock: CIFDUS_clean_linker_0, # of connection points: 2
#     Edge 67, Type (0, 0), BuildingBlock: CIFDUS_clean_linker_0, # of connection points: 2
#     Edge 68, Type (0, 0), BuildingBlock: CIFDUS_clean_linker_0, # of connection points: 2
#     Edge 69, Type (0, 0), BuildingBlock: CIFDUS_clean_linker_0, # of connection points: 2
#     Edge 70, Type (0, 0), BuildingBlock: CIFDUS_clean_linker_0, # of connection points: 2
#     Edge 71, Type (0, 0), BuildingBlock: CIFDUS_clean_linker_0, # of connection points: 2
#     Edge 72, Type (0, 0), BuildingBlock: CIFDUS_clean_linker_0, # of connection points: 2
#     Edge 73, Type (0, 0), BuildingBlock: CIFDUS_clean_linker_0, # of connection points: 2
#     Edge 74, Type (0, 0), BuildingBlock: CIFDUS_clean_linker_0, # of connection points: 2
#     Edge 75, Type (0, 0), BuildingBlock: CIFDUS_clean_linker_0, # of connection points: 2
#     Edge 76, Type (0, 0), BuildingBlock: CIFDUS_clean_linker_0, # of connection points: 2
#     Edge 77, Type (0, 0), BuildingBlock: CIFDUS_clean_linker_0, # of connection points: 2
#     Edge 78, Type (0, 0), BuildingBlock: CIFDUS_clean_linker_0, # of connection points: 2
#     Edge 79, Type (0, 0), BuildingBlock: CIFDUS_clean_linker_0, # of connection points: 2
#     Edge 80, Type (0, 0), BuildingBlock: CIFDUS_clean_linker_0, # of connection points: 2
#     Edge 81, Type (0, 0), BuildingBlock: CIFDUS_clean_linker_0, # of connection points: 2
#     Edge 82, Type (0, 0), BuildingBlock: CIFDUS_clean_linker_0, # of connection points: 2
#     Edge 83, Type (0, 0), BuildingBlock: CIFDUS_clean_linker_0, # of connection points: 2
#     Edge 84, Type (0, 0), BuildingBlock: CIFDUS_clean_linker_0, # of connection points: 2
#     Edge 85, Type (0, 0), BuildingBlock: CIFDUS_clean_linker_0, # of connection points: 2
#     Edge 86, Type (0, 0), BuildingBlock: CIFDUS_clean_linker_0, # of connection points: 2
#     Edge 87, Type (0, 0), BuildingBlock: CIFDUS_clean_linker_0, # of connection points: 2
#     Edge 88, Type (0, 0), BuildingBlock: CIFDUS_clean_linker_0, # of connection points: 2
#     Edge 89, Type (0, 0), BuildingBlock: CIFDUS_clean_linker_0, # of connection points: 2
#     Edge 90, Type (0, 0), BuildingBlock: CIFDUS_clean_linker_0, # of connection points: 2
#     Edge 91, Type (0, 0), BuildingBlock: CIFDUS_clean_linker_0, # of connection points: 2
#     Edge 92, Type (0, 0), BuildingBlock: CIFDUS_clean_linker_0, # of connection points: 2
#     Edge 93, Type (0, 0), BuildingBlock: CIFDUS_clean_linker_0, # of connection points: 2
#     Edge 94, Type (0, 0), BuildingBlock: CIFDUS_clean_linker_0, # of connection points: 2
#     Edge 95, Type (0, 0), BuildingBlock: CIFDUS_clean_linker_0, # of connection points: 2
#     Edge 96, Type (0, 0), BuildingBlock: CIFDUS_clean_linker_0, # of connection points: 2
#     Edge 97, Type (0, 0), BuildingBlock: CIFDUS_clean_linker_0, # of connection points: 2
#     Edge 98, Type (0, 0), BuildingBlock: CIFDUS_clean_linker_0, # of connection points: 2
#     Edge 99, Type (0, 0), BuildingBlock: CIFDUS_clean_linker_0, # of connection points: 2
#     Edge 100, Type (0, 0), BuildingBlock: CIFDUS_clean_linker_0, # of connection points: 2
#     Edge 101, Type (0, 0), BuildingBlock: CIFDUS_clean_linker_0, # of connection points: 2
#     Edge 102, Type (0, 0), BuildingBlock: CIFDUS_clean_linker_0, # of connection points: 2
#     Edge 103, Type (0, 0), BuildingBlock: CIFDUS_clean_linker_0, # of connection points: 2
#     Edge 104, Type (0, 0), BuildingBlock: CIFDUS_clean_linker_0, # of connection points: 2
#     Edge 105, Type (0, 0), BuildingBlock: CIFDUS_clean_linker_0, # of connection points: 2
#     Edge 106, Type (0, 0), BuildingBlock: CIFDUS_clean_linker_0, # of connection points: 2
#     Edge 107, Type (0, 0), BuildingBlock: CIFDUS_clean_linker_0, # of connection points: 2
#     Edge 108, Type (0, 0), BuildingBlock: CIFDUS_clean_linker_0, # of connection points: 2
#     Edge 109, Type (0, 0), BuildingBlock: CIFDUS_clean_linker_0, # of connection points: 2
#     Edge 110, Type (0, 0), BuildingBlock: CIFDUS_clean_linker_0, # of connection points: 2
#     Edge 111, Type (0, 0), BuildingBlock: CIFDUS_clean_linker_0, # of connection points: 2
# Relax obj value: 0.216
# Max RMSD: 0.210
# Mean RMSD: 0.210
data_MOF--net-wgh--node1-XOMCOT_clean_sbu_0--edge1-CIFDUS_clean_linker_0
_symmetry_space_group_name_H-M    P1
_symmetry_Int_Tables_number       1
_symmetry_cell_setting            triclinic
loop_
_symmetry_equiv_pos_as_xyz
'x, y, z'
_cell_length_a     86.935218
_cell_length_b     86.918775
_cell_length_c     17.71972
_cell_angle_alpha  89.914086
_cell_angle_beta   90.002915
_cell_angle_gamma 89.947118
loop_
_atom_site_label
_atom_site_type_symbol
_atom_site_fract_x
_atom_site_fract_y
_atom_site_fract_z
_atom_type_partial_charge
Co0 Co 0.15473 0.18735 0.41949 0.0
C1 C 0.15398 0.21513 0.5256 0.0
C2 C 0.13337 0.20172 0.52005 0.0
C3 C 0.13041 0.21436 0.56331 0.0
N4 N 0.14817 0.2019 0.49677 0.0
N5 N 0.1433 0.22282 0.56675 0.0
H6 H 0.16531 0.21959 0.51417 0.0
H7 H 0.12496 0.19319 0.50362 0.0
C8 C 0.14536 0.16858 0.55047 0.0
O9 O 0.15506 0.17727 0.58807 0.0
N10 N 0.15953 0.17279 0.34079 0.0
C11 C 0.17184 0.17265 0.29466 0.0
C12 C 0.16914 0.16223 0.23742 0.0
C13 C 0.14958 0.16252 0.31148 0.0
N14 N 0.15513 0.1559 0.24821 0.0
C15 C 0.18522 0.19412 0.47 0.0
C16 C 0.1945 0.16408 0.49401 0.0
C17 C 0.20562 0.17576 0.49431 0.0
C18 C 0.2007 0.19096 0.484 0.0
C19 C 0.17905 0.16773 0.47904 0.0
N20 N 0.17452 0.18265 0.46712 0.0
H21 H 0.18217 0.20572 0.45509 0.0
H22 H 0.17094 0.15843 0.47202 0.0
H23 H 0.18171 0.18014 0.30007 0.0
H24 H 0.13806 0.16076 0.33303 0.0
O25 O 0.16202 0.20377 0.35663 0.0
O26 O 0.13794 0.19553 0.35721 0.0
O27 O 0.14382 0.17054 0.479 0.0
C28 C 0.14821 0.20506 0.33049 0.0
H29 H 0.11954 0.21722 0.5896 0.0
H30 H 0.17667 0.15987 0.19017 0.0
H31 H 0.19784 0.15214 0.50044 0.0
H32 H 0.2089 0.20034 0.48345 0.0
Co33 Co 0.06167 0.9097 0.65639 0.0
C34 C 0.03306 0.91176 0.75084 0.0
C35 C 0.05366 0.91283 0.81677 0.0
C36 C 0.04141 0.91177 0.8651 0.0
N37 N 0.04858 0.91272 0.74469 0.0
N38 N 0.0285 0.911 0.82368 0.0
H39 H 0.02523 0.91081 0.70374 0.0
H40 H 0.06551 0.9128 0.83418 0.0
C41 C 0.09068 0.89515 0.72121 0.0
O42 O 0.09924 0.90229 0.67114 0.0
N43 N 0.07464 0.90595 0.56917 0.0
C44 C 0.07837 0.91546 0.51173 0.0
C45 C 0.08698 0.90739 0.45975 0.0
C46 C 0.08064 0.89216 0.55004 0.0
N47 N 0.08849 0.89281 0.48453 0.0
C48 C 0.06732 0.9418 0.63512 0.0
C49 C 0.086 0.94684 0.75829 0.0
C50 C 0.0808 0.95953 0.71639 0.0
C51 C 0.07174 0.95676 0.65285 0.0
C52 C 0.0816 0.93189 0.73742 0.0
N53 N 0.07195 0.92945 0.67743 0.0
H54 H 0.05959 0.94043 0.58821 0.0
H55 H 0.08546 0.92257 0.77245 0.0
H56 H 0.07503 0.92735 0.50656 0.0
H57 H 0.07937 0.88184 0.58375 0.0
O58 O 0.04595 0.91752 0.59 0.0
O59 O 0.04817 0.89306 0.62188 0.0
O60 O 0.07611 0.89726 0.7231 0.0
C61 C 0.04106 0.90357 0.58239 0.0
H62 H 0.04195 0.91126 0.92611 0.0
H63 H 0.09201 0.91194 0.40849 0.0
H64 H 0.09306 0.94849 0.80801 0.0
H65 H 0.06724 0.9662 0.61942 0.0
Co66 Co 0.345 0.82365 0.9611 0.0
C67 C 0.34764 0.79691 0.06774 0.0
C68 C 0.35027 0.8185 0.12422 0.0
C69 C 0.3523 0.80685 0.17624 0.0
N70 N 0.34743 0.81229 0.05577 0.0
N71 N 0.3506 0.79331 0.14044 0.0
H72 H 0.3458 0.78839 0.02473 0.0
H73 H 0.35078 0.83069 0.136 0.0
C74 C 0.36134 0.8543 0.99073 0.0
O75 O 0.35549 0.86062 0.92991 0.0
N76 N 0.34348 0.83473 0.86614 0.0
C77 C 0.33112 0.84044 0.82943 0.0
C78 C 0.33619 0.84821 0.76591 0.0
C79 C 0.35565 0.8382 0.82203 0.0
N80 N 0.35161 0.84676 0.76176 0.0
C81 C 0.31561 0.82282 0.02753 0.0
C82 C 0.3072 0.85322 0.00954 0.0
C83 C 0.29606 0.84254 0.03282 0.0
C84 C 0.30063 0.82728 0.04412 0.0
C85 C 0.32231 0.84829 0.99507 0.0
N86 N 0.32622 0.83308 1.00116 0.0
H87 H 0.31842 0.81074 0.03173 0.0
H88 H 0.3303 0.85658 0.97372 0.0
H89 H 0.31933 0.83936 0.84792 0.0
H90 H 0.36743 0.83552 0.83711 0.0
O91 O 0.33485 0.80667 0.9144 0.0
O92 O 0.36009 0.80994 0.9128 0.0
O93 O 0.35877 0.84016 0.00689 0.0
C94 C 0.34817 0.80174 0.89269 0.0
H95 H 0.35446 0.80822 0.23602 0.0
H96 H 0.32913 0.85464 0.7266 0.0
H97 H 0.30413 0.86515 1.00012 0.0
H98 H 0.29242 0.81855 0.06085 0.0
Co99 Co 0.43789 0.09604 0.13821 0.0
C100 C 0.46462 0.09296 0.24812 0.0
C101 C 0.45191 0.11398 0.25689 0.0
C102 C 0.46412 0.11476 0.30539 0.0
N103 N 0.45186 0.1002 0.2219 0.0
N104 N 0.47223 0.10161 0.29982 0.0
H105 H 0.46887 0.08211 0.22736 0.0
H106 H 0.4439 0.12322 0.24564 0.0
C107 C 0.41654 0.10689 0.26126 0.0
O108 O 0.42341 0.09755 0.30896 0.0
N109 N 0.42381 0.09355 0.05497 0.0
C110 C 0.41844 0.08098 0.01902 0.0
C111 C 0.40771 0.08571 0.96578 0.0
C112 C 0.41654 0.10557 0.02309 0.0
N113 N 0.4067 0.10118 0.96871 0.0
C114 C 0.44278 0.0647 0.17733 0.0
C115 C 0.41287 0.05685 0.21262 0.0
C116 C 0.42411 0.04524 0.20983 0.0
C117 C 0.43922 0.04942 0.19278 0.0
C118 C 0.41692 0.07215 0.19554 0.0
N119 N 0.43183 0.07598 0.179 0.0
H120 H 0.45434 0.06719 0.1598 0.0
H121 H 0.40791 0.08068 0.19188 0.0
H122 H 0.42195 0.06927 0.03068 0.0
H123 H 0.4183 0.11739 0.04018 0.0
O124 O 0.45455 0.08884 0.07624 0.0
O125 O 0.44751 0.11327 0.085 0.0
O126 O 0.42089 0.10744 0.1924 0.0
C127 C 0.45666 0.10298 0.05573 0.0
H128 H 0.46688 0.12443 0.34129 0.0
H129 H 0.4014 0.07843 0.92713 0.0
H130 H 0.40099 0.05403 0.22466 0.0
H131 H 0.44827 0.04086 0.19011 0.0
Co132 Co 0.15557 0.81253 0.05656 0.0
C133 C 0.15252 0.78718 0.94233 0.0
C134 C 0.16542 0.80655 0.90197 0.0
C135 C 0.16324 0.79657 0.84305 0.0
N136 N 0.15879 0.80072 0.96461 0.0
N137 N 0.15505 0.78445 0.86816 0.0
H138 H 0.14551 0.7799 0.97785 0.0
H139 H 0.1708 0.81774 0.89819 0.0
C140 C 0.14048 0.84239 0.99879 0.0
O141 O 0.1426 0.84965 0.06271 0.0
N142 N 0.15197 0.82424 0.14782 0.0
C143 C 0.16226 0.8283 0.20109 0.0
C144 C 0.15467 0.83626 0.2572 0.0
C145 C 0.13822 0.82902 0.17414 0.0
N146 N 0.1396 0.83687 0.2394 0.0
C147 C 0.18788 0.81136 0.04581 0.0
C148 C 0.19421 0.84251 0.04951 0.0
C149 C 0.20636 0.83195 0.05542 0.0
C150 C 0.20306 0.81625 0.05138 0.0
C151 C 0.17901 0.83708 0.04461 0.0
N152 N 0.17599 0.82163 0.04495 0.0
H153 H 0.1856 0.79915 0.04481 0.0
H154 H 0.16984 0.84534 0.04448 0.0
H155 H 0.17446 0.82588 0.19889 0.0
H156 H 0.1275 0.82747 0.14397 0.0
O157 O 0.16187 0.79567 0.11958 0.0
O158 O 0.13785 0.79966 0.08252 0.0
O159 O 0.14525 0.82857 0.98926 0.0
C160 C 0.14759 0.79153 0.12223 0.0
H161 H 0.16705 0.7983 0.7855 0.0
H162 H 0.15993 0.84181 0.30539 0.0
H163 H 0.19638 0.85476 0.05243 0.0
H164 H 0.21216 0.80775 0.0547 0.0
Co165 Co 0.44057 0.90625 0.3798 0.0
C166 C 0.46875 0.90813 0.28136 0.0
C167 C 0.45497 0.88799 0.26316 0.0
C168 C 0.4679 0.8868 0.21967 0.0
N169 N 0.45536 0.90133 0.30169 0.0
N170 N 0.47667 0.89934 0.23131 0.0
H171 H 0.47288 0.91885 0.3048 0.0
H172 H 0.44615 0.87929 0.26842 0.0
C173 C 0.41067 0.89766 0.30578 0.0
O174 O 0.40452 0.91059 0.3296 0.0
N175 N 0.42533 0.90971 0.45874 0.0
C176 C 0.42173 0.92223 0.50031 0.0
C177 C 0.40985 0.91853 0.5486 0.0
C178 C 0.41588 0.89853 0.48448 0.0
N179 N 0.40618 0.90362 0.53841 0.0
C180 C 0.43988 0.93896 0.36701 0.0
C181 C 0.42673 0.94138 0.22588 0.0
C182 C 0.42944 0.95486 0.26758 0.0
C183 C 0.43642 0.95345 0.33823 0.0
C184 C 0.43018 0.92693 0.25781 0.0
N185 N 0.4358 0.92583 0.3298 0.0
H186 H 0.44594 0.93842 0.41993 0.0
H187 H 0.4284 0.9167 0.22439 0.0
H188 H 0.42725 0.93328 0.49806 0.0
H189 H 0.41592 0.8869 0.4628 0.0
O190 O 0.45673 0.9137 0.44398 0.0
O191 O 0.44904 0.88948 0.44028 0.0
O192 O 0.42466 0.89443 0.32071 0.0
C193 C 0.45831 0.89976 0.46863 0.0
H194 H 0.47068 0.87731 0.1826 0.0
H195 H 0.40453 0.92618 0.58912 0.0
H196 H 0.42195 0.94199 0.16952 0.0
H197 H 0.43957 0.96354 0.37056 0.0
Co198 Co 0.34774 0.18678 0.5841 0.0
C199 C 0.34877 0.21411 0.47671 0.0
C200 C 0.368 0.19888 0.46806 0.0
C201 C 0.37051 0.21109 0.42077 0.0
N202 N 0.35415 0.20036 0.50184 0.0
N203 N 0.35845 0.22072 0.42614 0.0
H204 H 0.33865 0.21978 0.49794 0.0
H205 H 0.37619 0.18981 0.47945 0.0
C206 C 0.35775 0.16449 0.4642 0.0
O207 O 0.34887 0.17178 0.41587 0.0
N208 N 0.34303 0.17302 0.66629 0.0
C209 C 0.33004 0.17065 0.70611 0.0
C210 C 0.33289 0.15916 0.7588 0.0
C211 C 0.35348 0.16327 0.69527 0.0
N212 N 0.34771 0.15466 0.75178 0.0
C213 C 0.31788 0.19412 0.52867 0.0
C214 C 0.30733 0.16453 0.50617 0.0
C215 C 0.2972 0.17692 0.49503 0.0
C216 C 0.30274 0.19182 0.50604 0.0
C217 C 0.3227 0.1674 0.52715 0.0
N218 N 0.32788 0.18214 0.53728 0.0
H219 H 0.32116 0.20558 0.54409 0.0
H220 H 0.33019 0.15775 0.53872 0.0
H221 H 0.31933 0.17674 0.69742 0.0
H222 H 0.36515 0.16242 0.6744 0.0
O223 O 0.34105 0.20405 0.64338 0.0
O224 O 0.36485 0.19495 0.64281 0.0
O225 O 0.35841 0.16894 0.53282 0.0
C226 C 0.35501 0.205 0.66858 0.0
H227 H 0.38057 0.21279 0.38581 0.0
H228 H 0.3248 0.15468 0.7997 0.0
H229 H 0.30337 0.15279 0.49964 0.0
H230 H 0.29517 0.20168 0.50083 0.0
Co231 Co 0.06653 0.0999 0.86328 0.0
C232 C 0.0389 0.0993 0.75618 0.0
C233 C 0.04994 0.12114 0.76969 0.0
C234 C 0.03767 0.12309 0.72251 0.0
N235 N 0.05099 0.10624 0.79035 0.0
N236 N 0.03062 0.10942 0.71402 0.0
H237 H 0.0359 0.08736 0.76291 0.0
H238 H 0.05767 0.13011 0.7883 0.0
C239 C 0.08341 0.11068 0.72843 0.0
O240 O 0.07422 0.10138 0.69123 0.0
N241 N 0.08204 0.09513 0.93757 0.0
C242 C 0.08316 0.08247 0.98118 0.0
C243 C 0.09399 0.08518 0.03658 0.0
C244 C 0.09216 0.10529 0.9665 0.0
N245 N 0.0996 0.09954 0.02719 0.0
C246 C 0.06016 0.06923 0.81407 0.0
C247 C 0.08964 0.06184 0.76803 0.0
C248 C 0.07843 0.05029 0.76986 0.0
C249 C 0.06354 0.05415 0.79278 0.0
C250 C 0.08586 0.07678 0.79146 0.0
N251 N 0.07114 0.08046 0.81252 0.0
H252 H 0.04888 0.07157 0.83631 0.0
H253 H 0.09497 0.08516 0.79609 0.0
H254 H 0.07603 0.07234 0.97556 0.0
H255 H 0.09321 0.11704 0.94685 0.0
O256 O 0.0509 0.09211 0.92974 0.0
O257 O 0.05879 0.11626 0.929 0.0
O258 O 0.08241 0.11147 0.80065 0.0
C259 C 0.04961 0.10583 0.95715 0.0
H260 H 0.03437 0.1338 0.69586 0.0
H261 H 0.0971 0.0774 0.08185 0.0
H262 H 0.10138 0.05918 0.75228 0.0
H263 H 0.05462 0.04547 0.79596 0.0
Co264 Co 0.85313 0.81545 0.56543 0.0
C265 C 0.8509 0.79096 0.44315 0.0
C266 C 0.87147 0.80441 0.43999 0.0
C267 C 0.8725 0.79336 0.38518 0.0
N268 N 0.85779 0.80328 0.47558 0.0
N269 N 0.8596 0.78484 0.38705 0.0
H270 H 0.84026 0.78594 0.46212 0.0
H271 H 0.88042 0.81251 0.45451 0.0
C272 C 0.86077 0.83862 0.44841 0.0
O273 O 0.85035 0.83177 0.40654 0.0
N274 N 0.84994 0.82757 0.65521 0.0
C275 C 0.83841 0.82677 0.70576 0.0
C276 C 0.84195 0.83624 0.76587 0.0
C277 C 0.86029 0.83737 0.68489 0.0
N278 N 0.85573 0.84289 0.75246 0.0
C279 C 0.82171 0.8104 0.52428 0.0
C280 C 0.81277 0.8409 0.51904 0.0
C281 C 0.80148 0.82944 0.51402 0.0
C282 C 0.8062 0.81404 0.51546 0.0
C283 C 0.82827 0.83673 0.52863 0.0
N284 N 0.83267 0.82158 0.53002 0.0
H285 H 0.82464 0.79851 0.53243 0.0
H286 H 0.83657 0.84571 0.53919 0.0
H287 H 0.82837 0.8195 0.70027 0.0
H288 H 0.8713 0.83982 0.65903 0.0
O289 O 0.84685 0.79729 0.61859 0.0
O290 O 0.87087 0.80587 0.61454 0.0
O291 O 0.86337 0.83379 0.51555 0.0
C292 C 0.86106 0.79563 0.63874 0.0
H293 H 0.88211 0.79171 0.34725 0.0
H294 H 0.83501 0.83797 0.81583 0.0
H295 H 0.80957 0.85294 0.51988 0.0
H296 H 0.79785 0.80481 0.51259 0.0
Co297 Co 0.93879 0.10249 0.35952 0.0
C298 C 0.96604 0.09963 0.25686 0.0
C299 C 0.95086 0.11809 0.22626 0.0
C300 C 0.96367 0.11891 0.18134 0.0
N301 N 0.95223 0.106 0.27361 0.0
N302 N 0.97331 0.10743 0.20084 0.0
H303 H 0.97103 0.09009 0.28758 0.0
H304 H 0.94162 0.1264 0.22665 0.0
C305 C 0.90745 0.11307 0.30707 0.0
O306 O 0.90096 0.1021 0.34688 0.0
N307 N 0.9253 0.10013 0.44651 0.0
C308 C 0.92067 0.0875 0.48469 0.0
C309 C 0.9101 0.09186 0.53862 0.0
C310 C 0.91785 0.11199 0.47976 0.0
N311 N 0.90828 0.10724 0.53507 0.0
C312 C 0.93783 0.0698 0.3498 0.0
C313 C 0.91842 0.06694 0.22755 0.0
C314 C 0.92317 0.05357 0.26595 0.0
C315 C 0.93336 0.05524 0.32635 0.0
C316 C 0.92328 0.08148 0.25304 0.0
N317 N 0.93219 0.08281 0.31641 0.0
H318 H 0.94555 0.07043 0.39719 0.0
H319 H 0.91992 0.09152 0.22126 0.0
H320 H 0.92433 0.07586 0.47461 0.0
H321 H 0.91876 0.12378 0.46062 0.0
O322 O 0.95573 0.09474 0.41736 0.0
O323 O 0.94915 0.11926 0.41277 0.0
O324 O 0.92209 0.1145 0.30553 0.0
C325 C 0.95831 0.10865 0.43946 0.0
H326 H 0.96585 0.12753 0.13852 0.0
H327 H 0.9041 0.08424 0.57695 0.0
H328 H 0.91097 0.0662 0.17874 0.0
H329 H 0.93805 0.04532 0.35548 0.0
Co330 Co 0.65686 0.18515 0.06811 0.0
C331 C 0.654 0.21422 0.97655 0.0
C332 C 0.65898 0.19433 0.90932 0.0
C333 C 0.65667 0.20662 0.86175 0.0
N334 N 0.65715 0.19898 0.98139 0.0
N335 N 0.65354 0.21908 0.90408 0.0
H336 H 0.65177 0.22163 0.02424 0.0
H337 H 0.6617 0.1827 0.89236 0.0
C338 C 0.64105 0.15608 0.00672 0.0
O339 O 0.64394 0.14795 0.06745 0.0
N340 N 0.65601 0.17147 0.15485 0.0
C341 C 0.66772 0.16567 0.19601 0.0
C342 C 0.6617 0.15664 0.25289 0.0
C343 C 0.64309 0.16669 0.19017 0.0
N344 N 0.64621 0.15725 0.24876 0.0
C345 C 0.68815 0.18793 0.02882 0.0
C346 C 0.69568 0.15707 0.02079 0.0
C347 C 0.70735 0.1681 0.01302 0.0
C348 C 0.70334 0.18368 0.0157 0.0
C349 C 0.6804 0.16186 0.03196 0.0
N350 N 0.67689 0.17716 0.0378 0.0
H351 H 0.68545 0.20002 0.03389 0.0
H352 H 0.67167 0.15325 0.04 0.0
H353 H 0.67979 0.16779 0.18565 0.0
H354 H 0.6316 0.16935 0.17048 0.0
O355 O 0.66431 0.20094 0.13414 0.0
O356 O 0.63965 0.1966 0.11065 0.0
O357 O 0.64548 0.17007 1.00075 0.0
C358 C 0.65006 0.20444 0.14732 0.0
H359 H 0.65745 0.20651 0.80077 0.0
H360 H 0.66821 0.15011 0.29401 0.0
H361 H 0.69838 0.1449 0.01926 0.0
H362 H 0.71201 0.19257 0.01087 0.0
Co363 Co 0.56842 0.90285 0.88077 0.0
C364 C 0.54022 0.90382 0.77876 0.0
C365 C 0.55168 0.88205 0.78303 0.0
C366 C 0.53902 0.8806 0.73752 0.0
N367 N 0.55277 0.89668 0.80783 0.0
N368 N 0.53176 0.89428 0.73473 0.0
H369 H 0.5368 0.91542 0.79145 0.0
H370 H 0.55951 0.87288 0.79815 0.0
C371 C 0.58691 0.88924 0.75459 0.0
O372 O 0.57905 0.89781 0.70707 0.0
N373 N 0.58421 0.90749 0.95372 0.0
C374 C 0.58683 0.92025 0.99483 0.0
C375 C 0.59992 0.91784 0.0381 0.0
C376 C 0.59551 0.89761 0.97239 0.0
N377 N 0.60538 0.90364 0.02273 0.0
C378 C 0.56313 0.93266 0.81928 0.0
C379 C 0.59276 0.93873 0.77163 0.0
C380 C 0.58137 0.94999 0.76244 0.0
C381 C 0.56645 0.94682 0.7867 0.0
C382 C 0.58882 0.92443 0.80329 0.0
N383 N 0.57397 0.92136 0.82448 0.0
H384 H 0.55196 0.93122 0.84423 0.0
H385 H 0.59781 0.9161 0.8133 0.0
H386 H 0.57983 0.93054 0.99313 0.0
H387 H 0.59638 0.88603 0.95051 0.0
O388 O 0.55305 0.91204 0.94441 0.0
O389 O 0.55999 0.88757 0.94987 0.0
O390 O 0.58397 0.88981 0.82516 0.0
C391 C 0.55127 0.89865 0.97531 0.0
H392 H 0.53552 0.87024 0.70849 0.0
H393 H 0.60512 0.92593 0.07684 0.0
H394 H 0.60456 0.94103 0.7555 0.0
H395 H 0.55752 0.95551 0.78341 0.0
Co396 Co 0.84808 0.19281 0.9489 0.0
C397 C 0.85018 0.22053 0.04998 0.0
C398 C 0.84895 0.19928 0.11133 0.0
C399 C 0.85089 0.21106 0.16219 0.0
N400 N 0.84864 0.20513 0.04075 0.0
N401 N 0.85168 0.22438 0.12358 0.0
H402 H 0.85042 0.22878 0.00432 0.0
H403 H 0.84791 0.1872 0.12514 0.0
C404 C 0.86445 0.1628 0.99326 0.0
O405 O 0.85978 0.15547 0.93293 0.0
N406 N 0.84812 0.18063 0.85704 0.0
C407 C 0.83611 0.17525 0.81676 0.0
C408 C 0.84171 0.16679 0.75685 0.0
C409 C 0.86077 0.17626 0.81828 0.0
N410 N 0.85721 0.1674 0.75832 0.0
C411 C 0.81717 0.19485 0.99326 0.0
C412 C 0.80926 0.16413 0.98307 0.0
C413 C 0.79759 0.17525 0.98755 0.0
C414 C 0.80176 0.19066 0.99647 0.0
C415 C 0.82473 0.16886 0.98037 0.0
N416 N 0.82841 0.18417 0.98111 0.0
H417 H 0.81998 0.20694 0.99495 0.0
H418 H 0.83343 0.16029 0.97118 0.0
H419 H 0.82413 0.17715 0.83014 0.0
H420 H 0.8724 0.1786 0.83686 0.0
O421 O 0.83964 0.20949 0.89085 0.0
O422 O 0.86459 0.2053 0.90598 0.0
O423 O 0.86062 0.17678 0.00603 0.0
C424 C 0.85364 0.21343 0.87479 0.0
H425 H 0.8514 0.20996 0.22301 0.0
H426 H 0.83493 0.16054 0.7159 0.0
H427 H 0.80643 0.15208 0.97627 0.0
H428 H 0.79307 0.19956 1.0011 0.0
Co429 Co 0.565 0.08981 0.64623 0.0
C430 C 0.5355 0.09376 0.73361 0.0
C431 C 0.55514 0.08944 0.80387 0.0
C432 C 0.54267 0.0921 0.84965 0.0
N433 N 0.55078 0.09067 0.73103 0.0
N434 N 0.53039 0.09483 0.80547 0.0
H435 H 0.52825 0.09544 0.68474 0.0
H436 H 0.56667 0.08677 0.82257 0.0
C437 C 0.59387 0.1063 0.70776 0.0
O438 O 0.60249 0.10278 0.64965 0.0
N439 N 0.57915 0.08913 0.56148 0.0
C440 C 0.58451 0.07647 0.52633 0.0
C441 C 0.59455 0.08096 0.47047 0.0
C442 C 0.58525 0.10114 0.52334 0.0
N443 N 0.59519 0.09647 0.46931 0.0
C444 C 0.56189 0.05854 0.68661 0.0
C445 C 0.59246 0.05203 0.71594 0.0
C446 C 0.58175 0.03997 0.7152 0.0
C447 C 0.56627 0.04345 0.70198 0.0
C448 C 0.58759 0.06706 0.69937 0.0
N449 N 0.57249 0.07007 0.68328 0.0
H450 H 0.54991 0.06093 0.67528 0.0
H451 H 0.5961 0.07599 0.69603 0.0
H452 H 0.58153 0.06476 0.54078 0.0
H453 H 0.58333 0.11304 0.53869 0.0
O454 O 0.54926 0.08204 0.58013 0.0
O455 O 0.55422 0.10677 0.59751 0.0
O456 O 0.57989 0.10178 0.71239 0.0
C457 C 0.54613 0.09623 0.56317 0.0
H458 H 0.54254 0.09176 0.91073 0.0
H459 H 0.6011 0.07335 0.43434 0.0
H460 H 0.60453 0.04978 0.72611 0.0
H461 H 0.55758 0.03452 0.7026 0.0
Co462 Co 0.66044 0.81749 0.41327 0.0
C463 C 0.66023 0.78982 0.51974 0.0
C464 C 0.63911 0.80244 0.51389 0.0
C465 C 0.63693 0.79009 0.56065 0.0
N466 N 0.65377 0.80258 0.48894 0.0
N467 N 0.65017 0.78208 0.56431 0.0
H468 H 0.67167 0.78576 0.50812 0.0
H469 H 0.63039 0.81069 0.49776 0.0
C470 C 0.64886 0.83682 0.54144 0.0
O471 O 0.65725 0.82857 0.5881 0.0
N472 N 0.66552 0.83264 0.33758 0.0
C473 C 0.6771 0.83309 0.28702 0.0
C474 C 0.67472 0.84557 0.23946 0.0
C475 C 0.6564 0.84466 0.3204 0.0
N476 N 0.66175 0.85284 0.2616 0.0
C477 C 0.69045 0.80992 0.46552 0.0
C478 C 0.69968 0.83912 0.50671 0.0
C479 C 0.71026 0.82694 0.51136 0.0
C480 C 0.70541 0.81223 0.49078 0.0
C481 C 0.68452 0.83619 0.48277 0.0
N482 N 0.67997 0.82161 0.46389 0.0
H483 H 0.68768 0.79881 0.44281 0.0
H484 H 0.67669 0.84576 0.47616 0.0
H485 H 0.6863 0.82473 0.28353 0.0
H486 H 0.6455 0.84692 0.34764 0.0
O487 O 0.66756 0.80125 0.34865 0.0
O488 O 0.64373 0.81023 0.34924 0.0
O489 O 0.6492 0.83407 0.47072 0.0
C490 C 0.65373 0.80053 0.3217 0.0
H491 H 0.62636 0.78727 0.58975 0.0
H492 H 0.68177 0.84887 0.1918 0.0
H493 H 0.70315 0.85075 0.52046 0.0
H494 H 0.71339 0.80264 0.49064 0.0
Co495 Co 0.93506 0.91235 0.15124 0.0
C496 C 0.96253 0.91212 0.25416 0.0
C497 C 0.94135 0.90881 0.31384 0.0
C498 C 0.95328 0.90719 0.3641 0.0
N499 N 0.94706 0.91178 0.24443 0.0
N500 N 0.96658 0.9092 0.32661 0.0
H501 H 0.97075 0.91395 0.20921 0.0
H502 H 0.92933 0.90756 0.32765 0.0
C503 C 0.90343 0.90188 0.19713 0.0
O504 O 0.89744 0.91226 0.15182 0.0
N505 N 0.92309 0.91225 0.05823 0.0
C506 C 0.92175 0.92334 0.00519 0.0
C507 C 0.91336 0.91769 0.94547 0.0
C508 C 0.91577 0.8999 0.02881 0.0
N509 N 0.90955 0.90298 0.96059 0.0
C510 C 0.93361 0.9451 0.14271 0.0
C511 C 0.91255 0.95048 0.25586 0.0
C512 C 0.91867 0.96311 0.21631 0.0
C513 C 0.92943 0.96014 0.15961 0.0
C514 C 0.91713 0.93543 0.23711 0.0
N515 N 0.92721 0.93279 0.17918 0.0
H516 H 0.94225 0.94358 0.09999 0.0
H517 H 0.91275 0.9261 0.2708 0.0
H518 H 0.92682 0.93462 0.00743 0.0
H519 H 0.9153 0.88877 0.05622 0.0
O520 O 0.95258 0.91911 0.09441 0.0
O521 O 0.94657 0.89465 0.11298 0.0
O522 O 0.91801 0.90083 0.20471 0.0
C523 C 0.95553 0.90478 0.08113 0.0
H524 H 0.95225 0.90476 0.42383 0.0
H525 H 0.91036 0.92392 0.89462 0.0
H526 H 0.90443 0.95216 0.30142 0.0
H527 H 0.93512 0.9694 0.12971 0.0
Co528 Co 0.65359 0.68977 0.91765 0.0
C529 C 0.65548 0.71788 0.01751 0.0
C530 C 0.63488 0.70483 0.03279 0.0
C531 C 0.63388 0.71779 0.07648 0.0
N532 N 0.64865 0.70447 0.99747 0.0
N533 N 0.64683 0.72603 0.0669 0.0
H534 H 0.66591 0.72229 0.99278 0.0
H535 H 0.62572 0.6966 0.02473 0.0
C536 C 0.64082 0.66946 0.03856 0.0
O537 O 0.65049 0.67594 0.08584 0.0
N538 N 0.65716 0.67524 0.83735 0.0
C539 C 0.66997 0.6723 0.7971 0.0
C540 C 0.66674 0.66056 0.74679 0.0
C541 C 0.64641 0.66555 0.81088 0.0
N542 N 0.65188 0.65639 0.75565 0.0
C543 C 0.68372 0.69287 0.97971 0.0
C544 C 0.68996 0.66185 0.99519 0.0
C545 C 0.70179 0.67251 0.00742 0.0
C546 C 0.69839 0.68819 1.00098 0.0
C547 C 0.67521 0.6671 0.97567 0.0
N548 N 0.67223 0.6825 0.96784 0.0
H549 H 0.6821 0.7048 0.96672 0.0
H550 H 0.66648 0.65871 0.96202 0.0
H551 H 0.68084 0.67817 0.80417 0.0
H552 H 0.6348 0.66511 0.83268 0.0
O553 O 0.66286 0.70581 0.85843 0.0
O554 O 0.6381 0.69978 0.85556 0.0
O555 O 0.6405 0.67371 0.96947 0.0
C556 C 0.64928 0.70846 0.83091 0.0
H557 H 0.62424 0.72097 0.11177 0.0
H558 H 0.67466 0.65565 0.70627 0.0
H559 H 0.69221 0.64961 0.9982 0.0
H560 H 0.70732 0.69679 0.00687 0.0
Co561 Co 0.57182 0.41036 0.16469 0.0
C562 C 0.54325 0.40991 0.26018 0.0
C563 C 0.56376 0.40603 0.32447 0.0
C564 C 0.55137 0.40398 0.37115 0.0
N565 N 0.5588 0.40972 0.25444 0.0
N566 N 0.53848 0.40627 0.33078 0.0
H567 H 0.53551 0.41199 0.21347 0.0
H568 H 0.57557 0.40432 0.34112 0.0
C569 C 0.60291 0.40078 0.22091 0.0
O570 O 0.60885 0.41204 0.18083 0.0
N571 N 0.58501 0.40987 0.076 0.0
C572 C 0.58884 0.4207 0.02455 0.0
C573 C 0.5991 0.41439 0.97379 0.0
C574 C 0.59265 0.39711 0.05419 0.0
N575 N 0.60159 0.39961 0.99333 0.0
C576 C 0.57444 0.44297 0.15272 0.0
C577 C 0.58999 0.44859 0.28543 0.0
C578 C 0.58519 0.46111 0.24113 0.0
C579 C 0.57751 0.45807 0.17363 0.0
C580 C 0.58699 0.43348 0.26129 0.0
N581 N 0.57935 0.43074 0.19503 0.0
H582 H 0.56754 0.44128 0.10298 0.0
H583 H 0.5904 0.42415 0.2976 0.0
H584 H 0.58475 0.43237 0.02283 0.0
H585 H 0.59183 0.3862 0.08341 0.0
O586 O 0.55502 0.41736 0.10287 0.0
O587 O 0.56052 0.39284 0.1228 0.0
O588 O 0.58834 0.39881 0.22259 0.0
C589 C 0.55201 0.40309 0.08868 0.0
H590 H 0.55182 0.40091 0.43034 0.0
H591 H 0.60458 0.42034 0.92733 0.0
H592 H 0.59573 0.45046 0.33887 0.0
H593 H 0.5731 0.46736 0.13894 0.0
Co594 Co 0.84883 0.31984 0.44452 0.0
C595 C 0.84512 0.29298 0.55053 0.0
C596 C 0.85449 0.31285 0.60513 0.0
C597 C 0.85514 0.30077 0.65469 0.0
N598 N 0.84821 0.30813 0.5392 0.0
N599 N 0.84941 0.28825 0.62036 0.0
H600 H 0.84068 0.28534 0.50764 0.0
H601 H 0.85887 0.32419 0.61707 0.0
C602 C 0.85544 0.35108 0.50785 0.0
O603 O 0.84325 0.35616 0.47174 0.0
N604 N 0.85094 0.33142 0.34965 0.0
C605 C 0.84561 0.3275 0.2805 0.0
C606 C 0.8522 0.33676 0.22671 0.0
C607 C 0.86146 0.34255 0.33511 0.0
N608 N 0.86224 0.34622 0.26103 0.0
C609 C 0.81794 0.32855 0.40737 0.0
C610 C 0.80763 0.33498 0.55095 0.0
C611 C 0.79689 0.33455 0.49154 0.0
C612 C 0.80255 0.33212 0.41861 0.0
C613 C 0.82331 0.33204 0.53643 0.0
N614 N 0.8283 0.32846 0.46518 0.0
H615 H 0.82108 0.32492 0.35208 0.0
H616 H 0.83125 0.33215 0.58315 0.0
H617 H 0.83808 0.31795 0.26833 0.0
H618 H 0.86936 0.34704 0.37655 0.0
O619 O 0.84174 0.30231 0.38902 0.0
O620 O 0.86631 0.30725 0.41243 0.0
O621 O 0.85972 0.33707 0.50007 0.0
C622 C 0.85602 0.29844 0.38035 0.0
H623 H 0.85977 0.30109 0.71139 0.0
H624 H 0.85009 0.33615 0.16662 0.0
H625 H 0.80395 0.33686 0.60854 0.0
H626 H 0.79502 0.33218 0.36996 0.0
Co627 Co 0.93913 0.60118 0.64653 0.0
C628 C 0.96715 0.60198 0.74644 0.0
C629 C 0.94626 0.60105 0.81014 0.0
C630 C 0.9583 0.60233 0.85968 0.0
N631 N 0.95165 0.60101 0.7386 0.0
N632 N 0.97141 0.60295 0.81969 0.0
H633 H 0.9752 0.602 0.70016 0.0
H634 H 0.93443 0.59999 0.82673 0.0
C635 C 0.91165 0.6096 0.74516 0.0
O636 O 0.9096 0.59508 0.76258 0.0
N637 N 0.92662 0.60249 0.5563 0.0
C638 C 0.92705 0.59371 0.49362 0.0
C639 C 0.91671 0.59964 0.44191 0.0
C640 C 0.91623 0.61362 0.54173 0.0
N641 N 0.90989 0.61209 0.47283 0.0
C642 C 0.9402 0.5702 0.70076 0.0
C643 C 0.91178 0.56078 0.64832 0.0
C644 C 0.92182 0.54988 0.67921 0.0
C645 C 0.93603 0.55477 0.70672 0.0
C646 C 0.91627 0.57627 0.64472 0.0
N647 N 0.93037 0.58093 0.67103 0.0
H648 H 0.95179 0.57326 0.71628 0.0
H649 H 0.90838 0.58446 0.62003 0.0
H650 H 0.93443 0.58381 0.48583 0.0
H651 H 0.91368 0.62302 0.57963 0.0
O652 O 0.95587 0.59323 0.58742 0.0
O653 O 0.95146 0.61809 0.60613 0.0
O654 O 0.92289 0.61363 0.7028 0.0
C655 C 0.95956 0.60738 0.57305 0.0
H656 H 0.95752 0.60235 0.92067 0.0
H657 H 0.91437 0.59516 0.38613 0.0
H658 H 0.90072 0.55732 0.62598 0.0
H659 H 0.94421 0.54655 0.72931 0.0
Co660 Co 0.65393 0.31177 0.5738 0.0
C661 C 0.65479 0.28426 0.46943 0.0
C662 C 0.63752 0.30073 0.44036 0.0
C663 C 0.63605 0.2884 0.39302 0.0
N664 N 0.64964 0.29855 0.48696 0.0
N665 N 0.64688 0.27799 0.4112 0.0
H666 H 0.66331 0.278 0.50148 0.0
H667 H 0.62953 0.31023 0.44289 0.0
C668 C 0.64682 0.33531 0.4548 0.0
O669 O 0.65792 0.32937 0.41377 0.0
N670 N 0.65681 0.32497 0.66 0.0
C671 C 0.6674 0.32426 0.71548 0.0
C672 C 0.6641 0.33562 0.76779 0.0
C673 C 0.64731 0.33656 0.67901 0.0
N674 N 0.65153 0.34335 0.74395 0.0
C675 C 0.68452 0.30584 0.52404 0.0
C676 C 0.69502 0.33583 0.52254 0.0
C677 C 0.70536 0.32386 0.50631 0.0
C678 C 0.69986 0.30875 0.50749 0.0
C679 C 0.67953 0.33238 0.53816 0.0
N680 N 0.67436 0.31748 0.53716 0.0
H681 H 0.68111 0.29407 0.53042 0.0
H682 H 0.67178 0.34164 0.55278 0.0
H683 H 0.67668 0.31598 0.71826 0.0
H684 H 0.63712 0.33964 0.64735 0.0
O685 O 0.66037 0.29442 0.63285 0.0
O686 O 0.6362 0.30247 0.62373 0.0
O687 O 0.64366 0.32957 0.5195 0.0
C688 C 0.64611 0.29274 0.65211 0.0
H689 H 0.62745 0.28712 0.34933 0.0
H690 H 0.6704 0.33799 0.81915 0.0
H691 H 0.69886 0.34768 0.52329 0.0
H692 H 0.70753 0.2991 0.49831 0.0
Co693 Co 0.94347 0.41112 0.8275 0.0
C694 C 0.97132 0.41163 0.72704 0.0
C695 C 0.95027 0.40894 0.66551 0.0
C696 C 0.96228 0.40713 0.61618 0.0
N697 N 0.95581 0.41165 0.73554 0.0
N698 N 0.97547 0.40873 0.65485 0.0
H699 H 0.97946 0.41292 0.77272 0.0
H700 H 0.93831 0.40759 0.65081 0.0
C701 C 0.9127 0.39945 0.77121 0.0
O702 O 0.90552 0.40977 0.8123 0.0
N703 N 0.93095 0.4097 0.91821 0.0
C704 C 0.92748 0.42025 0.97138 0.0
C705 C 0.91812 0.41351 0.02482 0.0
C706 C 0.924 0.39665 0.9415 0.0
N707 N 0.91586 0.39867 0.00564 0.0
C708 C 0.93978 0.4435 0.84291 0.0
C709 C 0.91954 0.44898 0.72604 0.0
C710 C 0.92401 0.46128 0.77231 0.0
C711 C 0.93445 0.45835 0.83041 0.0
C712 C 0.92507 0.43404 0.7413 0.0
N713 N 0.93467 0.43131 0.80128 0.0
H714 H 0.94802 0.44197 0.88758 0.0
H715 H 0.92164 0.42489 0.70418 0.0
H716 H 0.93136 0.432 0.97273 0.0
H717 H 0.92493 0.38586 0.9115 0.0
O718 O 0.96055 0.41842 0.88725 0.0
O719 O 0.95574 0.39391 0.8654 0.0
O720 O 0.9274 0.39888 0.77067 0.0
C721 C 0.96422 0.40419 0.89911 0.0
H722 H 0.96141 0.40454 0.55658 0.0
H723 H 0.91313 0.41924 0.07318 0.0
H724 H 0.91178 0.45084 0.67909 0.0
H725 H 0.93872 0.46757 0.86575 0.0
Co726 Co 0.84433 0.69213 0.04562 0.0
C727 C 0.85058 0.71562 0.92487 0.0
C728 C 0.83719 0.69648 0.8861 0.0
C729 C 0.84023 0.70588 0.82574 0.0
N730 N 0.84351 0.70259 0.94865 0.0
N731 N 0.84877 0.71788 0.84969 0.0
H732 H 0.85739 0.72299 0.96081 0.0
H733 H 0.83112 0.68564 0.88394 0.0
C734 C 0.85658 0.66 0.0084 0.0
O735 O 0.85117 0.65454 0.07211 0.0
N736 N 0.84581 0.68168 0.14197 0.0
C737 C 0.83471 0.67719 0.19033 0.0
C738 C 0.84145 0.66854 0.24702 0.0
C739 C 0.8591 0.67653 0.17197 0.0
N740 N 0.85676 0.66791 0.23421 0.0
C741 C 0.81255 0.69602 0.02364 0.0
C742 C 0.80284 0.66588 0.03489 0.0
C743 C 0.79191 0.67772 0.03696 0.0
C744 C 0.79692 0.69287 0.02807 0.0
C745 C 0.81856 0.66957 0.03069 0.0
N746 N 0.82331 0.6846 0.02905 0.0
H747 H 0.81605 0.70789 0.01863 0.0
H748 H 0.82658 0.66029 0.03188 0.0
H749 H 0.82255 0.67938 0.18325 0.0
H750 H 0.87014 0.67793 0.14462 0.0
O751 O 0.8383 0.71035 0.09858 0.0
O752 O 0.86247 0.7042 0.07496 0.0
O753 O 0.85463 0.67418 0.99041 0.0
C754 C 0.85269 0.71362 0.10682 0.0
H755 H 0.83644 0.70392 0.7684 0.0
H756 H 0.83544 0.66232 0.29099 0.0
H757 H 0.79934 0.65397 0.04019 0.0
H758 H 0.78879 0.70233 0.0269 0.0
Co759 Co 0.5616 0.60048 0.3693 0.0
C760 C 0.53432 0.59916 0.26222 0.0
C761 C 0.54708 0.62018 0.259 0.0
C762 C 0.53451 0.62185 0.21347 0.0
N763 N 0.54736 0.60584 0.28838 0.0
N764 N 0.52636 0.60871 0.21566 0.0
H765 H 0.53015 0.58806 0.28012 0.0
H766 H 0.55513 0.62922 0.2727 0.0
C767 C 0.58201 0.61312 0.24862 0.0
O768 O 0.57495 0.60399 0.20081 0.0
N769 N 0.57584 0.59688 0.45081 0.0
C770 C 0.58088 0.58387 0.48439 0.0
C771 C 0.59152 0.58789 0.53938 0.0
C772 C 0.58316 0.60844 0.48583 0.0
N773 N 0.59273 0.60336 0.53991 0.0
C774 C 0.55802 0.56977 0.31547 0.0
C775 C 0.5887 0.56385 0.28645 0.0
C776 C 0.57813 0.55173 0.28321 0.0
C777 C 0.56261 0.55487 0.29698 0.0
C778 C 0.58365 0.57861 0.30676 0.0
N779 N 0.56841 0.58149 0.32048 0.0
H780 H 0.54619 0.57154 0.33089 0.0
H781 H 0.59219 0.58742 0.31608 0.0
H782 H 0.57715 0.57237 0.47016 0.0
H783 H 0.58152 0.62046 0.4717 0.0
O784 O 0.54515 0.59178 0.42818 0.0
O785 O 0.55178 0.61635 0.42991 0.0
O786 O 0.57816 0.61311 0.31829 0.0
C787 C 0.5428 0.60545 0.45494 0.0
H788 H 0.53152 0.63212 0.1822 0.0
H789 H 0.59756 0.58016 0.57703 0.0
H790 H 0.60085 0.56177 0.27749 0.0
H791 H 0.55413 0.54575 0.29556 0.0
Co792 Co 0.35549 0.3143 0.0815 0.0
C793 C 0.35408 0.28616 0.98347 0.0
C794 C 0.36886 0.30349 0.93732 0.0
C795 C 0.36964 0.29075 0.8919 0.0
N796 N 0.35901 0.30078 0.99492 0.0
N797 N 0.36038 0.27986 0.92086 0.0
H798 H 0.34644 0.28003 0.02112 0.0
H799 H 0.37549 0.31383 0.92868 0.0
C800 C 0.37209 0.34456 0.03531 0.0
O801 O 0.3691 0.352 0.09784 0.0
N802 N 0.35252 0.32734 0.1692 0.0
C803 C 0.3391 0.33137 0.20172 0.0
C804 C 0.34219 0.34025 0.26419 0.0
C805 C 0.36356 0.33295 0.21527 0.0
N806 N 0.35759 0.3414 0.27217 0.0
C807 C 0.32521 0.31104 0.0237 0.0
C808 C 0.31809 0.34196 0.01231 0.0
C809 C 0.30644 0.33106 1.00107 0.0
C810 C 0.31029 0.31543 0.00505 0.0
C811 C 0.33306 0.33704 0.02957 0.0
N812 N 0.33636 0.32172 0.03712 0.0
H813 H 0.32752 0.29898 0.03176 0.0
H814 H 0.3416 0.34561 0.04226 0.0
H815 H 0.32782 0.32813 0.18157 0.0
H816 H 0.37574 0.33161 0.20457 0.0
O817 O 0.34695 0.2977 0.13895 0.0
O818 O 0.37177 0.30341 0.13562 0.0
O819 O 0.36755 0.33072 0.02516 0.0
C820 C 0.36077 0.29465 0.16187 0.0
H821 H 0.37645 0.28961 0.84107 0.0
H822 H 0.33371 0.34557 0.30047 0.0
H823 H 0.31557 0.35416 0.01006 0.0
H824 H 0.30161 0.3066 0.99835 0.0
Co825 Co 0.43351 0.60152 0.87027 0.0
C826 C 0.46093 0.59879 0.76726 0.0
C827 C 0.44747 0.61925 0.75063 0.0
C828 C 0.46002 0.62 0.70428 0.0
N829 N 0.44791 0.60599 0.78995 0.0
N830 N 0.46858 0.60725 0.71489 0.0
H831 H 0.46497 0.58799 0.7904 0.0
H832 H 0.43887 0.62814 0.75703 0.0
C833 C 0.40337 0.60893 0.79864 0.0
O834 O 0.39815 0.59596 0.8268 0.0
N835 N 0.4186 0.59868 0.95161 0.0
C836 C 0.41111 0.58628 0.97969 0.0
C837 C 0.40029 0.59116 0.03121 0.0
C838 C 0.41208 0.61083 0.98692 0.0
N839 N 0.40091 0.60661 0.03552 0.0
C840 C 0.43217 0.56896 0.86345 0.0
C841 C 0.42267 0.56592 0.71569 0.0
C842 C 0.42534 0.55267 0.75916 0.0
C843 C 0.43014 0.55434 0.83367 0.0
C844 C 0.42439 0.58051 0.74889 0.0
N845 N 0.42856 0.58186 0.82308 0.0
H846 H 0.43665 0.56983 0.92006 0.0
H847 H 0.42285 0.59067 0.71443 0.0
H848 H 0.4125 0.57449 0.96289 0.0
H849 H 0.41488 0.62267 0.97389 0.0
O850 O 0.4498 0.59386 0.93259 0.0
O851 O 0.4428 0.61828 0.92856 0.0
O852 O 0.41722 0.61306 0.81149 0.0
C853 C 0.45187 0.60772 0.95659 0.0
H854 H 0.46268 0.62933 0.66591 0.0
H855 H 0.39233 0.5839 0.06183 0.0
H856 H 0.41957 0.565 0.65667 0.0
H857 H 0.43298 0.54438 0.86784 0.0
Co858 Co 0.1541 0.68797 0.56802 0.0
C859 C 0.14992 0.71584 0.4676 0.0
C860 C 0.15484 0.69513 0.40681 0.0
C861 C 0.15259 0.70676 0.35547 0.0
N862 N 0.15296 0.70067 0.47727 0.0
N863 N 0.14948 0.71977 0.39362 0.0
H864 H 0.14814 0.72388 0.51298 0.0
H865 H 0.15806 0.68344 0.3936 0.0
C866 C 0.13965 0.65726 0.51469 0.0
O867 O 0.14351 0.64951 0.5753 0.0
N868 N 0.155 0.67528 0.65837 0.0
C869 C 0.16762 0.67188 0.69929 0.0
C870 C 0.16343 0.66239 0.75803 0.0
C871 C 0.14316 0.66866 0.69585 0.0
N872 N 0.14807 0.66022 0.75533 0.0
C873 C 0.18494 0.69206 0.52257 0.0
C874 C 0.19413 0.66161 0.52204 0.0
C875 C 0.20518 0.67314 0.51026 0.0
C876 C 0.2003 0.6885 0.50921 0.0
C877 C 0.17867 0.6657 0.53393 0.0
N878 N 0.17434 0.68082 0.53586 0.0
H879 H 0.1816 0.70403 0.52478 0.0
H880 H 0.17049 0.65675 0.54573 0.0
H881 H 0.17914 0.67579 0.68669 0.0
H882 H 0.13133 0.66915 0.6768 0.0
O883 O 0.16109 0.70496 0.62816 0.0
O884 O 0.13654 0.69883 0.61176 0.0
O885 O 0.14311 0.67149 0.50696 0.0
C886 C 0.14679 0.70763 0.64398 0.0
H887 H 0.15374 0.70587 0.29479 0.0
H888 H 0.17115 0.65721 0.79874 0.0
H889 H 0.19744 0.6496 0.52341 0.0
H890 H 0.20843 0.69781 0.50159 0.0
Co891 Co 0.07072 0.39956 0.33301 0.0
C892 C 0.04495 0.40457 0.22115 0.0
C893 C 0.06047 0.38655 0.18883 0.0
C894 C 0.04863 0.38693 0.13802 0.0
N895 N 0.05837 0.39766 0.24112 0.0
N896 N 0.03875 0.3981 0.15839 0.0
H897 H 0.03951 0.41361 0.25349 0.0
H898 H 0.06964 0.37819 0.18815 0.0
C899 C 0.10052 0.3889 0.26645 0.0
O900 O 0.10677 0.40206 0.28593 0.0
N901 N 0.08267 0.39965 0.42713 0.0
C902 C 0.07883 0.407 0.49177 0.0
C903 C 0.08762 0.40147 0.5501 0.0
C904 C 0.09342 0.38921 0.44896 0.0
N905 N 0.09673 0.3902 0.52341 0.0
C906 C 0.08569 0.42944 0.3446 0.0
C907 C 0.0838 0.43722 0.19415 0.0
C908 C 0.08771 0.44873 0.24641 0.0
C909 C 0.08957 0.44425 0.32169 0.0
C910 C 0.08062 0.42217 0.21922 0.0
N911 N 0.08065 0.41856 0.29464 0.0
H912 H 0.08635 0.42732 0.40368 0.0
H913 H 0.07755 0.41371 0.17749 0.0
H914 H 0.06993 0.41561 0.49706 0.0
H915 H 0.09783 0.38018 0.41315 0.0
O916 O 0.05397 0.40955 0.38339 0.0
O917 O 0.05737 0.38424 0.37941 0.0
O918 O 0.08667 0.38581 0.28498 0.0
C919 C 0.04929 0.39596 0.40311 0.0
H920 H 0.04731 0.37933 0.09012 0.0
H921 H 0.08695 0.40515 0.60835 0.0
H922 H 0.08247 0.43986 0.13481 0.0
H923 H 0.09343 0.45232 0.36418 0.0
Co924 Co 0.34752 0.69662 0.45642 0.0
C925 C 0.35115 0.72348 0.56282 0.0
C926 C 0.34488 0.70231 0.61735 0.0
C927 C 0.34657 0.7134 0.67149 0.0
N928 N 0.34767 0.70854 0.54906 0.0
N929 N 0.35046 0.72673 0.63745 0.0
H930 H 0.35391 0.73186 0.51977 0.0
H931 H 0.34187 0.6904 0.62718 0.0
C932 C 0.36169 0.66577 0.50763 0.0
O933 O 0.35648 0.65814 0.44918 0.0
N934 N 0.34778 0.68459 0.36448 0.0
C935 C 0.33578 0.6809 0.31983 0.0
C936 C 0.34107 0.67188 0.26137 0.0
C937 C 0.36027 0.67853 0.33038 0.0
N938 N 0.35645 0.67035 0.26846 0.0
C939 C 0.3163 0.70001 0.49403 0.0
C940 C 0.30693 0.66976 0.48189 0.0
C941 C 0.2958 0.6814 0.48583 0.0
C942 C 0.30069 0.69659 0.49521 0.0
C943 C 0.32262 0.67372 0.48079 0.0
N944 N 0.32711 0.6888 0.48341 0.0
H945 H 0.31969 0.71195 0.49692 0.0
H946 H 0.33082 0.66472 0.47213 0.0
H947 H 0.32399 0.68434 0.32942 0.0
H948 H 0.3718 0.67937 0.35301 0.0
O949 O 0.34027 0.71376 0.39813 0.0
O950 O 0.36491 0.70862 0.41818 0.0
O951 O 0.35903 0.68017 0.51553 0.0
C952 C 0.35452 0.71732 0.3861 0.0
H953 H 0.34516 0.71173 0.73164 0.0
H954 H 0.33413 0.66676 0.21736 0.0
H955 H 0.30355 0.65786 0.47468 0.0
H956 H 0.29243 0.7059 0.49959 0.0
Co957 Co 0.06363 0.59121 0.15586 0.0
C958 C 0.0379 0.59645 0.26701 0.0
C959 C 0.05504 0.58062 0.30661 0.0
C960 C 0.04512 0.58363 0.36475 0.0
N961 N 0.05058 0.58851 0.24463 0.0
N962 N 0.03441 0.59366 0.34032 0.0
H963 H 0.03193 0.60482 0.23255 0.0
H964 H 0.06543 0.57386 0.3114 0.0
C965 C 0.09277 0.60596 0.2201 0.0
O966 O 0.10039 0.60421 0.15686 0.0
N967 N 0.07673 0.59422 0.068 0.0
C968 C 0.08333 0.58334 0.02446 0.0
C969 C 0.09198 0.59046 0.96943 0.0
C970 C 0.08085 0.6078 0.03636 0.0
N971 N 0.09048 0.60582 0.97728 0.0
C972 C 0.06133 0.55875 0.16275 0.0
C973 C 0.09122 0.55178 0.20347 0.0
C974 C 0.08048 0.53986 0.19617 0.0
C975 C 0.06546 0.54347 0.17491 0.0
C976 C 0.08663 0.56707 0.19016 0.0
N977 N 0.07173 0.57041 0.171 0.0
H978 H 0.04948 0.56124 0.14948 0.0
H979 H 0.09502 0.57606 0.19598 0.0
H980 H 0.08211 0.57107 0.03208 0.0
H981 H 0.07765 0.6189 0.05905 0.0
O982 O 0.0473 0.58574 0.08814 0.0
O983 O 0.05194 0.60951 0.12702 0.0
O984 O 0.07903 0.60091 0.22738 0.0
C985 C 0.04377 0.6002 0.08544 0.0
H986 H 0.04604 0.5792 0.42171 0.0
H987 H 0.09894 0.58477 0.92717 0.0
H988 H 0.10292 0.54935 0.22083 0.0
H989 H 0.0568 0.53456 0.17025 0.0
Co990 Co 0.16515 0.3127 0.92034 0.0
C991 C 0.16177 0.2848 0.01887 0.0
C992 C 0.15894 0.30574 0.08102 0.0
C993 C 0.15596 0.29354 0.12859 0.0
N994 N 0.16243 0.30032 0.01171 0.0
N995 N 0.15773 0.28042 0.08931 0.0
H996 H 0.16394 0.27676 0.97366 0.0
H997 H 0.15841 0.31777 0.09631 0.0
C998 C 0.15056 0.34387 0.95906 0.0
O999 O 0.15676 0.35046 0.89987 0.0
N1000 N 0.16687 0.32465 0.82805 0.0
C1001 C 0.17933 0.32851 0.7868 0.0
C1002 C 0.17446 0.3366 0.72377 0.0
C1003 C 0.1547 0.32959 0.78742 0.0
N1004 N 0.15895 0.33742 0.72503 0.0
C1005 C 0.19474 0.30965 0.98238 0.0
C1006 C 0.2052 0.33923 0.95791 0.0
C1007 C 0.21584 0.32749 0.9723 0.0
C1008 C 0.21037 0.31276 0.98863 0.0
C1009 C 0.18949 0.3356 0.95235 0.0
N1010 N 0.18453 0.32074 0.96027 0.0
H1011 H 0.19111 0.29784 0.98822 0.0
H1012 H 0.18185 0.34452 0.93443 0.0
H1013 H 0.19109 0.32574 0.80141 0.0
H1014 H 0.14291 0.32787 0.80505 0.0
O1015 O 0.17436 0.29585 0.86838 0.0
O1016 O 0.1493 0.3004 0.86978 0.0
O1017 O 0.15231 0.32943 0.97152 0.0
C1018 C 0.16078 0.29194 0.84589 0.0
H1019 H 0.15292 0.29424 0.18774 0.0
H1020 H 0.1818 0.34184 0.68167 0.0
H1021 H 0.20907 0.35077 0.94489 0.0
H1022 H 0.21827 0.30341 1.0005 0.0
Co1023 Co 0.4455 0.41016 0.66277 0.0
C1024 C 0.47522 0.41064 0.75104 0.0
C1025 C 0.45538 0.4153 0.81897 0.0
C1026 C 0.46782 0.41379 0.86587 0.0
N1027 N 0.45982 0.41325 0.74658 0.0
N1028 N 0.48025 0.41079 0.82338 0.0
H1029 H 0.48252 0.40793 0.70351 0.0
H1030 H 0.44373 0.4169 0.83792 0.0
C1031 C 0.41683 0.39712 0.7374 0.0
O1032 O 0.40798 0.40258 0.6837 0.0
N1033 N 0.43107 0.40646 0.58028 0.0
C1034 C 0.42322 0.41676 0.53792 0.0
C1035 C 0.41354 0.40902 0.49003 0.0
C1036 C 0.42618 0.39253 0.55582 0.0
N1037 N 0.41532 0.39381 0.50156 0.0
C1038 C 0.44181 0.44218 0.63316 0.0
C1039 C 0.42275 0.44994 0.75111 0.0
C1040 C 0.42781 0.46172 0.70217 0.0
C1041 C 0.43702 0.45732 0.64104 0.0
C1042 C 0.42713 0.43456 0.73849 0.0
N1043 N 0.43683 0.43079 0.68054 0.0
H1044 H 0.44904 0.43968 0.58552 0.0
H1045 H 0.42297 0.42594 0.77701 0.0
H1046 H 0.42394 0.42908 0.54153 0.0
H1047 H 0.42992 0.38171 0.58002 0.0
O1048 O 0.46073 0.41616 0.59025 0.0
O1049 O 0.4575 0.39226 0.62947 0.0
O1050 O 0.43133 0.39955 0.73709 0.0
C1051 C 0.46469 0.40188 0.5852 0.0
H1052 H 0.46771 0.41452 0.92687 0.0
H1053 H 0.40565 0.41421 0.45014 0.0
H1054 H 0.41572 0.45247 0.79988 0.0
H1055 H 0.44065 0.46541 0.59825 0.0
H1056 H 0.1067 0.12885 0.78231 0.0
H1057 H 0.08478 0.11422 0.57594 0.0
H1058 H 0.10211 0.1303 0.50247 0.0
H1059 H 0.12318 0.14914 0.496 0.0
H1060 H 0.14533 0.16352 0.70223 0.0
H1061 H 0.12839 0.14699 0.77547 0.0
C1062 C 0.10573 0.12917 0.7213 0.0
C1063 C 0.09439 0.12034 0.68507 0.0
C1064 C 0.11583 0.13845 0.67883 0.0
C1065 C 0.09339 0.12085 0.60572 0.0
C1066 C 0.1033 0.13009 0.56335 0.0
C1067 C 0.12436 0.14859 0.55688 0.0
C1068 C 0.13551 0.15765 0.5932 0.0
C1069 C 0.11453 0.13901 0.59921 0.0
C1070 C 0.13686 0.15673 0.67235 0.0
C1071 C 0.12714 0.14727 0.71462 0.0
H1072 H 0.1151 0.87572 0.7061 0.0
H1073 H 0.08276 0.89325 0.86924 0.0
H1074 H 0.09547 0.87872 0.96927 0.0
H1075 H 0.11609 0.86139 0.01133 0.0
H1076 H 0.14692 0.84153 0.84781 0.0
H1077 H 0.13451 0.85644 0.7469 0.0
C1078 C 0.11087 0.87631 0.76361 0.0
C1079 C 0.09812 0.88569 0.78045 0.0
C1080 C 0.11796 0.86748 0.82067 0.0
C1081 C 0.09255 0.88616 0.85482 0.0
C1082 C 0.09984 0.87786 0.91214 0.0
C1083 C 0.12006 0.86033 0.9535 0.0
C1084 C 0.13249 0.85055 0.93691 0.0
C1085 C 0.11259 0.86856 0.89583 0.0
C1086 C 0.13736 0.84902 0.86173 0.0
C1087 C 0.1303 0.85757 0.8042 0.0
H1088 H 0.3895 0.90575 0.20085 0.0
H1089 H 0.41277 0.86649 0.29639 0.0
H1090 H 0.39932 0.84939 0.20874 0.0
H1091 H 0.38124 0.84569 0.10273 0.0
H1092 H 0.35968 0.88544 1.00147 0.0
H1093 H 0.37218 0.90218 0.09284 0.0
C1094 C 0.39148 0.89343 0.20287 0.0
C1095 C 0.40194 0.88734 0.25537 0.0
C1096 C 0.38412 0.88375 0.15069 0.0
C1097 C 0.4047 0.87141 0.25646 0.0
C1098 C 0.39704 0.86164 0.20633 0.0
C1099 C 0.37932 0.85802 0.10069 0.0
C1100 C 0.36956 0.86427 0.04521 0.0
C1101 C 0.38679 0.86769 0.15276 0.0
C1102 C 0.36724 0.88029 0.0431 0.0
C1103 C 0.37432 0.88991 0.09562 0.0
H1104 H 0.40749 0.11266 0.40619 0.0
H1105 H 0.39766 0.12483 0.17484 0.0
H1106 H 0.3781 0.14304 0.21682 0.0
H1107 H 0.36446 0.15636 0.3192 0.0
H1108 H 0.37476 0.14476 0.5507 0.0
H1109 H 0.39331 0.12549 0.50862 0.0
C1110 C 0.401 0.11921 0.36489 0.0
C1111 C 0.40412 0.11737 0.28744 0.0
C1112 C 0.38983 0.12983 0.38944 0.0
C1113 C 0.3956 0.12603 0.23484 0.0
C1114 C 0.38437 0.13646 0.25878 0.0
C1115 C 0.37065 0.14953 0.3605 0.0
C1116 C 0.3682 0.15206 0.43803 0.0
C1117 C 0.38149 0.13858 0.33594 0.0
C1118 C 0.37643 0.14313 0.49065 0.0
C1119 C 0.38707 0.13209 0.46664 0.0
H1120 H 0.85369 0.8561 0.32658 0.0
H1121 H 0.88883 0.84924 0.49525 0.0
H1122 H 0.90514 0.86835 0.43276 0.0
H1123 H 0.90983 0.88615 0.32666 0.0
H1124 H 0.87414 0.89364 0.16132 0.0
H1125 H 0.85764 0.87511 0.22599 0.0
C1126 C 0.86489 0.85884 0.34993 0.0
C1127 C 0.87009 0.85116 0.4151 0.0
C1128 C 0.87413 0.86989 0.31406 0.0
C1129 C 0.88455 0.85498 0.44518 0.0
C1130 C 0.8939 0.86586 0.40927 0.0
C1131 C 0.89842 0.88377 0.305 0.0
C1132 C 0.89325 0.89122 0.23904 0.0
C1133 C 0.88889 0.87324 0.34311 0.0
C1134 C 0.87838 0.88812 0.21209 0.0
C1135 C 0.86894 0.87748 0.24892 0.0
H1136 H 0.85817 0.15403 0.13675 0.0
H1137 H 0.89338 0.15312 0.96589 0.0
H1138 H 0.91031 0.13841 0.04991 0.0
H1139 H 0.91464 0.12492 0.17007 0.0
H1140 H 0.87854 0.12354 0.33663 0.0
H1141 H 0.86234 0.13992 0.25664 0.0
C1142 C 0.86962 0.15069 0.11865 0.0
C1143 C 0.87471 0.15472 0.04608 0.0
C1144 C 0.87903 0.14175 0.16628 0.0
C1145 C 0.88938 0.15016 0.02198 0.0
C1146 C 0.899 0.14175 0.06984 0.0
C1147 C 0.90329 0.12834 0.18906 0.0
C1148 C 0.89781 0.12317 0.25928 0.0
C1149 C 0.89391 0.13736 0.14186 0.0
C1150 C 0.88296 0.12739 0.28265 0.0
C1151 C 0.87373 0.13677 0.23704 0.0
H1152 H 0.6155 0.12869 0.70142 0.0
H1153 H 0.58778 0.10264 0.85753 0.0
H1154 H 0.60003 0.11561 0.96392 0.0
H1155 H 0.61907 0.13404 0.01279 0.0
H1156 H 0.64539 0.16152 0.85666 0.0
H1157 H 0.63327 0.14842 0.75019 0.0
C1158 C 0.61216 0.1259 0.7588 0.0
C1159 C 0.60082 0.11467 0.77171 0.0
C1160 C 0.61901 0.13367 0.81966 0.0
C1161 C 0.59641 0.11129 0.84616 0.0
C1162 C 0.60346 0.11866 0.90703 0.0
C1163 C 0.62212 0.13715 0.95539 0.0
C1164 C 0.63318 0.14864 0.94252 0.0
C1165 C 0.61484 0.12981 0.89448 0.0
C1166 C 0.63687 0.15275 0.86799 0.0
C1167 C 0.62999 0.14521 0.80709 0.0
H1168 H 0.64055 0.84194 0.68786 0.0
H1169 H 0.63211 0.85767 0.46035 0.0
H1170 H 0.61246 0.87534 0.50607 0.0
H1171 H 0.59694 0.88574 0.60987 0.0
H1172 H 0.60517 0.86991 0.83742 0.0
H1173 H 0.62554 0.85296 0.7924 0.0
C1174 C 0.63451 0.84932 0.64833 0.0
C1175 C 0.63781 0.84839 0.57071 0.0
C1176 C 0.62306 0.85941 0.67492 0.0
C1177 C 0.6298 0.85804 0.52035 0.0
C1178 C 0.61852 0.86817 0.54643 0.0
C1179 C 0.60319 0.8786 0.64971 0.0
C1180 C 0.59942 0.87908 0.72689 0.0
C1181 C 0.61492 0.86882 0.62346 0.0
C1182 C 0.60773 0.86977 0.77763 0.0
C1183 C 0.61943 0.86005 0.75196 0.0
H1184 H 0.63436 0.66182 0.18427 0.0
H1185 H 0.62219 0.65093 0.95424 0.0
H1186 H 0.6033 0.63228 0.9989 0.0
H1187 H 0.58978 0.61946 0.10308 0.0
H1188 H 0.60145 0.6308 0.3332 0.0
H1189 H 0.62098 0.64883 0.28857 0.0
C1190 C 0.62764 0.65531 0.14385 0.0
C1191 C 0.6297 0.65781 0.066 0.0
C1192 C 0.61665 0.6447 0.16992 0.0
C1193 C 0.62082 0.64931 0.01449 0.0
C1194 C 0.61 0.63862 0.03997 0.0
C1195 C 0.59664 0.62581 0.14356 0.0
C1196 C 0.59412 0.62377 0.22139 0.0
C1197 C 0.60775 0.63628 0.11753 0.0
C1198 C 0.60308 0.63217 0.27295 0.0
C1199 C 0.61428 0.64249 0.24749 0.0
H1200 H 0.59637 0.38264 0.34251 0.0
H1201 H 0.63262 0.39405 0.18588 0.0
H1202 H 0.64943 0.37499 0.24472 0.0
H1203 H 0.65367 0.35456 0.33851 0.0
H1204 H 0.61797 0.34393 0.4994 0.0
H1205 H 0.60121 0.36324 0.44164 0.0
C1206 C 0.60797 0.38098 0.32152 0.0
C1207 C 0.61321 0.38973 0.25978 0.0
C1208 C 0.6177 0.37013 0.35642 0.0
C1209 C 0.62832 0.38754 0.23361 0.0
C1210 C 0.63794 0.37659 0.26704 0.0
C1211 C 0.64224 0.35649 0.36107 0.0
C1212 C 0.63705 0.34771 0.42278 0.0
C1213 C 0.63272 0.36775 0.32817 0.0
C1214 C 0.62227 0.35051 0.45194 0.0
C1215 C 0.61264 0.36153 0.41877 0.0
H1216 H 0.88326 0.40261 0.71999 0.0
H1217 H 0.92241 0.37211 0.71276 0.0
H1218 H 0.90818 0.35435 0.63209 0.0
H1219 H 0.88462 0.34746 0.5626 0.0
H1220 H 0.84597 0.37864 0.56458 0.0
H1221 H 0.85996 0.39607 0.64775 0.0
C1222 C 0.88865 0.39205 0.70102 0.0
C1223 C 0.90386 0.38869 0.72277 0.0
C1224 C 0.8805 0.38199 0.65331 0.0
C1225 C 0.91073 0.37502 0.69684 0.0
C1226 C 0.90259 0.36483 0.6507 0.0
C1227 C 0.87926 0.35806 0.58126 0.0
C1228 C 0.86424 0.3617 0.55732 0.0
C1229 C 0.88747 0.36819 0.62839 0.0
C1230 C 0.85753 0.37556 0.58172 0.0
C1231 C 0.86551 0.38554 0.62955 0.0
H1232 H 0.88827 0.60452 0.84265 0.0
H1233 H 0.91281 0.64119 0.73096 0.0
H1234 H 0.89727 0.66025 0.7987 0.0
H1235 H 0.87742 0.66642 0.89552 0.0
H1236 H 0.85396 0.62903 0.00755 0.0
H1237 H 0.86832 0.61044 0.93359 0.0
C1238 C 0.89025 0.61667 0.83258 0.0
C1239 C 0.9018 0.62137 0.78209 0.0
C1240 C 0.88144 0.6275 0.87214 0.0
C1241 C 0.90405 0.63721 0.7698 0.0
C1242 C 0.89516 0.64813 0.80859 0.0
C1243 C 0.87537 0.65421 0.903 0.0
C1244 C 0.86468 0.64916 0.95746 0.0
C1245 C 0.88392 0.64341 0.86072 0.0
C1246 C 0.86221 0.63328 0.96672 0.0
C1247 C 0.87041 0.62259 0.92434 0.0
H1248 H 0.39385 0.37607 0.7318 0.0
H1249 H 0.42459 0.39897 0.88579 0.0
H1250 H 0.41324 0.38505 0.99208 0.0
H1251 H 0.39448 0.36628 0.04151 0.0
H1252 H 0.36545 0.3416 0.88613 0.0
H1253 H 0.3762 0.35614 0.78032 0.0
C1254 C 0.39799 0.37802 0.78875 0.0
C1255 C 0.40992 0.38862 0.80119 0.0
C1256 C 0.39175 0.36958 0.84929 0.0
C1257 C 0.41541 0.39086 0.87491 0.0
C1258 C 0.40892 0.38292 0.9357 0.0
C1259 C 0.39056 0.36411 0.9844 0.0
C1260 C 0.37919 0.35294 0.97154 0.0
C1261 C 0.39708 0.37224 0.92361 0.0
C1262 C 0.37429 0.35007 0.89729 0.0
C1263 C 0.38038 0.35844 0.83683 0.0
H1264 H 0.40557 0.63935 0.76196 0.0
H1265 H 0.37976 0.59819 0.71304 0.0
H1266 H 0.36486 0.61201 0.61788 0.0
H1267 H 0.35941 0.63567 0.54659 0.0
H1268 H 0.38378 0.67738 0.60108 0.0
H1269 H 0.39895 0.66354 0.69585 0.0
C1270 C 0.39664 0.63345 0.7306 0.0
C1271 C 0.39382 0.61775 0.74442 0.0
C1272 C 0.38788 0.64156 0.67674 0.0
C1273 C 0.38212 0.61028 0.70386 0.0
C1274 C 0.37362 0.61816 0.64913 0.0
C1275 C 0.36807 0.64171 0.57914 0.0
C1276 C 0.37059 0.65748 0.56627 0.0
C1277 C 0.37646 0.63377 0.63475 0.0
C1278 C 0.38165 0.66523 0.60984 0.0
C1279 C 0.39033 0.65732 0.66396 0.0
H1280 H 0.11384 0.62874 0.21274 0.0
H1281 H 0.08823 0.60104 0.37081 0.0
H1282 H 0.1008 0.61416 0.47649 0.0
H1283 H 0.11915 0.63366 0.52372 0.0
H1284 H 0.14296 0.6626 0.36422 0.0
H1285 H 0.13103 0.64894 0.25954 0.0
C1286 C 0.11108 0.62553 0.27037 0.0
C1287 C 0.10027 0.61385 0.2841 0.0
C1288 C 0.11799 0.63341 0.33059 0.0
C1289 C 0.09655 0.61 0.35895 0.0
C1290 C 0.10374 0.61749 0.41931 0.0
C1291 C 0.12171 0.63694 0.46598 0.0
C1292 C 0.13197 0.64912 0.45179 0.0
C1293 C 0.11449 0.62922 0.40581 0.0
C1294 C 0.13504 0.65338 0.37679 0.0
C1295 C 0.12827 0.64551 0.31679 0.0
H1296 H 0.12375 0.39566 0.17066 0.0
H1297 H 0.09638 0.3578 0.25237 0.0
H1298 H 0.10982 0.3402 0.16682 0.0
H1299 H 0.12898 0.33578 0.0652 0.0
H1300 H 0.1547 0.37446 0.97892 0.0
H1301 H 0.14232 0.39143 0.06942 0.0
C1302 C 0.12084 0.38352 0.17038 0.0
C1303 C 0.10919 0.37802 0.21822 0.0
C1304 C 0.12826 0.3736 0.11959 0.0
C1305 C 0.10534 0.36231 0.21613 0.0
C1306 C 0.11301 0.35225 0.16715 0.0
C1307 C 0.13186 0.34791 0.06646 0.0
C1308 C 0.14272 0.35382 0.01507 0.0
C1309 C 0.12442 0.35779 0.11801 0.0
C1310 C 0.14628 0.3696 0.01718 0.0
C1311 C 0.13925 0.37934 0.06921 0.0
H1312 H 0.22811 0.18608 0.40175 0.0
H1313 H 0.2207 0.1574 0.59689 0.0
H1314 H 0.24858 0.15356 0.60962 0.0
H1315 H 0.27528 0.16047 0.57141 0.0
H1316 H 0.28204 0.18954 0.37693 0.0
H1317 H 0.25429 0.19098 0.35717 0.0
C1318 C 0.2326 0.17896 0.44703 0.0
C1319 C 0.22238 0.17225 0.49911 0.0
C1320 C 0.24856 0.17685 0.4539 0.0
C1321 C 0.22834 0.16275 0.55633 0.0
C1322 C 0.24428 0.16059 0.56367 0.0
C1323 C 0.27064 0.16677 0.52368 0.0
C1324 C 0.28068 0.17489 0.47559 0.0
C1325 C 0.25455 0.16782 0.51356 0.0
C1326 C 0.27453 0.1832 0.41458 0.0
C1327 C 0.25866 0.18411 0.40354 0.0
H1328 H 0.08996 0.98431 0.63302 0.0
H1329 H 0.07626 0.97094 0.85763 0.0
H1330 H 0.07517 0.99796 0.89547 0.0
H1331 H 0.07553 0.02545 0.86094 0.0
H1332 H 0.08974 0.03897 0.63764 0.0
H1333 H 0.09321 0.01188 0.60274 0.0
C1334 C 0.08697 0.98733 0.69055 0.0
C1335 C 0.08311 0.97564 0.74235 0.0
C1336 C 0.08626 0.00292 0.71175 0.0
C1337 C 0.0794 0.9797 0.81689 0.0
C1338 C 0.07863 0.99516 0.83834 0.0
C1339 C 0.07954 0.02241 0.80493 0.0
C1340 C 0.08221 0.03409 0.7515 0.0
C1341 C 0.08162 0.00686 0.7857 0.0
C1342 C 0.08759 0.03012 0.67945 0.0
C1343 C 0.08952 0.01466 0.65954 0.0
H1344 H 0.22532 0.84977 0.96839 0.0
H1345 H 0.22326 0.82445 0.17745 0.0
H1346 H 0.25089 0.82781 0.19555 0.0
H1347 H 0.27599 0.83469 0.14346 0.0
H1348 H 0.27871 0.85868 0.93089 0.0
H1349 H 0.25059 0.85955 0.92355 0.0
C1350 C 0.23093 0.84535 0.01864 0.0
C1351 C 0.22237 0.83678 0.07129 0.0
C1352 C 0.24696 0.84701 0.02778 0.0
C1353 C 0.2297 0.831 0.13604 0.0
C1354 C 0.24548 0.83288 0.14632 0.0
C1355 C 0.27041 0.84037 0.09622 0.0
C1356 C 0.27942 0.84645 0.03747 0.0
C1357 C 0.2543 0.84037 0.09126 0.0
C1358 C 0.27205 0.85397 0.97709 0.0
C1359 C 0.25596 0.85431 0.97245 0.0
H1360 H 0.4314 0.02087 0.12096 0.0
H1361 H 0.40904 0.03261 0.3302 0.0
H1362 H 0.40721 0.00527 0.36318 0.0
H1363 H 0.41471 0.97833 0.33873 0.0
H1364 H 0.43719 0.96665 0.12959 0.0
H1365 H 0.43605 0.99362 0.08965 0.0
C1366 C 0.42593 0.0174 0.1733 0.0
C1367 C 0.42051 0.02874 0.22359 0.0
C1368 C 0.42504 1.00169 0.19195 0.0
C1369 C 0.41326 0.02411 0.29064 0.0
C1370 C 0.41232 0.00849 0.30967 0.0
C1371 C 0.41915 0.98168 0.2839 0.0
C1372 C 0.42617 0.97053 0.23744 0.0
C1373 C 0.41858 0.99722 0.26175 0.0
C1374 C 0.43169 0.97498 0.1662 0.0
C1375 C 0.43115 0.99042 0.14367 0.0
H1376 H 0.73179 0.8454 0.44459 0.0
H1377 H 0.72538 0.81267 0.62483 0.0
H1378 H 0.75314 0.81153 0.64548 0.0
H1379 H 0.77924 0.81759 0.60345 0.0
H1380 H 0.78628 0.84976 0.42152 0.0
H1381 H 0.75836 0.85354 0.4107 0.0
C1382 C 0.73651 0.83837 0.48965 0.0
C1383 C 0.72659 0.82913 0.53329 0.0
C1384 C 0.75259 0.83749 0.5 0.0
C1385 C 0.73281 0.81988 0.59075 0.0
C1386 C 0.74868 0.81915 0.60222 0.0
C1387 C 0.77466 0.8255 0.56168 0.0
C1388 C 0.78477 0.83319 0.51248 0.0
C1389 C 0.75868 0.82751 0.55564 0.0
C1390 C 0.77871 0.84366 0.4598 0.0
C1391 C 0.76275 0.84578 0.45349 0.0
H1392 H 0.91572 0.02947 0.35719 0.0
H1393 H 0.91994 0.04205 0.12239 0.0
H1394 H 0.9164 0.01516 0.08607 0.0
H1395 H 0.91544 0.98783 0.12182 0.0
H1396 H 0.91412 0.97523 0.3576 0.0
H1397 H 0.91293 1.00234 0.39248 0.0
C1398 C 0.91583 0.02636 0.29795 0.0
C1399 C 0.9184 0.03779 0.24269 0.0
C1400 C 0.91437 0.01082 0.27767 0.0
C1401 C 0.91799 0.03357 0.16618 0.0
C1402 C 0.9161 0.01815 0.14541 0.0
C1403 C 0.91486 0.99098 0.18094 0.0
C1404 C 0.91515 0.9794 0.23696 0.0
C1405 C 0.91483 0.00663 0.20081 0.0
C1406 C 0.91387 0.98377 0.31308 0.0
C1407 C 0.91335 0.99932 0.33318 0.0
H1408 H 0.72752 0.17775 0.90748 0.0
H1409 H 0.72417 0.1495 0.10659 0.0
H1410 H 0.75232 0.14746 0.11219 0.0
H1411 H 0.77799 0.15692 0.06973 0.0
H1412 H 0.78056 0.18582 0.87222 0.0
H1413 H 0.75275 0.18432 0.85616 0.0
C1414 C 0.73298 0.17088 0.95113 0.0
C1415 C 0.72386 0.16388 0.0068 0.0
C1416 C 0.74908 0.17005 0.95473 0.0
C1417 C 0.73099 0.15492 0.06286 0.0
C1418 C 0.74709 0.15389 0.06646 0.0
C1419 C 0.77243 0.16256 0.02239 0.0
C1420 C 0.78122 0.17161 0.97265 0.0
C1421 C 0.75628 0.16186 0.01415 0.0
C1422 C 0.77395 0.17892 0.91152 0.0
C1423 C 0.75806 0.17809 0.90237 0.0
H1424 H 0.57455 0.01582 0.62647 0.0
H1425 H 0.59941 0.02771 0.82846 0.0
H1426 H 0.60379 1.00034 0.85532 0.0
H1427 H 0.59739 0.97301 0.82947 0.0
H1428 H 0.57155 0.96165 0.62982 0.0
H1429 H 0.57087 0.98876 0.59294 0.0
C1430 C 0.58107 0.0124 0.67594 0.0
C1431 C 0.58644 0.0237 0.72612 0.0
C1432 C 0.58335 0.99672 0.69124 0.0
C1433 C 0.59513 0.01918 0.78922 0.0
C1434 C 0.59756 0.00355 0.80469 0.0
C1435 C 0.59209 0.9765 0.77673 0.0
C1436 C 0.58464 0.96545 0.73185 0.0
C1437 C 0.59134 0.9922 0.75722 0.0
C1438 C 0.57748 0.97002 0.6645 0.0
C1439 C 0.57697 0.98551 0.64388 0.0
H1440 H 0.72175 0.683 0.1122 0.0
H1441 H 0.71836 0.65181 0.92424 0.0
H1442 H 0.74641 0.64892 0.92244 0.0
H1443 H 0.77207 0.65852 0.96241 0.0
H1444 H 0.77484 0.69068 0.14695 0.0
H1445 H 0.74698 0.68993 0.16223 0.0
C1446 C 0.72716 0.67532 0.07189 0.0
C1447 C 0.71805 0.66776 0.01807 0.0
C1448 C 0.74324 0.6741 0.06983 0.0
C1449 C 0.72514 0.65771 0.96655 0.0
C1450 C 0.74119 0.65619 0.96497 0.0
C1451 C 0.76654 0.66506 0.00688 0.0
C1452 C 0.77541 0.67483 0.05272 0.0
C1453 C 0.7504 0.6648 0.01449 0.0
C1454 C 0.76818 0.68328 0.11026 0.0
C1455 C 0.75226 0.68285 0.11907 0.0
H1456 H 0.59562 0.48585 0.16195 0.0
H1457 H 0.57703 0.47271 0.37818 0.0
H1458 H 0.5741 0.49981 0.41247 0.0
H1459 H 0.5742 0.52718 0.37518 0.0
H1460 H 0.59317 0.54044 0.16016 0.0
H1461 H 0.59861 0.51339 0.13084 0.0
C1462 C 0.59118 0.48895 0.21707 0.0
C1463 C 0.58646 0.4773 0.26733 0.0
C1464 C 0.58941 0.50456 0.23605 0.0
C1465 C 0.58085 0.48145 0.3388 0.0
C1466 C 0.57903 0.49695 0.35809 0.0
C1467 C 0.57968 0.5241 0.32231 0.0
C1468 C 0.58312 0.53567 0.26935 0.0
C1469 C 0.58285 0.50858 0.3063 0.0
C1470 C 0.59041 0.53167 0.2015 0.0
C1471 C 0.59346 0.51623 0.18476 0.0
H1472 H 0.72625 0.34182 0.58311 0.0
H1473 H 0.72163 0.31164 0.39121 0.0
H1474 H 0.74931 0.31214 0.37164 0.0
H1475 H 0.77467 0.31928 0.4138 0.0
H1476 H 0.7804 0.35093 0.59928 0.0
H1477 H 0.75245 0.35124 0.61832 0.0
C1478 C 0.73132 0.33563 0.5362 0.0
C1479 C 0.72189 0.32656 0.48911 0.0
C1480 C 0.74742 0.33593 0.52513 0.0
C1481 C 0.72863 0.31852 0.42882 0.0
C1482 C 0.74447 0.31877 0.41765 0.0
C1483 C 0.76996 0.3267 0.45713 0.0
C1484 C 0.77983 0.33526 0.50419 0.0
C1485 C 0.75397 0.32718 0.46624 0.0
C1486 C 0.77322 0.34412 0.56226 0.0
C1487 C 0.75719 0.34441 0.57279 0.0
H1488 H 0.9129 0.53237 0.79724 0.0
H1489 H 0.92378 0.53027 0.56061 0.0
H1490 H 0.92344 0.50205 0.56519 0.0
H1491 H 0.92351 0.4781 0.64144 0.0
H1492 H 0.91262 0.48062 0.87851 0.0
H1493 H 0.90919 0.5084 0.86885 0.0
C1494 C 0.91477 0.52567 0.74644 0.0
C1495 C 0.9183 0.53324 0.67871 0.0
C1496 C 0.91469 0.50951 0.74984 0.0
C1497 C 0.92089 0.52457 0.61315 0.0
C1498 C 0.9208 0.50847 0.61595 0.0
C1499 C 0.91996 0.4847 0.69033 0.0
C1500 C 0.91855 0.47735 0.76082 0.0
C1501 C 0.91819 0.50079 0.68459 0.0
C1502 C 0.914 0.48606 0.82386 0.0
C1503 C 0.91206 0.50195 0.81847 0.0
H1504 H 0.23614 0.34626 0.04672 0.0
H1505 H 0.23269 0.31308 0.86702 0.0
H1506 H 0.26059 0.31294 0.85246 0.0
H1507 H 0.28596 0.31985 0.90029 0.0
H1508 H 0.29008 0.35202 0.08395 0.0
H1509 H 0.26208 0.35532 0.08633 0.0
C1510 C 0.24157 0.33926 0.00367 0.0
C1511 C 0.23249 0.32955 0.95858 0.0
C1512 C 0.25773 0.33901 0.99651 0.0
C1513 C 0.23954 0.32049 0.90285 0.0
C1514 C 0.25547 0.3204 0.89449 0.0
C1515 C 0.28073 0.32775 0.94012 0.0
C1516 C 0.29004 0.33554 0.99231 0.0
C1517 C 0.26468 0.32924 0.9425 0.0
C1518 C 0.28315 0.34593 0.04288 0.0
C1519 C 0.26713 0.3477 0.04479 0.0
H1520 H 0.44393 0.48719 0.6534 0.0
H1521 H 0.40319 0.47467 0.77987 0.0
H1522 H 0.3982 0.50176 0.80443 0.0
H1523 H 0.40618 0.52912 0.79496 0.0
H1524 H 0.44499 0.54114 0.65577 0.0
H1525 H 0.44931 0.51397 0.62675 0.0
C1526 C 0.43356 0.4901 0.68394 0.0
C1527 C 0.42403 0.47845 0.7145 0.0
C1528 C 0.43025 0.50573 0.69459 0.0
C1529 C 0.41108 0.48305 0.7568 0.0
C1530 C 0.40805 0.49865 0.77018 0.0
C1531 C 0.41526 0.52574 0.75643 0.0
C1532 C 0.4252 0.53703 0.72682 0.0
C1533 C 0.41764 0.51008 0.73993 0.0
C1534 C 0.43708 0.53263 0.67794 0.0
C1535 C 0.43965 0.5171 0.66228 0.0
H1536 H 0.27621 0.66227 0.56334 0.0
H1537 H 0.27835 0.69409 0.37675 0.0
H1538 H 0.25052 0.69271 0.36134 0.0
H1539 H 0.22542 0.68482 0.40921 0.0
H1540 H 0.22253 0.65393 0.59912 0.0
H1541 H 0.25066 0.65223 0.60384 0.0
C1542 C 0.27054 0.66864 0.51862 0.0
C1543 C 0.27924 0.67842 0.47183 0.0
C1544 C 0.25439 0.66801 0.51088 0.0
C1545 C 0.27182 0.68665 0.41401 0.0
C1546 C 0.25592 0.68587 0.40514 0.0
C1547 C 0.23095 0.67756 0.45108 0.0
C1548 C 0.22191 0.66966 0.50421 0.0
C1549 C 0.24706 0.67697 0.4546 0.0
C1550 C 0.22922 0.6601 0.55734 0.0
C1551 C 0.24532 0.65924 0.56051 0.0
H1552 H 0.08014 0.47358 0.33284 0.0
H1553 H 0.0973 0.46185 0.11142 0.0
H1554 H 0.09752 0.48913 0.07718 0.0
H1555 H 0.09173 0.51648 0.10917 0.0
H1556 H 0.07594 0.52748 0.33311 0.0
H1557 H 0.07695 0.50031 0.36846 0.0
C1558 C 0.08441 0.47684 0.27765 0.0
C1559 C 0.08879 0.46543 0.22519 0.0
C1560 C 0.08488 0.49252 0.259 0.0
C1561 C 0.09366 0.47019 0.15301 0.0
C1562 C 0.09391 0.48586 0.13349 0.0
C1563 C 0.0889 0.51287 0.1661 0.0
C1564 C 0.08397 0.52388 0.21905 0.0
C1565 C 0.08942 0.49713 0.18586 0.0
C1566 C 0.07999 0.51917 0.29215 0.0
C1567 C 0.08045 0.50364 0.31204 0.0
H1568 H 0.16512 0.2132 0.2106 0.0
H1569 H 0.12444 0.22566 0.335 0.0
H1570 H 0.12335 0.25041 0.26787 0.0
H1571 H 0.13596 0.26961 0.18409 0.0
H1572 H 0.17625 0.25646 0.05808 0.0
H1573 H 0.17555 0.23082 0.11506 0.0
C1574 C 0.15576 0.22118 0.22135 0.0
C1575 C 0.14483 0.21767 0.27723 0.0
C1576 C 0.15535 0.23534 0.18317 0.0
C1577 C 0.13281 0.22806 0.29125 0.0
C1578 C 0.13234 0.24227 0.25363 0.0
C1579 C 0.14448 0.26105 0.16889 0.0
C1580 C 0.15629 0.26494 0.11781 0.0
C1581 C 0.14385 0.24624 0.20128 0.0
C1582 C 0.1671 0.2537 0.09725 0.0
C1583 C 0.16671 0.23908 0.12997 0.0
H1584 H 0.97654 0.88968 0.43445 0.0
H1585 H 0.99086 0.92711 0.2911 0.0
H1586 H 0.01585 0.92783 0.35479 0.0
H1587 H 0.03271 0.91923 0.45786 0.0
H1588 H 0.01896 0.88132 0.59959 0.0
H1589 H 0.99465 0.87923 0.52968 0.0
C1590 C 0.98519 0.89793 0.41706 0.0
C1591 C 0.98181 0.90848 0.35878 0.0
C1592 C 0.99956 0.89818 0.45373 0.0
C1593 C 0.99321 0.91889 0.33562 0.0
C1594 C 0.00745 0.91934 0.3723 0.0
C1595 C 0.02445 0.91038 0.47283 0.0
C1596 C 0.02752 0.90051 0.53411 0.0
C1597 C 0.01062 0.90925 0.43233 0.0
C1598 C 0.01686 0.88899 0.55245 0.0
C1599 C 0.00293 0.88788 0.51282 0.0
H1600 H 0.36611 0.7923 0.772 0.0
H1601 H 0.33109 0.77731 0.92848 0.0
H1602 H 0.32912 0.75284 0.86457 0.0
H1603 H 0.33585 0.73618 0.76118 0.0
H1604 H 0.36955 0.75028 0.5971 0.0
H1605 H 0.37319 0.7747 0.665 0.0
C1606 C 0.35831 0.78351 0.79252 0.0
C1607 C 0.349 0.78652 0.85592 0.0
C1608 C 0.35671 0.76944 0.75314 0.0
C1609 C 0.33859 0.77523 0.88075 0.0
C1610 C 0.33733 0.76123 0.84384 0.0
C1611 C 0.34417 0.74447 0.74067 0.0
C1612 C 0.35252 0.74134 0.67476 0.0
C1613 C 0.34613 0.75831 0.77956 0.0
C1614 C 0.36292 0.75245 0.64769 0.0
C1615 C 0.36507 0.76635 0.68682 0.0
H1616 H 0.46321 0.08896 0.92467 0.0
H1617 H 0.4789 0.12468 0.07414 0.0
H1618 H 0.5033 0.12622 0.00472 0.0
H1619 H 0.52127 0.11485 0.91141 0.0
H1620 H 0.50502 0.08 0.75874 0.0
H1621 H 0.47957 0.08071 0.8185 0.0
C1622 C 0.47184 0.09736 0.94057 0.0
C1623 C 0.4694 0.10669 0.00418 0.0
C1624 C 0.48573 0.09817 0.90032 0.0
C1625 C 0.48055 0.11754 0.02474 0.0
C1626 C 0.49453 0.11828 0.98556 0.0
C1627 C 0.51201 0.10766 0.89063 0.0
C1628 C 0.51493 0.09726 0.83156 0.0
C1629 C 0.49743 0.10829 0.92484 0.0
C1630 C 0.50292 0.08808 0.80407 0.0
C1631 C 0.48845 0.08844 0.83851 0.0
H1632 H 0.13377 0.72696 0.26756 0.0
H1633 H 0.16149 0.74634 0.44501 0.0
H1634 H 0.16209 0.77107 0.37864 0.0
H1635 H 0.15712 0.78616 0.26357 0.0
H1636 H 0.1286 0.7674 0.0876 0.0
H1637 H 0.12572 0.74341 0.15994 0.0
C1638 C 0.13975 0.7367 0.29192 0.0
C1639 C 0.14775 0.73483 0.36058 0.0
C1640 C 0.13995 0.75088 0.2535 0.0
C1641 C 0.15525 0.74754 0.39244 0.0
C1642 C 0.15567 0.76162 0.35423 0.0
C1643 C 0.15004 0.77689 0.24184 0.0
C1644 C 0.14316 0.77839 0.17033 0.0
C1645 C 0.14841 0.76328 0.28386 0.0
C1646 C 0.13391 0.76646 0.14271 0.0
C1647 C 0.13239 0.75274 0.18382 0.0
H1648 H 0.47848 0.91964 0.53106 0.0
H1649 H 0.46579 0.87165 0.52975 0.0
H1650 H 0.4871 0.86584 0.61587 0.0
H1651 H 0.50976 0.87438 0.68777 0.0
H1652 H 0.52279 0.92231 0.68385 0.0
H1653 H 0.50064 0.9282 0.60455 0.0
C1654 C 0.48029 0.90789 0.54978 0.0
C1655 C 0.47057 0.89607 0.52377 0.0
C1656 C 0.49259 0.90465 0.5985 0.0
C1657 C 0.4731 0.88095 0.54883 0.0
C1658 C 0.48529 0.87763 0.59797 0.0
C1659 C 0.50785 0.88611 0.66935 0.0
C1660 C 0.51808 0.89787 0.69175 0.0
C1661 C 0.49521 0.88938 0.62248 0.0
C1662 C 0.51511 0.91305 0.66843 0.0
C1663 C 0.50249 0.91641 0.62249 0.0
H1664 H 0.33593 0.22049 0.76176 0.0
H1665 H 0.38349 0.21733 0.69436 0.0
H1666 H 0.3896 0.23995 0.77133 0.0
H1667 H 0.3809 0.26173 0.84994 0.0
H1668 H 0.33343 0.26447 0.91866 0.0
H1669 H 0.32778 0.24072 0.84993 0.0
C1670 C 0.34767 0.22468 0.76445 0.0
C1671 C 0.35923 0.21739 0.72182 0.0
C1672 C 0.35106 0.23759 0.8089 0.0
C1673 C 0.37441 0.22277 0.72666 0.0
C1674 C 0.37788 0.23572 0.77036 0.0
C1675 C 0.36935 0.25705 0.85012 0.0
C1676 C 0.35754 0.26492 0.88853 0.0
C1677 C 0.36623 0.24341 0.81044 0.0
C1678 C 0.34269 0.25859 0.88974 0.0
C1679 C 0.33946 0.24508 0.85003 0.0
H1680 H 0.0332 0.08512 0.03777 0.0
H1681 H 0.03825 0.13393 1.00069 0.0
H1682 H 0.01545 0.13878 0.0786 0.0
H1683 H 0.99296 0.12892 0.14802 0.0
H1684 H 0.98771 0.08009 0.1825 0.0
H1685 H 0.01193 0.07544 0.11562 0.0
C1686 C 0.02943 0.09686 0.04733 0.0
C1687 C 0.03734 0.10917 0.01286 0.0
C1688 C 0.01625 0.09951 0.09134 0.0
C1689 C 0.03239 0.12428 0.02655 0.0
C1690 C 0.01931 0.12703 0.07073 0.0
C1691 C 0.99711 0.11725 0.14091 0.0
C1692 C 0.98839 0.10481 0.16913 0.0
C1693 C 0.01095 0.1147 0.10181 0.0
C1694 C 0.99417 0.08982 0.16137 0.0
C1695 C 0.00797 0.08718 0.12275 0.0
H1696 H 0.85689 0.74671 0.89381 0.0
H1697 H 0.85438 0.71692 0.6994 0.0
H1698 H 0.8606 0.73834 0.61688 0.0
H1699 H 0.86328 0.76615 0.59783 0.0
H1700 H 0.86602 0.79625 0.7898 0.0
H1701 H 0.86372 0.77413 0.87545 0.0
C1702 C 0.85801 0.74482 0.83365 0.0
C1703 C 0.85466 0.73023 0.80305 0.0
C1704 C 0.86174 0.75728 0.78591 0.0
C1705 C 0.85629 0.72807 0.72469 0.0
C1706 C 0.86001 0.74032 0.67721 0.0
C1707 C 0.86402 0.76773 0.65849 0.0
C1708 C 0.86513 0.78265 0.68786 0.0
C1709 C 0.86227 0.75505 0.70688 0.0
C1710 C 0.8656 0.78475 0.76631 0.0
C1711 C 0.86403 0.77214 0.81511 0.0
H1712 H 0.0091 0.13017 0.67067 0.0
H1713 H 0.02184 0.08229 0.65197 0.0
H1714 H 1.0003 0.07797 0.56625 0.0
H1715 H 0.97869 0.08794 0.49301 0.0
H1716 H 0.96635 0.13597 0.50695 0.0
H1717 H 0.98734 0.14021 0.59716 0.0
C1718 C 0.00732 0.1188 0.64745 0.0
C1719 C 0.01726 0.10659 0.66753 0.0
C1720 C 0.99512 0.11649 0.59687 0.0
C1721 C 0.01438 0.09186 0.63826 0.0
C1722 C 1.00213 0.08942 0.58866 0.0
C1723 C 0.98054 0.09938 0.51564 0.0
C1724 C 0.97098 0.11167 0.49311 0.0
C1725 C 0.99256 0.10168 0.56703 0.0
C1726 C 0.97358 0.12636 0.52313 0.0
C1727 C 0.98554 0.12875 0.5748 0.0
H1728 H 0.66974 0.21942 0.23933 0.0
H1729 H 0.622 0.21798 0.17287 0.0
H1730 H 0.61658 0.24018 0.25384 0.0
H1731 H 0.62577 0.26067 0.33818 0.0
H1732 H 0.6737 0.26233 0.40113 0.0
H1733 H 0.67862 0.23904 0.328 0.0
C1734 C 0.65811 0.22391 0.24265 0.0
C1735 C 0.6463 0.21716 0.19956 0.0
C1736 C 0.65513 0.23665 0.28885 0.0
C1737 C 0.63129 0.22301 0.20525 0.0
C1738 C 0.62821 0.2357 0.25144 0.0
C1739 C 0.63731 0.25599 0.3358 0.0
C1740 C 0.6494 0.26338 0.37453 0.0
C1741 C 0.6401 0.24274 0.29258 0.0
C1742 C 0.66418 0.25686 0.37236 0.0
C1743 C 0.66702 0.24361 0.33002 0.0
H1744 H 0.49763 0.87802 0.19193 0.0
H1745 H 0.48897 0.92686 0.19213 0.0
H1746 H 0.5123 0.93106 0.1171 0.0
H1747 H 0.53364 0.92054 0.04189 0.0
H1748 H 0.54169 0.87152 0.03844 0.0
H1749 H 0.51995 0.86765 0.12414 0.0
C1750 C 0.50084 0.88959 0.17559 0.0
C1751 C 0.49142 0.90211 0.19649 0.0
C1752 C 0.51405 0.89184 0.13144 0.0
C1753 C 0.49601 0.91707 0.17684 0.0
C1754 C 0.50927 0.91943 0.13346 0.0
C1755 C 0.53074 0.90899 0.06034 0.0
C1756 C 0.5392 0.89629 0.0332 0.0
C1757 C 0.51815 0.90686 0.10895 0.0
C1758 C 0.53536 0.88147 0.05825 0.0
C1759 C 0.5229 0.87925 0.10709 0.0
H1760 H 0.83453 0.22451 0.76782 0.0
H1761 H 0.87899 0.23212 0.86895 0.0
H1762 H 0.882 0.25576 0.7945 0.0
H1763 H 0.87106 0.27511 0.70758 0.0
H1764 H 0.82688 0.26714 0.60477 0.0
H1765 H 0.82472 0.24255 0.67211 0.0
C1766 C 0.84494 0.23129 0.77317 0.0
C1767 C 0.85646 0.22672 0.82446 0.0
C1768 C 0.84658 0.24475 0.72999 0.0
C1769 C 0.86998 0.23544 0.82993 0.0
C1770 C 0.87165 0.24896 0.78762 0.0
C1771 C 0.861 0.26793 0.69977 0.0
C1772 C 0.84901 0.27299 0.6522 0.0
C1773 C 0.8599 0.25387 0.73862 0.0
C1774 C 0.83621 0.26346 0.64103 0.0
C1775 C 0.83496 0.24948 0.67988 0.0
H1776 H 0.52743 0.07606 0.49118 0.0
H1777 H 0.53631 0.12463 0.51635 0.0
H1778 H 0.51465 0.1305 0.43287 0.0
H1779 H 0.49284 0.12183 0.35633 0.0
H1780 H 0.48333 0.07331 0.33501 0.0
H1781 H 0.50591 0.06739 0.41212 0.0
C1782 C 0.52468 0.08795 0.47824 0.0
C1783 C 0.53345 0.09991 0.51026 0.0
C1784 C 0.51216 0.09122 0.43071 0.0
C1785 C 0.52974 0.11522 0.49267 0.0
C1786 C 0.51735 0.11857 0.44495 0.0
C1787 C 0.49558 0.10995 0.36886 0.0
C1788 C 0.48621 0.09803 0.34039 0.0
C1789 C 0.5084 0.10666 0.41434 0.0
C1790 C 0.49032 0.0827 0.35565 0.0
C1791 C 0.50318 0.07932 0.40025 0.0
H1792 H 0.62689 0.7476 0.11752 0.0
H1793 H 0.67522 0.73696 0.09827 0.0
H1794 H 0.68159 0.75996 0.17058 0.0
H1795 H 0.6734 0.78182 0.24757 0.0
H1796 H 0.6251 0.79225 0.27087 0.0
H1797 H 0.61871 0.77051 0.1887 0.0
C1798 C 0.63882 0.75028 0.12919 0.0
C1799 C 0.65056 0.74042 0.1031 0.0
C1800 C 0.64238 0.76343 0.17183 0.0
C1801 C 0.66597 0.74434 0.11719 0.0
C1802 C 0.66961 0.75745 0.15904 0.0
C1803 C 0.66146 0.77943 0.23429 0.0
C1804 C 0.64971 0.78856 0.26584 0.0
C1805 C 0.6579 0.76688 0.18783 0.0
C1806 C 0.63433 0.78539 0.24742 0.0
C1807 C 0.63069 0.77293 0.20068 0.0
H1808 H 0.01985 0.89197 0.93522 0.0
H1809 H 0.00293 0.92572 0.77748 0.0
H1810 H 0.97773 0.92538 0.83961 0.0
H1811 H 0.96176 0.91774 0.94787 0.0
H1812 H 0.97826 0.88356 0.10445 0.0
H1813 H 1.00246 0.88155 0.03332 0.0
C1814 C 0.01054 0.8991 0.91418 0.0
C1815 C 0.0132 0.90907 0.85285 0.0
C1816 C 0.99614 0.89875 0.95004 0.0
C1817 C 1.00107 0.91802 0.8247 0.0
C1818 C 0.98674 0.91787 0.86043 0.0
C1819 C 0.97056 0.90962 0.96528 0.0
C1820 C 0.96841 0.90085 0.03114 0.0
C1821 C 0.98432 0.90861 0.92436 0.0
C1822 C 0.97972 0.89029 0.05345 0.0
C1823 C 0.99356 0.88928 0.01324 0.0
H1824 H 0.62889 0.76113 0.6067 0.0
H1825 H 0.67731 0.7717 0.62018 0.0
H1826 H 0.68135 0.74932 0.70138 0.0
H1827 H 0.67091 0.72765 0.77387 0.0
H1828 H 0.62235 0.71756 0.76405 0.0
H1829 H 0.61853 0.73908 0.67674 0.0
C1830 C 0.64032 0.75864 0.62769 0.0
C1831 C 0.65276 0.76824 0.60773 0.0
C1832 C 0.6425 0.74591 0.67539 0.0
C1833 C 0.66756 0.76451 0.63402 0.0
C1834 C 0.66985 0.75176 0.68098 0.0
C1835 C 0.65948 0.7301 0.75249 0.0
C1836 C 0.6469 0.72105 0.77575 0.0
C1837 C 0.65737 0.74252 0.70279 0.0
C1838 C 0.6322 0.72437 0.74723 0.0
C1839 C 0.63002 0.73667 0.69734 0.0
H1840 H 0.54679 0.4156 0.95248 0.0
H1841 H 0.52852 0.38275 0.11103 0.0
H1842 H 0.50462 0.38116 0.0374 0.0
H1843 H 0.48791 0.39174 0.93654 0.0
H1844 H 0.50659 0.42385 0.77582 0.0
H1845 H 0.53155 0.423 0.84061 0.0
C1846 C 0.53768 0.40781 0.96971 0.0
C1847 C 0.53928 0.39932 0.03694 0.0
C1848 C 0.52409 0.40697 0.92702 0.0
C1849 C 0.52753 0.38925 0.05904 0.0
C1850 C 0.51385 0.38847 0.01733 0.0
C1851 C 0.49759 0.3983 0.91514 0.0
C1852 C 0.49548 0.408 0.85217 0.0
C1853 C 0.51184 0.39765 0.95257 0.0
C1854 C 0.50804 0.41632 0.82404 0.0
C1855 C 0.52222 0.4159 0.86142 0.0
H1856 H 0.84316 0.29106 0.24802 0.0
H1857 H 0.87672 0.27528 0.40939 0.0
H1858 H 0.87891 0.25073 0.3412 0.0
H1859 H 0.86934 0.23305 0.24133 0.0
H1860 H 0.83658 0.24978 0.07809 0.0
H1861 H 0.83611 0.27485 0.14065 0.0
C1862 C 0.85118 0.28236 0.26745 0.0
C1863 C 0.85975 0.28489 0.33359 0.0
C1864 C 0.8524 0.26846 0.22784 0.0
C1865 C 0.87013 0.27359 0.3582 0.0
C1866 C 0.87126 0.25954 0.31957 0.0
C1867 C 0.86222 0.24227 0.21934 0.0
C1868 C 0.85286 0.23956 0.15569 0.0
C1869 C 0.86215 0.25672 0.2553 0.0
C1870 C 0.84388 0.25163 0.12675 0.0
C1871 C 0.84356 0.26591 0.16275 0.0
H1872 H 0.9898 0.61246 0.60022 0.0
H1873 H 0.9566 0.60772 0.42166 0.0
H1874 H 0.97733 0.60491 0.32899 0.0
H1875 H 0.0049 0.59975 0.30249 0.0
H1876 H 0.0377 0.60309 0.4839 0.0
H1877 H 0.01735 0.61053 0.57131 0.0
C1878 C 0.98715 0.61132 0.54073 0.0
C1879 C 0.97176 0.6105 0.51743 0.0
C1880 C 0.99913 0.60912 0.48837 0.0
C1881 C 0.96843 0.60868 0.44042 0.0
C1882 C 0.98027 0.60688 0.38761 0.0
C1883 C 0.00757 0.60248 0.36071 0.0
C1884 C 0.02272 0.60062 0.387 0.0
C1885 C 0.99568 0.60648 0.41133 0.0
C1886 C 0.02606 0.60413 0.46273 0.0
C1887 C 0.01443 0.60843 0.51275 0.0
H1888 H 0.63501 0.22745 0.78987 0.0
H1889 H 0.66655 0.24505 0.95585 0.0
H1890 H 0.66548 0.27056 0.89684 0.0
H1891 H 0.65804 0.28678 0.78856 0.0
H1892 H 0.62571 0.26967 0.62494 0.0
H1893 H 0.6243 0.24505 0.69283 0.0
C1894 C 0.64143 0.23698 0.81349 0.0
C1895 C 0.65102 0.23443 0.87632 0.0
C1896 C 0.64058 0.25161 0.77967 0.0
C1897 C 0.65913 0.24682 0.90752 0.0
C1898 C 0.65856 0.26135 0.87359 0.0
C1899 C 0.65033 0.27779 0.76931 0.0
C1900 C 0.64192 0.27994 0.70239 0.0
C1901 C 0.64966 0.26375 0.80848 0.0
C1902 C 0.63206 0.26827 0.67712 0.0
C1903 C 0.63143 0.25417 0.7154 0.0
H1904 H 0.98083 0.42362 0.98695 0.0
H1905 H 0.97736 0.37591 0.922 0.0
H1906 H 0.99973 0.36976 1.00042 0.0
H1907 H 0.02059 0.37806 0.08418 0.0
H1908 H 0.02436 0.42573 0.14843 0.0
H1909 H 1.00123 0.43176 0.07481 0.0
C1910 C 0.98495 0.41186 0.98992 0.0
C1911 C 0.9775 0.40024 0.94808 0.0
C1912 C 0.99778 0.40842 0.03529 0.0
C1913 C 0.9829 0.38506 0.9533 0.0
C1914 C 0.99569 0.38155 0.99816 0.0
C1915 C 0.01643 0.3898 0.08183 0.0
C1916 C 0.02436 0.40149 0.12101 0.0
C1917 C 0.00328 0.39316 0.03881 0.0
C1918 C 0.01849 0.41654 0.11908 0.0
C1919 C 0.00533 0.41998 0.07653 0.0
H1920 H 0.83341 0.7328 0.17951 0.0
H1921 H 0.88173 0.72418 0.14284 0.0
H1922 H 0.88816 0.74549 0.2282 0.0
H1923 H 0.87984 0.76614 0.31483 0.0
H1924 H 0.83135 0.77431 0.34952 0.0
H1925 H 0.8252 0.7532 0.2643 0.0
C1926 C 0.8454 0.73557 0.18963 0.0
C1927 C 0.8571 0.72692 0.15447 0.0
C1928 C 0.84894 0.74761 0.23912 0.0
C1929 C 0.87252 0.73069 0.16881 0.0
C1930 C 0.87617 0.74282 0.21783 0.0
C1931 C 0.86792 0.76342 0.30339 0.0
C1932 C 0.85606 0.77191 0.3388 0.0
C1933 C 0.86445 0.75132 0.25354 0.0
C1934 C 0.8407 0.76792 0.32413 0.0
C1935 C 0.83717 0.75592 0.27482 0.0
H1936 H 0.52422 0.58418 0.52056 0.0
H1937 H 0.53335 0.63298 0.51323 0.0
H1938 H 0.51176 0.63762 0.59876 0.0
H1939 H 0.48962 0.62796 0.66995 0.0
H1940 H 0.47992 0.57934 0.67529 0.0
H1941 H 0.50275 0.57439 0.59758 0.0
C1942 C 0.52154 0.59584 0.5379 0.0
C1943 C 0.53031 0.60826 0.50999 0.0
C1944 C 0.50909 0.59841 0.58686 0.0
C1945 C 0.52675 0.62325 0.53357 0.0
C1946 C 0.51442 0.6259 0.58245 0.0
C1947 C 0.49247 0.61627 0.65402 0.0
C1948 C 0.48295 0.60404 0.67737 0.0
C1949 C 0.50539 0.61359 0.60849 0.0
C1950 C 0.48707 0.58892 0.65816 0.0
C1951 C 0.50004 0.58613 0.61326 0.0
H1952 H 0.33901 0.27784 0.23246 0.0
H1953 H 0.38823 0.28253 0.21145 0.0
H1954 H 0.39186 0.26037 0.29561 0.0
H1955 H 0.38089 0.23922 0.37114 0.0
H1956 H 0.33159 0.23451 0.38873 0.0
H1957 H 0.32814 0.25745 0.3109 0.0
C1958 C 0.35057 0.27407 0.24625 0.0
C1959 C 0.36336 0.28176 0.21517 0.0
C1960 C 0.35252 0.26139 0.29428 0.0
C1961 C 0.37822 0.27679 0.23438 0.0
C1962 C 0.38027 0.26412 0.28242 0.0
C1963 C 0.36938 0.24314 0.35776 0.0
C1964 C 0.35649 0.23501 0.3854 0.0
C1965 C 0.36749 0.25624 0.312 0.0
C1966 C 0.34169 0.24055 0.36888 0.0
C1967 C 0.33972 0.25361 0.32384 0.0
H1968 H 0.47027 0.58667 0.0228 0.0
H1969 H 0.46158 0.63555 0.01353 0.0
H1970 H 0.48345 0.64002 0.09828 0.0
H1971 H 0.50557 0.63001 0.16972 0.0
H1972 H 0.51468 0.58117 0.1732 0.0
H1973 H 0.49171 0.57667 0.097 0.0
C1974 C 0.47307 0.59835 0.03938 0.0
C1975 C 0.46435 0.6108 0.01138 0.0
C1976 C 0.48567 0.60079 0.08716 0.0
C1977 C 0.46812 0.62579 0.03407 0.0
C1978 C 0.48062 0.62833 0.0824 0.0
C1979 C 0.50264 0.61837 0.15353 0.0
C1980 C 0.51204 0.60594 0.17655 0.0
C1981 C 0.4896 0.61591 0.10835 0.0
C1982 C 0.50769 0.59092 0.15676 0.0
C1983 C 0.49461 0.58836 0.11267 0.0
H1984 H 0.13888 0.73719 0.61495 0.0
H1985 H 0.14787 0.70528 0.79556 0.0
H1986 H 0.14954 0.7266 0.88564 0.0
H1987 H 0.1523 0.75459 0.90858 0.0
H1988 H 0.14516 0.78621 0.72433 0.0
H1989 H 0.13901 0.76491 0.64018 0.0
C1990 C 0.14075 0.7349 0.67433 0.0
C1991 C 0.14303 0.71973 0.699 0.0
C1992 C 0.1424 0.74725 0.72486 0.0
C1993 C 0.14575 0.7169 0.77587 0.0
C1994 C 0.14691 0.7291 0.8271 0.0
C1995 C 0.14909 0.75677 0.85042 0.0
C1996 C 0.14944 0.77193 0.82242 0.0
C1997 C 0.14584 0.74437 0.80171 0.0
C1998 C 0.14531 0.77462 0.74679 0.0
C1999 C 0.14171 0.76245 0.69869 0.0
H2000 H 0.98507 0.38648 0.56119 0.0
H2001 H 0.99985 0.42709 0.67956 0.0
H2002 H 0.02469 0.42617 0.61403 0.0
H2003 H 0.04112 0.41505 0.51532 0.0
H2004 H 0.0271 0.37364 0.401 0.0
H2005 H 0.00293 0.37348 0.47295 0.0
C2006 C 0.99384 0.39501 0.57293 0.0
C2007 C 0.99067 0.40697 0.6242 0.0
C2008 C 0.00808 0.39427 0.53559 0.0
C2009 C 1.00212 0.41782 0.64033 0.0
C2010 C 0.01623 0.41733 0.60258 0.0
C2011 C 0.03284 0.40588 0.50684 0.0
C2012 C 0.03573 0.39445 0.45253 0.0
C2013 C 0.01918 0.4058 0.54896 0.0
C2014 C 0.02507 0.38253 0.44262 0.0
C2015 C 0.01126 0.3825 0.48343 0.0
H2016 H 0.36959 0.78271 0.24965 0.0
H2017 H 0.33186 0.76983 0.10517 0.0
H2018 H 0.33072 0.74454 0.16496 0.0
H2019 H 0.33919 0.72679 0.2637 0.0
H2020 H 0.37743 0.73867 0.40671 0.0
H2021 H 0.37986 0.76358 0.34169 0.0
C2022 C 0.36118 0.7743 0.23138 0.0
C2023 C 0.35072 0.77816 0.17357 0.0
C2024 C 0.36074 0.75965 0.26553 0.0
C2025 C 0.34004 0.76711 0.1493 0.0
C2026 C 0.33935 0.75268 0.18363 0.0
C2027 C 0.34821 0.73476 0.27986 0.0
C2028 C 0.35809 0.731 0.3399 0.0
C2029 C 0.34949 0.74891 0.24238 0.0
C2030 C 0.3698 0.7413 0.36012 0.0
C2031 C 0.37107 0.75558 0.32344 0.0
H2032 H 0.03682 0.58929 0.94815 0.0
H2033 H 0.02209 0.62225 0.1146 0.0
H2034 H 0.99843 0.627 0.04241 0.0
H2035 H 0.98086 0.61953 0.93876 0.0
H2036 H 0.99615 0.58711 0.77104 0.0
H2037 H 0.02089 0.58452 0.83604 0.0
C2038 C 0.02851 0.5977 0.96789 0.0
C2039 C 0.031 0.6053 0.03679 0.0
C2040 C 0.01508 0.60036 0.92603 0.0
C2041 C 0.02036 0.61631 0.06158 0.0
C2042 C 0.00682 0.61893 0.02059 0.0
C2043 C 0.98972 0.61206 0.91619 0.0
C2044 C 0.98668 0.60334 0.85093 0.0
C2045 C 0.00388 0.61068 0.95387 0.0
C2046 C 0.99828 0.59391 0.82111 0.0
C2047 C 0.01235 0.59236 0.85855 0.0
H2048 H 0.13659 0.28371 0.75453 0.0
H2049 H 0.18177 0.26942 0.8277 0.0
H2050 H 0.18097 0.2475 0.7432 0.0
H2051 H 0.16739 0.23188 0.64949 0.0
H2052 H 0.12215 0.24546 0.57652 0.0
H2053 H 0.12306 0.26808 0.65838 0.0
C2054 C 0.14616 0.27572 0.75218 0.0
C2055 C 0.15918 0.27822 0.79735 0.0
C2056 C 0.14571 0.26303 0.70271 0.0
C2057 C 0.17159 0.26783 0.7933 0.0
C2058 C 0.1712 0.25526 0.74481 0.0
C2059 C 0.15789 0.23997 0.65073 0.0
C2060 C 0.14477 0.23707 0.60726 0.0
C2061 C 0.15837 0.25276 0.69901 0.0
C2062 C 0.13236 0.24746 0.61006 0.0
C2063 C 0.13285 0.26036 0.65696 0.0
H2064 H 0.52819 0.38629 0.43564 0.0
H2065 H 0.51393 0.42336 0.28955 0.0
H2066 H 0.48866 0.42376 0.35045 0.0
H2067 H 0.47199 0.41573 0.45485 0.0
H2068 H 0.48613 0.37896 0.60297 0.0
H2069 H 0.51014 0.3761 0.53115 0.0
C2070 C 0.5195 0.39439 0.41692 0.0
C2071 C 0.52299 0.405 0.3591 0.0
C2072 C 0.50508 0.3946 0.45268 0.0
C2073 C 0.51151 0.41513 0.3339 0.0
C2074 C 0.49712 0.41541 0.36903 0.0
C2075 C 0.48023 0.40689 0.47059 0.0
C2076 C 0.47744 0.39765 0.53442 0.0
C2077 C 0.49397 0.40551 0.42982 0.0
C2078 C 0.48804 0.38614 0.55385 0.0
C2079 C 0.5018 0.38463 0.51321 0.0
H2080 H 0.13544 0.13335 0.28668 0.0
H2081 H 0.15611 0.15606 0.09573 0.0
H2082 H 0.14087 0.14028 0.00945 0.0
H2083 H 0.12086 0.12061 0.98835 0.0
H2084 H 0.10082 0.09731 0.17923 0.0
H2085 H 0.11658 0.11259 0.26537 0.0
C2086 C 0.1366 0.13478 0.22616 0.0
C2087 C 0.14684 0.14588 0.19765 0.0
C2088 C 0.12789 0.12556 0.17689 0.0
C2089 C 0.14841 0.14751 0.11907 0.0
C2090 C 0.13962 0.13855 0.06973 0.0
C2091 C 0.12001 0.11888 0.04881 0.0
C2092 C 0.10966 0.10788 0.07736 0.0
C2093 C 0.12922 0.12763 0.09798 0.0
C2094 C 0.10879 0.1056 0.15581 0.0
C2095 C 0.11773 0.1144 0.20511 0.0
H2096 H 0.09052 0.88582 0.33754 0.0
H2097 H 0.10714 0.87305 0.55779 0.0
H2098 H 0.12437 0.85394 0.50135 0.0
H2099 H 0.13561 0.84176 0.38798 0.0
H2100 H 0.11799 0.8538 0.16838 0.0
H2101 H 0.10018 0.87215 0.22535 0.0
C2102 C 0.09789 0.87877 0.37286 0.0
C2103 C 0.0977 0.88085 0.4514 0.0
C2104 C 0.10757 0.86769 0.34005 0.0
C2105 C 0.10709 0.87155 0.49713 0.0
C2106 C 0.11697 0.8607 0.46487 0.0
C2107 C 0.12777 0.84835 0.35297 0.0
C2108 C 0.12813 0.84648 0.27422 0.0
C2109 C 0.11744 0.85879 0.38628 0.0
C2110 C 0.11783 0.85494 0.22919 0.0
C2111 C 0.10771 0.86551 0.26169 0.0
H2112 H 0.34963 0.87609 0.71418 0.0
H2113 H 0.37743 0.83518 0.70016 0.0
H2114 H 0.39677 0.8491 0.62634 0.0
H2115 H 0.40637 0.87332 0.57165 0.0
H2116 H 0.37909 0.91456 0.59081 0.0
H2117 H 0.35902 0.90023 0.6571 0.0
C2118 C 0.3598 0.8702 0.69366 0.0
C2119 C 0.36208 0.85461 0.71187 0.0
C2120 C 0.37105 0.87842 0.65312 0.0
C2121 C 0.37547 0.84717 0.68661 0.0
C2122 C 0.38652 0.85514 0.64463 0.0
C2123 C 0.39596 0.87912 0.58963 0.0
C2124 C 0.39426 0.89501 0.5764 0.0
C2125 C 0.38454 0.87082 0.62845 0.0
C2126 C 0.38079 0.9024 0.60113 0.0
C2127 C 0.36926 0.89419 0.63865 0.0
H2128 H 0.37644 0.09922 0.93476 0.0
H2129 H 0.4172 0.12646 0.90035 0.0
H2130 H 0.40235 0.14563 0.83067 0.0
H2131 H 0.37785 0.15508 0.78356 0.0
H2132 H 0.3365 0.12867 0.81761 0.0
H2133 H 0.35133 0.10891 0.88513 0.0
C2134 C 0.38199 0.10927 0.9109 0.0
C2135 C 0.39787 0.11146 0.92205 0.0
C2136 C 0.37325 0.12047 0.87214 0.0
C2137 C 0.40499 0.12462 0.89229 0.0
C2138 C 0.39651 0.13557 0.85273 0.0
C2139 C 0.37206 0.14493 0.80489 0.0
C2140 C 0.3561 0.1433 0.79487 0.0
C2141 C 0.38064 0.13369 0.84297 0.0
C2142 C 0.34875 0.13025 0.82494 0.0
C2143 C 0.35726 0.11891 0.86301 0.0
H2144 H 0.88958 0.881 0.00488 0.0
H2145 H 0.90993 0.90206 0.80848 0.0
H2146 H 0.89487 0.88532 0.72626 0.0
H2147 H 0.8758 0.86482 0.70993 0.0
H2148 H 0.85506 0.8438 0.90549 0.0
H2149 H 0.87021 0.86044 0.98821 0.0
C2150 C 0.89079 0.8818 0.9441 0.0
C2151 C 0.90088 0.89274 0.9128 0.0
C2152 C 0.88193 0.87222 0.89703 0.0
C2153 C 0.90215 0.89384 0.8339 0.0
C2154 C 0.89357 0.88424 0.78687 0.0
C2155 C 0.87467 0.8638 0.77063 0.0
C2156 C 0.86433 0.85302 0.80133 0.0
C2157 C 0.8834 0.87341 0.81776 0.0
C2158 C 0.8628 0.85208 0.88024 0.0
C2159 C 0.87155 0.86153 0.92762 0.0
H2160 H 0.8535 0.13847 0.70849 0.0
H2161 H 0.88504 0.17664 0.70836 0.0
H2162 H 0.90384 0.16136 0.63756 0.0
H2163 H 0.91148 0.13683 0.57813 0.0
H2164 H 0.88014 0.09843 0.58309 0.0
H2165 H 0.86114 0.114 0.64985 0.0
C2166 C 0.86441 0.14348 0.69197 0.0
C2167 C 0.86785 0.15869 0.71288 0.0
C2168 C 0.87525 0.13451 0.65284 0.0
C2169 C 0.88217 0.16495 0.69279 0.0
C2170 C 0.8929 0.15622 0.6524 0.0
C2171 C 0.90046 0.13192 0.59356 0.0
C2172 C 0.89726 0.11647 0.57583 0.0
C2173 C 0.8896 0.14094 0.63254 0.0
C2174 C 0.88299 0.1102 0.59699 0.0
C2175 C 0.87207 0.11914 0.6347 0.0
H2176 H 0.59127 0.12579 0.42135 0.0
H2177 H 0.62381 0.08831 0.42558 0.0
H2178 H 0.64267 0.10405 0.35958 0.0
H2179 H 0.65004 0.12842 0.30008 0.0
H2180 H 0.61765 0.16591 0.2921 0.0
H2181 H 0.59869 0.15035 0.36036 0.0
C2182 C 0.6025 0.12112 0.40791 0.0
C2183 C 0.60604 0.10583 0.42805 0.0
C2184 C 0.61336 0.13027 0.36953 0.0
C2185 C 0.62063 0.0999 0.40965 0.0
C2186 C 0.6315 0.10895 0.3724 0.0
C2187 C 0.6389 0.13324 0.31414 0.0
C2188 C 0.6353 0.14833 0.29169 0.0
C2189 C 0.62801 0.12414 0.35214 0.0
C2190 C 0.62067 0.1543 0.3087 0.0
C2191 C 0.60984 0.14541 0.34775 0.0
H2192 H 0.65786 0.85786 0.11292 0.0
H2193 H 0.64736 0.876 0.33291 0.0
H2194 H 0.63001 0.89501 0.27687 0.0
H2195 H 0.61548 0.90441 0.16636 0.0
H2196 H 0.62488 0.88516 0.94735 0.0
H2197 H 0.645 0.86883 1.00103 0.0
C2198 C 0.65205 0.86625 0.14808 0.0
C2199 C 0.65382 0.86555 0.22677 0.0
C2200 C 0.64172 0.87683 0.11556 0.0
C2201 C 0.64607 0.87631 0.27213 0.0
C2202 C 0.63613 0.88714 0.24016 0.0
C2203 C 0.6222 0.89688 0.13043 0.0
C2204 C 0.61864 0.89588 0.0533 0.0
C2205 C 0.6335 0.88722 0.16212 0.0
C2206 C 0.6273 0.88595 0.00718 0.0
C2207 C 0.63881 0.87663 0.0378 0.0
H2208 H 0.62304 0.60136 0.57151 0.0
H2209 H 0.58193 0.62742 0.61673 0.0
H2210 H 0.59674 0.64622 0.68868 0.0
H2211 H 0.62135 0.656 0.73198 0.0
H2212 H 0.66302 0.63068 0.68716 0.0
H2213 H 0.64816 0.61102 0.62012 0.0
C2214 C 0.61741 0.61103 0.59847 0.0
C2215 C 0.60146 0.61305 0.58953 0.0
C2216 C 0.62611 0.62204 0.63834 0.0
C2217 C 0.5942 0.62573 0.62323 0.0
C2218 C 0.60266 0.63647 0.66397 0.0
C2219 C 0.62722 0.64609 0.70874 0.0
C2220 C 0.6433 0.64482 0.71513 0.0
C2221 C 0.61863 0.63487 0.67088 0.0
C2222 C 0.65068 0.63204 0.68255 0.0
C2223 C 0.64217 0.62073 0.64469 0.0
H2224 H 0.64666 0.3469 0.89298 0.0
H2225 H 0.63813 0.36755 0.67582 0.0
H2226 H 0.62224 0.38741 0.73455 0.0
H2227 H 0.60958 0.39804 0.84691 0.0
H2228 H 0.61749 0.37704 0.06403 0.0
H2229 H 0.63472 0.35819 0.00654 0.0
C2230 C 0.6415 0.3559 0.85897 0.0
C2231 C 0.64351 0.35578 0.78032 0.0
C2232 C 0.63212 0.36711 0.89305 0.0
C2233 C 0.63661 0.36737 0.73646 0.0
C2234 C 0.62754 0.37872 0.76998 0.0
C2235 C 0.61521 0.38943 0.88161 0.0
C2236 C 0.61215 0.38886 0.95939 0.0
C2237 C 0.62501 0.37856 0.84807 0.0
C2238 C 0.61942 0.37755 0.00373 0.0
C2239 C 0.62936 0.36682 0.97098 0.0
H2240 H 0.90697 0.3986 0.15219 0.0
H2241 H 0.90249 0.37357 0.94301 0.0
H2242 H 0.88586 0.35489 0.0045 0.0
H2243 H 0.87234 0.34574 0.11668 0.0
H2244 H 0.8756 0.37123 0.32488 0.0
H2245 H 0.89296 0.3896 0.26465 0.0
C2246 C 0.90229 0.38913 0.11983 0.0
C2247 C 0.90612 0.38754 0.04294 0.0
C2248 C 0.8925 0.37847 0.15537 0.0
C2249 C 0.90004 0.37502 0.00243 0.0
C2250 C 0.8904 0.36435 0.03745 0.0
C2251 C 0.87666 0.35538 0.14893 0.0
C2252 C 0.87257 0.35705 0.22539 0.0
C2253 C 0.88651 0.36599 0.11377 0.0
C2254 C 0.87865 0.36951 0.26628 0.0
C2255 C 0.88853 0.38009 0.23172 0.0
H2256 H 0.90793 0.62047 0.32707 0.0
H2257 H 0.88659 0.6265 0.54443 0.0
H2258 H 0.86801 0.6445 0.48982 0.0
H2259 H 0.858 0.65885 0.37972 0.0
H2260 H 0.87989 0.65299 0.16324 0.0
H2261 H 0.89803 0.63476 0.21767 0.0
C2262 C 0.8991 0.62561 0.36213 0.0
C2263 C 0.8986 0.62215 0.43948 0.0
C2264 C 0.88862 0.63612 0.33056 0.0
C2265 C 0.88726 0.62909 0.48474 0.0
C2266 C 0.87663 0.63936 0.45354 0.0
C2267 C 0.86675 0.65356 0.34472 0.0
C2268 C 0.86767 0.65744 0.26783 0.0
C2269 C 0.87724 0.64304 0.37652 0.0
C2270 C 0.8791 0.65051 0.22297 0.0
C2271 C 0.88942 0.63995 0.25389 0.0
H2272 H 0.38667 0.338 0.32519 0.0
H2273 H 0.34715 0.36806 0.33147 0.0
H2274 H 0.36142 0.38653 0.40674 0.0
H2275 H 0.38548 0.39499 0.46462 0.0
H2276 H 0.42529 0.36551 0.46 0.0
H2277 H 0.41061 0.34594 0.39068 0.0
C2278 C 0.38119 0.34857 0.34322 0.0
C2279 C 0.36582 0.35159 0.32233 0.0
C2280 C 0.38955 0.35929 0.3865 0.0
C2281 C 0.35884 0.36528 0.34726 0.0
C2282 C 0.36705 0.37595 0.3899 0.0
C2283 C 0.39094 0.38429 0.44829 0.0
C2284 C 0.40649 0.38177 0.46629 0.0
C2285 C 0.38245 0.37319 0.40881 0.0
C2286 C 0.41333 0.36768 0.44664 0.0
C2287 C 0.40496 0.35656 0.40676 0.0
H2288 H 0.34925 0.64303 0.20704 0.0
H2289 H 0.38622 0.67557 0.23303 0.0
H2290 H 0.40348 0.65859 0.16231 0.0
H2291 H 0.40805 0.63429 0.09416 0.0
H2292 H 0.37109 0.60158 0.07118 0.0
H2293 H 0.35384 0.61875 0.13994 0.0
C2294 C 0.36103 0.64648 0.19638 0.0
C2295 C 0.36643 0.66059 0.22462 0.0
C2296 C 0.3709 0.63656 0.15676 0.0
C2297 C 0.38183 0.66475 0.21198 0.0
C2298 C 0.39167 0.65505 0.1715 0.0
C2299 C 0.3962 0.63098 0.10389 0.0
C2300 C 0.39088 0.61667 0.07757 0.0
C2301 C 0.38635 0.6409 0.14382 0.0
C2302 C 0.37554 0.61243 0.0916 0.0
C2303 C 0.36563 0.62229 0.13048 0.0
H2304 H 0.11972 0.60416 0.93006 0.0
H2305 H 0.08014 0.63393 0.93484 0.0
H2306 H 0.09447 0.65375 0.86535 0.0
H2307 H 0.11849 0.66246 0.80209 0.0
H2308 H 0.15811 0.63259 0.80336 0.0
H2309 H 0.14363 0.61301 0.87145 0.0
C2310 C 0.1142 0.61494 0.91528 0.0
C2311 C 0.09885 0.61752 0.93667 0.0
C2312 C 0.12258 0.6263 0.87668 0.0
C2313 C 0.09195 0.6317 0.91889 0.0
C2314 C 0.10014 0.643 0.87907 0.0
C2315 C 0.12389 0.65166 0.81742 0.0
C2316 C 0.13939 0.64904 0.79795 0.0
C2317 C 0.11548 0.64042 0.85751 0.0
C2318 C 0.1463 0.63502 0.81863 0.0
C2319 C 0.13799 0.62375 0.85714 0.0
H2320 H 0.13197 0.35049 0.76282 0.0
H2321 H 0.16356 0.34476 0.57743 0.0
H2322 H 0.14681 0.36042 0.49657 0.0
H2323 H 0.12315 0.3762 0.47976 0.0
H2324 H 0.09201 0.3814 0.66763 0.0
H2325 H 0.10852 0.36537 0.74587 0.0
C2326 C 0.13513 0.3524 0.70441 0.0
C2327 C 0.14897 0.3463 0.6762 0.0
C2328 C 0.1255 0.36142 0.65865 0.0
C2329 C 0.15301 0.34935 0.60077 0.0
C2330 C 0.1434 0.35827 0.55446 0.0
C2331 C 0.11996 0.3737 0.53762 0.0
C2332 C 0.10641 0.38015 0.56785 0.0
C2333 C 0.12961 0.36443 0.58289 0.0
C2334 C 0.10249 0.37687 0.64319 0.0
C2335 C 0.11188 0.36761 0.68799 0.0
loop_
_geom_bond_atom_site_label_1
_geom_bond_atom_site_label_2
_geom_bond_distance
_geom_bond_site_symmetry_2
_ccdc_geom_bond_type
Co0 N4 2.148 . S
Co0 N10 2.128 . S
Co0 N20 2.194 . S
Co0 O25 2.351 . S
Co0 O26 2.155 . S
Co0 O27 2.096 . S
C1 N4 1.301 . S
C1 N5 1.328 . S
C1 H6 0.930 . S
C2 C3 1.333 . S
C2 N4 1.317 . S
C2 H7 0.930 . S
C3 C2 1.333 . S
C3 N5 1.350 . S
C3 H29 0.931 . S
N4 Co0 2.148 . S
N4 C1 1.301 . S
N4 C2 1.317 . S
N5 C1 1.328 . S
N5 C3 1.350 . S
H6 C1 0.930 . S
H7 C2 0.930 . S
C8 O9 1.224 . S
C8 O27 1.247 . S
O9 C8 1.224 . S
N10 Co0 2.128 . S
N10 C11 1.355 . S
N10 C13 1.311 . S
C11 N10 1.355 . S
C11 C12 1.363 . S
C11 H23 0.929 . S
C12 C11 1.363 . S
C12 N14 1.375 . S
C12 H30 0.931 . S
C13 N10 1.311 . S
C13 N14 1.347 . S
C13 H24 0.929 . S
N14 C12 1.375 . S
N14 C13 1.347 . S
C15 C18 1.365 . S
C15 N20 1.328 . S
C15 H21 0.929 . S
C16 C17 1.362 . S
C16 C19 1.378 . S
C16 H31 0.929 . S
C17 C16 1.362 . S
C17 C18 1.366 . S
C18 C15 1.365 . S
C18 C17 1.366 . S
C18 H32 0.930 . S
C19 C16 1.378 . S
C19 N20 1.315 . S
C19 H22 0.930 . S
N20 Co0 2.194 . S
N20 C15 1.328 . S
N20 C19 1.315 . S
H21 C15 0.929 . S
H22 C19 0.930 . S
H23 C11 0.929 . S
H24 C13 0.929 . S
O25 Co0 2.351 . S
O25 C28 1.244 . S
O26 Co0 2.155 . S
O26 C28 1.240 . S
O27 Co0 2.096 . S
O27 C8 1.247 . S
C28 O25 1.244 . S
C28 O26 1.240 . S
H29 C3 0.931 . S
H30 C12 0.931 . S
H31 C16 0.929 . S
H32 C18 0.930 . S
Co33 N37 2.148 . S
Co33 N43 2.128 . S
Co33 N53 2.194 . S
Co33 O58 2.351 . S
Co33 O59 2.155 . S
Co33 O60 2.096 . S
C34 N37 1.301 . S
C34 N38 1.328 . S
C34 H39 0.930 . S
C35 C36 1.333 . S
C35 N37 1.317 . S
C35 H40 0.930 . S
C36 C35 1.333 . S
C36 N38 1.350 . S
C36 H62 0.931 . S
N37 Co33 2.148 . S
N37 C34 1.301 . S
N37 C35 1.317 . S
N38 C34 1.328 . S
N38 C36 1.350 . S
H39 C34 0.930 . S
H40 C35 0.930 . S
C41 O42 1.224 . S
C41 O60 1.247 . S
O42 C41 1.224 . S
N43 Co33 2.128 . S
N43 C44 1.355 . S
N43 C46 1.311 . S
C44 N43 1.355 . S
C44 C45 1.363 . S
C44 H56 0.929 . S
C45 C44 1.363 . S
C45 N47 1.375 . S
C45 H63 0.931 . S
C46 N43 1.311 . S
C46 N47 1.347 . S
C46 H57 0.929 . S
N47 C45 1.375 . S
N47 C46 1.347 . S
C48 C51 1.365 . S
C48 N53 1.328 . S
C48 H54 0.929 . S
C49 C50 1.362 . S
C49 C52 1.378 . S
C49 H64 0.929 . S
C50 C49 1.362 . S
C50 C51 1.366 . S
C51 C48 1.365 . S
C51 C50 1.366 . S
C51 H65 0.930 . S
C52 C49 1.378 . S
C52 N53 1.315 . S
C52 H55 0.930 . S
N53 Co33 2.194 . S
N53 C48 1.328 . S
N53 C52 1.315 . S
H54 C48 0.929 . S
H55 C52 0.930 . S
H56 C44 0.929 . S
H57 C46 0.929 . S
O58 Co33 2.351 . S
O58 C61 1.244 . S
O59 Co33 2.155 . S
O59 C61 1.240 . S
O60 Co33 2.096 . S
O60 C41 1.247 . S
C61 O58 1.244 . S
C61 O59 1.240 . S
H62 C36 0.931 . S
H63 C45 0.931 . S
H64 C49 0.929 . S
H65 C51 0.930 . S
Co66 N70 2.148 1_556 S
Co66 N76 2.128 . S
Co66 N86 2.194 . S
Co66 O91 2.351 . S
Co66 O92 2.155 . S
Co66 O93 2.096 1_556 S
C67 N70 1.301 . S
C67 N71 1.328 . S
C67 H72 0.930 . S
C68 C69 1.333 . S
C68 N70 1.317 . S
C68 H73 0.930 . S
C69 C68 1.333 . S
C69 N71 1.350 . S
C69 H95 0.931 . S
N70 Co66 2.148 1_554 S
N70 C67 1.301 . S
N70 C68 1.317 . S
N71 C67 1.328 . S
N71 C69 1.350 . S
H72 C67 0.930 . S
H73 C68 0.930 . S
C74 O75 1.224 . S
C74 O93 1.247 . S
O75 C74 1.224 . S
N76 Co66 2.128 . S
N76 C77 1.355 . S
N76 C79 1.311 . S
C77 N76 1.355 . S
C77 C78 1.363 . S
C77 H89 0.929 . S
C78 C77 1.363 . S
C78 N80 1.375 . S
C78 H96 0.931 . S
C79 N76 1.311 . S
C79 N80 1.347 . S
C79 H90 0.929 . S
N80 C78 1.375 . S
N80 C79 1.347 . S
C81 C84 1.365 . S
C81 N86 1.328 . S
C81 H87 0.929 . S
C82 C83 1.362 1_554 S
C82 C85 1.378 . S
C82 H97 0.929 . S
C83 C82 1.362 1_556 S
C83 C84 1.366 . S
C84 C81 1.365 . S
C84 C83 1.366 . S
C84 H98 0.930 . S
C85 C82 1.378 . S
C85 N86 1.315 1_554 S
C85 H88 0.930 . S
N86 Co66 2.194 . S
N86 C81 1.328 . S
N86 C85 1.315 1_556 S
H87 C81 0.929 . S
H88 C85 0.930 . S
H89 C77 0.929 . S
H90 C79 0.929 . S
O91 Co66 2.351 . S
O91 C94 1.244 . S
O92 Co66 2.155 . S
O92 C94 1.240 . S
O93 Co66 2.096 1_554 S
O93 C74 1.247 . S
C94 O91 1.244 . S
C94 O92 1.240 . S
H95 C69 0.931 . S
H96 C78 0.931 . S
H97 C82 0.929 . S
H98 C84 0.930 . S
Co99 N103 2.148 . S
Co99 N109 2.128 . S
Co99 N119 2.194 . S
Co99 O124 2.351 . S
Co99 O125 2.155 . S
Co99 O126 2.096 . S
C100 N103 1.301 . S
C100 N104 1.328 . S
C100 H105 0.930 . S
C101 C102 1.333 . S
C101 N103 1.317 . S
C101 H106 0.930 . S
C102 C101 1.333 . S
C102 N104 1.350 . S
C102 H128 0.931 . S
N103 Co99 2.148 . S
N103 C100 1.301 . S
N103 C101 1.317 . S
N104 C100 1.328 . S
N104 C102 1.350 . S
H105 C100 0.930 . S
H106 C101 0.930 . S
C107 O108 1.224 . S
C107 O126 1.247 . S
O108 C107 1.224 . S
N109 Co99 2.128 . S
N109 C110 1.355 . S
N109 C112 1.311 . S
C110 N109 1.355 . S
C110 C111 1.363 . S
C110 H122 0.929 . S
C111 C110 1.363 . S
C111 N113 1.375 . S
C111 H129 0.931 1_554 S
C112 N109 1.311 . S
C112 N113 1.347 . S
C112 H123 0.929 . S
N113 C111 1.375 . S
N113 C112 1.347 . S
C114 C117 1.365 . S
C114 N119 1.328 . S
C114 H120 0.929 . S
C115 C116 1.362 . S
C115 C118 1.378 . S
C115 H130 0.929 . S
C116 C115 1.362 . S
C116 C117 1.366 . S
C117 C114 1.365 . S
C117 C116 1.366 . S
C117 H131 0.930 . S
C118 C115 1.378 . S
C118 N119 1.315 . S
C118 H121 0.930 . S
N119 Co99 2.194 . S
N119 C114 1.328 . S
N119 C118 1.315 . S
H120 C114 0.929 . S
H121 C118 0.930 . S
H122 C110 0.929 . S
H123 C112 0.929 . S
O124 Co99 2.351 . S
O124 C127 1.244 . S
O125 Co99 2.155 . S
O125 C127 1.240 . S
O126 Co99 2.096 . S
O126 C107 1.247 . S
C127 O124 1.244 . S
C127 O125 1.240 . S
H128 C102 0.931 . S
H129 C111 0.931 1_556 S
H130 C115 0.929 . S
H131 C117 0.930 . S
Co132 N136 2.148 1_554 S
Co132 N142 2.128 . S
Co132 N152 2.194 . S
Co132 O157 2.351 . S
Co132 O158 2.155 . S
Co132 O159 2.096 1_554 S
C133 N136 1.301 . S
C133 N137 1.328 . S
C133 H138 0.930 . S
C134 C135 1.333 . S
C134 N136 1.317 . S
C134 H139 0.930 . S
C135 C134 1.333 . S
C135 N137 1.350 . S
C135 H161 0.931 . S
N136 Co132 2.148 1_556 S
N136 C133 1.301 . S
N136 C134 1.317 . S
N137 C133 1.328 . S
N137 C135 1.350 . S
H138 C133 0.930 . S
H139 C134 0.930 . S
C140 O141 1.224 . S
C140 O159 1.247 . S
O141 C140 1.224 . S
N142 Co132 2.128 . S
N142 C143 1.355 . S
N142 C145 1.311 . S
C143 N142 1.355 . S
C143 C144 1.363 . S
C143 H155 0.929 . S
C144 C143 1.363 . S
C144 N146 1.375 . S
C144 H162 0.931 . S
C145 N142 1.311 . S
C145 N146 1.347 . S
C145 H156 0.929 . S
N146 C144 1.375 . S
N146 C145 1.347 . S
C147 C150 1.365 . S
C147 N152 1.328 . S
C147 H153 0.929 . S
C148 C149 1.362 1_556 S
C148 C151 1.378 . S
C148 H163 0.929 . S
C149 C148 1.362 1_554 S
C149 C150 1.366 . S
C150 C147 1.365 . S
C150 C149 1.366 . S
C150 H164 0.930 . S
C151 C148 1.378 . S
C151 N152 1.315 1_556 S
C151 H154 0.930 . S
N152 Co132 2.194 . S
N152 C147 1.328 . S
N152 C151 1.315 1_554 S
H153 C147 0.929 . S
H154 C151 0.930 . S
H155 C143 0.929 . S
H156 C145 0.929 . S
O157 Co132 2.351 . S
O157 C160 1.244 . S
O158 Co132 2.155 . S
O158 C160 1.240 . S
O159 Co132 2.096 1_556 S
O159 C140 1.247 . S
C160 O157 1.244 . S
C160 O158 1.240 . S
H161 C135 0.931 . S
H162 C144 0.931 . S
H163 C148 0.929 . S
H164 C150 0.930 . S
Co165 N169 2.148 . S
Co165 N175 2.128 . S
Co165 N185 2.194 . S
Co165 O190 2.351 . S
Co165 O191 2.155 . S
Co165 O192 2.096 . S
C166 N169 1.301 . S
C166 N170 1.328 . S
C166 H171 0.930 . S
C167 C168 1.333 . S
C167 N169 1.317 . S
C167 H172 0.930 . S
C168 C167 1.333 . S
C168 N170 1.350 . S
C168 H194 0.931 . S
N169 Co165 2.148 . S
N169 C166 1.301 . S
N169 C167 1.317 . S
N170 C166 1.328 . S
N170 C168 1.350 . S
H171 C166 0.930 . S
H172 C167 0.930 . S
C173 O174 1.224 . S
C173 O192 1.247 . S
O174 C173 1.224 . S
N175 Co165 2.128 . S
N175 C176 1.355 . S
N175 C178 1.311 . S
C176 N175 1.355 . S
C176 C177 1.363 . S
C176 H188 0.929 . S
C177 C176 1.363 . S
C177 N179 1.375 . S
C177 H195 0.931 . S
C178 N175 1.311 . S
C178 N179 1.347 . S
C178 H189 0.929 . S
N179 C177 1.375 . S
N179 C178 1.347 . S
C180 C183 1.365 . S
C180 N185 1.328 . S
C180 H186 0.929 . S
C181 C182 1.362 . S
C181 C184 1.378 . S
C181 H196 0.929 . S
C182 C181 1.362 . S
C182 C183 1.366 . S
C183 C180 1.365 . S
C183 C182 1.366 . S
C183 H197 0.930 . S
C184 C181 1.378 . S
C184 N185 1.315 . S
C184 H187 0.930 . S
N185 Co165 2.194 . S
N185 C180 1.328 . S
N185 C184 1.315 . S
H186 C180 0.929 . S
H187 C184 0.930 . S
H188 C176 0.929 . S
H189 C178 0.929 . S
O190 Co165 2.351 . S
O190 C193 1.244 . S
O191 Co165 2.155 . S
O191 C193 1.240 . S
O192 Co165 2.096 . S
O192 C173 1.247 . S
C193 O190 1.244 . S
C193 O191 1.240 . S
H194 C168 0.931 . S
H195 C177 0.931 . S
H196 C181 0.929 . S
H197 C183 0.930 . S
Co198 N202 2.148 . S
Co198 N208 2.128 . S
Co198 N218 2.194 . S
Co198 O223 2.351 . S
Co198 O224 2.155 . S
Co198 O225 2.096 . S
C199 N202 1.301 . S
C199 N203 1.328 . S
C199 H204 0.930 . S
C200 C201 1.333 . S
C200 N202 1.317 . S
C200 H205 0.930 . S
C201 C200 1.333 . S
C201 N203 1.350 . S
C201 H227 0.931 . S
N202 Co198 2.148 . S
N202 C199 1.301 . S
N202 C200 1.317 . S
N203 C199 1.328 . S
N203 C201 1.350 . S
H204 C199 0.930 . S
H205 C200 0.930 . S
C206 O207 1.224 . S
C206 O225 1.247 . S
O207 C206 1.224 . S
N208 Co198 2.128 . S
N208 C209 1.355 . S
N208 C211 1.311 . S
C209 N208 1.355 . S
C209 C210 1.363 . S
C209 H221 0.929 . S
C210 C209 1.363 . S
C210 N212 1.375 . S
C210 H228 0.931 . S
C211 N208 1.311 . S
C211 N212 1.347 . S
C211 H222 0.929 . S
N212 C210 1.375 . S
N212 C211 1.347 . S
C213 C216 1.365 . S
C213 N218 1.328 . S
C213 H219 0.929 . S
C214 C215 1.362 . S
C214 C217 1.378 . S
C214 H229 0.929 . S
C215 C214 1.362 . S
C215 C216 1.366 . S
C216 C213 1.365 . S
C216 C215 1.366 . S
C216 H230 0.930 . S
C217 C214 1.378 . S
C217 N218 1.315 . S
C217 H220 0.930 . S
N218 Co198 2.194 . S
N218 C213 1.328 . S
N218 C217 1.315 . S
H219 C213 0.929 . S
H220 C217 0.930 . S
H221 C209 0.929 . S
H222 C211 0.929 . S
O223 Co198 2.351 . S
O223 C226 1.244 . S
O224 Co198 2.155 . S
O224 C226 1.240 . S
O225 Co198 2.096 . S
O225 C206 1.247 . S
C226 O223 1.244 . S
C226 O224 1.240 . S
H227 C201 0.931 . S
H228 C210 0.931 . S
H229 C214 0.929 . S
H230 C216 0.930 . S
Co231 N235 2.148 . S
Co231 N241 2.128 . S
Co231 N251 2.194 . S
Co231 O256 2.351 . S
Co231 O257 2.155 . S
Co231 O258 2.096 . S
C232 N235 1.301 . S
C232 N236 1.328 . S
C232 H237 0.930 . S
C233 C234 1.333 . S
C233 N235 1.317 . S
C233 H238 0.930 . S
C234 C233 1.333 . S
C234 N236 1.350 . S
C234 H260 0.931 . S
N235 Co231 2.148 . S
N235 C232 1.301 . S
N235 C233 1.317 . S
N236 C232 1.328 . S
N236 C234 1.350 . S
H237 C232 0.930 . S
H238 C233 0.930 . S
C239 O240 1.224 . S
C239 O258 1.247 . S
O240 C239 1.224 . S
N241 Co231 2.128 . S
N241 C242 1.355 . S
N241 C244 1.311 . S
C242 N241 1.355 . S
C242 C243 1.363 . S
C242 H254 0.929 . S
C243 C242 1.363 . S
C243 N245 1.375 . S
C243 H261 0.931 1_556 S
C244 N241 1.311 . S
C244 N245 1.347 . S
C244 H255 0.929 . S
N245 C243 1.375 . S
N245 C244 1.347 . S
C246 C249 1.365 . S
C246 N251 1.328 . S
C246 H252 0.929 . S
C247 C248 1.362 . S
C247 C250 1.378 . S
C247 H262 0.929 . S
C248 C247 1.362 . S
C248 C249 1.366 . S
C249 C246 1.365 . S
C249 C248 1.366 . S
C249 H263 0.930 . S
C250 C247 1.378 . S
C250 N251 1.315 . S
C250 H253 0.930 . S
N251 Co231 2.194 . S
N251 C246 1.328 . S
N251 C250 1.315 . S
H252 C246 0.929 . S
H253 C250 0.930 . S
H254 C242 0.929 . S
H255 C244 0.929 . S
O256 Co231 2.351 . S
O256 C259 1.244 . S
O257 Co231 2.155 . S
O257 C259 1.240 . S
O258 Co231 2.096 . S
O258 C239 1.247 . S
C259 O256 1.244 . S
C259 O257 1.240 . S
H260 C234 0.931 . S
H261 C243 0.931 1_554 S
H262 C247 0.929 . S
H263 C249 0.930 . S
Co264 N268 2.148 . S
Co264 N274 2.128 . S
Co264 N284 2.194 . S
Co264 O289 2.351 . S
Co264 O290 2.155 . S
Co264 O291 2.096 . S
C265 N268 1.301 . S
C265 N269 1.328 . S
C265 H270 0.930 . S
C266 C267 1.333 . S
C266 N268 1.317 . S
C266 H271 0.930 . S
C267 C266 1.333 . S
C267 N269 1.350 . S
C267 H293 0.931 . S
N268 Co264 2.148 . S
N268 C265 1.301 . S
N268 C266 1.317 . S
N269 C265 1.328 . S
N269 C267 1.350 . S
H270 C265 0.930 . S
H271 C266 0.930 . S
C272 O273 1.224 . S
C272 O291 1.247 . S
O273 C272 1.224 . S
N274 Co264 2.128 . S
N274 C275 1.355 . S
N274 C277 1.311 . S
C275 N274 1.355 . S
C275 C276 1.363 . S
C275 H287 0.929 . S
C276 C275 1.363 . S
C276 N278 1.375 . S
C276 H294 0.931 . S
C277 N274 1.311 . S
C277 N278 1.347 . S
C277 H288 0.929 . S
N278 C276 1.375 . S
N278 C277 1.347 . S
C279 C282 1.365 . S
C279 N284 1.328 . S
C279 H285 0.929 . S
C280 C281 1.362 . S
C280 C283 1.378 . S
C280 H295 0.929 . S
C281 C280 1.362 . S
C281 C282 1.366 . S
C282 C279 1.365 . S
C282 C281 1.366 . S
C282 H296 0.930 . S
C283 C280 1.378 . S
C283 N284 1.315 . S
C283 H286 0.930 . S
N284 Co264 2.194 . S
N284 C279 1.328 . S
N284 C283 1.315 . S
H285 C279 0.929 . S
H286 C283 0.930 . S
H287 C275 0.929 . S
H288 C277 0.929 . S
O289 Co264 2.351 . S
O289 C292 1.244 . S
O290 Co264 2.155 . S
O290 C292 1.240 . S
O291 Co264 2.096 . S
O291 C272 1.247 . S
C292 O289 1.244 . S
C292 O290 1.240 . S
H293 C267 0.931 . S
H294 C276 0.931 . S
H295 C280 0.929 . S
H296 C282 0.930 . S
Co297 N301 2.148 . S
Co297 N307 2.128 . S
Co297 N317 2.194 . S
Co297 O322 2.351 . S
Co297 O323 2.155 . S
Co297 O324 2.096 . S
C298 N301 1.301 . S
C298 N302 1.328 . S
C298 H303 0.930 . S
C299 C300 1.333 . S
C299 N301 1.317 . S
C299 H304 0.930 . S
C300 C299 1.333 . S
C300 N302 1.350 . S
C300 H326 0.931 . S
N301 Co297 2.148 . S
N301 C298 1.301 . S
N301 C299 1.317 . S
N302 C298 1.328 . S
N302 C300 1.350 . S
H303 C298 0.930 . S
H304 C299 0.930 . S
C305 O306 1.224 . S
C305 O324 1.247 . S
O306 C305 1.224 . S
N307 Co297 2.128 . S
N307 C308 1.355 . S
N307 C310 1.311 . S
C308 N307 1.355 . S
C308 C309 1.363 . S
C308 H320 0.929 . S
C309 C308 1.363 . S
C309 N311 1.375 . S
C309 H327 0.931 . S
C310 N307 1.311 . S
C310 N311 1.347 . S
C310 H321 0.929 . S
N311 C309 1.375 . S
N311 C310 1.347 . S
C312 C315 1.365 . S
C312 N317 1.328 . S
C312 H318 0.929 . S
C313 C314 1.362 . S
C313 C316 1.378 . S
C313 H328 0.929 . S
C314 C313 1.362 . S
C314 C315 1.366 . S
C315 C312 1.365 . S
C315 C314 1.366 . S
C315 H329 0.930 . S
C316 C313 1.378 . S
C316 N317 1.315 . S
C316 H319 0.930 . S
N317 Co297 2.194 . S
N317 C312 1.328 . S
N317 C316 1.315 . S
H318 C312 0.929 . S
H319 C316 0.930 . S
H320 C308 0.929 . S
H321 C310 0.929 . S
O322 Co297 2.351 . S
O322 C325 1.244 . S
O323 Co297 2.155 . S
O323 C325 1.240 . S
O324 Co297 2.096 . S
O324 C305 1.247 . S
C325 O322 1.244 . S
C325 O323 1.240 . S
H326 C300 0.931 . S
H327 C309 0.931 . S
H328 C313 0.929 . S
H329 C315 0.930 . S
Co330 N334 2.148 1_554 S
Co330 N340 2.128 . S
Co330 N350 2.194 . S
Co330 O355 2.351 . S
Co330 O356 2.155 . S
Co330 O357 2.096 1_554 S
C331 N334 1.301 . S
C331 N335 1.328 . S
C331 H336 0.930 . S
C332 C333 1.333 . S
C332 N334 1.317 . S
C332 H337 0.930 . S
C333 C332 1.333 . S
C333 N335 1.350 . S
C333 H359 0.931 . S
N334 Co330 2.148 1_556 S
N334 C331 1.301 . S
N334 C332 1.317 . S
N335 C331 1.328 . S
N335 C333 1.350 . S
H336 C331 0.930 . S
H337 C332 0.930 . S
C338 O339 1.224 . S
C338 O357 1.247 . S
O339 C338 1.224 . S
N340 Co330 2.128 . S
N340 C341 1.355 . S
N340 C343 1.311 . S
C341 N340 1.355 . S
C341 C342 1.363 . S
C341 H353 0.929 . S
C342 C341 1.363 . S
C342 N344 1.375 . S
C342 H360 0.931 . S
C343 N340 1.311 . S
C343 N344 1.347 . S
C343 H354 0.929 . S
N344 C342 1.375 . S
N344 C343 1.347 . S
C345 C348 1.365 . S
C345 N350 1.328 . S
C345 H351 0.929 . S
C346 C347 1.362 1_556 S
C346 C349 1.378 . S
C346 H361 0.929 . S
C347 C346 1.362 1_554 S
C347 C348 1.366 . S
C348 C345 1.365 . S
C348 C347 1.366 . S
C348 H362 0.930 . S
C349 C346 1.378 . S
C349 N350 1.315 1_556 S
C349 H352 0.930 . S
N350 Co330 2.194 . S
N350 C345 1.328 . S
N350 C349 1.315 1_554 S
H351 C345 0.929 . S
H352 C349 0.930 . S
H353 C341 0.929 . S
H354 C343 0.929 . S
O355 Co330 2.351 . S
O355 C358 1.244 . S
O356 Co330 2.155 . S
O356 C358 1.240 . S
O357 Co330 2.096 1_556 S
O357 C338 1.247 . S
C358 O355 1.244 . S
C358 O356 1.240 . S
H359 C333 0.931 . S
H360 C342 0.931 . S
H361 C346 0.929 . S
H362 C348 0.930 . S
Co363 N367 2.148 . S
Co363 N373 2.128 . S
Co363 N383 2.194 . S
Co363 O388 2.351 . S
Co363 O389 2.155 . S
Co363 O390 2.096 . S
C364 N367 1.301 . S
C364 N368 1.328 . S
C364 H369 0.930 . S
C365 C366 1.333 . S
C365 N367 1.317 . S
C365 H370 0.930 . S
C366 C365 1.333 . S
C366 N368 1.350 . S
C366 H392 0.931 . S
N367 Co363 2.148 . S
N367 C364 1.301 . S
N367 C365 1.317 . S
N368 C364 1.328 . S
N368 C366 1.350 . S
H369 C364 0.930 . S
H370 C365 0.930 . S
C371 O372 1.224 . S
C371 O390 1.247 . S
O372 C371 1.224 . S
N373 Co363 2.128 . S
N373 C374 1.355 . S
N373 C376 1.311 . S
C374 N373 1.355 . S
C374 C375 1.363 . S
C374 H386 0.929 . S
C375 C374 1.363 . S
C375 N377 1.375 . S
C375 H393 0.931 1_556 S
C376 N373 1.311 . S
C376 N377 1.347 . S
C376 H387 0.929 . S
N377 C375 1.375 . S
N377 C376 1.347 . S
C378 C381 1.365 . S
C378 N383 1.328 . S
C378 H384 0.929 . S
C379 C380 1.362 . S
C379 C382 1.378 . S
C379 H394 0.929 . S
C380 C379 1.362 . S
C380 C381 1.366 . S
C381 C378 1.365 . S
C381 C380 1.366 . S
C381 H395 0.930 . S
C382 C379 1.378 . S
C382 N383 1.315 . S
C382 H385 0.930 . S
N383 Co363 2.194 . S
N383 C378 1.328 . S
N383 C382 1.315 . S
H384 C378 0.929 . S
H385 C382 0.930 . S
H386 C374 0.929 . S
H387 C376 0.929 . S
O388 Co363 2.351 . S
O388 C391 1.244 . S
O389 Co363 2.155 . S
O389 C391 1.240 . S
O390 Co363 2.096 . S
O390 C371 1.247 . S
C391 O388 1.244 . S
C391 O389 1.240 . S
H392 C366 0.931 . S
H393 C375 0.931 1_554 S
H394 C379 0.929 . S
H395 C381 0.930 . S
Co396 N400 2.148 1_556 S
Co396 N406 2.128 . S
Co396 N416 2.194 . S
Co396 O421 2.351 . S
Co396 O422 2.155 . S
Co396 O423 2.096 1_556 S
C397 N400 1.301 . S
C397 N401 1.328 . S
C397 H402 0.930 . S
C398 C399 1.333 . S
C398 N400 1.317 . S
C398 H403 0.930 . S
C399 C398 1.333 . S
C399 N401 1.350 . S
C399 H425 0.931 . S
N400 Co396 2.148 1_554 S
N400 C397 1.301 . S
N400 C398 1.317 . S
N401 C397 1.328 . S
N401 C399 1.350 . S
H402 C397 0.930 . S
H403 C398 0.930 . S
C404 O405 1.224 . S
C404 O423 1.247 . S
O405 C404 1.224 . S
N406 Co396 2.128 . S
N406 C407 1.355 . S
N406 C409 1.311 . S
C407 N406 1.355 . S
C407 C408 1.363 . S
C407 H419 0.929 . S
C408 C407 1.363 . S
C408 N410 1.375 . S
C408 H426 0.931 . S
C409 N406 1.311 . S
C409 N410 1.347 . S
C409 H420 0.929 . S
N410 C408 1.375 . S
N410 C409 1.347 . S
C411 C414 1.365 . S
C411 N416 1.328 . S
C411 H417 0.929 . S
C412 C413 1.362 1_554 S
C412 C415 1.378 . S
C412 H427 0.929 . S
C413 C412 1.362 1_556 S
C413 C414 1.366 . S
C414 C411 1.365 . S
C414 C413 1.366 . S
C414 H428 0.930 . S
C415 C412 1.378 . S
C415 N416 1.315 1_554 S
C415 H418 0.930 . S
N416 Co396 2.194 . S
N416 C411 1.328 . S
N416 C415 1.315 1_556 S
H417 C411 0.929 . S
H418 C415 0.930 . S
H419 C407 0.929 . S
H420 C409 0.929 . S
O421 Co396 2.351 . S
O421 C424 1.244 . S
O422 Co396 2.155 . S
O422 C424 1.240 . S
O423 Co396 2.096 1_554 S
O423 C404 1.247 . S
C424 O421 1.244 . S
C424 O422 1.240 . S
H425 C399 0.931 . S
H426 C408 0.931 . S
H427 C412 0.929 . S
H428 C414 0.930 . S
Co429 N433 2.148 . S
Co429 N439 2.128 . S
Co429 N449 2.194 . S
Co429 O454 2.351 . S
Co429 O455 2.155 . S
Co429 O456 2.096 . S
C430 N433 1.301 . S
C430 N434 1.328 . S
C430 H435 0.930 . S
C431 C432 1.333 . S
C431 N433 1.317 . S
C431 H436 0.930 . S
C432 C431 1.333 . S
C432 N434 1.350 . S
C432 H458 0.931 . S
N433 Co429 2.148 . S
N433 C430 1.301 . S
N433 C431 1.317 . S
N434 C430 1.328 . S
N434 C432 1.350 . S
H435 C430 0.930 . S
H436 C431 0.930 . S
C437 O438 1.224 . S
C437 O456 1.247 . S
O438 C437 1.224 . S
N439 Co429 2.128 . S
N439 C440 1.355 . S
N439 C442 1.311 . S
C440 N439 1.355 . S
C440 C441 1.363 . S
C440 H452 0.929 . S
C441 C440 1.363 . S
C441 N443 1.375 . S
C441 H459 0.931 . S
C442 N439 1.311 . S
C442 N443 1.347 . S
C442 H453 0.929 . S
N443 C441 1.375 . S
N443 C442 1.347 . S
C444 C447 1.365 . S
C444 N449 1.328 . S
C444 H450 0.929 . S
C445 C446 1.362 . S
C445 C448 1.378 . S
C445 H460 0.929 . S
C446 C445 1.362 . S
C446 C447 1.366 . S
C447 C444 1.365 . S
C447 C446 1.366 . S
C447 H461 0.930 . S
C448 C445 1.378 . S
C448 N449 1.315 . S
C448 H451 0.930 . S
N449 Co429 2.194 . S
N449 C444 1.328 . S
N449 C448 1.315 . S
H450 C444 0.929 . S
H451 C448 0.930 . S
H452 C440 0.929 . S
H453 C442 0.929 . S
O454 Co429 2.351 . S
O454 C457 1.244 . S
O455 Co429 2.155 . S
O455 C457 1.240 . S
O456 Co429 2.096 . S
O456 C437 1.247 . S
C457 O454 1.244 . S
C457 O455 1.240 . S
H458 C432 0.931 . S
H459 C441 0.931 . S
H460 C445 0.929 . S
H461 C447 0.930 . S
Co462 N466 2.148 . S
Co462 N472 2.128 . S
Co462 N482 2.194 . S
Co462 O487 2.351 . S
Co462 O488 2.155 . S
Co462 O489 2.096 . S
C463 N466 1.301 . S
C463 N467 1.328 . S
C463 H468 0.930 . S
C464 C465 1.333 . S
C464 N466 1.317 . S
C464 H469 0.930 . S
C465 C464 1.333 . S
C465 N467 1.350 . S
C465 H491 0.931 . S
N466 Co462 2.148 . S
N466 C463 1.301 . S
N466 C464 1.317 . S
N467 C463 1.328 . S
N467 C465 1.350 . S
H468 C463 0.930 . S
H469 C464 0.930 . S
C470 O471 1.224 . S
C470 O489 1.247 . S
O471 C470 1.224 . S
N472 Co462 2.128 . S
N472 C473 1.355 . S
N472 C475 1.311 . S
C473 N472 1.355 . S
C473 C474 1.363 . S
C473 H485 0.929 . S
C474 C473 1.363 . S
C474 N476 1.375 . S
C474 H492 0.931 . S
C475 N472 1.311 . S
C475 N476 1.347 . S
C475 H486 0.929 . S
N476 C474 1.375 . S
N476 C475 1.347 . S
C477 C480 1.365 . S
C477 N482 1.328 . S
C477 H483 0.929 . S
C478 C479 1.362 . S
C478 C481 1.378 . S
C478 H493 0.929 . S
C479 C478 1.362 . S
C479 C480 1.366 . S
C480 C477 1.365 . S
C480 C479 1.366 . S
C480 H494 0.930 . S
C481 C478 1.378 . S
C481 N482 1.315 . S
C481 H484 0.930 . S
N482 Co462 2.194 . S
N482 C477 1.328 . S
N482 C481 1.315 . S
H483 C477 0.929 . S
H484 C481 0.930 . S
H485 C473 0.929 . S
H486 C475 0.929 . S
O487 Co462 2.351 . S
O487 C490 1.244 . S
O488 Co462 2.155 . S
O488 C490 1.240 . S
O489 Co462 2.096 . S
O489 C470 1.247 . S
C490 O487 1.244 . S
C490 O488 1.240 . S
H491 C465 0.931 . S
H492 C474 0.931 . S
H493 C478 0.929 . S
H494 C480 0.930 . S
Co495 N499 2.148 . S
Co495 N505 2.128 . S
Co495 N515 2.194 . S
Co495 O520 2.351 . S
Co495 O521 2.155 . S
Co495 O522 2.096 . S
C496 N499 1.301 . S
C496 N500 1.328 . S
C496 H501 0.930 . S
C497 C498 1.333 . S
C497 N499 1.317 . S
C497 H502 0.930 . S
C498 C497 1.333 . S
C498 N500 1.350 . S
C498 H524 0.931 . S
N499 Co495 2.148 . S
N499 C496 1.301 . S
N499 C497 1.317 . S
N500 C496 1.328 . S
N500 C498 1.350 . S
H501 C496 0.930 . S
H502 C497 0.930 . S
C503 O504 1.224 . S
C503 O522 1.247 . S
O504 C503 1.224 . S
N505 Co495 2.128 . S
N505 C506 1.355 . S
N505 C508 1.311 . S
C506 N505 1.355 . S
C506 C507 1.363 . S
C506 H518 0.929 . S
C507 C506 1.363 . S
C507 N509 1.375 . S
C507 H525 0.931 1_554 S
C508 N505 1.311 . S
C508 N509 1.347 . S
C508 H519 0.929 . S
N509 C507 1.375 . S
N509 C508 1.347 . S
C510 C513 1.365 . S
C510 N515 1.328 . S
C510 H516 0.929 . S
C511 C512 1.362 . S
C511 C514 1.378 . S
C511 H526 0.929 . S
C512 C511 1.362 . S
C512 C513 1.366 . S
C513 C510 1.365 . S
C513 C512 1.366 . S
C513 H527 0.930 . S
C514 C511 1.378 . S
C514 N515 1.315 . S
C514 H517 0.930 . S
N515 Co495 2.194 . S
N515 C510 1.328 . S
N515 C514 1.315 . S
H516 C510 0.929 . S
H517 C514 0.930 . S
H518 C506 0.929 . S
H519 C508 0.929 . S
O520 Co495 2.351 . S
O520 C523 1.244 . S
O521 Co495 2.155 . S
O521 C523 1.240 . S
O522 Co495 2.096 . S
O522 C503 1.247 . S
C523 O520 1.244 . S
C523 O521 1.240 . S
H524 C498 0.931 . S
H525 C507 0.931 1_556 S
H526 C511 0.929 . S
H527 C513 0.930 . S
Co528 N532 2.148 1_556 S
Co528 N538 2.128 . S
Co528 N548 2.194 . S
Co528 O553 2.351 . S
Co528 O554 2.155 . S
Co528 O555 2.096 1_556 S
C529 N532 1.301 . S
C529 N533 1.328 . S
C529 H534 0.930 . S
C530 C531 1.333 . S
C530 N532 1.317 . S
C530 H535 0.930 . S
C531 C530 1.333 . S
C531 N533 1.350 . S
C531 H557 0.931 . S
N532 Co528 2.148 1_554 S
N532 C529 1.301 . S
N532 C530 1.317 . S
N533 C529 1.328 . S
N533 C531 1.350 . S
H534 C529 0.930 . S
H535 C530 0.930 . S
C536 O537 1.224 . S
C536 O555 1.247 . S
O537 C536 1.224 . S
N538 Co528 2.128 . S
N538 C539 1.355 . S
N538 C541 1.311 . S
C539 N538 1.355 . S
C539 C540 1.363 . S
C539 H551 0.929 . S
C540 C539 1.363 . S
C540 N542 1.375 . S
C540 H558 0.931 . S
C541 N538 1.311 . S
C541 N542 1.347 . S
C541 H552 0.929 . S
N542 C540 1.375 . S
N542 C541 1.347 . S
C543 C546 1.365 . S
C543 N548 1.328 . S
C543 H549 0.929 . S
C544 C545 1.362 1_554 S
C544 C547 1.378 . S
C544 H559 0.929 . S
C545 C544 1.362 1_556 S
C545 C546 1.366 . S
C546 C543 1.365 . S
C546 C545 1.366 . S
C546 H560 0.930 . S
C547 C544 1.378 . S
C547 N548 1.315 1_554 S
C547 H550 0.930 . S
N548 Co528 2.194 . S
N548 C543 1.328 . S
N548 C547 1.315 1_556 S
H549 C543 0.929 . S
H550 C547 0.930 . S
H551 C539 0.929 . S
H552 C541 0.929 . S
O553 Co528 2.351 . S
O553 C556 1.244 . S
O554 Co528 2.155 . S
O554 C556 1.240 . S
O555 Co528 2.096 1_554 S
O555 C536 1.247 . S
C556 O553 1.244 . S
C556 O554 1.240 . S
H557 C531 0.931 . S
H558 C540 0.931 . S
H559 C544 0.929 . S
H560 C546 0.930 . S
Co561 N565 2.148 . S
Co561 N571 2.128 . S
Co561 N581 2.194 . S
Co561 O586 2.351 . S
Co561 O587 2.155 . S
Co561 O588 2.096 . S
C562 N565 1.301 . S
C562 N566 1.328 . S
C562 H567 0.930 . S
C563 C564 1.333 . S
C563 N565 1.317 . S
C563 H568 0.930 . S
C564 C563 1.333 . S
C564 N566 1.350 . S
C564 H590 0.931 . S
N565 Co561 2.148 . S
N565 C562 1.301 . S
N565 C563 1.317 . S
N566 C562 1.328 . S
N566 C564 1.350 . S
H567 C562 0.930 . S
H568 C563 0.930 . S
C569 O570 1.224 . S
C569 O588 1.247 . S
O570 C569 1.224 . S
N571 Co561 2.128 . S
N571 C572 1.355 . S
N571 C574 1.311 . S
C572 N571 1.355 . S
C572 C573 1.363 . S
C572 H584 0.929 . S
C573 C572 1.363 . S
C573 N575 1.375 . S
C573 H591 0.931 1_554 S
C574 N571 1.311 . S
C574 N575 1.347 . S
C574 H585 0.929 . S
N575 C573 1.375 . S
N575 C574 1.347 . S
C576 C579 1.365 . S
C576 N581 1.328 . S
C576 H582 0.929 . S
C577 C578 1.362 . S
C577 C580 1.378 . S
C577 H592 0.929 . S
C578 C577 1.362 . S
C578 C579 1.366 . S
C579 C576 1.365 . S
C579 C578 1.366 . S
C579 H593 0.930 . S
C580 C577 1.378 . S
C580 N581 1.315 . S
C580 H583 0.930 . S
N581 Co561 2.194 . S
N581 C576 1.328 . S
N581 C580 1.315 . S
H582 C576 0.929 . S
H583 C580 0.930 . S
H584 C572 0.929 . S
H585 C574 0.929 . S
O586 Co561 2.351 . S
O586 C589 1.244 . S
O587 Co561 2.155 . S
O587 C589 1.240 . S
O588 Co561 2.096 . S
O588 C569 1.247 . S
C589 O586 1.244 . S
C589 O587 1.240 . S
H590 C564 0.931 . S
H591 C573 0.931 1_556 S
H592 C577 0.929 . S
H593 C579 0.930 . S
Co594 N598 2.148 . S
Co594 N604 2.128 . S
Co594 N614 2.194 . S
Co594 O619 2.351 . S
Co594 O620 2.155 . S
Co594 O621 2.096 . S
C595 N598 1.301 . S
C595 N599 1.328 . S
C595 H600 0.930 . S
C596 C597 1.333 . S
C596 N598 1.317 . S
C596 H601 0.930 . S
C597 C596 1.333 . S
C597 N599 1.350 . S
C597 H623 0.931 . S
N598 Co594 2.148 . S
N598 C595 1.301 . S
N598 C596 1.317 . S
N599 C595 1.328 . S
N599 C597 1.350 . S
H600 C595 0.930 . S
H601 C596 0.930 . S
C602 O603 1.224 . S
C602 O621 1.247 . S
O603 C602 1.224 . S
N604 Co594 2.128 . S
N604 C605 1.355 . S
N604 C607 1.311 . S
C605 N604 1.355 . S
C605 C606 1.363 . S
C605 H617 0.929 . S
C606 C605 1.363 . S
C606 N608 1.375 . S
C606 H624 0.931 . S
C607 N604 1.311 . S
C607 N608 1.347 . S
C607 H618 0.929 . S
N608 C606 1.375 . S
N608 C607 1.347 . S
C609 C612 1.365 . S
C609 N614 1.328 . S
C609 H615 0.929 . S
C610 C611 1.362 . S
C610 C613 1.378 . S
C610 H625 0.929 . S
C611 C610 1.362 . S
C611 C612 1.366 . S
C612 C609 1.365 . S
C612 C611 1.366 . S
C612 H626 0.930 . S
C613 C610 1.378 . S
C613 N614 1.315 . S
C613 H616 0.930 . S
N614 Co594 2.194 . S
N614 C609 1.328 . S
N614 C613 1.315 . S
H615 C609 0.929 . S
H616 C613 0.930 . S
H617 C605 0.929 . S
H618 C607 0.929 . S
O619 Co594 2.351 . S
O619 C622 1.244 . S
O620 Co594 2.155 . S
O620 C622 1.240 . S
O621 Co594 2.096 . S
O621 C602 1.247 . S
C622 O619 1.244 . S
C622 O620 1.240 . S
H623 C597 0.931 . S
H624 C606 0.931 . S
H625 C610 0.929 . S
H626 C612 0.930 . S
Co627 N631 2.148 . S
Co627 N637 2.128 . S
Co627 N647 2.194 . S
Co627 O652 2.351 . S
Co627 O653 2.155 . S
Co627 O654 2.096 . S
C628 N631 1.301 . S
C628 N632 1.328 . S
C628 H633 0.930 . S
C629 C630 1.333 . S
C629 N631 1.317 . S
C629 H634 0.930 . S
C630 C629 1.333 . S
C630 N632 1.350 . S
C630 H656 0.931 . S
N631 Co627 2.148 . S
N631 C628 1.301 . S
N631 C629 1.317 . S
N632 C628 1.328 . S
N632 C630 1.350 . S
H633 C628 0.930 . S
H634 C629 0.930 . S
C635 O636 1.224 . S
C635 O654 1.247 . S
O636 C635 1.224 . S
N637 Co627 2.128 . S
N637 C638 1.355 . S
N637 C640 1.311 . S
C638 N637 1.355 . S
C638 C639 1.363 . S
C638 H650 0.929 . S
C639 C638 1.363 . S
C639 N641 1.375 . S
C639 H657 0.931 . S
C640 N637 1.311 . S
C640 N641 1.347 . S
C640 H651 0.929 . S
N641 C639 1.375 . S
N641 C640 1.347 . S
C642 C645 1.365 . S
C642 N647 1.328 . S
C642 H648 0.929 . S
C643 C644 1.362 . S
C643 C646 1.378 . S
C643 H658 0.929 . S
C644 C643 1.362 . S
C644 C645 1.366 . S
C645 C642 1.365 . S
C645 C644 1.366 . S
C645 H659 0.930 . S
C646 C643 1.378 . S
C646 N647 1.315 . S
C646 H649 0.930 . S
N647 Co627 2.194 . S
N647 C642 1.328 . S
N647 C646 1.315 . S
H648 C642 0.929 . S
H649 C646 0.930 . S
H650 C638 0.929 . S
H651 C640 0.929 . S
O652 Co627 2.351 . S
O652 C655 1.244 . S
O653 Co627 2.155 . S
O653 C655 1.240 . S
O654 Co627 2.096 . S
O654 C635 1.247 . S
C655 O652 1.244 . S
C655 O653 1.240 . S
H656 C630 0.931 . S
H657 C639 0.931 . S
H658 C643 0.929 . S
H659 C645 0.930 . S
Co660 N664 2.148 . S
Co660 N670 2.128 . S
Co660 N680 2.194 . S
Co660 O685 2.351 . S
Co660 O686 2.155 . S
Co660 O687 2.096 . S
C661 N664 1.301 . S
C661 N665 1.328 . S
C661 H666 0.930 . S
C662 C663 1.333 . S
C662 N664 1.317 . S
C662 H667 0.930 . S
C663 C662 1.333 . S
C663 N665 1.350 . S
C663 H689 0.931 . S
N664 Co660 2.148 . S
N664 C661 1.301 . S
N664 C662 1.317 . S
N665 C661 1.328 . S
N665 C663 1.350 . S
H666 C661 0.930 . S
H667 C662 0.930 . S
C668 O669 1.224 . S
C668 O687 1.247 . S
O669 C668 1.224 . S
N670 Co660 2.128 . S
N670 C671 1.355 . S
N670 C673 1.311 . S
C671 N670 1.355 . S
C671 C672 1.363 . S
C671 H683 0.929 . S
C672 C671 1.363 . S
C672 N674 1.375 . S
C672 H690 0.931 . S
C673 N670 1.311 . S
C673 N674 1.347 . S
C673 H684 0.929 . S
N674 C672 1.375 . S
N674 C673 1.347 . S
C675 C678 1.365 . S
C675 N680 1.328 . S
C675 H681 0.929 . S
C676 C677 1.362 . S
C676 C679 1.378 . S
C676 H691 0.929 . S
C677 C676 1.362 . S
C677 C678 1.366 . S
C678 C675 1.365 . S
C678 C677 1.366 . S
C678 H692 0.930 . S
C679 C676 1.378 . S
C679 N680 1.315 . S
C679 H682 0.930 . S
N680 Co660 2.194 . S
N680 C675 1.328 . S
N680 C679 1.315 . S
H681 C675 0.929 . S
H682 C679 0.930 . S
H683 C671 0.929 . S
H684 C673 0.929 . S
O685 Co660 2.351 . S
O685 C688 1.244 . S
O686 Co660 2.155 . S
O686 C688 1.240 . S
O687 Co660 2.096 . S
O687 C668 1.247 . S
C688 O685 1.244 . S
C688 O686 1.240 . S
H689 C663 0.931 . S
H690 C672 0.931 . S
H691 C676 0.929 . S
H692 C678 0.930 . S
Co693 N697 2.148 . S
Co693 N703 2.128 . S
Co693 N713 2.194 . S
Co693 O718 2.351 . S
Co693 O719 2.155 . S
Co693 O720 2.096 . S
C694 N697 1.301 . S
C694 N698 1.328 . S
C694 H699 0.930 . S
C695 C696 1.333 . S
C695 N697 1.317 . S
C695 H700 0.930 . S
C696 C695 1.333 . S
C696 N698 1.350 . S
C696 H722 0.931 . S
N697 Co693 2.148 . S
N697 C694 1.301 . S
N697 C695 1.317 . S
N698 C694 1.328 . S
N698 C696 1.350 . S
H699 C694 0.930 . S
H700 C695 0.930 . S
C701 O702 1.224 . S
C701 O720 1.247 . S
O702 C701 1.224 . S
N703 Co693 2.128 . S
N703 C704 1.355 . S
N703 C706 1.311 . S
C704 N703 1.355 . S
C704 C705 1.363 . S
C704 H716 0.929 . S
C705 C704 1.363 . S
C705 N707 1.375 . S
C705 H723 0.931 1_556 S
C706 N703 1.311 . S
C706 N707 1.347 . S
C706 H717 0.929 . S
N707 C705 1.375 . S
N707 C706 1.347 . S
C708 C711 1.365 . S
C708 N713 1.328 . S
C708 H714 0.929 . S
C709 C710 1.362 . S
C709 C712 1.378 . S
C709 H724 0.929 . S
C710 C709 1.362 . S
C710 C711 1.366 . S
C711 C708 1.365 . S
C711 C710 1.366 . S
C711 H725 0.930 . S
C712 C709 1.378 . S
C712 N713 1.315 . S
C712 H715 0.930 . S
N713 Co693 2.194 . S
N713 C708 1.328 . S
N713 C712 1.315 . S
H714 C708 0.929 . S
H715 C712 0.930 . S
H716 C704 0.929 . S
H717 C706 0.929 . S
O718 Co693 2.351 . S
O718 C721 1.244 . S
O719 Co693 2.155 . S
O719 C721 1.240 . S
O720 Co693 2.096 . S
O720 C701 1.247 . S
C721 O718 1.244 . S
C721 O719 1.240 . S
H722 C696 0.931 . S
H723 C705 0.931 1_554 S
H724 C709 0.929 . S
H725 C711 0.930 . S
Co726 N730 2.148 1_554 S
Co726 N736 2.128 . S
Co726 N746 2.194 . S
Co726 O751 2.351 . S
Co726 O752 2.155 . S
Co726 O753 2.096 1_554 S
C727 N730 1.301 . S
C727 N731 1.328 . S
C727 H732 0.930 . S
C728 C729 1.333 . S
C728 N730 1.317 . S
C728 H733 0.930 . S
C729 C728 1.333 . S
C729 N731 1.350 . S
C729 H755 0.931 . S
N730 Co726 2.148 1_556 S
N730 C727 1.301 . S
N730 C728 1.317 . S
N731 C727 1.328 . S
N731 C729 1.350 . S
H732 C727 0.930 . S
H733 C728 0.930 . S
C734 O735 1.224 . S
C734 O753 1.247 . S
O735 C734 1.224 . S
N736 Co726 2.128 . S
N736 C737 1.355 . S
N736 C739 1.311 . S
C737 N736 1.355 . S
C737 C738 1.363 . S
C737 H749 0.929 . S
C738 C737 1.363 . S
C738 N740 1.375 . S
C738 H756 0.931 . S
C739 N736 1.311 . S
C739 N740 1.347 . S
C739 H750 0.929 . S
N740 C738 1.375 . S
N740 C739 1.347 . S
C741 C744 1.365 . S
C741 N746 1.328 . S
C741 H747 0.929 . S
C742 C743 1.362 1_556 S
C742 C745 1.378 . S
C742 H757 0.929 . S
C743 C742 1.362 1_554 S
C743 C744 1.366 . S
C744 C741 1.365 . S
C744 C743 1.366 . S
C744 H758 0.930 . S
C745 C742 1.378 . S
C745 N746 1.315 1_556 S
C745 H748 0.930 . S
N746 Co726 2.194 . S
N746 C741 1.328 . S
N746 C745 1.315 1_554 S
H747 C741 0.929 . S
H748 C745 0.930 . S
H749 C737 0.929 . S
H750 C739 0.929 . S
O751 Co726 2.351 . S
O751 C754 1.244 . S
O752 Co726 2.155 . S
O752 C754 1.240 . S
O753 Co726 2.096 1_556 S
O753 C734 1.247 . S
C754 O751 1.244 . S
C754 O752 1.240 . S
H755 C729 0.931 . S
H756 C738 0.931 . S
H757 C742 0.929 . S
H758 C744 0.930 . S
Co759 N763 2.148 . S
Co759 N769 2.128 . S
Co759 N779 2.194 . S
Co759 O784 2.351 . S
Co759 O785 2.155 . S
Co759 O786 2.096 . S
C760 N763 1.301 . S
C760 N764 1.328 . S
C760 H765 0.930 . S
C761 C762 1.333 . S
C761 N763 1.317 . S
C761 H766 0.930 . S
C762 C761 1.333 . S
C762 N764 1.350 . S
C762 H788 0.931 . S
N763 Co759 2.148 . S
N763 C760 1.301 . S
N763 C761 1.317 . S
N764 C760 1.328 . S
N764 C762 1.350 . S
H765 C760 0.930 . S
H766 C761 0.930 . S
C767 O768 1.224 . S
C767 O786 1.247 . S
O768 C767 1.224 . S
N769 Co759 2.128 . S
N769 C770 1.355 . S
N769 C772 1.311 . S
C770 N769 1.355 . S
C770 C771 1.363 . S
C770 H782 0.929 . S
C771 C770 1.363 . S
C771 N773 1.375 . S
C771 H789 0.931 . S
C772 N769 1.311 . S
C772 N773 1.347 . S
C772 H783 0.929 . S
N773 C771 1.375 . S
N773 C772 1.347 . S
C774 C777 1.365 . S
C774 N779 1.328 . S
C774 H780 0.929 . S
C775 C776 1.362 . S
C775 C778 1.378 . S
C775 H790 0.929 . S
C776 C775 1.362 . S
C776 C777 1.366 . S
C777 C774 1.365 . S
C777 C776 1.366 . S
C777 H791 0.930 . S
C778 C775 1.378 . S
C778 N779 1.315 . S
C778 H781 0.930 . S
N779 Co759 2.194 . S
N779 C774 1.328 . S
N779 C778 1.315 . S
H780 C774 0.929 . S
H781 C778 0.930 . S
H782 C770 0.929 . S
H783 C772 0.929 . S
O784 Co759 2.351 . S
O784 C787 1.244 . S
O785 Co759 2.155 . S
O785 C787 1.240 . S
O786 Co759 2.096 . S
O786 C767 1.247 . S
C787 O784 1.244 . S
C787 O785 1.240 . S
H788 C762 0.931 . S
H789 C771 0.931 . S
H790 C775 0.929 . S
H791 C777 0.930 . S
Co792 N796 2.148 1_554 S
Co792 N802 2.128 . S
Co792 N812 2.194 . S
Co792 O817 2.351 . S
Co792 O818 2.155 . S
Co792 O819 2.096 1_554 S
C793 N796 1.301 . S
C793 N797 1.328 . S
C793 H798 0.930 . S
C794 C795 1.333 . S
C794 N796 1.317 . S
C794 H799 0.930 . S
C795 C794 1.333 . S
C795 N797 1.350 . S
C795 H821 0.931 . S
N796 Co792 2.148 1_556 S
N796 C793 1.301 . S
N796 C794 1.317 . S
N797 C793 1.328 . S
N797 C795 1.350 . S
H798 C793 0.930 . S
H799 C794 0.930 . S
C800 O801 1.224 . S
C800 O819 1.247 . S
O801 C800 1.224 . S
N802 Co792 2.128 . S
N802 C803 1.355 . S
N802 C805 1.311 . S
C803 N802 1.355 . S
C803 C804 1.363 . S
C803 H815 0.929 . S
C804 C803 1.363 . S
C804 N806 1.375 . S
C804 H822 0.931 . S
C805 N802 1.311 . S
C805 N806 1.347 . S
C805 H816 0.929 . S
N806 C804 1.375 . S
N806 C805 1.347 . S
C807 C810 1.365 . S
C807 N812 1.328 . S
C807 H813 0.929 . S
C808 C809 1.362 1_556 S
C808 C811 1.378 . S
C808 H823 0.929 . S
C809 C808 1.362 1_554 S
C809 C810 1.366 . S
C810 C807 1.365 . S
C810 C809 1.366 . S
C810 H824 0.930 . S
C811 C808 1.378 . S
C811 N812 1.315 1_556 S
C811 H814 0.930 . S
N812 Co792 2.194 . S
N812 C807 1.328 . S
N812 C811 1.315 1_554 S
H813 C807 0.929 . S
H814 C811 0.930 . S
H815 C803 0.929 . S
H816 C805 0.929 . S
O817 Co792 2.351 . S
O817 C820 1.244 . S
O818 Co792 2.155 . S
O818 C820 1.240 . S
O819 Co792 2.096 1_556 S
O819 C800 1.247 . S
C820 O817 1.244 . S
C820 O818 1.240 . S
H821 C795 0.931 . S
H822 C804 0.931 . S
H823 C808 0.929 . S
H824 C810 0.930 . S
Co825 N829 2.148 . S
Co825 N835 2.128 . S
Co825 N845 2.194 . S
Co825 O850 2.351 . S
Co825 O851 2.155 . S
Co825 O852 2.096 . S
C826 N829 1.301 . S
C826 N830 1.328 . S
C826 H831 0.930 . S
C827 C828 1.333 . S
C827 N829 1.317 . S
C827 H832 0.930 . S
C828 C827 1.333 . S
C828 N830 1.350 . S
C828 H854 0.931 . S
N829 Co825 2.148 . S
N829 C826 1.301 . S
N829 C827 1.317 . S
N830 C826 1.328 . S
N830 C828 1.350 . S
H831 C826 0.930 . S
H832 C827 0.930 . S
C833 O834 1.224 . S
C833 O852 1.247 . S
O834 C833 1.224 . S
N835 Co825 2.128 . S
N835 C836 1.355 . S
N835 C838 1.311 . S
C836 N835 1.355 . S
C836 C837 1.363 . S
C836 H848 0.929 . S
C837 C836 1.363 . S
C837 N839 1.375 . S
C837 H855 0.931 1_556 S
C838 N835 1.311 . S
C838 N839 1.347 . S
C838 H849 0.929 . S
N839 C837 1.375 . S
N839 C838 1.347 . S
C840 C843 1.365 . S
C840 N845 1.328 . S
C840 H846 0.929 . S
C841 C842 1.362 . S
C841 C844 1.378 . S
C841 H856 0.929 . S
C842 C841 1.362 . S
C842 C843 1.366 . S
C843 C840 1.365 . S
C843 C842 1.366 . S
C843 H857 0.930 . S
C844 C841 1.378 . S
C844 N845 1.315 . S
C844 H847 0.930 . S
N845 Co825 2.194 . S
N845 C840 1.328 . S
N845 C844 1.315 . S
H846 C840 0.929 . S
H847 C844 0.930 . S
H848 C836 0.929 . S
H849 C838 0.929 . S
O850 Co825 2.351 . S
O850 C853 1.244 . S
O851 Co825 2.155 . S
O851 C853 1.240 . S
O852 Co825 2.096 . S
O852 C833 1.247 . S
C853 O850 1.244 . S
C853 O851 1.240 . S
H854 C828 0.931 . S
H855 C837 0.931 1_554 S
H856 C841 0.929 . S
H857 C843 0.930 . S
Co858 N862 2.148 . S
Co858 N868 2.128 . S
Co858 N878 2.194 . S
Co858 O883 2.351 . S
Co858 O884 2.155 . S
Co858 O885 2.096 . S
C859 N862 1.301 . S
C859 N863 1.328 . S
C859 H864 0.930 . S
C860 C861 1.333 . S
C860 N862 1.317 . S
C860 H865 0.930 . S
C861 C860 1.333 . S
C861 N863 1.350 . S
C861 H887 0.931 . S
N862 Co858 2.148 . S
N862 C859 1.301 . S
N862 C860 1.317 . S
N863 C859 1.328 . S
N863 C861 1.350 . S
H864 C859 0.930 . S
H865 C860 0.930 . S
C866 O867 1.224 . S
C866 O885 1.247 . S
O867 C866 1.224 . S
N868 Co858 2.128 . S
N868 C869 1.355 . S
N868 C871 1.311 . S
C869 N868 1.355 . S
C869 C870 1.363 . S
C869 H881 0.929 . S
C870 C869 1.363 . S
C870 N872 1.375 . S
C870 H888 0.931 . S
C871 N868 1.311 . S
C871 N872 1.347 . S
C871 H882 0.929 . S
N872 C870 1.375 . S
N872 C871 1.347 . S
C873 C876 1.365 . S
C873 N878 1.328 . S
C873 H879 0.929 . S
C874 C875 1.362 . S
C874 C877 1.378 . S
C874 H889 0.929 . S
C875 C874 1.362 . S
C875 C876 1.366 . S
C876 C873 1.365 . S
C876 C875 1.366 . S
C876 H890 0.930 . S
C877 C874 1.378 . S
C877 N878 1.315 . S
C877 H880 0.930 . S
N878 Co858 2.194 . S
N878 C873 1.328 . S
N878 C877 1.315 . S
H879 C873 0.929 . S
H880 C877 0.930 . S
H881 C869 0.929 . S
H882 C871 0.929 . S
O883 Co858 2.351 . S
O883 C886 1.244 . S
O884 Co858 2.155 . S
O884 C886 1.240 . S
O885 Co858 2.096 . S
O885 C866 1.247 . S
C886 O883 1.244 . S
C886 O884 1.240 . S
H887 C861 0.931 . S
H888 C870 0.931 . S
H889 C874 0.929 . S
H890 C876 0.930 . S
Co891 N895 2.148 . S
Co891 N901 2.128 . S
Co891 N911 2.194 . S
Co891 O916 2.351 . S
Co891 O917 2.155 . S
Co891 O918 2.096 . S
C892 N895 1.301 . S
C892 N896 1.328 . S
C892 H897 0.930 . S
C893 C894 1.333 . S
C893 N895 1.317 . S
C893 H898 0.930 . S
C894 C893 1.333 . S
C894 N896 1.350 . S
C894 H920 0.931 . S
N895 Co891 2.148 . S
N895 C892 1.301 . S
N895 C893 1.317 . S
N896 C892 1.328 . S
N896 C894 1.350 . S
H897 C892 0.930 . S
H898 C893 0.930 . S
C899 O900 1.224 . S
C899 O918 1.247 . S
O900 C899 1.224 . S
N901 Co891 2.128 . S
N901 C902 1.355 . S
N901 C904 1.311 . S
C902 N901 1.355 . S
C902 C903 1.363 . S
C902 H914 0.929 . S
C903 C902 1.363 . S
C903 N905 1.375 . S
C903 H921 0.931 . S
C904 N901 1.311 . S
C904 N905 1.347 . S
C904 H915 0.929 . S
N905 C903 1.375 . S
N905 C904 1.347 . S
C906 C909 1.365 . S
C906 N911 1.328 . S
C906 H912 0.929 . S
C907 C908 1.362 . S
C907 C910 1.378 . S
C907 H922 0.929 . S
C908 C907 1.362 . S
C908 C909 1.366 . S
C909 C906 1.365 . S
C909 C908 1.366 . S
C909 H923 0.930 . S
C910 C907 1.378 . S
C910 N911 1.315 . S
C910 H913 0.930 . S
N911 Co891 2.194 . S
N911 C906 1.328 . S
N911 C910 1.315 . S
H912 C906 0.929 . S
H913 C910 0.930 . S
H914 C902 0.929 . S
H915 C904 0.929 . S
O916 Co891 2.351 . S
O916 C919 1.244 . S
O917 Co891 2.155 . S
O917 C919 1.240 . S
O918 Co891 2.096 . S
O918 C899 1.247 . S
C919 O916 1.244 . S
C919 O917 1.240 . S
H920 C894 0.931 . S
H921 C903 0.931 . S
H922 C907 0.929 . S
H923 C909 0.930 . S
Co924 N928 2.148 . S
Co924 N934 2.128 . S
Co924 N944 2.194 . S
Co924 O949 2.351 . S
Co924 O950 2.155 . S
Co924 O951 2.096 . S
C925 N928 1.301 . S
C925 N929 1.328 . S
C925 H930 0.930 . S
C926 C927 1.333 . S
C926 N928 1.317 . S
C926 H931 0.930 . S
C927 C926 1.333 . S
C927 N929 1.350 . S
C927 H953 0.931 . S
N928 Co924 2.148 . S
N928 C925 1.301 . S
N928 C926 1.317 . S
N929 C925 1.328 . S
N929 C927 1.350 . S
H930 C925 0.930 . S
H931 C926 0.930 . S
C932 O933 1.224 . S
C932 O951 1.247 . S
O933 C932 1.224 . S
N934 Co924 2.128 . S
N934 C935 1.355 . S
N934 C937 1.311 . S
C935 N934 1.355 . S
C935 C936 1.363 . S
C935 H947 0.929 . S
C936 C935 1.363 . S
C936 N938 1.375 . S
C936 H954 0.931 . S
C937 N934 1.311 . S
C937 N938 1.347 . S
C937 H948 0.929 . S
N938 C936 1.375 . S
N938 C937 1.347 . S
C939 C942 1.365 . S
C939 N944 1.328 . S
C939 H945 0.929 . S
C940 C941 1.362 . S
C940 C943 1.378 . S
C940 H955 0.929 . S
C941 C940 1.362 . S
C941 C942 1.366 . S
C942 C939 1.365 . S
C942 C941 1.366 . S
C942 H956 0.930 . S
C943 C940 1.378 . S
C943 N944 1.315 . S
C943 H946 0.930 . S
N944 Co924 2.194 . S
N944 C939 1.328 . S
N944 C943 1.315 . S
H945 C939 0.929 . S
H946 C943 0.930 . S
H947 C935 0.929 . S
H948 C937 0.929 . S
O949 Co924 2.351 . S
O949 C952 1.244 . S
O950 Co924 2.155 . S
O950 C952 1.240 . S
O951 Co924 2.096 . S
O951 C932 1.247 . S
C952 O949 1.244 . S
C952 O950 1.240 . S
H953 C927 0.931 . S
H954 C936 0.931 . S
H955 C940 0.929 . S
H956 C942 0.930 . S
Co957 N961 2.148 . S
Co957 N967 2.128 . S
Co957 N977 2.194 . S
Co957 O982 2.351 . S
Co957 O983 2.155 . S
Co957 O984 2.096 . S
C958 N961 1.301 . S
C958 N962 1.328 . S
C958 H963 0.930 . S
C959 C960 1.333 . S
C959 N961 1.317 . S
C959 H964 0.930 . S
C960 C959 1.333 . S
C960 N962 1.350 . S
C960 H986 0.931 . S
N961 Co957 2.148 . S
N961 C958 1.301 . S
N961 C959 1.317 . S
N962 C958 1.328 . S
N962 C960 1.350 . S
H963 C958 0.930 . S
H964 C959 0.930 . S
C965 O966 1.224 . S
C965 O984 1.247 . S
O966 C965 1.224 . S
N967 Co957 2.128 . S
N967 C968 1.355 . S
N967 C970 1.311 . S
C968 N967 1.355 . S
C968 C969 1.363 . S
C968 H980 0.929 . S
C969 C968 1.363 . S
C969 N971 1.375 . S
C969 H987 0.931 1_554 S
C970 N967 1.311 . S
C970 N971 1.347 . S
C970 H981 0.929 . S
N971 C969 1.375 . S
N971 C970 1.347 . S
C972 C975 1.365 . S
C972 N977 1.328 . S
C972 H978 0.929 . S
C973 C974 1.362 . S
C973 C976 1.378 . S
C973 H988 0.929 . S
C974 C973 1.362 . S
C974 C975 1.366 . S
C975 C972 1.365 . S
C975 C974 1.366 . S
C975 H989 0.930 . S
C976 C973 1.378 . S
C976 N977 1.315 . S
C976 H979 0.930 . S
N977 Co957 2.194 . S
N977 C972 1.328 . S
N977 C976 1.315 . S
H978 C972 0.929 . S
H979 C976 0.930 . S
H980 C968 0.929 . S
H981 C970 0.929 . S
O982 Co957 2.351 . S
O982 C985 1.244 . S
O983 Co957 2.155 . S
O983 C985 1.240 . S
O984 Co957 2.096 . S
O984 C965 1.247 . S
C985 O982 1.244 . S
C985 O983 1.240 . S
H986 C960 0.931 . S
H987 C969 0.931 1_556 S
H988 C973 0.929 . S
H989 C975 0.930 . S
Co990 N994 2.148 1_556 S
Co990 N1000 2.128 . S
Co990 N1010 2.194 . S
Co990 O1015 2.351 . S
Co990 O1016 2.155 . S
Co990 O1017 2.096 1_556 S
C991 N994 1.301 . S
C991 N995 1.328 . S
C991 H996 0.930 . S
C992 C993 1.333 . S
C992 N994 1.317 . S
C992 H997 0.930 . S
C993 C992 1.333 . S
C993 N995 1.350 . S
C993 H1019 0.931 . S
N994 Co990 2.148 1_554 S
N994 C991 1.301 . S
N994 C992 1.317 . S
N995 C991 1.328 . S
N995 C993 1.350 . S
H996 C991 0.930 . S
H997 C992 0.930 . S
C998 O999 1.224 . S
C998 O1017 1.247 . S
O999 C998 1.224 . S
N1000 Co990 2.128 . S
N1000 C1001 1.355 . S
N1000 C1003 1.311 . S
C1001 N1000 1.355 . S
C1001 C1002 1.363 . S
C1001 H1013 0.929 . S
C1002 C1001 1.363 . S
C1002 N1004 1.375 . S
C1002 H1020 0.931 . S
C1003 N1000 1.311 . S
C1003 N1004 1.347 . S
C1003 H1014 0.929 . S
N1004 C1002 1.375 . S
N1004 C1003 1.347 . S
C1005 C1008 1.365 . S
C1005 N1010 1.328 . S
C1005 H1011 0.929 . S
C1006 C1007 1.362 1_554 S
C1006 C1009 1.378 . S
C1006 H1021 0.929 . S
C1007 C1006 1.362 1_556 S
C1007 C1008 1.366 . S
C1008 C1005 1.365 . S
C1008 C1007 1.366 . S
C1008 H1022 0.930 . S
C1009 C1006 1.378 . S
C1009 N1010 1.315 1_554 S
C1009 H1012 0.930 . S
N1010 Co990 2.194 . S
N1010 C1005 1.328 . S
N1010 C1009 1.315 1_556 S
H1011 C1005 0.929 . S
H1012 C1009 0.930 . S
H1013 C1001 0.929 . S
H1014 C1003 0.929 . S
O1015 Co990 2.351 . S
O1015 C1018 1.244 . S
O1016 Co990 2.155 . S
O1016 C1018 1.240 . S
O1017 Co990 2.096 1_554 S
O1017 C998 1.247 . S
C1018 O1015 1.244 . S
C1018 O1016 1.240 . S
H1019 C993 0.931 . S
H1020 C1002 0.931 . S
H1021 C1006 0.929 . S
H1022 C1008 0.930 . S
Co1023 N1027 2.148 . S
Co1023 N1033 2.128 . S
Co1023 N1043 2.194 . S
Co1023 O1048 2.351 . S
Co1023 O1049 2.155 . S
Co1023 O1050 2.096 . S
C1024 N1027 1.301 . S
C1024 N1028 1.328 . S
C1024 H1029 0.930 . S
C1025 C1026 1.333 . S
C1025 N1027 1.317 . S
C1025 H1030 0.930 . S
C1026 C1025 1.333 . S
C1026 N1028 1.350 . S
C1026 H1052 0.931 . S
N1027 Co1023 2.148 . S
N1027 C1024 1.301 . S
N1027 C1025 1.317 . S
N1028 C1024 1.328 . S
N1028 C1026 1.350 . S
H1029 C1024 0.930 . S
H1030 C1025 0.930 . S
C1031 O1032 1.224 . S
C1031 O1050 1.247 . S
O1032 C1031 1.224 . S
N1033 Co1023 2.128 . S
N1033 C1034 1.355 . S
N1033 C1036 1.311 . S
C1034 N1033 1.355 . S
C1034 C1035 1.363 . S
C1034 H1046 0.929 . S
C1035 C1034 1.363 . S
C1035 N1037 1.375 . S
C1035 H1053 0.931 . S
C1036 N1033 1.311 . S
C1036 N1037 1.347 . S
C1036 H1047 0.929 . S
N1037 C1035 1.375 . S
N1037 C1036 1.347 . S
C1038 C1041 1.365 . S
C1038 N1043 1.328 . S
C1038 H1044 0.929 . S
C1039 C1040 1.362 . S
C1039 C1042 1.378 . S
C1039 H1054 0.929 . S
C1040 C1039 1.362 . S
C1040 C1041 1.366 . S
C1041 C1038 1.365 . S
C1041 C1040 1.366 . S
C1041 H1055 0.930 . S
C1042 C1039 1.378 . S
C1042 N1043 1.315 . S
C1042 H1045 0.930 . S
N1043 Co1023 2.194 . S
N1043 C1038 1.328 . S
N1043 C1042 1.315 . S
H1044 C1038 0.929 . S
H1045 C1042 0.930 . S
H1046 C1034 0.929 . S
H1047 C1036 0.929 . S
O1048 Co1023 2.351 . S
O1048 C1051 1.244 . S
O1049 Co1023 2.155 . S
O1049 C1051 1.240 . S
O1050 Co1023 2.096 . S
O1050 C1031 1.247 . S
C1051 O1048 1.244 . S
C1051 O1049 1.240 . S
H1052 C1026 0.931 . S
H1053 C1035 0.931 . S
H1054 C1039 0.929 . S
H1055 C1041 0.930 . S
H1056 C1062 0.930 . S
H1057 C1065 0.930 . S
H1058 C1066 0.930 . S
H1059 C1067 0.930 . S
H1060 C1070 0.930 . S
H1061 C1071 0.930 . S
C1062 H1056 0.930 . S
C1062 C1063 1.355 . S
C1062 C1064 1.415 . S
C1063 C1062 1.355 . S
C1063 C1065 1.419 . S
C1064 C1062 1.415 . S
C1064 C1069 1.425 . S
C1064 C1071 1.409 . S
C1065 H1057 0.930 . S
C1065 C1063 1.419 . S
C1065 C1066 1.362 . S
C1066 H1058 0.930 . S
C1066 C1065 1.362 . S
C1066 C1069 1.409 . S
C1067 H1059 0.930 . S
C1067 C1068 1.355 . S
C1067 C1069 1.415 . S
C1068 C1067 1.355 . S
C1068 C1070 1.419 . S
C1069 C1064 1.425 . S
C1069 C1066 1.409 . S
C1069 C1067 1.415 . S
C1070 H1060 0.930 . S
C1070 C1068 1.419 . S
C1070 C1071 1.362 . S
C1071 H1061 0.930 . S
C1071 C1064 1.409 . S
C1071 C1070 1.362 . S
H1072 C1078 0.930 . S
H1073 C1081 0.930 . S
H1074 C1082 0.930 . S
H1075 C1083 0.930 1_554 S
H1076 C1086 0.930 . S
H1077 C1087 0.930 . S
C1078 H1072 0.930 . S
C1078 C1079 1.355 . S
C1078 C1080 1.415 . S
C1079 C1078 1.355 . S
C1079 C1081 1.419 . S
C1080 C1078 1.415 . S
C1080 C1085 1.425 . S
C1080 C1087 1.409 . S
C1081 H1073 0.930 . S
C1081 C1079 1.419 . S
C1081 C1082 1.362 . S
C1082 H1074 0.930 . S
C1082 C1081 1.362 . S
C1082 C1085 1.409 . S
C1083 H1075 0.930 1_556 S
C1083 C1084 1.355 . S
C1083 C1085 1.415 . S
C1084 C1083 1.355 . S
C1084 C1086 1.419 . S
C1085 C1080 1.425 . S
C1085 C1082 1.409 . S
C1085 C1083 1.415 . S
C1086 H1076 0.930 . S
C1086 C1084 1.419 . S
C1086 C1087 1.362 . S
C1087 H1077 0.930 . S
C1087 C1080 1.409 . S
C1087 C1086 1.362 . S
H1088 C1094 0.930 . S
H1089 C1097 0.930 . S
H1090 C1098 0.930 . S
H1091 C1099 0.930 . S
H1092 C1102 0.930 . S
H1093 C1103 0.930 . S
C1094 H1088 0.930 . S
C1094 C1095 1.355 . S
C1094 C1096 1.415 . S
C1095 C1094 1.355 . S
C1095 C1097 1.419 . S
C1096 C1094 1.415 . S
C1096 C1101 1.425 . S
C1096 C1103 1.409 . S
C1097 H1089 0.930 . S
C1097 C1095 1.419 . S
C1097 C1098 1.362 . S
C1098 H1090 0.930 . S
C1098 C1097 1.362 . S
C1098 C1101 1.409 . S
C1099 H1091 0.930 . S
C1099 C1100 1.355 . S
C1099 C1101 1.415 . S
C1100 C1099 1.355 . S
C1100 C1102 1.419 . S
C1101 C1096 1.425 . S
C1101 C1098 1.409 . S
C1101 C1099 1.415 . S
C1102 H1092 0.930 . S
C1102 C1100 1.419 . S
C1102 C1103 1.362 . S
C1103 H1093 0.930 . S
C1103 C1096 1.409 . S
C1103 C1102 1.362 . S
H1104 C1110 0.930 . S
H1105 C1113 0.930 . S
H1106 C1114 0.930 . S
H1107 C1115 0.930 . S
H1108 C1118 0.930 . S
H1109 C1119 0.930 . S
C1110 H1104 0.930 . S
C1110 C1111 1.355 . S
C1110 C1112 1.415 . S
C1111 C1110 1.355 . S
C1111 C1113 1.419 . S
C1112 C1110 1.415 . S
C1112 C1117 1.425 . S
C1112 C1119 1.409 . S
C1113 H1105 0.930 . S
C1113 C1111 1.419 . S
C1113 C1114 1.362 . S
C1114 H1106 0.930 . S
C1114 C1113 1.362 . S
C1114 C1117 1.409 . S
C1115 H1107 0.930 . S
C1115 C1116 1.355 . S
C1115 C1117 1.415 . S
C1116 C1115 1.355 . S
C1116 C1118 1.419 . S
C1117 C1112 1.425 . S
C1117 C1114 1.409 . S
C1117 C1115 1.415 . S
C1118 H1108 0.930 . S
C1118 C1116 1.419 . S
C1118 C1119 1.362 . S
C1119 H1109 0.930 . S
C1119 C1112 1.409 . S
C1119 C1118 1.362 . S
H1120 C1126 0.930 . S
H1121 C1129 0.930 . S
H1122 C1130 0.930 . S
H1123 C1131 0.930 . S
H1124 C1134 0.930 . S
H1125 C1135 0.930 . S
C1126 H1120 0.930 . S
C1126 C1127 1.355 . S
C1126 C1128 1.415 . S
C1127 C1126 1.355 . S
C1127 C1129 1.419 . S
C1128 C1126 1.415 . S
C1128 C1133 1.425 . S
C1128 C1135 1.409 . S
C1129 H1121 0.930 . S
C1129 C1127 1.419 . S
C1129 C1130 1.362 . S
C1130 H1122 0.930 . S
C1130 C1129 1.362 . S
C1130 C1133 1.409 . S
C1131 H1123 0.930 . S
C1131 C1132 1.355 . S
C1131 C1133 1.415 . S
C1132 C1131 1.355 . S
C1132 C1134 1.419 . S
C1133 C1128 1.425 . S
C1133 C1130 1.409 . S
C1133 C1131 1.415 . S
C1134 H1124 0.930 . S
C1134 C1132 1.419 . S
C1134 C1135 1.362 . S
C1135 H1125 0.930 . S
C1135 C1128 1.409 . S
C1135 C1134 1.362 . S
H1136 C1142 0.930 . S
H1137 C1145 0.930 . S
H1138 C1146 0.930 1_556 S
H1139 C1147 0.930 . S
H1140 C1150 0.930 . S
H1141 C1151 0.930 . S
C1142 H1136 0.930 . S
C1142 C1143 1.355 . S
C1142 C1144 1.415 . S
C1143 C1142 1.355 . S
C1143 C1145 1.419 1_554 S
C1144 C1142 1.415 . S
C1144 C1149 1.425 . S
C1144 C1151 1.409 . S
C1145 H1137 0.930 . S
C1145 C1143 1.419 1_556 S
C1145 C1146 1.362 1_556 S
C1146 H1138 0.930 1_554 S
C1146 C1145 1.362 1_554 S
C1146 C1149 1.409 . S
C1147 H1139 0.930 . S
C1147 C1148 1.355 . S
C1147 C1149 1.415 . S
C1148 C1147 1.355 . S
C1148 C1150 1.419 . S
C1149 C1144 1.425 . S
C1149 C1146 1.409 . S
C1149 C1147 1.415 . S
C1150 H1140 0.930 . S
C1150 C1148 1.419 . S
C1150 C1151 1.362 . S
C1151 H1141 0.930 . S
C1151 C1144 1.409 . S
C1151 C1150 1.362 . S
H1152 C1158 0.930 . S
H1153 C1161 0.930 . S
H1154 C1162 0.930 . S
H1155 C1163 0.930 . S
H1156 C1166 0.930 . S
H1157 C1167 0.930 . S
C1158 H1152 0.930 . S
C1158 C1159 1.355 . S
C1158 C1160 1.415 . S
C1159 C1158 1.355 . S
C1159 C1161 1.419 . S
C1160 C1158 1.415 . S
C1160 C1165 1.425 . S
C1160 C1167 1.409 . S
C1161 H1153 0.930 . S
C1161 C1159 1.419 . S
C1161 C1162 1.362 . S
C1162 H1154 0.930 . S
C1162 C1161 1.362 . S
C1162 C1165 1.409 . S
C1163 H1155 0.930 . S
C1163 C1164 1.355 . S
C1163 C1165 1.415 . S
C1164 C1163 1.355 . S
C1164 C1166 1.419 . S
C1165 C1160 1.425 . S
C1165 C1162 1.409 . S
C1165 C1163 1.415 . S
C1166 H1156 0.930 . S
C1166 C1164 1.419 . S
C1166 C1167 1.362 . S
C1167 H1157 0.930 . S
C1167 C1160 1.409 . S
C1167 C1166 1.362 . S
H1168 C1174 0.930 . S
H1169 C1177 0.930 . S
H1170 C1178 0.930 . S
H1171 C1179 0.930 . S
H1172 C1182 0.930 . S
H1173 C1183 0.930 . S
C1174 H1168 0.930 . S
C1174 C1175 1.355 . S
C1174 C1176 1.415 . S
C1175 C1174 1.355 . S
C1175 C1177 1.419 . S
C1176 C1174 1.415 . S
C1176 C1181 1.425 . S
C1176 C1183 1.409 . S
C1177 H1169 0.930 . S
C1177 C1175 1.419 . S
C1177 C1178 1.362 . S
C1178 H1170 0.930 . S
C1178 C1177 1.362 . S
C1178 C1181 1.409 . S
C1179 H1171 0.930 . S
C1179 C1180 1.355 . S
C1179 C1181 1.415 . S
C1180 C1179 1.355 . S
C1180 C1182 1.419 . S
C1181 C1176 1.425 . S
C1181 C1178 1.409 . S
C1181 C1179 1.415 . S
C1182 H1172 0.930 . S
C1182 C1180 1.419 . S
C1182 C1183 1.362 . S
C1183 H1173 0.930 . S
C1183 C1176 1.409 . S
C1183 C1182 1.362 . S
H1184 C1190 0.930 . S
H1185 C1193 0.930 . S
H1186 C1194 0.930 . S
H1187 C1195 0.930 . S
H1188 C1198 0.930 . S
H1189 C1199 0.930 . S
C1190 H1184 0.930 . S
C1190 C1191 1.355 . S
C1190 C1192 1.415 . S
C1191 C1190 1.355 . S
C1191 C1193 1.419 . S
C1192 C1190 1.415 . S
C1192 C1197 1.425 . S
C1192 C1199 1.409 . S
C1193 H1185 0.930 . S
C1193 C1191 1.419 . S
C1193 C1194 1.362 . S
C1194 H1186 0.930 . S
C1194 C1193 1.362 . S
C1194 C1197 1.409 . S
C1195 H1187 0.930 . S
C1195 C1196 1.355 . S
C1195 C1197 1.415 . S
C1196 C1195 1.355 . S
C1196 C1198 1.419 . S
C1197 C1192 1.425 . S
C1197 C1194 1.409 . S
C1197 C1195 1.415 . S
C1198 H1188 0.930 . S
C1198 C1196 1.419 . S
C1198 C1199 1.362 . S
C1199 H1189 0.930 . S
C1199 C1192 1.409 . S
C1199 C1198 1.362 . S
H1200 C1206 0.930 . S
H1201 C1209 0.930 . S
H1202 C1210 0.930 . S
H1203 C1211 0.930 . S
H1204 C1214 0.930 . S
H1205 C1215 0.930 . S
C1206 H1200 0.930 . S
C1206 C1207 1.355 . S
C1206 C1208 1.415 . S
C1207 C1206 1.355 . S
C1207 C1209 1.419 . S
C1208 C1206 1.415 . S
C1208 C1213 1.425 . S
C1208 C1215 1.409 . S
C1209 H1201 0.930 . S
C1209 C1207 1.419 . S
C1209 C1210 1.362 . S
C1210 H1202 0.930 . S
C1210 C1209 1.362 . S
C1210 C1213 1.409 . S
C1211 H1203 0.930 . S
C1211 C1212 1.355 . S
C1211 C1213 1.415 . S
C1212 C1211 1.355 . S
C1212 C1214 1.419 . S
C1213 C1208 1.425 . S
C1213 C1210 1.409 . S
C1213 C1211 1.415 . S
C1214 H1204 0.930 . S
C1214 C1212 1.419 . S
C1214 C1215 1.362 . S
C1215 H1205 0.930 . S
C1215 C1208 1.409 . S
C1215 C1214 1.362 . S
H1216 C1222 0.930 . S
H1217 C1225 0.930 . S
H1218 C1226 0.930 . S
H1219 C1227 0.930 . S
H1220 C1230 0.930 . S
H1221 C1231 0.930 . S
C1222 H1216 0.930 . S
C1222 C1223 1.355 . S
C1222 C1224 1.415 . S
C1223 C1222 1.355 . S
C1223 C1225 1.419 . S
C1224 C1222 1.415 . S
C1224 C1229 1.425 . S
C1224 C1231 1.409 . S
C1225 H1217 0.930 . S
C1225 C1223 1.419 . S
C1225 C1226 1.362 . S
C1226 H1218 0.930 . S
C1226 C1225 1.362 . S
C1226 C1229 1.409 . S
C1227 H1219 0.930 . S
C1227 C1228 1.355 . S
C1227 C1229 1.415 . S
C1228 C1227 1.355 . S
C1228 C1230 1.419 . S
C1229 C1224 1.425 . S
C1229 C1226 1.409 . S
C1229 C1227 1.415 . S
C1230 H1220 0.930 . S
C1230 C1228 1.419 . S
C1230 C1231 1.362 . S
C1231 H1221 0.930 . S
C1231 C1224 1.409 . S
C1231 C1230 1.362 . S
H1232 C1238 0.930 . S
H1233 C1241 0.930 . S
H1234 C1242 0.930 . S
H1235 C1243 0.930 . S
H1236 C1246 0.930 . S
H1237 C1247 0.930 . S
C1238 H1232 0.930 . S
C1238 C1239 1.355 . S
C1238 C1240 1.415 . S
C1239 C1238 1.355 . S
C1239 C1241 1.419 . S
C1240 C1238 1.415 . S
C1240 C1245 1.425 . S
C1240 C1247 1.409 . S
C1241 H1233 0.930 . S
C1241 C1239 1.419 . S
C1241 C1242 1.362 . S
C1242 H1234 0.930 . S
C1242 C1241 1.362 . S
C1242 C1245 1.409 . S
C1243 H1235 0.930 . S
C1243 C1244 1.355 . S
C1243 C1245 1.415 . S
C1244 C1243 1.355 . S
C1244 C1246 1.419 . S
C1245 C1240 1.425 . S
C1245 C1242 1.409 . S
C1245 C1243 1.415 . S
C1246 H1236 0.930 . S
C1246 C1244 1.419 . S
C1246 C1247 1.362 . S
C1247 H1237 0.930 . S
C1247 C1240 1.409 . S
C1247 C1246 1.362 . S
H1248 C1254 0.930 . S
H1249 C1257 0.930 . S
H1250 C1258 0.930 . S
H1251 C1259 0.930 1_554 S
H1252 C1262 0.930 . S
H1253 C1263 0.930 . S
C1254 H1248 0.930 . S
C1254 C1255 1.355 . S
C1254 C1256 1.415 . S
C1255 C1254 1.355 . S
C1255 C1257 1.419 . S
C1256 C1254 1.415 . S
C1256 C1261 1.425 . S
C1256 C1263 1.409 . S
C1257 H1249 0.930 . S
C1257 C1255 1.419 . S
C1257 C1258 1.362 . S
C1258 H1250 0.930 . S
C1258 C1257 1.362 . S
C1258 C1261 1.409 . S
C1259 H1251 0.930 1_556 S
C1259 C1260 1.355 . S
C1259 C1261 1.415 . S
C1260 C1259 1.355 . S
C1260 C1262 1.419 . S
C1261 C1256 1.425 . S
C1261 C1258 1.409 . S
C1261 C1259 1.415 . S
C1262 H1252 0.930 . S
C1262 C1260 1.419 . S
C1262 C1263 1.362 . S
C1263 H1253 0.930 . S
C1263 C1256 1.409 . S
C1263 C1262 1.362 . S
H1264 C1270 0.930 . S
H1265 C1273 0.930 . S
H1266 C1274 0.930 . S
H1267 C1275 0.930 . S
H1268 C1278 0.930 . S
H1269 C1279 0.930 . S
C1270 H1264 0.930 . S
C1270 C1271 1.355 . S
C1270 C1272 1.415 . S
C1271 C1270 1.355 . S
C1271 C1273 1.419 . S
C1272 C1270 1.415 . S
C1272 C1277 1.425 . S
C1272 C1279 1.409 . S
C1273 H1265 0.930 . S
C1273 C1271 1.419 . S
C1273 C1274 1.362 . S
C1274 H1266 0.930 . S
C1274 C1273 1.362 . S
C1274 C1277 1.409 . S
C1275 H1267 0.930 . S
C1275 C1276 1.355 . S
C1275 C1277 1.415 . S
C1276 C1275 1.355 . S
C1276 C1278 1.419 . S
C1277 C1272 1.425 . S
C1277 C1274 1.409 . S
C1277 C1275 1.415 . S
C1278 H1268 0.930 . S
C1278 C1276 1.419 . S
C1278 C1279 1.362 . S
C1279 H1269 0.930 . S
C1279 C1272 1.409 . S
C1279 C1278 1.362 . S
H1280 C1286 0.930 . S
H1281 C1289 0.930 . S
H1282 C1290 0.930 . S
H1283 C1291 0.930 . S
H1284 C1294 0.930 . S
H1285 C1295 0.930 . S
C1286 H1280 0.930 . S
C1286 C1287 1.355 . S
C1286 C1288 1.415 . S
C1287 C1286 1.355 . S
C1287 C1289 1.419 . S
C1288 C1286 1.415 . S
C1288 C1293 1.425 . S
C1288 C1295 1.409 . S
C1289 H1281 0.930 . S
C1289 C1287 1.419 . S
C1289 C1290 1.362 . S
C1290 H1282 0.930 . S
C1290 C1289 1.362 . S
C1290 C1293 1.409 . S
C1291 H1283 0.930 . S
C1291 C1292 1.355 . S
C1291 C1293 1.415 . S
C1292 C1291 1.355 . S
C1292 C1294 1.419 . S
C1293 C1288 1.425 . S
C1293 C1290 1.409 . S
C1293 C1291 1.415 . S
C1294 H1284 0.930 . S
C1294 C1292 1.419 . S
C1294 C1295 1.362 . S
C1295 H1285 0.930 . S
C1295 C1288 1.409 . S
C1295 C1294 1.362 . S
H1296 C1302 0.930 . S
H1297 C1305 0.930 . S
H1298 C1306 0.930 . S
H1299 C1307 0.930 . S
H1300 C1310 0.930 . S
H1301 C1311 0.930 . S
C1302 H1296 0.930 . S
C1302 C1303 1.355 . S
C1302 C1304 1.415 . S
C1303 C1302 1.355 . S
C1303 C1305 1.419 . S
C1304 C1302 1.415 . S
C1304 C1309 1.425 . S
C1304 C1311 1.409 . S
C1305 H1297 0.930 . S
C1305 C1303 1.419 . S
C1305 C1306 1.362 . S
C1306 H1298 0.930 . S
C1306 C1305 1.362 . S
C1306 C1309 1.409 . S
C1307 H1299 0.930 . S
C1307 C1308 1.355 . S
C1307 C1309 1.415 . S
C1308 C1307 1.355 . S
C1308 C1310 1.419 . S
C1309 C1304 1.425 . S
C1309 C1306 1.409 . S
C1309 C1307 1.415 . S
C1310 H1300 0.930 . S
C1310 C1308 1.419 . S
C1310 C1311 1.362 . S
C1311 H1301 0.930 . S
C1311 C1304 1.409 . S
C1311 C1310 1.362 . S
H1312 C1318 0.930 . S
H1313 C1321 0.930 . S
H1314 C1322 0.930 . S
H1315 C1323 0.930 . S
H1316 C1326 0.930 . S
H1317 C1327 0.930 . S
C1318 H1312 0.930 . S
C1318 C1319 1.355 . S
C1318 C1320 1.415 . S
C1319 C1318 1.355 . S
C1319 C1321 1.419 . S
C1320 C1318 1.415 . S
C1320 C1325 1.425 . S
C1320 C1327 1.409 . S
C1321 H1313 0.930 . S
C1321 C1319 1.419 . S
C1321 C1322 1.362 . S
C1322 H1314 0.930 . S
C1322 C1321 1.362 . S
C1322 C1325 1.409 . S
C1323 H1315 0.930 . S
C1323 C1324 1.355 . S
C1323 C1325 1.415 . S
C1324 C1323 1.355 . S
C1324 C1326 1.419 . S
C1325 C1320 1.425 . S
C1325 C1322 1.409 . S
C1325 C1323 1.415 . S
C1326 H1316 0.930 . S
C1326 C1324 1.419 . S
C1326 C1327 1.362 . S
C1327 H1317 0.930 . S
C1327 C1320 1.409 . S
C1327 C1326 1.362 . S
H1328 C1334 0.930 . S
H1329 C1337 0.930 . S
H1330 C1338 0.930 . S
H1331 C1339 0.930 . S
H1332 C1342 0.930 . S
H1333 C1343 0.930 . S
C1334 H1328 0.930 . S
C1334 C1335 1.355 . S
C1334 C1336 1.415 . S
C1335 C1334 1.355 . S
C1335 C1337 1.419 . S
C1336 C1334 1.415 . S
C1336 C1341 1.425 1_565 S
C1336 C1343 1.409 1_565 S
C1337 H1329 0.930 . S
C1337 C1335 1.419 . S
C1337 C1338 1.362 . S
C1338 H1330 0.930 . S
C1338 C1337 1.362 . S
C1338 C1341 1.409 1_565 S
C1339 H1331 0.930 . S
C1339 C1340 1.355 . S
C1339 C1341 1.415 . S
C1340 C1339 1.355 . S
C1340 C1342 1.419 . S
C1341 C1336 1.425 1_545 S
C1341 C1338 1.409 1_545 S
C1341 C1339 1.415 . S
C1342 H1332 0.930 . S
C1342 C1340 1.419 . S
C1342 C1343 1.362 . S
C1343 H1333 0.930 . S
C1343 C1336 1.409 1_545 S
C1343 C1342 1.362 . S
H1344 C1350 0.930 . S
H1345 C1353 0.930 . S
H1346 C1354 0.930 . S
H1347 C1355 0.930 . S
H1348 C1358 0.930 . S
H1349 C1359 0.930 . S
C1350 H1344 0.930 . S
C1350 C1351 1.355 1_556 S
C1350 C1352 1.415 . S
C1351 C1350 1.355 1_554 S
C1351 C1353 1.419 . S
C1352 C1350 1.415 . S
C1352 C1357 1.425 1_556 S
C1352 C1359 1.409 . S
C1353 H1345 0.930 . S
C1353 C1351 1.419 . S
C1353 C1354 1.362 . S
C1354 H1346 0.930 . S
C1354 C1353 1.362 . S
C1354 C1357 1.409 . S
C1355 H1347 0.930 . S
C1355 C1356 1.355 1_554 S
C1355 C1357 1.415 . S
C1356 C1355 1.355 1_556 S
C1356 C1358 1.419 . S
C1357 C1352 1.425 1_554 S
C1357 C1354 1.409 . S
C1357 C1355 1.415 . S
C1358 H1348 0.930 . S
C1358 C1356 1.419 . S
C1358 C1359 1.362 . S
C1359 H1349 0.930 . S
C1359 C1352 1.409 . S
C1359 C1358 1.362 . S
H1360 C1366 0.930 . S
H1361 C1369 0.930 . S
H1362 C1370 0.930 . S
H1363 C1371 0.930 . S
H1364 C1374 0.930 . S
H1365 C1375 0.930 . S
C1366 H1360 0.930 . S
C1366 C1367 1.355 . S
C1366 C1368 1.415 . S
C1367 C1366 1.355 . S
C1367 C1369 1.419 . S
C1368 C1366 1.415 . S
C1368 C1373 1.425 1_545 S
C1368 C1375 1.409 1_545 S
C1369 H1361 0.930 . S
C1369 C1367 1.419 . S
C1369 C1370 1.362 . S
C1370 H1362 0.930 . S
C1370 C1369 1.362 . S
C1370 C1373 1.409 1_545 S
C1371 H1363 0.930 . S
C1371 C1372 1.355 . S
C1371 C1373 1.415 . S
C1372 C1371 1.355 . S
C1372 C1374 1.419 . S
C1373 C1368 1.425 1_565 S
C1373 C1370 1.409 1_565 S
C1373 C1371 1.415 . S
C1374 H1364 0.930 . S
C1374 C1372 1.419 . S
C1374 C1375 1.362 . S
C1375 H1365 0.930 . S
C1375 C1368 1.409 1_565 S
C1375 C1374 1.362 . S
H1376 C1382 0.930 . S
H1377 C1385 0.930 . S
H1378 C1386 0.930 . S
H1379 C1387 0.930 . S
H1380 C1390 0.930 . S
H1381 C1391 0.930 . S
C1382 H1376 0.930 . S
C1382 C1383 1.355 . S
C1382 C1384 1.415 . S
C1383 C1382 1.355 . S
C1383 C1385 1.419 . S
C1384 C1382 1.415 . S
C1384 C1389 1.425 . S
C1384 C1391 1.409 . S
C1385 H1377 0.930 . S
C1385 C1383 1.419 . S
C1385 C1386 1.362 . S
C1386 H1378 0.930 . S
C1386 C1385 1.362 . S
C1386 C1389 1.409 . S
C1387 H1379 0.930 . S
C1387 C1388 1.355 . S
C1387 C1389 1.415 . S
C1388 C1387 1.355 . S
C1388 C1390 1.419 . S
C1389 C1384 1.425 . S
C1389 C1386 1.409 . S
C1389 C1387 1.415 . S
C1390 H1380 0.930 . S
C1390 C1388 1.419 . S
C1390 C1391 1.362 . S
C1391 H1381 0.930 . S
C1391 C1384 1.409 . S
C1391 C1390 1.362 . S
H1392 C1398 0.930 . S
H1393 C1401 0.930 . S
H1394 C1402 0.930 . S
H1395 C1403 0.930 . S
H1396 C1406 0.930 . S
H1397 C1407 0.930 . S
C1398 H1392 0.930 . S
C1398 C1399 1.355 . S
C1398 C1400 1.415 . S
C1399 C1398 1.355 . S
C1399 C1401 1.419 . S
C1400 C1398 1.415 . S
C1400 C1405 1.425 1_545 S
C1400 C1407 1.409 1_545 S
C1401 H1393 0.930 . S
C1401 C1399 1.419 . S
C1401 C1402 1.362 . S
C1402 H1394 0.930 . S
C1402 C1401 1.362 . S
C1402 C1405 1.409 1_545 S
C1403 H1395 0.930 . S
C1403 C1404 1.355 . S
C1403 C1405 1.415 . S
C1404 C1403 1.355 . S
C1404 C1406 1.419 . S
C1405 C1400 1.425 1_565 S
C1405 C1402 1.409 1_565 S
C1405 C1403 1.415 . S
C1406 H1396 0.930 . S
C1406 C1404 1.419 . S
C1406 C1407 1.362 . S
C1407 H1397 0.930 . S
C1407 C1400 1.409 1_565 S
C1407 C1406 1.362 . S
H1408 C1414 0.930 . S
H1409 C1417 0.930 . S
H1410 C1418 0.930 . S
H1411 C1419 0.930 . S
H1412 C1422 0.930 . S
H1413 C1423 0.930 . S
C1414 H1408 0.930 . S
C1414 C1415 1.355 1_556 S
C1414 C1416 1.415 . S
C1415 C1414 1.355 1_554 S
C1415 C1417 1.419 . S
C1416 C1414 1.415 . S
C1416 C1421 1.425 1_556 S
C1416 C1423 1.409 . S
C1417 H1409 0.930 . S
C1417 C1415 1.419 . S
C1417 C1418 1.362 . S
C1418 H1410 0.930 . S
C1418 C1417 1.362 . S
C1418 C1421 1.409 . S
C1419 H1411 0.930 . S
C1419 C1420 1.355 1_554 S
C1419 C1421 1.415 . S
C1420 C1419 1.355 1_556 S
C1420 C1422 1.419 . S
C1421 C1416 1.425 1_554 S
C1421 C1418 1.409 . S
C1421 C1419 1.415 . S
C1422 H1412 0.930 . S
C1422 C1420 1.419 . S
C1422 C1423 1.362 . S
C1423 H1413 0.930 . S
C1423 C1416 1.409 . S
C1423 C1422 1.362 . S
H1424 C1430 0.930 . S
H1425 C1433 0.930 . S
H1426 C1434 0.930 . S
H1427 C1435 0.930 . S
H1428 C1438 0.930 . S
H1429 C1439 0.930 . S
C1430 H1424 0.930 . S
C1430 C1431 1.355 . S
C1430 C1432 1.415 . S
C1431 C1430 1.355 . S
C1431 C1433 1.419 . S
C1432 C1430 1.415 . S
C1432 C1437 1.425 1_545 S
C1432 C1439 1.409 1_545 S
C1433 H1425 0.930 . S
C1433 C1431 1.419 . S
C1433 C1434 1.362 . S
C1434 H1426 0.930 . S
C1434 C1433 1.362 . S
C1434 C1437 1.409 1_545 S
C1435 H1427 0.930 . S
C1435 C1436 1.355 . S
C1435 C1437 1.415 . S
C1436 C1435 1.355 . S
C1436 C1438 1.419 . S
C1437 C1432 1.425 1_565 S
C1437 C1434 1.409 1_565 S
C1437 C1435 1.415 . S
C1438 H1428 0.930 . S
C1438 C1436 1.419 . S
C1438 C1439 1.362 . S
C1439 H1429 0.930 . S
C1439 C1432 1.409 1_565 S
C1439 C1438 1.362 . S
H1440 C1446 0.930 . S
H1441 C1449 0.930 . S
H1442 C1450 0.930 . S
H1443 C1451 0.930 . S
H1444 C1454 0.930 . S
H1445 C1455 0.930 . S
C1446 H1440 0.930 . S
C1446 C1447 1.355 1_554 S
C1446 C1448 1.415 . S
C1447 C1446 1.355 1_556 S
C1447 C1449 1.419 . S
C1448 C1446 1.415 . S
C1448 C1453 1.425 1_554 S
C1448 C1455 1.409 . S
C1449 H1441 0.930 . S
C1449 C1447 1.419 . S
C1449 C1450 1.362 . S
C1450 H1442 0.930 . S
C1450 C1449 1.362 . S
C1450 C1453 1.409 . S
C1451 H1443 0.930 . S
C1451 C1452 1.355 1_556 S
C1451 C1453 1.415 . S
C1452 C1451 1.355 1_554 S
C1452 C1454 1.419 . S
C1453 C1448 1.425 1_556 S
C1453 C1450 1.409 . S
C1453 C1451 1.415 . S
C1454 H1444 0.930 . S
C1454 C1452 1.419 . S
C1454 C1455 1.362 . S
C1455 H1445 0.930 . S
C1455 C1448 1.409 . S
C1455 C1454 1.362 . S
H1456 C1462 0.930 . S
H1457 C1465 0.930 . S
H1458 C1466 0.930 . S
H1459 C1467 0.930 . S
H1460 C1470 0.930 . S
H1461 C1471 0.930 . S
C1462 H1456 0.930 . S
C1462 C1463 1.355 . S
C1462 C1464 1.415 . S
C1463 C1462 1.355 . S
C1463 C1465 1.419 . S
C1464 C1462 1.415 . S
C1464 C1469 1.425 . S
C1464 C1471 1.409 . S
C1465 H1457 0.930 . S
C1465 C1463 1.419 . S
C1465 C1466 1.362 . S
C1466 H1458 0.930 . S
C1466 C1465 1.362 . S
C1466 C1469 1.409 . S
C1467 H1459 0.930 . S
C1467 C1468 1.355 . S
C1467 C1469 1.415 . S
C1468 C1467 1.355 . S
C1468 C1470 1.419 . S
C1469 C1464 1.425 . S
C1469 C1466 1.409 . S
C1469 C1467 1.415 . S
C1470 H1460 0.930 . S
C1470 C1468 1.419 . S
C1470 C1471 1.362 . S
C1471 H1461 0.930 . S
C1471 C1464 1.409 . S
C1471 C1470 1.362 . S
H1472 C1478 0.930 . S
H1473 C1481 0.930 . S
H1474 C1482 0.930 . S
H1475 C1483 0.930 . S
H1476 C1486 0.930 . S
H1477 C1487 0.930 . S
C1478 H1472 0.930 . S
C1478 C1479 1.355 . S
C1478 C1480 1.415 . S
C1479 C1478 1.355 . S
C1479 C1481 1.419 . S
C1480 C1478 1.415 . S
C1480 C1485 1.425 . S
C1480 C1487 1.409 . S
C1481 H1473 0.930 . S
C1481 C1479 1.419 . S
C1481 C1482 1.362 . S
C1482 H1474 0.930 . S
C1482 C1481 1.362 . S
C1482 C1485 1.409 . S
C1483 H1475 0.930 . S
C1483 C1484 1.355 . S
C1483 C1485 1.415 . S
C1484 C1483 1.355 . S
C1484 C1486 1.419 . S
C1485 C1480 1.425 . S
C1485 C1482 1.409 . S
C1485 C1483 1.415 . S
C1486 H1476 0.930 . S
C1486 C1484 1.419 . S
C1486 C1487 1.362 . S
C1487 H1477 0.930 . S
C1487 C1480 1.409 . S
C1487 C1486 1.362 . S
H1488 C1494 0.930 . S
H1489 C1497 0.930 . S
H1490 C1498 0.930 . S
H1491 C1499 0.930 . S
H1492 C1502 0.930 . S
H1493 C1503 0.930 . S
C1494 H1488 0.930 . S
C1494 C1495 1.355 . S
C1494 C1496 1.415 . S
C1495 C1494 1.355 . S
C1495 C1497 1.419 . S
C1496 C1494 1.415 . S
C1496 C1501 1.425 . S
C1496 C1503 1.409 . S
C1497 H1489 0.930 . S
C1497 C1495 1.419 . S
C1497 C1498 1.362 . S
C1498 H1490 0.930 . S
C1498 C1497 1.362 . S
C1498 C1501 1.409 . S
C1499 H1491 0.930 . S
C1499 C1500 1.355 . S
C1499 C1501 1.415 . S
C1500 C1499 1.355 . S
C1500 C1502 1.419 . S
C1501 C1496 1.425 . S
C1501 C1498 1.409 . S
C1501 C1499 1.415 . S
C1502 H1492 0.930 . S
C1502 C1500 1.419 . S
C1502 C1503 1.362 . S
C1503 H1493 0.930 . S
C1503 C1496 1.409 . S
C1503 C1502 1.362 . S
H1504 C1510 0.930 . S
H1505 C1513 0.930 . S
H1506 C1514 0.930 . S
H1507 C1515 0.930 . S
H1508 C1518 0.930 . S
H1509 C1519 0.930 . S
C1510 H1504 0.930 . S
C1510 C1511 1.355 1_554 S
C1510 C1512 1.415 . S
C1511 C1510 1.355 1_556 S
C1511 C1513 1.419 . S
C1512 C1510 1.415 . S
C1512 C1517 1.425 1_554 S
C1512 C1519 1.409 . S
C1513 H1505 0.930 . S
C1513 C1511 1.419 . S
C1513 C1514 1.362 . S
C1514 H1506 0.930 . S
C1514 C1513 1.362 . S
C1514 C1517 1.409 . S
C1515 H1507 0.930 . S
C1515 C1516 1.355 1_556 S
C1515 C1517 1.415 . S
C1516 C1515 1.355 1_554 S
C1516 C1518 1.419 . S
C1517 C1512 1.425 1_556 S
C1517 C1514 1.409 . S
C1517 C1515 1.415 . S
C1518 H1508 0.930 . S
C1518 C1516 1.419 . S
C1518 C1519 1.362 . S
C1519 H1509 0.930 . S
C1519 C1512 1.409 . S
C1519 C1518 1.362 . S
H1520 C1526 0.930 . S
H1521 C1529 0.930 . S
H1522 C1530 0.930 . S
H1523 C1531 0.930 . S
H1524 C1534 0.930 . S
H1525 C1535 0.930 . S
C1526 H1520 0.930 . S
C1526 C1527 1.355 . S
C1526 C1528 1.415 . S
C1527 C1526 1.355 . S
C1527 C1529 1.419 . S
C1528 C1526 1.415 . S
C1528 C1533 1.425 . S
C1528 C1535 1.409 . S
C1529 H1521 0.930 . S
C1529 C1527 1.419 . S
C1529 C1530 1.362 . S
C1530 H1522 0.930 . S
C1530 C1529 1.362 . S
C1530 C1533 1.409 . S
C1531 H1523 0.930 . S
C1531 C1532 1.355 . S
C1531 C1533 1.415 . S
C1532 C1531 1.355 . S
C1532 C1534 1.419 . S
C1533 C1528 1.425 . S
C1533 C1530 1.409 . S
C1533 C1531 1.415 . S
C1534 H1524 0.930 . S
C1534 C1532 1.419 . S
C1534 C1535 1.362 . S
C1535 H1525 0.930 . S
C1535 C1528 1.409 . S
C1535 C1534 1.362 . S
H1536 C1542 0.930 . S
H1537 C1545 0.930 . S
H1538 C1546 0.930 . S
H1539 C1547 0.930 . S
H1540 C1550 0.930 . S
H1541 C1551 0.930 . S
C1542 H1536 0.930 . S
C1542 C1543 1.355 . S
C1542 C1544 1.415 . S
C1543 C1542 1.355 . S
C1543 C1545 1.419 . S
C1544 C1542 1.415 . S
C1544 C1549 1.425 . S
C1544 C1551 1.409 . S
C1545 H1537 0.930 . S
C1545 C1543 1.419 . S
C1545 C1546 1.362 . S
C1546 H1538 0.930 . S
C1546 C1545 1.362 . S
C1546 C1549 1.409 . S
C1547 H1539 0.930 . S
C1547 C1548 1.355 . S
C1547 C1549 1.415 . S
C1548 C1547 1.355 . S
C1548 C1550 1.419 . S
C1549 C1544 1.425 . S
C1549 C1546 1.409 . S
C1549 C1547 1.415 . S
C1550 H1540 0.930 . S
C1550 C1548 1.419 . S
C1550 C1551 1.362 . S
C1551 H1541 0.930 . S
C1551 C1544 1.409 . S
C1551 C1550 1.362 . S
H1552 C1558 0.930 . S
H1553 C1561 0.930 . S
H1554 C1562 0.930 . S
H1555 C1563 0.930 . S
H1556 C1566 0.930 . S
H1557 C1567 0.930 . S
C1558 H1552 0.930 . S
C1558 C1559 1.355 . S
C1558 C1560 1.415 . S
C1559 C1558 1.355 . S
C1559 C1561 1.419 . S
C1560 C1558 1.415 . S
C1560 C1565 1.425 . S
C1560 C1567 1.409 . S
C1561 H1553 0.930 . S
C1561 C1559 1.419 . S
C1561 C1562 1.362 . S
C1562 H1554 0.930 . S
C1562 C1561 1.362 . S
C1562 C1565 1.409 . S
C1563 H1555 0.930 . S
C1563 C1564 1.355 . S
C1563 C1565 1.415 . S
C1564 C1563 1.355 . S
C1564 C1566 1.419 . S
C1565 C1560 1.425 . S
C1565 C1562 1.409 . S
C1565 C1563 1.415 . S
C1566 H1556 0.930 . S
C1566 C1564 1.419 . S
C1566 C1567 1.362 . S
C1567 H1557 0.930 . S
C1567 C1560 1.409 . S
C1567 C1566 1.362 . S
H1568 C1574 0.930 . S
H1569 C1577 0.930 . S
H1570 C1578 0.930 . S
H1571 C1579 0.930 . S
H1572 C1582 0.930 . S
H1573 C1583 0.930 . S
C1574 H1568 0.930 . S
C1574 C1575 1.355 . S
C1574 C1576 1.415 . S
C1575 C1574 1.355 . S
C1575 C1577 1.419 . S
C1576 C1574 1.415 . S
C1576 C1581 1.425 . S
C1576 C1583 1.409 . S
C1577 H1569 0.930 . S
C1577 C1575 1.419 . S
C1577 C1578 1.362 . S
C1578 H1570 0.930 . S
C1578 C1577 1.362 . S
C1578 C1581 1.409 . S
C1579 H1571 0.930 . S
C1579 C1580 1.355 . S
C1579 C1581 1.415 . S
C1580 C1579 1.355 . S
C1580 C1582 1.419 . S
C1581 C1576 1.425 . S
C1581 C1578 1.409 . S
C1581 C1579 1.415 . S
C1582 H1572 0.930 . S
C1582 C1580 1.419 . S
C1582 C1583 1.362 . S
C1583 H1573 0.930 . S
C1583 C1576 1.409 . S
C1583 C1582 1.362 . S
H1584 C1590 0.930 . S
H1585 C1593 0.930 . S
H1586 C1594 0.930 . S
H1587 C1595 0.930 . S
H1588 C1598 0.930 . S
H1589 C1599 0.930 . S
C1590 H1584 0.930 . S
C1590 C1591 1.355 . S
C1590 C1592 1.415 1_655 S
C1591 C1590 1.355 . S
C1591 C1593 1.419 . S
C1592 C1590 1.415 1_455 S
C1592 C1597 1.425 . S
C1592 C1599 1.409 . S
C1593 H1585 0.930 . S
C1593 C1591 1.419 . S
C1593 C1594 1.362 . S
C1594 H1586 0.930 . S
C1594 C1593 1.362 . S
C1594 C1597 1.409 1_655 S
C1595 H1587 0.930 . S
C1595 C1596 1.355 . S
C1595 C1597 1.415 . S
C1596 C1595 1.355 . S
C1596 C1598 1.419 . S
C1597 C1592 1.425 . S
C1597 C1594 1.409 1_455 S
C1597 C1595 1.415 . S
C1598 H1588 0.930 . S
C1598 C1596 1.419 . S
C1598 C1599 1.362 . S
C1599 H1589 0.930 . S
C1599 C1592 1.409 . S
C1599 C1598 1.362 . S
H1600 C1606 0.930 . S
H1601 C1609 0.930 . S
H1602 C1610 0.930 . S
H1603 C1611 0.930 . S
H1604 C1614 0.930 . S
H1605 C1615 0.930 . S
C1606 H1600 0.930 . S
C1606 C1607 1.355 . S
C1606 C1608 1.415 . S
C1607 C1606 1.355 . S
C1607 C1609 1.419 . S
C1608 C1606 1.415 . S
C1608 C1613 1.425 . S
C1608 C1615 1.409 . S
C1609 H1601 0.930 . S
C1609 C1607 1.419 . S
C1609 C1610 1.362 . S
C1610 H1602 0.930 . S
C1610 C1609 1.362 . S
C1610 C1613 1.409 . S
C1611 H1603 0.930 . S
C1611 C1612 1.355 . S
C1611 C1613 1.415 . S
C1612 C1611 1.355 . S
C1612 C1614 1.419 . S
C1613 C1608 1.425 . S
C1613 C1610 1.409 . S
C1613 C1611 1.415 . S
C1614 H1604 0.930 . S
C1614 C1612 1.419 . S
C1614 C1615 1.362 . S
C1615 H1605 0.930 . S
C1615 C1608 1.409 . S
C1615 C1614 1.362 . S
H1616 C1622 0.930 . S
H1617 C1625 0.930 . S
H1618 C1626 0.930 . S
H1619 C1627 0.930 1_554 S
H1620 C1630 0.930 . S
H1621 C1631 0.930 . S
C1622 H1616 0.930 . S
C1622 C1623 1.355 . S
C1622 C1624 1.415 . S
C1623 C1622 1.355 . S
C1623 C1625 1.419 . S
C1624 C1622 1.415 . S
C1624 C1629 1.425 . S
C1624 C1631 1.409 1_554 S
C1625 H1617 0.930 . S
C1625 C1623 1.419 . S
C1625 C1626 1.362 . S
C1626 H1618 0.930 . S
C1626 C1625 1.362 . S
C1626 C1629 1.409 . S
C1627 H1619 0.930 1_556 S
C1627 C1628 1.355 . S
C1627 C1629 1.415 1_556 S
C1628 C1627 1.355 . S
C1628 C1630 1.419 . S
C1629 C1624 1.425 . S
C1629 C1626 1.409 . S
C1629 C1627 1.415 1_554 S
C1630 H1620 0.930 . S
C1630 C1628 1.419 . S
C1630 C1631 1.362 . S
C1631 H1621 0.930 . S
C1631 C1624 1.409 1_556 S
C1631 C1630 1.362 . S
H1632 C1638 0.930 . S
H1633 C1641 0.930 . S
H1634 C1642 0.930 . S
H1635 C1643 0.930 . S
H1636 C1646 0.930 . S
H1637 C1647 0.930 . S
C1638 H1632 0.930 . S
C1638 C1639 1.355 . S
C1638 C1640 1.415 . S
C1639 C1638 1.355 . S
C1639 C1641 1.419 . S
C1640 C1638 1.415 . S
C1640 C1645 1.425 . S
C1640 C1647 1.409 . S
C1641 H1633 0.930 . S
C1641 C1639 1.419 . S
C1641 C1642 1.362 . S
C1642 H1634 0.930 . S
C1642 C1641 1.362 . S
C1642 C1645 1.409 . S
C1643 H1635 0.930 . S
C1643 C1644 1.355 . S
C1643 C1645 1.415 . S
C1644 C1643 1.355 . S
C1644 C1646 1.419 . S
C1645 C1640 1.425 . S
C1645 C1642 1.409 . S
C1645 C1643 1.415 . S
C1646 H1636 0.930 . S
C1646 C1644 1.419 . S
C1646 C1647 1.362 . S
C1647 H1637 0.930 . S
C1647 C1640 1.409 . S
C1647 C1646 1.362 . S
H1648 C1654 0.930 . S
H1649 C1657 0.930 . S
H1650 C1658 0.930 . S
H1651 C1659 0.930 . S
H1652 C1662 0.930 . S
H1653 C1663 0.930 . S
C1654 H1648 0.930 . S
C1654 C1655 1.355 . S
C1654 C1656 1.415 . S
C1655 C1654 1.355 . S
C1655 C1657 1.419 . S
C1656 C1654 1.415 . S
C1656 C1661 1.425 . S
C1656 C1663 1.409 . S
C1657 H1649 0.930 . S
C1657 C1655 1.419 . S
C1657 C1658 1.362 . S
C1658 H1650 0.930 . S
C1658 C1657 1.362 . S
C1658 C1661 1.409 . S
C1659 H1651 0.930 . S
C1659 C1660 1.355 . S
C1659 C1661 1.415 . S
C1660 C1659 1.355 . S
C1660 C1662 1.419 . S
C1661 C1656 1.425 . S
C1661 C1658 1.409 . S
C1661 C1659 1.415 . S
C1662 H1652 0.930 . S
C1662 C1660 1.419 . S
C1662 C1663 1.362 . S
C1663 H1653 0.930 . S
C1663 C1656 1.409 . S
C1663 C1662 1.362 . S
H1664 C1670 0.930 . S
H1665 C1673 0.930 . S
H1666 C1674 0.930 . S
H1667 C1675 0.930 . S
H1668 C1678 0.930 . S
H1669 C1679 0.930 . S
C1670 H1664 0.930 . S
C1670 C1671 1.355 . S
C1670 C1672 1.415 . S
C1671 C1670 1.355 . S
C1671 C1673 1.419 . S
C1672 C1670 1.415 . S
C1672 C1677 1.425 . S
C1672 C1679 1.409 . S
C1673 H1665 0.930 . S
C1673 C1671 1.419 . S
C1673 C1674 1.362 . S
C1674 H1666 0.930 . S
C1674 C1673 1.362 . S
C1674 C1677 1.409 . S
C1675 H1667 0.930 . S
C1675 C1676 1.355 . S
C1675 C1677 1.415 . S
C1676 C1675 1.355 . S
C1676 C1678 1.419 . S
C1677 C1672 1.425 . S
C1677 C1674 1.409 . S
C1677 C1675 1.415 . S
C1678 H1668 0.930 . S
C1678 C1676 1.419 . S
C1678 C1679 1.362 . S
C1679 H1669 0.930 . S
C1679 C1672 1.409 . S
C1679 C1678 1.362 . S
H1680 C1686 0.930 . S
H1681 C1689 0.930 1_554 S
H1682 C1690 0.930 . S
H1683 C1691 0.930 . S
H1684 C1694 0.930 . S
H1685 C1695 0.930 . S
C1686 H1680 0.930 . S
C1686 C1687 1.355 . S
C1686 C1688 1.415 . S
C1687 C1686 1.355 . S
C1687 C1689 1.419 . S
C1688 C1686 1.415 . S
C1688 C1693 1.425 1_556 S
C1688 C1695 1.409 1_455 S
C1689 H1681 0.930 1_556 S
C1689 C1687 1.419 . S
C1689 C1690 1.362 1_556 S
C1690 H1682 0.930 . S
C1690 C1689 1.362 1_554 S
C1690 C1693 1.409 . S
C1691 H1683 0.930 . S
C1691 C1692 1.355 . S
C1691 C1693 1.415 1_655 S
C1692 C1691 1.355 . S
C1692 C1694 1.419 1_554 S
C1693 C1688 1.425 1_554 S
C1693 C1690 1.409 . S
C1693 C1691 1.415 1_455 S
C1694 H1684 0.930 . S
C1694 C1692 1.419 1_556 S
C1694 C1695 1.362 . S
C1695 H1685 0.930 . S
C1695 C1688 1.409 1_655 S
C1695 C1694 1.362 . S
H1696 C1702 0.930 . S
H1697 C1705 0.930 . S
H1698 C1706 0.930 . S
H1699 C1707 0.930 . S
H1700 C1710 0.930 . S
H1701 C1711 0.930 . S
C1702 H1696 0.930 . S
C1702 C1703 1.355 . S
C1702 C1704 1.415 . S
C1703 C1702 1.355 . S
C1703 C1705 1.419 . S
C1704 C1702 1.415 . S
C1704 C1709 1.425 . S
C1704 C1711 1.409 . S
C1705 H1697 0.930 . S
C1705 C1703 1.419 . S
C1705 C1706 1.362 . S
C1706 H1698 0.930 . S
C1706 C1705 1.362 . S
C1706 C1709 1.409 . S
C1707 H1699 0.930 . S
C1707 C1708 1.355 . S
C1707 C1709 1.415 . S
C1708 C1707 1.355 . S
C1708 C1710 1.419 . S
C1709 C1704 1.425 . S
C1709 C1706 1.409 . S
C1709 C1707 1.415 . S
C1710 H1700 0.930 . S
C1710 C1708 1.419 . S
C1710 C1711 1.362 . S
C1711 H1701 0.930 . S
C1711 C1704 1.409 . S
C1711 C1710 1.362 . S
H1712 C1718 0.930 . S
H1713 C1721 0.930 . S
H1714 C1722 0.930 . S
H1715 C1723 0.930 . S
H1716 C1726 0.930 . S
H1717 C1727 0.930 . S
C1718 H1712 0.930 . S
C1718 C1719 1.355 . S
C1718 C1720 1.415 1_455 S
C1719 C1718 1.355 . S
C1719 C1721 1.419 . S
C1720 C1718 1.415 1_655 S
C1720 C1725 1.425 . S
C1720 C1727 1.409 . S
C1721 H1713 0.930 . S
C1721 C1719 1.419 . S
C1721 C1722 1.362 . S
C1722 H1714 0.930 . S
C1722 C1721 1.362 . S
C1722 C1725 1.409 1_455 S
C1723 H1715 0.930 . S
C1723 C1724 1.355 . S
C1723 C1725 1.415 . S
C1724 C1723 1.355 . S
C1724 C1726 1.419 . S
C1725 C1720 1.425 . S
C1725 C1722 1.409 1_655 S
C1725 C1723 1.415 . S
C1726 H1716 0.930 . S
C1726 C1724 1.419 . S
C1726 C1727 1.362 . S
C1727 H1717 0.930 . S
C1727 C1720 1.409 . S
C1727 C1726 1.362 . S
H1728 C1734 0.930 . S
H1729 C1737 0.930 . S
H1730 C1738 0.930 . S
H1731 C1739 0.930 . S
H1732 C1742 0.930 . S
H1733 C1743 0.930 . S
C1734 H1728 0.930 . S
C1734 C1735 1.355 . S
C1734 C1736 1.415 . S
C1735 C1734 1.355 . S
C1735 C1737 1.419 . S
C1736 C1734 1.415 . S
C1736 C1741 1.425 . S
C1736 C1743 1.409 . S
C1737 H1729 0.930 . S
C1737 C1735 1.419 . S
C1737 C1738 1.362 . S
C1738 H1730 0.930 . S
C1738 C1737 1.362 . S
C1738 C1741 1.409 . S
C1739 H1731 0.930 . S
C1739 C1740 1.355 . S
C1739 C1741 1.415 . S
C1740 C1739 1.355 . S
C1740 C1742 1.419 . S
C1741 C1736 1.425 . S
C1741 C1738 1.409 . S
C1741 C1739 1.415 . S
C1742 H1732 0.930 . S
C1742 C1740 1.419 . S
C1742 C1743 1.362 . S
C1743 H1733 0.930 . S
C1743 C1736 1.409 . S
C1743 C1742 1.362 . S
H1744 C1750 0.930 . S
H1745 C1753 0.930 . S
H1746 C1754 0.930 . S
H1747 C1755 0.930 . S
H1748 C1758 0.930 1_554 S
H1749 C1759 0.930 . S
C1750 H1744 0.930 . S
C1750 C1751 1.355 . S
C1750 C1752 1.415 . S
C1751 C1750 1.355 . S
C1751 C1753 1.419 1_554 S
C1752 C1750 1.415 . S
C1752 C1757 1.425 1_554 S
C1752 C1759 1.409 . S
C1753 H1745 0.930 . S
C1753 C1751 1.419 1_556 S
C1753 C1754 1.362 . S
C1754 H1746 0.930 . S
C1754 C1753 1.362 . S
C1754 C1757 1.409 . S
C1755 H1747 0.930 . S
C1755 C1756 1.355 . S
C1755 C1757 1.415 . S
C1756 C1755 1.355 . S
C1756 C1758 1.419 . S
C1757 C1752 1.425 1_556 S
C1757 C1754 1.409 . S
C1757 C1755 1.415 . S
C1758 H1748 0.930 1_556 S
C1758 C1756 1.419 . S
C1758 C1759 1.362 1_556 S
C1759 H1749 0.930 . S
C1759 C1752 1.409 . S
C1759 C1758 1.362 1_554 S
H1760 C1766 0.930 . S
H1761 C1769 0.930 . S
H1762 C1770 0.930 . S
H1763 C1771 0.930 . S
H1764 C1774 0.930 . S
H1765 C1775 0.930 . S
C1766 H1760 0.930 . S
C1766 C1767 1.355 . S
C1766 C1768 1.415 . S
C1767 C1766 1.355 . S
C1767 C1769 1.419 . S
C1768 C1766 1.415 . S
C1768 C1773 1.425 . S
C1768 C1775 1.409 . S
C1769 H1761 0.930 . S
C1769 C1767 1.419 . S
C1769 C1770 1.362 . S
C1770 H1762 0.930 . S
C1770 C1769 1.362 . S
C1770 C1773 1.409 . S
C1771 H1763 0.930 . S
C1771 C1772 1.355 . S
C1771 C1773 1.415 . S
C1772 C1771 1.355 . S
C1772 C1774 1.419 . S
C1773 C1768 1.425 . S
C1773 C1770 1.409 . S
C1773 C1771 1.415 . S
C1774 H1764 0.930 . S
C1774 C1772 1.419 . S
C1774 C1775 1.362 . S
C1775 H1765 0.930 . S
C1775 C1768 1.409 . S
C1775 C1774 1.362 . S
H1776 C1782 0.930 . S
H1777 C1785 0.930 . S
H1778 C1786 0.930 . S
H1779 C1787 0.930 . S
H1780 C1790 0.930 . S
H1781 C1791 0.930 . S
C1782 H1776 0.930 . S
C1782 C1783 1.355 . S
C1782 C1784 1.415 . S
C1783 C1782 1.355 . S
C1783 C1785 1.419 . S
C1784 C1782 1.415 . S
C1784 C1789 1.425 . S
C1784 C1791 1.409 . S
C1785 H1777 0.930 . S
C1785 C1783 1.419 . S
C1785 C1786 1.362 . S
C1786 H1778 0.930 . S
C1786 C1785 1.362 . S
C1786 C1789 1.409 . S
C1787 H1779 0.930 . S
C1787 C1788 1.355 . S
C1787 C1789 1.415 . S
C1788 C1787 1.355 . S
C1788 C1790 1.419 . S
C1789 C1784 1.425 . S
C1789 C1786 1.409 . S
C1789 C1787 1.415 . S
C1790 H1780 0.930 . S
C1790 C1788 1.419 . S
C1790 C1791 1.362 . S
C1791 H1781 0.930 . S
C1791 C1784 1.409 . S
C1791 C1790 1.362 . S
H1792 C1798 0.930 . S
H1793 C1801 0.930 . S
H1794 C1802 0.930 . S
H1795 C1803 0.930 . S
H1796 C1806 0.930 . S
H1797 C1807 0.930 . S
C1798 H1792 0.930 . S
C1798 C1799 1.355 . S
C1798 C1800 1.415 . S
C1799 C1798 1.355 . S
C1799 C1801 1.419 . S
C1800 C1798 1.415 . S
C1800 C1805 1.425 . S
C1800 C1807 1.409 . S
C1801 H1793 0.930 . S
C1801 C1799 1.419 . S
C1801 C1802 1.362 . S
C1802 H1794 0.930 . S
C1802 C1801 1.362 . S
C1802 C1805 1.409 . S
C1803 H1795 0.930 . S
C1803 C1804 1.355 . S
C1803 C1805 1.415 . S
C1804 C1803 1.355 . S
C1804 C1806 1.419 . S
C1805 C1800 1.425 . S
C1805 C1802 1.409 . S
C1805 C1803 1.415 . S
C1806 H1796 0.930 . S
C1806 C1804 1.419 . S
C1806 C1807 1.362 . S
C1807 H1797 0.930 . S
C1807 C1800 1.409 . S
C1807 C1806 1.362 . S
H1808 C1814 0.930 . S
H1809 C1817 0.930 . S
H1810 C1818 0.930 . S
H1811 C1819 0.930 1_556 S
H1812 C1822 0.930 . S
H1813 C1823 0.900 1_455 S
C1814 H1808 0.930 . S
C1814 C1815 1.355 1_554 S
C1814 C1816 1.415 . S
C1815 C1814 1.355 1_556 S
C1815 C1817 1.419 . S
C1816 C1814 1.415 . S
C1816 C1821 1.425 1_454 S
C1816 C1823 1.402 1_455 S
C1817 H1809 0.930 . S
C1817 C1815 1.419 . S
C1817 C1818 1.362 1_455 S
C1818 H1810 0.930 . S
C1818 C1817 1.362 1_655 S
C1818 C1821 1.409 . S
C1819 H1811 0.930 1_554 S
C1819 C1820 1.355 . S
C1819 C1821 1.415 1_554 S
C1820 C1819 1.355 . S
C1820 C1822 1.419 . S
C1821 C1816 1.425 1_656 S
C1821 C1818 1.409 . S
C1821 C1819 1.415 1_556 S
C1822 H1812 0.930 . S
C1822 C1820 1.419 . S
C1822 C1823 1.400 . S
C1823 H1813 0.900 1_655 S
C1823 C1816 1.402 1_655 S
C1823 C1822 1.400 . S
H1824 C1830 0.930 . S
H1825 C1833 0.930 . S
H1826 C1834 0.930 . S
H1827 C1835 0.930 . S
H1828 C1838 0.930 . S
H1829 C1839 0.930 . S
C1830 H1824 0.930 . S
C1830 C1831 1.355 . S
C1830 C1832 1.415 . S
C1831 C1830 1.355 . S
C1831 C1833 1.419 . S
C1832 C1830 1.415 . S
C1832 C1837 1.425 . S
C1832 C1839 1.409 . S
C1833 H1825 0.930 . S
C1833 C1831 1.419 . S
C1833 C1834 1.362 . S
C1834 H1826 0.930 . S
C1834 C1833 1.362 . S
C1834 C1837 1.409 . S
C1835 H1827 0.930 . S
C1835 C1836 1.355 . S
C1835 C1837 1.415 . S
C1836 C1835 1.355 . S
C1836 C1838 1.419 . S
C1837 C1832 1.425 . S
C1837 C1834 1.409 . S
C1837 C1835 1.415 . S
C1838 H1828 0.930 . S
C1838 C1836 1.419 . S
C1838 C1839 1.362 . S
C1839 H1829 0.930 . S
C1839 C1832 1.409 . S
C1839 C1838 1.362 . S
H1840 C1846 0.930 . S
H1841 C1849 0.930 1_556 S
H1842 C1850 0.930 . S
H1843 C1851 0.930 . S
H1844 C1854 0.930 . S
H1845 C1855 0.930 . S
C1846 H1840 0.930 . S
C1846 C1847 1.355 . S
C1846 C1848 1.415 . S
C1847 C1846 1.355 . S
C1847 C1849 1.419 . S
C1848 C1846 1.415 . S
C1848 C1853 1.425 1_554 S
C1848 C1855 1.409 . S
C1849 H1841 0.930 1_554 S
C1849 C1847 1.419 . S
C1849 C1850 1.362 1_554 S
C1850 H1842 0.930 . S
C1850 C1849 1.362 1_556 S
C1850 C1853 1.409 . S
C1851 H1843 0.930 . S
C1851 C1852 1.355 . S
C1851 C1853 1.415 . S
C1852 C1851 1.355 . S
C1852 C1854 1.419 1_556 S
C1853 C1848 1.425 1_556 S
C1853 C1850 1.409 . S
C1853 C1851 1.415 . S
C1854 H1844 0.930 . S
C1854 C1852 1.419 1_554 S
C1854 C1855 1.362 . S
C1855 H1845 0.930 . S
C1855 C1848 1.409 . S
C1855 C1854 1.362 . S
H1856 C1862 0.930 . S
H1857 C1865 0.930 . S
H1858 C1866 0.930 . S
H1859 C1867 0.930 . S
H1860 C1870 0.930 . S
H1861 C1871 0.930 . S
C1862 H1856 0.930 . S
C1862 C1863 1.355 . S
C1862 C1864 1.415 . S
C1863 C1862 1.355 . S
C1863 C1865 1.419 . S
C1864 C1862 1.415 . S
C1864 C1869 1.425 . S
C1864 C1871 1.409 . S
C1865 H1857 0.930 . S
C1865 C1863 1.419 . S
C1865 C1866 1.362 . S
C1866 H1858 0.930 . S
C1866 C1865 1.362 . S
C1866 C1869 1.409 . S
C1867 H1859 0.930 . S
C1867 C1868 1.355 . S
C1867 C1869 1.415 . S
C1868 C1867 1.355 . S
C1868 C1870 1.419 . S
C1869 C1864 1.425 . S
C1869 C1866 1.409 . S
C1869 C1867 1.415 . S
C1870 H1860 0.930 . S
C1870 C1868 1.419 . S
C1870 C1871 1.362 . S
C1871 H1861 0.930 . S
C1871 C1864 1.409 . S
C1871 C1870 1.362 . S
H1872 C1878 0.930 . S
H1873 C1881 0.930 . S
H1874 C1882 0.930 . S
H1875 C1883 0.930 . S
H1876 C1886 0.930 . S
H1877 C1887 0.930 . S
C1878 H1872 0.930 . S
C1878 C1879 1.355 . S
C1878 C1880 1.415 . S
C1879 C1878 1.355 . S
C1879 C1881 1.419 . S
C1880 C1878 1.415 . S
C1880 C1885 1.425 . S
C1880 C1887 1.409 1_655 S
C1881 H1873 0.930 . S
C1881 C1879 1.419 . S
C1881 C1882 1.362 . S
C1882 H1874 0.930 . S
C1882 C1881 1.362 . S
C1882 C1885 1.409 . S
C1883 H1875 0.930 . S
C1883 C1884 1.355 . S
C1883 C1885 1.415 1_455 S
C1884 C1883 1.355 . S
C1884 C1886 1.419 . S
C1885 C1880 1.425 . S
C1885 C1882 1.409 . S
C1885 C1883 1.415 1_655 S
C1886 H1876 0.930 . S
C1886 C1884 1.419 . S
C1886 C1887 1.362 . S
C1887 H1877 0.930 . S
C1887 C1880 1.409 1_455 S
C1887 C1886 1.362 . S
H1888 C1894 0.930 . S
H1889 C1897 0.930 . S
H1890 C1898 0.930 . S
H1891 C1899 0.930 . S
H1892 C1902 0.930 . S
H1893 C1903 0.930 . S
C1894 H1888 0.930 . S
C1894 C1895 1.355 . S
C1894 C1896 1.415 . S
C1895 C1894 1.355 . S
C1895 C1897 1.419 . S
C1896 C1894 1.415 . S
C1896 C1901 1.425 . S
C1896 C1903 1.409 . S
C1897 H1889 0.930 . S
C1897 C1895 1.419 . S
C1897 C1898 1.362 . S
C1898 H1890 0.930 . S
C1898 C1897 1.362 . S
C1898 C1901 1.409 . S
C1899 H1891 0.930 . S
C1899 C1900 1.355 . S
C1899 C1901 1.415 . S
C1900 C1899 1.355 . S
C1900 C1902 1.419 . S
C1901 C1896 1.425 . S
C1901 C1898 1.409 . S
C1901 C1899 1.415 . S
C1902 H1892 0.930 . S
C1902 C1900 1.419 . S
C1902 C1903 1.362 . S
C1903 H1893 0.930 . S
C1903 C1896 1.409 . S
C1903 C1902 1.362 . S
H1904 C1910 0.930 . S
H1905 C1913 0.930 . S
H1906 C1914 0.930 . S
H1907 C1915 0.930 . S
H1908 C1918 0.930 . S
H1909 C1919 0.930 1_556 S
C1910 H1904 0.930 . S
C1910 C1911 1.355 . S
C1910 C1912 1.415 . S
C1911 C1910 1.355 . S
C1911 C1913 1.419 . S
C1912 C1910 1.415 . S
C1912 C1917 1.423 1_655 S
C1912 C1919 1.409 1_556 S
C1913 H1905 0.930 . S
C1913 C1911 1.419 . S
C1913 C1914 1.362 . S
C1914 H1906 0.930 . S
C1914 C1913 1.362 . S
C1914 C1917 1.407 1_655 S
C1915 H1907 0.930 . S
C1915 C1916 1.355 . S
C1915 C1917 1.419 1_554 S
C1916 C1915 1.355 . S
C1916 C1918 1.419 . S
C1917 C1912 1.423 1_455 S
C1917 C1914 1.407 1_455 S
C1917 C1915 1.419 1_556 S
C1918 H1908 0.930 . S
C1918 C1916 1.419 . S
C1918 C1919 1.362 1_455 S
C1919 H1909 0.930 1_554 S
C1919 C1912 1.409 1_554 S
C1919 C1918 1.362 1_655 S
H1920 C1926 0.930 . S
H1921 C1929 0.930 . S
H1922 C1930 0.930 . S
H1923 C1931 0.930 . S
H1924 C1934 0.930 . S
H1925 C1935 0.930 . S
C1926 H1920 0.930 . S
C1926 C1927 1.355 . S
C1926 C1928 1.415 . S
C1927 C1926 1.355 . S
C1927 C1929 1.419 . S
C1928 C1926 1.415 . S
C1928 C1933 1.425 . S
C1928 C1935 1.409 . S
C1929 H1921 0.930 . S
C1929 C1927 1.419 . S
C1929 C1930 1.362 . S
C1930 H1922 0.930 . S
C1930 C1929 1.362 . S
C1930 C1933 1.409 . S
C1931 H1923 0.930 . S
C1931 C1932 1.355 . S
C1931 C1933 1.415 . S
C1932 C1931 1.355 . S
C1932 C1934 1.419 . S
C1933 C1928 1.425 . S
C1933 C1930 1.409 . S
C1933 C1931 1.415 . S
C1934 H1924 0.930 . S
C1934 C1932 1.419 . S
C1934 C1935 1.362 . S
C1935 H1925 0.930 . S
C1935 C1928 1.409 . S
C1935 C1934 1.362 . S
H1936 C1942 0.930 . S
H1937 C1945 0.930 . S
H1938 C1946 0.930 . S
H1939 C1947 0.930 . S
H1940 C1950 0.930 . S
H1941 C1951 0.930 . S
C1942 H1936 0.930 . S
C1942 C1943 1.355 . S
C1942 C1944 1.415 . S
C1943 C1942 1.355 . S
C1943 C1945 1.419 . S
C1944 C1942 1.415 . S
C1944 C1949 1.425 . S
C1944 C1951 1.409 . S
C1945 H1937 0.930 . S
C1945 C1943 1.419 . S
C1945 C1946 1.362 . S
C1946 H1938 0.930 . S
C1946 C1945 1.362 . S
C1946 C1949 1.409 . S
C1947 H1939 0.930 . S
C1947 C1948 1.355 . S
C1947 C1949 1.415 . S
C1948 C1947 1.355 . S
C1948 C1950 1.419 . S
C1949 C1944 1.425 . S
C1949 C1946 1.409 . S
C1949 C1947 1.415 . S
C1950 H1940 0.930 . S
C1950 C1948 1.419 . S
C1950 C1951 1.362 . S
C1951 H1941 0.930 . S
C1951 C1944 1.409 . S
C1951 C1950 1.362 . S
H1952 C1958 0.930 . S
H1953 C1961 0.930 . S
H1954 C1962 0.930 . S
H1955 C1963 0.930 . S
H1956 C1966 0.930 . S
H1957 C1967 0.930 . S
C1958 H1952 0.930 . S
C1958 C1959 1.355 . S
C1958 C1960 1.415 . S
C1959 C1958 1.355 . S
C1959 C1961 1.419 . S
C1960 C1958 1.415 . S
C1960 C1965 1.425 . S
C1960 C1967 1.409 . S
C1961 H1953 0.930 . S
C1961 C1959 1.419 . S
C1961 C1962 1.362 . S
C1962 H1954 0.930 . S
C1962 C1961 1.362 . S
C1962 C1965 1.409 . S
C1963 H1955 0.930 . S
C1963 C1964 1.355 . S
C1963 C1965 1.415 . S
C1964 C1963 1.355 . S
C1964 C1966 1.419 . S
C1965 C1960 1.425 . S
C1965 C1962 1.409 . S
C1965 C1963 1.415 . S
C1966 H1956 0.930 . S
C1966 C1964 1.419 . S
C1966 C1967 1.362 . S
C1967 H1957 0.930 . S
C1967 C1960 1.409 . S
C1967 C1966 1.362 . S
H1968 C1974 0.934 . S
H1969 C1977 0.930 . S
H1970 C1978 0.930 . S
H1971 C1979 0.934 . S
H1972 C1982 0.930 . S
H1973 C1983 0.930 . S
C1974 H1968 0.934 . S
C1974 C1975 1.355 . S
C1974 C1976 1.415 1_556 S
C1975 C1974 1.355 . S
C1975 C1977 1.419 . S
C1976 C1974 1.415 1_554 S
C1976 C1981 1.425 1_554 S
C1976 C1983 1.409 . S
C1977 H1969 0.930 . S
C1977 C1975 1.419 . S
C1977 C1978 1.362 . S
C1978 H1970 0.930 . S
C1978 C1977 1.362 . S
C1978 C1981 1.409 . S
C1979 H1971 0.934 . S
C1979 C1980 1.347 1_556 S
C1979 C1981 1.418 . S
C1980 C1979 1.347 1_554 S
C1980 C1982 1.419 . S
C1981 C1976 1.425 1_556 S
C1981 C1978 1.409 . S
C1981 C1979 1.418 . S
C1982 H1972 0.930 . S
C1982 C1980 1.419 . S
C1982 C1983 1.362 . S
C1983 H1973 0.930 . S
C1983 C1976 1.409 . S
C1983 C1982 1.362 . S
H1984 C1990 0.930 . S
H1985 C1993 0.930 . S
H1986 C1994 0.930 . S
H1987 C1995 0.930 . S
H1988 C1998 0.930 . S
H1989 C1999 0.930 . S
C1990 H1984 0.930 . S
C1990 C1991 1.355 . S
C1990 C1992 1.415 . S
C1991 C1990 1.355 . S
C1991 C1993 1.419 . S
C1992 C1990 1.415 . S
C1992 C1997 1.425 . S
C1992 C1999 1.409 . S
C1993 H1985 0.930 . S
C1993 C1991 1.419 . S
C1993 C1994 1.362 . S
C1994 H1986 0.930 . S
C1994 C1993 1.362 . S
C1994 C1997 1.409 . S
C1995 H1987 0.930 . S
C1995 C1996 1.355 . S
C1995 C1997 1.415 . S
C1996 C1995 1.355 . S
C1996 C1998 1.419 . S
C1997 C1992 1.425 . S
C1997 C1994 1.409 . S
C1997 C1995 1.415 . S
C1998 H1988 0.930 . S
C1998 C1996 1.419 . S
C1998 C1999 1.362 . S
C1999 H1989 0.930 . S
C1999 C1992 1.409 . S
C1999 C1998 1.362 . S
H2000 C2006 0.930 . S
H2001 C2009 0.930 . S
H2002 C2010 0.930 . S
H2003 C2011 0.930 . S
H2004 C2014 0.930 . S
H2005 C2015 0.992 . S
C2006 H2000 0.930 . S
C2006 C2007 1.355 . S
C2006 C2008 1.415 . S
C2007 C2006 1.355 . S
C2007 C2009 1.419 . S
C2008 C2006 1.415 . S
C2008 C2013 1.425 1_655 S
C2008 C2015 1.421 . S
C2009 H2001 0.930 . S
C2009 C2007 1.419 . S
C2009 C2010 1.362 1_655 S
C2010 H2002 0.930 . S
C2010 C2009 1.362 1_455 S
C2010 C2013 1.409 . S
C2011 H2003 0.930 . S
C2011 C2012 1.355 . S
C2011 C2013 1.415 . S
C2012 C2011 1.355 . S
C2012 C2014 1.419 . S
C2013 C2008 1.425 1_455 S
C2013 C2010 1.409 . S
C2013 C2011 1.415 . S
C2014 H2004 0.930 . S
C2014 C2012 1.419 . S
C2014 C2015 1.293 1_455 S
C2015 H2005 0.992 . S
C2015 C2008 1.421 . S
C2015 C2014 1.293 1_655 S
H2016 C2022 0.930 . S
H2017 C2025 0.930 . S
H2018 C2026 0.930 . S
H2019 C2027 0.930 . S
H2020 C2030 0.930 . S
H2021 C2031 0.930 . S
C2022 H2016 0.930 . S
C2022 C2023 1.355 . S
C2022 C2024 1.415 . S
C2023 C2022 1.355 . S
C2023 C2025 1.419 . S
C2024 C2022 1.415 . S
C2024 C2029 1.425 . S
C2024 C2031 1.409 . S
C2025 H2017 0.930 . S
C2025 C2023 1.419 . S
C2025 C2026 1.362 . S
C2026 H2018 0.930 . S
C2026 C2025 1.362 . S
C2026 C2029 1.409 . S
C2027 H2019 0.930 . S
C2027 C2028 1.355 . S
C2027 C2029 1.415 . S
C2028 C2027 1.355 . S
C2028 C2030 1.419 . S
C2029 C2024 1.425 . S
C2029 C2026 1.409 . S
C2029 C2027 1.415 . S
C2030 H2020 0.930 . S
C2030 C2028 1.419 . S
C2030 C2031 1.362 . S
C2031 H2021 0.930 . S
C2031 C2024 1.409 . S
C2031 C2030 1.362 . S
H2032 C2038 0.930 1_556 S
H2033 C2041 0.930 . S
H2034 C2042 0.941 . S
H2035 C2043 0.930 . S
H2036 C2046 0.930 . S
H2037 C2047 0.930 . S
C2038 H2032 0.930 1_554 S
C2038 C2039 1.355 . S
C2038 C2040 1.415 1_554 S
C2039 C2038 1.355 . S
C2039 C2041 1.419 . S
C2040 C2038 1.415 1_556 S
C2040 C2045 1.425 1_456 S
C2040 C2047 1.409 . S
C2041 H2033 0.930 . S
C2041 C2039 1.419 . S
C2041 C2042 1.350 1_455 S
C2042 H2034 0.941 . S
C2042 C2041 1.350 1_655 S
C2042 C2045 1.411 . S
C2043 H2035 0.930 . S
C2043 C2044 1.355 1_554 S
C2043 C2045 1.415 . S
C2044 C2043 1.355 1_556 S
C2044 C2046 1.419 . S
C2045 C2040 1.425 1_654 S
C2045 C2042 1.411 . S
C2045 C2043 1.415 . S
C2046 H2036 0.930 . S
C2046 C2044 1.419 . S
C2046 C2047 1.362 1_655 S
C2047 H2037 0.930 . S
C2047 C2040 1.409 . S
C2047 C2046 1.362 1_455 S
H2048 C2054 0.930 . S
H2049 C2057 0.930 . S
H2050 C2058 0.930 . S
H2051 C2059 0.930 . S
H2052 C2062 0.930 . S
H2053 C2063 0.930 . S
C2054 H2048 0.930 . S
C2054 C2055 1.355 . S
C2054 C2056 1.415 . S
C2055 C2054 1.355 . S
C2055 C2057 1.419 . S
C2056 C2054 1.415 . S
C2056 C2061 1.425 . S
C2056 C2063 1.409 . S
C2057 H2049 0.930 . S
C2057 C2055 1.419 . S
C2057 C2058 1.362 . S
C2058 H2050 0.930 . S
C2058 C2057 1.362 . S
C2058 C2061 1.409 . S
C2059 H2051 0.930 . S
C2059 C2060 1.355 . S
C2059 C2061 1.415 . S
C2060 C2059 1.355 . S
C2060 C2062 1.419 . S
C2061 C2056 1.425 . S
C2061 C2058 1.409 . S
C2061 C2059 1.415 . S
C2062 H2052 0.930 . S
C2062 C2060 1.419 . S
C2062 C2063 1.362 . S
C2063 H2053 0.930 . S
C2063 C2056 1.409 . S
C2063 C2062 1.362 . S
H2064 C2070 0.930 . S
H2065 C2073 0.930 . S
H2066 C2074 0.930 . S
H2067 C2075 0.930 . S
H2068 C2078 0.930 . S
H2069 C2079 0.930 . S
C2070 H2064 0.930 . S
C2070 C2071 1.355 . S
C2070 C2072 1.415 . S
C2071 C2070 1.355 . S
C2071 C2073 1.419 . S
C2072 C2070 1.415 . S
C2072 C2077 1.425 . S
C2072 C2079 1.409 . S
C2073 H2065 0.930 . S
C2073 C2071 1.419 . S
C2073 C2074 1.362 . S
C2074 H2066 0.930 . S
C2074 C2073 1.362 . S
C2074 C2077 1.409 . S
C2075 H2067 0.930 . S
C2075 C2076 1.355 . S
C2075 C2077 1.415 . S
C2076 C2075 1.355 . S
C2076 C2078 1.419 . S
C2077 C2072 1.425 . S
C2077 C2074 1.409 . S
C2077 C2075 1.415 . S
C2078 H2068 0.930 . S
C2078 C2076 1.419 . S
C2078 C2079 1.362 . S
C2079 H2069 0.930 . S
C2079 C2072 1.409 . S
C2079 C2078 1.362 . S
H2080 C2086 0.930 . S
H2081 C2089 0.930 . S
H2082 C2090 0.930 . S
H2083 C2091 0.930 1_556 S
H2084 C2094 0.930 . S
H2085 C2095 0.930 . S
C2086 H2080 0.930 . S
C2086 C2087 1.355 . S
C2086 C2088 1.415 . S
C2087 C2086 1.355 . S
C2087 C2089 1.419 . S
C2088 C2086 1.415 . S
C2088 C2093 1.425 . S
C2088 C2095 1.409 . S
C2089 H2081 0.930 . S
C2089 C2087 1.419 . S
C2089 C2090 1.362 . S
C2090 H2082 0.930 . S
C2090 C2089 1.362 . S
C2090 C2093 1.409 . S
C2091 H2083 0.930 1_554 S
C2091 C2092 1.355 . S
C2091 C2093 1.415 . S
C2092 C2091 1.355 . S
C2092 C2094 1.419 . S
C2093 C2088 1.425 . S
C2093 C2090 1.409 . S
C2093 C2091 1.415 . S
C2094 H2084 0.930 . S
C2094 C2092 1.419 . S
C2094 C2095 1.362 . S
C2095 H2085 0.930 . S
C2095 C2088 1.409 . S
C2095 C2094 1.362 . S
H2096 C2102 0.930 . S
H2097 C2105 0.930 . S
H2098 C2106 0.930 . S
H2099 C2107 0.930 . S
H2100 C2110 0.930 . S
H2101 C2111 0.930 . S
C2102 H2096 0.930 . S
C2102 C2103 1.355 . S
C2102 C2104 1.415 . S
C2103 C2102 1.355 . S
C2103 C2105 1.419 . S
C2104 C2102 1.415 . S
C2104 C2109 1.425 . S
C2104 C2111 1.409 . S
C2105 H2097 0.930 . S
C2105 C2103 1.419 . S
C2105 C2106 1.362 . S
C2106 H2098 0.930 . S
C2106 C2105 1.362 . S
C2106 C2109 1.409 . S
C2107 H2099 0.930 . S
C2107 C2108 1.355 . S
C2107 C2109 1.415 . S
C2108 C2107 1.355 . S
C2108 C2110 1.419 . S
C2109 C2104 1.425 . S
C2109 C2106 1.409 . S
C2109 C2107 1.415 . S
C2110 H2100 0.930 . S
C2110 C2108 1.419 . S
C2110 C2111 1.362 . S
C2111 H2101 0.930 . S
C2111 C2104 1.409 . S
C2111 C2110 1.362 . S
H2112 C2118 0.930 . S
H2113 C2121 0.930 . S
H2114 C2122 0.930 . S
H2115 C2123 0.930 . S
H2116 C2126 0.930 . S
H2117 C2127 0.930 . S
C2118 H2112 0.930 . S
C2118 C2119 1.355 . S
C2118 C2120 1.415 . S
C2119 C2118 1.355 . S
C2119 C2121 1.419 . S
C2120 C2118 1.415 . S
C2120 C2125 1.425 . S
C2120 C2127 1.409 . S
C2121 H2113 0.930 . S
C2121 C2119 1.419 . S
C2121 C2122 1.362 . S
C2122 H2114 0.930 . S
C2122 C2121 1.362 . S
C2122 C2125 1.409 . S
C2123 H2115 0.930 . S
C2123 C2124 1.355 . S
C2123 C2125 1.415 . S
C2124 C2123 1.355 . S
C2124 C2126 1.419 . S
C2125 C2120 1.425 . S
C2125 C2122 1.409 . S
C2125 C2123 1.415 . S
C2126 H2116 0.930 . S
C2126 C2124 1.419 . S
C2126 C2127 1.362 . S
C2127 H2117 0.930 . S
C2127 C2120 1.409 . S
C2127 C2126 1.362 . S
H2128 C2134 0.930 . S
H2129 C2137 0.929 1_554 S
H2130 C2138 0.930 . S
H2131 C2139 0.930 . S
H2132 C2142 0.930 . S
H2133 C2143 0.930 . S
C2134 H2128 0.930 . S
C2134 C2135 1.355 . S
C2134 C2136 1.415 . S
C2135 C2134 1.355 . S
C2135 C2137 1.419 . S
C2136 C2134 1.415 . S
C2136 C2141 1.425 . S
C2136 C2143 1.409 . S
C2137 H2129 0.929 1_556 S
C2137 C2135 1.419 . S
C2137 C2138 1.362 . S
C2138 H2130 0.930 . S
C2138 C2137 1.362 . S
C2138 C2141 1.409 . S
C2139 H2131 0.930 . S
C2139 C2140 1.355 . S
C2139 C2141 1.415 . S
C2140 C2139 1.355 . S
C2140 C2142 1.419 . S
C2141 C2136 1.425 . S
C2141 C2138 1.409 . S
C2141 C2139 1.415 . S
C2142 H2132 0.930 . S
C2142 C2140 1.419 . S
C2142 C2143 1.362 . S
C2143 H2133 0.930 . S
C2143 C2136 1.409 . S
C2143 C2142 1.362 . S
H2144 C2150 0.930 1_554 S
H2145 C2153 0.930 . S
H2146 C2154 0.930 . S
H2147 C2155 0.930 . S
H2148 C2158 0.930 . S
H2149 C2159 0.930 . S
C2150 H2144 0.930 1_556 S
C2150 C2151 1.355 . S
C2150 C2152 1.415 . S
C2151 C2150 1.355 . S
C2151 C2153 1.419 . S
C2152 C2150 1.415 . S
C2152 C2157 1.425 . S
C2152 C2159 1.409 . S
C2153 H2145 0.930 . S
C2153 C2151 1.419 . S
C2153 C2154 1.362 . S
C2154 H2146 0.930 . S
C2154 C2153 1.362 . S
C2154 C2157 1.409 . S
C2155 H2147 0.930 . S
C2155 C2156 1.355 . S
C2155 C2157 1.415 . S
C2156 C2155 1.355 . S
C2156 C2158 1.419 . S
C2157 C2152 1.425 . S
C2157 C2154 1.409 . S
C2157 C2155 1.415 . S
C2158 H2148 0.930 . S
C2158 C2156 1.419 . S
C2158 C2159 1.362 . S
C2159 H2149 0.930 . S
C2159 C2152 1.409 . S
C2159 C2158 1.362 . S
H2160 C2166 0.930 . S
H2161 C2169 0.930 . S
H2162 C2170 0.930 . S
H2163 C2171 0.930 . S
H2164 C2174 0.930 . S
H2165 C2175 0.930 . S
C2166 H2160 0.930 . S
C2166 C2167 1.355 . S
C2166 C2168 1.415 . S
C2167 C2166 1.355 . S
C2167 C2169 1.419 . S
C2168 C2166 1.415 . S
C2168 C2173 1.425 . S
C2168 C2175 1.409 . S
C2169 H2161 0.930 . S
C2169 C2167 1.419 . S
C2169 C2170 1.362 . S
C2170 H2162 0.930 . S
C2170 C2169 1.362 . S
C2170 C2173 1.409 . S
C2171 H2163 0.930 . S
C2171 C2172 1.355 . S
C2171 C2173 1.415 . S
C2172 C2171 1.355 . S
C2172 C2174 1.419 . S
C2173 C2168 1.425 . S
C2173 C2170 1.409 . S
C2173 C2171 1.415 . S
C2174 H2164 0.930 . S
C2174 C2172 1.419 . S
C2174 C2175 1.362 . S
C2175 H2165 0.930 . S
C2175 C2168 1.409 . S
C2175 C2174 1.362 . S
H2176 C2182 0.930 . S
H2177 C2185 0.930 . S
H2178 C2186 0.930 . S
H2179 C2187 0.930 . S
H2180 C2190 0.930 . S
H2181 C2191 0.930 . S
C2182 H2176 0.930 . S
C2182 C2183 1.355 . S
C2182 C2184 1.415 . S
C2183 C2182 1.355 . S
C2183 C2185 1.419 . S
C2184 C2182 1.415 . S
C2184 C2189 1.425 . S
C2184 C2191 1.409 . S
C2185 H2177 0.930 . S
C2185 C2183 1.419 . S
C2185 C2186 1.362 . S
C2186 H2178 0.930 . S
C2186 C2185 1.362 . S
C2186 C2189 1.409 . S
C2187 H2179 0.930 . S
C2187 C2188 1.355 . S
C2187 C2189 1.415 . S
C2188 C2187 1.355 . S
C2188 C2190 1.419 . S
C2189 C2184 1.425 . S
C2189 C2186 1.409 . S
C2189 C2187 1.415 . S
C2190 H2180 0.930 . S
C2190 C2188 1.419 . S
C2190 C2191 1.362 . S
C2191 H2181 0.930 . S
C2191 C2184 1.409 . S
C2191 C2190 1.362 . S
H2192 C2198 0.930 . S
H2193 C2201 0.930 . S
H2194 C2202 0.930 . S
H2195 C2203 0.930 . S
H2196 C2206 0.930 . S
H2197 C2207 0.930 . S
C2198 H2192 0.930 . S
C2198 C2199 1.355 . S
C2198 C2200 1.415 . S
C2199 C2198 1.355 . S
C2199 C2201 1.419 . S
C2200 C2198 1.415 . S
C2200 C2205 1.425 . S
C2200 C2207 1.409 . S
C2201 H2193 0.930 . S
C2201 C2199 1.419 . S
C2201 C2202 1.362 . S
C2202 H2194 0.930 . S
C2202 C2201 1.362 . S
C2202 C2205 1.409 . S
C2203 H2195 0.930 . S
C2203 C2204 1.355 . S
C2203 C2205 1.415 . S
C2204 C2203 1.355 . S
C2204 C2206 1.419 1_554 S
C2205 C2200 1.425 . S
C2205 C2202 1.409 . S
C2205 C2203 1.415 . S
C2206 H2196 0.930 . S
C2206 C2204 1.419 1_556 S
C2206 C2207 1.362 1_556 S
C2207 H2197 0.930 . S
C2207 C2200 1.409 . S
C2207 C2206 1.362 1_554 S
H2208 C2214 0.930 . S
H2209 C2217 0.930 . S
H2210 C2218 0.930 . S
H2211 C2219 0.930 . S
H2212 C2222 0.930 . S
H2213 C2223 0.930 . S
C2214 H2208 0.930 . S
C2214 C2215 1.355 . S
C2214 C2216 1.415 . S
C2215 C2214 1.355 . S
C2215 C2217 1.419 . S
C2216 C2214 1.415 . S
C2216 C2221 1.425 . S
C2216 C2223 1.409 . S
C2217 H2209 0.930 . S
C2217 C2215 1.419 . S
C2217 C2218 1.362 . S
C2218 H2210 0.930 . S
C2218 C2217 1.362 . S
C2218 C2221 1.409 . S
C2219 H2211 0.930 . S
C2219 C2220 1.355 . S
C2219 C2221 1.415 . S
C2220 C2219 1.355 . S
C2220 C2222 1.419 . S
C2221 C2216 1.425 . S
C2221 C2218 1.409 . S
C2221 C2219 1.415 . S
C2222 H2212 0.930 . S
C2222 C2220 1.419 . S
C2222 C2223 1.362 . S
C2223 H2213 0.930 . S
C2223 C2216 1.409 . S
C2223 C2222 1.362 . S
H2224 C2230 0.930 . S
H2225 C2233 0.930 . S
H2226 C2234 0.930 . S
H2227 C2235 0.930 . S
H2228 C2238 0.930 . S
H2229 C2239 0.930 . S
C2230 H2224 0.930 . S
C2230 C2231 1.355 . S
C2230 C2232 1.415 . S
C2231 C2230 1.355 . S
C2231 C2233 1.419 . S
C2232 C2230 1.415 . S
C2232 C2237 1.425 . S
C2232 C2239 1.409 . S
C2233 H2225 0.930 . S
C2233 C2231 1.419 . S
C2233 C2234 1.362 . S
C2234 H2226 0.930 . S
C2234 C2233 1.362 . S
C2234 C2237 1.409 . S
C2235 H2227 0.930 . S
C2235 C2236 1.355 . S
C2235 C2237 1.415 . S
C2236 C2235 1.355 . S
C2236 C2238 1.419 1_556 S
C2237 C2232 1.425 . S
C2237 C2234 1.409 . S
C2237 C2235 1.415 . S
C2238 H2228 0.930 . S
C2238 C2236 1.419 1_554 S
C2238 C2239 1.362 1_554 S
C2239 H2229 0.930 . S
C2239 C2232 1.409 . S
C2239 C2238 1.362 1_556 S
H2240 C2246 0.930 . S
H2241 C2249 0.930 . S
H2242 C2250 0.930 . S
H2243 C2251 0.930 . S
H2244 C2254 0.930 . S
H2245 C2255 0.930 . S
C2246 H2240 0.930 . S
C2246 C2247 1.355 . S
C2246 C2248 1.415 . S
C2247 C2246 1.355 . S
C2247 C2249 1.419 1_554 S
C2248 C2246 1.415 . S
C2248 C2253 1.425 . S
C2248 C2255 1.409 . S
C2249 H2241 0.930 . S
C2249 C2247 1.419 1_556 S
C2249 C2250 1.362 1_556 S
C2250 H2242 0.930 . S
C2250 C2249 1.362 1_554 S
C2250 C2253 1.409 . S
C2251 H2243 0.930 . S
C2251 C2252 1.355 . S
C2251 C2253 1.415 . S
C2252 C2251 1.355 . S
C2252 C2254 1.419 . S
C2253 C2248 1.425 . S
C2253 C2250 1.409 . S
C2253 C2251 1.415 . S
C2254 H2244 0.930 . S
C2254 C2252 1.419 . S
C2254 C2255 1.362 . S
C2255 H2245 0.930 . S
C2255 C2248 1.409 . S
C2255 C2254 1.362 . S
H2256 C2262 0.930 . S
H2257 C2265 0.930 . S
H2258 C2266 0.930 . S
H2259 C2267 0.930 . S
H2260 C2270 0.930 . S
H2261 C2271 0.930 . S
C2262 H2256 0.930 . S
C2262 C2263 1.355 . S
C2262 C2264 1.415 . S
C2263 C2262 1.355 . S
C2263 C2265 1.419 . S
C2264 C2262 1.415 . S
C2264 C2269 1.425 . S
C2264 C2271 1.409 . S
C2265 H2257 0.930 . S
C2265 C2263 1.419 . S
C2265 C2266 1.362 . S
C2266 H2258 0.930 . S
C2266 C2265 1.362 . S
C2266 C2269 1.409 . S
C2267 H2259 0.930 . S
C2267 C2268 1.355 . S
C2267 C2269 1.415 . S
C2268 C2267 1.355 . S
C2268 C2270 1.419 . S
C2269 C2264 1.425 . S
C2269 C2266 1.409 . S
C2269 C2267 1.415 . S
C2270 H2260 0.930 . S
C2270 C2268 1.419 . S
C2270 C2271 1.362 . S
C2271 H2261 0.930 . S
C2271 C2264 1.409 . S
C2271 C2270 1.362 . S
H2272 C2278 0.930 . S
H2273 C2281 0.930 . S
H2274 C2282 0.930 . S
H2275 C2283 0.930 . S
H2276 C2286 0.930 . S
H2277 C2287 0.930 . S
C2278 H2272 0.930 . S
C2278 C2279 1.355 . S
C2278 C2280 1.415 . S
C2279 C2278 1.355 . S
C2279 C2281 1.419 . S
C2280 C2278 1.415 . S
C2280 C2285 1.425 . S
C2280 C2287 1.409 . S
C2281 H2273 0.930 . S
C2281 C2279 1.419 . S
C2281 C2282 1.362 . S
C2282 H2274 0.930 . S
C2282 C2281 1.362 . S
C2282 C2285 1.409 . S
C2283 H2275 0.930 . S
C2283 C2284 1.355 . S
C2283 C2285 1.415 . S
C2284 C2283 1.355 . S
C2284 C2286 1.419 . S
C2285 C2280 1.425 . S
C2285 C2282 1.409 . S
C2285 C2283 1.415 . S
C2286 H2276 0.930 . S
C2286 C2284 1.419 . S
C2286 C2287 1.362 . S
C2287 H2277 0.930 . S
C2287 C2280 1.409 . S
C2287 C2286 1.362 . S
H2288 C2294 0.930 . S
H2289 C2297 0.930 . S
H2290 C2298 0.930 . S
H2291 C2299 0.930 . S
H2292 C2302 0.930 1_556 S
H2293 C2303 0.930 . S
C2294 H2288 0.930 . S
C2294 C2295 1.355 . S
C2294 C2296 1.415 . S
C2295 C2294 1.355 . S
C2295 C2297 1.419 . S
C2296 C2294 1.415 . S
C2296 C2301 1.425 . S
C2296 C2303 1.409 . S
C2297 H2289 0.930 . S
C2297 C2295 1.419 . S
C2297 C2298 1.362 . S
C2298 H2290 0.930 . S
C2298 C2297 1.362 . S
C2298 C2301 1.409 . S
C2299 H2291 0.930 . S
C2299 C2300 1.355 . S
C2299 C2301 1.415 . S
C2300 C2299 1.355 . S
C2300 C2302 1.419 . S
C2301 C2296 1.425 . S
C2301 C2298 1.409 . S
C2301 C2299 1.415 . S
C2302 H2292 0.930 1_554 S
C2302 C2300 1.419 . S
C2302 C2303 1.362 . S
C2303 H2293 0.930 . S
C2303 C2296 1.409 . S
C2303 C2302 1.362 . S
H2304 C2310 0.930 . S
H2305 C2313 0.930 . S
H2306 C2314 0.930 . S
H2307 C2315 0.930 . S
H2308 C2318 0.930 . S
H2309 C2319 0.930 . S
C2310 H2304 0.930 . S
C2310 C2311 1.355 . S
C2310 C2312 1.415 . S
C2311 C2310 1.355 . S
C2311 C2313 1.419 . S
C2312 C2310 1.415 . S
C2312 C2317 1.425 . S
C2312 C2319 1.409 . S
C2313 H2305 0.930 . S
C2313 C2311 1.419 . S
C2313 C2314 1.362 . S
C2314 H2306 0.930 . S
C2314 C2313 1.362 . S
C2314 C2317 1.409 . S
C2315 H2307 0.930 . S
C2315 C2316 1.355 . S
C2315 C2317 1.415 . S
C2316 C2315 1.355 . S
C2316 C2318 1.419 . S
C2317 C2312 1.425 . S
C2317 C2314 1.409 . S
C2317 C2315 1.415 . S
C2318 H2308 0.930 . S
C2318 C2316 1.419 . S
C2318 C2319 1.362 . S
C2319 H2309 0.930 . S
C2319 C2312 1.409 . S
C2319 C2318 1.362 . S
H2320 C2326 0.930 . S
H2321 C2329 0.930 . S
H2322 C2330 0.930 . S
H2323 C2331 0.930 . S
H2324 C2334 0.930 . S
H2325 C2335 0.930 . S
C2326 H2320 0.930 . S
C2326 C2327 1.355 . S
C2326 C2328 1.415 . S
C2327 C2326 1.355 . S
C2327 C2329 1.419 . S
C2328 C2326 1.415 . S
C2328 C2333 1.425 . S
C2328 C2335 1.409 . S
C2329 H2321 0.930 . S
C2329 C2327 1.419 . S
C2329 C2330 1.362 . S
C2330 H2322 0.930 . S
C2330 C2329 1.362 . S
C2330 C2333 1.409 . S
C2331 H2323 0.930 . S
C2331 C2332 1.355 . S
C2331 C2333 1.415 . S
C2332 C2331 1.355 . S
C2332 C2334 1.419 . S
C2333 C2328 1.425 . S
C2333 C2330 1.409 . S
C2333 C2331 1.415 . S
C2334 H2324 0.930 . S
C2334 C2332 1.419 . S
C2334 C2335 1.362 . S
C2335 H2325 0.930 . S
C2335 C2328 1.409 . S
C2335 C2334 1.362 . S
C1063 C239 0.781 . S
C1068 C8 0.741 . S
C1079 C41 0.771 . S
C1084 C140 0.744 . S
C1095 C173 0.778 . S
C1100 C74 0.740 . S
C1111 C107 0.741 . S
C1116 C206 0.778 . S
C1127 C272 0.766 . S
C1132 C503 0.764 . S
C1143 C404 0.772 . S
C1148 C305 0.758 . S
C1159 C437 0.740 . S
C1164 C338 0.778 . S
C1175 C470 0.745 . S
C1180 C371 0.781 . S
C1191 C536 0.781 . S
C1196 C767 0.743 . S
C1207 C569 0.742 . S
C1212 C668 0.775 . S
C1223 C701 0.763 . S
C1228 C602 0.768 . S
C1239 C635 0.779 . S
C1244 C734 0.740 . S
C1255 C1031 0.744 . S
C1260 C800 0.772 . S
C1271 C833 0.741 . S
C1276 C932 0.777 . S
C1287 C965 0.768 . S
C1292 C866 0.747 . S
C1303 C899 0.769 . S
C1308 C998 0.745 . S
C1319 C17 1.316 . S
C1324 C215 1.261 . S
C1335 C50 1.268 . S
C1340 C248 1.308 . S
C1351 C149 1.278 . S
C1356 C83 1.300 . S
C1367 C116 1.310 . S
C1372 C182 1.267 . S
C1383 C479 1.270 . S
C1388 C281 1.307 . S
C1399 C314 1.267 . S
C1404 C512 1.310 . S
C1415 C347 1.307 . S
C1420 C413 1.271 . S
C1431 C446 1.304 . S
C1436 C380 1.272 . S
C1447 C545 1.289 . S
C1452 C743 1.289 . S
C1463 C578 1.298 . S
C1468 C776 1.278 . S
C1479 C677 1.262 . S
C1484 C611 1.314 . S
C1495 C644 1.269 . S
C1500 C710 1.309 . S
C1511 C1007 1.275 . S
C1516 C809 1.304 . S
C1527 C1040 1.307 . S
C1532 C842 1.269 . S
C1543 C941 1.282 . S
C1548 C875 1.296 . S
C1559 C908 1.309 . S
C1564 C974 1.267 . S
C1575 C28 1.561 . S
C1580 N995 1.523 . S
C1591 N500 1.532 . S
C1596 C61 1.567 . S
C1607 C94 1.526 . S
C1612 N929 1.472 . S
C1623 C127 1.562 . S
C1628 N434 1.529 . S
C1639 N863 1.474 . S
C1644 C160 1.527 . S
C1655 C193 1.558 . S
C1660 N368 1.517 . S
C1671 C226 1.572 . S
C1676 N797 1.542 . S
C1687 C259 1.550 . S
C1692 N302 1.506 . S
C1703 N731 1.479 . S
C1708 C292 1.532 . S
C1719 N236 1.516 . S
C1724 C325 1.557 . S
C1735 C358 1.569 . S
C1740 N665 1.535 . S
C1751 N170 1.515 . S
C1756 C391 1.556 . S
C1767 C424 1.574 . S
C1772 N599 1.544 . S
C1783 C457 1.573 . S
C1788 N104 1.544 . S
C1799 N533 1.533 . S
C1804 C490 1.565 . S
C1815 N38 1.493 . S
C1820 C523 1.539 . S
C1831 N467 1.525 . S
C1836 C556 1.563 . S
C1847 C589 1.565 . S
C1852 N1028 1.528 . S
C1863 C622 1.574 . S
C1868 N401 1.544 . S
C1879 C655 1.542 . S
C1884 N962 1.493 . S
C1895 N335 1.521 . S
C1900 C688 1.557 . S
C1911 C721 1.574 . S
C1916 N896 1.544 . S
C1927 C754 1.558 . S
C1932 N269 1.522 . S
C1943 C787 1.524 . S
C1948 N830 1.468 . S
C1959 C820 1.556 . S
C1964 N203 1.520 . S
C1975 C853 1.570 . S
C1980 N764 1.539 . S
C1991 C886 1.524 . S
C1996 N137 1.468 . S
C2007 N698 1.517 . S
C2012 C919 1.555 . S
C2023 N71 1.495 . S
C2028 C952 1.540 . S
C2039 C985 1.559 . S
C2044 N632 1.523 . S
C2055 C1018 1.524 . S
C2060 N5 1.468 . S
C2071 N566 1.485 . S
C2076 C1051 1.534 . S
C2087 N14 1.697 . S
C2092 N245 1.686 1_554 S
C2103 N47 1.731 . S
C2108 N146 1.746 . S
C2119 N80 1.687 . S
C2124 N179 1.696 . S
C2135 N113 1.696 1_556 S
C2140 N212 1.726 . S
C2151 N509 1.693 1_556 S
C2156 N278 1.688 . S
C2167 N410 1.699 . S
C2172 N311 1.730 . S
C2183 N443 1.740 . S
C2188 N344 1.711 . S
C2199 N476 1.745 . S
C2204 N377 1.736 1_554 S
C2215 N773 1.691 . S
C2220 N542 1.720 . S
C2231 N674 1.735 . S
C2236 N575 1.745 1_556 S
C2247 N707 1.743 1_554 S
C2252 N608 1.739 . S
C2263 N641 1.743 . S
C2268 N740 1.740 . S
C2279 N806 1.722 . S
C2284 N1037 1.693 . S
C2295 N938 1.723 . S
C2300 N839 1.745 1_554 S
C2311 N971 1.705 1_556 S
C2316 N872 1.735 . S
C2327 N1004 1.686 . S
C2332 N905 1.698 . S
