# Generated by pormake.
# Topology uod, (4)-cn, num edge types: 1
# Building blocks:
#     Node 0, Type 0, BuildingBlock: QUQFOY_clean_sbu_3, # of connection points: 4
#     Node 1, Type 0, BuildingBlock: QUQFOY_clean_sbu_3, # of connection points: 4
#     Node 2, Type 0, BuildingBlock: QUQFOY_clean_sbu_3, # of connection points: 4
#     Node 3, Type 0, BuildingBlock: QUQFOY_clean_sbu_3, # of connection points: 4
#     Node 4, Type 0, BuildingBlock: QUQFOY_clean_sbu_3, # of connection points: 4
#     Node 5, Type 0, BuildingBlock: QUQFOY_clean_sbu_3, # of connection points: 4
#     Node 6, Type 0, BuildingBlock: QUQFOY_clean_sbu_3, # of connection points: 4
#     Node 7, Type 0, BuildingBlock: QUQFOY_clean_sbu_3, # of connection points: 4
#     Node 8, Type 0, BuildingBlock: QUQFOY_clean_sbu_3, # of connection points: 4
#     Node 9, Type 0, BuildingBlock: QUQFOY_clean_sbu_3, # of connection points: 4
#     Node 10, Type 0, BuildingBlock: QUQFOY_clean_sbu_3, # of connection points: 4
#     Node 11, Type 0, BuildingBlock: QUQFOY_clean_sbu_3, # of connection points: 4
#     Node 12, Type 0, BuildingBlock: QUQFOY_clean_sbu_3, # of connection points: 4
#     Node 13, Type 0, BuildingBlock: QUQFOY_clean_sbu_3, # of connection points: 4
#     Node 14, Type 0, BuildingBlock: QUQFOY_clean_sbu_3, # of connection points: 4
#     Node 15, Type 0, BuildingBlock: QUQFOY_clean_sbu_3, # of connection points: 4
#     Node 16, Type 0, BuildingBlock: QUQFOY_clean_sbu_3, # of connection points: 4
#     Node 17, Type 0, BuildingBlock: QUQFOY_clean_sbu_3, # of connection points: 4
#     Node 18, Type 0, BuildingBlock: QUQFOY_clean_sbu_3, # of connection points: 4
#     Node 19, Type 0, BuildingBlock: QUQFOY_clean_sbu_3, # of connection points: 4
#     Node 20, Type 0, BuildingBlock: QUQFOY_clean_sbu_3, # of connection points: 4
#     Node 21, Type 0, BuildingBlock: QUQFOY_clean_sbu_3, # of connection points: 4
#     Node 22, Type 0, BuildingBlock: QUQFOY_clean_sbu_3, # of connection points: 4
#     Node 23, Type 0, BuildingBlock: QUQFOY_clean_sbu_3, # of connection points: 4
#     Node 24, Type 0, BuildingBlock: QUQFOY_clean_sbu_3, # of connection points: 4
#     Node 25, Type 0, BuildingBlock: QUQFOY_clean_sbu_3, # of connection points: 4
#     Node 26, Type 0, BuildingBlock: QUQFOY_clean_sbu_3, # of connection points: 4
#     Node 27, Type 0, BuildingBlock: QUQFOY_clean_sbu_3, # of connection points: 4
#     Node 28, Type 0, BuildingBlock: QUQFOY_clean_sbu_3, # of connection points: 4
#     Node 29, Type 0, BuildingBlock: QUQFOY_clean_sbu_3, # of connection points: 4
#     Node 30, Type 0, BuildingBlock: QUQFOY_clean_sbu_3, # of connection points: 4
#     Node 31, Type 0, BuildingBlock: QUQFOY_clean_sbu_3, # of connection points: 4
#     Edge 32, Type (0, 0), BuildingBlock: KIFKEQ_clean_linker_1, # of connection points: 2
#     Edge 33, Type (0, 0), BuildingBlock: KIFKEQ_clean_linker_1, # of connection points: 2
#     Edge 34, Type (0, 0), BuildingBlock: KIFKEQ_clean_linker_1, # of connection points: 2
#     Edge 35, Type (0, 0), BuildingBlock: KIFKEQ_clean_linker_1, # of connection points: 2
#     Edge 36, Type (0, 0), BuildingBlock: KIFKEQ_clean_linker_1, # of connection points: 2
#     Edge 37, Type (0, 0), BuildingBlock: KIFKEQ_clean_linker_1, # of connection points: 2
#     Edge 38, Type (0, 0), BuildingBlock: KIFKEQ_clean_linker_1, # of connection points: 2
#     Edge 39, Type (0, 0), BuildingBlock: KIFKEQ_clean_linker_1, # of connection points: 2
#     Edge 40, Type (0, 0), BuildingBlock: KIFKEQ_clean_linker_1, # of connection points: 2
#     Edge 41, Type (0, 0), BuildingBlock: KIFKEQ_clean_linker_1, # of connection points: 2
#     Edge 42, Type (0, 0), BuildingBlock: KIFKEQ_clean_linker_1, # of connection points: 2
#     Edge 43, Type (0, 0), BuildingBlock: KIFKEQ_clean_linker_1, # of connection points: 2
#     Edge 44, Type (0, 0), BuildingBlock: KIFKEQ_clean_linker_1, # of connection points: 2
#     Edge 45, Type (0, 0), BuildingBlock: KIFKEQ_clean_linker_1, # of connection points: 2
#     Edge 46, Type (0, 0), BuildingBlock: KIFKEQ_clean_linker_1, # of connection points: 2
#     Edge 47, Type (0, 0), BuildingBlock: KIFKEQ_clean_linker_1, # of connection points: 2
#     Edge 48, Type (0, 0), BuildingBlock: KIFKEQ_clean_linker_1, # of connection points: 2
#     Edge 49, Type (0, 0), BuildingBlock: KIFKEQ_clean_linker_1, # of connection points: 2
#     Edge 50, Type (0, 0), BuildingBlock: KIFKEQ_clean_linker_1, # of connection points: 2
#     Edge 51, Type (0, 0), BuildingBlock: KIFKEQ_clean_linker_1, # of connection points: 2
#     Edge 52, Type (0, 0), BuildingBlock: KIFKEQ_clean_linker_1, # of connection points: 2
#     Edge 53, Type (0, 0), BuildingBlock: KIFKEQ_clean_linker_1, # of connection points: 2
#     Edge 54, Type (0, 0), BuildingBlock: KIFKEQ_clean_linker_1, # of connection points: 2
#     Edge 55, Type (0, 0), BuildingBlock: KIFKEQ_clean_linker_1, # of connection points: 2
#     Edge 56, Type (0, 0), BuildingBlock: KIFKEQ_clean_linker_1, # of connection points: 2
#     Edge 57, Type (0, 0), BuildingBlock: KIFKEQ_clean_linker_1, # of connection points: 2
#     Edge 58, Type (0, 0), BuildingBlock: KIFKEQ_clean_linker_1, # of connection points: 2
#     Edge 59, Type (0, 0), BuildingBlock: KIFKEQ_clean_linker_1, # of connection points: 2
#     Edge 60, Type (0, 0), BuildingBlock: KIFKEQ_clean_linker_1, # of connection points: 2
#     Edge 61, Type (0, 0), BuildingBlock: KIFKEQ_clean_linker_1, # of connection points: 2
#     Edge 62, Type (0, 0), BuildingBlock: KIFKEQ_clean_linker_1, # of connection points: 2
#     Edge 63, Type (0, 0), BuildingBlock: KIFKEQ_clean_linker_1, # of connection points: 2
#     Edge 64, Type (0, 0), BuildingBlock: KIFKEQ_clean_linker_1, # of connection points: 2
#     Edge 65, Type (0, 0), BuildingBlock: KIFKEQ_clean_linker_1, # of connection points: 2
#     Edge 66, Type (0, 0), BuildingBlock: KIFKEQ_clean_linker_1, # of connection points: 2
#     Edge 67, Type (0, 0), BuildingBlock: KIFKEQ_clean_linker_1, # of connection points: 2
#     Edge 68, Type (0, 0), BuildingBlock: KIFKEQ_clean_linker_1, # of connection points: 2
#     Edge 69, Type (0, 0), BuildingBlock: KIFKEQ_clean_linker_1, # of connection points: 2
#     Edge 70, Type (0, 0), BuildingBlock: KIFKEQ_clean_linker_1, # of connection points: 2
#     Edge 71, Type (0, 0), BuildingBlock: KIFKEQ_clean_linker_1, # of connection points: 2
#     Edge 72, Type (0, 0), BuildingBlock: KIFKEQ_clean_linker_1, # of connection points: 2
#     Edge 73, Type (0, 0), BuildingBlock: KIFKEQ_clean_linker_1, # of connection points: 2
#     Edge 74, Type (0, 0), BuildingBlock: KIFKEQ_clean_linker_1, # of connection points: 2
#     Edge 75, Type (0, 0), BuildingBlock: KIFKEQ_clean_linker_1, # of connection points: 2
#     Edge 76, Type (0, 0), BuildingBlock: KIFKEQ_clean_linker_1, # of connection points: 2
#     Edge 77, Type (0, 0), BuildingBlock: KIFKEQ_clean_linker_1, # of connection points: 2
#     Edge 78, Type (0, 0), BuildingBlock: KIFKEQ_clean_linker_1, # of connection points: 2
#     Edge 79, Type (0, 0), BuildingBlock: KIFKEQ_clean_linker_1, # of connection points: 2
#     Edge 80, Type (0, 0), BuildingBlock: KIFKEQ_clean_linker_1, # of connection points: 2
#     Edge 81, Type (0, 0), BuildingBlock: KIFKEQ_clean_linker_1, # of connection points: 2
#     Edge 82, Type (0, 0), BuildingBlock: KIFKEQ_clean_linker_1, # of connection points: 2
#     Edge 83, Type (0, 0), BuildingBlock: KIFKEQ_clean_linker_1, # of connection points: 2
#     Edge 84, Type (0, 0), BuildingBlock: KIFKEQ_clean_linker_1, # of connection points: 2
#     Edge 85, Type (0, 0), BuildingBlock: KIFKEQ_clean_linker_1, # of connection points: 2
#     Edge 86, Type (0, 0), BuildingBlock: KIFKEQ_clean_linker_1, # of connection points: 2
#     Edge 87, Type (0, 0), BuildingBlock: KIFKEQ_clean_linker_1, # of connection points: 2
#     Edge 88, Type (0, 0), BuildingBlock: KIFKEQ_clean_linker_1, # of connection points: 2
#     Edge 89, Type (0, 0), BuildingBlock: KIFKEQ_clean_linker_1, # of connection points: 2
#     Edge 90, Type (0, 0), BuildingBlock: KIFKEQ_clean_linker_1, # of connection points: 2
#     Edge 91, Type (0, 0), BuildingBlock: KIFKEQ_clean_linker_1, # of connection points: 2
#     Edge 92, Type (0, 0), BuildingBlock: KIFKEQ_clean_linker_1, # of connection points: 2
#     Edge 93, Type (0, 0), BuildingBlock: KIFKEQ_clean_linker_1, # of connection points: 2
#     Edge 94, Type (0, 0), BuildingBlock: KIFKEQ_clean_linker_1, # of connection points: 2
#     Edge 95, Type (0, 0), BuildingBlock: KIFKEQ_clean_linker_1, # of connection points: 2
# Relax obj value: 0.161
# Max RMSD: 0.155
# Mean RMSD: 0.155
data_MOF--net-uod--node1-QUQFOY_clean_sbu_3--edge1-KIFKEQ_clean_linker_1
_symmetry_space_group_name_H-M    P1
_symmetry_Int_Tables_number       1
_symmetry_cell_setting            triclinic
loop_
_symmetry_equiv_pos_as_xyz
'x, y, z'
_cell_length_a     93.107652
_cell_length_b     28.074681
_cell_length_c     65.496422
_cell_angle_alpha  89.993932
_cell_angle_beta   90.016793
_cell_angle_gamma 90.155164
loop_
_atom_site_label
_atom_site_type_symbol
_atom_site_fract_x
_atom_site_fract_y
_atom_site_fract_z
_atom_type_partial_charge
C0 C 0.02769 0.28731 0.15848 0.0
O1 O 0.02692 0.29846 0.17721 0.0
Cd2 Cd 0.03167 0.3781 0.18831 0.0
O3 O 0.03014 0.31928 0.1451 0.0
Cd4 Cd 0.03335 0.40744 0.14549 0.0
C5 C 0.06533 0.39701 0.16866 0.0
O6 O 0.01573 0.43196 0.17071 0.0
O7 O 0.03353 0.47974 0.16631 0.0
O8 O 0.01477 0.41789 0.11989 0.0
C9 C 0.02039 0.4744 0.17093 0.0
O10 O 0.05765 0.39155 0.18458 0.0
C11 C 0.02183 0.44456 0.10793 0.0
O12 O 0.05939 0.40117 0.15121 0.0
O13 O 0.03501 0.45114 0.11228 0.0
C14 C 0.20972 0.92641 0.12099 0.0
O15 O 0.20756 0.89896 0.13609 0.0
Cd16 Cd 0.20184 0.81694 0.1355 0.0
O17 O 0.20929 0.91069 0.10267 0.0
Cd18 Cd 0.20579 0.82931 0.08719 0.0
C19 C 0.17159 0.82049 0.10486 0.0
O20 O 0.21932 0.78662 0.11306 0.0
O21 O 0.20597 0.74369 0.09355 0.0
O22 O 0.22585 0.84024 0.06325 0.0
C23 C 0.21579 0.74562 0.10689 0.0
O24 O 0.17751 0.8111 0.12192 0.0
C25 C 0.21979 0.81815 0.04867 0.0
O26 O 0.17917 0.83222 0.0894 0.0
O27 O 0.20663 0.80746 0.0511 0.0
C28 C 0.02616 0.94024 0.11813 0.0
O29 O 0.02548 0.9295 0.09934 0.0
Cd30 Cd 0.02942 0.84951 0.08827 0.0
O31 O 0.02821 0.90779 0.13143 0.0
Cd32 Cd 0.03075 0.81935 0.13025 0.0
C33 C 0.06285 0.82807 0.10785 0.0
O34 O 0.01246 0.79753 0.1055 0.0
O35 O 0.03016 0.74923 0.10786 0.0
O36 O 0.01406 0.81256 0.15909 0.0
C37 C 0.01689 0.75502 0.10429 0.0
O38 O 0.0554 0.83328 0.09169 0.0
C39 C 0.02073 0.77948 0.16823 0.0
O40 O 0.05666 0.82516 0.12514 0.0
O41 O 0.03274 0.76743 0.16065 0.0
C42 C 0.21057 0.27191 0.16076 0.0
O43 O 0.20963 0.3027 0.14662 0.0
Cd44 Cd 0.20543 0.38552 0.15056 0.0
O45 O 0.20969 0.28409 0.17953 0.0
Cd46 Cd 0.20703 0.36076 0.19887 0.0
C47 C 0.17388 0.38114 0.17851 0.0
O48 O 0.22175 0.4083 0.17631 0.0
O49 O 0.20873 0.44771 0.19742 0.0
O50 O 0.22681 0.34251 0.22193 0.0
C51 C 0.21853 0.4481 0.18402 0.0
O52 O 0.18072 0.39241 0.16237 0.0
C53 C 0.22042 0.35545 0.23812 0.0
O54 O 0.18051 0.36506 0.19415 0.0
O55 O 0.20714 0.36516 0.23644 0.0
C56 C 0.96646 0.67497 0.90812 0.0
O57 O 0.96596 0.64412 0.89397 0.0
Cd58 Cd 0.96253 0.56083 0.89751 0.0
O59 O 0.96512 0.66264 0.92684 0.0
Cd60 Cd 0.96116 0.58502 0.94542 0.0
C61 C 0.92935 0.5641 0.9207 0.0
O62 O 0.97771 0.53877 0.92486 0.0
O63 O 0.96334 0.49815 0.9437 0.0
O64 O 0.97833 0.60637 0.97256 0.0
C65 C 0.97413 0.49862 0.93195 0.0
O66 O 0.9372 0.55191 0.90568 0.0
C67 C 0.97081 0.58946 0.98704 0.0
O68 O 0.93497 0.58109 0.93696 0.0
O69 O 0.95818 0.57582 0.98246 0.0
C70 C 0.78916 0.02682 0.84367 0.0
O71 O 0.78971 0.03731 0.82486 0.0
Cd72 Cd 0.79377 0.11633 0.81329 0.0
O73 O 0.79031 0.05937 0.85718 0.0
Cd74 Cd 0.79297 0.14806 0.85562 0.0
C75 C 0.8261 0.13971 0.83578 0.0
O76 O 0.77545 0.16472 0.82917 0.0
O77 O 0.792 0.21722 0.83266 0.0
O78 O 0.77567 0.15663 0.8838 0.0
C79 C 0.77912 0.20796 0.82774 0.0
O80 O 0.81948 0.13364 0.81896 0.0
C81 C 0.78215 0.19066 0.89266 0.0
O82 O 0.81906 0.14319 0.85236 0.0
O83 O 0.79426 0.20251 0.88528 0.0
C84 C 0.96807 0.02233 0.86844 0.0
O85 O 0.96452 0.0513 0.88242 0.0
Cd86 Cd 0.96194 0.13505 0.88102 0.0
O87 O 0.9707 0.03704 0.85032 0.0
Cd88 Cd 0.96976 0.1185 0.8339 0.0
C89 C 0.93451 0.137 0.84602 0.0
O90 O 0.98183 0.16066 0.86157 0.0
O91 O 0.97094 0.20426 0.83953 0.0
O92 O 0.99109 0.10649 0.81203 0.0
C93 C 0.97947 0.20181 0.85455 0.0
O94 O 0.9392 0.14766 0.86371 0.0
C95 C 0.98564 0.12721 0.79662 0.0
O96 O 0.94299 0.121 0.83232 0.0
O97 O 0.9724 0.13756 0.79778 0.0
C98 C 0.78719 0.67736 0.87936 0.0
O99 O 0.78448 0.6636 0.89739 0.0
Cd100 Cd 0.78728 0.5817 0.90603 0.0
O101 O 0.79051 0.64711 0.86565 0.0
Cd102 Cd 0.79265 0.55894 0.86308 0.0
C103 C 0.82232 0.56207 0.8922 0.0
O104 O 0.77218 0.53417 0.88387 0.0
O105 O 0.78943 0.48375 0.88139 0.0
O106 O 0.77857 0.56484 0.83144 0.0
C107 C 0.77622 0.4912 0.88474 0.0
O108 O 0.81327 0.56575 0.90669 0.0
C109 C 0.78542 0.53356 0.82146 0.0
O110 O 0.818 0.56147 0.87372 0.0
O111 O 0.79633 0.51579 0.83027 0.0
C112 C 0.01933 0.73631 0.62498 0.0
O113 O 0.01922 0.75549 0.64255 0.0
Cd114 Cd 0.02173 0.83865 0.64974 0.0
O115 O 0.01977 0.76176 0.60888 0.0
Cd116 Cd 0.01997 0.84776 0.601 0.0
C117 C 0.05316 0.85739 0.62306 0.0
O118 O 0.00517 0.88046 0.62898 0.0
O119 O 0.01866 0.92819 0.61141 0.0
O120 O 1.00003 0.84505 0.57704 0.0
C121 C 0.00869 0.92274 0.62434 0.0
O122 O 0.04641 0.85666 0.63998 0.0
C123 C 0.00644 0.86713 0.56277 0.0
O124 O 0.04645 0.85206 0.60617 0.0
O125 O 0.01979 0.87503 0.56526 0.0
C126 C 0.23524 0.43572 0.60184 0.0
O127 O 0.23648 0.40627 0.61646 0.0
Cd128 Cd 0.23371 0.3214 0.61376 0.0
O129 O 0.233 0.42135 0.58365 0.0
Cd130 Cd 0.22982 0.34585 0.5649 0.0
C131 C 0.19945 0.32482 0.59345 0.0
O132 O 0.24592 0.29425 0.58426 0.0
O133 O 0.23115 0.26108 0.56312 0.0
O134 O 0.24733 0.3673 0.539 0.0
C135 C 0.24138 0.25654 0.57568 0.0
O136 O 0.2081 0.31426 0.60783 0.0
C137 C 0.23943 0.35684 0.52383 0.0
O138 O 0.20415 0.33997 0.57624 0.0
O139 O 0.22636 0.34675 0.52768 0.0
C140 C 0.05082 0.39512 0.62394 0.0
O141 O 0.05077 0.37056 0.60769 0.0
Cd142 Cd 0.05874 0.29031 0.60729 0.0
O143 O 0.0549 0.37684 0.6408 0.0
Cd144 Cd 0.06255 0.2975 0.65358 0.0
C145 C 0.09319 0.30071 0.62608 0.0
O146 O 0.04515 0.25313 0.63379 0.0
O147 O 0.06221 0.2121 0.64759 0.0
O148 O 0.04464 0.31354 0.6792 0.0
C149 C 0.04954 0.21348 0.6405 0.0
O150 O 0.08467 0.29208 0.61135 0.0
C151 C 0.0504 0.29013 0.69356 0.0
O152 O 0.08828 0.30717 0.64408 0.0
O153 O 0.06322 0.27608 0.69057 0.0
C154 C 0.2025 0.77183 0.62016 0.0
O155 O 0.19909 0.79221 0.60356 0.0
Cd156 Cd 0.19297 0.87377 0.60019 0.0
O157 O 0.20222 0.79456 0.63702 0.0
Cd158 Cd 0.19588 0.87769 0.64703 0.0
C159 C 0.16188 0.87697 0.62765 0.0
O160 O 0.21036 0.91447 0.62039 0.0
O161 O 0.19622 0.9612 0.63707 0.0
O162 O 0.21614 0.87361 0.67038 0.0
C163 C 0.20704 0.95643 0.62553 0.0
O164 O 0.1682 0.88243 0.61061 0.0
C165 C 0.21038 0.89679 0.6848 0.0
O166 O 0.16917 0.87036 0.64394 0.0
O167 O 0.19708 0.90603 0.68287 0.0
C168 C 0.95039 0.1771 0.38653 0.0
O169 O 0.94907 0.1527 0.37033 0.0
Cd170 Cd 0.94648 0.06903 0.36788 0.0
O171 O 0.9497 0.15745 0.4041 0.0
Cd172 Cd 0.94489 0.07374 0.41528 0.0
C173 C 0.9133 0.06122 0.38911 0.0
O174 O 0.96295 0.0397 0.39268 0.0
O175 O 0.94879 -0.00989 0.40774 0.0
O176 O 0.96059 0.08395 0.44505 0.0
C177 C 0.96035 -0.00267 0.39804 0.0
O178 O 0.92115 0.05383 0.37355 0.0
C179 C 0.95301 0.05819 0.45682 0.0
O180 O 0.91897 0.07276 0.40617 0.0
O181 O 0.94076 0.04566 0.45014 0.0
C182 C 0.78994 0.53308 0.40025 0.0
O183 O 0.7887 0.5625 0.38565 0.0
Cd184 Cd 0.79371 0.64501 0.38739 0.0
O185 O 0.79395 0.54699 0.41797 0.0
Cd186 Cd 0.80026 0.62522 0.43455 0.0
C187 C 0.82919 0.63932 0.40278 0.0
O188 O 0.78134 0.66833 0.4174 0.0
O189 O 0.79722 0.71171 0.43251 0.0
O190 O 0.78503 0.60198 0.46323 0.0
C191 C 0.78503 0.70883 0.42401 0.0
O192 O 0.81976 0.64941 0.3894 0.0
C193 C 0.79261 0.62134 0.47704 0.0
O194 O 0.8254 0.62682 0.42078 0.0
O195 O 0.80483 0.63712 0.47153 0.0
C196 C 0.96902 0.52523 0.36262 0.0
O197 O 0.97083 0.55394 0.37739 0.0
Cd198 Cd 0.96873 0.63842 0.376 0.0
O199 O 0.96632 0.54045 0.34465 0.0
Cd200 Cd 0.96304 0.61866 0.32744 0.0
C201 C 0.9337 0.63852 0.35822 0.0
O202 O 0.9813 0.66248 0.34636 0.0
O203 O 0.96637 0.70361 0.32839 0.0
O204 O 0.97933 0.59654 0.30006 0.0
C205 C 0.9777 0.70253 0.33909 0.0
O206 O 0.94293 0.64759 0.37204 0.0
C207 C 0.97175 0.61334 0.28565 0.0
O208 O 0.9377 0.62482 0.34045 0.0
O209 O 0.95912 0.62674 0.29031 0.0
C210 C 0.77098 0.1849 0.37466 0.0
O211 O 0.77018 0.15942 0.39066 0.0
Cd212 Cd 0.77245 0.07533 0.39367 0.0
O213 O 0.77242 0.16588 0.35705 0.0
Cd214 Cd 0.77386 0.08236 0.34386 0.0
C215 C 0.80542 0.06668 0.36991 0.0
O216 O 0.75745 0.04384 0.36799 0.0
O217 O 0.77077 -0.00168 0.34961 0.0
O218 O 0.75678 0.09371 0.31579 0.0
C219 C 0.76064 0.00209 0.36236 0.0
O220 O 0.79765 0.0619 0.38579 0.0
C221 C 0.76434 0.07175 0.30267 0.0
O222 O 0.79978 0.07692 0.35266 0.0
O223 O 0.77704 0.06084 0.30799 0.0
C224 C 0.56057 0.30439 0.6196 0.0
O225 O 0.56218 0.3328 0.63449 0.0
Cd226 Cd 0.56528 0.41639 0.63125 0.0
O227 O 0.56055 0.31979 0.60125 0.0
Cd228 Cd 0.56296 0.39921 0.5845 0.0
C229 C 0.59652 0.41712 0.60333 0.0
O230 O 0.54728 0.44143 0.60786 0.0
O231 O 0.56085 0.48459 0.58851 0.0
O232 O 0.5427 0.37887 0.56302 0.0
C233 C 0.54984 0.48153 0.59982 0.0
O234 O 0.58982 0.4273 0.61968 0.0
C235 C 0.54713 0.4006 0.54724 0.0
O236 O 0.58968 0.40206 0.58767 0.0
O237 O 0.56012 0.4148 0.54753 0.0
C238 C 0.72979 0.92833 0.64777 0.0
O239 O 0.72827 0.91611 0.66628 0.0
Cd240 Cd 0.72777 0.83589 0.67714 0.0
O241 O 0.73078 0.89688 0.63379 0.0
Cd242 Cd 0.72954 0.8079 0.63437 0.0
C243 C 0.69633 0.80474 0.65482 0.0
O244 O 0.74771 0.79698 0.66061 0.0
O245 O 0.73299 0.73877 0.65687 0.0
O246 O 0.74641 0.80672 0.60527 0.0
C247 C 0.74531 0.75294 0.6625 0.0
O248 O 0.70305 0.80904 0.67164 0.0
C249 C 0.74119 0.76987 0.59683 0.0
O250 O 0.70317 0.8068 0.63799 0.0
O251 O 0.72988 0.75285 0.60486 0.0
C252 C 0.55554 0.9513 0.64614 0.0
O253 O 0.55702 0.9244 0.6307 0.0
Cd254 Cd 0.55721 0.83997 0.62931 0.0
O255 O 0.55426 0.9338 0.66406 0.0
Cd256 Cd 0.55495 0.84999 0.67686 0.0
C257 C 0.5879 0.82382 0.65654 0.0
O258 O 0.53828 0.8168 0.65155 0.0
O259 O 0.55009 0.76727 0.67016 0.0
O260 O 0.53699 0.861 0.70388 0.0
C261 C 0.53972 0.77475 0.65812 0.0
O262 O 0.58127 0.81692 0.63981 0.0
C263 C 0.54376 0.83588 0.71682 0.0
O264 O 0.58123 0.83961 0.67215 0.0
O265 O 0.55657 0.82476 0.71227 0.0
C266 C 0.73849 0.28141 0.62376 0.0
O267 O 0.73951 0.2988 0.60596 0.0
Cd268 Cd 0.73826 0.38241 0.60037 0.0
O269 O 0.73711 0.30866 0.6392 0.0
Cd270 Cd 0.73574 0.39576 0.64529 0.0
C271 C 0.70461 0.40377 0.61886 0.0
O272 O 0.75498 0.42298 0.62262 0.0
O273 O 0.7386 0.47425 0.63001 0.0
O274 O 0.75229 0.39033 0.67442 0.0
C275 C 0.75121 0.46616 0.62362 0.0
O276 O 0.71277 0.40283 0.60327 0.0
C277 C 0.7447 0.41367 0.68697 0.0
O278 O 0.70991 0.39886 0.6367 0.0
O279 O 0.7324 0.42664 0.68065 0.0
C280 C 0.46076 0.68204 0.38577 0.0
O281 O 0.45685 0.65367 0.37173 0.0
Cd282 Cd 0.45319 0.57049 0.37368 0.0
O283 O 0.46288 0.66703 0.40397 0.0
Cd284 Cd 0.46041 0.58627 0.42056 0.0
C285 C 0.42529 0.57128 0.40794 0.0
O286 O 0.47268 0.54344 0.39351 0.0
O287 O 0.46068 0.50043 0.41467 0.0
O288 O 0.48183 0.59801 0.442 0.0
C289 C 0.46984 0.50249 0.40043 0.0
O290 O 0.43021 0.56003 0.39047 0.0
C291 C 0.47671 0.57597 0.4573 0.0
O292 O 0.43364 0.58701 0.42189 0.0
O293 O 0.46346 0.56531 0.45653 0.0
C294 C 0.28484 0.03243 0.35418 0.0
O295 O 0.28314 0.0424 0.33545 0.0
Cd296 Cd 0.28763 0.12116 0.32325 0.0
O297 O 0.28822 0.06518 0.36682 0.0
Cd298 Cd 0.2917 0.1537 0.36447 0.0
C299 C 0.32235 0.1412 0.33835 0.0
O300 O 0.27204 0.17514 0.34203 0.0
O301 O 0.2896 0.22472 0.34283 0.0
O302 O 0.27658 0.16175 0.39469 0.0
C303 C 0.2762 0.21807 0.34085 0.0
O304 O 0.31398 0.13274 0.3234 0.0
C305 C 0.28388 0.19449 0.40311 0.0
O306 O 0.3172 0.14841 0.35608 0.0
O307 O 0.29566 0.20557 0.39453 0.0
C308 C 0.46807 0.02689 0.34461 0.0
O309 O 0.46685 0.05761 0.35871 0.0
Cd310 Cd 0.46209 0.13972 0.35527 0.0
O311 O 0.46742 0.03917 0.32579 0.0
Cd312 Cd 0.46449 0.11661 0.30645 0.0
C313 C 0.43084 0.12915 0.32655 0.0
O314 O 0.47833 0.16481 0.32986 0.0
O315 O 0.46521 0.20359 0.30868 0.0
O316 O 0.48441 0.09947 0.28291 0.0
C317 C 0.47475 0.20457 0.32245 0.0
O318 O 0.43744 0.13958 0.343 0.0
C319 C 0.47805 0.11502 0.26711 0.0
O320 O 0.43779 0.11752 0.31047 0.0
O321 O 0.46486 0.12566 0.26917 0.0
C322 C 0.28023 0.68756 0.39835 0.0
O323 O 0.27909 0.67704 0.41712 0.0
Cd324 Cd 0.28323 0.59659 0.42801 0.0
O325 O 0.28253 0.65482 0.38529 0.0
Cd326 Cd 0.28493 0.56641 0.3866 0.0
C327 C 0.31687 0.57643 0.40897 0.0
O328 O 0.2669 0.54131 0.4111 0.0
O329 O 0.28535 0.49609 0.40878 0.0
O330 O 0.26783 0.55908 0.35857 0.0
C331 C 0.27197 0.49948 0.41208 0.0
O332 O 0.30936 0.582 0.42505 0.0
C333 C 0.27456 0.52704 0.34889 0.0
O334 O 0.31074 0.57263 0.39167 0.0
O335 O 0.28689 0.51599 0.35572 0.0
C336 C 0.51799 0.74851 0.1288 0.0
O337 O 0.51639 0.75874 0.1475 0.0
Cd338 Cd 0.52045 0.83862 0.15847 0.0
O339 O 0.52005 0.78158 0.11581 0.0
Cd340 Cd 0.52064 0.87018 0.11776 0.0
C341 C 0.55333 0.86362 0.13676 0.0
O342 O 0.50358 0.89459 0.14392 0.0
O343 O 0.52334 0.93372 0.14302 0.0
O344 O 0.50238 0.87676 0.09087 0.0
C345 C 0.51002 0.93374 0.14702 0.0
O346 O 0.54626 0.85633 0.15315 0.0
C347 C 0.50798 0.91217 0.08181 0.0
O348 O 0.54675 0.86729 0.11978 0.0
O349 O 0.52012 0.92611 0.08844 0.0
C350 C 0.72507 0.44001 0.08865 0.0
O351 O 0.72514 0.40977 0.10309 0.0
Cd352 Cd 0.72232 0.32536 0.1013 0.0
O353 O 0.72406 0.42659 0.07004 0.0
Cd354 Cd 0.72187 0.34892 0.05134 0.0
C355 C 0.68971 0.32751 0.07581 0.0
O356 O 0.73647 0.29989 0.07368 0.0
O357 O 0.72335 0.26293 0.05176 0.0
O358 O 0.74063 0.36546 0.02618 0.0
C359 C 0.73262 0.26063 0.06586 0.0
O360 O 0.69726 0.3174 0.09146 0.0
C361 C 0.73321 0.35349 0.01071 0.0
O362 O 0.69561 0.34264 0.05936 0.0
O363 O 0.71996 0.34501 0.01386 0.0
C364 C 0.54077 0.40627 0.09667 0.0
O365 O 0.54119 0.39141 0.0784 0.0
Cd366 Cd 0.54799 0.31164 0.07049 0.0
O367 O 0.54358 0.37812 0.11141 0.0
Cd368 Cd 0.54932 0.29196 0.11521 0.0
C369 C 0.58151 0.30351 0.09204 0.0
O370 O 0.53262 0.26036 0.0901 0.0
O371 O 0.5498 0.21353 0.0991 0.0
O372 O 0.52988 0.28609 0.13953 0.0
C373 C 0.53704 0.21812 0.0926 0.0
O374 O 0.57383 0.30445 0.07597 0.0
C375 C 0.53646 0.26271 0.15314 0.0
O376 O 0.57556 0.30183 0.10959 0.0
O377 O 0.54987 0.25665 0.15043 0.0
C378 C 0.70108 0.78049 0.12188 0.0
O379 O 0.69701 0.80529 0.10675 0.0
Cd380 Cd 0.69166 0.88775 0.10693 0.0
O381 O 0.70198 0.79885 0.1397 0.0
Cd382 Cd 0.69657 0.88033 0.1538 0.0
C383 C 0.66189 0.88598 0.13719 0.0
O384 O 0.71005 0.92167 0.12749 0.0
O385 O 0.69678 0.96604 0.1465 0.0
O386 O 0.71706 0.87575 0.17696 0.0
C387 C 0.70694 0.96295 0.13371 0.0
O388 O 0.66744 0.89593 0.11996 0.0
C389 C 0.71074 0.89385 0.19225 0.0
O390 O 0.66985 0.87452 0.15228 0.0
O391 O 0.69729 0.90015 0.19055 0.0
C392 C 0.44985 0.17374 0.89701 0.0
O393 O 0.44993 0.14748 0.88125 0.0
Cd394 Cd 0.44621 0.06381 0.88202 0.0
O395 O 0.44734 0.15622 0.91465 0.0
Cd396 Cd 0.44175 0.07625 0.92908 0.0
C397 C 0.41158 0.06248 0.89975 0.0
O398 O 0.46058 0.037 0.9099 0.0
O399 O 0.4453 -0.00887 0.92509 0.0
O400 O 0.45794 0.09741 0.95691 0.0
C401 C 0.45746 -0.00394 0.91664 0.0
O402 O 0.42047 0.05372 0.8855 0.0
C403 C 0.45116 0.07546 0.97084 0.0
O404 O 0.41608 0.07483 0.91744 0.0
O405 O 0.43884 0.05924 0.96603 0.0
C406 C 0.29117 0.55104 0.87427 0.0
O407 O 0.29175 0.57836 0.85885 0.0
Cd408 Cd 0.29635 0.66129 0.86096 0.0
O409 O 0.29287 0.56754 0.89227 0.0
Cd410 Cd 0.29675 0.64758 0.9078 0.0
C411 C 0.32919 0.66033 0.88489 0.0
O412 O 0.2797 0.68833 0.88603 0.0
O413 O 0.29413 0.73299 0.90341 0.0
O414 O 0.2781 0.62771 0.93214 0.0
C415 C 0.28248 0.72879 0.89356 0.0
O416 O 0.32175 0.669 0.86903 0.0
C417 C 0.28361 0.64961 0.94717 0.0
O418 O 0.32305 0.64875 0.90161 0.0
O419 O 0.29645 0.66429 0.94492 0.0
C420 C 0.4694 0.52462 0.88095 0.0
O421 O 0.46913 0.55058 0.89683 0.0
Cd422 Cd 0.46889 0.6352 0.89901 0.0
O423 O 0.46992 0.54308 0.86315 0.0
Cd424 Cd 0.47009 0.62603 0.84984 0.0
C425 C 0.43749 0.64894 0.872 0.0
O426 O 0.48615 0.66205 0.87519 0.0
O427 O 0.47419 0.709 0.85544 0.0
O428 O 0.48925 0.61118 0.82568 0.0
C429 C 0.48412 0.70375 0.86844 0.0
O430 O 0.44458 0.65388 0.8885 0.0
C431 C 0.48351 0.63382 0.81101 0.0
O432 O 0.44376 0.63608 0.85553 0.0
O433 O 0.47045 0.64591 0.81329 0.0
C434 C 0.27323 0.20022 0.85644 0.0
O435 O 0.27073 0.17733 0.87279 0.0
Cd436 Cd 0.27159 0.09339 0.87759 0.0
O437 O 0.27592 0.17845 0.83976 0.0
Cd438 Cd 0.27722 0.09371 0.82896 0.0
C439 C 0.30628 0.0767 0.86031 0.0
O440 O 0.25771 0.06241 0.85042 0.0
O441 O 0.27178 0.01208 0.83567 0.0
O442 O 0.26229 0.10823 0.79892 0.0
C443 C 0.26031 0.01973 0.84547 0.0
O444 O 0.29708 0.07522 0.87469 0.0
C445 C 0.26942 0.08107 0.78719 0.0
O446 O 0.30235 0.08533 0.84196 0.0
O447 O 0.28136 0.06592 0.79399 0.0
H448 H 0.99621 0.75413 0.13326 0.0
H449 H 0.01718 0.66559 0.08851 0.0
H450 H 0.98909 0.68324 0.15236 0.0
H451 H 0.00933 0.59456 0.10697 0.0
H452 H 0.02283 0.56546 0.18426 0.0
H453 H 0.01321 0.63479 0.16653 0.0
H454 H 0.9879 0.54322 0.1278 0.0
H455 H 0.99707 0.47358 0.14607 0.0
C456 C 0.99845 0.71946 0.12677 0.0
C457 C 0.00733 0.71512 0.10951 0.0
C458 C 0.99438 0.67894 0.13774 0.0
C459 C 0.99872 0.63369 0.13114 0.0
C460 C 0.00575 0.62914 0.11225 0.0
C461 C 0.01024 0.66971 0.10166 0.0
C462 C 0.01456 0.56031 0.17282 0.0
C463 C 0.01071 0.51436 0.16649 0.0
C464 C 0.00902 0.59995 0.16272 0.0
C465 C 0.99984 0.59414 0.14588 0.0
C466 C 0.99487 0.54844 0.14087 0.0
C467 C 1.0001 0.50874 0.15138 0.0
H468 H 0.21234 0.65391 0.09466 0.0
H469 H 0.23049 0.74045 0.14283 0.0
H470 H 0.2178 0.58232 0.11414 0.0
H471 H 0.23593 0.66854 0.16236 0.0
H472 H 0.21388 0.53829 0.19765 0.0
H473 H 0.21781 0.61192 0.17873 0.0
H474 H 0.23772 0.53248 0.12992 0.0
H475 H 0.2338 0.45865 0.14882 0.0
C476 C 0.2177 0.65752 0.10926 0.0
C477 C 0.22078 0.70258 0.11741 0.0
C478 C 0.22097 0.61659 0.1203 0.0
C479 C 0.22726 0.62014 0.13973 0.0
C480 C 0.23104 0.66508 0.14743 0.0
C481 C 0.22791 0.70606 0.13627 0.0
C482 C 0.21937 0.53669 0.18309 0.0
C483 C 0.22326 0.49282 0.17448 0.0
C484 C 0.22174 0.57882 0.17235 0.0
C485 C 0.22794 0.57758 0.15283 0.0
C486 C 0.23281 0.53411 0.1449 0.0
C487 C 0.23056 0.492 0.15571 0.0
H488 H 0.99041 0.20702 0.89316 0.0
H489 H 0.97789 0.29346 0.84155 0.0
H490 H 0.9938 0.27899 0.91362 0.0
H491 H 0.98124 0.36507 0.86196 0.0
H492 H 0.99258 0.48941 0.89986 0.0
H493 H 0.99859 0.41607 0.8818 0.0
H494 H 0.97449 0.33479 0.92617 0.0
H495 H 0.96853 0.40787 0.94427 0.0
C496 C 0.98867 0.2414 0.88608 0.0
C497 C 0.98366 0.2448 0.8659 0.0
C498 C 0.99059 0.28245 0.89779 0.0
C499 C 0.98771 0.32741 0.88938 0.0
C500 C 0.98368 0.33086 0.86877 0.0
C501 C 0.98162 0.28988 0.85715 0.0
C502 C 0.98883 0.45577 0.906 0.0
C503 C 0.97984 0.45428 0.92322 0.0
C504 C 0.99227 0.41391 0.89566 0.0
C505 C 0.98689 0.36999 0.90251 0.0
C506 C 0.97887 0.36818 0.92065 0.0
C507 C 0.97534 0.41004 0.9309 0.0
H508 H 0.7546 0.48874 0.85725 0.0
H509 H 0.7762 0.40449 0.90293 0.0
H510 H 0.74598 0.41599 0.84077 0.0
H511 H 0.76708 0.33199 0.88705 0.0
H512 H 0.75654 0.20682 0.85369 0.0
H513 H 0.74645 0.27781 0.86967 0.0
H514 H 0.76816 0.36582 0.82524 0.0
H515 H 0.77878 0.29509 0.80993 0.0
C516 C 0.75667 0.4548 0.86455 0.0
C517 C 0.76614 0.45185 0.8812 0.0
C518 C 0.75176 0.41325 0.85508 0.0
C519 C 0.75598 0.36858 0.86255 0.0
C520 C 0.76359 0.36603 0.88107 0.0
C521 C 0.76884 0.40747 0.89017 0.0
C522 C 0.75849 0.24116 0.84664 0.0
C523 C 0.7685 0.24583 0.83069 0.0
C524 C 0.75271 0.28171 0.85583 0.0
C525 C 0.75659 0.32711 0.84874 0.0
C526 C 0.76488 0.33116 0.83087 0.0
C527 C 0.771 0.29075 0.8221 0.0
H528 H 0.01374 0.94039 0.66433 0.0
H529 H 0.99478 -0.00113 0.60984 0.0
H530 H 0.01918 0.02075 0.67639 0.0
H531 H 1.00032 0.07861 0.62141 0.0
H532 H 0.02045 0.2144 0.63591 0.0
H533 H 0.0037 0.14887 0.64171 0.0
H534 H 0.03923 0.05823 0.65875 0.0
H535 H 0.05582 0.12389 0.65356 0.0
C536 C 0.00987 0.97058 0.65563 0.0
C537 C 0.00414 0.96407 0.63606 0.0
C538 C 0.01315 0.01653 0.66236 0.0
C539 C 0.01078 0.05574 0.6494 0.0
C540 C 0.00247 0.04926 0.63169 0.0
C541 C 0.99923 0.00347 0.62501 0.0
C542 C 0.02465 0.18046 0.641 0.0
C543 C 0.03948 0.17376 0.64378 0.0
C544 C 0.01503 0.14319 0.64456 0.0
C545 C 0.02009 0.09842 0.65079 0.0
C546 C 0.03488 0.09251 0.65441 0.0
C547 C 0.04447 0.12984 0.651 0.0
H548 H 0.20472 0.0478 0.63886 0.0
H549 H 0.22994 0.95684 0.59957 0.0
H550 H 0.2194 0.11573 0.62898 0.0
H551 H 0.24475 0.02511 0.58978 0.0
H552 H 0.24146 0.17436 0.55447 0.0
H553 H 0.23782 0.09549 0.56885 0.0
H554 H 0.24406 0.15253 0.6295 0.0
H555 H 0.2477 0.23193 0.61496 0.0
C556 C 0.21347 0.04229 0.62822 0.0
C557 C 0.21604 -0.0027 0.6197 0.0
C558 C 0.22205 0.081 0.62285 0.0
C559 C 0.23331 0.07549 0.60879 0.0
C560 C 0.23616 0.03019 0.60071 0.0
C561 C 0.22762 -0.00867 0.60618 0.0
C562 C 0.24266 0.16959 0.57081 0.0
C563 C 0.24454 0.20899 0.58369 0.0
C564 C 0.24064 0.12442 0.57905 0.0
C565 C 0.24034 0.11827 0.6003 0.0
C566 C 0.24404 0.15669 0.61305 0.0
C567 C 0.24622 0.20195 0.60475 0.0
H568 H 0.98142 -0.00202 0.36904 0.0
H569 H 0.96045 0.90795 0.41355 0.0
H570 H 0.99418 0.92871 0.35554 0.0
H571 H 0.9731 0.83927 0.40019 0.0
H572 H 0.99216 0.7174 0.37479 0.0
H573 H 0.9957 0.79483 0.39114 0.0
H574 H 0.98095 0.8648 0.33626 0.0
H575 H 0.97743 0.78791 0.32009 0.0
C576 C 0.9798 0.96362 0.37622 0.0
C577 C 0.96966 0.95779 0.3919 0.0
C578 C 0.98718 0.9242 0.36862 0.0
C579 C 0.98459 0.87872 0.37677 0.0
C580 C 0.97546 0.87395 0.39373 0.0
C581 C 0.968 0.91312 0.40115 0.0
C582 C 0.99025 0.74948 0.36599 0.0
C583 C 0.98407 0.74708 0.34648 0.0
C584 C 0.99231 0.79366 0.37532 0.0
C585 C 0.98831 0.83559 0.3651 0.0
C586 C 0.98413 0.83311 0.34453 0.0
C587 C 0.98193 0.78907 0.33532 0.0
H588 H 0.75958 0.71258 0.40354 0.0
H589 H 0.79046 0.80045 0.43547 0.0
H590 H 0.74675 0.78382 0.39262 0.0
H591 H 0.77772 0.87149 0.42441 0.0
H592 H 0.75492 -0.00446 0.4031 0.0
H593 H 0.75519 0.92162 0.42297 0.0
H594 H 0.75687 0.84049 0.36694 0.0
H595 H 0.75674 0.91387 0.34732 0.0
C596 C 0.76348 0.74705 0.40851 0.0
C597 C 0.77624 0.75119 0.41987 0.0
C598 C 0.75608 0.78769 0.40239 0.0
C599 C 0.76128 0.83304 0.40759 0.0
C600 C 0.77336 0.83694 0.42037 0.0
C601 C 0.78079 0.79631 0.42645 0.0
C602 C 0.75472 0.96177 0.39512 0.0
C603 C 0.75606 0.95995 0.37379 0.0
C604 C 0.75493 0.91961 0.40644 0.0
C605 C 0.75626 0.87552 0.39647 0.0
C606 C 0.75577 0.8739 0.37505 0.0
C607 C 0.75579 0.91587 0.3638 0.0
H608 H 0.52686 0.76952 0.62066 0.0
H609 H 0.53465 0.6899 0.67596 0.0
H610 H 0.52052 0.69565 0.60299 0.0
H611 H 0.52846 0.61669 0.65854 0.0
H612 H 0.52712 0.48705 0.62607 0.0
H613 H 0.51517 0.55953 0.63761 0.0
H614 H 0.54062 0.64194 0.59509 0.0
H615 H 0.55228 0.56996 0.58343 0.0
C616 C 0.52666 0.73648 0.62921 0.0
C617 C 0.53176 0.73466 0.64935 0.0
C618 C 0.52299 0.69434 0.61915 0.0
C619 C 0.52439 0.65035 0.62922 0.0
C620 C 0.52733 0.64988 0.65027 0.0
C621 C 0.53109 0.69176 0.66022 0.0
C622 C 0.52989 0.52061 0.61891 0.0
C623 C 0.54102 0.52339 0.60447 0.0
C624 C 0.52295 0.56192 0.62535 0.0
C625 C 0.5271 0.60642 0.61749 0.0
C626 C 0.53709 0.60823 0.60141 0.0
C627 C 0.54401 0.56705 0.59499 0.0
H628 H 0.76853 0.7541 0.63788 0.0
H629 H 0.74768 0.67312 0.68538 0.0
H630 H 0.78089 0.68236 0.62633 0.0
H631 H 0.7605 0.6021 0.67456 0.0
H632 H 0.7737 0.47471 0.64923 0.0
H633 H 0.78302 0.55133 0.66115 0.0
H634 H 0.76101 0.62183 0.61164 0.0
H635 H 0.75124 0.54577 0.60043 0.0
C636 C 0.7674 0.72171 0.64674 0.0
C637 C 0.75709 0.71856 0.66235 0.0
C638 C 0.77449 0.68074 0.64012 0.0
C639 C 0.77153 0.63675 0.64941 0.0
C640 C 0.76306 0.63564 0.6672 0.0
C641 C 0.75565 0.67619 0.67339 0.0
C642 C 0.77162 0.50632 0.64021 0.0
C643 C 0.76169 0.50494 0.62409 0.0
C644 C 0.77697 0.55007 0.64703 0.0
C645 C 0.77259 0.59237 0.63747 0.0
C646 C 0.76463 0.58973 0.61923 0.0
C647 C 0.75897 0.54625 0.61281 0.0
H648 H 0.48442 0.49705 0.36442 0.0
H649 H 0.46647 0.41073 0.41283 0.0
H650 H 0.48998 0.42508 0.34508 0.0
H651 H 0.472 0.33902 0.39346 0.0
H652 H 0.48884 0.21546 0.35865 0.0
H653 H 0.49181 0.28919 0.37798 0.0
H654 H 0.47243 0.36806 0.32854 0.0
H655 H 0.46949 0.2946 0.30919 0.0
C656 C 0.48188 0.46271 0.37106 0.0
C657 C 0.4748 0.45934 0.38994 0.0
C658 C 0.48506 0.42167 0.35999 0.0
C659 C 0.48136 0.37673 0.36777 0.0
C660 C 0.47509 0.37328 0.38722 0.0
C661 C 0.4718 0.41429 0.3982 0.0
C662 C 0.4855 0.2487 0.35175 0.0
C663 C 0.47871 0.24938 0.33259 0.0
C664 C 0.48718 0.29074 0.36282 0.0
C665 C 0.48225 0.33404 0.35478 0.0
C666 C 0.47642 0.33514 0.33501 0.0
C667 C 0.47463 0.29309 0.32402 0.0
H668 H 0.27387 0.40949 0.42703 0.0
H669 H 0.25129 0.49568 0.38299 0.0
H670 H 0.267 0.33786 0.40822 0.0
H671 H 0.24507 0.42414 0.36363 0.0
H672 H 0.25563 0.2146 0.3702 0.0
H673 H 0.24707 0.28296 0.38984 0.0
H674 H 0.26747 0.37783 0.34694 0.0
H675 H 0.27644 0.30974 0.32767 0.0
C676 C 0.26682 0.41286 0.41394 0.0
C677 C 0.26312 0.45799 0.40645 0.0
C678 C 0.2629 0.3719 0.40315 0.0
C679 C 0.25562 0.37562 0.38443 0.0
C680 C 0.25062 0.42037 0.37808 0.0
C681 C 0.25414 0.46126 0.38923 0.0
C682 C 0.25766 0.2501 0.36437 0.0
C683 C 0.26668 0.25703 0.34739 0.0
C684 C 0.2528 0.28914 0.37569 0.0
C685 C 0.25655 0.33559 0.36979 0.0
C686 C 0.26418 0.34245 0.35152 0.0
C687 C 0.26936 0.3035 0.34052 0.0
H688 H 0.54194 0.12323 0.08919 0.0
H689 H 0.50933 0.22552 0.10563 0.0
H690 H 0.52718 0.05941 0.10363 0.0
H691 H 0.49485 0.16154 0.12078 0.0
H692 H 0.49125 0.95675 0.11726 0.0
H693 H 0.49215 0.03471 0.10083 0.0
H694 H 0.51402 0.0924 0.15334 0.0
H695 H 0.51382 0.01388 0.16933 0.0
C696 C 0.53143 0.13178 0.09525 0.0
C697 C 0.52674 0.17912 0.09618 0.0
C698 C 0.52302 0.09545 0.10351 0.0
C699 C 0.50994 0.10602 0.11316 0.0
C700 C 0.50482 0.15281 0.11314 0.0
C701 C 0.51309 0.18915 0.10441 0.0
C702 C 0.49534 -0.01324 0.12591 0.0
C703 C 0.50268 -0.02058 0.14439 0.0
C704 C 0.49591 0.03129 0.11641 0.0
C705 C 0.50328 0.06892 0.12582 0.0
C706 C 0.50822 0.06366 0.14593 0.0
C707 C 0.50801 0.01887 0.15515 0.0
H708 H 0.72785 0.96554 0.10467 0.0
H709 H 0.70303 0.05559 0.14485 0.0
H710 H 0.73923 0.03587 0.08988 0.0
H711 H 0.71433 0.12583 0.12991 0.0
H712 H 0.73981 0.24592 0.10582 0.0
H713 H 0.73753 0.17064 0.12438 0.0
H714 H 0.72826 0.09794 0.06772 0.0
H715 H 0.73053 0.17275 0.04929 0.0
C716 C 0.72491 0.00033 0.11044 0.0
C717 C 0.71437 0.00526 0.12565 0.0
C718 C 0.73147 0.04046 0.10204 0.0
C719 C 0.72767 0.08616 0.10877 0.0
C720 C 0.71762 0.09095 0.12464 0.0
C721 C 0.71101 0.05082 0.133 0.0
C722 C 0.73775 0.21354 0.0973 0.0
C723 C 0.73508 0.21502 0.07621 0.0
C724 C 0.73636 0.17063 0.10792 0.0
C725 C 0.73252 0.12876 0.0975 0.0
C726 C 0.73129 0.12963 0.07614 0.0
C727 C 0.7325 0.17247 0.0656 0.0
H728 H 0.49085 0.71514 0.90867 0.0
H729 H 0.49075 0.78701 0.85043 0.0
H730 H 0.49183 0.79217 0.92606 0.0
H731 H 0.49167 0.8634 0.86753 0.0
H732 H 0.48357 -0.00422 0.89769 0.0
H733 H 0.49883 0.92682 0.89115 0.0
H734 H 0.46917 0.8379 0.92486 0.0
H735 H 0.45416 0.90646 0.93159 0.0
C736 C 0.49176 0.74732 0.89962 0.0
C737 C 0.49024 0.7458 0.87834 0.0
C738 C 0.4923 0.79131 0.90954 0.0
C739 C 0.49135 0.83369 0.89816 0.0
C740 C 0.49232 0.83149 0.87678 0.0
C741 C 0.49164 0.78772 0.86693 0.0
C742 C 0.48048 0.96158 0.90399 0.0
C743 C 0.46746 0.95598 0.91457 0.0
C744 C 0.48929 0.92233 0.90044 0.0
C745 C 0.48518 0.87699 0.9074 0.0
C746 C 0.47278 0.87242 0.9195 0.0
C747 C 0.46399 0.91155 0.92301 0.0
H748 H 0.28516 0.81767 0.90954 0.0
H749 H 0.25703 0.72978 0.87286 0.0
H750 H 0.27035 0.88642 0.9023 0.0
H751 H 0.24196 0.79891 0.86583 0.0
H752 H 0.25078 0.01006 0.88455 0.0
H753 H 0.2479 0.93312 0.90162 0.0
H754 H 0.2502 0.86237 0.84307 0.0
H755 H 0.25305 0.93865 0.82634 0.0
C756 C 0.27564 0.81292 0.90023 0.0
C757 C 0.27253 0.76892 0.89113 0.0
C758 C 0.26694 0.85214 0.89643 0.0
C759 C 0.255 0.84811 0.88338 0.0
C760 C 0.25115 0.80304 0.87583 0.0
C761 C 0.25987 0.76371 0.87965 0.0
C762 C 0.24985 0.97812 0.87536 0.0
C763 C 0.25257 -0.02051 0.85433 0.0
C764 C 0.24824 0.93416 0.88509 0.0
C765 C 0.24935 0.89177 0.87374 0.0
C766 C 0.24942 0.89425 0.85231 0.0
C767 C 0.25118 0.93795 0.84268 0.0
H768 H 0.9966 0.62015 0.00269 0.0
H769 H 0.96001 0.53116 0.01652 0.0
H770 H 0.00889 0.59026 0.03301 0.0
H771 H 0.97245 0.49922 0.04591 0.0
H772 H 0.99347 0.46456 0.10494 0.0
H773 H 0.98102 0.50778 0.07832 0.0
H774 H 0.021 0.52373 0.04533 0.0
H775 H 0.03363 0.48313 0.07305 0.0
C776 C 0.99111 0.59464 0.01235 0.0
C777 C 0.97729 0.57822 0.0072 0.0
C778 C 0.99824 0.5769 0.02962 0.0
C779 C 0.99183 0.54168 0.04199 0.0
C780 C 0.97776 0.52678 0.03715 0.0
C781 C 0.97057 0.54511 0.02015 0.0
C782 C 0.99962 0.47725 0.09199 0.0
C783 C 0.01452 0.46977 0.09096 0.0
C784 C 0.99244 0.50199 0.07658 0.0
C785 C 0.99985 0.51894 0.0593 0.0
C786 C 0.01486 0.5119 0.05842 0.0
C787 C 0.02212 0.48807 0.07419 0.0
H788 H 0.29172 0.69402 0.98285 0.0
H789 H 0.2545 0.64636 0.94916 0.0
H790 H 0.27607 0.73484 0.00706 0.0
H791 H 0.23902 0.68954 0.97211 0.0
H792 H 0.21267 0.74209 0.02512 0.0
H793 H 0.22819 0.69698 0.00274 0.0
H794 H 0.26192 0.80146 0.01137 0.0
H795 H 0.24654 0.84467 0.03513 0.0
C796 C 0.28019 0.69175 0.98077 0.0
C797 C 0.27439 0.66659 0.96415 0.0
C798 C 0.27118 0.71595 0.99443 0.0
C799 C 0.25615 0.71644 0.99155 0.0
C800 C 0.25042 0.68975 0.97525 0.0
C801 C 0.25938 0.66477 0.96195 0.0
C802 C 0.22331 0.75594 0.02197 0.0
C803 C 0.22832 0.7972 0.03182 0.0
C804 C 0.2323 0.72992 0.00905 0.0
C805 C 0.24648 0.74502 0.00514 0.0
C806 C 0.25125 0.78769 0.01432 0.0
C807 C 0.24234 0.81312 0.02768 0.0
H808 H 0.03013 0.69752 0.18648 0.0
H809 H 0.99606 0.80135 0.18871 0.0
H810 H 0.0178 0.6499 0.21219 0.0
H811 H 0.9841 0.75538 0.21519 0.0
H812 H 0.9588 0.65091 0.25161 0.0
H813 H 0.97067 0.68713 0.22225 0.0
H814 H 0.0119 0.64457 0.24646 0.0
H815 H 0.99998 0.60643 0.27503 0.0
C816 C 0.02014 0.71068 0.19277 0.0
C817 C 0.01411 0.75333 0.18556 0.0
C818 C 0.01303 0.68333 0.20757 0.0
C819 C 0.99982 0.69833 0.21583 0.0
C820 C 0.99402 0.74173 0.20891 0.0
C821 C 0.00101 0.76864 0.1939 0.0
C822 C 0.97036 0.64818 0.25033 0.0
C823 C 0.97841 0.62587 0.26574 0.0
C824 C 0.97723 0.66964 0.23363 0.0
C825 C 0.99234 0.66997 0.23207 0.0
C826 C 1.00028 0.64505 0.2469 0.0
C827 C 0.99341 0.62306 0.26341 0.0
H828 H 0.24955 0.35675 0.24287 0.0
H829 H 0.21005 0.38459 0.27522 0.0
H830 H 0.26309 0.39599 0.26978 0.0
H831 H 0.22366 0.4221 0.3027 0.0
H832 H 0.24832 0.54359 0.33192 0.0
H833 H 0.23562 0.49555 0.30689 0.0
H834 H 0.27183 0.39984 0.30354 0.0
H835 H 0.28476 0.44921 0.32816 0.0
C836 C 0.24377 0.36992 0.25605 0.0
C837 C 0.22868 0.36795 0.25676 0.0
C838 C 0.25158 0.39252 0.27156 0.0
C839 C 0.24449 0.41332 0.28828 0.0
C840 C 0.22947 0.40788 0.28975 0.0
C841 C 0.22165 0.38572 0.27413 0.0
C842 C 0.25366 0.51263 0.32567 0.0
C843 C 0.26759 0.50041 0.332 0.0
C844 C 0.24627 0.48454 0.31151 0.0
C845 C 0.25255 0.44315 0.30335 0.0
C846 C 0.26665 0.43157 0.30932 0.0
C847 C 0.2741 0.45994 0.32344 0.0
H848 H 0.79137 0.27373 0.91042 0.0
H849 H 0.75733 0.16914 0.91295 0.0
H850 H 0.77927 0.32055 0.93667 0.0
H851 H 0.74548 0.21496 0.93958 0.0
H852 H 0.7205 0.32143 0.97552 0.0
H853 H 0.73237 0.28635 0.94595 0.0
H854 H 0.77372 0.32007 0.97228 0.0
H855 H 0.76185 0.35635 0.00146 0.0
C856 C 0.7814 0.26037 0.91678 0.0
C857 C 0.77539 0.21744 0.90969 0.0
C858 C 0.77445 0.28727 0.93185 0.0
C859 C 0.76132 0.27181 0.94027 0.0
C860 C 0.7554 0.22863 0.93322 0.0
C861 C 0.7623 0.20195 0.91809 0.0
C862 C 0.73212 0.32241 0.97476 0.0
C863 C 0.7402 0.34154 0.99095 0.0
C864 C 0.73895 0.30171 0.95791 0.0
C865 C 0.75405 0.2994 0.95684 0.0
C866 C 0.7621 0.32125 0.97245 0.0
C867 C 0.75526 0.34212 0.98926 0.0
H868 H 0.01277 0.09964 0.78481 0.0
H869 H 0.97945 0.20185 0.77201 0.0
H870 H 0.02863 0.14013 0.76061 0.0
H871 H 0.99539 0.24447 0.74942 0.0
H872 H 0.02139 0.29112 0.69573 0.0
H873 H 0.00606 0.2486 0.719 0.0
H874 H 0.04325 0.20456 0.75381 0.0
H875 H 0.05882 0.24452 0.72902 0.0
C876 C 0.00881 0.13055 0.7767 0.0
C877 C 0.99476 0.14698 0.78007 0.0
C878 C 0.01798 0.15441 0.76305 0.0
C879 C 0.01346 0.19608 0.75286 0.0
C880 C 0.99932 0.21202 0.75632 0.0
C881 C 0.99008 0.18747 0.76942 0.0
C882 C 0.02636 0.27307 0.70852 0.0
C883 C 0.04138 0.27169 0.71055 0.0
C884 C 0.01748 0.24852 0.72207 0.0
C885 C 0.02323 0.22281 0.7386 0.0
C886 C 0.03831 0.22296 0.74112 0.0
C887 C 0.04728 0.24663 0.72711 0.0
H888 H 0.77201 0.40257 0.70143 0.0
H889 H 0.73048 0.45781 0.71842 0.0
H890 H 0.7821 0.43165 0.73335 0.0
H891 H 0.74041 0.48539 0.75083 0.0
H892 H 0.76521 0.5745 0.79687 0.0
H893 H 0.75545 0.54437 0.76489 0.0
H894 H 0.78337 0.42196 0.76896 0.0
H895 H 0.79352 0.45333 0.80059 0.0
C896 C 0.76495 0.42028 0.71215 0.0
C897 C 0.75041 0.42783 0.70732 0.0
C898 C 0.77075 0.43687 0.73057 0.0
C899 C 0.76215 0.46121 0.74482 0.0
C900 C 0.74749 0.46773 0.74015 0.0
C901 C 0.74172 0.45147 0.72162 0.0
C902 C 0.76937 0.54137 0.79084 0.0
C903 C 0.78023 0.51653 0.80125 0.0
C904 C 0.76364 0.52373 0.77255 0.0
C905 C 0.76848 0.48037 0.76424 0.0
C906 C 0.77946 0.45575 0.77462 0.0
C907 C 0.7853 0.47371 0.79283 0.0
H908 H 0.97827 0.08051 0.47609 0.0
H909 H 0.94246 -0.01738 0.47828 0.0
H910 H 0.99084 0.03293 0.50157 0.0
H911 H 0.95522 0.9338 0.50284 0.0
H912 H 0.97737 0.87448 0.55926 0.0
H913 H 0.96393 0.92382 0.53566 0.0
H914 H 0.00333 0.96071 0.50442 0.0
H915 H 0.01687 0.91304 0.52887 0.0
C916 C 0.97299 0.0492 0.48224 0.0
C917 C 0.95934 0.03551 0.47518 0.0
C918 C 0.9803 0.02137 0.49661 0.0
C919 C 0.97423 -0.02123 0.50408 0.0
C920 C 0.96027 0.96641 0.49767 0.0
C921 C 0.95289 -0.00541 0.48354 0.0
C922 C 0.98317 0.89251 0.54716 0.0
C923 C 0.99822 0.88972 0.54596 0.0
C924 C 0.97542 0.92098 0.53356 0.0
C925 C 0.98248 0.94697 0.51816 0.0
C926 C 0.99751 0.94236 0.51639 0.0
C927 C 0.00529 0.91436 0.5302 0.0
H928 H 0.29518 0.27406 0.42148 0.0
H929 H 0.25919 0.17691 0.42415 0.0
H930 H 0.28426 0.32254 0.44823 0.0
H931 H 0.24851 0.2242 0.45116 0.0
H932 H 0.22571 0.33094 0.48847 0.0
H933 H 0.23675 0.29706 0.45801 0.0
H934 H 0.27882 0.32364 0.48354 0.0
H935 H 0.26781 0.35922 0.51346 0.0
C936 C 0.28506 0.26263 0.428 0.0
C937 C 0.27811 0.22142 0.42076 0.0
C938 C 0.27877 0.29046 0.44334 0.0
C939 C 0.26538 0.27773 0.45178 0.0
C940 C 0.25861 0.236 0.44471 0.0
C941 C 0.26486 0.20836 0.42939 0.0
C942 C 0.23731 0.33077 0.4873 0.0
C943 C 0.24585 0.34736 0.50351 0.0
C944 C 0.24367 0.31073 0.46995 0.0
C945 C 0.2587 0.30632 0.46849 0.0
C946 C 0.26723 0.32634 0.48402 0.0
C947 C 0.26088 0.34679 0.50127 0.0
H948 H 0.20157 0.9482 0.71821 0.0
H949 H 0.23957 0.89751 0.68743 0.0
H950 H 0.21659 -0.00558 0.7415 0.0
H951 H 0.25452 0.94527 0.70986 0.0
H952 H 0.27805 0.00224 0.7662 0.0
H953 H 0.26391 0.95542 0.74235 0.0
H954 H 0.2309 0.06346 0.74295 0.0
H955 H 0.24484 0.10918 0.76767 0.0
C956 C 0.21313 0.94654 0.71654 0.0
C957 C 0.21934 0.9189 0.70102 0.0
C958 C 0.22177 0.97369 0.72968 0.0
C959 C 0.23684 0.97439 0.72747 0.0
C960 C 0.24302 0.94549 0.71229 0.0
C961 C 0.2344 0.91794 0.69936 0.0
C962 C 0.26793 0.0166 0.7609 0.0
C963 C 0.26259 0.05949 0.7689 0.0
C964 C 0.25974 -0.01044 0.74719 0.0
C965 C 0.24606 0.00501 0.74088 0.0
C966 C 0.24117 0.04955 0.74788 0.0
C967 C 0.24928 0.07628 0.76181 0.0
H968 H 0.80501 0.67012 0.50889 0.0
H969 H 0.76556 0.60101 0.49066 0.0
H970 H 0.79293 0.70274 0.53885 0.0
H971 H 0.75337 0.6349 0.51999 0.0
H972 H 0.73639 0.68019 0.58192 0.0
H973 H 0.74975 0.63836 0.55544 0.0
H974 H 0.77613 0.76344 0.54617 0.0
H975 H 0.76312 0.80439 0.57322 0.0
C976 C 0.79383 0.66118 0.51145 0.0
C977 C 0.78628 0.63296 0.4973 0.0
C978 C 0.78682 0.68049 0.52849 0.0
C979 C 0.77205 0.67233 0.53177 0.0
C980 C 0.76474 0.64189 0.51819 0.0
C981 C 0.77177 0.62237 0.50126 0.0
C982 C 0.74498 0.69886 0.57411 0.0
C983 C 0.7486 0.74582 0.57958 0.0
C984 C 0.75267 0.67483 0.55889 0.0
C985 C 0.76412 0.69726 0.54857 0.0
C986 C 0.76762 0.74447 0.55398 0.0
C987 C 0.76002 0.76828 0.56935 0.0
H988 H 0.73975 0.90548 0.19482 0.0
H989 H 0.70053 0.93079 0.2282 0.0
H990 H 0.75309 0.95196 0.21966 0.0
H991 H 0.71401 0.9754 0.25383 0.0
H992 H 0.73818 0.09286 0.28575 0.0
H993 H 0.72558 0.04855 0.25917 0.0
H994 H 0.76248 0.95675 0.25225 0.0
H995 H 0.77523 0.00258 0.27794 0.0
C996 C 0.73402 0.9199 0.2078 0.0
C997 C 0.71905 0.91429 0.20952 0.0
C998 C 0.7417 0.94672 0.22212 0.0
C999 C 0.73468 0.96816 0.23878 0.0
C1000 C 0.71978 0.96064 0.24097 0.0
C1001 C 0.71205 0.93435 0.22644 0.0
C1002 C 0.74371 0.06394 0.27817 0.0
C1003 C 0.75774 0.05144 0.28394 0.0
C1004 C 0.7364 0.03792 0.26314 0.0
C1005 C 0.74285 -0.00175 0.2537 0.0
C1006 C 0.75713 -0.01283 0.25892 0.0
C1007 C 0.7645 0.01362 0.27371 0.0
H1008 H 0.47097 0.5 0.48167 0.0
H1009 H 0.50439 0.60116 0.46707 0.0
H1010 H 0.48785 0.45341 0.5013 0.0
H1011 H 0.52126 0.55641 0.48811 0.0
H1012 H 0.55256 0.44615 0.5108 0.0
H1013 H 0.5353 0.48897 0.48963 0.0
H1014 H 0.50104 0.44359 0.52986 0.0
H1015 H 0.51802 0.39845 0.54978 0.0
C1016 C 0.48185 0.51325 0.48326 0.0
C1017 C 0.48629 0.5545 0.47287 0.0
C1018 C 0.49163 0.48635 0.49459 0.0
C1019 C 0.50612 0.50051 0.49634 0.0
C1020 C 0.51036 0.5433 0.48675 0.0
C1021 C 0.50061 0.56962 0.47497 0.0
C1022 C 0.54127 0.44427 0.51469 0.0
C1023 C 0.5367 0.41851 0.5319 0.0
C1024 C 0.53135 0.46965 0.50278 0.0
C1025 C 0.51665 0.47074 0.50806 0.0
C1026 C 0.51212 0.44342 0.52491 0.0
C1027 C 0.52195 0.41729 0.53646 0.0
H1028 H 0.55269 0.75773 0.7377 0.0
H1029 H 0.51704 0.85497 0.73251 0.0
H1030 H 0.53821 0.7047 0.7583 0.0
H1031 H 0.50267 0.80331 0.75447 0.0
H1032 H 0.4749 0.68262 0.77678 0.0
H1033 H 0.4899 0.73219 0.75478 0.0
H1034 H 0.52748 0.68775 0.78857 0.0
H1035 H 0.51268 0.63625 0.80936 0.0
C1036 C 0.54188 0.76869 0.74159 0.0
C1037 C 0.53605 0.81077 0.73348 0.0
C1038 C 0.53349 0.73803 0.75346 0.0
C1039 C 0.5191 0.74903 0.758 0.0
C1040 C 0.51354 0.79267 0.75087 0.0
C1041 C 0.52187 0.82291 0.73858 0.0
C1042 C 0.48642 0.68245 0.77904 0.0
C1043 C 0.49257 0.65525 0.79478 0.0
C1044 C 0.49504 0.71165 0.76669 0.0
C1045 C 0.50997 0.71507 0.77002 0.0
C1046 C 0.51611 0.68605 0.78521 0.0
C1047 C 0.50757 0.65622 0.79723 0.0
H1048 H 0.50577 0.0916 0.25693 0.0
H1049 H 0.46897 0.17029 0.23549 0.0
H1050 H 0.52013 0.12396 0.22895 0.0
H1051 H 0.48334 0.2046 0.2084 0.0
H1052 H 0.50853 0.23656 0.15219 0.0
H1053 H 0.49475 0.19438 0.17778 0.0
H1054 H 0.53181 0.1932 0.21763 0.0
H1055 H 0.54594 0.23311 0.19105 0.0
C1056 C 0.5007 0.11537 0.2461 0.0
C1057 C 0.48618 0.12803 0.24838 0.0
C1058 C 0.509 0.13456 0.23019 0.0
C1059 C 0.50303 0.16742 0.21633 0.0
C1060 C 0.48837 0.17885 0.21839 0.0
C1061 C 0.48005 0.15914 0.23404 0.0
C1062 C 0.51375 0.22763 0.16648 0.0
C1063 C 0.52828 0.23897 0.16974 0.0
C1064 C 0.50579 0.20342 0.18127 0.0
C1065 C 0.51199 0.1907 0.20009 0.0
C1066 C 0.52663 0.20179 0.20331 0.0
C1067 C 0.53473 0.22519 0.18819 0.0
H1068 H 0.4404 0.02323 0.00288 0.0
H1069 H 0.47889 0.09394 0.98188 0.0
H1070 H 0.45399 -0.01294 0.03068 0.0
H1071 H 0.49258 0.0564 0.00897 0.0
H1072 H 0.51278 0.00278 0.06786 0.0
H1073 H 0.49834 0.04806 0.04361 0.0
H1074 H 0.4708 0.92549 0.03489 0.0
H1075 H 0.48489 0.88122 0.05975 0.0
C1076 C 0.4517 0.03172 0.00438 0.0
C1077 C 0.45852 0.06148 0.99009 0.0
C1078 C 0.45958 0.01038 0.02017 0.0
C1079 C 0.47452 0.01788 0.02196 0.0
C1080 C 0.48113 0.04981 0.0083 0.0
C1081 C 0.47323 0.07145 0.99266 0.0
C1082 C 0.50372 -0.01458 0.06059 0.0
C1083 C 0.50006 0.93825 0.06561 0.0
C1084 C 0.4954 0.01143 0.04667 0.0
C1085 C 0.48327 -0.00924 0.03724 0.0
C1086 C 0.47981 0.94322 0.04211 0.0
C1087 C 0.48802 0.91748 0.0562 0.0
H1088 H 0.15417 0.34256 0.20524 0.0
H1089 H 0.15756 0.43115 0.15152 0.0
H1090 H 0.12797 0.34707 0.20316 0.0
H1091 H 0.13161 0.43697 0.14984 0.0
H1092 H 0.08532 0.39394 0.13798 0.0
H1093 H 0.11134 0.39046 0.14118 0.0
H1094 H 0.1075 0.39748 0.20687 0.0
H1095 H 0.08144 0.39935 0.20366 0.0
C1096 C 0.14934 0.36343 0.19315 0.0
C1097 C 0.15798 0.38612 0.17847 0.0
C1098 C 0.13432 0.3662 0.19198 0.0
C1099 C 0.1276 0.39204 0.17619 0.0
C1100 C 0.13632 0.41578 0.16191 0.0
C1101 C 0.15126 0.41268 0.16297 0.0
C1102 C 0.09001 0.39491 0.1531 0.0
C1103 C 0.08125 0.39695 0.17054 0.0
C1104 C 0.10498 0.39314 0.15496 0.0
C1105 C 0.11161 0.39379 0.17431 0.0
C1106 C 0.10282 0.39619 0.19174 0.0
C1107 C 0.08784 0.39762 0.18988 0.0
H1108 H 0.08212 0.83123 0.13929 0.0
H1109 H 0.07968 0.82103 0.07357 0.0
H1110 H 0.10816 0.8292 0.13745 0.0
H1111 H 0.10585 0.81727 0.07174 0.0
H1112 H 0.15386 0.86056 0.07591 0.0
H1113 H 0.12758 0.8623 0.076 0.0
H1114 H 0.12721 0.77646 0.13078 0.0
H1115 H 0.15325 0.77624 0.13106 0.0
C1116 C 0.08714 0.8281 0.12443 0.0
C1117 C 0.07877 0.82612 0.10659 0.0
C1118 C 0.10212 0.82665 0.12336 0.0
C1119 C 0.10919 0.82264 0.10444 0.0
C1120 C 0.10082 0.82086 0.08656 0.0
C1121 C 0.08579 0.82271 0.08762 0.0
C1122 C 0.14813 0.84189 0.08788 0.0
C1123 C 0.15567 0.81871 0.10358 0.0
C1124 C 0.13305 0.84273 0.08791 0.0
C1125 C 0.12521 0.82004 0.10356 0.0
C1126 C 0.13282 0.79546 0.1188 0.0
C1127 C 0.14781 0.79505 0.11887 0.0
H1128 H 0.84497 0.56269 0.86546 0.0
H1129 H 0.83511 0.55711 0.92987 0.0
H1130 H 0.87051 0.56208 0.87339 0.0
H1131 H 0.86068 0.55517 0.9378 0.0
H1132 H 0.90805 0.6049 0.94413 0.0
H1133 H 0.88215 0.60332 0.93773 0.0
H1134 H 0.88899 0.51146 0.88573 0.0
H1135 H 0.91469 0.51411 0.89175 0.0
C1136 C 0.84823 0.56089 0.88131 0.0
C1137 C 0.83793 0.55991 0.89699 0.0
C1138 C 0.86292 0.56029 0.88589 0.0
C1139 C 0.86773 0.55842 0.90628 0.0
C1140 C 0.85742 0.55724 0.92195 0.0
C1141 C 0.84272 0.55801 0.91737 0.0
C1142 C 0.90399 0.58411 0.93144 0.0
C1143 C 0.91349 0.56004 0.91836 0.0
C1144 C 0.88913 0.58307 0.92778 0.0
C1145 C 0.88344 0.55772 0.91102 0.0
C1146 C 0.89295 0.53234 0.89845 0.0
C1147 C 0.90774 0.53362 0.90202 0.0
H1148 H 0.91815 0.09399 0.81614 0.0
H1149 H 0.91542 0.19064 0.86728 0.0
H1150 H 0.89196 0.09587 0.81273 0.0
H1151 H 0.88952 0.19377 0.86352 0.0
H1152 H 0.84365 0.14243 0.8692 0.0
H1153 H 0.86971 0.14311 0.87013 0.0
H1154 H 0.87099 0.14246 0.80418 0.0
H1155 H 0.84476 0.1403 0.80325 0.0
C1156 C 0.91199 0.11621 0.82642 0.0
C1157 C 0.91887 0.14169 0.84212 0.0
C1158 C 0.89698 0.1174 0.82445 0.0
C1159 C 0.88856 0.1444 0.83806 0.0
C1160 C 0.89557 0.17152 0.85312 0.0
C1161 C 0.91048 0.16997 0.85519 0.0
C1162 C 0.84944 0.14259 0.85486 0.0
C1163 C 0.84206 0.14148 0.83616 0.0
C1164 C 0.86445 0.14326 0.85539 0.0
C1165 C 0.87253 0.14324 0.83722 0.0
C1166 C 0.86515 0.14206 0.81847 0.0
C1167 C 0.85009 0.14114 0.81795 0.0
H1168 H 0.14359 0.84747 0.65826 0.0
H1169 H 0.14396 0.90643 0.59734 0.0
H1170 H 0.11736 0.84315 0.65703 0.0
H1171 H 0.11794 0.90353 0.59634 0.0
H1172 H 0.07244 0.84391 0.5918 0.0
H1173 H 0.09858 0.84891 0.59347 0.0
H1174 H 0.09594 0.88943 0.65701 0.0
H1175 H 0.06993 0.88299 0.6555 0.0
C1176 C 0.13809 0.86001 0.64473 0.0
C1177 C 0.14591 0.87703 0.62789 0.0
C1178 C 0.12303 0.85769 0.64401 0.0
C1179 C 0.11546 0.87267 0.62649 0.0
C1180 C 0.12334 0.89066 0.60989 0.0
C1181 C 0.13832 0.89265 0.61055 0.0
C1182 C 0.07744 0.85408 0.60609 0.0
C1183 C 0.06905 0.86293 0.62349 0.0
C1184 C 0.09245 0.85713 0.60706 0.0
C1185 C 0.09945 0.86949 0.62542 0.0
C1186 C 0.09101 0.87896 0.64272 0.0
C1187 C 0.07604 0.8756 0.64178 0.0
H1188 H 0.10656 0.28528 0.58963 0.0
H1189 H 0.11531 0.32438 0.65224 0.0
H1190 H 0.13193 0.29161 0.58162 0.0
H1191 H 0.14084 0.33169 0.64403 0.0
H1192 H 0.17675 0.35286 0.56921 0.0
H1193 H 0.15114 0.34869 0.57738 0.0
H1194 H 0.16119 0.28281 0.63523 0.0
H1195 H 0.18659 0.28774 0.62734 0.0
C1196 C 0.11389 0.29544 0.60173 0.0
C1197 C 0.10883 0.30424 0.62165 0.0
C1198 C 0.12847 0.29943 0.59704 0.0
C1199 C 0.13847 0.31237 0.61211 0.0
C1200 C 0.13346 0.32114 0.63207 0.0
C1201 C 0.11881 0.31711 0.63679 0.0
C1202 C 0.17348 0.33737 0.58362 0.0
C1203 C 0.18378 0.32075 0.59758 0.0
C1204 C 0.15879 0.33487 0.58832 0.0
C1205 C 0.15407 0.31564 0.60706 0.0
C1206 C 0.1644 0.29867 0.62086 0.0
C1207 C 0.17901 0.3012 0.6162 0.0
H1208 H 0.8264 0.08679 0.34159 0.0
H1209 H 0.82033 0.03676 0.40341 0.0
H1210 H 0.85239 0.08408 0.34646 0.0
H1211 H 0.84618 0.03304 0.40807 0.0
H1212 H 0.89249 0.08528 0.41699 0.0
H1213 H 0.86651 0.08524 0.41196 0.0
H1214 H 0.87227 0.03027 0.35091 0.0
H1215 H 0.89816 0.03134 0.35573 0.0
C1216 C 0.83059 0.07474 0.35612 0.0
C1217 C 0.82124 0.06221 0.3721 0.0
C1218 C 0.8455 0.07303 0.35892 0.0
C1219 C 0.85141 0.0586 0.37773 0.0
C1220 C 0.84204 0.0452 0.39353 0.0
C1221 C 0.82718 0.04703 0.39077 0.0
C1222 C 0.88821 0.07293 0.40254 0.0
C1223 C 0.89745 0.05845 0.38678 0.0
C1224 C 0.8733 0.07275 0.39966 0.0
C1225 C 0.86727 0.05792 0.38097 0.0
C1226 C 0.87652 0.04271 0.36536 0.0
C1227 C 0.8914 0.043 0.36821 0.0
H1228 H 0.92226 0.67078 0.39399 0.0
H1229 H 0.90995 0.6121 0.33553 0.0
H1230 H 0.89732 0.67113 0.40467 0.0
H1231 H 0.8848 0.61189 0.34646 0.0
H1232 H 0.84019 0.66442 0.36563 0.0
H1233 H 0.86507 0.66496 0.35461 0.0
H1234 H 0.87824 0.61669 0.41434 0.0
H1235 H 0.85318 0.61682 0.42559 0.0
C1236 C 0.91424 0.65794 0.38334 0.0
C1237 C 0.9182 0.64132 0.36383 0.0
C1238 C 0.89989 0.6578 0.3896 0.0
C1239 C 0.88901 0.64113 0.37656 0.0
C1240 C 0.89289 0.62531 0.35688 0.0
C1241 C 0.90731 0.62537 0.35059 0.0
C1242 C 0.84834 0.65397 0.37652 0.0
C1243 C 0.8446 0.64061 0.39659 0.0
C1244 C 0.86266 0.65395 0.37009 0.0
C1245 C 0.87371 0.64068 0.3835 0.0
C1246 C 0.87002 0.6276 0.40363 0.0
C1247 C 0.85564 0.62752 0.41009 0.0
H1248 H 0.61591 0.37825 0.57624 0.0
H1249 H 0.61328 0.46305 0.63115 0.0
H1250 H 0.64211 0.37676 0.57948 0.0
H1251 H 0.63925 0.46246 0.6341 0.0
H1252 H 0.68991 0.41723 0.58306 0.0
H1253 H 0.66404 0.42359 0.57814 0.0
H1254 H 0.65763 0.40678 0.64307 0.0
H1255 H 0.6835 0.40151 0.64806 0.0
C1256 C 0.62091 0.39718 0.58879 0.0
C1257 C 0.61246 0.42036 0.60352 0.0
C1258 C 0.63593 0.3964 0.59066 0.0
C1259 C 0.64282 0.41894 0.60724 0.0
C1260 C 0.63435 0.4437 0.62143 0.0
C1261 C 0.61941 0.4443 0.61963 0.0
C1262 C 0.683 0.4151 0.59633 0.0
C1263 C 0.68884 0.40895 0.61599 0.0
C1264 C 0.66813 0.41843 0.59346 0.0
C1265 C 0.6587 0.41574 0.61018 0.0
C1266 C 0.66455 0.40977 0.62985 0.0
C1267 C 0.67942 0.40651 0.63272 0.0
H1268 H 0.60447 0.77795 0.62832 0.0
H1269 H 0.60704 0.8509 0.68629 0.0
H1270 H 0.6304 0.76817 0.62822 0.0
H1271 H 0.6331 0.84252 0.68588 0.0
H1272 H 0.67881 0.7888 0.68767 0.0
H1273 H 0.65268 0.78863 0.68859 0.0
H1274 H 0.6516 0.81396 0.62352 0.0
H1275 H 0.67774 0.81255 0.62252 0.0
C1276 C 0.61057 0.79194 0.64108 0.0
C1277 C 0.60364 0.81539 0.65729 0.0
C1278 C 0.62549 0.7866 0.64094 0.0
C1279 C 0.63394 0.80485 0.65694 0.0
C1280 C 0.62697 0.82743 0.67339 0.0
C1281 C 0.612 0.83247 0.6736 0.0
C1282 C 0.673 0.79388 0.67351 0.0
C1283 C 0.68041 0.8008 0.65502 0.0
C1284 C 0.65798 0.79416 0.67407 0.0
C1285 C 0.64995 0.80167 0.65618 0.0
C1286 C 0.65737 0.80746 0.63759 0.0
C1287 C 0.6724 0.80684 0.63701 0.0
H1288 H 0.40841 0.61857 0.43596 0.0
H1289 H 0.40655 0.51559 0.38704 0.0
H1290 H 0.38209 0.61902 0.43751 0.0
H1291 H 0.38054 0.51499 0.38894 0.0
H1292 H 0.33601 0.5716 0.3775 0.0
H1293 H 0.36202 0.56905 0.37924 0.0
H1294 H 0.36008 0.57412 0.44511 0.0
H1295 H 0.33386 0.57792 0.44335 0.0
C1296 C 0.40241 0.59544 0.42582 0.0
C1297 C 0.40956 0.56759 0.41119 0.0
C1298 C 0.38733 0.59563 0.42671 0.0
C1299 C 0.37917 0.56773 0.41306 0.0
C1300 C 0.38643 0.53799 0.39927 0.0
C1301 C 0.40139 0.53812 0.39827 0.0
C1302 C 0.34107 0.57211 0.39239 0.0
C1303 C 0.3328 0.57472 0.41028 0.0
C1304 C 0.35604 0.57035 0.3934 0.0
C1305 C 0.36319 0.57082 0.41234 0.0
C1306 C 0.35494 0.57396 0.43027 0.0
C1307 C 0.3399 0.57587 0.42926 0.0
H1308 H 0.41363 0.12213 0.3598 0.0
H1309 H 0.4119 0.13684 0.29422 0.0
H1310 H 0.38771 0.12514 0.36154 0.0
H1311 H 0.38564 0.14208 0.29599 0.0
H1312 H 0.3377 0.10419 0.30631 0.0
H1313 H 0.36376 0.10081 0.30245 0.0
H1314 H 0.36871 0.17828 0.35908 0.0
H1315 H 0.3428 0.17953 0.36332 0.0
C1316 C 0.40769 0.1265 0.3457 0.0
C1317 C 0.41488 0.12963 0.32687 0.0
C1318 C 0.39275 0.12863 0.34672 0.0
C1319 C 0.38446 0.13477 0.32897 0.0
C1320 C 0.39162 0.13708 0.31 0.0
C1321 C 0.40668 0.13425 0.30896 0.0
C1322 C 0.34438 0.12057 0.31789 0.0
C1323 C 0.33816 0.14168 0.33524 0.0
C1324 C 0.35936 0.11887 0.31563 0.0
C1325 C 0.36846 0.13874 0.33055 0.0
C1326 C 0.36214 0.16133 0.34752 0.0
C1327 C 0.34723 0.16239 0.34992 0.0
H1328 H 0.64495 0.84248 0.16621 0.0
H1329 H 0.64283 0.92976 0.11199 0.0
H1330 H 0.61872 0.8371 0.16661 0.0
H1331 H 0.61681 0.92592 0.11277 0.0
H1332 H 0.57216 0.86527 0.10472 0.0
H1333 H 0.59821 0.87117 0.10592 0.0
H1334 H 0.59663 0.87851 0.1718 0.0
H1335 H 0.57055 0.87085 0.17059 0.0
C1336 C 0.63889 0.8611 0.15458 0.0
C1337 C 0.646 0.88616 0.13897 0.0
C1338 C 0.62384 0.85814 0.15481 0.0
C1339 C 0.61558 0.88055 0.13955 0.0
C1340 C 0.62275 0.90708 0.12445 0.0
C1341 C 0.63772 0.9096 0.1241 0.0
C1342 C 0.57735 0.86816 0.11947 0.0
C1343 C 0.56923 0.86767 0.13754 0.0
C1344 C 0.59233 0.87186 0.12018 0.0
C1345 C 0.5996 0.8757 0.13897 0.0
C1346 C 0.59146 0.87506 0.15706 0.0
C1347 C 0.57647 0.87095 0.15636 0.0
H1348 H 0.67453 0.28421 0.10625 0.0
H1349 H 0.66886 0.35975 0.04935 0.0
H1350 H 0.64869 0.27785 0.11014 0.0
H1351 H 0.64282 0.35456 0.05356 0.0
H1352 H 0.59724 0.29528 0.05706 0.0
H1353 H 0.62312 0.30031 0.05292 0.0
H1354 H 0.62786 0.32331 0.11781 0.0
H1355 H 0.60187 0.31679 0.12204 0.0
C1356 C 0.66777 0.29969 0.09455 0.0
C1357 C 0.67383 0.32257 0.07745 0.0
C1358 C 0.65289 0.29633 0.0969 0.0
C1359 C 0.64358 0.31594 0.08228 0.0
C1360 C 0.64963 0.33851 0.06505 0.0
C1361 C 0.66458 0.34165 0.06263 0.0
C1362 C 0.60377 0.30131 0.0705 0.0
C1363 C 0.59742 0.30558 0.08992 0.0
C1364 C 0.61866 0.30458 0.06807 0.0
C1365 C 0.62766 0.31248 0.08497 0.0
C1366 C 0.62132 0.31658 0.10444 0.0
C1367 C 0.60638 0.31302 0.1069 0.0
H1368 H 0.39905 0.02891 0.86491 0.0
H1369 H 0.38868 0.09219 0.92319 0.0
H1370 H 0.37386 0.03005 0.85539 0.0
H1371 H 0.36334 0.09424 0.91341 0.0
H1372 H 0.31759 0.05051 0.89711 0.0
H1373 H 0.34269 0.04482 0.90687 0.0
H1374 H 0.35529 0.08495 0.84576 0.0
H1375 H 0.33004 0.0897 0.83581 0.0
C1376 C 0.39139 0.0431 0.87576 0.0
C1377 C 0.39596 0.06058 0.89486 0.0
C1378 C 0.37691 0.04407 0.87018 0.0
C1379 C 0.36651 0.06261 0.8835 0.0
C1380 C 0.37101 0.07927 0.9028 0.0
C1381 C 0.38556 0.07821 0.90842 0.0
C1382 C 0.32568 0.05795 0.88566 0.0
C1383 C 0.32173 0.07067 0.86562 0.0
C1384 C 0.34013 0.05501 0.89135 0.0
C1385 C 0.35109 0.06475 0.87721 0.0
C1386 C 0.34716 0.07671 0.85705 0.0
C1387 C 0.33266 0.07957 0.85132 0.0
H1388 H 0.42169 0.68449 0.90354 0.0
H1389 H 0.41734 0.62743 0.84256 0.0
H1390 H 0.39575 0.6893 0.90654 0.0
H1391 H 0.3912 0.63153 0.84575 0.0
H1392 H 0.34523 0.68658 0.8518 0.0
H1393 H 0.37121 0.68648 0.84822 0.0
H1394 H 0.37538 0.63641 0.9103 0.0
H1395 H 0.34929 0.63734 0.91405 0.0
C1396 C 0.4152 0.67302 0.89071 0.0
C1397 C 0.42165 0.65535 0.8728 0.0
C1398 C 0.40028 0.67548 0.89253 0.0
C1399 C 0.39135 0.66032 0.87651 0.0
C1400 C 0.39777 0.64382 0.85836 0.0
C1401 C 0.41276 0.6414 0.85652 0.0
C1402 C 0.35165 0.6757 0.86477 0.0
C1403 C 0.34511 0.66195 0.88326 0.0
C1404 C 0.36658 0.67534 0.86262 0.0
C1405 C 0.37542 0.66126 0.87891 0.0
C1406 C 0.36891 0.648 0.89749 0.0
C1407 C 0.35394 0.64836 0.89965 0.0
H1408 H 0.03233 -0.02098 0.15546 0.0
H1409 H 0.01758 0.0159 0.09494 0.0
H1410 H 0.032 0.06283 0.16502 0.0
H1411 H 0.01674 0.09947 0.1047 0.0
H1412 H 0.0336 0.24768 0.12128 0.0
H1413 H 0.03252 0.16391 0.11182 0.0
H1414 H 0.0169 0.1289 0.17215 0.0
H1415 H 0.01848 0.21248 0.18181 0.0
C1416 C 0.02884 0.00495 0.14428 0.0
C1417 C 0.02506 -0.00923 0.12441 0.0
C1418 C 0.02857 0.05305 0.14979 0.0
C1419 C 0.02438 0.08808 0.13562 0.0
C1420 C 0.02028 0.07366 0.1159 0.0
C1421 C 0.02068 0.02564 0.11033 0.0
C1422 C 0.02987 0.22214 0.13249 0.0
C1423 C 0.02619 0.23677 0.15232 0.0
C1424 C 0.02917 0.17406 0.12704 0.0
C1425 C 0.02464 0.13948 0.14123 0.0
C1426 C 0.02068 0.15435 0.16094 0.0
C1427 C 0.0215 0.20237 0.16644 0.0
H1428 H 0.22112 0.96426 0.15543 0.0
H1429 H 0.2041 0.00325 0.09643 0.0
H1430 H 0.22308 0.04777 0.16468 0.0
H1431 H 0.2055 0.0873 0.10597 0.0
H1432 H 0.21887 0.23659 0.12386 0.0
H1433 H 0.22057 0.15361 0.11352 0.0
H1434 H 0.2073 0.10992 0.17397 0.0
H1435 H 0.20614 0.19301 0.1845 0.0
C1436 C 0.21782 -0.00917 0.1444 0.0
C1437 C 0.21234 0.9773 0.12526 0.0
C1438 C 0.21884 0.03873 0.14977 0.0
C1439 C 0.21422 0.07433 0.13624 0.0
C1440 C 0.20926 0.06085 0.11673 0.0
C1441 C 0.20842 0.01273 0.11124 0.0
C1442 C 0.21641 0.20924 0.13499 0.0
C1443 C 0.21233 0.22135 0.15501 0.0
C1444 C 0.2173 0.16164 0.12901 0.0
C1445 C 0.21401 0.12499 0.14284 0.0
C1446 C 0.21014 0.13716 0.16297 0.0
C1447 C 0.2094 0.18481 0.16902 0.0
H1448 H 0.96482 0.71334 0.86997 0.0
H1449 H 0.97196 0.75145 0.93311 0.0
H1450 H 0.96627 0.79655 0.86026 0.0
H1451 H 0.97398 0.83503 0.92323 0.0
H1452 H 0.9578 -0.0201 0.90273 0.0
H1453 H 0.95862 0.89672 0.91214 0.0
H1454 H 0.98126 0.86475 0.8562 0.0
H1455 H 0.97997 0.94875 0.84634 0.0
C1456 C 0.96689 0.73946 0.88179 0.0
C1457 C 0.96816 0.72572 0.90238 0.0
C1458 C 0.96784 0.78728 0.87615 0.0
C1459 C 0.97021 0.82267 0.89093 0.0
C1460 C 0.97188 0.8088 0.91148 0.0
C1461 C 0.97079 0.76088 0.91716 0.0
C1462 C 0.96302 0.95531 0.89239 0.0
C1463 C 0.96884 0.97108 0.87374 0.0
C1464 C 0.96359 0.90747 0.89792 0.0
C1465 C 0.97012 0.87391 0.88507 0.0
C1466 C 0.97602 0.88958 0.8664 0.0
C1467 C 0.97533 0.93769 0.86075 0.0
H1468 H 0.79352 -0.01318 0.88137 0.0
H1469 H 0.78122 0.95244 0.81946 0.0
H1470 H 0.79259 0.90239 0.89025 0.0
H1471 H 0.77983 0.86865 0.82845 0.0
H1472 H 0.77747 0.75037 0.9033 0.0
H1473 H 0.77694 0.83504 0.8951 0.0
H1474 H 0.79583 0.80521 0.83621 0.0
H1475 H 0.79593 0.72062 0.84413 0.0
C1476 C 0.79044 0.96134 0.86974 0.0
C1477 C 0.78757 0.97628 0.84968 0.0
C1478 C 0.78984 0.91296 0.87484 0.0
C1479 C 0.78626 0.87864 0.86001 0.0
C1480 C 0.78295 0.89394 0.84013 0.0
C1481 C 0.78367 0.94209 0.83501 0.0
C1482 C 0.78146 0.7619 0.88857 0.0
C1483 C 0.78671 0.72872 0.87434 0.0
C1484 C 0.78124 0.81048 0.88393 0.0
C1485 C 0.78632 0.82699 0.86499 0.0
C1486 C 0.79158 0.79372 0.8508 0.0
C1487 C 0.79172 0.74517 0.85538 0.0
H1488 H 0.01469 0.67031 0.65487 0.0
H1489 H 0.02774 0.68447 0.59183 0.0
H1490 H 0.02097 0.58623 0.65406 0.0
H1491 H 0.03449 0.60086 0.59123 0.0
H1492 H 0.05249 0.46207 0.65412 0.0
H1493 H 0.04305 0.54278 0.65357 0.0
H1494 H 0.0268 0.5197 0.59251 0.0
H1495 H 0.03668 0.43954 0.59279 0.0
C1496 C 0.01877 0.65535 0.64078 0.0
C1497 C 0.02084 0.68411 0.62346 0.0
C1498 C 0.02249 0.60728 0.64037 0.0
C1499 C 0.02849 0.58704 0.62271 0.0
C1500 C 0.02982 0.61521 0.60506 0.0
C1501 C 0.02597 0.66322 0.6054 0.0
C1502 C 0.04693 0.47426 0.64056 0.0
C1503 C 0.04539 0.44448 0.62348 0.0
C1504 C 0.04139 0.52038 0.64031 0.0
C1505 C 0.03406 0.53759 0.62305 0.0
C1506 C 0.03251 0.50774 0.60597 0.0
C1507 C 0.03816 0.46176 0.60615 0.0
H1508 H 0.23818 0.50958 0.57515 0.0
H1509 H 0.22958 0.47789 0.63855 0.0
H1510 H 0.23175 0.59242 0.58099 0.0
H1511 H 0.2226 0.56038 0.64423 0.0
H1512 H 0.21812 0.7234 0.64899 0.0
H1513 H 0.2287 0.64409 0.6456 0.0
H1514 H 0.20897 0.62937 0.58617 0.0
H1515 H 0.19885 0.70845 0.58928 0.0
C1516 C 0.23509 0.52047 0.59039 0.0
C1517 C 0.2342 0.48713 0.60631 0.0
C1518 C 0.23128 0.56782 0.59372 0.0
C1519 C 0.22629 0.58271 0.61295 0.0
C1520 C 0.2264 0.55012 0.62923 0.0
C1521 C 0.23039 0.50279 0.62596 0.0
C1522 C 0.21599 0.70295 0.63529 0.0
C1523 C 0.20773 0.72225 0.61935 0.0
C1524 C 0.22207 0.65762 0.63333 0.0
C1525 C 0.21991 0.63076 0.61544 0.0
C1526 C 0.21124 0.64963 0.59987 0.0
C1527 C 0.20529 0.69484 0.60175 0.0
H1528 H 0.97134 0.45203 0.33533 0.0
H1529 H 0.96554 0.48188 0.39952 0.0
H1530 H 0.968 0.3674 0.34203 0.0
H1531 H 0.96149 0.39778 0.40609 0.0
H1532 H 0.96438 0.23619 0.4133 0.0
H1533 H 0.97084 0.3197 0.4078 0.0
H1534 H 0.94857 0.31716 0.34983 0.0
H1535 H 0.94278 0.2338 0.35494 0.0
C1536 C 0.9694 0.44047 0.35087 0.0
C1537 C 0.96861 0.47361 0.36685 0.0
C1538 C 0.96736 0.39202 0.35471 0.0
C1539 C 0.96421 0.37578 0.37457 0.0
C1540 C 0.964 0.40884 0.39066 0.0
C1541 C 0.96627 0.45717 0.38686 0.0
C1542 C 0.96083 0.25377 0.39947 0.0
C1543 C 0.95317 0.22856 0.3845 0.0
C1544 C 0.96452 0.30156 0.39629 0.0
C1545 C 0.96041 0.32506 0.37821 0.0
C1546 C 0.95232 0.29995 0.36362 0.0
C1547 C 0.94886 0.25223 0.36665 0.0
H1548 H 0.76357 0.23651 0.40823 0.0
H1549 H 0.78008 0.25147 0.34688 0.0
H1550 H 0.76742 0.32104 0.41416 0.0
H1551 H 0.78427 0.3361 0.35302 0.0
H1552 H 0.77868 0.49442 0.36555 0.0
H1553 H 0.77276 0.4116 0.35888 0.0
H1554 H 0.78767 0.37358 0.41919 0.0
H1555 H 0.79326 0.45698 0.42613 0.0
C1556 C 0.76795 0.25793 0.39594 0.0
C1557 C 0.77159 0.23722 0.3771 0.0
C1558 C 0.77027 0.30633 0.39943 0.0
C1559 C 0.77635 0.33519 0.38419 0.0
C1560 C 0.77948 0.3149 0.36505 0.0
C1561 C 0.77708 0.2664 0.36152 0.0
C1562 C 0.7807 0.46849 0.37744 0.0
C1563 C 0.78647 0.48238 0.39641 0.0
C1564 C 0.77736 0.4209 0.37354 0.0
C1565 C 0.77974 0.38594 0.38847 0.0
C1566 C 0.7855 0.39977 0.40745 0.0
C1567 C 0.7888 0.44751 0.4114 0.0
H1568 H 0.54757 0.02184 0.6729 0.0
H1569 H 0.56367 -0.00152 0.61182 0.0
H1570 H 0.5475 0.1077 0.66662 0.0
H1571 H 0.56409 0.08352 0.60585 0.0
H1572 H 0.55148 0.2348 0.59335 0.0
H1573 H 0.54896 0.14996 0.60037 0.0
H1574 H 0.56374 0.17302 0.66218 0.0
H1575 H 0.56572 0.25789 0.6554 0.0
C1576 C 0.55115 0.03501 0.65821 0.0
C1577 C 0.55557 0.00337 0.64286 0.0
C1578 C 0.55117 0.08415 0.65462 0.0
C1579 C 0.55572 0.10251 0.63567 0.0
C1580 C 0.5602 0.07069 0.62044 0.0
C1581 C 0.56006 0.02181 0.62395 0.0
C1582 C 0.55414 0.22172 0.60844 0.0
C1583 C 0.55887 0.25299 0.62377 0.0
C1584 C 0.55275 0.17309 0.61247 0.0
C1585 C 0.55623 0.1546 0.63183 0.0
C1586 C 0.56077 0.18607 0.64721 0.0
C1587 C 0.56201 0.23473 0.64325 0.0
H1588 H 0.73415 0.21344 0.59456 0.0
H1589 H 0.74215 0.23152 0.6591 0.0
H1590 H 0.73188 0.12776 0.59947 0.0
H1591 H 0.74049 0.14579 0.6639 0.0
H1592 H 0.72009 0.00179 0.67077 0.0
H1593 H 0.72247 0.0864 0.66414 0.0
H1594 H 0.74432 0.05574 0.6074 0.0
H1595 H 0.74136 0.97043 0.61374 0.0
C1596 C 0.73563 0.19902 0.60975 0.0
C1597 C 0.73822 0.22923 0.62648 0.0
C1598 C 0.73439 0.14987 0.61255 0.0
C1599 C 0.73586 0.12987 0.63211 0.0
C1600 C 0.73893 0.16007 0.6487 0.0
C1601 C 0.73999 0.20921 0.64595 0.0
C1602 C 0.72536 0.01306 0.65683 0.0
C1603 C 0.73063 -0.02048 0.64283 0.0
C1604 C 0.72683 0.06163 0.6531 0.0
C1605 C 0.73381 0.07796 0.63541 0.0
C1606 C 0.73881 0.04439 0.62113 0.0
C1607 C 0.73716 -0.00445 0.62476 0.0
H1608 H 0.47494 0.75177 0.40745 0.0
H1609 H 0.45134 0.72695 0.35161 0.0
H1610 H 0.47892 0.83452 0.39713 0.0
H1611 H 0.45484 0.80918 0.34171 0.0
H1612 H 0.4721 0.94886 0.31987 0.0
H1613 H 0.47212 0.86521 0.3301 0.0
H1614 H 0.46613 0.907 0.39304 0.0
H1615 H 0.46669 -0.01006 0.38302 0.0
C1616 C 0.47052 0.76403 0.39309 0.0
C1617 C 0.46285 0.73277 0.38036 0.0
C1618 C 0.47278 0.81141 0.38715 0.0
C1619 C 0.4673 0.8285 0.36847 0.0
C1620 C 0.45955 0.79713 0.35592 0.0
C1621 C 0.45741 0.74993 0.36173 0.0
C1622 C 0.47097 0.94012 0.3359 0.0
C1623 C 0.46929 0.97614 0.35056 0.0
C1624 C 0.47088 0.89218 0.34178 0.0
C1625 C 0.46899 0.87928 0.3624 0.0
C1626 C 0.4678 0.91545 0.37708 0.0
C1627 C 0.468 0.9632 0.37125 0.0
H1628 H 0.27319 0.76553 0.42139 0.0
H1629 H 0.28596 0.72417 0.36051 0.0
H1630 H 0.27327 0.84889 0.41099 0.0
H1631 H 0.28648 0.80745 0.3503 0.0
H1632 H 0.29152 -0.00555 0.39158 0.0
H1633 H 0.28965 0.91142 0.40223 0.0
H1634 H 0.27183 0.87467 0.34334 0.0
H1635 H 0.27414 0.95716 0.33251 0.0
C1636 C 0.27601 0.77419 0.40578 0.0
C1637 C 0.27957 0.7381 0.39179 0.0
C1638 C 0.27616 0.82207 0.39985 0.0
C1639 C 0.27994 0.83508 0.37981 0.0
C1640 C 0.28331 0.79885 0.36577 0.0
C1641 C 0.28308 0.75099 0.37166 0.0
C1642 C 0.28716 0.96865 0.38094 0.0
C1643 C 0.28308 -0.01754 0.36115 0.0
C1644 C 0.286 0.92103 0.38708 0.0
C1645 C 0.28064 0.88615 0.37362 0.0
C1646 C 0.27627 0.90028 0.35399 0.0
C1647 C 0.27752 0.94774 0.34781 0.0
H1648 H 0.53011 0.4716 0.06972 0.0
H1649 H 0.54196 0.45386 0.13307 0.0
H1650 H 0.52283 0.55323 0.07666 0.0
H1651 H 0.53513 0.53594 0.13987 0.0
H1652 H 0.5104 0.67007 0.151 0.0
H1653 H 0.51475 0.58691 0.14258 0.0
H1654 H 0.53278 0.6295 0.08455 0.0
H1655 H 0.52797 0.71257 0.0927 0.0
C1656 C 0.53126 0.48521 0.08511 0.0
C1657 C 0.53663 0.4562 0.10085 0.0
C1658 C 0.52712 0.53211 0.08907 0.0
C1659 C 0.52834 0.5512 0.10883 0.0
C1660 C 0.53377 0.52217 0.12454 0.0
C1661 C 0.5378 0.47517 0.12062 0.0
C1662 C 0.51511 0.66163 0.13632 0.0
C1663 C 0.51892 0.69795 0.12257 0.0
C1664 C 0.51772 0.61396 0.13157 0.0
C1665 C 0.52432 0.60149 0.11302 0.0
C1666 C 0.52758 0.63772 0.09891 0.0
C1667 C 0.52485 0.68542 0.10359 0.0
H1668 H 0.72599 0.51683 0.06274 0.0
H1669 H 0.7226 0.47942 0.12659 0.0
H1670 H 0.72179 0.6001 0.07138 0.0
H1671 H 0.71781 0.56191 0.13507 0.0
H1672 H 0.7178 0.72235 0.14581 0.0
H1673 H 0.726 0.6418 0.13776 0.0
H1674 H 0.70163 0.64531 0.08157 0.0
H1675 H 0.69395 0.72571 0.08924 0.0
C1676 C 0.72446 0.52637 0.07861 0.0
C1677 C 0.72449 0.49132 0.09391 0.0
C1678 C 0.72192 0.57406 0.08358 0.0
C1679 C 0.71919 0.5877 0.10391 0.0
C1680 C 0.71995 0.55294 0.11929 0.0
C1681 C 0.72264 0.50542 0.11436 0.0
C1682 C 0.71418 0.70569 0.13181 0.0
C1683 C 0.70527 0.73044 0.11816 0.0
C1684 C 0.71887 0.65957 0.12716 0.0
C1685 C 0.71463 0.63716 0.10886 0.0
C1686 C 0.70547 0.66178 0.0955 0.0
C1687 C 0.70093 0.70782 0.10002 0.0
H1688 H 0.44725 0.22809 0.86278 0.0
H1689 H 0.46006 0.23441 0.92612 0.0
H1690 H 0.45282 0.3123 0.85889 0.0
H1691 H 0.46638 0.31804 0.92204 0.0
H1692 H 0.46009 0.47705 0.91454 0.0
H1693 H 0.45573 0.39251 0.91823 0.0
H1694 H 0.47142 0.36909 0.85689 0.0
H1695 H 0.4751 0.45472 0.85286 0.0
C1696 C 0.45138 0.24748 0.87583 0.0
C1697 C 0.45313 0.22486 0.8948 0.0
C1698 C 0.45471 0.29567 0.87356 0.0
C1699 C 0.46009 0.32211 0.89013 0.0
C1700 C 0.462 0.29912 0.90904 0.0
C1701 C 0.45842 0.25113 0.9114 0.0
C1702 C 0.46273 0.45389 0.90187 0.0
C1703 C 0.46794 0.47257 0.88339 0.0
C1704 C 0.46029 0.40521 0.90403 0.0
C1705 C 0.46323 0.37377 0.88789 0.0
C1706 C 0.46879 0.39234 0.86953 0.0
C1707 C 0.47101 0.44134 0.86725 0.0
H1708 H 0.26328 0.25781 0.88669 0.0
H1709 H 0.28527 0.26104 0.82859 0.0
H1710 H 0.26693 0.34312 0.89038 0.0
H1711 H 0.28931 0.3464 0.83258 0.0
H1712 H 0.2834 0.50688 0.83882 0.0
H1713 H 0.27781 0.42308 0.83368 0.0
H1714 H 0.28683 0.3954 0.89732 0.0
H1715 H 0.29201 0.47957 0.90263 0.0
C1716 C 0.26885 0.2768 0.87466 0.0
C1717 C 0.27407 0.25266 0.85741 0.0
C1718 C 0.27104 0.32564 0.87686 0.0
C1719 C 0.27859 0.35141 0.86193 0.0
C1720 C 0.28336 0.32761 0.8443 0.0
C1721 C 0.28107 0.2787 0.84202 0.0
C1722 C 0.2842 0.48294 0.85173 0.0
C1723 C 0.28814 0.49989 0.87116 0.0
C1724 C 0.28105 0.43485 0.84874 0.0
C1725 C 0.28184 0.4026 0.86508 0.0
C1726 C 0.28587 0.4195 0.88448 0.0
C1727 C 0.28894 0.46768 0.88751 0.0
loop_
_geom_bond_atom_site_label_1
_geom_bond_atom_site_label_2
_geom_bond_distance
_geom_bond_site_symmetry_2
_ccdc_geom_bond_type
C0 O1 1.306 . S
C0 O3 1.160 . S
O1 C0 1.306 . S
O1 Cd2 2.228 . S
Cd2 O1 2.228 . S
Cd2 O6 2.273 . S
Cd2 O10 2.277 . S
O3 C0 1.160 . S
O3 Cd4 2.203 . S
Cd4 O3 2.203 . S
Cd4 O6 2.411 . S
Cd4 O7 2.333 . S
Cd4 O8 2.352 . S
Cd4 O12 2.277 . S
Cd4 O13 2.356 . S
C5 O10 1.209 . S
C5 O12 1.226 . S
O6 Cd2 2.273 . S
O6 Cd4 2.411 . S
O6 C9 1.320 . S
O7 Cd4 2.333 . S
O7 C9 1.214 . S
O8 Cd4 2.352 . S
O8 C11 1.258 . S
C9 O6 1.320 . S
C9 O7 1.214 . S
O10 Cd2 2.277 . S
O10 C5 1.209 . S
C11 O8 1.258 . S
C11 O13 1.282 . S
O12 Cd4 2.277 . S
O12 C5 1.226 . S
O13 Cd4 2.356 . S
O13 C11 1.282 . S
C14 O15 1.306 . S
C14 O17 1.160 . S
O15 C14 1.306 . S
O15 Cd16 2.228 . S
Cd16 O15 2.228 . S
Cd16 O20 2.273 . S
Cd16 O24 2.277 . S
O17 C14 1.160 . S
O17 Cd18 2.203 . S
Cd18 O17 2.203 . S
Cd18 O20 2.411 . S
Cd18 O21 2.333 . S
Cd18 O22 2.352 . S
Cd18 O26 2.277 . S
Cd18 O27 2.356 . S
C19 O24 1.209 . S
C19 O26 1.226 . S
O20 Cd16 2.273 . S
O20 Cd18 2.411 . S
O20 C23 1.320 . S
O21 Cd18 2.333 . S
O21 C23 1.214 . S
O22 Cd18 2.352 . S
O22 C25 1.258 . S
C23 O20 1.320 . S
C23 O21 1.214 . S
O24 Cd16 2.277 . S
O24 C19 1.209 . S
C25 O22 1.258 . S
C25 O27 1.282 . S
O26 Cd18 2.277 . S
O26 C19 1.226 . S
O27 Cd18 2.356 . S
O27 C25 1.282 . S
C28 O29 1.306 . S
C28 O31 1.160 . S
O29 C28 1.306 . S
O29 Cd30 2.228 . S
Cd30 O29 2.228 . S
Cd30 O34 2.273 . S
Cd30 O38 2.277 . S
O31 C28 1.160 . S
O31 Cd32 2.203 . S
Cd32 O31 2.203 . S
Cd32 O34 2.411 . S
Cd32 O35 2.333 . S
Cd32 O36 2.352 . S
Cd32 O40 2.277 . S
Cd32 O41 2.356 . S
C33 O38 1.209 . S
C33 O40 1.226 . S
O34 Cd30 2.273 . S
O34 Cd32 2.411 . S
O34 C37 1.320 . S
O35 Cd32 2.333 . S
O35 C37 1.214 . S
O36 Cd32 2.352 . S
O36 C39 1.258 . S
C37 O34 1.320 . S
C37 O35 1.214 . S
O38 Cd30 2.277 . S
O38 C33 1.209 . S
C39 O36 1.258 . S
C39 O41 1.282 . S
O40 Cd32 2.277 . S
O40 C33 1.226 . S
O41 Cd32 2.356 . S
O41 C39 1.282 . S
C42 O43 1.306 . S
C42 O45 1.160 . S
O43 C42 1.306 . S
O43 Cd44 2.228 . S
Cd44 O43 2.228 . S
Cd44 O48 2.273 . S
Cd44 O52 2.277 . S
O45 C42 1.160 . S
O45 Cd46 2.203 . S
Cd46 O45 2.203 . S
Cd46 O48 2.411 . S
Cd46 O49 2.333 . S
Cd46 O50 2.352 . S
Cd46 O54 2.277 . S
Cd46 O55 2.356 . S
C47 O52 1.209 . S
C47 O54 1.226 . S
O48 Cd44 2.273 . S
O48 Cd46 2.411 . S
O48 C51 1.320 . S
O49 Cd46 2.333 . S
O49 C51 1.214 . S
O50 Cd46 2.352 . S
O50 C53 1.258 . S
C51 O48 1.320 . S
C51 O49 1.214 . S
O52 Cd44 2.277 . S
O52 C47 1.209 . S
C53 O50 1.258 . S
C53 O55 1.282 . S
O54 Cd46 2.277 . S
O54 C47 1.226 . S
O55 Cd46 2.356 . S
O55 C53 1.282 . S
C56 O57 1.306 . S
C56 O59 1.160 . S
O57 C56 1.306 . S
O57 Cd58 2.228 . S
Cd58 O57 2.228 . S
Cd58 O62 2.273 . S
Cd58 O66 2.277 . S
O59 C56 1.160 . S
O59 Cd60 2.203 . S
Cd60 O59 2.203 . S
Cd60 O62 2.411 . S
Cd60 O63 2.333 . S
Cd60 O64 2.352 . S
Cd60 O68 2.277 . S
Cd60 O69 2.356 . S
C61 O66 1.209 . S
C61 O68 1.226 . S
O62 Cd58 2.273 . S
O62 Cd60 2.411 . S
O62 C65 1.320 . S
O63 Cd60 2.333 . S
O63 C65 1.214 . S
O64 Cd60 2.352 . S
O64 C67 1.258 . S
C65 O62 1.320 . S
C65 O63 1.214 . S
O66 Cd58 2.277 . S
O66 C61 1.209 . S
C67 O64 1.258 . S
C67 O69 1.282 . S
O68 Cd60 2.277 . S
O68 C61 1.226 . S
O69 Cd60 2.356 . S
O69 C67 1.282 . S
C70 O71 1.306 . S
C70 O73 1.160 . S
O71 C70 1.306 . S
O71 Cd72 2.228 . S
Cd72 O71 2.228 . S
Cd72 O76 2.273 . S
Cd72 O80 2.277 . S
O73 C70 1.160 . S
O73 Cd74 2.203 . S
Cd74 O73 2.203 . S
Cd74 O76 2.411 . S
Cd74 O77 2.333 . S
Cd74 O78 2.352 . S
Cd74 O82 2.277 . S
Cd74 O83 2.356 . S
C75 O80 1.209 . S
C75 O82 1.226 . S
O76 Cd72 2.273 . S
O76 Cd74 2.411 . S
O76 C79 1.320 . S
O77 Cd74 2.333 . S
O77 C79 1.214 . S
O78 Cd74 2.352 . S
O78 C81 1.258 . S
C79 O76 1.320 . S
C79 O77 1.214 . S
O80 Cd72 2.277 . S
O80 C75 1.209 . S
C81 O78 1.258 . S
C81 O83 1.282 . S
O82 Cd74 2.277 . S
O82 C75 1.226 . S
O83 Cd74 2.356 . S
O83 C81 1.282 . S
C84 O85 1.306 . S
C84 O87 1.160 . S
O85 C84 1.306 . S
O85 Cd86 2.228 . S
Cd86 O85 2.228 . S
Cd86 O90 2.273 . S
Cd86 O94 2.277 . S
O87 C84 1.160 . S
O87 Cd88 2.203 . S
Cd88 O87 2.203 . S
Cd88 O90 2.411 . S
Cd88 O91 2.333 . S
Cd88 O92 2.352 . S
Cd88 O96 2.277 . S
Cd88 O97 2.356 . S
C89 O94 1.209 . S
C89 O96 1.226 . S
O90 Cd86 2.273 . S
O90 Cd88 2.411 . S
O90 C93 1.320 . S
O91 Cd88 2.333 . S
O91 C93 1.214 . S
O92 Cd88 2.352 . S
O92 C95 1.258 . S
C93 O90 1.320 . S
C93 O91 1.214 . S
O94 Cd86 2.277 . S
O94 C89 1.209 . S
C95 O92 1.258 . S
C95 O97 1.282 . S
O96 Cd88 2.277 . S
O96 C89 1.226 . S
O97 Cd88 2.356 . S
O97 C95 1.282 . S
C98 O99 1.306 . S
C98 O101 1.160 . S
O99 C98 1.306 . S
O99 Cd100 2.228 . S
Cd100 O99 2.228 . S
Cd100 O104 2.273 . S
Cd100 O108 2.277 . S
O101 C98 1.160 . S
O101 Cd102 2.203 . S
Cd102 O101 2.203 . S
Cd102 O104 2.411 . S
Cd102 O105 2.333 . S
Cd102 O106 2.352 . S
Cd102 O110 2.277 . S
Cd102 O111 2.356 . S
C103 O108 1.209 . S
C103 O110 1.226 . S
O104 Cd100 2.273 . S
O104 Cd102 2.411 . S
O104 C107 1.320 . S
O105 Cd102 2.333 . S
O105 C107 1.214 . S
O106 Cd102 2.352 . S
O106 C109 1.258 . S
C107 O104 1.320 . S
C107 O105 1.214 . S
O108 Cd100 2.277 . S
O108 C103 1.209 . S
C109 O106 1.258 . S
C109 O111 1.282 . S
O110 Cd102 2.277 . S
O110 C103 1.226 . S
O111 Cd102 2.356 . S
O111 C109 1.282 . S
C112 O113 1.306 . S
C112 O115 1.160 . S
O113 C112 1.306 . S
O113 Cd114 2.228 . S
Cd114 O113 2.228 . S
Cd114 O118 2.273 . S
Cd114 O122 2.277 . S
O115 C112 1.160 . S
O115 Cd116 2.203 . S
Cd116 O115 2.203 . S
Cd116 O118 2.411 . S
Cd116 O119 2.333 . S
Cd116 O120 2.352 . S
Cd116 O124 2.277 . S
Cd116 O125 2.356 . S
C117 O122 1.209 . S
C117 O124 1.226 . S
O118 Cd114 2.273 . S
O118 Cd116 2.411 . S
O118 C121 1.320 . S
O119 Cd116 2.333 . S
O119 C121 1.214 . S
O120 Cd116 2.352 . S
O120 C123 1.258 . S
C121 O118 1.320 . S
C121 O119 1.214 . S
O122 Cd114 2.277 . S
O122 C117 1.209 . S
C123 O120 1.258 . S
C123 O125 1.282 . S
O124 Cd116 2.277 . S
O124 C117 1.226 . S
O125 Cd116 2.356 . S
O125 C123 1.282 . S
C126 O127 1.306 . S
C126 O129 1.160 . S
O127 C126 1.306 . S
O127 Cd128 2.228 . S
Cd128 O127 2.228 . S
Cd128 O132 2.273 . S
Cd128 O136 2.277 . S
O129 C126 1.160 . S
O129 Cd130 2.203 . S
Cd130 O129 2.203 . S
Cd130 O132 2.411 . S
Cd130 O133 2.333 . S
Cd130 O134 2.352 . S
Cd130 O138 2.277 . S
Cd130 O139 2.356 . S
C131 O136 1.209 . S
C131 O138 1.226 . S
O132 Cd128 2.273 . S
O132 Cd130 2.411 . S
O132 C135 1.320 . S
O133 Cd130 2.333 . S
O133 C135 1.214 . S
O134 Cd130 2.352 . S
O134 C137 1.258 . S
C135 O132 1.320 . S
C135 O133 1.214 . S
O136 Cd128 2.277 . S
O136 C131 1.209 . S
C137 O134 1.258 . S
C137 O139 1.282 . S
O138 Cd130 2.277 . S
O138 C131 1.226 . S
O139 Cd130 2.356 . S
O139 C137 1.282 . S
C140 O141 1.306 . S
C140 O143 1.160 . S
O141 C140 1.306 . S
O141 Cd142 2.228 . S
Cd142 O141 2.228 . S
Cd142 O146 2.273 . S
Cd142 O150 2.277 . S
O143 C140 1.160 . S
O143 Cd144 2.203 . S
Cd144 O143 2.203 . S
Cd144 O146 2.411 . S
Cd144 O147 2.333 . S
Cd144 O148 2.352 . S
Cd144 O152 2.277 . S
Cd144 O153 2.356 . S
C145 O150 1.209 . S
C145 O152 1.226 . S
O146 Cd142 2.273 . S
O146 Cd144 2.411 . S
O146 C149 1.320 . S
O147 Cd144 2.333 . S
O147 C149 1.214 . S
O148 Cd144 2.352 . S
O148 C151 1.258 . S
C149 O146 1.320 . S
C149 O147 1.214 . S
O150 Cd142 2.277 . S
O150 C145 1.209 . S
C151 O148 1.258 . S
C151 O153 1.282 . S
O152 Cd144 2.277 . S
O152 C145 1.226 . S
O153 Cd144 2.356 . S
O153 C151 1.282 . S
C154 O155 1.306 . S
C154 O157 1.160 . S
O155 C154 1.306 . S
O155 Cd156 2.228 . S
Cd156 O155 2.228 . S
Cd156 O160 2.273 . S
Cd156 O164 2.277 . S
O157 C154 1.160 . S
O157 Cd158 2.203 . S
Cd158 O157 2.203 . S
Cd158 O160 2.411 . S
Cd158 O161 2.333 . S
Cd158 O162 2.352 . S
Cd158 O166 2.277 . S
Cd158 O167 2.356 . S
C159 O164 1.209 . S
C159 O166 1.226 . S
O160 Cd156 2.273 . S
O160 Cd158 2.411 . S
O160 C163 1.320 . S
O161 Cd158 2.333 . S
O161 C163 1.214 . S
O162 Cd158 2.352 . S
O162 C165 1.258 . S
C163 O160 1.320 . S
C163 O161 1.214 . S
O164 Cd156 2.277 . S
O164 C159 1.209 . S
C165 O162 1.258 . S
C165 O167 1.282 . S
O166 Cd158 2.277 . S
O166 C159 1.226 . S
O167 Cd158 2.356 . S
O167 C165 1.282 . S
C168 O169 1.306 . S
C168 O171 1.160 . S
O169 C168 1.306 . S
O169 Cd170 2.228 . S
Cd170 O169 2.228 . S
Cd170 O174 2.273 . S
Cd170 O178 2.277 . S
O171 C168 1.160 . S
O171 Cd172 2.203 . S
Cd172 O171 2.203 . S
Cd172 O174 2.411 . S
Cd172 O175 2.333 . S
Cd172 O176 2.352 . S
Cd172 O180 2.277 . S
Cd172 O181 2.356 . S
C173 O178 1.209 . S
C173 O180 1.226 . S
O174 Cd170 2.273 . S
O174 Cd172 2.411 . S
O174 C177 1.320 . S
O175 Cd172 2.333 . S
O175 C177 1.214 . S
O176 Cd172 2.352 . S
O176 C179 1.258 . S
C177 O174 1.320 . S
C177 O175 1.214 . S
O178 Cd170 2.277 . S
O178 C173 1.209 . S
C179 O176 1.258 . S
C179 O181 1.282 . S
O180 Cd172 2.277 . S
O180 C173 1.226 . S
O181 Cd172 2.356 . S
O181 C179 1.282 . S
C182 O183 1.306 . S
C182 O185 1.160 . S
O183 C182 1.306 . S
O183 Cd184 2.228 . S
Cd184 O183 2.228 . S
Cd184 O188 2.273 . S
Cd184 O192 2.277 . S
O185 C182 1.160 . S
O185 Cd186 2.203 . S
Cd186 O185 2.203 . S
Cd186 O188 2.411 . S
Cd186 O189 2.333 . S
Cd186 O190 2.352 . S
Cd186 O194 2.277 . S
Cd186 O195 2.356 . S
C187 O192 1.209 . S
C187 O194 1.226 . S
O188 Cd184 2.273 . S
O188 Cd186 2.411 . S
O188 C191 1.320 . S
O189 Cd186 2.333 . S
O189 C191 1.214 . S
O190 Cd186 2.352 . S
O190 C193 1.258 . S
C191 O188 1.320 . S
C191 O189 1.214 . S
O192 Cd184 2.277 . S
O192 C187 1.209 . S
C193 O190 1.258 . S
C193 O195 1.282 . S
O194 Cd186 2.277 . S
O194 C187 1.226 . S
O195 Cd186 2.356 . S
O195 C193 1.282 . S
C196 O197 1.306 . S
C196 O199 1.160 . S
O197 C196 1.306 . S
O197 Cd198 2.228 . S
Cd198 O197 2.228 . S
Cd198 O202 2.273 . S
Cd198 O206 2.277 . S
O199 C196 1.160 . S
O199 Cd200 2.203 . S
Cd200 O199 2.203 . S
Cd200 O202 2.411 . S
Cd200 O203 2.333 . S
Cd200 O204 2.352 . S
Cd200 O208 2.277 . S
Cd200 O209 2.356 . S
C201 O206 1.209 . S
C201 O208 1.226 . S
O202 Cd198 2.273 . S
O202 Cd200 2.411 . S
O202 C205 1.320 . S
O203 Cd200 2.333 . S
O203 C205 1.214 . S
O204 Cd200 2.352 . S
O204 C207 1.258 . S
C205 O202 1.320 . S
C205 O203 1.214 . S
O206 Cd198 2.277 . S
O206 C201 1.209 . S
C207 O204 1.258 . S
C207 O209 1.282 . S
O208 Cd200 2.277 . S
O208 C201 1.226 . S
O209 Cd200 2.356 . S
O209 C207 1.282 . S
C210 O211 1.306 . S
C210 O213 1.160 . S
O211 C210 1.306 . S
O211 Cd212 2.228 . S
Cd212 O211 2.228 . S
Cd212 O216 2.273 . S
Cd212 O220 2.277 . S
O213 C210 1.160 . S
O213 Cd214 2.203 . S
Cd214 O213 2.203 . S
Cd214 O216 2.411 . S
Cd214 O217 2.333 . S
Cd214 O218 2.352 . S
Cd214 O222 2.277 . S
Cd214 O223 2.356 . S
C215 O220 1.209 . S
C215 O222 1.226 . S
O216 Cd212 2.273 . S
O216 Cd214 2.411 . S
O216 C219 1.320 . S
O217 Cd214 2.333 . S
O217 C219 1.214 . S
O218 Cd214 2.352 . S
O218 C221 1.258 . S
C219 O216 1.320 . S
C219 O217 1.214 . S
O220 Cd212 2.277 . S
O220 C215 1.209 . S
C221 O218 1.258 . S
C221 O223 1.282 . S
O222 Cd214 2.277 . S
O222 C215 1.226 . S
O223 Cd214 2.356 . S
O223 C221 1.282 . S
C224 O225 1.306 . S
C224 O227 1.160 . S
O225 C224 1.306 . S
O225 Cd226 2.228 . S
Cd226 O225 2.228 . S
Cd226 O230 2.273 . S
Cd226 O234 2.277 . S
O227 C224 1.160 . S
O227 Cd228 2.203 . S
Cd228 O227 2.203 . S
Cd228 O230 2.411 . S
Cd228 O231 2.333 . S
Cd228 O232 2.352 . S
Cd228 O236 2.277 . S
Cd228 O237 2.356 . S
C229 O234 1.209 . S
C229 O236 1.226 . S
O230 Cd226 2.273 . S
O230 Cd228 2.411 . S
O230 C233 1.320 . S
O231 Cd228 2.333 . S
O231 C233 1.214 . S
O232 Cd228 2.352 . S
O232 C235 1.258 . S
C233 O230 1.320 . S
C233 O231 1.214 . S
O234 Cd226 2.277 . S
O234 C229 1.209 . S
C235 O232 1.258 . S
C235 O237 1.282 . S
O236 Cd228 2.277 . S
O236 C229 1.226 . S
O237 Cd228 2.356 . S
O237 C235 1.282 . S
C238 O239 1.306 . S
C238 O241 1.160 . S
O239 C238 1.306 . S
O239 Cd240 2.228 . S
Cd240 O239 2.228 . S
Cd240 O244 2.273 . S
Cd240 O248 2.277 . S
O241 C238 1.160 . S
O241 Cd242 2.203 . S
Cd242 O241 2.203 . S
Cd242 O244 2.411 . S
Cd242 O245 2.333 . S
Cd242 O246 2.352 . S
Cd242 O250 2.277 . S
Cd242 O251 2.356 . S
C243 O248 1.209 . S
C243 O250 1.226 . S
O244 Cd240 2.273 . S
O244 Cd242 2.411 . S
O244 C247 1.320 . S
O245 Cd242 2.333 . S
O245 C247 1.214 . S
O246 Cd242 2.352 . S
O246 C249 1.258 . S
C247 O244 1.320 . S
C247 O245 1.214 . S
O248 Cd240 2.277 . S
O248 C243 1.209 . S
C249 O246 1.258 . S
C249 O251 1.282 . S
O250 Cd242 2.277 . S
O250 C243 1.226 . S
O251 Cd242 2.356 . S
O251 C249 1.282 . S
C252 O253 1.306 . S
C252 O255 1.160 . S
O253 C252 1.306 . S
O253 Cd254 2.228 . S
Cd254 O253 2.228 . S
Cd254 O258 2.273 . S
Cd254 O262 2.277 . S
O255 C252 1.160 . S
O255 Cd256 2.203 . S
Cd256 O255 2.203 . S
Cd256 O258 2.411 . S
Cd256 O259 2.333 . S
Cd256 O260 2.352 . S
Cd256 O264 2.277 . S
Cd256 O265 2.356 . S
C257 O262 1.209 . S
C257 O264 1.226 . S
O258 Cd254 2.273 . S
O258 Cd256 2.411 . S
O258 C261 1.320 . S
O259 Cd256 2.333 . S
O259 C261 1.214 . S
O260 Cd256 2.352 . S
O260 C263 1.258 . S
C261 O258 1.320 . S
C261 O259 1.214 . S
O262 Cd254 2.277 . S
O262 C257 1.209 . S
C263 O260 1.258 . S
C263 O265 1.282 . S
O264 Cd256 2.277 . S
O264 C257 1.226 . S
O265 Cd256 2.356 . S
O265 C263 1.282 . S
C266 O267 1.306 . S
C266 O269 1.160 . S
O267 C266 1.306 . S
O267 Cd268 2.228 . S
Cd268 O267 2.228 . S
Cd268 O272 2.273 . S
Cd268 O276 2.277 . S
O269 C266 1.160 . S
O269 Cd270 2.203 . S
Cd270 O269 2.203 . S
Cd270 O272 2.411 . S
Cd270 O273 2.333 . S
Cd270 O274 2.352 . S
Cd270 O278 2.277 . S
Cd270 O279 2.356 . S
C271 O276 1.209 . S
C271 O278 1.226 . S
O272 Cd268 2.273 . S
O272 Cd270 2.411 . S
O272 C275 1.320 . S
O273 Cd270 2.333 . S
O273 C275 1.214 . S
O274 Cd270 2.352 . S
O274 C277 1.258 . S
C275 O272 1.320 . S
C275 O273 1.214 . S
O276 Cd268 2.277 . S
O276 C271 1.209 . S
C277 O274 1.258 . S
C277 O279 1.282 . S
O278 Cd270 2.277 . S
O278 C271 1.226 . S
O279 Cd270 2.356 . S
O279 C277 1.282 . S
C280 O281 1.306 . S
C280 O283 1.160 . S
O281 C280 1.306 . S
O281 Cd282 2.228 . S
Cd282 O281 2.228 . S
Cd282 O286 2.273 . S
Cd282 O290 2.277 . S
O283 C280 1.160 . S
O283 Cd284 2.203 . S
Cd284 O283 2.203 . S
Cd284 O286 2.411 . S
Cd284 O287 2.333 . S
Cd284 O288 2.352 . S
Cd284 O292 2.277 . S
Cd284 O293 2.356 . S
C285 O290 1.209 . S
C285 O292 1.226 . S
O286 Cd282 2.273 . S
O286 Cd284 2.411 . S
O286 C289 1.320 . S
O287 Cd284 2.333 . S
O287 C289 1.214 . S
O288 Cd284 2.352 . S
O288 C291 1.258 . S
C289 O286 1.320 . S
C289 O287 1.214 . S
O290 Cd282 2.277 . S
O290 C285 1.209 . S
C291 O288 1.258 . S
C291 O293 1.282 . S
O292 Cd284 2.277 . S
O292 C285 1.226 . S
O293 Cd284 2.356 . S
O293 C291 1.282 . S
C294 O295 1.306 . S
C294 O297 1.160 . S
O295 C294 1.306 . S
O295 Cd296 2.228 . S
Cd296 O295 2.228 . S
Cd296 O300 2.273 . S
Cd296 O304 2.277 . S
O297 C294 1.160 . S
O297 Cd298 2.203 . S
Cd298 O297 2.203 . S
Cd298 O300 2.411 . S
Cd298 O301 2.333 . S
Cd298 O302 2.352 . S
Cd298 O306 2.277 . S
Cd298 O307 2.356 . S
C299 O304 1.209 . S
C299 O306 1.226 . S
O300 Cd296 2.273 . S
O300 Cd298 2.411 . S
O300 C303 1.320 . S
O301 Cd298 2.333 . S
O301 C303 1.214 . S
O302 Cd298 2.352 . S
O302 C305 1.258 . S
C303 O300 1.320 . S
C303 O301 1.214 . S
O304 Cd296 2.277 . S
O304 C299 1.209 . S
C305 O302 1.258 . S
C305 O307 1.282 . S
O306 Cd298 2.277 . S
O306 C299 1.226 . S
O307 Cd298 2.356 . S
O307 C305 1.282 . S
C308 O309 1.306 . S
C308 O311 1.160 . S
O309 C308 1.306 . S
O309 Cd310 2.228 . S
Cd310 O309 2.228 . S
Cd310 O314 2.273 . S
Cd310 O318 2.277 . S
O311 C308 1.160 . S
O311 Cd312 2.203 . S
Cd312 O311 2.203 . S
Cd312 O314 2.411 . S
Cd312 O315 2.333 . S
Cd312 O316 2.352 . S
Cd312 O320 2.277 . S
Cd312 O321 2.356 . S
C313 O318 1.209 . S
C313 O320 1.226 . S
O314 Cd310 2.273 . S
O314 Cd312 2.411 . S
O314 C317 1.320 . S
O315 Cd312 2.333 . S
O315 C317 1.214 . S
O316 Cd312 2.352 . S
O316 C319 1.258 . S
C317 O314 1.320 . S
C317 O315 1.214 . S
O318 Cd310 2.277 . S
O318 C313 1.209 . S
C319 O316 1.258 . S
C319 O321 1.282 . S
O320 Cd312 2.277 . S
O320 C313 1.226 . S
O321 Cd312 2.356 . S
O321 C319 1.282 . S
C322 O323 1.306 . S
C322 O325 1.160 . S
O323 C322 1.306 . S
O323 Cd324 2.228 . S
Cd324 O323 2.228 . S
Cd324 O328 2.273 . S
Cd324 O332 2.277 . S
O325 C322 1.160 . S
O325 Cd326 2.203 . S
Cd326 O325 2.203 . S
Cd326 O328 2.411 . S
Cd326 O329 2.333 . S
Cd326 O330 2.352 . S
Cd326 O334 2.277 . S
Cd326 O335 2.356 . S
C327 O332 1.209 . S
C327 O334 1.226 . S
O328 Cd324 2.273 . S
O328 Cd326 2.411 . S
O328 C331 1.320 . S
O329 Cd326 2.333 . S
O329 C331 1.214 . S
O330 Cd326 2.352 . S
O330 C333 1.258 . S
C331 O328 1.320 . S
C331 O329 1.214 . S
O332 Cd324 2.277 . S
O332 C327 1.209 . S
C333 O330 1.258 . S
C333 O335 1.282 . S
O334 Cd326 2.277 . S
O334 C327 1.226 . S
O335 Cd326 2.356 . S
O335 C333 1.282 . S
C336 O337 1.306 . S
C336 O339 1.160 . S
O337 C336 1.306 . S
O337 Cd338 2.228 . S
Cd338 O337 2.228 . S
Cd338 O342 2.273 . S
Cd338 O346 2.277 . S
O339 C336 1.160 . S
O339 Cd340 2.203 . S
Cd340 O339 2.203 . S
Cd340 O342 2.411 . S
Cd340 O343 2.333 . S
Cd340 O344 2.352 . S
Cd340 O348 2.277 . S
Cd340 O349 2.356 . S
C341 O346 1.209 . S
C341 O348 1.226 . S
O342 Cd338 2.273 . S
O342 Cd340 2.411 . S
O342 C345 1.320 . S
O343 Cd340 2.333 . S
O343 C345 1.214 . S
O344 Cd340 2.352 . S
O344 C347 1.258 . S
C345 O342 1.320 . S
C345 O343 1.214 . S
O346 Cd338 2.277 . S
O346 C341 1.209 . S
C347 O344 1.258 . S
C347 O349 1.282 . S
O348 Cd340 2.277 . S
O348 C341 1.226 . S
O349 Cd340 2.356 . S
O349 C347 1.282 . S
C350 O351 1.306 . S
C350 O353 1.160 . S
O351 C350 1.306 . S
O351 Cd352 2.228 . S
Cd352 O351 2.228 . S
Cd352 O356 2.273 . S
Cd352 O360 2.277 . S
O353 C350 1.160 . S
O353 Cd354 2.203 . S
Cd354 O353 2.203 . S
Cd354 O356 2.411 . S
Cd354 O357 2.333 . S
Cd354 O358 2.352 . S
Cd354 O362 2.277 . S
Cd354 O363 2.356 . S
C355 O360 1.209 . S
C355 O362 1.226 . S
O356 Cd352 2.273 . S
O356 Cd354 2.411 . S
O356 C359 1.320 . S
O357 Cd354 2.333 . S
O357 C359 1.214 . S
O358 Cd354 2.352 . S
O358 C361 1.258 . S
C359 O356 1.320 . S
C359 O357 1.214 . S
O360 Cd352 2.277 . S
O360 C355 1.209 . S
C361 O358 1.258 . S
C361 O363 1.282 . S
O362 Cd354 2.277 . S
O362 C355 1.226 . S
O363 Cd354 2.356 . S
O363 C361 1.282 . S
C364 O365 1.306 . S
C364 O367 1.160 . S
O365 C364 1.306 . S
O365 Cd366 2.228 . S
Cd366 O365 2.228 . S
Cd366 O370 2.273 . S
Cd366 O374 2.277 . S
O367 C364 1.160 . S
O367 Cd368 2.203 . S
Cd368 O367 2.203 . S
Cd368 O370 2.411 . S
Cd368 O371 2.333 . S
Cd368 O372 2.352 . S
Cd368 O376 2.277 . S
Cd368 O377 2.356 . S
C369 O374 1.209 . S
C369 O376 1.226 . S
O370 Cd366 2.273 . S
O370 Cd368 2.411 . S
O370 C373 1.320 . S
O371 Cd368 2.333 . S
O371 C373 1.214 . S
O372 Cd368 2.352 . S
O372 C375 1.258 . S
C373 O370 1.320 . S
C373 O371 1.214 . S
O374 Cd366 2.277 . S
O374 C369 1.209 . S
C375 O372 1.258 . S
C375 O377 1.282 . S
O376 Cd368 2.277 . S
O376 C369 1.226 . S
O377 Cd368 2.356 . S
O377 C375 1.282 . S
C378 O379 1.306 . S
C378 O381 1.160 . S
O379 C378 1.306 . S
O379 Cd380 2.228 . S
Cd380 O379 2.228 . S
Cd380 O384 2.273 . S
Cd380 O388 2.277 . S
O381 C378 1.160 . S
O381 Cd382 2.203 . S
Cd382 O381 2.203 . S
Cd382 O384 2.411 . S
Cd382 O385 2.333 . S
Cd382 O386 2.352 . S
Cd382 O390 2.277 . S
Cd382 O391 2.356 . S
C383 O388 1.209 . S
C383 O390 1.226 . S
O384 Cd380 2.273 . S
O384 Cd382 2.411 . S
O384 C387 1.320 . S
O385 Cd382 2.333 . S
O385 C387 1.214 . S
O386 Cd382 2.352 . S
O386 C389 1.258 . S
C387 O384 1.320 . S
C387 O385 1.214 . S
O388 Cd380 2.277 . S
O388 C383 1.209 . S
C389 O386 1.258 . S
C389 O391 1.282 . S
O390 Cd382 2.277 . S
O390 C383 1.226 . S
O391 Cd382 2.356 . S
O391 C389 1.282 . S
C392 O393 1.306 . S
C392 O395 1.160 . S
O393 C392 1.306 . S
O393 Cd394 2.228 . S
Cd394 O393 2.228 . S
Cd394 O398 2.273 . S
Cd394 O402 2.277 . S
O395 C392 1.160 . S
O395 Cd396 2.203 . S
Cd396 O395 2.203 . S
Cd396 O398 2.411 . S
Cd396 O399 2.333 . S
Cd396 O400 2.352 . S
Cd396 O404 2.277 . S
Cd396 O405 2.356 . S
C397 O402 1.209 . S
C397 O404 1.226 . S
O398 Cd394 2.273 . S
O398 Cd396 2.411 . S
O398 C401 1.320 . S
O399 Cd396 2.333 . S
O399 C401 1.214 . S
O400 Cd396 2.352 . S
O400 C403 1.258 . S
C401 O398 1.320 . S
C401 O399 1.214 . S
O402 Cd394 2.277 . S
O402 C397 1.209 . S
C403 O400 1.258 . S
C403 O405 1.282 . S
O404 Cd396 2.277 . S
O404 C397 1.226 . S
O405 Cd396 2.356 . S
O405 C403 1.282 . S
C406 O407 1.306 . S
C406 O409 1.160 . S
O407 C406 1.306 . S
O407 Cd408 2.228 . S
Cd408 O407 2.228 . S
Cd408 O412 2.273 . S
Cd408 O416 2.277 . S
O409 C406 1.160 . S
O409 Cd410 2.203 . S
Cd410 O409 2.203 . S
Cd410 O412 2.411 . S
Cd410 O413 2.333 . S
Cd410 O414 2.352 . S
Cd410 O418 2.277 . S
Cd410 O419 2.356 . S
C411 O416 1.209 . S
C411 O418 1.226 . S
O412 Cd408 2.273 . S
O412 Cd410 2.411 . S
O412 C415 1.320 . S
O413 Cd410 2.333 . S
O413 C415 1.214 . S
O414 Cd410 2.352 . S
O414 C417 1.258 . S
C415 O412 1.320 . S
C415 O413 1.214 . S
O416 Cd408 2.277 . S
O416 C411 1.209 . S
C417 O414 1.258 . S
C417 O419 1.282 . S
O418 Cd410 2.277 . S
O418 C411 1.226 . S
O419 Cd410 2.356 . S
O419 C417 1.282 . S
C420 O421 1.306 . S
C420 O423 1.160 . S
O421 C420 1.306 . S
O421 Cd422 2.228 . S
Cd422 O421 2.228 . S
Cd422 O426 2.273 . S
Cd422 O430 2.277 . S
O423 C420 1.160 . S
O423 Cd424 2.203 . S
Cd424 O423 2.203 . S
Cd424 O426 2.411 . S
Cd424 O427 2.333 . S
Cd424 O428 2.352 . S
Cd424 O432 2.277 . S
Cd424 O433 2.356 . S
C425 O430 1.209 . S
C425 O432 1.226 . S
O426 Cd422 2.273 . S
O426 Cd424 2.411 . S
O426 C429 1.320 . S
O427 Cd424 2.333 . S
O427 C429 1.214 . S
O428 Cd424 2.352 . S
O428 C431 1.258 . S
C429 O426 1.320 . S
C429 O427 1.214 . S
O430 Cd422 2.277 . S
O430 C425 1.209 . S
C431 O428 1.258 . S
C431 O433 1.282 . S
O432 Cd424 2.277 . S
O432 C425 1.226 . S
O433 Cd424 2.356 . S
O433 C431 1.282 . S
C434 O435 1.306 . S
C434 O437 1.160 . S
O435 C434 1.306 . S
O435 Cd436 2.228 . S
Cd436 O435 2.228 . S
Cd436 O440 2.273 . S
Cd436 O444 2.277 . S
O437 C434 1.160 . S
O437 Cd438 2.203 . S
Cd438 O437 2.203 . S
Cd438 O440 2.411 . S
Cd438 O441 2.333 . S
Cd438 O442 2.352 . S
Cd438 O446 2.277 . S
Cd438 O447 2.356 . S
C439 O444 1.209 . S
C439 O446 1.226 . S
O440 Cd436 2.273 . S
O440 Cd438 2.411 . S
O440 C443 1.320 . S
O441 Cd438 2.333 . S
O441 C443 1.214 . S
O442 Cd438 2.352 . S
O442 C445 1.258 . S
C443 O440 1.320 . S
C443 O441 1.214 . S
O444 Cd436 2.277 . S
O444 C439 1.209 . S
C445 O442 1.258 . S
C445 O447 1.282 . S
O446 Cd438 2.277 . S
O446 C439 1.226 . S
O447 Cd438 2.356 . S
O447 C445 1.282 . S
H448 C456 0.950 . S
H449 C461 0.950 . S
H450 C458 0.950 . S
H451 C460 0.950 . S
H452 C462 0.950 . S
H453 C464 0.950 . S
H454 C466 0.950 . S
H455 C467 0.950 . S
C456 H448 0.950 . S
C456 C457 1.386 . S
C456 C458 1.391 . S
C457 C456 1.386 . S
C457 C461 1.393 . S
C458 H450 0.950 . S
C458 C456 1.391 . S
C458 C459 1.400 . S
C459 C458 1.400 . S
C459 C460 1.398 . S
C459 C465 1.491 . S
C460 H451 0.950 . S
C460 C459 1.398 . S
C460 C461 1.391 . S
C461 H449 0.950 . S
C461 C457 1.393 . S
C461 C460 1.391 . S
C462 H452 0.950 . S
C462 C463 1.386 . S
C462 C464 1.391 . S
C463 C462 1.386 . S
C463 C467 1.393 . S
C464 H453 0.950 . S
C464 C462 1.391 . S
C464 C465 1.400 . S
C465 C459 1.491 . S
C465 C464 1.400 . S
C465 C466 1.398 . S
C466 H454 0.950 . S
C466 C465 1.398 . S
C466 C467 1.391 . S
C467 H455 0.950 . S
C467 C463 1.393 . S
C467 C466 1.391 . S
H468 C476 0.950 . S
H469 C481 0.950 . S
H470 C478 0.950 . S
H471 C480 0.950 . S
H472 C482 0.950 . S
H473 C484 0.950 . S
H474 C486 0.950 . S
H475 C487 0.950 . S
C476 H468 0.950 . S
C476 C477 1.386 . S
C476 C478 1.391 . S
C477 C476 1.386 . S
C477 C481 1.393 . S
C478 H470 0.950 . S
C478 C476 1.391 . S
C478 C479 1.400 . S
C479 C478 1.400 . S
C479 C480 1.398 . S
C479 C485 1.491 . S
C480 H471 0.950 . S
C480 C479 1.398 . S
C480 C481 1.391 . S
C481 H469 0.950 . S
C481 C477 1.393 . S
C481 C480 1.391 . S
C482 H472 0.950 . S
C482 C483 1.386 . S
C482 C484 1.391 . S
C483 C482 1.386 . S
C483 C487 1.393 . S
C484 H473 0.950 . S
C484 C482 1.391 . S
C484 C485 1.400 . S
C485 C479 1.491 . S
C485 C484 1.400 . S
C485 C486 1.398 . S
C486 H474 0.950 . S
C486 C485 1.398 . S
C486 C487 1.391 . S
C487 H475 0.950 . S
C487 C483 1.393 . S
C487 C486 1.391 . S
H488 C496 0.950 . S
H489 C501 0.950 . S
H490 C498 0.950 . S
H491 C500 0.950 . S
H492 C502 0.950 . S
H493 C504 0.950 . S
H494 C506 0.950 . S
H495 C507 0.950 . S
C496 H488 0.950 . S
C496 C497 1.386 . S
C496 C498 1.391 . S
C497 C496 1.386 . S
C497 C501 1.393 . S
C498 H490 0.950 . S
C498 C496 1.391 . S
C498 C499 1.400 . S
C499 C498 1.400 . S
C499 C500 1.398 . S
C499 C505 1.491 . S
C500 H491 0.950 . S
C500 C499 1.398 . S
C500 C501 1.391 . S
C501 H489 0.950 . S
C501 C497 1.393 . S
C501 C500 1.391 . S
C502 H492 0.950 . S
C502 C503 1.386 . S
C502 C504 1.391 . S
C503 C502 1.386 . S
C503 C507 1.393 . S
C504 H493 0.950 . S
C504 C502 1.391 . S
C504 C505 1.400 . S
C505 C499 1.491 . S
C505 C504 1.400 . S
C505 C506 1.398 . S
C506 H494 0.950 . S
C506 C505 1.398 . S
C506 C507 1.391 . S
C507 H495 0.950 . S
C507 C503 1.393 . S
C507 C506 1.391 . S
H508 C516 0.950 . S
H509 C521 0.950 . S
H510 C518 0.950 . S
H511 C520 0.950 . S
H512 C522 0.950 . S
H513 C524 0.950 . S
H514 C526 0.950 . S
H515 C527 0.950 . S
C516 H508 0.950 . S
C516 C517 1.386 . S
C516 C518 1.391 . S
C517 C516 1.386 . S
C517 C521 1.393 . S
C518 H510 0.950 . S
C518 C516 1.391 . S
C518 C519 1.400 . S
C519 C518 1.400 . S
C519 C520 1.398 . S
C519 C525 1.491 . S
C520 H511 0.950 . S
C520 C519 1.398 . S
C520 C521 1.391 . S
C521 H509 0.950 . S
C521 C517 1.393 . S
C521 C520 1.391 . S
C522 H512 0.950 . S
C522 C523 1.386 . S
C522 C524 1.391 . S
C523 C522 1.386 . S
C523 C527 1.393 . S
C524 H513 0.950 . S
C524 C522 1.391 . S
C524 C525 1.400 . S
C525 C519 1.491 . S
C525 C524 1.400 . S
C525 C526 1.398 . S
C526 H514 0.950 . S
C526 C525 1.398 . S
C526 C527 1.391 . S
C527 H515 0.950 . S
C527 C523 1.393 . S
C527 C526 1.391 . S
H528 C536 0.950 . S
H529 C541 0.950 . S
H530 C538 0.950 . S
H531 C540 0.950 . S
H532 C542 0.950 . S
H533 C544 0.950 . S
H534 C546 0.950 . S
H535 C547 0.950 . S
C536 H528 0.950 . S
C536 C537 1.386 1_545 S
C536 C538 1.391 . S
C537 C536 1.386 1_565 S
C537 C541 1.393 1_565 S
C538 H530 0.950 . S
C538 C536 1.391 . S
C538 C539 1.400 . S
C539 C538 1.400 . S
C539 C540 1.398 . S
C539 C545 1.491 . S
C540 H531 0.950 . S
C540 C539 1.398 . S
C540 C541 1.391 . S
C541 H529 0.950 . S
C541 C537 1.393 1_545 S
C541 C540 1.391 . S
C542 H532 0.950 . S
C542 C543 1.386 . S
C542 C544 1.391 . S
C543 C542 1.386 . S
C543 C547 1.393 . S
C544 H533 0.950 . S
C544 C542 1.391 . S
C544 C545 1.400 . S
C545 C539 1.491 . S
C545 C544 1.400 . S
C545 C546 1.398 . S
C546 H534 0.950 . S
C546 C545 1.398 . S
C546 C547 1.391 . S
C547 H535 0.950 . S
C547 C543 1.393 . S
C547 C546 1.391 . S
H548 C556 0.950 . S
H549 C561 0.962 . S
H550 C558 0.950 . S
H551 C560 0.950 . S
H552 C562 0.950 . S
H553 C564 0.950 . S
H554 C566 0.950 . S
H555 C567 0.950 . S
C556 H548 0.950 . S
C556 C557 1.386 1_545 S
C556 C558 1.391 . S
C557 C556 1.386 1_565 S
C557 C561 1.393 1_565 S
C558 H550 0.950 . S
C558 C556 1.391 . S
C558 C559 1.400 . S
C559 C558 1.400 . S
C559 C560 1.398 . S
C559 C565 1.491 . S
C560 H551 0.950 . S
C560 C559 1.398 . S
C560 C561 1.391 . S
C561 H549 0.962 . S
C561 C557 1.393 1_545 S
C561 C560 1.391 . S
C562 H552 0.950 . S
C562 C563 1.386 . S
C562 C564 1.391 . S
C563 C562 1.386 . S
C563 C567 1.393 . S
C564 H553 0.950 . S
C564 C562 1.391 . S
C564 C565 1.400 . S
C565 C559 1.491 . S
C565 C564 1.400 . S
C565 C566 1.398 . S
C566 H554 0.950 . S
C566 C565 1.398 . S
C566 C567 1.391 . S
C567 H555 0.950 . S
C567 C563 1.393 . S
C567 C566 1.391 . S
H568 C576 0.955 . S
H569 C581 0.950 . S
H570 C578 0.950 . S
H571 C580 0.950 . S
H572 C582 0.950 . S
H573 C584 0.950 . S
H574 C586 0.950 . S
H575 C587 0.950 . S
C576 H568 0.955 . S
C576 C577 1.386 1_565 S
C576 C578 1.391 . S
C577 C576 1.386 1_545 S
C577 C581 1.393 1_545 S
C578 H570 0.950 . S
C578 C576 1.391 . S
C578 C579 1.400 . S
C579 C578 1.400 . S
C579 C580 1.398 . S
C579 C585 1.491 . S
C580 H571 0.950 . S
C580 C579 1.398 . S
C580 C581 1.391 . S
C581 H569 0.950 . S
C581 C577 1.393 1_565 S
C581 C580 1.391 . S
C582 H572 0.950 . S
C582 C583 1.386 . S
C582 C584 1.391 . S
C583 C582 1.386 . S
C583 C587 1.393 . S
C584 H573 0.950 . S
C584 C582 1.391 . S
C584 C585 1.400 . S
C585 C579 1.491 . S
C585 C584 1.400 . S
C585 C586 1.398 . S
C586 H574 0.950 . S
C586 C585 1.398 . S
C586 C587 1.391 . S
C587 H575 0.950 . S
C587 C583 1.393 . S
C587 C586 1.391 . S
H588 C596 0.950 . S
H589 C601 0.950 . S
H590 C598 0.950 . S
H591 C600 0.950 . S
H592 C602 0.950 1_545 S
H593 C604 0.950 . S
H594 C606 0.950 . S
H595 C607 0.950 . S
C596 H588 0.950 . S
C596 C597 1.386 . S
C596 C598 1.391 . S
C597 C596 1.386 . S
C597 C601 1.393 . S
C598 H590 0.950 . S
C598 C596 1.391 . S
C598 C599 1.400 . S
C599 C598 1.400 . S
C599 C600 1.398 . S
C599 C605 1.491 . S
C600 H591 0.950 . S
C600 C599 1.398 . S
C600 C601 1.391 . S
C601 H589 0.950 . S
C601 C597 1.393 . S
C601 C600 1.391 . S
C602 H592 0.950 1_565 S
C602 C603 1.386 1_565 S
C602 C604 1.391 . S
C603 C602 1.386 1_545 S
C603 C607 1.393 1_545 S
C604 H593 0.950 . S
C604 C602 1.391 . S
C604 C605 1.400 . S
C605 C599 1.491 . S
C605 C604 1.400 . S
C605 C606 1.398 . S
C606 H594 0.950 . S
C606 C605 1.398 . S
C606 C607 1.391 . S
C607 H595 0.950 . S
C607 C603 1.393 1_565 S
C607 C606 1.391 . S
H608 C616 0.950 . S
H609 C621 0.950 . S
H610 C618 0.950 . S
H611 C620 0.950 . S
H612 C622 0.950 . S
H613 C624 0.950 . S
H614 C626 0.950 . S
H615 C627 0.950 . S
C616 H608 0.950 . S
C616 C617 1.386 . S
C616 C618 1.391 . S
C617 C616 1.386 . S
C617 C621 1.393 . S
C618 H610 0.950 . S
C618 C616 1.391 . S
C618 C619 1.400 . S
C619 C618 1.400 . S
C619 C620 1.398 . S
C619 C625 1.491 . S
C620 H611 0.950 . S
C620 C619 1.398 . S
C620 C621 1.391 . S
C621 H609 0.950 . S
C621 C617 1.393 . S
C621 C620 1.391 . S
C622 H612 0.950 . S
C622 C623 1.386 . S
C622 C624 1.391 . S
C623 C622 1.386 . S
C623 C627 1.393 . S
C624 H613 0.950 . S
C624 C622 1.391 . S
C624 C625 1.400 . S
C625 C619 1.491 . S
C625 C624 1.400 . S
C625 C626 1.398 . S
C626 H614 0.950 . S
C626 C625 1.398 . S
C626 C627 1.391 . S
C627 H615 0.950 . S
C627 C623 1.393 . S
C627 C626 1.391 . S
H628 C636 0.950 . S
H629 C641 0.950 . S
H630 C638 0.950 . S
H631 C640 0.950 . S
H632 C642 0.950 . S
H633 C644 0.950 . S
H634 C646 0.950 . S
H635 C647 0.950 . S
C636 H628 0.950 . S
C636 C637 1.386 . S
C636 C638 1.391 . S
C637 C636 1.386 . S
C637 C641 1.393 . S
C638 H630 0.950 . S
C638 C636 1.391 . S
C638 C639 1.400 . S
C639 C638 1.400 . S
C639 C640 1.398 . S
C639 C645 1.491 . S
C640 H631 0.950 . S
C640 C639 1.398 . S
C640 C641 1.391 . S
C641 H629 0.950 . S
C641 C637 1.393 . S
C641 C640 1.391 . S
C642 H632 0.950 . S
C642 C643 1.386 . S
C642 C644 1.391 . S
C643 C642 1.386 . S
C643 C647 1.393 . S
C644 H633 0.950 . S
C644 C642 1.391 . S
C644 C645 1.400 . S
C645 C639 1.491 . S
C645 C644 1.400 . S
C645 C646 1.398 . S
C646 H634 0.950 . S
C646 C645 1.398 . S
C646 C647 1.391 . S
C647 H635 0.950 . S
C647 C643 1.393 . S
C647 C646 1.391 . S
H648 C656 0.950 . S
H649 C661 0.950 . S
H650 C658 0.950 . S
H651 C660 0.950 . S
H652 C662 0.950 . S
H653 C664 0.950 . S
H654 C666 0.950 . S
H655 C667 0.950 . S
C656 H648 0.950 . S
C656 C657 1.386 . S
C656 C658 1.391 . S
C657 C656 1.386 . S
C657 C661 1.393 . S
C658 H650 0.950 . S
C658 C656 1.391 . S
C658 C659 1.400 . S
C659 C658 1.400 . S
C659 C660 1.398 . S
C659 C665 1.491 . S
C660 H651 0.950 . S
C660 C659 1.398 . S
C660 C661 1.391 . S
C661 H649 0.950 . S
C661 C657 1.393 . S
C661 C660 1.391 . S
C662 H652 0.950 . S
C662 C663 1.386 . S
C662 C664 1.391 . S
C663 C662 1.386 . S
C663 C667 1.393 . S
C664 H653 0.950 . S
C664 C662 1.391 . S
C664 C665 1.400 . S
C665 C659 1.491 . S
C665 C664 1.400 . S
C665 C666 1.398 . S
C666 H654 0.950 . S
C666 C665 1.398 . S
C666 C667 1.391 . S
C667 H655 0.950 . S
C667 C663 1.393 . S
C667 C666 1.391 . S
H668 C676 0.950 . S
H669 C681 0.950 . S
H670 C678 0.950 . S
H671 C680 0.950 . S
H672 C682 0.950 . S
H673 C684 0.950 . S
H674 C686 0.950 . S
H675 C687 0.950 . S
C676 H668 0.950 . S
C676 C677 1.386 . S
C676 C678 1.391 . S
C677 C676 1.386 . S
C677 C681 1.393 . S
C678 H670 0.950 . S
C678 C676 1.391 . S
C678 C679 1.400 . S
C679 C678 1.400 . S
C679 C680 1.398 . S
C679 C685 1.491 . S
C680 H671 0.950 . S
C680 C679 1.398 . S
C680 C681 1.391 . S
C681 H669 0.950 . S
C681 C677 1.393 . S
C681 C680 1.391 . S
C682 H672 0.950 . S
C682 C683 1.386 . S
C682 C684 1.391 . S
C683 C682 1.386 . S
C683 C687 1.393 . S
C684 H673 0.950 . S
C684 C682 1.391 . S
C684 C685 1.400 . S
C685 C679 1.491 . S
C685 C684 1.400 . S
C685 C686 1.398 . S
C686 H674 0.950 . S
C686 C685 1.398 . S
C686 C687 1.391 . S
C687 H675 0.950 . S
C687 C683 1.393 . S
C687 C686 1.391 . S
H688 C696 0.950 . S
H689 C701 0.950 . S
H690 C698 0.950 . S
H691 C700 0.950 . S
H692 C702 0.950 . S
H693 C704 0.950 . S
H694 C706 0.950 . S
H695 C707 0.951 . S
C696 H688 0.950 . S
C696 C697 1.386 . S
C696 C698 1.391 . S
C697 C696 1.386 . S
C697 C701 1.393 . S
C698 H690 0.950 . S
C698 C696 1.391 . S
C698 C699 1.400 . S
C699 C698 1.400 . S
C699 C700 1.398 . S
C699 C705 1.491 . S
C700 H691 0.950 . S
C700 C699 1.398 . S
C700 C701 1.391 . S
C701 H689 0.950 . S
C701 C697 1.393 . S
C701 C700 1.391 . S
C702 H692 0.950 . S
C702 C703 1.386 1_545 S
C702 C704 1.391 . S
C703 C702 1.386 1_565 S
C703 C707 1.393 1_565 S
C704 H693 0.950 . S
C704 C702 1.391 . S
C704 C705 1.400 . S
C705 C699 1.491 . S
C705 C704 1.400 . S
C705 C706 1.398 . S
C706 H694 0.950 . S
C706 C705 1.398 . S
C706 C707 1.391 . S
C707 H695 0.951 . S
C707 C703 1.393 1_545 S
C707 C706 1.391 . S
H708 C716 0.946 1_565 S
H709 C721 0.950 . S
H710 C718 0.950 . S
H711 C720 0.950 . S
H712 C722 0.950 . S
H713 C724 0.950 . S
H714 C726 0.950 . S
H715 C727 0.950 . S
C716 H708 0.946 1_545 S
C716 C717 1.386 1_545 S
C716 C718 1.391 . S
C717 C716 1.386 1_565 S
C717 C721 1.393 1_565 S
C718 H710 0.950 . S
C718 C716 1.391 . S
C718 C719 1.400 . S
C719 C718 1.400 . S
C719 C720 1.398 . S
C719 C725 1.491 . S
C720 H711 0.950 . S
C720 C719 1.398 . S
C720 C721 1.391 . S
C721 H709 0.950 . S
C721 C717 1.393 1_545 S
C721 C720 1.391 . S
C722 H712 0.950 . S
C722 C723 1.386 . S
C722 C724 1.391 . S
C723 C722 1.386 . S
C723 C727 1.393 . S
C724 H713 0.950 . S
C724 C722 1.391 . S
C724 C725 1.400 . S
C725 C719 1.491 . S
C725 C724 1.400 . S
C725 C726 1.398 . S
C726 H714 0.950 . S
C726 C725 1.398 . S
C726 C727 1.391 . S
C727 H715 0.950 . S
C727 C723 1.393 . S
C727 C726 1.391 . S
H728 C736 0.950 . S
H729 C741 0.950 . S
H730 C738 0.950 . S
H731 C740 0.950 . S
H732 C742 0.950 1_545 S
H733 C744 0.950 . S
H734 C746 0.950 . S
H735 C747 0.950 . S
C736 H728 0.950 . S
C736 C737 1.386 . S
C736 C738 1.391 . S
C737 C736 1.386 . S
C737 C741 1.393 . S
C738 H730 0.950 . S
C738 C736 1.391 . S
C738 C739 1.400 . S
C739 C738 1.400 . S
C739 C740 1.398 . S
C739 C745 1.491 . S
C740 H731 0.950 . S
C740 C739 1.398 . S
C740 C741 1.391 . S
C741 H729 0.950 . S
C741 C737 1.393 . S
C741 C740 1.391 . S
C742 H732 0.950 1_565 S
C742 C743 1.386 1_565 S
C742 C744 1.391 . S
C743 C742 1.386 1_545 S
C743 C747 1.393 1_545 S
C744 H733 0.950 . S
C744 C742 1.391 . S
C744 C745 1.400 . S
C745 C739 1.491 . S
C745 C744 1.400 . S
C745 C746 1.398 . S
C746 H734 0.950 . S
C746 C745 1.398 . S
C746 C747 1.391 . S
C747 H735 0.950 . S
C747 C743 1.393 1_565 S
C747 C746 1.391 . S
H748 C756 0.950 . S
H749 C761 0.950 . S
H750 C758 0.950 . S
H751 C760 0.950 . S
H752 C762 0.950 1_545 S
H753 C764 0.950 . S
H754 C766 0.950 . S
H755 C767 0.950 . S
C756 H748 0.950 . S
C756 C757 1.386 . S
C756 C758 1.391 . S
C757 C756 1.386 . S
C757 C761 1.393 . S
C758 H750 0.950 . S
C758 C756 1.391 . S
C758 C759 1.400 . S
C759 C758 1.400 . S
C759 C760 1.398 . S
C759 C765 1.491 . S
C760 H751 0.950 . S
C760 C759 1.398 . S
C760 C761 1.391 . S
C761 H749 0.950 . S
C761 C757 1.393 . S
C761 C760 1.391 . S
C762 H752 0.950 1_565 S
C762 C763 1.386 1_565 S
C762 C764 1.391 . S
C763 C762 1.386 1_545 S
C763 C767 1.393 1_545 S
C764 H753 0.950 . S
C764 C762 1.391 . S
C764 C765 1.400 . S
C765 C759 1.491 . S
C765 C764 1.400 . S
C765 C766 1.398 . S
C766 H754 0.950 . S
C766 C765 1.398 . S
C766 C767 1.391 . S
C767 H755 0.950 . S
C767 C763 1.393 1_565 S
C767 C766 1.391 . S
H768 C776 0.950 . S
H769 C781 0.950 . S
H770 C778 0.950 . S
H771 C780 0.950 1_554 S
H772 C782 0.950 . S
H773 C784 0.950 . S
H774 C786 0.950 1_556 S
H775 C787 0.950 . S
C776 H768 0.950 . S
C776 C777 1.386 . S
C776 C778 1.391 1_655 S
C777 C776 1.386 . S
C777 C781 1.393 . S
C778 H770 0.950 . S
C778 C776 1.391 1_455 S
C778 C779 1.400 1_455 S
C779 C778 1.400 1_655 S
C779 C780 1.398 . S
C779 C785 1.491 1_656 S
C780 H771 0.950 1_556 S
C780 C779 1.398 . S
C780 C781 1.391 . S
C781 H769 0.950 . S
C781 C777 1.393 . S
C781 C780 1.391 . S
C782 H772 0.950 . S
C782 C783 1.386 . S
C782 C784 1.391 1_455 S
C783 C782 1.386 . S
C783 C787 1.393 . S
C784 H773 0.950 . S
C784 C782 1.391 1_655 S
C784 C785 1.400 1_655 S
C785 C779 1.491 1_454 S
C785 C784 1.400 1_455 S
C785 C786 1.398 . S
C786 H774 0.950 1_554 S
C786 C785 1.398 . S
C786 C787 1.391 . S
C787 H775 0.950 . S
C787 C783 1.393 . S
C787 C786 1.391 . S
H788 C796 0.950 . S
H789 C801 0.950 . S
H790 C798 0.950 1_554 S
H791 C800 0.950 . S
H792 C802 0.950 . S
H793 C804 0.950 1_556 S
H794 C806 0.950 . S
H795 C807 0.950 . S
C796 H788 0.950 . S
C796 C797 1.386 . S
C796 C798 1.391 . S
C797 C796 1.386 . S
C797 C801 1.393 . S
C798 H790 0.950 1_556 S
C798 C796 1.391 . S
C798 C799 1.400 . S
C799 C798 1.400 . S
C799 C800 1.398 . S
C799 C805 1.491 1_556 S
C800 H791 0.950 . S
C800 C799 1.398 . S
C800 C801 1.391 . S
C801 H789 0.950 . S
C801 C797 1.393 . S
C801 C800 1.391 . S
C802 H792 0.950 . S
C802 C803 1.386 . S
C802 C804 1.391 . S
C803 C802 1.386 . S
C803 C807 1.393 . S
C804 H793 0.950 1_554 S
C804 C802 1.391 . S
C804 C805 1.400 . S
C805 C799 1.491 1_554 S
C805 C804 1.400 . S
C805 C806 1.398 . S
C806 H794 0.950 . S
C806 C805 1.398 . S
C806 C807 1.391 . S
C807 H795 0.950 . S
C807 C803 1.393 . S
C807 C806 1.391 . S
H808 C816 0.950 . S
H809 C821 0.927 1_655 S
H810 C818 0.950 . S
H811 C820 0.950 . S
H812 C822 0.950 . S
H813 C824 0.950 . S
H814 C826 0.950 . S
H815 C827 0.927 1_455 S
C816 H808 0.950 . S
C816 C817 1.386 . S
C816 C818 1.391 . S
C817 C816 1.386 . S
C817 C821 1.393 . S
C818 H810 0.950 . S
C818 C816 1.391 . S
C818 C819 1.400 . S
C819 C818 1.400 . S
C819 C820 1.398 1_455 S
C819 C825 1.491 1_455 S
C820 H811 0.950 . S
C820 C819 1.398 1_655 S
C820 C821 1.391 1_655 S
C821 H809 0.927 1_455 S
C821 C817 1.393 . S
C821 C820 1.391 1_455 S
C822 H812 0.950 . S
C822 C823 1.386 . S
C822 C824 1.391 . S
C823 C822 1.386 . S
C823 C827 1.393 . S
C824 H813 0.950 . S
C824 C822 1.391 . S
C824 C825 1.400 . S
C825 C819 1.491 1_655 S
C825 C824 1.400 . S
C825 C826 1.398 1_655 S
C826 H814 0.950 . S
C826 C825 1.398 1_455 S
C826 C827 1.391 1_455 S
C827 H815 0.927 1_655 S
C827 C823 1.393 . S
C827 C826 1.391 1_655 S
H828 C836 0.950 . S
H829 C841 0.950 . S
H830 C838 0.950 . S
H831 C840 0.950 . S
H832 C842 0.950 . S
H833 C844 0.950 . S
H834 C846 0.950 . S
H835 C847 0.950 . S
C836 H828 0.950 . S
C836 C837 1.386 . S
C836 C838 1.391 . S
C837 C836 1.386 . S
C837 C841 1.393 . S
C838 H830 0.950 . S
C838 C836 1.391 . S
C838 C839 1.400 . S
C839 C838 1.400 . S
C839 C840 1.398 . S
C839 C845 1.491 . S
C840 H831 0.950 . S
C840 C839 1.398 . S
C840 C841 1.391 . S
C841 H829 0.950 . S
C841 C837 1.393 . S
C841 C840 1.391 . S
C842 H832 0.950 . S
C842 C843 1.386 . S
C842 C844 1.391 . S
C843 C842 1.386 . S
C843 C847 1.393 . S
C844 H833 0.950 . S
C844 C842 1.391 . S
C844 C845 1.400 . S
C845 C839 1.491 . S
C845 C844 1.400 . S
C845 C846 1.398 . S
C846 H834 0.950 . S
C846 C845 1.398 . S
C846 C847 1.391 . S
C847 H835 0.950 . S
C847 C843 1.393 . S
C847 C846 1.391 . S
H848 C856 0.950 . S
H849 C861 0.950 . S
H850 C858 0.950 . S
H851 C860 0.950 1_554 S
H852 C862 0.950 . S
H853 C864 0.950 . S
H854 C866 0.950 1_556 S
H855 C867 0.950 . S
C856 H848 0.950 . S
C856 C857 1.386 . S
C856 C858 1.391 . S
C857 C856 1.386 . S
C857 C861 1.393 . S
C858 H850 0.950 . S
C858 C856 1.391 . S
C858 C859 1.400 . S
C859 C858 1.400 . S
C859 C860 1.398 . S
C859 C865 1.491 1_556 S
C860 H851 0.950 1_556 S
C860 C859 1.398 . S
C860 C861 1.391 . S
C861 H849 0.950 . S
C861 C857 1.393 . S
C861 C860 1.391 . S
C862 H852 0.950 . S
C862 C863 1.386 . S
C862 C864 1.391 . S
C863 C862 1.386 . S
C863 C867 1.393 . S
C864 H853 0.950 . S
C864 C862 1.391 . S
C864 C865 1.400 . S
C865 C859 1.491 1_554 S
C865 C864 1.400 . S
C865 C866 1.398 . S
C866 H854 0.950 1_554 S
C866 C865 1.398 . S
C866 C867 1.391 . S
C867 H855 0.950 . S
C867 C863 1.393 . S
C867 C866 1.391 . S
H868 C876 0.950 . S
H869 C881 0.950 . S
H870 C878 0.950 1_455 S
H871 C880 0.950 . S
H872 C882 0.950 . S
H873 C884 0.950 1_655 S
H874 C886 0.950 . S
H875 C887 0.950 . S
C876 H868 0.950 . S
C876 C877 1.386 . S
C876 C878 1.391 . S
C877 C876 1.386 . S
C877 C881 1.393 . S
C878 H870 0.950 1_655 S
C878 C876 1.391 . S
C878 C879 1.400 . S
C879 C878 1.400 . S
C879 C880 1.398 . S
C879 C885 1.491 1_655 S
C880 H871 0.950 . S
C880 C879 1.398 . S
C880 C881 1.391 . S
C881 H869 0.950 . S
C881 C877 1.393 . S
C881 C880 1.391 . S
C882 H872 0.950 . S
C882 C883 1.386 . S
C882 C884 1.391 . S
C883 C882 1.386 . S
C883 C887 1.393 . S
C884 H873 0.950 1_455 S
C884 C882 1.391 . S
C884 C885 1.400 . S
C885 C879 1.491 1_455 S
C885 C884 1.400 . S
C885 C886 1.398 . S
C886 H874 0.950 . S
C886 C885 1.398 . S
C886 C887 1.391 . S
C887 H875 0.950 . S
C887 C883 1.393 . S
C887 C886 1.391 . S
H888 C896 0.950 . S
H889 C901 0.950 . S
H890 C898 0.950 . S
H891 C900 0.950 . S
H892 C902 0.950 . S
H893 C904 0.950 . S
H894 C906 0.950 . S
H895 C907 0.950 . S
C896 H888 0.950 . S
C896 C897 1.386 . S
C896 C898 1.391 . S
C897 C896 1.386 . S
C897 C901 1.393 . S
C898 H890 0.950 . S
C898 C896 1.391 . S
C898 C899 1.400 . S
C899 C898 1.400 . S
C899 C900 1.398 . S
C899 C905 1.491 . S
C900 H891 0.950 . S
C900 C899 1.398 . S
C900 C901 1.391 . S
C901 H889 0.950 . S
C901 C897 1.393 . S
C901 C900 1.391 . S
C902 H892 0.950 . S
C902 C903 1.386 . S
C902 C904 1.391 . S
C903 C902 1.386 . S
C903 C907 1.393 . S
C904 H893 0.950 . S
C904 C902 1.391 . S
C904 C905 1.400 . S
C905 C899 1.491 . S
C905 C904 1.400 . S
C905 C906 1.398 . S
C906 H894 0.950 . S
C906 C905 1.398 . S
C906 C907 1.391 . S
C907 H895 0.950 . S
C907 C903 1.393 . S
C907 C906 1.391 . S
H908 C916 0.950 1_455 S
H909 C921 0.950 . S
H910 C918 0.950 . S
H911 C920 0.950 1_565 S
H912 C922 0.950 1_655 S
H913 C924 0.950 . S
H914 C926 0.950 1_545 S
H915 C927 0.950 . S
C916 H908 0.950 1_655 S
C916 C917 1.386 . S
C916 C918 1.391 1_655 S
C917 C916 1.386 . S
C917 C921 1.393 . S
C918 H910 0.950 . S
C918 C916 1.391 1_455 S
C918 C919 1.400 1_455 S
C919 C918 1.400 1_655 S
C919 C920 1.398 . S
C919 C925 1.491 1_645 S
C920 H911 0.950 1_545 S
C920 C919 1.398 . S
C920 C921 1.391 . S
C921 H909 0.950 . S
C921 C917 1.393 . S
C921 C920 1.391 . S
C922 H912 0.950 1_455 S
C922 C923 1.386 . S
C922 C924 1.391 1_455 S
C923 C922 1.386 . S
C923 C927 1.393 . S
C924 H913 0.950 . S
C924 C922 1.391 1_655 S
C924 C925 1.400 1_655 S
C925 C919 1.491 1_465 S
C925 C924 1.400 1_455 S
C925 C926 1.398 . S
C926 H914 0.950 1_565 S
C926 C925 1.398 . S
C926 C927 1.391 . S
C927 H915 0.950 . S
C927 C923 1.393 . S
C927 C926 1.391 . S
H928 C936 0.950 . S
H929 C941 0.950 . S
H930 C938 0.950 . S
H931 C940 0.950 . S
H932 C942 0.950 . S
H933 C944 0.950 . S
H934 C946 0.950 . S
H935 C947 0.950 . S
C936 H928 0.950 . S
C936 C937 1.386 . S
C936 C938 1.391 . S
C937 C936 1.386 . S
C937 C941 1.393 . S
C938 H930 0.950 . S
C938 C936 1.391 . S
C938 C939 1.400 . S
C939 C938 1.400 . S
C939 C940 1.398 . S
C939 C945 1.491 . S
C940 H931 0.950 . S
C940 C939 1.398 . S
C940 C941 1.391 . S
C941 H929 0.950 . S
C941 C937 1.393 . S
C941 C940 1.391 . S
C942 H932 0.950 . S
C942 C943 1.386 . S
C942 C944 1.391 . S
C943 C942 1.386 . S
C943 C947 1.393 . S
C944 H933 0.950 . S
C944 C942 1.391 . S
C944 C945 1.400 . S
C945 C939 1.491 . S
C945 C944 1.400 . S
C945 C946 1.398 . S
C946 H934 0.950 . S
C946 C945 1.398 . S
C946 C947 1.391 . S
C947 H935 0.950 . S
C947 C943 1.393 . S
C947 C946 1.391 . S
H948 C956 0.950 1_545 S
H949 C961 0.950 . S
H950 C958 0.950 . S
H951 C960 0.950 . S
H952 C962 0.950 1_565 S
H953 C964 0.950 . S
H954 C966 0.950 . S
H955 C967 0.950 . S
C956 H948 0.950 1_565 S
C956 C957 1.386 . S
C956 C958 1.391 1_565 S
C957 C956 1.386 . S
C957 C961 1.393 . S
C958 H950 0.950 . S
C958 C956 1.391 1_545 S
C958 C959 1.400 1_545 S
C959 C958 1.400 1_565 S
C959 C960 1.398 . S
C959 C965 1.491 1_565 S
C960 H951 0.950 . S
C960 C959 1.398 . S
C960 C961 1.391 . S
C961 H949 0.950 . S
C961 C957 1.393 . S
C961 C960 1.391 . S
C962 H952 0.950 1_545 S
C962 C963 1.386 . S
C962 C964 1.391 1_545 S
C963 C962 1.386 . S
C963 C967 1.393 . S
C964 H953 0.950 . S
C964 C962 1.391 1_565 S
C964 C965 1.400 1_565 S
C965 C959 1.491 1_545 S
C965 C964 1.400 1_545 S
C965 C966 1.398 . S
C966 H954 0.950 . S
C966 C965 1.398 . S
C966 C967 1.391 . S
C967 H955 0.950 . S
C967 C963 1.393 . S
C967 C966 1.391 . S
H968 C976 0.950 . S
H969 C981 0.950 . S
H970 C978 0.950 . S
H971 C980 0.950 . S
H972 C982 0.950 . S
H973 C984 0.950 . S
H974 C986 0.950 . S
H975 C987 0.950 . S
C976 H968 0.950 . S
C976 C977 1.386 . S
C976 C978 1.391 . S
C977 C976 1.386 . S
C977 C981 1.393 . S
C978 H970 0.950 . S
C978 C976 1.391 . S
C978 C979 1.400 . S
C979 C978 1.400 . S
C979 C980 1.398 . S
C979 C985 1.491 . S
C980 H971 0.950 . S
C980 C979 1.398 . S
C980 C981 1.391 . S
C981 H969 0.950 . S
C981 C977 1.393 . S
C981 C980 1.391 . S
C982 H972 0.950 . S
C982 C983 1.386 . S
C982 C984 1.391 . S
C983 C982 1.386 . S
C983 C987 1.393 . S
C984 H973 0.950 . S
C984 C982 1.391 . S
C984 C985 1.400 . S
C985 C979 1.491 . S
C985 C984 1.400 . S
C985 C986 1.398 . S
C986 H974 0.950 . S
C986 C985 1.398 . S
C986 C987 1.391 . S
C987 H975 0.950 . S
C987 C983 1.393 . S
C987 C986 1.391 . S
H988 C996 0.950 . S
H989 C1001 0.950 . S
H990 C998 0.950 . S
H991 C1000 0.968 . S
H992 C1002 0.950 . S
H993 C1004 0.950 . S
H994 C1006 0.968 . S
H995 C1007 0.950 . S
C996 H988 0.950 . S
C996 C997 1.386 . S
C996 C998 1.391 . S
C997 C996 1.386 . S
C997 C1001 1.393 . S
C998 H990 0.950 . S
C998 C996 1.391 . S
C998 C999 1.400 . S
C999 C998 1.400 . S
C999 C1000 1.392 1_565 S
C999 C1005 1.491 1_565 S
C1000 H991 0.968 . S
C1000 C999 1.392 1_545 S
C1000 C1001 1.380 1_545 S
C1001 H989 0.950 . S
C1001 C997 1.393 . S
C1001 C1000 1.380 1_565 S
C1002 H992 0.950 . S
C1002 C1003 1.386 . S
C1002 C1004 1.391 . S
C1003 C1002 1.386 . S
C1003 C1007 1.393 . S
C1004 H993 0.950 . S
C1004 C1002 1.391 . S
C1004 C1005 1.400 . S
C1005 C999 1.491 1_545 S
C1005 C1004 1.400 . S
C1005 C1006 1.392 1_545 S
C1006 H994 0.968 . S
C1006 C1005 1.392 1_565 S
C1006 C1007 1.380 1_565 S
C1007 H995 0.950 . S
C1007 C1003 1.393 . S
C1007 C1006 1.380 1_545 S
H1008 C1016 0.950 . S
H1009 C1021 0.950 . S
H1010 C1018 0.950 . S
H1011 C1020 0.950 . S
H1012 C1022 0.950 . S
H1013 C1024 0.950 . S
H1014 C1026 0.950 . S
H1015 C1027 0.950 . S
C1016 H1008 0.950 . S
C1016 C1017 1.386 . S
C1016 C1018 1.391 . S
C1017 C1016 1.386 . S
C1017 C1021 1.393 . S
C1018 H1010 0.950 . S
C1018 C1016 1.391 . S
C1018 C1019 1.400 . S
C1019 C1018 1.400 . S
C1019 C1020 1.398 . S
C1019 C1025 1.491 . S
C1020 H1011 0.950 . S
C1020 C1019 1.398 . S
C1020 C1021 1.391 . S
C1021 H1009 0.950 . S
C1021 C1017 1.393 . S
C1021 C1020 1.391 . S
C1022 H1012 0.950 . S
C1022 C1023 1.386 . S
C1022 C1024 1.391 . S
C1023 C1022 1.386 . S
C1023 C1027 1.393 . S
C1024 H1013 0.950 . S
C1024 C1022 1.391 . S
C1024 C1025 1.400 . S
C1025 C1019 1.491 . S
C1025 C1024 1.400 . S
C1025 C1026 1.398 . S
C1026 H1014 0.950 . S
C1026 C1025 1.398 . S
C1026 C1027 1.391 . S
C1027 H1015 0.950 . S
C1027 C1023 1.393 . S
C1027 C1026 1.391 . S
H1028 C1036 0.950 . S
H1029 C1041 0.950 . S
H1030 C1038 0.950 . S
H1031 C1040 0.950 . S
H1032 C1042 0.950 . S
H1033 C1044 0.950 . S
H1034 C1046 0.950 . S
H1035 C1047 0.950 . S
C1036 H1028 0.950 . S
C1036 C1037 1.386 . S
C1036 C1038 1.391 . S
C1037 C1036 1.386 . S
C1037 C1041 1.393 . S
C1038 H1030 0.950 . S
C1038 C1036 1.391 . S
C1038 C1039 1.400 . S
C1039 C1038 1.400 . S
C1039 C1040 1.398 . S
C1039 C1045 1.491 . S
C1040 H1031 0.950 . S
C1040 C1039 1.398 . S
C1040 C1041 1.391 . S
C1041 H1029 0.950 . S
C1041 C1037 1.393 . S
C1041 C1040 1.391 . S
C1042 H1032 0.950 . S
C1042 C1043 1.386 . S
C1042 C1044 1.391 . S
C1043 C1042 1.386 . S
C1043 C1047 1.393 . S
C1044 H1033 0.950 . S
C1044 C1042 1.391 . S
C1044 C1045 1.400 . S
C1045 C1039 1.491 . S
C1045 C1044 1.400 . S
C1045 C1046 1.398 . S
C1046 H1034 0.950 . S
C1046 C1045 1.398 . S
C1046 C1047 1.391 . S
C1047 H1035 0.950 . S
C1047 C1043 1.393 . S
C1047 C1046 1.391 . S
H1048 C1056 0.950 . S
H1049 C1061 0.950 . S
H1050 C1058 0.950 . S
H1051 C1060 0.950 . S
H1052 C1062 0.950 . S
H1053 C1064 0.950 . S
H1054 C1066 0.950 . S
H1055 C1067 0.950 . S
C1056 H1048 0.950 . S
C1056 C1057 1.386 . S
C1056 C1058 1.391 . S
C1057 C1056 1.386 . S
C1057 C1061 1.393 . S
C1058 H1050 0.950 . S
C1058 C1056 1.391 . S
C1058 C1059 1.400 . S
C1059 C1058 1.400 . S
C1059 C1060 1.398 . S
C1059 C1065 1.491 . S
C1060 H1051 0.950 . S
C1060 C1059 1.398 . S
C1060 C1061 1.391 . S
C1061 H1049 0.950 . S
C1061 C1057 1.393 . S
C1061 C1060 1.391 . S
C1062 H1052 0.950 . S
C1062 C1063 1.386 . S
C1062 C1064 1.391 . S
C1063 C1062 1.386 . S
C1063 C1067 1.393 . S
C1064 H1053 0.950 . S
C1064 C1062 1.391 . S
C1064 C1065 1.400 . S
C1065 C1059 1.491 . S
C1065 C1064 1.400 . S
C1065 C1066 1.398 . S
C1066 H1054 0.950 . S
C1066 C1065 1.398 . S
C1066 C1067 1.391 . S
C1067 H1055 0.950 . S
C1067 C1063 1.393 . S
C1067 C1066 1.391 . S
H1068 C1076 0.950 . S
H1069 C1081 0.950 . S
H1070 C1078 0.950 . S
H1071 C1080 0.950 . S
H1072 C1082 0.950 . S
H1073 C1084 0.950 . S
H1074 C1086 0.950 . S
H1075 C1087 0.950 . S
C1076 H1068 0.950 . S
C1076 C1077 1.386 . S
C1076 C1078 1.391 1_545 S
C1077 C1076 1.386 . S
C1077 C1081 1.393 . S
C1078 H1070 0.950 . S
C1078 C1076 1.391 1_565 S
C1078 C1079 1.400 1_565 S
C1079 C1078 1.400 1_545 S
C1079 C1080 1.398 . S
C1079 C1085 1.491 1_546 S
C1080 H1071 0.950 . S
C1080 C1079 1.398 . S
C1080 C1081 1.391 . S
C1081 H1069 0.950 . S
C1081 C1077 1.393 . S
C1081 C1080 1.391 . S
C1082 H1072 0.950 . S
C1082 C1083 1.386 . S
C1082 C1084 1.391 1_565 S
C1083 C1082 1.386 . S
C1083 C1087 1.393 . S
C1084 H1073 0.950 . S
C1084 C1082 1.391 1_545 S
C1084 C1085 1.400 1_545 S
C1085 C1079 1.491 1_564 S
C1085 C1084 1.400 1_565 S
C1085 C1086 1.398 . S
C1086 H1074 0.950 . S
C1086 C1085 1.398 . S
C1086 C1087 1.391 . S
C1087 H1075 0.950 . S
C1087 C1083 1.393 . S
C1087 C1086 1.391 . S
H1088 C1096 0.950 . S
H1089 C1101 0.950 . S
H1090 C1098 0.950 . S
H1091 C1100 0.950 . S
H1092 C1102 0.950 . S
H1093 C1104 0.950 . S
H1094 C1106 0.950 . S
H1095 C1107 0.950 . S
C1096 H1088 0.950 . S
C1096 C1097 1.386 . S
C1096 C1098 1.391 . S
C1097 C1096 1.386 . S
C1097 C1101 1.393 . S
C1098 H1090 0.950 . S
C1098 C1096 1.391 . S
C1098 C1099 1.400 . S
C1099 C1098 1.400 . S
C1099 C1100 1.398 . S
C1099 C1105 1.491 . S
C1100 H1091 0.950 . S
C1100 C1099 1.398 . S
C1100 C1101 1.391 . S
C1101 H1089 0.950 . S
C1101 C1097 1.393 . S
C1101 C1100 1.391 . S
C1102 H1092 0.950 . S
C1102 C1103 1.386 . S
C1102 C1104 1.391 . S
C1103 C1102 1.386 . S
C1103 C1107 1.393 . S
C1104 H1093 0.950 . S
C1104 C1102 1.391 . S
C1104 C1105 1.400 . S
C1105 C1099 1.491 . S
C1105 C1104 1.400 . S
C1105 C1106 1.398 . S
C1106 H1094 0.950 . S
C1106 C1105 1.398 . S
C1106 C1107 1.391 . S
C1107 H1095 0.950 . S
C1107 C1103 1.393 . S
C1107 C1106 1.391 . S
H1108 C1116 0.950 . S
H1109 C1121 0.950 . S
H1110 C1118 0.950 . S
H1111 C1120 0.950 . S
H1112 C1122 0.950 . S
H1113 C1124 0.950 . S
H1114 C1126 0.950 . S
H1115 C1127 0.950 . S
C1116 H1108 0.950 . S
C1116 C1117 1.386 . S
C1116 C1118 1.391 . S
C1117 C1116 1.386 . S
C1117 C1121 1.393 . S
C1118 H1110 0.950 . S
C1118 C1116 1.391 . S
C1118 C1119 1.400 . S
C1119 C1118 1.400 . S
C1119 C1120 1.398 . S
C1119 C1125 1.491 . S
C1120 H1111 0.950 . S
C1120 C1119 1.398 . S
C1120 C1121 1.391 . S
C1121 H1109 0.950 . S
C1121 C1117 1.393 . S
C1121 C1120 1.391 . S
C1122 H1112 0.950 . S
C1122 C1123 1.386 . S
C1122 C1124 1.391 . S
C1123 C1122 1.386 . S
C1123 C1127 1.393 . S
C1124 H1113 0.950 . S
C1124 C1122 1.391 . S
C1124 C1125 1.400 . S
C1125 C1119 1.491 . S
C1125 C1124 1.400 . S
C1125 C1126 1.398 . S
C1126 H1114 0.950 . S
C1126 C1125 1.398 . S
C1126 C1127 1.391 . S
C1127 H1115 0.950 . S
C1127 C1123 1.393 . S
C1127 C1126 1.391 . S
H1128 C1136 0.950 . S
H1129 C1141 0.950 . S
H1130 C1138 0.950 . S
H1131 C1140 0.950 . S
H1132 C1142 0.950 . S
H1133 C1144 0.950 . S
H1134 C1146 0.950 . S
H1135 C1147 0.950 . S
C1136 H1128 0.950 . S
C1136 C1137 1.386 . S
C1136 C1138 1.391 . S
C1137 C1136 1.386 . S
C1137 C1141 1.393 . S
C1138 H1130 0.950 . S
C1138 C1136 1.391 . S
C1138 C1139 1.400 . S
C1139 C1138 1.400 . S
C1139 C1140 1.398 . S
C1139 C1145 1.491 . S
C1140 H1131 0.950 . S
C1140 C1139 1.398 . S
C1140 C1141 1.391 . S
C1141 H1129 0.950 . S
C1141 C1137 1.393 . S
C1141 C1140 1.391 . S
C1142 H1132 0.950 . S
C1142 C1143 1.386 . S
C1142 C1144 1.391 . S
C1143 C1142 1.386 . S
C1143 C1147 1.393 . S
C1144 H1133 0.950 . S
C1144 C1142 1.391 . S
C1144 C1145 1.400 . S
C1145 C1139 1.491 . S
C1145 C1144 1.400 . S
C1145 C1146 1.398 . S
C1146 H1134 0.950 . S
C1146 C1145 1.398 . S
C1146 C1147 1.391 . S
C1147 H1135 0.950 . S
C1147 C1143 1.393 . S
C1147 C1146 1.391 . S
H1148 C1156 0.950 . S
H1149 C1161 0.950 . S
H1150 C1158 0.950 . S
H1151 C1160 0.950 . S
H1152 C1162 0.950 . S
H1153 C1164 0.950 . S
H1154 C1166 0.950 . S
H1155 C1167 0.950 . S
C1156 H1148 0.950 . S
C1156 C1157 1.386 . S
C1156 C1158 1.391 . S
C1157 C1156 1.386 . S
C1157 C1161 1.393 . S
C1158 H1150 0.950 . S
C1158 C1156 1.391 . S
C1158 C1159 1.400 . S
C1159 C1158 1.400 . S
C1159 C1160 1.398 . S
C1159 C1165 1.491 . S
C1160 H1151 0.950 . S
C1160 C1159 1.398 . S
C1160 C1161 1.391 . S
C1161 H1149 0.950 . S
C1161 C1157 1.393 . S
C1161 C1160 1.391 . S
C1162 H1152 0.950 . S
C1162 C1163 1.386 . S
C1162 C1164 1.391 . S
C1163 C1162 1.386 . S
C1163 C1167 1.393 . S
C1164 H1153 0.950 . S
C1164 C1162 1.391 . S
C1164 C1165 1.400 . S
C1165 C1159 1.491 . S
C1165 C1164 1.400 . S
C1165 C1166 1.398 . S
C1166 H1154 0.950 . S
C1166 C1165 1.398 . S
C1166 C1167 1.391 . S
C1167 H1155 0.950 . S
C1167 C1163 1.393 . S
C1167 C1166 1.391 . S
H1168 C1176 0.950 . S
H1169 C1181 0.950 . S
H1170 C1178 0.950 . S
H1171 C1180 0.950 . S
H1172 C1182 0.950 . S
H1173 C1184 0.950 . S
H1174 C1186 0.950 . S
H1175 C1187 0.950 . S
C1176 H1168 0.950 . S
C1176 C1177 1.386 . S
C1176 C1178 1.391 . S
C1177 C1176 1.386 . S
C1177 C1181 1.393 . S
C1178 H1170 0.950 . S
C1178 C1176 1.391 . S
C1178 C1179 1.400 . S
C1179 C1178 1.400 . S
C1179 C1180 1.398 . S
C1179 C1185 1.491 . S
C1180 H1171 0.950 . S
C1180 C1179 1.398 . S
C1180 C1181 1.391 . S
C1181 H1169 0.950 . S
C1181 C1177 1.393 . S
C1181 C1180 1.391 . S
C1182 H1172 0.950 . S
C1182 C1183 1.386 . S
C1182 C1184 1.391 . S
C1183 C1182 1.386 . S
C1183 C1187 1.393 . S
C1184 H1173 0.950 . S
C1184 C1182 1.391 . S
C1184 C1185 1.400 . S
C1185 C1179 1.491 . S
C1185 C1184 1.400 . S
C1185 C1186 1.398 . S
C1186 H1174 0.950 . S
C1186 C1185 1.398 . S
C1186 C1187 1.391 . S
C1187 H1175 0.950 . S
C1187 C1183 1.393 . S
C1187 C1186 1.391 . S
H1188 C1196 0.950 . S
H1189 C1201 0.950 . S
H1190 C1198 0.950 . S
H1191 C1200 0.950 . S
H1192 C1202 0.950 . S
H1193 C1204 0.950 . S
H1194 C1206 0.950 . S
H1195 C1207 0.950 . S
C1196 H1188 0.950 . S
C1196 C1197 1.386 . S
C1196 C1198 1.391 . S
C1197 C1196 1.386 . S
C1197 C1201 1.393 . S
C1198 H1190 0.950 . S
C1198 C1196 1.391 . S
C1198 C1199 1.400 . S
C1199 C1198 1.400 . S
C1199 C1200 1.398 . S
C1199 C1205 1.491 . S
C1200 H1191 0.950 . S
C1200 C1199 1.398 . S
C1200 C1201 1.391 . S
C1201 H1189 0.950 . S
C1201 C1197 1.393 . S
C1201 C1200 1.391 . S
C1202 H1192 0.950 . S
C1202 C1203 1.386 . S
C1202 C1204 1.391 . S
C1203 C1202 1.386 . S
C1203 C1207 1.393 . S
C1204 H1193 0.950 . S
C1204 C1202 1.391 . S
C1204 C1205 1.400 . S
C1205 C1199 1.491 . S
C1205 C1204 1.400 . S
C1205 C1206 1.398 . S
C1206 H1194 0.950 . S
C1206 C1205 1.398 . S
C1206 C1207 1.391 . S
C1207 H1195 0.950 . S
C1207 C1203 1.393 . S
C1207 C1206 1.391 . S
H1208 C1216 0.950 . S
H1209 C1221 0.950 . S
H1210 C1218 0.950 . S
H1211 C1220 0.950 . S
H1212 C1222 0.950 . S
H1213 C1224 0.950 . S
H1214 C1226 0.950 . S
H1215 C1227 0.950 . S
C1216 H1208 0.950 . S
C1216 C1217 1.386 . S
C1216 C1218 1.391 . S
C1217 C1216 1.386 . S
C1217 C1221 1.393 . S
C1218 H1210 0.950 . S
C1218 C1216 1.391 . S
C1218 C1219 1.400 . S
C1219 C1218 1.400 . S
C1219 C1220 1.398 . S
C1219 C1225 1.491 . S
C1220 H1211 0.950 . S
C1220 C1219 1.398 . S
C1220 C1221 1.391 . S
C1221 H1209 0.950 . S
C1221 C1217 1.393 . S
C1221 C1220 1.391 . S
C1222 H1212 0.950 . S
C1222 C1223 1.386 . S
C1222 C1224 1.391 . S
C1223 C1222 1.386 . S
C1223 C1227 1.393 . S
C1224 H1213 0.950 . S
C1224 C1222 1.391 . S
C1224 C1225 1.400 . S
C1225 C1219 1.491 . S
C1225 C1224 1.400 . S
C1225 C1226 1.398 . S
C1226 H1214 0.950 . S
C1226 C1225 1.398 . S
C1226 C1227 1.391 . S
C1227 H1215 0.950 . S
C1227 C1223 1.393 . S
C1227 C1226 1.391 . S
H1228 C1236 0.950 . S
H1229 C1241 0.950 . S
H1230 C1238 0.950 . S
H1231 C1240 0.950 . S
H1232 C1242 0.950 . S
H1233 C1244 0.950 . S
H1234 C1246 0.950 . S
H1235 C1247 0.950 . S
C1236 H1228 0.950 . S
C1236 C1237 1.386 . S
C1236 C1238 1.391 . S
C1237 C1236 1.386 . S
C1237 C1241 1.393 . S
C1238 H1230 0.950 . S
C1238 C1236 1.391 . S
C1238 C1239 1.400 . S
C1239 C1238 1.400 . S
C1239 C1240 1.398 . S
C1239 C1245 1.491 . S
C1240 H1231 0.950 . S
C1240 C1239 1.398 . S
C1240 C1241 1.391 . S
C1241 H1229 0.950 . S
C1241 C1237 1.393 . S
C1241 C1240 1.391 . S
C1242 H1232 0.950 . S
C1242 C1243 1.386 . S
C1242 C1244 1.391 . S
C1243 C1242 1.386 . S
C1243 C1247 1.393 . S
C1244 H1233 0.950 . S
C1244 C1242 1.391 . S
C1244 C1245 1.400 . S
C1245 C1239 1.491 . S
C1245 C1244 1.400 . S
C1245 C1246 1.398 . S
C1246 H1234 0.950 . S
C1246 C1245 1.398 . S
C1246 C1247 1.391 . S
C1247 H1235 0.950 . S
C1247 C1243 1.393 . S
C1247 C1246 1.391 . S
H1248 C1256 0.950 . S
H1249 C1261 0.950 . S
H1250 C1258 0.950 . S
H1251 C1260 0.950 . S
H1252 C1262 0.950 . S
H1253 C1264 0.950 . S
H1254 C1266 0.950 . S
H1255 C1267 0.950 . S
C1256 H1248 0.950 . S
C1256 C1257 1.386 . S
C1256 C1258 1.391 . S
C1257 C1256 1.386 . S
C1257 C1261 1.393 . S
C1258 H1250 0.950 . S
C1258 C1256 1.391 . S
C1258 C1259 1.400 . S
C1259 C1258 1.400 . S
C1259 C1260 1.398 . S
C1259 C1265 1.491 . S
C1260 H1251 0.950 . S
C1260 C1259 1.398 . S
C1260 C1261 1.391 . S
C1261 H1249 0.950 . S
C1261 C1257 1.393 . S
C1261 C1260 1.391 . S
C1262 H1252 0.950 . S
C1262 C1263 1.386 . S
C1262 C1264 1.391 . S
C1263 C1262 1.386 . S
C1263 C1267 1.393 . S
C1264 H1253 0.950 . S
C1264 C1262 1.391 . S
C1264 C1265 1.400 . S
C1265 C1259 1.491 . S
C1265 C1264 1.400 . S
C1265 C1266 1.398 . S
C1266 H1254 0.950 . S
C1266 C1265 1.398 . S
C1266 C1267 1.391 . S
C1267 H1255 0.950 . S
C1267 C1263 1.393 . S
C1267 C1266 1.391 . S
H1268 C1276 0.950 . S
H1269 C1281 0.950 . S
H1270 C1278 0.950 . S
H1271 C1280 0.950 . S
H1272 C1282 0.950 . S
H1273 C1284 0.950 . S
H1274 C1286 0.950 . S
H1275 C1287 0.950 . S
C1276 H1268 0.950 . S
C1276 C1277 1.386 . S
C1276 C1278 1.391 . S
C1277 C1276 1.386 . S
C1277 C1281 1.393 . S
C1278 H1270 0.950 . S
C1278 C1276 1.391 . S
C1278 C1279 1.400 . S
C1279 C1278 1.400 . S
C1279 C1280 1.398 . S
C1279 C1285 1.491 . S
C1280 H1271 0.950 . S
C1280 C1279 1.398 . S
C1280 C1281 1.391 . S
C1281 H1269 0.950 . S
C1281 C1277 1.393 . S
C1281 C1280 1.391 . S
C1282 H1272 0.950 . S
C1282 C1283 1.386 . S
C1282 C1284 1.391 . S
C1283 C1282 1.386 . S
C1283 C1287 1.393 . S
C1284 H1273 0.950 . S
C1284 C1282 1.391 . S
C1284 C1285 1.400 . S
C1285 C1279 1.491 . S
C1285 C1284 1.400 . S
C1285 C1286 1.398 . S
C1286 H1274 0.950 . S
C1286 C1285 1.398 . S
C1286 C1287 1.391 . S
C1287 H1275 0.950 . S
C1287 C1283 1.393 . S
C1287 C1286 1.391 . S
H1288 C1296 0.950 . S
H1289 C1301 0.950 . S
H1290 C1298 0.950 . S
H1291 C1300 0.950 . S
H1292 C1302 0.950 . S
H1293 C1304 0.950 . S
H1294 C1306 0.950 . S
H1295 C1307 0.950 . S
C1296 H1288 0.950 . S
C1296 C1297 1.386 . S
C1296 C1298 1.391 . S
C1297 C1296 1.386 . S
C1297 C1301 1.393 . S
C1298 H1290 0.950 . S
C1298 C1296 1.391 . S
C1298 C1299 1.400 . S
C1299 C1298 1.400 . S
C1299 C1300 1.398 . S
C1299 C1305 1.491 . S
C1300 H1291 0.950 . S
C1300 C1299 1.398 . S
C1300 C1301 1.391 . S
C1301 H1289 0.950 . S
C1301 C1297 1.393 . S
C1301 C1300 1.391 . S
C1302 H1292 0.950 . S
C1302 C1303 1.386 . S
C1302 C1304 1.391 . S
C1303 C1302 1.386 . S
C1303 C1307 1.393 . S
C1304 H1293 0.950 . S
C1304 C1302 1.391 . S
C1304 C1305 1.400 . S
C1305 C1299 1.491 . S
C1305 C1304 1.400 . S
C1305 C1306 1.398 . S
C1306 H1294 0.950 . S
C1306 C1305 1.398 . S
C1306 C1307 1.391 . S
C1307 H1295 0.950 . S
C1307 C1303 1.393 . S
C1307 C1306 1.391 . S
H1308 C1316 0.950 . S
H1309 C1321 0.950 . S
H1310 C1318 0.950 . S
H1311 C1320 0.950 . S
H1312 C1322 0.950 . S
H1313 C1324 0.950 . S
H1314 C1326 0.950 . S
H1315 C1327 0.950 . S
C1316 H1308 0.950 . S
C1316 C1317 1.386 . S
C1316 C1318 1.391 . S
C1317 C1316 1.386 . S
C1317 C1321 1.393 . S
C1318 H1310 0.950 . S
C1318 C1316 1.391 . S
C1318 C1319 1.400 . S
C1319 C1318 1.400 . S
C1319 C1320 1.398 . S
C1319 C1325 1.491 . S
C1320 H1311 0.950 . S
C1320 C1319 1.398 . S
C1320 C1321 1.391 . S
C1321 H1309 0.950 . S
C1321 C1317 1.393 . S
C1321 C1320 1.391 . S
C1322 H1312 0.950 . S
C1322 C1323 1.386 . S
C1322 C1324 1.391 . S
C1323 C1322 1.386 . S
C1323 C1327 1.393 . S
C1324 H1313 0.950 . S
C1324 C1322 1.391 . S
C1324 C1325 1.400 . S
C1325 C1319 1.491 . S
C1325 C1324 1.400 . S
C1325 C1326 1.398 . S
C1326 H1314 0.950 . S
C1326 C1325 1.398 . S
C1326 C1327 1.391 . S
C1327 H1315 0.950 . S
C1327 C1323 1.393 . S
C1327 C1326 1.391 . S
H1328 C1336 0.950 . S
H1329 C1341 0.950 . S
H1330 C1338 0.950 . S
H1331 C1340 0.950 . S
H1332 C1342 0.950 . S
H1333 C1344 0.950 . S
H1334 C1346 0.950 . S
H1335 C1347 0.950 . S
C1336 H1328 0.950 . S
C1336 C1337 1.386 . S
C1336 C1338 1.391 . S
C1337 C1336 1.386 . S
C1337 C1341 1.393 . S
C1338 H1330 0.950 . S
C1338 C1336 1.391 . S
C1338 C1339 1.400 . S
C1339 C1338 1.400 . S
C1339 C1340 1.398 . S
C1339 C1345 1.491 . S
C1340 H1331 0.950 . S
C1340 C1339 1.398 . S
C1340 C1341 1.391 . S
C1341 H1329 0.950 . S
C1341 C1337 1.393 . S
C1341 C1340 1.391 . S
C1342 H1332 0.950 . S
C1342 C1343 1.386 . S
C1342 C1344 1.391 . S
C1343 C1342 1.386 . S
C1343 C1347 1.393 . S
C1344 H1333 0.950 . S
C1344 C1342 1.391 . S
C1344 C1345 1.400 . S
C1345 C1339 1.491 . S
C1345 C1344 1.400 . S
C1345 C1346 1.398 . S
C1346 H1334 0.950 . S
C1346 C1345 1.398 . S
C1346 C1347 1.391 . S
C1347 H1335 0.950 . S
C1347 C1343 1.393 . S
C1347 C1346 1.391 . S
H1348 C1356 0.950 . S
H1349 C1361 0.950 . S
H1350 C1358 0.950 . S
H1351 C1360 0.950 . S
H1352 C1362 0.950 . S
H1353 C1364 0.950 . S
H1354 C1366 0.950 . S
H1355 C1367 0.950 . S
C1356 H1348 0.950 . S
C1356 C1357 1.386 . S
C1356 C1358 1.391 . S
C1357 C1356 1.386 . S
C1357 C1361 1.393 . S
C1358 H1350 0.950 . S
C1358 C1356 1.391 . S
C1358 C1359 1.400 . S
C1359 C1358 1.400 . S
C1359 C1360 1.398 . S
C1359 C1365 1.491 . S
C1360 H1351 0.950 . S
C1360 C1359 1.398 . S
C1360 C1361 1.391 . S
C1361 H1349 0.950 . S
C1361 C1357 1.393 . S
C1361 C1360 1.391 . S
C1362 H1352 0.950 . S
C1362 C1363 1.386 . S
C1362 C1364 1.391 . S
C1363 C1362 1.386 . S
C1363 C1367 1.393 . S
C1364 H1353 0.950 . S
C1364 C1362 1.391 . S
C1364 C1365 1.400 . S
C1365 C1359 1.491 . S
C1365 C1364 1.400 . S
C1365 C1366 1.398 . S
C1366 H1354 0.950 . S
C1366 C1365 1.398 . S
C1366 C1367 1.391 . S
C1367 H1355 0.950 . S
C1367 C1363 1.393 . S
C1367 C1366 1.391 . S
H1368 C1376 0.950 . S
H1369 C1381 0.950 . S
H1370 C1378 0.950 . S
H1371 C1380 0.950 . S
H1372 C1382 0.950 . S
H1373 C1384 0.950 . S
H1374 C1386 0.950 . S
H1375 C1387 0.950 . S
C1376 H1368 0.950 . S
C1376 C1377 1.386 . S
C1376 C1378 1.391 . S
C1377 C1376 1.386 . S
C1377 C1381 1.393 . S
C1378 H1370 0.950 . S
C1378 C1376 1.391 . S
C1378 C1379 1.400 . S
C1379 C1378 1.400 . S
C1379 C1380 1.398 . S
C1379 C1385 1.491 . S
C1380 H1371 0.950 . S
C1380 C1379 1.398 . S
C1380 C1381 1.391 . S
C1381 H1369 0.950 . S
C1381 C1377 1.393 . S
C1381 C1380 1.391 . S
C1382 H1372 0.950 . S
C1382 C1383 1.386 . S
C1382 C1384 1.391 . S
C1383 C1382 1.386 . S
C1383 C1387 1.393 . S
C1384 H1373 0.950 . S
C1384 C1382 1.391 . S
C1384 C1385 1.400 . S
C1385 C1379 1.491 . S
C1385 C1384 1.400 . S
C1385 C1386 1.398 . S
C1386 H1374 0.950 . S
C1386 C1385 1.398 . S
C1386 C1387 1.391 . S
C1387 H1375 0.950 . S
C1387 C1383 1.393 . S
C1387 C1386 1.391 . S
H1388 C1396 0.950 . S
H1389 C1401 0.950 . S
H1390 C1398 0.950 . S
H1391 C1400 0.950 . S
H1392 C1402 0.950 . S
H1393 C1404 0.950 . S
H1394 C1406 0.950 . S
H1395 C1407 0.950 . S
C1396 H1388 0.950 . S
C1396 C1397 1.386 . S
C1396 C1398 1.391 . S
C1397 C1396 1.386 . S
C1397 C1401 1.393 . S
C1398 H1390 0.950 . S
C1398 C1396 1.391 . S
C1398 C1399 1.400 . S
C1399 C1398 1.400 . S
C1399 C1400 1.398 . S
C1399 C1405 1.491 . S
C1400 H1391 0.950 . S
C1400 C1399 1.398 . S
C1400 C1401 1.391 . S
C1401 H1389 0.950 . S
C1401 C1397 1.393 . S
C1401 C1400 1.391 . S
C1402 H1392 0.950 . S
C1402 C1403 1.386 . S
C1402 C1404 1.391 . S
C1403 C1402 1.386 . S
C1403 C1407 1.393 . S
C1404 H1393 0.950 . S
C1404 C1402 1.391 . S
C1404 C1405 1.400 . S
C1405 C1399 1.491 . S
C1405 C1404 1.400 . S
C1405 C1406 1.398 . S
C1406 H1394 0.950 . S
C1406 C1405 1.398 . S
C1406 C1407 1.391 . S
C1407 H1395 0.950 . S
C1407 C1403 1.393 . S
C1407 C1406 1.391 . S
H1408 C1416 0.950 . S
H1409 C1421 0.950 1_565 S
H1410 C1418 0.950 . S
H1411 C1420 0.950 . S
H1412 C1422 0.950 . S
H1413 C1424 0.950 . S
H1414 C1426 0.950 . S
H1415 C1427 0.950 . S
C1416 H1408 0.950 . S
C1416 C1417 1.386 1_545 S
C1416 C1418 1.391 . S
C1417 C1416 1.386 1_565 S
C1417 C1421 1.393 1_565 S
C1418 H1410 0.950 . S
C1418 C1416 1.391 . S
C1418 C1419 1.400 . S
C1419 C1418 1.400 . S
C1419 C1420 1.398 . S
C1419 C1425 1.491 . S
C1420 H1411 0.950 . S
C1420 C1419 1.398 . S
C1420 C1421 1.391 . S
C1421 H1409 0.950 1_545 S
C1421 C1417 1.393 1_545 S
C1421 C1420 1.391 . S
C1422 H1412 0.950 . S
C1422 C1423 1.386 . S
C1422 C1424 1.391 . S
C1423 C1422 1.386 . S
C1423 C1427 1.393 . S
C1424 H1413 0.950 . S
C1424 C1422 1.391 . S
C1424 C1425 1.400 . S
C1425 C1419 1.491 . S
C1425 C1424 1.400 . S
C1425 C1426 1.398 . S
C1426 H1414 0.950 . S
C1426 C1425 1.398 . S
C1426 C1427 1.391 . S
C1427 H1415 0.950 . S
C1427 C1423 1.393 . S
C1427 C1426 1.391 . S
H1428 C1436 0.950 1_565 S
H1429 C1441 0.950 . S
H1430 C1438 0.950 . S
H1431 C1440 0.950 . S
H1432 C1442 0.950 . S
H1433 C1444 0.950 . S
H1434 C1446 0.950 . S
H1435 C1447 0.950 . S
C1436 H1428 0.950 1_545 S
C1436 C1437 1.386 1_545 S
C1436 C1438 1.391 . S
C1437 C1436 1.386 1_565 S
C1437 C1441 1.393 1_565 S
C1438 H1430 0.950 . S
C1438 C1436 1.391 . S
C1438 C1439 1.400 . S
C1439 C1438 1.400 . S
C1439 C1440 1.398 . S
C1439 C1445 1.491 . S
C1440 H1431 0.950 . S
C1440 C1439 1.398 . S
C1440 C1441 1.391 . S
C1441 H1429 0.950 . S
C1441 C1437 1.393 1_545 S
C1441 C1440 1.391 . S
C1442 H1432 0.950 . S
C1442 C1443 1.386 . S
C1442 C1444 1.391 . S
C1443 C1442 1.386 . S
C1443 C1447 1.393 . S
C1444 H1433 0.950 . S
C1444 C1442 1.391 . S
C1444 C1445 1.400 . S
C1445 C1439 1.491 . S
C1445 C1444 1.400 . S
C1445 C1446 1.398 . S
C1446 H1434 0.950 . S
C1446 C1445 1.398 . S
C1446 C1447 1.391 . S
C1447 H1435 0.950 . S
C1447 C1443 1.393 . S
C1447 C1446 1.391 . S
H1448 C1456 0.950 . S
H1449 C1461 0.950 . S
H1450 C1458 0.950 . S
H1451 C1460 0.950 . S
H1452 C1462 0.950 1_545 S
H1453 C1464 0.950 . S
H1454 C1466 0.950 . S
H1455 C1467 0.950 . S
C1456 H1448 0.950 . S
C1456 C1457 1.386 . S
C1456 C1458 1.391 . S
C1457 C1456 1.386 . S
C1457 C1461 1.393 . S
C1458 H1450 0.950 . S
C1458 C1456 1.391 . S
C1458 C1459 1.400 . S
C1459 C1458 1.400 . S
C1459 C1460 1.398 . S
C1459 C1465 1.491 . S
C1460 H1451 0.950 . S
C1460 C1459 1.398 . S
C1460 C1461 1.391 . S
C1461 H1449 0.950 . S
C1461 C1457 1.393 . S
C1461 C1460 1.391 . S
C1462 H1452 0.950 1_565 S
C1462 C1463 1.386 1_565 S
C1462 C1464 1.391 . S
C1463 C1462 1.386 1_545 S
C1463 C1467 1.393 1_545 S
C1464 H1453 0.950 . S
C1464 C1462 1.391 . S
C1464 C1465 1.400 . S
C1465 C1459 1.491 . S
C1465 C1464 1.400 . S
C1465 C1466 1.398 . S
C1466 H1454 0.950 . S
C1466 C1465 1.398 . S
C1466 C1467 1.391 . S
C1467 H1455 0.950 . S
C1467 C1463 1.393 1_565 S
C1467 C1466 1.391 . S
H1468 C1476 0.947 1_545 S
H1469 C1481 0.950 . S
H1470 C1478 0.950 . S
H1471 C1480 0.950 . S
H1472 C1482 0.950 . S
H1473 C1484 0.950 . S
H1474 C1486 0.950 . S
H1475 C1487 0.950 . S
C1476 H1468 0.947 1_565 S
C1476 C1477 1.386 1_565 S
C1476 C1478 1.391 . S
C1477 C1476 1.386 1_545 S
C1477 C1481 1.393 1_545 S
C1478 H1470 0.950 . S
C1478 C1476 1.391 . S
C1478 C1479 1.400 . S
C1479 C1478 1.400 . S
C1479 C1480 1.398 . S
C1479 C1485 1.491 . S
C1480 H1471 0.950 . S
C1480 C1479 1.398 . S
C1480 C1481 1.391 . S
C1481 H1469 0.950 . S
C1481 C1477 1.393 1_565 S
C1481 C1480 1.391 . S
C1482 H1472 0.950 . S
C1482 C1483 1.386 . S
C1482 C1484 1.391 . S
C1483 C1482 1.386 . S
C1483 C1487 1.393 . S
C1484 H1473 0.950 . S
C1484 C1482 1.391 . S
C1484 C1485 1.400 . S
C1485 C1479 1.491 . S
C1485 C1484 1.400 . S
C1485 C1486 1.398 . S
C1486 H1474 0.950 . S
C1486 C1485 1.398 . S
C1486 C1487 1.391 . S
C1487 H1475 0.950 . S
C1487 C1483 1.393 . S
C1487 C1486 1.391 . S
H1488 C1496 0.950 . S
H1489 C1501 0.950 . S
H1490 C1498 0.950 . S
H1491 C1500 0.950 . S
H1492 C1502 0.950 . S
H1493 C1504 0.950 . S
H1494 C1506 0.950 . S
H1495 C1507 0.950 . S
C1496 H1488 0.950 . S
C1496 C1497 1.386 . S
C1496 C1498 1.391 . S
C1497 C1496 1.386 . S
C1497 C1501 1.393 . S
C1498 H1490 0.950 . S
C1498 C1496 1.391 . S
C1498 C1499 1.400 . S
C1499 C1498 1.400 . S
C1499 C1500 1.398 . S
C1499 C1505 1.491 . S
C1500 H1491 0.950 . S
C1500 C1499 1.398 . S
C1500 C1501 1.391 . S
C1501 H1489 0.950 . S
C1501 C1497 1.393 . S
C1501 C1500 1.391 . S
C1502 H1492 0.950 . S
C1502 C1503 1.386 . S
C1502 C1504 1.391 . S
C1503 C1502 1.386 . S
C1503 C1507 1.393 . S
C1504 H1493 0.950 . S
C1504 C1502 1.391 . S
C1504 C1505 1.400 . S
C1505 C1499 1.491 . S
C1505 C1504 1.400 . S
C1505 C1506 1.398 . S
C1506 H1494 0.950 . S
C1506 C1505 1.398 . S
C1506 C1507 1.391 . S
C1507 H1495 0.950 . S
C1507 C1503 1.393 . S
C1507 C1506 1.391 . S
H1508 C1516 0.950 . S
H1509 C1521 0.950 . S
H1510 C1518 0.950 . S
H1511 C1520 0.950 . S
H1512 C1522 0.950 . S
H1513 C1524 0.950 . S
H1514 C1526 0.950 . S
H1515 C1527 0.950 . S
C1516 H1508 0.950 . S
C1516 C1517 1.386 . S
C1516 C1518 1.391 . S
C1517 C1516 1.386 . S
C1517 C1521 1.393 . S
C1518 H1510 0.950 . S
C1518 C1516 1.391 . S
C1518 C1519 1.400 . S
C1519 C1518 1.400 . S
C1519 C1520 1.398 . S
C1519 C1525 1.491 . S
C1520 H1511 0.950 . S
C1520 C1519 1.398 . S
C1520 C1521 1.391 . S
C1521 H1509 0.950 . S
C1521 C1517 1.393 . S
C1521 C1520 1.391 . S
C1522 H1512 0.950 . S
C1522 C1523 1.386 . S
C1522 C1524 1.391 . S
C1523 C1522 1.386 . S
C1523 C1527 1.393 . S
C1524 H1513 0.950 . S
C1524 C1522 1.391 . S
C1524 C1525 1.400 . S
C1525 C1519 1.491 . S
C1525 C1524 1.400 . S
C1525 C1526 1.398 . S
C1526 H1514 0.950 . S
C1526 C1525 1.398 . S
C1526 C1527 1.391 . S
C1527 H1515 0.950 . S
C1527 C1523 1.393 . S
C1527 C1526 1.391 . S
H1528 C1536 0.950 . S
H1529 C1541 0.950 . S
H1530 C1538 0.950 . S
H1531 C1540 0.950 . S
H1532 C1542 0.950 . S
H1533 C1544 0.950 . S
H1534 C1546 0.950 . S
H1535 C1547 0.950 . S
C1536 H1528 0.950 . S
C1536 C1537 1.386 . S
C1536 C1538 1.391 . S
C1537 C1536 1.386 . S
C1537 C1541 1.393 . S
C1538 H1530 0.950 . S
C1538 C1536 1.391 . S
C1538 C1539 1.400 . S
C1539 C1538 1.400 . S
C1539 C1540 1.398 . S
C1539 C1545 1.491 . S
C1540 H1531 0.950 . S
C1540 C1539 1.398 . S
C1540 C1541 1.391 . S
C1541 H1529 0.950 . S
C1541 C1537 1.393 . S
C1541 C1540 1.391 . S
C1542 H1532 0.950 . S
C1542 C1543 1.386 . S
C1542 C1544 1.391 . S
C1543 C1542 1.386 . S
C1543 C1547 1.393 . S
C1544 H1533 0.950 . S
C1544 C1542 1.391 . S
C1544 C1545 1.400 . S
C1545 C1539 1.491 . S
C1545 C1544 1.400 . S
C1545 C1546 1.398 . S
C1546 H1534 0.950 . S
C1546 C1545 1.398 . S
C1546 C1547 1.391 . S
C1547 H1535 0.950 . S
C1547 C1543 1.393 . S
C1547 C1546 1.391 . S
H1548 C1556 0.950 . S
H1549 C1561 0.950 . S
H1550 C1558 0.950 . S
H1551 C1560 0.950 . S
H1552 C1562 0.950 . S
H1553 C1564 0.950 . S
H1554 C1566 0.950 . S
H1555 C1567 0.950 . S
C1556 H1548 0.950 . S
C1556 C1557 1.386 . S
C1556 C1558 1.391 . S
C1557 C1556 1.386 . S
C1557 C1561 1.393 . S
C1558 H1550 0.950 . S
C1558 C1556 1.391 . S
C1558 C1559 1.400 . S
C1559 C1558 1.400 . S
C1559 C1560 1.398 . S
C1559 C1565 1.491 . S
C1560 H1551 0.950 . S
C1560 C1559 1.398 . S
C1560 C1561 1.391 . S
C1561 H1549 0.950 . S
C1561 C1557 1.393 . S
C1561 C1560 1.391 . S
C1562 H1552 0.950 . S
C1562 C1563 1.386 . S
C1562 C1564 1.391 . S
C1563 C1562 1.386 . S
C1563 C1567 1.393 . S
C1564 H1553 0.950 . S
C1564 C1562 1.391 . S
C1564 C1565 1.400 . S
C1565 C1559 1.491 . S
C1565 C1564 1.400 . S
C1565 C1566 1.398 . S
C1566 H1554 0.950 . S
C1566 C1565 1.398 . S
C1566 C1567 1.391 . S
C1567 H1555 0.950 . S
C1567 C1563 1.393 . S
C1567 C1566 1.391 . S
H1568 C1576 0.950 . S
H1569 C1581 0.950 1_565 S
H1570 C1578 0.950 . S
H1571 C1580 0.950 . S
H1572 C1582 0.950 . S
H1573 C1584 0.950 . S
H1574 C1586 0.950 . S
H1575 C1587 0.950 . S
C1576 H1568 0.950 . S
C1576 C1577 1.386 1_545 S
C1576 C1578 1.391 . S
C1577 C1576 1.386 1_565 S
C1577 C1581 1.393 1_565 S
C1578 H1570 0.950 . S
C1578 C1576 1.391 . S
C1578 C1579 1.400 . S
C1579 C1578 1.400 . S
C1579 C1580 1.398 . S
C1579 C1585 1.491 . S
C1580 H1571 0.950 . S
C1580 C1579 1.398 . S
C1580 C1581 1.391 . S
C1581 H1569 0.950 1_545 S
C1581 C1577 1.393 1_545 S
C1581 C1580 1.391 . S
C1582 H1572 0.950 . S
C1582 C1583 1.386 . S
C1582 C1584 1.391 . S
C1583 C1582 1.386 . S
C1583 C1587 1.393 . S
C1584 H1573 0.950 . S
C1584 C1582 1.391 . S
C1584 C1585 1.400 . S
C1585 C1579 1.491 . S
C1585 C1584 1.400 . S
C1585 C1586 1.398 . S
C1586 H1574 0.950 . S
C1586 C1585 1.398 . S
C1586 C1587 1.391 . S
C1587 H1575 0.950 . S
C1587 C1583 1.393 . S
C1587 C1586 1.391 . S
H1588 C1596 0.950 . S
H1589 C1601 0.950 . S
H1590 C1598 0.950 . S
H1591 C1600 0.950 . S
H1592 C1602 0.950 1_565 S
H1593 C1604 0.950 . S
H1594 C1606 0.950 . S
H1595 C1607 0.950 . S
C1596 H1588 0.950 . S
C1596 C1597 1.386 . S
C1596 C1598 1.391 . S
C1597 C1596 1.386 . S
C1597 C1601 1.393 . S
C1598 H1590 0.950 . S
C1598 C1596 1.391 . S
C1598 C1599 1.400 . S
C1599 C1598 1.400 . S
C1599 C1600 1.398 . S
C1599 C1605 1.491 . S
C1600 H1591 0.950 . S
C1600 C1599 1.398 . S
C1600 C1601 1.391 . S
C1601 H1589 0.950 . S
C1601 C1597 1.393 . S
C1601 C1600 1.391 . S
C1602 H1592 0.950 1_545 S
C1602 C1603 1.386 1_545 S
C1602 C1604 1.391 . S
C1603 C1602 1.386 1_565 S
C1603 C1607 1.393 1_565 S
C1604 H1593 0.950 . S
C1604 C1602 1.391 . S
C1604 C1605 1.400 . S
C1605 C1599 1.491 . S
C1605 C1604 1.400 . S
C1605 C1606 1.398 . S
C1606 H1594 0.950 . S
C1606 C1605 1.398 . S
C1606 C1607 1.391 . S
C1607 H1595 0.950 . S
C1607 C1603 1.393 1_545 S
C1607 C1606 1.391 . S
H1608 C1616 0.950 . S
H1609 C1621 0.950 . S
H1610 C1618 0.950 . S
H1611 C1620 0.950 . S
H1612 C1622 0.950 . S
H1613 C1624 0.950 . S
H1614 C1626 0.950 . S
H1615 C1627 0.950 1_545 S
C1616 H1608 0.950 . S
C1616 C1617 1.386 . S
C1616 C1618 1.391 . S
C1617 C1616 1.386 . S
C1617 C1621 1.393 . S
C1618 H1610 0.950 . S
C1618 C1616 1.391 . S
C1618 C1619 1.400 . S
C1619 C1618 1.400 . S
C1619 C1620 1.398 . S
C1619 C1625 1.491 . S
C1620 H1611 0.950 . S
C1620 C1619 1.398 . S
C1620 C1621 1.391 . S
C1621 H1609 0.950 . S
C1621 C1617 1.393 . S
C1621 C1620 1.391 . S
C1622 H1612 0.950 . S
C1622 C1623 1.386 1_565 S
C1622 C1624 1.391 . S
C1623 C1622 1.386 1_545 S
C1623 C1627 1.393 1_545 S
C1624 H1613 0.950 . S
C1624 C1622 1.391 . S
C1624 C1625 1.400 . S
C1625 C1619 1.491 . S
C1625 C1624 1.400 . S
C1625 C1626 1.398 . S
C1626 H1614 0.950 . S
C1626 C1625 1.398 . S
C1626 C1627 1.391 . S
C1627 H1615 0.950 1_565 S
C1627 C1623 1.393 1_565 S
C1627 C1626 1.391 . S
H1628 C1636 0.950 . S
H1629 C1641 0.950 . S
H1630 C1638 0.950 . S
H1631 C1640 0.950 . S
H1632 C1642 0.950 . S
H1633 C1644 0.950 . S
H1634 C1646 0.950 . S
H1635 C1647 0.950 . S
C1636 H1628 0.950 . S
C1636 C1637 1.386 . S
C1636 C1638 1.391 . S
C1637 C1636 1.386 . S
C1637 C1641 1.393 . S
C1638 H1630 0.950 . S
C1638 C1636 1.391 . S
C1638 C1639 1.400 . S
C1639 C1638 1.400 . S
C1639 C1640 1.398 . S
C1639 C1645 1.491 . S
C1640 H1631 0.950 . S
C1640 C1639 1.398 . S
C1640 C1641 1.391 . S
C1641 H1629 0.950 . S
C1641 C1637 1.393 . S
C1641 C1640 1.391 . S
C1642 H1632 0.950 . S
C1642 C1643 1.386 1_565 S
C1642 C1644 1.391 . S
C1643 C1642 1.386 1_545 S
C1643 C1647 1.393 1_545 S
C1644 H1633 0.950 . S
C1644 C1642 1.391 . S
C1644 C1645 1.400 . S
C1645 C1639 1.491 . S
C1645 C1644 1.400 . S
C1645 C1646 1.398 . S
C1646 H1634 0.950 . S
C1646 C1645 1.398 . S
C1646 C1647 1.391 . S
C1647 H1635 0.950 . S
C1647 C1643 1.393 1_565 S
C1647 C1646 1.391 . S
H1648 C1656 0.950 . S
H1649 C1661 0.950 . S
H1650 C1658 0.950 . S
H1651 C1660 0.950 . S
H1652 C1662 0.950 . S
H1653 C1664 0.950 . S
H1654 C1666 0.950 . S
H1655 C1667 0.950 . S
C1656 H1648 0.950 . S
C1656 C1657 1.386 . S
C1656 C1658 1.391 . S
C1657 C1656 1.386 . S
C1657 C1661 1.393 . S
C1658 H1650 0.950 . S
C1658 C1656 1.391 . S
C1658 C1659 1.400 . S
C1659 C1658 1.400 . S
C1659 C1660 1.398 . S
C1659 C1665 1.491 . S
C1660 H1651 0.950 . S
C1660 C1659 1.398 . S
C1660 C1661 1.391 . S
C1661 H1649 0.950 . S
C1661 C1657 1.393 . S
C1661 C1660 1.391 . S
C1662 H1652 0.950 . S
C1662 C1663 1.386 . S
C1662 C1664 1.391 . S
C1663 C1662 1.386 . S
C1663 C1667 1.393 . S
C1664 H1653 0.950 . S
C1664 C1662 1.391 . S
C1664 C1665 1.400 . S
C1665 C1659 1.491 . S
C1665 C1664 1.400 . S
C1665 C1666 1.398 . S
C1666 H1654 0.950 . S
C1666 C1665 1.398 . S
C1666 C1667 1.391 . S
C1667 H1655 0.950 . S
C1667 C1663 1.393 . S
C1667 C1666 1.391 . S
H1668 C1676 0.950 . S
H1669 C1681 0.950 . S
H1670 C1678 0.950 . S
H1671 C1680 0.950 . S
H1672 C1682 0.950 . S
H1673 C1684 0.950 . S
H1674 C1686 0.950 . S
H1675 C1687 0.950 . S
C1676 H1668 0.950 . S
C1676 C1677 1.386 . S
C1676 C1678 1.391 . S
C1677 C1676 1.386 . S
C1677 C1681 1.393 . S
C1678 H1670 0.950 . S
C1678 C1676 1.391 . S
C1678 C1679 1.400 . S
C1679 C1678 1.400 . S
C1679 C1680 1.398 . S
C1679 C1685 1.491 . S
C1680 H1671 0.950 . S
C1680 C1679 1.398 . S
C1680 C1681 1.391 . S
C1681 H1669 0.950 . S
C1681 C1677 1.393 . S
C1681 C1680 1.391 . S
C1682 H1672 0.950 . S
C1682 C1683 1.386 . S
C1682 C1684 1.391 . S
C1683 C1682 1.386 . S
C1683 C1687 1.393 . S
C1684 H1673 0.950 . S
C1684 C1682 1.391 . S
C1684 C1685 1.400 . S
C1685 C1679 1.491 . S
C1685 C1684 1.400 . S
C1685 C1686 1.398 . S
C1686 H1674 0.950 . S
C1686 C1685 1.398 . S
C1686 C1687 1.391 . S
C1687 H1675 0.950 . S
C1687 C1683 1.393 . S
C1687 C1686 1.391 . S
H1688 C1696 0.950 . S
H1689 C1701 0.950 . S
H1690 C1698 0.950 . S
H1691 C1700 0.950 . S
H1692 C1702 0.950 . S
H1693 C1704 0.950 . S
H1694 C1706 0.950 . S
H1695 C1707 0.950 . S
C1696 H1688 0.950 . S
C1696 C1697 1.386 . S
C1696 C1698 1.391 . S
C1697 C1696 1.386 . S
C1697 C1701 1.393 . S
C1698 H1690 0.950 . S
C1698 C1696 1.391 . S
C1698 C1699 1.400 . S
C1699 C1698 1.400 . S
C1699 C1700 1.398 . S
C1699 C1705 1.491 . S
C1700 H1691 0.950 . S
C1700 C1699 1.398 . S
C1700 C1701 1.391 . S
C1701 H1689 0.950 . S
C1701 C1697 1.393 . S
C1701 C1700 1.391 . S
C1702 H1692 0.950 . S
C1702 C1703 1.386 . S
C1702 C1704 1.391 . S
C1703 C1702 1.386 . S
C1703 C1707 1.393 . S
C1704 H1693 0.950 . S
C1704 C1702 1.391 . S
C1704 C1705 1.400 . S
C1705 C1699 1.491 . S
C1705 C1704 1.400 . S
C1705 C1706 1.398 . S
C1706 H1694 0.950 . S
C1706 C1705 1.398 . S
C1706 C1707 1.391 . S
C1707 H1695 0.950 . S
C1707 C1703 1.393 . S
C1707 C1706 1.391 . S
H1708 C1716 0.950 . S
H1709 C1721 0.950 . S
H1710 C1718 0.950 . S
H1711 C1720 0.950 . S
H1712 C1722 0.950 . S
H1713 C1724 0.950 . S
H1714 C1726 0.950 . S
H1715 C1727 0.950 . S
C1716 H1708 0.950 . S
C1716 C1717 1.386 . S
C1716 C1718 1.391 . S
C1717 C1716 1.386 . S
C1717 C1721 1.393 . S
C1718 H1710 0.950 . S
C1718 C1716 1.391 . S
C1718 C1719 1.400 . S
C1719 C1718 1.400 . S
C1719 C1720 1.398 . S
C1719 C1725 1.491 . S
C1720 H1711 0.950 . S
C1720 C1719 1.398 . S
C1720 C1721 1.391 . S
C1721 H1709 0.950 . S
C1721 C1717 1.393 . S
C1721 C1720 1.391 . S
C1722 H1712 0.950 . S
C1722 C1723 1.386 . S
C1722 C1724 1.391 . S
C1723 C1722 1.386 . S
C1723 C1727 1.393 . S
C1724 H1713 0.950 . S
C1724 C1722 1.391 . S
C1724 C1725 1.400 . S
C1725 C1719 1.491 . S
C1725 C1724 1.400 . S
C1725 C1726 1.398 . S
C1726 H1714 0.950 . S
C1726 C1725 1.398 . S
C1726 C1727 1.391 . S
C1727 H1715 0.950 . S
C1727 C1723 1.393 . S
C1727 C1726 1.391 . S
C457 C37 0.514 . S
C463 C9 0.519 . S
C477 C23 0.517 . S
C483 C51 0.502 . S
C497 C93 0.518 . S
C503 C65 0.504 . S
C517 C107 0.482 . S
C523 C79 0.507 . S
C537 C121 0.432 . S
C543 C149 0.428 . S
C557 C163 0.434 . S
C563 C135 0.427 . S
C577 C177 0.429 . S
C583 C205 0.430 . S
C597 C191 0.445 . S
C603 C219 0.429 . S
C617 C261 0.506 . S
C623 C233 0.519 . S
C637 C247 0.504 . S
C643 C275 0.479 . S
C657 C289 0.430 . S
C663 C317 0.429 . S
C677 C331 0.516 . S
C683 C303 0.518 . S
C697 C373 0.440 . S
C703 C345 0.427 . S
C717 C387 0.427 . S
C723 C359 0.433 . S
C737 C429 0.517 . S
C743 C401 0.501 . S
C757 C415 0.497 . S
C763 C443 0.469 . S
C777 C67 1.595 . S
C783 C11 1.595 . S
C797 C417 1.576 . S
C803 C25 1.576 . S
C817 C39 1.595 . S
C823 C207 1.595 . S
C837 C53 1.587 . S
C843 C333 1.587 . S
C857 C81 1.590 . S
C863 C361 1.590 . S
C877 C95 1.594 . S
C883 C151 1.594 . S
C897 C277 1.575 . S
C903 C109 1.575 . S
C917 C179 1.592 . S
C923 C123 1.592 . S
C937 C305 1.586 . S
C943 C137 1.586 . S
C957 C165 1.585 . S
C963 C445 1.585 . S
C977 C193 1.580 . S
C983 C249 1.580 . S
C997 C389 1.578 . S
C1003 C221 1.578 . S
C1017 C291 1.578 . S
C1023 C235 1.578 . S
C1037 C263 1.595 . S
C1043 C431 1.595 . S
C1057 C319 1.580 . S
C1063 C375 1.580 . S
C1077 C403 1.582 . S
C1083 C347 1.582 . S
C1097 C47 1.504 . S
C1103 C5 1.505 . S
C1117 C33 1.504 . S
C1123 C19 1.506 . S
C1137 C103 1.505 . S
C1143 C61 1.503 . S
C1157 C89 1.506 . S
C1163 C75 1.504 . S
C1177 C159 1.505 . S
C1183 C117 1.507 . S
C1197 C145 1.505 . S
C1203 C131 1.504 . S
C1217 C215 1.506 . S
C1223 C173 1.504 . S
C1237 C201 1.510 . S
C1243 C187 1.512 . S
C1257 C229 1.511 . S
C1263 C271 1.511 . S
C1277 C257 1.512 . S
C1283 C243 1.511 . S
C1297 C285 1.506 . S
C1303 C327 1.504 . S
C1317 C313 1.511 . S
C1323 C299 1.512 . S
C1337 C383 1.508 . S
C1343 C341 1.510 . S
C1357 C355 1.511 . S
C1363 C369 1.510 . S
C1377 C397 1.505 . S
C1383 C439 1.507 . S
C1397 C425 1.510 . S
C1403 C411 1.512 . S
C1417 C28 1.497 . S
C1423 C0 1.513 . S
C1437 C14 1.512 . S
C1443 C42 1.497 . S
C1457 C56 1.501 . S
C1463 C84 1.511 . S
C1477 C70 1.506 . S
C1483 C98 1.508 . S
C1497 C112 1.505 . S
C1503 C140 1.508 . S
C1517 C126 1.500 . S
C1523 C154 1.512 . S
C1537 C196 1.511 . S
C1543 C168 1.501 . S
C1557 C210 1.498 . S
C1563 C182 1.513 . S
C1577 C252 1.498 . S
C1583 C224 1.513 . S
C1597 C266 1.511 . S
C1603 C238 1.498 . S
C1617 C280 1.507 . S
C1623 C308 1.500 . S
C1637 C322 1.503 . S
C1643 C294 1.503 . S
C1657 C364 1.513 . S
C1663 C336 1.498 . S
C1677 C350 1.498 . S
C1683 C378 1.513 . S
C1697 C392 1.500 . S
C1703 C420 1.512 . S
C1717 C434 1.497 . S
C1723 C406 1.512 . S
