# Generated by pormake.
# Topology upa, (4)-cn, num edge types: 1
# Building blocks:
#     Node 0, Type 0, BuildingBlock: TATPOV_clean_sbu_0, # of connection points: 4
#     Node 1, Type 0, BuildingBlock: TATPOV_clean_sbu_0, # of connection points: 4
#     Node 2, Type 0, BuildingBlock: TATPOV_clean_sbu_0, # of connection points: 4
#     Node 3, Type 0, BuildingBlock: TATPOV_clean_sbu_0, # of connection points: 4
#     Node 4, Type 0, BuildingBlock: TATPOV_clean_sbu_0, # of connection points: 4
#     Node 5, Type 0, BuildingBlock: TATPOV_clean_sbu_0, # of connection points: 4
#     Node 6, Type 0, BuildingBlock: TATPOV_clean_sbu_0, # of connection points: 4
#     Node 7, Type 0, BuildingBlock: TATPOV_clean_sbu_0, # of connection points: 4
#     Edge 8, Type (0, 0), BuildingBlock: TEMPAE_clean_linker_10, # of connection points: 2
#     Edge 9, Type (0, 0), BuildingBlock: TEMPAE_clean_linker_10, # of connection points: 2
#     Edge 10, Type (0, 0), BuildingBlock: TEMPAE_clean_linker_10, # of connection points: 2
#     Edge 11, Type (0, 0), BuildingBlock: TEMPAE_clean_linker_10, # of connection points: 2
#     Edge 12, Type (0, 0), BuildingBlock: TEMPAE_clean_linker_10, # of connection points: 2
#     Edge 13, Type (0, 0), BuildingBlock: TEMPAE_clean_linker_10, # of connection points: 2
#     Edge 14, Type (0, 0), BuildingBlock: TEMPAE_clean_linker_10, # of connection points: 2
#     Edge 15, Type (0, 0), BuildingBlock: TEMPAE_clean_linker_10, # of connection points: 2
#     Edge 16, Type (0, 0), BuildingBlock: TEMPAE_clean_linker_10, # of connection points: 2
#     Edge 17, Type (0, 0), BuildingBlock: TEMPAE_clean_linker_10, # of connection points: 2
#     Edge 18, Type (0, 0), BuildingBlock: TEMPAE_clean_linker_10, # of connection points: 2
#     Edge 19, Type (0, 0), BuildingBlock: TEMPAE_clean_linker_10, # of connection points: 2
#     Edge 20, Type (0, 0), BuildingBlock: TEMPAE_clean_linker_10, # of connection points: 2
#     Edge 21, Type (0, 0), BuildingBlock: TEMPAE_clean_linker_10, # of connection points: 2
#     Edge 22, Type (0, 0), BuildingBlock: TEMPAE_clean_linker_10, # of connection points: 2
#     Edge 23, Type (0, 0), BuildingBlock: TEMPAE_clean_linker_10, # of connection points: 2
# Relax obj value: 0.171
# Max RMSD: 0.171
# Mean RMSD: 0.171
data_MOF--net-upa--node1-TATPOV_clean_sbu_0--edge1-TEMPAE_clean_linker_10
_symmetry_space_group_name_H-M    P1
_symmetry_Int_Tables_number       1
_symmetry_cell_setting            triclinic
loop_
_symmetry_equiv_pos_as_xyz
'x, y, z'
_cell_length_a     26.359294
_cell_length_b     26.351172
_cell_length_c     43.388426
_cell_angle_alpha  90.057288
_cell_angle_beta   90.113501
_cell_angle_gamma 89.961008
loop_
_atom_site_label
_atom_site_type_symbol
_atom_site_fract_x
_atom_site_fract_y
_atom_site_fract_z
_atom_type_partial_charge
Zn0 Zn 0.08325 0.2913 0.37022 0.0
Zn1 Zn 0.15553 0.25659 0.33739 0.0
O2 O 0.10347 0.2929 0.30777 0.0
O3 O 0.04923 0.33261 0.33768 0.0
O4 O 0.21871 0.24192 0.31165 0.0
O5 O 0.12419 0.32108 0.40428 0.0
O6 O 0.18643 0.28599 0.37836 0.0
C7 C 0.06393 0.32067 0.31092 0.0
C8 C 0.0836 0.18073 0.36249 0.0
O9 O 0.12377 0.18808 0.34682 0.0
O10 O 0.06049 0.21802 0.37454 0.0
C11 C 0.25383 0.21378 0.32251 0.0
O12 O 0.24763 0.19339 0.34987 0.0
C13 C 0.17051 0.30912 0.40237 0.0
Zn14 Zn 0.22947 0.59819 0.87186 0.0
Zn15 Zn 0.26552 0.66788 0.83963 0.0
O16 O 0.23073 0.6135 0.81044 0.0
O17 O 0.18753 0.56258 0.84055 0.0
O18 O 0.27853 0.73101 0.81327 0.0
O19 O 0.19952 0.63733 0.90625 0.0
O20 O 0.23682 0.69888 0.88098 0.0
C21 C 0.20198 0.57471 0.8138 0.0
C22 C 0.34042 0.59622 0.86493 0.0
O23 O 0.33433 0.63668 0.84927 0.0
O24 O 0.30231 0.57401 0.87656 0.0
C25 C 0.30515 0.76753 0.82384 0.0
O26 O 0.32546 0.76296 0.85138 0.0
C27 C 0.21296 0.68324 0.90479 0.0
Zn28 Zn 0.92389 0.72608 0.37727 0.0
Zn29 Zn 0.85206 0.75623 0.34352 0.0
O30 O 0.90687 0.72124 0.31485 0.0
O31 O 0.96073 0.68441 0.34637 0.0
O32 O 0.78835 0.76764 0.31735 0.0
O33 O 0.88506 0.69611 0.41179 0.0
O34 O 0.82187 0.72767 0.38499 0.0
C35 C 0.9473 0.69512 0.31916 0.0
C36 C 0.92055 0.83593 0.36775 0.0
O37 O 0.88087 0.82644 0.35195 0.0
O38 O 0.94461 0.80006 0.38066 0.0
C39 C 0.75184 0.79337 0.32868 0.0
O40 O 0.75718 0.81275 0.35642 0.0
C41 C 0.83838 0.7063 0.40948 0.0
Zn42 Zn 0.78787 0.41733 0.87745 0.0
Zn43 Zn 0.75446 0.34706 0.84362 0.0
O44 O 0.78985 0.40125 0.81484 0.0
O45 O 0.82907 0.45366 0.8462 0.0
O46 O 0.741 0.28391 0.81732 0.0
O47 O 0.81846 0.37716 0.9113 0.0
O48 O 0.78385 0.31553 0.88456 0.0
C49 C 0.81705 0.44095 0.81905 0.0
C50 C 0.67761 0.41749 0.86911 0.0
O51 O 0.68532 0.37789 0.85289 0.0
O52 O 0.71462 0.43998 0.88189 0.0
C53 C 0.71543 0.24745 0.82878 0.0
O54 O 0.69708 0.25255 0.85675 0.0
C55 C 0.80685 0.33084 0.90882 0.0
Zn56 Zn 0.58032 0.21934 0.1298 0.0
Zn57 Zn 0.65504 0.24849 0.16324 0.0
O58 O 0.60276 0.21219 0.1926 0.0
O59 O 0.54568 0.17806 0.16196 0.0
O60 O 0.71902 0.26116 0.18882 0.0
O61 O 0.61986 0.18905 0.0955 0.0
O62 O 0.68443 0.21871 0.12198 0.0
C63 C 0.56189 0.18662 0.18891 0.0
C64 C 0.58592 0.32891 0.13914 0.0
O65 O 0.62556 0.31854 0.15477 0.0
O66 O 0.5608 0.29361 0.1264 0.0
C67 C 0.75408 0.28916 0.17789 0.0
O68 O 0.74735 0.30996 0.15067 0.0
C69 C 0.66687 0.19774 0.09762 0.0
Zn70 Zn 0.28619 0.08635 0.62724 0.0
Zn71 Zn 0.25505 0.16222 0.65951 0.0
O72 O 0.29349 0.11351 0.69031 0.0
O73 O 0.3288 0.05593 0.66052 0.0
O74 O 0.23772 0.22804 0.6822 0.0
O75 O 0.31444 0.12519 0.59196 0.0
O76 O 0.28373 0.19007 0.61766 0.0
C77 C 0.32027 0.07324 0.68721 0.0
C78 C 0.17702 0.08836 0.63696 0.0
O79 O 0.18644 0.1291 0.65173 0.0
O80 O 0.21279 0.06372 0.62442 0.0
C81 C 0.26447 0.2489 0.70312 0.0
O82 O 0.30595 0.22602 0.71262 0.0
C83 C 0.30464 0.17207 0.59345 0.0
Zn84 Zn 0.43267 0.78828 0.13332 0.0
Zn85 Zn 0.35667 0.75384 0.16377 0.0
O86 O 0.40477 0.79024 0.19583 0.0
O87 O 0.46151 0.82974 0.16758 0.0
O88 O 0.29115 0.73421 0.18602 0.0
O89 O 0.39431 0.8178 0.09819 0.0
O90 O 0.32896 0.7854 0.12253 0.0
C91 C 0.44434 0.81824 0.19385 0.0
C92 C 0.43254 0.67853 0.14037 0.0
O93 O 0.39079 0.68623 0.15437 0.0
O94 O 0.45722 0.71561 0.12941 0.0
C95 C 0.26791 0.76256 0.20512 0.0
O96 O 0.2878 0.80666 0.21248 0.0
C97 C 0.34744 0.80787 0.09899 0.0
Zn98 Zn 0.72069 0.92678 0.6343 0.0
Zn99 Zn 0.75684 0.85192 0.66531 0.0
O100 O 0.71975 0.89989 0.69702 0.0
O101 O 0.67891 0.95546 0.66846 0.0
O102 O 0.77724 0.78688 0.68782 0.0
O103 O 0.69192 0.8872 0.59933 0.0
O104 O 0.726 0.82314 0.62421 0.0
C105 C 0.691 0.93893 0.69483 0.0
C106 C 0.83062 0.92848 0.64149 0.0
O107 O 0.82381 0.88684 0.65578 0.0
O108 O 0.79302 0.95231 0.63036 0.0
C109 C 0.74856 0.76293 0.70635 0.0
O110 O 0.70383 0.78197 0.71302 0.0
C111 C 0.70309 0.8406 0.6005 0.0
C112 C 0.07898 0.08939 0.34688 0.0
C113 C 0.06164 0.12939 0.3654 0.0
C114 C 0.0554 0.0417 0.34782 0.0
C115 C 0.01387 0.03392 0.36792 0.0
C116 C 0.99698 0.07377 0.38717 0.0
C117 C 0.02099 0.12106 0.38562 0.0
C118 C 0.07434 0.9999 0.32695 0.0
C119 C 0.95316 0.06663 0.40913 0.0
C120 C 0.92316 0.92615 0.34986 0.0
C121 C 0.9413 0.88793 0.36945 0.0
C122 C 0.94622 0.97411 0.34927 0.0
C123 C 0.98808 0.98398 0.36889 0.0
C124 C 1.00559 0.94606 0.38932 0.0
C125 C 0.98205 0.89846 0.38932 0.0
C126 C 0.92658 0.01383 0.32719 0.0
C127 C 0.04981 0.95544 0.41079 0.0
H128 H 0.11021 0.09563 0.33112 0.0
H129 H 0.0075 0.15173 0.40012 0.0
H130 H 0.08553 0.96637 0.34084 0.0
H131 H 0.04349 0.98764 0.31119 0.0
H132 H 0.10737 0.01198 0.31289 0.0
H133 H 0.94544 0.1012 0.42303 0.0
H134 H 0.91834 0.05671 0.39605 0.0
H135 H 0.96119 0.03469 0.42505 0.0
H136 H 0.89183 0.91821 0.33438 0.0
H137 H 0.99617 0.86919 0.40464 0.0
H138 H 0.95688 0.02437 0.31067 0.0
H139 H 0.916 0.04873 0.33997 0.0
H140 H 0.89302 1.00048 0.31396 0.0
H141 H 0.0577 0.92242 0.42597 0.0
H142 H 0.04217 0.98908 0.42547 0.0
H143 H 0.08441 0.96378 0.3972 0.0
C144 C 0.39738 0.53068 0.88778 0.0
C145 C 0.391 0.57248 0.8681 0.0
C146 C 0.44353 0.50448 0.88921 0.0
C147 C 0.48431 0.52037 0.87047 0.0
C148 C 0.47863 0.5632 0.85105 0.0
C149 C 0.43198 0.5889 0.85016 0.0
C150 C 0.44837 0.45927 0.91041 0.0
C151 C 0.52149 0.5812 0.83079 0.0
C152 C 0.61779 0.48047 0.89185 0.0
C153 C 0.6265 0.44032 0.87124 0.0
C154 C 0.57143 0.50643 0.8921 0.0
C155 C 0.53291 0.49202 0.87115 0.0
C156 C 0.54086 0.45069 0.85083 0.0
C157 C 0.5876 0.42515 0.85119 0.0
C158 C 0.56406 0.54993 0.91436 0.0
C159 C 0.50044 0.43427 0.82821 0.0
H160 H 0.36597 0.51784 0.90184 0.0
H161 H 0.42726 0.62103 0.83484 0.0
H162 H 0.45648 0.42462 0.89673 0.0
H163 H 0.48066 0.46479 0.92651 0.0
H164 H 0.41344 0.4527 0.92412 0.0
H165 H 0.51123 0.61566 0.81742 0.0
H166 H 0.55542 0.58976 0.84503 0.0
H167 H 0.53229 0.55071 0.8144 0.0
H168 H 0.64759 0.49229 0.90754 0.0
H169 H 0.59416 0.39433 0.83512 0.0
H170 H 0.52991 0.5433 0.92871 0.0
H171 H 0.55767 0.58564 0.9014 0.0
H172 H 0.59724 0.55525 0.92986 0.0
H173 H 0.46491 0.42493 0.84062 0.0
H174 H 0.51219 0.4007 0.81445 0.0
H175 H 0.49166 0.4659 0.81219 0.0
C176 C 0.58487 0.41907 0.15726 0.0
C177 C 0.56696 0.38156 0.13707 0.0
C178 C 0.56363 0.46791 0.15723 0.0
C179 C 0.52401 0.47945 0.13628 0.0
C180 C 0.50691 0.44223 0.1152 0.0
C181 C 0.52846 0.39367 0.11594 0.0
C182 C 0.58265 0.50675 0.1801 0.0
C183 C 0.46519 0.45341 0.09227 0.0
C184 C 0.43409 0.58712 0.15582 0.0
C185 C 0.45405 0.62686 0.13815 0.0
C186 C 0.45658 0.53887 0.15546 0.0
C187 C 0.4997 0.53019 0.13676 0.0
C188 C 0.51941 0.56983 0.11843 0.0
C189 C 0.49646 0.61776 0.11942 0.0
C190 C 0.43467 0.4974 0.1754 0.0
C191 C 0.56499 0.56172 0.09794 0.0
H192 H 0.61448 0.40989 0.17372 0.0
H193 H 0.51465 0.36495 0.10011 0.0
H194 H 0.59539 0.54141 0.16787 0.0
H195 H 0.55136 0.51812 0.19572 0.0
H196 H 0.61463 0.49216 0.19427 0.0
H197 H 0.45777 0.4209 0.07657 0.0
H198 H 0.42959 0.46267 0.10467 0.0
H199 H 0.47528 0.48701 0.07816 0.0
H200 H 0.40151 0.59395 0.17046 0.0
H201 H 0.51201 0.64824 0.10561 0.0
H202 H 0.46383 0.48376 0.19191 0.0
H203 H 0.42347 0.46454 0.1609 0.0
H204 H 0.40099 0.51035 0.1886 0.0
H205 H 0.59823 0.55043 0.11209 0.0
H206 H 0.57502 0.5963 0.08466 0.0
H207 H 0.55748 0.53036 0.08148 0.0
C208 C 0.1131 0.02893 0.61474 0.0
C209 C 0.12495 0.06783 0.63564 0.0
C210 C 0.06504 0.00632 0.61456 0.0
C211 C 0.02816 0.02267 0.63601 0.0
C212 C 0.03952 0.06248 0.65684 0.0
C213 C 0.08779 0.08485 0.65628 0.0
C214 C 0.05397 0.96445 0.59171 0.0
C215 C 1.00109 0.08064 0.68016 0.0
C216 C 0.88987 0.99342 0.62027 0.0
C217 C 0.88188 0.95078 0.63899 0.0
C218 C 0.93742 0.01699 0.61891 0.0
C219 C 0.97784 0.99763 0.63686 0.0
C220 C 0.97027 0.95431 0.65557 0.0
C221 C 0.92235 0.93123 0.65631 0.0
C222 C 0.94431 0.06283 0.59846 0.0
C223 C 0.01258 0.93281 0.67512 0.0
H224 H 0.14158 0.01581 0.59859 0.0
H225 H 0.09683 0.11471 0.67259 0.0
H226 H 0.04546 0.92872 0.60417 0.0
H227 H 0.01995 0.97415 0.57781 0.0
H228 H 0.08623 0.95746 0.57583 0.0
H229 H 0.01562 0.11259 0.69437 0.0
H230 H 0.96593 0.09313 0.66829 0.0
H231 H 0.99059 0.04895 0.69571 0.0
H232 H 0.85882 0.00869 0.60673 0.0
H233 H 0.91639 0.89845 0.67094 0.0
H234 H 0.97532 0.05585 0.58173 0.0
H235 H 0.95549 0.09612 0.61258 0.0
H236 H 0.90924 0.0725 0.58548 0.0
H237 H 0.04519 0.92214 0.66033 0.0
H238 H 1.00048 0.89885 0.68835 0.0
H239 H 0.02624 0.96204 0.69158 0.0
C240 C 0.25501 0.30462 0.42958 0.0
C241 C 0.20212 0.31037 0.43074 0.0
C242 C 0.28304 0.29368 0.45647 0.0
C243 C 0.25717 0.28543 0.48465 0.0
C244 C 0.20436 0.29501 0.48626 0.0
C245 C 0.17784 0.30858 0.45948 0.0
C246 C 0.33982 0.28791 0.45418 0.0
C247 C 0.17471 0.28598 0.51553 0.0
C248 C 0.29637 0.1772 0.53658 0.0
C249 C 0.3054 0.20226 0.5646 0.0
C250 C 0.28348 0.20413 0.50988 0.0
C251 C 0.28219 0.25788 0.51064 0.0
C252 C 0.29694 0.28358 0.53798 0.0
C253 C 0.30689 0.25546 0.56496 0.0
C254 C 0.26652 0.17468 0.48175 0.0
C255 C 0.29961 0.34069 0.53945 0.0
H256 H 0.27424 0.30668 0.40755 0.0
H257 H 0.13702 0.31315 0.46071 0.0
H258 H 0.35878 0.29858 0.47612 0.0
H259 H 0.3494 0.24784 0.44897 0.0
H260 H 0.35531 0.3117 0.43528 0.0
H261 H 0.13379 0.29514 0.51288 0.0
H262 H 0.1782 0.2456 0.52251 0.0
H263 H 0.19026 0.30945 0.53451 0.0
H264 H 0.2949 0.13609 0.53607 0.0
H265 H 0.31433 0.27514 0.58645 0.0
H266 H 0.2899 0.18509 0.46155 0.0
H267 H 0.22651 0.18424 0.47618 0.0
H268 H 0.2693 0.13297 0.4851 0.0
H269 H 0.30678 0.35764 0.51646 0.0
H270 H 0.33005 0.35301 0.55554 0.0
H271 H 0.26325 0.35586 0.5484 0.0
C272 C 0.21361 0.68887 0.96191 0.0
C273 C 0.21234 0.71409 0.93344 0.0
C274 C 0.22705 0.71435 0.98906 0.0
C275 C 0.23688 0.76717 0.98817 0.0
C276 C 0.2294 0.79401 0.96018 0.0
C277 C 0.21871 0.76693 0.93289 0.0
C278 C 0.23552 0.68357 0.01801 0.0
C279 C 0.23548 0.85083 0.95849 0.0
C280 C 0.26476 0.81221 0.06969 0.0
C281 C 0.31794 0.81059 0.06988 0.0
C282 C 0.23734 0.80417 0.04218 0.0
C283 C 0.26372 0.7911 0.01481 0.0
C284 C 0.31745 0.79249 0.01465 0.0
C285 C 0.34369 0.80354 0.04193 0.0
C286 C 0.18023 0.80703 0.04306 0.0
C287 C 0.3476 0.77754 0.98644 0.0
H288 H 0.20863 0.64806 0.96266 0.0
H289 H 0.2171 0.78688 0.91107 0.0
H290 H 0.27552 0.68742 0.02574 0.0
H291 H 0.21098 0.69785 0.03681 0.0
H292 H 0.22727 0.64261 0.0146 0.0
H293 H 0.20947 0.86713 0.94091 0.0
H294 H 0.22784 0.86925 0.98103 0.0
H295 H 0.27477 0.86017 0.9514 0.0
H296 H 0.24456 0.81826 0.09113 0.0
H297 H 0.3848 0.80214 0.04183 0.0
H298 H 0.16472 0.77037 0.05128 0.0
H299 H 0.16389 0.81533 0.02001 0.0
H300 H 0.16764 0.83682 0.0595 0.0
H301 H 0.3377 0.73824 0.97941 0.0
H302 H 0.38921 0.77936 0.99045 0.0
H303 H 0.33819 0.80294 0.96693 0.0
C304 C 0.70835 0.83583 0.5435 0.0
C305 C 0.70157 0.81047 0.57161 0.0
C306 C 0.72117 0.80936 0.51661 0.0
C307 C 0.72469 0.75572 0.51733 0.0
C308 C 0.71176 0.72951 0.54476 0.0
C309 C 0.70188 0.75725 0.57189 0.0
C310 C 0.73583 0.83937 0.48831 0.0
C311 C 0.71114 0.67234 0.54613 0.0
C312 C 0.75366 0.70905 0.43639 0.0
C313 C 0.8067 0.7051 0.43774 0.0
C314 C 0.72521 0.71953 0.46314 0.0
C315 C 0.75074 0.72917 0.49136 0.0
C316 C 0.80389 0.7217 0.49313 0.0
C317 C 0.83087 0.70848 0.46653 0.0
C318 C 0.66827 0.72315 0.46058 0.0
C319 C 0.83325 0.73254 0.52238 0.0
H320 H 0.70828 0.87697 0.54303 0.0
H321 H 0.69606 0.73733 0.59345 0.0
H322 H 0.77594 0.83135 0.48222 0.0
H323 H 0.71203 0.82799 0.46842 0.0
H324 H 0.73157 0.88095 0.49173 0.0
H325 H 0.68215 0.6589 0.56278 0.0
H326 H 0.70313 0.6553 0.52322 0.0
H327 H 0.74854 0.65837 0.55424 0.0
H328 H 0.73454 0.70581 0.41433 0.0
H329 H 0.87182 0.70535 0.46791 0.0
H330 H 0.65746 0.76202 0.45332 0.0
H331 H 0.64948 0.7148 0.48288 0.0
H332 H 0.65372 0.69643 0.44283 0.0
H333 H 0.82768 0.77272 0.52932 0.0
H334 H 0.87458 0.72557 0.51973 0.0
H335 H 0.81916 0.70839 0.5414 0.0
C336 C 0.80759 0.322 0.96581 0.0
C337 C 0.80847 0.29846 0.93678 0.0
C338 C 0.79405 0.29501 0.99235 0.0
C339 C 0.7837 0.24238 0.99019 0.0
C340 C 0.79143 0.21708 0.9617 0.0
C341 C 0.80225 0.24566 0.93507 0.0
C342 C 0.78598 0.32409 0.02199 0.0
C343 C 0.78532 0.16041 0.95869 0.0
C344 C 0.75112 0.19393 0.07023 0.0
C345 C 0.69798 0.19576 0.0692 0.0
C346 C 0.78014 0.20305 0.04355 0.0
C347 C 0.75539 0.21742 0.0158 0.0
C348 C 0.70169 0.21625 0.01436 0.0
C349 C 0.67388 0.20404 0.04078 0.0
C350 C 0.83713 0.1998 0.04584 0.0
C351 C 0.67313 0.23255 0.98575 0.0
H352 H 0.81278 0.36271 0.96749 0.0
H353 H 0.80378 0.22692 0.91284 0.0
H354 H 0.74623 0.31949 0.02993 0.0
H355 H 0.81118 0.30897 0.04026 0.0
H356 H 0.79384 0.36529 0.01943 0.0
H357 H 0.81288 0.14498 0.94176 0.0
H358 H 0.79085 0.14075 0.98107 0.0
H359 H 0.74677 0.15161 0.94992 0.0
H360 H 0.77008 0.18691 0.09202 0.0
H361 H 0.63281 0.20556 0.03972 0.0
H362 H 0.85192 0.23419 0.05755 0.0
H363 H 0.85544 0.19628 0.02292 0.0
H364 H 0.84829 0.16668 0.06016 0.0
H365 H 0.68458 0.27155 0.97905 0.0
H366 H 0.63135 0.23211 0.98906 0.0
H367 H 0.68237 0.20696 0.9663 0.0
C368 C 0.4857 0.14399 0.21129 0.0
C369 C 0.5266 0.17759 0.21504 0.0
C370 C 0.44376 0.14528 0.23123 0.0
C371 C 0.44232 0.18133 0.25544 0.0
C372 C 0.48524 0.21252 0.26085 0.0
C373 C 0.52701 0.21008 0.2407 0.0
C374 C 0.39937 0.11058 0.22491 0.0
C375 C 0.48548 0.25135 0.28644 0.0
C376 C 0.31165 0.23144 0.27774 0.0
C377 C 0.30181 0.20514 0.30518 0.0
C378 C 0.35735 0.22433 0.26159 0.0
C379 C 0.39418 0.18977 0.27295 0.0
C380 C 0.38442 0.16296 0.30056 0.0
C381 C 0.33853 0.17107 0.31637 0.0
C382 C 0.36625 0.2539 0.2323 0.0
C383 C 0.42238 0.12553 0.31335 0.0
H384 H 0.48509 0.11862 0.1916 0.0
H385 H 0.55814 0.23649 0.24369 0.0
H386 H 0.38631 0.09233 0.24651 0.0
H387 H 0.3672 0.13312 0.21567 0.0
H388 H 0.40892 0.08047 0.20794 0.0
H389 H 0.52372 0.26803 0.29011 0.0
H390 H 0.45871 0.28245 0.28063 0.0
H391 H 0.47243 0.23417 0.30836 0.0
H392 H 0.28374 0.25797 0.26893 0.0
H393 H 0.3314 0.15047 0.33753 0.0
H394 H 0.37136 0.22737 0.21268 0.0
H395 H 0.40157 0.27654 0.23439 0.0
H396 H 0.33435 0.27999 0.22683 0.0
H397 H 0.42952 0.09504 0.29625 0.0
H398 H 0.40927 0.10789 0.33516 0.0
H399 H 0.45914 0.14476 0.31769 0.0
C400 C 0.28549 0.82359 0.77839 0.0
C401 C 0.31198 0.81542 0.80603 0.0
C402 C 0.29079 0.86922 0.76185 0.0
C403 C 0.32368 0.90771 0.77301 0.0
C404 C 0.3507 0.89963 0.80081 0.0
C405 C 0.34441 0.85377 0.817 0.0
C406 C 0.26108 0.87624 0.73237 0.0
C407 C 0.38642 0.93936 0.81339 0.0
C408 C 0.36613 0.99968 0.71069 0.0
C409 C 0.33082 0.03929 0.71386 0.0
C410 C 0.36642 0.95816 0.73101 0.0
C411 C 0.33025 0.95581 0.75506 0.0
C412 C 0.2973 0.99762 0.75993 0.0
C413 C 0.29817 0.039 0.73938 0.0
C414 C 0.40297 0.91506 0.72526 0.0
C415 C 0.25832 0.99692 0.78535 0.0
H416 H 0.26021 0.79443 0.76974 0.0
H417 H 0.36514 0.84797 0.8383 0.0
H418 H 0.23697 0.91067 0.73405 0.0
H419 H 0.2875 0.88201 0.71281 0.0
H420 H 0.23641 0.84318 0.72709 0.0
H421 H 0.40446 0.92745 0.83539 0.0
H422 H 0.41668 0.94736 0.79635 0.0
H423 H 0.36565 0.97541 0.81735 0.0
H424 H 0.39162 0.9996 0.6911 0.0
H425 H 0.27043 0.0691 0.74193 0.0
H426 H 0.38186 0.88181 0.71618 0.0
H427 H 0.42153 0.90319 0.74706 0.0
H428 H 0.4328 0.92544 0.70835 0.0
H429 H 0.22838 0.96883 0.77965 0.0
H430 H 0.24012 0.03457 0.7886 0.0
H431 H 0.27586 0.98503 0.80746 0.0
C432 C 0.66463 0.83124 0.3238 0.0
C433 C 0.70339 0.80071 0.31146 0.0
C434 C 0.6184 0.83837 0.30809 0.0
C435 C 0.61039 0.81428 0.27933 0.0
C436 C 0.64923 0.78322 0.2668 0.0
C437 C 0.6952 0.77693 0.28294 0.0
C438 C 0.57823 0.87196 0.3222 0.0
C439 C 0.64228 0.75666 0.23623 0.0
C440 C 0.47916 0.79096 0.24499 0.0
C441 C 0.47814 0.82645 0.22089 0.0
C442 C 0.52077 0.78827 0.26537 0.0
C443 C 0.56205 0.82222 0.26178 0.0
C444 C 0.55891 0.86106 0.23932 0.0
C445 C 0.51717 0.86259 0.21913 0.0
C446 C 0.52231 0.74647 0.28911 0.0
C447 C 0.60145 0.89871 0.235 0.0
H448 H 0.67041 0.84983 0.34582 0.0
H449 H 0.72469 0.75316 0.27322 0.0
H450 H 0.56973 0.90411 0.30653 0.0
H451 H 0.54251 0.8503 0.32521 0.0
H452 H 0.59 0.88746 0.34494 0.0
H453 H 0.67561 0.73303 0.22993 0.0
H454 H 0.60822 0.73199 0.23702 0.0
H455 H 0.63594 0.78509 0.21777 0.0
H456 H 0.44952 0.76257 0.24643 0.0
H457 H 0.51668 0.89025 0.20064 0.0
H458 H 0.53437 0.76154 0.31184 0.0
H459 H 0.5506 0.71751 0.28206 0.0
H460 H 0.48491 0.72756 0.29173 0.0
H461 H 0.61325 0.91499 0.25749 0.0
H462 H 0.59052 0.93023 0.21934 0.0
H463 H 0.63489 0.87906 0.22507 0.0
C464 C 0.67717 0.16041 0.82398 0.0
C465 C 0.70754 0.19912 0.81152 0.0
C466 C 0.6699 0.11413 0.80835 0.0
C467 C 0.69373 0.10601 0.77956 0.0
C468 C 0.7245 0.14487 0.76687 0.0
C469 C 0.7309 0.1909 0.78292 0.0
C470 C 0.63659 0.07396 0.82262 0.0
C471 C 0.75077 0.13782 0.73627 0.0
C472 C 0.71806 0.97458 0.74584 0.0
C473 C 0.68256 0.97304 0.72169 0.0
C474 C 0.72042 0.01642 0.76604 0.0
C475 C 0.68609 0.05741 0.76225 0.0
C476 C 0.64723 0.05373 0.73976 0.0
C477 C 0.64606 0.01178 0.71973 0.0
C478 C 0.76227 0.01853 0.78979 0.0
C479 C 0.60916 0.09592 0.73526 0.0
H480 H 0.65888 0.16622 0.84606 0.0
H481 H 0.75455 0.22035 0.77311 0.0
H482 H 0.60459 0.06493 0.8069 0.0
H483 H 0.65855 0.03845 0.82595 0.0
H484 H 0.6209 0.086 0.84522 0.0
H485 H 0.77401 0.17127 0.72976 0.0
H486 H 0.77577 0.10395 0.73716 0.0
H487 H 0.72222 0.13105 0.7179 0.0
H488 H 0.74671 0.94516 0.74745 0.0
H489 H 0.61837 0.01089 0.70122 0.0
H490 H 0.74715 0.03063 0.81247 0.0
H491 H 0.7909 0.04704 0.78266 0.0
H492 H 0.78159 0.98132 0.79255 0.0
H493 H 0.593 0.10793 0.7577 0.0
H494 H 0.57761 0.0845 0.71972 0.0
H495 H 0.6284 0.12937 0.72509 0.0
C496 C 0.02798 0.29451 0.25975 0.0
C497 C 0.02795 0.32824 0.28483 0.0
C498 C 0.98595 0.29114 0.23975 0.0
C499 C 0.94307 0.32258 0.24473 0.0
C500 C 0.94476 0.35969 0.26834 0.0
C501 C 0.98702 0.36197 0.28811 0.0
C502 C 0.98595 0.25123 0.21478 0.0
C503 C 0.90039 0.39464 0.27417 0.0
C504 C 0.83917 0.33121 0.18353 0.0
C505 C 0.80233 0.29772 0.19509 0.0
C506 C 0.88515 0.33957 0.19928 0.0
C507 C 0.89487 0.31367 0.22724 0.0
C508 C 0.85797 0.27965 0.23896 0.0
C509 C 0.81219 0.27221 0.22283 0.0
C510 C 0.92323 0.37633 0.18607 0.0
C511 C 0.86681 0.25108 0.26864 0.0
H512 H 0.05914 0.26802 0.25707 0.0
H513 H 0.98664 0.38831 0.30733 0.0
H514 H 0.95906 0.22054 0.22102 0.0
H515 H 0.97293 0.26757 0.19258 0.0
H516 H 0.02411 0.23419 0.21143 0.0
H517 H 0.90993 0.42525 0.29083 0.0
H518 H 0.88733 0.41224 0.25234 0.0
H519 H 0.8682 0.37244 0.28358 0.0
H520 H 0.83206 0.35118 0.16213 0.0
H521 H 0.78417 0.24617 0.23192 0.0
H522 H 0.95996 0.35681 0.18213 0.0
H523 H 0.9304 0.40748 0.20273 0.0
H524 H 0.91021 0.39314 0.16395 0.0
H525 H 0.90207 0.22822 0.26691 0.0
H526 H 0.83485 0.22533 0.27438 0.0
H527 H 0.87205 0.27827 0.28792 0.0
C528 C 0.21322 0.3296 0.70123 0.0
C529 C 0.25004 0.2994 0.71587 0.0
C530 C 0.20028 0.37792 0.71274 0.0
C531 C 0.22414 0.39631 0.73982 0.0
C532 C 0.2612 0.3659 0.75471 0.0
C533 C 0.27388 0.31812 0.74248 0.0
C534 C 0.16117 0.40934 0.69592 0.0
C535 C 0.28725 0.38365 0.78383 0.0
C536 C 0.23156 0.53495 0.76435 0.0
C537 C 0.19692 0.53605 0.78889 0.0
C538 C 0.2383 0.49071 0.74653 0.0
C539 C 0.20975 0.44656 0.75339 0.0
C540 C 0.17135 0.44915 0.77611 0.0
C541 C 0.16526 0.49383 0.79344 0.0
C542 C 0.27898 0.49002 0.72211 0.0
C543 C 0.1397 0.40331 0.78414 0.0
H544 H 0.19485 0.31572 0.6805 0.0
H545 H 0.30228 0.29516 0.754 0.0
H546 H 0.12847 0.41711 0.71127 0.0
H547 H 0.17764 0.44656 0.68943 0.0
H548 H 0.14704 0.39024 0.67475 0.0
H549 H 0.31518 0.35556 0.79262 0.0
H550 H 0.30724 0.41998 0.77953 0.0
H551 H 0.25864 0.39077 0.80206 0.0
H552 H 0.2563 0.56717 0.76057 0.0
H553 H 0.13808 0.49429 0.81216 0.0
H554 H 0.26518 0.4708 0.70094 0.0
H555 H 0.3122 0.46832 0.73071 0.0
H556 H 0.29179 0.52889 0.71603 0.0
H557 H 0.12485 0.38485 0.76299 0.0
H558 H 0.10723 0.41321 0.79929 0.0
H559 H 0.16376 0.37508 0.79628 0.0
C560 C 0.19756 0.77319 0.24346 0.0
C561 C 0.21816 0.74686 0.2183 0.0
C562 C 0.15058 0.75927 0.25618 0.0
C563 C 0.12282 0.71835 0.24324 0.0
C564 C 0.14302 0.692 0.21756 0.0
C565 C 0.19058 0.70628 0.20556 0.0
C566 C 0.13091 0.78812 0.2838 0.0
C567 C 0.11439 0.64876 0.20278 0.0
C568 C 0.02992 0.66075 0.30006 0.0
C569 C 0.98572 0.68907 0.29424 0.0
C570 C 0.07389 0.66725 0.28223 0.0
C571 C 0.0737 0.70248 0.25762 0.0
C572 C 0.02769 0.72711 0.24957 0.0
C573 C 0.98424 0.7202 0.268 0.0
C574 C 0.12182 0.6399 0.29166 0.0
C575 C 0.02538 0.76409 0.22308 0.0
H576 H 0.21849 0.80451 0.25351 0.0
H577 H 0.2059 0.68595 0.18595 0.0
H578 H 0.09333 0.80495 0.27844 0.0
H579 H 0.12564 0.76178 0.30348 0.0
H580 H 0.15695 0.81903 0.29109 0.0
H581 H 0.13432 0.63331 0.18228 0.0
H582 H 0.1091 0.61766 0.21968 0.0
H583 H 0.07605 0.66168 0.19567 0.0
H584 H 0.03148 0.63622 0.32008 0.0
H585 H 0.95045 0.7423 0.26319 0.0
H586 H 0.14843 0.66738 0.3024 0.0
H587 H 0.14109 0.62341 0.27128 0.0
H588 H 0.11426 0.60907 0.30848 0.0
H589 H 0.04452 0.79992 0.22984 0.0
H590 H 0.98566 0.77311 0.21643 0.0
H591 H 0.04557 0.74876 0.20268 0.0
C592 C 0.7916 0.47856 0.76806 0.0
C593 C 0.82291 0.47967 0.79428 0.0
C594 C 0.78457 0.52226 0.74982 0.0
C595 C 0.80919 0.56816 0.75807 0.0
C596 C 0.84458 0.568 0.78265 0.0
C597 C 0.8513 0.52376 0.80024 0.0
C598 C 0.74749 0.52031 0.72331 0.0
C599 C 0.87186 0.61583 0.79232 0.0
C600 C 0.80515 0.68582 0.70662 0.0
C601 C 0.76449 0.71314 0.71941 0.0
C602 C 0.81951 0.63808 0.7184 0.0
C603 C 0.7932 0.61747 0.74393 0.0
C604 C 0.75224 0.645 0.75694 0.0
C605 C 0.7382 0.69216 0.74441 0.0
C606 C 0.86273 0.60965 0.70351 0.0
C607 C 0.72349 0.62491 0.78443 0.0
H608 H 0.76949 0.44484 0.76312 0.0
H609 H 0.876 0.52504 0.82024 0.0
H610 H 0.71165 0.53929 0.73016 0.0
H611 H 0.76268 0.54085 0.70302 0.0
H612 H 0.73856 0.48067 0.71645 0.0
H613 H 0.90274 0.60806 0.80913 0.0
H614 H 0.88826 0.6354 0.77205 0.0
H615 H 0.84437 0.64228 0.80316 0.0
H616 H 0.82542 0.70145 0.68711 0.0
H617 H 0.70681 0.71291 0.75448 0.0
H618 H 0.8498 0.57143 0.69616 0.0
H619 H 0.89385 0.60402 0.72041 0.0
H620 H 0.87814 0.62992 0.68315 0.0
H621 H 0.70662 0.58745 0.77885 0.0
H622 H 0.69263 0.6509 0.79186 0.0
H623 H 0.74988 0.61925 0.80409 0.0
loop_
_geom_bond_atom_site_label_1
_geom_bond_atom_site_label_2
_geom_bond_distance
_geom_bond_site_symmetry_2
_ccdc_geom_bond_type
Zn0 O3 2.031 . S
Zn0 O5 2.049 . S
Zn0 O10 2.067 . S
Zn1 O2 1.962 . S
Zn1 O4 1.986 . S
Zn1 O6 1.996 . S
Zn1 O9 1.943 . S
O2 Zn1 1.962 . S
O2 C7 1.254 . S
O3 Zn0 2.031 . S
O3 C7 1.269 . S
O4 Zn1 1.986 . S
O4 C11 1.262 . S
O5 Zn0 2.049 . S
O5 C13 1.260 . S
O6 Zn1 1.996 . S
O6 C13 1.257 . S
C7 O2 1.254 . S
C7 O3 1.269 . S
C8 O9 1.249 . S
C8 O10 1.270 . S
O9 Zn1 1.943 . S
O9 C8 1.249 . S
O10 Zn0 2.067 . S
O10 C8 1.270 . S
C11 O4 1.262 . S
C11 O12 1.232 . S
O12 C11 1.232 . S
C13 O5 1.260 . S
C13 O6 1.257 . S
Zn14 O17 2.031 . S
Zn14 O19 2.049 . S
Zn14 O24 2.067 . S
Zn15 O16 1.962 . S
Zn15 O18 1.986 . S
Zn15 O20 1.996 . S
Zn15 O23 1.943 . S
O16 Zn15 1.962 . S
O16 C21 1.254 . S
O17 Zn14 2.031 . S
O17 C21 1.269 . S
O18 Zn15 1.986 . S
O18 C25 1.262 . S
O19 Zn14 2.049 . S
O19 C27 1.260 . S
O20 Zn15 1.996 . S
O20 C27 1.257 . S
C21 O16 1.254 . S
C21 O17 1.269 . S
C22 O23 1.249 . S
C22 O24 1.270 . S
O23 Zn15 1.943 . S
O23 C22 1.249 . S
O24 Zn14 2.067 . S
O24 C22 1.270 . S
C25 O18 1.262 . S
C25 O26 1.232 . S
O26 C25 1.232 . S
C27 O19 1.260 . S
C27 O20 1.257 . S
Zn28 O31 2.031 . S
Zn28 O33 2.049 . S
Zn28 O38 2.067 . S
Zn29 O30 1.962 . S
Zn29 O32 1.986 . S
Zn29 O34 1.996 . S
Zn29 O37 1.943 . S
O30 Zn29 1.962 . S
O30 C35 1.254 . S
O31 Zn28 2.031 . S
O31 C35 1.269 . S
O32 Zn29 1.986 . S
O32 C39 1.262 . S
O33 Zn28 2.049 . S
O33 C41 1.260 . S
O34 Zn29 1.996 . S
O34 C41 1.257 . S
C35 O30 1.254 . S
C35 O31 1.269 . S
C36 O37 1.249 . S
C36 O38 1.270 . S
O37 Zn29 1.943 . S
O37 C36 1.249 . S
O38 Zn28 2.067 . S
O38 C36 1.270 . S
C39 O32 1.262 . S
C39 O40 1.232 . S
O40 C39 1.232 . S
C41 O33 1.260 . S
C41 O34 1.257 . S
Zn42 O45 2.031 . S
Zn42 O47 2.049 . S
Zn42 O52 2.067 . S
Zn43 O44 1.962 . S
Zn43 O46 1.986 . S
Zn43 O48 1.996 . S
Zn43 O51 1.943 . S
O44 Zn43 1.962 . S
O44 C49 1.254 . S
O45 Zn42 2.031 . S
O45 C49 1.269 . S
O46 Zn43 1.986 . S
O46 C53 1.262 . S
O47 Zn42 2.049 . S
O47 C55 1.260 . S
O48 Zn43 1.996 . S
O48 C55 1.257 . S
C49 O44 1.254 . S
C49 O45 1.269 . S
C50 O51 1.249 . S
C50 O52 1.270 . S
O51 Zn43 1.943 . S
O51 C50 1.249 . S
O52 Zn42 2.067 . S
O52 C50 1.270 . S
C53 O46 1.262 . S
C53 O54 1.232 . S
O54 C53 1.232 . S
C55 O47 1.260 . S
C55 O48 1.257 . S
Zn56 O59 2.031 . S
Zn56 O61 2.049 . S
Zn56 O66 2.067 . S
Zn57 O58 1.962 . S
Zn57 O60 1.986 . S
Zn57 O62 1.996 . S
Zn57 O65 1.943 . S
O58 Zn57 1.962 . S
O58 C63 1.254 . S
O59 Zn56 2.031 . S
O59 C63 1.269 . S
O60 Zn57 1.986 . S
O60 C67 1.262 . S
O61 Zn56 2.049 . S
O61 C69 1.260 . S
O62 Zn57 1.996 . S
O62 C69 1.257 . S
C63 O58 1.254 . S
C63 O59 1.269 . S
C64 O65 1.249 . S
C64 O66 1.270 . S
O65 Zn57 1.943 . S
O65 C64 1.249 . S
O66 Zn56 2.067 . S
O66 C64 1.270 . S
C67 O60 1.262 . S
C67 O68 1.232 . S
O68 C67 1.232 . S
C69 O61 1.260 . S
C69 O62 1.257 . S
Zn70 O73 2.031 . S
Zn70 O75 2.049 . S
Zn70 O80 2.067 . S
Zn71 O72 1.962 . S
Zn71 O74 1.986 . S
Zn71 O76 1.996 . S
Zn71 O79 1.943 . S
O72 Zn71 1.962 . S
O72 C77 1.254 . S
O73 Zn70 2.031 . S
O73 C77 1.269 . S
O74 Zn71 1.986 . S
O74 C81 1.262 . S
O75 Zn70 2.049 . S
O75 C83 1.260 . S
O76 Zn71 1.996 . S
O76 C83 1.257 . S
C77 O72 1.254 . S
C77 O73 1.269 . S
C78 O79 1.249 . S
C78 O80 1.270 . S
O79 Zn71 1.943 . S
O79 C78 1.249 . S
O80 Zn70 2.067 . S
O80 C78 1.270 . S
C81 O74 1.262 . S
C81 O82 1.232 . S
O82 C81 1.232 . S
C83 O75 1.260 . S
C83 O76 1.257 . S
Zn84 O87 2.031 . S
Zn84 O89 2.049 . S
Zn84 O94 2.067 . S
Zn85 O86 1.962 . S
Zn85 O88 1.986 . S
Zn85 O90 1.996 . S
Zn85 O93 1.943 . S
O86 Zn85 1.962 . S
O86 C91 1.254 . S
O87 Zn84 2.031 . S
O87 C91 1.269 . S
O88 Zn85 1.986 . S
O88 C95 1.262 . S
O89 Zn84 2.049 . S
O89 C97 1.260 . S
O90 Zn85 1.996 . S
O90 C97 1.257 . S
C91 O86 1.254 . S
C91 O87 1.269 . S
C92 O93 1.249 . S
C92 O94 1.270 . S
O93 Zn85 1.943 . S
O93 C92 1.249 . S
O94 Zn84 2.067 . S
O94 C92 1.270 . S
C95 O88 1.262 . S
C95 O96 1.232 . S
O96 C95 1.232 . S
C97 O89 1.260 . S
C97 O90 1.257 . S
Zn98 O101 2.031 . S
Zn98 O103 2.049 . S
Zn98 O108 2.067 . S
Zn99 O100 1.962 . S
Zn99 O102 1.986 . S
Zn99 O104 1.996 . S
Zn99 O107 1.943 . S
O100 Zn99 1.962 . S
O100 C105 1.254 . S
O101 Zn98 2.031 . S
O101 C105 1.269 . S
O102 Zn99 1.986 . S
O102 C109 1.262 . S
O103 Zn98 2.049 . S
O103 C111 1.260 . S
O104 Zn99 1.996 . S
O104 C111 1.257 . S
C105 O100 1.254 . S
C105 O101 1.269 . S
C106 O107 1.249 . S
C106 O108 1.270 . S
O107 Zn99 1.943 . S
O107 C106 1.249 . S
O108 Zn98 2.067 . S
O108 C106 1.270 . S
C109 O102 1.262 . S
C109 O110 1.232 . S
O110 C109 1.232 . S
C111 O103 1.260 . S
C111 O104 1.257 . S
C112 C113 1.391 . S
C112 C114 1.394 . S
C112 H128 0.931 . S
C113 C112 1.391 . S
C113 C117 1.376 . S
C114 C112 1.394 . S
C114 C115 1.369 . S
C114 C118 1.531 1_455 S
C115 C114 1.369 . S
C115 C116 1.410 . S
C115 C123 1.503 1_445 S
C116 C115 1.410 . S
C116 C117 1.392 . S
C116 C119 1.511 1_545 S
C117 C113 1.376 . S
C117 C116 1.392 . S
C117 H129 0.929 . S
C118 C114 1.531 1_655 S
C118 H130 0.960 . S
C118 H131 0.962 . S
C118 H132 0.960 . S
C119 C116 1.511 1_565 S
C119 H133 0.961 . S
C119 H134 0.961 . S
C119 H135 0.961 . S
C120 C121 1.370 . S
C120 C122 1.363 . S
C120 H136 0.931 . S
C121 C120 1.370 . S
C121 C125 1.408 . S
C122 C120 1.363 . S
C122 C123 1.370 . S
C122 C126 1.524 1_565 S
C123 C115 1.503 1_665 S
C123 C122 1.370 . S
C123 C124 1.403 . S
C124 C123 1.403 . S
C124 C125 1.404 . S
C124 C127 1.539 1_655 S
C125 C121 1.408 . S
C125 C124 1.404 . S
C125 H137 0.930 . S
C126 C122 1.524 1_545 S
C126 H138 0.956 . S
C126 H139 0.961 . S
C126 H140 0.961 . S
C127 C124 1.539 1_455 S
C127 H141 0.958 . S
C127 H142 0.961 . S
C127 H143 0.960 . S
H128 C112 0.931 . S
H129 C117 0.929 . S
H130 C118 0.960 . S
H131 C118 0.962 . S
H132 C118 0.960 . S
H133 C119 0.961 . S
H134 C119 0.961 . S
H135 C119 0.961 . S
H136 C120 0.931 . S
H137 C125 0.930 . S
H138 C126 0.956 . S
H139 C126 0.961 . S
H140 C126 0.961 . S
H141 C127 0.958 . S
H142 C127 0.961 . S
H143 C127 0.960 . S
C144 C145 1.391 . S
C144 C146 1.394 . S
C144 H160 0.931 . S
C145 C144 1.391 . S
C145 C149 1.376 . S
C146 C144 1.394 . S
C146 C147 1.369 . S
C146 C150 1.531 . S
C147 C146 1.369 . S
C147 C148 1.410 . S
C147 C155 1.503 . S
C148 C147 1.410 . S
C148 C149 1.392 . S
C148 C151 1.511 . S
C149 C145 1.376 . S
C149 C148 1.392 . S
C149 H161 0.929 . S
C150 C146 1.531 . S
C150 H162 0.960 . S
C150 H163 0.962 . S
C150 H164 0.960 . S
C151 C148 1.511 . S
C151 H165 0.961 . S
C151 H166 0.961 . S
C151 H167 0.961 . S
C152 C153 1.370 . S
C152 C154 1.363 . S
C152 H168 0.931 . S
C153 C152 1.370 . S
C153 C157 1.408 . S
C154 C152 1.363 . S
C154 C155 1.370 . S
C154 C158 1.524 . S
C155 C147 1.503 . S
C155 C154 1.370 . S
C155 C156 1.403 . S
C156 C155 1.403 . S
C156 C157 1.404 . S
C156 C159 1.539 . S
C157 C153 1.408 . S
C157 C156 1.404 . S
C157 H169 0.930 . S
C158 C154 1.524 . S
C158 H170 0.956 . S
C158 H171 0.961 . S
C158 H172 0.961 . S
C159 C156 1.539 . S
C159 H173 0.958 . S
C159 H174 0.961 . S
C159 H175 0.960 . S
H160 C144 0.931 . S
H161 C149 0.929 . S
H162 C150 0.960 . S
H163 C150 0.962 . S
H164 C150 0.960 . S
H165 C151 0.961 . S
H166 C151 0.961 . S
H167 C151 0.961 . S
H168 C152 0.931 . S
H169 C157 0.930 . S
H170 C158 0.956 . S
H171 C158 0.961 . S
H172 C158 0.961 . S
H173 C159 0.958 . S
H174 C159 0.961 . S
H175 C159 0.960 . S
C176 C177 1.391 . S
C176 C178 1.394 . S
C176 H192 0.931 . S
C177 C176 1.391 . S
C177 C181 1.376 . S
C178 C176 1.394 . S
C178 C179 1.369 . S
C178 C182 1.531 . S
C179 C178 1.369 . S
C179 C180 1.410 . S
C179 C187 1.503 . S
C180 C179 1.410 . S
C180 C181 1.392 . S
C180 C183 1.511 . S
C181 C177 1.376 . S
C181 C180 1.392 . S
C181 H193 0.929 . S
C182 C178 1.531 . S
C182 H194 0.960 . S
C182 H195 0.962 . S
C182 H196 0.960 . S
C183 C180 1.511 . S
C183 H197 0.961 . S
C183 H198 0.961 . S
C183 H199 0.961 . S
C184 C185 1.370 . S
C184 C186 1.363 . S
C184 H200 0.931 . S
C185 C184 1.370 . S
C185 C189 1.408 . S
C186 C184 1.363 . S
C186 C187 1.370 . S
C186 C190 1.524 . S
C187 C179 1.503 . S
C187 C186 1.370 . S
C187 C188 1.403 . S
C188 C187 1.403 . S
C188 C189 1.404 . S
C188 C191 1.539 . S
C189 C185 1.408 . S
C189 C188 1.404 . S
C189 H201 0.930 . S
C190 C186 1.524 . S
C190 H202 0.956 . S
C190 H203 0.961 . S
C190 H204 0.961 . S
C191 C188 1.539 . S
C191 H205 0.958 . S
C191 H206 0.961 . S
C191 H207 0.960 . S
H192 C176 0.931 . S
H193 C181 0.929 . S
H194 C182 0.960 . S
H195 C182 0.962 . S
H196 C182 0.960 . S
H197 C183 0.961 . S
H198 C183 0.961 . S
H199 C183 0.961 . S
H200 C184 0.931 . S
H201 C189 0.930 . S
H202 C190 0.956 . S
H203 C190 0.961 . S
H204 C190 0.961 . S
H205 C191 0.958 . S
H206 C191 0.961 . S
H207 C191 0.960 . S
C208 C209 1.391 . S
C208 C210 1.394 . S
C208 H224 0.931 . S
C209 C208 1.391 . S
C209 C213 1.376 . S
C210 C208 1.394 . S
C210 C211 1.369 . S
C210 C214 1.531 1_455 S
C211 C210 1.369 . S
C211 C212 1.410 1_545 S
C211 C219 1.503 1_445 S
C212 C211 1.410 1_565 S
C212 C213 1.392 1_565 S
C212 C215 1.511 . S
C213 C209 1.376 . S
C213 C212 1.392 1_545 S
C213 H225 0.929 . S
C214 C210 1.531 1_655 S
C214 H226 0.960 . S
C214 H227 0.962 . S
C214 H228 0.960 . S
C215 C212 1.511 . S
C215 H229 0.961 . S
C215 H230 0.961 . S
C215 H231 0.961 . S
C216 C217 1.370 . S
C216 C218 1.363 . S
C216 H232 0.931 . S
C217 C216 1.370 . S
C217 C221 1.408 . S
C218 C216 1.363 . S
C218 C219 1.370 . S
C218 C222 1.521 1_565 S
C219 C211 1.503 1_665 S
C219 C218 1.370 . S
C219 C220 1.403 . S
C220 C219 1.403 . S
C220 C221 1.404 . S
C220 C223 1.539 . S
C221 C217 1.408 . S
C221 C220 1.404 . S
C221 H233 0.930 . S
C222 C218 1.521 1_545 S
C222 H234 0.963 . S
C222 H235 0.959 1_645 S
C222 H236 0.958 1_545 S
C223 C220 1.539 . S
C223 H237 0.958 . S
C223 H238 0.961 . S
C223 H239 0.960 1_655 S
H224 C208 0.931 . S
H225 C213 0.929 . S
H226 C214 0.960 . S
H227 C214 0.962 . S
H228 C214 0.960 . S
H229 C215 0.961 . S
H230 C215 0.961 . S
H231 C215 0.961 . S
H232 C216 0.931 . S
H233 C221 0.930 . S
H234 C222 0.963 . S
H235 C222 0.959 1_465 S
H236 C222 0.958 1_565 S
H237 C223 0.958 . S
H238 C223 0.961 . S
H239 C223 0.960 1_455 S
C240 C241 1.391 . S
C240 C242 1.394 . S
C240 H256 0.931 . S
C241 C240 1.391 . S
C241 C245 1.376 . S
C242 C240 1.394 . S
C242 C243 1.369 . S
C242 C246 1.531 . S
C243 C242 1.369 . S
C243 C244 1.410 . S
C243 C251 1.503 . S
C244 C243 1.410 . S
C244 C245 1.392 . S
C244 C247 1.511 . S
C245 C241 1.376 . S
C245 C244 1.392 . S
C245 H257 0.929 . S
C246 C242 1.531 . S
C246 H258 0.960 . S
C246 H259 0.962 . S
C246 H260 0.960 . S
C247 C244 1.511 . S
C247 H261 0.961 . S
C247 H262 0.961 . S
C247 H263 0.961 . S
C248 C249 1.370 . S
C248 C250 1.363 . S
C248 H264 0.931 . S
C249 C248 1.370 . S
C249 C253 1.408 . S
C250 C248 1.363 . S
C250 C251 1.370 . S
C250 C254 1.524 . S
C251 C243 1.503 . S
C251 C250 1.370 . S
C251 C252 1.403 . S
C252 C251 1.403 . S
C252 C253 1.404 . S
C252 C255 1.539 . S
C253 C249 1.408 . S
C253 C252 1.404 . S
C253 H265 0.930 . S
C254 C250 1.524 . S
C254 H266 0.956 . S
C254 H267 0.961 . S
C254 H268 0.961 . S
C255 C252 1.539 . S
C255 H269 0.958 . S
C255 H270 0.961 . S
C255 H271 0.960 . S
H256 C240 0.931 . S
H257 C245 0.929 . S
H258 C246 0.960 . S
H259 C246 0.962 . S
H260 C246 0.960 . S
H261 C247 0.961 . S
H262 C247 0.961 . S
H263 C247 0.961 . S
H264 C248 0.931 . S
H265 C253 0.930 . S
H266 C254 0.956 . S
H267 C254 0.961 . S
H268 C254 0.961 . S
H269 C255 0.958 . S
H270 C255 0.961 . S
H271 C255 0.960 . S
C272 C273 1.391 . S
C272 C274 1.394 . S
C272 H288 0.931 . S
C273 C272 1.391 . S
C273 C277 1.376 . S
C274 C272 1.394 . S
C274 C275 1.369 . S
C274 C278 1.531 1_556 S
C275 C274 1.369 . S
C275 C276 1.410 . S
C275 C283 1.503 1_556 S
C276 C275 1.410 . S
C276 C277 1.392 . S
C276 C279 1.511 . S
C277 C273 1.376 . S
C277 C276 1.392 . S
C277 H289 0.929 . S
C278 C274 1.531 1_554 S
C278 H290 0.960 . S
C278 H291 0.962 . S
C278 H292 0.969 . S
C279 C276 1.511 . S
C279 H293 0.961 . S
C279 H294 0.961 . S
C279 H295 0.961 . S
C280 C281 1.370 . S
C280 C282 1.363 . S
C280 H296 0.931 . S
C281 C280 1.370 . S
C281 C285 1.408 . S
C282 C280 1.363 . S
C282 C283 1.370 . S
C282 C286 1.524 . S
C283 C275 1.503 1_554 S
C283 C282 1.370 . S
C283 C284 1.403 . S
C284 C283 1.403 . S
C284 C285 1.404 . S
C284 C287 1.539 . S
C285 C281 1.408 . S
C285 C284 1.404 . S
C285 H297 0.930 . S
C286 C282 1.524 . S
C286 H298 0.956 . S
C286 H299 0.961 1_554 S
C286 H300 0.961 . S
C287 C284 1.539 . S
C287 H301 0.958 . S
C287 H302 0.961 . S
C287 H303 0.960 . S
H288 C272 0.931 . S
H289 C277 0.929 . S
H290 C278 0.960 . S
H291 C278 0.962 . S
H292 C278 0.969 . S
H293 C279 0.961 . S
H294 C279 0.961 . S
H295 C279 0.961 . S
H296 C280 0.931 . S
H297 C285 0.930 . S
H298 C286 0.956 . S
H299 C286 0.961 1_556 S
H300 C286 0.961 . S
H301 C287 0.958 . S
H302 C287 0.961 . S
H303 C287 0.960 . S
C304 C305 1.391 . S
C304 C306 1.394 . S
C304 H320 0.931 . S
C305 C304 1.391 . S
C305 C309 1.376 . S
C306 C304 1.394 . S
C306 C307 1.369 . S
C306 C310 1.531 . S
C307 C306 1.369 . S
C307 C308 1.410 . S
C307 C315 1.503 . S
C308 C307 1.410 . S
C308 C309 1.392 . S
C308 C311 1.511 . S
C309 C305 1.376 . S
C309 C308 1.392 . S
C309 H321 0.929 . S
C310 C306 1.531 . S
C310 H322 0.960 . S
C310 H323 0.962 . S
C310 H324 0.960 . S
C311 C308 1.511 . S
C311 H325 0.961 . S
C311 H326 0.961 . S
C311 H327 0.961 . S
C312 C313 1.370 . S
C312 C314 1.363 . S
C312 H328 0.931 . S
C313 C312 1.370 . S
C313 C317 1.408 . S
C314 C312 1.363 . S
C314 C315 1.370 . S
C314 C318 1.524 . S
C315 C307 1.503 . S
C315 C314 1.370 . S
C315 C316 1.403 . S
C316 C315 1.403 . S
C316 C317 1.404 . S
C316 C319 1.539 . S
C317 C313 1.408 . S
C317 C316 1.404 . S
C317 H329 0.930 . S
C318 C314 1.524 . S
C318 H330 0.956 . S
C318 H331 0.961 . S
C318 H332 0.961 . S
C319 C316 1.539 . S
C319 H333 0.958 . S
C319 H334 0.961 . S
C319 H335 0.960 . S
H320 C304 0.931 . S
H321 C309 0.929 . S
H322 C310 0.960 . S
H323 C310 0.962 . S
H324 C310 0.960 . S
H325 C311 0.961 . S
H326 C311 0.961 . S
H327 C311 0.961 . S
H328 C312 0.931 . S
H329 C317 0.930 . S
H330 C318 0.956 . S
H331 C318 0.961 . S
H332 C318 0.961 . S
H333 C319 0.958 . S
H334 C319 0.961 . S
H335 C319 0.960 . S
C336 C337 1.391 . S
C336 C338 1.394 . S
C336 H352 0.931 . S
C337 C336 1.391 . S
C337 C341 1.376 . S
C338 C336 1.394 . S
C338 C339 1.369 . S
C338 C342 1.531 1_556 S
C339 C338 1.369 . S
C339 C340 1.410 . S
C339 C347 1.503 1_556 S
C340 C339 1.410 . S
C340 C341 1.392 . S
C340 C343 1.511 . S
C341 C337 1.376 . S
C341 C340 1.392 . S
C341 H353 0.929 . S
C342 C338 1.531 1_554 S
C342 H354 0.960 . S
C342 H355 0.962 . S
C342 H356 0.969 . S
C343 C340 1.511 . S
C343 H357 0.961 . S
C343 H358 0.961 . S
C343 H359 0.961 . S
C344 C345 1.370 . S
C344 C346 1.363 . S
C344 H360 0.931 . S
C345 C344 1.370 . S
C345 C349 1.408 . S
C346 C344 1.363 . S
C346 C347 1.370 . S
C346 C350 1.524 . S
C347 C339 1.503 1_554 S
C347 C346 1.370 . S
C347 C348 1.403 . S
C348 C347 1.403 . S
C348 C349 1.404 . S
C348 C351 1.539 . S
C349 C345 1.408 . S
C349 C348 1.404 . S
C349 H361 0.930 . S
C350 C346 1.524 . S
C350 H362 0.956 . S
C350 H363 0.961 1_554 S
C350 H364 0.961 . S
C351 C348 1.539 . S
C351 H365 0.958 . S
C351 H366 0.961 . S
C351 H367 0.960 . S
H352 C336 0.931 . S
H353 C341 0.929 . S
H354 C342 0.960 . S
H355 C342 0.962 . S
H356 C342 0.969 . S
H357 C343 0.961 . S
H358 C343 0.961 . S
H359 C343 0.961 . S
H360 C344 0.931 . S
H361 C349 0.930 . S
H362 C350 0.956 . S
H363 C350 0.961 1_556 S
H364 C350 0.961 . S
H365 C351 0.958 . S
H366 C351 0.961 . S
H367 C351 0.960 . S
C368 C369 1.391 . S
C368 C370 1.394 . S
C368 H384 0.931 . S
C369 C368 1.391 . S
C369 C373 1.376 . S
C370 C368 1.394 . S
C370 C371 1.369 . S
C370 C374 1.531 . S
C371 C370 1.369 . S
C371 C372 1.410 . S
C371 C379 1.503 . S
C372 C371 1.410 . S
C372 C373 1.392 . S
C372 C375 1.511 . S
C373 C369 1.376 . S
C373 C372 1.392 . S
C373 H385 0.929 . S
C374 C370 1.531 . S
C374 H386 0.960 . S
C374 H387 0.962 . S
C374 H388 0.960 . S
C375 C372 1.511 . S
C375 H389 0.961 . S
C375 H390 0.961 . S
C375 H391 0.961 . S
C376 C377 1.370 . S
C376 C378 1.363 . S
C376 H392 0.931 . S
C377 C376 1.370 . S
C377 C381 1.408 . S
C378 C376 1.363 . S
C378 C379 1.370 . S
C378 C382 1.524 . S
C379 C371 1.503 . S
C379 C378 1.370 . S
C379 C380 1.403 . S
C380 C379 1.403 . S
C380 C381 1.404 . S
C380 C383 1.539 . S
C381 C377 1.408 . S
C381 C380 1.404 . S
C381 H393 0.930 . S
C382 C378 1.524 . S
C382 H394 0.956 . S
C382 H395 0.961 . S
C382 H396 0.961 . S
C383 C380 1.539 . S
C383 H397 0.958 . S
C383 H398 0.961 . S
C383 H399 0.960 . S
H384 C368 0.931 . S
H385 C373 0.929 . S
H386 C374 0.960 . S
H387 C374 0.962 . S
H388 C374 0.960 . S
H389 C375 0.961 . S
H390 C375 0.961 . S
H391 C375 0.961 . S
H392 C376 0.931 . S
H393 C381 0.930 . S
H394 C382 0.956 . S
H395 C382 0.961 . S
H396 C382 0.961 . S
H397 C383 0.958 . S
H398 C383 0.961 . S
H399 C383 0.960 . S
C400 C401 1.391 . S
C400 C402 1.394 . S
C400 H416 0.931 . S
C401 C400 1.391 . S
C401 C405 1.376 . S
C402 C400 1.394 . S
C402 C403 1.369 . S
C402 C406 1.531 . S
C403 C402 1.369 . S
C403 C404 1.410 . S
C403 C411 1.503 . S
C404 C403 1.410 . S
C404 C405 1.392 . S
C404 C407 1.511 . S
C405 C401 1.376 . S
C405 C404 1.392 . S
C405 H417 0.929 . S
C406 C402 1.531 . S
C406 H418 0.960 . S
C406 H419 0.962 . S
C406 H420 0.960 . S
C407 C404 1.511 . S
C407 H421 0.961 . S
C407 H422 0.961 . S
C407 H423 0.961 . S
C408 C409 1.370 . S
C408 C410 1.363 . S
C408 H424 0.931 . S
C409 C408 1.370 . S
C409 C413 1.408 . S
C410 C408 1.363 . S
C410 C411 1.370 . S
C410 C414 1.524 . S
C411 C403 1.503 . S
C411 C410 1.370 . S
C411 C412 1.403 . S
C412 C411 1.403 . S
C412 C413 1.404 . S
C412 C415 1.539 . S
C413 C409 1.408 . S
C413 C412 1.404 . S
C413 H425 0.930 1_565 S
C414 C410 1.524 . S
C414 H426 0.956 . S
C414 H427 0.961 . S
C414 H428 0.961 . S
C415 C412 1.539 . S
C415 H429 0.958 . S
C415 H430 0.961 . S
C415 H431 0.960 . S
H416 C400 0.931 . S
H417 C405 0.929 . S
H418 C406 0.960 . S
H419 C406 0.962 . S
H420 C406 0.960 . S
H421 C407 0.961 . S
H422 C407 0.961 . S
H423 C407 0.961 . S
H424 C408 0.931 . S
H425 C413 0.930 1_545 S
H426 C414 0.956 . S
H427 C414 0.961 . S
H428 C414 0.961 . S
H429 C415 0.958 . S
H430 C415 0.961 . S
H431 C415 0.960 . S
C432 C433 1.391 . S
C432 C434 1.394 . S
C432 H448 0.931 . S
C433 C432 1.391 . S
C433 C437 1.376 . S
C434 C432 1.394 . S
C434 C435 1.369 . S
C434 C438 1.531 . S
C435 C434 1.369 . S
C435 C436 1.410 . S
C435 C443 1.503 . S
C436 C435 1.410 . S
C436 C437 1.392 . S
C436 C439 1.511 . S
C437 C433 1.376 . S
C437 C436 1.392 . S
C437 H449 0.929 . S
C438 C434 1.531 . S
C438 H450 0.960 . S
C438 H451 0.962 . S
C438 H452 0.960 . S
C439 C436 1.511 . S
C439 H453 0.961 . S
C439 H454 0.961 . S
C439 H455 0.961 . S
C440 C441 1.370 . S
C440 C442 1.363 . S
C440 H456 0.931 . S
C441 C440 1.370 . S
C441 C445 1.408 . S
C442 C440 1.363 . S
C442 C443 1.370 . S
C442 C446 1.524 . S
C443 C435 1.503 . S
C443 C442 1.370 . S
C443 C444 1.403 . S
C444 C443 1.403 . S
C444 C445 1.404 . S
C444 C447 1.539 . S
C445 C441 1.408 . S
C445 C444 1.404 . S
C445 H457 0.930 . S
C446 C442 1.524 . S
C446 H458 0.956 . S
C446 H459 0.961 . S
C446 H460 0.961 . S
C447 C444 1.539 . S
C447 H461 0.958 . S
C447 H462 0.961 . S
C447 H463 0.960 . S
H448 C432 0.931 . S
H449 C437 0.929 . S
H450 C438 0.960 . S
H451 C438 0.962 . S
H452 C438 0.960 . S
H453 C439 0.961 . S
H454 C439 0.961 . S
H455 C439 0.961 . S
H456 C440 0.931 . S
H457 C445 0.930 . S
H458 C446 0.956 . S
H459 C446 0.961 . S
H460 C446 0.961 . S
H461 C447 0.958 . S
H462 C447 0.961 . S
H463 C447 0.960 . S
C464 C465 1.391 . S
C464 C466 1.394 . S
C464 H480 0.931 . S
C465 C464 1.391 . S
C465 C469 1.376 . S
C466 C464 1.394 . S
C466 C467 1.369 . S
C466 C470 1.531 . S
C467 C466 1.369 . S
C467 C468 1.410 . S
C467 C475 1.503 . S
C468 C467 1.410 . S
C468 C469 1.392 . S
C468 C471 1.511 . S
C469 C465 1.376 . S
C469 C468 1.392 . S
C469 H481 0.929 . S
C470 C466 1.531 . S
C470 H482 0.960 . S
C470 H483 0.962 . S
C470 H484 0.960 . S
C471 C468 1.511 . S
C471 H485 0.961 . S
C471 H486 0.961 . S
C471 H487 0.961 . S
C472 C473 1.370 . S
C472 C474 1.363 . S
C472 H488 0.931 1_545 S
C473 C472 1.370 . S
C473 C477 1.408 . S
C474 C472 1.363 . S
C474 C475 1.370 . S
C474 C478 1.524 . S
C475 C467 1.503 . S
C475 C474 1.370 . S
C475 C476 1.403 . S
C476 C475 1.403 . S
C476 C477 1.404 . S
C476 C479 1.539 . S
C477 C473 1.408 . S
C477 C476 1.404 . S
C477 H489 0.930 . S
C478 C474 1.524 . S
C478 H490 0.956 . S
C478 H491 0.961 . S
C478 H492 0.961 . S
C479 C476 1.539 . S
C479 H493 0.958 . S
C479 H494 0.961 . S
C479 H495 0.960 . S
H480 C464 0.931 . S
H481 C469 0.929 . S
H482 C470 0.960 . S
H483 C470 0.962 . S
H484 C470 0.960 . S
H485 C471 0.961 . S
H486 C471 0.961 . S
H487 C471 0.961 . S
H488 C472 0.931 1_565 S
H489 C477 0.930 . S
H490 C478 0.956 . S
H491 C478 0.961 . S
H492 C478 0.961 . S
H493 C479 0.958 . S
H494 C479 0.961 . S
H495 C479 0.960 . S
C496 C497 1.391 . S
C496 C498 1.394 . S
C496 H512 0.931 1_655 S
C497 C496 1.391 . S
C497 C501 1.376 . S
C498 C496 1.394 . S
C498 C499 1.369 . S
C498 C502 1.531 . S
C499 C498 1.369 . S
C499 C500 1.410 . S
C499 C507 1.503 . S
C500 C499 1.410 . S
C500 C501 1.392 . S
C500 C503 1.511 . S
C501 C497 1.376 . S
C501 C500 1.392 . S
C501 H513 0.929 . S
C502 C498 1.531 . S
C502 H514 0.960 . S
C502 H515 0.962 . S
C502 H516 0.960 . S
C503 C500 1.511 . S
C503 H517 0.961 . S
C503 H518 0.961 . S
C503 H519 0.961 . S
C504 C505 1.370 . S
C504 C506 1.363 . S
C504 H520 0.931 . S
C505 C504 1.370 . S
C505 C509 1.408 . S
C506 C504 1.363 . S
C506 C507 1.370 . S
C506 C510 1.524 . S
C507 C499 1.503 . S
C507 C506 1.370 . S
C507 C508 1.403 . S
C508 C507 1.403 . S
C508 C509 1.404 . S
C508 C511 1.539 . S
C509 C505 1.408 . S
C509 C508 1.404 . S
C509 H521 0.930 . S
C510 C506 1.524 . S
C510 H522 0.956 . S
C510 H523 0.961 . S
C510 H524 0.961 . S
C511 C508 1.539 . S
C511 H525 0.958 . S
C511 H526 0.961 . S
C511 H527 0.960 . S
H512 C496 0.931 1_455 S
H513 C501 0.929 . S
H514 C502 0.960 . S
H515 C502 0.962 . S
H516 C502 0.960 . S
H517 C503 0.961 . S
H518 C503 0.961 . S
H519 C503 0.961 . S
H520 C504 0.931 . S
H521 C509 0.930 . S
H522 C510 0.956 . S
H523 C510 0.961 . S
H524 C510 0.961 . S
H525 C511 0.958 . S
H526 C511 0.961 . S
H527 C511 0.960 . S
C528 C529 1.391 . S
C528 C530 1.394 . S
C528 H544 0.931 . S
C529 C528 1.391 . S
C529 C533 1.376 . S
C530 C528 1.394 . S
C530 C531 1.369 . S
C530 C534 1.531 . S
C531 C530 1.369 . S
C531 C532 1.410 . S
C531 C539 1.503 . S
C532 C531 1.410 . S
C532 C533 1.392 . S
C532 C535 1.511 . S
C533 C529 1.376 . S
C533 C532 1.392 . S
C533 H545 0.929 . S
C534 C530 1.531 . S
C534 H546 0.960 . S
C534 H547 0.962 . S
C534 H548 0.960 . S
C535 C532 1.511 . S
C535 H549 0.961 . S
C535 H550 0.961 . S
C535 H551 0.961 . S
C536 C537 1.370 . S
C536 C538 1.363 . S
C536 H552 0.931 . S
C537 C536 1.370 . S
C537 C541 1.408 . S
C538 C536 1.363 . S
C538 C539 1.370 . S
C538 C542 1.524 . S
C539 C531 1.503 . S
C539 C538 1.370 . S
C539 C540 1.403 . S
C540 C539 1.403 . S
C540 C541 1.404 . S
C540 C543 1.539 . S
C541 C537 1.408 . S
C541 C540 1.404 . S
C541 H553 0.930 . S
C542 C538 1.524 . S
C542 H554 0.956 . S
C542 H555 0.961 . S
C542 H556 0.961 . S
C543 C540 1.539 . S
C543 H557 0.958 . S
C543 H558 0.961 . S
C543 H559 0.960 . S
H544 C528 0.931 . S
H545 C533 0.929 . S
H546 C534 0.960 . S
H547 C534 0.962 . S
H548 C534 0.960 . S
H549 C535 0.961 . S
H550 C535 0.961 . S
H551 C535 0.961 . S
H552 C536 0.931 . S
H553 C541 0.930 . S
H554 C542 0.956 . S
H555 C542 0.961 . S
H556 C542 0.961 . S
H557 C543 0.958 . S
H558 C543 0.961 . S
H559 C543 0.960 . S
C560 C561 1.391 . S
C560 C562 1.394 . S
C560 H576 0.931 . S
C561 C560 1.391 . S
C561 C565 1.376 . S
C562 C560 1.394 . S
C562 C563 1.369 . S
C562 C566 1.531 . S
C563 C562 1.369 . S
C563 C564 1.410 . S
C563 C571 1.503 . S
C564 C563 1.410 . S
C564 C565 1.392 . S
C564 C567 1.511 . S
C565 C561 1.376 . S
C565 C564 1.392 . S
C565 H577 0.929 . S
C566 C562 1.531 . S
C566 H578 0.960 . S
C566 H579 0.962 . S
C566 H580 0.960 . S
C567 C564 1.511 . S
C567 H581 0.961 . S
C567 H582 0.961 . S
C567 H583 0.961 . S
C568 C569 1.370 . S
C568 C570 1.363 . S
C568 H584 0.931 . S
C569 C568 1.370 . S
C569 C573 1.408 . S
C570 C568 1.363 . S
C570 C571 1.370 . S
C570 C574 1.524 . S
C571 C563 1.503 . S
C571 C570 1.370 . S
C571 C572 1.403 . S
C572 C571 1.403 . S
C572 C573 1.404 . S
C572 C575 1.539 . S
C573 C569 1.408 . S
C573 C572 1.404 . S
C573 H585 0.930 . S
C574 C570 1.524 . S
C574 H586 0.956 . S
C574 H587 0.961 . S
C574 H588 0.961 . S
C575 C572 1.539 . S
C575 H589 0.958 . S
C575 H590 0.961 . S
C575 H591 0.960 . S
H576 C560 0.931 . S
H577 C565 0.929 . S
H578 C566 0.960 . S
H579 C566 0.962 . S
H580 C566 0.960 . S
H581 C567 0.961 . S
H582 C567 0.961 . S
H583 C567 0.961 . S
H584 C568 0.931 . S
H585 C573 0.930 . S
H586 C574 0.956 . S
H587 C574 0.961 . S
H588 C574 0.961 . S
H589 C575 0.958 . S
H590 C575 0.961 . S
H591 C575 0.960 . S
C592 C593 1.391 . S
C592 C594 1.394 . S
C592 H608 0.931 . S
C593 C592 1.391 . S
C593 C597 1.376 . S
C594 C592 1.394 . S
C594 C595 1.369 . S
C594 C598 1.531 . S
C595 C594 1.369 . S
C595 C596 1.410 . S
C595 C603 1.503 . S
C596 C595 1.410 . S
C596 C597 1.392 . S
C596 C599 1.511 . S
C597 C593 1.376 . S
C597 C596 1.392 . S
C597 H609 0.929 . S
C598 C594 1.531 . S
C598 H610 0.960 . S
C598 H611 0.962 . S
C598 H612 0.960 . S
C599 C596 1.511 . S
C599 H613 0.961 . S
C599 H614 0.961 . S
C599 H615 0.961 . S
C600 C601 1.370 . S
C600 C602 1.363 . S
C600 H616 0.931 . S
C601 C600 1.370 . S
C601 C605 1.408 . S
C602 C600 1.363 . S
C602 C603 1.370 . S
C602 C606 1.524 . S
C603 C595 1.503 . S
C603 C602 1.370 . S
C603 C604 1.403 . S
C604 C603 1.403 . S
C604 C605 1.404 . S
C604 C607 1.539 . S
C605 C601 1.408 . S
C605 C604 1.404 . S
C605 H617 0.930 . S
C606 C602 1.524 . S
C606 H618 0.956 . S
C606 H619 0.961 . S
C606 H620 0.961 . S
C607 C604 1.539 . S
C607 H621 0.958 . S
C607 H622 0.961 . S
C607 H623 0.960 . S
H608 C592 0.931 . S
H609 C597 0.929 . S
H610 C598 0.960 . S
H611 C598 0.962 . S
H612 C598 0.960 . S
H613 C599 0.961 . S
H614 C599 0.961 . S
H615 C599 0.961 . S
H616 C600 0.931 . S
H617 C605 0.930 . S
H618 C606 0.956 . S
H619 C606 0.961 . S
H620 C606 0.961 . S
H621 C607 0.958 . S
H622 C607 0.961 . S
H623 C607 0.960 . S
C113 C8 0.661 . S
C121 C36 0.561 . S
C145 C22 0.659 . S
C153 C50 0.588 . S
C177 C64 0.509 . S
C185 C92 0.534 . S
C209 C78 0.479 . S
C217 C106 0.548 . S
C241 C13 1.444 . S
C249 C83 1.440 . S
C273 C27 1.380 . S
C281 C97 1.409 . S
C305 C111 1.380 . S
C313 C41 1.409 . S
C337 C55 1.380 . S
C345 C69 1.409 . S
C369 C63 1.460 . S
C377 C11 1.501 . S
C401 C25 1.501 . S
C409 C77 1.468 1_565 S
C433 C39 1.495 . S
C441 C91 1.448 . S
C465 C53 1.495 . S
C473 C105 1.447 1_545 S
C497 C7 1.421 1_655 S
C505 C67 1.506 . S
C529 C81 1.500 . S
C537 C21 1.469 . S
C561 C95 1.508 . S
C569 C35 1.447 1_455 S
C593 C49 1.429 . S
C601 C109 1.503 . S
