# Generated by pormake.
# Topology vmz, (8)-cn, num edge types: 1
# Building blocks:
#     Node 0, Type 0, BuildingBlock: TAGTUT_clean_sbu_3, # of connection points: 8
#     Node 1, Type 0, BuildingBlock: TAGTUT_clean_sbu_3, # of connection points: 8
#     Node 2, Type 0, BuildingBlock: TAGTUT_clean_sbu_3, # of connection points: 8
#     Node 3, Type 0, BuildingBlock: TAGTUT_clean_sbu_3, # of connection points: 8
#     Edge 4, Type (0, 0), BuildingBlock: EZIPEK_clean_linker_0, # of connection points: 2
#     Edge 5, Type (0, 0), BuildingBlock: EZIPEK_clean_linker_0, # of connection points: 2
#     Edge 6, Type (0, 0), BuildingBlock: EZIPEK_clean_linker_0, # of connection points: 2
#     Edge 7, Type (0, 0), BuildingBlock: EZIPEK_clean_linker_0, # of connection points: 2
#     Edge 8, Type (0, 0), BuildingBlock: EZIPEK_clean_linker_0, # of connection points: 2
#     Edge 9, Type (0, 0), BuildingBlock: EZIPEK_clean_linker_0, # of connection points: 2
#     Edge 10, Type (0, 0), BuildingBlock: EZIPEK_clean_linker_0, # of connection points: 2
#     Edge 11, Type (0, 0), BuildingBlock: EZIPEK_clean_linker_0, # of connection points: 2
#     Edge 12, Type (0, 0), BuildingBlock: EZIPEK_clean_linker_0, # of connection points: 2
#     Edge 13, Type (0, 0), BuildingBlock: EZIPEK_clean_linker_0, # of connection points: 2
#     Edge 14, Type (0, 0), BuildingBlock: EZIPEK_clean_linker_0, # of connection points: 2
#     Edge 15, Type (0, 0), BuildingBlock: EZIPEK_clean_linker_0, # of connection points: 2
#     Edge 16, Type (0, 0), BuildingBlock: EZIPEK_clean_linker_0, # of connection points: 2
#     Edge 17, Type (0, 0), BuildingBlock: EZIPEK_clean_linker_0, # of connection points: 2
#     Edge 18, Type (0, 0), BuildingBlock: EZIPEK_clean_linker_0, # of connection points: 2
#     Edge 19, Type (0, 0), BuildingBlock: EZIPEK_clean_linker_0, # of connection points: 2
# Relax obj value: 0.205
# Max RMSD: 0.273
# Mean RMSD: 0.271
data_MOF--net-vmz--node1-TAGTUT_clean_sbu_3--edge1-EZIPEK_clean_linker_0
_symmetry_space_group_name_H-M    P1
_symmetry_Int_Tables_number       1
_symmetry_cell_setting            triclinic
loop_
_symmetry_equiv_pos_as_xyz
'x, y, z'
_cell_length_a     18.816018
_cell_length_b     14.572783
_cell_length_c     25.301384
_cell_angle_alpha  89.683882
_cell_angle_beta   98.980503
_cell_angle_gamma 90.679111
loop_
_atom_site_label
_atom_site_type_symbol
_atom_site_fract_x
_atom_site_fract_y
_atom_site_fract_z
_atom_type_partial_charge
C0 C 0.13197 0.13804 0.16413 0.0
C1 C 0.17172 0.39671 0.02997 0.0
C2 C 0.21535 0.17968 0.92199 0.0
Mg3 Mg 0.18582 0.93004 0.16689 0.0
Mg4 Mg 0.35007 0.87893 0.14724 0.0
O5 O 0.26797 0.94486 0.12511 0.0
Mg6 Mg 0.25718 0.07519 0.1004 0.0
O7 O 0.23262 0.20226 0.07318 0.0
Mg8 Mg 0.1322 0.18148 0.03429 0.0
Mg9 Mg 0.29263 0.24886 0.02783 0.0
C10 C 0.39786 0.00274 0.05491 0.0
O11 O 0.34947 0.14489 0.15282 0.0
O12 O 0.19447 0.77464 0.15864 0.0
O13 O 0.38834 0.2276 0.08648 0.0
O14 O 0.26379 0.93371 0.24742 0.0
O15 O 0.30115 0.74797 0.13202 0.0
O16 O 0.37489 0.91034 0.22957 0.0
O17 O 0.16385 0.03053 0.04411 0.0
O18 O 0.1097 0.92443 0.08704 0.0
C19 C 0.11558 0.97068 0.04508 0.0
C20 C 0.23785 0.72272 0.13867 0.0
O21 O 0.34008 0.05024 0.04611 0.0
O22 O 0.1233 0.33469 0.03049 0.0
O23 O 0.41001 0.9402 0.09092 0.0
O24 O 0.15953 0.18607 0.94504 0.0
O25 O 0.23748 0.37865 0.02613 0.0
O26 O 0.27705 0.18039 0.95087 0.0
O27 O 0.18522 0.08738 0.1616 0.0
O28 O 0.10324 0.18418 0.12305 0.0
C29 C 0.33169 0.92756 0.26226 0.0
C30 C 0.39311 0.20247 0.13578 0.0
C31 C 0.59527 0.62287 0.4944 0.0
C32 C 0.76781 0.83927 0.59073 0.0
C33 C 0.75286 0.00635 0.4438 0.0
Mg34 Mg 0.59071 0.53941 0.38369 0.0
Mg35 Mg 0.72397 0.53557 0.31749 0.0
O36 O 0.66092 0.61021 0.34723 0.0
Mg37 Mg 0.70291 0.68985 0.4084 0.0
O38 O 0.7351 0.76723 0.47062 0.0
Mg39 Mg 0.64545 0.83311 0.47968 0.0
Mg40 Mg 0.82316 0.83093 0.48339 0.0
C41 C 0.78893 0.73114 0.30426 0.0
O42 O 0.81056 0.61267 0.43561 0.0
O43 O 0.54972 0.47699 0.30432 0.0
O44 O 0.88914 0.73115 0.45287 0.0
O45 O 0.66617 0.41318 0.39879 0.0
O46 O 0.64614 0.46123 0.26229 0.0
O47 O 0.77282 0.43985 0.37398 0.0
O48 O 0.60333 0.78064 0.39343 0.0
O49 O 0.52121 0.67188 0.36795 0.0
C50 C 0.53817 0.75692 0.37727 0.0
C51 C 0.57962 0.44847 0.26566 0.0
O52 O 0.76246 0.76553 0.34408 0.0
O53 O 0.70387 0.84586 0.5648 0.0
O54 O 0.78527 0.64551 0.29288 0.0
O55 O 0.69402 0.96939 0.45293 0.0
O56 O 0.82352 0.83887 0.56746 0.0
O57 O 0.81181 0.96327 0.44973 0.0
O58 O 0.63806 0.60259 0.46172 0.0
O59 O 0.59191 0.70596 0.5083 0.0
C60 C 0.73049 0.38906 0.39578 0.0
C61 C 0.87481 0.64523 0.45021 0.0
C62 C 0.6273 0.97228 0.97325 0.0
C63 C 0.79012 0.75484 0.0901 0.0
C64 C 0.76727 0.57231 0.94203 0.0
Mg65 Mg 0.61538 0.02757 0.85338 0.0
Mg66 Mg 0.75871 0.01964 0.79737 0.0
O67 O 0.68904 0.95016 0.82688 0.0
Mg68 Mg 0.72431 0.8815 0.89507 0.0
O69 O 0.7556 0.8188 0.96437 0.0
Mg70 Mg 0.6665 0.7535 0.97645 0.0
Mg71 Mg 0.84187 0.75459 0.97939 0.0
C72 C 0.81585 0.81847 0.80878 0.0
O73 O 0.82651 0.96409 0.908 0.0
O74 O 0.58461 0.06945 0.76625 0.0
O75 O 0.90338 0.85169 0.93968 0.0
O76 O 0.6805 0.16197 0.8676 0.0
O77 O 0.68353 0.05 0.72724 0.0
O78 O 0.78475 0.15216 0.83788 0.0
O79 O 0.6234 0.78856 0.88538 0.0
O80 O 0.54918 0.89288 0.84402 0.0
C81 C 0.56035 0.81098 0.86223 0.0
C82 C 0.61739 0.07183 0.72539 0.0
O83 O 0.78248 0.78929 0.84604 0.0
O84 O 0.72516 0.74091 0.06593 0.0
O85 O 0.83321 0.90364 0.80469 0.0
O86 O 0.70953 0.60934 0.95232 0.0
O87 O 0.8436 0.76358 0.06459 0.0
O88 O 0.82657 0.61691 0.94747 0.0
O89 O 0.6631 0.98099 0.93545 0.0
O90 O 0.62299 0.89493 -0.00304 0.0
C91 C 0.74073 0.19696 0.86129 0.0
C92 C 0.88972 0.93069 0.91771 0.0
C93 C 0.4129 0.26015 0.59623 0.0
C94 C 0.38552 0.55455 0.72822 0.0
C95 C 0.21927 0.62523 0.60651 0.0
Mg96 Mg 0.29223 0.17749 0.50002 0.0
Mg97 Mg 0.11745 0.18101 0.50398 0.0
O98 O 0.20673 0.24224 0.51755 0.0
Mg99 Mg 0.24723 0.31776 0.58156 0.0
O100 O 0.29473 0.39807 0.64195 0.0
Mg101 Mg 0.35793 0.47566 0.60279 0.0
Mg102 Mg 0.23687 0.46603 0.68133 0.0
C103 C 0.07582 0.37291 0.54235 0.0
O104 O 0.20434 0.23555 0.65358 0.0
O105 O 0.22682 0.15067 0.41377 0.0
O106 O 0.183 0.34912 0.70993 0.0
O107 O 0.24672 0.03957 0.53158 0.0
O108 O 0.10905 0.16431 0.41869 0.0
O109 O 0.13114 0.04988 0.54204 0.0
O110 O 0.30243 0.41042 0.52528 0.0
O111 O 0.33841 0.31091 0.46986 0.0
C112 C 0.33967 0.39226 0.48837 0.0
C113 C 0.16029 0.15248 0.39177 0.0
O114 O 0.14069 0.3959 0.56255 0.0
O115 O 0.40983 0.53705 0.68468 0.0
O116 O 0.05551 0.29072 0.52909 0.0
O117 O 0.28022 0.60048 0.59538 0.0
O118 O 0.32143 0.53328 0.73533 0.0
O119 O 0.1828 0.57347 0.63319 0.0
O120 O 0.34762 0.23067 0.58609 0.0
O121 O 0.42748 0.34488 0.6085 0.0
C122 C 0.18928 0.00479 0.54523 0.0
C123 C 0.18578 0.26381 0.69817 0.0
C124 C 0.13642 0.50228 0.09735 0.0
C125 C 0.15693 0.49043 0.04619 0.0
C126 C 0.20731 0.64496 0.05071 0.0
C127 C 0.206 0.64439 0.10689 0.0
N128 N 0.16845 0.57271 0.18433 0.0
N129 N 0.20236 0.55385 0.97028 0.0
C130 C 0.16931 0.57377 0.13043 0.0
C131 C 0.18844 0.56379 0.02132 0.0
N132 N 0.08548 0.44644 0.11403 0.0
N133 N 0.22444 0.7234 0.02536 0.0
H134 H 0.18393 0.49682 0.94705 0.0
H135 H 0.23392 0.59969 0.95203 0.0
H136 H 0.23471 0.78607 0.04489 0.0
H137 H 0.22122 0.72881 0.98401 0.0
H138 H 0.06588 0.45617 0.14987 0.0
H139 H 0.0555 0.39898 0.08894 0.0
H140 H 0.14852 0.51751 0.20412 0.0
H141 H 0.19303 0.62368 0.20991 0.0
C142 C 0.76532 0.13565 0.38084 0.0
C143 C 0.75448 0.10509 0.43221 0.0
C144 C 0.7516 0.26378 0.46287 0.0
C145 C 0.75089 0.29378 0.40965 0.0
N146 N 0.75477 0.25986 0.31647 0.0
N147 N 0.73654 0.13759 0.52284 0.0
C148 C 0.75852 0.23044 0.36829 0.0
C149 C 0.74753 0.16847 0.47355 0.0
N150 N 0.78146 0.07399 0.344 0.0
N151 N 0.7589 0.32678 0.50325 0.0
H152 H 0.73815 0.0684 0.53368 0.0
H153 H 0.72197 0.1801 0.55222 0.0
H154 H 0.76507 0.39689 0.49625 0.0
H155 H 0.76592 0.30953 0.54369 0.0
H156 H 0.79839 0.09286 0.30819 0.0
H157 H 0.78287 0.00332 0.35071 0.0
H158 H 0.75019 0.21583 0.28384 0.0
H159 H 0.75065 0.3285 0.30497 0.0
C160 C 0.7461 0.45955 0.86535 0.0
C161 C 0.76466 0.47602 0.92117 0.0
C162 C 0.77151 0.30917 0.93761 0.0
C163 C 0.7572 0.29264 0.88154 0.0
N164 N 0.7393 0.35193 0.79146 0.0
N165 N 0.80665 0.41805 0.00969 0.0
C166 C 0.74747 0.36801 0.84526 0.0
C167 C 0.78101 0.40117 0.95703 0.0
N168 N 0.72498 0.53132 0.83169 0.0
N169 N 0.77366 0.23688 0.9725 0.0
H170 H 0.81229 0.48414 0.02558 0.0
H171 H 0.82741 0.36738 0.03674 0.0
H172 H 0.76985 0.1686 0.96008 0.0
H173 H 0.77499 0.24441 0.01354 0.0
H174 H 0.7027 0.52358 0.79164 0.0
H175 H 0.725 0.5991 0.84474 0.0
H176 H 0.73905 0.40343 0.76278 0.0
H177 H 0.73801 0.28607 0.77543 0.0
C178 C 0.18592 0.83805 0.52083 0.0
C179 C 0.18835 0.9066 0.56088 0.0
C180 C 0.19084 0.78746 0.63022 0.0
C181 C 0.19453 0.71939 0.5906 0.0
N182 N 0.17311 0.67607 0.49813 0.0
N183 N 0.19611 0.94962 0.65332 0.0
C184 C 0.18553 0.74377 0.53577 0.0
C185 C 0.1902 0.8821 0.61542 0.0
N186 N 0.18635 0.86331 0.46872 0.0
N187 N 0.18715 0.76173 0.6818 0.0
H188 H 0.19512 0.0194 0.64381 0.0
H189 H 0.20652 0.93768 0.69435 0.0
H190 H 0.19006 0.69395 0.69496 0.0
H191 H 0.17651 0.80661 0.71133 0.0
H192 H 0.19332 0.81764 0.43853 0.0
H193 H 0.18375 0.93146 0.45586 0.0
H194 H 0.15979 0.68807 0.45724 0.0
H195 H 0.16948 0.60688 0.50845 0.0
C196 C 0.4902 0.91925 0.35262 0.0
C197 C 0.4799 0.82721 0.37058 0.0
C198 C 0.34929 0.84451 0.34756 0.0
C199 C 0.36231 0.9247 0.31939 0.0
N200 N 0.43105 0.06285 0.3234 0.0
N201 N 0.39938 0.72794 0.41048 0.0
C202 C 0.42819 0.97101 0.33302 0.0
C203 C 0.40898 0.79828 0.37662 0.0
N204 N 0.5568 0.9555 0.3497 0.0
N205 N 0.28096 0.80994 0.34316 0.0
H206 H 0.44288 0.69836 0.43473 0.0
H207 H 0.34923 0.70661 0.41856 0.0
H208 H 0.23676 0.84733 0.32493 0.0
H209 H 0.26837 0.74519 0.3569 0.0
H210 H 0.56428 0.01814 0.33127 0.0
H211 H 0.60522 0.92387 0.36331 0.0
H212 H 0.47608 0.10357 0.33681 0.0
H213 H 0.38493 0.09826 0.30655 0.0
C214 C 0.53776 0.28952 0.24584 0.0
C215 C 0.53773 0.38334 0.23014 0.0
C216 C 0.43048 0.35864 0.16553 0.0
C217 C 0.43747 0.26252 0.17428 0.0
N218 N 0.49233 0.13571 0.22657 0.0
N219 N 0.49013 0.5067 0.17208 0.0
C220 C 0.48946 0.22743 0.21563 0.0
C221 C 0.48613 0.41768 0.1888 0.0
N222 N 0.5809 0.26123 0.29147 0.0
N223 N 0.36829 0.39358 0.13789 0.0
H224 H 0.53072 0.552 0.18892 0.0
H225 H 0.45728 0.53276 0.13851 0.0
H226 H 0.32337 0.35249 0.12447 0.0
H227 H 0.35795 0.46361 0.13425 0.0
H228 H 0.5783 0.19615 0.30823 0.0
H229 H 0.61666 0.30507 0.31493 0.0
H230 H 0.53684 0.1044 0.24871 0.0
H231 H 0.45061 0.09029 0.21263 0.0
C232 C 0.54473 0.22741 0.61187 0.0
C233 C 0.47325 0.19387 0.60311 0.0
C234 C 0.50797 0.05862 0.65663 0.0
C235 C 0.57574 0.1014 0.67452 0.0
N236 N 0.6635 0.22044 0.65923 0.0
N237 N 0.40479 0.05437 0.58666 0.0
C238 C 0.5967 0.18153 0.64813 0.0
C239 C 0.46018 0.10158 0.61571 0.0
N240 N 0.56269 0.30476 0.58636 0.0
N241 N 0.48768 0.97998 0.68024 0.0
H242 H 0.37695 0.08251 0.55171 0.0
H243 H 0.39488 0.98469 0.59202 0.0
H244 H 0.52144 0.94459 0.70986 0.0
H245 H 0.43556 0.95298 0.67254 0.0
H246 H 0.6145 0.33327 0.59237 0.0
H247 H 0.52577 0.3361 0.55711 0.0
H248 H 0.70609 0.19408 0.68605 0.0
H249 H 0.70609 0.19408 0.68605 0.0
C250 C 0.52215 0.64383 0.8445 0.0
C251 C 0.50503 0.73849 0.84237 0.0
C252 C 0.4045 0.70843 0.77081 0.0
C253 C 0.42748 0.61642 0.76785 0.0
N254 N 0.50904 0.49536 0.80053 0.0
N255 N 0.4068 0.84417 0.82551 0.0
C256 C 0.48645 0.58345 0.80453 0.0
C257 C 0.43891 0.76589 0.81218 0.0
N258 N 0.56601 0.61045 0.88807 0.0
N259 N 0.35274 0.74288 0.73212 0.0
H260 H 0.42735 0.88172 0.85961 0.0
H261 H 0.3556 0.86412 0.80766 0.0
H262 H 0.32805 0.70407 0.69975 0.0
H263 H 0.33972 0.81224 0.72921 0.0
H264 H 0.57789 0.54125 0.89419 0.0
H265 H 0.58054 0.65092 0.92191 0.0
H266 H 0.5566 0.47037 0.82213 0.0
H267 H 0.48248 0.44888 0.77278 0.0
C268 C 0.0024 0.03716 0.0019 0.0
C269 C 0.05824 0.97344 0.00018 0.0
C270 C 0.01315 0.94249 0.90652 0.0
C271 C 0.95125 0.99064 0.91404 0.0
N272 N 0.91686 0.13378 0.94712 0.0
N273 N 0.13282 0.89397 0.94548 0.0
C274 C 0.95766 0.05728 0.95384 0.0
C275 C 0.06942 0.93514 0.95049 0.0
N276 N -0.00935 0.0755 0.04875 0.0
N277 N 0.01292 0.89598 0.85997 0.0
H278 H 0.17511 0.88874 0.97723 0.0
H279 H 0.14525 0.87057 0.90926 0.0
H280 H 0.9706 0.90341 0.82833 0.0
H281 H 0.05277 0.85052 0.85322 0.0
H282 H 0.94744 0.1186 0.05117 0.0
H283 H 0.01963 0.05636 0.08551 0.0
H284 H 0.9221 0.18698 0.97492 0.0
H285 H 0.8841 0.14621 0.91083 0.0
C286 C 0.00779 0.51642 0.55092 0.0
C287 C 0.02798 0.44615 0.51863 0.0
C288 C 0.95327 0.51122 0.43949 0.0
C289 C 0.93336 0.58228 0.47187 0.0
N290 N 0.96438 0.66985 0.5544 0.0
N291 N 0.04043 0.39445 0.42972 0.0
C292 C 0.96768 0.59077 0.52623 0.0
C293 C 0.00654 0.44829 0.46207 0.0
N294 N 0.02419 0.51054 0.6054 0.0
N295 N 0.92303 0.50548 0.38687 0.0
H296 H 0.08325 0.35183 0.44423 0.0
H297 H 0.03179 0.39935 0.38814 0.0
H298 H 0.88961 0.55604 0.36755 0.0
H299 H 0.92844 0.44861 0.36312 0.0
H300 H 0.00392 0.55541 0.63115 0.0
H301 H 0.05308 0.45625 0.625 0.0
H302 H -0.00189 0.68255 0.59045 0.0
H303 H 0.93328 0.72607 0.54097 0.0
C304 C 0.45405 0.04018 0.97418 0.0
C305 C 0.45952 0.03309 0.03044 0.0
C306 C 0.58879 0.06577 0.04069 0.0
C307 C 0.58359 0.04916 0.98615 0.0
N308 N 0.51446 0.10302 0.90482 0.0
N309 N 0.52903 0.06176 0.11824 0.0
C310 C 0.51707 0.06143 0.95319 0.0
C311 C 0.52592 0.05534 0.06424 0.0
N312 N 0.39086 0.02321 0.94098 0.0
N313 N 0.65494 0.08508 0.06911 0.0
H314 H 0.48343 0.05593 0.13622 0.0
H315 H 0.57594 0.07263 0.14524 0.0
H316 H 0.70022 0.0897 0.0499 0.0
H317 H 0.66463 0.10106 0.10961 0.0
H318 H 0.38724 0.02248 0.89944 0.0
H319 H 0.34347 0.00381 0.95473 0.0
H320 H 0.46641 0.11869 0.8801 0.0
H321 H 0.56022 0.1351 0.89478 0.0
C322 C 0.46509 0.42284 0.46386 0.0
C323 C 0.40138 0.4563 0.48062 0.0
C324 C 0.47034 0.59093 0.51929 0.0
C325 C 0.53361 0.55828 0.50164 0.0
N326 N 0.59472 0.42157 0.48374 0.0
N327 N 0.34044 0.59166 0.50185 0.0
C328 C 0.53201 0.46815 0.48112 0.0
C329 C 0.40325 0.54605 0.50201 0.0
N330 N 0.46194 0.35241 0.42821 0.0
N331 N 0.47441 0.6603 0.5557 0.0
H332 H 0.29102 0.56361 0.48453 0.0
H333 H 0.33876 0.66074 0.51208 0.0
H334 H 0.52335 0.68527 0.57577 0.0
H335 H 0.43004 0.68198 0.57219 0.0
H336 H 0.507 0.33022 0.41274 0.0
H337 H 0.41358 0.3273 0.40736 0.0
H338 H 0.59624 0.35176 0.4751 0.0
H339 H 0.64362 0.44975 0.50195 0.0
C340 C 0.26168 0.19954 0.77786 0.0
C341 C 0.19262 0.20279 0.74652 0.0
C342 C 0.14227 0.1578 0.82717 0.0
C343 C 0.20888 0.17998 0.86081 0.0
N344 N 0.32824 0.2492 0.86153 0.0
N345 N 0.06498 0.18732 0.74239 0.0
C346 C 0.26832 0.20663 0.83454 0.0
C347 C 0.13219 0.18212 0.77153 0.0
N348 N 0.32132 0.19741 0.75338 0.0
N349 N 0.08942 0.11086 0.8473 0.0
H350 H 0.05699 0.2003 0.70125 0.0
H351 H 0.01818 0.18317 0.7596 0.0
H352 H 0.09728 0.08343 0.88567 0.0
H353 H 0.04206 0.08853 0.82368 0.0
H354 H 0.37297 0.18872 0.77463 0.0
H355 H 0.31789 0.19363 0.71189 0.0
H356 H 0.37 0.27364 0.84246 0.0
H357 H 0.33183 0.27519 0.90001 0.0
C358 C 0.85152 0.75351 0.72762 0.0
C359 C 0.79664 0.77291 0.75737 0.0
C360 C 0.72018 0.82923 0.67873 0.0
C361 C 0.77598 0.81304 0.64809 0.0
N362 N 0.87091 0.70408 0.64098 0.0
N363 N 0.6682 0.77633 0.75526 0.0
C364 C 0.83541 0.7586 0.67144 0.0
C365 C 0.72671 0.79077 0.73046 0.0
N366 N 0.91845 0.73115 0.7528 0.0
N367 N 0.66368 0.88479 0.66075 0.0
H368 H 0.67247 0.74415 0.79249 0.0
H369 H 0.61553 0.78462 0.7359 0.0
H370 H 0.66309 0.93022 0.62878 0.0
H371 H 0.62214 0.89542 0.6825 0.0
H372 H 0.96199 0.72403 0.73221 0.0
H373 H 0.92973 0.72344 0.79434 0.0
H374 H 0.91173 0.66014 0.65779 0.0
H375 H 0.85066 0.69078 0.60102 0.0
C376 C 0.87027 0.75342 0.23922 0.0
C377 C 0.81167 0.78853 0.26111 0.0
C378 C 0.75661 0.83514 0.17091 0.0
C379 C 0.80241 0.77323 0.14903 0.0
N380 N 0.90521 0.67225 0.16442 0.0
N381 N 0.70501 0.88005 0.24903 0.0
C382 C 0.86145 0.73398 0.18352 0.0
C383 C 0.75765 0.83706 0.22737 0.0
N384 N 0.93118 0.73057 0.27309 0.0
N385 N 0.71405 0.89393 0.13808 0.0
H386 H 0.70807 0.88882 0.29018 0.0
H387 H 0.65822 0.90529 0.22647 0.0
H388 H 0.71545 0.89877 0.09712 0.0
H389 H 0.68341 0.94467 0.15216 0.0
H390 H 0.97822 0.7096 0.25999 0.0
H391 H 0.9355 0.74159 0.31428 0.0
H392 H 0.94496 0.63606 0.189 0.0
H393 H 0.89765 0.65013 0.12485 0.0
C394 C 0.11098 0.0751 0.30447 0.0
C395 C 0.14228 0.15347 0.33238 0.0
C396 C 0.14628 0.2335 0.2471 0.0
C397 C 0.11624 0.15447 0.21901 0.0
N398 N 0.0554 0.00892 0.21967 0.0
N399 N 0.17177 0.31497 0.33141 0.0
C400 C 0.09345 0.07832 0.24755 0.0
C401 C 0.15404 0.23521 0.30398 0.0
N402 N 0.10082 0.99655 0.33225 0.0
N403 N 0.17224 0.30438 0.21976 0.0
H404 H 0.17911 0.31878 0.37308 0.0
H405 H 0.1732 0.3788 0.31287 0.0
H406 H 0.16563 0.3075 0.17813 0.0
H407 H 0.20391 0.35767 0.23832 0.0
H408 H 0.08574 0.93378 0.31424 0.0
H409 H 0.1117 0.99276 0.37389 0.0
H410 H 0.03192 0.95423 0.23747 0.0
H411 H 0.04198 0.01073 0.17808 0.0
loop_
_geom_bond_atom_site_label_1
_geom_bond_atom_site_label_2
_geom_bond_distance
_geom_bond_site_symmetry_2
_ccdc_geom_bond_type
C0 O27 1.312 . S
C0 O28 1.208 . S
C1 O22 1.331 . S
C1 O25 1.244 . S
C2 O24 1.264 . S
C2 O26 1.273 . S
Mg3 O5 1.936 . S
Mg3 O12 2.081 . S
Mg3 O14 2.023 . S
Mg3 O18 2.031 . S
Mg3 O27 2.291 1_565 S
Mg4 O5 1.963 . S
Mg4 O15 1.942 . S
Mg4 O16 1.955 . S
Mg4 O23 1.986 . S
O5 Mg3 1.936 . S
O5 Mg4 1.963 . S
O5 Mg6 1.915 1_565 S
Mg6 O5 1.915 1_545 S
Mg6 O7 1.915 . S
Mg6 O11 2.013 . S
Mg6 O17 2.114 . S
Mg6 O21 2.013 . S
Mg6 O27 2.114 . S
O7 Mg6 1.915 . S
O7 Mg8 1.936 . S
O7 Mg9 1.963 . S
Mg8 O7 1.936 . S
Mg8 O17 2.291 . S
Mg8 O22 2.081 . S
Mg8 O24 2.023 1_554 S
Mg8 O28 2.031 . S
Mg9 O7 1.963 . S
Mg9 O13 1.986 . S
Mg9 O25 1.942 . S
Mg9 O26 1.955 1_554 S
C10 O21 1.191 . S
C10 O23 1.307 1_545 S
O11 Mg6 2.013 . S
O11 C30 1.191 . S
O12 Mg3 2.081 . S
O12 C20 1.331 . S
O13 Mg9 1.986 . S
O13 C30 1.307 . S
O14 Mg3 2.023 . S
O14 C29 1.264 . S
O15 Mg4 1.942 . S
O15 C20 1.244 . S
O16 Mg4 1.955 . S
O16 C29 1.273 . S
O17 Mg6 2.114 . S
O17 Mg8 2.291 . S
O17 C19 1.312 . S
O18 Mg3 2.031 . S
O18 C19 1.208 1_565 S
C19 O17 1.312 . S
C19 O18 1.208 1_545 S
C20 O12 1.331 . S
C20 O15 1.244 . S
O21 Mg6 2.013 . S
O21 C10 1.191 . S
O22 C1 1.331 . S
O22 Mg8 2.081 . S
O23 Mg4 1.986 . S
O23 C10 1.307 1_565 S
O24 C2 1.264 . S
O24 Mg8 2.023 1_556 S
O25 C1 1.244 . S
O25 Mg9 1.942 . S
O26 C2 1.273 . S
O26 Mg9 1.955 1_556 S
O27 C0 1.312 . S
O27 Mg3 2.291 1_545 S
O27 Mg6 2.114 . S
O28 C0 1.208 . S
O28 Mg8 2.031 . S
C29 O14 1.264 . S
C29 O16 1.273 . S
C30 O11 1.191 . S
C30 O13 1.307 . S
C31 O58 1.312 . S
C31 O59 1.208 . S
C32 O53 1.331 . S
C32 O56 1.244 . S
C33 O55 1.264 . S
C33 O57 1.273 . S
Mg34 O36 1.936 . S
Mg34 O43 2.081 . S
Mg34 O45 2.023 . S
Mg34 O49 2.031 . S
Mg34 O58 2.291 . S
Mg35 O36 1.963 . S
Mg35 O46 1.942 . S
Mg35 O47 1.955 . S
Mg35 O54 1.986 . S
O36 Mg34 1.936 . S
O36 Mg35 1.963 . S
O36 Mg37 1.915 . S
Mg37 O36 1.915 . S
Mg37 O38 1.915 . S
Mg37 O42 2.013 . S
Mg37 O48 2.114 . S
Mg37 O52 2.013 . S
Mg37 O58 2.114 . S
O38 Mg37 1.915 . S
O38 Mg39 1.936 . S
O38 Mg40 1.963 . S
Mg39 O38 1.936 . S
Mg39 O48 2.291 . S
Mg39 O53 2.081 . S
Mg39 O55 2.023 . S
Mg39 O59 2.031 . S
Mg40 O38 1.963 . S
Mg40 O44 1.986 . S
Mg40 O56 1.942 . S
Mg40 O57 1.955 . S
C41 O52 1.191 . S
C41 O54 1.307 . S
O42 Mg37 2.013 . S
O42 C61 1.191 . S
O43 Mg34 2.081 . S
O43 C51 1.331 . S
O44 Mg40 1.986 . S
O44 C61 1.307 . S
O45 Mg34 2.023 . S
O45 C60 1.264 . S
O46 Mg35 1.942 . S
O46 C51 1.244 . S
O47 Mg35 1.955 . S
O47 C60 1.273 . S
O48 Mg37 2.114 . S
O48 Mg39 2.291 . S
O48 C50 1.312 . S
O49 Mg34 2.031 . S
O49 C50 1.208 . S
C50 O48 1.312 . S
C50 O49 1.208 . S
C51 O43 1.331 . S
C51 O46 1.244 . S
O52 Mg37 2.013 . S
O52 C41 1.191 . S
O53 C32 1.331 . S
O53 Mg39 2.081 . S
O54 Mg35 1.986 . S
O54 C41 1.307 . S
O55 C33 1.264 . S
O55 Mg39 2.023 . S
O56 C32 1.244 . S
O56 Mg40 1.942 . S
O57 C33 1.273 . S
O57 Mg40 1.955 . S
O58 C31 1.312 . S
O58 Mg34 2.291 . S
O58 Mg37 2.114 . S
O59 C31 1.208 . S
O59 Mg39 2.031 . S
C60 O45 1.264 . S
C60 O47 1.273 . S
C61 O42 1.191 . S
C61 O44 1.307 . S
C62 O89 1.312 . S
C62 O90 1.208 . S
C63 O84 1.331 . S
C63 O87 1.244 . S
C64 O86 1.264 . S
C64 O88 1.273 . S
Mg65 O67 1.936 1_545 S
Mg65 O74 2.081 . S
Mg65 O76 2.023 . S
Mg65 O80 2.031 1_545 S
Mg65 O89 2.291 1_545 S
Mg66 O67 1.963 1_545 S
Mg66 O77 1.942 . S
Mg66 O78 1.955 . S
Mg66 O85 1.986 1_545 S
O67 Mg65 1.936 1_565 S
O67 Mg66 1.963 1_565 S
O67 Mg68 1.915 . S
Mg68 O67 1.915 . S
Mg68 O69 1.915 . S
Mg68 O73 2.013 . S
Mg68 O79 2.114 . S
Mg68 O83 2.013 . S
Mg68 O89 2.114 . S
O69 Mg68 1.915 . S
O69 Mg70 1.936 . S
O69 Mg71 1.963 . S
Mg70 O69 1.936 . S
Mg70 O79 2.291 . S
Mg70 O84 2.081 1_556 S
Mg70 O86 2.023 . S
Mg70 O90 2.031 . S
Mg71 O69 1.963 . S
Mg71 O75 1.986 . S
Mg71 O87 1.942 1_556 S
Mg71 O88 1.955 . S
C72 O83 1.191 . S
C72 O85 1.307 . S
O73 Mg68 2.013 . S
O73 C92 1.191 . S
O74 Mg65 2.081 . S
O74 C82 1.331 . S
O75 Mg71 1.986 . S
O75 C92 1.307 . S
O76 Mg65 2.023 . S
O76 C91 1.264 . S
O77 Mg66 1.942 . S
O77 C82 1.244 . S
O78 Mg66 1.955 . S
O78 C91 1.273 . S
O79 Mg68 2.114 . S
O79 Mg70 2.291 . S
O79 C81 1.312 . S
O80 Mg65 2.031 1_565 S
O80 C81 1.208 . S
C81 O79 1.312 . S
C81 O80 1.208 . S
C82 O74 1.331 . S
C82 O77 1.244 . S
O83 Mg68 2.013 . S
O83 C72 1.191 . S
O84 C63 1.331 . S
O84 Mg70 2.081 1_554 S
O85 Mg66 1.986 1_565 S
O85 C72 1.307 . S
O86 C64 1.264 . S
O86 Mg70 2.023 . S
O87 C63 1.244 . S
O87 Mg71 1.942 1_554 S
O88 C64 1.273 . S
O88 Mg71 1.955 . S
O89 C62 1.312 . S
O89 Mg65 2.291 1_565 S
O89 Mg68 2.114 . S
O90 C62 1.208 . S
O90 Mg70 2.031 . S
C91 O76 1.264 . S
C91 O78 1.273 . S
C92 O73 1.191 . S
C92 O75 1.307 . S
C93 O120 1.312 . S
C93 O121 1.208 . S
C94 O115 1.331 . S
C94 O118 1.244 . S
C95 O117 1.264 . S
C95 O119 1.273 . S
Mg96 O98 1.936 . S
Mg96 O105 2.081 . S
Mg96 O107 2.023 . S
Mg96 O111 2.031 . S
Mg96 O120 2.291 . S
Mg97 O98 1.963 . S
Mg97 O108 1.942 . S
Mg97 O109 1.955 . S
Mg97 O116 1.986 . S
O98 Mg96 1.936 . S
O98 Mg97 1.963 . S
O98 Mg99 1.915 . S
Mg99 O98 1.915 . S
Mg99 O100 1.915 . S
Mg99 O104 2.013 . S
Mg99 O110 2.114 . S
Mg99 O114 2.013 . S
Mg99 O120 2.114 . S
O100 Mg99 1.915 . S
O100 Mg101 1.936 . S
O100 Mg102 1.963 . S
Mg101 O100 1.936 . S
Mg101 O110 2.291 . S
Mg101 O115 2.081 . S
Mg101 O117 2.023 . S
Mg101 O121 2.031 . S
Mg102 O100 1.963 . S
Mg102 O106 1.986 . S
Mg102 O118 1.942 . S
Mg102 O119 1.955 . S
C103 O114 1.191 . S
C103 O116 1.307 . S
O104 Mg99 2.013 . S
O104 C123 1.191 . S
O105 Mg96 2.081 . S
O105 C113 1.331 . S
O106 Mg102 1.986 . S
O106 C123 1.307 . S
O107 Mg96 2.023 . S
O107 C122 1.264 . S
O108 Mg97 1.942 . S
O108 C113 1.244 . S
O109 Mg97 1.955 . S
O109 C122 1.273 . S
O110 Mg99 2.114 . S
O110 Mg101 2.291 . S
O110 C112 1.312 . S
O111 Mg96 2.031 . S
O111 C112 1.208 . S
C112 O110 1.312 . S
C112 O111 1.208 . S
C113 O105 1.331 . S
C113 O108 1.244 . S
O114 Mg99 2.013 . S
O114 C103 1.191 . S
O115 C94 1.331 . S
O115 Mg101 2.081 . S
O116 Mg97 1.986 . S
O116 C103 1.307 . S
O117 C95 1.264 . S
O117 Mg101 2.023 . S
O118 C94 1.244 . S
O118 Mg102 1.942 . S
O119 C95 1.273 . S
O119 Mg102 1.955 . S
O120 C93 1.312 . S
O120 Mg96 2.291 . S
O120 Mg99 2.114 . S
O121 C93 1.208 . S
O121 Mg101 2.031 . S
C122 O107 1.264 . S
C122 O109 1.273 . S
C123 O104 1.191 . S
C123 O106 1.307 . S
C124 C125 1.363 . S
C124 C130 1.379 . S
C124 N132 1.356 . S
C125 C124 1.363 . S
C125 C131 1.363 . S
C126 C127 1.363 . S
C126 C131 1.379 . S
C126 N133 1.356 . S
C127 C126 1.363 . S
C127 C130 1.363 . S
N128 C130 1.356 . S
N128 H140 0.984 . S
N128 H141 0.985 . S
N129 C131 1.356 . S
N129 H134 0.984 . S
N129 H135 0.985 . S
C130 C124 1.379 . S
C130 C127 1.363 . S
C130 N128 1.356 . S
C131 C125 1.363 . S
C131 C126 1.379 . S
C131 N129 1.356 . S
N132 C124 1.356 . S
N132 H138 0.984 . S
N132 H139 0.984 . S
N133 C126 1.356 . S
N133 H136 0.984 . S
N133 H137 0.985 . S
H134 N129 0.984 . S
H135 N129 0.985 . S
H136 N133 0.984 . S
H137 N133 0.985 . S
H138 N132 0.984 . S
H139 N132 0.984 . S
H140 N128 0.984 . S
H141 N128 0.985 . S
C142 C143 1.363 . S
C142 C148 1.379 . S
C142 N150 1.356 . S
C143 C142 1.363 . S
C143 C149 1.363 . S
C144 C145 1.363 . S
C144 C149 1.379 . S
C144 N151 1.356 . S
C145 C144 1.363 . S
C145 C148 1.363 . S
N146 C148 1.356 . S
N146 H158 0.984 . S
N146 H159 0.985 . S
N147 C149 1.356 1_565 S
N147 H152 0.984 . S
N147 H153 0.985 . S
C148 C142 1.379 . S
C148 C145 1.363 . S
C148 N146 1.356 . S
C149 C143 1.363 . S
C149 C144 1.379 . S
C149 N147 1.356 1_545 S
N150 C142 1.356 . S
N150 H156 0.984 . S
N150 H157 0.984 1_545 S
N151 C144 1.356 . S
N151 H154 0.984 . S
N151 H155 0.985 . S
H152 N147 0.984 . S
H153 N147 0.985 . S
H154 N151 0.984 . S
H155 N151 0.985 . S
H156 N150 0.984 . S
H157 N150 0.984 1_565 S
H158 N146 0.984 . S
H159 N146 0.985 . S
C160 C161 1.363 . S
C160 C166 1.379 . S
C160 N168 1.356 . S
C161 C160 1.363 . S
C161 C167 1.363 . S
C162 C163 1.363 . S
C162 C167 1.379 . S
C162 N169 1.356 . S
C163 C162 1.363 . S
C163 C166 1.363 . S
N164 C166 1.356 . S
N164 H176 0.984 . S
N164 H177 0.985 . S
N165 C167 1.356 . S
N165 H170 0.984 . S
N165 H171 0.985 1_556 S
C166 C160 1.379 . S
C166 C163 1.363 . S
C166 N164 1.356 . S
C167 C161 1.363 . S
C167 C162 1.379 . S
C167 N165 1.356 . S
N168 C160 1.356 . S
N168 H174 0.984 . S
N168 H175 0.984 . S
N169 C162 1.356 . S
N169 H172 0.984 . S
N169 H173 0.985 1_556 S
H170 N165 0.984 . S
H171 N165 0.985 1_554 S
H172 N169 0.984 . S
H173 N169 0.985 1_554 S
H174 N168 0.984 . S
H175 N168 0.984 . S
H176 N164 0.984 . S
H177 N164 0.985 . S
C178 C179 1.363 . S
C178 C184 1.379 . S
C178 N186 1.356 1_565 S
C179 C178 1.363 . S
C179 C185 1.363 . S
C180 C181 1.363 . S
C180 C185 1.379 . S
C180 N187 1.356 . S
C181 C180 1.363 . S
C181 C184 1.363 . S
N182 C184 1.356 . S
N182 H194 0.984 . S
N182 H195 0.985 . S
N183 C185 1.356 1_545 S
N183 H188 0.984 . S
N183 H189 0.985 . S
C184 C178 1.379 . S
C184 C181 1.363 . S
C184 N182 1.356 . S
C185 C179 1.363 . S
C185 C180 1.379 . S
C185 N183 1.356 1_565 S
N186 C178 1.356 1_545 S
N186 H192 0.984 . S
N186 H193 0.984 . S
N187 C180 1.356 . S
N187 H190 0.984 . S
N187 H191 0.985 . S
H188 N183 0.984 . S
H189 N183 0.985 . S
H190 N187 0.984 . S
H191 N187 0.985 . S
H192 N186 0.984 . S
H193 N186 0.984 . S
H194 N182 0.984 . S
H195 N182 0.985 . S
C196 C197 1.363 . S
C196 C202 1.379 . S
C196 N204 1.356 . S
C197 C196 1.363 . S
C197 C203 1.363 . S
C198 C199 1.363 . S
C198 C203 1.379 . S
C198 N205 1.356 . S
C199 C198 1.363 . S
C199 C202 1.363 . S
N200 C202 1.356 . S
N200 H212 0.984 . S
N200 H213 0.985 . S
N201 C203 1.356 . S
N201 H206 0.984 . S
N201 H207 0.985 . S
C202 C196 1.379 . S
C202 C199 1.363 . S
C202 N200 1.356 . S
C203 C197 1.363 . S
C203 C198 1.379 . S
C203 N201 1.356 . S
N204 C196 1.356 . S
N204 H210 0.984 . S
N204 H211 0.984 . S
N205 C198 1.356 . S
N205 H208 0.984 . S
N205 H209 0.985 . S
H206 N201 0.984 . S
H207 N201 0.985 . S
H208 N205 0.984 . S
H209 N205 0.985 . S
H210 N204 0.984 . S
H211 N204 0.984 . S
H212 N200 0.984 . S
H213 N200 0.985 . S
C214 C215 1.363 . S
C214 C220 1.379 . S
C214 N222 1.356 . S
C215 C214 1.363 . S
C215 C221 1.363 . S
C216 C217 1.363 . S
C216 C221 1.379 . S
C216 N223 1.356 . S
C217 C216 1.363 . S
C217 C220 1.363 . S
N218 C220 1.356 . S
N218 H230 0.984 . S
N218 H231 0.985 . S
N219 C221 1.356 . S
N219 H224 0.984 . S
N219 H225 0.985 . S
C220 C214 1.379 . S
C220 C217 1.363 . S
C220 N218 1.356 . S
C221 C215 1.363 . S
C221 C216 1.379 . S
C221 N219 1.356 . S
N222 C214 1.356 . S
N222 H228 0.984 . S
N222 H229 0.984 . S
N223 C216 1.356 . S
N223 H226 0.984 . S
N223 H227 0.985 . S
H224 N219 0.984 . S
H225 N219 0.985 . S
H226 N223 0.984 . S
H227 N223 0.985 . S
H228 N222 0.984 . S
H229 N222 0.984 . S
H230 N218 0.984 . S
H231 N218 0.985 . S
C232 C233 1.363 . S
C232 C238 1.379 . S
C232 N240 1.356 . S
C233 C232 1.363 . S
C233 C239 1.363 . S
C234 C235 1.363 . S
C234 C239 1.379 . S
C234 N241 1.356 . S
C235 C234 1.363 . S
C235 C238 1.363 . S
N236 C238 1.356 . S
N236 H248 0.984 . S
N236 H249 0.985 . S
N237 C239 1.356 . S
N237 H242 0.984 . S
N237 H243 0.985 . S
C238 C232 1.379 . S
C238 C235 1.363 . S
C238 N236 1.356 . S
C239 C233 1.363 . S
C239 C234 1.379 . S
C239 N237 1.356 . S
N240 C232 1.356 . S
N240 H246 0.984 . S
N240 H247 0.984 . S
N241 C234 1.356 . S
N241 H244 0.984 . S
N241 H245 0.985 . S
H242 N237 0.984 . S
H243 N237 0.985 . S
H244 N241 0.984 . S
H245 N241 0.985 . S
H246 N240 0.984 . S
H247 N240 0.984 . S
H248 N236 0.984 . S
H249 N236 0.985 . S
C250 C251 1.363 . S
C250 C256 1.379 . S
C250 N258 1.356 . S
C251 C250 1.363 . S
C251 C257 1.363 . S
C252 C253 1.363 . S
C252 C257 1.379 . S
C252 N259 1.356 . S
C253 C252 1.363 . S
C253 C256 1.363 . S
N254 C256 1.356 . S
N254 H266 0.984 . S
N254 H267 0.985 . S
N255 C257 1.356 . S
N255 H260 0.984 . S
N255 H261 0.985 . S
C256 C250 1.379 . S
C256 C253 1.363 . S
C256 N254 1.356 . S
C257 C251 1.363 . S
C257 C252 1.379 . S
C257 N255 1.356 . S
N258 C250 1.356 . S
N258 H264 0.984 . S
N258 H265 0.984 . S
N259 C252 1.356 . S
N259 H262 0.984 . S
N259 H263 0.985 . S
H260 N255 0.984 . S
H261 N255 0.985 . S
H262 N259 0.984 . S
H263 N259 0.985 . S
H264 N258 0.984 . S
H265 N258 0.984 . S
H266 N254 0.984 . S
H267 N254 0.985 . S
C268 C269 1.363 1_565 S
C268 C274 1.379 1_455 S
C268 N276 1.356 . S
C269 C268 1.363 1_545 S
C269 C275 1.363 1_554 S
C270 C271 1.363 1_545 S
C270 C275 1.379 1_655 S
C270 N277 1.356 . S
C271 C270 1.363 1_565 S
C271 C274 1.363 1_556 S
N272 C274 1.356 . S
N272 H284 0.984 . S
N272 H285 0.985 1_554 S
N273 C275 1.356 . S
N273 H278 0.984 1_556 S
N273 H279 0.985 . S
C274 C268 1.379 1_655 S
C274 C271 1.363 1_554 S
C274 N272 1.356 . S
C275 C269 1.363 1_556 S
C275 C270 1.379 1_455 S
C275 N273 1.356 . S
N276 C268 1.356 . S
N276 H282 0.984 . S
N276 H283 0.984 . S
N277 C270 1.356 . S
N277 H280 0.984 . S
N277 H281 0.985 . S
H278 N273 0.984 1_554 S
H279 N273 0.985 . S
H280 N277 0.984 . S
H281 N277 0.985 . S
H282 N276 0.984 . S
H283 N276 0.984 . S
H284 N272 0.984 . S
H285 N272 0.985 1_556 S
C286 C287 1.363 . S
C286 C292 1.379 1_455 S
C286 N294 1.356 . S
C287 C286 1.363 . S
C287 C293 1.363 . S
C288 C289 1.363 . S
C288 C293 1.379 1_655 S
C288 N295 1.356 . S
C289 C288 1.363 . S
C289 C292 1.363 . S
N290 C292 1.356 . S
N290 H302 0.984 . S
N290 H303 0.985 . S
N291 C293 1.356 . S
N291 H296 0.984 . S
N291 H297 0.985 . S
C292 C286 1.379 1_655 S
C292 C289 1.363 . S
C292 N290 1.356 . S
C293 C287 1.363 . S
C293 C288 1.379 1_455 S
C293 N291 1.356 . S
N294 C286 1.356 . S
N294 H300 0.984 . S
N294 H301 0.984 . S
N295 C288 1.356 . S
N295 H298 0.984 . S
N295 H299 0.985 . S
H296 N291 0.984 . S
H297 N291 0.985 . S
H298 N295 0.984 . S
H299 N295 0.985 . S
H300 N294 0.984 . S
H301 N294 0.984 . S
H302 N290 0.984 . S
H303 N290 0.985 . S
C304 C305 1.363 . S
C304 C310 1.379 . S
C304 N312 1.356 . S
C305 C304 1.363 . S
C305 C311 1.363 1_546 S
C306 C307 1.363 1_554 S
C306 C311 1.379 . S
C306 N313 1.356 . S
C307 C306 1.363 1_556 S
C307 C310 1.363 1_565 S
N308 C310 1.356 . S
N308 H320 0.984 . S
N308 H321 0.985 . S
N309 C311 1.356 . S
N309 H314 0.984 . S
N309 H315 0.985 . S
C310 C304 1.379 . S
C310 C307 1.363 1_545 S
C310 N308 1.356 . S
C311 C305 1.363 1_564 S
C311 C306 1.379 . S
C311 N309 1.356 . S
N312 C304 1.356 . S
N312 H318 0.984 . S
N312 H319 0.984 . S
N313 C306 1.356 . S
N313 H316 0.984 . S
N313 H317 0.985 . S
H314 N309 0.984 . S
H315 N309 0.985 . S
H316 N313 0.984 . S
H317 N313 0.985 . S
H318 N312 0.984 . S
H319 N312 0.984 . S
H320 N308 0.984 . S
H321 N308 0.985 . S
C322 C323 1.363 . S
C322 C328 1.379 . S
C322 N330 1.356 . S
C323 C322 1.363 . S
C323 C329 1.363 . S
C324 C325 1.363 . S
C324 C329 1.379 . S
C324 N331 1.356 . S
C325 C324 1.363 . S
C325 C328 1.363 . S
N326 C328 1.356 . S
N326 H338 0.984 . S
N326 H339 0.985 . S
N327 C329 1.356 . S
N327 H332 0.984 . S
N327 H333 0.985 . S
C328 C322 1.379 . S
C328 C325 1.363 . S
C328 N326 1.356 . S
C329 C323 1.363 . S
C329 C324 1.379 . S
C329 N327 1.356 . S
N330 C322 1.356 . S
N330 H336 0.984 . S
N330 H337 0.984 . S
N331 C324 1.356 . S
N331 H334 0.984 . S
N331 H335 0.985 . S
H332 N327 0.984 . S
H333 N327 0.985 . S
H334 N331 0.984 . S
H335 N331 0.985 . S
H336 N330 0.984 . S
H337 N330 0.984 . S
H338 N326 0.984 . S
H339 N326 0.985 . S
C340 C341 1.363 . S
C340 C346 1.379 . S
C340 N348 1.356 . S
C341 C340 1.363 . S
C341 C347 1.363 . S
C342 C343 1.363 . S
C342 C347 1.379 . S
C342 N349 1.356 . S
C343 C342 1.363 . S
C343 C346 1.363 . S
N344 C346 1.356 . S
N344 H356 0.984 . S
N344 H357 0.985 . S
N345 C347 1.356 . S
N345 H350 0.984 . S
N345 H351 0.985 . S
C346 C340 1.379 . S
C346 C343 1.363 . S
C346 N344 1.356 . S
C347 C341 1.363 . S
C347 C342 1.379 . S
C347 N345 1.356 . S
N348 C340 1.356 . S
N348 H354 0.984 . S
N348 H355 0.984 . S
N349 C342 1.356 . S
N349 H352 0.984 . S
N349 H353 0.985 . S
H350 N345 0.984 . S
H351 N345 0.985 . S
H352 N349 0.984 . S
H353 N349 0.985 . S
H354 N348 0.984 . S
H355 N348 0.984 . S
H356 N344 0.984 . S
H357 N344 0.985 . S
C358 C359 1.363 . S
C358 C364 1.379 . S
C358 N366 1.356 . S
C359 C358 1.363 . S
C359 C365 1.363 . S
C360 C361 1.363 . S
C360 C365 1.379 . S
C360 N367 1.356 . S
C361 C360 1.363 . S
C361 C364 1.363 . S
N362 C364 1.356 . S
N362 H374 0.984 . S
N362 H375 0.985 . S
N363 C365 1.356 . S
N363 H368 0.984 . S
N363 H369 0.985 . S
C364 C358 1.379 . S
C364 C361 1.363 . S
C364 N362 1.356 . S
C365 C359 1.363 . S
C365 C360 1.379 . S
C365 N363 1.356 . S
N366 C358 1.356 . S
N366 H372 0.984 . S
N366 H373 0.984 . S
N367 C360 1.356 . S
N367 H370 0.984 . S
N367 H371 0.985 . S
H368 N363 0.984 . S
H369 N363 0.985 . S
H370 N367 0.984 . S
H371 N367 0.985 . S
H372 N366 0.984 . S
H373 N366 0.984 . S
H374 N362 0.984 . S
H375 N362 0.985 . S
C376 C377 1.363 . S
C376 C382 1.379 . S
C376 N384 1.356 . S
C377 C376 1.363 . S
C377 C383 1.363 . S
C378 C379 1.363 . S
C378 C383 1.379 . S
C378 N385 1.356 . S
C379 C378 1.363 . S
C379 C382 1.363 . S
N380 C382 1.356 . S
N380 H392 0.984 . S
N380 H393 0.985 . S
N381 C383 1.356 . S
N381 H386 0.984 . S
N381 H387 0.985 . S
C382 C376 1.379 . S
C382 C379 1.363 . S
C382 N380 1.356 . S
C383 C377 1.363 . S
C383 C378 1.379 . S
C383 N381 1.356 . S
N384 C376 1.356 . S
N384 H390 0.984 . S
N384 H391 0.984 . S
N385 C378 1.356 . S
N385 H388 0.984 . S
N385 H389 0.985 . S
H386 N381 0.984 . S
H387 N381 0.985 . S
H388 N385 0.984 . S
H389 N385 0.985 . S
H390 N384 0.984 . S
H391 N384 0.984 . S
H392 N380 0.984 . S
H393 N380 0.985 . S
C394 C395 1.363 . S
C394 C400 1.379 . S
C394 N402 1.356 . S
C395 C394 1.363 . S
C395 C401 1.363 . S
C396 C397 1.363 . S
C396 C401 1.379 . S
C396 N403 1.356 . S
C397 C396 1.363 . S
C397 C400 1.363 . S
N398 C400 1.356 . S
N398 H410 0.984 . S
N398 H411 0.985 . S
N399 C401 1.356 . S
N399 H404 0.984 . S
N399 H405 0.985 . S
C400 C394 1.379 . S
C400 C397 1.363 . S
C400 N398 1.356 . S
C401 C395 1.363 . S
C401 C396 1.379 . S
C401 N399 1.356 . S
N402 C394 1.356 . S
N402 H408 0.984 . S
N402 H409 0.984 . S
N403 C396 1.356 . S
N403 H406 0.984 . S
N403 H407 0.985 . S
H404 N399 0.984 . S
H405 N399 0.985 . S
H406 N403 0.984 . S
H407 N403 0.985 . S
H408 N402 0.984 . S
H409 N402 0.984 . S
H410 N398 0.984 . S
H411 N398 0.985 . S
C125 C1 1.068 . S
C127 C20 1.086 . S
C143 C33 1.583 1_545 S
C145 C60 1.593 . S
C161 C64 1.589 . S
C163 C91 1.598 . S
C179 C122 1.583 1_565 S
C181 C95 1.592 . S
C197 C50 1.476 . S
C199 C29 1.268 . S
C215 C51 1.105 . S
C217 C30 1.192 . S
C233 C93 1.329 . S
C235 C82 1.141 . S
C251 C81 1.350 . S
C253 C94 1.161 . S
C269 C19 1.308 . S
C271 C92 1.267 . S
C287 C103 1.247 . S
C289 C61 1.246 . S
C305 C10 1.284 1_556 S
C307 C62 1.295 . S
C323 C112 1.321 . S
C325 C31 1.322 . S
C341 C123 1.916 . S
C343 C2 2.017 . S
C359 C72 1.725 . S
C361 C32 1.843 . S
C377 C41 1.695 . S
C379 C63 1.804 . S
C395 C113 1.933 . S
C397 C0 1.944 . S
