# Generated by pormake.
# Topology vbr, (6)-cn, num edge types: 1
# Building blocks:
#     Node 0, Type 0, BuildingBlock: IZENUY_clean_sbu_0, # of connection points: 6
#     Node 1, Type 0, BuildingBlock: IZENUY_clean_sbu_0, # of connection points: 6
#     Node 2, Type 0, BuildingBlock: IZENUY_clean_sbu_0, # of connection points: 6
#     Node 3, Type 0, BuildingBlock: IZENUY_clean_sbu_0, # of connection points: 6
#     Node 4, Type 0, BuildingBlock: IZENUY_clean_sbu_0, # of connection points: 6
#     Node 5, Type 0, BuildingBlock: IZENUY_clean_sbu_0, # of connection points: 6
#     Node 6, Type 0, BuildingBlock: IZENUY_clean_sbu_0, # of connection points: 6
#     Node 7, Type 0, BuildingBlock: IZENUY_clean_sbu_0, # of connection points: 6
#     Node 8, Type 0, BuildingBlock: IZENUY_clean_sbu_0, # of connection points: 6
#     Node 9, Type 0, BuildingBlock: IZENUY_clean_sbu_0, # of connection points: 6
#     Node 10, Type 0, BuildingBlock: IZENUY_clean_sbu_0, # of connection points: 6
#     Node 11, Type 0, BuildingBlock: IZENUY_clean_sbu_0, # of connection points: 6
#     Node 12, Type 0, BuildingBlock: IZENUY_clean_sbu_0, # of connection points: 6
#     Node 13, Type 0, BuildingBlock: IZENUY_clean_sbu_0, # of connection points: 6
#     Node 14, Type 0, BuildingBlock: IZENUY_clean_sbu_0, # of connection points: 6
#     Node 15, Type 0, BuildingBlock: IZENUY_clean_sbu_0, # of connection points: 6
#     Edge 16, Type (0, 0), BuildingBlock: XUDNAN_clean_linker_2, # of connection points: 2
#     Edge 17, Type (0, 0), BuildingBlock: XUDNAN_clean_linker_2, # of connection points: 2
#     Edge 18, Type (0, 0), BuildingBlock: XUDNAN_clean_linker_2, # of connection points: 2
#     Edge 19, Type (0, 0), BuildingBlock: XUDNAN_clean_linker_2, # of connection points: 2
#     Edge 20, Type (0, 0), BuildingBlock: XUDNAN_clean_linker_2, # of connection points: 2
#     Edge 21, Type (0, 0), BuildingBlock: XUDNAN_clean_linker_2, # of connection points: 2
#     Edge 22, Type (0, 0), BuildingBlock: XUDNAN_clean_linker_2, # of connection points: 2
#     Edge 23, Type (0, 0), BuildingBlock: XUDNAN_clean_linker_2, # of connection points: 2
#     Edge 24, Type (0, 0), BuildingBlock: XUDNAN_clean_linker_2, # of connection points: 2
#     Edge 25, Type (0, 0), BuildingBlock: XUDNAN_clean_linker_2, # of connection points: 2
#     Edge 26, Type (0, 0), BuildingBlock: XUDNAN_clean_linker_2, # of connection points: 2
#     Edge 27, Type (0, 0), BuildingBlock: XUDNAN_clean_linker_2, # of connection points: 2
#     Edge 28, Type (0, 0), BuildingBlock: XUDNAN_clean_linker_2, # of connection points: 2
#     Edge 29, Type (0, 0), BuildingBlock: XUDNAN_clean_linker_2, # of connection points: 2
#     Edge 30, Type (0, 0), BuildingBlock: XUDNAN_clean_linker_2, # of connection points: 2
#     Edge 31, Type (0, 0), BuildingBlock: XUDNAN_clean_linker_2, # of connection points: 2
#     Edge 32, Type (0, 0), BuildingBlock: XUDNAN_clean_linker_2, # of connection points: 2
#     Edge 33, Type (0, 0), BuildingBlock: XUDNAN_clean_linker_2, # of connection points: 2
#     Edge 34, Type (0, 0), BuildingBlock: XUDNAN_clean_linker_2, # of connection points: 2
#     Edge 35, Type (0, 0), BuildingBlock: XUDNAN_clean_linker_2, # of connection points: 2
#     Edge 36, Type (0, 0), BuildingBlock: XUDNAN_clean_linker_2, # of connection points: 2
#     Edge 37, Type (0, 0), BuildingBlock: XUDNAN_clean_linker_2, # of connection points: 2
#     Edge 38, Type (0, 0), BuildingBlock: XUDNAN_clean_linker_2, # of connection points: 2
#     Edge 39, Type (0, 0), BuildingBlock: XUDNAN_clean_linker_2, # of connection points: 2
#     Edge 40, Type (0, 0), BuildingBlock: XUDNAN_clean_linker_2, # of connection points: 2
#     Edge 41, Type (0, 0), BuildingBlock: XUDNAN_clean_linker_2, # of connection points: 2
#     Edge 42, Type (0, 0), BuildingBlock: XUDNAN_clean_linker_2, # of connection points: 2
#     Edge 43, Type (0, 0), BuildingBlock: XUDNAN_clean_linker_2, # of connection points: 2
#     Edge 44, Type (0, 0), BuildingBlock: XUDNAN_clean_linker_2, # of connection points: 2
#     Edge 45, Type (0, 0), BuildingBlock: XUDNAN_clean_linker_2, # of connection points: 2
#     Edge 46, Type (0, 0), BuildingBlock: XUDNAN_clean_linker_2, # of connection points: 2
#     Edge 47, Type (0, 0), BuildingBlock: XUDNAN_clean_linker_2, # of connection points: 2
#     Edge 48, Type (0, 0), BuildingBlock: XUDNAN_clean_linker_2, # of connection points: 2
#     Edge 49, Type (0, 0), BuildingBlock: XUDNAN_clean_linker_2, # of connection points: 2
#     Edge 50, Type (0, 0), BuildingBlock: XUDNAN_clean_linker_2, # of connection points: 2
#     Edge 51, Type (0, 0), BuildingBlock: XUDNAN_clean_linker_2, # of connection points: 2
#     Edge 52, Type (0, 0), BuildingBlock: XUDNAN_clean_linker_2, # of connection points: 2
#     Edge 53, Type (0, 0), BuildingBlock: XUDNAN_clean_linker_2, # of connection points: 2
#     Edge 54, Type (0, 0), BuildingBlock: XUDNAN_clean_linker_2, # of connection points: 2
#     Edge 55, Type (0, 0), BuildingBlock: XUDNAN_clean_linker_2, # of connection points: 2
#     Edge 56, Type (0, 0), BuildingBlock: XUDNAN_clean_linker_2, # of connection points: 2
#     Edge 57, Type (0, 0), BuildingBlock: XUDNAN_clean_linker_2, # of connection points: 2
#     Edge 58, Type (0, 0), BuildingBlock: XUDNAN_clean_linker_2, # of connection points: 2
#     Edge 59, Type (0, 0), BuildingBlock: XUDNAN_clean_linker_2, # of connection points: 2
#     Edge 60, Type (0, 0), BuildingBlock: XUDNAN_clean_linker_2, # of connection points: 2
#     Edge 61, Type (0, 0), BuildingBlock: XUDNAN_clean_linker_2, # of connection points: 2
#     Edge 62, Type (0, 0), BuildingBlock: XUDNAN_clean_linker_2, # of connection points: 2
#     Edge 63, Type (0, 0), BuildingBlock: XUDNAN_clean_linker_2, # of connection points: 2
# Relax obj value: 0.289
# Max RMSD: 0.272
# Mean RMSD: 0.272
data_MOF--net-vbr--node1-IZENUY_clean_sbu_0--edge1-XUDNAN_clean_linker_2
_symmetry_space_group_name_H-M    P1
_symmetry_Int_Tables_number       1
_symmetry_cell_setting            triclinic
loop_
_symmetry_equiv_pos_as_xyz
'x, y, z'
_cell_length_a     42.968071
_cell_length_b     28.558604
_cell_length_c     53.906272
_cell_angle_alpha  89.999255
_cell_angle_beta   90.158404
_cell_angle_gamma 89.985931
loop_
_atom_site_label
_atom_site_type_symbol
_atom_site_fract_x
_atom_site_fract_y
_atom_site_fract_z
_atom_type_partial_charge
Fe0 Fe 0.35884 0.17331 0.11263 0.0
Fe1 Fe 0.35496 0.08171 0.14238 0.0
O2 O 0.33758 0.13428 0.13176 0.0
Fe3 Fe 0.29864 0.14786 0.13971 0.0
O4 O 0.28689 0.14771 0.10734 0.0
O5 O 0.32483 0.19397 0.09525 0.0
O6 O 0.36295 0.12926 0.08897 0.0
C7 C 0.37403 0.08885 0.0919 0.0
C8 C 0.3291 0.23694 0.14092 0.0
O9 O 0.37789 0.07193 0.11357 0.0
C10 C 0.31867 0.11363 0.18402 0.0
O11 O 0.39708 0.15935 0.12605 0.0
O12 O 0.38667 0.11303 0.15739 0.0
O13 O 0.3049 0.21155 0.13956 0.0
O14 O 0.35532 0.22046 0.13499 0.0
C15 C 0.29635 0.04949 0.13236 0.0
O16 O 0.33416 0.08216 0.17265 0.0
O17 O 0.30794 0.14851 0.17246 0.0
C18 C 0.40514 0.14006 0.1462 0.0
O19 O 0.32505 0.04611 0.12816 0.0
O20 O 0.28504 0.08679 0.14124 0.0
C21 C 0.29916 0.17378 0.09129 0.0
Fe22 Fe 0.2291 0.86364 0.63922 0.0
Fe23 Fe 0.16898 0.846 0.61043 0.0
O24 O 0.19059 0.8805 0.6317 0.0
Fe25 Fe 0.17429 0.9318 0.64513 0.0
O26 O 0.20535 0.96821 0.6333 0.0
O27 O 0.24369 0.92321 0.64533 0.0
O28 O 0.24169 0.86997 0.60734 0.0
C29 C 0.22963 0.84694 0.58979 0.0
C30 C 0.2081 0.8876 0.68493 0.0
O31 O 0.20289 0.82878 0.59203 0.0
C32 C 0.12344 0.87354 0.6457 0.0
O33 O 0.22226 0.8007 0.63512 0.0
O34 O 0.17188 0.7941 0.62981 0.0
O35 O 0.19435 0.92346 0.67587 0.0
O36 O 0.21853 0.8559 0.67103 0.0
C37 C 0.15531 0.9349 0.5943 0.0
O38 O 0.13114 0.85744 0.62474 0.0
O39 O 0.1413 0.90011 0.65783 0.0
C40 C 0.19772 0.77617 0.63557 0.0
O41 O 0.16512 0.89446 0.58949 0.0
O42 O 0.15231 0.94869 0.61667 0.0
C43 C 0.23362 0.96273 0.63848 0.0
Fe44 Fe 0.35454 0.92457 0.88346 0.0
Fe45 Fe 0.29888 0.85865 0.89178 0.0
O46 O 0.33805 0.87425 0.89774 0.0
Fe47 Fe 0.36046 0.83883 0.91816 0.0
O48 O 0.36604 0.88684 0.93907 0.0
O49 O 0.37799 0.94099 0.91134 0.0
O50 O 0.32488 0.96286 0.8957 0.0
C51 C 0.2961 0.95835 0.89229 0.0
C52 C 0.40507 0.86577 0.88196 0.0
O53 O 0.28463 0.91882 0.88692 0.0
C54 C 0.32968 0.77017 0.89379 0.0
O55 O 0.33293 0.91683 0.85339 0.0
O56 O 0.30693 0.8513 0.85948 0.0
O57 O 0.39786 0.84997 0.90307 0.0
O58 O 0.38623 0.89099 0.86993 0.0
C59 C 0.30081 0.83966 0.94081 0.0
O60 O 0.30544 0.7954 0.89508 0.0
O61 O 0.35604 0.78746 0.89856 0.0
C62 C 0.31737 0.8821 0.84506 0.0
O63 O 0.28842 0.86443 0.92414 0.0
O64 O 0.3274 0.82159 0.93755 0.0
C65 C 0.37662 0.92661 0.93373 0.0
Fe66 Fe 0.16871 0.18518 0.4133 0.0
Fe67 Fe 0.17415 0.08881 0.38711 0.0
O68 O 0.19088 0.14292 0.39676 0.0
Fe69 Fe 0.23069 0.15523 0.3903 0.0
O70 O 0.24003 0.15642 0.42326 0.0
O71 O 0.20142 0.20413 0.43261 0.0
O72 O 0.16 0.14451 0.43768 0.0
C73 C 0.15075 0.10285 0.43623 0.0
C74 C 0.20285 0.24564 0.38636 0.0
O75 O 0.15105 0.08049 0.4158 0.0
C76 C 0.21216 0.11914 0.34584 0.0
O77 O 0.132 0.17315 0.39761 0.0
O78 O 0.14181 0.11677 0.3709 0.0
O79 O 0.22607 0.21908 0.38962 0.0
O80 O 0.17586 0.23025 0.39026 0.0
C81 C 0.23261 0.05703 0.39814 0.0
O82 O 0.19568 0.08856 0.35713 0.0
O83 O 0.22323 0.1542 0.35721 0.0
C84 C 0.12433 0.14866 0.37912 0.0
O85 O 0.20397 0.05434 0.40242 0.0
O86 O 0.24407 0.09425 0.38954 0.0
C87 C 0.22614 0.18273 0.43848 0.0
Fe88 Fe 0.68179 0.91837 0.8869 0.0
Fe89 Fe 0.67379 0.82528 0.91455 0.0
O90 O 0.69754 0.86416 0.89705 0.0
Fe91 Fe 0.73696 0.85007 0.89026 0.0
O92 O 0.75185 0.90304 0.90533 0.0
O93 O 0.71821 0.95013 0.88776 0.0
O94 O 0.67576 0.93685 0.9192 0.0
C95 C 0.66152 0.91303 0.93542 0.0
C96 C 0.71471 0.8916 0.8456 0.0
O97 O 0.65257 0.87192 0.93043 0.0
C98 C 0.70948 0.76388 0.88416 0.0
O99 O 0.6417 0.89739 0.88377 0.0
O100 O 0.64457 0.82172 0.89014 0.0
O101 O 0.73649 0.87846 0.85988 0.0
O102 O 0.68824 0.90306 0.85424 0.0
C103 C 0.72916 0.81415 0.93914 0.0
O104 O 0.6911 0.77212 0.90188 0.0
O105 O 0.72616 0.79576 0.87482 0.0
C106 C 0.6305 0.85675 0.88136 0.0
O107 O 0.70077 0.82497 0.94064 0.0
O108 O 0.74392 0.81857 0.91906 0.0
C109 C 0.74316 0.94385 0.89955 0.0
Fe110 Fe 0.86575 0.17544 0.41803 0.0
Fe111 Fe 0.79761 0.15119 0.40488 0.0
O112 O 0.83794 0.13755 0.40429 0.0
Fe113 Fe 0.85105 0.08459 0.39043 0.0
O114 O 0.86461 0.06371 0.4208 0.0
O115 O 0.8909 0.12757 0.42878 0.0
O116 O 0.84718 0.17258 0.44797 0.0
C117 C 0.81908 0.1816 0.45243 0.0
C118 C 0.90033 0.14758 0.37889 0.0
O119 O 0.79854 0.17917 0.43556 0.0
C120 C 0.80797 0.114 0.35623 0.0
O121 O 0.84524 0.22958 0.41022 0.0
O122 O 0.80337 0.20736 0.38971 0.0
O123 O 0.89012 0.10644 0.38212 0.0
O124 O 0.88669 0.18154 0.38903 0.0
C125 C 0.79392 0.05636 0.41151 0.0
O126 O 0.79048 0.12597 0.37413 0.0
O127 O 0.83639 0.10295 0.35981 0.0
C128 C 0.82211 0.23888 0.39656 0.0
O129 O 0.78739 0.09618 0.42022 0.0
O130 O 0.81548 0.05173 0.39591 0.0
C131 C 0.88246 0.08676 0.43499 0.0
Fe132 Fe 0.68516 0.0747 0.1491 0.0
Fe133 Fe 0.67632 0.15675 0.11268 0.0
O134 O 0.69989 0.1256 0.13427 0.0
Fe135 Fe 0.7387 0.14406 0.14057 0.0
O136 O 0.75476 0.08816 0.12949 0.0
O137 O 0.72259 0.04505 0.15119 0.0
O138 O 0.67967 0.04538 0.1193 0.0
C139 C 0.66631 0.06225 0.10037 0.0
C140 C 0.71699 0.11397 0.18786 0.0
O141 O 0.65765 0.10455 0.09979 0.0
C142 C 0.7085 0.22896 0.13929 0.0
O143 O 0.6446 0.09425 0.14982 0.0
O144 O 0.64526 0.16581 0.13502 0.0
O145 O 0.73872 0.12361 0.17286 0.0
O146 O 0.69066 0.10051 0.17986 0.0
C147 C 0.73209 0.16584 0.08935 0.0
O148 O 0.69148 0.21431 0.12167 0.0
O149 O 0.72555 0.20111 0.15167 0.0
C150 C 0.63186 0.13377 0.147 0.0
O151 O 0.70476 0.15045 0.08813 0.0
O152 O 0.74584 0.16929 0.10995 0.0
C153 C 0.74699 0.04879 0.13839 0.0
Fe154 Fe 0.86309 0.85451 0.61256 0.0
Fe155 Fe 0.79568 0.87647 0.62813 0.0
O156 O 0.83609 0.88959 0.62897 0.0
Fe157 Fe 0.84962 0.93901 0.64596 0.0
O158 O 0.8633 0.96638 0.61745 0.0
O159 O 0.88764 0.90418 0.60319 0.0
O160 O 0.84326 0.86297 0.58353 0.0
C161 C 0.81525 0.85382 0.57915 0.0
C162 C 0.89934 0.87405 0.65248 0.0
O163 O 0.79548 0.8527 0.59647 0.0
C164 C 0.80643 0.90489 0.67829 0.0
O165 O 0.84272 0.79923 0.61853 0.0
O166 O 0.80179 0.81849 0.64097 0.0
O167 O 0.88872 0.91536 0.6527 0.0
O168 O 0.88552 0.84278 0.64032 0.0
C169 C 0.79277 0.9717 0.62593 0.0
O170 O 0.78886 0.89715 0.65978 0.0
O171 O 0.83512 0.91458 0.67533 0.0
C172 C 0.82035 0.7881 0.63259 0.0
O173 O 0.78598 0.93375 0.61517 0.0
O174 O 0.81402 0.97292 0.64215 0.0
C175 C 0.88023 0.94701 0.60128 0.0
Fe176 Fe 0.86547 0.65471 0.11155 0.0
Fe177 Fe 0.85595 0.57542 0.14928 0.0
O178 O 0.84117 0.62487 0.13305 0.0
Fe179 Fe 0.80192 0.64305 0.13761 0.0
O180 O 0.79542 0.66268 0.10557 0.0
O181 O 0.83868 0.64369 0.08645 0.0
O182 O 0.88631 0.60228 0.1011 0.0
C183 C 0.87759 0.56004 0.10173 0.0
C184 C 0.83083 0.72873 0.13414 0.0
O185 O 0.86282 0.54448 0.12022 0.0
C186 C 0.82255 0.61741 0.18623 0.0
O187 O 0.89466 0.66774 0.13503 0.0
O188 O 0.89611 0.59684 0.15075 0.0
O189 O 0.81382 0.70177 0.14688 0.0
O190 O 0.84866 0.7126 0.11754 0.0
C191 C 0.79445 0.54719 0.13838 0.0
O192 O 0.84896 0.6025 0.17937 0.0
O193 O 0.80146 0.62722 0.17058 0.0
C194 C 0.90796 0.63708 0.14814 0.0
O195 O 0.81904 0.5445 0.15109 0.0
O196 O 0.78655 0.58558 0.12846 0.0
C197 C 0.81038 0.65484 0.08586 0.0
Fe198 Fe 0.67113 0.34821 0.61323 0.0
Fe199 Fe 0.67236 0.43735 0.6454 0.0
O200 O 0.69098 0.38607 0.63399 0.0
Fe201 Fe 0.7297 0.3727 0.64297 0.0
O202 O 0.74345 0.37453 0.61118 0.0
O203 O 0.70592 0.33056 0.59619 0.0
O204 O 0.66704 0.39433 0.59076 0.0
C205 C 0.65512 0.43394 0.59439 0.0
C206 C 0.70054 0.2827 0.64088 0.0
O207 O 0.65031 0.44877 0.61632 0.0
C208 C 0.70781 0.40368 0.68725 0.0
O209 O 0.63251 0.35901 0.6262 0.0
O210 O 0.64033 0.40406 0.65875 0.0
O211 O 0.72432 0.30899 0.64145 0.0
O212 O 0.67451 0.29881 0.63419 0.0
C213 C 0.73092 0.47189 0.63778 0.0
O214 O 0.69214 0.4354 0.6762 0.0
O215 O 0.7188 0.36963 0.67527 0.0
C216 C 0.62363 0.37553 0.64674 0.0
O217 O 0.70232 0.47494 0.63287 0.0
O218 O 0.7424 0.43406 0.64598 0.0
C219 C 0.73244 0.34925 0.5941 0.0
Fe220 Fe 0.85636 0.31862 0.91513 0.0
Fe221 Fe 0.85288 0.41732 0.89139 0.0
O222 O 0.83572 0.36222 0.89841 0.0
Fe223 Fe 0.79692 0.35008 0.88907 0.0
O224 O 0.78463 0.34647 0.92126 0.0
O225 O 0.82183 0.29686 0.93154 0.0
O226 O 0.8619 0.3569 0.94104 0.0
C227 C 0.87186 0.39829 0.94151 0.0
C228 C 0.82573 0.26041 0.88468 0.0
O229 O 0.8736 0.42273 0.92175 0.0
C230 C 0.81891 0.39034 0.84704 0.0
O231 O 0.89446 0.33302 0.90243 0.0
O232 O 0.88652 0.3912 0.87638 0.0
O233 O 0.80202 0.28625 0.88727 0.0
O234 O 0.85212 0.27625 0.89029 0.0
C235 C 0.79362 0.4477 0.89875 0.0
O236 O 0.83389 0.42036 0.86012 0.0
O237 O 0.80776 0.35372 0.85679 0.0
C238 C 0.90347 0.35897 0.88492 0.0
O239 O 0.82149 0.44978 0.90576 0.0
O240 O 0.78337 0.41099 0.88865 0.0
C241 C 0.7965 0.3176 0.93631 0.0
Fe242 Fe 0.67189 0.68269 0.41542 0.0
Fe243 Fe 0.67613 0.58915 0.38686 0.0
O244 O 0.69331 0.6423 0.39715 0.0
Fe245 Fe 0.73238 0.65525 0.3891 0.0
O246 O 0.74427 0.65597 0.42136 0.0
O247 O 0.70564 0.70109 0.43376 0.0
O248 O 0.66519 0.63981 0.43914 0.0
C249 C 0.65424 0.59934 0.43649 0.0
C250 C 0.70406 0.74597 0.38861 0.0
O251 O 0.65272 0.57993 0.41531 0.0
C252 C 0.71236 0.62025 0.34521 0.0
O253 O 0.63425 0.67042 0.40068 0.0
O254 O 0.64466 0.61969 0.37116 0.0
O255 O 0.72739 0.71898 0.38934 0.0
O256 O 0.67734 0.73003 0.39326 0.0
C257 C 0.73437 0.55654 0.39665 0.0
O258 O 0.69741 0.58867 0.35688 0.0
O259 O 0.72261 0.65579 0.35644 0.0
C260 C 0.62655 0.64903 0.38104 0.0
O261 O 0.70587 0.55397 0.40172 0.0
O262 O 0.74552 0.59382 0.38758 0.0
C263 C 0.73214 0.68274 0.4373 0.0
Fe264 Fe 0.18072 0.42878 0.88688 0.0
Fe265 Fe 0.17309 0.33901 0.91743 0.0
O266 O 0.19644 0.37533 0.89837 0.0
Fe267 Fe 0.23539 0.35946 0.89125 0.0
O268 O 0.251 0.41351 0.90479 0.0
O269 O 0.21772 0.45934 0.88582 0.0
O270 O 0.17665 0.45078 0.91854 0.0
C271 C 0.16255 0.42996 0.93585 0.0
C272 C 0.21185 0.39694 0.84596 0.0
O273 O 0.15303 0.38831 0.93278 0.0
C274 C 0.2069 0.27368 0.88783 0.0
O275 O 0.13987 0.40861 0.8857 0.0
O276 O 0.14371 0.33372 0.89352 0.0
O277 O 0.23404 0.38501 0.86017 0.0
O278 O 0.18573 0.41006 0.85461 0.0
C279 C 0.22879 0.32833 0.94113 0.0
O280 O 0.18933 0.28392 0.90583 0.0
O281 O 0.22346 0.30437 0.87734 0.0
C282 C 0.12875 0.36761 0.88459 0.0
O283 O 0.20071 0.34041 0.94274 0.0
O284 O 0.24309 0.32987 0.92071 0.0
C285 C 0.2427 0.45388 0.89779 0.0
Fe286 Fe 0.2974 0.65399 0.39847 0.0
Fe287 Fe 0.35138 0.5877 0.38553 0.0
O288 O 0.33757 0.63913 0.40017 0.0
Fe289 Fe 0.36439 0.67408 0.41695 0.0
O290 O 0.34265 0.66737 0.44516 0.0
O291 O 0.29551 0.67823 0.43014 0.0
O292 O 0.28503 0.59771 0.41123 0.0
C293 C 0.29216 0.55885 0.40172 0.0
C294 C 0.32361 0.74159 0.39517 0.0
O295 O 0.31489 0.55576 0.38714 0.0
C296 C 0.40191 0.65018 0.37877 0.0
O297 O 0.29324 0.63301 0.3662 0.0
O298 O 0.34089 0.61137 0.35529 0.0
O299 O 0.34519 0.72983 0.40993 0.0
O300 O 0.30553 0.71156 0.38579 0.0
C301 C 0.37843 0.58283 0.43161 0.0
O302 O 0.39118 0.60908 0.3805 0.0
O303 O 0.38867 0.68343 0.38989 0.0
C304 C 0.31359 0.62484 0.34963 0.0
O305 O 0.36133 0.56235 0.41581 0.0
O306 O 0.38785 0.62407 0.42735 0.0
C307 C 0.31443 0.67737 0.44825 0.0
Fe308 Fe 0.18582 0.58414 0.15022 0.0
Fe309 Fe 0.169 0.65831 0.11082 0.0
O310 O 0.19698 0.6308 0.13034 0.0
Fe311 Fe 0.23656 0.64801 0.12954 0.0
O312 O 0.24917 0.58985 0.11976 0.0
O313 O 0.2233 0.55408 0.14917 0.0
O314 O 0.17514 0.54936 0.12334 0.0
C315 C 0.15897 0.56225 0.10493 0.0
C316 C 0.22534 0.63192 0.18074 0.0
O317 O 0.148 0.60348 0.10403 0.0
C318 C 0.20748 0.73335 0.12832 0.0
O319 O 0.14565 0.60422 0.1547 0.0
O320 O 0.14385 0.67279 0.13662 0.0
O321 O 0.24337 0.63455 0.16221 0.0
O322 O 0.19767 0.61685 0.1781 0.0
C323 C 0.21841 0.65947 0.07916 0.0
O324 O 0.18618 0.71723 0.1143 0.0
O325 O 0.2268 0.70677 0.13904 0.0
C326 C 0.13234 0.64315 0.1512 0.0
O327 O 0.19095 0.64652 0.083 0.0
O328 O 0.23689 0.66605 0.09703 0.0
C329 C 0.24367 0.55348 0.13233 0.0
Fe330 Fe 0.34746 0.43252 0.64473 0.0
Fe331 Fe 0.35224 0.34416 0.61217 0.0
O332 O 0.33044 0.38087 0.63226 0.0
Fe333 Fe 0.29136 0.36633 0.63971 0.0
O334 O 0.27665 0.42091 0.62639 0.0
O335 O 0.31109 0.46545 0.64522 0.0
O336 O 0.35389 0.45625 0.61382 0.0
C337 C 0.36681 0.43537 0.59594 0.0
C338 C 0.31473 0.40216 0.68515 0.0
O339 O 0.37322 0.3922 0.59709 0.0
C340 C 0.31867 0.27996 0.6424 0.0
O341 O 0.38736 0.40926 0.64624 0.0
O342 O 0.38258 0.33565 0.63524 0.0
O343 O 0.2926 0.39196 0.67068 0.0
O344 O 0.34133 0.41295 0.67676 0.0
C345 C 0.29592 0.33729 0.58932 0.0
O346 O 0.33451 0.28968 0.62332 0.0
O347 O 0.30322 0.31105 0.6536 0.0
C348 C 0.39811 0.36805 0.64522 0.0
O349 O 0.32393 0.34943 0.58735 0.0
O350 O 0.28274 0.33725 0.61024 0.0
C351 C 0.28562 0.46084 0.63365 0.0
H352 H 0.26485 0.25078 0.08035 0.0
H353 H 0.30014 0.12087 0.05002 0.0
H354 H 0.28568 0.14711 1.0077 0.0
H355 H 0.19768 0.26137 0.03564 0.0
H356 H 0.20116 0.32425 0.03458 0.0
H357 H 0.21147 0.29299 0.06246 0.0
H358 H 0.26591 0.3317 0.06149 0.0
H359 H 0.25605 0.3621 0.0333 0.0
H360 H 0.28998 0.32499 0.03438 0.0
H361 H 0.27566 0.1921 0.96918 0.0
H362 H 0.25987 0.24671 0.93601 0.0
H363 H 0.22614 0.34465 0.99132 0.0
C364 C 0.2683 0.2273 0.06481 0.0
C365 C 0.28319 0.18378 0.06804 0.0
C366 C 0.28839 0.1541 0.04756 0.0
C367 C 0.28045 0.16879 0.02361 0.0
C368 C 0.26685 0.21275 0.02079 0.0
C369 C 0.25982 0.241 0.04085 0.0
C370 C 0.24564 0.28701 0.03256 0.0
C371 C 0.21198 0.29165 0.04185 0.0
C372 C 0.2656 0.3289 0.04093 0.0
C373 C 0.24675 0.28069 1.0047 0.0
C374 C 0.25947 0.23787 0.99836 0.0
C375 C 0.26504 0.22532 0.97384 0.0
C376 C 0.2564 0.25678 0.95519 0.0
C377 C 0.24191 0.29982 0.96122 0.0
C378 C 0.23712 0.31196 0.98627 0.0
H379 H 0.25883 0.7188 0.46126 0.0
H380 H 0.35041 0.6827 0.48998 0.0
H381 H 0.34 0.72859 0.52759 0.0
H382 H 0.25615 0.83547 0.48387 0.0
H383 H 0.21567 0.83396 0.49252 0.0
H384 H 0.2295 0.79758 0.46757 0.0
H385 H 0.20837 0.72335 0.48936 0.0
H386 H 0.19361 0.75953 0.51402 0.0
H387 H 0.21944 0.71155 0.52104 0.0
H388 H 0.32159 0.78234 0.56073 0.0
H389 H 0.29171 0.8276 0.5916 0.0
H390 H 0.21125 0.82561 0.54278 0.0
C391 C 0.27648 0.71986 0.47563 0.0
C392 C 0.30554 0.6975 0.47248 0.0
C393 C 0.32802 0.69979 0.49179 0.0
C394 C 0.32247 0.72606 0.5132 0.0
C395 C 0.2942 0.74937 0.51521 0.0
C396 C 0.27123 0.74558 0.49731 0.0
C397 C 0.24241 0.77273 0.50464 0.0
C398 C 0.23555 0.81228 0.48604 0.0
C399 C 0.2143 0.73982 0.50744 0.0
C400 C 0.25286 0.79214 0.52944 0.0
C401 C 0.28304 0.77903 0.53492 0.0
C402 C 0.29787 0.79272 0.55676 0.0
C403 C 0.28086 0.81883 0.57404 0.0
C404 C 0.24931 0.83005 0.56945 0.0
C405 C 0.23543 0.81754 0.54662 0.0
H406 H 0.27398 0.69728 0.06482 0.0
H407 H 0.18067 0.66662 0.03812 0.0
H408 H 0.19069 0.71393 1.0007 0.0
H409 H 0.2764 0.81431 0.04579 0.0
H410 H 0.31667 0.81356 0.03653 0.0
H411 H 0.30331 0.77454 0.06048 0.0
H412 H 0.32369 0.70269 0.03594 0.0
H413 H 0.33803 0.74157 1.0123 0.0
H414 H 0.31187 0.69468 1.00411 0.0
H415 H 0.20925 0.77068 0.96816 0.0
H416 H 0.23861 0.82031 0.93882 0.0
H417 H 0.31984 0.81181 0.98658 0.0
C418 C 0.25584 0.69958 0.05089 0.0
C419 C 0.22648 0.67849 0.05452 0.0
C420 C 0.20337 0.6825 0.0358 0.0
C421 C 0.20873 0.70962 1.01456 0.0
C422 C 0.23736 0.73201 1.01227 0.0
C423 C 0.26079 0.7263 0.02962 0.0
C424 C 0.28949 0.754 0.02281 0.0
C425 C 0.29689 0.7913 0.04258 0.0
C426 C 0.31741 0.72128 0.01852 0.0
C427 C 0.27855 0.77626 0.9989 0.0
C428 C 0.24825 0.76377 0.99332 0.0
C429 C 0.23305 0.78049 0.97224 0.0
C430 C 0.24975 0.80911 0.95587 0.0
C431 C 0.28137 0.81996 0.9606 0.0
C432 C 0.29562 0.80419 0.98266 0.0
H433 H 0.31483 0.33203 0.54049 0.0
H434 H 0.24344 0.28382 0.59148 0.0
H435 H 0.22287 0.23132 0.55934 0.0
H436 H 0.26515 0.33346 0.48623 0.0
H437 H 0.29565 0.31425 0.4657 0.0
H438 H 0.30524 0.34713 0.49313 0.0
H439 H 0.34268 0.28058 0.5064 0.0
H440 H 0.33229 0.24704 0.47929 0.0
H441 H 0.32797 0.22179 0.50974 0.0
H442 H 0.20983 0.18411 0.52264 0.0
H443 H 0.19943 0.15398 0.48055 0.0
H444 H 0.27756 0.23328 0.45213 0.0
C445 C 0.2947 0.31073 0.5448 0.0
C446 C 0.28096 0.31181 0.56862 0.0
C447 C 0.25446 0.28369 0.57343 0.0
C448 C 0.24273 0.25334 0.55537 0.0
C449 C 0.25741 0.25197 0.53243 0.0
C450 C 0.28231 0.28061 0.52681 0.0
C451 C 0.29248 0.27398 0.50012 0.0
C452 C 0.2894 0.31996 0.48544 0.0
C453 C 0.32584 0.25469 0.49883 0.0
C454 C 0.26898 0.23773 0.49156 0.0
C455 C 0.24946 0.2249 0.51077 0.0
C456 C 0.22504 0.19352 0.50747 0.0
C457 C 0.21945 0.17634 0.48361 0.0
C458 C 0.23819 0.19059 0.46349 0.0
C459 C 0.2637 0.22075 0.46751 0.0
H460 H 0.71601 0.81302 0.98944 0.0
H461 H 0.77471 0.74992 0.93304 0.0
H462 H 0.79706 0.69702 0.96415 0.0
H463 H 0.77482 0.81112 0.03714 0.0
H464 H 0.74803 0.79857 0.06194 0.0
H465 H 0.73486 0.83004 0.03495 0.0
H466 H 0.69146 0.76832 0.0283 0.0
H467 H 0.70482 0.73626 0.0551 0.0
H468 H 0.70174 0.70734 0.02547 0.0
H469 H 0.8131 0.65082 1.00003 0.0
H470 H 0.82849 0.62154 0.04131 0.0
H471 H 0.762 0.71532 0.07578 0.0
C472 C 0.73353 0.78798 0.98374 0.0
C473 C 0.74361 0.78562 0.95884 0.0
C474 C 0.76679 0.75272 0.95204 0.0
C475 C 0.77939 0.72203 0.96949 0.0
C476 C 0.76877 0.72474 0.99374 0.0
C477 C 0.74688 0.75733 1.00112 0.0
C478 C 0.74163 0.7548 0.02891 0.0
C479 C 0.75037 0.80139 0.04147 0.0
C480 C 0.7079 0.74084 0.03478 0.0
C481 C 0.76423 0.71603 0.03582 0.0
C482 C 0.77911 0.69876 1.01507 0.0
C483 C 0.8017 0.66398 0.0165 0.0
C484 C 0.81029 0.64759 0.03993 0.0
C485 C 0.79657 0.66627 0.06158 0.0
C486 C 0.77258 0.69998 0.05947 0.0
H487 H 0.71427 0.32407 0.54777 0.0
H488 H 0.7954 0.33481 0.59549 0.0
H489 H 0.8266 0.29201 0.56431 0.0
H490 H 0.72665 0.21079 0.52708 0.0
H491 H 0.71394 0.2206 0.49561 0.0
H492 H 0.69867 0.25613 0.52031 0.0
H493 H 0.71675 0.33175 0.49792 0.0
H494 H 0.73125 0.29643 0.47279 0.0
H495 H 0.75675 0.33708 0.48835 0.0
H496 H 0.84703 0.24069 0.53006 0.0
H497 H 0.85774 0.19455 0.49238 0.0
H498 H 0.76314 0.21918 0.46679 0.0
C499 C 0.73881 0.31835 0.55135 0.0
C500 C 0.75256 0.33272 0.5739 0.0
C501 C 0.78462 0.32457 0.57813 0.0
C502 C 0.80239 0.29996 0.56065 0.0
C503 C 0.78777 0.2846 0.539 0.0
C504 C 0.75689 0.29446 0.53403 0.0
C505 C 0.74652 0.27339 0.50963 0.0
C506 C 0.71987 0.23814 0.5134 0.0
C507 C 0.73729 0.31197 0.49108 0.0
C508 C 0.7762 0.24905 0.5019 0.0
C509 C 0.79968 0.25581 0.5191 0.0
C510 C 0.82896 0.2357 0.51628 0.0
C511 C 0.83473 0.20928 0.49488 0.0
C512 C 0.81132 0.20337 0.47652 0.0
C513 C 0.78153 0.22291 0.48042 0.0
H514 H 0.73393 0.14344 0.03976 0.0
H515 H 0.75437 0.25386 0.09261 0.0
H516 H 0.76729 0.30743 0.0583 0.0
H517 H 0.79838 0.17112 1.00035 0.0
H518 H 0.7789 0.15751 0.97169 0.0
H519 H 0.76791 0.12772 0.99975 0.0
H520 H 0.71084 0.15363 0.99449 0.0
H521 H 0.72053 0.18329 0.96607 0.0
H522 H 0.70177 0.21481 0.99081 0.0
H523 H 0.77636 0.34979 0.01864 0.0
H524 H 0.79115 0.374 0.97615 0.0
H525 H 0.77001 0.2347 0.9491 0.0
C526 C 0.74133 0.17881 0.04395 0.0
C527 C 0.74333 0.19463 0.06867 0.0
C528 C 0.75316 0.24101 0.07371 0.0
C529 C 0.76013 0.27185 0.05438 0.0
C530 C 0.75762 0.25551 0.03015 0.0
C531 C 0.74926 0.20979 0.02484 0.0
C532 C 0.75124 0.20014 0.99727 0.0
C533 C 0.77553 0.16185 0.99195 0.0
C534 C 0.71919 0.18719 0.98653 0.0
C535 C 0.76189 0.24759 0.98799 0.0
C536 C 0.76465 0.27932 1.00723 0.0
C537 C 0.77424 0.32538 1.00337 0.0
C538 C 0.78226 0.33898 0.97926 0.0
C539 C 0.78104 0.30634 0.95963 0.0
C540 C 0.77043 0.26034 0.96392 0.0
H541 H 0.71231 0.71114 0.48255 0.0
H542 H 0.79454 0.70057 0.43637 0.0
H543 H 0.82417 0.74752 0.46692 0.0
H544 H 0.72283 0.82744 0.50184 0.0
H545 H 0.70963 0.81834 0.53319 0.0
H546 H 0.69516 0.78173 0.50853 0.0
H547 H 0.71349 0.70726 0.53196 0.0
H548 H 0.72725 0.74354 0.557 0.0
H549 H 0.75338 0.70299 0.54215 0.0
H550 H 0.84344 0.79965 0.50092 0.0
H551 H 0.85399 0.84334 0.53928 0.0
H552 H 0.75895 0.81912 0.56354 0.0
C553 C 0.73675 0.71792 0.47919 0.0
C554 C 0.75133 0.70214 0.45733 0.0
C555 C 0.78321 0.71176 0.45329 0.0
C556 C 0.80006 0.7388 0.47036 0.0
C557 C 0.78466 0.7552 0.49136 0.0
C558 C 0.75394 0.74425 0.49612 0.0
C559 C 0.74293 0.76581 0.52017 0.0
C560 C 0.71605 0.80038 0.51564 0.0
C561 C 0.73373 0.72763 0.53893 0.0
C562 C 0.77221 0.79103 0.52811 0.0
C563 C 0.79588 0.78482 0.51111 0.0
C564 C 0.82516 0.80454 0.51444 0.0
C565 C 0.8308 0.82967 0.53626 0.0
C566 C 0.80725 0.83483 0.55448 0.0
C567 C 0.77738 0.81612 0.54996 0.0
H568 H 0.35809 0.01331 0.94994 0.0
H569 H 0.42054 0.89831 0.96624 0.0
H570 H 0.43063 0.93104 1.00788 0.0
H571 H 0.40031 0.10612 0.98748 0.0
H572 H 0.36401 0.13141 0.99752 0.0
H573 H 0.36659 0.10381 0.96753 0.0
H574 H 0.32025 0.05087 0.97927 0.0
H575 H 0.3182 0.07627 1.00975 0.0
H576 H 0.32294 0.01399 1.00636 0.0
H577 H 0.42659 0.96815 0.05015 0.0
H578 H 0.41309 0.01231 0.08824 0.0
H579 H 0.35469 0.10463 0.04429 0.0
C580 C 0.37517 0.99661 0.96182 0.0
C581 C 0.38926 0.95406 0.95468 0.0
C582 C 0.41015 0.93158 0.97121 0.0
C583 C 0.41586 0.94976 0.99496 0.0
C584 C 0.40053 0.9906 1.00198 0.0
C585 C 0.38106 0.01433 0.98574 0.0
C586 C 0.36511 0.05482 0.99874 0.0
C587 C 0.37459 0.10183 0.98712 0.0
C588 C 0.32953 0.04858 0.9985 0.0
C589 C 0.37821 0.04958 0.02477 0.0
C590 C 0.3985 0.01225 0.02634 0.0
C591 C 0.4113 0.9982 0.04903 0.0
C592 C 0.40339 0.02327 0.07061 0.0
C593 C 0.38308 0.06221 0.06932 0.0
C594 C 0.37062 0.07545 0.04596 0.0
H595 H 0.1661 0.91731 0.54519 0.0
H596 H 0.12728 0.02223 0.59454 0.0
H597 H 0.11645 0.07303 0.55822 0.0
H598 H 0.20495 0.99576 0.5058 0.0
H599 H 0.198 0.96234 0.47797 0.0
H600 H 0.20002 0.93314 0.50749 0.0
H601 H 0.14554 0.89731 0.49979 0.0
H602 H 0.14322 0.92671 0.47027 0.0
H603 H 0.11307 0.93526 0.49301 0.0
H604 H 0.1133 0.11419 0.51681 0.0
H605 H 0.12032 0.14448 0.47435 0.0
H606 H 0.16109 0.01227 0.45194 0.0
C607 C 0.15483 0.95065 0.54848 0.0
C608 C 0.14722 0.96552 0.57286 0.0
C609 C 0.13312 0.00988 0.57614 0.0
C610 C 0.12681 0.03886 0.55558 0.0
C611 C 0.13472 0.02297 0.53188 0.0
C612 C 0.14852 0.97991 0.52828 0.0
C613 C 0.15668 0.9721 0.5012 0.0
C614 C 0.192 0.96547 0.49794 0.0
C615 C 0.13853 0.93037 0.49044 0.0
C616 C 0.1457 0.01792 0.49 0.0
C617 C 0.13287 0.04658 0.50802 0.0
C618 C 0.12289 0.09179 0.50256 0.0
C619 C 0.1269 0.10863 0.47834 0.0
C620 C 0.14073 0.08044 0.45971 0.0
C621 C 0.14956 0.03407 0.46555 0.0
H622 H 0.67568 1.00069 0.95541 0.0
H623 H 0.63662 0.8649 0.9742 0.0
H624 H 0.63311 0.88849 0.01782 0.0
H625 H 0.72148 0.01318 1.0098 0.0
H626 H 0.7148 0.07483 1.01416 0.0
H627 H 0.71333 0.05014 0.98344 0.0
H628 H 0.65784 0.08169 0.97659 0.0
H629 H 0.65885 0.10824 1.0069 0.0
H630 H 0.62782 0.06853 0.99884 0.0
H631 H 0.63816 0.9232 0.06028 0.0
H632 H 0.64581 0.97149 0.09805 0.0
H633 H 0.67727 0.08692 0.0523 0.0
C634 C 0.66587 0.97627 0.96862 0.0
C635 C 0.65632 0.93092 0.9611 0.0
C636 C 0.64396 0.89994 0.97919 0.0
C637 C 0.64194 0.91289 1.00419 0.0
C638 C 0.65198 0.9573 1.01105 0.0
C639 C 0.66323 0.98891 0.9938 0.0
C640 C 0.67257 0.03441 1.00639 0.0
C641 C 0.70762 0.04367 1.00324 0.0
C642 C 0.6531 0.07565 0.9966 0.0
C643 C 0.66469 0.02326 0.03324 0.0
C644 C 0.65335 0.97827 0.03555 0.0
C645 C 0.64644 0.95884 0.05868 0.0
C646 C 0.6509 0.98635 0.08003 0.0
C647 C 0.66145 0.03305 0.07801 0.0
C648 C 0.66839 0.05162 0.05429 0.0
H649 H 0.87262 0.91811 0.55354 0.0
H650 H 0.90446 0.03565 0.5975 0.0
H651 H 0.91382 0.08081 0.55888 0.0
H652 H 0.92224 0.93267 0.49921 0.0
H653 H 0.89154 0.91857 0.47761 0.0
H654 H 0.8914 0.89346 0.50827 0.0
H655 H 0.83604 0.92646 0.51585 0.0
H656 H 0.83598 0.95105 0.48512 0.0
H657 H 0.82895 0.98812 0.51158 0.0
H658 H 0.91815 0.11346 0.51556 0.0
H659 H 0.91135 0.1358 0.47188 0.0
H660 H 0.87112 0.99947 0.45604 0.0
C661 C 0.88226 0.9529 0.555 0.0
C662 C 0.88866 0.973 0.57847 0.0
C663 C 0.90002 0.01939 0.57969 0.0
C664 C 0.90539 0.04516 0.55785 0.0
C665 C 0.89851 0.02441 0.53499 0.0
C666 C 0.88667 0.97957 0.53346 0.0
C667 C 0.87776 0.96731 0.50692 0.0
C668 C 0.89689 0.92553 0.49745 0.0
C669 C 0.84261 0.95768 0.50475 0.0
C670 C 0.88663 0.01222 0.49364 0.0
C671 C 0.89903 0.04432 0.51017 0.0
C672 C 0.90853 0.08856 0.5025 0.0
C673 C 0.90466 0.10081 0.47749 0.0
C674 C 0.89082 0.06938 0.46026 0.0
C675 C 0.88207 0.02418 0.46854 0.0
H676 H 0.88338 0.58505 0.05262 0.0
H677 H 0.88428 0.46493 0.10192 0.0
H678 H 0.8897 0.41245 0.0658 0.0
H679 H 0.83626 0.5367 1.00807 0.0
H680 H 0.855 0.5586 0.98051 0.0
H681 H 0.85795 0.59085 1.00894 0.0
H682 H 0.91713 0.58996 1.00912 0.0
H683 H 0.91603 0.56099 0.9794 0.0
H684 H 0.93767 0.53556 1.00473 0.0
H685 H 0.89152 0.37285 0.02523 0.0
H686 H 0.8848 0.34653 0.98241 0.0
H687 H 0.87927 0.49106 0.95754 0.0
C688 C 0.88558 0.54776 0.05581 0.0
C689 C 0.88398 0.52905 0.0802 0.0
C690 C 0.88581 0.48002 0.08353 0.0
C691 C 0.889 0.44999 0.06311 0.0
C692 C 0.89006 0.4694 0.03936 0.0
C693 C 0.88825 0.5171 0.0355 0.0
C694 C 0.88703 0.52814 1.00781 0.0
C695 C 0.85723 0.55508 1.00096 0.0
C696 C 0.91621 0.55527 0.99979 0.0
C697 C 0.88694 0.47909 0.99685 0.0
C698 C 0.88965 0.44605 0.0155 0.0
C699 C 0.88947 0.39839 1.01049 0.0
C700 C 0.88554 0.38386 0.98594 0.0
C701 C 0.88124 0.41664 0.96637 0.0
C702 C 0.88273 0.4651 0.97192 0.0
H703 H 0.6663 0.50957 0.45216 0.0
H704 H 0.61907 0.63786 0.47267 0.0
H705 H 0.60944 0.60625 0.51456 0.0
H706 H 0.61813 0.42761 0.49119 0.0
H707 H 0.65167 0.39279 0.49926 0.0
H708 H 0.64995 0.42203 0.46965 0.0
H709 H 0.70247 0.46252 0.47928 0.0
H710 H 0.70413 0.43396 0.50899 0.0
H711 H 0.70642 0.4969 0.50718 0.0
H712 H 0.61128 0.5657 0.5558 0.0
H713 H 0.62262 0.51723 0.59281 0.0
H714 H 0.66913 0.41559 0.54581 0.0
C715 C 0.65276 0.53 0.46518 0.0
C716 C 0.64281 0.57572 0.45909 0.0
C717 C 0.62643 0.60245 0.47693 0.0
C718 C 0.6209 0.58483 0.50077 0.0
C719 C 0.63202 0.54037 0.50661 0.0
C720 C 0.64735 0.51304 0.48927 0.0
C721 C 0.65957 0.46843 0.50108 0.0
C722 C 0.64388 0.42515 0.48961 0.0
C723 C 0.69525 0.46532 0.49901 0.0
C724 C 0.64941 0.47567 0.52775 0.0
C725 C 0.63332 0.51715 0.53054 0.0
C726 C 0.62337 0.53267 0.55379 0.0
C727 C 0.63 0.50503 0.57474 0.0
C728 C 0.64648 0.46237 0.57231 0.0
C729 C 0.65603 0.44762 0.54838 0.0
H730 H 0.12223 0.56974 0.06227 0.0
H731 H 0.19696 0.48831 0.09557 0.0
H732 H 0.20553 0.44844 0.05593 0.0
H733 H 0.09268 0.47138 0.02299 0.0
H734 H 0.08272 0.50944 0.9975 0.0
H735 H 0.08128 0.5311 0.02888 0.0
H736 H 0.11843 0.59858 0.01674 0.0
H737 H 0.12051 0.57671 0.98543 0.0
H738 H 0.15568 0.58503 1.00321 0.0
H739 H 0.2127 0.42801 1.01193 0.0
H740 H 0.20916 0.41103 0.96738 0.0
H741 H 0.12437 0.49236 0.96199 0.0
C742 C 0.13985 0.5427 0.06135 0.0
C743 C 0.1589 0.53239 0.08224 0.0
C744 C 0.18185 0.49689 0.0801 0.0
C745 C 0.18715 0.47419 0.05752 0.0
C746 C 0.16884 0.48629 0.03719 0.0
C747 C 0.14492 0.51839 0.03894 0.0
C748 C 0.12837 0.52348 1.014 0.0
C749 C 0.09423 0.50791 0.01596 0.0
C750 C 0.1309 0.57395 1.00428 0.0
C751 C 0.14716 0.48979 0.99802 0.0
C752 C 0.17083 0.46985 1.01187 0.0
C753 C 0.19339 0.44152 1.00115 0.0
C754 C 0.19099 0.4315 0.97585 0.0
C755 C 0.16553 0.4477 0.9616 0.0
C756 C 0.14358 0.47825 0.97267 0.0
H757 H 0.35147 0.41267 0.54827 0.0
H758 H 0.39874 0.51767 0.59251 0.0
H759 H 0.41123 0.56204 0.55428 0.0
H760 H 0.40065 0.41676 0.49327 0.0
H761 H 0.36851 0.41192 0.47185 0.0
H762 H 0.3658 0.38597 0.50224 0.0
H763 H 0.31536 0.43273 0.51085 0.0
H764 H 0.31774 0.4581 0.48034 0.0
H765 H 0.31547 0.49548 0.50722 0.0
H766 H 0.41819 0.59489 0.5118 0.0
H767 H 0.41354 0.62097 0.46859 0.0
H768 H 0.35766 0.49833 0.45134 0.0
C769 C 0.36487 0.44467 0.54976 0.0
C770 C 0.37476 0.46153 0.57319 0.0
C771 C 0.39131 0.50417 0.57467 0.0
C772 C 0.39858 0.52936 0.55307 0.0
C773 C 0.38854 0.51187 0.53022 0.0
C774 C 0.37155 0.47095 0.52841 0.0
C775 C 0.36103 0.46234 0.50183 0.0
C776 C 0.37484 0.41652 0.49171 0.0
C777 C 0.32528 0.46218 0.49995 0.0
C778 C 0.37489 0.50479 0.48893 0.0
C779 C 0.39107 0.53233 0.50568 0.0
C780 C 0.40559 0.57366 0.49852 0.0
C781 C 0.40285 0.58807 0.47379 0.0
C782 C 0.38529 0.56175 0.45633 0.0
C783 C 0.37156 0.51903 0.46404 0.0
H784 H 0.29885 0.17851 0.21821 0.0
H785 H 0.30995 0.02901 0.20706 0.0
H786 H 0.28191 0.01404 0.24629 0.0
H787 H 0.30972 0.17563 0.28581 0.0
H788 H 0.28173 0.2216 0.29099 0.0
H789 H 0.3035 0.21996 0.2625 0.0
H790 H 0.25183 0.22073 0.23764 0.0
H791 H 0.22989 0.22141 0.26606 0.0
H792 H 0.22309 0.17608 0.24342 0.0
H793 H 0.24846 0.01553 0.28524 0.0
H794 H 0.22025 0.03328 0.32405 0.0
H795 H 0.23352 0.18183 0.31101 0.0
C796 C 0.29587 0.14262 0.22423 0.0
C797 C 0.30675 0.10492 0.20953 0.0
C798 C 0.30223 0.0585 0.21809 0.0
C799 C 0.28602 0.04964 0.24025 0.0
C800 C 0.27482 0.08757 0.25391 0.0
C801 C 0.2802 0.13318 0.24651 0.0
C802 C 0.26626 0.16776 0.26477 0.0
C803 C 0.29183 0.19801 0.27673 0.0
C804 C 0.24129 0.19829 0.25221 0.0
C805 C 0.25188 0.13453 0.28348 0.0
C806 C 0.25668 0.08842 0.27671 0.0
C807 C 0.24483 0.05153 0.29079 0.0
C808 C 0.22851 0.06198 0.31271 0.0
C809 C 0.22452 0.10895 0.32061 0.0
C810 C 0.23612 0.14557 0.30551 0.0
H811 H 0.30108 0.9527 0.81092 0.0
H812 H 0.30789 0.80193 0.82032 0.0
H813 H 0.27648 0.79007 0.78291 0.0
H814 H 0.22423 0.95767 0.78807 0.0
H815 H 0.23053 1.00088 0.76423 0.0
H816 H 0.25516 0.99989 0.79134 0.0
H817 H 0.30416 0.99268 0.76381 0.0
H818 H 0.27975 0.99499 0.73659 0.0
H819 H 0.30621 0.94669 0.74095 0.0
H820 H 0.23886 0.79271 0.74932 0.0
H821 H 0.20927 0.80821 0.71127 0.0
H822 H 0.22974 0.95662 0.7178 0.0
C823 C 0.29685 0.91732 0.80455 0.0
C824 C 0.30675 0.87818 0.81884 0.0
C825 C 0.30038 0.83244 0.80994 0.0
C826 C 0.28229 0.82525 0.78878 0.0
C827 C 0.27119 0.86412 0.77606 0.0
C828 C 0.27918 0.90926 0.78274 0.0
C829 C 0.26474 0.94412 0.76452 0.0
C830 C 0.24234 0.97763 0.77785 0.0
C831 C 0.29023 0.97123 0.75064 0.0
C832 C 0.2471 0.91125 0.74709 0.0
C833 C 0.25077 0.86544 0.75477 0.0
C834 C 0.2363 0.8283 0.74274 0.0
C835 C 0.21923 0.83758 0.72125 0.0
C836 C 0.21717 0.88351 0.71145 0.0
C837 C 0.23046 0.92125 0.72501 0.0
H838 H 0.82539 0.87939 0.72595 0.0
H839 H 0.75062 0.94615 0.68481 0.0
H840 H 0.71926 0.95111 0.72279 0.0
H841 H 0.77681 0.80914 0.76382 0.0
H842 H 0.8 0.81473 0.79158 0.0
H843 H 0.8181 0.81952 0.7616 0.0
H844 H 0.84016 0.90099 0.77341 0.0
H845 H 0.82239 0.89618 0.80354 0.0
H846 H 0.81403 0.94602 0.78412 0.0
H847 H 0.69411 0.94468 0.76468 0.0
H848 H 0.67873 0.93079 0.80835 0.0
H849 H 0.76912 0.86779 0.82238 0.0
C850 C 0.80272 0.8959 0.72514 0.0
C851 C 0.7905 0.91234 0.70239 0.0
C852 C 0.76044 0.93302 0.702 0.0
C853 C 0.74237 0.9361 0.7235 0.0
C854 C 0.75453 0.91835 0.74547 0.0
C855 C 0.78409 0.89901 0.74658 0.0
C856 C 0.79093 0.88111 0.77252 0.0
C857 C 0.7968 0.82797 0.77235 0.0
C858 C 0.81851 0.90767 0.78408 0.0
C859 C 0.7606 0.89299 0.78553 0.0
C860 C 0.73991 0.91455 0.76964 0.0
C861 C 0.71021 0.92807 0.7774 0.0
C862 C 0.70158 0.91988 0.8022 0.0
C863 C 0.72259 0.89834 0.81894 0.0
C864 C 0.75239 0.88455 0.81022 0.0
H865 H 0.7717 0.13988 0.21069 0.0
H866 H 0.68044 0.08146 0.22612 0.0
H867 H 0.69543 0.07181 0.27015 0.0
H868 H 0.81532 0.06464 0.25119 0.0
H869 H 0.84208 0.10962 0.261 0.0
H870 H 0.82428 0.11269 0.23074 0.0
H871 H 0.80297 0.19541 0.24064 0.0
H872 H 0.821 0.19285 0.27081 0.0
H873 H 0.77985 0.20411 0.26811 0.0
H874 H 0.72026 0.06773 0.31212 0.0
H875 H 0.75164 0.07424 0.35019 0.0
H876 H 0.82758 0.13489 0.30815 0.0
C877 C 0.75471 0.12522 0.2233 0.0
C878 C 0.72477 0.11135 0.2148 0.0
C879 C 0.7034 0.09246 0.23206 0.0
C880 C 0.71179 0.08664 0.25711 0.0
C881 C 0.74164 0.0999 0.26467 0.0
C882 C 0.7627 0.11917 0.24834 0.0
C883 C 0.79317 0.13108 0.26136 0.0
C884 C 0.82031 0.10281 0.25041 0.0
C885 C 0.79961 0.184 0.26016 0.0
C886 C 0.78597 0.11553 0.28766 0.0
C887 C 0.7561 0.0975 0.28901 0.0
C888 C 0.74362 0.08177 0.31125 0.0
C889 C 0.7617 0.08562 0.33279 0.0
C890 C 0.79211 0.10498 0.33217 0.0
C891 C 0.80465 0.11932 0.30915 0.0
H892 H 0.721 0.67955 0.30573 0.0
H893 H 0.73744 0.53733 0.33067 0.0
H894 H 0.77062 0.52306 0.29402 0.0
H895 H 0.71631 0.64912 0.23925 0.0
H896 H 0.73443 0.70313 0.22974 0.0
H897 H 0.71169 0.70125 0.25774 0.0
H898 H 0.7589 0.73375 0.28229 0.0
H899 H 0.78202 0.73454 0.25447 0.0
H900 H 0.79547 0.70283 0.28135 0.0
H901 H 0.80632 0.52706 0.25677 0.0
H902 H 0.83243 0.54288 0.21674 0.0
H903 H 0.78884 0.67965 0.21381 0.0
C904 C 0.73103 0.64512 0.30311 0.0
C905 C 0.72646 0.60938 0.32088 0.0
C906 C 0.74017 0.56488 0.31702 0.0
C907 C 0.75939 0.55666 0.29644 0.0
C908 C 0.76417 0.59303 0.27962 0.0
C909 C 0.74959 0.6359 0.28229 0.0
C910 C 0.7576 0.6684 0.26098 0.0
C911 C 0.72826 0.68121 0.24604 0.0
C912 C 0.7745 0.71248 0.27035 0.0
C913 C 0.77929 0.63737 0.2461 0.0
C914 C 0.78332 0.59439 0.25746 0.0
C915 C 0.80309 0.56043 0.2476 0.0
C916 C 0.81815 0.56991 0.22504 0.0
C917 C 0.81286 0.6126 0.21239 0.0
C918 C 0.79349 0.6469 0.22326 0.0
H919 H 0.80024 0.33062 0.8101 0.0
H920 H 0.80875 0.47821 0.82779 0.0
H921 H 0.77908 0.49803 0.78975 0.0
H922 H 0.80764 0.34391 0.74251 0.0
H923 H 0.7802 0.29758 0.73638 0.0
H924 H 0.80358 0.29618 0.76415 0.0
H925 H 0.75336 0.28953 0.79041 0.0
H926 H 0.7298 0.29209 0.76277 0.0
H927 H 0.72359 0.33368 0.78742 0.0
H928 H 0.74411 0.50083 0.75106 0.0
H929 H 0.71467 0.48716 0.71217 0.0
H930 H 0.73051 0.33781 0.71963 0.0
C931 C 0.79649 0.3672 0.8057 0.0
C932 C 0.80709 0.40287 0.82189 0.0
C933 C 0.80139 0.45027 0.81551 0.0
C934 C 0.78421 0.46183 0.79406 0.0
C935 C 0.77314 0.42565 0.77899 0.0
C936 C 0.77971 0.37932 0.78428 0.0
C937 C 0.76533 0.3469 0.76515 0.0
C938 C 0.7907 0.31954 0.75122 0.0
C939 C 0.74162 0.31359 0.77717 0.0
C940 C 0.74934 0.38206 0.74834 0.0
C941 C 0.75378 0.42731 0.75672 0.0
C942 C 0.74072 0.46551 0.7443 0.0
C943 C 0.72369 0.45737 0.72234 0.0
C944 C 0.72007 0.4114 0.71282 0.0
C945 C 0.7327 0.37337 0.72639 0.0
H946 H 0.24389 0.33693 0.81654 0.0
H947 H 0.20089 0.47414 0.817 0.0
H948 H 0.22692 0.49289 0.77716 0.0
H949 H 0.31642 0.36968 0.79288 0.0
H950 H 0.32157 0.31895 0.77342 0.0
H951 H 0.29818 0.31497 0.80102 0.0
H952 H 0.25105 0.28547 0.77534 0.0
H953 H 0.27463 0.28773 0.7478 0.0
H954 H 0.23811 0.31874 0.74883 0.0
H955 H 0.26167 0.49854 0.73908 0.0
H956 H 0.29322 0.48527 0.70137 0.0
H957 H 0.3116 0.34301 0.72493 0.0
C958 C 0.23924 0.37041 0.80783 0.0
C959 C 0.22007 0.40394 0.8196 0.0
C960 C 0.2149 0.44765 0.80797 0.0
C961 C 0.22999 0.45878 0.78556 0.0
C962 C 0.24982 0.42555 0.77497 0.0
C963 C 0.25369 0.38171 0.78536 0.0
C964 C 0.27572 0.35186 0.77012 0.0
C965 C 0.30468 0.33807 0.78527 0.0
C966 C 0.25887 0.30839 0.75991 0.0
C967 C 0.28401 0.38584 0.74958 0.0
C968 C 0.26924 0.42844 0.75294 0.0
C969 C 0.2733 0.46534 0.73632 0.0
C970 C 0.29168 0.45778 0.71518 0.0
C971 C 0.30567 0.41369 0.71076 0.0
C972 C 0.30213 0.37755 0.72838 0.0
H973 H 0.20423 0.60751 0.22838 0.0
H974 H 0.28015 0.6755 0.1892 0.0
H975 H 0.30995 0.6806 0.22773 0.0
H976 H 0.2138 0.67887 0.2859 0.0
H977 H 0.20433 0.6307 0.30612 0.0
H978 H 0.1876 0.63363 0.27546 0.0
H979 H 0.2092 0.55093 0.26595 0.0
H980 H 0.22632 0.54799 0.29645 0.0
H981 H 0.2503 0.53984 0.26941 0.0
H982 H 0.33476 0.67056 0.26854 0.0
H983 H 0.34975 0.65756 0.31228 0.0
H984 H 0.25746 0.60327 0.32756 0.0
C985 C 0.22684 0.62422 0.22805 0.0
C986 C 0.23987 0.64033 0.20548 0.0
C987 C 0.26964 0.66205 0.20599 0.0
C988 C 0.28692 0.66525 0.22786 0.0
C989 C 0.2741 0.64753 0.24948 0.0
C990 C 0.2445 0.62852 0.25007 0.0
C991 C 0.23662 0.61267 0.27626 0.0
C992 C 0.20894 0.64065 0.28654 0.0
C993 C 0.23023 0.55971 0.27705 0.0
C994 C 0.26665 0.62487 0.28987 0.0
C995 C 0.288 0.64446 0.27387 0.0
C996 C 0.31809 0.65606 0.28144 0.0
C997 C 0.3265 0.64825 0.30623 0.0
C998 C 0.30474 0.62986 0.32325 0.0
C999 C 0.27441 0.61801 0.31494 0.0
H1000 H 0.45292 0.18756 0.12356 0.0
H1001 H 0.43273 0.09786 0.18653 0.0
H1002 H 0.4888 0.0944 0.19649 0.0
H1003 H 0.51875 0.12871 0.10406 0.0
H1004 H 0.54016 0.17997 0.09465 0.0
H1005 H 0.49831 0.18085 0.09449 0.0
H1006 H 0.49862 0.25363 0.12317 0.0
H1007 H 0.54058 0.2531 0.12337 0.0
H1008 H 0.51949 0.25151 0.15221 0.0
H1009 H 0.54725 0.09175 0.19616 0.0
H1010 H 0.60339 0.09214 0.18633 0.0
H1011 H 0.58587 0.18542 0.12438 0.0
C1012 C 0.46013 0.1681 0.13983 0.0
C1013 C 0.43824 0.14307 0.1543 0.0
C1014 C 0.44889 0.11751 0.1752 0.0
C1015 C 0.48076 0.11538 0.18103 0.0
C1016 C 0.50173 0.13938 0.16596 0.0
C1017 C 0.49182 0.16567 0.14593 0.0
C1018 C 0.51923 0.18531 0.1316 0.0
C1019 C 0.51909 0.16764 0.10461 0.0
C1020 C 0.51949 0.23909 0.13266 0.0
C1021 C 0.54615 0.16476 0.14622 0.0
C1022 C 0.53554 0.13863 0.16608 0.0
C1023 C 0.55584 0.1129 0.18099 0.0
C1024 C 0.58768 0.11326 0.17524 0.0
C1025 C 0.59904 0.13939 0.15485 0.0
C1026 C 0.57799 0.16621 0.1405 0.0
H1027 H 0.07867 0.93766 0.65766 0.0
H1028 H 0.09612 0.78881 0.65145 0.0
H1029 H 0.04069 0.7726 0.66031 0.0
H1030 H 1.01485 0.93251 0.70539 0.0
H1031 H 0.99304 0.97818 0.69016 0.0
H1032 H 0.03495 0.9779 0.68861 0.0
H1033 H 0.03207 0.97964 0.64059 0.0
H1034 H 0.99029 0.97997 0.64201 0.0
H1035 H 1.01006 0.93518 0.62454 0.0
H1036 H 0.98299 0.77271 0.66433 0.0
H1037 H 0.92688 0.78887 0.65997 0.0
H1038 H 0.94575 0.93811 0.6618 0.0
C1039 C 0.07091 0.90169 0.65918 0.0
C1040 C 0.09162 0.8643 0.65459 0.0
C1041 C 0.08057 0.81772 0.65542 0.0
C1042 C 0.0492 0.80826 0.6605 0.0
C1043 C 0.02907 0.84585 0.66442 0.0
C1044 C 0.03942 0.89171 0.6637 0.0
C1045 C 1.01231 0.92572 0.66492 0.0
C1046 C 1.01389 0.95532 0.68869 0.0
C1047 C 1.01112 0.95693 0.64163 0.0
C1048 C 0.9851 0.89187 0.66566 0.0
C1049 C 0.99536 0.84599 0.66589 0.0
C1050 C 0.97467 0.80848 0.66455 0.0
C1051 C 0.94279 0.81802 0.66207 0.0
C1052 C 0.93179 0.86474 0.66072 0.0
C1053 C 0.95327 0.90203 0.66334 0.0
H1054 H 0.58377 0.8041 0.90148 0.0
H1055 H 0.60375 0.90308 0.84277 0.0
H1056 H 0.5477 0.90722 0.8324 0.0
H1057 H 0.5149 0.74506 0.87168 0.0
H1058 H 0.49455 0.74161 0.90082 0.0
H1059 H 0.53647 0.73899 0.90023 0.0
H1060 H 0.53908 0.80866 0.93096 0.0
H1061 H 0.49731 0.81169 0.93152 0.0
H1062 H 0.51966 0.86271 0.9232 0.0
H1063 H 0.48921 0.90809 0.83178 0.0
H1064 H 0.43327 0.90865 0.8422 0.0
H1065 H 0.45121 0.81192 0.90272 0.0
C1066 C 0.57639 0.82507 0.88579 0.0
C1067 C 0.59805 0.85241 0.87249 0.0
C1068 C 0.58748 0.88129 0.85286 0.0
C1069 C 0.55572 0.88379 0.84684 0.0
C1070 C 0.53475 0.85752 0.86079 0.0
C1071 C 0.54465 0.82868 0.87989 0.0
C1072 C 0.51721 0.80903 0.89412 0.0
C1073 C 0.5157 0.75549 0.89155 0.0
C1074 C 0.5184 0.82394 0.92156 0.0
C1075 C 0.49043 0.83236 0.88054 0.0
C1076 C 0.50097 0.85944 0.86106 0.0
C1077 C 0.48066 0.88648 0.84677 0.0
C1078 C 0.44886 0.88658 0.85284 0.0
C1079 C 0.43769 0.86032 0.87327 0.0
C1080 C 0.45884 0.83215 0.88687 0.0
H1081 H 0.94643 0.08166 0.37323 0.0
H1082 H 0.92753 0.23003 0.36466 0.0
H1083 H 0.98327 0.24425 0.35675 0.0
H1084 H 1.0128 0.09437 0.40733 0.0
H1085 H 0.03375 0.04561 0.39426 0.0
H1086 H 0.99193 0.04543 0.39426 0.0
H1087 H 0.99145 0.03378 0.34661 0.0
H1088 H 0.03342 0.03368 0.34646 0.0
H1089 H 1.0123 0.07425 0.32709 0.0
H1090 H 0.04131 0.24461 0.35755 0.0
H1091 H 0.09717 0.23058 0.3658 0.0
H1092 H 0.07935 0.08194 0.37264 0.0
C1093 C 0.95379 0.1169 0.36872 0.0
C1094 C 0.93244 0.15469 0.36933 0.0
C1095 C 0.94331 0.20047 0.36413 0.0
C1096 C 0.97498 0.20887 0.35956 0.0
C1097 C 0.99559 0.17113 0.36007 0.0
C1098 C 0.9854 0.12592 0.36426 0.0
C1099 C 1.01269 0.09236 0.36662 0.0
C1100 C 1.01279 0.06804 0.39212 0.0
C1101 C 1.01244 0.05639 0.34542 0.0
C1102 C 0.03983 0.12601 0.36409 0.0
C1103 C 0.0294 0.17124 0.36004 0.0
C1104 C 0.0498 0.20922 0.35996 0.0
C1105 C 0.08147 0.20097 0.36464 0.0
C1106 C 0.09259 0.1551 0.36908 0.0
C1107 C 0.07159 0.11706 0.36823 0.0
H1108 H 0.95353 0.6932 0.12819 0.0
H1109 H 0.93528 0.59573 0.18808 0.0
H1110 H 0.99081 0.59733 0.19976 0.0
H1111 H 0.02093 0.64135 0.10888 0.0
H1112 H 0.04142 0.69426 0.10085 0.0
H1113 H 0.99961 0.69327 0.10026 0.0
H1114 H 0.99802 0.76364 0.13057 0.0
H1115 H 0.03997 0.76494 0.13119 0.0
H1116 H 0.01848 0.76013 0.15975 0.0
H1117 H 0.04866 0.59897 0.20074 0.0
H1118 H 0.1047 0.60044 0.19077 0.0
H1119 H 0.0863 0.69711 0.13041 0.0
C1120 C 0.96106 0.67366 0.14435 0.0
C1121 C 0.94003 0.64477 0.15744 0.0
C1122 C 0.95096 0.61833 0.17791 0.0
C1123 C 0.98246 0.61916 0.18474 0.0
C1124 C 1.00284 0.64668 0.17096 0.0
C1125 C 0.9926 0.67373 0.15127 0.0
C1126 C 0.01983 0.69566 0.13768 0.0
C1127 C 0.02048 0.68019 0.11031 0.0
C1128 C 0.01902 0.74929 0.13994 0.0
C1129 C 0.04694 0.67518 0.15216 0.0
C1130 C 0.03659 0.64762 0.17153 0.0
C1131 C 0.05709 0.6213 0.186 0.0
C1132 C 0.08889 0.62228 0.18018 0.0
C1133 C 0.09996 0.64936 0.16005 0.0
C1134 C 0.0787 0.6771 0.14635 0.0
H1135 H 0.57702 0.43763 0.65771 0.0
H1136 H 0.59758 0.28976 0.6509 0.0
H1137 H 0.54177 0.27113 0.6559 0.0
H1138 H 0.50887 0.42716 0.70144 0.0
H1139 H 0.48782 0.47302 0.68569 0.0
H1140 H 0.52976 0.47426 0.68671 0.0
H1141 H 0.53128 0.47909 0.63875 0.0
H1142 H 0.48948 0.4775 0.63755 0.0
H1143 H 0.51183 0.43474 0.62065 0.0
H1144 H 0.48373 0.26896 0.65576 0.0
H1145 H 0.4276 0.28331 0.64976 0.0
H1146 H 0.44382 0.43299 0.65529 0.0
C1147 C 0.56978 0.40133 0.6584 0.0
C1148 C 0.59154 0.36494 0.65465 0.0
C1149 C 0.58122 0.31792 0.6543 0.0
C1150 C 0.5496 0.30707 0.65711 0.0
C1151 C 0.52849 0.34371 0.66001 0.0
C1152 C 0.5381 0.38995 0.66074 0.0
C1153 C 0.51033 0.42284 0.66085 0.0
C1154 C 0.50913 0.45098 0.68512 0.0
C1155 C 0.51077 0.45544 0.6381 0.0
C1156 C 0.48373 0.38797 0.65934 0.0
C1157 C 0.49472 0.34251 0.65927 0.0
C1158 C 0.47481 0.30438 0.65621 0.0
C1159 C 0.44292 0.3129 0.65274 0.0
C1160 C 0.43113 0.35925 0.65218 0.0
C1161 C 0.4519 0.39711 0.65604 0.0
H1162 H 0.0812 0.43227 0.88102 0.0
H1163 H 0.10193 0.28457 0.87168 0.0
H1164 H 0.04629 0.26846 0.86467 0.0
H1165 H 1.01469 0.41703 0.9156 0.0
H1166 H 0.99301 0.46511 0.90249 0.0
H1167 H 0.03484 0.46669 0.90266 0.0
H1168 H 0.03503 0.4786 0.85502 0.0
H1169 H 0.99308 0.47718 0.85471 0.0
H1170 H 1.01482 0.43745 0.83539 0.0
H1171 H 0.98862 0.26594 0.86548 0.0
H1172 H 0.93242 0.27794 0.8728 0.0
H1173 H 0.94779 0.42723 0.88004 0.0
C1174 C 0.07414 0.3968 0.8767 0.0
C1175 C 0.09601 0.35971 0.87676 0.0
C1176 C 0.08567 0.31357 0.87169 0.0
C1177 C 0.05409 0.30407 0.86758 0.0
C1178 C 0.033 0.34108 0.86842 0.0
C1179 C 0.04255 0.38663 0.87262 0.0
C1180 C 1.01475 0.4192 0.8749 0.0
C1181 C 1.01431 0.4434 0.90042 0.0
C1182 C 1.0144 0.45524 0.85374 0.0
C1183 C 0.98815 0.38455 0.87225 0.0
C1184 C 0.99928 0.33973 0.86829 0.0
C1185 C 0.97955 0.301 0.86789 0.0
C1186 C 0.94771 0.30808 0.87207 0.0
C1187 C 0.93583 0.35354 0.87631 0.0
C1188 C 0.95622 0.39236 0.87589 0.0
H1189 H 0.44746 0.70692 0.39754 0.0
H1190 H 0.42921 0.60349 0.34053 0.0
H1191 H 0.48527 0.60131 0.33033 0.0
H1192 H 0.51548 0.76692 0.36672 0.0
H1193 H 0.53555 0.77312 0.39595 0.0
H1194 H 0.49361 0.77433 0.39494 0.0
H1195 H 0.49178 0.70692 0.42707 0.0
H1196 H 0.53357 0.70518 0.42803 0.0
H1197 H 0.51195 0.65294 0.42057 0.0
H1198 H 0.54363 0.60168 0.33053 0.0
H1199 H 0.59933 0.60278 0.34183 0.0
H1200 H 0.57975 0.70388 0.39989 0.0
C1201 C 0.45513 0.68542 0.38217 0.0
C1202 C 0.43398 0.65611 0.36942 0.0
C1203 C 0.44503 0.62673 0.35022 0.0
C1204 C 0.47681 0.62533 0.3443 0.0
C1205 C 0.49729 0.65335 0.35785 0.0
C1206 C 0.48687 0.68301 0.37635 0.0
C1207 C 0.5139 0.70455 0.39042 0.0
C1208 C 0.51468 0.7579 0.38678 0.0
C1209 C 0.51272 0.69159 0.41815 0.0
C1210 C 0.54108 0.68114 0.37755 0.0
C1211 C 0.53107 0.65247 0.3585 0.0
C1212 C 0.55178 0.62463 0.34514 0.0
C1213 C 0.58343 0.62544 0.35173 0.0
C1214 C 0.59408 0.65347 0.37173 0.0
C1215 C 0.57255 0.68242 0.38434 0.0
H1216 H 0.31562 0.95848 0.13039 0.0
H1217 H 0.23251 0.04481 0.12969 0.0
H1218 H 0.19993 0.97329 0.12774 0.0
H1219 H 0.28764 0.86719 0.08924 0.0
H1220 H 0.30672 0.82135 0.1065 0.0
H1221 H 0.32305 0.87941 0.10604 0.0
H1222 H 0.32213 0.8814 0.15416 0.0
H1223 H 0.30562 0.82351 0.15477 0.0
H1224 H 0.28601 0.87107 0.17019 0.0
H1225 H 0.17661 0.89071 0.12547 0.0
H1226 H 0.16506 0.80544 0.12568 0.0
H1227 H 0.26382 0.77577 0.13106 0.0
C1228 C 0.29058 0.96251 0.1295 0.0
C1229 C 0.2766 0.00724 0.12997 0.0
C1230 C 0.24371 0.01084 0.12927 0.0
C1231 C 0.22504 0.97044 0.12812 0.0
C1232 C 0.23964 0.92681 0.12795 0.0
C1233 C 0.2717 0.92275 0.12875 0.0
C1234 C 0.28183 0.8721 0.12961 0.0
C1235 C 0.30093 0.85927 0.10647 0.0
C1236 C 0.29996 0.86141 0.15361 0.0
C1237 C 0.2505 0.84814 0.1294 0.0
C1238 C 0.22636 0.88003 0.12803 0.0
C1239 C 0.19536 0.8655 0.12676 0.0
C1240 C 0.18899 0.81715 0.1269 0.0
C1241 C 0.21349 0.78423 0.12887 0.0
C1242 C 0.24454 0.80017 0.13015 0.0
H1243 H 0.23145 0.04251 0.61068 0.0
H1244 H 0.27919 0.9783 0.67297 0.0
H1245 H 0.30706 0.05268 0.68098 0.0
H1246 H 0.29828 0.11315 0.58981 0.0
H1247 H 0.27385 0.16145 0.58055 0.0
H1248 H 0.25909 0.10247 0.57921 0.0
H1249 H 0.21264 0.12695 0.60687 0.0
H1250 H 0.22751 0.18578 0.60851 0.0
H1251 H 0.22006 0.15357 0.63664 0.0
H1252 H 0.32588 0.13712 0.68444 0.0
H1253 H 0.33853 0.22176 0.67976 0.0
H1254 H 0.28088 0.22785 0.61387 0.0
C1255 C 0.24817 0.04397 0.62574 0.0
C1256 C 0.25331 1.00479 0.64116 0.0
C1257 C 0.27527 0.00784 0.66074 0.0
C1258 C 0.29102 0.05 0.66553 0.0
C1259 C 0.28496 0.08838 0.65026 0.0
C1260 C 0.26453 0.08538 0.63043 0.0
C1261 C 0.26209 0.13152 0.61676 0.0
C1262 C 0.27405 0.12686 0.59 0.0
C1263 C 0.22859 0.15056 0.61725 0.0
C1264 C 0.28369 0.16127 0.63237 0.0
C1265 C 0.29658 0.13602 0.65171 0.0
C1266 C 0.31624 0.15704 0.66916 0.0
C1267 C 0.32318 0.20495 0.66651 0.0
C1268 C 0.31062 0.23068 0.64647 0.0
C1269 C 0.29074 0.20857 0.62928 0.0
H1270 H 0.26366 0.23287 0.88332 0.0
H1271 H 0.16499 0.20203 0.88499 0.0
H1272 H 0.17676 0.11699 0.88496 0.0
H1273 H 0.28961 0.13309 0.84587 0.0
H1274 H 0.32425 0.12485 0.8643 0.0
H1275 H 0.30761 0.18243 0.86105 0.0
H1276 H 0.30462 0.18961 0.90899 0.0
H1277 H 0.32081 0.1318 0.91236 0.0
H1278 H 0.28395 0.14571 0.92642 0.0
H1279 H 0.1999 0.0351 0.88669 0.0
H1280 H 0.23221 0.96367 0.89057 0.0
H1281 H 0.31549 0.04974 0.89118 0.0
C1282 C 0.24456 0.20814 0.88275 0.0
C1283 C 0.21341 0.22372 0.88336 0.0
C1284 C 0.18898 0.19052 0.88394 0.0
C1285 C 0.19547 0.14229 0.88405 0.0
C1286 C 0.22652 0.128 0.8841 0.0
C1287 C 0.25065 0.16004 0.88355 0.0
C1288 C 0.28191 0.13604 0.88605 0.0
C1289 C 0.30203 0.14461 0.86294 0.0
C1290 C 0.29881 0.15173 0.90986 0.0
C1291 C 0.2717 0.08545 0.8878 0.0
C1292 C 0.2397 0.08139 0.88652 0.0
C1293 C 0.22499 0.0379 0.88769 0.0
C1294 C 0.24352 0.99753 0.88996 0.0
C1295 C 0.27638 1.00098 0.8913 0.0
C1296 C 0.29045 0.04573 0.89039 0.0
H1297 H 0.26602 0.78194 0.39295 0.0
H1298 H 0.36456 0.81458 0.39354 0.0
H1299 H 0.35211 0.89924 0.39464 0.0
H1300 H 0.23946 0.88072 0.35588 0.0
H1301 H 0.20474 0.889 0.37405 0.0
H1302 H 0.22164 0.83154 0.37127 0.0
H1303 H 0.22467 0.82546 0.41926 0.0
H1304 H 0.20808 0.88312 0.42212 0.0
H1305 H 0.24498 0.87015 0.43651 0.0
H1306 H 0.32869 0.98029 0.39627 0.0
H1307 H 0.29622 0.05163 0.39834 0.0
H1308 H 0.21303 0.96545 0.39956 0.0
C1309 C 0.28494 0.80698 0.39267 0.0
C1310 C 0.31627 0.7919 0.39261 0.0
C1311 C 0.34043 0.82558 0.39322 0.0
C1312 C 0.33357 0.87363 0.39394 0.0
C1313 C 0.30243 0.88735 0.3945 0.0
C1314 C 0.2785 0.855 0.39395 0.0
C1315 C 0.24708 0.87876 0.39612 0.0
C1316 C 0.22706 0.86946 0.37295 0.0
C1317 C 0.23021 0.86345 0.41991 0.0
C1318 C 0.25702 0.92957 0.39762 0.0
C1319 C 0.28902 0.9338 0.39661 0.0
C1320 C 0.30361 0.97738 0.39717 0.0
C1321 C 0.28498 0.01769 0.3984 0.0
C1322 C 0.25209 0.01421 0.39929 0.0
C1323 C 0.23809 0.96938 0.39923 0.0
H1324 H 0.77042 0.21412 0.88549 0.0
H1325 H 0.87014 0.19013 0.88352 0.0
H1326 H 0.86103 0.10516 0.88976 0.0
H1327 H 0.75439 0.13484 0.93403 0.0
H1328 H 0.71744 0.11743 0.92125 0.0
H1329 H 0.73252 0.17506 0.91503 0.0
H1330 H 0.72799 0.15921 0.86755 0.0
H1331 H 0.71275 0.10182 0.87397 0.0
H1332 H 0.7466 0.10822 0.85459 0.0
H1333 H 0.83947 0.02106 0.89728 0.0
H1334 H 0.80776 0.9486 0.90185 0.0
H1335 H 0.72394 0.03315 0.90225 0.0
C1336 C 0.79048 0.19117 0.88587 0.0
C1337 C 0.82101 0.20895 0.88384 0.0
C1338 C 0.84648 0.17734 0.88481 0.0
C1339 C 0.84154 0.12906 0.88857 0.0
C1340 C 0.81105 0.11314 0.89152 0.0
C1341 C 0.78604 0.14351 0.89003 0.0
C1342 C 0.75555 0.11877 0.89432 0.0
C1343 C 0.73901 0.13769 0.91752 0.0
C1344 C 0.7345 0.12219 0.87123 0.0
C1345 C 0.7671 0.06952 0.89837 0.0
C1346 C 0.79911 0.06641 0.8967 0.0
C1347 C 0.81441 0.0233 0.89877 0.0
C1348 C 0.79632 0.98238 0.90165 0.0
C1349 C 0.76344 0.98531 0.90245 0.0
C1350 C 0.74905 0.0297 0.90171 0.0
H1351 H 0.81189 0.9661 0.41363 0.0
H1352 H 0.72989 0.05425 0.41543 0.0
H1353 H 0.69651 0.98385 0.41018 0.0
H1354 H 0.78857 0.89485 0.36649 0.0
H1355 H 0.80506 0.84153 0.37869 0.0
H1356 H 0.82187 0.89708 0.38689 0.0
H1357 H 0.81473 0.87916 0.43375 0.0
H1358 H 0.79887 0.82276 0.42571 0.0
H1359 H 0.77696 0.86212 0.44507 0.0
H1360 H 0.67282 0.90231 0.40013 0.0
H1361 H 0.6615 0.81904 0.39033 0.0
H1362 H 0.76046 0.78871 0.393 0.0
C1363 C 0.78683 0.97044 0.41376 0.0
C1364 C 0.7734 0.01542 0.41519 0.0
C1365 C 0.74058 0.01992 0.41489 0.0
C1366 C 0.72152 0.98015 0.41164 0.0
C1367 C 0.73573 0.93638 0.40897 0.0
C1368 C 0.7677 0.93145 0.41053 0.0
C1369 C 0.77778 0.88162 0.40565 0.0
C1370 C 0.7996 0.87864 0.38309 0.0
C1371 C 0.79297 0.86016 0.42892 0.0
C1372 C 0.74667 0.85933 0.40022 0.0
C1373 C 0.7225 0.89094 0.40249 0.0
C1374 C 0.69165 0.87736 0.39842 0.0
C1375 C 0.68544 0.83009 0.39261 0.0
C1376 C 0.71002 0.79717 0.39059 0.0
C1377 C 0.74098 0.81271 0.39403 0.0
H1378 H 0.73458 0.96209 0.15683 0.0
H1379 H 0.80406 0.03836 0.1147 0.0
H1380 H 0.83532 0.96536 0.11135 0.0
H1381 H 0.78705 0.88809 0.19126 0.0
H1382 H 0.7613 0.83832 0.18992 0.0
H1383 H 0.74553 0.89677 0.18961 0.0
H1384 H 0.71627 0.87868 0.14857 0.0
H1385 H 0.73176 0.82015 0.14885 0.0
H1386 H 0.7378 0.85726 0.12225 0.0
H1387 H 0.85756 0.88178 0.11157 0.0
H1388 H 0.868 0.79685 0.11401 0.0
H1389 H 0.78335 0.77761 0.15653 0.0
C1390 C 0.75649 0.96398 0.147 0.0
C1391 C 0.7669 1.00633 0.1361 0.0
C1392 C 0.79562 1.00654 0.12327 0.0
C1393 C 0.81351 0.96523 0.12134 0.0
C1394 C 0.80237 0.92419 0.1324 0.0
C1395 C 0.77445 0.9235 0.14495 0.0
C1396 C 0.76674 0.87503 0.15453 0.0
C1397 C 0.76507 0.87455 0.18302 0.0
C1398 C 0.73635 0.85672 0.14284 0.0
C1399 C 0.79463 0.84799 0.14531 0.0
C1400 C 0.81502 0.87685 0.13265 0.0
C1401 C 0.84182 0.85911 0.1216 0.0
C1402 C 0.84755 0.81072 0.12312 0.0
C1403 C 0.8266 0.78037 0.13561 0.0
C1404 C 0.8001 0.79972 0.14719 0.0
H1405 H 0.754 0.23691 0.65292 0.0
H1406 H 0.65923 0.21252 0.62803 0.0
H1407 H 0.67212 0.12925 0.62032 0.0
H1408 H 0.78987 0.16936 0.60755 0.0
H1409 H 0.82036 0.14776 0.62753 0.0
H1410 H 0.80273 0.20371 0.63369 0.0
H1411 H 0.78827 0.17724 0.67824 0.0
H1412 H 0.80664 0.12164 0.67248 0.0
H1413 H 0.7667 0.12373 0.68257 0.0
H1414 H 0.69768 0.0486 0.61244 0.0
H1415 H 0.7317 0.97838 0.60953 0.0
H1416 H 0.80906 0.06015 0.6379 0.0
C1417 C 0.73564 0.21401 0.64637 0.0
C1418 C 0.70559 0.23136 0.64113 0.0
C1419 C 0.6824 0.20002 0.63239 0.0
C1420 C 0.68958 0.15272 0.62776 0.0
C1421 C 0.71998 0.13744 0.63201 0.0
C1422 C 0.74244 0.16722 0.64146 0.0
C1423 C 0.77366 0.14343 0.64362 0.0
C1424 C 0.79808 0.1675 0.62711 0.0
C1425 C 0.78443 0.14137 0.67084 0.0
C1426 C 0.76544 0.0955 0.63386 0.0
C1427 C 0.73446 0.09232 0.62717 0.0
C1428 C 0.72195 0.05078 0.61773 0.0
C1429 C 0.74145 0.01122 0.61589 0.0
C1430 C 0.77298 0.01381 0.62352 0.0
C1431 C 0.78503 0.0569 0.63201 0.0
H1432 H 0.75792 0.27668 0.1598 0.0
H1433 H 0.66932 0.2977 0.12265 0.0
H1434 H 0.68014 0.38239 0.11959 0.0
H1435 H 0.75898 0.38846 0.19443 0.0
H1436 H 0.80029 0.39557 0.19014 0.0
H1437 H 0.78372 0.33771 0.19183 0.0
H1438 H 0.80856 0.31749 0.14938 0.0
H1439 H 0.82479 0.37543 0.14735 0.0
H1440 H 0.80012 0.35373 0.12282 0.0
H1441 H 0.7032 0.46485 0.1172 0.0
H1442 H 0.73541 0.53707 0.11795 0.0
H1443 H 0.80845 0.46034 0.15615 0.0
C1444 C 0.74034 0.29924 0.15173 0.0
C1445 C 0.71262 0.28045 0.14171 0.0
C1446 C 0.69066 0.31123 0.13063 0.0
C1447 C 0.69662 0.35946 0.12873 0.0
C1448 C 0.72466 0.37662 0.13803 0.0
C1449 C 0.746 0.34744 0.14954 0.0
C1450 C 0.77517 0.37394 0.15664 0.0
C1451 C 0.7798 0.37392 0.18494 0.0
C1452 C 0.80384 0.35396 0.14324 0.0
C1453 C 0.76705 0.42235 0.14715 0.0
C1454 C 0.73784 0.42349 0.1365 0.0
C1455 C 0.72601 0.46442 0.12575 0.0
C1456 C 0.74448 0.50525 0.12616 0.0
C1457 C 0.77442 0.50473 0.1372 0.0
C1458 C 0.78559 0.46243 0.14772 0.0
H1459 H 0.71113 0.56307 0.6351 0.0
H1460 H 0.79463 0.47772 0.63894 0.0
H1461 H 0.82683 0.54951 0.63917 0.0
H1462 H 0.74197 0.65352 0.59539 0.0
H1463 H 0.72149 0.69984 0.61111 0.0
H1464 H 0.70539 0.64165 0.61043 0.0
H1465 H 0.70268 0.64166 0.6585 0.0
H1466 H 0.7191 0.69967 0.65932 0.0
H1467 H 0.73751 0.65278 0.67627 0.0
H1468 H 0.84988 0.63104 0.63772 0.0
H1469 H 0.86179 0.71583 0.63585 0.0
H1470 H 0.76304 0.74718 0.63579 0.0
C1471 C 0.7362 0.55935 0.63578 0.0
C1472 C 0.75038 0.51469 0.63686 0.0
C1473 C 0.78326 0.51153 0.63807 0.0
C1474 C 0.80173 0.5521 0.63822 0.0
C1475 C 0.78696 0.59556 0.6374 0.0
C1476 C 0.75493 0.5994 0.63627 0.0
C1477 C 0.74473 0.65017 0.63602 0.0
C1478 C 0.72738 0.66197 0.6118 0.0
C1479 C 0.72483 0.66173 0.65889 0.0
C1480 C 0.77602 0.67438 0.63721 0.0
C1481 C 0.80013 0.64231 0.63775 0.0
C1482 C 0.83119 0.65644 0.63758 0.0
C1483 C 0.83773 0.70457 0.63656 0.0
C1484 C 0.81335 0.73792 0.63614 0.0
C1485 C 0.78214 0.72249 0.63675 0.0
H1486 H 0.76654 0.72285 0.88387 0.0
H1487 H 0.66807 0.6935 0.87634 0.0
H1488 H 0.67899 0.60846 0.87842 0.0
H1489 H 0.79653 0.61834 0.85017 0.0
H1490 H 0.82832 0.61117 0.87172 0.0
H1491 H 0.81302 0.66874 0.86547 0.0
H1492 H 0.80409 0.68039 0.91254 0.0
H1493 H 0.8183 0.62238 0.91898 0.0
H1494 H 0.78003 0.63937 0.9292 0.0
H1495 H 0.70027 0.52721 0.88468 0.0
H1496 H 0.73059 0.45526 0.89289 0.0
H1497 H 0.81477 0.53841 0.8994 0.0
C1498 C 0.74751 0.69836 0.88152 0.0
C1499 C 0.71657 0.71438 0.87911 0.0
C1500 C 0.69198 0.68159 0.87751 0.0
C1501 C 0.69796 0.63336 0.87886 0.0
C1502 C 0.72862 0.61865 0.88223 0.0
C1503 C 0.75303 0.65015 0.88339 0.0
C1504 C 0.78343 0.62554 0.88929 0.0
C1505 C 0.80669 0.63128 0.86788 0.0
C1506 C 0.79726 0.64298 0.91397 0.0
C1507 C 0.77227 0.57541 0.89144 0.0
C1508 C 0.74064 0.57213 0.88713 0.0
C1509 C 0.72508 0.52935 0.88802 0.0
C1510 C 0.74245 0.48872 0.89285 0.0
C1511 C 0.77497 0.4912 0.89704 0.0
C1512 C 0.78988 0.53534 0.89666 0.0
H1513 H 0.7145 0.46578 0.40309 0.0
H1514 H 0.79747 0.54907 0.39029 0.0
H1515 H 0.82866 0.47662 0.38729 0.0
H1516 H 0.75147 0.37466 0.43986 0.0
H1517 H 0.72789 0.32882 0.42661 0.0
H1518 H 0.71271 0.38743 0.42893 0.0
H1519 H 0.70143 0.38688 0.38162 0.0
H1520 H 0.71714 0.32859 0.37915 0.0
H1521 H 0.73268 0.37507 0.36026 0.0
H1522 H 0.85094 0.39494 0.38615 0.0
H1523 H 0.8626 0.31007 0.38731 0.0
H1524 H 0.76468 0.28014 0.39821 0.0
C1525 C 0.7393 0.46892 0.39995 0.0
C1526 C 0.75354 0.51328 0.39705 0.0
C1527 C 0.78602 0.51559 0.39266 0.0
C1528 C 0.80393 0.47461 0.39086 0.0
C1529 C 0.78902 0.43151 0.39332 0.0
C1530 C 0.75746 0.42839 0.39783 0.0
C1531 C 0.74701 0.37776 0.39932 0.0
C1532 C 0.73401 0.36652 0.42522 0.0
C1533 C 0.72315 0.36643 0.37886 0.0
C1534 C 0.77762 0.35283 0.39481 0.0
C1535 C 0.80161 0.38449 0.39159 0.0
C1536 C 0.83229 0.36985 0.38838 0.0
C1537 C 0.83869 0.32166 0.38896 0.0
C1538 C 0.81447 0.28867 0.39227 0.0
C1539 C 0.7835 0.30455 0.39487 0.0
H1540 H 0.2764 0.7237 0.88279 0.0
H1541 H 0.37305 0.7001 0.90267 0.0
H1542 H 0.36239 0.61494 0.90635 0.0
H1543 H 0.24474 0.64557 0.9256 0.0
H1544 H 0.2135 0.62701 0.9055 0.0
H1545 H 0.2298 0.68469 0.90218 0.0
H1546 H 0.24189 0.66836 0.85582 0.0
H1547 H 0.22507 0.61093 0.85886 0.0
H1548 H 0.26428 0.61732 0.84756 0.0
H1549 H 0.33868 0.53071 0.90994 0.0
H1550 H 0.30567 0.45898 0.91043 0.0
H1551 H 0.22561 0.54365 0.89031 0.0
C1552 C 0.29559 0.70077 0.88755 0.0
C1553 C 0.32556 0.71868 0.89239 0.0
C1554 C 0.34989 0.68717 0.89866 0.0
C1555 C 0.344 0.63877 0.90095 0.0
C1556 C 0.31372 0.62263 0.89691 0.0
C1557 C 0.29009 0.65299 0.89012 0.0
C1558 C 0.25928 0.62829 0.88766 0.0
C1559 C 0.23545 0.64753 0.90635 0.0
C1560 C 0.24692 0.6314 0.86089 0.0
C1561 C 0.269 0.5791 0.89417 0.0
C1562 C 0.3004 0.5759 0.89942 0.0
C1563 C 0.31407 0.53302 0.90578 0.0
C1564 C 0.29518 0.49251 0.90618 0.0
C1565 C 0.26308 0.49553 0.9003 0.0
C1566 C 0.25009 0.53973 0.89473 0.0
H1567 H 0.31052 0.46898 0.39818 0.0
H1568 H 0.22843 0.55466 0.40919 0.0
H1569 H 0.19522 0.48373 0.40492 0.0
H1570 H 0.28049 0.397 0.35169 0.0
H1571 H 0.29992 0.34474 0.36234 0.0
H1572 H 0.31677 0.40128 0.36842 0.0
H1573 H 0.31799 0.38352 0.41554 0.0
H1574 H 0.30143 0.32658 0.40986 0.0
H1575 H 0.28262 0.36646 0.43097 0.0
H1576 H 0.17136 0.40172 0.39662 0.0
H1577 H 0.15988 0.31759 0.38988 0.0
H1578 H 0.25879 0.28985 0.38282 0.0
C1579 C 0.28555 0.47285 0.40008 0.0
C1580 C 0.27199 0.5172 0.40401 0.0
C1581 C 0.23927 0.52082 0.40646 0.0
C1582 C 0.22029 0.48083 0.40379 0.0
C1583 C 0.23452 0.43779 0.39883 0.0
C1584 C 0.26651 0.43375 0.3974 0.0
C1585 C 0.27655 0.38428 0.39171 0.0
C1586 C 0.29448 0.38171 0.36708 0.0
C1587 C 0.29579 0.36399 0.4133 0.0
C1588 C 0.24521 0.36082 0.38965 0.0
C1589 C 0.22112 0.39188 0.39387 0.0
C1590 C 0.19013 0.37723 0.39334 0.0
C1591 C 0.18381 0.32942 0.38927 0.0
C1592 C 0.2084 0.29694 0.38573 0.0
C1593 C 0.23935 0.31352 0.3853 0.0
H1594 H 0.22518 0.46529 0.14205 0.0
H1595 H 0.30514 0.54544 0.11772 0.0
H1596 H 0.33751 0.47326 0.11937 0.0
H1597 H 0.26338 0.39289 0.18501 0.0
H1598 H 0.24084 0.34145 0.17771 0.0
H1599 H 0.22415 0.39872 0.17345 0.0
H1600 H 0.21246 0.38008 0.1272 0.0
H1601 H 0.22841 0.32234 0.13148 0.0
H1602 H 0.24349 0.35985 0.10748 0.0
H1603 H 0.36112 0.39103 0.12582 0.0
H1604 H 0.37212 0.30656 0.13143 0.0
H1605 H 0.27571 0.28369 0.15202 0.0
C1606 C 0.24949 0.4677 0.13691 0.0
C1607 C 0.2628 0.51084 0.12993 0.0
C1608 C 0.29453 0.51255 0.12301 0.0
C1609 C 0.31306 0.47186 0.1241 0.0
C1610 C 0.29928 0.43004 0.13188 0.0
C1611 C 0.26803 0.42778 0.13772 0.0
C1612 C 0.25831 0.379 0.14517 0.0
C1613 C 0.24595 0.37799 0.17192 0.0
C1614 C 0.23426 0.35915 0.12673 0.0
C1615 C 0.2891 0.35396 0.14312 0.0
C1616 C 0.31256 0.38368 0.13544 0.0
C1617 C 0.34286 0.36755 0.13181 0.0
C1618 C 0.34896 0.31956 0.13527 0.0
C1619 C 0.3248 0.28837 0.14224 0.0
C1620 C 0.29478 0.30643 0.14682 0.0
H1621 H 0.24744 0.72893 0.65384 0.0
H1622 H 0.15652 0.70718 0.62065 0.0
H1623 H 0.16758 0.6221 0.61752 0.0
H1624 H 0.28777 0.6536 0.61549 0.0
H1625 H 0.31416 0.63298 0.63914 0.0
H1626 H 0.29735 0.69045 0.64157 0.0
H1627 H 0.27526 0.67017 0.68503 0.0
H1628 H 0.29251 0.61282 0.68293 0.0
H1629 H 0.25141 0.61874 0.68876 0.0
H1630 H 0.19193 0.53898 0.61466 0.0
H1631 H 0.22535 0.46784 0.61496 0.0
H1632 H 0.29952 0.54876 0.64906 0.0
C1633 C 0.2295 0.70627 0.64637 0.0
C1634 C 0.20113 0.7247 0.63752 0.0
C1635 C 0.17836 0.69376 0.62777 0.0
C1636 C 0.18452 0.64543 0.6258 0.0
C1637 C 0.21339 0.62875 0.63383 0.0
C1638 C 0.23526 0.65844 0.64423 0.0
C1639 C 0.26513 0.63318 0.65032 0.0
C1640 C 0.29271 0.65378 0.63576 0.0
C1641 C 0.27143 0.63376 0.67843 0.0
C1642 C 0.25704 0.58467 0.64136 0.0
C1643 C 0.22714 0.58225 0.632 0.0
C1644 C 0.21529 0.54055 0.62218 0.0
C1645 C 0.23445 0.50039 0.62229 0.0
C1646 C 0.26508 0.50252 0.63205 0.0
C1647 C 0.27624 0.5455 0.64151 0.0
loop_
_geom_bond_atom_site_label_1
_geom_bond_atom_site_label_2
_geom_bond_distance
_geom_bond_site_symmetry_2
_ccdc_geom_bond_type
Fe0 O2 1.918 . S
Fe0 O5 1.997 . S
Fe0 O6 2.002 . S
Fe0 O11 1.976 . S
Fe0 O14 1.996 . S
Fe1 O2 1.918 . S
Fe1 O9 1.997 . S
Fe1 O12 1.996 . S
Fe1 O16 1.976 . S
Fe1 O19 2.002 . S
O2 Fe0 1.918 . S
O2 Fe1 1.918 . S
O2 Fe3 1.918 . S
Fe3 O2 1.918 . S
Fe3 O4 2.002 . S
Fe3 O13 1.976 . S
Fe3 O17 1.996 . S
Fe3 O20 1.997 . S
O4 Fe3 2.002 . S
O4 C21 1.295 . S
O5 Fe0 1.997 . S
O5 C21 1.235 . S
O6 Fe0 2.002 . S
O6 C7 1.295 . S
C7 O6 1.295 . S
C7 O9 1.235 . S
C8 O13 1.287 . S
C8 O14 1.255 . S
O9 Fe1 1.997 . S
O9 C7 1.235 . S
C10 O16 1.287 . S
C10 O17 1.255 . S
O11 Fe0 1.976 . S
O11 C18 1.287 . S
O12 Fe1 1.996 . S
O12 C18 1.255 . S
O13 Fe3 1.976 . S
O13 C8 1.287 . S
O14 Fe0 1.996 . S
O14 C8 1.255 . S
C15 O19 1.295 . S
C15 O20 1.235 . S
O16 Fe1 1.976 . S
O16 C10 1.287 . S
O17 Fe3 1.996 . S
O17 C10 1.255 . S
C18 O11 1.287 . S
C18 O12 1.255 . S
O19 Fe1 2.002 . S
O19 C15 1.295 . S
O20 Fe3 1.997 . S
O20 C15 1.235 . S
C21 O4 1.295 . S
C21 O5 1.235 . S
Fe22 O24 1.918 . S
Fe22 O27 1.997 . S
Fe22 O28 2.002 . S
Fe22 O33 1.976 . S
Fe22 O36 1.996 . S
Fe23 O24 1.918 . S
Fe23 O31 1.997 . S
Fe23 O34 1.996 . S
Fe23 O38 1.976 . S
Fe23 O41 2.002 . S
O24 Fe22 1.918 . S
O24 Fe23 1.918 . S
O24 Fe25 1.918 . S
Fe25 O24 1.918 . S
Fe25 O26 2.002 . S
Fe25 O35 1.976 . S
Fe25 O39 1.996 . S
Fe25 O42 1.997 . S
O26 Fe25 2.002 . S
O26 C43 1.295 . S
O27 Fe22 1.997 . S
O27 C43 1.235 . S
O28 Fe22 2.002 . S
O28 C29 1.295 . S
C29 O28 1.295 . S
C29 O31 1.235 . S
C30 O35 1.287 . S
C30 O36 1.255 . S
O31 Fe23 1.997 . S
O31 C29 1.235 . S
C32 O38 1.287 . S
C32 O39 1.255 . S
O33 Fe22 1.976 . S
O33 C40 1.287 . S
O34 Fe23 1.996 . S
O34 C40 1.255 . S
O35 Fe25 1.976 . S
O35 C30 1.287 . S
O36 Fe22 1.996 . S
O36 C30 1.255 . S
C37 O41 1.295 . S
C37 O42 1.235 . S
O38 Fe23 1.976 . S
O38 C32 1.287 . S
O39 Fe25 1.996 . S
O39 C32 1.255 . S
C40 O33 1.287 . S
C40 O34 1.255 . S
O41 Fe23 2.002 . S
O41 C37 1.295 . S
O42 Fe25 1.997 . S
O42 C37 1.235 . S
C43 O26 1.295 . S
C43 O27 1.235 . S
Fe44 O46 1.918 . S
Fe44 O49 1.997 . S
Fe44 O50 2.002 . S
Fe44 O55 1.976 . S
Fe44 O58 1.996 . S
Fe45 O46 1.918 . S
Fe45 O53 1.997 . S
Fe45 O56 1.996 . S
Fe45 O60 1.976 . S
Fe45 O63 2.002 . S
O46 Fe44 1.918 . S
O46 Fe45 1.918 . S
O46 Fe47 1.918 . S
Fe47 O46 1.918 . S
Fe47 O48 2.002 . S
Fe47 O57 1.976 . S
Fe47 O61 1.996 . S
Fe47 O64 1.997 . S
O48 Fe47 2.002 . S
O48 C65 1.295 . S
O49 Fe44 1.997 . S
O49 C65 1.235 . S
O50 Fe44 2.002 . S
O50 C51 1.295 . S
C51 O50 1.295 . S
C51 O53 1.235 . S
C52 O57 1.287 . S
C52 O58 1.255 . S
O53 Fe45 1.997 . S
O53 C51 1.235 . S
C54 O60 1.287 . S
C54 O61 1.255 . S
O55 Fe44 1.976 . S
O55 C62 1.287 . S
O56 Fe45 1.996 . S
O56 C62 1.255 . S
O57 Fe47 1.976 . S
O57 C52 1.287 . S
O58 Fe44 1.996 . S
O58 C52 1.255 . S
C59 O63 1.295 . S
C59 O64 1.235 . S
O60 Fe45 1.976 . S
O60 C54 1.287 . S
O61 Fe47 1.996 . S
O61 C54 1.255 . S
C62 O55 1.287 . S
C62 O56 1.255 . S
O63 Fe45 2.002 . S
O63 C59 1.295 . S
O64 Fe47 1.997 . S
O64 C59 1.235 . S
C65 O48 1.295 . S
C65 O49 1.235 . S
Fe66 O68 1.918 . S
Fe66 O71 1.997 . S
Fe66 O72 2.002 . S
Fe66 O77 1.976 . S
Fe66 O80 1.996 . S
Fe67 O68 1.918 . S
Fe67 O75 1.997 . S
Fe67 O78 1.996 . S
Fe67 O82 1.976 . S
Fe67 O85 2.002 . S
O68 Fe66 1.918 . S
O68 Fe67 1.918 . S
O68 Fe69 1.918 . S
Fe69 O68 1.918 . S
Fe69 O70 2.002 . S
Fe69 O79 1.976 . S
Fe69 O83 1.996 . S
Fe69 O86 1.997 . S
O70 Fe69 2.002 . S
O70 C87 1.295 . S
O71 Fe66 1.997 . S
O71 C87 1.235 . S
O72 Fe66 2.002 . S
O72 C73 1.295 . S
C73 O72 1.295 . S
C73 O75 1.235 . S
C74 O79 1.287 . S
C74 O80 1.255 . S
O75 Fe67 1.997 . S
O75 C73 1.235 . S
C76 O82 1.287 . S
C76 O83 1.255 . S
O77 Fe66 1.976 . S
O77 C84 1.287 . S
O78 Fe67 1.996 . S
O78 C84 1.255 . S
O79 Fe69 1.976 . S
O79 C74 1.287 . S
O80 Fe66 1.996 . S
O80 C74 1.255 . S
C81 O85 1.295 . S
C81 O86 1.235 . S
O82 Fe67 1.976 . S
O82 C76 1.287 . S
O83 Fe69 1.996 . S
O83 C76 1.255 . S
C84 O77 1.287 . S
C84 O78 1.255 . S
O85 Fe67 2.002 . S
O85 C81 1.295 . S
O86 Fe69 1.997 . S
O86 C81 1.235 . S
C87 O70 1.295 . S
C87 O71 1.235 . S
Fe88 O90 1.918 . S
Fe88 O93 1.997 . S
Fe88 O94 2.002 . S
Fe88 O99 1.976 . S
Fe88 O102 1.996 . S
Fe89 O90 1.918 . S
Fe89 O97 1.997 . S
Fe89 O100 1.996 . S
Fe89 O104 1.976 . S
Fe89 O107 2.002 . S
O90 Fe88 1.918 . S
O90 Fe89 1.918 . S
O90 Fe91 1.918 . S
Fe91 O90 1.918 . S
Fe91 O92 2.002 . S
Fe91 O101 1.976 . S
Fe91 O105 1.996 . S
Fe91 O108 1.997 . S
O92 Fe91 2.002 . S
O92 C109 1.295 . S
O93 Fe88 1.997 . S
O93 C109 1.235 . S
O94 Fe88 2.002 . S
O94 C95 1.295 . S
C95 O94 1.295 . S
C95 O97 1.235 . S
C96 O101 1.287 . S
C96 O102 1.255 . S
O97 Fe89 1.997 . S
O97 C95 1.235 . S
C98 O104 1.287 . S
C98 O105 1.255 . S
O99 Fe88 1.976 . S
O99 C106 1.287 . S
O100 Fe89 1.996 . S
O100 C106 1.255 . S
O101 Fe91 1.976 . S
O101 C96 1.287 . S
O102 Fe88 1.996 . S
O102 C96 1.255 . S
C103 O107 1.295 . S
C103 O108 1.235 . S
O104 Fe89 1.976 . S
O104 C98 1.287 . S
O105 Fe91 1.996 . S
O105 C98 1.255 . S
C106 O99 1.287 . S
C106 O100 1.255 . S
O107 Fe89 2.002 . S
O107 C103 1.295 . S
O108 Fe91 1.997 . S
O108 C103 1.235 . S
C109 O92 1.295 . S
C109 O93 1.235 . S
Fe110 O112 1.918 . S
Fe110 O115 1.997 . S
Fe110 O116 2.002 . S
Fe110 O121 1.976 . S
Fe110 O124 1.996 . S
Fe111 O112 1.918 . S
Fe111 O119 1.997 . S
Fe111 O122 1.996 . S
Fe111 O126 1.976 . S
Fe111 O129 2.002 . S
O112 Fe110 1.918 . S
O112 Fe111 1.918 . S
O112 Fe113 1.918 . S
Fe113 O112 1.918 . S
Fe113 O114 2.002 . S
Fe113 O123 1.976 . S
Fe113 O127 1.996 . S
Fe113 O130 1.997 . S
O114 Fe113 2.002 . S
O114 C131 1.295 . S
O115 Fe110 1.997 . S
O115 C131 1.235 . S
O116 Fe110 2.002 . S
O116 C117 1.295 . S
C117 O116 1.295 . S
C117 O119 1.235 . S
C118 O123 1.287 . S
C118 O124 1.255 . S
O119 Fe111 1.997 . S
O119 C117 1.235 . S
C120 O126 1.287 . S
C120 O127 1.255 . S
O121 Fe110 1.976 . S
O121 C128 1.287 . S
O122 Fe111 1.996 . S
O122 C128 1.255 . S
O123 Fe113 1.976 . S
O123 C118 1.287 . S
O124 Fe110 1.996 . S
O124 C118 1.255 . S
C125 O129 1.295 . S
C125 O130 1.235 . S
O126 Fe111 1.976 . S
O126 C120 1.287 . S
O127 Fe113 1.996 . S
O127 C120 1.255 . S
C128 O121 1.287 . S
C128 O122 1.255 . S
O129 Fe111 2.002 . S
O129 C125 1.295 . S
O130 Fe113 1.997 . S
O130 C125 1.235 . S
C131 O114 1.295 . S
C131 O115 1.235 . S
Fe132 O134 1.918 . S
Fe132 O137 1.997 . S
Fe132 O138 2.002 . S
Fe132 O143 1.976 . S
Fe132 O146 1.996 . S
Fe133 O134 1.918 . S
Fe133 O141 1.997 . S
Fe133 O144 1.996 . S
Fe133 O148 1.976 . S
Fe133 O151 2.002 . S
O134 Fe132 1.918 . S
O134 Fe133 1.918 . S
O134 Fe135 1.918 . S
Fe135 O134 1.918 . S
Fe135 O136 2.002 . S
Fe135 O145 1.976 . S
Fe135 O149 1.996 . S
Fe135 O152 1.997 . S
O136 Fe135 2.002 . S
O136 C153 1.295 . S
O137 Fe132 1.997 . S
O137 C153 1.235 . S
O138 Fe132 2.002 . S
O138 C139 1.295 . S
C139 O138 1.295 . S
C139 O141 1.235 . S
C140 O145 1.287 . S
C140 O146 1.255 . S
O141 Fe133 1.997 . S
O141 C139 1.235 . S
C142 O148 1.287 . S
C142 O149 1.255 . S
O143 Fe132 1.976 . S
O143 C150 1.287 . S
O144 Fe133 1.996 . S
O144 C150 1.255 . S
O145 Fe135 1.976 . S
O145 C140 1.287 . S
O146 Fe132 1.996 . S
O146 C140 1.255 . S
C147 O151 1.295 . S
C147 O152 1.235 . S
O148 Fe133 1.976 . S
O148 C142 1.287 . S
O149 Fe135 1.996 . S
O149 C142 1.255 . S
C150 O143 1.287 . S
C150 O144 1.255 . S
O151 Fe133 2.002 . S
O151 C147 1.295 . S
O152 Fe135 1.997 . S
O152 C147 1.235 . S
C153 O136 1.295 . S
C153 O137 1.235 . S
Fe154 O156 1.918 . S
Fe154 O159 1.997 . S
Fe154 O160 2.002 . S
Fe154 O165 1.976 . S
Fe154 O168 1.996 . S
Fe155 O156 1.918 . S
Fe155 O163 1.997 . S
Fe155 O166 1.996 . S
Fe155 O170 1.976 . S
Fe155 O173 2.002 . S
O156 Fe154 1.918 . S
O156 Fe155 1.918 . S
O156 Fe157 1.918 . S
Fe157 O156 1.918 . S
Fe157 O158 2.002 . S
Fe157 O167 1.976 . S
Fe157 O171 1.996 . S
Fe157 O174 1.997 . S
O158 Fe157 2.002 . S
O158 C175 1.295 . S
O159 Fe154 1.997 . S
O159 C175 1.235 . S
O160 Fe154 2.002 . S
O160 C161 1.295 . S
C161 O160 1.295 . S
C161 O163 1.235 . S
C162 O167 1.287 . S
C162 O168 1.255 . S
O163 Fe155 1.997 . S
O163 C161 1.235 . S
C164 O170 1.287 . S
C164 O171 1.255 . S
O165 Fe154 1.976 . S
O165 C172 1.287 . S
O166 Fe155 1.996 . S
O166 C172 1.255 . S
O167 Fe157 1.976 . S
O167 C162 1.287 . S
O168 Fe154 1.996 . S
O168 C162 1.255 . S
C169 O173 1.295 . S
C169 O174 1.235 . S
O170 Fe155 1.976 . S
O170 C164 1.287 . S
O171 Fe157 1.996 . S
O171 C164 1.255 . S
C172 O165 1.287 . S
C172 O166 1.255 . S
O173 Fe155 2.002 . S
O173 C169 1.295 . S
O174 Fe157 1.997 . S
O174 C169 1.235 . S
C175 O158 1.295 . S
C175 O159 1.235 . S
Fe176 O178 1.918 . S
Fe176 O181 1.997 . S
Fe176 O182 2.002 . S
Fe176 O187 1.976 . S
Fe176 O190 1.996 . S
Fe177 O178 1.918 . S
Fe177 O185 1.997 . S
Fe177 O188 1.996 . S
Fe177 O192 1.976 . S
Fe177 O195 2.002 . S
O178 Fe176 1.918 . S
O178 Fe177 1.918 . S
O178 Fe179 1.918 . S
Fe179 O178 1.918 . S
Fe179 O180 2.002 . S
Fe179 O189 1.976 . S
Fe179 O193 1.996 . S
Fe179 O196 1.997 . S
O180 Fe179 2.002 . S
O180 C197 1.295 . S
O181 Fe176 1.997 . S
O181 C197 1.235 . S
O182 Fe176 2.002 . S
O182 C183 1.295 . S
C183 O182 1.295 . S
C183 O185 1.235 . S
C184 O189 1.287 . S
C184 O190 1.255 . S
O185 Fe177 1.997 . S
O185 C183 1.235 . S
C186 O192 1.287 . S
C186 O193 1.255 . S
O187 Fe176 1.976 . S
O187 C194 1.287 . S
O188 Fe177 1.996 . S
O188 C194 1.255 . S
O189 Fe179 1.976 . S
O189 C184 1.287 . S
O190 Fe176 1.996 . S
O190 C184 1.255 . S
C191 O195 1.295 . S
C191 O196 1.235 . S
O192 Fe177 1.976 . S
O192 C186 1.287 . S
O193 Fe179 1.996 . S
O193 C186 1.255 . S
C194 O187 1.287 . S
C194 O188 1.255 . S
O195 Fe177 2.002 . S
O195 C191 1.295 . S
O196 Fe179 1.997 . S
O196 C191 1.235 . S
C197 O180 1.295 . S
C197 O181 1.235 . S
Fe198 O200 1.918 . S
Fe198 O203 1.997 . S
Fe198 O204 2.002 . S
Fe198 O209 1.976 . S
Fe198 O212 1.996 . S
Fe199 O200 1.918 . S
Fe199 O207 1.997 . S
Fe199 O210 1.996 . S
Fe199 O214 1.976 . S
Fe199 O217 2.002 . S
O200 Fe198 1.918 . S
O200 Fe199 1.918 . S
O200 Fe201 1.918 . S
Fe201 O200 1.918 . S
Fe201 O202 2.002 . S
Fe201 O211 1.976 . S
Fe201 O215 1.996 . S
Fe201 O218 1.997 . S
O202 Fe201 2.002 . S
O202 C219 1.295 . S
O203 Fe198 1.997 . S
O203 C219 1.235 . S
O204 Fe198 2.002 . S
O204 C205 1.295 . S
C205 O204 1.295 . S
C205 O207 1.235 . S
C206 O211 1.287 . S
C206 O212 1.255 . S
O207 Fe199 1.997 . S
O207 C205 1.235 . S
C208 O214 1.287 . S
C208 O215 1.255 . S
O209 Fe198 1.976 . S
O209 C216 1.287 . S
O210 Fe199 1.996 . S
O210 C216 1.255 . S
O211 Fe201 1.976 . S
O211 C206 1.287 . S
O212 Fe198 1.996 . S
O212 C206 1.255 . S
C213 O217 1.295 . S
C213 O218 1.235 . S
O214 Fe199 1.976 . S
O214 C208 1.287 . S
O215 Fe201 1.996 . S
O215 C208 1.255 . S
C216 O209 1.287 . S
C216 O210 1.255 . S
O217 Fe199 2.002 . S
O217 C213 1.295 . S
O218 Fe201 1.997 . S
O218 C213 1.235 . S
C219 O202 1.295 . S
C219 O203 1.235 . S
Fe220 O222 1.918 . S
Fe220 O225 1.997 . S
Fe220 O226 2.002 . S
Fe220 O231 1.976 . S
Fe220 O234 1.996 . S
Fe221 O222 1.918 . S
Fe221 O229 1.997 . S
Fe221 O232 1.996 . S
Fe221 O236 1.976 . S
Fe221 O239 2.002 . S
O222 Fe220 1.918 . S
O222 Fe221 1.918 . S
O222 Fe223 1.918 . S
Fe223 O222 1.918 . S
Fe223 O224 2.002 . S
Fe223 O233 1.976 . S
Fe223 O237 1.996 . S
Fe223 O240 1.997 . S
O224 Fe223 2.002 . S
O224 C241 1.295 . S
O225 Fe220 1.997 . S
O225 C241 1.235 . S
O226 Fe220 2.002 . S
O226 C227 1.295 . S
C227 O226 1.295 . S
C227 O229 1.235 . S
C228 O233 1.287 . S
C228 O234 1.255 . S
O229 Fe221 1.997 . S
O229 C227 1.235 . S
C230 O236 1.287 . S
C230 O237 1.255 . S
O231 Fe220 1.976 . S
O231 C238 1.287 . S
O232 Fe221 1.996 . S
O232 C238 1.255 . S
O233 Fe223 1.976 . S
O233 C228 1.287 . S
O234 Fe220 1.996 . S
O234 C228 1.255 . S
C235 O239 1.295 . S
C235 O240 1.235 . S
O236 Fe221 1.976 . S
O236 C230 1.287 . S
O237 Fe223 1.996 . S
O237 C230 1.255 . S
C238 O231 1.287 . S
C238 O232 1.255 . S
O239 Fe221 2.002 . S
O239 C235 1.295 . S
O240 Fe223 1.997 . S
O240 C235 1.235 . S
C241 O224 1.295 . S
C241 O225 1.235 . S
Fe242 O244 1.918 . S
Fe242 O247 1.997 . S
Fe242 O248 2.002 . S
Fe242 O253 1.976 . S
Fe242 O256 1.996 . S
Fe243 O244 1.918 . S
Fe243 O251 1.997 . S
Fe243 O254 1.996 . S
Fe243 O258 1.976 . S
Fe243 O261 2.002 . S
O244 Fe242 1.918 . S
O244 Fe243 1.918 . S
O244 Fe245 1.918 . S
Fe245 O244 1.918 . S
Fe245 O246 2.002 . S
Fe245 O255 1.976 . S
Fe245 O259 1.996 . S
Fe245 O262 1.997 . S
O246 Fe245 2.002 . S
O246 C263 1.295 . S
O247 Fe242 1.997 . S
O247 C263 1.235 . S
O248 Fe242 2.002 . S
O248 C249 1.295 . S
C249 O248 1.295 . S
C249 O251 1.235 . S
C250 O255 1.287 . S
C250 O256 1.255 . S
O251 Fe243 1.997 . S
O251 C249 1.235 . S
C252 O258 1.287 . S
C252 O259 1.255 . S
O253 Fe242 1.976 . S
O253 C260 1.287 . S
O254 Fe243 1.996 . S
O254 C260 1.255 . S
O255 Fe245 1.976 . S
O255 C250 1.287 . S
O256 Fe242 1.996 . S
O256 C250 1.255 . S
C257 O261 1.295 . S
C257 O262 1.235 . S
O258 Fe243 1.976 . S
O258 C252 1.287 . S
O259 Fe245 1.996 . S
O259 C252 1.255 . S
C260 O253 1.287 . S
C260 O254 1.255 . S
O261 Fe243 2.002 . S
O261 C257 1.295 . S
O262 Fe245 1.997 . S
O262 C257 1.235 . S
C263 O246 1.295 . S
C263 O247 1.235 . S
Fe264 O266 1.918 . S
Fe264 O269 1.997 . S
Fe264 O270 2.002 . S
Fe264 O275 1.976 . S
Fe264 O278 1.996 . S
Fe265 O266 1.918 . S
Fe265 O273 1.997 . S
Fe265 O276 1.996 . S
Fe265 O280 1.976 . S
Fe265 O283 2.002 . S
O266 Fe264 1.918 . S
O266 Fe265 1.918 . S
O266 Fe267 1.918 . S
Fe267 O266 1.918 . S
Fe267 O268 2.002 . S
Fe267 O277 1.976 . S
Fe267 O281 1.996 . S
Fe267 O284 1.997 . S
O268 Fe267 2.002 . S
O268 C285 1.295 . S
O269 Fe264 1.997 . S
O269 C285 1.235 . S
O270 Fe264 2.002 . S
O270 C271 1.295 . S
C271 O270 1.295 . S
C271 O273 1.235 . S
C272 O277 1.287 . S
C272 O278 1.255 . S
O273 Fe265 1.997 . S
O273 C271 1.235 . S
C274 O280 1.287 . S
C274 O281 1.255 . S
O275 Fe264 1.976 . S
O275 C282 1.287 . S
O276 Fe265 1.996 . S
O276 C282 1.255 . S
O277 Fe267 1.976 . S
O277 C272 1.287 . S
O278 Fe264 1.996 . S
O278 C272 1.255 . S
C279 O283 1.295 . S
C279 O284 1.235 . S
O280 Fe265 1.976 . S
O280 C274 1.287 . S
O281 Fe267 1.996 . S
O281 C274 1.255 . S
C282 O275 1.287 . S
C282 O276 1.255 . S
O283 Fe265 2.002 . S
O283 C279 1.295 . S
O284 Fe267 1.997 . S
O284 C279 1.235 . S
C285 O268 1.295 . S
C285 O269 1.235 . S
Fe286 O288 1.918 . S
Fe286 O291 1.997 . S
Fe286 O292 2.002 . S
Fe286 O297 1.976 . S
Fe286 O300 1.996 . S
Fe287 O288 1.918 . S
Fe287 O295 1.997 . S
Fe287 O298 1.996 . S
Fe287 O302 1.976 . S
Fe287 O305 2.002 . S
O288 Fe286 1.918 . S
O288 Fe287 1.918 . S
O288 Fe289 1.918 . S
Fe289 O288 1.918 . S
Fe289 O290 2.002 . S
Fe289 O299 1.976 . S
Fe289 O303 1.996 . S
Fe289 O306 1.997 . S
O290 Fe289 2.002 . S
O290 C307 1.295 . S
O291 Fe286 1.997 . S
O291 C307 1.235 . S
O292 Fe286 2.002 . S
O292 C293 1.295 . S
C293 O292 1.295 . S
C293 O295 1.235 . S
C294 O299 1.287 . S
C294 O300 1.255 . S
O295 Fe287 1.997 . S
O295 C293 1.235 . S
C296 O302 1.287 . S
C296 O303 1.255 . S
O297 Fe286 1.976 . S
O297 C304 1.287 . S
O298 Fe287 1.996 . S
O298 C304 1.255 . S
O299 Fe289 1.976 . S
O299 C294 1.287 . S
O300 Fe286 1.996 . S
O300 C294 1.255 . S
C301 O305 1.295 . S
C301 O306 1.235 . S
O302 Fe287 1.976 . S
O302 C296 1.287 . S
O303 Fe289 1.996 . S
O303 C296 1.255 . S
C304 O297 1.287 . S
C304 O298 1.255 . S
O305 Fe287 2.002 . S
O305 C301 1.295 . S
O306 Fe289 1.997 . S
O306 C301 1.235 . S
C307 O290 1.295 . S
C307 O291 1.235 . S
Fe308 O310 1.918 . S
Fe308 O313 1.997 . S
Fe308 O314 2.002 . S
Fe308 O319 1.976 . S
Fe308 O322 1.996 . S
Fe309 O310 1.918 . S
Fe309 O317 1.997 . S
Fe309 O320 1.996 . S
Fe309 O324 1.976 . S
Fe309 O327 2.002 . S
O310 Fe308 1.918 . S
O310 Fe309 1.918 . S
O310 Fe311 1.918 . S
Fe311 O310 1.918 . S
Fe311 O312 2.002 . S
Fe311 O321 1.976 . S
Fe311 O325 1.996 . S
Fe311 O328 1.997 . S
O312 Fe311 2.002 . S
O312 C329 1.295 . S
O313 Fe308 1.997 . S
O313 C329 1.235 . S
O314 Fe308 2.002 . S
O314 C315 1.295 . S
C315 O314 1.295 . S
C315 O317 1.235 . S
C316 O321 1.287 . S
C316 O322 1.255 . S
O317 Fe309 1.997 . S
O317 C315 1.235 . S
C318 O324 1.287 . S
C318 O325 1.255 . S
O319 Fe308 1.976 . S
O319 C326 1.287 . S
O320 Fe309 1.996 . S
O320 C326 1.255 . S
O321 Fe311 1.976 . S
O321 C316 1.287 . S
O322 Fe308 1.996 . S
O322 C316 1.255 . S
C323 O327 1.295 . S
C323 O328 1.235 . S
O324 Fe309 1.976 . S
O324 C318 1.287 . S
O325 Fe311 1.996 . S
O325 C318 1.255 . S
C326 O319 1.287 . S
C326 O320 1.255 . S
O327 Fe309 2.002 . S
O327 C323 1.295 . S
O328 Fe311 1.997 . S
O328 C323 1.235 . S
C329 O312 1.295 . S
C329 O313 1.235 . S
Fe330 O332 1.918 . S
Fe330 O335 1.997 . S
Fe330 O336 2.002 . S
Fe330 O341 1.976 . S
Fe330 O344 1.996 . S
Fe331 O332 1.918 . S
Fe331 O339 1.997 . S
Fe331 O342 1.996 . S
Fe331 O346 1.976 . S
Fe331 O349 2.002 . S
O332 Fe330 1.918 . S
O332 Fe331 1.918 . S
O332 Fe333 1.918 . S
Fe333 O332 1.918 . S
Fe333 O334 2.002 . S
Fe333 O343 1.976 . S
Fe333 O347 1.996 . S
Fe333 O350 1.997 . S
O334 Fe333 2.002 . S
O334 C351 1.295 . S
O335 Fe330 1.997 . S
O335 C351 1.235 . S
O336 Fe330 2.002 . S
O336 C337 1.295 . S
C337 O336 1.295 . S
C337 O339 1.235 . S
C338 O343 1.287 . S
C338 O344 1.255 . S
O339 Fe331 1.997 . S
O339 C337 1.235 . S
C340 O346 1.287 . S
C340 O347 1.255 . S
O341 Fe330 1.976 . S
O341 C348 1.287 . S
O342 Fe331 1.996 . S
O342 C348 1.255 . S
O343 Fe333 1.976 . S
O343 C338 1.287 . S
O344 Fe330 1.996 . S
O344 C338 1.255 . S
C345 O349 1.295 . S
C345 O350 1.235 . S
O346 Fe331 1.976 . S
O346 C340 1.287 . S
O347 Fe333 1.996 . S
O347 C340 1.255 . S
C348 O341 1.287 . S
C348 O342 1.255 . S
O349 Fe331 2.002 . S
O349 C345 1.295 . S
O350 Fe333 1.997 . S
O350 C345 1.235 . S
C351 O334 1.295 . S
C351 O335 1.235 . S
H352 C364 0.930 . S
H353 C366 0.930 . S
H354 C367 0.930 . S
H355 C371 0.959 . S
H356 C371 0.959 . S
H357 C371 0.961 . S
H358 C372 0.960 . S
H359 C372 0.961 . S
H360 C372 0.959 . S
H361 C375 0.929 . S
H362 C376 0.931 . S
H363 C378 0.930 . S
C364 H352 0.930 . S
C364 C365 1.399 . S
C364 C369 1.399 . S
C365 C364 1.399 . S
C365 C366 1.376 . S
C366 H353 0.930 . S
C366 C365 1.376 . S
C366 C367 1.388 . S
C367 H354 0.930 . S
C367 C366 1.388 . S
C367 C368 1.390 . S
C368 C367 1.390 . S
C368 C369 1.394 . S
C368 C374 1.465 1_554 S
C369 C364 1.399 . S
C369 C368 1.394 . S
C369 C370 1.516 . S
C370 C369 1.516 . S
C370 C371 1.502 . S
C370 C372 1.561 . S
C370 C373 1.526 1_554 S
C371 H355 0.959 . S
C371 H356 0.959 . S
C371 H357 0.961 . S
C371 C370 1.502 . S
C372 H358 0.960 . S
C372 H359 0.961 . S
C372 H360 0.959 . S
C372 C370 1.561 . S
C373 C370 1.526 1_556 S
C373 C374 1.396 . S
C373 C378 1.390 . S
C374 C368 1.465 1_556 S
C374 C373 1.396 . S
C374 C375 1.399 . S
C375 H361 0.929 . S
C375 C374 1.399 . S
C375 C376 1.385 . S
C376 H362 0.931 . S
C376 C375 1.385 . S
C376 C377 1.389 . S
C377 C376 1.389 . S
C377 C378 1.387 . S
C378 H363 0.930 . S
C378 C373 1.390 . S
C378 C377 1.387 . S
H379 C391 0.930 . S
H380 C393 0.930 . S
H381 C394 0.930 . S
H382 C398 0.959 . S
H383 C398 0.959 . S
H384 C398 0.961 . S
H385 C399 0.960 . S
H386 C399 0.961 . S
H387 C399 0.959 . S
H388 C402 0.929 . S
H389 C403 0.931 . S
H390 C405 0.930 . S
C391 H379 0.930 . S
C391 C392 1.399 . S
C391 C396 1.399 . S
C392 C391 1.399 . S
C392 C393 1.376 . S
C393 H380 0.930 . S
C393 C392 1.376 . S
C393 C394 1.388 . S
C394 H381 0.930 . S
C394 C393 1.388 . S
C394 C395 1.390 . S
C395 C394 1.390 . S
C395 C396 1.394 . S
C395 C401 1.465 . S
C396 C391 1.399 . S
C396 C395 1.394 . S
C396 C397 1.516 . S
C397 C396 1.516 . S
C397 C398 1.502 . S
C397 C399 1.561 . S
C397 C400 1.526 . S
C398 H382 0.959 . S
C398 H383 0.959 . S
C398 H384 0.961 . S
C398 C397 1.502 . S
C399 H385 0.960 . S
C399 H386 0.961 . S
C399 H387 0.959 . S
C399 C397 1.561 . S
C400 C397 1.526 . S
C400 C401 1.396 . S
C400 C405 1.390 . S
C401 C395 1.465 . S
C401 C400 1.396 . S
C401 C402 1.399 . S
C402 H388 0.929 . S
C402 C401 1.399 . S
C402 C403 1.385 . S
C403 H389 0.931 . S
C403 C402 1.385 . S
C403 C404 1.389 . S
C404 C403 1.389 . S
C404 C405 1.387 . S
C405 H390 0.930 . S
C405 C400 1.390 . S
C405 C404 1.387 . S
H406 C418 0.930 . S
H407 C420 0.930 . S
H408 C421 0.930 . S
H409 C425 0.959 . S
H410 C425 0.959 . S
H411 C425 0.961 . S
H412 C426 0.960 . S
H413 C426 0.961 . S
H414 C426 0.959 . S
H415 C429 0.929 . S
H416 C430 0.931 . S
H417 C432 0.930 . S
C418 H406 0.930 . S
C418 C419 1.399 . S
C418 C423 1.399 . S
C419 C418 1.399 . S
C419 C420 1.376 . S
C420 H407 0.930 . S
C420 C419 1.376 . S
C420 C421 1.388 . S
C421 H408 0.930 . S
C421 C420 1.388 . S
C421 C422 1.390 . S
C422 C421 1.390 . S
C422 C423 1.394 . S
C422 C428 1.465 1_554 S
C423 C418 1.399 . S
C423 C422 1.394 . S
C423 C424 1.516 1_554 S
C424 C423 1.516 1_556 S
C424 C425 1.502 . S
C424 C426 1.561 . S
C424 C427 1.526 . S
C425 H409 0.959 . S
C425 H410 0.959 . S
C425 H411 0.961 . S
C425 C424 1.502 . S
C426 H412 0.960 . S
C426 H413 0.961 . S
C426 H414 0.959 . S
C426 C424 1.561 . S
C427 C424 1.526 . S
C427 C428 1.396 . S
C427 C432 1.390 . S
C428 C422 1.465 1_556 S
C428 C427 1.396 . S
C428 C429 1.399 . S
C429 H415 0.929 . S
C429 C428 1.399 . S
C429 C430 1.385 . S
C430 H416 0.931 . S
C430 C429 1.385 . S
C430 C431 1.389 . S
C431 C430 1.389 . S
C431 C432 1.387 . S
C432 H417 0.930 . S
C432 C427 1.390 . S
C432 C431 1.387 . S
H433 C445 0.930 . S
H434 C447 0.930 . S
H435 C448 0.930 . S
H436 C452 0.959 . S
H437 C452 0.959 . S
H438 C452 0.961 . S
H439 C453 0.960 . S
H440 C453 0.961 . S
H441 C453 0.959 . S
H442 C456 0.929 . S
H443 C457 0.931 . S
H444 C459 0.930 . S
C445 H433 0.930 . S
C445 C446 1.399 . S
C445 C450 1.399 . S
C446 C445 1.399 . S
C446 C447 1.376 . S
C447 H434 0.930 . S
C447 C446 1.376 . S
C447 C448 1.388 . S
C448 H435 0.930 . S
C448 C447 1.388 . S
C448 C449 1.390 . S
C449 C448 1.390 . S
C449 C450 1.394 . S
C449 C455 1.465 . S
C450 C445 1.399 . S
C450 C449 1.394 . S
C450 C451 1.516 . S
C451 C450 1.516 . S
C451 C452 1.502 . S
C451 C453 1.561 . S
C451 C454 1.526 . S
C452 H436 0.959 . S
C452 H437 0.959 . S
C452 H438 0.961 . S
C452 C451 1.502 . S
C453 H439 0.960 . S
C453 H440 0.961 . S
C453 H441 0.959 . S
C453 C451 1.561 . S
C454 C451 1.526 . S
C454 C455 1.396 . S
C454 C459 1.390 . S
C455 C449 1.465 . S
C455 C454 1.396 . S
C455 C456 1.399 . S
C456 H442 0.929 . S
C456 C455 1.399 . S
C456 C457 1.385 . S
C457 H443 0.931 . S
C457 C456 1.385 . S
C457 C458 1.389 . S
C458 C457 1.389 . S
C458 C459 1.387 . S
C459 H444 0.930 . S
C459 C454 1.390 . S
C459 C458 1.387 . S
H460 C472 0.930 . S
H461 C474 0.930 . S
H462 C475 0.930 . S
H463 C479 0.959 1_554 S
H464 C479 0.959 1_554 S
H465 C479 0.961 . S
H466 C480 0.960 . S
H467 C480 0.961 . S
H468 C480 0.959 . S
H469 C483 0.929 . S
H470 C484 0.931 . S
H471 C486 0.930 . S
C472 H460 0.930 . S
C472 C473 1.399 . S
C472 C477 1.399 . S
C473 C472 1.399 . S
C473 C474 1.376 . S
C474 H461 0.930 . S
C474 C473 1.376 . S
C474 C475 1.388 . S
C475 H462 0.930 . S
C475 C474 1.388 . S
C475 C476 1.390 . S
C476 C475 1.390 . S
C476 C477 1.394 . S
C476 C482 1.465 1_556 S
C477 C472 1.399 . S
C477 C476 1.394 . S
C477 C478 1.516 . S
C478 C477 1.516 . S
C478 C479 1.502 . S
C478 C480 1.561 . S
C478 C481 1.526 1_556 S
C479 H463 0.959 1_556 S
C479 H464 0.959 1_556 S
C479 H465 0.961 . S
C479 C478 1.502 . S
C480 H466 0.960 . S
C480 H467 0.961 . S
C480 H468 0.959 . S
C480 C478 1.561 . S
C481 C478 1.526 1_554 S
C481 C482 1.396 . S
C481 C486 1.390 . S
C482 C476 1.465 1_554 S
C482 C481 1.396 . S
C482 C483 1.399 . S
C483 H469 0.929 . S
C483 C482 1.399 . S
C483 C484 1.385 . S
C484 H470 0.931 . S
C484 C483 1.385 . S
C484 C485 1.389 . S
C485 C484 1.389 . S
C485 C486 1.387 . S
C486 H471 0.930 . S
C486 C481 1.390 . S
C486 C485 1.387 . S
H487 C499 0.930 . S
H488 C501 0.930 . S
H489 C502 0.930 . S
H490 C506 0.959 . S
H491 C506 0.959 . S
H492 C506 0.961 . S
H493 C507 0.960 . S
H494 C507 0.961 . S
H495 C507 0.959 . S
H496 C510 0.929 . S
H497 C511 0.931 . S
H498 C513 0.930 . S
C499 H487 0.930 . S
C499 C500 1.399 . S
C499 C504 1.399 . S
C500 C499 1.399 . S
C500 C501 1.376 . S
C501 H488 0.930 . S
C501 C500 1.376 . S
C501 C502 1.388 . S
C502 H489 0.930 . S
C502 C501 1.388 . S
C502 C503 1.390 . S
C503 C502 1.390 . S
C503 C504 1.394 . S
C503 C509 1.465 . S
C504 C499 1.399 . S
C504 C503 1.394 . S
C504 C505 1.516 . S
C505 C504 1.516 . S
C505 C506 1.502 . S
C505 C507 1.561 . S
C505 C508 1.526 . S
C506 H490 0.959 . S
C506 H491 0.959 . S
C506 H492 0.961 . S
C506 C505 1.502 . S
C507 H493 0.960 . S
C507 H494 0.961 . S
C507 H495 0.959 . S
C507 C505 1.561 . S
C508 C505 1.526 . S
C508 C509 1.396 . S
C508 C513 1.390 . S
C509 C503 1.465 . S
C509 C508 1.396 . S
C509 C510 1.399 . S
C510 H496 0.929 . S
C510 C509 1.399 . S
C510 C511 1.385 . S
C511 H497 0.931 . S
C511 C510 1.385 . S
C511 C512 1.389 . S
C512 C511 1.389 . S
C512 C513 1.387 . S
C513 H498 0.930 . S
C513 C508 1.390 . S
C513 C512 1.387 . S
H514 C526 0.930 . S
H515 C528 0.930 . S
H516 C529 0.930 . S
H517 C533 0.955 1_554 S
H518 C533 0.970 . S
H519 C533 0.952 1_554 S
H520 C534 0.960 . S
H521 C534 0.961 . S
H522 C534 0.959 . S
H523 C537 0.929 . S
H524 C538 0.931 . S
H525 C540 0.930 . S
C526 H514 0.930 . S
C526 C527 1.399 . S
C526 C531 1.399 . S
C527 C526 1.399 . S
C527 C528 1.376 . S
C528 H515 0.930 . S
C528 C527 1.376 . S
C528 C529 1.388 . S
C529 H516 0.930 . S
C529 C528 1.388 . S
C529 C530 1.390 . S
C530 C529 1.390 . S
C530 C531 1.394 . S
C530 C536 1.465 1_554 S
C531 C526 1.399 . S
C531 C530 1.394 . S
C531 C532 1.516 1_554 S
C532 C531 1.516 1_556 S
C532 C533 1.504 . S
C532 C534 1.561 . S
C532 C535 1.526 . S
C533 H517 0.955 1_556 S
C533 H518 0.970 . S
C533 H519 0.952 1_556 S
C533 C532 1.504 . S
C534 H520 0.960 . S
C534 H521 0.961 . S
C534 H522 0.959 . S
C534 C532 1.561 . S
C535 C532 1.526 . S
C535 C536 1.396 . S
C535 C540 1.390 . S
C536 C530 1.465 1_556 S
C536 C535 1.396 . S
C536 C537 1.399 . S
C537 H523 0.929 . S
C537 C536 1.399 . S
C537 C538 1.385 . S
C538 H524 0.931 . S
C538 C537 1.385 . S
C538 C539 1.389 . S
C539 C538 1.389 . S
C539 C540 1.387 . S
C540 H525 0.930 . S
C540 C535 1.390 . S
C540 C539 1.387 . S
H541 C553 0.930 . S
H542 C555 0.930 . S
H543 C556 0.930 . S
H544 C560 0.959 . S
H545 C560 0.959 . S
H546 C560 0.961 . S
H547 C561 0.960 . S
H548 C561 0.961 . S
H549 C561 0.959 . S
H550 C564 0.929 . S
H551 C565 0.931 . S
H552 C567 0.930 . S
C553 H541 0.930 . S
C553 C554 1.399 . S
C553 C558 1.399 . S
C554 C553 1.399 . S
C554 C555 1.376 . S
C555 H542 0.930 . S
C555 C554 1.376 . S
C555 C556 1.388 . S
C556 H543 0.930 . S
C556 C555 1.388 . S
C556 C557 1.390 . S
C557 C556 1.390 . S
C557 C558 1.394 . S
C557 C563 1.465 . S
C558 C553 1.399 . S
C558 C557 1.394 . S
C558 C559 1.516 . S
C559 C558 1.516 . S
C559 C560 1.502 . S
C559 C561 1.561 . S
C559 C562 1.526 . S
C560 H544 0.959 . S
C560 H545 0.959 . S
C560 H546 0.961 . S
C560 C559 1.502 . S
C561 H547 0.960 . S
C561 H548 0.961 . S
C561 H549 0.959 . S
C561 C559 1.561 . S
C562 C559 1.526 . S
C562 C563 1.396 . S
C562 C567 1.390 . S
C563 C557 1.465 . S
C563 C562 1.396 . S
C563 C564 1.399 . S
C564 H550 0.929 . S
C564 C563 1.399 . S
C564 C565 1.385 . S
C565 H551 0.931 . S
C565 C564 1.385 . S
C565 C566 1.389 . S
C566 C565 1.389 . S
C566 C567 1.387 . S
C567 H552 0.930 . S
C567 C562 1.390 . S
C567 C566 1.387 . S
H568 C580 0.930 . S
H569 C582 0.930 . S
H570 C583 0.930 1_554 S
H571 C587 0.959 . S
H572 C587 0.959 . S
H573 C587 0.961 . S
H574 C588 0.960 . S
H575 C588 0.961 . S
H576 C588 0.959 . S
H577 C591 0.929 . S
H578 C592 0.931 . S
H579 C594 0.930 . S
C580 H568 0.930 . S
C580 C581 1.399 . S
C580 C585 1.399 . S
C581 C580 1.399 . S
C581 C582 1.376 . S
C582 H569 0.930 . S
C582 C581 1.376 . S
C582 C583 1.388 . S
C583 H570 0.930 1_556 S
C583 C582 1.388 . S
C583 C584 1.390 . S
C584 C583 1.390 . S
C584 C585 1.394 . S
C584 C590 1.471 1_556 S
C585 C580 1.399 . S
C585 C584 1.394 . S
C585 C586 1.516 1_565 S
C586 C585 1.516 1_545 S
C586 C587 1.502 . S
C586 C588 1.561 . S
C586 C589 1.526 1_556 S
C587 H571 0.959 . S
C587 H572 0.959 . S
C587 H573 0.961 . S
C587 C586 1.502 . S
C588 H574 0.960 . S
C588 H575 0.961 . S
C588 H576 0.959 . S
C588 C586 1.561 . S
C589 C586 1.526 1_554 S
C589 C590 1.387 1_545 S
C589 C594 1.390 . S
C590 C584 1.471 1_554 S
C590 C589 1.387 1_565 S
C590 C591 1.400 . S
C591 H577 0.929 . S
C591 C590 1.400 . S
C591 C592 1.385 1_565 S
C592 H578 0.931 . S
C592 C591 1.385 1_545 S
C592 C593 1.389 . S
C593 C592 1.389 . S
C593 C594 1.387 . S
C594 H579 0.930 . S
C594 C589 1.390 . S
C594 C593 1.387 . S
H595 C607 0.930 . S
H596 C609 0.930 . S
H597 C610 0.930 . S
H598 C614 0.959 . S
H599 C614 0.959 . S
H600 C614 0.961 . S
H601 C615 0.960 . S
H602 C615 0.961 . S
H603 C615 0.959 . S
H604 C618 0.929 . S
H605 C619 0.931 . S
H606 C621 0.930 . S
C607 H595 0.930 . S
C607 C608 1.399 . S
C607 C612 1.399 . S
C608 C607 1.399 . S
C608 C609 1.376 . S
C609 H596 0.930 . S
C609 C608 1.376 . S
C609 C610 1.388 1_565 S
C610 H597 0.930 . S
C610 C609 1.388 1_545 S
C610 C611 1.394 . S
C611 C610 1.394 . S
C611 C612 1.375 1_545 S
C611 C617 1.478 . S
C612 C607 1.399 . S
C612 C611 1.375 1_565 S
C612 C613 1.516 . S
C613 C612 1.516 . S
C613 C614 1.502 . S
C613 C615 1.561 . S
C613 C616 1.526 1_565 S
C614 H598 0.959 . S
C614 H599 0.959 . S
C614 H600 0.961 . S
C614 C613 1.502 . S
C615 H601 0.960 . S
C615 H602 0.961 . S
C615 H603 0.959 . S
C615 C613 1.561 . S
C616 C613 1.526 1_545 S
C616 C617 1.396 . S
C616 C621 1.390 . S
C617 C611 1.478 . S
C617 C616 1.396 . S
C617 C618 1.399 . S
C618 H604 0.929 . S
C618 C617 1.399 . S
C618 C619 1.385 . S
C619 H605 0.931 . S
C619 C618 1.385 . S
C619 C620 1.389 . S
C620 C619 1.389 . S
C620 C621 1.387 . S
C621 H606 0.930 . S
C621 C616 1.390 . S
C621 C620 1.387 . S
H622 C634 0.930 . S
H623 C636 0.930 . S
H624 C637 0.909 1_554 S
H625 C641 0.959 . S
H626 C641 0.959 . S
H627 C641 0.961 . S
H628 C642 0.960 . S
H629 C642 0.961 1_554 S
H630 C642 0.959 1_564 S
H631 C645 0.929 . S
H632 C646 0.931 . S
H633 C648 0.930 . S
C634 H622 0.930 . S
C634 C635 1.399 . S
C634 C639 1.399 . S
C635 C634 1.399 . S
C635 C636 1.376 . S
C636 H623 0.930 . S
C636 C635 1.376 . S
C636 C637 1.388 . S
C637 H624 0.909 1_556 S
C637 C636 1.388 . S
C637 C638 1.390 . S
C638 C637 1.390 . S
C638 C639 1.394 . S
C638 C644 1.465 1_556 S
C639 C634 1.399 . S
C639 C638 1.394 . S
C639 C640 1.516 1_565 S
C640 C639 1.516 1_545 S
C640 C641 1.502 . S
C640 C642 1.561 . S
C640 C643 1.526 1_556 S
C641 H625 0.959 . S
C641 H626 0.959 . S
C641 H627 0.961 . S
C641 C640 1.502 . S
C642 H628 0.960 . S
C642 H629 0.961 1_556 S
C642 H630 0.959 1_546 S
C642 C640 1.561 . S
C643 C640 1.526 1_554 S
C643 C644 1.396 1_545 S
C643 C648 1.390 . S
C644 C638 1.465 1_554 S
C644 C643 1.396 1_565 S
C644 C645 1.399 . S
C645 H631 0.929 . S
C645 C644 1.399 . S
C645 C646 1.385 1_565 S
C646 H632 0.931 . S
C646 C645 1.385 1_545 S
C646 C647 1.389 . S
C647 C646 1.389 . S
C647 C648 1.387 . S
C648 H633 0.930 . S
C648 C643 1.390 . S
C648 C647 1.387 . S
H649 C661 0.930 . S
H650 C663 0.930 . S
H651 C664 0.930 . S
H652 C668 0.959 . S
H653 C668 0.959 . S
H654 C668 0.961 . S
H655 C669 0.960 . S
H656 C669 0.961 . S
H657 C669 0.959 . S
H658 C672 0.929 . S
H659 C673 0.931 . S
H660 C675 0.930 . S
C661 H649 0.930 . S
C661 C662 1.399 . S
C661 C666 1.399 . S
C662 C661 1.399 . S
C662 C663 1.376 . S
C663 H650 0.930 . S
C663 C662 1.376 . S
C663 C664 1.388 1_565 S
C664 H651 0.930 . S
C664 C663 1.388 1_545 S
C664 C665 1.390 . S
C665 C664 1.390 . S
C665 C666 1.394 1_545 S
C665 C671 1.465 . S
C666 C661 1.399 . S
C666 C665 1.394 1_565 S
C666 C667 1.516 . S
C667 C666 1.516 . S
C667 C668 1.502 . S
C667 C669 1.561 . S
C667 C670 1.526 1_565 S
C668 H652 0.959 . S
C668 H653 0.959 . S
C668 H654 0.961 . S
C668 C667 1.502 . S
C669 H655 0.960 . S
C669 H656 0.961 . S
C669 H657 0.959 . S
C669 C667 1.561 . S
C670 C667 1.526 1_545 S
C670 C671 1.396 . S
C670 C675 1.390 . S
C671 C665 1.465 . S
C671 C670 1.396 . S
C671 C672 1.399 . S
C672 H658 0.929 . S
C672 C671 1.399 . S
C672 C673 1.385 . S
C673 H659 0.931 . S
C673 C672 1.385 . S
C673 C674 1.389 . S
C674 C673 1.389 . S
C674 C675 1.387 . S
C675 H660 0.930 . S
C675 C670 1.390 . S
C675 C674 1.387 . S
H676 C688 0.930 . S
H677 C690 0.930 . S
H678 C691 0.930 . S
H679 C695 0.959 . S
H680 C695 0.959 . S
H681 C695 0.961 . S
H682 C696 0.960 . S
H683 C696 0.961 . S
H684 C696 0.959 . S
H685 C699 0.929 1_554 S
H686 C700 0.931 . S
H687 C702 0.930 . S
C688 H676 0.930 . S
C688 C689 1.399 . S
C688 C693 1.399 . S
C689 C688 1.399 . S
C689 C690 1.376 . S
C690 H677 0.930 . S
C690 C689 1.376 . S
C690 C691 1.388 . S
C691 H678 0.930 . S
C691 C690 1.388 . S
C691 C692 1.390 . S
C692 C691 1.390 . S
C692 C693 1.394 . S
C692 C698 1.465 1_554 S
C693 C688 1.399 . S
C693 C692 1.394 . S
C693 C694 1.516 1_554 S
C694 C693 1.516 1_556 S
C694 C695 1.502 . S
C694 C696 1.561 . S
C694 C697 1.526 . S
C695 H679 0.959 . S
C695 H680 0.959 . S
C695 H681 0.961 . S
C695 C694 1.502 . S
C696 H682 0.960 . S
C696 H683 0.961 . S
C696 H684 0.959 . S
C696 C694 1.561 . S
C697 C694 1.526 . S
C697 C698 1.396 . S
C697 C702 1.390 . S
C698 C692 1.465 1_556 S
C698 C697 1.396 . S
C698 C699 1.399 . S
C699 H685 0.929 1_556 S
C699 C698 1.399 . S
C699 C700 1.385 . S
C700 H686 0.931 . S
C700 C699 1.385 . S
C700 C701 1.389 . S
C701 C700 1.389 . S
C701 C702 1.387 . S
C702 H687 0.930 . S
C702 C697 1.390 . S
C702 C701 1.387 . S
H703 C715 0.930 . S
H704 C717 0.930 . S
H705 C718 0.930 . S
H706 C722 0.959 . S
H707 C722 0.959 . S
H708 C722 0.961 . S
H709 C723 0.960 . S
H710 C723 0.961 . S
H711 C723 0.959 . S
H712 C726 0.929 . S
H713 C727 0.931 . S
H714 C729 0.930 . S
C715 H703 0.930 . S
C715 C716 1.399 . S
C715 C720 1.399 . S
C716 C715 1.399 . S
C716 C717 1.376 . S
C717 H704 0.930 . S
C717 C716 1.376 . S
C717 C718 1.388 . S
C718 H705 0.930 . S
C718 C717 1.388 . S
C718 C719 1.390 . S
C719 C718 1.390 . S
C719 C720 1.394 . S
C719 C725 1.465 . S
C720 C715 1.399 . S
C720 C719 1.394 . S
C720 C721 1.516 . S
C721 C720 1.516 . S
C721 C722 1.502 . S
C721 C723 1.561 . S
C721 C724 1.526 . S
C722 H706 0.959 . S
C722 H707 0.959 . S
C722 H708 0.961 . S
C722 C721 1.502 . S
C723 H709 0.960 . S
C723 H710 0.961 . S
C723 H711 0.959 . S
C723 C721 1.561 . S
C724 C721 1.526 . S
C724 C725 1.396 . S
C724 C729 1.390 . S
C725 C719 1.465 . S
C725 C724 1.396 . S
C725 C726 1.399 . S
C726 H712 0.929 . S
C726 C725 1.399 . S
C726 C727 1.385 . S
C727 H713 0.931 . S
C727 C726 1.385 . S
C727 C728 1.389 . S
C728 C727 1.389 . S
C728 C729 1.387 . S
C729 H714 0.930 . S
C729 C724 1.390 . S
C729 C728 1.387 . S
H730 C742 0.930 . S
H731 C744 0.930 . S
H732 C745 0.930 . S
H733 C749 0.959 . S
H734 C749 0.959 1_556 S
H735 C749 0.961 . S
H736 C750 0.960 . S
H737 C750 0.961 . S
H738 C750 0.959 . S
H739 C753 0.929 . S
H740 C754 0.931 . S
H741 C756 0.930 . S
C742 H730 0.930 . S
C742 C743 1.399 . S
C742 C747 1.399 . S
C743 C742 1.399 . S
C743 C744 1.376 . S
C744 H731 0.930 . S
C744 C743 1.376 . S
C744 C745 1.388 . S
C745 H732 0.930 . S
C745 C744 1.388 . S
C745 C746 1.390 . S
C746 C745 1.390 . S
C746 C747 1.394 . S
C746 C752 1.465 1_554 S
C747 C742 1.399 . S
C747 C746 1.394 . S
C747 C748 1.516 1_554 S
C748 C747 1.516 1_556 S
C748 C749 1.502 1_556 S
C748 C750 1.561 . S
C748 C751 1.526 . S
C749 H733 0.959 . S
C749 H734 0.959 1_554 S
C749 H735 0.961 . S
C749 C748 1.502 1_554 S
C750 H736 0.960 . S
C750 H737 0.961 . S
C750 H738 0.959 . S
C750 C748 1.561 . S
C751 C748 1.526 . S
C751 C752 1.396 . S
C751 C756 1.390 . S
C752 C746 1.465 1_556 S
C752 C751 1.396 . S
C752 C753 1.399 . S
C753 H739 0.929 . S
C753 C752 1.399 . S
C753 C754 1.385 . S
C754 H740 0.931 . S
C754 C753 1.385 . S
C754 C755 1.389 . S
C755 C754 1.389 . S
C755 C756 1.387 . S
C756 H741 0.930 . S
C756 C751 1.390 . S
C756 C755 1.387 . S
H757 C769 0.930 . S
H758 C771 0.930 . S
H759 C772 0.930 . S
H760 C776 0.959 . S
H761 C776 0.959 . S
H762 C776 0.961 . S
H763 C777 0.960 . S
H764 C777 0.961 . S
H765 C777 0.959 . S
H766 C780 0.929 . S
H767 C781 0.931 . S
H768 C783 0.930 . S
C769 H757 0.930 . S
C769 C770 1.399 . S
C769 C774 1.399 . S
C770 C769 1.399 . S
C770 C771 1.376 . S
C771 H758 0.930 . S
C771 C770 1.376 . S
C771 C772 1.388 . S
C772 H759 0.930 . S
C772 C771 1.388 . S
C772 C773 1.390 . S
C773 C772 1.390 . S
C773 C774 1.394 . S
C773 C779 1.465 . S
C774 C769 1.399 . S
C774 C773 1.394 . S
C774 C775 1.516 . S
C775 C774 1.516 . S
C775 C776 1.502 . S
C775 C777 1.561 . S
C775 C778 1.526 . S
C776 H760 0.959 . S
C776 H761 0.959 . S
C776 H762 0.961 . S
C776 C775 1.502 . S
C777 H763 0.960 . S
C777 H764 0.961 . S
C777 H765 0.959 . S
C777 C775 1.561 . S
C778 C775 1.526 . S
C778 C779 1.396 . S
C778 C783 1.390 . S
C779 C773 1.465 . S
C779 C778 1.396 . S
C779 C780 1.399 . S
C780 H766 0.929 . S
C780 C779 1.399 . S
C780 C781 1.385 . S
C781 H767 0.931 . S
C781 C780 1.385 . S
C781 C782 1.389 . S
C782 C781 1.389 . S
C782 C783 1.387 . S
C783 H768 0.930 . S
C783 C778 1.390 . S
C783 C782 1.387 . S
H784 C796 0.930 . S
H785 C798 0.930 . S
H786 C799 0.930 . S
H787 C803 0.959 . S
H788 C803 0.959 . S
H789 C803 0.961 . S
H790 C804 0.960 . S
H791 C804 0.961 . S
H792 C804 0.959 . S
H793 C807 0.929 . S
H794 C808 0.931 . S
H795 C810 0.930 . S
C796 H784 0.930 . S
C796 C797 1.399 . S
C796 C801 1.399 . S
C797 C796 1.399 . S
C797 C798 1.376 . S
C798 H785 0.930 . S
C798 C797 1.376 . S
C798 C799 1.388 . S
C799 H786 0.930 . S
C799 C798 1.388 . S
C799 C800 1.390 . S
C800 C799 1.390 . S
C800 C801 1.394 . S
C800 C806 1.465 . S
C801 C796 1.399 . S
C801 C800 1.394 . S
C801 C802 1.516 . S
C802 C801 1.516 . S
C802 C803 1.502 . S
C802 C804 1.561 . S
C802 C805 1.526 . S
C803 H787 0.959 . S
C803 H788 0.959 . S
C803 H789 0.961 . S
C803 C802 1.502 . S
C804 H790 0.960 . S
C804 H791 0.961 . S
C804 H792 0.959 . S
C804 C802 1.561 . S
C805 C802 1.526 . S
C805 C806 1.396 . S
C805 C810 1.390 . S
C806 C800 1.465 . S
C806 C805 1.396 . S
C806 C807 1.399 . S
C807 H793 0.929 . S
C807 C806 1.399 . S
C807 C808 1.385 . S
C808 H794 0.931 . S
C808 C807 1.385 . S
C808 C809 1.389 . S
C809 C808 1.389 . S
C809 C810 1.387 . S
C810 H795 0.930 . S
C810 C805 1.390 . S
C810 C809 1.387 . S
H811 C823 0.930 . S
H812 C825 0.930 . S
H813 C826 0.930 . S
H814 C830 0.959 . S
H815 C830 0.959 . S
H816 C830 0.961 . S
H817 C831 0.960 . S
H818 C831 0.961 . S
H819 C831 0.959 . S
H820 C834 0.929 . S
H821 C835 0.931 . S
H822 C837 0.930 . S
C823 H811 0.930 . S
C823 C824 1.399 . S
C823 C828 1.399 . S
C824 C823 1.399 . S
C824 C825 1.376 . S
C825 H812 0.930 . S
C825 C824 1.376 . S
C825 C826 1.388 . S
C826 H813 0.930 . S
C826 C825 1.388 . S
C826 C827 1.390 . S
C827 C826 1.390 . S
C827 C828 1.394 . S
C827 C833 1.465 . S
C828 C823 1.399 . S
C828 C827 1.394 . S
C828 C829 1.516 . S
C829 C828 1.516 . S
C829 C830 1.502 . S
C829 C831 1.561 . S
C829 C832 1.526 . S
C830 H814 0.959 . S
C830 H815 0.959 . S
C830 H816 0.961 . S
C830 C829 1.502 . S
C831 H817 0.960 . S
C831 H818 0.961 . S
C831 H819 0.959 . S
C831 C829 1.561 . S
C832 C829 1.526 . S
C832 C833 1.396 . S
C832 C837 1.390 . S
C833 C827 1.465 . S
C833 C832 1.396 . S
C833 C834 1.399 . S
C834 H820 0.929 . S
C834 C833 1.399 . S
C834 C835 1.385 . S
C835 H821 0.931 . S
C835 C834 1.385 . S
C835 C836 1.389 . S
C836 C835 1.389 . S
C836 C837 1.387 . S
C837 H822 0.930 . S
C837 C832 1.390 . S
C837 C836 1.387 . S
H838 C850 0.930 . S
H839 C852 0.930 . S
H840 C853 0.930 . S
H841 C857 0.959 . S
H842 C857 0.959 . S
H843 C857 0.961 . S
H844 C858 0.960 . S
H845 C858 0.961 . S
H846 C858 0.959 . S
H847 C861 0.929 . S
H848 C862 0.931 . S
H849 C864 0.930 . S
C850 H838 0.930 . S
C850 C851 1.399 . S
C850 C855 1.399 . S
C851 C850 1.399 . S
C851 C852 1.376 . S
C852 H839 0.930 . S
C852 C851 1.376 . S
C852 C853 1.388 . S
C853 H840 0.930 . S
C853 C852 1.388 . S
C853 C854 1.390 . S
C854 C853 1.390 . S
C854 C855 1.394 . S
C854 C860 1.465 . S
C855 C850 1.399 . S
C855 C854 1.394 . S
C855 C856 1.516 . S
C856 C855 1.516 . S
C856 C857 1.502 . S
C856 C858 1.561 . S
C856 C859 1.526 . S
C857 H841 0.959 . S
C857 H842 0.959 . S
C857 H843 0.961 . S
C857 C856 1.502 . S
C858 H844 0.960 . S
C858 H845 0.961 . S
C858 H846 0.959 . S
C858 C856 1.561 . S
C859 C856 1.526 . S
C859 C860 1.396 . S
C859 C864 1.390 . S
C860 C854 1.465 . S
C860 C859 1.396 . S
C860 C861 1.399 . S
C861 H847 0.929 . S
C861 C860 1.399 . S
C861 C862 1.385 . S
C862 H848 0.931 . S
C862 C861 1.385 . S
C862 C863 1.389 . S
C863 C862 1.389 . S
C863 C864 1.387 . S
C864 H849 0.930 . S
C864 C859 1.390 . S
C864 C863 1.387 . S
H865 C877 0.930 . S
H866 C879 0.930 . S
H867 C880 0.930 . S
H868 C884 0.959 . S
H869 C884 0.959 . S
H870 C884 0.961 . S
H871 C885 0.960 . S
H872 C885 0.961 . S
H873 C885 0.959 . S
H874 C888 0.929 . S
H875 C889 0.931 . S
H876 C891 0.930 . S
C877 H865 0.930 . S
C877 C878 1.399 . S
C877 C882 1.399 . S
C878 C877 1.399 . S
C878 C879 1.376 . S
C879 H866 0.930 . S
C879 C878 1.376 . S
C879 C880 1.388 . S
C880 H867 0.930 . S
C880 C879 1.388 . S
C880 C881 1.390 . S
C881 C880 1.390 . S
C881 C882 1.394 . S
C881 C887 1.465 . S
C882 C877 1.399 . S
C882 C881 1.394 . S
C882 C883 1.516 . S
C883 C882 1.516 . S
C883 C884 1.502 . S
C883 C885 1.561 . S
C883 C886 1.526 . S
C884 H868 0.959 . S
C884 H869 0.959 . S
C884 H870 0.961 . S
C884 C883 1.502 . S
C885 H871 0.960 . S
C885 H872 0.961 . S
C885 H873 0.959 . S
C885 C883 1.561 . S
C886 C883 1.526 . S
C886 C887 1.396 . S
C886 C891 1.390 . S
C887 C881 1.465 . S
C887 C886 1.396 . S
C887 C888 1.399 . S
C888 H874 0.929 . S
C888 C887 1.399 . S
C888 C889 1.385 . S
C889 H875 0.931 . S
C889 C888 1.385 . S
C889 C890 1.389 . S
C890 C889 1.389 . S
C890 C891 1.387 . S
C891 H876 0.930 . S
C891 C886 1.390 . S
C891 C890 1.387 . S
H892 C904 0.930 . S
H893 C906 0.930 . S
H894 C907 0.930 . S
H895 C911 0.959 . S
H896 C911 0.959 . S
H897 C911 0.961 . S
H898 C912 0.960 . S
H899 C912 0.961 . S
H900 C912 0.959 . S
H901 C915 0.929 . S
H902 C916 0.931 . S
H903 C918 0.930 . S
C904 H892 0.930 . S
C904 C905 1.399 . S
C904 C909 1.399 . S
C905 C904 1.399 . S
C905 C906 1.376 . S
C906 H893 0.930 . S
C906 C905 1.376 . S
C906 C907 1.388 . S
C907 H894 0.930 . S
C907 C906 1.388 . S
C907 C908 1.390 . S
C908 C907 1.390 . S
C908 C909 1.394 . S
C908 C914 1.465 . S
C909 C904 1.399 . S
C909 C908 1.394 . S
C909 C910 1.516 . S
C910 C909 1.516 . S
C910 C911 1.502 . S
C910 C912 1.561 . S
C910 C913 1.526 . S
C911 H895 0.959 . S
C911 H896 0.959 . S
C911 H897 0.961 . S
C911 C910 1.502 . S
C912 H898 0.960 . S
C912 H899 0.961 . S
C912 H900 0.959 . S
C912 C910 1.561 . S
C913 C910 1.526 . S
C913 C914 1.396 . S
C913 C918 1.390 . S
C914 C908 1.465 . S
C914 C913 1.396 . S
C914 C915 1.399 . S
C915 H901 0.929 . S
C915 C914 1.399 . S
C915 C916 1.385 . S
C916 H902 0.931 . S
C916 C915 1.385 . S
C916 C917 1.389 . S
C917 C916 1.389 . S
C917 C918 1.387 . S
C918 H903 0.930 . S
C918 C913 1.390 . S
C918 C917 1.387 . S
H919 C931 0.930 . S
H920 C933 0.930 . S
H921 C934 0.930 . S
H922 C938 0.959 . S
H923 C938 0.959 . S
H924 C938 0.961 . S
H925 C939 0.960 . S
H926 C939 0.961 . S
H927 C939 0.959 . S
H928 C942 0.929 . S
H929 C943 0.931 . S
H930 C945 0.930 . S
C931 H919 0.930 . S
C931 C932 1.399 . S
C931 C936 1.399 . S
C932 C931 1.399 . S
C932 C933 1.376 . S
C933 H920 0.930 . S
C933 C932 1.376 . S
C933 C934 1.388 . S
C934 H921 0.930 . S
C934 C933 1.388 . S
C934 C935 1.390 . S
C935 C934 1.390 . S
C935 C936 1.394 . S
C935 C941 1.465 . S
C936 C931 1.399 . S
C936 C935 1.394 . S
C936 C937 1.516 . S
C937 C936 1.516 . S
C937 C938 1.502 . S
C937 C939 1.561 . S
C937 C940 1.526 . S
C938 H922 0.959 . S
C938 H923 0.959 . S
C938 H924 0.961 . S
C938 C937 1.502 . S
C939 H925 0.960 . S
C939 H926 0.961 . S
C939 H927 0.959 . S
C939 C937 1.561 . S
C940 C937 1.526 . S
C940 C941 1.396 . S
C940 C945 1.390 . S
C941 C935 1.465 . S
C941 C940 1.396 . S
C941 C942 1.399 . S
C942 H928 0.929 . S
C942 C941 1.399 . S
C942 C943 1.385 . S
C943 H929 0.931 . S
C943 C942 1.385 . S
C943 C944 1.389 . S
C944 C943 1.389 . S
C944 C945 1.387 . S
C945 H930 0.930 . S
C945 C940 1.390 . S
C945 C944 1.387 . S
H946 C958 0.930 . S
H947 C960 0.930 . S
H948 C961 0.930 . S
H949 C965 0.959 . S
H950 C965 0.959 . S
H951 C965 0.961 . S
H952 C966 0.960 . S
H953 C966 0.961 . S
H954 C966 0.959 . S
H955 C969 0.929 . S
H956 C970 0.931 . S
H957 C972 0.930 . S
C958 H946 0.930 . S
C958 C959 1.399 . S
C958 C963 1.399 . S
C959 C958 1.399 . S
C959 C960 1.376 . S
C960 H947 0.930 . S
C960 C959 1.376 . S
C960 C961 1.388 . S
C961 H948 0.930 . S
C961 C960 1.388 . S
C961 C962 1.390 . S
C962 C961 1.390 . S
C962 C963 1.394 . S
C962 C968 1.465 . S
C963 C958 1.399 . S
C963 C962 1.394 . S
C963 C964 1.516 . S
C964 C963 1.516 . S
C964 C965 1.502 . S
C964 C966 1.561 . S
C964 C967 1.526 . S
C965 H949 0.959 . S
C965 H950 0.959 . S
C965 H951 0.961 . S
C965 C964 1.502 . S
C966 H952 0.960 . S
C966 H953 0.961 . S
C966 H954 0.959 . S
C966 C964 1.561 . S
C967 C964 1.526 . S
C967 C968 1.396 . S
C967 C972 1.390 . S
C968 C962 1.465 . S
C968 C967 1.396 . S
C968 C969 1.399 . S
C969 H955 0.929 . S
C969 C968 1.399 . S
C969 C970 1.385 . S
C970 H956 0.931 . S
C970 C969 1.385 . S
C970 C971 1.389 . S
C971 C970 1.389 . S
C971 C972 1.387 . S
C972 H957 0.930 . S
C972 C967 1.390 . S
C972 C971 1.387 . S
H973 C985 0.930 . S
H974 C987 0.930 . S
H975 C988 0.930 . S
H976 C992 0.959 . S
H977 C992 0.959 . S
H978 C992 0.961 . S
H979 C993 0.960 . S
H980 C993 0.961 . S
H981 C993 0.959 . S
H982 C996 0.929 . S
H983 C997 0.931 . S
H984 C999 0.930 . S
C985 H973 0.930 . S
C985 C986 1.399 . S
C985 C990 1.399 . S
C986 C985 1.399 . S
C986 C987 1.376 . S
C987 H974 0.930 . S
C987 C986 1.376 . S
C987 C988 1.388 . S
C988 H975 0.930 . S
C988 C987 1.388 . S
C988 C989 1.390 . S
C989 C988 1.390 . S
C989 C990 1.394 . S
C989 C995 1.465 . S
C990 C985 1.399 . S
C990 C989 1.394 . S
C990 C991 1.516 . S
C991 C990 1.516 . S
C991 C992 1.502 . S
C991 C993 1.561 . S
C991 C994 1.526 . S
C992 H976 0.959 . S
C992 H977 0.959 . S
C992 H978 0.961 . S
C992 C991 1.502 . S
C993 H979 0.960 . S
C993 H980 0.961 . S
C993 H981 0.959 . S
C993 C991 1.561 . S
C994 C991 1.526 . S
C994 C995 1.396 . S
C994 C999 1.390 . S
C995 C989 1.465 . S
C995 C994 1.396 . S
C995 C996 1.399 . S
C996 H982 0.929 . S
C996 C995 1.399 . S
C996 C997 1.385 . S
C997 H983 0.931 . S
C997 C996 1.385 . S
C997 C998 1.389 . S
C998 C997 1.389 . S
C998 C999 1.387 . S
C999 H984 0.930 . S
C999 C994 1.390 . S
C999 C998 1.387 . S
H1000 C1012 0.930 . S
H1001 C1014 0.930 . S
H1002 C1015 0.930 . S
H1003 C1019 0.959 . S
H1004 C1019 0.959 . S
H1005 C1019 0.961 . S
H1006 C1020 0.960 . S
H1007 C1020 0.961 . S
H1008 C1020 0.959 . S
H1009 C1023 0.929 . S
H1010 C1024 0.931 . S
H1011 C1026 0.930 . S
C1012 H1000 0.930 . S
C1012 C1013 1.399 . S
C1012 C1017 1.399 . S
C1013 C1012 1.399 . S
C1013 C1014 1.376 . S
C1014 H1001 0.930 . S
C1014 C1013 1.376 . S
C1014 C1015 1.388 . S
C1015 H1002 0.930 . S
C1015 C1014 1.388 . S
C1015 C1016 1.390 . S
C1016 C1015 1.390 . S
C1016 C1017 1.394 . S
C1016 C1022 1.465 . S
C1017 C1012 1.399 . S
C1017 C1016 1.394 . S
C1017 C1018 1.516 . S
C1018 C1017 1.516 . S
C1018 C1019 1.502 . S
C1018 C1020 1.561 . S
C1018 C1021 1.526 . S
C1019 H1003 0.959 . S
C1019 H1004 0.959 . S
C1019 H1005 0.961 . S
C1019 C1018 1.502 . S
C1020 H1006 0.960 . S
C1020 H1007 0.961 . S
C1020 H1008 0.959 . S
C1020 C1018 1.561 . S
C1021 C1018 1.526 . S
C1021 C1022 1.396 . S
C1021 C1026 1.390 . S
C1022 C1016 1.465 . S
C1022 C1021 1.396 . S
C1022 C1023 1.399 . S
C1023 H1009 0.929 . S
C1023 C1022 1.399 . S
C1023 C1024 1.385 . S
C1024 H1010 0.931 . S
C1024 C1023 1.385 . S
C1024 C1025 1.389 . S
C1025 C1024 1.389 . S
C1025 C1026 1.387 . S
C1026 H1011 0.930 . S
C1026 C1021 1.390 . S
C1026 C1025 1.387 . S
H1027 C1039 0.930 . S
H1028 C1041 0.930 . S
H1029 C1042 0.930 . S
H1030 C1046 0.959 . S
H1031 C1046 0.959 . S
H1032 C1046 0.961 1_455 S
H1033 C1047 0.949 1_455 S
H1034 C1047 0.971 . S
H1035 C1047 0.960 . S
H1036 C1050 0.929 . S
H1037 C1051 0.931 . S
H1038 C1053 0.930 . S
C1039 H1027 0.930 . S
C1039 C1040 1.399 . S
C1039 C1044 1.399 . S
C1040 C1039 1.399 . S
C1040 C1041 1.376 . S
C1041 H1028 0.930 . S
C1041 C1040 1.376 . S
C1041 C1042 1.388 . S
C1042 H1029 0.930 . S
C1042 C1041 1.388 . S
C1042 C1043 1.390 . S
C1043 C1042 1.390 . S
C1043 C1044 1.394 . S
C1043 C1049 1.465 1_455 S
C1044 C1039 1.399 . S
C1044 C1043 1.394 . S
C1044 C1045 1.508 1_455 S
C1045 C1044 1.508 1_655 S
C1045 C1046 1.502 . S
C1045 C1047 1.561 . S
C1045 C1048 1.534 . S
C1046 H1030 0.959 . S
C1046 H1031 0.959 . S
C1046 H1032 0.961 1_655 S
C1046 C1045 1.502 . S
C1047 H1033 0.949 1_655 S
C1047 H1034 0.971 . S
C1047 H1035 0.960 . S
C1047 C1045 1.561 . S
C1048 C1045 1.534 . S
C1048 C1049 1.396 . S
C1048 C1053 1.390 . S
C1049 C1043 1.465 1_655 S
C1049 C1048 1.396 . S
C1049 C1050 1.399 . S
C1050 H1036 0.929 . S
C1050 C1049 1.399 . S
C1050 C1051 1.385 . S
C1051 H1037 0.931 . S
C1051 C1050 1.385 . S
C1051 C1052 1.389 . S
C1052 C1051 1.389 . S
C1052 C1053 1.387 . S
C1053 H1038 0.930 . S
C1053 C1048 1.390 . S
C1053 C1052 1.387 . S
H1054 C1066 0.930 . S
H1055 C1068 0.930 . S
H1056 C1069 0.930 . S
H1057 C1073 0.959 . S
H1058 C1073 0.959 . S
H1059 C1073 0.961 . S
H1060 C1074 0.960 . S
H1061 C1074 0.961 . S
H1062 C1074 0.959 . S
H1063 C1077 0.929 . S
H1064 C1078 0.931 . S
H1065 C1080 0.930 . S
C1066 H1054 0.930 . S
C1066 C1067 1.399 . S
C1066 C1071 1.399 . S
C1067 C1066 1.399 . S
C1067 C1068 1.376 . S
C1068 H1055 0.930 . S
C1068 C1067 1.376 . S
C1068 C1069 1.388 . S
C1069 H1056 0.930 . S
C1069 C1068 1.388 . S
C1069 C1070 1.390 . S
C1070 C1069 1.390 . S
C1070 C1071 1.394 . S
C1070 C1076 1.465 . S
C1071 C1066 1.399 . S
C1071 C1070 1.394 . S
C1071 C1072 1.516 . S
C1072 C1071 1.516 . S
C1072 C1073 1.502 . S
C1072 C1074 1.561 . S
C1072 C1075 1.526 . S
C1073 H1057 0.959 . S
C1073 H1058 0.959 . S
C1073 H1059 0.961 . S
C1073 C1072 1.502 . S
C1074 H1060 0.960 . S
C1074 H1061 0.961 . S
C1074 H1062 0.959 . S
C1074 C1072 1.561 . S
C1075 C1072 1.526 . S
C1075 C1076 1.396 . S
C1075 C1080 1.390 . S
C1076 C1070 1.465 . S
C1076 C1075 1.396 . S
C1076 C1077 1.399 . S
C1077 H1063 0.929 . S
C1077 C1076 1.399 . S
C1077 C1078 1.385 . S
C1078 H1064 0.931 . S
C1078 C1077 1.385 . S
C1078 C1079 1.389 . S
C1079 C1078 1.389 . S
C1079 C1080 1.387 . S
C1080 H1065 0.930 . S
C1080 C1075 1.390 . S
C1080 C1079 1.387 . S
H1081 C1093 0.930 . S
H1082 C1095 0.930 . S
H1083 C1096 0.930 . S
H1084 C1100 0.961 . S
H1085 C1100 0.972 . S
H1086 C1100 0.947 1_655 S
H1087 C1101 0.963 . S
H1088 C1101 0.958 1_455 S
H1089 C1101 0.959 1_455 S
H1090 C1104 0.929 . S
H1091 C1105 0.931 . S
H1092 C1107 0.930 . S
C1093 H1081 0.930 . S
C1093 C1094 1.399 . S
C1093 C1098 1.399 . S
C1094 C1093 1.399 . S
C1094 C1095 1.376 . S
C1095 H1082 0.930 . S
C1095 C1094 1.376 . S
C1095 C1096 1.388 . S
C1096 H1083 0.930 . S
C1096 C1095 1.388 . S
C1096 C1097 1.390 . S
C1097 C1096 1.390 . S
C1097 C1098 1.394 . S
C1097 C1103 1.465 1_655 S
C1098 C1093 1.399 . S
C1098 C1097 1.394 . S
C1098 C1099 1.518 . S
C1099 C1098 1.518 . S
C1099 C1100 1.502 1_655 S
C1099 C1101 1.561 . S
C1099 C1102 1.524 1_655 S
C1100 H1084 0.961 . S
C1100 H1085 0.972 . S
C1100 H1086 0.947 1_455 S
C1100 C1099 1.502 1_455 S
C1101 H1087 0.963 . S
C1101 H1088 0.958 1_655 S
C1101 H1089 0.959 1_655 S
C1101 C1099 1.561 . S
C1102 C1099 1.524 1_455 S
C1102 C1103 1.396 . S
C1102 C1107 1.390 . S
C1103 C1097 1.465 1_455 S
C1103 C1102 1.396 . S
C1103 C1104 1.399 . S
C1104 H1090 0.929 . S
C1104 C1103 1.399 . S
C1104 C1105 1.385 . S
C1105 H1091 0.931 . S
C1105 C1104 1.385 . S
C1105 C1106 1.389 . S
C1106 C1105 1.389 . S
C1106 C1107 1.387 . S
C1107 H1092 0.930 . S
C1107 C1102 1.390 . S
C1107 C1106 1.387 . S
H1108 C1120 0.930 . S
H1109 C1122 0.930 . S
H1110 C1123 0.930 . S
H1111 C1127 0.962 . S
H1112 C1127 0.982 . S
H1113 C1127 0.936 1_655 S
H1114 C1128 0.948 1_655 S
H1115 C1128 0.972 . S
H1116 C1128 0.960 . S
H1117 C1131 0.929 . S
H1118 C1132 0.931 . S
H1119 C1134 0.930 . S
C1120 H1108 0.930 . S
C1120 C1121 1.399 . S
C1120 C1125 1.399 . S
C1121 C1120 1.399 . S
C1121 C1122 1.376 . S
C1122 H1109 0.930 . S
C1122 C1121 1.376 . S
C1122 C1123 1.388 . S
C1123 H1110 0.930 . S
C1123 C1122 1.388 . S
C1123 C1124 1.390 . S
C1124 C1123 1.390 . S
C1124 C1125 1.394 . S
C1124 C1130 1.465 1_655 S
C1125 C1120 1.399 . S
C1125 C1124 1.394 . S
C1125 C1126 1.511 1_655 S
C1126 C1125 1.511 1_455 S
C1126 C1127 1.502 . S
C1126 C1128 1.561 . S
C1126 C1129 1.531 . S
C1127 H1111 0.962 . S
C1127 H1112 0.982 . S
C1127 H1113 0.936 1_455 S
C1127 C1126 1.502 . S
C1128 H1114 0.948 1_455 S
C1128 H1115 0.972 . S
C1128 H1116 0.960 . S
C1128 C1126 1.561 . S
C1129 C1126 1.531 . S
C1129 C1130 1.396 . S
C1129 C1134 1.390 . S
C1130 C1124 1.465 1_455 S
C1130 C1129 1.396 . S
C1130 C1131 1.399 . S
C1131 H1117 0.929 . S
C1131 C1130 1.399 . S
C1131 C1132 1.385 . S
C1132 H1118 0.931 . S
C1132 C1131 1.385 . S
C1132 C1133 1.389 . S
C1133 C1132 1.389 . S
C1133 C1134 1.387 . S
C1134 H1119 0.930 . S
C1134 C1129 1.390 . S
C1134 C1133 1.387 . S
H1135 C1147 0.930 . S
H1136 C1149 0.930 . S
H1137 C1150 0.930 . S
H1138 C1154 0.959 . S
H1139 C1154 0.959 . S
H1140 C1154 0.961 . S
H1141 C1155 0.960 . S
H1142 C1155 0.961 . S
H1143 C1155 0.959 . S
H1144 C1158 0.929 . S
H1145 C1159 0.931 . S
H1146 C1161 0.930 . S
C1147 H1135 0.930 . S
C1147 C1148 1.399 . S
C1147 C1152 1.399 . S
C1148 C1147 1.399 . S
C1148 C1149 1.376 . S
C1149 H1136 0.930 . S
C1149 C1148 1.376 . S
C1149 C1150 1.388 . S
C1150 H1137 0.930 . S
C1150 C1149 1.388 . S
C1150 C1151 1.390 . S
C1151 C1150 1.390 . S
C1151 C1152 1.394 . S
C1151 C1157 1.465 . S
C1152 C1147 1.399 . S
C1152 C1151 1.394 . S
C1152 C1153 1.516 . S
C1153 C1152 1.516 . S
C1153 C1154 1.502 . S
C1153 C1155 1.561 . S
C1153 C1156 1.526 . S
C1154 H1138 0.959 . S
C1154 H1139 0.959 . S
C1154 H1140 0.961 . S
C1154 C1153 1.502 . S
C1155 H1141 0.960 . S
C1155 H1142 0.961 . S
C1155 H1143 0.959 . S
C1155 C1153 1.561 . S
C1156 C1153 1.526 . S
C1156 C1157 1.396 . S
C1156 C1161 1.390 . S
C1157 C1151 1.465 . S
C1157 C1156 1.396 . S
C1157 C1158 1.399 . S
C1158 H1144 0.929 . S
C1158 C1157 1.399 . S
C1158 C1159 1.385 . S
C1159 H1145 0.931 . S
C1159 C1158 1.385 . S
C1159 C1160 1.389 . S
C1160 C1159 1.389 . S
C1160 C1161 1.387 . S
C1161 H1146 0.930 . S
C1161 C1156 1.390 . S
C1161 C1160 1.387 . S
H1162 C1174 0.930 . S
H1163 C1176 0.930 . S
H1164 C1177 0.930 . S
H1165 C1181 0.960 . S
H1166 C1181 0.967 . S
H1167 C1181 0.953 1_455 S
H1168 C1182 0.958 . S
H1169 C1182 0.962 1_655 S
H1170 C1182 0.959 1_655 S
H1171 C1185 0.929 . S
H1172 C1186 0.931 . S
H1173 C1188 0.930 . S
C1174 H1162 0.930 . S
C1174 C1175 1.399 . S
C1174 C1179 1.399 . S
C1175 C1174 1.399 . S
C1175 C1176 1.376 . S
C1176 H1163 0.930 . S
C1176 C1175 1.376 . S
C1176 C1177 1.388 . S
C1177 H1164 0.930 . S
C1177 C1176 1.388 . S
C1177 C1178 1.390 . S
C1178 C1177 1.390 . S
C1178 C1179 1.394 . S
C1178 C1184 1.465 1_455 S
C1179 C1174 1.399 . S
C1179 C1178 1.394 . S
C1179 C1180 1.518 . S
C1180 C1179 1.518 . S
C1180 C1181 1.502 1_455 S
C1180 C1182 1.561 . S
C1180 C1183 1.524 1_455 S
C1181 H1165 0.960 . S
C1181 H1166 0.967 . S
C1181 H1167 0.953 1_655 S
C1181 C1180 1.502 1_655 S
C1182 H1168 0.958 . S
C1182 H1169 0.962 1_455 S
C1182 H1170 0.959 1_455 S
C1182 C1180 1.561 . S
C1183 C1180 1.524 1_655 S
C1183 C1184 1.396 . S
C1183 C1188 1.390 . S
C1184 C1178 1.465 1_655 S
C1184 C1183 1.396 . S
C1184 C1185 1.399 . S
C1185 H1171 0.929 . S
C1185 C1184 1.399 . S
C1185 C1186 1.385 . S
C1186 H1172 0.931 . S
C1186 C1185 1.385 . S
C1186 C1187 1.389 . S
C1187 C1186 1.389 . S
C1187 C1188 1.387 . S
C1188 H1173 0.930 . S
C1188 C1183 1.390 . S
C1188 C1187 1.387 . S
H1189 C1201 0.930 . S
H1190 C1203 0.930 . S
H1191 C1204 0.930 . S
H1192 C1208 0.959 . S
H1193 C1208 0.959 . S
H1194 C1208 0.961 . S
H1195 C1209 0.960 . S
H1196 C1209 0.961 . S
H1197 C1209 0.959 . S
H1198 C1212 0.929 . S
H1199 C1213 0.931 . S
H1200 C1215 0.930 . S
C1201 H1189 0.930 . S
C1201 C1202 1.399 . S
C1201 C1206 1.399 . S
C1202 C1201 1.399 . S
C1202 C1203 1.376 . S
C1203 H1190 0.930 . S
C1203 C1202 1.376 . S
C1203 C1204 1.388 . S
C1204 H1191 0.930 . S
C1204 C1203 1.388 . S
C1204 C1205 1.390 . S
C1205 C1204 1.390 . S
C1205 C1206 1.394 . S
C1205 C1211 1.465 . S
C1206 C1201 1.399 . S
C1206 C1205 1.394 . S
C1206 C1207 1.516 . S
C1207 C1206 1.516 . S
C1207 C1208 1.502 . S
C1207 C1209 1.561 . S
C1207 C1210 1.526 . S
C1208 H1192 0.959 . S
C1208 H1193 0.959 . S
C1208 H1194 0.961 . S
C1208 C1207 1.502 . S
C1209 H1195 0.960 . S
C1209 H1196 0.961 . S
C1209 H1197 0.959 . S
C1209 C1207 1.561 . S
C1210 C1207 1.526 . S
C1210 C1211 1.396 . S
C1210 C1215 1.390 . S
C1211 C1205 1.465 . S
C1211 C1210 1.396 . S
C1211 C1212 1.399 . S
C1212 H1198 0.929 . S
C1212 C1211 1.399 . S
C1212 C1213 1.385 . S
C1213 H1199 0.931 . S
C1213 C1212 1.385 . S
C1213 C1214 1.389 . S
C1214 C1213 1.389 . S
C1214 C1215 1.387 . S
C1215 H1200 0.930 . S
C1215 C1210 1.390 . S
C1215 C1214 1.387 . S
H1216 C1228 0.930 . S
H1217 C1230 0.930 . S
H1218 C1231 0.930 . S
H1219 C1235 0.959 . S
H1220 C1235 0.959 . S
H1221 C1235 0.961 . S
H1222 C1236 0.960 . S
H1223 C1236 0.961 . S
H1224 C1236 0.959 . S
H1225 C1239 0.929 . S
H1226 C1240 0.931 . S
H1227 C1242 0.930 . S
C1228 H1216 0.930 . S
C1228 C1229 1.399 1_565 S
C1228 C1233 1.399 . S
C1229 C1228 1.399 1_545 S
C1229 C1230 1.376 . S
C1230 H1217 0.930 . S
C1230 C1229 1.376 . S
C1230 C1231 1.388 . S
C1231 H1218 0.930 . S
C1231 C1230 1.388 . S
C1231 C1232 1.390 1_545 S
C1232 C1231 1.390 1_565 S
C1232 C1233 1.394 . S
C1232 C1238 1.465 . S
C1233 C1228 1.399 . S
C1233 C1232 1.394 . S
C1233 C1234 1.516 . S
C1234 C1233 1.516 . S
C1234 C1235 1.502 . S
C1234 C1236 1.561 . S
C1234 C1237 1.526 . S
C1235 H1219 0.959 . S
C1235 H1220 0.959 . S
C1235 H1221 0.961 . S
C1235 C1234 1.502 . S
C1236 H1222 0.960 . S
C1236 H1223 0.961 . S
C1236 H1224 0.959 . S
C1236 C1234 1.561 . S
C1237 C1234 1.526 . S
C1237 C1238 1.396 . S
C1237 C1242 1.390 . S
C1238 C1232 1.465 . S
C1238 C1237 1.396 . S
C1238 C1239 1.399 . S
C1239 H1225 0.929 . S
C1239 C1238 1.399 . S
C1239 C1240 1.385 . S
C1240 H1226 0.931 . S
C1240 C1239 1.385 . S
C1240 C1241 1.389 . S
C1241 C1240 1.389 . S
C1241 C1242 1.387 . S
C1242 H1227 0.930 . S
C1242 C1237 1.390 . S
C1242 C1241 1.387 . S
H1243 C1255 0.930 . S
H1244 C1257 0.930 . S
H1245 C1258 0.930 . S
H1246 C1262 0.959 . S
H1247 C1262 0.959 . S
H1248 C1262 0.961 . S
H1249 C1263 0.960 . S
H1250 C1263 0.961 . S
H1251 C1263 0.959 . S
H1252 C1266 0.929 . S
H1253 C1267 0.931 . S
H1254 C1269 0.930 . S
C1255 H1243 0.930 . S
C1255 C1256 1.399 . S
C1255 C1260 1.399 1_565 S
C1256 C1255 1.399 . S
C1256 C1257 1.376 . S
C1257 H1244 0.930 . S
C1257 C1256 1.376 . S
C1257 C1258 1.388 1_565 S
C1258 H1245 0.930 . S
C1258 C1257 1.388 1_545 S
C1258 C1259 1.390 . S
C1259 C1258 1.390 . S
C1259 C1260 1.394 . S
C1259 C1265 1.465 . S
C1260 C1255 1.399 1_545 S
C1260 C1259 1.394 . S
C1260 C1261 1.516 . S
C1261 C1260 1.516 . S
C1261 C1262 1.502 . S
C1261 C1263 1.561 . S
C1261 C1264 1.526 . S
C1262 H1246 0.959 . S
C1262 H1247 0.959 . S
C1262 H1248 0.961 . S
C1262 C1261 1.502 . S
C1263 H1249 0.960 . S
C1263 H1250 0.961 . S
C1263 H1251 0.959 . S
C1263 C1261 1.561 . S
C1264 C1261 1.526 . S
C1264 C1265 1.396 . S
C1264 C1269 1.390 . S
C1265 C1259 1.465 . S
C1265 C1264 1.396 . S
C1265 C1266 1.399 . S
C1266 H1252 0.929 . S
C1266 C1265 1.399 . S
C1266 C1267 1.385 . S
C1267 H1253 0.931 . S
C1267 C1266 1.385 . S
C1267 C1268 1.389 . S
C1268 C1267 1.389 . S
C1268 C1269 1.387 . S
C1269 H1254 0.930 . S
C1269 C1264 1.390 . S
C1269 C1268 1.387 . S
H1270 C1282 0.930 . S
H1271 C1284 0.930 . S
H1272 C1285 0.930 . S
H1273 C1289 0.959 . S
H1274 C1289 0.959 . S
H1275 C1289 0.961 . S
H1276 C1290 0.960 . S
H1277 C1290 0.961 . S
H1278 C1290 0.959 . S
H1279 C1293 0.929 . S
H1280 C1294 0.931 . S
H1281 C1296 0.930 . S
C1282 H1270 0.930 . S
C1282 C1283 1.399 . S
C1282 C1287 1.399 . S
C1283 C1282 1.399 . S
C1283 C1284 1.376 . S
C1284 H1271 0.930 . S
C1284 C1283 1.376 . S
C1284 C1285 1.388 . S
C1285 H1272 0.930 . S
C1285 C1284 1.388 . S
C1285 C1286 1.390 . S
C1286 C1285 1.390 . S
C1286 C1287 1.394 . S
C1286 C1292 1.465 . S
C1287 C1282 1.399 . S
C1287 C1286 1.394 . S
C1287 C1288 1.516 . S
C1288 C1287 1.516 . S
C1288 C1289 1.502 . S
C1288 C1290 1.561 . S
C1288 C1291 1.526 . S
C1289 H1273 0.959 . S
C1289 H1274 0.959 . S
C1289 H1275 0.961 . S
C1289 C1288 1.502 . S
C1290 H1276 0.960 . S
C1290 H1277 0.961 . S
C1290 H1278 0.959 . S
C1290 C1288 1.561 . S
C1291 C1288 1.526 . S
C1291 C1292 1.396 . S
C1291 C1296 1.390 1_545 S
C1292 C1286 1.465 . S
C1292 C1291 1.396 . S
C1292 C1293 1.399 . S
C1293 H1279 0.929 . S
C1293 C1292 1.399 . S
C1293 C1294 1.385 1_545 S
C1294 H1280 0.931 . S
C1294 C1293 1.385 1_565 S
C1294 C1295 1.389 . S
C1295 C1294 1.389 . S
C1295 C1296 1.387 . S
C1296 H1281 0.930 . S
C1296 C1291 1.390 1_565 S
C1296 C1295 1.387 . S
H1297 C1309 0.930 . S
H1298 C1311 0.930 . S
H1299 C1312 0.930 . S
H1300 C1316 0.959 . S
H1301 C1316 0.959 . S
H1302 C1316 0.961 . S
H1303 C1317 0.960 . S
H1304 C1317 0.961 . S
H1305 C1317 0.959 . S
H1306 C1320 0.929 . S
H1307 C1321 0.931 . S
H1308 C1323 0.930 . S
C1309 H1297 0.930 . S
C1309 C1310 1.399 . S
C1309 C1314 1.399 . S
C1310 C1309 1.399 . S
C1310 C1311 1.376 . S
C1311 H1298 0.930 . S
C1311 C1310 1.376 . S
C1311 C1312 1.388 . S
C1312 H1299 0.930 . S
C1312 C1311 1.388 . S
C1312 C1313 1.390 . S
C1313 C1312 1.390 . S
C1313 C1314 1.394 . S
C1313 C1319 1.465 . S
C1314 C1309 1.399 . S
C1314 C1313 1.394 . S
C1314 C1315 1.516 . S
C1315 C1314 1.516 . S
C1315 C1316 1.502 . S
C1315 C1317 1.561 . S
C1315 C1318 1.526 . S
C1316 H1300 0.959 . S
C1316 H1301 0.959 . S
C1316 H1302 0.961 . S
C1316 C1315 1.502 . S
C1317 H1303 0.960 . S
C1317 H1304 0.961 . S
C1317 H1305 0.959 . S
C1317 C1315 1.561 . S
C1318 C1315 1.526 . S
C1318 C1319 1.396 . S
C1318 C1323 1.390 1_565 S
C1319 C1313 1.465 . S
C1319 C1318 1.396 . S
C1319 C1320 1.399 . S
C1320 H1306 0.929 . S
C1320 C1319 1.399 . S
C1320 C1321 1.385 1_565 S
C1321 H1307 0.931 . S
C1321 C1320 1.385 1_545 S
C1321 C1322 1.389 . S
C1322 C1321 1.389 . S
C1322 C1323 1.387 . S
C1323 H1308 0.930 . S
C1323 C1318 1.390 1_545 S
C1323 C1322 1.387 . S
H1324 C1336 0.930 . S
H1325 C1338 0.930 . S
H1326 C1339 0.930 . S
H1327 C1343 0.959 . S
H1328 C1343 0.959 . S
H1329 C1343 0.961 . S
H1330 C1344 0.960 . S
H1331 C1344 0.961 . S
H1332 C1344 0.959 . S
H1333 C1347 0.929 . S
H1334 C1348 0.931 . S
H1335 C1350 0.930 . S
C1336 H1324 0.930 . S
C1336 C1337 1.399 . S
C1336 C1341 1.399 . S
C1337 C1336 1.399 . S
C1337 C1338 1.376 . S
C1338 H1325 0.930 . S
C1338 C1337 1.376 . S
C1338 C1339 1.388 . S
C1339 H1326 0.930 . S
C1339 C1338 1.388 . S
C1339 C1340 1.390 . S
C1340 C1339 1.390 . S
C1340 C1341 1.394 . S
C1340 C1346 1.465 . S
C1341 C1336 1.399 . S
C1341 C1340 1.394 . S
C1341 C1342 1.516 . S
C1342 C1341 1.516 . S
C1342 C1343 1.502 . S
C1342 C1344 1.561 . S
C1342 C1345 1.526 . S
C1343 H1327 0.959 . S
C1343 H1328 0.959 . S
C1343 H1329 0.961 . S
C1343 C1342 1.502 . S
C1344 H1330 0.960 . S
C1344 H1331 0.961 . S
C1344 H1332 0.959 . S
C1344 C1342 1.561 . S
C1345 C1342 1.526 . S
C1345 C1346 1.396 . S
C1345 C1350 1.390 1_545 S
C1346 C1340 1.465 . S
C1346 C1345 1.396 . S
C1346 C1347 1.399 . S
C1347 H1333 0.929 . S
C1347 C1346 1.399 . S
C1347 C1348 1.385 1_545 S
C1348 H1334 0.931 . S
C1348 C1347 1.385 1_565 S
C1348 C1349 1.389 . S
C1349 C1348 1.389 . S
C1349 C1350 1.387 . S
C1350 H1335 0.930 . S
C1350 C1345 1.390 1_565 S
C1350 C1349 1.387 . S
H1351 C1363 0.930 . S
H1352 C1365 0.930 . S
H1353 C1366 0.930 . S
H1354 C1370 0.959 . S
H1355 C1370 0.959 . S
H1356 C1370 0.961 . S
H1357 C1371 0.960 . S
H1358 C1371 0.961 . S
H1359 C1371 0.959 . S
H1360 C1374 0.929 . S
H1361 C1375 0.931 . S
H1362 C1377 0.930 . S
C1363 H1351 0.930 . S
C1363 C1364 1.399 . S
C1363 C1368 1.399 1_545 S
C1364 C1363 1.399 . S
C1364 C1365 1.376 . S
C1365 H1352 0.930 . S
C1365 C1364 1.376 . S
C1365 C1366 1.388 1_545 S
C1366 H1353 0.930 . S
C1366 C1365 1.388 1_565 S
C1366 C1367 1.390 . S
C1367 C1366 1.390 . S
C1367 C1368 1.394 . S
C1367 C1373 1.465 . S
C1368 C1363 1.399 1_565 S
C1368 C1367 1.394 . S
C1368 C1369 1.516 . S
C1369 C1368 1.516 . S
C1369 C1370 1.502 . S
C1369 C1371 1.561 . S
C1369 C1372 1.526 . S
C1370 H1354 0.959 . S
C1370 H1355 0.959 . S
C1370 H1356 0.961 . S
C1370 C1369 1.502 . S
C1371 H1357 0.960 . S
C1371 H1358 0.961 . S
C1371 H1359 0.959 . S
C1371 C1369 1.561 . S
C1372 C1369 1.526 . S
C1372 C1373 1.396 . S
C1372 C1377 1.390 . S
C1373 C1367 1.465 . S
C1373 C1372 1.396 . S
C1373 C1374 1.399 . S
C1374 H1360 0.929 . S
C1374 C1373 1.399 . S
C1374 C1375 1.385 . S
C1375 H1361 0.931 . S
C1375 C1374 1.385 . S
C1375 C1376 1.389 . S
C1376 C1375 1.389 . S
C1376 C1377 1.387 . S
C1377 H1362 0.930 . S
C1377 C1372 1.390 . S
C1377 C1376 1.387 . S
H1378 C1390 0.930 . S
H1379 C1392 0.930 . S
H1380 C1393 0.930 . S
H1381 C1397 0.959 . S
H1382 C1397 0.959 . S
H1383 C1397 0.961 . S
H1384 C1398 0.960 . S
H1385 C1398 0.961 . S
H1386 C1398 0.959 . S
H1387 C1401 0.929 . S
H1388 C1402 0.931 . S
H1389 C1404 0.930 . S
C1390 H1378 0.930 . S
C1390 C1391 1.399 . S
C1390 C1395 1.399 1_545 S
C1391 C1390 1.399 . S
C1391 C1392 1.376 . S
C1392 H1379 0.930 . S
C1392 C1391 1.376 . S
C1392 C1393 1.388 1_545 S
C1393 H1380 0.930 . S
C1393 C1392 1.388 1_565 S
C1393 C1394 1.390 . S
C1394 C1393 1.390 . S
C1394 C1395 1.394 . S
C1394 C1400 1.465 . S
C1395 C1390 1.399 1_565 S
C1395 C1394 1.394 . S
C1395 C1396 1.516 . S
C1396 C1395 1.516 . S
C1396 C1397 1.502 . S
C1396 C1398 1.561 . S
C1396 C1399 1.526 . S
C1397 H1381 0.959 . S
C1397 H1382 0.959 . S
C1397 H1383 0.961 . S
C1397 C1396 1.502 . S
C1398 H1384 0.960 . S
C1398 H1385 0.961 . S
C1398 H1386 0.959 . S
C1398 C1396 1.561 . S
C1399 C1396 1.526 . S
C1399 C1400 1.396 . S
C1399 C1404 1.390 . S
C1400 C1394 1.465 . S
C1400 C1399 1.396 . S
C1400 C1401 1.399 . S
C1401 H1387 0.929 . S
C1401 C1400 1.399 . S
C1401 C1402 1.385 . S
C1402 H1388 0.931 . S
C1402 C1401 1.385 . S
C1402 C1403 1.389 . S
C1403 C1402 1.389 . S
C1403 C1404 1.387 . S
C1404 H1389 0.930 . S
C1404 C1399 1.390 . S
C1404 C1403 1.387 . S
H1405 C1417 0.930 . S
H1406 C1419 0.930 . S
H1407 C1420 0.930 . S
H1408 C1424 0.959 . S
H1409 C1424 0.959 . S
H1410 C1424 0.961 . S
H1411 C1425 0.960 . S
H1412 C1425 0.961 . S
H1413 C1425 0.959 . S
H1414 C1428 0.930 . S
H1415 C1429 0.931 . S
H1416 C1431 0.930 . S
C1417 H1405 0.930 . S
C1417 C1418 1.399 . S
C1417 C1422 1.399 . S
C1418 C1417 1.399 . S
C1418 C1419 1.376 . S
C1419 H1406 0.930 . S
C1419 C1418 1.376 . S
C1419 C1420 1.388 . S
C1420 H1407 0.930 . S
C1420 C1419 1.388 . S
C1420 C1421 1.390 . S
C1421 C1420 1.390 . S
C1421 C1422 1.394 . S
C1421 C1427 1.465 . S
C1422 C1417 1.399 . S
C1422 C1421 1.394 . S
C1422 C1423 1.516 . S
C1423 C1422 1.516 . S
C1423 C1424 1.502 . S
C1423 C1425 1.561 . S
C1423 C1426 1.526 . S
C1424 H1408 0.959 . S
C1424 H1409 0.959 . S
C1424 H1410 0.961 . S
C1424 C1423 1.502 . S
C1425 H1411 0.960 . S
C1425 H1412 0.961 . S
C1425 H1413 0.959 . S
C1425 C1423 1.561 . S
C1426 C1423 1.526 . S
C1426 C1427 1.396 . S
C1426 C1431 1.392 . S
C1427 C1421 1.465 . S
C1427 C1426 1.396 . S
C1427 C1428 1.389 1_545 S
C1428 H1414 0.930 . S
C1428 C1427 1.389 1_565 S
C1428 C1429 1.395 . S
C1429 H1415 0.931 . S
C1429 C1428 1.395 . S
C1429 C1430 1.389 . S
C1430 C1429 1.389 . S
C1430 C1431 1.384 1_565 S
C1431 H1416 0.930 . S
C1431 C1426 1.392 . S
C1431 C1430 1.384 1_545 S
H1432 C1444 0.930 . S
H1433 C1446 0.930 . S
H1434 C1447 0.930 . S
H1435 C1451 0.959 . S
H1436 C1451 0.959 . S
H1437 C1451 0.961 . S
H1438 C1452 0.960 . S
H1439 C1452 0.961 . S
H1440 C1452 0.959 . S
H1441 C1455 0.929 . S
H1442 C1456 0.931 . S
H1443 C1458 0.930 . S
C1444 H1432 0.930 . S
C1444 C1445 1.399 . S
C1444 C1449 1.399 . S
C1445 C1444 1.399 . S
C1445 C1446 1.376 . S
C1446 H1433 0.930 . S
C1446 C1445 1.376 . S
C1446 C1447 1.388 . S
C1447 H1434 0.930 . S
C1447 C1446 1.388 . S
C1447 C1448 1.390 . S
C1448 C1447 1.390 . S
C1448 C1449 1.394 . S
C1448 C1454 1.465 . S
C1449 C1444 1.399 . S
C1449 C1448 1.394 . S
C1449 C1450 1.516 . S
C1450 C1449 1.516 . S
C1450 C1451 1.502 . S
C1450 C1452 1.561 . S
C1450 C1453 1.526 . S
C1451 H1435 0.959 . S
C1451 H1436 0.959 . S
C1451 H1437 0.961 . S
C1451 C1450 1.502 . S
C1452 H1438 0.960 . S
C1452 H1439 0.961 . S
C1452 H1440 0.959 . S
C1452 C1450 1.561 . S
C1453 C1450 1.526 . S
C1453 C1454 1.396 . S
C1453 C1458 1.390 . S
C1454 C1448 1.465 . S
C1454 C1453 1.396 . S
C1454 C1455 1.399 . S
C1455 H1441 0.929 . S
C1455 C1454 1.399 . S
C1455 C1456 1.385 . S
C1456 H1442 0.931 . S
C1456 C1455 1.385 . S
C1456 C1457 1.389 . S
C1457 C1456 1.389 . S
C1457 C1458 1.387 . S
C1458 H1443 0.930 . S
C1458 C1453 1.390 . S
C1458 C1457 1.387 . S
H1459 C1471 0.930 . S
H1460 C1473 0.930 . S
H1461 C1474 0.930 . S
H1462 C1478 0.959 . S
H1463 C1478 0.959 . S
H1464 C1478 0.961 . S
H1465 C1479 0.960 . S
H1466 C1479 0.961 . S
H1467 C1479 0.959 . S
H1468 C1482 0.929 . S
H1469 C1483 0.931 . S
H1470 C1485 0.930 . S
C1471 H1459 0.930 . S
C1471 C1472 1.399 . S
C1471 C1476 1.399 . S
C1472 C1471 1.399 . S
C1472 C1473 1.376 . S
C1473 H1460 0.930 . S
C1473 C1472 1.376 . S
C1473 C1474 1.388 . S
C1474 H1461 0.930 . S
C1474 C1473 1.388 . S
C1474 C1475 1.390 . S
C1475 C1474 1.390 . S
C1475 C1476 1.394 . S
C1475 C1481 1.465 . S
C1476 C1471 1.399 . S
C1476 C1475 1.394 . S
C1476 C1477 1.516 . S
C1477 C1476 1.516 . S
C1477 C1478 1.502 . S
C1477 C1479 1.561 . S
C1477 C1480 1.526 . S
C1478 H1462 0.959 . S
C1478 H1463 0.959 . S
C1478 H1464 0.961 . S
C1478 C1477 1.502 . S
C1479 H1465 0.960 . S
C1479 H1466 0.961 . S
C1479 H1467 0.959 . S
C1479 C1477 1.561 . S
C1480 C1477 1.526 . S
C1480 C1481 1.396 . S
C1480 C1485 1.390 . S
C1481 C1475 1.465 . S
C1481 C1480 1.396 . S
C1481 C1482 1.399 . S
C1482 H1468 0.929 . S
C1482 C1481 1.399 . S
C1482 C1483 1.385 . S
C1483 H1469 0.931 . S
C1483 C1482 1.385 . S
C1483 C1484 1.389 . S
C1484 C1483 1.389 . S
C1484 C1485 1.387 . S
C1485 H1470 0.930 . S
C1485 C1480 1.390 . S
C1485 C1484 1.387 . S
H1486 C1498 0.930 . S
H1487 C1500 0.930 . S
H1488 C1501 0.930 . S
H1489 C1505 0.959 . S
H1490 C1505 0.959 . S
H1491 C1505 0.961 . S
H1492 C1506 0.960 . S
H1493 C1506 0.961 . S
H1494 C1506 0.959 . S
H1495 C1509 0.929 . S
H1496 C1510 0.931 . S
H1497 C1512 0.930 . S
C1498 H1486 0.930 . S
C1498 C1499 1.399 . S
C1498 C1503 1.399 . S
C1499 C1498 1.399 . S
C1499 C1500 1.376 . S
C1500 H1487 0.930 . S
C1500 C1499 1.376 . S
C1500 C1501 1.388 . S
C1501 H1488 0.930 . S
C1501 C1500 1.388 . S
C1501 C1502 1.390 . S
C1502 C1501 1.390 . S
C1502 C1503 1.394 . S
C1502 C1508 1.465 . S
C1503 C1498 1.399 . S
C1503 C1502 1.394 . S
C1503 C1504 1.516 . S
C1504 C1503 1.516 . S
C1504 C1505 1.502 . S
C1504 C1506 1.561 . S
C1504 C1507 1.526 . S
C1505 H1489 0.959 . S
C1505 H1490 0.959 . S
C1505 H1491 0.961 . S
C1505 C1504 1.502 . S
C1506 H1492 0.960 . S
C1506 H1493 0.961 . S
C1506 H1494 0.959 . S
C1506 C1504 1.561 . S
C1507 C1504 1.526 . S
C1507 C1508 1.396 . S
C1507 C1512 1.390 . S
C1508 C1502 1.465 . S
C1508 C1507 1.396 . S
C1508 C1509 1.399 . S
C1509 H1495 0.929 . S
C1509 C1508 1.399 . S
C1509 C1510 1.385 . S
C1510 H1496 0.931 . S
C1510 C1509 1.385 . S
C1510 C1511 1.389 . S
C1511 C1510 1.389 . S
C1511 C1512 1.387 . S
C1512 H1497 0.930 . S
C1512 C1507 1.390 . S
C1512 C1511 1.387 . S
H1513 C1525 0.930 . S
H1514 C1527 0.930 . S
H1515 C1528 0.930 . S
H1516 C1532 0.959 . S
H1517 C1532 0.959 . S
H1518 C1532 0.961 . S
H1519 C1533 0.960 . S
H1520 C1533 0.961 . S
H1521 C1533 0.959 . S
H1522 C1536 0.929 . S
H1523 C1537 0.931 . S
H1524 C1539 0.930 . S
C1525 H1513 0.930 . S
C1525 C1526 1.399 . S
C1525 C1530 1.399 . S
C1526 C1525 1.399 . S
C1526 C1527 1.376 . S
C1527 H1514 0.930 . S
C1527 C1526 1.376 . S
C1527 C1528 1.388 . S
C1528 H1515 0.930 . S
C1528 C1527 1.388 . S
C1528 C1529 1.390 . S
C1529 C1528 1.390 . S
C1529 C1530 1.394 . S
C1529 C1535 1.465 . S
C1530 C1525 1.399 . S
C1530 C1529 1.394 . S
C1530 C1531 1.516 . S
C1531 C1530 1.516 . S
C1531 C1532 1.502 . S
C1531 C1533 1.561 . S
C1531 C1534 1.526 . S
C1532 H1516 0.959 . S
C1532 H1517 0.959 . S
C1532 H1518 0.961 . S
C1532 C1531 1.502 . S
C1533 H1519 0.960 . S
C1533 H1520 0.961 . S
C1533 H1521 0.959 . S
C1533 C1531 1.561 . S
C1534 C1531 1.526 . S
C1534 C1535 1.396 . S
C1534 C1539 1.390 . S
C1535 C1529 1.465 . S
C1535 C1534 1.396 . S
C1535 C1536 1.399 . S
C1536 H1522 0.929 . S
C1536 C1535 1.399 . S
C1536 C1537 1.385 . S
C1537 H1523 0.931 . S
C1537 C1536 1.385 . S
C1537 C1538 1.389 . S
C1538 C1537 1.389 . S
C1538 C1539 1.387 . S
C1539 H1524 0.930 . S
C1539 C1534 1.390 . S
C1539 C1538 1.387 . S
H1540 C1552 0.930 . S
H1541 C1554 0.930 . S
H1542 C1555 0.930 . S
H1543 C1559 0.959 . S
H1544 C1559 0.959 . S
H1545 C1559 0.961 . S
H1546 C1560 0.960 . S
H1547 C1560 0.961 . S
H1548 C1560 0.959 . S
H1549 C1563 0.929 . S
H1550 C1564 0.931 . S
H1551 C1566 0.930 . S
C1552 H1540 0.930 . S
C1552 C1553 1.399 . S
C1552 C1557 1.399 . S
C1553 C1552 1.399 . S
C1553 C1554 1.376 . S
C1554 H1541 0.930 . S
C1554 C1553 1.376 . S
C1554 C1555 1.388 . S
C1555 H1542 0.930 . S
C1555 C1554 1.388 . S
C1555 C1556 1.390 . S
C1556 C1555 1.390 . S
C1556 C1557 1.394 . S
C1556 C1562 1.465 . S
C1557 C1552 1.399 . S
C1557 C1556 1.394 . S
C1557 C1558 1.516 . S
C1558 C1557 1.516 . S
C1558 C1559 1.502 . S
C1558 C1560 1.561 . S
C1558 C1561 1.526 . S
C1559 H1543 0.959 . S
C1559 H1544 0.959 . S
C1559 H1545 0.961 . S
C1559 C1558 1.502 . S
C1560 H1546 0.960 . S
C1560 H1547 0.961 . S
C1560 H1548 0.959 . S
C1560 C1558 1.561 . S
C1561 C1558 1.526 . S
C1561 C1562 1.396 . S
C1561 C1566 1.390 . S
C1562 C1556 1.465 . S
C1562 C1561 1.396 . S
C1562 C1563 1.399 . S
C1563 H1549 0.929 . S
C1563 C1562 1.399 . S
C1563 C1564 1.385 . S
C1564 H1550 0.931 . S
C1564 C1563 1.385 . S
C1564 C1565 1.389 . S
C1565 C1564 1.389 . S
C1565 C1566 1.387 . S
C1566 H1551 0.930 . S
C1566 C1561 1.390 . S
C1566 C1565 1.387 . S
H1567 C1579 0.930 . S
H1568 C1581 0.930 . S
H1569 C1582 0.930 . S
H1570 C1586 0.959 . S
H1571 C1586 0.959 . S
H1572 C1586 0.961 . S
H1573 C1587 0.960 . S
H1574 C1587 0.961 . S
H1575 C1587 0.959 . S
H1576 C1590 0.929 . S
H1577 C1591 0.931 . S
H1578 C1593 0.930 . S
C1579 H1567 0.930 . S
C1579 C1580 1.399 . S
C1579 C1584 1.399 . S
C1580 C1579 1.399 . S
C1580 C1581 1.376 . S
C1581 H1568 0.930 . S
C1581 C1580 1.376 . S
C1581 C1582 1.388 . S
C1582 H1569 0.930 . S
C1582 C1581 1.388 . S
C1582 C1583 1.390 . S
C1583 C1582 1.390 . S
C1583 C1584 1.394 . S
C1583 C1589 1.465 . S
C1584 C1579 1.399 . S
C1584 C1583 1.394 . S
C1584 C1585 1.516 . S
C1585 C1584 1.516 . S
C1585 C1586 1.502 . S
C1585 C1587 1.561 . S
C1585 C1588 1.526 . S
C1586 H1570 0.959 . S
C1586 H1571 0.959 . S
C1586 H1572 0.961 . S
C1586 C1585 1.502 . S
C1587 H1573 0.960 . S
C1587 H1574 0.961 . S
C1587 H1575 0.959 . S
C1587 C1585 1.561 . S
C1588 C1585 1.526 . S
C1588 C1589 1.396 . S
C1588 C1593 1.390 . S
C1589 C1583 1.465 . S
C1589 C1588 1.396 . S
C1589 C1590 1.399 . S
C1590 H1576 0.929 . S
C1590 C1589 1.399 . S
C1590 C1591 1.385 . S
C1591 H1577 0.931 . S
C1591 C1590 1.385 . S
C1591 C1592 1.389 . S
C1592 C1591 1.389 . S
C1592 C1593 1.387 . S
C1593 H1578 0.930 . S
C1593 C1588 1.390 . S
C1593 C1592 1.387 . S
H1594 C1606 0.930 . S
H1595 C1608 0.930 . S
H1596 C1609 0.930 . S
H1597 C1613 0.959 . S
H1598 C1613 0.959 . S
H1599 C1613 0.961 . S
H1600 C1614 0.960 . S
H1601 C1614 0.961 . S
H1602 C1614 0.959 . S
H1603 C1617 0.929 . S
H1604 C1618 0.931 . S
H1605 C1620 0.930 . S
C1606 H1594 0.930 . S
C1606 C1607 1.399 . S
C1606 C1611 1.399 . S
C1607 C1606 1.399 . S
C1607 C1608 1.376 . S
C1608 H1595 0.930 . S
C1608 C1607 1.376 . S
C1608 C1609 1.388 . S
C1609 H1596 0.930 . S
C1609 C1608 1.388 . S
C1609 C1610 1.390 . S
C1610 C1609 1.390 . S
C1610 C1611 1.394 . S
C1610 C1616 1.465 . S
C1611 C1606 1.399 . S
C1611 C1610 1.394 . S
C1611 C1612 1.516 . S
C1612 C1611 1.516 . S
C1612 C1613 1.502 . S
C1612 C1614 1.561 . S
C1612 C1615 1.526 . S
C1613 H1597 0.959 . S
C1613 H1598 0.959 . S
C1613 H1599 0.961 . S
C1613 C1612 1.502 . S
C1614 H1600 0.960 . S
C1614 H1601 0.961 . S
C1614 H1602 0.959 . S
C1614 C1612 1.561 . S
C1615 C1612 1.526 . S
C1615 C1616 1.396 . S
C1615 C1620 1.390 . S
C1616 C1610 1.465 . S
C1616 C1615 1.396 . S
C1616 C1617 1.399 . S
C1617 H1603 0.929 . S
C1617 C1616 1.399 . S
C1617 C1618 1.385 . S
C1618 H1604 0.931 . S
C1618 C1617 1.385 . S
C1618 C1619 1.389 . S
C1619 C1618 1.389 . S
C1619 C1620 1.387 . S
C1620 H1605 0.930 . S
C1620 C1615 1.390 . S
C1620 C1619 1.387 . S
H1621 C1633 0.930 . S
H1622 C1635 0.930 . S
H1623 C1636 0.930 . S
H1624 C1640 0.959 . S
H1625 C1640 0.959 . S
H1626 C1640 0.961 . S
H1627 C1641 0.960 . S
H1628 C1641 0.961 . S
H1629 C1641 0.959 . S
H1630 C1644 0.929 . S
H1631 C1645 0.931 . S
H1632 C1647 0.930 . S
C1633 H1621 0.930 . S
C1633 C1634 1.399 . S
C1633 C1638 1.399 . S
C1634 C1633 1.399 . S
C1634 C1635 1.376 . S
C1635 H1622 0.930 . S
C1635 C1634 1.376 . S
C1635 C1636 1.388 . S
C1636 H1623 0.930 . S
C1636 C1635 1.388 . S
C1636 C1637 1.390 . S
C1637 C1636 1.390 . S
C1637 C1638 1.394 . S
C1637 C1643 1.465 . S
C1638 C1633 1.399 . S
C1638 C1637 1.394 . S
C1638 C1639 1.516 . S
C1639 C1638 1.516 . S
C1639 C1640 1.502 . S
C1639 C1641 1.561 . S
C1639 C1642 1.526 . S
C1640 H1624 0.959 . S
C1640 H1625 0.959 . S
C1640 H1626 0.961 . S
C1640 C1639 1.502 . S
C1641 H1627 0.960 . S
C1641 H1628 0.961 . S
C1641 H1629 0.959 . S
C1641 C1639 1.561 . S
C1642 C1639 1.526 . S
C1642 C1643 1.396 . S
C1642 C1647 1.390 . S
C1643 C1637 1.465 . S
C1643 C1642 1.396 . S
C1643 C1644 1.399 . S
C1644 H1630 0.929 . S
C1644 C1643 1.399 . S
C1644 C1645 1.385 . S
C1645 H1631 0.931 . S
C1645 C1644 1.385 . S
C1645 C1646 1.389 . S
C1646 C1645 1.389 . S
C1646 C1647 1.387 . S
C1647 H1632 0.930 . S
C1647 C1642 1.390 . S
C1647 C1646 1.387 . S
C365 C21 0.892 . S
C377 C279 0.900 . S
C392 C307 0.832 . S
C404 C29 0.961 . S
C419 C323 0.833 . S
C431 C59 0.959 . S
C446 C345 0.837 . S
C458 C87 0.954 . S
C473 C103 0.968 . S
C485 C197 0.842 . S
C500 C219 0.967 . S
C512 C117 0.835 . S
C527 C147 0.834 . S
C539 C241 0.966 . S
C554 C263 0.872 . S
C566 C161 0.950 . S
C581 C65 1.547 . S
C593 C7 1.559 . S
C608 C37 1.580 . S
C620 C73 1.567 . S
C635 C95 1.551 . S
C647 C139 1.551 . S
C662 C175 1.551 . S
C674 C131 1.552 . S
C689 C183 1.579 . S
C701 C227 1.565 . S
C716 C249 1.547 . S
C728 C205 1.561 . S
C743 C315 1.542 . S
C755 C271 1.543 . S
C770 C337 1.546 . S
C782 C301 1.547 . S
C797 C10 1.776 . S
C809 C76 1.787 . S
C824 C62 1.815 . S
C836 C30 1.758 . S
C851 C164 1.781 . S
C863 C96 1.819 . S
C878 C140 1.826 . S
C890 C120 1.785 . S
C905 C252 1.761 . S
C917 C186 1.802 . S
C932 C230 1.761 . S
C944 C208 1.802 . S
C959 C272 1.827 . S
C971 C338 1.785 . S
C986 C316 1.781 . S
C998 C304 1.820 . S
C1013 C18 1.444 . S
C1025 C150 1.442 . S
C1040 C32 1.442 . S
C1052 C162 1.445 . S
C1067 C106 1.412 . S
C1079 C52 1.411 . S
C1094 C118 1.457 . S
C1106 C84 1.455 . S
C1121 C194 1.423 . S
C1133 C326 1.421 . S
C1148 C216 1.454 . S
C1160 C348 1.455 . S
C1175 C282 1.420 . S
C1187 C238 1.418 . S
C1202 C296 1.448 . S
C1214 C260 1.450 . S
C1229 C15 1.367 . S
C1241 C318 1.377 . S
C1256 C43 1.334 . S
C1268 C340 1.344 . S
C1283 C274 1.372 . S
C1295 C51 1.353 . S
C1310 C294 1.377 . S
C1322 C81 1.366 . S
C1337 C228 1.347 . S
C1349 C109 1.348 . S
C1364 C125 1.369 . S
C1376 C250 1.376 . S
C1391 C153 1.355 . S
C1403 C184 1.320 . S
C1418 C206 1.371 . S
C1430 C169 1.385 . S
C1445 C142 1.377 . S
C1457 C191 1.365 . S
C1472 C213 1.381 . S
C1484 C172 1.347 . S
C1499 C98 1.373 . S
C1511 C235 1.355 . S
C1526 C257 1.378 . S
C1538 C128 1.337 . S
C1553 C54 1.364 . S
C1565 C285 1.384 . S
C1580 C293 1.358 . S
C1592 C74 1.322 . S
C1607 C329 1.358 . S
C1619 C8 1.322 . S
C1634 C40 1.354 . S
C1646 C351 1.381 . S
