# Generated by pormake.
# Topology yfq, (5)-cn, num edge types: 1
# Building blocks:
#     Node 0, Type 0, BuildingBlock: XOMCOT_clean_sbu_1, # of connection points: 5
#     Node 1, Type 0, BuildingBlock: XOMCOT_clean_sbu_1, # of connection points: 5
#     Node 2, Type 0, BuildingBlock: XOMCOT_clean_sbu_1, # of connection points: 5
#     Node 3, Type 0, BuildingBlock: XOMCOT_clean_sbu_1, # of connection points: 5
#     Node 4, Type 0, BuildingBlock: XOMCOT_clean_sbu_1, # of connection points: 5
#     Node 5, Type 0, BuildingBlock: XOMCOT_clean_sbu_1, # of connection points: 5
#     Node 6, Type 0, BuildingBlock: XOMCOT_clean_sbu_1, # of connection points: 5
#     Node 7, Type 0, BuildingBlock: XOMCOT_clean_sbu_1, # of connection points: 5
#     Node 8, Type 0, BuildingBlock: XOMCOT_clean_sbu_1, # of connection points: 5
#     Node 9, Type 0, BuildingBlock: XOMCOT_clean_sbu_1, # of connection points: 5
#     Node 10, Type 0, BuildingBlock: XOMCOT_clean_sbu_1, # of connection points: 5
#     Node 11, Type 0, BuildingBlock: XOMCOT_clean_sbu_1, # of connection points: 5
#     Node 12, Type 0, BuildingBlock: XOMCOT_clean_sbu_1, # of connection points: 5
#     Node 13, Type 0, BuildingBlock: XOMCOT_clean_sbu_1, # of connection points: 5
#     Node 14, Type 0, BuildingBlock: XOMCOT_clean_sbu_1, # of connection points: 5
#     Node 15, Type 0, BuildingBlock: XOMCOT_clean_sbu_1, # of connection points: 5
#     Node 16, Type 0, BuildingBlock: XOMCOT_clean_sbu_1, # of connection points: 5
#     Node 17, Type 0, BuildingBlock: XOMCOT_clean_sbu_1, # of connection points: 5
#     Node 18, Type 0, BuildingBlock: XOMCOT_clean_sbu_1, # of connection points: 5
#     Node 19, Type 0, BuildingBlock: XOMCOT_clean_sbu_1, # of connection points: 5
#     Node 20, Type 0, BuildingBlock: XOMCOT_clean_sbu_1, # of connection points: 5
#     Node 21, Type 0, BuildingBlock: XOMCOT_clean_sbu_1, # of connection points: 5
#     Node 22, Type 0, BuildingBlock: XOMCOT_clean_sbu_1, # of connection points: 5
#     Node 23, Type 0, BuildingBlock: XOMCOT_clean_sbu_1, # of connection points: 5
#     Node 24, Type 0, BuildingBlock: XOMCOT_clean_sbu_1, # of connection points: 5
#     Node 25, Type 0, BuildingBlock: XOMCOT_clean_sbu_1, # of connection points: 5
#     Node 26, Type 0, BuildingBlock: XOMCOT_clean_sbu_1, # of connection points: 5
#     Node 27, Type 0, BuildingBlock: XOMCOT_clean_sbu_1, # of connection points: 5
#     Node 28, Type 0, BuildingBlock: XOMCOT_clean_sbu_1, # of connection points: 5
#     Node 29, Type 0, BuildingBlock: XOMCOT_clean_sbu_1, # of connection points: 5
#     Node 30, Type 0, BuildingBlock: XOMCOT_clean_sbu_1, # of connection points: 5
#     Node 31, Type 0, BuildingBlock: XOMCOT_clean_sbu_1, # of connection points: 5
#     Edge 32, Type (0, 0), BuildingBlock: ZUJKAS_clean_linker_0, # of connection points: 2
#     Edge 33, Type (0, 0), BuildingBlock: ZUJKAS_clean_linker_0, # of connection points: 2
#     Edge 34, Type (0, 0), BuildingBlock: ZUJKAS_clean_linker_0, # of connection points: 2
#     Edge 35, Type (0, 0), BuildingBlock: ZUJKAS_clean_linker_0, # of connection points: 2
#     Edge 36, Type (0, 0), BuildingBlock: ZUJKAS_clean_linker_0, # of connection points: 2
#     Edge 37, Type (0, 0), BuildingBlock: ZUJKAS_clean_linker_0, # of connection points: 2
#     Edge 38, Type (0, 0), BuildingBlock: ZUJKAS_clean_linker_0, # of connection points: 2
#     Edge 39, Type (0, 0), BuildingBlock: ZUJKAS_clean_linker_0, # of connection points: 2
#     Edge 40, Type (0, 0), BuildingBlock: ZUJKAS_clean_linker_0, # of connection points: 2
#     Edge 41, Type (0, 0), BuildingBlock: ZUJKAS_clean_linker_0, # of connection points: 2
#     Edge 42, Type (0, 0), BuildingBlock: ZUJKAS_clean_linker_0, # of connection points: 2
#     Edge 43, Type (0, 0), BuildingBlock: ZUJKAS_clean_linker_0, # of connection points: 2
#     Edge 44, Type (0, 0), BuildingBlock: ZUJKAS_clean_linker_0, # of connection points: 2
#     Edge 45, Type (0, 0), BuildingBlock: ZUJKAS_clean_linker_0, # of connection points: 2
#     Edge 46, Type (0, 0), BuildingBlock: ZUJKAS_clean_linker_0, # of connection points: 2
#     Edge 47, Type (0, 0), BuildingBlock: ZUJKAS_clean_linker_0, # of connection points: 2
#     Edge 48, Type (0, 0), BuildingBlock: ZUJKAS_clean_linker_0, # of connection points: 2
#     Edge 49, Type (0, 0), BuildingBlock: ZUJKAS_clean_linker_0, # of connection points: 2
#     Edge 50, Type (0, 0), BuildingBlock: ZUJKAS_clean_linker_0, # of connection points: 2
#     Edge 51, Type (0, 0), BuildingBlock: ZUJKAS_clean_linker_0, # of connection points: 2
#     Edge 52, Type (0, 0), BuildingBlock: ZUJKAS_clean_linker_0, # of connection points: 2
#     Edge 53, Type (0, 0), BuildingBlock: ZUJKAS_clean_linker_0, # of connection points: 2
#     Edge 54, Type (0, 0), BuildingBlock: ZUJKAS_clean_linker_0, # of connection points: 2
#     Edge 55, Type (0, 0), BuildingBlock: ZUJKAS_clean_linker_0, # of connection points: 2
#     Edge 56, Type (0, 0), BuildingBlock: ZUJKAS_clean_linker_0, # of connection points: 2
#     Edge 57, Type (0, 0), BuildingBlock: ZUJKAS_clean_linker_0, # of connection points: 2
#     Edge 58, Type (0, 0), BuildingBlock: ZUJKAS_clean_linker_0, # of connection points: 2
#     Edge 59, Type (0, 0), BuildingBlock: ZUJKAS_clean_linker_0, # of connection points: 2
#     Edge 60, Type (0, 0), BuildingBlock: ZUJKAS_clean_linker_0, # of connection points: 2
#     Edge 61, Type (0, 0), BuildingBlock: ZUJKAS_clean_linker_0, # of connection points: 2
#     Edge 62, Type (0, 0), BuildingBlock: ZUJKAS_clean_linker_0, # of connection points: 2
#     Edge 63, Type (0, 0), BuildingBlock: ZUJKAS_clean_linker_0, # of connection points: 2
#     Edge 64, Type (0, 0), BuildingBlock: ZUJKAS_clean_linker_0, # of connection points: 2
#     Edge 65, Type (0, 0), BuildingBlock: ZUJKAS_clean_linker_0, # of connection points: 2
#     Edge 66, Type (0, 0), BuildingBlock: ZUJKAS_clean_linker_0, # of connection points: 2
#     Edge 67, Type (0, 0), BuildingBlock: ZUJKAS_clean_linker_0, # of connection points: 2
#     Edge 68, Type (0, 0), BuildingBlock: ZUJKAS_clean_linker_0, # of connection points: 2
#     Edge 69, Type (0, 0), BuildingBlock: ZUJKAS_clean_linker_0, # of connection points: 2
#     Edge 70, Type (0, 0), BuildingBlock: ZUJKAS_clean_linker_0, # of connection points: 2
#     Edge 71, Type (0, 0), BuildingBlock: ZUJKAS_clean_linker_0, # of connection points: 2
#     Edge 72, Type (0, 0), BuildingBlock: ZUJKAS_clean_linker_0, # of connection points: 2
#     Edge 73, Type (0, 0), BuildingBlock: ZUJKAS_clean_linker_0, # of connection points: 2
#     Edge 74, Type (0, 0), BuildingBlock: ZUJKAS_clean_linker_0, # of connection points: 2
#     Edge 75, Type (0, 0), BuildingBlock: ZUJKAS_clean_linker_0, # of connection points: 2
#     Edge 76, Type (0, 0), BuildingBlock: ZUJKAS_clean_linker_0, # of connection points: 2
#     Edge 77, Type (0, 0), BuildingBlock: ZUJKAS_clean_linker_0, # of connection points: 2
#     Edge 78, Type (0, 0), BuildingBlock: ZUJKAS_clean_linker_0, # of connection points: 2
#     Edge 79, Type (0, 0), BuildingBlock: ZUJKAS_clean_linker_0, # of connection points: 2
#     Edge 80, Type (0, 0), BuildingBlock: ZUJKAS_clean_linker_0, # of connection points: 2
#     Edge 81, Type (0, 0), BuildingBlock: ZUJKAS_clean_linker_0, # of connection points: 2
#     Edge 82, Type (0, 0), BuildingBlock: ZUJKAS_clean_linker_0, # of connection points: 2
#     Edge 83, Type (0, 0), BuildingBlock: ZUJKAS_clean_linker_0, # of connection points: 2
#     Edge 84, Type (0, 0), BuildingBlock: ZUJKAS_clean_linker_0, # of connection points: 2
#     Edge 85, Type (0, 0), BuildingBlock: ZUJKAS_clean_linker_0, # of connection points: 2
#     Edge 86, Type (0, 0), BuildingBlock: ZUJKAS_clean_linker_0, # of connection points: 2
#     Edge 87, Type (0, 0), BuildingBlock: ZUJKAS_clean_linker_0, # of connection points: 2
#     Edge 88, Type (0, 0), BuildingBlock: ZUJKAS_clean_linker_0, # of connection points: 2
#     Edge 89, Type (0, 0), BuildingBlock: ZUJKAS_clean_linker_0, # of connection points: 2
#     Edge 90, Type (0, 0), BuildingBlock: ZUJKAS_clean_linker_0, # of connection points: 2
#     Edge 91, Type (0, 0), BuildingBlock: ZUJKAS_clean_linker_0, # of connection points: 2
#     Edge 92, Type (0, 0), BuildingBlock: ZUJKAS_clean_linker_0, # of connection points: 2
#     Edge 93, Type (0, 0), BuildingBlock: ZUJKAS_clean_linker_0, # of connection points: 2
#     Edge 94, Type (0, 0), BuildingBlock: ZUJKAS_clean_linker_0, # of connection points: 2
#     Edge 95, Type (0, 0), BuildingBlock: ZUJKAS_clean_linker_0, # of connection points: 2
#     Edge 96, Type (0, 0), BuildingBlock: ZUJKAS_clean_linker_0, # of connection points: 2
#     Edge 97, Type (0, 0), BuildingBlock: ZUJKAS_clean_linker_0, # of connection points: 2
#     Edge 98, Type (0, 0), BuildingBlock: ZUJKAS_clean_linker_0, # of connection points: 2
#     Edge 99, Type (0, 0), BuildingBlock: ZUJKAS_clean_linker_0, # of connection points: 2
#     Edge 100, Type (0, 0), BuildingBlock: ZUJKAS_clean_linker_0, # of connection points: 2
#     Edge 101, Type (0, 0), BuildingBlock: ZUJKAS_clean_linker_0, # of connection points: 2
#     Edge 102, Type (0, 0), BuildingBlock: ZUJKAS_clean_linker_0, # of connection points: 2
#     Edge 103, Type (0, 0), BuildingBlock: ZUJKAS_clean_linker_0, # of connection points: 2
#     Edge 104, Type (0, 0), BuildingBlock: ZUJKAS_clean_linker_0, # of connection points: 2
#     Edge 105, Type (0, 0), BuildingBlock: ZUJKAS_clean_linker_0, # of connection points: 2
#     Edge 106, Type (0, 0), BuildingBlock: ZUJKAS_clean_linker_0, # of connection points: 2
#     Edge 107, Type (0, 0), BuildingBlock: ZUJKAS_clean_linker_0, # of connection points: 2
#     Edge 108, Type (0, 0), BuildingBlock: ZUJKAS_clean_linker_0, # of connection points: 2
#     Edge 109, Type (0, 0), BuildingBlock: ZUJKAS_clean_linker_0, # of connection points: 2
#     Edge 110, Type (0, 0), BuildingBlock: ZUJKAS_clean_linker_0, # of connection points: 2
#     Edge 111, Type (0, 0), BuildingBlock: ZUJKAS_clean_linker_0, # of connection points: 2
# Relax obj value: 0.535
# Max RMSD: 0.296
# Mean RMSD: 0.296
data_MOF--net-yfq--node1-XOMCOT_clean_sbu_1--edge1-ZUJKAS_clean_linker_0
_symmetry_space_group_name_H-M    P1
_symmetry_Int_Tables_number       1
_symmetry_cell_setting            triclinic
loop_
_symmetry_equiv_pos_as_xyz
'x, y, z'
_cell_length_a     66.943114
_cell_length_b     66.990576
_cell_length_c     74.10817
_cell_angle_alpha  89.988313
_cell_angle_beta   89.996745
_cell_angle_gamma 89.96086
loop_
_atom_site_label
_atom_site_type_symbol
_atom_site_fract_x
_atom_site_fract_y
_atom_site_fract_z
_atom_type_partial_charge
C0 C 0.15386 0.18022 0.29222 0.0
C1 C 0.16299 0.19038 0.30607 0.0
N2 N 0.15841 0.20994 0.30456 0.0
N3 N 0.14341 0.19326 0.28213 0.0
C4 C 0.14663 0.21122 0.28978 0.0
H5 H 0.15447 0.16431 0.2898 0.0
Co6 Co 0.12835 0.18699 0.262 0.0
C7 C 0.10405 0.22312 0.25602 0.0
O8 O 0.11215 0.22517 0.23997 0.0
N9 N 0.11332 0.18045 0.24161 0.0
C10 C 0.08758 0.17396 0.22364 0.0
C11 C 0.09319 0.17993 0.2406 0.0
C12 C 0.11963 0.17465 0.22511 0.0
N13 N 0.10423 0.17061 0.21388 0.0
O14 O 0.14589 0.20344 0.24807 0.0
H15 H 0.08318 0.18361 0.25157 0.0
H16 H 0.1352 0.17309 0.2215 0.0
O17 O 0.11022 0.20928 0.26646 0.0
C18 C 0.16259 0.19532 0.24432 0.0
O19 O 0.16476 0.17614 0.2475 0.0
N20 N 0.11225 0.17038 0.27624 0.0
C21 C 0.09105 0.14466 0.2987 0.0
C22 C 0.09252 0.16503 0.30275 0.0
C23 C 0.10324 0.17761 0.29142 0.0
C24 C 0.11115 0.15057 0.27208 0.0
C25 C 0.10034 0.13743 0.28305 0.0
H26 H 0.10482 0.19308 0.29522 0.0
H27 H 0.11885 0.14493 0.2603 0.0
H28 H 0.14037 0.22491 0.28452 0.0
H29 H 0.17178 0.18366 0.3167 0.0
H30 H 0.0724 0.17245 0.21881 0.0
H31 H 0.08547 0.17122 0.31466 0.0
H32 H 0.09967 0.12174 0.27958 0.0
C33 C 0.07397 0.90576 0.54634 0.0
C34 C 0.06279 0.91479 0.5596 0.0
N35 N 0.04363 0.90876 0.55789 0.0
N36 N 0.06199 0.89394 0.53643 0.0
C37 C 0.04363 0.89626 0.54356 0.0
H38 H 0.08989 0.90732 0.54426 0.0
Co39 Co 0.06973 0.87815 0.51719 0.0
C40 C 0.03506 0.85228 0.51101 0.0
O41 O 0.03289 0.8605 0.49503 0.0
N42 N 0.07757 0.86223 0.49772 0.0
C43 C 0.08451 0.83533 0.48133 0.0
C44 C 0.07977 0.84218 0.49822 0.0
C45 C 0.08122 0.86724 0.48038 0.0
N46 N 0.08535 0.8511 0.47009 0.0
O47 O 0.05295 0.8941 0.50217 0.0
H48 H 0.07767 0.83303 0.5101 0.0
H49 H 0.08024 0.88232 0.47526 0.0
O50 O 0.04829 0.85907 0.52179 0.0
C51 C 0.06074 0.91074 0.49778 0.0
O52 O 0.07992 0.91334 0.50075 0.0
N53 N 0.08672 0.8639 0.53253 0.0
C54 C 0.11314 0.84687 0.55698 0.0
C55 C 0.0926 0.84696 0.56045 0.0
C56 C 0.07961 0.85552 0.54804 0.0
C57 C 0.1067 0.86403 0.52891 0.0
C58 C 0.12025 0.85521 0.54089 0.0
H59 H 0.06389 0.85612 0.55128 0.0
H60 H 0.11216 0.87124 0.51682 0.0
H61 H 0.03057 0.8888 0.53829 0.0
H62 H 0.06857 0.92449 0.57003 0.0
H63 H 0.08709 0.81992 0.47762 0.0
H64 H 0.08664 0.84058 0.57276 0.0
H65 H 0.13608 0.85543 0.5379 0.0
C66 C 0.33853 0.82409 0.79739 0.0
C67 C 0.33235 0.81199 0.81129 0.0
N68 N 0.3406 0.79376 0.80906 0.0
N69 N 0.35072 0.81363 0.78649 0.0
C70 C 0.35152 0.79518 0.79374 0.0
H71 H 0.33492 0.83971 0.79561 0.0
Co72 Co 0.36387 0.82413 0.76672 0.0
C73 C 0.39033 0.79181 0.75434 0.0
O74 O 0.38176 0.79245 0.7384 0.0
N75 N 0.37721 0.83502 0.74671 0.0
C76 C 0.40185 0.84672 0.72959 0.0
C77 C 0.39692 0.83938 0.74625 0.0
C78 C 0.37053 0.83962 0.72997 0.0
N79 N 0.38528 0.84684 0.71935 0.0
O80 O 0.34654 0.80884 0.75161 0.0
H81 H 0.40727 0.8369 0.75723 0.0
H82 H 0.35529 0.83754 0.72555 0.0
O83 O 0.38366 0.80278 0.76706 0.0
C84 C 0.3294 0.81662 0.74908 0.0
O85 O 0.32657 0.83524 0.75407 0.0
N86 N 0.37968 0.83942 0.78239 0.0
C87 C 0.4025 0.8627 0.80565 0.0
C88 C 0.40311 0.84184 0.80668 0.0
C89 C 0.3914 0.83048 0.79512 0.0
C90 C 0.37825 0.85972 0.78159 0.0
C91 C 0.38962 0.87173 0.79315 0.0
H92 H 0.39154 0.81448 0.79667 0.0
H93 H 0.36837 0.86658 0.77184 0.0
H94 H 0.36024 0.78318 0.78802 0.0
H95 H 0.32319 0.81663 0.82256 0.0
H96 H 0.41667 0.85086 0.7251 0.0
H97 H 0.41233 0.83434 0.81661 0.0
H98 H 0.38858 0.88782 0.79217 0.0
C99 C 0.42931 0.08817 0.0485 0.0
C100 C 0.44501 0.08402 0.0598 0.0
N101 N 0.45951 0.09746 0.0566 0.0
N102 N 0.43394 0.10412 0.03826 0.0
C103 C 0.45244 0.10957 0.04351 0.0
H104 H 0.41557 0.07977 0.04738 0.0
Co105 Co 0.41795 0.11188 0.01941 0.0
C106 C 0.42942 0.15289 0.00876 0.0
O107 O 0.41031 0.15644 0.00628 0.0
N108 N 0.40131 0.11851 -0.0003 0.0
C109 C 0.37607 0.12471 0.98096 0.0
C110 C 0.38123 0.12016 -0.0016 0.0
C111 C 0.40788 0.12174 0.98268 0.0
N112 N 0.39287 0.12574 0.97106 0.0
O113 O 0.434 0.09553 0.00403 0.0
H114 H 0.37062 0.11817 0.00914 0.0
H115 H 0.42349 0.12112 0.97891 0.0
O116 O 0.43511 0.13557 0.01422 0.0
C117 C 0.42744 0.07782 0.00204 0.0
O118 O 0.40925 0.07379 0.00764 0.0
N119 N 0.40226 0.12645 0.03597 0.0
C120 C 0.37988 0.1435 0.06371 0.0
C121 C 0.39866 0.15116 0.05919 0.0
C122 C 0.40977 0.14219 0.04555 0.0
C123 C 0.38472 0.11786 0.04123 0.0
C124 C 0.37288 0.12658 0.05465 0.0
H125 H 0.4248 0.14746 0.04345 0.0
H126 H 0.38006 0.10391 0.03523 0.0
H127 H 0.46089 0.12158 0.03744 0.0
H128 H 0.44576 0.07204 0.06959 0.0
H129 H 0.36106 0.12728 0.97606 0.0
H130 H 0.40486 0.16383 0.06633 0.0
H131 H 0.35879 0.11978 0.05835 0.0
C132 C 0.14287 0.82203 0.19588 0.0
C133 C 0.1472 0.80678 0.1842 0.0
N134 N 0.13818 0.79015 0.19029 0.0
N135 N 0.13107 0.81507 0.20919 0.0
C136 C 0.12837 0.79554 0.20544 0.0
H137 H 0.14882 0.83701 0.19527 0.0
Co138 Co 0.12633 0.82977 0.22967 0.0
C139 C 0.08612 0.81919 0.24318 0.0
O140 O 0.08388 0.83822 0.24699 0.0
N141 N 0.12291 0.8451 0.25083 0.0
C142 C 0.12167 0.86949 0.2712 0.0
C143 C 0.12331 0.86512 0.2532 0.0
C144 C 0.12134 0.83771 0.26778 0.0
N145 N 0.12047 0.85224 0.28039 0.0
O146 O 0.14348 0.81185 0.24242 0.0
H147 H 0.12498 0.87622 0.24285 0.0
H148 H 0.12114 0.82191 0.27081 0.0
O149 O 0.10254 0.8132 0.23598 0.0
C150 C 0.16176 0.81709 0.24209 0.0
O151 O 0.16616 0.83501 0.23607 0.0
N152 N 0.11077 0.84744 0.2156 0.0
C153 C 0.09278 0.87236 0.19001 0.0
C154 C 0.08418 0.85399 0.19469 0.0
C155 C 0.0936 0.84161 0.20714 0.0
C156 C 0.12001 0.86463 0.21033 0.0
C157 C 0.11104 0.8776 0.19797 0.0
H158 H 0.08763 0.8268 0.20891 0.0
H159 H 0.13487 0.86795 0.2152 0.0
H160 H 0.12055 0.78525 0.21421 0.0
H161 H 0.15665 0.8077 0.17237 0.0
H162 H 0.12131 0.8843 0.27703 0.0
H163 H 0.07083 0.84861 0.18803 0.0
H164 H 0.11862 0.8913 0.19436 0.0
C165 C 0.44221 0.89439 0.45193 0.0
C166 C 0.45241 0.90575 0.43959 0.0
N167 N 0.47189 0.90558 0.44408 0.0
N168 N 0.4552 0.88661 0.46396 0.0
C169 C 0.47309 0.89429 0.45914 0.0
H170 H 0.42625 0.89193 0.4521 0.0
Co171 Co 0.44743 0.87183 0.4842 0.0
C172 C 0.4842 0.84592 0.47302 0.0
O173 O 0.49049 0.85615 0.45904 0.0
N174 N 0.43903 0.85779 0.50458 0.0
C175 C 0.4295 0.83313 0.52266 0.0
C176 C 0.43618 0.83789 0.50569 0.0
C177 C 0.43381 0.86484 0.52099 0.0
N178 N 0.42802 0.8501 0.53232 0.0
O179 O 0.46447 0.8883 0.49844 0.0
H180 H 0.43849 0.82749 0.49472 0.0
H181 H 0.43442 0.88045 0.52462 0.0
O182 O 0.46882 0.85173 0.48183 0.0
C183 C 0.45735 0.90563 0.50138 0.0
O184 O 0.43832 0.90872 0.49797 0.0
N185 N 0.43034 0.85653 0.46964 0.0
C186 C 0.40401 0.83938 0.44512 0.0
C187 C 0.42465 0.83817 0.44244 0.0
C188 C 0.43754 0.8469 0.45477 0.0
C189 C 0.41026 0.85751 0.47275 0.0
C190 C 0.39674 0.84876 0.4607 0.0
H191 H 0.4532 0.84698 0.45163 0.0
H192 H 0.40471 0.86568 0.4843 0.0
H193 H 0.48672 0.89191 0.46668 0.0
H194 H 0.44607 0.91296 0.42784 0.0
H195 H 0.42567 0.81833 0.52737 0.0
H196 H 0.43082 0.83093 0.43061 0.0
H197 H 0.38084 0.85 0.46313 0.0
C198 C 0.34101 0.20018 0.7126 0.0
C199 C 0.33583 0.21409 0.69989 0.0
N200 N 0.35094 0.22726 0.69839 0.0
N201 N 0.35923 0.20454 0.71918 0.0
C202 C 0.36498 0.22115 0.7103 0.0
H203 H 0.33223 0.18737 0.71658 0.0
Co204 Co 0.37068 0.18836 0.7363 0.0
C205 C 0.41051 0.20414 0.7458 0.0
O206 O 0.41646 0.18545 0.74628 0.0
N207 N 0.38107 0.17109 0.75418 0.0
C208 C 0.39306 0.14537 0.76986 0.0
C209 C 0.38709 0.15183 0.75314 0.0
C210 C 0.38327 0.17578 0.77184 0.0
N211 N 0.39063 0.16045 0.7816 0.0
O212 O 0.35368 0.20078 0.75371 0.0
H213 H 0.38715 0.14266 0.74123 0.0
H214 H 0.37975 0.19028 0.77742 0.0
O215 O 0.39232 0.20815 0.74151 0.0
C216 C 0.33739 0.19164 0.75695 0.0
O217 O 0.33589 0.17286 0.752 0.0
N218 N 0.38565 0.17617 0.71778 0.0
C219 C 0.40225 0.15825 0.68729 0.0
C220 C 0.40904 0.17686 0.69324 0.0
C221 C 0.40028 0.18575 0.70825 0.0
C222 C 0.37793 0.1587 0.71139 0.0
C223 C 0.38642 0.14912 0.69649 0.0
H224 H 0.40483 0.20073 0.71153 0.0
H225 H 0.36502 0.1522 0.71791 0.0
H226 H 0.37924 0.22842 0.71232 0.0
H227 H 0.32238 0.21396 0.69178 0.0
H228 H 0.39821 0.1305 0.77321 0.0
H229 H 0.42091 0.18464 0.68623 0.0
H230 H 0.38032 0.13504 0.6919 0.0
C231 C 0.06926 0.0895 0.94706 0.0
C232 C 0.05358 0.08631 0.93551 0.0
N233 N 0.0385 0.09852 0.94032 0.0
N234 N 0.06415 0.10369 0.95906 0.0
C235 C 0.0453 0.10899 0.95465 0.0
H236 H 0.0834 0.08169 0.94701 0.0
Co237 Co 0.08073 0.10993 0.97804 0.0
C238 C 0.06984 0.15013 0.9912 0.0
O239 O 0.08904 0.1533 0.99348 0.0
N240 N 0.09803 0.11495 -0.00227 0.0
C241 C 0.12423 0.11878 0.0159 0.0
C242 C 0.11821 0.11526 -0.00151 0.0
C243 C 0.09225 0.11773 0.01507 0.0
N244 N 0.10788 0.12044 0.02634 0.0
O245 O 0.06516 0.09258 0.99277 0.0
H246 H 0.12827 0.11283 0.9874 0.0
H247 H 0.07676 0.11825 0.01922 0.0
O248 O 0.06384 0.13329 0.98491 0.0
C249 C 0.07244 0.07507 0.99407 0.0
O250 O 0.0908 0.07203 0.98842 0.0
N251 N 0.09608 0.12555 0.962 0.0
C252 C 0.11697 0.1431 0.93352 0.0
C253 C 0.09901 0.15134 0.93967 0.0
C254 C 0.08856 0.14209 0.95356 0.0
C255 C 0.11301 0.11676 0.9555 0.0
C256 C 0.12406 0.1256 0.94163 0.0
H257 H 0.07385 0.14768 0.95657 0.0
H258 H 0.11751 0.10229 0.96055 0.0
H259 H 0.03653 0.11976 0.96211 0.0
H260 H 0.05334 0.07586 0.92437 0.0
H261 H 0.13953 0.11968 0.02053 0.0
H262 H 0.09273 0.16455 0.93341 0.0
H263 H 0.13744 0.11831 0.9367 0.0
C264 C 0.84403 0.82576 0.69854 0.0
C265 C 0.83699 0.81431 0.68451 0.0
N266 N 0.84655 0.79661 0.68488 0.0
N267 N 0.85795 0.81531 0.70766 0.0
C268 C 0.85911 0.79758 0.69912 0.0
H269 H 0.83949 0.84082 0.70181 0.0
Co270 Co 0.87129 0.82468 0.72773 0.0
C271 C 0.89811 0.7921 0.73865 0.0
O272 O 0.88989 0.79243 0.75475 0.0
N273 N 0.88464 0.8345 0.74808 0.0
C274 C 0.90908 0.84423 0.76634 0.0
C275 C 0.90441 0.83838 0.74913 0.0
C276 C 0.87761 0.83826 0.76483 0.0
N277 N 0.89223 0.84405 0.77626 0.0
O278 O 0.85409 0.80844 0.74223 0.0
H279 H 0.91491 0.83657 0.73816 0.0
H280 H 0.86223 0.83605 0.76879 0.0
O281 O 0.89119 0.80337 0.72624 0.0
C282 C 0.83703 0.81626 0.74515 0.0
O283 O 0.83441 0.83516 0.74098 0.0
N284 N 0.88679 0.84096 0.71275 0.0
C285 C 0.90653 0.86635 0.68891 0.0
C286 C 0.90863 0.84558 0.68752 0.0
C287 C 0.89849 0.83315 0.69943 0.0
C288 C 0.8845 0.86111 0.71439 0.0
C289 C 0.89443 0.87414 0.70268 0.0
H290 H 0.89968 0.81722 0.69754 0.0
H291 H 0.87471 0.86704 0.72469 0.0
H292 H 0.86894 0.78561 0.70326 0.0
H293 H 0.82614 0.8189 0.6745 0.0
H294 H 0.92382 0.84811 0.7712 0.0
H295 H 0.91796 0.83891 0.67721 0.0
H296 H 0.89225 0.89009 0.70409 0.0
C297 C 0.93183 0.0971 0.45266 0.0
C298 C 0.94098 0.08878 0.43785 0.0
N299 N 0.95907 0.09735 0.43585 0.0
N300 N 0.94405 0.11088 0.45993 0.0
C301 C 0.96057 0.11062 0.44952 0.0
H302 H 0.91716 0.09346 0.4578 0.0
Co303 Co 0.93792 0.12583 0.48016 0.0
C304 C 0.97353 0.15078 0.48583 0.0
O305 O 0.9761 0.14231 0.50166 0.0
N306 N 0.93143 0.14072 0.50069 0.0
C307 C 0.92457 0.16632 0.51871 0.0
C308 C 0.92997 0.1608 0.50156 0.0
C309 C 0.9268 0.13435 0.51746 0.0
N310 N 0.92258 0.14966 0.52872 0.0
O311 O 0.95512 0.10873 0.49373 0.0
H312 H 0.93269 0.17084 0.49039 0.0
H313 H 0.92624 0.1188 0.52131 0.0
O314 O 0.95963 0.14456 0.47547 0.0
C315 C 0.94734 0.09206 0.49807 0.0
O316 O 0.92799 0.08977 0.49589 0.0
N317 N 0.92055 0.14137 0.46624 0.0
C318 C 0.8936 0.16154 0.44417 0.0
C319 C 0.914 0.16111 0.43997 0.0
C320 C 0.9272 0.15087 0.4511 0.0
C321 C 0.90074 0.14145 0.47055 0.0
C322 C 0.88696 0.15172 0.45978 0.0
H323 H 0.94271 0.15015 0.44719 0.0
H324 H 0.8956 0.13336 0.4823 0.0
H325 H 0.97321 0.12038 0.45165 0.0
H326 H 0.93473 0.07733 0.42924 0.0
H327 H 0.92256 0.18145 0.52349 0.0
H328 H 0.91977 0.16865 0.42814 0.0
H329 H 0.87129 0.15162 0.46338 0.0
C330 C 0.66178 0.19137 0.20177 0.0
C331 C 0.66669 0.20597 0.18959 0.0
N332 N 0.65304 0.22064 0.19092 0.0
N333 N 0.64519 0.19686 0.21078 0.0
C334 C 0.64007 0.21477 0.20383 0.0
H335 H 0.67002 0.17775 0.20427 0.0
Co336 Co 0.63618 0.18183 0.22982 0.0
C337 C 0.59606 0.19623 0.24043 0.0
O338 O 0.59159 0.1775 0.24377 0.0
N339 N 0.62838 0.16591 0.24969 0.0
C340 C 0.61989 0.14117 0.26826 0.0
C341 C 0.62421 0.14617 0.25074 0.0
C342 C 0.62684 0.17238 0.26696 0.0
N343 N 0.62156 0.15768 0.27845 0.0
O344 O 0.65333 0.197 0.24508 0.0
H345 H 0.6244 0.13569 0.23976 0.0
H346 H 0.62927 0.18771 0.27099 0.0
O347 O 0.61361 0.20066 0.23461 0.0
C348 C 0.67054 0.18946 0.24772 0.0
O349 O 0.67366 0.17088 0.24276 0.0
N350 N 0.6207 0.16695 0.21337 0.0
C351 C 0.60151 0.14506 0.18645 0.0
C352 C 0.59498 0.16427 0.19099 0.0
C353 C 0.60506 0.17514 0.2041 0.0
C354 C 0.62841 0.14908 0.20793 0.0
C355 C 0.61877 0.13761 0.19478 0.0
H356 H 0.60066 0.19045 0.20603 0.0
H357 H 0.64217 0.14369 0.21386 0.0
H358 H 0.62754 0.22361 0.20846 0.0
H359 H 0.67926 0.20582 0.1804 0.0
H360 H 0.61636 0.12638 0.27319 0.0
H361 H 0.58254 0.17118 0.18402 0.0
H362 H 0.62475 0.12311 0.1912 0.0
C363 C 0.57458 0.9018 0.94781 0.0
C364 C 0.56284 0.90974 0.93436 0.0
N365 N 0.54409 0.90283 0.93654 0.0
N366 N 0.56331 0.88978 0.95822 0.0
C367 C 0.54478 0.89083 0.95116 0.0
H368 H 0.59033 0.90454 0.94988 0.0
Co369 Co 0.57227 0.87621 0.97835 0.0
C370 C 0.53955 0.84843 0.98673 0.0
O371 O 0.53736 0.85721 0.00246 0.0
N372 N 0.58153 0.86272 -0.00121 0.0
C373 C 0.59198 0.83841 0.01687 0.0
C374 C 0.58561 0.843 -0.00022 0.0
C375 C 0.58548 0.86979 0.01549 0.0
N376 N 0.59187 0.85526 0.02676 0.0
O377 O 0.55448 0.89218 0.99253 0.0
H378 H 0.58379 0.83253 0.98879 0.0
H379 H 0.58367 0.88526 0.01933 0.0
O380 O 0.55209 0.85543 0.97539 0.0
C381 C 0.56053 0.90993 0.9954 0.0
O382 O 0.57916 0.91433 0.99148 0.0
N383 N 0.59 0.86174 0.96371 0.0
C384 C 0.61684 0.84336 0.94028 0.0
C385 C 0.59622 0.84218 0.93725 0.0
C386 C 0.58307 0.8515 0.94907 0.0
C387 C 0.61003 0.8632 0.96687 0.0
C388 C 0.62377 0.85381 0.95542 0.0
H389 H 0.56729 0.85102 0.94606 0.0
H390 H 0.61535 0.87185 0.97822 0.0
H391 H 0.53212 0.88268 0.95648 0.0
H392 H 0.56771 0.91985 0.92385 0.0
H393 H 0.59577 0.82367 0.0218 0.0
H394 H 0.59028 0.83416 0.92575 0.0
H395 H 0.63962 0.85514 0.9581 0.0
C396 C 0.83382 0.1906 0.78774 0.0
C397 C 0.82939 0.20369 0.80131 0.0
N398 N 0.8455 0.2153 0.80418 0.0
N399 N 0.85256 0.19393 0.78191 0.0
C400 C 0.85937 0.20917 0.7921 0.0
H401 H 0.82407 0.17912 0.7825 0.0
Co402 Co 0.86269 0.17788 0.76406 0.0
C403 C 0.90312 0.19182 0.75387 0.0
O404 O 0.908 0.17296 0.75181 0.0
N405 N 0.87139 0.16074 0.74545 0.0
C406 C 0.87903 0.13426 0.72865 0.0
C407 C 0.87419 0.14075 0.74567 0.0
C408 C 0.87437 0.16592 0.72799 0.0
N409 N 0.87914 0.15012 0.71752 0.0
O410 O 0.84669 0.1925 0.74731 0.0
H411 H 0.87261 0.13114 0.75721 0.0
H412 H 0.87278 0.18103 0.72301 0.0
O413 O 0.88545 0.19644 0.75927 0.0
C414 C 0.82967 0.18589 0.74255 0.0
O415 O 0.82528 0.1671 0.74574 0.0
N416 N 0.87722 0.16387 0.78199 0.0
C417 C 0.89261 0.14539 0.81286 0.0
C418 C 0.901 0.16304 0.80626 0.0
C419 C 0.89287 0.17224 0.79114 0.0
C420 C 0.86838 0.14703 0.78865 0.0
C421 C 0.87616 0.13721 0.8038 0.0
H422 H 0.8986 0.18675 0.78777 0.0
H423 H 0.85482 0.14152 0.78247 0.0
H424 H 0.87434 0.21517 0.7911 0.0
H425 H 0.81539 0.2045 0.80858 0.0
H426 H 0.88226 0.11901 0.7248 0.0
H427 H 0.91351 0.17006 0.81303 0.0
H428 H 0.86891 0.12387 0.80881 0.0
C429 C 0.55714 0.08384 0.53067 0.0
C430 C 0.5426 0.08085 0.54343 0.0
N431 N 0.53521 0.09878 0.54831 0.0
N432 N 0.55886 0.10354 0.52739 0.0
C433 C 0.54539 0.1123 0.53837 0.0
H434 H 0.56603 0.07237 0.52427 0.0
Co435 Co 0.57678 0.11446 0.51115 0.0
C436 C 0.54493 0.14274 0.49777 0.0
O437 O 0.53776 0.13024 0.48576 0.0
N438 N 0.59489 0.12491 0.49468 0.0
C439 C 0.62313 0.13346 0.4811 0.0
C440 C 0.61486 0.12603 0.49669 0.0
C441 C 0.59135 0.1315 0.47778 0.0
N442 N 0.60832 0.1368 0.46913 0.0
O443 O 0.56375 0.09974 0.49254 0.0
H444 H 0.62293 0.12139 0.50862 0.0
H445 H 0.57668 0.13149 0.47171 0.0
O446 O 0.55951 0.13754 0.50779 0.0
C447 C 0.57235 0.08366 0.48767 0.0
O448 O 0.59116 0.08104 0.49217 0.0
N449 N 0.58981 0.12765 0.53 0.0
C450 C 0.60562 0.14533 0.56078 0.0
C451 C 0.59982 0.15704 0.54597 0.0
C452 C 0.59202 0.14788 0.53063 0.0
C453 C 0.59674 0.11595 0.54369 0.0
C454 C 0.60448 0.1245 0.55935 0.0
H455 H 0.58748 0.15708 0.51938 0.0
H456 H 0.5956 0.09988 0.54271 0.0
H457 H 0.54346 0.1283 0.53933 0.0
H458 H 0.53779 0.06652 0.54858 0.0
H459 H 0.63889 0.13589 0.47877 0.0
H460 H 0.60054 0.17318 0.54649 0.0
H461 H 0.60921 0.11494 0.57034 0.0
C462 C 0.64196 0.82132 0.29978 0.0
C463 C 0.65241 0.80914 0.31136 0.0
N464 N 0.65071 0.79024 0.30543 0.0
N465 N 0.63334 0.81011 0.2868 0.0
C466 C 0.63946 0.79131 0.29036 0.0
H467 H 0.64084 0.83739 0.30071 0.0
Co468 Co 0.61965 0.81988 0.26666 0.0
C469 C 0.59041 0.78567 0.27732 0.0
O470 O 0.59971 0.7788 0.29161 0.0
N471 N 0.60644 0.82994 0.24632 0.0
C472 C 0.58233 0.84153 0.22857 0.0
C473 C 0.58712 0.83569 0.24576 0.0
C474 C 0.6131 0.83248 0.22925 0.0
N475 N 0.59866 0.83942 0.21812 0.0
O476 O 0.63489 0.8018 0.2521 0.0
H477 H 0.57702 0.8355 0.25714 0.0
H478 H 0.62806 0.82877 0.22492 0.0
O479 O 0.59764 0.8004 0.26848 0.0
C480 C 0.65247 0.80839 0.24921 0.0
O481 O 0.65618 0.82719 0.25303 0.0
N482 N 0.60604 0.83816 0.28146 0.0
C483 C 0.59158 0.86644 0.30572 0.0
C484 C 0.58759 0.8461 0.30819 0.0
C485 C 0.595 0.8322 0.29597 0.0
C486 C 0.60982 0.85794 0.27862 0.0
C487 C 0.60249 0.87242 0.29052 0.0
H488 H 0.59278 0.81664 0.29884 0.0
H489 H 0.61908 0.86242 0.26736 0.0
H490 H 0.63596 0.77862 0.28191 0.0
H491 H 0.66021 0.81378 0.32344 0.0
H492 H 0.56789 0.84691 0.22416 0.0
H493 H 0.57913 0.8409 0.31973 0.0
H494 H 0.60598 0.88801 0.28825 0.0
C495 C 0.93919 0.91025 0.03281 0.0
C496 C 0.95338 0.91864 0.04388 0.0
N497 N 0.96914 0.90616 0.04459 0.0
N498 N 0.946 0.89259 0.02664 0.0
C499 C 0.96438 0.89059 0.03387 0.0
H500 H 0.92476 0.91653 0.02951 0.0
Co501 Co 0.93244 0.87664 0.01026 0.0
C502 C 0.94902 0.83647 0.0222 0.0
O503 O 0.93245 0.83186 0.03066 0.0
N504 N 0.91874 0.86125 0.99278 0.0
C505 C 0.90252 0.83758 0.9775 0.0
C506 C 0.91089 0.84266 0.99379 0.0
C507 C 0.91464 0.86712 0.97571 0.0
N508 N 0.9049 0.85304 0.96615 0.0
O509 O 0.9504 0.88663 0.99238 0.0
H510 H 0.91049 0.83343 0.00564 0.0
H511 H 0.919 0.88135 0.97015 0.0
O512 O 0.95081 0.85349 0.01436 0.0
C513 C 0.94575 0.90429 0.9875 0.0
O514 O 0.92763 0.91072 0.99114 0.0
N515 N 0.91433 0.86882 0.02877 0.0
C516 C 0.88759 0.86006 0.05647 0.0
C517 C 0.90797 0.86172 0.06002 0.0
C518 C 0.92106 0.86618 0.04607 0.0
C519 C 0.89423 0.86875 0.02541 0.0
C520 C 0.88058 0.86371 0.039 0.0
H521 H 0.93681 0.86656 0.04912 0.0
H522 H 0.88865 0.87246 0.01214 0.0
H523 H 0.97405 0.87793 0.03142 0.0
H524 H 0.95193 0.93247 0.05132 0.0
H525 H 0.89498 0.82372 0.97435 0.0
H526 H 0.91385 0.85887 0.07341 0.0
H527 H 0.86479 0.86279 0.03594 0.0
C528 C 0.63741 0.68313 0.7952 0.0
C529 C 0.64758 0.69184 0.80925 0.0
N530 N 0.64973 0.71141 0.80558 0.0
N531 N 0.63269 0.6972 0.78288 0.0
C532 C 0.64104 0.71411 0.7893 0.0
H533 H 0.63354 0.66751 0.79416 0.0
Co534 Co 0.61982 0.69255 0.76085 0.0
C535 C 0.59468 0.72888 0.77401 0.0
O536 O 0.60384 0.73266 0.78928 0.0
N537 N 0.60748 0.68747 0.73875 0.0
C538 C 0.58393 0.68213 0.71822 0.0
C539 C 0.58759 0.68759 0.73574 0.0
C540 C 0.61561 0.68183 0.72286 0.0
N541 N 0.60155 0.67845 0.71011 0.0
O542 O 0.63853 0.71015 0.74954 0.0
H543 H 0.57639 0.69098 0.74579 0.0
H544 H 0.63146 0.67968 0.72083 0.0
O545 O 0.60065 0.71459 0.76393 0.0
C546 C 0.65567 0.70244 0.7468 0.0
O547 O 0.65789 0.68317 0.7495 0.0
N548 N 0.60215 0.67467 0.77222 0.0
C549 C 0.57823 0.64679 0.78991 0.0
C550 C 0.57816 0.66687 0.79513 0.0
C551 C 0.59034 0.68049 0.78627 0.0
C552 C 0.60263 0.65514 0.76699 0.0
C553 C 0.59075 0.64087 0.77571 0.0
H554 H 0.59088 0.69548 0.79139 0.0
H555 H 0.61249 0.65057 0.75619 0.0
H556 H 0.64069 0.72821 0.78218 0.0
H557 H 0.65232 0.68446 0.82151 0.0
H558 H 0.56937 0.68097 0.71195 0.0
H559 H 0.56931 0.67194 0.80648 0.0
H560 H 0.5914 0.62542 0.77144 0.0
C561 C 0.56171 0.40434 0.03562 0.0
C562 C 0.55001 0.41399 0.04813 0.0
N563 N 0.53241 0.40426 0.04941 0.0
N564 N 0.55167 0.38845 0.02922 0.0
C565 C 0.53378 0.389 0.03753 0.0
H566 H 0.57675 0.40834 0.0317 0.0
Co567 Co 0.561 0.37079 0.01188 0.0
C568 C 0.5416 0.33356 0.02787 0.0
O569 O 0.55811 0.32829 0.0361 0.0
N570 N 0.57015 0.35361 0.9935 0.0
C571 C 0.57976 0.32741 0.97717 0.0
C572 C 0.57298 0.33362 0.99372 0.0
C573 C 0.5755 0.35912 0.97664 0.0
N574 N 0.58133 0.34349 0.96639 0.0
O575 O 0.54194 0.38254 0.99582 0.0
H576 H 0.57077 0.32399 0.00515 0.0
H577 H 0.57543 0.37439 0.97202 0.0
O578 O 0.54096 0.34981 0.01863 0.0
C579 C 0.54815 0.39941 0.9901 0.0
O580 O 0.56717 0.40369 0.99222 0.0
N581 N 0.58088 0.36123 0.02834 0.0
C582 C 0.61074 0.34992 0.05256 0.0
C583 C 0.59184 0.35531 0.05879 0.0
C584 C 0.57719 0.36097 0.04655 0.0
C585 C 0.59981 0.35744 0.02225 0.0
C586 C 0.61482 0.35109 0.03408 0.0
H587 H 0.56248 0.36407 0.0518 0.0
H588 H 0.60349 0.35928 0.00816 0.0
H589 H 0.5221 0.37826 0.03494 0.0
H590 H 0.55454 0.42671 0.05613 0.0
H591 H 0.58308 0.31217 0.97339 0.0
H592 H 0.58816 0.35439 0.07301 0.0
H593 H 0.62947 0.34726 0.0289 0.0
C594 C 0.84617 0.33 0.29935 0.0
C595 C 0.83785 0.31931 0.31327 0.0
N596 N 0.84726 0.30154 0.31434 0.0
N597 N 0.86076 0.31907 0.2917 0.0
C598 C 0.86105 0.30178 0.301 0.0
H599 H 0.84185 0.34479 0.29499 0.0
Co600 Co 0.87535 0.32755 0.27202 0.0
C601 C 0.90234 0.29423 0.26397 0.0
O602 O 0.89366 0.2926 0.24813 0.0
N603 N 0.88982 0.33651 0.25207 0.0
C604 C 0.91497 0.34682 0.23489 0.0
C605 C 0.90962 0.34039 0.25178 0.0
C606 C 0.88348 0.34059 0.23517 0.0
N607 N 0.89852 0.3469 0.22447 0.0
O608 O 0.8595 0.31025 0.2574 0.0
H609 H 0.91961 0.33844 0.26312 0.0
H610 H 0.86817 0.33898 0.23076 0.0
O611 O 0.89557 0.30677 0.27542 0.0
C612 C 0.8422 0.31679 0.25341 0.0
O613 O 0.83818 0.33567 0.25656 0.0
N614 N 0.88955 0.34488 0.28705 0.0
C615 C 0.90768 0.37166 0.31064 0.0
C616 C 0.90924 0.35101 0.31341 0.0
C617 C 0.89995 0.33789 0.30156 0.0
C618 C 0.88768 0.3649 0.28413 0.0
C619 C 0.89688 0.37862 0.29568 0.0
H620 H 0.90072 0.3221 0.3044 0.0
H621 H 0.87888 0.37021 0.27286 0.0
H622 H 0.87142 0.28978 0.29824 0.0
H623 H 0.82574 0.32426 0.32184 0.0
H624 H 0.92992 0.35055 0.23047 0.0
H625 H 0.91759 0.34499 0.32469 0.0
H626 H 0.89519 0.39446 0.29318 0.0
C627 C 0.93055 0.59865 0.54573 0.0
C628 C 0.94104 0.58959 0.55945 0.0
N629 N 0.96054 0.59399 0.55734 0.0
N630 N 0.94338 0.60892 0.53525 0.0
C631 C 0.96154 0.60566 0.54252 0.0
H632 H 0.91458 0.59794 0.54356 0.0
Co633 Co 0.93686 0.62341 0.51486 0.0
C634 C 0.97245 0.64818 0.50826 0.0
O635 O 0.97451 0.63981 0.49233 0.0
N636 N 0.9301 0.63791 0.49421 0.0
C637 C 0.92315 0.66327 0.47595 0.0
C638 C 0.92883 0.658 0.49307 0.0
C639 C 0.9251 0.6313 0.4776 0.0
N640 N 0.92079 0.64648 0.46621 0.0
O641 O 0.95368 0.60594 0.50128 0.0
H642 H 0.9319 0.6682 0.50404 0.0
H643 H 0.92438 0.61567 0.47398 0.0
O644 O 0.95887 0.64191 0.51894 0.0
C645 C 0.9463 0.58883 0.49792 0.0
O646 O 0.92721 0.58593 0.50113 0.0
N647 N 0.91999 0.63959 0.52877 0.0
C648 C 0.8946 0.66355 0.54916 0.0
C649 C 0.91488 0.6619 0.55356 0.0
C650 C 0.92727 0.6497 0.54334 0.0
C651 C 0.90013 0.64031 0.52466 0.0
C652 C 0.8871 0.65231 0.53471 0.0
H653 H 0.94269 0.64816 0.54736 0.0
H654 H 0.89445 0.6317 0.51343 0.0
H655 H 0.97518 0.61208 0.53727 0.0
H656 H 0.93483 0.5805 0.57014 0.0
H657 H 0.92123 0.67835 0.47098 0.0
H658 H 0.9211 0.66977 0.56503 0.0
H659 H 0.87146 0.65304 0.53105 0.0
C660 C 0.63298 0.32879 0.68948 0.0
C661 C 0.63364 0.31342 0.67729 0.0
N662 N 0.62771 0.2966 0.68569 0.0
N663 N 0.62642 0.32178 0.70547 0.0
C664 C 0.6233 0.30211 0.70276 0.0
H665 H 0.63784 0.34392 0.68701 0.0
Co666 Co 0.6262 0.33583 0.72699 0.0
C667 C 0.5868 0.3269 0.74373 0.0
O668 O 0.58593 0.3456 0.74903 0.0
N669 N 0.62686 0.35 0.74894 0.0
C670 C 0.6295 0.37316 0.77033 0.0
C671 C 0.63021 0.36959 0.75212 0.0
C672 C 0.62492 0.34192 0.76559 0.0
N673 N 0.62605 0.35575 0.77879 0.0
O674 O 0.64356 0.31602 0.73722 0.0
H675 H 0.63317 0.38087 0.74215 0.0
H676 H 0.62205 0.32623 0.76793 0.0
O677 O 0.60215 0.32083 0.7349 0.0
C678 C 0.66124 0.31892 0.73139 0.0
O679 O 0.66469 0.33483 0.72149 0.0
N680 N 0.61076 0.35573 0.71558 0.0
C681 C 0.59448 0.38306 0.69119 0.0
C682 C 0.58339 0.36655 0.69705 0.0
C683 C 0.59197 0.35279 0.70884 0.0
C684 C 0.62176 0.37165 0.70984 0.0
C685 C 0.61384 0.38568 0.69791 0.0
H686 H 0.58403 0.33905 0.71111 0.0
H687 H 0.63739 0.37262 0.7134 0.0
H688 H 0.61903 0.29187 0.71337 0.0
H689 H 0.63852 0.31451 0.6634 0.0
H690 H 0.63153 0.38748 0.77684 0.0
H691 H 0.5688 0.36338 0.69142 0.0
H692 H 0.62314 0.39786 0.69327 0.0
C693 C 0.94411 0.39763 0.95798 0.0
C694 C 0.95514 0.40682 0.94475 0.0
N695 N 0.97427 0.4007 0.94626 0.0
N696 N 0.95616 0.38564 0.96767 0.0
C697 C 0.97445 0.38789 0.96037 0.0
H698 H 0.92827 0.39945 0.96037 0.0
Co699 Co 0.9478 0.37113 0.98743 0.0
C700 C 0.98197 0.34522 0.99614 0.0
O701 O 0.98331 0.3539 0.01199 0.0
N702 N 0.93895 0.35681 0.00745 0.0
C703 C 0.92967 0.33199 0.02544 0.0
C704 C 0.93615 0.33688 0.00844 0.0
C705 C 0.93397 0.36371 0.02395 0.0
N706 N 0.92835 0.34889 0.03523 0.0
O707 O 0.96413 0.38791 0.00203 0.0
H708 H 0.93879 0.32654 -0.00252 0.0
H709 H 0.9349 0.37925 0.02775 0.0
O710 O 0.96935 0.3517 0.98462 0.0
C711 C 0.95656 0.40507 0.00485 0.0
O712 O 0.93752 0.40771 0.00122 0.0
N713 N 0.93144 0.35598 0.97234 0.0
C714 C 0.90628 0.33879 0.94688 0.0
C715 C 0.92705 0.33728 0.94515 0.0
C716 C 0.93937 0.34613 0.9579 0.0
C717 C 0.91126 0.35733 0.97452 0.0
C718 C 0.89831 0.34861 0.96197 0.0
H719 H 0.95528 0.34588 0.95558 0.0
H720 H 0.90522 0.36573 0.98573 0.0
H721 H 0.98763 0.38042 0.96544 0.0
H722 H 0.94934 0.4168 0.93454 0.0
H723 H 0.92617 0.31711 0.03016 0.0
H724 H 0.9338 0.32965 0.93379 0.0
H725 H 0.88232 0.35016 0.96369 0.0
C726 C 0.83899 0.70418 0.20819 0.0
C727 C 0.83477 0.72022 0.19737 0.0
N728 N 0.8504 0.7328 0.19806 0.0
N729 N 0.85709 0.7067 0.21577 0.0
C730 C 0.86386 0.72426 0.20925 0.0
H731 H 0.82934 0.69152 0.21064 0.0
Co732 Co 0.86603 0.6886 0.23257 0.0
C733 C 0.90636 0.70077 0.24473 0.0
O734 O 0.9108 0.68167 0.24504 0.0
N735 N 0.87368 0.66952 0.25007 0.0
C736 C 0.87986 0.64153 0.2653 0.0
C737 C 0.87568 0.64948 0.24866 0.0
C738 C 0.87644 0.67322 0.26786 0.0
N739 N 0.88033 0.65648 0.27739 0.0
O740 O 0.84877 0.70118 0.24973 0.0
H741 H 0.87389 0.64078 0.23657 0.0
H742 H 0.87525 0.68795 0.27375 0.0
O743 O 0.88875 0.70628 0.23983 0.0
C744 C 0.83196 0.69258 0.25193 0.0
O745 O 0.82977 0.67433 0.24575 0.0
N746 N 0.88135 0.67635 0.2143 0.0
C747 C 0.89981 0.65803 0.18486 0.0
C748 C 0.90717 0.67601 0.19184 0.0
C749 C 0.89744 0.68518 0.20621 0.0
C750 C 0.87294 0.65988 0.20662 0.0
C751 C 0.88217 0.65016 0.19216 0.0
H752 H 0.90252 0.69979 0.21017 0.0
H753 H 0.85887 0.6543 0.21172 0.0
H754 H 0.87806 0.73085 0.21285 0.0
H755 H 0.82138 0.72239 0.18942 0.0
H756 H 0.88237 0.6259 0.26824 0.0
H757 H 0.92 0.6833 0.18586 0.0
H758 H 0.87558 0.63666 0.18679 0.0
C759 C 0.57759 0.59356 0.44364 0.0
C760 C 0.56205 0.59047 0.4319 0.0
N761 N 0.5468 0.60245 0.43677 0.0
N762 N 0.57224 0.60748 0.45582 0.0
C763 C 0.55338 0.61268 0.45134 0.0
H764 H 0.59183 0.58593 0.44355 0.0
Co765 Co 0.5886 0.61386 0.47498 0.0
C766 C 0.57848 0.65469 0.48648 0.0
O767 O 0.59781 0.65758 0.48815 0.0
N768 N 0.60554 0.61911 0.49493 0.0
C769 C 0.63115 0.62201 0.51395 0.0
C770 C 0.62566 0.61828 0.49643 0.0
C771 C 0.59924 0.62293 0.51197 0.0
N772 N 0.61451 0.62498 0.52374 0.0
O773 O 0.57242 0.59726 0.48984 0.0
H774 H 0.63604 0.61487 0.4858 0.0
H775 H 0.58363 0.62397 0.51568 0.0
O776 O 0.57207 0.63761 0.48115 0.0
C777 C 0.57913 0.57954 0.49123 0.0
O778 O 0.59722 0.5758 0.48521 0.0
N779 N 0.60459 0.62879 0.45885 0.0
C780 C 0.62674 0.64589 0.43096 0.0
C781 C 0.60813 0.65373 0.43579 0.0
C782 C 0.59712 0.64474 0.44948 0.0
C783 C 0.62201 0.62013 0.45335 0.0
C784 C 0.63374 0.62885 0.43986 0.0
H785 H 0.58213 0.65006 0.45173 0.0
H786 H 0.62641 0.60584 0.45882 0.0
H787 H 0.54446 0.62325 0.45889 0.0
H788 H 0.56204 0.58026 0.42059 0.0
H789 H 0.6463 0.6226 0.51903 0.0
H790 H 0.60192 0.66646 0.42872 0.0
H791 H 0.64763 0.62183 0.43583 0.0
C792 C 0.35631 0.3254 0.19105 0.0
C793 C 0.3477 0.31284 0.17859 0.0
N794 N 0.35148 0.29393 0.18361 0.0
N795 N 0.36579 0.31445 0.20377 0.0
C796 C 0.36216 0.29533 0.19897 0.0
H797 H 0.35504 0.34143 0.19091 0.0
Co798 Co 0.37758 0.32241 0.22561 0.0
C799 C 0.4085 0.29433 0.21008 0.0
O800 O 0.40416 0.29956 0.19344 0.0
N801 N 0.38872 0.33027 0.24744 0.0
C802 C 0.41056 0.33816 0.26883 0.0
C803 C 0.40822 0.32967 0.25216 0.0
C804 C 0.37946 0.33894 0.26161 0.0
N805 N 0.39249 0.34396 0.27471 0.0
O806 O 0.36086 0.30345 0.23764 0.0
H807 H 0.42013 0.32353 0.24409 0.0
H808 H 0.36357 0.34178 0.26226 0.0
O809 O 0.39883 0.30212 0.22323 0.0
C810 C 0.34323 0.31018 0.23993 0.0
O811 O 0.33977 0.32903 0.2361 0.0
N812 N 0.39275 0.34231 0.21391 0.0
C813 C 0.41041 0.374 0.1956 0.0
C814 C 0.42171 0.35732 0.20058 0.0
C815 C 0.41265 0.34166 0.20982 0.0
C816 C 0.3821 0.35932 0.21071 0.0
C817 C 0.39044 0.37516 0.20103 0.0
H818 H 0.42192 0.32929 0.21362 0.0
H819 H 0.36675 0.36028 0.21519 0.0
H820 H 0.36698 0.2826 0.20685 0.0
H821 H 0.33943 0.3173 0.1667 0.0
H822 H 0.42441 0.33959 0.27628 0.0
H823 H 0.43729 0.35603 0.19676 0.0
H824 H 0.38136 0.388 0.19763 0.0
C825 C 0.435 0.59167 0.95194 0.0
C826 C 0.44499 0.58448 0.93707 0.0
N827 N 0.46242 0.5944 0.93561 0.0
N828 N 0.44609 0.60601 0.95979 0.0
C829 C 0.46277 0.60725 0.94964 0.0
H830 H 0.42039 0.58705 0.95656 0.0
Co831 Co 0.43831 0.62021 0.98003 0.0
C832 C 0.47329 0.645 0.98911 0.0
O833 O 0.4741 0.63652 0.00509 0.0
N834 N 0.43015 0.63446 0.00055 0.0
C835 C 0.42206 0.65976 0.01854 0.0
C836 C 0.42814 0.6545 0.00151 0.0
C837 C 0.42521 0.62788 0.01722 0.0
N838 N 0.42023 0.64301 0.02843 0.0
O839 O 0.45405 0.60221 0.9942 0.0
H840 H 0.43115 0.66472 0.99054 0.0
H841 H 0.42515 0.61232 0.02108 0.0
O842 O 0.46059 0.6388 0.97756 0.0
C843 C 0.44522 0.58584 -0.00217 0.0
O844 O 0.42591 0.58462 0.99484 0.0
N845 N 0.42236 0.63651 0.96534 0.0
C846 C 0.3975 0.65724 0.94163 0.0
C847 C 0.41832 0.65778 0.93962 0.0
C848 C 0.43044 0.64715 0.95143 0.0
C849 C 0.40217 0.63583 0.96767 0.0
C850 C 0.38941 0.64626 0.95602 0.0
H851 H 0.4463 0.647 0.94893 0.0
H852 H 0.39594 0.62686 0.97843 0.0
H853 H 0.47484 0.61755 0.95234 0.0
H854 H 0.4395 0.57341 0.92767 0.0
H855 H 0.41964 0.67482 0.02336 0.0
H856 H 0.42527 0.66622 0.92885 0.0
H857 H 0.37341 0.64526 0.95794 0.0
C858 C 0.15687 0.6778 0.69967 0.0
C859 C 0.16626 0.68995 0.68732 0.0
N860 N 0.15733 0.70796 0.6878 0.0
N861 N 0.14185 0.68805 0.70751 0.0
C862 C 0.14268 0.70643 0.7002 0.0
H863 H 0.16064 0.66246 0.70274 0.0
Co864 Co 0.12542 0.67894 0.72588 0.0
C865 C 0.08726 0.69861 0.71182 0.0
O866 O 0.08094 0.68235 0.70383 0.0
N867 N 0.10953 0.67009 0.74518 0.0
C868 C 0.0844 0.66076 0.76294 0.0
C869 C 0.08972 0.66621 0.74573 0.0
C870 C 0.11585 0.66679 0.76223 0.0
N871 N 0.10087 0.66122 0.77334 0.0
O872 O 0.13793 0.69836 0.74107 0.0
H873 H 0.07968 0.667 0.7344 0.0
H874 H 0.1312 0.66836 0.76645 0.0
O875 O 0.10408 0.69881 0.72016 0.0
C876 C 0.15543 0.69316 0.74599 0.0
O877 O 0.1608 0.67447 0.74359 0.0
N878 N 0.1148 0.6589 0.71018 0.0
C879 C 0.10143 0.6289 0.68695 0.0
C880 C 0.10604 0.64788 0.68034 0.0
C881 C 0.1128 0.66257 0.69208 0.0
C882 C 0.11185 0.63995 0.71655 0.0
C883 C 0.10453 0.62487 0.70527 0.0
H884 H 0.11543 0.67728 0.68662 0.0
H885 H 0.11506 0.63636 0.73047 0.0
H886 H 0.13253 0.7184 0.70372 0.0
H887 H 0.17868 0.6859 0.67872 0.0
H888 H 0.06947 0.65715 0.76748 0.0
H889 H 0.1037 0.65162 0.66627 0.0
H890 H 0.10146 0.6102 0.71075 0.0
C891 C 0.0808 0.40519 0.44676 0.0
C892 C 0.06922 0.41419 0.43376 0.0
N893 N 0.05016 0.40818 0.43601 0.0
N894 N 0.06911 0.39344 0.45704 0.0
C895 C 0.05054 0.39567 0.45032 0.0
H896 H 0.09673 0.40697 0.44859 0.0
Co897 Co 0.07751 0.37885 0.47675 0.0
C898 C 0.04362 0.35241 0.48474 0.0
O899 O 0.04217 0.36066 0.50077 0.0
N900 N 0.08618 0.36425 0.49678 0.0
C901 C 0.09493 0.33877 0.51424 0.0
C902 C 0.08971 0.34441 0.49709 0.0
C903 C 0.08939 0.37035 0.51391 0.0
N904 N 0.09461 0.35507 0.52488 0.0
O905 O 0.06064 0.39521 0.49141 0.0
H906 H 0.0882 0.33454 0.48562 0.0
H907 H 0.08725 0.38555 0.51838 0.0
O908 O 0.05627 0.35922 0.47342 0.0
C909 C 0.0677 0.41245 0.49484 0.0
O910 O 0.08658 0.4159 0.49113 0.0
N911 N 0.09442 0.36406 0.46167 0.0
C912 C 0.12033 0.34485 0.43791 0.0
C913 C 0.09961 0.34417 0.43526 0.0
C914 C 0.08694 0.35402 0.44715 0.0
C915 C 0.11452 0.36505 0.46451 0.0
C916 C 0.12781 0.35532 0.45285 0.0
H917 H 0.07113 0.35405 0.44431 0.0
H918 H 0.12026 0.37357 0.47577 0.0
H919 H 0.03756 0.38841 0.45599 0.0
H920 H 0.07458 0.424 0.42322 0.0
H921 H 0.09851 0.32374 0.5185 0.0
H922 H 0.09315 0.33613 0.424 0.0
H923 H 0.14372 0.35638 0.45527 0.0
C924 C 0.33314 0.68879 0.28766 0.0
C925 C 0.32887 0.70202 0.30116 0.0
N926 N 0.34485 0.71395 0.30351 0.0
N927 N 0.35163 0.69235 0.28131 0.0
C928 C 0.35845 0.7079 0.29113 0.0
H929 H 0.32349 0.67695 0.28296 0.0
Co930 Co 0.36169 0.67583 0.26367 0.0
C931 C 0.40164 0.69002 0.25271 0.0
O932 O 0.40658 0.67109 0.25138 0.0
N933 N 0.3703 0.6582 0.24532 0.0
C934 C 0.37776 0.63133 0.22896 0.0
C935 C 0.37315 0.63823 0.2459 0.0
C936 C 0.373 0.66295 0.22771 0.0
N937 N 0.37766 0.6469 0.2175 0.0
O938 O 0.34474 0.68927 0.24677 0.0
H939 H 0.37171 0.62888 0.25763 0.0
H940 H 0.37124 0.67791 0.22244 0.0
O941 O 0.38387 0.69472 0.25781 0.0
C942 C 0.3277 0.68167 0.24344 0.0
O943 O 0.32433 0.66316 0.24845 0.0
N944 N 0.37718 0.66289 0.28175 0.0
C945 C 0.39471 0.64573 0.31236 0.0
C946 C 0.40176 0.66378 0.30539 0.0
C947 C 0.39257 0.67229 0.29044 0.0
C948 C 0.36948 0.64575 0.28891 0.0
C949 C 0.37837 0.63657 0.30391 0.0
H950 H 0.39736 0.68705 0.28676 0.0
H951 H 0.35598 0.63945 0.28327 0.0
H952 H 0.37328 0.7141 0.28974 0.0
H953 H 0.31511 0.7026 0.3088 0.0
H954 H 0.38096 0.61599 0.22539 0.0
H955 H 0.4141 0.67158 0.31169 0.0
H956 H 0.37207 0.6229 0.30926 0.0
C957 C 0.06238 0.59271 0.03763 0.0
C958 C 0.04663 0.58968 0.04916 0.0
N959 N 0.03401 0.60524 0.04752 0.0
N960 N 0.05967 0.61003 0.02873 0.0
C961 C 0.04226 0.61741 0.03506 0.0
H962 H 0.07498 0.58284 0.03566 0.0
Co963 Co 0.07702 0.61817 0.01095 0.0
C964 C 0.06468 0.65849 -0.00138 0.0
O965 O 0.08371 0.66268 0.99655 0.0
N966 N 0.0951 0.6252 0.99246 0.0
C967 C 0.12167 0.63198 0.97545 0.0
C968 C 0.11506 0.62827 0.9927 0.0
C969 C 0.09008 0.62686 0.97485 0.0
N970 N 0.1059 0.63106 0.96423 0.0
O971 O 0.06305 0.60107 0.99473 0.0
H972 H 0.12455 0.62767 0.00442 0.0
H973 H 0.07493 0.62535 0.96995 0.0
O974 O 0.05948 0.64115 0.00437 0.0
C975 C 0.07136 0.58412 0.99264 0.0
O976 O 0.08983 0.58184 -0.00169 0.0
N977 N 0.09069 0.63328 0.02838 0.0
C978 C 0.10817 0.64812 0.05979 0.0
C979 C 0.09105 0.65705 0.05258 0.0
C980 C 0.08231 0.64919 0.03712 0.0
C981 C 0.10713 0.62412 0.03549 0.0
C982 C 0.11646 0.63161 0.05095 0.0
H983 H 0.06804 0.65517 0.03318 0.0
H984 H 0.11252 0.61039 0.02955 0.0
H985 H 0.03557 0.63117 0.03045 0.0
H986 H 0.04475 0.57717 0.05825 0.0
H987 H 0.13698 0.63469 0.97146 0.0
H988 H 0.084 0.66963 0.05922 0.0
H989 H 0.12937 0.62398 0.05644 0.0
C990 C 0.14881 0.31491 0.79399 0.0
C991 C 0.15681 0.30173 0.80625 0.0
N992 N 0.14926 0.28346 0.80285 0.0
N993 N 0.13621 0.305 0.78304 0.0
C994 C 0.13682 0.28588 0.78867 0.0
H995 H 0.15211 0.33067 0.79295 0.0
Co996 Co 0.12353 0.31588 0.76326 0.0
C997 C 0.09522 0.28468 0.75206 0.0
O998 O 0.10443 0.2837 0.73643 0.0
N999 N 0.11093 0.32714 0.7432 0.0
C1000 C 0.08755 0.34006 0.7254 0.0
C1001 C 0.09145 0.33228 0.74217 0.0
C1002 C 0.11855 0.33186 0.72687 0.0
N1003 N 0.1046 0.33975 0.71579 0.0
O1004 O 0.13964 0.29892 0.74845 0.0
H1005 H 0.08066 0.33022 0.75286 0.0
H1006 H 0.13398 0.32953 0.72311 0.0
O1007 O 0.1021 0.29608 0.76439 0.0
C1008 C 0.15726 0.30577 0.74645 0.0
O1009 O 0.16059 0.32447 0.7509 0.0
N1010 N 0.10933 0.33285 0.77859 0.0
C1011 C 0.09358 0.35878 0.80427 0.0
C1012 C 0.08935 0.33829 0.80489 0.0
C1013 C 0.09755 0.32555 0.79208 0.0
C1014 C 0.11333 0.35277 0.77746 0.0
C1015 C 0.10543 0.36609 0.79013 0.0
H1016 H 0.09517 0.3097 0.79358 0.0
H1017 H 0.1232 0.35822 0.76701 0.0
H1018 H 0.12874 0.2739 0.78216 0.0
H1019 H 0.16718 0.30538 0.81695 0.0
H1020 H 0.07313 0.34492 0.72047 0.0
H1021 H 0.08011 0.33203 0.81548 0.0
H1022 H 0.10921 0.38178 0.78927 0.0
C1023 C 0.43955 0.39725 0.53758 0.0
C1024 C 0.4506 0.40615 0.55092 0.0
N1025 N 0.46984 0.40078 0.5487 0.0
N1026 N 0.45172 0.38615 0.52715 0.0
C1027 C 0.47016 0.3887 0.53411 0.0
H1028 H 0.42364 0.39884 0.53547 0.0
Co1029 Co 0.44292 0.37278 0.50695 0.0
C1030 C 0.47655 0.34679 0.49669 0.0
O1031 O 0.47735 0.35591 0.48101 0.0
N1032 N 0.43341 0.35983 0.48658 0.0
C1033 C 0.42251 0.33685 0.4674 0.0
C1034 C 0.431 0.34002 0.48404 0.0
C1035 C 0.42615 0.36837 0.47149 0.0
N1036 N 0.41947 0.35473 0.45954 0.0
O1037 O 0.45931 0.38998 0.49275 0.0
H1038 H 0.43508 0.32863 0.49372 0.0
H1039 H 0.42547 0.38433 0.46942 0.0
O1040 O 0.46433 0.35298 0.50869 0.0
C1041 C 0.45246 0.40759 0.49078 0.0
O1042 O 0.43386 0.41111 0.49551 0.0
N1043 N 0.42656 0.35708 0.52157 0.0
C1044 C 0.40154 0.34035 0.54733 0.0
C1045 C 0.42226 0.33793 0.54851 0.0
C1046 C 0.43453 0.34652 0.53558 0.0
C1047 C 0.40637 0.359 0.51977 0.0
C1048 C 0.39347 0.35051 0.5325 0.0
H1049 H 0.45047 0.34577 0.53759 0.0
H1050 H 0.40031 0.36791 0.5089 0.0
H1051 H 0.48346 0.38174 0.52869 0.0
H1052 H 0.44496 0.41597 0.56133 0.0
H1053 H 0.41917 0.32248 0.46145 0.0
H1054 H 0.429 0.33006 0.55974 0.0
H1055 H 0.3775 0.35273 0.53126 0.0
H1056 H 0.13585 0.14021 0.04576 0.0
H1057 H 0.13527 0.14731 0.07802 0.0
H1058 H 0.07815 0.11808 0.08263 0.0
H1059 H 0.07867 0.11071 0.05026 0.0
H1060 H 0.08015 0.15566 0.09974 0.0
H1061 H 0.14408 0.10756 0.11941 0.0
H1062 H 0.1495 0.12466 0.10141 0.0
H1063 H 0.13149 0.10514 0.09797 0.0
C1064 C 0.12328 0.135 0.05363 0.0
C1065 C 0.10739 0.12471 0.04541 0.0
C1066 C 0.12298 0.1391 0.07209 0.0
C1067 C 0.10685 0.1329 0.08276 0.0
C1068 C 0.0908 0.12288 0.07462 0.0
H1069 H 0.07676 0.1486 0.19591 0.0
H1070 H 0.07736 0.13924 0.16408 0.0
C1071 C 0.09108 0.11877 0.05611 0.0
C1072 C 0.10651 0.13748 0.10231 0.0
H1073 H 0.13203 0.13014 0.14166 0.0
C1074 C 0.09139 0.14997 0.10895 0.0
C1075 C 0.12127 0.13008 0.11424 0.0
C1076 C 0.13741 0.11597 0.10797 0.0
C1077 C 0.09086 0.15565 0.12717 0.0
C1078 C 0.10567 0.14834 0.13909 0.0
C1079 C 0.12075 0.13576 0.13246 0.0
C1080 C 0.10568 0.1535 0.15852 0.0
C1081 C 0.07476 0.16984 0.13341 0.0
C1082 C 0.12173 0.16405 0.16607 0.0
C1083 C 0.12145 0.16943 0.18431 0.0
C1084 C 0.10512 0.16427 0.19531 0.0
C1085 C 0.08934 0.1532 0.18775 0.0
C1086 C 0.08965 0.14782 0.16956 0.0
H1087 H 0.06781 0.17794 0.12193 0.0
H1088 H 0.06286 0.16125 0.14036 0.0
H1089 H 0.08083 0.18094 0.14309 0.0
H1090 H 0.13429 0.16847 0.15777 0.0
H1091 H 0.13376 0.17804 0.18967 0.0
H1092 H 0.10217 0.88002 0.44951 0.0
H1093 H 0.10852 0.87866 0.41694 0.0
H1094 H 0.08351 0.81941 0.41489 0.0
H1095 H 0.07676 0.82079 0.44725 0.0
H1096 H 0.1322 0.84841 0.39806 0.0
H1097 H 0.05305 0.85139 0.37532 0.0
H1098 H 0.06072 0.8591 0.39762 0.0
H1099 H 0.05872 0.83304 0.39227 0.0
C1100 C 0.09784 0.86681 0.44208 0.0
C1101 C 0.08898 0.85051 0.45095 0.0
C1102 C 0.10158 0.866 0.42353 0.0
C1103 C 0.09631 0.849 0.41357 0.0
C1104 C 0.08748 0.83273 0.42235 0.0
H1105 H 0.10284 0.82183 0.29859 0.0
H1106 H 0.09829 0.81927 0.33134 0.0
C1107 C 0.08382 0.83349 0.44087 0.0
C1108 C 0.10036 0.84809 0.394 0.0
H1109 H 0.07753 0.84597 0.35289 0.0
C1110 C 0.12028 0.8479 0.38815 0.0
C1111 C 0.08473 0.84723 0.3812 0.0
C1112 C 0.06308 0.84784 0.38683 0.0
C1113 C 0.12502 0.84683 0.36974 0.0
C1114 C 0.10939 0.84636 0.3569 0.0
C1115 C 0.08947 0.84627 0.36279 0.0
C1116 C 0.11333 0.84709 0.33728 0.0
C1117 C 0.1467 0.84597 0.36423 0.0
C1118 C 0.12326 0.86356 0.32983 0.0
C1119 C 0.12597 0.86498 0.31123 0.0
C1120 C 0.11863 0.85006 0.29965 0.0
C1121 C 0.10887 0.83343 0.30716 0.0
C1122 C 0.10616 0.83202 0.32583 0.0
H1123 H 0.15628 0.8403 0.37536 0.0
H1124 H 0.14883 0.83628 0.35223 0.0
H1125 H 0.15188 0.86123 0.36077 0.0
H1126 H 0.12856 0.87554 0.33838 0.0
H1127 H 0.13376 0.87785 0.30591 0.0
H1128 H 0.4053 0.87634 0.70269 0.0
H1129 H 0.40888 0.88114 0.67014 0.0
H1130 H 0.36813 0.83239 0.66065 0.0
H1131 H 0.36425 0.82786 0.69331 0.0
H1132 H 0.42502 0.85327 0.64892 0.0
H1133 H 0.34973 0.87243 0.62311 0.0
H1134 H 0.35613 0.87394 0.64675 0.0
H1135 H 0.34994 0.85027 0.63674 0.0
C1136 C 0.39679 0.86696 0.69362 0.0
C1137 C 0.38458 0.85168 0.70045 0.0
C1138 C 0.39881 0.86972 0.67506 0.0
C1139 C 0.38871 0.8572 0.66293 0.0
C1140 C 0.37574 0.84251 0.66972 0.0
H1141 H 0.43037 0.8217 0.55827 0.0
H1142 H 0.41999 0.82456 0.58967 0.0
C1143 C 0.37355 0.83989 0.68837 0.0
C1144 C 0.39375 0.85797 0.64344 0.0
H1145 H 0.37388 0.86198 0.60113 0.0
C1146 C 0.41383 0.85538 0.6385 0.0
C1147 C 0.3792 0.86088 0.62985 0.0
C1148 C 0.35757 0.86474 0.63436 0.0
C1149 C 0.41971 0.85513 0.62036 0.0
C1150 C 0.40506 0.8571 0.60675 0.0
C1151 C 0.38504 0.86027 0.61162 0.0
C1152 C 0.41031 0.85527 0.58741 0.0
C1153 C 0.4416 0.85277 0.61593 0.0
C1154 C 0.40781 0.87144 0.5756 0.0
C1155 C 0.4136 0.86981 0.5575 0.0
C1156 C 0.42183 0.85189 0.5509 0.0
C1157 C 0.42394 0.83564 0.56278 0.0
C1158 C 0.41818 0.8373 0.58081 0.0
H1159 H 0.45124 0.85693 0.62754 0.0
H1160 H 0.44468 0.83692 0.61256 0.0
H1161 H 0.44582 0.86207 0.60413 0.0
H1162 H 0.40166 0.88541 0.58044 0.0
H1163 H 0.41148 0.8825 0.54868 0.0
H1164 H 0.41886 0.13913 0.7991 0.0
H1165 H 0.42227 0.13503 0.83177 0.0
H1166 H 0.37308 0.17561 0.84015 0.0
H1167 H 0.36976 0.17992 0.80747 0.0
H1168 H 0.40431 0.18111 0.86466 0.0
H1169 H 0.38211 0.10139 0.85992 0.0
H1170 H 0.40345 0.10788 0.84647 0.0
H1171 H 0.37946 0.11853 0.84131 0.0
C1172 C 0.40884 0.14722 0.80793 0.0
C1173 C 0.39388 0.15964 0.80077 0.0
C1174 C 0.41079 0.14487 0.82655 0.0
C1175 C 0.39765 0.15469 0.83832 0.0
C1176 C 0.38332 0.16784 0.83126 0.0
H1177 H 0.36431 0.1204 0.94562 0.0
H1178 H 0.36646 0.1286 0.91367 0.0
C1179 C 0.38146 0.17033 0.81262 0.0
C1180 C 0.39815 0.15047 0.85791 0.0
H1181 H 0.39183 0.1131 0.88865 0.0
C1182 C 0.40163 0.16625 0.86995 0.0
C1183 C 0.39437 0.13111 0.86471 0.0
C1184 C 0.38945 0.11377 0.85247 0.0
C1185 C 0.40145 0.16317 0.88869 0.0
C1186 C 0.39803 0.14372 0.89546 0.0
C1187 C 0.39461 0.12796 0.88339 0.0
C1188 C 0.39686 0.13945 0.91502 0.0
C1189 C 0.40432 0.18082 0.90106 0.0
C1190 C 0.4133 0.14272 0.92638 0.0
C1191 C 0.41204 0.13824 0.94478 0.0
C1192 C 0.39436 0.13024 0.95209 0.0
C1193 C 0.37803 0.12683 0.94056 0.0
C1194 C 0.37927 0.13138 0.92224 0.0
H1195 H 0.40192 0.19521 0.89392 0.0
H1196 H 0.39393 0.18007 0.91273 0.0
H1197 H 0.41982 0.18071 0.90635 0.0
H1198 H 0.42715 0.14858 0.92101 0.0
H1199 H 0.42484 0.14123 0.95327 0.0
H1200 H 0.89411 0.88603 0.94739 0.0
H1201 H 0.88625 0.88793 0.91517 0.0
H1202 H 0.89523 0.82438 0.91037 0.0
H1203 H 0.90283 0.82238 0.94253 0.0
H1204 H 0.91047 0.87936 0.88787 0.0
H1205 H 0.84385 0.83108 0.88291 0.0
H1206 H 0.85314 0.8402 0.90424 0.0
H1207 H 0.864 0.81837 0.89396 0.0
C1208 C 0.89427 0.87246 0.93947 0.0
C1209 C 0.89909 0.85405 0.94747 0.0
C1210 C 0.88966 0.87355 0.9211 0.0
C1211 C 0.8898 0.85625 0.91042 0.0
C1212 C 0.89442 0.83783 0.91843 0.0
H1213 H 0.92105 0.83863 0.80136 0.0
H1214 H 0.91846 0.84433 0.8337 0.0
C1215 C 0.89886 0.83671 0.93681 0.0
C1216 C 0.88694 0.85762 0.89063 0.0
H1217 H 0.86249 0.83599 0.85526 0.0
C1218 C 0.89973 0.87013 0.88077 0.0
C1219 C 0.87268 0.84588 0.88135 0.0
C1220 C 0.8575 0.8333 0.8912 0.0
C1221 C 0.89946 0.87032 0.86186 0.0
C1222 C 0.88638 0.85731 0.85258 0.0
C1223 C 0.87273 0.84572 0.86241 0.0
C1224 C 0.88775 0.85441 0.83283 0.0
C1225 C 0.91344 0.88422 0.852 0.0
C1226 C 0.87115 0.85765 0.82164 0.0
C1227 C 0.87258 0.85435 0.80303 0.0
C1228 C 0.89062 0.84767 0.79537 0.0
C1229 C 0.9071 0.84425 0.80671 0.0
C1230 C 0.90565 0.8475 0.82524 0.0
H1231 H 0.91732 0.89738 0.86042 0.0
H1232 H 0.92751 0.87618 0.84885 0.0
H1233 H 0.90677 0.88954 0.83915 0.0
H1234 H 0.85715 0.86283 0.82729 0.0
H1235 H 0.85966 0.8572 0.79465 0.0
H1236 H 0.8726 0.11978 0.69414 0.0
H1237 H 0.8802 0.11922 0.66191 0.0
H1238 H 0.90186 0.17972 0.66509 0.0
H1239 H 0.89472 0.18024 0.69752 0.0
H1240 H 0.86536 0.14488 0.63462 0.0
H1241 H 0.94803 0.1486 0.6407 0.0
H1242 H 0.93205 0.14213 0.65943 0.0
H1243 H 0.9346 0.16773 0.65262 0.0
C1244 C 0.87917 0.1329 0.68805 0.0
C1245 C 0.88318 0.15002 0.69842 0.0
C1246 C 0.88339 0.13259 0.66961 0.0
C1247 C 0.89181 0.14932 0.66119 0.0
C1248 C 0.89562 0.16655 0.67141 0.0
H1249 H 0.89952 0.17575 0.54726 0.0
H1250 H 0.89176 0.17497 0.57946 0.0
C1251 C 0.89134 0.1669 0.68988 0.0
C1252 C 0.89632 0.14876 0.64165 0.0
H1253 H 0.93453 0.15107 0.6112 0.0
C1254 C 0.88047 0.1462 0.62948 0.0
C1255 C 0.91609 0.15023 0.63505 0.0
C1256 C 0.93373 0.15215 0.6476 0.0
C1257 C 0.88384 0.14542 0.6108 0.0
C1258 C 0.90354 0.14743 0.60418 0.0
C1259 C 0.91943 0.14964 0.61636 0.0
C1260 C 0.90793 0.14759 0.58462 0.0
C1261 C 0.86633 0.14224 0.59831 0.0
C1262 C 0.91981 0.13258 0.57691 0.0
C1263 C 0.92436 0.13304 0.5585 0.0
C1264 C 0.91728 0.14866 0.54754 0.0
C1265 C 0.90536 0.16364 0.55535 0.0
C1266 C 0.90075 0.16311 0.57371 0.0
H1267 H 0.85313 0.13621 0.60558 0.0
H1268 H 0.86202 0.15674 0.59219 0.0
H1269 H 0.87033 0.13184 0.58721 0.0
H1270 H 0.92559 0.12054 0.58517 0.0
H1271 H 0.93377 0.12143 0.55293 0.0
H1272 H 0.64098 0.18232 0.30156 0.0
H1273 H 0.63882 0.182 0.3346 0.0
H1274 H 0.5943 0.1356 0.33188 0.0
H1275 H 0.59646 0.13579 0.29896 0.0
H1276 H 0.60693 0.1873 0.35909 0.0
H1277 H 0.63858 0.11087 0.36282 0.0
H1278 H 0.63935 0.12567 0.34249 0.0
H1279 H 0.61688 0.11264 0.34869 0.0
C1280 C 0.63055 0.17226 0.30802 0.0
C1281 C 0.61909 0.15887 0.29771 0.0
C1282 C 0.62937 0.17205 0.32686 0.0
C1283 C 0.6167 0.15849 0.33565 0.0
C1284 C 0.60453 0.14584 0.32536 0.0
H1285 H 0.57948 0.15226 0.44729 0.0
H1286 H 0.58221 0.15923 0.41509 0.0
C1287 C 0.60579 0.14595 0.30657 0.0
C1288 C 0.61672 0.15693 0.35557 0.0
H1289 H 0.62498 0.12406 0.3899 0.0
C1290 C 0.61098 0.17354 0.36588 0.0
C1291 C 0.62235 0.13905 0.36436 0.0
C1292 C 0.62983 0.1211 0.35405 0.0
C1293 C 0.6102 0.17255 0.38481 0.0
C1294 C 0.61498 0.15437 0.39354 0.0
C1295 C 0.62117 0.13794 0.3832 0.0
C1296 C 0.61362 0.1518 0.41337 0.0
C1297 C 0.6045 0.19101 0.39527 0.0
C1298 C 0.63028 0.14506 0.42308 0.0
C1299 C 0.62867 0.14061 0.44142 0.0
C1300 C 0.61032 0.1428 0.45049 0.0
C1301 C 0.59377 0.15011 0.44078 0.0
C1302 C 0.59538 0.15442 0.42238 0.0
H1303 H 0.60714 0.20479 0.38727 0.0
H1304 H 0.58835 0.19037 0.3986 0.0
H1305 H 0.61304 0.19207 0.40808 0.0
H1306 H 0.64448 0.14282 0.41636 0.0
H1307 H 0.64171 0.13483 0.44826 0.0
H1308 H 0.61841 0.83318 0.04562 0.0
H1309 H 0.62277 0.83265 0.07838 0.0
H1310 H 0.57946 0.87994 0.08379 0.0
H1311 H 0.57507 0.88059 0.05095 0.0
H1312 H 0.61326 0.88355 0.10726 0.0
H1313 H 0.57853 0.80829 0.11007 0.0
H1314 H 0.59975 0.81016 0.09534 0.0
H1315 H 0.57736 0.82387 0.09025 0.0
C1316 C 0.60989 0.84354 0.05378 0.0
C1317 C 0.59618 0.85673 0.04575 0.0
C1318 C 0.61242 0.84323 0.07247 0.0
C1319 C 0.60115 0.85598 0.0835 0.0
C1320 C 0.58824 0.86993 0.07549 0.0
H1321 H 0.56815 0.83849 0.19409 0.0
H1322 H 0.57 0.84387 0.16167 0.0
C1323 C 0.58578 0.87032 0.05674 0.0
C1324 C 0.60185 0.85383 0.10337 0.0
H1325 H 0.59125 0.82117 0.13738 0.0
C1326 C 0.6085 0.86993 0.11389 0.0
C1327 C 0.59539 0.8361 0.11193 0.0
C1328 C 0.58718 0.81866 0.10137 0.0
C1329 C 0.60892 0.86871 0.13283 0.0
C1330 C 0.60275 0.85084 0.14135 0.0
C1331 C 0.59613 0.83478 0.13079 0.0
C1332 C 0.60193 0.84872 0.16123 0.0
C1333 C 0.61544 0.88668 0.14358 0.0
C1334 C 0.61932 0.84963 0.17179 0.0
C1335 C 0.6183 0.84672 0.19048 0.0
C1336 C 0.59987 0.84276 0.1989 0.0
C1337 C 0.58254 0.84186 0.1882 0.0
C1338 C 0.58357 0.8448 0.1696 0.0
H1339 H 0.6155 0.90048 0.13527 0.0
H1340 H 0.60549 0.88901 0.15538 0.0
H1341 H 0.63082 0.88418 0.14869 0.0
H1342 H 0.6337 0.8523 0.16555 0.0
H1343 H 0.63191 0.84764 0.1983 0.0
H1344 H 0.58548 0.6458 0.54107 0.0
H1345 H 0.58444 0.65439 0.57318 0.0
H1346 H 0.64031 0.62367 0.58148 0.0
H1347 H 0.64118 0.61456 0.54958 0.0
H1348 H 0.6115 0.61476 0.60749 0.0
H1349 H 0.61963 0.69658 0.59803 0.0
H1350 H 0.59944 0.68558 0.58554 0.0
H1351 H 0.62476 0.67884 0.58027 0.0
C1352 C 0.59744 0.64071 0.54976 0.0
C1353 C 0.61347 0.62958 0.54273 0.0
C1354 C 0.59695 0.64583 0.56806 0.0
C1355 C 0.61248 0.63996 0.57963 0.0
C1356 C 0.62827 0.6285 0.57274 0.0
H1357 H 0.6336 0.68547 0.68858 0.0
H1358 H 0.63764 0.67526 0.65697 0.0
C1359 C 0.6288 0.62342 0.55447 0.0
C1360 C 0.61221 0.64549 0.59899 0.0
H1361 H 0.61211 0.68537 0.62769 0.0
C1362 C 0.6117 0.63019 0.61192 0.0
C1363 C 0.61282 0.66563 0.60472 0.0
C1364 C 0.61438 0.68263 0.59145 0.0
C1365 C 0.61126 0.6345 0.63045 0.0
C1366 C 0.61109 0.65465 0.63616 0.0
C1367 C 0.61212 0.66994 0.62326 0.0
C1368 C 0.60913 0.66016 0.65544 0.0
C1369 C 0.6111 0.61747 0.64377 0.0
C1370 C 0.59177 0.65509 0.66497 0.0
C1371 C 0.58947 0.66084 0.68294 0.0
C1372 C 0.60444 0.67188 0.69177 0.0
C1373 C 0.62191 0.67681 0.68222 0.0
C1374 C 0.62418 0.6711 0.66416 0.0
H1375 H 0.61669 0.60341 0.63761 0.0
H1376 H 0.62037 0.62099 0.65578 0.0
H1377 H 0.59555 0.61485 0.64839 0.0
H1378 H 0.57986 0.6469 0.65842 0.0
H1379 H 0.57594 0.65659 0.68994 0.0
H1380 H 0.60407 0.31588 0.949 0.0
H1381 H 0.61394 0.31614 0.91726 0.0
H1382 H 0.58333 0.37214 0.90972 0.0
H1383 H 0.57289 0.37182 0.94126 0.0
H1384 H 0.58634 0.31926 0.886 0.0
H1385 H 0.64188 0.3807 0.89034 0.0
H1386 H 0.63397 0.36651 0.9098 0.0
H1387 H 0.61809 0.38564 0.9007 0.0
C1388 C 0.59928 0.3282 0.94062 0.0
C1389 C 0.58767 0.34385 0.94778 0.0
C1390 C 0.60505 0.32835 0.9225 0.0
C1391 C 0.59952 0.34425 0.91129 0.0
C1392 C 0.58799 0.35989 0.91831 0.0
H1393 H 0.6103 0.38236 0.80214 0.0
H1394 H 0.60492 0.37784 0.83442 0.0
C1395 C 0.58211 0.35971 0.93637 0.0
C1396 C 0.60529 0.34431 0.89206 0.0
H1397 H 0.63234 0.37028 0.86097 0.0
C1398 C 0.59656 0.33025 0.88048 0.0
C1399 C 0.61862 0.35867 0.88506 0.0
C1400 C 0.62885 0.37367 0.8971 0.0
C1401 C 0.60015 0.33073 0.86183 0.0
C1402 C 0.61317 0.3454 0.85474 0.0
C1403 C 0.62235 0.35908 0.86645 0.0
C1404 C 0.61654 0.3477 0.83511 0.0
C1405 C 0.5893 0.31613 0.84981 0.0
C1406 C 0.62498 0.33227 0.82479 0.0
C1407 C 0.62803 0.33481 0.80625 0.0
C1408 C 0.62294 0.35293 0.79783 0.0
C1409 C 0.61466 0.36836 0.80827 0.0
C1410 C 0.61149 0.36577 0.82671 0.0
H1411 H 0.57649 0.30902 0.85684 0.0
H1412 H 0.58369 0.32363 0.83744 0.0
H1413 H 0.59978 0.30415 0.84564 0.0
H1414 H 0.62937 0.31836 0.83109 0.0
H1415 H 0.63466 0.32277 0.79857 0.0
H1416 H 0.9204 0.37443 0.20679 0.0
H1417 H 0.92236 0.37919 0.17412 0.0
H1418 H 0.87763 0.3336 0.16653 0.0
H1419 H 0.8754 0.3291 0.19925 0.0
H1420 H 0.93477 0.35118 0.15137 0.0
H1421 H 0.85895 0.37547 0.13114 0.0
H1422 H 0.86729 0.37585 0.15431 0.0
H1423 H 0.85862 0.35297 0.14428 0.0
C1424 C 0.91079 0.36566 0.19814 0.0
C1425 C 0.89782 0.35134 0.2055 0.0
C1426 C 0.91185 0.36843 0.17951 0.0
C1427 C 0.90002 0.35689 0.16788 0.0
C1428 C 0.88655 0.34303 0.17524 0.0
H1429 H 0.93119 0.32008 0.06083 0.0
H1430 H 0.92341 0.3232 0.0928 0.0
C1431 C 0.88533 0.3404 0.19393 0.0
C1432 C 0.90345 0.35776 0.14815 0.0
H1433 H 0.88016 0.36317 0.10744 0.0
C1434 C 0.92285 0.35403 0.14179 0.0
C1435 C 0.88795 0.36167 0.13566 0.0
C1436 C 0.86708 0.36692 0.14169 0.0
C1437 C 0.92708 0.35352 0.1233 0.0
C1438 C 0.91138 0.35634 0.1108 0.0
C1439 C 0.8921 0.36074 0.11709 0.0
C1440 C 0.91474 0.35426 0.09118 0.0
C1441 C 0.94835 0.34999 0.11732 0.0
C1442 C 0.91174 0.37052 0.07956 0.0
C1443 C 0.91595 0.36872 0.06115 0.0
C1444 C 0.92314 0.35059 0.05405 0.0
C1445 C 0.92556 0.33421 0.06573 0.0
C1446 C 0.92132 0.33602 0.08408 0.0
H1447 H 0.95919 0.35379 0.12813 0.0
H1448 H 0.95031 0.33396 0.11396 0.0
H1449 H 0.95197 0.35892 0.10513 0.0
H1450 H 0.90651 0.38468 0.0848 0.0
H1451 H 0.91356 0.38152 0.05252 0.0
H1452 H 0.89649 0.68437 0.29953 0.0
H1453 H 0.90292 0.68103 0.33193 0.0
H1454 H 0.87909 0.62126 0.33089 0.0
H1455 H 0.87216 0.62465 0.29867 0.0
H1456 H 0.86464 0.64494 0.35953 0.0
H1457 H 0.94745 0.64669 0.355 0.0
H1458 H 0.93502 0.66721 0.34412 0.0
H1459 H 0.93168 0.64232 0.33563 0.0
C1460 C 0.89248 0.67058 0.30623 0.0
C1461 C 0.88391 0.65474 0.2965 0.0
C1462 C 0.89636 0.66862 0.32469 0.0
C1463 C 0.89176 0.65078 0.33371 0.0
C1464 C 0.8829 0.63508 0.32412 0.0
H1465 H 0.93178 0.61817 0.44199 0.0
H1466 H 0.92379 0.61758 0.40968 0.0
C1467 C 0.87908 0.637 0.30569 0.0
C1468 C 0.89584 0.64856 0.35323 0.0
H1469 H 0.93338 0.64827 0.3844 0.0
C1470 C 0.87967 0.64558 0.36498 0.0
C1471 C 0.91548 0.6491 0.36023 0.0
C1472 C 0.93345 0.65132 0.34811 0.0
C1473 C 0.88259 0.64366 0.38365 0.0
C1474 C 0.90216 0.64495 0.39071 0.0
C1475 C 0.91838 0.64739 0.37892 0.0
C1476 C 0.90607 0.64458 0.41035 0.0
C1477 C 0.86472 0.6402 0.39566 0.0
C1478 C 0.89873 0.65994 0.42136 0.0
C1479 C 0.90323 0.66029 0.43973 0.0
C1480 C 0.91523 0.64533 0.44747 0.0
C1481 C 0.92233 0.62977 0.43646 0.0
C1482 C 0.91789 0.62948 0.41801 0.0
H1483 H 0.85176 0.63436 0.38794 0.0
H1484 H 0.86836 0.62953 0.40665 0.0
H1485 H 0.86022 0.65456 0.40192 0.0
H1486 H 0.88981 0.67188 0.41566 0.0
H1487 H 0.89737 0.67235 0.44788 0.0
H1488 H 0.39366 0.33158 0.44071 0.0
H1489 H 0.38367 0.33596 0.40917 0.0
H1490 H 0.41743 0.39064 0.40652 0.0
H1491 H 0.42783 0.38622 0.43787 0.0
H1492 H 0.36557 0.37231 0.38863 0.0
H1493 H 0.44253 0.34837 0.36967 0.0
H1494 H 0.43195 0.34312 0.39157 0.0
H1495 H 0.44027 0.36788 0.38623 0.0
C1496 C 0.39886 0.34459 0.43345 0.0
C1497 C 0.41175 0.35841 0.44172 0.0
C1498 C 0.39294 0.34719 0.41554 0.0
C1499 C 0.39988 0.36358 0.40563 0.0
C1500 C 0.41191 0.37792 0.41405 0.0
H1501 H 0.41198 0.37419 0.29044 0.0
H1502 H 0.41034 0.38341 0.32236 0.0
C1503 C 0.4178 0.37537 0.43196 0.0
C1504 C 0.3966 0.36437 0.38599 0.0
H1505 H 0.42052 0.35606 0.34618 0.0
C1506 C 0.37755 0.36891 0.37926 0.0
C1507 C 0.41231 0.35987 0.37395 0.0
C1508 C 0.43292 0.3544 0.38061 0.0
C1509 C 0.37382 0.36916 0.36059 0.0
C1510 C 0.3895 0.36433 0.34854 0.0
C1511 C 0.40856 0.35996 0.3554 0.0
C1512 C 0.38665 0.3626 0.3288 0.0
C1513 C 0.35327 0.37473 0.35396 0.0
C1514 C 0.37324 0.34852 0.32166 0.0
C1515 C 0.37396 0.34355 0.30334 0.0
C1516 C 0.38838 0.35228 0.29211 0.0
C1517 C 0.40082 0.36728 0.29898 0.0
C1518 C 0.39986 0.37252 0.31715 0.0
H1519 H 0.34522 0.38409 0.36398 0.0
H1520 H 0.35401 0.38293 0.34096 0.0
H1521 H 0.34441 0.36093 0.35186 0.0
H1522 H 0.36324 0.34033 0.33043 0.0
H1523 H 0.36442 0.33178 0.29827 0.0
H1524 H 0.43201 0.61521 0.05288 0.0
H1525 H 0.42385 0.61448 0.08514 0.0
H1526 H 0.38841 0.6678 0.07889 0.0
H1527 H 0.39615 0.66841 0.04668 0.0
H1528 H 0.43211 0.64537 0.11074 0.0
H1529 H 0.35101 0.62889 0.10592 0.0
H1530 H 0.3681 0.6247 0.08744 0.0
H1531 H 0.35922 0.64945 0.09223 0.0
C1532 C 0.42222 0.62658 0.05833 0.0
C1533 C 0.41472 0.64187 0.04721 0.0
C1534 C 0.41769 0.62622 0.07676 0.0
C1535 C 0.40539 0.64098 0.08434 0.0
C1536 C 0.39772 0.65612 0.07326 0.0
H1537 H 0.39271 0.67656 0.19658 0.0
H1538 H 0.39957 0.6751 0.16412 0.0
C1539 C 0.40231 0.65655 0.05489 0.0
C1540 C 0.40114 0.64108 0.10396 0.0
H1541 H 0.3632 0.63882 0.13469 0.0
C1542 C 0.41707 0.64384 0.11601 0.0
C1543 C 0.38152 0.63894 0.11076 0.0
C1544 C 0.36397 0.63515 0.09845 0.0
C1545 C 0.41384 0.64491 0.13471 0.0
C1546 C 0.39414 0.64337 0.14147 0.0
C1547 C 0.37827 0.64021 0.12944 0.0
C1548 C 0.38974 0.64452 0.16104 0.0
C1549 C 0.43154 0.64742 0.1471 0.0
C1550 C 0.38149 0.628 0.16994 0.0
C1551 C 0.37744 0.62884 0.18841 0.0
C1552 C 0.38142 0.64629 0.19834 0.0
C1553 C 0.38936 0.66296 0.18931 0.0
C1554 C 0.39348 0.66207 0.17081 0.0
H1555 H 0.44583 0.64377 0.14022 0.0
H1556 H 0.4323 0.66318 0.15168 0.0
H1557 H 0.43003 0.6378 0.15923 0.0
H1558 H 0.37834 0.61437 0.1626 0.0
H1559 H 0.37102 0.61586 0.19487 0.0
H1560 H 0.07993 0.6151 0.94015 0.0
H1561 H 0.07985 0.61986 0.90746 0.0
H1562 H 0.13174 0.65766 0.91172 0.0
H1563 H 0.13186 0.6531 0.94446 0.0
H1564 H 0.07671 0.65586 0.88829 0.0
H1565 H 0.14798 0.61681 0.87309 0.0
H1566 H 0.13517 0.61413 0.8944 0.0
H1567 H 0.14986 0.63602 0.88992 0.0
C1568 C 0.09126 0.62452 0.93417 0.0
C1569 C 0.10593 0.6337 0.94493 0.0
C1570 C 0.09126 0.62713 0.91548 0.0
C1571 C 0.10595 0.63886 0.90718 0.0
C1572 C 0.12053 0.64817 0.91784 0.0
H1573 H 0.12787 0.67631 0.797 0.0
H1574 H 0.12905 0.67066 0.82957 0.0
C1575 C 0.12057 0.64555 0.93655 0.0
C1576 C 0.10563 0.64183 0.8874 0.0
H1577 H 0.13269 0.63434 0.84894 0.0
C1578 C 0.08889 0.65109 0.87966 0.0
C1579 C 0.1216 0.63562 0.87623 0.0
C1580 C 0.13961 0.62493 0.88376 0.0
C1581 C 0.0878 0.65457 0.86102 0.0
C1582 C 0.10374 0.64832 0.84984 0.0
C1583 C 0.12051 0.63911 0.85758 0.0
C1584 C 0.10328 0.65122 0.83006 0.0
C1585 C 0.06979 0.66528 0.8535 0.0
C1586 C 0.08862 0.64183 0.81955 0.0
C1587 C 0.08795 0.64495 0.80092 0.0
C1588 C 0.10202 0.65742 0.79246 0.0
C1589 C 0.11694 0.66646 0.80303 0.0
C1590 C 0.11759 0.66334 0.82166 0.0
H1591 H 0.06142 0.67339 0.86418 0.0
H1592 H 0.07424 0.6761 0.84288 0.0
H1593 H 0.05954 0.65421 0.84732 0.0
H1594 H 0.07771 0.63207 0.82575 0.0
H1595 H 0.0765 0.63748 0.79315 0.0
H1596 H 0.08466 0.36879 0.69804 0.0
H1597 H 0.08527 0.3753 0.66555 0.0
H1598 H 0.12977 0.32934 0.65866 0.0
H1599 H 0.12933 0.32288 0.6912 0.0
H1600 H 0.13639 0.36343 0.63701 0.0
H1601 H 0.0585 0.33544 0.63135 0.0
H1602 H 0.06169 0.35579 0.64685 0.0
H1603 H 0.07331 0.33213 0.65146 0.0
C1604 C 0.09465 0.36017 0.6896 0.0
C1605 C 0.10674 0.34514 0.6971 0.0
C1606 C 0.095 0.36391 0.67107 0.0
C1607 C 0.10727 0.35252 0.6597 0.0
C1608 C 0.12015 0.33824 0.66724 0.0
H1609 H 0.09035 0.32437 0.54842 0.0
H1610 H 0.09487 0.32522 0.58094 0.0
C1611 C 0.11992 0.3346 0.68581 0.0
C1612 C 0.10567 0.3545 0.63986 0.0
H1613 H 0.07331 0.34793 0.60481 0.0
C1614 C 0.12261 0.36013 0.62993 0.0
C1615 C 0.0877 0.34993 0.63071 0.0
C1616 C 0.0693 0.34281 0.64058 0.0
C1617 C 0.12205 0.36124 0.611 0.0
C1618 C 0.10401 0.35687 0.60189 0.0
C1619 C 0.08707 0.35141 0.61187 0.0
C1620 C 0.10256 0.35655 0.58196 0.0
C1621 C 0.14089 0.36646 0.60087 0.0
C1622 C 0.10541 0.37393 0.5717 0.0
C1623 C 0.10304 0.37345 0.55294 0.0
C1624 C 0.09765 0.35562 0.54415 0.0
C1625 C 0.09486 0.33828 0.55457 0.0
C1626 C 0.09729 0.33876 0.57324 0.0
H1627 H 0.15437 0.36516 0.60955 0.0
H1628 H 0.1428 0.35663 0.58893 0.0
H1629 H 0.13988 0.3821 0.59602 0.0
H1630 H 0.10916 0.3879 0.57822 0.0
H1631 H 0.10544 0.38704 0.54535 0.0
H1632 H 0.92853 0.29999 0.29209 0.0
H1633 H 0.96306 0.28816 0.29427 0.0
H1634 H 0.95601 0.25594 0.24433 0.0
H1635 H 0.92147 0.26746 0.24213 0.0
H1636 H 0.977 0.23444 0.27052 0.0
H1637 H 0.0077 0.31097 0.26225 0.0
H1638 H 0.99049 0.30788 0.28064 0.0
H1639 H 0.98186 0.30507 0.25784 0.0
C1640 C 0.93419 0.29014 0.2817 0.0
C1641 C 0.9222 0.2848 0.26685 0.0
C1642 C 0.95403 0.28354 0.28289 0.0
C1643 C 0.96227 0.27151 0.26926 0.0
C1644 C 0.95003 0.26533 0.25494 0.0
H1645 H 0.08301 0.24911 0.23467 0.0
H1646 H 0.04908 0.26151 0.23955 0.0
C1647 C 0.93025 0.27193 0.25372 0.0
C1648 C 0.98376 0.26581 0.26949 0.0
H1649 H 0.03101 0.28494 0.26648 0.0
C1650 C 0.98883 0.24548 0.26977 0.0
C1651 C 0.99917 0.28023 0.26824 0.0
C1652 C 0.99463 0.30226 0.26706 0.0
C1653 C 0.00883 0.23916 0.26876 0.0
C1654 C 0.02426 0.25358 0.2677 0.0
C1655 C 0.0192 0.27392 0.26748 0.0
C1656 C 0.04561 0.24775 0.26577 0.0
C1657 C 0.01324 0.21706 0.26822 0.0
C1658 C 0.05526 0.23653 0.27919 0.0
C1659 C 0.0747 0.22942 0.27646 0.0
C1660 C 0.08493 0.23344 0.26025 0.0
C1661 C 0.07562 0.24566 0.24729 0.0
C1662 C 0.05617 0.25275 0.25004 0.0
H1663 H 0.99969 0.20815 0.26507 0.0
H1664 H 0.02488 0.21367 0.25799 0.0
H1665 H 0.0189 0.21221 0.28159 0.0
H1666 H 0.04757 0.23285 0.29161 0.0
H1667 H 0.08142 0.22021 0.28681 0.0
H1668 H 0.9696 0.67115 0.53883 0.0
H1669 H 0.98068 0.70564 0.54272 0.0
H1670 H 0.00775 0.70437 0.48996 0.0
H1671 H 0.99687 0.66982 0.48596 0.0
H1672 H 0.03103 0.72416 0.51605 0.0
H1673 H 0.95262 0.7515 0.51584 0.0
H1674 H 0.95816 0.73289 0.53257 0.0
H1675 H 0.95927 0.72649 0.50905 0.0
C1676 C 0.97813 0.67807 0.52812 0.0
C1677 C 0.98212 0.66772 0.51198 0.0
C1678 C 0.98435 0.69786 0.53034 0.0
C1679 C 0.99463 0.70774 0.51646 0.0
C1680 C 0.99969 0.6971 0.50079 0.0
H1681 H 0.00828 0.83195 0.49004 0.0
H1682 H 0.99801 0.79712 0.49312 0.0
C1683 C 0.99348 0.6773 0.49855 0.0
C1684 C 0.99938 0.72936 0.51785 0.0
H1685 H 0.97786 0.7756 0.52023 0.0
C1686 C 0.01943 0.73541 0.51708 0.0
C1687 C 0.98418 0.74404 0.51895 0.0
C1688 C 0.96233 0.7385 0.519 0.0
C1689 C 0.02471 0.75572 0.51734 0.0
C1690 C 0.00952 0.77039 0.51864 0.0
C1691 C 0.98948 0.76434 0.51945 0.0
C1692 C 0.01413 0.79209 0.51801 0.0
C1693 C 0.04645 0.76134 0.51561 0.0
C1694 C 0.02597 0.80109 0.53136 0.0
C1695 C 0.03185 0.82107 0.52966 0.0
C1696 C 0.02597 0.83244 0.51458 0.0
C1697 C 0.01316 0.82366 0.50179 0.0
C1698 C 0.00728 0.80371 0.50351 0.0
H1699 H 0.05572 0.74863 0.51085 0.0
H1700 H 0.04835 0.77401 0.50609 0.0
H1701 H 0.05219 0.76608 0.52898 0.0
H1702 H 0.03109 0.79252 0.54285 0.0
H1703 H 0.04166 0.82731 0.53981 0.0
H1704 H 0.41323 0.78891 0.78493 0.0
H1705 H 0.44784 0.77767 0.78717 0.0
H1706 H 0.44709 0.7611 0.73097 0.0
H1707 H 0.41255 0.77274 0.72847 0.0
H1708 H 0.46651 0.74147 0.78073 0.0
H1709 H 0.49434 0.79946 0.73344 0.0
H1710 H 0.46947 0.80008 0.74283 0.0
H1711 H 0.47516 0.7837 0.72431 0.0
C1712 C 0.42032 0.78276 0.77304 0.0
C1713 C 0.41012 0.78201 0.75645 0.0
C1714 C 0.44015 0.77632 0.77436 0.0
C1715 C 0.45024 0.76901 0.75913 0.0
C1716 C 0.43978 0.76718 0.74279 0.0
H1717 H 0.57269 0.72815 0.74277 0.0
H1718 H 0.5377 0.738 0.73891 0.0
C1719 C 0.41994 0.77366 0.74144 0.0
C1720 C 0.47179 0.76373 0.76034 0.0
H1721 H 0.51795 0.77577 0.74381 0.0
C1722 C 0.47776 0.74898 0.77267 0.0
C1723 C 0.48648 0.77359 0.74984 0.0
C1724 C 0.48113 0.79022 0.73697 0.0
C1725 C 0.49795 0.74367 0.77466 0.0
C1726 C 0.51263 0.75359 0.76423 0.0
C1727 C 0.50667 0.76821 0.75179 0.0
C1728 C 0.53423 0.74899 0.76618 0.0
C1729 C 0.50341 0.72726 0.78772 0.0
C1730 C 0.54411 0.75258 0.78256 0.0
C1731 C 0.56409 0.74697 0.78481 0.0
C1732 C 0.5746 0.7376 0.77071 0.0
C1733 C 0.56495 0.73498 0.754 0.0
C1734 C 0.54497 0.74066 0.75175 0.0
H1735 H 0.49026 0.718 0.79138 0.0
H1736 H 0.51513 0.7174 0.78195 0.0
H1737 H 0.50941 0.734 0.80027 0.0
H1738 H 0.53622 0.75939 0.79375 0.0
H1739 H 0.57102 0.7493 0.79784 0.0
H1740 H 0.4259 0.18544 0.98738 0.0
H1741 H 0.44492 0.21647 0.98889 0.0
H1742 H 0.48221 0.19113 0.0305 0.0
H1743 H 0.46349 0.1597 0.0286 0.0
H1744 H 0.44702 0.24106 0.01662 0.0
H1745 H 0.5238 0.21687 -0.00061 0.0
H1746 H 0.50234 0.20111 0.99576 0.0
H1747 H 0.51345 0.20295 0.01782 0.0
C1748 C 0.43846 0.18632 0.99657 0.0
C1749 C 0.44328 0.1701 0.00781 0.0
C1750 C 0.44927 0.20412 -0.00252 0.0
C1751 C 0.46511 0.20623 0.00973 0.0
C1752 C 0.47036 0.18981 0.02063 0.0
H1753 H 0.53466 0.30334 0.05128 0.0
H1754 H 0.5145 0.27356 0.04627 0.0
C1755 C 0.45966 0.17181 0.01955 0.0
C1756 C 0.47504 0.22604 0.01188 0.0
H1757 H 0.52045 0.24936 0.01239 0.0
C1758 C 0.46307 0.24288 0.01549 0.0
C1759 C 0.49598 0.22853 0.01036 0.0
C1760 C 0.50962 0.21145 0.00544 0.0
C1761 C 0.47149 0.26191 0.01808 0.0
C1762 C 0.49241 0.26422 0.01703 0.0
C1763 C 0.50438 0.24752 0.01321 0.0
C1764 C 0.50237 0.28359 0.02082 0.0
C1765 C 0.45809 0.27935 0.02243 0.0
C1766 C 0.50173 0.29948 0.00842 0.0
C1767 C 0.51332 0.3167 0.01126 0.0
C1768 C 0.52574 0.31816 0.02651 0.0
C1769 C 0.52533 0.30267 0.03935 0.0
C1770 C 0.51387 0.28558 0.0365 0.0
H1771 H 0.44234 0.27472 0.02461 0.0
H1772 H 0.46353 0.28713 0.03471 0.0
H1773 H 0.45852 0.29022 0.01113 0.0
H1774 H 0.493 0.29818 0.99617 0.0
H1775 H 0.51348 0.32824 0.00102 0.0
H1776 H 0.94153 0.69397 0.26172 0.0
H1777 H 0.97111 0.71503 0.26235 0.0
H1778 H 0.93925 0.76114 0.2337 0.0
H1779 H 0.90933 0.73978 0.23275 0.0
H1780 H 0.97686 0.75261 0.21883 0.0
H1781 H 0.98351 0.76399 0.29256 0.0
H1782 H 0.98141 0.73815 0.28653 0.0
H1783 H 0.96092 0.75487 0.28214 0.0
C1784 C 0.94063 0.70871 0.25575 0.0
C1785 C 0.923 0.71519 0.24721 0.0
C1786 C 0.9576 0.72079 0.25621 0.0
C1787 C 0.95742 0.73978 0.24826 0.0
C1788 C 0.93972 0.74657 0.24001 0.0
H1789 H 0.05152 0.82725 0.2609 0.0
H1790 H 0.0209 0.80775 0.26157 0.0
C1791 C 0.92258 0.73443 0.2396 0.0
C1792 C 0.97611 0.75188 0.24786 0.0
H1793 H 0.01248 0.77142 0.27499 0.0
C1794 C 0.98457 0.75688 0.23111 0.0
C1795 C 0.98618 0.75753 0.26387 0.0
C1796 C 0.97745 0.75354 0.28229 0.0
C1797 C 0.00296 0.76703 0.22993 0.0
C1798 C 0.01339 0.77201 0.24595 0.0
C1799 C 0.00471 0.76733 0.26269 0.0
C1800 C 0.03262 0.78328 0.24574 0.0
C1801 C 0.01086 0.77263 0.21156 0.0
C1802 C 0.04975 0.77587 0.23696 0.0
C1803 C 0.06749 0.78712 0.23651 0.0
C1804 C 0.06839 0.80593 0.24491 0.0
C1805 C 0.0514 0.8129 0.25417 0.0
C1806 C 0.0338 0.80174 0.2546 0.0
H1807 H 0.99898 0.77214 0.2011 0.0
H1808 H 0.01745 0.78784 0.21172 0.0
H1809 H 0.02273 0.76193 0.2076 0.0
H1810 H 0.04939 0.76146 0.23037 0.0
H1811 H 0.08029 0.7813 0.22927 0.0
H1812 H 0.58819 0.69133 0.49937 0.0
H1813 H 0.56814 0.72148 0.49928 0.0
H1814 H 0.51814 0.6886 0.4778 0.0
H1815 H 0.53858 0.65807 0.47729 0.0
H1816 H 0.52379 0.72245 0.45946 0.0
H1817 H 0.52496 0.741 0.53188 0.0
H1818 H 0.54993 0.73749 0.52379 0.0
H1819 H 0.53262 0.71687 0.52355 0.0
C1820 C 0.57285 0.69032 0.49481 0.0
C1821 C 0.56501 0.6722 0.48832 0.0
C1822 C 0.5613 0.70765 0.49495 0.0
C1823 C 0.54147 0.70734 0.48888 0.0
C1824 C 0.53337 0.68919 0.4827 0.0
H1825 H 0.47333 0.81889 0.49916 0.0
H1826 H 0.48499 0.78459 0.50277 0.0
C1827 C 0.54502 0.67173 0.48249 0.0
C1828 C 0.53002 0.72639 0.48775 0.0
H1829 H 0.51927 0.76876 0.51153 0.0
C1830 C 0.52251 0.73244 0.47093 0.0
C1831 C 0.52796 0.73936 0.50274 0.0
C1832 C 0.53411 0.73323 0.52153 0.0
C1833 C 0.51397 0.75143 0.46848 0.0
C1834 C 0.51348 0.76504 0.48312 0.0
C1835 C 0.52001 0.75858 0.50017 0.0
C1836 C 0.50652 0.78606 0.48102 0.0
C1837 C 0.50552 0.75664 0.4502 0.0
C1838 C 0.51509 0.79863 0.46796 0.0
C1839 C 0.5082 0.8182 0.46567 0.0
C1840 C 0.49277 0.82579 0.47659 0.0
C1841 C 0.4849 0.81349 0.49025 0.0
C1842 C 0.49164 0.79384 0.49239 0.0
H1843 H 0.50089 0.74304 0.44271 0.0
H1844 H 0.49243 0.76675 0.45138 0.0
H1845 H 0.51718 0.76424 0.44207 0.0
H1846 H 0.52711 0.79329 0.45945 0.0
H1847 H 0.51482 0.82727 0.45516 0.0
H1848 H 0.4458 0.20043 0.76319 0.0
H1849 H 0.47372 0.2236 0.76364 0.0
H1850 H 0.43904 0.26644 0.73353 0.0
H1851 H 0.41075 0.24288 0.73278 0.0
H1852 H 0.47737 0.26015 0.71928 0.0
H1853 H 0.48233 0.27419 0.79266 0.0
H1854 H 0.48189 0.24804 0.7875 0.0
H1855 H 0.4605 0.26329 0.78229 0.0
C1856 C 0.44391 0.21489 0.75685 0.0
C1857 C 0.42599 0.21982 0.74797 0.0
C1858 C 0.45993 0.22819 0.75722 0.0
C1859 C 0.45848 0.24688 0.74883 0.0
C1860 C 0.44046 0.25213 0.74021 0.0
H1861 H 0.5521 0.33615 0.7611 0.0
H1862 H 0.52099 0.31733 0.76166 0.0
C1863 C 0.42426 0.23875 0.73991 0.0
C1864 C 0.47631 0.26018 0.74831 0.0
H1865 H 0.51163 0.28169 0.77533 0.0
C1866 C 0.48474 0.26508 0.73152 0.0
C1867 C 0.48591 0.26674 0.76427 0.0
C1868 C 0.47708 0.26297 0.78269 0.0
C1869 C 0.50279 0.27579 0.73029 0.0
C1870 C 0.51292 0.28145 0.74629 0.0
C1871 C 0.50412 0.27709 0.76305 0.0
C1872 C 0.53227 0.29251 0.74601 0.0
C1873 C 0.51071 0.28113 0.71185 0.0
C1874 C 0.54928 0.28468 0.73736 0.0
C1875 C 0.56724 0.29551 0.73695 0.0
C1876 C 0.56857 0.31432 0.74532 0.0
C1877 C 0.55168 0.32177 0.75444 0.0
C1878 C 0.53379 0.31101 0.75478 0.0
H1879 H 0.49876 0.28069 0.70146 0.0
H1880 H 0.51751 0.29625 0.71185 0.0
H1881 H 0.52237 0.27019 0.70792 0.0
H1882 H 0.54867 0.27021 0.73089 0.0
H1883 H 0.57994 0.28929 0.72985 0.0
H1884 H 0.07373 0.18081 0.01453 0.0
H1885 H 0.05633 0.2128 0.01395 0.0
H1886 H 0.01903 0.19171 0.97051 0.0
H1887 H 0.03625 0.15927 0.97135 0.0
H1888 H 0.0572 0.2377 0.98508 0.0
H1889 H 0.97849 0.21987 0.00263 0.0
H1890 H 0.99876 0.20266 0.00673 0.0
H1891 H 0.98881 0.20556 0.98437 0.0
C1892 C 0.06147 0.18279 0.00516 0.0
C1893 C 0.05632 0.16753 0.99302 0.0
C1894 C 0.05159 0.20113 0.00478 0.0
C1895 C 0.03636 0.20475 0.99219 0.0
C1896 C 0.0305 0.18921 0.98055 0.0
H1897 H 0.97472 0.31786 0.96933 0.0
H1898 H 0.98814 0.28397 0.96679 0.0
C1899 C 0.04032 0.17065 0.98105 0.0
C1900 C 0.02809 0.22534 0.99045 0.0
H1901 H 0.98548 0.25323 0.99421 0.0
C1902 C 0.0415 0.24105 0.98707 0.0
C1903 C 0.00759 0.22975 0.99286 0.0
C1904 C 0.99255 0.21363 0.99699 0.0
C1905 C 0.03507 0.261 0.98633 0.0
C1906 C 0.01469 0.26547 0.98921 0.0
C1907 C 1.00113 0.24976 0.99204 0.0
C1908 C 0.00735 0.28641 0.99013 0.0
C1909 C 0.05016 0.27716 0.98245 0.0
C1910 C 0.01382 0.29913 0.00401 0.0
C1911 C 0.00619 0.31852 0.00552 0.0
C1912 C 0.99192 0.32564 0.99315 0.0
C1913 C 0.98583 0.313 0.97899 0.0
C1914 C 0.99337 0.29354 0.97758 0.0
H1915 H 0.06387 0.27105 0.97604 0.0
H1916 H 0.04373 0.28878 0.97347 0.0
H1917 H 0.05455 0.28441 0.99531 0.0
H1918 H 0.02442 0.29387 0.01398 0.0
H1919 H 0.01113 0.32776 0.01665 0.0
H1920 H 0.91776 0.78473 0.70683 0.0
H1921 H 0.9514 0.77095 0.70294 0.0
H1922 H 0.95683 0.76421 0.76061 0.0
H1923 H 0.9231 0.77728 0.76454 0.0
H1924 H 0.98653 0.78487 0.71424 0.0
H1925 H 0.9749 0.7103 0.74476 0.0
H1926 H 0.95441 0.72673 0.7394 0.0
H1927 H 0.96844 0.73013 0.7599 0.0
C1928 C 0.926 0.78 0.71866 0.0
C1929 C 0.91762 0.78194 0.73598 0.0
C1930 C 0.94528 0.7722 0.71643 0.0
C1931 C 0.95664 0.76624 0.73146 0.0
C1932 C 0.94825 0.76814 0.74875 0.0
H1933 H 0.07863 0.71977 0.74243 0.0
H1934 H 0.04808 0.73933 0.74786 0.0
C1935 C 0.92891 0.77569 0.75098 0.0
C1936 C 0.97747 0.75873 0.7291 0.0
H1937 H 0.00854 0.71965 0.73894 0.0
C1938 C 0.99129 0.77058 0.71961 0.0
C1939 C 0.9838 0.74007 0.73611 0.0
C1940 C 0.96956 0.72599 0.74544 0.0
C1941 C 0.01115 0.76431 0.717 0.0
C1942 C 0.01742 0.74577 0.7241 0.0
C1943 C 0.00375 0.73402 0.73375 0.0
C1944 C 0.03752 0.73735 0.72033 0.0
C1945 C 0.02536 0.7775 0.70666 0.0
C1946 C 0.04193 0.73025 0.70298 0.0
C1947 C 0.05919 0.71901 0.69992 0.0
C1948 C 0.07252 0.71485 0.71409 0.0
C1949 C 0.06883 0.72312 0.73119 0.0
C1950 C 0.05131 0.73412 0.73434 0.0
H1951 H 0.01951 0.79294 0.70517 0.0
H1952 H 0.04011 0.77809 0.71349 0.0
H1953 H 0.02768 0.77117 0.69298 0.0
H1954 H 0.0314 0.73235 0.69204 0.0
H1955 H 0.06157 0.71261 0.68666 0.0
H1956 H 0.0479 0.32789 0.45529 0.0
H1957 H 0.03544 0.29381 0.45173 0.0
H1958 H 0.00538 0.29814 0.50303 0.0
H1959 H 0.0176 0.33225 0.50664 0.0
H1960 H 0.04399 0.26213 0.47456 0.0
H1961 H 0.96223 0.27426 0.47063 0.0
H1962 H 0.98005 0.29418 0.46741 0.0
H1963 H 0.97357 0.28609 0.4898 0.0
C1964 C 0.03832 0.32178 0.46567 0.0
C1965 C 0.03376 0.33289 0.48126 0.0
C1966 C 0.03127 0.30223 0.46363 0.0
C1967 C 0.01935 0.29343 0.47704 0.0
C1968 C 0.01426 0.30469 0.49234 0.0
H1969 H 1.00148 0.17034 0.5062 0.0
H1970 H 0.01367 0.20441 0.50219 0.0
C1971 C 0.02133 0.32422 0.49442 0.0
C1972 C 0.01341 0.27208 0.47568 0.0
H1973 H 0.97307 0.24088 0.47657 0.0
C1974 C 0.02847 0.25749 0.47481 0.0
C1975 C 0.99317 0.26601 0.47581 0.0
C1976 C 0.9763 0.28095 0.47578 0.0
C1977 C 0.02386 0.23701 0.47471 0.0
C1978 C 0.00366 0.23093 0.47572 0.0
C1979 C 0.98857 0.24553 0.47594 0.0
C1980 C 0.9978 0.20956 0.47717 0.0
C1981 C 0.04068 0.22207 0.47349 0.0
C1982 C 0.98487 0.20102 0.46442 0.0
C1983 C 0.97784 0.1815 0.46669 0.0
C1984 C 0.98344 0.17015 0.48187 0.0
C1985 C 0.99693 0.17855 0.4943 0.0
C1986 C 0.00398 0.19805 0.492 0.0
H1987 H 0.05435 0.22884 0.46759 0.0
H1988 H 0.04443 0.21672 0.48725 0.0
H1989 H 0.03632 0.20898 0.46519 0.0
H1990 H 0.97986 0.20963 0.4529 0.0
H1991 H 0.96744 0.1756 0.45686 0.0
H1992 H 0.43416 0.27788 0.18544 0.0
H1993 H 0.46691 0.26294 0.19108 0.0
H1994 H 0.45876 0.27109 0.2483 0.0
H1995 H 0.42591 0.28601 0.24283 0.0
H1996 H 0.49694 0.28502 0.23389 0.0
H1997 H 0.47875 0.20726 0.21348 0.0
H1998 H 0.47201 0.22637 0.19757 0.0
H1999 H 0.45973 0.22536 0.21909 0.0
C2000 C 0.43918 0.2763 0.19926 0.0
C2001 C 0.42734 0.28321 0.21367 0.0
C2002 C 0.45794 0.26775 0.20245 0.0
C2003 C 0.46528 0.26589 0.22011 0.0
C2004 C 0.45341 0.27245 0.23455 0.0
H2005 H 0.56182 0.19412 0.25966 0.0
H2006 H 0.53119 0.21311 0.25502 0.0
C2007 C 0.43457 0.28089 0.23139 0.0
C2008 C 0.48544 0.25732 0.22347 0.0
H2009 H 0.51253 0.21427 0.22011 0.0
C2010 C 0.50039 0.26956 0.23087 0.0
C2011 C 0.48987 0.23714 0.21957 0.0
C2012 C 0.47425 0.22316 0.21212 0.0
C2013 C 0.51969 0.26213 0.23442 0.0
C2014 C 0.52411 0.24197 0.23044 0.0
C2015 C 0.50915 0.22977 0.22304 0.0
C2016 C 0.54372 0.23271 0.23482 0.0
C2017 C 0.53509 0.27568 0.24278 0.0
C2018 C 0.56123 0.23784 0.22539 0.0
C2019 C 0.57896 0.22696 0.22807 0.0
C2020 C 0.57932 0.21073 0.24012 0.0
C2021 C 0.56204 0.20646 0.25021 0.0
C2022 C 0.54447 0.21728 0.24756 0.0
H2023 H 0.52846 0.28994 0.24756 0.0
H2024 H 0.54251 0.26814 0.25432 0.0
H2025 H 0.54675 0.27919 0.23262 0.0
H2026 H 0.56094 0.24959 0.21535 0.0
H2027 H 0.59194 0.23047 0.21995 0.0
H2028 H 0.54742 0.8221 0.95925 0.0
H2029 H 0.53635 0.78742 0.95673 0.0
H2030 H 0.50142 0.79412 0.00522 0.0
H2031 H 0.51232 0.82883 0.00783 0.0
H2032 H 0.54325 0.75737 0.98283 0.0
H2033 H 0.46226 0.7674 0.96981 0.0
H2034 H 0.48018 0.78726 0.96674 0.0
H2035 H 0.47142 0.78103 0.98896 0.0
C2036 C 0.53707 0.81636 0.9692 0.0
C2037 C 0.53073 0.82834 0.98374 0.0
C2038 C 0.53085 0.79646 0.96778 0.0
C2039 C 0.51796 0.78819 0.98071 0.0
C2040 C 0.51113 0.80025 0.99493 0.0
H2041 H 0.49698 0.6659 0.01264 0.0
H2042 H 0.50925 0.70007 0.00927 0.0
C2043 C 0.51743 0.82011 0.99642 0.0
C2044 C 0.51261 0.76665 0.97999 0.0
H2045 H 0.47298 0.73463 0.97771 0.0
C2046 C 0.5279 0.75238 0.98157 0.0
C2047 C 0.49261 0.76014 0.97818 0.0
C2048 C 0.47566 0.77473 0.97566 0.0
C2049 C 0.52367 0.73182 0.98192 0.0
C2050 C 0.5036 0.72534 0.98079 0.0
C2051 C 0.48836 0.73959 0.97869 0.0
C2052 C 0.49796 0.70391 0.98214 0.0
C2053 C 0.54072 0.71718 0.9834 0.0
C2054 C 0.48767 0.69459 0.96796 0.0
C2055 C 0.48067 0.67501 0.96982 0.0
C2056 C 0.48357 0.66439 0.98601 0.0
C2057 C 0.49453 0.67354 -5e-05 0.0
C2058 C 0.5016 0.69311 -0.00196 0.0
H2059 H 0.55516 0.72404 0.97938 0.0
H2060 H 0.54208 0.71215 -0.00239 0.0
H2061 H 0.53802 0.70384 0.97485 0.0
H2062 H 0.48469 0.70263 0.95556 0.0
H2063 H 0.47239 0.6685 0.95876 0.0
H2064 H 0.93454 0.19073 0.73112 0.0
H2065 H 0.96489 0.21087 0.73225 0.0
H2066 H 0.9397 0.24608 0.77531 0.0
H2067 H 0.90896 0.22583 0.77417 0.0
H2068 H 0.97133 0.25428 0.72984 0.0
H2069 H 0.99296 0.2209 0.7959 0.0
H2070 H 0.97434 0.20961 0.78154 0.0
H2071 H 0.96849 0.23186 0.79391 0.0
C2072 C 0.93528 0.20301 0.74061 0.0
C2073 C 0.9194 0.2067 0.75257 0.0
C2074 C 0.95265 0.2145 0.74125 0.0
C2075 C 0.95469 0.22978 0.75402 0.0
C2076 C 0.93849 0.2342 0.76546 0.0
H2077 H 0.06789 0.29042 0.77929 0.0
H2078 H 0.03335 0.27855 0.78047 0.0
C2079 C 0.92089 0.22279 0.76468 0.0
C2080 C 0.97427 0.24009 0.75574 0.0
H2081 H 0.01651 0.24152 0.78166 0.0
C2082 C 0.98113 0.25171 0.74126 0.0
C2083 C 0.98703 0.23671 0.77066 0.0
C2084 C 0.98051 0.22402 0.78641 0.0
C2085 C 1.00053 0.25976 0.74115 0.0
C2086 C 0.01367 0.25559 0.75567 0.0
C2087 C 0.00653 0.24458 0.77046 0.0
C2088 C 0.035 0.262 0.75545 0.0
C2089 C 0.00672 0.2727 0.72544 0.0
C2090 C 0.04772 0.2561 0.74133 0.0
C2091 C 0.06748 0.26289 0.7406 0.0
C2092 C 0.07509 0.27554 0.75409 0.0
C2093 C 0.0626 0.28068 0.76867 0.0
C2094 C 0.04278 0.27396 0.76934 0.0
H2095 H 0.99355 0.27953 0.7187 0.0
H2096 H 0.01695 0.2848 0.72982 0.0
H2097 H 0.01459 0.26337 0.71531 0.0
H2098 H 0.04229 0.24639 0.73074 0.0
H2099 H 0.07667 0.25849 0.72925 0.0
H2100 H 0.47379 0.32085 0.52531 0.0
H2101 H 0.48651 0.28668 0.52707 0.0
H2102 H 0.51383 0.29339 0.47475 0.0
H2103 H 0.50135 0.32761 0.47292 0.0
H2104 H 0.47714 0.25579 0.50358 0.0
H2105 H 0.55892 0.2688 0.50456 0.0
H2106 H 0.54103 0.28835 0.50912 0.0
H2107 H 0.54628 0.28104 0.48626 0.0
C2108 C 0.48281 0.31524 0.5143 0.0
C2109 C 0.48654 0.32708 0.49897 0.0
C2110 C 0.49001 0.29562 0.51531 0.0
C2111 C 0.50125 0.28747 0.50111 0.0
C2112 C 0.50549 0.29943 0.48602 0.0
H2113 H 0.51897 0.16185 0.47481 0.0
H2114 H 0.50786 0.19667 0.47611 0.0
C2115 C 0.49827 0.31902 0.48498 0.0
C2116 C 0.50751 0.26612 0.50158 0.0
H2117 H 0.54822 0.23538 0.49939 0.0
C2118 C 0.49269 0.25133 0.50275 0.0
C2119 C 0.52781 0.26028 0.50067 0.0
C2120 C 0.54446 0.27543 0.50025 0.0
C2121 C 0.49758 0.2309 0.50269 0.0
C2122 C 0.51783 0.22505 0.50116 0.0
C2123 C 0.53268 0.23985 0.50036 0.0
C2124 C 0.52399 0.20369 0.50061 0.0
C2125 C 0.48103 0.21576 0.50451 0.0
C2126 C 0.5369 0.19604 0.51383 0.0
C2127 C 0.54331 0.17617 0.5131 0.0
C2128 C 0.53709 0.16349 0.49903 0.0
C2129 C 0.52398 0.17112 0.48589 0.0
C2130 C 0.51756 0.19104 0.48664 0.0
H2131 H 0.46723 0.22252 0.51019 0.0
H2132 H 0.47737 0.20968 0.49098 0.0
H2133 H 0.48568 0.20314 0.51327 0.0
H2134 H 0.54206 0.20548 0.52475 0.0
H2135 H 0.55323 0.17079 0.52357 0.0
H2136 H 0.43787 0.68483 0.23725 0.0
H2137 H 0.46725 0.70579 0.24003 0.0
H2138 H 0.43251 0.75019 0.26824 0.0
H2139 H 0.40285 0.72862 0.26611 0.0
H2140 H 0.47802 0.74164 0.22942 0.0
H2141 H 0.4761 0.73988 0.3044 0.0
H2142 H 0.45978 0.7247 0.29079 0.0
H2143 H 0.45454 0.7508 0.29391 0.0
C2144 C 0.43633 0.69912 0.24395 0.0
C2145 C 0.41803 0.7049 0.25169 0.0
C2146 C 0.45322 0.71117 0.24547 0.0
C2147 C 0.45232 0.72941 0.25471 0.0
C2148 C 0.43375 0.73593 0.26146 0.0
H2149 H 0.56254 0.80185 0.25434 0.0
H2150 H 0.52849 0.79038 0.24881 0.0
C2151 C 0.41672 0.72372 0.26003 0.0
C2152 C 0.47122 0.74072 0.2578 0.0
H2153 H 0.50315 0.75642 0.29089 0.0
C2154 C 0.48344 0.74504 0.24286 0.0
C2155 C 0.47848 0.7449 0.27536 0.0
C2156 C 0.46667 0.7397 0.29206 0.0
C2157 C 0.50284 0.75276 0.24497 0.0
C2158 C 0.51008 0.75697 0.26253 0.0
C2159 C 0.49763 0.75324 0.27744 0.0
C2160 C 0.53083 0.76424 0.26587 0.0
C2161 C 0.51568 0.75533 0.22839 0.0
C2162 C 0.54348 0.75376 0.27769 0.0
C2163 C 0.56287 0.76055 0.28119 0.0
C2164 C 0.57016 0.77796 0.27286 0.0
C2165 C 0.55754 0.78834 0.26091 0.0
C2166 C 0.53803 0.7817 0.25763 0.0
H2167 H 0.51013 0.74622 0.21691 0.0
H2168 H 0.51538 0.77121 0.22416 0.0
H2169 H 0.53142 0.75105 0.23113 0.0
H2170 H 0.53834 0.74024 0.28424 0.0
H2171 H 0.57214 0.75215 0.29046 0.0
H2172 H 0.0297 0.66374 0.01758 0.0
H2173 H 0.01023 0.69472 0.02001 0.0
H2174 H 0.04838 0.72256 0.9805 0.0
H2175 H 0.0679 0.69183 0.9781 0.0
H2176 H 0.03009 0.73289 0.03026 0.0
H2177 H 0.99 0.73742 0.96465 0.0
H2178 H 0.9988 0.71406 0.97393 0.0
H2179 H 0.01611 0.73111 0.96373 0.0
C2180 C 0.03358 0.67626 0.00905 0.0
C2181 C 0.05033 0.67532 -0.00236 0.0
C2182 C 0.02254 0.694 0.01054 0.0
C2183 C 0.02783 0.71092 0.00038 0.0
C2184 C 0.0439 0.70965 0.98831 0.0
H2185 H 0.97937 0.83312 0.99707 0.0
H2186 H 1.00083 0.80378 0.99192 0.0
C2187 C 0.05505 0.69207 0.98699 0.0
C2188 C 0.01784 0.73042 0.00352 0.0
H2189 H 0.98825 0.76572 0.98363 0.0
C2190 C 0.02087 0.74004 0.0201 0.0
C2191 C 0.0062 0.73992 0.9901 0.0
C2192 C 0.00241 0.73012 0.97211 0.0
C2193 C 0.01252 0.75888 0.02368 0.0
C2194 C 1.00035 0.76817 0.01047 0.0
C2195 C 0.99762 0.75868 0.99374 0.0
C2196 C 0.98895 0.78679 0.01435 0.0
C2197 C 0.01708 0.76876 0.04151 0.0
C2198 C 0.97534 0.78711 0.02872 0.0
C2199 C 0.96329 0.80376 0.03172 0.0
C2200 C 0.96431 0.82053 0.02031 0.0
C2201 C 0.97836 0.82054 0.0062 0.0
C2202 C 0.9905 0.80373 0.00317 0.0
H2203 H 0.03157 0.76351 0.04708 0.0
H2204 H 0.01761 0.78527 0.04019 0.0
H2205 H 0.00525 0.76484 0.05138 0.0
H2206 H 0.9735 0.77415 0.0373 0.0
H2207 H 0.95264 0.80318 0.04272 0.0
H2208 H 0.14083 0.24652 0.3074 0.0
H2209 H 0.14676 0.27147 0.33045 0.0
H2210 H 0.19261 0.23458 0.35401 0.0
H2211 H 0.1873 0.20954 0.33056 0.0
H2212 H 0.16083 0.246 0.37758 0.0
H2213 H 0.19237 0.31135 0.34198 0.0
H2214 H 0.1714 0.30055 0.33046 0.0
H2215 H 0.19396 0.28624 0.33314 0.0
C2216 C 0.1526 0.24377 0.31706 0.0
C2217 C 0.16342 0.22573 0.31707 0.0
C2218 C 0.156 0.25819 0.33027 0.0
C2219 C 0.17027 0.25496 0.3438 0.0
C2220 C 0.18161 0.23738 0.34358 0.0
H2221 H 0.15354 0.32207 0.44515 0.0
H2222 H 0.1724 0.30148 0.42368 0.0
C2223 C 0.17837 0.22298 0.33024 0.0
C2224 C 0.17114 0.26874 0.35935 0.0
H2225 H 0.17433 0.31824 0.36957 0.0
C2226 C 0.16431 0.26173 0.37606 0.0
C2227 C 0.17574 0.28917 0.35723 0.0
C2228 C 0.18397 0.29727 0.33977 0.0
C2229 C 0.16011 0.27492 0.39026 0.0
C2230 C 0.16339 0.29563 0.38774 0.0
C2231 C 0.17179 0.30239 0.37148 0.0
C2232 C 0.15506 0.31057 0.40042 0.0
C2233 C 0.1506 0.26674 0.4072 0.0
C2234 C 0.13997 0.3234 0.39428 0.0
C2235 C 0.12948 0.33535 0.40638 0.0
C2236 C 0.13374 0.33461 0.42494 0.0
C2237 C 0.14984 0.32285 0.43094 0.0
C2238 C 0.16049 0.31095 0.41873 0.0
H2239 H 0.14613 0.25086 0.40572 0.0
H2240 H 0.1614 0.26773 0.41851 0.0
H2241 H 0.13716 0.27557 0.41088 0.0
H2242 H 0.13562 0.32347 0.38019 0.0
H2243 H 0.11752 0.34467 0.40126 0.0
H2244 H 0.90969 0.86108 0.6526 0.0
H2245 H 0.93053 0.87966 0.63158 0.0
H2246 H 0.94673 0.92067 0.674 0.0
H2247 H 0.92647 0.90147 0.69546 0.0
H2248 H 0.93235 0.91855 0.6196 0.0
H2249 H 1.00053 0.89815 0.65879 0.0
H2250 H 0.97655 0.88706 0.66343 0.0
H2251 H 0.98165 0.91221 0.67043 0.0
C2252 C 0.91769 0.87404 0.6575 0.0
C2253 C 0.91685 0.87952 0.67579 0.0
C2254 C 0.92942 0.88479 0.64541 0.0
C2255 C 0.94048 0.90132 0.6513 0.0
C2256 C 0.93862 0.90771 0.66927 0.0
H2257 H 0.04123 0.93848 0.58302 0.0
H2258 H 0.01514 0.94284 0.60573 0.0
C2259 C 0.92692 0.89684 0.68147 0.0
C2260 C 0.95513 0.91039 0.63878 0.0
H2261 H 0.00519 0.91173 0.63015 0.0
C2262 C 0.94829 0.91749 0.62205 0.0
C2263 C 0.97594 0.90907 0.64202 0.0
C2264 C 0.98422 0.90112 0.65957 0.0
C2265 C 0.96167 0.922 0.60806 0.0
C2266 C 0.98235 0.91925 0.61091 0.0
C2267 C 0.98928 0.91378 0.62806 0.0
C2268 C 0.99671 0.91877 0.59576 0.0
C2269 C 0.95355 0.92882 0.59011 0.0
C2270 C 0.99493 0.90383 0.58264 0.0
C2271 C 0.00996 0.90099 0.56986 0.0
C2272 C 0.02717 0.91307 0.56991 0.0
C2273 C 0.02846 0.92862 0.58268 0.0
C2274 C 0.01345 0.93131 0.59559 0.0
H2275 H 0.93883 0.9363 0.5917 0.0
H2276 H 0.96404 0.93924 0.58333 0.0
H2277 H 0.95142 0.91564 0.58125 0.0
H2278 H 0.98234 0.89368 0.5828 0.0
H2279 H 0.00833 0.88872 0.56053 0.0
H2280 H 0.4022 0.65918 0.90513 0.0
H2281 H 0.38414 0.6802 0.88388 0.0
H2282 H 0.3447 0.69949 0.92649 0.0
H2283 H 0.36351 0.67918 0.94819 0.0
H2284 H 0.34593 0.68276 0.87225 0.0
H2285 H 0.36735 0.75197 0.90913 0.0
H2286 H 0.37794 0.72796 0.91453 0.0
H2287 H 0.35308 0.73414 0.92182 0.0
C2288 C 0.38975 0.66797 0.91005 0.0
C2289 C 0.38462 0.66791 0.92845 0.0
C2290 C 0.37929 0.67981 0.89782 0.0
C2291 C 0.36335 0.69176 0.90366 0.0
C2292 C 0.35728 0.69075 0.92179 0.0
H2293 H 0.31371 0.78773 0.83617 0.0
H2294 H 0.31495 0.7618 0.85931 0.0
C2295 C 0.3679 0.67898 0.93413 0.0
C2296 C 0.35424 0.70608 0.89081 0.0
H2297 H 0.35079 0.75591 0.88156 0.0
C2298 C 0.3467 0.69875 0.8744 0.0
C2299 C 0.35529 0.72697 0.89362 0.0
C2300 C 0.36398 0.73582 0.91064 0.0
C2301 C 0.34103 0.71174 0.86045 0.0
C2302 C 0.34294 0.73253 0.86301 0.0
C2303 C 0.34933 0.73991 0.87974 0.0
C2304 C 0.34063 0.74682 0.84796 0.0
C2305 C 0.3336 0.70317 0.84288 0.0
C2306 C 0.35464 0.7469 0.83392 0.0
C2307 C 0.35427 0.7619 0.82085 0.0
C2308 C 0.33981 0.77717 0.82153 0.0
C2309 C 0.3253 0.77652 0.83531 0.0
C2310 C 0.32584 0.7616 0.8485 0.0
H2311 H 0.32812 0.68763 0.84457 0.0
H2312 H 0.32139 0.71248 0.8372 0.0
H2313 H 0.34605 0.70296 0.83298 0.0
H2314 H 0.36641 0.73579 0.83348 0.0
H2315 H 0.36586 0.76185 0.8107 0.0
H2316 H 0.48311 0.06661 0.06611 0.0
H2317 H 0.5134 0.06824 0.08464 0.0
H2318 H 0.5083 0.13244 0.0865 0.0
H2319 H 0.47851 0.13081 0.06736 0.0
H2320 H 0.54677 0.1209 0.08431 0.0
H2321 H 0.50802 0.07742 0.13787 0.0
H2322 H 0.51088 0.06463 0.11676 0.0
H2323 H 0.49522 0.08642 0.1181 0.0
C2324 C 0.48866 0.08104 0.07036 0.0
C2325 C 0.47843 0.09858 0.06562 0.0
C2326 C 0.50587 0.08196 0.08095 0.0
C2327 C 0.51277 0.10041 0.08736 0.0
C2328 C 0.50318 0.11803 0.08178 0.0
H2329 H 0.56131 0.14142 0.18306 0.0
H2330 H 0.54282 0.12683 0.15808 0.0
C2331 C 0.48619 0.11712 0.07088 0.0
C2332 C 0.52896 0.1015 0.10095 0.0
H2333 H 0.53991 0.08949 0.1446 0.0
C2334 C 0.54545 0.11384 0.09743 0.0
C2335 C 0.52712 0.09227 0.11807 0.0
C2336 C 0.5093 0.07958 0.12304 0.0
C2337 C 0.55955 0.11814 0.11089 0.0
C2338 C 0.55735 0.10938 0.12816 0.0
C2339 C 0.54157 0.09607 0.1313 0.0
C2340 C 0.56907 0.11631 0.14388 0.0
C2341 C 0.57586 0.13304 0.10687 0.0
C2342 C 0.58998 0.11473 0.14447 0.0
C2343 C 0.60067 0.12338 0.15871 0.0
C2344 C 0.59053 0.13358 0.17255 0.0
C2345 C 0.56956 0.13403 0.17239 0.0
C2346 C 0.55896 0.12556 0.15819 0.0
H2347 H 0.57341 0.14089 0.09385 0.0
H2348 H 0.57686 0.14437 0.11777 0.0
H2349 H 0.59042 0.12516 0.1061 0.0
H2350 H 0.59803 0.10728 0.13374 0.0
H2351 H 0.61684 0.12279 0.15849 0.0
H2352 H 0.14705 0.65723 0.06758 0.0
H2353 H 0.15944 0.67438 0.09466 0.0
H2354 H 0.1001 0.67324 0.11738 0.0
H2355 H 0.08783 0.65594 0.09066 0.0
H2356 H 0.1447 0.71134 0.10301 0.0
H2357 H 0.13413 0.66123 0.16143 0.0
H2358 H 0.1349 0.65218 0.13846 0.0
H2359 H 0.11219 0.66246 0.14759 0.0
C2360 C 0.13684 0.66016 0.07862 0.0
C2361 C 0.11646 0.65556 0.077 0.0
C2362 C 0.14391 0.66991 0.09404 0.0
C2363 C 0.13074 0.67486 0.10811 0.0
C2364 C 0.11063 0.66918 0.1069 0.0
H2365 H 0.10878 0.76292 0.18675 0.0
H2366 H 0.11031 0.73223 0.16865 0.0
C2367 C 0.10357 0.65957 0.09151 0.0
C2368 C 0.13688 0.68885 0.1225 0.0
H2369 H 0.1339 0.69678 0.16793 0.0
C2370 C 0.14286 0.70803 0.11725 0.0
C2371 C 0.13425 0.6845 0.14102 0.0
C2372 C 0.1287 0.66389 0.14747 0.0
C2373 C 0.145 0.7234 0.12989 0.0
C2374 C 0.14154 0.7193 0.14837 0.0
C2375 C 0.13649 0.69986 0.15375 0.0
C2376 C 0.14163 0.73546 0.16193 0.0
C2377 C 0.14969 0.74418 0.12319 0.0
C2378 C 0.15891 0.74684 0.16476 0.0
C2379 C 0.15794 0.76441 0.1748 0.0
C2380 C 0.13977 0.77065 0.18244 0.0
C2381 C 0.1229 0.75837 0.18092 0.0
C2382 C 0.12379 0.7409 0.17063 0.0
H2383 H 0.14764 0.74557 0.10836 0.0
H2384 H 0.14006 0.75543 0.12993 0.0
H2385 H 0.16549 0.74779 0.12632 0.0
H2386 H 0.17291 0.74264 0.15849 0.0
H2387 H 0.17124 0.77347 0.17616 0.0
H2388 H 0.57153 0.90164 0.30046 0.0
H2389 H 0.55592 0.92256 0.32378 0.0
H2390 H 0.58043 0.88425 0.36505 0.0
H2391 H 0.59623 0.86375 0.34199 0.0
H2392 H 0.5277 0.90722 0.34538 0.0
H2393 H 0.58695 0.93791 0.38868 0.0
H2394 H 0.59187 0.92884 0.36614 0.0
H2395 H 0.59118 0.91182 0.38499 0.0
C2396 C 0.57405 0.89813 0.31455 0.0
C2397 C 0.58484 0.88097 0.31947 0.0
C2398 C 0.56516 0.91006 0.32783 0.0
C2399 C 0.56723 0.90514 0.34618 0.0
C2400 C 0.57902 0.88868 0.35105 0.0
H2401 H 0.5089 0.88966 0.44123 0.0
H2402 H 0.53323 0.8969 0.41766 0.0
C2403 C 0.58779 0.87677 0.33784 0.0
C2404 C 0.55441 0.91459 0.36007 0.0
H2405 H 0.55532 0.92982 0.40401 0.0
C2406 C 0.53367 0.91284 0.358 0.0
C2407 C 0.56224 0.92192 0.37651 0.0
C2408 C 0.5843 0.92542 0.37912 0.0
C2409 C 0.52066 0.9162 0.3725 0.0
C2410 C 0.52865 0.92191 0.38943 0.0
C2411 C 0.54925 0.92533 0.39106 0.0
C2412 C 0.51627 0.92118 0.40597 0.0
C2413 C 0.49868 0.91188 0.36998 0.0
C2414 C 0.49921 0.93317 0.40782 0.0
C2415 C 0.48516 0.92893 0.42123 0.0
C2416 C 0.48809 0.91279 0.43309 0.0
C2417 C 0.50617 0.90217 0.43232 0.0
C2418 C 0.52011 0.90629 0.41883 0.0
H2419 H 0.49548 0.90474 0.35676 0.0
H2420 H 0.49314 0.9019 0.38084 0.0
H2421 H 0.49013 0.92605 0.37065 0.0
H2422 H 0.49621 0.94503 0.39825 0.0
H2423 H 0.47156 0.93766 0.42179 0.0
H2424 H 0.38476 0.24129 0.68289 0.0
H2425 H 0.38683 0.2642 0.65731 0.0
H2426 H 0.32271 0.27043 0.65732 0.0
H2427 H 0.32055 0.24802 0.6833 0.0
H2428 H 0.36781 0.25535 0.62408 0.0
H2429 H 0.34312 0.32842 0.65209 0.0
H2430 H 0.35178 0.30824 0.66625 0.0
H2431 H 0.32728 0.30729 0.65648 0.0
C2432 C 0.37115 0.24796 0.6778 0.0
C2433 C 0.35248 0.24275 0.68504 0.0
C2434 C 0.37234 0.26092 0.66311 0.0
C2435 C 0.35492 0.26898 0.65549 0.0
C2436 C 0.33633 0.26451 0.66314 0.0
H2437 H 0.36791 0.3171 0.54548 0.0
H2438 H 0.35082 0.30092 0.571 0.0
C2439 C 0.33512 0.25157 0.67785 0.0
C2440 C 0.35624 0.28062 0.63864 0.0
H2441 H 0.35081 0.32736 0.62105 0.0
C2442 C 0.36392 0.27105 0.62331 0.0
C2443 C 0.35098 0.30102 0.63779 0.0
C2444 C 0.34294 0.31197 0.65402 0.0
C2445 C 0.36737 0.28157 0.60729 0.0
C2446 C 0.36263 0.30214 0.60654 0.0
C2447 C 0.35416 0.31153 0.62166 0.0
C2448 C 0.36952 0.31463 0.59136 0.0
C2449 C 0.37718 0.27086 0.5917 0.0
C2450 C 0.38483 0.32842 0.59452 0.0
C2451 C 0.39443 0.33762 0.58012 0.0
C2452 C 0.38889 0.33319 0.56229 0.0
C2453 C 0.37249 0.32061 0.55913 0.0
C2454 C 0.36283 0.31134 0.57364 0.0
H2455 H 0.38256 0.25575 0.59552 0.0
H2456 H 0.36624 0.26917 0.58055 0.0
H2457 H 0.39005 0.2796 0.58651 0.0
H2458 H 0.39015 0.33121 0.60811 0.0
H2459 H 0.4068 0.34759 0.58289 0.0
H2460 H 0.01819 0.06872 0.92404 0.0
H2461 H 0.98795 0.07193 0.90576 0.0
H2462 H 0.98511 0.13469 0.91841 0.0
H2463 H 0.01545 0.13155 0.9368 0.0
H2464 H 0.94672 0.11378 0.91794 0.0
H2465 H 0.99264 0.10066 0.85643 0.0
H2466 H 0.9943 0.08185 0.87365 0.0
H2467 H 0.00363 0.10651 0.87802 0.0
C2468 C 0.01107 0.08318 0.923 0.0
C2469 C 0.01937 0.09998 0.93156 0.0
C2470 C 0.99377 0.08497 0.91262 0.0
C2471 C 0.98455 0.1036 0.9105 0.0
C2472 C 0.99209 0.12018 0.91987 0.0
H2473 H 0.9018 0.16416 0.84431 0.0
H2474 H 0.92094 0.15081 0.86954 0.0
C2475 C 0.00937 0.11838 0.93036 0.0
C2476 C 0.9681 0.10614 0.89737 0.0
H2477 H 0.95838 0.10607 0.85219 0.0
C2478 C 0.94917 0.11196 0.90357 0.0
C2479 C 0.97137 0.10362 0.87865 0.0
C2480 C 0.99159 0.09796 0.87119 0.0
C2481 C 0.93345 0.11564 0.89145 0.0
C2482 C 0.93693 0.11381 0.87269 0.0
C2483 C 0.95569 0.10733 0.86658 0.0
C2484 C 0.92233 0.1207 0.85901 0.0
C2485 C 0.91332 0.12158 0.89886 0.0
C2486 C 0.91662 0.1082 0.84467 0.0
C2487 C 0.90584 0.1159 0.83004 0.0
C2488 C 0.90087 0.13626 0.82948 0.0
C2489 C 0.90565 0.14844 0.8443 0.0
C2490 C 0.91636 0.14077 0.85887 0.0
H2491 H 0.91102 0.11546 0.91264 0.0
H2492 H 0.91252 0.13809 0.8998 0.0
H2493 H 0.901 0.11635 0.89002 0.0
H2494 H 0.92123 0.0927 0.84445 0.0
H2495 H 0.9024 0.10623 0.81876 0.0
H2496 H 0.87553 0.77062 0.67515 0.0
H2497 H 0.8738 0.74556 0.65137 0.0
H2498 H 0.81239 0.76143 0.64108 0.0
H2499 H 0.81405 0.78671 0.66496 0.0
H2500 H 0.84899 0.71259 0.64593 0.0
H2501 H 0.83942 0.7699 0.59209 0.0
H2502 H 0.84656 0.77643 0.6148 0.0
H2503 H 0.8212 0.76964 0.6099 0.0
C2504 C 0.86155 0.76859 0.66807 0.0
C2505 C 0.84497 0.78076 0.67185 0.0
C2506 C 0.86059 0.75429 0.65443 0.0
C2507 C 0.84305 0.75184 0.64432 0.0
C2508 C 0.82618 0.76337 0.64851 0.0
H2509 H 0.85776 0.65541 0.56365 0.0
H2510 H 0.8391 0.67613 0.58527 0.0
C2511 C 0.82717 0.77779 0.66212 0.0
C2512 C 0.84314 0.73788 0.62884 0.0
H2513 H 0.84519 0.73702 0.58284 0.0
C2514 C 0.84775 0.71777 0.6321 0.0
C2515 C 0.84151 0.7448 0.61086 0.0
C2516 C 0.83702 0.76638 0.60658 0.0
C2517 C 0.85212 0.70466 0.61788 0.0
C2518 C 0.85149 0.71185 0.59994 0.0
C2519 C 0.84553 0.7316 0.59663 0.0
C2520 C 0.86046 0.70038 0.58492 0.0
C2521 C 0.85885 0.6837 0.62225 0.0
C2522 C 0.87803 0.70761 0.57698 0.0
C2523 C 0.88853 0.69597 0.56465 0.0
C2524 C 0.88166 0.67685 0.55999 0.0
C2525 C 0.86337 0.6701 0.56705 0.0
C2526 C 0.85282 0.68182 0.57947 0.0
H2527 H 0.86094 0.68135 0.63697 0.0
H2528 H 0.84748 0.67291 0.61741 0.0
H2529 H 0.87315 0.68029 0.6153 0.0
H2530 H 0.88414 0.72193 0.58095 0.0
H2531 H 0.90241 0.70167 0.55918 0.0
H2532 H 0.95127 0.08288 0.40232 0.0
H2533 H 0.97447 0.08066 0.37704 0.0
H2534 H 0.02173 0.10357 0.41071 0.0
H2535 H 0.9989 0.10496 0.43627 0.0
H2536 H 0.99201 0.11241 0.36231 0.0
H2537 H 0.05083 0.05992 0.38417 0.0
H2538 H 0.02695 0.06158 0.39541 0.0
H2539 H 0.04664 0.07891 0.40078 0.0
C2540 C 0.96671 0.08691 0.40454 0.0
C2541 C 0.97314 0.09425 0.42137 0.0
C2542 C 0.97996 0.08569 0.39002 0.0
C2543 C 0.9999 0.0917 0.39202 0.0
C2544 C 0.00653 0.09841 0.40892 0.0
H2545 H 0.09372 0.14292 0.33527 0.0
H2546 H 0.07157 0.12522 0.35598 0.0
C2547 C 0.99334 0.09954 0.42348 0.0
C2548 C 0.01308 0.09344 0.37603 0.0
H2549 H 0.06042 0.08395 0.36117 0.0
C2550 C 0.00678 0.10578 0.36182 0.0
C2551 C 0.03234 0.08475 0.37541 0.0
C2552 C 0.03949 0.07038 0.38969 0.0
C2553 C 0.0197 0.11082 0.34765 0.0
C2554 C 0.03935 0.10307 0.3476 0.0
C2555 C 0.04532 0.08986 0.36127 0.0
C2556 C 0.05455 0.11074 0.3349 0.0
C2557 C 0.01265 0.12546 0.33352 0.0
C2558 C 0.05275 0.10786 0.31621 0.0
C2559 C 0.06536 0.11808 0.3043 0.0
C2560 C 0.07985 0.13133 0.311 0.0
C2561 C 0.08243 0.13308 0.32975 0.0
C2562 C 0.06991 0.12286 0.34159 0.0
H2563 H 0.99798 0.13221 0.33699 0.0
H2564 H 0.02373 0.13764 0.33177 0.0
H2565 H 0.01109 0.11766 0.32039 0.0
H2566 H 0.04109 0.09836 0.31083 0.0
H2567 H 0.06308 0.11645 0.28991 0.0
H2568 H 0.6274 0.36833 0.08155 0.0
H2569 H 0.64409 0.3519 0.10698 0.0
H2570 H 0.64058 0.29559 0.07879 0.0
H2571 H 0.625 0.31224 0.05312 0.0
H2572 H 0.6263 0.32702 0.12699 0.0
H2573 H 0.69298 0.28807 0.10191 0.0
H2574 H 0.6807 0.30719 0.08881 0.0
H2575 H 0.67236 0.28159 0.08773 0.0
C2576 C 0.63108 0.35261 0.08057 0.0
C2577 C 0.62518 0.34149 0.06544 0.0
C2578 C 0.64048 0.34321 0.09509 0.0
C2579 C 0.64377 0.32249 0.09482 0.0
C2580 C 0.63884 0.31164 0.07919 0.0
H2581 H 0.62058 0.23803 0.17633 0.0
H2582 H 0.62035 0.26593 0.15502 0.0
C2583 C 0.62984 0.32113 0.06453 0.0
C2584 C 0.64908 0.31173 0.11165 0.0
H2585 H 0.67555 0.27176 0.12709 0.0
C2586 C 0.63746 0.31527 0.12713 0.0
C2587 C 0.66388 0.29665 0.11213 0.0
C2588 C 0.67831 0.29336 0.09678 0.0
C2589 C 0.63922 0.30325 0.14252 0.0
C2590 C 0.65239 0.28675 0.14218 0.0
C2591 C 0.66508 0.28412 0.12725 0.0
C2592 C 0.65228 0.27123 0.15646 0.0
C2593 C 0.62673 0.30828 0.15885 0.0
C2594 C 0.67028 0.26465 0.16415 0.0
C2595 C 0.67042 0.24839 0.17592 0.0
C2596 C 0.65255 0.23858 0.18037 0.0
C2597 C 0.63447 0.24559 0.17327 0.0
C2598 C 0.63435 0.2616 0.1612 0.0
H2599 H 0.62404 0.32462 0.15974 0.0
H2600 H 0.61195 0.30091 0.15764 0.0
H2601 H 0.63397 0.30325 0.17155 0.0
H2602 H 0.68428 0.27178 0.16069 0.0
H2603 H 0.68453 0.24326 0.18138 0.0
H2604 H 0.54494 0.90959 0.90062 0.0
H2605 H 0.51638 0.91172 0.88035 0.0
H2606 H 0.47633 0.90594 0.92567 0.0
H2607 H 0.50503 0.90353 0.94607 0.0
H2608 H 0.46812 0.87943 0.90059 0.0
H2609 H 0.47519 0.95256 0.86702 0.0
H2610 H 0.49829 0.93912 0.86566 0.0
H2611 H 0.48871 0.94651 0.8874 0.0
C2612 C 0.53006 0.9093 0.90633 0.0
C2613 C 0.52722 0.90628 0.92492 0.0
C2614 C 0.51371 0.91066 0.89473 0.0
C2615 C 0.49417 0.90937 0.9015 0.0
C2616 C 0.49127 0.90712 0.92016 0.0
H2617 H 0.39131 0.89379 0.82747 0.0
H2618 H 0.41144 0.90915 0.85159 0.0
C2619 C 0.50766 0.90559 0.93177 0.0
C2620 C 0.47713 0.90747 0.88884 0.0
H2621 H 0.45787 0.92662 0.84978 0.0
C2622 C 0.46552 0.89006 0.88979 0.0
C2623 C 0.4736 0.92137 0.87478 0.0
C2624 C 0.48449 0.94103 0.87378 0.0
C2625 C 0.45158 0.88547 0.87635 0.0
C2626 C 0.44935 0.8985 0.86152 0.0
C2627 C 0.45985 0.91658 0.86113 0.0
C2628 C 0.43805 0.89214 0.84545 0.0
C2629 C 0.44008 0.86614 0.87753 0.0
C2630 C 0.44666 0.87807 0.83384 0.0
C2631 C 0.43531 0.86933 0.82024 0.0
C2632 C 0.41514 0.87456 0.818 0.0
C2633 C 0.40686 0.88961 0.82891 0.0
C2634 C 0.41827 0.89833 0.84265 0.0
H2635 H 0.4406 0.85965 0.89131 0.0
H2636 H 0.42423 0.8685 0.87364 0.0
H2637 H 0.44663 0.85518 0.86798 0.0
H2638 H 0.46195 0.8732 0.83584 0.0
H2639 H 0.44209 0.85793 0.81187 0.0
H2640 H 0.87259 0.31596 0.95085 0.0
H2641 H 0.85482 0.29788 0.92692 0.0
H2642 H 0.89363 0.32428 0.88704 0.0
H2643 H 0.91084 0.34284 0.91066 0.0
H2644 H 0.85466 0.32006 0.87488 0.0
H2645 H 0.88396 0.24987 0.90535 0.0
H2646 H 0.86838 0.26483 0.91972 0.0
H2647 H 0.89225 0.27419 0.91258 0.0
C2648 C 0.87695 0.31825 0.93693 0.0
C2649 C 0.89337 0.3304 0.9326 0.0
C2650 C 0.86692 0.30783 0.92332 0.0
C2651 C 0.87328 0.3094 0.90531 0.0
C2652 C 0.88862 0.32274 0.90088 0.0
H2653 H 0.86979 0.24773 0.80419 0.0
H2654 H 0.87406 0.2718 0.82882 0.0
C2655 C 0.89855 0.33318 0.9144 0.0
C2656 C 0.86563 0.29582 0.89122 0.0
H2657 H 0.86663 0.24705 0.87804 0.0
C2658 C 0.85704 0.30407 0.87563 0.0
C2659 C 0.86899 0.27499 0.89221 0.0
C2660 C 0.87904 0.26538 0.90827 0.0
C2661 C 0.85197 0.29202 0.86084 0.0
C2662 C 0.85579 0.27131 0.86171 0.0
C2663 C 0.86378 0.26299 0.87749 0.0
C2664 C 0.85218 0.25789 0.84627 0.0
C2665 C 0.84269 0.3015 0.84439 0.0
C2666 C 0.83874 0.24203 0.84812 0.0
C2667 C 0.83647 0.22822 0.83424 0.0
C2668 C 0.84766 0.22995 0.81824 0.0
C2669 C 0.86106 0.24595 0.81638 0.0
C2670 C 0.86331 0.25983 0.83032 0.0
H2671 H 0.83626 0.3164 0.8475 0.0
H2672 H 0.85433 0.30346 0.83388 0.0
H2673 H 0.83076 0.29184 0.83873 0.0
H2674 H 0.83024 0.24016 0.86045 0.0
H2675 H 0.8263 0.21588 0.83629 0.0
H2676 H 0.5114 0.13152 0.5509 0.0
H2677 H 0.48632 0.13825 0.57407 0.0
H2678 H 0.49855 0.08116 0.59859 0.0
H2679 H 0.52421 0.07465 0.57604 0.0
H2680 H 0.45183 0.1169 0.58334 0.0
H2681 H 0.5056 0.12002 0.64043 0.0
H2682 H 0.51349 0.12069 0.61716 0.0
H2683 H 0.50656 0.09741 0.62746 0.0
C2684 C 0.50896 0.12049 0.56132 0.0
C2685 C 0.52 0.10261 0.56164 0.0
C2686 C 0.49448 0.12428 0.57445 0.0
C2687 C 0.4908 0.1103 0.58815 0.0
C2688 C 0.50142 0.09228 0.58829 0.0
H2689 H 0.41518 0.11977 0.68392 0.0
H2690 H 0.4344 0.10548 0.65883 0.0
C2691 C 0.51595 0.0885 0.57524 0.0
C2692 C 0.47601 0.11474 0.60241 0.0
H2693 H 0.47139 0.12255 0.64771 0.0
C2694 C 0.45606 0.11808 0.59742 0.0
C2695 C 0.48162 0.1162 0.62077 0.0
C2696 C 0.503 0.11357 0.62682 0.0
C2697 C 0.44155 0.12301 0.61034 0.0
C2698 C 0.44726 0.1248 0.62862 0.0
C2699 C 0.46708 0.121 0.63367 0.0
C2700 C 0.4334 0.1323 0.64257 0.0
C2701 C 0.42028 0.12633 0.60435 0.0
C2702 C 0.42637 0.15198 0.64157 0.0
C2703 C 0.41553 0.16014 0.65584 0.0
C2704 C 0.41158 0.14877 0.67137 0.0
C2705 C 0.41793 0.12879 0.67205 0.0
C2706 C 0.42892 0.12065 0.65779 0.0
H2707 H 0.41722 0.11905 0.59117 0.0
H2708 H 0.40956 0.12051 0.61451 0.0
H2709 H 0.41759 0.14258 0.60278 0.0
H2710 H 0.42996 0.1613 0.63007 0.0
H2711 H 0.41065 0.17553 0.65492 0.0
H2712 H 0.63214 0.75449 0.30581 0.0
H2713 H 0.63993 0.72621 0.32525 0.0
H2714 H 0.69197 0.75707 0.34524 0.0
H2715 H 0.68386 0.78578 0.32603 0.0
H2716 H 0.67112 0.70061 0.33095 0.0
H2717 H 0.65967 0.74989 0.39071 0.0
H2718 H 0.65392 0.75801 0.36812 0.0
H2719 H 0.67944 0.75689 0.37562 0.0
C2720 C 0.64547 0.75512 0.31405 0.0
C2721 C 0.6572 0.77248 0.31464 0.0
C2722 C 0.64992 0.73893 0.32518 0.0
C2723 C 0.66628 0.73971 0.337 0.0
C2724 C 0.67896 0.75638 0.33658 0.0
H2725 H 0.66489 0.66024 0.43142 0.0
H2726 H 0.68116 0.68028 0.40776 0.0
C2727 C 0.67434 0.77274 0.32561 0.0
C2728 C 0.66852 0.72391 0.35086 0.0
H2729 H 0.6623 0.71574 0.39597 0.0
C2730 C 0.66961 0.70392 0.34521 0.0
C2731 C 0.66663 0.72826 0.3695 0.0
C2732 C 0.6647 0.74938 0.37643 0.0
C2733 C 0.66757 0.68818 0.35757 0.0
C2734 C 0.66432 0.69259 0.37597 0.0
C2735 C 0.66486 0.71247 0.38182 0.0
C2736 C 0.65677 0.67743 0.38877 0.0
C2737 C 0.66801 0.66699 0.35075 0.0
C2738 C 0.63784 0.66909 0.38579 0.0
C2739 C 0.62851 0.65799 0.39927 0.0
C2740 C 0.63799 0.65497 0.41594 0.0
C2741 C 0.6574 0.66233 0.4186 0.0
C2742 C 0.66666 0.67371 0.40514 0.0
H2743 H 0.67701 0.66574 0.33819 0.0
H2744 H 0.67424 0.65668 0.36105 0.0
H2745 H 0.65255 0.66216 0.34758 0.0
H2746 H 0.62976 0.67215 0.37343 0.0
H2747 H 0.61355 0.65239 0.39693 0.0
H2748 H 0.05304 0.87896 0.18411 0.0
H2749 H 0.0377 0.89334 0.15735 0.0
H2750 H 0.09585 0.9097 0.13707 0.0
H2751 H 0.11148 0.89389 0.16321 0.0
H2752 H 0.03596 0.92821 0.14078 0.0
H2753 H 0.077 0.87416 0.09731 0.0
H2754 H 0.07776 0.8728 0.12156 0.0
H2755 H 0.09226 0.89129 0.1098 0.0
C2756 C 0.06262 0.88557 0.17396 0.0
C2757 C 0.08352 0.88474 0.17561 0.0
C2758 C 0.0538 0.89402 0.15874 0.0
C2759 C 0.06566 0.9021 0.14494 0.0
C2760 C 0.08644 0.903 0.14729 0.0
H2761 H 0.9881 0.94012 0.05446 0.0
H2762 H 0.01526 0.94311 0.07653 0.0
C2763 C 0.09534 0.8942 0.16241 0.0
C2764 C 0.05605 0.90777 0.12765 0.0
H2765 H 0.05203 0.89313 0.08369 0.0
C2766 C 0.03963 0.9208 0.12819 0.0
C2767 C 0.06089 0.89801 0.11126 0.0
C2768 C 0.07782 0.88317 0.10987 0.0
C2769 C 0.027 0.92318 0.11323 0.0
C2770 C 0.03141 0.9128 0.09707 0.0
C2771 C 0.04871 0.90103 0.09611 0.0
C2772 C 0.01683 0.9114 0.08207 0.0
C2773 C 0.00828 0.93555 0.11538 0.0
C2774 C 0.00947 0.89255 0.07714 0.0
C2775 C 0.9944 0.89081 0.06428 0.0
C2776 C 0.98621 0.90791 0.05623 0.0
C2777 C 0.99406 0.92674 0.06064 0.0
C2778 C 0.00945 0.92847 0.07331 0.0
H2779 H 0.0052 0.93925 0.12973 0.0
H2780 H 0.01002 0.94978 0.10789 0.0
H2781 H 0.99511 0.92756 0.10983 0.0
H2782 H 0.01491 0.87917 0.08373 0.0
H2783 H 0.9885 0.87614 0.06129 0.0
H2784 H 0.67708 0.70722 0.83235 0.0
H2785 H 0.6841 0.7313 0.8564 0.0
H2786 H 0.64487 0.77388 0.8309 0.0
H2787 H 0.63792 0.75009 0.80688 0.0
H2788 H 0.67898 0.79151 0.84682 0.0
H2789 H 0.63984 0.73951 0.89377 0.0
H2790 H 0.66144 0.72996 0.88226 0.0
H2791 H 0.63936 0.73606 0.86965 0.0
C2792 C 0.67016 0.72181 0.83177 0.0
C2793 C 0.65665 0.72658 0.81787 0.0
C2794 C 0.67421 0.73555 0.84549 0.0
C2795 C 0.66467 0.7542 0.84562 0.0
C2796 C 0.65236 0.75954 0.83108 0.0
H2797 H 0.61665 0.8466 0.90378 0.0
H2798 H 0.63501 0.82618 0.88221 0.0
C2799 C 0.64842 0.74589 0.81731 0.0
C2800 C 0.66549 0.76737 0.86165 0.0
H2801 H 0.64707 0.77138 0.90442 0.0
C2802 C 0.67238 0.78703 0.85956 0.0
C2803 C 0.65697 0.76144 0.8783 0.0
C2804 C 0.64885 0.74066 0.88121 0.0
C2805 C 0.66997 0.8012 0.87334 0.0
C2806 C 0.66015 0.79562 0.88946 0.0
C2807 C 0.65463 0.77562 0.89205 0.0
C2808 C 0.65238 0.81056 0.90243 0.0
C2809 C 0.67734 0.82219 0.87026 0.0
C2810 C 0.6561 0.80871 0.92102 0.0
C2811 C 0.64543 0.82032 0.93344 0.0
C2812 C 0.6307 0.8337 0.9274 0.0
C2813 C 0.62782 0.83628 0.90878 0.0
C2814 C 0.63851 0.8248 0.89642 0.0
H2815 H 0.69058 0.82229 0.86121 0.0
H2816 H 0.6654 0.83102 0.86359 0.0
H2817 H 0.68134 0.82962 0.88315 0.0
H2818 H 0.66658 0.79764 0.92594 0.0
H2819 H 0.64784 0.818 0.94774 0.0
H2820 H 0.39624 0.38486 0.16281 0.0
H2821 H 0.41574 0.40016 0.13857 0.0
H2822 H 0.46387 0.41144 0.17589 0.0
H2823 H 0.44465 0.39544 0.20005 0.0
H2824 H 0.43855 0.43463 0.12968 0.0
H2825 H 0.48528 0.36739 0.14283 0.0
H2826 H 0.46141 0.37113 0.15351 0.0
H2827 H 0.48306 0.38433 0.16148 0.0
C2828 C 0.41066 0.39132 0.16597 0.0
C2829 C 0.41915 0.38875 0.18313 0.0
C2830 C 0.42178 0.40006 0.15213 0.0
C2831 C 0.4414 0.40646 0.15538 0.0
C2832 C 0.44887 0.40623 0.17308 0.0
H2833 H 0.52602 0.43787 0.06945 0.0
H2834 H 0.50299 0.44131 0.0948 0.0
C2835 C 0.43791 0.39716 0.18685 0.0
C2836 C 0.45505 0.40947 0.13994 0.0
H2837 H 0.49446 0.38757 0.11853 0.0
C2838 C 0.45092 0.42452 0.12728 0.0
C2839 C 0.47092 0.39595 0.13673 0.0
C2840 C 0.47539 0.37868 0.14924 0.0
C2841 C 0.46217 0.42622 0.11131 0.0
C2842 C 0.47793 0.41262 0.10816 0.0
C2843 C 0.48232 0.39795 0.12104 0.0
C2844 C 0.48954 0.41225 0.09121 0.0
C2845 C 0.45669 0.44197 0.09765 0.0
C2846 C 0.48943 0.39488 0.08067 0.0
C2847 C 0.50285 0.39263 0.06647 0.0
C2848 C 0.51672 0.40776 0.06242 0.0
C2849 C 0.51591 0.4257 0.07234 0.0
C2850 C 0.50253 0.42786 0.08671 0.0
H2851 H 0.44192 0.44883 0.10057 0.0
H2852 H 0.46814 0.45394 0.09784 0.0
H2853 H 0.45638 0.43553 0.08385 0.0
H2854 H 0.47951 0.38263 0.08399 0.0
H2855 H 0.50289 0.37856 0.05935 0.0
H2856 H 0.89188 0.16 0.40754 0.0
H2857 H 0.87386 0.18265 0.38753 0.0
H2858 H 0.84553 0.21016 0.43352 0.0
H2859 H 0.86406 0.18779 0.45375 0.0
H2860 H 0.83339 0.19385 0.38137 0.0
H2861 H 0.87928 0.25509 0.41097 0.0
H2862 H 0.88465 0.22914 0.41523 0.0
H2863 H 0.86397 0.24105 0.42631 0.0
C2864 C 0.88163 0.17072 0.41338 0.0
C2865 C 0.87969 0.17247 0.4322 0.0
C2866 C 0.87121 0.18352 0.40193 0.0
C2867 C 0.85867 0.19828 0.40908 0.0
C2868 C 0.85539 0.19902 0.42779 0.0
H2869 H 0.83083 0.30578 0.34763 0.0
H2870 H 0.82814 0.28034 0.371 0.0
C2871 C 0.86587 0.18618 0.4393 0.0
C2872 C 0.85127 0.21422 0.39701 0.0
H2873 H 0.86016 0.26271 0.38561 0.0
C2874 C 0.83892 0.20902 0.38244 0.0
C2875 C 0.85859 0.23396 0.39844 0.0
C2876 C 0.87246 0.24023 0.41348 0.0
C2877 C 0.83424 0.22292 0.3689 0.0
C2878 C 0.84242 0.24235 0.36987 0.0
C2879 C 0.8539 0.2478 0.38491 0.0
C2880 C 0.84099 0.25677 0.35478 0.0
C2881 C 0.82087 0.21658 0.35356 0.0
C2882 C 0.84891 0.25191 0.3378 0.0
C2883 C 0.85034 0.26641 0.32432 0.0
C2884 C 0.84412 0.28613 0.32763 0.0
C2885 C 0.8356 0.29075 0.34449 0.0
C2886 C 0.83409 0.27623 0.35793 0.0
H2887 H 0.8106 0.20442 0.35779 0.0
H2888 H 0.81186 0.22928 0.34841 0.0
H2889 H 0.83022 0.21079 0.34236 0.0
H2890 H 0.85475 0.23711 0.33519 0.0
H2891 H 0.85669 0.26222 0.31144 0.0
H2892 H 0.95861 0.58911 0.59351 0.0
H2893 H 0.98682 0.58545 0.61419 0.0
H2894 H 0.02738 0.58383 0.56899 0.0
H2895 H 0.99915 0.58766 0.5482 0.0
H2896 H 0.01943 0.55813 0.61859 0.0
H2897 H 0.04366 0.63406 0.59721 0.0
H2898 H 0.01954 0.62401 0.59137 0.0
H2899 H 0.04149 0.61592 0.57948 0.0
C2900 C 0.97348 0.58754 0.58796 0.0
C2901 C 0.97674 0.58903 0.56927 0.0
C2902 C 0.98958 0.58543 0.59978 0.0
C2903 C 0.00917 0.5847 0.59311 0.0
C2904 C 0.01237 0.58474 0.5744 0.0
H2905 H 0.11479 0.61654 0.65411 0.0
H2906 H 0.09504 0.59982 0.63081 0.0
C2907 C 0.99628 0.58701 0.56257 0.0
C2908 C 0.02616 0.58621 0.6058 0.0
H2909 H 0.06214 0.61857 0.61995 0.0
C2910 C 0.02898 0.57121 0.61879 0.0
C2911 C 0.0385 0.60334 0.60604 0.0
C2912 C 0.03563 0.62035 0.5929 0.0
C2913 C 0.04368 0.57305 0.63224 0.0
C2914 C 0.05557 0.59048 0.63279 0.0
C2915 C 0.05314 0.60512 0.61942 0.0
C2916 C 0.06927 0.5951 0.64793 0.0
C2917 C 0.04622 0.55644 0.64577 0.0
C2918 C 0.06169 0.59715 0.66552 0.0
C2919 C 0.07306 0.60652 0.67888 0.0
C2920 C 0.09199 0.61424 0.67474 0.0
C2921 C 0.10018 0.61075 0.65758 0.0
C2922 C 0.08892 0.6012 0.64429 0.0
H2923 H 0.0414 0.54188 0.64006 0.0
H2924 H 0.06198 0.55515 0.6503 0.0
H2925 H 0.03675 0.55958 0.65773 0.0
H2926 H 0.04643 0.593 0.66856 0.0
H2927 H 0.06636 0.60926 0.69196 0.0
H2928 H 0.60418 0.26555 0.69574 0.0
H2929 H 0.60278 0.23248 0.68161 0.0
H2930 H 0.64905 0.25009 0.64434 0.0
H2931 H 0.65107 0.28259 0.65875 0.0
H2932 H 0.59226 0.226 0.64726 0.0
H2933 H 0.66769 0.19499 0.65748 0.0
H2934 H 0.65842 0.2159 0.67041 0.0
H2935 H 0.66929 0.21974 0.64842 0.0
C2936 C 0.61436 0.26217 0.68481 0.0
C2937 C 0.6276 0.27675 0.67825 0.0
C2938 C 0.61353 0.24331 0.67675 0.0
C2939 C 0.62607 0.2387 0.66214 0.0
C2940 C 0.6396 0.25309 0.6559 0.0
H2941 H 0.63064 0.17709 0.56553 0.0
H2942 H 0.63614 0.19593 0.59338 0.0
C2943 C 0.64046 0.27185 0.66393 0.0
C2944 C 0.62346 0.21998 0.65182 0.0
H2945 H 0.65003 0.18341 0.63051 0.0
C2946 C 0.60473 0.21631 0.644 0.0
C2947 C 0.63975 0.20732 0.64764 0.0
C2948 C 0.65984 0.20959 0.65662 0.0
C2949 C 0.60226 0.20137 0.63097 0.0
C2950 C 0.61894 0.18975 0.62579 0.0
C2951 C 0.63734 0.1925 0.63446 0.0
C2952 C 0.61798 0.17649 0.60994 0.0
C2953 C 0.5822 0.199 0.62191 0.0
C2954 C 0.60644 0.15905 0.61026 0.0
C2955 C 0.60322 0.14831 0.59437 0.0
C2956 C 0.61147 0.15493 0.57796 0.0
C2957 C 0.6239 0.17181 0.57794 0.0
C2958 C 0.62717 0.18248 0.59383 0.0
H2959 H 0.57137 0.21066 0.62618 0.0
H2960 H 0.5839 0.1997 0.60702 0.0
H2961 H 0.57587 0.18418 0.62534 0.0
H2962 H 0.59931 0.15422 0.62263 0.0
H2963 H 0.59346 0.13543 0.59477 0.0
H2964 H 0.09341 0.35125 0.84031 0.0
H2965 H 0.07721 0.37053 0.86396 0.0
H2966 H 0.0619 0.41622 0.8253 0.0
H2967 H 0.0774 0.39638 0.8012 0.0
H2968 H 0.08106 0.40823 0.87814 0.0
H2969 H 0.00755 0.39879 0.84365 0.0
H2970 H 0.02954 0.38552 0.83635 0.0
H2971 H 0.02682 0.41165 0.83144 0.0
C2972 C 0.08656 0.36538 0.83679 0.0
C2973 C 0.08616 0.37204 0.81881 0.0
C2974 C 0.07754 0.37652 0.85037 0.0
C2975 C 0.06802 0.39462 0.84633 0.0
C2976 C 0.06882 0.40208 0.82863 0.0
H2977 H 0.9775 0.43309 0.9243 0.0
H2978 H 0.00239 0.43824 0.90064 0.0
C2979 C 0.07779 0.39081 0.81492 0.0
C2980 C 0.05577 0.40423 0.86051 0.0
H2981 H 0.00718 0.40953 0.8735 0.0
C2982 C 0.06492 0.409 0.87701 0.0
C2983 C 0.03471 0.40531 0.85898 0.0
C2984 C 0.02397 0.39996 0.84173 0.0
C2985 C 0.05349 0.41333 0.89239 0.0
C2986 C 0.03245 0.4128 0.89117 0.0
C2987 C 0.02335 0.40985 0.87434 0.0
C2988 C 0.01961 0.41197 0.90737 0.0
C2989 C 0.06398 0.4175 0.90999 0.0
C2990 C 0.02121 0.39561 0.9191 0.0
C2991 C 0.00684 0.3924 0.93241 0.0
C2992 C 0.99051 0.40547 0.93421 0.0
C2993 C 0.9896 0.42247 0.92306 0.0
C2994 C 0.00393 0.42559 0.90964 0.0
H2995 H 0.07908 0.42388 0.90767 0.0
H2996 H 0.0552 0.42796 0.9185 0.0
H2997 H 0.06583 0.4033 0.91752 0.0
H2998 H 0.03295 0.38465 0.91728 0.0
H2999 H 0.008 0.37906 0.94056 0.0
H3000 H 0.88281 0.74584 0.18007 0.0
H3001 H 0.88399 0.774 0.15903 0.0
H3002 H 0.82313 0.78912 0.17271 0.0
H3003 H 0.82177 0.7604 0.19312 0.0
H3004 H 0.82652 0.7879 0.13826 0.0
H3005 H 0.88954 0.83265 0.16361 0.0
H3006 H 0.89756 0.80744 0.16012 0.0
H3007 H 0.8786 0.81279 0.17674 0.0
C3008 C 0.86992 0.75552 0.17886 0.0
C3009 C 0.85221 0.75105 0.18809 0.0
C3010 C 0.87058 0.77166 0.16692 0.0
C3011 C 0.85372 0.7839 0.16445 0.0
C3012 C 0.83632 0.77993 0.17438 0.0
H3013 H 0.87795 0.87927 0.08752 0.0
H3014 H 0.86394 0.86392 0.11475 0.0
C3015 C 0.83554 0.76358 0.18602 0.0
C3016 C 0.85359 0.79942 0.15017 0.0
H3017 H 0.88205 0.83623 0.13167 0.0
C3018 C 0.83845 0.79877 0.13704 0.0
C3019 C 0.86879 0.81397 0.14873 0.0
C3020 C 0.88437 0.81689 0.1632 0.0
C3021 C 0.83885 0.81135 0.12192 0.0
C3022 C 0.85521 0.82444 0.11954 0.0
C3023 C 0.86961 0.82602 0.13328 0.0
C3024 C 0.85893 0.83509 0.10231 0.0
C3025 C 0.82184 0.81027 0.1086 0.0
C3026 C 0.85995 0.8243 0.08606 0.0
C3027 C 0.86742 0.83324 0.07044 0.0
C3028 C 0.87439 0.85294 0.07095 0.0
C3029 C 0.87237 0.86412 0.08685 0.0
C3030 C 0.86452 0.85531 0.10239 0.0
H3031 H 0.80761 0.80652 0.11554 0.0
H3032 H 0.81985 0.82455 0.10121 0.0
H3033 H 0.82488 0.79821 0.0987 0.0
H3034 H 0.85636 0.80855 0.0857 0.0
H3035 H 0.86932 0.82426 0.0584 0.0
H3036 H 0.40699 0.60722 0.31796 0.0
H3037 H 0.42784 0.59491 0.34288 0.0
H3038 H 0.42555 0.65305 0.36783 0.0
H3039 H 0.40443 0.66517 0.34337 0.0
H3040 H 0.46466 0.61035 0.3494 0.0
H3041 H 0.41904 0.61726 0.41127 0.0
H3042 H 0.40819 0.61756 0.38895 0.0
H3043 H 0.41901 0.63987 0.39831 0.0
C3044 C 0.41045 0.61714 0.32907 0.0
C3045 C 0.40429 0.63718 0.32866 0.0
C3046 C 0.4224 0.61014 0.34324 0.0
C3047 C 0.42811 0.62301 0.35731 0.0
C3048 C 0.42103 0.64271 0.35736 0.0
H3049 H 0.5231 0.63517 0.4341 0.0
H3050 H 0.49258 0.63831 0.41595 0.0
C3051 C 0.40916 0.6497 0.34324 0.0
C3052 C 0.44358 0.6169 0.37054 0.0
H3053 H 0.45482 0.61659 0.41553 0.0
C3054 C 0.4624 0.61133 0.36387 0.0
C3055 C 0.44066 0.61839 0.38941 0.0
C3056 C 0.42056 0.62341 0.39741 0.0
C3057 C 0.47859 0.60805 0.37549 0.0
C3058 C 0.47582 0.61007 0.39433 0.0
C3059 C 0.4569 0.61513 0.40107 0.0
C3060 C 0.49268 0.60754 0.40706 0.0
C3061 C 0.49877 0.60328 0.36745 0.0
C3062 C 0.50237 0.58907 0.40854 0.0
C3063 C 0.51976 0.58727 0.4188 0.0
C3064 C 0.52771 0.60389 0.4279 0.0
C3065 C 0.51731 0.62212 0.42726 0.0
C3066 C 0.49992 0.62393 0.41689 0.0
H3067 H 0.49933 0.60653 0.35276 0.0
H3068 H 0.51073 0.61194 0.37426 0.0
H3069 H 0.50201 0.58717 0.36937 0.0
H3070 H 0.49678 0.57615 0.40134 0.0
H3071 H 0.52716 0.57292 0.4194 0.0
H3072 H 0.39232 0.15138 0.09777 0.0
H3073 H 0.37569 0.1723 0.12015 0.0
H3074 H 0.32485 0.17856 0.0848 0.0
H3075 H 0.3416 0.15745 0.06223 0.0
H3076 H 0.3426 0.21446 0.09497 0.0
H3077 H 0.32871 0.16816 0.15529 0.0
H3078 H 0.35342 0.16442 0.14655 0.0
H3079 H 0.33213 0.15757 0.13305 0.0
C3080 C 0.37739 0.15681 0.09498 0.0
C3081 C 0.36824 0.15298 0.0783 0.0
C3082 C 0.3678 0.16858 0.10784 0.0
C3083 C 0.34892 0.17676 0.10423 0.0
C3084 C 0.33931 0.17215 0.08791 0.0
H3085 H 0.31883 0.28753 0.16276 0.0
H3086 H 0.31206 0.25797 0.1442 0.0
C3087 C 0.34885 0.16014 0.07507 0.0
C3088 C 0.34116 0.19262 0.11621 0.0
H3089 H 0.33464 0.20353 0.16076 0.0
C3090 C 0.34022 0.21208 0.10928 0.0
C3091 C 0.3381 0.1894 0.13484 0.0
C3092 C 0.33794 0.1687 0.14284 0.0
C3093 C 0.33823 0.22862 0.12074 0.0
C3094 C 0.33665 0.22548 0.13958 0.0
C3095 C 0.33595 0.2059 0.14633 0.0
C3096 C 0.33873 0.24218 0.15252 0.0
C3097 C 0.33953 0.2493 0.11271 0.0
C3098 C 0.35545 0.24268 0.16393 0.0
C3099 C 0.35923 0.2594 0.17459 0.0
C3100 C 0.3464 0.27599 0.174 0.0
C3101 C 0.32916 0.2751 0.16319 0.0
C3102 C 0.32527 0.25825 0.15263 0.0
H3103 H 0.34409 0.24901 0.09829 0.0
H3104 H 0.3247 0.25663 0.11356 0.0
H3105 H 0.3504 0.25858 0.12029 0.0
H3106 H 0.36606 0.23046 0.16403 0.0
H3107 H 0.37269 0.25969 0.18267 0.0
H3108 H 0.53946 0.65066 0.80013 0.0
H3109 H 0.52196 0.63114 0.82292 0.0
H3110 H 0.5718 0.5904 0.82592 0.0
H3111 H 0.58979 0.61046 0.80344 0.0
H3112 H 0.50992 0.59231 0.828 0.0
H3113 H 0.56974 0.61364 0.87665 0.0
H3114 H 0.56818 0.62445 0.85442 0.0
H3115 H 0.57723 0.59939 0.85725 0.0
C3116 C 0.54658 0.63737 0.80544 0.0
C3117 C 0.56613 0.6323 0.80031 0.0
C3118 C 0.53652 0.62615 0.81839 0.0
C3119 C 0.54577 0.60959 0.82641 0.0
C3120 C 0.56458 0.60339 0.82015 0.0
H3121 H 0.47099 0.56192 0.91517 0.0
H3122 H 0.49319 0.56068 0.88885 0.0
C3123 C 0.57474 0.61472 0.80718 0.0
C3124 C 0.5364 0.60061 0.84261 0.0
H3125 H 0.54064 0.59975 0.88851 0.0
C3126 C 0.51675 0.59348 0.84123 0.0
C3127 C 0.54537 0.60233 0.85985 0.0
C3128 C 0.56623 0.61047 0.86228 0.0
C3129 C 0.50533 0.58933 0.85667 0.0
C3130 C 0.51401 0.59198 0.87391 0.0
C3131 C 0.53409 0.59775 0.87525 0.0
C3132 C 0.50182 0.59175 0.89059 0.0
C3133 C 0.48368 0.58358 0.85441 0.0
C3134 C 0.49988 0.60939 0.90064 0.0
C3135 C 0.48739 0.61009 0.91568 0.0
C3136 C 0.47652 0.59315 0.92098 0.0
C3137 C 0.47894 0.57528 0.91122 0.0
C3138 C 0.49159 0.57456 0.8962 0.0
H3139 H 0.47848 0.58538 0.84027 0.0
H3140 H 0.4817 0.5677 0.85828 0.0
H3141 H 0.47402 0.59277 0.86332 0.0
H3142 H 0.50761 0.62285 0.89653 0.0
H3143 H 0.48569 0.62413 0.92274 0.0
H3144 H 0.117 0.85763 0.59198 0.0
H3145 H 0.13375 0.83876 0.61586 0.0
H3146 H 0.15552 0.79679 0.57629 0.0
H3147 H 0.13916 0.81603 0.5523 0.0
H3148 H 0.12063 0.80121 0.62142 0.0
H3149 H 0.20262 0.79989 0.61107 0.0
H3150 H 0.18664 0.81847 0.60084 0.0
H3151 H 0.1886 0.79396 0.59112 0.0
C3152 C 0.12594 0.84474 0.58837 0.0
C3153 C 0.12677 0.83812 0.57043 0.0
C3154 C 0.13553 0.83403 0.60197 0.0
C3155 C 0.14594 0.81643 0.59784 0.0
C3156 C 0.14793 0.81055 0.57973 0.0
H3157 H 0.16913 0.70717 0.65294 0.0
H3158 H 0.16988 0.73558 0.63216 0.0
C3159 C 0.13851 0.82145 0.56606 0.0
C3160 C 0.15125 0.80248 0.61256 0.0
H3161 H 0.18904 0.7745 0.63045 0.0
C3162 C 0.13567 0.79564 0.6236 0.0
C3163 C 0.17081 0.79505 0.61517 0.0
C3164 C 0.18818 0.80235 0.60403 0.0
C3165 C 0.13893 0.78116 0.63685 0.0
C3166 C 0.15843 0.77355 0.63938 0.0
C3167 C 0.17414 0.78052 0.62853 0.0
C3168 C 0.1622 0.75741 0.65252 0.0
C3169 C 0.12127 0.77351 0.6475 0.0
C3170 C 0.15849 0.76049 0.67094 0.0
C3171 C 0.15784 0.74429 0.68276 0.0
C3172 C 0.16116 0.72483 0.67636 0.0
C3173 C 0.16654 0.72202 0.65821 0.0
C3174 C 0.16699 0.73821 0.64635 0.0
H3175 H 0.10681 0.7778 0.64123 0.0
H3176 H 0.12177 0.757 0.64871 0.0
H3177 H 0.12169 0.77992 0.6613 0.0
H3178 H 0.15507 0.77528 0.67598 0.0
H3179 H 0.1541 0.74687 0.69678 0.0
H3180 H 0.90771 0.36962 0.34729 0.0
H3181 H 0.92875 0.38823 0.36803 0.0
H3182 H 0.95063 0.42412 0.3239 0.0
H3183 H 0.93005 0.40481 0.30282 0.0
H3184 H 0.98026 0.40762 0.3416 0.0
H3185 H 0.93062 0.44115 0.39231 0.0
H3186 H 0.92422 0.41537 0.38971 0.0
H3187 H 0.92135 0.43223 0.37088 0.0
C3188 C 0.91676 0.38168 0.34202 0.0
C3189 C 0.9175 0.38555 0.3234 0.0
C3190 C 0.92855 0.39258 0.35396 0.0
C3191 C 0.94109 0.40781 0.3476 0.0
C3192 C 0.94093 0.41256 0.32912 0.0
H3193 H 0.04577 0.4404 0.41398 0.0
H3194 H 0.01881 0.44614 0.39227 0.0
C3195 C 0.92914 0.40155 0.31711 0.0
C3196 C 0.95658 0.41607 0.35977 0.0
H3197 H 0.9637 0.43032 0.40353 0.0
C3198 C 0.97667 0.41328 0.35492 0.0
C3199 C 0.95194 0.42352 0.37715 0.0
C3200 C 0.93083 0.42843 0.38269 0.0
C3201 C 0.99206 0.41586 0.36752 0.0
C3202 C 0.98718 0.42145 0.38536 0.0
C3203 C 0.96731 0.42583 0.38985 0.0
C3204 C 0.0021 0.41989 0.39995 0.0
C3205 C 0.01326 0.41104 0.36211 0.0
C3206 C 1.00129 0.4035 0.41167 0.0
C3207 C 0.01674 0.4 0.42389 0.0
C3208 C 0.03329 0.41291 0.42467 0.0
C3209 C 0.03351 0.42992 0.41348 0.0
C3210 C 0.01805 0.43334 0.40117 0.0
H3211 H 0.01434 0.40568 0.34796 0.0
H3212 H 0.02267 0.42459 0.36351 0.0
H3213 H 0.01951 0.39941 0.37118 0.0
H3214 H 0.98911 0.3929 0.4108 0.0
H3215 H 0.01605 0.38669 0.43212 0.0
H3216 H 0.36921 0.74638 0.30327 0.0
H3217 H 0.37395 0.77038 0.32795 0.0
H3218 H 0.33052 0.73879 0.36002 0.0
H3219 H 0.32612 0.7146 0.3359 0.0
H3220 H 0.34312 0.79492 0.34738 0.0
H3221 H 0.38303 0.73976 0.39053 0.0
H3222 H 0.38013 0.73645 0.36649 0.0
H3223 H 0.35949 0.73179 0.38137 0.0
C3224 C 0.36074 0.74454 0.3156 0.0
C3225 C 0.3473 0.72857 0.31758 0.0
C3226 C 0.36333 0.75832 0.32959 0.0
C3227 C 0.35263 0.75621 0.34575 0.0
C3228 C 0.33896 0.74057 0.34764 0.0
H3229 H 0.37285 0.8135 0.44968 0.0
H3230 H 0.3553 0.79514 0.42575 0.0
C3231 C 0.33637 0.72684 0.33374 0.0
C3232 C 0.35631 0.76979 0.36104 0.0
H3233 H 0.37655 0.77126 0.4032 0.0
C3234 C 0.35038 0.78981 0.35963 0.0
C3235 C 0.36555 0.76291 0.37701 0.0
C3236 C 0.37258 0.7416 0.379 0.0
C3237 C 0.35367 0.80327 0.37383 0.0
C3238 C 0.36343 0.79651 0.38963 0.0
C3239 C 0.36888 0.77635 0.39115 0.0
C3240 C 0.37038 0.81033 0.40385 0.0
C3241 C 0.34668 0.82455 0.37179 0.0
C3242 C 0.38419 0.82525 0.39941 0.0
C3243 C 0.39411 0.83567 0.41296 0.0
C3244 C 0.39054 0.83121 0.4312 0.0
C3245 C 0.37577 0.81722 0.4357 0.0
C3246 C 0.36582 0.80674 0.42208 0.0
H3247 H 0.33373 0.82557 0.36245 0.0
H3248 H 0.34238 0.83111 0.385 0.0
H3249 H 0.35896 0.83364 0.366 0.0
H3250 H 0.38828 0.82799 0.38548 0.0
H3251 H 0.40535 0.84653 0.40918 0.0
H3252 H 0.88349 0.64088 0.15459 0.0
H3253 H 0.90142 0.62655 0.12877 0.0
H3254 H 0.95759 0.63955 0.15475 0.0
H3255 H 0.93989 0.65315 0.18071 0.0
H3256 H 0.92759 0.64586 0.10636 0.0
H3257 H 0.96553 0.58225 0.1391 0.0
H3258 H 0.94487 0.59521 0.14951 0.0
H3259 H 0.96988 0.60494 0.15129 0.0
C3260 C 0.89965 0.64026 0.15494 0.0
C3261 C 0.9103 0.64814 0.16967 0.0
C3262 C 0.90985 0.6322 0.14015 0.0
C3263 C 0.93081 0.63173 0.13998 0.0
C3264 C 0.94141 0.63936 0.15477 0.0
H3265 H 0.01929 0.64045 0.05924 0.0
H3266 H 0.99082 0.64529 0.07943 0.0
C3267 C 0.93127 0.64736 0.1695 0.0
C3268 C 0.94189 0.62458 0.12396 0.0
H3269 H 0.98105 0.59494 0.11194 0.0
C3270 C 0.93903 0.63444 0.10744 0.0
C3271 C 0.9565 0.60941 0.12527 0.0
C3272 C 0.95922 0.59721 0.14221 0.0
C3273 C 0.95134 0.63045 0.09254 0.0
C3274 C 0.96717 0.6166 0.09441 0.0
C3275 C 0.96912 0.6058 0.11056 0.0
C3276 C 0.98275 0.61398 0.0804 0.0
C3277 C 0.94741 0.64131 0.07507 0.0
C3278 C 0.98784 0.59479 0.07435 0.0
C3279 C 0.00431 0.592 0.06309 0.0
C3280 C 0.01596 0.60836 0.05761 0.0
C3281 C 0.01041 0.62764 0.06308 0.0
C3282 C 0.99407 0.63041 0.07453 0.0
H3283 H 0.93136 0.64531 0.07375 0.0
H3284 H 0.95611 0.65541 0.07489 0.0
H3285 H 0.95185 0.63219 0.06321 0.0
H3286 H 0.97936 0.5819 0.07873 0.0
H3287 H 0.00815 0.57701 0.05887 0.0
H3288 H 0.15681 0.15172 0.93001 0.0
H3289 H 0.17279 0.17038 0.90532 0.0
H3290 H 0.11627 0.17358 0.87751 0.0
H3291 H 0.10043 0.1548 0.9018 0.0
H3292 H 0.15053 0.16601 0.85462 0.0
H3293 H 0.16017 0.231 0.90092 0.0
H3294 H 0.1708 0.2074 0.90742 0.0
H3295 H 0.14417 0.21029 0.90665 0.0
C3296 C 0.14795 0.15613 0.91845 0.0
C3297 C 0.12734 0.15218 0.91792 0.0
C3298 C 0.15705 0.16681 0.90444 0.0
C3299 C 0.14562 0.17353 0.88975 0.0
C3300 C 0.12532 0.16855 0.88876 0.0
H3301 H 0.12432 0.252 0.80668 0.0
H3302 H 0.12918 0.22299 0.82597 0.0
C3303 C 0.11626 0.158 0.90271 0.0
C3304 C 0.15389 0.18735 0.87614 0.0
H3305 H 0.16398 0.23676 0.87008 0.0
C3306 C 0.15396 0.18139 0.85799 0.0
C3307 C 0.15846 0.20734 0.88062 0.0
C3308 C 0.15836 0.21455 0.89992 0.0
C3309 C 0.15725 0.19523 0.8441 0.0
C3310 C 0.16014 0.21555 0.84854 0.0
C3311 C 0.16166 0.22118 0.86672 0.0
C3312 C 0.15878 0.23157 0.83484 0.0
C3313 C 0.1569 0.18808 0.82481 0.0
C3314 C 0.17374 0.24615 0.83348 0.0
C3315 C 0.17092 0.26288 0.8225 0.0
C3316 C 0.15302 0.26538 0.8128 0.0
C3317 C 0.13837 0.25041 0.81374 0.0
C3318 C 0.14119 0.23373 0.82472 0.0
H3319 H 0.16199 0.17233 0.82383 0.0
H3320 H 0.14135 0.18875 0.81965 0.0
H3321 H 0.16648 0.19749 0.81602 0.0
H3322 H 0.18736 0.24483 0.84129 0.0
H3323 H 0.18261 0.274 0.82185 0.0
H3324 H 0.61461 0.3946 0.66091 0.0
H3325 H 0.6002 0.40857 0.63335 0.0
H3326 H 0.54269 0.41221 0.6594 0.0
H3327 H 0.55708 0.39866 0.68709 0.0
H3328 H 0.5713 0.387 0.61639 0.0
H3329 H 0.54306 0.46307 0.62931 0.0
H3330 H 0.56199 0.45147 0.64321 0.0
H3331 H 0.53594 0.4462 0.64696 0.0
C3332 C 0.59908 0.39915 0.66101 0.0
C3333 C 0.58691 0.39546 0.67612 0.0
C3334 C 0.59087 0.40707 0.64522 0.0
C3335 C 0.57044 0.4116 0.64438 0.0
C3336 C 0.55858 0.40923 0.65986 0.0
H3337 H 0.46823 0.40729 0.58452 0.0
H3338 H 0.49615 0.41398 0.60468 0.0
C3339 C 0.56676 0.40127 0.67561 0.0
C3340 C 0.56066 0.41508 0.62676 0.0
H3341 H 0.52503 0.44381 0.60661 0.0
C3342 C 0.56162 0.39971 0.61393 0.0
C3343 C 0.54813 0.43169 0.62363 0.0
C3344 C 0.54737 0.44913 0.63645 0.0
C3345 C 0.54892 0.39953 0.5989 0.0
C3346 C 0.53523 0.41541 0.5965 0.0
C3347 C 0.53548 0.43161 0.60854 0.0
C3348 C 0.51849 0.41382 0.58356 0.0
C3349 C 0.54909 0.38154 0.58662 0.0
C3350 C 0.52175 0.41189 0.56493 0.0
C3351 C 0.50574 0.40785 0.55335 0.0
C3352 C 0.48627 0.40598 0.56025 0.0
C3353 C 0.48302 0.4088 0.57879 0.0
C3354 C 0.49897 0.41265 0.59032 0.0
H3355 H 0.55855 0.36926 0.59199 0.0
H3356 H 0.5337 0.37575 0.58466 0.0
H3357 H 0.55507 0.38589 0.57323 0.0
H3358 H 0.53668 0.41311 0.55941 0.0
H3359 H 0.50856 0.40612 0.53905 0.0
H3360 H 0.19937 0.18226 0.23386 0.0
H3361 H 0.23041 0.20139 0.23298 0.0
H3362 H 0.19781 0.25514 0.24557 0.0
H3363 H 0.16661 0.23603 0.24672 0.0
H3364 H 0.24318 0.23489 0.21318 0.0
H3365 H 0.23903 0.25092 0.28662 0.0
H3366 H 0.22339 0.23252 0.27583 0.0
H3367 H 0.2175 0.25861 0.27393 0.0
C3368 C 0.19872 0.19821 0.23619 0.0
C3369 C 0.18052 0.20759 0.2405 0.0
C3370 C 0.2165 0.20911 0.23569 0.0
C3371 C 0.21649 0.22959 0.2396 0.0
C3372 C 0.1982 0.23925 0.24288 0.0
H3373 H 0.30579 0.32089 0.25018 0.0
H3374 H 0.27591 0.30008 0.25071 0.0
C3375 C 0.18036 0.22835 0.24334 0.0
C3376 C 0.23571 0.24055 0.24095 0.0
H3377 H 0.26526 0.2664 0.27038 0.0
C3378 C 0.24807 0.24172 0.22569 0.0
C3379 C 0.24212 0.2493 0.25735 0.0
C3380 C 0.22994 0.24767 0.27443 0.0
C3381 C 0.26641 0.25193 0.22623 0.0
C3382 C 0.27272 0.26086 0.24258 0.0
C3383 C 0.26044 0.25949 0.25789 0.0
C3384 C 0.29138 0.27278 0.24378 0.0
C3385 C 0.27858 0.25361 0.20914 0.0
C3386 C 0.31018 0.26421 0.24036 0.0
C3387 C 0.3274 0.27611 0.24011 0.0
C3388 C 0.32605 0.29677 0.24328 0.0
C3389 C 0.30734 0.30504 0.2476 0.0
C3390 C 0.29021 0.29317 0.2479 0.0
H3391 H 0.26967 0.24979 0.19698 0.0
H3392 H 0.28459 0.26895 0.20751 0.0
H3393 H 0.29141 0.24314 0.20987 0.0
H3394 H 0.31147 0.24841 0.2375 0.0
H3395 H 0.34158 0.26931 0.23667 0.0
H3396 H 0.07283 0.94726 0.48593 0.0
H3397 H 0.05337 0.97813 0.48561 0.0
H3398 H 1.00078 0.94546 0.50152 0.0
H3399 H 0.02013 0.91437 0.50177 0.0
H3400 H 0.9942 0.97588 0.47463 0.0
H3401 H 0.03638 0.00417 0.53389 0.0
H3402 H 0.05159 0.99657 0.51514 0.0
H3403 H 0.03699 0.97832 0.52704 0.0
C3404 C 0.05704 0.94655 0.48906 0.0
C3405 C 0.04806 0.92838 0.49401 0.0
C3406 C 0.04598 0.96424 0.48899 0.0
C3407 C 0.02578 0.96413 0.49398 0.0
C3408 C 0.01642 0.94586 0.49779 0.0
H3409 H 0.93519 0.05528 0.50921 0.0
H3410 H 0.95457 0.02438 0.50906 0.0
C3411 C 0.02747 0.9281 0.49782 0.0
C3412 C 0.01472 0.98319 0.49596 0.0
H3413 H 0.01375 0.02669 0.52008 0.0
C3414 C 0.9984 0.98696 0.4846 0.0
C3415 C 0.02026 0.99761 0.50901 0.0
C3416 C 0.03715 0.99397 0.52209 0.0
C3417 C 0.98769 0.00496 0.4857 0.0
C3418 C 0.99324 0.01939 0.49874 0.0
C3419 C 0.00955 0.01561 0.5101 0.0
C3420 C 0.98216 0.03843 0.50077 0.0
C3421 C 0.97077 0.00858 0.47264 0.0
C3422 C 0.99153 0.05674 0.49712 0.0
C3423 C 0.98052 0.07452 0.49735 0.0
C3424 C 0.95996 0.07424 0.50127 0.0
C3425 C 0.95096 0.05601 0.506 0.0
C3426 C 0.96197 0.03829 0.50579 0.0
H3427 H 0.97156 0.99842 0.46081 0.0
H3428 H 0.95634 0.00591 0.4796 0.0
H3429 H 0.97086 0.02425 0.46773 0.0
H3430 H 0.00717 0.05716 0.49338 0.0
H3431 H 0.98789 0.0883 0.49359 0.0
H3432 H 0.19231 0.6866 0.76006 0.0
H3433 H 0.22075 0.70939 0.75988 0.0
H3434 H 0.18322 0.75625 0.73885 0.0
H3435 H 0.15454 0.73345 0.73895 0.0
H3436 H 0.23414 0.72817 0.72647 0.0
H3437 H 0.21617 0.78289 0.78063 0.0
H3438 H 0.20515 0.75829 0.77989 0.0
H3439 H 0.19675 0.7773 0.76462 0.0
C3440 C 0.18995 0.70189 0.75579 0.0
C3441 C 0.17114 0.70821 0.74955 0.0
C3442 C 0.20626 0.71486 0.75563 0.0
C3443 C 0.2041 0.73448 0.74934 0.0
C3444 C 0.18514 0.74121 0.74394 0.0
H3445 H 0.29244 0.8292 0.73872 0.0
H3446 H 0.26198 0.80925 0.73656 0.0
C3447 C 0.16875 0.72819 0.74409 0.0
C3448 C 0.22206 0.74721 0.74718 0.0
H3449 H 0.24546 0.78855 0.76377 0.0
C3450 C 0.23663 0.74141 0.73459 0.0
C3451 C 0.22515 0.76452 0.75767 0.0
C3452 C 0.21009 0.77116 0.77157 0.0
C3453 C 0.25427 0.75245 0.73223 0.0
C3454 C 0.25766 0.7695 0.74307 0.0
C3455 C 0.24289 0.77548 0.75546 0.0
C3456 C 0.27658 0.78111 0.7422 0.0
C3457 C 0.26895 0.74589 0.71796 0.0
C3458 C 0.29506 0.77189 0.74569 0.0
C3459 C 0.31258 0.78325 0.74671 0.0
C3460 C 0.31188 0.8041 0.74455 0.0
C3461 C 0.29348 0.81317 0.74043 0.0
C3462 C 0.27603 0.8018 0.73926 0.0
H3463 H 0.26153 0.73689 0.70729 0.0
H3464 H 0.27636 0.75889 0.71152 0.0
H3465 H 0.28061 0.73641 0.72428 0.0
H3466 H 0.29583 0.75603 0.7484 0.0
H3467 H 0.32644 0.77584 0.75017 0.0
H3468 H 0.51949 0.90851 0.9948 0.0
H3469 H 0.49645 0.93701 0.99548 0.0
H3470 H 0.54603 0.97691 0.00413 0.0
H3471 H 0.5691 0.94867 0.00342 0.0
H3472 H 0.48985 0.96809 0.02209 0.0
H3473 H 0.51916 0.99783 0.95733 0.0
H3474 H 0.52392 0.97262 0.96482 0.0
H3475 H 0.53779 0.99306 0.97424 0.0
C3476 C 0.52545 0.92331 0.99719 0.0
C3477 C 0.54616 0.92633 -0.00105 0.0
C3478 C 0.51228 0.93958 -0.00252 0.0
C3479 C 0.5196 0.9591 -0.00055 0.0
C3480 C 0.54012 0.96202 0.00219 0.0
H3481 H 0.46843 0.07828 0.00056 0.0
H3482 H 0.4907 0.04925 -0.00099 0.0
C3483 C 0.55326 0.94581 0.00191 0.0
C3484 C 0.50596 0.97653 -0.00183 0.0
H3485 H 0.49627 0.01838 0.97322 0.0
C3486 C 0.49115 0.97903 0.01136 0.0
C3487 C 0.50774 0.99079 0.98415 0.0
C3488 C 0.52288 0.98843 0.96922 0.0
C3489 C 0.47836 0.99567 0.01116 0.0
C3490 C 0.48016 0.00997 0.99716 0.0
C3491 C 0.49492 0.00742 0.98393 0.0
C3492 C 0.46685 0.0277 0.99614 0.0
C3493 C 0.46336 0.99808 0.02621 0.0
C3494 C 0.44615 0.02529 0.99423 0.0
C3495 C 0.43342 0.04181 0.99506 0.0
C3496 C 0.44115 0.06112 -0.00232 0.0
C3497 C 0.462 0.06364 -0.00155 0.0
C3498 C 0.47474 0.04705 -0.00233 0.0
H3499 H 0.46724 0.98876 0.03811 0.0
H3500 H 0.46233 0.01391 0.03057 0.0
H3501 H 0.44842 0.99336 0.02135 0.0
H3502 H 0.43977 0.01054 0.99258 0.0
H3503 H 0.41745 0.03935 0.99429 0.0
H3504 H 0.32751 0.72242 0.23955 0.0
H3505 H 0.2982 0.74423 0.23817 0.0
H3506 H 0.25973 0.69271 0.23617 0.0
H3507 H 0.28888 0.67077 0.23766 0.0
H3508 H 0.26528 0.74752 0.21343 0.0
H3509 H 0.24123 0.72318 0.2818 0.0
H3510 H 0.26592 0.71821 0.27308 0.0
H3511 H 0.24504 0.70347 0.26572 0.0
C3512 C 0.31285 0.7157 0.23845 0.0
C3513 C 0.31056 0.69482 0.23889 0.0
C3514 C 0.2961 0.7282 0.23773 0.0
C3515 C 0.27678 0.72008 0.2375 0.0
C3516 C 0.27449 0.69928 0.23675 0.0
H3517 H 0.1588 0.77623 0.24439 0.0
H3518 H 0.18634 0.75204 0.24344 0.0
C3519 C 0.29121 0.68677 0.23746 0.0
C3520 C 0.25906 0.73334 0.23887 0.0
H3521 H 0.22004 0.74573 0.26649 0.0
C3522 C 0.25538 0.74713 0.22501 0.0
C3523 C 0.24614 0.73277 0.254 0.0
C3524 C 0.24979 0.71875 0.2696 0.0
C3525 C 0.23905 0.7603 0.22583 0.0
C3526 C 0.22632 0.75995 0.24109 0.0
C3527 C 0.22983 0.74597 0.25483 0.0
C3528 C 0.20965 0.77441 0.24321 0.0
C3529 C 0.23543 0.77434 0.21024 0.0
C3530 C 0.21365 0.79493 0.24415 0.0
C3531 C 0.19801 0.80873 0.24477 0.0
C3532 C 0.17801 0.8023 0.24459 0.0
C3533 C 0.17403 0.78167 0.24464 0.0
C3534 C 0.18974 0.76784 0.24398 0.0
H3535 H 0.24305 0.76918 0.19776 0.0
H3536 H 0.21921 0.77589 0.20742 0.0
H3537 H 0.2414 0.78931 0.21369 0.0
H3538 H 0.2289 0.80031 0.24401 0.0
H3539 H 0.20162 0.82449 0.24484 0.0
H3540 H 0.58564 0.04684 0.47749 0.0
H3541 H 0.5665 0.0158 0.47759 0.0
H3542 H 0.51262 0.04891 0.48862 0.0
H3543 H 0.53156 0.08004 0.48837 0.0
H3544 H 0.54679 0.00307 0.50838 0.0
H3545 H 0.49401 0.00854 0.45094 0.0
H3546 H 0.51601 0.024 0.4527 0.0
H3547 H 0.4939 0.03009 0.46534 0.0
C3548 C 0.56961 0.04761 0.47939 0.0
C3549 C 0.56016 0.06594 0.48301 0.0
C3550 C 0.55872 0.02982 0.47953 0.0
C3551 C 0.53815 0.03002 0.48312 0.0
C3552 C 0.52842 0.0484 0.48555 0.0
H3553 H 0.44678 0.94409 0.50845 0.0
H3554 H 0.46755 0.9738 0.50512 0.0
C3555 C 0.5393 0.06623 0.48538 0.0
C3556 C 0.52736 0.01101 0.48634 0.0
H3557 H 0.48706 0.98354 0.473 0.0
C3558 C 0.53384 0.99868 0.50053 0.0
C3559 C 0.51043 0.00538 0.47615 0.0
C3560 C 0.50325 0.01759 0.46032 0.0
C3561 C 0.52353 0.98115 0.50513 0.0
C3562 C 0.50644 0.97567 0.4951 0.0
C3563 C 0.50011 0.98785 0.48075 0.0
C3564 C 0.49468 0.95749 0.49931 0.0
C3565 C 0.53065 0.96897 0.52101 0.0
C3566 C 0.50319 0.9384 0.4977 0.0
C3567 C 0.49137 0.92132 0.49977 0.0
C3568 C 0.47078 0.92307 0.50326 0.0
C3569 C 0.46257 0.9422 0.50575 0.0
C3570 C 0.47439 0.95922 0.50375 0.0
H3571 H 0.54083 0.97765 0.52988 0.0
H3572 H 0.51783 0.9636 0.52919 0.0
H3573 H 0.53895 0.95574 0.51601 0.0
H3574 H 0.51876 0.93671 0.49403 0.0
H3575 H 0.49814 0.90682 0.49763 0.0
H3576 H 0.15829 0.2649 0.74986 0.0
H3577 H 0.18828 0.24399 0.75259 0.0
H3578 H 0.22533 0.29518 0.74163 0.0
H3579 H 0.1956 0.31611 0.73887 0.0
H3580 H 0.22294 0.23764 0.72815 0.0
H3581 H 0.24271 0.27466 0.79279 0.0
H3582 H 0.21797 0.27592 0.78313 0.0
H3583 H 0.23765 0.29129 0.7743 0.0
C3584 C 0.17279 0.27159 0.74756 0.0
C3585 C 0.17457 0.2922 0.74423 0.0
C3586 C 0.18991 0.25966 0.74926 0.0
C3587 C 0.209 0.26817 0.7477 0.0
C3588 C 0.21073 0.28842 0.74323 0.0
H3589 H 0.33223 0.23229 0.75683 0.0
H3590 H 0.3004 0.25028 0.75611 0.0
C3591 C 0.19371 0.30032 0.74153 0.0
C3592 C 0.2272 0.25624 0.75147 0.0
H3593 H 0.26712 0.25309 0.78011 0.0
C3594 C 0.23252 0.24085 0.73959 0.0
C3595 C 0.23965 0.26051 0.76642 0.0
C3596 C 0.23419 0.27638 0.78001 0.0
C3597 C 0.25035 0.23004 0.74192 0.0
C3598 C 0.26295 0.2345 0.75675 0.0
C3599 C 0.25745 0.2497 0.76877 0.0
C3600 C 0.28218 0.2239 0.7596 0.0
C3601 C 0.25589 0.2144 0.72814 0.0
C3602 C 0.28253 0.20325 0.7627 0.0
C3603 C 0.30069 0.19293 0.76319 0.0
C3604 C 0.31887 0.20309 0.76067 0.0
C3605 C 0.31853 0.224 0.75888 0.0
C3606 C 0.30033 0.2343 0.75835 0.0
H3607 H 0.24704 0.21594 0.71553 0.0
H3608 H 0.27201 0.2153 0.7247 0.0
H3609 H 0.25295 0.19936 0.73384 0.0
H3610 H 0.26871 0.195 0.76412 0.0
H3611 H 0.3004 0.17685 0.76472 0.0
H3612 H 0.98621 0.90146 0.99334 0.0
H3613 H 0.01 0.92926 0.99394 0.0
H3614 H 0.96402 0.96912 0.9748 0.0
H3615 H 0.94043 0.94145 0.97371 0.0
H3616 H 1.00005 0.97786 0.96004 0.0
H3617 H 0.00701 0.96992 0.03444 0.0
H3618 H 0.01415 0.94818 0.02184 0.0
H3619 H 0.9886 0.95645 0.02152 0.0
C3620 C 0.98135 0.91602 0.98873 0.0
C3621 C 0.96139 0.91929 0.98359 0.0
C3622 C 0.99488 0.93196 0.98935 0.0
C3623 C 0.98861 0.95139 0.98494 0.0
C3624 C 0.96915 0.95432 0.97846 0.0
H3625 H 0.0316 0.07326 0.99211 0.0
H3626 H 0.01112 0.04295 0.99111 0.0
C3627 C 0.95568 0.93845 0.9778 0.0
C3628 C 1.00175 0.96895 0.98791 0.0
H3629 H 0.02601 0.99548 0.0207 0.0
C3630 C 0.00575 0.98167 0.9733 0.0
C3631 C 0.00906 0.97403 0.00528 0.0
C3632 C 0.00438 0.96156 0.02172 0.0
C3633 C 0.01689 0.99925 0.97553 0.0
C3634 C 0.02407 0.00435 0.99287 0.0
C3635 C 0.02038 0.99153 0.00746 0.0
C3636 C 0.03581 0.02278 0.99593 0.0
C3637 C 0.02105 0.01221 0.9593 0.0
C3638 C 0.05626 0.02149 -0.00019 0.0
C3639 C 0.06797 0.03874 0.00042 0.0
C3640 C 0.05939 0.05761 -0.00267 0.0
C3641 C 0.03864 0.05897 0.99467 0.0
C3642 C 0.02695 0.04166 0.99391 0.0
H3643 H 0.01782 0.00433 0.94643 0.0
H3644 H 0.01151 0.02575 0.95993 0.0
H3645 H 0.03689 0.01714 0.9592 0.0
H3646 H 0.06333 0.00706 0.00151 0.0
H3647 H 0.08391 0.03721 0.00253 0.0
H3648 H 0.80013 0.82903 0.75535 0.0
H3649 H 0.76942 0.80945 0.75689 0.0
H3650 H 0.80275 0.75594 0.74498 0.0
H3651 H 0.83367 0.77545 0.74363 0.0
H3652 H 0.75403 0.78847 0.72807 0.0
H3653 H 0.76669 0.73794 0.78632 0.0
H3654 H 0.78151 0.76007 0.78254 0.0
H3655 H 0.78641 0.73771 0.76988 0.0
C3656 C 0.80103 0.81302 0.75346 0.0
C3657 C 0.81936 0.80379 0.74938 0.0
C3658 C 0.78343 0.80186 0.75428 0.0
C3659 C 0.78376 0.78123 0.75111 0.0
C3660 C 0.80216 0.7718 0.74778 0.0
H3661 H 0.69325 0.69016 0.73816 0.0
H3662 H 0.72388 0.70993 0.73825 0.0
C3663 C 0.81984 0.78297 0.74701 0.0
C3664 C 0.76467 0.76999 0.74984 0.0
H3665 H 0.73872 0.73081 0.76768 0.0
C3666 C 0.75062 0.77593 0.73681 0.0
C3667 C 0.76028 0.7536 0.76119 0.0
C3668 C 0.77442 0.74702 0.77589 0.0
C3669 C 0.73246 0.76571 0.73459 0.0
C3670 C 0.72808 0.74929 0.74591 0.0
C3671 C 0.74211 0.74338 0.75898 0.0
C3672 C 0.70914 0.73786 0.74436 0.0
C3673 C 0.71834 0.77228 0.71987 0.0
C3674 C 0.69058 0.74705 0.74746 0.0
C3675 C 0.67295 0.73578 0.7473 0.0
C3676 C 0.67362 0.71507 0.7442 0.0
C3677 C 0.69218 0.70607 0.74058 0.0
C3678 C 0.70974 0.71733 0.7407 0.0
H3679 H 0.726 0.7816 0.70958 0.0
H3680 H 0.71151 0.7592 0.71304 0.0
H3681 H 0.70615 0.78132 0.72589 0.0
H3682 H 0.68978 0.76281 0.75062 0.0
H3683 H 0.65893 0.74313 0.75035 0.0
H3684 H 0.80387 0.32617 0.24435 0.0
H3685 H 0.77512 0.30376 0.24358 0.0
H3686 H 0.81376 0.25348 0.2536 0.0
H3687 H 0.84276 0.27581 0.25437 0.0
H3688 H 0.78235 0.24731 0.22669 0.0
H3689 H 0.75396 0.27842 0.2913 0.0
H3690 H 0.75933 0.29657 0.27411 0.0
H3691 H 0.77931 0.28213 0.28368 0.0
C3692 C 0.80635 0.31031 0.24611 0.0
C3693 C 0.82561 0.3028 0.24957 0.0
C3694 C 0.78987 0.29755 0.24578 0.0
C3695 C 0.79229 0.27706 0.24894 0.0
C3696 C 0.81159 0.2693 0.25129 0.0
H3697 H 0.70862 0.1778 0.25548 0.0
H3698 H 0.73836 0.19888 0.25696 0.0
C3699 C 0.82815 0.28207 0.25163 0.0
C3700 C 0.77456 0.26394 0.25049 0.0
H3701 H 0.73275 0.2558 0.27591 0.0
C3702 C 0.77155 0.24905 0.23749 0.0
C3703 C 0.76052 0.26631 0.26462 0.0
C3704 C 0.76344 0.2816 0.27934 0.0
C3705 C 0.75457 0.23675 0.23798 0.0
C3706 C 0.74048 0.23916 0.25208 0.0
C3707 C 0.74357 0.25398 0.26514 0.0
C3708 C 0.72228 0.22661 0.25327 0.0
C3709 C 0.75157 0.22166 0.22311 0.0
C3710 C 0.70326 0.2353 0.25175 0.0
C3711 C 0.68617 0.2233 0.2511 0.0
C3712 C 0.68784 0.20238 0.25198 0.0
C3713 C 0.70682 0.19385 0.25462 0.0
C3714 C 0.72386 0.20585 0.25532 0.0
H3715 H 0.76098 0.22501 0.21113 0.0
H3716 H 0.75578 0.20663 0.22813 0.0
H3717 H 0.73569 0.22115 0.21881 0.0
H3718 H 0.70171 0.25132 0.25031 0.0
H3719 H 0.67179 0.23035 0.24901 0.0
H3720 H 0.8271 0.22476 0.75305 0.0
H3721 H 0.79784 0.24639 0.75168 0.0
H3722 H 0.76598 0.20118 0.72182 0.0
H3723 H 0.79496 0.17895 0.72414 0.0
H3724 H 0.77785 0.2636 0.72724 0.0
H3725 H 0.72631 0.21058 0.76039 0.0
H3726 H 0.75277 0.20596 0.75877 0.0
H3727 H 0.73651 0.2003 0.74007 0.0
C3728 C 0.81396 0.2195 0.74597 0.0
C3729 C 0.81331 0.20013 0.7387 0.0
C3730 C 0.79715 0.23187 0.74529 0.0
C3731 C 0.7794 0.22527 0.73711 0.0
C3732 C 0.77917 0.20637 0.72884 0.0
H3733 H 0.68674 0.30786 0.70518 0.0
H3734 H 0.71451 0.28445 0.7071 0.0
C3735 C 0.79584 0.19379 0.7299 0.0
C3736 C 0.76132 0.23831 0.7372 0.0
H3737 H 0.71131 0.23922 0.74671 0.0
C3738 C 0.76335 0.25824 0.73162 0.0
C3739 C 0.74241 0.2316 0.74336 0.0
C3740 C 0.7394 0.21102 0.75118 0.0
C3741 C 0.74708 0.27147 0.73169 0.0
C3742 C 0.7279 0.26438 0.73663 0.0
C3743 C 0.7259 0.2446 0.74262 0.0
C3744 C 0.70976 0.27719 0.73525 0.0
C3745 C 0.75085 0.29304 0.72684 0.0
C3746 C 0.69685 0.2799 0.75007 0.0
C3747 C 0.68043 0.29291 0.7488 0.0
C3748 C 0.67696 0.30356 0.73279 0.0
C3749 C 0.68938 0.30017 0.71783 0.0
C3750 C 0.70537 0.2869 0.71895 0.0
H3751 H 0.76653 0.2974 0.72979 0.0
H3752 H 0.74838 0.29515 0.71216 0.0
H3753 H 0.74074 0.30323 0.73433 0.0
H3754 H 0.69976 0.27236 0.76273 0.0
H3755 H 0.67098 0.29523 0.76048 0.0
H3756 H 0.69054 0.81842 0.24028 0.0
H3757 H 0.72013 0.79718 0.24142 0.0
H3758 H 0.68316 0.74624 0.25356 0.0
H3759 H 0.65331 0.76744 0.25226 0.0
H3760 H 0.73164 0.77618 0.2728 0.0
H3761 H 0.72155 0.7252 0.21431 0.0
H3762 H 0.70817 0.74851 0.21636 0.0
H3763 H 0.7006 0.72722 0.22938 0.0
C3764 C 0.6886 0.80261 0.2428 0.0
C3765 C 0.66953 0.79465 0.24622 0.0
C3766 C 0.70557 0.79051 0.24353 0.0
C3767 C 0.70388 0.77014 0.24759 0.0
C3768 C 0.6848 0.76188 0.25018 0.0
H3769 H 0.79505 0.67837 0.26054 0.0
H3770 H 0.76377 0.69716 0.26172 0.0
C3771 C 0.66774 0.77402 0.24941 0.0
C3772 C 0.72225 0.75805 0.25036 0.0
H3773 H 0.74888 0.71874 0.23358 0.0
C3774 C 0.73543 0.7636 0.26423 0.0
C3775 C 0.72708 0.74159 0.23926 0.0
C3776 C 0.71373 0.73529 0.22388 0.0
C3777 C 0.75331 0.75315 0.26731 0.0
C3778 C 0.75836 0.73692 0.25598 0.0
C3779 C 0.74502 0.73118 0.24228 0.0
C3780 C 0.77762 0.72599 0.2577 0.0
C3781 C 0.76649 0.75943 0.28281 0.0
C3782 C 0.79592 0.73598 0.25553 0.0
C3783 C 0.8139 0.72527 0.25503 0.0
C3784 C 0.81387 0.70433 0.25646 0.0
C3785 C 0.7956 0.69449 0.25943 0.0
C3786 C 0.77768 0.7052 0.26002 0.0
H3787 H 0.75793 0.76777 0.29321 0.0
H3788 H 0.77367 0.74632 0.2893 0.0
H3789 H 0.77842 0.76942 0.27767 0.0
H3790 H 0.79626 0.75196 0.25335 0.0
H3791 H 0.82765 0.73329 0.25244 0.0
H3792 H 0.4311 0.55069 0.01106 0.0
H3793 H 0.44785 0.51827 0.01082 0.0
H3794 H 0.50133 0.54599 0.99023 0.0
H3795 H 0.48478 0.57857 0.99082 0.0
H3796 H 0.46115 0.49943 0.98114 0.0
H3797 H 0.52427 0.50995 0.02849 0.0
H3798 H 0.5035 0.52709 0.0274 0.0
H3799 H 0.52349 0.5287 0.01122 0.0
C3800 C 0.4466 0.54997 0.00692 0.0
C3801 C 0.45664 0.56722 0.00105 0.0
C3802 C 0.45612 0.53139 0.0067 0.0
C3803 C 0.47589 0.52963 0.00059 0.0
C3804 C 0.48622 0.54697 0.99536 0.0
H3805 H 0.55624 0.4342 0.97291 0.0
H3806 H 0.53695 0.46511 0.97445 0.0
C3807 C 0.47674 0.56563 0.99572 0.0
C3808 C 0.48506 0.50953 -0.00165 0.0
H3809 H 0.52595 0.48145 0.00919 0.0
C3810 C 0.47523 0.49543 0.98742 0.0
C3811 C 0.50342 0.50427 0.00654 0.0
C3812 C 0.51419 0.51822 0.01921 0.0
C3813 C 0.48351 0.47649 0.9841 0.0
C3814 C 0.50206 0.47146 0.99197 0.0
C3815 C 0.51177 0.48541 0.00307 0.0
C3816 C 0.51199 0.45198 0.98864 0.0
C3817 C 0.47268 0.46217 0.97183 0.0
C3818 C 0.50401 0.43414 0.99554 0.0
C3819 C 0.51499 0.41632 0.99458 0.0
C3820 C 0.53418 0.41617 0.98682 0.0
C3821 C 0.5415 0.43381 0.97894 0.0
C3822 C 0.53055 0.45153 0.9799 0.0
H3823 H 0.46041 0.46958 0.96428 0.0
H3824 H 0.48322 0.45536 0.96203 0.0
H3825 H 0.46614 0.44994 0.98003 0.0
H3826 H 0.4898 0.4342 0.00253 0.0
H3827 H 0.50908 0.40308 0.00103 0.0
H3828 H 0.93504 0.55103 0.48891 0.0
H3829 H 0.95583 0.52106 0.4887 0.0
H3830 H 0.00796 0.55687 0.49953 0.0
H3831 H 0.98719 0.587 0.50002 0.0
H3832 H 0.98935 0.5096 0.4686 0.0
H3833 H 0.00739 0.51681 0.54149 0.0
H3834 H 0.98789 0.53118 0.5308 0.0
H3835 H 0.01359 0.53824 0.52805 0.0
C3836 C 0.95097 0.55261 0.49101 0.0
C3837 C 0.95943 0.57141 0.4946 0.0
C3838 C 0.96283 0.53543 0.49091 0.0
C3839 C 0.98336 0.53668 0.4945 0.0
C3840 C 0.99206 0.55553 0.49711 0.0
H3841 H 0.07837 0.45023 0.5044 0.0
H3842 H 0.05706 0.47981 0.50519 0.0
C3843 C 0.98021 0.57276 0.49718 0.0
C3844 C 0.99542 0.51815 0.49604 0.0
H3845 H 0.02348 0.4907 0.52554 0.0
C3846 C 0.99677 0.50542 0.48105 0.0
C3847 C 0.00499 0.5127 0.51235 0.0
C3848 C 0.0033 0.52532 0.52916 0.0
C3849 C 0.0078 0.48759 0.48179 0.0
C3850 C 0.01741 0.48215 0.49809 0.0
C3851 C 0.01602 0.49486 0.5131 0.0
C3852 C 0.02974 0.46379 0.49954 0.0
C3853 C 0.00952 0.47499 0.46497 0.0
C3854 C 0.02132 0.44481 0.49685 0.0
C3855 C 0.03348 0.42779 0.49644 0.0
C3856 C 0.05427 0.4295 0.49874 0.0
C3857 C 0.06244 0.44839 0.5025 0.0
C3858 C 0.05028 0.46535 0.50294 0.0
H3859 H 0.00524 0.48345 0.45267 0.0
H3860 H 0.025 0.46933 0.46324 0.0
H3861 H 0.99941 0.46194 0.46615 0.0
H3862 H 0.00542 0.44323 0.49458 0.0
H3863 H 0.02672 0.41348 0.4935 0.0
H3864 H 0.03055 0.58053 0.99308 0.0
H3865 H 0.0115 0.54933 0.99411 0.0
H3866 H 0.06565 0.51577 0.98558 0.0
H3867 H 0.08482 0.5468 0.98466 0.0
H3868 H 0.00759 0.51542 0.97032 0.0
H3869 H 0.04476 0.49624 0.03513 0.0
H3870 H 0.04576 0.52095 0.02546 0.0
H3871 H 0.06139 0.50142 0.01669 0.0
C3872 C 0.03834 0.56655 0.99094 0.0
C3873 C 0.05923 0.56612 0.98896 0.0
C3874 C 0.02744 0.54873 0.99164 0.0
C3875 C 0.03727 0.53027 0.99037 0.0
C3876 C 0.05787 0.52987 0.98699 0.0
H3877 H 0.99739 0.40714 0.00187 0.0
H3878 H 0.01751 0.43754 -0.00102 0.0
C3879 C 0.06877 0.54763 0.98635 0.0
C3880 C 0.02624 0.51145 0.99369 0.0
H3881 H 0.02297 0.47202 0.02284 0.0
C3882 C 0.01091 0.50594 0.9818 0.0
C3883 C 0.03063 0.49913 0.00872 0.0
C3884 C 0.04641 0.50475 0.02235 0.0
C3885 C 1.0 0.48827 0.98442 0.0
C3886 C 0.00432 0.47603 -0.0005 0.0
C3887 C 0.01973 0.48146 0.01132 0.0
C3888 C 0.99271 0.45769 0.0033 0.0
C3889 C 0.98411 0.48267 0.9709 0.0
C3890 C 0.97235 0.45902 0.00752 0.0
C3891 C 0.96086 0.44174 0.00931 0.0
C3892 C 0.96955 0.4228 0.00694 0.0
C3893 C 0.99026 0.42149 0.00386 0.0
C3894 C 1.00175 0.43883 0.00209 0.0
H3895 H 0.98575 0.49107 0.95806 0.0
H3896 H 0.98462 0.46643 0.9679 0.0
H3897 H 0.96918 0.48614 0.97661 0.0
H3898 H 0.9652 0.47345 0.00887 0.0
H3899 H 0.94499 0.44328 0.01178 0.0
H3900 H 0.49346 0.40757 0.49082 0.0
H3901 H 0.51538 0.43684 0.49123 0.0
H3902 H 0.4642 0.4754 0.48524 0.0
H3903 H 0.44226 0.44632 0.4845 0.0
H3904 H 0.49661 0.48726 0.46447 0.0
H3905 H 0.5191 0.47325 0.53554 0.0
H3906 H 0.52376 0.45287 0.52037 0.0
H3907 H 0.4985 0.46039 0.52498 0.0
C3908 C 0.48691 0.42226 0.4892 0.0
C3909 C 0.4661 0.42463 0.48773 0.0
C3910 C 0.49944 0.43898 0.48967 0.0
C3911 C 0.49135 0.4583 0.48872 0.0
C3912 C 0.47073 0.46063 0.48617 0.0
H3913 H 0.53822 0.57978 0.49362 0.0
H3914 H 0.5162 0.55057 0.49457 0.0
C3915 C 0.45821 0.44397 0.48572 0.0
C3916 C 0.50419 0.47619 0.49086 0.0
H3917 H 0.53499 0.50018 0.52056 0.0
C3918 C 0.50497 0.49012 0.47674 0.0
C3919 C 0.51497 0.47992 0.50695 0.0
C3920 C 0.51396 0.46594 0.52291 0.0
C3921 C 0.51655 0.50752 0.47811 0.0
C3922 C 0.52736 0.51124 0.49418 0.0
C3923 C 0.52659 0.49732 0.50831 0.0
C3924 C 0.54029 0.52907 0.49614 0.0
C3925 C 0.51753 0.52152 0.46217 0.0
C3926 C 0.56102 0.52669 0.49771 0.0
C3927 C 0.57359 0.54331 0.4973 0.0
C3928 C 0.56566 0.56265 0.49541 0.0
C3929 C 0.5448 0.5651 0.49509 0.0
C3930 C 0.53221 0.54842 0.49545 0.0
H3931 H 0.51201 0.51437 0.4496 0.0
H3932 H 0.50807 0.53479 0.46491 0.0
H3933 H 0.53306 0.52675 0.45989 0.0
H3934 H 0.56754 0.5119 0.4984 0.0
H3935 H 0.58959 0.54092 0.49768 0.0
loop_
_geom_bond_atom_site_label_1
_geom_bond_atom_site_label_2
_geom_bond_distance
_geom_bond_site_symmetry_2
_ccdc_geom_bond_type
C0 C1 1.351 . S
C0 N3 1.368 . S
C0 H5 0.931 . S
C1 C0 1.351 . S
C1 N2 1.373 . S
C1 H29 0.930 . S
N2 C1 1.373 . S
N2 C4 1.340 . S
N3 C0 1.368 . S
N3 C4 1.321 . S
N3 Co6 2.135 . S
C4 N2 1.340 . S
C4 N3 1.321 . S
C4 H28 0.930 . S
H5 C0 0.931 . S
Co6 N3 2.135 . S
Co6 N9 2.121 . S
Co6 O14 2.055 . S
Co6 O17 2.039 . S
Co6 N20 2.140 . S
C7 O8 1.227 . S
C7 O17 1.265 . S
O8 C7 1.227 . S
N9 Co6 2.121 . S
N9 C11 1.375 . S
N9 C12 1.313 . S
C10 C11 1.338 . S
C10 N13 1.377 . S
C10 H30 0.930 . S
C11 N9 1.375 . S
C11 C10 1.338 . S
C11 H15 0.931 . S
C12 N9 1.313 . S
C12 N13 1.344 . S
C12 H16 0.930 . S
N13 C10 1.377 . S
N13 C12 1.344 . S
O14 Co6 2.055 . S
O14 C18 1.253 . S
H15 C11 0.931 . S
H16 C12 0.930 . S
O17 Co6 2.039 . S
O17 C7 1.265 . S
C18 O14 1.253 . S
C18 O19 1.227 . S
O19 C18 1.227 . S
N20 Co6 2.140 . S
N20 C23 1.346 . S
N20 C24 1.345 . S
C21 C22 1.387 . S
C21 C25 1.391 . S
C22 C21 1.387 . S
C22 C23 1.369 . S
C22 H31 0.929 . S
C23 N20 1.346 . S
C23 C22 1.369 . S
C23 H26 0.928 . S
C24 N20 1.345 . S
C24 C25 1.371 . S
C24 H27 0.931 . S
C25 C21 1.391 . S
C25 C24 1.371 . S
C25 H32 0.930 . S
H26 C23 0.928 . S
H27 C24 0.931 . S
H28 C4 0.930 . S
H29 C1 0.930 . S
H30 C10 0.930 . S
H31 C22 0.929 . S
H32 C25 0.930 . S
C33 C34 1.351 . S
C33 N36 1.368 . S
C33 H38 0.931 . S
C34 C33 1.351 . S
C34 N35 1.373 . S
C34 H62 0.930 . S
N35 C34 1.373 . S
N35 C37 1.340 . S
N36 C33 1.368 . S
N36 C37 1.321 . S
N36 Co39 2.135 . S
C37 N35 1.340 . S
C37 N36 1.321 . S
C37 H61 0.930 . S
H38 C33 0.931 . S
Co39 N36 2.135 . S
Co39 N42 2.121 . S
Co39 O47 2.055 . S
Co39 O50 2.039 . S
Co39 N53 2.140 . S
C40 O41 1.227 . S
C40 O50 1.265 . S
O41 C40 1.227 . S
N42 Co39 2.121 . S
N42 C44 1.375 . S
N42 C45 1.313 . S
C43 C44 1.338 . S
C43 N46 1.377 . S
C43 H63 0.930 . S
C44 N42 1.375 . S
C44 C43 1.338 . S
C44 H48 0.931 . S
C45 N42 1.313 . S
C45 N46 1.344 . S
C45 H49 0.930 . S
N46 C43 1.377 . S
N46 C45 1.344 . S
O47 Co39 2.055 . S
O47 C51 1.253 . S
H48 C44 0.931 . S
H49 C45 0.930 . S
O50 Co39 2.039 . S
O50 C40 1.265 . S
C51 O47 1.253 . S
C51 O52 1.227 . S
O52 C51 1.227 . S
N53 Co39 2.140 . S
N53 C56 1.346 . S
N53 C57 1.345 . S
C54 C55 1.387 . S
C54 C58 1.391 . S
C55 C54 1.387 . S
C55 C56 1.369 . S
C55 H64 0.929 . S
C56 N53 1.346 . S
C56 C55 1.369 . S
C56 H59 0.928 . S
C57 N53 1.345 . S
C57 C58 1.371 . S
C57 H60 0.931 . S
C58 C54 1.391 . S
C58 C57 1.371 . S
C58 H65 0.930 . S
H59 C56 0.928 . S
H60 C57 0.931 . S
H61 C37 0.930 . S
H62 C34 0.930 . S
H63 C43 0.930 . S
H64 C55 0.929 . S
H65 C58 0.930 . S
C66 C67 1.351 . S
C66 N69 1.368 . S
C66 H71 0.931 . S
C67 C66 1.351 . S
C67 N68 1.373 . S
C67 H95 0.930 . S
N68 C67 1.373 . S
N68 C70 1.340 . S
N69 C66 1.368 . S
N69 C70 1.321 . S
N69 Co72 2.135 . S
C70 N68 1.340 . S
C70 N69 1.321 . S
C70 H94 0.930 . S
H71 C66 0.931 . S
Co72 N69 2.135 . S
Co72 N75 2.121 . S
Co72 O80 2.055 . S
Co72 O83 2.039 . S
Co72 N86 2.140 . S
C73 O74 1.227 . S
C73 O83 1.265 . S
O74 C73 1.227 . S
N75 Co72 2.121 . S
N75 C77 1.375 . S
N75 C78 1.313 . S
C76 C77 1.338 . S
C76 N79 1.377 . S
C76 H96 0.930 . S
C77 N75 1.375 . S
C77 C76 1.338 . S
C77 H81 0.931 . S
C78 N75 1.313 . S
C78 N79 1.344 . S
C78 H82 0.930 . S
N79 C76 1.377 . S
N79 C78 1.344 . S
O80 Co72 2.055 . S
O80 C84 1.253 . S
H81 C77 0.931 . S
H82 C78 0.930 . S
O83 Co72 2.039 . S
O83 C73 1.265 . S
C84 O80 1.253 . S
C84 O85 1.227 . S
O85 C84 1.227 . S
N86 Co72 2.140 . S
N86 C89 1.346 . S
N86 C90 1.345 . S
C87 C88 1.387 . S
C87 C91 1.391 . S
C88 C87 1.387 . S
C88 C89 1.369 . S
C88 H97 0.929 . S
C89 N86 1.346 . S
C89 C88 1.369 . S
C89 H92 0.928 . S
C90 N86 1.345 . S
C90 C91 1.371 . S
C90 H93 0.931 . S
C91 C87 1.391 . S
C91 C90 1.371 . S
C91 H98 0.930 . S
H92 C89 0.928 . S
H93 C90 0.931 . S
H94 C70 0.930 . S
H95 C67 0.930 . S
H96 C76 0.930 . S
H97 C88 0.929 . S
H98 C91 0.930 . S
C99 C100 1.351 . S
C99 N102 1.368 . S
C99 H104 0.931 . S
C100 C99 1.351 . S
C100 N101 1.373 . S
C100 H128 0.930 . S
N101 C100 1.373 . S
N101 C103 1.340 . S
N102 C99 1.368 . S
N102 C103 1.321 . S
N102 Co105 2.135 . S
C103 N101 1.340 . S
C103 N102 1.321 . S
C103 H127 0.930 . S
H104 C99 0.931 . S
Co105 N102 2.135 . S
Co105 N108 2.156 . S
Co105 O113 2.055 . S
Co105 O116 2.039 . S
Co105 N119 2.140 . S
C106 O107 1.227 . S
C106 O116 1.265 . S
O107 C106 1.227 . S
N108 Co105 2.156 . S
N108 C110 1.365 1_554 S
N108 C111 1.285 1_554 S
C109 C110 1.338 . S
C109 N112 1.377 . S
C109 H129 0.930 . S
C110 N108 1.365 1_556 S
C110 C109 1.338 . S
C110 H114 0.931 1_556 S
C111 N108 1.285 1_556 S
C111 N112 1.344 . S
C111 H115 0.930 . S
N112 C109 1.377 . S
N112 C111 1.344 . S
O113 Co105 2.055 . S
O113 C117 1.253 . S
H114 C110 0.931 1_554 S
H115 C111 0.930 . S
O116 Co105 2.039 . S
O116 C106 1.265 . S
C117 O113 1.253 . S
C117 O118 1.227 . S
O118 C117 1.227 . S
N119 Co105 2.140 . S
N119 C122 1.346 . S
N119 C123 1.345 . S
C120 C121 1.387 . S
C120 C124 1.391 . S
C121 C120 1.387 . S
C121 C122 1.369 . S
C121 H130 0.929 . S
C122 N119 1.346 . S
C122 C121 1.369 . S
C122 H125 0.928 . S
C123 N119 1.345 . S
C123 C124 1.371 . S
C123 H126 0.931 . S
C124 C120 1.391 . S
C124 C123 1.371 . S
C124 H131 0.930 . S
H125 C122 0.928 . S
H126 C123 0.931 . S
H127 C103 0.930 . S
H128 C100 0.930 . S
H129 C109 0.930 . S
H130 C121 0.929 . S
H131 C124 0.930 . S
C132 C133 1.351 . S
C132 N135 1.368 . S
C132 H137 0.931 . S
C133 C132 1.351 . S
C133 N134 1.373 . S
C133 H161 0.930 . S
N134 C133 1.373 . S
N134 C136 1.340 . S
N135 C132 1.368 . S
N135 C136 1.321 . S
N135 Co138 2.135 . S
C136 N134 1.340 . S
C136 N135 1.321 . S
C136 H160 0.930 . S
H137 C132 0.931 . S
Co138 N135 2.135 . S
Co138 N141 2.121 . S
Co138 O146 2.055 . S
Co138 O149 2.039 . S
Co138 N152 2.140 . S
C139 O140 1.227 . S
C139 O149 1.265 . S
O140 C139 1.227 . S
N141 Co138 2.121 . S
N141 C143 1.375 . S
N141 C144 1.313 . S
C142 C143 1.338 . S
C142 N145 1.377 . S
C142 H162 0.930 . S
C143 N141 1.375 . S
C143 C142 1.338 . S
C143 H147 0.931 . S
C144 N141 1.313 . S
C144 N145 1.344 . S
C144 H148 0.930 . S
N145 C142 1.377 . S
N145 C144 1.344 . S
O146 Co138 2.055 . S
O146 C150 1.253 . S
H147 C143 0.931 . S
H148 C144 0.930 . S
O149 Co138 2.039 . S
O149 C139 1.265 . S
C150 O146 1.253 . S
C150 O151 1.227 . S
O151 C150 1.227 . S
N152 Co138 2.140 . S
N152 C155 1.346 . S
N152 C156 1.345 . S
C153 C154 1.387 . S
C153 C157 1.391 . S
C154 C153 1.387 . S
C154 C155 1.369 . S
C154 H163 0.929 . S
C155 N152 1.346 . S
C155 C154 1.369 . S
C155 H158 0.928 . S
C156 N152 1.345 . S
C156 C157 1.371 . S
C156 H159 0.931 . S
C157 C153 1.391 . S
C157 C156 1.371 . S
C157 H164 0.930 . S
H158 C155 0.928 . S
H159 C156 0.931 . S
H160 C136 0.930 . S
H161 C133 0.930 . S
H162 C142 0.930 . S
H163 C154 0.929 . S
H164 C157 0.930 . S
C165 C166 1.351 . S
C165 N168 1.368 . S
C165 H170 0.931 . S
C166 C165 1.351 . S
C166 N167 1.373 . S
C166 H194 0.930 . S
N167 C166 1.373 . S
N167 C169 1.340 . S
N168 C165 1.368 . S
N168 C169 1.321 . S
N168 Co171 2.135 . S
C169 N167 1.340 . S
C169 N168 1.321 . S
C169 H193 0.930 . S
H170 C165 0.931 . S
Co171 N168 2.135 . S
Co171 N174 2.121 . S
Co171 O179 2.055 . S
Co171 O182 2.039 . S
Co171 N185 2.140 . S
C172 O173 1.227 . S
C172 O182 1.265 . S
O173 C172 1.227 . S
N174 Co171 2.121 . S
N174 C176 1.375 . S
N174 C177 1.313 . S
C175 C176 1.338 . S
C175 N178 1.377 . S
C175 H195 0.930 . S
C176 N174 1.375 . S
C176 C175 1.338 . S
C176 H180 0.931 . S
C177 N174 1.313 . S
C177 N178 1.344 . S
C177 H181 0.930 . S
N178 C175 1.377 . S
N178 C177 1.344 . S
O179 Co171 2.055 . S
O179 C183 1.253 . S
H180 C176 0.931 . S
H181 C177 0.930 . S
O182 Co171 2.039 . S
O182 C172 1.265 . S
C183 O179 1.253 . S
C183 O184 1.227 . S
O184 C183 1.227 . S
N185 Co171 2.140 . S
N185 C188 1.346 . S
N185 C189 1.345 . S
C186 C187 1.387 . S
C186 C190 1.391 . S
C187 C186 1.387 . S
C187 C188 1.369 . S
C187 H196 0.929 . S
C188 N185 1.346 . S
C188 C187 1.369 . S
C188 H191 0.928 . S
C189 N185 1.345 . S
C189 C190 1.371 . S
C189 H192 0.931 . S
C190 C186 1.391 . S
C190 C189 1.371 . S
C190 H197 0.930 . S
H191 C188 0.928 . S
H192 C189 0.931 . S
H193 C169 0.930 . S
H194 C166 0.930 . S
H195 C175 0.930 . S
H196 C187 0.929 . S
H197 C190 0.930 . S
C198 C199 1.351 . S
C198 N201 1.368 . S
C198 H203 0.931 . S
C199 C198 1.351 . S
C199 N200 1.373 . S
C199 H227 0.930 . S
N200 C199 1.373 . S
N200 C202 1.340 . S
N201 C198 1.368 . S
N201 C202 1.321 . S
N201 Co204 2.135 . S
C202 N200 1.340 . S
C202 N201 1.321 . S
C202 H226 0.930 . S
H203 C198 0.931 . S
Co204 N201 2.135 . S
Co204 N207 2.121 . S
Co204 O212 2.055 . S
Co204 O215 2.039 . S
Co204 N218 2.140 . S
C205 O206 1.227 . S
C205 O215 1.265 . S
O206 C205 1.227 . S
N207 Co204 2.121 . S
N207 C209 1.375 . S
N207 C210 1.313 . S
C208 C209 1.338 . S
C208 N211 1.377 . S
C208 H228 0.930 . S
C209 N207 1.375 . S
C209 C208 1.338 . S
C209 H213 0.931 . S
C210 N207 1.313 . S
C210 N211 1.344 . S
C210 H214 0.930 . S
N211 C208 1.377 . S
N211 C210 1.344 . S
O212 Co204 2.055 . S
O212 C216 1.253 . S
H213 C209 0.931 . S
H214 C210 0.930 . S
O215 Co204 2.039 . S
O215 C205 1.265 . S
C216 O212 1.253 . S
C216 O217 1.227 . S
O217 C216 1.227 . S
N218 Co204 2.140 . S
N218 C221 1.346 . S
N218 C222 1.345 . S
C219 C220 1.387 . S
C219 C223 1.391 . S
C220 C219 1.387 . S
C220 C221 1.369 . S
C220 H229 0.929 . S
C221 N218 1.346 . S
C221 C220 1.369 . S
C221 H224 0.928 . S
C222 N218 1.345 . S
C222 C223 1.371 . S
C222 H225 0.931 . S
C223 C219 1.391 . S
C223 C222 1.371 . S
C223 H230 0.930 . S
H224 C221 0.928 . S
H225 C222 0.931 . S
H226 C202 0.930 . S
H227 C199 0.930 . S
H228 C208 0.930 . S
H229 C220 0.929 . S
H230 C223 0.930 . S
C231 C232 1.351 . S
C231 N234 1.368 . S
C231 H236 0.931 . S
C232 C231 1.351 . S
C232 N233 1.373 . S
C232 H260 0.930 . S
N233 C232 1.373 . S
N233 C235 1.340 . S
N234 C231 1.368 . S
N234 C235 1.321 . S
N234 Co237 2.135 . S
C235 N233 1.340 . S
C235 N234 1.321 . S
C235 H259 0.930 . S
H236 C231 0.931 . S
Co237 N234 2.135 . S
Co237 N240 2.156 . S
Co237 O245 2.055 . S
Co237 O248 2.039 . S
Co237 N251 2.140 . S
C238 O239 1.227 . S
C238 O248 1.265 . S
O239 C238 1.227 . S
N240 Co237 2.156 . S
N240 C242 1.365 1_556 S
N240 C243 1.285 1_556 S
C241 C242 1.338 . S
C241 N244 1.377 . S
C241 H261 0.930 . S
C242 N240 1.365 1_554 S
C242 C241 1.338 . S
C242 H246 0.931 1_554 S
C243 N240 1.285 1_554 S
C243 N244 1.344 . S
C243 H247 0.930 . S
N244 C241 1.377 . S
N244 C243 1.344 . S
O245 Co237 2.055 . S
O245 C249 1.253 . S
H246 C242 0.931 1_556 S
H247 C243 0.930 . S
O248 Co237 2.039 . S
O248 C238 1.265 . S
C249 O245 1.253 . S
C249 O250 1.227 . S
O250 C249 1.227 . S
N251 Co237 2.140 . S
N251 C254 1.346 . S
N251 C255 1.345 . S
C252 C253 1.387 . S
C252 C256 1.391 . S
C253 C252 1.387 . S
C253 C254 1.369 . S
C253 H262 0.929 . S
C254 N251 1.346 . S
C254 C253 1.369 . S
C254 H257 0.928 . S
C255 N251 1.345 . S
C255 C256 1.371 . S
C255 H258 0.931 . S
C256 C252 1.391 . S
C256 C255 1.371 . S
C256 H263 0.930 . S
H257 C254 0.928 . S
H258 C255 0.931 . S
H259 C235 0.930 . S
H260 C232 0.930 . S
H261 C241 0.930 . S
H262 C253 0.929 . S
H263 C256 0.930 . S
C264 C265 1.351 . S
C264 N267 1.368 . S
C264 H269 0.931 . S
C265 C264 1.351 . S
C265 N266 1.373 . S
C265 H293 0.930 . S
N266 C265 1.373 . S
N266 C268 1.340 . S
N267 C264 1.368 . S
N267 C268 1.321 . S
N267 Co270 2.135 . S
C268 N266 1.340 . S
C268 N267 1.321 . S
C268 H292 0.930 . S
H269 C264 0.931 . S
Co270 N267 2.135 . S
Co270 N273 2.121 . S
Co270 O278 2.055 . S
Co270 O281 2.039 . S
Co270 N284 2.140 . S
C271 O272 1.227 . S
C271 O281 1.265 . S
O272 C271 1.227 . S
N273 Co270 2.121 . S
N273 C275 1.375 . S
N273 C276 1.313 . S
C274 C275 1.338 . S
C274 N277 1.377 . S
C274 H294 0.930 . S
C275 N273 1.375 . S
C275 C274 1.338 . S
C275 H279 0.931 . S
C276 N273 1.313 . S
C276 N277 1.344 . S
C276 H280 0.930 . S
N277 C274 1.377 . S
N277 C276 1.344 . S
O278 Co270 2.055 . S
O278 C282 1.253 . S
H279 C275 0.931 . S
H280 C276 0.930 . S
O281 Co270 2.039 . S
O281 C271 1.265 . S
C282 O278 1.253 . S
C282 O283 1.227 . S
O283 C282 1.227 . S
N284 Co270 2.140 . S
N284 C287 1.346 . S
N284 C288 1.345 . S
C285 C286 1.387 . S
C285 C289 1.391 . S
C286 C285 1.387 . S
C286 C287 1.369 . S
C286 H295 0.929 . S
C287 N284 1.346 . S
C287 C286 1.369 . S
C287 H290 0.928 . S
C288 N284 1.345 . S
C288 C289 1.371 . S
C288 H291 0.931 . S
C289 C285 1.391 . S
C289 C288 1.371 . S
C289 H296 0.930 . S
H290 C287 0.928 . S
H291 C288 0.931 . S
H292 C268 0.930 . S
H293 C265 0.930 . S
H294 C274 0.930 . S
H295 C286 0.929 . S
H296 C289 0.930 . S
C297 C298 1.351 . S
C297 N300 1.368 . S
C297 H302 0.931 . S
C298 C297 1.351 . S
C298 N299 1.373 . S
C298 H326 0.930 . S
N299 C298 1.373 . S
N299 C301 1.340 . S
N300 C297 1.368 . S
N300 C301 1.321 . S
N300 Co303 2.135 . S
C301 N299 1.340 . S
C301 N300 1.321 . S
C301 H325 0.930 . S
H302 C297 0.931 . S
Co303 N300 2.135 . S
Co303 N306 2.121 . S
Co303 O311 2.055 . S
Co303 O314 2.039 . S
Co303 N317 2.140 . S
C304 O305 1.227 . S
C304 O314 1.265 . S
O305 C304 1.227 . S
N306 Co303 2.121 . S
N306 C308 1.375 . S
N306 C309 1.313 . S
C307 C308 1.338 . S
C307 N310 1.377 . S
C307 H327 0.930 . S
C308 N306 1.375 . S
C308 C307 1.338 . S
C308 H312 0.931 . S
C309 N306 1.313 . S
C309 N310 1.344 . S
C309 H313 0.930 . S
N310 C307 1.377 . S
N310 C309 1.344 . S
O311 Co303 2.055 . S
O311 C315 1.253 . S
H312 C308 0.931 . S
H313 C309 0.930 . S
O314 Co303 2.039 . S
O314 C304 1.265 . S
C315 O311 1.253 . S
C315 O316 1.227 . S
O316 C315 1.227 . S
N317 Co303 2.140 . S
N317 C320 1.346 . S
N317 C321 1.345 . S
C318 C319 1.387 . S
C318 C322 1.391 . S
C319 C318 1.387 . S
C319 C320 1.369 . S
C319 H328 0.929 . S
C320 N317 1.346 . S
C320 C319 1.369 . S
C320 H323 0.928 . S
C321 N317 1.345 . S
C321 C322 1.371 . S
C321 H324 0.931 . S
C322 C318 1.391 . S
C322 C321 1.371 . S
C322 H329 0.930 . S
H323 C320 0.928 . S
H324 C321 0.931 . S
H325 C301 0.930 . S
H326 C298 0.930 . S
H327 C307 0.930 . S
H328 C319 0.929 . S
H329 C322 0.930 . S
C330 C331 1.351 . S
C330 N333 1.368 . S
C330 H335 0.931 . S
C331 C330 1.351 . S
C331 N332 1.373 . S
C331 H359 0.930 . S
N332 C331 1.373 . S
N332 C334 1.340 . S
N333 C330 1.368 . S
N333 C334 1.321 . S
N333 Co336 2.135 . S
C334 N332 1.340 . S
C334 N333 1.321 . S
C334 H358 0.930 . S
H335 C330 0.931 . S
Co336 N333 2.135 . S
Co336 N339 2.121 . S
Co336 O344 2.055 . S
Co336 O347 2.039 . S
Co336 N350 2.140 . S
C337 O338 1.227 . S
C337 O347 1.265 . S
O338 C337 1.227 . S
N339 Co336 2.121 . S
N339 C341 1.375 . S
N339 C342 1.313 . S
C340 C341 1.338 . S
C340 N343 1.377 . S
C340 H360 0.930 . S
C341 N339 1.375 . S
C341 C340 1.338 . S
C341 H345 0.931 . S
C342 N339 1.313 . S
C342 N343 1.344 . S
C342 H346 0.930 . S
N343 C340 1.377 . S
N343 C342 1.344 . S
O344 Co336 2.055 . S
O344 C348 1.253 . S
H345 C341 0.931 . S
H346 C342 0.930 . S
O347 Co336 2.039 . S
O347 C337 1.265 . S
C348 O344 1.253 . S
C348 O349 1.227 . S
O349 C348 1.227 . S
N350 Co336 2.140 . S
N350 C353 1.346 . S
N350 C354 1.345 . S
C351 C352 1.387 . S
C351 C355 1.391 . S
C352 C351 1.387 . S
C352 C353 1.369 . S
C352 H361 0.929 . S
C353 N350 1.346 . S
C353 C352 1.369 . S
C353 H356 0.928 . S
C354 N350 1.345 . S
C354 C355 1.371 . S
C354 H357 0.931 . S
C355 C351 1.391 . S
C355 C354 1.371 . S
C355 H362 0.930 . S
H356 C353 0.928 . S
H357 C354 0.931 . S
H358 C334 0.930 . S
H359 C331 0.930 . S
H360 C340 0.930 . S
H361 C352 0.929 . S
H362 C355 0.930 . S
C363 C364 1.351 . S
C363 N366 1.368 . S
C363 H368 0.931 . S
C364 C363 1.351 . S
C364 N365 1.373 . S
C364 H392 0.930 . S
N365 C364 1.373 . S
N365 C367 1.340 . S
N366 C363 1.368 . S
N366 C367 1.321 . S
N366 Co369 2.135 . S
C367 N365 1.340 . S
C367 N366 1.321 . S
C367 H391 0.930 . S
H368 C363 0.931 . S
Co369 N366 2.135 . S
Co369 N372 2.156 . S
Co369 O377 2.055 . S
Co369 O380 2.039 . S
Co369 N383 2.140 . S
C370 O371 1.227 . S
C370 O380 1.265 . S
O371 C370 1.227 . S
N372 Co369 2.156 . S
N372 C374 1.365 1_556 S
N372 C375 1.285 1_556 S
C373 C374 1.338 . S
C373 N376 1.377 . S
C373 H393 0.930 . S
C374 N372 1.365 1_554 S
C374 C373 1.338 . S
C374 H378 0.931 1_554 S
C375 N372 1.285 1_554 S
C375 N376 1.344 . S
C375 H379 0.930 . S
N376 C373 1.377 . S
N376 C375 1.344 . S
O377 Co369 2.055 . S
O377 C381 1.253 . S
H378 C374 0.931 1_556 S
H379 C375 0.930 . S
O380 Co369 2.039 . S
O380 C370 1.265 . S
C381 O377 1.253 . S
C381 O382 1.227 . S
O382 C381 1.227 . S
N383 Co369 2.140 . S
N383 C386 1.346 . S
N383 C387 1.345 . S
C384 C385 1.387 . S
C384 C388 1.391 . S
C385 C384 1.387 . S
C385 C386 1.369 . S
C385 H394 0.929 . S
C386 N383 1.346 . S
C386 C385 1.369 . S
C386 H389 0.928 . S
C387 N383 1.345 . S
C387 C388 1.371 . S
C387 H390 0.931 . S
C388 C384 1.391 . S
C388 C387 1.371 . S
C388 H395 0.930 . S
H389 C386 0.928 . S
H390 C387 0.931 . S
H391 C367 0.930 . S
H392 C364 0.930 . S
H393 C373 0.930 . S
H394 C385 0.929 . S
H395 C388 0.930 . S
C396 C397 1.351 . S
C396 N399 1.368 . S
C396 H401 0.931 . S
C397 C396 1.351 . S
C397 N398 1.373 . S
C397 H425 0.930 . S
N398 C397 1.373 . S
N398 C400 1.340 . S
N399 C396 1.368 . S
N399 C400 1.321 . S
N399 Co402 2.135 . S
C400 N398 1.340 . S
C400 N399 1.321 . S
C400 H424 0.930 . S
H401 C396 0.931 . S
Co402 N399 2.135 . S
Co402 N405 2.121 . S
Co402 O410 2.055 . S
Co402 O413 2.039 . S
Co402 N416 2.140 . S
C403 O404 1.227 . S
C403 O413 1.265 . S
O404 C403 1.227 . S
N405 Co402 2.121 . S
N405 C407 1.375 . S
N405 C408 1.313 . S
C406 C407 1.338 . S
C406 N409 1.377 . S
C406 H426 0.930 . S
C407 N405 1.375 . S
C407 C406 1.338 . S
C407 H411 0.931 . S
C408 N405 1.313 . S
C408 N409 1.344 . S
C408 H412 0.930 . S
N409 C406 1.377 . S
N409 C408 1.344 . S
O410 Co402 2.055 . S
O410 C414 1.253 . S
H411 C407 0.931 . S
H412 C408 0.930 . S
O413 Co402 2.039 . S
O413 C403 1.265 . S
C414 O410 1.253 . S
C414 O415 1.227 . S
O415 C414 1.227 . S
N416 Co402 2.140 . S
N416 C419 1.346 . S
N416 C420 1.345 . S
C417 C418 1.387 . S
C417 C421 1.391 . S
C418 C417 1.387 . S
C418 C419 1.369 . S
C418 H427 0.929 . S
C419 N416 1.346 . S
C419 C418 1.369 . S
C419 H422 0.928 . S
C420 N416 1.345 . S
C420 C421 1.371 . S
C420 H423 0.931 . S
C421 C417 1.391 . S
C421 C420 1.371 . S
C421 H428 0.930 . S
H422 C419 0.928 . S
H423 C420 0.931 . S
H424 C400 0.930 . S
H425 C397 0.930 . S
H426 C406 0.930 . S
H427 C418 0.929 . S
H428 C421 0.930 . S
C429 C430 1.351 . S
C429 N432 1.368 . S
C429 H434 0.931 . S
C430 C429 1.351 . S
C430 N431 1.373 . S
C430 H458 0.930 . S
N431 C430 1.373 . S
N431 C433 1.340 . S
N432 C429 1.368 . S
N432 C433 1.321 . S
N432 Co435 2.135 . S
C433 N431 1.340 . S
C433 N432 1.321 . S
C433 H457 0.930 . S
H434 C429 0.931 . S
Co435 N432 2.135 . S
Co435 N438 2.121 . S
Co435 O443 2.055 . S
Co435 O446 2.039 . S
Co435 N449 2.140 . S
C436 O437 1.227 . S
C436 O446 1.265 . S
O437 C436 1.227 . S
N438 Co435 2.121 . S
N438 C440 1.375 . S
N438 C441 1.313 . S
C439 C440 1.338 . S
C439 N442 1.377 . S
C439 H459 0.930 . S
C440 N438 1.375 . S
C440 C439 1.338 . S
C440 H444 0.931 . S
C441 N438 1.313 . S
C441 N442 1.344 . S
C441 H445 0.930 . S
N442 C439 1.377 . S
N442 C441 1.344 . S
O443 Co435 2.055 . S
O443 C447 1.253 . S
H444 C440 0.931 . S
H445 C441 0.930 . S
O446 Co435 2.039 . S
O446 C436 1.265 . S
C447 O443 1.253 . S
C447 O448 1.227 . S
O448 C447 1.227 . S
N449 Co435 2.140 . S
N449 C452 1.346 . S
N449 C453 1.345 . S
C450 C451 1.387 . S
C450 C454 1.391 . S
C451 C450 1.387 . S
C451 C452 1.369 . S
C451 H460 0.929 . S
C452 N449 1.346 . S
C452 C451 1.369 . S
C452 H455 0.928 . S
C453 N449 1.345 . S
C453 C454 1.371 . S
C453 H456 0.931 . S
C454 C450 1.391 . S
C454 C453 1.371 . S
C454 H461 0.930 . S
H455 C452 0.928 . S
H456 C453 0.931 . S
H457 C433 0.930 . S
H458 C430 0.930 . S
H459 C439 0.930 . S
H460 C451 0.929 . S
H461 C454 0.930 . S
C462 C463 1.351 . S
C462 N465 1.368 . S
C462 H467 0.931 . S
C463 C462 1.351 . S
C463 N464 1.373 . S
C463 H491 0.930 . S
N464 C463 1.373 . S
N464 C466 1.340 . S
N465 C462 1.368 . S
N465 C466 1.321 . S
N465 Co468 2.135 . S
C466 N464 1.340 . S
C466 N465 1.321 . S
C466 H490 0.930 . S
H467 C462 0.931 . S
Co468 N465 2.135 . S
Co468 N471 2.121 . S
Co468 O476 2.055 . S
Co468 O479 2.039 . S
Co468 N482 2.140 . S
C469 O470 1.227 . S
C469 O479 1.265 . S
O470 C469 1.227 . S
N471 Co468 2.121 . S
N471 C473 1.375 . S
N471 C474 1.313 . S
C472 C473 1.338 . S
C472 N475 1.377 . S
C472 H492 0.930 . S
C473 N471 1.375 . S
C473 C472 1.338 . S
C473 H477 0.931 . S
C474 N471 1.313 . S
C474 N475 1.344 . S
C474 H478 0.930 . S
N475 C472 1.377 . S
N475 C474 1.344 . S
O476 Co468 2.055 . S
O476 C480 1.253 . S
H477 C473 0.931 . S
H478 C474 0.930 . S
O479 Co468 2.039 . S
O479 C469 1.265 . S
C480 O476 1.253 . S
C480 O481 1.227 . S
O481 C480 1.227 . S
N482 Co468 2.140 . S
N482 C485 1.346 . S
N482 C486 1.345 . S
C483 C484 1.387 . S
C483 C487 1.391 . S
C484 C483 1.387 . S
C484 C485 1.369 . S
C484 H493 0.929 . S
C485 N482 1.346 . S
C485 C484 1.369 . S
C485 H488 0.928 . S
C486 N482 1.345 . S
C486 C487 1.371 . S
C486 H489 0.931 . S
C487 C483 1.391 . S
C487 C486 1.371 . S
C487 H494 0.930 . S
H488 C485 0.928 . S
H489 C486 0.931 . S
H490 C466 0.930 . S
H491 C463 0.930 . S
H492 C472 0.930 . S
H493 C484 0.929 . S
H494 C487 0.930 . S
C495 C496 1.351 . S
C495 N498 1.368 . S
C495 H500 0.931 . S
C496 C495 1.351 . S
C496 N497 1.373 . S
C496 H524 0.930 . S
N497 C496 1.373 . S
N497 C499 1.340 . S
N498 C495 1.368 . S
N498 C499 1.321 . S
N498 Co501 2.135 . S
C499 N497 1.340 . S
C499 N498 1.321 . S
C499 H523 0.930 . S
H500 C495 0.931 . S
Co501 N498 2.135 . S
Co501 N504 2.156 . S
Co501 O509 2.055 . S
Co501 O512 2.039 . S
Co501 N515 2.140 . S
C502 O503 1.227 . S
C502 O512 1.265 . S
O503 C502 1.227 . S
N504 Co501 2.156 . S
N504 C506 1.365 1_554 S
N504 C507 1.285 1_554 S
C505 C506 1.338 . S
C505 N508 1.377 . S
C505 H525 0.930 . S
C506 N504 1.365 1_556 S
C506 C505 1.338 . S
C506 H510 0.931 1_556 S
C507 N504 1.285 1_556 S
C507 N508 1.344 . S
C507 H511 0.930 . S
N508 C505 1.377 . S
N508 C507 1.344 . S
O509 Co501 2.055 . S
O509 C513 1.253 . S
H510 C506 0.931 1_554 S
H511 C507 0.930 . S
O512 Co501 2.039 . S
O512 C502 1.265 . S
C513 O509 1.253 . S
C513 O514 1.227 . S
O514 C513 1.227 . S
N515 Co501 2.140 . S
N515 C518 1.346 . S
N515 C519 1.345 . S
C516 C517 1.387 . S
C516 C520 1.391 . S
C517 C516 1.387 . S
C517 C518 1.369 . S
C517 H526 0.929 . S
C518 N515 1.346 . S
C518 C517 1.369 . S
C518 H521 0.928 . S
C519 N515 1.345 . S
C519 C520 1.371 . S
C519 H522 0.931 . S
C520 C516 1.391 . S
C520 C519 1.371 . S
C520 H527 0.930 . S
H521 C518 0.928 . S
H522 C519 0.931 . S
H523 C499 0.930 . S
H524 C496 0.930 . S
H525 C505 0.930 . S
H526 C517 0.929 . S
H527 C520 0.930 . S
C528 C529 1.351 . S
C528 N531 1.368 . S
C528 H533 0.931 . S
C529 C528 1.351 . S
C529 N530 1.373 . S
C529 H557 0.930 . S
N530 C529 1.373 . S
N530 C532 1.340 . S
N531 C528 1.368 . S
N531 C532 1.321 . S
N531 Co534 2.135 . S
C532 N530 1.340 . S
C532 N531 1.321 . S
C532 H556 0.930 . S
H533 C528 0.931 . S
Co534 N531 2.135 . S
Co534 N537 2.121 . S
Co534 O542 2.055 . S
Co534 O545 2.039 . S
Co534 N548 2.140 . S
C535 O536 1.227 . S
C535 O545 1.265 . S
O536 C535 1.227 . S
N537 Co534 2.121 . S
N537 C539 1.375 . S
N537 C540 1.313 . S
C538 C539 1.338 . S
C538 N541 1.377 . S
C538 H558 0.930 . S
C539 N537 1.375 . S
C539 C538 1.338 . S
C539 H543 0.931 . S
C540 N537 1.313 . S
C540 N541 1.344 . S
C540 H544 0.930 . S
N541 C538 1.377 . S
N541 C540 1.344 . S
O542 Co534 2.055 . S
O542 C546 1.253 . S
H543 C539 0.931 . S
H544 C540 0.930 . S
O545 Co534 2.039 . S
O545 C535 1.265 . S
C546 O542 1.253 . S
C546 O547 1.227 . S
O547 C546 1.227 . S
N548 Co534 2.140 . S
N548 C551 1.346 . S
N548 C552 1.345 . S
C549 C550 1.387 . S
C549 C553 1.391 . S
C550 C549 1.387 . S
C550 C551 1.369 . S
C550 H559 0.929 . S
C551 N548 1.346 . S
C551 C550 1.369 . S
C551 H554 0.928 . S
C552 N548 1.345 . S
C552 C553 1.371 . S
C552 H555 0.931 . S
C553 C549 1.391 . S
C553 C552 1.371 . S
C553 H560 0.930 . S
H554 C551 0.928 . S
H555 C552 0.931 . S
H556 C532 0.930 . S
H557 C529 0.930 . S
H558 C538 0.930 . S
H559 C550 0.929 . S
H560 C553 0.930 . S
C561 C562 1.351 . S
C561 N564 1.368 . S
C561 H566 0.931 . S
C562 C561 1.351 . S
C562 N563 1.373 . S
C562 H590 0.930 . S
N563 C562 1.373 . S
N563 C565 1.340 . S
N564 C561 1.368 . S
N564 C565 1.321 . S
N564 Co567 2.135 . S
C565 N563 1.340 . S
C565 N564 1.321 . S
C565 H589 0.930 . S
H566 C561 0.931 . S
Co567 N564 2.135 . S
Co567 N570 2.156 . S
Co567 O575 2.055 . S
Co567 O578 2.039 . S
Co567 N581 2.140 . S
C568 O569 1.227 . S
C568 O578 1.265 . S
O569 C568 1.227 . S
N570 Co567 2.156 . S
N570 C572 1.365 1_554 S
N570 C573 1.285 1_554 S
C571 C572 1.338 . S
C571 N574 1.377 . S
C571 H591 0.930 . S
C572 N570 1.365 1_556 S
C572 C571 1.338 . S
C572 H576 0.931 1_556 S
C573 N570 1.285 1_556 S
C573 N574 1.344 . S
C573 H577 0.930 . S
N574 C571 1.377 . S
N574 C573 1.344 . S
O575 Co567 2.055 . S
O575 C579 1.253 . S
H576 C572 0.931 1_554 S
H577 C573 0.930 . S
O578 Co567 2.039 . S
O578 C568 1.265 . S
C579 O575 1.253 . S
C579 O580 1.227 . S
O580 C579 1.227 . S
N581 Co567 2.140 . S
N581 C584 1.346 . S
N581 C585 1.345 . S
C582 C583 1.387 . S
C582 C586 1.391 . S
C583 C582 1.387 . S
C583 C584 1.369 . S
C583 H592 0.929 . S
C584 N581 1.346 . S
C584 C583 1.369 . S
C584 H587 0.928 . S
C585 N581 1.345 . S
C585 C586 1.371 . S
C585 H588 0.931 . S
C586 C582 1.391 . S
C586 C585 1.371 . S
C586 H593 0.930 . S
H587 C584 0.928 . S
H588 C585 0.931 . S
H589 C565 0.930 . S
H590 C562 0.930 . S
H591 C571 0.930 . S
H592 C583 0.929 . S
H593 C586 0.930 . S
C594 C595 1.351 . S
C594 N597 1.368 . S
C594 H599 0.931 . S
C595 C594 1.351 . S
C595 N596 1.373 . S
C595 H623 0.930 . S
N596 C595 1.373 . S
N596 C598 1.340 . S
N597 C594 1.368 . S
N597 C598 1.321 . S
N597 Co600 2.135 . S
C598 N596 1.340 . S
C598 N597 1.321 . S
C598 H622 0.930 . S
H599 C594 0.931 . S
Co600 N597 2.135 . S
Co600 N603 2.121 . S
Co600 O608 2.055 . S
Co600 O611 2.039 . S
Co600 N614 2.140 . S
C601 O602 1.227 . S
C601 O611 1.265 . S
O602 C601 1.227 . S
N603 Co600 2.121 . S
N603 C605 1.375 . S
N603 C606 1.313 . S
C604 C605 1.338 . S
C604 N607 1.377 . S
C604 H624 0.930 . S
C605 N603 1.375 . S
C605 C604 1.338 . S
C605 H609 0.931 . S
C606 N603 1.313 . S
C606 N607 1.344 . S
C606 H610 0.930 . S
N607 C604 1.377 . S
N607 C606 1.344 . S
O608 Co600 2.055 . S
O608 C612 1.253 . S
H609 C605 0.931 . S
H610 C606 0.930 . S
O611 Co600 2.039 . S
O611 C601 1.265 . S
C612 O608 1.253 . S
C612 O613 1.227 . S
O613 C612 1.227 . S
N614 Co600 2.140 . S
N614 C617 1.346 . S
N614 C618 1.345 . S
C615 C616 1.387 . S
C615 C619 1.391 . S
C616 C615 1.387 . S
C616 C617 1.369 . S
C616 H625 0.929 . S
C617 N614 1.346 . S
C617 C616 1.369 . S
C617 H620 0.928 . S
C618 N614 1.345 . S
C618 C619 1.371 . S
C618 H621 0.931 . S
C619 C615 1.391 . S
C619 C618 1.371 . S
C619 H626 0.930 . S
H620 C617 0.928 . S
H621 C618 0.931 . S
H622 C598 0.930 . S
H623 C595 0.930 . S
H624 C604 0.930 . S
H625 C616 0.929 . S
H626 C619 0.930 . S
C627 C628 1.351 . S
C627 N630 1.368 . S
C627 H632 0.931 . S
C628 C627 1.351 . S
C628 N629 1.373 . S
C628 H656 0.930 . S
N629 C628 1.373 . S
N629 C631 1.340 . S
N630 C627 1.368 . S
N630 C631 1.321 . S
N630 Co633 2.135 . S
C631 N629 1.340 . S
C631 N630 1.321 . S
C631 H655 0.930 . S
H632 C627 0.931 . S
Co633 N630 2.135 . S
Co633 N636 2.121 . S
Co633 O641 2.055 . S
Co633 O644 2.039 . S
Co633 N647 2.140 . S
C634 O635 1.227 . S
C634 O644 1.265 . S
O635 C634 1.227 . S
N636 Co633 2.121 . S
N636 C638 1.375 . S
N636 C639 1.313 . S
C637 C638 1.338 . S
C637 N640 1.377 . S
C637 H657 0.930 . S
C638 N636 1.375 . S
C638 C637 1.338 . S
C638 H642 0.931 . S
C639 N636 1.313 . S
C639 N640 1.344 . S
C639 H643 0.930 . S
N640 C637 1.377 . S
N640 C639 1.344 . S
O641 Co633 2.055 . S
O641 C645 1.253 . S
H642 C638 0.931 . S
H643 C639 0.930 . S
O644 Co633 2.039 . S
O644 C634 1.265 . S
C645 O641 1.253 . S
C645 O646 1.227 . S
O646 C645 1.227 . S
N647 Co633 2.140 . S
N647 C650 1.346 . S
N647 C651 1.345 . S
C648 C649 1.387 . S
C648 C652 1.391 . S
C649 C648 1.387 . S
C649 C650 1.369 . S
C649 H658 0.929 . S
C650 N647 1.346 . S
C650 C649 1.369 . S
C650 H653 0.928 . S
C651 N647 1.345 . S
C651 C652 1.371 . S
C651 H654 0.931 . S
C652 C648 1.391 . S
C652 C651 1.371 . S
C652 H659 0.930 . S
H653 C650 0.928 . S
H654 C651 0.931 . S
H655 C631 0.930 . S
H656 C628 0.930 . S
H657 C637 0.930 . S
H658 C649 0.929 . S
H659 C652 0.930 . S
C660 C661 1.351 . S
C660 N663 1.368 . S
C660 H665 0.931 . S
C661 C660 1.351 . S
C661 N662 1.373 . S
C661 H689 0.930 . S
N662 C661 1.373 . S
N662 C664 1.340 . S
N663 C660 1.368 . S
N663 C664 1.321 . S
N663 Co666 2.135 . S
C664 N662 1.340 . S
C664 N663 1.321 . S
C664 H688 0.930 . S
H665 C660 0.931 . S
Co666 N663 2.135 . S
Co666 N669 2.121 . S
Co666 O674 2.055 . S
Co666 O677 2.039 . S
Co666 N680 2.140 . S
C667 O668 1.227 . S
C667 O677 1.265 . S
O668 C667 1.227 . S
N669 Co666 2.121 . S
N669 C671 1.375 . S
N669 C672 1.313 . S
C670 C671 1.338 . S
C670 N673 1.377 . S
C670 H690 0.930 . S
C671 N669 1.375 . S
C671 C670 1.338 . S
C671 H675 0.931 . S
C672 N669 1.313 . S
C672 N673 1.344 . S
C672 H676 0.930 . S
N673 C670 1.377 . S
N673 C672 1.344 . S
O674 Co666 2.055 . S
O674 C678 1.253 . S
H675 C671 0.931 . S
H676 C672 0.930 . S
O677 Co666 2.039 . S
O677 C667 1.265 . S
C678 O674 1.253 . S
C678 O679 1.227 . S
O679 C678 1.227 . S
N680 Co666 2.140 . S
N680 C683 1.346 . S
N680 C684 1.345 . S
C681 C682 1.387 . S
C681 C685 1.391 . S
C682 C681 1.387 . S
C682 C683 1.369 . S
C682 H691 0.929 . S
C683 N680 1.346 . S
C683 C682 1.369 . S
C683 H686 0.928 . S
C684 N680 1.345 . S
C684 C685 1.371 . S
C684 H687 0.931 . S
C685 C681 1.391 . S
C685 C684 1.371 . S
C685 H692 0.930 . S
H686 C683 0.928 . S
H687 C684 0.931 . S
H688 C664 0.930 . S
H689 C661 0.930 . S
H690 C670 0.930 . S
H691 C682 0.929 . S
H692 C685 0.930 . S
C693 C694 1.351 . S
C693 N696 1.368 . S
C693 H698 0.931 . S
C694 C693 1.351 . S
C694 N695 1.373 . S
C694 H722 0.930 . S
N695 C694 1.373 . S
N695 C697 1.340 . S
N696 C693 1.368 . S
N696 C697 1.321 . S
N696 Co699 2.135 . S
C697 N695 1.340 . S
C697 N696 1.321 . S
C697 H721 0.930 . S
H698 C693 0.931 . S
Co699 N696 2.135 . S
Co699 N702 2.156 . S
Co699 O707 2.055 . S
Co699 O710 2.039 . S
Co699 N713 2.140 . S
C700 O701 1.227 . S
C700 O710 1.265 . S
O701 C700 1.227 . S
N702 Co699 2.156 . S
N702 C704 1.365 1_556 S
N702 C705 1.285 1_556 S
C703 C704 1.338 . S
C703 N706 1.377 . S
C703 H723 0.930 . S
C704 N702 1.365 1_554 S
C704 C703 1.338 . S
C704 H708 0.931 1_554 S
C705 N702 1.285 1_554 S
C705 N706 1.344 . S
C705 H709 0.930 . S
N706 C703 1.377 . S
N706 C705 1.344 . S
O707 Co699 2.055 . S
O707 C711 1.253 . S
H708 C704 0.931 1_556 S
H709 C705 0.930 . S
O710 Co699 2.039 . S
O710 C700 1.265 . S
C711 O707 1.253 . S
C711 O712 1.227 . S
O712 C711 1.227 . S
N713 Co699 2.140 . S
N713 C716 1.346 . S
N713 C717 1.345 . S
C714 C715 1.387 . S
C714 C718 1.391 . S
C715 C714 1.387 . S
C715 C716 1.369 . S
C715 H724 0.929 . S
C716 N713 1.346 . S
C716 C715 1.369 . S
C716 H719 0.928 . S
C717 N713 1.345 . S
C717 C718 1.371 . S
C717 H720 0.931 . S
C718 C714 1.391 . S
C718 C717 1.371 . S
C718 H725 0.930 . S
H719 C716 0.928 . S
H720 C717 0.931 . S
H721 C697 0.930 . S
H722 C694 0.930 . S
H723 C703 0.930 . S
H724 C715 0.929 . S
H725 C718 0.930 . S
C726 C727 1.351 . S
C726 N729 1.368 . S
C726 H731 0.931 . S
C727 C726 1.351 . S
C727 N728 1.373 . S
C727 H755 0.930 . S
N728 C727 1.373 . S
N728 C730 1.340 . S
N729 C726 1.368 . S
N729 C730 1.321 . S
N729 Co732 2.135 . S
C730 N728 1.340 . S
C730 N729 1.321 . S
C730 H754 0.930 . S
H731 C726 0.931 . S
Co732 N729 2.135 . S
Co732 N735 2.121 . S
Co732 O740 2.055 . S
Co732 O743 2.039 . S
Co732 N746 2.140 . S
C733 O734 1.227 . S
C733 O743 1.265 . S
O734 C733 1.227 . S
N735 Co732 2.121 . S
N735 C737 1.375 . S
N735 C738 1.313 . S
C736 C737 1.338 . S
C736 N739 1.377 . S
C736 H756 0.930 . S
C737 N735 1.375 . S
C737 C736 1.338 . S
C737 H741 0.931 . S
C738 N735 1.313 . S
C738 N739 1.344 . S
C738 H742 0.930 . S
N739 C736 1.377 . S
N739 C738 1.344 . S
O740 Co732 2.055 . S
O740 C744 1.253 . S
H741 C737 0.931 . S
H742 C738 0.930 . S
O743 Co732 2.039 . S
O743 C733 1.265 . S
C744 O740 1.253 . S
C744 O745 1.227 . S
O745 C744 1.227 . S
N746 Co732 2.140 . S
N746 C749 1.346 . S
N746 C750 1.345 . S
C747 C748 1.387 . S
C747 C751 1.391 . S
C748 C747 1.387 . S
C748 C749 1.369 . S
C748 H757 0.929 . S
C749 N746 1.346 . S
C749 C748 1.369 . S
C749 H752 0.928 . S
C750 N746 1.345 . S
C750 C751 1.371 . S
C750 H753 0.931 . S
C751 C747 1.391 . S
C751 C750 1.371 . S
C751 H758 0.930 . S
H752 C749 0.928 . S
H753 C750 0.931 . S
H754 C730 0.930 . S
H755 C727 0.930 . S
H756 C736 0.930 . S
H757 C748 0.929 . S
H758 C751 0.930 . S
C759 C760 1.351 . S
C759 N762 1.368 . S
C759 H764 0.931 . S
C760 C759 1.351 . S
C760 N761 1.373 . S
C760 H788 0.930 . S
N761 C760 1.373 . S
N761 C763 1.340 . S
N762 C759 1.368 . S
N762 C763 1.321 . S
N762 Co765 2.135 . S
C763 N761 1.340 . S
C763 N762 1.321 . S
C763 H787 0.930 . S
H764 C759 0.931 . S
Co765 N762 2.135 . S
Co765 N768 2.121 . S
Co765 O773 2.055 . S
Co765 O776 2.039 . S
Co765 N779 2.140 . S
C766 O767 1.227 . S
C766 O776 1.265 . S
O767 C766 1.227 . S
N768 Co765 2.121 . S
N768 C770 1.375 . S
N768 C771 1.313 . S
C769 C770 1.338 . S
C769 N772 1.377 . S
C769 H789 0.930 . S
C770 N768 1.375 . S
C770 C769 1.338 . S
C770 H774 0.931 . S
C771 N768 1.313 . S
C771 N772 1.344 . S
C771 H775 0.930 . S
N772 C769 1.377 . S
N772 C771 1.344 . S
O773 Co765 2.055 . S
O773 C777 1.253 . S
H774 C770 0.931 . S
H775 C771 0.930 . S
O776 Co765 2.039 . S
O776 C766 1.265 . S
C777 O773 1.253 . S
C777 O778 1.227 . S
O778 C777 1.227 . S
N779 Co765 2.140 . S
N779 C782 1.346 . S
N779 C783 1.345 . S
C780 C781 1.387 . S
C780 C784 1.391 . S
C781 C780 1.387 . S
C781 C782 1.369 . S
C781 H790 0.929 . S
C782 N779 1.346 . S
C782 C781 1.369 . S
C782 H785 0.928 . S
C783 N779 1.345 . S
C783 C784 1.371 . S
C783 H786 0.931 . S
C784 C780 1.391 . S
C784 C783 1.371 . S
C784 H791 0.930 . S
H785 C782 0.928 . S
H786 C783 0.931 . S
H787 C763 0.930 . S
H788 C760 0.930 . S
H789 C769 0.930 . S
H790 C781 0.929 . S
H791 C784 0.930 . S
C792 C793 1.351 . S
C792 N795 1.368 . S
C792 H797 0.931 . S
C793 C792 1.351 . S
C793 N794 1.373 . S
C793 H821 0.930 . S
N794 C793 1.373 . S
N794 C796 1.340 . S
N795 C792 1.368 . S
N795 C796 1.321 . S
N795 Co798 2.135 . S
C796 N794 1.340 . S
C796 N795 1.321 . S
C796 H820 0.930 . S
H797 C792 0.931 . S
Co798 N795 2.135 . S
Co798 N801 2.121 . S
Co798 O806 2.055 . S
Co798 O809 2.039 . S
Co798 N812 2.140 . S
C799 O800 1.227 . S
C799 O809 1.265 . S
O800 C799 1.227 . S
N801 Co798 2.121 . S
N801 C803 1.375 . S
N801 C804 1.313 . S
C802 C803 1.338 . S
C802 N805 1.377 . S
C802 H822 0.930 . S
C803 N801 1.375 . S
C803 C802 1.338 . S
C803 H807 0.931 . S
C804 N801 1.313 . S
C804 N805 1.344 . S
C804 H808 0.930 . S
N805 C802 1.377 . S
N805 C804 1.344 . S
O806 Co798 2.055 . S
O806 C810 1.253 . S
H807 C803 0.931 . S
H808 C804 0.930 . S
O809 Co798 2.039 . S
O809 C799 1.265 . S
C810 O806 1.253 . S
C810 O811 1.227 . S
O811 C810 1.227 . S
N812 Co798 2.140 . S
N812 C815 1.346 . S
N812 C816 1.345 . S
C813 C814 1.387 . S
C813 C817 1.391 . S
C814 C813 1.387 . S
C814 C815 1.369 . S
C814 H823 0.929 . S
C815 N812 1.346 . S
C815 C814 1.369 . S
C815 H818 0.928 . S
C816 N812 1.345 . S
C816 C817 1.371 . S
C816 H819 0.931 . S
C817 C813 1.391 . S
C817 C816 1.371 . S
C817 H824 0.930 . S
H818 C815 0.928 . S
H819 C816 0.931 . S
H820 C796 0.930 . S
H821 C793 0.930 . S
H822 C802 0.930 . S
H823 C814 0.929 . S
H824 C817 0.930 . S
C825 C826 1.351 . S
C825 N828 1.368 . S
C825 H830 0.931 . S
C826 C825 1.351 . S
C826 N827 1.373 . S
C826 H854 0.930 . S
N827 C826 1.373 . S
N827 C829 1.340 . S
N828 C825 1.368 . S
N828 C829 1.321 . S
N828 Co831 2.135 . S
C829 N827 1.340 . S
C829 N828 1.321 . S
C829 H853 0.930 . S
H830 C825 0.931 . S
Co831 N828 2.135 . S
Co831 N834 2.156 . S
Co831 O839 2.055 . S
Co831 O842 2.039 . S
Co831 N845 2.140 . S
C832 O833 1.227 . S
C832 O842 1.265 . S
O833 C832 1.227 . S
N834 Co831 2.156 . S
N834 C836 1.365 1_556 S
N834 C837 1.285 1_556 S
C835 C836 1.338 . S
C835 N838 1.377 . S
C835 H855 0.930 . S
C836 N834 1.365 1_554 S
C836 C835 1.338 . S
C836 H840 0.931 1_554 S
C837 N834 1.285 1_554 S
C837 N838 1.344 . S
C837 H841 0.930 . S
N838 C835 1.377 . S
N838 C837 1.344 . S
O839 Co831 2.055 . S
O839 C843 1.253 . S
H840 C836 0.931 1_556 S
H841 C837 0.930 . S
O842 Co831 2.039 . S
O842 C832 1.265 . S
C843 O839 1.253 . S
C843 O844 1.227 . S
O844 C843 1.227 . S
N845 Co831 2.140 . S
N845 C848 1.346 . S
N845 C849 1.345 . S
C846 C847 1.387 . S
C846 C850 1.391 . S
C847 C846 1.387 . S
C847 C848 1.369 . S
C847 H856 0.929 . S
C848 N845 1.346 . S
C848 C847 1.369 . S
C848 H851 0.928 . S
C849 N845 1.345 . S
C849 C850 1.371 . S
C849 H852 0.931 . S
C850 C846 1.391 . S
C850 C849 1.371 . S
C850 H857 0.930 . S
H851 C848 0.928 . S
H852 C849 0.931 . S
H853 C829 0.930 . S
H854 C826 0.930 . S
H855 C835 0.930 . S
H856 C847 0.929 . S
H857 C850 0.930 . S
C858 C859 1.351 . S
C858 N861 1.368 . S
C858 H863 0.931 . S
C859 C858 1.351 . S
C859 N860 1.373 . S
C859 H887 0.930 . S
N860 C859 1.373 . S
N860 C862 1.340 . S
N861 C858 1.368 . S
N861 C862 1.321 . S
N861 Co864 2.135 . S
C862 N860 1.340 . S
C862 N861 1.321 . S
C862 H886 0.930 . S
H863 C858 0.931 . S
Co864 N861 2.135 . S
Co864 N867 2.121 . S
Co864 O872 2.055 . S
Co864 O875 2.039 . S
Co864 N878 2.140 . S
C865 O866 1.227 . S
C865 O875 1.265 . S
O866 C865 1.227 . S
N867 Co864 2.121 . S
N867 C869 1.375 . S
N867 C870 1.313 . S
C868 C869 1.338 . S
C868 N871 1.377 . S
C868 H888 0.930 . S
C869 N867 1.375 . S
C869 C868 1.338 . S
C869 H873 0.931 . S
C870 N867 1.313 . S
C870 N871 1.344 . S
C870 H874 0.930 . S
N871 C868 1.377 . S
N871 C870 1.344 . S
O872 Co864 2.055 . S
O872 C876 1.253 . S
H873 C869 0.931 . S
H874 C870 0.930 . S
O875 Co864 2.039 . S
O875 C865 1.265 . S
C876 O872 1.253 . S
C876 O877 1.227 . S
O877 C876 1.227 . S
N878 Co864 2.140 . S
N878 C881 1.346 . S
N878 C882 1.345 . S
C879 C880 1.387 . S
C879 C883 1.391 . S
C880 C879 1.387 . S
C880 C881 1.369 . S
C880 H889 0.929 . S
C881 N878 1.346 . S
C881 C880 1.369 . S
C881 H884 0.928 . S
C882 N878 1.345 . S
C882 C883 1.371 . S
C882 H885 0.931 . S
C883 C879 1.391 . S
C883 C882 1.371 . S
C883 H890 0.930 . S
H884 C881 0.928 . S
H885 C882 0.931 . S
H886 C862 0.930 . S
H887 C859 0.930 . S
H888 C868 0.930 . S
H889 C880 0.929 . S
H890 C883 0.930 . S
C891 C892 1.351 . S
C891 N894 1.368 . S
C891 H896 0.931 . S
C892 C891 1.351 . S
C892 N893 1.373 . S
C892 H920 0.930 . S
N893 C892 1.373 . S
N893 C895 1.340 . S
N894 C891 1.368 . S
N894 C895 1.321 . S
N894 Co897 2.135 . S
C895 N893 1.340 . S
C895 N894 1.321 . S
C895 H919 0.930 . S
H896 C891 0.931 . S
Co897 N894 2.135 . S
Co897 N900 2.121 . S
Co897 O905 2.055 . S
Co897 O908 2.039 . S
Co897 N911 2.140 . S
C898 O899 1.227 . S
C898 O908 1.265 . S
O899 C898 1.227 . S
N900 Co897 2.121 . S
N900 C902 1.375 . S
N900 C903 1.313 . S
C901 C902 1.338 . S
C901 N904 1.377 . S
C901 H921 0.930 . S
C902 N900 1.375 . S
C902 C901 1.338 . S
C902 H906 0.931 . S
C903 N900 1.313 . S
C903 N904 1.344 . S
C903 H907 0.930 . S
N904 C901 1.377 . S
N904 C903 1.344 . S
O905 Co897 2.055 . S
O905 C909 1.253 . S
H906 C902 0.931 . S
H907 C903 0.930 . S
O908 Co897 2.039 . S
O908 C898 1.265 . S
C909 O905 1.253 . S
C909 O910 1.227 . S
O910 C909 1.227 . S
N911 Co897 2.140 . S
N911 C914 1.346 . S
N911 C915 1.345 . S
C912 C913 1.387 . S
C912 C916 1.391 . S
C913 C912 1.387 . S
C913 C914 1.369 . S
C913 H922 0.929 . S
C914 N911 1.346 . S
C914 C913 1.369 . S
C914 H917 0.928 . S
C915 N911 1.345 . S
C915 C916 1.371 . S
C915 H918 0.931 . S
C916 C912 1.391 . S
C916 C915 1.371 . S
C916 H923 0.930 . S
H917 C914 0.928 . S
H918 C915 0.931 . S
H919 C895 0.930 . S
H920 C892 0.930 . S
H921 C901 0.930 . S
H922 C913 0.929 . S
H923 C916 0.930 . S
C924 C925 1.351 . S
C924 N927 1.368 . S
C924 H929 0.931 . S
C925 C924 1.351 . S
C925 N926 1.373 . S
C925 H953 0.930 . S
N926 C925 1.373 . S
N926 C928 1.340 . S
N927 C924 1.368 . S
N927 C928 1.321 . S
N927 Co930 2.135 . S
C928 N926 1.340 . S
C928 N927 1.321 . S
C928 H952 0.930 . S
H929 C924 0.931 . S
Co930 N927 2.135 . S
Co930 N933 2.121 . S
Co930 O938 2.055 . S
Co930 O941 2.039 . S
Co930 N944 2.140 . S
C931 O932 1.227 . S
C931 O941 1.265 . S
O932 C931 1.227 . S
N933 Co930 2.121 . S
N933 C935 1.375 . S
N933 C936 1.313 . S
C934 C935 1.338 . S
C934 N937 1.377 . S
C934 H954 0.930 . S
C935 N933 1.375 . S
C935 C934 1.338 . S
C935 H939 0.931 . S
C936 N933 1.313 . S
C936 N937 1.344 . S
C936 H940 0.930 . S
N937 C934 1.377 . S
N937 C936 1.344 . S
O938 Co930 2.055 . S
O938 C942 1.253 . S
H939 C935 0.931 . S
H940 C936 0.930 . S
O941 Co930 2.039 . S
O941 C931 1.265 . S
C942 O938 1.253 . S
C942 O943 1.227 . S
O943 C942 1.227 . S
N944 Co930 2.140 . S
N944 C947 1.346 . S
N944 C948 1.345 . S
C945 C946 1.387 . S
C945 C949 1.391 . S
C946 C945 1.387 . S
C946 C947 1.369 . S
C946 H955 0.929 . S
C947 N944 1.346 . S
C947 C946 1.369 . S
C947 H950 0.928 . S
C948 N944 1.345 . S
C948 C949 1.371 . S
C948 H951 0.931 . S
C949 C945 1.391 . S
C949 C948 1.371 . S
C949 H956 0.930 . S
H950 C947 0.928 . S
H951 C948 0.931 . S
H952 C928 0.930 . S
H953 C925 0.930 . S
H954 C934 0.930 . S
H955 C946 0.929 . S
H956 C949 0.930 . S
C957 C958 1.351 . S
C957 N960 1.368 . S
C957 H962 0.931 . S
C958 C957 1.351 . S
C958 N959 1.373 . S
C958 H986 0.930 . S
N959 C958 1.373 . S
N959 C961 1.340 . S
N960 C957 1.368 . S
N960 C961 1.321 . S
N960 Co963 2.135 . S
C961 N959 1.340 . S
C961 N960 1.321 . S
C961 H985 0.930 . S
H962 C957 0.931 . S
Co963 N960 2.135 . S
Co963 N966 2.156 . S
Co963 O971 2.055 . S
Co963 O974 2.039 . S
Co963 N977 2.140 . S
C964 O965 1.227 . S
C964 O974 1.265 . S
O965 C964 1.227 . S
N966 Co963 2.156 . S
N966 C968 1.365 1_554 S
N966 C969 1.285 1_554 S
C967 C968 1.338 . S
C967 N970 1.377 . S
C967 H987 0.930 . S
C968 N966 1.365 1_556 S
C968 C967 1.338 . S
C968 H972 0.931 1_556 S
C969 N966 1.285 1_556 S
C969 N970 1.344 . S
C969 H973 0.930 . S
N970 C967 1.377 . S
N970 C969 1.344 . S
O971 Co963 2.055 . S
O971 C975 1.253 . S
H972 C968 0.931 1_554 S
H973 C969 0.930 . S
O974 Co963 2.039 . S
O974 C964 1.265 . S
C975 O971 1.253 . S
C975 O976 1.227 . S
O976 C975 1.227 . S
N977 Co963 2.140 . S
N977 C980 1.346 . S
N977 C981 1.345 . S
C978 C979 1.387 . S
C978 C982 1.391 . S
C979 C978 1.387 . S
C979 C980 1.369 . S
C979 H988 0.929 . S
C980 N977 1.346 . S
C980 C979 1.369 . S
C980 H983 0.928 . S
C981 N977 1.345 . S
C981 C982 1.371 . S
C981 H984 0.931 . S
C982 C978 1.391 . S
C982 C981 1.371 . S
C982 H989 0.930 . S
H983 C980 0.928 . S
H984 C981 0.931 . S
H985 C961 0.930 . S
H986 C958 0.930 . S
H987 C967 0.930 . S
H988 C979 0.929 . S
H989 C982 0.930 . S
C990 C991 1.351 . S
C990 N993 1.368 . S
C990 H995 0.931 . S
C991 C990 1.351 . S
C991 N992 1.373 . S
C991 H1019 0.930 . S
N992 C991 1.373 . S
N992 C994 1.340 . S
N993 C990 1.368 . S
N993 C994 1.321 . S
N993 Co996 2.135 . S
C994 N992 1.340 . S
C994 N993 1.321 . S
C994 H1018 0.930 . S
H995 C990 0.931 . S
Co996 N993 2.135 . S
Co996 N999 2.121 . S
Co996 O1004 2.055 . S
Co996 O1007 2.039 . S
Co996 N1010 2.140 . S
C997 O998 1.227 . S
C997 O1007 1.265 . S
O998 C997 1.227 . S
N999 Co996 2.121 . S
N999 C1001 1.375 . S
N999 C1002 1.313 . S
C1000 C1001 1.338 . S
C1000 N1003 1.377 . S
C1000 H1020 0.930 . S
C1001 N999 1.375 . S
C1001 C1000 1.338 . S
C1001 H1005 0.931 . S
C1002 N999 1.313 . S
C1002 N1003 1.344 . S
C1002 H1006 0.930 . S
N1003 C1000 1.377 . S
N1003 C1002 1.344 . S
O1004 Co996 2.055 . S
O1004 C1008 1.253 . S
H1005 C1001 0.931 . S
H1006 C1002 0.930 . S
O1007 Co996 2.039 . S
O1007 C997 1.265 . S
C1008 O1004 1.253 . S
C1008 O1009 1.227 . S
O1009 C1008 1.227 . S
N1010 Co996 2.140 . S
N1010 C1013 1.346 . S
N1010 C1014 1.345 . S
C1011 C1012 1.387 . S
C1011 C1015 1.391 . S
C1012 C1011 1.387 . S
C1012 C1013 1.369 . S
C1012 H1021 0.929 . S
C1013 N1010 1.346 . S
C1013 C1012 1.369 . S
C1013 H1016 0.928 . S
C1014 N1010 1.345 . S
C1014 C1015 1.371 . S
C1014 H1017 0.931 . S
C1015 C1011 1.391 . S
C1015 C1014 1.371 . S
C1015 H1022 0.930 . S
H1016 C1013 0.928 . S
H1017 C1014 0.931 . S
H1018 C994 0.930 . S
H1019 C991 0.930 . S
H1020 C1000 0.930 . S
H1021 C1012 0.929 . S
H1022 C1015 0.930 . S
C1023 C1024 1.351 . S
C1023 N1026 1.368 . S
C1023 H1028 0.931 . S
C1024 C1023 1.351 . S
C1024 N1025 1.373 . S
C1024 H1052 0.930 . S
N1025 C1024 1.373 . S
N1025 C1027 1.340 . S
N1026 C1023 1.368 . S
N1026 C1027 1.321 . S
N1026 Co1029 2.135 . S
C1027 N1025 1.340 . S
C1027 N1026 1.321 . S
C1027 H1051 0.930 . S
H1028 C1023 0.931 . S
Co1029 N1026 2.135 . S
Co1029 N1032 2.121 . S
Co1029 O1037 2.055 . S
Co1029 O1040 2.039 . S
Co1029 N1043 2.140 . S
C1030 O1031 1.227 . S
C1030 O1040 1.265 . S
O1031 C1030 1.227 . S
N1032 Co1029 2.121 . S
N1032 C1034 1.375 . S
N1032 C1035 1.313 . S
C1033 C1034 1.338 . S
C1033 N1036 1.377 . S
C1033 H1053 0.930 . S
C1034 N1032 1.375 . S
C1034 C1033 1.338 . S
C1034 H1038 0.931 . S
C1035 N1032 1.313 . S
C1035 N1036 1.344 . S
C1035 H1039 0.930 . S
N1036 C1033 1.377 . S
N1036 C1035 1.344 . S
O1037 Co1029 2.055 . S
O1037 C1041 1.253 . S
H1038 C1034 0.931 . S
H1039 C1035 0.930 . S
O1040 Co1029 2.039 . S
O1040 C1030 1.265 . S
C1041 O1037 1.253 . S
C1041 O1042 1.227 . S
O1042 C1041 1.227 . S
N1043 Co1029 2.140 . S
N1043 C1046 1.346 . S
N1043 C1047 1.345 . S
C1044 C1045 1.387 . S
C1044 C1048 1.391 . S
C1045 C1044 1.387 . S
C1045 C1046 1.369 . S
C1045 H1054 0.929 . S
C1046 N1043 1.346 . S
C1046 C1045 1.369 . S
C1046 H1049 0.928 . S
C1047 N1043 1.345 . S
C1047 C1048 1.371 . S
C1047 H1050 0.931 . S
C1048 C1044 1.391 . S
C1048 C1047 1.371 . S
C1048 H1055 0.930 . S
H1049 C1046 0.928 . S
H1050 C1047 0.931 . S
H1051 C1027 0.930 . S
H1052 C1024 0.930 . S
H1053 C1033 0.930 . S
H1054 C1045 0.929 . S
H1055 C1048 0.930 . S
H1056 C1064 0.929 . S
H1057 C1066 0.930 . S
H1058 C1068 0.930 . S
H1059 C1071 0.929 . S
H1060 C1074 0.930 . S
H1061 C1076 0.960 . S
H1062 C1076 0.960 . S
H1063 C1076 0.960 . S
C1064 H1056 0.929 . S
C1064 C1065 1.377 . S
C1064 C1066 1.384 . S
C1065 C1064 1.377 . S
C1065 C1071 1.390 . S
C1066 H1057 0.930 . S
C1066 C1064 1.384 . S
C1066 C1067 1.372 . S
C1067 C1066 1.372 . S
C1067 C1068 1.400 . S
C1067 C1072 1.490 . S
C1068 H1058 0.930 . S
C1068 C1067 1.400 . S
C1068 C1071 1.386 . S
H1069 C1085 0.930 . S
H1070 C1086 0.931 . S
C1071 H1059 0.929 . S
C1071 C1065 1.390 . S
C1071 C1068 1.386 . S
C1072 C1067 1.490 . S
C1072 C1074 1.395 . S
C1072 C1075 1.403 . S
H1073 C1079 0.930 . S
C1074 H1060 0.930 . S
C1074 C1072 1.395 . S
C1074 C1077 1.403 . S
C1075 C1072 1.403 . S
C1075 C1076 1.524 . S
C1075 C1079 1.400 . S
C1076 H1061 0.960 . S
C1076 H1062 0.960 . S
C1076 H1063 0.960 . S
C1076 C1075 1.524 . S
C1077 C1074 1.403 . S
C1077 C1078 1.392 . S
C1077 C1081 1.495 . S
C1078 C1077 1.392 . S
C1078 C1079 1.385 . S
C1078 C1080 1.478 . S
C1079 H1073 0.930 . S
C1079 C1075 1.400 . S
C1079 C1078 1.385 . S
C1080 C1078 1.478 . S
C1080 C1082 1.381 . S
C1080 C1086 1.383 . S
C1081 C1077 1.495 . S
C1081 H1087 0.959 . S
C1081 H1088 0.961 . S
C1081 H1089 0.960 . S
C1082 C1080 1.381 . S
C1082 C1083 1.394 . S
C1082 H1090 0.930 . S
C1083 C1082 1.394 . S
C1083 C1084 1.383 . S
C1083 H1091 0.929 . S
C1084 C1083 1.383 . S
C1084 C1085 1.377 . S
C1085 H1069 0.930 . S
C1085 C1084 1.377 . S
C1085 C1086 1.379 . S
C1086 H1070 0.931 . S
C1086 C1080 1.383 . S
C1086 C1085 1.379 . S
H1087 C1081 0.959 . S
H1088 C1081 0.961 . S
H1089 C1081 0.960 . S
H1090 C1082 0.930 . S
H1091 C1083 0.929 . S
H1092 C1100 0.929 . S
H1093 C1102 0.930 . S
H1094 C1104 0.930 . S
H1095 C1107 0.929 . S
H1096 C1110 0.930 . S
H1097 C1112 0.960 . S
H1098 C1112 0.960 . S
H1099 C1112 0.960 . S
C1100 H1092 0.929 . S
C1100 C1101 1.377 . S
C1100 C1102 1.384 . S
C1101 C1100 1.377 . S
C1101 C1107 1.390 . S
C1102 H1093 0.930 . S
C1102 C1100 1.384 . S
C1102 C1103 1.372 . S
C1103 C1102 1.372 . S
C1103 C1104 1.400 . S
C1103 C1108 1.490 . S
C1104 H1094 0.930 . S
C1104 C1103 1.400 . S
C1104 C1107 1.386 . S
H1105 C1121 0.930 . S
H1106 C1122 0.931 . S
C1107 H1095 0.929 . S
C1107 C1101 1.390 . S
C1107 C1104 1.386 . S
C1108 C1103 1.490 . S
C1108 C1110 1.395 . S
C1108 C1111 1.403 . S
H1109 C1115 0.930 . S
C1110 H1096 0.930 . S
C1110 C1108 1.395 . S
C1110 C1113 1.403 . S
C1111 C1108 1.403 . S
C1111 C1112 1.524 . S
C1111 C1115 1.400 . S
C1112 H1097 0.960 . S
C1112 H1098 0.960 . S
C1112 H1099 0.960 . S
C1112 C1111 1.524 . S
C1113 C1110 1.403 . S
C1113 C1114 1.392 . S
C1113 C1117 1.495 . S
C1114 C1113 1.392 . S
C1114 C1115 1.385 . S
C1114 C1116 1.478 . S
C1115 H1109 0.930 . S
C1115 C1111 1.400 . S
C1115 C1114 1.385 . S
C1116 C1114 1.478 . S
C1116 C1118 1.381 . S
C1116 C1122 1.383 . S
C1117 C1113 1.495 . S
C1117 H1123 0.959 . S
C1117 H1124 0.961 . S
C1117 H1125 0.960 . S
C1118 C1116 1.381 . S
C1118 C1119 1.394 . S
C1118 H1126 0.930 . S
C1119 C1118 1.394 . S
C1119 C1120 1.383 . S
C1119 H1127 0.929 . S
C1120 C1119 1.383 . S
C1120 C1121 1.377 . S
C1121 H1105 0.930 . S
C1121 C1120 1.377 . S
C1121 C1122 1.379 . S
C1122 H1106 0.931 . S
C1122 C1116 1.383 . S
C1122 C1121 1.379 . S
H1123 C1117 0.959 . S
H1124 C1117 0.961 . S
H1125 C1117 0.960 . S
H1126 C1118 0.930 . S
H1127 C1119 0.929 . S
H1128 C1136 0.929 . S
H1129 C1138 0.930 . S
H1130 C1140 0.930 . S
H1131 C1143 0.929 . S
H1132 C1146 0.930 . S
H1133 C1148 0.960 . S
H1134 C1148 0.960 . S
H1135 C1148 0.960 . S
C1136 H1128 0.929 . S
C1136 C1137 1.377 . S
C1136 C1138 1.384 . S
C1137 C1136 1.377 . S
C1137 C1143 1.390 . S
C1138 H1129 0.930 . S
C1138 C1136 1.384 . S
C1138 C1139 1.372 . S
C1139 C1138 1.372 . S
C1139 C1140 1.400 . S
C1139 C1144 1.490 . S
C1140 H1130 0.930 . S
C1140 C1139 1.400 . S
C1140 C1143 1.386 . S
H1141 C1157 0.930 . S
H1142 C1158 0.931 . S
C1143 H1131 0.929 . S
C1143 C1137 1.390 . S
C1143 C1140 1.386 . S
C1144 C1139 1.490 . S
C1144 C1146 1.395 . S
C1144 C1147 1.403 . S
H1145 C1151 0.930 . S
C1146 H1132 0.930 . S
C1146 C1144 1.395 . S
C1146 C1149 1.403 . S
C1147 C1144 1.403 . S
C1147 C1148 1.524 . S
C1147 C1151 1.400 . S
C1148 H1133 0.960 . S
C1148 H1134 0.960 . S
C1148 H1135 0.960 . S
C1148 C1147 1.524 . S
C1149 C1146 1.403 . S
C1149 C1150 1.392 . S
C1149 C1153 1.495 . S
C1150 C1149 1.392 . S
C1150 C1151 1.385 . S
C1150 C1152 1.478 . S
C1151 H1145 0.930 . S
C1151 C1147 1.400 . S
C1151 C1150 1.385 . S
C1152 C1150 1.478 . S
C1152 C1154 1.381 . S
C1152 C1158 1.383 . S
C1153 C1149 1.495 . S
C1153 H1159 0.959 . S
C1153 H1160 0.961 . S
C1153 H1161 0.960 . S
C1154 C1152 1.381 . S
C1154 C1155 1.394 . S
C1154 H1162 0.930 . S
C1155 C1154 1.394 . S
C1155 C1156 1.383 . S
C1155 H1163 0.929 . S
C1156 C1155 1.383 . S
C1156 C1157 1.377 . S
C1157 H1141 0.930 . S
C1157 C1156 1.377 . S
C1157 C1158 1.379 . S
C1158 H1142 0.931 . S
C1158 C1152 1.383 . S
C1158 C1157 1.379 . S
H1159 C1153 0.959 . S
H1160 C1153 0.961 . S
H1161 C1153 0.960 . S
H1162 C1154 0.930 . S
H1163 C1155 0.929 . S
H1164 C1172 0.929 . S
H1165 C1174 0.930 . S
H1166 C1176 0.930 . S
H1167 C1179 0.929 . S
H1168 C1182 0.930 . S
H1169 C1184 0.960 . S
H1170 C1184 0.960 . S
H1171 C1184 0.960 . S
C1172 H1164 0.929 . S
C1172 C1173 1.377 . S
C1172 C1174 1.384 . S
C1173 C1172 1.377 . S
C1173 C1179 1.390 . S
C1174 H1165 0.930 . S
C1174 C1172 1.384 . S
C1174 C1175 1.372 . S
C1175 C1174 1.372 . S
C1175 C1176 1.400 . S
C1175 C1180 1.490 . S
C1176 H1166 0.930 . S
C1176 C1175 1.400 . S
C1176 C1179 1.386 . S
H1177 C1193 0.930 . S
H1178 C1194 0.931 . S
C1179 H1167 0.929 . S
C1179 C1173 1.390 . S
C1179 C1176 1.386 . S
C1180 C1175 1.490 . S
C1180 C1182 1.395 . S
C1180 C1183 1.403 . S
H1181 C1187 0.930 . S
C1182 H1168 0.930 . S
C1182 C1180 1.395 . S
C1182 C1185 1.403 . S
C1183 C1180 1.403 . S
C1183 C1184 1.524 . S
C1183 C1187 1.400 . S
C1184 H1169 0.960 . S
C1184 H1170 0.960 . S
C1184 H1171 0.960 . S
C1184 C1183 1.524 . S
C1185 C1182 1.403 . S
C1185 C1186 1.392 . S
C1185 C1189 1.495 . S
C1186 C1185 1.392 . S
C1186 C1187 1.385 . S
C1186 C1188 1.478 . S
C1187 H1181 0.930 . S
C1187 C1183 1.400 . S
C1187 C1186 1.385 . S
C1188 C1186 1.478 . S
C1188 C1190 1.381 . S
C1188 C1194 1.383 . S
C1189 C1185 1.495 . S
C1189 H1195 0.959 . S
C1189 H1196 0.961 . S
C1189 H1197 0.960 . S
C1190 C1188 1.381 . S
C1190 C1191 1.394 . S
C1190 H1198 0.930 . S
C1191 C1190 1.394 . S
C1191 C1192 1.383 . S
C1191 H1199 0.929 . S
C1192 C1191 1.383 . S
C1192 C1193 1.377 . S
C1193 H1177 0.930 . S
C1193 C1192 1.377 . S
C1193 C1194 1.379 . S
C1194 H1178 0.931 . S
C1194 C1188 1.383 . S
C1194 C1193 1.379 . S
H1195 C1189 0.959 . S
H1196 C1189 0.961 . S
H1197 C1189 0.960 . S
H1198 C1190 0.930 . S
H1199 C1191 0.929 . S
H1200 C1208 0.929 . S
H1201 C1210 0.930 . S
H1202 C1212 0.930 . S
H1203 C1215 0.929 . S
H1204 C1218 0.930 . S
H1205 C1220 0.960 . S
H1206 C1220 0.960 . S
H1207 C1220 0.960 . S
C1208 H1200 0.929 . S
C1208 C1209 1.377 . S
C1208 C1210 1.384 . S
C1209 C1208 1.377 . S
C1209 C1215 1.390 . S
C1210 H1201 0.930 . S
C1210 C1208 1.384 . S
C1210 C1211 1.372 . S
C1211 C1210 1.372 . S
C1211 C1212 1.400 . S
C1211 C1216 1.490 . S
C1212 H1202 0.930 . S
C1212 C1211 1.400 . S
C1212 C1215 1.386 . S
H1213 C1229 0.930 . S
H1214 C1230 0.931 . S
C1215 H1203 0.929 . S
C1215 C1209 1.390 . S
C1215 C1212 1.386 . S
C1216 C1211 1.490 . S
C1216 C1218 1.395 . S
C1216 C1219 1.403 . S
H1217 C1223 0.930 . S
C1218 H1204 0.930 . S
C1218 C1216 1.395 . S
C1218 C1221 1.403 . S
C1219 C1216 1.403 . S
C1219 C1220 1.524 . S
C1219 C1223 1.400 . S
C1220 H1205 0.960 . S
C1220 H1206 0.960 . S
C1220 H1207 0.960 . S
C1220 C1219 1.524 . S
C1221 C1218 1.403 . S
C1221 C1222 1.392 . S
C1221 C1225 1.495 . S
C1222 C1221 1.392 . S
C1222 C1223 1.385 . S
C1222 C1224 1.478 . S
C1223 H1217 0.930 . S
C1223 C1219 1.400 . S
C1223 C1222 1.385 . S
C1224 C1222 1.478 . S
C1224 C1226 1.381 . S
C1224 C1230 1.383 . S
C1225 C1221 1.495 . S
C1225 H1231 0.959 . S
C1225 H1232 0.961 . S
C1225 H1233 0.960 . S
C1226 C1224 1.381 . S
C1226 C1227 1.394 . S
C1226 H1234 0.930 . S
C1227 C1226 1.394 . S
C1227 C1228 1.383 . S
C1227 H1235 0.929 . S
C1228 C1227 1.383 . S
C1228 C1229 1.377 . S
C1229 H1213 0.930 . S
C1229 C1228 1.377 . S
C1229 C1230 1.379 . S
C1230 H1214 0.931 . S
C1230 C1224 1.383 . S
C1230 C1229 1.379 . S
H1231 C1225 0.959 . S
H1232 C1225 0.961 . S
H1233 C1225 0.960 . S
H1234 C1226 0.930 . S
H1235 C1227 0.929 . S
H1236 C1244 0.929 . S
H1237 C1246 0.930 . S
H1238 C1248 0.930 . S
H1239 C1251 0.929 . S
H1240 C1254 0.930 . S
H1241 C1256 0.960 . S
H1242 C1256 0.960 . S
H1243 C1256 0.960 . S
C1244 H1236 0.929 . S
C1244 C1245 1.377 . S
C1244 C1246 1.384 . S
C1245 C1244 1.377 . S
C1245 C1251 1.390 . S
C1246 H1237 0.930 . S
C1246 C1244 1.384 . S
C1246 C1247 1.372 . S
C1247 C1246 1.372 . S
C1247 C1248 1.400 . S
C1247 C1252 1.490 . S
C1248 H1238 0.930 . S
C1248 C1247 1.400 . S
C1248 C1251 1.386 . S
H1249 C1265 0.930 . S
H1250 C1266 0.931 . S
C1251 H1239 0.929 . S
C1251 C1245 1.390 . S
C1251 C1248 1.386 . S
C1252 C1247 1.490 . S
C1252 C1254 1.395 . S
C1252 C1255 1.403 . S
H1253 C1259 0.930 . S
C1254 H1240 0.930 . S
C1254 C1252 1.395 . S
C1254 C1257 1.403 . S
C1255 C1252 1.403 . S
C1255 C1256 1.524 . S
C1255 C1259 1.400 . S
C1256 H1241 0.960 . S
C1256 H1242 0.960 . S
C1256 H1243 0.960 . S
C1256 C1255 1.524 . S
C1257 C1254 1.403 . S
C1257 C1258 1.392 . S
C1257 C1261 1.495 . S
C1258 C1257 1.392 . S
C1258 C1259 1.385 . S
C1258 C1260 1.478 . S
C1259 H1253 0.930 . S
C1259 C1255 1.400 . S
C1259 C1258 1.385 . S
C1260 C1258 1.478 . S
C1260 C1262 1.381 . S
C1260 C1266 1.383 . S
C1261 C1257 1.495 . S
C1261 H1267 0.959 . S
C1261 H1268 0.961 . S
C1261 H1269 0.960 . S
C1262 C1260 1.381 . S
C1262 C1263 1.394 . S
C1262 H1270 0.930 . S
C1263 C1262 1.394 . S
C1263 C1264 1.383 . S
C1263 H1271 0.929 . S
C1264 C1263 1.383 . S
C1264 C1265 1.377 . S
C1265 H1249 0.930 . S
C1265 C1264 1.377 . S
C1265 C1266 1.379 . S
C1266 H1250 0.931 . S
C1266 C1260 1.383 . S
C1266 C1265 1.379 . S
H1267 C1261 0.959 . S
H1268 C1261 0.961 . S
H1269 C1261 0.960 . S
H1270 C1262 0.930 . S
H1271 C1263 0.929 . S
H1272 C1280 0.929 . S
H1273 C1282 0.930 . S
H1274 C1284 0.930 . S
H1275 C1287 0.929 . S
H1276 C1290 0.930 . S
H1277 C1292 0.960 . S
H1278 C1292 0.960 . S
H1279 C1292 0.960 . S
C1280 H1272 0.929 . S
C1280 C1281 1.377 . S
C1280 C1282 1.384 . S
C1281 C1280 1.377 . S
C1281 C1287 1.390 . S
C1282 H1273 0.930 . S
C1282 C1280 1.384 . S
C1282 C1283 1.372 . S
C1283 C1282 1.372 . S
C1283 C1284 1.400 . S
C1283 C1288 1.490 . S
C1284 H1274 0.930 . S
C1284 C1283 1.400 . S
C1284 C1287 1.386 . S
H1285 C1301 0.930 . S
H1286 C1302 0.931 . S
C1287 H1275 0.929 . S
C1287 C1281 1.390 . S
C1287 C1284 1.386 . S
C1288 C1283 1.490 . S
C1288 C1290 1.395 . S
C1288 C1291 1.403 . S
H1289 C1295 0.930 . S
C1290 H1276 0.930 . S
C1290 C1288 1.395 . S
C1290 C1293 1.403 . S
C1291 C1288 1.403 . S
C1291 C1292 1.524 . S
C1291 C1295 1.400 . S
C1292 H1277 0.960 . S
C1292 H1278 0.960 . S
C1292 H1279 0.960 . S
C1292 C1291 1.524 . S
C1293 C1290 1.403 . S
C1293 C1294 1.392 . S
C1293 C1297 1.495 . S
C1294 C1293 1.392 . S
C1294 C1295 1.385 . S
C1294 C1296 1.478 . S
C1295 H1289 0.930 . S
C1295 C1291 1.400 . S
C1295 C1294 1.385 . S
C1296 C1294 1.478 . S
C1296 C1298 1.381 . S
C1296 C1302 1.383 . S
C1297 C1293 1.495 . S
C1297 H1303 0.959 . S
C1297 H1304 0.961 . S
C1297 H1305 0.960 . S
C1298 C1296 1.381 . S
C1298 C1299 1.394 . S
C1298 H1306 0.930 . S
C1299 C1298 1.394 . S
C1299 C1300 1.383 . S
C1299 H1307 0.929 . S
C1300 C1299 1.383 . S
C1300 C1301 1.377 . S
C1301 H1285 0.930 . S
C1301 C1300 1.377 . S
C1301 C1302 1.379 . S
C1302 H1286 0.931 . S
C1302 C1296 1.383 . S
C1302 C1301 1.379 . S
H1303 C1297 0.959 . S
H1304 C1297 0.961 . S
H1305 C1297 0.960 . S
H1306 C1298 0.930 . S
H1307 C1299 0.929 . S
H1308 C1316 0.929 . S
H1309 C1318 0.930 . S
H1310 C1320 0.930 . S
H1311 C1323 0.929 . S
H1312 C1326 0.930 . S
H1313 C1328 0.960 . S
H1314 C1328 0.960 . S
H1315 C1328 0.960 . S
C1316 H1308 0.929 . S
C1316 C1317 1.377 . S
C1316 C1318 1.384 . S
C1317 C1316 1.377 . S
C1317 C1323 1.390 . S
C1318 H1309 0.930 . S
C1318 C1316 1.384 . S
C1318 C1319 1.372 . S
C1319 C1318 1.372 . S
C1319 C1320 1.400 . S
C1319 C1324 1.490 . S
C1320 H1310 0.930 . S
C1320 C1319 1.400 . S
C1320 C1323 1.386 . S
H1321 C1337 0.930 . S
H1322 C1338 0.931 . S
C1323 H1311 0.929 . S
C1323 C1317 1.390 . S
C1323 C1320 1.386 . S
C1324 C1319 1.490 . S
C1324 C1326 1.395 . S
C1324 C1327 1.403 . S
H1325 C1331 0.930 . S
C1326 H1312 0.930 . S
C1326 C1324 1.395 . S
C1326 C1329 1.403 . S
C1327 C1324 1.403 . S
C1327 C1328 1.524 . S
C1327 C1331 1.400 . S
C1328 H1313 0.960 . S
C1328 H1314 0.960 . S
C1328 H1315 0.960 . S
C1328 C1327 1.524 . S
C1329 C1326 1.403 . S
C1329 C1330 1.392 . S
C1329 C1333 1.495 . S
C1330 C1329 1.392 . S
C1330 C1331 1.385 . S
C1330 C1332 1.478 . S
C1331 H1325 0.930 . S
C1331 C1327 1.400 . S
C1331 C1330 1.385 . S
C1332 C1330 1.478 . S
C1332 C1334 1.381 . S
C1332 C1338 1.383 . S
C1333 C1329 1.495 . S
C1333 H1339 0.959 . S
C1333 H1340 0.961 . S
C1333 H1341 0.960 . S
C1334 C1332 1.381 . S
C1334 C1335 1.394 . S
C1334 H1342 0.930 . S
C1335 C1334 1.394 . S
C1335 C1336 1.383 . S
C1335 H1343 0.929 . S
C1336 C1335 1.383 . S
C1336 C1337 1.377 . S
C1337 H1321 0.930 . S
C1337 C1336 1.377 . S
C1337 C1338 1.379 . S
C1338 H1322 0.931 . S
C1338 C1332 1.383 . S
C1338 C1337 1.379 . S
H1339 C1333 0.959 . S
H1340 C1333 0.961 . S
H1341 C1333 0.960 . S
H1342 C1334 0.930 . S
H1343 C1335 0.929 . S
H1344 C1352 0.929 . S
H1345 C1354 0.930 . S
H1346 C1356 0.930 . S
H1347 C1359 0.929 . S
H1348 C1362 0.930 . S
H1349 C1364 0.960 . S
H1350 C1364 0.960 . S
H1351 C1364 0.960 . S
C1352 H1344 0.929 . S
C1352 C1353 1.377 . S
C1352 C1354 1.384 . S
C1353 C1352 1.377 . S
C1353 C1359 1.390 . S
C1354 H1345 0.930 . S
C1354 C1352 1.384 . S
C1354 C1355 1.372 . S
C1355 C1354 1.372 . S
C1355 C1356 1.400 . S
C1355 C1360 1.490 . S
C1356 H1346 0.930 . S
C1356 C1355 1.400 . S
C1356 C1359 1.386 . S
H1357 C1373 0.930 . S
H1358 C1374 0.931 . S
C1359 H1347 0.929 . S
C1359 C1353 1.390 . S
C1359 C1356 1.386 . S
C1360 C1355 1.490 . S
C1360 C1362 1.395 . S
C1360 C1363 1.403 . S
H1361 C1367 0.930 . S
C1362 H1348 0.930 . S
C1362 C1360 1.395 . S
C1362 C1365 1.403 . S
C1363 C1360 1.403 . S
C1363 C1364 1.524 . S
C1363 C1367 1.400 . S
C1364 H1349 0.960 . S
C1364 H1350 0.960 . S
C1364 H1351 0.960 . S
C1364 C1363 1.524 . S
C1365 C1362 1.403 . S
C1365 C1366 1.392 . S
C1365 C1369 1.495 . S
C1366 C1365 1.392 . S
C1366 C1367 1.385 . S
C1366 C1368 1.478 . S
C1367 H1361 0.930 . S
C1367 C1363 1.400 . S
C1367 C1366 1.385 . S
C1368 C1366 1.478 . S
C1368 C1370 1.381 . S
C1368 C1374 1.383 . S
C1369 C1365 1.495 . S
C1369 H1375 0.959 . S
C1369 H1376 0.961 . S
C1369 H1377 0.960 . S
C1370 C1368 1.381 . S
C1370 C1371 1.394 . S
C1370 H1378 0.930 . S
C1371 C1370 1.394 . S
C1371 C1372 1.383 . S
C1371 H1379 0.929 . S
C1372 C1371 1.383 . S
C1372 C1373 1.377 . S
C1373 H1357 0.930 . S
C1373 C1372 1.377 . S
C1373 C1374 1.379 . S
C1374 H1358 0.931 . S
C1374 C1368 1.383 . S
C1374 C1373 1.379 . S
H1375 C1369 0.959 . S
H1376 C1369 0.961 . S
H1377 C1369 0.960 . S
H1378 C1370 0.930 . S
H1379 C1371 0.929 . S
H1380 C1388 0.929 . S
H1381 C1390 0.930 . S
H1382 C1392 0.930 . S
H1383 C1395 0.929 . S
H1384 C1398 0.930 . S
H1385 C1400 0.960 . S
H1386 C1400 0.960 . S
H1387 C1400 0.960 . S
C1388 H1380 0.929 . S
C1388 C1389 1.377 . S
C1388 C1390 1.384 . S
C1389 C1388 1.377 . S
C1389 C1395 1.390 . S
C1390 H1381 0.930 . S
C1390 C1388 1.384 . S
C1390 C1391 1.372 . S
C1391 C1390 1.372 . S
C1391 C1392 1.400 . S
C1391 C1396 1.490 . S
C1392 H1382 0.930 . S
C1392 C1391 1.400 . S
C1392 C1395 1.386 . S
H1393 C1409 0.930 . S
H1394 C1410 0.931 . S
C1395 H1383 0.929 . S
C1395 C1389 1.390 . S
C1395 C1392 1.386 . S
C1396 C1391 1.490 . S
C1396 C1398 1.395 . S
C1396 C1399 1.403 . S
H1397 C1403 0.930 . S
C1398 H1384 0.930 . S
C1398 C1396 1.395 . S
C1398 C1401 1.403 . S
C1399 C1396 1.403 . S
C1399 C1400 1.524 . S
C1399 C1403 1.400 . S
C1400 H1385 0.960 . S
C1400 H1386 0.960 . S
C1400 H1387 0.960 . S
C1400 C1399 1.524 . S
C1401 C1398 1.403 . S
C1401 C1402 1.392 . S
C1401 C1405 1.495 . S
C1402 C1401 1.392 . S
C1402 C1403 1.385 . S
C1402 C1404 1.478 . S
C1403 H1397 0.930 . S
C1403 C1399 1.400 . S
C1403 C1402 1.385 . S
C1404 C1402 1.478 . S
C1404 C1406 1.381 . S
C1404 C1410 1.383 . S
C1405 C1401 1.495 . S
C1405 H1411 0.959 . S
C1405 H1412 0.961 . S
C1405 H1413 0.960 . S
C1406 C1404 1.381 . S
C1406 C1407 1.394 . S
C1406 H1414 0.930 . S
C1407 C1406 1.394 . S
C1407 C1408 1.383 . S
C1407 H1415 0.929 . S
C1408 C1407 1.383 . S
C1408 C1409 1.377 . S
C1409 H1393 0.930 . S
C1409 C1408 1.377 . S
C1409 C1410 1.379 . S
C1410 H1394 0.931 . S
C1410 C1404 1.383 . S
C1410 C1409 1.379 . S
H1411 C1405 0.959 . S
H1412 C1405 0.961 . S
H1413 C1405 0.960 . S
H1414 C1406 0.930 . S
H1415 C1407 0.929 . S
H1416 C1424 0.929 . S
H1417 C1426 0.930 . S
H1418 C1428 0.930 . S
H1419 C1431 0.929 . S
H1420 C1434 0.930 . S
H1421 C1436 0.960 . S
H1422 C1436 0.960 . S
H1423 C1436 0.960 . S
C1424 H1416 0.929 . S
C1424 C1425 1.377 . S
C1424 C1426 1.384 . S
C1425 C1424 1.377 . S
C1425 C1431 1.390 . S
C1426 H1417 0.930 . S
C1426 C1424 1.384 . S
C1426 C1427 1.372 . S
C1427 C1426 1.372 . S
C1427 C1428 1.400 . S
C1427 C1432 1.490 . S
C1428 H1418 0.930 . S
C1428 C1427 1.400 . S
C1428 C1431 1.386 . S
H1429 C1445 0.930 . S
H1430 C1446 0.931 . S
C1431 H1419 0.929 . S
C1431 C1425 1.390 . S
C1431 C1428 1.386 . S
C1432 C1427 1.490 . S
C1432 C1434 1.395 . S
C1432 C1435 1.403 . S
H1433 C1439 0.930 . S
C1434 H1420 0.930 . S
C1434 C1432 1.395 . S
C1434 C1437 1.403 . S
C1435 C1432 1.403 . S
C1435 C1436 1.524 . S
C1435 C1439 1.400 . S
C1436 H1421 0.960 . S
C1436 H1422 0.960 . S
C1436 H1423 0.960 . S
C1436 C1435 1.524 . S
C1437 C1434 1.403 . S
C1437 C1438 1.392 . S
C1437 C1441 1.495 . S
C1438 C1437 1.392 . S
C1438 C1439 1.385 . S
C1438 C1440 1.478 . S
C1439 H1433 0.930 . S
C1439 C1435 1.400 . S
C1439 C1438 1.385 . S
C1440 C1438 1.478 . S
C1440 C1442 1.381 . S
C1440 C1446 1.383 . S
C1441 C1437 1.495 . S
C1441 H1447 0.959 . S
C1441 H1448 0.961 . S
C1441 H1449 0.960 . S
C1442 C1440 1.381 . S
C1442 C1443 1.394 . S
C1442 H1450 0.930 . S
C1443 C1442 1.394 . S
C1443 C1444 1.383 . S
C1443 H1451 0.929 . S
C1444 C1443 1.383 . S
C1444 C1445 1.377 . S
C1445 H1429 0.930 . S
C1445 C1444 1.377 . S
C1445 C1446 1.379 . S
C1446 H1430 0.931 . S
C1446 C1440 1.383 . S
C1446 C1445 1.379 . S
H1447 C1441 0.959 . S
H1448 C1441 0.961 . S
H1449 C1441 0.960 . S
H1450 C1442 0.930 . S
H1451 C1443 0.929 . S
H1452 C1460 0.929 . S
H1453 C1462 0.930 . S
H1454 C1464 0.930 . S
H1455 C1467 0.929 . S
H1456 C1470 0.930 . S
H1457 C1472 0.960 . S
H1458 C1472 0.960 . S
H1459 C1472 0.960 . S
C1460 H1452 0.929 . S
C1460 C1461 1.377 . S
C1460 C1462 1.384 . S
C1461 C1460 1.377 . S
C1461 C1467 1.390 . S
C1462 H1453 0.930 . S
C1462 C1460 1.384 . S
C1462 C1463 1.372 . S
C1463 C1462 1.372 . S
C1463 C1464 1.400 . S
C1463 C1468 1.490 . S
C1464 H1454 0.930 . S
C1464 C1463 1.400 . S
C1464 C1467 1.386 . S
H1465 C1481 0.930 . S
H1466 C1482 0.931 . S
C1467 H1455 0.929 . S
C1467 C1461 1.390 . S
C1467 C1464 1.386 . S
C1468 C1463 1.490 . S
C1468 C1470 1.395 . S
C1468 C1471 1.403 . S
H1469 C1475 0.930 . S
C1470 H1456 0.930 . S
C1470 C1468 1.395 . S
C1470 C1473 1.403 . S
C1471 C1468 1.403 . S
C1471 C1472 1.524 . S
C1471 C1475 1.400 . S
C1472 H1457 0.960 . S
C1472 H1458 0.960 . S
C1472 H1459 0.960 . S
C1472 C1471 1.524 . S
C1473 C1470 1.403 . S
C1473 C1474 1.392 . S
C1473 C1477 1.495 . S
C1474 C1473 1.392 . S
C1474 C1475 1.385 . S
C1474 C1476 1.478 . S
C1475 H1469 0.930 . S
C1475 C1471 1.400 . S
C1475 C1474 1.385 . S
C1476 C1474 1.478 . S
C1476 C1478 1.381 . S
C1476 C1482 1.383 . S
C1477 C1473 1.495 . S
C1477 H1483 0.959 . S
C1477 H1484 0.961 . S
C1477 H1485 0.960 . S
C1478 C1476 1.381 . S
C1478 C1479 1.394 . S
C1478 H1486 0.930 . S
C1479 C1478 1.394 . S
C1479 C1480 1.383 . S
C1479 H1487 0.929 . S
C1480 C1479 1.383 . S
C1480 C1481 1.377 . S
C1481 H1465 0.930 . S
C1481 C1480 1.377 . S
C1481 C1482 1.379 . S
C1482 H1466 0.931 . S
C1482 C1476 1.383 . S
C1482 C1481 1.379 . S
H1483 C1477 0.959 . S
H1484 C1477 0.961 . S
H1485 C1477 0.960 . S
H1486 C1478 0.930 . S
H1487 C1479 0.929 . S
H1488 C1496 0.929 . S
H1489 C1498 0.930 . S
H1490 C1500 0.930 . S
H1491 C1503 0.929 . S
H1492 C1506 0.930 . S
H1493 C1508 0.960 . S
H1494 C1508 0.960 . S
H1495 C1508 0.960 . S
C1496 H1488 0.929 . S
C1496 C1497 1.377 . S
C1496 C1498 1.384 . S
C1497 C1496 1.377 . S
C1497 C1503 1.390 . S
C1498 H1489 0.930 . S
C1498 C1496 1.384 . S
C1498 C1499 1.372 . S
C1499 C1498 1.372 . S
C1499 C1500 1.400 . S
C1499 C1504 1.490 . S
C1500 H1490 0.930 . S
C1500 C1499 1.400 . S
C1500 C1503 1.386 . S
H1501 C1517 0.930 . S
H1502 C1518 0.931 . S
C1503 H1491 0.929 . S
C1503 C1497 1.390 . S
C1503 C1500 1.386 . S
C1504 C1499 1.490 . S
C1504 C1506 1.395 . S
C1504 C1507 1.403 . S
H1505 C1511 0.930 . S
C1506 H1492 0.930 . S
C1506 C1504 1.395 . S
C1506 C1509 1.403 . S
C1507 C1504 1.403 . S
C1507 C1508 1.524 . S
C1507 C1511 1.400 . S
C1508 H1493 0.960 . S
C1508 H1494 0.960 . S
C1508 H1495 0.960 . S
C1508 C1507 1.524 . S
C1509 C1506 1.403 . S
C1509 C1510 1.392 . S
C1509 C1513 1.495 . S
C1510 C1509 1.392 . S
C1510 C1511 1.385 . S
C1510 C1512 1.478 . S
C1511 H1505 0.930 . S
C1511 C1507 1.400 . S
C1511 C1510 1.385 . S
C1512 C1510 1.478 . S
C1512 C1514 1.381 . S
C1512 C1518 1.383 . S
C1513 C1509 1.495 . S
C1513 H1519 0.959 . S
C1513 H1520 0.961 . S
C1513 H1521 0.960 . S
C1514 C1512 1.381 . S
C1514 C1515 1.394 . S
C1514 H1522 0.930 . S
C1515 C1514 1.394 . S
C1515 C1516 1.383 . S
C1515 H1523 0.929 . S
C1516 C1515 1.383 . S
C1516 C1517 1.377 . S
C1517 H1501 0.930 . S
C1517 C1516 1.377 . S
C1517 C1518 1.379 . S
C1518 H1502 0.931 . S
C1518 C1512 1.383 . S
C1518 C1517 1.379 . S
H1519 C1513 0.959 . S
H1520 C1513 0.961 . S
H1521 C1513 0.960 . S
H1522 C1514 0.930 . S
H1523 C1515 0.929 . S
H1524 C1532 0.929 . S
H1525 C1534 0.930 . S
H1526 C1536 0.930 . S
H1527 C1539 0.929 . S
H1528 C1542 0.930 . S
H1529 C1544 0.960 . S
H1530 C1544 0.960 . S
H1531 C1544 0.960 . S
C1532 H1524 0.929 . S
C1532 C1533 1.377 . S
C1532 C1534 1.384 . S
C1533 C1532 1.377 . S
C1533 C1539 1.390 . S
C1534 H1525 0.930 . S
C1534 C1532 1.384 . S
C1534 C1535 1.372 . S
C1535 C1534 1.372 . S
C1535 C1536 1.400 . S
C1535 C1540 1.490 . S
C1536 H1526 0.930 . S
C1536 C1535 1.400 . S
C1536 C1539 1.386 . S
H1537 C1553 0.930 . S
H1538 C1554 0.931 . S
C1539 H1527 0.929 . S
C1539 C1533 1.390 . S
C1539 C1536 1.386 . S
C1540 C1535 1.490 . S
C1540 C1542 1.395 . S
C1540 C1543 1.403 . S
H1541 C1547 0.930 . S
C1542 H1528 0.930 . S
C1542 C1540 1.395 . S
C1542 C1545 1.403 . S
C1543 C1540 1.403 . S
C1543 C1544 1.524 . S
C1543 C1547 1.400 . S
C1544 H1529 0.960 . S
C1544 H1530 0.960 . S
C1544 H1531 0.960 . S
C1544 C1543 1.524 . S
C1545 C1542 1.403 . S
C1545 C1546 1.392 . S
C1545 C1549 1.495 . S
C1546 C1545 1.392 . S
C1546 C1547 1.385 . S
C1546 C1548 1.478 . S
C1547 H1541 0.930 . S
C1547 C1543 1.400 . S
C1547 C1546 1.385 . S
C1548 C1546 1.478 . S
C1548 C1550 1.381 . S
C1548 C1554 1.383 . S
C1549 C1545 1.495 . S
C1549 H1555 0.959 . S
C1549 H1556 0.961 . S
C1549 H1557 0.960 . S
C1550 C1548 1.381 . S
C1550 C1551 1.394 . S
C1550 H1558 0.930 . S
C1551 C1550 1.394 . S
C1551 C1552 1.383 . S
C1551 H1559 0.929 . S
C1552 C1551 1.383 . S
C1552 C1553 1.377 . S
C1553 H1537 0.930 . S
C1553 C1552 1.377 . S
C1553 C1554 1.379 . S
C1554 H1538 0.931 . S
C1554 C1548 1.383 . S
C1554 C1553 1.379 . S
H1555 C1549 0.959 . S
H1556 C1549 0.961 . S
H1557 C1549 0.960 . S
H1558 C1550 0.930 . S
H1559 C1551 0.929 . S
H1560 C1568 0.929 . S
H1561 C1570 0.930 . S
H1562 C1572 0.930 . S
H1563 C1575 0.929 . S
H1564 C1578 0.930 . S
H1565 C1580 0.960 . S
H1566 C1580 0.960 . S
H1567 C1580 0.960 . S
C1568 H1560 0.929 . S
C1568 C1569 1.377 . S
C1568 C1570 1.384 . S
C1569 C1568 1.377 . S
C1569 C1575 1.390 . S
C1570 H1561 0.930 . S
C1570 C1568 1.384 . S
C1570 C1571 1.372 . S
C1571 C1570 1.372 . S
C1571 C1572 1.400 . S
C1571 C1576 1.490 . S
C1572 H1562 0.930 . S
C1572 C1571 1.400 . S
C1572 C1575 1.386 . S
H1573 C1589 0.930 . S
H1574 C1590 0.931 . S
C1575 H1563 0.929 . S
C1575 C1569 1.390 . S
C1575 C1572 1.386 . S
C1576 C1571 1.490 . S
C1576 C1578 1.395 . S
C1576 C1579 1.403 . S
H1577 C1583 0.930 . S
C1578 H1564 0.930 . S
C1578 C1576 1.395 . S
C1578 C1581 1.403 . S
C1579 C1576 1.403 . S
C1579 C1580 1.524 . S
C1579 C1583 1.400 . S
C1580 H1565 0.960 . S
C1580 H1566 0.960 . S
C1580 H1567 0.960 . S
C1580 C1579 1.524 . S
C1581 C1578 1.403 . S
C1581 C1582 1.392 . S
C1581 C1585 1.495 . S
C1582 C1581 1.392 . S
C1582 C1583 1.385 . S
C1582 C1584 1.478 . S
C1583 H1577 0.930 . S
C1583 C1579 1.400 . S
C1583 C1582 1.385 . S
C1584 C1582 1.478 . S
C1584 C1586 1.381 . S
C1584 C1590 1.383 . S
C1585 C1581 1.495 . S
C1585 H1591 0.959 . S
C1585 H1592 0.961 . S
C1585 H1593 0.960 . S
C1586 C1584 1.381 . S
C1586 C1587 1.394 . S
C1586 H1594 0.930 . S
C1587 C1586 1.394 . S
C1587 C1588 1.383 . S
C1587 H1595 0.929 . S
C1588 C1587 1.383 . S
C1588 C1589 1.377 . S
C1589 H1573 0.930 . S
C1589 C1588 1.377 . S
C1589 C1590 1.379 . S
C1590 H1574 0.931 . S
C1590 C1584 1.383 . S
C1590 C1589 1.379 . S
H1591 C1585 0.959 . S
H1592 C1585 0.961 . S
H1593 C1585 0.960 . S
H1594 C1586 0.930 . S
H1595 C1587 0.929 . S
H1596 C1604 0.929 . S
H1597 C1606 0.930 . S
H1598 C1608 0.930 . S
H1599 C1611 0.929 . S
H1600 C1614 0.930 . S
H1601 C1616 0.960 . S
H1602 C1616 0.960 . S
H1603 C1616 0.960 . S
C1604 H1596 0.929 . S
C1604 C1605 1.377 . S
C1604 C1606 1.384 . S
C1605 C1604 1.377 . S
C1605 C1611 1.390 . S
C1606 H1597 0.930 . S
C1606 C1604 1.384 . S
C1606 C1607 1.372 . S
C1607 C1606 1.372 . S
C1607 C1608 1.400 . S
C1607 C1612 1.490 . S
C1608 H1598 0.930 . S
C1608 C1607 1.400 . S
C1608 C1611 1.386 . S
H1609 C1625 0.930 . S
H1610 C1626 0.931 . S
C1611 H1599 0.929 . S
C1611 C1605 1.390 . S
C1611 C1608 1.386 . S
C1612 C1607 1.490 . S
C1612 C1614 1.395 . S
C1612 C1615 1.403 . S
H1613 C1619 0.930 . S
C1614 H1600 0.930 . S
C1614 C1612 1.395 . S
C1614 C1617 1.403 . S
C1615 C1612 1.403 . S
C1615 C1616 1.524 . S
C1615 C1619 1.400 . S
C1616 H1601 0.960 . S
C1616 H1602 0.960 . S
C1616 H1603 0.960 . S
C1616 C1615 1.524 . S
C1617 C1614 1.403 . S
C1617 C1618 1.392 . S
C1617 C1621 1.495 . S
C1618 C1617 1.392 . S
C1618 C1619 1.385 . S
C1618 C1620 1.478 . S
C1619 H1613 0.930 . S
C1619 C1615 1.400 . S
C1619 C1618 1.385 . S
C1620 C1618 1.478 . S
C1620 C1622 1.381 . S
C1620 C1626 1.383 . S
C1621 C1617 1.495 . S
C1621 H1627 0.959 . S
C1621 H1628 0.961 . S
C1621 H1629 0.960 . S
C1622 C1620 1.381 . S
C1622 C1623 1.394 . S
C1622 H1630 0.930 . S
C1623 C1622 1.394 . S
C1623 C1624 1.383 . S
C1623 H1631 0.929 . S
C1624 C1623 1.383 . S
C1624 C1625 1.377 . S
C1625 H1609 0.930 . S
C1625 C1624 1.377 . S
C1625 C1626 1.379 . S
C1626 H1610 0.931 . S
C1626 C1620 1.383 . S
C1626 C1625 1.379 . S
H1627 C1621 0.959 . S
H1628 C1621 0.961 . S
H1629 C1621 0.960 . S
H1630 C1622 0.930 . S
H1631 C1623 0.929 . S
H1632 C1640 0.929 . S
H1633 C1642 0.930 . S
H1634 C1644 0.930 . S
H1635 C1647 0.929 . S
H1636 C1650 0.930 . S
H1637 C1652 0.960 1_455 S
H1638 C1652 0.960 . S
H1639 C1652 0.960 . S
C1640 H1632 0.929 . S
C1640 C1641 1.377 . S
C1640 C1642 1.384 . S
C1641 C1640 1.377 . S
C1641 C1647 1.390 . S
C1642 H1633 0.930 . S
C1642 C1640 1.384 . S
C1642 C1643 1.372 . S
C1643 C1642 1.372 . S
C1643 C1644 1.400 . S
C1643 C1648 1.490 . S
C1644 H1634 0.930 . S
C1644 C1643 1.400 . S
C1644 C1647 1.386 . S
H1645 C1661 0.930 . S
H1646 C1662 0.931 . S
C1647 H1635 0.929 . S
C1647 C1641 1.390 . S
C1647 C1644 1.386 . S
C1648 C1643 1.490 . S
C1648 C1650 1.395 . S
C1648 C1651 1.403 . S
H1649 C1655 0.930 . S
C1650 H1636 0.930 . S
C1650 C1648 1.395 . S
C1650 C1653 1.403 1_655 S
C1651 C1648 1.403 . S
C1651 C1652 1.524 . S
C1651 C1655 1.400 1_655 S
C1652 H1637 0.960 1_655 S
C1652 H1638 0.960 . S
C1652 H1639 0.960 . S
C1652 C1651 1.524 . S
C1653 C1650 1.403 1_455 S
C1653 C1654 1.392 . S
C1653 C1657 1.495 . S
C1654 C1653 1.392 . S
C1654 C1655 1.385 . S
C1654 C1656 1.478 . S
C1655 H1649 0.930 . S
C1655 C1651 1.400 1_455 S
C1655 C1654 1.385 . S
C1656 C1654 1.478 . S
C1656 C1658 1.381 . S
C1656 C1662 1.383 . S
C1657 C1653 1.495 . S
C1657 H1663 0.959 1_455 S
C1657 H1664 0.961 . S
C1657 H1665 0.960 . S
C1658 C1656 1.381 . S
C1658 C1659 1.394 . S
C1658 H1666 0.930 . S
C1659 C1658 1.394 . S
C1659 C1660 1.383 . S
C1659 H1667 0.929 . S
C1660 C1659 1.383 . S
C1660 C1661 1.377 . S
C1661 H1645 0.930 . S
C1661 C1660 1.377 . S
C1661 C1662 1.379 . S
C1662 H1646 0.931 . S
C1662 C1656 1.383 . S
C1662 C1661 1.379 . S
H1663 C1657 0.959 1_655 S
H1664 C1657 0.961 . S
H1665 C1657 0.960 . S
H1666 C1658 0.930 . S
H1667 C1659 0.929 . S
H1668 C1676 0.929 . S
H1669 C1678 0.930 . S
H1670 C1680 0.930 . S
H1671 C1683 0.929 . S
H1672 C1686 0.930 . S
H1673 C1688 0.960 . S
H1674 C1688 0.960 . S
H1675 C1688 0.960 . S
C1676 H1668 0.929 . S
C1676 C1677 1.377 . S
C1676 C1678 1.384 . S
C1677 C1676 1.377 . S
C1677 C1683 1.390 . S
C1678 H1669 0.930 . S
C1678 C1676 1.384 . S
C1678 C1679 1.372 . S
C1679 C1678 1.372 . S
C1679 C1680 1.400 . S
C1679 C1684 1.490 . S
C1680 H1670 0.930 . S
C1680 C1679 1.400 . S
C1680 C1683 1.386 . S
H1681 C1697 0.930 . S
H1682 C1698 0.931 . S
C1683 H1671 0.929 . S
C1683 C1677 1.390 . S
C1683 C1680 1.386 . S
C1684 C1679 1.490 . S
C1684 C1686 1.395 1_655 S
C1684 C1687 1.403 . S
H1685 C1691 0.930 . S
C1686 H1672 0.930 . S
C1686 C1684 1.395 1_455 S
C1686 C1689 1.403 . S
C1687 C1684 1.403 . S
C1687 C1688 1.524 . S
C1687 C1691 1.400 . S
C1688 H1673 0.960 . S
C1688 H1674 0.960 . S
C1688 H1675 0.960 . S
C1688 C1687 1.524 . S
C1689 C1686 1.403 . S
C1689 C1690 1.392 . S
C1689 C1693 1.495 . S
C1690 C1689 1.392 . S
C1690 C1691 1.385 1_455 S
C1690 C1692 1.478 . S
C1691 H1685 0.930 . S
C1691 C1687 1.400 . S
C1691 C1690 1.385 1_655 S
C1692 C1690 1.478 . S
C1692 C1694 1.381 . S
C1692 C1698 1.383 . S
C1693 C1689 1.495 . S
C1693 H1699 0.959 . S
C1693 H1700 0.961 . S
C1693 H1701 0.960 . S
C1694 C1692 1.381 . S
C1694 C1695 1.394 . S
C1694 H1702 0.930 . S
C1695 C1694 1.394 . S
C1695 C1696 1.383 . S
C1695 H1703 0.929 . S
C1696 C1695 1.383 . S
C1696 C1697 1.377 . S
C1697 H1681 0.930 . S
C1697 C1696 1.377 . S
C1697 C1698 1.379 . S
C1698 H1682 0.931 . S
C1698 C1692 1.383 . S
C1698 C1697 1.379 . S
H1699 C1693 0.959 . S
H1700 C1693 0.961 . S
H1701 C1693 0.960 . S
H1702 C1694 0.930 . S
H1703 C1695 0.929 . S
H1704 C1712 0.929 . S
H1705 C1714 0.930 . S
H1706 C1716 0.930 . S
H1707 C1719 0.929 . S
H1708 C1722 0.930 . S
H1709 C1724 0.960 . S
H1710 C1724 0.960 . S
H1711 C1724 0.960 . S
C1712 H1704 0.929 . S
C1712 C1713 1.377 . S
C1712 C1714 1.384 . S
C1713 C1712 1.377 . S
C1713 C1719 1.390 . S
C1714 H1705 0.930 . S
C1714 C1712 1.384 . S
C1714 C1715 1.372 . S
C1715 C1714 1.372 . S
C1715 C1716 1.400 . S
C1715 C1720 1.490 . S
C1716 H1706 0.930 . S
C1716 C1715 1.400 . S
C1716 C1719 1.386 . S
H1717 C1733 0.930 . S
H1718 C1734 0.931 . S
C1719 H1707 0.929 . S
C1719 C1713 1.390 . S
C1719 C1716 1.386 . S
C1720 C1715 1.490 . S
C1720 C1722 1.395 . S
C1720 C1723 1.403 . S
H1721 C1727 0.930 . S
C1722 H1708 0.930 . S
C1722 C1720 1.395 . S
C1722 C1725 1.403 . S
C1723 C1720 1.403 . S
C1723 C1724 1.524 . S
C1723 C1727 1.400 . S
C1724 H1709 0.960 . S
C1724 H1710 0.960 . S
C1724 H1711 0.960 . S
C1724 C1723 1.524 . S
C1725 C1722 1.403 . S
C1725 C1726 1.392 . S
C1725 C1729 1.495 . S
C1726 C1725 1.392 . S
C1726 C1727 1.385 . S
C1726 C1728 1.478 . S
C1727 H1721 0.930 . S
C1727 C1723 1.400 . S
C1727 C1726 1.385 . S
C1728 C1726 1.478 . S
C1728 C1730 1.381 . S
C1728 C1734 1.383 . S
C1729 C1725 1.495 . S
C1729 H1735 0.959 . S
C1729 H1736 0.961 . S
C1729 H1737 0.960 . S
C1730 C1728 1.381 . S
C1730 C1731 1.394 . S
C1730 H1738 0.930 . S
C1731 C1730 1.394 . S
C1731 C1732 1.383 . S
C1731 H1739 0.929 . S
C1732 C1731 1.383 . S
C1732 C1733 1.377 . S
C1733 H1717 0.930 . S
C1733 C1732 1.377 . S
C1733 C1734 1.379 . S
C1734 H1718 0.931 . S
C1734 C1728 1.383 . S
C1734 C1733 1.379 . S
H1735 C1729 0.959 . S
H1736 C1729 0.961 . S
H1737 C1729 0.960 . S
H1738 C1730 0.930 . S
H1739 C1731 0.929 . S
H1740 C1748 0.929 1_556 S
H1741 C1750 0.930 1_556 S
H1742 C1752 0.930 . S
H1743 C1755 0.929 . S
H1744 C1758 0.930 . S
H1745 C1760 0.960 . S
H1746 C1760 0.960 1_556 S
H1747 C1760 0.960 . S
C1748 H1740 0.929 1_554 S
C1748 C1749 1.377 . S
C1748 C1750 1.384 . S
C1749 C1748 1.377 . S
C1749 C1755 1.390 . S
C1750 H1741 0.930 1_554 S
C1750 C1748 1.384 . S
C1750 C1751 1.372 . S
C1751 C1750 1.372 . S
C1751 C1752 1.400 . S
C1751 C1756 1.490 . S
C1752 H1742 0.930 . S
C1752 C1751 1.400 . S
C1752 C1755 1.386 . S
H1753 C1769 0.930 . S
H1754 C1770 0.931 . S
C1755 H1743 0.929 . S
C1755 C1749 1.390 . S
C1755 C1752 1.386 . S
C1756 C1751 1.490 . S
C1756 C1758 1.395 . S
C1756 C1759 1.403 . S
H1757 C1763 0.930 . S
C1758 H1744 0.930 . S
C1758 C1756 1.395 . S
C1758 C1761 1.403 . S
C1759 C1756 1.403 . S
C1759 C1760 1.524 . S
C1759 C1763 1.400 . S
C1760 H1745 0.960 . S
C1760 H1746 0.960 1_554 S
C1760 H1747 0.960 . S
C1760 C1759 1.524 . S
C1761 C1758 1.403 . S
C1761 C1762 1.392 . S
C1761 C1765 1.495 . S
C1762 C1761 1.392 . S
C1762 C1763 1.385 . S
C1762 C1764 1.478 . S
C1763 H1757 0.930 . S
C1763 C1759 1.400 . S
C1763 C1762 1.385 . S
C1764 C1762 1.478 . S
C1764 C1766 1.381 . S
C1764 C1770 1.383 . S
C1765 C1761 1.495 . S
C1765 H1771 0.959 . S
C1765 H1772 0.961 . S
C1765 H1773 0.960 . S
C1766 C1764 1.381 . S
C1766 C1767 1.394 . S
C1766 H1774 0.930 1_554 S
C1767 C1766 1.394 . S
C1767 C1768 1.383 . S
C1767 H1775 0.929 1_554 S
C1768 C1767 1.383 . S
C1768 C1769 1.377 . S
C1769 H1753 0.930 . S
C1769 C1768 1.377 . S
C1769 C1770 1.379 . S
C1770 H1754 0.931 . S
C1770 C1764 1.383 . S
C1770 C1769 1.379 . S
H1771 C1765 0.959 . S
H1772 C1765 0.961 . S
H1773 C1765 0.960 . S
H1774 C1766 0.930 1_556 S
H1775 C1767 0.929 1_556 S
H1776 C1784 0.929 . S
H1777 C1786 0.930 . S
H1778 C1788 0.930 . S
H1779 C1791 0.929 . S
H1780 C1794 0.930 . S
H1781 C1796 0.938 1_455 S
H1782 C1796 0.960 . S
H1783 C1796 0.960 . S
C1784 H1776 0.929 . S
C1784 C1785 1.377 . S
C1784 C1786 1.384 . S
C1785 C1784 1.377 . S
C1785 C1791 1.390 . S
C1786 H1777 0.930 . S
C1786 C1784 1.384 . S
C1786 C1787 1.372 . S
C1787 C1786 1.372 . S
C1787 C1788 1.400 . S
C1787 C1792 1.490 . S
C1788 H1778 0.930 . S
C1788 C1787 1.400 . S
C1788 C1791 1.386 . S
H1789 C1805 0.930 . S
H1790 C1806 0.931 . S
C1791 H1779 0.929 . S
C1791 C1785 1.390 . S
C1791 C1788 1.386 . S
C1792 C1787 1.490 . S
C1792 C1794 1.395 . S
C1792 C1795 1.403 . S
H1793 C1799 0.930 . S
C1794 H1780 0.930 . S
C1794 C1792 1.395 . S
C1794 C1797 1.403 1_655 S
C1795 C1792 1.403 . S
C1795 C1796 1.524 . S
C1795 C1799 1.400 1_655 S
C1796 H1781 0.938 1_655 S
C1796 H1782 0.960 . S
C1796 H1783 0.960 . S
C1796 C1795 1.524 . S
C1797 C1794 1.403 1_455 S
C1797 C1798 1.392 . S
C1797 C1801 1.495 . S
C1798 C1797 1.392 . S
C1798 C1799 1.385 . S
C1798 C1800 1.478 . S
C1799 H1793 0.930 . S
C1799 C1795 1.400 1_455 S
C1799 C1798 1.385 . S
C1800 C1798 1.478 . S
C1800 C1802 1.381 . S
C1800 C1806 1.383 . S
C1801 C1797 1.495 . S
C1801 H1807 0.981 . S
C1801 H1808 0.961 . S
C1801 H1809 0.960 . S
C1802 C1800 1.381 . S
C1802 C1803 1.394 . S
C1802 H1810 0.930 . S
C1803 C1802 1.394 . S
C1803 C1804 1.383 . S
C1803 H1811 0.929 . S
C1804 C1803 1.383 . S
C1804 C1805 1.377 . S
C1805 H1789 0.930 . S
C1805 C1804 1.377 . S
C1805 C1806 1.379 . S
C1806 H1790 0.931 . S
C1806 C1800 1.383 . S
C1806 C1805 1.379 . S
H1807 C1801 0.981 . S
H1808 C1801 0.961 . S
H1809 C1801 0.960 . S
H1810 C1802 0.930 . S
H1811 C1803 0.929 . S
H1812 C1820 0.929 . S
H1813 C1822 0.930 . S
H1814 C1824 0.930 . S
H1815 C1827 0.929 . S
H1816 C1830 0.930 . S
H1817 C1832 0.960 . S
H1818 C1832 0.960 . S
H1819 C1832 0.960 . S
C1820 H1812 0.929 . S
C1820 C1821 1.377 . S
C1820 C1822 1.384 . S
C1821 C1820 1.377 . S
C1821 C1827 1.390 . S
C1822 H1813 0.930 . S
C1822 C1820 1.384 . S
C1822 C1823 1.372 . S
C1823 C1822 1.372 . S
C1823 C1824 1.400 . S
C1823 C1828 1.490 . S
C1824 H1814 0.930 . S
C1824 C1823 1.400 . S
C1824 C1827 1.386 . S
H1825 C1841 0.930 . S
H1826 C1842 0.931 . S
C1827 H1815 0.929 . S
C1827 C1821 1.390 . S
C1827 C1824 1.386 . S
C1828 C1823 1.490 . S
C1828 C1830 1.395 . S
C1828 C1831 1.403 . S
H1829 C1835 0.930 . S
C1830 H1816 0.930 . S
C1830 C1828 1.395 . S
C1830 C1833 1.403 . S
C1831 C1828 1.403 . S
C1831 C1832 1.524 . S
C1831 C1835 1.400 . S
C1832 H1817 0.960 . S
C1832 H1818 0.960 . S
C1832 H1819 0.960 . S
C1832 C1831 1.524 . S
C1833 C1830 1.403 . S
C1833 C1834 1.392 . S
C1833 C1837 1.495 . S
C1834 C1833 1.392 . S
C1834 C1835 1.385 . S
C1834 C1836 1.478 . S
C1835 H1829 0.930 . S
C1835 C1831 1.400 . S
C1835 C1834 1.385 . S
C1836 C1834 1.478 . S
C1836 C1838 1.381 . S
C1836 C1842 1.383 . S
C1837 C1833 1.495 . S
C1837 H1843 0.959 . S
C1837 H1844 0.961 . S
C1837 H1845 0.960 . S
C1838 C1836 1.381 . S
C1838 C1839 1.394 . S
C1838 H1846 0.930 . S
C1839 C1838 1.394 . S
C1839 C1840 1.383 . S
C1839 H1847 0.929 . S
C1840 C1839 1.383 . S
C1840 C1841 1.377 . S
C1841 H1825 0.930 . S
C1841 C1840 1.377 . S
C1841 C1842 1.379 . S
C1842 H1826 0.931 . S
C1842 C1836 1.383 . S
C1842 C1841 1.379 . S
H1843 C1837 0.959 . S
H1844 C1837 0.961 . S
H1845 C1837 0.960 . S
H1846 C1838 0.930 . S
H1847 C1839 0.929 . S
H1848 C1856 0.929 . S
H1849 C1858 0.930 . S
H1850 C1860 0.930 . S
H1851 C1863 0.929 . S
H1852 C1866 0.930 . S
H1853 C1868 0.960 . S
H1854 C1868 0.960 . S
H1855 C1868 0.960 . S
C1856 H1848 0.929 . S
C1856 C1857 1.377 . S
C1856 C1858 1.384 . S
C1857 C1856 1.377 . S
C1857 C1863 1.390 . S
C1858 H1849 0.930 . S
C1858 C1856 1.384 . S
C1858 C1859 1.372 . S
C1859 C1858 1.372 . S
C1859 C1860 1.400 . S
C1859 C1864 1.490 . S
C1860 H1850 0.930 . S
C1860 C1859 1.400 . S
C1860 C1863 1.386 . S
H1861 C1877 0.930 . S
H1862 C1878 0.931 . S
C1863 H1851 0.929 . S
C1863 C1857 1.390 . S
C1863 C1860 1.386 . S
C1864 C1859 1.490 . S
C1864 C1866 1.395 . S
C1864 C1867 1.403 . S
H1865 C1871 0.930 . S
C1866 H1852 0.930 . S
C1866 C1864 1.395 . S
C1866 C1869 1.403 . S
C1867 C1864 1.403 . S
C1867 C1868 1.524 . S
C1867 C1871 1.400 . S
C1868 H1853 0.960 . S
C1868 H1854 0.960 . S
C1868 H1855 0.960 . S
C1868 C1867 1.524 . S
C1869 C1866 1.403 . S
C1869 C1870 1.392 . S
C1869 C1873 1.495 . S
C1870 C1869 1.392 . S
C1870 C1871 1.385 . S
C1870 C1872 1.478 . S
C1871 H1865 0.930 . S
C1871 C1867 1.400 . S
C1871 C1870 1.385 . S
C1872 C1870 1.478 . S
C1872 C1874 1.381 . S
C1872 C1878 1.383 . S
C1873 C1869 1.495 . S
C1873 H1879 0.959 . S
C1873 H1880 0.961 . S
C1873 H1881 0.960 . S
C1874 C1872 1.381 . S
C1874 C1875 1.394 . S
C1874 H1882 0.930 . S
C1875 C1874 1.394 . S
C1875 C1876 1.383 . S
C1875 H1883 0.929 . S
C1876 C1875 1.383 . S
C1876 C1877 1.377 . S
C1877 H1861 0.930 . S
C1877 C1876 1.377 . S
C1877 C1878 1.379 . S
C1878 H1862 0.931 . S
C1878 C1872 1.383 . S
C1878 C1877 1.379 . S
H1879 C1873 0.959 . S
H1880 C1873 0.961 . S
H1881 C1873 0.960 . S
H1882 C1874 0.930 . S
H1883 C1875 0.929 . S
H1884 C1892 0.929 1_554 S
H1885 C1894 0.930 1_554 S
H1886 C1896 0.930 . S
H1887 C1899 0.929 . S
H1888 C1902 0.930 . S
H1889 C1904 0.960 . S
H1890 C1904 0.960 . S
H1891 C1904 0.960 . S
C1892 H1884 0.929 1_556 S
C1892 C1893 1.377 . S
C1892 C1894 1.384 . S
C1893 C1892 1.377 . S
C1893 C1899 1.390 . S
C1894 H1885 0.930 1_556 S
C1894 C1892 1.384 . S
C1894 C1895 1.372 . S
C1895 C1894 1.372 . S
C1895 C1896 1.400 . S
C1895 C1900 1.490 . S
C1896 H1886 0.930 . S
C1896 C1895 1.400 . S
C1896 C1899 1.386 . S
H1897 C1913 0.930 . S
H1898 C1914 0.931 . S
C1899 H1887 0.929 . S
C1899 C1893 1.390 . S
C1899 C1896 1.386 . S
C1900 C1895 1.490 . S
C1900 C1902 1.395 . S
C1900 C1903 1.403 1_455 S
H1901 C1907 0.930 . S
C1902 H1888 0.930 . S
C1902 C1900 1.395 . S
C1902 C1905 1.403 . S
C1903 C1900 1.403 1_655 S
C1903 C1904 1.524 . S
C1903 C1907 1.400 . S
C1904 H1889 0.960 . S
C1904 H1890 0.960 . S
C1904 H1891 0.960 . S
C1904 C1903 1.524 . S
C1905 C1902 1.403 . S
C1905 C1906 1.392 1_455 S
C1905 C1909 1.495 . S
C1906 C1905 1.392 1_655 S
C1906 C1907 1.385 . S
C1906 C1908 1.478 . S
C1907 H1901 0.930 . S
C1907 C1903 1.400 . S
C1907 C1906 1.385 . S
C1908 C1906 1.478 . S
C1908 C1910 1.381 . S
C1908 C1914 1.383 . S
C1909 C1905 1.495 . S
C1909 H1915 0.959 . S
C1909 H1916 0.961 . S
C1909 H1917 0.960 1_556 S
C1910 C1908 1.381 . S
C1910 C1911 1.394 . S
C1910 H1918 0.930 1_556 S
C1911 C1910 1.394 . S
C1911 C1912 1.383 . S
C1911 H1919 0.929 1_556 S
C1912 C1911 1.383 . S
C1912 C1913 1.377 . S
C1913 H1897 0.930 . S
C1913 C1912 1.377 . S
C1913 C1914 1.379 . S
C1914 H1898 0.931 . S
C1914 C1908 1.383 . S
C1914 C1913 1.379 . S
H1915 C1909 0.959 . S
H1916 C1909 0.961 . S
H1917 C1909 0.960 1_554 S
H1918 C1910 0.930 1_554 S
H1919 C1911 0.929 1_554 S
H1920 C1928 0.929 . S
H1921 C1930 0.930 . S
H1922 C1932 0.930 . S
H1923 C1935 0.929 . S
H1924 C1938 0.930 . S
H1925 C1940 0.960 . S
H1926 C1940 0.960 . S
H1927 C1940 0.960 . S
C1928 H1920 0.929 . S
C1928 C1929 1.377 . S
C1928 C1930 1.384 . S
C1929 C1928 1.377 . S
C1929 C1935 1.390 . S
C1930 H1921 0.930 . S
C1930 C1928 1.384 . S
C1930 C1931 1.372 . S
C1931 C1930 1.372 . S
C1931 C1932 1.400 . S
C1931 C1936 1.490 . S
C1932 H1922 0.930 . S
C1932 C1931 1.400 . S
C1932 C1935 1.386 . S
H1933 C1949 0.930 . S
H1934 C1950 0.931 . S
C1935 H1923 0.929 . S
C1935 C1929 1.390 . S
C1935 C1932 1.386 . S
C1936 C1931 1.490 . S
C1936 C1938 1.395 . S
C1936 C1939 1.403 . S
H1937 C1943 0.930 . S
C1938 H1924 0.930 . S
C1938 C1936 1.395 . S
C1938 C1941 1.403 1_655 S
C1939 C1936 1.403 . S
C1939 C1940 1.524 . S
C1939 C1943 1.400 1_655 S
C1940 H1925 0.960 . S
C1940 H1926 0.960 . S
C1940 H1927 0.960 . S
C1940 C1939 1.524 . S
C1941 C1938 1.403 1_455 S
C1941 C1942 1.392 . S
C1941 C1945 1.495 . S
C1942 C1941 1.392 . S
C1942 C1943 1.385 . S
C1942 C1944 1.478 . S
C1943 H1937 0.930 . S
C1943 C1939 1.400 1_455 S
C1943 C1942 1.385 . S
C1944 C1942 1.478 . S
C1944 C1946 1.381 . S
C1944 C1950 1.383 . S
C1945 C1941 1.495 . S
C1945 H1951 0.959 . S
C1945 H1952 0.961 . S
C1945 H1953 0.960 . S
C1946 C1944 1.381 . S
C1946 C1947 1.394 . S
C1946 H1954 0.930 . S
C1947 C1946 1.394 . S
C1947 C1948 1.383 . S
C1947 H1955 0.929 . S
C1948 C1947 1.383 . S
C1948 C1949 1.377 . S
C1949 H1933 0.930 . S
C1949 C1948 1.377 . S
C1949 C1950 1.379 . S
C1950 H1934 0.931 . S
C1950 C1944 1.383 . S
C1950 C1949 1.379 . S
H1951 C1945 0.959 . S
H1952 C1945 0.961 . S
H1953 C1945 0.960 . S
H1954 C1946 0.930 . S
H1955 C1947 0.929 . S
H1956 C1964 0.929 . S
H1957 C1966 0.930 . S
H1958 C1968 0.930 . S
H1959 C1971 0.929 . S
H1960 C1974 0.930 . S
H1961 C1976 0.960 . S
H1962 C1976 0.960 . S
H1963 C1976 0.960 . S
C1964 H1956 0.929 . S
C1964 C1965 1.377 . S
C1964 C1966 1.384 . S
C1965 C1964 1.377 . S
C1965 C1971 1.390 . S
C1966 H1957 0.930 . S
C1966 C1964 1.384 . S
C1966 C1967 1.372 . S
C1967 C1966 1.372 . S
C1967 C1968 1.400 . S
C1967 C1972 1.490 . S
C1968 H1958 0.930 . S
C1968 C1967 1.400 . S
C1968 C1971 1.386 . S
H1969 C1985 0.930 . S
H1970 C1986 0.931 . S
C1971 H1959 0.929 . S
C1971 C1965 1.390 . S
C1971 C1968 1.386 . S
C1972 C1967 1.490 . S
C1972 C1974 1.395 . S
C1972 C1975 1.403 1_455 S
H1973 C1979 0.930 . S
C1974 H1960 0.930 . S
C1974 C1972 1.395 . S
C1974 C1977 1.403 . S
C1975 C1972 1.403 1_655 S
C1975 C1976 1.524 . S
C1975 C1979 1.400 . S
C1976 H1961 0.960 . S
C1976 H1962 0.960 . S
C1976 H1963 0.960 . S
C1976 C1975 1.524 . S
C1977 C1974 1.403 . S
C1977 C1978 1.392 1_455 S
C1977 C1981 1.495 . S
C1978 C1977 1.392 1_655 S
C1978 C1979 1.385 . S
C1978 C1980 1.478 . S
C1979 H1973 0.930 . S
C1979 C1975 1.400 . S
C1979 C1978 1.385 . S
C1980 C1978 1.478 . S
C1980 C1982 1.381 . S
C1980 C1986 1.383 . S
C1981 C1977 1.495 . S
C1981 H1987 0.959 . S
C1981 H1988 0.961 . S
C1981 H1989 0.960 . S
C1982 C1980 1.381 . S
C1982 C1983 1.394 . S
C1982 H1990 0.930 . S
C1983 C1982 1.394 . S
C1983 C1984 1.383 . S
C1983 H1991 0.929 . S
C1984 C1983 1.383 . S
C1984 C1985 1.377 . S
C1985 H1969 0.930 . S
C1985 C1984 1.377 . S
C1985 C1986 1.379 . S
C1986 H1970 0.931 . S
C1986 C1980 1.383 . S
C1986 C1985 1.379 . S
H1987 C1981 0.959 . S
H1988 C1981 0.961 . S
H1989 C1981 0.960 . S
H1990 C1982 0.930 . S
H1991 C1983 0.929 . S
H1992 C2000 0.929 . S
H1993 C2002 0.930 . S
H1994 C2004 0.930 . S
H1995 C2007 0.929 . S
H1996 C2010 0.930 . S
H1997 C2012 0.960 . S
H1998 C2012 0.960 . S
H1999 C2012 0.960 . S
C2000 H1992 0.929 . S
C2000 C2001 1.377 . S
C2000 C2002 1.384 . S
C2001 C2000 1.377 . S
C2001 C2007 1.390 . S
C2002 H1993 0.930 . S
C2002 C2000 1.384 . S
C2002 C2003 1.372 . S
C2003 C2002 1.372 . S
C2003 C2004 1.400 . S
C2003 C2008 1.490 . S
C2004 H1994 0.930 . S
C2004 C2003 1.400 . S
C2004 C2007 1.386 . S
H2005 C2021 0.930 . S
H2006 C2022 0.931 . S
C2007 H1995 0.929 . S
C2007 C2001 1.390 . S
C2007 C2004 1.386 . S
C2008 C2003 1.490 . S
C2008 C2010 1.395 . S
C2008 C2011 1.403 . S
H2009 C2015 0.930 . S
C2010 H1996 0.930 . S
C2010 C2008 1.395 . S
C2010 C2013 1.403 . S
C2011 C2008 1.403 . S
C2011 C2012 1.524 . S
C2011 C2015 1.400 . S
C2012 H1997 0.960 . S
C2012 H1998 0.960 . S
C2012 H1999 0.960 . S
C2012 C2011 1.524 . S
C2013 C2010 1.403 . S
C2013 C2014 1.392 . S
C2013 C2017 1.495 . S
C2014 C2013 1.392 . S
C2014 C2015 1.385 . S
C2014 C2016 1.478 . S
C2015 H2009 0.930 . S
C2015 C2011 1.400 . S
C2015 C2014 1.385 . S
C2016 C2014 1.478 . S
C2016 C2018 1.381 . S
C2016 C2022 1.383 . S
C2017 C2013 1.495 . S
C2017 H2023 0.959 . S
C2017 H2024 0.961 . S
C2017 H2025 0.960 . S
C2018 C2016 1.381 . S
C2018 C2019 1.394 . S
C2018 H2026 0.930 . S
C2019 C2018 1.394 . S
C2019 C2020 1.383 . S
C2019 H2027 0.929 . S
C2020 C2019 1.383 . S
C2020 C2021 1.377 . S
C2021 H2005 0.930 . S
C2021 C2020 1.377 . S
C2021 C2022 1.379 . S
C2022 H2006 0.931 . S
C2022 C2016 1.383 . S
C2022 C2021 1.379 . S
H2023 C2017 0.959 . S
H2024 C2017 0.961 . S
H2025 C2017 0.960 . S
H2026 C2018 0.930 . S
H2027 C2019 0.929 . S
H2028 C2036 0.929 . S
H2029 C2038 0.930 . S
H2030 C2040 0.930 1_554 S
H2031 C2043 0.929 1_554 S
H2032 C2046 0.930 . S
H2033 C2048 0.960 . S
H2034 C2048 0.960 . S
H2035 C2048 0.960 1_554 S
C2036 H2028 0.929 . S
C2036 C2037 1.377 . S
C2036 C2038 1.384 . S
C2037 C2036 1.377 . S
C2037 C2043 1.390 . S
C2038 H2029 0.930 . S
C2038 C2036 1.384 . S
C2038 C2039 1.372 . S
C2039 C2038 1.372 . S
C2039 C2040 1.400 . S
C2039 C2044 1.490 . S
C2040 H2030 0.930 1_556 S
C2040 C2039 1.400 . S
C2040 C2043 1.386 . S
H2041 C2057 0.930 1_554 S
H2042 C2058 0.931 1_554 S
C2043 H2031 0.929 1_556 S
C2043 C2037 1.390 . S
C2043 C2040 1.386 . S
C2044 C2039 1.490 . S
C2044 C2046 1.395 . S
C2044 C2047 1.403 . S
H2045 C2051 0.930 . S
C2046 H2032 0.930 . S
C2046 C2044 1.395 . S
C2046 C2049 1.403 . S
C2047 C2044 1.403 . S
C2047 C2048 1.524 . S
C2047 C2051 1.400 . S
C2048 H2033 0.960 . S
C2048 H2034 0.960 . S
C2048 H2035 0.960 1_556 S
C2048 C2047 1.524 . S
C2049 C2046 1.403 . S
C2049 C2050 1.392 . S
C2049 C2053 1.495 . S
C2050 C2049 1.392 . S
C2050 C2051 1.385 . S
C2050 C2052 1.478 . S
C2051 H2045 0.930 . S
C2051 C2047 1.400 . S
C2051 C2050 1.385 . S
C2052 C2050 1.478 . S
C2052 C2054 1.381 . S
C2052 C2058 1.383 . S
C2053 C2049 1.495 . S
C2053 H2059 0.959 . S
C2053 H2060 0.961 . S
C2053 H2061 0.960 . S
C2054 C2052 1.381 . S
C2054 C2055 1.394 . S
C2054 H2062 0.930 . S
C2055 C2054 1.394 . S
C2055 C2056 1.383 . S
C2055 H2063 0.929 . S
C2056 C2055 1.383 . S
C2056 C2057 1.377 . S
C2057 H2041 0.930 1_556 S
C2057 C2056 1.377 . S
C2057 C2058 1.379 . S
C2058 H2042 0.931 1_556 S
C2058 C2052 1.383 . S
C2058 C2057 1.379 . S
H2059 C2053 0.959 . S
H2060 C2053 0.961 . S
H2061 C2053 0.960 . S
H2062 C2054 0.930 . S
H2063 C2055 0.929 . S
H2064 C2072 0.929 . S
H2065 C2074 0.930 . S
H2066 C2076 0.930 . S
H2067 C2079 0.929 . S
H2068 C2082 0.930 . S
H2069 C2084 0.960 1_455 S
H2070 C2084 0.960 . S
H2071 C2084 0.960 . S
C2072 H2064 0.929 . S
C2072 C2073 1.377 . S
C2072 C2074 1.384 . S
C2073 C2072 1.377 . S
C2073 C2079 1.390 . S
C2074 H2065 0.930 . S
C2074 C2072 1.384 . S
C2074 C2075 1.372 . S
C2075 C2074 1.372 . S
C2075 C2076 1.400 . S
C2075 C2080 1.490 . S
C2076 H2066 0.930 . S
C2076 C2075 1.400 . S
C2076 C2079 1.386 . S
H2077 C2093 0.930 . S
H2078 C2094 0.931 . S
C2079 H2067 0.929 . S
C2079 C2073 1.390 . S
C2079 C2076 1.386 . S
C2080 C2075 1.490 . S
C2080 C2082 1.395 . S
C2080 C2083 1.403 . S
H2081 C2087 0.930 . S
C2082 H2068 0.930 . S
C2082 C2080 1.395 . S
C2082 C2085 1.403 1_655 S
C2083 C2080 1.403 . S
C2083 C2084 1.524 . S
C2083 C2087 1.400 1_655 S
C2084 H2069 0.960 1_655 S
C2084 H2070 0.960 . S
C2084 H2071 0.960 . S
C2084 C2083 1.524 . S
C2085 C2082 1.403 1_455 S
C2085 C2086 1.392 . S
C2085 C2089 1.495 . S
C2086 C2085 1.392 . S
C2086 C2087 1.385 . S
C2086 C2088 1.478 . S
C2087 H2081 0.930 . S
C2087 C2083 1.400 1_455 S
C2087 C2086 1.385 . S
C2088 C2086 1.478 . S
C2088 C2090 1.381 . S
C2088 C2094 1.383 . S
C2089 C2085 1.495 . S
C2089 H2095 0.959 1_455 S
C2089 H2096 0.961 . S
C2089 H2097 0.960 . S
C2090 C2088 1.381 . S
C2090 C2091 1.394 . S
C2090 H2098 0.930 . S
C2091 C2090 1.394 . S
C2091 C2092 1.383 . S
C2091 H2099 0.929 . S
C2092 C2091 1.383 . S
C2092 C2093 1.377 . S
C2093 H2077 0.930 . S
C2093 C2092 1.377 . S
C2093 C2094 1.379 . S
C2094 H2078 0.931 . S
C2094 C2088 1.383 . S
C2094 C2093 1.379 . S
H2095 C2089 0.959 1_655 S
H2096 C2089 0.961 . S
H2097 C2089 0.960 . S
H2098 C2090 0.930 . S
H2099 C2091 0.929 . S
H2100 C2108 0.929 . S
H2101 C2110 0.930 . S
H2102 C2112 0.930 . S
H2103 C2115 0.929 . S
H2104 C2118 0.930 . S
H2105 C2120 0.960 . S
H2106 C2120 0.960 . S
H2107 C2120 0.960 . S
C2108 H2100 0.929 . S
C2108 C2109 1.377 . S
C2108 C2110 1.384 . S
C2109 C2108 1.377 . S
C2109 C2115 1.390 . S
C2110 H2101 0.930 . S
C2110 C2108 1.384 . S
C2110 C2111 1.372 . S
C2111 C2110 1.372 . S
C2111 C2112 1.400 . S
C2111 C2116 1.490 . S
C2112 H2102 0.930 . S
C2112 C2111 1.400 . S
C2112 C2115 1.386 . S
H2113 C2129 0.930 . S
H2114 C2130 0.931 . S
C2115 H2103 0.929 . S
C2115 C2109 1.390 . S
C2115 C2112 1.386 . S
C2116 C2111 1.490 . S
C2116 C2118 1.395 . S
C2116 C2119 1.403 . S
H2117 C2123 0.930 . S
C2118 H2104 0.930 . S
C2118 C2116 1.395 . S
C2118 C2121 1.403 . S
C2119 C2116 1.403 . S
C2119 C2120 1.524 . S
C2119 C2123 1.400 . S
C2120 H2105 0.960 . S
C2120 H2106 0.960 . S
C2120 H2107 0.960 . S
C2120 C2119 1.524 . S
C2121 C2118 1.403 . S
C2121 C2122 1.392 . S
C2121 C2125 1.495 . S
C2122 C2121 1.392 . S
C2122 C2123 1.385 . S
C2122 C2124 1.478 . S
C2123 H2117 0.930 . S
C2123 C2119 1.400 . S
C2123 C2122 1.385 . S
C2124 C2122 1.478 . S
C2124 C2126 1.381 . S
C2124 C2130 1.383 . S
C2125 C2121 1.495 . S
C2125 H2131 0.959 . S
C2125 H2132 0.961 . S
C2125 H2133 0.960 . S
C2126 C2124 1.381 . S
C2126 C2127 1.394 . S
C2126 H2134 0.930 . S
C2127 C2126 1.394 . S
C2127 C2128 1.383 . S
C2127 H2135 0.929 . S
C2128 C2127 1.383 . S
C2128 C2129 1.377 . S
C2129 H2113 0.930 . S
C2129 C2128 1.377 . S
C2129 C2130 1.379 . S
C2130 H2114 0.931 . S
C2130 C2124 1.383 . S
C2130 C2129 1.379 . S
H2131 C2125 0.959 . S
H2132 C2125 0.961 . S
H2133 C2125 0.960 . S
H2134 C2126 0.930 . S
H2135 C2127 0.929 . S
H2136 C2144 0.929 . S
H2137 C2146 0.930 . S
H2138 C2148 0.930 . S
H2139 C2151 0.929 . S
H2140 C2154 0.930 . S
H2141 C2156 0.960 . S
H2142 C2156 0.960 . S
H2143 C2156 0.960 . S
C2144 H2136 0.929 . S
C2144 C2145 1.377 . S
C2144 C2146 1.384 . S
C2145 C2144 1.377 . S
C2145 C2151 1.390 . S
C2146 H2137 0.930 . S
C2146 C2144 1.384 . S
C2146 C2147 1.372 . S
C2147 C2146 1.372 . S
C2147 C2148 1.400 . S
C2147 C2152 1.490 . S
C2148 H2138 0.930 . S
C2148 C2147 1.400 . S
C2148 C2151 1.386 . S
H2149 C2165 0.930 . S
H2150 C2166 0.931 . S
C2151 H2139 0.929 . S
C2151 C2145 1.390 . S
C2151 C2148 1.386 . S
C2152 C2147 1.490 . S
C2152 C2154 1.395 . S
C2152 C2155 1.403 . S
H2153 C2159 0.930 . S
C2154 H2140 0.930 . S
C2154 C2152 1.395 . S
C2154 C2157 1.403 . S
C2155 C2152 1.403 . S
C2155 C2156 1.524 . S
C2155 C2159 1.400 . S
C2156 H2141 0.960 . S
C2156 H2142 0.960 . S
C2156 H2143 0.960 . S
C2156 C2155 1.524 . S
C2157 C2154 1.403 . S
C2157 C2158 1.392 . S
C2157 C2161 1.495 . S
C2158 C2157 1.392 . S
C2158 C2159 1.385 . S
C2158 C2160 1.478 . S
C2159 H2153 0.930 . S
C2159 C2155 1.400 . S
C2159 C2158 1.385 . S
C2160 C2158 1.478 . S
C2160 C2162 1.381 . S
C2160 C2166 1.383 . S
C2161 C2157 1.495 . S
C2161 H2167 0.959 . S
C2161 H2168 0.961 . S
C2161 H2169 0.960 . S
C2162 C2160 1.381 . S
C2162 C2163 1.394 . S
C2162 H2170 0.930 . S
C2163 C2162 1.394 . S
C2163 C2164 1.383 . S
C2163 H2171 0.929 . S
C2164 C2163 1.383 . S
C2164 C2165 1.377 . S
C2165 H2149 0.930 . S
C2165 C2164 1.377 . S
C2165 C2166 1.379 . S
C2166 H2150 0.931 . S
C2166 C2160 1.383 . S
C2166 C2165 1.379 . S
H2167 C2161 0.959 . S
H2168 C2161 0.961 . S
H2169 C2161 0.960 . S
H2170 C2162 0.930 . S
H2171 C2163 0.929 . S
H2172 C2180 0.929 . S
H2173 C2182 0.930 1_655 S
H2174 C2184 0.930 . S
H2175 C2187 0.929 . S
H2176 C2190 0.930 . S
H2177 C2192 0.960 . S
H2178 C2192 0.960 1_655 S
H2179 C2192 0.960 . S
C2180 H2172 0.929 . S
C2180 C2181 1.377 . S
C2180 C2182 1.384 . S
C2181 C2180 1.377 . S
C2181 C2187 1.390 . S
C2182 H2173 0.930 1_455 S
C2182 C2180 1.384 . S
C2182 C2183 1.372 . S
C2183 C2182 1.372 . S
C2183 C2184 1.400 . S
C2183 C2188 1.490 . S
C2184 H2174 0.930 . S
C2184 C2183 1.400 . S
C2184 C2187 1.386 . S
H2185 C2201 0.930 . S
H2186 C2202 0.931 1_455 S
C2187 H2175 0.929 . S
C2187 C2181 1.390 . S
C2187 C2184 1.386 . S
C2188 C2183 1.490 . S
C2188 C2190 1.395 . S
C2188 C2191 1.403 . S
H2189 C2195 0.930 1_556 S
C2190 H2176 0.930 . S
C2190 C2188 1.395 . S
C2190 C2193 1.403 1_455 S
C2191 C2188 1.403 . S
C2191 C2192 1.524 1_554 S
C2191 C2195 1.400 1_455 S
C2192 H2177 0.960 . S
C2192 H2178 0.960 1_455 S
C2192 H2179 0.960 . S
C2192 C2191 1.524 1_556 S
C2193 C2190 1.403 1_655 S
C2193 C2194 1.392 . S
C2193 C2197 1.495 . S
C2194 C2193 1.392 . S
C2194 C2195 1.385 . S
C2194 C2196 1.478 . S
C2195 H2189 0.930 1_554 S
C2195 C2191 1.400 1_655 S
C2195 C2194 1.385 . S
C2196 C2194 1.478 . S
C2196 C2198 1.381 . S
C2196 C2202 1.383 . S
C2197 C2193 1.495 . S
C2197 H2203 0.959 . S
C2197 H2204 0.961 . S
C2197 H2205 0.960 . S
C2198 C2196 1.381 . S
C2198 C2199 1.394 . S
C2198 H2206 0.930 . S
C2199 C2198 1.394 . S
C2199 C2200 1.383 . S
C2199 H2207 0.929 . S
C2200 C2199 1.383 . S
C2200 C2201 1.377 . S
C2201 H2185 0.930 . S
C2201 C2200 1.377 . S
C2201 C2202 1.379 . S
C2202 H2186 0.931 1_655 S
C2202 C2196 1.383 . S
C2202 C2201 1.379 . S
H2203 C2197 0.959 . S
H2204 C2197 0.961 . S
H2205 C2197 0.960 . S
H2206 C2198 0.930 . S
H2207 C2199 0.929 . S
H2208 C2216 0.929 . S
H2209 C2218 0.930 . S
H2210 C2220 0.930 . S
H2211 C2223 0.929 . S
H2212 C2226 0.930 . S
H2213 C2228 0.960 . S
H2214 C2228 0.960 . S
H2215 C2228 0.960 . S
C2216 H2208 0.929 . S
C2216 C2217 1.377 . S
C2216 C2218 1.384 . S
C2217 C2216 1.377 . S
C2217 C2223 1.390 . S
C2218 H2209 0.930 . S
C2218 C2216 1.384 . S
C2218 C2219 1.372 . S
C2219 C2218 1.372 . S
C2219 C2220 1.400 . S
C2219 C2224 1.490 . S
C2220 H2210 0.930 . S
C2220 C2219 1.400 . S
C2220 C2223 1.386 . S
H2221 C2237 0.930 . S
H2222 C2238 0.931 . S
C2223 H2211 0.929 . S
C2223 C2217 1.390 . S
C2223 C2220 1.386 . S
C2224 C2219 1.490 . S
C2224 C2226 1.395 . S
C2224 C2227 1.403 . S
H2225 C2231 0.930 . S
C2226 H2212 0.930 . S
C2226 C2224 1.395 . S
C2226 C2229 1.403 . S
C2227 C2224 1.403 . S
C2227 C2228 1.524 . S
C2227 C2231 1.400 . S
C2228 H2213 0.960 . S
C2228 H2214 0.960 . S
C2228 H2215 0.960 . S
C2228 C2227 1.524 . S
C2229 C2226 1.403 . S
C2229 C2230 1.392 . S
C2229 C2233 1.495 . S
C2230 C2229 1.392 . S
C2230 C2231 1.385 . S
C2230 C2232 1.478 . S
C2231 H2225 0.930 . S
C2231 C2227 1.400 . S
C2231 C2230 1.385 . S
C2232 C2230 1.478 . S
C2232 C2234 1.381 . S
C2232 C2238 1.383 . S
C2233 C2229 1.495 . S
C2233 H2239 0.959 . S
C2233 H2240 0.961 . S
C2233 H2241 0.960 . S
C2234 C2232 1.381 . S
C2234 C2235 1.394 . S
C2234 H2242 0.930 . S
C2235 C2234 1.394 . S
C2235 C2236 1.383 . S
C2235 H2243 0.929 . S
C2236 C2235 1.383 . S
C2236 C2237 1.377 . S
C2237 H2221 0.930 . S
C2237 C2236 1.377 . S
C2237 C2238 1.379 . S
C2238 H2222 0.931 . S
C2238 C2232 1.383 . S
C2238 C2237 1.379 . S
H2239 C2233 0.959 . S
H2240 C2233 0.961 . S
H2241 C2233 0.960 . S
H2242 C2234 0.930 . S
H2243 C2235 0.929 . S
H2244 C2252 0.929 . S
H2245 C2254 0.930 . S
H2246 C2256 0.930 . S
H2247 C2259 0.929 . S
H2248 C2262 0.930 . S
H2249 C2264 0.960 . S
H2250 C2264 0.960 . S
H2251 C2264 0.960 . S
C2252 H2244 0.929 . S
C2252 C2253 1.377 . S
C2252 C2254 1.384 . S
C2253 C2252 1.377 . S
C2253 C2259 1.390 . S
C2254 H2245 0.930 . S
C2254 C2252 1.384 . S
C2254 C2255 1.372 . S
C2255 C2254 1.372 . S
C2255 C2256 1.400 . S
C2255 C2260 1.490 . S
C2256 H2246 0.930 . S
C2256 C2255 1.400 . S
C2256 C2259 1.386 . S
H2257 C2273 0.930 . S
H2258 C2274 0.931 . S
C2259 H2247 0.929 . S
C2259 C2253 1.390 . S
C2259 C2256 1.386 . S
C2260 C2255 1.490 . S
C2260 C2262 1.395 . S
C2260 C2263 1.403 . S
H2261 C2267 0.930 . S
C2262 H2248 0.930 . S
C2262 C2260 1.395 . S
C2262 C2265 1.403 . S
C2263 C2260 1.403 . S
C2263 C2264 1.524 . S
C2263 C2267 1.400 . S
C2264 H2249 0.960 . S
C2264 H2250 0.960 . S
C2264 H2251 0.960 . S
C2264 C2263 1.524 . S
C2265 C2262 1.403 . S
C2265 C2266 1.392 . S
C2265 C2269 1.495 . S
C2266 C2265 1.392 . S
C2266 C2267 1.385 . S
C2266 C2268 1.478 . S
C2267 H2261 0.930 . S
C2267 C2263 1.400 . S
C2267 C2266 1.385 . S
C2268 C2266 1.478 . S
C2268 C2270 1.381 . S
C2268 C2274 1.383 . S
C2269 C2265 1.495 . S
C2269 H2275 0.959 . S
C2269 H2276 0.961 . S
C2269 H2277 0.960 . S
C2270 C2268 1.381 . S
C2270 C2271 1.394 1_655 S
C2270 H2278 0.930 . S
C2271 C2270 1.394 1_455 S
C2271 C2272 1.383 . S
C2271 H2279 0.929 . S
C2272 C2271 1.383 . S
C2272 C2273 1.377 . S
C2273 H2257 0.930 . S
C2273 C2272 1.377 . S
C2273 C2274 1.379 1_455 S
C2274 H2258 0.931 . S
C2274 C2268 1.383 . S
C2274 C2273 1.379 1_655 S
H2275 C2269 0.959 . S
H2276 C2269 0.961 . S
H2277 C2269 0.960 . S
H2278 C2270 0.930 . S
H2279 C2271 0.929 . S
H2280 C2288 0.929 . S
H2281 C2290 0.930 . S
H2282 C2292 0.930 . S
H2283 C2295 0.929 . S
H2284 C2298 0.930 . S
H2285 C2300 0.960 . S
H2286 C2300 0.960 . S
H2287 C2300 0.960 . S
C2288 H2280 0.929 . S
C2288 C2289 1.377 . S
C2288 C2290 1.384 . S
C2289 C2288 1.377 . S
C2289 C2295 1.390 . S
C2290 H2281 0.930 . S
C2290 C2288 1.384 . S
C2290 C2291 1.372 . S
C2291 C2290 1.372 . S
C2291 C2292 1.400 . S
C2291 C2296 1.490 . S
C2292 H2282 0.930 . S
C2292 C2291 1.400 . S
C2292 C2295 1.386 . S
H2293 C2309 0.930 . S
H2294 C2310 0.931 . S
C2295 H2283 0.929 . S
C2295 C2289 1.390 . S
C2295 C2292 1.386 . S
C2296 C2291 1.490 . S
C2296 C2298 1.395 . S
C2296 C2299 1.403 . S
H2297 C2303 0.930 . S
C2298 H2284 0.930 . S
C2298 C2296 1.395 . S
C2298 C2301 1.403 . S
C2299 C2296 1.403 . S
C2299 C2300 1.524 . S
C2299 C2303 1.400 . S
C2300 H2285 0.960 . S
C2300 H2286 0.960 . S
C2300 H2287 0.960 . S
C2300 C2299 1.524 . S
C2301 C2298 1.403 . S
C2301 C2302 1.392 . S
C2301 C2305 1.495 . S
C2302 C2301 1.392 . S
C2302 C2303 1.385 . S
C2302 C2304 1.478 . S
C2303 H2297 0.930 . S
C2303 C2299 1.400 . S
C2303 C2302 1.385 . S
C2304 C2302 1.478 . S
C2304 C2306 1.381 . S
C2304 C2310 1.383 . S
C2305 C2301 1.495 . S
C2305 H2311 0.959 . S
C2305 H2312 0.961 . S
C2305 H2313 0.960 . S
C2306 C2304 1.381 . S
C2306 C2307 1.394 . S
C2306 H2314 0.930 . S
C2307 C2306 1.394 . S
C2307 C2308 1.383 . S
C2307 H2315 0.929 . S
C2308 C2307 1.383 . S
C2308 C2309 1.377 . S
C2309 H2293 0.930 . S
C2309 C2308 1.377 . S
C2309 C2310 1.379 . S
C2310 H2294 0.931 . S
C2310 C2304 1.383 . S
C2310 C2309 1.379 . S
H2311 C2305 0.959 . S
H2312 C2305 0.961 . S
H2313 C2305 0.960 . S
H2314 C2306 0.930 . S
H2315 C2307 0.929 . S
H2316 C2324 0.929 . S
H2317 C2326 0.930 . S
H2318 C2328 0.930 . S
H2319 C2331 0.929 . S
H2320 C2334 0.930 . S
H2321 C2336 0.960 . S
H2322 C2336 0.960 . S
H2323 C2336 0.960 . S
C2324 H2316 0.929 . S
C2324 C2325 1.377 . S
C2324 C2326 1.384 . S
C2325 C2324 1.377 . S
C2325 C2331 1.390 . S
C2326 H2317 0.930 . S
C2326 C2324 1.384 . S
C2326 C2327 1.372 . S
C2327 C2326 1.372 . S
C2327 C2328 1.400 . S
C2327 C2332 1.490 . S
C2328 H2318 0.930 . S
C2328 C2327 1.400 . S
C2328 C2331 1.386 . S
H2329 C2345 0.930 . S
H2330 C2346 0.931 . S
C2331 H2319 0.929 . S
C2331 C2325 1.390 . S
C2331 C2328 1.386 . S
C2332 C2327 1.490 . S
C2332 C2334 1.395 . S
C2332 C2335 1.403 . S
H2333 C2339 0.930 . S
C2334 H2320 0.930 . S
C2334 C2332 1.395 . S
C2334 C2337 1.403 . S
C2335 C2332 1.403 . S
C2335 C2336 1.524 . S
C2335 C2339 1.400 . S
C2336 H2321 0.960 . S
C2336 H2322 0.960 . S
C2336 H2323 0.960 . S
C2336 C2335 1.524 . S
C2337 C2334 1.403 . S
C2337 C2338 1.392 . S
C2337 C2341 1.495 . S
C2338 C2337 1.392 . S
C2338 C2339 1.385 . S
C2338 C2340 1.478 . S
C2339 H2333 0.930 . S
C2339 C2335 1.400 . S
C2339 C2338 1.385 . S
C2340 C2338 1.478 . S
C2340 C2342 1.381 . S
C2340 C2346 1.383 . S
C2341 C2337 1.495 . S
C2341 H2347 0.959 . S
C2341 H2348 0.961 . S
C2341 H2349 0.960 . S
C2342 C2340 1.381 . S
C2342 C2343 1.394 . S
C2342 H2350 0.930 . S
C2343 C2342 1.394 . S
C2343 C2344 1.383 . S
C2343 H2351 0.929 . S
C2344 C2343 1.383 . S
C2344 C2345 1.377 . S
C2345 H2329 0.930 . S
C2345 C2344 1.377 . S
C2345 C2346 1.379 . S
C2346 H2330 0.931 . S
C2346 C2340 1.383 . S
C2346 C2345 1.379 . S
H2347 C2341 0.959 . S
H2348 C2341 0.961 . S
H2349 C2341 0.960 . S
H2350 C2342 0.930 . S
H2351 C2343 0.929 . S
H2352 C2360 0.929 . S
H2353 C2362 0.930 . S
H2354 C2364 0.930 . S
H2355 C2367 0.929 . S
H2356 C2370 0.930 . S
H2357 C2372 0.960 . S
H2358 C2372 0.960 . S
H2359 C2372 0.960 . S
C2360 H2352 0.929 . S
C2360 C2361 1.377 . S
C2360 C2362 1.384 . S
C2361 C2360 1.377 . S
C2361 C2367 1.390 . S
C2362 H2353 0.930 . S
C2362 C2360 1.384 . S
C2362 C2363 1.372 . S
C2363 C2362 1.372 . S
C2363 C2364 1.400 . S
C2363 C2368 1.490 . S
C2364 H2354 0.930 . S
C2364 C2363 1.400 . S
C2364 C2367 1.386 . S
H2365 C2381 0.930 . S
H2366 C2382 0.931 . S
C2367 H2355 0.929 . S
C2367 C2361 1.390 . S
C2367 C2364 1.386 . S
C2368 C2363 1.490 . S
C2368 C2370 1.395 . S
C2368 C2371 1.403 . S
H2369 C2375 0.930 . S
C2370 H2356 0.930 . S
C2370 C2368 1.395 . S
C2370 C2373 1.403 . S
C2371 C2368 1.403 . S
C2371 C2372 1.524 . S
C2371 C2375 1.400 . S
C2372 H2357 0.960 . S
C2372 H2358 0.960 . S
C2372 H2359 0.960 . S
C2372 C2371 1.524 . S
C2373 C2370 1.403 . S
C2373 C2374 1.392 . S
C2373 C2377 1.495 . S
C2374 C2373 1.392 . S
C2374 C2375 1.385 . S
C2374 C2376 1.478 . S
C2375 H2369 0.930 . S
C2375 C2371 1.400 . S
C2375 C2374 1.385 . S
C2376 C2374 1.478 . S
C2376 C2378 1.381 . S
C2376 C2382 1.383 . S
C2377 C2373 1.495 . S
C2377 H2383 0.959 . S
C2377 H2384 0.961 . S
C2377 H2385 0.960 . S
C2378 C2376 1.381 . S
C2378 C2379 1.394 . S
C2378 H2386 0.930 . S
C2379 C2378 1.394 . S
C2379 C2380 1.383 . S
C2379 H2387 0.929 . S
C2380 C2379 1.383 . S
C2380 C2381 1.377 . S
C2381 H2365 0.930 . S
C2381 C2380 1.377 . S
C2381 C2382 1.379 . S
C2382 H2366 0.931 . S
C2382 C2376 1.383 . S
C2382 C2381 1.379 . S
H2383 C2377 0.959 . S
H2384 C2377 0.961 . S
H2385 C2377 0.960 . S
H2386 C2378 0.930 . S
H2387 C2379 0.929 . S
H2388 C2396 0.929 . S
H2389 C2398 0.930 . S
H2390 C2400 0.930 . S
H2391 C2403 0.929 . S
H2392 C2406 0.930 . S
H2393 C2408 0.960 . S
H2394 C2408 0.960 . S
H2395 C2408 0.960 . S
C2396 H2388 0.929 . S
C2396 C2397 1.377 . S
C2396 C2398 1.384 . S
C2397 C2396 1.377 . S
C2397 C2403 1.390 . S
C2398 H2389 0.930 . S
C2398 C2396 1.384 . S
C2398 C2399 1.372 . S
C2399 C2398 1.372 . S
C2399 C2400 1.400 . S
C2399 C2404 1.490 . S
C2400 H2390 0.930 . S
C2400 C2399 1.400 . S
C2400 C2403 1.386 . S
H2401 C2417 0.930 . S
H2402 C2418 0.931 . S
C2403 H2391 0.929 . S
C2403 C2397 1.390 . S
C2403 C2400 1.386 . S
C2404 C2399 1.490 . S
C2404 C2406 1.395 . S
C2404 C2407 1.403 . S
H2405 C2411 0.930 . S
C2406 H2392 0.930 . S
C2406 C2404 1.395 . S
C2406 C2409 1.403 . S
C2407 C2404 1.403 . S
C2407 C2408 1.524 . S
C2407 C2411 1.400 . S
C2408 H2393 0.960 . S
C2408 H2394 0.960 . S
C2408 H2395 0.960 . S
C2408 C2407 1.524 . S
C2409 C2406 1.403 . S
C2409 C2410 1.392 . S
C2409 C2413 1.495 . S
C2410 C2409 1.392 . S
C2410 C2411 1.385 . S
C2410 C2412 1.478 . S
C2411 H2405 0.930 . S
C2411 C2407 1.400 . S
C2411 C2410 1.385 . S
C2412 C2410 1.478 . S
C2412 C2414 1.381 . S
C2412 C2418 1.383 . S
C2413 C2409 1.495 . S
C2413 H2419 0.959 . S
C2413 H2420 0.961 . S
C2413 H2421 0.960 . S
C2414 C2412 1.381 . S
C2414 C2415 1.394 . S
C2414 H2422 0.930 . S
C2415 C2414 1.394 . S
C2415 C2416 1.383 . S
C2415 H2423 0.929 . S
C2416 C2415 1.383 . S
C2416 C2417 1.377 . S
C2417 H2401 0.930 . S
C2417 C2416 1.377 . S
C2417 C2418 1.379 . S
C2418 H2402 0.931 . S
C2418 C2412 1.383 . S
C2418 C2417 1.379 . S
H2419 C2413 0.959 . S
H2420 C2413 0.961 . S
H2421 C2413 0.960 . S
H2422 C2414 0.930 . S
H2423 C2415 0.929 . S
H2424 C2432 0.929 . S
H2425 C2434 0.930 . S
H2426 C2436 0.930 . S
H2427 C2439 0.929 . S
H2428 C2442 0.930 . S
H2429 C2444 0.960 . S
H2430 C2444 0.960 . S
H2431 C2444 0.960 . S
C2432 H2424 0.929 . S
C2432 C2433 1.377 . S
C2432 C2434 1.384 . S
C2433 C2432 1.377 . S
C2433 C2439 1.390 . S
C2434 H2425 0.930 . S
C2434 C2432 1.384 . S
C2434 C2435 1.372 . S
C2435 C2434 1.372 . S
C2435 C2436 1.400 . S
C2435 C2440 1.490 . S
C2436 H2426 0.930 . S
C2436 C2435 1.400 . S
C2436 C2439 1.386 . S
H2437 C2453 0.930 . S
H2438 C2454 0.931 . S
C2439 H2427 0.929 . S
C2439 C2433 1.390 . S
C2439 C2436 1.386 . S
C2440 C2435 1.490 . S
C2440 C2442 1.395 . S
C2440 C2443 1.403 . S
H2441 C2447 0.930 . S
C2442 H2428 0.930 . S
C2442 C2440 1.395 . S
C2442 C2445 1.403 . S
C2443 C2440 1.403 . S
C2443 C2444 1.524 . S
C2443 C2447 1.400 . S
C2444 H2429 0.960 . S
C2444 H2430 0.960 . S
C2444 H2431 0.960 . S
C2444 C2443 1.524 . S
C2445 C2442 1.403 . S
C2445 C2446 1.392 . S
C2445 C2449 1.495 . S
C2446 C2445 1.392 . S
C2446 C2447 1.385 . S
C2446 C2448 1.478 . S
C2447 H2441 0.930 . S
C2447 C2443 1.400 . S
C2447 C2446 1.385 . S
C2448 C2446 1.478 . S
C2448 C2450 1.381 . S
C2448 C2454 1.383 . S
C2449 C2445 1.495 . S
C2449 H2455 0.959 . S
C2449 H2456 0.961 . S
C2449 H2457 0.960 . S
C2450 C2448 1.381 . S
C2450 C2451 1.394 . S
C2450 H2458 0.930 . S
C2451 C2450 1.394 . S
C2451 C2452 1.383 . S
C2451 H2459 0.929 . S
C2452 C2451 1.383 . S
C2452 C2453 1.377 . S
C2453 H2437 0.930 . S
C2453 C2452 1.377 . S
C2453 C2454 1.379 . S
C2454 H2438 0.931 . S
C2454 C2448 1.383 . S
C2454 C2453 1.379 . S
H2455 C2449 0.959 . S
H2456 C2449 0.961 . S
H2457 C2449 0.960 . S
H2458 C2450 0.930 . S
H2459 C2451 0.929 . S
H2460 C2468 0.929 . S
H2461 C2470 0.930 . S
H2462 C2472 0.930 . S
H2463 C2475 0.929 . S
H2464 C2478 0.930 . S
H2465 C2480 0.960 . S
H2466 C2480 0.943 1_455 S
H2467 C2480 0.960 . S
C2468 H2460 0.929 . S
C2468 C2469 1.377 . S
C2468 C2470 1.384 1_455 S
C2469 C2468 1.377 . S
C2469 C2475 1.390 . S
C2470 H2461 0.930 . S
C2470 C2468 1.384 1_655 S
C2470 C2471 1.372 . S
C2471 C2470 1.372 . S
C2471 C2472 1.400 . S
C2471 C2476 1.490 . S
C2472 H2462 0.930 . S
C2472 C2471 1.400 . S
C2472 C2475 1.386 1_655 S
H2473 C2489 0.930 . S
H2474 C2490 0.931 . S
C2475 H2463 0.929 . S
C2475 C2469 1.390 . S
C2475 C2472 1.386 1_455 S
C2476 C2471 1.490 . S
C2476 C2478 1.395 . S
C2476 C2479 1.403 . S
H2477 C2483 0.930 . S
C2478 H2464 0.930 . S
C2478 C2476 1.395 . S
C2478 C2481 1.403 . S
C2479 C2476 1.403 . S
C2479 C2480 1.524 . S
C2479 C2483 1.400 . S
C2480 H2465 0.960 . S
C2480 H2466 0.943 1_655 S
C2480 H2467 0.960 . S
C2480 C2479 1.524 . S
C2481 C2478 1.403 . S
C2481 C2482 1.392 . S
C2481 C2485 1.495 . S
C2482 C2481 1.392 . S
C2482 C2483 1.385 . S
C2482 C2484 1.478 . S
C2483 H2477 0.930 . S
C2483 C2479 1.400 . S
C2483 C2482 1.385 . S
C2484 C2482 1.478 . S
C2484 C2486 1.381 . S
C2484 C2490 1.383 . S
C2485 C2481 1.495 . S
C2485 H2491 0.959 . S
C2485 H2492 0.961 . S
C2485 H2493 0.960 . S
C2486 C2484 1.381 . S
C2486 C2487 1.394 . S
C2486 H2494 0.930 . S
C2487 C2486 1.394 . S
C2487 C2488 1.383 . S
C2487 H2495 0.929 . S
C2488 C2487 1.383 . S
C2488 C2489 1.377 . S
C2489 H2473 0.930 . S
C2489 C2488 1.377 . S
C2489 C2490 1.379 . S
C2490 H2474 0.931 . S
C2490 C2484 1.383 . S
C2490 C2489 1.379 . S
H2491 C2485 0.959 . S
H2492 C2485 0.961 . S
H2493 C2485 0.960 . S
H2494 C2486 0.930 . S
H2495 C2487 0.929 . S
H2496 C2504 0.929 . S
H2497 C2506 0.930 . S
H2498 C2508 0.930 . S
H2499 C2511 0.929 . S
H2500 C2514 0.930 . S
H2501 C2516 0.960 . S
H2502 C2516 0.960 . S
H2503 C2516 0.960 . S
C2504 H2496 0.929 . S
C2504 C2505 1.377 . S
C2504 C2506 1.384 . S
C2505 C2504 1.377 . S
C2505 C2511 1.390 . S
C2506 H2497 0.930 . S
C2506 C2504 1.384 . S
C2506 C2507 1.372 . S
C2507 C2506 1.372 . S
C2507 C2508 1.400 . S
C2507 C2512 1.490 . S
C2508 H2498 0.930 . S
C2508 C2507 1.400 . S
C2508 C2511 1.386 . S
H2509 C2525 0.930 . S
H2510 C2526 0.931 . S
C2511 H2499 0.929 . S
C2511 C2505 1.390 . S
C2511 C2508 1.386 . S
C2512 C2507 1.490 . S
C2512 C2514 1.395 . S
C2512 C2515 1.403 . S
H2513 C2519 0.930 . S
C2514 H2500 0.930 . S
C2514 C2512 1.395 . S
C2514 C2517 1.403 . S
C2515 C2512 1.403 . S
C2515 C2516 1.524 . S
C2515 C2519 1.400 . S
C2516 H2501 0.960 . S
C2516 H2502 0.960 . S
C2516 H2503 0.960 . S
C2516 C2515 1.524 . S
C2517 C2514 1.403 . S
C2517 C2518 1.392 . S
C2517 C2521 1.495 . S
C2518 C2517 1.392 . S
C2518 C2519 1.385 . S
C2518 C2520 1.478 . S
C2519 H2513 0.930 . S
C2519 C2515 1.400 . S
C2519 C2518 1.385 . S
C2520 C2518 1.478 . S
C2520 C2522 1.381 . S
C2520 C2526 1.383 . S
C2521 C2517 1.495 . S
C2521 H2527 0.959 . S
C2521 H2528 0.961 . S
C2521 H2529 0.960 . S
C2522 C2520 1.381 . S
C2522 C2523 1.394 . S
C2522 H2530 0.930 . S
C2523 C2522 1.394 . S
C2523 C2524 1.383 . S
C2523 H2531 0.929 . S
C2524 C2523 1.383 . S
C2524 C2525 1.377 . S
C2525 H2509 0.930 . S
C2525 C2524 1.377 . S
C2525 C2526 1.379 . S
C2526 H2510 0.931 . S
C2526 C2520 1.383 . S
C2526 C2525 1.379 . S
H2527 C2521 0.959 . S
H2528 C2521 0.961 . S
H2529 C2521 0.960 . S
H2530 C2522 0.930 . S
H2531 C2523 0.929 . S
H2532 C2540 0.929 . S
H2533 C2542 0.930 . S
H2534 C2544 0.930 . S
H2535 C2547 0.929 . S
H2536 C2550 0.930 . S
H2537 C2552 0.960 . S
H2538 C2552 0.960 . S
H2539 C2552 0.960 . S
C2540 H2532 0.929 . S
C2540 C2541 1.377 . S
C2540 C2542 1.384 . S
C2541 C2540 1.377 . S
C2541 C2547 1.390 1_655 S
C2542 H2533 0.930 . S
C2542 C2540 1.384 . S
C2542 C2543 1.372 1_655 S
C2543 C2542 1.372 1_455 S
C2543 C2544 1.400 . S
C2543 C2548 1.490 . S
C2544 H2534 0.930 . S
C2544 C2543 1.400 . S
C2544 C2547 1.386 . S
H2545 C2561 0.930 . S
H2546 C2562 0.931 . S
C2547 H2535 0.929 . S
C2547 C2541 1.390 1_455 S
C2547 C2544 1.386 . S
C2548 C2543 1.490 . S
C2548 C2550 1.395 . S
C2548 C2551 1.403 . S
H2549 C2555 0.930 . S
C2550 H2536 0.930 . S
C2550 C2548 1.395 . S
C2550 C2553 1.403 . S
C2551 C2548 1.403 . S
C2551 C2552 1.524 . S
C2551 C2555 1.400 . S
C2552 H2537 0.960 . S
C2552 H2538 0.960 . S
C2552 H2539 0.960 . S
C2552 C2551 1.524 . S
C2553 C2550 1.403 . S
C2553 C2554 1.392 . S
C2553 C2557 1.495 . S
C2554 C2553 1.392 . S
C2554 C2555 1.385 . S
C2554 C2556 1.478 . S
C2555 H2549 0.930 . S
C2555 C2551 1.400 . S
C2555 C2554 1.385 . S
C2556 C2554 1.478 . S
C2556 C2558 1.381 . S
C2556 C2562 1.383 . S
C2557 C2553 1.495 . S
C2557 H2563 0.959 . S
C2557 H2564 0.961 . S
C2557 H2565 0.960 . S
C2558 C2556 1.381 . S
C2558 C2559 1.394 . S
C2558 H2566 0.930 . S
C2559 C2558 1.394 . S
C2559 C2560 1.383 . S
C2559 H2567 0.929 . S
C2560 C2559 1.383 . S
C2560 C2561 1.377 . S
C2561 H2545 0.930 . S
C2561 C2560 1.377 . S
C2561 C2562 1.379 . S
C2562 H2546 0.931 . S
C2562 C2556 1.383 . S
C2562 C2561 1.379 . S
H2563 C2557 0.959 . S
H2564 C2557 0.961 . S
H2565 C2557 0.960 . S
H2566 C2558 0.930 . S
H2567 C2559 0.929 . S
H2568 C2576 0.929 . S
H2569 C2578 0.930 . S
H2570 C2580 0.930 . S
H2571 C2583 0.929 . S
H2572 C2586 0.930 . S
H2573 C2588 0.960 . S
H2574 C2588 0.960 . S
H2575 C2588 0.960 . S
C2576 H2568 0.929 . S
C2576 C2577 1.377 . S
C2576 C2578 1.384 . S
C2577 C2576 1.377 . S
C2577 C2583 1.390 . S
C2578 H2569 0.930 . S
C2578 C2576 1.384 . S
C2578 C2579 1.372 . S
C2579 C2578 1.372 . S
C2579 C2580 1.400 . S
C2579 C2584 1.490 . S
C2580 H2570 0.930 . S
C2580 C2579 1.400 . S
C2580 C2583 1.386 . S
H2581 C2597 0.930 . S
H2582 C2598 0.931 . S
C2583 H2571 0.929 . S
C2583 C2577 1.390 . S
C2583 C2580 1.386 . S
C2584 C2579 1.490 . S
C2584 C2586 1.395 . S
C2584 C2587 1.403 . S
H2585 C2591 0.930 . S
C2586 H2572 0.930 . S
C2586 C2584 1.395 . S
C2586 C2589 1.403 . S
C2587 C2584 1.403 . S
C2587 C2588 1.524 . S
C2587 C2591 1.400 . S
C2588 H2573 0.960 . S
C2588 H2574 0.960 . S
C2588 H2575 0.960 . S
C2588 C2587 1.524 . S
C2589 C2586 1.403 . S
C2589 C2590 1.392 . S
C2589 C2593 1.495 . S
C2590 C2589 1.392 . S
C2590 C2591 1.385 . S
C2590 C2592 1.478 . S
C2591 H2585 0.930 . S
C2591 C2587 1.400 . S
C2591 C2590 1.385 . S
C2592 C2590 1.478 . S
C2592 C2594 1.381 . S
C2592 C2598 1.383 . S
C2593 C2589 1.495 . S
C2593 H2599 0.959 . S
C2593 H2600 0.961 . S
C2593 H2601 0.960 . S
C2594 C2592 1.381 . S
C2594 C2595 1.394 . S
C2594 H2602 0.930 . S
C2595 C2594 1.394 . S
C2595 C2596 1.383 . S
C2595 H2603 0.929 . S
C2596 C2595 1.383 . S
C2596 C2597 1.377 . S
C2597 H2581 0.930 . S
C2597 C2596 1.377 . S
C2597 C2598 1.379 . S
C2598 H2582 0.931 . S
C2598 C2592 1.383 . S
C2598 C2597 1.379 . S
H2599 C2593 0.959 . S
H2600 C2593 0.961 . S
H2601 C2593 0.960 . S
H2602 C2594 0.930 . S
H2603 C2595 0.929 . S
H2604 C2612 0.929 . S
H2605 C2614 0.930 . S
H2606 C2616 0.930 . S
H2607 C2619 0.929 . S
H2608 C2622 0.930 . S
H2609 C2624 0.960 . S
H2610 C2624 0.960 . S
H2611 C2624 0.960 . S
C2612 H2604 0.929 . S
C2612 C2613 1.377 . S
C2612 C2614 1.384 . S
C2613 C2612 1.377 . S
C2613 C2619 1.390 . S
C2614 H2605 0.930 . S
C2614 C2612 1.384 . S
C2614 C2615 1.372 . S
C2615 C2614 1.372 . S
C2615 C2616 1.400 . S
C2615 C2620 1.490 . S
C2616 H2606 0.930 . S
C2616 C2615 1.400 . S
C2616 C2619 1.386 . S
H2617 C2633 0.930 . S
H2618 C2634 0.931 . S
C2619 H2607 0.929 . S
C2619 C2613 1.390 . S
C2619 C2616 1.386 . S
C2620 C2615 1.490 . S
C2620 C2622 1.395 . S
C2620 C2623 1.403 . S
H2621 C2627 0.930 . S
C2622 H2608 0.930 . S
C2622 C2620 1.395 . S
C2622 C2625 1.403 . S
C2623 C2620 1.403 . S
C2623 C2624 1.524 . S
C2623 C2627 1.400 . S
C2624 H2609 0.960 . S
C2624 H2610 0.960 . S
C2624 H2611 0.960 . S
C2624 C2623 1.524 . S
C2625 C2622 1.403 . S
C2625 C2626 1.392 . S
C2625 C2629 1.495 . S
C2626 C2625 1.392 . S
C2626 C2627 1.385 . S
C2626 C2628 1.478 . S
C2627 H2621 0.930 . S
C2627 C2623 1.400 . S
C2627 C2626 1.385 . S
C2628 C2626 1.478 . S
C2628 C2630 1.381 . S
C2628 C2634 1.383 . S
C2629 C2625 1.495 . S
C2629 H2635 0.959 . S
C2629 H2636 0.961 . S
C2629 H2637 0.960 . S
C2630 C2628 1.381 . S
C2630 C2631 1.394 . S
C2630 H2638 0.930 . S
C2631 C2630 1.394 . S
C2631 C2632 1.383 . S
C2631 H2639 0.929 . S
C2632 C2631 1.383 . S
C2632 C2633 1.377 . S
C2633 H2617 0.930 . S
C2633 C2632 1.377 . S
C2633 C2634 1.379 . S
C2634 H2618 0.931 . S
C2634 C2628 1.383 . S
C2634 C2633 1.379 . S
H2635 C2629 0.959 . S
H2636 C2629 0.961 . S
H2637 C2629 0.960 . S
H2638 C2630 0.930 . S
H2639 C2631 0.929 . S
H2640 C2648 0.929 . S
H2641 C2650 0.930 . S
H2642 C2652 0.930 . S
H2643 C2655 0.929 . S
H2644 C2658 0.930 . S
H2645 C2660 0.960 . S
H2646 C2660 0.960 . S
H2647 C2660 0.960 . S
C2648 H2640 0.929 . S
C2648 C2649 1.377 . S
C2648 C2650 1.384 . S
C2649 C2648 1.377 . S
C2649 C2655 1.390 . S
C2650 H2641 0.930 . S
C2650 C2648 1.384 . S
C2650 C2651 1.372 . S
C2651 C2650 1.372 . S
C2651 C2652 1.400 . S
C2651 C2656 1.490 . S
C2652 H2642 0.930 . S
C2652 C2651 1.400 . S
C2652 C2655 1.386 . S
H2653 C2669 0.930 . S
H2654 C2670 0.931 . S
C2655 H2643 0.929 . S
C2655 C2649 1.390 . S
C2655 C2652 1.386 . S
C2656 C2651 1.490 . S
C2656 C2658 1.395 . S
C2656 C2659 1.403 . S
H2657 C2663 0.930 . S
C2658 H2644 0.930 . S
C2658 C2656 1.395 . S
C2658 C2661 1.403 . S
C2659 C2656 1.403 . S
C2659 C2660 1.524 . S
C2659 C2663 1.400 . S
C2660 H2645 0.960 . S
C2660 H2646 0.960 . S
C2660 H2647 0.960 . S
C2660 C2659 1.524 . S
C2661 C2658 1.403 . S
C2661 C2662 1.392 . S
C2661 C2665 1.495 . S
C2662 C2661 1.392 . S
C2662 C2663 1.385 . S
C2662 C2664 1.478 . S
C2663 H2657 0.930 . S
C2663 C2659 1.400 . S
C2663 C2662 1.385 . S
C2664 C2662 1.478 . S
C2664 C2666 1.381 . S
C2664 C2670 1.383 . S
C2665 C2661 1.495 . S
C2665 H2671 0.959 . S
C2665 H2672 0.961 . S
C2665 H2673 0.960 . S
C2666 C2664 1.381 . S
C2666 C2667 1.394 . S
C2666 H2674 0.930 . S
C2667 C2666 1.394 . S
C2667 C2668 1.383 . S
C2667 H2675 0.929 . S
C2668 C2667 1.383 . S
C2668 C2669 1.377 . S
C2669 H2653 0.930 . S
C2669 C2668 1.377 . S
C2669 C2670 1.379 . S
C2670 H2654 0.931 . S
C2670 C2664 1.383 . S
C2670 C2669 1.379 . S
H2671 C2665 0.959 . S
H2672 C2665 0.961 . S
H2673 C2665 0.960 . S
H2674 C2666 0.930 . S
H2675 C2667 0.929 . S
H2676 C2684 0.929 . S
H2677 C2686 0.930 . S
H2678 C2688 0.930 . S
H2679 C2691 0.929 . S
H2680 C2694 0.930 . S
H2681 C2696 0.960 . S
H2682 C2696 0.960 . S
H2683 C2696 0.960 . S
C2684 H2676 0.929 . S
C2684 C2685 1.377 . S
C2684 C2686 1.384 . S
C2685 C2684 1.377 . S
C2685 C2691 1.390 . S
C2686 H2677 0.930 . S
C2686 C2684 1.384 . S
C2686 C2687 1.372 . S
C2687 C2686 1.372 . S
C2687 C2688 1.400 . S
C2687 C2692 1.490 . S
C2688 H2678 0.930 . S
C2688 C2687 1.400 . S
C2688 C2691 1.386 . S
H2689 C2705 0.930 . S
H2690 C2706 0.931 . S
C2691 H2679 0.929 . S
C2691 C2685 1.390 . S
C2691 C2688 1.386 . S
C2692 C2687 1.490 . S
C2692 C2694 1.395 . S
C2692 C2695 1.403 . S
H2693 C2699 0.930 . S
C2694 H2680 0.930 . S
C2694 C2692 1.395 . S
C2694 C2697 1.403 . S
C2695 C2692 1.403 . S
C2695 C2696 1.524 . S
C2695 C2699 1.400 . S
C2696 H2681 0.960 . S
C2696 H2682 0.960 . S
C2696 H2683 0.960 . S
C2696 C2695 1.524 . S
C2697 C2694 1.403 . S
C2697 C2698 1.392 . S
C2697 C2701 1.495 . S
C2698 C2697 1.392 . S
C2698 C2699 1.385 . S
C2698 C2700 1.478 . S
C2699 H2693 0.930 . S
C2699 C2695 1.400 . S
C2699 C2698 1.385 . S
C2700 C2698 1.478 . S
C2700 C2702 1.381 . S
C2700 C2706 1.383 . S
C2701 C2697 1.495 . S
C2701 H2707 0.959 . S
C2701 H2708 0.961 . S
C2701 H2709 0.960 . S
C2702 C2700 1.381 . S
C2702 C2703 1.394 . S
C2702 H2710 0.930 . S
C2703 C2702 1.394 . S
C2703 C2704 1.383 . S
C2703 H2711 0.929 . S
C2704 C2703 1.383 . S
C2704 C2705 1.377 . S
C2705 H2689 0.930 . S
C2705 C2704 1.377 . S
C2705 C2706 1.379 . S
C2706 H2690 0.931 . S
C2706 C2700 1.383 . S
C2706 C2705 1.379 . S
H2707 C2701 0.959 . S
H2708 C2701 0.961 . S
H2709 C2701 0.960 . S
H2710 C2702 0.930 . S
H2711 C2703 0.929 . S
H2712 C2720 0.929 . S
H2713 C2722 0.930 . S
H2714 C2724 0.930 . S
H2715 C2727 0.929 . S
H2716 C2730 0.930 . S
H2717 C2732 0.960 . S
H2718 C2732 0.960 . S
H2719 C2732 0.960 . S
C2720 H2712 0.929 . S
C2720 C2721 1.377 . S
C2720 C2722 1.384 . S
C2721 C2720 1.377 . S
C2721 C2727 1.390 . S
C2722 H2713 0.930 . S
C2722 C2720 1.384 . S
C2722 C2723 1.372 . S
C2723 C2722 1.372 . S
C2723 C2724 1.400 . S
C2723 C2728 1.490 . S
C2724 H2714 0.930 . S
C2724 C2723 1.400 . S
C2724 C2727 1.386 . S
H2725 C2741 0.930 . S
H2726 C2742 0.931 . S
C2727 H2715 0.929 . S
C2727 C2721 1.390 . S
C2727 C2724 1.386 . S
C2728 C2723 1.490 . S
C2728 C2730 1.395 . S
C2728 C2731 1.403 . S
H2729 C2735 0.930 . S
C2730 H2716 0.930 . S
C2730 C2728 1.395 . S
C2730 C2733 1.403 . S
C2731 C2728 1.403 . S
C2731 C2732 1.524 . S
C2731 C2735 1.400 . S
C2732 H2717 0.960 . S
C2732 H2718 0.960 . S
C2732 H2719 0.960 . S
C2732 C2731 1.524 . S
C2733 C2730 1.403 . S
C2733 C2734 1.392 . S
C2733 C2737 1.495 . S
C2734 C2733 1.392 . S
C2734 C2735 1.385 . S
C2734 C2736 1.478 . S
C2735 H2729 0.930 . S
C2735 C2731 1.400 . S
C2735 C2734 1.385 . S
C2736 C2734 1.478 . S
C2736 C2738 1.381 . S
C2736 C2742 1.383 . S
C2737 C2733 1.495 . S
C2737 H2743 0.959 . S
C2737 H2744 0.961 . S
C2737 H2745 0.960 . S
C2738 C2736 1.381 . S
C2738 C2739 1.394 . S
C2738 H2746 0.930 . S
C2739 C2738 1.394 . S
C2739 C2740 1.383 . S
C2739 H2747 0.929 . S
C2740 C2739 1.383 . S
C2740 C2741 1.377 . S
C2741 H2725 0.930 . S
C2741 C2740 1.377 . S
C2741 C2742 1.379 . S
C2742 H2726 0.931 . S
C2742 C2736 1.383 . S
C2742 C2741 1.379 . S
H2743 C2737 0.959 . S
H2744 C2737 0.961 . S
H2745 C2737 0.960 . S
H2746 C2738 0.930 . S
H2747 C2739 0.929 . S
H2748 C2756 0.929 . S
H2749 C2758 0.930 . S
H2750 C2760 0.930 . S
H2751 C2763 0.929 . S
H2752 C2766 0.930 . S
H2753 C2768 0.960 . S
H2754 C2768 0.960 . S
H2755 C2768 0.960 . S
C2756 H2748 0.929 . S
C2756 C2757 1.377 . S
C2756 C2758 1.384 . S
C2757 C2756 1.377 . S
C2757 C2763 1.390 . S
C2758 H2749 0.930 . S
C2758 C2756 1.384 . S
C2758 C2759 1.372 . S
C2759 C2758 1.372 . S
C2759 C2760 1.400 . S
C2759 C2764 1.490 . S
C2760 H2750 0.930 . S
C2760 C2759 1.400 . S
C2760 C2763 1.386 . S
H2761 C2777 0.931 . S
H2762 C2778 0.931 . S
C2763 H2751 0.929 . S
C2763 C2757 1.390 . S
C2763 C2760 1.386 . S
C2764 C2759 1.490 . S
C2764 C2766 1.395 . S
C2764 C2767 1.403 . S
H2765 C2771 0.930 . S
C2766 H2752 0.930 . S
C2766 C2764 1.395 . S
C2766 C2769 1.403 . S
C2767 C2764 1.403 . S
C2767 C2768 1.524 . S
C2767 C2771 1.400 . S
C2768 H2753 0.960 . S
C2768 H2754 0.960 . S
C2768 H2755 0.960 . S
C2768 C2767 1.524 . S
C2769 C2766 1.403 . S
C2769 C2770 1.392 . S
C2769 C2773 1.495 . S
C2770 C2769 1.392 . S
C2770 C2771 1.385 . S
C2770 C2772 1.478 . S
C2771 H2765 0.930 . S
C2771 C2767 1.400 . S
C2771 C2770 1.385 . S
C2772 C2770 1.478 . S
C2772 C2774 1.381 1_455 S
C2772 C2778 1.383 . S
C2773 C2769 1.495 . S
C2773 H2779 0.959 . S
C2773 H2780 0.961 . S
C2773 H2781 0.960 1_455 S
C2774 C2772 1.381 1_655 S
C2774 C2775 1.394 . S
C2774 H2782 0.930 . S
C2775 C2774 1.394 . S
C2775 C2776 1.383 . S
C2775 H2783 0.929 . S
C2776 C2775 1.383 . S
C2776 C2777 1.377 . S
C2777 H2761 0.931 . S
C2777 C2776 1.377 . S
C2777 C2778 1.379 1_655 S
C2778 H2762 0.931 . S
C2778 C2772 1.383 . S
C2778 C2777 1.379 1_455 S
H2779 C2773 0.959 . S
H2780 C2773 0.961 . S
H2781 C2773 0.960 1_655 S
H2782 C2774 0.930 . S
H2783 C2775 0.929 . S
H2784 C2792 0.929 . S
H2785 C2794 0.930 . S
H2786 C2796 0.930 . S
H2787 C2799 0.929 . S
H2788 C2802 0.930 . S
H2789 C2804 0.960 . S
H2790 C2804 0.960 . S
H2791 C2804 0.960 . S
C2792 H2784 0.929 . S
C2792 C2793 1.377 . S
C2792 C2794 1.384 . S
C2793 C2792 1.377 . S
C2793 C2799 1.390 . S
C2794 H2785 0.930 . S
C2794 C2792 1.384 . S
C2794 C2795 1.372 . S
C2795 C2794 1.372 . S
C2795 C2796 1.400 . S
C2795 C2800 1.490 . S
C2796 H2786 0.930 . S
C2796 C2795 1.400 . S
C2796 C2799 1.386 . S
H2797 C2813 0.930 . S
H2798 C2814 0.931 . S
C2799 H2787 0.929 . S
C2799 C2793 1.390 . S
C2799 C2796 1.386 . S
C2800 C2795 1.490 . S
C2800 C2802 1.395 . S
C2800 C2803 1.403 . S
H2801 C2807 0.930 . S
C2802 H2788 0.930 . S
C2802 C2800 1.395 . S
C2802 C2805 1.403 . S
C2803 C2800 1.403 . S
C2803 C2804 1.524 . S
C2803 C2807 1.400 . S
C2804 H2789 0.960 . S
C2804 H2790 0.960 . S
C2804 H2791 0.960 . S
C2804 C2803 1.524 . S
C2805 C2802 1.403 . S
C2805 C2806 1.392 . S
C2805 C2809 1.495 . S
C2806 C2805 1.392 . S
C2806 C2807 1.385 . S
C2806 C2808 1.478 . S
C2807 H2801 0.930 . S
C2807 C2803 1.400 . S
C2807 C2806 1.385 . S
C2808 C2806 1.478 . S
C2808 C2810 1.381 . S
C2808 C2814 1.383 . S
C2809 C2805 1.495 . S
C2809 H2815 0.959 . S
C2809 H2816 0.961 . S
C2809 H2817 0.960 . S
C2810 C2808 1.381 . S
C2810 C2811 1.394 . S
C2810 H2818 0.930 . S
C2811 C2810 1.394 . S
C2811 C2812 1.383 . S
C2811 H2819 0.929 . S
C2812 C2811 1.383 . S
C2812 C2813 1.377 . S
C2813 H2797 0.930 . S
C2813 C2812 1.377 . S
C2813 C2814 1.379 . S
C2814 H2798 0.931 . S
C2814 C2808 1.383 . S
C2814 C2813 1.379 . S
H2815 C2809 0.959 . S
H2816 C2809 0.961 . S
H2817 C2809 0.960 . S
H2818 C2810 0.930 . S
H2819 C2811 0.929 . S
H2820 C2828 0.929 . S
H2821 C2830 0.930 . S
H2822 C2832 0.930 . S
H2823 C2835 0.929 . S
H2824 C2838 0.930 . S
H2825 C2840 0.960 . S
H2826 C2840 0.960 . S
H2827 C2840 0.960 . S
C2828 H2820 0.929 . S
C2828 C2829 1.377 . S
C2828 C2830 1.384 . S
C2829 C2828 1.377 . S
C2829 C2835 1.390 . S
C2830 H2821 0.930 . S
C2830 C2828 1.384 . S
C2830 C2831 1.372 . S
C2831 C2830 1.372 . S
C2831 C2832 1.400 . S
C2831 C2836 1.490 . S
C2832 H2822 0.930 . S
C2832 C2831 1.400 . S
C2832 C2835 1.386 . S
H2833 C2849 0.930 . S
H2834 C2850 0.931 . S
C2835 H2823 0.929 . S
C2835 C2829 1.390 . S
C2835 C2832 1.386 . S
C2836 C2831 1.490 . S
C2836 C2838 1.395 . S
C2836 C2839 1.403 . S
H2837 C2843 0.930 . S
C2838 H2824 0.930 . S
C2838 C2836 1.395 . S
C2838 C2841 1.403 . S
C2839 C2836 1.403 . S
C2839 C2840 1.524 . S
C2839 C2843 1.400 . S
C2840 H2825 0.960 . S
C2840 H2826 0.960 . S
C2840 H2827 0.960 . S
C2840 C2839 1.524 . S
C2841 C2838 1.403 . S
C2841 C2842 1.392 . S
C2841 C2845 1.495 . S
C2842 C2841 1.392 . S
C2842 C2843 1.385 . S
C2842 C2844 1.478 . S
C2843 H2837 0.930 . S
C2843 C2839 1.400 . S
C2843 C2842 1.385 . S
C2844 C2842 1.478 . S
C2844 C2846 1.381 . S
C2844 C2850 1.383 . S
C2845 C2841 1.495 . S
C2845 H2851 0.959 . S
C2845 H2852 0.961 . S
C2845 H2853 0.960 . S
C2846 C2844 1.381 . S
C2846 C2847 1.394 . S
C2846 H2854 0.930 . S
C2847 C2846 1.394 . S
C2847 C2848 1.383 . S
C2847 H2855 0.929 . S
C2848 C2847 1.383 . S
C2848 C2849 1.377 . S
C2849 H2833 0.930 . S
C2849 C2848 1.377 . S
C2849 C2850 1.379 . S
C2850 H2834 0.931 . S
C2850 C2844 1.383 . S
C2850 C2849 1.379 . S
H2851 C2845 0.959 . S
H2852 C2845 0.961 . S
H2853 C2845 0.960 . S
H2854 C2846 0.930 . S
H2855 C2847 0.929 . S
H2856 C2864 0.929 . S
H2857 C2866 0.930 . S
H2858 C2868 0.930 . S
H2859 C2871 0.929 . S
H2860 C2874 0.930 . S
H2861 C2876 0.960 . S
H2862 C2876 0.960 . S
H2863 C2876 0.960 . S
C2864 H2856 0.929 . S
C2864 C2865 1.377 . S
C2864 C2866 1.384 . S
C2865 C2864 1.377 . S
C2865 C2871 1.390 . S
C2866 H2857 0.930 . S
C2866 C2864 1.384 . S
C2866 C2867 1.372 . S
C2867 C2866 1.372 . S
C2867 C2868 1.400 . S
C2867 C2872 1.490 . S
C2868 H2858 0.930 . S
C2868 C2867 1.400 . S
C2868 C2871 1.386 . S
H2869 C2885 0.930 . S
H2870 C2886 0.931 . S
C2871 H2859 0.929 . S
C2871 C2865 1.390 . S
C2871 C2868 1.386 . S
C2872 C2867 1.490 . S
C2872 C2874 1.395 . S
C2872 C2875 1.403 . S
H2873 C2879 0.930 . S
C2874 H2860 0.930 . S
C2874 C2872 1.395 . S
C2874 C2877 1.403 . S
C2875 C2872 1.403 . S
C2875 C2876 1.524 . S
C2875 C2879 1.400 . S
C2876 H2861 0.960 . S
C2876 H2862 0.960 . S
C2876 H2863 0.960 . S
C2876 C2875 1.524 . S
C2877 C2874 1.403 . S
C2877 C2878 1.392 . S
C2877 C2881 1.495 . S
C2878 C2877 1.392 . S
C2878 C2879 1.385 . S
C2878 C2880 1.478 . S
C2879 H2873 0.930 . S
C2879 C2875 1.400 . S
C2879 C2878 1.385 . S
C2880 C2878 1.478 . S
C2880 C2882 1.381 . S
C2880 C2886 1.383 . S
C2881 C2877 1.495 . S
C2881 H2887 0.959 . S
C2881 H2888 0.961 . S
C2881 H2889 0.960 . S
C2882 C2880 1.381 . S
C2882 C2883 1.394 . S
C2882 H2890 0.930 . S
C2883 C2882 1.394 . S
C2883 C2884 1.383 . S
C2883 H2891 0.929 . S
C2884 C2883 1.383 . S
C2884 C2885 1.377 . S
C2885 H2869 0.930 . S
C2885 C2884 1.377 . S
C2885 C2886 1.379 . S
C2886 H2870 0.931 . S
C2886 C2880 1.383 . S
C2886 C2885 1.379 . S
H2887 C2881 0.959 . S
H2888 C2881 0.961 . S
H2889 C2881 0.960 . S
H2890 C2882 0.930 . S
H2891 C2883 0.929 . S
H2892 C2900 0.929 . S
H2893 C2902 0.930 . S
H2894 C2904 0.930 . S
H2895 C2907 0.929 . S
H2896 C2910 0.930 . S
H2897 C2912 0.960 . S
H2898 C2912 0.960 . S
H2899 C2912 0.960 . S
C2900 H2892 0.929 . S
C2900 C2901 1.377 . S
C2900 C2902 1.384 . S
C2901 C2900 1.377 . S
C2901 C2907 1.390 1_655 S
C2902 H2893 0.930 . S
C2902 C2900 1.384 . S
C2902 C2903 1.372 1_655 S
C2903 C2902 1.372 1_455 S
C2903 C2904 1.400 . S
C2903 C2908 1.490 . S
C2904 H2894 0.930 . S
C2904 C2903 1.400 . S
C2904 C2907 1.386 . S
H2905 C2921 0.930 . S
H2906 C2922 0.931 . S
C2907 H2895 0.929 . S
C2907 C2901 1.390 1_455 S
C2907 C2904 1.386 . S
C2908 C2903 1.490 . S
C2908 C2910 1.395 . S
C2908 C2911 1.403 . S
H2909 C2915 0.930 . S
C2910 H2896 0.930 . S
C2910 C2908 1.395 . S
C2910 C2913 1.403 . S
C2911 C2908 1.403 . S
C2911 C2912 1.524 . S
C2911 C2915 1.400 . S
C2912 H2897 0.960 . S
C2912 H2898 0.960 . S
C2912 H2899 0.960 . S
C2912 C2911 1.524 . S
C2913 C2910 1.403 . S
C2913 C2914 1.392 . S
C2913 C2917 1.495 . S
C2914 C2913 1.392 . S
C2914 C2915 1.385 . S
C2914 C2916 1.478 . S
C2915 H2909 0.930 . S
C2915 C2911 1.400 . S
C2915 C2914 1.385 . S
C2916 C2914 1.478 . S
C2916 C2918 1.381 . S
C2916 C2922 1.383 . S
C2917 C2913 1.495 . S
C2917 H2923 0.959 . S
C2917 H2924 0.961 . S
C2917 H2925 0.960 . S
C2918 C2916 1.381 . S
C2918 C2919 1.394 . S
C2918 H2926 0.930 . S
C2919 C2918 1.394 . S
C2919 C2920 1.383 . S
C2919 H2927 0.929 . S
C2920 C2919 1.383 . S
C2920 C2921 1.377 . S
C2921 H2905 0.930 . S
C2921 C2920 1.377 . S
C2921 C2922 1.379 . S
C2922 H2906 0.931 . S
C2922 C2916 1.383 . S
C2922 C2921 1.379 . S
H2923 C2917 0.959 . S
H2924 C2917 0.961 . S
H2925 C2917 0.960 . S
H2926 C2918 0.930 . S
H2927 C2919 0.929 . S
H2928 C2936 0.929 . S
H2929 C2938 0.930 . S
H2930 C2940 0.930 . S
H2931 C2943 0.929 . S
H2932 C2946 0.930 . S
H2933 C2948 0.960 . S
H2934 C2948 0.960 . S
H2935 C2948 0.960 . S
C2936 H2928 0.929 . S
C2936 C2937 1.377 . S
C2936 C2938 1.384 . S
C2937 C2936 1.377 . S
C2937 C2943 1.390 . S
C2938 H2929 0.930 . S
C2938 C2936 1.384 . S
C2938 C2939 1.372 . S
C2939 C2938 1.372 . S
C2939 C2940 1.400 . S
C2939 C2944 1.490 . S
C2940 H2930 0.930 . S
C2940 C2939 1.400 . S
C2940 C2943 1.386 . S
H2941 C2957 0.930 . S
H2942 C2958 0.931 . S
C2943 H2931 0.929 . S
C2943 C2937 1.390 . S
C2943 C2940 1.386 . S
C2944 C2939 1.490 . S
C2944 C2946 1.395 . S
C2944 C2947 1.403 . S
H2945 C2951 0.930 . S
C2946 H2932 0.930 . S
C2946 C2944 1.395 . S
C2946 C2949 1.403 . S
C2947 C2944 1.403 . S
C2947 C2948 1.524 . S
C2947 C2951 1.400 . S
C2948 H2933 0.960 . S
C2948 H2934 0.960 . S
C2948 H2935 0.960 . S
C2948 C2947 1.524 . S
C2949 C2946 1.403 . S
C2949 C2950 1.392 . S
C2949 C2953 1.495 . S
C2950 C2949 1.392 . S
C2950 C2951 1.385 . S
C2950 C2952 1.478 . S
C2951 H2945 0.930 . S
C2951 C2947 1.400 . S
C2951 C2950 1.385 . S
C2952 C2950 1.478 . S
C2952 C2954 1.381 . S
C2952 C2958 1.383 . S
C2953 C2949 1.495 . S
C2953 H2959 0.959 . S
C2953 H2960 0.961 . S
C2953 H2961 0.960 . S
C2954 C2952 1.381 . S
C2954 C2955 1.394 . S
C2954 H2962 0.930 . S
C2955 C2954 1.394 . S
C2955 C2956 1.383 . S
C2955 H2963 0.929 . S
C2956 C2955 1.383 . S
C2956 C2957 1.377 . S
C2957 H2941 0.930 . S
C2957 C2956 1.377 . S
C2957 C2958 1.379 . S
C2958 H2942 0.931 . S
C2958 C2952 1.383 . S
C2958 C2957 1.379 . S
H2959 C2953 0.959 . S
H2960 C2953 0.961 . S
H2961 C2953 0.960 . S
H2962 C2954 0.930 . S
H2963 C2955 0.929 . S
H2964 C2972 0.929 . S
H2965 C2974 0.930 . S
H2966 C2976 0.930 . S
H2967 C2979 0.929 . S
H2968 C2982 0.930 . S
H2969 C2984 0.960 . S
H2970 C2984 0.960 . S
H2971 C2984 0.960 . S
C2972 H2964 0.929 . S
C2972 C2973 1.377 . S
C2972 C2974 1.384 . S
C2973 C2972 1.377 . S
C2973 C2979 1.390 . S
C2974 H2965 0.930 . S
C2974 C2972 1.384 . S
C2974 C2975 1.372 . S
C2975 C2974 1.372 . S
C2975 C2976 1.400 . S
C2975 C2980 1.490 . S
C2976 H2966 0.930 . S
C2976 C2975 1.400 . S
C2976 C2979 1.386 . S
H2977 C2993 0.930 . S
H2978 C2994 0.931 . S
C2979 H2967 0.929 . S
C2979 C2973 1.390 . S
C2979 C2976 1.386 . S
C2980 C2975 1.490 . S
C2980 C2982 1.395 . S
C2980 C2983 1.403 . S
H2981 C2987 0.930 . S
C2982 H2968 0.930 . S
C2982 C2980 1.395 . S
C2982 C2985 1.403 . S
C2983 C2980 1.403 . S
C2983 C2984 1.524 . S
C2983 C2987 1.400 . S
C2984 H2969 0.960 . S
C2984 H2970 0.960 . S
C2984 H2971 0.960 . S
C2984 C2983 1.524 . S
C2985 C2982 1.403 . S
C2985 C2986 1.392 . S
C2985 C2989 1.495 . S
C2986 C2985 1.392 . S
C2986 C2987 1.385 . S
C2986 C2988 1.478 . S
C2987 H2981 0.930 . S
C2987 C2983 1.400 . S
C2987 C2986 1.385 . S
C2988 C2986 1.478 . S
C2988 C2990 1.381 . S
C2988 C2994 1.383 . S
C2989 C2985 1.495 . S
C2989 H2995 0.959 . S
C2989 H2996 0.961 . S
C2989 H2997 0.960 . S
C2990 C2988 1.381 . S
C2990 C2991 1.394 1_455 S
C2990 H2998 0.930 . S
C2991 C2990 1.394 1_655 S
C2991 C2992 1.383 . S
C2991 H2999 0.929 . S
C2992 C2991 1.383 . S
C2992 C2993 1.377 . S
C2993 H2977 0.930 . S
C2993 C2992 1.377 . S
C2993 C2994 1.379 1_655 S
C2994 H2978 0.931 . S
C2994 C2988 1.383 . S
C2994 C2993 1.379 1_455 S
H2995 C2989 0.959 . S
H2996 C2989 0.961 . S
H2997 C2989 0.960 . S
H2998 C2990 0.930 . S
H2999 C2991 0.929 . S
H3000 C3008 0.929 . S
H3001 C3010 0.930 . S
H3002 C3012 0.930 . S
H3003 C3015 0.929 . S
H3004 C3018 0.930 . S
H3005 C3020 0.960 . S
H3006 C3020 0.960 . S
H3007 C3020 0.960 . S
C3008 H3000 0.929 . S
C3008 C3009 1.377 . S
C3008 C3010 1.384 . S
C3009 C3008 1.377 . S
C3009 C3015 1.390 . S
C3010 H3001 0.930 . S
C3010 C3008 1.384 . S
C3010 C3011 1.372 . S
C3011 C3010 1.372 . S
C3011 C3012 1.400 . S
C3011 C3016 1.490 . S
C3012 H3002 0.930 . S
C3012 C3011 1.400 . S
C3012 C3015 1.386 . S
H3013 C3029 0.930 . S
H3014 C3030 0.931 . S
C3015 H3003 0.929 . S
C3015 C3009 1.390 . S
C3015 C3012 1.386 . S
C3016 C3011 1.490 . S
C3016 C3018 1.395 . S
C3016 C3019 1.403 . S
H3017 C3023 0.930 . S
C3018 H3004 0.930 . S
C3018 C3016 1.395 . S
C3018 C3021 1.403 . S
C3019 C3016 1.403 . S
C3019 C3020 1.524 . S
C3019 C3023 1.400 . S
C3020 H3005 0.960 . S
C3020 H3006 0.960 . S
C3020 H3007 0.960 . S
C3020 C3019 1.524 . S
C3021 C3018 1.403 . S
C3021 C3022 1.392 . S
C3021 C3025 1.495 . S
C3022 C3021 1.392 . S
C3022 C3023 1.385 . S
C3022 C3024 1.478 . S
C3023 H3017 0.930 . S
C3023 C3019 1.400 . S
C3023 C3022 1.385 . S
C3024 C3022 1.478 . S
C3024 C3026 1.381 . S
C3024 C3030 1.383 . S
C3025 C3021 1.495 . S
C3025 H3031 0.959 . S
C3025 H3032 0.961 . S
C3025 H3033 0.960 . S
C3026 C3024 1.381 . S
C3026 C3027 1.394 . S
C3026 H3034 0.930 . S
C3027 C3026 1.394 . S
C3027 C3028 1.383 . S
C3027 H3035 0.929 . S
C3028 C3027 1.383 . S
C3028 C3029 1.377 . S
C3029 H3013 0.930 . S
C3029 C3028 1.377 . S
C3029 C3030 1.379 . S
C3030 H3014 0.931 . S
C3030 C3024 1.383 . S
C3030 C3029 1.379 . S
H3031 C3025 0.959 . S
H3032 C3025 0.961 . S
H3033 C3025 0.960 . S
H3034 C3026 0.930 . S
H3035 C3027 0.929 . S
H3036 C3044 0.929 . S
H3037 C3046 0.930 . S
H3038 C3048 0.930 . S
H3039 C3051 0.929 . S
H3040 C3054 0.930 . S
H3041 C3056 0.960 . S
H3042 C3056 0.960 . S
H3043 C3056 0.960 . S
C3044 H3036 0.929 . S
C3044 C3045 1.377 . S
C3044 C3046 1.384 . S
C3045 C3044 1.377 . S
C3045 C3051 1.390 . S
C3046 H3037 0.930 . S
C3046 C3044 1.384 . S
C3046 C3047 1.372 . S
C3047 C3046 1.372 . S
C3047 C3048 1.400 . S
C3047 C3052 1.490 . S
C3048 H3038 0.930 . S
C3048 C3047 1.400 . S
C3048 C3051 1.386 . S
H3049 C3065 0.930 . S
H3050 C3066 0.931 . S
C3051 H3039 0.929 . S
C3051 C3045 1.390 . S
C3051 C3048 1.386 . S
C3052 C3047 1.490 . S
C3052 C3054 1.395 . S
C3052 C3055 1.403 . S
H3053 C3059 0.930 . S
C3054 H3040 0.930 . S
C3054 C3052 1.395 . S
C3054 C3057 1.403 . S
C3055 C3052 1.403 . S
C3055 C3056 1.524 . S
C3055 C3059 1.400 . S
C3056 H3041 0.960 . S
C3056 H3042 0.960 . S
C3056 H3043 0.960 . S
C3056 C3055 1.524 . S
C3057 C3054 1.403 . S
C3057 C3058 1.392 . S
C3057 C3061 1.495 . S
C3058 C3057 1.392 . S
C3058 C3059 1.385 . S
C3058 C3060 1.478 . S
C3059 H3053 0.930 . S
C3059 C3055 1.400 . S
C3059 C3058 1.385 . S
C3060 C3058 1.478 . S
C3060 C3062 1.381 . S
C3060 C3066 1.383 . S
C3061 C3057 1.495 . S
C3061 H3067 0.959 . S
C3061 H3068 0.961 . S
C3061 H3069 0.960 . S
C3062 C3060 1.381 . S
C3062 C3063 1.394 . S
C3062 H3070 0.930 . S
C3063 C3062 1.394 . S
C3063 C3064 1.383 . S
C3063 H3071 0.929 . S
C3064 C3063 1.383 . S
C3064 C3065 1.377 . S
C3065 H3049 0.930 . S
C3065 C3064 1.377 . S
C3065 C3066 1.379 . S
C3066 H3050 0.931 . S
C3066 C3060 1.383 . S
C3066 C3065 1.379 . S
H3067 C3061 0.959 . S
H3068 C3061 0.961 . S
H3069 C3061 0.960 . S
H3070 C3062 0.930 . S
H3071 C3063 0.929 . S
H3072 C3080 0.929 . S
H3073 C3082 0.930 . S
H3074 C3084 0.930 . S
H3075 C3087 0.929 . S
H3076 C3090 0.930 . S
H3077 C3092 0.960 . S
H3078 C3092 0.960 . S
H3079 C3092 0.960 . S
C3080 H3072 0.929 . S
C3080 C3081 1.377 . S
C3080 C3082 1.384 . S
C3081 C3080 1.377 . S
C3081 C3087 1.390 . S
C3082 H3073 0.930 . S
C3082 C3080 1.384 . S
C3082 C3083 1.372 . S
C3083 C3082 1.372 . S
C3083 C3084 1.400 . S
C3083 C3088 1.490 . S
C3084 H3074 0.930 . S
C3084 C3083 1.400 . S
C3084 C3087 1.386 . S
H3085 C3101 0.930 . S
H3086 C3102 0.931 . S
C3087 H3075 0.929 . S
C3087 C3081 1.390 . S
C3087 C3084 1.386 . S
C3088 C3083 1.490 . S
C3088 C3090 1.395 . S
C3088 C3091 1.403 . S
H3089 C3095 0.930 . S
C3090 H3076 0.930 . S
C3090 C3088 1.395 . S
C3090 C3093 1.403 . S
C3091 C3088 1.403 . S
C3091 C3092 1.524 . S
C3091 C3095 1.400 . S
C3092 H3077 0.960 . S
C3092 H3078 0.960 . S
C3092 H3079 0.960 . S
C3092 C3091 1.524 . S
C3093 C3090 1.403 . S
C3093 C3094 1.392 . S
C3093 C3097 1.495 . S
C3094 C3093 1.392 . S
C3094 C3095 1.385 . S
C3094 C3096 1.478 . S
C3095 H3089 0.930 . S
C3095 C3091 1.400 . S
C3095 C3094 1.385 . S
C3096 C3094 1.478 . S
C3096 C3098 1.381 . S
C3096 C3102 1.383 . S
C3097 C3093 1.495 . S
C3097 H3103 0.959 . S
C3097 H3104 0.961 . S
C3097 H3105 0.960 . S
C3098 C3096 1.381 . S
C3098 C3099 1.394 . S
C3098 H3106 0.930 . S
C3099 C3098 1.394 . S
C3099 C3100 1.383 . S
C3099 H3107 0.929 . S
C3100 C3099 1.383 . S
C3100 C3101 1.377 . S
C3101 H3085 0.930 . S
C3101 C3100 1.377 . S
C3101 C3102 1.379 . S
C3102 H3086 0.931 . S
C3102 C3096 1.383 . S
C3102 C3101 1.379 . S
H3103 C3097 0.959 . S
H3104 C3097 0.961 . S
H3105 C3097 0.960 . S
H3106 C3098 0.930 . S
H3107 C3099 0.929 . S
H3108 C3116 0.929 . S
H3109 C3118 0.930 . S
H3110 C3120 0.930 . S
H3111 C3123 0.929 . S
H3112 C3126 0.930 . S
H3113 C3128 0.960 . S
H3114 C3128 0.960 . S
H3115 C3128 0.960 . S
C3116 H3108 0.929 . S
C3116 C3117 1.377 . S
C3116 C3118 1.384 . S
C3117 C3116 1.377 . S
C3117 C3123 1.390 . S
C3118 H3109 0.930 . S
C3118 C3116 1.384 . S
C3118 C3119 1.372 . S
C3119 C3118 1.372 . S
C3119 C3120 1.400 . S
C3119 C3124 1.490 . S
C3120 H3110 0.930 . S
C3120 C3119 1.400 . S
C3120 C3123 1.386 . S
H3121 C3137 0.930 . S
H3122 C3138 0.931 . S
C3123 H3111 0.929 . S
C3123 C3117 1.390 . S
C3123 C3120 1.386 . S
C3124 C3119 1.490 . S
C3124 C3126 1.395 . S
C3124 C3127 1.403 . S
H3125 C3131 0.930 . S
C3126 H3112 0.930 . S
C3126 C3124 1.395 . S
C3126 C3129 1.403 . S
C3127 C3124 1.403 . S
C3127 C3128 1.524 . S
C3127 C3131 1.400 . S
C3128 H3113 0.960 . S
C3128 H3114 0.960 . S
C3128 H3115 0.960 . S
C3128 C3127 1.524 . S
C3129 C3126 1.403 . S
C3129 C3130 1.392 . S
C3129 C3133 1.495 . S
C3130 C3129 1.392 . S
C3130 C3131 1.385 . S
C3130 C3132 1.478 . S
C3131 H3125 0.930 . S
C3131 C3127 1.400 . S
C3131 C3130 1.385 . S
C3132 C3130 1.478 . S
C3132 C3134 1.381 . S
C3132 C3138 1.383 . S
C3133 C3129 1.495 . S
C3133 H3139 0.959 . S
C3133 H3140 0.961 . S
C3133 H3141 0.960 . S
C3134 C3132 1.381 . S
C3134 C3135 1.394 . S
C3134 H3142 0.930 . S
C3135 C3134 1.394 . S
C3135 C3136 1.383 . S
C3135 H3143 0.929 . S
C3136 C3135 1.383 . S
C3136 C3137 1.377 . S
C3137 H3121 0.930 . S
C3137 C3136 1.377 . S
C3137 C3138 1.379 . S
C3138 H3122 0.931 . S
C3138 C3132 1.383 . S
C3138 C3137 1.379 . S
H3139 C3133 0.959 . S
H3140 C3133 0.961 . S
H3141 C3133 0.960 . S
H3142 C3134 0.930 . S
H3143 C3135 0.929 . S
H3144 C3152 0.929 . S
H3145 C3154 0.930 . S
H3146 C3156 0.930 . S
H3147 C3159 0.929 . S
H3148 C3162 0.930 . S
H3149 C3164 0.960 . S
H3150 C3164 0.960 . S
H3151 C3164 0.960 . S
C3152 H3144 0.929 . S
C3152 C3153 1.377 . S
C3152 C3154 1.384 . S
C3153 C3152 1.377 . S
C3153 C3159 1.390 . S
C3154 H3145 0.930 . S
C3154 C3152 1.384 . S
C3154 C3155 1.372 . S
C3155 C3154 1.372 . S
C3155 C3156 1.400 . S
C3155 C3160 1.490 . S
C3156 H3146 0.930 . S
C3156 C3155 1.400 . S
C3156 C3159 1.386 . S
H3157 C3173 0.930 . S
H3158 C3174 0.931 . S
C3159 H3147 0.929 . S
C3159 C3153 1.390 . S
C3159 C3156 1.386 . S
C3160 C3155 1.490 . S
C3160 C3162 1.395 . S
C3160 C3163 1.403 . S
H3161 C3167 0.930 . S
C3162 H3148 0.930 . S
C3162 C3160 1.395 . S
C3162 C3165 1.403 . S
C3163 C3160 1.403 . S
C3163 C3164 1.524 . S
C3163 C3167 1.400 . S
C3164 H3149 0.960 . S
C3164 H3150 0.960 . S
C3164 H3151 0.960 . S
C3164 C3163 1.524 . S
C3165 C3162 1.403 . S
C3165 C3166 1.392 . S
C3165 C3169 1.495 . S
C3166 C3165 1.392 . S
C3166 C3167 1.385 . S
C3166 C3168 1.478 . S
C3167 H3161 0.930 . S
C3167 C3163 1.400 . S
C3167 C3166 1.385 . S
C3168 C3166 1.478 . S
C3168 C3170 1.381 . S
C3168 C3174 1.383 . S
C3169 C3165 1.495 . S
C3169 H3175 0.959 . S
C3169 H3176 0.961 . S
C3169 H3177 0.960 . S
C3170 C3168 1.381 . S
C3170 C3171 1.394 . S
C3170 H3178 0.930 . S
C3171 C3170 1.394 . S
C3171 C3172 1.383 . S
C3171 H3179 0.929 . S
C3172 C3171 1.383 . S
C3172 C3173 1.377 . S
C3173 H3157 0.930 . S
C3173 C3172 1.377 . S
C3173 C3174 1.379 . S
C3174 H3158 0.931 . S
C3174 C3168 1.383 . S
C3174 C3173 1.379 . S
H3175 C3169 0.959 . S
H3176 C3169 0.961 . S
H3177 C3169 0.960 . S
H3178 C3170 0.930 . S
H3179 C3171 0.929 . S
H3180 C3188 0.929 . S
H3181 C3190 0.930 . S
H3182 C3192 0.930 . S
H3183 C3195 0.929 . S
H3184 C3198 0.930 . S
H3185 C3200 0.960 . S
H3186 C3200 0.960 . S
H3187 C3200 0.960 . S
C3188 H3180 0.929 . S
C3188 C3189 1.377 . S
C3188 C3190 1.384 . S
C3189 C3188 1.377 . S
C3189 C3195 1.390 . S
C3190 H3181 0.930 . S
C3190 C3188 1.384 . S
C3190 C3191 1.372 . S
C3191 C3190 1.372 . S
C3191 C3192 1.400 . S
C3191 C3196 1.490 . S
C3192 H3182 0.930 . S
C3192 C3191 1.400 . S
C3192 C3195 1.386 . S
H3193 C3209 0.930 . S
H3194 C3210 0.931 . S
C3195 H3183 0.929 . S
C3195 C3189 1.390 . S
C3195 C3192 1.386 . S
C3196 C3191 1.490 . S
C3196 C3198 1.395 . S
C3196 C3199 1.403 . S
H3197 C3203 0.930 . S
C3198 H3184 0.930 . S
C3198 C3196 1.395 . S
C3198 C3201 1.403 . S
C3199 C3196 1.403 . S
C3199 C3200 1.524 . S
C3199 C3203 1.400 . S
C3200 H3185 0.960 . S
C3200 H3186 0.960 . S
C3200 H3187 0.960 . S
C3200 C3199 1.524 . S
C3201 C3198 1.403 . S
C3201 C3202 1.392 . S
C3201 C3205 1.495 . S
C3202 C3201 1.392 . S
C3202 C3203 1.385 . S
C3202 C3204 1.478 . S
C3203 H3197 0.930 . S
C3203 C3199 1.400 . S
C3203 C3202 1.385 . S
C3204 C3202 1.478 . S
C3204 C3206 1.381 . S
C3204 C3210 1.383 . S
C3205 C3201 1.495 . S
C3205 H3211 0.959 . S
C3205 H3212 0.961 1_655 S
C3205 H3213 0.960 . S
C3206 C3204 1.381 . S
C3206 C3207 1.394 1_655 S
C3206 H3214 0.930 . S
C3207 C3206 1.394 1_455 S
C3207 C3208 1.383 . S
C3207 H3215 0.929 . S
C3208 C3207 1.383 . S
C3208 C3209 1.377 . S
C3209 H3193 0.930 . S
C3209 C3208 1.377 . S
C3209 C3210 1.379 1_455 S
C3210 H3194 0.931 . S
C3210 C3204 1.383 . S
C3210 C3209 1.379 1_655 S
H3211 C3205 0.959 . S
H3212 C3205 0.961 1_455 S
H3213 C3205 0.960 . S
H3214 C3206 0.930 . S
H3215 C3207 0.929 . S
H3216 C3224 0.929 . S
H3217 C3226 0.930 . S
H3218 C3228 0.930 . S
H3219 C3231 0.929 . S
H3220 C3234 0.930 . S
H3221 C3236 0.960 . S
H3222 C3236 0.960 . S
H3223 C3236 0.960 . S
C3224 H3216 0.929 . S
C3224 C3225 1.377 . S
C3224 C3226 1.384 . S
C3225 C3224 1.377 . S
C3225 C3231 1.390 . S
C3226 H3217 0.930 . S
C3226 C3224 1.384 . S
C3226 C3227 1.372 . S
C3227 C3226 1.372 . S
C3227 C3228 1.400 . S
C3227 C3232 1.490 . S
C3228 H3218 0.930 . S
C3228 C3227 1.400 . S
C3228 C3231 1.386 . S
H3229 C3245 0.930 . S
H3230 C3246 0.931 . S
C3231 H3219 0.929 . S
C3231 C3225 1.390 . S
C3231 C3228 1.386 . S
C3232 C3227 1.490 . S
C3232 C3234 1.395 . S
C3232 C3235 1.403 . S
H3233 C3239 0.930 . S
C3234 H3220 0.930 . S
C3234 C3232 1.395 . S
C3234 C3237 1.403 . S
C3235 C3232 1.403 . S
C3235 C3236 1.524 . S
C3235 C3239 1.400 . S
C3236 H3221 0.960 . S
C3236 H3222 0.960 . S
C3236 H3223 0.960 . S
C3236 C3235 1.524 . S
C3237 C3234 1.403 . S
C3237 C3238 1.392 . S
C3237 C3241 1.495 . S
C3238 C3237 1.392 . S
C3238 C3239 1.385 . S
C3238 C3240 1.478 . S
C3239 H3233 0.930 . S
C3239 C3235 1.400 . S
C3239 C3238 1.385 . S
C3240 C3238 1.478 . S
C3240 C3242 1.381 . S
C3240 C3246 1.383 . S
C3241 C3237 1.495 . S
C3241 H3247 0.959 . S
C3241 H3248 0.961 . S
C3241 H3249 0.960 . S
C3242 C3240 1.381 . S
C3242 C3243 1.394 . S
C3242 H3250 0.930 . S
C3243 C3242 1.394 . S
C3243 C3244 1.383 . S
C3243 H3251 0.929 . S
C3244 C3243 1.383 . S
C3244 C3245 1.377 . S
C3245 H3229 0.930 . S
C3245 C3244 1.377 . S
C3245 C3246 1.379 . S
C3246 H3230 0.931 . S
C3246 C3240 1.383 . S
C3246 C3245 1.379 . S
H3247 C3241 0.959 . S
H3248 C3241 0.961 . S
H3249 C3241 0.960 . S
H3250 C3242 0.930 . S
H3251 C3243 0.929 . S
H3252 C3260 0.929 . S
H3253 C3262 0.930 . S
H3254 C3264 0.930 . S
H3255 C3267 0.929 . S
H3256 C3270 0.930 . S
H3257 C3272 0.960 . S
H3258 C3272 0.960 . S
H3259 C3272 0.960 . S
C3260 H3252 0.929 . S
C3260 C3261 1.377 . S
C3260 C3262 1.384 . S
C3261 C3260 1.377 . S
C3261 C3267 1.390 . S
C3262 H3253 0.930 . S
C3262 C3260 1.384 . S
C3262 C3263 1.372 . S
C3263 C3262 1.372 . S
C3263 C3264 1.400 . S
C3263 C3268 1.490 . S
C3264 H3254 0.930 . S
C3264 C3263 1.400 . S
C3264 C3267 1.386 . S
H3265 C3281 0.930 . S
H3266 C3282 0.931 . S
C3267 H3255 0.929 . S
C3267 C3261 1.390 . S
C3267 C3264 1.386 . S
C3268 C3263 1.490 . S
C3268 C3270 1.395 . S
C3268 C3271 1.403 . S
H3269 C3275 0.930 . S
C3270 H3256 0.930 . S
C3270 C3268 1.395 . S
C3270 C3273 1.403 . S
C3271 C3268 1.403 . S
C3271 C3272 1.524 . S
C3271 C3275 1.400 . S
C3272 H3257 0.960 . S
C3272 H3258 0.960 . S
C3272 H3259 0.960 . S
C3272 C3271 1.524 . S
C3273 C3270 1.403 . S
C3273 C3274 1.392 . S
C3273 C3277 1.495 . S
C3274 C3273 1.392 . S
C3274 C3275 1.385 . S
C3274 C3276 1.478 . S
C3275 H3269 0.930 . S
C3275 C3271 1.400 . S
C3275 C3274 1.385 . S
C3276 C3274 1.478 . S
C3276 C3278 1.381 . S
C3276 C3282 1.383 . S
C3277 C3273 1.495 . S
C3277 H3283 0.959 . S
C3277 H3284 0.961 . S
C3277 H3285 0.960 . S
C3278 C3276 1.381 . S
C3278 C3279 1.394 1_655 S
C3278 H3286 0.930 . S
C3279 C3278 1.394 1_455 S
C3279 C3280 1.383 . S
C3279 H3287 0.929 . S
C3280 C3279 1.383 . S
C3280 C3281 1.377 . S
C3281 H3265 0.930 . S
C3281 C3280 1.377 . S
C3281 C3282 1.379 1_455 S
C3282 H3266 0.931 . S
C3282 C3276 1.383 . S
C3282 C3281 1.379 1_655 S
H3283 C3277 0.959 . S
H3284 C3277 0.961 . S
H3285 C3277 0.960 . S
H3286 C3278 0.930 . S
H3287 C3279 0.929 . S
H3288 C3296 0.929 . S
H3289 C3298 0.930 . S
H3290 C3300 0.930 . S
H3291 C3303 0.929 . S
H3292 C3306 0.930 . S
H3293 C3308 0.960 . S
H3294 C3308 0.960 . S
H3295 C3308 0.960 . S
C3296 H3288 0.929 . S
C3296 C3297 1.377 . S
C3296 C3298 1.384 . S
C3297 C3296 1.377 . S
C3297 C3303 1.390 . S
C3298 H3289 0.930 . S
C3298 C3296 1.384 . S
C3298 C3299 1.372 . S
C3299 C3298 1.372 . S
C3299 C3300 1.400 . S
C3299 C3304 1.490 . S
C3300 H3290 0.930 . S
C3300 C3299 1.400 . S
C3300 C3303 1.386 . S
H3301 C3317 0.930 . S
H3302 C3318 0.931 . S
C3303 H3291 0.929 . S
C3303 C3297 1.390 . S
C3303 C3300 1.386 . S
C3304 C3299 1.490 . S
C3304 C3306 1.395 . S
C3304 C3307 1.403 . S
H3305 C3311 0.930 . S
C3306 H3292 0.930 . S
C3306 C3304 1.395 . S
C3306 C3309 1.403 . S
C3307 C3304 1.403 . S
C3307 C3308 1.524 . S
C3307 C3311 1.400 . S
C3308 H3293 0.960 . S
C3308 H3294 0.960 . S
C3308 H3295 0.960 . S
C3308 C3307 1.524 . S
C3309 C3306 1.403 . S
C3309 C3310 1.392 . S
C3309 C3313 1.495 . S
C3310 C3309 1.392 . S
C3310 C3311 1.385 . S
C3310 C3312 1.478 . S
C3311 H3305 0.930 . S
C3311 C3307 1.400 . S
C3311 C3310 1.385 . S
C3312 C3310 1.478 . S
C3312 C3314 1.381 . S
C3312 C3318 1.383 . S
C3313 C3309 1.495 . S
C3313 H3319 0.959 . S
C3313 H3320 0.961 . S
C3313 H3321 0.960 . S
C3314 C3312 1.381 . S
C3314 C3315 1.394 . S
C3314 H3322 0.930 . S
C3315 C3314 1.394 . S
C3315 C3316 1.383 . S
C3315 H3323 0.929 . S
C3316 C3315 1.383 . S
C3316 C3317 1.377 . S
C3317 H3301 0.930 . S
C3317 C3316 1.377 . S
C3317 C3318 1.379 . S
C3318 H3302 0.931 . S
C3318 C3312 1.383 . S
C3318 C3317 1.379 . S
H3319 C3313 0.959 . S
H3320 C3313 0.961 . S
H3321 C3313 0.960 . S
H3322 C3314 0.930 . S
H3323 C3315 0.929 . S
H3324 C3332 0.929 . S
H3325 C3334 0.930 . S
H3326 C3336 0.930 . S
H3327 C3339 0.929 . S
H3328 C3342 0.930 . S
H3329 C3344 0.960 . S
H3330 C3344 0.960 . S
H3331 C3344 0.960 . S
C3332 H3324 0.929 . S
C3332 C3333 1.377 . S
C3332 C3334 1.384 . S
C3333 C3332 1.377 . S
C3333 C3339 1.390 . S
C3334 H3325 0.930 . S
C3334 C3332 1.384 . S
C3334 C3335 1.372 . S
C3335 C3334 1.372 . S
C3335 C3336 1.400 . S
C3335 C3340 1.490 . S
C3336 H3326 0.930 . S
C3336 C3335 1.400 . S
C3336 C3339 1.386 . S
H3337 C3353 0.930 . S
H3338 C3354 0.931 . S
C3339 H3327 0.929 . S
C3339 C3333 1.390 . S
C3339 C3336 1.386 . S
C3340 C3335 1.490 . S
C3340 C3342 1.395 . S
C3340 C3343 1.403 . S
H3341 C3347 0.930 . S
C3342 H3328 0.930 . S
C3342 C3340 1.395 . S
C3342 C3345 1.403 . S
C3343 C3340 1.403 . S
C3343 C3344 1.524 . S
C3343 C3347 1.400 . S
C3344 H3329 0.960 . S
C3344 H3330 0.960 . S
C3344 H3331 0.960 . S
C3344 C3343 1.524 . S
C3345 C3342 1.403 . S
C3345 C3346 1.392 . S
C3345 C3349 1.495 . S
C3346 C3345 1.392 . S
C3346 C3347 1.385 . S
C3346 C3348 1.478 . S
C3347 H3341 0.930 . S
C3347 C3343 1.400 . S
C3347 C3346 1.385 . S
C3348 C3346 1.478 . S
C3348 C3350 1.381 . S
C3348 C3354 1.383 . S
C3349 C3345 1.495 . S
C3349 H3355 0.959 . S
C3349 H3356 0.961 . S
C3349 H3357 0.960 . S
C3350 C3348 1.381 . S
C3350 C3351 1.394 . S
C3350 H3358 0.930 . S
C3351 C3350 1.394 . S
C3351 C3352 1.383 . S
C3351 H3359 0.929 . S
C3352 C3351 1.383 . S
C3352 C3353 1.377 . S
C3353 H3337 0.930 . S
C3353 C3352 1.377 . S
C3353 C3354 1.379 . S
C3354 H3338 0.931 . S
C3354 C3348 1.383 . S
C3354 C3353 1.379 . S
H3355 C3349 0.959 . S
H3356 C3349 0.961 . S
H3357 C3349 0.960 . S
H3358 C3350 0.930 . S
H3359 C3351 0.929 . S
H3360 C3368 0.929 . S
H3361 C3370 0.930 . S
H3362 C3372 0.930 . S
H3363 C3375 0.929 . S
H3364 C3378 0.930 . S
H3365 C3380 0.960 . S
H3366 C3380 0.960 . S
H3367 C3380 0.960 . S
C3368 H3360 0.929 . S
C3368 C3369 1.377 . S
C3368 C3370 1.384 . S
C3369 C3368 1.377 . S
C3369 C3375 1.390 . S
C3370 H3361 0.930 . S
C3370 C3368 1.384 . S
C3370 C3371 1.372 . S
C3371 C3370 1.372 . S
C3371 C3372 1.400 . S
C3371 C3376 1.490 . S
C3372 H3362 0.930 . S
C3372 C3371 1.400 . S
C3372 C3375 1.386 . S
H3373 C3389 0.930 . S
H3374 C3390 0.931 . S
C3375 H3363 0.929 . S
C3375 C3369 1.390 . S
C3375 C3372 1.386 . S
C3376 C3371 1.490 . S
C3376 C3378 1.395 . S
C3376 C3379 1.403 . S
H3377 C3383 0.930 . S
C3378 H3364 0.930 . S
C3378 C3376 1.395 . S
C3378 C3381 1.403 . S
C3379 C3376 1.403 . S
C3379 C3380 1.524 . S
C3379 C3383 1.400 . S
C3380 H3365 0.960 . S
C3380 H3366 0.960 . S
C3380 H3367 0.960 . S
C3380 C3379 1.524 . S
C3381 C3378 1.403 . S
C3381 C3382 1.392 . S
C3381 C3385 1.495 . S
C3382 C3381 1.392 . S
C3382 C3383 1.385 . S
C3382 C3384 1.478 . S
C3383 H3377 0.930 . S
C3383 C3379 1.400 . S
C3383 C3382 1.385 . S
C3384 C3382 1.478 . S
C3384 C3386 1.381 . S
C3384 C3390 1.383 . S
C3385 C3381 1.495 . S
C3385 H3391 0.959 . S
C3385 H3392 0.961 . S
C3385 H3393 0.960 . S
C3386 C3384 1.381 . S
C3386 C3387 1.394 . S
C3386 H3394 0.930 . S
C3387 C3386 1.394 . S
C3387 C3388 1.383 . S
C3387 H3395 0.929 . S
C3388 C3387 1.383 . S
C3388 C3389 1.377 . S
C3389 H3373 0.930 . S
C3389 C3388 1.377 . S
C3389 C3390 1.379 . S
C3390 H3374 0.931 . S
C3390 C3384 1.383 . S
C3390 C3389 1.379 . S
H3391 C3385 0.959 . S
H3392 C3385 0.961 . S
H3393 C3385 0.960 . S
H3394 C3386 0.930 . S
H3395 C3387 0.929 . S
H3396 C3404 0.929 . S
H3397 C3406 0.930 . S
H3398 C3408 0.930 . S
H3399 C3411 0.929 . S
H3400 C3414 0.930 . S
H3401 C3416 0.960 . S
H3402 C3416 0.960 . S
H3403 C3416 0.960 1_565 S
C3404 H3396 0.929 . S
C3404 C3405 1.377 . S
C3404 C3406 1.384 . S
C3405 C3404 1.377 . S
C3405 C3411 1.390 . S
C3406 H3397 0.930 . S
C3406 C3404 1.384 . S
C3406 C3407 1.372 . S
C3407 C3406 1.372 . S
C3407 C3408 1.400 . S
C3407 C3412 1.490 . S
C3408 H3398 0.930 . S
C3408 C3407 1.400 . S
C3408 C3411 1.386 . S
H3409 C3425 0.930 . S
H3410 C3426 0.931 . S
C3411 H3399 0.929 . S
C3411 C3405 1.390 . S
C3411 C3408 1.386 . S
C3412 C3407 1.490 . S
C3412 C3414 1.395 1_455 S
C3412 C3415 1.403 1_565 S
H3413 C3419 0.930 . S
C3414 H3400 0.930 . S
C3414 C3412 1.395 1_655 S
C3414 C3417 1.403 . S
C3415 C3412 1.403 1_545 S
C3415 C3416 1.524 . S
C3415 C3419 1.400 . S
C3416 H3401 0.960 . S
C3416 H3402 0.960 . S
C3416 H3403 0.960 1_545 S
C3416 C3415 1.524 . S
C3417 C3414 1.403 . S
C3417 C3418 1.392 1_565 S
C3417 C3421 1.495 . S
C3418 C3417 1.392 1_545 S
C3418 C3419 1.385 1_655 S
C3418 C3420 1.478 . S
C3419 H3413 0.930 . S
C3419 C3415 1.400 . S
C3419 C3418 1.385 1_455 S
C3420 C3418 1.478 . S
C3420 C3422 1.381 . S
C3420 C3426 1.383 . S
C3421 C3417 1.495 . S
C3421 H3427 0.959 . S
C3421 H3428 0.961 . S
C3421 H3429 0.960 1_565 S
C3422 C3420 1.381 . S
C3422 C3423 1.394 . S
C3422 H3430 0.930 . S
C3423 C3422 1.394 . S
C3423 C3424 1.383 . S
C3423 H3431 0.929 . S
C3424 C3423 1.383 . S
C3424 C3425 1.377 . S
C3425 H3409 0.930 . S
C3425 C3424 1.377 . S
C3425 C3426 1.379 . S
C3426 H3410 0.931 . S
C3426 C3420 1.383 . S
C3426 C3425 1.379 . S
H3427 C3421 0.959 . S
H3428 C3421 0.961 . S
H3429 C3421 0.960 1_545 S
H3430 C3422 0.930 . S
H3431 C3423 0.929 . S
H3432 C3440 0.929 . S
H3433 C3442 0.930 . S
H3434 C3444 0.930 . S
H3435 C3447 0.929 . S
H3436 C3450 0.930 . S
H3437 C3452 0.960 . S
H3438 C3452 0.960 . S
H3439 C3452 0.960 . S
C3440 H3432 0.929 . S
C3440 C3441 1.377 . S
C3440 C3442 1.384 . S
C3441 C3440 1.377 . S
C3441 C3447 1.390 . S
C3442 H3433 0.930 . S
C3442 C3440 1.384 . S
C3442 C3443 1.372 . S
C3443 C3442 1.372 . S
C3443 C3444 1.400 . S
C3443 C3448 1.490 . S
C3444 H3434 0.930 . S
C3444 C3443 1.400 . S
C3444 C3447 1.386 . S
H3445 C3461 0.930 . S
H3446 C3462 0.931 . S
C3447 H3435 0.929 . S
C3447 C3441 1.390 . S
C3447 C3444 1.386 . S
C3448 C3443 1.490 . S
C3448 C3450 1.395 . S
C3448 C3451 1.403 . S
H3449 C3455 0.930 . S
C3450 H3436 0.930 . S
C3450 C3448 1.395 . S
C3450 C3453 1.403 . S
C3451 C3448 1.403 . S
C3451 C3452 1.524 . S
C3451 C3455 1.400 . S
C3452 H3437 0.960 . S
C3452 H3438 0.960 . S
C3452 H3439 0.960 . S
C3452 C3451 1.524 . S
C3453 C3450 1.403 . S
C3453 C3454 1.392 . S
C3453 C3457 1.495 . S
C3454 C3453 1.392 . S
C3454 C3455 1.385 . S
C3454 C3456 1.478 . S
C3455 H3449 0.930 . S
C3455 C3451 1.400 . S
C3455 C3454 1.385 . S
C3456 C3454 1.478 . S
C3456 C3458 1.381 . S
C3456 C3462 1.383 . S
C3457 C3453 1.495 . S
C3457 H3463 0.959 . S
C3457 H3464 0.961 . S
C3457 H3465 0.960 . S
C3458 C3456 1.381 . S
C3458 C3459 1.394 . S
C3458 H3466 0.930 . S
C3459 C3458 1.394 . S
C3459 C3460 1.383 . S
C3459 H3467 0.929 . S
C3460 C3459 1.383 . S
C3460 C3461 1.377 . S
C3461 H3445 0.930 . S
C3461 C3460 1.377 . S
C3461 C3462 1.379 . S
C3462 H3446 0.931 . S
C3462 C3456 1.383 . S
C3462 C3461 1.379 . S
H3463 C3457 0.959 . S
H3464 C3457 0.961 . S
H3465 C3457 0.960 . S
H3466 C3458 0.930 . S
H3467 C3459 0.929 . S
H3468 C3476 0.929 . S
H3469 C3478 0.930 . S
H3470 C3480 0.930 . S
H3471 C3483 0.929 . S
H3472 C3486 0.930 . S
H3473 C3488 0.960 . S
H3474 C3488 0.960 . S
H3475 C3488 0.960 1_564 S
C3476 H3468 0.929 . S
C3476 C3477 1.377 . S
C3476 C3478 1.384 . S
C3477 C3476 1.377 . S
C3477 C3483 1.390 1_556 S
C3478 H3469 0.930 . S
C3478 C3476 1.384 . S
C3478 C3479 1.372 . S
C3479 C3478 1.372 . S
C3479 C3480 1.400 1_556 S
C3479 C3484 1.490 . S
C3480 H3470 0.930 . S
C3480 C3479 1.400 1_554 S
C3480 C3483 1.386 . S
H3481 C3497 0.930 . S
H3482 C3498 0.931 . S
C3483 H3471 0.929 . S
C3483 C3477 1.390 1_554 S
C3483 C3480 1.386 . S
C3484 C3479 1.490 . S
C3484 C3486 1.395 . S
C3484 C3487 1.403 1_565 S
H3485 C3491 0.930 . S
C3486 H3472 0.930 . S
C3486 C3484 1.395 . S
C3486 C3489 1.404 . S
C3487 C3484 1.403 1_545 S
C3487 C3488 1.524 . S
C3487 C3491 1.400 1_556 S
C3488 H3473 0.960 . S
C3488 H3474 0.960 . S
C3488 H3475 0.960 1_546 S
C3488 C3487 1.524 . S
C3489 C3486 1.404 . S
C3489 C3490 1.392 1_566 S
C3489 C3493 1.494 1_556 S
C3490 C3489 1.392 1_544 S
C3490 C3491 1.385 . S
C3490 C3492 1.478 . S
C3491 H3485 0.930 . S
C3491 C3487 1.400 1_554 S
C3491 C3490 1.385 . S
C3492 C3490 1.478 . S
C3492 C3494 1.381 1_554 S
C3492 C3498 1.383 . S
C3493 C3489 1.494 1_554 S
C3493 H3499 0.953 1_554 S
C3493 H3500 0.999 . S
C3493 H3501 0.904 1_564 S
C3494 C3492 1.381 1_556 S
C3494 C3495 1.394 . S
C3494 H3502 0.930 . S
C3495 C3494 1.394 . S
C3495 C3496 1.383 1_556 S
C3495 H3503 0.929 . S
C3496 C3495 1.383 1_554 S
C3496 C3497 1.377 . S
C3497 H3481 0.930 . S
C3497 C3496 1.377 . S
C3497 C3498 1.379 . S
C3498 H3482 0.931 . S
C3498 C3492 1.383 . S
C3498 C3497 1.379 . S
H3499 C3493 0.953 1_556 S
H3500 C3493 0.999 . S
H3501 C3493 0.904 1_546 S
H3502 C3494 0.930 . S
H3503 C3495 0.929 . S
H3504 C3512 0.929 . S
H3505 C3514 0.930 . S
H3506 C3516 0.930 . S
H3507 C3519 0.929 . S
H3508 C3522 0.930 . S
H3509 C3524 0.960 . S
H3510 C3524 0.960 . S
H3511 C3524 0.960 . S
C3512 H3504 0.929 . S
C3512 C3513 1.377 . S
C3512 C3514 1.384 . S
C3513 C3512 1.377 . S
C3513 C3519 1.390 . S
C3514 H3505 0.930 . S
C3514 C3512 1.384 . S
C3514 C3515 1.372 . S
C3515 C3514 1.372 . S
C3515 C3516 1.400 . S
C3515 C3520 1.490 . S
C3516 H3506 0.930 . S
C3516 C3515 1.400 . S
C3516 C3519 1.386 . S
H3517 C3533 0.930 . S
H3518 C3534 0.931 . S
C3519 H3507 0.929 . S
C3519 C3513 1.390 . S
C3519 C3516 1.386 . S
C3520 C3515 1.490 . S
C3520 C3522 1.395 . S
C3520 C3523 1.403 . S
H3521 C3527 0.930 . S
C3522 H3508 0.930 . S
C3522 C3520 1.395 . S
C3522 C3525 1.403 . S
C3523 C3520 1.403 . S
C3523 C3524 1.524 . S
C3523 C3527 1.400 . S
C3524 H3509 0.960 . S
C3524 H3510 0.960 . S
C3524 H3511 0.960 . S
C3524 C3523 1.524 . S
C3525 C3522 1.403 . S
C3525 C3526 1.392 . S
C3525 C3529 1.495 . S
C3526 C3525 1.392 . S
C3526 C3527 1.385 . S
C3526 C3528 1.478 . S
C3527 H3521 0.930 . S
C3527 C3523 1.400 . S
C3527 C3526 1.385 . S
C3528 C3526 1.478 . S
C3528 C3530 1.381 . S
C3528 C3534 1.383 . S
C3529 C3525 1.495 . S
C3529 H3535 0.959 . S
C3529 H3536 0.961 . S
C3529 H3537 0.960 . S
C3530 C3528 1.381 . S
C3530 C3531 1.394 . S
C3530 H3538 0.930 . S
C3531 C3530 1.394 . S
C3531 C3532 1.383 . S
C3531 H3539 0.929 . S
C3532 C3531 1.383 . S
C3532 C3533 1.377 . S
C3533 H3517 0.930 . S
C3533 C3532 1.377 . S
C3533 C3534 1.379 . S
C3534 H3518 0.931 . S
C3534 C3528 1.383 . S
C3534 C3533 1.379 . S
H3535 C3529 0.959 . S
H3536 C3529 0.961 . S
H3537 C3529 0.960 . S
H3538 C3530 0.930 . S
H3539 C3531 0.929 . S
H3540 C3548 0.929 . S
H3541 C3550 0.930 . S
H3542 C3552 0.930 . S
H3543 C3555 0.929 . S
H3544 C3558 0.930 . S
H3545 C3560 0.960 . S
H3546 C3560 0.960 . S
H3547 C3560 0.960 . S
C3548 H3540 0.929 . S
C3548 C3549 1.377 . S
C3548 C3550 1.384 . S
C3549 C3548 1.377 . S
C3549 C3555 1.390 . S
C3550 H3541 0.930 . S
C3550 C3548 1.384 . S
C3550 C3551 1.372 . S
C3551 C3550 1.372 . S
C3551 C3552 1.400 . S
C3551 C3556 1.490 . S
C3552 H3542 0.930 . S
C3552 C3551 1.400 . S
C3552 C3555 1.386 . S
H3553 C3569 0.930 . S
H3554 C3570 0.931 . S
C3555 H3543 0.929 . S
C3555 C3549 1.390 . S
C3555 C3552 1.386 . S
C3556 C3551 1.490 . S
C3556 C3558 1.395 1_545 S
C3556 C3559 1.403 . S
H3557 C3563 0.930 . S
C3558 H3544 0.930 . S
C3558 C3556 1.395 1_565 S
C3558 C3561 1.403 . S
C3559 C3556 1.403 . S
C3559 C3560 1.524 . S
C3559 C3563 1.400 1_545 S
C3560 H3545 0.960 . S
C3560 H3546 0.960 . S
C3560 H3547 0.960 . S
C3560 C3559 1.524 . S
C3561 C3558 1.403 . S
C3561 C3562 1.392 . S
C3561 C3565 1.495 . S
C3562 C3561 1.392 . S
C3562 C3563 1.385 . S
C3562 C3564 1.478 . S
C3563 H3557 0.930 . S
C3563 C3559 1.400 1_565 S
C3563 C3562 1.385 . S
C3564 C3562 1.478 . S
C3564 C3566 1.381 . S
C3564 C3570 1.383 . S
C3565 C3561 1.495 . S
C3565 H3571 0.959 . S
C3565 H3572 0.961 . S
C3565 H3573 0.960 . S
C3566 C3564 1.381 . S
C3566 C3567 1.394 . S
C3566 H3574 0.930 . S
C3567 C3566 1.394 . S
C3567 C3568 1.383 . S
C3567 H3575 0.929 . S
C3568 C3567 1.383 . S
C3568 C3569 1.377 . S
C3569 H3553 0.930 . S
C3569 C3568 1.377 . S
C3569 C3570 1.379 . S
C3570 H3554 0.931 . S
C3570 C3564 1.383 . S
C3570 C3569 1.379 . S
H3571 C3565 0.959 . S
H3572 C3565 0.961 . S
H3573 C3565 0.960 . S
H3574 C3566 0.930 . S
H3575 C3567 0.929 . S
H3576 C3584 0.929 . S
H3577 C3586 0.930 . S
H3578 C3588 0.930 . S
H3579 C3591 0.929 . S
H3580 C3594 0.930 . S
H3581 C3596 0.960 . S
H3582 C3596 0.960 . S
H3583 C3596 0.960 . S
C3584 H3576 0.929 . S
C3584 C3585 1.377 . S
C3584 C3586 1.384 . S
C3585 C3584 1.377 . S
C3585 C3591 1.390 . S
C3586 H3577 0.930 . S
C3586 C3584 1.384 . S
C3586 C3587 1.372 . S
C3587 C3586 1.372 . S
C3587 C3588 1.400 . S
C3587 C3592 1.490 . S
C3588 H3578 0.930 . S
C3588 C3587 1.400 . S
C3588 C3591 1.386 . S
H3589 C3605 0.930 . S
H3590 C3606 0.931 . S
C3591 H3579 0.929 . S
C3591 C3585 1.390 . S
C3591 C3588 1.386 . S
C3592 C3587 1.490 . S
C3592 C3594 1.395 . S
C3592 C3595 1.403 . S
H3593 C3599 0.930 . S
C3594 H3580 0.930 . S
C3594 C3592 1.395 . S
C3594 C3597 1.403 . S
C3595 C3592 1.403 . S
C3595 C3596 1.524 . S
C3595 C3599 1.400 . S
C3596 H3581 0.960 . S
C3596 H3582 0.960 . S
C3596 H3583 0.960 . S
C3596 C3595 1.524 . S
C3597 C3594 1.403 . S
C3597 C3598 1.392 . S
C3597 C3601 1.495 . S
C3598 C3597 1.392 . S
C3598 C3599 1.385 . S
C3598 C3600 1.478 . S
C3599 H3593 0.930 . S
C3599 C3595 1.400 . S
C3599 C3598 1.385 . S
C3600 C3598 1.478 . S
C3600 C3602 1.381 . S
C3600 C3606 1.383 . S
C3601 C3597 1.495 . S
C3601 H3607 0.959 . S
C3601 H3608 0.961 . S
C3601 H3609 0.960 . S
C3602 C3600 1.381 . S
C3602 C3603 1.394 . S
C3602 H3610 0.930 . S
C3603 C3602 1.394 . S
C3603 C3604 1.383 . S
C3603 H3611 0.929 . S
C3604 C3603 1.383 . S
C3604 C3605 1.377 . S
C3605 H3589 0.930 . S
C3605 C3604 1.377 . S
C3605 C3606 1.379 . S
C3606 H3590 0.931 . S
C3606 C3600 1.383 . S
C3606 C3605 1.379 . S
H3607 C3601 0.959 . S
H3608 C3601 0.961 . S
H3609 C3601 0.960 . S
H3610 C3602 0.930 . S
H3611 C3603 0.929 . S
H3612 C3620 0.929 . S
H3613 C3622 0.930 . S
H3614 C3624 0.930 . S
H3615 C3627 0.929 . S
H3616 C3630 0.930 . S
H3617 C3632 0.960 . S
H3618 C3632 0.960 . S
H3619 C3632 0.960 . S
C3620 H3612 0.929 . S
C3620 C3621 1.377 1_556 S
C3620 C3622 1.384 . S
C3621 C3620 1.377 1_554 S
C3621 C3627 1.390 . S
C3622 H3613 0.930 . S
C3622 C3620 1.384 . S
C3622 C3623 1.372 1_556 S
C3623 C3622 1.372 1_554 S
C3623 C3624 1.400 . S
C3623 C3628 1.490 . S
C3624 H3614 0.930 . S
C3624 C3623 1.400 . S
C3624 C3627 1.386 . S
H3625 C3641 0.930 . S
H3626 C3642 0.931 . S
C3627 H3615 0.929 . S
C3627 C3621 1.390 . S
C3627 C3624 1.386 . S
C3628 C3623 1.490 . S
C3628 C3630 1.395 1_554 S
C3628 C3631 1.403 1_655 S
H3629 C3635 0.930 . S
C3630 H3616 0.930 . S
C3630 C3628 1.395 1_556 S
C3630 C3633 1.403 1_565 S
C3631 C3628 1.403 1_455 S
C3631 C3632 1.524 . S
C3631 C3635 1.400 1_565 S
C3632 H3617 0.960 . S
C3632 H3618 0.960 . S
C3632 H3619 0.960 . S
C3632 C3631 1.524 . S
C3633 C3630 1.403 1_545 S
C3633 C3634 1.392 1_655 S
C3633 C3637 1.495 . S
C3634 C3633 1.392 1_455 S
C3634 C3635 1.385 1_556 S
C3634 C3636 1.478 . S
C3635 H3629 0.930 . S
C3635 C3631 1.400 1_545 S
C3635 C3634 1.385 1_554 S
C3636 C3634 1.478 . S
C3636 C3638 1.381 . S
C3636 C3642 1.383 1_556 S
C3637 C3633 1.495 . S
C3637 H3643 0.959 . S
C3637 H3644 0.961 . S
C3637 H3645 0.960 . S
C3638 C3636 1.381 . S
C3638 C3639 1.394 . S
C3638 H3646 0.930 . S
C3639 C3638 1.394 . S
C3639 C3640 1.383 . S
C3639 H3647 0.929 . S
C3640 C3639 1.383 . S
C3640 C3641 1.377 1_556 S
C3641 H3625 0.930 . S
C3641 C3640 1.377 1_554 S
C3641 C3642 1.379 . S
C3642 H3626 0.931 . S
C3642 C3636 1.383 1_554 S
C3642 C3641 1.379 . S
H3643 C3637 0.959 . S
H3644 C3637 0.961 . S
H3645 C3637 0.960 . S
H3646 C3638 0.930 . S
H3647 C3639 0.929 . S
H3648 C3656 0.929 . S
H3649 C3658 0.930 . S
H3650 C3660 0.930 . S
H3651 C3663 0.929 . S
H3652 C3666 0.930 . S
H3653 C3668 0.960 . S
H3654 C3668 0.960 . S
H3655 C3668 0.960 . S
C3656 H3648 0.929 . S
C3656 C3657 1.377 . S
C3656 C3658 1.384 . S
C3657 C3656 1.377 . S
C3657 C3663 1.390 . S
C3658 H3649 0.930 . S
C3658 C3656 1.384 . S
C3658 C3659 1.372 . S
C3659 C3658 1.372 . S
C3659 C3660 1.400 . S
C3659 C3664 1.490 . S
C3660 H3650 0.930 . S
C3660 C3659 1.400 . S
C3660 C3663 1.386 . S
H3661 C3677 0.930 . S
H3662 C3678 0.931 . S
C3663 H3651 0.929 . S
C3663 C3657 1.390 . S
C3663 C3660 1.386 . S
C3664 C3659 1.490 . S
C3664 C3666 1.395 . S
C3664 C3667 1.403 . S
H3665 C3671 0.930 . S
C3666 H3652 0.930 . S
C3666 C3664 1.395 . S
C3666 C3669 1.403 . S
C3667 C3664 1.403 . S
C3667 C3668 1.524 . S
C3667 C3671 1.400 . S
C3668 H3653 0.960 . S
C3668 H3654 0.960 . S
C3668 H3655 0.960 . S
C3668 C3667 1.524 . S
C3669 C3666 1.403 . S
C3669 C3670 1.392 . S
C3669 C3673 1.495 . S
C3670 C3669 1.392 . S
C3670 C3671 1.385 . S
C3670 C3672 1.478 . S
C3671 H3665 0.930 . S
C3671 C3667 1.400 . S
C3671 C3670 1.385 . S
C3672 C3670 1.478 . S
C3672 C3674 1.381 . S
C3672 C3678 1.383 . S
C3673 C3669 1.495 . S
C3673 H3679 0.959 . S
C3673 H3680 0.961 . S
C3673 H3681 0.960 . S
C3674 C3672 1.381 . S
C3674 C3675 1.394 . S
C3674 H3682 0.930 . S
C3675 C3674 1.394 . S
C3675 C3676 1.383 . S
C3675 H3683 0.929 . S
C3676 C3675 1.383 . S
C3676 C3677 1.377 . S
C3677 H3661 0.930 . S
C3677 C3676 1.377 . S
C3677 C3678 1.379 . S
C3678 H3662 0.931 . S
C3678 C3672 1.383 . S
C3678 C3677 1.379 . S
H3679 C3673 0.959 . S
H3680 C3673 0.961 . S
H3681 C3673 0.960 . S
H3682 C3674 0.930 . S
H3683 C3675 0.929 . S
H3684 C3692 0.929 . S
H3685 C3694 0.930 . S
H3686 C3696 0.930 . S
H3687 C3699 0.929 . S
H3688 C3702 0.930 . S
H3689 C3704 0.960 . S
H3690 C3704 0.960 . S
H3691 C3704 0.960 . S
C3692 H3684 0.929 . S
C3692 C3693 1.377 . S
C3692 C3694 1.384 . S
C3693 C3692 1.377 . S
C3693 C3699 1.390 . S
C3694 H3685 0.930 . S
C3694 C3692 1.384 . S
C3694 C3695 1.372 . S
C3695 C3694 1.372 . S
C3695 C3696 1.400 . S
C3695 C3700 1.490 . S
C3696 H3686 0.930 . S
C3696 C3695 1.400 . S
C3696 C3699 1.386 . S
H3697 C3713 0.930 . S
H3698 C3714 0.931 . S
C3699 H3687 0.929 . S
C3699 C3693 1.390 . S
C3699 C3696 1.386 . S
C3700 C3695 1.490 . S
C3700 C3702 1.395 . S
C3700 C3703 1.403 . S
H3701 C3707 0.930 . S
C3702 H3688 0.930 . S
C3702 C3700 1.395 . S
C3702 C3705 1.403 . S
C3703 C3700 1.403 . S
C3703 C3704 1.524 . S
C3703 C3707 1.400 . S
C3704 H3689 0.960 . S
C3704 H3690 0.960 . S
C3704 H3691 0.960 . S
C3704 C3703 1.524 . S
C3705 C3702 1.403 . S
C3705 C3706 1.392 . S
C3705 C3709 1.495 . S
C3706 C3705 1.392 . S
C3706 C3707 1.385 . S
C3706 C3708 1.478 . S
C3707 H3701 0.930 . S
C3707 C3703 1.400 . S
C3707 C3706 1.385 . S
C3708 C3706 1.478 . S
C3708 C3710 1.381 . S
C3708 C3714 1.383 . S
C3709 C3705 1.495 . S
C3709 H3715 0.959 . S
C3709 H3716 0.961 . S
C3709 H3717 0.960 . S
C3710 C3708 1.381 . S
C3710 C3711 1.394 . S
C3710 H3718 0.930 . S
C3711 C3710 1.394 . S
C3711 C3712 1.383 . S
C3711 H3719 0.929 . S
C3712 C3711 1.383 . S
C3712 C3713 1.377 . S
C3713 H3697 0.930 . S
C3713 C3712 1.377 . S
C3713 C3714 1.379 . S
C3714 H3698 0.931 . S
C3714 C3708 1.383 . S
C3714 C3713 1.379 . S
H3715 C3709 0.959 . S
H3716 C3709 0.961 . S
H3717 C3709 0.960 . S
H3718 C3710 0.930 . S
H3719 C3711 0.929 . S
H3720 C3728 0.929 . S
H3721 C3730 0.930 . S
H3722 C3732 0.930 . S
H3723 C3735 0.929 . S
H3724 C3738 0.930 . S
H3725 C3740 0.960 . S
H3726 C3740 0.960 . S
H3727 C3740 0.960 . S
C3728 H3720 0.929 . S
C3728 C3729 1.377 . S
C3728 C3730 1.384 . S
C3729 C3728 1.377 . S
C3729 C3735 1.390 . S
C3730 H3721 0.930 . S
C3730 C3728 1.384 . S
C3730 C3731 1.372 . S
C3731 C3730 1.372 . S
C3731 C3732 1.400 . S
C3731 C3736 1.490 . S
C3732 H3722 0.930 . S
C3732 C3731 1.400 . S
C3732 C3735 1.386 . S
H3733 C3749 0.930 . S
H3734 C3750 0.931 . S
C3735 H3723 0.929 . S
C3735 C3729 1.390 . S
C3735 C3732 1.386 . S
C3736 C3731 1.490 . S
C3736 C3738 1.395 . S
C3736 C3739 1.403 . S
H3737 C3743 0.930 . S
C3738 H3724 0.930 . S
C3738 C3736 1.395 . S
C3738 C3741 1.403 . S
C3739 C3736 1.403 . S
C3739 C3740 1.524 . S
C3739 C3743 1.400 . S
C3740 H3725 0.960 . S
C3740 H3726 0.960 . S
C3740 H3727 0.960 . S
C3740 C3739 1.524 . S
C3741 C3738 1.403 . S
C3741 C3742 1.392 . S
C3741 C3745 1.495 . S
C3742 C3741 1.392 . S
C3742 C3743 1.385 . S
C3742 C3744 1.478 . S
C3743 H3737 0.930 . S
C3743 C3739 1.400 . S
C3743 C3742 1.385 . S
C3744 C3742 1.478 . S
C3744 C3746 1.381 . S
C3744 C3750 1.383 . S
C3745 C3741 1.495 . S
C3745 H3751 0.959 . S
C3745 H3752 0.961 . S
C3745 H3753 0.960 . S
C3746 C3744 1.381 . S
C3746 C3747 1.394 . S
C3746 H3754 0.930 . S
C3747 C3746 1.394 . S
C3747 C3748 1.383 . S
C3747 H3755 0.929 . S
C3748 C3747 1.383 . S
C3748 C3749 1.377 . S
C3749 H3733 0.930 . S
C3749 C3748 1.377 . S
C3749 C3750 1.379 . S
C3750 H3734 0.931 . S
C3750 C3744 1.383 . S
C3750 C3749 1.379 . S
H3751 C3745 0.959 . S
H3752 C3745 0.961 . S
H3753 C3745 0.960 . S
H3754 C3746 0.930 . S
H3755 C3747 0.929 . S
H3756 C3764 0.929 . S
H3757 C3766 0.930 . S
H3758 C3768 0.930 . S
H3759 C3771 0.929 . S
H3760 C3774 0.930 . S
H3761 C3776 0.960 . S
H3762 C3776 0.960 . S
H3763 C3776 0.960 . S
C3764 H3756 0.929 . S
C3764 C3765 1.377 . S
C3764 C3766 1.384 . S
C3765 C3764 1.377 . S
C3765 C3771 1.390 . S
C3766 H3757 0.930 . S
C3766 C3764 1.384 . S
C3766 C3767 1.372 . S
C3767 C3766 1.372 . S
C3767 C3768 1.400 . S
C3767 C3772 1.490 . S
C3768 H3758 0.930 . S
C3768 C3767 1.400 . S
C3768 C3771 1.386 . S
H3769 C3785 0.930 . S
H3770 C3786 0.931 . S
C3771 H3759 0.929 . S
C3771 C3765 1.390 . S
C3771 C3768 1.386 . S
C3772 C3767 1.490 . S
C3772 C3774 1.395 . S
C3772 C3775 1.403 . S
H3773 C3779 0.930 . S
C3774 H3760 0.930 . S
C3774 C3772 1.395 . S
C3774 C3777 1.403 . S
C3775 C3772 1.403 . S
C3775 C3776 1.524 . S
C3775 C3779 1.400 . S
C3776 H3761 0.960 . S
C3776 H3762 0.960 . S
C3776 H3763 0.960 . S
C3776 C3775 1.524 . S
C3777 C3774 1.403 . S
C3777 C3778 1.392 . S
C3777 C3781 1.495 . S
C3778 C3777 1.392 . S
C3778 C3779 1.385 . S
C3778 C3780 1.478 . S
C3779 H3773 0.930 . S
C3779 C3775 1.400 . S
C3779 C3778 1.385 . S
C3780 C3778 1.478 . S
C3780 C3782 1.381 . S
C3780 C3786 1.383 . S
C3781 C3777 1.495 . S
C3781 H3787 0.959 . S
C3781 H3788 0.961 . S
C3781 H3789 0.960 . S
C3782 C3780 1.381 . S
C3782 C3783 1.394 . S
C3782 H3790 0.930 . S
C3783 C3782 1.394 . S
C3783 C3784 1.383 . S
C3783 H3791 0.929 . S
C3784 C3783 1.383 . S
C3784 C3785 1.377 . S
C3785 H3769 0.930 . S
C3785 C3784 1.377 . S
C3785 C3786 1.379 . S
C3786 H3770 0.931 . S
C3786 C3780 1.383 . S
C3786 C3785 1.379 . S
H3787 C3781 0.959 . S
H3788 C3781 0.961 . S
H3789 C3781 0.960 . S
H3790 C3782 0.930 . S
H3791 C3783 0.929 . S
H3792 C3800 0.929 . S
H3793 C3802 0.930 . S
H3794 C3804 0.930 . S
H3795 C3807 0.929 . S
H3796 C3810 0.930 . S
H3797 C3812 0.960 . S
H3798 C3812 0.960 1_554 S
H3799 C3812 0.960 . S
C3800 H3792 0.929 . S
C3800 C3801 1.377 1_554 S
C3800 C3802 1.384 . S
C3801 C3800 1.377 1_556 S
C3801 C3807 1.390 . S
C3802 H3793 0.930 . S
C3802 C3800 1.384 . S
C3802 C3803 1.372 1_554 S
C3803 C3802 1.372 1_556 S
C3803 C3804 1.400 . S
C3803 C3808 1.490 . S
C3804 H3794 0.930 . S
C3804 C3803 1.400 . S
C3804 C3807 1.386 . S
H3805 C3821 0.930 . S
H3806 C3822 0.931 . S
C3807 H3795 0.929 . S
C3807 C3801 1.390 . S
C3807 C3804 1.386 . S
C3808 C3803 1.490 . S
C3808 C3810 1.395 1_556 S
C3808 C3811 1.403 . S
H3809 C3815 0.930 . S
C3810 H3796 0.930 . S
C3810 C3808 1.395 1_554 S
C3810 C3813 1.403 . S
C3811 C3808 1.403 . S
C3811 C3812 1.524 . S
C3811 C3815 1.400 . S
C3812 H3797 0.960 . S
C3812 H3798 0.960 1_556 S
C3812 H3799 0.960 . S
C3812 C3811 1.524 . S
C3813 C3810 1.403 . S
C3813 C3814 1.392 . S
C3813 C3817 1.495 . S
C3814 C3813 1.392 . S
C3814 C3815 1.384 1_554 S
C3814 C3816 1.478 . S
C3815 H3809 0.930 . S
C3815 C3811 1.400 . S
C3815 C3814 1.384 1_556 S
C3816 C3814 1.478 . S
C3816 C3818 1.381 . S
C3816 C3822 1.383 1_554 S
C3817 C3813 1.495 . S
C3817 H3823 0.959 . S
C3817 H3824 0.961 . S
C3817 H3825 0.960 . S
C3818 C3816 1.381 . S
C3818 C3819 1.394 . S
C3818 H3826 0.930 . S
C3819 C3818 1.394 . S
C3819 C3820 1.383 . S
C3819 H3827 0.929 . S
C3820 C3819 1.383 . S
C3820 C3821 1.377 1_554 S
C3821 H3805 0.930 . S
C3821 C3820 1.377 1_556 S
C3821 C3822 1.379 . S
C3822 H3806 0.931 . S
C3822 C3816 1.383 1_556 S
C3822 C3821 1.379 . S
H3823 C3817 0.959 . S
H3824 C3817 0.961 . S
H3825 C3817 0.960 . S
H3826 C3818 0.930 . S
H3827 C3819 0.929 . S
H3828 C3836 0.929 . S
H3829 C3838 0.930 . S
H3830 C3840 0.930 . S
H3831 C3843 0.929 . S
H3832 C3846 0.930 . S
H3833 C3848 0.960 . S
H3834 C3848 0.960 . S
H3835 C3848 0.960 . S
C3836 H3828 0.929 . S
C3836 C3837 1.377 . S
C3836 C3838 1.384 . S
C3837 C3836 1.377 . S
C3837 C3843 1.390 . S
C3838 H3829 0.930 . S
C3838 C3836 1.384 . S
C3838 C3839 1.372 . S
C3839 C3838 1.372 . S
C3839 C3840 1.400 . S
C3839 C3844 1.490 . S
C3840 H3830 0.930 . S
C3840 C3839 1.400 . S
C3840 C3843 1.386 . S
H3841 C3857 0.930 . S
H3842 C3858 0.931 . S
C3843 H3831 0.929 . S
C3843 C3837 1.390 . S
C3843 C3840 1.386 . S
C3844 C3839 1.490 . S
C3844 C3846 1.395 . S
C3844 C3847 1.403 1_655 S
H3845 C3851 0.930 . S
C3846 H3832 0.930 . S
C3846 C3844 1.395 . S
C3846 C3849 1.403 . S
C3847 C3844 1.403 1_455 S
C3847 C3848 1.524 . S
C3847 C3851 1.400 . S
C3848 H3833 0.960 . S
C3848 H3834 0.960 . S
C3848 H3835 0.960 . S
C3848 C3847 1.524 . S
C3849 C3846 1.403 . S
C3849 C3850 1.392 1_655 S
C3849 C3853 1.495 . S
C3850 C3849 1.392 1_455 S
C3850 C3851 1.385 . S
C3850 C3852 1.478 . S
C3851 H3845 0.930 . S
C3851 C3847 1.400 . S
C3851 C3850 1.385 . S
C3852 C3850 1.478 . S
C3852 C3854 1.381 . S
C3852 C3858 1.383 . S
C3853 C3849 1.495 . S
C3853 H3859 0.959 . S
C3853 H3860 0.961 . S
C3853 H3861 0.960 . S
C3854 C3852 1.381 . S
C3854 C3855 1.394 . S
C3854 H3862 0.930 . S
C3855 C3854 1.394 . S
C3855 C3856 1.383 . S
C3855 H3863 0.929 . S
C3856 C3855 1.383 . S
C3856 C3857 1.377 . S
C3857 H3841 0.930 . S
C3857 C3856 1.377 . S
C3857 C3858 1.379 . S
C3858 H3842 0.931 . S
C3858 C3852 1.383 . S
C3858 C3857 1.379 . S
H3859 C3853 0.959 . S
H3860 C3853 0.961 . S
H3861 C3853 0.960 . S
H3862 C3854 0.930 . S
H3863 C3855 0.929 . S
H3864 C3872 0.929 . S
H3865 C3874 0.930 . S
H3866 C3876 0.930 . S
H3867 C3879 0.929 . S
H3868 C3882 0.930 . S
H3869 C3884 0.960 . S
H3870 C3884 0.960 . S
H3871 C3884 0.960 1_556 S
C3872 H3864 0.929 . S
C3872 C3873 1.377 . S
C3872 C3874 1.384 . S
C3873 C3872 1.377 . S
C3873 C3879 1.390 1_554 S
C3874 H3865 0.930 . S
C3874 C3872 1.384 . S
C3874 C3875 1.372 . S
C3875 C3874 1.372 . S
C3875 C3876 1.400 1_554 S
C3875 C3880 1.490 . S
C3876 H3866 0.930 . S
C3876 C3875 1.400 1_556 S
C3876 C3879 1.386 . S
H3877 C3893 0.930 . S
H3878 C3894 0.931 . S
C3879 H3867 0.929 . S
C3879 C3873 1.390 1_556 S
C3879 C3876 1.386 . S
C3880 C3875 1.490 . S
C3880 C3882 1.395 1_455 S
C3880 C3883 1.403 . S
H3881 C3887 0.929 . S
C3882 H3868 0.930 . S
C3882 C3880 1.395 1_655 S
C3882 C3885 1.403 1_554 S
C3883 C3880 1.403 . S
C3883 C3884 1.524 . S
C3883 C3887 1.401 1_554 S
C3884 H3869 0.960 . S
C3884 H3870 0.960 . S
C3884 H3871 0.960 1_554 S
C3884 C3883 1.524 . S
C3885 C3882 1.403 1_556 S
C3885 C3886 1.392 . S
C3885 C3889 1.495 . S
C3886 C3885 1.392 . S
C3886 C3887 1.384 1_655 S
C3886 C3888 1.478 . S
C3887 H3881 0.929 . S
C3887 C3883 1.401 1_556 S
C3887 C3886 1.384 1_455 S
C3888 C3886 1.478 . S
C3888 C3890 1.381 1_556 S
C3888 C3894 1.383 . S
C3889 C3885 1.495 . S
C3889 H3895 0.959 . S
C3889 H3896 0.961 . S
C3889 H3897 0.960 1_556 S
C3890 C3888 1.381 1_554 S
C3890 C3891 1.394 . S
C3890 H3898 0.930 . S
C3891 C3890 1.394 . S
C3891 C3892 1.383 1_554 S
C3891 H3899 0.929 . S
C3892 C3891 1.383 1_556 S
C3892 C3893 1.377 . S
C3893 H3877 0.930 . S
C3893 C3892 1.377 . S
C3893 C3894 1.379 . S
C3894 H3878 0.931 . S
C3894 C3888 1.383 . S
C3894 C3893 1.379 . S
H3895 C3889 0.959 . S
H3896 C3889 0.961 . S
H3897 C3889 0.960 1_554 S
H3898 C3890 0.930 . S
H3899 C3891 0.929 . S
H3900 C3908 0.929 . S
H3901 C3910 0.930 . S
H3902 C3912 0.930 . S
H3903 C3915 0.929 . S
H3904 C3918 0.930 . S
H3905 C3920 0.960 . S
H3906 C3920 0.960 . S
H3907 C3920 0.960 . S
C3908 H3900 0.929 . S
C3908 C3909 1.377 . S
C3908 C3910 1.384 . S
C3909 C3908 1.377 . S
C3909 C3915 1.390 . S
C3910 H3901 0.930 . S
C3910 C3908 1.384 . S
C3910 C3911 1.372 . S
C3911 C3910 1.372 . S
C3911 C3912 1.400 . S
C3911 C3916 1.490 . S
C3912 H3902 0.930 . S
C3912 C3911 1.400 . S
C3912 C3915 1.386 . S
H3913 C3929 0.930 . S
H3914 C3930 0.931 . S
C3915 H3903 0.929 . S
C3915 C3909 1.390 . S
C3915 C3912 1.386 . S
C3916 C3911 1.490 . S
C3916 C3918 1.395 . S
C3916 C3919 1.403 . S
H3917 C3923 0.930 . S
C3918 H3904 0.930 . S
C3918 C3916 1.395 . S
C3918 C3921 1.403 . S
C3919 C3916 1.403 . S
C3919 C3920 1.524 . S
C3919 C3923 1.400 . S
C3920 H3905 0.960 . S
C3920 H3906 0.960 . S
C3920 H3907 0.960 . S
C3920 C3919 1.524 . S
C3921 C3918 1.403 . S
C3921 C3922 1.392 . S
C3921 C3925 1.495 . S
C3922 C3921 1.392 . S
C3922 C3923 1.385 . S
C3922 C3924 1.478 . S
C3923 H3917 0.930 . S
C3923 C3919 1.400 . S
C3923 C3922 1.385 . S
C3924 C3922 1.478 . S
C3924 C3926 1.381 . S
C3924 C3930 1.383 . S
C3925 C3921 1.495 . S
C3925 H3931 0.959 . S
C3925 H3932 0.961 . S
C3925 H3933 0.960 . S
C3926 C3924 1.381 . S
C3926 C3927 1.394 . S
C3926 H3934 0.930 . S
C3927 C3926 1.394 . S
C3927 C3928 1.383 . S
C3927 H3935 0.929 . S
C3928 C3927 1.383 . S
C3928 C3929 1.377 . S
C3929 H3913 0.930 . S
C3929 C3928 1.377 . S
C3929 C3930 1.379 . S
C3930 H3914 0.931 . S
C3930 C3924 1.383 . S
C3930 C3929 1.379 . S
H3931 C3925 0.959 . S
H3932 C3925 0.961 . S
H3933 C3925 0.960 . S
H3934 C3926 0.930 . S
H3935 C3927 0.929 . S
C1065 N244 2.012 . S
C1084 N13 1.984 . S
C1101 N46 2.013 . S
C1120 N145 2.030 . S
C1137 N79 2.017 . S
C1156 N178 2.003 . S
C1173 N211 2.009 . S
C1192 N112 1.991 . S
C1209 N508 2.013 . S
C1228 N277 2.018 . S
C1245 N409 2.007 . S
C1264 N310 2.032 . S
C1281 N343 2.016 . S
C1300 N442 2.005 . S
C1317 N376 2.014 . S
C1336 N475 2.013 . S
C1353 N772 2.007 . S
C1372 N541 2.024 . S
C1389 N574 2.016 . S
C1408 N673 1.989 . S
C1425 N607 2.017 . S
C1444 N706 2.010 . S
C1461 N739 2.007 . S
C1480 N640 2.017 . S
C1497 N1036 2.006 . S
C1516 N805 2.026 . S
C1533 N838 2.017 . S
C1552 N937 1.987 . S
C1569 N970 2.016 . S
C1588 N871 1.984 . S
C1605 N1003 2.011 . S
C1624 N904 2.026 . S
C1641 C601 0.681 . S
C1660 C7 0.651 . S
C1677 C634 0.680 . S
C1696 C40 0.660 . S
C1713 C73 0.681 . S
C1732 C535 0.671 . S
C1749 C106 0.701 . S
C1768 C568 0.704 . S
C1785 C733 0.685 . S
C1804 C139 0.641 . S
C1821 C766 0.698 . S
C1840 C172 0.682 . S
C1857 C205 0.701 . S
C1876 C667 0.731 . S
C1893 C238 0.701 . S
C1912 C700 0.723 . S
C1929 C271 0.685 . S
C1948 C865 0.720 . S
C1965 C898 0.687 . S
C1984 C304 0.710 . S
C2001 C799 0.682 . S
C2020 C337 0.735 . S
C2037 C370 0.689 . S
C2056 C832 0.704 . S
C2073 C403 0.696 . S
C2092 C997 0.667 . S
C2109 C1030 0.680 . S
C2128 C436 0.740 . S
C2145 C931 0.681 . S
C2164 C469 0.739 . S
C2181 C964 0.700 . S
C2200 C502 0.649 . S
C2217 N2 0.598 . S
C2236 C912 0.601 . S
C2253 C285 0.656 . S
C2272 N35 0.602 . S
C2289 C846 0.654 . S
C2308 N68 0.590 . S
C2325 N101 0.591 . S
C2344 C351 0.709 . S
C2361 C978 0.691 . S
C2380 N134 0.626 . S
C2397 C483 0.689 . S
C2416 N167 0.608 . S
C2433 N200 0.597 . S
C2452 C1044 0.597 . S
C2469 N233 0.594 . S
C2488 C417 0.732 . S
C2505 N266 0.603 . S
C2524 C648 0.610 . S
C2541 N299 0.587 . S
C2560 C21 0.598 . S
C2577 C582 0.685 . S
C2596 N332 0.573 . S
C2613 N365 0.595 . S
C2632 C87 0.576 . S
C2649 C714 0.669 . S
C2668 N398 0.539 . S
C2685 N431 0.606 . S
C2704 C219 0.758 . S
C2721 N464 0.610 . S
C2740 C780 0.703 . S
C2757 C153 0.654 . S
C2776 N497 0.605 . S
C2793 N530 0.601 . S
C2812 C384 0.761 . S
C2829 C813 0.652 . S
C2848 N563 0.577 . S
C2865 C318 0.654 . S
C2884 N596 0.545 . S
C2901 N629 0.609 . S
C2920 C879 0.703 . S
C2937 N662 0.598 . S
C2956 C450 0.598 . S
C2973 C1011 0.652 . S
C2992 N695 0.566 . S
C3009 N728 0.604 . S
C3028 C516 0.640 . S
C3045 C945 0.691 . S
C3064 N761 0.640 . S
C3081 C120 0.667 . S
C3100 N794 0.648 . S
C3117 C549 0.662 . S
C3136 N827 0.637 . S
C3153 C54 0.678 . S
C3172 N860 0.657 . S
C3189 C615 0.665 . S
C3208 N893 0.644 . S
C3225 N926 0.608 . S
C3244 C186 0.750 . S
C3261 C747 0.683 . S
C3280 N959 0.566 . S
C3297 C252 0.676 . S
C3316 N992 0.547 . S
C3333 C681 0.690 . S
C3352 N1025 0.601 . S
C3369 C18 1.299 . S
C3388 C810 1.278 . S
C3405 C51 1.305 . S
C3424 C315 1.310 . S
C3441 C876 1.300 . S
C3460 C84 1.279 . S
C3477 C381 1.301 . S
C3496 C117 1.316 . S
C3513 C942 1.298 . S
C3532 C150 1.305 . S
C3549 C447 1.303 . S
C3568 C183 1.287 . S
C3585 C1008 1.301 . S
C3604 C216 1.317 . S
C3621 C513 1.297 . S
C3640 C249 1.280 . S
C3657 C282 1.301 . S
C3676 C546 1.279 . S
C3693 C612 1.305 . S
C3712 C348 1.309 . S
C3729 C414 1.303 . S
C3748 C678 1.319 . S
C3765 C480 1.301 . S
C3784 C744 1.281 . S
C3801 C843 1.300 . S
C3820 C579 1.279 . S
C3837 C645 1.297 . S
C3856 C909 1.279 . S
C3873 C975 1.301 . S
C3892 C711 1.315 . S
C3909 C1041 1.297 . S
C3928 C777 1.284 . S
