# Generated by pormake.
# Topology dft, (4)-cn, num edge types: 1
# Building blocks:
#     Node 0, Type 0, BuildingBlock: UXUYUI_clean_sbu_0, # of connection points: 4
#     Node 1, Type 0, BuildingBlock: UXUYUI_clean_sbu_0, # of connection points: 4
#     Node 2, Type 0, BuildingBlock: UXUYUI_clean_sbu_0, # of connection points: 4
#     Node 3, Type 0, BuildingBlock: UXUYUI_clean_sbu_0, # of connection points: 4
#     Node 4, Type 0, BuildingBlock: UXUYUI_clean_sbu_0, # of connection points: 4
#     Node 5, Type 0, BuildingBlock: UXUYUI_clean_sbu_0, # of connection points: 4
#     Node 6, Type 0, BuildingBlock: UXUYUI_clean_sbu_0, # of connection points: 4
#     Node 7, Type 0, BuildingBlock: UXUYUI_clean_sbu_0, # of connection points: 4
#     Edge 8, Type (0, 0), BuildingBlock: UVAHIK_clean_linker_0, # of connection points: 2
#     Edge 9, Type (0, 0), BuildingBlock: UVAHIK_clean_linker_0, # of connection points: 2
#     Edge 10, Type (0, 0), BuildingBlock: UVAHIK_clean_linker_0, # of connection points: 2
#     Edge 11, Type (0, 0), BuildingBlock: UVAHIK_clean_linker_0, # of connection points: 2
#     Edge 12, Type (0, 0), BuildingBlock: UVAHIK_clean_linker_0, # of connection points: 2
#     Edge 13, Type (0, 0), BuildingBlock: UVAHIK_clean_linker_0, # of connection points: 2
#     Edge 14, Type (0, 0), BuildingBlock: UVAHIK_clean_linker_0, # of connection points: 2
#     Edge 15, Type (0, 0), BuildingBlock: UVAHIK_clean_linker_0, # of connection points: 2
#     Edge 16, Type (0, 0), BuildingBlock: UVAHIK_clean_linker_0, # of connection points: 2
#     Edge 17, Type (0, 0), BuildingBlock: UVAHIK_clean_linker_0, # of connection points: 2
#     Edge 18, Type (0, 0), BuildingBlock: UVAHIK_clean_linker_0, # of connection points: 2
#     Edge 19, Type (0, 0), BuildingBlock: UVAHIK_clean_linker_0, # of connection points: 2
#     Edge 20, Type (0, 0), BuildingBlock: UVAHIK_clean_linker_0, # of connection points: 2
#     Edge 21, Type (0, 0), BuildingBlock: UVAHIK_clean_linker_0, # of connection points: 2
#     Edge 22, Type (0, 0), BuildingBlock: UVAHIK_clean_linker_0, # of connection points: 2
#     Edge 23, Type (0, 0), BuildingBlock: UVAHIK_clean_linker_0, # of connection points: 2
# Relax obj value: 0.226
# Max RMSD: 0.178
# Mean RMSD: 0.177
data_MOF--net-dft--node1-UXUYUI_clean_sbu_0--edge1-UVAHIK_clean_linker_0
_symmetry_space_group_name_H-M    P1
_symmetry_Int_Tables_number       1
_symmetry_cell_setting            triclinic
loop_
_symmetry_equiv_pos_as_xyz
'x, y, z'
_cell_length_a     60.040798
_cell_length_b     59.909183
_cell_length_c     69.436941
_cell_angle_alpha  90.000717
_cell_angle_beta   89.990702
_cell_angle_gamma 89.980632
loop_
_atom_site_label
_atom_site_type_symbol
_atom_site_fract_x
_atom_site_fract_y
_atom_site_fract_z
_atom_type_partial_charge
Li0 Li 0.27558 0.0093 0.19768 0.0
Li1 Li 0.31228 0.99247 0.20157 0.0
Li2 Li 0.29257 0.99105 0.17079 0.0
Li3 Li 0.28021 0.96873 0.19833 0.0
C4 C 0.31376 0.02945 0.17067 0.0
N5 N 0.33456 0.05158 0.14076 0.0
C6 C 0.33696 0.02902 0.16905 0.0
C7 C 0.30114 0.04127 0.15717 0.0
C8 C 0.34716 0.0403 0.15381 0.0
C9 C 0.31197 0.05229 0.14212 0.0
C10 C 0.29513 0.99316 0.23678 0.0
C11 C 0.31697 0.97957 0.26347 0.0
N12 N 0.31458 -0.00037 0.2724 0.0
C13 C 0.29279 0.01361 0.24626 0.0
C14 C 0.3072 0.97594 0.24548 0.0
C15 C 0.30278 0.01656 0.26425 0.0
C16 C 0.24059 0.02827 0.2188 0.0
N17 N 0.25737 0.03302 0.20633 0.0
C18 C 0.24942 0.07199 0.20825 0.0
C19 C 0.262 0.05431 0.20096 0.0
C20 C 0.23197 0.06764 0.22122 0.0
C21 C 0.22751 0.04538 0.22635 0.0
H22 H 0.23757 0.01117 0.22304 0.0
H23 H 0.27574 0.05761 0.19132 0.0
C24 C 0.35624 0.98011 0.2107 0.0
N25 N 0.34038 0.99592 0.21349 0.0
C26 C 0.37725 0.98256 0.21897 0.0
C27 C 0.36506 0.01739 0.23307 0.0
C28 C 0.34441 0.01444 0.22423 0.0
C29 C 0.38194 0.00141 0.23037 0.0
H30 H 0.35271 0.96579 0.20175 0.0
H31 H 0.33158 0.02696 0.22586 0.0
C32 C 0.2404 0.99363 0.18007 0.0
N33 N 0.19697 0.00881 0.18096 0.0
C34 C 0.22438 0.98228 0.1909 0.0
C35 C 0.23432 0.01258 0.16958 0.0
C36 C 0.2025 0.99024 0.19118 0.0
C37 C 0.21228 0.02003 0.17026 0.0
C38 C 0.3117 0.94454 0.18137 0.0
C39 C 0.30737 0.93508 0.16335 0.0
C40 C 0.31834 0.93089 0.19665 0.0
C41 C 0.30959 0.91203 0.16097 0.0
C42 C 0.32032 0.90791 0.1937 0.0
N43 N 0.31593 0.89904 0.17607 0.0
C44 C 0.317 0.98988 0.13601 0.0
C45 C 0.27778 0.99157 0.13224 0.0
C46 C 0.31997 0.98971 0.11607 0.0
N47 N 0.29617 0.99099 0.14363 0.0
C48 C 0.27996 0.99121 0.11224 0.0
C49 C 0.30127 0.99029 0.10393 0.0
H50 H 0.33129 0.98901 0.14546 0.0
H51 H 0.26142 0.99217 0.13868 0.0
C52 C 0.26207 0.93921 0.2254 0.0
N53 N 0.26661 0.94172 0.20637 0.0
C54 C 0.251 0.92024 0.23197 0.0
C55 C 0.24966 0.90661 0.19923 0.0
C56 C 0.26049 0.92603 0.19326 0.0
C57 C 0.24456 0.90359 0.21883 0.0
H58 H 0.26653 0.95222 0.23545 0.0
H59 H 0.26378 0.92874 0.17813 0.0
O60 O 0.30344 0.01821 0.1853 0.0
O61 O 0.28571 0.99002 0.21905 0.0
O62 O 0.26199 0.98633 0.17987 0.0
O63 O 0.30947 0.96705 0.18403 0.0
H64 H 0.34698 0.01992 0.17935 0.0
H65 H 0.28317 0.04168 0.15817 0.0
H66 H 0.3651 0.04003 0.15232 0.0
H67 H 0.30241 0.06137 0.13148 0.0
H68 H 0.32648 0.96644 0.27031 0.0
H69 H 0.28358 0.02715 0.23972 0.0
H70 H 0.30916 0.96002 0.23834 0.0
H71 H 0.30121 0.03234 0.27171 0.0
H72 H 0.25369 0.08889 0.20415 0.0
H73 H 0.21407 0.04122 0.2361 0.0
H74 H 0.38984 0.97009 0.21599 0.0
H75 H 0.36774 0.03209 0.24183 0.0
H76 H 0.2288 0.96761 0.19912 0.0
H77 H 0.24655 0.02162 0.1612 0.0
H78 H 0.18994 0.98169 0.19956 0.0
H79 H 0.20737 0.03478 0.16233 0.0
H80 H 0.30217 0.94538 0.15137 0.0
H81 H 0.32176 0.93795 0.21068 0.0
H82 H 0.3062 0.90446 0.14714 0.0
H83 H 0.32532 0.89713 0.20543 0.0
H84 H 0.33666 0.9887 0.11022 0.0
H85 H 0.26514 0.99183 0.10336 0.0
H86 H 0.24693 0.91903 0.24713 0.0
H87 H 0.2452 0.89422 0.18856 0.0
Li88 Li -0.00241 0.2993 0.66983 0.0
Li89 Li 0.9935 0.31824 0.70077 0.0
Li90 Li 0.0158 0.28446 0.69785 0.0
Li91 Li 0.97515 0.28325 0.69583 0.0
C92 C 0.03382 0.32443 0.6724 0.0
N93 N 0.05819 0.34627 0.6444 0.0
C94 C 0.03205 0.34757 0.67031 0.0
C95 C 0.04805 0.31241 0.6603 0.0
C96 C 0.04452 0.3583 0.65607 0.0
C97 C 0.0602 0.32375 0.6462 0.0
C98 C 0.94816 0.31041 0.67688 0.0
C99 C 0.90941 0.30988 0.68609 0.0
N100 N 0.90363 0.30639 0.66739 0.0
C101 C 0.94183 0.30687 0.65774 0.0
C102 C 0.93182 0.31201 0.69117 0.0
C103 C 0.91923 0.30487 0.65325 0.0
C104 C -0.00055 0.28365 0.63185 0.0
N105 N -0.00067 0.30256 0.64262 0.0
C106 C 0.00057 0.32514 0.61427 0.0
C107 C -0.0005 0.32309 0.63428 0.0
C108 C 0.00083 0.30587 0.60268 0.0
C109 C 9e-05 0.28491 0.61181 0.0
H110 H -0.00132 0.26755 0.63881 0.0
H111 H -0.00128 0.33787 0.64317 0.0
C112 C 0.01064 0.35606 0.71973 0.0
N113 N 0.99161 0.34604 0.71366 0.0
C114 C 0.00969 0.37635 0.72956 0.0
C115 C 0.96952 0.37511 0.72731 0.0
C116 C 0.97129 0.35506 0.71726 0.0
C117 C 0.9889 0.38623 0.7334 0.0
H118 H 0.02658 0.34834 0.71679 0.0
H119 H 0.95645 0.34661 0.71246 0.0
C120 C 0.00662 0.24769 0.67872 0.0
N121 N 0.02723 0.20647 0.67962 0.0
C122 C -0.00266 0.23024 0.6894 0.0
C123 C 0.02626 0.24413 0.66836 0.0
C124 C 0.00804 0.20953 0.6897 0.0
C125 C 0.03647 0.22319 0.66905 0.0
C126 C 0.99535 0.30182 0.73539 0.0
C127 C 0.01635 0.30556 0.74345 0.0
C128 C 0.97631 0.30946 0.74493 0.0
C129 C 0.01795 0.31694 0.76096 0.0
C130 C 0.97862 0.3208 0.7624 0.0
N131 N -0.00078 0.32428 0.76998 0.0
C132 C 0.06188 0.2744 0.70356 0.0
C133 C 0.03583 0.25191 0.72033 0.0
C134 C 0.0796 0.26257 0.7117 0.0
N135 N 0.04055 0.26877 0.70792 0.0
C136 C 0.05295 0.23957 0.72867 0.0
C137 C 0.07522 0.24487 0.72445 0.0
H138 H 0.06515 0.28821 0.69397 0.0
H139 H 0.01867 0.24807 0.72374 0.0
C140 C 0.93736 0.25688 0.68725 0.0
N141 N 0.95008 0.26534 0.70169 0.0
C142 C 0.9191 0.24334 0.6915 0.0
C143 C 0.92794 0.24686 0.72534 0.0
C144 C 0.94584 0.26052 0.72044 0.0
C145 C 0.91423 0.23808 0.71078 0.0
H146 H 0.94143 0.26064 0.67243 0.0
H147 H 0.95664 0.26693 0.73158 0.0
O148 O 0.02165 0.31359 0.68618 0.0
O149 O 0.97022 0.31233 0.68157 0.0
O150 O 0.99667 0.26824 0.67857 0.0
O151 O 0.99348 0.2913 0.71798 0.0
H152 H 0.02098 0.35712 0.67943 0.0
H153 H 0.04953 0.2945 0.66164 0.0
H154 H 0.04324 0.37619 0.65424 0.0
H155 H 0.07118 0.31465 0.63667 0.0
H156 H 0.89662 0.31087 0.69703 0.0
H157 H 0.95418 0.30561 0.64648 0.0
H158 H 0.9364 0.31431 0.7061 0.0
H159 H 0.9141 0.30208 0.63851 0.0
H160 H 0.00128 0.34167 0.60801 0.0
H161 H -0.00041 0.26956 0.60359 0.0
H162 H 0.02511 0.3844 0.73368 0.0
H163 H 0.95312 0.3818 0.73024 0.0
H164 H 0.98219 0.2327 0.69755 0.0
H165 H 0.03363 0.25744 0.65999 0.0
H166 H 0.00113 0.19591 0.69799 0.0
H167 H 0.05175 0.22024 0.6612 0.0
H168 H 0.03128 0.3 0.73617 0.0
H169 H 0.95995 0.307 0.73875 0.0
H170 H 0.0341 0.32004 0.76733 0.0
H171 H 0.96405 0.32694 0.76987 0.0
H172 H 0.0965 0.26745 0.70827 0.0
H173 H 0.04873 0.22587 0.73817 0.0
H174 H 0.90894 0.23709 0.6798 0.0
H175 H 0.92524 0.2428 0.74035 0.0
Li176 Li 0.68211 0.00519 0.19993 0.0
Li177 Li 0.7167 0.98406 0.19688 0.0
Li178 Li 0.71657 0.02486 0.19381 0.0
Li179 Li 0.70075 0.00054 0.16879 0.0
C180 C 0.70096 0.00721 0.23467 0.0
N181 N 0.68329 0.00783 0.27139 0.0
C182 C 0.70061 0.98772 0.24573 0.0
C183 C 0.69251 0.02705 0.24233 0.0
C184 C 0.69156 0.98837 0.26426 0.0
C185 C 0.68358 0.027 0.26091 0.0
C186 C 0.67532 0.96517 0.17269 0.0
C187 C 0.67319 0.93916 0.14625 0.0
N188 N 0.65078 0.94236 0.1454 0.0
C189 C 0.65226 0.96814 0.17162 0.0
C190 C 0.68589 0.95048 0.15999 0.0
C191 C 0.64015 0.95646 0.15771 0.0
C192 C 0.64063 0.02428 0.2086 0.0
N193 N 0.65432 0.0069 0.21274 0.0
C194 C 0.62775 0.99191 0.23484 0.0
C195 C 0.64827 0.99072 0.22543 0.0
C196 C 0.61322 0.00973 0.23087 0.0
C197 C 0.61993 0.02604 0.21753 0.0
H198 H 0.64557 0.03656 0.19806 0.0
H199 H 0.65932 0.97682 0.22812 0.0
C200 C 0.75031 0.96444 0.21905 0.0
N201 N 0.7329 0.95978 0.20725 0.0
C202 C 0.76279 0.94719 0.22711 0.0
C203 C 0.73881 0.92062 0.21105 0.0
C204 C 0.72687 0.93843 0.20321 0.0
C205 C 0.75708 0.9249 0.22317 0.0
H206 H 0.75453 0.98163 0.22215 0.0
H207 H 0.71271 0.93525 0.19401 0.0
C208 C 0.68559 0.0499 0.17551 0.0
N209 N 0.68243 0.09468 0.16638 0.0
C210 C 0.68805 0.05692 0.15643 0.0
C211 C 0.68139 0.06563 0.18993 0.0
C212 C 0.68641 0.07964 0.15211 0.0
C213 C 0.67991 0.0882 0.18503 0.0
C214 C 0.75268 0.99351 0.17729 0.0
C215 C 0.77026 0.00426 0.18665 0.0
C216 C 0.75623 0.97274 0.16862 0.0
C217 C 0.79111 0.99392 0.18735 0.0
C218 C 0.77731 0.96294 0.16967 0.0
N219 N 0.79416 0.97364 0.17895 0.0
C220 C 0.74108 0.05345 0.21742 0.0
C221 C 0.73704 0.06679 0.18551 0.0
C222 C 0.7535 0.07221 0.22246 0.0
N223 N 0.733 0.05118 0.19927 0.0
C224 C 0.74888 0.08613 0.19004 0.0
C225 C 0.75742 0.08907 0.20875 0.0
H226 H 0.73817 0.04048 0.22794 0.0
H227 H 0.73104 0.06427 0.17101 0.0
C228 C 0.67561 0.00016 0.13424 0.0
N229 N 0.69634 -0.0023 0.14181 0.0
C230 C 0.67231 -0.00167 0.11439 0.0
C231 C 0.71182 0.99192 0.11054 0.0
C232 C 0.71432 0.99375 0.13045 0.0
C233 C 0.69058 0.99419 0.10224 0.0
H234 H 0.66166 0.00361 0.14363 0.0
H235 H 0.73067 0.9923 0.13681 0.0
O236 O 0.70952 0.00687 0.21643 0.0
O237 O 0.68751 0.9767 0.18601 0.0
O238 O 0.68713 0.02773 0.18001 0.0
O239 O 0.73203 0.00314 0.17679 0.0
H240 H 0.70702 0.97221 0.24 0.0
H241 H 0.69276 0.04229 0.23398 0.0
H242 H 0.69107 0.97339 0.27295 0.0
H243 H 0.67688 0.04221 0.26699 0.0
H244 H 0.68117 0.92787 0.13623 0.0
H245 H 0.64383 0.97947 0.18132 0.0
H246 H 0.70374 0.9481 0.16056 0.0
H247 H 0.62231 0.95866 0.15665 0.0
H248 H 0.6233 0.97897 0.24502 0.0
H249 H 0.60906 0.03971 0.21357 0.0
H250 H 0.77691 0.9513 0.23613 0.0
H251 H 0.7336 0.90372 0.20787 0.0
H252 H 0.69134 0.045 0.14509 0.0
H253 H 0.67947 0.06049 0.20476 0.0
H254 H 0.68835 0.08533 0.13742 0.0
H255 H 0.67678 0.10056 0.19606 0.0
H256 H 0.76781 0.02032 0.19343 0.0
H257 H 0.74276 0.96414 0.16141 0.0
H258 H 0.80485 0.00199 0.19463 0.0
H259 H 0.78025 0.9468 0.16318 0.0
H260 H 0.76029 0.07318 0.23687 0.0
H261 H 0.75121 0.09862 0.17896 0.0
H262 H 0.65563 4e-05 0.10866 0.0
H263 H 0.72646 0.9892 0.10174 0.0
Li264 Li 0.98456 0.71541 0.69628 0.0
Li265 Li 0.02517 0.71182 0.6957 0.0
Li266 Li 0.00227 0.69633 0.66978 0.0
Li267 Li 0.00285 0.6798 0.70204 0.0
C268 C -0.0015 0.74905 0.67491 0.0
N269 N 0.98247 0.79209 0.67149 0.0
C270 C 0.0094 0.76666 0.68416 0.0
C271 C 0.97958 0.75335 0.66379 0.0
C272 C 0.00101 0.78831 0.68227 0.0
C273 C 0.97169 0.77521 0.66229 0.0
C274 C 0.00195 0.69939 0.73565 0.0
C275 C 0.01576 0.67961 0.76345 0.0
N276 N 0.99525 0.68102 0.77168 0.0
C277 C 0.98103 0.70072 0.74441 0.0
C278 C 0.0195 0.68885 0.74526 0.0
C279 C 0.97798 0.69131 0.76263 0.0
C280 C 0.93931 0.72798 0.70012 0.0
N281 N 0.96068 0.73399 0.70398 0.0
C282 C 0.94847 0.76694 0.72014 0.0
C283 C 0.96552 0.75285 0.714 0.0
C284 C 0.92624 0.76127 0.71626 0.0
C285 C 0.9217 0.74146 0.70621 0.0
H286 H 0.93594 0.71265 0.69248 0.0
H287 H 0.98265 0.75684 0.71732 0.0
C288 C 0.06506 0.73424 0.68642 0.0
N289 N 0.0519 0.72731 0.70117 0.0
C290 C 0.08413 0.74682 0.69014 0.0
C291 C 0.07551 0.74511 0.72413 0.0
C292 C 0.05673 0.73241 0.71976 0.0
C293 C 0.08943 0.75265 0.70921 0.0
H294 H 0.06053 0.73028 0.67174 0.0
H295 H 0.04567 0.72714 0.73115 0.0
C296 C 0.9635 0.67481 0.67304 0.0
N297 N 0.9379 0.65172 0.64666 0.0
C298 C 0.96324 0.65148 0.67319 0.0
C299 C 0.95066 0.6864 0.65954 0.0
C300 C 0.95019 0.64011 0.65973 0.0
C301 C 0.93787 0.67442 0.64629 0.0
C302 C 0.04975 0.68054 0.67977 0.0
C303 C 0.05773 0.68308 0.66099 0.0
C304 C 0.06477 0.67734 0.69491 0.0
C305 C 0.08068 0.68255 0.65768 0.0
C306 C 0.08759 0.67696 0.69101 0.0
N307 N 0.09501 0.67955 0.67264 0.0
C308 C 0.00383 0.70941 0.63121 0.0
C309 C -0.00211 0.6706 0.63522 0.0
C310 C 0.0028 0.70722 0.61125 0.0
N311 N 0.00105 0.69131 0.64273 0.0
C312 C 0.99632 0.66769 0.61529 0.0
C313 C -0.00137 0.6862 0.60298 0.0
H314 H 0.00698 0.72558 0.63752 0.0
H315 H 0.99637 0.65637 0.64468 0.0
C316 C 0.98055 0.64818 0.72459 0.0
N317 N 0.00047 0.65305 0.71632 0.0
C318 C 0.97793 0.62855 0.73514 0.0
C319 C 0.01649 0.61953 0.72863 0.0
C320 C 0.01834 0.63932 0.71818 0.0
C321 C 0.99601 0.61384 0.7371 0.0
H322 H 0.96665 0.65949 0.72283 0.0
H323 H 0.03392 0.64359 0.71134 0.0
O324 O 0.00622 0.72769 0.67684 0.0
O325 O 0.00514 0.70805 0.71763 0.0
O326 O 0.97623 0.68625 0.68604 0.0
O327 O 0.02735 0.68125 0.68332 0.0
H328 H 0.02403 0.76364 0.69286 0.0
H329 H 0.97098 0.7399 0.65653 0.0
H330 H 0.00919 0.80208 0.68943 0.0
H331 H 0.95698 0.77876 0.65383 0.0
H332 H 0.02914 0.67125 0.77098 0.0
H333 H 0.96722 0.7087 0.73715 0.0
H334 H 0.03575 0.68752 0.73861 0.0
H335 H 0.96185 0.69212 0.76955 0.0
H336 H 0.95259 0.78191 0.72814 0.0
H337 H 0.90475 0.73656 0.70295 0.0
H338 H 0.09445 0.75211 0.6782 0.0
H339 H 0.07861 0.7496 0.73899 0.0
H340 H 0.97315 0.64223 0.68345 0.0
H341 H 0.95072 0.70445 0.6592 0.0
H342 H 0.94989 0.62206 0.65962 0.0
H343 H 0.92795 0.68316 0.6357 0.0
H344 H 0.04636 0.68555 0.6491 0.0
H345 H 0.05888 0.67555 0.70955 0.0
H346 H 0.08711 0.68457 0.64323 0.0
H347 H 0.09941 0.67468 0.7026 0.0
H348 H 0.00543 0.72188 0.60244 0.0
H349 H 0.993 0.65117 0.60968 0.0
H350 H 0.9619 0.62482 0.74153 0.0
H351 H 0.03071 0.60846 0.72951 0.0
Li352 Li 0.27741 0.022 0.80526 0.0
Li353 Li 0.29343 -0.00161 0.83044 0.0
Li354 Li 0.31207 0.00331 0.79946 0.0
Li355 Li 0.27812 0.98137 0.80225 0.0
C356 C 0.30556 0.04805 0.82397 0.0
N357 N 0.30299 0.0928 0.83333 0.0
C358 C 0.30064 0.05454 0.84283 0.0
C359 C 0.30932 0.06431 0.8099 0.0
C360 C 0.2994 0.07726 0.84727 0.0
C361 C 0.30788 0.08684 0.81491 0.0
C362 C 0.24174 0.99016 0.82153 0.0
C363 C 0.21741 0.95937 0.82912 0.0
N364 N 0.20057 0.96972 0.81952 0.0
C365 C 0.22419 0.00054 0.8118 0.0
C366 C 0.23833 0.96946 0.83035 0.0
C367 C 0.20349 0.98992 0.81094 0.0
C368 C 0.25611 0.05328 0.78147 0.0
N369 N 0.26033 0.04794 0.80011 0.0
C370 C 0.23934 0.07933 0.81109 0.0
C371 C 0.25205 0.06031 0.81487 0.0
C372 C 0.23473 0.08535 0.79192 0.0
C373 C 0.24328 0.07197 0.77702 0.0
H374 H 0.26239 0.04281 0.77003 0.0
H375 H 0.25528 0.05538 0.82958 0.0
C376 C 0.3183 -0.00127 0.8651 0.0
N377 N 0.29769 0.99566 0.85744 0.0
C378 C 0.32157 0.99694 0.88495 0.0
C379 C 0.28225 0.98936 0.88865 0.0
C380 C 0.27979 0.99117 0.86874 0.0
C381 C 0.30337 0.99222 0.89703 0.0
H382 H 0.33219 0.0026 0.85576 0.0
H383 H 0.26352 0.98925 0.86232 0.0
C384 C 0.29445 0.00402 0.76469 0.0
N385 N 0.31439 0.00336 0.72883 0.0
C386 C 0.29486 0.98432 0.7539 0.0
C387 C 0.30406 0.02341 0.75719 0.0
C388 C 0.30503 0.98433 0.7358 0.0
C389 C 0.31412 0.02272 0.73906 0.0
C390 C 0.31954 0.96349 0.82685 0.0
C391 C 0.34251 0.96693 0.82817 0.0
C392 C 0.3091 0.94862 0.83947 0.0
C393 C 0.35466 0.9555 0.84221 0.0
C394 C 0.32183 0.93755 0.85334 0.0
N395 N 0.34415 0.94119 0.85441 0.0
C396 C 0.35283 0.02349 0.78971 0.0
C397 C 0.34655 0.98824 0.77519 0.0
C398 C 0.37343 0.02528 0.78059 0.0
N399 N 0.3399 0.00522 0.78682 0.0
C400 C 0.36693 0.98943 0.76559 0.0
C401 C 0.38075 0.0081 0.76832 0.0
H402 H 0.34731 0.03653 0.79933 0.0
H403 H 0.336 0.97377 0.77339 0.0
C404 C 0.24522 0.96079 0.77999 0.0
N405 N 0.26262 0.95662 0.79196 0.0
C406 C 0.23338 0.94319 0.7718 0.0
C407 C 0.2579 0.91731 0.78811 0.0
C408 C 0.26921 0.93546 0.79607 0.0
C409 C 0.23971 0.92108 0.77578 0.0
H410 H 0.24058 0.97784 0.77682 0.0
H411 H 0.28335 0.93267 0.80538 0.0
O412 O 0.30664 0.02589 0.81929 0.0
O413 O 0.26224 8e-05 0.82222 0.0
O414 O 0.28487 0.00427 0.78257 0.0
O415 O 0.30729 0.97478 0.8134 0.0
H416 H 0.29761 0.04221 0.8539 0.0
H417 H 0.31304 0.05957 0.79522 0.0
H418 H 0.29552 0.08253 0.86179 0.0
H419 H 0.3106 0.0996 0.80414 0.0
H420 H 0.21457 0.94328 0.83575 0.0
H421 H 0.22654 0.01651 0.80485 0.0
H422 H 0.25179 0.96113 0.83781 0.0
H423 H 0.18978 -0.0023 0.80339 0.0
H424 H 0.23324 0.08918 0.82305 0.0
H425 H 0.2397 0.07556 0.76206 0.0
H426 H 0.33817 -0.00089 0.89074 0.0
H427 H 0.26766 0.98619 0.8974 0.0
H428 H 0.28762 0.96912 0.75951 0.0
H429 H 0.30399 0.03877 0.76539 0.0
H430 H 0.30555 0.96919 0.72733 0.0
H431 H 0.32175 0.03757 0.73314 0.0
H432 H 0.35085 0.97843 0.81857 0.0
H433 H 0.29131 0.94589 0.83873 0.0
H434 H 0.37244 0.95805 0.84345 0.0
H435 H 0.31395 0.92612 0.86329 0.0
H436 H 0.38373 0.0397 0.78356 0.0
H437 H 0.3718 0.97586 0.7562 0.0
H438 H 0.2193 0.94689 0.76259 0.0
H439 H 0.26355 0.90056 0.79134 0.0
Li440 Li 0.00364 0.31801 0.29518 0.0
Li441 Li 0.0018 0.30195 0.32775 0.0
Li442 Li 0.02336 0.28473 0.30129 0.0
Li443 Li 0.9819 0.28476 0.29975 0.0
C444 C 0.05056 0.31533 0.31688 0.0
N445 N 0.09608 0.31685 0.3228 0.0
C446 C 0.05911 0.31733 0.33552 0.0
C447 C 0.0652 0.31451 0.30123 0.0
C448 C 0.08216 0.31797 0.33823 0.0
C449 C 0.08814 0.31517 0.30452 0.0
C450 C 0.9573 0.31389 0.32238 0.0
C451 C 0.93197 0.29446 0.34352 0.0
N452 N 0.91861 0.31279 0.34393 0.0
C453 C 0.94328 0.3325 0.32297 0.0
C454 C 0.95159 0.29468 0.3327 0.0
C455 C 0.9238 0.33163 0.33397 0.0
C456 C 0.98469 0.35624 0.27816 0.0
N457 N 0.00419 0.34544 0.28154 0.0
C458 C 0.02465 0.37407 0.26548 0.0
C459 C 0.02395 0.35385 0.27537 0.0
C460 C 0.00485 0.38599 0.2622 0.0
C461 C 0.98462 0.37669 0.26853 0.0
H462 H 0.9692 0.34906 0.28315 0.0
H463 H 0.03918 0.34486 0.27811 0.0
C464 C 0.01575 0.29286 0.36509 0.0
N465 N 0.00145 0.30589 0.35492 0.0
C466 C 0.01622 0.29391 0.38513 0.0
C467 C 0.98714 0.32177 0.38397 0.0
C468 C 0.98754 0.32047 0.36388 0.0
C469 C 0.00153 0.30826 0.39493 0.0
H470 H 0.02682 0.2816 0.35754 0.0
H471 H 0.97655 0.33093 0.3555 0.0
C472 C 0.00366 0.30054 0.26124 0.0
N473 N 0.00324 0.32226 0.2261 0.0
C474 C 0.98346 0.3062 0.25252 0.0
C475 C 0.02367 0.3058 0.25198 0.0
C476 C 0.98358 0.31721 0.23479 0.0
C477 C 0.02311 0.31681 0.23424 0.0
C478 C 0.00254 0.24951 0.32593 0.0
C479 C 0.01116 0.23242 0.3144 0.0
C480 C 0.99459 0.2445 0.34435 0.0
C481 C 0.01189 0.21065 0.32159 0.0
C482 C 0.99559 0.22252 0.35101 0.0
N483 N 0.00417 0.2062 0.3396 0.0
C484 C 0.0628 0.2608 0.31072 0.0
C485 C 0.05131 0.25868 0.2781 0.0
C486 C 0.08094 0.24686 0.30695 0.0
N487 N 0.04862 0.26657 0.29629 0.0
C488 C 0.06911 0.24469 0.27371 0.0
C489 C 0.08426 0.23862 0.28821 0.0
H490 H 0.05996 0.26697 0.32515 0.0
H491 H 0.0393 0.26283 0.26709 0.0
C492 C 0.93865 0.27963 0.28426 0.0
N493 N 0.95612 0.26844 0.29214 0.0
C494 C 0.92037 0.26794 0.27697 0.0
C495 C 0.93777 0.23358 0.28724 0.0
C496 C 0.95583 0.24589 0.29396 0.0
C497 C 0.91992 0.2445 0.27813 0.0
H498 H 0.93917 0.29763 0.28319 0.0
H499 H 0.96974 0.23732 0.30033 0.0
O500 O 0.02799 0.31462 0.31399 0.0
O501 O 0.97639 0.31458 0.31162 0.0
O502 O 0.00384 0.29029 0.27887 0.0
O503 O 0.00194 0.27103 0.31928 0.0
H504 H 0.0481 0.3186 0.34777 0.0
H505 H 0.05896 0.31286 0.28671 0.0
H506 H 0.08898 0.31944 0.35259 0.0
H507 H 0.09963 0.31426 0.29255 0.0
H508 H 0.92738 0.27971 0.35157 0.0
H509 H 0.94744 0.3475 0.31506 0.0
H510 H 0.96211 0.28008 0.33236 0.0
H511 H 0.91282 0.34593 0.33458 0.0
H512 H 0.04059 0.38034 0.26058 0.0
H513 H 0.96897 0.38538 0.26659 0.0
H514 H 0.02805 0.28358 0.39282 0.0
H515 H 0.97535 0.33294 0.39077 0.0
H516 H 0.96784 0.30237 0.25945 0.0
H517 H 0.0395 0.30173 0.25849 0.0
H518 H 0.96805 0.32181 0.22797 0.0
H519 H 0.03847 0.3211 0.227 0.0
H520 H 0.01686 0.23581 0.29994 0.0
H521 H 0.98759 0.25741 0.35341 0.0
H522 H 0.0185 0.19728 0.31281 0.0
H523 H 0.98951 0.21844 0.36525 0.0
H524 H 0.09223 0.24263 0.31855 0.0
H525 H 0.07064 0.23823 0.25921 0.0
H526 H 0.90712 0.27715 0.27 0.0
H527 H 0.93797 0.21563 0.28902 0.0
Li528 Li 0.70063 0.99503 0.82848 0.0
Li529 Li 0.71386 0.97337 0.80093 0.0
Li530 Li 0.71707 0.01402 0.80168 0.0
Li531 Li 0.68104 0.99588 0.7977 0.0
C532 C 0.75265 -0.0004 0.81966 0.0
N533 N 0.7955 0.01637 0.81953 0.0
C534 C 0.76932 0.98893 0.80904 0.0
C535 C 0.7578 0.0187 0.83033 0.0
C536 C 0.79088 -0.00231 0.80915 0.0
C537 C 0.77955 0.02696 0.83003 0.0
C538 C 0.68413 0.94778 0.8177 0.0
C539 C 0.67775 0.91073 0.80531 0.0
N540 N 0.68352 0.90204 0.82271 0.0
C541 C 0.6899 0.93851 0.83549 0.0
C542 C 0.67789 0.93382 0.80251 0.0
C543 C 0.68951 0.91534 0.83772 0.0
C544 C 0.67625 0.99302 0.86328 0.0
N545 N 0.69703 0.99475 0.85564 0.0
C546 C 0.71329 0.99512 0.88701 0.0
C547 C 0.71541 0.99569 0.86701 0.0
C548 C 0.69203 0.99359 0.89534 0.0
C549 C 0.67333 0.99263 0.88323 0.0
H550 H 0.66197 0.99184 0.85385 0.0
H551 H 0.73175 0.99672 0.86056 0.0
C552 C 0.73288 0.94462 0.77375 0.0
N553 N 0.72898 0.94722 0.79289 0.0
C554 C 0.74636 0.92728 0.76722 0.0
C555 C 0.75109 0.91515 0.80019 0.0
C556 C 0.73764 0.9329 0.80611 0.0
C557 C 0.75596 0.91254 0.78055 0.0
H558 H 0.72625 0.95653 0.76359 0.0
H559 H 0.73482 0.93578 0.82129 0.0
C560 C 0.6782 0.03279 0.82864 0.0
N561 N 0.65663 0.05426 0.85851 0.0
C562 C 0.65503 0.03148 0.83031 0.0
C563 C 0.69038 0.04517 0.84206 0.0
C564 C 0.64444 0.04244 0.84553 0.0
C565 C 0.67917 0.05584 0.8571 0.0
C566 C 0.69823 -0.0026 0.7625 0.0
C567 C 0.70037 0.0178 0.75289 0.0
C568 C 0.6863 0.98001 0.7539 0.0
C569 C 0.69036 0.02051 0.73488 0.0
C570 C 0.6765 0.98341 0.7359 0.0
N571 N 0.67871 0.00342 0.72684 0.0
C572 C 0.7517 0.03339 0.78085 0.0
C573 C 0.72984 0.05945 0.79828 0.0
C574 C 0.76481 0.05049 0.77339 0.0
N575 N 0.73472 0.03814 0.7931 0.0
C576 C 0.74242 0.07714 0.79101 0.0
C577 C 0.76014 0.07276 0.77831 0.0
H578 H 0.7549 0.01627 0.77676 0.0
H579 H 0.71595 0.06273 0.80778 0.0
C580 C 0.63743 0.98238 0.78834 0.0
N581 N 0.65294 -0.00144 0.78569 0.0
C582 C 0.61646 0.98437 0.77989 0.0
C583 C 0.62806 0.01941 0.76582 0.0
C584 C 0.64862 0.01696 0.77489 0.0
C585 C 0.6115 0.00309 0.7684 0.0
H586 H 0.64122 0.96813 0.79731 0.0
H587 H 0.66118 0.02977 0.77336 0.0
O588 O 0.73134 0.99152 0.81948 0.0
O589 O 0.68464 0.9704 0.81515 0.0
O590 O 0.68891 0.02189 0.81403 0.0
O591 O 0.7077 0.99449 0.78025 0.0
H592 H 0.76564 0.97418 0.80065 0.0
H593 H 0.74507 0.02722 0.83854 0.0
H594 H 0.80393 0.98967 0.80092 0.0
H595 H 0.78374 0.04182 0.8381 0.0
H596 H 0.67308 0.89972 0.79365 0.0
H597 H 0.69482 0.94906 0.84739 0.0
H598 H 0.67336 0.94074 0.78866 0.0
H599 H 0.69404 0.90792 0.85137 0.0
H600 H 0.72811 0.99603 0.89587 0.0
H601 H 0.65668 0.99114 0.8891 0.0
H602 H 0.74971 0.92575 0.75195 0.0
H603 H 0.75848 0.9043 0.81091 0.0
H604 H 0.64535 0.02195 0.82007 0.0
H605 H 0.70832 0.0463 0.841 0.0
H606 H 0.62654 0.04148 0.84706 0.0
H607 H 0.6884 0.06534 0.86768 0.0
H608 H 0.70946 0.03147 0.75934 0.0
H609 H 0.68445 0.96415 0.76116 0.0
H610 H 0.69179 0.03623 0.72733 0.0
H611 H 0.6671 0.97015 0.72914 0.0
H612 H 0.77848 0.04627 0.76389 0.0
H613 H 0.73801 0.09406 0.79497 0.0
H614 H 0.60414 0.97163 0.78279 0.0
H615 H 0.62521 0.034 0.75695 0.0
Li616 Li 0.97276 0.71396 0.30257 0.0
Li617 Li 0.01358 0.71527 0.30301 0.0
Li618 Li 0.99311 0.68143 0.29632 0.0
Li619 Li 0.99282 0.69724 0.32909 0.0
C620 C 0.99336 0.70242 0.26217 0.0
N621 N 0.99312 0.68777 0.22438 0.0
C622 C 0.01084 0.70797 0.24977 0.0
C623 C 0.97545 0.68996 0.25513 0.0
C624 C 0.0105 0.70029 0.23077 0.0
C625 C 0.97572 0.68253 0.23606 0.0
C626 C 0.99097 0.75171 0.31989 0.0
C627 C 0.98736 0.78836 0.33393 0.0
N628 N 0.98776 0.79751 0.31601 0.0
C629 C 0.99136 0.76149 0.3016 0.0
C630 C 0.98895 0.76524 0.33619 0.0
C631 C 0.98971 0.78467 0.29995 0.0
C632 C 0.93429 0.73885 0.31135 0.0
N633 N 0.94703 0.731 0.29666 0.0
C634 C 0.92414 0.74948 0.27354 0.0
C635 C 0.94236 0.73601 0.27802 0.0
C636 C 0.9106 0.75786 0.28839 0.0
C637 C 0.91579 0.75222 0.30752 0.0
H638 H 0.93865 0.73486 0.32607 0.0
H639 H 0.95305 0.72997 0.26666 0.0
C640 C 0.0542 0.72069 0.28437 0.0
N641 N 0.04058 0.73061 0.29745 0.0
C642 C 0.07401 0.73098 0.2788 0.0
C643 C 0.06639 0.76058 0.30153 0.0
C644 C 0.04655 0.74987 0.30646 0.0
C645 C 0.08013 0.75132 0.28727 0.0
H646 H 0.04953 0.70482 0.27815 0.0
H647 H 0.03599 0.75697 0.31744 0.0
C648 C 0.94516 0.68412 0.31739 0.0
N649 N 0.89963 0.68535 0.32347 0.0
C650 C 0.93665 0.68696 0.33597 0.0
C651 C 0.93043 0.68143 0.30196 0.0
C652 C 0.91361 0.68765 0.33874 0.0
C653 C 0.9075 0.68225 0.3053 0.0
C654 C 0.03768 0.68572 0.32509 0.0
C655 C 0.05327 0.6685 0.32344 0.0
C656 C 0.04166 0.70336 0.33782 0.0
C657 C 0.07257 0.66915 0.33466 0.0
C658 C 0.06116 0.70339 0.34878 0.0
N659 N 0.07608 0.68643 0.34699 0.0
C660 C 0.01395 0.64987 0.27261 0.0
C661 C 0.97693 0.64072 0.28158 0.0
C662 C 0.01587 0.63007 0.26215 0.0
N663 N 0.99475 0.65465 0.28211 0.0
C664 C 0.97808 0.62079 0.27126 0.0
C665 C -0.00218 0.61516 0.26153 0.0
H666 H 0.02779 0.66141 0.27327 0.0
H667 H 0.96193 0.64497 0.28937 0.0
C668 C 0.98243 0.70731 0.3672 0.0
N669 N 0.99308 0.69206 0.35605 0.0
C670 C 0.98223 0.70503 0.38717 0.0
C671 C 0.00454 0.67164 0.3839 0.0
C672 C 0.00388 0.67433 0.36391 0.0
C673 C 0.99362 0.68715 0.39588 0.0
H674 H 0.97379 0.72112 0.3605 0.0
H675 H 0.01226 0.66245 0.35469 0.0
O676 O 0.9935 0.70967 0.2809 0.0
O677 O 0.99221 0.72902 0.32193 0.0
O678 O 0.96773 0.6837 0.31439 0.0
O679 O 0.01883 0.68537 0.31403 0.0
H680 H 0.02438 0.7184 0.2546 0.0
H681 H 0.96159 0.68587 0.26434 0.0
H682 H 0.024 0.70439 0.22108 0.0
H683 H 0.96207 0.67262 0.23055 0.0
H684 H 0.98579 0.79902 0.34643 0.0
H685 H 0.99293 0.75137 0.28879 0.0
H686 H 0.98864 0.75797 0.35045 0.0
H687 H 0.98997 0.79245 0.28589 0.0
H688 H 0.92112 0.75378 0.25862 0.0
H689 H 0.90574 0.75813 0.31942 0.0
H690 H 0.08444 0.72312 0.26802 0.0
H691 H 0.07067 0.77621 0.30845 0.0
H692 H 0.94765 0.68857 0.34816 0.0
H693 H 0.93656 0.67888 0.28754 0.0
H694 H 0.90685 0.68998 0.35304 0.0
H695 H 0.89596 0.68041 0.29344 0.0
H696 H 0.05046 0.6548 0.31357 0.0
H697 H 0.02986 0.71689 0.33924 0.0
H698 H 0.08477 0.65592 0.33354 0.0
H699 H 0.06445 0.71692 0.3587 0.0
H700 H 0.03132 0.62638 0.25476 0.0
H701 H 0.96393 0.60959 0.27142 0.0
H702 H 0.97305 0.71711 0.39562 0.0
H703 H 0.01382 0.65778 0.38985 0.0
C704 C 0.29033 0.97569 0.07149 0.0
C705 C 0.30391 0.98967 0.08271 0.0
C706 C 0.29256 0.97525 0.05148 0.0
C707 C 0.31123 0.00914 0.01076 0.0
H708 H 0.31013 0.95297 0.98301 0.0
C709 C 0.32038 0.00555 0.92806 0.0
C710 C 0.30619 0.99072 0.91826 0.0
C711 C 0.32222 0.00476 0.94812 0.0
C712 C 0.31026 0.96881 0.99052 0.0
H713 H 0.33046 0.01416 0.08181 0.0
H714 H 0.33433 0.01343 0.04674 0.0
H715 H 0.30921 0.95291 0.01813 0.0
H716 H 0.28339 0.96295 0.92188 0.0
H717 H 0.28602 0.96205 0.95681 0.0
H718 H 0.31166 0.02511 0.98323 0.0
C719 C 0.32196 0.00283 0.05347 0.0
C720 C 0.30978 0.96876 0.01063 0.0
C721 C 0.31986 0.00312 0.07352 0.0
C722 C 0.29422 0.97483 0.92897 0.0
C723 C 0.29598 0.97412 0.94901 0.0
C724 C 0.31154 0.00921 0.99064 0.0
C725 C 0.30831 0.9889 0.04225 0.0
C726 C 0.31005 0.98892 0.02095 0.0
C727 C 0.30987 0.98918 0.95886 0.0
C728 C 0.31084 0.98905 0.98026 0.0
H729 H 0.27804 0.96498 0.07821 0.0
H730 H 0.28167 0.9645 0.0432 0.0
H731 H 0.3112 0.02495 0.01833 0.0
H732 H 0.32969 0.01814 0.92029 0.0
H733 H 0.33328 0.01643 0.95521 0.0
C734 C 0.01258 0.29119 0.57027 0.0
C735 C 0.00143 0.30748 0.58126 0.0
C736 C 0.01226 0.29202 0.55018 0.0
C737 C 0.00744 0.32875 0.50914 0.0
H738 H 0.98593 0.27666 0.48174 0.0
C739 C 0.99659 0.32878 0.42638 0.0
C740 C 0.00108 0.30884 0.41639 0.0
C741 C 0.99601 0.32914 0.44651 0.0
C742 C 0.99236 0.29123 0.48908 0.0
H743 H 0.9814 0.33765 0.57945 0.0
H744 H 0.98178 0.33952 0.54434 0.0
H745 H 0.98706 0.27642 0.51679 0.0
H746 H 0.00821 0.27353 0.42003 0.0
H747 H 0.00863 0.27448 0.45485 0.0
H748 H 0.01364 0.34334 0.48157 0.0
C749 C 0.99055 0.32604 0.55145 0.0
C750 C 0.99284 0.2911 0.50917 0.0
C751 C 0.99049 0.32499 0.57157 0.0
C752 C 0.00509 0.28932 0.42711 0.0
C753 C 0.0049 0.28977 0.4472 0.0
C754 C 0.00738 0.32875 0.489 0.0
C755 C 0.00119 0.3094 0.54062 0.0
C756 C 0.00041 0.30983 0.51936 0.0
C757 C 0.00024 0.30965 0.45721 0.0
C758 C -0.00011 0.30995 0.47868 0.0
H759 H 0.02166 0.27776 0.57713 0.0
H760 H 0.02081 0.27915 0.54208 0.0
H761 H 0.01348 0.34334 0.51674 0.0
H762 H 0.9937 0.34423 0.41869 0.0
H763 H 0.99206 0.34472 0.45364 0.0
C764 C 0.70343 0.97901 0.92766 0.0
C765 C 0.68946 0.99273 0.91656 0.0
C766 C 0.70129 0.97838 0.94768 0.0
C767 C 0.68197 0.01155 0.98862 0.0
H768 H 0.6846 0.95526 0.01611 0.0
C769 C 0.67312 0.00722 0.07131 0.0
C770 C 0.68773 0.99272 0.08101 0.0
C771 C 0.67126 0.00651 0.05125 0.0
C772 C 0.68404 0.97114 0.00867 0.0
H773 H 0.66232 0.01656 0.91766 0.0
H774 H 0.65861 0.0155 0.95274 0.0
H775 H 0.68538 0.95544 0.98099 0.0
H776 H 0.71126 0.96558 0.07723 0.0
H777 H 0.70856 0.96482 0.0423 0.0
H778 H 0.68124 0.02735 0.01622 0.0
C779 C 0.67121 0.00525 0.94592 0.0
C780 C 0.68444 0.97122 0.98856 0.0
C781 C 0.67321 0.00573 0.92586 0.0
C782 C 0.70009 0.97722 0.07021 0.0
C783 C 0.69831 0.97657 0.05017 0.0
C784 C 0.68173 0.0115 0.00874 0.0
C785 C 0.68525 0.99159 0.95702 0.0
C786 C 0.68361 0.99143 0.97833 0.0
C787 C 0.684 0.99132 0.04042 0.0
C788 C 0.68297 0.9913 0.01902 0.0
H789 H 0.71596 0.96865 0.92086 0.0
H790 H 0.71249 0.96785 0.95587 0.0
H791 H 0.68157 0.0274 0.98112 0.0
H792 H 0.66349 0.01951 0.07915 0.0
H793 H 0.65986 0.01792 0.04423 0.0
C794 C 0.99438 0.6637 0.42612 0.0
C795 C 0.99411 0.68488 0.41726 0.0
C796 C 0.99444 0.66176 0.4462 0.0
C797 C 0.97565 0.68921 0.48926 0.0
H798 H 0.0242 0.66055 0.51653 0.0
C799 C 0.98721 0.70101 0.5706 0.0
C800 C 0.99667 0.6838 0.58169 0.0
C801 C 0.98606 0.6993 0.5506 0.0
C802 C 0.01025 0.6682 0.5092 0.0
H803 H 0.99447 0.72058 0.42292 0.0
H804 H 0.9934 0.71701 0.45781 0.0
H805 H 0.02374 0.66044 0.48134 0.0
H806 H 0.01203 0.65102 0.58019 0.0
H807 H 0.00888 0.64753 0.5454 0.0
H808 H 0.96169 0.69656 0.5168 0.0
C809 C 0.99361 0.70201 0.44908 0.0
C810 C 0.0101 0.66822 0.48905 0.0
C811 C 0.99404 0.70399 0.42907 0.0
C812 C 0.00443 0.66455 0.5722 0.0
C813 C 0.00294 0.66269 0.55216 0.0
C814 C 0.97552 0.68881 0.50935 0.0
C815 C 0.99376 0.68091 0.45779 0.0
C816 C 0.99303 0.67911 0.47898 0.0
C817 C 0.9939 0.68013 0.54106 0.0
C818 C 0.99308 0.67875 0.51963 0.0
H819 H 0.99411 0.64858 0.41759 0.0
H820 H 0.99447 0.64531 0.45268 0.0
H821 H 0.96217 0.69748 0.48172 0.0
H822 H 0.98063 0.71591 0.57734 0.0
H823 H 0.97933 0.71329 0.54263 0.0
C824 C 0.414 0.02639 0.2392 0.0
C825 C 0.40464 0.00489 0.2384 0.0
C826 C 0.43614 0.02938 0.24475 0.0
C827 C 0.48608 -0.0004 0.26449 0.0
H828 H 0.51766 0.04093 0.23133 0.0
C829 C 0.57782 0.99116 0.24148 0.0
C830 C 0.59061 0.01069 0.2395 0.0
C831 C 0.5555 0.9924 0.24702 0.0
C832 C 0.50907 0.02964 0.241 0.0
H833 H 0.41092 0.96985 0.24429 0.0
H834 H 0.44977 0.97489 0.25276 0.0
H835 H 0.47734 0.03977 0.23044 0.0
H836 H 0.59047 0.04664 0.24339 0.0
H837 H 0.55128 0.04879 0.25256 0.0
H838 H 0.51825 0.98852 0.27397 0.0
C839 C 0.43994 0.98955 0.24947 0.0
C840 C 0.48588 0.029 0.24055 0.0
C841 C 0.41769 0.9866 0.24424 0.0
C842 C 0.58094 0.03134 0.24432 0.0
C843 C 0.55857 0.03258 0.24969 0.0
C844 C 0.50936 4e-05 0.26472 0.0
C845 C 0.44962 0.01093 0.24932 0.0
C846 C 0.47406 0.01363 0.25197 0.0
C847 C 0.5455 0.01319 0.25055 0.0
C848 C 0.52104 0.01477 0.25267 0.0
H849 H 0.40458 0.04091 0.23473 0.0
H850 H 0.44286 0.04615 0.24487 0.0
H851 H 0.47753 0.98786 0.27377 0.0
H852 H 0.58464 0.97501 0.23771 0.0
H853 H 0.54573 0.97721 0.24738 0.0
C854 C 0.00292 0.41506 0.7569 0.0
C855 C 0.98748 0.40853 0.74272 0.0
C856 C 0.00279 0.43684 0.76416 0.0
C857 C 0.96934 0.48855 0.76713 0.0
H858 H 0.0254 0.5189 0.75822 0.0
C859 C 0.97429 0.57883 0.74236 0.0
C860 C 0.99312 0.59185 0.74653 0.0
C861 C 0.9728 0.55694 0.74902 0.0
C862 C 0.00973 0.51074 0.76137 0.0
H863 H 0.95938 0.41978 0.72554 0.0
H864 H 0.95888 0.45733 0.73851 0.0
H865 H 0.02407 0.47838 0.75738 0.0
H866 H 0.02437 0.59277 0.76212 0.0
H867 H 0.0217 0.55442 0.77392 0.0
H868 H 0.9548 0.52094 0.77036 0.0
C869 C 0.97097 0.44557 0.74412 0.0
C870 C 0.00899 0.48746 0.76085 0.0
C871 C 0.97127 0.42398 0.73668 0.0
C872 C 0.00984 0.58296 0.75843 0.0
C873 C 0.00829 0.56103 0.76519 0.0
C874 C 0.9701 0.51183 0.76782 0.0
C875 C 0.98701 0.45237 0.7576 0.0
C876 C 0.98861 0.47623 0.76285 0.0
C877 C 0.99005 0.54756 0.76008 0.0
C878 C 0.99012 0.5232 0.76403 0.0
H879 H 0.01535 0.40348 0.76218 0.0
H880 H 0.01528 0.44167 0.77461 0.0
H881 H 0.95347 0.48022 0.769 0.0
H882 H 0.96126 0.5851 0.73303 0.0
H883 H 0.95869 0.54698 0.74448 0.0
C884 C 0.57606 0.9875 0.7545 0.0
C885 C 0.58882 0.00607 0.76011 0.0
C886 C 0.55383 0.99006 0.74904 0.0
C887 C 0.50741 0.0294 0.7568 0.0
H888 H 0.47557 0.98698 0.72484 0.0
C889 C 0.41227 0.02967 0.75348 0.0
C890 C 0.40327 0.00914 0.75949 0.0
C891 C 0.43452 0.03114 0.74778 0.0
C892 C 0.48432 -0.00094 0.73365 0.0
H893 H 0.58837 0.04219 0.76309 0.0
H894 H 0.55024 0.04674 0.75244 0.0
H895 H 0.51629 0.98697 0.7249 0.0
H896 H 0.41033 0.97382 0.76309 0.0
H897 H 0.44896 0.97639 0.75276 0.0
H898 H 0.47547 0.04126 0.76569 0.0
C899 C 0.55713 0.03004 0.75297 0.0
C900 C 0.5076 -0.00102 0.73381 0.0
C901 C 0.57921 0.02744 0.75881 0.0
C902 C 0.41659 0.98986 0.75838 0.0
C903 C 0.43876 0.99131 0.75246 0.0
C904 C 0.48422 0.0297 0.75637 0.0
C905 C 0.5439 0.01133 0.74869 0.0
C906 C 0.51944 0.01368 0.74589 0.0
C907 C 0.4481 0.01207 0.74771 0.0
C908 C 0.47246 0.01411 0.74526 0.0
H909 H 0.58302 0.97083 0.7548 0.0
H910 H 0.54423 0.97519 0.74599 0.0
H911 H 0.51578 0.04071 0.76656 0.0
H912 H 0.40232 0.04474 0.7537 0.0
H913 H 0.44133 0.0473 0.744 0.0
C914 C 0.98822 0.41604 0.24128 0.0
C915 C 0.00547 0.4086 0.25341 0.0
C916 C 0.98781 0.43809 0.2347 0.0
C917 C 0.02179 0.48951 0.2301 0.0
H918 H 0.96697 0.52 0.24346 0.0
C919 C 0.0192 0.58014 0.25512 0.0
C920 C 2e-05 0.59309 0.2521 0.0
C921 C 0.02014 0.55814 0.2486 0.0
C922 C 0.98224 0.5118 0.23912 0.0
H923 H 0.03615 0.41849 0.26762 0.0
H924 H 0.03556 0.45661 0.25595 0.0
H925 H 0.96816 0.47947 0.24378 0.0
H926 H 0.96748 0.59377 0.23858 0.0
H927 H 0.96918 0.55528 0.22703 0.0
H928 H 0.03613 0.52189 0.2262 0.0
C929 C 0.02249 0.44536 0.25134 0.0
C930 C 0.98291 0.48851 0.23933 0.0
C931 C 0.0228 0.42344 0.25805 0.0
C932 C 0.98233 0.58403 0.2414 0.0
C933 C 0.98331 0.56202 0.23479 0.0
C934 C 0.02109 0.5128 0.22978 0.0
C935 C 0.00476 0.45306 0.23996 0.0
C936 C 0.00292 0.47718 0.23558 0.0
C937 C 0.00196 0.54861 0.23883 0.0
C938 C 0.00156 0.52422 0.23506 0.0
H939 H 0.97483 0.40494 0.23712 0.0
H940 H 0.97402 0.44358 0.22582 0.0
H941 H 0.03734 0.48114 0.22686 0.0
H942 H 0.033 0.58656 0.26349 0.0
H943 H 0.03463 0.54824 0.25226 0.0
C944 C 0.10848 0.20587 0.29664 0.0
C945 C 0.10284 0.2231 0.28379 0.0
C946 C 0.12469 0.19014 0.29168 0.0
C947 C 0.17047 0.17872 0.25697 0.0
H948 H 0.15615 0.11685 0.26776 0.0
C949 C 0.2127 0.10471 0.21833 0.0
C950 C 0.21875 0.08619 0.22962 0.0
C951 C 0.20018 0.12208 0.22624 0.0
C952 C 0.16052 0.13407 0.26486 0.0
H953 H 0.11059 0.23798 0.25611 0.0
H954 H 0.1383 0.21023 0.24723 0.0
H955 H 0.13178 0.1463 0.27963 0.0
H956 H 0.21686 0.07175 0.25825 0.0
H957 H 0.19467 0.10193 0.27192 0.0
H958 H 0.1989 0.16631 0.24171 0.0
C959 C 0.13042 0.20895 0.26122 0.0
C960 C 0.14661 0.15096 0.27171 0.0
C961 C 0.11431 0.22471 0.2662 0.0
C962 C 0.21211 0.08554 0.24904 0.0
C963 C 0.19948 0.10285 0.25691 0.0
C964 C 0.18431 0.16179 0.25001 0.0
C965 C 0.13556 0.19128 0.27377 0.0
C966 C 0.15129 0.17348 0.26768 0.0
C967 C 0.19335 0.12127 0.24558 0.0
C968 C 0.17935 0.1393 0.25374 0.0
H969 H 0.09987 0.20407 0.31025 0.0
H970 H 0.12849 0.17692 0.3018 0.0
H971 H 0.17476 0.19591 0.25388 0.0
H972 H 0.21727 0.10559 0.20326 0.0
H973 H 0.19541 0.13593 0.2171 0.0
C974 C 0.88288 0.22637 0.7325 0.0
C975 C 0.89555 0.22287 0.71573 0.0
C976 C 0.86642 0.21116 0.73793 0.0
C977 C 0.85014 0.15234 0.73051 0.0
H978 H 0.79606 0.17074 0.75663 0.0
C979 C 0.78103 0.09017 0.75086 0.0
C980 C 0.77358 0.09123 0.77005 0.0
C981 C 0.79445 0.10702 0.74328 0.0
C982 C 0.81115 0.16541 0.74941 0.0
H983 H 0.90033 0.20087 0.69124 0.0
H984 H 0.87102 0.17492 0.70024 0.0
H985 H 0.82179 0.199 0.74447 0.0
H986 H 0.77414 0.11109 0.79619 0.0
H987 H 0.79729 0.14075 0.78276 0.0
H988 H 0.83937 0.11877 0.73535 0.0
C989 C 0.87419 0.18914 0.70948 0.0
C990 C 0.82592 0.18155 0.74249 0.0
C991 C 0.8908 0.20422 0.70416 0.0
C992 C 0.77937 0.10987 0.7813 0.0
C993 C 0.79265 0.12683 0.77364 0.0
C994 C 0.83528 0.13625 0.73724 0.0
C995 C 0.86207 0.1922 0.72661 0.0
C996 C 0.8457 0.1752 0.73309 0.0
C997 C 0.80052 0.12541 0.75463 0.0
C998 C 0.81574 0.14262 0.74688 0.0
H999 H 0.88582 0.24076 0.74159 0.0
H1000 H 0.85757 0.21398 0.7513 0.0
H1001 H 0.86541 0.1468 0.72371 0.0
H1002 H 0.77646 0.07633 0.74164 0.0
H1003 H 0.80006 0.10569 0.72849 0.0
C1004 C 0.87878 0.77 0.26734 0.0
C1005 C 0.89183 0.77318 0.28392 0.0
C1006 C 0.86225 0.78535 0.26237 0.0
C1007 C 0.84662 0.8442 0.27043 0.0
H1008 H 0.79164 0.82648 0.24543 0.0
C1009 C 0.77846 0.90774 0.2505 0.0
C1010 C 0.77023 0.90629 0.23157 0.0
C1011 C 0.79168 0.89072 0.25811 0.0
C1012 C 0.80697 0.83164 0.25233 0.0
H1013 H 0.89727 0.79482 0.30856 0.0
H1014 H 0.86792 0.82108 0.3003 0.0
H1015 H 0.81739 0.79791 0.25702 0.0
H1016 H 0.76926 0.8856 0.20592 0.0
H1017 H 0.79211 0.85575 0.21936 0.0
H1018 H 0.83618 0.87791 0.26575 0.0
C1019 C 0.87078 0.80696 0.29089 0.0
C1020 C 0.82174 0.81531 0.25894 0.0
C1021 C 0.88743 0.7917 0.29578 0.0
C1022 C 0.77507 0.88714 0.22063 0.0
C1023 C 0.78817 0.87004 0.2283 0.0
C1024 C 0.83179 0.86049 0.26398 0.0
C1025 C 0.85825 0.80419 0.27395 0.0
C1026 C 0.84186 0.8214 0.2679 0.0
C1027 C 0.79682 0.8718 0.24704 0.0
C1028 C 0.81192 0.85439 0.25471 0.0
H1029 H 0.88148 0.75573 0.25804 0.0
H1030 H 0.85306 0.78278 0.24914 0.0
H1031 H 0.86213 0.84953 0.27692 0.0
H1032 H 0.77467 0.92203 0.25947 0.0
H1033 H 0.79787 0.89236 0.2727 0.0
C1034 C 0.12132 0.76457 0.73027 0.0
C1035 C 0.10854 0.76759 0.71351 0.0
C1036 C 0.13788 0.77989 0.73524 0.0
C1037 C 0.15327 0.83864 0.7269 0.0
H1038 H 0.20775 0.82176 0.75314 0.0
C1039 C 0.21962 0.90335 0.74804 0.0
C1040 C 0.22733 0.90212 0.76713 0.0
C1041 C 0.20704 0.88602 0.74017 0.0
C1042 C 0.19256 0.82668 0.74588 0.0
H1043 H 0.10372 0.78879 0.68849 0.0
H1044 H 0.13311 0.81496 0.69677 0.0
H1045 H 0.18265 0.79279 0.74122 0.0
H1046 H 0.22813 0.88151 0.79282 0.0
H1047 H 0.20633 0.85113 0.77897 0.0
H1048 H 0.16314 0.87249 0.73161 0.0
C1049 C 0.13 0.80101 0.70631 0.0
C1050 C 0.17817 0.81012 0.73908 0.0
C1051 C 0.11334 0.7858 0.70142 0.0
C1052 C 0.22268 0.88288 0.778 0.0
C1053 C 0.21019 0.86548 0.77008 0.0
C1054 C 0.16772 0.85515 0.73356 0.0
C1055 C 0.14214 0.79851 0.72349 0.0
C1056 C 0.15824 0.81592 0.72967 0.0
C1057 C 0.20201 0.86702 0.75118 0.0
C1058 C 0.1874 0.84935 0.74327 0.0
H1059 H 0.11831 0.75054 0.73975 0.0
H1060 H 0.14678 0.77752 0.74865 0.0
H1061 H 0.13787 0.84374 0.72008 0.0
H1062 H 0.22331 0.91773 0.73913 0.0
H1063 H 0.20121 0.8875 0.72546 0.0
C1064 C 0.7715 0.87362 0.78075 0.0
C1065 C 0.7724 0.89574 0.77408 0.0
C1066 C 0.78755 0.8581 0.77489 0.0
C1067 C 0.84493 0.85474 0.75776 0.0
H1068 H 0.82849 0.79695 0.73704 0.0
C1069 C 0.90912 0.79905 0.7199 0.0
C1070 C 0.90792 0.77591 0.72285 0.0
C1071 C 0.89214 0.81299 0.72648 0.0
C1072 C 0.83339 0.81288 0.74306 0.0
H1073 H 0.79083 0.91909 0.75633 0.0
H1074 H 0.81886 0.89207 0.74621 0.0
H1075 H 0.79951 0.82236 0.74848 0.0
H1076 H 0.88814 0.74915 0.735 0.0
H1077 H 0.85862 0.77356 0.74692 0.0
H1078 H 0.87874 0.84536 0.75272 0.0
C1079 C 0.80574 0.8867 0.75586 0.0
C1080 C 0.81678 0.82742 0.74956 0.0
C1081 C 0.7896 0.90208 0.76151 0.0
C1082 C 0.88934 0.76693 0.73239 0.0
C1083 C 0.87243 0.78092 0.73916 0.0
C1084 C 0.86152 0.84017 0.75148 0.0
C1085 C 0.80492 0.8646 0.76254 0.0
C1086 C 0.82242 0.84858 0.75672 0.0
C1087 C 0.87368 0.80414 0.73636 0.0
C1088 C 0.85596 0.81918 0.7438 0.0
H1089 H 0.75836 0.86833 0.79042 0.0
H1090 H 0.78664 0.84116 0.78028 0.0
H1091 H 0.84972 0.87085 0.76351 0.0
H1092 H 0.92312 0.80634 0.71233 0.0
H1093 H 0.89342 0.83073 0.72366 0.0
C1094 C 0.21436 0.87504 0.21408 0.0
C1095 C 0.23161 0.88387 0.22549 0.0
C1096 C 0.20104 0.85769 0.22096 0.0
C1097 C 0.17882 0.83601 0.26546 0.0
H1098 H 0.1626 0.78413 0.23519 0.0
C1099 C 0.11561 0.77182 0.29411 0.0
C1100 C 0.10032 0.76324 0.28074 0.0
C1101 C 0.13409 0.78401 0.28786 0.0
C1102 C 0.16676 0.79863 0.24376 0.0
H1103 H 0.24899 0.88045 0.25278 0.0
H1104 H 0.2251 0.8507 0.26501 0.0
H1105 H 0.19051 0.81013 0.22293 0.0
H1106 H 0.09225 0.76056 0.25044 0.0
H1107 H 0.12394 0.78246 0.2395 0.0
H1108 H 0.1544 0.82541 0.28583 0.0
C1109 C 0.22201 0.85732 0.25074 0.0
C1110 C 0.18284 0.81341 0.23677 0.0
C1111 C 0.23556 0.87444 0.24375 0.0
C1112 C 0.10396 0.7668 0.26102 0.0
C1113 C 0.12222 0.77926 0.25477 0.0
C1114 C 0.1625 0.82145 0.27233 0.0
C1115 C 0.20447 0.849 0.23949 0.0
C1116 C 0.18883 0.83233 0.24748 0.0
C1117 C 0.13745 0.78819 0.26811 0.0
C1118 C 0.15605 0.8027 0.26147 0.0
H1119 H 0.21054 0.88206 0.2001 0.0
H1120 H 0.18744 0.85171 0.21211 0.0
H1121 H 0.18297 0.85066 0.27388 0.0
H1122 H 0.11327 0.76907 0.3094 0.0
H1123 H 0.14567 0.79023 0.29853 0.0
C1124 C 0.09198 0.22431 0.7524 0.0
C1125 C 0.09363 0.23182 0.73326 0.0
C1126 C 0.1085 0.21073 0.7603 0.0
C1127 C 0.16663 0.19267 0.75516 0.0
H1128 H 0.14587 0.13823 0.77945 0.0
C1129 C 0.22471 0.11818 0.77111 0.0
C1130 C 0.22041 0.10492 0.78741 0.0
C1131 C 0.21028 0.13547 0.766 0.0
C1132 C 0.15201 0.15353 0.77308 0.0
H1133 H 0.1143 0.23141 0.70761 0.0
H1134 H 0.14335 0.20795 0.72161 0.0
H1135 H 0.11898 0.16547 0.76792 0.0
H1136 H 0.19782 0.10001 0.81145 0.0
H1137 H 0.17325 0.13072 0.80303 0.0
H1138 H 0.1997 0.1808 0.76039 0.0
C1139 C 0.12924 0.21266 0.73044 0.0
C1140 C 0.13657 0.1691 0.7664 0.0
C1141 C 0.11261 0.22611 0.72245 0.0
C1142 C 0.20179 0.10995 0.79889 0.0
C1143 C 0.18748 0.12739 0.79389 0.0
C1144 C 0.18213 0.17718 0.76203 0.0
C1145 C 0.12713 0.20454 0.74933 0.0
C1146 C 0.14371 0.18871 0.75723 0.0
C1147 C 0.1913 0.14009 0.77718 0.0
C1148 C 0.175 0.1573 0.77091 0.0
H1149 H 0.07785 0.22882 0.76128 0.0
H1150 H 0.10664 0.20496 0.775 0.0
H1151 H 0.17256 0.20778 0.7483 0.0
H1152 H 0.23912 0.11505 0.76212 0.0
H1153 H 0.21368 0.14475 0.75295 0.0
C1154 C 0.87948 0.23942 0.26915 0.0
C1155 C 0.9015 0.23137 0.2693 0.0
C1156 C 0.86238 0.22691 0.26075 0.0
C1157 C 0.85294 0.178 0.22829 0.0
H1158 H 0.7947 0.17749 0.25229 0.0
C1159 C 0.7847 0.11944 0.20009 0.0
C1160 C 0.77092 0.10911 0.21384 0.0
C1161 C 0.79838 0.13733 0.20521 0.0
C1162 C 0.81092 0.17723 0.24549 0.0
H1163 H 0.92271 0.20394 0.26019 0.0
H1164 H 0.89298 0.18168 0.24688 0.0
H1165 H 0.82337 0.20215 0.26469 0.0
H1166 H 0.76001 0.1106 0.24366 0.0
H1167 H 0.78501 0.14036 0.25288 0.0
H1168 H 0.84123 0.1519 0.21013 0.0
C1169 C 0.88885 0.19792 0.25271 0.0
C1170 C 0.82731 0.19172 0.25242 0.0
C1171 C 0.90594 0.21055 0.26077 0.0
C1172 C 0.77078 0.11763 0.23273 0.0
C1173 C 0.78486 0.13515 0.23796 0.0
C1174 C 0.83676 0.16319 0.22166 0.0
C1175 C 0.86683 0.20591 0.2525 0.0
C1176 C 0.84869 0.19201 0.24412 0.0
C1177 C 0.79911 0.14506 0.22433 0.0
C1178 C 0.8156 0.16233 0.23034 0.0
H1179 H 0.87535 0.25528 0.27572 0.0
H1180 H 0.8457 0.23377 0.26068 0.0
H1181 H 0.86898 0.17812 0.22116 0.0
H1182 H 0.78552 0.11336 0.18543 0.0
H1183 H 0.80866 0.14482 0.19415 0.0
loop_
_geom_bond_atom_site_label_1
_geom_bond_atom_site_label_2
_geom_bond_distance
_geom_bond_site_symmetry_2
_ccdc_geom_bond_type
Li0 N17 1.990 . S
Li0 O60 1.956 . S
Li0 O61 1.970 . S
Li0 O62 1.982 . S
Li1 N25 1.989 1_545 S
Li1 O60 1.987 . S
Li1 O61 1.957 . S
Li1 O63 1.945 1_545 S
Li2 N47 1.990 . S
Li2 O60 1.961 . S
Li2 O62 1.957 . S
Li2 O63 1.970 1_545 S
Li3 N53 1.990 . S
Li3 O61 1.961 1_565 S
Li3 O62 1.950 1_565 S
Li3 O63 1.956 . S
C4 C6 1.348 . S
C4 C7 1.356 . S
C4 O60 1.325 . S
N5 C8 1.314 . S
N5 C9 1.279 . S
C6 C4 1.348 . S
C6 C8 1.353 . S
C6 H64 0.929 . S
C7 C4 1.356 . S
C7 C9 1.358 . S
C7 H65 0.930 . S
C8 N5 1.314 . S
C8 C6 1.353 . S
C8 H66 0.930 . S
C9 N5 1.279 . S
C9 C7 1.358 . S
C9 H67 0.930 . S
C10 C13 1.381 . S
C10 C14 1.323 1_545 S
C10 O61 1.326 . S
C11 N12 1.283 . S
C11 C14 1.358 . S
C11 H68 0.930 . S
N12 C11 1.283 . S
N12 C15 1.311 1_565 S
C13 C10 1.381 . S
C13 C15 1.353 . S
C13 H69 0.929 . S
C14 C10 1.323 1_565 S
C14 C11 1.358 . S
C14 H70 0.930 . S
C15 N12 1.311 1_545 S
C15 C13 1.353 . S
C15 H71 0.930 . S
C16 N17 1.314 . S
C16 C21 1.353 . S
C16 H22 0.930 . S
N17 Li0 1.990 . S
N17 C16 1.314 . S
N17 C19 1.279 . S
C18 C19 1.358 . S
C18 C20 1.356 . S
C18 H72 0.930 . S
C19 N17 1.279 . S
C19 C18 1.358 . S
C19 H23 0.930 . S
C20 C18 1.356 . S
C20 C21 1.348 . S
C21 C16 1.353 . S
C21 C20 1.348 . S
C21 H73 0.929 . S
H22 C16 0.930 . S
H23 C19 0.930 . S
C24 N25 1.324 . S
C24 C26 1.353 . S
C24 H30 0.930 . S
N25 Li1 1.989 1_565 S
N25 C24 1.324 . S
N25 C28 1.270 1_565 S
C26 C24 1.353 . S
C26 C29 1.335 1_565 S
C26 H74 0.929 . S
C27 C28 1.358 . S
C27 C29 1.365 . S
C27 H75 0.930 . S
C28 N25 1.270 1_545 S
C28 C27 1.358 . S
C28 H31 0.930 . S
C29 C26 1.335 1_545 S
C29 C27 1.365 . S
H30 C24 0.930 . S
H31 C28 0.930 . S
C32 C34 1.308 1_545 S
C32 C35 1.396 . S
C32 O62 1.325 . S
N33 C36 1.314 1_545 S
N33 C37 1.279 . S
C34 C32 1.308 1_565 S
C34 C36 1.353 . S
C34 H76 0.929 . S
C35 C32 1.396 . S
C35 C37 1.358 . S
C35 H77 0.930 . S
C36 N33 1.314 1_565 S
C36 C34 1.353 . S
C36 H78 0.930 . S
C37 N33 1.279 . S
C37 C35 1.358 . S
C37 H79 0.930 . S
C38 C39 1.348 . S
C38 C40 1.356 . S
C38 O63 1.325 . S
C39 C38 1.348 . S
C39 C41 1.353 . S
C39 H80 0.929 . S
C40 C38 1.356 . S
C40 C42 1.358 . S
C40 H81 0.930 . S
C41 C39 1.353 . S
C41 N43 1.314 . S
C41 H82 0.930 . S
C42 C40 1.358 . S
C42 N43 1.279 . S
C42 H83 0.930 . S
N43 C41 1.314 . S
N43 C42 1.279 . S
C44 C46 1.353 . S
C44 N47 1.314 . S
C44 H50 0.930 . S
C45 N47 1.279 1_565 S
C45 C48 1.358 . S
C45 H51 0.930 . S
C46 C44 1.353 . S
C46 C49 1.361 . S
C46 H84 0.929 . S
N47 Li2 1.990 . S
N47 C44 1.314 . S
N47 C45 1.279 1_545 S
C48 C45 1.358 . S
C48 C49 1.349 1_565 S
C48 H85 0.930 . S
C49 C46 1.361 . S
C49 C48 1.349 1_545 S
H50 C44 0.930 . S
H51 C45 0.930 . S
C52 N53 1.314 . S
C52 C54 1.353 . S
C52 H58 0.930 . S
N53 Li3 1.990 . S
N53 C52 1.314 . S
N53 C56 1.279 . S
C54 C52 1.353 . S
C54 C57 1.348 . S
C54 H86 0.929 . S
C55 C56 1.358 . S
C55 C57 1.356 . S
C55 H87 0.930 . S
C56 N53 1.279 . S
C56 C55 1.358 . S
C56 H59 0.930 . S
C57 C54 1.348 . S
C57 C55 1.356 . S
H58 C52 0.930 . S
H59 C56 0.930 . S
O60 Li0 1.956 . S
O60 Li1 1.987 . S
O60 Li2 1.961 . S
O60 C4 1.325 . S
O61 Li0 1.970 . S
O61 Li1 1.957 . S
O61 Li3 1.961 1_545 S
O61 C10 1.326 . S
O62 Li0 1.982 . S
O62 Li2 1.957 . S
O62 Li3 1.950 1_545 S
O62 C32 1.325 . S
O63 Li1 1.945 1_565 S
O63 Li2 1.970 1_565 S
O63 Li3 1.956 . S
O63 C38 1.325 . S
H64 C6 0.929 . S
H65 C7 0.930 . S
H66 C8 0.930 . S
H67 C9 0.930 . S
H68 C11 0.930 . S
H69 C13 0.929 . S
H70 C14 0.930 . S
H71 C15 0.930 . S
H72 C18 0.930 . S
H73 C21 0.929 . S
H74 C26 0.929 . S
H75 C27 0.930 . S
H76 C34 0.929 . S
H77 C35 0.930 . S
H78 C36 0.930 . S
H79 C37 0.930 . S
H80 C39 0.929 . S
H81 C40 0.930 . S
H82 C41 0.930 . S
H83 C42 0.930 . S
H84 C46 0.929 . S
H85 C48 0.930 . S
H86 C54 0.929 . S
H87 C55 0.930 . S
Li88 N105 1.990 . S
Li88 O148 1.956 . S
Li88 O149 1.970 1_455 S
Li88 O150 1.961 1_455 S
Li89 N113 1.991 . S
Li89 O148 1.963 1_655 S
Li89 O149 1.963 . S
Li89 O151 1.960 1_655 S
Li90 N135 1.990 . S
Li90 O148 1.961 . S
Li90 O150 1.954 1_455 S
Li90 O151 1.970 . S
Li91 N141 1.990 . S
Li91 O149 1.961 . S
Li91 O150 1.972 . S
Li91 O151 1.956 1_655 S
C92 C94 1.348 . S
C92 C95 1.356 . S
C92 O148 1.325 . S
N93 C96 1.314 . S
N93 C97 1.279 . S
C94 C92 1.348 . S
C94 C96 1.353 . S
C94 H152 0.929 . S
C95 C92 1.356 . S
C95 C97 1.358 . S
C95 H153 0.930 . S
C96 N93 1.314 . S
C96 C94 1.353 . S
C96 H154 0.930 . S
C97 N93 1.279 . S
C97 C95 1.358 . S
C97 H155 0.930 . S
C98 C101 1.348 . S
C98 C102 1.356 . S
C98 O149 1.325 . S
C99 N100 1.279 . S
C99 C102 1.358 . S
C99 H156 0.930 . S
N100 C99 1.279 . S
N100 C103 1.314 . S
C101 C98 1.348 . S
C101 C103 1.353 . S
C101 H157 0.929 . S
C102 C98 1.356 . S
C102 C99 1.358 . S
C102 H158 0.930 . S
C103 N100 1.314 . S
C103 C101 1.353 . S
C103 H159 0.930 . S
C104 N105 1.314 1_655 S
C104 C109 1.353 . S
C104 H110 0.930 . S
N105 Li88 1.990 . S
N105 C104 1.314 1_455 S
N105 C107 1.279 . S
C106 C107 1.358 . S
C106 C108 1.381 . S
C106 H160 0.930 . S
C107 N105 1.279 . S
C107 C106 1.358 . S
C107 H111 0.930 . S
C108 C106 1.381 . S
C108 C109 1.327 1_455 S
C109 C104 1.353 . S
C109 C108 1.327 1_655 S
C109 H161 0.929 . S
H110 C104 0.930 . S
H111 C107 0.930 . S
C112 N113 1.314 1_455 S
C112 C114 1.353 . S
C112 H118 0.930 . S
N113 Li89 1.991 . S
N113 C112 1.314 1_655 S
N113 C116 1.279 . S
C114 C112 1.353 . S
C114 C117 1.367 . S
C114 H162 0.929 . S
C115 C116 1.358 . S
C115 C117 1.334 1_655 S
C115 H163 0.930 . S
C116 N113 1.279 . S
C116 C115 1.358 . S
C116 H119 0.930 . S
C117 C114 1.367 . S
C117 C115 1.334 1_455 S
H118 C112 0.930 . S
H119 C116 0.930 . S
C120 C122 1.328 1_455 S
C120 C123 1.381 . S
C120 O150 1.324 1_455 S
N121 C124 1.314 1_455 S
N121 C125 1.279 . S
C122 C120 1.328 1_655 S
C122 C124 1.353 . S
C122 H164 0.929 . S
C123 C120 1.381 . S
C123 C125 1.358 . S
C123 H165 0.930 . S
C124 N121 1.314 1_655 S
C124 C122 1.353 . S
C124 H166 0.930 . S
C125 N121 1.279 . S
C125 C123 1.358 . S
C125 H167 0.930 . S
C126 C127 1.368 . S
C126 C128 1.333 1_455 S
C126 O151 1.327 . S
C127 C126 1.368 . S
C127 C129 1.353 . S
C127 H168 0.929 . S
C128 C126 1.333 1_655 S
C128 C130 1.358 . S
C128 H169 0.930 . S
C129 C127 1.353 . S
C129 N131 1.314 1_455 S
C129 H170 0.930 . S
C130 C128 1.358 . S
C130 N131 1.279 . S
C130 H171 0.930 . S
N131 C129 1.314 1_655 S
N131 C130 1.279 . S
C132 C134 1.353 . S
C132 N135 1.314 . S
C132 H138 0.930 . S
C133 N135 1.279 . S
C133 C136 1.358 . S
C133 H139 0.930 . S
C134 C132 1.353 . S
C134 C137 1.348 . S
C134 H172 0.929 . S
N135 Li90 1.990 . S
N135 C132 1.314 . S
N135 C133 1.279 . S
C136 C133 1.358 . S
C136 C137 1.356 . S
C136 H173 0.930 . S
C137 C134 1.348 . S
C137 C136 1.356 . S
H138 C132 0.930 . S
H139 C133 0.930 . S
C140 N141 1.314 . S
C140 C142 1.353 . S
C140 H146 0.930 . S
N141 Li91 1.990 . S
N141 C140 1.314 . S
N141 C144 1.279 . S
C142 C140 1.353 . S
C142 C145 1.348 . S
C142 H174 0.929 . S
C143 C144 1.358 . S
C143 C145 1.356 . S
C143 H175 0.930 . S
C144 N141 1.279 . S
C144 C143 1.358 . S
C144 H147 0.930 . S
C145 C142 1.348 . S
C145 C143 1.356 . S
H146 C140 0.930 . S
H147 C144 0.930 . S
O148 Li88 1.956 . S
O148 Li89 1.963 1_455 S
O148 Li90 1.961 . S
O148 C92 1.325 . S
O149 Li88 1.970 1_655 S
O149 Li89 1.963 . S
O149 Li91 1.961 . S
O149 C98 1.325 . S
O150 Li88 1.961 1_655 S
O150 Li90 1.954 1_655 S
O150 Li91 1.972 . S
O150 C120 1.324 1_655 S
O151 Li89 1.960 1_455 S
O151 Li90 1.970 . S
O151 Li91 1.956 1_455 S
O151 C126 1.327 . S
H152 C94 0.929 . S
H153 C95 0.930 . S
H154 C96 0.930 . S
H155 C97 0.930 . S
H156 C99 0.930 . S
H157 C101 0.929 . S
H158 C102 0.930 . S
H159 C103 0.930 . S
H160 C106 0.930 . S
H161 C109 0.929 . S
H162 C114 0.929 . S
H163 C115 0.930 . S
H164 C122 0.929 . S
H165 C123 0.930 . S
H166 C124 0.930 . S
H167 C125 0.930 . S
H168 C127 0.929 . S
H169 C128 0.930 . S
H170 C129 0.930 . S
H171 C130 0.930 . S
H172 C134 0.929 . S
H173 C136 0.930 . S
H174 C142 0.929 . S
H175 C143 0.930 . S
Li176 N193 1.990 . S
Li176 O236 1.956 . S
Li176 O237 1.970 1_545 S
Li176 O238 1.961 . S
Li177 N201 1.990 . S
Li177 O236 1.970 1_565 S
Li177 O237 1.956 . S
Li177 O239 1.961 1_565 S
Li178 N223 1.990 . S
Li178 O236 1.961 . S
Li178 O238 1.956 . S
Li178 O239 1.970 . S
Li179 N229 1.990 . S
Li179 O237 1.961 1_545 S
Li179 O238 1.970 . S
Li179 O239 1.956 . S
C180 C182 1.348 1_545 S
C180 C183 1.356 . S
C180 O236 1.325 . S
N181 C184 1.314 1_545 S
N181 C185 1.279 . S
C182 C180 1.348 1_565 S
C182 C184 1.353 . S
C182 H240 0.929 . S
C183 C180 1.356 . S
C183 C185 1.358 . S
C183 H241 0.930 . S
C184 N181 1.314 1_565 S
C184 C182 1.353 . S
C184 H242 0.930 . S
C185 N181 1.279 . S
C185 C183 1.358 . S
C185 H243 0.930 . S
C186 C189 1.348 . S
C186 C190 1.356 . S
C186 O237 1.325 . S
C187 N188 1.279 . S
C187 C190 1.358 . S
C187 H244 0.930 . S
N188 C187 1.279 . S
N188 C191 1.314 . S
C189 C186 1.348 . S
C189 C191 1.353 . S
C189 H245 0.929 . S
C190 C186 1.356 . S
C190 C187 1.358 . S
C190 H246 0.930 . S
C191 N188 1.314 . S
C191 C189 1.353 . S
C191 H247 0.930 . S
C192 N193 1.314 . S
C192 C197 1.353 . S
C192 H198 0.930 . S
N193 Li176 1.990 . S
N193 C192 1.314 . S
N193 C195 1.279 1_545 S
C194 C195 1.358 . S
C194 C196 1.356 1_565 S
C194 H248 0.930 . S
C195 N193 1.279 1_565 S
C195 C194 1.358 . S
C195 H199 0.930 . S
C196 C194 1.356 1_545 S
C196 C197 1.348 . S
C197 C192 1.353 . S
C197 C196 1.348 . S
C197 H249 0.929 . S
H198 C192 0.930 . S
H199 C195 0.930 . S
C200 N201 1.314 . S
C200 C202 1.353 . S
C200 H206 0.930 . S
N201 Li177 1.990 . S
N201 C200 1.314 . S
N201 C204 1.279 . S
C202 C200 1.353 . S
C202 C205 1.348 . S
C202 H250 0.929 . S
C203 C204 1.358 . S
C203 C205 1.356 . S
C203 H251 0.930 . S
C204 N201 1.279 . S
C204 C203 1.358 . S
C204 H207 0.930 . S
C205 C202 1.348 . S
C205 C203 1.356 . S
H206 C200 0.930 . S
H207 C204 0.930 . S
C208 C210 1.348 . S
C208 C211 1.356 . S
C208 O238 1.325 . S
N209 C212 1.314 . S
N209 C213 1.279 . S
C210 C208 1.348 . S
C210 C212 1.353 . S
C210 H252 0.929 . S
C211 C208 1.356 . S
C211 C213 1.358 . S
C211 H253 0.930 . S
C212 N209 1.314 . S
C212 C210 1.353 . S
C212 H254 0.930 . S
C213 N209 1.279 . S
C213 C211 1.358 . S
C213 H255 0.930 . S
C214 C215 1.348 . S
C214 C216 1.356 1_545 S
C214 O239 1.325 . S
C215 C214 1.348 . S
C215 C217 1.353 . S
C215 H256 0.929 . S
C216 C214 1.356 1_565 S
C216 C218 1.358 . S
C216 H257 0.930 . S
C217 C215 1.353 . S
C217 N219 1.346 . S
C217 H258 0.930 . S
C218 C216 1.358 . S
C218 N219 1.248 1_565 S
C218 H259 0.930 . S
N219 C217 1.346 . S
N219 C218 1.248 1_545 S
C220 C222 1.353 . S
C220 N223 1.314 . S
C220 H226 0.930 . S
C221 N223 1.279 . S
C221 C224 1.358 . S
C221 H227 0.930 . S
C222 C220 1.353 . S
C222 C225 1.348 . S
C222 H260 0.929 . S
N223 Li178 1.990 . S
N223 C220 1.314 . S
N223 C221 1.279 . S
C224 C221 1.358 . S
C224 C225 1.356 . S
C224 H261 0.930 . S
C225 C222 1.348 . S
C225 C224 1.356 . S
H226 C220 0.930 . S
H227 C221 0.930 . S
C228 N229 1.314 1_565 S
C228 C230 1.353 . S
C228 H234 0.930 . S
N229 Li179 1.990 . S
N229 C228 1.314 1_545 S
N229 C232 1.279 . S
C230 C228 1.353 . S
C230 C233 1.348 1_565 S
C230 H262 0.929 . S
C231 C232 1.358 . S
C231 C233 1.356 . S
C231 H263 0.930 . S
C232 N229 1.279 . S
C232 C231 1.358 . S
C232 H235 0.930 . S
C233 C230 1.348 1_545 S
C233 C231 1.356 . S
H234 C228 0.930 . S
H235 C232 0.930 . S
O236 Li176 1.956 . S
O236 Li177 1.970 1_545 S
O236 Li178 1.961 . S
O236 C180 1.325 . S
O237 Li176 1.970 1_565 S
O237 Li177 1.956 . S
O237 Li179 1.961 1_565 S
O237 C186 1.325 . S
O238 Li176 1.961 . S
O238 Li178 1.956 . S
O238 Li179 1.970 . S
O238 C208 1.325 . S
O239 Li177 1.961 1_545 S
O239 Li178 1.970 . S
O239 Li179 1.956 . S
O239 C214 1.325 . S
H240 C182 0.929 . S
H241 C183 0.930 . S
H242 C184 0.930 . S
H243 C185 0.930 . S
H244 C187 0.930 . S
H245 C189 0.929 . S
H246 C190 0.930 . S
H247 C191 0.930 . S
H248 C194 0.930 . S
H249 C197 0.929 . S
H250 C202 0.929 . S
H251 C203 0.930 . S
H252 C210 0.929 . S
H253 C211 0.930 . S
H254 C212 0.930 . S
H255 C213 0.930 . S
H256 C215 0.929 . S
H257 C216 0.930 . S
H258 C217 0.930 . S
H259 C218 0.930 . S
H260 C222 0.929 . S
H261 C224 0.930 . S
H262 C230 0.929 . S
H263 C231 0.930 . S
Li264 N281 1.990 . S
Li264 O324 1.956 1_655 S
Li264 O325 1.952 1_655 S
Li264 O326 1.961 . S
Li265 N289 1.990 . S
Li265 O324 1.970 . S
Li265 O325 1.977 . S
Li265 O327 1.961 . S
Li266 N311 1.989 1_455 S
Li266 O324 1.962 . S
Li266 O326 1.940 1_455 S
Li266 O327 1.987 . S
Li267 N317 1.990 . S
Li267 O325 1.963 . S
Li267 O326 1.970 1_455 S
Li267 O327 1.956 . S
C268 C270 1.348 . S
C268 C271 1.356 1_455 S
C268 O324 1.325 . S
N269 C272 1.314 1_655 S
N269 C273 1.279 . S
C270 C268 1.348 . S
C270 C272 1.353 . S
C270 H328 0.929 . S
C271 C268 1.356 1_655 S
C271 C273 1.358 . S
C271 H329 0.930 . S
C272 N269 1.314 1_455 S
C272 C270 1.353 . S
C272 H330 0.930 . S
C273 N269 1.279 . S
C273 C271 1.358 . S
C273 H331 0.930 . S
C274 C277 1.348 1_455 S
C274 C278 1.356 . S
C274 O325 1.326 . S
C275 N276 1.279 . S
C275 C278 1.358 . S
C275 H332 0.930 . S
N276 C275 1.279 . S
N276 C279 1.314 1_455 S
C277 C274 1.348 1_655 S
C277 C279 1.353 . S
C277 H333 0.929 . S
C278 C274 1.356 . S
C278 C275 1.358 . S
C278 H334 0.930 . S
C279 N276 1.314 1_655 S
C279 C277 1.353 . S
C279 H335 0.930 . S
C280 N281 1.314 . S
C280 C285 1.353 . S
C280 H286 0.930 . S
N281 Li264 1.990 . S
N281 C280 1.314 . S
N281 C283 1.279 . S
C282 C283 1.358 . S
C282 C284 1.356 . S
C282 H336 0.930 . S
C283 N281 1.279 . S
C283 C282 1.358 . S
C283 H287 0.930 . S
C284 C282 1.356 . S
C284 C285 1.348 . S
C285 C280 1.353 . S
C285 C284 1.348 . S
C285 H337 0.929 . S
H286 C280 0.930 . S
H287 C283 0.930 . S
C288 N289 1.314 . S
C288 C290 1.353 . S
C288 H294 0.930 . S
N289 Li265 1.990 . S
N289 C288 1.314 . S
N289 C292 1.279 . S
C290 C288 1.353 . S
C290 C293 1.348 . S
C290 H338 0.929 . S
C291 C292 1.358 . S
C291 C293 1.356 . S
C291 H339 0.930 . S
C292 N289 1.279 . S
C292 C291 1.358 . S
C292 H295 0.930 . S
C293 C290 1.348 . S
C293 C291 1.356 . S
H294 C288 0.930 . S
H295 C292 0.930 . S
C296 C298 1.348 . S
C296 C299 1.356 . S
C296 O326 1.325 . S
N297 C300 1.314 . S
N297 C301 1.279 . S
C298 C296 1.348 . S
C298 C300 1.353 . S
C298 H340 0.929 . S
C299 C296 1.356 . S
C299 C301 1.358 . S
C299 H341 0.930 . S
C300 N297 1.314 . S
C300 C298 1.353 . S
C300 H342 0.930 . S
C301 N297 1.279 . S
C301 C299 1.358 . S
C301 H343 0.930 . S
C302 C303 1.348 . S
C302 C304 1.356 . S
C302 O327 1.325 . S
C303 C302 1.348 . S
C303 C305 1.353 . S
C303 H344 0.929 . S
C304 C302 1.356 . S
C304 C306 1.358 . S
C304 H345 0.930 . S
C305 C303 1.353 . S
C305 N307 1.314 . S
C305 H346 0.930 . S
C306 C304 1.358 . S
C306 N307 1.279 . S
C306 H347 0.930 . S
N307 C305 1.314 . S
N307 C306 1.279 . S
C308 C310 1.353 . S
C308 N311 1.314 1_455 S
C308 H314 0.930 . S
C309 N311 1.279 . S
C309 C312 1.358 . S
C309 H315 0.930 . S
C310 C308 1.353 . S
C310 C313 1.348 . S
C310 H348 0.929 . S
N311 Li266 1.989 1_655 S
N311 C308 1.314 1_655 S
N311 C309 1.279 . S
C312 C309 1.358 . S
C312 C313 1.356 1_655 S
C312 H349 0.930 . S
C313 C310 1.348 . S
C313 C312 1.356 1_455 S
H314 C308 0.930 . S
H315 C309 0.930 . S
C316 N317 1.314 1_655 S
C316 C318 1.353 . S
C316 H322 0.930 . S
N317 Li267 1.990 . S
N317 C316 1.314 1_455 S
N317 C320 1.279 . S
C318 C316 1.353 . S
C318 C321 1.348 1_655 S
C318 H350 0.929 . S
C319 C320 1.358 . S
C319 C321 1.356 . S
C319 H351 0.930 . S
C320 N317 1.279 . S
C320 C319 1.358 . S
C320 H323 0.930 . S
C321 C318 1.348 1_455 S
C321 C319 1.356 . S
H322 C316 0.930 . S
H323 C320 0.930 . S
O324 Li264 1.956 1_455 S
O324 Li265 1.970 . S
O324 Li266 1.962 . S
O324 C268 1.325 . S
O325 Li264 1.952 1_455 S
O325 Li265 1.977 . S
O325 Li267 1.963 . S
O325 C274 1.326 . S
O326 Li264 1.961 . S
O326 Li266 1.940 1_655 S
O326 Li267 1.970 1_655 S
O326 C296 1.325 . S
O327 Li265 1.961 . S
O327 Li266 1.987 . S
O327 Li267 1.956 . S
O327 C302 1.325 . S
H328 C270 0.929 . S
H329 C271 0.930 . S
H330 C272 0.930 . S
H331 C273 0.930 . S
H332 C275 0.930 . S
H333 C277 0.929 . S
H334 C278 0.930 . S
H335 C279 0.930 . S
H336 C282 0.930 . S
H337 C285 0.929 . S
H338 C290 0.929 . S
H339 C291 0.930 . S
H340 C298 0.929 . S
H341 C299 0.930 . S
H342 C300 0.930 . S
H343 C301 0.930 . S
H344 C303 0.929 . S
H345 C304 0.930 . S
H346 C305 0.930 . S
H347 C306 0.930 . S
H348 C310 0.929 . S
H349 C312 0.930 . S
H350 C318 0.929 . S
H351 C319 0.930 . S
Li352 N369 1.990 . S
Li352 O412 1.956 . S
Li352 O413 1.970 . S
Li352 O414 1.961 . S
Li353 N377 1.990 . S
Li353 O412 1.970 . S
Li353 O413 1.956 . S
Li353 O415 1.961 1_545 S
Li354 N399 1.990 . S
Li354 O412 1.961 . S
Li354 O414 1.956 . S
Li354 O415 1.970 1_545 S
Li355 N405 1.990 . S
Li355 O413 1.961 1_565 S
Li355 O414 1.970 1_565 S
Li355 O415 1.956 . S
C356 C358 1.348 . S
C356 C359 1.356 . S
C356 O412 1.325 . S
N357 C360 1.314 . S
N357 C361 1.279 . S
C358 C356 1.348 . S
C358 C360 1.353 . S
C358 H416 0.929 . S
C359 C356 1.356 . S
C359 C361 1.358 . S
C359 H417 0.930 . S
C360 N357 1.314 . S
C360 C358 1.353 . S
C360 H418 0.930 . S
C361 N357 1.279 . S
C361 C359 1.358 . S
C361 H419 0.930 . S
C362 C365 1.348 . S
C362 C366 1.356 1_545 S
C362 O413 1.325 . S
C363 N364 1.248 1_565 S
C363 C366 1.358 . S
C363 H420 0.930 . S
N364 C363 1.248 1_545 S
N364 C367 1.346 . S
C365 C362 1.348 . S
C365 C367 1.353 . S
C365 H421 0.929 . S
C366 C362 1.356 1_565 S
C366 C363 1.358 . S
C366 H422 0.930 . S
C367 N364 1.346 . S
C367 C365 1.353 . S
C367 H423 0.930 . S
C368 N369 1.314 . S
C368 C373 1.353 . S
C368 H374 0.930 . S
N369 Li352 1.990 . S
N369 C368 1.314 . S
N369 C371 1.279 . S
C370 C371 1.358 . S
C370 C372 1.356 . S
C370 H424 0.930 . S
C371 N369 1.279 . S
C371 C370 1.358 . S
C371 H375 0.930 . S
C372 C370 1.356 . S
C372 C373 1.348 . S
C373 C368 1.353 . S
C373 C372 1.348 . S
C373 H425 0.929 . S
H374 C368 0.930 . S
H375 C371 0.930 . S
C376 N377 1.314 1_565 S
C376 C378 1.353 . S
C376 H382 0.930 . S
N377 Li353 1.990 . S
N377 C376 1.314 1_545 S
N377 C380 1.279 . S
C378 C376 1.353 . S
C378 C381 1.348 1_565 S
C378 H426 0.929 . S
C379 C380 1.358 . S
C379 C381 1.356 . S
C379 H427 0.930 . S
C380 N377 1.279 . S
C380 C379 1.358 . S
C380 H383 0.930 . S
C381 C378 1.348 1_545 S
C381 C379 1.356 . S
H382 C376 0.930 . S
H383 C380 0.930 . S
C384 C386 1.348 1_545 S
C384 C387 1.356 . S
C384 O414 1.325 . S
N385 C388 1.314 1_545 S
N385 C389 1.279 . S
C386 C384 1.348 1_565 S
C386 C388 1.353 . S
C386 H428 0.929 . S
C387 C384 1.356 . S
C387 C389 1.358 . S
C387 H429 0.930 . S
C388 N385 1.314 1_565 S
C388 C386 1.353 . S
C388 H430 0.930 . S
C389 N385 1.279 . S
C389 C387 1.358 . S
C389 H431 0.930 . S
C390 C391 1.348 . S
C390 C392 1.356 . S
C390 O415 1.325 . S
C391 C390 1.348 . S
C391 C393 1.353 . S
C391 H432 0.929 . S
C392 C390 1.356 . S
C392 C394 1.358 . S
C392 H433 0.930 . S
C393 C391 1.353 . S
C393 N395 1.314 . S
C393 H434 0.930 . S
C394 C392 1.358 . S
C394 N395 1.279 . S
C394 H435 0.930 . S
N395 C393 1.314 . S
N395 C394 1.279 . S
C396 C398 1.353 . S
C396 N399 1.314 . S
C396 H402 0.930 . S
C397 N399 1.279 1_565 S
C397 C400 1.358 . S
C397 H403 0.930 . S
C398 C396 1.353 . S
C398 C401 1.348 . S
C398 H436 0.929 . S
N399 Li354 1.990 . S
N399 C396 1.314 . S
N399 C397 1.279 1_545 S
C400 C397 1.358 . S
C400 C401 1.356 1_565 S
C400 H437 0.930 . S
C401 C398 1.348 . S
C401 C400 1.356 1_545 S
H402 C396 0.930 . S
H403 C397 0.930 . S
C404 N405 1.314 . S
C404 C406 1.353 . S
C404 H410 0.930 . S
N405 Li355 1.990 . S
N405 C404 1.314 . S
N405 C408 1.279 . S
C406 C404 1.353 . S
C406 C409 1.348 . S
C406 H438 0.929 . S
C407 C408 1.358 . S
C407 C409 1.356 . S
C407 H439 0.930 . S
C408 N405 1.279 . S
C408 C407 1.358 . S
C408 H411 0.930 . S
C409 C406 1.348 . S
C409 C407 1.356 . S
H410 C404 0.930 . S
H411 C408 0.930 . S
O412 Li352 1.956 . S
O412 Li353 1.970 . S
O412 Li354 1.961 . S
O412 C356 1.325 . S
O413 Li352 1.970 . S
O413 Li353 1.956 . S
O413 Li355 1.961 1_545 S
O413 C362 1.325 . S
O414 Li352 1.961 . S
O414 Li354 1.956 . S
O414 Li355 1.970 1_545 S
O414 C384 1.325 . S
O415 Li353 1.961 1_565 S
O415 Li354 1.970 1_565 S
O415 Li355 1.956 . S
O415 C390 1.325 . S
H416 C358 0.929 . S
H417 C359 0.930 . S
H418 C360 0.930 . S
H419 C361 0.930 . S
H420 C363 0.930 . S
H421 C365 0.929 . S
H422 C366 0.930 . S
H423 C367 0.930 . S
H424 C370 0.930 . S
H425 C373 0.929 . S
H426 C378 0.929 . S
H427 C379 0.930 . S
H428 C386 0.929 . S
H429 C387 0.930 . S
H430 C388 0.930 . S
H431 C389 0.930 . S
H432 C391 0.929 . S
H433 C392 0.930 . S
H434 C393 0.930 . S
H435 C394 0.930 . S
H436 C398 0.929 . S
H437 C400 0.930 . S
H438 C406 0.929 . S
H439 C407 0.930 . S
Li440 N457 1.990 . S
Li440 O500 1.956 . S
Li440 O501 1.970 1_455 S
Li440 O502 1.963 . S
Li441 N465 1.989 1_455 S
Li441 O500 1.987 . S
Li441 O501 1.940 1_455 S
Li441 O503 1.962 . S
Li442 N487 1.990 . S
Li442 O500 1.961 . S
Li442 O502 1.977 . S
Li442 O503 1.970 . S
Li443 N493 1.990 . S
Li443 O501 1.961 . S
Li443 O502 1.952 1_655 S
Li443 O503 1.956 1_655 S
C444 C446 1.348 . S
C444 C447 1.356 . S
C444 O500 1.325 . S
N445 C448 1.314 . S
N445 C449 1.279 . S
C446 C444 1.348 . S
C446 C448 1.353 . S
C446 H504 0.929 . S
C447 C444 1.356 . S
C447 C449 1.358 . S
C447 H505 0.930 . S
C448 N445 1.314 . S
C448 C446 1.353 . S
C448 H506 0.930 . S
C449 N445 1.279 . S
C449 C447 1.358 . S
C449 H507 0.930 . S
C450 C453 1.348 . S
C450 C454 1.356 . S
C450 O501 1.325 . S
C451 N452 1.279 . S
C451 C454 1.358 . S
C451 H508 0.930 . S
N452 C451 1.279 . S
N452 C455 1.314 . S
C453 C450 1.348 . S
C453 C455 1.353 . S
C453 H509 0.929 . S
C454 C450 1.356 . S
C454 C451 1.358 . S
C454 H510 0.930 . S
C455 N452 1.314 . S
C455 C453 1.353 . S
C455 H511 0.930 . S
C456 N457 1.314 1_655 S
C456 C461 1.353 . S
C456 H462 0.930 . S
N457 Li440 1.990 . S
N457 C456 1.314 1_455 S
N457 C459 1.279 . S
C458 C459 1.358 . S
C458 C460 1.356 . S
C458 H512 0.930 . S
C459 N457 1.279 . S
C459 C458 1.358 . S
C459 H463 0.930 . S
C460 C458 1.356 . S
C460 C461 1.348 1_455 S
C461 C456 1.353 . S
C461 C460 1.348 1_655 S
C461 H513 0.929 . S
H462 C456 0.930 . S
H463 C459 0.930 . S
C464 N465 1.314 1_455 S
C464 C466 1.353 . S
C464 H470 0.930 . S
N465 Li441 1.989 1_655 S
N465 C464 1.314 1_655 S
N465 C468 1.279 . S
C466 C464 1.353 . S
C466 C469 1.348 . S
C466 H514 0.929 . S
C467 C468 1.358 . S
C467 C469 1.356 1_655 S
C467 H515 0.930 . S
C468 N465 1.279 . S
C468 C467 1.358 . S
C468 H471 0.930 . S
C469 C466 1.348 . S
C469 C467 1.356 1_455 S
H470 C464 0.930 . S
H471 C468 0.930 . S
C472 C474 1.348 1_455 S
C472 C475 1.356 . S
C472 O502 1.326 . S
N473 C476 1.314 1_455 S
N473 C477 1.279 . S
C474 C472 1.348 1_655 S
C474 C476 1.353 . S
C474 H516 0.929 . S
C475 C472 1.356 . S
C475 C477 1.358 . S
C475 H517 0.930 . S
C476 N473 1.314 1_655 S
C476 C474 1.353 . S
C476 H518 0.930 . S
C477 N473 1.279 . S
C477 C475 1.358 . S
C477 H519 0.930 . S
C478 C479 1.348 . S
C478 C480 1.356 1_455 S
C478 O503 1.325 . S
C479 C478 1.348 . S
C479 C481 1.353 . S
C479 H520 0.929 . S
C480 C478 1.356 1_655 S
C480 C482 1.358 . S
C480 H521 0.930 . S
C481 C479 1.353 . S
C481 N483 1.314 1_455 S
C481 H522 0.930 . S
C482 C480 1.358 . S
C482 N483 1.279 . S
C482 H523 0.930 . S
N483 C481 1.314 1_655 S
N483 C482 1.279 . S
C484 C486 1.353 . S
C484 N487 1.314 . S
C484 H490 0.930 . S
C485 N487 1.279 . S
C485 C488 1.358 . S
C485 H491 0.930 . S
C486 C484 1.353 . S
C486 C489 1.348 . S
C486 H524 0.929 . S
N487 Li442 1.990 . S
N487 C484 1.314 . S
N487 C485 1.279 . S
C488 C485 1.358 . S
C488 C489 1.356 . S
C488 H525 0.930 . S
C489 C486 1.348 . S
C489 C488 1.356 . S
H490 C484 0.930 . S
H491 C485 0.930 . S
C492 N493 1.314 . S
C492 C494 1.353 . S
C492 H498 0.930 . S
N493 Li443 1.990 . S
N493 C492 1.314 . S
N493 C496 1.279 . S
C494 C492 1.353 . S
C494 C497 1.348 . S
C494 H526 0.929 . S
C495 C496 1.358 . S
C495 C497 1.356 . S
C495 H527 0.930 . S
C496 N493 1.279 . S
C496 C495 1.358 . S
C496 H499 0.930 . S
C497 C494 1.348 . S
C497 C495 1.356 . S
H498 C492 0.930 . S
H499 C496 0.930 . S
O500 Li440 1.956 . S
O500 Li441 1.987 . S
O500 Li442 1.961 . S
O500 C444 1.325 . S
O501 Li440 1.970 1_655 S
O501 Li441 1.940 1_655 S
O501 Li443 1.961 . S
O501 C450 1.325 . S
O502 Li440 1.963 . S
O502 Li442 1.977 . S
O502 Li443 1.952 1_455 S
O502 C472 1.326 . S
O503 Li441 1.962 . S
O503 Li442 1.970 . S
O503 Li443 1.956 1_455 S
O503 C478 1.325 . S
H504 C446 0.929 . S
H505 C447 0.930 . S
H506 C448 0.930 . S
H507 C449 0.930 . S
H508 C451 0.930 . S
H509 C453 0.929 . S
H510 C454 0.930 . S
H511 C455 0.930 . S
H512 C458 0.930 . S
H513 C461 0.929 . S
H514 C466 0.929 . S
H515 C467 0.930 . S
H516 C474 0.929 . S
H517 C475 0.930 . S
H518 C476 0.930 . S
H519 C477 0.930 . S
H520 C479 0.929 . S
H521 C480 0.930 . S
H522 C481 0.930 . S
H523 C482 0.930 . S
H524 C486 0.929 . S
H525 C488 0.930 . S
H526 C494 0.929 . S
H527 C495 0.930 . S
Li528 N545 1.990 . S
Li528 O588 1.957 . S
Li528 O589 1.970 1_545 S
Li528 O590 1.961 . S
Li529 N553 1.990 . S
Li529 O588 1.950 1_565 S
Li529 O589 1.956 . S
Li529 O591 1.961 1_565 S
Li530 N575 1.990 . S
Li530 O588 1.982 . S
Li530 O590 1.956 . S
Li530 O591 1.970 . S
Li531 N581 1.989 1_545 S
Li531 O589 1.945 1_545 S
Li531 O590 1.987 . S
Li531 O591 1.957 . S
C532 C534 1.308 1_545 S
C532 C535 1.396 . S
C532 O588 1.325 . S
N533 C536 1.314 1_545 S
N533 C537 1.279 . S
C534 C532 1.308 1_565 S
C534 C536 1.353 . S
C534 H592 0.929 . S
C535 C532 1.396 . S
C535 C537 1.358 . S
C535 H593 0.930 . S
C536 N533 1.314 1_565 S
C536 C534 1.353 . S
C536 H594 0.930 . S
C537 N533 1.279 . S
C537 C535 1.358 . S
C537 H595 0.930 . S
C538 C541 1.348 . S
C538 C542 1.356 . S
C538 O589 1.325 . S
C539 N540 1.279 . S
C539 C542 1.358 . S
C539 H596 0.930 . S
N540 C539 1.279 . S
N540 C543 1.314 . S
C541 C538 1.348 . S
C541 C543 1.353 . S
C541 H597 0.929 . S
C542 C538 1.356 . S
C542 C539 1.358 . S
C542 H598 0.930 . S
C543 N540 1.314 . S
C543 C541 1.353 . S
C543 H599 0.930 . S
C544 N545 1.314 . S
C544 C549 1.353 . S
C544 H550 0.930 . S
N545 Li528 1.990 . S
N545 C544 1.314 . S
N545 C547 1.279 1_545 S
C546 C547 1.358 . S
C546 C548 1.349 1_565 S
C546 H600 0.930 . S
C547 N545 1.279 1_565 S
C547 C546 1.358 . S
C547 H551 0.930 . S
C548 C546 1.349 1_545 S
C548 C549 1.361 . S
C549 C544 1.353 . S
C549 C548 1.361 . S
C549 H601 0.929 . S
H550 C544 0.930 . S
H551 C547 0.930 . S
C552 N553 1.314 . S
C552 C554 1.353 . S
C552 H558 0.930 . S
N553 Li529 1.990 . S
N553 C552 1.314 . S
N553 C556 1.279 . S
C554 C552 1.353 . S
C554 C557 1.348 . S
C554 H602 0.929 . S
C555 C556 1.358 . S
C555 C557 1.356 . S
C555 H603 0.930 . S
C556 N553 1.279 . S
C556 C555 1.358 . S
C556 H559 0.930 . S
C557 C554 1.348 . S
C557 C555 1.356 . S
H558 C552 0.930 . S
H559 C556 0.930 . S
C560 C562 1.348 . S
C560 C563 1.356 . S
C560 O590 1.325 . S
N561 C564 1.314 . S
N561 C565 1.279 . S
C562 C560 1.348 . S
C562 C564 1.353 . S
C562 H604 0.929 . S
C563 C560 1.356 . S
C563 C565 1.358 . S
C563 H605 0.930 . S
C564 N561 1.314 . S
C564 C562 1.353 . S
C564 H606 0.930 . S
C565 N561 1.279 . S
C565 C563 1.358 . S
C565 H607 0.930 . S
C566 C567 1.381 . S
C566 C568 1.323 1_545 S
C566 O591 1.326 . S
C567 C566 1.381 . S
C567 C569 1.353 . S
C567 H608 0.929 . S
C568 C566 1.323 1_565 S
C568 C570 1.358 . S
C568 H609 0.930 . S
C569 C567 1.353 . S
C569 N571 1.311 1_545 S
C569 H610 0.930 . S
C570 C568 1.358 . S
C570 N571 1.283 . S
C570 H611 0.930 . S
N571 C569 1.311 1_565 S
N571 C570 1.283 . S
C572 C574 1.353 . S
C572 N575 1.314 . S
C572 H578 0.930 . S
C573 N575 1.279 . S
C573 C576 1.358 . S
C573 H579 0.930 . S
C574 C572 1.353 . S
C574 C577 1.348 . S
C574 H612 0.929 . S
N575 Li530 1.990 . S
N575 C572 1.314 . S
N575 C573 1.279 . S
C576 C573 1.358 . S
C576 C577 1.356 . S
C576 H613 0.930 . S
C577 C574 1.348 . S
C577 C576 1.356 . S
H578 C572 0.930 . S
H579 C573 0.930 . S
C580 N581 1.324 . S
C580 C582 1.353 . S
C580 H586 0.930 . S
N581 Li531 1.989 1_565 S
N581 C580 1.324 . S
N581 C584 1.270 1_565 S
C582 C580 1.353 . S
C582 C585 1.335 1_565 S
C582 H614 0.929 . S
C583 C584 1.358 . S
C583 C585 1.365 . S
C583 H615 0.930 . S
C584 N581 1.270 1_545 S
C584 C583 1.358 . S
C584 H587 0.930 . S
C585 C582 1.335 1_545 S
C585 C583 1.365 . S
H586 C580 0.930 . S
H587 C584 0.930 . S
O588 Li528 1.957 . S
O588 Li529 1.950 1_545 S
O588 Li530 1.982 . S
O588 C532 1.325 . S
O589 Li528 1.970 1_565 S
O589 Li529 1.956 . S
O589 Li531 1.945 1_565 S
O589 C538 1.325 . S
O590 Li528 1.961 . S
O590 Li530 1.956 . S
O590 Li531 1.987 . S
O590 C560 1.325 . S
O591 Li529 1.961 1_545 S
O591 Li530 1.970 . S
O591 Li531 1.957 . S
O591 C566 1.326 . S
H592 C534 0.929 . S
H593 C535 0.930 . S
H594 C536 0.930 . S
H595 C537 0.930 . S
H596 C539 0.930 . S
H597 C541 0.929 . S
H598 C542 0.930 . S
H599 C543 0.930 . S
H600 C546 0.930 . S
H601 C549 0.929 . S
H602 C554 0.929 . S
H603 C555 0.930 . S
H604 C562 0.929 . S
H605 C563 0.930 . S
H606 C564 0.930 . S
H607 C565 0.930 . S
H608 C567 0.929 . S
H609 C568 0.930 . S
H610 C569 0.930 . S
H611 C570 0.930 . S
H612 C574 0.929 . S
H613 C576 0.930 . S
H614 C582 0.929 . S
H615 C583 0.930 . S
Li616 N633 1.990 . S
Li616 O676 1.956 1_655 S
Li616 O677 1.972 . S
Li616 O678 1.961 . S
Li617 N641 1.990 . S
Li617 O676 1.970 . S
Li617 O677 1.954 1_455 S
Li617 O679 1.961 . S
Li618 N663 1.991 . S
Li618 O676 1.960 1_655 S
Li618 O678 1.963 . S
Li618 O679 1.963 1_655 S
Li619 N669 1.990 . S
Li619 O677 1.961 1_455 S
Li619 O678 1.970 1_455 S
Li619 O679 1.956 . S
C620 C622 1.368 . S
C620 C623 1.333 1_455 S
C620 O676 1.327 . S
N621 C624 1.314 1_655 S
N621 C625 1.279 . S
C622 C620 1.368 . S
C622 C624 1.353 . S
C622 H680 0.929 . S
C623 C620 1.333 1_655 S
C623 C625 1.358 . S
C623 H681 0.930 . S
C624 N621 1.314 1_455 S
C624 C622 1.353 . S
C624 H682 0.930 . S
C625 N621 1.279 . S
C625 C623 1.358 . S
C625 H683 0.930 . S
C626 C629 1.328 1_455 S
C626 C630 1.381 . S
C626 O677 1.324 1_455 S
C627 N628 1.279 . S
C627 C630 1.358 . S
C627 H684 0.930 . S
N628 C627 1.279 . S
N628 C631 1.314 1_455 S
C629 C626 1.328 1_655 S
C629 C631 1.353 . S
C629 H685 0.929 . S
C630 C626 1.381 . S
C630 C627 1.358 . S
C630 H686 0.930 . S
C631 N628 1.314 1_655 S
C631 C629 1.353 . S
C631 H687 0.930 . S
C632 N633 1.314 . S
C632 C637 1.353 . S
C632 H638 0.930 . S
N633 Li616 1.990 . S
N633 C632 1.314 . S
N633 C635 1.279 . S
C634 C635 1.358 . S
C634 C636 1.356 . S
C634 H688 0.930 . S
C635 N633 1.279 . S
C635 C634 1.358 . S
C635 H639 0.930 . S
C636 C634 1.356 . S
C636 C637 1.348 . S
C637 C632 1.353 . S
C637 C636 1.348 . S
C637 H689 0.929 . S
H638 C632 0.930 . S
H639 C635 0.930 . S
C640 N641 1.314 . S
C640 C642 1.353 . S
C640 H646 0.930 . S
N641 Li617 1.990 . S
N641 C640 1.314 . S
N641 C644 1.279 . S
C642 C640 1.353 . S
C642 C645 1.348 . S
C642 H690 0.929 . S
C643 C644 1.358 . S
C643 C645 1.356 . S
C643 H691 0.930 . S
C644 N641 1.279 . S
C644 C643 1.358 . S
C644 H647 0.930 . S
C645 C642 1.348 . S
C645 C643 1.356 . S
H646 C640 0.930 . S
H647 C644 0.930 . S
C648 C650 1.348 . S
C648 C651 1.356 . S
C648 O678 1.325 . S
N649 C652 1.314 . S
N649 C653 1.279 . S
C650 C648 1.348 . S
C650 C652 1.353 . S
C650 H692 0.929 . S
C651 C648 1.356 . S
C651 C653 1.358 . S
C651 H693 0.930 . S
C652 N649 1.314 . S
C652 C650 1.353 . S
C652 H694 0.930 . S
C653 N649 1.279 . S
C653 C651 1.358 . S
C653 H695 0.930 . S
C654 C655 1.348 . S
C654 C656 1.356 . S
C654 O679 1.325 . S
C655 C654 1.348 . S
C655 C657 1.353 . S
C655 H696 0.929 . S
C656 C654 1.356 . S
C656 C658 1.358 . S
C656 H697 0.930 . S
C657 C655 1.353 . S
C657 N659 1.314 . S
C657 H698 0.930 . S
C658 C656 1.358 . S
C658 N659 1.279 . S
C658 H699 0.930 . S
N659 C657 1.314 . S
N659 C658 1.279 . S
C660 C662 1.353 . S
C660 N663 1.314 1_455 S
C660 H666 0.930 . S
C661 N663 1.279 . S
C661 C664 1.358 . S
C661 H667 0.930 . S
C662 C660 1.353 . S
C662 C665 1.367 . S
C662 H700 0.929 . S
N663 Li618 1.991 . S
N663 C660 1.314 1_655 S
N663 C661 1.279 . S
C664 C661 1.358 . S
C664 C665 1.334 1_655 S
C664 H701 0.930 . S
C665 C662 1.367 . S
C665 C664 1.334 1_455 S
H666 C660 0.930 . S
H667 C661 0.930 . S
C668 N669 1.314 1_655 S
C668 C670 1.353 . S
C668 H674 0.930 . S
N669 Li619 1.990 . S
N669 C668 1.314 1_455 S
N669 C672 1.279 . S
C670 C668 1.353 . S
C670 C673 1.327 1_655 S
C670 H702 0.929 . S
C671 C672 1.358 . S
C671 C673 1.381 . S
C671 H703 0.930 . S
C672 N669 1.279 . S
C672 C671 1.358 . S
C672 H675 0.930 . S
C673 C670 1.327 1_455 S
C673 C671 1.381 . S
H674 C668 0.930 . S
H675 C672 0.930 . S
O676 Li616 1.956 1_455 S
O676 Li617 1.970 . S
O676 Li618 1.960 1_455 S
O676 C620 1.327 . S
O677 Li616 1.972 . S
O677 Li617 1.954 1_655 S
O677 Li619 1.961 1_655 S
O677 C626 1.324 1_655 S
O678 Li616 1.961 . S
O678 Li618 1.963 . S
O678 Li619 1.970 1_655 S
O678 C648 1.325 . S
O679 Li617 1.961 . S
O679 Li618 1.963 1_455 S
O679 Li619 1.956 . S
O679 C654 1.325 . S
H680 C622 0.929 . S
H681 C623 0.930 . S
H682 C624 0.930 . S
H683 C625 0.930 . S
H684 C627 0.930 . S
H685 C629 0.929 . S
H686 C630 0.930 . S
H687 C631 0.930 . S
H688 C634 0.930 . S
H689 C637 0.929 . S
H690 C642 0.929 . S
H691 C643 0.930 . S
H692 C650 0.929 . S
H693 C651 0.930 . S
H694 C652 0.930 . S
H695 C653 0.930 . S
H696 C655 0.929 . S
H697 C656 0.930 . S
H698 C657 0.930 . S
H699 C658 0.930 . S
H700 C662 0.929 . S
H701 C664 0.930 . S
H702 C670 0.929 . S
H703 C671 0.930 . S
C704 C705 1.327 1_565 S
C704 C706 1.327 . S
C704 H729 0.950 . S
C705 C704 1.327 1_545 S
C705 C721 1.371 . S
C706 C704 1.327 . S
C706 C725 1.393 1_565 S
C706 H730 0.950 . S
C707 C724 1.574 1_554 S
C707 C726 1.368 . S
C707 H731 0.949 . S
H708 C712 0.949 . S
C709 C710 1.349 . S
C709 C711 1.327 . S
C709 H732 0.950 . S
C710 C709 1.349 . S
C710 C722 1.349 1_545 S
C711 C709 1.327 . S
C711 C727 1.429 . S
C711 H733 0.950 . S
C712 H708 0.949 . S
C712 C720 1.574 1_556 S
C712 C728 1.368 1_565 S
H713 C721 0.950 . S
H714 C719 0.950 . S
H715 C720 0.949 . S
H716 C722 0.950 . S
H717 C723 0.950 . S
H718 C724 0.949 . S
C719 H714 0.950 . S
C719 C721 1.327 . S
C719 C725 1.464 . S
C720 C712 1.574 1_554 S
C720 H715 0.949 . S
C720 C726 1.368 1_565 S
C721 C705 1.371 . S
C721 H713 0.950 . S
C721 C719 1.327 . S
C722 C710 1.349 1_565 S
C722 H716 0.950 . S
C722 C723 1.327 . S
C723 H717 0.950 . S
C723 C722 1.327 . S
C723 C727 1.429 1_565 S
C724 C707 1.574 1_556 S
C724 H718 0.949 . S
C724 C728 1.368 . S
C725 C706 1.393 1_545 S
C725 C719 1.464 . S
C725 C726 1.524 . S
C726 C707 1.368 . S
C726 C720 1.368 1_545 S
C726 C725 1.524 . S
C727 C711 1.429 . S
C727 C723 1.429 1_545 S
C727 C728 1.523 . S
C728 C712 1.368 1_545 S
C728 C724 1.368 . S
C728 C727 1.523 . S
H729 C704 0.950 . S
H730 C706 0.950 . S
H731 C707 0.949 . S
H732 C709 0.950 . S
H733 C711 0.950 . S
C734 C735 1.341 1_655 S
C734 C736 1.327 . S
C734 H759 0.950 . S
C735 C734 1.341 1_455 S
C735 C751 1.357 . S
C736 C734 1.327 . S
C736 C755 1.410 1_655 S
C736 H760 0.950 . S
C737 C754 1.574 . S
C737 C756 1.396 . S
C737 H761 0.949 . S
H738 C742 0.949 . S
C739 C740 1.349 . S
C739 C741 1.327 . S
C739 H762 0.950 . S
C740 C739 1.349 . S
C740 C752 1.349 1_455 S
C741 C739 1.327 . S
C741 C757 1.429 . S
C741 H763 0.950 . S
C742 H738 0.949 . S
C742 C750 1.574 . S
C742 C758 1.368 1_655 S
H743 C751 0.950 . S
H744 C749 0.950 . S
H745 C750 0.949 . S
H746 C752 0.950 . S
H747 C753 0.950 . S
H748 C754 0.949 . S
C749 H744 0.950 . S
C749 C751 1.327 . S
C749 C755 1.447 . S
C750 C742 1.574 . S
C750 H745 0.949 . S
C750 C756 1.343 1_655 S
C751 C735 1.357 . S
C751 H743 0.950 . S
C751 C749 1.327 . S
C752 C740 1.349 1_655 S
C752 H746 0.950 . S
C752 C753 1.327 . S
C753 H747 0.950 . S
C753 C752 1.327 . S
C753 C757 1.429 1_655 S
C754 C737 1.574 . S
C754 H748 0.949 . S
C754 C758 1.368 . S
C755 C736 1.410 1_455 S
C755 C749 1.447 . S
C755 C756 1.523 . S
C756 C737 1.396 . S
C756 C750 1.343 1_455 S
C756 C755 1.523 . S
C757 C741 1.429 . S
C757 C753 1.429 1_455 S
C757 C758 1.523 . S
C758 C742 1.368 1_455 S
C758 C754 1.368 . S
C758 C757 1.523 . S
H759 C734 0.950 . S
H760 C736 0.950 . S
H761 C737 0.949 . S
H762 C739 0.950 . S
H763 C741 0.950 . S
C764 C765 1.327 1_565 S
C764 C766 1.327 . S
C764 H789 0.950 . S
C765 C764 1.327 1_545 S
C765 C781 1.372 . S
C766 C764 1.327 . S
C766 C785 1.393 1_565 S
C766 H790 0.950 . S
C767 C784 1.574 1_556 S
C767 C786 1.368 . S
C767 H791 0.949 . S
H768 C772 0.949 . S
C769 C770 1.349 . S
C769 C771 1.327 . S
C769 H792 0.950 . S
C770 C769 1.349 . S
C770 C782 1.349 1_545 S
C771 C769 1.327 . S
C771 C787 1.429 . S
C771 H793 0.950 . S
C772 H768 0.949 . S
C772 C780 1.574 1_554 S
C772 C788 1.368 1_565 S
H773 C781 0.950 . S
H774 C779 0.950 . S
H775 C780 0.949 . S
H776 C782 0.950 . S
H777 C783 0.950 . S
H778 C784 0.949 . S
C779 H774 0.950 . S
C779 C781 1.327 . S
C779 C785 1.465 . S
C780 C772 1.574 1_556 S
C780 H775 0.949 . S
C780 C786 1.368 1_565 S
C781 C765 1.372 . S
C781 H773 0.950 . S
C781 C779 1.327 . S
C782 C770 1.349 1_565 S
C782 H776 0.950 . S
C782 C783 1.327 . S
C783 H777 0.950 . S
C783 C782 1.327 . S
C783 C787 1.429 1_565 S
C784 C767 1.574 1_554 S
C784 H778 0.949 . S
C784 C788 1.368 . S
C785 C766 1.393 1_545 S
C785 C779 1.465 . S
C785 C786 1.524 . S
C786 C767 1.368 . S
C786 C780 1.368 1_545 S
C786 C785 1.524 . S
C787 C771 1.429 . S
C787 C783 1.429 1_545 S
C787 C788 1.523 . S
C788 C772 1.368 1_545 S
C788 C784 1.368 . S
C788 C787 1.523 . S
H789 C764 0.950 . S
H790 C766 0.950 . S
H791 C767 0.949 . S
H792 C769 0.950 . S
H793 C771 0.950 . S
C794 C795 1.357 . S
C794 C796 1.327 . S
C794 H819 0.950 . S
C795 C794 1.357 . S
C795 C811 1.341 1_455 S
C796 C794 1.327 . S
C796 C815 1.447 . S
C796 H820 0.950 . S
C797 C814 1.574 . S
C797 C816 1.343 1_655 S
C797 H821 0.949 . S
H798 C802 0.949 . S
C799 C800 1.349 1_655 S
C799 C801 1.327 . S
C799 H822 0.950 . S
C800 C799 1.349 1_455 S
C800 C812 1.349 . S
C801 C799 1.327 . S
C801 C817 1.429 1_655 S
C801 H823 0.950 . S
C802 H798 0.949 . S
C802 C810 1.574 . S
C802 C818 1.368 . S
H803 C811 0.950 . S
H804 C809 0.950 . S
H805 C810 0.949 . S
H806 C812 0.950 . S
H807 C813 0.950 . S
H808 C814 0.949 . S
C809 H804 0.950 . S
C809 C811 1.327 . S
C809 C815 1.410 1_655 S
C810 C802 1.574 . S
C810 H805 0.949 . S
C810 C816 1.396 . S
C811 C795 1.341 1_655 S
C811 H803 0.950 . S
C811 C809 1.327 . S
C812 C800 1.349 . S
C812 H806 0.950 . S
C812 C813 1.327 . S
C813 H807 0.950 . S
C813 C812 1.327 . S
C813 C817 1.429 . S
C814 C797 1.574 . S
C814 H808 0.949 . S
C814 C818 1.368 1_655 S
C815 C796 1.447 . S
C815 C809 1.410 1_455 S
C815 C816 1.523 . S
C816 C797 1.343 1_455 S
C816 C810 1.396 . S
C816 C815 1.523 . S
C817 C801 1.429 1_455 S
C817 C813 1.429 . S
C817 C818 1.523 . S
C818 C802 1.368 . S
C818 C814 1.368 1_455 S
C818 C817 1.523 . S
H819 C794 0.950 . S
H820 C796 0.950 . S
H821 C797 0.949 . S
H822 C799 0.950 . S
H823 C801 0.950 . S
C824 C825 1.349 . S
C824 C826 1.327 . S
C824 H849 0.950 . S
C825 C824 1.349 . S
C825 C841 1.349 1_545 S
C826 C824 1.327 . S
C826 C845 1.429 . S
C826 H850 0.950 . S
C827 C844 1.574 . S
C827 C846 1.368 1_565 S
C827 H851 0.949 . S
H828 C832 0.949 . S
C829 C830 1.349 1_565 S
C829 C831 1.327 . S
C829 H852 0.950 . S
C830 C829 1.349 1_545 S
C830 C842 1.349 . S
C831 C829 1.327 . S
C831 C847 1.429 1_565 S
C831 H853 0.950 . S
C832 H828 0.949 . S
C832 C840 1.574 . S
C832 C848 1.368 . S
H833 C841 0.950 . S
H834 C839 0.950 . S
H835 C840 0.949 . S
H836 C842 0.950 . S
H837 C843 0.950 . S
H838 C844 0.949 . S
C839 H834 0.950 . S
C839 C841 1.327 . S
C839 C845 1.429 1_565 S
C840 C832 1.574 . S
C840 H835 0.949 . S
C840 C846 1.368 . S
C841 C825 1.349 1_565 S
C841 H833 0.950 . S
C841 C839 1.327 . S
C842 C830 1.349 . S
C842 H836 0.950 . S
C842 C843 1.327 . S
C843 H837 0.950 . S
C843 C842 1.327 . S
C843 C847 1.429 . S
C844 C827 1.574 . S
C844 H838 0.949 . S
C844 C848 1.368 1_565 S
C845 C826 1.429 . S
C845 C839 1.429 1_545 S
C845 C846 1.523 . S
C846 C827 1.368 1_545 S
C846 C840 1.368 . S
C846 C845 1.523 . S
C847 C831 1.429 1_545 S
C847 C843 1.429 . S
C847 C848 1.523 . S
C848 C832 1.368 . S
C848 C844 1.368 1_545 S
C848 C847 1.523 . S
H849 C824 0.950 . S
H850 C826 0.950 . S
H851 C827 0.949 . S
H852 C829 0.950 . S
H853 C831 0.950 . S
C854 C855 1.349 . S
C854 C856 1.327 . S
C854 H879 0.950 . S
C855 C854 1.349 . S
C855 C871 1.349 1_455 S
C856 C854 1.327 . S
C856 C875 1.429 . S
C856 H880 0.950 . S
C857 C874 1.574 . S
C857 C876 1.368 1_655 S
C857 H881 0.949 . S
H858 C862 0.949 . S
C859 C860 1.349 1_655 S
C859 C861 1.327 . S
C859 H882 0.950 . S
C860 C859 1.349 1_455 S
C860 C872 1.349 . S
C861 C859 1.327 . S
C861 C877 1.429 1_655 S
C861 H883 0.950 . S
C862 H858 0.949 . S
C862 C870 1.574 . S
C862 C878 1.368 . S
H863 C871 0.950 . S
H864 C869 0.950 . S
H865 C870 0.949 . S
H866 C872 0.950 . S
H867 C873 0.950 . S
H868 C874 0.949 . S
C869 H864 0.950 . S
C869 C871 1.327 . S
C869 C875 1.429 1_655 S
C870 C862 1.574 . S
C870 H865 0.949 . S
C870 C876 1.368 . S
C871 C855 1.349 1_655 S
C871 H863 0.950 . S
C871 C869 1.327 . S
C872 C860 1.349 . S
C872 H866 0.950 . S
C872 C873 1.327 . S
C873 H867 0.950 . S
C873 C872 1.327 . S
C873 C877 1.429 . S
C874 C857 1.574 . S
C874 H868 0.949 . S
C874 C878 1.368 1_655 S
C875 C856 1.429 . S
C875 C869 1.429 1_455 S
C875 C876 1.523 . S
C876 C857 1.368 1_455 S
C876 C870 1.368 . S
C876 C875 1.523 . S
C877 C861 1.429 1_455 S
C877 C873 1.429 . S
C877 C878 1.523 . S
C878 C862 1.368 . S
C878 C874 1.368 1_455 S
C878 C877 1.523 . S
H879 C854 0.950 . S
H880 C856 0.950 . S
H881 C857 0.949 . S
H882 C859 0.950 . S
H883 C861 0.950 . S
C884 C885 1.349 1_565 S
C884 C886 1.327 . S
C884 H909 0.950 . S
C885 C884 1.349 1_545 S
C885 C901 1.349 . S
C886 C884 1.327 . S
C886 C905 1.429 1_565 S
C886 H910 0.950 . S
C887 C904 1.574 . S
C887 C906 1.368 . S
C887 H911 0.949 . S
H888 C892 0.949 . S
C889 C890 1.349 . S
C889 C891 1.327 . S
C889 H912 0.950 . S
C890 C889 1.349 . S
C890 C902 1.349 1_545 S
C891 C889 1.327 . S
C891 C907 1.429 . S
C891 H913 0.950 . S
C892 H888 0.949 . S
C892 C900 1.574 . S
C892 C908 1.368 1_565 S
H893 C901 0.950 . S
H894 C899 0.950 . S
H895 C900 0.949 . S
H896 C902 0.950 . S
H897 C903 0.950 . S
H898 C904 0.949 . S
C899 H894 0.950 . S
C899 C901 1.327 . S
C899 C905 1.429 . S
C900 C892 1.574 . S
C900 H895 0.949 . S
C900 C906 1.368 1_565 S
C901 C885 1.349 . S
C901 H893 0.950 . S
C901 C899 1.327 . S
C902 C890 1.349 1_565 S
C902 H896 0.950 . S
C902 C903 1.327 . S
C903 H897 0.950 . S
C903 C902 1.327 . S
C903 C907 1.429 1_565 S
C904 C887 1.574 . S
C904 H898 0.949 . S
C904 C908 1.368 . S
C905 C886 1.429 1_545 S
C905 C899 1.429 . S
C905 C906 1.523 . S
C906 C887 1.368 . S
C906 C900 1.368 1_545 S
C906 C905 1.523 . S
C907 C891 1.429 . S
C907 C903 1.429 1_545 S
C907 C908 1.523 . S
C908 C892 1.368 1_545 S
C908 C904 1.368 . S
C908 C907 1.523 . S
H909 C884 0.950 . S
H910 C886 0.950 . S
H911 C887 0.949 . S
H912 C889 0.950 . S
H913 C891 0.950 . S
C914 C915 1.349 1_655 S
C914 C916 1.327 . S
C914 H939 0.950 . S
C915 C914 1.349 1_455 S
C915 C931 1.349 . S
C916 C914 1.327 . S
C916 C935 1.429 1_655 S
C916 H940 0.950 . S
C917 C934 1.574 . S
C917 C936 1.368 . S
C917 H941 0.949 . S
H918 C922 0.949 . S
C919 C920 1.349 . S
C919 C921 1.327 . S
C919 H942 0.950 . S
C920 C919 1.349 . S
C920 C932 1.349 1_455 S
C921 C919 1.327 . S
C921 C937 1.429 . S
C921 H943 0.950 . S
C922 H918 0.949 . S
C922 C930 1.574 . S
C922 C938 1.368 1_655 S
H923 C931 0.950 . S
H924 C929 0.950 . S
H925 C930 0.949 . S
H926 C932 0.950 . S
H927 C933 0.950 . S
H928 C934 0.949 . S
C929 H924 0.950 . S
C929 C931 1.327 . S
C929 C935 1.429 . S
C930 C922 1.574 . S
C930 H925 0.949 . S
C930 C936 1.368 1_655 S
C931 C915 1.349 . S
C931 H923 0.950 . S
C931 C929 1.327 . S
C932 C920 1.349 1_655 S
C932 H926 0.950 . S
C932 C933 1.327 . S
C933 H927 0.950 . S
C933 C932 1.327 . S
C933 C937 1.429 1_655 S
C934 C917 1.574 . S
C934 H928 0.949 . S
C934 C938 1.368 . S
C935 C916 1.429 1_455 S
C935 C929 1.429 . S
C935 C936 1.523 . S
C936 C917 1.368 . S
C936 C930 1.368 1_455 S
C936 C935 1.523 . S
C937 C921 1.429 . S
C937 C933 1.429 1_455 S
C937 C938 1.523 . S
C938 C922 1.368 1_455 S
C938 C934 1.368 . S
C938 C937 1.523 . S
H939 C914 0.950 . S
H940 C916 0.950 . S
H941 C917 0.949 . S
H942 C919 0.950 . S
H943 C921 0.950 . S
C944 C945 1.349 . S
C944 C946 1.327 . S
C944 H969 0.950 . S
C945 C944 1.349 . S
C945 C961 1.349 . S
C946 C944 1.327 . S
C946 C965 1.429 . S
C946 H970 0.950 . S
C947 C964 1.574 . S
C947 C966 1.368 . S
C947 H971 0.949 . S
H948 C952 0.949 . S
C949 C950 1.349 . S
C949 C951 1.327 . S
C949 H972 0.950 . S
C950 C949 1.349 . S
C950 C962 1.349 . S
C951 C949 1.327 . S
C951 C967 1.429 . S
C951 H973 0.950 . S
C952 H948 0.949 . S
C952 C960 1.574 . S
C952 C968 1.368 . S
H953 C961 0.950 . S
H954 C959 0.950 . S
H955 C960 0.949 . S
H956 C962 0.950 . S
H957 C963 0.950 . S
H958 C964 0.949 . S
C959 H954 0.950 . S
C959 C961 1.327 . S
C959 C965 1.429 . S
C960 C952 1.574 . S
C960 H955 0.949 . S
C960 C966 1.368 . S
C961 C945 1.349 . S
C961 H953 0.950 . S
C961 C959 1.327 . S
C962 C950 1.349 . S
C962 H956 0.950 . S
C962 C963 1.327 . S
C963 H957 0.950 . S
C963 C962 1.327 . S
C963 C967 1.429 . S
C964 C947 1.574 . S
C964 H958 0.949 . S
C964 C968 1.368 . S
C965 C946 1.429 . S
C965 C959 1.429 . S
C965 C966 1.523 . S
C966 C947 1.368 . S
C966 C960 1.368 . S
C966 C965 1.523 . S
C967 C951 1.429 . S
C967 C963 1.429 . S
C967 C968 1.523 . S
C968 C952 1.368 . S
C968 C964 1.368 . S
C968 C967 1.523 . S
H969 C944 0.950 . S
H970 C946 0.950 . S
H971 C947 0.949 . S
H972 C949 0.950 . S
H973 C951 0.950 . S
C974 C975 1.349 . S
C974 C976 1.327 . S
C974 H999 0.950 . S
C975 C974 1.349 . S
C975 C991 1.349 . S
C976 C974 1.327 . S
C976 C995 1.429 . S
C976 H1000 0.950 . S
C977 C994 1.574 . S
C977 C996 1.368 . S
C977 H1001 0.949 . S
H978 C982 0.949 . S
C979 C980 1.349 . S
C979 C981 1.327 . S
C979 H1002 0.950 . S
C980 C979 1.349 . S
C980 C992 1.349 . S
C981 C979 1.327 . S
C981 C997 1.429 . S
C981 H1003 0.950 . S
C982 H978 0.949 . S
C982 C990 1.574 . S
C982 C998 1.368 . S
H983 C991 0.950 . S
H984 C989 0.950 . S
H985 C990 0.949 . S
H986 C992 0.950 . S
H987 C993 0.950 . S
H988 C994 0.949 . S
C989 H984 0.950 . S
C989 C991 1.327 . S
C989 C995 1.429 . S
C990 C982 1.574 . S
C990 H985 0.949 . S
C990 C996 1.368 . S
C991 C975 1.349 . S
C991 H983 0.950 . S
C991 C989 1.327 . S
C992 C980 1.349 . S
C992 H986 0.950 . S
C992 C993 1.327 . S
C993 H987 0.950 . S
C993 C992 1.327 . S
C993 C997 1.429 . S
C994 C977 1.574 . S
C994 H988 0.949 . S
C994 C998 1.368 . S
C995 C976 1.429 . S
C995 C989 1.429 . S
C995 C996 1.523 . S
C996 C977 1.368 . S
C996 C990 1.368 . S
C996 C995 1.523 . S
C997 C981 1.429 . S
C997 C993 1.429 . S
C997 C998 1.523 . S
C998 C982 1.368 . S
C998 C994 1.368 . S
C998 C997 1.523 . S
H999 C974 0.950 . S
H1000 C976 0.950 . S
H1001 C977 0.949 . S
H1002 C979 0.950 . S
H1003 C981 0.950 . S
C1004 C1005 1.349 . S
C1004 C1006 1.327 . S
C1004 H1029 0.950 . S
C1005 C1004 1.349 . S
C1005 C1021 1.349 . S
C1006 C1004 1.327 . S
C1006 C1025 1.429 . S
C1006 H1030 0.950 . S
C1007 C1024 1.574 . S
C1007 C1026 1.368 . S
C1007 H1031 0.949 . S
H1008 C1012 0.949 . S
C1009 C1010 1.349 . S
C1009 C1011 1.327 . S
C1009 H1032 0.950 . S
C1010 C1009 1.349 . S
C1010 C1022 1.349 . S
C1011 C1009 1.327 . S
C1011 C1027 1.429 . S
C1011 H1033 0.950 . S
C1012 H1008 0.949 . S
C1012 C1020 1.574 . S
C1012 C1028 1.368 . S
H1013 C1021 0.950 . S
H1014 C1019 0.950 . S
H1015 C1020 0.949 . S
H1016 C1022 0.950 . S
H1017 C1023 0.950 . S
H1018 C1024 0.949 . S
C1019 H1014 0.950 . S
C1019 C1021 1.327 . S
C1019 C1025 1.429 . S
C1020 C1012 1.574 . S
C1020 H1015 0.949 . S
C1020 C1026 1.368 . S
C1021 C1005 1.349 . S
C1021 H1013 0.950 . S
C1021 C1019 1.327 . S
C1022 C1010 1.349 . S
C1022 H1016 0.950 . S
C1022 C1023 1.327 . S
C1023 H1017 0.950 . S
C1023 C1022 1.327 . S
C1023 C1027 1.429 . S
C1024 C1007 1.574 . S
C1024 H1018 0.949 . S
C1024 C1028 1.368 . S
C1025 C1006 1.429 . S
C1025 C1019 1.429 . S
C1025 C1026 1.523 . S
C1026 C1007 1.368 . S
C1026 C1020 1.368 . S
C1026 C1025 1.523 . S
C1027 C1011 1.429 . S
C1027 C1023 1.429 . S
C1027 C1028 1.523 . S
C1028 C1012 1.368 . S
C1028 C1024 1.368 . S
C1028 C1027 1.523 . S
H1029 C1004 0.950 . S
H1030 C1006 0.950 . S
H1031 C1007 0.949 . S
H1032 C1009 0.950 . S
H1033 C1011 0.950 . S
C1034 C1035 1.349 . S
C1034 C1036 1.327 . S
C1034 H1059 0.950 . S
C1035 C1034 1.349 . S
C1035 C1051 1.349 . S
C1036 C1034 1.327 . S
C1036 C1055 1.429 . S
C1036 H1060 0.950 . S
C1037 C1054 1.574 . S
C1037 C1056 1.368 . S
C1037 H1061 0.949 . S
H1038 C1042 0.949 . S
C1039 C1040 1.349 . S
C1039 C1041 1.327 . S
C1039 H1062 0.950 . S
C1040 C1039 1.349 . S
C1040 C1052 1.349 . S
C1041 C1039 1.327 . S
C1041 C1057 1.429 . S
C1041 H1063 0.950 . S
C1042 H1038 0.949 . S
C1042 C1050 1.574 . S
C1042 C1058 1.368 . S
H1043 C1051 0.950 . S
H1044 C1049 0.950 . S
H1045 C1050 0.949 . S
H1046 C1052 0.950 . S
H1047 C1053 0.950 . S
H1048 C1054 0.949 . S
C1049 H1044 0.950 . S
C1049 C1051 1.327 . S
C1049 C1055 1.429 . S
C1050 C1042 1.574 . S
C1050 H1045 0.949 . S
C1050 C1056 1.368 . S
C1051 C1035 1.349 . S
C1051 H1043 0.950 . S
C1051 C1049 1.327 . S
C1052 C1040 1.349 . S
C1052 H1046 0.950 . S
C1052 C1053 1.327 . S
C1053 H1047 0.950 . S
C1053 C1052 1.327 . S
C1053 C1057 1.429 . S
C1054 C1037 1.574 . S
C1054 H1048 0.949 . S
C1054 C1058 1.368 . S
C1055 C1036 1.429 . S
C1055 C1049 1.429 . S
C1055 C1056 1.523 . S
C1056 C1037 1.368 . S
C1056 C1050 1.368 . S
C1056 C1055 1.523 . S
C1057 C1041 1.429 . S
C1057 C1053 1.429 . S
C1057 C1058 1.523 . S
C1058 C1042 1.368 . S
C1058 C1054 1.368 . S
C1058 C1057 1.523 . S
H1059 C1034 0.950 . S
H1060 C1036 0.950 . S
H1061 C1037 0.949 . S
H1062 C1039 0.950 . S
H1063 C1041 0.950 . S
C1064 C1065 1.349 . S
C1064 C1066 1.327 . S
C1064 H1089 0.950 . S
C1065 C1064 1.349 . S
C1065 C1081 1.349 . S
C1066 C1064 1.327 . S
C1066 C1085 1.429 . S
C1066 H1090 0.950 . S
C1067 C1084 1.574 . S
C1067 C1086 1.368 . S
C1067 H1091 0.949 . S
H1068 C1072 0.949 . S
C1069 C1070 1.349 . S
C1069 C1071 1.327 . S
C1069 H1092 0.950 . S
C1070 C1069 1.349 . S
C1070 C1082 1.349 . S
C1071 C1069 1.327 . S
C1071 C1087 1.429 . S
C1071 H1093 0.950 . S
C1072 H1068 0.949 . S
C1072 C1080 1.574 . S
C1072 C1088 1.368 . S
H1073 C1081 0.950 . S
H1074 C1079 0.950 . S
H1075 C1080 0.949 . S
H1076 C1082 0.950 . S
H1077 C1083 0.950 . S
H1078 C1084 0.949 . S
C1079 H1074 0.950 . S
C1079 C1081 1.327 . S
C1079 C1085 1.429 . S
C1080 C1072 1.574 . S
C1080 H1075 0.949 . S
C1080 C1086 1.368 . S
C1081 C1065 1.349 . S
C1081 H1073 0.950 . S
C1081 C1079 1.327 . S
C1082 C1070 1.349 . S
C1082 H1076 0.950 . S
C1082 C1083 1.327 . S
C1083 H1077 0.950 . S
C1083 C1082 1.327 . S
C1083 C1087 1.429 . S
C1084 C1067 1.574 . S
C1084 H1078 0.949 . S
C1084 C1088 1.368 . S
C1085 C1066 1.429 . S
C1085 C1079 1.429 . S
C1085 C1086 1.523 . S
C1086 C1067 1.368 . S
C1086 C1080 1.368 . S
C1086 C1085 1.523 . S
C1087 C1071 1.429 . S
C1087 C1083 1.429 . S
C1087 C1088 1.523 . S
C1088 C1072 1.368 . S
C1088 C1084 1.368 . S
C1088 C1087 1.523 . S
H1089 C1064 0.950 . S
H1090 C1066 0.950 . S
H1091 C1067 0.949 . S
H1092 C1069 0.950 . S
H1093 C1071 0.950 . S
C1094 C1095 1.349 . S
C1094 C1096 1.327 . S
C1094 H1119 0.950 . S
C1095 C1094 1.349 . S
C1095 C1111 1.349 . S
C1096 C1094 1.327 . S
C1096 C1115 1.429 . S
C1096 H1120 0.950 . S
C1097 C1114 1.574 . S
C1097 C1116 1.368 . S
C1097 H1121 0.949 . S
H1098 C1102 0.949 . S
C1099 C1100 1.349 . S
C1099 C1101 1.327 . S
C1099 H1122 0.950 . S
C1100 C1099 1.349 . S
C1100 C1112 1.349 . S
C1101 C1099 1.327 . S
C1101 C1117 1.429 . S
C1101 H1123 0.950 . S
C1102 H1098 0.949 . S
C1102 C1110 1.574 . S
C1102 C1118 1.368 . S
H1103 C1111 0.950 . S
H1104 C1109 0.950 . S
H1105 C1110 0.949 . S
H1106 C1112 0.950 . S
H1107 C1113 0.950 . S
H1108 C1114 0.949 . S
C1109 H1104 0.950 . S
C1109 C1111 1.327 . S
C1109 C1115 1.429 . S
C1110 C1102 1.574 . S
C1110 H1105 0.949 . S
C1110 C1116 1.368 . S
C1111 C1095 1.349 . S
C1111 H1103 0.950 . S
C1111 C1109 1.327 . S
C1112 C1100 1.349 . S
C1112 H1106 0.950 . S
C1112 C1113 1.327 . S
C1113 H1107 0.950 . S
C1113 C1112 1.327 . S
C1113 C1117 1.429 . S
C1114 C1097 1.574 . S
C1114 H1108 0.949 . S
C1114 C1118 1.368 . S
C1115 C1096 1.429 . S
C1115 C1109 1.429 . S
C1115 C1116 1.523 . S
C1116 C1097 1.368 . S
C1116 C1110 1.368 . S
C1116 C1115 1.523 . S
C1117 C1101 1.429 . S
C1117 C1113 1.429 . S
C1117 C1118 1.523 . S
C1118 C1102 1.368 . S
C1118 C1114 1.368 . S
C1118 C1117 1.523 . S
H1119 C1094 0.950 . S
H1120 C1096 0.950 . S
H1121 C1097 0.949 . S
H1122 C1099 0.950 . S
H1123 C1101 0.950 . S
C1124 C1125 1.349 . S
C1124 C1126 1.327 . S
C1124 H1149 0.950 . S
C1125 C1124 1.349 . S
C1125 C1141 1.349 . S
C1126 C1124 1.327 . S
C1126 C1145 1.429 . S
C1126 H1150 0.950 . S
C1127 C1144 1.574 . S
C1127 C1146 1.368 . S
C1127 H1151 0.949 . S
H1128 C1132 0.949 . S
C1129 C1130 1.349 . S
C1129 C1131 1.327 . S
C1129 H1152 0.950 . S
C1130 C1129 1.349 . S
C1130 C1142 1.349 . S
C1131 C1129 1.327 . S
C1131 C1147 1.429 . S
C1131 H1153 0.950 . S
C1132 H1128 0.949 . S
C1132 C1140 1.574 . S
C1132 C1148 1.368 . S
H1133 C1141 0.950 . S
H1134 C1139 0.950 . S
H1135 C1140 0.949 . S
H1136 C1142 0.950 . S
H1137 C1143 0.950 . S
H1138 C1144 0.949 . S
C1139 H1134 0.950 . S
C1139 C1141 1.327 . S
C1139 C1145 1.429 . S
C1140 C1132 1.574 . S
C1140 H1135 0.949 . S
C1140 C1146 1.368 . S
C1141 C1125 1.349 . S
C1141 H1133 0.950 . S
C1141 C1139 1.327 . S
C1142 C1130 1.349 . S
C1142 H1136 0.950 . S
C1142 C1143 1.327 . S
C1143 H1137 0.950 . S
C1143 C1142 1.327 . S
C1143 C1147 1.429 . S
C1144 C1127 1.574 . S
C1144 H1138 0.949 . S
C1144 C1148 1.368 . S
C1145 C1126 1.429 . S
C1145 C1139 1.429 . S
C1145 C1146 1.523 . S
C1146 C1127 1.368 . S
C1146 C1140 1.368 . S
C1146 C1145 1.523 . S
C1147 C1131 1.429 . S
C1147 C1143 1.429 . S
C1147 C1148 1.523 . S
C1148 C1132 1.368 . S
C1148 C1144 1.368 . S
C1148 C1147 1.523 . S
H1149 C1124 0.950 . S
H1150 C1126 0.950 . S
H1151 C1127 0.949 . S
H1152 C1129 0.950 . S
H1153 C1131 0.950 . S
C1154 C1155 1.349 . S
C1154 C1156 1.327 . S
C1154 H1179 0.950 . S
C1155 C1154 1.349 . S
C1155 C1171 1.349 . S
C1156 C1154 1.327 . S
C1156 C1175 1.429 . S
C1156 H1180 0.950 . S
C1157 C1174 1.574 . S
C1157 C1176 1.368 . S
C1157 H1181 0.949 . S
H1158 C1162 0.949 . S
C1159 C1160 1.349 . S
C1159 C1161 1.327 . S
C1159 H1182 0.950 . S
C1160 C1159 1.349 . S
C1160 C1172 1.349 . S
C1161 C1159 1.327 . S
C1161 C1177 1.429 . S
C1161 H1183 0.950 . S
C1162 H1158 0.949 . S
C1162 C1170 1.574 . S
C1162 C1178 1.368 . S
H1163 C1171 0.950 . S
H1164 C1169 0.950 . S
H1165 C1170 0.949 . S
H1166 C1172 0.950 . S
H1167 C1173 0.950 . S
H1168 C1174 0.949 . S
C1169 H1164 0.950 . S
C1169 C1171 1.327 . S
C1169 C1175 1.429 . S
C1170 C1162 1.574 . S
C1170 H1165 0.949 . S
C1170 C1176 1.368 . S
C1171 C1155 1.349 . S
C1171 H1163 0.950 . S
C1171 C1169 1.327 . S
C1172 C1160 1.349 . S
C1172 H1166 0.950 . S
C1172 C1173 1.327 . S
C1173 H1167 0.950 . S
C1173 C1172 1.327 . S
C1173 C1177 1.429 . S
C1174 C1157 1.574 . S
C1174 H1168 0.949 . S
C1174 C1178 1.368 . S
C1175 C1156 1.429 . S
C1175 C1169 1.429 . S
C1175 C1176 1.523 . S
C1176 C1157 1.368 . S
C1176 C1170 1.368 . S
C1176 C1175 1.523 . S
C1177 C1161 1.429 . S
C1177 C1173 1.429 . S
C1177 C1178 1.523 . S
C1178 C1162 1.368 . S
C1178 C1174 1.368 . S
C1178 C1177 1.523 . S
H1179 C1154 0.950 . S
H1180 C1156 0.950 . S
H1181 C1157 0.949 . S
H1182 C1159 0.950 . S
H1183 C1161 0.950 . S
C705 C49 1.618 . S
C710 C381 1.618 . S
C735 C108 1.615 . S
C740 C469 1.615 . S
C765 C548 1.618 . S
C770 C233 1.618 . S
C795 C673 1.615 . S
C800 C313 1.615 . S
C825 C29 0.552 . S
C830 C196 0.548 . S
C855 C117 0.557 . S
C860 C321 0.554 . S
C885 C585 0.552 . S
C890 C401 0.548 . S
C915 C460 0.554 . S
C920 C665 0.557 . S
C945 C489 1.168 . S
C950 C20 1.164 . S
C975 C145 1.168 . S
C980 C577 1.164 . S
C1005 C636 1.168 . S
C1010 C205 1.164 . S
C1035 C293 1.168 . S
C1040 C409 1.164 . S
C1065 C557 1.166 . S
C1070 C284 1.160 . S
C1095 C57 1.166 . S
C1100 C645 1.160 . S
C1125 C137 1.160 . S
C1130 C372 1.166 . S
C1155 C497 1.160 . S
C1160 C225 1.166 . S
