# Generated by pormake.
# Topology ske, (6)-cn, num edge types: 1
# Building blocks:
#     Node 0, Type 0, BuildingBlock: BETDAH_clean_sbu_0, # of connection points: 6
#     Node 1, Type 0, BuildingBlock: BETDAH_clean_sbu_0, # of connection points: 6
#     Node 2, Type 0, BuildingBlock: BETDAH_clean_sbu_0, # of connection points: 6
#     Node 3, Type 0, BuildingBlock: BETDAH_clean_sbu_0, # of connection points: 6
#     Node 4, Type 0, BuildingBlock: BETDAH_clean_sbu_0, # of connection points: 6
#     Node 5, Type 0, BuildingBlock: BETDAH_clean_sbu_0, # of connection points: 6
#     Node 6, Type 0, BuildingBlock: BETDAH_clean_sbu_0, # of connection points: 6
#     Node 7, Type 0, BuildingBlock: BETDAH_clean_sbu_0, # of connection points: 6
#     Edge 8, Type (0, 0), BuildingBlock: CIFDUS_clean_linker_0, # of connection points: 2
#     Edge 9, Type (0, 0), BuildingBlock: CIFDUS_clean_linker_0, # of connection points: 2
#     Edge 10, Type (0, 0), BuildingBlock: CIFDUS_clean_linker_0, # of connection points: 2
#     Edge 11, Type (0, 0), BuildingBlock: CIFDUS_clean_linker_0, # of connection points: 2
#     Edge 12, Type (0, 0), BuildingBlock: CIFDUS_clean_linker_0, # of connection points: 2
#     Edge 13, Type (0, 0), BuildingBlock: CIFDUS_clean_linker_0, # of connection points: 2
#     Edge 14, Type (0, 0), BuildingBlock: CIFDUS_clean_linker_0, # of connection points: 2
#     Edge 15, Type (0, 0), BuildingBlock: CIFDUS_clean_linker_0, # of connection points: 2
#     Edge 16, Type (0, 0), BuildingBlock: CIFDUS_clean_linker_0, # of connection points: 2
#     Edge 17, Type (0, 0), BuildingBlock: CIFDUS_clean_linker_0, # of connection points: 2
#     Edge 18, Type (0, 0), BuildingBlock: CIFDUS_clean_linker_0, # of connection points: 2
#     Edge 19, Type (0, 0), BuildingBlock: CIFDUS_clean_linker_0, # of connection points: 2
#     Edge 20, Type (0, 0), BuildingBlock: CIFDUS_clean_linker_0, # of connection points: 2
#     Edge 21, Type (0, 0), BuildingBlock: CIFDUS_clean_linker_0, # of connection points: 2
#     Edge 22, Type (0, 0), BuildingBlock: CIFDUS_clean_linker_0, # of connection points: 2
#     Edge 23, Type (0, 0), BuildingBlock: CIFDUS_clean_linker_0, # of connection points: 2
#     Edge 24, Type (0, 0), BuildingBlock: CIFDUS_clean_linker_0, # of connection points: 2
#     Edge 25, Type (0, 0), BuildingBlock: CIFDUS_clean_linker_0, # of connection points: 2
#     Edge 26, Type (0, 0), BuildingBlock: CIFDUS_clean_linker_0, # of connection points: 2
#     Edge 27, Type (0, 0), BuildingBlock: CIFDUS_clean_linker_0, # of connection points: 2
#     Edge 28, Type (0, 0), BuildingBlock: CIFDUS_clean_linker_0, # of connection points: 2
#     Edge 29, Type (0, 0), BuildingBlock: CIFDUS_clean_linker_0, # of connection points: 2
#     Edge 30, Type (0, 0), BuildingBlock: CIFDUS_clean_linker_0, # of connection points: 2
#     Edge 31, Type (0, 0), BuildingBlock: CIFDUS_clean_linker_0, # of connection points: 2
# Relax obj value: 0.206
# Max RMSD: 0.212
# Mean RMSD: 0.205
data_MOF--net-ske--node1-BETDAH_clean_sbu_0--edge1-CIFDUS_clean_linker_0
_symmetry_space_group_name_H-M    P1
_symmetry_Int_Tables_number       1
_symmetry_cell_setting            triclinic
loop_
_symmetry_equiv_pos_as_xyz
'x, y, z'
_cell_length_a     96.036618
_cell_length_b     25.309527
_cell_length_c     13.621795
_cell_angle_alpha  89.828279
_cell_angle_beta   90.04621
_cell_angle_gamma 83.856201
loop_
_atom_site_label
_atom_site_type_symbol
_atom_site_fract_x
_atom_site_fract_y
_atom_site_fract_z
_atom_type_partial_charge
Ho0 Ho 0.16001 0.24685 0.53775 0.0
Ho1 Ho 0.12808 0.25729 0.55905 0.0
C2 C 0.14708 0.25053 0.75675 0.0
C3 C 0.18688 0.25114 0.53604 0.0
C4 C 0.19969 0.25864 0.5933 0.0
C5 C 0.2085 0.29628 0.56174 0.0
C6 C 0.22212 0.29582 0.59953 0.0
C7 C 0.22725 0.25719 0.66869 0.0
C8 C 0.21812 0.2218 0.70476 0.0
C9 C 0.2045 0.22259 0.66783 0.0
C10 C 0.14788 0.15545 0.51416 0.0
C11 C 0.14137 0.254 0.34403 0.0
C12 C 0.10198 0.24741 0.59444 0.0
C13 C 0.08738 0.26131 0.55976 0.0
C14 C 0.08211 0.23731 0.47648 0.0
C15 C 0.06778 0.24495 0.45405 0.0
C16 C 0.05838 0.27643 0.5147 0.0
C17 C 0.06379 0.3021 0.59551 0.0
C18 C 0.07808 0.29447 0.61788 0.0
C19 C 0.13897 0.34971 0.51941 0.0
O20 O 0.15846 0.2514 0.70227 0.0
O21 O 0.13449 0.24969 0.71772 0.0
O22 O 0.1809 0.20804 0.55341 0.0
O23 O 0.17786 0.2923 0.51532 0.0
O24 O 0.15834 0.16833 0.46282 0.0
O25 O 0.14459 0.19101 0.57704 0.0
O26 O 0.13101 0.23921 0.39834 0.0
O27 O 0.15291 0.26859 0.38432 0.0
O28 O 0.10858 0.28571 0.6304 0.0
O29 O 0.11018 0.21284 0.54376 0.0
O30 O 0.12701 0.33792 0.48649 0.0
O31 O 0.14415 0.31303 0.57565 0.0
H32 H 0.20514 0.32415 0.50372 0.0
H33 H 0.22891 0.32351 0.57013 0.0
H34 H 0.22171 0.19205 0.75907 0.0
H35 H 0.19803 0.19301 0.69407 0.0
H36 H 0.08896 0.21113 0.43051 0.0
H37 H 0.06398 0.22422 0.39171 0.0
H38 H 0.05692 0.3273 0.64294 0.0
H39 H 0.0818 0.31317 0.68292 0.0
Ho40 Ho 0.87187 0.25693 0.54747 0.0
Ho41 Ho 0.90407 0.25067 0.53351 0.0
C42 C 0.89027 0.2593 0.74655 0.0
C43 C 0.84624 0.23609 0.57251 0.0
C44 C 0.83289 0.24622 0.6265 0.0
C45 C 0.82484 0.20376 0.64049 0.0
C46 C 0.81127 0.21238 0.67852 0.0
C47 C 0.8054 0.26386 0.70392 0.0
C48 C 0.81372 0.30622 0.69316 0.0
C49 C 0.82732 0.29752 0.65455 0.0
C50 C 0.88193 0.35241 0.53196 0.0
C51 C 0.88585 0.2533 0.33376 0.0
C52 C 0.9305 0.25896 0.51646 0.0
C53 C 0.94589 0.2607 0.51166 0.0
C54 C 0.9519 0.29987 0.45745 0.0
C55 C 0.96642 0.30325 0.46151 0.0
C56 C 0.97512 0.26781 0.52054 0.0
C57 C 0.96911 0.22767 0.57165 0.0
C58 C 0.95473 0.22413 0.56723 0.0
C59 C 0.89321 0.15573 0.54466 0.0
O60 O 0.87856 0.24624 0.70635 0.0
O61 O 0.90072 0.27273 0.69183 0.0
O62 O 0.84985 0.27349 0.51432 0.0
O63 O 0.85693 0.20996 0.61709 0.0
O64 O 0.86954 0.34318 0.50364 0.0
O65 O 0.8876 0.31284 0.57893 0.0
O66 O 0.89765 0.26494 0.37491 0.0
O67 O 0.87532 0.23934 0.38733 0.0
O68 O 0.92529 0.22348 0.57105 0.0
O69 O 0.92117 0.29036 0.46768 0.0
O70 O 0.90525 0.16433 0.57979 0.0
O71 O 0.88822 0.19619 0.49813 0.0
H72 H 0.82887 0.16394 0.61833 0.0
H73 H 0.8052 0.17885 0.68408 0.0
H74 H 0.80966 0.34627 0.71333 0.0
H75 H 0.83332 0.331 0.6443 0.0
H76 H 0.94536 0.32862 0.41403 0.0
H77 H 0.97076 0.33466 0.4214 0.0
H78 H 0.97554 0.19918 0.61637 0.0
H79 H 0.95051 0.1932 0.60947 0.0
Ho80 Ho 0.12553 0.7513 0.46293 0.0
Ho81 Ho 0.15721 0.75913 0.48805 0.0
C82 C 0.13886 0.75552 0.68205 0.0
C83 C 0.10037 0.72242 0.45831 0.0
C84 C 0.08594 0.72919 0.49945 0.0
C85 C 0.08132 0.68945 0.55985 0.0
C86 C 0.06711 0.68995 0.58378 0.0
C87 C 0.05711 0.73 0.54728 0.0
C88 C 0.06185 0.77104 0.49046 0.0
C89 C 0.07606 0.77058 0.46666 0.0
C90 C 0.13299 0.85155 0.46548 0.0
C91 C 0.14393 0.75516 0.26907 0.0
C92 C 0.18255 0.78615 0.48831 0.0
C93 C 0.19608 0.77703 0.43592 0.0
C94 C 0.20422 0.81946 0.42463 0.0
C95 C 0.21772 0.81116 0.38494 0.0
C96 C 0.22341 0.76005 0.35583 0.0
C97 C 0.21502 0.71785 0.3644 0.0
C98 C 0.2015 0.72624 0.40396 0.0
C99 C 0.14967 0.65875 0.48553 0.0
O100 O 0.12872 0.73989 0.62666 0.0
O101 O 0.14998 0.77407 0.64293 0.0
O102 O 0.10445 0.76118 0.4056 0.0
O103 O 0.11053 0.69805 0.51106 0.0
O104 O 0.12211 0.83817 0.41963 0.0
O105 O 0.13828 0.81316 0.51682 0.0
O106 O 0.15406 0.77079 0.32449 0.0
O107 O 0.13286 0.73639 0.30821 0.0
O108 O 0.17861 0.7464 0.53895 0.0
O109 O 0.17212 0.81326 0.44259 0.0
O110 O 0.1603 0.67279 0.5337 0.0
O111 O 0.14451 0.69723 0.4336 0.0
H112 H 0.08861 0.65665 0.58539 0.0
H113 H 0.06391 0.65812 0.62897 0.0
H114 H 0.05449 0.80222 0.45997 0.0
H115 H 0.07916 0.80146 0.41875 0.0
H116 H 0.20029 0.85893 0.44925 0.0
H117 H 0.22389 0.84449 0.38049 0.0
H118 H 0.21896 0.67813 0.34133 0.0
H119 H 0.19541 0.69281 0.41149 0.0
Ho120 Ho 0.90363 0.75743 0.50812 0.0
Ho121 Ho 0.87112 0.7525 0.49046 0.0
C122 C 0.88466 0.75597 0.70401 0.0
C123 C 0.92862 0.78581 0.53321 0.0
C124 C 0.94355 0.7717 0.55993 0.0
C125 C 0.94954 0.80147 0.63243 0.0
C126 C 0.96409 0.79741 0.64526 0.0
C127 C 0.97305 0.76364 0.5854 0.0
C128 C 0.96698 0.73156 0.51654 0.0
C129 C 0.9524 0.73562 0.50376 0.0
C130 C 0.89551 0.65793 0.50094 0.0
C131 C 0.88966 0.75871 0.29281 0.0
C132 C 0.84608 0.72557 0.462 0.0
C133 C 0.8327 0.73803 0.40748 0.0
C134 C 0.82924 0.70457 0.33109 0.0
C135 C 0.81591 0.71101 0.28807 0.0
C136 C 0.80563 0.75085 0.32086 0.0
C137 C 0.8092 0.78512 0.39582 0.0
C138 C 0.82255 0.77876 0.4387 0.0
C139 C 0.87921 0.85145 0.50426 0.0
O140 O 0.8956 0.775 0.66252 0.0
O141 O 0.87511 0.73503 0.65049 0.0
O142 O 0.92412 0.76722 0.45104 0.0
O143 O 0.91908 0.78968 0.60211 0.0
O144 O 0.90791 0.66903 0.47621 0.0
O145 O 0.88909 0.69813 0.54017 0.0
O146 O 0.87826 0.7426 0.33276 0.0
O147 O 0.89979 0.775 0.34745 0.0
O148 O 0.84922 0.75877 0.52999 0.0
O149 O 0.8571 0.70507 0.41315 0.0
O150 O 0.86684 0.83992 0.52821 0.0
O151 O 0.88565 0.81229 0.46158 0.0
H152 H 0.94301 0.82994 0.67617 0.0
H153 H 0.96835 0.82203 0.70023 0.0
H154 H 0.9735 0.70539 0.4686 0.0
H155 H 0.94815 0.71238 0.44659 0.0
H156 H 0.8367 0.67215 0.30662 0.0
H157 H 0.81351 0.68341 0.23147 0.0
H158 H 0.80161 0.81666 0.42208 0.0
H159 H 0.82477 0.80495 0.49812 0.0
Ho160 Ho 0.65726 0.76613 0.04229 0.0
Ho161 Ho 0.62534 0.76534 0.06753 0.0
C162 C 0.64411 0.76356 0.26112 0.0
C163 C 0.68325 0.78623 0.03952 0.0
C164 C 0.69672 0.77886 0.09438 0.0
C165 C 0.69966 0.81369 0.17017 0.0
C166 C 0.71302 0.8104 0.21278 0.0
C167 C 0.72383 0.77249 0.18023 0.0
C168 C 0.72078 0.737 0.10589 0.0
C169 C 0.70743 0.74027 0.06337 0.0
C170 C 0.64812 0.66831 0.04123 0.0
C171 C 0.63876 0.76618 0.84828 0.0
C172 C 0.59959 0.74254 0.07437 0.0
C173 C 0.58492 0.75504 0.03966 0.0
C174 C 0.57849 0.71653 0.98724 0.0
C175 C 0.56404 0.7231 0.96879 0.0
C176 C 0.55561 0.76823 1.00302 0.0
C177 C 0.56215 0.80769 0.05242 0.0
C178 C 0.57661 0.80119 0.07059 0.0
C179 C 0.63435 0.8634 0.06447 0.0
O180 O 0.65447 0.77742 0.20589 0.0
O181 O 0.63271 0.74749 0.2217 0.0
O182 O 0.67881 0.74423 0.99956 0.0
O183 O 0.67301 0.81883 0.07507 0.0
O184 O 0.65883 0.68101 0.99246 0.0
O185 O 0.64351 0.70667 0.09531 0.0
O186 O 0.62833 0.75299 0.90389 0.0
O187 O 0.65023 0.78212 0.88711 0.0
O188 O 0.60475 0.7766 0.13237 0.0
O189 O 0.60896 0.71937 1.01421 0.0
O190 O 0.62307 0.85259 0.10863 0.0
O191 O 0.63906 0.82408 1.01374 0.0
H192 H 0.69175 0.84449 0.19488 0.0
H193 H 0.71501 0.83879 0.26906 0.0
H194 H 0.72874 0.70677 0.07991 0.0
H195 H 0.7056 0.71327 1.00432 0.0
H196 H 0.58454 0.68013 0.96403 0.0
H197 H 0.55939 0.69157 0.93149 0.0
H198 H 0.55604 0.84331 0.0786 0.0
H199 H 0.58117 0.83156 0.11189 0.0
Ho200 Ho 0.36789 0.75416 0.03243 0.0
Ho201 Ho 0.40106 0.75739 0.05179 0.0
C202 C 0.3826 0.75845 0.24809 0.0
C203 C 0.34331 0.72126 1.02225 0.0
C204 C 0.32908 0.73231 0.06351 0.0
C205 C 0.3207 0.69046 0.07258 0.0
C206 C 0.30698 0.69969 0.1079 0.0
C207 C 0.3013 0.75114 0.13504 0.0
C208 C 0.30982 0.793 0.12702 0.0
C209 C 0.32358 0.78366 0.09176 0.0
C210 C 0.37421 0.85666 0.05102 0.0
C211 C 0.38622 0.76418 0.83725 0.0
C212 C 0.42716 0.7724 0.04459 0.0
C213 C 0.44231 0.77961 0.03893 0.0
C214 C 0.4476 0.82348 0.08292 0.0
C215 C 0.46204 0.8281 0.08281 0.0
C216 C 0.47155 0.78888 0.03891 0.0
C217 C 0.46616 0.7456 0.99314 0.0
C218 C 0.45175 0.74107 0.99311 0.0
C219 C 0.39131 0.66054 0.06807 0.0
O220 O 0.372 0.74449 0.19485 0.0
O221 O 0.39437 0.77168 0.20839 0.0
O222 O 0.34759 0.75696 0.96269 0.0
O223 O 0.35311 0.70113 0.08257 0.0
O224 O 0.36157 0.84319 0.04596 0.0
O225 O 0.38241 0.8144 0.04835 0.0
O226 O 0.39663 0.7777 0.89264 0.0
O227 O 0.37486 0.74669 0.87519 0.0
O228 O 0.42199 0.73323 0.99947 0.0
O229 O 0.41793 0.80449 0.0927 0.0
O230 O 0.40237 0.67361 0.11253 0.0
O231 O 0.38676 0.69778 1.0109 0.0
H232 H 0.32473 0.65055 0.05105 0.0
H233 H 0.30072 0.66662 0.11174 0.0
H234 H 0.30587 0.83298 0.14843 0.0
H235 H 0.32989 0.81656 0.08598 0.0
H236 H 0.44061 0.85394 0.11859 0.0
H237 H 0.46574 0.8624 0.11753 0.0
H238 H 0.47311 0.71421 0.9598 0.0
H239 H 0.44805 0.70661 0.9589 0.0
Ho240 Ho 0.62721 0.26286 0.99283 0.0
Ho241 Ho 0.65907 0.26511 1.01819 0.0
C242 C 0.64059 0.26391 0.21194 0.0
C243 C 0.60167 0.23831 0.98611 0.0
C244 C 0.58711 0.25083 1.0222 0.0
C245 C 0.58267 0.22984 0.11114 0.0
C246 C 0.56842 0.23456 0.13579 0.0
C247 C 0.55827 0.26002 0.07178 0.0
C248 C 0.56282 0.28275 0.98477 0.0
C249 C 0.57704 0.27809 0.96027 0.0
C250 C 0.63565 0.36166 0.99644 0.0
C251 C 0.64591 0.26305 0.79912 0.0
C252 C 0.68483 0.28761 1.02279 0.0
C253 C 0.69852 0.28 0.97217 0.0
C254 C 0.70647 0.32323 0.96485 0.0
C255 C 0.72019 0.31633 0.92892 0.0
C256 C 0.72632 0.26585 0.89963 0.0
C257 C 0.71812 0.22287 0.90374 0.0
C258 C 0.70437 0.22985 0.93966 0.0
C259 C 0.65015 0.16673 1.01692 0.0
O260 O 0.63026 0.2499 0.15638 0.0
O261 O 0.65193 0.28085 0.17296 0.0
O262 O 0.6066 0.27288 0.92769 0.0
O263 O 0.61121 0.21534 0.04563 0.0
O264 O 0.62438 0.35019 0.9531 0.0
O265 O 0.6407 0.3224 0.04678 0.0
O266 O 0.65625 0.27697 0.85445 0.0
O267 O 0.63456 0.24641 0.83846 0.0
O268 O 0.68046 0.24636 0.06643 0.0
O269 O 0.67468 0.31787 0.98028 0.0
O270 O 0.66092 0.17894 0.06573 0.0
O271 O 0.64555 0.2057 0.96418 0.0
H272 H 0.59013 0.20815 0.16017 0.0
H273 H 0.56532 0.21714 0.20401 0.0
H274 H 0.55536 0.30186 0.93279 0.0
H275 H 0.58006 0.29388 0.89036 0.0
H276 H 0.70222 0.3622 0.99017 0.0
H277 H 0.72619 0.35022 0.9279 0.0
H278 H 0.72241 0.18362 0.88032 0.0
H279 H 0.69846 0.1958 0.94426 0.0
Ho280 Ho 0.40447 0.25168 1.01659 0.0
Ho281 Ho 0.37338 0.25072 1.00588 0.0
C282 C 0.38695 0.2452 0.21739 0.0
C283 C 0.43039 0.26633 0.04358 0.0
C284 C 0.44544 0.27252 0.05763 0.0
C285 C 0.44984 0.32059 0.09073 0.0
C286 C 0.46415 0.32639 0.09977 0.0
C287 C 0.47437 0.28422 0.07595 0.0
C288 C 0.46989 0.23604 0.04386 0.0
C289 C 0.45563 0.23027 0.03493 0.0
C290 C 0.39603 0.15302 0.9942 0.0
C291 C 0.3911 0.2577 0.8039 0.0
C292 C 0.34775 0.22923 0.98209 0.0
C293 C 0.33442 0.23832 0.92751 0.0
C294 C 0.3249 0.20037 0.93653 0.0
C295 C 0.31147 0.20954 0.89628 0.0
C296 C 0.3072 0.2569 0.8449 0.0
C297 C 0.31695 0.29449 0.83381 0.0
C298 C 0.33043 0.28537 0.87508 0.0
C299 C 0.3819 0.34977 1.02428 0.0
O300 O 0.39808 0.26224 0.17578 0.0
O301 O 0.37691 0.22837 0.16351 0.0
O302 O 0.42631 0.22138 1.01462 0.0
O303 O 0.4202 0.30398 0.05947 0.0
O304 O 0.40671 0.1699 0.9512 0.0
O305 O 0.39034 0.18919 0.0495 0.0
O306 O 0.37959 0.24347 0.84543 0.0
O307 O 0.4016 0.27138 0.85741 0.0
O308 O 0.35131 0.26795 0.03659 0.0
O309 O 0.35848 0.20227 0.93989 0.0
O310 O 0.37058 0.33526 0.06252 0.0
O311 O 0.38754 0.31237 0.97214 0.0
H312 H 0.44223 0.35384 0.10886 0.0
H313 H 0.46721 0.3639 0.12559 0.0
H314 H 0.47741 0.20302 1.02308 0.0
H315 H 0.45262 0.19277 1.0087 0.0
H316 H 0.3277 0.1641 0.97779 0.0
H317 H 0.30428 0.18004 0.90868 0.0
H318 H 0.31416 0.33114 0.79384 0.0
H319 H 0.33761 0.31537 0.8677 0.0
H320 H 0.24402 0.33278 0.72736 0.0
H321 H 0.24455 0.16517 0.66893 0.0
H322 H 0.26933 0.15102 0.71179 0.0
H323 H 0.29077 0.18544 0.76757 0.0
H324 H 0.29026 0.35193 0.83725 0.0
H325 H 0.2658 0.36744 0.78543 0.0
C326 C 0.2496 0.29325 0.72394 0.0
C327 C 0.24238 0.25001 0.69594 0.0
C328 C 0.26391 0.28518 0.74987 0.0
C329 C 0.24976 0.19898 0.69192 0.0
C330 C 0.26397 0.19088 0.71582 0.0
C331 C 0.28533 0.22514 0.7726 0.0
C332 C 0.29249 0.26728 0.80704 0.0
C333 C 0.27113 0.23356 0.74559 0.0
C334 C 0.28521 0.31865 0.80999 0.0
C335 C 0.27112 0.32753 0.78122 0.0
H336 H 0.74088 0.33063 0.78614 0.0
H337 H 0.74578 0.18284 0.94771 0.0
H338 H 0.77053 0.16994 0.90397 0.0
H339 H 0.79092 0.20092 0.82189 0.0
H340 H 0.78601 0.34796 0.65778 0.0
H341 H 0.76135 0.36162 0.70365 0.0
C342 C 0.74737 0.29573 0.81232 0.0
C343 C 0.74137 0.25767 0.86985 0.0
C344 C 0.76169 0.28867 0.78751 0.0
C345 C 0.74998 0.21238 0.90194 0.0
C346 C 0.7642 0.20516 0.87767 0.0
C347 C 0.78447 0.23582 0.79541 0.0
C348 C 0.79045 0.27333 0.73641 0.0
C349 C 0.77018 0.24303 0.82052 0.0
C350 C 0.78186 0.31875 0.7046 0.0
C351 C 0.76767 0.3264 0.73001 0.0
H352 H 0.28716 0.68929 0.25676 0.0
H353 H 0.28193 0.83532 0.08996 0.0
H354 H 0.25755 0.85091 0.1428 0.0
H355 H 0.23751 0.82241 0.23416 0.0
H356 H 0.24281 0.67623 0.40057 0.0
H357 H 0.26717 0.66081 0.34782 0.0
C358 C 0.28068 0.72435 0.23124 0.0
C359 C 0.28647 0.76106 0.16941 0.0
C360 C 0.26659 0.73288 0.26116 0.0
C361 C 0.27789 0.80671 0.13865 0.0
C362 C 0.26388 0.81549 0.16827 0.0
C363 C 0.244 0.78731 0.2594 0.0
C364 C 0.23823 0.75045 0.321 0.0
C365 C 0.2581 0.77882 0.22942 0.0
C366 C 0.24683 0.70487 0.35182 0.0
C367 C 0.26083 0.69619 0.32231 0.0
H368 H 0.74876 0.75672 0.08225 0.0
H369 H 0.73151 0.7846 0.37225 0.0
H370 H 0.75511 0.78219 0.4404 0.0
H371 H 0.78071 0.7699 0.41859 0.0
H372 H 0.79791 0.74158 0.12852 0.0
H373 H 0.77431 0.74531 0.06019 0.0
C374 C 0.75014 0.76175 0.16056 0.0
C375 C 0.73829 0.77069 0.22185 0.0
C376 C 0.76377 0.76002 0.19949 0.0
C377 C 0.74037 0.77818 0.32294 0.0
C378 C 0.75389 0.77654 0.36216 0.0
C379 C 0.77932 0.76519 0.34022 0.0
C380 C 0.79115 0.7554 0.27899 0.0
C381 C 0.76567 0.76743 0.30119 0.0
C382 C 0.78906 0.74852 0.17777 0.0
C383 C 0.77554 0.75088 0.13846 0.0
H384 H 0.12201 0.93689 0.57105 0.0
H385 H 0.15363 0.88696 0.35705 0.0
H386 H 0.1609 0.97682 0.35145 0.0
H387 H 0.15819 0.06977 0.40716 0.0
H388 H 0.12679 0.12026 0.62309 0.0
H389 H 0.11937 0.03061 0.62771 0.0
C390 C 0.13053 0.94593 0.52377 0.0
C391 C 0.13747 0.90551 0.46563 0.0
C392 C 0.13458 0.99787 0.52079 0.0
C393 C 0.14838 0.91737 0.40377 0.0
C394 C 0.15244 0.9688 0.40009 0.0
C395 C 0.14969 0.0612 0.45501 0.0
C396 C 0.14302 0.1017 0.51449 0.0
C397 C 0.14562 0.00939 0.45821 0.0
C398 C 0.13206 0.08986 0.57636 0.0
C399 C 0.12784 0.03854 0.57921 0.0
H400 H 0.8661 0.44707 0.5252 0.0
H401 H 0.90895 0.37699 0.5367 0.0
H402 H 0.91712 0.46514 0.52095 0.0
H403 H 0.91188 0.56283 0.50254 0.0
H404 H 0.869 0.63232 0.51932 0.0
H405 H 0.86095 0.54416 0.52482 0.0
C406 C 0.87723 0.45115 0.52431 0.0
C407 C 0.88694 0.40561 0.52976 0.0
C408 C 0.88179 0.502 0.51965 0.0
C409 C 0.90131 0.41145 0.53095 0.0
C410 C 0.90596 0.46186 0.52211 0.0
C411 C 0.90078 0.55849 0.50693 0.0
C412 C 0.89098 0.60399 0.50687 0.0
C413 C 0.89628 0.50748 0.51577 0.0
C414 C 0.87668 0.59795 0.51583 0.0
C415 C 0.87209 0.5475 0.51994 0.0
H416 H 0.86329 0.94648 0.50112 0.0
H417 H 0.90599 0.87536 0.52103 0.0
H418 H 0.91409 0.96312 0.54169 0.0
H419 H 0.90892 0.06036 0.55462 0.0
H420 H 0.86669 0.1322 0.50817 0.0
H421 H 0.85842 0.04427 0.49754 0.0
C422 C 0.87436 0.95038 0.51002 0.0
C423 C 0.88405 0.90466 0.51156 0.0
C424 C 0.87896 1.00113 0.51743 0.0
C425 C 0.89838 0.91005 0.52087 0.0
C426 C 0.90299 0.9602 0.53256 0.0
C427 C 0.8979 0.05666 0.54254 0.0
C428 C 0.88833 0.10259 0.53521 0.0
C429 C 0.89337 1.00602 0.53135 0.0
C430 C 0.87417 0.0974 0.51667 0.0
C431 C 0.86946 0.04712 0.50993 0.0
H432 H 0.16308 0.5709 0.57209 0.0
H433 H 0.12797 0.62245 0.38497 0.0
H434 H 0.12182 0.53108 0.37621 0.0
H435 H 0.12624 0.43653 0.42415 0.0
H436 H 0.16147 0.3853 0.61055 0.0
H437 H 0.16787 0.47625 0.61623 0.0
C438 C 0.15409 0.56211 0.52928 0.0
C439 C 0.14596 0.60344 0.47948 0.0
C440 C 0.15069 0.50944 0.52413 0.0
C441 C 0.13438 0.59139 0.42409 0.0
C442 C 0.13087 0.53912 0.419 0.0
C443 C 0.13536 0.44526 0.46554 0.0
C444 C 0.14336 0.40418 0.51707 0.0
C445 C 0.13893 0.49782 0.46892 0.0
C446 C 0.15515 0.41612 0.57026 0.0
C447 C 0.15879 0.46819 0.57377 0.0
H448 H 0.6613 0.57995 0.9576 0.0
H449 H 0.62528 0.6341 0.13311 0.0
H450 H 0.61823 0.54367 0.13609 0.0
H451 H 0.62228 0.44868 0.08632 0.0
H452 H 0.65849 0.396 0.91233 0.0
H453 H 0.66564 0.4859 0.91194 0.0
C454 C 0.65191 0.57199 0.9967 0.0
C455 C 0.64379 0.61373 0.04486 0.0
C456 C 0.64805 0.51993 0.99894 0.0
C457 C 0.63169 0.60268 0.09545 0.0
C458 C 0.62767 0.55097 0.09713 0.0
C459 C 0.63179 0.45709 0.04927 0.0
C460 C 0.64009 0.4157 1.00145 0.0
C461 C 0.63576 0.50922 0.04899 0.0
C462 C 0.65226 0.42687 0.95242 0.0
C463 C 0.65623 0.47842 0.95121 0.0
H464 H 0.39707 0.90137 0.97979 0.0
H465 H 0.35833 0.93788 0.13677 0.0
H466 H 0.3616 0.03227 0.13641 0.0
H467 H 0.37494 0.10595 0.08474 0.0
H468 H 0.41284 0.07016 0.9174 0.0
H469 H 0.41042 0.97531 0.92779 0.0
C470 C 0.3895 0.93 1.01522 0.0
C471 C 0.37756 0.91251 0.05923 0.0
C472 C 0.3912 0.98489 1.01169 0.0
C473 C 0.36766 0.95026 0.1029 0.0
C474 C 0.36949 1.00439 0.10236 0.0
C475 C 0.38266 0.07735 0.05073 0.0
C476 C 0.39405 0.09542 1.0005 0.0
C477 C 0.3811 0.02243 0.0557 0.0
C478 C 0.40393 0.05763 0.95644 0.0
C479 C 0.40259 1.00314 0.96254 0.0
H480 H 0.36771 0.43711 0.10863 0.0
H481 H 0.4045 0.38778 0.93717 0.0
H482 H 0.41058 0.47936 0.93411 0.0
H483 H 0.40546 0.57425 0.98102 0.0
H484 H 0.36881 0.62279 0.15341 0.0
H485 H 0.36254 0.53152 0.15442 0.0
C486 C 0.37706 0.44639 0.07054 0.0
C487 C 0.38564 0.40547 1.02325 0.0
C488 C 0.38043 0.49935 0.0685 0.0
C489 C 0.39771 0.41835 0.97423 0.0
C490 C 0.40119 0.47082 0.97237 0.0
C491 C 0.39605 0.5647 1.01797 0.0
C492 C 0.38736 0.60545 0.06476 0.0
C493 C 0.39262 0.51173 1.01915 0.0
C494 C 0.37534 0.59256 0.11388 0.0
C495 C 0.37187 0.54017 0.11547 0.0
H496 H 0.66205 0.07743 0.10722 0.0
H497 H 0.62748 0.13511 0.92007 0.0
H498 H 0.61953 0.04621 0.91706 0.0
H499 H 0.62236 0.95148 0.96944 0.0
H500 H 0.657 0.89485 0.15609 0.0
H501 H 0.6651 0.98334 0.15692 0.0
C502 C 0.65279 0.07053 0.06562 0.0
C503 C 0.64535 0.11287 1.01407 0.0
C504 C 0.64837 0.01924 0.06365 0.0
C505 C 0.63338 0.10322 0.9604 0.0
C506 C 0.62884 0.05237 0.95867 0.0
C507 C 0.63174 0.95872 1.0095 0.0
C508 C 0.63931 0.91664 0.06081 0.0
C509 C 0.63624 0.01001 1.01009 0.0
C510 C 0.65131 0.92631 0.11363 0.0
C511 C 0.65583 0.97704 0.11494 0.0
H512 H 0.16189 0.26353 0.20853 0.0
H513 H 0.11808 0.24144 0.23465 0.0
H514 H 0.11604 0.23815 0.05626 0.0
H515 H 0.12662 0.24141 0.89276 0.0
H516 H 0.17053 0.26187 0.8662 0.0
H517 H 0.17256 0.26569 0.04463 0.0
C518 C 0.15187 0.2582 0.17533 0.0
C519 C 0.14015 0.25292 0.23533 0.0
C520 C 0.15078 0.25584 0.07242 0.0
C521 C 0.12729 0.24559 0.19064 0.0
C522 C 0.1261 0.2437 0.08843 0.0
C523 C 0.13666 0.24667 0.92573 0.0
C524 C 0.14839 0.25141 0.86555 0.0
C525 C 0.13778 0.2487 0.02859 0.0
C526 C 0.16131 0.25801 0.91023 0.0
C527 C 0.16248 0.26032 1.01249 0.0
H528 H 0.90512 0.27682 0.19714 0.0
H529 H 0.86355 0.2282 0.2255 0.0
H530 H 0.86123 0.22613 0.04759 0.0
H531 H 0.87095 0.23742 0.8834 0.0
H532 H 0.91251 0.28596 0.85429 0.0
H533 H 0.91481 0.28871 0.03244 0.0
C534 C 0.89555 0.26577 0.16453 0.0
C535 C 0.88456 0.25259 0.22513 0.0
C536 C 0.89424 0.26461 0.06167 0.0
C537 C 0.87222 0.23848 0.18113 0.0
C538 C 0.87086 0.23727 0.0791 0.0
C539 C 0.88051 0.24868 0.91584 0.0
C540 C 0.89152 0.26146 0.85509 0.0
C541 C 0.8818 0.25015 1.0186 0.0
C542 C 0.90384 0.27593 0.89889 0.0
C543 C 0.90518 0.27751 1.001 0.0
H544 H 0.12507 0.72939 0.13227 0.0
H545 H 0.16563 0.7868 0.16133 0.0
H546 H 0.16753 0.79249 0.98309 0.0
H547 H 0.15773 0.78134 0.81889 0.0
H548 H 0.11716 0.72401 0.78988 0.0
H549 H 0.11525 0.71834 0.96811 0.0
C550 C 0.13436 0.74302 0.09982 0.0
C551 C 0.14519 0.7575 0.16055 0.0
C552 C 0.13538 0.74641 0.99709 0.0
C553 C 0.15712 0.77527 0.11674 0.0
C554 C 0.15822 0.77862 1.01463 0.0
C555 C 0.14844 0.76773 0.85134 0.0
C556 C 0.1376 0.75325 0.7906 0.0
C557 C 0.14741 0.76438 0.95408 0.0
C558 C 0.12567 0.73553 0.83444 0.0
C559 C 0.12457 0.73219 0.93655 0.0
H560 H 0.90338 0.78458 0.84093 0.0
H561 H 0.86315 0.72442 0.81308 0.0
H562 H 0.86115 0.72 0.99116 0.0
H563 H 0.87081 0.73226 0.15552 0.0
H564 H 0.91109 0.79189 0.1841 0.0
H565 H 0.91301 0.79726 1.00587 0.0
C566 C 0.89414 0.77065 0.87367 0.0
C567 C 0.88345 0.75484 0.813 0.0
C568 C 0.89305 0.76791 0.97675 0.0
C569 C 0.87159 0.73679 0.85736 0.0
C570 C 0.87041 0.7342 0.95953 0.0
C571 C 0.88003 0.74645 0.12301 0.0
C572 C 0.89078 0.76161 0.18386 0.0
C573 C 0.8811 0.74946 1.02004 0.0
C574 C 0.90262 0.77989 0.13967 0.0
C575 C 0.90375 0.78304 0.03742 0.0
H576 H 0.62471 0.74219 0.39778 0.0
H577 H 0.66643 0.78934 0.36929 0.0
H578 H 0.66836 0.79471 0.5475 0.0
H579 H 0.65823 0.78661 0.71149 0.0
H580 H 0.61649 0.73963 0.7402 0.0
H581 H 0.61459 0.73383 0.56196 0.0
C582 C 0.63426 0.75347 0.43036 0.0
C583 C 0.64541 0.76523 0.36974 0.0
C584 C 0.63529 0.75675 0.53313 0.0
C585 C 0.65767 0.77997 0.41374 0.0
C586 C 0.65879 0.78315 0.51585 0.0
C587 C 0.64868 0.77524 0.679 0.0
C588 C 0.63751 0.76375 0.73967 0.0
C589 C 0.64765 0.77179 0.57626 0.0
C590 C 0.62526 0.74884 0.69572 0.0
C591 C 0.62416 0.74542 0.59359 0.0
H592 H 0.36733 0.74061 0.6982 0.0
H593 H 0.40814 0.79543 0.73062 0.0
H594 H 0.4106 0.79904 0.55252 0.0
H595 H 0.40134 0.78547 0.38669 0.0
H596 H 0.36049 0.73061 0.3557 0.0
H597 H 0.35797 0.72834 0.53333 0.0
C598 C 0.37677 0.75347 0.66661 0.0
C599 C 0.38753 0.76761 0.72847 0.0
C600 C 0.37815 0.75542 0.56381 0.0
C601 C 0.39966 0.78424 0.6854 0.0
C602 C 0.4011 0.7863 0.58323 0.0
C603 C 0.39187 0.77307 0.4186 0.0
C604 C 0.38115 0.75817 0.35703 0.0
C605 C 0.39044 0.77178 0.52158 0.0
C606 C 0.36895 0.74232 0.40048 0.0
C607 C 0.36748 0.74095 0.50247 0.0
H608 H 0.65988 0.28625 0.34847 0.0
H609 H 0.61851 0.23577 0.32025 0.0
H610 H 0.61662 0.23039 0.49861 0.0
H611 H 0.62665 0.24007 0.66267 0.0
H612 H 0.66802 0.29062 0.69069 0.0
H613 H 0.66993 0.2957 0.51236 0.0
C614 C 0.65042 0.27419 0.38109 0.0
C615 C 0.63934 0.26159 0.32055 0.0
C616 C 0.6494 0.27101 0.48387 0.0
C617 C 0.6272 0.24583 0.36465 0.0
C618 C 0.62611 0.24267 0.46684 0.0
C619 C 0.63612 0.25206 0.62999 0.0
C620 C 0.64718 0.26484 0.69049 0.0
C621 C 0.63714 0.25511 0.52717 0.0
C622 C 0.65933 0.28046 0.64633 0.0
C623 C 0.66044 0.28346 0.54416 0.0
H624 H 0.40521 0.27729 0.35283 0.0
H625 H 0.36592 0.20998 0.32646 0.0
H626 H 0.36363 0.20857 0.50461 0.0
H627 H 0.37274 0.22626 0.66846 0.0
H628 H 0.41209 0.29318 0.69473 0.0
H629 H 0.41432 0.29495 0.5166 0.0
C630 C 0.39615 0.26221 0.38593 0.0
C631 C 0.38578 0.24372 0.32595 0.0
C632 C 0.39487 0.26151 0.48874 0.0
C633 C 0.3741 0.22444 0.37049 0.0
C634 C 0.37275 0.22364 0.47259 0.0
C635 C 0.38179 0.24138 0.63534 0.0
C636 C 0.39221 0.25957 0.69531 0.0
C637 C 0.38306 0.24211 0.5325 0.0
C638 C 0.40389 0.27884 0.65073 0.0
C639 C 0.40519 0.27988 0.54863 0.0
H640 H 0.03802 0.27205 0.65194 0.0
H641 H 0.04397 0.28703 0.33969 0.0
H642 H 0.01871 0.28806 0.31338 0.0
H643 H 0.99485 0.28178 0.37956 0.0
H644 H 0.98945 0.26646 0.69239 0.0
H645 H 1.01448 0.26932 0.71787 0.0
C646 C 0.0338 0.27645 0.57812 0.0
C647 C 0.04293 0.27966 0.49803 0.0
C648 C 0.01931 0.27682 0.56356 0.0
C649 C 0.03724 0.28405 0.40274 0.0
C650 C 0.02277 0.28486 0.38766 0.0
C651 C 0.99916 0.27966 0.45323 0.0
C652 C 0.99029 0.27345 0.53386 0.0
C653 C 1.01369 0.28085 0.46752 0.0
C654 C 0.99606 0.27043 0.62893 0.0
C655 C 1.01037 0.27222 0.64367 0.0
H656 H 0.9938 0.68043 0.57152 0.0
H657 H 0.98736 0.85076 0.60604 0.0
H658 H 1.01258 0.85515 0.603 0.0
H659 H 0.03655 0.81142 0.58354 0.0
H660 H 0.04299 0.64151 0.54276 0.0
H661 H 0.01785 0.63638 0.55599 0.0
C662 C 0.9979 0.71854 0.57828 0.0
C663 C 0.98858 0.76513 0.58925 0.0
C664 C 1.0125 0.72097 0.57539 0.0
C665 C 0.99419 0.81404 0.59913 0.0
C666 C 1.00866 0.81671 0.5966 0.0
C667 C 0.03247 0.77324 0.57732 0.0
C668 C 0.04177 0.72698 0.56212 0.0
C669 C 0.01792 0.77053 0.58374 0.0
C670 C 0.03621 0.67779 0.55588 0.0
C671 C 0.02177 0.67481 0.56261 0.0
H672 H 0.53562 0.80346 0.13735 0.0
H673 H 0.54046 0.74233 0.84259 0.0
H674 H 0.51505 0.74445 0.82674 0.0
H675 H 0.49142 0.76205 0.89755 0.0
H676 H 0.48672 0.8217 0.19359 0.0
H677 H 0.512 0.82317 0.20651 0.0
C678 C 0.53113 0.79134 0.06901 0.0
C679 C 0.54003 0.77268 0.99136 0.0
C680 C 0.51648 0.79255 0.06038 0.0
C681 C 0.53394 0.75628 0.90408 0.0
C682 C 0.51938 0.75768 0.89477 0.0
C683 C 0.4959 0.77516 0.96516 0.0
C684 C 0.48704 0.79177 0.04439 0.0
C685 C 0.51054 0.77526 0.97277 0.0
C686 C 0.49314 0.80942 0.1307 0.0
C687 C 0.50766 0.80989 0.13855 0.0
H688 H 0.49568 0.212 0.13962 0.0
H689 H 0.4875 0.37089 1.02231 0.0
H690 H 0.5126 0.37906 1.01816 0.0
H691 H 0.53697 0.33912 0.03814 0.0
H692 H 0.54503 0.17838 0.14714 0.0
H693 H 0.51996 0.17323 0.16471 0.0
C694 C 0.49937 0.24841 0.11285 0.0
C695 C 0.48964 0.2906 0.08073 0.0
C696 C 0.51385 0.25257 0.1091 0.0
C697 C 0.49467 0.33789 0.04837 0.0
C698 C 0.50906 0.34247 0.04525 0.0
C699 C 0.53326 0.30292 0.06574 0.0
C700 C 0.54297 0.2592 0.09102 0.0
C701 C 0.51876 0.29976 0.07396 0.0
C702 C 0.5379 0.213 0.12833 0.0
C703 C 0.52352 0.20979 0.13759 0.0
loop_
_geom_bond_atom_site_label_1
_geom_bond_atom_site_label_2
_geom_bond_distance
_geom_bond_site_symmetry_2
_ccdc_geom_bond_type
Ho0 C3 2.811 . S
Ho0 O20 2.322 . S
Ho0 O22 2.378 . S
Ho0 O23 2.524 . S
Ho0 O24 2.381 . S
Ho0 O25 2.669 . S
Ho0 O27 2.346 . S
Ho0 O31 2.305 . S
Ho1 C12 2.811 . S
Ho1 O21 2.346 . S
Ho1 O25 2.305 . S
Ho1 O26 2.322 . S
Ho1 O28 2.378 . S
Ho1 O29 2.524 . S
Ho1 O30 2.381 . S
Ho1 O31 2.669 . S
C2 O20 1.259 . S
C2 O21 1.268 . S
C3 Ho0 2.811 . S
C3 C4 1.488 . S
C3 O22 1.215 . S
C3 O23 1.289 . S
C4 C3 1.488 . S
C4 C5 1.348 . S
C4 C9 1.413 . S
C5 C4 1.348 . S
C5 C6 1.442 . S
C5 H32 0.930 . S
C6 C5 1.442 . S
C6 C7 1.381 . S
C6 H33 0.931 . S
C7 C6 1.381 . S
C7 C8 1.321 . S
C8 C7 1.321 . S
C8 C9 1.403 . S
C8 H34 0.934 . S
C9 C4 1.413 . S
C9 C8 1.403 . S
C9 H35 0.930 . S
C10 O24 1.275 . S
C10 O25 1.256 . S
C11 O26 1.259 . S
C11 O27 1.268 . S
C12 Ho1 2.811 . S
C12 C13 1.488 . S
C12 O28 1.215 . S
C12 O29 1.289 . S
C13 C12 1.488 . S
C13 C14 1.348 . S
C13 C18 1.413 . S
C14 C13 1.348 . S
C14 C15 1.442 . S
C14 H36 0.930 . S
C15 C14 1.442 . S
C15 C16 1.381 . S
C15 H37 0.931 . S
C16 C15 1.381 . S
C16 C17 1.321 . S
C17 C16 1.321 . S
C17 C18 1.403 . S
C17 H38 0.934 . S
C18 C13 1.413 . S
C18 C17 1.403 . S
C18 H39 0.930 . S
C19 O30 1.275 . S
C19 O31 1.256 . S
O20 Ho0 2.322 . S
O20 C2 1.259 . S
O21 Ho1 2.346 . S
O21 C2 1.268 . S
O22 Ho0 2.378 . S
O22 C3 1.215 . S
O23 Ho0 2.524 . S
O23 C3 1.289 . S
O24 Ho0 2.381 . S
O24 C10 1.275 . S
O25 Ho0 2.669 . S
O25 Ho1 2.305 . S
O25 C10 1.256 . S
O26 Ho1 2.322 . S
O26 C11 1.259 . S
O27 Ho0 2.346 . S
O27 C11 1.268 . S
O28 Ho1 2.378 . S
O28 C12 1.215 . S
O29 Ho1 2.524 . S
O29 C12 1.289 . S
O30 Ho1 2.381 . S
O30 C19 1.275 . S
O31 Ho0 2.305 . S
O31 Ho1 2.669 . S
O31 C19 1.256 . S
H32 C5 0.930 . S
H33 C6 0.931 . S
H34 C8 0.934 . S
H35 C9 0.930 . S
H36 C14 0.930 . S
H37 C15 0.931 . S
H38 C17 0.934 . S
H39 C18 0.930 . S
Ho40 C43 2.811 . S
Ho40 O60 2.322 . S
Ho40 O62 2.378 . S
Ho40 O63 2.524 . S
Ho40 O64 2.381 . S
Ho40 O65 2.669 . S
Ho40 O67 2.346 . S
Ho40 O71 2.305 . S
Ho41 C52 2.811 . S
Ho41 O61 2.346 . S
Ho41 O65 2.305 . S
Ho41 O66 2.322 . S
Ho41 O68 2.378 . S
Ho41 O69 2.524 . S
Ho41 O70 2.381 . S
Ho41 O71 2.669 . S
C42 O60 1.259 . S
C42 O61 1.268 . S
C43 Ho40 2.811 . S
C43 C44 1.488 . S
C43 O62 1.215 . S
C43 O63 1.289 . S
C44 C43 1.488 . S
C44 C45 1.348 . S
C44 C49 1.413 . S
C45 C44 1.348 . S
C45 C46 1.442 . S
C45 H72 0.930 . S
C46 C45 1.442 . S
C46 C47 1.381 . S
C46 H73 0.931 . S
C47 C46 1.381 . S
C47 C48 1.321 . S
C48 C47 1.321 . S
C48 C49 1.403 . S
C48 H74 0.934 . S
C49 C44 1.413 . S
C49 C48 1.403 . S
C49 H75 0.930 . S
C50 O64 1.275 . S
C50 O65 1.256 . S
C51 O66 1.259 . S
C51 O67 1.268 . S
C52 Ho41 2.811 . S
C52 C53 1.488 . S
C52 O68 1.215 . S
C52 O69 1.289 . S
C53 C52 1.488 . S
C53 C54 1.348 . S
C53 C58 1.413 . S
C54 C53 1.348 . S
C54 C55 1.442 . S
C54 H76 0.930 . S
C55 C54 1.442 . S
C55 C56 1.381 . S
C55 H77 0.931 . S
C56 C55 1.381 . S
C56 C57 1.321 . S
C57 C56 1.321 . S
C57 C58 1.403 . S
C57 H78 0.934 . S
C58 C53 1.413 . S
C58 C57 1.403 . S
C58 H79 0.930 . S
C59 O70 1.275 . S
C59 O71 1.256 . S
O60 Ho40 2.322 . S
O60 C42 1.259 . S
O61 Ho41 2.346 . S
O61 C42 1.268 . S
O62 Ho40 2.378 . S
O62 C43 1.215 . S
O63 Ho40 2.524 . S
O63 C43 1.289 . S
O64 Ho40 2.381 . S
O64 C50 1.275 . S
O65 Ho40 2.669 . S
O65 Ho41 2.305 . S
O65 C50 1.256 . S
O66 Ho41 2.322 . S
O66 C51 1.259 . S
O67 Ho40 2.346 . S
O67 C51 1.268 . S
O68 Ho41 2.378 . S
O68 C52 1.215 . S
O69 Ho41 2.524 . S
O69 C52 1.289 . S
O70 Ho41 2.381 . S
O70 C59 1.275 . S
O71 Ho40 2.305 . S
O71 Ho41 2.669 . S
O71 C59 1.256 . S
H72 C45 0.930 . S
H73 C46 0.931 . S
H74 C48 0.934 . S
H75 C49 0.930 . S
H76 C54 0.930 . S
H77 C55 0.931 . S
H78 C57 0.934 . S
H79 C58 0.930 . S
Ho80 C83 2.811 . S
Ho80 O100 2.322 . S
Ho80 O102 2.378 . S
Ho80 O103 2.524 . S
Ho80 O104 2.381 . S
Ho80 O105 2.669 . S
Ho80 O107 2.346 . S
Ho80 O111 2.305 . S
Ho81 C92 2.811 . S
Ho81 O101 2.346 . S
Ho81 O105 2.305 . S
Ho81 O106 2.322 . S
Ho81 O108 2.378 . S
Ho81 O109 2.524 . S
Ho81 O110 2.381 . S
Ho81 O111 2.669 . S
C82 O100 1.259 . S
C82 O101 1.268 . S
C83 Ho80 2.811 . S
C83 C84 1.488 . S
C83 O102 1.215 . S
C83 O103 1.289 . S
C84 C83 1.488 . S
C84 C85 1.348 . S
C84 C89 1.413 . S
C85 C84 1.348 . S
C85 C86 1.442 . S
C85 H112 0.930 . S
C86 C85 1.442 . S
C86 C87 1.381 . S
C86 H113 0.931 . S
C87 C86 1.381 . S
C87 C88 1.321 . S
C88 C87 1.321 . S
C88 C89 1.403 . S
C88 H114 0.934 . S
C89 C84 1.413 . S
C89 C88 1.403 . S
C89 H115 0.930 . S
C90 O104 1.275 . S
C90 O105 1.256 . S
C91 O106 1.259 . S
C91 O107 1.268 . S
C92 Ho81 2.811 . S
C92 C93 1.488 . S
C92 O108 1.215 . S
C92 O109 1.289 . S
C93 C92 1.488 . S
C93 C94 1.348 . S
C93 C98 1.413 . S
C94 C93 1.348 . S
C94 C95 1.442 . S
C94 H116 0.930 . S
C95 C94 1.442 . S
C95 C96 1.381 . S
C95 H117 0.931 . S
C96 C95 1.381 . S
C96 C97 1.321 . S
C97 C96 1.321 . S
C97 C98 1.403 . S
C97 H118 0.934 . S
C98 C93 1.413 . S
C98 C97 1.403 . S
C98 H119 0.930 . S
C99 O110 1.275 . S
C99 O111 1.256 . S
O100 Ho80 2.322 . S
O100 C82 1.259 . S
O101 Ho81 2.346 . S
O101 C82 1.268 . S
O102 Ho80 2.378 . S
O102 C83 1.215 . S
O103 Ho80 2.524 . S
O103 C83 1.289 . S
O104 Ho80 2.381 . S
O104 C90 1.275 . S
O105 Ho80 2.669 . S
O105 Ho81 2.305 . S
O105 C90 1.256 . S
O106 Ho81 2.322 . S
O106 C91 1.259 . S
O107 Ho80 2.346 . S
O107 C91 1.268 . S
O108 Ho81 2.378 . S
O108 C92 1.215 . S
O109 Ho81 2.524 . S
O109 C92 1.289 . S
O110 Ho81 2.381 . S
O110 C99 1.275 . S
O111 Ho80 2.305 . S
O111 Ho81 2.669 . S
O111 C99 1.256 . S
H112 C85 0.930 . S
H113 C86 0.931 . S
H114 C88 0.934 . S
H115 C89 0.930 . S
H116 C94 0.930 . S
H117 C95 0.931 . S
H118 C97 0.934 . S
H119 C98 0.930 . S
Ho120 C123 2.811 . S
Ho120 O140 2.322 . S
Ho120 O142 2.378 . S
Ho120 O143 2.524 . S
Ho120 O144 2.381 . S
Ho120 O145 2.669 . S
Ho120 O147 2.346 . S
Ho120 O151 2.305 . S
Ho121 C132 2.811 . S
Ho121 O141 2.346 . S
Ho121 O145 2.305 . S
Ho121 O146 2.322 . S
Ho121 O148 2.378 . S
Ho121 O149 2.524 . S
Ho121 O150 2.381 . S
Ho121 O151 2.669 . S
C122 O140 1.259 . S
C122 O141 1.268 . S
C123 Ho120 2.811 . S
C123 C124 1.488 . S
C123 O142 1.215 . S
C123 O143 1.289 . S
C124 C123 1.488 . S
C124 C125 1.348 . S
C124 C129 1.413 . S
C125 C124 1.348 . S
C125 C126 1.442 . S
C125 H152 0.930 . S
C126 C125 1.442 . S
C126 C127 1.381 . S
C126 H153 0.931 . S
C127 C126 1.381 . S
C127 C128 1.321 . S
C128 C127 1.321 . S
C128 C129 1.403 . S
C128 H154 0.934 . S
C129 C124 1.413 . S
C129 C128 1.403 . S
C129 H155 0.930 . S
C130 O144 1.275 . S
C130 O145 1.256 . S
C131 O146 1.259 . S
C131 O147 1.268 . S
C132 Ho121 2.811 . S
C132 C133 1.488 . S
C132 O148 1.215 . S
C132 O149 1.289 . S
C133 C132 1.488 . S
C133 C134 1.348 . S
C133 C138 1.413 . S
C134 C133 1.348 . S
C134 C135 1.442 . S
C134 H156 0.930 . S
C135 C134 1.442 . S
C135 C136 1.381 . S
C135 H157 0.931 . S
C136 C135 1.381 . S
C136 C137 1.321 . S
C137 C136 1.321 . S
C137 C138 1.403 . S
C137 H158 0.934 . S
C138 C133 1.413 . S
C138 C137 1.403 . S
C138 H159 0.930 . S
C139 O150 1.275 . S
C139 O151 1.256 . S
O140 Ho120 2.322 . S
O140 C122 1.259 . S
O141 Ho121 2.346 . S
O141 C122 1.268 . S
O142 Ho120 2.378 . S
O142 C123 1.215 . S
O143 Ho120 2.524 . S
O143 C123 1.289 . S
O144 Ho120 2.381 . S
O144 C130 1.275 . S
O145 Ho120 2.669 . S
O145 Ho121 2.305 . S
O145 C130 1.256 . S
O146 Ho121 2.322 . S
O146 C131 1.259 . S
O147 Ho120 2.346 . S
O147 C131 1.268 . S
O148 Ho121 2.378 . S
O148 C132 1.215 . S
O149 Ho121 2.524 . S
O149 C132 1.289 . S
O150 Ho121 2.381 . S
O150 C139 1.275 . S
O151 Ho120 2.305 . S
O151 Ho121 2.669 . S
O151 C139 1.256 . S
H152 C125 0.930 . S
H153 C126 0.931 . S
H154 C128 0.934 . S
H155 C129 0.930 . S
H156 C134 0.930 . S
H157 C135 0.931 . S
H158 C137 0.934 . S
H159 C138 0.930 . S
Ho160 C163 2.811 1_556 S
Ho160 O180 2.322 1_556 S
Ho160 O182 2.378 1_556 S
Ho160 O183 2.524 1_556 S
Ho160 O184 2.381 . S
Ho160 O185 2.669 . S
Ho160 O187 2.346 . S
Ho160 O191 2.305 1_556 S
Ho161 C172 2.811 1_554 S
Ho161 O181 2.346 . S
Ho161 O185 2.305 1_554 S
Ho161 O186 2.322 1_554 S
Ho161 O188 2.378 1_554 S
Ho161 O189 2.524 1_554 S
Ho161 O190 2.381 . S
Ho161 O191 2.669 . S
C162 O180 1.259 . S
C162 O181 1.268 . S
C163 Ho160 2.811 1_554 S
C163 C164 1.488 . S
C163 O182 1.215 . S
C163 O183 1.289 . S
C164 C163 1.488 . S
C164 C165 1.348 . S
C164 C169 1.413 . S
C165 C164 1.348 . S
C165 C166 1.442 . S
C165 H192 0.930 . S
C166 C165 1.442 . S
C166 C167 1.381 . S
C166 H193 0.931 . S
C167 C166 1.381 . S
C167 C168 1.321 . S
C168 C167 1.321 . S
C168 C169 1.403 . S
C168 H194 0.934 . S
C169 C164 1.413 . S
C169 C168 1.403 . S
C169 H195 0.930 . S
C170 O184 1.275 . S
C170 O185 1.256 . S
C171 O186 1.259 . S
C171 O187 1.268 . S
C172 Ho161 2.811 1_556 S
C172 C173 1.488 . S
C172 O188 1.215 . S
C172 O189 1.289 . S
C173 C172 1.488 . S
C173 C174 1.348 . S
C173 C178 1.413 . S
C174 C173 1.348 . S
C174 C175 1.442 . S
C174 H196 0.930 . S
C175 C174 1.442 . S
C175 C176 1.381 . S
C175 H197 0.931 . S
C176 C175 1.381 . S
C176 C177 1.321 . S
C177 C176 1.321 . S
C177 C178 1.403 . S
C177 H198 0.934 . S
C178 C173 1.413 . S
C178 C177 1.403 . S
C178 H199 0.930 . S
C179 O190 1.275 . S
C179 O191 1.256 . S
O180 Ho160 2.322 1_554 S
O180 C162 1.259 . S
O181 Ho161 2.346 . S
O181 C162 1.268 . S
O182 Ho160 2.378 1_554 S
O182 C163 1.215 . S
O183 Ho160 2.524 1_554 S
O183 C163 1.289 . S
O184 Ho160 2.381 . S
O184 C170 1.275 . S
O185 Ho160 2.669 . S
O185 Ho161 2.305 1_556 S
O185 C170 1.256 . S
O186 Ho161 2.322 1_556 S
O186 C171 1.259 . S
O187 Ho160 2.346 . S
O187 C171 1.268 . S
O188 Ho161 2.378 1_556 S
O188 C172 1.215 . S
O189 Ho161 2.524 1_556 S
O189 C172 1.289 . S
O190 Ho161 2.381 . S
O190 C179 1.275 . S
O191 Ho160 2.305 1_554 S
O191 Ho161 2.669 . S
O191 C179 1.256 . S
H192 C165 0.930 . S
H193 C166 0.931 . S
H194 C168 0.934 . S
H195 C169 0.930 . S
H196 C174 0.930 . S
H197 C175 0.931 . S
H198 C177 0.934 . S
H199 C178 0.930 . S
Ho200 C203 2.811 1_556 S
Ho200 O220 2.322 1_556 S
Ho200 O222 2.378 1_556 S
Ho200 O223 2.524 1_556 S
Ho200 O224 2.381 . S
Ho200 O225 2.669 . S
Ho200 O227 2.346 . S
Ho200 O231 2.305 1_556 S
Ho201 C212 2.811 1_554 S
Ho201 O221 2.346 . S
Ho201 O225 2.305 1_554 S
Ho201 O226 2.322 1_554 S
Ho201 O228 2.378 1_554 S
Ho201 O229 2.524 1_554 S
Ho201 O230 2.381 . S
Ho201 O231 2.669 . S
C202 O220 1.259 . S
C202 O221 1.268 . S
C203 Ho200 2.811 1_554 S
C203 C204 1.488 . S
C203 O222 1.215 . S
C203 O223 1.289 . S
C204 C203 1.488 . S
C204 C205 1.348 . S
C204 C209 1.413 . S
C205 C204 1.348 . S
C205 C206 1.442 . S
C205 H232 0.930 . S
C206 C205 1.442 . S
C206 C207 1.381 . S
C206 H233 0.931 . S
C207 C206 1.381 . S
C207 C208 1.321 . S
C208 C207 1.321 . S
C208 C209 1.403 . S
C208 H234 0.934 . S
C209 C204 1.413 . S
C209 C208 1.403 . S
C209 H235 0.930 . S
C210 O224 1.275 . S
C210 O225 1.256 . S
C211 O226 1.259 . S
C211 O227 1.268 . S
C212 Ho201 2.811 1_556 S
C212 C213 1.488 . S
C212 O228 1.215 . S
C212 O229 1.289 . S
C213 C212 1.488 . S
C213 C214 1.348 . S
C213 C218 1.413 . S
C214 C213 1.348 . S
C214 C215 1.442 . S
C214 H236 0.930 . S
C215 C214 1.442 . S
C215 C216 1.381 . S
C215 H237 0.931 . S
C216 C215 1.381 . S
C216 C217 1.321 . S
C217 C216 1.321 . S
C217 C218 1.403 . S
C217 H238 0.934 . S
C218 C213 1.413 . S
C218 C217 1.403 . S
C218 H239 0.930 . S
C219 O230 1.275 . S
C219 O231 1.256 . S
O220 Ho200 2.322 1_554 S
O220 C202 1.259 . S
O221 Ho201 2.346 . S
O221 C202 1.268 . S
O222 Ho200 2.378 1_554 S
O222 C203 1.215 . S
O223 Ho200 2.524 1_554 S
O223 C203 1.289 . S
O224 Ho200 2.381 . S
O224 C210 1.275 . S
O225 Ho200 2.669 . S
O225 Ho201 2.305 1_556 S
O225 C210 1.256 . S
O226 Ho201 2.322 1_556 S
O226 C211 1.259 . S
O227 Ho200 2.346 . S
O227 C211 1.268 . S
O228 Ho201 2.378 1_556 S
O228 C212 1.215 . S
O229 Ho201 2.524 1_556 S
O229 C212 1.289 . S
O230 Ho201 2.381 . S
O230 C219 1.275 . S
O231 Ho200 2.305 1_554 S
O231 Ho201 2.669 . S
O231 C219 1.256 . S
H232 C205 0.930 . S
H233 C206 0.931 . S
H234 C208 0.934 . S
H235 C209 0.930 . S
H236 C214 0.930 . S
H237 C215 0.931 . S
H238 C217 0.934 . S
H239 C218 0.930 . S
Ho240 C243 2.811 1_556 S
Ho240 O260 2.322 1_556 S
Ho240 O262 2.378 1_556 S
Ho240 O263 2.524 1_556 S
Ho240 O264 2.381 . S
Ho240 O265 2.669 . S
Ho240 O267 2.346 . S
Ho240 O271 2.305 1_556 S
Ho241 C252 2.811 1_554 S
Ho241 O261 2.346 . S
Ho241 O265 2.305 1_554 S
Ho241 O266 2.322 1_554 S
Ho241 O268 2.378 1_554 S
Ho241 O269 2.524 1_554 S
Ho241 O270 2.381 . S
Ho241 O271 2.669 . S
C242 O260 1.259 . S
C242 O261 1.268 . S
C243 Ho240 2.811 1_554 S
C243 C244 1.488 . S
C243 O262 1.215 . S
C243 O263 1.289 . S
C244 C243 1.488 . S
C244 C245 1.348 . S
C244 C249 1.413 . S
C245 C244 1.348 . S
C245 C246 1.442 . S
C245 H272 0.930 . S
C246 C245 1.442 . S
C246 C247 1.381 . S
C246 H273 0.931 . S
C247 C246 1.381 . S
C247 C248 1.321 . S
C248 C247 1.321 . S
C248 C249 1.403 . S
C248 H274 0.934 . S
C249 C244 1.413 . S
C249 C248 1.403 . S
C249 H275 0.930 . S
C250 O264 1.275 . S
C250 O265 1.256 . S
C251 O266 1.259 . S
C251 O267 1.268 . S
C252 Ho241 2.811 1_556 S
C252 C253 1.488 . S
C252 O268 1.215 . S
C252 O269 1.289 . S
C253 C252 1.488 . S
C253 C254 1.348 . S
C253 C258 1.413 . S
C254 C253 1.348 . S
C254 C255 1.442 . S
C254 H276 0.930 . S
C255 C254 1.442 . S
C255 C256 1.381 . S
C255 H277 0.931 . S
C256 C255 1.381 . S
C256 C257 1.321 . S
C257 C256 1.321 . S
C257 C258 1.403 . S
C257 H278 0.934 . S
C258 C253 1.413 . S
C258 C257 1.403 . S
C258 H279 0.930 . S
C259 O270 1.275 . S
C259 O271 1.256 . S
O260 Ho240 2.322 1_554 S
O260 C242 1.259 . S
O261 Ho241 2.346 . S
O261 C242 1.268 . S
O262 Ho240 2.378 1_554 S
O262 C243 1.215 . S
O263 Ho240 2.524 1_554 S
O263 C243 1.289 . S
O264 Ho240 2.381 . S
O264 C250 1.275 . S
O265 Ho240 2.669 . S
O265 Ho241 2.305 1_556 S
O265 C250 1.256 . S
O266 Ho241 2.322 1_556 S
O266 C251 1.259 . S
O267 Ho240 2.346 . S
O267 C251 1.268 . S
O268 Ho241 2.378 1_556 S
O268 C252 1.215 . S
O269 Ho241 2.524 1_556 S
O269 C252 1.289 . S
O270 Ho241 2.381 . S
O270 C259 1.275 . S
O271 Ho240 2.305 1_554 S
O271 Ho241 2.669 . S
O271 C259 1.256 . S
H272 C245 0.930 . S
H273 C246 0.931 . S
H274 C248 0.934 . S
H275 C249 0.930 . S
H276 C254 0.930 . S
H277 C255 0.931 . S
H278 C257 0.934 . S
H279 C258 0.930 . S
Ho280 C283 2.811 1_556 S
Ho280 O300 2.322 1_556 S
Ho280 O302 2.378 1_556 S
Ho280 O303 2.524 1_556 S
Ho280 O304 2.381 . S
Ho280 O305 2.669 . S
Ho280 O307 2.346 . S
Ho280 O311 2.305 1_556 S
Ho281 C292 2.811 1_554 S
Ho281 O301 2.346 . S
Ho281 O305 2.305 1_554 S
Ho281 O306 2.322 1_554 S
Ho281 O308 2.378 1_554 S
Ho281 O309 2.524 1_554 S
Ho281 O310 2.381 . S
Ho281 O311 2.669 . S
C282 O300 1.259 . S
C282 O301 1.268 . S
C283 Ho280 2.811 1_554 S
C283 C284 1.488 . S
C283 O302 1.215 . S
C283 O303 1.289 . S
C284 C283 1.488 . S
C284 C285 1.348 . S
C284 C289 1.413 . S
C285 C284 1.348 . S
C285 C286 1.442 . S
C285 H312 0.930 . S
C286 C285 1.442 . S
C286 C287 1.381 . S
C286 H313 0.931 . S
C287 C286 1.381 . S
C287 C288 1.321 . S
C288 C287 1.321 . S
C288 C289 1.403 . S
C288 H314 0.934 . S
C289 C284 1.413 . S
C289 C288 1.403 . S
C289 H315 0.930 . S
C290 O304 1.275 . S
C290 O305 1.256 . S
C291 O306 1.259 . S
C291 O307 1.268 . S
C292 Ho281 2.811 1_556 S
C292 C293 1.488 . S
C292 O308 1.215 . S
C292 O309 1.289 . S
C293 C292 1.488 . S
C293 C294 1.348 . S
C293 C298 1.413 . S
C294 C293 1.348 . S
C294 C295 1.442 . S
C294 H316 0.930 . S
C295 C294 1.442 . S
C295 C296 1.381 . S
C295 H317 0.931 . S
C296 C295 1.381 . S
C296 C297 1.321 . S
C297 C296 1.321 . S
C297 C298 1.403 . S
C297 H318 0.934 . S
C298 C293 1.413 . S
C298 C297 1.403 . S
C298 H319 0.930 . S
C299 O310 1.275 . S
C299 O311 1.256 . S
O300 Ho280 2.322 1_554 S
O300 C282 1.259 . S
O301 Ho281 2.346 . S
O301 C282 1.268 . S
O302 Ho280 2.378 1_554 S
O302 C283 1.215 . S
O303 Ho280 2.524 1_554 S
O303 C283 1.289 . S
O304 Ho280 2.381 . S
O304 C290 1.275 . S
O305 Ho280 2.669 . S
O305 Ho281 2.305 1_556 S
O305 C290 1.256 . S
O306 Ho281 2.322 1_556 S
O306 C291 1.259 . S
O307 Ho280 2.346 . S
O307 C291 1.268 . S
O308 Ho281 2.378 1_556 S
O308 C292 1.215 . S
O309 Ho281 2.524 1_556 S
O309 C292 1.289 . S
O310 Ho281 2.381 . S
O310 C299 1.275 . S
O311 Ho280 2.305 1_554 S
O311 Ho281 2.669 . S
O311 C299 1.256 . S
H312 C285 0.930 . S
H313 C286 0.931 . S
H314 C288 0.934 . S
H315 C289 0.930 . S
H316 C294 0.930 . S
H317 C295 0.931 . S
H318 C297 0.934 . S
H319 C298 0.930 . S
H320 C326 0.930 . S
H321 C329 0.930 . S
H322 C330 0.930 . S
H323 C331 0.930 . S
H324 C334 0.930 . S
H325 C335 0.930 . S
C326 H320 0.930 . S
C326 C327 1.355 . S
C326 C328 1.415 . S
C327 C326 1.355 . S
C327 C329 1.419 . S
C328 C326 1.415 . S
C328 C333 1.425 . S
C328 C335 1.409 . S
C329 H321 0.930 . S
C329 C327 1.419 . S
C329 C330 1.362 . S
C330 H322 0.930 . S
C330 C329 1.362 . S
C330 C333 1.409 . S
C331 H323 0.930 . S
C331 C332 1.355 . S
C331 C333 1.415 . S
C332 C331 1.355 . S
C332 C334 1.419 . S
C333 C328 1.425 . S
C333 C330 1.409 . S
C333 C331 1.415 . S
C334 H324 0.930 . S
C334 C332 1.419 . S
C334 C335 1.362 . S
C335 H325 0.930 . S
C335 C328 1.409 . S
C335 C334 1.362 . S
H336 C342 0.930 . S
H337 C345 0.930 . S
H338 C346 0.930 . S
H339 C347 0.930 . S
H340 C350 0.930 . S
H341 C351 0.930 . S
C342 H336 0.930 . S
C342 C343 1.355 . S
C342 C344 1.415 . S
C343 C342 1.355 . S
C343 C345 1.419 . S
C344 C342 1.415 . S
C344 C349 1.425 . S
C344 C351 1.409 . S
C345 H337 0.930 . S
C345 C343 1.419 . S
C345 C346 1.362 . S
C346 H338 0.930 . S
C346 C345 1.362 . S
C346 C349 1.409 . S
C347 H339 0.930 . S
C347 C348 1.355 . S
C347 C349 1.415 . S
C348 C347 1.355 . S
C348 C350 1.419 . S
C349 C344 1.425 . S
C349 C346 1.409 . S
C349 C347 1.415 . S
C350 H340 0.930 . S
C350 C348 1.419 . S
C350 C351 1.362 . S
C351 H341 0.930 . S
C351 C344 1.409 . S
C351 C350 1.362 . S
H352 C358 0.930 . S
H353 C361 0.930 . S
H354 C362 0.930 . S
H355 C363 0.930 . S
H356 C366 0.930 . S
H357 C367 0.930 . S
C358 H352 0.930 . S
C358 C359 1.355 . S
C358 C360 1.415 . S
C359 C358 1.355 . S
C359 C361 1.419 . S
C360 C358 1.415 . S
C360 C365 1.425 . S
C360 C367 1.409 . S
C361 H353 0.930 . S
C361 C359 1.419 . S
C361 C362 1.362 . S
C362 H354 0.930 . S
C362 C361 1.362 . S
C362 C365 1.409 . S
C363 H355 0.930 . S
C363 C364 1.355 . S
C363 C365 1.415 . S
C364 C363 1.355 . S
C364 C366 1.419 . S
C365 C360 1.425 . S
C365 C362 1.409 . S
C365 C363 1.415 . S
C366 H356 0.930 . S
C366 C364 1.419 . S
C366 C367 1.362 . S
C367 H357 0.930 . S
C367 C360 1.409 . S
C367 C366 1.362 . S
H368 C374 0.930 . S
H369 C377 0.930 . S
H370 C378 0.930 . S
H371 C379 0.930 . S
H372 C382 0.930 . S
H373 C383 0.930 . S
C374 H368 0.930 . S
C374 C375 1.355 . S
C374 C376 1.415 . S
C375 C374 1.355 . S
C375 C377 1.419 . S
C376 C374 1.415 . S
C376 C381 1.425 . S
C376 C383 1.409 . S
C377 H369 0.930 . S
C377 C375 1.419 . S
C377 C378 1.362 . S
C378 H370 0.930 . S
C378 C377 1.362 . S
C378 C381 1.409 . S
C379 H371 0.930 . S
C379 C380 1.355 . S
C379 C381 1.415 . S
C380 C379 1.355 . S
C380 C382 1.419 . S
C381 C376 1.425 . S
C381 C378 1.409 . S
C381 C379 1.415 . S
C382 H372 0.930 . S
C382 C380 1.419 . S
C382 C383 1.362 . S
C383 H373 0.930 . S
C383 C376 1.409 . S
C383 C382 1.362 . S
H384 C390 0.930 . S
H385 C393 0.930 . S
H386 C394 0.930 . S
H387 C395 0.930 . S
H388 C398 0.930 . S
H389 C399 0.930 . S
C390 H384 0.930 . S
C390 C391 1.355 . S
C390 C392 1.415 . S
C391 C390 1.355 . S
C391 C393 1.419 . S
C392 C390 1.415 . S
C392 C397 1.425 . S
C392 C399 1.409 1_565 S
C393 H385 0.930 . S
C393 C391 1.419 . S
C393 C394 1.362 . S
C394 H386 0.930 . S
C394 C393 1.362 . S
C394 C397 1.409 . S
C395 H387 0.930 . S
C395 C396 1.355 . S
C395 C397 1.415 1_545 S
C396 C395 1.355 . S
C396 C398 1.419 . S
C397 C392 1.425 . S
C397 C394 1.409 . S
C397 C395 1.415 1_565 S
C398 H388 0.930 . S
C398 C396 1.419 . S
C398 C399 1.362 . S
C399 H389 0.930 . S
C399 C392 1.409 1_545 S
C399 C398 1.362 . S
H400 C406 0.930 . S
H401 C409 0.930 . S
H402 C410 0.930 . S
H403 C411 0.930 . S
H404 C414 0.930 . S
H405 C415 0.930 . S
C406 H400 0.930 . S
C406 C407 1.355 . S
C406 C408 1.415 . S
C407 C406 1.355 . S
C407 C409 1.419 . S
C408 C406 1.415 . S
C408 C413 1.425 . S
C408 C415 1.409 . S
C409 H401 0.930 . S
C409 C407 1.419 . S
C409 C410 1.362 . S
C410 H402 0.930 . S
C410 C409 1.362 . S
C410 C413 1.409 . S
C411 H403 0.930 . S
C411 C412 1.355 . S
C411 C413 1.415 . S
C412 C411 1.355 . S
C412 C414 1.419 . S
C413 C408 1.425 . S
C413 C410 1.409 . S
C413 C411 1.415 . S
C414 H404 0.930 . S
C414 C412 1.419 . S
C414 C415 1.362 . S
C415 H405 0.930 . S
C415 C408 1.409 . S
C415 C414 1.362 . S
H416 C422 0.930 . S
H417 C425 0.930 . S
H418 C426 0.930 1_545 S
H419 C427 0.930 . S
H420 C430 0.930 . S
H421 C431 0.930 1_565 S
C422 H416 0.930 . S
C422 C423 1.355 . S
C422 C424 1.415 . S
C423 C422 1.355 . S
C423 C425 1.419 . S
C424 C422 1.415 . S
C424 C429 1.425 1_565 S
C424 C431 1.409 1_565 S
C425 H417 0.930 . S
C425 C423 1.419 . S
C425 C426 1.362 . S
C426 H418 0.930 1_565 S
C426 C425 1.362 . S
C426 C429 1.409 1_565 S
C427 H419 0.930 . S
C427 C428 1.355 . S
C427 C429 1.415 . S
C428 C427 1.355 . S
C428 C430 1.419 . S
C429 C424 1.425 1_545 S
C429 C426 1.409 1_545 S
C429 C427 1.415 . S
C430 H420 0.930 . S
C430 C428 1.419 . S
C430 C431 1.362 . S
C431 H421 0.930 1_545 S
C431 C424 1.409 1_545 S
C431 C430 1.362 . S
H432 C438 0.930 . S
H433 C441 0.930 . S
H434 C442 0.930 . S
H435 C443 0.930 . S
H436 C446 0.930 . S
H437 C447 0.930 . S
C438 H432 0.930 . S
C438 C439 1.355 . S
C438 C440 1.415 . S
C439 C438 1.355 . S
C439 C441 1.419 . S
C440 C438 1.415 . S
C440 C445 1.425 . S
C440 C447 1.409 . S
C441 H433 0.930 . S
C441 C439 1.419 . S
C441 C442 1.362 . S
C442 H434 0.930 . S
C442 C441 1.362 . S
C442 C445 1.409 . S
C443 H435 0.930 . S
C443 C444 1.355 . S
C443 C445 1.415 . S
C444 C443 1.355 . S
C444 C446 1.419 . S
C445 C440 1.425 . S
C445 C442 1.409 . S
C445 C443 1.415 . S
C446 H436 0.930 . S
C446 C444 1.419 . S
C446 C447 1.362 . S
C447 H437 0.930 . S
C447 C440 1.409 . S
C447 C446 1.362 . S
H448 C454 0.930 . S
H449 C457 0.930 . S
H450 C458 0.930 . S
H451 C459 0.930 . S
H452 C462 0.930 . S
H453 C463 0.930 . S
C454 H448 0.930 . S
C454 C455 1.355 1_556 S
C454 C456 1.415 . S
C455 C454 1.355 1_554 S
C455 C457 1.419 . S
C456 C454 1.415 . S
C456 C461 1.425 1_556 S
C456 C463 1.409 . S
C457 H449 0.930 . S
C457 C455 1.419 . S
C457 C458 1.362 . S
C458 H450 0.930 . S
C458 C457 1.362 . S
C458 C461 1.409 . S
C459 H451 0.930 . S
C459 C460 1.355 1_554 S
C459 C461 1.415 . S
C460 C459 1.355 1_556 S
C460 C462 1.419 . S
C461 C456 1.425 1_554 S
C461 C458 1.409 . S
C461 C459 1.415 . S
C462 H452 0.930 . S
C462 C460 1.419 . S
C462 C463 1.362 . S
C463 H453 0.930 . S
C463 C456 1.409 . S
C463 C462 1.362 . S
H464 C470 0.930 . S
H465 C473 0.930 . S
H466 C474 0.930 . S
H467 C475 0.930 . S
H468 C478 0.930 . S
H469 C479 0.930 . S
C470 H464 0.930 . S
C470 C471 1.355 1_554 S
C470 C472 1.415 . S
C471 C470 1.355 1_556 S
C471 C473 1.419 . S
C472 C470 1.415 . S
C472 C477 1.425 1_564 S
C472 C479 1.409 1_565 S
C473 H465 0.930 . S
C473 C471 1.419 . S
C473 C474 1.362 . S
C474 H466 0.930 . S
C474 C473 1.362 . S
C474 C477 1.409 1_565 S
C475 H467 0.930 . S
C475 C476 1.355 . S
C475 C477 1.415 . S
C476 C475 1.355 . S
C476 C478 1.419 1_556 S
C477 C472 1.425 1_546 S
C477 C474 1.409 1_545 S
C477 C475 1.415 . S
C478 H468 0.930 . S
C478 C476 1.419 1_554 S
C478 C479 1.362 . S
C479 H469 0.930 . S
C479 C472 1.409 1_545 S
C479 C478 1.362 . S
H480 C486 0.930 . S
H481 C489 0.930 . S
H482 C490 0.930 . S
H483 C491 0.930 . S
H484 C494 0.930 . S
H485 C495 0.930 . S
C486 H480 0.930 . S
C486 C487 1.360 . S
C486 C488 1.415 . S
C487 C486 1.360 . S
C487 C489 1.412 1_554 S
C488 C486 1.415 . S
C488 C493 1.425 1_554 S
C488 C495 1.409 . S
C489 H481 0.930 . S
C489 C487 1.412 1_556 S
C489 C490 1.362 . S
C490 H482 0.930 . S
C490 C489 1.362 . S
C490 C493 1.409 . S
C491 H483 0.930 . S
C491 C492 1.355 1_556 S
C491 C493 1.415 . S
C492 C491 1.355 1_554 S
C492 C494 1.419 . S
C493 C488 1.425 1_556 S
C493 C490 1.409 . S
C493 C491 1.415 . S
C494 H484 0.930 . S
C494 C492 1.419 . S
C494 C495 1.362 . S
C495 H485 0.930 . S
C495 C488 1.409 . S
C495 C494 1.362 . S
H496 C502 0.930 . S
H497 C505 0.930 . S
H498 C506 0.930 . S
H499 C507 0.930 . S
H500 C510 0.930 . S
H501 C511 0.930 . S
C502 H496 0.930 . S
C502 C503 1.355 1_554 S
C502 C504 1.415 . S
C503 C502 1.355 1_556 S
C503 C505 1.419 . S
C504 C502 1.415 . S
C504 C509 1.425 1_544 S
C504 C511 1.409 1_545 S
C505 H497 0.930 . S
C505 C503 1.419 . S
C505 C506 1.362 . S
C506 H498 0.930 . S
C506 C505 1.362 . S
C506 C509 1.409 1_545 S
C507 H499 0.930 . S
C507 C508 1.355 1_556 S
C507 C509 1.415 . S
C508 C507 1.355 1_554 S
C508 C510 1.419 . S
C509 C504 1.425 1_566 S
C509 C506 1.409 1_565 S
C509 C507 1.415 . S
C510 H500 0.930 . S
C510 C508 1.419 . S
C510 C511 1.362 . S
C511 H501 0.930 . S
C511 C504 1.409 1_565 S
C511 C510 1.362 . S
H512 C518 0.930 . S
H513 C521 0.930 . S
H514 C522 0.930 . S
H515 C523 0.930 . S
H516 C526 0.930 . S
H517 C527 0.930 . S
C518 H512 0.930 . S
C518 C519 1.355 . S
C518 C520 1.415 1_554 S
C519 C518 1.355 . S
C519 C521 1.419 . S
C520 C518 1.415 1_556 S
C520 C525 1.425 . S
C520 C527 1.409 . S
C521 H513 0.930 . S
C521 C519 1.419 . S
C521 C522 1.362 1_554 S
C522 H514 0.930 . S
C522 C521 1.362 1_556 S
C522 C525 1.409 . S
C523 H515 0.930 . S
C523 C524 1.355 . S
C523 C525 1.415 . S
C524 C523 1.355 . S
C524 C526 1.419 . S
C525 C520 1.425 . S
C525 C522 1.409 . S
C525 C523 1.415 . S
C526 H516 0.930 . S
C526 C524 1.419 . S
C526 C527 1.362 . S
C527 H517 0.930 . S
C527 C520 1.409 . S
C527 C526 1.362 . S
H528 C534 0.930 . S
H529 C537 0.930 . S
H530 C538 0.930 . S
H531 C539 0.930 . S
H532 C542 0.930 . S
H533 C543 0.930 . S
C534 H528 0.930 . S
C534 C535 1.355 . S
C534 C536 1.415 1_554 S
C535 C534 1.355 . S
C535 C537 1.419 . S
C536 C534 1.415 1_556 S
C536 C541 1.425 . S
C536 C543 1.409 . S
C537 H529 0.930 . S
C537 C535 1.419 . S
C537 C538 1.362 1_554 S
C538 H530 0.930 . S
C538 C537 1.362 1_556 S
C538 C541 1.409 . S
C539 H531 0.930 . S
C539 C540 1.355 . S
C539 C541 1.415 . S
C540 C539 1.355 . S
C540 C542 1.419 . S
C541 C536 1.425 . S
C541 C538 1.409 . S
C541 C539 1.415 . S
C542 H532 0.930 . S
C542 C540 1.419 . S
C542 C543 1.362 . S
C543 H533 0.930 . S
C543 C536 1.409 . S
C543 C542 1.362 . S
H544 C550 0.930 . S
H545 C553 0.930 . S
H546 C554 0.930 . S
H547 C555 0.930 . S
H548 C558 0.930 . S
H549 C559 0.930 . S
C550 H544 0.930 . S
C550 C551 1.355 . S
C550 C552 1.415 . S
C551 C550 1.355 . S
C551 C553 1.419 . S
C552 C550 1.415 . S
C552 C557 1.425 . S
C552 C559 1.409 . S
C553 H545 0.930 . S
C553 C551 1.419 . S
C553 C554 1.362 . S
C554 H546 0.930 . S
C554 C553 1.362 . S
C554 C557 1.409 . S
C555 H547 0.930 . S
C555 C556 1.355 . S
C555 C557 1.415 1_556 S
C556 C555 1.355 . S
C556 C558 1.419 . S
C557 C552 1.425 . S
C557 C554 1.409 . S
C557 C555 1.415 1_554 S
C558 H548 0.930 . S
C558 C556 1.419 . S
C558 C559 1.362 1_556 S
C559 H549 0.930 . S
C559 C552 1.409 . S
C559 C558 1.362 1_554 S
H560 C566 0.930 . S
H561 C569 0.930 . S
H562 C570 0.930 . S
H563 C571 0.930 . S
H564 C574 0.930 . S
H565 C575 0.930 . S
C566 H560 0.930 . S
C566 C567 1.355 . S
C566 C568 1.415 1_556 S
C567 C566 1.355 . S
C567 C569 1.419 . S
C568 C566 1.415 1_554 S
C568 C573 1.425 . S
C568 C575 1.409 . S
C569 H561 0.930 . S
C569 C567 1.419 . S
C569 C570 1.362 1_556 S
C570 H562 0.930 . S
C570 C569 1.362 1_554 S
C570 C573 1.409 . S
C571 H563 0.930 . S
C571 C572 1.355 . S
C571 C573 1.415 . S
C572 C571 1.355 . S
C572 C574 1.419 . S
C573 C568 1.425 . S
C573 C570 1.409 . S
C573 C571 1.415 . S
C574 H564 0.930 . S
C574 C572 1.419 . S
C574 C575 1.362 . S
C575 H565 0.930 . S
C575 C568 1.409 . S
C575 C574 1.362 . S
H576 C582 0.930 . S
H577 C585 0.930 . S
H578 C586 0.930 . S
H579 C587 0.930 . S
H580 C590 0.930 . S
H581 C591 0.930 . S
C582 H576 0.930 . S
C582 C583 1.355 . S
C582 C584 1.415 . S
C583 C582 1.355 . S
C583 C585 1.419 . S
C584 C582 1.415 . S
C584 C589 1.425 . S
C584 C591 1.409 . S
C585 H577 0.930 . S
C585 C583 1.419 . S
C585 C586 1.362 . S
C586 H578 0.930 . S
C586 C585 1.362 . S
C586 C589 1.409 . S
C587 H579 0.930 . S
C587 C588 1.355 . S
C587 C589 1.415 . S
C588 C587 1.355 . S
C588 C590 1.419 . S
C589 C584 1.425 . S
C589 C586 1.409 . S
C589 C587 1.415 . S
C590 H580 0.930 . S
C590 C588 1.419 . S
C590 C591 1.362 . S
C591 H581 0.930 . S
C591 C584 1.409 . S
C591 C590 1.362 . S
H592 C598 0.930 . S
H593 C601 0.930 . S
H594 C602 0.930 . S
H595 C603 0.930 . S
H596 C606 0.930 . S
H597 C607 0.930 . S
C598 H592 0.930 . S
C598 C599 1.355 . S
C598 C600 1.415 . S
C599 C598 1.355 . S
C599 C601 1.419 . S
C600 C598 1.415 . S
C600 C605 1.425 . S
C600 C607 1.409 . S
C601 H593 0.930 . S
C601 C599 1.419 . S
C601 C602 1.362 . S
C602 H594 0.930 . S
C602 C601 1.362 . S
C602 C605 1.409 . S
C603 H595 0.930 . S
C603 C604 1.355 . S
C603 C605 1.415 . S
C604 C603 1.355 . S
C604 C606 1.419 . S
C605 C600 1.425 . S
C605 C602 1.409 . S
C605 C603 1.415 . S
C606 H596 0.930 . S
C606 C604 1.419 . S
C606 C607 1.362 . S
C607 H597 0.930 . S
C607 C600 1.409 . S
C607 C606 1.362 . S
H608 C614 0.930 . S
H609 C617 0.930 . S
H610 C618 0.930 . S
H611 C619 0.930 . S
H612 C622 0.930 . S
H613 C623 0.930 . S
C614 H608 0.930 . S
C614 C615 1.355 . S
C614 C616 1.415 . S
C615 C614 1.355 . S
C615 C617 1.419 . S
C616 C614 1.415 . S
C616 C621 1.425 . S
C616 C623 1.409 . S
C617 H609 0.930 . S
C617 C615 1.419 . S
C617 C618 1.362 . S
C618 H610 0.930 . S
C618 C617 1.362 . S
C618 C621 1.409 . S
C619 H611 0.930 . S
C619 C620 1.355 . S
C619 C621 1.415 . S
C620 C619 1.355 . S
C620 C622 1.419 . S
C621 C616 1.425 . S
C621 C618 1.409 . S
C621 C619 1.415 . S
C622 H612 0.930 . S
C622 C620 1.419 . S
C622 C623 1.362 . S
C623 H613 0.930 . S
C623 C616 1.409 . S
C623 C622 1.362 . S
H624 C630 0.930 . S
H625 C633 0.930 . S
H626 C634 0.930 . S
H627 C635 0.930 . S
H628 C638 0.930 . S
H629 C639 0.930 . S
C630 H624 0.930 . S
C630 C631 1.355 . S
C630 C632 1.415 . S
C631 C630 1.355 . S
C631 C633 1.419 . S
C632 C630 1.415 . S
C632 C637 1.425 . S
C632 C639 1.409 . S
C633 H625 0.930 . S
C633 C631 1.419 . S
C633 C634 1.362 . S
C634 H626 0.930 . S
C634 C633 1.362 . S
C634 C637 1.409 . S
C635 H627 0.930 . S
C635 C636 1.355 . S
C635 C637 1.415 . S
C636 C635 1.355 . S
C636 C638 1.419 . S
C637 C632 1.425 . S
C637 C634 1.409 . S
C637 C635 1.415 . S
C638 H628 0.930 . S
C638 C636 1.419 . S
C638 C639 1.362 . S
C639 H629 0.930 . S
C639 C632 1.409 . S
C639 C638 1.362 . S
H640 C646 0.930 . S
H641 C649 0.930 . S
H642 C650 0.930 1_556 S
H643 C651 0.930 . S
H644 C654 0.930 . S
H645 C655 0.930 . S
C646 H640 0.930 . S
C646 C647 1.355 . S
C646 C648 1.415 . S
C647 C646 1.355 . S
C647 C649 1.419 . S
C648 C646 1.415 . S
C648 C653 1.425 1_455 S
C648 C655 1.409 1_455 S
C649 H641 0.930 . S
C649 C647 1.419 . S
C649 C650 1.362 . S
C650 H642 0.930 1_554 S
C650 C649 1.362 . S
C650 C653 1.409 1_455 S
C651 H643 0.930 . S
C651 C652 1.355 . S
C651 C653 1.415 . S
C652 C651 1.355 . S
C652 C654 1.419 . S
C653 C648 1.425 1_655 S
C653 C650 1.409 1_655 S
C653 C651 1.415 . S
C654 H644 0.930 . S
C654 C652 1.419 . S
C654 C655 1.362 . S
C655 H645 0.930 . S
C655 C648 1.409 1_655 S
C655 C654 1.362 . S
H656 C662 0.930 . S
H657 C665 0.930 . S
H658 C666 0.930 . S
H659 C667 0.930 . S
H660 C670 0.930 . S
H661 C671 0.930 . S
C662 H656 0.930 . S
C662 C663 1.355 . S
C662 C664 1.415 . S
C663 C662 1.355 . S
C663 C665 1.419 . S
C664 C662 1.415 . S
C664 C669 1.425 1_655 S
C664 C671 1.409 1_655 S
C665 H657 0.930 . S
C665 C663 1.419 . S
C665 C666 1.362 . S
C666 H658 0.930 . S
C666 C665 1.362 . S
C666 C669 1.409 1_655 S
C667 H659 0.930 . S
C667 C668 1.355 . S
C667 C669 1.415 . S
C668 C667 1.355 . S
C668 C670 1.419 . S
C669 C664 1.425 1_455 S
C669 C666 1.409 1_455 S
C669 C667 1.415 . S
C670 H660 0.930 . S
C670 C668 1.419 . S
C670 C671 1.362 . S
C671 H661 0.930 . S
C671 C664 1.409 1_455 S
C671 C670 1.362 . S
H672 C678 0.930 . S
H673 C681 0.930 . S
H674 C682 0.930 . S
H675 C683 0.930 . S
H676 C686 0.930 . S
H677 C687 0.930 . S
C678 H672 0.930 . S
C678 C679 1.355 . S
C678 C680 1.415 . S
C679 C678 1.355 . S
C679 C681 1.419 . S
C680 C678 1.415 . S
C680 C685 1.425 . S
C680 C687 1.409 . S
C681 H673 0.930 . S
C681 C679 1.419 . S
C681 C682 1.362 . S
C682 H674 0.930 . S
C682 C681 1.362 . S
C682 C685 1.409 . S
C683 H675 0.930 . S
C683 C684 1.355 . S
C683 C685 1.415 . S
C684 C683 1.355 . S
C684 C686 1.419 . S
C685 C680 1.425 . S
C685 C682 1.409 . S
C685 C683 1.415 . S
C686 H676 0.930 . S
C686 C684 1.419 . S
C686 C687 1.362 . S
C687 H677 0.930 . S
C687 C680 1.409 . S
C687 C686 1.362 . S
H688 C694 0.930 . S
H689 C697 0.930 . S
H690 C698 0.930 . S
H691 C699 0.930 . S
H692 C702 0.930 . S
H693 C703 0.930 . S
C694 H688 0.930 . S
C694 C695 1.355 . S
C694 C696 1.415 . S
C695 C694 1.355 . S
C695 C697 1.419 . S
C696 C694 1.415 . S
C696 C701 1.425 . S
C696 C703 1.409 . S
C697 H689 0.930 . S
C697 C695 1.419 . S
C697 C698 1.362 . S
C698 H690 0.930 . S
C698 C697 1.362 . S
C698 C701 1.409 . S
C699 H691 0.930 . S
C699 C700 1.355 . S
C699 C701 1.415 . S
C700 C699 1.355 . S
C700 C702 1.419 . S
C701 C696 1.425 . S
C701 C698 1.409 . S
C701 C699 1.415 . S
C702 H692 0.930 . S
C702 C700 1.419 . S
C702 C703 1.362 . S
C703 H693 0.930 . S
C703 C696 1.409 . S
C703 C702 1.362 . S
C327 C7 1.659 . S
C332 C296 1.659 . S
C343 C256 1.669 . S
C348 C47 1.669 . S
C359 C207 1.659 . S
C364 C96 1.659 . S
C375 C167 1.695 . S
C380 C136 1.695 . S
C391 C90 1.567 . S
C396 C10 1.588 . S
C407 C50 1.621 . S
C412 C130 1.605 . S
C423 C139 1.611 . S
C428 C59 1.603 . S
C439 C99 1.569 . S
C444 C19 1.552 . S
C455 C170 1.459 1_554 S
C460 C250 1.452 . S
C471 C210 1.413 . S
C476 C290 1.412 . S
C487 C299 1.420 . S
C492 C219 1.415 . S
C503 C259 1.460 1_556 S
C508 C179 1.453 . S
C519 C11 2.092 . S
C524 C2 2.092 . S
C535 C51 2.038 . S
C540 C42 2.038 . S
C551 C91 2.088 . S
C556 C82 2.088 . S
C567 C122 2.059 . S
C572 C131 2.059 . S
C583 C162 2.088 . S
C588 C171 2.088 . S
C599 C211 2.091 . S
C604 C202 2.091 . S
C615 C242 2.080 . S
C620 C251 2.080 . S
C631 C282 2.055 . S
C636 C291 2.055 . S
C647 C16 2.299 . S
C652 C56 2.260 . S
C663 C127 2.291 . S
C668 C87 2.270 . S
C679 C176 2.289 . S
C684 C216 2.275 . S
C695 C287 2.288 . S
C700 C247 2.277 . S
