# Generated by pormake.
# Topology yfz, (5)-cn, num edge types: 1
# Building blocks:
#     Node 0, Type 0, BuildingBlock: XOMCOT_clean_sbu_1, # of connection points: 5
#     Node 1, Type 0, BuildingBlock: XOMCOT_clean_sbu_1, # of connection points: 5
#     Node 2, Type 0, BuildingBlock: XOMCOT_clean_sbu_1, # of connection points: 5
#     Node 3, Type 0, BuildingBlock: XOMCOT_clean_sbu_1, # of connection points: 5
#     Node 4, Type 0, BuildingBlock: XOMCOT_clean_sbu_1, # of connection points: 5
#     Node 5, Type 0, BuildingBlock: XOMCOT_clean_sbu_1, # of connection points: 5
#     Node 6, Type 0, BuildingBlock: XOMCOT_clean_sbu_1, # of connection points: 5
#     Node 7, Type 0, BuildingBlock: XOMCOT_clean_sbu_1, # of connection points: 5
#     Edge 8, Type (0, 0), BuildingBlock: ZUJKAS_clean_linker_0, # of connection points: 2
#     Edge 9, Type (0, 0), BuildingBlock: ZUJKAS_clean_linker_0, # of connection points: 2
#     Edge 10, Type (0, 0), BuildingBlock: ZUJKAS_clean_linker_0, # of connection points: 2
#     Edge 11, Type (0, 0), BuildingBlock: ZUJKAS_clean_linker_0, # of connection points: 2
#     Edge 12, Type (0, 0), BuildingBlock: ZUJKAS_clean_linker_0, # of connection points: 2
#     Edge 13, Type (0, 0), BuildingBlock: ZUJKAS_clean_linker_0, # of connection points: 2
#     Edge 14, Type (0, 0), BuildingBlock: ZUJKAS_clean_linker_0, # of connection points: 2
#     Edge 15, Type (0, 0), BuildingBlock: ZUJKAS_clean_linker_0, # of connection points: 2
#     Edge 16, Type (0, 0), BuildingBlock: ZUJKAS_clean_linker_0, # of connection points: 2
#     Edge 17, Type (0, 0), BuildingBlock: ZUJKAS_clean_linker_0, # of connection points: 2
#     Edge 18, Type (0, 0), BuildingBlock: ZUJKAS_clean_linker_0, # of connection points: 2
#     Edge 19, Type (0, 0), BuildingBlock: ZUJKAS_clean_linker_0, # of connection points: 2
#     Edge 20, Type (0, 0), BuildingBlock: ZUJKAS_clean_linker_0, # of connection points: 2
#     Edge 21, Type (0, 0), BuildingBlock: ZUJKAS_clean_linker_0, # of connection points: 2
#     Edge 22, Type (0, 0), BuildingBlock: ZUJKAS_clean_linker_0, # of connection points: 2
#     Edge 23, Type (0, 0), BuildingBlock: ZUJKAS_clean_linker_0, # of connection points: 2
#     Edge 24, Type (0, 0), BuildingBlock: ZUJKAS_clean_linker_0, # of connection points: 2
#     Edge 25, Type (0, 0), BuildingBlock: ZUJKAS_clean_linker_0, # of connection points: 2
#     Edge 26, Type (0, 0), BuildingBlock: ZUJKAS_clean_linker_0, # of connection points: 2
#     Edge 27, Type (0, 0), BuildingBlock: ZUJKAS_clean_linker_0, # of connection points: 2
# Relax obj value: 0.146
# Max RMSD: 0.137
# Mean RMSD: 0.137
data_MOF--net-yfz--node1-XOMCOT_clean_sbu_1--edge1-ZUJKAS_clean_linker_0
_symmetry_space_group_name_H-M    P1
_symmetry_Int_Tables_number       1
_symmetry_cell_setting            triclinic
loop_
_symmetry_equiv_pos_as_xyz
'x, y, z'
_cell_length_a     66.818416
_cell_length_b     66.797611
_cell_length_c     21.874212
_cell_angle_alpha  90.021142
_cell_angle_beta   89.967469
_cell_angle_gamma 90.053628
loop_
_atom_site_label
_atom_site_type_symbol
_atom_site_fract_x
_atom_site_fract_y
_atom_site_fract_z
_atom_type_partial_charge
C0 C 0.56756 0.06798 0.26821 0.0
C1 C 0.56477 0.06409 0.20719 0.0
N2 N 0.55734 0.08067 0.18051 0.0
N3 N 0.56194 0.08693 0.28033 0.0
C4 C 0.55546 0.09424 0.22611 0.0
H5 H 0.57407 0.0579 0.30136 0.0
Co6 Co 0.56573 0.09882 0.35697 0.0
C7 C 0.57271 0.14087 0.30897 0.0
O8 O 0.59212 0.14012 0.31748 0.0
N9 N 0.56903 0.11018 0.43556 0.0
C10 C 0.57879 0.12829 0.51566 0.0
C11 C 0.57972 0.12635 0.45332 0.0
C12 C 0.56172 0.10258 0.48851 0.0
N13 N 0.56749 0.11331 0.53789 0.0
O14 O 0.53754 0.09714 0.37136 0.0
H15 H 0.58847 0.13582 0.42406 0.0
H16 H 0.55296 0.08899 0.49112 0.0
O17 O 0.56166 0.12581 0.32229 0.0
C18 C 0.53175 0.07941 0.3832 0.0
O19 O 0.54516 0.06508 0.38652 0.0
N20 N 0.59388 0.09878 0.34327 0.0
C21 C 0.63513 0.09494 0.32502 0.0
C22 C 0.62259 0.10103 0.27727 0.0
C23 C 0.60204 0.10255 0.28702 0.0
C24 C 0.60578 0.09168 0.38917 0.0
C25 C 0.62648 0.09007 0.38146 0.0
H26 H 0.59279 0.10744 0.24948 0.0
H27 H 0.59926 0.08699 0.43206 0.0
H28 H 0.55071 0.10956 0.21937 0.0
H29 H 0.56849 0.05027 0.18397 0.0
H30 H 0.5861 0.13975 0.54264 0.0
H31 H 0.62862 0.10493 0.23286 0.0
H32 H 0.63556 0.08466 0.41897 0.0
C33 C 0.41081 0.57096 0.74776 0.0
C34 C 0.41493 0.568 0.68689 0.0
N35 N 0.39896 0.55913 0.66067 0.0
N36 N 0.39232 0.56403 0.76022 0.0
C37 C 0.38552 0.55671 0.70639 0.0
H38 H 0.42038 0.57841 0.78054 0.0
Co39 Co 0.38002 0.56653 0.83678 0.0
C40 C 0.33806 0.57076 0.78549 0.0
O41 O 0.3375 0.59019 0.7941 0.0
N42 N 0.36821 0.56845 0.91496 0.0
C43 C 0.3485 0.57492 0.99455 0.0
C44 C 0.35021 0.57574 0.93209 0.0
C45 C 0.37711 0.56321 0.96824 0.0
N46 N 0.36545 0.56708 0.0174 0.0
O47 O 0.38372 0.53848 0.84992 0.0
H48 H 0.33903 0.58182 0.90214 0.0
H49 H 0.39216 0.55733 0.97103 0.0
O50 O 0.35355 0.56068 0.80084 0.0
C51 C 0.40177 0.53401 0.86247 0.0
O52 O 0.41508 0.54844 0.86612 0.0
N53 N 0.37811 0.59479 0.82491 0.0
C54 C 0.37971 0.6364 0.81038 0.0
C55 C 0.37511 0.62395 0.76083 0.0
C56 C 0.37462 0.60322 0.76884 0.0
C57 C 0.38368 0.60676 0.87269 0.0
C58 C 0.38412 0.62757 0.86681 0.0
H59 H 0.37091 0.59401 0.72991 0.0
H60 H 0.38827 0.60027 0.91564 0.0
H61 H 0.37079 0.55027 0.70045 0.0
H62 H 0.42828 0.57296 0.66324 0.0
H63 H 0.33573 0.57981 0.02109 0.0
H64 H 0.3717 0.63016 0.71632 0.0
H65 H 0.38841 0.63665 0.90571 0.0
C66 C 0.90468 0.41078 0.2827 0.0
C67 C 0.90656 0.41504 0.22152 0.0
N68 N 0.91571 0.3995 0.19396 0.0
N69 N 0.91252 0.39258 0.29399 0.0
C70 C 0.91948 0.38619 0.23915 0.0
H71 H 0.89728 0.41998 0.31653 0.0
Co72 Co 0.91066 0.37991 0.37029 0.0
C73 C 0.90871 0.33798 0.31717 0.0
O74 O 0.88929 0.33631 0.32452 0.0
N75 N 0.90935 0.36775 0.4482 0.0
C76 C 0.9032 0.34752 0.52688 0.0
C77 C 0.90217 0.3496 0.46451 0.0
C78 C 0.91474 0.37635 0.50186 0.0
N79 N 0.91109 0.36438 0.55045 0.0
O80 O 0.93852 0.38503 0.38345 0.0
H81 H 0.89593 0.33864 0.43399 0.0
H82 H 0.92055 0.39142 0.50547 0.0
O83 O 0.91787 0.35392 0.33368 0.0
C84 C 0.94215 0.40309 0.39842 0.0
O85 O 0.92705 0.41557 0.40363 0.0
N86 N 0.88246 0.37653 0.3584 0.0
C87 C 0.84085 0.37645 0.34355 0.0
C88 C 0.85349 0.37271 0.29387 0.0
C89 C 0.87421 0.37294 0.30211 0.0
C90 C 0.87022 0.38118 0.40648 0.0
C91 C 0.8494 0.38069 0.40046 0.0
H92 H 0.88356 0.36984 0.26303 0.0
H93 H 0.87646 0.38577 0.44979 0.0
H94 H 0.92599 0.37157 0.23172 0.0
H95 H 0.90112 0.42837 0.19884 0.0
H96 H 0.89839 0.3346 0.5529 0.0
H97 H 0.84741 0.36951 0.24901 0.0
H98 H 0.84008 0.38427 0.4395 0.0
C99 C 0.08246 0.93652 0.79593 0.0
C100 C 0.08193 0.94044 0.73435 0.0
N101 N 0.09779 0.93151 0.70773 0.0
N102 N 0.09868 0.92531 0.80869 0.0
C103 C 0.10782 0.9226 0.75406 0.0
H104 H 0.07126 0.94097 0.82884 0.0
Co105 Co 0.10428 0.91404 0.8848 0.0
C106 C 0.14865 0.91776 0.90262 0.0
O107 O 0.14873 0.90472 0.94748 0.0
N108 N 0.10908 0.9025 0.96297 0.0
C109 C 0.11016 0.88105 0.04097 0.0
C110 C 0.10712 0.88305 0.97921 0.0
C111 C 0.11316 0.91197 0.01648 0.0
N112 N 0.11389 0.89927 0.06451 0.0
O113 O 0.09908 0.93939 0.9225 0.0
H114 H 0.10312 0.87093 0.94899 0.0
H115 H 0.11558 0.92793 0.02032 0.0
O116 O 0.13232 0.92188 0.87488 0.0
C117 C 0.08248 0.94099 0.95064 0.0
O118 O 0.07054 0.92536 0.95301 0.0
N119 N 0.10798 0.88908 0.84659 0.0
C120 C 0.10758 0.85045 0.79777 0.0
C121 C 0.12569 0.86068 0.80688 0.0
C122 C 0.12559 0.88002 0.83118 0.0
C123 C 0.0902 0.87978 0.83528 0.0
C124 C 0.08964 0.86043 0.81122 0.0
H125 H 0.13973 0.88736 0.83752 0.0
H126 H 0.07637 0.88724 0.84719 0.0
H127 H 0.12095 0.91336 0.74801 0.0
H128 H 0.07042 0.94886 0.71098 0.0
H129 H 0.10882 0.86731 0.06691 0.0
H130 H 0.13987 0.85376 0.79566 0.0
H131 H 0.07529 0.85313 0.80535 0.0
C132 C 0.54493 0.40289 0.23577 0.0
C133 C 0.54101 0.40303 0.2973 0.0
N134 N 0.54785 0.38582 0.32168 0.0
N135 N 0.55401 0.38558 0.22062 0.0
C136 C 0.55551 0.3754 0.274 0.0
H137 H 0.54202 0.41509 0.20469 0.0
Co138 Co 0.56466 0.38021 0.14335 0.0
C139 C 0.55998 0.33621 0.12164 0.0
O140 O 0.57299 0.33643 0.07668 0.0
N141 N 0.57566 0.37575 0.06385 0.0
C142 C 0.59686 0.37357 0.9853 0.0
C143 C 0.5952 0.37602 0.04733 0.0
C144 C 0.56582 0.37311 0.01005 0.0
N145 N 0.57838 0.37183 0.96166 0.0
O146 O 0.53926 0.38624 0.10762 0.0
H147 H 0.60775 0.37796 0.07766 0.0
H148 H 0.54971 0.37238 0.00612 0.0
O149 O 0.55621 0.35226 0.15137 0.0
C150 C 0.53739 0.40375 0.0855 0.0
O151 O 0.55291 0.41585 0.0868 0.0
N152 N 0.58964 0.37566 0.18 0.0
C153 C 0.62859 0.37464 0.22653 0.0
C154 C 0.61695 0.35712 0.223 0.0
C155 C 0.59752 0.35792 0.1995 0.0
C156 C 0.60016 0.39299 0.1867 0.0
C157 C 0.61973 0.39281 0.20888 0.0
H158 H 0.58902 0.34425 0.19742 0.0
H159 H 0.59356 0.40696 0.17195 0.0
H160 H 0.56304 0.36114 0.27831 0.0
H161 H 0.53407 0.41516 0.32229 0.0
H162 H 0.61071 0.37309 0.95968 0.0
H163 H 0.62279 0.34284 0.23804 0.0
H164 H 0.62799 0.40675 0.20997 0.0
C165 C 0.06828 0.57432 0.71922 0.0
C166 C 0.06412 0.57137 0.78007 0.0
N167 N 0.08001 0.56241 0.80634 0.0
N168 N 0.08672 0.56728 0.70679 0.0
C169 C 0.09344 0.55989 0.7606 0.0
H170 H 0.05882 0.5819 0.68651 0.0
Co171 Co 0.09908 0.57011 0.63048 0.0
C172 C 0.14124 0.57282 0.68144 0.0
O173 O 0.14243 0.59226 0.6736 0.0
N174 N 0.1109 0.57242 0.55233 0.0
C175 C 0.13072 0.57891 0.47293 0.0
C176 C 0.12902 0.57952 0.53543 0.0
C177 C 0.10192 0.56756 0.49882 0.0
N178 N 0.11364 0.57141 0.44981 0.0
O179 O 0.09459 0.54224 0.61509 0.0
H180 H 0.14032 0.58527 0.56557 0.0
H181 H 0.08679 0.56189 0.49575 0.0
O182 O 0.12542 0.56326 0.66586 0.0
C183 C 0.07657 0.5384 0.60035 0.0
O184 O 0.06381 0.55331 0.59663 0.0
N185 N 0.1018 0.59819 0.64472 0.0
C186 C 0.10188 0.63973 0.66288 0.0
C187 C 0.10634 0.62663 0.71097 0.0
C188 C 0.10588 0.60599 0.70127 0.0
C189 C 0.09632 0.61076 0.59838 0.0
C190 C 0.0966 0.63153 0.60612 0.0
H191 H 0.1094 0.59631 0.73925 0.0
H192 H 0.0914 0.60479 0.55505 0.0
H193 H 0.10814 0.55344 0.76661 0.0
H194 H 0.05084 0.57648 0.80371 0.0
H195 H 0.14359 0.58366 0.44658 0.0
H196 H 0.10989 0.63223 0.75614 0.0
H197 H 0.09274 0.64105 0.56784 0.0
C198 C 0.91226 0.06989 0.26286 0.0
C199 C 0.91536 0.06631 0.32399 0.0
N200 N 0.92429 0.08251 0.3487 0.0
N201 N 0.91916 0.08828 0.24882 0.0
C202 C 0.92669 0.0955 0.3018 0.0
H203 H 0.90455 0.06013 0.23119 0.0
Co204 Co 0.91582 0.10037 0.17246 0.0
C205 C 0.91342 0.14272 0.22271 0.0
O206 O 0.89389 0.1438 0.21776 0.0
N207 N 0.91295 0.11211 0.09438 0.0
C208 C 0.90511 0.1319 0.01615 0.0
C209 C 0.90388 0.12939 0.07831 0.0
C210 C 0.91938 0.10432 0.04069 0.0
N211 N 0.91492 0.11613 0.99237 0.0
O212 O 0.94356 0.09583 0.15592 0.0
H213 H 0.89615 0.13934 0.10883 0.0
H214 H 0.92717 0.09022 0.03698 0.0
O215 O 0.9228 0.12689 0.2064 0.0
C216 C 0.94662 0.07771 0.14055 0.0
O217 O 0.93111 0.06568 0.13584 0.0
N218 N 0.88791 0.10285 0.18824 0.0
C219 C 0.84672 0.10037 0.21005 0.0
C220 C 0.85988 0.1062 0.25657 0.0
C221 C 0.88039 0.10703 0.24506 0.0
C222 C 0.87531 0.09637 0.14321 0.0
C223 C 0.85466 0.09541 0.15273 0.0
H224 H 0.89019 0.11132 0.28202 0.0
H225 H 0.88124 0.09132 0.09991 0.0
H226 H 0.93304 0.11031 0.30643 0.0
H227 H 0.91028 0.05327 0.34891 0.0
H228 H 0.89868 0.14413 0.99037 0.0
H229 H 0.8544 0.11011 0.30162 0.0
H230 H 0.84509 0.09016 0.11613 0.0
C231 C 0.40676 0.92952 0.73299 0.0
C232 C 0.40693 0.93435 0.79399 0.0
N233 N 0.38833 0.93176 0.81638 0.0
N234 N 0.38811 0.92407 0.71651 0.0
C235 C 0.37717 0.9255 0.76843 0.0
H236 H 0.41961 0.92938 0.70304 0.0
Co237 Co 0.3816 0.91498 0.63864 0.0
C238 C 0.33725 0.91432 0.63144 0.0
O239 O 0.33784 0.89869 0.59514 0.0
N240 N 0.37571 0.9057 0.55767 0.0
C241 C 0.37078 0.88669 0.47499 0.0
C242 C 0.37444 0.88664 0.53666 0.0
C243 C 0.37266 0.91698 0.50685 0.0
N244 N 0.36976 0.90579 0.45612 0.0
O245 O 0.38583 0.94141 0.6082 0.0
H246 H 0.37577 0.87323 0.56367 0.0
H247 H 0.37248 0.93315 0.5066 0.0
O248 O 0.3535 0.92174 0.65243 0.0
C249 C 0.40324 0.94475 0.58703 0.0
O250 O 0.41607 0.92987 0.5844 0.0
N251 N 0.37906 0.88907 0.67089 0.0
C252 C 0.38025 0.84955 0.71234 0.0
C253 C 0.36374 0.86188 0.72515 0.0
C254 C 0.3635 0.88166 0.70451 0.0
C255 C 0.39592 0.87794 0.66269 0.0
C256 C 0.39668 0.85802 0.68173 0.0
H257 H 0.3509 0.89089 0.71659 0.0
H258 H 0.40851 0.88435 0.63848 0.0
H259 H 0.36146 0.92171 0.77135 0.0
H260 H 0.41996 0.93855 0.82044 0.0
H261 H 0.36955 0.87362 0.44598 0.0
H262 H 0.35111 0.85636 0.7512 0.0
H263 H 0.40982 0.84925 0.67077 0.0
H264 H 0.44114 0.95791 0.56913 0.0
H265 H 0.45208 0.99115 0.5381 0.0
H266 H 0.39073 0.01094 0.52998 0.0
H267 H 0.3795 0.97739 0.56213 0.0
H268 H 0.41746 0.01894 0.42084 0.0
H269 H 0.44918 0.04492 0.64042 0.0
H270 H 0.4554 0.01933 0.62376 0.0
H271 H 0.42966 0.02619 0.63575 0.0
C272 C 0.42991 0.96928 0.56099 0.0
C273 C 0.40946 0.96504 0.56804 0.0
C274 C 0.43621 0.98833 0.54372 0.0
C275 C 0.42222 0.00352 0.53274 0.0
C276 C 0.40173 0.99941 0.53903 0.0
H277 H 0.5029 0.10203 0.44014 0.0
H278 H 0.46946 0.09037 0.47212 0.0
C279 C 0.39537 0.9803 0.55725 0.0
C280 C 0.42959 0.02314 0.51116 0.0
H281 H 0.46556 0.05717 0.54829 0.0
C282 C 0.42742 0.02785 0.44906 0.0
C283 C 0.44221 0.03499 0.54826 0.0
C284 C 0.44411 0.03124 0.61596 0.0
C285 C 0.43955 0.04247 0.42163 0.0
C286 C 0.45424 0.05231 0.45721 0.0
C287 C 0.45447 0.04946 0.52076 0.0
C288 C 0.4722 0.06137 0.42871 0.0
C289 C 0.43763 0.04614 0.3539 0.0
C290 C 0.48466 0.04901 0.39354 0.0
C291 C 0.50365 0.05544 0.37642 0.0
C292 C 0.51057 0.07444 0.39368 0.0
C293 C 0.49777 0.08737 0.42591 0.0
C294 C 0.47873 0.08074 0.44411 0.0
H295 H 0.42187 0.04418 0.33879 0.0
H296 H 0.44277 0.06141 0.34135 0.0
H297 H 0.44688 0.03504 0.32884 0.0
H298 H 0.4802 0.03383 0.38247 0.0
H299 H 0.51324 0.04522 0.35148 0.0
H300 H 0.5272 0.44212 0.05955 0.0
H301 H 0.49523 0.45463 0.02231 0.0
H302 H 0.47151 0.3946 0.01998 0.0
H303 H 0.5037 0.38178 0.05833 0.0
H304 H 0.46711 0.42195 0.9051 0.0
H305 H 0.43987 0.45431 0.12316 0.0
H306 H 0.46597 0.45877 0.10823 0.0
H307 H 0.45727 0.43359 0.11993 0.0
C308 C 0.51524 0.4315 0.05124 0.0
C309 C 0.51797 0.41095 0.06193 0.0
C310 C 0.49694 0.43871 0.03027 0.0
C311 C 0.48102 0.42555 0.01917 0.0
C312 C 0.48364 0.40497 0.02887 0.0
H313 H 0.38068 0.50368 0.91776 0.0
H314 H 0.39427 0.47118 0.95135 0.0
C315 C 0.50198 0.39771 0.05068 0.0
C316 C 0.46206 0.43379 0.99536 0.0
H317 H 0.42774 0.46969 0.03056 0.0
C318 C 0.458 0.43189 0.93276 0.0
C319 C 0.45006 0.44648 0.03173 0.0
C320 C 0.45335 0.44832 0.09968 0.0
C321 C 0.4436 0.44404 0.90446 0.0
C322 C 0.43326 0.45847 0.93973 0.0
C323 C 0.43576 0.45872 1.00341 0.0
C324 C 0.42347 0.47596 0.91096 0.0
C325 C 0.44052 0.4423 0.83641 0.0
C326 C 0.43533 0.48923 0.87699 0.0
C327 C 0.42779 0.50772 0.85894 0.0
C328 C 0.40815 0.51327 0.874 0.0
C329 C 0.39582 0.49961 0.90518 0.0
C330 C 0.40355 0.48112 0.92433 0.0
H331 H 0.44342 0.42677 0.82046 0.0
H332 H 0.42509 0.44667 0.82319 0.0
H333 H 0.45123 0.45234 0.81261 0.0
H334 H 0.45086 0.48579 0.8674 0.0
H335 H 0.43758 0.51798 0.83487 0.0
H336 H 0.9755 0.38102 0.42941 0.0
H337 H 0.00831 0.39426 0.46166 0.0
H338 H 0.98731 0.4544 0.4301 0.0
H339 H 0.95489 0.44148 0.39842 0.0
H340 H 0.02846 0.44453 0.38552 0.0
H341 H 0.01315 0.42611 0.62989 0.0
H342 H 0.01054 0.40718 0.57163 0.0
H343 H 0.99296 0.4274 0.57525 0.0
C344 C 0.97806 0.39703 0.4286 0.0
C345 C 0.9626 0.41024 0.41194 0.0
C346 C 0.99674 0.40455 0.44712 0.0
C347 C 0.00015 0.4253 0.4484 0.0
C348 C 0.98499 0.43834 0.42927 0.0
H349 H 0.03844 0.52499 0.60181 0.0
H350 H 0.02587 0.49258 0.56866 0.0
C351 C 0.96641 0.43092 0.4115 0.0
C352 C 0.0187 0.43414 0.47369 0.0
H353 H 0.0368 0.45126 0.6098 0.0
C354 C 0.03091 0.44544 0.43446 0.0
C355 C 0.02172 0.43529 0.53755 0.0
C356 C 0.00896 0.4234 0.58143 0.0
C357 C 0.04476 0.45931 0.45769 0.0
C358 C 0.04635 0.46186 0.52166 0.0
C359 C 0.03556 0.44917 0.56077 0.0
C360 C 0.05505 0.48038 0.54764 0.0
C361 C 0.05609 0.47259 0.41392 0.0
C362 C 0.07574 0.48414 0.54787 0.0
C363 C 0.08306 0.50281 0.56725 0.0
C364 C 0.0697 0.51792 0.58581 0.0
C365 C 0.0491 0.51375 0.58725 0.0
C366 C 0.04189 0.49518 0.56864 0.0
H367 H 0.05314 0.46868 0.36538 0.0
H368 H 0.05184 0.48847 0.42145 0.0
H369 H 0.0724 0.47126 0.42256 0.0
H370 H 0.08612 0.47284 0.53188 0.0
H371 H 0.09901 0.50566 0.56565 0.0
H372 H 0.98182 0.0986 0.12229 0.0
H373 H 0.01484 0.08429 0.09666 0.0
H374 H 0.98967 0.02491 0.105 0.0
H375 H 0.95708 0.0388 0.12992 0.0
H376 H 0.03075 0.036 0.17372 0.0
H377 H 0.02419 0.05039 0.92355 0.0
H378 H 0.01715 0.06897 0.97965 0.0
H379 H 0.00165 0.04738 0.96813 0.0
C380 C 0.98344 0.0825 0.11897 0.0
C381 C 0.96685 0.06982 0.12777 0.0
C382 C 0.00224 0.0744 0.10436 0.0
C383 C 0.00456 0.05358 0.09904 0.0
C384 C 0.98812 0.04101 0.10902 0.0
H385 H 0.05305 0.94635 0.03443 0.0
H386 H 0.04035 0.97779 0.07498 0.0
C387 C 0.96948 0.04901 0.12303 0.0
C388 C 0.02369 0.04425 0.08109 0.0
H389 H 0.04544 0.02395 0.95448 0.0
C390 C 0.03453 0.0339 0.1259 0.0
C391 C 0.0286 0.04166 0.0188 0.0
C392 C 0.0174 0.05269 0.9694 0.0
C393 C 0.04891 0.01957 0.10961 0.0
C394 C 0.05214 0.01528 0.04707 0.0
C395 C 0.04284 0.02717 1.00244 0.0
C396 C 0.06182 0.99641 0.02734 0.0
C397 C 0.05958 0.00825 0.1595 0.0
C398 C 0.07804 0.99641 0.98648 0.0
C399 C 0.08537 0.97831 0.963 0.0
C400 C 0.07629 0.96005 0.97918 0.0
C401 C 0.06034 0.96015 0.02095 0.0
C402 C 0.05318 0.97813 0.04471 0.0
H403 H 0.06135 0.01768 0.201 0.0
H404 H 0.05055 0.99495 0.17242 0.0
H405 H 0.07457 0.00309 0.14423 0.0
H406 H 0.08473 0.0104 0.97192 0.0
H407 H 0.09764 0.97867 0.93065 0.0
H408 H 0.59255 0.17345 0.2666 0.0
H409 H 0.57911 0.20638 0.2439 0.0
H410 H 0.51946 0.18542 0.28361 0.0
H411 H 0.5329 0.15193 0.3069 0.0
H412 H 0.52486 0.21074 0.17151 0.0
H413 H 0.55681 0.24444 0.38078 0.0
H414 H 0.57456 0.22912 0.34063 0.0
H415 H 0.55247 0.21785 0.37287 0.0
C416 C 0.57654 0.17569 0.27044 0.0
C417 C 0.56382 0.1601 0.28934 0.0
C418 C 0.5689 0.19457 0.25758 0.0
C419 C 0.54839 0.19839 0.26342 0.0
C420 C 0.53539 0.18274 0.27957 0.0
H421 H 0.53747 0.32828 0.22414 0.0
H422 H 0.52706 0.29531 0.26196 0.0
C423 C 0.54308 0.16366 0.29265 0.0
C424 C 0.54113 0.21899 0.25264 0.0
H425 H 0.55198 0.26684 0.29512 0.0
C426 C 0.53025 0.22306 0.19933 0.0
C427 C 0.54773 0.235 0.28978 0.0
C428 C 0.55837 0.2314 0.34959 0.0
C429 C 0.52759 0.24283 0.17904 0.0
C430 C 0.53643 0.25874 0.21235 0.0
C431 C 0.54544 0.25469 0.26895 0.0
C432 C 0.53944 0.2789 0.18539 0.0
C433 C 0.51606 0.24639 0.12082 0.0
C434 C 0.54973 0.28067 0.12973 0.0
C435 C 0.55567 0.29938 0.10814 0.0
C436 C 0.55167 0.31679 0.14207 0.0
C437 C 0.54077 0.31514 0.19688 0.0
C438 C 0.53478 0.29633 0.21849 0.0
H439 H 0.5039 0.23517 0.1156 0.0
H440 H 0.50943 0.26162 0.11961 0.0
H441 H 0.52628 0.24468 0.08116 0.0
H442 H 0.55409 0.26747 0.10424 0.0
H443 H 0.56401 0.30007 0.06572 0.0
H444 H 0.17161 0.58809 0.74833 0.0
H445 H 0.20422 0.57319 0.76717 0.0
H446 H 0.18509 0.51862 0.67923 0.0
H447 H 0.15208 0.53368 0.65962 0.0
H448 H 0.2178 0.5373 0.82565 0.0
H449 H 0.23308 0.53889 0.57488 0.0
H450 H 0.21212 0.55222 0.6072 0.0
H451 H 0.2116 0.52541 0.60281 0.0
C452 C 0.17418 0.5728 0.73377 0.0
C453 C 0.1594 0.56214 0.70175 0.0
C454 C 0.19281 0.56425 0.74487 0.0
C455 C 0.19717 0.5449 0.72394 0.0
C456 C 0.18207 0.53367 0.6952 0.0
H457 H 0.32639 0.5317 0.80479 0.0
H458 H 0.29302 0.51744 0.7849 0.0
C459 C 0.16322 0.54222 0.68436 0.0
C460 C 0.21819 0.53794 0.72738 0.0
H461 H 0.26063 0.53775 0.64047 0.0
C462 C 0.22719 0.53664 0.78521 0.0
C463 C 0.23032 0.53712 0.67441 0.0
C464 C 0.22143 0.53852 0.61114 0.0
C465 C 0.2481 0.53659 0.79166 0.0
C466 C 0.26024 0.53767 0.73875 0.0
C467 C 0.25123 0.5369 0.68085 0.0
C468 C 0.28137 0.5443 0.74267 0.0
C469 C 0.25701 0.53741 0.85499 0.0
C470 C 0.28605 0.56375 0.72329 0.0
C471 C 0.30489 0.57186 0.73455 0.0
C472 C 0.31955 0.56066 0.76518 0.0
C473 C 0.31535 0.54068 0.78112 0.0
C474 C 0.2963 0.53256 0.77013 0.0
H475 H 0.24538 0.53762 0.89129 0.0
H476 H 0.2667 0.52415 0.86232 0.0
H477 H 0.26648 0.55099 0.85991 0.0
H478 H 0.27476 0.57307 0.70199 0.0
H479 H 0.30772 0.58722 0.72114 0.0
H480 H 0.95083 0.15534 0.18749 0.0
H481 H 0.96539 0.18872 0.2052 0.0
H482 H 0.91449 0.20434 0.31683 0.0
H483 H 0.90006 0.17141 0.29936 0.0
H484 H 0.94637 0.22315 0.167 0.0
H485 H 0.96008 0.22855 0.41444 0.0
H486 H 0.95804 0.20476 0.37545 0.0
H487 H 0.93592 0.21774 0.40106 0.0
C488 C 0.94313 0.16574 0.21731 0.0
C489 C 0.9243 0.16088 0.24189 0.0
C490 C 0.95142 0.18478 0.22727 0.0
C491 C 0.94118 0.19894 0.26306 0.0
C492 C 0.92293 0.19356 0.29029 0.0
H493 H 0.89472 0.30799 0.24597 0.0
H494 H 0.91052 0.27593 0.2251 0.0
C495 C 0.91458 0.17477 0.27978 0.0
C496 C 0.94745 0.22023 0.26511 0.0
H497 H 0.94813 0.25949 0.3647 0.0
C498 C 0.9475 0.23108 0.21016 0.0
C499 C 0.94939 0.23062 0.32113 0.0
C500 C 0.95109 0.21973 0.38126 0.0
C501 C 0.94689 0.25208 0.21031 0.0
C502 C 0.94594 0.26237 0.26676 0.0
C503 C 0.94848 0.25161 0.32133 0.0
C504 C 0.93834 0.28318 0.27081 0.0
C505 C 0.94593 0.263 0.15007 0.0
C506 C 0.94874 0.29806 0.30335 0.0
C507 C 0.93965 0.31658 0.31534 0.0
C508 C 0.9199 0.32022 0.2961 0.0
C509 C 0.90993 0.30559 0.2615 0.0
C510 C 0.91904 0.28731 0.24899 0.0
H511 H 0.95441 0.2548 0.11426 0.0
H512 H 0.93011 0.2639 0.1349 0.0
H513 H 0.95199 0.27843 0.15394 0.0
H514 H 0.96355 0.29508 0.32125 0.0
H515 H 0.94762 0.32756 0.3425 0.0
H516 H 0.30132 0.89554 0.62116 0.0
H517 H 0.26938 0.90573 0.66382 0.0
H518 H 0.29644 0.95957 0.7352 0.0
H519 H 0.32897 0.9489 0.69453 0.0
H520 H 0.27427 0.94369 0.81858 0.0
H521 H 0.22874 0.94484 0.60974 0.0
H522 H 0.24071 0.92095 0.61473 0.0
H523 H 0.25569 0.94332 0.60697 0.0
C524 C 0.3005 0.90969 0.6452 0.0
C525 C 0.31768 0.92147 0.65418 0.0
C526 C 0.28211 0.91563 0.6691 0.0
C527 C 0.28029 0.93373 0.70123 0.0
C528 C 0.2974 0.94565 0.70992 0.0
H529 H 0.15506 0.94721 0.81724 0.0
H530 H 0.18712 0.95715 0.77184 0.0
C531 C 0.31597 0.93955 0.68672 0.0
C532 C 0.26086 0.939 0.73004 0.0
H533 H 0.21059 0.93666 0.70417 0.0
C534 C 0.26036 0.94264 0.79324 0.0
C535 C 0.24264 0.93838 0.69707 0.0
C536 C 0.24203 0.93691 0.62826 0.0
C537 C 0.24215 0.94382 0.82502 0.0
C538 C 0.22401 0.94047 0.79312 0.0
C539 C 0.22446 0.93871 0.72916 0.0
C540 C 0.20484 0.93645 0.82538 0.0
C541 C 0.24265 0.94823 0.89265 0.0
C542 C 0.20408 0.92155 0.87059 0.0
C543 C 0.18591 0.9161 0.89712 0.0
C544 C 0.16795 0.92503 0.87796 0.0
C545 C 0.16866 0.94007 0.83302 0.0
C546 C 0.18696 0.94576 0.80707 0.0
H547 H 0.25527 0.95843 0.9039 0.0
H548 H 0.2285 0.95518 0.90866 0.0
H549 H 0.24511 0.93408 0.91815 0.0
H550 H 0.21746 0.91356 0.88396 0.0
H551 H 0.18591 0.90431 0.93111 0.0
H552 H 0.34834 0.82371 0.71159 0.0
H553 H 0.34817 0.7881 0.73539 0.0
H554 H 0.41171 0.79015 0.76956 0.0
H555 H 0.41181 0.82609 0.75008 0.0
H556 H 0.36634 0.75888 0.67727 0.0
H557 H 0.39331 0.75968 0.91657 0.0
H558 H 0.3856 0.78214 0.87738 0.0
H559 H 0.41026 0.77203 0.86538 0.0
C560 C 0.36222 0.81678 0.7258 0.0
C561 C 0.38007 0.82793 0.72917 0.0
C562 C 0.36212 0.79631 0.73878 0.0
C563 C 0.37986 0.78645 0.75507 0.0
C564 C 0.39773 0.79748 0.7585 0.0
H565 H 0.39719 0.65797 0.71869 0.0
H566 H 0.39743 0.69435 0.70584 0.0
C567 C 0.3978 0.81802 0.74631 0.0
C568 C 0.37979 0.76447 0.76515 0.0
H569 H 0.39295 0.72791 0.8665 0.0
C570 C 0.37205 0.75213 0.71885 0.0
C571 C 0.387 0.75565 0.81969 0.0
C572 C 0.39432 0.76808 0.87283 0.0
C573 C 0.37151 0.73124 0.7252 0.0
C574 C 0.37953 0.72238 0.77858 0.0
C575 C 0.38703 0.73471 0.82528 0.0
C576 C 0.37998 0.70035 0.78726 0.0
C577 C 0.36195 0.71895 0.67516 0.0
C578 C 0.37077 0.69167 0.83852 0.0
C579 C 0.37087 0.67091 0.84639 0.0
C580 C 0.38012 0.65845 0.80299 0.0
C581 C 0.38963 0.66719 0.75225 0.0
C582 C 0.38972 0.68796 0.74478 0.0
H583 H 0.35142 0.72804 0.64739 0.0
H584 H 0.37378 0.71325 0.64409 0.0
H585 H 0.35368 0.70595 0.69423 0.0
H586 H 0.36325 0.70095 0.87202 0.0
H587 H 0.36336 0.66456 0.88579 0.0
H588 H 0.81926 0.397 0.25884 0.0
H589 H 0.78292 0.39707 0.24504 0.0
H590 H 0.77672 0.35517 0.39409 0.0
H591 H 0.81303 0.35587 0.40974 0.0
H592 H 0.75866 0.36894 0.2133 0.0
H593 H 0.73545 0.39475 0.44297 0.0
H594 H 0.76118 0.39532 0.41819 0.0
H595 H 0.75031 0.37247 0.44683 0.0
C596 C 0.81008 0.38793 0.28886 0.0
C597 C 0.81886 0.3765 0.33552 0.0
C598 C 0.78933 0.38797 0.28102 0.0
C599 C 0.77696 0.3764 0.3192 0.0
C600 C 0.78581 0.36473 0.3653 0.0
H601 H 0.65594 0.34454 0.20694 0.0
H602 H 0.6913 0.34419 0.23337 0.0
C603 C 0.80655 0.365 0.37394 0.0
C604 C 0.75497 0.37597 0.30877 0.0
H605 H 0.70966 0.38149 0.37925 0.0
C606 C 0.74796 0.37181 0.24958 0.0
C607 C 0.74095 0.37999 0.35581 0.0
C608 C 0.74735 0.38609 0.41931 0.0
C609 C 0.72744 0.37147 0.23611 0.0
C610 C 0.7134 0.37452 0.28377 0.0
C611 C 0.72038 0.37884 0.34289 0.0
C612 C 0.69145 0.37392 0.27278 0.0
C613 C 0.72112 0.36845 0.17048 0.0
C614 C 0.67939 0.39022 0.28958 0.0
C615 C 0.65891 0.39018 0.27656 0.0
C616 C 0.65002 0.37392 0.24578 0.0
C617 C 0.66207 0.35731 0.231 0.0
C618 C 0.68247 0.35722 0.24508 0.0
H619 H 0.73324 0.37269 0.13816 0.0
H620 H 0.71766 0.35239 0.16286 0.0
H621 H 0.70761 0.37739 0.15934 0.0
H622 H 0.6859 0.40318 0.31175 0.0
H623 H 0.65011 0.40302 0.29026 0.0
H624 H 0.13286 0.82043 0.8328 0.0
H625 H 0.13182 0.78522 0.80307 0.0
H626 H 0.08038 0.79679 0.68951 0.0
H627 H 0.08174 0.83226 0.7173 0.0
H628 H 0.10037 0.75905 0.82376 0.0
H629 H 0.11688 0.76482 0.57543 0.0
H630 H 0.1215 0.78513 0.62809 0.0
H631 H 0.09655 0.7802 0.60143 0.0
C632 C 0.12158 0.81562 0.80043 0.0
C633 C 0.10744 0.82923 0.77719 0.0
C634 C 0.12092 0.79544 0.78387 0.0
C635 C 0.10617 0.78843 0.74357 0.0
C636 C 0.09211 0.80194 0.71985 0.0
H637 H 0.0757 0.66807 0.61974 0.0
H638 H 0.07643 0.70423 0.63823 0.0
C639 C 0.09277 0.82217 0.73634 0.0
C640 C 0.10495 0.76677 0.72921 0.0
H641 H 0.10749 0.73281 0.61265 0.0
C642 C 0.10198 0.75331 0.77763 0.0
C643 C 0.10694 0.75935 0.66893 0.0
C644 C 0.11082 0.77308 0.61545 0.0
C645 C 0.10088 0.73261 0.76742 0.0
C646 C 0.10311 0.72516 0.70729 0.0
C647 C 0.10581 0.73861 0.65869 0.0
C648 C 0.10306 0.7034 0.69432 0.0
C649 C 0.09708 0.71888 0.821 0.0
C650 C 0.11802 0.69106 0.71876 0.0
C651 C 0.11772 0.67045 0.70806 0.0
C652 C 0.10248 0.66177 0.67246 0.0
C653 C 0.08774 0.67427 0.64691 0.0
C654 C 0.08808 0.69492 0.65763 0.0
H655 H 0.09071 0.72709 0.86069 0.0
H656 H 0.08667 0.70661 0.80822 0.0
H657 H 0.11143 0.71206 0.83561 0.0
H658 H 0.12995 0.69739 0.74617 0.0
H659 H 0.12952 0.66133 0.72738 0.0
H660 H 0.82803 0.08489 0.31079 0.0
H661 H 0.79205 0.08299 0.3308 0.0
H662 H 0.7801 0.11027 0.15597 0.0
H663 H 0.81611 0.11261 0.13604 0.0
H664 H 0.75896 0.12739 0.2573 0.0
H665 H 0.75154 0.04457 0.24737 0.0
H666 H 0.77089 0.05376 0.29711 0.0
H667 H 0.77285 0.05773 0.21613 0.0
C668 C 0.81775 0.09059 0.27673 0.0
C669 C 0.8249 0.09892 0.22183 0.0
C670 C 0.79721 0.0893 0.28797 0.0
C671 C 0.78347 0.09627 0.24452 0.0
C672 C 0.79051 0.10469 0.18985 0.0
H673 H 0.65522 0.07976 0.22647 0.0
H674 H 0.69136 0.08 0.20826 0.0
C675 C 0.81105 0.10591 0.17842 0.0
C676 C 0.76174 0.09529 0.25686 0.0
H677 H 0.72309 0.06275 0.2808 0.0
C678 C 0.75108 0.11328 0.26238 0.0
C679 C 0.75156 0.07683 0.26292 0.0
C680 C 0.76221 0.05708 0.25511 0.0
C681 C 0.73047 0.11331 0.27458 0.0
C682 C 0.72038 0.09486 0.282 0.0
C683 C 0.73097 0.07686 0.27568 0.0
C684 C 0.69866 0.09399 0.29461 0.0
C685 C 0.71958 0.13305 0.2785 0.0
C686 C 0.69091 0.10142 0.34973 0.0
C687 C 0.67028 0.10134 0.36024 0.0
C688 C 0.65708 0.09383 0.31571 0.0
C689 C 0.66499 0.08592 0.26122 0.0
C690 C 0.68561 0.08593 0.25089 0.0
H691 H 0.72857 0.14554 0.25915 0.0
H692 H 0.70507 0.13228 0.25391 0.0
H693 H 0.71641 0.13653 0.32716 0.0
H694 H 0.70081 0.10747 0.38432 0.0
H695 H 0.66462 0.10763 0.40249 0.0
H696 H 0.59216 0.12058 0.63296 0.0
H697 H 0.58545 0.11486 0.74109 0.0
H698 H 0.52705 0.09149 0.69623 0.0
H699 H 0.53395 0.09691 0.58709 0.0
H700 H 0.55711 0.13069 0.81351 0.0
H701 H 0.54859 0.04794 0.80592 0.0
H702 H 0.55834 0.06209 0.74231 0.0
H703 H 0.53187 0.06154 0.75696 0.0
C704 C 0.57787 0.11425 0.64603 0.0
C705 C 0.56356 0.10923 0.60151 0.0
C706 C 0.57406 0.11095 0.70791 0.0
C707 C 0.55581 0.10261 0.72696 0.0
C708 C 0.54141 0.09758 0.68266 0.0
H709 H 0.53066 0.10533 0.12482 0.0
H710 H 0.52705 0.111 0.01439 0.0
C711 C 0.54533 0.1007 0.62037 0.0
C712 C 0.55212 0.09953 0.79337 0.0
H713 H 0.54443 0.0635 0.90167 0.0
C714 C 0.55418 0.11602 0.83281 0.0
C715 C 0.54839 0.08036 0.81851 0.0
C716 C 0.54683 0.06192 0.77893 0.0
C717 C 0.55335 0.11379 0.89663 0.0
C718 C 0.5498 0.0946 0.92182 0.0
C719 C 0.54704 0.07822 0.88231 0.0
C720 C 0.55093 0.09077 0.98873 0.0
C721 C 0.55731 0.13184 0.93638 0.0
C722 C 0.56511 0.07713 0.01098 0.0
C723 C 0.56701 0.07373 0.07362 0.0
C724 C 0.5548 0.08391 0.11575 0.0
C725 C 0.54042 0.09745 0.09352 0.0
C726 C 0.53839 0.10072 0.03048 0.0
H727 H 0.56421 0.14431 0.91017 0.0
H728 H 0.54296 0.1373 0.95564 0.0
H729 H 0.56737 0.12795 0.97499 0.0
H730 H 0.57503 0.06934 0.9798 0.0
H731 H 0.57845 0.06345 0.08907 0.0
H732 H 0.42778 0.55214 0.57604 0.0
H733 H 0.4235 0.55036 0.46517 0.0
H734 H 0.35967 0.55621 0.48697 0.0
H735 H 0.36381 0.5583 0.59795 0.0
H736 H 0.37307 0.5265 0.39619 0.0
H737 H 0.40769 0.6017 0.36722 0.0
H738 H 0.42202 0.58379 0.41015 0.0
H739 H 0.39868 0.59278 0.44013 0.0
C740 C 0.41282 0.55301 0.55737 0.0
C741 C 0.39617 0.55562 0.59604 0.0
C742 C 0.41041 0.55193 0.49398 0.0
C743 C 0.39131 0.55344 0.46788 0.0
C744 C 0.37455 0.55504 0.50628 0.0
H745 H 0.35218 0.58945 0.11212 0.0
H746 H 0.35931 0.58461 0.2205 0.0
C747 C 0.37694 0.55615 0.56979 0.0
C748 C 0.38891 0.55452 0.40055 0.0
H749 H 0.39832 0.58457 0.27749 0.0
C750 C 0.37868 0.53911 0.37007 0.0
C751 C 0.39611 0.57111 0.36681 0.0
C752 C 0.40662 0.5884 0.39755 0.0
C753 C 0.37543 0.53988 0.30657 0.0
C754 C 0.38266 0.55646 0.27291 0.0
C755 C 0.39296 0.5718 0.30341 0.0
C756 C 0.37847 0.55893 0.20676 0.0
C757 C 0.36378 0.52331 0.27609 0.0
C758 C 0.38708 0.5462 0.16291 0.0
C759 C 0.38303 0.54896 0.10057 0.0
C760 C 0.37021 0.56441 0.08122 0.0
C761 C 0.36182 0.5772 0.12545 0.0
C762 C 0.36597 0.57453 0.18744 0.0
H763 H 0.35657 0.51318 0.30985 0.0
H764 H 0.35204 0.52963 0.2458 0.0
H765 H 0.37405 0.51429 0.24727 0.0
H766 H 0.39697 0.53422 0.17688 0.0
H767 H 0.38964 0.53882 0.06765 0.0
H768 H 0.94483 0.37815 0.13676 0.0
H769 H 0.94885 0.37327 0.02612 0.0
H770 H 0.89612 0.40893 0.99394 0.0
H771 H 0.89231 0.4141 0.10349 0.0
H772 H 0.92544 0.35559 0.9453 0.0
H773 H 0.93368 0.43449 0.87519 0.0
H774 H 0.9351 0.42681 0.95415 0.0
H775 H 0.91116 0.43108 0.91849 0.0
C776 C 0.93421 0.38503 0.10594 0.0
C777 C 0.91842 0.39674 0.12896 0.0
C778 C 0.93653 0.38229 0.04273 0.0
C779 C 0.92309 0.39116 1.00136 0.0
C780 C 0.90714 0.40255 0.0245 0.0
H781 H 0.88848 0.35139 0.64491 0.0
H782 H 0.8937 0.35785 0.75344 0.0
C783 C 0.90494 0.40544 0.08738 0.0
C784 C 0.92487 0.38763 0.93427 0.0
H785 H 0.92346 0.41144 0.79601 0.0
C786 C 0.9253 0.36783 0.91273 0.0
C787 C 0.92515 0.40354 0.89141 0.0
C788 C 0.92648 0.42516 0.91106 0.0
C789 C 0.92494 0.36351 0.84984 0.0
C790 C 0.9235 0.3794 0.80717 0.0
C791 C 0.92417 0.39922 0.82856 0.0
C792 C 0.92039 0.37576 0.74062 0.0
C793 C 0.92612 0.34191 0.82995 0.0
C794 C 0.93309 0.38442 0.69665 0.0
C795 C 0.92993 0.38097 0.63411 0.0
C796 C 0.91404 0.36874 0.61447 0.0
C797 C 0.90113 0.36048 0.65857 0.0
C798 C 0.90416 0.36409 0.72077 0.0
H799 H 0.93407 0.33265 0.86441 0.0
H800 H 0.91075 0.3358 0.82521 0.0
H801 H 0.93393 0.34037 0.78538 0.0
H802 H 0.9456 0.39366 0.71073 0.0
H803 H 0.94014 0.3875 0.60124 0.0
H804 H 0.12923 0.87557 0.15312 0.0
H805 H 0.1296 0.88221 0.26306 0.0
H806 H 0.10395 0.94049 0.23152 0.0
H807 H 0.10343 0.93392 0.12132 0.0
H808 H 0.13528 0.93965 0.32225 0.0
H809 H 0.07688 0.8818 0.36196 0.0
H810 H 0.09864 0.87315 0.3216 0.0
H811 H 0.08256 0.89144 0.28687 0.0
C812 C 0.1237 0.88982 0.16953 0.0
C813 C 0.11608 0.90411 0.12846 0.0
C814 C 0.12397 0.89361 0.23234 0.0
C815 C 0.1165 0.91171 0.25548 0.0
C816 C 0.10975 0.9264 0.21456 0.0
H817 H 0.07082 0.93496 0.61553 0.0
H818 H 0.07692 0.9312 0.50657 0.0
C819 C 0.10952 0.92265 0.15157 0.0
C820 C 0.11473 0.91482 0.32243 0.0
H821 H 0.09091 0.89702 0.44942 0.0
C822 C 0.12562 0.93034 0.3502 0.0
C823 C 0.10194 0.90277 0.35856 0.0
C824 C 0.08918 0.88646 0.33085 0.0
C825 C 0.12413 0.93404 0.41338 0.0
C826 C 0.11156 0.92177 0.44959 0.0
C827 C 0.10067 0.9063 0.42166 0.0
C828 C 0.10857 0.92526 0.51601 0.0
C829 C 0.13559 0.95134 0.44063 0.0
C830 C 0.12438 0.92321 0.55783 0.0
C831 C 0.12097 0.92552 0.6207 0.0
C832 C 0.10166 0.92986 0.64287 0.0
C833 C 0.08595 0.932 0.6005 0.0
C834 C 0.08937 0.9297 0.53796 0.0
H835 H 0.14109 0.96183 0.40497 0.0
H836 H 0.12611 0.95977 0.47344 0.0
H837 H 0.14873 0.94549 0.46592 0.0
H838 H 0.13927 0.91947 0.54198 0.0
H839 H 0.13343 0.92387 0.65186 0.0
H840 H 0.54942 0.34876 0.37346 0.0
H841 H 0.55109 0.341 0.48318 0.0
H842 H 0.55044 0.40408 0.52485 0.0
H843 H 0.54888 0.41189 0.41658 0.0
H844 H 0.57959 0.35145 0.56777 0.0
H845 H 0.50675 0.3833 0.63671 0.0
H846 H 0.51302 0.37831 0.55784 0.0
H847 H 0.52129 0.40107 0.59418 0.0
C848 C 0.54959 0.36094 0.40608 0.0
C849 C 0.54872 0.38095 0.38601 0.0
C850 C 0.55045 0.35649 0.46873 0.0
C851 C 0.55037 0.37195 0.51235 0.0
C852 C 0.54983 0.39187 0.49229 0.0
H853 H 0.6 0.38518 0.86523 0.0
H854 H 0.59198 0.38185 0.75723 0.0
C855 C 0.54895 0.39632 0.43006 0.0
C856 C 0.55196 0.36764 0.57884 0.0
H857 H 0.53144 0.38004 0.71684 0.0
C858 C 0.56888 0.35739 0.60034 0.0
C859 C 0.53781 0.37501 0.62146 0.0
C860 C 0.51859 0.38484 0.60132 0.0
C861 C 0.57266 0.35548 0.66325 0.0
C862 C 0.55939 0.36441 0.70576 0.0
C863 C 0.5418 0.37348 0.68434 0.0
C864 C 0.56423 0.36583 0.77196 0.0
C865 C 0.59103 0.34417 0.6835 0.0
C866 C 0.55097 0.35855 0.81664 0.0
C867 C 0.5555 0.36053 0.87896 0.0
C868 C 0.57335 0.3699 0.89768 0.0
C869 C 0.58639 0.37743 0.85265 0.0
C870 C 0.58184 0.3755 0.79067 0.0
H871 H 0.59553 0.33282 0.64897 0.0
H872 H 0.60366 0.35482 0.6889 0.0
H873 H 0.58851 0.33651 0.72791 0.0
H874 H 0.53718 0.35122 0.80328 0.0
H875 H 0.54518 0.3545 0.91236 0.0
H876 H 0.05119 0.55613 0.89156 0.0
H877 H 0.05558 0.55477 1.00244 0.0
H878 H 0.11947 0.55957 0.97974 0.0
H879 H 0.11524 0.5613 0.86875 0.0
H880 H 0.1053 0.53017 0.07172 0.0
H881 H 0.07284 0.60637 0.09842 0.0
H882 H 0.05812 0.5887 0.05567 0.0
H883 H 0.08173 0.59703 0.02587 0.0
C884 C 0.06619 0.55687 0.91001 0.0
C885 C 0.08283 0.55908 0.87105 0.0
C886 C 0.06866 0.55602 0.97342 0.0
C887 C 0.08782 0.55734 0.99924 0.0
C888 C 0.10455 0.55855 0.96062 0.0
H889 H 0.12752 0.59343 0.35508 0.0
H890 H 0.12046 0.5886 0.24662 0.0
C891 C 0.1021 0.55945 0.8971 0.0
C892 C 0.09031 0.55862 0.06651 0.0
H893 H 0.0818 0.58934 0.18864 0.0
C894 C 0.10008 0.54303 0.09745 0.0
C895 C 0.08362 0.57552 0.09973 0.0
C896 C 0.07362 0.59297 0.06842 0.0
C897 C 0.10334 0.54393 0.16094 0.0
C898 C 0.09659 0.56081 0.19411 0.0
C899 C 0.08679 0.57635 0.16311 0.0
C900 C 0.10073 0.56332 0.2603 0.0
C901 C 0.11447 0.52712 0.1919 0.0
C902 C 0.09177 0.55083 0.30414 0.0
C903 C 0.09579 0.55357 0.3665 0.0
C904 C 0.1089 0.5688 0.38592 0.0
C905 C 0.11764 0.58136 0.34171 0.0
C906 C 0.11353 0.5787 0.27967 0.0
H907 H 0.12154 0.5168 0.15843 0.0
H908 H 0.12625 0.53319 0.22255 0.0
H909 H 0.10387 0.51836 0.22039 0.0
H910 H 0.08164 0.53902 0.29014 0.0
H911 H 0.08892 0.5436 0.39938 0.0
H912 H 0.93006 0.05485 0.43777 0.0
H913 H 0.93107 0.06083 0.548 0.0
H914 H 0.92732 0.12442 0.51653 0.0
H915 H 0.92552 0.11859 0.40654 0.0
H916 H 0.95655 0.08303 0.62352 0.0
H917 H 0.87925 0.11345 0.62702 0.0
H918 H 0.88941 0.10044 0.56173 0.0
H919 H 0.89582 0.1262 0.57541 0.0
C920 C 0.92941 0.07012 0.45421 0.0
C921 C 0.92742 0.0862 0.41308 0.0
C922 C 0.93014 0.07351 0.51726 0.0
C923 C 0.92886 0.09303 0.5405 0.0
C924 C 0.92792 0.10919 0.4996 0.0
H925 H 0.91877 0.14391 0.90286 0.0
H926 H 0.92351 0.13787 0.79379 0.0
C927 C 0.92713 0.10582 0.43654 0.0
C928 C 0.92772 0.09642 0.60747 0.0
H929 H 0.89757 0.11543 0.71936 0.0
C930 C 0.94365 0.09007 0.64458 0.0
C931 C 0.9108 0.10548 0.63484 0.0
C932 C 0.89275 0.11163 0.59787 0.0
C933 C 0.94328 0.09296 0.70826 0.0
C934 C 0.92644 0.10219 0.73543 0.0
C935 C 0.91051 0.10845 0.69833 0.0
C936 C 0.92493 0.10565 0.80226 0.0
C937 C 0.96106 0.08648 0.74581 0.0
C938 C 0.92418 0.08952 0.84333 0.0
C939 C 0.92132 0.09292 0.90591 0.0
C940 C 0.91902 0.11252 0.92847 0.0
C941 C 0.92014 0.12862 0.88711 0.0
C942 C 0.92299 0.12521 0.82472 0.0
H943 H 0.97454 0.08403 0.71701 0.0
H944 H 0.96465 0.09781 0.78134 0.0
H945 H 0.95746 0.0722 0.76926 0.0
H946 H 0.92526 0.07427 0.82681 0.0
H947 H 0.92028 0.08016 0.9362 0.0
H948 H 0.34974 0.8873 0.36465 0.0
H949 H 0.35009 0.89625 0.25622 0.0
H950 H 0.38563 0.94845 0.29712 0.0
H951 H 0.38565 0.93938 0.40572 0.0
H952 H 0.33865 0.93271 0.19121 0.0
H953 H 0.41982 0.91478 0.17499 0.0
H954 H 0.40456 0.90684 0.23865 0.0
H955 H 0.41275 0.93238 0.23333 0.0
C956 C 0.35755 0.90073 0.35062 0.0
C957 C 0.36787 0.91249 0.3937 0.0
C958 C 0.35762 0.9059 0.28873 0.0
C959 C 0.3681 0.92285 0.26862 0.0
C960 C 0.37762 0.93518 0.31173 0.0
H961 H 0.40355 0.95711 0.90067 0.0
H962 H 0.39684 0.95713 0.01053 0.0
C963 C 0.37749 0.93006 0.3738 0.0
C964 C 0.3701 0.92677 0.20219 0.0
H965 H 0.40398 0.92591 0.08545 0.0
C966 C 0.35293 0.93134 0.16798 0.0
C967 C 0.38874 0.9249 0.17213 0.0
C968 C 0.40754 0.91931 0.20634 0.0
C969 C 0.35395 0.93421 0.10434 0.0
C970 C 0.37255 0.93199 0.07413 0.0
C971 C 0.38973 0.92766 0.10862 0.0
C972 C 0.37466 0.93354 0.00666 0.0
C973 C 0.33516 0.93981 0.07023 0.0
C974 C 0.36423 0.92045 0.96767 0.0
C975 C 0.36803 0.92045 0.90469 0.0
C976 C 0.38253 0.93335 0.87972 0.0
C977 C 0.39247 0.94684 0.91865 0.0
C978 C 0.3886 0.94692 0.9814 0.0
H979 H 0.3239 0.94674 0.10108 0.0
H980 H 0.33846 0.95039 0.0324 0.0
H981 H 0.32839 0.9261 0.05034 0.0
H982 H 0.35376 0.90966 0.98619 0.0
H983 H 0.36033 0.90971 0.87606 0.0
loop_
_geom_bond_atom_site_label_1
_geom_bond_atom_site_label_2
_geom_bond_distance
_geom_bond_site_symmetry_2
_ccdc_geom_bond_type
C0 C1 1.351 . S
C0 N3 1.368 . S
C0 H5 0.931 . S
C1 C0 1.351 . S
C1 N2 1.373 . S
C1 H29 0.930 . S
N2 C1 1.373 . S
N2 C4 1.340 . S
N3 C0 1.368 . S
N3 C4 1.321 . S
N3 Co6 2.135 . S
C4 N2 1.340 . S
C4 N3 1.321 . S
C4 H28 0.930 . S
H5 C0 0.931 . S
Co6 N3 2.135 . S
Co6 N9 2.121 . S
Co6 O14 2.055 . S
Co6 O17 2.039 . S
Co6 N20 2.140 . S
C7 O8 1.227 . S
C7 O17 1.265 . S
O8 C7 1.227 . S
N9 Co6 2.121 . S
N9 C11 1.375 . S
N9 C12 1.313 . S
C10 C11 1.338 . S
C10 N13 1.377 . S
C10 H30 0.930 . S
C11 N9 1.375 . S
C11 C10 1.338 . S
C11 H15 0.931 . S
C12 N9 1.313 . S
C12 N13 1.344 . S
C12 H16 0.930 . S
N13 C10 1.377 . S
N13 C12 1.344 . S
O14 Co6 2.055 . S
O14 C18 1.253 . S
H15 C11 0.931 . S
H16 C12 0.930 . S
O17 Co6 2.039 . S
O17 C7 1.265 . S
C18 O14 1.253 . S
C18 O19 1.227 . S
O19 C18 1.227 . S
N20 Co6 2.140 . S
N20 C23 1.346 . S
N20 C24 1.345 . S
C21 C22 1.387 . S
C21 C25 1.391 . S
C22 C21 1.387 . S
C22 C23 1.369 . S
C22 H31 0.929 . S
C23 N20 1.346 . S
C23 C22 1.369 . S
C23 H26 0.928 . S
C24 N20 1.345 . S
C24 C25 1.371 . S
C24 H27 0.931 . S
C25 C21 1.391 . S
C25 C24 1.371 . S
C25 H32 0.930 . S
H26 C23 0.928 . S
H27 C24 0.931 . S
H28 C4 0.930 . S
H29 C1 0.930 . S
H30 C10 0.930 . S
H31 C22 0.929 . S
H32 C25 0.930 . S
C33 C34 1.351 . S
C33 N36 1.368 . S
C33 H38 0.931 . S
C34 C33 1.351 . S
C34 N35 1.373 . S
C34 H62 0.930 . S
N35 C34 1.373 . S
N35 C37 1.340 . S
N36 C33 1.368 . S
N36 C37 1.321 . S
N36 Co39 2.135 . S
C37 N35 1.340 . S
C37 N36 1.321 . S
C37 H61 0.930 . S
H38 C33 0.931 . S
Co39 N36 2.135 . S
Co39 N42 2.121 . S
Co39 O47 2.055 . S
Co39 O50 2.039 . S
Co39 N53 2.140 . S
C40 O41 1.227 . S
C40 O50 1.265 . S
O41 C40 1.227 . S
N42 Co39 2.121 . S
N42 C44 1.375 . S
N42 C45 1.313 . S
C43 C44 1.338 . S
C43 N46 1.377 1_556 S
C43 H63 0.930 1_556 S
C44 N42 1.375 . S
C44 C43 1.338 . S
C44 H48 0.931 . S
C45 N42 1.313 . S
C45 N46 1.344 1_556 S
C45 H49 0.930 . S
N46 C43 1.377 1_554 S
N46 C45 1.344 1_554 S
O47 Co39 2.055 . S
O47 C51 1.253 . S
H48 C44 0.931 . S
H49 C45 0.930 . S
O50 Co39 2.039 . S
O50 C40 1.265 . S
C51 O47 1.253 . S
C51 O52 1.227 . S
O52 C51 1.227 . S
N53 Co39 2.140 . S
N53 C56 1.346 . S
N53 C57 1.345 . S
C54 C55 1.387 . S
C54 C58 1.391 . S
C55 C54 1.387 . S
C55 C56 1.369 . S
C55 H64 0.929 . S
C56 N53 1.346 . S
C56 C55 1.369 . S
C56 H59 0.928 . S
C57 N53 1.345 . S
C57 C58 1.371 . S
C57 H60 0.931 . S
C58 C54 1.391 . S
C58 C57 1.371 . S
C58 H65 0.930 . S
H59 C56 0.928 . S
H60 C57 0.931 . S
H61 C37 0.930 . S
H62 C34 0.930 . S
H63 C43 0.930 1_554 S
H64 C55 0.929 . S
H65 C58 0.930 . S
C66 C67 1.351 . S
C66 N69 1.368 . S
C66 H71 0.931 . S
C67 C66 1.351 . S
C67 N68 1.373 . S
C67 H95 0.930 . S
N68 C67 1.373 . S
N68 C70 1.340 . S
N69 C66 1.368 . S
N69 C70 1.321 . S
N69 Co72 2.135 . S
C70 N68 1.340 . S
C70 N69 1.321 . S
C70 H94 0.930 . S
H71 C66 0.931 . S
Co72 N69 2.135 . S
Co72 N75 2.121 . S
Co72 O80 2.055 . S
Co72 O83 2.039 . S
Co72 N86 2.140 . S
C73 O74 1.227 . S
C73 O83 1.265 . S
O74 C73 1.227 . S
N75 Co72 2.121 . S
N75 C77 1.375 . S
N75 C78 1.313 . S
C76 C77 1.338 . S
C76 N79 1.377 . S
C76 H96 0.930 . S
C77 N75 1.375 . S
C77 C76 1.338 . S
C77 H81 0.931 . S
C78 N75 1.313 . S
C78 N79 1.344 . S
C78 H82 0.930 . S
N79 C76 1.377 . S
N79 C78 1.344 . S
O80 Co72 2.055 . S
O80 C84 1.253 . S
H81 C77 0.931 . S
H82 C78 0.930 . S
O83 Co72 2.039 . S
O83 C73 1.265 . S
C84 O80 1.253 . S
C84 O85 1.227 . S
O85 C84 1.227 . S
N86 Co72 2.140 . S
N86 C89 1.346 . S
N86 C90 1.345 . S
C87 C88 1.387 . S
C87 C91 1.391 . S
C88 C87 1.387 . S
C88 C89 1.369 . S
C88 H97 0.929 . S
C89 N86 1.346 . S
C89 C88 1.369 . S
C89 H92 0.928 . S
C90 N86 1.345 . S
C90 C91 1.371 . S
C90 H93 0.931 . S
C91 C87 1.391 . S
C91 C90 1.371 . S
C91 H98 0.930 . S
H92 C89 0.928 . S
H93 C90 0.931 . S
H94 C70 0.930 . S
H95 C67 0.930 . S
H96 C76 0.930 . S
H97 C88 0.929 . S
H98 C91 0.930 . S
C99 C100 1.351 . S
C99 N102 1.368 . S
C99 H104 0.931 . S
C100 C99 1.351 . S
C100 N101 1.373 . S
C100 H128 0.930 . S
N101 C100 1.373 . S
N101 C103 1.340 . S
N102 C99 1.368 . S
N102 C103 1.321 . S
N102 Co105 2.135 . S
C103 N101 1.340 . S
C103 N102 1.321 . S
C103 H127 0.930 . S
H104 C99 0.931 . S
Co105 N102 2.135 . S
Co105 N108 2.121 . S
Co105 O113 2.055 . S
Co105 O116 2.039 . S
Co105 N119 2.140 . S
C106 O107 1.227 . S
C106 O116 1.265 . S
O107 C106 1.227 . S
N108 Co105 2.121 . S
N108 C110 1.375 . S
N108 C111 1.313 . S
C109 C110 1.338 . S
C109 N112 1.377 1_556 S
C109 H129 0.930 1_556 S
C110 N108 1.375 . S
C110 C109 1.338 . S
C110 H114 0.931 . S
C111 N108 1.313 . S
C111 N112 1.344 1_556 S
C111 H115 0.930 . S
N112 C109 1.377 1_554 S
N112 C111 1.344 1_554 S
O113 Co105 2.055 . S
O113 C117 1.253 . S
H114 C110 0.931 . S
H115 C111 0.930 . S
O116 Co105 2.039 . S
O116 C106 1.265 . S
C117 O113 1.253 . S
C117 O118 1.227 . S
O118 C117 1.227 . S
N119 Co105 2.140 . S
N119 C122 1.346 . S
N119 C123 1.345 . S
C120 C121 1.387 . S
C120 C124 1.391 . S
C121 C120 1.387 . S
C121 C122 1.369 . S
C121 H130 0.929 . S
C122 N119 1.346 . S
C122 C121 1.369 . S
C122 H125 0.928 . S
C123 N119 1.345 . S
C123 C124 1.371 . S
C123 H126 0.931 . S
C124 C120 1.391 . S
C124 C123 1.371 . S
C124 H131 0.930 . S
H125 C122 0.928 . S
H126 C123 0.931 . S
H127 C103 0.930 . S
H128 C100 0.930 . S
H129 C109 0.930 1_554 S
H130 C121 0.929 . S
H131 C124 0.930 . S
C132 C133 1.351 . S
C132 N135 1.368 . S
C132 H137 0.931 . S
C133 C132 1.351 . S
C133 N134 1.373 . S
C133 H161 0.930 . S
N134 C133 1.373 . S
N134 C136 1.340 . S
N135 C132 1.368 . S
N135 C136 1.321 . S
N135 Co138 2.135 . S
C136 N134 1.340 . S
C136 N135 1.321 . S
C136 H160 0.930 . S
H137 C132 0.931 . S
Co138 N135 2.135 . S
Co138 N141 2.121 . S
Co138 O146 2.055 . S
Co138 O149 2.039 . S
Co138 N152 2.140 . S
C139 O140 1.227 . S
C139 O149 1.265 . S
O140 C139 1.227 . S
N141 Co138 2.121 . S
N141 C143 1.375 . S
N141 C144 1.313 . S
C142 C143 1.338 . S
C142 N145 1.377 1_554 S
C142 H162 0.930 1_554 S
C143 N141 1.375 . S
C143 C142 1.338 . S
C143 H147 0.931 . S
C144 N141 1.313 . S
C144 N145 1.344 1_554 S
C144 H148 0.930 . S
N145 C142 1.377 1_556 S
N145 C144 1.344 1_556 S
O146 Co138 2.055 . S
O146 C150 1.253 . S
H147 C143 0.931 . S
H148 C144 0.930 . S
O149 Co138 2.039 . S
O149 C139 1.265 . S
C150 O146 1.253 . S
C150 O151 1.227 . S
O151 C150 1.227 . S
N152 Co138 2.140 . S
N152 C155 1.346 . S
N152 C156 1.345 . S
C153 C154 1.387 . S
C153 C157 1.391 . S
C154 C153 1.387 . S
C154 C155 1.369 . S
C154 H163 0.929 . S
C155 N152 1.346 . S
C155 C154 1.369 . S
C155 H158 0.928 . S
C156 N152 1.345 . S
C156 C157 1.371 . S
C156 H159 0.931 . S
C157 C153 1.391 . S
C157 C156 1.371 . S
C157 H164 0.930 . S
H158 C155 0.928 . S
H159 C156 0.931 . S
H160 C136 0.930 . S
H161 C133 0.930 . S
H162 C142 0.930 1_556 S
H163 C154 0.929 . S
H164 C157 0.930 . S
C165 C166 1.351 . S
C165 N168 1.368 . S
C165 H170 0.931 . S
C166 C165 1.351 . S
C166 N167 1.373 . S
C166 H194 0.930 . S
N167 C166 1.373 . S
N167 C169 1.340 . S
N168 C165 1.368 . S
N168 C169 1.321 . S
N168 Co171 2.135 . S
C169 N167 1.340 . S
C169 N168 1.321 . S
C169 H193 0.930 . S
H170 C165 0.931 . S
Co171 N168 2.135 . S
Co171 N174 2.121 . S
Co171 O179 2.055 . S
Co171 O182 2.039 . S
Co171 N185 2.140 . S
C172 O173 1.227 . S
C172 O182 1.265 . S
O173 C172 1.227 . S
N174 Co171 2.121 . S
N174 C176 1.375 . S
N174 C177 1.313 . S
C175 C176 1.338 . S
C175 N178 1.377 . S
C175 H195 0.930 . S
C176 N174 1.375 . S
C176 C175 1.338 . S
C176 H180 0.931 . S
C177 N174 1.313 . S
C177 N178 1.344 . S
C177 H181 0.930 . S
N178 C175 1.377 . S
N178 C177 1.344 . S
O179 Co171 2.055 . S
O179 C183 1.253 . S
H180 C176 0.931 . S
H181 C177 0.930 . S
O182 Co171 2.039 . S
O182 C172 1.265 . S
C183 O179 1.253 . S
C183 O184 1.227 . S
O184 C183 1.227 . S
N185 Co171 2.140 . S
N185 C188 1.346 . S
N185 C189 1.345 . S
C186 C187 1.387 . S
C186 C190 1.391 . S
C187 C186 1.387 . S
C187 C188 1.369 . S
C187 H196 0.929 . S
C188 N185 1.346 . S
C188 C187 1.369 . S
C188 H191 0.928 . S
C189 N185 1.345 . S
C189 C190 1.371 . S
C189 H192 0.931 . S
C190 C186 1.391 . S
C190 C189 1.371 . S
C190 H197 0.930 . S
H191 C188 0.928 . S
H192 C189 0.931 . S
H193 C169 0.930 . S
H194 C166 0.930 . S
H195 C175 0.930 . S
H196 C187 0.929 . S
H197 C190 0.930 . S
C198 C199 1.351 . S
C198 N201 1.368 . S
C198 H203 0.931 . S
C199 C198 1.351 . S
C199 N200 1.373 . S
C199 H227 0.930 . S
N200 C199 1.373 . S
N200 C202 1.340 . S
N201 C198 1.368 . S
N201 C202 1.321 . S
N201 Co204 2.135 . S
C202 N200 1.340 . S
C202 N201 1.321 . S
C202 H226 0.930 . S
H203 C198 0.931 . S
Co204 N201 2.135 . S
Co204 N207 2.121 . S
Co204 O212 2.055 . S
Co204 O215 2.039 . S
Co204 N218 2.140 . S
C205 O206 1.227 . S
C205 O215 1.265 . S
O206 C205 1.227 . S
N207 Co204 2.121 . S
N207 C209 1.375 . S
N207 C210 1.313 . S
C208 C209 1.338 . S
C208 N211 1.377 1_554 S
C208 H228 0.930 1_554 S
C209 N207 1.375 . S
C209 C208 1.338 . S
C209 H213 0.931 . S
C210 N207 1.313 . S
C210 N211 1.344 1_554 S
C210 H214 0.930 . S
N211 C208 1.377 1_556 S
N211 C210 1.344 1_556 S
O212 Co204 2.055 . S
O212 C216 1.253 . S
H213 C209 0.931 . S
H214 C210 0.930 . S
O215 Co204 2.039 . S
O215 C205 1.265 . S
C216 O212 1.253 . S
C216 O217 1.227 . S
O217 C216 1.227 . S
N218 Co204 2.140 . S
N218 C221 1.346 . S
N218 C222 1.345 . S
C219 C220 1.387 . S
C219 C223 1.391 . S
C220 C219 1.387 . S
C220 C221 1.369 . S
C220 H229 0.929 . S
C221 N218 1.346 . S
C221 C220 1.369 . S
C221 H224 0.928 . S
C222 N218 1.345 . S
C222 C223 1.371 . S
C222 H225 0.931 . S
C223 C219 1.391 . S
C223 C222 1.371 . S
C223 H230 0.930 . S
H224 C221 0.928 . S
H225 C222 0.931 . S
H226 C202 0.930 . S
H227 C199 0.930 . S
H228 C208 0.930 1_556 S
H229 C220 0.929 . S
H230 C223 0.930 . S
C231 C232 1.351 . S
C231 N234 1.368 . S
C231 H236 0.931 . S
C232 C231 1.351 . S
C232 N233 1.373 . S
C232 H260 0.930 . S
N233 C232 1.373 . S
N233 C235 1.340 . S
N234 C231 1.368 . S
N234 C235 1.321 . S
N234 Co237 2.135 . S
C235 N233 1.340 . S
C235 N234 1.321 . S
C235 H259 0.930 . S
H236 C231 0.931 . S
Co237 N234 2.135 . S
Co237 N240 2.121 . S
Co237 O245 2.055 . S
Co237 O248 2.039 . S
Co237 N251 2.140 . S
C238 O239 1.227 . S
C238 O248 1.265 . S
O239 C238 1.227 . S
N240 Co237 2.121 . S
N240 C242 1.375 . S
N240 C243 1.313 . S
C241 C242 1.338 . S
C241 N244 1.377 . S
C241 H261 0.930 . S
C242 N240 1.375 . S
C242 C241 1.338 . S
C242 H246 0.931 . S
C243 N240 1.313 . S
C243 N244 1.344 . S
C243 H247 0.930 . S
N244 C241 1.377 . S
N244 C243 1.344 . S
O245 Co237 2.055 . S
O245 C249 1.253 . S
H246 C242 0.931 . S
H247 C243 0.930 . S
O248 Co237 2.039 . S
O248 C238 1.265 . S
C249 O245 1.253 . S
C249 O250 1.227 . S
O250 C249 1.227 . S
N251 Co237 2.140 . S
N251 C254 1.346 . S
N251 C255 1.345 . S
C252 C253 1.387 . S
C252 C256 1.391 . S
C253 C252 1.387 . S
C253 C254 1.369 . S
C253 H262 0.929 . S
C254 N251 1.346 . S
C254 C253 1.369 . S
C254 H257 0.928 . S
C255 N251 1.345 . S
C255 C256 1.371 . S
C255 H258 0.931 . S
C256 C252 1.391 . S
C256 C255 1.371 . S
C256 H263 0.930 . S
H257 C254 0.928 . S
H258 C255 0.931 . S
H259 C235 0.930 . S
H260 C232 0.930 . S
H261 C241 0.930 . S
H262 C253 0.929 . S
H263 C256 0.930 . S
H264 C272 0.929 . S
H265 C274 0.930 . S
H266 C276 0.930 . S
H267 C279 0.929 . S
H268 C282 0.930 . S
H269 C284 0.960 . S
H270 C284 0.960 1_565 S
H271 C284 0.960 . S
C272 H264 0.929 . S
C272 C273 1.377 . S
C272 C274 1.384 . S
C273 C272 1.377 . S
C273 C279 1.390 . S
C274 H265 0.930 . S
C274 C272 1.384 . S
C274 C275 1.372 . S
C275 C274 1.372 . S
C275 C276 1.400 . S
C275 C280 1.490 . S
C276 H266 0.930 . S
C276 C275 1.400 . S
C276 C279 1.386 . S
H277 C293 0.930 . S
H278 C294 0.931 . S
C279 H267 0.929 . S
C279 C273 1.390 . S
C279 C276 1.386 . S
C280 C275 1.490 . S
C280 C282 1.395 . S
C280 C283 1.403 1_565 S
H281 C287 0.930 . S
C282 H268 0.930 . S
C282 C280 1.395 . S
C282 C285 1.403 . S
C283 C280 1.403 1_545 S
C283 C284 1.524 . S
C283 C287 1.400 . S
C284 H269 0.960 . S
C284 H270 0.960 1_545 S
C284 H271 0.960 . S
C284 C283 1.524 . S
C285 C282 1.403 . S
C285 C286 1.392 1_565 S
C285 C289 1.495 . S
C286 C285 1.392 1_545 S
C286 C287 1.385 . S
C286 C288 1.478 . S
C287 H281 0.930 . S
C287 C283 1.400 . S
C287 C286 1.385 . S
C288 C286 1.478 . S
C288 C290 1.381 . S
C288 C294 1.383 . S
C289 C285 1.495 . S
C289 H295 0.959 . S
C289 H296 0.986 . S
C289 H297 0.960 . S
C290 C288 1.381 . S
C290 C291 1.394 . S
C290 H298 0.930 . S
C291 C290 1.394 . S
C291 C292 1.383 . S
C291 H299 0.929 . S
C292 C291 1.383 . S
C292 C293 1.377 . S
C293 H277 0.930 . S
C293 C292 1.377 . S
C293 C294 1.379 . S
C294 H278 0.931 . S
C294 C288 1.383 . S
C294 C293 1.379 . S
H295 C289 0.959 . S
H296 C289 0.986 . S
H297 C289 0.960 . S
H298 C290 0.930 . S
H299 C291 0.929 . S
H300 C308 0.929 . S
H301 C310 0.930 . S
H302 C312 0.930 . S
H303 C315 0.929 . S
H304 C318 0.930 . S
H305 C320 0.960 . S
H306 C320 0.960 . S
H307 C320 0.960 . S
C308 H300 0.929 . S
C308 C309 1.377 . S
C308 C310 1.384 . S
C309 C308 1.377 . S
C309 C315 1.390 . S
C310 H301 0.930 . S
C310 C308 1.384 . S
C310 C311 1.372 . S
C311 C310 1.372 . S
C311 C312 1.400 . S
C311 C316 1.490 . S
C312 H302 0.930 . S
C312 C311 1.400 . S
C312 C315 1.386 . S
H313 C329 0.930 . S
H314 C330 0.931 . S
C315 H303 0.929 . S
C315 C309 1.390 . S
C315 C312 1.386 . S
C316 C311 1.490 . S
C316 C318 1.395 1_554 S
C316 C319 1.403 . S
H317 C323 0.930 . S
C318 H304 0.930 . S
C318 C316 1.395 1_556 S
C318 C321 1.403 . S
C319 C316 1.403 . S
C319 C320 1.524 . S
C319 C323 1.400 . S
C320 H305 0.960 . S
C320 H306 0.960 . S
C320 H307 0.960 . S
C320 C319 1.524 . S
C321 C318 1.403 . S
C321 C322 1.392 . S
C321 C325 1.495 . S
C322 C321 1.392 . S
C322 C323 1.385 1_556 S
C322 C324 1.478 . S
C323 H317 0.930 . S
C323 C319 1.400 . S
C323 C322 1.385 1_554 S
C324 C322 1.478 . S
C324 C326 1.381 . S
C324 C330 1.383 . S
C325 C321 1.495 . S
C325 H331 0.959 . S
C325 H332 0.961 . S
C325 H333 0.960 . S
C326 C324 1.381 . S
C326 C327 1.394 . S
C326 H334 0.930 . S
C327 C326 1.394 . S
C327 C328 1.383 . S
C327 H335 0.929 . S
C328 C327 1.383 . S
C328 C329 1.377 . S
C329 H313 0.930 . S
C329 C328 1.377 . S
C329 C330 1.379 . S
C330 H314 0.931 . S
C330 C324 1.383 . S
C330 C329 1.379 . S
H331 C325 0.959 . S
H332 C325 0.961 . S
H333 C325 0.960 . S
H334 C326 0.930 . S
H335 C327 0.929 . S
H336 C344 0.929 . S
H337 C346 0.930 . S
H338 C348 0.930 . S
H339 C351 0.929 . S
H340 C354 0.930 . S
H341 C356 0.960 . S
H342 C356 0.960 . S
H343 C356 0.960 . S
C344 H336 0.929 . S
C344 C345 1.377 . S
C344 C346 1.384 . S
C345 C344 1.377 . S
C345 C351 1.390 . S
C346 H337 0.930 . S
C346 C344 1.384 . S
C346 C347 1.372 . S
C347 C346 1.372 . S
C347 C348 1.400 . S
C347 C352 1.490 . S
C348 H338 0.930 . S
C348 C347 1.400 . S
C348 C351 1.386 . S
H349 C365 0.930 . S
H350 C366 0.931 . S
C351 H339 0.929 . S
C351 C345 1.390 . S
C351 C348 1.386 . S
C352 C347 1.490 . S
C352 C354 1.395 1_655 S
C352 C355 1.403 . S
H353 C359 0.930 . S
C354 H340 0.930 . S
C354 C352 1.395 1_455 S
C354 C357 1.403 . S
C355 C352 1.403 . S
C355 C356 1.524 . S
C355 C359 1.400 . S
C356 H341 0.960 . S
C356 H342 0.960 . S
C356 H343 0.960 . S
C356 C355 1.524 . S
C357 C354 1.403 . S
C357 C358 1.392 . S
C357 C361 1.495 . S
C358 C357 1.392 . S
C358 C359 1.385 1_455 S
C358 C360 1.478 . S
C359 H353 0.930 . S
C359 C355 1.400 . S
C359 C358 1.385 1_655 S
C360 C358 1.478 . S
C360 C362 1.381 . S
C360 C366 1.383 . S
C361 C357 1.495 . S
C361 H367 0.959 . S
C361 H368 0.961 . S
C361 H369 0.960 . S
C362 C360 1.381 . S
C362 C363 1.394 . S
C362 H370 0.930 . S
C363 C362 1.394 . S
C363 C364 1.383 . S
C363 H371 0.929 . S
C364 C363 1.383 . S
C364 C365 1.377 . S
C365 H349 0.930 . S
C365 C364 1.377 . S
C365 C366 1.379 . S
C366 H350 0.931 . S
C366 C360 1.383 . S
C366 C365 1.379 . S
H367 C361 0.959 . S
H368 C361 0.961 . S
H369 C361 0.960 . S
H370 C362 0.930 . S
H371 C363 0.929 . S
H372 C380 0.929 . S
H373 C382 0.930 . S
H374 C384 0.930 . S
H375 C387 0.929 . S
H376 C390 0.930 . S
H377 C392 0.960 . S
H378 C392 0.960 . S
H379 C392 0.960 . S
C380 H372 0.929 . S
C380 C381 1.377 . S
C380 C382 1.384 . S
C381 C380 1.377 . S
C381 C387 1.390 . S
C382 H373 0.930 . S
C382 C380 1.384 . S
C382 C383 1.372 . S
C383 C382 1.372 . S
C383 C384 1.400 . S
C383 C388 1.490 . S
C384 H374 0.930 . S
C384 C383 1.400 . S
C384 C387 1.386 . S
H385 C401 0.930 . S
H386 C402 0.931 . S
C387 H375 0.929 . S
C387 C381 1.390 . S
C387 C384 1.386 . S
C388 C383 1.490 . S
C388 C390 1.395 1_655 S
C388 C391 1.403 1_554 S
H389 C395 0.932 . S
C390 H376 0.930 . S
C390 C388 1.395 1_455 S
C390 C393 1.403 1_545 S
C391 C388 1.403 1_556 S
C391 C392 1.524 . S
C391 C395 1.410 1_545 S
C392 H377 0.960 . S
C392 H378 0.960 . S
C392 H379 0.960 . S
C392 C391 1.524 . S
C393 C390 1.403 1_565 S
C393 C394 1.392 1_554 S
C393 C397 1.495 . S
C394 C393 1.392 1_556 S
C394 C395 1.374 1_455 S
C394 C396 1.478 . S
C395 H389 0.932 . S
C395 C391 1.410 1_565 S
C395 C394 1.374 1_655 S
C396 C394 1.478 . S
C396 C398 1.381 . S
C396 C402 1.383 . S
C397 C393 1.495 . S
C397 H403 0.959 . S
C397 H404 0.961 . S
C397 H405 0.960 . S
C398 C396 1.381 . S
C398 C399 1.394 . S
C398 H406 0.930 . S
C399 C398 1.394 . S
C399 C400 1.383 . S
C399 H407 0.929 . S
C400 C399 1.383 . S
C400 C401 1.377 . S
C401 H385 0.930 . S
C401 C400 1.377 . S
C401 C402 1.379 . S
C402 H386 0.931 . S
C402 C396 1.383 . S
C402 C401 1.379 . S
H403 C397 0.959 . S
H404 C397 0.961 . S
H405 C397 0.960 . S
H406 C398 0.930 . S
H407 C399 0.929 . S
H408 C416 0.929 . S
H409 C418 0.930 . S
H410 C420 0.930 . S
H411 C423 0.929 . S
H412 C426 0.930 . S
H413 C428 0.960 . S
H414 C428 0.960 . S
H415 C428 0.960 . S
C416 H408 0.929 . S
C416 C417 1.377 . S
C416 C418 1.384 . S
C417 C416 1.377 . S
C417 C423 1.390 . S
C418 H409 0.930 . S
C418 C416 1.384 . S
C418 C419 1.372 . S
C419 C418 1.372 . S
C419 C420 1.400 . S
C419 C424 1.490 . S
C420 H410 0.930 . S
C420 C419 1.400 . S
C420 C423 1.386 . S
H421 C437 0.930 . S
H422 C438 0.931 . S
C423 H411 0.929 . S
C423 C417 1.390 . S
C423 C420 1.386 . S
C424 C419 1.490 . S
C424 C426 1.395 . S
C424 C427 1.403 . S
H425 C431 0.930 . S
C426 H412 0.930 . S
C426 C424 1.395 . S
C426 C429 1.403 . S
C427 C424 1.403 . S
C427 C428 1.524 . S
C427 C431 1.400 . S
C428 H413 0.960 . S
C428 H414 0.960 . S
C428 H415 0.960 . S
C428 C427 1.524 . S
C429 C426 1.403 . S
C429 C430 1.392 . S
C429 C433 1.495 . S
C430 C429 1.392 . S
C430 C431 1.385 . S
C430 C432 1.478 . S
C431 H425 0.930 . S
C431 C427 1.400 . S
C431 C430 1.385 . S
C432 C430 1.478 . S
C432 C434 1.381 . S
C432 C438 1.383 . S
C433 C429 1.495 . S
C433 H439 0.959 . S
C433 H440 0.961 . S
C433 H441 0.960 . S
C434 C432 1.381 . S
C434 C435 1.394 . S
C434 H442 0.930 . S
C435 C434 1.394 . S
C435 C436 1.383 . S
C435 H443 0.929 . S
C436 C435 1.383 . S
C436 C437 1.377 . S
C437 H421 0.930 . S
C437 C436 1.377 . S
C437 C438 1.379 . S
C438 H422 0.931 . S
C438 C432 1.383 . S
C438 C437 1.379 . S
H439 C433 0.959 . S
H440 C433 0.961 . S
H441 C433 0.960 . S
H442 C434 0.930 . S
H443 C435 0.929 . S
H444 C452 0.929 . S
H445 C454 0.930 . S
H446 C456 0.930 . S
H447 C459 0.929 . S
H448 C462 0.930 . S
H449 C464 0.960 . S
H450 C464 0.960 . S
H451 C464 0.960 . S
C452 H444 0.929 . S
C452 C453 1.377 . S
C452 C454 1.384 . S
C453 C452 1.377 . S
C453 C459 1.390 . S
C454 H445 0.930 . S
C454 C452 1.384 . S
C454 C455 1.372 . S
C455 C454 1.372 . S
C455 C456 1.400 . S
C455 C460 1.490 . S
C456 H446 0.930 . S
C456 C455 1.400 . S
C456 C459 1.386 . S
H457 C473 0.930 . S
H458 C474 0.931 . S
C459 H447 0.929 . S
C459 C453 1.390 . S
C459 C456 1.386 . S
C460 C455 1.490 . S
C460 C462 1.395 . S
C460 C463 1.403 . S
H461 C467 0.930 . S
C462 H448 0.930 . S
C462 C460 1.395 . S
C462 C465 1.403 . S
C463 C460 1.403 . S
C463 C464 1.524 . S
C463 C467 1.400 . S
C464 H449 0.960 . S
C464 H450 0.960 . S
C464 H451 0.960 . S
C464 C463 1.524 . S
C465 C462 1.403 . S
C465 C466 1.392 . S
C465 C469 1.495 . S
C466 C465 1.392 . S
C466 C467 1.385 . S
C466 C468 1.478 . S
C467 H461 0.930 . S
C467 C463 1.400 . S
C467 C466 1.385 . S
C468 C466 1.478 . S
C468 C470 1.381 . S
C468 C474 1.383 . S
C469 C465 1.495 . S
C469 H475 0.959 . S
C469 H476 0.961 . S
C469 H477 0.960 . S
C470 C468 1.381 . S
C470 C471 1.394 . S
C470 H478 0.930 . S
C471 C470 1.394 . S
C471 C472 1.383 . S
C471 H479 0.929 . S
C472 C471 1.383 . S
C472 C473 1.377 . S
C473 H457 0.930 . S
C473 C472 1.377 . S
C473 C474 1.379 . S
C474 H458 0.931 . S
C474 C468 1.383 . S
C474 C473 1.379 . S
H475 C469 0.959 . S
H476 C469 0.961 . S
H477 C469 0.960 . S
H478 C470 0.930 . S
H479 C471 0.929 . S
H480 C488 0.929 . S
H481 C490 0.930 . S
H482 C492 0.930 . S
H483 C495 0.929 . S
H484 C498 0.930 . S
H485 C500 0.960 . S
H486 C500 0.960 . S
H487 C500 0.960 . S
C488 H480 0.929 . S
C488 C489 1.377 . S
C488 C490 1.384 . S
C489 C488 1.377 . S
C489 C495 1.390 . S
C490 H481 0.930 . S
C490 C488 1.384 . S
C490 C491 1.372 . S
C491 C490 1.372 . S
C491 C492 1.400 . S
C491 C496 1.490 . S
C492 H482 0.930 . S
C492 C491 1.400 . S
C492 C495 1.386 . S
H493 C509 0.930 . S
H494 C510 0.931 . S
C495 H483 0.929 . S
C495 C489 1.390 . S
C495 C492 1.386 . S
C496 C491 1.490 . S
C496 C498 1.395 . S
C496 C499 1.403 . S
H497 C503 0.930 . S
C498 H484 0.930 . S
C498 C496 1.395 . S
C498 C501 1.403 . S
C499 C496 1.403 . S
C499 C500 1.524 . S
C499 C503 1.400 . S
C500 H485 0.960 . S
C500 H486 0.960 . S
C500 H487 0.960 . S
C500 C499 1.524 . S
C501 C498 1.403 . S
C501 C502 1.392 . S
C501 C505 1.495 . S
C502 C501 1.392 . S
C502 C503 1.385 . S
C502 C504 1.478 . S
C503 H497 0.930 . S
C503 C499 1.400 . S
C503 C502 1.385 . S
C504 C502 1.478 . S
C504 C506 1.381 . S
C504 C510 1.383 . S
C505 C501 1.495 . S
C505 H511 0.959 . S
C505 H512 0.961 . S
C505 H513 0.960 . S
C506 C504 1.381 . S
C506 C507 1.394 . S
C506 H514 0.930 . S
C507 C506 1.394 . S
C507 C508 1.383 . S
C507 H515 0.929 . S
C508 C507 1.383 . S
C508 C509 1.377 . S
C509 H493 0.930 . S
C509 C508 1.377 . S
C509 C510 1.379 . S
C510 H494 0.931 . S
C510 C504 1.383 . S
C510 C509 1.379 . S
H511 C505 0.959 . S
H512 C505 0.961 . S
H513 C505 0.960 . S
H514 C506 0.930 . S
H515 C507 0.929 . S
H516 C524 0.929 . S
H517 C526 0.930 . S
H518 C528 0.930 . S
H519 C531 0.929 . S
H520 C534 0.930 . S
H521 C536 0.960 . S
H522 C536 0.960 . S
H523 C536 0.960 . S
C524 H516 0.929 . S
C524 C525 1.377 . S
C524 C526 1.384 . S
C525 C524 1.377 . S
C525 C531 1.390 . S
C526 H517 0.930 . S
C526 C524 1.384 . S
C526 C527 1.372 . S
C527 C526 1.372 . S
C527 C528 1.400 . S
C527 C532 1.490 . S
C528 H518 0.930 . S
C528 C527 1.400 . S
C528 C531 1.386 . S
H529 C545 0.930 . S
H530 C546 0.931 . S
C531 H519 0.929 . S
C531 C525 1.390 . S
C531 C528 1.386 . S
C532 C527 1.490 . S
C532 C534 1.395 . S
C532 C535 1.403 . S
H533 C539 0.930 . S
C534 H520 0.930 . S
C534 C532 1.395 . S
C534 C537 1.403 . S
C535 C532 1.403 . S
C535 C536 1.524 . S
C535 C539 1.400 . S
C536 H521 0.960 . S
C536 H522 0.960 . S
C536 H523 0.960 . S
C536 C535 1.524 . S
C537 C534 1.403 . S
C537 C538 1.392 . S
C537 C541 1.495 . S
C538 C537 1.392 . S
C538 C539 1.385 . S
C538 C540 1.478 . S
C539 H533 0.930 . S
C539 C535 1.400 . S
C539 C538 1.385 . S
C540 C538 1.478 . S
C540 C542 1.381 . S
C540 C546 1.383 . S
C541 C537 1.495 . S
C541 H547 0.959 . S
C541 H548 0.961 . S
C541 H549 0.960 . S
C542 C540 1.381 . S
C542 C543 1.394 . S
C542 H550 0.930 . S
C543 C542 1.394 . S
C543 C544 1.383 . S
C543 H551 0.929 . S
C544 C543 1.383 . S
C544 C545 1.377 . S
C545 H529 0.930 . S
C545 C544 1.377 . S
C545 C546 1.379 . S
C546 H530 0.931 . S
C546 C540 1.383 . S
C546 C545 1.379 . S
H547 C541 0.959 . S
H548 C541 0.961 . S
H549 C541 0.960 . S
H550 C542 0.930 . S
H551 C543 0.929 . S
H552 C560 0.929 . S
H553 C562 0.930 . S
H554 C564 0.930 . S
H555 C567 0.929 . S
H556 C570 0.930 . S
H557 C572 0.960 . S
H558 C572 0.960 . S
H559 C572 0.960 . S
C560 H552 0.929 . S
C560 C561 1.377 . S
C560 C562 1.384 . S
C561 C560 1.377 . S
C561 C567 1.390 . S
C562 H553 0.930 . S
C562 C560 1.384 . S
C562 C563 1.372 . S
C563 C562 1.372 . S
C563 C564 1.400 . S
C563 C568 1.490 . S
C564 H554 0.930 . S
C564 C563 1.400 . S
C564 C567 1.386 . S
H565 C581 0.930 . S
H566 C582 0.931 . S
C567 H555 0.929 . S
C567 C561 1.390 . S
C567 C564 1.386 . S
C568 C563 1.490 . S
C568 C570 1.395 . S
C568 C571 1.403 . S
H569 C575 0.930 . S
C570 H556 0.930 . S
C570 C568 1.395 . S
C570 C573 1.403 . S
C571 C568 1.403 . S
C571 C572 1.524 . S
C571 C575 1.400 . S
C572 H557 0.960 . S
C572 H558 0.960 . S
C572 H559 0.960 . S
C572 C571 1.524 . S
C573 C570 1.403 . S
C573 C574 1.392 . S
C573 C577 1.495 . S
C574 C573 1.392 . S
C574 C575 1.385 . S
C574 C576 1.478 . S
C575 H569 0.930 . S
C575 C571 1.400 . S
C575 C574 1.385 . S
C576 C574 1.478 . S
C576 C578 1.381 . S
C576 C582 1.383 . S
C577 C573 1.495 . S
C577 H583 0.959 . S
C577 H584 0.961 . S
C577 H585 0.960 . S
C578 C576 1.381 . S
C578 C579 1.394 . S
C578 H586 0.930 . S
C579 C578 1.394 . S
C579 C580 1.383 . S
C579 H587 0.929 . S
C580 C579 1.383 . S
C580 C581 1.377 . S
C581 H565 0.930 . S
C581 C580 1.377 . S
C581 C582 1.379 . S
C582 H566 0.931 . S
C582 C576 1.383 . S
C582 C581 1.379 . S
H583 C577 0.959 . S
H584 C577 0.961 . S
H585 C577 0.960 . S
H586 C578 0.930 . S
H587 C579 0.929 . S
H588 C596 0.929 . S
H589 C598 0.930 . S
H590 C600 0.930 . S
H591 C603 0.929 . S
H592 C606 0.930 . S
H593 C608 0.960 . S
H594 C608 0.960 . S
H595 C608 0.960 . S
C596 H588 0.929 . S
C596 C597 1.377 . S
C596 C598 1.384 . S
C597 C596 1.377 . S
C597 C603 1.390 . S
C598 H589 0.930 . S
C598 C596 1.384 . S
C598 C599 1.372 . S
C599 C598 1.372 . S
C599 C600 1.400 . S
C599 C604 1.490 . S
C600 H590 0.930 . S
C600 C599 1.400 . S
C600 C603 1.386 . S
H601 C617 0.930 . S
H602 C618 0.931 . S
C603 H591 0.929 . S
C603 C597 1.390 . S
C603 C600 1.386 . S
C604 C599 1.490 . S
C604 C606 1.395 . S
C604 C607 1.403 . S
H605 C611 0.930 . S
C606 H592 0.930 . S
C606 C604 1.395 . S
C606 C609 1.403 . S
C607 C604 1.403 . S
C607 C608 1.524 . S
C607 C611 1.400 . S
C608 H593 0.960 . S
C608 H594 0.960 . S
C608 H595 0.960 . S
C608 C607 1.524 . S
C609 C606 1.403 . S
C609 C610 1.392 . S
C609 C613 1.495 . S
C610 C609 1.392 . S
C610 C611 1.385 . S
C610 C612 1.478 . S
C611 H605 0.930 . S
C611 C607 1.400 . S
C611 C610 1.385 . S
C612 C610 1.478 . S
C612 C614 1.381 . S
C612 C618 1.383 . S
C613 C609 1.495 . S
C613 H619 0.959 . S
C613 H620 0.961 . S
C613 H621 0.960 . S
C614 C612 1.381 . S
C614 C615 1.394 . S
C614 H622 0.930 . S
C615 C614 1.394 . S
C615 C616 1.383 . S
C615 H623 0.929 . S
C616 C615 1.383 . S
C616 C617 1.377 . S
C617 H601 0.930 . S
C617 C616 1.377 . S
C617 C618 1.379 . S
C618 H602 0.931 . S
C618 C612 1.383 . S
C618 C617 1.379 . S
H619 C613 0.959 . S
H620 C613 0.961 . S
H621 C613 0.960 . S
H622 C614 0.930 . S
H623 C615 0.929 . S
H624 C632 0.929 . S
H625 C634 0.930 . S
H626 C636 0.930 . S
H627 C639 0.929 . S
H628 C642 0.930 . S
H629 C644 0.960 . S
H630 C644 0.960 . S
H631 C644 0.960 . S
C632 H624 0.929 . S
C632 C633 1.377 . S
C632 C634 1.384 . S
C633 C632 1.377 . S
C633 C639 1.390 . S
C634 H625 0.930 . S
C634 C632 1.384 . S
C634 C635 1.372 . S
C635 C634 1.372 . S
C635 C636 1.400 . S
C635 C640 1.490 . S
C636 H626 0.930 . S
C636 C635 1.400 . S
C636 C639 1.386 . S
H637 C653 0.930 . S
H638 C654 0.931 . S
C639 H627 0.929 . S
C639 C633 1.390 . S
C639 C636 1.386 . S
C640 C635 1.490 . S
C640 C642 1.395 . S
C640 C643 1.403 . S
H641 C647 0.930 . S
C642 H628 0.930 . S
C642 C640 1.395 . S
C642 C645 1.403 . S
C643 C640 1.403 . S
C643 C644 1.524 . S
C643 C647 1.400 . S
C644 H629 0.960 . S
C644 H630 0.960 . S
C644 H631 0.960 . S
C644 C643 1.524 . S
C645 C642 1.403 . S
C645 C646 1.392 . S
C645 C649 1.495 . S
C646 C645 1.392 . S
C646 C647 1.385 . S
C646 C648 1.478 . S
C647 H641 0.930 . S
C647 C643 1.400 . S
C647 C646 1.385 . S
C648 C646 1.478 . S
C648 C650 1.381 . S
C648 C654 1.383 . S
C649 C645 1.495 . S
C649 H655 0.959 . S
C649 H656 0.961 . S
C649 H657 0.960 . S
C650 C648 1.381 . S
C650 C651 1.394 . S
C650 H658 0.930 . S
C651 C650 1.394 . S
C651 C652 1.383 . S
C651 H659 0.929 . S
C652 C651 1.383 . S
C652 C653 1.377 . S
C653 H637 0.930 . S
C653 C652 1.377 . S
C653 C654 1.379 . S
C654 H638 0.931 . S
C654 C648 1.383 . S
C654 C653 1.379 . S
H655 C649 0.959 . S
H656 C649 0.961 . S
H657 C649 0.960 . S
H658 C650 0.930 . S
H659 C651 0.929 . S
H660 C668 0.929 . S
H661 C670 0.930 . S
H662 C672 0.930 . S
H663 C675 0.929 . S
H664 C678 0.930 . S
H665 C680 0.960 . S
H666 C680 0.960 . S
H667 C680 0.960 . S
C668 H660 0.929 . S
C668 C669 1.377 . S
C668 C670 1.384 . S
C669 C668 1.377 . S
C669 C675 1.390 . S
C670 H661 0.930 . S
C670 C668 1.384 . S
C670 C671 1.372 . S
C671 C670 1.372 . S
C671 C672 1.400 . S
C671 C676 1.490 . S
C672 H662 0.930 . S
C672 C671 1.400 . S
C672 C675 1.386 . S
H673 C689 0.930 . S
H674 C690 0.931 . S
C675 H663 0.929 . S
C675 C669 1.390 . S
C675 C672 1.386 . S
C676 C671 1.490 . S
C676 C678 1.395 . S
C676 C679 1.403 . S
H677 C683 0.930 . S
C678 H664 0.930 . S
C678 C676 1.395 . S
C678 C681 1.403 . S
C679 C676 1.403 . S
C679 C680 1.524 . S
C679 C683 1.400 . S
C680 H665 0.960 . S
C680 H666 0.960 . S
C680 H667 0.960 . S
C680 C679 1.524 . S
C681 C678 1.403 . S
C681 C682 1.392 . S
C681 C685 1.495 . S
C682 C681 1.392 . S
C682 C683 1.385 . S
C682 C684 1.478 . S
C683 H677 0.930 . S
C683 C679 1.400 . S
C683 C682 1.385 . S
C684 C682 1.478 . S
C684 C686 1.381 . S
C684 C690 1.383 . S
C685 C681 1.495 . S
C685 H691 0.959 . S
C685 H692 0.961 . S
C685 H693 0.960 . S
C686 C684 1.381 . S
C686 C687 1.394 . S
C686 H694 0.930 . S
C687 C686 1.394 . S
C687 C688 1.383 . S
C687 H695 0.929 . S
C688 C687 1.383 . S
C688 C689 1.377 . S
C689 H673 0.930 . S
C689 C688 1.377 . S
C689 C690 1.379 . S
C690 H674 0.931 . S
C690 C684 1.383 . S
C690 C689 1.379 . S
H691 C685 0.959 . S
H692 C685 0.961 . S
H693 C685 0.960 . S
H694 C686 0.930 . S
H695 C687 0.929 . S
H696 C704 0.929 . S
H697 C706 0.930 . S
H698 C708 0.930 . S
H699 C711 0.929 . S
H700 C714 0.930 . S
H701 C716 0.960 . S
H702 C716 0.960 . S
H703 C716 0.960 . S
C704 H696 0.929 . S
C704 C705 1.377 . S
C704 C706 1.384 . S
C705 C704 1.377 . S
C705 C711 1.390 . S
C706 H697 0.930 . S
C706 C704 1.384 . S
C706 C707 1.372 . S
C707 C706 1.372 . S
C707 C708 1.400 . S
C707 C712 1.490 . S
C708 H698 0.930 . S
C708 C707 1.400 . S
C708 C711 1.386 . S
H709 C725 0.930 . S
H710 C726 0.931 . S
C711 H699 0.929 . S
C711 C705 1.390 . S
C711 C708 1.386 . S
C712 C707 1.490 . S
C712 C714 1.395 . S
C712 C715 1.403 . S
H713 C719 0.930 . S
C714 H700 0.930 . S
C714 C712 1.395 . S
C714 C717 1.403 . S
C715 C712 1.403 . S
C715 C716 1.524 . S
C715 C719 1.400 . S
C716 H701 0.960 . S
C716 H702 0.960 . S
C716 H703 0.960 . S
C716 C715 1.524 . S
C717 C714 1.403 . S
C717 C718 1.392 . S
C717 C721 1.495 . S
C718 C717 1.392 . S
C718 C719 1.385 . S
C718 C720 1.478 . S
C719 H713 0.930 . S
C719 C715 1.400 . S
C719 C718 1.385 . S
C720 C718 1.478 . S
C720 C722 1.381 . S
C720 C726 1.383 . S
C721 C717 1.495 . S
C721 H727 0.959 . S
C721 H728 0.961 . S
C721 H729 0.960 . S
C722 C720 1.381 . S
C722 C723 1.394 1_556 S
C722 H730 0.930 . S
C723 C722 1.394 1_554 S
C723 C724 1.383 . S
C723 H731 0.929 . S
C724 C723 1.383 . S
C724 C725 1.377 . S
C725 H709 0.930 . S
C725 C724 1.377 . S
C725 C726 1.379 1_554 S
C726 H710 0.931 . S
C726 C720 1.383 . S
C726 C725 1.379 1_556 S
H727 C721 0.959 . S
H728 C721 0.961 . S
H729 C721 0.960 . S
H730 C722 0.930 . S
H731 C723 0.929 . S
H732 C740 0.929 . S
H733 C742 0.930 . S
H734 C744 0.930 . S
H735 C747 0.929 . S
H736 C750 0.930 . S
H737 C752 0.960 . S
H738 C752 0.960 . S
H739 C752 0.960 . S
C740 H732 0.929 . S
C740 C741 1.377 . S
C740 C742 1.384 . S
C741 C740 1.377 . S
C741 C747 1.390 . S
C742 H733 0.930 . S
C742 C740 1.384 . S
C742 C743 1.372 . S
C743 C742 1.372 . S
C743 C744 1.400 . S
C743 C748 1.490 . S
C744 H734 0.930 . S
C744 C743 1.400 . S
C744 C747 1.386 . S
H745 C761 0.930 . S
H746 C762 0.931 . S
C747 H735 0.929 . S
C747 C741 1.390 . S
C747 C744 1.386 . S
C748 C743 1.490 . S
C748 C750 1.395 . S
C748 C751 1.403 . S
H749 C755 0.930 . S
C750 H736 0.930 . S
C750 C748 1.395 . S
C750 C753 1.403 . S
C751 C748 1.403 . S
C751 C752 1.524 . S
C751 C755 1.400 . S
C752 H737 0.960 . S
C752 H738 0.960 . S
C752 H739 0.960 . S
C752 C751 1.524 . S
C753 C750 1.403 . S
C753 C754 1.392 . S
C753 C757 1.495 . S
C754 C753 1.392 . S
C754 C755 1.385 . S
C754 C756 1.478 . S
C755 H749 0.930 . S
C755 C751 1.400 . S
C755 C754 1.385 . S
C756 C754 1.478 . S
C756 C758 1.381 . S
C756 C762 1.383 . S
C757 C753 1.495 . S
C757 H763 0.959 . S
C757 H764 0.961 . S
C757 H765 0.960 . S
C758 C756 1.381 . S
C758 C759 1.394 . S
C758 H766 0.930 . S
C759 C758 1.394 . S
C759 C760 1.383 . S
C759 H767 0.929 . S
C760 C759 1.383 . S
C760 C761 1.377 . S
C761 H745 0.930 . S
C761 C760 1.377 . S
C761 C762 1.379 . S
C762 H746 0.931 . S
C762 C756 1.383 . S
C762 C761 1.379 . S
H763 C757 0.959 . S
H764 C757 0.961 . S
H765 C757 0.960 . S
H766 C758 0.930 . S
H767 C759 0.929 . S
H768 C776 0.929 . S
H769 C778 0.930 . S
H770 C780 0.930 . S
H771 C783 0.929 . S
H772 C786 0.930 . S
H773 C788 0.960 . S
H774 C788 0.960 . S
H775 C788 0.960 . S
C776 H768 0.929 . S
C776 C777 1.377 . S
C776 C778 1.384 1_554 S
C777 C776 1.377 . S
C777 C783 1.390 . S
C778 H769 0.930 . S
C778 C776 1.384 1_556 S
C778 C779 1.372 . S
C779 C778 1.372 . S
C779 C780 1.400 . S
C779 C784 1.490 . S
C780 H770 0.930 . S
C780 C779 1.400 . S
C780 C783 1.386 1_556 S
H781 C797 0.930 . S
H782 C798 0.931 . S
C783 H771 0.929 . S
C783 C777 1.390 . S
C783 C780 1.386 1_554 S
C784 C779 1.490 . S
C784 C786 1.395 . S
C784 C787 1.403 . S
H785 C791 0.930 . S
C786 H772 0.930 . S
C786 C784 1.395 . S
C786 C789 1.403 . S
C787 C784 1.403 . S
C787 C788 1.524 . S
C787 C791 1.400 . S
C788 H773 0.960 . S
C788 H774 0.960 . S
C788 H775 0.960 . S
C788 C787 1.524 . S
C789 C786 1.403 . S
C789 C790 1.392 . S
C789 C793 1.495 . S
C790 C789 1.392 . S
C790 C791 1.385 . S
C790 C792 1.478 . S
C791 H785 0.930 . S
C791 C787 1.400 . S
C791 C790 1.385 . S
C792 C790 1.478 . S
C792 C794 1.381 . S
C792 C798 1.383 . S
C793 C789 1.495 . S
C793 H799 0.959 . S
C793 H800 0.961 . S
C793 H801 0.960 . S
C794 C792 1.381 . S
C794 C795 1.394 . S
C794 H802 0.930 . S
C795 C794 1.394 . S
C795 C796 1.383 . S
C795 H803 0.929 . S
C796 C795 1.383 . S
C796 C797 1.377 . S
C797 H781 0.930 . S
C797 C796 1.377 . S
C797 C798 1.379 . S
C798 H782 0.931 . S
C798 C792 1.383 . S
C798 C797 1.379 . S
H799 C793 0.959 . S
H800 C793 0.961 . S
H801 C793 0.960 . S
H802 C794 0.930 . S
H803 C795 0.929 . S
H804 C812 0.929 . S
H805 C814 0.930 . S
H806 C816 0.930 . S
H807 C819 0.929 . S
H808 C822 0.930 . S
H809 C824 0.960 . S
H810 C824 0.960 . S
H811 C824 0.960 . S
C812 H804 0.929 . S
C812 C813 1.377 . S
C812 C814 1.384 . S
C813 C812 1.377 . S
C813 C819 1.390 . S
C814 H805 0.930 . S
C814 C812 1.384 . S
C814 C815 1.372 . S
C815 C814 1.372 . S
C815 C816 1.400 . S
C815 C820 1.490 . S
C816 H806 0.930 . S
C816 C815 1.400 . S
C816 C819 1.386 . S
H817 C833 0.930 . S
H818 C834 0.931 . S
C819 H807 0.929 . S
C819 C813 1.390 . S
C819 C816 1.386 . S
C820 C815 1.490 . S
C820 C822 1.395 . S
C820 C823 1.403 . S
H821 C827 0.930 . S
C822 H808 0.930 . S
C822 C820 1.395 . S
C822 C825 1.403 . S
C823 C820 1.403 . S
C823 C824 1.524 . S
C823 C827 1.400 . S
C824 H809 0.960 . S
C824 H810 0.960 . S
C824 H811 0.960 . S
C824 C823 1.524 . S
C825 C822 1.403 . S
C825 C826 1.392 . S
C825 C829 1.495 . S
C826 C825 1.392 . S
C826 C827 1.385 . S
C826 C828 1.478 . S
C827 H821 0.930 . S
C827 C823 1.400 . S
C827 C826 1.385 . S
C828 C826 1.478 . S
C828 C830 1.381 . S
C828 C834 1.383 . S
C829 C825 1.495 . S
C829 H835 0.959 . S
C829 H836 0.961 . S
C829 H837 0.960 . S
C830 C828 1.381 . S
C830 C831 1.394 . S
C830 H838 0.930 . S
C831 C830 1.394 . S
C831 C832 1.383 . S
C831 H839 0.929 . S
C832 C831 1.383 . S
C832 C833 1.377 . S
C833 H817 0.930 . S
C833 C832 1.377 . S
C833 C834 1.379 . S
C834 H818 0.931 . S
C834 C828 1.383 . S
C834 C833 1.379 . S
H835 C829 0.959 . S
H836 C829 0.961 . S
H837 C829 0.960 . S
H838 C830 0.930 . S
H839 C831 0.929 . S
H840 C848 0.929 . S
H841 C850 0.930 . S
H842 C852 0.930 . S
H843 C855 0.929 . S
H844 C858 0.930 . S
H845 C860 0.960 . S
H846 C860 0.960 . S
H847 C860 0.960 . S
C848 H840 0.929 . S
C848 C849 1.377 . S
C848 C850 1.384 . S
C849 C848 1.377 . S
C849 C855 1.390 . S
C850 H841 0.930 . S
C850 C848 1.384 . S
C850 C851 1.372 . S
C851 C850 1.372 . S
C851 C852 1.400 . S
C851 C856 1.490 . S
C852 H842 0.930 . S
C852 C851 1.400 . S
C852 C855 1.386 . S
H853 C869 0.930 . S
H854 C870 0.931 . S
C855 H843 0.929 . S
C855 C849 1.390 . S
C855 C852 1.386 . S
C856 C851 1.490 . S
C856 C858 1.395 . S
C856 C859 1.403 . S
H857 C863 0.930 . S
C858 H844 0.930 . S
C858 C856 1.395 . S
C858 C861 1.403 . S
C859 C856 1.403 . S
C859 C860 1.524 . S
C859 C863 1.400 . S
C860 H845 0.960 . S
C860 H846 0.960 . S
C860 H847 0.960 . S
C860 C859 1.524 . S
C861 C858 1.403 . S
C861 C862 1.392 . S
C861 C865 1.495 . S
C862 C861 1.392 . S
C862 C863 1.385 . S
C862 C864 1.478 . S
C863 H857 0.930 . S
C863 C859 1.400 . S
C863 C862 1.385 . S
C864 C862 1.478 . S
C864 C866 1.381 . S
C864 C870 1.383 . S
C865 C861 1.495 . S
C865 H871 0.959 . S
C865 H872 0.961 . S
C865 H873 0.960 . S
C866 C864 1.381 . S
C866 C867 1.394 . S
C866 H874 0.930 . S
C867 C866 1.394 . S
C867 C868 1.383 . S
C867 H875 0.929 . S
C868 C867 1.383 . S
C868 C869 1.377 . S
C869 H853 0.930 . S
C869 C868 1.377 . S
C869 C870 1.379 . S
C870 H854 0.931 . S
C870 C864 1.383 . S
C870 C869 1.379 . S
H871 C865 0.959 . S
H872 C865 0.961 . S
H873 C865 0.960 . S
H874 C866 0.930 . S
H875 C867 0.929 . S
H876 C884 0.929 . S
H877 C886 0.930 . S
H878 C888 0.930 . S
H879 C891 0.929 . S
H880 C894 0.930 . S
H881 C896 0.960 . S
H882 C896 0.960 . S
H883 C896 0.960 . S
C884 H876 0.929 . S
C884 C885 1.377 . S
C884 C886 1.384 1_556 S
C885 C884 1.377 . S
C885 C891 1.390 . S
C886 H877 0.930 . S
C886 C884 1.384 1_554 S
C886 C887 1.372 . S
C887 C886 1.372 . S
C887 C888 1.400 . S
C887 C892 1.490 . S
C888 H878 0.930 . S
C888 C887 1.400 . S
C888 C891 1.386 1_554 S
H889 C905 0.930 . S
H890 C906 0.931 . S
C891 H879 0.929 . S
C891 C885 1.390 . S
C891 C888 1.386 1_556 S
C892 C887 1.490 . S
C892 C894 1.395 . S
C892 C895 1.403 . S
H893 C899 0.930 . S
C894 H880 0.930 . S
C894 C892 1.395 . S
C894 C897 1.403 . S
C895 C892 1.403 . S
C895 C896 1.524 . S
C895 C899 1.400 . S
C896 H881 0.960 . S
C896 H882 0.960 . S
C896 H883 0.960 . S
C896 C895 1.524 . S
C897 C894 1.403 . S
C897 C898 1.392 . S
C897 C901 1.495 . S
C898 C897 1.392 . S
C898 C899 1.385 . S
C898 C900 1.478 . S
C899 H893 0.930 . S
C899 C895 1.400 . S
C899 C898 1.385 . S
C900 C898 1.478 . S
C900 C902 1.381 . S
C900 C906 1.383 . S
C901 C897 1.495 . S
C901 H907 0.959 . S
C901 H908 0.961 . S
C901 H909 0.960 . S
C902 C900 1.381 . S
C902 C903 1.394 . S
C902 H910 0.930 . S
C903 C902 1.394 . S
C903 C904 1.383 . S
C903 H911 0.929 . S
C904 C903 1.383 . S
C904 C905 1.377 . S
C905 H889 0.930 . S
C905 C904 1.377 . S
C905 C906 1.379 . S
C906 H890 0.931 . S
C906 C900 1.383 . S
C906 C905 1.379 . S
H907 C901 0.959 . S
H908 C901 0.961 . S
H909 C901 0.960 . S
H910 C902 0.930 . S
H911 C903 0.929 . S
H912 C920 0.929 . S
H913 C922 0.930 . S
H914 C924 0.930 . S
H915 C927 0.929 . S
H916 C930 0.930 . S
H917 C932 0.960 . S
H918 C932 0.960 . S
H919 C932 0.960 . S
C920 H912 0.929 . S
C920 C921 1.377 . S
C920 C922 1.384 . S
C921 C920 1.377 . S
C921 C927 1.390 . S
C922 H913 0.930 . S
C922 C920 1.384 . S
C922 C923 1.372 . S
C923 C922 1.372 . S
C923 C924 1.400 . S
C923 C928 1.490 . S
C924 H914 0.930 . S
C924 C923 1.400 . S
C924 C927 1.386 . S
H925 C941 0.930 . S
H926 C942 0.931 . S
C927 H915 0.929 . S
C927 C921 1.390 . S
C927 C924 1.386 . S
C928 C923 1.490 . S
C928 C930 1.395 . S
C928 C931 1.403 . S
H929 C935 0.930 . S
C930 H916 0.930 . S
C930 C928 1.395 . S
C930 C933 1.403 . S
C931 C928 1.403 . S
C931 C932 1.524 . S
C931 C935 1.400 . S
C932 H917 0.960 . S
C932 H918 0.960 . S
C932 H919 0.960 . S
C932 C931 1.524 . S
C933 C930 1.403 . S
C933 C934 1.392 . S
C933 C937 1.495 . S
C934 C933 1.392 . S
C934 C935 1.385 . S
C934 C936 1.478 . S
C935 H929 0.930 . S
C935 C931 1.400 . S
C935 C934 1.385 . S
C936 C934 1.478 . S
C936 C938 1.381 . S
C936 C942 1.383 . S
C937 C933 1.495 . S
C937 H943 0.959 . S
C937 H944 0.961 . S
C937 H945 0.960 . S
C938 C936 1.381 . S
C938 C939 1.394 . S
C938 H946 0.930 . S
C939 C938 1.394 . S
C939 C940 1.383 . S
C939 H947 0.929 . S
C940 C939 1.383 . S
C940 C941 1.377 . S
C941 H925 0.930 . S
C941 C940 1.377 . S
C941 C942 1.379 . S
C942 H926 0.931 . S
C942 C936 1.383 . S
C942 C941 1.379 . S
H943 C937 0.959 . S
H944 C937 0.961 . S
H945 C937 0.960 . S
H946 C938 0.930 . S
H947 C939 0.929 . S
H948 C956 0.929 . S
H949 C958 0.930 . S
H950 C960 0.930 . S
H951 C963 0.929 . S
H952 C966 0.930 . S
H953 C968 0.960 . S
H954 C968 0.960 . S
H955 C968 0.960 . S
C956 H948 0.929 . S
C956 C957 1.377 . S
C956 C958 1.384 . S
C957 C956 1.377 . S
C957 C963 1.390 . S
C958 H949 0.930 . S
C958 C956 1.384 . S
C958 C959 1.372 . S
C959 C958 1.372 . S
C959 C960 1.400 . S
C959 C964 1.490 . S
C960 H950 0.930 . S
C960 C959 1.400 . S
C960 C963 1.386 . S
H961 C977 0.930 . S
H962 C978 0.931 . S
C963 H951 0.929 . S
C963 C957 1.390 . S
C963 C960 1.386 . S
C964 C959 1.490 . S
C964 C966 1.395 . S
C964 C967 1.403 . S
H965 C971 0.930 . S
C966 H952 0.930 . S
C966 C964 1.395 . S
C966 C969 1.403 . S
C967 C964 1.403 . S
C967 C968 1.524 . S
C967 C971 1.400 . S
C968 H953 0.960 . S
C968 H954 0.960 . S
C968 H955 0.960 . S
C968 C967 1.524 . S
C969 C966 1.403 . S
C969 C970 1.392 . S
C969 C973 1.495 . S
C970 C969 1.392 . S
C970 C971 1.385 . S
C970 C972 1.478 . S
C971 H965 0.930 . S
C971 C967 1.400 . S
C971 C970 1.385 . S
C972 C970 1.478 . S
C972 C974 1.381 . S
C972 C978 1.383 . S
C973 C969 1.495 . S
C973 H979 0.959 . S
C973 H980 0.961 . S
C973 H981 0.960 . S
C974 C972 1.381 . S
C974 C975 1.394 1_554 S
C974 H982 0.930 . S
C975 C974 1.394 1_556 S
C975 C976 1.383 . S
C975 H983 0.929 . S
C976 C975 1.383 . S
C976 C977 1.377 . S
C977 H961 0.930 . S
C977 C976 1.377 . S
C977 C978 1.379 1_556 S
C978 H962 0.931 . S
C978 C972 1.383 . S
C978 C977 1.379 1_554 S
H979 C973 0.959 . S
H980 C973 0.961 . S
H981 C973 0.960 . S
H982 C974 0.930 . S
H983 C975 0.929 . S
C273 C249 1.064 . S
C292 C18 1.084 . S
C309 C150 1.065 . S
C328 C51 1.083 . S
C345 C84 1.056 . S
C364 C183 1.047 . S
C381 C216 1.058 . S
C400 C117 1.034 . S
C417 C7 1.409 . S
C436 C139 1.426 . S
C453 C172 1.409 . S
C472 C40 1.427 . S
C489 C205 1.416 . S
C508 C73 1.392 . S
C525 C238 1.409 . S
C544 C106 1.424 . S
C561 C252 1.446 . S
C580 C54 1.431 . S
C597 C87 1.449 . S
C616 C153 1.442 . S
C633 C120 1.445 . S
C652 C186 1.437 . S
C669 C219 1.448 . S
C688 C21 1.434 . S
C705 N13 1.161 . S
C724 N2 1.173 . S
C741 N35 1.152 . S
C760 N46 1.153 . S
C777 N68 1.154 . S
C796 N79 1.135 . S
C813 N112 1.153 . S
C832 N101 1.147 . S
C849 N134 1.154 . S
C868 N145 1.135 . S
C885 N167 1.152 . S
C904 N178 1.139 . S
C921 N200 1.158 . S
C940 N211 1.175 . S
C957 N244 1.154 . S
C976 N233 1.153 . S
