# Generated by pormake.
# Topology wir, (6)-cn, num edge types: 1
# Building blocks:
#     Node 0, Type 0, BuildingBlock: GEDQOX_clean_sbu_0, # of connection points: 6
#     Node 1, Type 0, BuildingBlock: GEDQOX_clean_sbu_0, # of connection points: 6
#     Node 2, Type 0, BuildingBlock: GEDQOX_clean_sbu_0, # of connection points: 6
#     Node 3, Type 0, BuildingBlock: GEDQOX_clean_sbu_0, # of connection points: 6
#     Node 4, Type 0, BuildingBlock: GEDQOX_clean_sbu_0, # of connection points: 6
#     Node 5, Type 0, BuildingBlock: GEDQOX_clean_sbu_0, # of connection points: 6
#     Node 6, Type 0, BuildingBlock: GEDQOX_clean_sbu_0, # of connection points: 6
#     Node 7, Type 0, BuildingBlock: GEDQOX_clean_sbu_0, # of connection points: 6
#     Node 8, Type 0, BuildingBlock: GEDQOX_clean_sbu_0, # of connection points: 6
#     Node 9, Type 0, BuildingBlock: GEDQOX_clean_sbu_0, # of connection points: 6
#     Node 10, Type 0, BuildingBlock: GEDQOX_clean_sbu_0, # of connection points: 6
#     Node 11, Type 0, BuildingBlock: GEDQOX_clean_sbu_0, # of connection points: 6
#     Node 12, Type 0, BuildingBlock: GEDQOX_clean_sbu_0, # of connection points: 6
#     Node 13, Type 0, BuildingBlock: GEDQOX_clean_sbu_0, # of connection points: 6
#     Node 14, Type 0, BuildingBlock: GEDQOX_clean_sbu_0, # of connection points: 6
#     Node 15, Type 0, BuildingBlock: GEDQOX_clean_sbu_0, # of connection points: 6
#     Node 16, Type 0, BuildingBlock: GEDQOX_clean_sbu_0, # of connection points: 6
#     Node 17, Type 0, BuildingBlock: GEDQOX_clean_sbu_0, # of connection points: 6
#     Node 18, Type 0, BuildingBlock: GEDQOX_clean_sbu_0, # of connection points: 6
#     Node 19, Type 0, BuildingBlock: GEDQOX_clean_sbu_0, # of connection points: 6
#     Node 20, Type 0, BuildingBlock: GEDQOX_clean_sbu_0, # of connection points: 6
#     Node 21, Type 0, BuildingBlock: GEDQOX_clean_sbu_0, # of connection points: 6
#     Node 22, Type 0, BuildingBlock: GEDQOX_clean_sbu_0, # of connection points: 6
#     Node 23, Type 0, BuildingBlock: GEDQOX_clean_sbu_0, # of connection points: 6
#     Node 24, Type 0, BuildingBlock: GEDQOX_clean_sbu_0, # of connection points: 6
#     Node 25, Type 0, BuildingBlock: GEDQOX_clean_sbu_0, # of connection points: 6
#     Node 26, Type 0, BuildingBlock: GEDQOX_clean_sbu_0, # of connection points: 6
#     Node 27, Type 0, BuildingBlock: GEDQOX_clean_sbu_0, # of connection points: 6
#     Node 28, Type 0, BuildingBlock: GEDQOX_clean_sbu_0, # of connection points: 6
#     Node 29, Type 0, BuildingBlock: GEDQOX_clean_sbu_0, # of connection points: 6
#     Node 30, Type 0, BuildingBlock: GEDQOX_clean_sbu_0, # of connection points: 6
#     Node 31, Type 0, BuildingBlock: GEDQOX_clean_sbu_0, # of connection points: 6
#     Edge 32, Type (0, 0), BuildingBlock: XIVTED_clean_linker_0, # of connection points: 2
#     Edge 33, Type (0, 0), BuildingBlock: XIVTED_clean_linker_0, # of connection points: 2
#     Edge 34, Type (0, 0), BuildingBlock: XIVTED_clean_linker_0, # of connection points: 2
#     Edge 35, Type (0, 0), BuildingBlock: XIVTED_clean_linker_0, # of connection points: 2
#     Edge 36, Type (0, 0), BuildingBlock: XIVTED_clean_linker_0, # of connection points: 2
#     Edge 37, Type (0, 0), BuildingBlock: XIVTED_clean_linker_0, # of connection points: 2
#     Edge 38, Type (0, 0), BuildingBlock: XIVTED_clean_linker_0, # of connection points: 2
#     Edge 39, Type (0, 0), BuildingBlock: XIVTED_clean_linker_0, # of connection points: 2
#     Edge 40, Type (0, 0), BuildingBlock: XIVTED_clean_linker_0, # of connection points: 2
#     Edge 41, Type (0, 0), BuildingBlock: XIVTED_clean_linker_0, # of connection points: 2
#     Edge 42, Type (0, 0), BuildingBlock: XIVTED_clean_linker_0, # of connection points: 2
#     Edge 43, Type (0, 0), BuildingBlock: XIVTED_clean_linker_0, # of connection points: 2
#     Edge 44, Type (0, 0), BuildingBlock: XIVTED_clean_linker_0, # of connection points: 2
#     Edge 45, Type (0, 0), BuildingBlock: XIVTED_clean_linker_0, # of connection points: 2
#     Edge 46, Type (0, 0), BuildingBlock: XIVTED_clean_linker_0, # of connection points: 2
#     Edge 47, Type (0, 0), BuildingBlock: XIVTED_clean_linker_0, # of connection points: 2
#     Edge 48, Type (0, 0), BuildingBlock: XIVTED_clean_linker_0, # of connection points: 2
#     Edge 49, Type (0, 0), BuildingBlock: XIVTED_clean_linker_0, # of connection points: 2
#     Edge 50, Type (0, 0), BuildingBlock: XIVTED_clean_linker_0, # of connection points: 2
#     Edge 51, Type (0, 0), BuildingBlock: XIVTED_clean_linker_0, # of connection points: 2
#     Edge 52, Type (0, 0), BuildingBlock: XIVTED_clean_linker_0, # of connection points: 2
#     Edge 53, Type (0, 0), BuildingBlock: XIVTED_clean_linker_0, # of connection points: 2
#     Edge 54, Type (0, 0), BuildingBlock: XIVTED_clean_linker_0, # of connection points: 2
#     Edge 55, Type (0, 0), BuildingBlock: XIVTED_clean_linker_0, # of connection points: 2
#     Edge 56, Type (0, 0), BuildingBlock: XIVTED_clean_linker_0, # of connection points: 2
#     Edge 57, Type (0, 0), BuildingBlock: XIVTED_clean_linker_0, # of connection points: 2
#     Edge 58, Type (0, 0), BuildingBlock: XIVTED_clean_linker_0, # of connection points: 2
#     Edge 59, Type (0, 0), BuildingBlock: XIVTED_clean_linker_0, # of connection points: 2
#     Edge 60, Type (0, 0), BuildingBlock: XIVTED_clean_linker_0, # of connection points: 2
#     Edge 61, Type (0, 0), BuildingBlock: XIVTED_clean_linker_0, # of connection points: 2
#     Edge 62, Type (0, 0), BuildingBlock: XIVTED_clean_linker_0, # of connection points: 2
#     Edge 63, Type (0, 0), BuildingBlock: XIVTED_clean_linker_0, # of connection points: 2
#     Edge 64, Type (0, 0), BuildingBlock: XIVTED_clean_linker_0, # of connection points: 2
#     Edge 65, Type (0, 0), BuildingBlock: XIVTED_clean_linker_0, # of connection points: 2
#     Edge 66, Type (0, 0), BuildingBlock: XIVTED_clean_linker_0, # of connection points: 2
#     Edge 67, Type (0, 0), BuildingBlock: XIVTED_clean_linker_0, # of connection points: 2
#     Edge 68, Type (0, 0), BuildingBlock: XIVTED_clean_linker_0, # of connection points: 2
#     Edge 69, Type (0, 0), BuildingBlock: XIVTED_clean_linker_0, # of connection points: 2
#     Edge 70, Type (0, 0), BuildingBlock: XIVTED_clean_linker_0, # of connection points: 2
#     Edge 71, Type (0, 0), BuildingBlock: XIVTED_clean_linker_0, # of connection points: 2
#     Edge 72, Type (0, 0), BuildingBlock: XIVTED_clean_linker_0, # of connection points: 2
#     Edge 73, Type (0, 0), BuildingBlock: XIVTED_clean_linker_0, # of connection points: 2
#     Edge 74, Type (0, 0), BuildingBlock: XIVTED_clean_linker_0, # of connection points: 2
#     Edge 75, Type (0, 0), BuildingBlock: XIVTED_clean_linker_0, # of connection points: 2
#     Edge 76, Type (0, 0), BuildingBlock: XIVTED_clean_linker_0, # of connection points: 2
#     Edge 77, Type (0, 0), BuildingBlock: XIVTED_clean_linker_0, # of connection points: 2
#     Edge 78, Type (0, 0), BuildingBlock: XIVTED_clean_linker_0, # of connection points: 2
#     Edge 79, Type (0, 0), BuildingBlock: XIVTED_clean_linker_0, # of connection points: 2
#     Edge 80, Type (0, 0), BuildingBlock: XIVTED_clean_linker_0, # of connection points: 2
#     Edge 81, Type (0, 0), BuildingBlock: XIVTED_clean_linker_0, # of connection points: 2
#     Edge 82, Type (0, 0), BuildingBlock: XIVTED_clean_linker_0, # of connection points: 2
#     Edge 83, Type (0, 0), BuildingBlock: XIVTED_clean_linker_0, # of connection points: 2
#     Edge 84, Type (0, 0), BuildingBlock: XIVTED_clean_linker_0, # of connection points: 2
#     Edge 85, Type (0, 0), BuildingBlock: XIVTED_clean_linker_0, # of connection points: 2
#     Edge 86, Type (0, 0), BuildingBlock: XIVTED_clean_linker_0, # of connection points: 2
#     Edge 87, Type (0, 0), BuildingBlock: XIVTED_clean_linker_0, # of connection points: 2
#     Edge 88, Type (0, 0), BuildingBlock: XIVTED_clean_linker_0, # of connection points: 2
#     Edge 89, Type (0, 0), BuildingBlock: XIVTED_clean_linker_0, # of connection points: 2
#     Edge 90, Type (0, 0), BuildingBlock: XIVTED_clean_linker_0, # of connection points: 2
#     Edge 91, Type (0, 0), BuildingBlock: XIVTED_clean_linker_0, # of connection points: 2
#     Edge 92, Type (0, 0), BuildingBlock: XIVTED_clean_linker_0, # of connection points: 2
#     Edge 93, Type (0, 0), BuildingBlock: XIVTED_clean_linker_0, # of connection points: 2
#     Edge 94, Type (0, 0), BuildingBlock: XIVTED_clean_linker_0, # of connection points: 2
#     Edge 95, Type (0, 0), BuildingBlock: XIVTED_clean_linker_0, # of connection points: 2
#     Edge 96, Type (0, 0), BuildingBlock: XIVTED_clean_linker_0, # of connection points: 2
#     Edge 97, Type (0, 0), BuildingBlock: XIVTED_clean_linker_0, # of connection points: 2
#     Edge 98, Type (0, 0), BuildingBlock: XIVTED_clean_linker_0, # of connection points: 2
#     Edge 99, Type (0, 0), BuildingBlock: XIVTED_clean_linker_0, # of connection points: 2
#     Edge 100, Type (0, 0), BuildingBlock: XIVTED_clean_linker_0, # of connection points: 2
#     Edge 101, Type (0, 0), BuildingBlock: XIVTED_clean_linker_0, # of connection points: 2
#     Edge 102, Type (0, 0), BuildingBlock: XIVTED_clean_linker_0, # of connection points: 2
#     Edge 103, Type (0, 0), BuildingBlock: XIVTED_clean_linker_0, # of connection points: 2
#     Edge 104, Type (0, 0), BuildingBlock: XIVTED_clean_linker_0, # of connection points: 2
#     Edge 105, Type (0, 0), BuildingBlock: XIVTED_clean_linker_0, # of connection points: 2
#     Edge 106, Type (0, 0), BuildingBlock: XIVTED_clean_linker_0, # of connection points: 2
#     Edge 107, Type (0, 0), BuildingBlock: XIVTED_clean_linker_0, # of connection points: 2
#     Edge 108, Type (0, 0), BuildingBlock: XIVTED_clean_linker_0, # of connection points: 2
#     Edge 109, Type (0, 0), BuildingBlock: XIVTED_clean_linker_0, # of connection points: 2
#     Edge 110, Type (0, 0), BuildingBlock: XIVTED_clean_linker_0, # of connection points: 2
#     Edge 111, Type (0, 0), BuildingBlock: XIVTED_clean_linker_0, # of connection points: 2
#     Edge 112, Type (0, 0), BuildingBlock: XIVTED_clean_linker_0, # of connection points: 2
#     Edge 113, Type (0, 0), BuildingBlock: XIVTED_clean_linker_0, # of connection points: 2
#     Edge 114, Type (0, 0), BuildingBlock: XIVTED_clean_linker_0, # of connection points: 2
#     Edge 115, Type (0, 0), BuildingBlock: XIVTED_clean_linker_0, # of connection points: 2
#     Edge 116, Type (0, 0), BuildingBlock: XIVTED_clean_linker_0, # of connection points: 2
#     Edge 117, Type (0, 0), BuildingBlock: XIVTED_clean_linker_0, # of connection points: 2
#     Edge 118, Type (0, 0), BuildingBlock: XIVTED_clean_linker_0, # of connection points: 2
#     Edge 119, Type (0, 0), BuildingBlock: XIVTED_clean_linker_0, # of connection points: 2
#     Edge 120, Type (0, 0), BuildingBlock: XIVTED_clean_linker_0, # of connection points: 2
#     Edge 121, Type (0, 0), BuildingBlock: XIVTED_clean_linker_0, # of connection points: 2
#     Edge 122, Type (0, 0), BuildingBlock: XIVTED_clean_linker_0, # of connection points: 2
#     Edge 123, Type (0, 0), BuildingBlock: XIVTED_clean_linker_0, # of connection points: 2
#     Edge 124, Type (0, 0), BuildingBlock: XIVTED_clean_linker_0, # of connection points: 2
#     Edge 125, Type (0, 0), BuildingBlock: XIVTED_clean_linker_0, # of connection points: 2
#     Edge 126, Type (0, 0), BuildingBlock: XIVTED_clean_linker_0, # of connection points: 2
#     Edge 127, Type (0, 0), BuildingBlock: XIVTED_clean_linker_0, # of connection points: 2
# Relax obj value: 0.558
# Max RMSD: 0.219
# Mean RMSD: 0.219
data_MOF--net-wir--node1-GEDQOX_clean_sbu_0--edge1-XIVTED_clean_linker_0
_symmetry_space_group_name_H-M    P1
_symmetry_Int_Tables_number       1
_symmetry_cell_setting            triclinic
loop_
_symmetry_equiv_pos_as_xyz
'x, y, z'
_cell_length_a     40.404416
_cell_length_b     40.45756
_cell_length_c     107.29544
_cell_angle_alpha  89.981125
_cell_angle_beta   89.979032
_cell_angle_gamma 89.927136
loop_
_atom_site_label
_atom_site_type_symbol
_atom_site_fract_x
_atom_site_fract_y
_atom_site_fract_z
_atom_type_partial_charge
Nd0 Nd 0.12129 0.08964 0.40492 0.0
Nd1 Nd 0.16034 0.12385 0.40109 0.0
C2 C 0.06333 0.0598 0.40248 0.0
C3 C 1.02985 0.0738 0.40174 0.0
C4 C 1.02462 0.10463 0.39601 0.0
C5 C 0.99551 0.12225 0.39825 0.0
C6 C 0.97151 0.10951 0.40638 0.0
C7 C 0.97536 0.07717 0.41102 0.0
C8 C 1.00439 0.05947 0.40872 0.0
C9 C 0.16876 0.05672 0.42086 0.0
C10 C 0.13745 0.12817 0.42829 0.0
C11 C 0.21785 0.14831 0.39378 0.0
C12 C 0.22844 0.17081 0.38402 0.0
C13 C 0.26212 0.17732 0.38238 0.0
C14 C 0.27237 0.19816 0.37279 0.0
C15 C 0.24894 0.21255 0.36476 0.0
C16 C 0.21513 0.20605 0.36654 0.0
C17 C 0.20493 0.18527 0.37613 0.0
C18 C 0.10993 0.17408 0.40225 0.0
C19 C 0.14428 0.08069 0.37643 0.0
O20 O 0.08291 0.06596 0.39311 0.0
O21 O 0.07801 0.06395 0.41316 0.0
O22 O 0.13693 0.05769 0.42218 0.0
O23 O 0.17576 0.07285 0.41064 0.0
O24 O 0.1105 0.12216 0.42202 0.0
O25 O 0.16513 0.12482 0.42221 0.0
O26 O 0.20616 0.12014 0.38989 0.0
O27 O 0.19989 0.16142 0.40257 0.0
O28 O 0.14005 0.1762 0.40629 0.0
O29 O 0.10619 0.1441 0.39791 0.0
O30 O 0.14949 0.11163 0.37963 0.0
O31 O 0.13791 0.0622 0.38621 0.0
H32 H 0.04396 0.11623 0.39055 0.0
H33 H 0.9928 0.14684 0.39439 0.0
H34 H 0.95743 0.06672 0.41741 0.0
H35 H 1.00805 0.03579 0.41325 0.0
H36 H 0.28044 0.16609 0.38843 0.0
H37 H 0.2986 0.20255 0.37151 0.0
H38 H 0.19658 0.21719 0.36058 0.0
H39 H 0.17877 0.18035 0.37737 0.0
Nd40 Nd 0.23154 0.87037 0.65511 0.0
Nd41 Nd 0.19758 0.90957 0.65136 0.0
C42 C 0.261 0.81225 0.65258 0.0
C43 C 0.24672 0.77896 0.65189 0.0
C44 C 0.21593 0.77395 0.64608 0.0
C45 C 0.19794 0.74517 0.6484 0.0
C46 C 0.21022 0.72132 0.65669 0.0
C47 C 0.24255 0.72489 0.66141 0.0
C48 C 0.26064 0.75356 0.65903 0.0
C49 C 0.26492 0.9173 0.67108 0.0
C50 C 0.19316 0.88672 0.67855 0.0
C51 C 0.17332 0.96722 0.64411 0.0
C52 C 0.15115 0.97809 0.63428 0.0
C53 C 0.14494 1.0118 0.63263 0.0
C54 C 0.12452 1.02232 0.62295 0.0
C55 C 0.11025 0.99912 0.61482 0.0
C56 C 0.11644 0.96528 0.6166 0.0
C57 C 0.1368 0.95482 0.62628 0.0
C58 C 0.14703 0.85956 0.65254 0.0
C59 C 0.24072 0.89358 0.62667 0.0
O60 O 0.25482 0.83186 0.64323 0.0
O61 O 0.25716 0.82694 0.66328 0.0
O62 O 0.26379 0.88549 0.67233 0.0
O63 O 0.2487 0.92458 0.6609 0.0
O64 O 0.19901 0.85979 0.67225 0.0
O65 O 0.19675 0.91436 0.6725 0.0
O66 O 0.20164 0.95552 0.6403 0.0
O67 O 0.15991 0.94916 0.65278 0.0
O68 O 0.14518 0.8896 0.65665 0.0
O69 O 0.17696 0.85568 0.64811 0.0
O70 O 0.20976 0.89891 0.62988 0.0
O71 O 0.25918 0.88698 0.63644 0.0
H72 H 0.20465 0.79323 0.6405 0.0
H73 H 0.1734 0.74266 0.64446 0.0
H74 H 0.25268 0.70708 0.66791 0.0
H75 H 0.28426 0.75705 0.66362 0.0
H76 H 0.15611 1.02993 0.63876 0.0
H77 H 0.12037 0.04856 0.62168 0.0
H78 H 0.10538 0.94691 0.61056 0.0
H79 H 0.1415 0.92863 0.62751 0.0
Nd80 Nd 0.45155 0.97992 0.90513 0.0
Nd81 Nd 0.41224 0.94613 0.90129 0.0
C82 C 0.50977 1.00921 0.90262 0.0
C83 C 0.5431 0.99491 0.9018 0.0
C84 C 0.54795 0.96405 0.89604 0.0
C85 C 0.57693 0.94615 0.89821 0.0
C86 C 0.60118 0.95863 0.90628 0.0
C87 C 0.59772 0.99099 0.91093 0.0
C88 C 0.56882 1.00897 0.90872 0.0
C89 C 0.40439 1.01335 0.92106 0.0
C90 C 0.43503 0.9416 0.92851 0.0
C91 C 0.35458 0.92197 0.894 0.0
C92 C 0.34375 0.89975 0.88419 0.0
C93 C 0.30999 0.89364 0.88254 0.0
C94 C 0.29949 0.87318 0.87288 0.0
C95 C 0.32274 0.85877 0.86479 0.0
C96 C 0.35663 0.86484 0.86657 0.0
C97 C 0.36708 0.88525 0.87623 0.0
C98 C 0.46232 0.89553 0.90245 0.0
C99 C 0.42846 0.98948 0.8767 0.0
O100 O 0.49003 1.00336 0.89328 0.0
O101 O 0.49518 1.00505 0.91333 0.0
O102 O 0.43622 1.01213 0.92234 0.0
O103 O 0.39719 0.99719 0.91087 0.0
O104 O 0.46205 0.94734 0.92224 0.0
O105 O 0.40739 0.94529 0.92243 0.0
O106 O 0.36633 0.95019 0.89017 0.0
O107 O 0.3726 0.90861 0.90271 0.0
O108 O 0.43224 0.89375 0.90657 0.0
O109 O 0.4662 0.92542 0.89804 0.0
O110 O 0.42301 0.95853 0.87983 0.0
O111 O 0.43503 1.00772 0.88652 0.0
H112 H 0.52842 0.95266 0.89064 0.0
H113 H 0.57933 0.92154 0.89434 0.0
H114 H 0.61585 1.00124 0.91728 0.0
H115 H 0.56546 1.03267 0.91326 0.0
H116 H 0.29182 0.90492 0.88864 0.0
H117 H 0.27322 0.86913 0.87161 0.0
H118 H 0.37504 0.85367 0.86055 0.0
H119 H 0.39329 0.88986 0.87747 0.0
Nd120 Nd 0.3407 0.19994 0.15551 0.0
Nd121 Nd 0.37405 0.15992 0.15134 0.0
C122 C 0.31047 0.25794 0.15376 0.0
C123 C 0.32449 0.29132 0.15299 0.0
C124 C 0.35526 0.2964 0.14717 0.0
C125 C 0.3729 0.32549 0.14929 0.0
C126 C 0.36023 0.34963 0.15737 0.0
C127 C 0.32797 0.34587 0.16213 0.0
C128 C 0.31026 0.31684 0.15997 0.0
C129 C 0.30859 0.15189 0.17145 0.0
C130 C 0.38142 0.1827 0.17843 0.0
C131 C 0.39759 0.10197 0.14407 0.0
C132 C 0.42066 0.09115 0.13452 0.0
C133 C 0.4268 0.05743 0.13285 0.0
C134 C 0.4481 0.04702 0.12341 0.0
C135 C 0.46332 0.07032 0.11557 0.0
C136 C 0.45732 0.10417 0.11742 0.0
C137 C 0.43609 0.11452 0.12685 0.0
C138 C 0.42489 0.20997 0.15221 0.0
C139 C 0.33123 0.17726 0.12681 0.0
O140 O 0.31581 0.23873 0.14424 0.0
O141 O 0.31558 0.24287 0.1643 0.0
O142 O 0.31265 0.18308 0.17362 0.0
O143 O 0.3218 0.14613 0.16054 0.0
O144 O 0.37503 0.20975 0.17224 0.0
O145 O 0.37704 0.15513 0.1724 0.0
O146 O 0.37002 0.11456 0.13992 0.0
O147 O 0.41043 0.11924 0.15308 0.0
O148 O 0.427 0.17974 0.1561 0.0
O149 O 0.39476 0.21396 0.14804 0.0
O150 O 0.36202 0.17078 0.12993 0.0
O151 O 0.31307 0.18455 0.13663 0.0
H152 H 0.36677 0.27699 0.14173 0.0
H153 H 0.39745 0.32809 0.14536 0.0
H154 H 0.31761 0.36391 0.1685 0.0
H155 H 0.28665 0.31328 0.16457 0.0
H156 H 0.41487 0.03922 0.13873 0.0
H157 H 0.45211 1.02078 0.12208 0.0
H158 H 0.4691 0.12261 0.1116 0.0
H159 H 0.4315 0.14071 0.12812 0.0
Nd160 Nd 0.12176 0.97879 0.25506 0.0
Nd161 Nd 0.16222 0.94626 0.25927 0.0
C162 C 0.06221 1.00553 0.25698 0.0
C163 C 1.03081 0.98756 0.25649 0.0
C164 C 1.03101 0.95516 0.25193 0.0
C165 C 1.00165 0.93786 0.25048 0.0
C166 C 0.97117 0.9524 0.2537 0.0
C167 C 0.97136 0.98408 0.25923 0.0
C168 C 1.00105 1.00165 0.26054 0.0
C169 C 0.16913 1.01181 0.23915 0.0
C170 C 0.14101 0.93881 0.23206 0.0
C171 C 0.22026 0.92382 0.26694 0.0
C172 C 0.23084 0.90171 0.27683 0.0
C173 C 0.26456 0.89607 0.27881 0.0
C174 C 0.27467 0.87543 0.28849 0.0
C175 C 0.25104 0.8604 0.29625 0.0
C176 C 0.21722 0.86612 0.29416 0.0
C177 C 0.20717 0.88669 0.28449 0.0
C178 C 0.11261 0.89482 0.25825 0.0
C179 C 0.14436 0.98952 0.2836 0.0
O180 O 0.08053 0.99852 0.26659 0.0
O181 O 0.07916 1.00533 0.24665 0.0
O182 O 0.13791 1.00735 0.23699 0.0
O183 O 0.17521 0.99863 0.25004 0.0
O184 O 0.11358 0.94474 0.2381 0.0
O185 O 0.16828 0.94345 0.23826 0.0
O186 O 0.20743 0.95163 0.27071 0.0
O187 O 0.20324 0.91012 0.25804 0.0
O188 O 0.14281 0.89319 0.25423 0.0
O189 O 0.10856 0.9247 0.26257 0.0
O190 O 0.15065 0.95866 0.28059 0.0
O191 O 0.13734 1.00744 0.27369 0.0
H192 H 0.05387 0.94359 0.24897 0.0
H193 H 1.00302 0.91395 0.246 0.0
H194 H 0.94849 0.99589 0.26205 0.0
H195 H 1.00065 1.0264 0.26439 0.0
H196 H 0.28299 0.90776 0.27295 0.0
H197 H 0.3009 0.87162 0.29001 0.0
H198 H 0.19855 0.85446 0.29991 0.0
H199 H 0.18098 0.89095 0.28298 0.0
Nd200 Nd 0.34034 0.87084 0.50526 0.0
Nd201 Nd 0.37457 0.90985 0.50903 0.0
C202 C 0.31048 0.81301 0.50788 0.0
C203 C 0.32459 0.77966 0.50886 0.0
C204 C 0.35537 0.77479 0.5147 0.0
C205 C 0.37326 0.74577 0.51261 0.0
C206 C 0.36083 0.72155 0.50453 0.0
C207 C 0.32846 0.725 0.49983 0.0
C208 C 0.3105 0.75392 0.50197 0.0
C209 C 0.30734 0.91799 0.48923 0.0
C210 C 0.379 0.88676 0.48186 0.0
C211 C 0.39892 0.96749 0.51616 0.0
C212 C 0.42133 0.97857 0.52586 0.0
C213 C 0.42745 1.01233 0.52737 0.0
C214 C 0.44804 1.0231 0.53694 0.0
C215 C 0.46259 1.00011 0.5451 0.0
C216 C 0.45655 0.96621 0.54345 0.0
C217 C 0.436 0.9555 0.53387 0.0
C218 C 0.42486 0.85945 0.508 0.0
C219 C 0.33134 0.89403 0.53373 0.0
O220 O 0.31629 0.8329 0.51717 0.0
O221 O 0.31496 0.82729 0.49713 0.0
O222 O 0.30826 0.88618 0.48801 0.0
O223 O 0.32353 0.92516 0.49942 0.0
O224 O 0.37293 0.85989 0.48817 0.0
O225 O 0.37561 0.91444 0.4879 0.0
O226 O 0.37075 0.9558 0.5201 0.0
O227 O 0.41218 0.94934 0.50747 0.0
O228 O 0.42709 0.88954 0.50397 0.0
O229 O 0.39479 0.85577 0.51229 0.0
O230 O 0.3623 0.8993 0.53051 0.0
O231 O 0.31285 0.88754 0.52395 0.0
H232 H 0.36676 0.79433 0.52009 0.0
H233 H 0.39785 0.74336 0.51652 0.0
H234 H 0.31825 0.70688 0.49348 0.0
H235 H 0.28686 0.7573 0.49737 0.0
H236 H 0.41604 1.03031 0.52122 0.0
H237 H 0.45207 0.04938 0.53812 0.0
H238 H 0.46783 0.948 0.54952 0.0
H239 H 0.43138 0.92928 0.53275 0.0
Nd240 Nd 0.45073 0.08896 0.7551 0.0
Nd241 Nd 0.41191 0.12255 0.75938 0.0
C242 C 0.50929 0.05998 0.75732 0.0
C243 C 0.54258 0.07427 0.75814 0.0
C244 C 0.5474 0.10509 0.76391 0.0
C245 C 0.57639 0.12293 0.76176 0.0
C246 C 0.60067 0.11043 0.75369 0.0
C247 C 0.59722 0.0781 0.74901 0.0
C248 C 0.56831 0.06018 0.75121 0.0
C249 C 0.40348 0.05532 0.73944 0.0
C250 C 0.43086 0.1262 0.73171 0.0
C251 C 0.3545 0.14563 0.76743 0.0
C252 C 0.3433 0.16607 0.77771 0.0
C253 C 0.30939 0.17041 0.7797 0.0
C254 C 0.29845 0.18934 0.78972 0.0
C255 C 0.32141 0.20403 0.79784 0.0
C256 C 0.35545 0.19944 0.7958 0.0
C257 C 0.36635 0.18051 0.78578 0.0
C258 C 0.46168 0.17327 0.75771 0.0
C259 C 0.42869 0.07881 0.78365 0.0
O260 O 0.48967 0.06544 0.76674 0.0
O261 O 0.49452 0.06451 0.74667 0.0
O262 O 0.43531 0.05612 0.73812 0.0
O263 O 0.39634 0.07189 0.74955 0.0
O264 O 0.45875 0.12026 0.73742 0.0
O265 O 0.40422 0.12367 0.73845 0.0
O266 O 0.36642 0.11691 0.77062 0.0
O267 O 0.37241 0.16048 0.75904 0.0
O268 O 0.43135 0.17497 0.75385 0.0
O269 O 0.46595 0.14337 0.76206 0.0
O270 O 0.42393 0.10996 0.78068 0.0
O271 O 0.43433 0.06072 0.77369 0.0
H272 H 0.52786 0.11647 0.76934 0.0
H273 H 0.57879 0.14751 0.76565 0.0
H274 H 0.61536 0.06783 0.74266 0.0
H275 H 0.56497 0.03652 0.74665 0.0
H276 H 0.29145 0.15905 0.77354 0.0
H277 H 0.27208 0.19223 0.79119 0.0
H278 H 0.37362 0.21086 0.80184 0.0
H279 H 0.39268 0.17714 0.78431 0.0
Nd280 Nd 0.23206 0.19905 1.00527 0.0
Nd281 Nd 0.1982 0.16005 1.00912 0.0
C282 C 0.26171 0.25702 1.00778 0.0
C283 C 0.24751 0.29033 1.0087 0.0
C284 C 0.21652 0.29511 1.0144 0.0
C285 C 0.19868 0.32411 1.01226 0.0
C286 C 0.21136 0.34844 1.00426 0.0
C287 C 0.24388 0.34505 0.9997 0.0
C288 C 0.26179 0.31612 1.00189 0.0
C289 C 0.26534 0.15187 0.98932 0.0
C290 C 0.19356 0.18249 0.98189 0.0
C291 C 0.17457 0.10231 1.01648 0.0
C292 C 0.15276 0.09115 1.02636 0.0
C293 C 0.14703 0.05736 1.02798 0.0
C294 C 0.12682 0.04656 1.03767 0.0
C295 C 0.11228 0.06955 1.04583 0.0
C296 C 0.11807 0.10346 1.0441 0.0
C297 C 0.13822 0.11421 1.03441 0.0
C298 C 0.14747 0.20998 1.0079 0.0
C299 C 0.24099 0.17639 1.03381 0.0
O300 O 0.25592 0.23722 1.01711 0.0
O301 O 0.2573 0.24261 0.99706 0.0
O302 O 0.26417 0.18365 0.988 0.0
O303 O 0.24926 0.14481 0.99955 0.0
O304 O 0.19953 0.20951 0.98811 0.0
O305 O 0.19705 0.15495 0.98802 0.0
O306 O 0.20285 0.11419 1.0202 0.0
O307 O 0.16075 0.12033 1.00787 0.0
O308 O 0.14566 0.17984 1.00389 0.0
O309 O 0.17744 0.21399 1.01225 0.0
O310 O 0.21004 0.17119 1.03058 0.0
O311 O 0.25954 0.18261 1.02402 0.0
H312 H 0.20498 0.27551 1.01973 0.0
H313 H 0.17395 0.32646 1.01606 0.0
H314 H 0.2543 0.36323 0.99342 0.0
H315 H 0.28559 0.31281 0.9974 0.0
H316 H 0.15837 0.0394 1.02181 0.0
H317 H 0.12296 1.02027 1.0389 0.0
H318 H 0.10677 0.12167 1.05017 0.0
H319 H 0.14257 0.14045 1.0332 0.0
Nd320 Nd 0.91058 0.94684 0.75908 0.0
Nd321 Nd 0.94979 0.98092 0.75533 0.0
C322 C 0.85302 0.9222 0.76625 0.0
C323 C 0.84282 0.89862 0.7757 0.0
C324 C 0.80924 0.89173 0.77742 0.0
C325 C 0.79946 0.8698 0.78673 0.0
C326 C 0.82327 0.85471 0.79441 0.0
C327 C 0.85698 0.86149 0.79252 0.0
C328 C 0.8667 0.88335 0.78321 0.0
C329 C 0.96078 0.89634 0.75807 0.0
C330 C 0.92664 0.98993 0.7838 0.0
C331 C 1.00782 1.01058 0.75775 0.0
C332 C 0.04124 0.99639 0.75839 0.0
C333 C 0.04648 0.96572 0.76425 0.0
C334 C 0.07538 0.94781 0.76193 0.0
C335 C 0.09911 0.96006 0.75358 0.0
C336 C 0.09529 0.99226 0.7488 0.0
C337 C 0.06651 1.01027 0.75118 0.0
C338 C 0.90242 1.01382 0.73933 0.0
C339 C 0.93368 0.94223 0.73194 0.0
O340 O 0.86509 0.94983 0.77052 0.0
O341 O 0.8705 0.90999 0.75716 0.0
O342 O 0.93061 0.89426 0.75409 0.0
O343 O 0.96478 0.92642 0.76227 0.0
O344 O 0.92111 0.95906 0.78057 0.0
O345 O 0.93334 1.00839 0.77404 0.0
O346 O 0.98832 1.00436 0.76713 0.0
O347 O 0.993 1.00671 0.74708 0.0
O348 O 0.93423 1.01256 0.73798 0.0
O349 O 0.89547 0.99811 0.74966 0.0
O350 O 0.96058 0.94819 0.73826 0.0
O351 O 0.90595 0.9458 0.73796 0.0
H352 H 0.79065 0.90354 0.77165 0.0
H353 H 0.77331 0.86519 0.7881 0.0
H354 H 0.87581 0.84983 0.79821 0.0
H355 H 0.8928 0.88851 0.7819 0.0
H356 H 1.0273 0.95447 0.76988 0.0
H357 H 0.07808 0.92336 0.76592 0.0
H358 H 0.11301 1.00235 0.74225 0.0
H359 H 0.06284 1.0338 0.74655 0.0
Nd360 Nd 0.87418 0.16086 0.509 0.0
Nd361 Nd 0.84021 0.19976 0.50502 0.0
C362 C 0.89844 0.10344 0.51651 0.0
C363 C 0.92099 0.09305 0.52629 0.0
C364 C 0.92751 0.05945 0.52807 0.0
C365 C 0.94846 0.04943 0.53767 0.0
C366 C 0.96296 0.07301 0.54557 0.0
C367 C 0.95645 0.10675 0.54366 0.0
C368 C 0.93556 0.11671 0.53407 0.0
C369 C 0.92478 0.21086 0.50791 0.0
C370 C 0.83046 0.17696 0.5335 0.0
C371 C 0.8103 0.25771 0.50736 0.0
C372 C 0.82443 0.29106 0.50809 0.0
C373 C 0.85508 0.29618 0.51398 0.0
C374 C 0.87297 0.32506 0.51174 0.0
C375 C 0.86072 0.34892 0.50345 0.0
C376 C 0.82851 0.34521 0.49863 0.0
C377 C 0.81052 0.31643 0.50093 0.0
C378 C 0.80758 0.15239 0.48901 0.0
C379 C 0.87933 0.18302 0.48176 0.0
O380 O 0.87029 0.11542 0.52038 0.0
O381 O 0.91158 0.12101 0.50764 0.0
O382 O 0.92683 0.18065 0.504 0.0
O383 O 0.89461 0.215 0.51206 0.0
O384 O 0.86155 0.17183 0.53043 0.0
O385 O 0.81225 0.18319 0.52362 0.0
O386 O 0.8163 0.23819 0.51675 0.0
O387 O 0.81456 0.24296 0.49669 0.0
O388 O 0.80882 0.18415 0.48761 0.0
O389 O 0.82322 0.14552 0.49936 0.0
O390 O 0.87311 0.21008 0.48794 0.0
O391 O 0.8758 0.15552 0.48791 0.0
H392 H 0.91619 0.04102 0.52211 0.0
H393 H 0.95285 1.02326 0.53904 0.0
H394 H 0.96767 0.12541 0.54954 0.0
H395 H 0.93065 0.14282 0.53272 0.0
H396 H 0.86634 0.27693 0.51957 0.0
H397 H 0.89743 0.32766 0.51575 0.0
H398 H 0.81841 0.36301 0.49212 0.0
H399 H 0.787 0.31285 0.49627 0.0
Nd400 Nd 0.66066 0.12489 0.25897 0.0
Nd401 Nd 0.62041 0.092 0.25474 0.0
C402 C 0.71874 0.14781 0.26636 0.0
C403 C 0.72945 0.17091 0.27589 0.0
C404 C 0.76318 0.17695 0.27764 0.0
C405 C 0.77344 0.19842 0.28702 0.0
C406 C 0.74997 0.2139 0.29474 0.0
C407 C 0.71611 0.20797 0.29282 0.0
C408 C 0.70591 0.18657 0.28344 0.0
C409 C 0.6109 0.17613 0.25816 0.0
C410 C 0.64302 0.08217 0.28344 0.0
C411 C 0.56221 0.06224 0.25663 0.0
C412 C 0.52895 0.07646 0.25785 0.0
C413 C 0.52453 0.10707 0.26384 0.0
C414 C 0.4954 0.12504 0.26208 0.0
C415 C 0.47058 0.11286 0.25419 0.0
C416 C 0.4737 0.08066 0.24933 0.0
C417 C 0.50277 0.06263 0.25113 0.0
C418 C 0.66821 0.05955 0.2388 0.0
C419 C 0.63862 0.13254 0.23182 0.0
O420 O 0.70581 0.12046 0.27053 0.0
O421 O 0.70178 0.16067 0.25726 0.0
O422 O 0.64121 0.17803 0.25431 0.0
O423 O 0.60657 0.146 0.26222 0.0
O424 O 0.64964 0.11289 0.28036 0.0
O425 O 0.63571 0.06416 0.2736 0.0
O426 O 0.58201 0.06663 0.26605 0.0
O427 O 0.57672 0.06811 0.24603 0.0
O428 O 0.637 0.06387 0.23664 0.0
O429 O 0.67405 0.07258 0.24973 0.0
O430 O 0.61132 0.12628 0.23789 0.0
O431 O 0.66602 0.12797 0.23795 0.0
H432 H 0.78151 0.16485 0.27184 0.0
H433 H 0.79969 0.20239 0.28841 0.0
H434 H 0.69754 0.21994 0.29854 0.0
H435 H 0.6797 0.18207 0.28211 0.0
H436 H 0.54446 0.11823 0.2691 0.0
H437 H 0.4933 0.14952 0.26608 0.0
H438 H 0.45514 0.07065 0.24311 0.0
H439 H 0.50581 0.03913 0.24642 0.0
Nd440 Nd 0.69606 0.90894 1.00889 0.0
Nd441 Nd 0.73047 0.86991 1.00517 0.0
C442 C 0.67147 0.96652 1.01605 0.0
C443 C 0.64883 0.97735 1.02574 0.0
C444 C 0.64262 1.01107 1.02737 0.0
C445 C 0.62184 1.02157 1.03695 0.0
C446 C 0.60719 0.99837 1.04499 0.0
C447 C 0.61332 0.96451 1.04321 0.0
C448 C 0.63405 0.95406 1.03363 0.0
C449 C 0.64585 0.85859 1.0079 0.0
C450 C 0.73899 0.89296 1.03365 0.0
C451 C 0.76067 0.81213 1.00766 0.0
C452 C 0.74684 0.77866 1.00842 0.0
C453 C 0.71593 0.7734 1.01411 0.0
C454 C 0.69847 0.74425 1.01188 0.0
C455 C 0.71146 0.72025 1.00381 0.0
C456 C 0.74388 0.72415 0.99922 0.0
C457 C 0.76141 0.75322 1.0015 0.0
C458 C 0.76326 0.91736 0.98919 0.0
C459 C 0.69178 0.88577 0.98175 0.0
O460 O 0.6996 0.95478 1.02003 0.0
O461 O 0.65845 0.94852 1.00728 0.0
O462 O 0.64362 0.88865 1.00383 0.0
O463 O 0.67597 0.85478 1.01214 0.0
O464 O 0.70806 0.89827 1.03038 0.0
O465 O 0.75764 0.88649 1.02391 0.0
O466 O 0.75437 0.83169 1.01701 0.0
O467 O 0.75645 0.82674 0.99697 0.0
O468 O 0.76222 0.88558 0.98785 0.0
O469 O 0.74736 0.92422 0.99948 0.0
O470 O 0.69791 0.85894 0.98808 0.0
O471 O 0.69506 0.91349 0.98777 0.0
H472 H 0.65411 1.02921 1.02134 0.0
H473 H 0.61775 0.04782 1.03823 0.0
H474 H 0.60198 0.94613 1.04918 0.0
H475 H 0.63874 0.92788 1.03241 0.0
H476 H 0.70415 0.79272 1.01952 0.0
H477 H 0.67382 0.74151 1.0157 0.0
H478 H 0.75452 0.70622 0.99287 0.0
H479 H 0.78515 0.7569 0.99701 0.0
Nd480 Nd 0.91135 0.12352 0.90147 0.0
Nd481 Nd 0.95045 0.08906 0.90527 0.0
C482 C 0.85365 0.14809 0.89438 0.0
C483 C 0.84267 0.17077 0.88474 0.0
C484 C 0.80889 0.17696 0.88317 0.0
C485 C 0.79824 0.19765 0.8736 0.0
C486 C 0.82137 0.21221 0.8655 0.0
C487 C 0.85529 0.20616 0.86724 0.0
C488 C 0.86589 0.18552 0.87681 0.0
C489 C 0.96187 0.17361 0.9024 0.0
C490 C 0.92723 0.08032 0.87676 0.0
C491 C 1.00831 0.05885 0.9029 0.0
C492 C 0.04181 0.07273 0.9022 0.0
C493 C 0.04713 0.10351 0.89644 0.0
C494 C 0.07623 0.12105 0.8987 0.0
C495 C 0.10015 0.10828 0.90687 0.0
C496 C 0.09621 0.076 0.91155 0.0
C497 C 0.06719 0.05838 0.90924 0.0
C498 C 0.90269 0.0566 0.92122 0.0
C499 C 0.93453 0.12806 0.9286 0.0
O500 O 0.86542 0.12006 0.89034 0.0
O501 O 0.87171 0.16105 0.90315 0.0
O502 O 0.93167 0.17601 0.90634 0.0
O503 O 0.96571 0.14342 0.89827 0.0
O504 O 0.92179 0.11123 0.87998 0.0
O505 O 0.93393 0.06183 0.88652 0.0
O506 O 0.98884 0.06509 0.89351 0.0
O507 O 0.99353 0.06305 0.91357 0.0
O508 O 0.93448 0.05766 0.92265 0.0
O509 O 0.89602 0.07233 0.91088 0.0
O510 O 0.9614 0.12185 0.92229 0.0
O511 O 0.90678 0.12469 0.92259 0.0
H512 H 0.79081 0.16549 0.88925 0.0
H513 H 0.77193 0.2017 0.87236 0.0
H514 H 0.87361 0.21745 0.86122 0.0
H515 H 0.89213 0.18084 0.87798 0.0
H516 H 1.02786 0.11512 0.89095 0.0
H517 H 0.079 0.14559 0.89481 0.0
H518 H 0.11408 0.06556 0.91797 0.0
H519 H 0.06346 1.03476 0.91379 0.0
Nd520 Nd 0.69705 0.16101 0.65115 0.0
Nd521 Nd 0.73111 0.2 0.65505 0.0
C522 C 0.67262 0.1035 0.64391 0.0
C523 C 0.6494 0.09295 0.63439 0.0
C524 C 0.64288 0.05931 0.63276 0.0
C525 C 0.6214 0.04911 0.62336 0.0
C526 C 0.60639 0.07256 0.61552 0.0
C527 C 0.6128 0.10634 0.61731 0.0
C528 C 0.63421 0.11648 0.62671 0.0
C529 C 0.64644 0.21111 0.6522 0.0
C530 C 0.74067 0.17697 0.62657 0.0
C531 C 0.76096 0.25788 0.65263 0.0
C532 C 0.74676 0.29123 0.6519 0.0
C533 C 0.71602 0.29633 0.64606 0.0
C534 C 0.69808 0.32521 0.64831 0.0
C535 C 0.71038 0.3491 0.65656 0.0
C536 C 0.74267 0.34541 0.66132 0.0
C537 C 0.7607 0.31662 0.65901 0.0
C538 C 0.76381 0.15249 0.67102 0.0
C539 C 0.69212 0.18369 0.67834 0.0
O540 O 0.70038 0.11558 0.63974 0.0
O541 O 0.66 0.12105 0.6529 0.0
O542 O 0.64435 0.18086 0.65606 0.0
O543 O 0.67662 0.21523 0.64807 0.0
O544 O 0.70963 0.17164 0.62968 0.0
O545 O 0.7589 0.18345 0.63641 0.0
O546 O 0.75491 0.23834 0.64326 0.0
O547 O 0.75685 0.24316 0.66332 0.0
O548 O 0.76253 0.18424 0.67244 0.0
O549 O 0.74819 0.14571 0.66066 0.0
O550 O 0.69825 0.21064 0.6721 0.0
O551 O 0.69568 0.15609 0.67226 0.0
H552 H 0.65464 0.04098 0.63865 0.0
H553 H 0.61709 1.02292 0.62207 0.0
H554 H 0.60119 0.12489 0.61148 0.0
H555 H 0.63911 0.14261 0.62794 0.0
H556 H 0.70472 0.27705 0.64051 0.0
H557 H 0.67355 0.32777 0.64436 0.0
H558 H 0.75281 0.36324 0.6678 0.0
H559 H 0.78429 0.31306 0.66362 0.0
Nd560 Nd 0.66046 0.94738 0.40055 0.0
Nd561 Nd 0.6218 0.98093 0.40484 0.0
C562 C 0.71784 0.92465 0.3923 0.0
C563 C 0.72935 0.9044 0.382 0.0
C564 C 0.76332 0.89996 0.38021 0.0
C565 C 0.77465 0.88115 0.37022 0.0
C566 C 0.75201 0.86665 0.36192 0.0
C567 C 0.7179 0.87136 0.36375 0.0
C568 C 0.70662 0.89017 0.37375 0.0
C569 C 0.61084 0.89653 0.40228 0.0
C570 C 0.64334 0.99074 0.37623 0.0
C571 C 0.5632 1.00989 0.40273 0.0
C572 C 0.52988 0.99558 0.40204 0.0
C573 C 0.52494 0.9647 0.39633 0.0
C574 C 0.49595 0.94693 0.39856 0.0
C575 C 0.47179 0.95959 0.40666 0.0
C576 C 0.47538 0.99194 0.41129 0.0
C577 C 0.50429 1.00978 0.40901 0.0
C578 C 0.66901 1.0145 0.42055 0.0
C579 C 0.64225 0.94365 0.42824 0.0
O580 O 0.70567 0.9533 0.38916 0.0
O581 O 0.70011 0.90957 0.40069 0.0
O582 O 0.64128 0.89483 0.40602 0.0
O583 O 0.6063 0.92649 0.39805 0.0
O584 O 0.64791 0.95963 0.37927 0.0
O585 O 0.63804 1.00903 0.38616 0.0
O586 O 0.58264 1.00429 0.39327 0.0
O587 O 0.57818 1.00551 0.41334 0.0
O588 O 0.63717 1.01362 0.42186 0.0
O589 O 0.6761 0.99816 0.41036 0.0
O590 O 0.61425 0.94972 0.42261 0.0
O591 O 0.66873 0.94603 0.42141 0.0
H592 H 0.78104 0.91114 0.38651 0.0
H593 H 0.80107 0.87821 0.36891 0.0
H594 H 0.69996 0.86012 0.35757 0.0
H595 H 0.68024 0.89361 0.37507 0.0
H596 H 0.54438 0.95323 0.39088 0.0
H597 H 0.49344 0.92233 0.39472 0.0
H598 H 0.45732 1.00231 0.41765 0.0
H599 H 0.50773 1.03349 0.41352 0.0
Nd600 Nd 0.87243 0.91065 0.15083 0.0
Nd601 Nd 0.83943 0.87101 0.15534 0.0
C602 C 0.89524 0.9681 0.14281 0.0
C603 C 0.91793 0.97814 0.13303 0.0
C604 C 0.9243 1.01168 0.13106 0.0
C605 C 0.94575 1.0213 0.12157 0.0
C606 C 0.96089 0.99736 0.11397 0.0
C607 C 0.95443 0.96371 0.11604 0.0
C608 C 0.93305 0.95415 0.12553 0.0
C609 C 0.92371 0.86096 0.15209 0.0
C610 C 0.82942 0.89267 0.12656 0.0
C611 C 0.80989 0.81269 0.15381 0.0
C612 C 0.82433 0.77945 0.15307 0.0
C613 C 0.8547 0.77446 0.14693 0.0
C614 C 0.87294 0.74568 0.14904 0.0
C615 C 0.8613 0.72179 0.15743 0.0
C616 C 0.82937 0.72539 0.16254 0.0
C617 C 0.81105 0.75408 0.16037 0.0
C618 C 0.80702 0.91919 0.17105 0.0
C619 C 0.8791 0.89117 0.17829 0.0
O620 O 0.8676 0.95509 0.13894 0.0
O621 O 0.90851 0.95162 0.15195 0.0
O622 O 0.92558 0.89142 0.15572 0.0
O623 O 0.89354 0.85645 0.14806 0.0
O624 O 0.86035 0.8986 0.12956 0.0
O625 O 0.81135 0.88624 0.13648 0.0
O626 O 0.81472 0.83184 0.14423 0.0
O627 O 0.81506 0.82796 0.16429 0.0
O628 O 0.81099 0.88802 0.1733 0.0
O629 O 0.82022 0.92476 0.16011 0.0
O630 O 0.87275 0.86339 0.17257 0.0
O631 O 0.87549 0.91791 0.1717 0.0
H632 H 0.91258 1.03035 0.13681 0.0
H633 H 0.95012 0.0474 0.12005 0.0
H634 H 0.96614 0.9448 0.11041 0.0
H635 H 0.92828 0.9281 0.12704 0.0
H636 H 0.86549 0.79374 0.14123 0.0
H637 H 0.89718 0.74317 0.14484 0.0
H638 H 0.81978 0.70755 0.16914 0.0
H639 H 0.78777 0.75757 0.16522 0.0
Nd640 Nd 0.6226 0.58934 0.90505 0.0
Nd641 Nd 0.66186 0.62312 0.9012 0.0
C642 C 0.56445 0.55995 0.90252 0.0
C643 C 0.53112 0.57422 0.90168 0.0
C644 C 0.52633 0.60524 0.89605 0.0
C645 C 0.49732 0.62307 0.89825 0.0
C646 C 0.473 0.61033 0.90624 0.0
C647 C 0.4764 0.57781 0.91076 0.0
C648 C 0.50533 0.55991 0.9085 0.0
C649 C 0.66966 0.55617 0.92107 0.0
C650 C 0.63916 0.62785 0.92841 0.0
C651 C 0.71969 0.64686 0.89389 0.0
C652 C 0.73094 0.66874 0.88404 0.0
C653 C 0.76478 0.67451 0.88248 0.0
C654 C 0.77569 0.69468 0.87279 0.0
C655 C 0.75276 0.70915 0.86458 0.0
C656 C 0.71877 0.7034 0.86628 0.0
C657 C 0.70792 0.68328 0.87597 0.0
C658 C 0.61188 0.67379 0.90237 0.0
C659 C 0.64567 0.57991 0.87658 0.0
O660 O 0.58422 0.56586 0.89319 0.0
O661 O 0.57899 0.56411 0.91324 0.0
O662 O 0.63782 0.55736 0.92235 0.0
O663 O 0.67687 0.57216 0.91084 0.0
O664 O 0.61213 0.62194 0.92217 0.0
O665 O 0.66678 0.6243 0.92231 0.0
O666 O 0.70784 0.61863 0.89013 0.0
O667 O 0.70159 0.66057 0.9025 0.0
O668 O 0.64202 0.67559 0.90641 0.0
O669 O 0.60789 0.64387 0.898 0.0
O670 O 0.65097 0.61086 0.87975 0.0
O671 O 0.6392 0.56157 0.8864 0.0
H672 H 0.54592 0.6168 0.89072 0.0
H673 H 0.49495 0.6478 0.89449 0.0
H674 H 0.45822 0.56735 0.91704 0.0
H675 H 0.50865 0.53609 0.91295 0.0
H676 H 0.78271 0.6632 0.88866 0.0
H677 H 0.80203 0.6985 0.87158 0.0
H678 H 0.7006 0.71463 0.86018 0.0
H679 H 0.68164 0.67891 0.87714 0.0
Nd680 Nd 0.73106 0.37058 0.15526 0.0
Nd681 Nd 0.6969 0.40959 0.15141 0.0
C682 C 0.76069 0.31255 0.15269 0.0
C683 C 0.74646 0.27932 0.15159 0.0
C684 C 0.71599 0.27468 0.14551 0.0
C685 C 0.69778 0.24584 0.14749 0.0
C686 C 0.70955 0.22162 0.15572 0.0
C687 C 0.74168 0.22479 0.16067 0.0
C688 C 0.75997 0.2535 0.15862 0.0
C689 C 0.76428 0.41765 0.1712 0.0
C690 C 0.6926 0.38735 0.17866 0.0
C691 C 0.67241 0.46694 0.14392 0.0
C692 C 0.65025 0.47736 0.13401 0.0
C693 C 0.64419 0.511 0.1321 0.0
C694 C 0.62372 0.52106 0.12236 0.0
C695 C 0.60918 0.49748 0.11446 0.0
C696 C 0.6153 0.46371 0.11648 0.0
C697 C 0.63576 0.45371 0.12621 0.0
C698 C 0.64667 0.35925 0.15256 0.0
C699 C 0.74024 0.39349 0.1268 0.0
O700 O 0.7553 0.33261 0.14341 0.0
O701 O 0.75597 0.32674 0.16344 0.0
O702 O 0.76339 0.38583 0.17243 0.0
O703 O 0.7479 0.42489 0.16105 0.0
O704 O 0.69864 0.36029 0.17246 0.0
O705 O 0.6959 0.41486 0.17251 0.0
O706 O 0.70085 0.45533 0.14021 0.0
O707 O 0.65903 0.44903 0.15265 0.0
O708 O 0.64451 0.3893 0.15665 0.0
O709 O 0.67667 0.35558 0.14819 0.0
O710 O 0.70924 0.39865 0.12998 0.0
O711 O 0.7587 0.38719 0.1366 0.0
H712 H 0.70505 0.29427 0.13999 0.0
H713 H 0.67342 0.24359 0.14338 0.0
H714 H 0.7514 0.20664 0.16713 0.0
H715 H 0.78337 0.25668 0.16341 0.0
H716 H 0.65536 0.52942 0.13809 0.0
H717 H 0.61907 0.54721 0.12105 0.0
H718 H 0.60474 0.44509 0.11042 0.0
H719 H 0.64051 0.42759 0.12759 0.0
Nd720 Nd 0.95005 0.48081 0.40502 0.0
Nd721 Nd 0.91082 0.44672 0.40125 0.0
C722 C 1.00809 0.51039 0.40245 0.0
C723 C 0.04146 0.49621 0.40155 0.0
C724 C 0.04634 0.46541 0.39575 0.0
C725 C 0.07535 0.44753 0.39788 0.0
C726 C 0.09957 0.45997 0.40597 0.0
C727 C 0.09611 0.49232 0.41064 0.0
C728 C 0.06719 0.51029 0.40845 0.0
C729 C 0.90278 0.51399 0.42097 0.0
C730 C 0.93382 0.44236 0.42843 0.0
C731 C 0.85313 0.42249 0.39403 0.0
C732 C 0.8422 0.40019 0.38427 0.0
C733 C 0.80842 0.39424 0.38262 0.0
C734 C 0.79783 0.37369 0.373 0.0
C735 C 0.82102 0.35902 0.36495 0.0
C736 C 0.85494 0.36495 0.36673 0.0
C737 C 0.86547 0.38545 0.37635 0.0
C738 C 0.96112 0.39637 0.40235 0.0
C739 C 0.92694 0.48982 0.37655 0.0
O740 O 0.98826 0.50456 0.39314 0.0
O741 O 0.99365 0.50608 0.41318 0.0
O742 O 0.93462 0.51291 0.42226 0.0
O743 O 0.89567 0.49782 0.41077 0.0
O744 O 0.96077 0.44827 0.42214 0.0
O745 O 0.90612 0.44588 0.42238 0.0
O746 O 0.86487 0.45066 0.39015 0.0
O747 O 0.8712 0.4092 0.40274 0.0
O748 O 0.93104 0.39433 0.40645 0.0
O749 O 0.96487 0.42632 0.39799 0.0
O750 O 0.92159 0.45892 0.37977 0.0
O751 O 0.93346 0.50829 0.38632 0.0
H752 H 1.0268 0.45403 0.39034 0.0
H753 H 0.07779 0.42295 0.394 0.0
H754 H 0.11423 0.50255 0.417 0.0
H755 H 0.06381 0.53394 0.41302 0.0
H756 H 0.79029 0.40571 0.38869 0.0
H757 H 0.77154 0.36976 0.37173 0.0
H758 H 0.87331 0.35358 0.36075 0.0
H759 H 0.89171 0.38995 0.37758 0.0
Nd760 Nd 0.84092 0.69921 0.65526 0.0
Nd761 Nd 0.87492 0.65999 0.65148 0.0
C762 C 0.81138 0.75733 0.6528 0.0
C763 C 0.82555 0.79067 0.65208 0.0
C764 C 0.8566 0.79564 0.64646 0.0
C765 C 0.87427 0.82465 0.64871 0.0
C766 C 0.86136 0.84881 0.65674 0.0
C767 C 0.82885 0.84518 0.66128 0.0
C768 C 0.81111 0.81625 0.65897 0.0
C769 C 0.80764 0.65209 0.67122 0.0
C770 C 0.87929 0.6827 0.67868 0.0
C771 C 0.8992 0.60234 0.64425 0.0
C772 C 0.92158 0.59144 0.63449 0.0
C773 C 0.92746 0.55769 0.63278 0.0
C774 C 0.94805 0.54714 0.62315 0.0
C775 C 0.96283 0.57033 0.61515 0.0
C776 C 0.957 0.60421 0.61699 0.0
C777 C 0.93645 0.61471 0.62662 0.0
C778 C 0.92544 0.71002 0.65263 0.0
C779 C 0.83178 0.67613 0.6268 0.0
O780 O 0.81751 0.73777 0.64344 0.0
O781 O 0.81541 0.74262 0.66349 0.0
O782 O 0.80874 0.68389 0.67249 0.0
O783 O 0.82379 0.64494 0.66101 0.0
O784 O 0.87344 0.70967 0.67241 0.0
O785 O 0.87581 0.6551 0.6726 0.0
O786 O 0.87101 0.61413 0.64036 0.0
O787 O 0.91248 0.62033 0.65296 0.0
O788 O 0.92732 0.67997 0.65673 0.0
O789 O 0.8955 0.7139 0.64823 0.0
O790 O 0.86273 0.67069 0.63 0.0
O791 O 0.81332 0.68276 0.63657 0.0
H792 H 0.86828 0.77621 0.64108 0.0
H793 H 0.89899 0.82717 0.64494 0.0
H794 H 0.81828 0.86323 0.66759 0.0
H795 H 0.78727 0.81279 0.66342 0.0
H796 H 0.91588 0.53956 0.6388 0.0
H797 H 0.95191 0.52088 0.62182 0.0
H798 H 0.96846 0.62258 0.61105 0.0
H799 H 0.93201 0.64092 0.6279 0.0
Nd800 Nd 0.62192 0.4797 0.7553 0.0
Nd801 Nd 0.66107 0.44558 0.759 0.0
C802 C 0.56388 0.5094 0.75788 0.0
C803 C 0.53046 0.49533 0.75856 0.0
C804 C 0.52532 0.46441 0.76423 0.0
C805 C 0.49632 0.44675 0.76192 0.0
C806 C 0.47237 0.45952 0.75376 0.0
C807 C 0.47613 0.49193 0.74918 0.0
C808 C 0.50502 0.50968 0.75156 0.0
C809 C 0.66924 0.51303 0.73943 0.0
C810 C 0.63802 0.44166 0.73182 0.0
C811 C 0.71864 0.42064 0.76608 0.0
C812 C 0.72913 0.39742 0.77561 0.0
C813 C 0.7628 0.39077 0.77727 0.0
C814 C 0.77293 0.36942 0.78672 0.0
C815 C 0.7494 0.35468 0.7946 0.0
C816 C 0.7156 0.36119 0.79277 0.0
C817 C 0.70552 0.38247 0.78332 0.0
C818 C 0.61085 0.39521 0.75781 0.0
C819 C 0.64527 0.48875 0.78373 0.0
O820 O 0.58347 0.50299 0.76722 0.0
O821 O 0.57857 0.50559 0.74717 0.0
O822 O 0.63741 0.51195 0.7381 0.0
O823 O 0.67631 0.49675 0.74961 0.0
O824 O 0.61109 0.44745 0.73814 0.0
O825 O 0.66572 0.44513 0.73786 0.0
O826 O 0.70686 0.44853 0.77024 0.0
O827 O 0.70077 0.40818 0.75716 0.0
O828 O 0.64092 0.39335 0.75369 0.0
O829 O 0.60704 0.42509 0.76225 0.0
O830 O 0.65068 0.45784 0.78051 0.0
O831 O 0.63854 0.5072 0.77397 0.0
H832 H 0.54464 0.4528 0.7697 0.0
H833 H 0.49371 0.42212 0.76574 0.0
H834 H 0.45827 0.50244 0.74278 0.0
H835 H 0.50862 0.53342 0.74708 0.0
H836 H 0.78119 0.40236 0.77136 0.0
H837 H 0.79915 0.36503 0.78804 0.0
H838 H 0.69698 0.34978 0.79863 0.0
H839 H 0.67937 0.38748 0.78207 0.0
Nd840 Nd 0.84088 0.37056 1.0055 0.0
Nd841 Nd 0.87476 0.40942 1.00951 0.0
C842 C 0.81192 0.31218 1.00791 0.0
C843 C 0.82623 0.27887 1.00863 0.0
C844 C 0.85726 0.2739 1.01426 0.0
C845 C 0.87502 0.2449 1.01201 0.0
C846 C 0.86222 0.22076 1.00397 0.0
C847 C 0.82972 0.22438 0.99942 0.0
C848 C 0.81188 0.25329 1.00173 0.0
C849 C 0.80704 0.4176 0.98975 0.0
C850 C 0.87768 0.38948 0.98192 0.0
C851 C 0.8984 0.46683 1.01723 0.0
C852 C 0.9193 0.47837 1.02733 0.0
C853 C 0.9241 0.51229 1.02897 0.0
C854 C 0.94326 0.52362 1.03887 0.0
C855 C 0.95773 0.50106 1.04721 0.0
C856 C 0.95284 0.46699 1.04547 0.0
C857 C 0.93368 0.4557 1.03558 0.0
C858 C 0.92534 0.35942 1.00788 0.0
C859 C 0.83132 0.39306 1.03399 0.0
O860 O 0.81783 0.33175 1.01729 0.0
O861 O 0.81597 0.32693 0.99724 0.0
O862 O 0.80768 0.38576 0.98858 0.0
O863 O 0.82385 0.42491 0.99979 0.0
O864 O 0.87187 0.36184 0.98779 0.0
O865 O 0.87535 0.41632 0.98854 0.0
O866 O 0.86975 0.45515 1.02063 0.0
O867 O 0.9129 0.4486 1.00884 0.0
O868 O 0.92702 0.38958 1.00388 0.0
O869 O 0.89551 0.35543 1.01236 0.0
O870 O 0.8624 0.39787 1.03088 0.0
O871 O 0.81294 0.38717 1.02413 0.0
H872 H 0.86884 0.29332 1.01966 0.0
H873 H 0.89973 0.24236 1.01579 0.0
H874 H 0.81923 0.20634 0.9931 0.0
H875 H 0.78805 0.25675 0.99728 0.0
H876 H 0.91283 0.52996 1.02267 0.0
H877 H 0.94635 0.55001 1.0401 0.0
H878 H 0.96407 0.44909 1.05169 0.0
H879 H 0.92999 0.42936 1.03436 0.0
Nd880 Nd 0.95158 0.58876 0.25512 0.0
Nd881 Nd 0.9122 0.6234 0.25877 0.0
C882 C 1.00953 0.55881 0.25753 0.0
C883 C 0.04293 0.57299 0.25821 0.0
C884 C 0.04818 0.60332 0.2643 0.0
C885 C 0.07688 0.62148 0.26199 0.0
C886 C 0.10039 0.60985 0.25342 0.0
C887 C 0.09666 0.5779 0.24841 0.0
C888 C 0.06808 0.55963 0.25078 0.0
C889 C 0.90376 0.55592 0.23931 0.0
C890 C 0.93618 0.62728 0.23169 0.0
C891 C 0.85468 0.64923 0.26546 0.0
C892 C 0.84442 0.67407 0.27443 0.0
C893 C 0.81081 0.68105 0.27606 0.0
C894 C 0.80097 0.70411 0.28497 0.0
C895 C 0.82476 0.72025 0.29232 0.0
C896 C 0.85851 0.71348 0.29047 0.0
C897 C 0.86828 0.69048 0.28157 0.0
C898 C 0.96304 0.67323 0.25785 0.0
C899 C 0.9278 0.58009 0.28358 0.0
O900 O 0.98997 0.56493 0.26692 0.0
O901 O 0.99474 0.56283 0.24686 0.0
O902 O 0.93557 0.55689 0.23789 0.0
O903 O 0.89699 0.57203 0.24955 0.0
O904 O 0.96292 0.62139 0.2381 0.0
O905 O 0.9083 0.62371 0.2376 0.0
O906 O 0.86667 0.62213 0.27025 0.0
O907 O 0.87226 0.66019 0.25618 0.0
O908 O 0.93301 0.67566 0.25376 0.0
O909 O 0.96646 0.64318 0.26217 0.0
O910 O 0.9218 0.61088 0.28031 0.0
O911 O 0.93521 0.56163 0.2739 0.0
H912 H 1.02911 0.61419 0.2701 0.0
H913 H 0.07956 0.64571 0.26616 0.0
H914 H 0.11423 0.56829 0.24169 0.0
H915 H 0.06441 0.53636 0.24598 0.0
H916 H 0.79223 0.66838 0.27057 0.0
H917 H 0.77479 0.70869 0.28633 0.0
H918 H 0.87731 0.72592 0.29592 0.0
H919 H 0.8944 0.68526 0.28032 0.0
Nd920 Nd 0.7315 0.69959 0.50557 0.0
Nd921 Nd 0.6976 0.65999 0.50925 0.0
C922 C 0.75866 0.75867 0.50812 0.0
C923 C 0.74135 0.79043 0.50749 0.0
C924 C 0.7087 0.79078 0.50316 0.0
C925 C 0.69227 0.82047 0.50123 0.0
C926 C 0.70804 0.85076 0.50369 0.0
C927 C 0.74004 0.85021 0.50898 0.0
C928 C 0.75669 0.82016 0.5108 0.0
C929 C 0.76489 0.65279 0.48951 0.0
C930 C 0.69325 0.68292 0.48207 0.0
C931 C 0.67361 0.60226 0.51646 0.0
C932 C 0.65159 0.59145 0.52634 0.0
C933 C 0.64534 0.55776 0.52798 0.0
C934 C 0.62501 0.54733 0.5377 0.0
C935 C 0.6109 0.5706 0.54585 0.0
C936 C 0.61716 0.60441 0.54408 0.0
C937 C 0.63742 0.61478 0.53437 0.0
C938 C 0.64702 0.71018 0.50813 0.0
C939 C 0.74115 0.67607 0.53388 0.0
O940 O 0.75042 0.74018 0.51756 0.0
O941 O 0.75909 0.74212 0.4977 0.0
O942 O 0.76375 0.68464 0.48829 0.0
O943 O 0.74888 0.64545 0.49973 0.0
O944 O 0.69911 0.70982 0.48837 0.0
O945 O 0.69663 0.65526 0.48813 0.0
O946 O 0.70195 0.61392 0.52022 0.0
O947 O 0.66003 0.6204 0.50784 0.0
O948 O 0.64518 0.68028 0.50387 0.0
O949 O 0.67683 0.71367 0.51266 0.0
O950 O 0.71017 0.67064 0.5307 0.0
O951 O 0.75956 0.68279 0.5241 0.0
H952 H 0.69633 0.76803 0.50066 0.0
H953 H 0.66807 0.81939 0.49694 0.0
H954 H 0.7528 0.87298 0.51119 0.0
H955 H 0.78176 0.8202 0.51438 0.0
H956 H 0.65638 0.53959 0.52183 0.0
H957 H 0.62077 0.52111 0.53896 0.0
H958 H 0.60619 0.62283 0.55014 0.0
H959 H 0.64217 0.64094 0.53313 0.0
Nd960 Nd 0.41178 0.44866 0.25932 0.0
Nd961 Nd 0.45088 0.48271 0.25533 0.0
C962 C 0.35421 0.42464 0.26677 0.0
C963 C 0.34358 0.40222 0.27655 0.0
C964 C 0.30988 0.39586 0.27822 0.0
C965 C 0.2996 0.37507 0.28782 0.0
C966 C 0.32302 0.36058 0.29583 0.0
C967 C 0.35685 0.36693 0.29402 0.0
C968 C 0.36707 0.38766 0.28442 0.0
C969 C 0.46196 0.39822 0.25821 0.0
C970 C 0.42828 0.49194 0.28388 0.0
C971 C 0.50889 0.51254 0.25759 0.0
C972 C 0.54234 0.49844 0.25832 0.0
C973 C 0.54752 0.46774 0.26415 0.0
C974 C 0.57657 0.44998 0.26194 0.0
C975 C 0.60054 0.46243 0.25374 0.0
C976 C 0.59674 0.49466 0.24898 0.0
C977 C 0.56778 0.5125 0.25124 0.0
C978 C 0.40321 0.51529 0.23938 0.0
C979 C 0.43425 0.44359 0.2321 0.0
O980 O 0.36619 0.45271 0.27064 0.0
O981 O 0.37191 0.41139 0.25794 0.0
O982 O 0.4317 0.39606 0.25433 0.0
O983 O 0.46605 0.42834 0.26236 0.0
O984 O 0.42294 0.46097 0.28075 0.0
O985 O 0.43453 0.51027 0.27404 0.0
O986 O 0.48941 0.50663 0.267 0.0
O987 O 0.49408 0.50821 0.24694 0.0
O988 O 0.43499 0.51405 0.23793 0.0
O989 O 0.39649 0.49972 0.24975 0.0
O990 O 0.46129 0.44975 0.2383 0.0
O991 O 0.40665 0.44715 0.23822 0.0
H992 H 0.29158 0.40717 0.27219 0.0
H993 H 0.27336 0.37079 0.28912 0.0
H994 H 0.37538 0.35571 0.29997 0.0
H995 H 0.39325 0.39246 0.28315 0.0
H996 H 0.52821 0.45635 0.26968 0.0
H997 H 0.57923 0.42548 0.26589 0.0
H998 H 0.61466 0.50487 0.24253 0.0
H999 H 0.56416 0.53607 0.24663 0.0
Nd1000 Nd 0.37269 0.65971 1.00927 0.0
Nd1001 Nd 0.33975 0.69971 1.00483 0.0
C1002 C 0.39524 0.60157 1.01678 0.0
C1003 C 0.41814 0.59011 1.02628 0.0
C1004 C 0.4239 0.55626 1.02773 0.0
C1005 C 0.44543 0.54516 1.03697 0.0
C1006 C 0.46136 0.56792 1.04483 0.0
C1007 C 0.45554 0.60192 1.04327 0.0
C1008 C 0.43404 0.61295 1.03403 0.0
C1009 C 0.424 0.70934 1.00844 0.0
C1010 C 0.32941 0.67748 1.03357 0.0
C1011 C 0.30968 0.75781 1.00643 0.0
C1012 C 0.3239 0.79108 1.0073 0.0
C1013 C 0.35422 0.79599 1.01345 0.0
C1014 C 0.37232 0.82486 1.01145 0.0
C1015 C 0.36058 0.84893 1.00314 0.0
C1016 C 0.32866 0.84539 0.99804 0.0
C1017 C 0.31048 0.8166 1.0001 0.0
C1018 C 0.30789 0.65165 0.98888 0.0
C1019 C 0.38119 0.68159 0.98214 0.0
O1020 O 0.36801 0.61486 1.02095 0.0
O1021 O 0.40841 0.61841 1.00772 0.0
O1022 O 0.42609 0.67888 1.00482 0.0
O1023 O 0.39368 0.71386 1.01233 0.0
O1024 O 0.36031 0.67105 1.03062 0.0
O1025 O 0.3116 0.68449 1.02364 0.0
O1026 O 0.31448 0.73852 1.01597 0.0
O1027 O 0.31516 0.74275 0.99591 0.0
O1028 O 0.31233 0.68275 0.98662 0.0
O1029 O 0.32055 0.64609 0.9999 0.0
O1030 O 0.37463 0.70885 0.98817 0.0
O1031 O 0.37646 0.65423 0.98826 0.0
H1032 H 0.41171 0.53847 1.02175 0.0
H1033 H 0.44979 0.51886 1.03792 0.0
H1034 H 0.46716 0.61992 1.04932 0.0
H1035 H 0.42959 0.63924 1.03298 0.0
H1036 H 0.36511 0.77658 1.01908 0.0
H1037 H 0.39657 0.82729 1.01564 0.0
H1038 H 0.31898 0.86336 0.9915 0.0
H1039 H 0.28722 0.81318 0.99524 0.0
Nd1040 Nd 0.1597 0.62353 0.75915 0.0
Nd1041 Nd 0.12062 0.58948 0.75526 0.0
C1042 C 0.21722 0.64779 0.76654 0.0
C1043 C 0.22769 0.67045 0.77626 0.0
C1044 C 0.26136 0.67684 0.77799 0.0
C1045 C 0.27147 0.6978 0.78756 0.0
C1046 C 0.24792 0.71244 0.79547 0.0
C1047 C 0.21412 0.70609 0.79359 0.0
C1048 C 0.20406 0.6852 0.78403 0.0
C1049 C 0.10953 0.67401 0.75808 0.0
C1050 C 0.14353 0.58011 0.78374 0.0
C1051 C 0.06265 0.55968 0.75769 0.0
C1052 C 1.0292 0.57373 0.75849 0.0
C1053 C 1.02408 0.6045 0.76428 0.0
C1054 C 0.99496 0.62218 0.76212 0.0
C1055 C 0.97084 0.60956 0.75402 0.0
C1056 C 0.9746 0.57727 0.74932 0.0
C1057 C 1.00364 0.55951 0.75154 0.0
C1058 C 0.16811 0.55668 0.73929 0.0
C1059 C 0.13707 0.62838 0.73195 0.0
O1060 O 0.20529 0.61976 0.77048 0.0
O1061 O 0.19955 0.6608 0.75765 0.0
O1062 O 0.13975 0.67611 0.75414 0.0
O1063 O 0.10548 0.6439 0.76225 0.0
O1064 O 0.14875 0.6111 0.78062 0.0
O1065 O 0.13724 0.56182 0.77391 0.0
O1066 O 0.08227 0.56567 0.76705 0.0
O1067 O 0.07728 0.56396 0.747 0.0
O1068 O 0.13631 0.55791 0.7379 0.0
O1069 O 0.17498 0.57243 0.74961 0.0
O1070 O 0.11007 0.62229 0.73819 0.0
O1071 O 0.16471 0.62478 0.73803 0.0
H1072 H 0.27977 0.6654 0.77204 0.0
H1073 H 0.29769 0.70206 0.78892 0.0
H1074 H 0.19548 0.71742 0.79947 0.0
H1075 H 0.17791 0.68038 0.78272 0.0
H1076 H 0.04348 0.616 0.76971 0.0
H1077 H 0.99234 0.64673 0.76601 0.0
H1078 H 0.95658 0.56692 0.74295 0.0
H1079 H 1.00721 0.53588 0.74697 0.0
Nd1080 Nd 0.19744 0.41058 0.50906 0.0
Nd1081 Nd 0.23041 0.37052 0.50485 0.0
C1082 C 0.17433 0.4686 0.51642 0.0
C1083 C 0.15101 0.47925 0.52591 0.0
C1084 C 0.14506 0.51294 0.52774 0.0
C1085 C 0.12347 0.52314 0.53712 0.0
C1086 C 0.1078 0.49963 0.54474 0.0
C1087 C 0.11362 0.46582 0.54273 0.0
C1088 C 0.13513 0.45569 0.53336 0.0
C1089 C 0.14606 0.36103 0.5082 0.0
C1090 C 0.24004 0.39304 0.53357 0.0
C1091 C 0.26038 0.31238 0.50659 0.0
C1092 C 0.24617 0.27909 0.50742 0.0
C1093 C 0.21532 0.2743 0.51321 0.0
C1094 C 0.19757 0.24524 0.51117 0.0
C1095 C 0.21022 0.22083 0.5032 0.0
C1096 C 0.24256 0.22433 0.49847 0.0
C1097 C 0.26038 0.25334 0.50056 0.0
C1098 C 0.26278 0.41851 0.48897 0.0
C1099 C 0.18968 0.38839 0.48195 0.0
O1100 O 0.20164 0.45561 0.52065 0.0
O1101 O 0.16165 0.45175 0.50727 0.0
O1102 O 0.14427 0.39135 0.50439 0.0
O1103 O 0.17624 0.35655 0.51225 0.0
O1104 O 0.20927 0.39954 0.53046 0.0
O1105 O 0.25816 0.38578 0.52374 0.0
O1106 O 0.25526 0.33167 0.51611 0.0
O1107 O 0.25519 0.32742 0.49605 0.0
O1108 O 0.25836 0.38741 0.48672 0.0
O1109 O 0.24985 0.42411 0.49994 0.0
O1110 O 0.196 0.36121 0.48807 0.0
O1111 O 0.1943 0.41583 0.48803 0.0
H1112 H 0.15735 0.53129 0.52202 0.0
H1113 H 0.11959 0.54935 0.53858 0.0
H1114 H 0.10149 0.44724 0.54838 0.0
H1115 H 0.13957 0.42952 0.53196 0.0
H1116 H 0.20383 0.29389 0.51856 0.0
H1117 H 0.17295 0.24288 0.51506 0.0
H1118 H 0.25292 0.2061 0.49219 0.0
H1119 H 0.28406 0.25669 0.49599 0.0
Nd1120 Nd 0.41162 0.62347 0.40143 0.0
Nd1121 Nd 0.45163 0.5908 0.40579 0.0
C1122 C 0.35347 0.64583 0.39384 0.0
C1123 C 0.34273 0.66819 0.38407 0.0
C1124 C 0.30897 0.67369 0.38212 0.0
C1125 C 0.29871 0.69451 0.37252 0.0
C1126 C 0.32223 0.70984 0.36479 0.0
C1127 C 0.3561 0.70432 0.36687 0.0
C1128 C 0.36629 0.68359 0.37647 0.0
C1129 C 0.46106 0.67496 0.40229 0.0
C1130 C 0.42935 0.58067 0.37705 0.0
C1131 C 0.5099 0.56099 0.40405 0.0
C1132 C 0.54311 0.57536 0.40297 0.0
C1133 C 0.54763 0.60561 0.39674 0.0
C1134 C 0.57645 0.62392 0.39859 0.0
C1135 C 0.60087 0.61248 0.40682 0.0
C1136 C 0.59775 0.58058 0.41196 0.0
C1137 C 0.569 0.56219 0.41006 0.0
C1138 C 0.40359 0.55856 0.4217 0.0
C1139 C 0.43329 0.63171 0.42858 0.0
O1140 O 0.36647 0.61821 0.38995 0.0
O1141 O 0.3704 0.65934 0.40281 0.0
O1142 O 0.43063 0.67672 0.40603 0.0
O1143 O 0.46569 0.64478 0.3983 0.0
O1144 O 0.42298 0.6115 0.38005 0.0
O1145 O 0.43635 0.56279 0.38697 0.0
O1146 O 0.49028 0.56544 0.39458 0.0
O1147 O 0.4951 0.56666 0.41461 0.0
O1148 O 0.43472 0.56305 0.42397 0.0
O1149 O 0.39803 0.57132 0.41071 0.0
O1150 O 0.46062 0.62531 0.42255 0.0
O1151 O 0.40594 0.62704 0.42243 0.0
H1152 H 0.29063 0.66173 0.38794 0.0
H1153 H 0.27246 0.69818 0.371 0.0
H1154 H 0.37468 0.71622 0.36115 0.0
H1155 H 0.39251 0.67946 0.37795 0.0
H1156 H 0.52794 0.61629 0.39119 0.0
H1157 H 0.57853 0.64814 0.39436 0.0
H1158 H 0.61598 0.57112 0.41845 0.0
H1159 H 0.56589 0.53899 0.41497 0.0
Nd1160 Nd 0.1968 0.66195 0.15149 0.0
Nd1161 Nd 0.23107 0.70101 0.1551 0.0
C1162 C 0.17144 0.60445 0.14469 0.0
C1163 C 0.14684 0.59421 0.13563 0.0
C1164 C 0.14024 0.56063 0.13388 0.0
C1165 C 0.11746 0.55081 0.12487 0.0
C1166 C 0.10123 0.57459 0.11752 0.0
C1167 C 0.10761 0.6083 0.11948 0.0
C1168 C 0.13032 0.61806 0.12849 0.0
C1169 C 0.14638 0.71229 0.15242 0.0
C1170 C 0.24005 0.67735 0.12671 0.0
C1171 C 0.26117 0.75866 0.1523 0.0
C1172 C 0.24728 0.79208 0.15132 0.0
C1173 C 0.21638 0.7971 0.14559 0.0
C1174 C 0.19878 0.82628 0.14768 0.0
C1175 C 0.2116 0.85053 0.15567 0.0
C1176 C 0.24407 0.8469 0.16025 0.0
C1177 C 0.26175 0.81781 0.1581 0.0
C1178 C 0.26417 0.65373 0.17108 0.0
C1179 C 0.19262 0.68572 0.17859 0.0
O1180 O 0.19862 0.61655 0.14 0.0
O1181 O 0.16016 0.6219 0.15395 0.0
O1182 O 0.14427 0.68226 0.1565 0.0
O1183 O 0.17648 0.71608 0.14817 0.0
O1184 O 0.2091 0.67191 0.12993 0.0
O1185 O 0.25847 0.68412 0.13646 0.0
O1186 O 0.25498 0.73873 0.14306 0.0
O1187 O 0.2569 0.7445 0.16309 0.0
O1188 O 0.26295 0.68552 0.1724 0.0
O1189 O 0.24823 0.64676 0.16081 0.0
O1190 O 0.19863 0.71244 0.1722 0.0
O1191 O 0.19619 0.6579 0.17266 0.0
H1192 H 0.15298 0.54206 0.13937 0.0
H1193 H 0.1132 0.52466 0.12342 0.0
H1194 H 0.0951 0.62709 0.11404 0.0
H1195 H 0.13525 0.64415 0.12983 0.0
H1196 H 0.2047 0.77757 0.14028 0.0
H1197 H 0.17409 0.8288 0.14387 0.0
H1198 H 0.25461 0.86501 0.16652 0.0
H1199 H 0.28549 0.81432 0.16261 0.0
Nd1200 Nd 0.16103 0.44678 0.90111 0.0
Nd1201 Nd 0.12046 0.47932 0.90538 0.0
C1202 C 0.21905 0.42375 0.89364 0.0
C1203 C 0.22919 0.39964 0.88439 0.0
C1204 C 0.2628 0.39371 0.88226 0.0
C1205 C 0.27239 0.37112 0.87314 0.0
C1206 C 0.24834 0.35441 0.86609 0.0
C1207 C 0.21463 0.36025 0.8684 0.0
C1208 C 0.20511 0.38277 0.8775 0.0
C1209 C 0.11149 0.39521 0.90201 0.0
C1210 C 0.14326 0.49041 0.87682 0.0
C1211 C 0.06097 0.50632 0.90362 0.0
C1212 C 1.02945 0.48858 0.90421 0.0
C1213 C 1.02955 0.45602 0.90862 0.0
C1214 C 1.00011 0.4389 0.91013 0.0
C1215 C 0.96964 0.45377 0.90713 0.0
C1216 C 0.96986 0.48569 0.90179 0.0
C1217 C 0.99965 0.50307 0.9004 0.0
C1218 C 0.16811 0.51206 0.92123 0.0
C1219 C 0.13963 0.43893 0.92828 0.0
O1220 O 0.20557 0.45052 0.88918 0.0
O1221 O 0.2028 0.41179 0.90309 0.0
O1222 O 0.1418 0.39349 0.90587 0.0
O1223 O 0.10719 0.42525 0.89789 0.0
O1224 O 0.14998 0.45957 0.87976 0.0
O1225 O 0.13585 0.50807 0.88675 0.0
O1226 O 0.07907 0.49918 0.89396 0.0
O1227 O 0.07809 0.506 0.9139 0.0
O1228 O 0.13696 0.50741 0.9235 0.0
O1229 O 0.1739 0.49926 0.91025 0.0
O1230 O 0.11222 0.44491 0.92225 0.0
O1231 O 0.16691 0.44382 0.92212 0.0
H1232 H 0.28153 0.40675 0.88754 0.0
H1233 H 0.29853 0.36723 0.87142 0.0
H1234 H 0.19565 0.34735 0.86319 0.0
H1235 H 0.179 0.38719 0.87914 0.0
H1236 H 0.05242 0.44418 0.9114 0.0
H1237 H 1.00143 0.4148 0.91448 0.0
H1238 H 0.94699 0.49777 0.89916 0.0
H1239 H 0.9993 0.52797 0.89669 0.0
Nd1240 Nd 0.37372 0.41095 0.65119 0.0
Nd1241 Nd 0.34022 0.37115 0.65489 0.0
C1242 C 0.39751 0.46866 0.64388 0.0
C1243 C 0.42019 0.47902 0.63415 0.0
C1244 C 0.42664 0.51261 0.63235 0.0
C1245 C 0.44768 0.52252 0.62276 0.0
C1246 C 0.46229 0.49883 0.61491 0.0
C1247 C 0.45585 0.46513 0.61685 0.0
C1248 C 0.43489 0.45527 0.62643 0.0
C1249 C 0.42484 0.36127 0.65233 0.0
C1250 C 0.33054 0.39425 0.62652 0.0
C1251 C 0.31364 0.31179 0.65245 0.0
C1252 C 0.33135 0.28024 0.65309 0.0
C1253 C 0.36387 0.28023 0.65758 0.0
C1254 C 0.38073 0.25073 0.65939 0.0
C1255 C 0.36557 0.2203 0.65665 0.0
C1256 C 0.33372 0.22056 0.65123 0.0
C1257 C 0.31662 0.25041 0.64953 0.0
C1258 C 0.30637 0.41795 0.67083 0.0
C1259 C 0.37825 0.38863 0.67839 0.0
O1260 O 0.36955 0.45655 0.63993 0.0
O1261 O 0.4106 0.45112 0.65278 0.0
O1262 O 0.42633 0.39123 0.65653 0.0
O1263 O 0.39502 0.3573 0.64788 0.0
O1264 O 0.36142 0.40004 0.62973 0.0
O1265 O 0.31213 0.38741 0.63629 0.0
O1266 O 0.32156 0.33028 0.64298 0.0
O1267 O 0.31309 0.32843 0.66285 0.0
O1268 O 0.308 0.38615 0.67218 0.0
O1269 O 0.32206 0.42511 0.66052 0.0
O1270 O 0.37281 0.36157 0.67213 0.0
O1271 O 0.37437 0.41616 0.6723 0.0
H1272 H 0.41522 0.53109 0.63826 0.0
H1273 H 0.45206 0.54867 0.62135 0.0
H1274 H 0.46717 0.4464 0.61102 0.0
H1275 H 0.43002 0.42918 0.6278 0.0
H1276 H 0.37581 0.30307 0.66025 0.0
H1277 H 0.40478 0.25202 0.6638 0.0
H1278 H 0.32144 0.19769 0.6488 0.0
H1279 H 0.2917 0.25011 0.64581 0.0
H1280 H 0.09279 0.16123 0.44314 0.0
H1281 H 0.22255 0.15526 0.49851 0.0
H1282 H 0.18289 0.10405 0.44417 0.0
H1283 H 0.14744 0.23048 0.49457 0.0
H1284 H 0.19401 0.12211 0.48283 0.0
H1285 H 0.09991 0.1736 0.46549 0.0
C1286 C 0.11364 0.15084 0.44815 0.0
C1287 C 0.13783 0.13249 0.44185 0.0
C1288 C 0.18327 0.14549 0.48565 0.0
C1289 C 0.14574 0.14569 0.46716 0.0
C1290 C 0.19952 0.16432 0.49462 0.0
C1291 C 0.18791 0.19603 0.49755 0.0
C1292 C 0.15565 0.1588 0.47945 0.0
C1293 C 0.15754 0.20632 0.49245 0.0
C1294 C 0.11766 0.15775 0.46084 0.0
C1295 C 0.16421 0.11912 0.44866 0.0
N1296 N 0.14292 0.18816 0.48336 0.0
N1297 N 0.16763 0.12625 0.46091 0.0
H1298 H 0.22224 0.92863 0.69455 0.0
H1299 H 0.08879 0.89694 0.74547 0.0
H1300 H 0.15535 0.84582 0.69328 0.0
H1301 H 0.16423 0.97206 0.74788 0.0
H1302 H 0.12151 0.86836 0.72974 0.0
H1303 H 0.21042 0.9356 0.71656 0.0
C1304 C 0.20523 0.91166 0.699 0.0
C1305 C 0.18912 0.88711 0.69212 0.0
C1306 C 0.13143 0.89055 0.73396 0.0
C1307 C 0.17468 0.89541 0.7173 0.0
C1308 C 0.11286 0.90681 0.74305 0.0
C1309 C 0.12343 0.93749 0.74773 0.0
C1310 C 0.16049 0.90532 0.72947 0.0
C1311 C 0.15477 0.94898 0.74423 0.0
C1312 C 0.19858 0.91553 0.7116 0.0
C1313 C 0.16786 0.86533 0.69832 0.0
N1314 N 0.17185 0.9333 0.73509 0.0
N1315 N 0.16054 0.87052 0.71056 0.0
H1316 H 0.39293 0.97103 0.9444 0.0
H1317 H 0.42417 0.83853 0.99543 0.0
H1318 H 0.47606 0.90426 0.94338 0.0
H1319 H 0.34909 0.91424 0.99771 0.0
H1320 H 0.45332 0.87126 0.9799 0.0
H1321 H 0.38606 0.95997 0.96646 0.0
C1322 C 0.40998 0.9542 0.94892 0.0
C1323 C 0.43458 0.93788 0.94209 0.0
C1324 C 0.43103 0.88125 0.98405 0.0
C1325 C 0.4264 0.92429 0.96734 0.0
C1326 C 0.41444 0.86267 0.99304 0.0
C1327 C 0.38357 0.87329 0.99759 0.0
C1328 C 0.41639 0.91035 0.97953 0.0
C1329 C 0.37229 0.90474 0.99414 0.0
C1330 C 0.40619 0.94798 0.96155 0.0
C1331 C 0.45648 0.91688 0.94837 0.0
N1332 N 0.38829 0.92181 0.98508 0.0
N1333 N 0.45134 0.90995 0.96064 0.0
H1334 H 0.40468 0.10173 0.24972 0.0
H1335 H 0.4112 0.22925 0.19349 0.0
H1336 H 0.48105 0.17535 0.24549 0.0
H1337 H 0.36155 0.13494 0.19413 0.0
H1338 H 0.42244 0.22325 0.21601 0.0
H1339 H 0.37242 0.12973 0.23361 0.0
C1340 C 0.41413 0.1244 0.2457 0.0
C1341 C 0.44599 0.13559 0.24862 0.0
C1342 C 0.40845 0.20433 0.21121 0.0
C1343 C 0.4098 0.16716 0.23005 0.0
C1344 C 0.40226 0.20765 0.19842 0.0
C1345 C 0.38621 0.18216 0.19199 0.0
C1346 C 0.39776 0.17571 0.21748 0.0
C1347 C 0.3747 0.15481 0.19871 0.0
C1348 C 0.39582 0.14031 0.23648 0.0
C1349 C 0.45679 0.16553 0.24335 0.0
N1350 N 0.38084 0.15225 0.21106 0.0
N1351 N 0.43916 0.17979 0.23402 0.0
H1352 H 0.09487 0.90938 0.21673 0.0
H1353 H 0.2238 0.91586 0.16078 0.0
H1354 H 0.18978 0.9581 0.21664 0.0
H1355 H 0.14909 0.84035 0.16452 0.0
H1356 H 0.19633 0.94754 0.17719 0.0
H1357 H 0.10165 0.89818 0.19424 0.0
C1358 C 0.11679 0.91809 0.21194 0.0
C1359 C 0.14219 0.93389 0.21852 0.0
C1360 C 0.18542 0.92445 0.17415 0.0
C1361 C 0.14954 0.92237 0.19305 0.0
C1362 C 0.20103 0.90647 0.16477 0.0
C1363 C 0.18934 0.875 0.16159 0.0
C1364 C 0.1583 0.91057 0.18046 0.0
C1365 C 0.15928 0.86431 0.16683 0.0
C1366 C 0.12056 0.91192 0.19916 0.0
C1367 C 0.16996 0.94512 0.21195 0.0
N1368 N 0.14527 0.88163 0.1763 0.0
N1369 N 0.17296 0.939 0.19962 0.0
H1370 H 0.40622 0.97171 0.41153 0.0
H1371 H 0.41288 0.84248 0.4671 0.0
H1372 H 0.48197 0.89717 0.4155 0.0
H1373 H 0.35454 0.93174 0.46589 0.0
H1374 H 0.42564 0.84974 0.44478 0.0
H1375 H 0.37334 0.94326 0.42734 0.0
C1376 C 0.41546 0.94882 0.41546 0.0
C1377 C 0.4472 0.93732 0.41248 0.0
C1378 C 0.40946 0.86727 0.44938 0.0
C1379 C 0.4103 0.90516 0.43073 0.0
C1380 C 0.40231 0.86316 0.46206 0.0
C1381 C 0.38349 0.88708 0.4683 0.0
C1382 C 0.39717 0.89516 0.44303 0.0
C1383 C 0.36994 0.91326 0.46144 0.0
C1384 C 0.39679 0.93263 0.42451 0.0
C1385 C 0.45776 0.90715 0.41764 0.0
N1386 N 0.3773 0.91677 0.44922 0.0
N1387 N 0.43974 0.89257 0.4268 0.0
H1388 H 0.33343 0.16602 0.66613 0.0
H1389 H 0.47644 0.14902 0.71453 0.0
H1390 H 0.43182 0.20355 0.6592 0.0
H1391 H 0.37885 0.10684 0.71792 0.0
H1392 H 0.46647 0.15694 0.69207 0.0
H1393 H 0.35593 0.12891 0.68155 0.0
C1394 C 0.35996 0.16592 0.66751 0.0
C1395 C 0.38041 0.18949 0.6618 0.0
C1396 C 0.44757 0.14533 0.69772 0.0
C1397 C 0.40613 0.14808 0.68014 0.0
C1398 C 0.45319 0.14107 0.71051 0.0
C1399 C 0.42798 0.12839 0.71808 0.0
C1400 C 0.41667 0.13651 0.69262 0.0
C1401 C 0.39855 0.11778 0.71247 0.0
C1402 C 0.37284 0.14484 0.67654 0.0
C1403 C 0.41473 0.18726 0.66396 0.0
N1404 N 0.3936 0.1224 0.70014 0.0
N1405 N 0.42641 0.16796 0.67335 0.0
H1406 H 0.15948 0.22633 0.96701 0.0
H1407 H 0.16552 0.09568 0.91193 0.0
H1408 H 0.21794 0.13714 0.96605 0.0
H1409 H 0.09032 0.17091 0.91554 0.0
H1410 H 0.19846 0.12424 0.92767 0.0
H1411 H 0.14649 0.21846 0.94475 0.0
C1412 C 0.17003 0.20554 0.96204 0.0
C1413 C 0.18897 0.18183 0.96834 0.0
C1414 C 0.17512 0.13498 0.92478 0.0
C1415 C 0.17499 0.17303 0.94313 0.0
C1416 C 0.15641 0.11873 0.91577 0.0
C1417 C 0.12481 0.13043 0.9127 0.0
C1418 C 0.16178 0.16272 0.93089 0.0
C1419 C 0.11443 0.16078 0.91776 0.0
C1420 C 0.16275 0.20108 0.94939 0.0
C1421 C 0.20247 0.15548 0.96156 0.0
N1422 N 0.13247 0.17543 0.92688 0.0
N1423 N 0.19497 0.15162 0.94937 0.0
H1424 H 0.97802 0.90817 0.71726 0.0
H1425 H 0.84894 0.91425 0.6616 0.0
H1426 H 0.88873 0.96655 0.71591 0.0
H1427 H 0.92376 0.83882 0.66569 0.0
H1428 H 0.8772 0.94719 0.67742 0.0
H1429 H 0.97083 0.89519 0.69497 0.0
C1430 C 0.95735 0.9187 0.7122 0.0
C1431 C 0.9334 0.9376 0.71839 0.0
C1432 C 0.88793 0.9238 0.67462 0.0
C1433 C 0.92539 0.92365 0.69315 0.0
C1434 C 0.87185 0.90509 0.66557 0.0
C1435 C 0.88349 0.87342 0.66261 0.0
C1436 C 0.91543 0.91042 0.68087 0.0
C1437 C 0.91367 0.86297 0.66782 0.0
C1438 C 0.95328 0.91142 0.69953 0.0
C1439 C 0.90723 0.95109 0.7115 0.0
N1440 N 0.92815 0.88103 0.67697 0.0
N1441 N 0.90375 0.9436 0.69929 0.0
H1442 H 0.91274 0.22715 0.46681 0.0
H1443 H 0.90613 0.09716 0.41149 0.0
H1444 H 0.85546 0.13732 0.46599 0.0
H1445 H 0.98148 0.17204 0.41512 0.0
H1446 H 0.87347 0.12554 0.42739 0.0
H1447 H 0.92531 0.21954 0.44449 0.0
C1448 C 0.90238 0.20625 0.46186 0.0
C1449 C 0.8839 0.18231 0.46821 0.0
C1450 C 0.89678 0.13625 0.42447 0.0
C1451 C 0.89733 0.17385 0.44293 0.0
C1452 C 0.91532 0.1201 0.41536 0.0
C1453 C 0.94691 0.13172 0.41226 0.0
C1454 C 0.91026 0.16381 0.43062 0.0
C1455 C 0.95739 0.16195 0.41736 0.0
C1456 C 0.90941 0.20195 0.44918 0.0
C1457 C 0.87061 0.15584 0.46146 0.0
N1458 N 0.93951 0.1765 0.42657 0.0
N1459 N 0.87782 0.15216 0.44923 0.0
H1460 H 0.647 0.23349 0.16424 0.0
H1461 H 0.68558 0.10937 0.21645 0.0
H1462 H 0.7199 0.156 0.16089 0.0
H1463 H 0.59443 0.1649 0.21637 0.0
H1464 H 0.69157 0.11905 0.19434 0.0
H1465 H 0.61922 0.20192 0.18048 0.0
C1466 C 0.65641 0.20916 0.16653 0.0
C1467 C 0.68644 0.19774 0.16149 0.0
C1468 C 0.66991 0.12884 0.19901 0.0
C1469 C 0.65525 0.16202 0.18031 0.0
C1470 C 0.6666 0.12348 0.2117 0.0
C1471 C 0.63975 0.13684 0.21824 0.0
C1472 C 0.64693 0.149 0.19282 0.0
C1473 C 0.6157 0.15456 0.21162 0.0
C1474 C 0.6406 0.19123 0.17591 0.0
C1475 C 0.69737 0.1661 0.16482 0.0
N1476 N 0.6203 0.16093 0.19926 0.0
N1477 N 0.68225 0.1497 0.17426 0.0
H1478 H 0.66677 0.97023 0.91124 0.0
H1479 H 0.65823 0.84151 0.96692 0.0
H1480 H 0.5906 0.89625 0.91507 0.0
H1481 H 0.71669 0.93055 0.96582 0.0
H1482 H 0.64616 0.84859 0.94454 0.0
H1483 H 0.6992 0.94161 0.92715 0.0
C1484 C 0.65736 0.94742 0.91516 0.0
C1485 C 0.6256 0.93615 0.91211 0.0
C1486 C 0.66222 0.8661 0.94918 0.0
C1487 C 0.66199 0.90381 0.93048 0.0
C1488 C 0.66897 0.8621 0.9619 0.0
C1489 C 0.68762 0.88602 0.96817 0.0
C1490 C 0.67474 0.89388 0.94284 0.0
C1491 C 0.7014 0.91208 0.96134 0.0
C1492 C 0.67577 0.93113 0.92426 0.0
C1493 C 0.61482 0.90607 0.91727 0.0
N1494 N 0.69444 0.91549 0.94908 0.0
N1495 N 0.63257 0.89141 0.92648 0.0
H1496 H 0.9789 0.16186 0.94331 0.0
H1497 H 0.85005 0.15532 0.99907 0.0
H1498 H 0.88958 0.10376 0.94462 0.0
H1499 H 0.92459 0.23085 0.995 0.0
H1500 H 0.87834 0.12253 0.98319 0.0
H1501 H 0.97178 0.17462 0.96563 0.0
C1502 C 0.95823 0.15134 0.94837 0.0
C1503 C 0.93426 0.13259 0.94216 0.0
C1504 C 0.88901 0.14591 0.98601 0.0
C1505 C 0.92633 0.14628 0.96744 0.0
C1506 C 0.87291 0.16453 0.9951 0.0
C1507 C 0.88445 0.1962 0.99808 0.0
C1508 C 0.91643 0.15938 0.97974 0.0
C1509 C 0.91457 0.20671 0.99286 0.0
C1510 C 0.9542 0.1585 0.96105 0.0
C1511 C 0.90809 0.11911 0.94905 0.0
N1512 N 0.92906 0.18874 0.98367 0.0
N1513 N 0.90466 0.12647 0.96127 0.0
H1514 H 0.65856 0.22793 0.69322 0.0
H1515 H 0.66628 0.09861 0.74876 0.0
H1516 H 0.71649 0.13837 0.69421 0.0
H1517 H 0.59021 0.17289 0.74494 0.0
H1518 H 0.69882 0.12716 0.73288 0.0
H1519 H 0.64621 0.22061 0.71557 0.0
C1520 C 0.66912 0.20716 0.69821 0.0
C1521 C 0.68771 0.18319 0.69191 0.0
C1522 C 0.67538 0.13772 0.73576 0.0
C1523 C 0.67453 0.17507 0.71722 0.0
C1524 C 0.65691 0.12147 0.74485 0.0
C1525 C 0.62515 0.13285 0.74789 0.0
C1526 C 0.66168 0.16512 0.72955 0.0
C1527 C 0.61443 0.16299 0.74275 0.0
C1528 C 0.66221 0.20303 0.71091 0.0
C1529 C 0.70125 0.1569 0.69871 0.0
N1530 N 0.63226 0.17762 0.73355 0.0
N1531 N 0.69415 0.15338 0.71096 0.0
H1532 H 0.59681 0.92187 0.44569 0.0
H1533 H 0.74093 0.9039 0.49367 0.0
H1534 H 0.69508 0.96211 0.44174 0.0
H1535 H 0.64204 0.86858 0.50123 0.0
H1536 H 0.71873 0.9406 0.47806 0.0
H1537 H 0.60737 0.91425 0.46814 0.0
C1538 C 0.62034 0.92945 0.44958 0.0
C1539 C 0.64552 0.94152 0.44186 0.0
C1540 C 0.70165 0.92525 0.48325 0.0
C1541 C 0.6575 0.93376 0.4673 0.0
C1542 C 0.71437 0.90442 0.49238 0.0
C1543 C 0.69363 0.88155 0.49835 0.0
C1544 C 0.66821 0.92247 0.47979 0.0
C1545 C 0.6593 0.88429 0.49629 0.0
C1546 C 0.6263 0.92537 0.46236 0.0
C1547 C 0.67534 0.95167 0.44731 0.0
N1548 N 0.64774 0.90332 0.48681 0.0
N1549 N 0.68059 0.94724 0.45963 0.0
H1550 H 0.91516 0.98399 0.2453 0.0
H1551 H 0.89868 0.8438 0.1954 0.0
H1552 H 0.95539 0.88605 0.2508 0.0
H1553 H 0.86407 0.94441 0.1922 0.0
H1554 H 0.9055 0.8523 0.21802 0.0
H1555 H 0.87827 0.96211 0.2297 0.0
C1556 C 0.91574 0.95765 0.24357 0.0
C1557 C 0.94015 0.9373 0.24885 0.0
C1558 C 0.89584 0.87222 0.21235 0.0
C1559 C 0.89906 0.91247 0.2303 0.0
C1560 C 0.89228 0.86746 0.19947 0.0
C1561 C 0.88191 0.89377 0.19192 0.0
C1562 C 0.88849 0.90333 0.21756 0.0
C1563 C 0.87322 0.92374 0.19761 0.0
C1564 C 0.8948 0.94516 0.23444 0.0
C1565 C 0.93857 0.90317 0.24632 0.0
N1566 N 0.87693 0.92772 0.21002 0.0
N1567 N 0.91948 0.89199 0.23679 0.0
H1568 H 0.72429 0.65497 0.99878 0.0
H1569 H 0.59465 0.66109 0.94329 0.0
H1570 H 0.64884 0.7299 0.99501 0.0
H1571 H 0.68484 0.60403 0.94427 0.0
H1572 H 0.60195 0.67363 0.96561 0.0
H1573 H 0.69621 0.62218 0.98288 0.0
C1574 C 0.70129 0.66404 0.99487 0.0
C1575 C 0.68943 0.69556 0.99794 0.0
C1576 C 0.61969 0.65778 0.96096 0.0
C1577 C 0.65768 0.65875 0.97958 0.0
C1578 C 0.61557 0.65077 0.94827 0.0
C1579 C 0.6397 0.63236 0.94197 0.0
C1580 C 0.64782 0.64578 0.96726 0.0
C1581 C 0.66617 0.61912 0.94876 0.0
C1582 C 0.68531 0.64542 0.98577 0.0
C1583 C 0.65912 0.70588 0.9928 0.0
N1584 N 0.66968 0.62633 0.961 0.0
N1585 N 0.64474 0.68793 0.98359 0.0
H1586 H 0.66597 0.47446 0.24864 0.0
H1587 H 0.65885 0.34359 0.19366 0.0
H1588 H 0.59039 0.39976 0.24519 0.0
H1589 H 0.71715 0.43276 0.1944 0.0
H1590 H 0.64629 0.35154 0.21596 0.0
H1591 H 0.69867 0.44555 0.23289 0.0
C1592 C 0.65674 0.45145 0.24484 0.0
C1593 C 0.62508 0.44002 0.24795 0.0
C1594 C 0.66242 0.3689 0.21126 0.0
C1595 C 0.66177 0.40733 0.22975 0.0
C1596 C 0.66946 0.3644 0.19859 0.0
C1597 C 0.68822 0.38808 0.19223 0.0
C1598 C 0.67476 0.39695 0.21748 0.0
C1599 C 0.70181 0.41444 0.19895 0.0
C1600 C 0.6753 0.43499 0.23582 0.0
C1601 C 0.61453 0.4097 0.24294 0.0
N1602 N 0.69456 0.41833 0.21117 0.0
N1603 N 0.63243 0.39485 0.23381 0.0
H1604 H 0.924 0.33864 0.49537 0.0
H1605 H 0.89157 0.47133 0.44439 0.0
H1606 H 0.84864 0.41404 0.49783 0.0
H1607 H 0.97509 0.40505 0.44322 0.0
H1608 H 0.88474 0.45982 0.46643 0.0
H1609 H 0.95258 0.37137 0.47967 0.0
C1610 C 0.91408 0.36271 0.49297 0.0
C1611 C 0.88332 0.37325 0.49765 0.0
C1612 C 0.90494 0.44805 0.46149 0.0
C1613 C 0.91549 0.41031 0.47942 0.0
C1614 C 0.90872 0.45452 0.44887 0.0
C1615 C 0.93344 0.43847 0.44201 0.0
C1616 C 0.92531 0.4244 0.46722 0.0
C1617 C 0.95545 0.41749 0.44824 0.0
C1618 C 0.93034 0.38128 0.4839 0.0
C1619 C 0.87177 0.40458 0.49418 0.0
N1620 N 0.95034 0.41032 0.46049 0.0
N1621 N 0.88745 0.42166 0.48505 0.0
H1622 H 0.91262 0.72694 0.69358 0.0
H1623 H 0.90538 0.59739 0.74902 0.0
H1624 H 0.85492 0.6374 0.69453 0.0
H1625 H 0.98084 0.67215 0.74534 0.0
H1626 H 0.8727 0.62588 0.73315 0.0
H1627 H 0.92489 0.71961 0.71593 0.0
C1628 C 0.9021 0.70617 0.69856 0.0
C1629 C 0.8836 0.68221 0.69225 0.0
C1630 C 0.89603 0.63655 0.73606 0.0
C1631 C 0.89669 0.67406 0.71756 0.0
C1632 C 0.91458 0.62034 0.74514 0.0
C1633 C 0.94622 0.63187 0.74821 0.0
C1634 C 0.90955 0.66407 0.72989 0.0
C1635 C 0.95672 0.66212 0.74311 0.0
C1636 C 0.90895 0.70203 0.71126 0.0
C1637 C 0.87008 0.65591 0.69904 0.0
N1638 N 0.93884 0.67671 0.73392 0.0
N1639 N 0.87715 0.65238 0.71129 0.0
H1640 H 0.6472 0.33884 0.66473 0.0
H1641 H 0.68035 0.47054 0.71588 0.0
H1642 H 0.72238 0.41421 0.66218 0.0
H1643 H 0.59649 0.40489 0.71699 0.0
H1644 H 0.68694 0.45938 0.6938 0.0
H1645 H 0.61878 0.37146 0.68051 0.0
C1646 C 0.6571 0.36288 0.66712 0.0
C1647 C 0.68778 0.37343 0.6624 0.0
C1648 C 0.66672 0.44767 0.69874 0.0
C1649 C 0.65581 0.41036 0.68073 0.0
C1650 C 0.66308 0.45394 0.71138 0.0
C1651 C 0.63834 0.43796 0.71823 0.0
C1652 C 0.64618 0.4243 0.69297 0.0
C1653 C 0.61617 0.41726 0.71197 0.0
C1654 C 0.64094 0.38139 0.67625 0.0
C1655 C 0.69931 0.40474 0.66587 0.0
N1656 N 0.62113 0.41029 0.6997 0.0
N1657 N 0.68374 0.42174 0.67505 0.0
H1658 H 0.91401 0.48513 0.916 0.0
H1659 H 0.8998 0.34338 0.96482 0.0
H1660 H 0.9536 0.38738 0.90948 0.0
H1661 H 0.85743 0.44092 0.96801 0.0
H1662 H 0.9065 0.35256 0.94224 0.0
H1663 H 0.8767 0.46229 0.93127 0.0
C1664 C 0.91435 0.45866 0.91744 0.0
C1665 C 0.93863 0.43855 0.91194 0.0
C1666 C 0.89509 0.37161 0.94788 0.0
C1667 C 0.89701 0.41251 0.93012 0.0
C1668 C 0.89154 0.36644 0.96073 0.0
C1669 C 0.87919 0.39189 0.96827 0.0
C1670 C 0.88587 0.40227 0.94269 0.0
C1671 C 0.86813 0.42106 0.96258 0.0
C1672 C 0.89315 0.44558 0.92637 0.0
C1673 C 0.93683 0.40426 0.91412 0.0
N1674 N 0.87206 0.42555 0.95019 0.0
N1675 N 0.91746 0.39244 0.92346 0.0
H1676 H 0.92483 0.73221 0.16513 0.0
H1677 H 0.89589 0.5967 0.21548 0.0
H1678 H 0.84995 0.6565 0.16288 0.0
H1679 H 0.97646 0.66623 0.21717 0.0
H1680 H 0.88903 0.60862 0.19346 0.0
H1681 H 0.95436 0.69921 0.18053 0.0
C1682 C 0.91521 0.70803 0.16751 0.0
C1683 C 0.88434 0.69744 0.163 0.0
C1684 C 0.90861 0.62101 0.19851 0.0
C1685 C 0.9176 0.66006 0.18087 0.0
C1686 C 0.91243 0.61428 0.21111 0.0
C1687 C 0.93625 0.63113 0.21811 0.0
C1688 C 0.928 0.64571 0.19295 0.0
C1689 C 0.95751 0.65314 0.21203 0.0
C1690 C 0.93201 0.68931 0.17641 0.0
C1691 C 0.87318 0.66596 0.16641 0.0
N1692 N 0.95231 0.66052 0.1998 0.0
N1693 N 0.8894 0.64872 0.17537 0.0
H1694 H 0.6674 0.7319 0.46708 0.0
H1695 H 0.58943 0.67566 0.41458 0.0
H1696 H 0.70898 0.63368 0.46626 0.0
H1697 H 0.66646 0.60198 0.41227 0.0
H1698 H 0.62077 0.70442 0.43044 0.0
H1699 H 0.65492 0.7271 0.44472 0.0
C1700 C 0.67398 0.70946 0.46216 0.0
C1701 C 0.68806 0.68268 0.46853 0.0
C1702 C 0.63173 0.68284 0.42615 0.0
C1703 C 0.67402 0.67685 0.44319 0.0
C1704 C 0.61374 0.66632 0.41698 0.0
C1705 C 0.62495 0.63579 0.41236 0.0
C1706 C 0.66098 0.66851 0.43073 0.0
C1707 C 0.65652 0.62493 0.41588 0.0
C1708 C 0.66679 0.70663 0.44944 0.0
C1709 C 0.69699 0.65446 0.46177 0.0
N1710 N 0.67302 0.64079 0.42511 0.0
N1711 N 0.68957 0.6522 0.44951 0.0
H1712 H 0.47838 0.40973 0.21727 0.0
H1713 H 0.34773 0.41508 0.16217 0.0
H1714 H 0.38877 0.46767 0.21623 0.0
H1715 H 0.42306 0.34004 0.16596 0.0
H1716 H 0.3764 0.4483 0.17779 0.0
H1717 H 0.47073 0.39676 0.195 0.0
C1718 C 0.45753 0.42016 0.21228 0.0
C1719 C 0.43363 0.43893 0.21856 0.0
C1720 C 0.38714 0.42493 0.17496 0.0
C1721 C 0.42511 0.42501 0.19333 0.0
C1722 C 0.37082 0.40607 0.16602 0.0
C1723 C 0.38249 0.37442 0.16305 0.0
C1724 C 0.41491 0.41171 0.1811 0.0
C1725 C 0.41292 0.36417 0.16811 0.0
C1726 C 0.45321 0.4129 0.19963 0.0
C1727 C 0.40724 0.45231 0.21176 0.0
N1728 N 0.42763 0.38236 0.17717 0.0
N1729 N 0.40352 0.44483 0.19955 0.0
H1730 H 0.41235 0.72729 0.96708 0.0
H1731 H 0.4074 0.59856 0.91111 0.0
H1732 H 0.36164 0.63354 0.96653 0.0
H1733 H 0.48355 0.67241 0.91533 0.0
H1734 H 0.37514 0.6263 0.92729 0.0
H1735 H 0.42493 0.72031 0.9447 0.0
C1736 C 0.40347 0.70561 0.9622 0.0
C1737 C 0.3867 0.68056 0.96862 0.0
C1738 C 0.39852 0.63696 0.92442 0.0
C1739 C 0.39983 0.67297 0.94328 0.0
C1740 C 0.41683 0.62119 0.91516 0.0
C1741 C 0.44856 0.63262 0.91217 0.0
C1742 C 0.41235 0.66394 0.93081 0.0
C1743 C 0.45935 0.66247 0.9175 0.0
C1744 C 0.41044 0.70172 0.94948 0.0
C1745 C 0.37531 0.65309 0.96195 0.0
N1746 N 0.44168 0.67664 0.92685 0.0
N1747 N 0.38223 0.64996 0.94968 0.0
H1748 H 0.1796 0.59968 0.71603 0.0
H1749 H 0.14715 0.73201 0.66492 0.0
H1750 H 0.09583 0.66566 0.71713 0.0
H1751 H 0.22206 0.65619 0.66237 0.0
H1752 H 0.11866 0.69957 0.68073 0.0
H1753 H 0.18651 0.61119 0.694 0.0
C1754 C 0.16242 0.61644 0.71154 0.0
C1755 C 0.1376 0.63238 0.71838 0.0
C1756 C 0.14078 0.68951 0.67646 0.0
C1757 C 0.1458 0.64644 0.69316 0.0
C1758 C 0.15698 0.70791 0.66732 0.0
C1759 C 0.1876 0.69716 0.66258 0.0
C1760 C 0.15555 0.66044 0.68094 0.0
C1761 C 0.19905 0.66581 0.66606 0.0
C1762 C 0.16624 0.6229 0.69892 0.0
C1763 C 0.11556 0.6533 0.71213 0.0
N1764 N 0.18343 0.64889 0.67526 0.0
N1765 N 0.12069 0.66045 0.69987 0.0
H1766 H 0.15856 0.34273 0.46686 0.0
H1767 H 0.16518 0.47136 0.41089 0.0
H1768 H 0.20998 0.4361 0.46631 0.0
H1769 H 0.08869 0.39778 0.41491 0.0
H1770 H 0.19714 0.44332 0.42708 0.0
H1771 H 0.14649 0.34962 0.44444 0.0
C1772 C 0.16773 0.36429 0.46197 0.0
C1773 C 0.18455 0.38927 0.46841 0.0
C1774 C 0.17375 0.43278 0.42416 0.0
C1775 C 0.17197 0.39676 0.44302 0.0
C1776 C 0.15563 0.44872 0.4149 0.0
C1777 C 0.12388 0.43746 0.41185 0.0
C1778 C 0.15971 0.40583 0.43052 0.0
C1779 C 0.1129 0.4076 0.41712 0.0
C1780 C 0.16103 0.36813 0.44924 0.0
C1781 C 0.19628 0.4166 0.46173 0.0
N1782 N 0.13038 0.39329 0.42649 0.0
N1783 N 0.18962 0.41968 0.44944 0.0
H1784 H 0.34939 0.65605 0.49956 0.0
H1785 H 0.47888 0.66257 0.44379 0.0
H1786 H 0.42321 0.73235 0.49568 0.0
H1787 H 0.38508 0.61176 0.4441 0.0
H1788 H 0.47169 0.67456 0.46621 0.0
H1789 H 0.37753 0.6242 0.48337 0.0
C1790 C 0.37211 0.66558 0.49558 0.0
C1791 C 0.3834 0.69726 0.49867 0.0
C1792 C 0.45314 0.66018 0.46135 0.0
C1793 C 0.41516 0.66154 0.48001 0.0
C1794 C 0.45715 0.65354 0.44862 0.0
C1795 C 0.43215 0.63691 0.44212 0.0
C1796 C 0.42433 0.64937 0.4675 0.0
C1797 C 0.4046 0.62533 0.44873 0.0
C1798 C 0.3881 0.64752 0.48632 0.0
C1799 C 0.41336 0.7082 0.49344 0.0
N1800 N 0.40137 0.63192 0.46102 0.0
N1801 N 0.42774 0.69078 0.48407 0.0
H1802 H 0.08901 0.6731 0.24564 0.0
H1803 H 0.22405 0.64586 0.19473 0.0
H1804 H 0.16551 0.59875 0.24745 0.0
H1805 H 0.15296 0.72522 0.1932 0.0
H1806 H 0.21242 0.63858 0.21674 0.0
H1807 H 0.1211 0.70274 0.23002 0.0
C1808 C 0.11318 0.66362 0.24312 0.0
C1809 C 0.12427 0.63289 0.2476 0.0
C1810 C 0.19961 0.658 0.21173 0.0
C1811 C 0.16061 0.66628 0.22947 0.0
C1812 C 0.2062 0.66206 0.19913 0.0
C1813 C 0.18888 0.68568 0.19218 0.0
C1814 C 0.17458 0.67691 0.21734 0.0
C1815 C 0.16647 0.70646 0.1983 0.0
C1816 C 0.13138 0.68047 0.23408 0.0
C1817 C 0.15569 0.62188 0.24397 0.0
N1818 N 0.15926 0.70102 0.21054 0.0
N1819 N 0.17243 0.63817 0.23489 0.0
H1820 H 0.09393 0.40821 0.94347 0.0
H1821 H 0.22311 0.41393 0.99932 0.0
H1822 H 0.18793 0.45863 0.9438 0.0
H1823 H 0.14906 0.3379 0.9953 0.0
H1824 H 0.19526 0.44596 0.9831 0.0
H1825 H 0.10099 0.3961 0.96588 0.0
C1826 C 0.11569 0.41712 0.94831 0.0
C1827 C 0.14078 0.43367 0.94181 0.0
C1828 C 0.18459 0.42266 0.98603 0.0
C1829 C 0.14846 0.42107 0.96719 0.0
C1830 C 0.20041 0.40449 0.99531 0.0
C1831 C 0.18898 0.37283 0.99837 0.0
C1832 C 0.15752 0.40879 0.97969 0.0
C1833 C 0.15902 0.36203 0.99309 0.0
C1834 C 0.11963 0.41042 0.96104 0.0
C1835 C 0.16835 0.44511 0.94843 0.0
N1836 N 0.1448 0.37957 0.98372 0.0
N1837 N 0.17153 0.43845 0.96072 0.0
H1838 H 0.35047 0.43175 0.69432 0.0
H1839 H 0.48225 0.39655 0.74535 0.0
H1840 H 0.41474 0.3467 0.6932 0.0
H1841 H 0.40724 0.47221 0.74819 0.0
H1842 H 0.44936 0.36885 0.7295 0.0
H1843 H 0.36212 0.43831 0.71636 0.0
C1844 C 0.3669 0.41424 0.6988 0.0
C1845 C 0.38235 0.38915 0.69196 0.0
C1846 C 0.43956 0.39096 0.73384 0.0
C1847 C 0.3965 0.39687 0.71718 0.0
C1848 C 0.45823 0.40672 0.743 0.0
C1849 C 0.44787 0.43733 0.74784 0.0
C1850 C 0.41063 0.40617 0.72942 0.0
C1851 C 0.41658 0.4492 0.74442 0.0
C1852 C 0.37342 0.41785 0.71143 0.0
C1853 C 0.40279 0.36666 0.6982 0.0
N1854 N 0.39942 0.43402 0.73519 0.0
N1855 N 0.41001 0.37155 0.71046 0.0
H1856 H 0.03894 0.18255 0.39882 0.0
H1857 H 1.03203 0.38782 0.39886 0.0
H1858 H 0.12582 0.24198 0.40377 0.0
H1859 H 0.94515 0.32845 0.40388 0.0
H1860 H 0.06598 0.33647 0.39859 0.0
H1861 H 1.00498 0.2339 0.39861 0.0
C1862 C 0.05137 0.20605 0.39972 0.0
C1863 C 0.08647 0.20616 0.40123 0.0
C1864 C 0.03943 0.33431 0.39967 0.0
C1865 C 0.0459 0.26818 0.40091 0.0
C1866 C 1.01961 0.36433 0.39976 0.0
C1867 C 0.98452 0.36425 0.4013 0.0
C1868 C 1.02505 0.3022 0.40092 0.0
C1869 C 0.97155 0.33138 0.4026 0.0
C1870 C 1.03153 0.23606 0.39966 0.0
C1871 C 0.09942 0.23903 0.40252 0.0
N1872 N 0.99111 0.30285 0.40229 0.0
N1873 N 0.07984 0.26755 0.40224 0.0
H1874 H 0.99281 0.69287 0.65422 0.0
H1875 H 0.07965 0.87676 0.65402 0.0
H1876 H 0.9354 0.78111 0.64905 0.0
H1877 H 0.13709 0.78843 0.64913 0.0
H1878 H 1.02859 0.84344 0.65347 0.0
H1879 H 0.04387 0.72618 0.65364 0.0
C1880 C 0.99035 0.71928 0.65289 0.0
C1881 C 0.95787 0.73296 0.65155 0.0
C1882 C 0.05213 0.83093 0.65246 0.0
C1883 C 1.01976 0.77357 0.65114 0.0
C1884 C 0.08211 0.85033 0.65275 0.0
C1885 C 0.11461 0.83662 0.65147 0.0
C1886 C 0.05272 0.79601 0.65113 0.0
C1887 C 0.11385 0.80143 0.65 0.0
C1888 C 1.02034 0.73868 0.65257 0.0
C1889 C 0.95863 0.76813 0.64998 0.0
N1890 N 0.08436 0.78306 0.64998 0.0
N1891 N 0.98812 0.7865 0.64993 0.0
H1892 H 0.44509 0.82832 0.90404 0.0
H1893 H 0.62917 0.74102 0.90378 0.0
H1894 H 0.53349 0.88537 0.89887 0.0
H1895 H 0.54064 0.68393 0.89903 0.0
H1896 H 0.59584 0.79212 0.90323 0.0
H1897 H 0.47841 0.77722 0.90346 0.0
C1898 C 0.47154 0.83069 0.90271 0.0
C1899 C 0.48526 0.86309 0.90137 0.0
C1900 C 0.58329 0.76865 0.90224 0.0
C1901 C 0.52587 0.80115 0.90097 0.0
C1902 C 0.60269 0.73864 0.90254 0.0
C1903 C 0.58893 0.70624 0.9013 0.0
C1904 C 0.54832 0.76817 0.90095 0.0
C1905 C 0.55368 0.7071 0.89987 0.0
C1906 C 0.49094 0.80068 0.90239 0.0
C1907 C 0.52047 0.86222 0.8998 0.0
N1908 N 0.53531 0.73661 0.89984 0.0
N1909 N 0.53885 0.83271 0.89975 0.0
H1910 H 0.43304 0.28087 0.14884 0.0
H1911 H 0.63853 0.28844 0.14914 0.0
H1912 H 0.49299 0.19424 0.15377 0.0
H1913 H 0.57852 0.37501 0.15399 0.0
H1914 H 0.58733 0.25435 0.14882 0.0
H1915 H 0.48426 0.31495 0.1487 0.0
C1916 C 0.45663 0.26853 0.14975 0.0
C1917 C 0.45693 0.23346 0.15123 0.0
C1918 C 0.585 0.28086 0.14987 0.0
C1919 C 0.5188 0.27417 0.151 0.0
C1920 C 0.61493 0.30076 0.14999 0.0
C1921 C 0.61463 0.33581 0.15149 0.0
C1922 C 0.55274 0.29512 0.15106 0.0
C1923 C 0.58163 0.34866 0.15273 0.0
C1924 C 0.48657 0.28843 0.14974 0.0
C1925 C 0.48991 0.22061 0.15254 0.0
N1926 N 0.55318 0.32902 0.1524 0.0
N1927 N 0.51835 0.24026 0.15231 0.0
H1928 H 1.03432 0.68109 0.2603 0.0
H1929 H 0.0423 0.88609 0.26338 0.0
H1930 H 0.94721 0.74136 0.25753 0.0
H1931 H 0.12788 0.82706 0.25505 0.0
H1932 H 1.00826 0.83492 0.26343 0.0
H1933 H 0.06851 0.73221 0.26061 0.0
C1934 C 1.0219 0.70472 0.25994 0.0
C1935 C 0.98667 0.70513 0.25901 0.0
C1936 C 1.03454 0.8328 0.26164 0.0
C1937 C 1.02751 0.7669 0.25943 0.0
C1938 C 0.05445 0.86272 0.26161 0.0
C1939 C 0.08922 0.86269 0.25918 0.0
C1940 C 0.04851 0.80081 0.25948 0.0
C1941 C 0.10177 0.82995 0.25701 0.0
C1942 C 0.04187 0.73461 0.26003 0.0
C1943 C 0.97372 0.73817 0.25833 0.0
N1944 N 0.08215 0.8015 0.2573 0.0
N1945 N 0.99344 0.76655 0.25864 0.0
H1946 H 0.433 0.78828 0.51021 0.0
H1947 H 0.63821 0.78031 0.51359 0.0
H1948 H 0.49302 0.87544 0.5078 0.0
H1949 H 0.57932 0.6952 0.50476 0.0
H1950 H 0.5869 0.81435 0.51371 0.0
H1951 H 0.48431 0.75422 0.51049 0.0
C1952 C 0.45661 0.80073 0.50992 0.0
C1953 C 0.4569 0.83594 0.50911 0.0
C1954 C 0.58486 0.78817 0.51179 0.0
C1955 C 0.51889 0.79525 0.50948 0.0
C1956 C 0.61486 0.76826 0.51173 0.0
C1957 C 0.61489 0.73363 0.50914 0.0
C1958 C 0.55288 0.77431 0.50951 0.0
C1959 C 0.58216 0.7212 0.50684 0.0
C1960 C 0.48661 0.78084 0.51 0.0
C1961 C 0.48993 0.84895 0.50851 0.0
N1962 N 0.55364 0.7408 0.50717 0.0
N1963 N 0.51842 0.82929 0.5088 0.0
H1964 H 0.62812 0.32797 0.7562 0.0
H1965 H 0.44419 0.24057 0.75625 0.0
H1966 H 0.53957 0.38507 0.76132 0.0
H1967 H 0.5329 0.18355 0.76103 0.0
H1968 H 0.47736 0.29172 0.75684 0.0
H1969 H 0.59488 0.27689 0.75671 0.0
C1970 C 0.60166 0.33036 0.75751 0.0
C1971 C 0.58789 0.36278 0.75886 0.0
C1972 C 0.48999 0.26825 0.75782 0.0
C1973 C 0.54735 0.30083 0.75917 0.0
C1974 C 0.47068 0.23821 0.75749 0.0
C1975 C 0.48453 0.20579 0.75873 0.0
C1976 C 0.52497 0.26781 0.75914 0.0
C1977 C 0.51978 0.2067 0.76018 0.0
C1978 C 0.5823 0.30036 0.75778 0.0
C1979 C 0.55265 0.36191 0.76039 0.0
N1980 N 0.53805 0.23624 0.76024 0.0
N1981 N 0.53433 0.33239 0.76039 0.0
H1982 H 0.08012 0.19275 1.00653 0.0
H1983 H 0.99266 0.37662 1.00613 0.0
H1984 H 0.13734 0.28118 1.01115 0.0
H1985 H 0.93562 0.28837 1.01149 0.0
H1986 H 0.04386 0.34335 1.00669 0.0
H1987 H 1.02897 0.22606 1.00707 0.0
C1988 C 0.08252 0.2192 1.00773 0.0
C1989 C 0.11498 0.23293 1.00894 0.0
C1990 C 1.02037 0.33085 1.0078 0.0
C1991 C 0.05297 0.27353 1.00929 0.0
C1992 C 0.99031 0.35022 1.00749 0.0
C1993 C 0.95788 0.33652 1.00889 0.0
C1994 C 1.01993 0.29596 1.00927 0.0
C1995 C 0.95879 0.30136 1.0105 0.0
C1996 C 0.05248 0.2386 1.00803 0.0
C1997 C 0.11413 0.26815 1.01034 0.0
N1998 N 0.98834 0.28302 1.01054 0.0
N1999 N 0.08459 0.28651 1.01037 0.0
H2000 H 0.03852 0.68252 0.76143 0.0
H2001 H 1.03178 0.88783 0.76139 0.0
H2002 H 0.12549 0.74191 0.7566 0.0
H2003 H 0.94479 0.82843 0.75664 0.0
H2004 H 0.0657 0.83646 0.76161 0.0
H2005 H 1.0046 0.73389 0.76166 0.0
C2006 C 0.05097 0.70601 0.76056 0.0
C2007 C 0.08608 0.70611 0.75908 0.0
C2008 C 0.03914 0.83431 0.7606 0.0
C2009 C 0.04556 0.76816 0.75942 0.0
C2010 C 1.01932 0.86433 0.76053 0.0
C2011 C 0.98421 0.86424 0.75908 0.0
C2012 C 1.02473 0.80219 0.75942 0.0
C2013 C 0.97121 0.83137 0.75785 0.0
C2014 C 1.03116 0.73604 0.76063 0.0
C2015 C 0.09908 0.73898 0.75782 0.0
N2016 N 0.99077 0.80284 0.75813 0.0
N2017 N 0.07951 0.76751 0.7581 0.0
H2018 H 0.99223 0.19389 0.50653 0.0
H2019 H 0.07862 0.37814 0.50673 0.0
H2020 H 0.93447 0.2821 0.51125 0.0
H2021 H 0.13621 0.28981 0.51143 0.0
H2022 H 1.02761 0.3447 0.5072 0.0
H2023 H 0.04318 0.22737 0.50713 0.0
C2024 C 0.98967 0.22033 0.50776 0.0
C2025 C 0.95711 0.23394 0.50897 0.0
C2026 C 0.05117 0.33221 0.50819 0.0
C2027 C 1.0189 0.27474 0.50941 0.0
C2028 C 0.08113 0.35169 0.50794 0.0
C2029 C 0.11365 0.33802 0.50918 0.0
C2030 C 0.05182 0.29728 0.50945 0.0
C2031 C 0.11295 0.30279 0.51058 0.0
C2032 C 1.0196 0.23982 0.5081 0.0
C2033 C 0.95775 0.26915 0.51042 0.0
N2034 N 0.08349 0.28437 0.51058 0.0
N2035 N 0.9872 0.2876 0.51049 0.0
H2036 H 0.53994 0.18461 0.26139 0.0
H2037 H 0.53296 0.38986 0.26157 0.0
H2038 H 0.62696 0.24408 0.25681 0.0
H2039 H 0.44613 0.33031 0.2567 0.0
H2040 H 0.56699 0.33856 0.26178 0.0
H2041 H 0.506 0.23594 0.26163 0.0
C2042 C 0.55239 0.20812 0.26058 0.0
C2043 C 0.58752 0.20825 0.25917 0.0
C2044 C 0.54044 0.33636 0.26074 0.0
C2045 C 0.54697 0.27024 0.25951 0.0
C2046 C 0.52057 0.36634 0.26068 0.0
C2047 C 0.48547 0.36618 0.2592 0.0
C2048 C 0.52609 0.30423 0.25952 0.0
C2049 C 0.47253 0.33329 0.25793 0.0
C2050 C 0.53256 0.23812 0.26065 0.0
C2051 C 0.60053 0.24112 0.25798 0.0
N2052 N 0.49215 0.30481 0.2582 0.0
N2053 N 0.58094 0.26964 0.25826 0.0
H2054 H 0.63766 0.78788 1.01194 0.0
H2055 H 0.43212 0.78045 1.01097 0.0
H2056 H 0.57781 0.8741 1.00592 0.0
H2057 H 0.49217 0.69338 1.00755 0.0
H2058 H 0.48337 0.81446 1.01106 0.0
H2059 H 0.58642 0.75382 1.01228 0.0
C2060 C 0.61409 0.80015 1.01081 0.0
C2061 C 0.61383 0.83509 1.00897 0.0
C2062 C 0.4857 0.78787 1.01037 0.0
C2063 C 0.55193 0.79441 1.00945 0.0
C2064 C 0.45574 0.768 1.01039 0.0
C2065 C 0.45605 0.73283 1.00936 0.0
C2066 C 0.51797 0.77348 1.00952 0.0
C2067 C 0.48907 0.71984 1.00844 0.0
C2068 C 0.58414 0.78025 1.01095 0.0
C2069 C 0.58088 0.84783 1.00743 0.0
N2070 N 0.51753 0.73947 1.00863 0.0
N2071 N 0.55243 0.82821 1.00778 0.0
H2072 H 0.04096 0.38662 0.8973 0.0
H2073 H 1.03315 0.18151 0.8998 0.0
H2074 H 0.1269 0.32736 0.90484 0.0
H2075 H 0.94608 0.24175 0.90297 0.0
H2076 H 0.06731 0.23264 0.8995 0.0
H2077 H 1.00693 0.33544 0.89725 0.0
C2078 C 0.05319 0.3632 0.89889 0.0
C2079 C 0.08806 0.3631 0.90109 0.0
C2080 C 0.04069 0.23503 0.90017 0.0
C2081 C 0.04734 0.30123 0.90082 0.0
C2082 C 1.02073 0.20513 0.90027 0.0
C2083 C 0.9855 0.20553 0.9013 0.0
C2084 C 1.02635 0.26731 0.90088 0.0
C2085 C 0.97257 0.23856 0.90209 0.0
C2086 C 1.03328 0.33328 0.89887 0.0
C2087 C 0.1007 0.3303 0.90306 0.0
N2088 N 0.99229 0.26695 0.90177 0.0
N2089 N 0.08107 0.30186 0.90279 0.0
H2090 H 0.49191 0.37764 0.65563 0.0
H2091 H 0.57898 0.1939 0.65226 0.0
H2092 H 0.43528 0.29085 0.64703 0.0
H2093 H 0.63675 0.28267 0.6502 0.0
H2094 H 0.52795 0.22743 0.65173 0.0
H2095 H 0.54302 0.34427 0.65502 0.0
C2096 C 0.48963 0.35155 0.65357 0.0
C2097 C 0.45735 0.33832 0.65133 0.0
C2098 C 0.55156 0.24 0.65132 0.0
C2099 C 0.51927 0.29759 0.65087 0.0
C2100 C 0.58153 0.22047 0.65162 0.0
C2101 C 0.61411 0.23425 0.6511 0.0
C2102 C 0.55224 0.27506 0.6508 0.0
C2103 C 0.61345 0.26962 0.65042 0.0
C2104 C 0.51964 0.33212 0.65323 0.0
C2105 C 0.45833 0.30352 0.64881 0.0
N2106 N 0.58396 0.28806 0.65039 0.0
N2107 N 0.48783 0.28508 0.64877 0.0
H2108 H 0.62805 0.82919 0.40408 0.0
H2109 H 0.44376 0.74234 0.40347 0.0
H2110 H 0.53967 0.88639 0.39881 0.0
H2111 H 0.53245 0.6849 0.39933 0.0
H2112 H 0.47716 0.79333 0.40297 0.0
H2113 H 0.59472 0.77815 0.40357 0.0
C2114 C 0.60161 0.83161 0.40275 0.0
C2115 C 0.58789 0.86405 0.40137 0.0
C2116 C 0.48974 0.76981 0.40211 0.0
C2117 C 0.54725 0.80216 0.40101 0.0
C2118 C 0.47029 0.73986 0.40238 0.0
C2119 C 0.48406 0.70738 0.40129 0.0
C2120 C 0.52476 0.76922 0.40099 0.0
C2121 C 0.51938 0.70812 0.40005 0.0
C2122 C 0.58219 0.80164 0.40247 0.0
C2123 C 0.55268 0.86322 0.39979 0.0
N2124 N 0.53777 0.73758 0.40003 0.0
N2125 N 0.53431 0.83375 0.39976 0.0
H2126 H 0.93231 0.78997 0.14927 0.0
H2127 H 0.1379 0.78312 0.14869 0.0
H2128 H 0.9918 0.87709 0.15324 0.0
H2129 H 0.07839 0.69655 0.15416 0.0
H2130 H 0.08649 0.81706 0.1484 0.0
H2131 H 0.98374 0.75611 0.14912 0.0
C2132 C 0.95584 0.80246 0.14997 0.0
C2133 C 0.95592 0.8376 0.15117 0.0
C2134 C 0.08433 0.79058 0.14959 0.0
C2135 C 1.01809 0.79713 0.15093 0.0
C2136 C 0.11437 0.77075 0.14969 0.0
C2137 C 0.11426 0.73574 0.15136 0.0
C2138 C 0.05216 0.7763 0.15096 0.0
C2139 C 0.08135 0.72287 0.15278 0.0
C2140 C 0.98591 0.78268 0.14994 0.0
C2141 C 0.98886 0.85065 0.15222 0.0
N2142 N 0.0528 0.74244 0.15246 0.0
N2143 N 1.01744 0.83111 0.15199 0.0
H2144 H 0.22698 0.21243 0.34073 0.0
H2145 H 0.34507 0.36061 0.31984 0.0
H2146 H 0.29532 0.26149 0.36549 0.0
H2147 H 0.27647 0.3118 0.29513 0.0
H2148 H 0.32732 0.32429 0.33671 0.0
H2149 H 0.24471 0.24878 0.32387 0.0
C2150 C 0.24561 0.231 0.34261 0.0
C2151 C 0.2597 0.23411 0.35449 0.0
C2152 C 0.31614 0.32151 0.3276 0.0
C2153 C 0.28027 0.27545 0.33528 0.0
C2154 C 0.32638 0.3421 0.31797 0.0
C2155 C 0.31223 0.33905 0.3061 0.0
C2156 C 0.29163 0.29774 0.32531 0.0
C2157 C 0.28773 0.3151 0.30419 0.0
C2158 C 0.25583 0.25161 0.33299 0.0
C2159 C 0.28411 0.25813 0.35641 0.0
N2160 N 0.27822 0.29527 0.31372 0.0
N2161 N 0.29362 0.27797 0.34689 0.0
H2162 H 0.963 0.09561 0.56951 0.0
H2163 H 0.11104 0.97738 0.59077 0.0
H2164 H 1.01196 1.02655 0.54497 0.0
H2165 H 0.06155 0.04589 0.61537 0.0
H2166 H 0.07512 0.99531 0.57379 0.0
H2167 H 0.99941 0.07818 0.58641 0.0
C2168 C 0.98158 0.07689 0.56769 0.0
C2169 C 0.98462 0.0625 0.55586 0.0
C2170 C 0.07211 1.00644 0.5829 0.0
C2171 C 1.02603 0.04226 0.57511 0.0
C2172 C 0.09247 0.99611 0.59259 0.0
C2173 C 0.08909 1.01015 0.60446 0.0
C2174 C 0.04823 1.03095 0.58513 0.0
C2175 C 0.0651 1.0347 0.60631 0.0
C2176 C 1.00221 0.06684 0.57734 0.0
C2177 C 1.00865 0.03799 0.55401 0.0
N2178 N 0.04548 0.0443 0.59672 0.0
N2179 N 1.02852 1.02864 0.56355 0.0
H2180 H 0.34469 0.85928 0.84075 0.0
H2181 H 0.22531 0.71262 0.81942 0.0
H2182 H 0.27572 0.8104 0.86533 0.0
H2183 H 0.29469 0.76105 0.79488 0.0
H2184 H 0.24304 0.74871 0.83635 0.0
H2185 H 0.32656 0.82358 0.82376 0.0
C2186 C 0.32583 0.84089 0.84256 0.0
C2187 C 0.31171 0.83763 0.85443 0.0
C2188 C 0.25439 0.75147 0.82726 0.0
C2189 C 0.29066 0.79703 0.83508 0.0
C2190 C 0.24416 0.73101 0.8176 0.0
C2191 C 0.25855 0.73399 0.80577 0.0
C2192 C 0.27916 0.77504 0.82505 0.0
C2193 C 0.28324 0.75779 0.80392 0.0
C2194 C 0.31538 0.82066 0.83286 0.0
C2195 C 0.28699 0.81386 0.85627 0.0
N2196 N 0.29276 0.77748 0.81348 0.0
N2197 N 0.27726 0.79438 0.84668 0.0
H2198 H 0.51147 1.02292 0.11622 0.0
H2199 H 0.55886 0.04554 1.04439 0.0
H2200 H 0.46394 0.09289 0.09164 0.0
H2201 H 0.60731 0.97629 1.06901 0.0
H2202 H 0.5239 0.06346 1.06167 0.0
H2203 H 0.54673 1.00513 0.09898 0.0
C2204 C 0.50842 1.03441 0.10717 0.0
C2205 C 0.48489 0.0594 0.10531 0.0
C2206 C 0.54217 0.04434 1.0633 0.0
C2207 C 0.5251 0.03947 0.08565 0.0
C2208 C 0.5622 1.03425 1.05346 0.0
C2209 C 0.58589 1.00942 1.05531 0.0
C2210 C 0.54596 1.02948 1.07504 0.0
C2211 C 0.589 0.99523 1.06718 0.0
C2212 C 0.52861 1.0244 0.09736 0.0
C2213 C 0.48212 0.07383 0.09348 0.0
N2214 N 0.56922 1.0055 1.07662 0.0
N2215 N 0.50201 0.06361 0.08407 0.0
H2216 H 0.34571 0.71104 0.34099 0.0
H2217 H 0.22751 0.85931 0.32007 0.0
H2218 H 0.27462 0.75769 0.36536 0.0
H2219 H 0.29837 0.8123 0.29569 0.0
H2220 H 0.24437 0.82219 0.33683 0.0
H2221 H 0.3287 0.74808 0.32423 0.0
C2222 C 0.32659 0.72921 0.3428 0.0
C2223 C 0.31157 0.73149 0.35454 0.0
C2224 C 0.25625 0.81999 0.32782 0.0
C2225 C 0.29185 0.77365 0.33547 0.0
C2226 C 0.24654 0.84105 0.31825 0.0
C2227 C 0.26156 0.83871 0.30651 0.0
C2228 C 0.2811 0.79647 0.32559 0.0
C2229 C 0.28644 0.81506 0.30467 0.0
C2230 C 0.3168 0.75022 0.33324 0.0
C2231 C 0.28657 0.755 0.35639 0.0
N2232 N 0.29541 0.79476 0.31412 0.0
N2233 N 0.27751 0.77529 0.34693 0.0
H2234 H 0.55772 1.02585 0.61632 0.0
H2235 H 0.5109 0.04717 0.5444 0.0
H2236 H 0.60583 0.09487 0.59155 0.0
H2237 H 0.46206 0.97878 0.56921 0.0
H2238 H 0.54566 0.06545 0.56166 0.0
H2239 H 0.52231 1.00815 0.59914 0.0
C2240 C 0.56085 0.03716 0.60724 0.0
C2241 C 0.58461 0.06183 0.60531 0.0
C2242 C 0.52734 0.04645 0.56333 0.0
C2243 C 0.54424 0.04199 0.58571 0.0
C2244 C 0.50743 0.03615 0.55351 0.0
C2245 C 0.48371 1.01144 0.55542 0.0
C2246 C 0.5234 1.03191 0.57512 0.0
C2247 C 0.48042 0.99761 0.56734 0.0
C2248 C 0.54058 1.0272 0.59747 0.0
C2249 C 0.58748 0.07604 0.59344 0.0
N2250 N 0.50009 1.00806 0.57676 0.0
N2251 N 0.56751 0.06586 0.58407 0.0
H2252 H 0.34413 0.20433 0.82181 0.0
H2253 H 0.22286 0.35015 0.84267 0.0
H2254 H 0.27272 0.25064 0.79747 0.0
H2255 H 0.2964 0.30692 0.86691 0.0
H2256 H 0.23949 0.31213 0.82622 0.0
H2257 H 0.32586 0.24034 0.83874 0.0
C2258 C 0.32464 0.22214 0.82005 0.0
C2259 C 0.30992 0.22467 0.80826 0.0
C2260 C 0.25198 0.31089 0.83514 0.0
C2261 C 0.28882 0.26559 0.82751 0.0
C2262 C 0.24238 0.33245 0.84453 0.0
C2263 C 0.25828 0.33151 0.85613 0.0
C2264 C 0.27766 0.28827 0.83737 0.0
C2265 C 0.28378 0.30856 0.85803 0.0
C2266 C 0.31415 0.24255 0.8297 0.0
C2267 C 0.28445 0.24771 0.80647 0.0
N2268 N 0.29272 0.28776 0.84871 0.0
N2269 N 0.27476 0.26739 0.81601 0.0
H2270 H 0.1124 0.09096 1.06992 0.0
H2271 H 0.96285 0.97377 0.09018 0.0
H2272 H 0.06396 1.02259 1.04502 0.0
H2273 H 1.00983 0.04367 0.11487 0.0
H2274 H 1.00069 0.99035 1.07361 0.0
H2275 H 0.07573 0.07311 0.08668 0.0
C2276 C 0.09394 0.07224 1.068 0.0
C2277 C 0.09101 0.05827 1.0561 0.0
C2278 C 1.00275 1.00206 0.08265 0.0
C2279 C 0.04929 0.0376 1.07518 0.0
C2280 C 0.98128 0.99251 0.09211 0.0
C2281 C 0.98335 1.0074 0.10387 0.0
C2282 C 1.0264 1.02665 0.08501 0.0
C2283 C 1.00726 1.03188 0.10587 0.0
C2284 C 0.07314 0.06197 1.07756 0.0
C2285 C 0.06715 1.03374 1.05411 0.0
N2286 N 1.02794 0.04075 0.09651 0.0
N2287 N 0.04708 1.02422 1.06357 0.0
H2288 H 0.80011 0.75715 0.86521 0.0
H2289 H 0.77696 0.80566 0.79354 0.0
H2290 H 0.73134 0.7086 0.84048 0.0
H2291 H 0.84625 0.85344 0.81827 0.0
H2292 H 0.76005 0.76946 0.8106 0.0
H2293 H 0.81815 0.79208 0.84796 0.0
C2294 C 0.78898 0.75375 0.85612 0.0
C2295 C 0.76419 0.7301 0.85423 0.0
C2296 C 0.779 0.78782 0.81229 0.0
C2297 C 0.78437 0.77001 0.83455 0.0
C2298 C 0.7885 0.80855 0.80258 0.0
C2299 C 0.81301 0.83246 0.80454 0.0
C2300 C 0.79408 0.79119 0.82401 0.0
C2301 C 0.82754 0.835 0.81636 0.0
C2302 C 0.79914 0.77376 0.8463 0.0
C2303 C 0.75023 0.72691 0.84234 0.0
N2304 N 0.8178 0.81461 0.82567 0.0
N2305 N 0.76052 0.7467 0.83292 0.0
H2306 H 0.77369 0.31099 0.36559 0.0
H2307 H 0.79739 0.2619 0.294 0.0
H2308 H 0.84313 0.3589 0.34092 0.0
H2309 H 0.72693 0.21526 0.3186 0.0
H2310 H 0.81481 0.29764 0.31112 0.0
H2311 H 0.75589 0.27584 0.34839 0.0
C2312 C 0.78503 0.31419 0.35652 0.0
C2313 C 0.80991 0.33776 0.35464 0.0
C2314 C 0.79551 0.27961 0.31277 0.0
C2315 C 0.79 0.29759 0.335 0.0
C2316 C 0.78572 0.25915 0.30303 0.0
C2317 C 0.7607 0.23573 0.30493 0.0
C2318 C 0.7802 0.27648 0.32446 0.0
C2319 C 0.74603 0.23334 0.31673 0.0
C2320 C 0.77502 0.29405 0.34673 0.0
C2321 C 0.82416 0.34068 0.34278 0.0
N2322 N 0.75604 0.25349 0.32607 0.0
N2323 N 0.81398 0.32078 0.33338 0.0
H2324 H 0.79611 0.30589 0.79399 0.0
H2325 H 0.77414 0.26049 0.86602 0.0
H2326 H 0.72696 0.35474 0.81855 0.0
H2327 H 0.84311 0.21141 0.84146 0.0
H2328 H 0.75599 0.29498 0.84863 0.0
H2329 H 0.81373 0.27084 0.8113 0.0
C2330 C 0.78475 0.30926 0.80305 0.0
C2331 C 0.76007 0.33312 0.80489 0.0
C2332 C 0.7751 0.27666 0.84705 0.0
C2333 C 0.77981 0.29317 0.82464 0.0
C2334 C 0.78532 0.25692 0.85694 0.0
C2335 C 0.81016 0.23321 0.85513 0.0
C2336 C 0.78983 0.27255 0.83529 0.0
C2337 C 0.82419 0.22976 0.84325 0.0
C2338 C 0.79467 0.2892 0.8129 0.0
C2339 C 0.74579 0.3363 0.81673 0.0
N2340 N 0.8138 0.24926 0.83376 0.0
N2341 N 0.75592 0.31654 0.82619 0.0
H2342 H 0.80072 0.82005 0.36246 0.0
H2343 H 0.77769 0.76877 0.2911 0.0
H2344 H 0.7303 0.86666 0.3378 0.0
H2345 H 0.84828 0.72353 0.31605 0.0
H2346 H 0.76039 0.8057 0.30793 0.0
H2347 H 0.81953 0.78552 0.34526 0.0
C2348 C 0.78942 0.82316 0.35338 0.0
C2349 C 0.76395 0.84616 0.35151 0.0
C2350 C 0.77974 0.78776 0.3097 0.0
C2351 C 0.78498 0.80654 0.33186 0.0
C2352 C 0.78947 0.76663 0.30013 0.0
C2353 C 0.81444 0.74321 0.30223 0.0
C2354 C 0.79506 0.78523 0.3214 0.0
C2355 C 0.82923 0.74159 0.31402 0.0
C2356 C 0.80001 0.80334 0.34359 0.0
C2357 C 0.74975 0.84888 0.33964 0.0
N2358 N 0.81925 0.76231 0.32318 0.0
N2359 N 0.76046 0.82923 0.33023 0.0
H2360 H 0.61992 0.54784 0.09802 0.0
H2361 H 0.45155 0.51646 1.06086 0.0
H2362 H 0.55017 0.47089 0.10729 0.0
H2363 H 0.5215 0.5931 1.05143 0.0
H2364 H 0.48804 0.49856 1.07767 0.0
H2365 H 0.5843 0.56466 0.08077 0.0
C2366 C 0.59699 0.53463 0.09645 0.0
C2367 C 0.58786 0.50801 0.10406 0.0
C2368 C 0.49544 0.51925 1.07191 0.0
C2369 C 0.54729 0.52679 0.08434 0.0
C2370 C 0.47474 0.52933 1.06228 0.0
C2371 C 0.48358 0.55629 1.05479 0.0
C2372 C 0.52515 0.53629 1.07404 0.0
C2373 C 0.51362 0.57244 1.05712 0.0
C2374 C 0.57679 0.54408 0.08657 0.0
C2375 C 0.55822 0.49135 0.10154 0.0
N2376 N 0.53335 0.5622 1.06657 0.0
N2377 N 0.53893 0.50106 0.09188 0.0
H2378 H 1.01081 0.52283 0.61568 0.0
H2379 H 0.05991 0.54728 0.54412 0.0
H2380 H 0.96293 0.59272 0.59117 0.0
H2381 H 0.10633 0.47619 0.56853 0.0
H2382 H 1.02419 0.56461 0.56129 0.0
H2383 H 0.04592 0.5051 0.59842 0.0
C2384 C 1.00762 0.53429 0.60664 0.0
C2385 C 0.98407 0.55927 0.60481 0.0
C2386 C 0.04216 0.54519 0.56289 0.0
C2387 C 1.02417 0.53943 0.58511 0.0
C2388 C 0.06261 0.53544 0.55312 0.0
C2389 C 0.08596 0.51028 0.55495 0.0
C2390 C 0.04525 0.52968 0.57454 0.0
C2391 C 0.08829 0.4954 0.56672 0.0
C2392 C 1.02773 0.52431 0.59681 0.0
C2393 C 0.98114 0.57366 0.59298 0.0
N2394 N 0.06817 0.50538 0.57609 0.0
N2395 N 1.00101 0.56352 0.58355 0.0
H2396 H 0.05317 0.52716 0.11844 0.0
H2397 H 1.00446 0.5496 1.04677 0.0
H2398 H 0.09835 0.59848 0.09383 0.0
H2399 H 0.95705 0.47961 1.07135 0.0
H2400 H 0.03831 0.56867 1.06413 0.0
H2401 H 1.01707 0.50965 0.1014 0.0
C2402 C 0.05546 0.53907 0.10944 0.0
C2403 C 0.07865 0.56428 0.1075 0.0
C2404 C 1.02046 0.54918 1.06575 0.0
C2405 C 0.03757 0.54463 0.08807 0.0
C2406 C 1.00105 0.53843 1.05586 0.0
C2407 C 0.97802 0.51301 1.05766 0.0
C2408 C 1.0168 0.53436 1.0775 0.0
C2409 C 0.97487 0.499 1.06956 0.0
C2410 C 1.03481 0.52921 0.09975 0.0
C2411 C 0.08047 0.57923 0.09574 0.0
N2412 N 0.99412 0.50986 1.07905 0.0
N2413 N 0.06022 0.5691 0.08644 0.0
H2414 H 0.46233 0.47616 0.591 0.0
H2415 H 0.61195 0.59217 0.56991 0.0
H2416 H 0.51147 0.54493 0.61554 0.0
H2417 H 0.56184 0.52438 0.54526 0.0
H2418 H 0.57566 0.57479 0.58685 0.0
H2419 H 0.49915 0.49299 0.57415 0.0
C2420 C 0.48102 0.49471 0.59283 0.0
C2421 C 0.48403 0.50917 0.60464 0.0
C2422 C 0.5726 0.56369 0.57774 0.0
C2423 C 0.52592 0.5287 0.58546 0.0
C2424 C 0.59319 0.5737 0.56808 0.0
C2425 C 0.58971 0.55972 0.55621 0.0
C2426 C 0.54841 0.53958 0.57548 0.0
C2427 C 0.56546 0.53551 0.55433 0.0
C2428 C 0.5019 0.50441 0.58321 0.0
C2429 C 0.50821 0.53345 0.60651 0.0
N2430 N 0.54562 0.52623 0.56389 0.0
N2431 N 0.52832 0.54245 0.59699 0.0
H2432 H 0.23762 0.0644 0.42828 0.0
H2433 H 0.25059 0.9035 0.4751 0.0
H2434 H 0.15431 1.00221 0.43638 0.0
H2435 H 0.31608 0.98579 0.48038 0.0
H2436 H 0.21985 0.93564 0.45935 0.0
H2437 H 0.26989 1.03442 0.44454 0.0
C2438 C 0.22584 0.04422 0.43319 0.0
C2439 C 0.1922 0.03648 0.43028 0.0
C2440 C 0.2408 0.94713 0.4639 0.0
C2441 C 0.23086 1.0003 0.4498 0.0
C2442 C 0.25875 0.92846 0.47316 0.0
C2443 C 0.28654 0.94107 0.47986 0.0
C2444 C 0.25031 0.97959 0.46034 0.0
C2445 C 0.29488 0.97409 0.4761 0.0
C2446 C 0.24462 1.02695 0.44277 0.0
C2447 C 0.1797 1.00987 0.43774 0.0
N2448 N 0.27753 0.99141 0.4668 0.0
N2449 N 0.19852 0.99321 0.44668 0.0
H2450 H 0.33465 0.06326 0.73201 0.0
H2451 H 0.32142 0.9024 0.6853 0.0
H2452 H 0.4179 1.00076 0.72395 0.0
H2453 H 0.25647 0.98521 0.67981 0.0
H2454 H 0.35216 0.93439 0.70105 0.0
H2455 H 0.3024 1.03345 0.71574 0.0
C2456 C 0.34641 0.04304 0.72711 0.0
C2457 C 0.38003 1.03517 0.73003 0.0
C2458 C 0.33134 0.94602 0.69646 0.0
C2459 C 0.3414 0.99918 0.7105 0.0
C2460 C 0.31339 0.92744 0.68719 0.0
C2461 C 0.28576 0.94025 0.68044 0.0
C2462 C 0.32196 0.97858 0.69996 0.0
C2463 C 0.27756 0.97336 0.68414 0.0
C2464 C 0.32765 1.02587 0.71752 0.0
C2465 C 0.39253 1.00851 0.72258 0.0
N2466 N 0.29489 0.99059 0.69345 0.0
N2467 N 0.37371 0.99194 0.71364 0.0
H2468 H 0.25769 0.08315 0.98189 0.0
H2469 H 0.41913 0.06977 0.9353 0.0
H2470 H 0.32 0.16635 0.97384 0.0
H2471 H 0.3363 1.00507 0.92973 0.0
H2472 H 0.38692 0.10053 0.95103 0.0
H2473 H 0.28775 0.05093 0.96565 0.0
C2474 C 0.27791 0.09491 0.97699 0.0
C2475 C 0.28566 0.1285 0.97992 0.0
C2476 C 0.37533 0.07976 0.94642 0.0
C2477 C 0.32195 0.0899 0.96041 0.0
C2478 C 0.39404 0.06179 0.93717 0.0
C2479 C 0.3813 1.03422 0.9304 0.0
C2480 C 0.3427 0.07046 0.94988 0.0
C2481 C 0.34811 1.02611 0.93407 0.0
C2482 C 0.29523 0.07617 0.96743 0.0
C2483 C 0.31233 0.14099 0.97247 0.0
N2484 N 0.33076 0.04344 0.94336 0.0
N2485 N 0.32905 0.12219 0.96354 0.0
H2486 H 0.22985 0.05008 0.24224 0.0
H2487 H 0.27126 0.09056 0.16837 0.0
H2488 H 0.16309 1.02043 0.2132 0.0
H2489 H 0.2992 0.15822 0.19734 0.0
H2490 H 0.23971 0.05804 0.18409 0.0
H2491 H 0.2622 0.08173 0.2265 0.0
C2492 C 0.22177 0.04958 0.23263 0.0
C2493 C 0.1926 1.03144 0.22956 0.0
C2494 C 0.25288 0.07988 0.18713 0.0
C2495 C 0.23183 0.06875 0.21054 0.0
C2496 C 0.27141 0.09881 0.17796 0.0
C2497 C 0.28906 0.12827 0.18101 0.0
C2498 C 0.25187 0.08887 0.20002 0.0
C2499 C 0.28676 0.13625 0.19403 0.0
C2500 C 0.2406 0.06817 0.22345 0.0
C2501 C 0.18481 1.03331 0.21652 0.0
N2502 N 0.2695 0.11712 0.20271 0.0
N2503 N 0.20387 0.05063 0.20783 0.0
H2504 H 0.9169 0.07069 0.72532 0.0
H2505 H 0.75643 0.08355 0.67826 0.0
H2506 H 0.8346 1.00507 0.73046 0.0
H2507 H 0.81805 0.167 0.68666 0.0
H2508 H 0.78635 0.05126 0.69453 0.0
H2509 H 0.88479 0.10145 0.70957 0.0
C2510 C 0.89194 0.06252 0.72335 0.0
C2511 C 0.8793 1.0347 0.73001 0.0
C2512 C 0.79371 0.07657 0.69282 0.0
C2513 C 0.84085 0.07092 0.71049 0.0
C2514 C 0.77648 0.09535 0.68324 0.0
C2515 C 0.78409 0.12903 0.68041 0.0
C2516 C 0.82019 0.09037 0.69994 0.0
C2517 C 0.81052 0.14157 0.68795 0.0
C2518 C 0.87329 0.08048 0.71409 0.0
C2519 C 0.8463 1.02632 0.72621 0.0
N2520 N 0.82716 0.12275 0.69689 0.0
N2521 N 0.82901 0.04366 0.71691 0.0
H2522 H 0.81518 0.08354 0.48164 0.0
H2523 H 0.65438 0.07099 0.43476 0.0
H2524 H 0.75319 0.16702 0.47343 0.0
H2525 H 0.7371 1.00588 0.42927 0.0
H2526 H 0.68648 0.10154 0.45053 0.0
H2527 H 0.7853 0.05144 0.46534 0.0
C2528 C 0.79505 0.09539 0.4767 0.0
C2529 C 0.78733 0.12902 0.4796 0.0
C2530 C 0.69807 0.08072 0.44593 0.0
C2531 C 0.75128 0.09057 0.46002 0.0
C2532 C 0.67942 0.06287 0.43665 0.0
C2533 C 0.69215 0.03524 0.42989 0.0
C2534 C 0.73062 0.07124 0.44945 0.0
C2535 C 0.72529 1.02696 0.4336 0.0
C2536 C 0.77785 0.07671 0.46709 0.0
C2537 C 0.76081 0.14163 0.47209 0.0
N2538 N 0.74257 0.04418 0.44292 0.0
N2539 N 0.7442 0.1229 0.46313 0.0
H2540 H 0.7683 0.97968 0.16786 0.0
H2541 H 0.73033 1.02318 0.24172 0.0
H2542 H 0.79956 0.91398 0.19703 0.0
H2543 H 0.66066 0.04876 0.21307 0.0
H2544 H 0.76267 0.99149 0.22596 0.0
H2545 H 0.73692 1.01225 0.18364 0.0
C2546 C 0.76924 0.97191 0.17751 0.0
C2547 C 0.78774 0.94297 0.18061 0.0
C2548 C 0.74042 1.00418 0.223 0.0
C2549 C 0.75078 0.98242 0.19965 0.0
C2550 C 0.72159 1.02277 0.23219 0.0
C2551 C 0.69164 0.03981 0.22924 0.0
C2552 C 0.73081 1.00253 0.21019 0.0
C2553 C 0.68304 0.03682 0.2163 0.0
C2554 C 0.75081 0.99085 0.18671 0.0
C2555 C 0.78642 0.93554 0.19369 0.0
N2556 N 0.70208 1.01956 0.20759 0.0
N2557 N 0.76924 0.95469 0.20239 0.0
H2558 H 0.82029 0.90298 0.97516 0.0
H2559 H 0.8336 0.06408 0.92846 0.0
H2560 H 0.75457 0.98527 0.98041 0.0
H2561 H 0.91705 1.00209 0.93677 0.0
H2562 H 0.80114 1.03401 0.94463 0.0
H2563 H 0.85121 0.93522 0.95951 0.0
C2564 C 0.81212 0.92796 0.97324 0.0
C2565 C 0.7842 0.94054 0.9799 0.0
C2566 C 0.82649 1.02659 0.94292 0.0
C2567 C 0.82065 0.97919 0.96049 0.0
C2568 C 0.84538 0.04392 0.9334 0.0
C2569 C 0.87912 0.03627 0.93057 0.0
C2570 C 0.84022 0.99996 0.94999 0.0
C2571 C 0.89159 1.00968 0.93806 0.0
C2572 C 0.83018 0.94669 0.96403 0.0
C2573 C 0.77586 0.97359 0.97616 0.0
N2574 N 0.87266 0.99296 0.94695 0.0
N2575 N 0.79331 0.99097 0.96691 0.0
H2576 H 0.73837 0.56382 0.92862 0.0
H2577 H 0.75074 0.40298 0.97542 0.0
H2578 H 0.65489 0.50172 0.93657 0.0
H2579 H 0.81568 0.48555 0.98103 0.0
H2580 H 0.72026 0.43508 0.9596 0.0
H2581 H 0.77036 0.5339 0.94497 0.0
C2582 C 0.7265 0.54367 0.93352 0.0
C2583 C 0.69291 0.53593 0.93054 0.0
C2584 C 0.74103 0.44663 0.96423 0.0
C2585 C 0.73123 0.49982 0.95016 0.0
C2586 C 0.75883 0.42798 0.97354 0.0
C2587 C 0.7864 0.44068 0.98034 0.0
C2588 C 0.7505 0.47915 0.96075 0.0
C2589 C 0.79466 0.47377 0.97666 0.0
C2590 C 0.74511 0.52643 0.94315 0.0
C2591 C 0.68026 0.50936 0.93798 0.0
N2592 N 0.77748 0.49107 0.96731 0.0
N2593 N 0.69893 0.49273 0.94697 0.0
H2594 H 0.82125 0.40301 0.18521 0.0
H2595 H 0.83474 0.56365 0.23207 0.0
H2596 H 0.75561 0.48544 0.18009 0.0
H2597 H 0.91803 0.50145 0.22374 0.0
H2598 H 0.80226 0.53379 0.21587 0.0
H2599 H 0.85219 0.43503 0.2009 0.0
C2600 C 0.81309 0.42797 0.18717 0.0
C2601 C 0.78519 0.44066 0.18054 0.0
C2602 C 0.82757 0.52628 0.21758 0.0
C2603 C 0.82167 0.47904 0.19999 0.0
C2604 C 0.84647 0.54348 0.22713 0.0
C2605 C 0.88017 0.53569 0.22996 0.0
C2606 C 0.84126 0.49966 0.2105 0.0
C2607 C 0.8926 0.50912 0.22246 0.0
C2608 C 0.83117 0.44657 0.1964 0.0
C2609 C 0.77688 0.47368 0.18432 0.0
N2610 N 0.87366 0.49253 0.21355 0.0
N2611 N 0.79435 0.49093 0.19359 0.0
H2612 H 0.83389 0.50664 0.4284 0.0
H2613 H 0.82169 0.66726 0.47535 0.0
H2614 H 0.91752 0.56835 0.43651 0.0
H2615 H 0.75586 0.58519 0.48057 0.0
H2616 H 0.85228 0.63512 0.45956 0.0
H2617 H 0.80178 0.53667 0.44469 0.0
C2618 C 0.84577 0.52673 0.43332 0.0
C2619 C 0.87944 0.53432 0.43039 0.0
C2620 C 0.83129 0.62368 0.4641 0.0
C2621 C 0.84098 0.57057 0.44996 0.0
C2622 C 0.81342 0.64236 0.47339 0.0
C2623 C 0.78559 0.62979 0.48008 0.0
C2624 C 0.82164 0.59129 0.46052 0.0
C2625 C 0.7771 0.59684 0.47629 0.0
C2626 C 0.82709 0.54403 0.44291 0.0
C2627 C 0.89208 0.56082 0.43787 0.0
N2628 N 0.79437 0.57953 0.46697 0.0
N2629 N 0.87335 0.57752 0.44683 0.0
H2630 H 0.73813 0.50549 0.73204 0.0
H2631 H 0.75094 0.66666 0.6854 0.0
H2632 H 0.65462 0.56761 0.72395 0.0
H2633 H 0.81634 0.5842 0.67995 0.0
H2634 H 0.72021 0.63445 0.70111 0.0
H2635 H 0.77035 0.53556 0.7158 0.0
C2636 C 0.7263 0.52568 0.72713 0.0
C2637 C 0.69263 0.53337 0.73004 0.0
C2638 C 0.74113 0.62295 0.69654 0.0
C2639 C 0.73122 0.56966 0.71056 0.0
C2640 C 0.75908 0.64166 0.68729 0.0
C2641 C 0.78684 0.62901 0.68056 0.0
C2642 C 0.75064 0.59042 0.70004 0.0
C2643 C 0.79516 0.59593 0.68426 0.0
C2644 C 0.74505 0.543 0.71757 0.0
C2645 C 0.68005 0.55999 0.7226 0.0
N2646 N 0.77783 0.57857 0.69355 0.0
N2647 N 0.69884 0.57671 0.71367 0.0
H2648 H 0.33421 0.50777 0.2321 0.0
H2649 H 0.32097 0.66832 0.18515 0.0
H2650 H 0.41761 0.56962 0.22378 0.0
H2651 H 0.25566 0.58587 0.17989 0.0
H2652 H 0.3518 0.63626 0.2009 0.0
H2653 H 0.30186 0.53765 0.21584 0.0
C2654 C 0.34599 0.52786 0.22714 0.0
C2655 C 0.37968 0.53554 0.23 0.0
C2656 C 0.33088 0.62471 0.19635 0.0
C2657 C 0.34093 0.5716 0.21047 0.0
C2658 C 0.31288 0.64333 0.18709 0.0
C2659 C 0.28513 0.63065 0.18039 0.0
C2660 C 0.32143 0.59224 0.19992 0.0
C2661 C 0.27686 0.59761 0.18416 0.0
C2662 C 0.32717 0.54507 0.21757 0.0
C2663 C 0.39218 0.56203 0.22247 0.0
N2664 N 0.29424 0.58035 0.19347 0.0
N2665 N 0.37331 0.57864 0.21353 0.0
H2666 H 0.26951 0.59099 0.99205 0.0
H2667 H 0.22897 0.55018 0.9181 0.0
H2668 H 0.29945 0.65745 0.96294 0.0
H2669 H 0.16208 0.52072 0.94717 0.0
H2670 H 0.26141 0.5817 0.93384 0.0
H2671 H 0.23791 0.5586 0.97632 0.0
C2672 C 0.2701 0.59899 0.98243 0.0
C2673 C 0.28832 0.62808 0.97934 0.0
C2674 C 0.23976 0.56821 0.9369 0.0
C2675 C 0.25104 0.58884 0.96033 0.0
C2676 C 0.22087 0.54971 0.92772 0.0
C2677 C 0.19164 0.53165 0.93079 0.0
C2678 C 0.23096 0.56881 0.94981 0.0
C2679 C 0.18385 0.53353 0.94383 0.0
C2680 C 0.25154 0.58014 0.97325 0.0
C2681 C 0.28654 0.63577 0.96629 0.0
N2682 N 0.20293 0.55079 0.95252 0.0
N2683 N 0.26922 0.61673 0.95761 0.0
H2684 H 0.25025 0.40298 0.68528 0.0
H2685 H 0.23692 0.56434 0.73178 0.0
H2686 H 0.31439 0.48604 0.67939 0.0
H2687 H 0.15362 0.50198 0.72389 0.0
H2688 H 0.26904 0.53435 0.71548 0.0
H2689 H 0.21957 0.43508 0.70107 0.0
C2690 C 0.25811 0.4281 0.68709 0.0
C2691 C 0.28549 0.44094 0.68021 0.0
C2692 C 0.24381 0.52683 0.71732 0.0
C2693 C 0.2494 0.47942 0.69977 0.0
C2694 C 0.22512 0.5441 0.72692 0.0
C2695 C 0.19153 0.53631 0.72991 0.0
C2696 C 0.23003 0.50012 0.71033 0.0
C2697 C 0.17899 0.50965 0.72249 0.0
C2698 C 0.2402 0.44675 0.69637 0.0
C2699 C 0.29349 0.47416 0.68381 0.0
N2700 N 0.19774 0.49298 0.71353 0.0
N2701 N 0.27624 0.49145 0.69314 0.0
H2702 H 0.30074 0.47937 0.49222 0.0
H2703 H 0.34281 0.52046 0.41843 0.0
H2704 H 0.27205 0.41258 0.46307 0.0
H2705 H 0.40924 0.54971 0.44764 0.0
H2706 H 0.31014 0.4888 0.43408 0.0
H2707 H 0.3326 0.51187 0.47658 0.0
C2708 C 0.30049 0.47132 0.48261 0.0
C2709 C 0.28254 0.4421 0.47948 0.0
C2710 C 0.33173 0.50228 0.43718 0.0
C2711 C 0.32009 0.48148 0.46058 0.0
C2712 C 0.35075 0.52087 0.42806 0.0
C2713 C 0.37993 0.53891 0.4312 0.0
C2714 C 0.34033 0.50159 0.45011 0.0
C2715 C 0.38752 0.53693 0.44426 0.0
C2716 C 0.31919 0.49024 0.47348 0.0
C2717 C 0.28473 0.43435 0.46644 0.0
N2718 N 0.36831 0.5196 0.45289 0.0
N2719 N 0.30217 0.45347 0.45781 0.0
H2720 H 0.14883 0.11536 0.35357 0.0
H2721 H 0.15063 0.95547 0.30646 0.0
H2722 H 0.14071 1.01541 0.36681 0.0
H2723 H 0.13886 0.05498 0.29311 0.0
H2724 H 0.15051 0.97656 0.32807 0.0
H2725 H 0.14869 0.09445 0.33191 0.0
C2726 C 0.14709 0.08896 0.35208 0.0
C2727 C 0.14475 0.06763 0.36258 0.0
C2728 C 0.14796 0.99402 0.32048 0.0
C2729 C 0.14488 0.04257 0.33682 0.0
C2730 C 0.14807 0.98183 0.30792 0.0
C2731 C 0.14469 1.00295 0.2974 0.0
C2732 C 0.14488 1.02825 0.32312 0.0
C2733 C 0.14151 0.03707 0.30053 0.0
C2734 C 0.14696 0.07687 0.33949 0.0
C2735 C 0.14255 1.03347 0.35941 0.0
N2736 N 0.14184 0.04828 0.31279 0.0
N2737 N 0.14283 1.02239 0.34714 0.0
H2738 H 0.20607 0.89907 0.60385 0.0
H2739 H 0.366 0.8992 0.55655 0.0
H2740 H 0.30607 0.88938 0.61702 0.0
H2741 H 0.266 0.88987 0.54337 0.0
H2742 H 0.34508 0.89904 0.57822 0.0
H2743 H 0.22699 0.89913 0.58218 0.0
C2744 C 0.23249 0.89702 0.60234 0.0
C2745 C 0.25382 0.89418 0.61282 0.0
C2746 C 0.32749 0.89705 0.57065 0.0
C2747 C 0.2789 0.89454 0.58706 0.0
C2748 C 0.33958 0.89719 0.55806 0.0
C2749 C 0.31824 0.89452 0.54758 0.0
C2750 C 0.29318 0.89461 0.57334 0.0
C2751 C 0.28407 0.89199 0.55076 0.0
C2752 C 0.24458 0.89701 0.58974 0.0
C2753 C 0.288 0.89161 0.60963 0.0
N2754 N 0.27297 0.89224 0.56304 0.0
N2755 N 0.2991 0.892 0.59735 0.0
H2756 H 0.43194 1.01314 0.79268 0.0
H2757 H 0.43319 0.05482 0.86756 0.0
H2758 H 0.42457 0.11225 0.80685 0.0
H2759 H 0.42289 0.95585 0.85354 0.0
H2760 H 0.43281 0.07572 0.84592 0.0
H2761 H 0.43139 0.99209 0.81433 0.0
C2762 C 0.43022 1.03078 0.80024 0.0
C2763 C 0.42826 0.06505 0.7974 0.0
C2764 C 0.43061 0.04938 0.84747 0.0
C2765 C 0.42795 0.04019 0.82317 0.0
C2766 C 0.43084 0.03718 0.86003 0.0
C2767 C 0.428 1.003 0.86292 0.0
C2768 C 0.42791 1.0277 0.83713 0.0
C2769 C 0.4251 0.98228 0.85223 0.0
C2770 C 0.42989 1.0185 0.8128 0.0
C2771 C 0.42611 0.08577 0.80812 0.0
N2772 N 0.42529 0.9947 0.84013 0.0
N2773 N 0.42618 0.07326 0.8202 0.0
H2774 H 0.2061 0.17219 1.05663 0.0
H2775 H 0.36567 0.17052 0.10402 0.0
H2776 H 0.30632 0.17994 1.0435 0.0
H2777 H 0.26589 0.18288 0.11715 0.0
H2778 H 0.34483 0.17042 0.08235 0.0
H2779 H 0.22683 0.17255 1.07832 0.0
C2780 C 0.23253 0.17389 1.05815 0.0
C2781 C 0.25398 0.17607 1.04768 0.0
C2782 C 0.32726 0.17314 0.08991 0.0
C2783 C 0.27883 0.17618 1.07347 0.0
C2784 C 0.33931 0.17316 0.1025 0.0
C2785 C 0.31803 0.17677 0.11297 0.0
C2786 C 0.29303 0.17632 0.0872 0.0
C2787 C 0.28393 0.18005 0.10977 0.0
C2788 C 0.24451 0.17415 1.07076 0.0
C2789 C 0.28816 0.17823 1.05089 0.0
N2790 N 0.27285 0.17959 0.09748 0.0
N2791 N 0.29914 0.17807 1.06318 0.0
H2792 H 0.92131 0.9553 0.80664 0.0
H2793 H 0.92172 0.11496 0.85393 0.0
H2794 H 0.93102 0.05515 0.79345 0.0
H2795 H 0.9314 1.01507 0.86711 0.0
H2796 H 0.92165 0.09409 0.83226 0.0
H2797 H 0.92152 0.97616 0.82831 0.0
C2798 C 0.92341 0.98167 0.80815 0.0
C2799 C 0.92618 1.00298 0.79766 0.0
C2800 C 0.92376 0.07651 0.83983 0.0
C2801 C 0.92613 1.02799 0.82342 0.0
C2802 C 0.92376 0.08858 0.85242 0.0
C2803 C 0.92661 0.06726 0.86291 0.0
C2804 C 0.92622 0.04224 0.83714 0.0
C2805 C 0.92916 1.03313 0.85972 0.0
C2806 C 0.92357 0.99373 0.82074 0.0
C2807 C 0.92883 0.0371 0.80084 0.0
N2808 N 0.92876 1.02206 0.84744 0.0
N2809 N 0.92858 0.04817 0.81312 0.0
H2810 H 0.80622 0.18117 0.61748 0.0
H2811 H 0.76482 0.18079 0.54256 0.0
H2812 H 0.70714 0.17177 0.60336 0.0
H2813 H 0.86396 0.17216 0.55672 0.0
H2814 H 0.74371 0.18028 0.5642 0.0
H2815 H 0.82729 0.18067 0.59585 0.0
C2816 C 0.78859 0.179 0.60994 0.0
C2817 C 0.75432 0.17644 0.6128 0.0
C2818 C 0.77014 0.17848 0.56268 0.0
C2819 C 0.77923 0.17622 0.58701 0.0
C2820 C 0.78246 0.17879 0.55012 0.0
C2821 C 0.81675 0.17645 0.54727 0.0
C2822 C 0.79181 0.17622 0.57305 0.0
C2823 C 0.83745 0.17398 0.55799 0.0
C2824 C 0.80089 0.1787 0.59737 0.0
C2825 C 0.73362 0.17375 0.60208 0.0
N2826 N 0.82491 0.17409 0.57007 0.0
N2827 N 0.74615 0.17388 0.59 0.0
H2828 H 0.6464 0.95631 0.35335 0.0
H2829 H 0.65024 0.11626 0.30626 0.0
H2830 H 0.64083 0.05632 0.36671 0.0
H2831 H 0.63664 1.01694 0.29301 0.0
H2832 H 0.65016 0.09522 0.3279 0.0
H2833 H 0.64615 0.97738 0.33172 0.0
C2834 C 0.64518 0.98277 0.35189 0.0
C2835 C 0.64358 1.00406 0.36241 0.0
C2836 C 0.6472 0.0778 0.32033 0.0
C2837 C 0.64362 1.02929 0.33669 0.0
C2838 C 0.64728 0.08996 0.30775 0.0
C2839 C 0.6434 0.06886 0.29726 0.0
C2840 C 0.6436 0.04363 0.32298 0.0
C2841 C 0.63971 1.03482 0.30042 0.0
C2842 C 0.645 0.99494 0.33931 0.0
C2843 C 0.64207 0.03828 0.35929 0.0
N2844 N 0.64006 1.02364 0.31268 0.0
N2845 N 0.64227 0.04946 0.34702 0.0
H2846 H 0.86373 0.8982 0.10374 0.0
H2847 H 0.70403 0.89791 1.05644 0.0
H2848 H 0.76387 0.88791 0.117 0.0
H2849 H 0.8042 0.88888 1.04336 0.0
H2850 H 0.72475 0.89766 1.07814 0.0
H2851 H 0.84278 0.89818 0.08211 0.0
C2852 C 0.83733 0.89598 0.10225 0.0
C2853 C 0.81605 0.89299 0.11275 0.0
C2854 C 0.74241 0.89576 1.07059 0.0
C2855 C 0.79093 0.8933 0.08702 0.0
C2856 C 0.73044 0.89595 1.05798 0.0
C2857 C 0.7519 0.89339 1.04752 0.0
C2858 C 0.77672 0.89338 1.0733 0.0
C2859 C 0.78605 0.89091 1.05073 0.0
C2860 C 0.82522 0.89594 0.08968 0.0
C2861 C 0.78189 0.89024 0.1096 0.0
N2862 N 0.79702 0.89112 1.06302 0.0
N2863 N 0.77075 0.89061 0.09732 0.0
H2864 H 0.65081 0.61432 0.8537 0.0
H2865 H 0.65083 0.45425 0.8066 0.0
H2866 H 0.64151 0.51456 0.86703 0.0
H2867 H 0.64101 0.55403 0.79332 0.0
H2868 H 0.65086 0.47527 0.82825 0.0
H2869 H 0.65066 0.59325 0.83206 0.0
C2870 C 0.64881 0.58792 0.85223 0.0
C2871 C 0.64614 0.5667 0.86275 0.0
C2872 C 0.64872 0.49279 0.82067 0.0
C2873 C 0.64626 0.54145 0.83702 0.0
C2874 C 0.64875 0.48064 0.80808 0.0
C2875 C 0.64588 0.50188 0.79758 0.0
C2876 C 0.6462 0.52708 0.82332 0.0
C2877 C 0.64327 0.53603 0.80073 0.0
C2878 C 0.64868 0.57574 0.83965 0.0
C2879 C 0.64362 0.53254 0.85961 0.0
N2880 N 0.64364 0.54719 0.813 0.0
N2881 N 0.64389 0.52136 0.84735 0.0
H2882 H 0.86581 0.39777 1.05683 0.0
H2883 H 0.70566 0.39873 0.10397 0.0
H2884 H 0.76581 0.38944 1.04354 0.0
H2885 H 0.80561 0.38912 0.11721 0.0
H2886 H 0.72664 0.39854 0.08231 0.0
H2887 H 0.84476 0.3978 1.07847 0.0
C2888 C 0.83936 0.396 1.05831 0.0
C2889 C 0.81806 0.39356 1.04781 0.0
C2890 C 0.74421 0.3965 0.08989 0.0
C2891 C 0.79285 0.39388 1.07353 0.0
C2892 C 0.73208 0.39665 0.10247 0.0
C2893 C 0.75339 0.39392 0.11297 0.0
C2894 C 0.77853 0.39396 0.08723 0.0
C2895 C 0.78757 0.39129 0.10981 0.0
C2896 C 0.8272 0.39598 1.07088 0.0
C2897 C 0.78385 0.39136 1.05095 0.0
N2898 N 0.7987 0.39152 0.09754 0.0
N2899 N 0.77268 0.39171 1.06322 0.0
H2900 H 0.92216 0.45515 0.35372 0.0
H2901 H 0.92142 0.61474 0.30638 0.0
H2902 H 0.93086 0.55508 0.3669 0.0
H2903 H 0.9327 0.51496 0.29327 0.0
H2904 H 0.92128 0.5939 0.32806 0.0
H2905 H 0.92243 0.47601 0.33205 0.0
C2906 C 0.92405 0.48154 0.35221 0.0
C2907 C 0.92652 0.50288 0.3627 0.0
C2908 C 0.92375 0.57635 0.3205 0.0
C2909 C 0.92653 0.52788 0.33693 0.0
C2910 C 0.92378 0.58839 0.30791 0.0
C2911 C 0.9271 0.56708 0.29744 0.0
C2912 C 0.92664 0.54211 0.32321 0.0
C2913 C 0.93008 0.533 0.30065 0.0
C2914 C 0.92425 0.4936 0.33962 0.0
C2915 C 0.92891 0.53702 0.35951 0.0
N2916 N 0.92962 0.52195 0.31293 0.0
N2917 N 0.92869 0.54808 0.34723 0.0
H2918 H 0.70655 0.67062 0.55671 0.0
H2919 H 0.86644 0.67077 0.60397 0.0
H2920 H 0.80651 0.68039 0.5435 0.0
H2921 H 0.76643 0.68037 0.61717 0.0
H2922 H 0.84554 0.67081 0.5823 0.0
H2923 H 0.72746 0.67071 0.57837 0.0
C2924 C 0.73296 0.67271 0.55822 0.0
C2925 C 0.75428 0.67553 0.54772 0.0
C2926 C 0.82794 0.67289 0.58987 0.0
C2927 C 0.77935 0.67535 0.57348 0.0
C2928 C 0.84003 0.67282 0.60246 0.0
C2929 C 0.81868 0.6756 0.61295 0.0
C2930 C 0.79363 0.67536 0.58719 0.0
C2931 C 0.78451 0.67818 0.60977 0.0
C2932 C 0.74505 0.67281 0.5708 0.0
C2933 C 0.78845 0.67817 0.5509 0.0
N2934 N 0.77342 0.67784 0.5975 0.0
N2935 N 0.79955 0.67786 0.56318 0.0
H2936 H 0.43474 0.51519 0.36793 0.0
H2937 H 0.43192 0.55733 0.29306 0.0
H2938 H 0.423 0.61405 0.35391 0.0
H2939 H 0.42416 0.45807 0.30705 0.0
H2940 H 0.43173 0.57806 0.31474 0.0
H2941 H 0.43399 0.49428 0.34627 0.0
C2942 C 0.43203 0.5328 0.3604 0.0
C2943 C 0.42889 0.56696 0.36329 0.0
C2944 C 0.43006 0.55169 0.31317 0.0
C2945 C 0.42837 0.54227 0.33749 0.0
C2946 C 0.43018 0.53959 0.30059 0.0
C2947 C 0.42798 0.50538 0.29768 0.0
C2948 C 0.42816 0.52988 0.32351 0.0
C2949 C 0.42585 0.48453 0.30837 0.0
C2950 C 0.43157 0.5206 0.34783 0.0
C2951 C 0.42549 0.58764 0.3526 0.0
N2952 N 0.42616 0.49686 0.32048 0.0
N2953 N 0.4255 0.57523 0.34051 0.0
H2954 H 0.26374 0.68279 1.04262 0.0
H2955 H 0.30545 0.68108 0.11751 0.0
H2956 H 0.36263 0.67147 1.05676 0.0
H2957 H 0.20614 0.67265 0.10353 0.0
H2958 H 0.32629 0.68066 0.09585 0.0
H2959 H 0.24261 0.68222 1.06427 0.0
C2960 C 0.28131 0.6802 1.05017 0.0
C2961 C 0.31555 0.67712 1.04732 0.0
C2962 C 0.29988 0.67888 0.09741 0.0
C2963 C 0.2906 0.67681 1.0731 0.0
C2964 C 0.28772 0.67913 0.10998 0.0
C2965 C 0.25347 0.6768 0.1129 0.0
C2966 C 0.2781 0.67673 0.08707 0.0
C2967 C 0.23263 0.67442 0.10221 0.0
C2968 C 0.26898 0.67985 1.06274 0.0
C2969 C 0.33617 0.67389 1.05804 0.0
N2970 N 0.24503 0.67462 0.0901 0.0
N2971 N 0.32364 0.674 1.07012 0.0
H2972 H 0.1403 0.51463 0.79287 0.0
H2973 H 0.13734 0.55598 0.86779 0.0
H2974 H 0.14756 0.61382 0.80695 0.0
H2975 H 0.14993 0.45738 0.85363 0.0
H2976 H 0.1379 0.57714 0.84615 0.0
H2977 H 0.1407 0.49371 0.81452 0.0
C2978 C 0.14197 0.53232 0.80041 0.0
C2979 C 0.14398 0.56657 0.79753 0.0
C2980 C 0.14055 0.55082 0.84767 0.0
C2981 C 0.14403 0.54183 0.82334 0.0
C2982 C 0.14021 0.53848 0.86023 0.0
C2983 C 0.14365 0.50431 0.86308 0.0
C2984 C 0.14394 0.5293 0.8373 0.0
C2985 C 0.14723 0.48378 0.85236 0.0
C2986 C 0.14221 0.52011 0.81298 0.0
C2987 C 0.14603 0.58734 0.80824 0.0
N2988 N 0.1471 0.49633 0.84028 0.0
N2989 N 0.14582 0.57489 0.82034 0.0
H2990 H 0.20563 0.3994 0.55638 0.0
H2991 H 0.3653 0.39921 0.6037 0.0
H2992 H 0.30545 0.38785 0.5432 0.0
H2993 H 0.26524 0.38983 0.61685 0.0
H2994 H 0.34451 0.39875 0.58202 0.0
H2995 H 0.22653 0.39956 0.57803 0.0
C2996 C 0.23201 0.39695 0.55789 0.0
C2997 C 0.25329 0.39354 0.5474 0.0
C2998 C 0.32688 0.39681 0.58958 0.0
C2999 C 0.27836 0.39409 0.57316 0.0
C3000 C 0.33889 0.39713 0.60218 0.0
C3001 C 0.3175 0.39454 0.61266 0.0
C3002 C 0.29258 0.3943 0.58688 0.0
C3003 C 0.28335 0.39189 0.60946 0.0
C3004 C 0.24409 0.39701 0.57047 0.0
C3005 C 0.28742 0.39051 0.55059 0.0
N3006 N 0.27233 0.39201 0.59718 0.0
N3007 N 0.29853 0.39102 0.56287 0.0
loop_
_geom_bond_atom_site_label_1
_geom_bond_atom_site_label_2
_geom_bond_distance
_geom_bond_site_symmetry_2
_ccdc_geom_bond_type
Nd0 C2 2.836 . S
Nd0 O20 2.500 . S
Nd0 O21 2.492 . S
Nd0 O22 2.487 . S
Nd0 O23 2.682 . S
Nd0 O24 2.410 . S
Nd0 O29 2.414 . S
Nd0 O31 2.424 . S
Nd1 C11 2.836 . S
Nd1 O23 2.414 . S
Nd1 O25 2.424 . S
Nd1 O26 2.500 . S
Nd1 O27 2.492 . S
Nd1 O28 2.487 . S
Nd1 O29 2.682 . S
Nd1 O30 2.410 . S
C2 Nd0 2.836 . S
C2 C3 1.498 . S
C2 O20 1.258 . S
C2 O21 1.239 . S
C3 C2 1.498 . S
C3 C4 1.366 . S
C3 C8 1.407 . S
C4 C3 1.366 . S
C4 C5 1.392 1_455 S
C4 H32 0.930 . S
C5 C4 1.392 1_655 S
C5 C6 1.398 . S
C5 H33 0.929 . S
C6 C5 1.398 . S
C6 C7 1.352 1_655 S
C7 C6 1.352 1_455 S
C7 C8 1.384 . S
C7 H34 0.930 . S
C8 C3 1.407 . S
C8 C7 1.384 . S
C8 H35 0.929 . S
C9 O22 1.241 . S
C9 O23 1.273 . S
C10 O24 1.251 . S
C10 O25 1.268 . S
C11 Nd1 2.836 . S
C11 C12 1.498 . S
C11 O26 1.258 . S
C11 O27 1.239 . S
C12 C11 1.498 . S
C12 C13 1.366 . S
C12 C17 1.407 . S
C13 C12 1.366 . S
C13 C14 1.392 . S
C13 H36 0.930 . S
C14 C13 1.392 . S
C14 C15 1.398 . S
C14 H37 0.929 . S
C15 C14 1.398 . S
C15 C16 1.352 . S
C16 C15 1.352 . S
C16 C17 1.384 . S
C16 H38 0.930 . S
C17 C12 1.407 . S
C17 C16 1.384 . S
C17 H39 0.929 . S
C18 O28 1.241 . S
C18 O29 1.273 . S
C19 O30 1.251 . S
C19 O31 1.268 . S
O20 Nd0 2.500 . S
O20 C2 1.258 . S
O21 Nd0 2.492 . S
O21 C2 1.239 . S
O22 Nd0 2.487 . S
O22 C9 1.241 . S
O23 Nd0 2.682 . S
O23 Nd1 2.414 . S
O23 C9 1.273 . S
O24 Nd0 2.410 . S
O24 C10 1.251 . S
O25 Nd1 2.424 . S
O25 C10 1.268 . S
O26 Nd1 2.500 . S
O26 C11 1.258 . S
O27 Nd1 2.492 . S
O27 C11 1.239 . S
O28 Nd1 2.487 . S
O28 C18 1.241 . S
O29 Nd0 2.414 . S
O29 Nd1 2.682 . S
O29 C18 1.273 . S
O30 Nd1 2.410 . S
O30 C19 1.251 . S
O31 Nd0 2.424 . S
O31 C19 1.268 . S
H32 C4 0.930 . S
H33 C5 0.929 . S
H34 C7 0.930 . S
H35 C8 0.929 . S
H36 C13 0.930 . S
H37 C14 0.929 . S
H38 C16 0.930 . S
H39 C17 0.929 . S
Nd40 C42 2.836 . S
Nd40 O60 2.500 . S
Nd40 O61 2.492 . S
Nd40 O62 2.487 . S
Nd40 O63 2.682 . S
Nd40 O64 2.410 . S
Nd40 O69 2.414 . S
Nd40 O71 2.424 . S
Nd41 C51 2.836 . S
Nd41 O63 2.414 . S
Nd41 O65 2.424 . S
Nd41 O66 2.500 . S
Nd41 O67 2.492 . S
Nd41 O68 2.487 . S
Nd41 O69 2.682 . S
Nd41 O70 2.410 . S
C42 Nd40 2.836 . S
C42 C43 1.498 . S
C42 O60 1.258 . S
C42 O61 1.239 . S
C43 C42 1.498 . S
C43 C44 1.366 . S
C43 C48 1.407 . S
C44 C43 1.366 . S
C44 C45 1.392 . S
C44 H72 0.930 . S
C45 C44 1.392 . S
C45 C46 1.398 . S
C45 H73 0.929 . S
C46 C45 1.398 . S
C46 C47 1.352 . S
C47 C46 1.352 . S
C47 C48 1.384 . S
C47 H74 0.930 . S
C48 C43 1.407 . S
C48 C47 1.384 . S
C48 H75 0.929 . S
C49 O62 1.241 . S
C49 O63 1.273 . S
C50 O64 1.251 . S
C50 O65 1.268 . S
C51 Nd41 2.836 . S
C51 C52 1.498 . S
C51 O66 1.258 . S
C51 O67 1.239 . S
C52 C51 1.498 . S
C52 C53 1.366 . S
C52 C57 1.407 . S
C53 C52 1.366 . S
C53 C54 1.392 . S
C53 H76 0.930 . S
C54 C53 1.392 . S
C54 C55 1.398 . S
C54 H77 0.929 . S
C55 C54 1.398 . S
C55 C56 1.352 . S
C56 C55 1.352 . S
C56 C57 1.384 . S
C56 H78 0.930 . S
C57 C52 1.407 . S
C57 C56 1.384 . S
C57 H79 0.929 . S
C58 O68 1.241 . S
C58 O69 1.273 . S
C59 O70 1.251 . S
C59 O71 1.268 . S
O60 Nd40 2.500 . S
O60 C42 1.258 . S
O61 Nd40 2.492 . S
O61 C42 1.239 . S
O62 Nd40 2.487 . S
O62 C49 1.241 . S
O63 Nd40 2.682 . S
O63 Nd41 2.414 . S
O63 C49 1.273 . S
O64 Nd40 2.410 . S
O64 C50 1.251 . S
O65 Nd41 2.424 . S
O65 C50 1.268 . S
O66 Nd41 2.500 . S
O66 C51 1.258 . S
O67 Nd41 2.492 . S
O67 C51 1.239 . S
O68 Nd41 2.487 . S
O68 C58 1.241 . S
O69 Nd40 2.414 . S
O69 Nd41 2.682 . S
O69 C58 1.273 . S
O70 Nd41 2.410 . S
O70 C59 1.251 . S
O71 Nd40 2.424 . S
O71 C59 1.268 . S
H72 C44 0.930 . S
H73 C45 0.929 . S
H74 C47 0.930 . S
H75 C48 0.929 . S
H76 C53 0.930 . S
H77 C54 0.929 . S
H78 C56 0.930 . S
H79 C57 0.929 . S
Nd80 C82 2.836 . S
Nd80 O100 2.500 . S
Nd80 O101 2.492 . S
Nd80 O102 2.487 . S
Nd80 O103 2.682 . S
Nd80 O104 2.410 . S
Nd80 O109 2.414 . S
Nd80 O111 2.424 . S
Nd81 C91 2.836 . S
Nd81 O103 2.414 . S
Nd81 O105 2.424 . S
Nd81 O106 2.500 . S
Nd81 O107 2.492 . S
Nd81 O108 2.487 . S
Nd81 O109 2.682 . S
Nd81 O110 2.410 . S
C82 Nd80 2.836 . S
C82 C83 1.498 . S
C82 O100 1.258 . S
C82 O101 1.239 . S
C83 C82 1.498 . S
C83 C84 1.366 . S
C83 C88 1.407 . S
C84 C83 1.366 . S
C84 C85 1.392 . S
C84 H112 0.930 . S
C85 C84 1.392 . S
C85 C86 1.398 . S
C85 H113 0.929 . S
C86 C85 1.398 . S
C86 C87 1.352 . S
C87 C86 1.352 . S
C87 C88 1.384 . S
C87 H114 0.930 . S
C88 C83 1.407 . S
C88 C87 1.384 . S
C88 H115 0.929 . S
C89 O102 1.241 . S
C89 O103 1.273 . S
C90 O104 1.251 . S
C90 O105 1.268 . S
C91 Nd81 2.836 . S
C91 C92 1.498 . S
C91 O106 1.258 . S
C91 O107 1.239 . S
C92 C91 1.498 . S
C92 C93 1.366 . S
C92 C97 1.407 . S
C93 C92 1.366 . S
C93 C94 1.392 . S
C93 H116 0.930 . S
C94 C93 1.392 . S
C94 C95 1.398 . S
C94 H117 0.929 . S
C95 C94 1.398 . S
C95 C96 1.352 . S
C96 C95 1.352 . S
C96 C97 1.384 . S
C96 H118 0.930 . S
C97 C92 1.407 . S
C97 C96 1.384 . S
C97 H119 0.929 . S
C98 O108 1.241 . S
C98 O109 1.273 . S
C99 O110 1.251 . S
C99 O111 1.268 . S
O100 Nd80 2.500 . S
O100 C82 1.258 . S
O101 Nd80 2.492 . S
O101 C82 1.239 . S
O102 Nd80 2.487 . S
O102 C89 1.241 . S
O103 Nd80 2.682 . S
O103 Nd81 2.414 . S
O103 C89 1.273 . S
O104 Nd80 2.410 . S
O104 C90 1.251 . S
O105 Nd81 2.424 . S
O105 C90 1.268 . S
O106 Nd81 2.500 . S
O106 C91 1.258 . S
O107 Nd81 2.492 . S
O107 C91 1.239 . S
O108 Nd81 2.487 . S
O108 C98 1.241 . S
O109 Nd80 2.414 . S
O109 Nd81 2.682 . S
O109 C98 1.273 . S
O110 Nd81 2.410 . S
O110 C99 1.251 . S
O111 Nd80 2.424 . S
O111 C99 1.268 . S
H112 C84 0.930 . S
H113 C85 0.929 . S
H114 C87 0.930 . S
H115 C88 0.929 . S
H116 C93 0.930 . S
H117 C94 0.929 . S
H118 C96 0.930 . S
H119 C97 0.929 . S
Nd120 C122 2.836 . S
Nd120 O140 2.500 . S
Nd120 O141 2.492 . S
Nd120 O142 2.487 . S
Nd120 O143 2.682 . S
Nd120 O144 2.410 . S
Nd120 O149 2.414 . S
Nd120 O151 2.424 . S
Nd121 C131 2.836 . S
Nd121 O143 2.414 . S
Nd121 O145 2.424 . S
Nd121 O146 2.500 . S
Nd121 O147 2.492 . S
Nd121 O148 2.487 . S
Nd121 O149 2.682 . S
Nd121 O150 2.410 . S
C122 Nd120 2.836 . S
C122 C123 1.498 . S
C122 O140 1.258 . S
C122 O141 1.239 . S
C123 C122 1.498 . S
C123 C124 1.366 . S
C123 C128 1.407 . S
C124 C123 1.366 . S
C124 C125 1.392 . S
C124 H152 0.930 . S
C125 C124 1.392 . S
C125 C126 1.398 . S
C125 H153 0.929 . S
C126 C125 1.398 . S
C126 C127 1.352 . S
C127 C126 1.352 . S
C127 C128 1.384 . S
C127 H154 0.930 . S
C128 C123 1.407 . S
C128 C127 1.384 . S
C128 H155 0.929 . S
C129 O142 1.241 . S
C129 O143 1.273 . S
C130 O144 1.251 . S
C130 O145 1.268 . S
C131 Nd121 2.836 . S
C131 C132 1.498 . S
C131 O146 1.258 . S
C131 O147 1.239 . S
C132 C131 1.498 . S
C132 C133 1.366 . S
C132 C137 1.407 . S
C133 C132 1.366 . S
C133 C134 1.392 . S
C133 H156 0.930 . S
C134 C133 1.392 . S
C134 C135 1.398 . S
C134 H157 0.929 . S
C135 C134 1.398 . S
C135 C136 1.352 . S
C136 C135 1.352 . S
C136 C137 1.384 . S
C136 H158 0.930 . S
C137 C132 1.407 . S
C137 C136 1.384 . S
C137 H159 0.929 . S
C138 O148 1.241 . S
C138 O149 1.273 . S
C139 O150 1.251 . S
C139 O151 1.268 . S
O140 Nd120 2.500 . S
O140 C122 1.258 . S
O141 Nd120 2.492 . S
O141 C122 1.239 . S
O142 Nd120 2.487 . S
O142 C129 1.241 . S
O143 Nd120 2.682 . S
O143 Nd121 2.414 . S
O143 C129 1.273 . S
O144 Nd120 2.410 . S
O144 C130 1.251 . S
O145 Nd121 2.424 . S
O145 C130 1.268 . S
O146 Nd121 2.500 . S
O146 C131 1.258 . S
O147 Nd121 2.492 . S
O147 C131 1.239 . S
O148 Nd121 2.487 . S
O148 C138 1.241 . S
O149 Nd120 2.414 . S
O149 Nd121 2.682 . S
O149 C138 1.273 . S
O150 Nd121 2.410 . S
O150 C139 1.251 . S
O151 Nd120 2.424 . S
O151 C139 1.268 . S
H152 C124 0.930 . S
H153 C125 0.929 . S
H154 C127 0.930 . S
H155 C128 0.929 . S
H156 C133 0.930 . S
H157 C134 0.929 . S
H158 C136 0.930 . S
H159 C137 0.929 . S
Nd160 C162 2.836 . S
Nd160 O180 2.500 . S
Nd160 O181 2.492 . S
Nd160 O182 2.487 . S
Nd160 O183 2.682 . S
Nd160 O184 2.410 . S
Nd160 O189 2.414 . S
Nd160 O191 2.424 . S
Nd161 C171 2.836 . S
Nd161 O183 2.414 . S
Nd161 O185 2.424 . S
Nd161 O186 2.500 . S
Nd161 O187 2.492 . S
Nd161 O188 2.487 . S
Nd161 O189 2.682 . S
Nd161 O190 2.410 . S
C162 Nd160 2.836 . S
C162 C163 1.498 . S
C162 O180 1.258 . S
C162 O181 1.239 . S
C163 C162 1.498 . S
C163 C164 1.366 . S
C163 C168 1.407 . S
C164 C163 1.366 . S
C164 C165 1.392 1_455 S
C164 H192 0.930 . S
C165 C164 1.392 1_655 S
C165 C166 1.398 . S
C165 H193 0.929 . S
C166 C165 1.398 . S
C166 C167 1.352 1_655 S
C167 C166 1.352 1_455 S
C167 C168 1.384 . S
C167 H194 0.930 . S
C168 C163 1.407 . S
C168 C167 1.384 . S
C168 H195 0.929 . S
C169 O182 1.241 . S
C169 O183 1.273 . S
C170 O184 1.251 . S
C170 O185 1.268 . S
C171 Nd161 2.836 . S
C171 C172 1.498 . S
C171 O186 1.258 . S
C171 O187 1.239 . S
C172 C171 1.498 . S
C172 C173 1.366 . S
C172 C177 1.407 . S
C173 C172 1.366 . S
C173 C174 1.392 . S
C173 H196 0.930 . S
C174 C173 1.392 . S
C174 C175 1.398 . S
C174 H197 0.929 . S
C175 C174 1.398 . S
C175 C176 1.352 . S
C176 C175 1.352 . S
C176 C177 1.384 . S
C176 H198 0.930 . S
C177 C172 1.407 . S
C177 C176 1.384 . S
C177 H199 0.929 . S
C178 O188 1.241 . S
C178 O189 1.273 . S
C179 O190 1.251 . S
C179 O191 1.268 . S
O180 Nd160 2.500 . S
O180 C162 1.258 . S
O181 Nd160 2.492 . S
O181 C162 1.239 . S
O182 Nd160 2.487 . S
O182 C169 1.241 . S
O183 Nd160 2.682 . S
O183 Nd161 2.414 . S
O183 C169 1.273 . S
O184 Nd160 2.410 . S
O184 C170 1.251 . S
O185 Nd161 2.424 . S
O185 C170 1.268 . S
O186 Nd161 2.500 . S
O186 C171 1.258 . S
O187 Nd161 2.492 . S
O187 C171 1.239 . S
O188 Nd161 2.487 . S
O188 C178 1.241 . S
O189 Nd160 2.414 . S
O189 Nd161 2.682 . S
O189 C178 1.273 . S
O190 Nd161 2.410 . S
O190 C179 1.251 . S
O191 Nd160 2.424 . S
O191 C179 1.268 . S
H192 C164 0.930 . S
H193 C165 0.929 . S
H194 C167 0.930 . S
H195 C168 0.929 . S
H196 C173 0.930 . S
H197 C174 0.929 . S
H198 C176 0.930 . S
H199 C177 0.929 . S
Nd200 C202 2.836 . S
Nd200 O220 2.500 . S
Nd200 O221 2.492 . S
Nd200 O222 2.487 . S
Nd200 O223 2.682 . S
Nd200 O224 2.410 . S
Nd200 O229 2.414 . S
Nd200 O231 2.424 . S
Nd201 C211 2.836 . S
Nd201 O223 2.414 . S
Nd201 O225 2.424 . S
Nd201 O226 2.500 . S
Nd201 O227 2.492 . S
Nd201 O228 2.487 . S
Nd201 O229 2.682 . S
Nd201 O230 2.410 . S
C202 Nd200 2.836 . S
C202 C203 1.498 . S
C202 O220 1.258 . S
C202 O221 1.239 . S
C203 C202 1.498 . S
C203 C204 1.366 . S
C203 C208 1.407 . S
C204 C203 1.366 . S
C204 C205 1.392 . S
C204 H232 0.930 . S
C205 C204 1.392 . S
C205 C206 1.398 . S
C205 H233 0.929 . S
C206 C205 1.398 . S
C206 C207 1.352 . S
C207 C206 1.352 . S
C207 C208 1.384 . S
C207 H234 0.930 . S
C208 C203 1.407 . S
C208 C207 1.384 . S
C208 H235 0.929 . S
C209 O222 1.241 . S
C209 O223 1.273 . S
C210 O224 1.251 . S
C210 O225 1.268 . S
C211 Nd201 2.836 . S
C211 C212 1.498 . S
C211 O226 1.258 . S
C211 O227 1.239 . S
C212 C211 1.498 . S
C212 C213 1.366 . S
C212 C217 1.407 . S
C213 C212 1.366 . S
C213 C214 1.392 . S
C213 H236 0.930 . S
C214 C213 1.392 . S
C214 C215 1.398 . S
C214 H237 0.929 . S
C215 C214 1.398 . S
C215 C216 1.352 . S
C216 C215 1.352 . S
C216 C217 1.384 . S
C216 H238 0.930 . S
C217 C212 1.407 . S
C217 C216 1.384 . S
C217 H239 0.929 . S
C218 O228 1.241 . S
C218 O229 1.273 . S
C219 O230 1.251 . S
C219 O231 1.268 . S
O220 Nd200 2.500 . S
O220 C202 1.258 . S
O221 Nd200 2.492 . S
O221 C202 1.239 . S
O222 Nd200 2.487 . S
O222 C209 1.241 . S
O223 Nd200 2.682 . S
O223 Nd201 2.414 . S
O223 C209 1.273 . S
O224 Nd200 2.410 . S
O224 C210 1.251 . S
O225 Nd201 2.424 . S
O225 C210 1.268 . S
O226 Nd201 2.500 . S
O226 C211 1.258 . S
O227 Nd201 2.492 . S
O227 C211 1.239 . S
O228 Nd201 2.487 . S
O228 C218 1.241 . S
O229 Nd200 2.414 . S
O229 Nd201 2.682 . S
O229 C218 1.273 . S
O230 Nd201 2.410 . S
O230 C219 1.251 . S
O231 Nd200 2.424 . S
O231 C219 1.268 . S
H232 C204 0.930 . S
H233 C205 0.929 . S
H234 C207 0.930 . S
H235 C208 0.929 . S
H236 C213 0.930 . S
H237 C214 0.929 . S
H238 C216 0.930 . S
H239 C217 0.929 . S
Nd240 C242 2.836 . S
Nd240 O260 2.500 . S
Nd240 O261 2.492 . S
Nd240 O262 2.487 . S
Nd240 O263 2.682 . S
Nd240 O264 2.410 . S
Nd240 O269 2.414 . S
Nd240 O271 2.424 . S
Nd241 C251 2.836 . S
Nd241 O263 2.414 . S
Nd241 O265 2.424 . S
Nd241 O266 2.500 . S
Nd241 O267 2.492 . S
Nd241 O268 2.487 . S
Nd241 O269 2.682 . S
Nd241 O270 2.410 . S
C242 Nd240 2.836 . S
C242 C243 1.498 . S
C242 O260 1.258 . S
C242 O261 1.239 . S
C243 C242 1.498 . S
C243 C244 1.366 . S
C243 C248 1.407 . S
C244 C243 1.366 . S
C244 C245 1.392 . S
C244 H272 0.930 . S
C245 C244 1.392 . S
C245 C246 1.398 . S
C245 H273 0.929 . S
C246 C245 1.398 . S
C246 C247 1.352 . S
C247 C246 1.352 . S
C247 C248 1.384 . S
C247 H274 0.930 . S
C248 C243 1.407 . S
C248 C247 1.384 . S
C248 H275 0.929 . S
C249 O262 1.241 . S
C249 O263 1.273 . S
C250 O264 1.251 . S
C250 O265 1.268 . S
C251 Nd241 2.836 . S
C251 C252 1.498 . S
C251 O266 1.258 . S
C251 O267 1.239 . S
C252 C251 1.498 . S
C252 C253 1.366 . S
C252 C257 1.407 . S
C253 C252 1.366 . S
C253 C254 1.392 . S
C253 H276 0.930 . S
C254 C253 1.392 . S
C254 C255 1.398 . S
C254 H277 0.929 . S
C255 C254 1.398 . S
C255 C256 1.352 . S
C256 C255 1.352 . S
C256 C257 1.384 . S
C256 H278 0.930 . S
C257 C252 1.407 . S
C257 C256 1.384 . S
C257 H279 0.929 . S
C258 O268 1.241 . S
C258 O269 1.273 . S
C259 O270 1.251 . S
C259 O271 1.268 . S
O260 Nd240 2.500 . S
O260 C242 1.258 . S
O261 Nd240 2.492 . S
O261 C242 1.239 . S
O262 Nd240 2.487 . S
O262 C249 1.241 . S
O263 Nd240 2.682 . S
O263 Nd241 2.414 . S
O263 C249 1.273 . S
O264 Nd240 2.410 . S
O264 C250 1.251 . S
O265 Nd241 2.424 . S
O265 C250 1.268 . S
O266 Nd241 2.500 . S
O266 C251 1.258 . S
O267 Nd241 2.492 . S
O267 C251 1.239 . S
O268 Nd241 2.487 . S
O268 C258 1.241 . S
O269 Nd240 2.414 . S
O269 Nd241 2.682 . S
O269 C258 1.273 . S
O270 Nd241 2.410 . S
O270 C259 1.251 . S
O271 Nd240 2.424 . S
O271 C259 1.268 . S
H272 C244 0.930 . S
H273 C245 0.929 . S
H274 C247 0.930 . S
H275 C248 0.929 . S
H276 C253 0.930 . S
H277 C254 0.929 . S
H278 C256 0.930 . S
H279 C257 0.929 . S
Nd280 C282 2.836 . S
Nd280 O300 2.500 . S
Nd280 O301 2.492 . S
Nd280 O302 2.487 . S
Nd280 O303 2.682 . S
Nd280 O304 2.410 . S
Nd280 O309 2.414 . S
Nd280 O311 2.424 . S
Nd281 C291 2.836 . S
Nd281 O303 2.414 . S
Nd281 O305 2.424 . S
Nd281 O306 2.500 . S
Nd281 O307 2.492 . S
Nd281 O308 2.487 . S
Nd281 O309 2.682 . S
Nd281 O310 2.410 . S
C282 Nd280 2.836 . S
C282 C283 1.498 . S
C282 O300 1.258 . S
C282 O301 1.239 . S
C283 C282 1.498 . S
C283 C284 1.366 . S
C283 C288 1.407 . S
C284 C283 1.366 . S
C284 C285 1.392 . S
C284 H312 0.930 . S
C285 C284 1.392 . S
C285 C286 1.398 . S
C285 H313 0.929 . S
C286 C285 1.398 . S
C286 C287 1.352 . S
C287 C286 1.352 . S
C287 C288 1.384 . S
C287 H314 0.930 . S
C288 C283 1.407 . S
C288 C287 1.384 . S
C288 H315 0.929 . S
C289 O302 1.241 . S
C289 O303 1.273 . S
C290 O304 1.251 . S
C290 O305 1.268 . S
C291 Nd281 2.836 . S
C291 C292 1.498 . S
C291 O306 1.258 . S
C291 O307 1.239 . S
C292 C291 1.498 . S
C292 C293 1.366 . S
C292 C297 1.407 . S
C293 C292 1.366 . S
C293 C294 1.392 . S
C293 H316 0.930 . S
C294 C293 1.392 . S
C294 C295 1.398 . S
C294 H317 0.929 . S
C295 C294 1.398 . S
C295 C296 1.352 . S
C296 C295 1.352 . S
C296 C297 1.384 . S
C296 H318 0.930 . S
C297 C292 1.407 . S
C297 C296 1.384 . S
C297 H319 0.929 . S
C298 O308 1.241 . S
C298 O309 1.273 . S
C299 O310 1.251 . S
C299 O311 1.268 . S
O300 Nd280 2.500 . S
O300 C282 1.258 . S
O301 Nd280 2.492 . S
O301 C282 1.239 . S
O302 Nd280 2.487 . S
O302 C289 1.241 . S
O303 Nd280 2.682 . S
O303 Nd281 2.414 . S
O303 C289 1.273 . S
O304 Nd280 2.410 . S
O304 C290 1.251 . S
O305 Nd281 2.424 . S
O305 C290 1.268 . S
O306 Nd281 2.500 . S
O306 C291 1.258 . S
O307 Nd281 2.492 . S
O307 C291 1.239 . S
O308 Nd281 2.487 . S
O308 C298 1.241 . S
O309 Nd280 2.414 . S
O309 Nd281 2.682 . S
O309 C298 1.273 . S
O310 Nd281 2.410 . S
O310 C299 1.251 . S
O311 Nd280 2.424 . S
O311 C299 1.268 . S
H312 C284 0.930 . S
H313 C285 0.929 . S
H314 C287 0.930 . S
H315 C288 0.929 . S
H316 C293 0.930 . S
H317 C294 0.929 . S
H318 C296 0.930 . S
H319 C297 0.929 . S
Nd320 C322 2.836 . S
Nd320 O340 2.500 . S
Nd320 O341 2.492 . S
Nd320 O342 2.487 . S
Nd320 O343 2.682 . S
Nd320 O344 2.410 . S
Nd320 O349 2.414 . S
Nd320 O351 2.424 . S
Nd321 C331 2.836 . S
Nd321 O343 2.414 . S
Nd321 O345 2.424 . S
Nd321 O346 2.500 . S
Nd321 O347 2.492 . S
Nd321 O348 2.487 . S
Nd321 O349 2.682 . S
Nd321 O350 2.410 . S
C322 Nd320 2.836 . S
C322 C323 1.498 . S
C322 O340 1.258 . S
C322 O341 1.239 . S
C323 C322 1.498 . S
C323 C324 1.366 . S
C323 C328 1.407 . S
C324 C323 1.366 . S
C324 C325 1.392 . S
C324 H352 0.930 . S
C325 C324 1.392 . S
C325 C326 1.398 . S
C325 H353 0.929 . S
C326 C325 1.398 . S
C326 C327 1.352 . S
C327 C326 1.352 . S
C327 C328 1.384 . S
C327 H354 0.930 . S
C328 C323 1.407 . S
C328 C327 1.384 . S
C328 H355 0.929 . S
C329 O342 1.241 . S
C329 O343 1.273 . S
C330 O344 1.251 . S
C330 O345 1.268 . S
C331 Nd321 2.836 . S
C331 C332 1.498 . S
C331 O346 1.258 . S
C331 O347 1.239 . S
C332 C331 1.498 . S
C332 C333 1.366 . S
C332 C337 1.407 . S
C333 C332 1.366 . S
C333 C334 1.392 1_655 S
C333 H356 0.930 . S
C334 C333 1.392 1_455 S
C334 C335 1.398 . S
C334 H357 0.929 . S
C335 C334 1.398 . S
C335 C336 1.352 1_455 S
C336 C335 1.352 1_655 S
C336 C337 1.384 . S
C336 H358 0.930 . S
C337 C332 1.407 . S
C337 C336 1.384 . S
C337 H359 0.929 . S
C338 O348 1.241 . S
C338 O349 1.273 . S
C339 O350 1.251 . S
C339 O351 1.268 . S
O340 Nd320 2.500 . S
O340 C322 1.258 . S
O341 Nd320 2.492 . S
O341 C322 1.239 . S
O342 Nd320 2.487 . S
O342 C329 1.241 . S
O343 Nd320 2.682 . S
O343 Nd321 2.414 . S
O343 C329 1.273 . S
O344 Nd320 2.410 . S
O344 C330 1.251 . S
O345 Nd321 2.424 . S
O345 C330 1.268 . S
O346 Nd321 2.500 . S
O346 C331 1.258 . S
O347 Nd321 2.492 . S
O347 C331 1.239 . S
O348 Nd321 2.487 . S
O348 C338 1.241 . S
O349 Nd320 2.414 . S
O349 Nd321 2.682 . S
O349 C338 1.273 . S
O350 Nd321 2.410 . S
O350 C339 1.251 . S
O351 Nd320 2.424 . S
O351 C339 1.268 . S
H352 C324 0.930 . S
H353 C325 0.929 . S
H354 C327 0.930 . S
H355 C328 0.929 . S
H356 C333 0.930 . S
H357 C334 0.929 . S
H358 C336 0.930 . S
H359 C337 0.929 . S
Nd360 C362 2.836 . S
Nd360 O380 2.500 . S
Nd360 O381 2.492 . S
Nd360 O382 2.487 . S
Nd360 O383 2.682 . S
Nd360 O384 2.410 . S
Nd360 O389 2.414 . S
Nd360 O391 2.424 . S
Nd361 C371 2.836 . S
Nd361 O383 2.414 . S
Nd361 O385 2.424 . S
Nd361 O386 2.500 . S
Nd361 O387 2.492 . S
Nd361 O388 2.487 . S
Nd361 O389 2.682 . S
Nd361 O390 2.410 . S
C362 Nd360 2.836 . S
C362 C363 1.498 . S
C362 O380 1.258 . S
C362 O381 1.239 . S
C363 C362 1.498 . S
C363 C364 1.366 . S
C363 C368 1.407 . S
C364 C363 1.366 . S
C364 C365 1.392 . S
C364 H392 0.930 . S
C365 C364 1.392 . S
C365 C366 1.398 . S
C365 H393 0.929 . S
C366 C365 1.398 . S
C366 C367 1.352 . S
C367 C366 1.352 . S
C367 C368 1.384 . S
C367 H394 0.930 . S
C368 C363 1.407 . S
C368 C367 1.384 . S
C368 H395 0.929 . S
C369 O382 1.241 . S
C369 O383 1.273 . S
C370 O384 1.251 . S
C370 O385 1.268 . S
C371 Nd361 2.836 . S
C371 C372 1.498 . S
C371 O386 1.258 . S
C371 O387 1.239 . S
C372 C371 1.498 . S
C372 C373 1.366 . S
C372 C377 1.407 . S
C373 C372 1.366 . S
C373 C374 1.392 . S
C373 H396 0.930 . S
C374 C373 1.392 . S
C374 C375 1.398 . S
C374 H397 0.929 . S
C375 C374 1.398 . S
C375 C376 1.352 . S
C376 C375 1.352 . S
C376 C377 1.384 . S
C376 H398 0.930 . S
C377 C372 1.407 . S
C377 C376 1.384 . S
C377 H399 0.929 . S
C378 O388 1.241 . S
C378 O389 1.273 . S
C379 O390 1.251 . S
C379 O391 1.268 . S
O380 Nd360 2.500 . S
O380 C362 1.258 . S
O381 Nd360 2.492 . S
O381 C362 1.239 . S
O382 Nd360 2.487 . S
O382 C369 1.241 . S
O383 Nd360 2.682 . S
O383 Nd361 2.414 . S
O383 C369 1.273 . S
O384 Nd360 2.410 . S
O384 C370 1.251 . S
O385 Nd361 2.424 . S
O385 C370 1.268 . S
O386 Nd361 2.500 . S
O386 C371 1.258 . S
O387 Nd361 2.492 . S
O387 C371 1.239 . S
O388 Nd361 2.487 . S
O388 C378 1.241 . S
O389 Nd360 2.414 . S
O389 Nd361 2.682 . S
O389 C378 1.273 . S
O390 Nd361 2.410 . S
O390 C379 1.251 . S
O391 Nd360 2.424 . S
O391 C379 1.268 . S
H392 C364 0.930 . S
H393 C365 0.929 . S
H394 C367 0.930 . S
H395 C368 0.929 . S
H396 C373 0.930 . S
H397 C374 0.929 . S
H398 C376 0.930 . S
H399 C377 0.929 . S
Nd400 C402 2.836 . S
Nd400 O420 2.500 . S
Nd400 O421 2.492 . S
Nd400 O422 2.487 . S
Nd400 O423 2.682 . S
Nd400 O424 2.410 . S
Nd400 O429 2.414 . S
Nd400 O431 2.424 . S
Nd401 C411 2.836 . S
Nd401 O423 2.414 . S
Nd401 O425 2.424 . S
Nd401 O426 2.500 . S
Nd401 O427 2.492 . S
Nd401 O428 2.487 . S
Nd401 O429 2.682 . S
Nd401 O430 2.410 . S
C402 Nd400 2.836 . S
C402 C403 1.498 . S
C402 O420 1.258 . S
C402 O421 1.239 . S
C403 C402 1.498 . S
C403 C404 1.366 . S
C403 C408 1.407 . S
C404 C403 1.366 . S
C404 C405 1.392 . S
C404 H432 0.930 . S
C405 C404 1.392 . S
C405 C406 1.398 . S
C405 H433 0.929 . S
C406 C405 1.398 . S
C406 C407 1.352 . S
C407 C406 1.352 . S
C407 C408 1.384 . S
C407 H434 0.930 . S
C408 C403 1.407 . S
C408 C407 1.384 . S
C408 H435 0.929 . S
C409 O422 1.241 . S
C409 O423 1.273 . S
C410 O424 1.251 . S
C410 O425 1.268 . S
C411 Nd401 2.836 . S
C411 C412 1.498 . S
C411 O426 1.258 . S
C411 O427 1.239 . S
C412 C411 1.498 . S
C412 C413 1.366 . S
C412 C417 1.407 . S
C413 C412 1.366 . S
C413 C414 1.392 . S
C413 H436 0.930 . S
C414 C413 1.392 . S
C414 C415 1.398 . S
C414 H437 0.929 . S
C415 C414 1.398 . S
C415 C416 1.352 . S
C416 C415 1.352 . S
C416 C417 1.384 . S
C416 H438 0.930 . S
C417 C412 1.407 . S
C417 C416 1.384 . S
C417 H439 0.929 . S
C418 O428 1.241 . S
C418 O429 1.273 . S
C419 O430 1.251 . S
C419 O431 1.268 . S
O420 Nd400 2.500 . S
O420 C402 1.258 . S
O421 Nd400 2.492 . S
O421 C402 1.239 . S
O422 Nd400 2.487 . S
O422 C409 1.241 . S
O423 Nd400 2.682 . S
O423 Nd401 2.414 . S
O423 C409 1.273 . S
O424 Nd400 2.410 . S
O424 C410 1.251 . S
O425 Nd401 2.424 . S
O425 C410 1.268 . S
O426 Nd401 2.500 . S
O426 C411 1.258 . S
O427 Nd401 2.492 . S
O427 C411 1.239 . S
O428 Nd401 2.487 . S
O428 C418 1.241 . S
O429 Nd400 2.414 . S
O429 Nd401 2.682 . S
O429 C418 1.273 . S
O430 Nd401 2.410 . S
O430 C419 1.251 . S
O431 Nd400 2.424 . S
O431 C419 1.268 . S
H432 C404 0.930 . S
H433 C405 0.929 . S
H434 C407 0.930 . S
H435 C408 0.929 . S
H436 C413 0.930 . S
H437 C414 0.929 . S
H438 C416 0.930 . S
H439 C417 0.929 . S
Nd440 C442 2.836 . S
Nd440 O460 2.500 . S
Nd440 O461 2.492 . S
Nd440 O462 2.487 . S
Nd440 O463 2.682 . S
Nd440 O464 2.410 . S
Nd440 O469 2.414 . S
Nd440 O471 2.424 . S
Nd441 C451 2.836 . S
Nd441 O463 2.414 . S
Nd441 O465 2.424 . S
Nd441 O466 2.500 . S
Nd441 O467 2.492 . S
Nd441 O468 2.487 . S
Nd441 O469 2.682 . S
Nd441 O470 2.410 . S
C442 Nd440 2.836 . S
C442 C443 1.498 . S
C442 O460 1.258 . S
C442 O461 1.239 . S
C443 C442 1.498 . S
C443 C444 1.366 . S
C443 C448 1.407 . S
C444 C443 1.366 . S
C444 C445 1.392 . S
C444 H472 0.930 . S
C445 C444 1.392 . S
C445 C446 1.398 . S
C445 H473 0.929 . S
C446 C445 1.398 . S
C446 C447 1.352 . S
C447 C446 1.352 . S
C447 C448 1.384 . S
C447 H474 0.930 . S
C448 C443 1.407 . S
C448 C447 1.384 . S
C448 H475 0.929 . S
C449 O462 1.241 . S
C449 O463 1.273 . S
C450 O464 1.251 . S
C450 O465 1.268 . S
C451 Nd441 2.836 . S
C451 C452 1.498 . S
C451 O466 1.258 . S
C451 O467 1.239 . S
C452 C451 1.498 . S
C452 C453 1.366 . S
C452 C457 1.407 . S
C453 C452 1.366 . S
C453 C454 1.392 . S
C453 H476 0.930 . S
C454 C453 1.392 . S
C454 C455 1.398 . S
C454 H477 0.929 . S
C455 C454 1.398 . S
C455 C456 1.352 . S
C456 C455 1.352 . S
C456 C457 1.384 . S
C456 H478 0.930 . S
C457 C452 1.407 . S
C457 C456 1.384 . S
C457 H479 0.929 . S
C458 O468 1.241 . S
C458 O469 1.273 . S
C459 O470 1.251 . S
C459 O471 1.268 . S
O460 Nd440 2.500 . S
O460 C442 1.258 . S
O461 Nd440 2.492 . S
O461 C442 1.239 . S
O462 Nd440 2.487 . S
O462 C449 1.241 . S
O463 Nd440 2.682 . S
O463 Nd441 2.414 . S
O463 C449 1.273 . S
O464 Nd440 2.410 . S
O464 C450 1.251 . S
O465 Nd441 2.424 . S
O465 C450 1.268 . S
O466 Nd441 2.500 . S
O466 C451 1.258 . S
O467 Nd441 2.492 . S
O467 C451 1.239 . S
O468 Nd441 2.487 . S
O468 C458 1.241 . S
O469 Nd440 2.414 . S
O469 Nd441 2.682 . S
O469 C458 1.273 . S
O470 Nd441 2.410 . S
O470 C459 1.251 . S
O471 Nd440 2.424 . S
O471 C459 1.268 . S
H472 C444 0.930 . S
H473 C445 0.929 . S
H474 C447 0.930 . S
H475 C448 0.929 . S
H476 C453 0.930 . S
H477 C454 0.929 . S
H478 C456 0.930 . S
H479 C457 0.929 . S
Nd480 C482 2.836 . S
Nd480 O500 2.500 . S
Nd480 O501 2.492 . S
Nd480 O502 2.487 . S
Nd480 O503 2.682 . S
Nd480 O504 2.410 . S
Nd480 O509 2.414 . S
Nd480 O511 2.424 . S
Nd481 C491 2.836 . S
Nd481 O503 2.414 . S
Nd481 O505 2.424 . S
Nd481 O506 2.500 . S
Nd481 O507 2.492 . S
Nd481 O508 2.487 . S
Nd481 O509 2.682 . S
Nd481 O510 2.410 . S
C482 Nd480 2.836 . S
C482 C483 1.498 . S
C482 O500 1.258 . S
C482 O501 1.239 . S
C483 C482 1.498 . S
C483 C484 1.366 . S
C483 C488 1.407 . S
C484 C483 1.366 . S
C484 C485 1.392 . S
C484 H512 0.930 . S
C485 C484 1.392 . S
C485 C486 1.398 . S
C485 H513 0.929 . S
C486 C485 1.398 . S
C486 C487 1.352 . S
C487 C486 1.352 . S
C487 C488 1.384 . S
C487 H514 0.930 . S
C488 C483 1.407 . S
C488 C487 1.384 . S
C488 H515 0.929 . S
C489 O502 1.241 . S
C489 O503 1.273 . S
C490 O504 1.251 . S
C490 O505 1.268 . S
C491 Nd481 2.836 . S
C491 C492 1.498 . S
C491 O506 1.258 . S
C491 O507 1.239 . S
C492 C491 1.498 . S
C492 C493 1.366 . S
C492 C497 1.407 . S
C493 C492 1.366 . S
C493 C494 1.392 1_655 S
C493 H516 0.930 . S
C494 C493 1.392 1_455 S
C494 C495 1.398 . S
C494 H517 0.929 . S
C495 C494 1.398 . S
C495 C496 1.352 1_455 S
C496 C495 1.352 1_655 S
C496 C497 1.384 . S
C496 H518 0.930 . S
C497 C492 1.407 . S
C497 C496 1.384 . S
C497 H519 0.929 . S
C498 O508 1.241 . S
C498 O509 1.273 . S
C499 O510 1.251 . S
C499 O511 1.268 . S
O500 Nd480 2.500 . S
O500 C482 1.258 . S
O501 Nd480 2.492 . S
O501 C482 1.239 . S
O502 Nd480 2.487 . S
O502 C489 1.241 . S
O503 Nd480 2.682 . S
O503 Nd481 2.414 . S
O503 C489 1.273 . S
O504 Nd480 2.410 . S
O504 C490 1.251 . S
O505 Nd481 2.424 . S
O505 C490 1.268 . S
O506 Nd481 2.500 . S
O506 C491 1.258 . S
O507 Nd481 2.492 . S
O507 C491 1.239 . S
O508 Nd481 2.487 . S
O508 C498 1.241 . S
O509 Nd480 2.414 . S
O509 Nd481 2.682 . S
O509 C498 1.273 . S
O510 Nd481 2.410 . S
O510 C499 1.251 . S
O511 Nd480 2.424 . S
O511 C499 1.268 . S
H512 C484 0.930 . S
H513 C485 0.929 . S
H514 C487 0.930 . S
H515 C488 0.929 . S
H516 C493 0.930 . S
H517 C494 0.929 . S
H518 C496 0.930 . S
H519 C497 0.929 . S
Nd520 C522 2.836 . S
Nd520 O540 2.500 . S
Nd520 O541 2.492 . S
Nd520 O542 2.487 . S
Nd520 O543 2.682 . S
Nd520 O544 2.410 . S
Nd520 O549 2.414 . S
Nd520 O551 2.424 . S
Nd521 C531 2.836 . S
Nd521 O543 2.414 . S
Nd521 O545 2.424 . S
Nd521 O546 2.500 . S
Nd521 O547 2.492 . S
Nd521 O548 2.487 . S
Nd521 O549 2.682 . S
Nd521 O550 2.410 . S
C522 Nd520 2.836 . S
C522 C523 1.498 . S
C522 O540 1.258 . S
C522 O541 1.239 . S
C523 C522 1.498 . S
C523 C524 1.366 . S
C523 C528 1.407 . S
C524 C523 1.366 . S
C524 C525 1.392 . S
C524 H552 0.930 . S
C525 C524 1.392 . S
C525 C526 1.398 . S
C525 H553 0.929 . S
C526 C525 1.398 . S
C526 C527 1.352 . S
C527 C526 1.352 . S
C527 C528 1.384 . S
C527 H554 0.930 . S
C528 C523 1.407 . S
C528 C527 1.384 . S
C528 H555 0.929 . S
C529 O542 1.241 . S
C529 O543 1.273 . S
C530 O544 1.251 . S
C530 O545 1.268 . S
C531 Nd521 2.836 . S
C531 C532 1.498 . S
C531 O546 1.258 . S
C531 O547 1.239 . S
C532 C531 1.498 . S
C532 C533 1.366 . S
C532 C537 1.407 . S
C533 C532 1.366 . S
C533 C534 1.392 . S
C533 H556 0.930 . S
C534 C533 1.392 . S
C534 C535 1.398 . S
C534 H557 0.929 . S
C535 C534 1.398 . S
C535 C536 1.352 . S
C536 C535 1.352 . S
C536 C537 1.384 . S
C536 H558 0.930 . S
C537 C532 1.407 . S
C537 C536 1.384 . S
C537 H559 0.929 . S
C538 O548 1.241 . S
C538 O549 1.273 . S
C539 O550 1.251 . S
C539 O551 1.268 . S
O540 Nd520 2.500 . S
O540 C522 1.258 . S
O541 Nd520 2.492 . S
O541 C522 1.239 . S
O542 Nd520 2.487 . S
O542 C529 1.241 . S
O543 Nd520 2.682 . S
O543 Nd521 2.414 . S
O543 C529 1.273 . S
O544 Nd520 2.410 . S
O544 C530 1.251 . S
O545 Nd521 2.424 . S
O545 C530 1.268 . S
O546 Nd521 2.500 . S
O546 C531 1.258 . S
O547 Nd521 2.492 . S
O547 C531 1.239 . S
O548 Nd521 2.487 . S
O548 C538 1.241 . S
O549 Nd520 2.414 . S
O549 Nd521 2.682 . S
O549 C538 1.273 . S
O550 Nd521 2.410 . S
O550 C539 1.251 . S
O551 Nd520 2.424 . S
O551 C539 1.268 . S
H552 C524 0.930 . S
H553 C525 0.929 . S
H554 C527 0.930 . S
H555 C528 0.929 . S
H556 C533 0.930 . S
H557 C534 0.929 . S
H558 C536 0.930 . S
H559 C537 0.929 . S
Nd560 C562 2.836 . S
Nd560 O580 2.500 . S
Nd560 O581 2.492 . S
Nd560 O582 2.487 . S
Nd560 O583 2.682 . S
Nd560 O584 2.410 . S
Nd560 O589 2.414 . S
Nd560 O591 2.424 . S
Nd561 C571 2.836 . S
Nd561 O583 2.414 . S
Nd561 O585 2.424 . S
Nd561 O586 2.500 . S
Nd561 O587 2.492 . S
Nd561 O588 2.487 . S
Nd561 O589 2.682 . S
Nd561 O590 2.410 . S
C562 Nd560 2.836 . S
C562 C563 1.498 . S
C562 O580 1.258 . S
C562 O581 1.239 . S
C563 C562 1.498 . S
C563 C564 1.366 . S
C563 C568 1.407 . S
C564 C563 1.366 . S
C564 C565 1.392 . S
C564 H592 0.930 . S
C565 C564 1.392 . S
C565 C566 1.398 . S
C565 H593 0.929 . S
C566 C565 1.398 . S
C566 C567 1.352 . S
C567 C566 1.352 . S
C567 C568 1.384 . S
C567 H594 0.930 . S
C568 C563 1.407 . S
C568 C567 1.384 . S
C568 H595 0.929 . S
C569 O582 1.241 . S
C569 O583 1.273 . S
C570 O584 1.251 . S
C570 O585 1.268 . S
C571 Nd561 2.836 . S
C571 C572 1.498 . S
C571 O586 1.258 . S
C571 O587 1.239 . S
C572 C571 1.498 . S
C572 C573 1.366 . S
C572 C577 1.407 . S
C573 C572 1.366 . S
C573 C574 1.392 . S
C573 H596 0.930 . S
C574 C573 1.392 . S
C574 C575 1.398 . S
C574 H597 0.929 . S
C575 C574 1.398 . S
C575 C576 1.352 . S
C576 C575 1.352 . S
C576 C577 1.384 . S
C576 H598 0.930 . S
C577 C572 1.407 . S
C577 C576 1.384 . S
C577 H599 0.929 . S
C578 O588 1.241 . S
C578 O589 1.273 . S
C579 O590 1.251 . S
C579 O591 1.268 . S
O580 Nd560 2.500 . S
O580 C562 1.258 . S
O581 Nd560 2.492 . S
O581 C562 1.239 . S
O582 Nd560 2.487 . S
O582 C569 1.241 . S
O583 Nd560 2.682 . S
O583 Nd561 2.414 . S
O583 C569 1.273 . S
O584 Nd560 2.410 . S
O584 C570 1.251 . S
O585 Nd561 2.424 . S
O585 C570 1.268 . S
O586 Nd561 2.500 . S
O586 C571 1.258 . S
O587 Nd561 2.492 . S
O587 C571 1.239 . S
O588 Nd561 2.487 . S
O588 C578 1.241 . S
O589 Nd560 2.414 . S
O589 Nd561 2.682 . S
O589 C578 1.273 . S
O590 Nd561 2.410 . S
O590 C579 1.251 . S
O591 Nd560 2.424 . S
O591 C579 1.268 . S
H592 C564 0.930 . S
H593 C565 0.929 . S
H594 C567 0.930 . S
H595 C568 0.929 . S
H596 C573 0.930 . S
H597 C574 0.929 . S
H598 C576 0.930 . S
H599 C577 0.929 . S
Nd600 C602 2.836 . S
Nd600 O620 2.500 . S
Nd600 O621 2.492 . S
Nd600 O622 2.487 . S
Nd600 O623 2.682 . S
Nd600 O624 2.410 . S
Nd600 O629 2.414 . S
Nd600 O631 2.424 . S
Nd601 C611 2.836 . S
Nd601 O623 2.414 . S
Nd601 O625 2.424 . S
Nd601 O626 2.500 . S
Nd601 O627 2.492 . S
Nd601 O628 2.487 . S
Nd601 O629 2.682 . S
Nd601 O630 2.410 . S
C602 Nd600 2.836 . S
C602 C603 1.498 . S
C602 O620 1.258 . S
C602 O621 1.239 . S
C603 C602 1.498 . S
C603 C604 1.366 . S
C603 C608 1.407 . S
C604 C603 1.366 . S
C604 C605 1.392 . S
C604 H632 0.930 . S
C605 C604 1.392 . S
C605 C606 1.398 . S
C605 H633 0.929 . S
C606 C605 1.398 . S
C606 C607 1.352 . S
C607 C606 1.352 . S
C607 C608 1.384 . S
C607 H634 0.930 . S
C608 C603 1.407 . S
C608 C607 1.384 . S
C608 H635 0.929 . S
C609 O622 1.241 . S
C609 O623 1.273 . S
C610 O624 1.251 . S
C610 O625 1.268 . S
C611 Nd601 2.836 . S
C611 C612 1.498 . S
C611 O626 1.258 . S
C611 O627 1.239 . S
C612 C611 1.498 . S
C612 C613 1.366 . S
C612 C617 1.407 . S
C613 C612 1.366 . S
C613 C614 1.392 . S
C613 H636 0.930 . S
C614 C613 1.392 . S
C614 C615 1.398 . S
C614 H637 0.929 . S
C615 C614 1.398 . S
C615 C616 1.352 . S
C616 C615 1.352 . S
C616 C617 1.384 . S
C616 H638 0.930 . S
C617 C612 1.407 . S
C617 C616 1.384 . S
C617 H639 0.929 . S
C618 O628 1.241 . S
C618 O629 1.273 . S
C619 O630 1.251 . S
C619 O631 1.268 . S
O620 Nd600 2.500 . S
O620 C602 1.258 . S
O621 Nd600 2.492 . S
O621 C602 1.239 . S
O622 Nd600 2.487 . S
O622 C609 1.241 . S
O623 Nd600 2.682 . S
O623 Nd601 2.414 . S
O623 C609 1.273 . S
O624 Nd600 2.410 . S
O624 C610 1.251 . S
O625 Nd601 2.424 . S
O625 C610 1.268 . S
O626 Nd601 2.500 . S
O626 C611 1.258 . S
O627 Nd601 2.492 . S
O627 C611 1.239 . S
O628 Nd601 2.487 . S
O628 C618 1.241 . S
O629 Nd600 2.414 . S
O629 Nd601 2.682 . S
O629 C618 1.273 . S
O630 Nd601 2.410 . S
O630 C619 1.251 . S
O631 Nd600 2.424 . S
O631 C619 1.268 . S
H632 C604 0.930 . S
H633 C605 0.929 . S
H634 C607 0.930 . S
H635 C608 0.929 . S
H636 C613 0.930 . S
H637 C614 0.929 . S
H638 C616 0.930 . S
H639 C617 0.929 . S
Nd640 C642 2.836 . S
Nd640 O660 2.500 . S
Nd640 O661 2.492 . S
Nd640 O662 2.487 . S
Nd640 O663 2.682 . S
Nd640 O664 2.410 . S
Nd640 O669 2.414 . S
Nd640 O671 2.424 . S
Nd641 C651 2.836 . S
Nd641 O663 2.414 . S
Nd641 O665 2.424 . S
Nd641 O666 2.500 . S
Nd641 O667 2.492 . S
Nd641 O668 2.487 . S
Nd641 O669 2.682 . S
Nd641 O670 2.410 . S
C642 Nd640 2.836 . S
C642 C643 1.498 . S
C642 O660 1.258 . S
C642 O661 1.239 . S
C643 C642 1.498 . S
C643 C644 1.366 . S
C643 C648 1.407 . S
C644 C643 1.366 . S
C644 C645 1.392 . S
C644 H672 0.930 . S
C645 C644 1.392 . S
C645 C646 1.398 . S
C645 H673 0.929 . S
C646 C645 1.398 . S
C646 C647 1.352 . S
C647 C646 1.352 . S
C647 C648 1.384 . S
C647 H674 0.930 . S
C648 C643 1.407 . S
C648 C647 1.384 . S
C648 H675 0.929 . S
C649 O662 1.241 . S
C649 O663 1.273 . S
C650 O664 1.251 . S
C650 O665 1.268 . S
C651 Nd641 2.836 . S
C651 C652 1.498 . S
C651 O666 1.258 . S
C651 O667 1.239 . S
C652 C651 1.498 . S
C652 C653 1.366 . S
C652 C657 1.407 . S
C653 C652 1.366 . S
C653 C654 1.392 . S
C653 H676 0.930 . S
C654 C653 1.392 . S
C654 C655 1.398 . S
C654 H677 0.929 . S
C655 C654 1.398 . S
C655 C656 1.352 . S
C656 C655 1.352 . S
C656 C657 1.384 . S
C656 H678 0.930 . S
C657 C652 1.407 . S
C657 C656 1.384 . S
C657 H679 0.929 . S
C658 O668 1.241 . S
C658 O669 1.273 . S
C659 O670 1.251 . S
C659 O671 1.268 . S
O660 Nd640 2.500 . S
O660 C642 1.258 . S
O661 Nd640 2.492 . S
O661 C642 1.239 . S
O662 Nd640 2.487 . S
O662 C649 1.241 . S
O663 Nd640 2.682 . S
O663 Nd641 2.414 . S
O663 C649 1.273 . S
O664 Nd640 2.410 . S
O664 C650 1.251 . S
O665 Nd641 2.424 . S
O665 C650 1.268 . S
O666 Nd641 2.500 . S
O666 C651 1.258 . S
O667 Nd641 2.492 . S
O667 C651 1.239 . S
O668 Nd641 2.487 . S
O668 C658 1.241 . S
O669 Nd640 2.414 . S
O669 Nd641 2.682 . S
O669 C658 1.273 . S
O670 Nd641 2.410 . S
O670 C659 1.251 . S
O671 Nd640 2.424 . S
O671 C659 1.268 . S
H672 C644 0.930 . S
H673 C645 0.929 . S
H674 C647 0.930 . S
H675 C648 0.929 . S
H676 C653 0.930 . S
H677 C654 0.929 . S
H678 C656 0.930 . S
H679 C657 0.929 . S
Nd680 C682 2.836 . S
Nd680 O700 2.500 . S
Nd680 O701 2.492 . S
Nd680 O702 2.487 . S
Nd680 O703 2.682 . S
Nd680 O704 2.410 . S
Nd680 O709 2.414 . S
Nd680 O711 2.424 . S
Nd681 C691 2.836 . S
Nd681 O703 2.414 . S
Nd681 O705 2.424 . S
Nd681 O706 2.500 . S
Nd681 O707 2.492 . S
Nd681 O708 2.487 . S
Nd681 O709 2.682 . S
Nd681 O710 2.410 . S
C682 Nd680 2.836 . S
C682 C683 1.498 . S
C682 O700 1.258 . S
C682 O701 1.239 . S
C683 C682 1.498 . S
C683 C684 1.366 . S
C683 C688 1.407 . S
C684 C683 1.366 . S
C684 C685 1.392 . S
C684 H712 0.930 . S
C685 C684 1.392 . S
C685 C686 1.398 . S
C685 H713 0.929 . S
C686 C685 1.398 . S
C686 C687 1.352 . S
C687 C686 1.352 . S
C687 C688 1.384 . S
C687 H714 0.930 . S
C688 C683 1.407 . S
C688 C687 1.384 . S
C688 H715 0.929 . S
C689 O702 1.241 . S
C689 O703 1.273 . S
C690 O704 1.251 . S
C690 O705 1.268 . S
C691 Nd681 2.836 . S
C691 C692 1.498 . S
C691 O706 1.258 . S
C691 O707 1.239 . S
C692 C691 1.498 . S
C692 C693 1.366 . S
C692 C697 1.407 . S
C693 C692 1.366 . S
C693 C694 1.392 . S
C693 H716 0.930 . S
C694 C693 1.392 . S
C694 C695 1.398 . S
C694 H717 0.929 . S
C695 C694 1.398 . S
C695 C696 1.352 . S
C696 C695 1.352 . S
C696 C697 1.384 . S
C696 H718 0.930 . S
C697 C692 1.407 . S
C697 C696 1.384 . S
C697 H719 0.929 . S
C698 O708 1.241 . S
C698 O709 1.273 . S
C699 O710 1.251 . S
C699 O711 1.268 . S
O700 Nd680 2.500 . S
O700 C682 1.258 . S
O701 Nd680 2.492 . S
O701 C682 1.239 . S
O702 Nd680 2.487 . S
O702 C689 1.241 . S
O703 Nd680 2.682 . S
O703 Nd681 2.414 . S
O703 C689 1.273 . S
O704 Nd680 2.410 . S
O704 C690 1.251 . S
O705 Nd681 2.424 . S
O705 C690 1.268 . S
O706 Nd681 2.500 . S
O706 C691 1.258 . S
O707 Nd681 2.492 . S
O707 C691 1.239 . S
O708 Nd681 2.487 . S
O708 C698 1.241 . S
O709 Nd680 2.414 . S
O709 Nd681 2.682 . S
O709 C698 1.273 . S
O710 Nd681 2.410 . S
O710 C699 1.251 . S
O711 Nd680 2.424 . S
O711 C699 1.268 . S
H712 C684 0.930 . S
H713 C685 0.929 . S
H714 C687 0.930 . S
H715 C688 0.929 . S
H716 C693 0.930 . S
H717 C694 0.929 . S
H718 C696 0.930 . S
H719 C697 0.929 . S
Nd720 C722 2.836 . S
Nd720 O740 2.500 . S
Nd720 O741 2.492 . S
Nd720 O742 2.487 . S
Nd720 O743 2.682 . S
Nd720 O744 2.410 . S
Nd720 O749 2.414 . S
Nd720 O751 2.424 . S
Nd721 C731 2.836 . S
Nd721 O743 2.414 . S
Nd721 O745 2.424 . S
Nd721 O746 2.500 . S
Nd721 O747 2.492 . S
Nd721 O748 2.487 . S
Nd721 O749 2.682 . S
Nd721 O750 2.410 . S
C722 Nd720 2.836 . S
C722 C723 1.498 . S
C722 O740 1.258 . S
C722 O741 1.239 . S
C723 C722 1.498 . S
C723 C724 1.366 . S
C723 C728 1.407 . S
C724 C723 1.366 . S
C724 C725 1.392 1_655 S
C724 H752 0.930 . S
C725 C724 1.392 1_455 S
C725 C726 1.398 . S
C725 H753 0.929 . S
C726 C725 1.398 . S
C726 C727 1.352 1_455 S
C727 C726 1.352 1_655 S
C727 C728 1.384 . S
C727 H754 0.930 . S
C728 C723 1.407 . S
C728 C727 1.384 . S
C728 H755 0.929 . S
C729 O742 1.241 . S
C729 O743 1.273 . S
C730 O744 1.251 . S
C730 O745 1.268 . S
C731 Nd721 2.836 . S
C731 C732 1.498 . S
C731 O746 1.258 . S
C731 O747 1.239 . S
C732 C731 1.498 . S
C732 C733 1.366 . S
C732 C737 1.407 . S
C733 C732 1.366 . S
C733 C734 1.392 . S
C733 H756 0.930 . S
C734 C733 1.392 . S
C734 C735 1.398 . S
C734 H757 0.929 . S
C735 C734 1.398 . S
C735 C736 1.352 . S
C736 C735 1.352 . S
C736 C737 1.384 . S
C736 H758 0.930 . S
C737 C732 1.407 . S
C737 C736 1.384 . S
C737 H759 0.929 . S
C738 O748 1.241 . S
C738 O749 1.273 . S
C739 O750 1.251 . S
C739 O751 1.268 . S
O740 Nd720 2.500 . S
O740 C722 1.258 . S
O741 Nd720 2.492 . S
O741 C722 1.239 . S
O742 Nd720 2.487 . S
O742 C729 1.241 . S
O743 Nd720 2.682 . S
O743 Nd721 2.414 . S
O743 C729 1.273 . S
O744 Nd720 2.410 . S
O744 C730 1.251 . S
O745 Nd721 2.424 . S
O745 C730 1.268 . S
O746 Nd721 2.500 . S
O746 C731 1.258 . S
O747 Nd721 2.492 . S
O747 C731 1.239 . S
O748 Nd721 2.487 . S
O748 C738 1.241 . S
O749 Nd720 2.414 . S
O749 Nd721 2.682 . S
O749 C738 1.273 . S
O750 Nd721 2.410 . S
O750 C739 1.251 . S
O751 Nd720 2.424 . S
O751 C739 1.268 . S
H752 C724 0.930 . S
H753 C725 0.929 . S
H754 C727 0.930 . S
H755 C728 0.929 . S
H756 C733 0.930 . S
H757 C734 0.929 . S
H758 C736 0.930 . S
H759 C737 0.929 . S
Nd760 C762 2.836 . S
Nd760 O780 2.500 . S
Nd760 O781 2.492 . S
Nd760 O782 2.487 . S
Nd760 O783 2.682 . S
Nd760 O784 2.410 . S
Nd760 O789 2.414 . S
Nd760 O791 2.424 . S
Nd761 C771 2.836 . S
Nd761 O783 2.414 . S
Nd761 O785 2.424 . S
Nd761 O786 2.500 . S
Nd761 O787 2.492 . S
Nd761 O788 2.487 . S
Nd761 O789 2.682 . S
Nd761 O790 2.410 . S
C762 Nd760 2.836 . S
C762 C763 1.498 . S
C762 O780 1.258 . S
C762 O781 1.239 . S
C763 C762 1.498 . S
C763 C764 1.366 . S
C763 C768 1.407 . S
C764 C763 1.366 . S
C764 C765 1.392 . S
C764 H792 0.930 . S
C765 C764 1.392 . S
C765 C766 1.398 . S
C765 H793 0.929 . S
C766 C765 1.398 . S
C766 C767 1.352 . S
C767 C766 1.352 . S
C767 C768 1.384 . S
C767 H794 0.930 . S
C768 C763 1.407 . S
C768 C767 1.384 . S
C768 H795 0.929 . S
C769 O782 1.241 . S
C769 O783 1.273 . S
C770 O784 1.251 . S
C770 O785 1.268 . S
C771 Nd761 2.836 . S
C771 C772 1.498 . S
C771 O786 1.258 . S
C771 O787 1.239 . S
C772 C771 1.498 . S
C772 C773 1.366 . S
C772 C777 1.407 . S
C773 C772 1.366 . S
C773 C774 1.392 . S
C773 H796 0.930 . S
C774 C773 1.392 . S
C774 C775 1.398 . S
C774 H797 0.929 . S
C775 C774 1.398 . S
C775 C776 1.352 . S
C776 C775 1.352 . S
C776 C777 1.384 . S
C776 H798 0.930 . S
C777 C772 1.407 . S
C777 C776 1.384 . S
C777 H799 0.929 . S
C778 O788 1.241 . S
C778 O789 1.273 . S
C779 O790 1.251 . S
C779 O791 1.268 . S
O780 Nd760 2.500 . S
O780 C762 1.258 . S
O781 Nd760 2.492 . S
O781 C762 1.239 . S
O782 Nd760 2.487 . S
O782 C769 1.241 . S
O783 Nd760 2.682 . S
O783 Nd761 2.414 . S
O783 C769 1.273 . S
O784 Nd760 2.410 . S
O784 C770 1.251 . S
O785 Nd761 2.424 . S
O785 C770 1.268 . S
O786 Nd761 2.500 . S
O786 C771 1.258 . S
O787 Nd761 2.492 . S
O787 C771 1.239 . S
O788 Nd761 2.487 . S
O788 C778 1.241 . S
O789 Nd760 2.414 . S
O789 Nd761 2.682 . S
O789 C778 1.273 . S
O790 Nd761 2.410 . S
O790 C779 1.251 . S
O791 Nd760 2.424 . S
O791 C779 1.268 . S
H792 C764 0.930 . S
H793 C765 0.929 . S
H794 C767 0.930 . S
H795 C768 0.929 . S
H796 C773 0.930 . S
H797 C774 0.929 . S
H798 C776 0.930 . S
H799 C777 0.929 . S
Nd800 C802 2.836 . S
Nd800 O820 2.500 . S
Nd800 O821 2.492 . S
Nd800 O822 2.487 . S
Nd800 O823 2.682 . S
Nd800 O824 2.410 . S
Nd800 O829 2.414 . S
Nd800 O831 2.424 . S
Nd801 C811 2.836 . S
Nd801 O823 2.414 . S
Nd801 O825 2.424 . S
Nd801 O826 2.500 . S
Nd801 O827 2.492 . S
Nd801 O828 2.487 . S
Nd801 O829 2.682 . S
Nd801 O830 2.410 . S
C802 Nd800 2.836 . S
C802 C803 1.498 . S
C802 O820 1.258 . S
C802 O821 1.239 . S
C803 C802 1.498 . S
C803 C804 1.366 . S
C803 C808 1.407 . S
C804 C803 1.366 . S
C804 C805 1.392 . S
C804 H832 0.930 . S
C805 C804 1.392 . S
C805 C806 1.398 . S
C805 H833 0.929 . S
C806 C805 1.398 . S
C806 C807 1.352 . S
C807 C806 1.352 . S
C807 C808 1.384 . S
C807 H834 0.930 . S
C808 C803 1.407 . S
C808 C807 1.384 . S
C808 H835 0.929 . S
C809 O822 1.241 . S
C809 O823 1.273 . S
C810 O824 1.251 . S
C810 O825 1.268 . S
C811 Nd801 2.836 . S
C811 C812 1.498 . S
C811 O826 1.258 . S
C811 O827 1.239 . S
C812 C811 1.498 . S
C812 C813 1.366 . S
C812 C817 1.407 . S
C813 C812 1.366 . S
C813 C814 1.392 . S
C813 H836 0.930 . S
C814 C813 1.392 . S
C814 C815 1.398 . S
C814 H837 0.929 . S
C815 C814 1.398 . S
C815 C816 1.352 . S
C816 C815 1.352 . S
C816 C817 1.384 . S
C816 H838 0.930 . S
C817 C812 1.407 . S
C817 C816 1.384 . S
C817 H839 0.929 . S
C818 O828 1.241 . S
C818 O829 1.273 . S
C819 O830 1.251 . S
C819 O831 1.268 . S
O820 Nd800 2.500 . S
O820 C802 1.258 . S
O821 Nd800 2.492 . S
O821 C802 1.239 . S
O822 Nd800 2.487 . S
O822 C809 1.241 . S
O823 Nd800 2.682 . S
O823 Nd801 2.414 . S
O823 C809 1.273 . S
O824 Nd800 2.410 . S
O824 C810 1.251 . S
O825 Nd801 2.424 . S
O825 C810 1.268 . S
O826 Nd801 2.500 . S
O826 C811 1.258 . S
O827 Nd801 2.492 . S
O827 C811 1.239 . S
O828 Nd801 2.487 . S
O828 C818 1.241 . S
O829 Nd800 2.414 . S
O829 Nd801 2.682 . S
O829 C818 1.273 . S
O830 Nd801 2.410 . S
O830 C819 1.251 . S
O831 Nd800 2.424 . S
O831 C819 1.268 . S
H832 C804 0.930 . S
H833 C805 0.929 . S
H834 C807 0.930 . S
H835 C808 0.929 . S
H836 C813 0.930 . S
H837 C814 0.929 . S
H838 C816 0.930 . S
H839 C817 0.929 . S
Nd840 C842 2.836 . S
Nd840 O860 2.500 . S
Nd840 O861 2.492 . S
Nd840 O862 2.487 . S
Nd840 O863 2.682 . S
Nd840 O864 2.410 . S
Nd840 O869 2.414 . S
Nd840 O871 2.424 . S
Nd841 C851 2.836 . S
Nd841 O863 2.414 . S
Nd841 O865 2.424 . S
Nd841 O866 2.500 . S
Nd841 O867 2.492 . S
Nd841 O868 2.487 . S
Nd841 O869 2.682 . S
Nd841 O870 2.410 . S
C842 Nd840 2.836 . S
C842 C843 1.498 . S
C842 O860 1.258 . S
C842 O861 1.239 . S
C843 C842 1.498 . S
C843 C844 1.366 . S
C843 C848 1.407 . S
C844 C843 1.366 . S
C844 C845 1.392 . S
C844 H872 0.930 . S
C845 C844 1.392 . S
C845 C846 1.398 . S
C845 H873 0.929 . S
C846 C845 1.398 . S
C846 C847 1.352 . S
C847 C846 1.352 . S
C847 C848 1.384 . S
C847 H874 0.930 . S
C848 C843 1.407 . S
C848 C847 1.384 . S
C848 H875 0.929 . S
C849 O862 1.241 . S
C849 O863 1.273 . S
C850 O864 1.251 . S
C850 O865 1.268 . S
C851 Nd841 2.836 . S
C851 C852 1.498 . S
C851 O866 1.258 . S
C851 O867 1.239 . S
C852 C851 1.498 . S
C852 C853 1.366 . S
C852 C857 1.407 . S
C853 C852 1.366 . S
C853 C854 1.392 . S
C853 H876 0.930 . S
C854 C853 1.392 . S
C854 C855 1.398 . S
C854 H877 0.929 . S
C855 C854 1.398 . S
C855 C856 1.352 . S
C856 C855 1.352 . S
C856 C857 1.384 . S
C856 H878 0.930 . S
C857 C852 1.407 . S
C857 C856 1.384 . S
C857 H879 0.929 . S
C858 O868 1.241 . S
C858 O869 1.273 . S
C859 O870 1.251 . S
C859 O871 1.268 . S
O860 Nd840 2.500 . S
O860 C842 1.258 . S
O861 Nd840 2.492 . S
O861 C842 1.239 . S
O862 Nd840 2.487 . S
O862 C849 1.241 . S
O863 Nd840 2.682 . S
O863 Nd841 2.414 . S
O863 C849 1.273 . S
O864 Nd840 2.410 . S
O864 C850 1.251 . S
O865 Nd841 2.424 . S
O865 C850 1.268 . S
O866 Nd841 2.500 . S
O866 C851 1.258 . S
O867 Nd841 2.492 . S
O867 C851 1.239 . S
O868 Nd841 2.487 . S
O868 C858 1.241 . S
O869 Nd840 2.414 . S
O869 Nd841 2.682 . S
O869 C858 1.273 . S
O870 Nd841 2.410 . S
O870 C859 1.251 . S
O871 Nd840 2.424 . S
O871 C859 1.268 . S
H872 C844 0.930 . S
H873 C845 0.929 . S
H874 C847 0.930 . S
H875 C848 0.929 . S
H876 C853 0.930 . S
H877 C854 0.929 . S
H878 C856 0.930 . S
H879 C857 0.929 . S
Nd880 C882 2.836 . S
Nd880 O900 2.500 . S
Nd880 O901 2.492 . S
Nd880 O902 2.487 . S
Nd880 O903 2.682 . S
Nd880 O904 2.410 . S
Nd880 O909 2.414 . S
Nd880 O911 2.424 . S
Nd881 C891 2.836 . S
Nd881 O903 2.414 . S
Nd881 O905 2.424 . S
Nd881 O906 2.500 . S
Nd881 O907 2.492 . S
Nd881 O908 2.487 . S
Nd881 O909 2.682 . S
Nd881 O910 2.410 . S
C882 Nd880 2.836 . S
C882 C883 1.498 . S
C882 O900 1.258 . S
C882 O901 1.239 . S
C883 C882 1.498 . S
C883 C884 1.366 . S
C883 C888 1.407 . S
C884 C883 1.366 . S
C884 C885 1.392 1_655 S
C884 H912 0.930 . S
C885 C884 1.392 1_455 S
C885 C886 1.398 . S
C885 H913 0.929 . S
C886 C885 1.398 . S
C886 C887 1.352 1_455 S
C887 C886 1.352 1_655 S
C887 C888 1.384 . S
C887 H914 0.930 . S
C888 C883 1.407 . S
C888 C887 1.384 . S
C888 H915 0.929 . S
C889 O902 1.241 . S
C889 O903 1.273 . S
C890 O904 1.251 . S
C890 O905 1.268 . S
C891 Nd881 2.836 . S
C891 C892 1.498 . S
C891 O906 1.258 . S
C891 O907 1.239 . S
C892 C891 1.498 . S
C892 C893 1.366 . S
C892 C897 1.407 . S
C893 C892 1.366 . S
C893 C894 1.392 . S
C893 H916 0.930 . S
C894 C893 1.392 . S
C894 C895 1.398 . S
C894 H917 0.929 . S
C895 C894 1.398 . S
C895 C896 1.352 . S
C896 C895 1.352 . S
C896 C897 1.384 . S
C896 H918 0.930 . S
C897 C892 1.407 . S
C897 C896 1.384 . S
C897 H919 0.929 . S
C898 O908 1.241 . S
C898 O909 1.273 . S
C899 O910 1.251 . S
C899 O911 1.268 . S
O900 Nd880 2.500 . S
O900 C882 1.258 . S
O901 Nd880 2.492 . S
O901 C882 1.239 . S
O902 Nd880 2.487 . S
O902 C889 1.241 . S
O903 Nd880 2.682 . S
O903 Nd881 2.414 . S
O903 C889 1.273 . S
O904 Nd880 2.410 . S
O904 C890 1.251 . S
O905 Nd881 2.424 . S
O905 C890 1.268 . S
O906 Nd881 2.500 . S
O906 C891 1.258 . S
O907 Nd881 2.492 . S
O907 C891 1.239 . S
O908 Nd881 2.487 . S
O908 C898 1.241 . S
O909 Nd880 2.414 . S
O909 Nd881 2.682 . S
O909 C898 1.273 . S
O910 Nd881 2.410 . S
O910 C899 1.251 . S
O911 Nd880 2.424 . S
O911 C899 1.268 . S
H912 C884 0.930 . S
H913 C885 0.929 . S
H914 C887 0.930 . S
H915 C888 0.929 . S
H916 C893 0.930 . S
H917 C894 0.929 . S
H918 C896 0.930 . S
H919 C897 0.929 . S
Nd920 C922 2.836 . S
Nd920 O940 2.500 . S
Nd920 O941 2.492 . S
Nd920 O942 2.487 . S
Nd920 O943 2.682 . S
Nd920 O944 2.410 . S
Nd920 O949 2.414 . S
Nd920 O951 2.424 . S
Nd921 C931 2.836 . S
Nd921 O943 2.414 . S
Nd921 O945 2.424 . S
Nd921 O946 2.500 . S
Nd921 O947 2.492 . S
Nd921 O948 2.487 . S
Nd921 O949 2.682 . S
Nd921 O950 2.410 . S
C922 Nd920 2.836 . S
C922 C923 1.498 . S
C922 O940 1.258 . S
C922 O941 1.239 . S
C923 C922 1.498 . S
C923 C924 1.366 . S
C923 C928 1.407 . S
C924 C923 1.366 . S
C924 C925 1.392 . S
C924 H952 0.930 . S
C925 C924 1.392 . S
C925 C926 1.398 . S
C925 H953 0.929 . S
C926 C925 1.398 . S
C926 C927 1.352 . S
C927 C926 1.352 . S
C927 C928 1.384 . S
C927 H954 0.930 . S
C928 C923 1.407 . S
C928 C927 1.384 . S
C928 H955 0.929 . S
C929 O942 1.241 . S
C929 O943 1.273 . S
C930 O944 1.251 . S
C930 O945 1.268 . S
C931 Nd921 2.836 . S
C931 C932 1.498 . S
C931 O946 1.258 . S
C931 O947 1.239 . S
C932 C931 1.498 . S
C932 C933 1.366 . S
C932 C937 1.407 . S
C933 C932 1.366 . S
C933 C934 1.392 . S
C933 H956 0.930 . S
C934 C933 1.392 . S
C934 C935 1.398 . S
C934 H957 0.929 . S
C935 C934 1.398 . S
C935 C936 1.352 . S
C936 C935 1.352 . S
C936 C937 1.384 . S
C936 H958 0.930 . S
C937 C932 1.407 . S
C937 C936 1.384 . S
C937 H959 0.929 . S
C938 O948 1.241 . S
C938 O949 1.273 . S
C939 O950 1.251 . S
C939 O951 1.268 . S
O940 Nd920 2.500 . S
O940 C922 1.258 . S
O941 Nd920 2.492 . S
O941 C922 1.239 . S
O942 Nd920 2.487 . S
O942 C929 1.241 . S
O943 Nd920 2.682 . S
O943 Nd921 2.414 . S
O943 C929 1.273 . S
O944 Nd920 2.410 . S
O944 C930 1.251 . S
O945 Nd921 2.424 . S
O945 C930 1.268 . S
O946 Nd921 2.500 . S
O946 C931 1.258 . S
O947 Nd921 2.492 . S
O947 C931 1.239 . S
O948 Nd921 2.487 . S
O948 C938 1.241 . S
O949 Nd920 2.414 . S
O949 Nd921 2.682 . S
O949 C938 1.273 . S
O950 Nd921 2.410 . S
O950 C939 1.251 . S
O951 Nd920 2.424 . S
O951 C939 1.268 . S
H952 C924 0.930 . S
H953 C925 0.929 . S
H954 C927 0.930 . S
H955 C928 0.929 . S
H956 C933 0.930 . S
H957 C934 0.929 . S
H958 C936 0.930 . S
H959 C937 0.929 . S
Nd960 C962 2.836 . S
Nd960 O980 2.500 . S
Nd960 O981 2.492 . S
Nd960 O982 2.487 . S
Nd960 O983 2.682 . S
Nd960 O984 2.410 . S
Nd960 O989 2.414 . S
Nd960 O991 2.424 . S
Nd961 C971 2.836 . S
Nd961 O983 2.414 . S
Nd961 O985 2.424 . S
Nd961 O986 2.500 . S
Nd961 O987 2.492 . S
Nd961 O988 2.487 . S
Nd961 O989 2.682 . S
Nd961 O990 2.410 . S
C962 Nd960 2.836 . S
C962 C963 1.498 . S
C962 O980 1.258 . S
C962 O981 1.239 . S
C963 C962 1.498 . S
C963 C964 1.366 . S
C963 C968 1.407 . S
C964 C963 1.366 . S
C964 C965 1.392 . S
C964 H992 0.930 . S
C965 C964 1.392 . S
C965 C966 1.398 . S
C965 H993 0.929 . S
C966 C965 1.398 . S
C966 C967 1.352 . S
C967 C966 1.352 . S
C967 C968 1.384 . S
C967 H994 0.930 . S
C968 C963 1.407 . S
C968 C967 1.384 . S
C968 H995 0.929 . S
C969 O982 1.241 . S
C969 O983 1.273 . S
C970 O984 1.251 . S
C970 O985 1.268 . S
C971 Nd961 2.836 . S
C971 C972 1.498 . S
C971 O986 1.258 . S
C971 O987 1.239 . S
C972 C971 1.498 . S
C972 C973 1.366 . S
C972 C977 1.407 . S
C973 C972 1.366 . S
C973 C974 1.392 . S
C973 H996 0.930 . S
C974 C973 1.392 . S
C974 C975 1.398 . S
C974 H997 0.929 . S
C975 C974 1.398 . S
C975 C976 1.352 . S
C976 C975 1.352 . S
C976 C977 1.384 . S
C976 H998 0.930 . S
C977 C972 1.407 . S
C977 C976 1.384 . S
C977 H999 0.929 . S
C978 O988 1.241 . S
C978 O989 1.273 . S
C979 O990 1.251 . S
C979 O991 1.268 . S
O980 Nd960 2.500 . S
O980 C962 1.258 . S
O981 Nd960 2.492 . S
O981 C962 1.239 . S
O982 Nd960 2.487 . S
O982 C969 1.241 . S
O983 Nd960 2.682 . S
O983 Nd961 2.414 . S
O983 C969 1.273 . S
O984 Nd960 2.410 . S
O984 C970 1.251 . S
O985 Nd961 2.424 . S
O985 C970 1.268 . S
O986 Nd961 2.500 . S
O986 C971 1.258 . S
O987 Nd961 2.492 . S
O987 C971 1.239 . S
O988 Nd961 2.487 . S
O988 C978 1.241 . S
O989 Nd960 2.414 . S
O989 Nd961 2.682 . S
O989 C978 1.273 . S
O990 Nd961 2.410 . S
O990 C979 1.251 . S
O991 Nd960 2.424 . S
O991 C979 1.268 . S
H992 C964 0.930 . S
H993 C965 0.929 . S
H994 C967 0.930 . S
H995 C968 0.929 . S
H996 C973 0.930 . S
H997 C974 0.929 . S
H998 C976 0.930 . S
H999 C977 0.929 . S
Nd1000 C1002 2.836 . S
Nd1000 O1020 2.500 . S
Nd1000 O1021 2.492 . S
Nd1000 O1022 2.487 . S
Nd1000 O1023 2.682 . S
Nd1000 O1024 2.410 . S
Nd1000 O1029 2.414 . S
Nd1000 O1031 2.424 . S
Nd1001 C1011 2.836 . S
Nd1001 O1023 2.414 . S
Nd1001 O1025 2.424 . S
Nd1001 O1026 2.500 . S
Nd1001 O1027 2.492 . S
Nd1001 O1028 2.487 . S
Nd1001 O1029 2.682 . S
Nd1001 O1030 2.410 . S
C1002 Nd1000 2.836 . S
C1002 C1003 1.498 . S
C1002 O1020 1.258 . S
C1002 O1021 1.239 . S
C1003 C1002 1.498 . S
C1003 C1004 1.366 . S
C1003 C1008 1.407 . S
C1004 C1003 1.366 . S
C1004 C1005 1.392 . S
C1004 H1032 0.930 . S
C1005 C1004 1.392 . S
C1005 C1006 1.398 . S
C1005 H1033 0.929 . S
C1006 C1005 1.398 . S
C1006 C1007 1.352 . S
C1007 C1006 1.352 . S
C1007 C1008 1.384 . S
C1007 H1034 0.930 . S
C1008 C1003 1.407 . S
C1008 C1007 1.384 . S
C1008 H1035 0.929 . S
C1009 O1022 1.241 . S
C1009 O1023 1.273 . S
C1010 O1024 1.251 . S
C1010 O1025 1.268 . S
C1011 Nd1001 2.836 . S
C1011 C1012 1.498 . S
C1011 O1026 1.258 . S
C1011 O1027 1.239 . S
C1012 C1011 1.498 . S
C1012 C1013 1.366 . S
C1012 C1017 1.407 . S
C1013 C1012 1.366 . S
C1013 C1014 1.392 . S
C1013 H1036 0.930 . S
C1014 C1013 1.392 . S
C1014 C1015 1.398 . S
C1014 H1037 0.929 . S
C1015 C1014 1.398 . S
C1015 C1016 1.352 . S
C1016 C1015 1.352 . S
C1016 C1017 1.384 . S
C1016 H1038 0.930 . S
C1017 C1012 1.407 . S
C1017 C1016 1.384 . S
C1017 H1039 0.929 . S
C1018 O1028 1.241 . S
C1018 O1029 1.273 . S
C1019 O1030 1.251 . S
C1019 O1031 1.268 . S
O1020 Nd1000 2.500 . S
O1020 C1002 1.258 . S
O1021 Nd1000 2.492 . S
O1021 C1002 1.239 . S
O1022 Nd1000 2.487 . S
O1022 C1009 1.241 . S
O1023 Nd1000 2.682 . S
O1023 Nd1001 2.414 . S
O1023 C1009 1.273 . S
O1024 Nd1000 2.410 . S
O1024 C1010 1.251 . S
O1025 Nd1001 2.424 . S
O1025 C1010 1.268 . S
O1026 Nd1001 2.500 . S
O1026 C1011 1.258 . S
O1027 Nd1001 2.492 . S
O1027 C1011 1.239 . S
O1028 Nd1001 2.487 . S
O1028 C1018 1.241 . S
O1029 Nd1000 2.414 . S
O1029 Nd1001 2.682 . S
O1029 C1018 1.273 . S
O1030 Nd1001 2.410 . S
O1030 C1019 1.251 . S
O1031 Nd1000 2.424 . S
O1031 C1019 1.268 . S
H1032 C1004 0.930 . S
H1033 C1005 0.929 . S
H1034 C1007 0.930 . S
H1035 C1008 0.929 . S
H1036 C1013 0.930 . S
H1037 C1014 0.929 . S
H1038 C1016 0.930 . S
H1039 C1017 0.929 . S
Nd1040 C1042 2.836 . S
Nd1040 O1060 2.500 . S
Nd1040 O1061 2.492 . S
Nd1040 O1062 2.487 . S
Nd1040 O1063 2.682 . S
Nd1040 O1064 2.410 . S
Nd1040 O1069 2.414 . S
Nd1040 O1071 2.424 . S
Nd1041 C1051 2.836 . S
Nd1041 O1063 2.414 . S
Nd1041 O1065 2.424 . S
Nd1041 O1066 2.500 . S
Nd1041 O1067 2.492 . S
Nd1041 O1068 2.487 . S
Nd1041 O1069 2.682 . S
Nd1041 O1070 2.410 . S
C1042 Nd1040 2.836 . S
C1042 C1043 1.498 . S
C1042 O1060 1.258 . S
C1042 O1061 1.239 . S
C1043 C1042 1.498 . S
C1043 C1044 1.366 . S
C1043 C1048 1.407 . S
C1044 C1043 1.366 . S
C1044 C1045 1.392 . S
C1044 H1072 0.930 . S
C1045 C1044 1.392 . S
C1045 C1046 1.398 . S
C1045 H1073 0.929 . S
C1046 C1045 1.398 . S
C1046 C1047 1.352 . S
C1047 C1046 1.352 . S
C1047 C1048 1.384 . S
C1047 H1074 0.930 . S
C1048 C1043 1.407 . S
C1048 C1047 1.384 . S
C1048 H1075 0.929 . S
C1049 O1062 1.241 . S
C1049 O1063 1.273 . S
C1050 O1064 1.251 . S
C1050 O1065 1.268 . S
C1051 Nd1041 2.836 . S
C1051 C1052 1.498 . S
C1051 O1066 1.258 . S
C1051 O1067 1.239 . S
C1052 C1051 1.498 . S
C1052 C1053 1.366 . S
C1052 C1057 1.407 . S
C1053 C1052 1.366 . S
C1053 C1054 1.392 1_455 S
C1053 H1076 0.930 . S
C1054 C1053 1.392 1_655 S
C1054 C1055 1.398 . S
C1054 H1077 0.929 . S
C1055 C1054 1.398 . S
C1055 C1056 1.352 1_655 S
C1056 C1055 1.352 1_455 S
C1056 C1057 1.384 . S
C1056 H1078 0.930 . S
C1057 C1052 1.407 . S
C1057 C1056 1.384 . S
C1057 H1079 0.929 . S
C1058 O1068 1.241 . S
C1058 O1069 1.273 . S
C1059 O1070 1.251 . S
C1059 O1071 1.268 . S
O1060 Nd1040 2.500 . S
O1060 C1042 1.258 . S
O1061 Nd1040 2.492 . S
O1061 C1042 1.239 . S
O1062 Nd1040 2.487 . S
O1062 C1049 1.241 . S
O1063 Nd1040 2.682 . S
O1063 Nd1041 2.414 . S
O1063 C1049 1.273 . S
O1064 Nd1040 2.410 . S
O1064 C1050 1.251 . S
O1065 Nd1041 2.424 . S
O1065 C1050 1.268 . S
O1066 Nd1041 2.500 . S
O1066 C1051 1.258 . S
O1067 Nd1041 2.492 . S
O1067 C1051 1.239 . S
O1068 Nd1041 2.487 . S
O1068 C1058 1.241 . S
O1069 Nd1040 2.414 . S
O1069 Nd1041 2.682 . S
O1069 C1058 1.273 . S
O1070 Nd1041 2.410 . S
O1070 C1059 1.251 . S
O1071 Nd1040 2.424 . S
O1071 C1059 1.268 . S
H1072 C1044 0.930 . S
H1073 C1045 0.929 . S
H1074 C1047 0.930 . S
H1075 C1048 0.929 . S
H1076 C1053 0.930 . S
H1077 C1054 0.929 . S
H1078 C1056 0.930 . S
H1079 C1057 0.929 . S
Nd1080 C1082 2.836 . S
Nd1080 O1100 2.500 . S
Nd1080 O1101 2.492 . S
Nd1080 O1102 2.487 . S
Nd1080 O1103 2.682 . S
Nd1080 O1104 2.410 . S
Nd1080 O1109 2.414 . S
Nd1080 O1111 2.424 . S
Nd1081 C1091 2.836 . S
Nd1081 O1103 2.414 . S
Nd1081 O1105 2.424 . S
Nd1081 O1106 2.500 . S
Nd1081 O1107 2.492 . S
Nd1081 O1108 2.487 . S
Nd1081 O1109 2.682 . S
Nd1081 O1110 2.410 . S
C1082 Nd1080 2.836 . S
C1082 C1083 1.498 . S
C1082 O1100 1.258 . S
C1082 O1101 1.239 . S
C1083 C1082 1.498 . S
C1083 C1084 1.366 . S
C1083 C1088 1.407 . S
C1084 C1083 1.366 . S
C1084 C1085 1.392 . S
C1084 H1112 0.930 . S
C1085 C1084 1.392 . S
C1085 C1086 1.398 . S
C1085 H1113 0.929 . S
C1086 C1085 1.398 . S
C1086 C1087 1.352 . S
C1087 C1086 1.352 . S
C1087 C1088 1.384 . S
C1087 H1114 0.930 . S
C1088 C1083 1.407 . S
C1088 C1087 1.384 . S
C1088 H1115 0.929 . S
C1089 O1102 1.241 . S
C1089 O1103 1.273 . S
C1090 O1104 1.251 . S
C1090 O1105 1.268 . S
C1091 Nd1081 2.836 . S
C1091 C1092 1.498 . S
C1091 O1106 1.258 . S
C1091 O1107 1.239 . S
C1092 C1091 1.498 . S
C1092 C1093 1.366 . S
C1092 C1097 1.407 . S
C1093 C1092 1.366 . S
C1093 C1094 1.392 . S
C1093 H1116 0.930 . S
C1094 C1093 1.392 . S
C1094 C1095 1.398 . S
C1094 H1117 0.929 . S
C1095 C1094 1.398 . S
C1095 C1096 1.352 . S
C1096 C1095 1.352 . S
C1096 C1097 1.384 . S
C1096 H1118 0.930 . S
C1097 C1092 1.407 . S
C1097 C1096 1.384 . S
C1097 H1119 0.929 . S
C1098 O1108 1.241 . S
C1098 O1109 1.273 . S
C1099 O1110 1.251 . S
C1099 O1111 1.268 . S
O1100 Nd1080 2.500 . S
O1100 C1082 1.258 . S
O1101 Nd1080 2.492 . S
O1101 C1082 1.239 . S
O1102 Nd1080 2.487 . S
O1102 C1089 1.241 . S
O1103 Nd1080 2.682 . S
O1103 Nd1081 2.414 . S
O1103 C1089 1.273 . S
O1104 Nd1080 2.410 . S
O1104 C1090 1.251 . S
O1105 Nd1081 2.424 . S
O1105 C1090 1.268 . S
O1106 Nd1081 2.500 . S
O1106 C1091 1.258 . S
O1107 Nd1081 2.492 . S
O1107 C1091 1.239 . S
O1108 Nd1081 2.487 . S
O1108 C1098 1.241 . S
O1109 Nd1080 2.414 . S
O1109 Nd1081 2.682 . S
O1109 C1098 1.273 . S
O1110 Nd1081 2.410 . S
O1110 C1099 1.251 . S
O1111 Nd1080 2.424 . S
O1111 C1099 1.268 . S
H1112 C1084 0.930 . S
H1113 C1085 0.929 . S
H1114 C1087 0.930 . S
H1115 C1088 0.929 . S
H1116 C1093 0.930 . S
H1117 C1094 0.929 . S
H1118 C1096 0.930 . S
H1119 C1097 0.929 . S
Nd1120 C1122 2.836 . S
Nd1120 O1140 2.500 . S
Nd1120 O1141 2.492 . S
Nd1120 O1142 2.487 . S
Nd1120 O1143 2.682 . S
Nd1120 O1144 2.410 . S
Nd1120 O1149 2.414 . S
Nd1120 O1151 2.424 . S
Nd1121 C1131 2.836 . S
Nd1121 O1143 2.414 . S
Nd1121 O1145 2.424 . S
Nd1121 O1146 2.500 . S
Nd1121 O1147 2.492 . S
Nd1121 O1148 2.487 . S
Nd1121 O1149 2.682 . S
Nd1121 O1150 2.410 . S
C1122 Nd1120 2.836 . S
C1122 C1123 1.498 . S
C1122 O1140 1.258 . S
C1122 O1141 1.239 . S
C1123 C1122 1.498 . S
C1123 C1124 1.366 . S
C1123 C1128 1.407 . S
C1124 C1123 1.366 . S
C1124 C1125 1.392 . S
C1124 H1152 0.930 . S
C1125 C1124 1.392 . S
C1125 C1126 1.398 . S
C1125 H1153 0.929 . S
C1126 C1125 1.398 . S
C1126 C1127 1.352 . S
C1127 C1126 1.352 . S
C1127 C1128 1.384 . S
C1127 H1154 0.930 . S
C1128 C1123 1.407 . S
C1128 C1127 1.384 . S
C1128 H1155 0.929 . S
C1129 O1142 1.241 . S
C1129 O1143 1.273 . S
C1130 O1144 1.251 . S
C1130 O1145 1.268 . S
C1131 Nd1121 2.836 . S
C1131 C1132 1.498 . S
C1131 O1146 1.258 . S
C1131 O1147 1.239 . S
C1132 C1131 1.498 . S
C1132 C1133 1.366 . S
C1132 C1137 1.407 . S
C1133 C1132 1.366 . S
C1133 C1134 1.392 . S
C1133 H1156 0.930 . S
C1134 C1133 1.392 . S
C1134 C1135 1.398 . S
C1134 H1157 0.929 . S
C1135 C1134 1.398 . S
C1135 C1136 1.352 . S
C1136 C1135 1.352 . S
C1136 C1137 1.384 . S
C1136 H1158 0.930 . S
C1137 C1132 1.407 . S
C1137 C1136 1.384 . S
C1137 H1159 0.929 . S
C1138 O1148 1.241 . S
C1138 O1149 1.273 . S
C1139 O1150 1.251 . S
C1139 O1151 1.268 . S
O1140 Nd1120 2.500 . S
O1140 C1122 1.258 . S
O1141 Nd1120 2.492 . S
O1141 C1122 1.239 . S
O1142 Nd1120 2.487 . S
O1142 C1129 1.241 . S
O1143 Nd1120 2.682 . S
O1143 Nd1121 2.414 . S
O1143 C1129 1.273 . S
O1144 Nd1120 2.410 . S
O1144 C1130 1.251 . S
O1145 Nd1121 2.424 . S
O1145 C1130 1.268 . S
O1146 Nd1121 2.500 . S
O1146 C1131 1.258 . S
O1147 Nd1121 2.492 . S
O1147 C1131 1.239 . S
O1148 Nd1121 2.487 . S
O1148 C1138 1.241 . S
O1149 Nd1120 2.414 . S
O1149 Nd1121 2.682 . S
O1149 C1138 1.273 . S
O1150 Nd1121 2.410 . S
O1150 C1139 1.251 . S
O1151 Nd1120 2.424 . S
O1151 C1139 1.268 . S
H1152 C1124 0.930 . S
H1153 C1125 0.929 . S
H1154 C1127 0.930 . S
H1155 C1128 0.929 . S
H1156 C1133 0.930 . S
H1157 C1134 0.929 . S
H1158 C1136 0.930 . S
H1159 C1137 0.929 . S
Nd1160 C1162 2.836 . S
Nd1160 O1180 2.500 . S
Nd1160 O1181 2.492 . S
Nd1160 O1182 2.487 . S
Nd1160 O1183 2.682 . S
Nd1160 O1184 2.410 . S
Nd1160 O1189 2.414 . S
Nd1160 O1191 2.424 . S
Nd1161 C1171 2.836 . S
Nd1161 O1183 2.414 . S
Nd1161 O1185 2.424 . S
Nd1161 O1186 2.500 . S
Nd1161 O1187 2.492 . S
Nd1161 O1188 2.487 . S
Nd1161 O1189 2.682 . S
Nd1161 O1190 2.410 . S
C1162 Nd1160 2.836 . S
C1162 C1163 1.498 . S
C1162 O1180 1.258 . S
C1162 O1181 1.239 . S
C1163 C1162 1.498 . S
C1163 C1164 1.366 . S
C1163 C1168 1.407 . S
C1164 C1163 1.366 . S
C1164 C1165 1.392 . S
C1164 H1192 0.930 . S
C1165 C1164 1.392 . S
C1165 C1166 1.398 . S
C1165 H1193 0.929 . S
C1166 C1165 1.398 . S
C1166 C1167 1.352 . S
C1167 C1166 1.352 . S
C1167 C1168 1.384 . S
C1167 H1194 0.930 . S
C1168 C1163 1.407 . S
C1168 C1167 1.384 . S
C1168 H1195 0.929 . S
C1169 O1182 1.241 . S
C1169 O1183 1.273 . S
C1170 O1184 1.251 . S
C1170 O1185 1.268 . S
C1171 Nd1161 2.836 . S
C1171 C1172 1.498 . S
C1171 O1186 1.258 . S
C1171 O1187 1.239 . S
C1172 C1171 1.498 . S
C1172 C1173 1.366 . S
C1172 C1177 1.407 . S
C1173 C1172 1.366 . S
C1173 C1174 1.392 . S
C1173 H1196 0.930 . S
C1174 C1173 1.392 . S
C1174 C1175 1.398 . S
C1174 H1197 0.929 . S
C1175 C1174 1.398 . S
C1175 C1176 1.352 . S
C1176 C1175 1.352 . S
C1176 C1177 1.384 . S
C1176 H1198 0.930 . S
C1177 C1172 1.407 . S
C1177 C1176 1.384 . S
C1177 H1199 0.929 . S
C1178 O1188 1.241 . S
C1178 O1189 1.273 . S
C1179 O1190 1.251 . S
C1179 O1191 1.268 . S
O1180 Nd1160 2.500 . S
O1180 C1162 1.258 . S
O1181 Nd1160 2.492 . S
O1181 C1162 1.239 . S
O1182 Nd1160 2.487 . S
O1182 C1169 1.241 . S
O1183 Nd1160 2.682 . S
O1183 Nd1161 2.414 . S
O1183 C1169 1.273 . S
O1184 Nd1160 2.410 . S
O1184 C1170 1.251 . S
O1185 Nd1161 2.424 . S
O1185 C1170 1.268 . S
O1186 Nd1161 2.500 . S
O1186 C1171 1.258 . S
O1187 Nd1161 2.492 . S
O1187 C1171 1.239 . S
O1188 Nd1161 2.487 . S
O1188 C1178 1.241 . S
O1189 Nd1160 2.414 . S
O1189 Nd1161 2.682 . S
O1189 C1178 1.273 . S
O1190 Nd1161 2.410 . S
O1190 C1179 1.251 . S
O1191 Nd1160 2.424 . S
O1191 C1179 1.268 . S
H1192 C1164 0.930 . S
H1193 C1165 0.929 . S
H1194 C1167 0.930 . S
H1195 C1168 0.929 . S
H1196 C1173 0.930 . S
H1197 C1174 0.929 . S
H1198 C1176 0.930 . S
H1199 C1177 0.929 . S
Nd1200 C1202 2.836 . S
Nd1200 O1220 2.500 . S
Nd1200 O1221 2.492 . S
Nd1200 O1222 2.487 . S
Nd1200 O1223 2.682 . S
Nd1200 O1224 2.410 . S
Nd1200 O1229 2.414 . S
Nd1200 O1231 2.424 . S
Nd1201 C1211 2.836 . S
Nd1201 O1223 2.414 . S
Nd1201 O1225 2.424 . S
Nd1201 O1226 2.500 . S
Nd1201 O1227 2.492 . S
Nd1201 O1228 2.487 . S
Nd1201 O1229 2.682 . S
Nd1201 O1230 2.410 . S
C1202 Nd1200 2.836 . S
C1202 C1203 1.498 . S
C1202 O1220 1.258 . S
C1202 O1221 1.239 . S
C1203 C1202 1.498 . S
C1203 C1204 1.366 . S
C1203 C1208 1.407 . S
C1204 C1203 1.366 . S
C1204 C1205 1.392 . S
C1204 H1232 0.930 . S
C1205 C1204 1.392 . S
C1205 C1206 1.398 . S
C1205 H1233 0.929 . S
C1206 C1205 1.398 . S
C1206 C1207 1.352 . S
C1207 C1206 1.352 . S
C1207 C1208 1.384 . S
C1207 H1234 0.930 . S
C1208 C1203 1.407 . S
C1208 C1207 1.384 . S
C1208 H1235 0.929 . S
C1209 O1222 1.241 . S
C1209 O1223 1.273 . S
C1210 O1224 1.251 . S
C1210 O1225 1.268 . S
C1211 Nd1201 2.836 . S
C1211 C1212 1.498 . S
C1211 O1226 1.258 . S
C1211 O1227 1.239 . S
C1212 C1211 1.498 . S
C1212 C1213 1.366 . S
C1212 C1217 1.407 . S
C1213 C1212 1.366 . S
C1213 C1214 1.392 1_455 S
C1213 H1236 0.930 . S
C1214 C1213 1.392 1_655 S
C1214 C1215 1.398 . S
C1214 H1237 0.929 . S
C1215 C1214 1.398 . S
C1215 C1216 1.352 1_655 S
C1216 C1215 1.352 1_455 S
C1216 C1217 1.384 . S
C1216 H1238 0.930 . S
C1217 C1212 1.407 . S
C1217 C1216 1.384 . S
C1217 H1239 0.929 . S
C1218 O1228 1.241 . S
C1218 O1229 1.273 . S
C1219 O1230 1.251 . S
C1219 O1231 1.268 . S
O1220 Nd1200 2.500 . S
O1220 C1202 1.258 . S
O1221 Nd1200 2.492 . S
O1221 C1202 1.239 . S
O1222 Nd1200 2.487 . S
O1222 C1209 1.241 . S
O1223 Nd1200 2.682 . S
O1223 Nd1201 2.414 . S
O1223 C1209 1.273 . S
O1224 Nd1200 2.410 . S
O1224 C1210 1.251 . S
O1225 Nd1201 2.424 . S
O1225 C1210 1.268 . S
O1226 Nd1201 2.500 . S
O1226 C1211 1.258 . S
O1227 Nd1201 2.492 . S
O1227 C1211 1.239 . S
O1228 Nd1201 2.487 . S
O1228 C1218 1.241 . S
O1229 Nd1200 2.414 . S
O1229 Nd1201 2.682 . S
O1229 C1218 1.273 . S
O1230 Nd1201 2.410 . S
O1230 C1219 1.251 . S
O1231 Nd1200 2.424 . S
O1231 C1219 1.268 . S
H1232 C1204 0.930 . S
H1233 C1205 0.929 . S
H1234 C1207 0.930 . S
H1235 C1208 0.929 . S
H1236 C1213 0.930 . S
H1237 C1214 0.929 . S
H1238 C1216 0.930 . S
H1239 C1217 0.929 . S
Nd1240 C1242 2.836 . S
Nd1240 O1260 2.500 . S
Nd1240 O1261 2.492 . S
Nd1240 O1262 2.487 . S
Nd1240 O1263 2.682 . S
Nd1240 O1264 2.410 . S
Nd1240 O1269 2.414 . S
Nd1240 O1271 2.424 . S
Nd1241 C1251 2.836 . S
Nd1241 O1263 2.414 . S
Nd1241 O1265 2.424 . S
Nd1241 O1266 2.500 . S
Nd1241 O1267 2.492 . S
Nd1241 O1268 2.487 . S
Nd1241 O1269 2.682 . S
Nd1241 O1270 2.410 . S
C1242 Nd1240 2.836 . S
C1242 C1243 1.498 . S
C1242 O1260 1.258 . S
C1242 O1261 1.239 . S
C1243 C1242 1.498 . S
C1243 C1244 1.366 . S
C1243 C1248 1.407 . S
C1244 C1243 1.366 . S
C1244 C1245 1.392 . S
C1244 H1272 0.930 . S
C1245 C1244 1.392 . S
C1245 C1246 1.398 . S
C1245 H1273 0.929 . S
C1246 C1245 1.398 . S
C1246 C1247 1.352 . S
C1247 C1246 1.352 . S
C1247 C1248 1.384 . S
C1247 H1274 0.930 . S
C1248 C1243 1.407 . S
C1248 C1247 1.384 . S
C1248 H1275 0.929 . S
C1249 O1262 1.241 . S
C1249 O1263 1.273 . S
C1250 O1264 1.251 . S
C1250 O1265 1.268 . S
C1251 Nd1241 2.836 . S
C1251 C1252 1.498 . S
C1251 O1266 1.258 . S
C1251 O1267 1.239 . S
C1252 C1251 1.498 . S
C1252 C1253 1.366 . S
C1252 C1257 1.407 . S
C1253 C1252 1.366 . S
C1253 C1254 1.392 . S
C1253 H1276 0.930 . S
C1254 C1253 1.392 . S
C1254 C1255 1.398 . S
C1254 H1277 0.929 . S
C1255 C1254 1.398 . S
C1255 C1256 1.352 . S
C1256 C1255 1.352 . S
C1256 C1257 1.384 . S
C1256 H1278 0.930 . S
C1257 C1252 1.407 . S
C1257 C1256 1.384 . S
C1257 H1279 0.929 . S
C1258 O1268 1.241 . S
C1258 O1269 1.273 . S
C1259 O1270 1.251 . S
C1259 O1271 1.268 . S
O1260 Nd1240 2.500 . S
O1260 C1242 1.258 . S
O1261 Nd1240 2.492 . S
O1261 C1242 1.239 . S
O1262 Nd1240 2.487 . S
O1262 C1249 1.241 . S
O1263 Nd1240 2.682 . S
O1263 Nd1241 2.414 . S
O1263 C1249 1.273 . S
O1264 Nd1240 2.410 . S
O1264 C1250 1.251 . S
O1265 Nd1241 2.424 . S
O1265 C1250 1.268 . S
O1266 Nd1241 2.500 . S
O1266 C1251 1.258 . S
O1267 Nd1241 2.492 . S
O1267 C1251 1.239 . S
O1268 Nd1241 2.487 . S
O1268 C1258 1.241 . S
O1269 Nd1240 2.414 . S
O1269 Nd1241 2.682 . S
O1269 C1258 1.273 . S
O1270 Nd1241 2.410 . S
O1270 C1259 1.251 . S
O1271 Nd1240 2.424 . S
O1271 C1259 1.268 . S
H1272 C1244 0.930 . S
H1273 C1245 0.929 . S
H1274 C1247 0.930 . S
H1275 C1248 0.929 . S
H1276 C1253 0.930 . S
H1277 C1254 0.929 . S
H1278 C1256 0.930 . S
H1279 C1257 0.929 . S
H1280 C1286 0.930 . S
H1281 C1290 0.930 . S
H1282 C1295 0.929 . S
H1283 C1293 0.929 . S
H1284 C1288 0.929 . S
H1285 C1294 0.929 . S
C1286 H1280 0.930 . S
C1286 C1287 1.367 . S
C1286 C1294 1.378 . S
C1287 C1286 1.367 . S
C1287 C1295 1.433 . S
C1288 H1284 0.929 . S
C1288 C1290 1.378 . S
C1288 C1292 1.350 . S
C1289 C1292 1.463 . S
C1289 C1294 1.350 . S
C1289 N1297 1.427 . S
C1290 H1281 0.930 . S
C1290 C1288 1.378 . S
C1290 C1291 1.367 . S
C1291 C1290 1.367 . S
C1291 C1293 1.433 . S
C1292 C1288 1.350 . S
C1292 C1289 1.463 . S
C1292 N1296 1.427 . S
C1293 H1283 0.929 . S
C1293 C1291 1.433 . S
C1293 N1296 1.384 . S
C1294 H1285 0.929 . S
C1294 C1286 1.378 . S
C1294 C1289 1.350 . S
C1295 H1282 0.929 . S
C1295 C1287 1.433 . S
C1295 N1297 1.384 . S
N1296 C1292 1.427 . S
N1296 C1293 1.384 . S
N1297 C1289 1.427 . S
N1297 C1295 1.384 . S
H1298 C1304 0.930 . S
H1299 C1308 0.930 1_655 S
H1300 C1313 0.929 . S
H1301 C1311 0.929 . S
H1302 C1306 0.929 . S
H1303 C1312 0.929 . S
C1304 H1298 0.930 . S
C1304 C1305 1.367 . S
C1304 C1312 1.378 . S
C1305 C1304 1.367 . S
C1305 C1313 1.433 . S
C1306 H1302 0.929 . S
C1306 C1308 1.378 . S
C1306 C1310 1.350 . S
C1307 C1310 1.463 . S
C1307 C1312 1.350 . S
C1307 N1315 1.427 . S
C1308 H1299 0.930 1_455 S
C1308 C1306 1.378 . S
C1308 C1309 1.367 . S
C1309 C1308 1.367 . S
C1309 C1311 1.433 . S
C1310 C1306 1.350 . S
C1310 C1307 1.463 . S
C1310 N1314 1.427 . S
C1311 H1301 0.929 . S
C1311 C1309 1.433 . S
C1311 N1314 1.384 . S
C1312 H1303 0.929 . S
C1312 C1304 1.378 . S
C1312 C1307 1.350 . S
C1313 H1300 0.929 . S
C1313 C1305 1.433 . S
C1313 N1315 1.384 . S
N1314 C1310 1.427 . S
N1314 C1311 1.384 . S
N1315 C1307 1.427 . S
N1315 C1313 1.384 . S
H1316 C1322 0.930 . S
H1317 C1326 0.930 . S
H1318 C1331 0.929 . S
H1319 C1329 0.929 . S
H1320 C1324 0.929 . S
H1321 C1330 0.929 . S
C1322 H1316 0.930 . S
C1322 C1323 1.367 . S
C1322 C1330 1.378 . S
C1323 C1322 1.367 . S
C1323 C1331 1.433 . S
C1324 H1320 0.929 . S
C1324 C1326 1.378 . S
C1324 C1328 1.350 . S
C1325 C1328 1.463 . S
C1325 C1330 1.350 . S
C1325 N1333 1.427 . S
C1326 H1317 0.930 . S
C1326 C1324 1.378 . S
C1326 C1327 1.367 . S
C1327 C1326 1.367 . S
C1327 C1329 1.433 . S
C1328 C1324 1.350 . S
C1328 C1325 1.463 . S
C1328 N1332 1.427 . S
C1329 H1319 0.929 . S
C1329 C1327 1.433 . S
C1329 N1332 1.384 . S
C1330 H1321 0.929 . S
C1330 C1322 1.378 . S
C1330 C1325 1.350 . S
C1331 H1318 0.929 . S
C1331 C1323 1.433 . S
C1331 N1333 1.384 . S
N1332 C1328 1.427 . S
N1332 C1329 1.384 . S
N1333 C1325 1.427 . S
N1333 C1331 1.384 . S
H1334 C1340 0.930 . S
H1335 C1344 0.930 . S
H1336 C1349 0.929 . S
H1337 C1347 0.929 . S
H1338 C1342 0.929 . S
H1339 C1348 0.929 . S
C1340 H1334 0.930 . S
C1340 C1341 1.367 . S
C1340 C1348 1.378 . S
C1341 C1340 1.367 . S
C1341 C1349 1.433 . S
C1342 H1338 0.929 . S
C1342 C1344 1.378 . S
C1342 C1346 1.350 . S
C1343 C1346 1.463 . S
C1343 C1348 1.350 . S
C1343 N1351 1.427 . S
C1344 H1335 0.930 . S
C1344 C1342 1.378 . S
C1344 C1345 1.367 . S
C1345 C1344 1.367 . S
C1345 C1347 1.433 . S
C1346 C1342 1.350 . S
C1346 C1343 1.463 . S
C1346 N1350 1.427 . S
C1347 H1337 0.929 . S
C1347 C1345 1.433 . S
C1347 N1350 1.384 . S
C1348 H1339 0.929 . S
C1348 C1340 1.378 . S
C1348 C1343 1.350 . S
C1349 H1336 0.929 . S
C1349 C1341 1.433 . S
C1349 N1351 1.384 . S
N1350 C1346 1.427 . S
N1350 C1347 1.384 . S
N1351 C1343 1.427 . S
N1351 C1349 1.384 . S
H1352 C1358 0.930 . S
H1353 C1362 0.930 . S
H1354 C1367 0.929 . S
H1355 C1365 0.929 . S
H1356 C1360 0.929 . S
H1357 C1366 0.929 . S
C1358 H1352 0.930 . S
C1358 C1359 1.367 . S
C1358 C1366 1.378 . S
C1359 C1358 1.367 . S
C1359 C1367 1.433 . S
C1360 H1356 0.929 . S
C1360 C1362 1.378 . S
C1360 C1364 1.350 . S
C1361 C1364 1.463 . S
C1361 C1366 1.350 . S
C1361 N1369 1.427 . S
C1362 H1353 0.930 . S
C1362 C1360 1.378 . S
C1362 C1363 1.367 . S
C1363 C1362 1.367 . S
C1363 C1365 1.433 . S
C1364 C1360 1.350 . S
C1364 C1361 1.463 . S
C1364 N1368 1.427 . S
C1365 H1355 0.929 . S
C1365 C1363 1.433 . S
C1365 N1368 1.384 . S
C1366 H1357 0.929 . S
C1366 C1358 1.378 . S
C1366 C1361 1.350 . S
C1367 H1354 0.929 . S
C1367 C1359 1.433 . S
C1367 N1369 1.384 . S
N1368 C1364 1.427 . S
N1368 C1365 1.384 . S
N1369 C1361 1.427 . S
N1369 C1367 1.384 . S
H1370 C1376 0.930 . S
H1371 C1380 0.930 . S
H1372 C1385 0.929 . S
H1373 C1383 0.929 . S
H1374 C1378 0.929 . S
H1375 C1384 0.929 . S
C1376 H1370 0.930 . S
C1376 C1377 1.367 . S
C1376 C1384 1.378 . S
C1377 C1376 1.367 . S
C1377 C1385 1.433 . S
C1378 H1374 0.929 . S
C1378 C1380 1.378 . S
C1378 C1382 1.350 . S
C1379 C1382 1.463 . S
C1379 C1384 1.350 . S
C1379 N1387 1.427 . S
C1380 H1371 0.930 . S
C1380 C1378 1.378 . S
C1380 C1381 1.367 . S
C1381 C1380 1.367 . S
C1381 C1383 1.433 . S
C1382 C1378 1.350 . S
C1382 C1379 1.463 . S
C1382 N1386 1.427 . S
C1383 H1373 0.929 . S
C1383 C1381 1.433 . S
C1383 N1386 1.384 . S
C1384 H1375 0.929 . S
C1384 C1376 1.378 . S
C1384 C1379 1.350 . S
C1385 H1372 0.929 . S
C1385 C1377 1.433 . S
C1385 N1387 1.384 . S
N1386 C1382 1.427 . S
N1386 C1383 1.384 . S
N1387 C1379 1.427 . S
N1387 C1385 1.384 . S
H1388 C1394 0.930 . S
H1389 C1398 0.930 . S
H1390 C1403 0.929 . S
H1391 C1401 0.929 . S
H1392 C1396 0.929 . S
H1393 C1402 0.929 . S
C1394 H1388 0.930 . S
C1394 C1395 1.367 . S
C1394 C1402 1.378 . S
C1395 C1394 1.367 . S
C1395 C1403 1.433 . S
C1396 H1392 0.929 . S
C1396 C1398 1.378 . S
C1396 C1400 1.350 . S
C1397 C1400 1.463 . S
C1397 C1402 1.350 . S
C1397 N1405 1.427 . S
C1398 H1389 0.930 . S
C1398 C1396 1.378 . S
C1398 C1399 1.367 . S
C1399 C1398 1.367 . S
C1399 C1401 1.433 . S
C1400 C1396 1.350 . S
C1400 C1397 1.463 . S
C1400 N1404 1.427 . S
C1401 H1391 0.929 . S
C1401 C1399 1.433 . S
C1401 N1404 1.384 . S
C1402 H1393 0.929 . S
C1402 C1394 1.378 . S
C1402 C1397 1.350 . S
C1403 H1390 0.929 . S
C1403 C1395 1.433 . S
C1403 N1405 1.384 . S
N1404 C1400 1.427 . S
N1404 C1401 1.384 . S
N1405 C1397 1.427 . S
N1405 C1403 1.384 . S
H1406 C1412 0.930 . S
H1407 C1416 0.930 . S
H1408 C1421 0.929 . S
H1409 C1419 0.929 . S
H1410 C1414 0.929 . S
H1411 C1420 0.929 . S
C1412 H1406 0.930 . S
C1412 C1413 1.367 . S
C1412 C1420 1.378 . S
C1413 C1412 1.367 . S
C1413 C1421 1.433 . S
C1414 H1410 0.929 . S
C1414 C1416 1.378 . S
C1414 C1418 1.350 . S
C1415 C1418 1.463 . S
C1415 C1420 1.350 . S
C1415 N1423 1.427 . S
C1416 H1407 0.930 . S
C1416 C1414 1.378 . S
C1416 C1417 1.367 . S
C1417 C1416 1.367 . S
C1417 C1419 1.433 . S
C1418 C1414 1.350 . S
C1418 C1415 1.463 . S
C1418 N1422 1.427 . S
C1419 H1409 0.929 . S
C1419 C1417 1.433 . S
C1419 N1422 1.384 . S
C1420 H1411 0.929 . S
C1420 C1412 1.378 . S
C1420 C1415 1.350 . S
C1421 H1408 0.929 . S
C1421 C1413 1.433 . S
C1421 N1423 1.384 . S
N1422 C1418 1.427 . S
N1422 C1419 1.384 . S
N1423 C1415 1.427 . S
N1423 C1421 1.384 . S
H1424 C1430 0.930 . S
H1425 C1434 0.930 . S
H1426 C1439 0.929 . S
H1427 C1437 0.929 . S
H1428 C1432 0.929 . S
H1429 C1438 0.929 . S
C1430 H1424 0.930 . S
C1430 C1431 1.367 . S
C1430 C1438 1.378 . S
C1431 C1430 1.367 . S
C1431 C1439 1.433 . S
C1432 H1428 0.929 . S
C1432 C1434 1.378 . S
C1432 C1436 1.350 . S
C1433 C1436 1.463 . S
C1433 C1438 1.350 . S
C1433 N1441 1.427 . S
C1434 H1425 0.930 . S
C1434 C1432 1.378 . S
C1434 C1435 1.367 . S
C1435 C1434 1.367 . S
C1435 C1437 1.433 . S
C1436 C1432 1.350 . S
C1436 C1433 1.463 . S
C1436 N1440 1.427 . S
C1437 H1427 0.929 . S
C1437 C1435 1.433 . S
C1437 N1440 1.384 . S
C1438 H1429 0.929 . S
C1438 C1430 1.378 . S
C1438 C1433 1.350 . S
C1439 H1426 0.929 . S
C1439 C1431 1.433 . S
C1439 N1441 1.384 . S
N1440 C1436 1.427 . S
N1440 C1437 1.384 . S
N1441 C1433 1.427 . S
N1441 C1439 1.384 . S
H1442 C1448 0.930 . S
H1443 C1452 0.930 . S
H1444 C1457 0.929 . S
H1445 C1455 0.929 1_455 S
H1446 C1450 0.929 . S
H1447 C1456 0.929 . S
C1448 H1442 0.930 . S
C1448 C1449 1.367 . S
C1448 C1456 1.378 . S
C1449 C1448 1.367 . S
C1449 C1457 1.433 . S
C1450 H1446 0.929 . S
C1450 C1452 1.378 . S
C1450 C1454 1.350 . S
C1451 C1454 1.463 . S
C1451 C1456 1.350 . S
C1451 N1459 1.427 . S
C1452 H1443 0.930 . S
C1452 C1450 1.378 . S
C1452 C1453 1.367 . S
C1453 C1452 1.367 . S
C1453 C1455 1.433 . S
C1454 C1450 1.350 . S
C1454 C1451 1.463 . S
C1454 N1458 1.427 . S
C1455 H1445 0.929 1_655 S
C1455 C1453 1.433 . S
C1455 N1458 1.384 . S
C1456 H1447 0.929 . S
C1456 C1448 1.378 . S
C1456 C1451 1.350 . S
C1457 H1444 0.929 . S
C1457 C1449 1.433 . S
C1457 N1459 1.384 . S
N1458 C1454 1.427 . S
N1458 C1455 1.384 . S
N1459 C1451 1.427 . S
N1459 C1457 1.384 . S
H1460 C1466 0.930 . S
H1461 C1470 0.930 . S
H1462 C1475 0.929 . S
H1463 C1473 0.929 . S
H1464 C1468 0.929 . S
H1465 C1474 0.929 . S
C1466 H1460 0.930 . S
C1466 C1467 1.367 . S
C1466 C1474 1.378 . S
C1467 C1466 1.367 . S
C1467 C1475 1.433 . S
C1468 H1464 0.929 . S
C1468 C1470 1.378 . S
C1468 C1472 1.350 . S
C1469 C1472 1.463 . S
C1469 C1474 1.350 . S
C1469 N1477 1.427 . S
C1470 H1461 0.930 . S
C1470 C1468 1.378 . S
C1470 C1471 1.367 . S
C1471 C1470 1.367 . S
C1471 C1473 1.433 . S
C1472 C1468 1.350 . S
C1472 C1469 1.463 . S
C1472 N1476 1.427 . S
C1473 H1463 0.929 . S
C1473 C1471 1.433 . S
C1473 N1476 1.384 . S
C1474 H1465 0.929 . S
C1474 C1466 1.378 . S
C1474 C1469 1.350 . S
C1475 H1462 0.929 . S
C1475 C1467 1.433 . S
C1475 N1477 1.384 . S
N1476 C1472 1.427 . S
N1476 C1473 1.384 . S
N1477 C1469 1.427 . S
N1477 C1475 1.384 . S
H1478 C1484 0.930 . S
H1479 C1488 0.930 . S
H1480 C1493 0.929 . S
H1481 C1491 0.929 . S
H1482 C1486 0.929 . S
H1483 C1492 0.929 . S
C1484 H1478 0.930 . S
C1484 C1485 1.367 . S
C1484 C1492 1.378 . S
C1485 C1484 1.367 . S
C1485 C1493 1.433 . S
C1486 H1482 0.929 . S
C1486 C1488 1.378 . S
C1486 C1490 1.350 . S
C1487 C1490 1.463 . S
C1487 C1492 1.350 . S
C1487 N1495 1.427 . S
C1488 H1479 0.930 . S
C1488 C1486 1.378 . S
C1488 C1489 1.367 . S
C1489 C1488 1.367 . S
C1489 C1491 1.433 . S
C1490 C1486 1.350 . S
C1490 C1487 1.463 . S
C1490 N1494 1.427 . S
C1491 H1481 0.929 . S
C1491 C1489 1.433 . S
C1491 N1494 1.384 . S
C1492 H1483 0.929 . S
C1492 C1484 1.378 . S
C1492 C1487 1.350 . S
C1493 H1480 0.929 . S
C1493 C1485 1.433 . S
C1493 N1495 1.384 . S
N1494 C1490 1.427 . S
N1494 C1491 1.384 . S
N1495 C1487 1.427 . S
N1495 C1493 1.384 . S
H1496 C1502 0.930 . S
H1497 C1506 0.930 . S
H1498 C1511 0.929 . S
H1499 C1509 0.929 . S
H1500 C1504 0.929 . S
H1501 C1510 0.929 . S
C1502 H1496 0.930 . S
C1502 C1503 1.367 . S
C1502 C1510 1.378 . S
C1503 C1502 1.367 . S
C1503 C1511 1.433 . S
C1504 H1500 0.929 . S
C1504 C1506 1.378 . S
C1504 C1508 1.350 . S
C1505 C1508 1.463 . S
C1505 C1510 1.350 . S
C1505 N1513 1.427 . S
C1506 H1497 0.930 . S
C1506 C1504 1.378 . S
C1506 C1507 1.367 . S
C1507 C1506 1.367 . S
C1507 C1509 1.433 . S
C1508 C1504 1.350 . S
C1508 C1505 1.463 . S
C1508 N1512 1.427 . S
C1509 H1499 0.929 . S
C1509 C1507 1.433 . S
C1509 N1512 1.384 . S
C1510 H1501 0.929 . S
C1510 C1502 1.378 . S
C1510 C1505 1.350 . S
C1511 H1498 0.929 . S
C1511 C1503 1.433 . S
C1511 N1513 1.384 . S
N1512 C1508 1.427 . S
N1512 C1509 1.384 . S
N1513 C1505 1.427 . S
N1513 C1511 1.384 . S
H1514 C1520 0.930 . S
H1515 C1524 0.930 . S
H1516 C1529 0.929 . S
H1517 C1527 0.929 . S
H1518 C1522 0.929 . S
H1519 C1528 0.929 . S
C1520 H1514 0.930 . S
C1520 C1521 1.367 . S
C1520 C1528 1.378 . S
C1521 C1520 1.367 . S
C1521 C1529 1.433 . S
C1522 H1518 0.929 . S
C1522 C1524 1.378 . S
C1522 C1526 1.350 . S
C1523 C1526 1.463 . S
C1523 C1528 1.350 . S
C1523 N1531 1.427 . S
C1524 H1515 0.930 . S
C1524 C1522 1.378 . S
C1524 C1525 1.367 . S
C1525 C1524 1.367 . S
C1525 C1527 1.433 . S
C1526 C1522 1.350 . S
C1526 C1523 1.463 . S
C1526 N1530 1.427 . S
C1527 H1517 0.929 . S
C1527 C1525 1.433 . S
C1527 N1530 1.384 . S
C1528 H1519 0.929 . S
C1528 C1520 1.378 . S
C1528 C1523 1.350 . S
C1529 H1516 0.929 . S
C1529 C1521 1.433 . S
C1529 N1531 1.384 . S
N1530 C1526 1.427 . S
N1530 C1527 1.384 . S
N1531 C1523 1.427 . S
N1531 C1529 1.384 . S
H1532 C1538 0.930 . S
H1533 C1542 0.930 . S
H1534 C1547 0.929 . S
H1535 C1545 0.929 . S
H1536 C1540 0.929 . S
H1537 C1546 0.929 . S
C1538 H1532 0.930 . S
C1538 C1539 1.367 . S
C1538 C1546 1.378 . S
C1539 C1538 1.367 . S
C1539 C1547 1.433 . S
C1540 H1536 0.929 . S
C1540 C1542 1.378 . S
C1540 C1544 1.350 . S
C1541 C1544 1.463 . S
C1541 C1546 1.350 . S
C1541 N1549 1.427 . S
C1542 H1533 0.930 . S
C1542 C1540 1.378 . S
C1542 C1543 1.367 . S
C1543 C1542 1.367 . S
C1543 C1545 1.433 . S
C1544 C1540 1.350 . S
C1544 C1541 1.463 . S
C1544 N1548 1.427 . S
C1545 H1535 0.929 . S
C1545 C1543 1.433 . S
C1545 N1548 1.384 . S
C1546 H1537 0.929 . S
C1546 C1538 1.378 . S
C1546 C1541 1.350 . S
C1547 H1534 0.929 . S
C1547 C1539 1.433 . S
C1547 N1549 1.384 . S
N1548 C1544 1.427 . S
N1548 C1545 1.384 . S
N1549 C1541 1.427 . S
N1549 C1547 1.384 . S
H1550 C1556 0.930 1_455 S
H1551 C1560 0.930 . S
H1552 C1565 0.929 . S
H1553 C1563 0.929 . S
H1554 C1558 0.929 . S
H1555 C1564 0.929 . S
C1556 H1550 0.930 1_655 S
C1556 C1557 1.367 . S
C1556 C1564 1.378 . S
C1557 C1556 1.367 . S
C1557 C1565 1.433 . S
C1558 H1554 0.929 . S
C1558 C1560 1.378 . S
C1558 C1562 1.350 . S
C1559 C1562 1.463 . S
C1559 C1564 1.350 . S
C1559 N1567 1.427 . S
C1560 H1551 0.930 . S
C1560 C1558 1.378 . S
C1560 C1561 1.367 . S
C1561 C1560 1.367 . S
C1561 C1563 1.433 . S
C1562 C1558 1.350 . S
C1562 C1559 1.463 . S
C1562 N1566 1.427 . S
C1563 H1553 0.929 . S
C1563 C1561 1.433 . S
C1563 N1566 1.384 . S
C1564 H1555 0.929 . S
C1564 C1556 1.378 . S
C1564 C1559 1.350 . S
C1565 H1552 0.929 . S
C1565 C1557 1.433 . S
C1565 N1567 1.384 . S
N1566 C1562 1.427 . S
N1566 C1563 1.384 . S
N1567 C1559 1.427 . S
N1567 C1565 1.384 . S
H1568 C1574 0.930 . S
H1569 C1578 0.930 . S
H1570 C1583 0.929 . S
H1571 C1581 0.929 . S
H1572 C1576 0.929 . S
H1573 C1582 0.929 . S
C1574 H1568 0.930 . S
C1574 C1575 1.367 . S
C1574 C1582 1.378 . S
C1575 C1574 1.367 . S
C1575 C1583 1.433 . S
C1576 H1572 0.929 . S
C1576 C1578 1.378 . S
C1576 C1580 1.350 . S
C1577 C1580 1.463 . S
C1577 C1582 1.350 . S
C1577 N1585 1.427 . S
C1578 H1569 0.930 . S
C1578 C1576 1.378 . S
C1578 C1579 1.367 . S
C1579 C1578 1.367 . S
C1579 C1581 1.433 . S
C1580 C1576 1.350 . S
C1580 C1577 1.463 . S
C1580 N1584 1.427 . S
C1581 H1571 0.929 . S
C1581 C1579 1.433 . S
C1581 N1584 1.384 . S
C1582 H1573 0.929 . S
C1582 C1574 1.378 . S
C1582 C1577 1.350 . S
C1583 H1570 0.929 . S
C1583 C1575 1.433 . S
C1583 N1585 1.384 . S
N1584 C1580 1.427 . S
N1584 C1581 1.384 . S
N1585 C1577 1.427 . S
N1585 C1583 1.384 . S
H1586 C1592 0.930 . S
H1587 C1596 0.930 . S
H1588 C1601 0.929 . S
H1589 C1599 0.929 . S
H1590 C1594 0.929 . S
H1591 C1600 0.929 . S
C1592 H1586 0.930 . S
C1592 C1593 1.367 . S
C1592 C1600 1.378 . S
C1593 C1592 1.367 . S
C1593 C1601 1.433 . S
C1594 H1590 0.929 . S
C1594 C1596 1.378 . S
C1594 C1598 1.350 . S
C1595 C1598 1.463 . S
C1595 C1600 1.350 . S
C1595 N1603 1.427 . S
C1596 H1587 0.930 . S
C1596 C1594 1.378 . S
C1596 C1597 1.367 . S
C1597 C1596 1.367 . S
C1597 C1599 1.433 . S
C1598 C1594 1.350 . S
C1598 C1595 1.463 . S
C1598 N1602 1.427 . S
C1599 H1589 0.929 . S
C1599 C1597 1.433 . S
C1599 N1602 1.384 . S
C1600 H1591 0.929 . S
C1600 C1592 1.378 . S
C1600 C1595 1.350 . S
C1601 H1588 0.929 . S
C1601 C1593 1.433 . S
C1601 N1603 1.384 . S
N1602 C1598 1.427 . S
N1602 C1599 1.384 . S
N1603 C1595 1.427 . S
N1603 C1601 1.384 . S
H1604 C1610 0.930 . S
H1605 C1614 0.930 . S
H1606 C1619 0.929 . S
H1607 C1617 0.929 . S
H1608 C1612 0.929 . S
H1609 C1618 0.929 . S
C1610 H1604 0.930 . S
C1610 C1611 1.367 . S
C1610 C1618 1.378 . S
C1611 C1610 1.367 . S
C1611 C1619 1.433 . S
C1612 H1608 0.929 . S
C1612 C1614 1.378 . S
C1612 C1616 1.350 . S
C1613 C1616 1.463 . S
C1613 C1618 1.350 . S
C1613 N1621 1.427 . S
C1614 H1605 0.930 . S
C1614 C1612 1.378 . S
C1614 C1615 1.367 . S
C1615 C1614 1.367 . S
C1615 C1617 1.433 . S
C1616 C1612 1.350 . S
C1616 C1613 1.463 . S
C1616 N1620 1.427 . S
C1617 H1607 0.929 . S
C1617 C1615 1.433 . S
C1617 N1620 1.384 . S
C1618 H1609 0.929 . S
C1618 C1610 1.378 . S
C1618 C1613 1.350 . S
C1619 H1606 0.929 . S
C1619 C1611 1.433 . S
C1619 N1621 1.384 . S
N1620 C1616 1.427 . S
N1620 C1617 1.384 . S
N1621 C1613 1.427 . S
N1621 C1619 1.384 . S
H1622 C1628 0.930 . S
H1623 C1632 0.930 . S
H1624 C1637 0.929 . S
H1625 C1635 0.929 . S
H1626 C1630 0.929 . S
H1627 C1636 0.929 . S
C1628 H1622 0.930 . S
C1628 C1629 1.367 . S
C1628 C1636 1.378 . S
C1629 C1628 1.367 . S
C1629 C1637 1.433 . S
C1630 H1626 0.929 . S
C1630 C1632 1.378 . S
C1630 C1634 1.350 . S
C1631 C1634 1.463 . S
C1631 C1636 1.350 . S
C1631 N1639 1.427 . S
C1632 H1623 0.930 . S
C1632 C1630 1.378 . S
C1632 C1633 1.367 . S
C1633 C1632 1.367 . S
C1633 C1635 1.433 . S
C1634 C1630 1.350 . S
C1634 C1631 1.463 . S
C1634 N1638 1.427 . S
C1635 H1625 0.929 . S
C1635 C1633 1.433 . S
C1635 N1638 1.384 . S
C1636 H1627 0.929 . S
C1636 C1628 1.378 . S
C1636 C1631 1.350 . S
C1637 H1624 0.929 . S
C1637 C1629 1.433 . S
C1637 N1639 1.384 . S
N1638 C1634 1.427 . S
N1638 C1635 1.384 . S
N1639 C1631 1.427 . S
N1639 C1637 1.384 . S
H1640 C1646 0.930 . S
H1641 C1650 0.930 . S
H1642 C1655 0.929 . S
H1643 C1653 0.929 . S
H1644 C1648 0.929 . S
H1645 C1654 0.929 . S
C1646 H1640 0.930 . S
C1646 C1647 1.367 . S
C1646 C1654 1.378 . S
C1647 C1646 1.367 . S
C1647 C1655 1.433 . S
C1648 H1644 0.929 . S
C1648 C1650 1.378 . S
C1648 C1652 1.350 . S
C1649 C1652 1.463 . S
C1649 C1654 1.350 . S
C1649 N1657 1.427 . S
C1650 H1641 0.930 . S
C1650 C1648 1.378 . S
C1650 C1651 1.367 . S
C1651 C1650 1.367 . S
C1651 C1653 1.433 . S
C1652 C1648 1.350 . S
C1652 C1649 1.463 . S
C1652 N1656 1.427 . S
C1653 H1643 0.929 . S
C1653 C1651 1.433 . S
C1653 N1656 1.384 . S
C1654 H1645 0.929 . S
C1654 C1646 1.378 . S
C1654 C1649 1.350 . S
C1655 H1642 0.929 . S
C1655 C1647 1.433 . S
C1655 N1657 1.384 . S
N1656 C1652 1.427 . S
N1656 C1653 1.384 . S
N1657 C1649 1.427 . S
N1657 C1655 1.384 . S
H1658 C1664 0.930 1_455 S
H1659 C1668 0.930 . S
H1660 C1673 0.929 . S
H1661 C1671 0.929 . S
H1662 C1666 0.929 . S
H1663 C1672 0.929 . S
C1664 H1658 0.930 1_655 S
C1664 C1665 1.367 . S
C1664 C1672 1.378 . S
C1665 C1664 1.367 . S
C1665 C1673 1.433 . S
C1666 H1662 0.929 . S
C1666 C1668 1.378 . S
C1666 C1670 1.350 . S
C1667 C1670 1.463 . S
C1667 C1672 1.350 . S
C1667 N1675 1.427 . S
C1668 H1659 0.930 . S
C1668 C1666 1.378 . S
C1668 C1669 1.367 . S
C1669 C1668 1.367 . S
C1669 C1671 1.433 . S
C1670 C1666 1.350 . S
C1670 C1667 1.463 . S
C1670 N1674 1.427 . S
C1671 H1661 0.929 . S
C1671 C1669 1.433 . S
C1671 N1674 1.384 . S
C1672 H1663 0.929 . S
C1672 C1664 1.378 . S
C1672 C1667 1.350 . S
C1673 H1660 0.929 . S
C1673 C1665 1.433 . S
C1673 N1675 1.384 . S
N1674 C1670 1.427 . S
N1674 C1671 1.384 . S
N1675 C1667 1.427 . S
N1675 C1673 1.384 . S
H1676 C1682 0.930 . S
H1677 C1686 0.930 . S
H1678 C1691 0.929 . S
H1679 C1689 0.929 . S
H1680 C1684 0.929 . S
H1681 C1690 0.929 . S
C1682 H1676 0.930 . S
C1682 C1683 1.367 . S
C1682 C1690 1.378 . S
C1683 C1682 1.367 . S
C1683 C1691 1.433 . S
C1684 H1680 0.929 . S
C1684 C1686 1.378 . S
C1684 C1688 1.350 . S
C1685 C1688 1.463 . S
C1685 C1690 1.350 . S
C1685 N1693 1.427 . S
C1686 H1677 0.930 . S
C1686 C1684 1.378 . S
C1686 C1687 1.367 . S
C1687 C1686 1.367 . S
C1687 C1689 1.433 . S
C1688 C1684 1.350 . S
C1688 C1685 1.463 . S
C1688 N1692 1.427 . S
C1689 H1679 0.929 . S
C1689 C1687 1.433 . S
C1689 N1692 1.384 . S
C1690 H1681 0.929 . S
C1690 C1682 1.378 . S
C1690 C1685 1.350 . S
C1691 H1678 0.929 . S
C1691 C1683 1.433 . S
C1691 N1693 1.384 . S
N1692 C1688 1.427 . S
N1692 C1689 1.384 . S
N1693 C1685 1.427 . S
N1693 C1691 1.384 . S
H1694 C1700 0.930 . S
H1695 C1704 0.930 . S
H1696 C1709 0.929 . S
H1697 C1707 0.929 . S
H1698 C1702 0.929 . S
H1699 C1708 0.929 . S
C1700 H1694 0.930 . S
C1700 C1701 1.367 . S
C1700 C1708 1.378 . S
C1701 C1700 1.367 . S
C1701 C1709 1.433 . S
C1702 H1698 0.929 . S
C1702 C1704 1.378 . S
C1702 C1706 1.350 . S
C1703 C1706 1.463 . S
C1703 C1708 1.350 . S
C1703 N1711 1.427 . S
C1704 H1695 0.930 . S
C1704 C1702 1.378 . S
C1704 C1705 1.367 . S
C1705 C1704 1.367 . S
C1705 C1707 1.433 . S
C1706 C1702 1.350 . S
C1706 C1703 1.463 . S
C1706 N1710 1.427 . S
C1707 H1697 0.929 . S
C1707 C1705 1.433 . S
C1707 N1710 1.384 . S
C1708 H1699 0.929 . S
C1708 C1700 1.378 . S
C1708 C1703 1.350 . S
C1709 H1696 0.929 . S
C1709 C1701 1.433 . S
C1709 N1711 1.384 . S
N1710 C1706 1.427 . S
N1710 C1707 1.384 . S
N1711 C1703 1.427 . S
N1711 C1709 1.384 . S
H1712 C1718 0.930 . S
H1713 C1722 0.930 . S
H1714 C1727 0.929 . S
H1715 C1725 0.929 . S
H1716 C1720 0.929 . S
H1717 C1726 0.929 . S
C1718 H1712 0.930 . S
C1718 C1719 1.367 . S
C1718 C1726 1.378 . S
C1719 C1718 1.367 . S
C1719 C1727 1.433 . S
C1720 H1716 0.929 . S
C1720 C1722 1.378 . S
C1720 C1724 1.350 . S
C1721 C1724 1.463 . S
C1721 C1726 1.350 . S
C1721 N1729 1.427 . S
C1722 H1713 0.930 . S
C1722 C1720 1.378 . S
C1722 C1723 1.367 . S
C1723 C1722 1.367 . S
C1723 C1725 1.433 . S
C1724 C1720 1.350 . S
C1724 C1721 1.463 . S
C1724 N1728 1.427 . S
C1725 H1715 0.929 . S
C1725 C1723 1.433 . S
C1725 N1728 1.384 . S
C1726 H1717 0.929 . S
C1726 C1718 1.378 . S
C1726 C1721 1.350 . S
C1727 H1714 0.929 . S
C1727 C1719 1.433 . S
C1727 N1729 1.384 . S
N1728 C1724 1.427 . S
N1728 C1725 1.384 . S
N1729 C1721 1.427 . S
N1729 C1727 1.384 . S
H1730 C1736 0.930 . S
H1731 C1740 0.930 . S
H1732 C1745 0.929 . S
H1733 C1743 0.929 . S
H1734 C1738 0.929 . S
H1735 C1744 0.929 . S
C1736 H1730 0.930 . S
C1736 C1737 1.367 . S
C1736 C1744 1.378 . S
C1737 C1736 1.367 . S
C1737 C1745 1.433 . S
C1738 H1734 0.929 . S
C1738 C1740 1.378 . S
C1738 C1742 1.350 . S
C1739 C1742 1.463 . S
C1739 C1744 1.350 . S
C1739 N1747 1.427 . S
C1740 H1731 0.930 . S
C1740 C1738 1.378 . S
C1740 C1741 1.367 . S
C1741 C1740 1.367 . S
C1741 C1743 1.433 . S
C1742 C1738 1.350 . S
C1742 C1739 1.463 . S
C1742 N1746 1.427 . S
C1743 H1733 0.929 . S
C1743 C1741 1.433 . S
C1743 N1746 1.384 . S
C1744 H1735 0.929 . S
C1744 C1736 1.378 . S
C1744 C1739 1.350 . S
C1745 H1732 0.929 . S
C1745 C1737 1.433 . S
C1745 N1747 1.384 . S
N1746 C1742 1.427 . S
N1746 C1743 1.384 . S
N1747 C1739 1.427 . S
N1747 C1745 1.384 . S
H1748 C1754 0.930 . S
H1749 C1758 0.930 . S
H1750 C1763 0.929 . S
H1751 C1761 0.929 . S
H1752 C1756 0.929 . S
H1753 C1762 0.929 . S
C1754 H1748 0.930 . S
C1754 C1755 1.367 . S
C1754 C1762 1.378 . S
C1755 C1754 1.367 . S
C1755 C1763 1.433 . S
C1756 H1752 0.929 . S
C1756 C1758 1.378 . S
C1756 C1760 1.350 . S
C1757 C1760 1.463 . S
C1757 C1762 1.350 . S
C1757 N1765 1.427 . S
C1758 H1749 0.930 . S
C1758 C1756 1.378 . S
C1758 C1759 1.367 . S
C1759 C1758 1.367 . S
C1759 C1761 1.433 . S
C1760 C1756 1.350 . S
C1760 C1757 1.463 . S
C1760 N1764 1.427 . S
C1761 H1751 0.929 . S
C1761 C1759 1.433 . S
C1761 N1764 1.384 . S
C1762 H1753 0.929 . S
C1762 C1754 1.378 . S
C1762 C1757 1.350 . S
C1763 H1750 0.929 . S
C1763 C1755 1.433 . S
C1763 N1765 1.384 . S
N1764 C1760 1.427 . S
N1764 C1761 1.384 . S
N1765 C1757 1.427 . S
N1765 C1763 1.384 . S
H1766 C1772 0.930 . S
H1767 C1776 0.930 . S
H1768 C1781 0.929 . S
H1769 C1779 0.929 1_655 S
H1770 C1774 0.929 . S
H1771 C1780 0.929 . S
C1772 H1766 0.930 . S
C1772 C1773 1.367 . S
C1772 C1780 1.378 . S
C1773 C1772 1.367 . S
C1773 C1781 1.433 . S
C1774 H1770 0.929 . S
C1774 C1776 1.378 . S
C1774 C1778 1.350 . S
C1775 C1778 1.463 . S
C1775 C1780 1.350 . S
C1775 N1783 1.427 . S
C1776 H1767 0.930 . S
C1776 C1774 1.378 . S
C1776 C1777 1.367 . S
C1777 C1776 1.367 . S
C1777 C1779 1.433 . S
C1778 C1774 1.350 . S
C1778 C1775 1.463 . S
C1778 N1782 1.427 . S
C1779 H1769 0.929 1_455 S
C1779 C1777 1.433 . S
C1779 N1782 1.384 . S
C1780 H1771 0.929 . S
C1780 C1772 1.378 . S
C1780 C1775 1.350 . S
C1781 H1768 0.929 . S
C1781 C1773 1.433 . S
C1781 N1783 1.384 . S
N1782 C1778 1.427 . S
N1782 C1779 1.384 . S
N1783 C1775 1.427 . S
N1783 C1781 1.384 . S
H1784 C1790 0.930 . S
H1785 C1794 0.930 . S
H1786 C1799 0.929 . S
H1787 C1797 0.929 . S
H1788 C1792 0.929 . S
H1789 C1798 0.929 . S
C1790 H1784 0.930 . S
C1790 C1791 1.367 . S
C1790 C1798 1.378 . S
C1791 C1790 1.367 . S
C1791 C1799 1.433 . S
C1792 H1788 0.929 . S
C1792 C1794 1.378 . S
C1792 C1796 1.350 . S
C1793 C1796 1.463 . S
C1793 C1798 1.350 . S
C1793 N1801 1.427 . S
C1794 H1785 0.930 . S
C1794 C1792 1.378 . S
C1794 C1795 1.367 . S
C1795 C1794 1.367 . S
C1795 C1797 1.433 . S
C1796 C1792 1.350 . S
C1796 C1793 1.463 . S
C1796 N1800 1.427 . S
C1797 H1787 0.929 . S
C1797 C1795 1.433 . S
C1797 N1800 1.384 . S
C1798 H1789 0.929 . S
C1798 C1790 1.378 . S
C1798 C1793 1.350 . S
C1799 H1786 0.929 . S
C1799 C1791 1.433 . S
C1799 N1801 1.384 . S
N1800 C1796 1.427 . S
N1800 C1797 1.384 . S
N1801 C1793 1.427 . S
N1801 C1799 1.384 . S
H1802 C1808 0.930 . S
H1803 C1812 0.930 . S
H1804 C1817 0.929 . S
H1805 C1815 0.929 . S
H1806 C1810 0.929 . S
H1807 C1816 0.929 . S
C1808 H1802 0.930 . S
C1808 C1809 1.367 1_655 S
C1808 C1816 1.378 1_655 S
C1809 C1808 1.367 1_455 S
C1809 C1817 1.433 . S
C1810 H1806 0.929 . S
C1810 C1812 1.378 . S
C1810 C1814 1.350 . S
C1811 C1814 1.463 . S
C1811 C1816 1.350 . S
C1811 N1819 1.427 . S
C1812 H1803 0.930 . S
C1812 C1810 1.378 . S
C1812 C1813 1.367 . S
C1813 C1812 1.367 . S
C1813 C1815 1.433 . S
C1814 C1810 1.350 . S
C1814 C1811 1.463 . S
C1814 N1818 1.427 . S
C1815 H1805 0.929 . S
C1815 C1813 1.433 . S
C1815 N1818 1.384 . S
C1816 H1807 0.929 . S
C1816 C1808 1.378 1_455 S
C1816 C1811 1.350 . S
C1817 H1804 0.929 . S
C1817 C1809 1.433 . S
C1817 N1819 1.384 . S
N1818 C1814 1.427 . S
N1818 C1815 1.384 . S
N1819 C1811 1.427 . S
N1819 C1817 1.384 . S
H1820 C1826 0.930 . S
H1821 C1830 0.930 . S
H1822 C1835 0.929 . S
H1823 C1833 0.929 . S
H1824 C1828 0.929 . S
H1825 C1834 0.929 . S
C1826 H1820 0.930 . S
C1826 C1827 1.367 . S
C1826 C1834 1.378 . S
C1827 C1826 1.367 . S
C1827 C1835 1.433 . S
C1828 H1824 0.929 . S
C1828 C1830 1.378 . S
C1828 C1832 1.350 . S
C1829 C1832 1.463 . S
C1829 C1834 1.350 . S
C1829 N1837 1.427 . S
C1830 H1821 0.930 . S
C1830 C1828 1.378 . S
C1830 C1831 1.367 . S
C1831 C1830 1.367 . S
C1831 C1833 1.433 . S
C1832 C1828 1.350 . S
C1832 C1829 1.463 . S
C1832 N1836 1.427 . S
C1833 H1823 0.929 . S
C1833 C1831 1.433 . S
C1833 N1836 1.384 . S
C1834 H1825 0.929 . S
C1834 C1826 1.378 . S
C1834 C1829 1.350 . S
C1835 H1822 0.929 . S
C1835 C1827 1.433 . S
C1835 N1837 1.384 . S
N1836 C1832 1.427 . S
N1836 C1833 1.384 . S
N1837 C1829 1.427 . S
N1837 C1835 1.384 . S
H1838 C1844 0.930 . S
H1839 C1848 0.930 . S
H1840 C1853 0.929 . S
H1841 C1851 0.929 . S
H1842 C1846 0.929 . S
H1843 C1852 0.929 . S
C1844 H1838 0.930 . S
C1844 C1845 1.367 . S
C1844 C1852 1.378 . S
C1845 C1844 1.367 . S
C1845 C1853 1.433 . S
C1846 H1842 0.929 . S
C1846 C1848 1.378 . S
C1846 C1850 1.350 . S
C1847 C1850 1.463 . S
C1847 C1852 1.350 . S
C1847 N1855 1.427 . S
C1848 H1839 0.930 . S
C1848 C1846 1.378 . S
C1848 C1849 1.367 . S
C1849 C1848 1.367 . S
C1849 C1851 1.433 . S
C1850 C1846 1.350 . S
C1850 C1847 1.463 . S
C1850 N1854 1.427 . S
C1851 H1841 0.929 . S
C1851 C1849 1.433 . S
C1851 N1854 1.384 . S
C1852 H1843 0.929 . S
C1852 C1844 1.378 . S
C1852 C1847 1.350 . S
C1853 H1840 0.929 . S
C1853 C1845 1.433 . S
C1853 N1855 1.384 . S
N1854 C1850 1.427 . S
N1854 C1851 1.384 . S
N1855 C1847 1.427 . S
N1855 C1853 1.384 . S
H1856 C1862 0.930 . S
H1857 C1866 0.930 . S
H1858 C1871 0.929 . S
H1859 C1869 0.929 . S
H1860 C1864 0.945 . S
H1861 C1870 0.945 . S
C1862 H1856 0.930 . S
C1862 C1863 1.367 . S
C1862 C1870 1.367 1_455 S
C1863 C1862 1.367 . S
C1863 C1871 1.433 . S
C1864 H1860 0.945 . S
C1864 C1866 1.367 1_455 S
C1864 C1868 1.344 1_455 S
C1865 C1868 1.463 1_455 S
C1865 C1870 1.344 1_455 S
C1865 N1873 1.427 . S
C1866 H1857 0.930 . S
C1866 C1864 1.367 1_655 S
C1866 C1867 1.367 . S
C1867 C1866 1.367 . S
C1867 C1869 1.433 . S
C1868 C1864 1.344 1_655 S
C1868 C1865 1.463 1_655 S
C1868 N1872 1.427 . S
C1869 H1859 0.929 . S
C1869 C1867 1.433 . S
C1869 N1872 1.384 . S
C1870 H1861 0.945 . S
C1870 C1862 1.367 1_655 S
C1870 C1865 1.344 1_655 S
C1871 H1858 0.929 . S
C1871 C1863 1.433 . S
C1871 N1873 1.384 . S
N1872 C1868 1.427 . S
N1872 C1869 1.384 . S
N1873 C1865 1.427 . S
N1873 C1871 1.384 . S
H1874 C1880 0.930 . S
H1875 C1884 0.930 . S
H1876 C1889 0.929 . S
H1877 C1887 0.929 . S
H1878 C1882 0.929 1_655 S
H1879 C1888 0.929 1_455 S
C1880 H1874 0.930 . S
C1880 C1881 1.367 . S
C1880 C1888 1.378 . S
C1881 C1880 1.367 . S
C1881 C1889 1.433 . S
C1882 H1878 0.929 1_455 S
C1882 C1884 1.378 . S
C1882 C1886 1.350 . S
C1883 C1886 1.463 1_655 S
C1883 C1888 1.350 . S
C1883 N1891 1.427 . S
C1884 H1875 0.930 . S
C1884 C1882 1.378 . S
C1884 C1885 1.367 . S
C1885 C1884 1.367 . S
C1885 C1887 1.433 . S
C1886 C1882 1.350 . S
C1886 C1883 1.463 1_455 S
C1886 N1890 1.427 . S
C1887 H1877 0.929 . S
C1887 C1885 1.433 . S
C1887 N1890 1.384 . S
C1888 H1879 0.929 1_655 S
C1888 C1880 1.378 . S
C1888 C1883 1.350 . S
C1889 H1876 0.929 . S
C1889 C1881 1.433 . S
C1889 N1891 1.384 . S
N1890 C1886 1.427 . S
N1890 C1887 1.384 . S
N1891 C1883 1.427 . S
N1891 C1889 1.384 . S
H1892 C1898 0.930 . S
H1893 C1902 0.930 . S
H1894 C1907 0.929 . S
H1895 C1905 0.929 . S
H1896 C1900 0.929 . S
H1897 C1906 0.929 . S
C1898 H1892 0.930 . S
C1898 C1899 1.367 . S
C1898 C1906 1.378 . S
C1899 C1898 1.367 . S
C1899 C1907 1.433 . S
C1900 H1896 0.929 . S
C1900 C1902 1.378 . S
C1900 C1904 1.350 . S
C1901 C1904 1.463 . S
C1901 C1906 1.350 . S
C1901 N1909 1.427 . S
C1902 H1893 0.930 . S
C1902 C1900 1.378 . S
C1902 C1903 1.367 . S
C1903 C1902 1.367 . S
C1903 C1905 1.433 . S
C1904 C1900 1.350 . S
C1904 C1901 1.463 . S
C1904 N1908 1.427 . S
C1905 H1895 0.929 . S
C1905 C1903 1.433 . S
C1905 N1908 1.384 . S
C1906 H1897 0.929 . S
C1906 C1898 1.378 . S
C1906 C1901 1.350 . S
C1907 H1894 0.929 . S
C1907 C1899 1.433 . S
C1907 N1909 1.384 . S
N1908 C1904 1.427 . S
N1908 C1905 1.384 . S
N1909 C1901 1.427 . S
N1909 C1907 1.384 . S
H1910 C1916 0.930 . S
H1911 C1920 0.930 . S
H1912 C1925 0.929 . S
H1913 C1923 0.929 . S
H1914 C1918 0.929 . S
H1915 C1924 0.929 . S
C1916 H1910 0.930 . S
C1916 C1917 1.367 . S
C1916 C1924 1.378 . S
C1917 C1916 1.367 . S
C1917 C1925 1.433 . S
C1918 H1914 0.929 . S
C1918 C1920 1.378 . S
C1918 C1922 1.350 . S
C1919 C1922 1.463 . S
C1919 C1924 1.350 . S
C1919 N1927 1.427 . S
C1920 H1911 0.930 . S
C1920 C1918 1.378 . S
C1920 C1921 1.367 . S
C1921 C1920 1.367 . S
C1921 C1923 1.433 . S
C1922 C1918 1.350 . S
C1922 C1919 1.463 . S
C1922 N1926 1.427 . S
C1923 H1913 0.929 . S
C1923 C1921 1.433 . S
C1923 N1926 1.384 . S
C1924 H1915 0.929 . S
C1924 C1916 1.378 . S
C1924 C1919 1.350 . S
C1925 H1912 0.929 . S
C1925 C1917 1.433 . S
C1925 N1927 1.384 . S
N1926 C1922 1.427 . S
N1926 C1923 1.384 . S
N1927 C1919 1.427 . S
N1927 C1925 1.384 . S
H1928 C1934 0.930 . S
H1929 C1938 0.930 . S
H1930 C1943 0.929 . S
H1931 C1941 0.929 . S
H1932 C1936 0.929 . S
H1933 C1942 0.929 . S
C1934 H1928 0.930 . S
C1934 C1935 1.367 . S
C1934 C1942 1.378 1_655 S
C1935 C1934 1.367 . S
C1935 C1943 1.433 . S
C1936 H1932 0.929 . S
C1936 C1938 1.378 1_655 S
C1936 C1940 1.350 1_655 S
C1937 C1940 1.463 1_655 S
C1937 C1942 1.350 1_655 S
C1937 N1945 1.427 . S
C1938 H1929 0.930 . S
C1938 C1936 1.378 1_455 S
C1938 C1939 1.367 . S
C1939 C1938 1.367 . S
C1939 C1941 1.433 . S
C1940 C1936 1.350 1_455 S
C1940 C1937 1.463 1_455 S
C1940 N1944 1.427 . S
C1941 H1931 0.929 . S
C1941 C1939 1.433 . S
C1941 N1944 1.384 . S
C1942 H1933 0.929 . S
C1942 C1934 1.378 1_455 S
C1942 C1937 1.350 1_455 S
C1943 H1930 0.929 . S
C1943 C1935 1.433 . S
C1943 N1945 1.384 . S
N1944 C1940 1.427 . S
N1944 C1941 1.384 . S
N1945 C1937 1.427 . S
N1945 C1943 1.384 . S
H1946 C1952 0.930 . S
H1947 C1956 0.930 . S
H1948 C1961 0.929 . S
H1949 C1959 0.929 . S
H1950 C1954 0.929 . S
H1951 C1960 0.929 . S
C1952 H1946 0.930 . S
C1952 C1953 1.367 . S
C1952 C1960 1.378 . S
C1953 C1952 1.367 . S
C1953 C1961 1.433 . S
C1954 H1950 0.929 . S
C1954 C1956 1.378 . S
C1954 C1958 1.350 . S
C1955 C1958 1.463 . S
C1955 C1960 1.350 . S
C1955 N1963 1.427 . S
C1956 H1947 0.930 . S
C1956 C1954 1.378 . S
C1956 C1957 1.367 . S
C1957 C1956 1.367 . S
C1957 C1959 1.433 . S
C1958 C1954 1.350 . S
C1958 C1955 1.463 . S
C1958 N1962 1.427 . S
C1959 H1949 0.929 . S
C1959 C1957 1.433 . S
C1959 N1962 1.384 . S
C1960 H1951 0.929 . S
C1960 C1952 1.378 . S
C1960 C1955 1.350 . S
C1961 H1948 0.929 . S
C1961 C1953 1.433 . S
C1961 N1963 1.384 . S
N1962 C1958 1.427 . S
N1962 C1959 1.384 . S
N1963 C1955 1.427 . S
N1963 C1961 1.384 . S
H1964 C1970 0.930 . S
H1965 C1974 0.930 . S
H1966 C1979 0.929 . S
H1967 C1977 0.929 . S
H1968 C1972 0.929 . S
H1969 C1978 0.929 . S
C1970 H1964 0.930 . S
C1970 C1971 1.367 . S
C1970 C1978 1.378 . S
C1971 C1970 1.367 . S
C1971 C1979 1.433 . S
C1972 H1968 0.929 . S
C1972 C1974 1.378 . S
C1972 C1976 1.350 . S
C1973 C1976 1.463 . S
C1973 C1978 1.350 . S
C1973 N1981 1.427 . S
C1974 H1965 0.930 . S
C1974 C1972 1.378 . S
C1974 C1975 1.367 . S
C1975 C1974 1.367 . S
C1975 C1977 1.433 . S
C1976 C1972 1.350 . S
C1976 C1973 1.463 . S
C1976 N1980 1.427 . S
C1977 H1967 0.929 . S
C1977 C1975 1.433 . S
C1977 N1980 1.384 . S
C1978 H1969 0.929 . S
C1978 C1970 1.378 . S
C1978 C1973 1.350 . S
C1979 H1966 0.929 . S
C1979 C1971 1.433 . S
C1979 N1981 1.384 . S
N1980 C1976 1.427 . S
N1980 C1977 1.384 . S
N1981 C1973 1.427 . S
N1981 C1979 1.384 . S
H1982 C1988 0.930 . S
H1983 C1992 0.930 . S
H1984 C1997 0.929 . S
H1985 C1995 0.929 . S
H1986 C1990 0.929 . S
H1987 C1996 0.929 . S
C1988 H1982 0.930 . S
C1988 C1989 1.367 . S
C1988 C1996 1.378 . S
C1989 C1988 1.367 . S
C1989 C1997 1.433 . S
C1990 H1986 0.929 . S
C1990 C1992 1.378 . S
C1990 C1994 1.350 . S
C1991 C1994 1.463 1_455 S
C1991 C1996 1.350 . S
C1991 N1999 1.427 . S
C1992 H1983 0.930 . S
C1992 C1990 1.378 . S
C1992 C1993 1.367 . S
C1993 C1992 1.367 . S
C1993 C1995 1.433 . S
C1994 C1990 1.350 . S
C1994 C1991 1.463 1_655 S
C1994 N1998 1.427 . S
C1995 H1985 0.929 . S
C1995 C1993 1.433 . S
C1995 N1998 1.384 . S
C1996 H1987 0.929 . S
C1996 C1988 1.378 . S
C1996 C1991 1.350 . S
C1997 H1984 0.929 . S
C1997 C1989 1.433 . S
C1997 N1999 1.384 . S
N1998 C1994 1.427 . S
N1998 C1995 1.384 . S
N1999 C1991 1.427 . S
N1999 C1997 1.384 . S
H2000 C2006 0.930 . S
H2001 C2010 0.930 . S
H2002 C2015 0.929 . S
H2003 C2013 0.929 . S
H2004 C2008 0.929 1_455 S
H2005 C2014 0.929 1_655 S
C2006 H2000 0.930 . S
C2006 C2007 1.367 . S
C2006 C2014 1.378 . S
C2007 C2006 1.367 . S
C2007 C2015 1.433 . S
C2008 H2004 0.929 1_655 S
C2008 C2010 1.378 . S
C2008 C2012 1.350 . S
C2009 C2012 1.463 1_455 S
C2009 C2014 1.350 . S
C2009 N2017 1.427 . S
C2010 H2001 0.930 . S
C2010 C2008 1.378 . S
C2010 C2011 1.367 . S
C2011 C2010 1.367 . S
C2011 C2013 1.433 . S
C2012 C2008 1.350 . S
C2012 C2009 1.463 1_655 S
C2012 N2016 1.427 . S
C2013 H2003 0.929 . S
C2013 C2011 1.433 . S
C2013 N2016 1.384 . S
C2014 H2005 0.929 1_455 S
C2014 C2006 1.378 . S
C2014 C2009 1.350 . S
C2015 H2002 0.929 . S
C2015 C2007 1.433 . S
C2015 N2017 1.384 . S
N2016 C2012 1.427 . S
N2016 C2013 1.384 . S
N2017 C2009 1.427 . S
N2017 C2015 1.384 . S
H2018 C2024 0.930 . S
H2019 C2028 0.930 . S
H2020 C2033 0.929 . S
H2021 C2031 0.929 . S
H2022 C2026 0.929 . S
H2023 C2032 0.929 . S
C2024 H2018 0.930 . S
C2024 C2025 1.367 . S
C2024 C2032 1.378 . S
C2025 C2024 1.367 . S
C2025 C2033 1.433 . S
C2026 H2022 0.929 . S
C2026 C2028 1.378 . S
C2026 C2030 1.350 . S
C2027 C2030 1.463 1_655 S
C2027 C2032 1.350 . S
C2027 N2035 1.427 . S
C2028 H2019 0.930 . S
C2028 C2026 1.378 . S
C2028 C2029 1.367 . S
C2029 C2028 1.367 . S
C2029 C2031 1.433 . S
C2030 C2026 1.350 . S
C2030 C2027 1.463 1_455 S
C2030 N2034 1.427 . S
C2031 H2021 0.929 . S
C2031 C2029 1.433 . S
C2031 N2034 1.384 . S
C2032 H2023 0.929 . S
C2032 C2024 1.378 . S
C2032 C2027 1.350 . S
C2033 H2020 0.929 . S
C2033 C2025 1.433 . S
C2033 N2035 1.384 . S
N2034 C2030 1.427 . S
N2034 C2031 1.384 . S
N2035 C2027 1.427 . S
N2035 C2033 1.384 . S
H2036 C2042 0.930 . S
H2037 C2046 0.930 . S
H2038 C2051 0.929 . S
H2039 C2049 0.929 . S
H2040 C2044 0.929 . S
H2041 C2050 0.929 . S
C2042 H2036 0.930 . S
C2042 C2043 1.367 . S
C2042 C2050 1.378 . S
C2043 C2042 1.367 . S
C2043 C2051 1.433 . S
C2044 H2040 0.929 . S
C2044 C2046 1.378 . S
C2044 C2048 1.350 . S
C2045 C2048 1.463 . S
C2045 C2050 1.350 . S
C2045 N2053 1.427 . S
C2046 H2037 0.930 . S
C2046 C2044 1.378 . S
C2046 C2047 1.367 . S
C2047 C2046 1.367 . S
C2047 C2049 1.433 . S
C2048 C2044 1.350 . S
C2048 C2045 1.463 . S
C2048 N2052 1.427 . S
C2049 H2039 0.929 . S
C2049 C2047 1.433 . S
C2049 N2052 1.384 . S
C2050 H2041 0.929 . S
C2050 C2042 1.378 . S
C2050 C2045 1.350 . S
C2051 H2038 0.929 . S
C2051 C2043 1.433 . S
C2051 N2053 1.384 . S
N2052 C2048 1.427 . S
N2052 C2049 1.384 . S
N2053 C2045 1.427 . S
N2053 C2051 1.384 . S
H2054 C2060 0.930 . S
H2055 C2064 0.930 . S
H2056 C2069 0.929 . S
H2057 C2067 0.929 . S
H2058 C2062 0.929 . S
H2059 C2068 0.929 . S
C2060 H2054 0.930 . S
C2060 C2061 1.367 . S
C2060 C2068 1.378 . S
C2061 C2060 1.367 . S
C2061 C2069 1.433 . S
C2062 H2058 0.929 . S
C2062 C2064 1.378 . S
C2062 C2066 1.350 . S
C2063 C2066 1.463 . S
C2063 C2068 1.350 . S
C2063 N2071 1.427 . S
C2064 H2055 0.930 . S
C2064 C2062 1.378 . S
C2064 C2065 1.367 . S
C2065 C2064 1.367 . S
C2065 C2067 1.433 . S
C2066 C2062 1.350 . S
C2066 C2063 1.463 . S
C2066 N2070 1.427 . S
C2067 H2057 0.929 . S
C2067 C2065 1.433 . S
C2067 N2070 1.384 . S
C2068 H2059 0.929 . S
C2068 C2060 1.378 . S
C2068 C2063 1.350 . S
C2069 H2056 0.929 . S
C2069 C2061 1.433 . S
C2069 N2071 1.384 . S
N2070 C2066 1.427 . S
N2070 C2067 1.384 . S
N2071 C2063 1.427 . S
N2071 C2069 1.384 . S
H2072 C2078 0.930 . S
H2073 C2082 0.930 . S
H2074 C2087 0.929 . S
H2075 C2085 0.929 . S
H2076 C2080 0.929 1_455 S
H2077 C2086 0.929 1_655 S
C2078 H2072 0.930 . S
C2078 C2079 1.367 . S
C2078 C2086 1.378 . S
C2079 C2078 1.367 . S
C2079 C2087 1.433 . S
C2080 H2076 0.929 1_655 S
C2080 C2082 1.378 . S
C2080 C2084 1.350 . S
C2081 C2084 1.463 1_455 S
C2081 C2086 1.350 . S
C2081 N2089 1.427 . S
C2082 H2073 0.930 . S
C2082 C2080 1.378 . S
C2082 C2083 1.367 . S
C2083 C2082 1.367 . S
C2083 C2085 1.433 . S
C2084 C2080 1.350 . S
C2084 C2081 1.463 1_655 S
C2084 N2088 1.427 . S
C2085 H2075 0.929 . S
C2085 C2083 1.433 . S
C2085 N2088 1.384 . S
C2086 H2077 0.929 1_455 S
C2086 C2078 1.378 . S
C2086 C2081 1.350 . S
C2087 H2074 0.929 . S
C2087 C2079 1.433 . S
C2087 N2089 1.384 . S
N2088 C2084 1.427 . S
N2088 C2085 1.384 . S
N2089 C2081 1.427 . S
N2089 C2087 1.384 . S
H2090 C2096 0.930 . S
H2091 C2100 0.930 . S
H2092 C2105 0.929 . S
H2093 C2103 0.929 . S
H2094 C2098 0.929 . S
H2095 C2104 0.929 . S
C2096 H2090 0.930 . S
C2096 C2097 1.367 . S
C2096 C2104 1.378 . S
C2097 C2096 1.367 . S
C2097 C2105 1.433 . S
C2098 H2094 0.929 . S
C2098 C2100 1.378 . S
C2098 C2102 1.350 . S
C2099 C2102 1.463 . S
C2099 C2104 1.350 . S
C2099 N2107 1.427 . S
C2100 H2091 0.930 . S
C2100 C2098 1.378 . S
C2100 C2101 1.367 . S
C2101 C2100 1.367 . S
C2101 C2103 1.433 . S
C2102 C2098 1.350 . S
C2102 C2099 1.463 . S
C2102 N2106 1.427 . S
C2103 H2093 0.929 . S
C2103 C2101 1.433 . S
C2103 N2106 1.384 . S
C2104 H2095 0.929 . S
C2104 C2096 1.378 . S
C2104 C2099 1.350 . S
C2105 H2092 0.929 . S
C2105 C2097 1.433 . S
C2105 N2107 1.384 . S
N2106 C2102 1.427 . S
N2106 C2103 1.384 . S
N2107 C2099 1.427 . S
N2107 C2105 1.384 . S
H2108 C2114 0.930 . S
H2109 C2118 0.930 . S
H2110 C2123 0.929 . S
H2111 C2121 0.929 . S
H2112 C2116 0.929 . S
H2113 C2122 0.929 . S
C2114 H2108 0.930 . S
C2114 C2115 1.367 . S
C2114 C2122 1.378 . S
C2115 C2114 1.367 . S
C2115 C2123 1.433 . S
C2116 H2112 0.929 . S
C2116 C2118 1.378 . S
C2116 C2120 1.350 . S
C2117 C2120 1.463 . S
C2117 C2122 1.350 . S
C2117 N2125 1.427 . S
C2118 H2109 0.930 . S
C2118 C2116 1.378 . S
C2118 C2119 1.367 . S
C2119 C2118 1.367 . S
C2119 C2121 1.433 . S
C2120 C2116 1.350 . S
C2120 C2117 1.463 . S
C2120 N2124 1.427 . S
C2121 H2111 0.929 . S
C2121 C2119 1.433 . S
C2121 N2124 1.384 . S
C2122 H2113 0.929 . S
C2122 C2114 1.378 . S
C2122 C2117 1.350 . S
C2123 H2110 0.929 . S
C2123 C2115 1.433 . S
C2123 N2125 1.384 . S
N2124 C2120 1.427 . S
N2124 C2121 1.384 . S
N2125 C2117 1.427 . S
N2125 C2123 1.384 . S
H2126 C2132 0.930 . S
H2127 C2136 0.930 . S
H2128 C2141 0.929 . S
H2129 C2139 0.929 . S
H2130 C2134 0.929 . S
H2131 C2140 0.929 . S
C2132 H2126 0.930 . S
C2132 C2133 1.367 . S
C2132 C2140 1.378 . S
C2133 C2132 1.367 . S
C2133 C2141 1.433 . S
C2134 H2130 0.929 . S
C2134 C2136 1.378 . S
C2134 C2138 1.350 . S
C2135 C2138 1.463 1_655 S
C2135 C2140 1.350 . S
C2135 N2143 1.427 . S
C2136 H2127 0.930 . S
C2136 C2134 1.378 . S
C2136 C2137 1.367 . S
C2137 C2136 1.367 . S
C2137 C2139 1.433 . S
C2138 C2134 1.350 . S
C2138 C2135 1.463 1_455 S
C2138 N2142 1.427 . S
C2139 H2129 0.929 . S
C2139 C2137 1.433 . S
C2139 N2142 1.384 . S
C2140 H2131 0.929 . S
C2140 C2132 1.378 . S
C2140 C2135 1.350 . S
C2141 H2128 0.929 . S
C2141 C2133 1.433 . S
C2141 N2143 1.384 . S
N2142 C2138 1.427 . S
N2142 C2139 1.384 . S
N2143 C2135 1.427 . S
N2143 C2141 1.384 . S
H2144 C2150 0.930 . S
H2145 C2154 0.930 . S
H2146 C2159 0.929 . S
H2147 C2157 0.929 . S
H2148 C2152 0.929 . S
H2149 C2158 0.929 . S
C2150 H2144 0.930 . S
C2150 C2151 1.367 . S
C2150 C2158 1.378 . S
C2151 C2150 1.367 . S
C2151 C2159 1.433 . S
C2152 H2148 0.929 . S
C2152 C2154 1.378 . S
C2152 C2156 1.350 . S
C2153 C2156 1.463 . S
C2153 C2158 1.350 . S
C2153 N2161 1.427 . S
C2154 H2145 0.930 . S
C2154 C2152 1.378 . S
C2154 C2155 1.367 . S
C2155 C2154 1.367 . S
C2155 C2157 1.433 . S
C2156 C2152 1.350 . S
C2156 C2153 1.463 . S
C2156 N2160 1.427 . S
C2157 H2147 0.929 . S
C2157 C2155 1.433 . S
C2157 N2160 1.384 . S
C2158 H2149 0.929 . S
C2158 C2150 1.378 . S
C2158 C2153 1.350 . S
C2159 H2146 0.929 . S
C2159 C2151 1.433 . S
C2159 N2161 1.384 . S
N2160 C2156 1.427 . S
N2160 C2157 1.384 . S
N2161 C2153 1.427 . S
N2161 C2159 1.384 . S
H2162 C2168 0.928 1_565 S
H2163 C2172 0.928 1_545 S
H2164 C2177 0.929 . S
H2165 C2175 0.929 . S
H2166 C2170 0.929 . S
H2167 C2176 0.929 . S
C2168 H2162 0.928 1_545 S
C2168 C2169 1.373 . S
C2168 C2176 1.376 1_545 S
C2169 C2168 1.373 . S
C2169 C2177 1.433 . S
C2170 H2166 0.929 . S
C2170 C2172 1.376 1_545 S
C2170 C2174 1.350 1_545 S
C2171 C2174 1.463 1_645 S
C2171 C2176 1.350 1_545 S
C2171 N2179 1.427 . S
C2172 H2163 0.928 1_565 S
C2172 C2170 1.376 1_565 S
C2172 C2173 1.373 . S
C2173 C2172 1.373 . S
C2173 C2175 1.433 . S
C2174 C2170 1.350 1_565 S
C2174 C2171 1.463 1_465 S
C2174 N2178 1.427 . S
C2175 H2165 0.929 . S
C2175 C2173 1.433 . S
C2175 N2178 1.384 . S
C2176 H2167 0.929 . S
C2176 C2168 1.376 1_565 S
C2176 C2171 1.350 1_565 S
C2177 H2164 0.929 . S
C2177 C2169 1.433 . S
C2177 N2179 1.384 . S
N2178 C2174 1.427 . S
N2178 C2175 1.384 . S
N2179 C2171 1.427 . S
N2179 C2177 1.384 . S
H2180 C2186 0.930 . S
H2181 C2190 0.930 . S
H2182 C2195 0.929 . S
H2183 C2193 0.929 . S
H2184 C2188 0.929 . S
H2185 C2194 0.929 . S
C2186 H2180 0.930 . S
C2186 C2187 1.367 . S
C2186 C2194 1.378 . S
C2187 C2186 1.367 . S
C2187 C2195 1.433 . S
C2188 H2184 0.929 . S
C2188 C2190 1.378 . S
C2188 C2192 1.350 . S
C2189 C2192 1.463 . S
C2189 C2194 1.350 . S
C2189 N2197 1.427 . S
C2190 H2181 0.930 . S
C2190 C2188 1.378 . S
C2190 C2191 1.367 . S
C2191 C2190 1.367 . S
C2191 C2193 1.433 . S
C2192 C2188 1.350 . S
C2192 C2189 1.463 . S
C2192 N2196 1.427 . S
C2193 H2183 0.929 . S
C2193 C2191 1.433 . S
C2193 N2196 1.384 . S
C2194 H2185 0.929 . S
C2194 C2186 1.378 . S
C2194 C2189 1.350 . S
C2195 H2182 0.929 . S
C2195 C2187 1.433 . S
C2195 N2197 1.384 . S
N2196 C2192 1.427 . S
N2196 C2193 1.384 . S
N2197 C2189 1.427 . S
N2197 C2195 1.384 . S
H2198 C2204 0.930 . S
H2199 C2208 0.930 . S
H2200 C2213 0.929 . S
H2201 C2211 0.929 . S
H2202 C2206 0.929 . S
H2203 C2212 0.929 . S
C2204 H2198 0.930 . S
C2204 C2205 1.367 1_565 S
C2204 C2212 1.378 . S
C2205 C2204 1.367 1_545 S
C2205 C2213 1.433 1_554 S
C2206 H2202 0.929 . S
C2206 C2208 1.378 . S
C2206 C2210 1.350 1_545 S
C2207 C2210 1.463 1_544 S
C2207 C2212 1.350 1_545 S
C2207 N2215 1.427 1_554 S
C2208 H2199 0.930 . S
C2208 C2206 1.378 . S
C2208 C2209 1.367 1_545 S
C2209 C2208 1.367 1_565 S
C2209 C2211 1.433 1_556 S
C2210 C2206 1.350 1_565 S
C2210 C2207 1.463 1_566 S
C2210 N2214 1.427 1_556 S
C2211 H2201 0.929 . S
C2211 C2209 1.433 1_554 S
C2211 N2214 1.384 . S
C2212 H2203 0.929 . S
C2212 C2204 1.378 . S
C2212 C2207 1.350 1_565 S
C2213 H2200 0.929 . S
C2213 C2205 1.433 1_556 S
C2213 N2215 1.384 . S
N2214 C2210 1.427 1_554 S
N2214 C2211 1.384 . S
N2215 C2207 1.427 1_556 S
N2215 C2213 1.384 . S
H2216 C2222 0.930 . S
H2217 C2226 0.930 . S
H2218 C2231 0.929 . S
H2219 C2229 0.929 . S
H2220 C2224 0.929 . S
H2221 C2230 0.929 . S
C2222 H2216 0.930 . S
C2222 C2223 1.367 . S
C2222 C2230 1.378 . S
C2223 C2222 1.367 . S
C2223 C2231 1.433 . S
C2224 H2220 0.929 . S
C2224 C2226 1.378 . S
C2224 C2228 1.350 . S
C2225 C2228 1.463 . S
C2225 C2230 1.350 . S
C2225 N2233 1.427 . S
C2226 H2217 0.930 . S
C2226 C2224 1.378 . S
C2226 C2227 1.367 . S
C2227 C2226 1.367 . S
C2227 C2229 1.433 . S
C2228 C2224 1.350 . S
C2228 C2225 1.463 . S
C2228 N2232 1.427 . S
C2229 H2219 0.929 . S
C2229 C2227 1.433 . S
C2229 N2232 1.384 . S
C2230 H2221 0.929 . S
C2230 C2222 1.378 . S
C2230 C2225 1.350 . S
C2231 H2218 0.929 . S
C2231 C2223 1.433 . S
C2231 N2233 1.384 . S
N2232 C2228 1.427 . S
N2232 C2229 1.384 . S
N2233 C2225 1.427 . S
N2233 C2231 1.384 . S
H2234 C2240 0.930 . S
H2235 C2244 0.930 . S
H2236 C2249 0.929 . S
H2237 C2247 0.929 . S
H2238 C2242 0.929 . S
H2239 C2248 0.929 . S
C2240 H2234 0.930 . S
C2240 C2241 1.367 1_565 S
C2240 C2248 1.378 . S
C2241 C2240 1.367 1_545 S
C2241 C2249 1.433 . S
C2242 H2238 0.929 . S
C2242 C2244 1.378 . S
C2242 C2246 1.335 1_545 S
C2243 C2246 1.461 1_545 S
C2243 C2248 1.335 1_545 S
C2243 N2251 1.445 . S
C2244 H2235 0.930 . S
C2244 C2242 1.378 . S
C2244 C2245 1.367 1_545 S
C2245 C2244 1.367 1_565 S
C2245 C2247 1.433 . S
C2246 C2242 1.335 1_565 S
C2246 C2243 1.461 1_565 S
C2246 N2250 1.445 . S
C2247 H2237 0.929 . S
C2247 C2245 1.433 . S
C2247 N2250 1.384 . S
C2248 H2239 0.929 . S
C2248 C2240 1.378 . S
C2248 C2243 1.335 1_565 S
C2249 H2236 0.929 . S
C2249 C2241 1.433 . S
C2249 N2251 1.384 . S
N2250 C2246 1.445 . S
N2250 C2247 1.384 . S
N2251 C2243 1.445 . S
N2251 C2249 1.384 . S
H2252 C2258 0.930 . S
H2253 C2262 0.930 . S
H2254 C2267 0.929 . S
H2255 C2265 0.929 . S
H2256 C2260 0.929 . S
H2257 C2266 0.929 . S
C2258 H2252 0.930 . S
C2258 C2259 1.367 . S
C2258 C2266 1.378 . S
C2259 C2258 1.367 . S
C2259 C2267 1.433 . S
C2260 H2256 0.929 . S
C2260 C2262 1.378 . S
C2260 C2264 1.350 . S
C2261 C2264 1.463 . S
C2261 C2266 1.350 . S
C2261 N2269 1.427 . S
C2262 H2253 0.930 . S
C2262 C2260 1.378 . S
C2262 C2263 1.367 . S
C2263 C2262 1.367 . S
C2263 C2265 1.433 . S
C2264 C2260 1.350 . S
C2264 C2261 1.463 . S
C2264 N2268 1.427 . S
C2265 H2255 0.929 . S
C2265 C2263 1.433 . S
C2265 N2268 1.384 . S
C2266 H2257 0.929 . S
C2266 C2258 1.378 . S
C2266 C2261 1.350 . S
C2267 H2254 0.929 . S
C2267 C2259 1.433 . S
C2267 N2269 1.384 . S
N2268 C2264 1.427 . S
N2268 C2265 1.384 . S
N2269 C2261 1.427 . S
N2269 C2267 1.384 . S
H2270 C2276 0.930 . S
H2271 C2280 0.930 . S
H2272 C2285 0.929 . S
H2273 C2283 0.929 . S
H2274 C2278 0.927 1_545 S
H2275 C2284 0.927 1_565 S
C2276 H2270 0.930 . S
C2276 C2277 1.367 1_554 S
C2276 C2284 1.380 . S
C2277 C2276 1.367 1_556 S
C2277 C2285 1.433 . S
C2278 H2274 0.927 1_565 S
C2278 C2280 1.380 . S
C2278 C2282 1.351 1_556 S
C2279 C2282 1.463 1_446 S
C2279 C2284 1.351 1_556 S
C2279 N2287 1.427 . S
C2280 H2271 0.930 . S
C2280 C2278 1.380 . S
C2280 C2281 1.367 1_556 S
C2281 C2280 1.367 1_554 S
C2281 C2283 1.433 . S
C2282 C2278 1.351 1_554 S
C2282 C2279 1.463 1_664 S
C2282 N2286 1.427 . S
C2283 H2273 0.929 . S
C2283 C2281 1.433 . S
C2283 N2286 1.384 . S
C2284 H2275 0.927 1_545 S
C2284 C2276 1.380 . S
C2284 C2279 1.351 1_554 S
C2285 H2272 0.929 . S
C2285 C2277 1.433 . S
C2285 N2287 1.384 . S
N2286 C2282 1.427 . S
N2286 C2283 1.384 . S
N2287 C2279 1.427 . S
N2287 C2285 1.384 . S
H2288 C2294 0.930 . S
H2289 C2298 0.930 . S
H2290 C2303 0.929 . S
H2291 C2301 0.929 . S
H2292 C2296 0.929 . S
H2293 C2302 0.929 . S
C2294 H2288 0.930 . S
C2294 C2295 1.367 . S
C2294 C2302 1.378 . S
C2295 C2294 1.367 . S
C2295 C2303 1.433 . S
C2296 H2292 0.929 . S
C2296 C2298 1.378 . S
C2296 C2300 1.350 . S
C2297 C2300 1.463 . S
C2297 C2302 1.350 . S
C2297 N2305 1.427 . S
C2298 H2289 0.930 . S
C2298 C2296 1.378 . S
C2298 C2299 1.367 . S
C2299 C2298 1.367 . S
C2299 C2301 1.433 . S
C2300 C2296 1.350 . S
C2300 C2297 1.463 . S
C2300 N2304 1.427 . S
C2301 H2291 0.929 . S
C2301 C2299 1.433 . S
C2301 N2304 1.384 . S
C2302 H2293 0.929 . S
C2302 C2294 1.378 . S
C2302 C2297 1.350 . S
C2303 H2290 0.929 . S
C2303 C2295 1.433 . S
C2303 N2305 1.384 . S
N2304 C2300 1.427 . S
N2304 C2301 1.384 . S
N2305 C2297 1.427 . S
N2305 C2303 1.384 . S
H2306 C2312 0.930 . S
H2307 C2316 0.930 . S
H2308 C2321 0.929 . S
H2309 C2319 0.929 . S
H2310 C2314 0.929 . S
H2311 C2320 0.929 . S
C2312 H2306 0.930 . S
C2312 C2313 1.367 . S
C2312 C2320 1.378 . S
C2313 C2312 1.367 . S
C2313 C2321 1.433 . S
C2314 H2310 0.929 . S
C2314 C2316 1.378 . S
C2314 C2318 1.350 . S
C2315 C2318 1.463 . S
C2315 C2320 1.350 . S
C2315 N2323 1.427 . S
C2316 H2307 0.930 . S
C2316 C2314 1.378 . S
C2316 C2317 1.367 . S
C2317 C2316 1.367 . S
C2317 C2319 1.433 . S
C2318 C2314 1.350 . S
C2318 C2315 1.463 . S
C2318 N2322 1.427 . S
C2319 H2309 0.929 . S
C2319 C2317 1.433 . S
C2319 N2322 1.384 . S
C2320 H2311 0.929 . S
C2320 C2312 1.378 . S
C2320 C2315 1.350 . S
C2321 H2308 0.929 . S
C2321 C2313 1.433 . S
C2321 N2323 1.384 . S
N2322 C2318 1.427 . S
N2322 C2319 1.384 . S
N2323 C2315 1.427 . S
N2323 C2321 1.384 . S
H2324 C2330 0.930 . S
H2325 C2334 0.930 . S
H2326 C2339 0.929 . S
H2327 C2337 0.929 . S
H2328 C2332 0.929 . S
H2329 C2338 0.929 . S
C2330 H2324 0.930 . S
C2330 C2331 1.367 . S
C2330 C2338 1.378 . S
C2331 C2330 1.367 . S
C2331 C2339 1.433 . S
C2332 H2328 0.929 . S
C2332 C2334 1.378 . S
C2332 C2336 1.350 . S
C2333 C2336 1.463 . S
C2333 C2338 1.350 . S
C2333 N2341 1.427 . S
C2334 H2325 0.930 . S
C2334 C2332 1.378 . S
C2334 C2335 1.367 . S
C2335 C2334 1.367 . S
C2335 C2337 1.433 . S
C2336 C2332 1.350 . S
C2336 C2333 1.463 . S
C2336 N2340 1.427 . S
C2337 H2327 0.929 . S
C2337 C2335 1.433 . S
C2337 N2340 1.384 . S
C2338 H2329 0.929 . S
C2338 C2330 1.378 . S
C2338 C2333 1.350 . S
C2339 H2326 0.929 . S
C2339 C2331 1.433 . S
C2339 N2341 1.384 . S
N2340 C2336 1.427 . S
N2340 C2337 1.384 . S
N2341 C2333 1.427 . S
N2341 C2339 1.384 . S
H2342 C2348 0.930 . S
H2343 C2352 0.930 . S
H2344 C2357 0.929 . S
H2345 C2355 0.929 . S
H2346 C2350 0.929 . S
H2347 C2356 0.929 . S
C2348 H2342 0.930 . S
C2348 C2349 1.367 . S
C2348 C2356 1.378 . S
C2349 C2348 1.367 . S
C2349 C2357 1.433 . S
C2350 H2346 0.929 . S
C2350 C2352 1.378 . S
C2350 C2354 1.350 . S
C2351 C2354 1.463 . S
C2351 C2356 1.350 . S
C2351 N2359 1.427 . S
C2352 H2343 0.930 . S
C2352 C2350 1.378 . S
C2352 C2353 1.367 . S
C2353 C2352 1.367 . S
C2353 C2355 1.433 . S
C2354 C2350 1.350 . S
C2354 C2351 1.463 . S
C2354 N2358 1.427 . S
C2355 H2345 0.929 . S
C2355 C2353 1.433 . S
C2355 N2358 1.384 . S
C2356 H2347 0.929 . S
C2356 C2348 1.378 . S
C2356 C2351 1.350 . S
C2357 H2344 0.929 . S
C2357 C2349 1.433 . S
C2357 N2359 1.384 . S
N2358 C2354 1.427 . S
N2358 C2355 1.384 . S
N2359 C2351 1.427 . S
N2359 C2357 1.384 . S
H2360 C2366 0.910 1_556 S
H2361 C2370 0.910 1_554 S
H2362 C2375 0.929 . S
H2363 C2373 0.929 . S
H2364 C2368 0.929 . S
H2365 C2374 0.929 . S
C2366 H2360 0.910 1_554 S
C2366 C2367 1.406 . S
C2366 C2374 1.362 1_554 S
C2367 C2366 1.406 . S
C2367 C2375 1.433 . S
C2368 H2364 0.929 . S
C2368 C2370 1.362 1_554 S
C2368 C2372 1.350 1_554 S
C2369 C2372 1.463 1_554 S
C2369 C2374 1.350 1_554 S
C2369 N2377 1.427 . S
C2370 H2361 0.910 1_556 S
C2370 C2368 1.362 1_556 S
C2370 C2371 1.406 . S
C2371 C2370 1.406 . S
C2371 C2373 1.433 . S
C2372 C2368 1.350 1_556 S
C2372 C2369 1.463 1_556 S
C2372 N2376 1.427 . S
C2373 H2363 0.929 . S
C2373 C2371 1.433 . S
C2373 N2376 1.384 . S
C2374 H2365 0.929 . S
C2374 C2366 1.362 1_556 S
C2374 C2369 1.350 1_556 S
C2375 H2362 0.929 . S
C2375 C2367 1.433 . S
C2375 N2377 1.384 . S
N2376 C2372 1.427 . S
N2376 C2373 1.384 . S
N2377 C2369 1.427 . S
N2377 C2375 1.384 . S
H2378 C2384 0.930 . S
H2379 C2388 0.930 . S
H2380 C2393 0.929 . S
H2381 C2391 0.929 . S
H2382 C2386 0.929 . S
H2383 C2392 0.929 . S
C2384 H2378 0.930 . S
C2384 C2385 1.367 . S
C2384 C2392 1.378 . S
C2385 C2384 1.367 . S
C2385 C2393 1.433 . S
C2386 H2382 0.929 . S
C2386 C2388 1.378 . S
C2386 C2390 1.350 . S
C2387 C2390 1.463 1_655 S
C2387 C2392 1.350 . S
C2387 N2395 1.427 . S
C2388 H2379 0.930 . S
C2388 C2386 1.378 . S
C2388 C2389 1.367 . S
C2389 C2388 1.367 . S
C2389 C2391 1.433 . S
C2390 C2386 1.350 . S
C2390 C2387 1.463 1_455 S
C2390 N2394 1.427 . S
C2391 H2381 0.929 . S
C2391 C2389 1.433 . S
C2391 N2394 1.384 . S
C2392 H2383 0.929 . S
C2392 C2384 1.378 . S
C2392 C2387 1.350 . S
C2393 H2380 0.929 . S
C2393 C2385 1.433 . S
C2393 N2395 1.384 . S
N2394 C2390 1.427 . S
N2394 C2391 1.384 . S
N2395 C2387 1.427 . S
N2395 C2393 1.384 . S
H2396 C2402 0.930 . S
H2397 C2406 0.930 . S
H2398 C2411 0.929 . S
H2399 C2409 0.929 . S
H2400 C2404 0.929 . S
H2401 C2410 0.929 . S
C2402 H2396 0.930 . S
C2402 C2403 1.367 . S
C2402 C2410 1.378 . S
C2403 C2402 1.367 . S
C2403 C2411 1.433 . S
C2404 H2400 0.929 . S
C2404 C2406 1.378 . S
C2404 C2408 1.350 . S
C2405 C2408 1.463 1_454 S
C2405 C2410 1.350 . S
C2405 N2413 1.441 . S
C2406 H2397 0.930 . S
C2406 C2404 1.378 . S
C2406 C2407 1.367 . S
C2407 C2406 1.367 . S
C2407 C2409 1.433 . S
C2408 C2404 1.350 . S
C2408 C2405 1.463 1_656 S
C2408 N2412 1.441 . S
C2409 H2399 0.929 . S
C2409 C2407 1.433 . S
C2409 N2412 1.423 . S
C2410 H2401 0.929 . S
C2410 C2402 1.378 . S
C2410 C2405 1.350 . S
C2411 H2398 0.929 . S
C2411 C2403 1.433 . S
C2411 N2413 1.423 . S
N2412 C2408 1.441 . S
N2412 C2409 1.423 . S
N2413 C2405 1.441 . S
N2413 C2411 1.423 . S
H2414 C2420 0.930 . S
H2415 C2424 0.930 . S
H2416 C2429 0.929 . S
H2417 C2427 0.929 . S
H2418 C2422 0.929 . S
H2419 C2428 0.929 . S
C2420 H2414 0.930 . S
C2420 C2421 1.367 . S
C2420 C2428 1.378 . S
C2421 C2420 1.367 . S
C2421 C2429 1.433 . S
C2422 H2418 0.929 . S
C2422 C2424 1.378 . S
C2422 C2426 1.350 . S
C2423 C2426 1.463 . S
C2423 C2428 1.350 . S
C2423 N2431 1.427 . S
C2424 H2415 0.930 . S
C2424 C2422 1.378 . S
C2424 C2425 1.367 . S
C2425 C2424 1.367 . S
C2425 C2427 1.433 . S
C2426 C2422 1.350 . S
C2426 C2423 1.463 . S
C2426 N2430 1.427 . S
C2427 H2417 0.929 . S
C2427 C2425 1.433 . S
C2427 N2430 1.384 . S
C2428 H2419 0.929 . S
C2428 C2420 1.378 . S
C2428 C2423 1.350 . S
C2429 H2416 0.929 . S
C2429 C2421 1.433 . S
C2429 N2431 1.384 . S
N2430 C2426 1.427 . S
N2430 C2427 1.384 . S
N2431 C2423 1.427 . S
N2431 C2429 1.384 . S
H2432 C2438 0.930 . S
H2433 C2442 0.930 . S
H2434 C2447 0.929 . S
H2435 C2445 0.929 . S
H2436 C2440 0.929 . S
H2437 C2446 0.929 . S
C2438 H2432 0.930 . S
C2438 C2439 1.367 . S
C2438 C2446 1.378 1_545 S
C2439 C2438 1.367 . S
C2439 C2447 1.433 . S
C2440 H2436 0.929 . S
C2440 C2442 1.378 . S
C2440 C2444 1.350 . S
C2441 C2444 1.463 . S
C2441 C2446 1.350 . S
C2441 N2449 1.427 1_565 S
C2442 H2433 0.930 . S
C2442 C2440 1.378 . S
C2442 C2443 1.367 . S
C2443 C2442 1.367 . S
C2443 C2445 1.433 . S
C2444 C2440 1.350 . S
C2444 C2441 1.463 . S
C2444 N2448 1.427 . S
C2445 H2435 0.929 . S
C2445 C2443 1.433 . S
C2445 N2448 1.384 . S
C2446 H2437 0.929 . S
C2446 C2438 1.378 1_565 S
C2446 C2441 1.350 . S
C2447 H2434 0.929 . S
C2447 C2439 1.433 . S
C2447 N2449 1.384 . S
N2448 C2444 1.427 . S
N2448 C2445 1.384 . S
N2449 C2441 1.427 1_545 S
N2449 C2447 1.384 . S
H2450 C2456 0.930 . S
H2451 C2460 0.930 . S
H2452 C2465 0.929 . S
H2453 C2463 0.929 . S
H2454 C2458 0.929 . S
H2455 C2464 0.929 . S
C2456 H2450 0.930 . S
C2456 C2457 1.367 . S
C2456 C2464 1.378 . S
C2457 C2456 1.367 . S
C2457 C2465 1.433 . S
C2458 H2454 0.929 . S
C2458 C2460 1.378 . S
C2458 C2462 1.350 . S
C2459 C2462 1.463 . S
C2459 C2464 1.350 1_565 S
C2459 N2467 1.427 . S
C2460 H2451 0.930 . S
C2460 C2458 1.378 . S
C2460 C2461 1.367 . S
C2461 C2460 1.367 . S
C2461 C2463 1.433 . S
C2462 C2458 1.350 . S
C2462 C2459 1.463 . S
C2462 N2466 1.427 . S
C2463 H2453 0.929 . S
C2463 C2461 1.433 . S
C2463 N2466 1.384 . S
C2464 H2455 0.929 . S
C2464 C2456 1.378 . S
C2464 C2459 1.350 1_545 S
C2465 H2452 0.929 . S
C2465 C2457 1.433 . S
C2465 N2467 1.384 1_545 S
N2466 C2462 1.427 . S
N2466 C2463 1.384 . S
N2467 C2459 1.427 . S
N2467 C2465 1.384 1_565 S
H2468 C2474 0.930 . S
H2469 C2478 0.930 . S
H2470 C2483 0.929 . S
H2471 C2481 0.929 . S
H2472 C2476 0.929 . S
H2473 C2482 0.929 1_565 S
C2474 H2468 0.930 . S
C2474 C2475 1.367 . S
C2474 C2482 1.378 . S
C2475 C2474 1.367 . S
C2475 C2483 1.433 . S
C2476 H2472 0.929 . S
C2476 C2478 1.378 . S
C2476 C2480 1.350 . S
C2477 C2480 1.463 . S
C2477 C2482 1.350 . S
C2477 N2485 1.427 . S
C2478 H2469 0.930 . S
C2478 C2476 1.378 . S
C2478 C2479 1.367 1_545 S
C2479 C2478 1.367 1_565 S
C2479 C2481 1.433 . S
C2480 C2476 1.350 . S
C2480 C2477 1.463 . S
C2480 N2484 1.427 1_545 S
C2481 H2471 0.929 . S
C2481 C2479 1.433 . S
C2481 N2484 1.384 . S
C2482 H2473 0.929 1_545 S
C2482 C2474 1.378 . S
C2482 C2477 1.350 . S
C2483 H2470 0.929 . S
C2483 C2475 1.433 . S
C2483 N2485 1.384 . S
N2484 C2480 1.427 1_565 S
N2484 C2481 1.384 . S
N2485 C2477 1.427 . S
N2485 C2483 1.384 . S
H2486 C2492 0.925 1_545 S
H2487 C2496 0.930 . S
H2488 C2501 0.929 . S
H2489 C2499 0.929 . S
H2490 C2494 0.914 1_565 S
H2491 C2500 0.929 . S
C2492 H2486 0.925 1_565 S
C2492 C2493 1.385 . S
C2492 C2500 1.366 1_565 S
C2493 C2492 1.385 . S
C2493 C2501 1.433 . S
C2494 H2490 0.914 1_545 S
C2494 C2496 1.378 . S
C2494 C2498 1.350 . S
C2495 C2498 1.463 . S
C2495 C2500 1.350 . S
C2495 N2503 1.427 1_545 S
C2496 H2487 0.930 . S
C2496 C2494 1.378 . S
C2496 C2497 1.367 . S
C2497 C2496 1.367 . S
C2497 C2499 1.433 . S
C2498 C2494 1.350 . S
C2498 C2495 1.463 . S
C2498 N2502 1.427 . S
C2499 H2489 0.929 . S
C2499 C2497 1.433 . S
C2499 N2502 1.384 . S
C2500 H2491 0.929 . S
C2500 C2492 1.366 1_545 S
C2500 C2495 1.350 . S
C2501 H2488 0.929 . S
C2501 C2493 1.433 . S
C2501 N2503 1.384 . S
N2502 C2498 1.427 . S
N2502 C2499 1.384 . S
N2503 C2495 1.427 1_565 S
N2503 C2501 1.384 . S
H2504 C2510 0.930 . S
H2505 C2514 0.930 . S
H2506 C2519 0.929 . S
H2507 C2517 0.929 . S
H2508 C2512 0.929 1_565 S
H2509 C2518 0.929 . S
C2510 H2504 0.930 . S
C2510 C2511 1.367 1_545 S
C2510 C2518 1.378 . S
C2511 C2510 1.367 1_565 S
C2511 C2519 1.433 . S
C2512 H2508 0.929 1_545 S
C2512 C2514 1.378 . S
C2512 C2516 1.350 . S
C2513 C2516 1.463 . S
C2513 C2518 1.350 . S
C2513 N2521 1.427 1_545 S
C2514 H2505 0.930 . S
C2514 C2512 1.378 . S
C2514 C2515 1.367 . S
C2515 C2514 1.367 . S
C2515 C2517 1.433 . S
C2516 C2512 1.350 . S
C2516 C2513 1.463 . S
C2516 N2520 1.427 . S
C2517 H2507 0.929 . S
C2517 C2515 1.433 . S
C2517 N2520 1.384 . S
C2518 H2509 0.929 . S
C2518 C2510 1.378 . S
C2518 C2513 1.350 . S
C2519 H2506 0.929 . S
C2519 C2511 1.433 . S
C2519 N2521 1.384 . S
N2520 C2516 1.427 . S
N2520 C2517 1.384 . S
N2521 C2513 1.427 1_565 S
N2521 C2519 1.384 . S
H2522 C2528 0.930 . S
H2523 C2532 0.930 . S
H2524 C2537 0.929 . S
H2525 C2535 0.929 . S
H2526 C2530 0.929 . S
H2527 C2536 0.929 1_565 S
C2528 H2522 0.930 . S
C2528 C2529 1.367 . S
C2528 C2536 1.378 . S
C2529 C2528 1.367 . S
C2529 C2537 1.433 . S
C2530 H2526 0.929 . S
C2530 C2532 1.378 . S
C2530 C2534 1.350 . S
C2531 C2534 1.463 . S
C2531 C2536 1.350 . S
C2531 N2539 1.427 . S
C2532 H2523 0.930 . S
C2532 C2530 1.378 . S
C2532 C2533 1.367 1_545 S
C2533 C2532 1.367 1_565 S
C2533 C2535 1.433 . S
C2534 C2530 1.350 . S
C2534 C2531 1.463 . S
C2534 N2538 1.427 1_545 S
C2535 H2525 0.929 . S
C2535 C2533 1.433 . S
C2535 N2538 1.384 . S
C2536 H2527 0.929 1_545 S
C2536 C2528 1.378 . S
C2536 C2531 1.350 . S
C2537 H2524 0.929 . S
C2537 C2529 1.433 . S
C2537 N2539 1.384 . S
N2538 C2534 1.427 1_565 S
N2538 C2535 1.384 . S
N2539 C2531 1.427 . S
N2539 C2537 1.384 . S
H2540 C2546 0.930 . S
H2541 C2550 0.930 . S
H2542 C2555 0.929 . S
H2543 C2553 0.929 . S
H2544 C2548 0.929 . S
H2545 C2554 0.929 1_545 S
C2546 H2540 0.930 . S
C2546 C2547 1.367 . S
C2546 C2554 1.378 . S
C2547 C2546 1.367 . S
C2547 C2555 1.433 . S
C2548 H2544 0.929 . S
C2548 C2550 1.378 . S
C2548 C2552 1.350 . S
C2549 C2552 1.463 . S
C2549 C2554 1.350 . S
C2549 N2557 1.427 . S
C2550 H2541 0.930 . S
C2550 C2548 1.378 . S
C2550 C2551 1.367 1_565 S
C2551 C2550 1.367 1_545 S
C2551 C2553 1.433 . S
C2552 C2548 1.350 . S
C2552 C2549 1.463 . S
C2552 N2556 1.427 1_565 S
C2553 H2543 0.929 . S
C2553 C2551 1.433 . S
C2553 N2556 1.384 . S
C2554 H2545 0.929 1_565 S
C2554 C2546 1.378 . S
C2554 C2549 1.350 . S
C2555 H2542 0.929 . S
C2555 C2547 1.433 . S
C2555 N2557 1.384 . S
N2556 C2552 1.427 1_545 S
N2556 C2553 1.384 . S
N2557 C2549 1.427 . S
N2557 C2555 1.384 . S
H2558 C2564 0.930 . S
H2559 C2568 0.930 . S
H2560 C2573 0.929 . S
H2561 C2571 0.929 . S
H2562 C2566 0.929 . S
H2563 C2572 0.929 . S
C2564 H2558 0.930 . S
C2564 C2565 1.367 . S
C2564 C2572 1.378 . S
C2565 C2564 1.367 . S
C2565 C2573 1.433 . S
C2566 H2562 0.929 . S
C2566 C2568 1.378 . S
C2566 C2570 1.350 1_545 S
C2567 C2570 1.463 . S
C2567 C2572 1.350 . S
C2567 N2575 1.427 . S
C2568 H2559 0.930 . S
C2568 C2566 1.378 . S
C2568 C2569 1.367 . S
C2569 C2568 1.367 . S
C2569 C2571 1.433 1_545 S
C2570 C2566 1.350 1_565 S
C2570 C2567 1.463 . S
C2570 N2574 1.427 . S
C2571 H2561 0.929 . S
C2571 C2569 1.433 1_565 S
C2571 N2574 1.384 . S
C2572 H2563 0.929 . S
C2572 C2564 1.378 . S
C2572 C2567 1.350 . S
C2573 H2560 0.929 . S
C2573 C2565 1.433 . S
C2573 N2575 1.384 . S
N2574 C2570 1.427 . S
N2574 C2571 1.384 . S
N2575 C2567 1.427 . S
N2575 C2573 1.384 . S
H2576 C2582 0.930 . S
H2577 C2586 0.930 . S
H2578 C2591 0.929 . S
H2579 C2589 0.929 . S
H2580 C2584 0.929 . S
H2581 C2590 0.929 . S
C2582 H2576 0.930 . S
C2582 C2583 1.367 . S
C2582 C2590 1.378 . S
C2583 C2582 1.367 . S
C2583 C2591 1.433 . S
C2584 H2580 0.929 . S
C2584 C2586 1.378 . S
C2584 C2588 1.350 . S
C2585 C2588 1.463 . S
C2585 C2590 1.350 . S
C2585 N2593 1.427 . S
C2586 H2577 0.930 . S
C2586 C2584 1.378 . S
C2586 C2587 1.367 . S
C2587 C2586 1.367 . S
C2587 C2589 1.433 . S
C2588 C2584 1.350 . S
C2588 C2585 1.463 . S
C2588 N2592 1.427 . S
C2589 H2579 0.929 . S
C2589 C2587 1.433 . S
C2589 N2592 1.384 . S
C2590 H2581 0.929 . S
C2590 C2582 1.378 . S
C2590 C2585 1.350 . S
C2591 H2578 0.929 . S
C2591 C2583 1.433 . S
C2591 N2593 1.384 . S
N2592 C2588 1.427 . S
N2592 C2589 1.384 . S
N2593 C2585 1.427 . S
N2593 C2591 1.384 . S
H2594 C2600 0.930 . S
H2595 C2604 0.930 . S
H2596 C2609 0.929 . S
H2597 C2607 0.929 . S
H2598 C2602 0.929 . S
H2599 C2608 0.929 . S
C2600 H2594 0.930 . S
C2600 C2601 1.367 . S
C2600 C2608 1.378 . S
C2601 C2600 1.367 . S
C2601 C2609 1.433 . S
C2602 H2598 0.929 . S
C2602 C2604 1.378 . S
C2602 C2606 1.350 . S
C2603 C2606 1.463 . S
C2603 C2608 1.350 . S
C2603 N2611 1.427 . S
C2604 H2595 0.930 . S
C2604 C2602 1.378 . S
C2604 C2605 1.367 . S
C2605 C2604 1.367 . S
C2605 C2607 1.433 . S
C2606 C2602 1.350 . S
C2606 C2603 1.463 . S
C2606 N2610 1.427 . S
C2607 H2597 0.929 . S
C2607 C2605 1.433 . S
C2607 N2610 1.384 . S
C2608 H2599 0.929 . S
C2608 C2600 1.378 . S
C2608 C2603 1.350 . S
C2609 H2596 0.929 . S
C2609 C2601 1.433 . S
C2609 N2611 1.384 . S
N2610 C2606 1.427 . S
N2610 C2607 1.384 . S
N2611 C2603 1.427 . S
N2611 C2609 1.384 . S
H2612 C2618 0.930 . S
H2613 C2622 0.930 . S
H2614 C2627 0.929 . S
H2615 C2625 0.929 . S
H2616 C2620 0.929 . S
H2617 C2626 0.929 . S
C2618 H2612 0.930 . S
C2618 C2619 1.367 . S
C2618 C2626 1.378 . S
C2619 C2618 1.367 . S
C2619 C2627 1.433 . S
C2620 H2616 0.929 . S
C2620 C2622 1.378 . S
C2620 C2624 1.350 . S
C2621 C2624 1.463 . S
C2621 C2626 1.350 . S
C2621 N2629 1.427 . S
C2622 H2613 0.930 . S
C2622 C2620 1.378 . S
C2622 C2623 1.367 . S
C2623 C2622 1.367 . S
C2623 C2625 1.433 . S
C2624 C2620 1.350 . S
C2624 C2621 1.463 . S
C2624 N2628 1.427 . S
C2625 H2615 0.929 . S
C2625 C2623 1.433 . S
C2625 N2628 1.384 . S
C2626 H2617 0.929 . S
C2626 C2618 1.378 . S
C2626 C2621 1.350 . S
C2627 H2614 0.929 . S
C2627 C2619 1.433 . S
C2627 N2629 1.384 . S
N2628 C2624 1.427 . S
N2628 C2625 1.384 . S
N2629 C2621 1.427 . S
N2629 C2627 1.384 . S
H2630 C2636 0.930 . S
H2631 C2640 0.930 . S
H2632 C2645 0.929 . S
H2633 C2643 0.929 . S
H2634 C2638 0.929 . S
H2635 C2644 0.929 . S
C2636 H2630 0.930 . S
C2636 C2637 1.367 . S
C2636 C2644 1.378 . S
C2637 C2636 1.367 . S
C2637 C2645 1.433 . S
C2638 H2634 0.929 . S
C2638 C2640 1.378 . S
C2638 C2642 1.350 . S
C2639 C2642 1.463 . S
C2639 C2644 1.350 . S
C2639 N2647 1.427 . S
C2640 H2631 0.930 . S
C2640 C2638 1.378 . S
C2640 C2641 1.367 . S
C2641 C2640 1.367 . S
C2641 C2643 1.433 . S
C2642 C2638 1.350 . S
C2642 C2639 1.463 . S
C2642 N2646 1.427 . S
C2643 H2633 0.929 . S
C2643 C2641 1.433 . S
C2643 N2646 1.384 . S
C2644 H2635 0.929 . S
C2644 C2636 1.378 . S
C2644 C2639 1.350 . S
C2645 H2632 0.929 . S
C2645 C2637 1.433 . S
C2645 N2647 1.384 . S
N2646 C2642 1.427 . S
N2646 C2643 1.384 . S
N2647 C2639 1.427 . S
N2647 C2645 1.384 . S
H2648 C2654 0.930 . S
H2649 C2658 0.930 . S
H2650 C2663 0.929 . S
H2651 C2661 0.929 . S
H2652 C2656 0.929 . S
H2653 C2662 0.929 . S
C2654 H2648 0.930 . S
C2654 C2655 1.367 . S
C2654 C2662 1.378 . S
C2655 C2654 1.367 . S
C2655 C2663 1.433 . S
C2656 H2652 0.929 . S
C2656 C2658 1.378 . S
C2656 C2660 1.350 . S
C2657 C2660 1.463 . S
C2657 C2662 1.350 . S
C2657 N2665 1.427 . S
C2658 H2649 0.930 . S
C2658 C2656 1.378 . S
C2658 C2659 1.367 . S
C2659 C2658 1.367 . S
C2659 C2661 1.433 . S
C2660 C2656 1.350 . S
C2660 C2657 1.463 . S
C2660 N2664 1.427 . S
C2661 H2651 0.929 . S
C2661 C2659 1.433 . S
C2661 N2664 1.384 . S
C2662 H2653 0.929 . S
C2662 C2654 1.378 . S
C2662 C2657 1.350 . S
C2663 H2650 0.929 . S
C2663 C2655 1.433 . S
C2663 N2665 1.384 . S
N2664 C2660 1.427 . S
N2664 C2661 1.384 . S
N2665 C2657 1.427 . S
N2665 C2663 1.384 . S
H2666 C2672 0.930 . S
H2667 C2676 0.930 . S
H2668 C2681 0.929 . S
H2669 C2679 0.929 . S
H2670 C2674 0.929 . S
H2671 C2680 0.929 . S
C2672 H2666 0.930 . S
C2672 C2673 1.367 . S
C2672 C2680 1.378 . S
C2673 C2672 1.367 . S
C2673 C2681 1.433 . S
C2674 H2670 0.929 . S
C2674 C2676 1.378 . S
C2674 C2678 1.350 . S
C2675 C2678 1.463 . S
C2675 C2680 1.350 . S
C2675 N2683 1.427 . S
C2676 H2667 0.930 . S
C2676 C2674 1.378 . S
C2676 C2677 1.367 . S
C2677 C2676 1.367 . S
C2677 C2679 1.433 . S
C2678 C2674 1.350 . S
C2678 C2675 1.463 . S
C2678 N2682 1.427 . S
C2679 H2669 0.929 . S
C2679 C2677 1.433 . S
C2679 N2682 1.384 . S
C2680 H2671 0.929 . S
C2680 C2672 1.378 . S
C2680 C2675 1.350 . S
C2681 H2668 0.929 . S
C2681 C2673 1.433 . S
C2681 N2683 1.384 . S
N2682 C2678 1.427 . S
N2682 C2679 1.384 . S
N2683 C2675 1.427 . S
N2683 C2681 1.384 . S
H2684 C2690 0.930 . S
H2685 C2694 0.930 . S
H2686 C2699 0.929 . S
H2687 C2697 0.929 . S
H2688 C2692 0.929 . S
H2689 C2698 0.929 . S
C2690 H2684 0.930 . S
C2690 C2691 1.367 . S
C2690 C2698 1.378 . S
C2691 C2690 1.367 . S
C2691 C2699 1.433 . S
C2692 H2688 0.929 . S
C2692 C2694 1.378 . S
C2692 C2696 1.350 . S
C2693 C2696 1.463 . S
C2693 C2698 1.350 . S
C2693 N2701 1.427 . S
C2694 H2685 0.930 . S
C2694 C2692 1.378 . S
C2694 C2695 1.367 . S
C2695 C2694 1.367 . S
C2695 C2697 1.433 . S
C2696 C2692 1.350 . S
C2696 C2693 1.463 . S
C2696 N2700 1.427 . S
C2697 H2687 0.929 . S
C2697 C2695 1.433 . S
C2697 N2700 1.384 . S
C2698 H2689 0.929 . S
C2698 C2690 1.378 . S
C2698 C2693 1.350 . S
C2699 H2686 0.929 . S
C2699 C2691 1.433 . S
C2699 N2701 1.384 . S
N2700 C2696 1.427 . S
N2700 C2697 1.384 . S
N2701 C2693 1.427 . S
N2701 C2699 1.384 . S
H2702 C2708 0.930 . S
H2703 C2712 0.930 . S
H2704 C2717 0.929 . S
H2705 C2715 0.929 . S
H2706 C2710 0.929 . S
H2707 C2716 0.929 . S
C2708 H2702 0.930 . S
C2708 C2709 1.367 . S
C2708 C2716 1.378 . S
C2709 C2708 1.367 . S
C2709 C2717 1.433 . S
C2710 H2706 0.929 . S
C2710 C2712 1.378 . S
C2710 C2714 1.350 . S
C2711 C2714 1.463 . S
C2711 C2716 1.350 . S
C2711 N2719 1.427 . S
C2712 H2703 0.930 . S
C2712 C2710 1.378 . S
C2712 C2713 1.367 . S
C2713 C2712 1.367 . S
C2713 C2715 1.433 . S
C2714 C2710 1.350 . S
C2714 C2711 1.463 . S
C2714 N2718 1.427 . S
C2715 H2705 0.929 . S
C2715 C2713 1.433 . S
C2715 N2718 1.384 . S
C2716 H2707 0.929 . S
C2716 C2708 1.378 . S
C2716 C2711 1.350 . S
C2717 H2704 0.929 . S
C2717 C2709 1.433 . S
C2717 N2719 1.384 . S
N2718 C2714 1.427 . S
N2718 C2715 1.384 . S
N2719 C2711 1.427 . S
N2719 C2717 1.384 . S
H2720 C2726 0.930 . S
H2721 C2730 0.930 . S
H2722 C2735 0.929 1_565 S
H2723 C2733 0.929 1_545 S
H2724 C2728 0.929 . S
H2725 C2734 0.929 . S
C2726 H2720 0.930 . S
C2726 C2727 1.367 . S
C2726 C2734 1.378 . S
C2727 C2726 1.367 . S
C2727 C2735 1.433 . S
C2728 H2724 0.929 . S
C2728 C2730 1.378 . S
C2728 C2732 1.350 . S
C2729 C2732 1.463 1_545 S
C2729 C2734 1.350 . S
C2729 N2737 1.427 1_545 S
C2730 H2721 0.930 . S
C2730 C2728 1.378 . S
C2730 C2731 1.367 . S
C2731 C2730 1.367 . S
C2731 C2733 1.433 . S
C2732 C2728 1.350 . S
C2732 C2729 1.463 1_565 S
C2732 N2736 1.427 1_565 S
C2733 H2723 0.929 1_565 S
C2733 C2731 1.433 . S
C2733 N2736 1.384 1_565 S
C2734 H2725 0.929 . S
C2734 C2726 1.378 . S
C2734 C2729 1.350 . S
C2735 H2722 0.929 1_545 S
C2735 C2727 1.433 . S
C2735 N2737 1.384 1_545 S
N2736 C2732 1.427 1_545 S
N2736 C2733 1.384 1_545 S
N2737 C2729 1.427 1_565 S
N2737 C2735 1.384 1_565 S
H2738 C2744 0.930 . S
H2739 C2748 0.930 . S
H2740 C2753 0.929 . S
H2741 C2751 0.929 . S
H2742 C2746 0.929 . S
H2743 C2752 0.929 . S
C2744 H2738 0.930 . S
C2744 C2745 1.367 . S
C2744 C2752 1.378 . S
C2745 C2744 1.367 . S
C2745 C2753 1.433 . S
C2746 H2742 0.929 . S
C2746 C2748 1.378 . S
C2746 C2750 1.350 . S
C2747 C2750 1.463 . S
C2747 C2752 1.350 . S
C2747 N2755 1.427 . S
C2748 H2739 0.930 . S
C2748 C2746 1.378 . S
C2748 C2749 1.367 . S
C2749 C2748 1.367 . S
C2749 C2751 1.433 . S
C2750 C2746 1.350 . S
C2750 C2747 1.463 . S
C2750 N2754 1.427 . S
C2751 H2741 0.929 . S
C2751 C2749 1.433 . S
C2751 N2754 1.384 . S
C2752 H2743 0.929 . S
C2752 C2744 1.378 . S
C2752 C2747 1.350 . S
C2753 H2740 0.929 . S
C2753 C2745 1.433 . S
C2753 N2755 1.384 . S
N2754 C2750 1.427 . S
N2754 C2751 1.384 . S
N2755 C2747 1.427 . S
N2755 C2753 1.384 . S
H2756 C2762 0.917 1_565 S
H2757 C2766 0.917 1_545 S
H2758 C2771 0.929 . S
H2759 C2769 0.929 . S
H2760 C2764 0.929 . S
H2761 C2770 0.929 . S
C2762 H2756 0.917 1_545 S
C2762 C2763 1.367 . S
C2762 C2770 1.378 1_545 S
C2763 C2762 1.367 . S
C2763 C2771 1.433 . S
C2764 H2760 0.929 . S
C2764 C2766 1.378 1_545 S
C2764 C2768 1.350 1_545 S
C2765 C2768 1.463 1_545 S
C2765 C2770 1.350 1_545 S
C2765 N2773 1.427 . S
C2766 H2757 0.917 1_565 S
C2766 C2764 1.378 1_565 S
C2766 C2767 1.367 . S
C2767 C2766 1.367 . S
C2767 C2769 1.433 . S
C2768 C2764 1.350 1_565 S
C2768 C2765 1.463 1_565 S
C2768 N2772 1.427 . S
C2769 H2759 0.929 . S
C2769 C2767 1.433 . S
C2769 N2772 1.384 . S
C2770 H2761 0.929 . S
C2770 C2762 1.378 1_565 S
C2770 C2765 1.350 1_565 S
C2771 H2758 0.929 . S
C2771 C2763 1.433 . S
C2771 N2773 1.384 . S
N2772 C2768 1.427 . S
N2772 C2769 1.384 . S
N2773 C2765 1.427 . S
N2773 C2771 1.384 . S
H2774 C2780 0.930 . S
H2775 C2784 0.930 . S
H2776 C2789 0.929 . S
H2777 C2787 0.929 . S
H2778 C2782 0.929 . S
H2779 C2788 0.929 . S
C2780 H2774 0.930 . S
C2780 C2781 1.367 . S
C2780 C2788 1.378 . S
C2781 C2780 1.367 . S
C2781 C2789 1.433 . S
C2782 H2778 0.929 . S
C2782 C2784 1.378 . S
C2782 C2786 1.350 . S
C2783 C2786 1.463 1_556 S
C2783 C2788 1.350 . S
C2783 N2791 1.427 . S
C2784 H2775 0.930 . S
C2784 C2782 1.378 . S
C2784 C2785 1.367 . S
C2785 C2784 1.367 . S
C2785 C2787 1.433 . S
C2786 C2782 1.350 . S
C2786 C2783 1.463 1_554 S
C2786 N2790 1.427 . S
C2787 H2777 0.929 . S
C2787 C2785 1.433 . S
C2787 N2790 1.384 . S
C2788 H2779 0.929 . S
C2788 C2780 1.378 . S
C2788 C2783 1.350 . S
C2789 H2776 0.929 . S
C2789 C2781 1.433 . S
C2789 N2791 1.384 . S
N2790 C2786 1.427 . S
N2790 C2787 1.384 . S
N2791 C2783 1.427 . S
N2791 C2789 1.384 . S
H2792 C2798 0.930 . S
H2793 C2802 0.930 . S
H2794 C2807 0.929 1_545 S
H2795 C2805 0.929 1_565 S
H2796 C2800 0.929 . S
H2797 C2806 0.929 . S
C2798 H2792 0.930 . S
C2798 C2799 1.367 . S
C2798 C2806 1.378 . S
C2799 C2798 1.367 . S
C2799 C2807 1.433 . S
C2800 H2796 0.929 . S
C2800 C2802 1.378 . S
C2800 C2804 1.350 . S
C2801 C2804 1.463 1_565 S
C2801 C2806 1.350 . S
C2801 N2809 1.427 1_565 S
C2802 H2793 0.930 . S
C2802 C2800 1.378 . S
C2802 C2803 1.367 . S
C2803 C2802 1.367 . S
C2803 C2805 1.433 . S
C2804 C2800 1.350 . S
C2804 C2801 1.463 1_545 S
C2804 N2808 1.427 1_545 S
C2805 H2795 0.929 1_545 S
C2805 C2803 1.433 . S
C2805 N2808 1.384 1_545 S
C2806 H2797 0.929 . S
C2806 C2798 1.378 . S
C2806 C2801 1.350 . S
C2807 H2794 0.929 1_565 S
C2807 C2799 1.433 . S
C2807 N2809 1.384 1_565 S
N2808 C2804 1.427 1_565 S
N2808 C2805 1.384 1_565 S
N2809 C2801 1.427 1_545 S
N2809 C2807 1.384 1_545 S
H2810 C2816 0.930 . S
H2811 C2820 0.930 . S
H2812 C2825 0.929 . S
H2813 C2823 0.929 . S
H2814 C2818 0.929 . S
H2815 C2824 0.929 . S
C2816 H2810 0.930 . S
C2816 C2817 1.367 . S
C2816 C2824 1.378 . S
C2817 C2816 1.367 . S
C2817 C2825 1.433 . S
C2818 H2814 0.929 . S
C2818 C2820 1.378 . S
C2818 C2822 1.350 . S
C2819 C2822 1.463 . S
C2819 C2824 1.350 . S
C2819 N2827 1.427 . S
C2820 H2811 0.930 . S
C2820 C2818 1.378 . S
C2820 C2821 1.367 . S
C2821 C2820 1.367 . S
C2821 C2823 1.433 . S
C2822 C2818 1.350 . S
C2822 C2819 1.463 . S
C2822 N2826 1.427 . S
C2823 H2813 0.929 . S
C2823 C2821 1.433 . S
C2823 N2826 1.384 . S
C2824 H2815 0.929 . S
C2824 C2816 1.378 . S
C2824 C2819 1.350 . S
C2825 H2812 0.929 . S
C2825 C2817 1.433 . S
C2825 N2827 1.384 . S
N2826 C2822 1.427 . S
N2826 C2823 1.384 . S
N2827 C2819 1.427 . S
N2827 C2825 1.384 . S
H2828 C2834 0.930 . S
H2829 C2838 0.930 . S
H2830 C2843 0.928 . S
H2831 C2841 0.928 . S
H2832 C2836 0.929 . S
H2833 C2842 0.929 . S
C2834 H2828 0.930 . S
C2834 C2835 1.367 . S
C2834 C2842 1.378 . S
C2835 C2834 1.367 . S
C2835 C2843 1.433 . S
C2836 H2832 0.929 . S
C2836 C2838 1.378 . S
C2836 C2840 1.350 . S
C2837 C2840 1.463 1_565 S
C2837 C2842 1.350 . S
C2837 N2845 1.427 1_565 S
C2838 H2829 0.930 . S
C2838 C2836 1.378 . S
C2838 C2839 1.367 . S
C2839 C2838 1.367 . S
C2839 C2841 1.433 . S
C2840 C2836 1.350 . S
C2840 C2837 1.463 1_545 S
C2840 N2844 1.427 1_545 S
C2841 H2831 0.928 . S
C2841 C2839 1.433 . S
C2841 N2844 1.384 1_545 S
C2842 H2833 0.929 . S
C2842 C2834 1.378 . S
C2842 C2837 1.350 . S
C2843 H2830 0.928 . S
C2843 C2835 1.433 . S
C2843 N2845 1.384 1_565 S
N2844 C2840 1.427 1_565 S
N2844 C2841 1.384 1_565 S
N2845 C2837 1.427 1_545 S
N2845 C2843 1.384 1_545 S
H2846 C2852 0.930 . S
H2847 C2856 0.930 . S
H2848 C2861 0.929 . S
H2849 C2859 0.929 . S
H2850 C2854 0.929 . S
H2851 C2860 0.929 . S
C2852 H2846 0.930 . S
C2852 C2853 1.367 . S
C2852 C2860 1.378 . S
C2853 C2852 1.367 . S
C2853 C2861 1.433 . S
C2854 H2850 0.929 . S
C2854 C2856 1.378 . S
C2854 C2858 1.350 . S
C2855 C2858 1.463 1_554 S
C2855 C2860 1.350 . S
C2855 N2863 1.427 . S
C2856 H2847 0.930 . S
C2856 C2854 1.378 . S
C2856 C2857 1.367 . S
C2857 C2856 1.367 . S
C2857 C2859 1.433 . S
C2858 C2854 1.350 . S
C2858 C2855 1.463 1_556 S
C2858 N2862 1.427 . S
C2859 H2849 0.929 . S
C2859 C2857 1.433 . S
C2859 N2862 1.384 . S
C2860 H2851 0.929 . S
C2860 C2852 1.378 . S
C2860 C2855 1.350 . S
C2861 H2848 0.929 . S
C2861 C2853 1.433 . S
C2861 N2863 1.384 . S
N2862 C2858 1.427 . S
N2862 C2859 1.384 . S
N2863 C2855 1.427 . S
N2863 C2861 1.384 . S
H2864 C2870 0.930 . S
H2865 C2874 0.930 . S
H2866 C2879 0.929 . S
H2867 C2877 0.929 . S
H2868 C2872 0.929 . S
H2869 C2878 0.929 . S
C2870 H2864 0.930 . S
C2870 C2871 1.367 . S
C2870 C2878 1.378 . S
C2871 C2870 1.367 . S
C2871 C2879 1.433 . S
C2872 H2868 0.929 . S
C2872 C2874 1.378 . S
C2872 C2876 1.350 . S
C2873 C2876 1.463 . S
C2873 C2878 1.350 . S
C2873 N2881 1.427 . S
C2874 H2865 0.930 . S
C2874 C2872 1.378 . S
C2874 C2875 1.367 . S
C2875 C2874 1.367 . S
C2875 C2877 1.433 . S
C2876 C2872 1.350 . S
C2876 C2873 1.463 . S
C2876 N2880 1.427 . S
C2877 H2867 0.929 . S
C2877 C2875 1.433 . S
C2877 N2880 1.384 . S
C2878 H2869 0.929 . S
C2878 C2870 1.378 . S
C2878 C2873 1.350 . S
C2879 H2866 0.929 . S
C2879 C2871 1.433 . S
C2879 N2881 1.384 . S
N2880 C2876 1.427 . S
N2880 C2877 1.384 . S
N2881 C2873 1.427 . S
N2881 C2879 1.384 . S
H2882 C2888 0.930 . S
H2883 C2892 0.930 . S
H2884 C2897 0.929 . S
H2885 C2895 0.929 . S
H2886 C2890 0.929 . S
H2887 C2896 0.929 . S
C2888 H2882 0.930 . S
C2888 C2889 1.367 . S
C2888 C2896 1.378 . S
C2889 C2888 1.367 . S
C2889 C2897 1.433 . S
C2890 H2886 0.929 . S
C2890 C2892 1.378 . S
C2890 C2894 1.350 . S
C2891 C2894 1.463 1_556 S
C2891 C2896 1.350 . S
C2891 N2899 1.427 . S
C2892 H2883 0.930 . S
C2892 C2890 1.378 . S
C2892 C2893 1.367 . S
C2893 C2892 1.367 . S
C2893 C2895 1.433 . S
C2894 C2890 1.350 . S
C2894 C2891 1.463 1_554 S
C2894 N2898 1.427 . S
C2895 H2885 0.929 . S
C2895 C2893 1.433 . S
C2895 N2898 1.384 . S
C2896 H2887 0.929 . S
C2896 C2888 1.378 . S
C2896 C2891 1.350 . S
C2897 H2884 0.929 . S
C2897 C2889 1.433 . S
C2897 N2899 1.384 . S
N2898 C2894 1.427 . S
N2898 C2895 1.384 . S
N2899 C2891 1.427 . S
N2899 C2897 1.384 . S
H2900 C2906 0.930 . S
H2901 C2910 0.930 . S
H2902 C2915 0.929 . S
H2903 C2913 0.929 . S
H2904 C2908 0.929 . S
H2905 C2914 0.929 . S
C2906 H2900 0.930 . S
C2906 C2907 1.367 . S
C2906 C2914 1.378 . S
C2907 C2906 1.367 . S
C2907 C2915 1.433 . S
C2908 H2904 0.929 . S
C2908 C2910 1.378 . S
C2908 C2912 1.350 . S
C2909 C2912 1.463 . S
C2909 C2914 1.350 . S
C2909 N2917 1.427 . S
C2910 H2901 0.930 . S
C2910 C2908 1.378 . S
C2910 C2911 1.367 . S
C2911 C2910 1.367 . S
C2911 C2913 1.433 . S
C2912 C2908 1.350 . S
C2912 C2909 1.463 . S
C2912 N2916 1.427 . S
C2913 H2903 0.929 . S
C2913 C2911 1.433 . S
C2913 N2916 1.384 . S
C2914 H2905 0.929 . S
C2914 C2906 1.378 . S
C2914 C2909 1.350 . S
C2915 H2902 0.929 . S
C2915 C2907 1.433 . S
C2915 N2917 1.384 . S
N2916 C2912 1.427 . S
N2916 C2913 1.384 . S
N2917 C2909 1.427 . S
N2917 C2915 1.384 . S
H2918 C2924 0.930 . S
H2919 C2928 0.930 . S
H2920 C2933 0.929 . S
H2921 C2931 0.929 . S
H2922 C2926 0.929 . S
H2923 C2932 0.929 . S
C2924 H2918 0.930 . S
C2924 C2925 1.367 . S
C2924 C2932 1.378 . S
C2925 C2924 1.367 . S
C2925 C2933 1.433 . S
C2926 H2922 0.929 . S
C2926 C2928 1.378 . S
C2926 C2930 1.350 . S
C2927 C2930 1.463 . S
C2927 C2932 1.350 . S
C2927 N2935 1.427 . S
C2928 H2919 0.930 . S
C2928 C2926 1.378 . S
C2928 C2929 1.367 . S
C2929 C2928 1.367 . S
C2929 C2931 1.433 . S
C2930 C2926 1.350 . S
C2930 C2927 1.463 . S
C2930 N2934 1.427 . S
C2931 H2921 0.929 . S
C2931 C2929 1.433 . S
C2931 N2934 1.384 . S
C2932 H2923 0.929 . S
C2932 C2924 1.378 . S
C2932 C2927 1.350 . S
C2933 H2920 0.929 . S
C2933 C2925 1.433 . S
C2933 N2935 1.384 . S
N2934 C2930 1.427 . S
N2934 C2931 1.384 . S
N2935 C2927 1.427 . S
N2935 C2933 1.384 . S
H2936 C2942 0.930 . S
H2937 C2946 0.930 . S
H2938 C2951 0.929 . S
H2939 C2949 0.929 . S
H2940 C2944 0.929 . S
H2941 C2950 0.929 . S
C2942 H2936 0.930 . S
C2942 C2943 1.367 . S
C2942 C2950 1.378 . S
C2943 C2942 1.367 . S
C2943 C2951 1.433 . S
C2944 H2940 0.929 . S
C2944 C2946 1.378 . S
C2944 C2948 1.350 . S
C2945 C2948 1.463 . S
C2945 C2950 1.350 . S
C2945 N2953 1.427 . S
C2946 H2937 0.930 . S
C2946 C2944 1.378 . S
C2946 C2947 1.367 . S
C2947 C2946 1.367 . S
C2947 C2949 1.433 . S
C2948 C2944 1.350 . S
C2948 C2945 1.463 . S
C2948 N2952 1.427 . S
C2949 H2939 0.929 . S
C2949 C2947 1.433 . S
C2949 N2952 1.384 . S
C2950 H2941 0.929 . S
C2950 C2942 1.378 . S
C2950 C2945 1.350 . S
C2951 H2938 0.929 . S
C2951 C2943 1.433 . S
C2951 N2953 1.384 . S
N2952 C2948 1.427 . S
N2952 C2949 1.384 . S
N2953 C2945 1.427 . S
N2953 C2951 1.384 . S
H2954 C2960 0.930 . S
H2955 C2964 0.930 . S
H2956 C2969 0.929 . S
H2957 C2967 0.929 . S
H2958 C2962 0.929 . S
H2959 C2968 0.929 . S
C2960 H2954 0.930 . S
C2960 C2961 1.367 . S
C2960 C2968 1.378 . S
C2961 C2960 1.367 . S
C2961 C2969 1.433 . S
C2962 H2958 0.929 . S
C2962 C2964 1.378 . S
C2962 C2966 1.350 . S
C2963 C2966 1.463 1_556 S
C2963 C2968 1.350 . S
C2963 N2971 1.427 . S
C2964 H2955 0.930 . S
C2964 C2962 1.378 . S
C2964 C2965 1.367 . S
C2965 C2964 1.367 . S
C2965 C2967 1.433 . S
C2966 C2962 1.350 . S
C2966 C2963 1.463 1_554 S
C2966 N2970 1.427 . S
C2967 H2957 0.929 . S
C2967 C2965 1.433 . S
C2967 N2970 1.384 . S
C2968 H2959 0.929 . S
C2968 C2960 1.378 . S
C2968 C2963 1.350 . S
C2969 H2956 0.929 . S
C2969 C2961 1.433 . S
C2969 N2971 1.384 . S
N2970 C2966 1.427 . S
N2970 C2967 1.384 . S
N2971 C2963 1.427 . S
N2971 C2969 1.384 . S
H2972 C2978 0.930 . S
H2973 C2982 0.930 . S
H2974 C2987 0.929 . S
H2975 C2985 0.929 . S
H2976 C2980 0.929 . S
H2977 C2986 0.929 . S
C2978 H2972 0.930 . S
C2978 C2979 1.367 . S
C2978 C2986 1.378 . S
C2979 C2978 1.367 . S
C2979 C2987 1.433 . S
C2980 H2976 0.929 . S
C2980 C2982 1.378 . S
C2980 C2984 1.350 . S
C2981 C2984 1.463 . S
C2981 C2986 1.350 . S
C2981 N2989 1.427 . S
C2982 H2973 0.930 . S
C2982 C2980 1.378 . S
C2982 C2983 1.367 . S
C2983 C2982 1.367 . S
C2983 C2985 1.433 . S
C2984 C2980 1.350 . S
C2984 C2981 1.463 . S
C2984 N2988 1.427 . S
C2985 H2975 0.929 . S
C2985 C2983 1.433 . S
C2985 N2988 1.384 . S
C2986 H2977 0.929 . S
C2986 C2978 1.378 . S
C2986 C2981 1.350 . S
C2987 H2974 0.929 . S
C2987 C2979 1.433 . S
C2987 N2989 1.384 . S
N2988 C2984 1.427 . S
N2988 C2985 1.384 . S
N2989 C2981 1.427 . S
N2989 C2987 1.384 . S
H2990 C2996 0.930 . S
H2991 C3000 0.930 . S
H2992 C3005 0.929 . S
H2993 C3003 0.929 . S
H2994 C2998 0.929 . S
H2995 C3004 0.929 . S
C2996 H2990 0.930 . S
C2996 C2997 1.367 . S
C2996 C3004 1.378 . S
C2997 C2996 1.367 . S
C2997 C3005 1.433 . S
C2998 H2994 0.929 . S
C2998 C3000 1.378 . S
C2998 C3002 1.350 . S
C2999 C3002 1.463 . S
C2999 C3004 1.350 . S
C2999 N3007 1.427 . S
C3000 H2991 0.930 . S
C3000 C2998 1.378 . S
C3000 C3001 1.367 . S
C3001 C3000 1.367 . S
C3001 C3003 1.433 . S
C3002 C2998 1.350 . S
C3002 C2999 1.463 . S
C3002 N3006 1.427 . S
C3003 H2993 0.929 . S
C3003 C3001 1.433 . S
C3003 N3006 1.384 . S
C3004 H2995 0.929 . S
C3004 C2996 1.378 . S
C3004 C2999 1.350 . S
C3005 H2992 0.929 . S
C3005 C2997 1.433 . S
C3005 N3007 1.384 . S
N3006 C3002 1.427 . S
N3006 C3003 1.384 . S
N3007 C2999 1.427 . S
N3007 C3005 1.384 . S
C1287 C10 0.648 . S
C1291 C1095 0.531 . S
C1305 C50 0.620 . S
C1309 C335 0.504 . S
C1323 C90 0.631 . S
C1327 C1015 0.515 . S
C1341 C415 0.544 . S
C1345 C130 0.660 . S
C1359 C170 0.644 . S
C1363 C1175 0.528 . S
C1377 C575 0.526 . S
C1381 C210 0.643 . S
C1395 C1255 0.539 . S
C1399 C250 0.654 . S
C1413 C290 0.620 . S
C1417 C495 0.503 . S
C1431 C339 0.637 . S
C1435 C766 0.520 . S
C1449 C379 0.661 . S
C1453 C6 0.544 . S
C1467 C686 0.504 . S
C1471 C419 0.620 . S
C1485 C86 0.512 . S
C1489 C459 0.629 . S
C1503 C499 0.639 . S
C1507 C846 0.522 . S
C1521 C539 0.663 . S
C1525 C246 0.547 . S
C1539 C579 0.650 . S
C1543 C926 0.535 . S
C1557 C166 0.538 . S
C1561 C619 0.654 . S
C1575 C455 0.513 . S
C1579 C650 0.630 . S
C1593 C975 0.512 . S
C1597 C690 0.628 . S
C1611 C375 0.541 . S
C1615 C730 0.656 . S
C1629 C770 0.665 . S
C1633 C1055 0.549 . S
C1647 C535 0.508 . S
C1651 C810 0.624 . S
C1665 C1215 0.544 . S
C1669 C850 0.659 . S
C1683 C615 0.514 . S
C1687 C890 0.630 . S
C1701 C930 0.663 . S
C1705 C1135 0.547 . S
C1719 C979 0.665 . S
C1723 C126 0.549 . S
C1737 C1019 0.665 . S
C1741 C646 0.549 . S
C1755 C1059 0.622 . S
C1759 C46 0.506 . S
C1773 C1099 0.665 . S
C1777 C726 0.548 . S
C1791 C206 0.532 . S
C1795 C1139 0.649 . S
C1809 C886 0.527 . S
C1813 C1179 0.643 . S
C1827 C1219 0.633 . S
C1831 C286 0.516 . S
C1845 C1259 0.625 . S
C1849 C806 0.510 . S
C1863 C18 1.662 . S
C1867 C738 1.661 . S
C1881 C778 1.648 . S
C1885 C58 1.648 . S
C1899 C98 1.654 . S
C1903 C658 1.655 . S
C1917 C138 1.657 . S
C1921 C698 1.657 . S
C1935 C898 1.663 . S
C1939 C178 1.663 . S
C1953 C218 1.663 . S
C1957 C938 1.663 . S
C1971 C818 1.650 . S
C1975 C258 1.649 . S
C1989 C298 1.651 . S
C1993 C858 1.652 . S
C2007 C1049 1.658 . S
C2011 C329 1.659 . S
C2025 C369 1.652 . S
C2029 C1089 1.651 . S
C2043 C409 1.658 . S
C2047 C969 1.657 . S
C2061 C449 1.663 . S
C2065 C1009 1.663 . S
C2079 C1209 1.659 . S
C2083 C489 1.659 . S
C2097 C1249 1.654 . S
C2101 C529 1.655 . S
C2115 C569 1.650 . S
C2119 C1129 1.650 . S
C2133 C609 1.658 . S
C2137 C1169 1.659 . S
C2151 C15 1.766 . S
C2155 C966 1.766 . S
C2169 C366 1.778 . S
C2173 C55 1.778 . S
C2187 C95 1.772 . S
C2191 C1046 1.772 . S
C2205 C135 1.761 . S
C2209 C446 1.761 . S
C2223 C1126 1.778 . S
C2227 C175 1.778 . S
C2241 C526 1.768 . S
C2245 C215 1.768 . S
C2259 C255 1.774 . S
C2263 C1206 1.774 . S
C2277 C295 1.778 . S
C2281 C606 1.778 . S
C2295 C655 1.763 . S
C2299 C326 1.763 . S
C2313 C735 1.764 . S
C2317 C406 1.764 . S
C2331 C815 1.763 . S
C2335 C486 1.763 . S
C2349 C566 1.758 . S
C2353 C895 1.758 . S
C2367 C695 1.780 . S
C2371 C1006 1.780 . S
C2385 C775 1.775 . S
C2389 C1086 1.775 . S
C2403 C1166 1.773 . S
C2407 C855 1.773 . S
C2421 C1246 1.776 . S
C2425 C935 1.776 . S
C2439 C9 4.466 . S
C2443 C209 4.465 . S
C2457 C249 4.466 . S
C2461 C49 4.463 . S
C2475 C289 4.466 . S
C2479 C89 4.462 . S
C2493 C169 4.466 . S
C2497 C129 4.465 . S
C2511 C338 4.461 . S
C2515 C538 4.465 . S
C2529 C378 4.466 . S
C2533 C578 4.465 . S
C2547 C618 4.466 . S
C2551 C418 4.465 . S
C2565 C458 4.459 . S
C2569 C498 4.461 . S
C2583 C649 4.461 . S
C2587 C849 4.459 . S
C2601 C689 4.459 . S
C2605 C889 4.461 . S
C2619 C729 4.460 . S
C2623 C929 4.459 . S
C2637 C809 4.461 . S
C2641 C769 4.459 . S
C2655 C978 4.463 . S
C2659 C1178 4.459 . S
C2673 C1018 4.466 . S
C2677 C1218 4.466 . S
C2691 C1258 4.463 . S
C2695 C1058 4.466 . S
C2709 C1098 4.465 . S
C2713 C1138 4.466 . S
C2727 C19 3.949 . S
C2731 C179 3.949 . S
C2745 C59 3.948 . S
C2749 C219 3.950 . S
C2763 C259 3.949 . S
C2767 C99 3.950 . S
C2781 C299 3.948 . S
C2785 C139 3.950 . S
C2799 C330 3.948 . S
C2803 C490 3.949 . S
C2817 C530 3.948 . S
C2821 C370 3.950 . S
C2835 C570 3.948 . S
C2839 C410 3.949 . S
C2853 C610 3.950 . S
C2857 C450 3.948 . S
C2871 C659 3.949 . S
C2875 C819 3.949 . S
C2889 C859 3.948 . S
C2893 C699 3.950 . S
C2907 C739 3.949 . S
C2911 C899 3.948 . S
C2925 C939 3.948 . S
C2929 C779 3.950 . S
C2943 C1130 3.951 . S
C2947 C970 3.949 . S
C2961 C1010 3.949 . S
C2965 C1170 3.951 . S
C2979 C1050 3.950 . S
C2983 C1210 3.950 . S
C2997 C1090 3.948 . S
C3001 C1250 3.949 . S
