# Generated by pormake.
# Topology svy, (7)-cn, num edge types: 1
# Building blocks:
#     Node 0, Type 0, BuildingBlock: HICVOG_clean_sbu_0, # of connection points: 7
#     Node 1, Type 0, BuildingBlock: HICVOG_clean_sbu_0, # of connection points: 7
#     Node 2, Type 0, BuildingBlock: HICVOG_clean_sbu_0, # of connection points: 7
#     Node 3, Type 0, BuildingBlock: HICVOG_clean_sbu_0, # of connection points: 7
#     Node 4, Type 0, BuildingBlock: HICVOG_clean_sbu_0, # of connection points: 7
#     Node 5, Type 0, BuildingBlock: HICVOG_clean_sbu_0, # of connection points: 7
#     Node 6, Type 0, BuildingBlock: HICVOG_clean_sbu_0, # of connection points: 7
#     Node 7, Type 0, BuildingBlock: HICVOG_clean_sbu_0, # of connection points: 7
#     Node 8, Type 0, BuildingBlock: HICVOG_clean_sbu_0, # of connection points: 7
#     Node 9, Type 0, BuildingBlock: HICVOG_clean_sbu_0, # of connection points: 7
#     Node 10, Type 0, BuildingBlock: HICVOG_clean_sbu_0, # of connection points: 7
#     Node 11, Type 0, BuildingBlock: HICVOG_clean_sbu_0, # of connection points: 7
#     Node 12, Type 0, BuildingBlock: HICVOG_clean_sbu_0, # of connection points: 7
#     Node 13, Type 0, BuildingBlock: HICVOG_clean_sbu_0, # of connection points: 7
#     Node 14, Type 0, BuildingBlock: HICVOG_clean_sbu_0, # of connection points: 7
#     Node 15, Type 0, BuildingBlock: HICVOG_clean_sbu_0, # of connection points: 7
#     Node 16, Type 0, BuildingBlock: HICVOG_clean_sbu_0, # of connection points: 7
#     Node 17, Type 0, BuildingBlock: HICVOG_clean_sbu_0, # of connection points: 7
#     Node 18, Type 0, BuildingBlock: HICVOG_clean_sbu_0, # of connection points: 7
#     Node 19, Type 0, BuildingBlock: HICVOG_clean_sbu_0, # of connection points: 7
#     Node 20, Type 0, BuildingBlock: HICVOG_clean_sbu_0, # of connection points: 7
#     Node 21, Type 0, BuildingBlock: HICVOG_clean_sbu_0, # of connection points: 7
#     Node 22, Type 0, BuildingBlock: HICVOG_clean_sbu_0, # of connection points: 7
#     Node 23, Type 0, BuildingBlock: HICVOG_clean_sbu_0, # of connection points: 7
#     Node 24, Type 0, BuildingBlock: HICVOG_clean_sbu_0, # of connection points: 7
#     Node 25, Type 0, BuildingBlock: HICVOG_clean_sbu_0, # of connection points: 7
#     Node 26, Type 0, BuildingBlock: HICVOG_clean_sbu_0, # of connection points: 7
#     Node 27, Type 0, BuildingBlock: HICVOG_clean_sbu_0, # of connection points: 7
#     Node 28, Type 0, BuildingBlock: HICVOG_clean_sbu_0, # of connection points: 7
#     Node 29, Type 0, BuildingBlock: HICVOG_clean_sbu_0, # of connection points: 7
#     Node 30, Type 0, BuildingBlock: HICVOG_clean_sbu_0, # of connection points: 7
#     Node 31, Type 0, BuildingBlock: HICVOG_clean_sbu_0, # of connection points: 7
#     Node 32, Type 0, BuildingBlock: HICVOG_clean_sbu_0, # of connection points: 7
#     Node 33, Type 0, BuildingBlock: HICVOG_clean_sbu_0, # of connection points: 7
#     Node 34, Type 0, BuildingBlock: HICVOG_clean_sbu_0, # of connection points: 7
#     Node 35, Type 0, BuildingBlock: HICVOG_clean_sbu_0, # of connection points: 7
#     Node 36, Type 0, BuildingBlock: HICVOG_clean_sbu_0, # of connection points: 7
#     Node 37, Type 0, BuildingBlock: HICVOG_clean_sbu_0, # of connection points: 7
#     Node 38, Type 0, BuildingBlock: HICVOG_clean_sbu_0, # of connection points: 7
#     Node 39, Type 0, BuildingBlock: HICVOG_clean_sbu_0, # of connection points: 7
#     Node 40, Type 0, BuildingBlock: HICVOG_clean_sbu_0, # of connection points: 7
#     Node 41, Type 0, BuildingBlock: HICVOG_clean_sbu_0, # of connection points: 7
#     Node 42, Type 0, BuildingBlock: HICVOG_clean_sbu_0, # of connection points: 7
#     Node 43, Type 0, BuildingBlock: HICVOG_clean_sbu_0, # of connection points: 7
#     Node 44, Type 0, BuildingBlock: HICVOG_clean_sbu_0, # of connection points: 7
#     Node 45, Type 0, BuildingBlock: HICVOG_clean_sbu_0, # of connection points: 7
#     Node 46, Type 0, BuildingBlock: HICVOG_clean_sbu_0, # of connection points: 7
#     Node 47, Type 0, BuildingBlock: HICVOG_clean_sbu_0, # of connection points: 7
#     Edge 48, Type (0, 0), None
#     Edge 49, Type (0, 0), None
#     Edge 50, Type (0, 0), None
#     Edge 51, Type (0, 0), None
#     Edge 52, Type (0, 0), None
#     Edge 53, Type (0, 0), None
#     Edge 54, Type (0, 0), None
#     Edge 55, Type (0, 0), None
#     Edge 56, Type (0, 0), None
#     Edge 57, Type (0, 0), None
#     Edge 58, Type (0, 0), None
#     Edge 59, Type (0, 0), None
#     Edge 60, Type (0, 0), None
#     Edge 61, Type (0, 0), None
#     Edge 62, Type (0, 0), None
#     Edge 63, Type (0, 0), None
#     Edge 64, Type (0, 0), None
#     Edge 65, Type (0, 0), None
#     Edge 66, Type (0, 0), None
#     Edge 67, Type (0, 0), None
#     Edge 68, Type (0, 0), None
#     Edge 69, Type (0, 0), None
#     Edge 70, Type (0, 0), None
#     Edge 71, Type (0, 0), None
#     Edge 72, Type (0, 0), None
#     Edge 73, Type (0, 0), None
#     Edge 74, Type (0, 0), None
#     Edge 75, Type (0, 0), None
#     Edge 76, Type (0, 0), None
#     Edge 77, Type (0, 0), None
#     Edge 78, Type (0, 0), None
#     Edge 79, Type (0, 0), None
#     Edge 80, Type (0, 0), None
#     Edge 81, Type (0, 0), None
#     Edge 82, Type (0, 0), None
#     Edge 83, Type (0, 0), None
#     Edge 84, Type (0, 0), None
#     Edge 85, Type (0, 0), None
#     Edge 86, Type (0, 0), None
#     Edge 87, Type (0, 0), None
#     Edge 88, Type (0, 0), None
#     Edge 89, Type (0, 0), None
#     Edge 90, Type (0, 0), None
#     Edge 91, Type (0, 0), None
#     Edge 92, Type (0, 0), None
#     Edge 93, Type (0, 0), None
#     Edge 94, Type (0, 0), None
#     Edge 95, Type (0, 0), None
#     Edge 96, Type (0, 0), None
#     Edge 97, Type (0, 0), None
#     Edge 98, Type (0, 0), None
#     Edge 99, Type (0, 0), None
#     Edge 100, Type (0, 0), None
#     Edge 101, Type (0, 0), None
#     Edge 102, Type (0, 0), None
#     Edge 103, Type (0, 0), None
#     Edge 104, Type (0, 0), None
#     Edge 105, Type (0, 0), None
#     Edge 106, Type (0, 0), None
#     Edge 107, Type (0, 0), None
#     Edge 108, Type (0, 0), None
#     Edge 109, Type (0, 0), None
#     Edge 110, Type (0, 0), None
#     Edge 111, Type (0, 0), None
#     Edge 112, Type (0, 0), None
#     Edge 113, Type (0, 0), None
#     Edge 114, Type (0, 0), None
#     Edge 115, Type (0, 0), None
#     Edge 116, Type (0, 0), None
#     Edge 117, Type (0, 0), None
#     Edge 118, Type (0, 0), None
#     Edge 119, Type (0, 0), None
#     Edge 120, Type (0, 0), None
#     Edge 121, Type (0, 0), None
#     Edge 122, Type (0, 0), None
#     Edge 123, Type (0, 0), None
#     Edge 124, Type (0, 0), None
#     Edge 125, Type (0, 0), None
#     Edge 126, Type (0, 0), None
#     Edge 127, Type (0, 0), None
#     Edge 128, Type (0, 0), None
#     Edge 129, Type (0, 0), None
#     Edge 130, Type (0, 0), None
#     Edge 131, Type (0, 0), None
#     Edge 132, Type (0, 0), None
#     Edge 133, Type (0, 0), None
#     Edge 134, Type (0, 0), None
#     Edge 135, Type (0, 0), None
#     Edge 136, Type (0, 0), None
#     Edge 137, Type (0, 0), None
#     Edge 138, Type (0, 0), None
#     Edge 139, Type (0, 0), None
#     Edge 140, Type (0, 0), None
#     Edge 141, Type (0, 0), None
#     Edge 142, Type (0, 0), None
#     Edge 143, Type (0, 0), None
#     Edge 144, Type (0, 0), None
#     Edge 145, Type (0, 0), None
#     Edge 146, Type (0, 0), None
#     Edge 147, Type (0, 0), None
#     Edge 148, Type (0, 0), None
#     Edge 149, Type (0, 0), None
#     Edge 150, Type (0, 0), None
#     Edge 151, Type (0, 0), None
#     Edge 152, Type (0, 0), None
#     Edge 153, Type (0, 0), None
#     Edge 154, Type (0, 0), None
#     Edge 155, Type (0, 0), None
#     Edge 156, Type (0, 0), None
#     Edge 157, Type (0, 0), None
#     Edge 158, Type (0, 0), None
#     Edge 159, Type (0, 0), None
#     Edge 160, Type (0, 0), None
#     Edge 161, Type (0, 0), None
#     Edge 162, Type (0, 0), None
#     Edge 163, Type (0, 0), None
#     Edge 164, Type (0, 0), None
#     Edge 165, Type (0, 0), None
#     Edge 166, Type (0, 0), None
#     Edge 167, Type (0, 0), None
#     Edge 168, Type (0, 0), None
#     Edge 169, Type (0, 0), None
#     Edge 170, Type (0, 0), None
#     Edge 171, Type (0, 0), None
#     Edge 172, Type (0, 0), None
#     Edge 173, Type (0, 0), None
#     Edge 174, Type (0, 0), None
#     Edge 175, Type (0, 0), None
#     Edge 176, Type (0, 0), None
#     Edge 177, Type (0, 0), None
#     Edge 178, Type (0, 0), None
#     Edge 179, Type (0, 0), None
#     Edge 180, Type (0, 0), None
#     Edge 181, Type (0, 0), None
#     Edge 182, Type (0, 0), None
#     Edge 183, Type (0, 0), None
#     Edge 184, Type (0, 0), None
#     Edge 185, Type (0, 0), None
#     Edge 186, Type (0, 0), None
#     Edge 187, Type (0, 0), None
#     Edge 188, Type (0, 0), None
#     Edge 189, Type (0, 0), None
#     Edge 190, Type (0, 0), None
#     Edge 191, Type (0, 0), None
#     Edge 192, Type (0, 0), None
#     Edge 193, Type (0, 0), None
#     Edge 194, Type (0, 0), None
#     Edge 195, Type (0, 0), None
#     Edge 196, Type (0, 0), None
#     Edge 197, Type (0, 0), None
#     Edge 198, Type (0, 0), None
#     Edge 199, Type (0, 0), None
#     Edge 200, Type (0, 0), None
#     Edge 201, Type (0, 0), None
#     Edge 202, Type (0, 0), None
#     Edge 203, Type (0, 0), None
#     Edge 204, Type (0, 0), None
#     Edge 205, Type (0, 0), None
#     Edge 206, Type (0, 0), None
#     Edge 207, Type (0, 0), None
#     Edge 208, Type (0, 0), None
#     Edge 209, Type (0, 0), None
#     Edge 210, Type (0, 0), None
#     Edge 211, Type (0, 0), None
#     Edge 212, Type (0, 0), None
#     Edge 213, Type (0, 0), None
#     Edge 214, Type (0, 0), None
#     Edge 215, Type (0, 0), None
# Relax obj value: 0.381
# Max RMSD: 0.298
# Mean RMSD: 0.298
data_MOF--net-svy--node1-HICVOG_clean_sbu_0--edge1-none
_symmetry_space_group_name_H-M    P1
_symmetry_Int_Tables_number       1
_symmetry_cell_setting            triclinic
loop_
_symmetry_equiv_pos_as_xyz
'x, y, z'
_cell_length_a     30.233732
_cell_length_b     30.23501
_cell_length_c     30.23383
_cell_angle_alpha  89.681385
_cell_angle_beta   90.317058
_cell_angle_gamma 89.680656
loop_
_atom_site_label
_atom_site_type_symbol
_atom_site_fract_x
_atom_site_fract_y
_atom_site_fract_z
_atom_type_partial_charge
Zn0 Zn 0.17537 0.38427 0.29816 0.0
C1 C 0.25032 0.30612 0.22949 0.0
N2 N 0.21327 0.28358 0.23968 0.0
C3 C 0.20747 0.29286 0.28278 0.0
N4 N 0.22304 0.33455 0.28958 0.0
N5 N 0.25304 0.34094 0.25765 0.0
C6 C 0.19424 0.3775 0.16198 0.0
O7 O 0.18066 0.3522 0.19427 0.0
O8 O 0.18414 0.42852 0.35052 0.0
Zn9 Zn 0.25981 0.39775 0.22661 0.0
N10 N 0.11526 0.36319 0.30884 0.0
C11 C 1.04112 0.3885 0.31971 0.0
C12 C 0.08626 0.39607 0.31952 0.0
C13 C 0.09994 0.32238 0.29873 0.0
N14 N 1.02592 0.34792 0.30971 0.0
C15 C 0.05408 0.31452 0.29929 0.0
O16 O 0.22704 0.45137 0.24943 0.0
C17 C 0.188 0.4535 0.23398 0.0
O18 O 0.16171 0.42266 0.2435 0.0
H19 H 0.09714 0.42895 0.3254 0.0
H20 H 0.12262 0.29703 0.28819 0.0
C21 C 0.33913 0.43753 0.19357 0.0
C22 C 0.38235 0.45353 0.19823 0.0
C23 C 0.38408 0.42691 0.27237 0.0
C24 C 0.34177 0.40991 0.26709 0.0
N25 N 0.3203 0.41547 0.22788 0.0
N26 N 0.40334 0.44808 0.2379 0.0
H27 H 0.32081 0.44189 0.16304 0.0
C28 C 0.1674 0.46767 0.34905 0.0
O29 O 0.15221 0.48328 0.31148 0.0
O30 O 0.23273 0.39444 0.16441 0.0
H31 H 0.32554 0.3934 0.29433 0.0
H32 H 1.01828 0.41534 0.32541 0.0
H33 H 0.40161 0.4232 0.30348 0.0
Zn34 Zn 0.64026 0.57497 0.12815 0.0
C35 C 0.53944 0.63449 0.07071 0.0
N36 N 0.52847 0.62675 0.11325 0.0
C37 C 0.55041 0.58883 0.12309 0.0
N38 N 0.58584 0.58654 0.09569 0.0
N39 N 0.5817 0.61882 0.06528 0.0
C40 C 0.70448 0.6977 1.00484 0.0
O41 O 0.71265 0.72205 1.03956 0.0
O42 O 0.63891 0.60615 0.1877 0.0
Zn43 Zn 0.63387 0.66588 0.06335 0.0
N44 N 0.64864 0.51371 0.13145 0.0
C45 C 0.6619 0.45173 0.08574 0.0
C46 C 0.64316 0.49314 0.09199 0.0
C47 C 0.67075 0.49449 0.16578 0.0
N48 N 0.68516 0.43291 0.11934 0.0
C49 C 0.68982 0.45292 0.1594 0.0
O50 O 0.68164 0.66344 0.11316 0.0
C51 C 0.70911 0.63232 0.11877 0.0
O52 O 0.69922 0.59477 0.10342 0.0
H53 H 0.62702 0.51017 0.06474 0.0
H54 H 0.67584 0.51253 0.1962 0.0
C55 C 0.57672 0.74433 0.05034 0.0
C56 C 0.56794 0.79009 0.05384 0.0
C57 C 0.63309 0.79892 0.09629 0.0
C58 C 0.64146 0.75389 0.09313 0.0
N59 N 0.61334 0.72709 0.07033 0.0
N60 N 0.59654 0.81598 0.07673 0.0
H61 H 0.55523 0.72284 1.03157 0.0
C62 C 0.62475 0.64594 0.18703 0.0
O63 O 0.60086 0.65951 0.15339 0.0
O64 O 0.67294 0.66925 1.00625 0.0
H65 H 0.67148 0.74114 0.10757 0.0
H66 H 0.65895 0.43507 0.05429 0.0
H67 H 0.65562 0.82027 0.11395 0.0
Zn68 Zn 0.82331 0.19098 0.21944 0.0
C69 C 0.88072 0.29432 0.27326 0.0
N70 N 0.87276 0.30418 0.23034 0.0
C71 C 0.83564 0.28117 0.22099 0.0
N72 N 0.83405 0.24654 0.24967 0.0
N73 N 0.86604 0.25214 0.28004 0.0
C74 C 0.95262 0.13633 0.34291 0.0
O75 O 0.9795 0.13054 0.30966 0.0
O76 O 0.85286 0.19125 0.15868 0.0
Zn77 Zn 0.9153 0.20272 0.28217 0.0
N78 N 0.76189 0.18124 0.21704 0.0
C79 C 0.69826 0.17042 0.26116 0.0
C80 C 0.74084 0.18654 0.25623 0.0
C81 C 0.74217 0.16152 0.18188 0.0
N82 N 0.67877 0.14976 0.22659 0.0
C83 C 0.69942 0.14501 0.18692 0.0
O84 O 0.91367 0.15557 0.23401 0.0
C85 C 0.88476 0.12603 0.231 0.0
O86 O 0.84681 0.13399 0.24664 0.0
H87 H 0.75794 0.20122 0.28398 0.0
H88 H 0.76027 0.15699 0.15143 0.0
C89 C 0.99102 0.26225 0.28958 0.0
C90 C 1.03586 0.27288 0.28343 0.0
C91 C 0.04636 0.20748 0.24245 0.0
C92 C 1.00214 0.19716 0.24834 0.0
N93 N 0.97497 0.22459 0.27166 0.0
N94 N 0.06222 0.24514 0.26002 0.0
H95 H 0.96934 0.2831 0.30887 0.0
C96 C 0.8915 0.20769 0.15647 0.0
O97 O 0.90527 0.23315 0.18843 0.0
O98 O 0.92127 0.16517 0.33992 0.0
H99 H 0.99063 0.16605 0.23593 0.0
H100 H 0.68107 0.17359 0.29228 0.0
H101 H 0.06806 0.18555 0.22442 0.0
Zn102 Zn 0.44377 1.01173 0.11745 0.0
C103 C 0.54787 0.96364 0.05907 0.0
N104 N 0.55681 0.96887 0.1025 0.0
C105 C 0.53301 1.00514 0.11327 0.0
N106 N 0.49864 1.00788 0.08444 0.0
N107 N 0.50608 0.97926 0.05144 0.0
C108 C 0.37517 0.93003 0.98053 0.0
O109 O 0.35684 0.9192 1.01814 0.0
O110 O 0.44905 0.97878 0.17657 0.0
Zn111 Zn 0.4578 0.93249 1.03609 0.0
N112 N 0.42645 0.07219 0.12213 0.0
C113 C 0.40189 0.1329 0.07829 0.0
C114 C 0.42258 0.09199 0.08187 0.0
C115 C 0.41193 0.09214 0.15969 0.0
N116 N 0.38559 0.15204 0.11517 0.0
C117 C 0.38992 0.13303 0.15595 0.0
O118 O 0.41842 0.91502 0.08789 0.0
C119 C 0.38915 0.94093 0.10228 0.0
O120 O 0.39079 0.98141 0.09126 0.0
H121 H 0.43383 0.07501 0.05256 0.0
H122 H 0.41497 0.07526 0.19124 0.0
C123 C 0.52057 0.85628 1.03599 0.0
C124 C 0.52718 0.81002 1.03609 0.0
C125 C 0.45298 0.79997 1.01395 0.0
C126 C 0.44656 0.84539 1.01379 0.0
N127 N 0.48018 0.87302 1.02494 0.0
N128 N 0.49303 0.78321 1.02505 0.0
H129 H 0.5463 0.87816 0.04707 0.0
C130 C 0.4655 0.93991 0.17445 0.0
O131 O 0.48771 0.92856 0.13928 0.0
O132 O 0.41562 0.94303 0.98073 0.0
H133 H 0.41384 0.85799 1.00793 0.0
H134 H 0.39784 0.14891 0.04642 0.0
H135 H 0.42552 0.77818 1.00827 0.0
Zn136 Zn 0.18433 0.71741 0.29107 0.0
C137 C 0.25874 0.78973 0.36788 0.0
N138 N 0.22243 0.81313 0.35548 0.0
C139 C 0.21735 0.8033 0.31225 0.0
N140 N 0.23364 0.76181 0.30619 0.0
N141 N 0.26115 0.75422 0.34044 0.0
C142 C 0.19371 0.71912 0.43332 0.0
O143 O 0.18396 0.74639 0.40095 0.0
O144 O 0.19447 0.66811 0.24335 0.0
Zn145 Zn 0.25946 0.69676 0.37117 0.0
N146 N 0.13388 0.7496 0.26755 0.0
C147 C 0.08112 0.76139 0.20966 0.0
C148 C 0.11961 0.74149 0.22578 0.0
C149 C 0.10988 0.77552 0.29476 0.0
N150 N 0.05696 0.78723 0.2369 0.0
C151 C 0.07017 0.79443 0.27929 0.0
O152 O 0.2212 0.64876 0.344 0.0
C153 C 0.18091 0.6501 0.35559 0.0
O154 O 0.15817 0.68365 0.34444 0.0
H155 H 0.13716 0.71859 0.20578 0.0
H156 H 0.12105 0.77989 0.32853 0.0
C157 C 0.34237 0.66229 0.40618 0.0
C158 C 0.38052 0.63636 0.4006 0.0
C159 C 0.36691 0.63388 0.32317 0.0
C160 C 0.32868 0.65868 0.32884 0.0
N161 N 0.31694 0.67169 0.37008 0.0
N162 N 0.39157 0.62301 0.35913 0.0
H163 H 0.33183 0.67287 0.43863 0.0
C164 C 0.16076 0.64261 0.23981 0.0
O165 O 0.1279 0.64788 0.26752 0.0
O166 O 0.23091 0.69912 0.43273 0.0
H167 H 0.30752 0.66644 0.30084 0.0
H168 H 0.07017 0.75574 0.17607 0.0
H169 H 0.37662 0.62273 0.29068 0.0
Zn170 Zn 0.95908 0.66348 1.03253 0.0
C171 C 1.0422 0.58843 0.96864 0.0
N172 N 0.06392 0.62607 0.97882 0.0
C173 C 0.05318 0.63328 1.02155 0.0
N174 N 1.01151 0.61697 1.02755 0.0
N175 N 1.00703 0.58585 0.99637 0.0
C176 C 0.96689 0.6535 0.91017 0.0
O177 O 0.9889 0.66389 0.94589 0.0
O178 O 0.92316 0.66812 0.09173 0.0
Zn179 Zn 0.95229 0.57748 0.96392 0.0
N180 N 0.97734 0.72366 1.02049 0.0
C181 C 0.95968 0.79401 0.9884 0.0
C182 C 0.9509 0.74934 0.99381 0.0
C183 C 1.01272 0.7412 1.04133 0.0
N184 N 0.99546 0.81129 1.00865 0.0
C185 C 1.0224 0.78603 1.03474 0.0
O186 O 0.89427 0.59204 0.99343 0.0
C187 C 0.88315 0.63048 0.98098 0.0
O188 O 0.91029 0.66116 0.98626 0.0
H189 H 0.92204 0.73629 0.97766 0.0
H190 H 1.03305 0.72031 0.06249 0.0
C191 C 0.92384 0.49953 0.92123 0.0
C192 C 0.90739 0.45685 0.92598 0.0
C193 C 0.93973 0.45134 0.99767 0.0
C194 C 0.95588 0.49374 0.99314 0.0
N195 N 0.94684 0.51697 0.95556 0.0
N196 N 0.91538 0.43431 0.9643 0.0
H197 H 0.91588 0.51964 0.89251 0.0
C198 C 0.89465 0.69979 0.09492 0.0
O199 O 0.88946 0.7275 0.06183 0.0
O200 O 0.95075 0.61481 0.90685 0.0
H201 H 0.9726 0.50927 1.02062 0.0
H202 H 0.93859 0.81469 0.96785 0.0
H203 H 0.94536 0.43252 1.02772 0.0
Zn204 Zn 0.91659 0.87981 0.31382 0.0
C205 C 0.84085 0.7961 0.37569 0.0
N206 N 0.87907 0.77487 0.36599 0.0
C207 C 0.8867 0.7866 0.32355 0.0
N208 N 0.86988 0.82833 0.31786 0.0
N209 N 0.83811 0.83204 0.3485 0.0
C210 C 0.89772 0.87023 0.44031 0.0
O211 O 0.91082 0.84927 0.40501 0.0
O212 O 0.92053 0.91648 0.25426 0.0
Zn213 Zn 0.82727 0.8865 0.38097 0.0
N214 N 0.97645 0.8589 0.32691 0.0
C215 C 1.04167 0.86854 0.37079 0.0
C216 C 0.99762 0.87806 0.36189 0.0
C217 C 0.99879 0.83143 0.2995 0.0
N218 N 0.06369 0.8409 0.34381 0.0
C219 C 1.04368 0.82226 0.30824 0.0
O220 O 0.84497 0.9454 0.3547 0.0
C221 C 0.8833 0.95544 0.36798 0.0
O222 O 0.91431 0.92876 0.36064 0.0
H223 H 0.98149 0.90175 0.38259 0.0
H224 H 0.98201 0.81784 0.27095 0.0
C225 C 0.74982 0.91933 0.41785 0.0
C226 C 0.70932 0.94032 0.41074 0.0
C227 C 0.70435 0.90802 0.33935 0.0
C228 C 0.74472 0.88729 0.34633 0.0
N229 N 0.76668 0.8942 0.38493 0.0
N230 N 0.68801 0.93442 0.37145 0.0
H231 H 0.76916 0.92537 0.44743 0.0
C232 C 0.95264 0.94387 0.24952 0.0
O233 O 0.98252 0.94657 0.28102 0.0
O234 O 0.85882 0.88641 0.44096 0.0
H235 H 0.76017 0.86894 0.31994 0.0
H236 H 0.05868 0.88388 0.39818 0.0
H237 H 0.68671 0.90425 0.3084 0.0
Zn238 Zn 0.14012 1.00342 0.96277 0.0
C239 C 1.03881 0.95567 1.0224 0.0
N240 N 1.0279 0.96257 0.97954 0.0
C241 C 0.04998 0.99982 0.96887 0.0
N242 N 0.08568 1.00172 0.99637 0.0
N243 N 0.08066 0.97138 1.02857 0.0
C244 C 0.21417 0.91931 0.09536 0.0
O245 O 0.23283 0.90647 0.05857 0.0
O246 O 0.1341 0.96811 0.90474 0.0
Zn247 Zn 0.13266 0.92481 1.03973 0.0
N248 N 0.16091 0.062 0.96039 0.0
C249 C 0.20208 0.10652 1.00979 0.0
C250 C 0.17198 0.07308 1.00249 0.0
C251 C 0.17654 0.08464 0.92482 0.0
N252 N 0.21829 0.12884 0.97466 0.0
C253 C 0.20576 0.11974 0.93238 0.0
O254 O 0.17324 0.90888 0.98659 0.0
C255 C 0.2015 0.93789 0.97744 0.0
O256 O 0.19419 0.9764 0.99152 0.0
H257 H 0.16038 0.05331 1.02997 0.0
H258 H 0.16755 0.07467 0.89172 0.0
C259 C 0.07161 0.85002 0.0481 0.0
C260 C 0.06421 0.80427 0.04979 0.0
C261 C 0.14025 0.79142 0.06229 0.0
C262 C 0.14769 0.8365 0.05931 0.0
N263 N 0.1134 0.86523 0.05236 0.0
N264 N 0.09872 0.7762 0.05719 0.0
H265 H 1.04497 0.87265 1.04061 0.0
C266 C 0.11797 0.9292 0.90781 0.0
O267 O 0.09651 0.9184 0.94373 0.0
O268 O 0.17452 0.93482 0.09428 0.0
H269 H 0.18112 0.84773 0.06002 0.0
H270 H 0.21302 0.11426 1.04295 0.0
H271 H 0.16758 0.76853 0.06597 0.0
Zn272 Zn 0.21943 0.26732 0.39961 0.0
C273 C 0.27326 0.20988 0.29626 0.0
N274 N 0.23033 0.21785 0.28639 0.0
C275 C 0.22104 0.25498 0.3094 0.0
N276 N 0.24968 0.25657 0.34406 0.0
N277 N 0.28003 0.22457 0.33845 0.0
C278 C 0.34287 0.13801 0.45431 0.0
O279 O 0.30963 0.11112 0.46009 0.0
O280 O 0.15867 0.23777 0.39933 0.0
Zn281 Zn 0.28215 0.17533 0.38789 0.0
N282 N 0.21702 0.32874 0.40935 0.0
C283 C 0.26113 0.39238 0.42018 0.0
C284 C 0.25621 0.3498 0.40405 0.0
C285 C 0.18186 0.34845 0.42909 0.0
N286 N 0.22656 0.41185 0.44085 0.0
C287 C 0.1869 0.39119 0.44561 0.0
O288 O 0.23398 0.17697 0.43502 0.0
C289 C 0.23097 0.20587 0.46456 0.0
O290 O 0.24661 0.24382 0.45661 0.0
H291 H 0.28396 0.33271 0.38936 0.0
H292 H 0.15142 0.33034 0.43362 0.0
C293 C 0.28957 0.09961 0.32837 0.0
C294 C 0.28342 0.05478 0.31773 0.0
C295 C 0.24245 1.04427 0.38314 0.0
C296 C 0.24833 0.08848 0.39346 0.0
N297 N 0.27164 0.11565 0.36603 0.0
N298 N 0.26001 1.02842 0.34548 0.0
H299 H 0.30885 0.12129 0.30752 0.0
C300 C 0.15645 0.19914 0.38288 0.0
O301 O 0.18841 0.18537 0.35741 0.0
O302 O 0.33989 0.16936 0.42546 0.0
H303 H 0.23592 0.1 0.42457 0.0
H304 H 0.29224 0.40957 0.41701 0.0
H305 H 0.22441 1.02257 0.40507 0.0
Zn306 Zn 0.51316 0.62671 0.9524 0.0
C307 C 0.45737 0.56907 0.05322 0.0
N308 N 0.46455 0.6118 0.06401 0.0
C309 C 0.5022 0.62195 1.04232 0.0
N310 N 0.50476 0.59425 1.00715 0.0
N311 N 0.47365 0.56305 1.01151 0.0
C312 C 0.39084 0.49574 0.89463 0.0
O313 O 0.36314 0.52885 0.88945 0.0
O314 O 0.47579 0.68377 0.95085 0.0
Zn315 Zn 0.42717 0.55811 0.95907 0.0
N316 N 0.57366 0.63512 0.94701 0.0
C317 C 0.63925 0.59295 0.93982 0.0
C318 C 0.59687 0.59752 0.95601 0.0
C319 C 0.5911 0.66942 0.92397 0.0
N320 N 0.65628 0.6263 0.91545 0.0
C321 C 0.63376 0.66463 0.90747 0.0
O322 O 0.42951 0.60438 0.91029 0.0
C323 C 0.46023 0.60967 0.88319 0.0
O324 O 0.49867 0.59723 0.89435 0.0
H325 H 0.58133 0.57005 0.97274 0.0
H326 H 0.571 0.69815 0.916 0.0
C327 C 0.34942 0.54929 1.01265 0.0
C328 C 0.30458 0.55588 1.02232 0.0
C329 C 0.29664 0.60229 0.95966 0.0
C330 C 0.34131 0.59688 0.95088 0.0
N331 N 0.36698 0.57016 0.9773 0.0
N332 N 0.27934 0.58201 0.99541 0.0
H333 H 0.3703 0.52811 1.03296 0.0
C334 C 0.43709 0.68041 0.96696 0.0
O335 O 0.42671 0.6447 0.98897 0.0
O336 O 0.42251 0.49892 0.92315 0.0
H337 H 0.35438 0.61306 0.92204 0.0
H338 H 0.65804 0.56289 0.94544 0.0
H339 H 0.27597 0.62286 0.93858 0.0
Zn340 Zn 0.87123 0.33116 0.39382 0.0
C341 C 0.8123 0.37321 0.28735 0.0
N342 N 0.85553 0.36815 0.27748 0.0
C343 C 0.86791 0.33185 0.30088 0.0
N344 N 0.84047 0.32944 0.33637 0.0
N345 N 0.80619 0.35695 0.32885 0.0
C346 C 0.73984 0.42992 0.448 0.0
O347 O 0.76752 0.4628 0.44268 0.0
O348 O 0.93277 0.35974 0.39144 0.0
Zn349 Zn 0.79107 0.40629 0.37321 0.0
N350 N 0.87018 0.27368 0.41891 0.0
C351 C 0.82329 0.22376 0.45681 0.0
C352 C 0.82895 0.26197 0.43198 0.0
C353 C 0.90628 0.24825 0.42831 0.0
N354 N 0.85925 0.19909 0.46767 0.0
C355 C 0.90071 0.21012 0.45426 0.0
O356 O 0.84445 0.43246 0.40695 0.0
C357 C 0.85562 0.40971 0.44049 0.0
O358 O 0.84405 0.36942 0.44182 0.0
H359 H 0.80095 0.28313 0.42422 0.0
H360 H 0.93872 0.25878 0.41771 0.0
C361 C 0.79476 0.48068 0.31506 0.0
C362 C 0.77928 0.52038 0.29612 0.0
C363 C 0.70963 0.50942 0.32911 0.0
C364 C 0.72576 0.47096 0.34905 0.0
N365 N 0.76753 0.4567 0.34097 0.0
N366 N 0.73689 0.53358 0.30327 0.0
H367 H 0.82853 0.46952 0.31073 0.0
C368 C 0.93333 0.39695 0.37145 0.0
O369 O 0.90095 0.40668 0.34418 0.0
O370 O 0.74338 0.39619 0.42252 0.0
H371 H 0.70576 0.45343 0.37198 0.0
H372 H 0.79081 0.21408 0.468 0.0
H373 H 0.67604 0.52037 0.33473 0.0
Zn374 Zn 0.6581 0.05455 0.95782 0.0
C375 C 0.58547 0.97743 1.03297 0.0
N376 N 0.62176 0.98811 0.0568 0.0
C377 C 0.62703 1.03153 0.04788 0.0
N378 N 0.61137 1.03916 1.00612 0.0
N379 N 0.58268 1.00624 0.99859 0.0
C380 C 0.65067 0.91615 0.96553 0.0
O381 O 0.66203 0.95135 0.98769 0.0
O382 O 0.64751 0.10991 0.91566 0.0
Zn383 Zn 0.57885 0.97315 0.94377 0.0
N384 N 0.71756 0.06575 0.98017 0.0
C385 C 0.79061 0.07663 0.95292 0.0
C386 C 0.74519 0.07681 0.94652 0.0
C387 C 0.73431 0.05474 1.02056 0.0
N388 N 0.80738 0.06557 0.99297 0.0
C389 C 0.78058 0.0546 1.02715 0.0
O390 O 0.60921 0.99931 0.8908 0.0
C391 C 0.6497 0.98832 0.88918 0.0
O392 O 0.6756 1.00275 0.91843 0.0
H393 H 0.73256 0.08261 0.91379 0.0
H394 H 0.71244 1.0437 0.04632 0.0
C395 C 0.49845 0.93092 0.91193 0.0
C396 C 0.45757 0.93465 0.8899 0.0
C397 C 0.45771 1.01233 0.90177 0.0
C398 C 0.49861 1.00876 0.92249 0.0
N399 N 0.51841 0.9685 0.92639 0.0
N400 N 0.43857 0.97543 0.8855 0.0
H401 H 0.51531 0.89937 0.91502 0.0
C402 C 0.66049 0.1101 0.8752 0.0
O403 O 0.67123 0.07249 0.85683 0.0
O404 O 0.61179 0.91403 0.9491 0.0
H405 H 0.51559 1.03807 0.9337 0.0
H406 H 0.81239 0.08225 0.92543 0.0
H407 H 0.44172 1.04419 0.89767 0.0
Zn408 Zn 0.29816 0.9153 0.20633 0.0
C409 C 0.22954 0.84035 0.28446 0.0
N410 N 0.23968 0.87739 0.30702 0.0
C411 C 0.28279 0.88318 0.29775 0.0
N412 N 0.28959 0.86762 0.25605 0.0
N413 N 0.25769 0.83761 0.24964 0.0
C414 C 0.16198 0.89638 0.21312 0.0
O415 O 0.19426 0.90997 0.23841 0.0
O416 O 0.35049 0.90651 0.16205 0.0
Zn417 Zn 0.22663 0.83084 0.19283 0.0
N418 N 0.30887 0.97539 0.22742 0.0
C419 C 0.31977 0.04953 0.20214 0.0
C420 C 0.3196 1.0044 0.19456 0.0
C421 C 0.29872 0.9907 0.26823 0.0
N422 N 0.30974 0.06472 0.24271 0.0
C423 C 0.29929 1.03656 0.2761 0.0
O424 O 0.24942 0.86364 0.13922 0.0
C425 C 0.23397 0.90268 0.13711 0.0
O426 O 0.24349 0.92896 0.16797 0.0
H427 H 0.32552 0.99353 0.16169 0.0
H428 H 0.28814 0.96802 0.29356 0.0
C429 C 0.19358 0.75154 0.15301 0.0
C430 C 0.19823 0.70832 0.13701 0.0
C431 C 0.27238 0.70658 0.16361 0.0
C432 C 0.26711 0.74889 0.18062 0.0
N433 N 0.22789 0.77036 0.17507 0.0
N434 N 0.2379 0.68732 0.14245 0.0
H435 H 0.16305 0.76987 0.14865 0.0
C436 C 0.349 0.92329 0.12291 0.0
O437 O 0.31146 0.93855 0.10732 0.0
O438 O 0.16442 0.85789 0.19617 0.0
H439 H 0.29435 0.76511 0.19712 0.0
H440 H 0.3255 0.07237 0.17531 0.0
H441 H 0.30348 0.68905 0.1673 0.0
Zn442 Zn 0.0872 0.62777 0.14025 0.0
C443 C 0.13491 0.56822 1.03888 0.0
N444 N 0.12799 0.61108 1.02797 0.0
C445 C 0.09074 0.62167 0.05007 0.0
N446 N 0.08883 0.59419 0.08578 0.0
N447 N 0.11921 0.56202 0.08073 0.0
C448 C 0.17138 0.49527 0.21421 0.0
O449 O 0.18429 0.53204 0.23286 0.0
O450 O 0.12247 0.68583 0.13419 0.0
Zn451 Zn 0.16585 0.55088 0.13268 0.0
N452 N 1.02869 0.63014 0.16129 0.0
C453 C 0.98456 0.58096 0.20314 0.0
C454 C 1.01781 0.58811 0.17279 0.0
C455 C 1.006 0.66577 0.1767 0.0
N456 N 0.96218 0.61616 0.21913 0.0
C457 C 0.97106 0.65836 0.20615 0.0
O458 O 0.18188 0.60404 0.17322 0.0
C459 C 0.15287 0.61315 0.20149 0.0
O460 O 0.11439 0.59899 0.19422 0.0
H461 H 1.03761 0.56058 0.16133 0.0
H462 H 1.01579 0.69882 0.16734 0.0
C463 C 0.24059 0.54251 0.07155 0.0
C464 C 0.28634 0.54079 0.06412 0.0
C465 C 0.29921 0.52819 0.14013 0.0
C466 C 0.25414 0.53118 0.1476 0.0
N467 N 0.2254 0.53819 0.11334 0.0
N468 N 0.31442 0.53332 0.09861 0.0
H469 H 0.21796 0.55008 1.04493 0.0
C470 C 0.16136 0.6828 0.118 0.0
O471 O 0.17219 0.64691 0.09651 0.0
O472 O 0.15585 0.49636 0.17458 0.0
H473 H 0.24293 0.53043 0.18104 0.0
H474 H 0.97698 0.54788 0.21443 0.0
H475 H 0.32212 0.52446 0.16745 0.0
Zn476 Zn 0.88093 0.76331 0.20417 0.0
C477 C 0.82356 0.70394 0.30408 0.0
N478 N 0.866 0.71154 0.31585 0.0
C479 C 0.87567 0.74974 0.2946 0.0
N480 N 0.8485 0.75245 0.25866 0.0
N481 N 0.81783 0.72071 0.26231 0.0
C482 C 0.74953 0.63789 0.14681 0.0
O483 O 0.78101 0.60798 0.14414 0.0
O484 O 0.94095 0.73179 0.20423 0.0
Zn485 Zn 0.81383 0.67399 0.21085 0.0
N486 N 0.8849 0.8239 0.19645 0.0
C487 C 0.83926 0.88617 0.18254 0.0
C488 C 0.84627 0.84582 0.2033 0.0
C489 C 0.91781 0.84077 0.17132 0.0
N490 N 0.87135 0.90253 0.15615 0.0
C491 C 0.91067 0.88125 0.1503 0.0
O492 O 0.86065 0.67627 0.16192 0.0
C493 C 0.86795 0.70728 0.13524 0.0
O494 O 0.85464 0.74559 0.14528 0.0
H495 H 0.81987 0.83035 0.22164 0.0
H496 H 0.94741 0.82146 0.16531 0.0
C497 C 0.79949 0.59177 0.25915 0.0
C498 C 0.80828 0.5469 0.26836 0.0
C499 C 0.871 0.54902 0.22233 0.0
C500 C 0.86207 0.59305 0.21277 0.0
N501 N 0.82697 0.61416 0.2318 0.0
N502 N 0.84396 0.52696 0.24985 0.0
H503 H 0.77087 0.60851 0.27265 0.0
C504 C 0.94033 0.69291 0.22045 0.0
O505 O 0.90508 0.6798 0.24147 0.0
O506 O 0.75428 0.67002 0.17418 0.0
H507 H 0.88283 0.60923 0.18916 0.0
H508 H 0.80829 0.90378 0.18627 0.0
H509 H 0.8985 0.53206 0.2071 0.0
Zn510 Zn 0.92469 1.0273 0.13383 0.0
C511 C 1.00169 0.96766 0.05043 0.0
N512 N 0.96375 0.97744 1.02848 0.0
C513 C 0.95602 1.01998 1.03943 0.0
N514 N 0.97176 1.02538 0.08166 0.0
N515 N 1.00407 0.99503 0.08588 0.0
C516 C 0.94471 0.9036 0.1247 0.0
O517 O 0.93107 0.93723 0.10085 0.0
O518 O 0.92134 0.08438 0.17293 0.0
Zn519 Zn 1.01563 0.96254 0.14027 0.0
N520 N 0.86349 1.02033 0.1133 0.0
C521 C 0.79166 0.99438 0.13305 0.0
C522 C 0.83669 0.99752 0.14141 0.0
C523 C 0.84625 1.04034 0.0767 0.0
N524 N 0.77461 1.01395 0.09649 0.0
C525 C 0.8005 1.03685 0.06791 0.0
O526 O 0.99578 0.98723 0.19923 0.0
C527 C 0.95824 0.97187 0.20908 0.0
O528 O 0.92713 0.97748 0.18159 0.0
H529 H 0.84944 0.98306 0.17143 0.0
H530 H 0.86775 0.05913 0.05522 0.0
C531 C 0.0961 0.92495 0.17076 0.0
C532 C 0.13767 0.93131 0.18982 0.0
C533 C 0.1389 1.00497 0.16191 0.0
C534 C 0.09747 0.99874 0.14318 0.0
N535 N 0.07689 0.9593 0.14868 0.0
N536 N 0.15771 0.97136 0.18516 0.0
H537 H 0.07806 0.89453 0.17584 0.0
C538 C 0.89288 0.08578 0.20447 0.0
O539 O 0.86851 0.05107 0.21261 0.0
O540 O 0.98448 0.90296 0.13889 0.0
H541 H 0.08045 1.026 0.12704 0.0
H542 H 0.77031 0.9767 0.15557 0.0
H543 H 0.15557 1.03641 0.15895 0.0
Zn544 Zn 0.39381 0.21941 0.25946 0.0
C545 C 0.28736 0.27827 0.21738 0.0
N546 N 0.27746 0.23506 0.22242 0.0
C547 C 0.30087 0.2227 0.25872 0.0
N548 N 0.33635 0.25015 0.26114 0.0
N549 N 0.32885 0.28444 0.23364 0.0
C550 C 0.44808 0.35077 0.16075 0.0
O551 O 0.44281 0.32307 0.12789 0.0
O552 O 0.39147 0.15787 0.23087 0.0
Zn553 Zn 0.37324 0.29955 0.18431 0.0
N554 N 0.41883 0.22048 0.31697 0.0
C555 C 0.45659 0.2674 0.36696 0.0
C556 C 0.43182 0.26173 0.32871 0.0
C557 C 0.42824 0.18438 0.3424 0.0
N558 N 0.46747 0.23144 0.39163 0.0
C559 C 0.45415 0.18997 0.38056 0.0
O560 O 0.407 0.24617 0.15818 0.0
C561 C 0.44054 0.23502 0.18095 0.0
O562 O 0.44184 0.24661 0.22124 0.0
H563 H 0.42405 0.28972 0.30756 0.0
H564 H 0.4177 0.15193 0.33184 0.0
C565 C 0.31512 0.29586 0.10987 0.0
C566 C 0.2962 0.31134 0.07016 0.0
C567 C 0.3293 0.38094 0.08108 0.0
C568 C 0.34919 0.36482 0.11956 0.0
N569 N 0.34105 0.32307 0.13385 0.0
N570 N 0.30343 0.35371 0.05694 0.0
H571 H 0.31071 0.26211 0.12106 0.0
C572 C 0.37149 0.1573 0.19366 0.0
O573 O 0.3442 0.18965 0.1839 0.0
O574 O 0.42255 0.34724 0.19445 0.0
H575 H 0.37212 0.38481 0.13711 0.0
H576 H 0.46772 0.29989 0.37668 0.0
H577 H 0.33496 0.41452 0.07012 0.0
Zn578 Zn 0.3996 0.87118 0.3233 0.0
C579 C 0.29625 0.81738 0.38068 0.0
N580 N 0.28635 0.8603 0.37276 0.0
C581 C 0.30939 0.86959 0.33564 0.0
N582 N 0.34405 0.84094 0.33404 0.0
N583 N 0.33843 0.81056 0.36602 0.0
C584 C 0.45424 0.74769 0.45263 0.0
O585 O 0.45999 0.78091 0.47955 0.0
O586 O 0.39932 0.93194 0.35285 0.0
Zn587 Zn 0.38786 0.80844 0.41528 0.0
N588 N 0.40935 0.87357 0.26188 0.0
C589 C 0.42017 0.82946 0.19825 0.0
C590 C 0.40405 0.83438 0.24083 0.0
C591 C 0.42907 0.90873 0.24216 0.0
N592 N 0.44082 0.86403 0.17876 0.0
C593 C 0.44557 0.9037 0.19942 0.0
O594 O 0.43498 0.85662 0.41366 0.0
C595 C 0.46454 0.85963 0.38477 0.0
O596 O 0.4566 0.844 0.34682 0.0
H597 H 0.38937 0.80664 0.25793 0.0
H598 H 0.43359 0.93918 0.26027 0.0
C599 C 0.32834 0.80101 0.49101 0.0
C600 C 0.31772 0.80715 0.53585 0.0
C601 C 0.3831 0.84816 0.54634 0.0
C602 C 0.39341 0.84229 0.50212 0.0
N603 N 0.36599 0.81895 0.47496 0.0
N604 N 0.34545 0.83057 0.56221 0.0
H605 H 0.30749 0.78171 0.46933 0.0
C606 C 0.38287 0.93416 0.39148 0.0
O607 O 0.35739 0.90221 0.40525 0.0
O608 O 0.42543 0.7507 0.42125 0.0
H609 H 0.42451 0.85471 0.4906 0.0
H610 H 0.417 0.79835 0.18106 0.0
H611 H 0.40502 0.8662 0.56803 0.0
Zn612 Zn 0.06323 0.45682 0.92474 0.0
C613 C 0.12291 0.54022 1.00175 0.0
N614 N 0.11315 0.56218 0.96381 0.0
C615 C 0.07062 0.5512 0.9561 0.0
N616 N 0.06516 0.50898 0.97182 0.0
N617 N 0.09552 0.50476 1.00412 0.0
C618 C 0.18693 0.46591 0.94474 0.0
O619 O 0.15329 0.48977 0.93114 0.0
O620 O 1.00615 0.41773 0.92136 0.0
Zn621 Zn 0.12802 0.45037 1.01568 0.0
N622 N 0.07022 0.47735 0.86354 0.0
C623 C 0.09618 0.45757 0.79171 0.0
C624 C 0.09303 0.44922 0.83674 0.0
C625 C 0.05022 0.51395 0.84628 0.0
N626 N 0.07661 0.49412 0.77464 0.0
C627 C 0.05371 0.52271 0.80051 0.0
O628 O 0.1033 0.39143 0.99584 0.0
C629 C 0.11864 0.38156 0.95829 0.0
O630 O 0.11304 0.40905 0.92719 0.0
H631 H 0.10748 0.41921 0.8495 0.0
H632 H 1.03143 0.53543 0.86776 0.0
C633 C 0.16563 0.41987 0.09613 0.0
C634 C 0.1593 0.40082 0.13771 0.0
C635 C 0.08564 0.42875 0.13898 0.0
C636 C 0.09185 0.44748 0.09756 0.0
N637 N 0.13128 0.44197 0.07694 0.0
N638 N 0.11927 0.40549 0.15777 0.0
H639 H 0.19605 0.41479 0.07807 0.0
C640 C 1.00478 0.38617 0.89293 0.0
O641 O 1.03953 0.378 0.86861 0.0
O642 O 0.18758 0.45175 0.98452 0.0
H643 H 0.06459 0.46363 0.08056 0.0
H644 H 0.11385 0.43504 0.77037 0.0
H645 H 0.05422 0.43172 0.15568 0.0
Zn646 Zn 0.70416 0.70971 0.32733 0.0
C647 C 0.80403 0.76708 0.38669 0.0
N648 N 0.81584 0.72465 0.37914 0.0
C649 C 0.79459 0.71497 0.34094 0.0
N650 N 0.75864 0.74214 0.33821 0.0
N651 N 0.76227 0.77283 0.36992 0.0
C652 C 0.64672 0.84111 0.45273 0.0
O653 O 0.64404 0.80961 0.48262 0.0
O654 O 0.70421 0.6497 0.35885 0.0
Zn655 Zn 0.71079 0.77683 0.41664 0.0
N656 N 0.69646 0.70574 0.26674 0.0
C657 C 0.68254 0.75139 0.20448 0.0
C658 C 0.7033 0.74438 0.24483 0.0
C659 C 0.67134 0.67283 0.24987 0.0
N660 N 0.65616 0.71929 0.18812 0.0
C661 C 0.65032 0.67997 0.20939 0.0
O662 O 0.66187 0.72999 0.41435 0.0
C663 C 0.6352 0.72268 0.38334 0.0
O664 O 0.64525 0.73598 0.34502 0.0
H665 H 0.72164 0.77077 0.26031 0.0
H666 H 0.66534 0.64322 0.26918 0.0
C667 C 0.75915 0.79115 0.49884 0.0
C668 C 0.76833 0.7824 0.54372 0.0
C669 C 0.72212 0.7198 0.54169 0.0
C670 C 0.71259 0.7287 0.49765 0.0
N671 N 0.73171 0.76372 0.47649 0.0
N672 N 0.74973 0.7468 0.56372 0.0
H673 H 0.77272 0.81971 0.48207 0.0
C674 C 0.72038 0.6503 0.39776 0.0
O675 O 0.74141 0.68555 0.41087 0.0
O676 O 0.6741 0.83637 0.4206 0.0
H677 H 0.68891 0.70799 0.48151 0.0
H678 H 0.68626 0.78236 0.18687 0.0
H679 H 0.70681 0.69238 0.55869 0.0
Zn680 Zn 0.46386 0.63819 0.51309 0.0
C681 C 0.52148 0.53735 0.45735 0.0
N682 N 0.47875 0.52658 0.46455 0.0
C683 C 0.46855 0.54828 0.50218 0.0
N684 N 0.49629 0.58343 0.50471 0.0
N685 N 0.52752 0.57905 0.47362 0.0
C686 C 0.59488 0.69597 0.39084 0.0
O687 O 0.56179 0.70115 0.36312 0.0
O688 O 0.40681 0.63974 0.47573 0.0
Zn689 Zn 0.5325 0.6315 0.42713 0.0
N690 N 0.45547 0.64361 0.57359 0.0
C691 C 0.49765 0.65077 0.63918 0.0
C692 C 0.49308 0.6346 0.59679 0.0
C693 C 0.42117 0.66664 0.59105 0.0
N694 N 0.4643 0.67514 0.65622 0.0
C695 C 0.42596 0.68312 0.63372 0.0
O696 O 0.4862 0.68027 0.42942 0.0
C697 C 0.4809 0.70737 0.46013 0.0
O698 O 0.49336 0.69623 0.49857 0.0
H699 H 0.52054 0.61787 0.58124 0.0
H700 H 0.39243 0.67461 0.57096 0.0
C701 C 0.54142 0.5779 0.3494 0.0
C702 C 0.53489 0.56824 0.30455 0.0
C703 C 0.4885 0.63092 0.29655 0.0
C704 C 0.49384 0.63968 0.34123 0.0
N705 N 0.52052 0.61325 0.36693 0.0
N706 N 0.5088 0.59517 0.27928 0.0
H707 H 0.56256 0.55759 0.3703 0.0
C708 C 0.41017 0.62363 0.43703 0.0
O709 O 0.44588 0.6016 0.42664 0.0
O710 O 0.59169 0.66746 0.4225 0.0
H711 H 0.47765 0.66852 0.35428 0.0
H712 H 0.52772 0.64515 0.65796 0.0
H713 H 0.46796 0.652 0.27586 0.0
Zn714 Zn 0.20635 0.7924 0.67537 0.0
C715 C 0.28449 0.86105 0.75034 0.0
N716 N 0.30703 0.85087 0.71329 0.0
C717 C 0.29776 0.80777 0.70748 0.0
N718 N 0.25607 0.80097 0.72305 0.0
N719 N 0.24967 0.83288 0.75305 0.0
C720 C 0.21314 0.92858 0.69428 0.0
O721 O 0.23844 0.8963 0.6807 0.0
O722 O 0.16208 0.74006 0.68417 0.0
Zn723 Zn 0.19285 0.86393 0.75981 0.0
N724 N 0.22743 0.78168 0.61528 0.0
C725 C 0.20212 0.77081 0.54114 0.0
C726 C 0.19456 0.77098 0.58628 0.0
C727 C 0.26824 0.79182 0.59995 0.0
N728 N 0.24269 0.78084 0.52593 0.0
C729 C 0.27609 0.79126 0.55408 0.0
O730 O 0.13925 0.84115 0.72699 0.0
C731 C 0.13715 0.85662 0.68796 0.0
O732 O 0.168 0.84707 0.66169 0.0
H733 H 0.16168 0.76508 0.59716 0.0
H734 H 0.29358 0.80238 0.62263 0.0
C735 C 0.15298 0.89695 0.83909 0.0
C736 C 0.13699 0.89232 0.88232 0.0
C737 C 0.16365 0.8182 0.8841 0.0
C738 C 0.18066 0.82346 0.84178 0.0
N739 N 0.17508 0.86265 0.82028 0.0
N740 N 0.14246 0.85267 0.90334 0.0
H741 H 0.1486 0.92746 0.82074 0.0
C742 C 0.12294 0.74155 0.66741 0.0
O743 O 0.10734 0.77911 0.6522 0.0
O744 O 0.19619 0.92614 0.73277 0.0
H745 H 0.19719 0.79622 0.82559 0.0
H746 H 0.17528 0.76511 0.51831 0.0
H747 H 0.16737 0.78711 0.90165 0.0
Zn748 Zn 1.03605 0.63279 0.65809 0.0
C749 C 0.1132 0.55766 0.58546 0.0
N750 N 0.10245 0.53383 0.62173 0.0
C751 C 0.05902 0.54274 0.62698 0.0
N752 N 0.05143 0.58451 0.61134 0.0
N753 N 0.08438 0.59204 0.58268 0.0
C754 C 0.17447 0.62507 0.65068 0.0
O755 O 0.13926 0.6029 0.66204 0.0
O756 O 0.9807 0.67499 0.64752 0.0
Zn757 Zn 0.11746 0.64685 0.57887 0.0
N758 N 1.02482 0.61043 0.71755 0.0
C759 C 1.01388 0.63768 0.79059 0.0
C760 C 1.01372 0.64407 0.74517 0.0
C761 C 1.03585 0.57005 0.73431 0.0
N762 N 1.02495 0.59764 0.80737 0.0
C763 C 1.03596 0.56346 0.78058 0.0
O764 O 0.09132 0.69982 0.60923 0.0
C765 C 0.10229 0.70142 0.64974 0.0
O766 O 0.08785 0.67215 0.67562 0.0
H767 H 1.00791 0.67679 0.73255 0.0
H768 H 0.04693 0.5443 0.71244 0.0
C769 C 0.1597 0.67871 0.49847 0.0
C770 C 0.15598 0.70073 0.4576 0.0
C771 C 0.0783 0.68886 0.45773 0.0
C772 C 0.08186 0.66815 0.49863 0.0
N773 N 0.12212 0.66424 0.51843 0.0
N774 N 0.1152 0.70513 0.43859 0.0
H775 H 0.19125 0.67561 0.51534 0.0
C776 C 0.98051 0.71544 0.66051 0.0
O777 O 1.01813 0.73379 0.67128 0.0
O778 O 0.17659 0.64151 0.61181 0.0
H779 H 0.05255 0.65693 0.51561 0.0
H780 H 1.00823 0.66516 0.81236 0.0
H781 H 0.04643 0.69296 0.44173 0.0
Zn782 Zn 1.03978 0.95791 0.66581 0.0
C783 C 0.96896 1.04054 0.59079 0.0
N784 N 0.97961 0.06262 0.62805 0.0
C785 C 1.02246 0.05173 0.63497 0.0
N786 N 1.0286 1.00991 0.61922 0.0
N787 N 0.99644 1.0048 0.58885 0.0
C788 C 0.90782 0.97259 0.66135 0.0
O789 O 0.94373 0.99404 0.67217 0.0
O790 O 0.09431 0.91603 0.6558 0.0
Zn791 Zn 0.96284 0.95037 0.58718 0.0
N792 N 0.05246 0.97719 0.72537 0.0
C793 C 0.06231 0.95034 0.79919 0.0
C794 C 0.05936 0.9429 0.7541 0.0
C795 C 0.0482 1.01898 0.74058 0.0
N796 N 0.05722 0.99187 0.81441 0.0
C797 C 0.04985 1.02639 0.78634 0.0
O798 O 0.99162 0.89638 0.61431 0.0
C799 C 0.97749 0.88909 0.65281 0.0
O800 O 0.98662 0.91736 0.68181 0.0
H801 H 0.06005 0.90947 0.74288 0.0
H802 H 1.04072 0.04562 0.71795 0.0
C803 C 0.92487 0.91395 0.50599 0.0
C804 C 0.93231 0.88461 0.47096 0.0
C805 C 1.00972 0.88786 0.48428 0.0
C806 C 1.00255 0.91808 0.51765 0.0
N807 N 0.9605 0.92938 0.52867 0.0
N808 N 0.97453 0.87181 0.46195 0.0
H809 H 0.89181 0.92318 0.51588 0.0
C810 C 0.09539 0.87639 0.67132 0.0
O811 O 0.05861 0.85772 0.68417 0.0
O812 O 0.90478 0.95642 0.62245 0.0
H813 H 1.03008 0.92957 0.53742 0.0
H814 H 0.06596 0.92301 0.82209 0.0
H815 H 1.04283 0.87672 0.4766 0.0
Zn816 Zn 0.67536 0.88426 0.7982 0.0
C817 C 0.75032 0.80614 0.72954 0.0
N818 N 0.71327 0.7836 0.73972 0.0
C819 C 0.70748 0.79287 0.78283 0.0
N820 N 0.72305 0.83456 0.78963 0.0
N821 N 0.75305 0.84095 0.75771 0.0
C822 C 0.69425 0.8775 0.66202 0.0
O823 O 0.68067 0.85219 0.6943 0.0
O824 O 0.68414 0.92855 0.85053 0.0
Zn825 Zn 0.7598 0.89778 0.72667 0.0
N826 N 0.61527 0.86316 0.80889 0.0
C827 C 0.54112 0.88843 0.81983 0.0
C828 C 0.58626 0.89599 0.8197 0.0
C829 C 0.59994 0.82238 0.79863 0.0
N830 N 0.52593 0.84788 0.8097 0.0
C831 C 0.55408 0.81451 0.79918 0.0
O832 O 0.72701 0.95138 0.74949 0.0
C833 C 0.68797 0.9535 0.73402 0.0
O834 O 0.6617 0.92263 0.74353 0.0
H835 H 0.59713 0.92884 0.82572 0.0
H836 H 0.62262 0.79708 0.78798 0.0
C837 C 0.83909 0.93758 0.69361 0.0
C838 C 0.88232 0.95358 0.69824 0.0
C839 C 0.8841 0.92697 0.77239 0.0
C840 C 0.84178 0.90997 0.76714 0.0
N841 N 0.82028 0.91552 0.72793 0.0
N842 N 0.90334 0.94813 0.7379 0.0
H843 H 0.82075 0.94195 0.6631 0.0
C844 C 0.66736 0.96768 0.84903 0.0
O845 O 0.65207 0.98325 0.81149 0.0
O846 O 0.73274 0.89445 0.66447 0.0
H847 H 0.82557 0.89346 0.79438 0.0
H848 H 0.51828 0.91525 0.82559 0.0
H849 H 0.90164 0.92327 0.80348 0.0
Zn850 Zn 0.13386 0.16588 0.56332 0.0
C851 C 0.05047 0.08886 0.62297 0.0
N852 N 1.02852 0.1268 0.6132 0.0
C853 C 1.03945 0.13454 0.57065 0.0
N854 N 0.08169 0.11881 0.56525 0.0
N855 N 0.08592 0.08649 0.59559 0.0
C856 C 0.12478 0.14586 0.68703 0.0
O857 O 0.10091 0.15946 0.65339 0.0
O858 O 0.17293 0.16927 0.50623 0.0
Zn859 Zn 0.14031 0.07493 0.6281 0.0
N860 N 0.11331 0.22708 0.57033 0.0
C861 C 0.13306 0.29891 0.59631 0.0
C862 C 0.14143 0.25387 0.59314 0.0
C863 C 0.0767 0.24433 0.55033 0.0
N864 N 0.0965 0.31596 0.57674 0.0
C865 C 0.06792 0.29008 0.55383 0.0
O866 O 0.19926 0.09477 0.60339 0.0
C867 C 0.20912 0.13232 0.61875 0.0
O868 O 0.18164 0.16343 0.61313 0.0
H869 H 0.17145 0.24112 0.60758 0.0
H870 H 0.05523 0.22284 0.53153 0.0
C871 C 0.17079 0.99446 0.66569 0.0
C872 C 0.18985 0.95289 0.65934 0.0
C873 C 0.16196 0.95166 0.58567 0.0
C874 C 0.14323 0.99308 0.59189 0.0
N875 N 0.14872 1.01367 0.63134 0.0
N876 N 0.1852 0.93285 0.6193 0.0
H877 H 0.17586 1.0125 0.69612 0.0
C878 C 0.20445 0.19774 0.50482 0.0
O879 O 0.2126 0.2221 0.53953 0.0
O880 O 0.13893 0.10607 0.68767 0.0
H881 H 0.1271 1.0101 0.56463 0.0
H882 H 0.15558 0.32025 0.61398 0.0
H883 H 0.15902 0.93499 0.55424 0.0
Zn884 Zn 0.32331 0.69094 0.71945 0.0
C885 C 0.38074 0.7943 0.77328 0.0
N886 N 0.37278 0.80417 0.73035 0.0
C887 C 0.33565 0.78115 0.72106 0.0
N888 N 0.33406 0.74649 0.74969 0.0
N889 N 0.36607 0.75211 0.78004 0.0
C890 C 0.45275 0.63635 0.84288 0.0
O891 O 0.4797 0.63064 0.80968 0.0
O892 O 0.35283 0.69122 0.65867 0.0
Zn893 Zn 0.41533 0.70269 0.78212 0.0
N894 N 0.26189 0.68119 0.71706 0.0
C895 C 0.19826 0.67033 0.76117 0.0
C896 C 0.24083 0.68645 0.75625 0.0
C897 C 0.24217 0.66149 0.68188 0.0
N898 N 0.17877 0.64969 0.72659 0.0
C899 C 0.19943 0.64497 0.68691 0.0
O900 O 0.41367 0.65556 0.73394 0.0
C901 C 0.38478 0.62601 0.73097 0.0
O902 O 0.34684 0.63395 0.74663 0.0
H903 H 0.25794 0.70112 0.78401 0.0
H904 H 0.26028 0.65698 0.65143 0.0
C905 C 0.49103 0.76224 0.78946 0.0
C906 C 0.53586 0.7729 0.78327 0.0
C907 C 0.54635 0.70751 0.74227 0.0
C908 C 0.50215 0.69716 0.7482 0.0
N909 N 0.47499 0.72458 0.77155 0.0
N910 N 0.56221 0.74518 0.75982 0.0
H911 H 0.46936 0.78308 0.80878 0.0
C912 C 0.39144 0.70772 0.65641 0.0
O913 O 0.40526 0.7332 0.68833 0.0
O914 O 0.42134 0.66513 0.83986 0.0
H915 H 0.49064 0.66604 0.73582 0.0
H916 H 0.18107 0.67347 0.79229 0.0
H917 H 0.56804 0.6856 0.72421 0.0
Zn918 Zn 0.95783 0.43249 0.53606 0.0
C919 C 1.03296 0.50513 0.61315 0.0
N920 N 0.0568 0.46886 0.60245 0.0
C921 C 0.04789 0.4636 0.55902 0.0
N922 N 1.00611 0.47924 0.55142 0.0
N923 N 0.99857 0.50793 0.58434 0.0
C924 C 0.96553 0.43995 0.67444 0.0
O925 O 0.9877 0.42859 0.63924 0.0
O926 O 0.91566 0.44305 0.4807 0.0
Zn927 Zn 0.94375 0.51175 0.61743 0.0
N928 N 0.9802 0.37303 0.52488 0.0
C929 C 0.95296 0.29998 0.51396 0.0
C930 C 0.94656 0.34541 0.51378 0.0
C931 C 1.02058 0.35628 0.53594 0.0
N932 N 0.993 0.28321 0.52506 0.0
C933 C 1.02716 0.31001 0.53607 0.0
O934 O 0.89078 0.48139 0.59129 0.0
C935 C 0.88917 0.4409 0.60228 0.0
O936 O 0.91843 0.41501 0.58785 0.0
H937 H 0.91384 0.35803 0.50794 0.0
H938 H 0.04632 0.37815 0.54702 0.0
C939 C 0.91188 0.59215 0.65966 0.0
C940 C 0.88986 0.63303 0.65592 0.0
C941 C 0.90177 0.6329 0.57825 0.0
C942 C 0.92248 0.59199 0.58182 0.0
N943 N 0.92637 0.57219 0.62208 0.0
N944 N 0.88549 0.65204 0.61514 0.0
H945 H 0.91496 0.57529 0.69121 0.0
C946 C 0.8752 0.43008 0.48051 0.0
O947 O 0.85682 0.4193 0.51811 0.0
O948 O 0.94909 0.47882 0.67656 0.0
H949 H 0.93371 0.57501 0.55252 0.0
H950 H 0.92548 0.27821 0.50832 0.0
H951 H 0.89769 0.64889 0.54638 0.0
Zn952 Zn 0.6843 0.21742 0.79109 0.0
C953 C 0.75873 0.28971 0.86792 0.0
N954 N 0.72244 0.31313 0.85551 0.0
C955 C 0.71736 0.30329 0.81228 0.0
N956 N 0.73363 0.26181 0.80622 0.0
N957 N 0.76113 0.2542 0.84048 0.0
C958 C 0.69365 0.21913 0.93337 0.0
O959 O 0.68391 0.24641 0.90101 0.0
O960 O 0.69443 0.16811 0.74339 0.0
Zn961 Zn 0.75941 0.19675 0.87122 0.0
N962 N 0.63388 0.24964 0.76756 0.0
C963 C 0.58115 0.26147 0.70966 0.0
C964 C 0.61962 0.24155 0.72579 0.0
C965 C 0.60989 0.27555 0.79477 0.0
N966 N 0.55699 0.28731 0.73691 0.0
C967 C 0.57019 0.29448 0.7793 0.0
O968 O 0.72115 0.14876 0.84403 0.0
C969 C 0.68085 0.15011 0.85561 0.0
O970 O 0.65813 0.18367 0.84447 0.0
H971 H 0.63716 0.21863 0.70578 0.0
H972 H 0.62105 0.2799 0.82855 0.0
C973 C 0.84232 0.16228 0.90626 0.0
C974 C 0.88047 0.13635 0.90069 0.0
C975 C 0.86684 0.13382 0.82326 0.0
C976 C 0.82861 0.15862 0.82892 0.0
N977 N 0.81689 0.17165 0.87015 0.0
N978 N 0.89151 0.12296 0.85923 0.0
H979 H 0.83178 0.17288 0.9387 0.0
C980 C 0.6607 0.14263 0.73985 0.0
O981 O 0.62783 0.14793 0.76753 0.0
O982 O 0.73085 0.19912 0.93277 0.0
H983 H 0.80745 0.16637 0.80092 0.0
H984 H 0.5702 0.25584 0.67607 0.0
H985 H 0.87654 0.12264 0.79078 0.0
Zn986 Zn 0.45234 0.0775 0.46393 0.0
C987 C 0.5532 0.13323 0.52154 0.0
N988 N 0.56396 0.12604 0.4788 0.0
C989 C 0.54226 0.08841 0.4686 0.0
N990 N 0.50711 0.08588 0.49635 0.0
N991 N 0.5115 0.11697 0.52757 0.0
C992 C 0.39461 0.19976 0.59494 0.0
O993 O 0.38941 0.22747 0.56184 0.0
O994 O 0.45078 0.11485 0.40686 0.0
Zn995 Zn 0.45907 0.16347 0.53255 0.0
N996 N 0.4469 1.017 0.45555 0.0
C997 C 0.43972 0.95141 0.49773 0.0
C998 C 0.45589 0.9938 0.49316 0.0
C999 C 0.4239 0.99953 0.42123 0.0
N1000 N 0.41538 0.93436 0.46437 0.0
C1001 C 0.40742 0.95686 0.42602 0.0
O1002 O 0.4103 0.16118 0.48626 0.0
C1003 C 0.38319 0.13049 0.48097 0.0
O1004 O 0.39431 0.09205 0.49343 0.0
H1005 H 0.4726 1.00936 0.52063 0.0
H1006 H 0.41595 1.01962 0.39249 0.0
C1007 C 0.51271 0.24118 0.54141 0.0
C1008 C 0.52238 0.28602 0.53486 0.0
C1009 C 0.45966 0.29404 0.48854 0.0
C1010 C 0.45088 0.24937 0.49391 0.0
N1011 N 0.47733 0.22366 0.52056 0.0
N1012 N 0.49543 0.3113 0.5088 0.0
H1013 H 0.53305 0.22028 0.56253 0.0
C1014 C 0.4669 0.15355 0.4102 0.0
O1015 O 0.48894 0.16394 0.4459 0.0
O1016 O 0.42313 0.1681 0.59175 0.0
H1017 H 0.42202 0.23633 0.47775 0.0
H1018 H 0.44532 0.93263 0.5278 0.0
H1019 H 0.43855 0.31474 0.46802 0.0
Zn1020 Zn 0.41657 0.37977 0.81384 0.0
C1021 C 0.34081 0.29609 0.87572 0.0
N1022 N 0.37902 0.27486 0.86602 0.0
C1023 C 0.38666 0.28658 0.82359 0.0
N1024 N 0.36984 0.32831 0.81789 0.0
N1025 N 0.33808 0.33203 0.84852 0.0
C1026 C 0.39764 0.37022 0.94036 0.0
O1027 O 0.41074 0.34924 0.90508 0.0
O1028 O 0.42054 0.41642 0.75426 0.0
Zn1029 Zn 0.32724 0.38651 0.88097 0.0
N1030 N 0.4764 0.35882 0.82697 0.0
C1031 C 0.54155 0.36831 0.87099 0.0
C1032 C 0.49751 0.37786 0.86205 0.0
C1033 C 0.49879 0.33145 0.7995 0.0
N1034 N 0.56361 0.34077 0.84395 0.0
C1035 C 0.54366 0.32225 0.80828 0.0
O1036 O 0.34498 0.44539 0.85468 0.0
C1037 C 0.38331 0.45542 0.86796 0.0
O1038 O 0.41431 0.42873 0.86063 0.0
H1039 H 0.48134 0.40147 0.88282 0.0
H1040 H 0.48205 0.31795 0.77088 0.0
C1041 C 0.24979 0.41935 0.91781 0.0
C1042 C 0.20929 0.44035 0.9107 0.0
C1043 C 0.20436 0.40811 0.83928 0.0
C1044 C 0.24471 0.38737 0.84627 0.0
N1045 N 0.26665 0.39424 0.88489 0.0
N1046 N 0.188 0.43449 0.87139 0.0
H1047 H 0.2691 0.42536 0.94741 0.0
C1048 C 0.45266 0.44379 0.74951 0.0
O1049 O 0.48255 0.44648 0.78101 0.0
O1050 O 0.35876 0.38644 0.94099 0.0
H1051 H 0.26019 0.36903 0.81987 0.0
H1052 H 0.55851 0.38355 0.89847 0.0
H1053 H 0.18673 0.40437 0.80832 0.0
Zn1054 Zn 0.64018 0.5034 0.46282 0.0
C1055 C 0.53886 0.45562 0.52239 0.0
N1056 N 0.52795 0.46254 0.47953 0.0
C1057 C 0.55002 0.4998 0.46894 0.0
N1058 N 0.58573 0.50172 0.49642 0.0
N1059 N 0.5807 0.47134 0.52859 0.0
C1060 C 0.7142 0.41924 0.59537 0.0
O1061 O 0.73286 0.40638 0.55858 0.0
O1062 O 0.63415 0.46809 0.40477 0.0
Zn1063 Zn 0.6327 0.42476 0.53974 0.0
N1064 N 0.66108 0.56195 0.46042 0.0
C1065 C 0.70258 0.60628 0.50971 0.0
C1066 C 0.67236 0.57294 0.50249 0.0
C1067 C 0.67661 0.58461 0.42482 0.0
N1068 N 0.71869 0.62862 0.47455 0.0
C1069 C 0.70594 0.61963 0.43231 0.0
O1070 O 0.67327 0.4088 0.48659 0.0
C1071 C 0.70152 0.43782 0.47745 0.0
O1072 O 0.69422 0.47632 0.49157 0.0
H1073 H 0.66082 0.55316 0.52999 0.0
H1074 H 0.66745 0.57473 0.39174 0.0
C1075 C 0.57162 0.34999 0.5482 0.0
C1076 C 0.56421 0.30424 0.54989 0.0
C1077 C 0.64025 0.29137 0.5623 0.0
C1078 C 0.64771 0.33644 0.55929 0.0
N1079 N 0.61343 0.36519 0.55239 0.0
N1080 N 0.59871 0.27616 0.55725 0.0
H1081 H 0.54499 0.37263 0.54074 0.0
C1082 C 0.61801 0.42919 0.40784 0.0
O1083 O 0.59655 0.41838 0.44375 0.0
O1084 O 0.67456 0.43476 0.59428 0.0
H1085 H 0.68115 0.34766 0.55996 0.0
H1086 H 0.71369 0.61394 0.54284 0.0
H1087 H 0.66758 0.26846 0.56596 0.0
Zn1088 Zn 0.71945 0.76731 0.89964 0.0
C1089 C 0.77326 0.70989 0.79628 0.0
N1090 N 0.73033 0.71785 0.78641 0.0
C1091 C 0.72105 0.75498 0.80943 0.0
N1092 N 0.74969 0.75657 0.84409 0.0
N1093 N 0.78004 0.72456 0.83847 0.0
C1094 C 0.84284 0.638 0.95432 0.0
O1095 O 0.80959 0.61113 0.9601 0.0
O1096 O 0.65869 0.73777 0.89937 0.0
Zn1097 Zn 0.78214 0.67531 0.88789 0.0
N1098 N 0.71705 0.82873 0.9094 0.0
C1099 C 0.76115 0.89236 0.92024 0.0
C1100 C 0.75624 0.84978 0.90412 0.0
C1101 C 0.68187 0.84844 0.92911 0.0
N1102 N 0.72657 0.91185 0.94088 0.0
C1103 C 0.6869 0.89119 0.94562 0.0
O1104 O 0.73396 0.67695 0.93502 0.0
C1105 C 0.73097 0.70584 0.96457 0.0
O1106 O 0.74663 0.74379 0.95663 0.0
H1107 H 0.78399 0.83268 0.88945 0.0
H1108 H 0.65142 0.83034 0.93362 0.0
C1109 C 0.78957 0.59959 0.82836 0.0
C1110 C 0.78342 0.55476 0.81773 0.0
C1111 C 0.74243 0.54426 0.88313 0.0
C1112 C 0.74831 0.58847 0.89345 0.0
N1113 N 0.77163 0.61564 0.86602 0.0
N1114 N 0.76 0.5284 0.84547 0.0
H1115 H 0.80886 0.62127 0.80751 0.0
C1116 C 0.65643 0.69916 0.88287 0.0
O1117 O 0.68835 0.68535 0.85738 0.0
O1118 O 0.83987 0.66935 0.92547 0.0
H1119 H 0.73589 0.59999 0.92455 0.0
H1120 H 0.79227 0.90955 0.91708 0.0
H1121 H 0.72439 0.52256 0.90505 0.0
Zn1122 Zn 0.92715 0.0581 0.45915 0.0
C1123 C 1.0022 0.12194 0.5423 0.0
N1124 N 0.96456 0.11183 0.56404 0.0
C1125 C 0.95738 0.06911 0.55326 0.0
N1126 N 0.97366 0.06306 0.51158 0.0
N1127 N 1.00478 0.09424 0.50711 0.0
C1128 C 0.93714 0.18046 0.46699 0.0
O1129 O 0.92673 0.14475 0.489 0.0
O1130 O 0.92249 0.99892 0.4232 0.0
Zn1131 Zn 1.01316 0.12671 0.45238 0.0
N1132 N 0.86697 0.07014 0.4774 0.0
C1133 C 0.79662 0.10223 0.45976 0.0
C1134 C 0.84129 0.09684 0.45098 0.0
C1135 C 0.84942 0.04926 0.51276 0.0
N1136 N 0.77932 0.08195 0.49551 0.0
C1137 C 0.80458 0.05584 0.52243 0.0
O1138 O 0.9986 0.09723 0.39434 0.0
C1139 C 0.96015 0.10969 0.38324 0.0
O1140 O 0.92946 0.10439 0.41037 0.0
H1141 H 0.85434 0.11302 0.42214 0.0
H1142 H 0.8703 1.02809 0.53307 0.0
C1143 C 0.0911 0.16937 0.42393 0.0
C1144 C 0.13378 0.1646 0.40745 0.0
C1145 C 0.13927 0.09292 0.43979 0.0
C1146 C 0.09688 0.09746 0.45597 0.0
N1147 N 0.07366 0.13505 0.44694 0.0
N1148 N 0.1563 0.12627 0.41543 0.0
H1149 H 0.071 0.1981 0.41597 0.0
C1150 C 0.89082 0.99574 0.39469 0.0
O1151 O 0.86311 1.02885 0.38952 0.0
O1152 O 0.97583 0.18378 0.45085 0.0
H1153 H 0.08135 0.06999 0.47269 0.0
H1154 H 0.77594 0.1228 0.43867 0.0
H1155 H 0.15808 0.06286 0.44542 0.0
Zn1156 Zn 0.37119 0.83114 0.89385 0.0
C1157 C 0.31233 0.87316 0.78738 0.0
N1158 N 0.35555 0.86813 0.77749 0.0
C1159 C 0.36791 0.83182 0.80089 0.0
N1160 N 0.34046 0.82941 0.83638 0.0
N1161 N 0.30617 0.8569 0.82887 0.0
C1162 C 0.23982 0.92997 0.94799 0.0
O1163 O 0.2675 0.96283 0.94265 0.0
O1164 O 0.43273 0.85973 0.8915 0.0
Zn1165 Zn 0.29105 0.90627 0.87322 0.0
N1166 N 0.37013 0.77366 0.91896 0.0
C1167 C 0.32326 0.72378 0.95693 0.0
C1168 C 0.32891 0.76199 0.93208 0.0
C1169 C 0.40623 0.74822 0.92831 0.0
N1170 N 0.35922 0.69909 0.96774 0.0
C1171 C 0.40067 0.71009 0.95428 0.0
O1172 O 0.34443 0.93243 0.90696 0.0
C1173 C 0.35556 0.90969 0.94052 0.0
O1174 O 0.34398 0.8694 0.94184 0.0
H1175 H 0.30092 0.78316 0.92436 0.0
H1176 H 0.43867 0.75872 0.91767 0.0
C1177 C 0.29473 0.98066 0.81506 0.0
C1178 C 0.27925 1.02034 0.79611 0.0
C1179 C 0.2096 1.00937 0.82909 0.0
C1180 C 0.22573 0.97092 0.84903 0.0
N1181 N 0.26751 0.95667 0.84097 0.0
N1182 N 0.23685 1.03353 0.80326 0.0
H1183 H 0.32851 0.9695 0.81074 0.0
C1184 C 0.4333 0.89693 0.8715 0.0
O1185 O 0.40095 0.90667 0.8442 0.0
O1186 O 0.24336 0.89621 0.92254 0.0
H1187 H 0.20572 0.95339 0.87196 0.0
H1188 H 0.29079 0.71412 0.96817 0.0
H1189 H 0.176 1.02031 0.8347 0.0
Zn1190 Zn 0.15812 0.55455 0.45782 0.0
C1191 C 0.0855 0.47744 0.53296 0.0
N1192 N 0.12177 0.48812 0.55682 0.0
C1193 C 0.12699 0.53154 0.54786 0.0
N1194 N 0.11136 0.53919 0.5061 0.0
N1195 N 0.0827 0.50625 0.49857 0.0
C1196 C 0.15068 0.41614 0.46555 0.0
O1197 O 0.16207 0.45133 0.48773 0.0
O1198 O 0.14755 0.60989 0.41562 0.0
Zn1199 Zn 0.07888 0.47316 0.44375 0.0
N1200 N 0.21757 0.56576 0.48019 0.0
C1201 C 0.29062 0.5767 0.45297 0.0
C1202 C 0.2452 0.57687 0.44656 0.0
C1203 C 0.23432 0.5547 0.52057 0.0
N1204 N 0.30739 0.5656 0.49301 0.0
C1205 C 0.28058 0.55458 0.52717 0.0
O1206 O 0.10924 0.49931 0.39078 0.0
C1207 C 0.14974 0.48832 0.38918 0.0
O1208 O 0.17562 0.50274 0.41845 0.0
H1209 H 0.23259 0.58271 0.41384 0.0
H1210 H 0.21244 0.54361 0.54632 0.0
C1211 C 0.99849 0.43094 0.41187 0.0
C1212 C 0.95761 0.43467 0.38983 0.0
C1213 C 0.95775 0.51235 0.40173 0.0
C1214 C 0.99865 0.50877 0.42245 0.0
N1215 N 1.01844 0.46851 0.42635 0.0
N1216 N 0.93861 0.47545 0.38545 0.0
H1217 H 1.01535 0.39939 0.41496 0.0
C1218 C 0.16055 0.61007 0.37517 0.0
O1219 O 0.17135 0.57247 0.35681 0.0
O1220 O 0.11181 0.41404 0.44909 0.0
H1221 H 1.01563 0.53808 0.43368 0.0
H1222 H 0.3124 0.58235 0.4255 0.0
H1223 H 0.94176 0.54421 0.39763 0.0
Zn1224 Zn 0.79818 0.41526 0.70634 0.0
C1225 C 0.72957 0.34034 0.78449 0.0
N1226 N 0.73972 0.37738 0.80704 0.0
C1227 C 0.78284 0.38315 0.79776 0.0
N1228 N 0.78962 0.36758 0.75605 0.0
N1229 N 0.75771 0.33758 0.74966 0.0
C1230 C 0.66199 0.39633 0.71312 0.0
O1231 O 0.69427 0.40993 0.73842 0.0
O1232 O 0.85052 0.40648 0.66206 0.0
Zn1233 Zn 0.72666 0.3308 0.69285 0.0
N1234 N 0.80887 0.47535 0.72742 0.0
C1235 C 0.81975 0.54949 0.70213 0.0
C1236 C 0.81958 0.50436 0.69455 0.0
C1237 C 0.79873 0.49067 0.76823 0.0
N1238 N 0.80973 0.56469 0.7427 0.0
C1239 C 0.79929 0.53654 0.7761 0.0
O1240 O 0.74945 0.36358 0.63924 0.0
C1241 C 0.734 0.40262 0.63712 0.0
O1242 O 0.74351 0.4289 0.66797 0.0
H1243 H 0.82549 0.49349 0.66168 0.0
H1244 H 0.78816 0.468 0.79357 0.0
C1245 C 0.69361 0.2515 0.65302 0.0
C1246 C 0.69825 0.20827 0.63704 0.0
C1247 C 0.77238 0.20649 0.6637 0.0
C1248 C 0.76712 0.24882 0.68069 0.0
N1249 N 0.72792 0.27031 0.67511 0.0
N1250 N 0.7379 0.18726 0.64252 0.0
H1251 H 0.6631 0.26985 0.64864 0.0
C1252 C 0.84902 0.42324 0.62292 0.0
O1253 O 0.81148 0.43847 0.60731 0.0
O1254 O 0.66445 0.35784 0.69618 0.0
H1255 H 0.79435 0.26502 0.69722 0.0
H1256 H 0.82547 0.57233 0.67529 0.0
H1257 H 0.80347 0.18895 0.66743 0.0
Zn1258 Zn 0.58718 0.12777 0.64025 0.0
C1259 C 0.63493 0.0682 0.53891 0.0
N1260 N 0.62801 0.11106 0.52799 0.0
C1261 C 0.59075 0.12165 0.55008 0.0
N1262 N 0.58883 0.09417 0.58579 0.0
N1263 N 0.61921 0.062 0.58076 0.0
C1264 C 0.67134 0.99525 0.71425 0.0
O1265 O 0.68421 1.03203 0.73292 0.0
O1266 O 0.62248 0.18582 0.63419 0.0
Zn1267 Zn 0.66582 0.05087 0.63273 0.0
N1268 N 0.52867 0.13016 0.66124 0.0
C1269 C 0.48449 0.08095 0.703 0.0
C1270 C 0.51775 0.08812 0.67267 0.0
C1271 C 0.50599 0.16578 0.6767 0.0
N1272 N 0.46213 0.11613 0.71904 0.0
C1273 C 0.47103 0.15834 0.70613 0.0
O1274 O 0.68183 0.10403 0.67328 0.0
C1275 C 0.65281 0.11315 0.70154 0.0
O1276 O 0.61433 0.09901 0.69425 0.0
H1277 H 0.53754 0.0606 0.66117 0.0
H1278 H 0.51581 0.19884 0.66741 0.0
C1279 C 0.74059 1.04245 0.57164 0.0
C1280 C 0.78634 1.04076 0.56423 0.0
C1281 C 0.7992 1.02826 0.64026 0.0
C1282 C 0.75412 1.03125 0.64771 0.0
N1283 N 0.72538 1.03819 0.61343 0.0
N1284 N 0.81442 1.03335 0.59873 0.0
H1285 H 0.71796 0.04996 0.54501 0.0
C1286 C 0.66137 0.18277 0.61802 0.0
O1287 O 0.6722 0.14687 0.59655 0.0
O1288 O 0.65582 0.99634 0.67461 0.0
H1289 H 0.7429 1.03054 0.68115 0.0
H1290 H 0.47689 0.04785 0.71423 0.0
H1291 H 0.8221 1.02458 0.66759 0.0
Zn1292 Zn 0.3809 0.26329 0.7042 0.0
C1293 C 0.32351 0.20393 0.80411 0.0
N1294 N 0.36595 0.21153 0.81588 0.0
C1295 C 0.37564 0.24972 0.79463 0.0
N1296 N 0.34847 0.25243 0.75869 0.0
N1297 N 0.3178 0.22069 0.76234 0.0
C1298 C 0.24954 0.1379 0.64679 0.0
O1299 O 0.28104 0.10801 0.64411 0.0
O1300 O 0.44092 0.23177 0.70425 0.0
Zn1301 Zn 0.31381 0.17397 0.71087 0.0
N1302 N 0.38489 0.32388 0.69647 0.0
C1303 C 0.33925 0.38614 0.68252 0.0
C1304 C 0.34625 0.34581 0.7033 0.0
C1305 C 0.4178 0.34074 0.67134 0.0
N1306 N 0.37135 0.40249 0.65613 0.0
C1307 C 0.41067 0.38121 0.65029 0.0
O1308 O 0.36064 0.17625 0.66195 0.0
C1309 C 0.36793 0.20726 0.63527 0.0
O1310 O 0.35461 0.24558 0.64531 0.0
H1311 H 0.31986 0.33034 0.72165 0.0
H1312 H 0.44741 0.32142 0.66534 0.0
C1313 C 0.29946 0.09175 0.75917 0.0
C1314 C 0.30824 0.04687 0.76836 0.0
C1315 C 0.37095 0.04899 0.7223 0.0
C1316 C 0.36202 0.09302 0.71276 0.0
N1317 N 0.32694 0.11413 0.73181 0.0
N1318 N 0.34391 1.02692 0.74983 0.0
H1319 H 0.27085 0.10849 0.77268 0.0
C1320 C 0.44032 0.19289 0.72048 0.0
O1321 O 0.40508 0.17978 0.74152 0.0
O1322 O 0.25427 0.17002 0.67418 0.0
H1323 H 0.38278 0.10919 0.68915 0.0
H1324 H 0.30828 0.40376 0.68624 0.0
H1325 H 0.39843 1.03203 0.70706 0.0
Zn1326 Zn 0.42472 0.52725 0.63383 0.0
C1327 C 0.50172 0.46759 0.5504 0.0
N1328 N 0.46378 0.47733 0.52844 0.0
C1329 C 0.45605 0.51986 0.53942 0.0
N1330 N 0.47178 0.52533 0.58164 0.0
N1331 N 0.50409 0.49496 0.58586 0.0
C1332 C 0.44471 0.40354 0.6247 0.0
O1333 O 0.43108 0.43718 0.60084 0.0
O1334 O 0.42136 0.58434 0.67291 0.0
Zn1335 Zn 0.51564 0.46246 0.64026 0.0
N1336 N 0.36351 0.52028 0.6133 0.0
C1337 C 0.29167 0.49433 0.63306 0.0
C1338 C 0.33671 0.49748 0.64142 0.0
C1339 C 0.34627 0.54029 0.5767 0.0
N1340 N 0.27462 0.51391 0.59651 0.0
C1341 C 0.30051 0.53681 0.56793 0.0
O1342 O 0.49581 0.48715 0.69922 0.0
C1343 C 0.45826 0.4718 0.70908 0.0
O1344 O 0.42715 0.47743 0.68159 0.0
H1345 H 0.34946 0.48302 0.67144 0.0
H1346 H 0.36776 0.55908 0.55522 0.0
C1347 C 0.59611 0.42489 0.67075 0.0
C1348 C 0.63769 0.43125 0.68981 0.0
C1349 C 0.63891 0.50491 0.66188 0.0
C1350 C 0.59749 0.49867 0.64314 0.0
N1351 N 0.5769 0.45922 0.64865 0.0
N1352 N 0.65772 0.4713 0.68514 0.0
H1353 H 0.57808 0.39446 0.67584 0.0
C1354 C 0.39291 0.58575 0.70445 0.0
O1355 O 0.36855 0.55103 0.71261 0.0
O1356 O 0.48449 0.4029 0.63888 0.0
H1357 H 0.58047 0.52592 0.62699 0.0
H1358 H 0.27033 0.47667 0.65559 0.0
H1359 H 0.65558 0.53634 0.65891 0.0
Zn1360 Zn 0.89382 0.71941 0.75944 0.0
C1361 C 0.78736 0.77829 0.71742 0.0
N1362 N 0.77746 0.73507 0.72244 0.0
C1363 C 0.80087 0.72271 0.75874 0.0
N1364 N 0.83636 0.75015 0.76116 0.0
N1365 N 0.82886 0.78445 0.73367 0.0
C1366 C 0.94802 0.85079 0.66071 0.0
O1367 O 0.94271 0.82311 0.62784 0.0
O1368 O 0.89145 0.65787 0.73085 0.0
Zn1369 Zn 0.87321 0.79957 0.68432 0.0
N1370 N 0.91889 0.72046 0.81692 0.0
C1371 C 0.95676 0.76734 0.86686 0.0
C1372 C 0.93196 0.76169 0.82863 0.0
C1373 C 0.92826 0.68436 0.84236 0.0
N1374 N 0.96759 0.73138 0.89154 0.0
C1375 C 0.95419 0.68993 0.88051 0.0
O1376 O 0.90695 0.74619 0.65815 0.0
C1377 C 0.9405 0.73503 0.68088 0.0
O1378 O 0.94183 0.74659 0.72118 0.0
H1379 H 0.92422 0.78968 0.80746 0.0
H1380 H 0.91765 0.65192 0.83183 0.0
C1381 C 0.81507 0.79589 0.60992 0.0
C1382 C 0.79614 0.81136 0.57022 0.0
C1383 C 0.82918 0.88099 0.58116 0.0
C1384 C 0.8491 0.86486 0.61963 0.0
N1385 N 0.84099 0.8231 0.6339 0.0
N1386 N 0.80333 0.85374 0.55701 0.0
H1387 H 0.8107 0.76212 0.6211 0.0
C1388 C 0.87145 0.65731 0.69364 0.0
O1389 O 0.84417 0.68967 0.6839 0.0
O1390 O 0.92253 0.84725 0.69444 0.0
H1391 H 0.87202 0.88486 0.63716 0.0
H1392 H 0.96796 0.79982 0.87655 0.0
H1393 H 0.83482 0.91457 0.5702 0.0
Zn1394 Zn 0.88784 0.30843 0.91525 0.0
C1395 C 0.80944 0.36952 0.83564 0.0
N1396 N 0.7864 0.36026 0.87277 0.0
C1397 C 0.79626 0.31734 0.88071 0.0
N1398 N 0.83841 0.31054 0.866 0.0
N1399 N 0.84411 0.34087 0.83399 0.0
C1400 C 0.88281 0.43418 0.89143 0.0
O1401 O 0.85737 0.40223 0.90525 0.0
O1402 O 0.92541 0.2507 0.92122 0.0
Zn1403 Zn 0.89963 0.37117 0.82327 0.0
N1404 N 0.86598 0.31894 0.97493 0.0
C1405 C 0.88312 0.34811 0.04633 0.0
C1406 C 0.89342 0.34225 1.0021 0.0
C1407 C 0.82834 0.30098 0.991 0.0
N1408 N 0.84548 0.33052 0.0622 0.0
C1409 C 0.81773 0.30711 1.03584 0.0
O1410 O 0.95662 0.34401 0.84679 0.0
C1411 C 0.96453 0.35966 0.88475 0.0
O1412 O 0.93496 0.35663 0.91363 0.0
H1413 H 0.92452 0.35468 0.99058 0.0
H1414 H 0.80748 0.2817 0.96932 0.0
C1415 C 0.92911 0.40874 0.74214 0.0
C1416 C 0.94562 0.40372 0.69939 0.0
C1417 C 0.92022 0.32948 0.6982 0.0
C1418 C 0.9041 0.33438 0.74078 0.0
N1419 N 0.9094 0.37356 0.76185 0.0
N1420 N 0.94087 0.36406 0.67872 0.0
H1421 H 0.93362 0.43918 0.76026 0.0
C1422 C 0.95427 0.24772 0.95256 0.0
O1423 O 0.96006 0.28096 0.97944 0.0
O1424 O 0.89931 0.43194 0.85281 0.0
H1425 H 0.88942 0.30663 0.75787 0.0
H1426 H 0.90506 0.36614 0.06802 0.0
H1427 H 0.91706 0.29837 0.68099 0.0
Zn1428 Zn 0.56327 0.95677 0.42477 0.0
C1429 C 0.62294 1.04019 0.50177 0.0
N1430 N 0.61321 0.06215 0.46383 0.0
C1431 C 0.57067 0.05117 0.4561 0.0
N1432 N 0.5652 1.00895 0.47183 0.0
N1433 N 0.59556 1.00474 0.50414 0.0
C1434 C 0.68698 0.96591 0.44478 0.0
O1435 O 0.65334 0.98976 0.43114 0.0
O1436 O 0.50618 0.91769 0.42138 0.0
Zn1437 Zn 0.62805 0.95035 0.5157 0.0
N1438 N 0.57026 0.97729 0.36356 0.0
C1439 C 0.59621 0.95752 0.29172 0.0
C1440 C 0.59306 0.94917 0.33676 0.0
C1441 C 0.55025 1.01389 0.34631 0.0
N1442 N 0.57664 0.99407 0.27466 0.0
C1443 C 0.55374 1.02266 0.30054 0.0
O1444 O 0.60335 0.89139 0.49588 0.0
C1445 C 0.61871 0.88153 0.45833 0.0
O1446 O 0.61309 0.90901 0.42722 0.0
H1447 H 0.60751 0.91915 0.34951 0.0
H1448 H 0.53147 1.03537 0.3678 0.0
C1449 C 0.66566 0.91987 0.59616 0.0
C1450 C 0.65932 0.90081 0.63774 0.0
C1451 C 0.58566 0.92873 0.63899 0.0
C1452 C 0.59187 0.94746 0.59757 0.0
N1453 N 0.63131 0.94196 0.57696 0.0
N1454 N 0.61928 0.90547 0.65779 0.0
H1455 H 0.69608 0.91479 0.57811 0.0
C1456 C 0.50479 0.88615 0.39293 0.0
O1457 O 0.53953 0.87798 0.3686 0.0
O1458 O 0.68763 0.95173 0.48455 0.0
H1459 H 0.56461 0.9636 0.58056 0.0
H1460 H 0.61387 0.93499 0.27038 0.0
H1461 H 0.55423 0.93169 0.65568 0.0
Zn1462 Zn 0.20414 0.2097 0.82734 0.0
C1463 C 0.30398 0.26708 0.88671 0.0
N1464 N 0.31578 0.22464 0.87917 0.0
C1465 C 0.29454 0.21497 0.84096 0.0
N1466 N 0.2586 0.24214 0.83822 0.0
N1467 N 0.26222 0.27284 0.86993 0.0
C1468 C 0.14665 0.34113 0.95269 0.0
O1469 O 0.14396 0.30963 0.98258 0.0
O1470 O 0.20419 0.14972 0.8589 0.0
Zn1471 Zn 0.21073 0.27685 0.91664 0.0
N1472 N 0.19647 0.20569 0.76674 0.0
C1473 C 0.18259 0.2513 0.70445 0.0
C1474 C 0.20334 0.24431 0.74481 0.0
C1475 C 0.17136 0.17277 0.74987 0.0
N1476 N 0.15621 0.2192 0.68809 0.0
C1477 C 0.15035 0.17989 0.70938 0.0
O1478 O 0.16181 0.23 0.91432 0.0
C1479 C 0.13515 0.22267 0.8833 0.0
O1480 O 0.14521 0.23597 0.84498 0.0
H1481 H 0.22167 0.27071 0.76029 0.0
H1482 H 0.16534 0.14318 0.7692 0.0
C1483 C 0.25916 0.29113 0.99881 0.0
C1484 C 0.26832 0.28242 1.04371 0.0
C1485 C 0.22186 0.22 1.04179 0.0
C1486 C 0.21235 0.22888 0.99773 0.0
N1487 N 0.23161 0.26377 0.97651 0.0
N1488 N 0.24958 0.24692 0.06376 0.0
H1489 H 0.27283 0.31961 0.98199 0.0
C1490 C 0.22031 0.15036 0.89783 0.0
O1491 O 0.24134 0.18559 0.91096 0.0
O1492 O 0.17404 0.33639 0.92057 0.0
H1493 H 0.18857 0.20824 0.98165 0.0
H1494 H 0.18634 0.28227 0.68683 0.0
H1495 H 0.20644 0.19267 0.05884 0.0
Zn1496 Zn 1.03248 0.13147 0.92711 0.0
C1497 C 0.96861 0.04833 1.00217 0.0
N1498 N 0.9787 1.02659 0.96452 0.0
C1499 C 1.02141 1.03736 0.95731 0.0
N1500 N 1.0275 0.07903 0.9736 0.0
N1501 N 0.99633 0.08351 1.00474 0.0
C1502 C 0.91013 0.12364 0.93711 0.0
O1503 O 0.94585 0.10164 0.92671 0.0
O1504 O 0.09166 0.16744 0.92246 0.0
Zn1505 Zn 0.96389 0.13825 1.01312 0.0
N1506 N 1.02046 0.11322 0.86693 0.0
C1507 C 0.98839 0.13086 0.79657 0.0
C1508 C 0.99377 0.13964 0.84123 0.0
C1509 C 1.04134 0.07786 0.8494 0.0
N1510 N 1.00867 0.0951 0.77929 0.0
C1511 C 1.03477 0.06819 0.80456 0.0
O1512 O 0.99337 0.19628 0.99854 0.0
C1513 C 0.9809 0.20739 0.9601 0.0
O1514 O 0.98619 0.18025 0.92941 0.0
H1515 H 0.97758 0.16849 0.85428 0.0
H1516 H 0.0625 0.05755 0.87029 0.0
C1517 C 0.92126 0.16669 0.09109 0.0
C1518 C 0.92604 0.18314 0.13378 0.0
C1519 C 0.99772 0.15079 0.13924 0.0
C1520 C 0.99317 0.13465 0.09684 0.0
N1521 N 0.95558 0.14369 0.07363 0.0
N1522 N 0.96436 0.17513 0.15629 0.0
H1523 H 0.89252 0.17466 0.071 0.0
C1524 C 0.09485 0.19594 0.89078 0.0
O1525 O 0.06177 0.20109 0.86305 0.0
O1526 O 0.9068 0.13977 0.9758 0.0
H1527 H 1.02063 0.11793 0.08129 0.0
H1528 H 0.96783 0.15194 0.77588 0.0
H1529 H 1.02778 0.14515 0.15804 0.0
Zn1530 Zn 0.70636 0.2924 0.17537 0.0
C1531 C 0.7845 0.36104 0.25029 0.0
N1532 N 0.80707 0.35093 0.21324 0.0
C1533 C 0.79776 0.30783 0.20747 0.0
N1534 N 0.75608 0.30097 0.22304 0.0
N1535 N 0.74969 0.33289 0.25304 0.0
C1536 C 0.71315 0.42862 0.19431 0.0
O1537 O 0.73846 0.39636 0.18067 0.0
O1538 O 0.66207 0.24007 0.18416 0.0
Zn1539 Zn 0.69286 0.36392 0.25982 0.0
N1540 N 0.72743 0.28168 0.11527 0.0
C1541 C 0.70212 0.27082 1.04113 0.0
C1542 C 0.69456 0.27099 0.08627 0.0
C1543 C 0.76825 0.2918 0.09994 0.0
N1544 N 0.74269 0.28082 1.02593 0.0
C1545 C 0.7761 0.29124 0.05408 0.0
O1546 O 0.63927 0.34112 0.22701 0.0
C1547 C 0.63715 0.3566 0.18799 0.0
O1548 O 0.66802 0.34708 0.1617 0.0
H1549 H 0.66168 0.2651 0.09715 0.0
H1550 H 0.7936 0.30235 0.12262 0.0
C1551 C 0.65303 0.39695 0.33911 0.0
C1552 C 0.63704 0.39231 0.38234 0.0
C1553 C 0.66366 0.31817 0.38411 0.0
C1554 C 0.68067 0.32343 0.34179 0.0
N1555 N 0.67511 0.36264 0.3203 0.0
N1556 N 0.64249 0.35265 0.40335 0.0
H1557 H 0.64867 0.42746 0.32077 0.0
C1558 C 0.62293 0.24156 0.16739 0.0
O1559 O 0.60735 0.27912 0.15216 0.0
O1560 O 0.69617 0.42614 0.23279 0.0
H1561 H 0.69719 0.2962 0.32558 0.0
H1562 H 0.67527 0.26513 1.0183 0.0
H1563 H 0.66737 0.28708 0.40165 0.0
Zn1564 Zn 0.61742 0.14684 0.07892 0.0
C1565 C 0.55914 1.04273 0.12701 0.0
N1566 N 0.60256 1.03375 0.12178 0.0
C1567 C 0.61325 0.0576 0.08551 0.0
N1568 N 0.58442 0.09197 0.08276 0.0
N1569 N 0.55144 0.08451 0.1114 0.0
C1570 C 0.48057 0.21544 0.16061 0.0
O1571 O 0.51816 0.23378 0.17149 0.0
O1572 O 0.67655 0.14156 0.11186 0.0
Zn1573 Zn 0.53609 0.13279 0.15816 0.0
N1574 N 0.62208 0.16421 1.01847 0.0
C1575 C 0.57824 0.18888 0.9578 0.0
C1576 C 0.58181 0.16815 0.9987 0.0
C1577 C 0.65965 0.1787 0.99852 0.0
N1578 N 0.61514 0.20515 0.93866 0.0
C1579 C 0.65592 0.20074 0.95765 0.0
O1580 O 0.58791 0.17214 0.17566 0.0
C1581 C 0.60227 0.20142 0.14975 0.0
O1582 O 0.59123 0.1998 0.10927 0.0
H1583 H 0.5525 0.15693 1.01568 0.0
H1584 H 0.6912 0.17559 1.01537 0.0
C1585 C 0.53591 0.07003 0.23436 0.0
C1586 C 0.53599 0.06342 0.28062 0.0
C1587 C 0.51387 0.13762 0.29068 0.0
C1588 C 0.51373 0.14404 0.24526 0.0
N1589 N 0.52489 0.11043 0.21762 0.0
N1590 N 0.52495 0.09757 0.30743 0.0
H1591 H 0.547 1.0443 0.21248 0.0
C1592 C 0.67446 0.12508 0.15071 0.0
O1593 O 0.6393 0.10285 0.16209 0.0
O1594 O 0.48076 0.175 0.14759 0.0
H1595 H 0.5079 0.17677 0.23266 0.0
H1596 H 0.54637 0.193 0.94182 0.0
H1597 H 0.5082 0.16508 0.31246 0.0
Zn1598 Zn 0.46289 0.45037 0.0872 0.0
C1599 C 0.52234 0.55169 0.13495 0.0
N1600 N 0.4795 0.56262 0.12804 0.0
C1601 C 0.46896 0.54053 0.09076 0.0
N1602 N 0.49647 0.50483 0.08884 0.0
N1603 N 0.52864 0.50987 0.11922 0.0
C1604 C 0.5954 0.37638 0.17136 0.0
O1605 O 0.55862 0.35772 0.18425 0.0
O1606 O 0.40484 0.45641 0.12248 0.0
Zn1607 Zn 0.53979 0.4579 0.16583 0.0
N1608 N 0.4605 0.42935 1.02869 0.0
C1609 C 0.50963 0.38746 0.98453 0.0
C1610 C 0.50252 0.41782 1.01779 0.0
C1611 C 0.42485 0.41397 1.00601 0.0
N1612 N 0.47442 0.3715 0.96217 0.0
C1613 C 0.43223 0.38451 0.97106 0.0
O1614 O 0.48664 0.41736 0.18186 0.0
C1615 C 0.47752 0.3891 0.15285 0.0
O1616 O 0.49167 0.39638 0.11436 0.0
H1617 H 0.53007 0.42926 1.03757 0.0
H1618 H 0.3918 0.42336 1.0158 0.0
C1619 C 0.54827 0.51901 0.24058 0.0
C1620 C 0.54996 0.52643 0.28633 0.0
C1621 C 0.56239 0.45039 0.29921 0.0
C1622 C 0.5594 0.44293 0.25414 0.0
N1623 N 0.55249 0.47721 0.22539 0.0
N1624 N 0.55733 0.49193 0.31442 0.0
H1625 H 0.5408 0.54564 0.21794 0.0
C1626 C 0.40787 0.47257 0.16137 0.0
O1627 O 0.44377 0.49404 0.17222 0.0
O1628 O 0.59431 0.41601 0.15583 0.0
H1629 H 0.56008 0.40949 0.24293 0.0
H1630 H 0.54271 0.37615 0.97695 0.0
H1631 H 0.56605 0.42307 0.32212 0.0
loop_
_geom_bond_atom_site_label_1
_geom_bond_atom_site_label_2
_geom_bond_distance
_geom_bond_site_symmetry_2
_ccdc_geom_bond_type
Zn0 N4 2.020 . S
Zn0 O8 2.019 . S
Zn0 N10 2.119 . S
Zn0 O18 1.975 . S
C1 N2 1.334 . S
C1 N5 1.336 . S
N2 C1 1.334 . S
N2 C3 1.334 . S
C3 N2 1.334 . S
C3 N4 1.336 . S
N4 Zn0 2.020 . S
N4 C3 1.336 . S
N4 N5 1.354 . S
N5 C1 1.336 . S
N5 N4 1.354 . S
N5 Zn9 2.020 . S
C6 O7 1.244 . S
C6 O30 1.257 . S
O7 C6 1.244 . S
O8 Zn0 2.019 . S
O8 C28 1.257 . S
Zn9 N5 2.020 . S
Zn9 O16 1.975 . S
Zn9 N25 2.119 . S
Zn9 O30 2.019 . S
N10 Zn0 2.119 . S
N10 C12 1.334 . S
N10 C13 1.328 . S
C11 C12 1.391 . S
C11 N14 1.329 1_455 S
C11 H32 0.930 . S
C12 N10 1.334 . S
C12 C11 1.391 . S
C12 H19 0.930 . S
C13 N10 1.328 . S
C13 C15 1.392 . S
C13 H20 0.930 . S
N14 C11 1.329 1_655 S
N14 C15 1.331 1_655 S
C15 C13 1.392 . S
C15 N14 1.331 1_455 S
O16 Zn9 1.975 . S
O16 C17 1.252 . S
C17 O16 1.252 . S
C17 O18 1.252 . S
O18 Zn0 1.975 . S
O18 C17 1.252 . S
H19 C12 0.930 . S
H20 C13 0.930 . S
C21 C22 1.392 . S
C21 N25 1.328 . S
C21 H27 0.930 . S
C22 C21 1.392 . S
C22 N26 1.331 . S
C23 C24 1.391 . S
C23 N26 1.329 . S
C23 H33 0.930 . S
C24 C23 1.391 . S
C24 N25 1.334 . S
C24 H31 0.930 . S
N25 Zn9 2.119 . S
N25 C21 1.328 . S
N25 C24 1.334 . S
N26 C22 1.331 . S
N26 C23 1.329 . S
H27 C21 0.930 . S
C28 O8 1.257 . S
C28 O29 1.244 . S
O29 C28 1.244 . S
O30 C6 1.257 . S
O30 Zn9 2.019 . S
H31 C24 0.930 . S
H32 C11 0.930 . S
H33 C23 0.930 . S
Zn34 N38 2.020 . S
Zn34 O42 2.019 . S
Zn34 N44 2.119 . S
Zn34 O52 1.975 . S
C35 N36 1.334 . S
C35 N39 1.336 . S
N36 C35 1.334 . S
N36 C37 1.334 . S
C37 N36 1.334 . S
C37 N38 1.336 . S
N38 Zn34 2.020 . S
N38 C37 1.336 . S
N38 N39 1.354 . S
N39 C35 1.336 . S
N39 N38 1.354 . S
N39 Zn43 2.020 . S
C40 O41 1.244 . S
C40 O64 1.257 . S
O41 C40 1.244 . S
O42 Zn34 2.019 . S
O42 C62 1.257 . S
Zn43 N39 2.020 . S
Zn43 O50 1.975 . S
Zn43 N59 2.119 . S
Zn43 O64 2.019 1_554 S
N44 Zn34 2.119 . S
N44 C46 1.334 . S
N44 C47 1.328 . S
C45 C46 1.391 . S
C45 N48 1.329 . S
C45 H66 0.930 . S
C46 N44 1.334 . S
C46 C45 1.391 . S
C46 H53 0.930 . S
C47 N44 1.328 . S
C47 C49 1.392 . S
C47 H54 0.930 . S
N48 C45 1.329 . S
N48 C49 1.331 . S
C49 C47 1.392 . S
C49 N48 1.331 . S
O50 Zn43 1.975 . S
O50 C51 1.252 . S
C51 O50 1.252 . S
C51 O52 1.252 . S
O52 Zn34 1.975 . S
O52 C51 1.252 . S
H53 C46 0.930 . S
H54 C47 0.930 . S
C55 C56 1.392 . S
C55 N59 1.328 . S
C55 H61 0.930 1_554 S
C56 C55 1.392 . S
C56 N60 1.331 . S
C57 C58 1.391 . S
C57 N60 1.329 . S
C57 H67 0.930 . S
C58 C57 1.391 . S
C58 N59 1.334 . S
C58 H65 0.930 . S
N59 Zn43 2.119 . S
N59 C55 1.328 . S
N59 C58 1.334 . S
N60 C56 1.331 . S
N60 C57 1.329 . S
H61 C55 0.930 1_556 S
C62 O42 1.257 . S
C62 O63 1.244 . S
O63 C62 1.244 . S
O64 C40 1.257 . S
O64 Zn43 2.019 1_556 S
H65 C58 0.930 . S
H66 C45 0.930 . S
H67 C57 0.930 . S
Zn68 N72 2.020 . S
Zn68 O76 2.019 . S
Zn68 N78 2.119 . S
Zn68 O86 1.975 . S
C69 N70 1.334 . S
C69 N73 1.336 . S
N70 C69 1.334 . S
N70 C71 1.334 . S
C71 N70 1.334 . S
C71 N72 1.336 . S
N72 Zn68 2.020 . S
N72 C71 1.336 . S
N72 N73 1.354 . S
N73 C69 1.336 . S
N73 N72 1.354 . S
N73 Zn77 2.020 . S
C74 O75 1.244 . S
C74 O98 1.257 . S
O75 C74 1.244 . S
O76 Zn68 2.019 . S
O76 C96 1.257 . S
Zn77 N73 2.020 . S
Zn77 O84 1.975 . S
Zn77 N93 2.119 . S
Zn77 O98 2.019 . S
N78 Zn68 2.119 . S
N78 C80 1.334 . S
N78 C81 1.328 . S
C79 C80 1.391 . S
C79 N82 1.329 . S
C79 H100 0.930 . S
C80 N78 1.334 . S
C80 C79 1.391 . S
C80 H87 0.930 . S
C81 N78 1.328 . S
C81 C83 1.392 . S
C81 H88 0.930 . S
N82 C79 1.329 . S
N82 C83 1.331 . S
C83 C81 1.392 . S
C83 N82 1.331 . S
O84 Zn77 1.975 . S
O84 C85 1.252 . S
C85 O84 1.252 . S
C85 O86 1.252 . S
O86 Zn68 1.975 . S
O86 C85 1.252 . S
H87 C80 0.930 . S
H88 C81 0.930 . S
C89 C90 1.392 . S
C89 N93 1.328 . S
C89 H95 0.930 . S
C90 C89 1.392 . S
C90 N94 1.331 1_655 S
C91 C92 1.391 . S
C91 N94 1.329 1_655 S
C91 H101 0.930 . S
C92 C91 1.391 . S
C92 N93 1.334 . S
C92 H99 0.930 . S
N93 Zn77 2.119 . S
N93 C89 1.328 . S
N93 C92 1.334 . S
N94 C90 1.331 1_455 S
N94 C91 1.329 1_455 S
H95 C89 0.930 . S
C96 O76 1.257 . S
C96 O97 1.244 . S
O97 C96 1.244 . S
O98 C74 1.257 . S
O98 Zn77 2.019 . S
H99 C92 0.930 . S
H100 C79 0.930 . S
H101 C91 0.930 . S
Zn102 N106 2.020 . S
Zn102 O110 2.019 . S
Zn102 N112 2.119 . S
Zn102 O120 1.975 . S
C103 N104 1.334 . S
C103 N107 1.336 . S
N104 C103 1.334 . S
N104 C105 1.334 . S
C105 N104 1.334 . S
C105 N106 1.336 . S
N106 Zn102 2.020 . S
N106 C105 1.336 . S
N106 N107 1.354 . S
N107 C103 1.336 . S
N107 N106 1.354 . S
N107 Zn111 2.020 . S
C108 O109 1.244 . S
C108 O132 1.257 . S
O109 C108 1.244 . S
O110 Zn102 2.019 . S
O110 C130 1.257 . S
Zn111 N107 2.020 . S
Zn111 O118 1.975 . S
Zn111 N127 2.119 . S
Zn111 O132 2.019 1_554 S
N112 Zn102 2.119 . S
N112 C114 1.334 . S
N112 C115 1.328 1_565 S
C113 C114 1.391 1_545 S
C113 N116 1.329 . S
C113 H134 0.930 . S
C114 N112 1.334 . S
C114 C113 1.391 1_565 S
C114 H121 0.930 . S
C115 N112 1.328 1_545 S
C115 C117 1.392 . S
C115 H122 0.930 . S
N116 C113 1.329 . S
N116 C117 1.331 . S
C117 C115 1.392 . S
C117 N116 1.331 . S
O118 Zn111 1.975 . S
O118 C119 1.252 . S
C119 O118 1.252 . S
C119 O120 1.252 . S
O120 Zn102 1.975 . S
O120 C119 1.252 . S
H121 C114 0.930 . S
H122 C115 0.930 . S
C123 C124 1.392 . S
C123 N127 1.328 . S
C123 H129 0.930 1_554 S
C124 C123 1.392 . S
C124 N128 1.331 . S
C125 C126 1.391 . S
C125 N128 1.329 . S
C125 H135 0.930 . S
C126 C125 1.391 . S
C126 N127 1.334 . S
C126 H133 0.930 . S
N127 Zn111 2.119 . S
N127 C123 1.328 . S
N127 C126 1.334 . S
N128 C124 1.331 . S
N128 C125 1.329 . S
H129 C123 0.930 1_556 S
C130 O110 1.257 . S
C130 O131 1.244 . S
O131 C130 1.244 . S
O132 C108 1.257 . S
O132 Zn111 2.019 1_556 S
H133 C126 0.930 . S
H134 C113 0.930 . S
H135 C125 0.930 . S
Zn136 N140 2.020 . S
Zn136 O144 2.019 . S
Zn136 N146 2.119 . S
Zn136 O154 1.975 . S
C137 N138 1.334 . S
C137 N141 1.336 . S
N138 C137 1.334 . S
N138 C139 1.334 . S
C139 N138 1.334 . S
C139 N140 1.336 . S
N140 Zn136 2.020 . S
N140 C139 1.336 . S
N140 N141 1.354 . S
N141 C137 1.336 . S
N141 N140 1.354 . S
N141 Zn145 2.020 . S
C142 O143 1.244 . S
C142 O166 1.257 . S
O143 C142 1.244 . S
O144 Zn136 2.019 . S
O144 C164 1.257 . S
Zn145 N141 2.020 . S
Zn145 O152 1.975 . S
Zn145 N161 2.119 . S
Zn145 O166 2.019 . S
N146 Zn136 2.119 . S
N146 C148 1.334 . S
N146 C149 1.328 . S
C147 C148 1.391 . S
C147 N150 1.329 1_455 S
C147 H168 0.930 . S
C148 N146 1.334 . S
C148 C147 1.391 . S
C148 H155 0.930 . S
C149 N146 1.328 . S
C149 C151 1.392 . S
C149 H156 0.930 . S
N150 C147 1.329 1_655 S
N150 C151 1.331 1_655 S
C151 C149 1.392 . S
C151 N150 1.331 1_455 S
O152 Zn145 1.975 . S
O152 C153 1.252 . S
C153 O152 1.252 . S
C153 O154 1.252 . S
O154 Zn136 1.975 . S
O154 C153 1.252 . S
H155 C148 0.930 . S
H156 C149 0.930 . S
C157 C158 1.392 . S
C157 N161 1.328 . S
C157 H163 0.930 . S
C158 C157 1.392 . S
C158 N162 1.331 . S
C159 C160 1.391 . S
C159 N162 1.329 . S
C159 H169 0.930 . S
C160 C159 1.391 . S
C160 N161 1.334 . S
C160 H167 0.930 . S
N161 Zn145 2.119 . S
N161 C157 1.328 . S
N161 C160 1.334 . S
N162 C158 1.331 . S
N162 C159 1.329 . S
H163 C157 0.930 . S
C164 O144 1.257 . S
C164 O165 1.244 . S
O165 C164 1.244 . S
O166 C142 1.257 . S
O166 Zn145 2.019 . S
H167 C160 0.930 . S
H168 C147 0.930 . S
H169 C159 0.930 . S
Zn170 N174 2.020 . S
Zn170 O178 2.019 1_556 S
Zn170 N180 2.119 . S
Zn170 O188 1.975 . S
C171 N172 1.334 1_655 S
C171 N175 1.336 . S
N172 C171 1.334 1_455 S
N172 C173 1.334 1_455 S
C173 N172 1.334 1_655 S
C173 N174 1.336 . S
N174 Zn170 2.020 . S
N174 C173 1.336 . S
N174 N175 1.354 . S
N175 C171 1.336 . S
N175 N174 1.354 . S
N175 Zn179 2.020 . S
C176 O177 1.244 . S
C176 O200 1.257 . S
O177 C176 1.244 . S
O178 Zn170 2.019 1_554 S
O178 C198 1.257 . S
Zn179 N175 2.020 . S
Zn179 O186 1.975 . S
Zn179 N195 2.119 . S
Zn179 O200 2.019 . S
N180 Zn170 2.119 . S
N180 C182 1.334 . S
N180 C183 1.328 . S
C181 C182 1.391 . S
C181 N184 1.329 . S
C181 H202 0.930 . S
C182 N180 1.334 . S
C182 C181 1.391 . S
C182 H189 0.930 . S
C183 N180 1.328 . S
C183 C185 1.392 . S
C183 H190 0.930 1_556 S
N184 C181 1.329 . S
N184 C185 1.331 . S
C185 C183 1.392 . S
C185 N184 1.331 . S
O186 Zn179 1.975 . S
O186 C187 1.252 . S
C187 O186 1.252 . S
C187 O188 1.252 . S
O188 Zn170 1.975 . S
O188 C187 1.252 . S
H189 C182 0.930 . S
H190 C183 0.930 1_554 S
C191 C192 1.392 . S
C191 N195 1.328 . S
C191 H197 0.930 . S
C192 C191 1.392 . S
C192 N196 1.331 . S
C193 C194 1.391 . S
C193 N196 1.329 . S
C193 H203 0.930 . S
C194 C193 1.391 . S
C194 N195 1.334 . S
C194 H201 0.930 . S
N195 Zn179 2.119 . S
N195 C191 1.328 . S
N195 C194 1.334 . S
N196 C192 1.331 . S
N196 C193 1.329 . S
H197 C191 0.930 . S
C198 O178 1.257 . S
C198 O199 1.244 . S
O199 C198 1.244 . S
O200 C176 1.257 . S
O200 Zn179 2.019 . S
H201 C194 0.930 . S
H202 C181 0.930 . S
H203 C193 0.930 . S
Zn204 N208 2.020 . S
Zn204 O212 2.019 . S
Zn204 N214 2.119 . S
Zn204 O222 1.975 . S
C205 N206 1.334 . S
C205 N209 1.336 . S
N206 C205 1.334 . S
N206 C207 1.334 . S
C207 N206 1.334 . S
C207 N208 1.336 . S
N208 Zn204 2.020 . S
N208 C207 1.336 . S
N208 N209 1.354 . S
N209 C205 1.336 . S
N209 N208 1.354 . S
N209 Zn213 2.020 . S
C210 O211 1.244 . S
C210 O234 1.257 . S
O211 C210 1.244 . S
O212 Zn204 2.019 . S
O212 C232 1.257 . S
Zn213 N209 2.020 . S
Zn213 O220 1.975 . S
Zn213 N229 2.119 . S
Zn213 O234 2.019 . S
N214 Zn204 2.119 . S
N214 C216 1.334 . S
N214 C217 1.328 . S
C215 C216 1.391 . S
C215 N218 1.329 1_655 S
C215 H236 0.930 . S
C216 N214 1.334 . S
C216 C215 1.391 . S
C216 H223 0.930 . S
C217 N214 1.328 . S
C217 C219 1.392 . S
C217 H224 0.930 . S
N218 C215 1.329 1_455 S
N218 C219 1.331 1_455 S
C219 C217 1.392 . S
C219 N218 1.331 1_655 S
O220 Zn213 1.975 . S
O220 C221 1.252 . S
C221 O220 1.252 . S
C221 O222 1.252 . S
O222 Zn204 1.975 . S
O222 C221 1.252 . S
H223 C216 0.930 . S
H224 C217 0.930 . S
C225 C226 1.392 . S
C225 N229 1.328 . S
C225 H231 0.930 . S
C226 C225 1.392 . S
C226 N230 1.331 . S
C227 C228 1.391 . S
C227 N230 1.329 . S
C227 H237 0.930 . S
C228 C227 1.391 . S
C228 N229 1.334 . S
C228 H235 0.930 . S
N229 Zn213 2.119 . S
N229 C225 1.328 . S
N229 C228 1.334 . S
N230 C226 1.331 . S
N230 C227 1.329 . S
H231 C225 0.930 . S
C232 O212 1.257 . S
C232 O233 1.244 . S
O233 C232 1.244 . S
O234 C210 1.257 . S
O234 Zn213 2.019 . S
H235 C228 0.930 . S
H236 C215 0.930 . S
H237 C227 0.930 . S
Zn238 N242 2.020 . S
Zn238 O246 2.019 . S
Zn238 N248 2.119 . S
Zn238 O256 1.975 . S
C239 N240 1.334 1_455 S
C239 N243 1.336 . S
N240 C239 1.334 1_655 S
N240 C241 1.334 1_655 S
C241 N240 1.334 1_455 S
C241 N242 1.336 . S
N242 Zn238 2.020 . S
N242 C241 1.336 . S
N242 N243 1.354 . S
N243 C239 1.336 . S
N243 N242 1.354 . S
N243 Zn247 2.020 . S
C244 O245 1.244 . S
C244 O268 1.257 . S
O245 C244 1.244 . S
O246 Zn238 2.019 . S
O246 C266 1.257 . S
Zn247 N243 2.020 . S
Zn247 O254 1.975 . S
Zn247 N263 2.119 . S
Zn247 O268 2.019 1_556 S
N248 Zn238 2.119 . S
N248 C250 1.334 . S
N248 C251 1.328 1_565 S
C249 C250 1.391 1_545 S
C249 N252 1.329 . S
C249 H270 0.930 . S
C250 N248 1.334 . S
C250 C249 1.391 1_565 S
C250 H257 0.930 . S
C251 N248 1.328 1_545 S
C251 C253 1.392 . S
C251 H258 0.930 . S
N252 C249 1.329 . S
N252 C253 1.331 . S
C253 C251 1.392 . S
C253 N252 1.331 . S
O254 Zn247 1.975 . S
O254 C255 1.252 . S
C255 O254 1.252 . S
C255 O256 1.252 . S
O256 Zn238 1.975 . S
O256 C255 1.252 . S
H257 C250 0.930 . S
H258 C251 0.930 . S
C259 C260 1.392 . S
C259 N263 1.328 . S
C259 H265 0.930 1_556 S
C260 C259 1.392 . S
C260 N264 1.331 . S
C261 C262 1.391 . S
C261 N264 1.329 . S
C261 H271 0.930 . S
C262 C261 1.391 . S
C262 N263 1.334 . S
C262 H269 0.930 . S
N263 Zn247 2.119 . S
N263 C259 1.328 . S
N263 C262 1.334 . S
N264 C260 1.331 . S
N264 C261 1.329 . S
H265 C259 0.930 1_554 S
C266 O246 1.257 . S
C266 O267 1.244 . S
O267 C266 1.244 . S
O268 C244 1.257 . S
O268 Zn247 2.019 1_554 S
H269 C262 0.930 . S
H270 C249 0.930 . S
H271 C261 0.930 . S
Zn272 N276 2.020 . S
Zn272 O280 2.019 . S
Zn272 N282 2.119 . S
Zn272 O290 1.975 . S
C273 N274 1.334 . S
C273 N277 1.336 . S
N274 C273 1.334 . S
N274 C275 1.334 . S
C275 N274 1.334 . S
C275 N276 1.336 . S
N276 Zn272 2.020 . S
N276 C275 1.336 . S
N276 N277 1.354 . S
N277 C273 1.336 . S
N277 N276 1.354 . S
N277 Zn281 2.020 . S
C278 O279 1.244 . S
C278 O302 1.257 . S
O279 C278 1.244 . S
O280 Zn272 2.019 . S
O280 C300 1.257 . S
Zn281 N277 2.020 . S
Zn281 O288 1.975 . S
Zn281 N297 2.119 . S
Zn281 O302 2.019 . S
N282 Zn272 2.119 . S
N282 C284 1.334 . S
N282 C285 1.328 . S
C283 C284 1.391 . S
C283 N286 1.329 . S
C283 H304 0.930 . S
C284 N282 1.334 . S
C284 C283 1.391 . S
C284 H291 0.930 . S
C285 N282 1.328 . S
C285 C287 1.392 . S
C285 H292 0.930 . S
N286 C283 1.329 . S
N286 C287 1.331 . S
C287 C285 1.392 . S
C287 N286 1.331 . S
O288 Zn281 1.975 . S
O288 C289 1.252 . S
C289 O288 1.252 . S
C289 O290 1.252 . S
O290 Zn272 1.975 . S
O290 C289 1.252 . S
H291 C284 0.930 . S
H292 C285 0.930 . S
C293 C294 1.392 . S
C293 N297 1.328 . S
C293 H299 0.930 . S
C294 C293 1.392 . S
C294 N298 1.331 1_545 S
C295 C296 1.391 . S
C295 N298 1.329 1_545 S
C295 H305 0.930 . S
C296 C295 1.391 . S
C296 N297 1.334 . S
C296 H303 0.930 . S
N297 Zn281 2.119 . S
N297 C293 1.328 . S
N297 C296 1.334 . S
N298 C294 1.331 1_565 S
N298 C295 1.329 1_565 S
H299 C293 0.930 . S
C300 O280 1.257 . S
C300 O301 1.244 . S
O301 C300 1.244 . S
O302 C278 1.257 . S
O302 Zn281 2.019 . S
H303 C296 0.930 . S
H304 C283 0.930 . S
H305 C295 0.930 . S
Zn306 N310 2.020 . S
Zn306 O314 2.019 . S
Zn306 N316 2.119 . S
Zn306 O324 1.975 . S
C307 N308 1.334 1_556 S
C307 N311 1.336 . S
N308 C307 1.334 1_554 S
N308 C309 1.334 1_554 S
C309 N308 1.334 1_556 S
C309 N310 1.336 . S
N310 Zn306 2.020 . S
N310 C309 1.336 . S
N310 N311 1.354 . S
N311 C307 1.336 . S
N311 N310 1.354 . S
N311 Zn315 2.020 . S
C312 O313 1.244 . S
C312 O336 1.257 . S
O313 C312 1.244 . S
O314 Zn306 2.019 . S
O314 C334 1.257 . S
Zn315 N311 2.020 . S
Zn315 O322 1.975 . S
Zn315 N331 2.119 . S
Zn315 O336 2.019 . S
N316 Zn306 2.119 . S
N316 C318 1.334 . S
N316 C319 1.328 . S
C317 C318 1.391 . S
C317 N320 1.329 . S
C317 H338 0.930 . S
C318 N316 1.334 . S
C318 C317 1.391 . S
C318 H325 0.930 . S
C319 N316 1.328 . S
C319 C321 1.392 . S
C319 H326 0.930 . S
N320 C317 1.329 . S
N320 C321 1.331 . S
C321 C319 1.392 . S
C321 N320 1.331 . S
O322 Zn315 1.975 . S
O322 C323 1.252 . S
C323 O322 1.252 . S
C323 O324 1.252 . S
O324 Zn306 1.975 . S
O324 C323 1.252 . S
H325 C318 0.930 . S
H326 C319 0.930 . S
C327 C328 1.392 . S
C327 N331 1.328 . S
C327 H333 0.930 . S
C328 C327 1.392 . S
C328 N332 1.331 . S
C329 C330 1.391 . S
C329 N332 1.329 . S
C329 H339 0.930 . S
C330 C329 1.391 . S
C330 N331 1.334 . S
C330 H337 0.930 . S
N331 Zn315 2.119 . S
N331 C327 1.328 . S
N331 C330 1.334 . S
N332 C328 1.331 . S
N332 C329 1.329 . S
H333 C327 0.930 . S
C334 O314 1.257 . S
C334 O335 1.244 . S
O335 C334 1.244 . S
O336 C312 1.257 . S
O336 Zn315 2.019 . S
H337 C330 0.930 . S
H338 C317 0.930 . S
H339 C329 0.930 . S
Zn340 N344 2.020 . S
Zn340 O348 2.019 . S
Zn340 N350 2.119 . S
Zn340 O358 1.975 . S
C341 N342 1.334 . S
C341 N345 1.336 . S
N342 C341 1.334 . S
N342 C343 1.334 . S
C343 N342 1.334 . S
C343 N344 1.336 . S
N344 Zn340 2.020 . S
N344 C343 1.336 . S
N344 N345 1.354 . S
N345 C341 1.336 . S
N345 N344 1.354 . S
N345 Zn349 2.020 . S
C346 O347 1.244 . S
C346 O370 1.257 . S
O347 C346 1.244 . S
O348 Zn340 2.019 . S
O348 C368 1.257 . S
Zn349 N345 2.020 . S
Zn349 O356 1.975 . S
Zn349 N365 2.119 . S
Zn349 O370 2.019 . S
N350 Zn340 2.119 . S
N350 C352 1.334 . S
N350 C353 1.328 . S
C351 C352 1.391 . S
C351 N354 1.329 . S
C351 H372 0.930 . S
C352 N350 1.334 . S
C352 C351 1.391 . S
C352 H359 0.930 . S
C353 N350 1.328 . S
C353 C355 1.392 . S
C353 H360 0.930 . S
N354 C351 1.329 . S
N354 C355 1.331 . S
C355 C353 1.392 . S
C355 N354 1.331 . S
O356 Zn349 1.975 . S
O356 C357 1.252 . S
C357 O356 1.252 . S
C357 O358 1.252 . S
O358 Zn340 1.975 . S
O358 C357 1.252 . S
H359 C352 0.930 . S
H360 C353 0.930 . S
C361 C362 1.392 . S
C361 N365 1.328 . S
C361 H367 0.930 . S
C362 C361 1.392 . S
C362 N366 1.331 . S
C363 C364 1.391 . S
C363 N366 1.329 . S
C363 H373 0.930 . S
C364 C363 1.391 . S
C364 N365 1.334 . S
C364 H371 0.930 . S
N365 Zn349 2.119 . S
N365 C361 1.328 . S
N365 C364 1.334 . S
N366 C362 1.331 . S
N366 C363 1.329 . S
H367 C361 0.930 . S
C368 O348 1.257 . S
C368 O369 1.244 . S
O369 C368 1.244 . S
O370 C346 1.257 . S
O370 Zn349 2.019 . S
H371 C364 0.930 . S
H372 C351 0.930 . S
H373 C363 0.930 . S
Zn374 N378 2.020 . S
Zn374 O382 2.019 1_565 S
Zn374 N384 2.119 . S
Zn374 O392 1.975 . S
C375 N376 1.334 1_556 S
C375 N379 1.336 . S
N376 C375 1.334 1_554 S
N376 C377 1.334 1_554 S
C377 N376 1.334 1_556 S
C377 N378 1.336 . S
N378 Zn374 2.020 . S
N378 C377 1.336 . S
N378 N379 1.354 . S
N379 C375 1.336 . S
N379 N378 1.354 . S
N379 Zn383 2.020 . S
C380 O381 1.244 . S
C380 O404 1.257 . S
O381 C380 1.244 . S
O382 Zn374 2.019 1_545 S
O382 C402 1.257 . S
Zn383 N379 2.020 . S
Zn383 O390 1.975 . S
Zn383 N399 2.119 . S
Zn383 O404 2.019 . S
N384 Zn374 2.119 . S
N384 C386 1.334 . S
N384 C387 1.328 . S
C385 C386 1.391 . S
C385 N388 1.329 . S
C385 H406 0.930 . S
C386 N384 1.334 . S
C386 C385 1.391 . S
C386 H393 0.930 . S
C387 N384 1.328 . S
C387 C389 1.392 . S
C387 H394 0.930 1_565 S
N388 C385 1.329 . S
N388 C389 1.331 . S
C389 C387 1.392 . S
C389 N388 1.331 . S
O390 Zn383 1.975 . S
O390 C391 1.252 . S
C391 O390 1.252 . S
C391 O392 1.252 . S
O392 Zn374 1.975 . S
O392 C391 1.252 . S
H393 C386 0.930 . S
H394 C387 0.930 1_545 S
C395 C396 1.392 . S
C395 N399 1.328 . S
C395 H401 0.930 . S
C396 C395 1.392 . S
C396 N400 1.331 . S
C397 C398 1.391 . S
C397 N400 1.329 . S
C397 H407 0.930 . S
C398 C397 1.391 . S
C398 N399 1.334 . S
C398 H405 0.930 . S
N399 Zn383 2.119 . S
N399 C395 1.328 . S
N399 C398 1.334 . S
N400 C396 1.331 . S
N400 C397 1.329 . S
H401 C395 0.930 . S
C402 O382 1.257 . S
C402 O403 1.244 . S
O403 C402 1.244 . S
O404 C380 1.257 . S
O404 Zn383 2.019 . S
H405 C398 0.930 . S
H406 C385 0.930 . S
H407 C397 0.930 . S
Zn408 N412 2.020 . S
Zn408 O416 2.019 . S
Zn408 N418 2.119 . S
Zn408 O426 1.975 . S
C409 N410 1.334 . S
C409 N413 1.336 . S
N410 C409 1.334 . S
N410 C411 1.334 . S
C411 N410 1.334 . S
C411 N412 1.336 . S
N412 Zn408 2.020 . S
N412 C411 1.336 . S
N412 N413 1.354 . S
N413 C409 1.336 . S
N413 N412 1.354 . S
N413 Zn417 2.020 . S
C414 O415 1.244 . S
C414 O438 1.257 . S
O415 C414 1.244 . S
O416 Zn408 2.019 . S
O416 C436 1.257 . S
Zn417 N413 2.020 . S
Zn417 O424 1.975 . S
Zn417 N433 2.119 . S
Zn417 O438 2.019 . S
N418 Zn408 2.119 . S
N418 C420 1.334 . S
N418 C421 1.328 . S
C419 C420 1.391 . S
C419 N422 1.329 1_565 S
C419 H440 0.930 . S
C420 N418 1.334 . S
C420 C419 1.391 . S
C420 H427 0.930 . S
C421 N418 1.328 . S
C421 C423 1.392 . S
C421 H428 0.930 . S
N422 C419 1.329 1_545 S
N422 C423 1.331 1_545 S
C423 C421 1.392 . S
C423 N422 1.331 1_565 S
O424 Zn417 1.975 . S
O424 C425 1.252 . S
C425 O424 1.252 . S
C425 O426 1.252 . S
O426 Zn408 1.975 . S
O426 C425 1.252 . S
H427 C420 0.930 . S
H428 C421 0.930 . S
C429 C430 1.392 . S
C429 N433 1.328 . S
C429 H435 0.930 . S
C430 C429 1.392 . S
C430 N434 1.331 . S
C431 C432 1.391 . S
C431 N434 1.329 . S
C431 H441 0.930 . S
C432 C431 1.391 . S
C432 N433 1.334 . S
C432 H439 0.930 . S
N433 Zn417 2.119 . S
N433 C429 1.328 . S
N433 C432 1.334 . S
N434 C430 1.331 . S
N434 C431 1.329 . S
H435 C429 0.930 . S
C436 O416 1.257 . S
C436 O437 1.244 . S
O437 C436 1.244 . S
O438 C414 1.257 . S
O438 Zn417 2.019 . S
H439 C432 0.930 . S
H440 C419 0.930 . S
H441 C431 0.930 . S
Zn442 N446 2.020 . S
Zn442 O450 2.019 . S
Zn442 N452 2.119 . S
Zn442 O460 1.975 . S
C443 N444 1.334 1_554 S
C443 N447 1.336 . S
N444 C443 1.334 1_556 S
N444 C445 1.334 1_556 S
C445 N444 1.334 1_554 S
C445 N446 1.336 . S
N446 Zn442 2.020 . S
N446 C445 1.336 . S
N446 N447 1.354 . S
N447 C443 1.336 . S
N447 N446 1.354 . S
N447 Zn451 2.020 . S
C448 O449 1.244 . S
C448 O472 1.257 . S
O449 C448 1.244 . S
O450 Zn442 2.019 . S
O450 C470 1.257 . S
Zn451 N447 2.020 . S
Zn451 O458 1.975 . S
Zn451 N467 2.119 . S
Zn451 O472 2.019 . S
N452 Zn442 2.119 . S
N452 C454 1.334 . S
N452 C455 1.328 1_455 S
C453 C454 1.391 1_655 S
C453 N456 1.329 . S
C453 H474 0.930 . S
C454 N452 1.334 . S
C454 C453 1.391 1_455 S
C454 H461 0.930 . S
C455 N452 1.328 1_655 S
C455 C457 1.392 . S
C455 H462 0.930 . S
N456 C453 1.329 . S
N456 C457 1.331 . S
C457 C455 1.392 . S
C457 N456 1.331 . S
O458 Zn451 1.975 . S
O458 C459 1.252 . S
C459 O458 1.252 . S
C459 O460 1.252 . S
O460 Zn442 1.975 . S
O460 C459 1.252 . S
H461 C454 0.930 . S
H462 C455 0.930 . S
C463 C464 1.392 . S
C463 N467 1.328 . S
C463 H469 0.930 . S
C464 C463 1.392 . S
C464 N468 1.331 . S
C465 C466 1.391 . S
C465 N468 1.329 . S
C465 H475 0.930 . S
C466 C465 1.391 . S
C466 N467 1.334 . S
C466 H473 0.930 . S
N467 Zn451 2.119 . S
N467 C463 1.328 . S
N467 C466 1.334 . S
N468 C464 1.331 . S
N468 C465 1.329 . S
H469 C463 0.930 . S
C470 O450 1.257 . S
C470 O471 1.244 . S
O471 C470 1.244 . S
O472 C448 1.257 . S
O472 Zn451 2.019 . S
H473 C466 0.930 . S
H474 C453 0.930 . S
H475 C465 0.930 . S
Zn476 N480 2.020 . S
Zn476 O484 2.019 . S
Zn476 N486 2.119 . S
Zn476 O494 1.975 . S
C477 N478 1.334 . S
C477 N481 1.336 . S
N478 C477 1.334 . S
N478 C479 1.334 . S
C479 N478 1.334 . S
C479 N480 1.336 . S
N480 Zn476 2.020 . S
N480 C479 1.336 . S
N480 N481 1.354 . S
N481 C477 1.336 . S
N481 N480 1.354 . S
N481 Zn485 2.020 . S
C482 O483 1.244 . S
C482 O506 1.257 . S
O483 C482 1.244 . S
O484 Zn476 2.019 . S
O484 C504 1.257 . S
Zn485 N481 2.020 . S
Zn485 O492 1.975 . S
Zn485 N501 2.119 . S
Zn485 O506 2.019 . S
N486 Zn476 2.119 . S
N486 C488 1.334 . S
N486 C489 1.328 . S
C487 C488 1.391 . S
C487 N490 1.329 . S
C487 H508 0.930 . S
C488 N486 1.334 . S
C488 C487 1.391 . S
C488 H495 0.930 . S
C489 N486 1.328 . S
C489 C491 1.392 . S
C489 H496 0.930 . S
N490 C487 1.329 . S
N490 C491 1.331 . S
C491 C489 1.392 . S
C491 N490 1.331 . S
O492 Zn485 1.975 . S
O492 C493 1.252 . S
C493 O492 1.252 . S
C493 O494 1.252 . S
O494 Zn476 1.975 . S
O494 C493 1.252 . S
H495 C488 0.930 . S
H496 C489 0.930 . S
C497 C498 1.392 . S
C497 N501 1.328 . S
C497 H503 0.930 . S
C498 C497 1.392 . S
C498 N502 1.331 . S
C499 C500 1.391 . S
C499 N502 1.329 . S
C499 H509 0.930 . S
C500 C499 1.391 . S
C500 N501 1.334 . S
C500 H507 0.930 . S
N501 Zn485 2.119 . S
N501 C497 1.328 . S
N501 C500 1.334 . S
N502 C498 1.331 . S
N502 C499 1.329 . S
H503 C497 0.930 . S
C504 O484 1.257 . S
C504 O505 1.244 . S
O505 C504 1.244 . S
O506 C482 1.257 . S
O506 Zn485 2.019 . S
H507 C500 0.930 . S
H508 C487 0.930 . S
H509 C499 0.930 . S
Zn510 N514 2.020 . S
Zn510 O518 2.019 1_565 S
Zn510 N520 2.119 . S
Zn510 O528 1.975 . S
C511 N512 1.334 1_554 S
C511 N515 1.336 . S
N512 C511 1.334 1_556 S
N512 C513 1.334 1_556 S
C513 N512 1.334 1_554 S
C513 N514 1.336 . S
N514 Zn510 2.020 . S
N514 C513 1.336 . S
N514 N515 1.354 . S
N515 C511 1.336 . S
N515 N514 1.354 . S
N515 Zn519 2.020 . S
C516 O517 1.244 . S
C516 O540 1.257 . S
O517 C516 1.244 . S
O518 Zn510 2.019 1_545 S
O518 C538 1.257 . S
Zn519 N515 2.020 . S
Zn519 O526 1.975 . S
Zn519 N535 2.119 . S
Zn519 O540 2.019 . S
N520 Zn510 2.119 . S
N520 C522 1.334 . S
N520 C523 1.328 . S
C521 C522 1.391 . S
C521 N524 1.329 . S
C521 H542 0.930 . S
C522 N520 1.334 . S
C522 C521 1.391 . S
C522 H529 0.930 . S
C523 N520 1.328 . S
C523 C525 1.392 . S
C523 H530 0.930 1_565 S
N524 C521 1.329 . S
N524 C525 1.331 . S
C525 C523 1.392 . S
C525 N524 1.331 . S
O526 Zn519 1.975 . S
O526 C527 1.252 . S
C527 O526 1.252 . S
C527 O528 1.252 . S
O528 Zn510 1.975 . S
O528 C527 1.252 . S
H529 C522 0.930 . S
H530 C523 0.930 1_545 S
C531 C532 1.392 . S
C531 N535 1.328 1_455 S
C531 H537 0.930 . S
C532 C531 1.392 . S
C532 N536 1.331 . S
C533 C534 1.391 1_455 S
C533 N536 1.329 . S
C533 H543 0.930 . S
C534 C533 1.391 1_655 S
C534 N535 1.334 . S
C534 H541 0.930 . S
N535 Zn519 2.119 . S
N535 C531 1.328 1_655 S
N535 C534 1.334 . S
N536 C532 1.331 . S
N536 C533 1.329 . S
H537 C531 0.930 . S
C538 O518 1.257 . S
C538 O539 1.244 . S
O539 C538 1.244 . S
O540 C516 1.257 . S
O540 Zn519 2.019 . S
H541 C534 0.930 . S
H542 C521 0.930 . S
H543 C533 0.930 . S
Zn544 N548 2.020 . S
Zn544 O552 2.019 . S
Zn544 N554 2.119 . S
Zn544 O562 1.975 . S
C545 N546 1.334 . S
C545 N549 1.336 . S
N546 C545 1.334 . S
N546 C547 1.334 . S
C547 N546 1.334 . S
C547 N548 1.336 . S
N548 Zn544 2.020 . S
N548 C547 1.336 . S
N548 N549 1.354 . S
N549 C545 1.336 . S
N549 N548 1.354 . S
N549 Zn553 2.020 . S
C550 O551 1.244 . S
C550 O574 1.257 . S
O551 C550 1.244 . S
O552 Zn544 2.019 . S
O552 C572 1.257 . S
Zn553 N549 2.020 . S
Zn553 O560 1.975 . S
Zn553 N569 2.119 . S
Zn553 O574 2.019 . S
N554 Zn544 2.119 . S
N554 C556 1.334 . S
N554 C557 1.328 . S
C555 C556 1.391 . S
C555 N558 1.329 . S
C555 H576 0.930 . S
C556 N554 1.334 . S
C556 C555 1.391 . S
C556 H563 0.930 . S
C557 N554 1.328 . S
C557 C559 1.392 . S
C557 H564 0.930 . S
N558 C555 1.329 . S
N558 C559 1.331 . S
C559 C557 1.392 . S
C559 N558 1.331 . S
O560 Zn553 1.975 . S
O560 C561 1.252 . S
C561 O560 1.252 . S
C561 O562 1.252 . S
O562 Zn544 1.975 . S
O562 C561 1.252 . S
H563 C556 0.930 . S
H564 C557 0.930 . S
C565 C566 1.392 . S
C565 N569 1.328 . S
C565 H571 0.930 . S
C566 C565 1.392 . S
C566 N570 1.331 1_554 S
C567 C568 1.391 . S
C567 N570 1.329 1_554 S
C567 H577 0.930 . S
C568 C567 1.391 . S
C568 N569 1.334 . S
C568 H575 0.930 . S
N569 Zn553 2.119 . S
N569 C565 1.328 . S
N569 C568 1.334 . S
N570 C566 1.331 1_556 S
N570 C567 1.329 1_556 S
H571 C565 0.930 . S
C572 O552 1.257 . S
C572 O573 1.244 . S
O573 C572 1.244 . S
O574 C550 1.257 . S
O574 Zn553 2.019 . S
H575 C568 0.930 . S
H576 C555 0.930 . S
H577 C567 0.930 . S
Zn578 N582 2.020 . S
Zn578 O586 2.019 . S
Zn578 N588 2.119 . S
Zn578 O596 1.975 . S
C579 N580 1.334 . S
C579 N583 1.336 . S
N580 C579 1.334 . S
N580 C581 1.334 . S
C581 N580 1.334 . S
C581 N582 1.336 . S
N582 Zn578 2.020 . S
N582 C581 1.336 . S
N582 N583 1.354 . S
N583 C579 1.336 . S
N583 N582 1.354 . S
N583 Zn587 2.020 . S
C584 O585 1.244 . S
C584 O608 1.257 . S
O585 C584 1.244 . S
O586 Zn578 2.019 . S
O586 C606 1.257 . S
Zn587 N583 2.020 . S
Zn587 O594 1.975 . S
Zn587 N603 2.119 . S
Zn587 O608 2.019 . S
N588 Zn578 2.119 . S
N588 C590 1.334 . S
N588 C591 1.328 . S
C589 C590 1.391 . S
C589 N592 1.329 . S
C589 H610 0.930 . S
C590 N588 1.334 . S
C590 C589 1.391 . S
C590 H597 0.930 . S
C591 N588 1.328 . S
C591 C593 1.392 . S
C591 H598 0.930 . S
N592 C589 1.329 . S
N592 C593 1.331 . S
C593 C591 1.392 . S
C593 N592 1.331 . S
O594 Zn587 1.975 . S
O594 C595 1.252 . S
C595 O594 1.252 . S
C595 O596 1.252 . S
O596 Zn578 1.975 . S
O596 C595 1.252 . S
H597 C590 0.930 . S
H598 C591 0.930 . S
C599 C600 1.392 . S
C599 N603 1.328 . S
C599 H605 0.930 . S
C600 C599 1.392 . S
C600 N604 1.331 . S
C601 C602 1.391 . S
C601 N604 1.329 . S
C601 H611 0.930 . S
C602 C601 1.391 . S
C602 N603 1.334 . S
C602 H609 0.930 . S
N603 Zn587 2.119 . S
N603 C599 1.328 . S
N603 C602 1.334 . S
N604 C600 1.331 . S
N604 C601 1.329 . S
H605 C599 0.930 . S
C606 O586 1.257 . S
C606 O607 1.244 . S
O607 C606 1.244 . S
O608 C584 1.257 . S
O608 Zn587 2.019 . S
H609 C602 0.930 . S
H610 C589 0.930 . S
H611 C601 0.930 . S
Zn612 N616 2.020 . S
Zn612 O620 2.019 1_455 S
Zn612 N622 2.119 . S
Zn612 O630 1.975 . S
C613 N614 1.334 . S
C613 N617 1.336 . S
N614 C613 1.334 . S
N614 C615 1.334 . S
C615 N614 1.334 . S
C615 N616 1.336 . S
N616 Zn612 2.020 . S
N616 C615 1.336 . S
N616 N617 1.354 . S
N617 C613 1.336 . S
N617 N616 1.354 . S
N617 Zn621 2.020 . S
C618 O619 1.244 . S
C618 O642 1.257 . S
O619 C618 1.244 . S
O620 Zn612 2.019 1_655 S
O620 C640 1.257 . S
Zn621 N617 2.020 . S
Zn621 O628 1.975 . S
Zn621 N637 2.119 . S
Zn621 O642 2.019 . S
N622 Zn612 2.119 . S
N622 C624 1.334 . S
N622 C625 1.328 . S
C623 C624 1.391 . S
C623 N626 1.329 . S
C623 H644 0.930 . S
C624 N622 1.334 . S
C624 C623 1.391 . S
C624 H631 0.930 . S
C625 N622 1.328 . S
C625 C627 1.392 . S
C625 H632 0.930 1_455 S
N626 C623 1.329 . S
N626 C627 1.331 . S
C627 C625 1.392 . S
C627 N626 1.331 . S
O628 Zn621 1.975 . S
O628 C629 1.252 . S
C629 O628 1.252 . S
C629 O630 1.252 . S
O630 Zn612 1.975 . S
O630 C629 1.252 . S
H631 C624 0.930 . S
H632 C625 0.930 1_655 S
C633 C634 1.392 . S
C633 N637 1.328 1_554 S
C633 H639 0.930 . S
C634 C633 1.392 . S
C634 N638 1.331 . S
C635 C636 1.391 1_554 S
C635 N638 1.329 . S
C635 H645 0.930 . S
C636 C635 1.391 1_556 S
C636 N637 1.334 . S
C636 H643 0.930 . S
N637 Zn621 2.119 . S
N637 C633 1.328 1_556 S
N637 C636 1.334 . S
N638 C634 1.331 . S
N638 C635 1.329 . S
H639 C633 0.930 . S
C640 O620 1.257 . S
C640 O641 1.244 . S
O641 C640 1.244 . S
O642 C618 1.257 . S
O642 Zn621 2.019 . S
H643 C636 0.930 . S
H644 C623 0.930 . S
H645 C635 0.930 . S
Zn646 N650 2.020 . S
Zn646 O654 2.019 . S
Zn646 N656 2.119 . S
Zn646 O664 1.975 . S
C647 N648 1.334 . S
C647 N651 1.336 . S
N648 C647 1.334 . S
N648 C649 1.334 . S
C649 N648 1.334 . S
C649 N650 1.336 . S
N650 Zn646 2.020 . S
N650 C649 1.336 . S
N650 N651 1.354 . S
N651 C647 1.336 . S
N651 N650 1.354 . S
N651 Zn655 2.020 . S
C652 O653 1.244 . S
C652 O676 1.257 . S
O653 C652 1.244 . S
O654 Zn646 2.019 . S
O654 C674 1.257 . S
Zn655 N651 2.020 . S
Zn655 O662 1.975 . S
Zn655 N671 2.119 . S
Zn655 O676 2.019 . S
N656 Zn646 2.119 . S
N656 C658 1.334 . S
N656 C659 1.328 . S
C657 C658 1.391 . S
C657 N660 1.329 . S
C657 H678 0.930 . S
C658 N656 1.334 . S
C658 C657 1.391 . S
C658 H665 0.930 . S
C659 N656 1.328 . S
C659 C661 1.392 . S
C659 H666 0.930 . S
N660 C657 1.329 . S
N660 C661 1.331 . S
C661 C659 1.392 . S
C661 N660 1.331 . S
O662 Zn655 1.975 . S
O662 C663 1.252 . S
C663 O662 1.252 . S
C663 O664 1.252 . S
O664 Zn646 1.975 . S
O664 C663 1.252 . S
H665 C658 0.930 . S
H666 C659 0.930 . S
C667 C668 1.392 . S
C667 N671 1.328 . S
C667 H673 0.930 . S
C668 C667 1.392 . S
C668 N672 1.331 . S
C669 C670 1.391 . S
C669 N672 1.329 . S
C669 H679 0.930 . S
C670 C669 1.391 . S
C670 N671 1.334 . S
C670 H677 0.930 . S
N671 Zn655 2.119 . S
N671 C667 1.328 . S
N671 C670 1.334 . S
N672 C668 1.331 . S
N672 C669 1.329 . S
H673 C667 0.930 . S
C674 O654 1.257 . S
C674 O675 1.244 . S
O675 C674 1.244 . S
O676 C652 1.257 . S
O676 Zn655 2.019 . S
H677 C670 0.930 . S
H678 C657 0.930 . S
H679 C669 0.930 . S
Zn680 N684 2.020 . S
Zn680 O688 2.019 . S
Zn680 N690 2.119 . S
Zn680 O698 1.975 . S
C681 N682 1.334 . S
C681 N685 1.336 . S
N682 C681 1.334 . S
N682 C683 1.334 . S
C683 N682 1.334 . S
C683 N684 1.336 . S
N684 Zn680 2.020 . S
N684 C683 1.336 . S
N684 N685 1.354 . S
N685 C681 1.336 . S
N685 N684 1.354 . S
N685 Zn689 2.020 . S
C686 O687 1.244 . S
C686 O710 1.257 . S
O687 C686 1.244 . S
O688 Zn680 2.019 . S
O688 C708 1.257 . S
Zn689 N685 2.020 . S
Zn689 O696 1.975 . S
Zn689 N705 2.119 . S
Zn689 O710 2.019 . S
N690 Zn680 2.119 . S
N690 C692 1.334 . S
N690 C693 1.328 . S
C691 C692 1.391 . S
C691 N694 1.329 . S
C691 H712 0.930 . S
C692 N690 1.334 . S
C692 C691 1.391 . S
C692 H699 0.930 . S
C693 N690 1.328 . S
C693 C695 1.392 . S
C693 H700 0.930 . S
N694 C691 1.329 . S
N694 C695 1.331 . S
C695 C693 1.392 . S
C695 N694 1.331 . S
O696 Zn689 1.975 . S
O696 C697 1.252 . S
C697 O696 1.252 . S
C697 O698 1.252 . S
O698 Zn680 1.975 . S
O698 C697 1.252 . S
H699 C692 0.930 . S
H700 C693 0.930 . S
C701 C702 1.392 . S
C701 N705 1.328 . S
C701 H707 0.930 . S
C702 C701 1.392 . S
C702 N706 1.331 . S
C703 C704 1.391 . S
C703 N706 1.329 . S
C703 H713 0.930 . S
C704 C703 1.391 . S
C704 N705 1.334 . S
C704 H711 0.930 . S
N705 Zn689 2.119 . S
N705 C701 1.328 . S
N705 C704 1.334 . S
N706 C702 1.331 . S
N706 C703 1.329 . S
H707 C701 0.930 . S
C708 O688 1.257 . S
C708 O709 1.244 . S
O709 C708 1.244 . S
O710 C686 1.257 . S
O710 Zn689 2.019 . S
H711 C704 0.930 . S
H712 C691 0.930 . S
H713 C703 0.930 . S
Zn714 N718 2.020 . S
Zn714 O722 2.019 . S
Zn714 N724 2.119 . S
Zn714 O732 1.975 . S
C715 N716 1.334 . S
C715 N719 1.336 . S
N716 C715 1.334 . S
N716 C717 1.334 . S
C717 N716 1.334 . S
C717 N718 1.336 . S
N718 Zn714 2.020 . S
N718 C717 1.336 . S
N718 N719 1.354 . S
N719 C715 1.336 . S
N719 N718 1.354 . S
N719 Zn723 2.020 . S
C720 O721 1.244 . S
C720 O744 1.257 . S
O721 C720 1.244 . S
O722 Zn714 2.019 . S
O722 C742 1.257 . S
Zn723 N719 2.020 . S
Zn723 O730 1.975 . S
Zn723 N739 2.119 . S
Zn723 O744 2.019 . S
N724 Zn714 2.119 . S
N724 C726 1.334 . S
N724 C727 1.328 . S
C725 C726 1.391 . S
C725 N728 1.329 . S
C725 H746 0.930 . S
C726 N724 1.334 . S
C726 C725 1.391 . S
C726 H733 0.930 . S
C727 N724 1.328 . S
C727 C729 1.392 . S
C727 H734 0.930 . S
N728 C725 1.329 . S
N728 C729 1.331 . S
C729 C727 1.392 . S
C729 N728 1.331 . S
O730 Zn723 1.975 . S
O730 C731 1.252 . S
C731 O730 1.252 . S
C731 O732 1.252 . S
O732 Zn714 1.975 . S
O732 C731 1.252 . S
H733 C726 0.930 . S
H734 C727 0.930 . S
C735 C736 1.392 . S
C735 N739 1.328 . S
C735 H741 0.930 . S
C736 C735 1.392 . S
C736 N740 1.331 . S
C737 C738 1.391 . S
C737 N740 1.329 . S
C737 H747 0.930 . S
C738 C737 1.391 . S
C738 N739 1.334 . S
C738 H745 0.930 . S
N739 Zn723 2.119 . S
N739 C735 1.328 . S
N739 C738 1.334 . S
N740 C736 1.331 . S
N740 C737 1.329 . S
H741 C735 0.930 . S
C742 O722 1.257 . S
C742 O743 1.244 . S
O743 C742 1.244 . S
O744 C720 1.257 . S
O744 Zn723 2.019 . S
H745 C738 0.930 . S
H746 C725 0.930 . S
H747 C737 0.930 . S
Zn748 N752 2.020 . S
Zn748 O756 2.019 1_455 S
Zn748 N758 2.119 . S
Zn748 O766 1.975 . S
C749 N750 1.334 . S
C749 N753 1.336 . S
N750 C749 1.334 . S
N750 C751 1.334 . S
C751 N750 1.334 . S
C751 N752 1.336 . S
N752 Zn748 2.020 . S
N752 C751 1.336 . S
N752 N753 1.354 . S
N753 C749 1.336 . S
N753 N752 1.354 . S
N753 Zn757 2.020 . S
C754 O755 1.244 . S
C754 O778 1.257 . S
O755 C754 1.244 . S
O756 Zn748 2.019 1_655 S
O756 C776 1.257 . S
Zn757 N753 2.020 . S
Zn757 O764 1.975 . S
Zn757 N773 2.119 . S
Zn757 O778 2.019 . S
N758 Zn748 2.119 . S
N758 C760 1.334 . S
N758 C761 1.328 . S
C759 C760 1.391 . S
C759 N762 1.329 . S
C759 H780 0.930 . S
C760 N758 1.334 . S
C760 C759 1.391 . S
C760 H767 0.930 . S
C761 N758 1.328 . S
C761 C763 1.392 . S
C761 H768 0.930 1_455 S
N762 C759 1.329 . S
N762 C763 1.331 . S
C763 C761 1.392 . S
C763 N762 1.331 . S
O764 Zn757 1.975 . S
O764 C765 1.252 . S
C765 O764 1.252 . S
C765 O766 1.252 . S
O766 Zn748 1.975 . S
O766 C765 1.252 . S
H767 C760 0.930 . S
H768 C761 0.930 1_655 S
C769 C770 1.392 . S
C769 N773 1.328 . S
C769 H775 0.930 . S
C770 C769 1.392 . S
C770 N774 1.331 . S
C771 C772 1.391 . S
C771 N774 1.329 . S
C771 H781 0.930 . S
C772 C771 1.391 . S
C772 N773 1.334 . S
C772 H779 0.930 . S
N773 Zn757 2.119 . S
N773 C769 1.328 . S
N773 C772 1.334 . S
N774 C770 1.331 . S
N774 C771 1.329 . S
H775 C769 0.930 . S
C776 O756 1.257 . S
C776 O777 1.244 . S
O777 C776 1.244 . S
O778 C754 1.257 . S
O778 Zn757 2.019 . S
H779 C772 0.930 . S
H780 C759 0.930 . S
H781 C771 0.930 . S
Zn782 N786 2.020 . S
Zn782 O790 2.019 1_655 S
Zn782 N792 2.119 . S
Zn782 O800 1.975 . S
C783 N784 1.334 1_565 S
C783 N787 1.336 . S
N784 C783 1.334 1_545 S
N784 C785 1.334 1_545 S
C785 N784 1.334 1_565 S
C785 N786 1.336 . S
N786 Zn782 2.020 . S
N786 C785 1.336 . S
N786 N787 1.354 . S
N787 C783 1.336 . S
N787 N786 1.354 . S
N787 Zn791 2.020 . S
C788 O789 1.244 . S
C788 O812 1.257 . S
O789 C788 1.244 . S
O790 Zn782 2.019 1_455 S
O790 C810 1.257 . S
Zn791 N787 2.020 . S
Zn791 O798 1.975 . S
Zn791 N807 2.119 . S
Zn791 O812 2.019 . S
N792 Zn782 2.119 . S
N792 C794 1.334 . S
N792 C795 1.328 . S
C793 C794 1.391 . S
C793 N796 1.329 . S
C793 H814 0.930 . S
C794 N792 1.334 . S
C794 C793 1.391 . S
C794 H801 0.930 . S
C795 N792 1.328 . S
C795 C797 1.392 . S
C795 H802 0.930 1_655 S
N796 C793 1.329 . S
N796 C797 1.331 . S
C797 C795 1.392 . S
C797 N796 1.331 . S
O798 Zn791 1.975 . S
O798 C799 1.252 . S
C799 O798 1.252 . S
C799 O800 1.252 . S
O800 Zn782 1.975 . S
O800 C799 1.252 . S
H801 C794 0.930 . S
H802 C795 0.930 1_455 S
C803 C804 1.392 . S
C803 N807 1.328 . S
C803 H809 0.930 . S
C804 C803 1.392 . S
C804 N808 1.331 . S
C805 C806 1.391 . S
C805 N808 1.329 . S
C805 H815 0.930 . S
C806 C805 1.391 . S
C806 N807 1.334 . S
C806 H813 0.930 . S
N807 Zn791 2.119 . S
N807 C803 1.328 . S
N807 C806 1.334 . S
N808 C804 1.331 . S
N808 C805 1.329 . S
H809 C803 0.930 . S
C810 O790 1.257 . S
C810 O811 1.244 . S
O811 C810 1.244 . S
O812 C788 1.257 . S
O812 Zn791 2.019 . S
H813 C806 0.930 . S
H814 C793 0.930 . S
H815 C805 0.930 . S
Zn816 N820 2.020 . S
Zn816 O824 2.019 . S
Zn816 N826 2.119 . S
Zn816 O834 1.975 . S
C817 N818 1.334 . S
C817 N821 1.336 . S
N818 C817 1.334 . S
N818 C819 1.334 . S
C819 N818 1.334 . S
C819 N820 1.336 . S
N820 Zn816 2.020 . S
N820 C819 1.336 . S
N820 N821 1.354 . S
N821 C817 1.336 . S
N821 N820 1.354 . S
N821 Zn825 2.020 . S
C822 O823 1.244 . S
C822 O846 1.257 . S
O823 C822 1.244 . S
O824 Zn816 2.019 . S
O824 C844 1.257 . S
Zn825 N821 2.020 . S
Zn825 O832 1.975 . S
Zn825 N841 2.119 . S
Zn825 O846 2.019 . S
N826 Zn816 2.119 . S
N826 C828 1.334 . S
N826 C829 1.328 . S
C827 C828 1.391 . S
C827 N830 1.329 . S
C827 H848 0.930 . S
C828 N826 1.334 . S
C828 C827 1.391 . S
C828 H835 0.930 . S
C829 N826 1.328 . S
C829 C831 1.392 . S
C829 H836 0.930 . S
N830 C827 1.329 . S
N830 C831 1.331 . S
C831 C829 1.392 . S
C831 N830 1.331 . S
O832 Zn825 1.975 . S
O832 C833 1.252 . S
C833 O832 1.252 . S
C833 O834 1.252 . S
O834 Zn816 1.975 . S
O834 C833 1.252 . S
H835 C828 0.930 . S
H836 C829 0.930 . S
C837 C838 1.392 . S
C837 N841 1.328 . S
C837 H843 0.930 . S
C838 C837 1.392 . S
C838 N842 1.331 . S
C839 C840 1.391 . S
C839 N842 1.329 . S
C839 H849 0.930 . S
C840 C839 1.391 . S
C840 N841 1.334 . S
C840 H847 0.930 . S
N841 Zn825 2.119 . S
N841 C837 1.328 . S
N841 C840 1.334 . S
N842 C838 1.331 . S
N842 C839 1.329 . S
H843 C837 0.930 . S
C844 O824 1.257 . S
C844 O845 1.244 . S
O845 C844 1.244 . S
O846 C822 1.257 . S
O846 Zn825 2.019 . S
H847 C840 0.930 . S
H848 C827 0.930 . S
H849 C839 0.930 . S
Zn850 N854 2.020 . S
Zn850 O858 2.019 . S
Zn850 N860 2.119 . S
Zn850 O868 1.975 . S
C851 N852 1.334 1_455 S
C851 N855 1.336 . S
N852 C851 1.334 1_655 S
N852 C853 1.334 1_655 S
C853 N852 1.334 1_455 S
C853 N854 1.336 . S
N854 Zn850 2.020 . S
N854 C853 1.336 . S
N854 N855 1.354 . S
N855 C851 1.336 . S
N855 N854 1.354 . S
N855 Zn859 2.020 . S
C856 O857 1.244 . S
C856 O880 1.257 . S
O857 C856 1.244 . S
O858 Zn850 2.019 . S
O858 C878 1.257 . S
Zn859 N855 2.020 . S
Zn859 O866 1.975 . S
Zn859 N875 2.119 . S
Zn859 O880 2.019 . S
N860 Zn850 2.119 . S
N860 C862 1.334 . S
N860 C863 1.328 . S
C861 C862 1.391 . S
C861 N864 1.329 . S
C861 H882 0.930 . S
C862 N860 1.334 . S
C862 C861 1.391 . S
C862 H869 0.930 . S
C863 N860 1.328 . S
C863 C865 1.392 . S
C863 H870 0.930 . S
N864 C861 1.329 . S
N864 C865 1.331 . S
C865 C863 1.392 . S
C865 N864 1.331 . S
O866 Zn859 1.975 . S
O866 C867 1.252 . S
C867 O866 1.252 . S
C867 O868 1.252 . S
O868 Zn850 1.975 . S
O868 C867 1.252 . S
H869 C862 0.930 . S
H870 C863 0.930 . S
C871 C872 1.392 . S
C871 N875 1.328 1_565 S
C871 H877 0.930 . S
C872 C871 1.392 . S
C872 N876 1.331 . S
C873 C874 1.391 1_565 S
C873 N876 1.329 . S
C873 H883 0.930 . S
C874 C873 1.391 1_545 S
C874 N875 1.334 . S
C874 H881 0.930 . S
N875 Zn859 2.119 . S
N875 C871 1.328 1_545 S
N875 C874 1.334 . S
N876 C872 1.331 . S
N876 C873 1.329 . S
H877 C871 0.930 . S
C878 O858 1.257 . S
C878 O879 1.244 . S
O879 C878 1.244 . S
O880 C856 1.257 . S
O880 Zn859 2.019 . S
H881 C874 0.930 . S
H882 C861 0.930 . S
H883 C873 0.930 . S
Zn884 N888 2.020 . S
Zn884 O892 2.019 . S
Zn884 N894 2.119 . S
Zn884 O902 1.975 . S
C885 N886 1.334 . S
C885 N889 1.336 . S
N886 C885 1.334 . S
N886 C887 1.334 . S
C887 N886 1.334 . S
C887 N888 1.336 . S
N888 Zn884 2.020 . S
N888 C887 1.336 . S
N888 N889 1.354 . S
N889 C885 1.336 . S
N889 N888 1.354 . S
N889 Zn893 2.020 . S
C890 O891 1.244 . S
C890 O914 1.257 . S
O891 C890 1.244 . S
O892 Zn884 2.019 . S
O892 C912 1.257 . S
Zn893 N889 2.020 . S
Zn893 O900 1.975 . S
Zn893 N909 2.119 . S
Zn893 O914 2.019 . S
N894 Zn884 2.119 . S
N894 C896 1.334 . S
N894 C897 1.328 . S
C895 C896 1.391 . S
C895 N898 1.329 . S
C895 H916 0.930 . S
C896 N894 1.334 . S
C896 C895 1.391 . S
C896 H903 0.930 . S
C897 N894 1.328 . S
C897 C899 1.392 . S
C897 H904 0.930 . S
N898 C895 1.329 . S
N898 C899 1.331 . S
C899 C897 1.392 . S
C899 N898 1.331 . S
O900 Zn893 1.975 . S
O900 C901 1.252 . S
C901 O900 1.252 . S
C901 O902 1.252 . S
O902 Zn884 1.975 . S
O902 C901 1.252 . S
H903 C896 0.930 . S
H904 C897 0.930 . S
C905 C906 1.392 . S
C905 N909 1.328 . S
C905 H911 0.930 . S
C906 C905 1.392 . S
C906 N910 1.331 . S
C907 C908 1.391 . S
C907 N910 1.329 . S
C907 H917 0.930 . S
C908 C907 1.391 . S
C908 N909 1.334 . S
C908 H915 0.930 . S
N909 Zn893 2.119 . S
N909 C905 1.328 . S
N909 C908 1.334 . S
N910 C906 1.331 . S
N910 C907 1.329 . S
H911 C905 0.930 . S
C912 O892 1.257 . S
C912 O913 1.244 . S
O913 C912 1.244 . S
O914 C890 1.257 . S
O914 Zn893 2.019 . S
H915 C908 0.930 . S
H916 C895 0.930 . S
H917 C907 0.930 . S
Zn918 N922 2.020 . S
Zn918 O926 2.019 . S
Zn918 N928 2.119 . S
Zn918 O936 1.975 . S
C919 N920 1.334 1_655 S
C919 N923 1.336 . S
N920 C919 1.334 1_455 S
N920 C921 1.334 1_455 S
C921 N920 1.334 1_655 S
C921 N922 1.336 . S
N922 Zn918 2.020 . S
N922 C921 1.336 . S
N922 N923 1.354 . S
N923 C919 1.336 . S
N923 N922 1.354 . S
N923 Zn927 2.020 . S
C924 O925 1.244 . S
C924 O948 1.257 . S
O925 C924 1.244 . S
O926 Zn918 2.019 . S
O926 C946 1.257 . S
Zn927 N923 2.020 . S
Zn927 O934 1.975 . S
Zn927 N943 2.119 . S
Zn927 O948 2.019 . S
N928 Zn918 2.119 . S
N928 C930 1.334 . S
N928 C931 1.328 . S
C929 C930 1.391 . S
C929 N932 1.329 . S
C929 H950 0.930 . S
C930 N928 1.334 . S
C930 C929 1.391 . S
C930 H937 0.930 . S
C931 N928 1.328 . S
C931 C933 1.392 . S
C931 H938 0.930 . S
N932 C929 1.329 . S
N932 C933 1.331 . S
C933 C931 1.392 . S
C933 N932 1.331 . S
O934 Zn927 1.975 . S
O934 C935 1.252 . S
C935 O934 1.252 . S
C935 O936 1.252 . S
O936 Zn918 1.975 . S
O936 C935 1.252 . S
H937 C930 0.930 . S
H938 C931 0.930 . S
C939 C940 1.392 . S
C939 N943 1.328 . S
C939 H945 0.930 . S
C940 C939 1.392 . S
C940 N944 1.331 . S
C941 C942 1.391 . S
C941 N944 1.329 . S
C941 H951 0.930 . S
C942 C941 1.391 . S
C942 N943 1.334 . S
C942 H949 0.930 . S
N943 Zn927 2.119 . S
N943 C939 1.328 . S
N943 C942 1.334 . S
N944 C940 1.331 . S
N944 C941 1.329 . S
H945 C939 0.930 . S
C946 O926 1.257 . S
C946 O947 1.244 . S
O947 C946 1.244 . S
O948 C924 1.257 . S
O948 Zn927 2.019 . S
H949 C942 0.930 . S
H950 C929 0.930 . S
H951 C941 0.930 . S
Zn952 N956 2.020 . S
Zn952 O960 2.019 . S
Zn952 N962 2.119 . S
Zn952 O970 1.975 . S
C953 N954 1.334 . S
C953 N957 1.336 . S
N954 C953 1.334 . S
N954 C955 1.334 . S
C955 N954 1.334 . S
C955 N956 1.336 . S
N956 Zn952 2.020 . S
N956 C955 1.336 . S
N956 N957 1.354 . S
N957 C953 1.336 . S
N957 N956 1.354 . S
N957 Zn961 2.020 . S
C958 O959 1.244 . S
C958 O982 1.257 . S
O959 C958 1.244 . S
O960 Zn952 2.019 . S
O960 C980 1.257 . S
Zn961 N957 2.020 . S
Zn961 O968 1.975 . S
Zn961 N977 2.119 . S
Zn961 O982 2.019 . S
N962 Zn952 2.119 . S
N962 C964 1.334 . S
N962 C965 1.328 . S
C963 C964 1.391 . S
C963 N966 1.329 . S
C963 H984 0.930 . S
C964 N962 1.334 . S
C964 C963 1.391 . S
C964 H971 0.930 . S
C965 N962 1.328 . S
C965 C967 1.392 . S
C965 H972 0.930 . S
N966 C963 1.329 . S
N966 C967 1.331 . S
C967 C965 1.392 . S
C967 N966 1.331 . S
O968 Zn961 1.975 . S
O968 C969 1.252 . S
C969 O968 1.252 . S
C969 O970 1.252 . S
O970 Zn952 1.975 . S
O970 C969 1.252 . S
H971 C964 0.930 . S
H972 C965 0.930 . S
C973 C974 1.392 . S
C973 N977 1.328 . S
C973 H979 0.930 . S
C974 C973 1.392 . S
C974 N978 1.331 . S
C975 C976 1.391 . S
C975 N978 1.329 . S
C975 H985 0.930 . S
C976 C975 1.391 . S
C976 N977 1.334 . S
C976 H983 0.930 . S
N977 Zn961 2.119 . S
N977 C973 1.328 . S
N977 C976 1.334 . S
N978 C974 1.331 . S
N978 C975 1.329 . S
H979 C973 0.930 . S
C980 O960 1.257 . S
C980 O981 1.244 . S
O981 C980 1.244 . S
O982 C958 1.257 . S
O982 Zn961 2.019 . S
H983 C976 0.930 . S
H984 C963 0.930 . S
H985 C975 0.930 . S
Zn986 N990 2.020 . S
Zn986 O994 2.019 . S
Zn986 N996 2.119 . S
Zn986 O1004 1.975 . S
C987 N988 1.334 . S
C987 N991 1.336 . S
N988 C987 1.334 . S
N988 C989 1.334 . S
C989 N988 1.334 . S
C989 N990 1.336 . S
N990 Zn986 2.020 . S
N990 C989 1.336 . S
N990 N991 1.354 . S
N991 C987 1.336 . S
N991 N990 1.354 . S
N991 Zn995 2.020 . S
C992 O993 1.244 . S
C992 O1016 1.257 . S
O993 C992 1.244 . S
O994 Zn986 2.019 . S
O994 C1014 1.257 . S
Zn995 N991 2.020 . S
Zn995 O1002 1.975 . S
Zn995 N1011 2.119 . S
Zn995 O1016 2.019 . S
N996 Zn986 2.119 . S
N996 C998 1.334 . S
N996 C999 1.328 1_545 S
C997 C998 1.391 1_565 S
C997 N1000 1.329 . S
C997 H1018 0.930 . S
C998 N996 1.334 . S
C998 C997 1.391 1_545 S
C998 H1005 0.930 . S
C999 N996 1.328 1_565 S
C999 C1001 1.392 . S
C999 H1006 0.930 . S
N1000 C997 1.329 . S
N1000 C1001 1.331 . S
C1001 C999 1.392 . S
C1001 N1000 1.331 . S
O1002 Zn995 1.975 . S
O1002 C1003 1.252 . S
C1003 O1002 1.252 . S
C1003 O1004 1.252 . S
O1004 Zn986 1.975 . S
O1004 C1003 1.252 . S
H1005 C998 0.930 . S
H1006 C999 0.930 . S
C1007 C1008 1.392 . S
C1007 N1011 1.328 . S
C1007 H1013 0.930 . S
C1008 C1007 1.392 . S
C1008 N1012 1.331 . S
C1009 C1010 1.391 . S
C1009 N1012 1.329 . S
C1009 H1019 0.930 . S
C1010 C1009 1.391 . S
C1010 N1011 1.334 . S
C1010 H1017 0.930 . S
N1011 Zn995 2.119 . S
N1011 C1007 1.328 . S
N1011 C1010 1.334 . S
N1012 C1008 1.331 . S
N1012 C1009 1.329 . S
H1013 C1007 0.930 . S
C1014 O994 1.257 . S
C1014 O1015 1.244 . S
O1015 C1014 1.244 . S
O1016 C992 1.257 . S
O1016 Zn995 2.019 . S
H1017 C1010 0.930 . S
H1018 C997 0.930 . S
H1019 C1009 0.930 . S
Zn1020 N1024 2.020 . S
Zn1020 O1028 2.019 . S
Zn1020 N1030 2.119 . S
Zn1020 O1038 1.975 . S
C1021 N1022 1.334 . S
C1021 N1025 1.336 . S
N1022 C1021 1.334 . S
N1022 C1023 1.334 . S
C1023 N1022 1.334 . S
C1023 N1024 1.336 . S
N1024 Zn1020 2.020 . S
N1024 C1023 1.336 . S
N1024 N1025 1.354 . S
N1025 C1021 1.336 . S
N1025 N1024 1.354 . S
N1025 Zn1029 2.020 . S
C1026 O1027 1.244 . S
C1026 O1050 1.257 . S
O1027 C1026 1.244 . S
O1028 Zn1020 2.019 . S
O1028 C1048 1.257 . S
Zn1029 N1025 2.020 . S
Zn1029 O1036 1.975 . S
Zn1029 N1045 2.119 . S
Zn1029 O1050 2.019 . S
N1030 Zn1020 2.119 . S
N1030 C1032 1.334 . S
N1030 C1033 1.328 . S
C1031 C1032 1.391 . S
C1031 N1034 1.329 . S
C1031 H1052 0.930 . S
C1032 N1030 1.334 . S
C1032 C1031 1.391 . S
C1032 H1039 0.930 . S
C1033 N1030 1.328 . S
C1033 C1035 1.392 . S
C1033 H1040 0.930 . S
N1034 C1031 1.329 . S
N1034 C1035 1.331 . S
C1035 C1033 1.392 . S
C1035 N1034 1.331 . S
O1036 Zn1029 1.975 . S
O1036 C1037 1.252 . S
C1037 O1036 1.252 . S
C1037 O1038 1.252 . S
O1038 Zn1020 1.975 . S
O1038 C1037 1.252 . S
H1039 C1032 0.930 . S
H1040 C1033 0.930 . S
C1041 C1042 1.392 . S
C1041 N1045 1.328 . S
C1041 H1047 0.930 . S
C1042 C1041 1.392 . S
C1042 N1046 1.331 . S
C1043 C1044 1.391 . S
C1043 N1046 1.329 . S
C1043 H1053 0.930 . S
C1044 C1043 1.391 . S
C1044 N1045 1.334 . S
C1044 H1051 0.930 . S
N1045 Zn1029 2.119 . S
N1045 C1041 1.328 . S
N1045 C1044 1.334 . S
N1046 C1042 1.331 . S
N1046 C1043 1.329 . S
H1047 C1041 0.930 . S
C1048 O1028 1.257 . S
C1048 O1049 1.244 . S
O1049 C1048 1.244 . S
O1050 C1026 1.257 . S
O1050 Zn1029 2.019 . S
H1051 C1044 0.930 . S
H1052 C1031 0.930 . S
H1053 C1043 0.930 . S
Zn1054 N1058 2.020 . S
Zn1054 O1062 2.019 . S
Zn1054 N1064 2.119 . S
Zn1054 O1072 1.975 . S
C1055 N1056 1.334 . S
C1055 N1059 1.336 . S
N1056 C1055 1.334 . S
N1056 C1057 1.334 . S
C1057 N1056 1.334 . S
C1057 N1058 1.336 . S
N1058 Zn1054 2.020 . S
N1058 C1057 1.336 . S
N1058 N1059 1.354 . S
N1059 C1055 1.336 . S
N1059 N1058 1.354 . S
N1059 Zn1063 2.020 . S
C1060 O1061 1.244 . S
C1060 O1084 1.257 . S
O1061 C1060 1.244 . S
O1062 Zn1054 2.019 . S
O1062 C1082 1.257 . S
Zn1063 N1059 2.020 . S
Zn1063 O1070 1.975 . S
Zn1063 N1079 2.119 . S
Zn1063 O1084 2.019 . S
N1064 Zn1054 2.119 . S
N1064 C1066 1.334 . S
N1064 C1067 1.328 . S
C1065 C1066 1.391 . S
C1065 N1068 1.329 . S
C1065 H1086 0.930 . S
C1066 N1064 1.334 . S
C1066 C1065 1.391 . S
C1066 H1073 0.930 . S
C1067 N1064 1.328 . S
C1067 C1069 1.392 . S
C1067 H1074 0.930 . S
N1068 C1065 1.329 . S
N1068 C1069 1.331 . S
C1069 C1067 1.392 . S
C1069 N1068 1.331 . S
O1070 Zn1063 1.975 . S
O1070 C1071 1.252 . S
C1071 O1070 1.252 . S
C1071 O1072 1.252 . S
O1072 Zn1054 1.975 . S
O1072 C1071 1.252 . S
H1073 C1066 0.930 . S
H1074 C1067 0.930 . S
C1075 C1076 1.392 . S
C1075 N1079 1.328 . S
C1075 H1081 0.930 . S
C1076 C1075 1.392 . S
C1076 N1080 1.331 . S
C1077 C1078 1.391 . S
C1077 N1080 1.329 . S
C1077 H1087 0.930 . S
C1078 C1077 1.391 . S
C1078 N1079 1.334 . S
C1078 H1085 0.930 . S
N1079 Zn1063 2.119 . S
N1079 C1075 1.328 . S
N1079 C1078 1.334 . S
N1080 C1076 1.331 . S
N1080 C1077 1.329 . S
H1081 C1075 0.930 . S
C1082 O1062 1.257 . S
C1082 O1083 1.244 . S
O1083 C1082 1.244 . S
O1084 C1060 1.257 . S
O1084 Zn1063 2.019 . S
H1085 C1078 0.930 . S
H1086 C1065 0.930 . S
H1087 C1077 0.930 . S
Zn1088 N1092 2.020 . S
Zn1088 O1096 2.019 . S
Zn1088 N1098 2.119 . S
Zn1088 O1106 1.975 . S
C1089 N1090 1.334 . S
C1089 N1093 1.336 . S
N1090 C1089 1.334 . S
N1090 C1091 1.334 . S
C1091 N1090 1.334 . S
C1091 N1092 1.336 . S
N1092 Zn1088 2.020 . S
N1092 C1091 1.336 . S
N1092 N1093 1.354 . S
N1093 C1089 1.336 . S
N1093 N1092 1.354 . S
N1093 Zn1097 2.020 . S
C1094 O1095 1.244 . S
C1094 O1118 1.257 . S
O1095 C1094 1.244 . S
O1096 Zn1088 2.019 . S
O1096 C1116 1.257 . S
Zn1097 N1093 2.020 . S
Zn1097 O1104 1.975 . S
Zn1097 N1113 2.119 . S
Zn1097 O1118 2.019 . S
N1098 Zn1088 2.119 . S
N1098 C1100 1.334 . S
N1098 C1101 1.328 . S
C1099 C1100 1.391 . S
C1099 N1102 1.329 . S
C1099 H1120 0.930 . S
C1100 N1098 1.334 . S
C1100 C1099 1.391 . S
C1100 H1107 0.930 . S
C1101 N1098 1.328 . S
C1101 C1103 1.392 . S
C1101 H1108 0.930 . S
N1102 C1099 1.329 . S
N1102 C1103 1.331 . S
C1103 C1101 1.392 . S
C1103 N1102 1.331 . S
O1104 Zn1097 1.975 . S
O1104 C1105 1.252 . S
C1105 O1104 1.252 . S
C1105 O1106 1.252 . S
O1106 Zn1088 1.975 . S
O1106 C1105 1.252 . S
H1107 C1100 0.930 . S
H1108 C1101 0.930 . S
C1109 C1110 1.392 . S
C1109 N1113 1.328 . S
C1109 H1115 0.930 . S
C1110 C1109 1.392 . S
C1110 N1114 1.331 . S
C1111 C1112 1.391 . S
C1111 N1114 1.329 . S
C1111 H1121 0.930 . S
C1112 C1111 1.391 . S
C1112 N1113 1.334 . S
C1112 H1119 0.930 . S
N1113 Zn1097 2.119 . S
N1113 C1109 1.328 . S
N1113 C1112 1.334 . S
N1114 C1110 1.331 . S
N1114 C1111 1.329 . S
H1115 C1109 0.930 . S
C1116 O1096 1.257 . S
C1116 O1117 1.244 . S
O1117 C1116 1.244 . S
O1118 C1094 1.257 . S
O1118 Zn1097 2.019 . S
H1119 C1112 0.930 . S
H1120 C1099 0.930 . S
H1121 C1111 0.930 . S
Zn1122 N1126 2.020 . S
Zn1122 O1130 2.019 1_545 S
Zn1122 N1132 2.119 . S
Zn1122 O1140 1.975 . S
C1123 N1124 1.334 . S
C1123 N1127 1.336 . S
N1124 C1123 1.334 . S
N1124 C1125 1.334 . S
C1125 N1124 1.334 . S
C1125 N1126 1.336 . S
N1126 Zn1122 2.020 . S
N1126 C1125 1.336 . S
N1126 N1127 1.354 . S
N1127 C1123 1.336 . S
N1127 N1126 1.354 . S
N1127 Zn1131 2.020 . S
C1128 O1129 1.244 . S
C1128 O1152 1.257 . S
O1129 C1128 1.244 . S
O1130 Zn1122 2.019 1_565 S
O1130 C1150 1.257 . S
Zn1131 N1127 2.020 . S
Zn1131 O1138 1.975 . S
Zn1131 N1147 2.119 . S
Zn1131 O1152 2.019 . S
N1132 Zn1122 2.119 . S
N1132 C1134 1.334 . S
N1132 C1135 1.328 . S
C1133 C1134 1.391 . S
C1133 N1136 1.329 . S
C1133 H1154 0.930 . S
C1134 N1132 1.334 . S
C1134 C1133 1.391 . S
C1134 H1141 0.930 . S
C1135 N1132 1.328 . S
C1135 C1137 1.392 . S
C1135 H1142 0.930 1_545 S
N1136 C1133 1.329 . S
N1136 C1137 1.331 . S
C1137 C1135 1.392 . S
C1137 N1136 1.331 . S
O1138 Zn1131 1.975 . S
O1138 C1139 1.252 . S
C1139 O1138 1.252 . S
C1139 O1140 1.252 . S
O1140 Zn1122 1.975 . S
O1140 C1139 1.252 . S
H1141 C1134 0.930 . S
H1142 C1135 0.930 1_565 S
C1143 C1144 1.392 . S
C1143 N1147 1.328 1_455 S
C1143 H1149 0.930 . S
C1144 C1143 1.392 . S
C1144 N1148 1.331 . S
C1145 C1146 1.391 1_455 S
C1145 N1148 1.329 . S
C1145 H1155 0.930 . S
C1146 C1145 1.391 1_655 S
C1146 N1147 1.334 . S
C1146 H1153 0.930 . S
N1147 Zn1131 2.119 . S
N1147 C1143 1.328 1_655 S
N1147 C1146 1.334 . S
N1148 C1144 1.331 . S
N1148 C1145 1.329 . S
H1149 C1143 0.930 . S
C1150 O1130 1.257 . S
C1150 O1151 1.244 . S
O1151 C1150 1.244 . S
O1152 C1128 1.257 . S
O1152 Zn1131 2.019 . S
H1153 C1146 0.930 . S
H1154 C1133 0.930 . S
H1155 C1145 0.930 . S
Zn1156 N1160 2.020 . S
Zn1156 O1164 2.019 . S
Zn1156 N1166 2.119 . S
Zn1156 O1174 1.975 . S
C1157 N1158 1.334 . S
C1157 N1161 1.336 . S
N1158 C1157 1.334 . S
N1158 C1159 1.334 . S
C1159 N1158 1.334 . S
C1159 N1160 1.336 . S
N1160 Zn1156 2.020 . S
N1160 C1159 1.336 . S
N1160 N1161 1.354 . S
N1161 C1157 1.336 . S
N1161 N1160 1.354 . S
N1161 Zn1165 2.020 . S
C1162 O1163 1.244 . S
C1162 O1186 1.257 . S
O1163 C1162 1.244 . S
O1164 Zn1156 2.019 . S
O1164 C1184 1.257 . S
Zn1165 N1161 2.020 . S
Zn1165 O1172 1.975 . S
Zn1165 N1181 2.119 . S
Zn1165 O1186 2.019 . S
N1166 Zn1156 2.119 . S
N1166 C1168 1.334 . S
N1166 C1169 1.328 . S
C1167 C1168 1.391 . S
C1167 N1170 1.329 . S
C1167 H1188 0.930 . S
C1168 N1166 1.334 . S
C1168 C1167 1.391 . S
C1168 H1175 0.930 . S
C1169 N1166 1.328 . S
C1169 C1171 1.392 . S
C1169 H1176 0.930 . S
N1170 C1167 1.329 . S
N1170 C1171 1.331 . S
C1171 C1169 1.392 . S
C1171 N1170 1.331 . S
O1172 Zn1165 1.975 . S
O1172 C1173 1.252 . S
C1173 O1172 1.252 . S
C1173 O1174 1.252 . S
O1174 Zn1156 1.975 . S
O1174 C1173 1.252 . S
H1175 C1168 0.930 . S
H1176 C1169 0.930 . S
C1177 C1178 1.392 . S
C1177 N1181 1.328 . S
C1177 H1183 0.930 . S
C1178 C1177 1.392 . S
C1178 N1182 1.331 1_565 S
C1179 C1180 1.391 . S
C1179 N1182 1.329 1_565 S
C1179 H1189 0.930 . S
C1180 C1179 1.391 . S
C1180 N1181 1.334 . S
C1180 H1187 0.930 . S
N1181 Zn1165 2.119 . S
N1181 C1177 1.328 . S
N1181 C1180 1.334 . S
N1182 C1178 1.331 1_545 S
N1182 C1179 1.329 1_545 S
H1183 C1177 0.930 . S
C1184 O1164 1.257 . S
C1184 O1185 1.244 . S
O1185 C1184 1.244 . S
O1186 C1162 1.257 . S
O1186 Zn1165 2.019 . S
H1187 C1180 0.930 . S
H1188 C1167 0.930 . S
H1189 C1179 0.930 . S
Zn1190 N1194 2.020 . S
Zn1190 O1198 2.019 . S
Zn1190 N1200 2.119 . S
Zn1190 O1208 1.975 . S
C1191 N1192 1.334 . S
C1191 N1195 1.336 . S
N1192 C1191 1.334 . S
N1192 C1193 1.334 . S
C1193 N1192 1.334 . S
C1193 N1194 1.336 . S
N1194 Zn1190 2.020 . S
N1194 C1193 1.336 . S
N1194 N1195 1.354 . S
N1195 C1191 1.336 . S
N1195 N1194 1.354 . S
N1195 Zn1199 2.020 . S
C1196 O1197 1.244 . S
C1196 O1220 1.257 . S
O1197 C1196 1.244 . S
O1198 Zn1190 2.019 . S
O1198 C1218 1.257 . S
Zn1199 N1195 2.020 . S
Zn1199 O1206 1.975 . S
Zn1199 N1215 2.119 . S
Zn1199 O1220 2.019 . S
N1200 Zn1190 2.119 . S
N1200 C1202 1.334 . S
N1200 C1203 1.328 . S
C1201 C1202 1.391 . S
C1201 N1204 1.329 . S
C1201 H1222 0.930 . S
C1202 N1200 1.334 . S
C1202 C1201 1.391 . S
C1202 H1209 0.930 . S
C1203 N1200 1.328 . S
C1203 C1205 1.392 . S
C1203 H1210 0.930 . S
N1204 C1201 1.329 . S
N1204 C1205 1.331 . S
C1205 C1203 1.392 . S
C1205 N1204 1.331 . S
O1206 Zn1199 1.975 . S
O1206 C1207 1.252 . S
C1207 O1206 1.252 . S
C1207 O1208 1.252 . S
O1208 Zn1190 1.975 . S
O1208 C1207 1.252 . S
H1209 C1202 0.930 . S
H1210 C1203 0.930 . S
C1211 C1212 1.392 . S
C1211 N1215 1.328 1_655 S
C1211 H1217 0.930 . S
C1212 C1211 1.392 . S
C1212 N1216 1.331 . S
C1213 C1214 1.391 1_655 S
C1213 N1216 1.329 . S
C1213 H1223 0.930 . S
C1214 C1213 1.391 1_455 S
C1214 N1215 1.334 . S
C1214 H1221 0.930 . S
N1215 Zn1199 2.119 . S
N1215 C1211 1.328 1_455 S
N1215 C1214 1.334 . S
N1216 C1212 1.331 . S
N1216 C1213 1.329 . S
H1217 C1211 0.930 . S
C1218 O1198 1.257 . S
C1218 O1219 1.244 . S
O1219 C1218 1.244 . S
O1220 C1196 1.257 . S
O1220 Zn1199 2.019 . S
H1221 C1214 0.930 . S
H1222 C1201 0.930 . S
H1223 C1213 0.930 . S
Zn1224 N1228 2.020 . S
Zn1224 O1232 2.019 . S
Zn1224 N1234 2.119 . S
Zn1224 O1242 1.975 . S
C1225 N1226 1.334 . S
C1225 N1229 1.336 . S
N1226 C1225 1.334 . S
N1226 C1227 1.334 . S
C1227 N1226 1.334 . S
C1227 N1228 1.336 . S
N1228 Zn1224 2.020 . S
N1228 C1227 1.336 . S
N1228 N1229 1.354 . S
N1229 C1225 1.336 . S
N1229 N1228 1.354 . S
N1229 Zn1233 2.020 . S
C1230 O1231 1.244 . S
C1230 O1254 1.257 . S
O1231 C1230 1.244 . S
O1232 Zn1224 2.019 . S
O1232 C1252 1.257 . S
Zn1233 N1229 2.020 . S
Zn1233 O1240 1.975 . S
Zn1233 N1249 2.119 . S
Zn1233 O1254 2.019 . S
N1234 Zn1224 2.119 . S
N1234 C1236 1.334 . S
N1234 C1237 1.328 . S
C1235 C1236 1.391 . S
C1235 N1238 1.329 . S
C1235 H1256 0.930 . S
C1236 N1234 1.334 . S
C1236 C1235 1.391 . S
C1236 H1243 0.930 . S
C1237 N1234 1.328 . S
C1237 C1239 1.392 . S
C1237 H1244 0.930 . S
N1238 C1235 1.329 . S
N1238 C1239 1.331 . S
C1239 C1237 1.392 . S
C1239 N1238 1.331 . S
O1240 Zn1233 1.975 . S
O1240 C1241 1.252 . S
C1241 O1240 1.252 . S
C1241 O1242 1.252 . S
O1242 Zn1224 1.975 . S
O1242 C1241 1.252 . S
H1243 C1236 0.930 . S
H1244 C1237 0.930 . S
C1245 C1246 1.392 . S
C1245 N1249 1.328 . S
C1245 H1251 0.930 . S
C1246 C1245 1.392 . S
C1246 N1250 1.331 . S
C1247 C1248 1.391 . S
C1247 N1250 1.329 . S
C1247 H1257 0.930 . S
C1248 C1247 1.391 . S
C1248 N1249 1.334 . S
C1248 H1255 0.930 . S
N1249 Zn1233 2.119 . S
N1249 C1245 1.328 . S
N1249 C1248 1.334 . S
N1250 C1246 1.331 . S
N1250 C1247 1.329 . S
H1251 C1245 0.930 . S
C1252 O1232 1.257 . S
C1252 O1253 1.244 . S
O1253 C1252 1.244 . S
O1254 C1230 1.257 . S
O1254 Zn1233 2.019 . S
H1255 C1248 0.930 . S
H1256 C1235 0.930 . S
H1257 C1247 0.930 . S
Zn1258 N1262 2.020 . S
Zn1258 O1266 2.019 . S
Zn1258 N1268 2.119 . S
Zn1258 O1276 1.975 . S
C1259 N1260 1.334 . S
C1259 N1263 1.336 . S
N1260 C1259 1.334 . S
N1260 C1261 1.334 . S
C1261 N1260 1.334 . S
C1261 N1262 1.336 . S
N1262 Zn1258 2.020 . S
N1262 C1261 1.336 . S
N1262 N1263 1.354 . S
N1263 C1259 1.336 . S
N1263 N1262 1.354 . S
N1263 Zn1267 2.020 . S
C1264 O1265 1.244 . S
C1264 O1288 1.257 . S
O1265 C1264 1.244 . S
O1266 Zn1258 2.019 . S
O1266 C1286 1.257 . S
Zn1267 N1263 2.020 . S
Zn1267 O1274 1.975 . S
Zn1267 N1283 2.119 . S
Zn1267 O1288 2.019 1_545 S
N1268 Zn1258 2.119 . S
N1268 C1270 1.334 . S
N1268 C1271 1.328 . S
C1269 C1270 1.391 . S
C1269 N1272 1.329 . S
C1269 H1290 0.930 . S
C1270 N1268 1.334 . S
C1270 C1269 1.391 . S
C1270 H1277 0.930 . S
C1271 N1268 1.328 . S
C1271 C1273 1.392 . S
C1271 H1278 0.930 . S
N1272 C1269 1.329 . S
N1272 C1273 1.331 . S
C1273 C1271 1.392 . S
C1273 N1272 1.331 . S
O1274 Zn1267 1.975 . S
O1274 C1275 1.252 . S
C1275 O1274 1.252 . S
C1275 O1276 1.252 . S
O1276 Zn1258 1.975 . S
O1276 C1275 1.252 . S
H1277 C1270 0.930 . S
H1278 C1271 0.930 . S
C1279 C1280 1.392 . S
C1279 N1283 1.328 . S
C1279 H1285 0.930 1_545 S
C1280 C1279 1.392 . S
C1280 N1284 1.331 . S
C1281 C1282 1.391 . S
C1281 N1284 1.329 . S
C1281 H1291 0.930 . S
C1282 C1281 1.391 . S
C1282 N1283 1.334 . S
C1282 H1289 0.930 . S
N1283 Zn1267 2.119 . S
N1283 C1279 1.328 . S
N1283 C1282 1.334 . S
N1284 C1280 1.331 . S
N1284 C1281 1.329 . S
H1285 C1279 0.930 1_565 S
C1286 O1266 1.257 . S
C1286 O1287 1.244 . S
O1287 C1286 1.244 . S
O1288 C1264 1.257 . S
O1288 Zn1267 2.019 1_565 S
H1289 C1282 0.930 . S
H1290 C1269 0.930 . S
H1291 C1281 0.930 . S
Zn1292 N1296 2.020 . S
Zn1292 O1300 2.019 . S
Zn1292 N1302 2.119 . S
Zn1292 O1310 1.975 . S
C1293 N1294 1.334 . S
C1293 N1297 1.336 . S
N1294 C1293 1.334 . S
N1294 C1295 1.334 . S
C1295 N1294 1.334 . S
C1295 N1296 1.336 . S
N1296 Zn1292 2.020 . S
N1296 C1295 1.336 . S
N1296 N1297 1.354 . S
N1297 C1293 1.336 . S
N1297 N1296 1.354 . S
N1297 Zn1301 2.020 . S
C1298 O1299 1.244 . S
C1298 O1322 1.257 . S
O1299 C1298 1.244 . S
O1300 Zn1292 2.019 . S
O1300 C1320 1.257 . S
Zn1301 N1297 2.020 . S
Zn1301 O1308 1.975 . S
Zn1301 N1317 2.119 . S
Zn1301 O1322 2.019 . S
N1302 Zn1292 2.119 . S
N1302 C1304 1.334 . S
N1302 C1305 1.328 . S
C1303 C1304 1.391 . S
C1303 N1306 1.329 . S
C1303 H1324 0.930 . S
C1304 N1302 1.334 . S
C1304 C1303 1.391 . S
C1304 H1311 0.930 . S
C1305 N1302 1.328 . S
C1305 C1307 1.392 . S
C1305 H1312 0.930 . S
N1306 C1303 1.329 . S
N1306 C1307 1.331 . S
C1307 C1305 1.392 . S
C1307 N1306 1.331 . S
O1308 Zn1301 1.975 . S
O1308 C1309 1.252 . S
C1309 O1308 1.252 . S
C1309 O1310 1.252 . S
O1310 Zn1292 1.975 . S
O1310 C1309 1.252 . S
H1311 C1304 0.930 . S
H1312 C1305 0.930 . S
C1313 C1314 1.392 . S
C1313 N1317 1.328 . S
C1313 H1319 0.930 . S
C1314 C1313 1.392 . S
C1314 N1318 1.331 1_545 S
C1315 C1316 1.391 . S
C1315 N1318 1.329 1_545 S
C1315 H1325 0.930 . S
C1316 C1315 1.391 . S
C1316 N1317 1.334 . S
C1316 H1323 0.930 . S
N1317 Zn1301 2.119 . S
N1317 C1313 1.328 . S
N1317 C1316 1.334 . S
N1318 C1314 1.331 1_565 S
N1318 C1315 1.329 1_565 S
H1319 C1313 0.930 . S
C1320 O1300 1.257 . S
C1320 O1321 1.244 . S
O1321 C1320 1.244 . S
O1322 C1298 1.257 . S
O1322 Zn1301 2.019 . S
H1323 C1316 0.930 . S
H1324 C1303 0.930 . S
H1325 C1315 0.930 . S
Zn1326 N1330 2.020 . S
Zn1326 O1334 2.019 . S
Zn1326 N1336 2.119 . S
Zn1326 O1344 1.975 . S
C1327 N1328 1.334 . S
C1327 N1331 1.336 . S
N1328 C1327 1.334 . S
N1328 C1329 1.334 . S
C1329 N1328 1.334 . S
C1329 N1330 1.336 . S
N1330 Zn1326 2.020 . S
N1330 C1329 1.336 . S
N1330 N1331 1.354 . S
N1331 C1327 1.336 . S
N1331 N1330 1.354 . S
N1331 Zn1335 2.020 . S
C1332 O1333 1.244 . S
C1332 O1356 1.257 . S
O1333 C1332 1.244 . S
O1334 Zn1326 2.019 . S
O1334 C1354 1.257 . S
Zn1335 N1331 2.020 . S
Zn1335 O1342 1.975 . S
Zn1335 N1351 2.119 . S
Zn1335 O1356 2.019 . S
N1336 Zn1326 2.119 . S
N1336 C1338 1.334 . S
N1336 C1339 1.328 . S
C1337 C1338 1.391 . S
C1337 N1340 1.329 . S
C1337 H1358 0.930 . S
C1338 N1336 1.334 . S
C1338 C1337 1.391 . S
C1338 H1345 0.930 . S
C1339 N1336 1.328 . S
C1339 C1341 1.392 . S
C1339 H1346 0.930 . S
N1340 C1337 1.329 . S
N1340 C1341 1.331 . S
C1341 C1339 1.392 . S
C1341 N1340 1.331 . S
O1342 Zn1335 1.975 . S
O1342 C1343 1.252 . S
C1343 O1342 1.252 . S
C1343 O1344 1.252 . S
O1344 Zn1326 1.975 . S
O1344 C1343 1.252 . S
H1345 C1338 0.930 . S
H1346 C1339 0.930 . S
C1347 C1348 1.392 . S
C1347 N1351 1.328 . S
C1347 H1353 0.930 . S
C1348 C1347 1.392 . S
C1348 N1352 1.331 . S
C1349 C1350 1.391 . S
C1349 N1352 1.329 . S
C1349 H1359 0.930 . S
C1350 C1349 1.391 . S
C1350 N1351 1.334 . S
C1350 H1357 0.930 . S
N1351 Zn1335 2.119 . S
N1351 C1347 1.328 . S
N1351 C1350 1.334 . S
N1352 C1348 1.331 . S
N1352 C1349 1.329 . S
H1353 C1347 0.930 . S
C1354 O1334 1.257 . S
C1354 O1355 1.244 . S
O1355 C1354 1.244 . S
O1356 C1332 1.257 . S
O1356 Zn1335 2.019 . S
H1357 C1350 0.930 . S
H1358 C1337 0.930 . S
H1359 C1349 0.930 . S
Zn1360 N1364 2.020 . S
Zn1360 O1368 2.019 . S
Zn1360 N1370 2.119 . S
Zn1360 O1378 1.975 . S
C1361 N1362 1.334 . S
C1361 N1365 1.336 . S
N1362 C1361 1.334 . S
N1362 C1363 1.334 . S
C1363 N1362 1.334 . S
C1363 N1364 1.336 . S
N1364 Zn1360 2.020 . S
N1364 C1363 1.336 . S
N1364 N1365 1.354 . S
N1365 C1361 1.336 . S
N1365 N1364 1.354 . S
N1365 Zn1369 2.020 . S
C1366 O1367 1.244 . S
C1366 O1390 1.257 . S
O1367 C1366 1.244 . S
O1368 Zn1360 2.019 . S
O1368 C1388 1.257 . S
Zn1369 N1365 2.020 . S
Zn1369 O1376 1.975 . S
Zn1369 N1385 2.119 . S
Zn1369 O1390 2.019 . S
N1370 Zn1360 2.119 . S
N1370 C1372 1.334 . S
N1370 C1373 1.328 . S
C1371 C1372 1.391 . S
C1371 N1374 1.329 . S
C1371 H1392 0.930 . S
C1372 N1370 1.334 . S
C1372 C1371 1.391 . S
C1372 H1379 0.930 . S
C1373 N1370 1.328 . S
C1373 C1375 1.392 . S
C1373 H1380 0.930 . S
N1374 C1371 1.329 . S
N1374 C1375 1.331 . S
C1375 C1373 1.392 . S
C1375 N1374 1.331 . S
O1376 Zn1369 1.975 . S
O1376 C1377 1.252 . S
C1377 O1376 1.252 . S
C1377 O1378 1.252 . S
O1378 Zn1360 1.975 . S
O1378 C1377 1.252 . S
H1379 C1372 0.930 . S
H1380 C1373 0.930 . S
C1381 C1382 1.392 . S
C1381 N1385 1.328 . S
C1381 H1387 0.930 . S
C1382 C1381 1.392 . S
C1382 N1386 1.331 . S
C1383 C1384 1.391 . S
C1383 N1386 1.329 . S
C1383 H1393 0.930 . S
C1384 C1383 1.391 . S
C1384 N1385 1.334 . S
C1384 H1391 0.930 . S
N1385 Zn1369 2.119 . S
N1385 C1381 1.328 . S
N1385 C1384 1.334 . S
N1386 C1382 1.331 . S
N1386 C1383 1.329 . S
H1387 C1381 0.930 . S
C1388 O1368 1.257 . S
C1388 O1389 1.244 . S
O1389 C1388 1.244 . S
O1390 C1366 1.257 . S
O1390 Zn1369 2.019 . S
H1391 C1384 0.930 . S
H1392 C1371 0.930 . S
H1393 C1383 0.930 . S
Zn1394 N1398 2.020 . S
Zn1394 O1402 2.019 . S
Zn1394 N1404 2.119 . S
Zn1394 O1412 1.975 . S
C1395 N1396 1.334 . S
C1395 N1399 1.336 . S
N1396 C1395 1.334 . S
N1396 C1397 1.334 . S
C1397 N1396 1.334 . S
C1397 N1398 1.336 . S
N1398 Zn1394 2.020 . S
N1398 C1397 1.336 . S
N1398 N1399 1.354 . S
N1399 C1395 1.336 . S
N1399 N1398 1.354 . S
N1399 Zn1403 2.020 . S
C1400 O1401 1.244 . S
C1400 O1424 1.257 . S
O1401 C1400 1.244 . S
O1402 Zn1394 2.019 . S
O1402 C1422 1.257 . S
Zn1403 N1399 2.020 . S
Zn1403 O1410 1.975 . S
Zn1403 N1419 2.119 . S
Zn1403 O1424 2.019 . S
N1404 Zn1394 2.119 . S
N1404 C1406 1.334 . S
N1404 C1407 1.328 . S
C1405 C1406 1.391 . S
C1405 N1408 1.329 1_556 S
C1405 H1426 0.930 . S
C1406 N1404 1.334 . S
C1406 C1405 1.391 . S
C1406 H1413 0.930 . S
C1407 N1404 1.328 . S
C1407 C1409 1.392 . S
C1407 H1414 0.930 . S
N1408 C1405 1.329 1_554 S
N1408 C1409 1.331 1_554 S
C1409 C1407 1.392 . S
C1409 N1408 1.331 1_556 S
O1410 Zn1403 1.975 . S
O1410 C1411 1.252 . S
C1411 O1410 1.252 . S
C1411 O1412 1.252 . S
O1412 Zn1394 1.975 . S
O1412 C1411 1.252 . S
H1413 C1406 0.930 . S
H1414 C1407 0.930 . S
C1415 C1416 1.392 . S
C1415 N1419 1.328 . S
C1415 H1421 0.930 . S
C1416 C1415 1.392 . S
C1416 N1420 1.331 . S
C1417 C1418 1.391 . S
C1417 N1420 1.329 . S
C1417 H1427 0.930 . S
C1418 C1417 1.391 . S
C1418 N1419 1.334 . S
C1418 H1425 0.930 . S
N1419 Zn1403 2.119 . S
N1419 C1415 1.328 . S
N1419 C1418 1.334 . S
N1420 C1416 1.331 . S
N1420 C1417 1.329 . S
H1421 C1415 0.930 . S
C1422 O1402 1.257 . S
C1422 O1423 1.244 . S
O1423 C1422 1.244 . S
O1424 C1400 1.257 . S
O1424 Zn1403 2.019 . S
H1425 C1418 0.930 . S
H1426 C1405 0.930 . S
H1427 C1417 0.930 . S
Zn1428 N1432 2.020 . S
Zn1428 O1436 2.019 . S
Zn1428 N1438 2.119 . S
Zn1428 O1446 1.975 . S
C1429 N1430 1.334 1_565 S
C1429 N1433 1.336 . S
N1430 C1429 1.334 1_545 S
N1430 C1431 1.334 1_545 S
C1431 N1430 1.334 1_565 S
C1431 N1432 1.336 . S
N1432 Zn1428 2.020 . S
N1432 C1431 1.336 . S
N1432 N1433 1.354 . S
N1433 C1429 1.336 . S
N1433 N1432 1.354 . S
N1433 Zn1437 2.020 . S
C1434 O1435 1.244 . S
C1434 O1458 1.257 . S
O1435 C1434 1.244 . S
O1436 Zn1428 2.019 . S
O1436 C1456 1.257 . S
Zn1437 N1433 2.020 . S
Zn1437 O1444 1.975 . S
Zn1437 N1453 2.119 . S
Zn1437 O1458 2.019 . S
N1438 Zn1428 2.119 . S
N1438 C1440 1.334 . S
N1438 C1441 1.328 . S
C1439 C1440 1.391 . S
C1439 N1442 1.329 . S
C1439 H1460 0.930 . S
C1440 N1438 1.334 . S
C1440 C1439 1.391 . S
C1440 H1447 0.930 . S
C1441 N1438 1.328 . S
C1441 C1443 1.392 . S
C1441 H1448 0.930 . S
N1442 C1439 1.329 . S
N1442 C1443 1.331 . S
C1443 C1441 1.392 . S
C1443 N1442 1.331 . S
O1444 Zn1437 1.975 . S
O1444 C1445 1.252 . S
C1445 O1444 1.252 . S
C1445 O1446 1.252 . S
O1446 Zn1428 1.975 . S
O1446 C1445 1.252 . S
H1447 C1440 0.930 . S
H1448 C1441 0.930 . S
C1449 C1450 1.392 . S
C1449 N1453 1.328 . S
C1449 H1455 0.930 . S
C1450 C1449 1.392 . S
C1450 N1454 1.331 . S
C1451 C1452 1.391 . S
C1451 N1454 1.329 . S
C1451 H1461 0.930 . S
C1452 C1451 1.391 . S
C1452 N1453 1.334 . S
C1452 H1459 0.930 . S
N1453 Zn1437 2.119 . S
N1453 C1449 1.328 . S
N1453 C1452 1.334 . S
N1454 C1450 1.331 . S
N1454 C1451 1.329 . S
H1455 C1449 0.930 . S
C1456 O1436 1.257 . S
C1456 O1457 1.244 . S
O1457 C1456 1.244 . S
O1458 C1434 1.257 . S
O1458 Zn1437 2.019 . S
H1459 C1452 0.930 . S
H1460 C1439 0.930 . S
H1461 C1451 0.930 . S
Zn1462 N1466 2.020 . S
Zn1462 O1470 2.019 . S
Zn1462 N1472 2.119 . S
Zn1462 O1480 1.975 . S
C1463 N1464 1.334 . S
C1463 N1467 1.336 . S
N1464 C1463 1.334 . S
N1464 C1465 1.334 . S
C1465 N1464 1.334 . S
C1465 N1466 1.336 . S
N1466 Zn1462 2.020 . S
N1466 C1465 1.336 . S
N1466 N1467 1.354 . S
N1467 C1463 1.336 . S
N1467 N1466 1.354 . S
N1467 Zn1471 2.020 . S
C1468 O1469 1.244 . S
C1468 O1492 1.257 . S
O1469 C1468 1.244 . S
O1470 Zn1462 2.019 . S
O1470 C1490 1.257 . S
Zn1471 N1467 2.020 . S
Zn1471 O1478 1.975 . S
Zn1471 N1487 2.119 . S
Zn1471 O1492 2.019 . S
N1472 Zn1462 2.119 . S
N1472 C1474 1.334 . S
N1472 C1475 1.328 . S
C1473 C1474 1.391 . S
C1473 N1476 1.329 . S
C1473 H1494 0.930 . S
C1474 N1472 1.334 . S
C1474 C1473 1.391 . S
C1474 H1481 0.930 . S
C1475 N1472 1.328 . S
C1475 C1477 1.392 . S
C1475 H1482 0.930 . S
N1476 C1473 1.329 . S
N1476 C1477 1.331 . S
C1477 C1475 1.392 . S
C1477 N1476 1.331 . S
O1478 Zn1471 1.975 . S
O1478 C1479 1.252 . S
C1479 O1478 1.252 . S
C1479 O1480 1.252 . S
O1480 Zn1462 1.975 . S
O1480 C1479 1.252 . S
H1481 C1474 0.930 . S
H1482 C1475 0.930 . S
C1483 C1484 1.392 . S
C1483 N1487 1.328 . S
C1483 H1489 0.930 . S
C1484 C1483 1.392 . S
C1484 N1488 1.331 1_556 S
C1485 C1486 1.391 . S
C1485 N1488 1.329 1_556 S
C1485 H1495 0.930 . S
C1486 C1485 1.391 . S
C1486 N1487 1.334 . S
C1486 H1493 0.930 . S
N1487 Zn1471 2.119 . S
N1487 C1483 1.328 . S
N1487 C1486 1.334 . S
N1488 C1484 1.331 1_554 S
N1488 C1485 1.329 1_554 S
H1489 C1483 0.930 . S
C1490 O1470 1.257 . S
C1490 O1491 1.244 . S
O1491 C1490 1.244 . S
O1492 C1468 1.257 . S
O1492 Zn1471 2.019 . S
H1493 C1486 0.930 . S
H1494 C1473 0.930 . S
H1495 C1485 0.930 . S
Zn1496 N1500 2.020 . S
Zn1496 O1504 2.019 1_655 S
Zn1496 N1506 2.119 . S
Zn1496 O1514 1.975 . S
C1497 N1498 1.334 1_545 S
C1497 N1501 1.336 . S
N1498 C1497 1.334 1_565 S
N1498 C1499 1.334 1_565 S
C1499 N1498 1.334 1_545 S
C1499 N1500 1.336 . S
N1500 Zn1496 2.020 . S
N1500 C1499 1.336 . S
N1500 N1501 1.354 . S
N1501 C1497 1.336 . S
N1501 N1500 1.354 . S
N1501 Zn1505 2.020 . S
C1502 O1503 1.244 . S
C1502 O1526 1.257 . S
O1503 C1502 1.244 . S
O1504 Zn1496 2.019 1_455 S
O1504 C1524 1.257 . S
Zn1505 N1501 2.020 . S
Zn1505 O1512 1.975 . S
Zn1505 N1521 2.119 . S
Zn1505 O1526 2.019 . S
N1506 Zn1496 2.119 . S
N1506 C1508 1.334 . S
N1506 C1509 1.328 . S
C1507 C1508 1.391 . S
C1507 N1510 1.329 . S
C1507 H1528 0.930 . S
C1508 N1506 1.334 . S
C1508 C1507 1.391 . S
C1508 H1515 0.930 . S
C1509 N1506 1.328 . S
C1509 C1511 1.392 . S
C1509 H1516 0.930 1_655 S
N1510 C1507 1.329 . S
N1510 C1511 1.331 . S
C1511 C1509 1.392 . S
C1511 N1510 1.331 . S
O1512 Zn1505 1.975 . S
O1512 C1513 1.252 . S
C1513 O1512 1.252 . S
C1513 O1514 1.252 . S
O1514 Zn1496 1.975 . S
O1514 C1513 1.252 . S
H1515 C1508 0.930 . S
H1516 C1509 0.930 1_455 S
C1517 C1518 1.392 . S
C1517 N1521 1.328 1_554 S
C1517 H1523 0.930 . S
C1518 C1517 1.392 . S
C1518 N1522 1.331 . S
C1519 C1520 1.391 1_554 S
C1519 N1522 1.329 . S
C1519 H1529 0.930 . S
C1520 C1519 1.391 1_556 S
C1520 N1521 1.334 . S
C1520 H1527 0.930 . S
N1521 Zn1505 2.119 . S
N1521 C1517 1.328 1_556 S
N1521 C1520 1.334 . S
N1522 C1518 1.331 . S
N1522 C1519 1.329 . S
H1523 C1517 0.930 . S
C1524 O1504 1.257 . S
C1524 O1525 1.244 . S
O1525 C1524 1.244 . S
O1526 C1502 1.257 . S
O1526 Zn1505 2.019 . S
H1527 C1520 0.930 . S
H1528 C1507 0.930 . S
H1529 C1519 0.930 . S
Zn1530 N1534 2.020 . S
Zn1530 O1538 2.019 . S
Zn1530 N1540 2.119 . S
Zn1530 O1548 1.975 . S
C1531 N1532 1.334 . S
C1531 N1535 1.336 . S
N1532 C1531 1.334 . S
N1532 C1533 1.334 . S
C1533 N1532 1.334 . S
C1533 N1534 1.336 . S
N1534 Zn1530 2.020 . S
N1534 C1533 1.336 . S
N1534 N1535 1.354 . S
N1535 C1531 1.336 . S
N1535 N1534 1.354 . S
N1535 Zn1539 2.020 . S
C1536 O1537 1.244 . S
C1536 O1560 1.257 . S
O1537 C1536 1.244 . S
O1538 Zn1530 2.019 . S
O1538 C1558 1.257 . S
Zn1539 N1535 2.020 . S
Zn1539 O1546 1.975 . S
Zn1539 N1555 2.119 . S
Zn1539 O1560 2.019 . S
N1540 Zn1530 2.119 . S
N1540 C1542 1.334 . S
N1540 C1543 1.328 . S
C1541 C1542 1.391 . S
C1541 N1544 1.329 1_554 S
C1541 H1562 0.930 . S
C1542 N1540 1.334 . S
C1542 C1541 1.391 . S
C1542 H1549 0.930 . S
C1543 N1540 1.328 . S
C1543 C1545 1.392 . S
C1543 H1550 0.930 . S
N1544 C1541 1.329 1_556 S
N1544 C1545 1.331 1_556 S
C1545 C1543 1.392 . S
C1545 N1544 1.331 1_554 S
O1546 Zn1539 1.975 . S
O1546 C1547 1.252 . S
C1547 O1546 1.252 . S
C1547 O1548 1.252 . S
O1548 Zn1530 1.975 . S
O1548 C1547 1.252 . S
H1549 C1542 0.930 . S
H1550 C1543 0.930 . S
C1551 C1552 1.392 . S
C1551 N1555 1.328 . S
C1551 H1557 0.930 . S
C1552 C1551 1.392 . S
C1552 N1556 1.331 . S
C1553 C1554 1.391 . S
C1553 N1556 1.329 . S
C1553 H1563 0.930 . S
C1554 C1553 1.391 . S
C1554 N1555 1.334 . S
C1554 H1561 0.930 . S
N1555 Zn1539 2.119 . S
N1555 C1551 1.328 . S
N1555 C1554 1.334 . S
N1556 C1552 1.331 . S
N1556 C1553 1.329 . S
H1557 C1551 0.930 . S
C1558 O1538 1.257 . S
C1558 O1559 1.244 . S
O1559 C1558 1.244 . S
O1560 C1536 1.257 . S
O1560 Zn1539 2.019 . S
H1561 C1554 0.930 . S
H1562 C1541 0.930 . S
H1563 C1553 0.930 . S
Zn1564 N1568 2.020 . S
Zn1564 O1572 2.019 . S
Zn1564 N1574 2.119 . S
Zn1564 O1582 1.975 . S
C1565 N1566 1.334 1_545 S
C1565 N1569 1.336 . S
N1566 C1565 1.334 1_565 S
N1566 C1567 1.334 1_565 S
C1567 N1566 1.334 1_545 S
C1567 N1568 1.336 . S
N1568 Zn1564 2.020 . S
N1568 C1567 1.336 . S
N1568 N1569 1.354 . S
N1569 C1565 1.336 . S
N1569 N1568 1.354 . S
N1569 Zn1573 2.020 . S
C1570 O1571 1.244 . S
C1570 O1594 1.257 . S
O1571 C1570 1.244 . S
O1572 Zn1564 2.019 . S
O1572 C1592 1.257 . S
Zn1573 N1569 2.020 . S
Zn1573 O1580 1.975 . S
Zn1573 N1589 2.119 . S
Zn1573 O1594 2.019 . S
N1574 Zn1564 2.119 . S
N1574 C1576 1.334 . S
N1574 C1577 1.328 1_554 S
C1575 C1576 1.391 1_556 S
C1575 N1578 1.329 . S
C1575 H1596 0.930 . S
C1576 N1574 1.334 . S
C1576 C1575 1.391 1_554 S
C1576 H1583 0.930 . S
C1577 N1574 1.328 1_556 S
C1577 C1579 1.392 . S
C1577 H1584 0.930 . S
N1578 C1575 1.329 . S
N1578 C1579 1.331 . S
C1579 C1577 1.392 . S
C1579 N1578 1.331 . S
O1580 Zn1573 1.975 . S
O1580 C1581 1.252 . S
C1581 O1580 1.252 . S
C1581 O1582 1.252 . S
O1582 Zn1564 1.975 . S
O1582 C1581 1.252 . S
H1583 C1576 0.930 . S
H1584 C1577 0.930 . S
C1585 C1586 1.392 . S
C1585 N1589 1.328 . S
C1585 H1591 0.930 . S
C1586 C1585 1.392 . S
C1586 N1590 1.331 . S
C1587 C1588 1.391 . S
C1587 N1590 1.329 . S
C1587 H1597 0.930 . S
C1588 C1587 1.391 . S
C1588 N1589 1.334 . S
C1588 H1595 0.930 . S
N1589 Zn1573 2.119 . S
N1589 C1585 1.328 . S
N1589 C1588 1.334 . S
N1590 C1586 1.331 . S
N1590 C1587 1.329 . S
H1591 C1585 0.930 . S
C1592 O1572 1.257 . S
C1592 O1593 1.244 . S
O1593 C1592 1.244 . S
O1594 C1570 1.257 . S
O1594 Zn1573 2.019 . S
H1595 C1588 0.930 . S
H1596 C1575 0.930 . S
H1597 C1587 0.930 . S
Zn1598 N1602 2.020 . S
Zn1598 O1606 2.019 . S
Zn1598 N1608 2.119 . S
Zn1598 O1616 1.975 . S
C1599 N1600 1.334 . S
C1599 N1603 1.336 . S
N1600 C1599 1.334 . S
N1600 C1601 1.334 . S
C1601 N1600 1.334 . S
C1601 N1602 1.336 . S
N1602 Zn1598 2.020 . S
N1602 C1601 1.336 . S
N1602 N1603 1.354 . S
N1603 C1599 1.336 . S
N1603 N1602 1.354 . S
N1603 Zn1607 2.020 . S
C1604 O1605 1.244 . S
C1604 O1628 1.257 . S
O1605 C1604 1.244 . S
O1606 Zn1598 2.019 . S
O1606 C1626 1.257 . S
Zn1607 N1603 2.020 . S
Zn1607 O1614 1.975 . S
Zn1607 N1623 2.119 . S
Zn1607 O1628 2.019 . S
N1608 Zn1598 2.119 . S
N1608 C1610 1.334 . S
N1608 C1611 1.328 1_554 S
C1609 C1610 1.391 1_556 S
C1609 N1612 1.329 . S
C1609 H1630 0.930 . S
C1610 N1608 1.334 . S
C1610 C1609 1.391 1_554 S
C1610 H1617 0.930 . S
C1611 N1608 1.328 1_556 S
C1611 C1613 1.392 . S
C1611 H1618 0.930 . S
N1612 C1609 1.329 . S
N1612 C1613 1.331 . S
C1613 C1611 1.392 . S
C1613 N1612 1.331 . S
O1614 Zn1607 1.975 . S
O1614 C1615 1.252 . S
C1615 O1614 1.252 . S
C1615 O1616 1.252 . S
O1616 Zn1598 1.975 . S
O1616 C1615 1.252 . S
H1617 C1610 0.930 . S
H1618 C1611 0.930 . S
C1619 C1620 1.392 . S
C1619 N1623 1.328 . S
C1619 H1625 0.930 . S
C1620 C1619 1.392 . S
C1620 N1624 1.331 . S
C1621 C1622 1.391 . S
C1621 N1624 1.329 . S
C1621 H1631 0.930 . S
C1622 C1621 1.391 . S
C1622 N1623 1.334 . S
C1622 H1629 0.930 . S
N1623 Zn1607 2.119 . S
N1623 C1619 1.328 . S
N1623 C1622 1.334 . S
N1624 C1620 1.331 . S
N1624 C1621 1.329 . S
H1625 C1619 0.930 . S
C1626 O1606 1.257 . S
C1626 O1627 1.244 . S
O1627 C1626 1.244 . S
O1628 C1604 1.257 . S
O1628 Zn1607 2.019 . S
H1629 C1622 0.930 . S
H1630 C1609 0.930 . S
H1631 C1621 0.930 . S
C1207 C28 2.639 . S
C40 C1105 2.639 . S
C1139 C74 2.639 . S
C108 C1173 2.639 . S
C459 C164 2.639 . S
C198 C493 2.639 . S
C527 C232 2.639 . S
C425 C244 2.639 . S
C1003 C278 2.639 . S
C312 C1037 2.639 . S
C346 C1071 2.639 . S
C969 C402 2.639 . S
C436 C119 2.639 . S
C17 C448 2.639 . S
C51 C482 2.638 . S
C538 C85 2.639 . S
C1615 C550 2.639 . S
C584 C697 2.639 . S
C1411 C640 2.639 . S
C1445 C652 2.639 . S
C686 C663 2.639 . S
C742 C765 2.638 . S
C776 C1377 2.639 . S
C731 C810 2.639 . S
C844 C391 2.638 . S
C878 C289 2.639 . S
C323 C890 2.639 . S
C946 C357 2.639 . S
C980 C1275 2.638 . S
C992 C1309 2.639 . S
C1048 C1343 2.639 . S
C1060 C1241 2.639 . S
C1094 C187 2.638 . S
C221 C1150 2.639 . S
C255 C1162 2.639 . S
C1218 C153 2.639 . S
C1252 C935 2.639 . S
C833 C1264 2.639 . S
C867 C1298 2.639 . S
C901 C1354 2.639 . S
C799 C1366 2.638 . S
C1513 C1422 2.639 . S
C1456 C595 2.639 . S
C629 C1468 2.639 . S
C1524 C1479 2.639 . S
C1581 C1558 2.639 . S
C561 C1570 2.639 . S
C1547 C1604 2.639 . S
C275 C3 1.783 . S
C309 C35 1.784 1_556 S
C343 C69 1.784 . S
C375 C103 1.784 1_556 S
C139 C409 1.783 . S
C173 C445 1.784 1_656 S
C207 C479 1.784 . S
C239 C511 1.784 1_456 S
C273 C547 1.783 . S
C307 C1601 1.784 1_556 S
C1531 C341 1.783 . S
C1567 C377 1.784 1_544 S
C581 C411 1.784 . S
C443 C613 1.784 1_554 S
C477 C649 1.784 . S
C1497 C513 1.784 1_546 S
C545 C1 1.783 . S
C137 C579 1.783 . S
C171 C615 1.784 1_655 S
C205 C647 1.783 . S
C1057 C681 1.784 . S
C887 C717 1.784 . S
C919 C751 1.784 1_655 S
C851 C785 1.784 1_445 S
C819 C1091 1.784 . S
C853 C1123 1.784 1_455 S
C885 C1159 1.783 . S
C1191 C921 1.784 1_455 S
C1225 C955 1.784 . S
C987 C1261 1.784 . S
C1023 C1295 1.783 . S
C1327 C1055 1.784 . S
C1089 C1363 1.784 . S
C783 C1125 1.784 1_565 S
C1157 C715 1.784 . S
C1193 C749 1.784 . S
C1227 C1395 1.783 . S
C1259 C1429 1.784 1_545 S
C1293 C1465 1.783 . S
C1329 C683 1.784 . S
C1361 C817 1.784 . S
C953 C1397 1.784 . S
C989 C1431 1.784 1_545 S
C1021 C1463 1.784 . S
C1499 C241 1.784 1_645 S
C71 C1533 1.783 . S
C1565 C105 1.784 1_545 S
C37 C1599 1.784 . S
C634 C6 2.587 . S
C661 C62 2.587 . S
C96 C1518 2.587 . S
C593 C130 2.587 . S
C770 C142 2.587 . S
C176 C1375 2.587 . S
C804 C210 2.587 . S
C266 C736 2.587 . S
C1144 C300 2.587 . S
C334 C1171 2.587 . S
C368 C1212 2.587 . S
C1103 C380 2.587 . S
C532 C414 2.587 . S
C470 C430 2.587 . S
C457 C504 2.587 . S
C516 C491 2.587 . S
C117 C572 2.587 . S
C1001 C606 2.587 . S
C1042 C618 2.587 . S
C1069 C674 2.587 . S
C708 C158 2.587 . S
C872 C720 2.587 . S
C899 C754 2.587 . S
C788 C838 2.587 . S
C1450 C822 2.587 . S
C856 C1477 2.587 . S
C695 C912 2.587 . S
C1416 C924 2.587 . S
C958 C1579 2.587 . S
C1014 C559 2.587 . S
C1613 C1026 2.587 . S
C1552 C1082 2.587 . S
C321 C1116 2.587 . S
C355 C1128 2.587 . S
C1184 C396 2.587 . S
C1196 C287 2.587 . S
C1230 C1348 2.587 . S
C1286 C1246 2.587 . S
C1273 C1320 2.587 . S
C1332 C1307 2.587 . S
C1388 C940 2.587 . S
C192 C1400 2.587 . S
C226 C1434 2.587 . S
C253 C1490 2.587 . S
C1502 C974 2.587 . S
C1536 C49 2.587 . S
C1592 C83 2.587 . S
C1626 C22 2.587 . S
C15 C90 2.247 1_455 S
C56 C124 2.247 . S
C219 C151 2.247 1_655 S
C260 C185 2.247 1_455 S
C423 C294 2.247 1_565 S
C464 C328 2.247 1_554 S
C498 C362 2.247 . S
C525 C389 2.247 1_554 S
C1484 C566 2.247 1_556 S
C600 C729 2.247 . S
C763 C627 2.247 . S
C668 C1382 2.247 . S
C702 C1620 2.247 . S
C1511 C797 2.247 1_545 S
C906 C831 2.247 . S
C865 C933 2.247 1_455 S
C1035 C967 2.247 . S
C1008 C1076 2.247 . S
C1110 C1239 2.247 . S
C1137 C1280 2.247 . S
C1178 C1314 2.247 1_565 S
C1205 C1341 2.247 . S
C1409 C1545 2.247 1_556 S
C1586 C1443 2.247 1_545 S
