# Generated by pormake.
# Topology bsn, (6)-cn, num edge types: 1
# Building blocks:
#     Node 0, Type 0, BuildingBlock: MIDCAF_clean_sbu_0, # of connection points: 6
#     Node 1, Type 0, BuildingBlock: MIDCAF_clean_sbu_0, # of connection points: 6
#     Node 2, Type 0, BuildingBlock: MIDCAF_clean_sbu_0, # of connection points: 6
#     Node 3, Type 0, BuildingBlock: MIDCAF_clean_sbu_0, # of connection points: 6
#     Edge 4, Type (0, 0), BuildingBlock: FUNLAD_clean_linker_0, # of connection points: 2
#     Edge 5, Type (0, 0), BuildingBlock: FUNLAD_clean_linker_0, # of connection points: 2
#     Edge 6, Type (0, 0), BuildingBlock: FUNLAD_clean_linker_0, # of connection points: 2
#     Edge 7, Type (0, 0), BuildingBlock: FUNLAD_clean_linker_0, # of connection points: 2
#     Edge 8, Type (0, 0), BuildingBlock: FUNLAD_clean_linker_0, # of connection points: 2
#     Edge 9, Type (0, 0), BuildingBlock: FUNLAD_clean_linker_0, # of connection points: 2
#     Edge 10, Type (0, 0), BuildingBlock: FUNLAD_clean_linker_0, # of connection points: 2
#     Edge 11, Type (0, 0), BuildingBlock: FUNLAD_clean_linker_0, # of connection points: 2
#     Edge 12, Type (0, 0), BuildingBlock: FUNLAD_clean_linker_0, # of connection points: 2
#     Edge 13, Type (0, 0), BuildingBlock: FUNLAD_clean_linker_0, # of connection points: 2
#     Edge 14, Type (0, 0), BuildingBlock: FUNLAD_clean_linker_0, # of connection points: 2
#     Edge 15, Type (0, 0), BuildingBlock: FUNLAD_clean_linker_0, # of connection points: 2
# Relax obj value: 0.105
# Max RMSD: 0.165
# Mean RMSD: 0.163
data_MOF--net-bsn--node1-MIDCAF_clean_sbu_0--edge1-FUNLAD_clean_linker_0
_symmetry_space_group_name_H-M    P1
_symmetry_Int_Tables_number       1
_symmetry_cell_setting            triclinic
loop_
_symmetry_equiv_pos_as_xyz
'x, y, z'
_cell_length_a     34.826118
_cell_length_b     34.273767
_cell_length_c     17.84607
_cell_angle_alpha  90.299576
_cell_angle_beta   102.01893
_cell_angle_gamma 90.170276
loop_
_atom_site_label
_atom_site_type_symbol
_atom_site_fract_x
_atom_site_fract_y
_atom_site_fract_z
_atom_type_partial_charge
Zn0 Zn 0.00737 0.20503 0.31018 0.0
Zn1 Zn 0.10647 0.31196 0.46337 0.0
Zn2 Zn 0.05666 0.26058 0.38239 0.0
C3 C 0.03643 0.35149 0.40322 0.0
C4 C 0.14076 0.28283 0.34547 0.0
O5 O 0.05741 0.20946 0.45819 0.0
O6 O 0.01622 0.16576 0.39396 0.0
C7 C 0.96439 0.27479 0.31111 0.0
O8 O 0.02553 0.31729 0.37653 0.0
O9 O 0.07041 0.357 0.44334 0.0
O10 O 0.14747 0.30587 0.40218 0.0
O11 O 0.1078 0.26436 0.32782 0.0
O12 O 0.96043 0.23926 0.29163 0.0
O13 O 0.99816 0.28821 0.34537 0.0
O14 O 0.07784 0.24284 0.27873 0.0
O15 O 0.0349 0.19821 0.22358 0.0
C16 C 0.06488 0.21897 0.22301 0.0
O17 O 0.07472 0.24111 0.50394 0.0
O18 O 0.11476 0.28666 0.56461 0.0
C19 C 0.04132 0.17533 0.45307 0.0
C20 C 0.09647 0.25493 0.56602 0.0
Zn21 Zn 0.98562 0.81316 0.52039 0.0
Zn22 Zn 0.08044 0.70626 0.67319 0.0
Zn23 Zn 0.03269 0.76156 0.60101 0.0
C24 C 0.12535 0.77483 0.67539 0.0
C25 C 0.04771 0.67628 0.52934 0.0
O26 O 0.98085 0.76643 0.65409 0.0
O27 O 0.94398 0.80953 0.5802 0.0
C28 C 0.05573 0.85204 0.5815 0.0
O29 O 0.09203 0.78848 0.63999 0.0
O30 O 0.12831 0.73944 0.69514 0.0
O31 O 0.07235 0.66691 0.58889 0.0
O32 O 0.03172 0.71033 0.52425 0.0
O33 O 0.02236 0.85778 0.53952 0.0
O34 O 0.06535 0.8179 0.60907 0.0
O35 O 0.01473 0.7418 0.47868 0.0
O36 O 0.97595 0.78787 0.41874 0.0
C37 C 0.99333 0.75576 0.41678 0.0
O38 O 0.00975 0.74414 0.70295 0.0
O39 O 0.05174 0.69922 0.75778 0.0
C40 C 0.94891 0.78628 0.63599 0.0
C41 C 0.02183 0.71998 0.75797 0.0
Zn42 Zn 0.50571 0.70896 0.80201 0.0
Zn43 Zn 0.60549 0.81181 0.96139 0.0
Zn44 Zn 0.55429 0.76166 0.8806 0.0
C45 C 0.5956 0.75332 0.06265 0.0
C46 C 0.53494 0.85204 0.90897 0.0
O47 O 0.57641 0.74445 0.77627 0.0
O48 O 0.53465 0.6994 0.71905 0.0
C49 C 0.5338 0.67733 0.94624 0.0
O50 O 0.57252 0.74044 0.00119 0.0
O51 O 0.61486 0.78442 0.0608 0.0
O52 O 0.5695 0.85696 0.94678 0.0
O53 O 0.52333 0.81833 0.88049 0.0
O54 O 0.50962 0.66974 0.88469 0.0
O55 O 0.55244 0.71016 0.95483 0.0
O56 O 0.49591 0.79033 0.84456 0.0
O57 O 0.45942 0.7438 0.7783 0.0
C58 C 0.4628 0.77826 0.80433 0.0
O59 O 0.60535 0.76693 0.82509 0.0
O60 O 0.64556 0.80871 0.89803 0.0
C61 C 0.56473 0.72024 0.72038 0.0
C62 C 0.63796 0.7861 0.84083 0.0
Zn63 Zn 0.58717 0.21176 0.18322 0.0
Zn64 Zn 0.49169 0.30898 0.04065 0.0
Zn65 Zn 0.53848 0.26414 0.10627 0.0
C66 C 0.51124 0.26671 0.92675 0.0
C67 C 0.5507 0.35492 0.11566 0.0
O68 O 0.51719 0.24778 0.20949 0.0
O69 O 0.55936 0.20394 0.26851 0.0
C70 C 0.55526 0.17864 0.04044 0.0
O71 O 0.52171 0.2443 0.98522 0.0
O72 O 0.50183 0.30155 0.93697 0.0
O73 O 0.5137 0.35628 0.09926 0.0
O74 O 0.56814 0.32208 0.11152 0.0
O75 O 0.58005 0.17156 0.10117 0.0
O76 O 0.53785 0.21201 0.03085 0.0
O77 O 0.59672 0.29338 0.13995 0.0
O78 O 0.63379 0.24672 0.20257 0.0
C79 C 0.63015 0.28126 0.17774 0.0
O80 O 0.48622 0.26719 0.16025 0.0
O81 O 0.4423 0.28653 0.05994 0.0
C82 C 0.5292 0.2246 0.26614 0.0
C83 C 0.45016 0.27289 0.12674 0.0
C84 C 1.00195 0.41014 0.43601 0.0
C85 C 0.01257 0.3863 0.37962 0.0
C86 C 0.99395 0.44969 0.42179 0.0
C87 C 0.99745 0.46619 0.35139 0.0
C88 C 0.00464 0.44146 0.29287 0.0
C89 C 0.01166 0.40166 0.30658 0.0
C90 C 1.00249 0.50901 0.34444 0.0
C91 C 0.98555 0.5353 0.38333 0.0
C92 C 1.00175 0.57521 0.40109 0.0
C93 C 0.97664 0.60578 0.4117 0.0
C94 C 0.99199 0.6409 0.44601 0.0
C95 C 0.03267 0.64542 0.47268 0.0
H96 H 0.06282 0.55809 0.41524 0.0
C97 C 0.05788 0.6159 0.45751 0.0
C98 C 0.04261 0.58129 0.42124 0.0
H99 H 0.08933 0.61861 0.478 0.0
H100 H 1.00334 0.39902 0.49324 0.0
H101 H 0.98921 0.46789 0.46877 0.0
H102 H 0.00781 0.45345 0.23842 0.0
H103 H 0.02064 0.38394 0.26282 0.0
H104 H 0.02424 0.51885 0.3129 0.0
H105 H 0.96151 0.5263 0.4097 0.0
H106 H 0.94509 0.60169 0.39729 0.0
H107 H 0.97189 0.66306 0.4578 0.0
C108 C 0.68694 0.74632 0.7905 0.0
C109 C 0.66764 0.78196 0.79394 0.0
C110 C 0.72085 0.74476 0.75987 0.0
C111 C 0.7352 0.77877 0.73114 0.0
C112 C 0.71399 0.81359 0.72968 0.0
C113 C 0.68092 0.81535 0.76208 0.0
C114 C 0.77286 0.78 0.70509 0.0
C115 C 0.805 0.75984 0.73871 0.0
C116 C 0.84406 0.76748 0.72034 0.0
C117 C 0.87148 0.73718 0.72396 0.0
C118 C 0.90712 0.74356 0.70094 0.0
C119 C 0.91591 0.78051 0.67497 0.0
H120 H 0.83497 0.82961 0.7 0.0
C121 C 0.88968 0.81133 0.67664 0.0
C122 C 0.85435 0.80501 0.69959 0.0
H123 H 0.89599 0.84025 0.65797 0.0
H124 H 0.67712 0.7203 0.8153 0.0
H125 H 0.73613 0.71729 0.76004 0.0
H126 H 0.72425 0.84008 0.70718 0.0
H127 H 0.66642 0.84312 0.76452 0.0
H128 H 0.77512 0.80137 0.66145 0.0
H129 H 0.803 0.73798 0.7816 0.0
H130 H 0.86462 0.7082 0.74141 0.0
H131 H 0.92675 0.71922 0.69974 0.0
C132 C 0.56021 0.41752 0.18674 0.0
C133 C 0.57216 0.39195 0.13442 0.0
C134 C 0.57015 0.45704 0.18816 0.0
C135 C 0.59131 0.47198 0.13547 0.0
C136 C 0.60688 0.44556 0.08904 0.0
C137 C 0.59731 0.40575 0.08841 0.0
C138 C 0.59315 0.51469 0.12059 0.0
C139 C 0.56376 0.53895 0.12874 0.0
C140 C 0.55762 0.57793 0.09222 0.0
C141 C 0.51886 0.5899 0.06342 0.0
C142 C 0.51119 0.62352 0.01924 0.0
C143 C 0.54212 0.64663 0.00491 0.0
H144 H 0.6189 0.59418 0.10447 0.0
C145 C 0.58095 0.63653 0.0386 0.0
C146 C 0.58872 0.60216 0.08146 0.0
H147 H 0.60529 0.65393 0.0281 0.0
H148 H 0.54094 0.40738 0.22312 0.0
H149 H 0.55919 0.47609 0.22743 0.0
H150 H 0.62372 0.45614 0.04863 0.0
H151 H 0.60646 0.38665 0.04692 0.0
H152 H 0.61541 0.52488 0.09068 0.0
H153 H 0.53953 0.52766 0.15195 0.0
H154 H 0.49434 0.57199 0.07143 0.0
H155 H 0.48102 0.63077 -0.00601 0.0
C156 C 0.9006 0.29243 0.22774 0.0
C157 C 0.9292 0.29982 0.29432 0.0
C158 C 0.86373 0.30982 0.21708 0.0
C159 C 0.85436 0.33488 0.27333 0.0
C160 C 0.88387 0.34418 0.33781 0.0
C161 C 0.9212 0.32712 0.34788 0.0
C162 C 0.81277 0.34535 0.27269 0.0
C163 C 0.78423 0.34468 0.20853 0.0
C164 C 0.74195 0.33778 0.20874 0.0
C165 C 0.7136 0.34386 0.14106 0.0
C166 C 0.67552 0.32854 0.13281 0.0
C167 C 0.6655 0.30633 0.19174 0.0
H168 H 0.75127 0.3123 0.3226 0.0
C169 C 0.69279 0.30277 0.2613 0.0
C170 C 0.73049 0.31842 0.26999 0.0
H171 H 0.68571 0.28575 0.30767 0.0
H172 H 0.90609 0.27156 0.1854 0.0
H173 H 0.84188 0.30103 0.16743 0.0
H174 H 0.87741 0.36307 0.38242 0.0
H175 H 0.94266 0.3331 0.39999 0.0
H176 H 0.80496 0.34942 0.32801 0.0
H177 H 0.79238 0.34462 0.15299 0.0
H178 H 0.72163 0.35836 0.09271 0.0
H179 H 0.65513 0.33128 0.07831 0.0
C180 C 0.3856 0.24265 0.12865 0.0
C181 C 0.41758 0.26546 0.16531 0.0
C182 C 0.35135 0.24084 0.1577 0.0
C183 C 0.34839 0.26234 0.22378 0.0
C184 C 0.38119 0.28393 0.26174 0.0
C185 C 0.41527 0.28583 0.23231 0.0
C186 C 0.31127 0.26592 0.25216 0.0
C187 C 0.27623 0.25079 0.21735 0.0
C188 C 0.23985 0.25998 0.24465 0.0
C189 C 0.21048 0.23147 0.24104 0.0
C190 C 0.17724 0.23914 0.27129 0.0
C191 C 0.17251 0.27578 0.30383 0.0
H192 H 0.25545 0.32029 0.27484 0.0
C193 C 0.20094 0.30487 0.30359 0.0
C194 C 0.23415 0.29714 0.27406 0.0
H195 H 0.19789 0.33349 0.3277 0.0
H196 H 0.38667 0.2272 0.07597 0.0
H197 H 0.32722 0.22357 0.12648 0.0
H198 H 0.37981 0.30105 0.31234 0.0
H199 H 0.43866 0.30531 0.25901 0.0
H200 H 0.31264 0.28356 0.30347 0.0
H201 H 0.27361 0.23112 0.16884 0.0
H202 H 0.21399 0.20279 0.21762 0.0
H203 H 0.15612 0.21597 0.27193 0.0
C204 C 0.39946 0.79813 0.72173 0.0
C205 C 0.42726 0.80292 0.7905 0.0
C206 C 0.36166 0.81323 0.71374 0.0
C207 C 0.35056 0.83329 0.77486 0.0
C208 C 0.37933 0.84056 0.84166 0.0
C209 C 0.41752 0.82582 0.8492 0.0
C210 C 0.30834 0.84009 0.77576 0.0
C211 C 0.27958 0.84068 0.7119 0.0
C212 C 0.23763 0.8316 0.71181 0.0
C213 C 0.20832 0.84115 0.64749 0.0
C214 C 0.17031 0.8254 0.63804 0.0
C215 C 0.16134 0.79915 0.69209 0.0
H216 H 0.24902 0.79882 0.81818 0.0
C217 C 0.18982 0.79162 0.75856 0.0
C218 C 0.2274 0.80772 0.76858 0.0
H219 H 0.18364 0.7715 0.80124 0.0
H220 H 0.40625 0.78059 0.6755 0.0
H221 H 0.34055 0.80621 0.66183 0.0
H222 H 0.37162 0.85567 0.88989 0.0
H223 H 0.43829 0.82965 0.90307 0.0
H224 H 0.30045 0.8406 0.83152 0.0
H225 H 0.28731 0.84411 0.6564 0.0
H226 H 0.21539 0.85918 0.6025 0.0
H227 H 0.149 0.83144 0.58596 0.0
C228 C 0.51194 0.90975 0.8302 0.0
C229 C 0.51005 0.88679 0.89418 0.0
C230 C 0.50207 0.94933 0.82929 0.0
C231 C 0.49025 0.96646 0.89267 0.0
C232 C 0.48422 0.94232 0.95261 0.0
C233 C 0.4946 0.90289 0.95391 0.0
C234 C 0.48881 1.00954 0.90287 0.0
C235 C 0.51502 0.0336 0.88049 0.0
C236 C 0.52298 0.07402 0.9108 0.0
C237 C 0.56167 0.08828 0.92295 0.0
C238 C 0.57186 0.12361 0.96155 0.0
C239 C 0.54329 0.14599 0.98656 0.0
H240 H 0.46368 0.08771 0.92264 0.0
C241 C 0.50407 0.13312 0.97025 0.0
C242 C 0.49394 0.09739 0.93266 0.0
H243 H 0.48163 0.14979 0.98985 0.0
H244 H 0.52438 0.89798 0.78405 0.0
H245 H 0.50596 0.9669 0.78116 0.0
H246 H 0.47482 0.95468 0.00182 0.0
H247 H 0.49359 0.88582 0.0044 0.0
H248 H 0.47072 0.02056 0.94101 0.0
H249 H 0.53573 0.02152 0.8488 0.0
H250 H 0.58459 0.071 0.90642 0.0
H251 H 0.60234 0.13279 0.9743 0.0
C252 C 0.07986 0.90271 0.67867 0.0
C253 C 0.08005 0.8867 0.60625 0.0
C254 C 0.08646 0.94271 0.69203 0.0
C255 C 0.09431 0.96702 0.63383 0.0
C256 C 0.09912 0.9499 0.56447 0.0
C257 C 0.09158 0.91013 0.55058 0.0
C258 C 0.08846 1.00981 0.63953 0.0
C259 C 0.10519 0.0361 0.60049 0.0
C260 C 0.0884 0.07551 0.58165 0.0
C261 C 0.11313 0.1065 0.5711 0.0
C262 C 0.09739 0.14111 0.53635 0.0
C263 C 0.05667 0.1447 0.50921 0.0
H264 H 0.02755 0.05705 0.56665 0.0
C265 C 0.03181 0.11472 0.52407 0.0
C266 C 0.04747 0.08062 0.56073 0.0
H267 H 1.00035 0.1167 0.50327 0.0
H268 H 0.07017 0.88533 0.72184 0.0
H269 H 0.08232 0.95516 0.7457 0.0
H270 H 0.10444 0.96771 0.51772 0.0
H271 H 0.09105 0.89851 0.49378 0.0
H272 H 0.06628 0.01949 0.67023 0.0
H273 H 0.12963 0.02741 0.57502 0.0
H274 H 0.14473 0.10316 0.58607 0.0
H275 H 0.11726 0.16361 0.52484 0.0
C276 C 0.07674 0.18487 0.10577 0.0
C277 C 0.08232 0.21781 0.15416 0.0
C278 C 0.08797 0.18551 0.035 0.0
C279 C 0.10464 0.21939 0.01069 0.0
C280 C 0.11216 0.25152 0.06098 0.0
C281 C 0.10083 0.25089 0.13168 0.0
C282 C 0.11318 0.22308 0.93265 0.0
C283 C 0.09438 0.20228 0.87127 0.0
C284 C 0.09804 0.21105 0.79137 0.0
C285 C 0.06659 0.20182 0.7305 0.0
C286 C 0.06678 0.21416 0.6559 0.0
C287 C 0.09865 0.23567 0.64076 0.0
H288 H 0.15671 0.23623 0.81938 0.0
C289 C 0.13126 0.24249 0.70058 0.0
C290 C 0.13113 0.23008 0.77493 0.0
H291 H 0.15654 0.25848 0.69034 0.0
H292 H 0.06282 0.1588 0.12187 0.0
H293 H 0.083 0.15961 -0.00064 0.0
H294 H 0.1253 0.27789 0.04416 0.0
H295 H 0.10502 0.27693 0.16711 0.0
H296 H 0.13261 0.24676 0.9244 0.0
H297 H 0.07227 0.18099 0.87821 0.0
H298 H 0.0409 0.18674 0.74126 0.0
H299 H 0.04108 0.20877 0.6112 0.0
C300 C 0.00942 0.68566 0.87389 0.0
C301 C 1.0037 0.7185 0.82596 0.0
C302 C 0.9984 0.68627 0.94485 0.0
C303 C 0.98176 0.72 0.9699 0.0
C304 C 0.97377 0.75188 0.91982 0.0
C305 C 0.98484 0.75127 0.8488 0.0
C306 C 0.97385 0.72381 0.04853 0.0
C307 C 0.99304 0.70324 0.10934 0.0
C308 C 0.98994 0.71194 0.18981 0.0
C309 C 0.02146 0.70239 0.24998 0.0
C310 C 0.02181 0.71457 0.32519 0.0
C311 C 0.99044 0.73631 0.3416 0.0
H312 H 0.93162 0.73751 0.16375 0.0
C313 C 0.95772 0.74341 0.28245 0.0
C314 C 0.95728 0.73113 0.20756 0.0
H315 H 0.9328 0.75957 0.29367 0.0
H316 H 0.02352 0.65977 0.85748 0.0
H317 H 1.00364 0.66049 0.98016 0.0
H318 H 0.96057 0.77811 0.93714 0.0
H319 H 0.98047 0.77721 0.81376 0.0
H320 H 0.95452 0.74734 0.05762 0.0
H321 H 0.015 0.68209 0.10144 0.0
H322 H 0.0468 0.68716 0.23825 0.0
H323 H 0.04757 0.70894 0.36937 0.0
C324 C 0.63094 0.74039 0.19682 0.0
C325 C 0.59776 0.73433 0.13778 0.0
C326 C 0.63087 0.72884 0.27177 0.0
C327 C 0.59735 0.71131 0.28962 0.0
C328 C 0.5652 0.70286 0.22962 0.0
C329 C 0.56526 0.71449 0.15451 0.0
C330 C 0.59414 0.70311 0.37005 0.0
C331 C 0.61388 0.72364 0.43103 0.0
C332 C 0.60592 0.72013 0.50962 0.0
C333 C 0.58989 0.6861 0.53472 0.0
C334 C 0.57868 0.68555 0.60551 0.0
C335 C 0.58351 0.7188 0.65316 0.0
H336 H 0.62575 0.77898 0.54202 0.0
C337 C 0.60172 0.75196 0.63023 0.0
C338 C 0.61311 0.75247 0.55947 0.0
H339 H 0.60501 0.77832 0.66461 0.0
H340 H 0.65664 0.75523 0.18551 0.0
H341 H 0.65686 0.73444 0.3156 0.0
H342 H 0.53913 0.68898 0.24147 0.0
H343 H 0.53902 0.70997 0.11067 0.0
H344 H 0.57169 0.6824 0.3779 0.0
H345 H 0.63363 0.7469 0.42206 0.0
H346 H 0.58525 0.66005 0.49944 0.0
H347 H 0.56502 0.6594 0.6219 0.0
C348 C 0.51073 0.19184 0.37821 0.0
C349 C 0.51079 0.22526 0.33309 0.0
C350 C 0.49916 0.19428 0.44851 0.0
C351 C 0.48782 0.23036 0.47484 0.0
C352 C 0.48579 0.26315 0.42747 0.0
C353 C 0.49777 0.26075 0.35781 0.0
C354 C 0.48137 0.23615 0.55351 0.0
C355 C 0.50029 0.21549 0.61394 0.0
C356 C 0.50202 0.22854 0.6938 0.0
C357 C 0.50574 0.20099 0.75269 0.0
C358 C 0.50892 0.21315 0.8287 0.0
C359 C 0.50923 0.25297 0.84733 0.0
H360 H 0.50179 0.29061 0.66918 0.0
C361 C 0.50628 0.28047 0.78827 0.0
C362 C 0.50285 0.26845 0.71256 0.0
H363 H 0.50688 0.31149 0.80046 0.0
H364 H 0.5208 0.16413 0.36021 0.0
H365 H 0.50006 0.16817 0.48265 0.0
H366 H 0.47734 0.29131 0.44655 0.0
H367 H 0.49931 0.2872 0.32572 0.0
H368 H 0.46427 0.26144 0.5633 0.0
H369 H 0.51712 0.18982 0.60559 0.0
H370 H 0.50571 0.17006 0.73979 0.0
H371 H 0.51038 0.19148 0.87234 0.0
loop_
_geom_bond_atom_site_label_1
_geom_bond_atom_site_label_2
_geom_bond_distance
_geom_bond_site_symmetry_2
_ccdc_geom_bond_type
Zn0 O6 1.920 1_655 S
Zn0 O12 1.898 . S
Zn0 O15 1.905 1_655 S
Zn1 O9 1.905 . S
Zn1 O10 1.898 . S
Zn1 O18 1.920 . S
Zn2 O5 2.080 . S
Zn2 O8 2.114 . S
Zn2 O11 2.120 . S
Zn2 O13 2.120 1_455 S
Zn2 O14 2.114 . S
Zn2 O17 2.080 . S
C3 O8 1.166 . S
C3 O9 1.182 . S
C4 O10 1.167 . S
C4 O11 1.299 . S
O5 Zn2 2.080 . S
O5 C19 1.305 . S
O6 Zn0 1.920 1_455 S
O6 C19 1.234 . S
C7 O12 1.167 . S
C7 O13 1.299 . S
O8 Zn2 2.114 . S
O8 C3 1.166 . S
O9 Zn1 1.905 . S
O9 C3 1.182 . S
O10 Zn1 1.898 . S
O10 C4 1.167 . S
O11 Zn2 2.120 . S
O11 C4 1.299 . S
O12 Zn0 1.898 . S
O12 C7 1.167 . S
O13 Zn2 2.120 1_655 S
O13 C7 1.299 . S
O14 Zn2 2.114 . S
O14 C16 1.166 . S
O15 Zn0 1.905 1_455 S
O15 C16 1.182 . S
C16 O14 1.166 . S
C16 O15 1.182 . S
O17 Zn2 2.080 . S
O17 C20 1.305 . S
O18 Zn1 1.920 . S
O18 C20 1.234 . S
C19 O5 1.305 . S
C19 O6 1.234 . S
C20 O17 1.305 . S
C20 O18 1.234 . S
Zn21 O27 1.920 . S
Zn21 O33 1.898 1_655 S
Zn21 O36 1.905 . S
Zn22 O30 1.905 . S
Zn22 O31 1.898 . S
Zn22 O39 1.920 . S
Zn23 O26 2.080 1_455 S
Zn23 O29 2.114 . S
Zn23 O32 2.120 . S
Zn23 O34 2.120 . S
Zn23 O35 2.114 . S
Zn23 O38 2.080 . S
C24 O29 1.166 . S
C24 O30 1.182 . S
C25 O31 1.167 . S
C25 O32 1.299 . S
O26 Zn23 2.080 1_655 S
O26 C40 1.305 . S
O27 Zn21 1.920 . S
O27 C40 1.234 . S
C28 O33 1.167 . S
C28 O34 1.299 . S
O29 Zn23 2.114 . S
O29 C24 1.166 . S
O30 Zn22 1.905 . S
O30 C24 1.182 . S
O31 Zn22 1.898 . S
O31 C25 1.167 . S
O32 Zn23 2.120 . S
O32 C25 1.299 . S
O33 Zn21 1.898 1_455 S
O33 C28 1.167 . S
O34 Zn23 2.120 . S
O34 C28 1.299 . S
O35 Zn23 2.114 . S
O35 C37 1.166 . S
O36 Zn21 1.905 . S
O36 C37 1.182 1_655 S
C37 O35 1.166 . S
C37 O36 1.182 1_455 S
O38 Zn23 2.080 . S
O38 C41 1.305 . S
O39 Zn22 1.920 . S
O39 C41 1.234 . S
C40 O26 1.305 . S
C40 O27 1.234 . S
C41 O38 1.305 . S
C41 O39 1.234 . S
Zn42 O48 1.920 . S
Zn42 O54 1.898 . S
Zn42 O57 1.905 . S
Zn43 O51 1.905 1_556 S
Zn43 O52 1.898 . S
Zn43 O60 1.920 . S
Zn44 O47 2.080 . S
Zn44 O50 2.114 . S
Zn44 O53 2.120 . S
Zn44 O55 2.120 . S
Zn44 O56 2.114 . S
Zn44 O59 2.080 . S
C45 O50 1.166 1_554 S
C45 O51 1.182 . S
C46 O52 1.167 . S
C46 O53 1.299 . S
O47 Zn44 2.080 . S
O47 C61 1.305 . S
O48 Zn42 1.920 . S
O48 C61 1.234 . S
C49 O54 1.167 . S
C49 O55 1.299 . S
O50 Zn44 2.114 . S
O50 C45 1.166 1_556 S
O51 Zn43 1.905 1_554 S
O51 C45 1.182 . S
O52 Zn43 1.898 . S
O52 C46 1.167 . S
O53 Zn44 2.120 . S
O53 C46 1.299 . S
O54 Zn42 1.898 . S
O54 C49 1.167 . S
O55 Zn44 2.120 . S
O55 C49 1.299 . S
O56 Zn44 2.114 . S
O56 C58 1.166 . S
O57 Zn42 1.905 . S
O57 C58 1.182 . S
C58 O56 1.166 . S
C58 O57 1.182 . S
O59 Zn44 2.080 . S
O59 C62 1.305 . S
O60 Zn43 1.920 . S
O60 C62 1.234 . S
C61 O47 1.305 . S
C61 O48 1.234 . S
C62 O59 1.305 . S
C62 O60 1.234 . S
Zn63 O69 1.920 . S
Zn63 O75 1.898 . S
Zn63 O78 1.905 . S
Zn64 O72 1.905 1_554 S
Zn64 O73 1.898 . S
Zn64 O81 1.920 . S
Zn65 O68 2.080 . S
Zn65 O71 2.129 . S
Zn65 O74 2.120 . S
Zn65 O76 2.120 . S
Zn65 O77 2.114 . S
Zn65 O80 2.080 . S
C66 O71 1.155 1_556 S
C66 O72 1.182 . S
C67 O73 1.167 . S
C67 O74 1.299 . S
O68 Zn65 2.080 . S
O68 C82 1.305 . S
O69 Zn63 1.920 . S
O69 C82 1.234 . S
C70 O75 1.167 . S
C70 O76 1.299 . S
O71 Zn65 2.129 . S
O71 C66 1.155 1_554 S
O72 Zn64 1.905 1_556 S
O72 C66 1.182 . S
O73 Zn64 1.898 . S
O73 C67 1.167 . S
O74 Zn65 2.120 . S
O74 C67 1.299 . S
O75 Zn63 1.898 . S
O75 C70 1.167 . S
O76 Zn65 2.120 . S
O76 C70 1.299 . S
O77 Zn65 2.114 . S
O77 C79 1.166 . S
O78 Zn63 1.905 . S
O78 C79 1.182 . S
C79 O77 1.166 . S
C79 O78 1.182 . S
O80 Zn65 2.080 . S
O80 C83 1.305 . S
O81 Zn64 1.920 . S
O81 C83 1.234 . S
C82 O68 1.305 . S
C82 O69 1.234 . S
C83 O80 1.305 . S
C83 O81 1.234 . S
C84 C85 1.386 . S
C84 C86 1.383 . S
C84 H100 0.951 1_455 S
C85 C84 1.386 . S
C85 C89 1.383 . S
C86 C84 1.383 . S
C86 C87 1.402 . S
C86 H101 0.951 1_455 S
C87 C86 1.402 . S
C87 C88 1.375 . S
C87 C90 1.481 . S
C88 C87 1.375 . S
C88 C89 1.367 . S
C88 H102 0.951 . S
C89 C85 1.383 . S
C89 C88 1.367 . S
C89 H103 0.950 . S
C90 C87 1.481 . S
C90 C91 1.297 . S
C90 H104 0.950 . S
C91 C90 1.297 . S
C91 C92 1.479 . S
C91 H105 0.950 . S
C92 C91 1.479 . S
C92 C93 1.375 . S
C92 C98 1.404 . S
C93 C92 1.375 . S
C93 C94 1.369 . S
C93 H106 0.950 1_455 S
C94 C93 1.369 . S
C94 C95 1.392 . S
C94 H107 0.951 1_455 S
C95 C94 1.392 . S
C95 C97 1.384 . S
H96 C98 0.949 . S
C97 C95 1.384 . S
C97 C98 1.385 . S
C97 H99 0.950 . S
C98 C92 1.404 . S
C98 H96 0.949 . S
C98 C97 1.385 . S
H99 C97 0.950 . S
H100 C84 0.951 1_655 S
H101 C86 0.951 1_655 S
H102 C88 0.951 . S
H103 C89 0.950 . S
H104 C90 0.950 . S
H105 C91 0.950 . S
H106 C93 0.950 1_655 S
H107 C94 0.951 1_655 S
C108 C109 1.386 . S
C108 C110 1.383 . S
C108 H124 0.951 . S
C109 C108 1.386 . S
C109 C113 1.383 . S
C110 C108 1.383 . S
C110 C111 1.402 . S
C110 H125 0.951 . S
C111 C110 1.402 . S
C111 C112 1.375 . S
C111 C114 1.481 . S
C112 C111 1.375 . S
C112 C113 1.367 . S
C112 H126 0.951 . S
C113 C109 1.383 . S
C113 C112 1.367 . S
C113 H127 0.950 . S
C114 C111 1.481 . S
C114 C115 1.297 . S
C114 H128 0.950 . S
C115 C114 1.297 . S
C115 C116 1.479 . S
C115 H129 0.950 . S
C116 C115 1.479 . S
C116 C117 1.375 . S
C116 C122 1.404 . S
C117 C116 1.375 . S
C117 C118 1.369 . S
C117 H130 0.950 . S
C118 C117 1.369 . S
C118 C119 1.392 . S
C118 H131 0.951 . S
C119 C118 1.392 . S
C119 C121 1.384 . S
H120 C122 0.949 . S
C121 C119 1.384 . S
C121 C122 1.385 . S
C121 H123 0.950 . S
C122 C116 1.404 . S
C122 H120 0.949 . S
C122 C121 1.385 . S
H123 C121 0.950 . S
H124 C108 0.951 . S
H125 C110 0.951 . S
H126 C112 0.951 . S
H127 C113 0.950 . S
H128 C114 0.950 . S
H129 C115 0.950 . S
H130 C117 0.950 . S
H131 C118 0.951 . S
C132 C133 1.386 . S
C132 C134 1.383 . S
C132 H148 0.951 . S
C133 C132 1.386 . S
C133 C137 1.383 . S
C134 C132 1.383 . S
C134 C135 1.402 . S
C134 H149 0.951 . S
C135 C134 1.402 . S
C135 C136 1.375 . S
C135 C138 1.481 . S
C136 C135 1.375 . S
C136 C137 1.367 . S
C136 H150 0.951 . S
C137 C133 1.383 . S
C137 C136 1.367 . S
C137 H151 0.950 . S
C138 C135 1.481 . S
C138 C139 1.297 . S
C138 H152 0.950 . S
C139 C138 1.297 . S
C139 C140 1.479 . S
C139 H153 0.950 . S
C140 C139 1.479 . S
C140 C141 1.375 1_554 S
C140 C146 1.404 1_554 S
C141 C140 1.375 1_556 S
C141 C142 1.369 . S
C141 H154 0.950 1_556 S
C142 C141 1.369 . S
C142 C143 1.392 . S
C142 H155 0.951 . S
C143 C142 1.392 . S
C143 C145 1.384 . S
H144 C146 0.948 1_554 S
C145 C143 1.384 . S
C145 C146 1.385 . S
C145 H147 0.950 . S
C146 C140 1.404 1_556 S
C146 H144 0.948 1_556 S
C146 C145 1.385 . S
H147 C145 0.950 . S
H148 C132 0.951 . S
H149 C134 0.951 . S
H150 C136 0.951 . S
H151 C137 0.950 . S
H152 C138 0.950 . S
H153 C139 0.950 . S
H154 C141 0.950 1_554 S
H155 C142 0.951 . S
C156 C157 1.386 . S
C156 C158 1.383 . S
C156 H172 0.951 . S
C157 C156 1.386 . S
C157 C161 1.383 . S
C158 C156 1.383 . S
C158 C159 1.402 . S
C158 H173 0.951 . S
C159 C158 1.402 . S
C159 C160 1.375 . S
C159 C162 1.481 . S
C160 C159 1.375 . S
C160 C161 1.367 . S
C160 H174 0.951 . S
C161 C157 1.383 . S
C161 C160 1.367 . S
C161 H175 0.950 . S
C162 C159 1.481 . S
C162 C163 1.297 . S
C162 H176 0.950 . S
C163 C162 1.297 . S
C163 C164 1.479 . S
C163 H177 0.950 . S
C164 C163 1.479 . S
C164 C165 1.375 . S
C164 C170 1.404 . S
C165 C164 1.375 . S
C165 C166 1.369 . S
C165 H178 0.950 . S
C166 C165 1.369 . S
C166 C167 1.392 . S
C166 H179 0.951 . S
C167 C166 1.392 . S
C167 C169 1.384 . S
H168 C170 0.949 . S
C169 C167 1.384 . S
C169 C170 1.385 . S
C169 H171 0.950 . S
C170 C164 1.404 . S
C170 H168 0.949 . S
C170 C169 1.385 . S
H171 C169 0.950 . S
H172 C156 0.951 . S
H173 C158 0.951 . S
H174 C160 0.951 . S
H175 C161 0.950 . S
H176 C162 0.950 . S
H177 C163 0.950 . S
H178 C165 0.950 . S
H179 C166 0.951 . S
C180 C181 1.386 . S
C180 C182 1.383 . S
C180 H196 0.951 . S
C181 C180 1.386 . S
C181 C185 1.383 . S
C182 C180 1.383 . S
C182 C183 1.402 . S
C182 H197 0.951 . S
C183 C182 1.402 . S
C183 C184 1.375 . S
C183 C186 1.481 . S
C184 C183 1.375 . S
C184 C185 1.367 . S
C184 H198 0.951 . S
C185 C181 1.383 . S
C185 C184 1.367 . S
C185 H199 0.950 . S
C186 C183 1.481 . S
C186 C187 1.297 . S
C186 H200 0.950 . S
C187 C186 1.297 . S
C187 C188 1.479 . S
C187 H201 0.950 . S
C188 C187 1.479 . S
C188 C189 1.375 . S
C188 C194 1.404 . S
C189 C188 1.375 . S
C189 C190 1.369 . S
C189 H202 0.950 . S
C190 C189 1.369 . S
C190 C191 1.392 . S
C190 H203 0.951 . S
C191 C190 1.392 . S
C191 C193 1.384 . S
H192 C194 0.949 . S
C193 C191 1.384 . S
C193 C194 1.385 . S
C193 H195 0.950 . S
C194 C188 1.404 . S
C194 H192 0.949 . S
C194 C193 1.385 . S
H195 C193 0.950 . S
H196 C180 0.951 . S
H197 C182 0.951 . S
H198 C184 0.951 . S
H199 C185 0.950 . S
H200 C186 0.950 . S
H201 C187 0.950 . S
H202 C189 0.950 . S
H203 C190 0.951 . S
C204 C205 1.386 . S
C204 C206 1.383 . S
C204 H220 0.951 . S
C205 C204 1.386 . S
C205 C209 1.383 . S
C206 C204 1.383 . S
C206 C207 1.402 . S
C206 H221 0.951 . S
C207 C206 1.402 . S
C207 C208 1.375 . S
C207 C210 1.481 . S
C208 C207 1.375 . S
C208 C209 1.367 . S
C208 H222 0.951 . S
C209 C205 1.383 . S
C209 C208 1.367 . S
C209 H223 0.950 . S
C210 C207 1.481 . S
C210 C211 1.297 . S
C210 H224 0.950 . S
C211 C210 1.297 . S
C211 C212 1.479 . S
C211 H225 0.950 . S
C212 C211 1.479 . S
C212 C213 1.375 . S
C212 C218 1.404 . S
C213 C212 1.375 . S
C213 C214 1.369 . S
C213 H226 0.950 . S
C214 C213 1.369 . S
C214 C215 1.392 . S
C214 H227 0.951 . S
C215 C214 1.392 . S
C215 C217 1.384 . S
H216 C218 0.949 . S
C217 C215 1.384 . S
C217 C218 1.385 . S
C217 H219 0.950 . S
C218 C212 1.404 . S
C218 H216 0.949 . S
C218 C217 1.385 . S
H219 C217 0.950 . S
H220 C204 0.951 . S
H221 C206 0.951 . S
H222 C208 0.951 . S
H223 C209 0.950 . S
H224 C210 0.950 . S
H225 C211 0.950 . S
H226 C213 0.950 . S
H227 C214 0.951 . S
C228 C229 1.386 . S
C228 C230 1.383 . S
C228 H244 0.951 . S
C229 C228 1.386 . S
C229 C233 1.383 . S
C230 C228 1.383 . S
C230 C231 1.402 . S
C230 H245 0.951 . S
C231 C230 1.402 . S
C231 C232 1.375 1_556 S
C231 C234 1.481 1_556 S
C232 C231 1.375 1_554 S
C232 C233 1.367 1_554 S
C232 H246 0.951 . S
C233 C229 1.383 . S
C233 C232 1.367 1_556 S
C233 H247 0.950 1_556 S
C234 C231 1.481 1_554 S
C234 C235 1.297 1_564 S
C234 H248 0.950 . S
C235 C234 1.297 1_546 S
C235 C236 1.479 1_556 S
C235 H249 0.950 . S
C236 C235 1.479 1_554 S
C236 C237 1.375 1_554 S
C236 C242 1.404 . S
C237 C236 1.375 1_556 S
C237 C238 1.369 1_556 S
C237 H250 0.950 . S
C238 C237 1.369 1_554 S
C238 C239 1.392 . S
C238 H251 0.951 1_554 S
C239 C238 1.392 . S
C239 C241 1.384 . S
H240 C242 0.949 . S
C241 C239 1.384 . S
C241 C242 1.385 . S
C241 H243 0.950 . S
C242 C236 1.404 . S
C242 H240 0.949 . S
C242 C241 1.385 . S
H243 C241 0.950 . S
H244 C228 0.951 . S
H245 C230 0.951 . S
H246 C232 0.951 . S
H247 C233 0.950 1_554 S
H248 C234 0.950 . S
H249 C235 0.950 . S
H250 C237 0.950 . S
H251 C238 0.951 1_556 S
C252 C253 1.386 . S
C252 C254 1.383 . S
C252 H268 0.951 . S
C253 C252 1.386 . S
C253 C257 1.383 . S
C254 C252 1.383 . S
C254 C255 1.402 . S
C254 H269 0.951 . S
C255 C254 1.402 . S
C255 C256 1.375 . S
C255 C258 1.481 . S
C256 C255 1.375 . S
C256 C257 1.367 . S
C256 H270 0.951 1_455 S
C257 C253 1.383 . S
C257 C256 1.367 . S
C257 H271 0.950 1_455 S
C258 C255 1.481 . S
C258 C259 1.297 1_565 S
C258 H272 0.950 . S
C259 C258 1.297 1_545 S
C259 C260 1.479 . S
C259 H273 0.950 . S
C260 C259 1.479 . S
C260 C261 1.375 . S
C260 C266 1.404 . S
C261 C260 1.375 . S
C261 C262 1.369 . S
C261 H274 0.950 . S
C262 C261 1.369 . S
C262 C263 1.392 . S
C262 H275 0.951 . S
C263 C262 1.392 . S
C263 C265 1.384 . S
H264 C266 0.949 . S
C265 C263 1.384 . S
C265 C266 1.385 . S
C265 H267 0.950 . S
C266 C260 1.404 . S
C266 H264 0.949 . S
C266 C265 1.385 . S
H267 C265 0.950 . S
H268 C252 0.951 . S
H269 C254 0.951 . S
H270 C256 0.951 1_655 S
H271 C257 0.950 1_655 S
H272 C258 0.950 . S
H273 C259 0.950 . S
H274 C261 0.950 . S
H275 C262 0.951 . S
C276 C277 1.386 . S
C276 C278 1.383 . S
C276 H292 0.951 . S
C277 C276 1.386 . S
C277 C281 1.383 . S
C278 C276 1.383 . S
C278 C279 1.402 1_554 S
C278 H293 0.951 1_554 S
C279 C278 1.402 1_556 S
C279 C280 1.375 1_556 S
C279 C282 1.481 . S
C280 C279 1.375 1_554 S
C280 C281 1.367 . S
C280 H294 0.951 . S
C281 C277 1.383 . S
C281 C280 1.367 . S
C281 H295 0.950 . S
C282 C279 1.481 . S
C282 C283 1.297 . S
C282 H296 0.950 . S
C283 C282 1.297 . S
C283 C284 1.479 . S
C283 H297 0.950 . S
C284 C283 1.479 . S
C284 C285 1.375 . S
C284 C290 1.404 . S
C285 C284 1.375 . S
C285 C286 1.369 . S
C285 H298 0.950 . S
C286 C285 1.369 . S
C286 C287 1.392 . S
C286 H299 0.951 . S
C287 C286 1.392 . S
C287 C289 1.384 . S
H288 C290 0.949 . S
C289 C287 1.384 . S
C289 C290 1.385 . S
C289 H291 0.950 . S
C290 C284 1.404 . S
C290 H288 0.949 . S
C290 C289 1.385 . S
H291 C289 0.950 . S
H292 C276 0.951 . S
H293 C278 0.951 1_556 S
H294 C280 0.951 . S
H295 C281 0.950 . S
H296 C282 0.950 . S
H297 C283 0.950 . S
H298 C285 0.950 . S
H299 C286 0.951 . S
C300 C301 1.386 . S
C300 C302 1.383 . S
C300 H316 0.951 . S
C301 C300 1.386 . S
C301 C305 1.383 1_455 S
C302 C300 1.383 . S
C302 C303 1.402 1_556 S
C302 H317 0.951 1_556 S
C303 C302 1.402 1_554 S
C303 C304 1.375 1_454 S
C303 C306 1.481 . S
C304 C303 1.375 1_656 S
C304 C305 1.367 . S
C304 H318 0.951 . S
C305 C301 1.383 1_655 S
C305 C304 1.367 . S
C305 H319 0.950 . S
C306 C303 1.481 . S
C306 C307 1.297 . S
C306 H320 0.950 1_455 S
C307 C306 1.297 . S
C307 C308 1.479 . S
C307 H321 0.950 . S
C308 C307 1.479 . S
C308 C309 1.375 . S
C308 C314 1.404 1_455 S
C309 C308 1.375 . S
C309 C310 1.369 . S
C309 H322 0.950 . S
C310 C309 1.369 . S
C310 C311 1.392 . S
C310 H323 0.951 . S
C311 C310 1.392 . S
C311 C313 1.384 1_455 S
H312 C314 0.949 . S
C313 C311 1.384 1_655 S
C313 C314 1.385 . S
C313 H315 0.950 . S
C314 C308 1.404 1_655 S
C314 H312 0.949 . S
C314 C313 1.385 . S
H315 C313 0.950 . S
H316 C300 0.951 . S
H317 C302 0.951 1_554 S
H318 C304 0.951 . S
H319 C305 0.950 . S
H320 C306 0.950 1_655 S
H321 C307 0.950 . S
H322 C309 0.950 . S
H323 C310 0.951 . S
C324 C325 1.386 . S
C324 C326 1.383 . S
C324 H340 0.951 . S
C325 C324 1.386 . S
C325 C329 1.383 . S
C326 C324 1.383 . S
C326 C327 1.402 . S
C326 H341 0.951 . S
C327 C326 1.402 . S
C327 C328 1.375 . S
C327 C330 1.481 . S
C328 C327 1.375 . S
C328 C329 1.367 . S
C328 H342 0.951 . S
C329 C325 1.383 . S
C329 C328 1.367 . S
C329 H343 0.950 . S
C330 C327 1.481 . S
C330 C331 1.297 . S
C330 H344 0.950 . S
C331 C330 1.297 . S
C331 C332 1.479 . S
C331 H345 0.950 . S
C332 C331 1.479 . S
C332 C333 1.375 . S
C332 C338 1.404 . S
C333 C332 1.375 . S
C333 C334 1.369 . S
C333 H346 0.950 . S
C334 C333 1.369 . S
C334 C335 1.392 . S
C334 H347 0.951 . S
C335 C334 1.392 . S
C335 C337 1.384 . S
H336 C338 0.949 . S
C337 C335 1.384 . S
C337 C338 1.385 . S
C337 H339 0.950 . S
C338 C332 1.404 . S
C338 H336 0.949 . S
C338 C337 1.385 . S
H339 C337 0.950 . S
H340 C324 0.951 . S
H341 C326 0.951 . S
H342 C328 0.951 . S
H343 C329 0.950 . S
H344 C330 0.950 . S
H345 C331 0.950 . S
H346 C333 0.950 . S
H347 C334 0.951 . S
C348 C349 1.386 . S
C348 C350 1.383 . S
C348 H364 0.951 . S
C349 C348 1.386 . S
C349 C353 1.383 . S
C350 C348 1.383 . S
C350 C351 1.402 . S
C350 H365 0.951 . S
C351 C350 1.402 . S
C351 C352 1.375 . S
C351 C354 1.481 . S
C352 C351 1.375 . S
C352 C353 1.367 . S
C352 H366 0.951 . S
C353 C349 1.383 . S
C353 C352 1.367 . S
C353 H367 0.950 . S
C354 C351 1.481 . S
C354 C355 1.297 . S
C354 H368 0.950 . S
C355 C354 1.297 . S
C355 C356 1.479 . S
C355 H369 0.950 . S
C356 C355 1.479 . S
C356 C357 1.375 . S
C356 C362 1.404 . S
C357 C356 1.375 . S
C357 C358 1.369 . S
C357 H370 0.950 . S
C358 C357 1.369 . S
C358 C359 1.392 . S
C358 H371 0.951 . S
C359 C358 1.392 . S
C359 C361 1.384 . S
H360 C362 0.949 . S
C361 C359 1.384 . S
C361 C362 1.385 . S
C361 H363 0.950 . S
C362 C356 1.404 . S
C362 H360 0.949 . S
C362 C361 1.385 . S
H363 C361 0.950 . S
H364 C348 0.951 . S
H365 C350 0.951 . S
H366 C352 0.951 . S
H367 C353 0.950 . S
H368 C354 0.950 . S
H369 C355 0.950 . S
H370 C357 0.950 . S
H371 C358 0.951 . S
C85 C3 1.347 . S
C95 C25 1.471 . S
C109 C62 1.214 . S
C119 C40 1.156 . S
C133 C67 1.416 . S
C143 C49 1.539 . S
C157 C7 1.727 . S
C167 C79 1.638 . S
C181 C83 1.246 . S
C191 C4 1.211 . S
C205 C58 1.679 . S
C215 C24 1.731 . S
C229 C46 1.366 . S
C239 C70 1.520 . S
C253 C28 1.323 . S
C263 C19 1.478 . S
C277 C16 1.128 . S
C287 C20 1.017 . S
C301 C41 1.119 . S
C311 C37 1.028 . S
C325 C45 1.021 . S
C335 C61 1.171 . S
C349 C82 1.029 . S
C359 C66 1.168 . S
