# Generated by pormake.
# Topology vby, (6)-cn, num edge types: 1
# Building blocks:
#     Node 0, Type 0, BuildingBlock: GEDQOX_clean_sbu_0, # of connection points: 6
#     Node 1, Type 0, BuildingBlock: GEDQOX_clean_sbu_0, # of connection points: 6
#     Node 2, Type 0, BuildingBlock: GEDQOX_clean_sbu_0, # of connection points: 6
#     Node 3, Type 0, BuildingBlock: GEDQOX_clean_sbu_0, # of connection points: 6
#     Node 4, Type 0, BuildingBlock: GEDQOX_clean_sbu_0, # of connection points: 6
#     Node 5, Type 0, BuildingBlock: GEDQOX_clean_sbu_0, # of connection points: 6
#     Node 6, Type 0, BuildingBlock: GEDQOX_clean_sbu_0, # of connection points: 6
#     Node 7, Type 0, BuildingBlock: GEDQOX_clean_sbu_0, # of connection points: 6
#     Edge 8, Type (0, 0), None
#     Edge 9, Type (0, 0), None
#     Edge 10, Type (0, 0), None
#     Edge 11, Type (0, 0), None
#     Edge 12, Type (0, 0), None
#     Edge 13, Type (0, 0), None
#     Edge 14, Type (0, 0), None
#     Edge 15, Type (0, 0), None
#     Edge 16, Type (0, 0), None
#     Edge 17, Type (0, 0), None
#     Edge 18, Type (0, 0), None
#     Edge 19, Type (0, 0), None
#     Edge 20, Type (0, 0), None
#     Edge 21, Type (0, 0), None
#     Edge 22, Type (0, 0), None
#     Edge 23, Type (0, 0), None
#     Edge 24, Type (0, 0), None
#     Edge 25, Type (0, 0), None
#     Edge 26, Type (0, 0), None
#     Edge 27, Type (0, 0), None
#     Edge 28, Type (0, 0), None
#     Edge 29, Type (0, 0), None
#     Edge 30, Type (0, 0), None
#     Edge 31, Type (0, 0), None
# Relax obj value: 0.182
# Max RMSD: 0.293
# Mean RMSD: 0.290
data_MOF--net-vby--node1-GEDQOX_clean_sbu_0--edge1-none
_symmetry_space_group_name_H-M    P1
_symmetry_Int_Tables_number       1
_symmetry_cell_setting            triclinic
loop_
_symmetry_equiv_pos_as_xyz
'x, y, z'
_cell_length_a     15.612212
_cell_length_b     23.401531
_cell_length_c     12.069008
_cell_angle_alpha  92.309789
_cell_angle_beta   92.318057
_cell_angle_gamma 90.500725
loop_
_atom_site_label
_atom_site_type_symbol
_atom_site_fract_x
_atom_site_fract_y
_atom_site_fract_z
_atom_type_partial_charge
Nd0 Nd 0.23411 0.33645 1.00266 0.0
Nd1 Nd 0.09356 0.26036 0.99067 0.0
C2 C 0.38218 0.38947 0.98118 0.0
C3 C 0.46864 0.36805 0.96047 0.0
C4 C 0.48001 0.3167 0.89841 0.0
C5 C 0.56101 0.29189 0.89414 0.0
C6 C 0.63184 0.31804 0.95183 0.0
C7 C 0.62114 0.37168 1.00644 0.0
C8 C 0.54004 0.396 1.0119 0.0
C9 C 0.13922 0.33269 0.19938 0.0
C10 C 0.29479 0.20675 1.00438 0.0
C11 C 0.95459 0.20172 1.01681 0.0
C12 C 0.86833 0.22666 0.99983 0.0
C13 C 0.83278 0.25893 0.08706 0.0
C14 C 0.75669 0.28833 0.07035 0.0
C15 C 0.71398 0.28707 0.96571 0.0
C16 C 0.74844 0.25429 0.87814 0.0
C17 C 0.8251 0.22441 0.89499 0.0
C18 C 0.09009 0.30877 0.79259 0.0
C19 C 1.07592 0.40403 0.98107 0.0
O20 O 0.32497 0.38179 0.89971 0.0
O21 O 0.35243 0.37784 0.07755 0.0
O22 O 0.17263 0.37875 0.1617 0.0
O23 O 0.16466 0.29119 0.14005 0.0
O24 O 0.31925 0.25973 1.01769 0.0
O25 O 0.21112 0.19432 0.98676 0.0
O26 O 1.00011 0.22414 0.10136 0.0
O27 O 0.99959 0.19327 0.92833 0.0
O28 O 1.0235 0.30202 0.84995 0.0
O29 O 0.16047 0.29332 0.84429 0.0
O30 O 1.04191 0.35556 1.01643 0.0
O31 O 0.15148 0.40456 0.94173 0.0
H32 H 0.42576 0.29438 0.85732 0.0
H33 H 0.56714 0.25085 0.85073 0.0
H34 H 0.67503 0.39382 0.04871 0.0
H35 H 0.53252 0.43541 0.06007 0.0
H36 H 0.86381 0.26152 0.16898 0.0
H37 H 0.73058 0.31143 0.1404 0.0
H38 H 0.71685 0.25234 0.79647 0.0
H39 H 0.85108 0.20038 0.82571 0.0
Nd40 Nd 0.94421 0.54988 0.09656 0.0
Nd41 Nd 1.05577 0.60931 0.04615 0.0
C42 C 0.80683 0.51892 0.20151 0.0
C43 C 0.71407 0.52186 0.18307 0.0
C44 C 0.67969 0.54119 0.08268 0.0
C45 C 0.59308 0.55394 0.07194 0.0
C46 C 0.53928 0.54591 0.16042 0.0
C47 C 0.57272 0.52376 0.25899 0.0
C48 C 0.66008 0.51209 0.27037 0.0
C49 C 1.0758 0.56856 0.26631 0.0
C50 C 0.86529 0.66307 1.01671 0.0
C51 C 0.21489 0.64712 0.07118 0.0
C52 C 0.29257 0.61574 0.10227 0.0
C53 C 0.33937 0.63083 0.20108 0.0
C54 C 0.41787 0.60501 0.22472 0.0
C55 C 0.44967 0.56379 0.14984 0.0
C56 C 0.39946 0.54545 0.05624 0.0
C57 C 0.32155 0.5712 0.03235 0.0
C58 C 1.0287 0.58712 0.84272 0.0
C59 C 1.04157 0.45951 1.01163 0.0
O60 O 0.84768 0.48411 0.13504 0.0
O61 O 0.84508 0.56867 0.21758 0.0
O62 O 1.05595 0.51888 0.22214 0.0
O63 O 1.02846 0.6044 0.21991 0.0
O64 O 0.85023 0.60861 1.00448 0.0
O65 O 0.94517 0.67782 0.04792 0.0
O66 O 0.15971 0.65482 0.14736 0.0
O67 O 0.17869 0.63393 0.97502 0.0
O68 O 1.02612 0.64059 0.87806 0.0
O69 O 1.00524 0.55072 0.91426 0.0
O70 O 0.09052 0.50769 1.02004 0.0
O71 O 0.96162 0.46299 0.0308 0.0
H72 H 0.72017 0.54839 1.01408 0.0
H73 H 0.56864 0.57203 0.99593 0.0
H74 H 0.53156 0.51645 0.3272 0.0
H75 H 0.68567 0.49654 0.34775 0.0
H76 H 0.31718 0.66436 0.2571 0.0
H77 H 0.45593 0.61964 0.29759 0.0
H78 H 0.42196 0.51261 0.99948 0.0
H79 H 0.28557 0.55731 0.95731 0.0
Nd80 Nd 0.11565 0.6127 0.54775 0.0
Nd81 Nd 0.23364 0.55267 0.61288 0.0
C82 C 0.95743 0.65053 0.5539 0.0
C83 C 0.87952 0.6211 0.58751 0.0
C84 C 0.83358 0.64327 0.6769 0.0
C85 C 0.75743 0.61679 0.70529 0.0
C86 C 0.72704 0.5677 0.64503 0.0
C87 C 0.77568 0.54351 0.56078 0.0
C88 C 0.8512 0.57 0.53179 0.0
C89 C 0.14796 0.58425 0.34947 0.0
C90 C 0.12231 0.46372 0.53351 0.0
C91 C 0.37628 0.51984 0.71682 0.0
C92 C 0.46736 0.52081 0.69249 0.0
C93 C 0.4929 0.53685 0.58804 0.0
C94 C 0.5786 0.54984 0.57196 0.0
C95 C 0.63975 0.54634 0.65963 0.0
C96 C 0.6153 0.52653 0.76176 0.0
C97 C 0.52934 0.51337 0.77777 0.0
C98 C 0.10302 0.57288 0.76948 0.0
C99 C 0.30809 0.66659 0.525 0.0
O100 O 1.01496 0.6633 0.63197 0.0
O101 O 0.99099 0.63105 0.46348 0.0
O102 O 0.1501 0.6383 0.38051 0.0
O103 O 0.16748 0.55006 0.42805 0.0
O104 O 1.07527 0.51176 0.542 0.0
O105 O 0.20445 0.46771 0.53958 0.0
O106 O 0.32703 0.48504 0.65471 0.0
O107 O 0.34262 0.57039 0.73217 0.0
O108 O 0.12952 0.52281 0.73955 0.0
O109 O 0.14809 0.60889 0.72261 0.0
O110 O 0.32393 0.61229 0.52436 0.0
O111 O 0.22836 0.68173 0.54715 0.0
H112 H 0.85525 0.6819 0.72253 0.0
H113 H 0.72031 0.63606 0.77061 0.0
H114 H 0.75417 0.50469 0.51621 0.0
H115 H 0.88649 0.55078 0.46466 0.0
H116 H 0.44629 0.54178 0.52042 0.0
H117 H 0.59659 0.56559 0.49296 0.0
H118 H 0.66224 0.52266 0.82939 0.0
H119 H 0.51099 0.49944 0.85768 0.0
Nd120 Nd 0.94372 0.33354 0.44321 0.0
Nd121 Nd 1.07566 0.2634 0.46698 0.0
C122 C 0.79452 0.38008 0.39213 0.0
C123 C 0.70524 0.36423 0.41101 0.0
C124 C 0.68351 0.33693 0.50768 0.0
C125 C 0.60285 0.31126 0.51427 0.0
C126 C 0.54319 0.31212 0.42392 0.0
C127 C 0.56377 0.34178 0.32951 0.0
C128 C 0.64407 0.36779 0.32351 0.0
C129 C 1.05776 0.33273 0.26442 0.0
C130 C 0.87782 0.20941 0.50053 0.0
C131 C 0.21201 0.20279 0.42358 0.0
C132 C 0.3014 0.22359 0.43078 0.0
C133 C 0.3521 0.21726 0.33783 0.0
C134 C 0.43101 0.24579 0.33573 0.0
C135 C 0.46058 0.28095 0.42688 0.0
C136 C 0.41073 0.28624 0.52077 0.0
C137 C 0.33166 0.25819 0.52237 0.0
C138 C 1.07756 0.30981 0.67046 0.0
C139 C 1.08349 0.40761 0.52028 0.0
O140 O 0.84282 0.3975 0.47845 0.0
O141 O 0.83333 0.34398 0.32637 0.0
O142 O 1.02674 0.37818 0.31106 0.0
O143 O 1.02399 0.29019 0.30774 0.0
O144 O 0.85476 0.26189 0.48893 0.0
O145 O 0.96066 0.19662 0.49127 0.0
O146 O 0.16517 0.22653 0.34671 0.0
O147 O 0.17234 0.19895 0.51657 0.0
O148 O 0.14535 0.30369 0.61384 0.0
O149 O 1.00574 0.29786 0.61361 0.0
O150 O 0.125 0.36163 0.47933 0.0
O151 O 1.00309 0.40451 0.53955 0.0
H152 H 0.73004 0.33312 0.57596 0.0
H153 H 0.5886 0.28857 0.58796 0.0
H154 H 0.51838 0.34393 0.25949 0.0
H155 H 0.6599 0.38849 0.24839 0.0
H156 H 0.32933 0.19174 0.26553 0.0
H157 H 0.46882 0.24051 0.26277 0.0
H158 H 0.43193 0.31314 0.59198 0.0
H159 H 0.29404 0.26426 0.59504 0.0
Nd160 Nd 0.73414 0.83644 1.00251 0.0
Nd161 Nd 0.59358 0.76035 0.99054 0.0
C162 C 0.8822 0.88944 0.98092 0.0
C163 C 0.96866 0.86801 0.9602 0.0
C164 C 0.98002 0.81665 0.89818 0.0
C165 C 1.06102 0.79184 0.89389 0.0
C166 C 0.13186 0.818 0.95156 0.0
C167 C 0.12116 0.87164 1.00613 0.0
C168 C 1.04007 0.89597 1.01159 0.0
C169 C 0.63928 0.83267 0.19925 0.0
C170 C 0.79481 0.70675 1.00432 0.0
C171 C 0.45461 0.70169 1.01662 0.0
C172 C 0.36835 0.72663 0.99963 0.0
C173 C 0.33282 0.75893 0.08681 0.0
C174 C 0.25672 0.78833 0.07008 0.0
C175 C 0.214 0.78703 0.96546 0.0
C176 C 0.24844 0.75422 0.87792 0.0
C177 C 0.3251 0.72434 0.89479 0.0
C178 C 0.59011 0.80877 0.79246 0.0
C179 C 0.57593 0.90403 0.98101 0.0
O180 O 0.82497 0.88174 0.89946 0.0
O181 O 0.85247 0.87785 0.07731 0.0
O182 O 0.67268 0.87873 0.16158 0.0
O183 O 0.6647 0.79117 0.1399 0.0
O184 O 0.81927 0.75972 1.01763 0.0
O185 O 0.71114 0.69431 0.98667 0.0
O186 O 0.50012 0.72411 0.1012 0.0
O187 O 0.49963 0.69326 0.92815 0.0
O188 O 0.52351 0.80203 0.84984 0.0
O189 O 0.66048 0.79331 0.84416 0.0
O190 O 0.54192 0.85554 1.01635 0.0
O191 O 0.65149 0.90456 0.94166 0.0
H192 H 0.92576 0.79432 0.85711 0.0
H193 H 1.06714 0.7508 0.85051 0.0
H194 H 0.17506 0.89379 0.04837 0.0
H195 H 1.03255 0.93539 0.05974 0.0
H196 H 0.36385 0.76155 0.16873 0.0
H197 H 0.23064 0.81145 0.14011 0.0
H198 H 0.21684 0.75224 0.79626 0.0
H199 H 0.35107 0.70028 0.82553 0.0
Nd200 Nd 0.44417 0.04986 0.09651 0.0
Nd201 Nd 0.55575 0.1093 0.04612 0.0
C202 C 0.30679 0.01886 0.20141 0.0
C203 C 0.21403 0.0218 0.18296 0.0
C204 C 0.17966 0.04114 0.08258 0.0
C205 C 0.09305 0.05389 0.07182 0.0
C206 C 1.03924 0.04585 0.16029 0.0
C207 C 1.07268 0.02368 0.25885 0.0
C208 C 0.16004 0.012 0.27024 0.0
C209 C 0.57576 0.06854 0.26628 0.0
C210 C 0.36527 0.16307 1.01675 0.0
C211 C 0.71487 0.14711 0.07115 0.0
C212 C 0.79254 0.11571 0.1022 0.0
C213 C 0.83933 0.13076 0.20103 0.0
C214 C 0.91783 0.10493 0.22465 0.0
C215 C 0.94963 0.06374 0.14972 0.0
C216 C 0.89943 0.04543 0.05609 0.0
C217 C 0.82152 0.07119 0.03222 0.0
C218 C 0.52868 0.08711 0.84269 0.0
C219 C 0.54157 -0.0405 1.01158 0.0
O220 O 0.34765 -0.01593 0.13493 0.0
O221 O 0.34503 0.06861 0.21754 0.0
O222 O 0.55591 0.01887 0.22211 0.0
O223 O 0.52842 0.10438 0.21986 0.0
O224 O 0.3502 0.10861 1.00449 0.0
O225 O 0.44515 0.17781 0.04793 0.0
O226 O 0.6597 0.15478 0.14734 0.0
O227 O 0.67866 0.13394 0.97498 0.0
O228 O 0.5261 0.14057 0.87802 0.0
O229 O 0.50522 0.0507 0.91422 0.0
O230 O 0.59051 0.00768 1.02001 0.0
O231 O 0.46162 -0.03703 0.03073 0.0
H232 H 0.22015 0.04836 1.01399 0.0
H233 H 1.06861 0.07199 0.99582 0.0
H234 H 1.03151 0.01636 0.32705 0.0
H235 H 0.18562 -0.00356 0.34761 0.0
H236 H 0.81714 0.16427 0.2571 0.0
H237 H 0.95588 0.11953 0.29755 0.0
H238 H 0.92192 0.0126 0.99929 0.0
H239 H 0.78555 0.05733 0.95716 0.0
Nd240 Nd 0.61562 0.11269 0.54772 0.0
Nd241 Nd 0.73362 0.05266 0.61284 0.0
C242 C 0.4574 0.15051 0.55387 0.0
C243 C 0.37949 0.12107 0.58745 0.0
C244 C 0.33356 0.1432 0.67687 0.0
C245 C 0.25741 0.11671 0.70524 0.0
C246 C 0.22702 0.06764 0.64492 0.0
C247 C 0.27565 0.04348 0.56063 0.0
C248 C 0.35116 0.06998 0.53166 0.0
C249 C 0.64792 0.08424 0.34943 0.0
C250 C 0.62228 -0.03629 0.53345 0.0
C251 C 0.87626 0.0198 0.71674 0.0
C252 C 0.96733 0.02076 0.6924 0.0
C253 C 0.99286 0.0368 0.58794 0.0
C254 C 1.07857 0.04977 0.57185 0.0
C255 C 0.13972 0.04627 0.65951 0.0
C256 C 0.11528 0.02646 0.76164 0.0
C257 C 1.02932 0.0133 0.77766 0.0
C258 C 0.603 0.07287 0.76945 0.0
C259 C 0.80806 0.16659 0.525 0.0
O260 O 0.51492 0.16327 0.63196 0.0
O261 O 0.49097 0.13105 0.46344 0.0
O262 O 0.65005 0.13829 0.38047 0.0
O263 O 0.66745 0.05006 0.42801 0.0
O264 O 0.57524 0.01175 0.54195 0.0
O265 O 0.70443 -0.0323 0.53951 0.0
O266 O 0.82699 -0.01499 0.65465 0.0
O267 O 0.84262 0.07036 0.73211 0.0
O268 O 0.62949 0.0228 0.7395 0.0
O269 O 0.64807 0.10888 0.72258 0.0
O270 O 0.82391 0.11228 0.52435 0.0
O271 O 0.72833 0.18172 0.54713 0.0
H272 H 0.35524 0.18181 0.72255 0.0
H273 H 0.22029 0.13595 0.7706 0.0
H274 H 0.25414 0.00467 0.51602 0.0
H275 H 0.38644 0.05079 0.4645 0.0
H276 H 0.94625 0.04173 0.52033 0.0
H277 H 0.09655 0.06553 0.49285 0.0
H278 H 0.16222 0.02258 0.82927 0.0
H279 H 1.01098 -0.00063 0.85757 0.0
Nd280 Nd 0.44375 0.83351 0.44305 0.0
Nd281 Nd 0.57567 0.76339 0.46688 0.0
C282 C 0.29454 0.88002 0.39187 0.0
C283 C 0.20526 0.86418 0.41076 0.0
C284 C 0.18353 0.83692 0.50746 0.0
C285 C 0.10287 0.81125 0.51408 0.0
C286 C 1.04321 0.81209 0.42373 0.0
C287 C 1.06379 0.84172 0.32928 0.0
C288 C 0.14409 0.86772 0.32325 0.0
C289 C 0.55782 0.83271 0.2643 0.0
C290 C 0.37784 0.70941 0.5005 0.0
C291 C 0.71203 0.70278 0.42349 0.0
C292 C 0.80141 0.72358 0.43067 0.0
C293 C 0.85211 0.71721 0.33773 0.0
C294 C 0.93103 0.74574 0.3356 0.0
C295 C 0.9606 0.78093 0.42671 0.0
C296 C 0.91075 0.78624 0.5206 0.0
C297 C 0.83168 0.75819 0.52223 0.0
C298 C 0.57757 0.80981 0.67035 0.0
C299 C 0.58347 0.9076 0.52018 0.0
O300 O 0.34283 0.89749 0.47816 0.0
O301 O 0.33336 0.84389 0.32619 0.0
O302 O 0.5268 0.87815 0.31093 0.0
O303 O 0.52404 0.79017 0.3076 0.0
O304 O 0.35479 0.76188 0.48889 0.0
O305 O 0.46068 0.69661 0.49121 0.0
O306 O 0.66518 0.7265 0.34662 0.0
O307 O 0.67236 0.69895 0.5165 0.0
O308 O 0.64537 0.80369 0.61373 0.0
O309 O 0.50575 0.79786 0.61349 0.0
O310 O 0.62499 0.86162 0.47924 0.0
O311 O 0.50306 0.90449 0.53941 0.0
H312 H 0.23006 0.83312 0.57575 0.0
H313 H 0.08862 0.78859 0.58779 0.0
H314 H 1.0184 0.84386 0.25926 0.0
H315 H 0.15992 0.8884 0.2481 0.0
H316 H 0.82934 0.69168 0.26545 0.0
H317 H 0.96883 0.74044 0.26265 0.0
H318 H 0.93195 0.81316 0.59178 0.0
H319 H 0.79406 0.76429 0.59489 0.0
loop_
_geom_bond_atom_site_label_1
_geom_bond_atom_site_label_2
_geom_bond_distance
_geom_bond_site_symmetry_2
_ccdc_geom_bond_type
Nd0 C2 2.836 . S
Nd0 O20 2.500 1_554 S
Nd0 O21 2.492 . S
Nd0 O22 2.487 . S
Nd0 O23 2.682 . S
Nd0 O24 2.410 . S
Nd0 O29 2.414 1_554 S
Nd0 O31 2.424 . S
Nd1 C11 2.836 . S
Nd1 O23 2.414 1_656 S
Nd1 O25 2.424 1_655 S
Nd1 O26 2.500 1_556 S
Nd1 O27 2.492 . S
Nd1 O28 2.487 . S
Nd1 O29 2.682 1_655 S
Nd1 O30 2.410 . S
C2 Nd0 2.836 . S
C2 C3 1.498 . S
C2 O20 1.258 1_554 S
C2 O21 1.239 . S
C3 C2 1.498 . S
C3 C4 1.366 1_554 S
C3 C8 1.407 . S
C4 C3 1.366 1_556 S
C4 C5 1.392 . S
C4 H32 0.930 . S
C5 C4 1.392 . S
C5 C6 1.398 1_556 S
C5 H33 0.929 . S
C6 C5 1.398 1_554 S
C6 C7 1.352 . S
C7 C6 1.352 . S
C7 C8 1.384 . S
C7 H34 0.930 . S
C8 C3 1.407 . S
C8 C7 1.384 . S
C8 H35 0.929 . S
C9 O22 1.241 . S
C9 O23 1.273 . S
C10 O24 1.251 1_556 S
C10 O25 1.268 . S
C11 Nd1 2.836 . S
C11 C12 1.498 . S
C11 O26 1.258 1_556 S
C11 O27 1.239 . S
C12 C11 1.498 . S
C12 C13 1.366 1_556 S
C12 C17 1.407 . S
C13 C12 1.366 1_554 S
C13 C14 1.392 . S
C13 H36 0.930 . S
C14 C13 1.392 . S
C14 C15 1.392 1_554 S
C14 H37 0.929 . S
C15 C14 1.392 1_556 S
C15 C16 1.359 . S
C16 C15 1.359 . S
C16 C17 1.384 . S
C16 H38 0.930 . S
C17 C12 1.407 . S
C17 C16 1.384 . S
C17 H39 0.929 . S
C18 O28 1.241 1_455 S
C18 O29 1.273 . S
C19 O30 1.251 1_554 S
C19 O31 1.268 1_655 S
O20 Nd0 2.500 1_556 S
O20 C2 1.258 1_556 S
O21 Nd0 2.492 . S
O21 C2 1.239 . S
O22 Nd0 2.487 . S
O22 C9 1.241 . S
O23 Nd0 2.682 . S
O23 Nd1 2.414 1_454 S
O23 C9 1.273 . S
O24 Nd0 2.410 . S
O24 C10 1.251 1_554 S
O25 Nd1 2.424 1_455 S
O25 C10 1.268 . S
O26 Nd1 2.500 1_554 S
O26 C11 1.258 1_554 S
O27 Nd1 2.492 . S
O27 C11 1.239 . S
O28 Nd1 2.487 . S
O28 C18 1.241 1_655 S
O29 Nd0 2.414 1_556 S
O29 Nd1 2.682 1_455 S
O29 C18 1.273 . S
O30 Nd1 2.410 . S
O30 C19 1.251 1_556 S
O31 Nd0 2.424 . S
O31 C19 1.268 1_455 S
H32 C4 0.930 . S
H33 C5 0.929 . S
H34 C7 0.930 . S
H35 C8 0.929 . S
H36 C13 0.930 . S
H37 C14 0.929 . S
H38 C16 0.930 . S
H39 C17 0.929 . S
Nd40 C42 2.836 1_554 S
Nd40 O60 2.500 1_554 S
Nd40 O61 2.492 . S
Nd40 O62 2.487 . S
Nd40 O63 2.682 . S
Nd40 O64 2.410 . S
Nd40 O69 2.414 1_554 S
Nd40 O71 2.424 . S
Nd41 C51 2.836 1_556 S
Nd41 O63 2.407 1_456 S
Nd41 O65 2.424 1_456 S
Nd41 O66 2.495 1_556 S
Nd41 O67 2.495 . S
Nd41 O68 2.496 . S
Nd41 O69 2.686 1_455 S
Nd41 O70 2.410 . S
C42 Nd40 2.836 1_556 S
C42 C43 1.498 . S
C42 O60 1.258 . S
C42 O61 1.239 1_556 S
C43 C42 1.498 . S
C43 C44 1.366 . S
C43 C48 1.407 1_556 S
C44 C43 1.366 . S
C44 C45 1.392 . S
C44 H72 0.930 . S
C45 C44 1.392 . S
C45 C46 1.398 . S
C45 H73 0.929 . S
C46 C45 1.398 . S
C46 C47 1.352 1_556 S
C47 C46 1.352 1_554 S
C47 C48 1.384 . S
C47 H74 0.930 . S
C48 C43 1.407 1_554 S
C48 C47 1.384 . S
C48 H75 0.929 . S
C49 O62 1.241 . S
C49 O63 1.273 . S
C50 O64 1.251 . S
C50 O65 1.268 . S
C51 Nd41 2.836 1_554 S
C51 C52 1.498 . S
C51 O66 1.258 . S
C51 O67 1.239 1_554 S
C52 C51 1.498 . S
C52 C53 1.366 . S
C52 C57 1.407 1_554 S
C53 C52 1.366 . S
C53 C54 1.392 . S
C53 H76 0.930 . S
C54 C53 1.392 . S
C54 C55 1.398 . S
C54 H77 0.929 . S
C55 C54 1.398 . S
C55 C56 1.352 1_554 S
C56 C55 1.352 1_556 S
C56 C57 1.384 . S
C56 H78 0.930 . S
C57 C52 1.407 1_556 S
C57 C56 1.384 . S
C57 H79 0.929 . S
C58 O68 1.241 1_655 S
C58 O69 1.273 . S
C59 O70 1.247 1_554 S
C59 O71 1.270 1_455 S
O60 Nd40 2.500 1_556 S
O60 C42 1.258 . S
O61 Nd40 2.492 . S
O61 C42 1.239 1_554 S
O62 Nd40 2.487 . S
O62 C49 1.241 . S
O63 Nd40 2.682 . S
O63 Nd41 2.407 1_654 S
O63 C49 1.273 . S
O64 Nd40 2.410 . S
O64 C50 1.251 . S
O65 Nd41 2.424 1_654 S
O65 C50 1.268 . S
O66 Nd41 2.495 1_554 S
O66 C51 1.258 . S
O67 Nd41 2.495 . S
O67 C51 1.239 1_556 S
O68 Nd41 2.496 . S
O68 C58 1.241 1_455 S
O69 Nd40 2.414 1_556 S
O69 Nd41 2.686 1_655 S
O69 C58 1.273 . S
O70 Nd41 2.410 . S
O70 C59 1.247 1_556 S
O71 Nd40 2.424 . S
O71 C59 1.270 1_655 S
H72 C44 0.930 . S
H73 C45 0.929 . S
H74 C47 0.930 . S
H75 C48 0.929 . S
H76 C53 0.930 . S
H77 C54 0.929 . S
H78 C56 0.930 . S
H79 C57 0.929 . S
Nd80 C82 2.836 . S
Nd80 O100 2.500 . S
Nd80 O101 2.492 . S
Nd80 O102 2.487 . S
Nd80 O103 2.682 1_655 S
Nd80 O104 2.410 . S
Nd80 O109 2.414 1_655 S
Nd80 O111 2.424 1_655 S
Nd81 C91 2.836 . S
Nd81 O103 2.414 . S
Nd81 O105 2.424 . S
Nd81 O106 2.500 . S
Nd81 O107 2.492 . S
Nd81 O108 2.487 . S
Nd81 O109 2.682 . S
Nd81 O110 2.410 . S
C82 Nd80 2.836 . S
C82 C83 1.498 . S
C82 O100 1.258 . S
C82 O101 1.239 . S
C83 C82 1.498 . S
C83 C84 1.366 . S
C83 C88 1.407 . S
C84 C83 1.366 . S
C84 C85 1.392 . S
C84 H112 0.930 . S
C85 C84 1.392 . S
C85 C86 1.398 . S
C85 H113 0.929 . S
C86 C85 1.398 . S
C86 C87 1.352 . S
C87 C86 1.352 . S
C87 C88 1.384 . S
C87 H114 0.930 . S
C88 C83 1.407 . S
C88 C87 1.384 . S
C88 H115 0.929 . S
C89 O102 1.241 1_455 S
C89 O103 1.273 . S
C90 O104 1.251 . S
C90 O105 1.268 1_655 S
C91 Nd81 2.836 . S
C91 C92 1.498 . S
C91 O106 1.258 . S
C91 O107 1.239 . S
C92 C91 1.498 . S
C92 C93 1.366 . S
C92 C97 1.407 . S
C93 C92 1.366 . S
C93 C94 1.392 . S
C93 H116 0.930 . S
C94 C93 1.392 . S
C94 C95 1.398 . S
C94 H117 0.929 . S
C95 C94 1.398 . S
C95 C96 1.352 . S
C96 C95 1.352 . S
C96 C97 1.384 . S
C96 H118 0.930 . S
C97 C92 1.407 . S
C97 C96 1.384 . S
C97 H119 0.929 . S
C98 O108 1.241 . S
C98 O109 1.273 . S
C99 O110 1.251 . S
C99 O111 1.268 . S
O100 Nd80 2.500 . S
O100 C82 1.258 . S
O101 Nd80 2.492 . S
O101 C82 1.239 . S
O102 Nd80 2.487 . S
O102 C89 1.241 1_655 S
O103 Nd80 2.682 1_455 S
O103 Nd81 2.414 . S
O103 C89 1.273 . S
O104 Nd80 2.410 . S
O104 C90 1.251 . S
O105 Nd81 2.424 . S
O105 C90 1.268 1_455 S
O106 Nd81 2.500 . S
O106 C91 1.258 . S
O107 Nd81 2.492 . S
O107 C91 1.239 . S
O108 Nd81 2.487 . S
O108 C98 1.241 . S
O109 Nd80 2.414 1_455 S
O109 Nd81 2.682 . S
O109 C98 1.273 . S
O110 Nd81 2.410 . S
O110 C99 1.251 . S
O111 Nd80 2.424 1_455 S
O111 C99 1.268 . S
H112 C84 0.930 . S
H113 C85 0.929 . S
H114 C87 0.930 . S
H115 C88 0.929 . S
H116 C93 0.930 . S
H117 C94 0.929 . S
H118 C96 0.930 . S
H119 C97 0.929 . S
Nd120 C122 2.836 . S
Nd120 O140 2.500 . S
Nd120 O141 2.492 . S
Nd120 O142 2.487 . S
Nd120 O143 2.682 . S
Nd120 O144 2.410 . S
Nd120 O149 2.414 . S
Nd120 O151 2.424 . S
Nd121 C131 2.836 . S
Nd121 O143 2.414 1_455 S
Nd121 O145 2.424 1_455 S
Nd121 O146 2.500 . S
Nd121 O147 2.492 . S
Nd121 O148 2.487 . S
Nd121 O149 2.682 1_455 S
Nd121 O150 2.410 . S
C122 Nd120 2.836 . S
C122 C123 1.498 . S
C122 O140 1.258 . S
C122 O141 1.239 . S
C123 C122 1.498 . S
C123 C124 1.366 . S
C123 C128 1.407 . S
C124 C123 1.366 . S
C124 C125 1.392 . S
C124 H152 0.930 . S
C125 C124 1.392 . S
C125 C126 1.398 . S
C125 H153 0.929 . S
C126 C125 1.398 . S
C126 C127 1.352 . S
C127 C126 1.352 . S
C127 C128 1.384 . S
C127 H154 0.930 . S
C128 C123 1.407 . S
C128 C127 1.384 . S
C128 H155 0.929 . S
C129 O142 1.241 . S
C129 O143 1.273 . S
C130 O144 1.251 . S
C130 O145 1.268 . S
C131 Nd121 2.836 . S
C131 C132 1.498 . S
C131 O146 1.258 . S
C131 O147 1.239 . S
C132 C131 1.498 . S
C132 C133 1.366 . S
C132 C137 1.407 . S
C133 C132 1.366 . S
C133 C134 1.392 . S
C133 H156 0.930 . S
C134 C133 1.392 . S
C134 C135 1.398 . S
C134 H157 0.929 . S
C135 C134 1.398 . S
C135 C136 1.352 . S
C136 C135 1.352 . S
C136 C137 1.384 . S
C136 H158 0.930 . S
C137 C132 1.407 . S
C137 C136 1.384 . S
C137 H159 0.929 . S
C138 O148 1.241 1_655 S
C138 O149 1.273 . S
C139 O150 1.251 . S
C139 O151 1.268 1_455 S
O140 Nd120 2.500 . S
O140 C122 1.258 . S
O141 Nd120 2.492 . S
O141 C122 1.239 . S
O142 Nd120 2.487 . S
O142 C129 1.241 . S
O143 Nd120 2.682 . S
O143 Nd121 2.414 1_655 S
O143 C129 1.273 . S
O144 Nd120 2.410 . S
O144 C130 1.251 . S
O145 Nd121 2.424 1_655 S
O145 C130 1.268 . S
O146 Nd121 2.500 . S
O146 C131 1.258 . S
O147 Nd121 2.492 . S
O147 C131 1.239 . S
O148 Nd121 2.487 . S
O148 C138 1.241 1_455 S
O149 Nd120 2.414 . S
O149 Nd121 2.682 1_655 S
O149 C138 1.273 . S
O150 Nd121 2.410 . S
O150 C139 1.251 . S
O151 Nd120 2.424 . S
O151 C139 1.268 1_655 S
H152 C124 0.930 . S
H153 C125 0.929 . S
H154 C127 0.930 . S
H155 C128 0.929 . S
H156 C133 0.930 . S
H157 C134 0.929 . S
H158 C136 0.930 . S
H159 C137 0.929 . S
Nd160 C162 2.836 . S
Nd160 O180 2.500 1_554 S
Nd160 O181 2.492 . S
Nd160 O182 2.487 . S
Nd160 O183 2.682 . S
Nd160 O184 2.410 . S
Nd160 O189 2.414 1_554 S
Nd160 O191 2.424 . S
Nd161 C171 2.836 . S
Nd161 O183 2.414 1_556 S
Nd161 O185 2.424 . S
Nd161 O186 2.500 1_556 S
Nd161 O187 2.492 . S
Nd161 O188 2.487 . S
Nd161 O189 2.682 . S
Nd161 O190 2.410 . S
C162 Nd160 2.836 . S
C162 C163 1.498 . S
C162 O180 1.258 1_554 S
C162 O181 1.239 . S
C163 C162 1.498 . S
C163 C164 1.366 1_554 S
C163 C168 1.407 . S
C164 C163 1.366 1_556 S
C164 C165 1.392 . S
C164 H192 0.930 . S
C165 C164 1.392 . S
C165 C166 1.398 1_656 S
C165 H193 0.929 1_655 S
C166 C165 1.398 1_454 S
C166 C167 1.352 . S
C167 C166 1.352 . S
C167 C168 1.384 1_455 S
C167 H194 0.930 . S
C168 C163 1.407 . S
C168 C167 1.384 1_655 S
C168 H195 0.929 . S
C169 O182 1.241 . S
C169 O183 1.273 . S
C170 O184 1.251 1_556 S
C170 O185 1.268 . S
C171 Nd161 2.836 . S
C171 C172 1.498 . S
C171 O186 1.258 1_556 S
C171 O187 1.239 . S
C172 C171 1.498 . S
C172 C173 1.366 1_556 S
C172 C177 1.407 . S
C173 C172 1.366 1_554 S
C173 C174 1.392 . S
C173 H196 0.930 . S
C174 C173 1.392 . S
C174 C175 1.392 1_554 S
C174 H197 0.929 . S
C175 C174 1.392 1_556 S
C175 C176 1.359 . S
C176 C175 1.359 . S
C176 C177 1.384 . S
C176 H198 0.930 . S
C177 C172 1.407 . S
C177 C176 1.384 . S
C177 H199 0.929 . S
C178 O188 1.241 . S
C178 O189 1.273 . S
C179 O190 1.251 1_554 S
C179 O191 1.268 . S
O180 Nd160 2.500 1_556 S
O180 C162 1.258 1_556 S
O181 Nd160 2.492 . S
O181 C162 1.239 . S
O182 Nd160 2.487 . S
O182 C169 1.241 . S
O183 Nd160 2.682 . S
O183 Nd161 2.414 1_554 S
O183 C169 1.273 . S
O184 Nd160 2.410 . S
O184 C170 1.251 1_554 S
O185 Nd161 2.424 . S
O185 C170 1.268 . S
O186 Nd161 2.500 1_554 S
O186 C171 1.258 1_554 S
O187 Nd161 2.492 . S
O187 C171 1.239 . S
O188 Nd161 2.487 . S
O188 C178 1.241 . S
O189 Nd160 2.414 1_556 S
O189 Nd161 2.682 . S
O189 C178 1.273 . S
O190 Nd161 2.410 . S
O190 C179 1.251 1_556 S
O191 Nd160 2.424 . S
O191 C179 1.268 . S
H192 C164 0.930 . S
H193 C165 0.929 1_455 S
H194 C167 0.930 . S
H195 C168 0.929 . S
H196 C173 0.930 . S
H197 C174 0.929 . S
H198 C176 0.930 . S
H199 C177 0.929 . S
Nd200 C202 2.836 1_554 S
Nd200 O220 2.500 1_554 S
Nd200 O221 2.492 . S
Nd200 O222 2.487 . S
Nd200 O223 2.682 . S
Nd200 O224 2.410 . S
Nd200 O229 2.414 1_554 S
Nd200 O231 2.424 . S
Nd201 C211 2.836 1_556 S
Nd201 O223 2.407 1_556 S
Nd201 O225 2.424 1_556 S
Nd201 O226 2.495 1_556 S
Nd201 O227 2.495 . S
Nd201 O228 2.496 . S
Nd201 O229 2.686 . S
Nd201 O230 2.410 . S
C202 Nd200 2.836 1_556 S
C202 C203 1.498 . S
C202 O220 1.258 . S
C202 O221 1.239 1_556 S
C203 C202 1.498 . S
C203 C204 1.366 . S
C203 C208 1.407 1_556 S
C204 C203 1.366 . S
C204 C205 1.392 . S
C204 H232 0.930 . S
C205 C204 1.392 . S
C205 C206 1.398 1_455 S
C205 H233 0.929 1_455 S
C206 C205 1.398 1_655 S
C206 C207 1.352 1_556 S
C207 C206 1.352 1_554 S
C207 C208 1.384 1_655 S
C207 H234 0.930 . S
C208 C203 1.407 1_554 S
C208 C207 1.384 1_455 S
C208 H235 0.929 . S
C209 O222 1.241 . S
C209 O223 1.273 . S
C210 O224 1.251 . S
C210 O225 1.268 . S
C211 Nd201 2.836 1_554 S
C211 C212 1.498 . S
C211 O226 1.258 . S
C211 O227 1.239 1_554 S
C212 C211 1.498 . S
C212 C213 1.366 . S
C212 C217 1.407 1_554 S
C213 C212 1.366 . S
C213 C214 1.392 . S
C213 H236 0.930 . S
C214 C213 1.392 . S
C214 C215 1.398 . S
C214 H237 0.929 . S
C215 C214 1.398 . S
C215 C216 1.352 1_554 S
C216 C215 1.352 1_556 S
C216 C217 1.384 . S
C216 H238 0.930 . S
C217 C212 1.407 1_556 S
C217 C216 1.384 . S
C217 H239 0.929 . S
C218 O228 1.241 . S
C218 O229 1.273 . S
C219 O230 1.247 1_554 S
C219 O231 1.270 . S
O220 Nd200 2.500 1_556 S
O220 C202 1.258 . S
O221 Nd200 2.492 . S
O221 C202 1.239 1_554 S
O222 Nd200 2.487 . S
O222 C209 1.241 . S
O223 Nd200 2.682 . S
O223 Nd201 2.407 1_554 S
O223 C209 1.273 . S
O224 Nd200 2.410 . S
O224 C210 1.251 . S
O225 Nd201 2.424 1_554 S
O225 C210 1.268 . S
O226 Nd201 2.495 1_554 S
O226 C211 1.258 . S
O227 Nd201 2.495 . S
O227 C211 1.239 1_556 S
O228 Nd201 2.496 . S
O228 C218 1.241 . S
O229 Nd200 2.414 1_556 S
O229 Nd201 2.686 . S
O229 C218 1.273 . S
O230 Nd201 2.410 . S
O230 C219 1.247 1_556 S
O231 Nd200 2.424 . S
O231 C219 1.270 . S
H232 C204 0.930 . S
H233 C205 0.929 1_655 S
H234 C207 0.930 . S
H235 C208 0.929 . S
H236 C213 0.930 . S
H237 C214 0.929 . S
H238 C216 0.930 . S
H239 C217 0.929 . S
Nd240 C242 2.836 . S
Nd240 O260 2.500 . S
Nd240 O261 2.492 . S
Nd240 O262 2.487 . S
Nd240 O263 2.682 . S
Nd240 O264 2.410 . S
Nd240 O269 2.414 . S
Nd240 O271 2.424 . S
Nd241 C251 2.836 . S
Nd241 O263 2.414 . S
Nd241 O265 2.424 . S
Nd241 O266 2.500 . S
Nd241 O267 2.492 . S
Nd241 O268 2.487 . S
Nd241 O269 2.682 . S
Nd241 O270 2.410 . S
C242 Nd240 2.836 . S
C242 C243 1.498 . S
C242 O260 1.258 . S
C242 O261 1.239 . S
C243 C242 1.498 . S
C243 C244 1.366 . S
C243 C248 1.407 . S
C244 C243 1.366 . S
C244 C245 1.392 . S
C244 H272 0.930 . S
C245 C244 1.392 . S
C245 C246 1.398 . S
C245 H273 0.929 . S
C246 C245 1.398 . S
C246 C247 1.352 . S
C247 C246 1.352 . S
C247 C248 1.384 . S
C247 H274 0.930 . S
C248 C243 1.407 . S
C248 C247 1.384 . S
C248 H275 0.929 . S
C249 O262 1.241 . S
C249 O263 1.273 . S
C250 O264 1.251 . S
C250 O265 1.268 . S
C251 Nd241 2.836 . S
C251 C252 1.498 . S
C251 O266 1.258 . S
C251 O267 1.239 . S
C252 C251 1.498 . S
C252 C253 1.366 . S
C252 C257 1.407 . S
C253 C252 1.366 . S
C253 C254 1.392 . S
C253 H276 0.930 . S
C254 C253 1.392 . S
C254 C255 1.398 1_655 S
C254 H277 0.929 1_655 S
C255 C254 1.398 1_455 S
C255 C256 1.352 . S
C256 C255 1.352 . S
C256 C257 1.384 1_455 S
C256 H278 0.930 . S
C257 C252 1.407 . S
C257 C256 1.384 1_655 S
C257 H279 0.929 . S
C258 O268 1.241 . S
C258 O269 1.273 . S
C259 O270 1.251 . S
C259 O271 1.268 . S
O260 Nd240 2.500 . S
O260 C242 1.258 . S
O261 Nd240 2.492 . S
O261 C242 1.239 . S
O262 Nd240 2.487 . S
O262 C249 1.241 . S
O263 Nd240 2.682 . S
O263 Nd241 2.414 . S
O263 C249 1.273 . S
O264 Nd240 2.410 . S
O264 C250 1.251 . S
O265 Nd241 2.424 . S
O265 C250 1.268 . S
O266 Nd241 2.500 . S
O266 C251 1.258 . S
O267 Nd241 2.492 . S
O267 C251 1.239 . S
O268 Nd241 2.487 . S
O268 C258 1.241 . S
O269 Nd240 2.414 . S
O269 Nd241 2.682 . S
O269 C258 1.273 . S
O270 Nd241 2.410 . S
O270 C259 1.251 . S
O271 Nd240 2.424 . S
O271 C259 1.268 . S
H272 C244 0.930 . S
H273 C245 0.929 . S
H274 C247 0.930 . S
H275 C248 0.929 . S
H276 C253 0.930 . S
H277 C254 0.929 1_455 S
H278 C256 0.930 . S
H279 C257 0.929 . S
Nd280 C282 2.836 . S
Nd280 O300 2.500 . S
Nd280 O301 2.492 . S
Nd280 O302 2.487 . S
Nd280 O303 2.682 . S
Nd280 O304 2.410 . S
Nd280 O309 2.414 . S
Nd280 O311 2.424 . S
Nd281 C291 2.836 . S
Nd281 O303 2.414 . S
Nd281 O305 2.424 . S
Nd281 O306 2.500 . S
Nd281 O307 2.492 . S
Nd281 O308 2.487 . S
Nd281 O309 2.682 . S
Nd281 O310 2.410 . S
C282 Nd280 2.836 . S
C282 C283 1.498 . S
C282 O300 1.258 . S
C282 O301 1.239 . S
C283 C282 1.498 . S
C283 C284 1.366 . S
C283 C288 1.407 . S
C284 C283 1.366 . S
C284 C285 1.392 . S
C284 H312 0.930 . S
C285 C284 1.392 . S
C285 C286 1.398 1_455 S
C285 H313 0.929 1_455 S
C286 C285 1.398 1_655 S
C286 C287 1.352 . S
C287 C286 1.352 . S
C287 C288 1.384 1_655 S
C287 H314 0.930 . S
C288 C283 1.407 . S
C288 C287 1.384 1_455 S
C288 H315 0.929 . S
C289 O302 1.241 . S
C289 O303 1.273 . S
C290 O304 1.251 . S
C290 O305 1.268 . S
C291 Nd281 2.836 . S
C291 C292 1.498 . S
C291 O306 1.258 . S
C291 O307 1.239 . S
C292 C291 1.498 . S
C292 C293 1.366 . S
C292 C297 1.407 . S
C293 C292 1.366 . S
C293 C294 1.392 . S
C293 H316 0.930 . S
C294 C293 1.392 . S
C294 C295 1.398 . S
C294 H317 0.929 . S
C295 C294 1.398 . S
C295 C296 1.352 . S
C296 C295 1.352 . S
C296 C297 1.384 . S
C296 H318 0.930 . S
C297 C292 1.407 . S
C297 C296 1.384 . S
C297 H319 0.929 . S
C298 O308 1.241 . S
C298 O309 1.273 . S
C299 O310 1.251 . S
C299 O311 1.268 . S
O300 Nd280 2.500 . S
O300 C282 1.258 . S
O301 Nd280 2.492 . S
O301 C282 1.239 . S
O302 Nd280 2.487 . S
O302 C289 1.241 . S
O303 Nd280 2.682 . S
O303 Nd281 2.414 . S
O303 C289 1.273 . S
O304 Nd280 2.410 . S
O304 C290 1.251 . S
O305 Nd281 2.424 . S
O305 C290 1.268 . S
O306 Nd281 2.500 . S
O306 C291 1.258 . S
O307 Nd281 2.492 . S
O307 C291 1.239 . S
O308 Nd281 2.487 . S
O308 C298 1.241 . S
O309 Nd280 2.414 . S
O309 Nd281 2.682 . S
O309 C298 1.273 . S
O310 Nd281 2.410 . S
O310 C299 1.251 . S
O311 Nd280 2.424 . S
O311 C299 1.268 . S
H312 C284 0.930 . S
H313 C285 0.929 1_655 S
H314 C287 0.930 . S
H315 C288 0.929 . S
H316 C293 0.930 . S
H317 C294 0.929 . S
H318 C296 0.930 . S
H319 C297 0.929 . S
C6 C15 1.254 1_554 S
C55 C46 1.635 1_554 S
C86 C95 1.284 . S
C126 C135 1.284 . S
C166 C175 1.254 1_554 S
C206 C215 1.635 1_556 S
C246 C255 1.284 . S
C295 C286 1.284 . S
C59 C19 2.591 1_455 S
C139 C90 2.588 1_455 S
C179 C219 2.591 1_565 S
C250 C299 2.588 1_545 S
C10 C210 3.755 1_556 S
C170 C50 3.755 1_556 S
C99 C290 3.770 . S
C130 C259 3.770 . S
C9 C129 2.982 1_455 S
C49 C89 2.393 1_655 S
C58 C98 2.764 1_655 S
C138 C18 2.136 1_655 S
C169 C289 2.982 . S
C209 C249 2.393 . S
C218 C258 2.764 . S
C298 C178 2.136 . S
