# Generated by pormake.
# Topology snk, (6)-cn, num edge types: 1
# Building blocks:
#     Node 0, Type 0, BuildingBlock: INOVEN_clean_sbu_0, # of connection points: 6
#     Node 1, Type 0, BuildingBlock: INOVEN_clean_sbu_0, # of connection points: 6
#     Node 2, Type 0, BuildingBlock: INOVEN_clean_sbu_0, # of connection points: 6
#     Node 3, Type 0, BuildingBlock: INOVEN_clean_sbu_0, # of connection points: 6
#     Node 4, Type 0, BuildingBlock: INOVEN_clean_sbu_0, # of connection points: 6
#     Node 5, Type 0, BuildingBlock: INOVEN_clean_sbu_0, # of connection points: 6
#     Node 6, Type 0, BuildingBlock: INOVEN_clean_sbu_0, # of connection points: 6
#     Node 7, Type 0, BuildingBlock: INOVEN_clean_sbu_0, # of connection points: 6
#     Edge 8, Type (0, 0), BuildingBlock: CIFDUS_clean_linker_0, # of connection points: 2
#     Edge 9, Type (0, 0), BuildingBlock: CIFDUS_clean_linker_0, # of connection points: 2
#     Edge 10, Type (0, 0), BuildingBlock: CIFDUS_clean_linker_0, # of connection points: 2
#     Edge 11, Type (0, 0), BuildingBlock: CIFDUS_clean_linker_0, # of connection points: 2
#     Edge 12, Type (0, 0), BuildingBlock: CIFDUS_clean_linker_0, # of connection points: 2
#     Edge 13, Type (0, 0), BuildingBlock: CIFDUS_clean_linker_0, # of connection points: 2
#     Edge 14, Type (0, 0), BuildingBlock: CIFDUS_clean_linker_0, # of connection points: 2
#     Edge 15, Type (0, 0), BuildingBlock: CIFDUS_clean_linker_0, # of connection points: 2
#     Edge 16, Type (0, 0), BuildingBlock: CIFDUS_clean_linker_0, # of connection points: 2
#     Edge 17, Type (0, 0), BuildingBlock: CIFDUS_clean_linker_0, # of connection points: 2
#     Edge 18, Type (0, 0), BuildingBlock: CIFDUS_clean_linker_0, # of connection points: 2
#     Edge 19, Type (0, 0), BuildingBlock: CIFDUS_clean_linker_0, # of connection points: 2
#     Edge 20, Type (0, 0), BuildingBlock: CIFDUS_clean_linker_0, # of connection points: 2
#     Edge 21, Type (0, 0), BuildingBlock: CIFDUS_clean_linker_0, # of connection points: 2
#     Edge 22, Type (0, 0), BuildingBlock: CIFDUS_clean_linker_0, # of connection points: 2
#     Edge 23, Type (0, 0), BuildingBlock: CIFDUS_clean_linker_0, # of connection points: 2
#     Edge 24, Type (0, 0), BuildingBlock: CIFDUS_clean_linker_0, # of connection points: 2
#     Edge 25, Type (0, 0), BuildingBlock: CIFDUS_clean_linker_0, # of connection points: 2
#     Edge 26, Type (0, 0), BuildingBlock: CIFDUS_clean_linker_0, # of connection points: 2
#     Edge 27, Type (0, 0), BuildingBlock: CIFDUS_clean_linker_0, # of connection points: 2
#     Edge 28, Type (0, 0), BuildingBlock: CIFDUS_clean_linker_0, # of connection points: 2
#     Edge 29, Type (0, 0), BuildingBlock: CIFDUS_clean_linker_0, # of connection points: 2
#     Edge 30, Type (0, 0), BuildingBlock: CIFDUS_clean_linker_0, # of connection points: 2
#     Edge 31, Type (0, 0), BuildingBlock: CIFDUS_clean_linker_0, # of connection points: 2
# Relax obj value: 0.080
# Max RMSD: 0.152
# Mean RMSD: 0.122
data_MOF--net-snk--node1-INOVEN_clean_sbu_0--edge1-CIFDUS_clean_linker_0
_symmetry_space_group_name_H-M    P1
_symmetry_Int_Tables_number       1
_symmetry_cell_setting            triclinic
loop_
_symmetry_equiv_pos_as_xyz
'x, y, z'
_cell_length_a     32.42758
_cell_length_b     32.28696
_cell_length_c     23.380172
_cell_angle_alpha  96.189473
_cell_angle_beta   96.41018
_cell_angle_gamma 90.995371
loop_
_atom_site_label
_atom_site_type_symbol
_atom_site_fract_x
_atom_site_fract_y
_atom_site_fract_z
_atom_type_partial_charge
Gd0 Gd 0.99519 1.00948 0.48449 0.0
Gd1 Gd 0.02307 0.0574 0.60174 0.0
C2 C 0.07043 0.07971 0.4971 0.0
C3 C 0.97159 0.98607 0.37576 0.0
C4 C 0.97871 0.99823 0.31848 0.0
C5 C 0.97043 0.96906 0.2694 0.0
C6 C 0.99379 0.03828 0.312 0.0
C7 C 0.99158 0.01989 0.20745 0.0
C8 C 1.00017 0.04901 0.25703 0.0
C9 C 0.97675 0.97972 0.21449 0.0
C10 C 0.04951 0.96955 0.55399 0.0
C11 C 0.9511 0.98358 0.58969 0.0
C12 C 0.04611 0.0821 0.71029 0.0
C13 C 0.04095 0.06945 0.76794 0.0
C14 C 0.0492 0.09873 0.81688 0.0
C15 C 0.02767 0.02888 0.7749 0.0
C16 C 0.03083 0.04721 0.8796 0.0
C17 C 0.0226 0.01787 0.83017 0.0
C18 C 0.04429 0.08777 0.87209 0.0
C19 C 0.97019 0.09865 0.53183 0.0
O20 O 0.04 0.05856 0.46333 0.0
O21 O 0.07363 0.08063 0.55412 0.0
O22 O 1.00307 0.97038 0.40512 0.0
O23 O 0.95098 1.01183 0.40824 0.0
O24 O 0.01933 0.95089 0.51904 0.0
O25 O 0.0509 1.00792 0.54828 0.0
O26 O 0.98104 1.00587 0.62289 0.0
O27 O 0.94646 0.98359 0.5328 0.0
O28 O 0.01298 0.09518 0.68127 0.0
O29 O 0.06823 0.05814 0.67764 0.0
O30 O 1.00108 0.11599 0.5667 0.0
O31 O 0.96729 0.06015 0.53732 0.0
H32 H 0.95878 0.93798 0.27349 0.0
H33 H 1.00054 0.06126 0.34935 0.0
H34 H 0.01214 0.08003 0.25345 0.0
H35 H 0.96926 0.95667 0.17739 0.0
H36 H 0.05961 0.13017 0.81242 0.0
H37 H 0.02117 1.00577 0.73766 0.0
H38 H 0.01175 0.9865 0.83405 0.0
H39 H 0.05162 0.111 0.909 0.0
Gd40 Gd 0.26515 0.74042 0.72318 0.0
Gd41 Gd 0.23713 0.78332 0.83497 0.0
C42 C 0.20022 0.81676 0.71907 0.0
C43 C 0.27148 0.70651 0.61891 0.0
C44 C 0.26625 0.7192 0.55982 0.0
C45 C 0.2915 0.70205 0.51898 0.0
C46 C 0.23721 0.74887 0.54394 0.0
C47 C 0.25906 0.74423 0.44689 0.0
C48 C 0.2336 0.7612 0.48801 0.0
C49 C 0.28799 0.7144 0.46312 0.0
C50 C 0.316 0.80252 0.77992 0.0
C51 C 0.29907 0.70421 0.83825 0.0
C52 C 0.23255 0.81866 0.93892 0.0
C53 C 0.23916 0.80689 0.99843 0.0
C54 C 0.21446 0.82426 0.03984 0.0
C55 C 0.26862 0.77753 1.01403 0.0
C56 C 0.24804 0.78268 0.11182 0.0
C57 C 0.27308 0.76562 0.0702 0.0
C58 C 0.21881 0.81232 0.09592 0.0
C59 C 0.18497 0.72273 0.7776 0.0
O60 O 0.21373 0.78214 0.69268 0.0
O61 O 0.21171 0.82876 0.77455 0.0
O62 O 0.30287 0.72398 0.65353 0.0
O63 O 0.2379 0.70358 0.64464 0.0
O64 O 0.32904 0.7686 0.75393 0.0
O65 O 0.27701 0.8028 0.7726 0.0
O66 O 0.2871 0.73941 0.86522 0.0
O67 O 0.28771 0.6934 0.7825 0.0
O68 O 0.20082 0.80032 0.90592 0.0
O69 O 0.26544 0.82165 0.91164 0.0
O70 O 0.17281 0.75612 0.80607 0.0
O71 O 0.22401 0.72164 0.78454 0.0
H72 H 0.31428 0.67932 0.53049 0.0
H73 H 0.21739 0.76263 0.57473 0.0
H74 H 0.21064 0.78383 0.47689 0.0
H75 H 0.30854 0.70114 0.43301 0.0
H76 H 0.19134 0.84673 0.02853 0.0
H77 H 0.28801 0.7636 0.98279 0.0
H78 H 0.29625 0.74312 0.08105 0.0
H79 H 0.19857 0.82564 0.12642 0.0
Gd80 Gd 0.5387 0.98701 0.07346 0.0
Gd81 Gd 0.50091 0.01961 0.96237 0.0
C82 C 0.45726 0.04584 0.07345 0.0
C83 C 0.57109 0.97736 0.17745 0.0
C84 C 0.56212 0.98752 0.2375 0.0
C85 C 0.5853 0.96918 0.28175 0.0
C86 C 0.53018 0.01432 0.2511 0.0
C87 C 0.54433 1.0037 0.35306 0.0
C88 C 0.52138 0.0224 0.30845 0.0
C89 C 0.57656 0.97719 0.33901 0.0
C90 C 0.48486 0.93393 1.0047 0.0
C91 C 0.57982 0.95791 0.96011 0.0
C92 C 0.4698 0.03149 0.85857 0.0
C93 C 0.47986 0.02298 0.79877 0.0
C94 C 0.45677 0.04159 0.75469 0.0
C95 C 0.51241 0.99698 0.78519 0.0
C96 C 0.49865 1.00839 0.68349 0.0
C97 C 0.52168 0.98967 0.728 0.0
C98 C 0.46604 0.0344 0.69756 0.0
C99 C 0.55667 0.07108 0.03189 0.0
O100 O 0.49142 0.03383 0.10314 0.0
O101 O 0.45033 0.03755 1.01668 0.0
O102 O 0.54594 0.94985 0.14548 0.0
O103 O 0.5808 1.00868 0.14987 0.0
O104 O 0.51805 0.92233 0.03431 0.0
O105 O 0.48045 0.97265 1.01516 0.0
O106 O 0.54639 0.97204 0.93141 0.0
O107 O 0.58758 0.96557 1.01704 0.0
O108 O 0.49406 0.05876 0.89245 0.0
O109 O 0.46016 0.99915 0.88418 0.0
O110 O 0.52287 0.08381 1.00499 0.0
O111 O 0.55964 0.03249 1.0195 0.0
H112 H 0.61011 0.94844 0.27196 0.0
H113 H 0.51184 0.02867 0.21742 0.0
H114 H 0.49611 0.04265 0.31766 0.0
H115 H 0.59525 0.96281 0.37234 0.0
H116 H 0.4315 0.06172 0.76446 0.0
H117 H 0.53073 0.98253 0.81874 0.0
H118 H 0.54727 0.96985 0.71878 0.0
H119 H 0.44733 0.04883 0.66428 0.0
Gd120 Gd 0.28383 0.26888 0.31079 0.0
Gd121 Gd 0.24035 0.23401 0.19355 0.0
C122 C 0.21549 0.1919 0.30073 0.0
C123 C 0.30549 0.29464 0.41948 0.0
C124 C 0.2933 0.28808 0.477 0.0
C125 C 0.3232 0.29414 0.52553 0.0
C126 C 0.25281 0.27516 0.48426 0.0
C127 C 0.27251 0.2745 0.58832 0.0
C128 C 0.24252 0.26843 0.53935 0.0
C129 C 0.31298 0.28752 0.58051 0.0
C130 C 0.33009 0.21676 0.24791 0.0
C131 C 0.30478 0.314 0.20323 0.0
C132 C 0.22044 0.20633 0.08518 0.0
C133 C 0.23142 0.21416 0.02745 0.0
C134 C 0.20113 0.20747 0.97938 0.0
C135 C 0.27135 0.22832 1.01945 0.0
C136 C 0.25058 0.22823 0.91553 0.0
C137 C 0.28084 0.23524 0.96408 0.0
C138 C 0.21054 0.21441 0.92409 0.0
C139 C 0.19451 0.2865 0.25664 0.0
O140 O 0.23463 0.22448 0.33247 0.0
O141 O 0.21766 0.18499 0.2444 0.0
O142 O 0.32209 0.26307 0.39171 0.0
O143 O 0.27974 0.31425 0.38545 0.0
O144 O 0.34443 0.25008 0.2804 0.0
O145 O 0.29167 0.21136 0.25135 0.0
O146 O 0.2864 0.28112 0.17135 0.0
O147 O 0.30447 0.31943 0.26014 0.0
O148 O 0.20074 0.2358 0.1126 0.0
O149 O 0.24848 0.18953 0.11948 0.0
O150 O 0.17936 0.25403 0.22285 0.0
O151 O 0.23287 0.29122 0.25301 0.0
H152 H 0.35463 0.30411 0.5209 0.0
H153 H 0.22922 0.27016 0.44737 0.0
H154 H 0.21118 0.25796 0.54342 0.0
H155 H 0.33675 0.2932 0.61707 0.0
H156 H 0.1701 0.19659 0.98456 0.0
H157 H 0.29519 0.234 0.05594 0.0
H158 H 0.31183 0.24641 0.95938 0.0
H159 H 0.18658 0.20816 0.88785 0.0
Gd160 Gd 0.76329 0.24944 0.227 0.0
Gd161 Gd 0.73438 0.29048 0.33846 0.0
C162 C 0.70625 0.3321 0.22512 0.0
C163 C 0.76964 0.21563 0.12275 0.0
C164 C 0.76553 0.22832 0.06396 0.0
C165 C 0.75536 0.26918 0.05401 0.0
C166 C 0.7727 0.1994 1.01729 0.0
C167 C 0.76037 0.25223 0.95084 0.0
C168 C 0.77016 0.2112 0.96122 0.0
C169 C 0.75279 0.28104 0.99791 0.0
C170 C 0.81641 0.30714 0.28953 0.0
C171 C 0.79347 0.20923 0.34046 0.0
C172 C 0.7277 0.32405 0.44271 0.0
C173 C 0.73204 0.31126 0.50147 0.0
C174 C 0.74234 0.2704 0.51123 0.0
C175 C 0.72485 0.34004 0.54827 0.0
C176 C 0.73744 0.28709 0.61447 0.0
C177 C 0.72752 0.32812 0.60428 0.0
C178 C 0.74503 0.2584 0.56727 0.0
C179 C 0.68041 0.23403 0.27495 0.0
O180 O 0.71725 0.29707 0.19653 0.0
O181 O 0.71612 0.34037 0.28164 0.0
O182 O 0.80111 0.23238 0.15795 0.0
O183 O 0.73546 0.21422 0.14745 0.0
O184 O 0.82828 0.27321 0.26201 0.0
O185 O 0.77769 0.30973 0.28044 0.0
O186 O 0.78167 0.24402 0.36869 0.0
O187 O 0.78315 0.20024 0.28417 0.0
O188 O 0.69641 0.30695 0.40749 0.0
O189 O 0.76184 0.32603 0.41799 0.0
O190 O 0.66931 0.26795 0.30331 0.0
O191 O 0.71914 0.23045 0.28428 0.0
H192 H 0.74968 0.29192 0.08961 0.0
H193 H 0.78071 0.16775 0.0243 0.0
H194 H 0.77671 0.18839 0.92619 0.0
H195 H 0.74466 0.31272 0.99138 0.0
H196 H 0.74803 0.24775 0.47552 0.0
H197 H 0.71671 0.37168 0.5414 0.0
H198 H 0.72094 0.35084 0.63941 0.0
H199 H 0.75324 0.22672 0.57367 0.0
Gd200 Gd 0.77923 0.76533 0.79928 0.0
Gd201 Gd 0.73036 0.73907 0.68237 0.0
C202 C 0.70519 0.69412 0.78753 0.0
C203 C 0.80534 0.78619 0.90797 0.0
C204 C 0.79214 0.78177 0.9655 0.0
C205 C 0.82155 0.78805 1.01455 0.0
C206 C 0.75106 0.7706 0.9722 0.0
C207 C 0.76919 0.77187 0.07681 0.0
C208 C 0.7397 0.76565 0.02731 0.0
C209 C 0.81025 0.78324 0.06957 0.0
C210 C 0.81773 0.71058 0.72848 0.0
C211 C 0.80278 0.81234 0.69504 0.0
C212 C 0.70563 0.71649 0.57368 0.0
C213 C 0.71805 0.72225 0.51609 0.0
C214 C 0.68831 0.71614 0.46738 0.0
C215 C 0.7589 0.73391 0.50893 0.0
C216 C 0.74005 0.7329 0.4045 0.0
C217 C 0.76979 0.73921 0.45371 0.0
C218 C 0.69913 0.72135 0.41222 0.0
C219 C 0.69027 0.79212 0.75297 0.0
O220 O 0.72724 0.72425 0.82073 0.0
O221 O 0.70508 0.68967 0.73061 0.0
O222 O 0.81557 0.75196 0.87851 0.0
O223 O 0.78372 0.81054 0.87564 0.0
O224 O 0.8367 0.74083 0.76297 0.0
O225 O 0.77958 0.70957 0.73475 0.0
O226 O 0.7809 0.78225 0.6615 0.0
O227 O 0.8037 0.81572 0.75202 0.0
O228 O 0.69239 0.74942 0.60291 0.0
O229 O 0.7297 0.6942 0.60621 0.0
O230 O 0.67225 0.76236 0.7166 0.0
O231 O 0.72868 0.79442 0.7478 0.0
H232 H 0.8534 0.79673 1.0103 0.0
H233 H 0.72787 0.76553 0.93486 0.0
H234 H 0.70792 0.75641 0.03099 0.0
H235 H 0.83366 0.78898 0.10656 0.0
H236 H 0.65662 0.70708 0.47197 0.0
H237 H 0.78236 0.73888 0.54598 0.0
H238 H 0.80146 0.74862 0.44968 0.0
H239 H 0.67553 0.71561 0.37546 0.0
Gd240 Gd 0.49083 0.50637 0.97569 0.0
Gd241 Gd 0.52793 0.54753 0.09342 0.0
C242 C 0.57173 0.57054 0.98642 0.0
C243 C 0.46079 0.49156 0.86748 0.0
C244 C 0.47281 0.50023 0.81072 0.0
C245 C 0.51463 0.50568 0.80205 0.0
C246 C 0.44193 0.50323 0.76449 0.0
C247 C 0.49445 0.51664 0.70107 0.0
C248 C 0.45259 0.51129 0.71024 0.0
C249 C 0.52535 0.51386 0.74783 0.0
C250 C 0.54495 0.45886 0.03305 0.0
C251 C 0.4495 0.48114 0.08409 0.0
C252 C 0.55677 0.56521 0.20178 0.0
C253 C 0.54566 0.55618 0.2589 0.0
C254 C 0.50409 0.55074 0.26877 0.0
C255 C 0.57715 0.55309 0.30438 0.0
C256 C 0.52571 0.53936 0.36923 0.0
C257 C 0.56733 0.54484 0.35898 0.0
C258 C 0.49422 0.54236 0.3233 0.0
C259 C 0.47259 0.59356 0.03444 0.0
O260 O 0.53914 0.55196 0.95405 0.0
O261 O 0.5775 0.56909 0.04302 0.0
O262 O 0.48345 0.46538 0.89522 0.0
O263 O 0.45097 0.52373 0.9016 0.0
O264 O 0.51208 0.44448 0.99962 0.0
O265 O 0.54944 0.49787 0.03212 0.0
O266 O 0.48214 0.50014 0.11561 0.0
O267 O 0.44247 0.48308 0.02755 0.0
O268 O 0.53204 0.58923 0.17311 0.0
O269 O 0.5691 0.53381 0.16853 0.0
O270 O 0.50593 0.60886 0.06598 0.0
O271 O 0.46906 0.55486 0.0375 0.0
H272 H 0.53902 0.5034 0.83712 0.0
H273 H 0.40946 0.49937 0.77035 0.0
H274 H 0.42792 0.51388 0.67566 0.0
H275 H 0.5579 0.51739 0.74235 0.0
H276 H 0.47922 0.55317 0.23441 0.0
H277 H 0.60944 0.55705 0.29764 0.0
H278 H 0.59241 0.54217 0.39294 0.0
H279 H 0.46183 0.53881 0.32966 0.0
Gd280 Gd 0.0462 0.48347 0.5801 0.0
Gd281 Gd 1.00441 0.51262 0.46788 0.0
C282 C 0.96971 0.54869 0.58258 0.0
C283 C 0.08026 0.47749 0.68459 0.0
C284 C 0.06831 0.48507 0.74368 0.0
C285 C 0.02732 0.49428 0.7531 0.0
C286 C 0.09804 0.48224 0.7913 0.0
C287 C 0.04579 0.49688 0.8576 0.0
C288 C 0.08695 0.48808 0.84771 0.0
C289 C 0.01615 0.50013 0.80951 0.0
C290 C 0.98645 0.43148 0.52079 0.0
C291 C 0.08264 0.44986 0.46512 0.0
C292 C 0.97033 0.51869 0.36345 0.0
C293 C 0.98205 0.51078 0.30428 0.0
C294 C 0.02297 0.50141 0.29465 0.0
C295 C 0.9522 0.5136 0.25679 0.0
C296 C 1.00421 0.49866 0.1902 0.0
C297 C 0.96312 0.5076 0.2003 0.0
C298 C 0.03395 0.4954 0.23816 0.0
C299 C 0.06561 0.56336 0.5271 0.0
O300 O 1.00386 0.53475 0.60978 0.0
O301 O 0.95853 0.53782 0.5268 0.0
O302 O 0.06061 0.44655 0.65134 0.0
O303 O 0.08479 0.5104 0.65753 0.0
O304 O 0.01988 0.41912 0.54888 0.0
O305 O 0.98491 0.47068 0.52823 0.0
O306 O 0.04796 0.46256 0.4377 0.0
O307 O 0.09305 0.46046 0.5212 0.0
O308 O 0.99046 0.54946 0.39649 0.0
O309 O 0.96538 0.48595 0.39071 0.0
O310 O 0.03216 0.57681 0.50027 0.0
O311 O 0.06573 0.52429 0.51886 0.0
H312 H 1.00388 0.49651 0.7168 0.0
H313 H 0.12988 0.4753 0.78484 0.0
H314 H 0.11072 0.48603 0.88361 0.0
H315 H 0.98411 0.50642 0.81538 0.0
H316 H 0.0465 0.49921 0.33084 0.0
H317 H 0.92042 0.52068 0.26342 0.0
H318 H 0.93927 0.50967 0.16449 0.0
H319 H 0.06595 0.48901 0.23214 0.0
H320 H 0.08101 0.07425 0.38257 0.0
H321 H 0.13021 0.13678 0.54948 0.0
H322 H 0.18039 0.17554 0.50357 0.0
H323 H 0.20909 0.19288 0.41605 0.0
H324 H 0.15999 0.13031 0.24913 0.0
H325 H 0.11117 0.09006 0.29533 0.0
C326 C 0.10263 0.09638 0.40905 0.0
C327 C 0.10155 0.10272 0.4695 0.0
C328 C 0.13154 0.11844 0.3824 0.0
C329 C 0.13022 0.13123 0.50296 0.0
C330 C 0.15895 0.15345 0.47671 0.0
C331 C 0.18787 0.17035 0.38963 0.0
C332 C 0.18822 0.16484 0.32901 0.0
C333 C 0.15974 0.14745 0.41645 0.0
C334 C 0.1606 0.13519 0.29578 0.0
C335 C 0.13251 0.11226 0.32218 0.0
H336 H 0.05583 0.8864 0.5563 0.0
H337 H 0.11413 1.00374 0.63098 0.0
H338 H 0.16437 0.96735 0.69223 0.0
H339 H 0.19267 0.90133 0.72331 0.0
H340 H 0.13826 0.7844 0.63958 0.0
H341 H 0.08591 0.82118 0.58301 0.0
C342 C 0.07949 0.90402 0.58607 0.0
C343 C 0.08066 0.94775 0.59013 0.0
C344 C 0.10918 0.88281 0.61937 0.0
C345 C 0.11191 0.97011 0.62817 0.0
C346 C 0.14085 0.94927 0.66288 0.0
C347 C 0.16921 0.8841 0.69277 0.0
C348 C 0.16914 0.8403 0.68572 0.0
C349 C 0.13982 0.90555 0.65887 0.0
C350 C 0.139 0.81818 0.64551 0.0
C351 C 0.109 0.83916 0.61323 0.0
H352 H 0.39482 0.79226 0.82552 0.0
H353 H 0.29644 0.88035 0.82459 0.0
H354 H 0.34046 0.92988 0.89301 0.0
H355 H 0.40694 0.94745 0.95459 0.0
H356 H 0.50345 0.85717 0.95812 0.0
H357 H 0.4603 0.80922 0.88724 0.0
C358 C 0.38315 0.82243 0.84004 0.0
C359 C 0.34266 0.83286 0.81995 0.0
C360 C 0.40828 0.85026 0.88001 0.0
C361 C 0.32763 0.87177 0.83954 0.0
C362 C 0.35276 0.90003 0.87862 0.0
C363 C 0.41841 0.9173 0.93961 0.0
C364 C 0.4582 0.90575 0.96149 0.0
C365 C 0.39312 0.88954 0.89937 0.0
C366 C 0.47278 0.8666 0.9421 0.0
C367 C 0.44819 0.8392 0.90148 0.0
H368 H 0.47393 0.10296 0.1672 0.0
H369 H 0.37333 0.04686 0.04602 0.0
H370 H 0.32409 0.09269 0.09172 0.0
H371 H 0.31017 0.15091 0.16433 0.0
H372 H 0.41272 0.21158 0.27753 0.0
H373 H 0.46036 0.16172 0.23761 0.0
C374 C 0.44113 0.10044 0.15135 0.0
C375 C 0.42718 0.07136 0.10376 0.0
C376 C 0.41331 0.12794 0.17636 0.0
C377 C 0.38475 0.06899 0.08278 0.0
C378 C 0.3566 0.09521 0.10884 0.0
C379 C 0.34289 0.15323 0.17999 0.0
C380 C 0.35779 0.18509 0.22357 0.0
C381 C 0.37058 0.12521 0.15528 0.0
C382 C 0.40038 0.18753 0.24374 0.0
C383 C 0.42774 0.15897 0.221 0.0
H384 H 0.89578 0.92222 0.53771 0.0
H385 H 0.94527 0.98327 0.70532 0.0
H386 H 0.90393 0.9364 0.75262 0.0
H387 H 0.85464 0.87683 0.747 0.0
H388 H 0.80555 0.8156 0.57924 0.0
H389 H 0.84559 0.86355 0.53203 0.0
C390 C 0.89732 0.92551 0.58456 0.0
C391 C 0.92381 0.9563 0.61768 0.0
C392 C 0.87356 0.89816 0.61178 0.0
C393 C 0.92543 0.95981 0.67848 0.0
C394 C 0.90172 0.93296 0.70574 0.0
C395 C 0.8526 0.87399 0.70013 0.0
C396 C 0.82709 0.84238 0.66701 0.0
C397 C 0.87587 0.90178 0.6729 0.0
C398 C 0.82496 0.83937 0.60618 0.0
C399 C 0.84787 0.8669 0.57892 0.0
H400 H 0.90724 0.07194 0.44604 0.0
H401 H 0.96035 0.18161 0.55226 0.0
H402 H 0.90877 0.22458 0.50548 0.0
H403 H 0.85004 0.23196 0.43256 0.0
H404 H 0.80057 0.12461 0.31833 0.0
H405 H 0.84926 0.07991 0.36934 0.0
C406 C 0.9076 0.10519 0.4586 0.0
C407 C 0.93778 0.12343 0.50248 0.0
C408 C 0.87845 0.13022 0.43 0.0
C409 C 0.93763 0.16668 0.51851 0.0
C410 C 0.90807 0.19138 0.49182 0.0
C411 C 0.8496 0.19869 0.41919 0.0
C412 C 0.82143 0.18151 0.37224 0.0
C413 C 0.87851 0.17358 0.44734 0.0
C414 C 0.82189 0.13852 0.35455 0.0
C415 C 0.84973 0.11299 0.3837 0.0
H416 H 0.69595 0.15842 0.219 0.0
H417 H 0.60195 0.25073 0.23235 0.0
H418 H 0.55564 0.20903 0.15755 0.0
H419 H 0.54181 0.14644 0.08764 0.0
H420 H 0.63471 0.05297 0.07574 0.0
H421 H 0.6815 0.09489 0.1502 0.0
C422 C 0.6653 0.16928 0.20547 0.0
C423 C 0.65241 0.20759 0.23101 0.0
C424 C 0.6387 0.14501 0.16247 0.0
C425 C 0.61255 0.22127 0.21342 0.0
C426 C 0.58608 0.19752 0.1705 0.0
C427 C 0.57239 0.13542 0.10121 0.0
C428 C 0.58497 0.09688 0.07613 0.0
C429 C 0.59885 0.15941 0.14456 0.0
C430 C 0.62443 0.08264 0.09449 0.0
C431 C 0.65116 0.10656 0.13705 0.0
H432 H 0.71479 0.84277 0.85336 0.0
H433 H 0.61165 0.81353 0.72125 0.0
H434 H 0.5695 0.86399 0.77174 0.0
H435 H 0.56062 0.91398 0.85508 0.0
H436 H 0.66109 0.94004 0.9923 0.0
H437 H 0.7055 0.89302 0.93874 0.0
C438 C 0.68328 0.84769 0.83564 0.0
C439 C 0.6665 0.82452 0.78359 0.0
C440 C 0.65861 0.87595 0.86605 0.0
C441 C 0.62531 0.8309 0.76133 0.0
C442 C 0.60113 0.85975 0.79016 0.0
C443 C 0.5924 0.90983 0.87309 0.0
C444 C 0.60762 0.93082 0.92738 0.0
C445 C 0.61729 0.88212 0.84279 0.0
C446 C 0.64861 0.92431 0.95052 0.0
C447 C 0.67402 0.89746 0.91988 0.0
H448 H 0.57443 0.57295 0.87066 0.0
H449 H 0.6366 0.62199 0.03785 0.0
H450 H 0.68373 0.66363 0.99089 0.0
H451 H 0.70611 0.68741 0.90274 0.0
H452 H 0.64449 0.63781 0.73544 0.0
H453 H 0.59856 0.59468 0.78229 0.0
C454 C 0.59839 0.5925 0.89698 0.0
C455 C 0.60179 0.59427 0.95788 0.0
C456 C 0.62552 0.61626 0.86967 0.0
C457 C 0.63321 0.61986 0.99101 0.0
C458 C 0.66016 0.64378 0.96416 0.0
C459 C 0.6827 0.66717 0.87635 0.0
C460 C 0.67868 0.66614 0.81552 0.0
C461 C 0.65641 0.64243 0.90356 0.0
C462 C 0.64837 0.6393 0.78224 0.0
C463 C 0.62199 0.61468 0.80904 0.0
H464 H 0.65061 0.31449 0.13044 0.0
H465 H 0.70652 0.41696 0.24868 0.0
H466 H 0.6643 0.46623 0.19647 0.0
H467 H 0.60998 0.47968 0.11782 0.0
H468 H 0.54858 0.37543 1.00863 0.0
H469 H 0.59512 0.32757 0.05521 0.0
C470 C 0.65378 0.34766 0.14446 0.0
C471 C 0.68178 0.36215 0.19299 0.0
C472 C 0.62844 0.3755 0.11559 0.0
C473 C 0.68509 0.4051 0.21138 0.0
C474 C 0.66102 0.43326 0.18149 0.0
C475 C 0.60651 0.44654 0.10483 0.0
C476 C 0.57543 0.43122 0.06041 0.0
C477 C 0.63227 0.41878 0.13376 0.0
C478 C 0.57202 0.38811 0.04303 0.0
C479 C 0.5986 0.36062 0.06968 0.0
H480 H 0.90978 0.44776 0.46901 0.0
H481 H 1.00185 0.35308 0.47652 0.0
H482 H 0.95804 0.30675 0.40433 0.0
H483 H 0.89344 0.29279 0.33916 0.0
H484 H 0.79957 0.38564 0.3341 0.0
H485 H 0.84401 0.43303 0.40488 0.0
C486 C 0.9201 0.41697 0.45473 0.0
C487 C 0.9589 0.40382 0.47795 0.0
C488 C 0.89448 0.39022 0.41352 0.0
C489 C 0.97196 0.36382 0.45945 0.0
C490 C 0.94701 0.33733 0.41802 0.0
C491 C 0.88289 0.32351 0.35334 0.0
C492 C 0.84356 0.33593 0.33127 0.0
C493 C 0.90824 0.35018 0.39473 0.0
C494 C 0.82989 0.37553 0.35051 0.0
C495 C 0.85524 0.40258 0.39096 0.0
H496 H 0.90045 0.69879 0.73577 0.0
H497 H 0.78368 0.6467 0.64976 0.0
H498 H 0.82006 0.593 0.59454 0.0
H499 H 0.88583 0.56039 0.57117 0.0
H500 H 1.00143 0.60869 0.66616 0.0
H501 H 0.96499 0.66385 0.71766 0.0
C502 C 0.88295 0.67574 0.70484 0.0
C503 C 0.83944 0.67738 0.6958 0.0
C504 C 0.904 0.64399 0.67512 0.0
C505 C 0.8172 0.64679 0.65643 0.0
C506 C 0.83803 0.61586 0.62516 0.0
C507 C 0.90287 0.58299 0.60326 0.0
C508 C 0.94623 0.58052 0.61478 0.0
C509 C 0.88149 0.61414 0.63408 0.0
C510 C 0.96799 0.60973 0.65684 0.0
C511 C 0.94721 0.64143 0.68616 0.0
H512 H 0.35659 0.37974 0.2508 0.0
H513 H 0.3019 0.31704 0.08671 0.0
H514 H 0.33949 0.3643 0.03535 0.0
H515 H 0.39048 0.42184 0.03626 0.0
H516 H 0.4465 0.48324 0.20035 0.0
H517 H 0.40581 0.43872 0.25171 0.0
C518 C 0.35267 0.37658 0.20385 0.0
C519 C 0.32655 0.3446 0.17298 0.0
C520 C 0.37474 0.4038 0.17418 0.0
C521 C 0.322 0.34106 0.11195 0.0
C522 C 0.34347 0.3682 0.08229 0.0
C523 C 0.39342 0.4258 0.08321 0.0
C524 C 0.42162 0.45596 0.11413 0.0
C525 C 0.37029 0.39947 0.11287 0.0
C526 C 0.42519 0.46031 0.17513 0.0
C527 C 0.40191 0.43474 0.20477 0.0
H528 H 0.40348 0.56752 0.95971 0.0
H529 H 0.47191 0.67783 0.04191 0.0
H530 H 0.42287 0.72166 0.99132 0.0
H531 H 0.36188 0.72892 0.9212 0.0
H532 H 0.29866 0.61907 0.82863 0.0
H533 H 0.34481 0.5747 0.88426 0.0
C534 C 0.40807 0.60107 0.96568 0.0
C535 C 0.4417 0.61928 1.00392 0.0
C536 C 0.38071 0.62617 0.93435 0.0
C537 C 0.44646 0.66294 1.01249 0.0
C538 C 0.41844 0.68809 0.98352 0.0
C539 C 0.35813 0.69524 0.91348 0.0
C540 C 0.32675 0.67719 0.87142 0.0
C541 C 0.38566 0.67007 0.94403 0.0
C542 C 0.32264 0.63358 0.86091 0.0
C543 C 0.34894 0.60826 0.89277 0.0
H544 H 0.20204 0.64828 0.72001 0.0
H545 H 0.10682 0.73928 0.73398 0.0
H546 H 0.06211 0.69884 0.65616 0.0
H547 H 0.05004 0.63786 0.58361 0.0
H548 H 0.14346 0.54498 0.57141 0.0
H549 H 0.18911 0.58594 0.64847 0.0
C550 C 0.17146 0.65907 0.70596 0.0
C551 C 0.15774 0.69665 0.7325 0.0
C552 C 0.14577 0.63552 0.66121 0.0
C553 C 0.118 0.71031 0.71433 0.0
C554 C 0.09248 0.68734 0.66963 0.0
C555 C 0.08055 0.62682 0.59757 0.0
C556 C 0.09368 0.5888 0.57175 0.0
C557 C 0.1061 0.65002 0.64259 0.0
C558 C 0.13291 0.57437 0.5907 0.0
C559 C 0.15891 0.59768 0.63477 0.0
H560 H 0.21999 0.3505 0.34048 0.0
H561 H 0.11063 0.28833 0.24543 0.0
H562 H 0.06655 0.33457 0.29964 0.0
H563 H 0.05883 0.39139 0.37581 0.0
H564 H 0.16743 0.44811 0.47983 0.0
H565 H 0.21222 0.40451 0.42189 0.0
C566 C 0.18662 0.34664 0.33243 0.0
C567 C 0.16872 0.31569 0.28947 0.0
C568 C 0.16134 0.37222 0.36565 0.0
C569 C 0.12525 0.31178 0.27845 0.0
C570 C 0.09997 0.33817 0.30948 0.0
C571 C 0.09233 0.39425 0.38564 0.0
C572 C 0.10992 0.42308 0.43155 0.0
C573 C 0.11766 0.36829 0.3534 0.0
C574 C 0.15327 0.42605 0.44462 0.0
C575 C 0.17883 0.40125 0.4114 0.0
H576 H 0.9999 0.09427 0.96873 0.0
H577 H 0.05065 0.9739 0.92406 0.0
H578 H 0.04298 0.95491 1.02068 0.0
H579 H 0.02286 0.97273 0.11862 0.0
H580 H 0.97253 0.09329 0.16329 0.0
H581 H 0.98027 0.11225 0.0667 0.0
C582 C 1.0097 0.06401 0.98018 0.0
C583 C 0.02581 0.03561 0.93875 0.0
C584 C 1.0056 0.05338 0.03617 0.0
C585 C 0.03758 0.99625 0.95445 0.0
C586 C 0.03349 0.98543 1.00998 0.0
C587 C 0.01328 1.00306 0.10717 0.0
C588 C 0.99717 0.03151 0.14854 0.0
C589 C 0.01754 0.01373 0.05122 0.0
C590 C 0.98558 0.07092 0.13289 0.0
C591 C 0.98971 0.08172 0.0774 0.0
H592 H 0.26305 0.69645 0.34386 0.0
H593 H 0.24829 0.82328 0.41654 0.0
H594 H 0.24355 0.8462 0.31998 0.0
H595 H 0.24467 0.83058 0.21493 0.0
H596 H 0.25936 0.70374 0.14226 0.0
H597 H 0.26436 0.68086 0.23886 0.0
C598 C 0.25918 0.72919 0.33873 0.0
C599 C 0.25596 0.75801 0.38767 0.0
C600 C 0.25683 0.74229 0.28302 0.0
C601 C 0.25026 0.80022 0.37979 0.0
C602 C 0.24784 0.81345 0.32453 0.0
C603 C 0.24862 0.79786 0.22008 0.0
C604 C 0.25169 0.76902 0.17113 0.0
C605 C 0.25108 0.78478 0.27582 0.0
C606 C 0.25751 0.72682 0.17903 0.0
C607 C 0.26006 0.71361 0.23431 0.0
H608 H 0.5013 0.06491 0.60525 0.0
H609 H 0.51793 0.93465 0.62485 0.0
H610 H 0.53366 0.92186 0.52484 0.0
H611 H 0.54157 0.94735 0.43138 0.0
H612 H 0.52514 0.07762 0.41168 0.0
H613 H 0.50935 0.09045 0.5117 0.0
C614 C 0.50802 0.03364 0.58751 0.0
C615 C 0.50843 1.0008 0.62262 0.0
C616 C 0.5168 0.02644 0.52983 0.0
C617 C 0.5179 0.96061 0.59912 0.0
C618 C 0.52664 0.9532 0.54179 0.0
C619 C 0.53494 0.97865 0.44909 0.0
C620 C 0.5346 1.01147 0.41396 0.0
C621 C 0.52619 0.98588 0.50677 0.0
C622 C 0.52516 0.05168 0.43743 0.0
C623 C 0.51637 0.0591 0.49477 0.0
H624 H 0.20267 0.26238 0.8294 0.0
H625 H 0.32174 0.20766 0.86741 0.0
H626 H 0.33878 0.21686 0.77041 0.0
H627 H 0.31975 0.23953 0.67412 0.0
H628 H 0.2009 0.29466 0.63603 0.0
H629 H 0.1836 0.28508 0.73285 0.0
C630 C 0.23224 0.25216 0.81641 0.0
C631 C 0.26088 0.23444 0.85613 0.0
C632 C 0.24183 0.2573 0.76018 0.0
C633 C 0.29929 0.22198 0.83841 0.0
C634 C 0.30898 0.22696 0.78265 0.0
C635 C 0.29018 0.24982 0.68703 0.0
C636 C 0.26174 0.26783 0.64738 0.0
C637 C 0.28053 0.24461 0.74316 0.0
C638 C 0.22326 0.28019 0.66498 0.0
C639 C 0.21342 0.27499 0.72065 0.0
H640 H 0.72749 0.20836 0.84919 0.0
H641 H 0.79021 0.32498 0.91865 0.0
H642 H 0.78862 0.34597 0.82122 0.0
H643 H 0.77047 0.33083 0.7161 0.0
H644 H 0.70778 0.21422 0.64659 0.0
H645 H 0.70942 0.19319 0.74402 0.0
C646 C 0.74112 0.23824 0.84301 0.0
C647 C 0.75887 0.26505 0.89134 0.0
C648 C 0.74043 0.25 0.78676 0.0
C649 C 0.7758 0.30394 0.88245 0.0
C650 C 0.77518 0.31587 0.82666 0.0
C651 C 0.75686 0.30095 0.72226 0.0
C652 C 0.73908 0.27417 0.67393 0.0
C653 C 0.75759 0.28916 0.7785 0.0
C654 C 0.7222 0.23525 0.6828 0.0
C655 C 0.72285 0.22329 0.73859 0.0
H656 H 0.69503 0.76737 0.31617 0.0
H657 H 0.81136 0.70875 0.35914 0.0
H658 H 0.83047 0.7156 0.26248 0.0
H659 H 0.81387 0.73711 0.16501 0.0
H660 H 0.69761 0.79579 0.12189 0.0
H661 H 0.67839 0.78883 0.21851 0.0
C662 C 0.72444 0.75574 0.30433 0.0
C663 C 0.75169 0.73763 0.34533 0.0
C664 C 0.73516 0.75946 0.2483 0.0
C665 C 0.78996 0.7234 0.32911 0.0
C666 C 0.80082 0.72703 0.27356 0.0
C667 C 0.78446 0.74874 0.17679 0.0
C668 C 0.75729 0.76697 0.13582 0.0
C669 C 0.77369 0.74499 0.23277 0.0
C670 C 0.71898 0.78111 0.15193 0.0
C671 C 0.70805 0.77742 0.20746 0.0
H672 H 0.45987 0.48174 0.59435 0.0
H673 H 0.55459 0.57091 0.67708 0.0
H674 H 0.57297 0.58523 0.58251 0.0
H675 H 0.56126 0.57362 0.476 0.0
H676 H 0.4664 0.4845 0.39351 0.0
H677 H 0.4484 0.46989 0.48808 0.0
C678 C 0.48429 0.50461 0.5918 0.0
C679 C 0.50574 0.52517 0.64308 0.0
C680 C 0.49455 0.51297 0.53714 0.0
C681 C 0.53783 0.55416 0.6386 0.0
C682 C 0.54822 0.56259 0.58441 0.0
C683 C 0.5369 0.5507 0.47863 0.0
C684 C 0.51519 0.53033 0.42738 0.0
C685 C 0.52678 0.54222 0.53335 0.0
C686 C 0.48328 0.50117 0.43196 0.0
C687 C 0.4731 0.49257 0.48614 0.0
H688 H 0.07081 0.45218 0.94741 0.0
H689 H 0.99374 0.55431 0.90324 0.0
H690 H 0.97376 0.56342 1.00135 0.0
H691 H 0.97902 0.54327 0.10031 0.0
H692 H 0.05608 0.44112 0.14445 0.0
H693 H 0.076 0.43197 0.04632 0.0
C694 C 0.04996 0.47672 0.95933 0.0
C695 C 0.03385 0.50249 0.91773 0.0
C696 C 0.03876 0.48199 1.01604 0.0
C697 C 1.00626 0.53364 0.93394 0.0
C698 C 0.99498 0.53905 0.99023 0.0
C699 C 0.99985 0.51871 0.08838 0.0
C700 C 0.016 0.49296 0.12999 0.0
C701 C 0.01102 0.51341 0.03165 0.0
C702 C 0.04355 0.46178 0.11375 0.0
C703 C 0.05479 0.45634 0.05745 0.0
loop_
_geom_bond_atom_site_label_1
_geom_bond_atom_site_label_2
_geom_bond_distance
_geom_bond_site_symmetry_2
_ccdc_geom_bond_type
Gd0 C3 2.818 1_655 S
Gd0 O20 2.377 1_665 S
Gd0 O22 2.448 1_655 S
Gd0 O23 2.506 . S
Gd0 O24 2.435 1_655 S
Gd0 O25 2.717 1_655 S
Gd0 O27 2.395 . S
Gd0 O31 2.327 1_565 S
Gd1 C12 2.818 1_455 S
Gd1 O21 2.395 . S
Gd1 O25 2.327 1_545 S
Gd1 O26 2.377 1_445 S
Gd1 O28 2.448 1_455 S
Gd1 O29 2.506 . S
Gd1 O30 2.435 1_455 S
Gd1 O31 2.717 1_455 S
C2 O20 1.240 . S
C2 O21 1.240 . S
C3 Gd0 2.818 1_455 S
C3 C4 1.510 . S
C3 O22 1.249 . S
C3 O23 1.252 1_455 S
C4 C3 1.510 . S
C4 C5 1.404 . S
C4 C6 1.370 . S
C5 C4 1.404 . S
C5 C9 1.389 . S
C5 H32 0.930 . S
C6 C4 1.370 . S
C6 C8 1.367 1_565 S
C6 H33 0.916 1_465 S
C7 C8 1.344 1_565 S
C7 C9 1.364 . S
C8 C6 1.367 1_545 S
C8 C7 1.344 1_545 S
C8 H34 0.954 . S
C9 C5 1.389 . S
C9 C7 1.364 . S
C9 H35 0.931 . S
C10 O24 1.256 . S
C10 O25 1.257 . S
C11 O26 1.240 . S
C11 O27 1.240 . S
C12 Gd1 2.818 1_655 S
C12 C13 1.510 . S
C12 O28 1.249 . S
C12 O29 1.252 1_655 S
C13 C12 1.510 . S
C13 C14 1.404 . S
C13 C15 1.375 . S
C14 C13 1.404 . S
C14 C18 1.389 . S
C14 H36 0.930 . S
C15 C13 1.375 . S
C15 C17 1.367 1_545 S
C15 H37 0.912 1_645 S
C16 C17 1.349 1_545 S
C16 C18 1.364 . S
C17 C15 1.367 1_565 S
C17 C16 1.349 1_565 S
C17 H38 0.946 . S
C18 C14 1.389 . S
C18 C16 1.364 . S
C18 H39 0.931 . S
C19 O30 1.256 . S
C19 O31 1.257 . S
O20 Gd0 2.377 1_445 S
O20 C2 1.240 . S
O21 Gd1 2.395 . S
O21 C2 1.240 . S
O22 Gd0 2.448 1_455 S
O22 C3 1.249 . S
O23 Gd0 2.506 . S
O23 C3 1.252 1_655 S
O24 Gd0 2.435 1_455 S
O24 C10 1.256 . S
O25 Gd0 2.717 1_455 S
O25 Gd1 2.327 1_565 S
O25 C10 1.257 . S
O26 Gd1 2.377 1_665 S
O26 C11 1.240 . S
O27 Gd0 2.395 . S
O27 C11 1.240 . S
O28 Gd1 2.448 1_655 S
O28 C12 1.249 . S
O29 Gd1 2.506 . S
O29 C12 1.252 1_455 S
O30 Gd1 2.435 1_655 S
O30 C19 1.256 . S
O31 Gd0 2.327 1_545 S
O31 Gd1 2.717 1_655 S
O31 C19 1.257 . S
H32 C5 0.930 . S
H33 C6 0.916 1_645 S
H34 C8 0.954 . S
H35 C9 0.931 . S
H36 C14 0.930 . S
H37 C15 0.912 1_465 S
H38 C17 0.946 . S
H39 C18 0.931 . S
Gd40 C43 2.818 . S
Gd40 O60 2.377 . S
Gd40 O62 2.448 . S
Gd40 O63 2.506 . S
Gd40 O64 2.435 . S
Gd40 O65 2.717 . S
Gd40 O67 2.395 . S
Gd40 O71 2.327 . S
Gd41 C52 2.818 . S
Gd41 O61 2.395 . S
Gd41 O65 2.327 . S
Gd41 O66 2.377 . S
Gd41 O68 2.448 . S
Gd41 O69 2.506 . S
Gd41 O70 2.435 . S
Gd41 O71 2.717 . S
C42 O60 1.240 . S
C42 O61 1.240 . S
C43 Gd40 2.818 . S
C43 C44 1.510 . S
C43 O62 1.249 . S
C43 O63 1.252 . S
C44 C43 1.510 . S
C44 C45 1.404 . S
C44 C46 1.352 . S
C45 C44 1.404 . S
C45 C49 1.389 . S
C45 H72 0.930 . S
C46 C44 1.352 . S
C46 C48 1.374 . S
C46 H73 0.931 . S
C47 C48 1.359 . S
C47 C49 1.364 . S
C48 C46 1.374 . S
C48 C47 1.359 . S
C48 H74 0.931 . S
C49 C45 1.389 . S
C49 C47 1.364 . S
C49 H75 0.931 . S
C50 O64 1.256 . S
C50 O65 1.257 . S
C51 O66 1.240 . S
C51 O67 1.240 . S
C52 Gd41 2.818 . S
C52 C53 1.510 . S
C52 O68 1.249 . S
C52 O69 1.252 . S
C53 C52 1.510 . S
C53 C54 1.404 . S
C53 C55 1.352 1_556 S
C54 C53 1.404 . S
C54 C58 1.390 1_556 S
C54 H76 0.929 . S
C55 C53 1.352 1_554 S
C55 C57 1.374 . S
C55 H77 0.931 . S
C56 C57 1.359 . S
C56 C58 1.364 . S
C57 C55 1.374 . S
C57 C56 1.359 . S
C57 H78 0.931 . S
C58 C54 1.390 1_554 S
C58 C56 1.364 . S
C58 H79 0.931 . S
C59 O70 1.256 . S
C59 O71 1.257 . S
O60 Gd40 2.377 . S
O60 C42 1.240 . S
O61 Gd41 2.395 . S
O61 C42 1.240 . S
O62 Gd40 2.448 . S
O62 C43 1.249 . S
O63 Gd40 2.506 . S
O63 C43 1.252 . S
O64 Gd40 2.435 . S
O64 C50 1.256 . S
O65 Gd40 2.717 . S
O65 Gd41 2.327 . S
O65 C50 1.257 . S
O66 Gd41 2.377 . S
O66 C51 1.240 . S
O67 Gd40 2.395 . S
O67 C51 1.240 . S
O68 Gd41 2.448 . S
O68 C52 1.249 . S
O69 Gd41 2.506 . S
O69 C52 1.252 . S
O70 Gd41 2.435 . S
O70 C59 1.256 . S
O71 Gd40 2.327 . S
O71 Gd41 2.717 . S
O71 C59 1.257 . S
H72 C45 0.930 . S
H73 C46 0.931 . S
H74 C48 0.931 . S
H75 C49 0.931 . S
H76 C54 0.929 . S
H77 C55 0.931 . S
H78 C57 0.931 . S
H79 C58 0.931 . S
Gd80 C83 2.818 . S
Gd80 O100 2.377 1_565 S
Gd80 O102 2.448 . S
Gd80 O103 2.506 1_565 S
Gd80 O104 2.435 . S
Gd80 O105 2.717 1_554 S
Gd80 O107 2.395 1_554 S
Gd80 O111 2.327 1_565 S
Gd81 C92 2.818 . S
Gd81 O101 2.395 1_556 S
Gd81 O105 2.327 1_545 S
Gd81 O106 2.377 1_545 S
Gd81 O108 2.448 . S
Gd81 O109 2.506 1_545 S
Gd81 O110 2.435 . S
Gd81 O111 2.717 1_556 S
C82 O100 1.240 . S
C82 O101 1.240 . S
C83 Gd80 2.818 . S
C83 C84 1.510 . S
C83 O102 1.249 . S
C83 O103 1.252 1_565 S
C84 C83 1.510 . S
C84 C85 1.404 . S
C84 C86 1.352 1_565 S
C85 C84 1.404 . S
C85 C89 1.389 . S
C85 H112 0.930 . S
C86 C84 1.352 1_545 S
C86 C88 1.374 . S
C86 H113 0.931 . S
C87 C88 1.359 1_565 S
C87 C89 1.364 . S
C88 C86 1.374 . S
C88 C87 1.359 1_545 S
C88 H114 0.931 . S
C89 C85 1.389 . S
C89 C87 1.364 . S
C89 H115 0.931 . S
C90 O104 1.256 1_556 S
C90 O105 1.257 . S
C91 O106 1.240 . S
C91 O107 1.240 . S
C92 Gd81 2.818 . S
C92 C93 1.510 . S
C92 O108 1.249 . S
C92 O109 1.252 1_545 S
C93 C92 1.510 . S
C93 C94 1.404 . S
C93 C95 1.352 1_545 S
C94 C93 1.404 . S
C94 C98 1.389 . S
C94 H116 0.930 . S
C95 C93 1.352 1_565 S
C95 C97 1.374 . S
C95 H117 0.931 . S
C96 C97 1.359 1_545 S
C96 C98 1.364 . S
C97 C95 1.374 . S
C97 C96 1.359 1_565 S
C97 H118 0.931 . S
C98 C94 1.389 . S
C98 C96 1.364 . S
C98 H119 0.931 . S
C99 O110 1.256 1_554 S
C99 O111 1.257 . S
O100 Gd80 2.377 1_545 S
O100 C82 1.240 . S
O101 Gd81 2.395 1_554 S
O101 C82 1.240 . S
O102 Gd80 2.448 . S
O102 C83 1.249 . S
O103 Gd80 2.506 1_545 S
O103 C83 1.252 1_545 S
O104 Gd80 2.435 . S
O104 C90 1.256 1_554 S
O105 Gd80 2.717 1_556 S
O105 Gd81 2.327 1_565 S
O105 C90 1.257 . S
O106 Gd81 2.377 1_565 S
O106 C91 1.240 . S
O107 Gd80 2.395 1_556 S
O107 C91 1.240 . S
O108 Gd81 2.448 . S
O108 C92 1.249 . S
O109 Gd81 2.506 1_565 S
O109 C92 1.252 1_565 S
O110 Gd81 2.435 . S
O110 C99 1.256 1_556 S
O111 Gd80 2.327 1_545 S
O111 Gd81 2.717 1_554 S
O111 C99 1.257 . S
H112 C85 0.930 . S
H113 C86 0.931 . S
H114 C88 0.931 . S
H115 C89 0.931 . S
H116 C94 0.930 . S
H117 C95 0.931 . S
H118 C97 0.931 . S
H119 C98 0.931 . S
Gd120 C123 2.818 . S
Gd120 O140 2.377 . S
Gd120 O142 2.448 . S
Gd120 O143 2.506 . S
Gd120 O144 2.435 . S
Gd120 O145 2.717 . S
Gd120 O147 2.395 . S
Gd120 O151 2.327 . S
Gd121 C132 2.818 . S
Gd121 O141 2.395 . S
Gd121 O145 2.327 . S
Gd121 O146 2.377 . S
Gd121 O148 2.448 . S
Gd121 O149 2.506 . S
Gd121 O150 2.435 . S
Gd121 O151 2.717 . S
C122 O140 1.240 . S
C122 O141 1.240 . S
C123 Gd120 2.818 . S
C123 C124 1.510 . S
C123 O142 1.249 . S
C123 O143 1.252 . S
C124 C123 1.510 . S
C124 C125 1.404 . S
C124 C126 1.352 . S
C125 C124 1.404 . S
C125 C129 1.389 . S
C125 H152 0.930 . S
C126 C124 1.352 . S
C126 C128 1.374 . S
C126 H153 0.931 . S
C127 C128 1.359 . S
C127 C129 1.364 . S
C128 C126 1.374 . S
C128 C127 1.359 . S
C128 H154 0.931 . S
C129 C125 1.389 . S
C129 C127 1.364 . S
C129 H155 0.931 . S
C130 O144 1.256 . S
C130 O145 1.257 . S
C131 O146 1.240 . S
C131 O147 1.240 . S
C132 Gd121 2.818 . S
C132 C133 1.510 . S
C132 O148 1.249 . S
C132 O149 1.252 . S
C133 C132 1.510 . S
C133 C134 1.404 1_554 S
C133 C135 1.352 1_554 S
C134 C133 1.404 1_556 S
C134 C138 1.389 . S
C134 H156 0.930 1_556 S
C135 C133 1.352 1_556 S
C135 C137 1.374 . S
C135 H157 0.931 1_556 S
C136 C137 1.359 . S
C136 C138 1.364 . S
C137 C135 1.374 . S
C137 C136 1.359 . S
C137 H158 0.931 . S
C138 C134 1.389 . S
C138 C136 1.364 . S
C138 H159 0.931 . S
C139 O150 1.256 . S
C139 O151 1.257 . S
O140 Gd120 2.377 . S
O140 C122 1.240 . S
O141 Gd121 2.395 . S
O141 C122 1.240 . S
O142 Gd120 2.448 . S
O142 C123 1.249 . S
O143 Gd120 2.506 . S
O143 C123 1.252 . S
O144 Gd120 2.435 . S
O144 C130 1.256 . S
O145 Gd120 2.717 . S
O145 Gd121 2.327 . S
O145 C130 1.257 . S
O146 Gd121 2.377 . S
O146 C131 1.240 . S
O147 Gd120 2.395 . S
O147 C131 1.240 . S
O148 Gd121 2.448 . S
O148 C132 1.249 . S
O149 Gd121 2.506 . S
O149 C132 1.252 . S
O150 Gd121 2.435 . S
O150 C139 1.256 . S
O151 Gd120 2.327 . S
O151 Gd121 2.717 . S
O151 C139 1.257 . S
H152 C125 0.930 . S
H153 C126 0.931 . S
H154 C128 0.931 . S
H155 C129 0.931 . S
H156 C134 0.930 1_554 S
H157 C135 0.931 1_554 S
H158 C137 0.931 . S
H159 C138 0.931 . S
Gd160 C163 2.818 . S
Gd160 O180 2.377 . S
Gd160 O182 2.448 . S
Gd160 O183 2.506 . S
Gd160 O184 2.435 . S
Gd160 O185 2.717 . S
Gd160 O187 2.395 . S
Gd160 O191 2.327 . S
Gd161 C172 2.818 . S
Gd161 O181 2.395 . S
Gd161 O185 2.327 . S
Gd161 O186 2.377 . S
Gd161 O188 2.448 . S
Gd161 O189 2.506 . S
Gd161 O190 2.435 . S
Gd161 O191 2.717 . S
C162 O180 1.240 . S
C162 O181 1.240 . S
C163 Gd160 2.818 . S
C163 C164 1.510 . S
C163 O182 1.249 . S
C163 O183 1.252 . S
C164 C163 1.510 . S
C164 C165 1.405 . S
C164 C166 1.352 1_554 S
C165 C164 1.405 . S
C165 C169 1.389 1_554 S
C165 H192 0.930 . S
C166 C164 1.352 1_556 S
C166 C168 1.374 . S
C166 H193 0.931 . S
C167 C168 1.359 . S
C167 C169 1.364 . S
C168 C166 1.374 . S
C168 C167 1.359 . S
C168 H194 0.931 . S
C169 C165 1.389 1_556 S
C169 C167 1.364 . S
C169 H195 0.931 . S
C170 O184 1.256 . S
C170 O185 1.257 . S
C171 O186 1.240 . S
C171 O187 1.240 . S
C172 Gd161 2.818 . S
C172 C173 1.510 . S
C172 O188 1.249 . S
C172 O189 1.252 . S
C173 C172 1.510 . S
C173 C174 1.404 . S
C173 C175 1.352 . S
C174 C173 1.404 . S
C174 C178 1.389 . S
C174 H196 0.930 . S
C175 C173 1.352 . S
C175 C177 1.374 . S
C175 H197 0.931 . S
C176 C177 1.359 . S
C176 C178 1.364 . S
C177 C175 1.374 . S
C177 C176 1.359 . S
C177 H198 0.931 . S
C178 C174 1.389 . S
C178 C176 1.364 . S
C178 H199 0.931 . S
C179 O190 1.256 . S
C179 O191 1.257 . S
O180 Gd160 2.377 . S
O180 C162 1.240 . S
O181 Gd161 2.395 . S
O181 C162 1.240 . S
O182 Gd160 2.448 . S
O182 C163 1.249 . S
O183 Gd160 2.506 . S
O183 C163 1.252 . S
O184 Gd160 2.435 . S
O184 C170 1.256 . S
O185 Gd160 2.717 . S
O185 Gd161 2.327 . S
O185 C170 1.257 . S
O186 Gd161 2.377 . S
O186 C171 1.240 . S
O187 Gd160 2.395 . S
O187 C171 1.240 . S
O188 Gd161 2.448 . S
O188 C172 1.249 . S
O189 Gd161 2.506 . S
O189 C172 1.252 . S
O190 Gd161 2.435 . S
O190 C179 1.256 . S
O191 Gd160 2.327 . S
O191 Gd161 2.717 . S
O191 C179 1.257 . S
H192 C165 0.930 . S
H193 C166 0.931 . S
H194 C168 0.931 . S
H195 C169 0.931 . S
H196 C174 0.930 . S
H197 C175 0.931 . S
H198 C177 0.931 . S
H199 C178 0.931 . S
Gd200 C203 2.818 . S
Gd200 O220 2.377 . S
Gd200 O222 2.448 . S
Gd200 O223 2.506 . S
Gd200 O224 2.435 . S
Gd200 O225 2.717 . S
Gd200 O227 2.395 . S
Gd200 O231 2.327 . S
Gd201 C212 2.818 . S
Gd201 O221 2.395 . S
Gd201 O225 2.327 . S
Gd201 O226 2.377 . S
Gd201 O228 2.448 . S
Gd201 O229 2.506 . S
Gd201 O230 2.435 . S
Gd201 O231 2.717 . S
C202 O220 1.240 . S
C202 O221 1.240 . S
C203 Gd200 2.818 . S
C203 C204 1.510 . S
C203 O222 1.249 . S
C203 O223 1.252 . S
C204 C203 1.510 . S
C204 C205 1.404 1_556 S
C204 C206 1.352 1_556 S
C205 C204 1.404 1_554 S
C205 C209 1.389 . S
C205 H232 0.930 1_554 S
C206 C204 1.352 1_554 S
C206 C208 1.374 . S
C206 H233 0.931 1_554 S
C207 C208 1.359 . S
C207 C209 1.364 . S
C208 C206 1.374 . S
C208 C207 1.359 . S
C208 H234 0.931 . S
C209 C205 1.389 . S
C209 C207 1.364 . S
C209 H235 0.931 . S
C210 O224 1.256 . S
C210 O225 1.257 . S
C211 O226 1.240 . S
C211 O227 1.240 . S
C212 Gd201 2.818 . S
C212 C213 1.510 . S
C212 O228 1.249 . S
C212 O229 1.252 . S
C213 C212 1.510 . S
C213 C214 1.404 . S
C213 C215 1.352 . S
C214 C213 1.404 . S
C214 C218 1.389 . S
C214 H236 0.930 . S
C215 C213 1.352 . S
C215 C217 1.374 . S
C215 H237 0.931 . S
C216 C217 1.359 . S
C216 C218 1.364 . S
C217 C215 1.374 . S
C217 C216 1.359 . S
C217 H238 0.931 . S
C218 C214 1.389 . S
C218 C216 1.364 . S
C218 H239 0.931 . S
C219 O230 1.256 . S
C219 O231 1.257 . S
O220 Gd200 2.377 . S
O220 C202 1.240 . S
O221 Gd201 2.395 . S
O221 C202 1.240 . S
O222 Gd200 2.448 . S
O222 C203 1.249 . S
O223 Gd200 2.506 . S
O223 C203 1.252 . S
O224 Gd200 2.435 . S
O224 C210 1.256 . S
O225 Gd200 2.717 . S
O225 Gd201 2.327 . S
O225 C210 1.257 . S
O226 Gd201 2.377 . S
O226 C211 1.240 . S
O227 Gd200 2.395 . S
O227 C211 1.240 . S
O228 Gd201 2.448 . S
O228 C212 1.249 . S
O229 Gd201 2.506 . S
O229 C212 1.252 . S
O230 Gd201 2.435 . S
O230 C219 1.256 . S
O231 Gd200 2.327 . S
O231 Gd201 2.717 . S
O231 C219 1.257 . S
H232 C205 0.930 1_556 S
H233 C206 0.931 1_556 S
H234 C208 0.931 . S
H235 C209 0.931 . S
H236 C214 0.930 . S
H237 C215 0.931 . S
H238 C217 0.931 . S
H239 C218 0.931 . S
Gd240 C243 2.818 . S
Gd240 O260 2.377 . S
Gd240 O262 2.448 . S
Gd240 O263 2.506 . S
Gd240 O264 2.435 . S
Gd240 O265 2.717 1_556 S
Gd240 O267 2.395 . S
Gd240 O271 2.327 . S
Gd241 C252 2.818 . S
Gd241 O261 2.395 . S
Gd241 O265 2.327 . S
Gd241 O266 2.377 . S
Gd241 O268 2.448 . S
Gd241 O269 2.506 . S
Gd241 O270 2.435 . S
Gd241 O271 2.717 1_554 S
C242 O260 1.240 . S
C242 O261 1.240 1_556 S
C243 Gd240 2.818 . S
C243 C244 1.510 . S
C243 O262 1.249 . S
C243 O263 1.252 . S
C244 C243 1.510 . S
C244 C245 1.404 . S
C244 C246 1.352 . S
C245 C244 1.404 . S
C245 C249 1.389 . S
C245 H272 0.930 . S
C246 C244 1.352 . S
C246 C248 1.374 . S
C246 H273 0.931 . S
C247 C248 1.359 . S
C247 C249 1.364 . S
C248 C246 1.374 . S
C248 C247 1.359 . S
C248 H274 0.931 . S
C249 C245 1.389 . S
C249 C247 1.364 . S
C249 H275 0.931 . S
C250 O264 1.256 1_554 S
C250 O265 1.257 . S
C251 O266 1.240 . S
C251 O267 1.240 1_554 S
C252 Gd241 2.818 . S
C252 C253 1.510 . S
C252 O268 1.249 . S
C252 O269 1.252 . S
C253 C252 1.510 . S
C253 C254 1.404 . S
C253 C255 1.352 . S
C254 C253 1.404 . S
C254 C258 1.389 . S
C254 H276 0.930 . S
C255 C253 1.352 . S
C255 C257 1.374 . S
C255 H277 0.931 . S
C256 C257 1.359 . S
C256 C258 1.364 . S
C257 C255 1.374 . S
C257 C256 1.359 . S
C257 H278 0.931 . S
C258 C254 1.389 . S
C258 C256 1.364 . S
C258 H279 0.931 . S
C259 O270 1.256 1_556 S
C259 O271 1.257 . S
O260 Gd240 2.377 . S
O260 C242 1.240 . S
O261 Gd241 2.395 . S
O261 C242 1.240 1_554 S
O262 Gd240 2.448 . S
O262 C243 1.249 . S
O263 Gd240 2.506 . S
O263 C243 1.252 . S
O264 Gd240 2.435 . S
O264 C250 1.256 1_556 S
O265 Gd240 2.717 1_554 S
O265 Gd241 2.327 . S
O265 C250 1.257 . S
O266 Gd241 2.377 . S
O266 C251 1.240 . S
O267 Gd240 2.395 . S
O267 C251 1.240 1_556 S
O268 Gd241 2.448 . S
O268 C252 1.249 . S
O269 Gd241 2.506 . S
O269 C252 1.252 . S
O270 Gd241 2.435 . S
O270 C259 1.256 1_554 S
O271 Gd240 2.327 . S
O271 Gd241 2.717 1_556 S
O271 C259 1.257 . S
H272 C245 0.930 . S
H273 C246 0.931 . S
H274 C248 0.931 . S
H275 C249 0.931 . S
H276 C254 0.930 . S
H277 C255 0.931 . S
H278 C257 0.931 . S
H279 C258 0.931 . S
Gd280 C283 2.818 1_455 S
Gd280 O300 2.377 1_455 S
Gd280 O302 2.448 1_455 S
Gd280 O303 2.506 . S
Gd280 O304 2.435 1_455 S
Gd280 O305 2.717 1_455 S
Gd280 O307 2.395 . S
Gd280 O311 2.327 . S
Gd281 C292 2.818 1_655 S
Gd281 O301 2.395 . S
Gd281 O305 2.327 . S
Gd281 O306 2.377 1_655 S
Gd281 O308 2.448 1_655 S
Gd281 O309 2.506 . S
Gd281 O310 2.435 1_655 S
Gd281 O311 2.717 1_655 S
C282 O300 1.240 . S
C282 O301 1.240 . S
C283 Gd280 2.818 1_655 S
C283 C284 1.510 . S
C283 O302 1.249 . S
C283 O303 1.252 1_655 S
C284 C283 1.510 . S
C284 C285 1.404 . S
C284 C286 1.356 . S
C285 C284 1.404 . S
C285 C289 1.389 . S
C285 H312 0.930 . S
C286 C284 1.356 . S
C286 C288 1.381 . S
C286 H313 0.920 1_655 S
C287 C288 1.359 . S
C287 C289 1.364 . S
C288 C286 1.381 . S
C288 C287 1.359 . S
C288 H314 0.930 1_655 S
C289 C285 1.389 . S
C289 C287 1.364 . S
C289 H315 0.931 . S
C290 O304 1.256 . S
C290 O305 1.257 . S
C291 O306 1.240 . S
C291 O307 1.240 . S
C292 Gd281 2.818 1_455 S
C292 C293 1.510 . S
C292 O308 1.249 . S
C292 O309 1.252 1_455 S
C293 C292 1.510 . S
C293 C294 1.404 . S
C293 C295 1.357 . S
C294 C293 1.404 . S
C294 C298 1.389 . S
C294 H316 0.930 . S
C295 C293 1.357 . S
C295 C297 1.383 . S
C295 H317 0.916 1_455 S
C296 C297 1.359 . S
C296 C298 1.364 . S
C297 C295 1.383 . S
C297 C296 1.359 . S
C297 H318 0.931 1_455 S
C298 C294 1.389 . S
C298 C296 1.364 . S
C298 H319 0.931 . S
C299 O310 1.256 . S
C299 O311 1.257 . S
O300 Gd280 2.377 1_655 S
O300 C282 1.240 . S
O301 Gd281 2.395 . S
O301 C282 1.240 . S
O302 Gd280 2.448 1_655 S
O302 C283 1.249 . S
O303 Gd280 2.506 . S
O303 C283 1.252 1_455 S
O304 Gd280 2.435 1_655 S
O304 C290 1.256 . S
O305 Gd280 2.717 1_655 S
O305 Gd281 2.327 . S
O305 C290 1.257 . S
O306 Gd281 2.377 1_455 S
O306 C291 1.240 . S
O307 Gd280 2.395 . S
O307 C291 1.240 . S
O308 Gd281 2.448 1_455 S
O308 C292 1.249 . S
O309 Gd281 2.506 . S
O309 C292 1.252 1_655 S
O310 Gd281 2.435 1_455 S
O310 C299 1.256 . S
O311 Gd280 2.327 . S
O311 Gd281 2.717 1_455 S
O311 C299 1.257 . S
H312 C285 0.930 . S
H313 C286 0.920 1_455 S
H314 C288 0.930 1_455 S
H315 C289 0.931 . S
H316 C294 0.930 . S
H317 C295 0.916 1_655 S
H318 C297 0.931 1_655 S
H319 C298 0.931 . S
H320 C326 0.930 . S
H321 C329 0.930 . S
H322 C330 0.930 . S
H323 C331 0.930 . S
H324 C334 0.930 . S
H325 C335 0.930 . S
C326 H320 0.930 . S
C326 C327 1.355 . S
C326 C328 1.415 . S
C327 C326 1.355 . S
C327 C329 1.419 . S
C328 C326 1.415 . S
C328 C333 1.425 . S
C328 C335 1.409 . S
C329 H321 0.930 . S
C329 C327 1.419 . S
C329 C330 1.362 . S
C330 H322 0.930 . S
C330 C329 1.362 . S
C330 C333 1.409 . S
C331 H323 0.930 . S
C331 C332 1.355 . S
C331 C333 1.415 . S
C332 C331 1.355 . S
C332 C334 1.419 . S
C333 C328 1.425 . S
C333 C330 1.409 . S
C333 C331 1.415 . S
C334 H324 0.930 . S
C334 C332 1.419 . S
C334 C335 1.362 . S
C335 H325 0.930 . S
C335 C328 1.409 . S
C335 C334 1.362 . S
H336 C342 0.930 . S
H337 C345 0.930 . S
H338 C346 0.930 . S
H339 C347 0.930 . S
H340 C350 0.930 . S
H341 C351 0.930 . S
C342 H336 0.930 . S
C342 C343 1.355 . S
C342 C344 1.415 . S
C343 C342 1.355 . S
C343 C345 1.419 . S
C344 C342 1.415 . S
C344 C349 1.425 . S
C344 C351 1.409 . S
C345 H337 0.930 . S
C345 C343 1.419 . S
C345 C346 1.362 . S
C346 H338 0.930 . S
C346 C345 1.362 . S
C346 C349 1.409 . S
C347 H339 0.930 . S
C347 C348 1.355 . S
C347 C349 1.415 . S
C348 C347 1.355 . S
C348 C350 1.419 . S
C349 C344 1.425 . S
C349 C346 1.409 . S
C349 C347 1.415 . S
C350 H340 0.930 . S
C350 C348 1.419 . S
C350 C351 1.362 . S
C351 H341 0.930 . S
C351 C344 1.409 . S
C351 C350 1.362 . S
H352 C358 0.930 . S
H353 C361 0.930 . S
H354 C362 0.930 . S
H355 C363 0.930 . S
H356 C366 0.930 . S
H357 C367 0.930 . S
C358 H352 0.930 . S
C358 C359 1.355 . S
C358 C360 1.415 . S
C359 C358 1.355 . S
C359 C361 1.419 . S
C360 C358 1.415 . S
C360 C365 1.425 . S
C360 C367 1.409 . S
C361 H353 0.930 . S
C361 C359 1.419 . S
C361 C362 1.362 . S
C362 H354 0.930 . S
C362 C361 1.362 . S
C362 C365 1.409 . S
C363 H355 0.930 . S
C363 C364 1.355 . S
C363 C365 1.415 . S
C364 C363 1.355 . S
C364 C366 1.419 . S
C365 C360 1.425 . S
C365 C362 1.409 . S
C365 C363 1.415 . S
C366 H356 0.930 . S
C366 C364 1.419 . S
C366 C367 1.362 . S
C367 H357 0.930 . S
C367 C360 1.409 . S
C367 C366 1.362 . S
H368 C374 0.930 . S
H369 C377 0.930 . S
H370 C378 0.930 . S
H371 C379 0.930 . S
H372 C382 0.930 . S
H373 C383 0.930 . S
C374 H368 0.930 . S
C374 C375 1.355 . S
C374 C376 1.415 . S
C375 C374 1.355 . S
C375 C377 1.419 . S
C376 C374 1.415 . S
C376 C381 1.425 . S
C376 C383 1.409 . S
C377 H369 0.930 . S
C377 C375 1.419 . S
C377 C378 1.362 . S
C378 H370 0.930 . S
C378 C377 1.362 . S
C378 C381 1.409 . S
C379 H371 0.930 . S
C379 C380 1.355 . S
C379 C381 1.415 . S
C380 C379 1.355 . S
C380 C382 1.419 . S
C381 C376 1.425 . S
C381 C378 1.409 . S
C381 C379 1.415 . S
C382 H372 0.930 . S
C382 C380 1.419 . S
C382 C383 1.362 . S
C383 H373 0.930 . S
C383 C376 1.409 . S
C383 C382 1.362 . S
H384 C390 0.930 . S
H385 C393 0.930 . S
H386 C394 0.930 . S
H387 C395 0.930 . S
H388 C398 0.930 . S
H389 C399 0.930 . S
C390 H384 0.930 . S
C390 C391 1.355 . S
C390 C392 1.415 . S
C391 C390 1.355 . S
C391 C393 1.419 . S
C392 C390 1.415 . S
C392 C397 1.425 . S
C392 C399 1.409 . S
C393 H385 0.930 . S
C393 C391 1.419 . S
C393 C394 1.362 . S
C394 H386 0.930 . S
C394 C393 1.362 . S
C394 C397 1.409 . S
C395 H387 0.930 . S
C395 C396 1.355 . S
C395 C397 1.415 . S
C396 C395 1.355 . S
C396 C398 1.419 . S
C397 C392 1.425 . S
C397 C394 1.409 . S
C397 C395 1.415 . S
C398 H388 0.930 . S
C398 C396 1.419 . S
C398 C399 1.362 . S
C399 H389 0.930 . S
C399 C392 1.409 . S
C399 C398 1.362 . S
H400 C406 0.930 . S
H401 C409 0.930 . S
H402 C410 0.930 . S
H403 C411 0.930 . S
H404 C414 0.930 . S
H405 C415 0.930 . S
C406 H400 0.930 . S
C406 C407 1.355 . S
C406 C408 1.415 . S
C407 C406 1.355 . S
C407 C409 1.419 . S
C408 C406 1.415 . S
C408 C413 1.425 . S
C408 C415 1.409 . S
C409 H401 0.930 . S
C409 C407 1.419 . S
C409 C410 1.362 . S
C410 H402 0.930 . S
C410 C409 1.362 . S
C410 C413 1.409 . S
C411 H403 0.930 . S
C411 C412 1.355 . S
C411 C413 1.415 . S
C412 C411 1.355 . S
C412 C414 1.419 . S
C413 C408 1.425 . S
C413 C410 1.409 . S
C413 C411 1.415 . S
C414 H404 0.930 . S
C414 C412 1.419 . S
C414 C415 1.362 . S
C415 H405 0.930 . S
C415 C408 1.409 . S
C415 C414 1.362 . S
H416 C422 0.930 . S
H417 C425 0.930 . S
H418 C426 0.930 . S
H419 C427 0.930 . S
H420 C430 0.930 1_556 S
H421 C431 0.930 . S
C422 H416 0.930 . S
C422 C423 1.355 . S
C422 C424 1.415 . S
C423 C422 1.355 . S
C423 C425 1.419 . S
C424 C422 1.415 . S
C424 C429 1.425 . S
C424 C431 1.409 . S
C425 H417 0.930 . S
C425 C423 1.419 . S
C425 C426 1.362 . S
C426 H418 0.930 . S
C426 C425 1.362 . S
C426 C429 1.409 . S
C427 H419 0.930 . S
C427 C428 1.355 . S
C427 C429 1.415 . S
C428 C427 1.355 . S
C428 C430 1.419 . S
C429 C424 1.425 . S
C429 C426 1.409 . S
C429 C427 1.415 . S
C430 H420 0.930 1_554 S
C430 C428 1.419 . S
C430 C431 1.362 . S
C431 H421 0.930 . S
C431 C424 1.409 . S
C431 C430 1.362 . S
H432 C438 0.930 . S
H433 C441 0.930 . S
H434 C442 0.930 . S
H435 C443 0.930 . S
H436 C446 0.930 . S
H437 C447 0.930 . S
C438 H432 0.930 . S
C438 C439 1.355 . S
C438 C440 1.415 . S
C439 C438 1.355 . S
C439 C441 1.419 . S
C440 C438 1.415 . S
C440 C445 1.425 . S
C440 C447 1.409 . S
C441 H433 0.930 . S
C441 C439 1.419 . S
C441 C442 1.362 . S
C442 H434 0.930 . S
C442 C441 1.362 . S
C442 C445 1.409 . S
C443 H435 0.930 . S
C443 C444 1.355 . S
C443 C445 1.415 . S
C444 C443 1.355 . S
C444 C446 1.419 . S
C445 C440 1.425 . S
C445 C442 1.409 . S
C445 C443 1.415 . S
C446 H436 0.930 . S
C446 C444 1.419 . S
C446 C447 1.362 . S
C447 H437 0.930 . S
C447 C440 1.409 . S
C447 C446 1.362 . S
H448 C454 0.930 . S
H449 C457 0.930 . S
H450 C458 0.930 . S
H451 C459 0.930 . S
H452 C462 0.930 . S
H453 C463 0.930 . S
C454 H448 0.930 . S
C454 C455 1.355 . S
C454 C456 1.415 . S
C455 C454 1.355 . S
C455 C457 1.419 . S
C456 C454 1.415 . S
C456 C461 1.425 . S
C456 C463 1.409 . S
C457 H449 0.930 . S
C457 C455 1.419 . S
C457 C458 1.362 . S
C458 H450 0.930 . S
C458 C457 1.362 . S
C458 C461 1.409 . S
C459 H451 0.930 . S
C459 C460 1.355 . S
C459 C461 1.415 . S
C460 C459 1.355 . S
C460 C462 1.419 . S
C461 C456 1.425 . S
C461 C458 1.409 . S
C461 C459 1.415 . S
C462 H452 0.930 . S
C462 C460 1.419 . S
C462 C463 1.362 . S
C463 H453 0.930 . S
C463 C456 1.409 . S
C463 C462 1.362 . S
H464 C470 0.930 . S
H465 C473 0.930 . S
H466 C474 0.930 . S
H467 C475 0.930 . S
H468 C478 0.930 . S
H469 C479 0.930 . S
C470 H464 0.930 . S
C470 C471 1.355 . S
C470 C472 1.415 . S
C471 C470 1.355 . S
C471 C473 1.419 . S
C472 C470 1.415 . S
C472 C477 1.425 . S
C472 C479 1.409 . S
C473 H465 0.930 . S
C473 C471 1.419 . S
C473 C474 1.362 . S
C474 H466 0.930 . S
C474 C473 1.362 . S
C474 C477 1.409 . S
C475 H467 0.930 . S
C475 C476 1.355 . S
C475 C477 1.415 . S
C476 C475 1.355 . S
C476 C478 1.419 . S
C477 C472 1.425 . S
C477 C474 1.409 . S
C477 C475 1.415 . S
C478 H468 0.930 . S
C478 C476 1.419 . S
C478 C479 1.362 . S
C479 H469 0.930 . S
C479 C472 1.409 . S
C479 C478 1.362 . S
H480 C486 0.930 . S
H481 C489 0.930 . S
H482 C490 0.930 . S
H483 C491 0.930 . S
H484 C494 0.930 . S
H485 C495 0.930 . S
C486 H480 0.930 . S
C486 C487 1.355 . S
C486 C488 1.415 . S
C487 C486 1.355 . S
C487 C489 1.419 . S
C488 C486 1.415 . S
C488 C493 1.425 . S
C488 C495 1.409 . S
C489 H481 0.930 . S
C489 C487 1.419 . S
C489 C490 1.362 . S
C490 H482 0.930 . S
C490 C489 1.362 . S
C490 C493 1.409 . S
C491 H483 0.930 . S
C491 C492 1.355 . S
C491 C493 1.415 . S
C492 C491 1.355 . S
C492 C494 1.419 . S
C493 C488 1.425 . S
C493 C490 1.409 . S
C493 C491 1.415 . S
C494 H484 0.930 . S
C494 C492 1.419 . S
C494 C495 1.362 . S
C495 H485 0.930 . S
C495 C488 1.409 . S
C495 C494 1.362 . S
H496 C502 0.930 . S
H497 C505 0.930 . S
H498 C506 0.930 . S
H499 C507 0.930 . S
H500 C510 0.930 . S
H501 C511 0.930 . S
C502 H496 0.930 . S
C502 C503 1.355 . S
C502 C504 1.415 . S
C503 C502 1.355 . S
C503 C505 1.419 . S
C504 C502 1.415 . S
C504 C509 1.425 . S
C504 C511 1.409 . S
C505 H497 0.930 . S
C505 C503 1.419 . S
C505 C506 1.362 . S
C506 H498 0.930 . S
C506 C505 1.362 . S
C506 C509 1.409 . S
C507 H499 0.930 . S
C507 C508 1.355 . S
C507 C509 1.415 . S
C508 C507 1.355 . S
C508 C510 1.419 . S
C509 C504 1.425 . S
C509 C506 1.409 . S
C509 C507 1.415 . S
C510 H500 0.930 . S
C510 C508 1.419 . S
C510 C511 1.362 . S
C511 H501 0.930 . S
C511 C504 1.409 . S
C511 C510 1.362 . S
H512 C518 0.930 . S
H513 C521 0.930 . S
H514 C522 0.930 . S
H515 C523 0.930 . S
H516 C526 0.930 . S
H517 C527 0.930 . S
C518 H512 0.930 . S
C518 C519 1.355 . S
C518 C520 1.415 . S
C519 C518 1.355 . S
C519 C521 1.419 . S
C520 C518 1.415 . S
C520 C525 1.425 . S
C520 C527 1.409 . S
C521 H513 0.930 . S
C521 C519 1.419 . S
C521 C522 1.362 . S
C522 H514 0.930 . S
C522 C521 1.362 . S
C522 C525 1.409 . S
C523 H515 0.930 . S
C523 C524 1.355 . S
C523 C525 1.415 . S
C524 C523 1.355 . S
C524 C526 1.419 . S
C525 C520 1.425 . S
C525 C522 1.409 . S
C525 C523 1.415 . S
C526 H516 0.930 . S
C526 C524 1.419 . S
C526 C527 1.362 . S
C527 H517 0.930 . S
C527 C520 1.409 . S
C527 C526 1.362 . S
H528 C534 0.930 . S
H529 C537 0.930 . S
H530 C538 0.930 . S
H531 C539 0.930 . S
H532 C542 0.930 . S
H533 C543 0.930 . S
C534 H528 0.930 . S
C534 C535 1.355 . S
C534 C536 1.415 . S
C535 C534 1.355 . S
C535 C537 1.419 . S
C536 C534 1.415 . S
C536 C541 1.425 . S
C536 C543 1.409 . S
C537 H529 0.930 . S
C537 C535 1.419 . S
C537 C538 1.362 . S
C538 H530 0.930 . S
C538 C537 1.362 . S
C538 C541 1.409 . S
C539 H531 0.930 . S
C539 C540 1.355 . S
C539 C541 1.415 . S
C540 C539 1.355 . S
C540 C542 1.419 . S
C541 C536 1.425 . S
C541 C538 1.409 . S
C541 C539 1.415 . S
C542 H532 0.930 . S
C542 C540 1.419 . S
C542 C543 1.362 . S
C543 H533 0.930 . S
C543 C536 1.409 . S
C543 C542 1.362 . S
H544 C550 0.930 . S
H545 C553 0.930 . S
H546 C554 0.930 . S
H547 C555 0.930 . S
H548 C558 0.930 . S
H549 C559 0.930 . S
C550 H544 0.930 . S
C550 C551 1.355 . S
C550 C552 1.415 . S
C551 C550 1.355 . S
C551 C553 1.419 . S
C552 C550 1.415 . S
C552 C557 1.425 . S
C552 C559 1.409 . S
C553 H545 0.930 . S
C553 C551 1.419 . S
C553 C554 1.362 . S
C554 H546 0.930 . S
C554 C553 1.362 . S
C554 C557 1.409 . S
C555 H547 0.930 . S
C555 C556 1.355 . S
C555 C557 1.415 . S
C556 C555 1.355 . S
C556 C558 1.419 . S
C557 C552 1.425 . S
C557 C554 1.409 . S
C557 C555 1.415 . S
C558 H548 0.930 . S
C558 C556 1.419 . S
C558 C559 1.362 . S
C559 H549 0.930 . S
C559 C552 1.409 . S
C559 C558 1.362 . S
H560 C566 0.930 . S
H561 C569 0.930 . S
H562 C570 0.930 . S
H563 C571 0.930 . S
H564 C574 0.930 . S
H565 C575 0.930 . S
C566 H560 0.930 . S
C566 C567 1.355 . S
C566 C568 1.415 . S
C567 C566 1.355 . S
C567 C569 1.419 . S
C568 C566 1.415 . S
C568 C573 1.425 . S
C568 C575 1.409 . S
C569 H561 0.930 . S
C569 C567 1.419 . S
C569 C570 1.362 . S
C570 H562 0.930 . S
C570 C569 1.362 . S
C570 C573 1.409 . S
C571 H563 0.930 . S
C571 C572 1.355 . S
C571 C573 1.415 . S
C572 C571 1.355 . S
C572 C574 1.419 . S
C573 C568 1.425 . S
C573 C570 1.409 . S
C573 C571 1.415 . S
C574 H564 0.930 . S
C574 C572 1.419 . S
C574 C575 1.362 . S
C575 H565 0.930 . S
C575 C568 1.409 . S
C575 C574 1.362 . S
H576 C582 0.930 . S
H577 C585 0.930 . S
H578 C586 0.930 . S
H579 C587 0.930 . S
H580 C590 0.930 . S
H581 C591 0.930 . S
C582 H576 0.930 . S
C582 C583 1.355 . S
C582 C584 1.426 . S
C583 C582 1.355 . S
C583 C585 1.419 1_655 S
C584 C582 1.426 . S
C584 C589 1.428 1_646 S
C584 C591 1.397 1_556 S
C585 H577 0.930 . S
C585 C583 1.419 1_455 S
C585 C586 1.362 1_545 S
C586 H578 0.930 . S
C586 C585 1.362 1_565 S
C586 C589 1.396 1_556 S
C587 H579 0.930 . S
C587 C588 1.355 . S
C587 C589 1.427 . S
C588 C587 1.355 . S
C588 C590 1.419 1_455 S
C589 C584 1.428 1_464 S
C589 C586 1.396 1_554 S
C589 C587 1.427 . S
C590 H580 0.930 . S
C590 C588 1.419 1_655 S
C590 C591 1.362 1_565 S
C591 H581 0.930 . S
C591 C584 1.397 1_554 S
C591 C590 1.362 1_545 S
H592 C598 0.930 . S
H593 C601 0.930 . S
H594 C602 0.930 . S
H595 C603 0.930 . S
H596 C606 0.930 . S
H597 C607 0.930 . S
C598 H592 0.930 . S
C598 C599 1.355 . S
C598 C600 1.415 . S
C599 C598 1.355 . S
C599 C601 1.419 . S
C600 C598 1.415 . S
C600 C605 1.425 . S
C600 C607 1.409 . S
C601 H593 0.930 . S
C601 C599 1.419 . S
C601 C602 1.362 . S
C602 H594 0.930 . S
C602 C601 1.362 . S
C602 C605 1.409 . S
C603 H595 0.930 . S
C603 C604 1.355 . S
C603 C605 1.415 . S
C604 C603 1.355 . S
C604 C606 1.419 . S
C605 C600 1.425 . S
C605 C602 1.409 . S
C605 C603 1.415 . S
C606 H596 0.930 . S
C606 C604 1.419 . S
C606 C607 1.362 . S
C607 H597 0.930 . S
C607 C600 1.409 . S
C607 C606 1.362 . S
H608 C614 0.930 . S
H609 C617 0.930 . S
H610 C618 0.930 . S
H611 C619 0.930 . S
H612 C622 0.930 . S
H613 C623 0.930 . S
C614 H608 0.930 . S
C614 C615 1.354 1_545 S
C614 C616 1.415 . S
C615 C614 1.354 1_565 S
C615 C617 1.420 . S
C616 C614 1.415 . S
C616 C621 1.425 1_545 S
C616 C623 1.409 . S
C617 H609 0.930 . S
C617 C615 1.420 . S
C617 C618 1.362 . S
C618 H610 0.930 . S
C618 C617 1.362 . S
C618 C621 1.409 . S
C619 H611 0.930 . S
C619 C620 1.349 1_565 S
C619 C621 1.415 . S
C620 C619 1.349 1_545 S
C620 C622 1.424 . S
C621 C616 1.425 1_565 S
C621 C618 1.409 . S
C621 C619 1.415 . S
C622 H612 0.930 . S
C622 C620 1.424 . S
C622 C623 1.362 . S
C623 H613 0.930 . S
C623 C616 1.409 . S
C623 C622 1.362 . S
H624 C630 0.930 . S
H625 C633 0.930 . S
H626 C634 0.930 . S
H627 C635 0.930 . S
H628 C638 0.930 . S
H629 C639 0.930 . S
C630 H624 0.930 . S
C630 C631 1.355 . S
C630 C632 1.415 . S
C631 C630 1.355 . S
C631 C633 1.419 . S
C632 C630 1.415 . S
C632 C637 1.425 . S
C632 C639 1.409 . S
C633 H625 0.930 . S
C633 C631 1.419 . S
C633 C634 1.362 . S
C634 H626 0.930 . S
C634 C633 1.362 . S
C634 C637 1.409 . S
C635 H627 0.930 . S
C635 C636 1.355 . S
C635 C637 1.415 . S
C636 C635 1.355 . S
C636 C638 1.419 . S
C637 C632 1.425 . S
C637 C634 1.409 . S
C637 C635 1.415 . S
C638 H628 0.930 . S
C638 C636 1.419 . S
C638 C639 1.362 . S
C639 H629 0.930 . S
C639 C632 1.409 . S
C639 C638 1.362 . S
H640 C646 0.930 . S
H641 C649 0.930 . S
H642 C650 0.930 . S
H643 C651 0.930 . S
H644 C654 0.930 . S
H645 C655 0.930 . S
C646 H640 0.930 . S
C646 C647 1.355 . S
C646 C648 1.415 . S
C647 C646 1.355 . S
C647 C649 1.419 . S
C648 C646 1.415 . S
C648 C653 1.425 . S
C648 C655 1.409 . S
C649 H641 0.930 . S
C649 C647 1.419 . S
C649 C650 1.362 . S
C650 H642 0.930 . S
C650 C649 1.362 . S
C650 C653 1.409 . S
C651 H643 0.930 . S
C651 C652 1.355 . S
C651 C653 1.415 . S
C652 C651 1.355 . S
C652 C654 1.419 . S
C653 C648 1.425 . S
C653 C650 1.409 . S
C653 C651 1.415 . S
C654 H644 0.930 . S
C654 C652 1.419 . S
C654 C655 1.362 . S
C655 H645 0.930 . S
C655 C648 1.409 . S
C655 C654 1.362 . S
H656 C662 0.930 . S
H657 C665 0.930 . S
H658 C666 0.930 . S
H659 C667 0.930 . S
H660 C670 0.930 . S
H661 C671 0.930 . S
C662 H656 0.930 . S
C662 C663 1.355 . S
C662 C664 1.415 . S
C663 C662 1.355 . S
C663 C665 1.419 . S
C664 C662 1.415 . S
C664 C669 1.425 . S
C664 C671 1.409 . S
C665 H657 0.930 . S
C665 C663 1.419 . S
C665 C666 1.362 . S
C666 H658 0.930 . S
C666 C665 1.362 . S
C666 C669 1.409 . S
C667 H659 0.930 . S
C667 C668 1.355 . S
C667 C669 1.415 . S
C668 C667 1.355 . S
C668 C670 1.419 . S
C669 C664 1.425 . S
C669 C666 1.409 . S
C669 C667 1.415 . S
C670 H660 0.930 . S
C670 C668 1.419 . S
C670 C671 1.362 . S
C671 H661 0.930 . S
C671 C664 1.409 . S
C671 C670 1.362 . S
H672 C678 0.930 . S
H673 C681 0.930 . S
H674 C682 0.930 . S
H675 C683 0.930 . S
H676 C686 0.930 . S
H677 C687 0.930 . S
C678 H672 0.930 . S
C678 C679 1.355 . S
C678 C680 1.415 . S
C679 C678 1.355 . S
C679 C681 1.419 . S
C680 C678 1.415 . S
C680 C685 1.425 . S
C680 C687 1.409 . S
C681 H673 0.930 . S
C681 C679 1.419 . S
C681 C682 1.362 . S
C682 H674 0.930 . S
C682 C681 1.362 . S
C682 C685 1.409 . S
C683 H675 0.930 . S
C683 C684 1.355 . S
C683 C685 1.415 . S
C684 C683 1.355 . S
C684 C686 1.419 . S
C685 C680 1.425 . S
C685 C682 1.409 . S
C685 C683 1.415 . S
C686 H676 0.930 . S
C686 C684 1.419 . S
C686 C687 1.362 . S
C687 H677 0.930 . S
C687 C680 1.409 . S
C687 C686 1.362 . S
H688 C694 0.930 . S
H689 C697 0.930 . S
H690 C698 0.930 1_554 S
H691 C699 0.930 . S
H692 C702 0.930 . S
H693 C703 0.930 1_556 S
C694 H688 0.930 . S
C694 C695 1.355 1_455 S
C694 C696 1.415 . S
C695 C694 1.355 1_655 S
C695 C697 1.419 . S
C696 C694 1.415 . S
C696 C701 1.425 1_456 S
C696 C703 1.409 1_556 S
C697 H689 0.930 . S
C697 C695 1.419 . S
C697 C698 1.362 . S
C698 H690 0.930 1_556 S
C698 C697 1.362 . S
C698 C701 1.409 1_556 S
C699 H691 0.930 . S
C699 C700 1.355 1_655 S
C699 C701 1.415 . S
C700 C699 1.355 1_455 S
C700 C702 1.419 . S
C701 C696 1.425 1_654 S
C701 C698 1.409 1_554 S
C701 C699 1.415 . S
C702 H692 0.930 . S
C702 C700 1.419 . S
C702 C703 1.362 . S
C703 H693 0.930 1_554 S
C703 C696 1.409 1_554 S
C703 C702 1.362 . S
C327 C2 1.961 . S
C332 C122 1.964 . S
C343 C10 1.534 . S
C348 C42 1.539 . S
C359 C50 1.022 . S
C364 C90 1.003 . S
C375 C82 1.521 . S
C380 C130 1.493 . S
C391 C11 1.968 . S
C396 C211 1.969 . S
C407 C19 1.512 . S
C412 C171 1.527 . S
C423 C179 0.959 . S
C428 C99 0.980 . S
C439 C219 1.518 . S
C444 C91 1.533 . S
C455 C242 1.962 . S
C460 C202 1.961 . S
C471 C162 1.531 . S
C476 C250 1.518 . S
C487 C290 1.005 . S
C492 C170 1.022 . S
C503 C210 1.537 . S
C508 C282 1.544 . S
C519 C131 1.968 . S
C524 C251 1.964 . S
C535 C259 1.514 . S
C540 C51 1.532 . S
C551 C59 0.961 . S
C556 C299 0.975 . S
C567 C139 1.495 . S
C572 C291 1.518 . S
C583 C16 1.614 . S
C588 C7 1.614 . S
C599 C47 1.473 . S
C604 C56 1.473 . S
C615 C96 1.409 1_565 S
C620 C87 1.409 1_545 S
C631 C136 1.623 . S
C636 C127 1.623 . S
C647 C167 1.406 . S
C652 C176 1.406 . S
C663 C216 1.606 . S
C668 C207 1.606 . S
C679 C247 1.680 . S
C684 C256 1.680 . S
C695 C287 1.473 . S
C700 C296 1.473 . S
