# Generated by pormake.
# Topology whz, (6)-cn, num edge types: 1
# Building blocks:
#     Node 0, Type 0, BuildingBlock: UKALOJ_clean_sbu_0, # of connection points: 6
#     Node 1, Type 0, BuildingBlock: UKALOJ_clean_sbu_0, # of connection points: 6
#     Node 2, Type 0, BuildingBlock: UKALOJ_clean_sbu_0, # of connection points: 6
#     Node 3, Type 0, BuildingBlock: UKALOJ_clean_sbu_0, # of connection points: 6
#     Node 4, Type 0, BuildingBlock: UKALOJ_clean_sbu_0, # of connection points: 6
#     Node 5, Type 0, BuildingBlock: UKALOJ_clean_sbu_0, # of connection points: 6
#     Node 6, Type 0, BuildingBlock: UKALOJ_clean_sbu_0, # of connection points: 6
#     Node 7, Type 0, BuildingBlock: UKALOJ_clean_sbu_0, # of connection points: 6
#     Node 8, Type 0, BuildingBlock: UKALOJ_clean_sbu_0, # of connection points: 6
#     Node 9, Type 0, BuildingBlock: UKALOJ_clean_sbu_0, # of connection points: 6
#     Node 10, Type 0, BuildingBlock: UKALOJ_clean_sbu_0, # of connection points: 6
#     Node 11, Type 0, BuildingBlock: UKALOJ_clean_sbu_0, # of connection points: 6
#     Node 12, Type 0, BuildingBlock: UKALOJ_clean_sbu_0, # of connection points: 6
#     Node 13, Type 0, BuildingBlock: UKALOJ_clean_sbu_0, # of connection points: 6
#     Node 14, Type 0, BuildingBlock: UKALOJ_clean_sbu_0, # of connection points: 6
#     Node 15, Type 0, BuildingBlock: UKALOJ_clean_sbu_0, # of connection points: 6
#     Edge 16, Type (0, 0), BuildingBlock: TEMPAE_clean_linker_10, # of connection points: 2
#     Edge 17, Type (0, 0), BuildingBlock: TEMPAE_clean_linker_10, # of connection points: 2
#     Edge 18, Type (0, 0), BuildingBlock: TEMPAE_clean_linker_10, # of connection points: 2
#     Edge 19, Type (0, 0), BuildingBlock: TEMPAE_clean_linker_10, # of connection points: 2
#     Edge 20, Type (0, 0), BuildingBlock: TEMPAE_clean_linker_10, # of connection points: 2
#     Edge 21, Type (0, 0), BuildingBlock: TEMPAE_clean_linker_10, # of connection points: 2
#     Edge 22, Type (0, 0), BuildingBlock: TEMPAE_clean_linker_10, # of connection points: 2
#     Edge 23, Type (0, 0), BuildingBlock: TEMPAE_clean_linker_10, # of connection points: 2
#     Edge 24, Type (0, 0), BuildingBlock: TEMPAE_clean_linker_10, # of connection points: 2
#     Edge 25, Type (0, 0), BuildingBlock: TEMPAE_clean_linker_10, # of connection points: 2
#     Edge 26, Type (0, 0), BuildingBlock: TEMPAE_clean_linker_10, # of connection points: 2
#     Edge 27, Type (0, 0), BuildingBlock: TEMPAE_clean_linker_10, # of connection points: 2
#     Edge 28, Type (0, 0), BuildingBlock: TEMPAE_clean_linker_10, # of connection points: 2
#     Edge 29, Type (0, 0), BuildingBlock: TEMPAE_clean_linker_10, # of connection points: 2
#     Edge 30, Type (0, 0), BuildingBlock: TEMPAE_clean_linker_10, # of connection points: 2
#     Edge 31, Type (0, 0), BuildingBlock: TEMPAE_clean_linker_10, # of connection points: 2
#     Edge 32, Type (0, 0), BuildingBlock: TEMPAE_clean_linker_10, # of connection points: 2
#     Edge 33, Type (0, 0), BuildingBlock: TEMPAE_clean_linker_10, # of connection points: 2
#     Edge 34, Type (0, 0), BuildingBlock: TEMPAE_clean_linker_10, # of connection points: 2
#     Edge 35, Type (0, 0), BuildingBlock: TEMPAE_clean_linker_10, # of connection points: 2
#     Edge 36, Type (0, 0), BuildingBlock: TEMPAE_clean_linker_10, # of connection points: 2
#     Edge 37, Type (0, 0), BuildingBlock: TEMPAE_clean_linker_10, # of connection points: 2
#     Edge 38, Type (0, 0), BuildingBlock: TEMPAE_clean_linker_10, # of connection points: 2
#     Edge 39, Type (0, 0), BuildingBlock: TEMPAE_clean_linker_10, # of connection points: 2
#     Edge 40, Type (0, 0), BuildingBlock: TEMPAE_clean_linker_10, # of connection points: 2
#     Edge 41, Type (0, 0), BuildingBlock: TEMPAE_clean_linker_10, # of connection points: 2
#     Edge 42, Type (0, 0), BuildingBlock: TEMPAE_clean_linker_10, # of connection points: 2
#     Edge 43, Type (0, 0), BuildingBlock: TEMPAE_clean_linker_10, # of connection points: 2
#     Edge 44, Type (0, 0), BuildingBlock: TEMPAE_clean_linker_10, # of connection points: 2
#     Edge 45, Type (0, 0), BuildingBlock: TEMPAE_clean_linker_10, # of connection points: 2
#     Edge 46, Type (0, 0), BuildingBlock: TEMPAE_clean_linker_10, # of connection points: 2
#     Edge 47, Type (0, 0), BuildingBlock: TEMPAE_clean_linker_10, # of connection points: 2
#     Edge 48, Type (0, 0), BuildingBlock: TEMPAE_clean_linker_10, # of connection points: 2
#     Edge 49, Type (0, 0), BuildingBlock: TEMPAE_clean_linker_10, # of connection points: 2
#     Edge 50, Type (0, 0), BuildingBlock: TEMPAE_clean_linker_10, # of connection points: 2
#     Edge 51, Type (0, 0), BuildingBlock: TEMPAE_clean_linker_10, # of connection points: 2
#     Edge 52, Type (0, 0), BuildingBlock: TEMPAE_clean_linker_10, # of connection points: 2
#     Edge 53, Type (0, 0), BuildingBlock: TEMPAE_clean_linker_10, # of connection points: 2
#     Edge 54, Type (0, 0), BuildingBlock: TEMPAE_clean_linker_10, # of connection points: 2
#     Edge 55, Type (0, 0), BuildingBlock: TEMPAE_clean_linker_10, # of connection points: 2
#     Edge 56, Type (0, 0), BuildingBlock: TEMPAE_clean_linker_10, # of connection points: 2
#     Edge 57, Type (0, 0), BuildingBlock: TEMPAE_clean_linker_10, # of connection points: 2
#     Edge 58, Type (0, 0), BuildingBlock: TEMPAE_clean_linker_10, # of connection points: 2
#     Edge 59, Type (0, 0), BuildingBlock: TEMPAE_clean_linker_10, # of connection points: 2
#     Edge 60, Type (0, 0), BuildingBlock: TEMPAE_clean_linker_10, # of connection points: 2
#     Edge 61, Type (0, 0), BuildingBlock: TEMPAE_clean_linker_10, # of connection points: 2
#     Edge 62, Type (0, 0), BuildingBlock: TEMPAE_clean_linker_10, # of connection points: 2
#     Edge 63, Type (0, 0), BuildingBlock: TEMPAE_clean_linker_10, # of connection points: 2
# Relax obj value: 0.341
# Max RMSD: 0.234
# Mean RMSD: 0.234
data_MOF--net-whz--node1-UKALOJ_clean_sbu_0--edge1-TEMPAE_clean_linker_10
_symmetry_space_group_name_H-M    P1
_symmetry_Int_Tables_number       1
_symmetry_cell_setting            triclinic
loop_
_symmetry_equiv_pos_as_xyz
'x, y, z'
_cell_length_a     41.718278
_cell_length_b     41.710409
_cell_length_c     47.703836
_cell_angle_alpha  90.008417
_cell_angle_beta   90.002242
_cell_angle_gamma 89.99991
loop_
_atom_site_label
_atom_site_type_symbol
_atom_site_fract_x
_atom_site_fract_y
_atom_site_fract_z
_atom_type_partial_charge
Zn0 Zn 0.30463 0.15083 0.12211 0.0
O1 O 0.30682 0.17455 0.16142 0.0
C2 C 0.31165 0.08653 0.1492 0.0
Zn3 Zn 0.25754 0.12933 0.13429 0.0
C4 C 0.28486 0.16964 0.17938 0.0
O5 O 0.26258 0.15005 0.17378 0.0
C6 C 0.27326 0.11277 0.07594 0.0
O7 O 0.23425 0.17142 0.12098 0.0
O8 O 0.28009 0.19136 0.10637 0.0
N9 N 0.21563 0.10962 0.14788 0.0
C10 C 0.18683 0.10415 0.13598 0.0
C11 C 0.18442 0.08728 0.17813 0.0
N12 N 0.21403 0.09908 0.17402 0.0
N13 N 0.16682 0.09004 0.15459 0.0
C14 C 0.37286 0.18551 0.12177 0.0
C15 C 0.38449 0.18238 0.07837 0.0
N16 N 0.34832 0.17002 0.10899 0.0
N17 N 0.35582 0.16818 0.08206 0.0
N18 N 0.39589 0.19341 0.10295 0.0
H19 H 0.35275 0.21239 0.1555 0.0
H20 H 0.39509 0.20748 0.1584 0.0
H21 H 0.36881 0.17392 0.1654 0.0
C22 C 0.3727 0.19531 0.152 0.0
C23 C 0.17809 0.11402 0.10675 0.0
H24 H 0.19299 0.13442 0.09965 0.0
H25 H 0.15239 0.12073 0.10554 0.0
H26 H 0.18241 0.09362 0.09232 0.0
O27 O 0.252 0.10929 0.09472 0.0
O28 O 0.29901 0.12779 0.08182 0.0
C29 C 0.24996 0.19422 0.10982 0.0
O30 O 0.32847 0.10962 0.13968 0.0
O31 O 0.28132 0.0883 0.14805 0.0
Zn32 Zn 0.59839 0.55293 0.36936 0.0
O33 O 0.57197 0.55344 0.40779 0.0
C34 C 0.6597 0.56052 0.40044 0.0
Zn35 Zn 0.62037 0.50559 0.37961 0.0
C36 C 0.57429 0.52841 0.42286 0.0
O37 O 0.59382 0.50654 0.4161 0.0
C38 C 0.64135 0.5254 0.32397 0.0
O39 O 0.58193 0.4811 0.36107 0.0
O40 O 0.55939 0.52748 0.35153 0.0
N41 N 0.64009 0.46376 0.39343 0.0
C42 C 0.64596 0.4347 0.38209 0.0
C43 C 0.66248 0.43358 0.42436 0.0
N44 N 0.65026 0.46286 0.41968 0.0
N45 N 0.66012 0.41521 0.4012 0.0
C46 C 0.56764 0.62196 0.37085 0.0
C47 C 0.56073 0.63109 0.32733 0.0
N48 N 0.57826 0.59589 0.35678 0.0
N49 N 0.57389 0.60172 0.32976 0.0
N50 N 0.55641 0.64435 0.35281 0.0
H51 H 0.59127 0.61323 0.41025 0.0
H52 H 0.54828 0.61603 0.41195 0.0
H53 H 0.57181 0.65189 0.40758 0.0
C54 C 0.57007 0.62614 0.40196 0.0
C55 C 0.63853 0.42612 0.35226 0.0
H56 H 0.63443 0.44762 0.33926 0.0
H57 H 0.61616 0.41176 0.35167 0.0
H58 H 0.65829 0.41174 0.34307 0.0
O59 O 0.64594 0.50416 0.34255 0.0
O60 O 0.62352 0.5494 0.32962 0.0
C61 C 0.55822 0.49697 0.35169 0.0
O62 O 0.63788 0.57751 0.38907 0.0
O63 O 0.65797 0.53022 0.39888 0.0
Zn64 Zn 0.19647 0.85127 0.6224 0.0
O65 O 0.19267 0.82789 0.66197 0.0
C66 C 0.18903 0.9159 0.64865 0.0
Zn67 Zn 0.24344 0.8727 0.63476 0.0
C68 C 0.21449 0.83317 0.68001 0.0
O69 O 0.23705 0.85236 0.67418 0.0
C70 C 0.22895 0.88842 0.57607 0.0
O71 O 0.26726 0.83053 0.62229 0.0
O72 O 0.22155 0.81048 0.6077 0.0
N73 N 0.28514 0.89225 0.64921 0.0
C74 C 0.31416 0.89774 0.63773 0.0
C75 C 0.31627 0.91326 0.68029 0.0
N76 N 0.28656 0.90195 0.67562 0.0
N77 N 0.3341 0.911 0.65685 0.0
C78 C 0.12589 0.82367 0.62163 0.0
C79 C 0.1235 0.80474 0.58019 0.0
N80 N 0.15395 0.83084 0.60887 0.0
N81 N 0.15222 0.81915 0.5831 0.0
N82 N 0.10643 0.80728 0.60403 0.0
H83 H 0.12533 0.80853 0.66432 0.0
H84 H 0.09295 0.8348 0.65507 0.0
H85 H 0.13303 0.85068 0.65967 0.0
C86 C 0.11885 0.83007 0.65189 0.0
C87 C 0.32323 0.8886 0.60839 0.0
H88 H 0.30857 0.86822 0.60087 0.0
H89 H 0.349 0.88217 0.60721 0.0
H90 H 0.31884 0.9093 0.59431 0.0
O91 O 0.24992 0.89231 0.59507 0.0
O92 O 0.20307 0.87353 0.58187 0.0
C93 C 0.25161 0.80758 0.61135 0.0
O94 O 0.17218 0.89291 0.63896 0.0
O95 O 0.21936 0.9139 0.64785 0.0
Zn96 Zn 0.88065 0.49672 0.88099 0.0
O97 O 0.91938 0.5215 0.86293 0.0
C98 C 0.8611 0.47688 0.8253 0.0
Zn99 Zn 0.90157 0.44846 0.87251 0.0
C100 C 0.94341 0.5045 0.85619 0.0
O101 O 0.9417 0.47412 0.85764 0.0
C102 C 0.8395 0.44146 0.90055 0.0
O103 O 0.92567 0.44667 0.91211 0.0
O104 O 0.90688 0.49533 0.91794 0.0
N105 N 0.9234 0.4064 0.85994 0.0
C106 C 0.92724 0.37706 0.87154 0.0
C107 C 0.9545 0.37779 0.83377 0.0
N108 N 0.94027 0.4066 0.83642 0.0
N109 N 0.94671 0.3587 0.85549 0.0
C110 C 0.85627 0.5681 0.88444 0.0
C111 C 0.83984 0.56867 0.92673 0.0
N112 N 0.86097 0.5385 0.89511 0.0
N113 N 0.8508 0.53905 0.92137 0.0
N114 N 0.84302 0.58766 0.90403 0.0
H115 H 0.86621 0.55572 0.84125 0.0
H116 H 0.88721 0.58988 0.85423 0.0
H117 H 0.84504 0.59307 0.84612 0.0
C118 C 0.86389 0.57711 0.85475 0.0
C119 C 0.91344 0.36709 0.89917 0.0
H120 H 0.93071 0.35178 0.91074 0.0
H121 H 0.89143 0.3528 0.89536 0.0
H122 H 0.90694 0.38818 0.91206 0.0
O123 O 0.86101 0.42379 0.88956 0.0
O124 O 0.84249 0.47173 0.89959 0.0
C125 C 0.92458 0.47254 0.92617 0.0
O126 O 0.85581 0.49834 0.84359 0.0
O127 O 0.87877 0.45296 0.83163 0.0
Zn128 Zn 0.74407 0.87402 0.87219 0.0
O129 O 0.76865 0.83371 0.88813 0.0
C130 C 0.72435 0.89095 0.92836 0.0
Zn131 Zn 0.69646 0.8516 0.87999 0.0
C132 C 0.75197 0.80962 0.89538 0.0
O133 O 0.72154 0.8113 0.89501 0.0
C134 C 0.68895 0.915 0.85335 0.0
O135 O 0.69589 0.82799 0.84011 0.0
O136 O 0.7427 0.85086 0.834 0.0
N137 N 0.65379 0.83075 0.89192 0.0
C138 C 0.62769 0.82039 0.87779 0.0
C139 C 0.61899 0.81216 0.92121 0.0
N140 N 0.64823 0.82556 0.91887 0.0
N141 N 0.60555 0.80854 0.89574 0.0
C142 C 0.81556 0.89642 0.86915 0.0
C143 C 0.81475 0.9217 0.83024 0.0
N144 N 0.78531 0.89528 0.8593 0.0
N145 N 0.7849 0.91106 0.83521 0.0
N146 N 0.83446 0.91285 0.85117 0.0
H147 H 0.83036 0.85314 0.88911 0.0
H148 H 0.84977 0.88816 0.90273 0.0
H149 H 0.8083 0.8799 0.91137 0.0
C150 C 0.82676 0.87872 0.89468 0.0
C151 C 0.62325 0.8237 0.84677 0.0
H152 H 0.63399 0.80258 0.8362 0.0
H153 H 0.59743 0.82484 0.84128 0.0
H154 H 0.63548 0.84558 0.83902 0.0
O155 O 0.6718 0.89216 0.86275 0.0
O156 O 0.71918 0.9133 0.8556 0.0
C157 C 0.72126 0.83162 0.82566 0.0
O158 O 0.74641 0.89617 0.91065 0.0
O159 O 0.70017 0.87409 0.92116 0.0
Zn160 Zn 0.3789 0.49476 0.61673 0.0
O161 O 0.42144 0.51829 0.62864 0.0
C162 C 0.3633 0.4807 0.67561 0.0
Zn163 Zn 0.4006 0.44828 0.62969 0.0
C164 C 0.44436 0.50312 0.64013 0.0
O165 O 0.44147 0.47319 0.64466 0.0
C166 C 0.33578 0.44051 0.60344 0.0
O167 O 0.42414 0.44465 0.59036 0.0
O168 O 0.39862 0.488 0.57704 0.0
N169 N 0.42017 0.40548 0.64325 0.0
C170 C 0.43047 0.37886 0.62982 0.0
C171 C 0.43844 0.37151 0.67346 0.0
N172 N 0.42517 0.40074 0.67035 0.0
N173 N 0.44218 0.35725 0.64833 0.0
C174 C 0.35498 0.56573 0.61407 0.0
C175 C 0.3378 0.56788 0.572 0.0
N176 N 0.35949 0.53656 0.60254 0.0
N177 N 0.34876 0.53799 0.57645 0.0
N178 N 0.34132 0.5858 0.59528 0.0
H179 H 0.37283 0.60033 0.64384 0.0
H180 H 0.34501 0.5714 0.65771 0.0
H181 H 0.38541 0.55952 0.65033 0.0
C182 C 0.36539 0.5748 0.64309 0.0
C183 C 0.42722 0.37334 0.59893 0.0
H184 H 0.4053 0.3852 0.59084 0.0
H185 H 0.44833 0.38374 0.58808 0.0
H186 H 0.42614 0.34733 0.59412 0.0
O187 O 0.35914 0.42401 0.6129 0.0
O188 O 0.33735 0.47087 0.6042 0.0
C189 C 0.41831 0.46569 0.57178 0.0
O190 O 0.35977 0.50166 0.65656 0.0
O191 O 0.37802 0.45472 0.66995 0.0
Zn192 Zn 0.80708 0.14819 0.37811 0.0
O193 O 0.81274 0.16824 0.33759 0.0
C194 C 0.81054 0.08231 0.35348 0.0
Zn195 Zn 0.75881 0.12855 0.36714 0.0
C196 C 0.78977 0.1647 0.32037 0.0
O197 O 0.76552 0.1483 0.32738 0.0
C198 C 0.77277 0.11426 0.42585 0.0
O199 O 0.73765 0.1721 0.3799 0.0
O200 O 0.7853 0.19149 0.39046 0.0
N201 N 0.71602 0.11111 0.35323 0.0
C202 C 0.68661 0.10751 0.36454 0.0
C203 C 0.68424 0.09078 0.32235 0.0
N204 N 0.71442 0.10064 0.32707 0.0
N205 N 0.66621 0.09475 0.3455 0.0
C206 C 0.87008 0.18978 0.38242 0.0
C207 C 0.89599 0.16463 0.41398 0.0
N208 N 0.85167 0.16474 0.39054 0.0
N209 N 0.8679 0.14926 0.41019 0.0
N210 N 0.89807 0.19011 0.39673 0.0
H211 H 0.83364 0.21918 0.36354 0.0
H212 H 0.87272 0.23777 0.36557 0.0
H213 H 0.86526 0.20654 0.34032 0.0
C214 C 0.85979 0.2149 0.36188 0.0
C215 C 0.67783 0.11789 0.39362 0.0
H216 H 0.69376 0.13738 0.40097 0.0
H217 H 0.65253 0.12607 0.39443 0.0
H218 H 0.68069 0.09727 0.4081 0.0
O219 O 0.7519 0.1096 0.40691 0.0
O220 O 0.79874 0.12881 0.41966 0.0
C221 C 0.75512 0.19508 0.38841 0.0
O222 O 0.82836 0.10434 0.36347 0.0
O223 O 0.78037 0.086 0.35378 0.0
Zn224 Zn 0.12449 0.50737 0.11825 0.0
O225 O 0.08293 0.48284 0.13108 0.0
C226 C 0.13864 0.52295 0.17689 0.0
Zn227 Zn 0.10272 0.55464 0.12918 0.0
C228 C 0.0592 0.49911 0.1397 0.0
O229 O 0.06133 0.5294 0.1417 0.0
C230 C 0.16757 0.56255 0.10454 0.0
O231 O 0.0813 0.55819 0.08893 0.0
O232 O 0.10398 0.51223 0.0785 0.0
N233 N 0.08129 0.59677 0.14202 0.0
C234 C 0.07467 0.62492 0.1292 0.0
C235 C 0.05362 0.62681 0.16987 0.0
N236 N 0.06828 0.59819 0.16732 0.0
N237 N 0.05733 0.64411 0.14628 0.0
C238 C 0.14601 0.43575 0.11483 0.0
C239 C 0.17285 0.4363 0.07674 0.0
N240 N 0.14548 0.46602 0.10492 0.0
N241 N 0.16218 0.46626 0.08131 0.0
N242 N 0.16306 0.41669 0.09744 0.0
H243 H 0.10155 0.42229 0.13352 0.0
H244 H 0.13517 0.40097 0.14749 0.0
H245 H 0.12849 0.44247 0.15688 0.0
C246 C 0.12707 0.42462 0.13972 0.0
C247 C 0.08266 0.63238 0.09931 0.0
H248 H 0.0616 0.62661 0.08601 0.0
H249 H 0.08804 0.65824 0.09675 0.0
H250 H 0.10333 0.61793 0.09205 0.0
O251 O 0.14471 0.57941 0.11437 0.0
O252 O 0.16526 0.53223 0.10487 0.0
C253 C 0.08568 0.53525 0.07178 0.0
O254 O 0.14399 0.50219 0.15802 0.0
O255 O 0.12297 0.54823 0.17066 0.0
Zn256 Zn 0.8044 0.65199 0.62291 0.0
O257 O 0.80872 0.67488 0.66239 0.0
C258 C 0.80886 0.58675 0.64992 0.0
Zn259 Zn 0.75699 0.63198 0.63596 0.0
C260 C 0.78691 0.67088 0.68065 0.0
O261 O 0.76371 0.65224 0.67551 0.0
C262 C 0.77078 0.61567 0.57699 0.0
O263 O 0.7358 0.67534 0.62313 0.0
O264 O 0.7819 0.69407 0.60791 0.0
N265 N 0.71413 0.61456 0.64982 0.0
C266 C 0.68515 0.61021 0.63788 0.0
C267 C 0.68181 0.59409 0.6802 0.0
N268 N 0.71193 0.60453 0.67608 0.0
N269 N 0.66446 0.59727 0.65656 0.0
C270 C 0.86779 0.69343 0.61823 0.0
C271 C 0.8935 0.66777 0.58686 0.0
N272 N 0.84913 0.6685 0.61026 0.0
N273 N 0.86525 0.65271 0.59073 0.0
N274 N 0.89581 0.69337 0.60395 0.0
H275 H 0.83178 0.72404 0.63613 0.0
H276 H 0.87151 0.74132 0.63518 0.0
H277 H 0.86214 0.71038 0.66021 0.0
C278 C 0.85771 0.71891 0.63852 0.0
C279 C 0.67695 0.62011 0.60855 0.0
H280 H 0.69239 0.64015 0.60153 0.0
H281 H 0.65142 0.62739 0.60709 0.0
H282 H 0.68097 0.59954 0.59424 0.0
O283 O 0.74999 0.61251 0.59623 0.0
O284 O 0.7971 0.62995 0.58242 0.0
C285 C 0.75199 0.69787 0.61206 0.0
O286 O 0.82624 0.60919 0.63997 0.0
O287 O 0.77861 0.58965 0.64937 0.0
Zn288 Zn 0.09802 0.05498 0.87132 0.0
O289 O 0.07342 0.05632 0.91072 0.0
C290 C 0.16106 0.06123 0.90036 0.0
Zn291 Zn 0.12011 0.00741 0.88059 0.0
C292 C 0.07576 0.03097 0.92535 0.0
O293 O 0.09479 0.00904 0.91775 0.0
C294 C 0.13908 0.02647 0.82448 0.0
O295 O 0.08055 0.98402 0.8631 0.0
O296 O 0.05781 0.03063 0.85458 0.0
N297 N 0.13894 0.96532 0.8946 0.0
C298 C 0.14346 0.93559 0.88417 0.0
C299 C 0.16004 0.93546 0.92644 0.0
N300 N 0.14917 0.96503 0.92084 0.0
N301 N 0.15674 0.91627 0.9039 0.0
C302 C 0.05427 0.117 0.86777 0.0
C303 C 0.07877 0.14367 0.83629 0.0
N304 N 0.07959 0.09911 0.8594 0.0
N305 N 0.09463 0.11582 0.8398 0.0
N306 N 0.05336 0.14512 0.85365 0.0
H307 H 0.02461 0.08011 0.8855 0.0
H308 H 0.00673 0.1196 0.8856 0.0
H309 H 0.0384 0.11009 0.90991 0.0
C310 C 0.02942 0.10607 0.8883 0.0
C311 C 0.13565 0.92623 0.85461 0.0
H312 H 0.13313 0.94748 0.84097 0.0
H313 H 0.1124 0.91333 0.85435 0.0
H314 H 0.15449 0.91022 0.84602 0.0
O315 O 0.14431 0.00505 0.8428 0.0
O316 O 0.12167 0.05057 0.83084 0.0
C317 C 0.05658 1.00011 0.85454 0.0
O318 O 0.13886 0.07848 0.88994 0.0
O319 O 0.15898 0.03098 0.8987 0.0
Zn320 Zn 0.74737 0.36857 0.13075 0.0
O321 O 0.77202 0.32992 0.11285 0.0
C322 C 0.7273 0.38927 0.07508 0.0
Zn323 Zn 0.70005 0.34642 0.12063 0.0
C324 C 0.75626 0.30629 0.10322 0.0
O325 O 0.72576 0.30755 0.10269 0.0
C326 C 0.69228 0.40811 0.15103 0.0
O327 O 0.69994 0.31994 0.15897 0.0
O328 O 0.74634 0.34264 0.16763 0.0
N329 N 0.65735 0.32588 0.10776 0.0
C330 C 0.63132 0.31438 0.12137 0.0
C331 C 0.62416 0.3059 0.07776 0.0
N332 N 0.65267 0.32064 0.0807 0.0
N333 N 0.61011 0.30167 0.10291 0.0
C334 C 0.81848 0.39303 0.13336 0.0
C335 C 0.81937 0.41132 0.17508 0.0
N336 N 0.78908 0.38851 0.14446 0.0
N337 N 0.78981 0.39979 0.17037 0.0
N338 N 0.83806 0.40735 0.15229 0.0
H339 H 0.80586 0.38123 0.09056 0.0
H340 H 0.84025 0.36102 0.10401 0.0
H341 H 0.8431 0.40282 0.09456 0.0
C342 C 0.82731 0.38425 0.10387 0.0
C343 C 0.62856 0.31298 0.15267 0.0
H344 H 0.64325 0.29269 0.16048 0.0
H345 H 0.60364 0.30904 0.15976 0.0
H346 H 0.63798 0.33542 0.16205 0.0
O347 O 0.67523 0.3858 0.14045 0.0
O348 O 0.72256 0.4065 0.14924 0.0
C349 C 0.72476 0.32272 0.17424 0.0
O350 O 0.74897 0.39348 0.09335 0.0
O351 O 0.70318 0.37176 0.08103 0.0
Zn352 Zn 0.38099 0.99484 0.38128 0.0
O353 O 0.4213 0.0191 0.3656 0.0
C354 C 0.36318 0.97644 0.32448 0.0
Zn355 Zn 0.40357 0.94771 0.37121 0.0
C356 C 0.44503 0.00342 0.35606 0.0
O357 O 0.44352 0.97296 0.35479 0.0
C358 C 0.34018 0.94014 0.39949 0.0
O359 O 0.42813 0.94624 0.41049 0.0
O360 O 0.40406 0.99173 0.41949 0.0
N361 N 0.42369 0.90475 0.35861 0.0
C362 C 0.43387 0.87835 0.37244 0.0
C363 C 0.44158 0.87001 0.3289 0.0
N364 N 0.42856 0.8994 0.33158 0.0
N365 N 0.44531 0.85623 0.35423 0.0
C366 C 0.35826 0.06672 0.38478 0.0
C367 C 0.33911 0.06692 0.42619 0.0
N368 N 0.36146 0.0368 0.39519 0.0
N369 N 0.34962 0.03711 0.4209 0.0
N370 N 0.34427 0.08625 0.40399 0.0
H371 H 0.371 0.05494 0.34202 0.0
H372 H 0.39168 0.08842 0.35662 0.0
H373 H 0.35023 0.0926 0.34631 0.0
C374 C 0.36813 0.07611 0.3557 0.0
C375 C 0.4308 0.87361 0.40344 0.0
H376 H 0.45232 0.88365 0.41392 0.0
H377 H 0.42907 0.84775 0.40868 0.0
H378 H 0.40935 0.88628 0.41153 0.0
O379 O 0.36303 0.92333 0.38953 0.0
O380 O 0.34152 0.97044 0.39762 0.0
C381 C 0.42347 0.96994 0.42676 0.0
O382 O 0.35846 0.99804 0.34275 0.0
O383 O 0.37996 0.95195 0.33089 0.0
Zn384 Zn 0.24518 0.3724 0.37157 0.0
O385 O 0.27127 0.33311 0.38742 0.0
C386 C 0.22583 0.3888 0.42832 0.0
Zn387 Zn 0.19774 0.34973 0.38021 0.0
C388 C 0.25504 0.30867 0.39445 0.0
O389 O 0.22462 0.30984 0.39404 0.0
C390 C 0.18833 0.41257 0.3538 0.0
O391 O 0.19652 0.32694 0.34016 0.0
O392 O 0.24387 0.34859 0.33343 0.0
N393 N 0.15651 0.3262 0.39247 0.0
C394 C 0.1272 0.32182 0.38097 0.0
C395 C 0.12913 0.29344 0.41807 0.0
N396 N 0.15746 0.30863 0.41557 0.0
N397 N 0.10961 0.3013 0.39667 0.0
C398 C 0.31617 0.39645 0.36792 0.0
C399 C 0.31471 0.42143 0.3289 0.0
N400 N 0.28583 0.39483 0.35829 0.0
N401 N 0.28502 0.41045 0.33413 0.0
N402 N 0.33473 0.41299 0.34974 0.0
H403 H 0.33296 0.35383 0.38778 0.0
H404 H 0.3502 0.38974 0.40186 0.0
H405 H 0.30915 0.3792 0.40998 0.0
C406 C 0.32787 0.37912 0.39347 0.0
C407 C 0.11655 0.33618 0.35375 0.0
H408 H 0.10137 0.31895 0.34199 0.0
H409 H 0.10195 0.35783 0.35818 0.0
H410 H 0.13732 0.34339 0.34076 0.0
O411 O 0.17154 0.38993 0.3641 0.0
O412 O 0.21867 0.41083 0.355 0.0
C413 C 0.22171 0.32997 0.32538 0.0
O414 O 0.24721 0.3948 0.41013 0.0
O415 O 0.20188 0.37136 0.42157 0.0
Zn416 Zn 0.9001 0.94454 0.1283 0.0
O417 O 0.92205 0.94018 0.08825 0.0
C418 C 0.83417 0.93976 0.10317 0.0
Zn419 Zn 0.8794 0.99196 0.11653 0.0
C420 C 0.9171 0.96226 0.0704 0.0
O421 O 0.8986 0.98525 0.07658 0.0
C422 C 0.86459 0.97762 0.17539 0.0
O423 O 0.92293 0.01353 0.12844 0.0
O424 O 0.94236 0.96731 0.14267 0.0
N425 N 0.86143 0.0345 0.10256 0.0
C426 C 0.85797 0.06405 0.11361 0.0
C427 C 0.84089 0.06592 0.07151 0.0
N428 N 0.85073 0.03578 0.07646 0.0
N429 N 0.84511 0.08422 0.09446 0.0
C430 C 0.94234 0.88193 0.13279 0.0
C431 C 0.91642 0.85526 0.16339 0.0
N432 N 0.91699 0.90004 0.14063 0.0
N433 N 0.90103 0.88334 0.15968 0.0
N434 N 0.9424 0.85364 0.14667 0.0
H435 H 0.97203 0.91892 0.11515 0.0
H436 H 0.99081 0.8799 0.117 0.0
H437 H 0.9603 0.88768 0.09117 0.0
C438 C 0.96799 0.89277 0.11298 0.0
C439 C 0.86861 0.07326 0.14251 0.0
H440 H 0.88798 0.05727 0.14999 0.0
H441 H 0.877 0.0985 0.14291 0.0
H442 H 0.84804 0.07092 0.1571 0.0
O443 O 0.86095 0.99896 0.15666 0.0
O444 O 0.87883 0.95151 0.16914 0.0
C445 C 0.94585 0.99733 0.13885 0.0
O446 O 0.85716 0.92245 0.11214 0.0
O447 O 0.8368 0.97002 0.10407 0.0
Zn448 Zn 0.30421 0.65311 0.88091 0.0
O449 O 0.30568 0.67769 0.8416 0.0
C450 C 0.31058 0.59094 0.85229 0.0
Zn451 Zn 0.2561 0.63194 0.87284 0.0
C452 C 0.27975 0.67622 0.82769 0.0
O453 O 0.25734 0.65815 0.83601 0.0
C454 C 0.27597 0.6123 0.92825 0.0
O455 O 0.23205 0.67102 0.89115 0.0
O456 O 0.27948 0.69336 0.89653 0.0
N457 N 0.21425 0.61285 0.85867 0.0
C458 C 0.18458 0.60818 0.86913 0.0
C459 C 0.1843 0.59213 0.8267 0.0
N460 N 0.2139 0.60292 0.83234 0.0
N461 N 0.16518 0.59518 0.84931 0.0
C462 C 0.37338 0.68314 0.87908 0.0
C463 C 0.38222 0.69139 0.92247 0.0
N464 N 0.34719 0.67308 0.89324 0.0
N465 N 0.35284 0.67824 0.92019 0.0
N466 N 0.39565 0.69485 0.89697 0.0
H467 H 0.36517 0.65806 0.84029 0.0
H468 H 0.36756 0.70102 0.83744 0.0
H469 H 0.40361 0.67801 0.84263 0.0
C470 C 0.3778 0.67969 0.84807 0.0
C471 C 0.17536 0.61553 0.89882 0.0
H472 H 0.19666 0.61748 0.91247 0.0
H473 H 0.16278 0.63895 0.89946 0.0
H474 H 0.15914 0.59673 0.90715 0.0
O475 O 0.25429 0.60695 0.91019 0.0
O476 O 0.29986 0.62985 0.92159 0.0
C477 C 0.24908 0.69502 0.898 0.0
O478 O 0.3282 0.61257 0.86312 0.0
O479 O 0.28033 0.59359 0.85387 0.0
Zn480 Zn 0.62099 0.00982 0.6185 0.0
O481 O 0.57896 0.98613 0.63168 0.0
C482 C 0.63808 0.0254 0.67677 0.0
Zn483 Zn 0.59964 0.05664 0.63094 0.0
C484 C 0.55619 0.00171 0.64301 0.0
O485 O 0.55928 0.03174 0.64697 0.0
C486 C 0.66342 0.06417 0.60318 0.0
O487 O 0.57493 0.05913 0.59215 0.0
O488 O 0.5998 0.01522 0.5793 0.0
N489 N 0.58006 0.09956 0.64421 0.0
C490 C 0.56954 0.12595 0.63057 0.0
C491 C 0.56213 0.13396 0.6742 0.0
N492 N 0.57541 0.10471 0.6713 0.0
N493 N 0.55803 0.14782 0.64895 0.0
C494 C 0.64642 0.93923 0.61617 0.0
C495 C 0.66302 0.93724 0.57392 0.0
N496 N 0.64076 0.96812 0.60449 0.0
N497 N 0.65114 0.96678 0.57829 0.0
N498 N 0.66048 0.91943 0.59736 0.0
H499 H 0.61642 0.94502 0.65271 0.0
H500 H 0.63011 0.90448 0.64645 0.0
H501 H 0.65728 0.93442 0.65972 0.0
C502 C 0.63677 0.93021 0.64538 0.0
C503 C 0.57235 0.13096 0.59958 0.0
H504 H 0.55097 0.12062 0.58912 0.0
H505 H 0.57359 0.15689 0.59448 0.0
H506 H 0.59401 0.11876 0.59136 0.0
O507 O 0.64042 0.08091 0.61298 0.0
O508 O 0.66183 0.03385 0.60454 0.0
C509 C 0.57998 0.03738 0.57405 0.0
O510 O 0.64135 0.00403 0.65803 0.0
O511 O 0.62317 0.05121 0.67088 0.0
C512 C 0.26182 0.18084 0.22642 0.0
C513 C 0.28109 0.19069 0.20394 0.0
C514 C 0.25197 0.20267 0.24702 0.0
C515 C 0.26128 0.23518 0.24478 0.0
C516 C 0.28178 0.24501 0.22274 0.0
C517 C 0.29168 0.22253 0.20267 0.0
C518 C 0.23085 0.19116 0.27068 0.0
C519 C 0.29212 0.27953 0.21968 0.0
C520 C 0.21077 0.29861 0.28147 0.0
C521 C 0.23023 0.30564 0.30448 0.0
C522 C 0.22064 0.27566 0.26162 0.0
C523 C 0.24993 0.25891 0.26571 0.0
C524 C 0.26885 0.26523 0.28962 0.0
C525 C 0.25901 0.2889 0.30842 0.0
C526 C 0.20012 0.26971 0.23609 0.0
C527 C 0.29962 0.24722 0.29529 0.0
H528 H 0.25353 0.15621 0.22737 0.0
H529 H 0.30606 0.23038 0.18504 0.0
H530 H 0.24177 0.19744 0.29115 0.0
H531 H 0.20724 0.20334 0.26962 0.0
H532 H 0.22688 0.16484 0.27001 0.0
H533 H 0.30864 0.2831 0.20168 0.0
H534 H 0.27074 0.29497 0.21661 0.0
H535 H 0.30427 0.28775 0.23907 0.0
H536 H 0.18848 0.31156 0.27866 0.0
H537 H 0.27376 0.2941 0.32659 0.0
H538 H 0.19336 0.24402 0.23494 0.0
H539 H 0.21396 0.27536 0.21684 0.0
H540 H 0.17791 0.28441 0.23618 0.0
H541 H 0.2952 0.221 0.29491 0.0
H542 H 0.31029 0.25358 0.3159 0.0
H543 H 0.31736 0.25258 0.27862 0.0
C544 C 0.47074 0.45958 0.54779 0.0
C545 C 0.43842 0.46852 0.54659 0.0
C546 C 0.49227 0.4694 0.52693 0.0
C547 C 0.48092 0.48793 0.50412 0.0
C548 C 0.44789 0.49515 0.50186 0.0
C549 C 0.42705 0.48563 0.52333 0.0
C550 C 0.52738 0.46132 0.53002 0.0
C551 C 0.43479 0.51392 0.47734 0.0
C552 C 0.5411 0.54027 0.46545 0.0
C553 C 0.54941 0.52007 0.44327 0.0
C554 C 0.51855 0.53017 0.48553 0.0
C555 C 0.50367 0.49971 0.48261 0.0
C556 C 0.51113 0.48001 0.45944 0.0
C557 C 0.53417 0.49032 0.44025 0.0
C558 C 0.51125 0.55161 0.51021 0.0
C559 C 0.49531 0.44778 0.45519 0.0
H560 H 0.47965 0.44676 0.56597 0.0
H561 H 0.40202 0.49257 0.52244 0.0
H562 H 0.53618 0.44882 0.51099 0.0
H563 H 0.54149 0.48374 0.5322 0.0
H564 H 0.53213 0.4459 0.54854 0.0
H565 H 0.4082 0.51547 0.47773 0.0
H566 H 0.44471 0.53859 0.47762 0.0
H567 H 0.44227 0.50268 0.45729 0.0
H568 H 0.55292 0.56329 0.46756 0.0
H569 H 0.5403 0.475 0.42265 0.0
H570 H 0.51794 0.53927 0.52997 0.0
H571 H 0.48516 0.5566 0.51122 0.0
H572 H 0.52434 0.57477 0.5091 0.0
H573 H 0.50274 0.43115 0.47212 0.0
H574 H 0.50169 0.43683 0.43469 0.0
H575 H 0.46885 0.45015 0.45636 0.0
C576 C 0.2076 0.78105 0.70459 0.0
C577 C 0.21789 0.813 0.70517 0.0
C578 C 0.21785 0.75925 0.72512 0.0
C579 C 0.23835 0.76992 0.74688 0.0
C580 C 0.2471 0.80262 0.74852 0.0
C581 C 0.23693 0.82375 0.72751 0.0
C582 C 0.20798 0.72452 0.72279 0.0
C583 C 0.26819 0.81504 0.77186 0.0
C584 C 0.24246 0.71764 0.81132 0.0
C585 C 0.27129 0.70102 0.80718 0.0
C586 C 0.23199 0.74078 0.7923 0.0
C587 C 0.25043 0.74687 0.76807 0.0
C588 C 0.27993 0.73051 0.76391 0.0
C589 C 0.29034 0.70794 0.78389 0.0
C590 C 0.20098 0.75835 0.798 0.0
C591 C 0.30003 0.73634 0.73811 0.0
H592 H 0.19328 0.77259 0.68713 0.0
H593 H 0.24493 0.84848 0.72794 0.0
H594 H 0.22954 0.70934 0.71973 0.0
H595 H 0.19626 0.71657 0.74247 0.0
H596 H 0.19124 0.7203 0.70506 0.0
H597 H 0.27138 0.84146 0.7709 0.0
H598 H 0.25779 0.80871 0.79253 0.0
H599 H 0.29214 0.80355 0.77063 0.0
H600 H 0.22801 0.71254 0.8297 0.0
H601 H 0.31264 0.69505 0.78088 0.0
H602 H 0.18338 0.75306 0.7812 0.0
H603 H 0.20515 0.78462 0.79793 0.0
H604 H 0.19026 0.75159 0.81849 0.0
H605 H 0.28612 0.72987 0.71909 0.0
H606 H 0.32259 0.7222 0.73829 0.0
H607 H 0.30613 0.76215 0.73643 0.0
C608 C 0.96721 0.50863 0.94231 0.0
C609 C 0.94963 0.48042 0.94666 0.0
C610 C 0.991 0.51829 0.96108 0.0
C611 C 0.9967 0.49976 0.98534 0.0
C612 C 0.97921 0.47097 0.9898 0.0
C613 C 0.95608 0.46129 0.97002 0.0
C614 C 0.00972 0.54853 0.95504 0.0
C615 C 0.98445 0.45091 0.01572 0.0
C616 C 0.0746 0.51115 0.02509 0.0
C617 C 0.06493 0.53131 0.04704 0.0
C618 C 0.05278 0.50117 0.00451 0.0
C619 C 0.02043 0.51112 0.00629 0.0
C620 C 0.01079 0.5324 0.02785 0.0
C621 C 0.03329 0.54254 0.04783 0.0
C622 C 0.06412 0.4792 0.98137 0.0
C623 C 0.97645 0.54345 0.03045 0.0
H624 H 0.96243 0.52318 0.92393 0.0
H625 H 0.94242 0.43948 0.97322 0.0
H626 H 0.00516 0.56654 0.97168 0.0
H627 H 0.03581 0.54337 0.9551 0.0
H628 H 0.0033 0.55924 0.93446 0.0
H629 H 0.96929 0.42901 0.01587 0.0
H630 H 0.00997 0.44365 0.01721 0.0
H631 H 0.97888 0.46529 0.03469 0.0
H632 H 0.09905 0.50232 0.02455 0.0
H633 H 0.02559 0.55764 0.06506 0.0
H634 H 0.05813 0.4896 0.96061 0.0
H635 H 0.0516 0.4558 0.9829 0.0
H636 H 0.09037 0.47488 0.98226 0.0
H637 H 0.96904 0.55616 0.01108 0.0
H638 H 0.9728 0.55971 0.04862 0.0
H639 H 0.96042 0.5224 0.03287 0.0
C640 C 0.70763 0.79441 0.78583 0.0
C641 C 0.73023 0.80871 0.8035 0.0
C642 C 0.71733 0.77166 0.76572 0.0
C643 C 0.75005 0.76245 0.76419 0.0
C644 C 0.77266 0.77635 0.78251 0.0
C645 C 0.76256 0.79955 0.80162 0.0
C646 C 0.69273 0.75764 0.74603 0.0
C647 C 0.80754 0.7665 0.78218 0.0
C648 C 0.77135 0.68327 0.72972 0.0
C649 C 0.78324 0.69364 0.70383 0.0
C650 C 0.76089 0.70548 0.74984 0.0
C651 C 0.76111 0.73859 0.74326 0.0
C652 C 0.77336 0.74912 0.71717 0.0
C653 C 0.78483 0.72648 0.69794 0.0
C654 C 0.74918 0.69352 0.77791 0.0
C655 C 0.77331 0.78417 0.70916 0.0
H656 H 0.68263 0.80126 0.78751 0.0
H657 H 0.78005 0.80989 0.81581 0.0
H658 H 0.69981 0.76244 0.72399 0.0
H659 H 0.69168 0.73124 0.74864 0.0
H660 H 0.66841 0.76768 0.74963 0.0
H661 H 0.82183 0.77899 0.79852 0.0
H662 H 0.80962 0.74027 0.78561 0.0
H663 H 0.81824 0.77182 0.76141 0.0
H664 H 0.76961 0.65778 0.73393 0.0
H665 H 0.79301 0.73437 0.6775 0.0
H666 H 0.72366 0.70014 0.78086 0.0
H667 H 0.76298 0.70509 0.79502 0.0
H668 H 0.75153 0.66709 0.78001 0.0
H669 H 0.74856 0.79383 0.71033 0.0
H670 H 0.78268 0.78822 0.68764 0.0
H671 H 0.78816 0.79807 0.72413 0.0
C672 C 0.76326 0.28233 0.1904 0.0
C673 C 0.73362 0.29756 0.19423 0.0
C674 C 0.774 0.25889 0.20905 0.0
C675 C 0.75489 0.25101 0.23248 0.0
C676 C 0.72457 0.26592 0.23623 0.0
C677 C 0.71399 0.28887 0.21668 0.0
C678 C 0.80608 0.24312 0.20394 0.0
C679 C 0.70377 0.25821 0.26122 0.0
C680 C 0.76956 0.17371 0.27213 0.0
C681 C 0.78728 0.18471 0.29515 0.0
C682 C 0.75977 0.19488 0.25098 0.0
C683 C 0.76719 0.22786 0.25345 0.0
C684 C 0.78627 0.23881 0.27606 0.0
C685 C 0.79644 0.21695 0.29652 0.0
C686 C 0.74042 0.18219 0.22663 0.0
C687 C 0.79444 0.27386 0.2795 0.0
H688 H 0.77813 0.28878 0.17261 0.0
H689 H 0.69105 0.30067 0.21939 0.0
H690 H 0.82325 0.25054 0.22047 0.0
H691 H 0.80381 0.21665 0.2051 0.0
H692 H 0.81634 0.24959 0.1832 0.0
H693 H 0.68066 0.27144 0.26081 0.0
H694 H 0.69867 0.23212 0.26191 0.0
H695 H 0.71667 0.26442 0.28084 0.0
H696 H 0.7623 0.14876 0.27125 0.0
H697 H 0.8095 0.22559 0.31464 0.0
H698 H 0.75132 0.18981 0.20649 0.0
H699 H 0.71584 0.1923 0.22737 0.0
H700 H 0.73868 0.15561 0.22683 0.0
H701 H 0.80625 0.28309 0.26029 0.0
H702 H 0.81051 0.27823 0.29768 0.0
H703 H 0.77211 0.28789 0.28255 0.0
C704 C 0.97008 0.95733 0.04721 0.0
C705 C 0.93765 0.96577 0.04552 0.0
C706 C 0.99208 0.96831 0.02715 0.0
C707 C 0.98114 0.98753 0.00463 0.0
C708 C 0.94806 0.99432 0.00185 0.0
C709 C 0.92673 0.98366 0.02256 0.0
C710 C 0.02721 0.96067 0.03084 0.0
C711 C 0.93538 0.01378 0.97756 0.0
C712 C 0.04177 0.04146 0.96794 0.0
C713 C 0.0507 0.02193 0.94547 0.0
C714 C 0.0189 0.03062 0.98749 0.0
C715 C 0.00432 1.00013 0.98376 0.0
C716 C 0.01243 0.98112 0.96032 0.0
C717 C 0.03572 0.99213 0.94167 0.0
C718 C 0.0109 0.05135 0.01245 0.0
C719 C 0.99708 0.94881 0.95521 0.0
H720 H 0.97869 0.94408 0.06524 0.0
H721 H 0.90164 0.99035 0.02137 0.0
H722 H 0.03675 0.94891 0.01173 0.0
H723 H 0.0409 0.98322 0.03389 0.0
H724 H 0.03166 0.94473 0.04909 0.0
H725 H 0.90878 0.01502 0.97746 0.0
H726 H 0.94501 0.03853 0.97868 0.0
H727 H 0.94351 0.00329 0.9574 0.0
H728 H 0.05331 0.06453 0.97066 0.0
H729 H 0.04225 0.9773 0.92387 0.0
H730 H 0.01732 0.03857 0.03207 0.0
H731 H 0.98474 0.05605 0.01316 0.0
H732 H 0.02377 0.07466 0.012 0.0
H733 H 0.00518 0.93161 0.97147 0.0
H734 H 0.00329 0.93887 0.93429 0.0
H735 H 0.97061 0.95058 0.95682 0.0
C736 C 0.43825 0.00337 0.46778 0.0
C737 C 0.44374 0.97575 0.45162 0.0
C738 C 0.46042 0.01362 0.4878 0.0
C739 C 0.48846 0.9954 0.49234 0.0
C740 C 0.49334 0.96645 0.47738 0.0
C741 C 0.47095 0.95702 0.45697 0.0
C742 C 0.45438 0.04465 0.50332 0.0
C743 C 0.52259 0.94595 0.48243 0.0
C744 C 0.55977 0.03826 0.52483 0.0
C745 C 0.55559 0.03042 0.55304 0.0
C746 C 0.53798 0.02697 0.50462 0.0
C747 C 0.51235 0.00675 0.51306 0.0
C748 C 0.50855 0.9986 0.54161 0.0
C749 C 0.53002 0.01093 0.5613 0.0
C750 C 0.5424 0.03649 0.47433 0.0
C751 C 0.48204 0.97665 0.55144 0.0
H752 H 0.41719 0.01795 0.46394 0.0
H753 H 0.47535 0.9357 0.44455 0.0
H754 H 0.45391 0.04026 0.52624 0.0
H755 H 0.47418 0.06176 0.49912 0.0
H756 H 0.4314 0.05609 0.49714 0.0
H757 H 0.52178 0.92315 0.47041 0.0
H758 H 0.54445 0.95934 0.47627 0.0
H759 H 0.52481 0.94025 0.50507 0.0
H760 H 0.58014 0.05276 0.51862 0.0
H761 H 0.5275 0.0044 0.58321 0.0
H762 H 0.52057 0.04887 0.4666 0.0
H763 H 0.54577 0.0148 0.46119 0.0
H764 H 0.56333 0.05259 0.4713 0.0
H765 H 0.45859 0.98888 0.54908 0.0
H766 H 0.48503 0.96961 0.57375 0.0
H767 H 0.48127 0.95459 0.53846 0.0
C768 C 0.21394 0.05655 0.92419 0.0
C769 C 0.18664 0.075 0.91818 0.0
C770 C 0.23414 0.06434 0.94667 0.0
C771 C 0.22669 0.09107 0.9637 0.0
C772 C 0.20107 0.11162 0.95599 0.0
C773 C 0.18136 0.10339 0.93317 0.0
C774 C 0.26153 0.04213 0.95377 0.0
C775 C 0.19248 0.14052 0.97347 0.0
C776 C 0.2392 0.08296 0.04202 0.0
C777 C 0.26546 0.10321 0.04682 0.0
C778 C 0.22703 0.07827 0.01498 0.0
C779 C 0.24157 0.09407 0.99198 0.0
C780 C 0.26921 0.11315 0.99641 0.0
C781 C 0.28086 0.11753 0.02386 0.0
C782 C 0.19771 0.0574 0.01125 0.0
C783 C 0.28554 0.13011 0.9724 0.0
H784 H 0.21838 0.03475 0.91241 0.0
H785 H 0.16033 0.11775 0.92864 0.0
H786 H 0.28311 0.05592 0.96006 0.0
H787 H 0.25459 0.02676 0.97176 0.0
H788 H 0.26786 0.02631 0.93586 0.0
H789 H 0.17538 0.15661 0.96247 0.0
H790 H 0.18125 0.13246 0.99335 0.0
H791 H 0.21427 0.15439 0.97899 0.0
H792 H 0.22732 0.0716 0.05962 0.0
H793 H 0.30103 0.1334 0.02743 0.0
H794 H 0.20266 0.03814 0.99581 0.0
H795 H 0.17761 0.07198 0.00292 0.0
H796 H 0.18986 0.04614 0.0312 0.0
H797 H 0.28913 0.11352 0.9545 0.0
H798 H 0.30912 0.14022 0.97864 0.0
H799 H 0.2701 0.15001 0.96495 0.0
C800 C 0.67401 0.49362 0.2904 0.0
C801 C 0.65175 0.51829 0.29492 0.0
C802 C 0.67854 0.48038 0.26371 0.0
C803 C 0.66058 0.49224 0.24075 0.0
C804 C 0.63975 0.51869 0.24472 0.0
C805 C 0.63552 0.53142 0.27184 0.0
C806 C 0.7013 0.45242 0.26046 0.0
C807 C 0.62056 0.53233 0.22072 0.0
C808 C 0.69559 0.4623 0.17259 0.0
C809 C 0.67834 0.43376 0.16864 0.0
C810 C 0.68804 0.48342 0.19451 0.0
C811 C 0.66291 0.47556 0.21317 0.0
C812 C 0.64353 0.4483 0.2077 0.0
C813 C 0.65138 0.42776 0.18533 0.0
C814 C 0.70888 0.51252 0.19915 0.0
C815 C 0.61641 0.43914 0.22703 0.0
H816 H 0.68675 0.48341 0.30809 0.0
H817 H 0.61808 0.5503 0.27516 0.0
H818 H 0.68775 0.43074 0.25402 0.0
H819 H 0.71912 0.45754 0.2438 0.0
H820 H 0.71437 0.44692 0.28018 0.0
H821 H 0.60961 0.5558 0.22617 0.0
H822 H 0.63583 0.53541 0.20187 0.0
H823 H 0.60107 0.5154 0.21513 0.0
H824 H 0.71629 0.46722 0.15953 0.0
H825 H 0.63804 0.40569 0.18241 0.0
H826 H 0.7257 0.50777 0.21668 0.0
H827 H 0.69415 0.53363 0.20501 0.0
H828 H 0.72318 0.51854 0.18022 0.0
H829 H 0.62642 0.43016 0.24712 0.0
H830 H 0.601 0.4201 0.21788 0.0
H831 H 0.60133 0.46031 0.23191 0.0
C832 C 0.26338 0.91774 0.54201 0.0
C833 C 0.23714 0.89748 0.54687 0.0
C834 C 0.27559 0.92232 0.51495 0.0
C835 C 0.26119 0.90632 0.49198 0.0
C836 C 0.23371 0.88702 0.49649 0.0
C837 C 0.22197 0.88282 0.52394 0.0
C838 C 0.30471 0.94344 0.51113 0.0
C839 C 0.21759 0.86974 0.47255 0.0
C840 C 0.28745 0.944 0.42374 0.0
C841 C 0.31495 0.92595 0.41749 0.0
C842 C 0.26775 0.93607 0.44654 0.0
C843 C 0.27584 0.90954 0.4636 0.0
C844 C 0.30168 0.88937 0.45568 0.0
C845 C 0.32092 0.89776 0.4326 0.0
C846 C 0.24018 0.95795 0.45389 0.0
C847 C 0.31094 0.86068 0.47316 0.0
H848 H 0.27512 0.92932 0.55957 0.0
H849 H 0.20185 0.86691 0.52754 0.0
H850 H 0.32492 0.92904 0.50278 0.0
H851 H 0.29953 0.96262 0.49567 0.0
H852 H 0.3125 0.95483 0.53106 0.0
H853 H 0.1944 0.85887 0.47893 0.0
H854 H 0.21327 0.88637 0.4548 0.0
H855 H 0.23354 0.8504 0.46478 0.0
H856 H 0.28249 0.96565 0.41194 0.0
H857 H 0.34212 0.88372 0.42792 0.0
H858 H 0.24712 0.97333 0.47188 0.0
H859 H 0.21883 0.9439 0.46031 0.0
H860 H 0.23348 0.97375 0.43608 0.0
H861 H 0.32235 0.86899 0.49288 0.0
H862 H 0.32811 0.84479 0.46201 0.0
H863 H 0.28944 0.84652 0.47897 0.0
C864 C 0.85118 0.5654 0.68191 0.0
C865 C 0.82275 0.56045 0.66687 0.0
C866 C 0.85925 0.54552 0.70464 0.0
C867 C 0.8386 0.5199 0.71216 0.0
C868 C 0.81201 0.51259 0.69491 0.0
C869 C 0.80425 0.5331 0.67259 0.0
C870 C 0.88796 0.55408 0.72237 0.0
C871 C 0.78985 0.48505 0.70165 0.0
C872 C 0.86546 0.46733 0.77333 0.0
C873 C 0.85087 0.48309 0.796 0.0
C874 C 0.86072 0.47805 0.74561 0.0
C875 C 0.84117 0.50524 0.7406 0.0
C876 C 0.82497 0.51998 0.76329 0.0
C877 C 0.82988 0.50862 0.79058 0.0
C878 C 0.87794 0.46133 0.72196 0.0
C879 C 0.8037 0.54892 0.759 0.0
H880 H 0.86557 0.58648 0.67763 0.0
H881 H 0.78241 0.52893 0.66081 0.0
H882 H 0.87967 0.5652 0.74224 0.0
H883 H 0.90183 0.53231 0.7279 0.0
H884 H 0.90411 0.57128 0.71157 0.0
H885 H 0.77458 0.47855 0.68343 0.0
H886 H 0.80364 0.46361 0.70828 0.0
H887 H 0.77394 0.49195 0.71928 0.0
H888 H 0.88184 0.44768 0.7773 0.0
H889 H 0.81832 0.52085 0.8079 0.0
H890 H 0.89841 0.47631 0.71496 0.0
H891 H 0.86181 0.45805 0.70369 0.0
H892 H 0.88736 0.43755 0.72846 0.0
H893 H 0.81809 0.56912 0.75057 0.0
H894 H 0.79206 0.55691 0.77874 0.0
H895 H 0.78472 0.54345 0.74344 0.0
C896 C 0.81217 0.8977 0.07133 0.0
C897 C 0.80743 0.92586 0.0868 0.0
C898 C 0.79182 0.88992 0.04886 0.0
C899 C 0.76595 0.91058 0.04208 0.0
C900 C 0.75875 0.93668 0.05994 0.0
C901 C 0.77975 0.94418 0.08197 0.0
C902 C 0.80024 0.86169 0.03049 0.0
C903 C 0.73087 0.95872 0.05405 0.0
C904 C 0.75505 0.92175 0.96396 0.0
C905 C 0.7299 0.90054 0.95788 0.0
C906 C 0.76603 0.92604 0.99142 0.0
C907 C 0.7513 0.90897 0.01361 0.0
C908 C 0.72436 0.88929 0.00798 0.0
C909 C 0.71401 0.88518 0.98008 0.0
C910 C 0.79469 0.9475 0.99638 0.0
C911 C 0.7076 0.8712 0.03109 0.0
H912 H 0.83347 0.8834 0.07498 0.0
H913 H 0.77571 0.96577 0.09414 0.0
H914 H 0.77845 0.84788 0.0249 0.0
H915 H 0.81109 0.87051 0.0107 0.0
H916 H 0.81761 0.84532 0.04083 0.0
H917 H 0.72438 0.97318 0.07276 0.0
H918 H 0.73741 0.97542 0.03687 0.0
H919 H 0.70954 0.94492 0.04715 0.0
H920 H 0.7673 0.93393 0.94697 0.0
H921 H 0.69464 0.86865 0.97557 0.0
H922 H 0.81501 0.93308 0.00453 0.0
H923 H 0.78892 0.96593 0.01236 0.0
H924 H 0.80267 0.95988 0.97697 0.0
H925 H 0.72221 0.85005 0.03705 0.0
H926 H 0.68357 0.86262 0.02442 0.0
H927 H 0.70485 0.88638 0.05004 0.0
C928 C 0.30501 0.53902 0.82701 0.0
C929 C 0.32404 0.56557 0.83409 0.0
C930 C 0.31295 0.51926 0.80427 0.0
C931 C 0.34044 0.5264 0.78809 0.0
C932 C 0.36143 0.5512 0.79686 0.0
C933 C 0.35303 0.57047 0.8199 0.0
C934 C 0.29022 0.49273 0.79601 0.0
C935 C 0.39112 0.55945 0.78029 0.0
C936 C 0.36709 0.47266 0.72772 0.0
C937 C 0.35381 0.48885 0.70468 0.0
C938 C 0.36237 0.48401 0.75522 0.0
C939 C 0.34402 0.51213 0.75963 0.0
C940 C 0.32939 0.52762 0.73652 0.0
C941 C 0.33439 0.51574 0.70942 0.0
C942 C 0.37809 0.46671 0.77935 0.0
C943 C 0.30935 0.55751 0.74023 0.0
H944 H 0.28273 0.53486 0.83816 0.0
H945 H 0.36785 0.59092 0.82527 0.0
H946 H 0.27575 0.50058 0.77774 0.0
H947 H 0.30358 0.47091 0.78968 0.0
H948 H 0.27356 0.48644 0.81333 0.0
H949 H 0.40731 0.57576 0.79206 0.0
H950 H 0.40455 0.53744 0.77462 0.0
H951 H 0.38403 0.57148 0.76048 0.0
H952 H 0.38229 0.45197 0.72421 0.0
H953 H 0.32382 0.52823 0.69177 0.0
H954 H 0.36069 0.46283 0.79661 0.0
H955 H 0.39785 0.48163 0.78783 0.0
H956 H 0.38812 0.44316 0.77291 0.0
H957 H 0.28939 0.55281 0.75503 0.0
H958 H 0.29908 0.56621 0.72014 0.0
H959 H 0.32424 0.57694 0.74936 0.0
C960 C 0.73792 0.0866 0.46065 0.0
C961 C 0.76458 0.10612 0.45526 0.0
C962 C 0.72621 0.08245 0.48793 0.0
C963 C 0.74153 0.09816 0.51059 0.0
C964 C 0.7693 0.11686 0.50553 0.0
C965 C 0.78054 0.12062 0.47787 0.0
C966 C 0.69673 0.06197 0.49232 0.0
C967 C 0.78634 0.13387 0.52913 0.0
C968 C 0.68315 0.10706 0.57085 0.0
C969 C 0.68887 0.07854 0.58555 0.0
C970 C 0.70223 0.11555 0.54769 0.0
C971 C 0.72763 0.09509 0.53926 0.0
C972 C 0.73564 0.06828 0.55601 0.0
C973 C 0.71613 0.0603 0.57892 0.0
C974 C 0.69311 0.14459 0.5306 0.0
C975 C 0.76275 0.04608 0.54811 0.0
H976 H 0.72552 0.07518 0.44335 0.0
H977 H 0.801 0.13596 0.47386 0.0
H978 H 0.70192 0.04263 0.50763 0.0
H979 H 0.67707 0.07678 0.50114 0.0
H980 H 0.68813 0.05082 0.47255 0.0
H981 H 0.80954 0.14434 0.52228 0.0
H982 H 0.77093 0.15348 0.5372 0.0
H983 H 0.79083 0.11717 0.54679 0.0
H984 H 0.66216 0.12129 0.57583 0.0
H985 H 0.72093 0.03839 0.59042 0.0
H986 H 0.68085 0.13669 0.51114 0.0
H987 H 0.71473 0.15829 0.52433 0.0
H988 H 0.67668 0.16077 0.54226 0.0
H989 H 0.75517 0.03084 0.53023 0.0
H990 H 0.76964 0.03014 0.56577 0.0
H991 H 0.78413 0.05986 0.54135 0.0
C992 C 0.14579 0.43206 0.321 0.0
C993 C 0.17397 0.43798 0.33613 0.0
C994 C 0.13742 0.45136 0.29794 0.0
C995 C 0.15759 0.47723 0.2901 0.0
C996 C 0.18399 0.48537 0.3073 0.0
C997 C 0.19193 0.46558 0.33003 0.0
C998 C 0.10886 0.44201 0.28034 0.0
C999 C 0.20583 0.51302 0.30008 0.0
C1000 C 0.16714 0.48884 0.21173 0.0
C1001 C 0.14698 0.51504 0.20633 0.0
C1002 C 0.1712 0.47693 0.23894 0.0
C1003 C 0.15477 0.49157 0.26156 0.0
C1004 C 0.13554 0.51898 0.25654 0.0
C1005 C 0.13184 0.53042 0.22892 0.0
C1006 C 0.19226 0.44785 0.24329 0.0
C1007 C 0.11784 0.53537 0.28009 0.0
H1008 H 0.13181 0.41078 0.32558 0.0
H1009 H 0.21357 0.4705 0.34187 0.0
H1010 H 0.09482 0.46349 0.27426 0.0
H1011 H 0.11732 0.43036 0.26077 0.0
H1012 H 0.09283 0.42501 0.29151 0.0
H1013 H 0.22131 0.51989 0.31805 0.0
H1014 H 0.22153 0.50605 0.28231 0.0
H1015 H 0.19177 0.53427 0.2934 0.0
H1016 H 0.17903 0.47685 0.19444 0.0
H1017 H 0.116 0.55051 0.22492 0.0
H1018 H 0.17773 0.42773 0.25167 0.0
H1019 H 0.2112 0.45322 0.25892 0.0
H1020 H 0.20395 0.43979 0.22359 0.0
H1021 H 0.09822 0.51961 0.28759 0.0
H1022 H 0.10728 0.5586 0.27341 0.0
H1023 H 0.13409 0.5397 0.29811 0.0
C1024 C 0.77739 0.61998 0.52473 0.0
C1025 C 0.76207 0.60624 0.54801 0.0
C1026 C 0.76544 0.61523 0.49742 0.0
C1027 C 0.73761 0.59629 0.49341 0.0
C1028 C 0.72296 0.5813 0.51676 0.0
C1029 C 0.73538 0.58641 0.54367 0.0
C1030 C 0.78182 0.63143 0.47304 0.0
C1031 C 0.69346 0.5606 0.51349 0.0
C1032 C 0.67859 0.6034 0.43329 0.0
C1033 C 0.68444 0.57467 0.41895 0.0
C1034 C 0.6976 0.61233 0.45637 0.0
C1035 C 0.72308 0.59212 0.46509 0.0
C1036 C 0.73098 0.56485 0.44888 0.0
C1037 C 0.71151 0.55641 0.42608 0.0
C1038 C 0.68852 0.64177 0.47295 0.0
C1039 C 0.75815 0.54287 0.45712 0.0
H1040 H 0.79787 0.63556 0.52793 0.0
H1041 H 0.72354 0.57551 0.5615 0.0
H1042 H 0.7863 0.61399 0.45592 0.0
H1043 H 0.76596 0.6504 0.46448 0.0
H1044 H 0.80497 0.64256 0.47921 0.0
H1045 H 0.68534 0.55021 0.53372 0.0
H1046 H 0.67356 0.57502 0.50457 0.0
H1047 H 0.69835 0.54069 0.49867 0.0
H1048 H 0.6577 0.6176 0.42792 0.0
H1049 H 0.7164 0.53433 0.41486 0.0
H1050 H 0.71015 0.65588 0.47851 0.0
H1051 H 0.67685 0.63435 0.49283 0.0
H1052 H 0.67166 0.65744 0.46124 0.0
H1053 H 0.7797 0.55685 0.4631 0.0
H1054 H 0.76466 0.52612 0.43992 0.0
H1055 H 0.75088 0.52847 0.47562 0.0
C1056 C 0.13321 0.03507 0.77254 0.0
C1057 C 0.14873 0.01996 0.79508 0.0
C1058 C 0.13722 0.02389 0.74488 0.0
C1059 C 0.15711 0.99699 0.73975 0.0
C1060 C 0.17426 0.98294 0.76225 0.0
C1061 C 0.16994 0.99464 0.78952 0.0
C1062 C 0.11887 0.03979 0.72145 0.0
C1063 C 0.19601 0.9544 0.75779 0.0
C1064 C 0.14701 0.93611 0.68152 0.0
C1065 C 0.17471 0.94189 0.6657 0.0
C1066 C 0.13914 0.95585 0.70443 0.0
C1067 C 0.15928 0.98209 0.71137 0.0
C1068 C 0.18505 0.99011 0.69342 0.0
C1069 C 0.19256 0.96981 0.67089 0.0
C1070 C 0.11125 0.94658 0.72287 0.0
C1071 C 0.20671 0.01822 0.6996 0.0
H1072 H 0.1166 0.0545 0.77664 0.0
H1073 H 0.18216 0.9829 0.80675 0.0
H1074 H 0.13446 0.04346 0.70288 0.0
H1075 H 0.0988 0.02404 0.7149 0.0
H1076 H 0.10877 0.0633 0.72795 0.0
H1077 H 0.20849 0.94704 0.77733 0.0
H1078 H 0.18179 0.93374 0.75002 0.0
H1079 H 0.21432 0.95999 0.74166 0.0
H1080 H 0.13314 0.91457 0.67768 0.0
H1081 H 0.21385 0.97459 0.65854 0.0
H1082 H 0.09699 0.96801 0.72871 0.0
H1083 H 0.12047 0.93575 0.74254 0.0
H1084 H 0.09522 0.92893 0.71249 0.0
H1085 H 0.19259 0.03936 0.70642 0.0
H1086 H 0.22135 0.02497 0.68107 0.0
H1087 H 0.22323 0.01181 0.71695 0.0
C1088 C 0.75912 0.42135 0.04112 0.0
C1089 C 0.73366 0.40012 0.04602 0.0
C1090 C 0.77111 0.42633 0.01406 0.0
C1091 C 0.75711 0.40994 0.99112 0.0
C1092 C 0.72989 0.39027 0.99559 0.0
C1093 C 0.7185 0.38549 0.02307 0.0
C1094 C 0.8 0.44779 0.01032 0.0
C1095 C 0.71394 0.37287 0.97163 0.0
C1096 C 0.78609 0.44645 0.92336 0.0
C1097 C 0.81354 0.42796 0.91805 0.0
C1098 C 0.76532 0.43888 0.94551 0.0
C1099 C 0.77249 0.41248 0.96302 0.0
C1100 C 0.79839 0.39193 0.95603 0.0
C1101 C 0.81855 0.39982 0.93344 0.0
C1102 C 0.73755 0.46096 0.95174 0.0
C1103 C 0.80679 0.36344 0.97409 0.0
H1104 H 0.77086 0.43292 0.0587 0.0
H1105 H 0.69892 0.3689 0.02667 0.0
H1106 H 0.82055 0.43347 0.00246 0.0
H1107 H 0.79488 0.4666 0.99452 0.0
H1108 H 0.8073 0.45965 0.03017 0.0
H1109 H 0.6901 0.36322 0.97767 0.0
H1110 H 0.71097 0.38897 0.9533 0.0
H1111 H 0.72929 0.35255 0.96492 0.0
H1112 H 0.7819 0.46807 0.91127 0.0
H1113 H 0.83974 0.38548 0.92944 0.0
H1114 H 0.74397 0.47693 0.96948 0.0
H1115 H 0.71602 0.4471 0.95801 0.0
H1116 H 0.73141 0.47618 0.9334 0.0
H1117 H 0.81721 0.37198 0.99416 0.0
H1118 H 0.82448 0.34741 0.96376 0.0
H1119 H 0.78502 0.34935 0.97921 0.0
C1120 C 0.30814 0.03265 0.17146 0.0
C1121 C 0.32599 0.06054 0.16618 0.0
C1122 C 0.31596 0.01224 0.1938 0.0
C1123 C 0.34203 0.02013 0.21145 0.0
C1124 C 0.36218 0.04628 0.20434 0.0
C1125 C 0.354 0.06614 0.18163 0.0
C1126 C 0.29429 0.98419 0.20017 0.0
C1127 C 0.39041 0.05536 0.22246 0.0
C1128 C 0.33223 0.00825 0.28967 0.0
C1129 C 0.35337 0.98288 0.29516 0.0
C1130 C 0.3276 0.01972 0.26239 0.0
C1131 C 0.3444 0.00538 0.23983 0.0
C1132 C 0.36422 0.97842 0.24491 0.0
C1133 C 0.36853 0.96747 0.27259 0.0
C1134 C 0.30591 0.04831 0.25797 0.0
C1135 C 0.38221 0.96224 0.22141 0.0
H1136 H 0.28665 0.02797 0.15933 0.0
H1137 H 0.36791 0.08763 0.17767 0.0
H1138 H 0.30842 0.96302 0.2069 0.0
H1139 H 0.27796 0.99067 0.21764 0.0
H1140 H 0.27945 0.97746 0.18175 0.0
H1141 H 0.40641 0.07289 0.21189 0.0
H1142 H 0.38157 0.06628 0.24223 0.0
H1143 H 0.4046 0.03384 0.22815 0.0
H1144 H 0.32028 0.02019 0.30695 0.0
H1145 H 0.38508 0.94798 0.27666 0.0
H1146 H 0.28739 0.04268 0.24203 0.0
H1147 H 0.32012 0.06886 0.24997 0.0
H1148 H 0.29368 0.05587 0.27757 0.0
H1149 H 0.36649 0.95878 0.2029 0.0
H1150 H 0.392 0.9386 0.22789 0.0
H1151 H 0.40249 0.97769 0.21479 0.0
C1152 C 0.3158 0.39789 0.5711 0.0
C1153 C 0.3098 0.42568 0.58675 0.0
C1154 C 0.29591 0.38948 0.54846 0.0
C1155 C 0.26927 0.40913 0.54165 0.0
C1156 C 0.26101 0.43488 0.55955 0.0
C1157 C 0.2815 0.44299 0.58178 0.0
C1158 C 0.30549 0.36165 0.53006 0.0
C1159 C 0.23241 0.45594 0.55356 0.0
C1160 C 0.25685 0.41992 0.46358 0.0
C1161 C 0.23206 0.39817 0.45782 0.0
C1162 C 0.2683 0.42435 0.49089 0.0
C1163 C 0.25447 0.40682 0.51326 0.0
C1164 C 0.22803 0.38638 0.50795 0.0
C1165 C 0.21714 0.3822 0.48021 0.0
C1166 C 0.29638 0.44666 0.49552 0.0
C1167 C 0.21231 0.36767 0.53125 0.0
H1168 H 0.33762 0.38442 0.57481 0.0
H1169 H 0.27654 0.46432 0.59404 0.0
H1170 H 0.28426 0.34705 0.52434 0.0
H1171 H 0.31608 0.37096 0.51032 0.0
H1172 H 0.32342 0.34592 0.54041 0.0
H1173 H 0.22545 0.47035 0.57218 0.0
H1174 H 0.23837 0.47269 0.53625 0.0
H1175 H 0.21154 0.4414 0.54678 0.0
H1176 H 0.26839 0.43253 0.44646 0.0
H1177 H 0.1981 0.36521 0.47595 0.0
H1178 H 0.31724 0.43285 0.50344 0.0
H1179 H 0.29029 0.46489 0.51159 0.0
H1180 H 0.30368 0.45927 0.47603 0.0
H1181 H 0.22817 0.34757 0.53754 0.0
H1182 H 0.18885 0.35755 0.52471 0.0
H1183 H 0.20864 0.383 0.54999 0.0
C1184 C 0.86672 0.96669 0.22725 0.0
C1185 C 0.85531 0.98507 0.2047 0.0
C1186 C 0.86163 0.97652 0.25516 0.0
C1187 C 0.84482 0.00538 0.26052 0.0
C1188 C 0.83221 0.02329 0.23782 0.0
C1189 C 0.83754 0.01289 0.2103 0.0
C1190 C 0.87523 0.95669 0.27878 0.0
C1191 C 0.81388 0.0541 0.24251 0.0
C1192 C 0.8041 0.03081 0.32755 0.0
C1193 C 0.82405 0.05606 0.33618 0.0
C1194 C 0.81218 0.01161 0.30445 0.0
C1195 C 0.84082 0.01793 0.28957 0.0
C1196 C 0.86274 0.04091 0.30017 0.0
C1197 C 0.85414 0.05966 0.32347 0.0
C1198 C 0.7884 0.98695 0.29426 0.0
C1199 C 0.89373 0.04816 0.28513 0.0
H1200 H 0.88062 0.94524 0.22313 0.0
H1201 H 0.82844 0.02715 0.19306 0.0
H1202 H 0.89552 0.96972 0.28857 0.0
H1203 H 0.85692 0.95282 0.2953 0.0
H1204 H 0.88403 0.933 0.27141 0.0
H1205 H 0.80508 0.06478 0.22261 0.0
H1206 H 0.793 0.04967 0.25638 0.0
H1207 H 0.82948 0.07189 0.25314 0.0
H1208 H 0.78096 0.02757 0.33751 0.0
H1209 H 0.86976 0.07903 0.33003 0.0
H1210 H 0.80079 0.96486 0.28719 0.0
H1211 H 0.77506 0.99677 0.27606 0.0
H1212 H 0.77079 0.98051 0.3108 0.0
H1213 H 0.90591 0.02571 0.27868 0.0
H1214 H 0.91038 0.06242 0.29837 0.0
H1215 H 0.88848 0.06208 0.26584 0.0
C1216 C 0.18802 0.6048 0.07207 0.0
C1217 C 0.19368 0.57693 0.0877 0.0
C1218 C 0.20764 0.61266 0.0491 0.0
C1219 C 0.23365 0.59234 0.04192 0.0
C1220 C 0.24166 0.56647 0.05976 0.0
C1221 C 0.22146 0.55895 0.08234 0.0
C1222 C 0.19839 0.64067 0.03079 0.0
C1223 C 0.26958 0.54465 0.05335 0.0
C1224 C 0.24474 0.58153 0.96365 0.0
C1225 C 0.27001 0.60265 0.95773 0.0
C1226 C 0.23355 0.57726 0.99108 0.0
C1227 C 0.2481 0.59435 0.01337 0.0
C1228 C 0.275 0.6141 0.00786 0.0
C1229 C 0.28564 0.61809 0.98004 0.0
C1230 C 0.20499 0.55565 0.99594 0.0
C1231 C 0.29146 0.63235 0.03106 0.0
H1232 H 0.16658 0.61878 0.07606 0.0
H1233 H 0.22615 0.53753 0.09456 0.0
H1234 H 0.21986 0.65476 0.02478 0.0
H1235 H 0.18724 0.63159 0.01121 0.0
H1236 H 0.18101 0.65683 0.04137 0.0
H1237 H 0.27651 0.53006 0.07187 0.0
H1238 H 0.26286 0.52808 0.03613 0.0
H1239 H 0.2907 0.55865 0.04627 0.0
H1240 H 0.23261 0.56936 0.94659 0.0
H1241 H 0.30506 0.63462 0.97567 0.0
H1242 H 0.18455 0.56999 0.004 0.0
H1243 H 0.21078 0.5373 0.01198 0.0
H1244 H 0.19719 0.54321 0.9765 0.0
H1245 H 0.27611 0.65272 0.03765 0.0
H1246 H 0.31502 0.64205 0.02429 0.0
H1247 H 0.29513 0.61683 0.04968 0.0
C1248 C 0.66751 0.99124 0.71093 0.0
C1249 C 0.64762 0.01773 0.70592 0.0
C1250 C 0.67218 0.97941 0.7381 0.0
C1251 C 0.65666 0.99448 0.76099 0.0
C1252 C 0.63791 0.02228 0.75633 0.0
C1253 C 0.6336 0.03362 0.72878 0.0
C1254 C 0.69272 0.94991 0.74209 0.0
C1255 C 0.62119 0.03912 0.7802 0.0
C1256 C 0.64685 0.9353 0.82052 0.0
C1257 C 0.67527 0.94059 0.83547 0.0
C1258 C 0.6388 0.95471 0.79746 0.0
C1259 C 0.65958 0.98 0.78943 0.0
C1260 C 0.68634 0.98753 0.80639 0.0
C1261 C 0.69391 0.96768 0.82918 0.0
C1262 C 0.60981 0.9461 0.78011 0.0
C1263 C 0.70884 0.01455 0.79891 0.0
H1264 H 0.6786 0.97896 0.69341 0.0
H1265 H 0.618 0.05397 0.72506 0.0
H1266 H 0.71202 0.95483 0.7575 0.0
H1267 H 0.67792 0.93006 0.75059 0.0
H1268 H 0.70391 0.94171 0.72221 0.0
H1269 H 0.61118 0.06266 0.77372 0.0
H1270 H 0.60126 0.02392 0.78796 0.0
H1271 H 0.63792 0.04292 0.79798 0.0
H1272 H 0.63232 0.91445 0.82526 0.0
H1273 H 0.71573 0.97214 0.8409 0.0
H1274 H 0.61774 0.9344 0.76039 0.0
H1275 H 0.59617 0.96793 0.77428 0.0
H1276 H 0.59354 0.92938 0.79135 0.0
H1277 H 0.7241 0.00712 0.781 0.0
H1278 H 0.72474 0.02103 0.81672 0.0
H1279 H 0.69529 0.03616 0.79234 0.0
C1280 C 0.43422 0.23463 0.08753 0.0
C1281 C 0.42577 0.21041 0.1065 0.0
C1282 C 0.46417 0.24995 0.08902 0.0
C1283 C 0.48638 0.24085 0.11005 0.0
C1284 C 0.47782 0.21664 0.12952 0.0
C1285 C 0.44779 0.20141 0.12726 0.0
C1286 C 0.47238 0.27527 0.06757 0.0
C1287 C 0.50068 0.20628 0.1523 0.0
C1288 C 0.57427 0.2562 0.09337 0.0
C1289 C 0.58011 0.28519 0.10732 0.0
C1290 C 0.54419 0.24114 0.0947 0.0
C1291 C 0.51917 0.25537 0.11045 0.0
C1292 C 0.52511 0.28438 0.12508 0.0
C1293 C 0.55538 0.29918 0.12301 0.0
C1294 C 0.53891 0.21053 0.07842 0.0
C1295 C 0.49919 0.30027 0.14222 0.0
H1296 H 0.41736 0.2413 0.07126 0.0
H1297 H 0.44181 0.18188 0.1413 0.0
H1298 H 0.47932 0.29789 0.07819 0.0
H1299 H 0.49324 0.26733 0.05492 0.0
H1300 H 0.45208 0.28035 0.05316 0.0
H1301 H 0.48949 0.18905 0.16711 0.0
H1302 H 0.52205 0.19479 0.14279 0.0
H1303 H 0.50917 0.22746 0.16427 0.0
H1304 H 0.59327 0.24563 0.08094 0.0
H1305 H 0.55936 0.32224 0.13285 0.0
H1306 H 0.5204 0.21449 0.06207 0.0
H1307 H 0.52989 0.19142 0.09252 0.0
H1308 H 0.56116 0.20191 0.06809 0.0
H1309 H 0.47976 0.30874 0.12819 0.0
H1310 H 0.5084 0.32106 0.15436 0.0
H1311 H 0.48843 0.28277 0.15701 0.0
C1312 C 0.55143 0.70164 0.34149 0.0
C1313 C 0.54236 0.67539 0.358 0.0
C1314 C 0.53594 0.73141 0.344 0.0
C1315 C 0.51021 0.73494 0.36316 0.0
C1316 C 0.5014 0.70866 0.38038 0.0
C1317 C 0.51764 0.6792 0.37763 0.0
C1318 C 0.54643 0.75877 0.32543 0.0
C1319 C 0.4739 0.71123 0.4008 0.0
C1320 C 0.48362 0.82073 0.37885 0.0
C1321 C 0.4591 0.82502 0.35912 0.0
C1322 C 0.49983 0.79119 0.38116 0.0
C1323 C 0.49115 0.76533 0.36339 0.0
C1324 C 0.46556 0.76933 0.34417 0.0
C1325 C 0.45012 0.79916 0.3421 0.0
C1326 C 0.52717 0.78812 0.40168 0.0
C1327 C 0.45519 0.74241 0.32503 0.0
H1328 H 0.57049 0.69863 0.32628 0.0
H1329 H 0.51011 0.65873 0.38995 0.0
H1330 H 0.52701 0.76473 0.31041 0.0
H1331 H 0.55105 0.78052 0.3382 0.0
H1332 H 0.56843 0.75295 0.31334 0.0
H1333 H 0.4718 0.68965 0.41433 0.0
H1334 H 0.47687 0.73263 0.41435 0.0
H1335 H 0.45113 0.71428 0.38907 0.0
H1336 H 0.49107 0.8409 0.39158 0.0
H1337 H 0.4312 0.80255 0.32681 0.0
H1338 H 0.55003 0.7854 0.39003 0.0
H1339 H 0.52412 0.76637 0.41479 0.0
H1340 H 0.52914 0.80935 0.41565 0.0
H1341 H 0.47469 0.73685 0.30999 0.0
H1342 H 0.43325 0.74852 0.31296 0.0
H1343 H 0.45052 0.72035 0.33737 0.0
C1344 C 0.93798 0.72646 0.58241 0.0
C1345 C 0.92346 0.71393 0.6065 0.0
C1346 C 0.96676 0.74391 0.58402 0.0
C1347 C 0.98197 0.74823 0.61034 0.0
C1348 C 0.96706 0.73604 0.63485 0.0
C1349 C 0.93787 0.71922 0.63264 0.0
C1350 C 0.98139 0.7569 0.55739 0.0
C1351 C 0.98266 0.73951 0.66322 0.0
C1352 C 0.07245 0.75926 0.6058 0.0
C1353 C 0.07579 0.79245 0.60905 0.0
C1354 C 0.04224 0.74446 0.60741 0.0
C1355 C 0.01447 0.76343 0.61173 0.0
C1356 C 0.01784 0.79701 0.61557 0.0
C1357 C 0.04853 0.8111 0.61429 0.0
C1358 C 0.03997 0.7086 0.60361 0.0
C1359 C 0.98894 0.81819 0.6198 0.0
H1360 H 0.92683 0.72224 0.56222 0.0
H1361 H 0.92697 0.70895 0.6512 0.0
H1362 H 0.98707 0.78273 0.55986 0.0
H1363 H 0.00422 0.74425 0.55295 0.0
H1364 H 0.96526 0.75394 0.53904 0.0
H1365 H 0.967 0.73075 0.68043 0.0
H1366 H 0.00538 0.72569 0.66362 0.0
H1367 H 0.98881 0.76496 0.66728 0.0
H1368 H 0.09361 0.74499 0.60156 0.0
H1369 H 0.05117 0.83685 0.61622 0.0
H1370 H 0.02703 0.70311 0.58386 0.0
H1371 H 0.02608 0.69778 0.62104 0.0
H1372 H 0.06393 0.69702 0.60275 0.0
H1373 H 0.97392 0.81787 0.6006 0.0
H1374 H 0.99571 0.8434 0.62444 0.0
H1375 H 0.97395 0.80898 0.63724 0.0
C1376 C 0.93946 0.30089 0.86544 0.0
C1377 C 0.95962 0.32712 0.86034 0.0
C1378 C 0.95188 0.26947 0.86671 0.0
C1379 C 0.98526 0.26433 0.8631 0.0
C1380 C 0.00575 0.29104 0.85912 0.0
C1381 C 0.99263 0.32197 0.85749 0.0
C1382 C 0.92916 0.2417 0.87062 0.0
C1383 C 0.04149 0.28689 0.85562 0.0
C1384 C 0.02712 0.18623 0.88309 0.0
C1385 C 0.03239 0.17237 0.85672 0.0
C1386 C 0.01058 0.21553 0.88573 0.0
C1387 C 0.9988 0.23115 0.86141 0.0
C1388 C 0.00282 0.21635 0.83488 0.0
C1389 C 0.01989 0.1874 0.83286 0.0
C1390 C 0.00732 0.23063 0.91433 0.0
C1391 C 0.99032 0.23181 0.80843 0.0
H1392 H 0.91387 0.30484 0.86716 0.0
H1393 H 0.00815 0.34232 0.85358 0.0
H1394 H 0.92853 0.22709 0.85119 0.0
H1395 H 0.93763 0.22586 0.88777 0.0
H1396 H 0.9044 0.24977 0.87549 0.0
H1397 H 0.05434 0.31021 0.85503 0.0
H1398 H 0.05135 0.27232 0.87306 0.0
H1399 H 0.04652 0.27385 0.83583 0.0
H1400 H 0.03738 0.17495 0.90148 0.0
H1401 H 0.02409 0.17668 0.81249 0.0
H1402 H 0.98222 0.23827 0.91807 0.0
H1403 H 0.02254 0.25241 0.91542 0.0
H1404 H 0.01468 0.21403 0.93137 0.0
H1405 H 0.96481 0.23869 0.81106 0.0
H1406 H 0.99241 0.21571 0.78997 0.0
H1407 H 0.00403 0.25405 0.80408 0.0
C1408 C 0.54843 0.80318 0.90721 0.0
C1409 C 0.57461 0.79442 0.89051 0.0
C1410 C 0.51889 0.78727 0.90496 0.0
C1411 C 0.51557 0.76143 0.88589 0.0
C1412 C 0.54173 0.75302 0.86839 0.0
C1413 C 0.57095 0.76971 0.87085 0.0
C1414 C 0.49161 0.79736 0.9238 0.0
C1415 C 0.53934 0.72543 0.84804 0.0
C1416 C 0.45284 0.70049 0.9082 0.0
C1417 C 0.42654 0.70902 0.89156 0.0
C1418 C 0.48239 0.71632 0.90554 0.0
C1419 C 0.48559 0.74182 0.88612 0.0
C1420 C 0.45928 0.75001 0.86871 0.0
C1421 C 0.43005 0.73343 0.87161 0.0
C1422 C 0.50984 0.7065 0.92431 0.0
C1423 C 0.46152 0.77726 0.84801 0.0
H1424 H 0.55137 0.82225 0.92243 0.0
H1425 H 0.5914 0.76249 0.85836 0.0
H1426 H 0.46958 0.80144 0.91127 0.0
H1427 H 0.4863 0.77795 0.93901 0.0
H1428 H 0.49718 0.81958 0.93569 0.0
H1429 H 0.56066 0.72381 0.83416 0.0
H1430 H 0.53708 0.70262 0.85984 0.0
H1431 H 0.51758 0.72788 0.83484 0.0
H1432 H 0.45002 0.68166 0.92365 0.0
H1433 H 0.40951 0.74052 0.85918 0.0
H1434 H 0.51532 0.72615 0.93923 0.0
H1435 H 0.53174 0.70218 0.91167 0.0
H1436 H 0.50435 0.68448 0.93651 0.0
H1437 H 0.46394 0.80026 0.85951 0.0
H1438 H 0.44006 0.7787 0.83427 0.0
H1439 H 0.48314 0.77456 0.83468 0.0
C1440 C 0.44847 0.30044 0.66089 0.0
C1441 C 0.45682 0.32638 0.64375 0.0
C1442 C 0.4646 0.27096 0.6589 0.0
C1443 C 0.49027 0.26749 0.63967 0.0
C1444 C 0.49841 0.29349 0.62188 0.0
C1445 C 0.4815 0.32261 0.62408 0.0
C1446 C 0.4548 0.24384 0.67803 0.0
C1447 C 0.52585 0.291 0.60139 0.0
C1448 C 0.55186 0.2048 0.66096 0.0
C1449 C 0.54333 0.17862 0.64416 0.0
C1450 C 0.53571 0.23425 0.6588 0.0
C1451 C 0.50984 0.23745 0.63974 0.0
C1452 C 0.50152 0.21121 0.62229 0.0
C1453 C 0.51844 0.18212 0.62466 0.0
C1454 C 0.5457 0.26163 0.67758 0.0
C1455 C 0.47386 0.21343 0.602 0.0
H1456 H 0.42946 0.30346 0.67614 0.0
H1457 H 0.48847 0.3429 0.61129 0.0
H1458 H 0.45049 0.22172 0.66567 0.0
H1459 H 0.47446 0.2386 0.69301 0.0
H1460 H 0.4328 0.24953 0.69017 0.0
H1461 H 0.52758 0.31238 0.5876 0.0
H1462 H 0.54872 0.28843 0.61307 0.0
H1463 H 0.52311 0.26934 0.58811 0.0
H1464 H 0.57104 0.20199 0.67609 0.0
H1465 H 0.51134 0.16166 0.61213 0.0
H1466 H 0.5262 0.26707 0.69266 0.0
H1467 H 0.54989 0.28358 0.66496 0.0
H1468 H 0.56783 0.2561 0.6896 0.0
H1469 H 0.45111 0.21615 0.61382 0.0
H1470 H 0.47199 0.19185 0.58843 0.0
H1471 H 0.47646 0.2349 0.58847 0.0
C1472 C 0.0742 0.25442 0.39387 0.0
C1473 C 0.07838 0.28765 0.39176 0.0
C1474 C 0.04364 0.24048 0.39214 0.0
C1475 C 0.01634 0.26032 0.38881 0.0
C1476 C 0.02048 0.29393 0.38599 0.0
C1477 C 0.05154 0.30721 0.38734 0.0
C1478 C 0.04054 0.20453 0.39479 0.0
C1479 C 0.99205 0.31597 0.3828 0.0
C1480 C 0.93918 0.21732 0.36796 0.0
C1481 C 0.92542 0.21105 0.3942 0.0
C1482 C 0.96816 0.23447 0.3657 0.0
C1483 C 0.98358 0.24579 0.39027 0.0
C1484 C 0.96898 0.24058 0.41672 0.0
C1485 C 0.94032 0.22297 0.41835 0.0
C1486 C 0.98307 0.23901 0.33716 0.0
C1487 C 0.98427 0.25253 0.44343 0.0
H1488 H 0.09502 0.23938 0.39726 0.0
H1489 H 0.05475 0.33294 0.38619 0.0
H1490 H 0.02775 0.19851 0.41449 0.0
H1491 H 0.02615 0.1948 0.37717 0.0
H1492 H 0.06422 0.19234 0.39499 0.0
H1493 H 0.99937 0.34113 0.37861 0.0
H1494 H 0.97639 0.30767 0.36546 0.0
H1495 H 0.97752 0.31546 0.40228 0.0
H1496 H 0.92803 0.20751 0.34933 0.0
H1497 H 0.92967 0.21802 0.43862 0.0
H1498 H 0.00534 0.22455 0.33572 0.0
H1499 H 0.98987 0.26445 0.33396 0.0
H1500 H 0.96669 0.23159 0.31997 0.0
H1501 H 0.00694 0.23934 0.44728 0.0
H1502 H 0.96839 0.24928 0.46192 0.0
H1503 H 0.99037 0.27833 0.4415 0.0
C1504 C 0.0094 0.67782 0.14219 0.0
C1505 C 0.04276 0.67475 0.14092 0.0
C1506 C 0.99461 0.70802 0.14051 0.0
C1507 C 0.01375 0.73598 0.13815 0.0
C1508 C 0.04754 0.73287 0.13616 0.0
C1509 C 0.06165 0.7022 0.13746 0.0
C1510 C 0.95853 0.71005 0.14228 0.0
C1511 C 0.06885 0.76199 0.13402 0.0
C1512 C 0.97045 0.81319 0.11777 0.0
C1513 C 0.9634 0.82634 0.14411 0.0
C1514 C 0.98771 0.78429 0.11537 0.0
C1515 C 0.99836 0.76832 0.1399 0.0
C1516 C 0.99223 0.78222 0.16649 0.0
C1517 C 0.97453 0.81081 0.16825 0.0
C1518 C 0.99325 0.77011 0.08667 0.0
C1519 C 0.00345 0.76634 0.19318 0.0
H1520 H 0.99496 0.65647 0.14505 0.0
H1521 H 0.0875 0.6997 0.13701 0.0
H1522 H 0.95151 0.72201 0.16212 0.0
H1523 H 0.94899 0.72474 0.12478 0.0
H1524 H 0.94703 0.68603 0.14159 0.0
H1525 H 0.09434 0.75546 0.13039 0.0
H1526 H 0.06072 0.77778 0.11671 0.0
H1527 H 0.06726 0.77608 0.1537 0.0
H1528 H 0.96122 0.8248 0.09913 0.0
H1529 H 0.96894 0.82097 0.18858 0.0
H1530 H 0.97942 0.74752 0.08461 0.0
H1531 H 0.01893 0.76402 0.08384 0.0
H1532 H 0.98584 0.78668 0.06963 0.0
H1533 H 0.99068 0.74325 0.19607 0.0
H1534 H 0.99912 0.78153 0.21194 0.0
H1535 H 0.02944 0.76089 0.19188 0.0
C1536 C 0.20175 0.22977 0.11146 0.0
C1537 C 0.23396 0.22515 0.10397 0.0
C1538 C 0.18751 0.26017 0.10973 0.0
C1539 C 0.2059 0.28648 0.10017 0.0
C1540 C 0.23797 0.28171 0.09143 0.0
C1541 C 0.25163 0.25109 0.09344 0.0
C1542 C 0.15322 0.26437 0.11917 0.0
C1543 C 0.25826 0.30919 0.08092 0.0
C1544 C 0.1661 0.36339 0.07608 0.0
C1545 C 0.17062 0.38323 0.09941 0.0
C1546 C 0.17657 0.33145 0.0763 0.0
C1547 C 0.19217 0.3193 0.10041 0.0
C1548 C 0.19623 0.33913 0.12427 0.0
C1549 C 0.18561 0.37103 0.12337 0.0
C1550 C 0.17186 0.31106 0.05047 0.0
C1551 C 0.21279 0.32702 0.15036 0.0
H1552 H 0.1879 0.20986 0.11962 0.0
H1553 H 0.27651 0.24772 0.08756 0.0
H1554 H 0.15253 0.27972 0.13816 0.0
H1555 H 0.13905 0.27669 0.1027 0.0
H1556 H 0.14152 0.24113 0.12414 0.0
H1557 H 0.28217 0.30113 0.07345 0.0
H1558 H 0.2459 0.32172 0.06349 0.0
H1559 H 0.2618 0.32691 0.09799 0.0
H1560 H 0.15483 0.37318 0.05749 0.0
H1561 H 0.19004 0.38682 0.14098 0.0
H1562 H 0.15968 0.2883 0.05605 0.0
H1563 H 0.19552 0.30471 0.04141 0.0
H1564 H 0.1575 0.32351 0.03416 0.0
H1565 H 0.20127 0.30458 0.15775 0.0
H1566 H 0.21224 0.34484 0.16767 0.0
H1567 H 0.23816 0.32128 0.14553 0.0
C1568 C 0.38717 0.41282 0.32673 0.0
C1569 C 0.36843 0.41976 0.3503 0.0
C1570 C 0.41926 0.42261 0.32521 0.0
C1571 C 0.43275 0.43999 0.34778 0.0
C1572 C 0.41409 0.4464 0.37198 0.0
C1573 C 0.38198 0.4364 0.37283 0.0
C1574 C 0.43837 0.41531 0.2991 0.0
C1575 C 0.42762 0.46493 0.39648 0.0
C1576 C 0.52285 0.44889 0.35521 0.0
C1577 C 0.52753 0.48049 0.34595 0.0
C1578 C 0.49222 0.43502 0.35524 0.0
C1579 C 0.46577 0.45306 0.34549 0.0
C1580 C 0.47063 0.48428 0.33464 0.0
C1581 C 0.50146 0.49767 0.33508 0.0
C1582 C 0.48792 0.40175 0.36713 0.0
C1583 C 0.44303 0.50413 0.32377 0.0
H1584 H 0.37636 0.40023 0.30925 0.0
H1585 H 0.36706 0.44266 0.39061 0.0
H1586 H 0.44476 0.43801 0.28834 0.0
H1587 H 0.46113 0.40313 0.30469 0.0
H1588 H 0.42493 0.3999 0.28417 0.0
H1589 H 0.41129 0.46472 0.41488 0.0
H1590 H 0.4511 0.45484 0.40289 0.0
H1591 H 0.43177 0.49019 0.39018 0.0
H1592 H 0.54281 0.4355 0.36386 0.0
H1593 H 0.50491 0.52208 0.32789 0.0
H1594 H 0.47407 0.38654 0.35239 0.0
H1595 H 0.47404 0.40315 0.38694 0.0
H1596 H 0.51121 0.38986 0.37159 0.0
H1597 H 0.42935 0.49047 0.3078 0.0
H1598 H 0.45116 0.52707 0.3143 0.0
H1599 H 0.42632 0.50967 0.3412 0.0
C1600 C 0.29937 0.77151 0.61425 0.0
C1601 C 0.26757 0.77657 0.60571 0.0
C1602 C 0.31353 0.74109 0.61225 0.0
C1603 C 0.29551 0.71522 0.60131 0.0
C1604 C 0.26384 0.72043 0.59169 0.0
C1605 C 0.25023 0.75105 0.59405 0.0
C1606 C 0.34737 0.73639 0.62271 0.0
C1607 C 0.24397 0.69345 0.57968 0.0
C1608 C 0.33714 0.63997 0.57557 0.0
C1609 C 0.33203 0.61885 0.59797 0.0
C1610 C 0.32606 0.67167 0.57661 0.0
C1611 C 0.30935 0.68242 0.60064 0.0
C1612 C 0.30457 0.66136 0.62356 0.0
C1613 C 0.31578 0.6297 0.62184 0.0
C1614 C 0.33156 0.6934 0.55176 0.0
C1615 C 0.28682 0.67199 0.64955 0.0
H1616 H 0.31294 0.79108 0.62334 0.0
H1617 H 0.22567 0.75476 0.58736 0.0
H1618 H 0.34726 0.71988 0.64095 0.0
H1619 H 0.36233 0.72514 0.60619 0.0
H1620 H 0.35874 0.75931 0.62918 0.0
H1621 H 0.22028 0.70181 0.57196 0.0
H1622 H 0.25693 0.68185 0.56208 0.0
H1623 H 0.23999 0.67486 0.59594 0.0
H1624 H 0.34958 0.63145 0.55707 0.0
H1625 H 0.31083 0.61314 0.63876 0.0
H1626 H 0.34373 0.71574 0.55853 0.0
H1627 H 0.30819 0.70042 0.5425 0.0
H1628 H 0.34629 0.68177 0.53523 0.0
H1629 H 0.29786 0.69407 0.6582 0.0
H1630 H 0.28674 0.65327 0.66612 0.0
H1631 H 0.26163 0.67785 0.64412 0.0
C1632 C 0.98013 0.5462 0.83652 0.0
C1633 C 0.97503 0.51948 0.85363 0.0
C1634 C 0.01048 0.56079 0.83539 0.0
C1635 C 0.03549 0.54915 0.85279 0.0
C1636 C 0.0298 0.52297 0.87095 0.0
C1637 C 0.99985 0.508 0.87064 0.0
C1638 C 0.01601 0.58811 0.81523 0.0
C1639 C 0.05533 0.51066 0.89068 0.0
C1640 C 0.12276 0.55869 0.83343 0.0
C1641 C 0.13233 0.58445 0.85042 0.0
C1642 C 0.09102 0.54791 0.83316 0.0
C1643 C 0.06826 0.56273 0.85087 0.0
C1644 C 0.07747 0.589 0.86785 0.0
C1645 C 0.10928 0.60001 0.86695 0.0
C1646 C 0.08201 0.52026 0.81428 0.0
C1647 C 0.05397 0.60487 0.88753 0.0
H1648 H 0.96065 0.55517 0.82369 0.0
H1649 H 0.99548 0.48777 0.88442 0.0
H1650 H 0.02477 0.60954 0.82666 0.0
H1651 H 0.03486 0.58133 0.7999 0.0
H1652 H 0.99393 0.59467 0.80355 0.0
H1653 H 0.04598 0.49212 0.90527 0.0
H1654 H 0.07535 0.5001 0.87846 0.0
H1655 H 0.06534 0.53069 0.90324 0.0
H1656 H 0.14031 0.54673 0.82035 0.0
H1657 H 0.11578 0.62095 0.87897 0.0
H1658 H 0.06066 0.52656 0.80153 0.0
H1659 H 0.0756 0.49907 0.82716 0.0
H1660 H 0.10181 0.5134 0.79991 0.0
H1661 H 0.03199 0.61209 0.8761 0.0
H1662 H 0.06431 0.62633 0.89795 0.0
H1663 H 0.04663 0.58752 0.90394 0.0
C1664 C 0.794 0.77313 0.91488 0.0
C1665 C 0.76717 0.77805 0.89786 0.0
C1666 C 0.80853 0.74274 0.91631 0.0
C1667 C 0.79662 0.71742 0.89939 0.0
C1668 C 0.77028 0.7229 0.88134 0.0
C1669 C 0.75554 0.753 0.88118 0.0
C1670 C 0.83602 0.73751 0.93635 0.0
C1671 C 0.75758 0.69695 0.86222 0.0
C1672 C 0.84751 0.64342 0.88572 0.0
C1673 C 0.83223 0.62054 0.90267 0.0
C1674 C 0.83631 0.67517 0.88444 0.0
C1675 C 0.81026 0.68463 0.90157 0.0
C1676 C 0.79578 0.66211 0.91973 0.0
C1677 C 0.80665 0.63036 0.91977 0.0
C1678 C 0.85189 0.69841 0.86436 0.0
C1679 C 0.76839 0.67139 0.9388 0.0
H1680 H 0.80309 0.79279 0.92746 0.0
H1681 H 0.73528 0.75726 0.86741 0.0
H1682 H 0.82934 0.71901 0.95201 0.0
H1683 H 0.8573 0.72844 0.9249 0.0
H1684 H 0.84279 0.75981 0.94764 0.0
H1685 H 0.73849 0.7059 0.84798 0.0
H1686 H 0.77733 0.68695 0.84931 0.0
H1687 H 0.74763 0.677 0.87489 0.0
H1688 H 0.86839 0.63687 0.87367 0.0
H1689 H 0.7949 0.61302 0.93319 0.0
H1690 H 0.86124 0.71949 0.87592 0.0
H1691 H 0.83382 0.70741 0.84919 0.0
H1692 H 0.87191 0.6873 0.85246 0.0
H1693 H 0.77486 0.69292 0.95124 0.0
H1694 H 0.76174 0.65179 0.95345 0.0
H1695 H 0.74703 0.67762 0.92607 0.0
C1696 C 0.61 0.59244 0.67553 0.0
C1697 C 0.63156 0.58759 0.6534 0.0
C1698 C 0.57862 0.58051 0.6743 0.0
C1699 C 0.56861 0.5632 0.65035 0.0
C1700 C 0.59007 0.55875 0.62766 0.0
C1701 C 0.62142 0.57079 0.62957 0.0
C1702 C 0.55648 0.58569 0.69894 0.0
C1703 C 0.58022 0.54043 0.60174 0.0
C1704 C 0.50107 0.50273 0.65718 0.0
C1705 C 0.47524 0.51952 0.64541 0.0
C1706 C 0.53146 0.51692 0.6594 0.0
C1707 C 0.53614 0.54859 0.64951 0.0
C1708 C 0.50998 0.56597 0.63834 0.0
C1709 C 0.47981 0.55127 0.63651 0.0
C1710 C 0.55876 0.49772 0.67168 0.0
C1711 C 0.51408 0.59976 0.62755 0.0
H1712 H 0.61797 0.60527 0.69402 0.0
H1713 H 0.63831 0.56599 0.61288 0.0
H1714 H 0.53391 0.59721 0.69188 0.0
H1715 H 0.54996 0.56223 0.70831 0.0
H1716 H 0.56753 0.60087 0.71545 0.0
H1717 H 0.59908 0.54074 0.5853 0.0
H1718 H 0.57504 0.51513 0.60732 0.0
H1719 H 0.5579 0.55073 0.59284 0.0
H1720 H 0.49776 0.47821 0.66412 0.0
H1721 H 0.46001 0.56442 0.62733 0.0
H1722 H 0.56989 0.51104 0.68929 0.0
H1723 H 0.57758 0.49406 0.65556 0.0
H1724 H 0.55085 0.47389 0.67944 0.0
H1725 H 0.52463 0.61523 0.64407 0.0
H1726 H 0.49103 0.6105 0.62062 0.0
H1727 H 0.53095 0.5998 0.60957 0.0
C1728 C 0.71486 0.23223 0.40903 0.0
C1729 C 0.74115 0.22706 0.39146 0.0
C1730 C 0.7008 0.26274 0.41093 0.0
C1731 C 0.71257 0.28797 0.39388 0.0
C1732 C 0.73864 0.2824 0.37552 0.0
C1733 C 0.75303 0.25208 0.37495 0.0
C1734 C 0.67374 0.26809 0.43141 0.0
C1735 C 0.75107 0.30829 0.35623 0.0
C1736 C 0.65854 0.35996 0.38159 0.0
C1737 C 0.67292 0.38317 0.39877 0.0
C1738 C 0.67147 0.32896 0.3794 0.0
C1739 C 0.69841 0.32054 0.39587 0.0
C1740 C 0.71228 0.34342 0.41404 0.0
C1741 C 0.69964 0.37448 0.41498 0.0
C1742 C 0.65644 0.30531 0.35935 0.0
C1743 C 0.74051 0.33511 0.4325 0.0
H1744 H 0.70569 0.21257 0.42156 0.0
H1745 H 0.77299 0.2476 0.36089 0.0
H1746 H 0.68028 0.28742 0.44634 0.0
H1747 H 0.65192 0.27605 0.42011 0.0
H1748 H 0.66787 0.2461 0.44352 0.0
H1749 H 0.77052 0.29951 0.34229 0.0
H1750 H 0.73125 0.3176 0.34302 0.0
H1751 H 0.76039 0.32869 0.36872 0.0
H1752 H 0.63694 0.3656 0.37018 0.0
H1753 H 0.71073 0.39214 0.42852 0.0
H1754 H 0.64695 0.28442 0.37108 0.0
H1755 H 0.67481 0.29613 0.34456 0.0
H1756 H 0.63656 0.31611 0.34706 0.0
H1757 H 0.73485 0.31375 0.44545 0.0
H1758 H 0.74728 0.35515 0.44667 0.0
H1759 H 0.76156 0.32896 0.41936 0.0
C1760 C 0.89363 0.40222 0.13404 0.0
C1761 C 0.87063 0.41866 0.14996 0.0
C1762 C 0.92518 0.41375 0.13184 0.0
C1763 C 0.93422 0.44151 0.14698 0.0
C1764 C 0.9115 0.45742 0.16399 0.0
C1765 C 0.87997 0.44602 0.16501 0.0
C1766 C 0.94868 0.39651 0.11308 0.0
C1767 C 0.92037 0.48672 0.18093 0.0
C1768 C 0.02229 0.45876 0.16074 0.0
C1769 C 0.02772 0.48391 0.142 0.0
C1770 C 0.99187 0.44443 0.16254 0.0
C1771 C 0.96706 0.45483 0.14436 0.0
C1772 C 0.97309 0.47943 0.12461 0.0
C1773 C 0.00325 0.49408 0.12404 0.0
C1774 C 0.98604 0.41888 0.18435 0.0
C1775 C 0.94769 0.4904 0.10418 0.0
H1776 H 0.88731 0.38016 0.12357 0.0
H1777 H 0.86243 0.45867 0.17759 0.0
H1778 H 0.95799 0.41325 0.09693 0.0
H1779 H 0.96952 0.38809 0.12549 0.0
H1780 H 0.9377 0.37557 0.10235 0.0
H1781 H 0.90045 0.49492 0.19461 0.0
H1782 H 0.94156 0.48153 0.19425 0.0
H1783 H 0.92702 0.50664 0.16667 0.0
H1784 H 0.04155 0.4509 0.17437 0.0
H1785 H 0.00797 0.51315 0.10913 0.0
H1786 H 0.97706 0.39667 0.17428 0.0
H1787 H 0.96727 0.42709 0.1992 0.0
H1788 H 0.00805 0.41304 0.19643 0.0
H1789 H 0.93808 0.46957 0.09239 0.0
H1790 H 0.95703 0.50823 0.08893 0.0
H1791 H 0.92739 0.50136 0.11574 0.0
C1792 C 0.70489 0.73462 0.61538 0.0
C1793 C 0.73672 0.72935 0.60701 0.0
C1794 C 0.6911 0.76521 0.61383 0.0
C1795 C 0.70949 0.7911 0.60345 0.0
C1796 C 0.7413 0.7858 0.59419 0.0
C1797 C 0.75458 0.75497 0.59616 0.0
C1798 C 0.65716 0.77 0.62401 0.0
C1799 C 0.76153 0.81282 0.58275 0.0
C1800 C 0.66678 0.86558 0.57746 0.0
C1801 C 0.67091 0.8867 0.60001 0.0
C1802 C 0.67889 0.83427 0.57841 0.0
C1803 C 0.69557 0.82385 0.60255 0.0
C1804 C 0.69952 0.84492 0.62559 0.0
C1805 C 0.68737 0.87626 0.62393 0.0
C1806 C 0.67431 0.81254 0.55339 0.0
C1807 C 0.71715 0.83457 0.65174 0.0
H1808 H 0.69092 0.71499 0.6239 0.0
H1809 H 0.7792 0.75113 0.58972 0.0
H1810 H 0.65702 0.78686 0.642 0.0
H1811 H 0.64233 0.78088 0.60721 0.0
H1812 H 0.64576 0.74718 0.63071 0.0
H1813 H 0.78541 0.80447 0.57548 0.0
H1814 H 0.74905 0.82453 0.56494 0.0
H1815 H 0.76508 0.83132 0.59917 0.0
H1816 H 0.65422 0.87377 0.55891 0.0
H1817 H 0.69165 0.89284 0.64096 0.0
H1818 H 0.66188 0.79022 0.55984 0.0
H1819 H 0.698 0.80548 0.54479 0.0
H1820 H 0.6602 0.82415 0.53645 0.0
H1821 H 0.70622 0.81242 0.66037 0.0
H1822 H 0.71689 0.85335 0.66826 0.0
H1823 H 0.74244 0.82889 0.64653 0.0
C1824 C 0.88106 0.93619 0.8752 0.0
C1825 C 0.86805 0.9199 0.85224 0.0
C1826 C 0.91294 0.94688 0.87474 0.0
C1827 C 0.93184 0.9416 0.85048 0.0
C1828 C 0.91892 0.92455 0.82747 0.0
C1829 C 0.88708 0.91399 0.82863 0.0
C1830 C 0.92591 0.96499 0.8997 0.0
C1831 C 0.9383 0.91853 0.80127 0.0
C1832 C 0.99943 1.00085 0.83905 0.0
C1833 C 0.02584 0.98365 0.84921 0.0
C1834 C 0.9688 0.98703 0.83852 0.0
C1835 C 0.96453 0.9554 0.84862 0.0
C1836 C 0.99128 0.93748 0.85788 0.0
C1837 C 0.02168 0.95176 0.85788 0.0
C1838 C 0.94082 0.00673 0.82819 0.0
C1839 C 0.98756 0.90383 0.86909 0.0
H1840 H 0.86588 0.94171 0.89299 0.0
H1841 H 0.87664 0.9017 0.81081 0.0
H1842 H 0.94981 0.95561 0.90572 0.0
H1843 H 0.929 0.99062 0.89411 0.0
H1844 H 0.90972 0.96345 0.91814 0.0
H1845 H 0.92528 0.90332 0.78591 0.0
H1846 H 0.94423 0.94171 0.7911 0.0
H1847 H 0.9613 0.90667 0.80664 0.0
H1848 H 0.00248 0.0255 0.83236 0.0
H1849 H 0.04192 0.93837 0.86602 0.0
H1850 H 0.92399 0.0113 0.84574 0.0
H1851 H 0.92743 0.99338 0.81183 0.0
H1852 H 0.9485 0.03016 0.81937 0.0
H1853 H 0.97329 0.9044 0.88871 0.0
H1854 H 0.01102 0.89236 0.87363 0.0
H1855 H 0.97433 0.8887 0.85386 0.0
C1856 C 0.84285 0.13774 0.07335 0.0
C1857 C 0.83704 0.11766 0.09634 0.0
C1858 C 0.8321 0.16956 0.07313 0.0
C1859 C 0.81497 0.18152 0.09647 0.0
C1860 C 0.80977 0.16163 0.12013 0.0
C1861 C 0.82072 0.12979 0.11969 0.0
C1862 C 0.83817 0.19004 0.04756 0.0
C1863 C 0.79159 0.17357 0.14544 0.0
C1864 C 0.80459 0.2712 0.10625 0.0
C1865 C 0.77284 0.27569 0.09733 0.0
C1866 C 0.81887 0.24077 0.10563 0.0
C1867 C 0.80108 0.2143 0.09557 0.0
C1868 C 0.76957 0.21893 0.0853 0.0
C1869 C 0.75578 0.24958 0.08637 0.0
C1870 C 0.85243 0.23671 0.11694 0.0
C1871 C 0.74997 0.1913 0.07413 0.0
H1872 H 0.85539 0.12824 0.05527 0.0
H1873 H 0.81532 0.11406 0.1371 0.0
H1874 H 0.81501 0.19645 0.03758 0.0
H1875 H 0.85007 0.21276 0.0537 0.0
H1876 H 0.85336 0.17765 0.0318 0.0
H1877 H 0.79259 0.15639 0.16322 0.0
H1878 H 0.80135 0.19694 0.15252 0.0
H1879 H 0.76609 0.17747 0.13976 0.0
H1880 H 0.81788 0.29118 0.11498 0.0
H1881 H 0.73124 0.25285 0.07948 0.0
H1882 H 0.86769 0.22403 0.10145 0.0
H1883 H 0.85174 0.22175 0.13617 0.0
H1884 H 0.86383 0.26002 0.12217 0.0
H1885 H 0.76335 0.17863 0.05736 0.0
H1886 H 0.72651 0.19922 0.06557 0.0
H1887 H 0.74551 0.17373 0.09115 0.0
C1888 C 0.5021 0.00292 0.3401 0.0
C1889 C 0.47567 0.02005 0.35037 0.0
C1890 C 0.53254 0.0171 0.3387 0.0
C1891 C 0.53666 0.04911 0.34794 0.0
C1892 C 0.50988 0.06693 0.3573 0.0
C1893 C 0.47965 0.05224 0.35827 0.0
C1894 C 0.5605 0.99747 0.32821 0.0
C1895 C 0.51337 0.10108 0.36736 0.0
C1896 C 0.62092 0.07064 0.37143 0.0
C1897 C 0.63285 0.08633 0.34766 0.0
C1898 C 0.58918 0.05945 0.37223 0.0
C1899 C 0.56922 0.06352 0.34845 0.0
C1900 C 0.58098 0.07989 0.32462 0.0
C1901 C 0.61264 0.09109 0.32455 0.0
C1902 C 0.57738 0.04226 0.39812 0.0
C1903 C 0.56049 0.08462 0.29885 0.0
H1904 H 0.49922 0.97808 0.33392 0.0
H1905 H 0.45939 0.06565 0.36634 0.0
H1906 H 0.57297 0.01033 0.31102 0.0
H1907 H 0.57811 0.99403 0.34538 0.0
H1908 H 0.55297 0.97353 0.32041 0.0
H1909 H 0.48989 0.11226 0.37237 0.0
H1910 H 0.52855 0.10161 0.38646 0.0
H1911 H 0.52557 0.11584 0.35123 0.0
H1912 H 0.63671 0.06593 0.38894 0.0
H1913 H 0.62195 0.10311 0.30613 0.0
H1914 H 0.57252 0.01675 0.39305 0.0
H1915 H 0.55452 0.05296 0.40544 0.0
H1916 H 0.59503 0.0432 0.41555 0.0
H1917 H 0.55455 0.06098 0.28953 0.0
H1918 H 0.57266 0.09942 0.28268 0.0
H1919 H 0.53753 0.09632 0.30455 0.0
C1920 C 0.29669 0.27216 0.41457 0.0
C1921 C 0.27071 0.27732 0.39663 0.0
C1922 C 0.31123 0.24178 0.4161 0.0
C1923 C 0.30027 0.21678 0.39834 0.0
C1924 C 0.27498 0.22262 0.37926 0.0
C1925 C 0.26007 0.25262 0.3791 0.0
C1926 C 0.33752 0.23614 0.43726 0.0
C1927 C 0.26344 0.19711 0.35915 0.0
C1928 C 0.35094 0.1422 0.38658 0.0
C1929 C 0.33424 0.11937 0.40254 0.0
C1930 C 0.34032 0.17414 0.38503 0.0
C1931 C 0.31337 0.18381 0.40095 0.0
C1932 C 0.29745 0.16135 0.41821 0.0
C1933 C 0.3078 0.12943 0.41849 0.0
C1934 C 0.35745 0.19733 0.36589 0.0
C1935 C 0.26901 0.17084 0.43599 0.0
H1936 H 0.30497 0.29155 0.42788 0.0
H1937 H 0.24038 0.25705 0.36476 0.0
H1938 H 0.3296 0.21786 0.45268 0.0
H1939 H 0.35922 0.22659 0.42676 0.0
H1940 H 0.34408 0.25837 0.44874 0.0
H1941 H 0.24504 0.20635 0.34438 0.0
H1942 H 0.28389 0.1876 0.34682 0.0
H1943 H 0.25299 0.17677 0.37101 0.0
H1944 H 0.37243 0.13544 0.37549 0.0
H1945 H 0.29493 0.11214 0.43116 0.0
H1946 H 0.36606 0.21834 0.37797 0.0
H1947 H 0.34055 0.20643 0.34978 0.0
H1948 H 0.37822 0.18612 0.3551 0.0
H1949 H 0.27491 0.19224 0.44881 0.0
H1950 H 0.26124 0.15124 0.45022 0.0
H1951 H 0.24854 0.17734 0.42228 0.0
C1952 C 0.00304 0.99507 0.15451 0.0
C1953 C 0.97727 0.01278 0.14374 0.0
C1954 C 0.03374 0.00861 0.15657 0.0
C1955 C 0.03878 0.04053 0.14748 0.0
C1956 C 0.01275 0.05874 0.13713 0.0
C1957 C 0.98227 0.0447 0.1355 0.0
C1958 C 0.06091 0.98856 0.16798 0.0
C1959 C 0.01725 0.0928 0.12712 0.0
C1960 C 0.11281 0.08353 0.17409 0.0
C1961 C 0.13412 0.07963 0.15164 0.0
C1962 C 0.08155 0.07131 0.17288 0.0
C1963 C 0.07138 0.05475 0.14858 0.0
C1964 C 0.09263 0.0511 0.12563 0.0
C1965 C 0.1239 0.06335 0.12755 0.0
C1966 C 0.05965 0.07556 0.19781 0.0
C1967 C 0.08255 0.03365 0.09932 0.0
H1968 H 0.99939 0.97039 0.16088 0.0
H1969 H 0.96253 0.05855 0.12703 0.0
H1970 H 0.07956 0.98539 0.15164 0.0
H1971 H 0.07235 0.00098 0.18596 0.0
H1972 H 0.05279 0.9645 0.17501 0.0
H1973 H 0.99435 0.104 0.12037 0.0
H1974 H 0.02788 0.10764 0.14403 0.0
H1975 H 0.03421 0.09321 0.10921 0.0
H1976 H 0.12083 0.09595 0.19277 0.0
H1977 H 0.14063 0.05924 0.1106 0.0
H1978 H 0.05278 0.05177 0.2063 0.0
H1979 H 0.03725 0.08781 0.19131 0.0
H1980 H 0.07103 0.08972 0.21485 0.0
H1981 H 0.07711 0.00825 0.10432 0.0
H1982 H 0.10139 0.03425 0.08286 0.0
H1983 H 0.06033 0.04445 0.0907 0.0
C1984 C 0.19389 0.87427 0.91946 0.0
C1985 C 0.1678 0.88351 0.90272 0.0
C1986 C 0.20496 0.84263 0.91975 0.0
C1987 C 0.1901 0.81961 0.90234 0.0
C1988 C 0.16356 0.82849 0.88555 0.0
C1989 C 0.15228 0.86022 0.8864 0.0
C1990 C 0.23295 0.83399 0.93839 0.0
C1991 C 0.1476 0.80468 0.86621 0.0
C1992 C 0.24505 0.75121 0.8829 0.0
C1993 C 0.23403 0.72664 0.90041 0.0
C1994 C 0.22983 0.78104 0.88231 0.0
C1995 C 0.20382 0.78686 0.90063 0.0
C1996 C 0.19261 0.76208 0.91849 0.0
C1997 C 0.20747 0.73184 0.91767 0.0
C1998 C 0.24167 0.80631 0.86211 0.0
C1999 C 0.16547 0.76775 0.9388 0.0
H2000 H 0.20586 0.892 0.93234 0.0
H2001 H 0.13115 0.86647 0.87455 0.0
H2002 H 0.22693 0.81282 0.95145 0.0
H2003 H 0.25395 0.82746 0.92532 0.0
H2004 H 0.23998 0.85403 0.95245 0.0
H2005 H 0.12627 0.81495 0.85554 0.0
H2006 H 0.16495 0.79677 0.84999 0.0
H2007 H 0.14015 0.78304 0.87802 0.0
H2008 H 0.2651 0.74672 0.86895 0.0
H2009 H 0.1988 0.71251 0.93084 0.0
H2010 H 0.25186 0.82681 0.87393 0.0
H2011 H 0.22144 0.81562 0.84939 0.0
H2012 H 0.26035 0.79693 0.84767 0.0
H2013 H 0.1723 0.78683 0.95388 0.0
H2014 H 0.15914 0.74578 0.95076 0.0
H2015 H 0.14388 0.77624 0.92745 0.0
C2016 C 0.3769 0.93921 0.63112 0.0
C2017 C 0.36687 0.92122 0.65427 0.0
C2018 C 0.40821 0.9514 0.62959 0.0
C2019 C 0.43 0.94529 0.65177 0.0
C2020 C 0.42001 0.92684 0.67508 0.0
C2021 C 0.3885 0.9152 0.6761 0.0
C2022 C 0.41776 0.97041 0.604 0.0
C2023 C 0.44248 0.91977 0.69912 0.0
C2024 C 0.51903 0.95511 0.63738 0.0
C2025 C 0.52491 0.98594 0.64804 0.0
C2026 C 0.48831 0.94147 0.63863 0.0
C2027 C 0.46295 0.95891 0.65106 0.0
C2028 C 0.46889 0.98967 0.6625 0.0
C2029 C 0.49979 0.00283 0.66083 0.0
C2030 C 0.48276 0.90886 0.62579 0.0
C2031 C 0.44231 0.00916 0.67556 0.0
H2032 H 0.35998 0.9446 0.61457 0.0
H2033 H 0.38058 0.9014 0.69407 0.0
H2034 H 0.43467 0.99006 0.6092 0.0
H2035 H 0.42978 0.95404 0.58901 0.0
H2036 H 0.39656 0.98087 0.59328 0.0
H2037 H 0.43122 0.90433 0.71535 0.0
H2038 H 0.46436 0.90764 0.69122 0.0
H2039 H 0.45019 0.94253 0.70911 0.0
H2040 H 0.53818 0.94202 0.62715 0.0
H2041 H 0.50406 0.02673 0.66895 0.0
H2042 H 0.46628 0.91118 0.60764 0.0
H2043 H 0.47113 0.89268 0.64119 0.0
H2044 H 0.50538 0.89756 0.61847 0.0
H2045 H 0.42371 0.01437 0.65955 0.0
H2046 H 0.45107 0.03224 0.68433 0.0
H2047 H 0.43063 0.99531 0.69259 0.0
loop_
_geom_bond_atom_site_label_1
_geom_bond_atom_site_label_2
_geom_bond_distance
_geom_bond_site_symmetry_2
_ccdc_geom_bond_type
Zn0 O1 2.055 . S
Zn0 O8 2.046 . S
Zn0 N16 2.036 . S
Zn0 O28 2.053 . S
Zn0 O30 2.066 . S
O1 Zn0 2.055 . S
O1 C4 1.259 . S
C2 O30 1.256 . S
C2 O31 1.244 . S
Zn3 O5 2.046 . S
Zn3 O7 2.055 . S
Zn3 N9 2.036 . S
Zn3 O27 2.066 . S
Zn3 O31 2.053 . S
C4 O1 1.259 . S
C4 O5 1.254 . S
O5 Zn3 2.046 . S
O5 C4 1.254 . S
C6 O27 1.256 . S
C6 O28 1.244 . S
O7 Zn3 2.055 . S
O7 C29 1.259 . S
O8 Zn0 2.046 . S
O8 C29 1.254 . S
N9 Zn3 2.036 . S
N9 C10 1.298 . S
N9 N12 1.398 . S
C10 N9 1.298 . S
C10 N13 1.367 . S
C10 C23 1.481 . S
C11 N12 1.299 . S
C11 N13 1.379 . S
N12 N9 1.398 . S
N12 C11 1.299 . S
N13 C10 1.367 . S
N13 C11 1.379 . S
C14 N16 1.298 . S
C14 N18 1.367 . S
C14 C22 1.481 . S
C15 N17 1.299 . S
C15 N18 1.379 . S
N16 Zn0 2.036 . S
N16 C14 1.298 . S
N16 N17 1.398 . S
N17 C15 1.299 . S
N17 N16 1.398 . S
N18 C14 1.367 . S
N18 C15 1.379 . S
H19 C22 0.980 . S
H20 C22 0.981 . S
H21 C22 0.981 . S
C22 C14 1.481 . S
C22 H19 0.980 . S
C22 H20 0.981 . S
C22 H21 0.981 . S
C23 C10 1.481 . S
C23 H24 0.980 . S
C23 H25 0.981 . S
C23 H26 0.981 . S
H24 C23 0.980 . S
H25 C23 0.981 . S
H26 C23 0.981 . S
O27 Zn3 2.066 . S
O27 C6 1.256 . S
O28 Zn0 2.053 . S
O28 C6 1.244 . S
C29 O7 1.259 . S
C29 O8 1.254 . S
O30 Zn0 2.066 . S
O30 C2 1.256 . S
O31 C2 1.244 . S
O31 Zn3 2.053 . S
Zn32 O33 2.055 . S
Zn32 O40 2.046 . S
Zn32 N48 2.036 . S
Zn32 O60 2.053 . S
Zn32 O62 2.066 . S
O33 Zn32 2.055 . S
O33 C36 1.259 . S
C34 O62 1.256 . S
C34 O63 1.244 . S
Zn35 O37 2.046 . S
Zn35 O39 2.055 . S
Zn35 N41 2.036 . S
Zn35 O59 2.066 . S
Zn35 O63 2.053 . S
C36 O33 1.259 . S
C36 O37 1.254 . S
O37 Zn35 2.046 . S
O37 C36 1.254 . S
C38 O59 1.256 . S
C38 O60 1.244 . S
O39 Zn35 2.055 . S
O39 C61 1.259 . S
O40 Zn32 2.046 . S
O40 C61 1.254 . S
N41 Zn35 2.036 . S
N41 C42 1.298 . S
N41 N44 1.398 . S
C42 N41 1.298 . S
C42 N45 1.367 . S
C42 C55 1.481 . S
C43 N44 1.299 . S
C43 N45 1.379 . S
N44 N41 1.398 . S
N44 C43 1.299 . S
N45 C42 1.367 . S
N45 C43 1.379 . S
C46 N48 1.298 . S
C46 N50 1.367 . S
C46 C54 1.481 . S
C47 N49 1.299 . S
C47 N50 1.379 . S
N48 Zn32 2.036 . S
N48 C46 1.298 . S
N48 N49 1.398 . S
N49 C47 1.299 . S
N49 N48 1.398 . S
N50 C46 1.367 . S
N50 C47 1.379 . S
H51 C54 0.980 . S
H52 C54 0.981 . S
H53 C54 0.981 . S
C54 C46 1.481 . S
C54 H51 0.980 . S
C54 H52 0.981 . S
C54 H53 0.981 . S
C55 C42 1.481 . S
C55 H56 0.980 . S
C55 H57 0.981 . S
C55 H58 0.981 . S
H56 C55 0.980 . S
H57 C55 0.981 . S
H58 C55 0.981 . S
O59 Zn35 2.066 . S
O59 C38 1.256 . S
O60 Zn32 2.053 . S
O60 C38 1.244 . S
C61 O39 1.259 . S
C61 O40 1.254 . S
O62 Zn32 2.066 . S
O62 C34 1.256 . S
O63 C34 1.244 . S
O63 Zn35 2.053 . S
Zn64 O65 2.055 . S
Zn64 O72 2.046 . S
Zn64 N80 2.036 . S
Zn64 O92 2.053 . S
Zn64 O94 2.066 . S
O65 Zn64 2.055 . S
O65 C68 1.259 . S
C66 O94 1.256 . S
C66 O95 1.244 . S
Zn67 O69 2.046 . S
Zn67 O71 2.055 . S
Zn67 N73 2.036 . S
Zn67 O91 2.066 . S
Zn67 O95 2.053 . S
C68 O65 1.259 . S
C68 O69 1.254 . S
O69 Zn67 2.046 . S
O69 C68 1.254 . S
C70 O91 1.256 . S
C70 O92 1.244 . S
O71 Zn67 2.055 . S
O71 C93 1.259 . S
O72 Zn64 2.046 . S
O72 C93 1.254 . S
N73 Zn67 2.036 . S
N73 C74 1.298 . S
N73 N76 1.398 . S
C74 N73 1.298 . S
C74 N77 1.367 . S
C74 C87 1.481 . S
C75 N76 1.299 . S
C75 N77 1.379 . S
N76 N73 1.398 . S
N76 C75 1.299 . S
N77 C74 1.367 . S
N77 C75 1.379 . S
C78 N80 1.298 . S
C78 N82 1.367 . S
C78 C86 1.481 . S
C79 N81 1.299 . S
C79 N82 1.379 . S
N80 Zn64 2.036 . S
N80 C78 1.298 . S
N80 N81 1.398 . S
N81 C79 1.299 . S
N81 N80 1.398 . S
N82 C78 1.367 . S
N82 C79 1.379 . S
H83 C86 0.980 . S
H84 C86 0.981 . S
H85 C86 0.981 . S
C86 C78 1.481 . S
C86 H83 0.980 . S
C86 H84 0.981 . S
C86 H85 0.981 . S
C87 C74 1.481 . S
C87 H88 0.980 . S
C87 H89 0.981 . S
C87 H90 0.981 . S
H88 C87 0.980 . S
H89 C87 0.981 . S
H90 C87 0.981 . S
O91 Zn67 2.066 . S
O91 C70 1.256 . S
O92 Zn64 2.053 . S
O92 C70 1.244 . S
C93 O71 1.259 . S
C93 O72 1.254 . S
O94 Zn64 2.066 . S
O94 C66 1.256 . S
O95 C66 1.244 . S
O95 Zn67 2.053 . S
Zn96 O97 2.055 . S
Zn96 O104 2.046 . S
Zn96 N112 2.036 . S
Zn96 O124 2.053 . S
Zn96 O126 2.066 . S
O97 Zn96 2.055 . S
O97 C100 1.259 . S
C98 O126 1.256 . S
C98 O127 1.244 . S
Zn99 O101 2.046 . S
Zn99 O103 2.055 . S
Zn99 N105 2.036 . S
Zn99 O123 2.066 . S
Zn99 O127 2.053 . S
C100 O97 1.259 . S
C100 O101 1.254 . S
O101 Zn99 2.046 . S
O101 C100 1.254 . S
C102 O123 1.256 . S
C102 O124 1.244 . S
O103 Zn99 2.055 . S
O103 C125 1.259 . S
O104 Zn96 2.046 . S
O104 C125 1.254 . S
N105 Zn99 2.036 . S
N105 C106 1.298 . S
N105 N108 1.398 . S
C106 N105 1.298 . S
C106 N109 1.367 . S
C106 C119 1.481 . S
C107 N108 1.299 . S
C107 N109 1.379 . S
N108 N105 1.398 . S
N108 C107 1.299 . S
N109 C106 1.367 . S
N109 C107 1.379 . S
C110 N112 1.298 . S
C110 N114 1.367 . S
C110 C118 1.481 . S
C111 N113 1.299 . S
C111 N114 1.379 . S
N112 Zn96 2.036 . S
N112 C110 1.298 . S
N112 N113 1.398 . S
N113 C111 1.299 . S
N113 N112 1.398 . S
N114 C110 1.367 . S
N114 C111 1.379 . S
H115 C118 0.980 . S
H116 C118 0.981 . S
H117 C118 0.981 . S
C118 C110 1.481 . S
C118 H115 0.980 . S
C118 H116 0.981 . S
C118 H117 0.981 . S
C119 C106 1.481 . S
C119 H120 0.980 . S
C119 H121 0.981 . S
C119 H122 0.981 . S
H120 C119 0.980 . S
H121 C119 0.981 . S
H122 C119 0.981 . S
O123 Zn99 2.066 . S
O123 C102 1.256 . S
O124 Zn96 2.053 . S
O124 C102 1.244 . S
C125 O103 1.259 . S
C125 O104 1.254 . S
O126 Zn96 2.066 . S
O126 C98 1.256 . S
O127 C98 1.244 . S
O127 Zn99 2.053 . S
Zn128 O129 2.055 . S
Zn128 O136 2.046 . S
Zn128 N144 2.036 . S
Zn128 O156 2.053 . S
Zn128 O158 2.066 . S
O129 Zn128 2.055 . S
O129 C132 1.259 . S
C130 O158 1.256 . S
C130 O159 1.244 . S
Zn131 O133 2.046 . S
Zn131 O135 2.055 . S
Zn131 N137 2.036 . S
Zn131 O155 2.066 . S
Zn131 O159 2.053 . S
C132 O129 1.259 . S
C132 O133 1.254 . S
O133 Zn131 2.046 . S
O133 C132 1.254 . S
C134 O155 1.256 . S
C134 O156 1.244 . S
O135 Zn131 2.055 . S
O135 C157 1.259 . S
O136 Zn128 2.046 . S
O136 C157 1.254 . S
N137 Zn131 2.036 . S
N137 C138 1.298 . S
N137 N140 1.398 . S
C138 N137 1.298 . S
C138 N141 1.367 . S
C138 C151 1.481 . S
C139 N140 1.299 . S
C139 N141 1.379 . S
N140 N137 1.398 . S
N140 C139 1.299 . S
N141 C138 1.367 . S
N141 C139 1.379 . S
C142 N144 1.298 . S
C142 N146 1.367 . S
C142 C150 1.481 . S
C143 N145 1.299 . S
C143 N146 1.379 . S
N144 Zn128 2.036 . S
N144 C142 1.298 . S
N144 N145 1.398 . S
N145 C143 1.299 . S
N145 N144 1.398 . S
N146 C142 1.367 . S
N146 C143 1.379 . S
H147 C150 0.980 . S
H148 C150 0.981 . S
H149 C150 0.981 . S
C150 C142 1.481 . S
C150 H147 0.980 . S
C150 H148 0.981 . S
C150 H149 0.981 . S
C151 C138 1.481 . S
C151 H152 0.980 . S
C151 H153 0.981 . S
C151 H154 0.981 . S
H152 C151 0.980 . S
H153 C151 0.981 . S
H154 C151 0.981 . S
O155 Zn131 2.066 . S
O155 C134 1.256 . S
O156 Zn128 2.053 . S
O156 C134 1.244 . S
C157 O135 1.259 . S
C157 O136 1.254 . S
O158 Zn128 2.066 . S
O158 C130 1.256 . S
O159 C130 1.244 . S
O159 Zn131 2.053 . S
Zn160 O161 2.055 . S
Zn160 O168 2.046 . S
Zn160 N176 2.036 . S
Zn160 O188 2.053 . S
Zn160 O190 2.066 . S
O161 Zn160 2.055 . S
O161 C164 1.259 . S
C162 O190 1.256 . S
C162 O191 1.244 . S
Zn163 O165 2.046 . S
Zn163 O167 2.055 . S
Zn163 N169 2.036 . S
Zn163 O187 2.066 . S
Zn163 O191 2.053 . S
C164 O161 1.259 . S
C164 O165 1.254 . S
O165 Zn163 2.046 . S
O165 C164 1.254 . S
C166 O187 1.256 . S
C166 O188 1.244 . S
O167 Zn163 2.055 . S
O167 C189 1.259 . S
O168 Zn160 2.046 . S
O168 C189 1.254 . S
N169 Zn163 2.036 . S
N169 C170 1.298 . S
N169 N172 1.398 . S
C170 N169 1.298 . S
C170 N173 1.367 . S
C170 C183 1.481 . S
C171 N172 1.299 . S
C171 N173 1.379 . S
N172 N169 1.398 . S
N172 C171 1.299 . S
N173 C170 1.367 . S
N173 C171 1.379 . S
C174 N176 1.298 . S
C174 N178 1.367 . S
C174 C182 1.481 . S
C175 N177 1.299 . S
C175 N178 1.379 . S
N176 Zn160 2.036 . S
N176 C174 1.298 . S
N176 N177 1.398 . S
N177 C175 1.299 . S
N177 N176 1.398 . S
N178 C174 1.367 . S
N178 C175 1.379 . S
H179 C182 0.980 . S
H180 C182 0.981 . S
H181 C182 0.981 . S
C182 C174 1.481 . S
C182 H179 0.980 . S
C182 H180 0.981 . S
C182 H181 0.981 . S
C183 C170 1.481 . S
C183 H184 0.980 . S
C183 H185 0.981 . S
C183 H186 0.981 . S
H184 C183 0.980 . S
H185 C183 0.981 . S
H186 C183 0.981 . S
O187 Zn163 2.066 . S
O187 C166 1.256 . S
O188 Zn160 2.053 . S
O188 C166 1.244 . S
C189 O167 1.259 . S
C189 O168 1.254 . S
O190 Zn160 2.066 . S
O190 C162 1.256 . S
O191 C162 1.244 . S
O191 Zn163 2.053 . S
Zn192 O193 2.055 . S
Zn192 O200 2.046 . S
Zn192 N208 2.036 . S
Zn192 O220 2.053 . S
Zn192 O222 2.066 . S
O193 Zn192 2.055 . S
O193 C196 1.259 . S
C194 O222 1.256 . S
C194 O223 1.244 . S
Zn195 O197 2.046 . S
Zn195 O199 2.055 . S
Zn195 N201 2.036 . S
Zn195 O219 2.066 . S
Zn195 O223 2.053 . S
C196 O193 1.259 . S
C196 O197 1.254 . S
O197 Zn195 2.046 . S
O197 C196 1.254 . S
C198 O219 1.256 . S
C198 O220 1.244 . S
O199 Zn195 2.055 . S
O199 C221 1.259 . S
O200 Zn192 2.046 . S
O200 C221 1.254 . S
N201 Zn195 2.036 . S
N201 C202 1.298 . S
N201 N204 1.398 . S
C202 N201 1.298 . S
C202 N205 1.367 . S
C202 C215 1.481 . S
C203 N204 1.299 . S
C203 N205 1.379 . S
N204 N201 1.398 . S
N204 C203 1.299 . S
N205 C202 1.367 . S
N205 C203 1.379 . S
C206 N208 1.298 . S
C206 N210 1.367 . S
C206 C214 1.481 . S
C207 N209 1.299 . S
C207 N210 1.379 . S
N208 Zn192 2.036 . S
N208 C206 1.298 . S
N208 N209 1.398 . S
N209 C207 1.299 . S
N209 N208 1.398 . S
N210 C206 1.367 . S
N210 C207 1.379 . S
H211 C214 0.980 . S
H212 C214 0.981 . S
H213 C214 0.981 . S
C214 C206 1.481 . S
C214 H211 0.980 . S
C214 H212 0.981 . S
C214 H213 0.981 . S
C215 C202 1.481 . S
C215 H216 0.980 . S
C215 H217 0.981 . S
C215 H218 0.981 . S
H216 C215 0.980 . S
H217 C215 0.981 . S
H218 C215 0.981 . S
O219 Zn195 2.066 . S
O219 C198 1.256 . S
O220 Zn192 2.053 . S
O220 C198 1.244 . S
C221 O199 1.259 . S
C221 O200 1.254 . S
O222 Zn192 2.066 . S
O222 C194 1.256 . S
O223 C194 1.244 . S
O223 Zn195 2.053 . S
Zn224 O225 2.055 . S
Zn224 O232 2.046 . S
Zn224 N240 2.036 . S
Zn224 O252 2.053 . S
Zn224 O254 2.066 . S
O225 Zn224 2.055 . S
O225 C228 1.259 . S
C226 O254 1.256 . S
C226 O255 1.244 . S
Zn227 O229 2.046 . S
Zn227 O231 2.055 . S
Zn227 N233 2.036 . S
Zn227 O251 2.066 . S
Zn227 O255 2.053 . S
C228 O225 1.259 . S
C228 O229 1.254 . S
O229 Zn227 2.046 . S
O229 C228 1.254 . S
C230 O251 1.256 . S
C230 O252 1.244 . S
O231 Zn227 2.055 . S
O231 C253 1.259 . S
O232 Zn224 2.046 . S
O232 C253 1.254 . S
N233 Zn227 2.036 . S
N233 C234 1.298 . S
N233 N236 1.398 . S
C234 N233 1.298 . S
C234 N237 1.367 . S
C234 C247 1.481 . S
C235 N236 1.299 . S
C235 N237 1.379 . S
N236 N233 1.398 . S
N236 C235 1.299 . S
N237 C234 1.367 . S
N237 C235 1.379 . S
C238 N240 1.298 . S
C238 N242 1.367 . S
C238 C246 1.481 . S
C239 N241 1.299 . S
C239 N242 1.379 . S
N240 Zn224 2.036 . S
N240 C238 1.298 . S
N240 N241 1.398 . S
N241 C239 1.299 . S
N241 N240 1.398 . S
N242 C238 1.367 . S
N242 C239 1.379 . S
H243 C246 0.980 . S
H244 C246 0.981 . S
H245 C246 0.981 . S
C246 C238 1.481 . S
C246 H243 0.980 . S
C246 H244 0.981 . S
C246 H245 0.981 . S
C247 C234 1.481 . S
C247 H248 0.980 . S
C247 H249 0.981 . S
C247 H250 0.981 . S
H248 C247 0.980 . S
H249 C247 0.981 . S
H250 C247 0.981 . S
O251 Zn227 2.066 . S
O251 C230 1.256 . S
O252 Zn224 2.053 . S
O252 C230 1.244 . S
C253 O231 1.259 . S
C253 O232 1.254 . S
O254 Zn224 2.066 . S
O254 C226 1.256 . S
O255 C226 1.244 . S
O255 Zn227 2.053 . S
Zn256 O257 2.055 . S
Zn256 O264 2.046 . S
Zn256 N272 2.036 . S
Zn256 O284 2.053 . S
Zn256 O286 2.066 . S
O257 Zn256 2.055 . S
O257 C260 1.259 . S
C258 O286 1.256 . S
C258 O287 1.244 . S
Zn259 O261 2.046 . S
Zn259 O263 2.055 . S
Zn259 N265 2.036 . S
Zn259 O283 2.066 . S
Zn259 O287 2.053 . S
C260 O257 1.259 . S
C260 O261 1.254 . S
O261 Zn259 2.046 . S
O261 C260 1.254 . S
C262 O283 1.256 . S
C262 O284 1.244 . S
O263 Zn259 2.055 . S
O263 C285 1.259 . S
O264 Zn256 2.046 . S
O264 C285 1.254 . S
N265 Zn259 2.036 . S
N265 C266 1.298 . S
N265 N268 1.398 . S
C266 N265 1.298 . S
C266 N269 1.367 . S
C266 C279 1.481 . S
C267 N268 1.299 . S
C267 N269 1.379 . S
N268 N265 1.398 . S
N268 C267 1.299 . S
N269 C266 1.367 . S
N269 C267 1.379 . S
C270 N272 1.298 . S
C270 N274 1.367 . S
C270 C278 1.481 . S
C271 N273 1.299 . S
C271 N274 1.379 . S
N272 Zn256 2.036 . S
N272 C270 1.298 . S
N272 N273 1.398 . S
N273 C271 1.299 . S
N273 N272 1.398 . S
N274 C270 1.367 . S
N274 C271 1.379 . S
H275 C278 0.980 . S
H276 C278 0.981 . S
H277 C278 0.981 . S
C278 C270 1.481 . S
C278 H275 0.980 . S
C278 H276 0.981 . S
C278 H277 0.981 . S
C279 C266 1.481 . S
C279 H280 0.980 . S
C279 H281 0.981 . S
C279 H282 0.981 . S
H280 C279 0.980 . S
H281 C279 0.981 . S
H282 C279 0.981 . S
O283 Zn259 2.066 . S
O283 C262 1.256 . S
O284 Zn256 2.053 . S
O284 C262 1.244 . S
C285 O263 1.259 . S
C285 O264 1.254 . S
O286 Zn256 2.066 . S
O286 C258 1.256 . S
O287 C258 1.244 . S
O287 Zn259 2.053 . S
Zn288 O289 2.055 . S
Zn288 O296 2.046 . S
Zn288 N304 2.036 . S
Zn288 O316 2.053 . S
Zn288 O318 2.066 . S
O289 Zn288 2.055 . S
O289 C292 1.259 . S
C290 O318 1.256 . S
C290 O319 1.244 . S
Zn291 O293 2.046 . S
Zn291 O295 2.055 . S
Zn291 N297 2.036 . S
Zn291 O315 2.066 . S
Zn291 O319 2.053 1_565 S
C292 O289 1.259 . S
C292 O293 1.254 1_545 S
O293 Zn291 2.046 . S
O293 C292 1.254 1_565 S
C294 O315 1.256 1_545 S
C294 O316 1.244 . S
O295 Zn291 2.055 . S
O295 C317 1.259 . S
O296 Zn288 2.046 . S
O296 C317 1.254 1_545 S
N297 Zn291 2.036 . S
N297 C298 1.298 . S
N297 N300 1.398 . S
C298 N297 1.298 . S
C298 N301 1.367 . S
C298 C311 1.481 . S
C299 N300 1.299 . S
C299 N301 1.379 . S
N300 N297 1.398 . S
N300 C299 1.299 . S
N301 C298 1.367 . S
N301 C299 1.379 . S
C302 N304 1.298 . S
C302 N306 1.367 . S
C302 C310 1.481 . S
C303 N305 1.299 . S
C303 N306 1.379 . S
N304 Zn288 2.036 . S
N304 C302 1.298 . S
N304 N305 1.398 . S
N305 C303 1.299 . S
N305 N304 1.398 . S
N306 C302 1.367 . S
N306 C303 1.379 . S
H307 C310 0.980 . S
H308 C310 0.981 . S
H309 C310 0.981 . S
C310 C302 1.481 . S
C310 H307 0.980 . S
C310 H308 0.981 . S
C310 H309 0.981 . S
C311 C298 1.481 . S
C311 H312 0.980 . S
C311 H313 0.981 . S
C311 H314 0.981 . S
H312 C311 0.980 . S
H313 C311 0.981 . S
H314 C311 0.981 . S
O315 Zn291 2.066 . S
O315 C294 1.256 1_565 S
O316 Zn288 2.053 . S
O316 C294 1.244 . S
C317 O295 1.259 . S
C317 O296 1.254 1_565 S
O318 Zn288 2.066 . S
O318 C290 1.256 . S
O319 C290 1.244 . S
O319 Zn291 2.053 1_545 S
Zn320 O321 2.055 . S
Zn320 O328 2.046 . S
Zn320 N336 2.036 . S
Zn320 O348 2.053 . S
Zn320 O350 2.066 . S
O321 Zn320 2.055 . S
O321 C324 1.259 . S
C322 O350 1.256 . S
C322 O351 1.244 . S
Zn323 O325 2.046 . S
Zn323 O327 2.055 . S
Zn323 N329 2.036 . S
Zn323 O347 2.066 . S
Zn323 O351 2.053 . S
C324 O321 1.259 . S
C324 O325 1.254 . S
O325 Zn323 2.046 . S
O325 C324 1.254 . S
C326 O347 1.256 . S
C326 O348 1.244 . S
O327 Zn323 2.055 . S
O327 C349 1.259 . S
O328 Zn320 2.046 . S
O328 C349 1.254 . S
N329 Zn323 2.036 . S
N329 C330 1.298 . S
N329 N332 1.398 . S
C330 N329 1.298 . S
C330 N333 1.367 . S
C330 C343 1.481 . S
C331 N332 1.299 . S
C331 N333 1.379 . S
N332 N329 1.398 . S
N332 C331 1.299 . S
N333 C330 1.367 . S
N333 C331 1.379 . S
C334 N336 1.298 . S
C334 N338 1.367 . S
C334 C342 1.481 . S
C335 N337 1.299 . S
C335 N338 1.379 . S
N336 Zn320 2.036 . S
N336 C334 1.298 . S
N336 N337 1.398 . S
N337 C335 1.299 . S
N337 N336 1.398 . S
N338 C334 1.367 . S
N338 C335 1.379 . S
H339 C342 0.980 . S
H340 C342 0.981 . S
H341 C342 0.981 . S
C342 C334 1.481 . S
C342 H339 0.980 . S
C342 H340 0.981 . S
C342 H341 0.981 . S
C343 C330 1.481 . S
C343 H344 0.980 . S
C343 H345 0.981 . S
C343 H346 0.981 . S
H344 C343 0.980 . S
H345 C343 0.981 . S
H346 C343 0.981 . S
O347 Zn323 2.066 . S
O347 C326 1.256 . S
O348 Zn320 2.053 . S
O348 C326 1.244 . S
C349 O327 1.259 . S
C349 O328 1.254 . S
O350 Zn320 2.066 . S
O350 C322 1.256 . S
O351 C322 1.244 . S
O351 Zn323 2.053 . S
Zn352 O353 2.055 . S
Zn352 O360 2.046 . S
Zn352 N368 2.036 . S
Zn352 O380 2.053 1_545 S
Zn352 O382 2.066 . S
O353 Zn352 2.055 . S
O353 C356 1.259 . S
C354 O382 1.256 1_565 S
C354 O383 1.244 . S
Zn355 O357 2.046 . S
Zn355 O359 2.055 . S
Zn355 N361 2.036 . S
Zn355 O379 2.066 . S
Zn355 O383 2.053 . S
C356 O353 1.259 . S
C356 O357 1.254 1_545 S
O357 Zn355 2.046 . S
O357 C356 1.254 1_565 S
C358 O379 1.256 . S
C358 O380 1.244 . S
O359 Zn355 2.055 . S
O359 C381 1.259 . S
O360 Zn352 2.046 . S
O360 C381 1.254 1_545 S
N361 Zn355 2.036 . S
N361 C362 1.298 . S
N361 N364 1.398 . S
C362 N361 1.298 . S
C362 N365 1.367 . S
C362 C375 1.481 . S
C363 N364 1.299 . S
C363 N365 1.379 . S
N364 N361 1.398 . S
N364 C363 1.299 . S
N365 C362 1.367 . S
N365 C363 1.379 . S
C366 N368 1.298 . S
C366 N370 1.367 . S
C366 C374 1.481 . S
C367 N369 1.299 . S
C367 N370 1.379 . S
N368 Zn352 2.036 . S
N368 C366 1.298 . S
N368 N369 1.398 . S
N369 C367 1.299 . S
N369 N368 1.398 . S
N370 C366 1.367 . S
N370 C367 1.379 . S
H371 C374 0.980 . S
H372 C374 0.981 . S
H373 C374 0.981 . S
C374 C366 1.481 . S
C374 H371 0.980 . S
C374 H372 0.981 . S
C374 H373 0.981 . S
C375 C362 1.481 . S
C375 H376 0.980 . S
C375 H377 0.981 . S
C375 H378 0.981 . S
H376 C375 0.980 . S
H377 C375 0.981 . S
H378 C375 0.981 . S
O379 Zn355 2.066 . S
O379 C358 1.256 . S
O380 Zn352 2.053 1_565 S
O380 C358 1.244 . S
C381 O359 1.259 . S
C381 O360 1.254 1_565 S
O382 Zn352 2.066 . S
O382 C354 1.256 1_545 S
O383 C354 1.244 . S
O383 Zn355 2.053 . S
Zn384 O385 2.055 . S
Zn384 O392 2.046 . S
Zn384 N400 2.036 . S
Zn384 O412 2.053 . S
Zn384 O414 2.066 . S
O385 Zn384 2.055 . S
O385 C388 1.259 . S
C386 O414 1.256 . S
C386 O415 1.244 . S
Zn387 O389 2.046 . S
Zn387 O391 2.055 . S
Zn387 N393 2.036 . S
Zn387 O411 2.066 . S
Zn387 O415 2.053 . S
C388 O385 1.259 . S
C388 O389 1.254 . S
O389 Zn387 2.046 . S
O389 C388 1.254 . S
C390 O411 1.256 . S
C390 O412 1.244 . S
O391 Zn387 2.055 . S
O391 C413 1.259 . S
O392 Zn384 2.046 . S
O392 C413 1.254 . S
N393 Zn387 2.036 . S
N393 C394 1.298 . S
N393 N396 1.398 . S
C394 N393 1.298 . S
C394 N397 1.367 . S
C394 C407 1.481 . S
C395 N396 1.299 . S
C395 N397 1.379 . S
N396 N393 1.398 . S
N396 C395 1.299 . S
N397 C394 1.367 . S
N397 C395 1.379 . S
C398 N400 1.298 . S
C398 N402 1.367 . S
C398 C406 1.481 . S
C399 N401 1.299 . S
C399 N402 1.379 . S
N400 Zn384 2.036 . S
N400 C398 1.298 . S
N400 N401 1.398 . S
N401 C399 1.299 . S
N401 N400 1.398 . S
N402 C398 1.367 . S
N402 C399 1.379 . S
H403 C406 0.980 . S
H404 C406 0.981 . S
H405 C406 0.981 . S
C406 C398 1.481 . S
C406 H403 0.980 . S
C406 H404 0.981 . S
C406 H405 0.981 . S
C407 C394 1.481 . S
C407 H408 0.980 . S
C407 H409 0.981 . S
C407 H410 0.981 . S
H408 C407 0.980 . S
H409 C407 0.981 . S
H410 C407 0.981 . S
O411 Zn387 2.066 . S
O411 C390 1.256 . S
O412 Zn384 2.053 . S
O412 C390 1.244 . S
C413 O391 1.259 . S
C413 O392 1.254 . S
O414 Zn384 2.066 . S
O414 C386 1.256 . S
O415 C386 1.244 . S
O415 Zn387 2.053 . S
Zn416 O417 2.055 . S
Zn416 O424 2.046 . S
Zn416 N432 2.036 . S
Zn416 O444 2.053 . S
Zn416 O446 2.066 . S
O417 Zn416 2.055 . S
O417 C420 1.259 . S
C418 O446 1.256 . S
C418 O447 1.244 . S
Zn419 O421 2.046 . S
Zn419 O423 2.055 . S
Zn419 N425 2.036 . S
Zn419 O443 2.066 . S
Zn419 O447 2.053 1_545 S
C420 O417 1.259 . S
C420 O421 1.254 1_565 S
O421 Zn419 2.046 . S
O421 C420 1.254 1_545 S
C422 O443 1.256 1_565 S
C422 O444 1.244 . S
O423 Zn419 2.055 . S
O423 C445 1.259 . S
O424 Zn416 2.046 . S
O424 C445 1.254 1_565 S
N425 Zn419 2.036 . S
N425 C426 1.298 . S
N425 N428 1.398 . S
C426 N425 1.298 . S
C426 N429 1.367 . S
C426 C439 1.481 . S
C427 N428 1.299 . S
C427 N429 1.379 . S
N428 N425 1.398 . S
N428 C427 1.299 . S
N429 C426 1.367 . S
N429 C427 1.379 . S
C430 N432 1.298 . S
C430 N434 1.367 . S
C430 C438 1.481 . S
C431 N433 1.299 . S
C431 N434 1.379 . S
N432 Zn416 2.036 . S
N432 C430 1.298 . S
N432 N433 1.398 . S
N433 C431 1.299 . S
N433 N432 1.398 . S
N434 C430 1.367 . S
N434 C431 1.379 . S
H435 C438 0.980 . S
H436 C438 0.981 . S
H437 C438 0.981 . S
C438 C430 1.481 . S
C438 H435 0.980 . S
C438 H436 0.981 . S
C438 H437 0.981 . S
C439 C426 1.481 . S
C439 H440 0.980 . S
C439 H441 0.981 . S
C439 H442 0.981 . S
H440 C439 0.980 . S
H441 C439 0.981 . S
H442 C439 0.981 . S
O443 Zn419 2.066 . S
O443 C422 1.256 1_545 S
O444 Zn416 2.053 . S
O444 C422 1.244 . S
C445 O423 1.259 . S
C445 O424 1.254 1_545 S
O446 Zn416 2.066 . S
O446 C418 1.256 . S
O447 C418 1.244 . S
O447 Zn419 2.053 1_565 S
Zn448 O449 2.055 . S
Zn448 O456 2.046 . S
Zn448 N464 2.036 . S
Zn448 O476 2.053 . S
Zn448 O478 2.066 . S
O449 Zn448 2.055 . S
O449 C452 1.259 . S
C450 O478 1.256 . S
C450 O479 1.244 . S
Zn451 O453 2.046 . S
Zn451 O455 2.055 . S
Zn451 N457 2.036 . S
Zn451 O475 2.066 . S
Zn451 O479 2.053 . S
C452 O449 1.259 . S
C452 O453 1.254 . S
O453 Zn451 2.046 . S
O453 C452 1.254 . S
C454 O475 1.256 . S
C454 O476 1.244 . S
O455 Zn451 2.055 . S
O455 C477 1.259 . S
O456 Zn448 2.046 . S
O456 C477 1.254 . S
N457 Zn451 2.036 . S
N457 C458 1.298 . S
N457 N460 1.398 . S
C458 N457 1.298 . S
C458 N461 1.367 . S
C458 C471 1.481 . S
C459 N460 1.299 . S
C459 N461 1.379 . S
N460 N457 1.398 . S
N460 C459 1.299 . S
N461 C458 1.367 . S
N461 C459 1.379 . S
C462 N464 1.298 . S
C462 N466 1.367 . S
C462 C470 1.481 . S
C463 N465 1.299 . S
C463 N466 1.379 . S
N464 Zn448 2.036 . S
N464 C462 1.298 . S
N464 N465 1.398 . S
N465 C463 1.299 . S
N465 N464 1.398 . S
N466 C462 1.367 . S
N466 C463 1.379 . S
H467 C470 0.980 . S
H468 C470 0.981 . S
H469 C470 0.981 . S
C470 C462 1.481 . S
C470 H467 0.980 . S
C470 H468 0.981 . S
C470 H469 0.981 . S
C471 C458 1.481 . S
C471 H472 0.980 . S
C471 H473 0.981 . S
C471 H474 0.981 . S
H472 C471 0.980 . S
H473 C471 0.981 . S
H474 C471 0.981 . S
O475 Zn451 2.066 . S
O475 C454 1.256 . S
O476 Zn448 2.053 . S
O476 C454 1.244 . S
C477 O455 1.259 . S
C477 O456 1.254 . S
O478 Zn448 2.066 . S
O478 C450 1.256 . S
O479 C450 1.244 . S
O479 Zn451 2.053 . S
Zn480 O481 2.055 . S
Zn480 O488 2.046 . S
Zn480 N496 2.036 . S
Zn480 O508 2.053 1_565 S
Zn480 O510 2.066 . S
O481 Zn480 2.055 . S
O481 C484 1.259 . S
C482 O510 1.256 1_545 S
C482 O511 1.244 . S
Zn483 O485 2.046 . S
Zn483 O487 2.055 . S
Zn483 N489 2.036 . S
Zn483 O507 2.066 . S
Zn483 O511 2.053 . S
C484 O481 1.259 . S
C484 O485 1.254 1_565 S
O485 Zn483 2.046 . S
O485 C484 1.254 1_545 S
C486 O507 1.256 . S
C486 O508 1.244 . S
O487 Zn483 2.055 . S
O487 C509 1.259 . S
O488 Zn480 2.046 . S
O488 C509 1.254 1_565 S
N489 Zn483 2.036 . S
N489 C490 1.298 . S
N489 N492 1.398 . S
C490 N489 1.298 . S
C490 N493 1.367 . S
C490 C503 1.481 . S
C491 N492 1.299 . S
C491 N493 1.379 . S
N492 N489 1.398 . S
N492 C491 1.299 . S
N493 C490 1.367 . S
N493 C491 1.379 . S
C494 N496 1.298 . S
C494 N498 1.367 . S
C494 C502 1.481 . S
C495 N497 1.299 . S
C495 N498 1.379 . S
N496 Zn480 2.036 . S
N496 C494 1.298 . S
N496 N497 1.398 . S
N497 C495 1.299 . S
N497 N496 1.398 . S
N498 C494 1.367 . S
N498 C495 1.379 . S
H499 C502 0.980 . S
H500 C502 0.981 . S
H501 C502 0.981 . S
C502 C494 1.481 . S
C502 H499 0.980 . S
C502 H500 0.981 . S
C502 H501 0.981 . S
C503 C490 1.481 . S
C503 H504 0.980 . S
C503 H505 0.981 . S
C503 H506 0.981 . S
H504 C503 0.980 . S
H505 C503 0.981 . S
H506 C503 0.981 . S
O507 Zn483 2.066 . S
O507 C486 1.256 . S
O508 Zn480 2.053 1_545 S
O508 C486 1.244 . S
C509 O487 1.259 . S
C509 O488 1.254 1_545 S
O510 Zn480 2.066 . S
O510 C482 1.256 1_565 S
O511 C482 1.244 . S
O511 Zn483 2.053 . S
C512 C513 1.391 . S
C512 C514 1.394 . S
C512 H528 0.931 . S
C513 C512 1.391 . S
C513 C517 1.376 . S
C514 C512 1.394 . S
C514 C515 1.369 . S
C514 C518 1.531 . S
C515 C514 1.369 . S
C515 C516 1.410 . S
C515 C523 1.503 . S
C516 C515 1.410 . S
C516 C517 1.392 . S
C516 C519 1.511 . S
C517 C513 1.376 . S
C517 C516 1.392 . S
C517 H529 0.929 . S
C518 C514 1.531 . S
C518 H530 0.960 . S
C518 H531 0.962 . S
C518 H532 0.960 . S
C519 C516 1.511 . S
C519 H533 0.961 . S
C519 H534 0.961 . S
C519 H535 0.961 . S
C520 C521 1.370 . S
C520 C522 1.363 . S
C520 H536 0.931 . S
C521 C520 1.370 . S
C521 C525 1.408 . S
C522 C520 1.363 . S
C522 C523 1.370 . S
C522 C526 1.524 . S
C523 C515 1.503 . S
C523 C522 1.370 . S
C523 C524 1.403 . S
C524 C523 1.403 . S
C524 C525 1.404 . S
C524 C527 1.539 . S
C525 C521 1.408 . S
C525 C524 1.404 . S
C525 H537 0.930 . S
C526 C522 1.524 . S
C526 H538 0.956 . S
C526 H539 0.961 . S
C526 H540 0.961 . S
C527 C524 1.539 . S
C527 H541 0.958 . S
C527 H542 0.961 . S
C527 H543 0.960 . S
H528 C512 0.931 . S
H529 C517 0.929 . S
H530 C518 0.960 . S
H531 C518 0.962 . S
H532 C518 0.960 . S
H533 C519 0.961 . S
H534 C519 0.961 . S
H535 C519 0.961 . S
H536 C520 0.931 . S
H537 C525 0.930 . S
H538 C526 0.956 . S
H539 C526 0.961 . S
H540 C526 0.961 . S
H541 C527 0.958 . S
H542 C527 0.961 . S
H543 C527 0.960 . S
C544 C545 1.391 . S
C544 C546 1.394 . S
C544 H560 0.931 . S
C545 C544 1.391 . S
C545 C549 1.376 . S
C546 C544 1.394 . S
C546 C547 1.369 . S
C546 C550 1.531 . S
C547 C546 1.369 . S
C547 C548 1.410 . S
C547 C555 1.503 . S
C548 C547 1.410 . S
C548 C549 1.392 . S
C548 C551 1.511 . S
C549 C545 1.376 . S
C549 C548 1.392 . S
C549 H561 0.929 . S
C550 C546 1.531 . S
C550 H562 0.960 . S
C550 H563 0.962 . S
C550 H564 0.960 . S
C551 C548 1.511 . S
C551 H565 0.961 . S
C551 H566 0.961 . S
C551 H567 0.961 . S
C552 C553 1.370 . S
C552 C554 1.363 . S
C552 H568 0.931 . S
C553 C552 1.370 . S
C553 C557 1.408 . S
C554 C552 1.363 . S
C554 C555 1.370 . S
C554 C558 1.524 . S
C555 C547 1.503 . S
C555 C554 1.370 . S
C555 C556 1.403 . S
C556 C555 1.403 . S
C556 C557 1.404 . S
C556 C559 1.539 . S
C557 C553 1.408 . S
C557 C556 1.404 . S
C557 H569 0.930 . S
C558 C554 1.524 . S
C558 H570 0.956 . S
C558 H571 0.961 . S
C558 H572 0.961 . S
C559 C556 1.539 . S
C559 H573 0.958 . S
C559 H574 0.961 . S
C559 H575 0.960 . S
H560 C544 0.931 . S
H561 C549 0.929 . S
H562 C550 0.960 . S
H563 C550 0.962 . S
H564 C550 0.960 . S
H565 C551 0.961 . S
H566 C551 0.961 . S
H567 C551 0.961 . S
H568 C552 0.931 . S
H569 C557 0.930 . S
H570 C558 0.956 . S
H571 C558 0.961 . S
H572 C558 0.961 . S
H573 C559 0.958 . S
H574 C559 0.961 . S
H575 C559 0.960 . S
C576 C577 1.391 . S
C576 C578 1.394 . S
C576 H592 0.931 . S
C577 C576 1.391 . S
C577 C581 1.376 . S
C578 C576 1.394 . S
C578 C579 1.369 . S
C578 C582 1.531 . S
C579 C578 1.369 . S
C579 C580 1.410 . S
C579 C587 1.503 . S
C580 C579 1.410 . S
C580 C581 1.392 . S
C580 C583 1.511 . S
C581 C577 1.376 . S
C581 C580 1.392 . S
C581 H593 0.929 . S
C582 C578 1.531 . S
C582 H594 0.960 . S
C582 H595 0.962 . S
C582 H596 0.960 . S
C583 C580 1.511 . S
C583 H597 0.961 . S
C583 H598 0.961 . S
C583 H599 0.961 . S
C584 C585 1.370 . S
C584 C586 1.363 . S
C584 H600 0.931 . S
C585 C584 1.370 . S
C585 C589 1.408 . S
C586 C584 1.363 . S
C586 C587 1.370 . S
C586 C590 1.524 . S
C587 C579 1.503 . S
C587 C586 1.370 . S
C587 C588 1.403 . S
C588 C587 1.403 . S
C588 C589 1.404 . S
C588 C591 1.539 . S
C589 C585 1.408 . S
C589 C588 1.404 . S
C589 H601 0.930 . S
C590 C586 1.524 . S
C590 H602 0.956 . S
C590 H603 0.961 . S
C590 H604 0.961 . S
C591 C588 1.539 . S
C591 H605 0.958 . S
C591 H606 0.961 . S
C591 H607 0.960 . S
H592 C576 0.931 . S
H593 C581 0.929 . S
H594 C582 0.960 . S
H595 C582 0.962 . S
H596 C582 0.960 . S
H597 C583 0.961 . S
H598 C583 0.961 . S
H599 C583 0.961 . S
H600 C584 0.931 . S
H601 C589 0.930 . S
H602 C590 0.956 . S
H603 C590 0.961 . S
H604 C590 0.961 . S
H605 C591 0.958 . S
H606 C591 0.961 . S
H607 C591 0.960 . S
C608 C609 1.391 . S
C608 C610 1.394 . S
C608 H624 0.931 . S
C609 C608 1.391 . S
C609 C613 1.376 . S
C610 C608 1.394 . S
C610 C611 1.369 . S
C610 C614 1.531 1_655 S
C611 C610 1.369 . S
C611 C612 1.401 1_556 S
C611 C619 1.503 1_656 S
C612 C611 1.401 1_554 S
C612 C613 1.376 1_554 S
C612 C615 1.536 . S
C613 C609 1.376 . S
C613 C612 1.376 1_556 S
C613 H625 0.929 . S
C614 C610 1.531 1_455 S
C614 H626 0.960 . S
C614 H627 0.962 . S
C614 H628 0.960 . S
C615 C612 1.536 . S
C615 H629 0.961 . S
C615 H630 0.961 . S
C615 H631 0.961 . S
C616 C617 1.370 . S
C616 C618 1.363 . S
C616 H632 0.931 . S
C617 C616 1.370 . S
C617 C621 1.408 . S
C618 C616 1.363 . S
C618 C619 1.370 . S
C618 C622 1.524 . S
C619 C611 1.503 1_454 S
C619 C618 1.370 . S
C619 C620 1.403 . S
C620 C619 1.403 . S
C620 C621 1.404 . S
C620 C623 1.539 1_455 S
C621 C617 1.408 . S
C621 C620 1.404 . S
C621 H633 0.930 . S
C622 C618 1.524 . S
C622 H634 0.956 1_554 S
C622 H635 0.961 . S
C622 H636 0.961 . S
C623 C620 1.539 1_655 S
C623 H637 0.991 . S
C623 H638 0.961 . S
C623 H639 0.960 . S
H624 C608 0.931 . S
H625 C613 0.929 . S
H626 C614 0.960 . S
H627 C614 0.962 . S
H628 C614 0.960 . S
H629 C615 0.961 . S
H630 C615 0.961 . S
H631 C615 0.961 . S
H632 C616 0.931 . S
H633 C621 0.930 . S
H634 C622 0.956 1_556 S
H635 C622 0.961 . S
H636 C622 0.961 . S
H637 C623 0.991 . S
H638 C623 0.961 . S
H639 C623 0.960 . S
C640 C641 1.391 . S
C640 C642 1.394 . S
C640 H656 0.931 . S
C641 C640 1.391 . S
C641 C645 1.376 . S
C642 C640 1.394 . S
C642 C643 1.369 . S
C642 C646 1.531 . S
C643 C642 1.369 . S
C643 C644 1.410 . S
C643 C651 1.503 . S
C644 C643 1.410 . S
C644 C645 1.392 . S
C644 C647 1.511 . S
C645 C641 1.376 . S
C645 C644 1.392 . S
C645 H657 0.929 . S
C646 C642 1.531 . S
C646 H658 0.960 . S
C646 H659 0.962 . S
C646 H660 0.960 . S
C647 C644 1.511 . S
C647 H661 0.961 . S
C647 H662 0.961 . S
C647 H663 0.961 . S
C648 C649 1.370 . S
C648 C650 1.363 . S
C648 H664 0.931 . S
C649 C648 1.370 . S
C649 C653 1.408 . S
C650 C648 1.363 . S
C650 C651 1.370 . S
C650 C654 1.524 . S
C651 C643 1.503 . S
C651 C650 1.370 . S
C651 C652 1.403 . S
C652 C651 1.403 . S
C652 C653 1.404 . S
C652 C655 1.539 . S
C653 C649 1.408 . S
C653 C652 1.404 . S
C653 H665 0.930 . S
C654 C650 1.524 . S
C654 H666 0.956 . S
C654 H667 0.961 . S
C654 H668 0.961 . S
C655 C652 1.539 . S
C655 H669 0.958 . S
C655 H670 0.961 . S
C655 H671 0.960 . S
H656 C640 0.931 . S
H657 C645 0.929 . S
H658 C646 0.960 . S
H659 C646 0.962 . S
H660 C646 0.960 . S
H661 C647 0.961 . S
H662 C647 0.961 . S
H663 C647 0.961 . S
H664 C648 0.931 . S
H665 C653 0.930 . S
H666 C654 0.956 . S
H667 C654 0.961 . S
H668 C654 0.961 . S
H669 C655 0.958 . S
H670 C655 0.961 . S
H671 C655 0.960 . S
C672 C673 1.391 . S
C672 C674 1.394 . S
C672 H688 0.931 . S
C673 C672 1.391 . S
C673 C677 1.376 . S
C674 C672 1.394 . S
C674 C675 1.369 . S
C674 C678 1.531 . S
C675 C674 1.369 . S
C675 C676 1.410 . S
C675 C683 1.503 . S
C676 C675 1.410 . S
C676 C677 1.392 . S
C676 C679 1.511 . S
C677 C673 1.376 . S
C677 C676 1.392 . S
C677 H689 0.929 . S
C678 C674 1.531 . S
C678 H690 0.960 . S
C678 H691 0.962 . S
C678 H692 0.960 . S
C679 C676 1.511 . S
C679 H693 0.961 . S
C679 H694 0.961 . S
C679 H695 0.961 . S
C680 C681 1.370 . S
C680 C682 1.363 . S
C680 H696 0.931 . S
C681 C680 1.370 . S
C681 C685 1.408 . S
C682 C680 1.363 . S
C682 C683 1.370 . S
C682 C686 1.524 . S
C683 C675 1.503 . S
C683 C682 1.370 . S
C683 C684 1.403 . S
C684 C683 1.403 . S
C684 C685 1.404 . S
C684 C687 1.539 . S
C685 C681 1.408 . S
C685 C684 1.404 . S
C685 H697 0.930 . S
C686 C682 1.524 . S
C686 H698 0.956 . S
C686 H699 0.961 . S
C686 H700 0.961 . S
C687 C684 1.539 . S
C687 H701 0.958 . S
C687 H702 0.961 . S
C687 H703 0.960 . S
H688 C672 0.931 . S
H689 C677 0.929 . S
H690 C678 0.960 . S
H691 C678 0.962 . S
H692 C678 0.960 . S
H693 C679 0.961 . S
H694 C679 0.961 . S
H695 C679 0.961 . S
H696 C680 0.931 . S
H697 C685 0.930 . S
H698 C686 0.956 . S
H699 C686 0.961 . S
H700 C686 0.961 . S
H701 C687 0.958 . S
H702 C687 0.961 . S
H703 C687 0.960 . S
C704 C705 1.391 . S
C704 C706 1.394 . S
C704 H720 0.931 . S
C705 C704 1.391 . S
C705 C709 1.376 . S
C706 C704 1.394 . S
C706 C707 1.369 . S
C706 C710 1.531 1_655 S
C707 C706 1.369 . S
C707 C708 1.413 . S
C707 C715 1.505 1_654 S
C708 C707 1.413 . S
C708 C709 1.402 . S
C708 C711 1.498 1_564 S
C709 C705 1.376 . S
C709 C708 1.402 . S
C709 H721 0.929 . S
C710 C706 1.531 1_455 S
C710 H722 0.960 . S
C710 H723 0.962 . S
C710 H724 0.960 . S
C711 C708 1.498 1_546 S
C711 H725 0.961 . S
C711 H726 0.961 . S
C711 H727 0.961 1_545 S
C712 C713 1.370 . S
C712 C714 1.363 . S
C712 H728 0.931 . S
C713 C712 1.370 . S
C713 C717 1.408 1_545 S
C714 C712 1.363 . S
C714 C715 1.367 1_545 S
C714 C718 1.524 1_556 S
C715 C707 1.505 1_456 S
C715 C714 1.367 1_565 S
C715 C716 1.405 . S
C716 C715 1.405 . S
C716 C717 1.404 . S
C716 C719 1.539 . S
C717 C713 1.408 1_565 S
C717 C716 1.404 . S
C717 H729 0.930 . S
C718 C714 1.524 1_554 S
C718 H730 0.956 . S
C718 H731 0.961 1_455 S
C718 H732 0.961 . S
C719 C716 1.539 . S
C719 H733 0.958 . S
C719 H734 0.961 . S
C719 H735 0.960 1_455 S
H720 C704 0.931 . S
H721 C709 0.929 . S
H722 C710 0.960 . S
H723 C710 0.962 . S
H724 C710 0.960 . S
H725 C711 0.961 . S
H726 C711 0.961 . S
H727 C711 0.961 1_565 S
H728 C712 0.931 . S
H729 C717 0.930 . S
H730 C718 0.956 . S
H731 C718 0.961 1_655 S
H732 C718 0.961 . S
H733 C719 0.958 . S
H734 C719 0.961 . S
H735 C719 0.960 1_655 S
C736 C737 1.391 1_545 S
C736 C738 1.394 . S
C736 H752 0.931 . S
C737 C736 1.391 1_565 S
C737 C741 1.376 . S
C738 C736 1.394 . S
C738 C739 1.369 1_545 S
C738 C742 1.531 . S
C739 C738 1.369 1_565 S
C739 C740 1.410 . S
C739 C747 1.503 1_565 S
C740 C739 1.410 . S
C740 C741 1.392 . S
C740 C743 1.511 . S
C741 C737 1.376 . S
C741 C740 1.392 . S
C741 H753 0.929 . S
C742 C738 1.531 . S
C742 H754 0.960 . S
C742 H755 0.962 . S
C742 H756 0.960 . S
C743 C740 1.511 . S
C743 H757 0.961 . S
C743 H758 0.961 . S
C743 H759 0.961 . S
C744 C745 1.370 . S
C744 C746 1.363 . S
C744 H760 0.931 . S
C745 C744 1.370 . S
C745 C749 1.408 . S
C746 C744 1.363 . S
C746 C747 1.370 . S
C746 C750 1.524 . S
C747 C739 1.503 1_545 S
C747 C746 1.370 . S
C747 C748 1.403 . S
C748 C747 1.403 . S
C748 C749 1.404 . S
C748 C751 1.539 1_545 S
C749 C745 1.408 . S
C749 C748 1.404 . S
C749 H761 0.930 . S
C750 C746 1.524 . S
C750 H762 0.956 . S
C750 H763 0.961 1_545 S
C750 H764 0.961 . S
C751 C748 1.539 1_565 S
C751 H765 0.958 1_565 S
C751 H766 0.961 . S
C751 H767 0.960 . S
H752 C736 0.931 . S
H753 C741 0.929 . S
H754 C742 0.960 . S
H755 C742 0.962 . S
H756 C742 0.960 . S
H757 C743 0.961 . S
H758 C743 0.961 . S
H759 C743 0.961 . S
H760 C744 0.931 . S
H761 C749 0.930 . S
H762 C750 0.956 . S
H763 C750 0.961 1_565 S
H764 C750 0.961 . S
H765 C751 0.958 1_545 S
H766 C751 0.961 . S
H767 C751 0.960 . S
C768 C769 1.391 . S
C768 C770 1.394 . S
C768 H784 0.931 . S
C769 C768 1.391 . S
C769 C773 1.376 . S
C770 C768 1.394 . S
C770 C771 1.369 . S
C770 C774 1.531 1_556 S
C771 C770 1.369 . S
C771 C772 1.410 . S
C771 C779 1.503 1_556 S
C772 C771 1.410 . S
C772 C773 1.392 . S
C772 C775 1.511 . S
C773 C769 1.376 . S
C773 C772 1.392 . S
C773 H785 0.929 . S
C774 C770 1.531 1_554 S
C774 H786 0.960 . S
C774 H787 0.962 . S
C774 H788 0.960 . S
C775 C772 1.511 . S
C775 H789 0.961 . S
C775 H790 0.961 . S
C775 H791 0.961 . S
C776 C777 1.370 . S
C776 C778 1.363 . S
C776 H792 0.931 . S
C777 C776 1.370 . S
C777 C781 1.408 . S
C778 C776 1.363 . S
C778 C779 1.370 . S
C778 C782 1.524 . S
C779 C771 1.503 1_554 S
C779 C778 1.370 . S
C779 C780 1.403 . S
C780 C779 1.403 . S
C780 C781 1.404 . S
C780 C783 1.539 1_554 S
C781 C777 1.408 . S
C781 C780 1.404 . S
C781 H793 0.930 . S
C782 C778 1.524 . S
C782 H794 0.956 . S
C782 H795 0.961 . S
C782 H796 0.961 . S
C783 C780 1.539 1_556 S
C783 H797 0.958 . S
C783 H798 0.961 . S
C783 H799 0.960 . S
H784 C768 0.931 . S
H785 C773 0.929 . S
H786 C774 0.960 . S
H787 C774 0.962 . S
H788 C774 0.960 . S
H789 C775 0.961 . S
H790 C775 0.961 . S
H791 C775 0.961 . S
H792 C776 0.931 . S
H793 C781 0.930 . S
H794 C782 0.956 . S
H795 C782 0.961 . S
H796 C782 0.961 . S
H797 C783 0.958 . S
H798 C783 0.961 . S
H799 C783 0.960 . S
C800 C801 1.391 . S
C800 C802 1.394 . S
C800 H816 0.931 . S
C801 C800 1.391 . S
C801 C805 1.376 . S
C802 C800 1.394 . S
C802 C803 1.369 . S
C802 C806 1.531 . S
C803 C802 1.369 . S
C803 C804 1.410 . S
C803 C811 1.503 . S
C804 C803 1.410 . S
C804 C805 1.392 . S
C804 C807 1.511 . S
C805 C801 1.376 . S
C805 C804 1.392 . S
C805 H817 0.929 . S
C806 C802 1.531 . S
C806 H818 0.960 . S
C806 H819 0.962 . S
C806 H820 0.960 . S
C807 C804 1.511 . S
C807 H821 0.961 . S
C807 H822 0.961 . S
C807 H823 0.961 . S
C808 C809 1.370 . S
C808 C810 1.363 . S
C808 H824 0.931 . S
C809 C808 1.370 . S
C809 C813 1.408 . S
C810 C808 1.363 . S
C810 C811 1.370 . S
C810 C814 1.524 . S
C811 C803 1.503 . S
C811 C810 1.370 . S
C811 C812 1.403 . S
C812 C811 1.403 . S
C812 C813 1.404 . S
C812 C815 1.539 . S
C813 C809 1.408 . S
C813 C812 1.404 . S
C813 H825 0.930 . S
C814 C810 1.524 . S
C814 H826 0.956 . S
C814 H827 0.961 . S
C814 H828 0.961 . S
C815 C812 1.539 . S
C815 H829 0.958 . S
C815 H830 0.961 . S
C815 H831 0.960 . S
H816 C800 0.931 . S
H817 C805 0.929 . S
H818 C806 0.960 . S
H819 C806 0.962 . S
H820 C806 0.960 . S
H821 C807 0.961 . S
H822 C807 0.961 . S
H823 C807 0.961 . S
H824 C808 0.931 . S
H825 C813 0.930 . S
H826 C814 0.956 . S
H827 C814 0.961 . S
H828 C814 0.961 . S
H829 C815 0.958 . S
H830 C815 0.961 . S
H831 C815 0.960 . S
C832 C833 1.391 . S
C832 C834 1.394 . S
C832 H848 0.931 . S
C833 C832 1.391 . S
C833 C837 1.376 . S
C834 C832 1.394 . S
C834 C835 1.369 . S
C834 C838 1.531 . S
C835 C834 1.369 . S
C835 C836 1.410 . S
C835 C843 1.503 . S
C836 C835 1.410 . S
C836 C837 1.392 . S
C836 C839 1.511 . S
C837 C833 1.376 . S
C837 C836 1.392 . S
C837 H849 0.929 . S
C838 C834 1.531 . S
C838 H850 0.960 . S
C838 H851 0.962 . S
C838 H852 0.960 . S
C839 C836 1.511 . S
C839 H853 0.961 . S
C839 H854 0.961 . S
C839 H855 0.961 . S
C840 C841 1.370 . S
C840 C842 1.363 . S
C840 H856 0.931 . S
C841 C840 1.370 . S
C841 C845 1.408 . S
C842 C840 1.363 . S
C842 C843 1.370 . S
C842 C846 1.524 . S
C843 C835 1.503 . S
C843 C842 1.370 . S
C843 C844 1.403 . S
C844 C843 1.403 . S
C844 C845 1.404 . S
C844 C847 1.539 . S
C845 C841 1.408 . S
C845 C844 1.404 . S
C845 H857 0.930 . S
C846 C842 1.524 . S
C846 H858 0.956 . S
C846 H859 0.961 . S
C846 H860 0.961 . S
C847 C844 1.539 . S
C847 H861 0.958 . S
C847 H862 0.961 . S
C847 H863 0.960 . S
H848 C832 0.931 . S
H849 C837 0.929 . S
H850 C838 0.960 . S
H851 C838 0.962 . S
H852 C838 0.960 . S
H853 C839 0.961 . S
H854 C839 0.961 . S
H855 C839 0.961 . S
H856 C840 0.931 . S
H857 C845 0.930 . S
H858 C846 0.956 . S
H859 C846 0.961 . S
H860 C846 0.961 . S
H861 C847 0.958 . S
H862 C847 0.961 . S
H863 C847 0.960 . S
C864 C865 1.391 . S
C864 C866 1.394 . S
C864 H880 0.931 . S
C865 C864 1.391 . S
C865 C869 1.376 . S
C866 C864 1.394 . S
C866 C867 1.369 . S
C866 C870 1.531 . S
C867 C866 1.369 . S
C867 C868 1.410 . S
C867 C875 1.503 . S
C868 C867 1.410 . S
C868 C869 1.392 . S
C868 C871 1.511 . S
C869 C865 1.376 . S
C869 C868 1.392 . S
C869 H881 0.929 . S
C870 C866 1.531 . S
C870 H882 0.960 . S
C870 H883 0.962 . S
C870 H884 0.960 . S
C871 C868 1.511 . S
C871 H885 0.961 . S
C871 H886 0.961 . S
C871 H887 0.961 . S
C872 C873 1.370 . S
C872 C874 1.363 . S
C872 H888 0.931 . S
C873 C872 1.370 . S
C873 C877 1.408 . S
C874 C872 1.363 . S
C874 C875 1.370 . S
C874 C878 1.524 . S
C875 C867 1.503 . S
C875 C874 1.370 . S
C875 C876 1.403 . S
C876 C875 1.403 . S
C876 C877 1.404 . S
C876 C879 1.539 . S
C877 C873 1.408 . S
C877 C876 1.404 . S
C877 H889 0.930 . S
C878 C874 1.524 . S
C878 H890 0.956 . S
C878 H891 0.961 . S
C878 H892 0.961 . S
C879 C876 1.539 . S
C879 H893 0.958 . S
C879 H894 0.961 . S
C879 H895 0.960 . S
H880 C864 0.931 . S
H881 C869 0.929 . S
H882 C870 0.960 . S
H883 C870 0.962 . S
H884 C870 0.960 . S
H885 C871 0.961 . S
H886 C871 0.961 . S
H887 C871 0.961 . S
H888 C872 0.931 . S
H889 C877 0.930 . S
H890 C878 0.956 . S
H891 C878 0.961 . S
H892 C878 0.961 . S
H893 C879 0.958 . S
H894 C879 0.961 . S
H895 C879 0.960 . S
C896 C897 1.391 . S
C896 C898 1.394 . S
C896 H912 0.931 . S
C897 C896 1.391 . S
C897 C901 1.376 . S
C898 C896 1.394 . S
C898 C899 1.369 . S
C898 C902 1.531 1_554 S
C899 C898 1.369 . S
C899 C900 1.410 . S
C899 C907 1.503 1_554 S
C900 C899 1.410 . S
C900 C901 1.392 . S
C900 C903 1.511 . S
C901 C897 1.376 . S
C901 C900 1.392 . S
C901 H913 0.929 . S
C902 C898 1.531 1_556 S
C902 H914 0.960 . S
C902 H915 0.962 . S
C902 H916 0.960 . S
C903 C900 1.511 . S
C903 H917 0.961 . S
C903 H918 0.961 . S
C903 H919 0.961 . S
C904 C905 1.370 . S
C904 C906 1.363 . S
C904 H920 0.931 . S
C905 C904 1.370 . S
C905 C909 1.408 . S
C906 C904 1.363 . S
C906 C907 1.370 . S
C906 C910 1.524 . S
C907 C899 1.503 1_556 S
C907 C906 1.370 . S
C907 C908 1.403 . S
C908 C907 1.403 . S
C908 C909 1.404 . S
C908 C911 1.539 1_556 S
C909 C905 1.408 . S
C909 C908 1.404 . S
C909 H921 0.930 . S
C910 C906 1.524 . S
C910 H922 0.956 . S
C910 H923 0.961 . S
C910 H924 0.961 . S
C911 C908 1.539 1_554 S
C911 H925 0.950 1_554 S
C911 H926 0.961 . S
C911 H927 0.960 . S
H912 C896 0.931 . S
H913 C901 0.929 . S
H914 C902 0.960 . S
H915 C902 0.962 . S
H916 C902 0.960 . S
H917 C903 0.961 . S
H918 C903 0.961 . S
H919 C903 0.961 . S
H920 C904 0.931 . S
H921 C909 0.930 . S
H922 C910 0.956 . S
H923 C910 0.961 . S
H924 C910 0.961 . S
H925 C911 0.950 1_556 S
H926 C911 0.961 . S
H927 C911 0.960 . S
C928 C929 1.391 . S
C928 C930 1.394 . S
C928 H944 0.931 . S
C929 C928 1.391 . S
C929 C933 1.376 . S
C930 C928 1.394 . S
C930 C931 1.369 . S
C930 C934 1.531 . S
C931 C930 1.369 . S
C931 C932 1.410 . S
C931 C939 1.503 . S
C932 C931 1.410 . S
C932 C933 1.392 . S
C932 C935 1.511 . S
C933 C929 1.376 . S
C933 C932 1.392 . S
C933 H945 0.929 . S
C934 C930 1.531 . S
C934 H946 0.960 . S
C934 H947 0.962 . S
C934 H948 0.960 . S
C935 C932 1.511 . S
C935 H949 0.961 . S
C935 H950 0.961 . S
C935 H951 0.961 . S
C936 C937 1.370 . S
C936 C938 1.363 . S
C936 H952 0.931 . S
C937 C936 1.370 . S
C937 C941 1.408 . S
C938 C936 1.363 . S
C938 C939 1.370 . S
C938 C942 1.524 . S
C939 C931 1.503 . S
C939 C938 1.370 . S
C939 C940 1.403 . S
C940 C939 1.403 . S
C940 C941 1.404 . S
C940 C943 1.539 . S
C941 C937 1.408 . S
C941 C940 1.404 . S
C941 H953 0.930 . S
C942 C938 1.524 . S
C942 H954 0.956 . S
C942 H955 0.961 . S
C942 H956 0.961 . S
C943 C940 1.539 . S
C943 H957 0.958 . S
C943 H958 0.961 . S
C943 H959 0.960 . S
H944 C928 0.931 . S
H945 C933 0.929 . S
H946 C934 0.960 . S
H947 C934 0.962 . S
H948 C934 0.960 . S
H949 C935 0.961 . S
H950 C935 0.961 . S
H951 C935 0.961 . S
H952 C936 0.931 . S
H953 C941 0.930 . S
H954 C942 0.956 . S
H955 C942 0.961 . S
H956 C942 0.961 . S
H957 C943 0.958 . S
H958 C943 0.961 . S
H959 C943 0.960 . S
C960 C961 1.391 . S
C960 C962 1.394 . S
C960 H976 0.931 . S
C961 C960 1.391 . S
C961 C965 1.376 . S
C962 C960 1.394 . S
C962 C963 1.369 . S
C962 C966 1.531 . S
C963 C962 1.369 . S
C963 C964 1.410 . S
C963 C971 1.503 . S
C964 C963 1.410 . S
C964 C965 1.392 . S
C964 C967 1.511 . S
C965 C961 1.376 . S
C965 C964 1.392 . S
C965 H977 0.929 . S
C966 C962 1.531 . S
C966 H978 0.960 . S
C966 H979 0.962 . S
C966 H980 0.960 . S
C967 C964 1.511 . S
C967 H981 0.961 . S
C967 H982 0.961 . S
C967 H983 0.961 . S
C968 C969 1.370 . S
C968 C970 1.363 . S
C968 H984 0.931 . S
C969 C968 1.370 . S
C969 C973 1.408 . S
C970 C968 1.363 . S
C970 C971 1.370 . S
C970 C974 1.524 . S
C971 C963 1.503 . S
C971 C970 1.370 . S
C971 C972 1.403 . S
C972 C971 1.403 . S
C972 C973 1.404 . S
C972 C975 1.539 . S
C973 C969 1.408 . S
C973 C972 1.404 . S
C973 H985 0.930 . S
C974 C970 1.524 . S
C974 H986 0.956 . S
C974 H987 0.961 . S
C974 H988 0.961 . S
C975 C972 1.539 . S
C975 H989 0.958 . S
C975 H990 0.961 . S
C975 H991 0.960 . S
H976 C960 0.931 . S
H977 C965 0.929 . S
H978 C966 0.960 . S
H979 C966 0.962 . S
H980 C966 0.960 . S
H981 C967 0.961 . S
H982 C967 0.961 . S
H983 C967 0.961 . S
H984 C968 0.931 . S
H985 C973 0.930 . S
H986 C974 0.956 . S
H987 C974 0.961 . S
H988 C974 0.961 . S
H989 C975 0.958 . S
H990 C975 0.961 . S
H991 C975 0.960 . S
C992 C993 1.391 . S
C992 C994 1.394 . S
C992 H1008 0.931 . S
C993 C992 1.391 . S
C993 C997 1.376 . S
C994 C992 1.394 . S
C994 C995 1.369 . S
C994 C998 1.531 . S
C995 C994 1.369 . S
C995 C996 1.410 . S
C995 C1003 1.503 . S
C996 C995 1.410 . S
C996 C997 1.392 . S
C996 C999 1.511 . S
C997 C993 1.376 . S
C997 C996 1.392 . S
C997 H1009 0.929 . S
C998 C994 1.531 . S
C998 H1010 0.960 . S
C998 H1011 0.962 . S
C998 H1012 0.960 . S
C999 C996 1.511 . S
C999 H1013 0.961 . S
C999 H1014 0.961 . S
C999 H1015 0.961 . S
C1000 C1001 1.370 . S
C1000 C1002 1.363 . S
C1000 H1016 0.931 . S
C1001 C1000 1.370 . S
C1001 C1005 1.408 . S
C1002 C1000 1.363 . S
C1002 C1003 1.370 . S
C1002 C1006 1.524 . S
C1003 C995 1.503 . S
C1003 C1002 1.370 . S
C1003 C1004 1.403 . S
C1004 C1003 1.403 . S
C1004 C1005 1.404 . S
C1004 C1007 1.539 . S
C1005 C1001 1.408 . S
C1005 C1004 1.404 . S
C1005 H1017 0.930 . S
C1006 C1002 1.524 . S
C1006 H1018 0.956 . S
C1006 H1019 0.961 . S
C1006 H1020 0.961 . S
C1007 C1004 1.539 . S
C1007 H1021 0.958 . S
C1007 H1022 0.961 . S
C1007 H1023 0.960 . S
H1008 C992 0.931 . S
H1009 C997 0.929 . S
H1010 C998 0.960 . S
H1011 C998 0.962 . S
H1012 C998 0.960 . S
H1013 C999 0.961 . S
H1014 C999 0.961 . S
H1015 C999 0.961 . S
H1016 C1000 0.931 . S
H1017 C1005 0.930 . S
H1018 C1006 0.956 . S
H1019 C1006 0.961 . S
H1020 C1006 0.961 . S
H1021 C1007 0.958 . S
H1022 C1007 0.961 . S
H1023 C1007 0.960 . S
C1024 C1025 1.391 . S
C1024 C1026 1.394 . S
C1024 H1040 0.931 . S
C1025 C1024 1.391 . S
C1025 C1029 1.376 . S
C1026 C1024 1.394 . S
C1026 C1027 1.369 . S
C1026 C1030 1.531 . S
C1027 C1026 1.369 . S
C1027 C1028 1.410 . S
C1027 C1035 1.503 . S
C1028 C1027 1.410 . S
C1028 C1029 1.392 . S
C1028 C1031 1.511 . S
C1029 C1025 1.376 . S
C1029 C1028 1.392 . S
C1029 H1041 0.929 . S
C1030 C1026 1.531 . S
C1030 H1042 0.960 . S
C1030 H1043 0.962 . S
C1030 H1044 0.960 . S
C1031 C1028 1.511 . S
C1031 H1045 0.961 . S
C1031 H1046 0.961 . S
C1031 H1047 0.961 . S
C1032 C1033 1.370 . S
C1032 C1034 1.363 . S
C1032 H1048 0.931 . S
C1033 C1032 1.370 . S
C1033 C1037 1.408 . S
C1034 C1032 1.363 . S
C1034 C1035 1.370 . S
C1034 C1038 1.524 . S
C1035 C1027 1.503 . S
C1035 C1034 1.370 . S
C1035 C1036 1.403 . S
C1036 C1035 1.403 . S
C1036 C1037 1.404 . S
C1036 C1039 1.539 . S
C1037 C1033 1.408 . S
C1037 C1036 1.404 . S
C1037 H1049 0.930 . S
C1038 C1034 1.524 . S
C1038 H1050 0.956 . S
C1038 H1051 0.961 . S
C1038 H1052 0.961 . S
C1039 C1036 1.539 . S
C1039 H1053 0.958 . S
C1039 H1054 0.961 . S
C1039 H1055 0.960 . S
H1040 C1024 0.931 . S
H1041 C1029 0.929 . S
H1042 C1030 0.960 . S
H1043 C1030 0.962 . S
H1044 C1030 0.960 . S
H1045 C1031 0.961 . S
H1046 C1031 0.961 . S
H1047 C1031 0.961 . S
H1048 C1032 0.931 . S
H1049 C1037 0.930 . S
H1050 C1038 0.956 . S
H1051 C1038 0.961 . S
H1052 C1038 0.961 . S
H1053 C1039 0.958 . S
H1054 C1039 0.961 . S
H1055 C1039 0.960 . S
C1056 C1057 1.391 . S
C1056 C1058 1.394 1_545 S
C1056 H1072 0.931 . S
C1057 C1056 1.391 . S
C1057 C1061 1.376 1_545 S
C1058 C1056 1.394 1_565 S
C1058 C1059 1.369 . S
C1058 C1062 1.531 . S
C1059 C1058 1.369 . S
C1059 C1060 1.410 . S
C1059 C1067 1.503 . S
C1060 C1059 1.410 . S
C1060 C1061 1.392 . S
C1060 C1063 1.511 . S
C1061 C1057 1.376 1_565 S
C1061 C1060 1.392 . S
C1061 H1073 0.929 . S
C1062 C1058 1.531 . S
C1062 H1074 0.960 . S
C1062 H1075 0.962 . S
C1062 H1076 0.960 1_565 S
C1063 C1060 1.511 . S
C1063 H1077 0.961 . S
C1063 H1078 0.961 . S
C1063 H1079 0.961 . S
C1064 C1065 1.370 . S
C1064 C1066 1.363 . S
C1064 H1080 0.931 . S
C1065 C1064 1.370 . S
C1065 C1069 1.408 . S
C1066 C1064 1.363 . S
C1066 C1067 1.370 . S
C1066 C1070 1.524 . S
C1067 C1059 1.503 . S
C1067 C1066 1.370 . S
C1067 C1068 1.403 . S
C1068 C1067 1.403 . S
C1068 C1069 1.404 . S
C1068 C1071 1.539 . S
C1069 C1065 1.408 . S
C1069 C1068 1.404 . S
C1069 H1081 0.930 . S
C1070 C1066 1.524 . S
C1070 H1082 0.956 . S
C1070 H1083 0.961 . S
C1070 H1084 0.961 . S
C1071 C1068 1.539 . S
C1071 H1085 0.958 1_565 S
C1071 H1086 0.962 . S
C1071 H1087 0.960 1_565 S
H1072 C1056 0.931 . S
H1073 C1061 0.929 . S
H1074 C1062 0.960 . S
H1075 C1062 0.962 . S
H1076 C1062 0.960 1_545 S
H1077 C1063 0.961 . S
H1078 C1063 0.961 . S
H1079 C1063 0.961 . S
H1080 C1064 0.931 . S
H1081 C1069 0.930 . S
H1082 C1070 0.956 . S
H1083 C1070 0.961 . S
H1084 C1070 0.961 . S
H1085 C1071 0.958 1_545 S
H1086 C1071 0.962 . S
H1087 C1071 0.960 1_545 S
C1088 C1089 1.391 . S
C1088 C1090 1.394 . S
C1088 H1104 0.931 . S
C1089 C1088 1.391 . S
C1089 C1093 1.376 . S
C1090 C1088 1.394 . S
C1090 C1091 1.369 . S
C1090 C1094 1.531 . S
C1091 C1090 1.369 . S
C1091 C1092 1.410 . S
C1091 C1099 1.503 1_554 S
C1092 C1091 1.410 . S
C1092 C1093 1.392 . S
C1092 C1095 1.511 1_554 S
C1093 C1089 1.376 . S
C1093 C1092 1.392 . S
C1093 H1105 0.929 . S
C1094 C1090 1.531 . S
C1094 H1106 0.960 . S
C1094 H1107 0.962 . S
C1094 H1108 0.960 . S
C1095 C1092 1.511 1_556 S
C1095 H1109 0.961 1_556 S
C1095 H1110 0.961 . S
C1095 H1111 0.961 . S
C1096 C1097 1.370 . S
C1096 C1098 1.363 . S
C1096 H1112 0.931 . S
C1097 C1096 1.370 . S
C1097 C1101 1.408 . S
C1098 C1096 1.363 . S
C1098 C1099 1.370 . S
C1098 C1102 1.524 1_556 S
C1099 C1091 1.503 1_556 S
C1099 C1098 1.370 . S
C1099 C1100 1.403 . S
C1100 C1099 1.403 . S
C1100 C1101 1.404 . S
C1100 C1103 1.539 . S
C1101 C1097 1.408 . S
C1101 C1100 1.404 . S
C1101 H1113 0.930 . S
C1102 C1098 1.524 1_554 S
C1102 H1114 0.956 . S
C1102 H1115 0.961 . S
C1102 H1116 0.961 . S
C1103 C1100 1.539 . S
C1103 H1117 0.958 . S
C1103 H1118 0.961 . S
C1103 H1119 0.960 . S
H1104 C1088 0.931 . S
H1105 C1093 0.929 . S
H1106 C1094 0.960 . S
H1107 C1094 0.962 . S
H1108 C1094 0.960 . S
H1109 C1095 0.961 1_554 S
H1110 C1095 0.961 . S
H1111 C1095 0.961 . S
H1112 C1096 0.931 . S
H1113 C1101 0.930 . S
H1114 C1102 0.956 . S
H1115 C1102 0.961 . S
H1116 C1102 0.961 . S
H1117 C1103 0.958 . S
H1118 C1103 0.961 . S
H1119 C1103 0.960 . S
C1120 C1121 1.391 . S
C1120 C1122 1.394 . S
C1120 H1136 0.931 . S
C1121 C1120 1.391 . S
C1121 C1125 1.376 . S
C1122 C1120 1.394 . S
C1122 C1123 1.369 . S
C1122 C1126 1.531 . S
C1123 C1122 1.369 . S
C1123 C1124 1.410 . S
C1123 C1131 1.503 . S
C1124 C1123 1.410 . S
C1124 C1125 1.392 . S
C1124 C1127 1.511 . S
C1125 C1121 1.376 . S
C1125 C1124 1.392 . S
C1125 H1137 0.929 . S
C1126 C1122 1.531 . S
C1126 H1138 0.960 1_545 S
C1126 H1139 0.962 1_545 S
C1126 H1140 0.960 1_545 S
C1127 C1124 1.511 . S
C1127 H1141 0.961 . S
C1127 H1142 0.961 . S
C1127 H1143 0.961 . S
C1128 C1129 1.369 . S
C1128 C1130 1.363 . S
C1128 H1144 0.931 . S
C1129 C1128 1.369 . S
C1129 C1133 1.408 1_545 S
C1130 C1128 1.363 . S
C1130 C1131 1.370 . S
C1130 C1134 1.524 . S
C1131 C1123 1.503 . S
C1131 C1130 1.370 . S
C1131 C1132 1.403 . S
C1132 C1131 1.403 . S
C1132 C1133 1.401 1_545 S
C1132 C1135 1.539 . S
C1133 C1129 1.408 1_565 S
C1133 C1132 1.401 1_565 S
C1133 H1145 0.933 . S
C1134 C1130 1.524 . S
C1134 H1146 0.956 . S
C1134 H1147 0.961 . S
C1134 H1148 0.961 . S
C1135 C1132 1.539 . S
C1135 H1149 0.959 . S
C1135 H1150 0.961 . S
C1135 H1151 0.960 . S
H1136 C1120 0.931 . S
H1137 C1125 0.929 . S
H1138 C1126 0.960 1_565 S
H1139 C1126 0.962 1_565 S
H1140 C1126 0.960 1_565 S
H1141 C1127 0.961 . S
H1142 C1127 0.961 . S
H1143 C1127 0.961 . S
H1144 C1128 0.931 . S
H1145 C1133 0.933 . S
H1146 C1134 0.956 . S
H1147 C1134 0.961 . S
H1148 C1134 0.961 . S
H1149 C1135 0.959 . S
H1150 C1135 0.961 . S
H1151 C1135 0.960 . S
C1152 C1153 1.391 . S
C1152 C1154 1.394 . S
C1152 H1168 0.931 . S
C1153 C1152 1.391 . S
C1153 C1157 1.376 . S
C1154 C1152 1.394 . S
C1154 C1155 1.369 . S
C1154 C1158 1.531 . S
C1155 C1154 1.369 . S
C1155 C1156 1.410 . S
C1155 C1163 1.503 . S
C1156 C1155 1.410 . S
C1156 C1157 1.392 . S
C1156 C1159 1.511 . S
C1157 C1153 1.376 . S
C1157 C1156 1.392 . S
C1157 H1169 0.929 . S
C1158 C1154 1.531 . S
C1158 H1170 0.960 . S
C1158 H1171 0.962 . S
C1158 H1172 0.960 . S
C1159 C1156 1.511 . S
C1159 H1173 0.961 . S
C1159 H1174 0.961 . S
C1159 H1175 0.961 . S
C1160 C1161 1.370 . S
C1160 C1162 1.363 . S
C1160 H1176 0.931 . S
C1161 C1160 1.370 . S
C1161 C1165 1.408 . S
C1162 C1160 1.363 . S
C1162 C1163 1.370 . S
C1162 C1166 1.524 . S
C1163 C1155 1.503 . S
C1163 C1162 1.370 . S
C1163 C1164 1.403 . S
C1164 C1163 1.403 . S
C1164 C1165 1.404 . S
C1164 C1167 1.539 . S
C1165 C1161 1.408 . S
C1165 C1164 1.404 . S
C1165 H1177 0.930 . S
C1166 C1162 1.524 . S
C1166 H1178 0.956 . S
C1166 H1179 0.961 . S
C1166 H1180 0.961 . S
C1167 C1164 1.539 . S
C1167 H1181 0.958 . S
C1167 H1182 0.961 . S
C1167 H1183 0.960 . S
H1168 C1152 0.931 . S
H1169 C1157 0.929 . S
H1170 C1158 0.960 . S
H1171 C1158 0.962 . S
H1172 C1158 0.960 . S
H1173 C1159 0.961 . S
H1174 C1159 0.961 . S
H1175 C1159 0.961 . S
H1176 C1160 0.931 . S
H1177 C1165 0.930 . S
H1178 C1166 0.956 . S
H1179 C1166 0.961 . S
H1180 C1166 0.961 . S
H1181 C1167 0.958 . S
H1182 C1167 0.961 . S
H1183 C1167 0.960 . S
C1184 C1185 1.391 . S
C1184 C1186 1.394 1_565 S
C1184 H1200 0.931 . S
C1185 C1184 1.391 . S
C1185 C1189 1.376 1_565 S
C1186 C1184 1.394 1_545 S
C1186 C1187 1.369 . S
C1186 C1190 1.531 1_545 S
C1187 C1186 1.369 . S
C1187 C1188 1.410 . S
C1187 C1195 1.503 . S
C1188 C1187 1.410 . S
C1188 C1189 1.392 . S
C1188 C1191 1.511 . S
C1189 C1185 1.376 1_545 S
C1189 C1188 1.392 . S
C1189 H1201 0.929 . S
C1190 C1186 1.531 1_565 S
C1190 H1202 0.960 . S
C1190 H1203 0.962 1_565 S
C1190 H1204 0.960 . S
C1191 C1188 1.511 . S
C1191 H1205 0.961 . S
C1191 H1206 0.961 . S
C1191 H1207 0.961 . S
C1192 C1193 1.370 . S
C1192 C1194 1.363 . S
C1192 H1208 0.931 . S
C1193 C1192 1.370 . S
C1193 C1197 1.408 . S
C1194 C1192 1.363 . S
C1194 C1195 1.370 . S
C1194 C1198 1.524 . S
C1195 C1187 1.503 . S
C1195 C1194 1.370 . S
C1195 C1196 1.403 . S
C1196 C1195 1.403 . S
C1196 C1197 1.404 . S
C1196 C1199 1.539 . S
C1197 C1193 1.408 . S
C1197 C1196 1.404 . S
C1197 H1209 0.930 . S
C1198 C1194 1.524 . S
C1198 H1210 0.956 . S
C1198 H1211 0.961 . S
C1198 H1212 0.961 . S
C1199 C1196 1.539 . S
C1199 H1213 0.958 1_545 S
C1199 H1214 0.961 . S
C1199 H1215 0.960 . S
H1200 C1184 0.931 . S
H1201 C1189 0.929 . S
H1202 C1190 0.960 . S
H1203 C1190 0.962 1_545 S
H1204 C1190 0.960 . S
H1205 C1191 0.961 . S
H1206 C1191 0.961 . S
H1207 C1191 0.961 . S
H1208 C1192 0.931 . S
H1209 C1197 0.930 . S
H1210 C1198 0.956 . S
H1211 C1198 0.961 . S
H1212 C1198 0.961 . S
H1213 C1199 0.958 1_565 S
H1214 C1199 0.961 . S
H1215 C1199 0.960 . S
C1216 C1217 1.391 . S
C1216 C1218 1.394 . S
C1216 H1232 0.931 . S
C1217 C1216 1.391 . S
C1217 C1221 1.376 . S
C1218 C1216 1.394 . S
C1218 C1219 1.369 . S
C1218 C1222 1.531 . S
C1219 C1218 1.369 . S
C1219 C1220 1.410 . S
C1219 C1227 1.503 1_554 S
C1220 C1219 1.410 . S
C1220 C1221 1.392 . S
C1220 C1223 1.511 . S
C1221 C1217 1.376 . S
C1221 C1220 1.392 . S
C1221 H1233 0.929 . S
C1222 C1218 1.531 . S
C1222 H1234 0.960 . S
C1222 H1235 0.962 1_554 S
C1222 H1236 0.960 . S
C1223 C1220 1.511 . S
C1223 H1237 0.961 . S
C1223 H1238 0.961 . S
C1223 H1239 0.961 . S
C1224 C1225 1.370 . S
C1224 C1226 1.363 . S
C1224 H1240 0.931 . S
C1225 C1224 1.370 . S
C1225 C1229 1.408 . S
C1226 C1224 1.363 . S
C1226 C1227 1.370 . S
C1226 C1230 1.524 . S
C1227 C1219 1.503 1_556 S
C1227 C1226 1.370 . S
C1227 C1228 1.403 . S
C1228 C1227 1.403 . S
C1228 C1229 1.404 . S
C1228 C1231 1.539 1_556 S
C1229 C1225 1.408 . S
C1229 C1228 1.404 . S
C1229 H1241 0.930 . S
C1230 C1226 1.524 . S
C1230 H1242 0.956 . S
C1230 H1243 0.961 . S
C1230 H1244 0.961 . S
C1231 C1228 1.539 1_554 S
C1231 H1245 0.958 . S
C1231 H1246 0.961 . S
C1231 H1247 0.960 . S
H1232 C1216 0.931 . S
H1233 C1221 0.929 . S
H1234 C1222 0.960 . S
H1235 C1222 0.962 1_556 S
H1236 C1222 0.960 . S
H1237 C1223 0.961 . S
H1238 C1223 0.961 . S
H1239 C1223 0.961 . S
H1240 C1224 0.931 . S
H1241 C1229 0.930 . S
H1242 C1230 0.956 . S
H1243 C1230 0.961 . S
H1244 C1230 0.961 . S
H1245 C1231 0.958 . S
H1246 C1231 0.961 . S
H1247 C1231 0.960 . S
C1248 C1249 1.391 . S
C1248 C1250 1.394 . S
C1248 H1264 0.931 . S
C1249 C1248 1.391 . S
C1249 C1253 1.376 1_565 S
C1250 C1248 1.394 . S
C1250 C1251 1.369 . S
C1250 C1254 1.531 . S
C1251 C1250 1.369 . S
C1251 C1252 1.410 . S
C1251 C1259 1.503 . S
C1252 C1251 1.410 . S
C1252 C1253 1.392 1_565 S
C1252 C1255 1.511 1_565 S
C1253 C1249 1.376 1_545 S
C1253 C1252 1.392 1_545 S
C1253 H1265 0.929 . S
C1254 C1250 1.531 . S
C1254 H1266 0.960 . S
C1254 H1267 0.962 . S
C1254 H1268 0.960 . S
C1255 C1252 1.511 1_545 S
C1255 H1269 0.961 . S
C1255 H1270 0.960 1_545 S
C1255 H1271 0.961 . S
C1256 C1257 1.370 . S
C1256 C1258 1.363 . S
C1256 H1272 0.931 . S
C1257 C1256 1.370 . S
C1257 C1261 1.408 . S
C1258 C1256 1.363 . S
C1258 C1259 1.370 . S
C1258 C1262 1.524 . S
C1259 C1251 1.503 . S
C1259 C1258 1.370 . S
C1259 C1260 1.403 . S
C1260 C1259 1.403 . S
C1260 C1261 1.404 . S
C1260 C1263 1.539 . S
C1261 C1257 1.408 . S
C1261 C1260 1.404 . S
C1261 H1273 0.930 . S
C1262 C1258 1.524 . S
C1262 H1274 0.956 . S
C1262 H1275 0.961 . S
C1262 H1276 0.961 . S
C1263 C1260 1.539 . S
C1263 H1277 0.958 . S
C1263 H1278 0.961 . S
C1263 H1279 0.960 . S
H1264 C1248 0.931 . S
H1265 C1253 0.929 . S
H1266 C1254 0.960 . S
H1267 C1254 0.962 . S
H1268 C1254 0.960 . S
H1269 C1255 0.961 . S
H1270 C1255 0.960 1_565 S
H1271 C1255 0.961 . S
H1272 C1256 0.931 . S
H1273 C1261 0.930 . S
H1274 C1262 0.956 . S
H1275 C1262 0.961 . S
H1276 C1262 0.961 . S
H1277 C1263 0.958 . S
H1278 C1263 0.961 . S
H1279 C1263 0.960 . S
C1280 C1281 1.391 . S
C1280 C1282 1.394 . S
C1280 H1296 0.931 . S
C1281 C1280 1.391 . S
C1281 C1285 1.376 . S
C1282 C1280 1.394 . S
C1282 C1283 1.369 . S
C1282 C1286 1.531 . S
C1283 C1282 1.369 . S
C1283 C1284 1.410 . S
C1283 C1291 1.503 . S
C1284 C1283 1.410 . S
C1284 C1285 1.392 . S
C1284 C1287 1.511 . S
C1285 C1281 1.376 . S
C1285 C1284 1.392 . S
C1285 H1297 0.929 . S
C1286 C1282 1.531 . S
C1286 H1298 0.960 . S
C1286 H1299 0.962 . S
C1286 H1300 0.960 . S
C1287 C1284 1.511 . S
C1287 H1301 0.961 . S
C1287 H1302 0.961 . S
C1287 H1303 0.961 . S
C1288 C1289 1.370 . S
C1288 C1290 1.363 . S
C1288 H1304 0.931 . S
C1289 C1288 1.370 . S
C1289 C1293 1.408 . S
C1290 C1288 1.363 . S
C1290 C1291 1.370 . S
C1290 C1294 1.524 . S
C1291 C1283 1.503 . S
C1291 C1290 1.370 . S
C1291 C1292 1.403 . S
C1292 C1291 1.403 . S
C1292 C1293 1.404 . S
C1292 C1295 1.539 . S
C1293 C1289 1.408 . S
C1293 C1292 1.404 . S
C1293 H1305 0.930 . S
C1294 C1290 1.524 . S
C1294 H1306 0.956 . S
C1294 H1307 0.961 . S
C1294 H1308 0.961 . S
C1295 C1292 1.539 . S
C1295 H1309 0.958 . S
C1295 H1310 0.961 . S
C1295 H1311 0.960 . S
H1296 C1280 0.931 . S
H1297 C1285 0.929 . S
H1298 C1286 0.960 . S
H1299 C1286 0.962 . S
H1300 C1286 0.960 . S
H1301 C1287 0.961 . S
H1302 C1287 0.961 . S
H1303 C1287 0.961 . S
H1304 C1288 0.931 . S
H1305 C1293 0.930 . S
H1306 C1294 0.956 . S
H1307 C1294 0.961 . S
H1308 C1294 0.961 . S
H1309 C1295 0.958 . S
H1310 C1295 0.961 . S
H1311 C1295 0.960 . S
C1312 C1313 1.391 . S
C1312 C1314 1.394 . S
C1312 H1328 0.931 . S
C1313 C1312 1.391 . S
C1313 C1317 1.376 . S
C1314 C1312 1.394 . S
C1314 C1315 1.369 . S
C1314 C1318 1.531 . S
C1315 C1314 1.369 . S
C1315 C1316 1.410 . S
C1315 C1323 1.503 . S
C1316 C1315 1.410 . S
C1316 C1317 1.392 . S
C1316 C1319 1.511 . S
C1317 C1313 1.376 . S
C1317 C1316 1.392 . S
C1317 H1329 0.929 . S
C1318 C1314 1.531 . S
C1318 H1330 0.960 . S
C1318 H1331 0.962 . S
C1318 H1332 0.960 . S
C1319 C1316 1.511 . S
C1319 H1333 0.961 . S
C1319 H1334 0.961 . S
C1319 H1335 0.961 . S
C1320 C1321 1.370 . S
C1320 C1322 1.363 . S
C1320 H1336 0.931 . S
C1321 C1320 1.370 . S
C1321 C1325 1.408 . S
C1322 C1320 1.363 . S
C1322 C1323 1.370 . S
C1322 C1326 1.524 . S
C1323 C1315 1.503 . S
C1323 C1322 1.370 . S
C1323 C1324 1.403 . S
C1324 C1323 1.403 . S
C1324 C1325 1.404 . S
C1324 C1327 1.539 . S
C1325 C1321 1.408 . S
C1325 C1324 1.404 . S
C1325 H1337 0.930 . S
C1326 C1322 1.524 . S
C1326 H1338 0.956 . S
C1326 H1339 0.961 . S
C1326 H1340 0.961 . S
C1327 C1324 1.539 . S
C1327 H1341 0.958 . S
C1327 H1342 0.961 . S
C1327 H1343 0.960 . S
H1328 C1312 0.931 . S
H1329 C1317 0.929 . S
H1330 C1318 0.960 . S
H1331 C1318 0.962 . S
H1332 C1318 0.960 . S
H1333 C1319 0.961 . S
H1334 C1319 0.961 . S
H1335 C1319 0.961 . S
H1336 C1320 0.931 . S
H1337 C1325 0.930 . S
H1338 C1326 0.956 . S
H1339 C1326 0.961 . S
H1340 C1326 0.961 . S
H1341 C1327 0.958 . S
H1342 C1327 0.961 . S
H1343 C1327 0.960 . S
C1344 C1345 1.391 . S
C1344 C1346 1.394 . S
C1344 H1360 0.931 . S
C1345 C1344 1.391 . S
C1345 C1349 1.376 . S
C1346 C1344 1.394 . S
C1346 C1347 1.369 . S
C1346 C1350 1.531 . S
C1347 C1346 1.369 . S
C1347 C1348 1.410 . S
C1347 C1355 1.503 1_655 S
C1348 C1347 1.410 . S
C1348 C1349 1.392 . S
C1348 C1351 1.511 1_655 S
C1349 C1345 1.376 . S
C1349 C1348 1.392 . S
C1349 H1361 0.929 . S
C1350 C1346 1.531 . S
C1350 H1362 0.960 . S
C1350 H1363 0.962 . S
C1350 H1364 0.960 . S
C1351 C1348 1.511 1_455 S
C1351 H1365 0.961 . S
C1351 H1366 0.961 . S
C1351 H1367 0.961 1_455 S
C1352 C1353 1.370 . S
C1352 C1354 1.363 . S
C1352 H1368 0.931 . S
C1353 C1352 1.370 . S
C1353 C1357 1.408 . S
C1354 C1352 1.363 . S
C1354 C1355 1.370 . S
C1354 C1358 1.524 . S
C1355 C1347 1.503 1_455 S
C1355 C1354 1.370 . S
C1355 C1356 1.403 . S
C1356 C1355 1.403 . S
C1356 C1357 1.404 . S
C1356 C1359 1.539 1_455 S
C1357 C1353 1.408 . S
C1357 C1356 1.404 . S
C1357 H1369 0.930 . S
C1358 C1354 1.524 . S
C1358 H1370 0.956 . S
C1358 H1371 0.961 . S
C1358 H1372 0.961 . S
C1359 C1356 1.539 1_655 S
C1359 H1373 0.958 . S
C1359 H1374 0.961 1_655 S
C1359 H1375 0.960 . S
H1360 C1344 0.931 . S
H1361 C1349 0.929 . S
H1362 C1350 0.960 . S
H1363 C1350 0.962 . S
H1364 C1350 0.960 . S
H1365 C1351 0.961 . S
H1366 C1351 0.961 . S
H1367 C1351 0.961 1_655 S
H1368 C1352 0.931 . S
H1369 C1357 0.930 . S
H1370 C1358 0.956 . S
H1371 C1358 0.961 . S
H1372 C1358 0.961 . S
H1373 C1359 0.958 . S
H1374 C1359 0.961 1_455 S
H1375 C1359 0.960 . S
C1376 C1377 1.391 . S
C1376 C1378 1.394 . S
C1376 H1392 0.931 . S
C1377 C1376 1.391 . S
C1377 C1381 1.376 . S
C1378 C1376 1.394 . S
C1378 C1379 1.369 . S
C1378 C1382 1.531 . S
C1379 C1378 1.369 . S
C1379 C1380 1.410 1_655 S
C1379 C1387 1.503 1_655 S
C1380 C1379 1.410 1_455 S
C1380 C1381 1.392 1_455 S
C1380 C1383 1.511 . S
C1381 C1377 1.376 . S
C1381 C1380 1.392 1_655 S
C1381 H1393 0.929 . S
C1382 C1378 1.531 . S
C1382 H1394 0.960 . S
C1382 H1395 0.962 . S
C1382 H1396 0.960 . S
C1383 C1380 1.511 . S
C1383 H1397 0.961 . S
C1383 H1398 0.961 . S
C1383 H1399 0.961 . S
C1384 C1385 1.370 . S
C1384 C1386 1.363 . S
C1384 H1400 0.931 . S
C1385 C1384 1.370 . S
C1385 C1389 1.408 . S
C1386 C1384 1.363 . S
C1386 C1387 1.370 . S
C1386 C1390 1.524 . S
C1387 C1379 1.503 1_455 S
C1387 C1386 1.370 . S
C1387 C1388 1.403 . S
C1388 C1387 1.403 . S
C1388 C1389 1.404 . S
C1388 C1391 1.539 1_455 S
C1389 C1385 1.408 . S
C1389 C1388 1.404 . S
C1389 H1401 0.930 . S
C1390 C1386 1.524 . S
C1390 H1402 0.956 . S
C1390 H1403 0.961 . S
C1390 H1404 0.961 . S
C1391 C1388 1.539 1_655 S
C1391 H1405 0.958 . S
C1391 H1406 0.961 . S
C1391 H1407 0.960 . S
H1392 C1376 0.931 . S
H1393 C1381 0.929 . S
H1394 C1382 0.960 . S
H1395 C1382 0.962 . S
H1396 C1382 0.960 . S
H1397 C1383 0.961 . S
H1398 C1383 0.961 . S
H1399 C1383 0.961 . S
H1400 C1384 0.931 . S
H1401 C1389 0.930 . S
H1402 C1390 0.956 . S
H1403 C1390 0.961 . S
H1404 C1390 0.961 . S
H1405 C1391 0.958 . S
H1406 C1391 0.961 . S
H1407 C1391 0.960 . S
C1408 C1409 1.391 . S
C1408 C1410 1.394 . S
C1408 H1424 0.931 . S
C1409 C1408 1.391 . S
C1409 C1413 1.376 . S
C1410 C1408 1.394 . S
C1410 C1411 1.369 . S
C1410 C1414 1.531 . S
C1411 C1410 1.369 . S
C1411 C1412 1.410 . S
C1411 C1419 1.503 . S
C1412 C1411 1.410 . S
C1412 C1413 1.392 . S
C1412 C1415 1.511 . S
C1413 C1409 1.376 . S
C1413 C1412 1.392 . S
C1413 H1425 0.929 . S
C1414 C1410 1.531 . S
C1414 H1426 0.960 . S
C1414 H1427 0.962 . S
C1414 H1428 0.960 . S
C1415 C1412 1.511 . S
C1415 H1429 0.961 . S
C1415 H1430 0.961 . S
C1415 H1431 0.961 . S
C1416 C1417 1.370 . S
C1416 C1418 1.363 . S
C1416 H1432 0.931 . S
C1417 C1416 1.370 . S
C1417 C1421 1.408 . S
C1418 C1416 1.363 . S
C1418 C1419 1.370 . S
C1418 C1422 1.524 . S
C1419 C1411 1.503 . S
C1419 C1418 1.370 . S
C1419 C1420 1.403 . S
C1420 C1419 1.403 . S
C1420 C1421 1.404 . S
C1420 C1423 1.539 . S
C1421 C1417 1.408 . S
C1421 C1420 1.404 . S
C1421 H1433 0.930 . S
C1422 C1418 1.524 . S
C1422 H1434 0.956 . S
C1422 H1435 0.961 . S
C1422 H1436 0.961 . S
C1423 C1420 1.539 . S
C1423 H1437 0.958 . S
C1423 H1438 0.961 . S
C1423 H1439 0.960 . S
H1424 C1408 0.931 . S
H1425 C1413 0.929 . S
H1426 C1414 0.960 . S
H1427 C1414 0.962 . S
H1428 C1414 0.960 . S
H1429 C1415 0.961 . S
H1430 C1415 0.961 . S
H1431 C1415 0.961 . S
H1432 C1416 0.931 . S
H1433 C1421 0.930 . S
H1434 C1422 0.956 . S
H1435 C1422 0.961 . S
H1436 C1422 0.961 . S
H1437 C1423 0.958 . S
H1438 C1423 0.961 . S
H1439 C1423 0.960 . S
C1440 C1441 1.391 . S
C1440 C1442 1.394 . S
C1440 H1456 0.931 . S
C1441 C1440 1.391 . S
C1441 C1445 1.376 . S
C1442 C1440 1.394 . S
C1442 C1443 1.369 . S
C1442 C1446 1.531 . S
C1443 C1442 1.369 . S
C1443 C1444 1.410 . S
C1443 C1451 1.503 . S
C1444 C1443 1.410 . S
C1444 C1445 1.392 . S
C1444 C1447 1.511 . S
C1445 C1441 1.376 . S
C1445 C1444 1.392 . S
C1445 H1457 0.929 . S
C1446 C1442 1.531 . S
C1446 H1458 0.960 . S
C1446 H1459 0.962 . S
C1446 H1460 0.960 . S
C1447 C1444 1.511 . S
C1447 H1461 0.961 . S
C1447 H1462 0.961 . S
C1447 H1463 0.961 . S
C1448 C1449 1.370 . S
C1448 C1450 1.363 . S
C1448 H1464 0.931 . S
C1449 C1448 1.370 . S
C1449 C1453 1.408 . S
C1450 C1448 1.363 . S
C1450 C1451 1.370 . S
C1450 C1454 1.524 . S
C1451 C1443 1.503 . S
C1451 C1450 1.370 . S
C1451 C1452 1.403 . S
C1452 C1451 1.403 . S
C1452 C1453 1.404 . S
C1452 C1455 1.539 . S
C1453 C1449 1.408 . S
C1453 C1452 1.404 . S
C1453 H1465 0.930 . S
C1454 C1450 1.524 . S
C1454 H1466 0.956 . S
C1454 H1467 0.961 . S
C1454 H1468 0.961 . S
C1455 C1452 1.539 . S
C1455 H1469 0.958 . S
C1455 H1470 0.961 . S
C1455 H1471 0.960 . S
H1456 C1440 0.931 . S
H1457 C1445 0.929 . S
H1458 C1446 0.960 . S
H1459 C1446 0.962 . S
H1460 C1446 0.960 . S
H1461 C1447 0.961 . S
H1462 C1447 0.961 . S
H1463 C1447 0.961 . S
H1464 C1448 0.931 . S
H1465 C1453 0.930 . S
H1466 C1454 0.956 . S
H1467 C1454 0.961 . S
H1468 C1454 0.961 . S
H1469 C1455 0.958 . S
H1470 C1455 0.961 . S
H1471 C1455 0.960 . S
C1472 C1473 1.391 . S
C1472 C1474 1.394 . S
C1472 H1488 0.931 . S
C1473 C1472 1.391 . S
C1473 C1477 1.376 . S
C1474 C1472 1.394 . S
C1474 C1475 1.369 . S
C1474 C1478 1.531 . S
C1475 C1474 1.369 . S
C1475 C1476 1.410 . S
C1475 C1483 1.503 1_455 S
C1476 C1475 1.410 . S
C1476 C1477 1.392 . S
C1476 C1479 1.511 1_455 S
C1477 C1473 1.376 . S
C1477 C1476 1.392 . S
C1477 H1489 0.929 . S
C1478 C1474 1.531 . S
C1478 H1490 0.960 . S
C1478 H1491 0.962 . S
C1478 H1492 0.960 . S
C1479 C1476 1.511 1_655 S
C1479 H1493 0.961 . S
C1479 H1494 0.961 . S
C1479 H1495 0.961 . S
C1480 C1481 1.370 . S
C1480 C1482 1.363 . S
C1480 H1496 0.931 . S
C1481 C1480 1.370 . S
C1481 C1485 1.408 . S
C1482 C1480 1.363 . S
C1482 C1483 1.370 . S
C1482 C1486 1.524 . S
C1483 C1475 1.503 1_655 S
C1483 C1482 1.370 . S
C1483 C1484 1.403 . S
C1484 C1483 1.403 . S
C1484 C1485 1.404 . S
C1484 C1487 1.539 . S
C1485 C1481 1.408 . S
C1485 C1484 1.404 . S
C1485 H1497 0.930 . S
C1486 C1482 1.524 . S
C1486 H1498 0.956 1_655 S
C1486 H1499 0.961 . S
C1486 H1500 0.961 . S
C1487 C1484 1.539 . S
C1487 H1501 0.958 . S
C1487 H1502 0.961 . S
C1487 H1503 0.960 . S
H1488 C1472 0.931 . S
H1489 C1477 0.929 . S
H1490 C1478 0.960 . S
H1491 C1478 0.962 . S
H1492 C1478 0.960 . S
H1493 C1479 0.961 . S
H1494 C1479 0.961 . S
H1495 C1479 0.961 . S
H1496 C1480 0.931 . S
H1497 C1485 0.930 . S
H1498 C1486 0.956 1_455 S
H1499 C1486 0.961 . S
H1500 C1486 0.961 . S
H1501 C1487 0.958 . S
H1502 C1487 0.961 . S
H1503 C1487 0.960 . S
C1504 C1505 1.391 . S
C1504 C1506 1.394 1_455 S
C1504 H1520 0.920 1_455 S
C1505 C1504 1.391 . S
C1505 C1509 1.376 . S
C1506 C1504 1.394 1_655 S
C1506 C1507 1.369 1_655 S
C1506 C1510 1.531 . S
C1507 C1506 1.369 1_455 S
C1507 C1508 1.410 . S
C1507 C1515 1.503 1_455 S
C1508 C1507 1.410 . S
C1508 C1509 1.392 . S
C1508 C1511 1.511 . S
C1509 C1505 1.376 . S
C1509 C1508 1.392 . S
C1509 H1521 0.929 . S
C1510 C1506 1.531 . S
C1510 H1522 0.960 . S
C1510 H1523 0.962 . S
C1510 H1524 0.960 . S
C1511 C1508 1.511 . S
C1511 H1525 0.961 . S
C1511 H1526 0.961 . S
C1511 H1527 0.961 . S
C1512 C1513 1.370 . S
C1512 C1514 1.363 . S
C1512 H1528 0.931 . S
C1513 C1512 1.370 . S
C1513 C1517 1.408 . S
C1514 C1512 1.363 . S
C1514 C1515 1.370 . S
C1514 C1518 1.524 . S
C1515 C1507 1.503 1_655 S
C1515 C1514 1.370 . S
C1515 C1516 1.403 . S
C1516 C1515 1.403 . S
C1516 C1517 1.404 . S
C1516 C1519 1.533 1_655 S
C1517 C1513 1.408 . S
C1517 C1516 1.404 . S
C1517 H1529 0.930 . S
C1518 C1514 1.524 . S
C1518 H1530 0.956 . S
C1518 H1531 0.961 1_655 S
C1518 H1532 0.961 . S
C1519 C1516 1.533 1_455 S
C1519 H1533 0.948 1_455 S
C1519 H1534 0.965 . S
C1519 H1535 0.972 . S
H1520 C1504 0.920 1_655 S
H1521 C1509 0.929 . S
H1522 C1510 0.960 . S
H1523 C1510 0.962 . S
H1524 C1510 0.960 . S
H1525 C1511 0.961 . S
H1526 C1511 0.961 . S
H1527 C1511 0.961 . S
H1528 C1512 0.931 . S
H1529 C1517 0.930 . S
H1530 C1518 0.956 . S
H1531 C1518 0.961 1_455 S
H1532 C1518 0.961 . S
H1533 C1519 0.948 1_655 S
H1534 C1519 0.965 . S
H1535 C1519 0.972 . S
C1536 C1537 1.391 . S
C1536 C1538 1.394 . S
C1536 H1552 0.931 . S
C1537 C1536 1.391 . S
C1537 C1541 1.376 . S
C1538 C1536 1.394 . S
C1538 C1539 1.369 . S
C1538 C1542 1.531 . S
C1539 C1538 1.369 . S
C1539 C1540 1.410 . S
C1539 C1547 1.503 . S
C1540 C1539 1.410 . S
C1540 C1541 1.392 . S
C1540 C1543 1.511 . S
C1541 C1537 1.376 . S
C1541 C1540 1.392 . S
C1541 H1553 0.929 . S
C1542 C1538 1.531 . S
C1542 H1554 0.960 . S
C1542 H1555 0.962 . S
C1542 H1556 0.960 . S
C1543 C1540 1.511 . S
C1543 H1557 0.961 . S
C1543 H1558 0.961 . S
C1543 H1559 0.961 . S
C1544 C1545 1.370 . S
C1544 C1546 1.363 . S
C1544 H1560 0.931 . S
C1545 C1544 1.370 . S
C1545 C1549 1.408 . S
C1546 C1544 1.363 . S
C1546 C1547 1.370 . S
C1546 C1550 1.524 . S
C1547 C1539 1.503 . S
C1547 C1546 1.370 . S
C1547 C1548 1.403 . S
C1548 C1547 1.403 . S
C1548 C1549 1.404 . S
C1548 C1551 1.539 . S
C1549 C1545 1.408 . S
C1549 C1548 1.404 . S
C1549 H1561 0.930 . S
C1550 C1546 1.524 . S
C1550 H1562 0.956 . S
C1550 H1563 0.961 . S
C1550 H1564 0.961 . S
C1551 C1548 1.539 . S
C1551 H1565 0.958 . S
C1551 H1566 0.961 . S
C1551 H1567 0.960 . S
H1552 C1536 0.931 . S
H1553 C1541 0.929 . S
H1554 C1542 0.960 . S
H1555 C1542 0.962 . S
H1556 C1542 0.960 . S
H1557 C1543 0.961 . S
H1558 C1543 0.961 . S
H1559 C1543 0.961 . S
H1560 C1544 0.931 . S
H1561 C1549 0.930 . S
H1562 C1550 0.956 . S
H1563 C1550 0.961 . S
H1564 C1550 0.961 . S
H1565 C1551 0.958 . S
H1566 C1551 0.961 . S
H1567 C1551 0.960 . S
C1568 C1569 1.391 . S
C1568 C1570 1.394 . S
C1568 H1584 0.931 . S
C1569 C1568 1.391 . S
C1569 C1573 1.376 . S
C1570 C1568 1.394 . S
C1570 C1571 1.369 . S
C1570 C1574 1.531 . S
C1571 C1570 1.369 . S
C1571 C1572 1.410 . S
C1571 C1579 1.503 . S
C1572 C1571 1.410 . S
C1572 C1573 1.392 . S
C1572 C1575 1.511 . S
C1573 C1569 1.376 . S
C1573 C1572 1.392 . S
C1573 H1585 0.929 . S
C1574 C1570 1.531 . S
C1574 H1586 0.960 . S
C1574 H1587 0.962 . S
C1574 H1588 0.960 . S
C1575 C1572 1.511 . S
C1575 H1589 0.961 . S
C1575 H1590 0.961 . S
C1575 H1591 0.961 . S
C1576 C1577 1.370 . S
C1576 C1578 1.363 . S
C1576 H1592 0.931 . S
C1577 C1576 1.370 . S
C1577 C1581 1.408 . S
C1578 C1576 1.363 . S
C1578 C1579 1.370 . S
C1578 C1582 1.524 . S
C1579 C1571 1.503 . S
C1579 C1578 1.370 . S
C1579 C1580 1.403 . S
C1580 C1579 1.403 . S
C1580 C1581 1.404 . S
C1580 C1583 1.539 . S
C1581 C1577 1.408 . S
C1581 C1580 1.404 . S
C1581 H1593 0.930 . S
C1582 C1578 1.524 . S
C1582 H1594 0.956 . S
C1582 H1595 0.961 . S
C1582 H1596 0.961 . S
C1583 C1580 1.539 . S
C1583 H1597 0.958 . S
C1583 H1598 0.961 . S
C1583 H1599 0.960 . S
H1584 C1568 0.931 . S
H1585 C1573 0.929 . S
H1586 C1574 0.960 . S
H1587 C1574 0.962 . S
H1588 C1574 0.960 . S
H1589 C1575 0.961 . S
H1590 C1575 0.961 . S
H1591 C1575 0.961 . S
H1592 C1576 0.931 . S
H1593 C1581 0.930 . S
H1594 C1582 0.956 . S
H1595 C1582 0.961 . S
H1596 C1582 0.961 . S
H1597 C1583 0.958 . S
H1598 C1583 0.961 . S
H1599 C1583 0.960 . S
C1600 C1601 1.391 . S
C1600 C1602 1.394 . S
C1600 H1616 0.931 . S
C1601 C1600 1.391 . S
C1601 C1605 1.376 . S
C1602 C1600 1.394 . S
C1602 C1603 1.369 . S
C1602 C1606 1.531 . S
C1603 C1602 1.369 . S
C1603 C1604 1.410 . S
C1603 C1611 1.503 . S
C1604 C1603 1.410 . S
C1604 C1605 1.392 . S
C1604 C1607 1.511 . S
C1605 C1601 1.376 . S
C1605 C1604 1.392 . S
C1605 H1617 0.929 . S
C1606 C1602 1.531 . S
C1606 H1618 0.960 . S
C1606 H1619 0.962 . S
C1606 H1620 0.960 . S
C1607 C1604 1.511 . S
C1607 H1621 0.961 . S
C1607 H1622 0.961 . S
C1607 H1623 0.961 . S
C1608 C1609 1.370 . S
C1608 C1610 1.363 . S
C1608 H1624 0.931 . S
C1609 C1608 1.370 . S
C1609 C1613 1.408 . S
C1610 C1608 1.363 . S
C1610 C1611 1.370 . S
C1610 C1614 1.524 . S
C1611 C1603 1.503 . S
C1611 C1610 1.370 . S
C1611 C1612 1.403 . S
C1612 C1611 1.403 . S
C1612 C1613 1.404 . S
C1612 C1615 1.539 . S
C1613 C1609 1.408 . S
C1613 C1612 1.404 . S
C1613 H1625 0.930 . S
C1614 C1610 1.524 . S
C1614 H1626 0.956 . S
C1614 H1627 0.961 . S
C1614 H1628 0.961 . S
C1615 C1612 1.539 . S
C1615 H1629 0.958 . S
C1615 H1630 0.961 . S
C1615 H1631 0.960 . S
H1616 C1600 0.931 . S
H1617 C1605 0.929 . S
H1618 C1606 0.960 . S
H1619 C1606 0.962 . S
H1620 C1606 0.960 . S
H1621 C1607 0.961 . S
H1622 C1607 0.961 . S
H1623 C1607 0.961 . S
H1624 C1608 0.931 . S
H1625 C1613 0.930 . S
H1626 C1614 0.956 . S
H1627 C1614 0.961 . S
H1628 C1614 0.961 . S
H1629 C1615 0.958 . S
H1630 C1615 0.961 . S
H1631 C1615 0.960 . S
C1632 C1633 1.391 . S
C1632 C1634 1.394 1_655 S
C1632 H1648 0.931 . S
C1633 C1632 1.391 . S
C1633 C1637 1.376 . S
C1634 C1632 1.394 1_455 S
C1634 C1635 1.369 . S
C1634 C1638 1.531 . S
C1635 C1634 1.369 . S
C1635 C1636 1.410 . S
C1635 C1643 1.503 . S
C1636 C1635 1.410 . S
C1636 C1637 1.392 1_455 S
C1636 C1639 1.511 . S
C1637 C1633 1.376 . S
C1637 C1636 1.392 1_655 S
C1637 H1649 0.929 . S
C1638 C1634 1.531 . S
C1638 H1650 0.960 . S
C1638 H1651 0.962 . S
C1638 H1652 0.960 1_455 S
C1639 C1636 1.511 . S
C1639 H1653 0.961 . S
C1639 H1654 0.961 . S
C1639 H1655 0.961 . S
C1640 C1641 1.370 . S
C1640 C1642 1.363 . S
C1640 H1656 0.931 . S
C1641 C1640 1.370 . S
C1641 C1645 1.408 . S
C1642 C1640 1.363 . S
C1642 C1643 1.370 . S
C1642 C1646 1.524 . S
C1643 C1635 1.503 . S
C1643 C1642 1.370 . S
C1643 C1644 1.403 . S
C1644 C1643 1.403 . S
C1644 C1645 1.404 . S
C1644 C1647 1.539 . S
C1645 C1641 1.408 . S
C1645 C1644 1.404 . S
C1645 H1657 0.930 . S
C1646 C1642 1.524 . S
C1646 H1658 0.956 . S
C1646 H1659 0.961 . S
C1646 H1660 0.961 . S
C1647 C1644 1.539 . S
C1647 H1661 0.958 . S
C1647 H1662 0.961 . S
C1647 H1663 0.960 . S
H1648 C1632 0.931 . S
H1649 C1637 0.929 . S
H1650 C1638 0.960 . S
H1651 C1638 0.962 . S
H1652 C1638 0.960 1_655 S
H1653 C1639 0.961 . S
H1654 C1639 0.961 . S
H1655 C1639 0.961 . S
H1656 C1640 0.931 . S
H1657 C1645 0.930 . S
H1658 C1646 0.956 . S
H1659 C1646 0.961 . S
H1660 C1646 0.961 . S
H1661 C1647 0.958 . S
H1662 C1647 0.961 . S
H1663 C1647 0.960 . S
C1664 C1665 1.391 . S
C1664 C1666 1.394 . S
C1664 H1680 0.931 . S
C1665 C1664 1.391 . S
C1665 C1669 1.376 . S
C1666 C1664 1.394 . S
C1666 C1667 1.369 . S
C1666 C1670 1.531 . S
C1667 C1666 1.369 . S
C1667 C1668 1.410 . S
C1667 C1675 1.503 . S
C1668 C1667 1.410 . S
C1668 C1669 1.392 . S
C1668 C1671 1.511 . S
C1669 C1665 1.376 . S
C1669 C1668 1.392 . S
C1669 H1681 0.929 . S
C1670 C1666 1.531 . S
C1670 H1682 0.960 . S
C1670 H1683 0.962 . S
C1670 H1684 0.960 . S
C1671 C1668 1.511 . S
C1671 H1685 0.961 . S
C1671 H1686 0.961 . S
C1671 H1687 0.961 . S
C1672 C1673 1.370 . S
C1672 C1674 1.363 . S
C1672 H1688 0.931 . S
C1673 C1672 1.370 . S
C1673 C1677 1.408 . S
C1674 C1672 1.363 . S
C1674 C1675 1.370 . S
C1674 C1678 1.524 . S
C1675 C1667 1.503 . S
C1675 C1674 1.370 . S
C1675 C1676 1.403 . S
C1676 C1675 1.403 . S
C1676 C1677 1.404 . S
C1676 C1679 1.539 . S
C1677 C1673 1.408 . S
C1677 C1676 1.404 . S
C1677 H1689 0.930 . S
C1678 C1674 1.524 . S
C1678 H1690 0.956 . S
C1678 H1691 0.961 . S
C1678 H1692 0.961 . S
C1679 C1676 1.539 . S
C1679 H1693 0.958 . S
C1679 H1694 0.961 . S
C1679 H1695 0.960 . S
H1680 C1664 0.931 . S
H1681 C1669 0.929 . S
H1682 C1670 0.960 . S
H1683 C1670 0.962 . S
H1684 C1670 0.960 . S
H1685 C1671 0.961 . S
H1686 C1671 0.961 . S
H1687 C1671 0.961 . S
H1688 C1672 0.931 . S
H1689 C1677 0.930 . S
H1690 C1678 0.956 . S
H1691 C1678 0.961 . S
H1692 C1678 0.961 . S
H1693 C1679 0.958 . S
H1694 C1679 0.961 . S
H1695 C1679 0.960 . S
C1696 C1697 1.391 . S
C1696 C1698 1.394 . S
C1696 H1712 0.931 . S
C1697 C1696 1.391 . S
C1697 C1701 1.376 . S
C1698 C1696 1.394 . S
C1698 C1699 1.369 . S
C1698 C1702 1.531 . S
C1699 C1698 1.369 . S
C1699 C1700 1.410 . S
C1699 C1707 1.503 . S
C1700 C1699 1.410 . S
C1700 C1701 1.392 . S
C1700 C1703 1.511 . S
C1701 C1697 1.376 . S
C1701 C1700 1.392 . S
C1701 H1713 0.929 . S
C1702 C1698 1.531 . S
C1702 H1714 0.960 . S
C1702 H1715 0.962 . S
C1702 H1716 0.960 . S
C1703 C1700 1.511 . S
C1703 H1717 0.961 . S
C1703 H1718 0.961 . S
C1703 H1719 0.961 . S
C1704 C1705 1.370 . S
C1704 C1706 1.363 . S
C1704 H1720 0.931 . S
C1705 C1704 1.370 . S
C1705 C1709 1.408 . S
C1706 C1704 1.363 . S
C1706 C1707 1.370 . S
C1706 C1710 1.524 . S
C1707 C1699 1.503 . S
C1707 C1706 1.370 . S
C1707 C1708 1.403 . S
C1708 C1707 1.403 . S
C1708 C1709 1.404 . S
C1708 C1711 1.539 . S
C1709 C1705 1.408 . S
C1709 C1708 1.404 . S
C1709 H1721 0.930 . S
C1710 C1706 1.524 . S
C1710 H1722 0.956 . S
C1710 H1723 0.961 . S
C1710 H1724 0.961 . S
C1711 C1708 1.539 . S
C1711 H1725 0.958 . S
C1711 H1726 0.961 . S
C1711 H1727 0.960 . S
H1712 C1696 0.931 . S
H1713 C1701 0.929 . S
H1714 C1702 0.960 . S
H1715 C1702 0.962 . S
H1716 C1702 0.960 . S
H1717 C1703 0.961 . S
H1718 C1703 0.961 . S
H1719 C1703 0.961 . S
H1720 C1704 0.931 . S
H1721 C1709 0.930 . S
H1722 C1710 0.956 . S
H1723 C1710 0.961 . S
H1724 C1710 0.961 . S
H1725 C1711 0.958 . S
H1726 C1711 0.961 . S
H1727 C1711 0.960 . S
C1728 C1729 1.391 . S
C1728 C1730 1.394 . S
C1728 H1744 0.931 . S
C1729 C1728 1.391 . S
C1729 C1733 1.376 . S
C1730 C1728 1.394 . S
C1730 C1731 1.369 . S
C1730 C1734 1.531 . S
C1731 C1730 1.369 . S
C1731 C1732 1.410 . S
C1731 C1739 1.503 . S
C1732 C1731 1.410 . S
C1732 C1733 1.392 . S
C1732 C1735 1.511 . S
C1733 C1729 1.376 . S
C1733 C1732 1.392 . S
C1733 H1745 0.929 . S
C1734 C1730 1.531 . S
C1734 H1746 0.960 . S
C1734 H1747 0.962 . S
C1734 H1748 0.960 . S
C1735 C1732 1.511 . S
C1735 H1749 0.961 . S
C1735 H1750 0.961 . S
C1735 H1751 0.961 . S
C1736 C1737 1.370 . S
C1736 C1738 1.363 . S
C1736 H1752 0.931 . S
C1737 C1736 1.370 . S
C1737 C1741 1.408 . S
C1738 C1736 1.363 . S
C1738 C1739 1.370 . S
C1738 C1742 1.524 . S
C1739 C1731 1.503 . S
C1739 C1738 1.370 . S
C1739 C1740 1.403 . S
C1740 C1739 1.403 . S
C1740 C1741 1.404 . S
C1740 C1743 1.539 . S
C1741 C1737 1.408 . S
C1741 C1740 1.404 . S
C1741 H1753 0.930 . S
C1742 C1738 1.524 . S
C1742 H1754 0.956 . S
C1742 H1755 0.961 . S
C1742 H1756 0.961 . S
C1743 C1740 1.539 . S
C1743 H1757 0.958 . S
C1743 H1758 0.961 . S
C1743 H1759 0.960 . S
H1744 C1728 0.931 . S
H1745 C1733 0.929 . S
H1746 C1734 0.960 . S
H1747 C1734 0.962 . S
H1748 C1734 0.960 . S
H1749 C1735 0.961 . S
H1750 C1735 0.961 . S
H1751 C1735 0.961 . S
H1752 C1736 0.931 . S
H1753 C1741 0.930 . S
H1754 C1742 0.956 . S
H1755 C1742 0.961 . S
H1756 C1742 0.961 . S
H1757 C1743 0.958 . S
H1758 C1743 0.961 . S
H1759 C1743 0.960 . S
C1760 C1761 1.391 . S
C1760 C1762 1.394 . S
C1760 H1776 0.931 . S
C1761 C1760 1.391 . S
C1761 C1765 1.376 . S
C1762 C1760 1.394 . S
C1762 C1763 1.369 . S
C1762 C1766 1.531 . S
C1763 C1762 1.369 . S
C1763 C1764 1.410 . S
C1763 C1771 1.503 . S
C1764 C1763 1.410 . S
C1764 C1765 1.392 . S
C1764 C1767 1.511 . S
C1765 C1761 1.376 . S
C1765 C1764 1.392 . S
C1765 H1777 0.929 . S
C1766 C1762 1.531 . S
C1766 H1778 0.960 . S
C1766 H1779 0.962 . S
C1766 H1780 0.960 . S
C1767 C1764 1.511 . S
C1767 H1781 0.961 . S
C1767 H1782 0.961 . S
C1767 H1783 0.961 . S
C1768 C1769 1.370 . S
C1768 C1770 1.363 1_455 S
C1768 H1784 0.931 . S
C1769 C1768 1.370 . S
C1769 C1773 1.408 . S
C1770 C1768 1.363 1_655 S
C1770 C1771 1.370 . S
C1770 C1774 1.524 . S
C1771 C1763 1.503 . S
C1771 C1770 1.370 . S
C1771 C1772 1.403 . S
C1772 C1771 1.403 . S
C1772 C1773 1.404 1_655 S
C1772 C1775 1.539 . S
C1773 C1769 1.408 . S
C1773 C1772 1.404 1_455 S
C1773 H1785 0.930 . S
C1774 C1770 1.524 . S
C1774 H1786 0.956 . S
C1774 H1787 0.961 . S
C1774 H1788 0.961 . S
C1775 C1772 1.539 . S
C1775 H1789 0.958 . S
C1775 H1790 0.961 . S
C1775 H1791 0.960 . S
H1776 C1760 0.931 . S
H1777 C1765 0.929 . S
H1778 C1766 0.960 . S
H1779 C1766 0.962 . S
H1780 C1766 0.960 . S
H1781 C1767 0.961 . S
H1782 C1767 0.961 . S
H1783 C1767 0.961 . S
H1784 C1768 0.931 . S
H1785 C1773 0.930 . S
H1786 C1774 0.956 . S
H1787 C1774 0.961 . S
H1788 C1774 0.961 . S
H1789 C1775 0.958 . S
H1790 C1775 0.961 . S
H1791 C1775 0.960 . S
C1792 C1793 1.391 . S
C1792 C1794 1.394 . S
C1792 H1808 0.931 . S
C1793 C1792 1.391 . S
C1793 C1797 1.376 . S
C1794 C1792 1.394 . S
C1794 C1795 1.369 . S
C1794 C1798 1.531 . S
C1795 C1794 1.369 . S
C1795 C1796 1.410 . S
C1795 C1803 1.503 . S
C1796 C1795 1.410 . S
C1796 C1797 1.392 . S
C1796 C1799 1.511 . S
C1797 C1793 1.376 . S
C1797 C1796 1.392 . S
C1797 H1809 0.929 . S
C1798 C1794 1.531 . S
C1798 H1810 0.960 . S
C1798 H1811 0.962 . S
C1798 H1812 0.960 . S
C1799 C1796 1.511 . S
C1799 H1813 0.961 . S
C1799 H1814 0.961 . S
C1799 H1815 0.961 . S
C1800 C1801 1.370 . S
C1800 C1802 1.363 . S
C1800 H1816 0.931 . S
C1801 C1800 1.370 . S
C1801 C1805 1.408 . S
C1802 C1800 1.363 . S
C1802 C1803 1.370 . S
C1802 C1806 1.524 . S
C1803 C1795 1.503 . S
C1803 C1802 1.370 . S
C1803 C1804 1.403 . S
C1804 C1803 1.403 . S
C1804 C1805 1.404 . S
C1804 C1807 1.539 . S
C1805 C1801 1.408 . S
C1805 C1804 1.404 . S
C1805 H1817 0.930 . S
C1806 C1802 1.524 . S
C1806 H1818 0.956 . S
C1806 H1819 0.961 . S
C1806 H1820 0.961 . S
C1807 C1804 1.539 . S
C1807 H1821 0.958 . S
C1807 H1822 0.961 . S
C1807 H1823 0.960 . S
H1808 C1792 0.931 . S
H1809 C1797 0.929 . S
H1810 C1798 0.960 . S
H1811 C1798 0.962 . S
H1812 C1798 0.960 . S
H1813 C1799 0.961 . S
H1814 C1799 0.961 . S
H1815 C1799 0.961 . S
H1816 C1800 0.931 . S
H1817 C1805 0.930 . S
H1818 C1806 0.956 . S
H1819 C1806 0.961 . S
H1820 C1806 0.961 . S
H1821 C1807 0.958 . S
H1822 C1807 0.961 . S
H1823 C1807 0.960 . S
C1824 C1825 1.391 . S
C1824 C1826 1.394 . S
C1824 H1840 0.931 . S
C1825 C1824 1.391 . S
C1825 C1829 1.376 . S
C1826 C1824 1.394 . S
C1826 C1827 1.369 . S
C1826 C1830 1.531 . S
C1827 C1826 1.369 . S
C1827 C1828 1.410 . S
C1827 C1835 1.503 . S
C1828 C1827 1.410 . S
C1828 C1829 1.392 . S
C1828 C1831 1.511 . S
C1829 C1825 1.376 . S
C1829 C1828 1.392 . S
C1829 H1841 0.929 . S
C1830 C1826 1.531 . S
C1830 H1842 0.960 . S
C1830 H1843 0.962 . S
C1830 H1844 0.960 . S
C1831 C1828 1.511 . S
C1831 H1845 0.961 . S
C1831 H1846 0.961 . S
C1831 H1847 0.961 . S
C1832 C1833 1.370 1_655 S
C1832 C1834 1.363 . S
C1832 H1848 0.931 1_565 S
C1833 C1832 1.370 1_455 S
C1833 C1837 1.408 . S
C1834 C1832 1.363 . S
C1834 C1835 1.370 . S
C1834 C1838 1.524 . S
C1835 C1827 1.503 . S
C1835 C1834 1.370 . S
C1835 C1836 1.403 . S
C1836 C1835 1.403 . S
C1836 C1837 1.404 1_655 S
C1836 C1839 1.539 . S
C1837 C1833 1.408 . S
C1837 C1836 1.404 1_455 S
C1837 H1849 0.930 . S
C1838 C1834 1.524 . S
C1838 H1850 0.952 1_565 S
C1838 H1851 0.961 . S
C1838 H1852 0.961 1_565 S
C1839 C1836 1.539 . S
C1839 H1853 0.958 . S
C1839 H1854 0.961 1_655 S
C1839 H1855 0.960 . S
H1840 C1824 0.931 . S
H1841 C1829 0.929 . S
H1842 C1830 0.960 . S
H1843 C1830 0.962 . S
H1844 C1830 0.960 . S
H1845 C1831 0.961 . S
H1846 C1831 0.961 . S
H1847 C1831 0.961 . S
H1848 C1832 0.931 1_545 S
H1849 C1837 0.930 . S
H1850 C1838 0.952 1_545 S
H1851 C1838 0.961 . S
H1852 C1838 0.961 1_545 S
H1853 C1839 0.958 . S
H1854 C1839 0.961 1_455 S
H1855 C1839 0.960 . S
C1856 C1857 1.391 . S
C1856 C1858 1.394 . S
C1856 H1872 0.931 . S
C1857 C1856 1.391 . S
C1857 C1861 1.376 . S
C1858 C1856 1.394 . S
C1858 C1859 1.369 . S
C1858 C1862 1.531 . S
C1859 C1858 1.369 . S
C1859 C1860 1.410 . S
C1859 C1867 1.503 . S
C1860 C1859 1.410 . S
C1860 C1861 1.392 . S
C1860 C1863 1.511 . S
C1861 C1857 1.376 . S
C1861 C1860 1.392 . S
C1861 H1873 0.929 . S
C1862 C1858 1.531 . S
C1862 H1874 0.960 . S
C1862 H1875 0.962 . S
C1862 H1876 0.960 . S
C1863 C1860 1.511 . S
C1863 H1877 0.961 . S
C1863 H1878 0.961 . S
C1863 H1879 0.961 . S
C1864 C1865 1.370 . S
C1864 C1866 1.363 . S
C1864 H1880 0.931 . S
C1865 C1864 1.370 . S
C1865 C1869 1.408 . S
C1866 C1864 1.363 . S
C1866 C1867 1.370 . S
C1866 C1870 1.524 . S
C1867 C1859 1.503 . S
C1867 C1866 1.370 . S
C1867 C1868 1.403 . S
C1868 C1867 1.403 . S
C1868 C1869 1.404 . S
C1868 C1871 1.539 . S
C1869 C1865 1.408 . S
C1869 C1868 1.404 . S
C1869 H1881 0.930 . S
C1870 C1866 1.524 . S
C1870 H1882 0.956 . S
C1870 H1883 0.961 . S
C1870 H1884 0.961 . S
C1871 C1868 1.539 . S
C1871 H1885 0.958 . S
C1871 H1886 0.961 . S
C1871 H1887 0.960 . S
H1872 C1856 0.931 . S
H1873 C1861 0.929 . S
H1874 C1862 0.960 . S
H1875 C1862 0.962 . S
H1876 C1862 0.960 . S
H1877 C1863 0.961 . S
H1878 C1863 0.961 . S
H1879 C1863 0.961 . S
H1880 C1864 0.931 . S
H1881 C1869 0.930 . S
H1882 C1870 0.956 . S
H1883 C1870 0.961 . S
H1884 C1870 0.961 . S
H1885 C1871 0.958 . S
H1886 C1871 0.961 . S
H1887 C1871 0.960 . S
C1888 C1889 1.399 . S
C1888 C1890 1.400 . S
C1888 H1904 0.917 1_545 S
C1889 C1888 1.399 . S
C1889 C1893 1.376 . S
C1890 C1888 1.400 . S
C1890 C1891 1.369 . S
C1890 C1894 1.531 1_545 S
C1891 C1890 1.369 . S
C1891 C1892 1.410 . S
C1891 C1899 1.503 . S
C1892 C1891 1.410 . S
C1892 C1893 1.392 . S
C1892 C1895 1.511 . S
C1893 C1889 1.376 . S
C1893 C1892 1.392 . S
C1893 H1905 0.929 . S
C1894 C1890 1.531 1_565 S
C1894 H1906 0.960 1_565 S
C1894 H1907 0.962 . S
C1894 H1908 0.960 . S
C1895 C1892 1.511 . S
C1895 H1909 0.961 . S
C1895 H1910 0.961 . S
C1895 H1911 0.961 . S
C1896 C1897 1.370 . S
C1896 C1898 1.363 . S
C1896 H1912 0.931 . S
C1897 C1896 1.370 . S
C1897 C1901 1.408 . S
C1898 C1896 1.363 . S
C1898 C1899 1.370 . S
C1898 C1902 1.524 . S
C1899 C1891 1.503 . S
C1899 C1898 1.370 . S
C1899 C1900 1.403 . S
C1900 C1899 1.403 . S
C1900 C1901 1.404 . S
C1900 C1903 1.539 . S
C1901 C1897 1.408 . S
C1901 C1900 1.404 . S
C1901 H1913 0.930 . S
C1902 C1898 1.524 . S
C1902 H1914 0.956 . S
C1902 H1915 0.961 . S
C1902 H1916 0.961 . S
C1903 C1900 1.539 . S
C1903 H1917 0.958 . S
C1903 H1918 0.961 . S
C1903 H1919 0.960 . S
H1904 C1888 0.917 1_565 S
H1905 C1893 0.929 . S
H1906 C1894 0.960 1_545 S
H1907 C1894 0.962 . S
H1908 C1894 0.960 . S
H1909 C1895 0.961 . S
H1910 C1895 0.961 . S
H1911 C1895 0.961 . S
H1912 C1896 0.931 . S
H1913 C1901 0.930 . S
H1914 C1902 0.956 . S
H1915 C1902 0.961 . S
H1916 C1902 0.961 . S
H1917 C1903 0.958 . S
H1918 C1903 0.961 . S
H1919 C1903 0.960 . S
C1920 C1921 1.391 . S
C1920 C1922 1.394 . S
C1920 H1936 0.931 . S
C1921 C1920 1.391 . S
C1921 C1925 1.376 . S
C1922 C1920 1.394 . S
C1922 C1923 1.369 . S
C1922 C1926 1.531 . S
C1923 C1922 1.369 . S
C1923 C1924 1.410 . S
C1923 C1931 1.503 . S
C1924 C1923 1.410 . S
C1924 C1925 1.392 . S
C1924 C1927 1.511 . S
C1925 C1921 1.376 . S
C1925 C1924 1.392 . S
C1925 H1937 0.929 . S
C1926 C1922 1.531 . S
C1926 H1938 0.960 . S
C1926 H1939 0.962 . S
C1926 H1940 0.960 . S
C1927 C1924 1.511 . S
C1927 H1941 0.961 . S
C1927 H1942 0.961 . S
C1927 H1943 0.961 . S
C1928 C1929 1.370 . S
C1928 C1930 1.363 . S
C1928 H1944 0.931 . S
C1929 C1928 1.370 . S
C1929 C1933 1.408 . S
C1930 C1928 1.363 . S
C1930 C1931 1.370 . S
C1930 C1934 1.524 . S
C1931 C1923 1.503 . S
C1931 C1930 1.370 . S
C1931 C1932 1.403 . S
C1932 C1931 1.403 . S
C1932 C1933 1.404 . S
C1932 C1935 1.539 . S
C1933 C1929 1.408 . S
C1933 C1932 1.404 . S
C1933 H1945 0.930 . S
C1934 C1930 1.524 . S
C1934 H1946 0.956 . S
C1934 H1947 0.961 . S
C1934 H1948 0.961 . S
C1935 C1932 1.539 . S
C1935 H1949 0.958 . S
C1935 H1950 0.961 . S
C1935 H1951 0.960 . S
H1936 C1920 0.931 . S
H1937 C1925 0.929 . S
H1938 C1926 0.960 . S
H1939 C1926 0.962 . S
H1940 C1926 0.960 . S
H1941 C1927 0.961 . S
H1942 C1927 0.961 . S
H1943 C1927 0.961 . S
H1944 C1928 0.931 . S
H1945 C1933 0.930 . S
H1946 C1934 0.956 . S
H1947 C1934 0.961 . S
H1948 C1934 0.961 . S
H1949 C1935 0.958 . S
H1950 C1935 0.961 . S
H1951 C1935 0.960 . S
C1952 C1953 1.391 1_465 S
C1952 C1954 1.394 1_565 S
C1952 H1968 0.933 . S
C1953 C1952 1.391 1_645 S
C1953 C1957 1.376 . S
C1954 C1952 1.394 1_545 S
C1954 C1955 1.369 . S
C1954 C1958 1.531 1_545 S
C1955 C1954 1.369 . S
C1955 C1956 1.410 . S
C1955 C1963 1.503 . S
C1956 C1955 1.410 . S
C1956 C1957 1.392 1_455 S
C1956 C1959 1.511 . S
C1957 C1953 1.376 . S
C1957 C1956 1.392 1_655 S
C1957 H1969 0.929 . S
C1958 C1954 1.531 1_565 S
C1958 H1970 0.960 1_565 S
C1958 H1971 0.962 . S
C1958 H1972 0.960 . S
C1959 C1956 1.511 . S
C1959 H1973 0.961 1_455 S
C1959 H1974 0.961 . S
C1959 H1975 0.961 . S
C1960 C1961 1.370 . S
C1960 C1962 1.363 . S
C1960 H1976 0.931 . S
C1961 C1960 1.370 . S
C1961 C1965 1.408 . S
C1962 C1960 1.363 . S
C1962 C1963 1.370 . S
C1962 C1966 1.524 . S
C1963 C1955 1.503 . S
C1963 C1962 1.370 . S
C1963 C1964 1.403 . S
C1964 C1963 1.403 . S
C1964 C1965 1.404 . S
C1964 C1967 1.539 . S
C1965 C1961 1.408 . S
C1965 C1964 1.404 . S
C1965 H1977 0.930 . S
C1966 C1962 1.524 . S
C1966 H1978 0.956 . S
C1966 H1979 0.961 . S
C1966 H1980 0.961 . S
C1967 C1964 1.539 . S
C1967 H1981 0.958 . S
C1967 H1982 0.961 . S
C1967 H1983 0.960 . S
H1968 C1952 0.933 . S
H1969 C1957 0.929 . S
H1970 C1958 0.960 1_545 S
H1971 C1958 0.962 . S
H1972 C1958 0.960 . S
H1973 C1959 0.961 1_655 S
H1974 C1959 0.961 . S
H1975 C1959 0.961 . S
H1976 C1960 0.931 . S
H1977 C1965 0.930 . S
H1978 C1966 0.956 . S
H1979 C1966 0.961 . S
H1980 C1966 0.961 . S
H1981 C1967 0.958 . S
H1982 C1967 0.961 . S
H1983 C1967 0.960 . S
C1984 C1985 1.391 . S
C1984 C1986 1.394 . S
C1984 H2000 0.931 . S
C1985 C1984 1.391 . S
C1985 C1989 1.376 . S
C1986 C1984 1.394 . S
C1986 C1987 1.369 . S
C1986 C1990 1.531 . S
C1987 C1986 1.369 . S
C1987 C1988 1.410 . S
C1987 C1995 1.503 . S
C1988 C1987 1.410 . S
C1988 C1989 1.392 . S
C1988 C1991 1.511 . S
C1989 C1985 1.376 . S
C1989 C1988 1.392 . S
C1989 H2001 0.929 . S
C1990 C1986 1.531 . S
C1990 H2002 0.960 . S
C1990 H2003 0.962 . S
C1990 H2004 0.960 . S
C1991 C1988 1.511 . S
C1991 H2005 0.961 . S
C1991 H2006 0.961 . S
C1991 H2007 0.961 . S
C1992 C1993 1.370 . S
C1992 C1994 1.363 . S
C1992 H2008 0.931 . S
C1993 C1992 1.370 . S
C1993 C1997 1.408 . S
C1994 C1992 1.363 . S
C1994 C1995 1.370 . S
C1994 C1998 1.524 . S
C1995 C1987 1.503 . S
C1995 C1994 1.370 . S
C1995 C1996 1.403 . S
C1996 C1995 1.403 . S
C1996 C1997 1.404 . S
C1996 C1999 1.539 . S
C1997 C1993 1.408 . S
C1997 C1996 1.404 . S
C1997 H2009 0.930 . S
C1998 C1994 1.524 . S
C1998 H2010 0.956 . S
C1998 H2011 0.961 . S
C1998 H2012 0.961 . S
C1999 C1996 1.539 . S
C1999 H2013 0.958 . S
C1999 H2014 0.961 . S
C1999 H2015 0.960 . S
H2000 C1984 0.931 . S
H2001 C1989 0.929 . S
H2002 C1990 0.960 . S
H2003 C1990 0.962 . S
H2004 C1990 0.960 . S
H2005 C1991 0.961 . S
H2006 C1991 0.961 . S
H2007 C1991 0.961 . S
H2008 C1992 0.931 . S
H2009 C1997 0.930 . S
H2010 C1998 0.956 . S
H2011 C1998 0.961 . S
H2012 C1998 0.961 . S
H2013 C1999 0.958 . S
H2014 C1999 0.961 . S
H2015 C1999 0.960 . S
C2016 C2017 1.391 . S
C2016 C2018 1.394 . S
C2016 H2032 0.931 . S
C2017 C2016 1.391 . S
C2017 C2021 1.376 . S
C2018 C2016 1.394 . S
C2018 C2019 1.369 . S
C2018 C2022 1.531 . S
C2019 C2018 1.369 . S
C2019 C2020 1.410 . S
C2019 C2027 1.503 . S
C2020 C2019 1.410 . S
C2020 C2021 1.392 . S
C2020 C2023 1.511 . S
C2021 C2017 1.376 . S
C2021 C2020 1.392 . S
C2021 H2033 0.929 . S
C2022 C2018 1.531 . S
C2022 H2034 0.960 1_565 S
C2022 H2035 0.962 . S
C2022 H2036 0.953 1_565 S
C2023 C2020 1.511 . S
C2023 H2037 0.961 . S
C2023 H2038 0.961 . S
C2023 H2039 0.961 . S
C2024 C2025 1.370 . S
C2024 C2026 1.363 . S
C2024 H2040 0.931 . S
C2025 C2024 1.370 . S
C2025 C2029 1.408 . S
C2026 C2024 1.363 . S
C2026 C2027 1.370 . S
C2026 C2030 1.524 . S
C2027 C2019 1.503 . S
C2027 C2026 1.370 . S
C2027 C2028 1.403 . S
C2028 C2027 1.403 . S
C2028 C2029 1.404 . S
C2028 C2031 1.539 . S
C2029 C2025 1.408 . S
C2029 C2028 1.404 . S
C2029 H2041 0.930 1_565 S
C2030 C2026 1.524 . S
C2030 H2042 0.956 . S
C2030 H2043 0.961 . S
C2030 H2044 0.961 . S
C2031 C2028 1.539 . S
C2031 H2045 0.958 1_565 S
C2031 H2046 0.961 . S
C2031 H2047 0.960 . S
H2032 C2016 0.931 . S
H2033 C2021 0.929 . S
H2034 C2022 0.960 1_545 S
H2035 C2022 0.962 . S
H2036 C2022 0.953 1_545 S
H2037 C2023 0.961 . S
H2038 C2023 0.961 . S
H2039 C2023 0.961 . S
H2040 C2024 0.931 . S
H2041 C2029 0.930 1_545 S
H2042 C2030 0.956 . S
H2043 C2030 0.961 . S
H2044 C2030 0.961 . S
H2045 C2031 0.958 1_545 S
H2046 C2031 0.961 . S
H2047 C2031 0.960 . S
C513 C4 0.746 . S
C521 C413 0.632 . S
C545 C189 0.746 . S
C553 C36 0.631 . S
C577 C68 0.584 . S
C585 C452 0.696 . S
C609 C125 0.648 . S
C617 C253 0.668 . S
C641 C157 0.727 . S
C649 C260 0.644 . S
C673 C349 0.683 . S
C681 C196 0.654 . S
C705 C420 0.732 . S
C713 C292 0.634 . S
C737 C381 0.743 . S
C745 C509 0.630 . S
C769 C290 1.882 . S
C777 C6 1.856 . S
C801 C38 1.857 . S
C809 C326 1.883 . S
C833 C70 1.819 . S
C841 C358 1.874 . S
C865 C258 1.857 . S
C873 C98 1.843 . S
C897 C418 1.881 . S
C905 C130 1.847 . S
C929 C450 1.856 . S
C937 C162 1.837 . S
C961 C198 1.863 . S
C969 C486 1.883 . S
C993 C390 1.885 . S
C1001 C226 1.856 . S
C1025 C262 1.851 . S
C1033 C34 1.874 . S
C1057 C294 1.864 . S
C1065 C66 1.879 . S
C1089 C322 1.852 . S
C1097 C102 1.883 . S
C1121 C2 1.885 . S
C1129 C354 1.847 1_545 S
C1153 C166 1.885 . S
C1161 C386 1.850 . S
C1185 C422 1.858 . S
C1193 C194 1.883 . S
C1217 C230 1.888 . S
C1225 C454 1.854 . S
C1249 C482 1.832 1_565 S
C1257 C134 1.871 . S
C1281 N18 1.321 . S
C1289 N333 1.342 . S
C1313 N50 1.296 . S
C1321 N365 1.339 . S
C1345 N274 1.320 . S
C1353 N82 1.342 . S
C1377 N109 1.320 . S
C1385 N306 1.317 . S
C1409 N141 1.348 . S
C1417 N466 1.338 . S
C1441 N173 1.355 . S
C1449 N493 1.323 . S
C1473 N397 1.310 . S
C1481 N210 1.317 . S
C1505 N237 1.310 . S
C1513 N434 1.317 . S
C1537 C29 0.951 . S
C1545 N242 1.049 . S
C1569 N402 1.035 . S
C1577 C61 0.995 . S
C1601 C93 0.969 . S
C1609 N178 1.040 . S
C1633 C100 0.973 . S
C1641 N461 1.053 . S
C1665 C132 1.041 . S
C1673 N114 1.028 . S
C1697 N269 1.029 . S
C1705 C164 1.021 . S
C1729 C221 1.022 . S
C1737 N45 1.031 . S
C1761 N338 1.061 . S
C1769 C228 0.987 . S
C1793 C285 0.957 . S
C1801 N498 1.045 . S
C1825 N146 1.059 . S
C1833 C317 1.006 . S
C1857 N429 1.006 . S
C1865 C324 1.021 . S
C1889 C356 1.060 . S
C1897 N205 1.030 . S
C1921 C388 1.047 . S
C1929 N370 1.027 . S
C1953 C445 0.951 . S
C1961 N13 1.053 . S
C1985 N301 1.012 . S
C1993 C477 1.029 . S
C2017 N77 1.006 . S
C2025 C484 1.027 . S
