# Generated by pormake.
# Topology zff, (5)-cn, num edge types: 1
# Building blocks:
#     Node 0, Type 0, BuildingBlock: XOMCOT_clean_sbu_0, # of connection points: 5
#     Node 1, Type 0, BuildingBlock: XOMCOT_clean_sbu_0, # of connection points: 5
#     Node 2, Type 0, BuildingBlock: XOMCOT_clean_sbu_0, # of connection points: 5
#     Node 3, Type 0, BuildingBlock: XOMCOT_clean_sbu_0, # of connection points: 5
#     Node 4, Type 0, BuildingBlock: XOMCOT_clean_sbu_0, # of connection points: 5
#     Node 5, Type 0, BuildingBlock: XOMCOT_clean_sbu_0, # of connection points: 5
#     Node 6, Type 0, BuildingBlock: XOMCOT_clean_sbu_0, # of connection points: 5
#     Node 7, Type 0, BuildingBlock: XOMCOT_clean_sbu_0, # of connection points: 5
#     Node 8, Type 0, BuildingBlock: XOMCOT_clean_sbu_0, # of connection points: 5
#     Node 9, Type 0, BuildingBlock: XOMCOT_clean_sbu_0, # of connection points: 5
#     Node 10, Type 0, BuildingBlock: XOMCOT_clean_sbu_0, # of connection points: 5
#     Node 11, Type 0, BuildingBlock: XOMCOT_clean_sbu_0, # of connection points: 5
#     Node 12, Type 0, BuildingBlock: XOMCOT_clean_sbu_0, # of connection points: 5
#     Node 13, Type 0, BuildingBlock: XOMCOT_clean_sbu_0, # of connection points: 5
#     Node 14, Type 0, BuildingBlock: XOMCOT_clean_sbu_0, # of connection points: 5
#     Node 15, Type 0, BuildingBlock: XOMCOT_clean_sbu_0, # of connection points: 5
#     Edge 16, Type (0, 0), BuildingBlock: UVAHIK_clean_linker_0, # of connection points: 2
#     Edge 17, Type (0, 0), BuildingBlock: UVAHIK_clean_linker_0, # of connection points: 2
#     Edge 18, Type (0, 0), BuildingBlock: UVAHIK_clean_linker_0, # of connection points: 2
#     Edge 19, Type (0, 0), BuildingBlock: UVAHIK_clean_linker_0, # of connection points: 2
#     Edge 20, Type (0, 0), BuildingBlock: UVAHIK_clean_linker_0, # of connection points: 2
#     Edge 21, Type (0, 0), BuildingBlock: UVAHIK_clean_linker_0, # of connection points: 2
#     Edge 22, Type (0, 0), BuildingBlock: UVAHIK_clean_linker_0, # of connection points: 2
#     Edge 23, Type (0, 0), BuildingBlock: UVAHIK_clean_linker_0, # of connection points: 2
#     Edge 24, Type (0, 0), BuildingBlock: UVAHIK_clean_linker_0, # of connection points: 2
#     Edge 25, Type (0, 0), BuildingBlock: UVAHIK_clean_linker_0, # of connection points: 2
#     Edge 26, Type (0, 0), BuildingBlock: UVAHIK_clean_linker_0, # of connection points: 2
#     Edge 27, Type (0, 0), BuildingBlock: UVAHIK_clean_linker_0, # of connection points: 2
#     Edge 28, Type (0, 0), BuildingBlock: UVAHIK_clean_linker_0, # of connection points: 2
#     Edge 29, Type (0, 0), BuildingBlock: UVAHIK_clean_linker_0, # of connection points: 2
#     Edge 30, Type (0, 0), BuildingBlock: UVAHIK_clean_linker_0, # of connection points: 2
#     Edge 31, Type (0, 0), BuildingBlock: UVAHIK_clean_linker_0, # of connection points: 2
#     Edge 32, Type (0, 0), BuildingBlock: UVAHIK_clean_linker_0, # of connection points: 2
#     Edge 33, Type (0, 0), BuildingBlock: UVAHIK_clean_linker_0, # of connection points: 2
#     Edge 34, Type (0, 0), BuildingBlock: UVAHIK_clean_linker_0, # of connection points: 2
#     Edge 35, Type (0, 0), BuildingBlock: UVAHIK_clean_linker_0, # of connection points: 2
#     Edge 36, Type (0, 0), BuildingBlock: UVAHIK_clean_linker_0, # of connection points: 2
#     Edge 37, Type (0, 0), BuildingBlock: UVAHIK_clean_linker_0, # of connection points: 2
#     Edge 38, Type (0, 0), BuildingBlock: UVAHIK_clean_linker_0, # of connection points: 2
#     Edge 39, Type (0, 0), BuildingBlock: UVAHIK_clean_linker_0, # of connection points: 2
#     Edge 40, Type (0, 0), BuildingBlock: UVAHIK_clean_linker_0, # of connection points: 2
#     Edge 41, Type (0, 0), BuildingBlock: UVAHIK_clean_linker_0, # of connection points: 2
#     Edge 42, Type (0, 0), BuildingBlock: UVAHIK_clean_linker_0, # of connection points: 2
#     Edge 43, Type (0, 0), BuildingBlock: UVAHIK_clean_linker_0, # of connection points: 2
#     Edge 44, Type (0, 0), BuildingBlock: UVAHIK_clean_linker_0, # of connection points: 2
#     Edge 45, Type (0, 0), BuildingBlock: UVAHIK_clean_linker_0, # of connection points: 2
#     Edge 46, Type (0, 0), BuildingBlock: UVAHIK_clean_linker_0, # of connection points: 2
#     Edge 47, Type (0, 0), BuildingBlock: UVAHIK_clean_linker_0, # of connection points: 2
#     Edge 48, Type (0, 0), BuildingBlock: UVAHIK_clean_linker_0, # of connection points: 2
#     Edge 49, Type (0, 0), BuildingBlock: UVAHIK_clean_linker_0, # of connection points: 2
#     Edge 50, Type (0, 0), BuildingBlock: UVAHIK_clean_linker_0, # of connection points: 2
#     Edge 51, Type (0, 0), BuildingBlock: UVAHIK_clean_linker_0, # of connection points: 2
#     Edge 52, Type (0, 0), BuildingBlock: UVAHIK_clean_linker_0, # of connection points: 2
#     Edge 53, Type (0, 0), BuildingBlock: UVAHIK_clean_linker_0, # of connection points: 2
#     Edge 54, Type (0, 0), BuildingBlock: UVAHIK_clean_linker_0, # of connection points: 2
#     Edge 55, Type (0, 0), BuildingBlock: UVAHIK_clean_linker_0, # of connection points: 2
# Relax obj value: 0.160
# Max RMSD: 0.228
# Mean RMSD: 0.228
data_MOF--net-zff--node1-XOMCOT_clean_sbu_0--edge1-UVAHIK_clean_linker_0
_symmetry_space_group_name_H-M    P1
_symmetry_Int_Tables_number       1
_symmetry_cell_setting            triclinic
loop_
_symmetry_equiv_pos_as_xyz
'x, y, z'
_cell_length_a     47.166302
_cell_length_b     47.209766
_cell_length_c     83.629452
_cell_angle_alpha  89.9848
_cell_angle_beta   90.00266
_cell_angle_gamma 89.999509
loop_
_atom_site_label
_atom_site_type_symbol
_atom_site_fract_x
_atom_site_fract_y
_atom_site_fract_z
_atom_type_partial_charge
Co0 Co 0.05481 0.31368 0.38596 0.0
C1 C 0.06352 0.33193 0.35255 0.0
C2 C 0.01973 0.32254 0.35722 0.0
C3 C 0.0224 0.33086 0.34149 0.0
N4 N 0.04555 0.32303 0.36408 0.0
N5 N 0.04991 0.33682 0.3386 0.0
H6 H 0.08609 0.33458 0.35434 0.0
H7 H 0.00027 0.31688 0.36325 0.0
C8 C 0.01734 0.26417 0.3945 0.0
O9 O 0.03669 0.25371 0.40412 0.0
N10 N 0.06397 0.30487 0.40821 0.0
C11 C 0.08893 0.29669 0.41464 0.0
C12 C 0.08588 0.29397 0.4309 0.0
C13 C 0.04628 0.30766 0.42089 0.0
N14 N 0.05907 0.30081 0.43485 0.0
C15 C 0.10938 0.28972 0.3784 0.0
C16 C 0.08886 0.23882 0.36696 0.0
C17 C 0.11803 0.24159 0.36974 0.0
C18 C 0.12842 0.26795 0.37478 0.0
C19 C 0.07073 0.26106 0.37079 0.0
N20 N 0.08084 0.28507 0.37788 0.0
H21 H 0.11757 0.30975 0.3826 0.0
H22 H 0.0485 0.25851 0.36821 0.0
H23 H 0.10852 0.29342 0.40837 0.0
H24 H 0.02438 0.31423 0.41985 0.0
O25 O 0.07964 0.34648 0.38679 0.0
O26 O 0.03381 0.3457 0.39315 0.0
O27 O 0.02203 0.28659 0.38641 0.0
C28 C 0.0571 0.35999 0.39163 0.0
H29 H 0.0053 0.33298 0.33294 0.0
H30 H 0.10245 0.28817 0.43924 0.0
H31 H 0.07981 0.21919 0.36264 0.0
H32 H 0.15093 0.27143 0.37643 0.0
Co33 Co 0.68597 0.04955 0.38915 0.0
C34 C 0.67386 0.06172 0.35473 0.0
C35 C 0.69066 0.02006 0.35806 0.0
C36 C 0.68397 0.02343 0.34215 0.0
N37 N 0.68534 0.04445 0.36595 0.0
N38 N 0.67333 0.04965 0.34006 0.0
H39 H 0.66452 0.08203 0.35729 0.0
H40 H 0.69758 0.00055 0.36359 0.0
C41 C 0.7406 0.02051 0.38216 0.0
O42 O 0.74542 0.03984 0.37117 0.0
N43 N 0.68529 0.05462 0.41212 0.0
C44 C 0.67973 0.07944 0.4194 0.0
C45 C 0.68103 0.07559 0.43564 0.0
C46 C 0.68944 0.03572 0.42405 0.0
N47 N 0.68714 0.04818 0.43859 0.0
C48 C 0.70512 0.1063 0.38006 0.0
C49 C 0.75497 0.10276 0.39734 0.0
C50 C 0.7495 0.12737 0.38859 0.0
C51 C 0.72414 0.12918 0.37989 0.0
C52 C 0.73572 0.08061 0.39707 0.0
N53 N 0.71171 0.08183 0.38794 0.0
H54 H 0.68486 0.10882 0.37437 0.0
H55 H 0.74006 0.06244 0.40451 0.0
H56 H 0.67504 0.09906 0.41326 0.0
H57 H 0.69422 0.01356 0.42213 0.0
O58 O 0.64911 0.06795 0.38793 0.0
O59 O 0.65702 0.02181 0.39089 0.0
O60 O 0.71855 0.02219 0.39099 0.0
C61 C 0.63895 0.04237 0.38968 0.0
H62 H 0.68536 0.00727 0.33301 0.0
H63 H 0.67718 0.09165 0.44462 0.0
H64 H 0.77417 0.10045 0.40433 0.0
H65 H 0.71876 0.14828 0.37339 0.0
Co66 Co 0.93723 0.67503 0.38709 0.0
C67 C 0.92938 0.66232 0.35284 0.0
C68 C 0.97347 0.66352 0.35928 0.0
C69 C 0.97129 0.65557 0.34347 0.0
N70 N 0.9472 0.66769 0.3651 0.0
N71 N 0.94357 0.65484 0.33946 0.0
H72 H 0.90651 0.66265 0.35391 0.0
H73 H 0.99278 0.66525 0.36619 0.0
C74 C 0.97369 0.72442 0.39681 0.0
O75 O 0.95309 0.73488 0.40558 0.0
N76 N 0.92749 0.68161 0.40944 0.0
C77 C 0.90158 0.68338 0.41622 0.0
C78 C 0.90455 0.68484 0.43254 0.0
C79 C 0.94578 0.68112 0.42192 0.0
N80 N 0.93235 0.68344 0.43614 0.0
C81 C 0.88299 0.70074 0.38058 0.0
C82 C 0.90444 0.75133 0.36923 0.0
C83 C 0.8753 0.74922 0.37225 0.0
C84 C 0.86441 0.72306 0.37731 0.0
C85 C 0.92211 0.72853 0.3727 0.0
N86 N 0.91161 0.7046 0.37972 0.0
H87 H 0.87436 0.68055 0.38417 0.0
H88 H 0.94433 0.73048 0.36991 0.0
H89 H 0.88157 0.68253 0.41009 0.0
H90 H 0.96844 0.67839 0.42058 0.0
O91 O 0.91218 0.64239 0.3866 0.0
O92 O 0.95777 0.64223 0.39355 0.0
O93 O 0.97009 0.70189 0.38866 0.0
C94 C 0.93444 0.62829 0.39131 0.0
H95 H 0.98873 0.65038 0.33558 0.0
H96 H 0.88742 0.68658 0.4411 0.0
H97 H 0.91381 0.77079 0.36487 0.0
H98 H 0.84185 0.72004 0.37901 0.0
Co99 Co 0.30466 0.94199 0.38899 0.0
C100 C 0.31112 0.92541 0.35482 0.0
C101 C 0.29314 0.96676 0.35716 0.0
C102 C 0.29809 0.96163 0.3412 0.0
N103 N 0.30041 0.94365 0.36576 0.0
N104 N 0.30955 0.93561 0.33974 0.0
H105 H 0.32178 0.90596 0.35784 0.0
H106 H 0.28652 0.9868 0.36216 0.0
C107 C 0.24838 0.96943 0.38437 0.0
O108 O 0.24162 0.9487 0.3746 0.0
N109 N 0.31014 0.94022 0.41189 0.0
C110 C 0.32005 0.91719 0.41957 0.0
C111 C 0.31958 0.92221 0.43571 0.0
C112 C 0.30398 0.95923 0.42348 0.0
N113 N 0.30939 0.94853 0.43821 0.0
C114 C 0.28499 0.88418 0.38347 0.0
C115 C 0.23793 0.88945 0.40295 0.0
C116 C 0.24165 0.86431 0.39435 0.0
C117 C 0.26589 0.86153 0.38473 0.0
C118 C 0.25734 0.91134 0.40131 0.0
N119 N 0.27963 0.90932 0.39093 0.0
H120 H 0.3042 0.88115 0.37679 0.0
H121 H 0.25417 0.93022 0.40836 0.0
H122 H 0.32662 0.89778 0.41379 0.0
H123 H 0.295 0.97995 0.42124 0.0
O124 O 0.34134 0.92386 0.3862 0.0
O125 O 0.33324 0.97024 0.3873 0.0
O126 O 0.27211 0.96908 0.39173 0.0
C127 C 0.35123 0.94969 0.38563 0.0
H128 H 0.29531 0.97668 0.33156 0.0
H129 H 0.32626 0.90757 0.44494 0.0
H130 H 0.21971 0.89266 0.41061 0.0
H131 H 0.27016 0.84202 0.37836 0.0
Co132 Co 0.05161 0.684 0.64305 0.0
C133 C 0.06234 0.66752 0.67645 0.0
C134 C 0.01862 0.67859 0.67293 0.0
C135 C 0.02238 0.67057 0.68865 0.0
N136 N 0.04374 0.67677 0.66536 0.0
N137 N 0.04987 0.66352 0.69082 0.0
H138 H 0.08457 0.66381 0.674 0.0
H139 H -0.00112 0.6848 0.66738 0.0
C140 C 0.01829 0.73669 0.63568 0.0
O141 O 0.03984 0.74712 0.62764 0.0
N142 N 0.05936 0.69041 0.62042 0.0
C143 C 0.0842 0.68679 0.61266 0.0
C144 C 0.07981 0.68938 0.59651 0.0
C145 C 0.03995 0.6938 0.60863 0.0
N146 N 0.05199 0.6938 0.59393 0.0
C147 C 0.10734 0.70952 0.64627 0.0
C148 C 0.08769 0.7587 0.66028 0.0
C149 C 0.11527 0.7582 0.6541 0.0
C150 C 0.12573 0.73259 0.64796 0.0
C151 C 0.0702 0.73525 0.65826 0.0
N152 N 0.07921 0.71233 0.64969 0.0
H153 H 0.11559 0.6897 0.64193 0.0
H154 H 0.04892 0.73613 0.66298 0.0
H155 H 0.10393 0.68034 0.61795 0.0
H156 H 0.01738 0.6954 0.61075 0.0
O157 O 0.07482 0.64996 0.64253 0.0
O158 O 0.02869 0.65263 0.63718 0.0
O159 O 0.02021 0.71264 0.64255 0.0
C160 C 0.0513 0.63719 0.63852 0.0
H161 H 0.00596 0.66926 0.69766 0.0
H162 H 0.09567 0.68632 0.58732 0.0
H163 H 0.07932 0.77746 0.66605 0.0
H164 H 0.14738 0.73078 0.64379 0.0
Co165 Co 0.31488 0.05791 0.64585 0.0
C166 C 0.33124 0.06561 0.67949 0.0
C167 C 0.32437 0.02166 0.67415 0.0
C168 C 0.33273 0.02406 0.68991 0.0
N169 N 0.32336 0.04776 0.66771 0.0
N170 N 0.33714 0.05172 0.69323 0.0
H171 H 0.33267 0.08833 0.67797 0.0
H172 H 0.31992 0.00224 0.66778 0.0
C173 C 0.26471 0.02205 0.63692 0.0
O174 O 0.25321 0.04361 0.62939 0.0
N175 N 0.30706 0.06804 0.62367 0.0
C176 C 0.30431 0.09405 0.61715 0.0
C177 C 0.3022 0.09153 0.60084 0.0
C178 C 0.30736 0.05013 0.61102 0.0
N179 N 0.30422 0.06392 0.59693 0.0
C180 C 0.28867 0.11173 0.653 0.0
C181 C 0.23896 0.08917 0.66492 0.0
C182 C 0.24007 0.11822 0.66154 0.0
C183 C 0.2659 0.12974 0.65633 0.0
C184 C 0.2622 0.07211 0.66141 0.0
N185 N 0.28546 0.08307 0.6539 0.0
H186 H 0.30858 0.12077 0.64921 0.0
H187 H 0.26101 0.04991 0.66435 0.0
H188 H 0.30502 0.1139 0.62341 0.0
H189 H 0.31079 0.02755 0.61214 0.0
O190 O 0.34746 0.08312 0.646 0.0
O191 O 0.34745 0.03772 0.63878 0.0
O192 O 0.28818 0.02492 0.64432 0.0
C193 C 0.36146 0.061 0.641 0.0
H194 H 0.3361 0.00667 0.69813 0.0
H195 H 0.29977 0.10891 0.59252 0.0
H196 H 0.21986 0.0793 0.66946 0.0
H197 H 0.26827 0.15232 0.65445 0.0
Co198 Co 0.94379 0.30784 0.64408 0.0
C199 C 0.92885 0.31421 0.67852 0.0
C200 C 0.9686 0.29316 0.67549 0.0
C201 C 0.96451 0.29805 0.69154 0.0
N202 N 0.9458 0.30246 0.66724 0.0
N203 N 0.93949 0.31141 0.69345 0.0
H204 H 0.91058 0.3271 0.67584 0.0
H205 H 0.98788 0.2851 0.6702 0.0
C206 C 0.96809 0.24991 0.64745 0.0
O207 O 0.94713 0.24378 0.65723 0.0
N208 N 0.94182 0.31454 0.62127 0.0
C209 C 0.91904 0.32569 0.61391 0.0
C210 C 0.92475 0.32825 0.59791 0.0
C211 C 0.96129 0.31042 0.60963 0.0
N212 N 0.95131 0.31878 0.59516 0.0
C213 C 0.88552 0.29016 0.65037 0.0
C214 C 0.88749 0.24466 0.62959 0.0
C215 C 0.86319 0.24852 0.63895 0.0
C216 C 0.86208 0.27204 0.64921 0.0
C217 C 0.91022 0.26312 0.63114 0.0
N218 N 0.90982 0.28458 0.64209 0.0
H219 H 0.88385 0.30873 0.65773 0.0
H220 H 0.92855 0.25975 0.62364 0.0
H221 H 0.89947 0.33145 0.61982 0.0
H222 H 0.98226 0.30191 0.61172 0.0
O223 O 0.92752 0.34516 0.64745 0.0
O224 O 0.97351 0.33489 0.64595 0.0
O225 O 0.96906 0.27407 0.6406 0.0
C226 C 0.95384 0.35376 0.64792 0.0
H227 H 0.97945 0.29318 0.70097 0.0
H228 H 0.91019 0.33607 0.58893 0.0
H229 H 0.88947 0.22693 0.62145 0.0
H230 H 0.8433 0.27642 0.65623 0.0
Co231 Co 0.67471 0.94325 0.64828 0.0
C232 C 0.66408 0.93307 0.68246 0.0
C233 C 0.67062 0.97733 0.67786 0.0
C234 C 0.66469 0.97379 0.6939 0.0
N235 N 0.67035 0.95174 0.67076 0.0
N236 N 0.66043 0.94596 0.69673 0.0
H237 H 0.66191 0.91052 0.68048 0.0
H238 H 0.67401 -0.00277 0.67176 0.0
C239 C 0.72103 0.9823 0.63702 0.0
O240 O 0.73179 0.9621 0.62808 0.0
N241 N 0.67813 0.93448 0.62553 0.0
C242 C 0.67662 0.90866 0.61866 0.0
C243 C 0.67642 0.91162 0.60235 0.0
C244 C 0.67754 0.95289 0.61309 0.0
N245 N 0.67702 0.93943 0.59879 0.0
C246 C 0.70605 0.8909 0.65177 0.0
C247 C 0.7557 0.91627 0.66181 0.0
C248 C 0.75631 0.88776 0.65724 0.0
C249 C 0.73071 0.8746 0.65302 0.0
C250 C 0.73066 0.93162 0.66031 0.0
N251 N 0.70706 0.91955 0.65374 0.0
H252 H 0.68632 0.88053 0.64898 0.0
H253 H 0.73058 0.95346 0.6641 0.0
H254 H 0.67412 0.88881 0.62479 0.0
H255 H 0.67664 0.97566 0.61449 0.0
O256 O 0.64387 0.9161 0.65002 0.0
O257 O 0.63984 0.96187 0.64387 0.0
O258 O 0.6993 0.97774 0.64573 0.0
C259 C 0.62775 0.93763 0.64642 0.0
H260 H 0.66259 0.99053 0.70267 0.0
H261 H 0.67555 0.89446 0.59379 0.0
H262 H 0.77458 0.92683 0.66615 0.0
H263 H 0.72989 0.85228 0.65009 0.0
Co264 Co 0.55564 0.80133 0.88998 0.0
C265 C 0.56632 0.8217 0.85712 0.0
C266 C 0.52327 0.80782 0.86006 0.0
C267 C 0.52691 0.81679 0.84451 0.0
N268 N 0.54804 0.81073 0.86789 0.0
N269 N 0.55397 0.82554 0.84269 0.0
H270 H 0.58828 0.82644 0.85976 0.0
H271 H 0.50385 0.79994 0.8653 0.0
C272 C 0.52354 0.74725 0.89654 0.0
O273 O 0.54204 0.73936 0.90737 0.0
N274 N 0.56322 0.79225 0.91247 0.0
C275 C 0.58551 0.77831 0.91893 0.0
C276 C 0.58204 0.77656 0.93519 0.0
C277 C 0.54647 0.79864 0.92515 0.0
N278 N 0.55749 0.78931 0.93914 0.0
C279 C 0.61395 0.78583 0.88485 0.0
C280 C 0.60253 0.73422 0.87065 0.0
C281 C 0.63061 0.74079 0.87469 0.0
C282 C 0.63638 0.76748 0.88131 0.0
C283 C 0.58089 0.75303 0.87448 0.0
N284 N 0.58653 0.77741 0.88264 0.0
H285 H 0.61849 0.80592 0.89049 0.0
H286 H 0.55958 0.74755 0.87103 0.0
H287 H 0.60291 0.76889 0.91256 0.0
H288 H 0.52628 0.80935 0.92415 0.0
O289 O 0.57526 0.83722 0.89246 0.0
O290 O 0.52933 0.82972 0.89651 0.0
O291 O 0.527 0.76997 0.88853 0.0
C292 C 0.55043 0.84733 0.89629 0.0
H293 H 0.51073 0.81731 0.83534 0.0
H294 H 0.59664 0.76667 0.94347 0.0
H295 H 0.59702 0.71411 0.86526 0.0
H296 H 0.65787 0.77373 0.8842 0.0
Co297 Co 0.17741 0.54576 0.88429 0.0
C298 C 0.16992 0.55944 0.84979 0.0
C299 C 0.18124 0.51602 0.85322 0.0
C300 C 0.1753 0.52014 0.83727 0.0
N301 N 0.17886 0.5409 0.86109 0.0
N302 N 0.16801 0.54746 0.83515 0.0
H303 H 0.16287 0.58069 0.85231 0.0
H304 H 0.18503 0.49572 0.85881 0.0
C305 C 0.22727 0.50785 0.87953 0.0
O306 O 0.23642 0.52542 0.86848 0.0
N307 N 0.17471 0.55076 0.9072 0.0
C308 C 0.16976 0.57578 0.9144 0.0
C309 C 0.17056 0.57195 0.93066 0.0
C310 C 0.17828 0.53187 0.91918 0.0
N311 N 0.17603 0.54441 0.9337 0.0
C312 C 0.20657 0.59821 0.87609 0.0
C313 C 0.25326 0.58713 0.89508 0.0
C314 C 0.25277 0.61211 0.88609 0.0
C315 C 0.22893 0.61775 0.87657 0.0
C316 C 0.23067 0.56837 0.89423 0.0
N317 N 0.20821 0.57325 0.88429 0.0
H318 H 0.18774 0.60367 0.86955 0.0
H319 H 0.23123 0.54984 0.90179 0.0
H320 H 0.16622 0.59558 0.9082 0.0
H321 H 0.18308 0.5097 0.91732 0.0
O322 O 0.14471 0.57041 0.8817 0.0
O323 O 0.14385 0.52344 0.88447 0.0
O324 O 0.20465 0.51336 0.88733 0.0
C325 C 0.13013 0.54696 0.88245 0.0
H326 H 0.17441 0.50386 0.82818 0.0
H327 H 0.16721 0.58824 0.93956 0.0
H328 H 0.27112 0.58185 0.90266 0.0
H329 H 0.22729 0.63731 0.86986 0.0
Co330 Co 0.43989 0.17758 0.89031 0.0
C331 C 0.4284 0.16707 0.85574 0.0
C332 C 0.46599 0.19165 0.85899 0.0
C333 C 0.46302 0.18583 0.84295 0.0
N334 N 0.44361 0.18091 0.86706 0.0
N335 N 0.43934 0.17029 0.84091 0.0
H336 H 0.41068 0.15339 0.85834 0.0
H337 H 0.48429 0.20152 0.8644 0.0
C338 C 0.46231 0.2362 0.88629 0.0
O339 O 0.44203 0.24102 0.87586 0.0
N340 N 0.4366 0.17285 0.91322 0.0
C341 C 0.41397 0.16142 0.92062 0.0
C342 C 0.41939 0.16 0.93672 0.0
C343 C 0.45562 0.17827 0.92492 0.0
N344 N 0.44555 0.17051 0.93945 0.0
C345 C 0.38271 0.1948 0.88096 0.0
C346 C 0.38088 0.24042 0.90166 0.0
C347 C 0.35907 0.23698 0.89053 0.0
C348 C 0.3597 0.2135 0.88031 0.0
C349 C 0.40366 0.22175 0.90161 0.0
N350 N 0.40522 0.20013 0.89076 0.0
H351 H 0.38225 0.17627 0.87355 0.0
H352 H 0.4207 0.22537 0.91 0.0
H353 H 0.39484 0.15452 0.91464 0.0
H354 H 0.47645 0.18712 0.92282 0.0
O355 O 0.42482 0.1396 0.88767 0.0
O356 O 0.47038 0.15117 0.88996 0.0
O357 O 0.46377 0.2124 0.89349 0.0
C358 C 0.45132 0.13161 0.88817 0.0
H359 H 0.47806 0.19116 0.83365 0.0
H360 H 0.40501 0.15208 0.94576 0.0
H361 H 0.38106 0.25823 0.90983 0.0
H362 H 0.3427 0.20978 0.87185 0.0
Co363 Co 0.81156 0.4324 0.88661 0.0
C364 C 0.82382 0.421 0.85221 0.0
C365 C 0.812 0.46416 0.85606 0.0
C366 C 0.81967 0.46099 0.84028 0.0
N367 N 0.81357 0.43883 0.86352 0.0
N368 N 0.82712 0.43377 0.83786 0.0
H369 H 0.8313 0.39985 0.85466 0.0
H370 H 0.80722 0.48407 0.86183 0.0
C371 C 0.76267 0.47044 0.88037 0.0
O372 O 0.75477 0.45249 0.86921 0.0
N373 N 0.81108 0.42602 0.90946 0.0
C374 C 0.81305 0.40042 0.91646 0.0
C375 C 0.81345 0.40399 0.93274 0.0
C376 C 0.81051 0.44495 0.92156 0.0
N377 N 0.81196 0.43196 0.936 0.0
C378 C 0.78115 0.38244 0.87491 0.0
C379 C 0.73417 0.39163 0.89402 0.0
C380 C 0.73402 0.3689 0.88338 0.0
C381 C 0.75783 0.36415 0.87375 0.0
C382 C 0.75742 0.40962 0.89452 0.0
N383 N 0.78022 0.40563 0.88467 0.0
H384 H 0.79991 0.37747 0.86824 0.0
H385 H 0.75701 0.42698 0.90292 0.0
H386 H 0.81418 0.3805 0.9101 0.0
H387 H 0.80968 0.46765 0.91981 0.0
O388 O 0.84408 0.40728 0.88499 0.0
O389 O 0.84531 0.45397 0.88897 0.0
O390 O 0.78438 0.46506 0.889 0.0
C391 C 0.85889 0.43029 0.88726 0.0
H392 H 0.82052 0.47771 0.83145 0.0
H393 H 0.81449 0.38715 0.94151 0.0
H394 H 0.7162 0.39576 0.90176 0.0
H395 H 0.7586 0.34622 0.86568 0.0
Co396 Co 0.55068 0.1884 0.1484 0.0
C397 C 0.56351 0.16598 0.18075 0.0
C398 C 0.51957 0.17701 0.17814 0.0
C399 C 0.52395 0.16742 0.19349 0.0
N400 N 0.54439 0.17631 0.17022 0.0
N401 N 0.55159 0.16054 0.19516 0.0
H402 H 0.58575 0.16311 0.17802 0.0
H403 H 0.49967 0.18402 0.17309 0.0
C404 C 0.5234 0.24638 0.1467 0.0
O405 O 0.54315 0.25606 0.13711 0.0
N406 N 0.5568 0.20043 0.12614 0.0
C407 C 0.57741 0.21732 0.12016 0.0
C408 C 0.57405 0.21984 0.10391 0.0
C409 C 0.54108 0.19319 0.11318 0.0
N410 N 0.55121 0.20465 0.09947 0.0
C411 C 0.61034 0.19962 0.15094 0.0
C412 C 0.60475 0.24849 0.16888 0.0
C413 C 0.63134 0.24179 0.16237 0.0
C414 C 0.63428 0.2162 0.15398 0.0
C415 C 0.58151 0.23132 0.16557 0.0
N416 N 0.5841 0.20864 0.15559 0.0
H417 H 0.6125 0.18075 0.14373 0.0
H418 H 0.56127 0.23689 0.17068 0.0
H419 H 0.59337 0.22835 0.12695 0.0
H420 H 0.52231 0.18012 0.11372 0.0
O421 O 0.56716 0.15172 0.14365 0.0
O422 O 0.52158 0.16314 0.14152 0.0
O423 O 0.52473 0.22133 0.15232 0.0
C424 C 0.54128 0.14412 0.14017 0.0
H425 H 0.50791 0.16541 0.20267 0.0
H426 H 0.58758 0.23193 0.09601 0.0
H427 H 0.6014 0.26771 0.17567 0.0
H428 H 0.6546 0.20973 0.14918 0.0
Co429 Co 0.81141 0.54917 0.14401 0.0
C430 C 0.82135 0.56223 0.17861 0.0
C431 C 0.81583 0.51792 0.17416 0.0
C432 C 0.824 0.52135 0.18981 0.0
N433 N 0.81356 0.54357 0.16711 0.0
N434 N 0.8275 0.54921 0.19258 0.0
H435 H 0.82534 0.5844 0.17656 0.0
H436 H 0.81366 0.49786 0.16805 0.0
C437 C 0.76364 0.51089 0.15182 0.0
O438 O 0.75666 0.52901 0.16308 0.0
N439 N 0.81052 0.55461 0.12111 0.0
C440 C 0.81249 0.57994 0.11379 0.0
C441 C 0.81078 0.57593 0.09757 0.0
C442 C 0.80796 0.53536 0.10924 0.0
N443 N 0.80788 0.54796 0.09468 0.0
C444 C 0.78418 0.6022 0.15278 0.0
C445 C 0.73448 0.59066 0.1365 0.0
C446 C 0.73724 0.6167 0.14429 0.0
C447 C 0.76246 0.62247 0.15256 0.0
C448 C 0.75648 0.5712 0.13705 0.0
N449 N 0.78059 0.57646 0.14562 0.0
H450 H 0.80424 0.60786 0.15799 0.0
H451 H 0.75436 0.55214 0.13003 0.0
H452 H 0.81494 0.59999 0.11989 0.0
H453 H 0.80589 0.51281 0.11123 0.0
O454 O 0.84409 0.57411 0.14523 0.0
O455 O 0.84505 0.52723 0.142 0.0
O456 O 0.78414 0.51646 0.14233 0.0
C457 C 0.85875 0.55086 0.14358 0.0
H458 H 0.82835 0.50457 0.19829 0.0
H459 H 0.81205 0.59235 0.08857 0.0
H460 H 0.71549 0.58534 0.12986 0.0
H461 H 0.76575 0.64278 0.15829 0.0
Co462 Co 0.43962 0.8152 0.14745 0.0
C463 C 0.42323 0.82189 0.18119 0.0
C464 C 0.46728 0.81109 0.17899 0.0
C465 C 0.46127 0.8159 0.1949 0.0
N466 N 0.44337 0.81476 0.17046 0.0
N467 N 0.43358 0.82285 0.19626 0.0
H468 H 0.40164 0.82694 0.1779 0.0
H469 H 0.48788 0.80651 0.17395 0.0
C470 C 0.4723 0.76356 0.13716 0.0
O471 O 0.45225 0.75655 0.12699 0.0
N472 N 0.43583 0.81697 0.12417 0.0
C473 C 0.41397 0.82901 0.11623 0.0
C474 C 0.42032 0.83066 0.10028 0.0
C475 C 0.45587 0.81276 0.11276 0.0
N476 N 0.44666 0.82047 0.09805 0.0
C477 C 0.38359 0.79019 0.1432 0.0
C478 C 0.39868 0.73849 0.15617 0.0
C479 C 0.3729 0.7408 0.14802 0.0
C480 C 0.36466 0.76741 0.1422 0.0
C481 C 0.41675 0.76172 0.15691 0.0
N482 N 0.4102 0.78641 0.14924 0.0
H483 H 0.37684 0.8106 0.139 0.0
H484 H 0.43666 0.75938 0.16315 0.0
H485 H 0.39537 0.83819 0.12161 0.0
H486 H 0.47723 0.80568 0.11522 0.0
O487 O 0.41768 0.85004 0.1491 0.0
O488 O 0.46456 0.84666 0.14659 0.0
O489 O 0.46997 0.78558 0.14588 0.0
C490 C 0.44233 0.86256 0.14816 0.0
H491 H 0.4765 0.81569 0.20458 0.0
H492 H 0.40678 0.83942 0.09108 0.0
H493 H 0.4052 0.71867 0.16156 0.0
H494 H 0.34434 0.77034 0.1364 0.0
Co495 Co 0.17705 0.43963 0.14236 0.0
C496 C 0.16045 0.43282 0.17604 0.0
C497 C 0.17061 0.4762 0.17088 0.0
C498 C 0.16304 0.47407 0.18678 0.0
N499 N 0.16907 0.45028 0.16422 0.0
N500 N 0.15656 0.44678 0.18996 0.0
H501 H 0.15732 0.41027 0.17448 0.0
H502 H 0.17656 0.49535 0.16463 0.0
C503 C 0.2262 0.47598 0.13245 0.0
O504 O 0.23799 0.45421 0.12526 0.0
N505 N 0.18437 0.42899 0.1202 0.0
C506 C 0.1872 0.40286 0.11386 0.0
C507 C 0.18836 0.405 0.09749 0.0
C508 C 0.18314 0.44657 0.10743 0.0
N509 N 0.18571 0.43248 0.09341 0.0
C510 C 0.20463 0.38665 0.14989 0.0
C511 C 0.25353 0.41074 0.16193 0.0
C512 C 0.25294 0.38148 0.15921 0.0
C513 C 0.22758 0.36924 0.15381 0.0
C514 C 0.23016 0.42719 0.15782 0.0
N515 N 0.20722 0.4154 0.15041 0.0
H516 H 0.18496 0.37703 0.14615 0.0
H517 H 0.23091 0.44956 0.16038 0.0
H518 H 0.18712 0.38317 0.1203 0.0
H519 H 0.17934 0.46911 0.1084 0.0
O520 O 0.14503 0.41372 0.14303 0.0
O521 O 0.14385 0.45889 0.13539 0.0
O522 O 0.20301 0.47307 0.14011 0.0
C523 C 0.13044 0.43534 0.13787 0.0
H524 H 0.1618 0.49135 0.19525 0.0
H525 H 0.19052 0.38748 0.08924 0.0
H526 H 0.27228 0.42116 0.16654 0.0
H527 H 0.22565 0.34652 0.15237 0.0
C528 C 0.94301 0.58514 0.40703 0.0
C529 C 0.93517 0.59751 0.39245 0.0
C530 C 0.95414 0.55778 0.40735 0.0
C531 C 0.00052 0.51637 0.38332 0.0
H532 H 0.98296 0.45397 0.41172 0.0
C533 C 0.05568 0.40756 0.37973 0.0
C534 C 0.05599 0.39066 0.39348 0.0
C535 C 0.04341 0.43448 0.38021 0.0
C536 C 0.98859 0.47144 0.40396 0.0
H537 H 0.93143 0.59121 0.36693 0.0
H538 H 0.95134 0.54322 0.36742 0.0
H539 H 0.95183 0.49514 0.41095 0.0
H540 H 0.04638 0.38883 0.41872 0.0
H541 H 0.02697 0.43667 0.41996 0.0
H542 H 0.03781 0.49348 0.37671 0.0
C543 C 0.94839 0.55446 0.37859 0.0
C544 C 0.97046 0.49477 0.40338 0.0
C545 C 0.93668 0.58163 0.37833 0.0
C546 C 0.04662 0.40185 0.40804 0.0
C547 C 0.03496 0.42897 0.40863 0.0
C548 C 0.01895 0.49329 0.38409 0.0
C549 C 0.95825 0.54286 0.39303 0.0
C550 C 0.97619 0.5173 0.39298 0.0
C551 C 0.03161 0.4449 0.39453 0.0
C552 C 0.0132 0.47046 0.3944 0.0
H553 H 0.94261 0.59745 0.41797 0.0
H554 H 0.96177 0.5493 0.4186 0.0
H555 H 0.00565 0.53388 0.37545 0.0
H556 H 0.06218 0.39889 0.3683 0.0
H557 H 0.04112 0.44597 0.36909 0.0
C558 C 0.59998 0.00969 0.39658 0.0
C559 C 0.60849 0.0359 0.39027 0.0
C560 C 0.57178 0.00137 0.39599 0.0
C561 C 0.50684 0.01213 0.37316 0.0
H562 H 0.47289 0.97062 0.40836 0.0
C563 C 0.38865 0.98291 0.37693 0.0
C564 C 0.38133 0.95633 0.38324 0.0
C565 C 0.41681 0.99159 0.37649 0.0
C566 C 0.48228 0.98179 0.39835 0.0
H567 H 0.59416 0.07446 0.37881 0.0
H568 H 0.54413 0.05986 0.37781 0.0
H569 H 0.52001 0.99102 0.41148 0.0
H570 H 0.39753 0.91732 0.39331 0.0
H571 H 0.4473 0.93266 0.39268 0.0
H572 H 0.46883 0.00307 0.36012 0.0
C573 C 0.55958 0.04572 0.38311 0.0
C574 C 0.50914 0.99364 0.40017 0.0
C575 C 0.58805 0.05418 0.38378 0.0
C576 C 0.40275 0.9379 0.38839 0.0
C577 C 0.43107 0.94676 0.38813 0.0
C578 C 0.47986 0.00036 0.37137 0.0
C579 C 0.5513 0.01906 0.38907 0.0
C580 C 0.5218 0.00875 0.38756 0.0
C581 C 0.43821 0.97394 0.38249 0.0
C582 C 0.46742 0.98497 0.38393 0.0
H583 H 0.61526 0.99519 0.40175 0.0
H584 H 0.5662 0.98059 0.4005 0.0
H585 H 0.51626 0.02325 0.36315 0.0
H586 H 0.37248 -0.00257 0.37274 0.0
H587 H 0.42164 0.01268 0.37218 0.0
C588 C 0.94566 0.40546 0.64371 0.0
C589 C 0.96191 0.38345 0.65019 0.0
C590 C 0.95641 0.43307 0.64348 0.0
C591 C 0.0255 0.47021 0.6447 0.0
H592 H 0.97826 0.53714 0.64759 0.0
C593 C 0.06467 0.58788 0.64642 0.0
C594 C 0.04868 0.60639 0.63687 0.0
C595 C 0.05661 0.55941 0.64777 0.0
C596 C 0.99165 0.51856 0.64669 0.0
H597 H 0.00079 0.37291 0.66265 0.0
H598 H 0.01899 0.42109 0.6629 0.0
H599 H 0.95734 0.49067 0.65222 0.0
H600 H 0.0138 0.60951 0.62007 0.0
H601 H 1e-05 0.56004 0.62234 0.0
H602 H 0.05987 0.49846 0.63937 0.0
C603 C -0.00142 0.41712 0.6574 0.0
C604 C 0.97967 0.49197 0.6493 0.0
C605 C 0.98806 0.3896 0.65739 0.0
C606 C 0.02624 0.59567 0.62766 0.0
C607 C 0.01824 0.56746 0.62902 0.0
C608 C 0.03754 0.49688 0.64227 0.0
C609 C 0.98338 0.43902 0.64995 0.0
C610 C -0.00364 0.46745 0.64814 0.0
C611 C 0.03254 0.54943 0.6396 0.0
C612 C 0.02059 0.52119 0.64299 0.0
H613 H 0.92551 0.40108 0.638 0.0
H614 H 0.94421 0.44942 0.63756 0.0
H615 H 0.0389 0.45172 0.64345 0.0
H616 H 0.08193 0.5958 0.65371 0.0
H617 H 0.068 0.54575 0.65596 0.0
C618 C 0.58266 0.94006 0.63189 0.0
C619 C 0.59692 0.93641 0.64643 0.0
C620 C 0.55517 0.95095 0.63172 0.0
C621 C 0.51615 0.00272 0.65421 0.0
H622 H 0.45335 0.98305 0.62652 0.0
C623 C 0.40813 0.06076 0.65411 0.0
C624 C 0.3923 0.05999 0.63994 0.0
C625 C 0.4348 0.04788 0.6547 0.0
C626 C 0.47094 0.98916 0.63409 0.0
H627 H 0.59374 0.93941 0.67217 0.0
H628 H 0.54542 0.95845 0.67192 0.0
H629 H 0.49349 0.95085 0.62888 0.0
H630 H 0.39239 0.04812 0.61499 0.0
H631 H 0.43973 0.02741 0.61565 0.0
H632 H 0.49412 0.04138 0.6591 0.0
C633 C 0.55533 0.95272 0.6607 0.0
C634 C 0.4937 0.97048 0.63559 0.0
C635 C 0.58269 0.94143 0.66086 0.0
C636 C 0.40453 0.04916 0.62598 0.0
C637 C 0.43134 0.0368 0.62647 0.0
C638 C 0.49352 0.02156 0.65259 0.0
C639 C 0.54195 0.95887 0.64609 0.0
C640 C 0.51652 0.97711 0.64564 0.0
C641 C 0.44595 0.03437 0.64107 0.0
C642 C 0.47071 0.01509 0.64243 0.0
H643 H 0.5937 0.937 0.62066 0.0
H644 H 0.54539 0.95565 0.6203 0.0
H645 H 0.53382 0.0086 0.6618 0.0
H646 H 0.39867 0.06842 0.6651 0.0
H647 H 0.44541 0.04639 0.66615 0.0
C648 C 0.51935 0.88596 0.9059 0.0
C649 C 0.54512 0.87764 0.89896 0.0
C650 C 0.51122 0.91427 0.90589 0.0
C651 C 0.52208 0.97855 0.88235 0.0
H652 H 0.47666 0.01299 0.91578 0.0
C653 C 0.48801 0.09555 0.88252 0.0
C654 C 0.46016 0.10184 0.88725 0.0
C655 C 0.49827 0.06798 0.88345 0.0
C656 C 0.48903 0.00345 0.90629 0.0
H657 H 0.58356 0.89242 0.88751 0.0
H658 H 0.56953 0.9424 0.88771 0.0
H659 H 0.49813 0.96664 0.92027 0.0
H660 H 0.42075 0.08434 0.89612 0.0
H661 H 0.43888 0.03565 0.89791 0.0
H662 H 0.51313 0.01558 0.86845 0.0
C663 C 0.55539 0.92684 0.89291 0.0
C664 C 0.50146 0.97703 0.90888 0.0
C665 C 0.56357 0.89835 0.89294 0.0
C666 C 0.44228 0.07991 0.89236 0.0
C667 C 0.4527 0.05223 0.8935 0.0
C668 C 0.50982 0.00507 0.87982 0.0
C669 C 0.52873 0.93493 0.89896 0.0
C670 C 0.51792 0.96417 0.89688 0.0
C671 C 0.48095 0.04619 0.88929 0.0
C672 C 0.49303 0.01765 0.89172 0.0
H673 H 0.50478 0.87041 0.91073 0.0
H674 H 0.49047 0.91967 0.91053 0.0
H675 H 0.53414 0.96899 0.87274 0.0
H676 H 0.50219 0.11212 0.87845 0.0
H677 H 0.52014 0.06395 0.88021 0.0
C678 C 0.90288 0.44295 0.90106 0.0
C679 C 0.88978 0.4308 0.8877 0.0
C680 C 0.93058 0.45292 0.90004 0.0
C681 C 0.97627 0.48476 0.87011 0.0
H682 H 0.03097 0.48583 0.90469 0.0
C683 C 0.08851 0.53374 0.8666 0.0
C684 C 0.09947 0.54579 0.8806 0.0
C685 C 0.06137 0.522 0.86655 0.0
C686 C 0.01567 0.48607 0.89504 0.0
H687 H 0.89521 0.41798 0.86307 0.0
H688 H 0.94422 0.43523 0.86123 0.0
H689 H 0.98979 0.45486 0.90646 0.0
H690 H 0.09076 0.55684 0.90518 0.0
H691 H 0.04281 0.53693 0.90508 0.0
H692 H 0.00222 0.51608 0.85871 0.0
C693 C 0.93306 0.43703 0.8725 0.0
C694 C 0.99227 0.46811 0.89598 0.0
C695 C 0.9053 0.42676 0.8736 0.0
C696 C 0.0823 0.54816 0.89417 0.0
C697 C 0.05516 0.53634 0.89417 0.0
C698 C -0.00024 0.5027 0.86914 0.0
C699 C 0.94549 0.45128 0.88553 0.0
C700 C 0.97215 0.46748 0.88361 0.0
C701 C 0.04505 0.52189 0.8806 0.0
C702 C 0.01951 0.50377 0.88169 0.0
H703 H 0.89092 0.44669 0.91193 0.0
H704 H 0.9394 0.46399 0.91024 0.0
H705 H 0.96084 0.48515 0.86052 0.0
H706 H 0.10185 0.53118 0.85613 0.0
H707 H 0.05422 0.51092 0.85595 0.0
C708 C 0.42854 0.91164 0.13998 0.0
C709 C 0.44617 0.89329 0.14865 0.0
C710 C 0.43689 0.93981 0.13749 0.0
C711 C 0.50271 0.98024 0.1346 0.0
H712 H 0.45665 0.04738 0.14032 0.0
C713 C 0.54946 0.09198 0.14153 0.0
C714 C 0.5335 0.11497 0.13596 0.0
C715 C 0.53867 0.0645 0.14028 0.0
C716 C 0.46964 0.02879 0.13834 0.0
H717 H 0.4846 0.89002 0.16272 0.0
H718 H 0.49876 0.93898 0.1587 0.0
H719 H 0.43566 0.00069 0.1446 0.0
H720 H 0.49524 0.12745 0.12341 0.0
H721 H 0.4768 0.0795 0.12084 0.0
H722 H 0.53679 0.00811 0.12854 0.0
C723 C 0.47908 0.9317 0.15342 0.0
C724 C 0.4576 0.00213 0.14086 0.0
C725 C 0.47087 0.90381 0.15583 0.0
C726 C 0.50775 0.11 0.12802 0.0
C727 C 0.49711 0.08261 0.12663 0.0
C728 C 0.5147 0.00681 0.13201 0.0
C729 C 0.46285 0.94961 0.14368 0.0
C730 C 0.47426 0.97771 0.13941 0.0
C731 C 0.51192 0.0597 0.13329 0.0
C732 C 0.49848 0.0314 0.1342 0.0
H733 H 0.40951 0.90377 0.13425 0.0
H734 H 0.42396 0.95337 0.13001 0.0
H735 H 0.51585 0.96161 0.13308 0.0
H736 H 0.5693 0.09536 0.14777 0.0
H737 H 0.55054 0.04728 0.14561 0.0
C738 C 0.90189 0.53964 0.15859 0.0
C739 C 0.88954 0.54992 0.1445 0.0
C740 C 0.92914 0.52822 0.15828 0.0
C741 C 0.99373 0.51911 0.13395 0.0
H742 H 0.99493 0.44407 0.15297 0.0
C743 C 0.08756 0.44711 0.12266 0.0
C744 C 0.09962 0.43527 0.13642 0.0
C745 C 0.06001 0.45766 0.12304 0.0
C746 C 0.99499 0.46503 0.1477 0.0
H747 H 0.89576 0.55783 0.1193 0.0
H748 H 0.94382 0.53836 0.11871 0.0
H749 H 0.95314 0.47404 0.15613 0.0
H750 H 0.09224 0.42305 0.16099 0.0
H751 H 0.04396 0.44185 0.16183 0.0
H752 H 0.03558 0.51034 0.12563 0.0
C753 C 0.93271 0.53935 0.13004 0.0
C754 C 0.97117 0.48226 0.14959 0.0
C755 C 0.90538 0.55071 0.13036 0.0
C756 C 0.083 0.43161 0.15015 0.0
C757 C 0.05547 0.44259 0.15063 0.0
C758 C 0.01758 0.50196 0.13213 0.0
C759 C 0.94426 0.52677 0.14383 0.0
C760 C 0.9703 0.50944 0.14269 0.0
C761 C 0.04435 0.45713 0.13733 0.0
C762 C 0.01841 0.47464 0.13888 0.0
H763 H 0.8896 0.53833 0.16952 0.0
H764 H 0.93772 0.51903 0.16912 0.0
H765 H 0.9937 0.54002 0.12861 0.0
H766 H 0.10025 0.45027 0.11199 0.0
H767 H 0.05171 0.46799 0.11246 0.0
C768 C 0.05023 0.33845 0.30906 0.0
C769 C 0.06191 0.34684 0.32376 0.0
C770 C 0.06128 0.34867 0.29464 0.0
C771 C 0.12435 0.38509 0.27705 0.0
H772 H 0.07222 0.40009 0.2422 0.0
C773 C 0.1559 0.4467 0.21957 0.0
C774 C 0.1468 0.43515 0.20495 0.0
C775 C 0.14625 0.43553 0.2341 0.0
C776 C 0.08708 0.39579 0.25177 0.0
H777 H 0.09428 0.3727 0.33487 0.0
H778 H 0.1132 0.39118 0.30979 0.0
H779 H 0.05415 0.38179 0.26744 0.0
H780 H 0.12017 0.40304 0.19414 0.0
H781 H 0.10316 0.38367 0.21949 0.0
H782 H 0.15716 0.39984 0.26135 0.0
C783 C 0.09592 0.37611 0.30931 0.0
C784 C 0.07675 0.38517 0.26627 0.0
C785 C 0.08505 0.36558 0.32373 0.0
C786 C 0.12778 0.41222 0.20519 0.0
C787 C 0.11785 0.4013 0.21971 0.0
C788 C 0.13462 0.39603 0.26259 0.0
C789 C 0.08411 0.3679 0.29454 0.0
C790 C 0.09523 0.37951 0.27911 0.0
C791 C 0.12697 0.41282 0.23434 0.0
C792 C 0.11612 0.40138 0.24976 0.0
H793 H 0.03269 0.32368 0.30869 0.0
H794 H 0.05198 0.34127 0.28357 0.0
H795 H 0.13935 0.38061 0.28651 0.0
H796 H 0.1707 0.46421 0.21977 0.0
H797 H 0.15353 0.44499 0.24517 0.0
C798 C 0.58941 0.13269 0.20857 0.0
C799 C 0.56531 0.15017 0.20947 0.0
C800 C 0.60217 0.12217 0.22251 0.0
C801 C 0.60801 0.13513 0.2661 0.0
H802 H 0.63037 0.0562 0.2681 0.0
C803 C 0.6402 0.08165 0.3257 0.0
C804 C 0.66209 0.06143 0.32541 0.0
C805 C 0.62917 0.09273 0.31146 0.0
C806 C 0.62464 0.0784 0.26771 0.0
H807 H 0.53625 0.17082 0.22583 0.0
H808 H 0.55829 0.15243 0.25003 0.0
H809 H 0.61042 0.07521 0.24343 0.0
H810 H 0.68988 0.03749 0.30983 0.0
H811 H 0.67099 0.05699 0.28504 0.0
H812 H 0.62234 0.13845 0.29031 0.0
C813 C 0.5674 0.14685 0.23856 0.0
C814 C 0.61316 0.08929 0.25354 0.0
C815 C 0.55455 0.15716 0.22466 0.0
C816 C 0.67276 0.05271 0.3105 0.0
C817 C 0.66185 0.06388 0.29626 0.0
C818 C 0.61963 0.12429 0.28024 0.0
C819 C 0.5913 0.12912 0.23769 0.0
C820 C 0.60452 0.11775 0.25258 0.0
C821 C 0.63984 0.08401 0.29652 0.0
C822 C 0.62796 0.09572 0.2813 0.0
H823 H 0.59813 0.12674 0.19708 0.0
H824 H 0.62069 0.10876 0.2214 0.0
H825 H 0.60199 0.15726 0.26571 0.0
H826 H 0.63112 0.08853 0.33693 0.0
H827 H 0.6119 0.10778 0.31217 0.0
C828 C 0.82938 0.58833 0.21224 0.0
C829 C 0.83918 0.56193 0.20679 0.0
C830 C 0.84034 0.60026 0.22629 0.0
C831 C 0.90297 0.60014 0.25215 0.0
H832 H 0.85217 0.62393 0.28602 0.0
C833 C 0.94498 0.6249 0.31527 0.0
C834 C 0.93165 0.64601 0.32439 0.0
C835 C 0.93342 0.6161 0.3007 0.0
C836 C 0.86674 0.61791 0.27661 0.0
H837 H 0.86869 0.52776 0.21146 0.0
H838 H 0.88817 0.54877 0.2358 0.0
H839 H 0.83271 0.60684 0.26074 0.0
H840 H 0.89594 0.67473 0.32532 0.0
H841 H 0.87613 0.66014 0.29961 0.0
H842 H 0.93703 0.61164 0.26767 0.0
C843 C 0.87181 0.56009 0.22933 0.0
C844 C 0.85551 0.60801 0.26214 0.0
C845 C 0.8605 0.54796 0.21548 0.0
C846 C 0.90651 0.65823 0.31859 0.0
C847 C 0.89513 0.64973 0.30387 0.0
C848 C 0.91421 0.61043 0.26649 0.0
C849 C 0.86174 0.58627 0.23494 0.0
C850 C 0.87353 0.59864 0.24986 0.0
C851 C 0.90842 0.6285 0.2947 0.0
C852 C 0.89629 0.61904 0.27905 0.0
H853 H 0.81291 0.59945 0.20576 0.0
H854 H 0.8323 0.62053 0.23032 0.0
H855 H 0.91736 0.59341 0.24279 0.0
H856 H 0.96409 0.61474 0.31956 0.0
H857 H 0.94396 0.59921 0.29428 0.0
C858 C 0.39549 0.85031 0.20963 0.0
C859 C 0.41906 0.83211 0.21057 0.0
C860 C 0.38236 0.8604 0.22351 0.0
C861 C 0.37513 0.84701 0.26709 0.0
H862 H 0.35308 0.9261 0.26846 0.0
C863 C 0.34293 0.90318 0.32589 0.0
C864 C 0.32052 0.92284 0.32529 0.0
C865 C 0.3539 0.89136 0.31185 0.0
C866 C 0.35875 0.90387 0.26823 0.0
H867 H 0.44666 0.80966 0.22699 0.0
H868 H 0.42409 0.82759 0.25116 0.0
H869 H 0.37382 0.9067 0.24414 0.0
H870 H 0.29175 0.94489 0.30938 0.0
H871 H 0.31083 0.92428 0.2849 0.0
H872 H 0.36021 0.84427 0.29123 0.0
C873 C 0.41563 0.83393 0.23966 0.0
C874 C 0.37066 0.89272 0.25426 0.0
C875 C 0.42879 0.82387 0.22578 0.0
C876 C 0.30926 0.93017 0.31028 0.0
C877 C 0.32023 0.91834 0.29623 0.0
C878 C 0.36321 0.85817 0.28107 0.0
C879 C 0.39239 0.85253 0.23872 0.0
C880 C 0.37909 0.86417 0.25351 0.0
C881 C 0.34278 0.89886 0.29682 0.0
C882 C 0.35495 0.88677 0.28184 0.0
H883 H 0.38752 0.85737 0.19817 0.0
H884 H 0.3643 0.87441 0.22231 0.0
H885 H 0.38098 0.82483 0.26687 0.0
H886 H 0.35253 0.89735 0.33716 0.0
H887 H 0.37156 0.87679 0.31275 0.0
C888 C 0.13668 0.58167 0.82123 0.0
C889 C 0.15725 0.56014 0.82065 0.0
C890 C 0.12575 0.59336 0.80713 0.0
C891 C 0.1184 0.57883 0.76359 0.0
H892 H 0.09997 0.65879 0.76149 0.0
C893 C 0.08603 0.63421 0.70453 0.0
C894 C 0.06282 0.65286 0.70527 0.0
C895 C 0.0981 0.6233 0.71854 0.0
C896 C 0.10479 0.63637 0.76193 0.0
H897 H 0.18287 0.53447 0.80481 0.0
H898 H 0.16427 0.55512 0.78022 0.0
H899 H 0.12025 0.6392 0.78594 0.0
H900 H 0.03448 0.67506 0.72135 0.0
H901 H 0.05548 0.65602 0.74579 0.0
H902 H 0.10316 0.57614 0.7395 0.0
C903 C 0.15604 0.56259 0.79154 0.0
C904 C 0.11638 0.62509 0.77597 0.0
C905 C 0.16681 0.55077 0.80564 0.0
C906 C 0.05217 0.66057 0.72036 0.0
C907 C 0.06438 0.64986 0.73437 0.0
C908 C 0.107 0.59016 0.74952 0.0
C909 C 0.13523 0.58395 0.79208 0.0
C910 C 0.12326 0.59613 0.77702 0.0
C911 C 0.0874 0.63096 0.73363 0.0
C912 C 0.09997 0.61905 0.74853 0.0
H913 H 0.12845 0.58903 0.83257 0.0
H914 H 0.1094 0.60938 0.80806 0.0
H915 H 0.12291 0.55636 0.764 0.0
H916 H 0.09458 0.6276 0.69312 0.0
H917 H 0.11595 0.60898 0.71755 0.0
C918 C 0.41294 0.1331 0.82612 0.0
C919 C 0.42901 0.15822 0.82613 0.0
C920 C 0.40292 0.12155 0.81177 0.0
C921 C 0.38675 0.14023 0.76973 0.0
H922 H 0.39 0.05905 0.76297 0.0
C923 C 0.36208 0.08948 0.70829 0.0
C924 C 0.34704 0.06375 0.70811 0.0
C925 C 0.37191 0.10098 0.72268 0.0
C926 C 0.38858 0.08173 0.76472 0.0
H927 H 0.44684 0.19093 0.81098 0.0
H928 H 0.42968 0.17064 0.78597 0.0
H929 H 0.40736 0.07905 0.78799 0.0
H930 H 0.33019 0.03025 0.72308 0.0
H931 H 0.34712 0.05035 0.74817 0.0
H932 H 0.36787 0.14294 0.7465 0.0
C933 C 0.42465 0.15997 0.79708 0.0
C934 C 0.39858 0.09321 0.77909 0.0
C935 C 0.43477 0.17145 0.81141 0.0
C936 C 0.34202 0.04987 0.72273 0.0
C937 C 0.35179 0.06141 0.73713 0.0
C938 C 0.37669 0.12875 0.75538 0.0
C939 C 0.40859 0.13486 0.79706 0.0
C940 C 0.39783 0.12261 0.78178 0.0
C941 C 0.36691 0.08711 0.73731 0.0
C942 C 0.37749 0.09934 0.75266 0.0
H943 H 0.40835 0.1221 0.83716 0.0
H944 H 0.39042 0.10232 0.81223 0.0
H945 H 0.38543 0.16292 0.77149 0.0
H946 H 0.36678 0.10051 0.69726 0.0
H947 H 0.38389 0.12054 0.7223 0.0
C948 C 0.85136 0.43821 0.81162 0.0
C949 C 0.83826 0.42131 0.82335 0.0
C950 C 0.86208 0.42611 0.79759 0.0
C951 C 0.85684 0.36217 0.77196 0.0
H952 H 0.92824 0.38927 0.75482 0.0
C953 C 0.89869 0.32824 0.70959 0.0
C954 C 0.92795 0.32305 0.70808 0.0
C955 C 0.88755 0.33989 0.72366 0.0
C956 C 0.90837 0.38127 0.75949 0.0
H957 H 0.82595 0.37832 0.82929 0.0
H958 H 0.8451 0.35717 0.80499 0.0
H959 H 0.90958 0.40975 0.77939 0.0
H960 H 0.96837 0.32632 0.72035 0.0
H961 H 0.94895 0.34603 0.74487 0.0
H962 H 0.85593 0.33331 0.7522 0.0
C963 C 0.84685 0.37987 0.80658 0.0
C964 C 0.89749 0.39328 0.7735 0.0
C965 C 0.83615 0.39197 0.82063 0.0
C966 C 0.94573 0.3297 0.72106 0.0
C967 C 0.93461 0.34138 0.73511 0.0
C968 C 0.86772 0.35017 0.75792 0.0
C969 C 0.85999 0.39678 0.79488 0.0
C970 C 0.87157 0.3839 0.77993 0.0
C971 C 0.90539 0.34672 0.73659 0.0
C972 C 0.89366 0.35954 0.75151 0.0
H973 H 0.85365 0.4608 0.8133 0.0
H974 H 0.87177 0.43985 0.78877 0.0
H975 H 0.83669 0.3546 0.77646 0.0
H976 H 0.88431 0.32313 0.69993 0.0
H977 H 0.86498 0.34394 0.7243 0.0
C978 C 0.58844 0.85712 0.82915 0.0
C979 C 0.56672 0.83677 0.82832 0.0
C980 C 0.60011 0.8686 0.81516 0.0
C981 C 0.60947 0.85473 0.77204 0.0
H982 H 0.61866 0.9361 0.76862 0.0
C983 C 0.63436 0.90891 0.71167 0.0
C984 C 0.6518 0.93305 0.71162 0.0
C985 C 0.62526 0.89691 0.72608 0.0
C986 C 0.61671 0.91329 0.76942 0.0
H987 H 0.54077 0.81202 0.81214 0.0
H988 H 0.56115 0.83191 0.78777 0.0
H989 H 0.60109 0.91553 0.79347 0.0
H990 H 0.67388 0.96309 0.72669 0.0
H991 H 0.65859 0.94186 0.75186 0.0
H992 H 0.62534 0.8523 0.74813 0.0
C993 C 0.56913 0.83906 0.79923 0.0
C994 C 0.60654 0.90152 0.78368 0.0
C995 C 0.55726 0.82785 0.81319 0.0
C996 C 0.66018 0.94471 0.72634 0.0
C997 C 0.6513 0.93255 0.74077 0.0
C998 C 0.61988 0.86645 0.75784 0.0
C999 C 0.59057 0.8597 0.80003 0.0
C1000 C 0.60256 0.87212 0.78511 0.0
C1001 C 0.63356 0.90855 0.74086 0.0
C1002 C 0.62342 0.89594 0.75625 0.0
H1003 H 0.59603 0.86458 0.84061 0.0
H1004 H 0.61672 0.88433 0.81618 0.0
H1005 H 0.60702 0.83196 0.77284 0.0
H1006 H 0.62713 0.8997 0.70054 0.0
H1007 H 0.61118 0.87882 0.72559 0.0
C1008 C 0.15646 0.21126 0.38121 0.0
C1009 C 0.13663 0.21627 0.36899 0.0
C1010 C 0.17015 0.18514 0.38238 0.0
C1011 C 0.18463 0.11786 0.36092 0.0
H1012 H 0.18647 0.08668 0.40384 0.0
C1013 C 0.21092 0.00067 0.37267 0.0
C1014 C 0.23152 -0.00422 0.38449 0.0
C1015 C 0.19846 0.02737 0.3711 0.0
C1016 C 0.18626 0.09517 0.39181 0.0
H1017 H 0.1174 0.1986 0.34764 0.0
H1018 H 0.14078 0.15279 0.34989 0.0
H1019 H 0.16922 0.13474 0.39962 0.0
H1020 H 0.25396 0.01448 0.40454 0.0
H1021 H 0.23206 0.06096 0.40184 0.0
H1022 H 0.20142 0.07806 0.35313 0.0
C1023 C 0.14583 0.16905 0.35856 0.0
C1024 C 0.17656 0.12277 0.38938 0.0
C1025 C 0.13222 0.19524 0.35735 0.0
C1026 C 0.2382 0.01761 0.39527 0.0
C1027 C 0.22562 0.04423 0.39376 0.0
C1028 C 0.19423 0.0902 0.36334 0.0
C1029 C 0.16425 0.16341 0.37139 0.0
C1030 C 0.17566 0.13445 0.37391 0.0
C1031 C 0.20619 0.04958 0.3814 0.0
C1032 C 0.19513 0.07859 0.37881 0.0
H1033 H 0.16024 0.22691 0.39044 0.0
H1034 H 0.1847 0.18165 0.3922 0.0
H1035 H 0.1845 0.12633 0.34888 0.0
H1036 H 0.2053 0.98429 0.36418 0.0
H1037 H 0.18318 0.0308 0.36163 0.0
C1038 C 0.9736 0.25411 0.37882 0.0
C1039 C 0.98946 0.2504 0.3929 0.0
C1040 C 0.94615 0.24334 0.37764 0.0
C1041 C 0.88485 0.22569 0.40178 0.0
H1042 H 0.86153 0.17909 0.36595 0.0
C1043 C 0.78439 0.1577 0.40304 0.0
C1044 C 0.77081 0.1504 0.38867 0.0
C1045 C 0.80861 0.17455 0.40293 0.0
C1046 C 0.86741 0.19264 0.37585 0.0
H1047 H 0.98933 0.23222 0.41669 0.0
H1048 H 0.94088 0.21366 0.41471 0.0
H1049 H 0.90978 0.19747 0.36701 0.0
H1050 H 0.77033 0.15713 0.36306 0.0
H1051 H 0.81225 0.18765 0.36287 0.0
H1052 H 0.84255 0.22135 0.41058 0.0
C1053 C 0.94988 0.22487 0.4046 0.0
C1054 C 0.89516 0.2029 0.37651 0.0
C1055 C 0.97759 0.23523 0.40568 0.0
C1056 C 0.78045 0.16238 0.37431 0.0
C1057 C 0.80468 0.17951 0.37419 0.0
C1058 C 0.85698 0.21582 0.40102 0.0
C1059 C 0.93387 0.22907 0.39062 0.0
C1060 C 0.90424 0.21905 0.38963 0.0
C1061 C 0.81968 0.18487 0.38845 0.0
C1062 C 0.84805 0.19866 0.38821 0.0
H1063 H 0.98233 0.2656 0.36874 0.0
H1064 H 0.93422 0.24686 0.36675 0.0
H1065 H 0.89126 0.23858 0.41187 0.0
H1066 H 0.77712 0.14911 0.41433 0.0
H1067 H 0.81955 0.17799 0.41414 0.0
C1068 C 0.8374 0.78035 0.3836 0.0
C1069 C 0.85709 0.77479 0.37138 0.0
C1070 C 0.82354 0.80643 0.38435 0.0
C1071 C 0.80721 0.87158 0.36143 0.0
H1072 H 0.80539 0.90612 0.40352 0.0
C1073 C 0.77751 0.98875 0.37034 0.0
C1074 C 0.75763 0.99426 0.38246 0.0
C1075 C 0.79049 0.96223 0.36925 0.0
C1076 C 0.80555 0.89667 0.39171 0.0
H1077 H 0.87612 0.79147 0.34972 0.0
H1078 H 0.85231 0.8372 0.35119 0.0
H1079 H 0.82398 0.85828 0.4004 0.0
H1080 H 0.73686 0.97678 0.40342 0.0
H1081 H 0.75955 0.93059 0.40151 0.0
H1082 H 0.78891 0.91011 0.35275 0.0
C1083 C 0.84754 0.82139 0.36018 0.0
C1084 C 0.81606 0.86922 0.38993 0.0
C1085 C 0.86138 0.79527 0.35942 0.0
C1086 C 0.75206 0.9732 0.39392 0.0
C1087 C 0.76512 0.94674 0.39286 0.0
C1088 C 0.79674 0.89907 0.36321 0.0
C1089 C 0.82907 0.82753 0.37291 0.0
C1090 C 0.81699 0.85635 0.37477 0.0
C1091 C 0.78397 0.94077 0.3803 0.0
C1092 C 0.79582 0.9119 0.37838 0.0
H1093 H 0.83375 0.76512 0.39306 0.0
H1094 H 0.80901 0.81034 0.39413 0.0
H1095 H 0.80736 0.86214 0.34963 0.0
H1096 H 0.78231 0.00453 0.36134 0.0
H1097 H 0.80532 0.95837 0.3596 0.0
C1098 C 0.01126 0.75498 0.40904 0.0
C1099 C 0.00156 0.73844 0.3962 0.0
C1100 C 0.03871 0.76619 0.40883 0.0
C1101 C 0.09566 0.78795 0.38212 0.0
H1102 H 0.14535 0.77488 0.41831 0.0
C1103 C 0.21014 0.82867 0.38097 0.0
C1104 C 0.21941 0.84211 0.39501 0.0
C1105 C 0.18568 0.81194 0.3811 0.0
C1106 C 0.1317 0.77897 0.40816 0.0
H1107 H 0.01246 0.72136 0.37291 0.0
H1108 H 0.06005 0.74155 0.37242 0.0
H1109 H 0.09704 0.75633 0.41875 0.0
H1110 H 0.21187 0.84629 0.42049 0.0
H1111 H 0.1688 0.81831 0.42062 0.0
H1112 H 0.12959 0.8115 0.37172 0.0
C1113 C 0.0466 0.74557 0.38267 0.0
C1114 C 0.10407 0.76833 0.40844 0.0
C1115 C 0.01943 0.73397 0.38299 0.0
C1116 C 0.20492 0.83675 0.40938 0.0
C1117 C 0.18034 0.82035 0.40949 0.0
C1118 C 0.12312 0.79896 0.38193 0.0
C1119 C 0.05661 0.76147 0.39566 0.0
C1120 C 0.0858 0.77284 0.39545 0.0
C1121 C 0.16987 0.80849 0.39525 0.0
C1122 C 0.14148 0.79474 0.39498 0.0
H1123 H -0.00205 0.75856 0.4194 0.0
H1124 H 0.04595 0.7786 0.41894 0.0
H1125 H 0.08187 0.79184 0.37199 0.0
H1126 H 0.22083 0.83234 0.36969 0.0
H1127 H 0.17865 0.80252 0.36998 0.0
C1128 C 0.22174 0.99156 0.63272 0.0
C1129 C 0.24996 0.99449 0.63781 0.0
C1130 C 0.20782 0.96553 0.63419 0.0
C1131 C 0.21156 0.8977 0.65638 0.0
H1132 H 0.15998 0.87162 0.62344 0.0
C1133 C 0.16094 0.78563 0.65626 0.0
C1134 C 0.13177 0.78482 0.65288 0.0
C1135 C 0.1762 0.81085 0.65437 0.0
C1136 C 0.17421 0.87873 0.63278 0.0
H1137 H 0.28596 0.9722 0.648 0.0
H1138 H 0.26195 0.92691 0.65025 0.0
H1139 H 0.18482 0.9165 0.61998 0.0
H1140 H 0.09587 0.80957 0.6446 0.0
H1141 H 0.12236 0.85339 0.64149 0.0
H1142 H 0.20098 0.85977 0.66912 0.0
C1143 C 0.25028 0.94479 0.64549 0.0
C1144 C 0.18836 0.90447 0.63083 0.0
C1145 C 0.2641 0.97077 0.64411 0.0
C1146 C 0.11824 0.80962 0.64756 0.0
C1147 C 0.13346 0.83464 0.64557 0.0
C1148 C 0.19752 0.87187 0.65829 0.0
C1149 C 0.22191 0.94189 0.64069 0.0
C1150 C 0.20708 0.91435 0.64265 0.0
C1151 C 0.16261 0.83552 0.64888 0.0
C1152 C 0.17855 0.86224 0.64656 0.0
H1153 H 0.21026 0.00947 0.62785 0.0
H1154 H 0.18584 0.96408 0.63053 0.0
H1155 H 0.2255 0.90488 0.66584 0.0
H1156 H 0.1719 0.76685 0.6604 0.0
H1157 H 0.19871 0.81093 0.65694 0.0
C1158 C 0.19282 0.13054 0.67359 0.0
C1159 C 0.21377 0.13549 0.66196 0.0
C1160 C 0.16612 0.14312 0.67226 0.0
C1161 C 0.11878 0.17279 0.64145 0.0
H1162 H 0.0746 0.19821 0.6778 0.0
C1163 C 0.01544 0.23754 0.63607 0.0
C1164 C 0.9935 0.23167 0.64695 0.0
C1165 C 0.04149 0.22372 0.63734 0.0
C1166 C 0.08656 0.19082 0.66756 0.0
H1167 H 0.22354 0.15883 0.64029 0.0
H1168 H 0.17742 0.18157 0.63831 0.0
H1169 H 0.12278 0.18091 0.68192 0.0
H1170 H 0.98113 0.20554 0.66713 0.0
H1171 H 0.0267 0.18133 0.6693 0.0
H1172 H 0.08266 0.1831 0.62707 0.0
C1173 C 0.18137 0.16736 0.64824 0.0
C1174 C 0.11418 0.18099 0.66992 0.0
C1175 C 0.208 0.15468 0.64953 0.0
C1176 C -0.00238 0.21056 0.65857 0.0
C1177 C 0.02377 0.19688 0.65991 0.0
C1178 C 0.09123 0.18275 0.63909 0.0
C1179 C 0.15986 0.16106 0.65931 0.0
C1180 C 0.13065 0.17196 0.65688 0.0
C1181 C 0.04618 0.20387 0.64957 0.0
C1182 C 0.07487 0.19191 0.65211 0.0
H1183 H 0.19672 0.1162 0.68346 0.0
H1184 H 0.15004 0.13779 0.68099 0.0
H1185 H 0.13065 0.1654 0.63118 0.0
H1186 H 0.01288 0.25364 0.62694 0.0
H1187 H 0.0584 0.22962 0.62923 0.0
C1188 C 0.74945 0.02091 0.62419 0.0
C1189 C 0.73409 0.01065 0.63735 0.0
C1190 C 0.76032 0.04849 0.62433 0.0
C1191 C 0.78421 0.10418 0.65119 0.0
H1192 H 0.76958 0.15531 0.61584 0.0
C1193 C 0.82758 0.21745 0.65273 0.0
C1194 C 0.84027 0.22696 0.6385 0.0
C1195 C 0.81016 0.1935 0.65267 0.0
C1196 C 0.7741 0.14125 0.62575 0.0
H1197 H 0.71866 0.02075 0.66111 0.0
H1198 H 0.73818 0.06857 0.66148 0.0
H1199 H 0.75019 0.10734 0.61528 0.0
H1200 H 0.8423 0.22046 0.61285 0.0
H1201 H 0.81318 0.17817 0.61283 0.0
H1202 H 0.80907 0.13726 0.66143 0.0
C1203 C 0.74153 0.05547 0.65101 0.0
C1204 C 0.76296 0.11382 0.62541 0.0
C1205 C 0.73028 0.02817 0.65076 0.0
C1206 C 0.83342 0.21328 0.62408 0.0
C1207 C 0.81634 0.18916 0.62405 0.0
C1208 C 0.7957 0.13141 0.65144 0.0
C1209 C 0.75644 0.06596 0.63776 0.0
C1210 C 0.76804 0.09504 0.63809 0.0
C1211 C 0.80528 0.17838 0.63842 0.0
C1212 C 0.79094 0.15029 0.63869 0.0
H1213 H 0.75253 0.00787 0.61367 0.0
H1214 H 0.77196 0.05609 0.61402 0.0
H1215 H 0.78859 0.08998 0.66106 0.0
H1216 H 0.83238 0.2275 0.66405 0.0
H1217 H 0.80137 0.18625 0.66391 0.0
C1218 C 0.98966 0.78114 0.6322 0.0
C1219 C 0.99178 0.75301 0.63753 0.0
C1220 C 0.96455 0.79642 0.63447 0.0
C1221 C 0.89954 0.79697 0.65921 0.0
H1222 H 0.86966 0.84483 0.62552 0.0
C1223 C 0.78648 0.84424 0.66081 0.0
C1224 C 0.78374 0.87261 0.65597 0.0
C1225 C 0.81226 0.83001 0.65888 0.0
C1226 C 0.8779 0.83176 0.63509 0.0
H1227 H 0.96899 0.71864 0.6491 0.0
H1228 H 0.92542 0.74504 0.65282 0.0
H1229 H 0.91428 0.81975 0.62139 0.0
H1230 H 0.80573 0.90816 0.64514 0.0
H1231 H 0.85066 0.88351 0.64202 0.0
H1232 H 0.86302 0.8088 0.67286 0.0
C1233 C 0.94324 0.75556 0.64721 0.0
C1234 C 0.90347 0.81746 0.63274 0.0
C1235 C 0.96823 0.74038 0.64498 0.0
C1236 C 0.80728 0.88644 0.64922 0.0
C1237 C 0.83292 0.87222 0.64723 0.0
C1238 C 0.87394 0.81121 0.66154 0.0
C1239 C 0.94114 0.7838 0.6421 0.0
C1240 C 0.9145 0.79981 0.64474 0.0
C1241 C 0.83566 0.84383 0.65196 0.0
C1242 C 0.86283 0.8287 0.6495 0.0
H1243 H 0.00745 0.79146 0.62645 0.0
H1244 H 0.96363 0.81824 0.6305 0.0
H1245 H 0.90773 0.7839 0.66879 0.0
H1246 H 0.76876 0.83309 0.66611 0.0
H1247 H 0.81372 0.80804 0.66252 0.0
C1248 C 0.67151 0.71396 0.8863 0.0
C1249 C 0.6528 0.71862 0.87348 0.0
C1250 C 0.68831 0.6896 0.88677 0.0
C1251 C 0.71204 0.62735 0.8628 0.0
H1252 H 0.70943 0.58888 0.90379 0.0
C1253 C 0.73109 0.50774 0.8689 0.0
C1254 C 0.7497 0.4989 0.88103 0.0
C1255 C 0.72156 0.5357 0.86832 0.0
C1256 C 0.71062 0.5995 0.89232 0.0
H1257 H 0.63898 0.70276 0.85044 0.0
H1258 H 0.66761 0.66 0.85143 0.0
H1259 H 0.69124 0.63702 0.9015 0.0
H1260 H 0.77199 0.51217 0.90246 0.0
H1261 H 0.75495 0.56103 0.90154 0.0
H1262 H 0.73053 0.58931 0.85356 0.0
C1263 C 0.66951 0.67512 0.86111 0.0
C1264 C 0.70037 0.62716 0.89101 0.0
C1265 C 0.65285 0.69952 0.8606 0.0
C1266 C 0.75768 0.51834 0.89295 0.0
C1267 C 0.74793 0.54629 0.89244 0.0
C1268 C 0.72208 0.59962 0.8641 0.0
C1269 C 0.68668 0.66937 0.87447 0.0
C1270 C 0.70057 0.64127 0.87618 0.0
C1271 C 0.73024 0.55536 0.87993 0.0
C1272 C 0.72106 0.58528 0.87882 0.0
H1273 H 0.67191 0.72819 0.89645 0.0
H1274 H 0.70176 0.68609 0.89708 0.0
H1275 H 0.71296 0.63774 0.85127 0.0
H1276 H 0.72451 0.49332 0.85953 0.0
H1277 H 0.70752 0.54202 0.8587 0.0
C1278 C 0.48166 0.73403 0.87995 0.0
C1279 C 0.49711 0.73112 0.89423 0.0
C1280 C 0.45494 0.72167 0.87838 0.0
C1281 C 0.39413 0.70139 0.90224 0.0
H1282 H 0.37147 0.65675 0.86549 0.0
C1283 C 0.29138 0.63638 0.90134 0.0
C1284 C 0.27735 0.63168 0.88675 0.0
C1285 C 0.31693 0.65115 0.90177 0.0
C1286 C 0.37723 0.66966 0.87568 0.0
H1287 H 0.49716 0.71235 0.91789 0.0
H1288 H 0.45011 0.69096 0.9152 0.0
H1289 H 0.41965 0.67538 0.86705 0.0
H1290 H 0.27819 0.64041 0.86131 0.0
H1291 H 0.32243 0.66727 0.86214 0.0
H1292 H 0.35177 0.69633 0.91079 0.0
C1293 C 0.4588 0.70282 0.90525 0.0
C1294 C 0.4049 0.68009 0.87661 0.0
C1295 C 0.48576 0.71482 0.90673 0.0
C1296 C 0.28851 0.64369 0.87273 0.0
C1297 C 0.31406 0.65873 0.87318 0.0
C1298 C 0.36637 0.69133 0.90121 0.0
C1299 C 0.44301 0.70653 0.89115 0.0
C1300 C 0.41368 0.6957 0.89001 0.0
C1301 C 0.32896 0.66197 0.88766 0.0
C1302 C 0.35767 0.67497 0.88803 0.0
H1303 H 0.48998 0.74639 0.87009 0.0
H1304 H 0.44315 0.72487 0.86741 0.0
H1305 H 0.40026 0.71388 0.91254 0.0
H1306 H 0.28304 0.62786 0.91241 0.0
H1307 H 0.32781 0.65299 0.91313 0.0
C1308 C 0.33398 0.27323 0.87416 0.0
C1309 C 0.33744 0.25939 0.88888 0.0
C1310 C 0.31835 0.2983 0.87324 0.0
C1311 C 0.29618 0.35728 0.89951 0.0
H1312 H 0.25705 0.38288 0.86138 0.0
C1313 C 0.23503 0.46342 0.89517 0.0
C1314 C 0.24079 0.47991 0.88156 0.0
C1315 C 0.24563 0.43589 0.89642 0.0
C1316 C 0.26804 0.37598 0.87207 0.0
H1317 H 0.32561 0.25937 0.91388 0.0
H1318 H 0.29716 0.30245 0.9122 0.0
H1319 H 0.27452 0.33426 0.8628 0.0
H1320 H 0.26245 0.48068 0.85868 0.0
H1321 H 0.28075 0.43239 0.86082 0.0
H1322 H 0.28927 0.39899 0.9088 0.0
C1323 C 0.30734 0.29466 0.90146 0.0
C1324 C 0.27808 0.34817 0.8729 0.0
C1325 C 0.32335 0.26985 0.90242 0.0
C1326 C 0.25779 0.46854 0.86935 0.0
C1327 C 0.26803 0.44085 0.8705 0.0
C1328 C 0.28579 0.38493 0.89876 0.0
C1329 C 0.30557 0.30982 0.887 0.0
C1330 C 0.2926 0.33855 0.88656 0.0
C1331 C 0.26182 0.42421 0.88397 0.0
C1332 C 0.27196 0.39463 0.88496 0.0
H1333 H 0.34496 0.26572 0.8636 0.0
H1334 H 0.31773 0.30945 0.86194 0.0
H1335 H 0.30779 0.35093 0.91009 0.0
H1336 H 0.22199 0.47165 0.90477 0.0
H1337 H 0.24052 0.42345 0.90692 0.0
C1338 C 0.69816 0.33795 0.89636 0.0
C1339 C 0.70858 0.35089 0.88246 0.0
C1340 C 0.67143 0.32538 0.89641 0.0
C1341 C 0.61231 0.3014 0.87029 0.0
H1342 H 0.56801 0.31437 0.90871 0.0
C1343 C 0.49362 0.27315 0.87425 0.0
C1344 C 0.48695 0.25534 0.88718 0.0
C1345 C 0.5197 0.28717 0.87373 0.0
C1346 C 0.58017 0.31059 0.89793 0.0
H1347 H 0.70007 0.36014 0.85759 0.0
H1348 H 0.65288 0.33867 0.85767 0.0
H1349 H 0.61645 0.33205 0.90718 0.0
H1350 H 0.50137 0.23966 0.91015 0.0
H1351 H 0.54664 0.26467 0.9094 0.0
H1352 H 0.57562 0.28028 0.86102 0.0
C1353 C 0.66549 0.33768 0.86847 0.0
C1354 C 0.608 0.32047 0.89707 0.0
C1355 C 0.69248 0.34994 0.86838 0.0
C1356 C 0.506 0.25323 0.90003 0.0
C1357 C 0.53186 0.26756 0.89962 0.0
C1358 C 0.58432 0.2918 0.87109 0.0
C1359 C 0.65434 0.32595 0.88262 0.0
C1360 C 0.62456 0.31569 0.88332 0.0
C1361 C 0.53929 0.28397 0.88625 0.0
C1362 C 0.56812 0.29607 0.88498 0.0
H1363 H 0.71036 0.33844 0.90733 0.0
H1364 H 0.66388 0.31583 0.90739 0.0
H1365 H 0.62449 0.2971 0.85959 0.0
H1366 H 0.47941 0.27506 0.86413 0.0
H1367 H 0.52486 0.29995 0.86337 0.0
C1368 C 0.67042 0.26839 0.14877 0.0
C1369 C 0.65444 0.26318 0.16266 0.0
C1370 C 0.68761 0.29239 0.14767 0.0
C1371 C 0.71688 0.35326 0.17091 0.0
H1372 H 0.70649 0.39332 0.13081 0.0
C1373 C 0.73452 0.47317 0.16478 0.0
C1374 C 0.75092 0.48232 0.15174 0.0
C1375 C 0.72532 0.44514 0.16572 0.0
C1376 C 0.70986 0.38224 0.142 0.0
H1377 H 0.64627 0.27755 0.18685 0.0
H1378 H 0.67531 0.31987 0.18476 0.0
H1379 H 0.6884 0.34529 0.13366 0.0
H1380 H 0.76964 0.46954 0.12916 0.0
H1381 H 0.75302 0.42056 0.13071 0.0
H1382 H 0.73733 0.39088 0.17939 0.0
C1383 C 0.6748 0.30541 0.17471 0.0
C1384 C 0.69967 0.35463 0.14363 0.0
C1385 C 0.65784 0.28126 0.17587 0.0
C1386 C 0.75703 0.46311 0.13936 0.0
C1387 C 0.74755 0.43511 0.14023 0.0
C1388 C 0.7268 0.38099 0.16932 0.0
C1389 C 0.68901 0.31183 0.16038 0.0
C1390 C 0.70271 0.33992 0.15818 0.0
C1391 C 0.73206 0.42576 0.15357 0.0
C1392 C 0.72301 0.39585 0.15493 0.0
H1393 H 0.66827 0.25502 0.13832 0.0
H1394 H 0.69883 0.29634 0.1366 0.0
H1395 H 0.71999 0.34242 0.18219 0.0
H1396 H 0.72949 0.48741 0.17453 0.0
H1397 H 0.713 0.43857 0.17601 0.0
C1398 C 0.50861 0.73117 0.12519 0.0
C1399 C 0.49867 0.74696 0.13826 0.0
C1400 C 0.53517 0.71802 0.1259 0.0
C1401 C 0.58923 0.69191 0.15384 0.0
H1402 H 0.64149 0.70412 0.11872 0.0
C1403 C 0.70406 0.65146 0.15713 0.0
C1404 C 0.71378 0.63748 0.14337 0.0
C1405 C 0.67927 0.66769 0.15657 0.0
C1406 C 0.62709 0.70032 0.12858 0.0
H1407 H 0.50797 0.76043 0.1625 0.0
H1408 H 0.554 0.73726 0.16377 0.0
H1409 H 0.59381 0.72406 0.11742 0.0
H1410 H 0.70659 0.63135 0.11799 0.0
H1411 H 0.66316 0.65884 0.11709 0.0
H1412 H 0.62208 0.66766 0.16488 0.0
C1413 C 0.54147 0.73515 0.15298 0.0
C1414 C 0.59978 0.71167 0.12779 0.0
C1415 C 0.51519 0.74852 0.15221 0.0
C1416 C 0.69929 0.64146 0.12886 0.0
C1417 C 0.67454 0.65752 0.12831 0.0
C1418 C 0.61642 0.68034 0.15457 0.0
C1419 C 0.55192 0.72015 0.13976 0.0
C1420 C 0.58059 0.7075 0.1404 0.0
C1421 C 0.66381 0.67023 0.14223 0.0
C1422 C 0.63566 0.68431 0.14192 0.0
H1423 H 0.49633 0.72977 0.11427 0.0
H1424 H 0.5427 0.70634 0.11559 0.0
H1425 H 0.57475 0.68824 0.16368 0.0
H1426 H 0.71485 0.64878 0.16847 0.0
H1427 H 0.67184 0.67769 0.16744 0.0
C1428 C 0.26821 0.50726 0.12714 0.0
C1429 C 0.24013 0.504 0.13241 0.0
C1430 C 0.28134 0.53381 0.12774 0.0
C1431 C 0.27569 0.60321 0.14806 0.0
H1432 H 0.32747 0.62776 0.11483 0.0
C1433 C 0.32632 0.71486 0.1475 0.0
C1434 C 0.35575 0.7151 0.14498 0.0
C1435 C 0.31075 0.69002 0.14498 0.0
C1436 C 0.3131 0.62112 0.12422 0.0
H1437 H 0.20348 0.52619 0.14191 0.0
H1438 H 0.22611 0.57232 0.14263 0.0
H1439 H 0.30329 0.58227 0.11225 0.0
H1440 H 0.3918 0.69007 0.13725 0.0
H1441 H 0.36472 0.64686 0.13293 0.0
H1442 H 0.28557 0.64206 0.16002 0.0
C1443 C 0.23829 0.55436 0.13843 0.0
C1444 C 0.29936 0.59503 0.12278 0.0
C1445 C 0.22528 0.52788 0.13794 0.0
C1446 C 0.36918 0.69036 0.13951 0.0
C1447 C 0.35364 0.66571 0.13686 0.0
C1448 C 0.2893 0.62935 0.14945 0.0
C1449 C 0.26657 0.55762 0.13351 0.0
C1450 C 0.28067 0.58567 0.13475 0.0
C1451 C 0.32432 0.66519 0.13968 0.0
C1452 C 0.30834 0.63844 0.13762 0.0
H1453 H 0.28021 0.48925 0.12284 0.0
H1454 H 0.30326 0.53554 0.12402 0.0
H1455 H 0.26179 0.59646 0.15764 0.0
H1456 H 0.31549 0.73365 0.15172 0.0
H1457 H 0.28811 0.69022 0.14715 0.0
C1458 C 0.29899 0.37036 0.17297 0.0
C1459 C 0.2793 0.36454 0.16077 0.0
C1460 C 0.32577 0.35774 0.17283 0.0
C1461 C 0.37744 0.31908 0.17317 0.0
H1462 H 0.41346 0.31377 0.13158 0.0
C1463 C 0.47847 0.25396 0.16183 0.0
C1464 C 0.49825 0.26376 0.15053 0.0
C1465 C 0.45305 0.26834 0.16429 0.0
C1466 C 0.40388 0.31547 0.14331 0.0
H1467 H 0.27183 0.33977 0.13933 0.0
H1468 H 0.31814 0.31706 0.1394 0.0
H1469 H 0.3658 0.33311 0.13369 0.0
H1470 H 0.50744 0.29718 0.13351 0.0
H1471 H 0.463 0.32262 0.13797 0.0
H1472 H 0.41577 0.30184 0.1828 0.0
C1473 C 0.31312 0.33192 0.14886 0.0
C1474 C 0.37636 0.3261 0.14449 0.0
C1475 C 0.28639 0.34459 0.14897 0.0
C1476 C 0.4926 0.28903 0.14225 0.0
C1477 C 0.46706 0.30347 0.14472 0.0
C1478 C 0.40501 0.30849 0.17199 0.0
C1479 C 0.33338 0.33895 0.16053 0.0
C1480 C 0.36271 0.32777 0.15941 0.0
C1481 C 0.44678 0.29293 0.15554 0.0
C1482 C 0.41844 0.30632 0.15702 0.0
H1483 H 0.29402 0.38533 0.18237 0.0
H1484 H 0.34088 0.36362 0.182 0.0
H1485 H 0.36748 0.32001 0.18483 0.0
H1486 H 0.48219 0.23465 0.1685 0.0
H1487 H 0.43781 0.25947 0.17259 0.0
C1488 C 0.05802 0.28293 0.46263 0.0
C1489 C 0.04733 0.30121 0.4508 0.0
C1490 C 0.0479 0.28416 0.47833 0.0
C1491 C 0.98799 0.31067 0.50296 0.0
H1492 H 0.04155 0.30242 0.53787 0.0
C1493 C 0.95714 0.33697 0.56767 0.0
C1494 C 0.96508 0.31777 0.57974 0.0
C1495 C 0.96811 0.33464 0.55224 0.0
C1496 C 0.02629 0.30447 0.52826 0.0
H1497 H 0.01738 0.335 0.4462 0.0
H1498 H -0.0002 0.33742 0.47364 0.0
H1499 H 0.05812 0.29897 0.51028 0.0
H1500 H 0.99178 0.28167 0.58511 0.0
H1501 H 0.01128 0.27767 0.558 0.0
H1502 H 0.95624 0.3165 0.52093 0.0
C1503 C 0.01578 0.32178 0.47074 0.0
C1504 C 0.03575 0.30246 0.51242 0.0
C1505 C 0.02583 0.32043 0.45498 0.0
C1506 C 0.98531 0.29685 0.57612 0.0
C1507 C -0.00358 0.29454 0.56059 0.0
C1508 C 0.97857 0.31281 0.51877 0.0
C1509 C 0.02685 0.3038 0.48266 0.0
C1510 C 0.01673 0.30563 0.49955 0.0
C1511 C 0.98747 0.3131 0.5484 0.0
C1512 C -0.00238 0.3099 0.53162 0.0
H1513 H 0.07419 0.2675 0.45975 0.0
H1514 H 0.05649 0.26954 0.48705 0.0
H1515 H 0.97262 0.31267 0.4934 0.0
H1516 H 0.9422 0.35381 0.57012 0.0
H1517 H 0.96133 0.34975 0.54327 0.0
C1518 C 0.68938 0.97816 0.57993 0.0
C1519 C 0.67698 0.95159 0.58292 0.0
C1520 C 0.69108 0.98877 0.5643 0.0
C1521 C 0.69061 0.965 0.52211 0.0
H1522 H 0.67477 0.04377 0.5127 0.0
C1523 C 0.67997 0.00794 0.45722 0.0
C1524 C 0.68965 0.03557 0.45424 0.0
C1525 C 0.67961 -0.00284 0.47285 0.0
C1526 C 0.67968 0.02178 0.51512 0.0
H1527 H 0.65533 0.91611 0.57181 0.0
H1528 H 0.65843 0.93446 0.54473 0.0
H1529 H 0.67153 0.02685 0.54016 0.0
H1530 H 0.70823 0.07284 0.4651 0.0
H1531 H 0.70821 0.05401 0.49218 0.0
H1532 H 0.69891 0.95992 0.49709 0.0
C1533 C 0.66742 0.94684 0.55439 0.0
C1534 C 0.67776 0.01209 0.53089 0.0
C1535 C 0.66564 0.93632 0.56996 0.0
C1536 C 0.70011 0.05168 0.46708 0.0
C1537 C 0.69996 0.04091 0.48262 0.0
C1538 C 0.69266 0.97471 0.50633 0.0
C1539 C 0.68046 0.97302 0.55131 0.0
C1540 C 0.68309 0.98356 0.53458 0.0
C1541 C 0.68915 0.01374 0.4858 0.0
C1542 C 0.68719 0.00324 0.50261 0.0
H1543 H 0.69854 0.99035 0.5896 0.0
H1544 H 0.70141 0.00896 0.56232 0.0
H1545 H 0.69526 0.94296 0.52457 0.0
H1546 H 0.67159 0.99514 0.44757 0.0
H1547 H 0.67095 0.97621 0.47484 0.0
C1548 C 0.01053 0.68561 0.57622 0.0
C1549 C 0.03839 0.69541 0.57849 0.0
C1550 C -0.0015 0.68511 0.5609 0.0
C1551 C 0.01922 0.68391 0.51818 0.0
H1552 H 0.94055 0.70344 0.51063 0.0
C1553 C 0.97233 0.69428 0.45439 0.0
C1554 C 0.94472 0.68394 0.45194 0.0
C1555 C 0.98375 0.69581 0.46983 0.0
C1556 C 0.96249 0.69761 0.51256 0.0
H1557 H 0.07479 0.71382 0.56656 0.0
H1558 H 0.05388 0.71309 0.53997 0.0
H1559 H 0.95985 0.7064 0.53765 0.0
H1560 H 0.90789 0.66619 0.46381 0.0
H1561 H 0.92775 0.66875 0.49061 0.0
H1562 H 0.02188 0.67503 0.49312 0.0
C1563 C 0.04154 0.7051 0.54992 0.0
C1564 C 0.97355 0.69932 0.52806 0.0
C1565 C 0.05352 0.70557 0.56519 0.0
C1566 C 0.929 0.67478 0.46527 0.0
C1567 C 0.94039 0.67628 0.48067 0.0
C1568 C 0.00817 0.68218 0.50269 0.0
C1569 C 0.01405 0.69444 0.54752 0.0
C1570 C 0.00208 0.69254 0.53106 0.0
C1571 C 0.96783 0.687 0.48318 0.0
C1572 C 0.97967 0.68901 0.49967 0.0
H1573 H -0.00161 0.67742 0.58618 0.0
H1574 H 0.97734 0.67657 0.55946 0.0
H1575 H 0.04116 0.67803 0.52009 0.0
H1576 H 0.98487 0.70183 0.44442 0.0
H1577 H 0.00483 0.70448 0.47134 0.0
C1578 C 0.3114 0.06912 0.56772 0.0
C1579 C 0.30417 0.05215 0.58096 0.0
C1580 C 0.31067 0.05816 0.55222 0.0
C1581 C 0.31303 0.99126 0.52962 0.0
H1582 H 0.28192 0.03665 0.49514 0.0
C1583 C 0.29769 0.94457 0.46684 0.0
C1584 C 0.30497 0.96147 0.45362 0.0
C1585 C 0.29596 0.95619 0.48214 0.0
C1586 C 0.29097 0.02383 0.50458 0.0
H1587 H 0.29054 0.01016 0.5881 0.0
H1588 H 0.28954 0.99091 0.56099 0.0
H1589 H 0.28235 0.05535 0.52236 0.0
H1590 H 0.31521 0.00406 0.44602 0.0
H1591 H 0.31256 0.02455 0.47291 0.0
H1592 H 0.32202 0.95989 0.51191 0.0
C1593 C 0.29592 0.01274 0.5627 0.0
C1594 C 0.29117 0.03452 0.5202 0.0
C1595 C 0.29654 0.02375 0.57825 0.0
C1596 C 0.30944 0.99058 0.45598 0.0
C1597 C 0.3079 0.00226 0.47138 0.0
C1598 C 0.31293 0.98062 0.51402 0.0
C1599 C 0.30284 0.02988 0.54948 0.0
C1600 C 0.3022 0.01835 0.53291 0.0
C1601 C 0.30165 0.98505 0.48471 0.0
C1602 C 0.30182 -0.00329 0.50129 0.0
H1603 H 0.31798 0.09088 0.5693 0.0
H1604 H 0.31668 0.07179 0.54236 0.0
H1605 H 0.32212 0.97846 0.53906 0.0
H1606 H 0.29348 0.92219 0.46535 0.0
H1607 H 0.2903 0.94243 0.492 0.0
C1608 C 0.52781 0.81479 0.95899 0.0
C1609 C 0.54589 0.79216 0.95506 0.0
C1610 C 0.51772 0.8181 0.97464 0.0
C1611 C 0.53321 0.79722 0.01657 0.0
H1612 H 0.45562 0.82066 0.02407 0.0
C1613 C 0.48038 0.79691 0.07958 0.0
C1614 C 0.46143 0.81908 0.08296 0.0
C1615 C 0.49204 0.794 0.06423 0.0
C1616 C 0.47747 0.81443 0.02221 0.0
H1617 H 0.56658 0.75465 0.96449 0.0
H1618 H 0.54904 0.76037 0.99163 0.0
H1619 H 0.47253 0.81484 0.99677 0.0
H1620 H 0.44149 0.85669 0.07321 0.0
H1621 H 0.46186 0.85182 0.04667 0.0
H1622 H 0.53808 0.79677 0.04206 0.0
C1623 C 0.54314 0.77596 0.98272 0.0
C1624 C 0.48717 0.8111 1.00652 0.0
C1625 C 0.55319 0.77267 0.96712 0.0
C1626 C 0.45546 0.83897 0.0709 0.0
C1627 C 0.4671 0.83613 0.05565 0.0
C1628 C 0.52351 0.80057 0.03228 0.0
C1629 C 0.52545 0.79882 0.98674 0.0
C1630 C 0.51517 0.80248 1.00348 0.0
C1631 C 0.48503 0.81328 0.05198 0.0
C1632 C 0.49553 0.80932 0.0353 0.0
H1633 H 0.522 0.83035 0.95007 0.0
H1634 H 0.50436 0.83613 0.97733 0.0
H1635 H 0.55504 0.79093 1.01467 0.0
H1636 H 0.48525 0.7812 0.08861 0.0
H1637 H 0.50571 0.77608 0.06181 0.0
C1638 C 0.19256 0.47202 0.07424 0.0
C1639 C 0.18455 0.44388 0.07738 0.0
C1640 C 0.19209 0.48267 0.0586 0.0
C1641 C 0.1922 0.45954 1.01618 0.0
H1642 H 0.16517 0.53572 1.0081 0.0
C1643 C 0.17202 0.50336 0.95213 0.0
C1644 C 0.17919 0.53184 0.94935 0.0
C1645 C 0.17333 0.49202 0.96762 0.0
C1646 C 0.17311 0.5145 1.01014 0.0
H1647 H 0.16884 0.40522 0.06648 0.0
H1648 H 0.16802 0.42371 0.03937 0.0
H1649 H 0.1661 0.51766 0.03537 0.0
H1650 H 0.19494 0.57018 0.96052 0.0
H1651 H 0.19736 0.55053 0.98733 0.0
H1652 H 0.19918 0.45641 0.99091 0.0
C1653 C 0.17526 0.43741 0.04892 0.0
C1654 C 0.17365 0.50415 0.02581 0.0
C1655 C 0.17574 0.4268 0.06452 0.0
C1656 C 0.18857 0.54839 0.96229 0.0
C1657 C 0.18994 0.5371 0.97769 0.0
C1658 C 0.19168 0.4699 1.00049 0.0
C1659 C 0.18356 0.46543 0.04573 0.0
C1660 C 0.18321 0.47654 0.02904 0.0
C1661 C 0.18194 0.50891 0.98064 0.0
C1662 C 0.18219 0.49755 0.99728 0.0
H1663 H 0.19976 0.48566 0.08382 0.0
H1664 H 0.19892 0.50427 0.05656 0.0
H1665 H 0.20007 0.4383 0.01825 0.0
H1666 H 0.16457 0.49011 0.94244 0.0
H1667 H 0.16685 0.47026 0.96947 0.0
C1668 C 0.54659 0.22155 0.07152 0.0
C1669 C 0.54037 0.20133 0.08339 0.0
C1670 C 0.53707 0.21797 0.05581 0.0
C1671 C 0.48332 0.18072 0.03161 0.0
H1672 H 0.53395 0.19743 0.99629 0.0
C1673 C 0.45287 0.15297 0.96694 0.0
C1674 C 0.45917 0.1727 0.95486 0.0
C1675 C 0.46397 0.1561 0.98232 0.0
C1676 C 0.51942 0.19299 1.00599 0.0
H1677 H 0.51906 0.16139 0.08786 0.0
H1678 H 0.50221 0.1553 0.06049 0.0
H1679 H 0.5504 0.20365 0.02375 0.0
H1680 H 0.48275 0.21081 0.94935 0.0
H1681 H 0.50204 0.21657 0.97636 0.0
H1682 H 0.45224 0.17034 1.01395 0.0
C1683 C 0.51435 0.17407 0.06342 0.0
C1684 C 0.52886 0.19651 0.02175 0.0
C1685 C 0.52398 0.17759 0.07914 0.0
C1686 C 0.47766 0.19519 0.95839 0.0
C1687 C 0.48869 0.19845 0.97387 0.0
C1688 C 0.47385 0.1773 1.01588 0.0
C1689 C 0.52093 0.19415 0.05154 0.0
C1690 C 0.51094 0.19036 0.03476 0.0
C1691 C 0.48158 0.17917 0.9861 0.0
C1692 C 0.49179 0.18325 1.00285 0.0
H1693 H 0.55865 0.24038 0.07434 0.0
H1694 H 0.54208 0.23411 0.04705 0.0
H1695 H 0.46879 0.17626 0.04132 0.0
H1696 H 0.43922 0.13506 0.96452 0.0
H1697 H 0.45864 0.1404 0.99126 0.0
C1698 C 0.79926 0.47109 0.95451 0.0
C1699 C 0.81211 0.44467 0.95172 0.0
C1700 C 0.79822 0.48245 0.96999 0.0
C1701 C 0.80228 0.46104 1.01255 0.0
H1702 H 0.81651 0.54074 0.02014 0.0
C1703 C 0.81671 0.50776 0.07626 0.0
C1704 C 0.80571 0.53495 0.07912 0.0
C1705 C 0.81653 0.49633 0.06078 0.0
C1706 C 0.8121 0.51848 0.01823 0.0
H1707 H 0.83514 0.41022 0.96299 0.0
H1708 H 0.83322 0.42987 0.98979 0.0
H1709 H 0.81817 0.52232 0.99293 0.0
H1710 H 0.78445 0.57073 0.06816 0.0
H1711 H 0.78382 0.55081 0.04135 0.0
H1712 H 0.79615 0.45718 0.03783 0.0
C1713 C 0.82336 0.44154 0.98012 0.0
C1714 C 0.81308 0.50794 1.00261 0.0
C1715 C 0.82445 0.43027 0.96471 0.0
C1716 C 0.79366 0.55 0.06629 0.0
C1717 C 0.79337 0.53858 0.0509 0.0
C1718 C 0.80122 0.47159 0.02817 0.0
C1719 C 0.80998 0.46762 0.98301 0.0
C1720 C 0.8083 0.47906 0.99958 0.0
C1721 C 0.8052 0.5118 0.04786 0.0
C1722 C 0.80616 0.50045 0.03123 0.0
H1723 H 0.78937 0.48264 0.94482 0.0
H1724 H 0.78759 0.50252 0.97182 0.0
H1725 H 0.79806 0.43875 1.01061 0.0
H1726 H 0.82632 0.49574 0.08586 0.0
H1727 H 0.82604 0.47573 0.05887 0.0
loop_
_geom_bond_atom_site_label_1
_geom_bond_atom_site_label_2
_geom_bond_distance
_geom_bond_site_symmetry_2
_ccdc_geom_bond_type
Co0 N4 2.148 . S
Co0 N10 2.128 . S
Co0 N20 2.194 . S
Co0 O25 2.351 . S
Co0 O26 2.155 . S
Co0 O27 2.096 1_455 S
C1 N4 1.301 . S
C1 N5 1.328 . S
C1 H6 0.930 . S
C2 C3 1.333 . S
C2 N4 1.317 . S
C2 H7 0.931 . S
C3 C2 1.333 . S
C3 N5 1.350 . S
C3 H29 0.931 . S
N4 Co0 2.148 . S
N4 C1 1.301 . S
N4 C2 1.317 . S
N5 C1 1.328 . S
N5 C3 1.350 . S
H6 C1 0.930 . S
H7 C2 0.931 . S
C8 O9 1.224 1_655 S
C8 O27 1.247 . S
O9 C8 1.224 1_455 S
N10 Co0 2.128 . S
N10 C11 1.355 . S
N10 C13 1.311 . S
C11 N10 1.355 . S
C11 C12 1.363 . S
C11 H23 0.929 . S
C12 C11 1.363 . S
C12 N14 1.375 . S
C12 H30 0.931 . S
C13 N10 1.311 . S
C13 N14 1.347 . S
C13 H24 0.929 1_455 S
N14 C12 1.375 . S
N14 C13 1.347 . S
C15 C18 1.365 . S
C15 N20 1.328 . S
C15 H21 0.929 . S
C16 C17 1.362 . S
C16 C19 1.378 . S
C16 H31 0.929 . S
C17 C16 1.362 . S
C17 C18 1.366 . S
C18 C15 1.365 . S
C18 C17 1.366 . S
C18 H32 0.930 . S
C19 C16 1.378 . S
C19 N20 1.315 . S
C19 H22 0.930 . S
N20 Co0 2.194 . S
N20 C15 1.328 . S
N20 C19 1.315 . S
H21 C15 0.929 . S
H22 C19 0.930 . S
H23 C11 0.929 . S
H24 C13 0.929 1_655 S
O25 Co0 2.351 . S
O25 C28 1.244 . S
O26 Co0 2.155 . S
O26 C28 1.240 . S
O27 Co0 2.096 1_655 S
O27 C8 1.247 . S
C28 O25 1.244 . S
C28 O26 1.240 . S
H29 C3 0.931 . S
H30 C12 0.931 . S
H31 C16 0.929 . S
H32 C18 0.930 . S
Co33 N37 2.148 . S
Co33 N43 2.128 . S
Co33 N53 2.194 . S
Co33 O58 2.351 . S
Co33 O59 2.155 . S
Co33 O60 2.096 1_545 S
C34 N37 1.301 . S
C34 N38 1.328 . S
C34 H39 0.930 . S
C35 C36 1.333 . S
C35 N37 1.317 . S
C35 H40 0.931 . S
C36 C35 1.333 . S
C36 N38 1.350 . S
C36 H62 0.931 . S
N37 Co33 2.148 . S
N37 C34 1.301 . S
N37 C35 1.317 . S
N38 C34 1.328 . S
N38 C36 1.350 . S
H39 C34 0.930 . S
H40 C35 0.931 . S
C41 O42 1.224 1_565 S
C41 O60 1.247 . S
O42 C41 1.224 1_545 S
N43 Co33 2.128 . S
N43 C44 1.355 . S
N43 C46 1.311 . S
C44 N43 1.355 . S
C44 C45 1.363 . S
C44 H56 0.929 . S
C45 C44 1.363 . S
C45 N47 1.375 . S
C45 H63 0.931 . S
C46 N43 1.311 . S
C46 N47 1.347 . S
C46 H57 0.929 1_545 S
N47 C45 1.375 . S
N47 C46 1.347 . S
C48 C51 1.365 . S
C48 N53 1.328 . S
C48 H54 0.929 . S
C49 C50 1.362 . S
C49 C52 1.378 . S
C49 H64 0.929 . S
C50 C49 1.362 . S
C50 C51 1.366 . S
C51 C48 1.365 . S
C51 C50 1.366 . S
C51 H65 0.930 . S
C52 C49 1.378 . S
C52 N53 1.315 . S
C52 H55 0.930 . S
N53 Co33 2.194 . S
N53 C48 1.328 . S
N53 C52 1.315 . S
H54 C48 0.929 . S
H55 C52 0.930 . S
H56 C44 0.929 . S
H57 C46 0.929 1_565 S
O58 Co33 2.351 . S
O58 C61 1.244 . S
O59 Co33 2.155 . S
O59 C61 1.240 . S
O60 Co33 2.096 1_565 S
O60 C41 1.247 . S
C61 O58 1.244 . S
C61 O59 1.240 . S
H62 C36 0.931 . S
H63 C45 0.931 . S
H64 C49 0.929 . S
H65 C51 0.930 . S
Co66 N70 2.148 . S
Co66 N76 2.128 . S
Co66 N86 2.194 . S
Co66 O91 2.351 . S
Co66 O92 2.155 . S
Co66 O93 2.096 1_655 S
C67 N70 1.301 . S
C67 N71 1.328 . S
C67 H72 0.930 . S
C68 C69 1.333 . S
C68 N70 1.317 . S
C68 H73 0.931 . S
C69 C68 1.333 . S
C69 N71 1.350 . S
C69 H95 0.931 . S
N70 Co66 2.148 . S
N70 C67 1.301 . S
N70 C68 1.317 . S
N71 C67 1.328 . S
N71 C69 1.350 . S
H72 C67 0.930 . S
H73 C68 0.931 . S
C74 O75 1.224 1_455 S
C74 O93 1.247 . S
O75 C74 1.224 1_655 S
N76 Co66 2.128 . S
N76 C77 1.355 . S
N76 C79 1.311 . S
C77 N76 1.355 . S
C77 C78 1.363 . S
C77 H89 0.929 . S
C78 C77 1.363 . S
C78 N80 1.375 . S
C78 H96 0.931 . S
C79 N76 1.311 . S
C79 N80 1.347 . S
C79 H90 0.929 1_655 S
N80 C78 1.375 . S
N80 C79 1.347 . S
C81 C84 1.365 . S
C81 N86 1.328 . S
C81 H87 0.929 . S
C82 C83 1.362 . S
C82 C85 1.378 . S
C82 H97 0.929 . S
C83 C82 1.362 . S
C83 C84 1.366 . S
C84 C81 1.365 . S
C84 C83 1.366 . S
C84 H98 0.930 . S
C85 C82 1.378 . S
C85 N86 1.315 . S
C85 H88 0.930 . S
N86 Co66 2.194 . S
N86 C81 1.328 . S
N86 C85 1.315 . S
H87 C81 0.929 . S
H88 C85 0.930 . S
H89 C77 0.929 . S
H90 C79 0.929 1_455 S
O91 Co66 2.351 . S
O91 C94 1.244 . S
O92 Co66 2.155 . S
O92 C94 1.240 . S
O93 Co66 2.096 1_455 S
O93 C74 1.247 . S
C94 O91 1.244 . S
C94 O92 1.240 . S
H95 C69 0.931 . S
H96 C78 0.931 . S
H97 C82 0.929 . S
H98 C84 0.930 . S
Co99 N103 2.148 . S
Co99 N109 2.128 . S
Co99 N119 2.194 . S
Co99 O124 2.351 . S
Co99 O125 2.155 . S
Co99 O126 2.096 1_565 S
C100 N103 1.301 . S
C100 N104 1.328 . S
C100 H105 0.930 . S
C101 C102 1.333 . S
C101 N103 1.317 . S
C101 H106 0.931 . S
C102 C101 1.333 . S
C102 N104 1.350 . S
C102 H128 0.931 . S
N103 Co99 2.148 . S
N103 C100 1.301 . S
N103 C101 1.317 . S
N104 C100 1.328 . S
N104 C102 1.350 . S
H105 C100 0.930 . S
H106 C101 0.931 . S
C107 O108 1.224 1_545 S
C107 O126 1.247 . S
O108 C107 1.224 1_565 S
N109 Co99 2.128 . S
N109 C110 1.355 . S
N109 C112 1.311 . S
C110 N109 1.355 . S
C110 C111 1.363 . S
C110 H122 0.929 . S
C111 C110 1.363 . S
C111 N113 1.375 . S
C111 H129 0.931 . S
C112 N109 1.311 . S
C112 N113 1.347 . S
C112 H123 0.929 1_565 S
N113 C111 1.375 . S
N113 C112 1.347 . S
C114 C117 1.365 . S
C114 N119 1.328 . S
C114 H120 0.929 . S
C115 C116 1.362 . S
C115 C118 1.378 . S
C115 H130 0.929 . S
C116 C115 1.362 . S
C116 C117 1.366 . S
C117 C114 1.365 . S
C117 C116 1.366 . S
C117 H131 0.930 . S
C118 C115 1.378 . S
C118 N119 1.315 . S
C118 H121 0.930 . S
N119 Co99 2.194 . S
N119 C114 1.328 . S
N119 C118 1.315 . S
H120 C114 0.929 . S
H121 C118 0.930 . S
H122 C110 0.929 . S
H123 C112 0.929 1_545 S
O124 Co99 2.351 . S
O124 C127 1.244 . S
O125 Co99 2.155 . S
O125 C127 1.240 . S
O126 Co99 2.096 1_545 S
O126 C107 1.247 . S
C127 O124 1.244 . S
C127 O125 1.240 . S
H128 C102 0.931 . S
H129 C111 0.931 . S
H130 C115 0.929 . S
H131 C117 0.930 . S
Co132 N136 2.148 . S
Co132 N142 2.128 . S
Co132 N152 2.194 . S
Co132 O157 2.351 . S
Co132 O158 2.155 . S
Co132 O159 2.096 1_455 S
C133 N136 1.301 . S
C133 N137 1.328 . S
C133 H138 0.930 . S
C134 C135 1.333 . S
C134 N136 1.317 . S
C134 H139 0.931 . S
C135 C134 1.333 . S
C135 N137 1.350 . S
C135 H161 0.931 . S
N136 Co132 2.148 . S
N136 C133 1.301 . S
N136 C134 1.317 . S
N137 C133 1.328 . S
N137 C135 1.350 . S
H138 C133 0.930 . S
H139 C134 0.931 . S
C140 O141 1.224 1_655 S
C140 O159 1.247 . S
O141 C140 1.224 1_455 S
N142 Co132 2.128 . S
N142 C143 1.355 . S
N142 C145 1.311 . S
C143 N142 1.355 . S
C143 C144 1.363 . S
C143 H155 0.929 . S
C144 C143 1.363 . S
C144 N146 1.375 . S
C144 H162 0.931 . S
C145 N142 1.311 . S
C145 N146 1.347 . S
C145 H156 0.929 1_455 S
N146 C144 1.375 . S
N146 C145 1.347 . S
C147 C150 1.365 . S
C147 N152 1.328 . S
C147 H153 0.929 . S
C148 C149 1.362 . S
C148 C151 1.378 . S
C148 H163 0.929 . S
C149 C148 1.362 . S
C149 C150 1.366 . S
C150 C147 1.365 . S
C150 C149 1.366 . S
C150 H164 0.930 . S
C151 C148 1.378 . S
C151 N152 1.315 . S
C151 H154 0.930 . S
N152 Co132 2.194 . S
N152 C147 1.328 . S
N152 C151 1.315 . S
H153 C147 0.929 . S
H154 C151 0.930 . S
H155 C143 0.929 . S
H156 C145 0.929 1_655 S
O157 Co132 2.351 . S
O157 C160 1.244 . S
O158 Co132 2.155 . S
O158 C160 1.240 . S
O159 Co132 2.096 1_655 S
O159 C140 1.247 . S
C160 O157 1.244 . S
C160 O158 1.240 . S
H161 C135 0.931 . S
H162 C144 0.931 . S
H163 C148 0.929 . S
H164 C150 0.930 . S
Co165 N169 2.148 . S
Co165 N175 2.128 . S
Co165 N185 2.194 . S
Co165 O190 2.351 . S
Co165 O191 2.155 . S
Co165 O192 2.096 1_545 S
C166 N169 1.301 . S
C166 N170 1.328 . S
C166 H171 0.930 . S
C167 C168 1.333 . S
C167 N169 1.317 . S
C167 H172 0.931 . S
C168 C167 1.333 . S
C168 N170 1.350 . S
C168 H194 0.931 . S
N169 Co165 2.148 . S
N169 C166 1.301 . S
N169 C167 1.317 . S
N170 C166 1.328 . S
N170 C168 1.350 . S
H171 C166 0.930 . S
H172 C167 0.931 . S
C173 O174 1.224 1_565 S
C173 O192 1.247 . S
O174 C173 1.224 1_545 S
N175 Co165 2.128 . S
N175 C176 1.355 . S
N175 C178 1.311 . S
C176 N175 1.355 . S
C176 C177 1.363 . S
C176 H188 0.929 . S
C177 C176 1.363 . S
C177 N179 1.375 . S
C177 H195 0.931 . S
C178 N175 1.311 . S
C178 N179 1.347 . S
C178 H189 0.929 1_545 S
N179 C177 1.375 . S
N179 C178 1.347 . S
C180 C183 1.365 . S
C180 N185 1.328 . S
C180 H186 0.929 . S
C181 C182 1.362 . S
C181 C184 1.378 . S
C181 H196 0.929 . S
C182 C181 1.362 . S
C182 C183 1.366 . S
C183 C180 1.365 . S
C183 C182 1.366 . S
C183 H197 0.930 . S
C184 C181 1.378 . S
C184 N185 1.315 . S
C184 H187 0.930 . S
N185 Co165 2.194 . S
N185 C180 1.328 . S
N185 C184 1.315 . S
H186 C180 0.929 . S
H187 C184 0.930 . S
H188 C176 0.929 . S
H189 C178 0.929 1_565 S
O190 Co165 2.351 . S
O190 C193 1.244 . S
O191 Co165 2.155 . S
O191 C193 1.240 . S
O192 Co165 2.096 1_565 S
O192 C173 1.247 . S
C193 O190 1.244 . S
C193 O191 1.240 . S
H194 C168 0.931 . S
H195 C177 0.931 . S
H196 C181 0.929 . S
H197 C183 0.930 . S
Co198 N202 2.148 . S
Co198 N208 2.128 . S
Co198 N218 2.194 . S
Co198 O223 2.351 . S
Co198 O224 2.155 . S
Co198 O225 2.096 1_655 S
C199 N202 1.301 . S
C199 N203 1.328 . S
C199 H204 0.930 . S
C200 C201 1.333 . S
C200 N202 1.317 . S
C200 H205 0.931 . S
C201 C200 1.333 . S
C201 N203 1.350 . S
C201 H227 0.931 . S
N202 Co198 2.148 . S
N202 C199 1.301 . S
N202 C200 1.317 . S
N203 C199 1.328 . S
N203 C201 1.350 . S
H204 C199 0.930 . S
H205 C200 0.931 . S
C206 O207 1.224 1_455 S
C206 O225 1.247 . S
O207 C206 1.224 1_655 S
N208 Co198 2.128 . S
N208 C209 1.355 . S
N208 C211 1.311 . S
C209 N208 1.355 . S
C209 C210 1.363 . S
C209 H221 0.929 . S
C210 C209 1.363 . S
C210 N212 1.375 . S
C210 H228 0.931 . S
C211 N208 1.311 . S
C211 N212 1.347 . S
C211 H222 0.929 1_655 S
N212 C210 1.375 . S
N212 C211 1.347 . S
C213 C216 1.365 . S
C213 N218 1.328 . S
C213 H219 0.929 . S
C214 C215 1.362 . S
C214 C217 1.378 . S
C214 H229 0.929 . S
C215 C214 1.362 . S
C215 C216 1.366 . S
C216 C213 1.365 . S
C216 C215 1.366 . S
C216 H230 0.930 . S
C217 C214 1.378 . S
C217 N218 1.315 . S
C217 H220 0.930 . S
N218 Co198 2.194 . S
N218 C213 1.328 . S
N218 C217 1.315 . S
H219 C213 0.929 . S
H220 C217 0.930 . S
H221 C209 0.929 . S
H222 C211 0.929 1_455 S
O223 Co198 2.351 . S
O223 C226 1.244 . S
O224 Co198 2.155 . S
O224 C226 1.240 . S
O225 Co198 2.096 1_455 S
O225 C206 1.247 . S
C226 O223 1.244 . S
C226 O224 1.240 . S
H227 C201 0.931 . S
H228 C210 0.931 . S
H229 C214 0.929 . S
H230 C216 0.930 . S
Co231 N235 2.148 . S
Co231 N241 2.128 . S
Co231 N251 2.194 . S
Co231 O256 2.351 . S
Co231 O257 2.155 . S
Co231 O258 2.096 1_565 S
C232 N235 1.301 . S
C232 N236 1.328 . S
C232 H237 0.930 . S
C233 C234 1.333 . S
C233 N235 1.317 . S
C233 H238 0.931 . S
C234 C233 1.333 . S
C234 N236 1.350 . S
C234 H260 0.931 . S
N235 Co231 2.148 . S
N235 C232 1.301 . S
N235 C233 1.317 . S
N236 C232 1.328 . S
N236 C234 1.350 . S
H237 C232 0.930 . S
H238 C233 0.931 . S
C239 O240 1.224 1_545 S
C239 O258 1.247 . S
O240 C239 1.224 1_565 S
N241 Co231 2.128 . S
N241 C242 1.355 . S
N241 C244 1.311 . S
C242 N241 1.355 . S
C242 C243 1.363 . S
C242 H254 0.929 . S
C243 C242 1.363 . S
C243 N245 1.375 . S
C243 H261 0.931 . S
C244 N241 1.311 . S
C244 N245 1.347 . S
C244 H255 0.929 1_565 S
N245 C243 1.375 . S
N245 C244 1.347 . S
C246 C249 1.365 . S
C246 N251 1.328 . S
C246 H252 0.929 . S
C247 C248 1.362 . S
C247 C250 1.378 . S
C247 H262 0.929 . S
C248 C247 1.362 . S
C248 C249 1.366 . S
C249 C246 1.365 . S
C249 C248 1.366 . S
C249 H263 0.930 . S
C250 C247 1.378 . S
C250 N251 1.315 . S
C250 H253 0.930 . S
N251 Co231 2.194 . S
N251 C246 1.328 . S
N251 C250 1.315 . S
H252 C246 0.929 . S
H253 C250 0.930 . S
H254 C242 0.929 . S
H255 C244 0.929 1_545 S
O256 Co231 2.351 . S
O256 C259 1.244 . S
O257 Co231 2.155 . S
O257 C259 1.240 . S
O258 Co231 2.096 1_545 S
O258 C239 1.247 . S
C259 O256 1.244 . S
C259 O257 1.240 . S
H260 C234 0.931 . S
H261 C243 0.931 . S
H262 C247 0.929 . S
H263 C249 0.930 . S
Co264 N268 2.148 . S
Co264 N274 2.128 . S
Co264 N284 2.194 . S
Co264 O289 2.351 . S
Co264 O290 2.155 . S
Co264 O291 2.096 . S
C265 N268 1.301 . S
C265 N269 1.328 . S
C265 H270 0.930 . S
C266 C267 1.333 . S
C266 N268 1.317 . S
C266 H271 0.930 . S
C267 C266 1.333 . S
C267 N269 1.350 . S
C267 H293 0.931 . S
N268 Co264 2.148 . S
N268 C265 1.301 . S
N268 C266 1.317 . S
N269 C265 1.328 . S
N269 C267 1.350 . S
H270 C265 0.930 . S
H271 C266 0.930 . S
C272 O273 1.224 . S
C272 O291 1.247 . S
O273 C272 1.224 . S
N274 Co264 2.128 . S
N274 C275 1.355 . S
N274 C277 1.311 . S
C275 N274 1.355 . S
C275 C276 1.363 . S
C275 H287 0.929 . S
C276 C275 1.363 . S
C276 N278 1.375 . S
C276 H294 0.931 . S
C277 N274 1.311 . S
C277 N278 1.347 . S
C277 H288 0.929 . S
N278 C276 1.375 . S
N278 C277 1.347 . S
C279 C282 1.365 . S
C279 N284 1.328 . S
C279 H285 0.929 . S
C280 C281 1.362 . S
C280 C283 1.378 . S
C280 H295 0.929 . S
C281 C280 1.362 . S
C281 C282 1.366 . S
C282 C279 1.365 . S
C282 C281 1.366 . S
C282 H296 0.930 . S
C283 C280 1.378 . S
C283 N284 1.315 . S
C283 H286 0.930 . S
N284 Co264 2.194 . S
N284 C279 1.328 . S
N284 C283 1.315 . S
H285 C279 0.929 . S
H286 C283 0.930 . S
H287 C275 0.929 . S
H288 C277 0.929 . S
O289 Co264 2.351 . S
O289 C292 1.244 . S
O290 Co264 2.155 . S
O290 C292 1.240 . S
O291 Co264 2.096 . S
O291 C272 1.247 . S
C292 O289 1.244 . S
C292 O290 1.240 . S
H293 C267 0.931 . S
H294 C276 0.931 . S
H295 C280 0.929 . S
H296 C282 0.930 . S
Co297 N301 2.148 . S
Co297 N307 2.128 . S
Co297 N317 2.194 . S
Co297 O322 2.351 . S
Co297 O323 2.155 . S
Co297 O324 2.096 . S
C298 N301 1.301 . S
C298 N302 1.328 . S
C298 H303 0.930 . S
C299 C300 1.333 . S
C299 N301 1.317 . S
C299 H304 0.930 . S
C300 C299 1.333 . S
C300 N302 1.350 . S
C300 H326 0.931 . S
N301 Co297 2.148 . S
N301 C298 1.301 . S
N301 C299 1.317 . S
N302 C298 1.328 . S
N302 C300 1.350 . S
H303 C298 0.930 . S
H304 C299 0.930 . S
C305 O306 1.224 . S
C305 O324 1.247 . S
O306 C305 1.224 . S
N307 Co297 2.128 . S
N307 C308 1.355 . S
N307 C310 1.311 . S
C308 N307 1.355 . S
C308 C309 1.363 . S
C308 H320 0.929 . S
C309 C308 1.363 . S
C309 N311 1.375 . S
C309 H327 0.931 . S
C310 N307 1.311 . S
C310 N311 1.347 . S
C310 H321 0.929 . S
N311 C309 1.375 . S
N311 C310 1.347 . S
C312 C315 1.365 . S
C312 N317 1.328 . S
C312 H318 0.929 . S
C313 C314 1.362 . S
C313 C316 1.378 . S
C313 H328 0.929 . S
C314 C313 1.362 . S
C314 C315 1.366 . S
C315 C312 1.365 . S
C315 C314 1.366 . S
C315 H329 0.930 . S
C316 C313 1.378 . S
C316 N317 1.315 . S
C316 H319 0.930 . S
N317 Co297 2.194 . S
N317 C312 1.328 . S
N317 C316 1.315 . S
H318 C312 0.929 . S
H319 C316 0.930 . S
H320 C308 0.929 . S
H321 C310 0.929 . S
O322 Co297 2.351 . S
O322 C325 1.244 . S
O323 Co297 2.155 . S
O323 C325 1.240 . S
O324 Co297 2.096 . S
O324 C305 1.247 . S
C325 O322 1.244 . S
C325 O323 1.240 . S
H326 C300 0.931 . S
H327 C309 0.931 . S
H328 C313 0.929 . S
H329 C315 0.930 . S
Co330 N334 2.148 . S
Co330 N340 2.128 . S
Co330 N350 2.194 . S
Co330 O355 2.351 . S
Co330 O356 2.155 . S
Co330 O357 2.096 . S
C331 N334 1.301 . S
C331 N335 1.328 . S
C331 H336 0.930 . S
C332 C333 1.333 . S
C332 N334 1.317 . S
C332 H337 0.930 . S
C333 C332 1.333 . S
C333 N335 1.350 . S
C333 H359 0.931 . S
N334 Co330 2.148 . S
N334 C331 1.301 . S
N334 C332 1.317 . S
N335 C331 1.328 . S
N335 C333 1.350 . S
H336 C331 0.930 . S
H337 C332 0.930 . S
C338 O339 1.224 . S
C338 O357 1.247 . S
O339 C338 1.224 . S
N340 Co330 2.128 . S
N340 C341 1.355 . S
N340 C343 1.311 . S
C341 N340 1.355 . S
C341 C342 1.363 . S
C341 H353 0.929 . S
C342 C341 1.363 . S
C342 N344 1.375 . S
C342 H360 0.931 . S
C343 N340 1.311 . S
C343 N344 1.347 . S
C343 H354 0.929 . S
N344 C342 1.375 . S
N344 C343 1.347 . S
C345 C348 1.365 . S
C345 N350 1.328 . S
C345 H351 0.929 . S
C346 C347 1.362 . S
C346 C349 1.378 . S
C346 H361 0.929 . S
C347 C346 1.362 . S
C347 C348 1.366 . S
C348 C345 1.365 . S
C348 C347 1.366 . S
C348 H362 0.930 . S
C349 C346 1.378 . S
C349 N350 1.315 . S
C349 H352 0.930 . S
N350 Co330 2.194 . S
N350 C345 1.328 . S
N350 C349 1.315 . S
H351 C345 0.929 . S
H352 C349 0.930 . S
H353 C341 0.929 . S
H354 C343 0.929 . S
O355 Co330 2.351 . S
O355 C358 1.244 . S
O356 Co330 2.155 . S
O356 C358 1.240 . S
O357 Co330 2.096 . S
O357 C338 1.247 . S
C358 O355 1.244 . S
C358 O356 1.240 . S
H359 C333 0.931 . S
H360 C342 0.931 . S
H361 C346 0.929 . S
H362 C348 0.930 . S
Co363 N367 2.148 . S
Co363 N373 2.128 . S
Co363 N383 2.194 . S
Co363 O388 2.351 . S
Co363 O389 2.155 . S
Co363 O390 2.096 . S
C364 N367 1.301 . S
C364 N368 1.328 . S
C364 H369 0.930 . S
C365 C366 1.333 . S
C365 N367 1.317 . S
C365 H370 0.930 . S
C366 C365 1.333 . S
C366 N368 1.350 . S
C366 H392 0.931 . S
N367 Co363 2.148 . S
N367 C364 1.301 . S
N367 C365 1.317 . S
N368 C364 1.328 . S
N368 C366 1.350 . S
H369 C364 0.930 . S
H370 C365 0.930 . S
C371 O372 1.224 . S
C371 O390 1.247 . S
O372 C371 1.224 . S
N373 Co363 2.128 . S
N373 C374 1.355 . S
N373 C376 1.311 . S
C374 N373 1.355 . S
C374 C375 1.363 . S
C374 H386 0.929 . S
C375 C374 1.363 . S
C375 N377 1.375 . S
C375 H393 0.931 . S
C376 N373 1.311 . S
C376 N377 1.347 . S
C376 H387 0.929 . S
N377 C375 1.375 . S
N377 C376 1.347 . S
C378 C381 1.365 . S
C378 N383 1.328 . S
C378 H384 0.929 . S
C379 C380 1.362 . S
C379 C382 1.378 . S
C379 H394 0.929 . S
C380 C379 1.362 . S
C380 C381 1.366 . S
C381 C378 1.365 . S
C381 C380 1.366 . S
C381 H395 0.930 . S
C382 C379 1.378 . S
C382 N383 1.315 . S
C382 H385 0.930 . S
N383 Co363 2.194 . S
N383 C378 1.328 . S
N383 C382 1.315 . S
H384 C378 0.929 . S
H385 C382 0.930 . S
H386 C374 0.929 . S
H387 C376 0.929 . S
O388 Co363 2.351 . S
O388 C391 1.244 . S
O389 Co363 2.155 . S
O389 C391 1.240 . S
O390 Co363 2.096 . S
O390 C371 1.247 . S
C391 O388 1.244 . S
C391 O389 1.240 . S
H392 C366 0.931 . S
H393 C375 0.931 . S
H394 C379 0.929 . S
H395 C381 0.930 . S
Co396 N400 2.148 . S
Co396 N406 2.128 . S
Co396 N416 2.194 . S
Co396 O421 2.351 . S
Co396 O422 2.155 . S
Co396 O423 2.096 . S
C397 N400 1.301 . S
C397 N401 1.328 . S
C397 H402 0.930 . S
C398 C399 1.333 . S
C398 N400 1.317 . S
C398 H403 0.930 . S
C399 C398 1.333 . S
C399 N401 1.350 . S
C399 H425 0.931 . S
N400 Co396 2.148 . S
N400 C397 1.301 . S
N400 C398 1.317 . S
N401 C397 1.328 . S
N401 C399 1.350 . S
H402 C397 0.930 . S
H403 C398 0.930 . S
C404 O405 1.224 . S
C404 O423 1.247 . S
O405 C404 1.224 . S
N406 Co396 2.128 . S
N406 C407 1.355 . S
N406 C409 1.311 . S
C407 N406 1.355 . S
C407 C408 1.363 . S
C407 H419 0.929 . S
C408 C407 1.363 . S
C408 N410 1.375 . S
C408 H426 0.931 . S
C409 N406 1.311 . S
C409 N410 1.347 . S
C409 H420 0.929 . S
N410 C408 1.375 . S
N410 C409 1.347 . S
C411 C414 1.365 . S
C411 N416 1.328 . S
C411 H417 0.929 . S
C412 C413 1.362 . S
C412 C415 1.378 . S
C412 H427 0.929 . S
C413 C412 1.362 . S
C413 C414 1.366 . S
C414 C411 1.365 . S
C414 C413 1.366 . S
C414 H428 0.930 . S
C415 C412 1.378 . S
C415 N416 1.315 . S
C415 H418 0.930 . S
N416 Co396 2.194 . S
N416 C411 1.328 . S
N416 C415 1.315 . S
H417 C411 0.929 . S
H418 C415 0.930 . S
H419 C407 0.929 . S
H420 C409 0.929 . S
O421 Co396 2.351 . S
O421 C424 1.244 . S
O422 Co396 2.155 . S
O422 C424 1.240 . S
O423 Co396 2.096 . S
O423 C404 1.247 . S
C424 O421 1.244 . S
C424 O422 1.240 . S
H425 C399 0.931 . S
H426 C408 0.931 . S
H427 C412 0.929 . S
H428 C414 0.930 . S
Co429 N433 2.148 . S
Co429 N439 2.128 . S
Co429 N449 2.194 . S
Co429 O454 2.351 . S
Co429 O455 2.155 . S
Co429 O456 2.096 . S
C430 N433 1.301 . S
C430 N434 1.328 . S
C430 H435 0.930 . S
C431 C432 1.333 . S
C431 N433 1.317 . S
C431 H436 0.930 . S
C432 C431 1.333 . S
C432 N434 1.350 . S
C432 H458 0.931 . S
N433 Co429 2.148 . S
N433 C430 1.301 . S
N433 C431 1.317 . S
N434 C430 1.328 . S
N434 C432 1.350 . S
H435 C430 0.930 . S
H436 C431 0.930 . S
C437 O438 1.224 . S
C437 O456 1.247 . S
O438 C437 1.224 . S
N439 Co429 2.128 . S
N439 C440 1.355 . S
N439 C442 1.311 . S
C440 N439 1.355 . S
C440 C441 1.363 . S
C440 H452 0.929 . S
C441 C440 1.363 . S
C441 N443 1.375 . S
C441 H459 0.931 . S
C442 N439 1.311 . S
C442 N443 1.347 . S
C442 H453 0.929 . S
N443 C441 1.375 . S
N443 C442 1.347 . S
C444 C447 1.365 . S
C444 N449 1.328 . S
C444 H450 0.929 . S
C445 C446 1.362 . S
C445 C448 1.378 . S
C445 H460 0.929 . S
C446 C445 1.362 . S
C446 C447 1.366 . S
C447 C444 1.365 . S
C447 C446 1.366 . S
C447 H461 0.930 . S
C448 C445 1.378 . S
C448 N449 1.315 . S
C448 H451 0.930 . S
N449 Co429 2.194 . S
N449 C444 1.328 . S
N449 C448 1.315 . S
H450 C444 0.929 . S
H451 C448 0.930 . S
H452 C440 0.929 . S
H453 C442 0.929 . S
O454 Co429 2.351 . S
O454 C457 1.244 . S
O455 Co429 2.155 . S
O455 C457 1.240 . S
O456 Co429 2.096 . S
O456 C437 1.247 . S
C457 O454 1.244 . S
C457 O455 1.240 . S
H458 C432 0.931 . S
H459 C441 0.931 . S
H460 C445 0.929 . S
H461 C447 0.930 . S
Co462 N466 2.148 . S
Co462 N472 2.128 . S
Co462 N482 2.194 . S
Co462 O487 2.351 . S
Co462 O488 2.155 . S
Co462 O489 2.096 . S
C463 N466 1.301 . S
C463 N467 1.328 . S
C463 H468 0.930 . S
C464 C465 1.333 . S
C464 N466 1.317 . S
C464 H469 0.930 . S
C465 C464 1.333 . S
C465 N467 1.350 . S
C465 H491 0.931 . S
N466 Co462 2.148 . S
N466 C463 1.301 . S
N466 C464 1.317 . S
N467 C463 1.328 . S
N467 C465 1.350 . S
H468 C463 0.930 . S
H469 C464 0.930 . S
C470 O471 1.224 . S
C470 O489 1.247 . S
O471 C470 1.224 . S
N472 Co462 2.128 . S
N472 C473 1.355 . S
N472 C475 1.311 . S
C473 N472 1.355 . S
C473 C474 1.363 . S
C473 H485 0.929 . S
C474 C473 1.363 . S
C474 N476 1.375 . S
C474 H492 0.931 . S
C475 N472 1.311 . S
C475 N476 1.347 . S
C475 H486 0.929 . S
N476 C474 1.375 . S
N476 C475 1.347 . S
C477 C480 1.365 . S
C477 N482 1.328 . S
C477 H483 0.929 . S
C478 C479 1.362 . S
C478 C481 1.378 . S
C478 H493 0.929 . S
C479 C478 1.362 . S
C479 C480 1.366 . S
C480 C477 1.365 . S
C480 C479 1.366 . S
C480 H494 0.930 . S
C481 C478 1.378 . S
C481 N482 1.315 . S
C481 H484 0.930 . S
N482 Co462 2.194 . S
N482 C477 1.328 . S
N482 C481 1.315 . S
H483 C477 0.929 . S
H484 C481 0.930 . S
H485 C473 0.929 . S
H486 C475 0.929 . S
O487 Co462 2.351 . S
O487 C490 1.244 . S
O488 Co462 2.155 . S
O488 C490 1.240 . S
O489 Co462 2.096 . S
O489 C470 1.247 . S
C490 O487 1.244 . S
C490 O488 1.240 . S
H491 C465 0.931 . S
H492 C474 0.931 . S
H493 C478 0.929 . S
H494 C480 0.930 . S
Co495 N499 2.148 . S
Co495 N505 2.128 . S
Co495 N515 2.194 . S
Co495 O520 2.351 . S
Co495 O521 2.155 . S
Co495 O522 2.096 . S
C496 N499 1.301 . S
C496 N500 1.328 . S
C496 H501 0.930 . S
C497 C498 1.333 . S
C497 N499 1.317 . S
C497 H502 0.930 . S
C498 C497 1.333 . S
C498 N500 1.350 . S
C498 H524 0.931 . S
N499 Co495 2.148 . S
N499 C496 1.301 . S
N499 C497 1.317 . S
N500 C496 1.328 . S
N500 C498 1.350 . S
H501 C496 0.930 . S
H502 C497 0.930 . S
C503 O504 1.224 . S
C503 O522 1.247 . S
O504 C503 1.224 . S
N505 Co495 2.128 . S
N505 C506 1.355 . S
N505 C508 1.311 . S
C506 N505 1.355 . S
C506 C507 1.363 . S
C506 H518 0.929 . S
C507 C506 1.363 . S
C507 N509 1.375 . S
C507 H525 0.931 . S
C508 N505 1.311 . S
C508 N509 1.347 . S
C508 H519 0.929 . S
N509 C507 1.375 . S
N509 C508 1.347 . S
C510 C513 1.365 . S
C510 N515 1.328 . S
C510 H516 0.929 . S
C511 C512 1.362 . S
C511 C514 1.378 . S
C511 H526 0.929 . S
C512 C511 1.362 . S
C512 C513 1.366 . S
C513 C510 1.365 . S
C513 C512 1.366 . S
C513 H527 0.930 . S
C514 C511 1.378 . S
C514 N515 1.315 . S
C514 H517 0.930 . S
N515 Co495 2.194 . S
N515 C510 1.328 . S
N515 C514 1.315 . S
H516 C510 0.929 . S
H517 C514 0.930 . S
H518 C506 0.929 . S
H519 C508 0.929 . S
O520 Co495 2.351 . S
O520 C523 1.244 . S
O521 Co495 2.155 . S
O521 C523 1.240 . S
O522 Co495 2.096 . S
O522 C503 1.247 . S
C523 O520 1.244 . S
C523 O521 1.240 . S
H524 C498 0.931 . S
H525 C507 0.931 . S
H526 C511 0.929 . S
H527 C513 0.930 . S
C528 C529 1.349 . S
C528 C530 1.327 . S
C528 H553 0.950 . S
C529 C528 1.349 . S
C529 C545 1.349 . S
C530 C528 1.327 . S
C530 C549 1.429 . S
C530 H554 0.950 . S
C531 C548 1.574 . S
C531 C550 1.368 1_455 S
C531 H555 0.949 . S
H532 C536 0.949 . S
C533 C534 1.349 . S
C533 C535 1.327 . S
C533 H556 0.950 . S
C534 C533 1.349 . S
C534 C546 1.349 . S
C535 C533 1.327 . S
C535 C551 1.429 . S
C535 H557 0.950 . S
C536 H532 0.949 . S
C536 C544 1.574 . S
C536 C552 1.368 1_655 S
H537 C545 0.950 . S
H538 C543 0.950 . S
H539 C544 0.949 . S
H540 C546 0.950 . S
H541 C547 0.950 . S
H542 C548 0.949 . S
C543 H538 0.950 . S
C543 C545 1.327 . S
C543 C549 1.429 . S
C544 C536 1.574 . S
C544 H539 0.949 . S
C544 C550 1.368 . S
C545 C529 1.349 . S
C545 H537 0.950 . S
C545 C543 1.327 . S
C546 C534 1.349 . S
C546 H540 0.950 . S
C546 C547 1.327 . S
C547 H541 0.950 . S
C547 C546 1.327 . S
C547 C551 1.429 . S
C548 C531 1.574 . S
C548 H542 0.949 . S
C548 C552 1.368 . S
C549 C530 1.429 . S
C549 C543 1.429 . S
C549 C550 1.523 . S
C550 C531 1.368 1_655 S
C550 C544 1.368 . S
C550 C549 1.523 . S
C551 C535 1.429 . S
C551 C547 1.429 . S
C551 C552 1.523 . S
C552 C536 1.368 1_455 S
C552 C548 1.368 . S
C552 C551 1.523 . S
H553 C528 0.950 . S
H554 C530 0.950 . S
H555 C531 0.949 . S
H556 C533 0.950 . S
H557 C535 0.950 . S
C558 C559 1.349 . S
C558 C560 1.327 . S
C558 H583 0.950 . S
C559 C558 1.349 . S
C559 C575 1.349 . S
C560 C558 1.327 . S
C560 C579 1.429 . S
C560 H584 0.950 . S
C561 C578 1.574 . S
C561 C580 1.368 1_565 S
C561 H585 0.949 . S
H562 C566 0.949 . S
C563 C564 1.349 . S
C563 C565 1.327 . S
C563 H586 0.950 . S
C564 C563 1.349 . S
C564 C576 1.349 . S
C565 C563 1.327 . S
C565 C581 1.429 . S
C565 H587 0.950 . S
C566 H562 0.949 . S
C566 C574 1.574 . S
C566 C582 1.368 1_545 S
H567 C575 0.950 . S
H568 C573 0.950 . S
H569 C574 0.949 . S
H570 C576 0.950 . S
H571 C577 0.950 . S
H572 C578 0.949 . S
C573 H568 0.950 . S
C573 C575 1.327 . S
C573 C579 1.429 . S
C574 C566 1.574 . S
C574 H569 0.949 . S
C574 C580 1.368 . S
C575 C559 1.349 . S
C575 H567 0.950 . S
C575 C573 1.327 . S
C576 C564 1.349 . S
C576 H570 0.950 . S
C576 C577 1.327 . S
C577 H571 0.950 . S
C577 C576 1.327 . S
C577 C581 1.429 . S
C578 C561 1.574 . S
C578 H572 0.949 . S
C578 C582 1.368 . S
C579 C560 1.429 . S
C579 C573 1.429 . S
C579 C580 1.523 . S
C580 C561 1.368 1_545 S
C580 C574 1.368 . S
C580 C579 1.523 . S
C581 C565 1.429 . S
C581 C577 1.429 . S
C581 C582 1.523 . S
C582 C566 1.368 1_565 S
C582 C578 1.368 . S
C582 C581 1.523 . S
H583 C558 0.950 . S
H584 C560 0.950 . S
H585 C561 0.949 . S
H586 C563 0.950 . S
H587 C565 0.950 . S
C588 C589 1.349 . S
C588 C590 1.327 . S
C588 H613 0.950 . S
C589 C588 1.349 . S
C589 C605 1.349 . S
C590 C588 1.327 . S
C590 C609 1.429 . S
C590 H614 0.950 . S
C591 C608 1.574 . S
C591 C610 1.368 1_455 S
C591 H615 0.949 . S
H592 C596 0.949 . S
C593 C594 1.349 . S
C593 C595 1.327 . S
C593 H616 0.950 . S
C594 C593 1.349 . S
C594 C606 1.349 . S
C595 C593 1.327 . S
C595 C611 1.429 . S
C595 H617 0.950 . S
C596 H592 0.949 . S
C596 C604 1.574 . S
C596 C612 1.368 1_655 S
H597 C605 0.950 . S
H598 C603 0.950 . S
H599 C604 0.949 . S
H600 C606 0.950 . S
H601 C607 0.950 . S
H602 C608 0.949 . S
C603 H598 0.950 . S
C603 C605 1.327 . S
C603 C609 1.429 . S
C604 C596 1.574 . S
C604 H599 0.949 . S
C604 C610 1.368 . S
C605 C589 1.349 . S
C605 H597 0.950 . S
C605 C603 1.327 . S
C606 C594 1.349 . S
C606 H600 0.950 . S
C606 C607 1.327 . S
C607 H601 0.950 . S
C607 C606 1.327 . S
C607 C611 1.429 . S
C608 C591 1.574 . S
C608 H602 0.949 . S
C608 C612 1.368 . S
C609 C590 1.429 . S
C609 C603 1.429 . S
C609 C610 1.523 . S
C610 C591 1.368 1_655 S
C610 C604 1.368 . S
C610 C609 1.523 . S
C611 C595 1.429 . S
C611 C607 1.429 . S
C611 C612 1.523 . S
C612 C596 1.368 1_455 S
C612 C608 1.368 . S
C612 C611 1.523 . S
H613 C588 0.950 . S
H614 C590 0.950 . S
H615 C591 0.949 . S
H616 C593 0.950 . S
H617 C595 0.950 . S
C618 C619 1.349 . S
C618 C620 1.327 . S
C618 H643 0.950 . S
C619 C618 1.349 . S
C619 C635 1.349 . S
C620 C618 1.327 . S
C620 C639 1.429 . S
C620 H644 0.950 . S
C621 C638 1.574 . S
C621 C640 1.368 1_545 S
C621 H645 0.949 . S
H622 C626 0.949 . S
C623 C624 1.349 . S
C623 C625 1.327 . S
C623 H646 0.950 . S
C624 C623 1.349 . S
C624 C636 1.349 . S
C625 C623 1.327 . S
C625 C641 1.429 . S
C625 H647 0.950 . S
C626 H622 0.949 . S
C626 C634 1.574 . S
C626 C642 1.368 1_565 S
H627 C635 0.950 . S
H628 C633 0.950 . S
H629 C634 0.949 . S
H630 C636 0.950 . S
H631 C637 0.950 . S
H632 C638 0.949 . S
C633 H628 0.950 . S
C633 C635 1.327 . S
C633 C639 1.429 . S
C634 C626 1.574 . S
C634 H629 0.949 . S
C634 C640 1.368 . S
C635 C619 1.349 . S
C635 H627 0.950 . S
C635 C633 1.327 . S
C636 C624 1.349 . S
C636 H630 0.950 . S
C636 C637 1.327 . S
C637 H631 0.950 . S
C637 C636 1.327 . S
C637 C641 1.429 . S
C638 C621 1.574 . S
C638 H632 0.949 . S
C638 C642 1.368 . S
C639 C620 1.429 . S
C639 C633 1.429 . S
C639 C640 1.523 . S
C640 C621 1.368 1_565 S
C640 C634 1.368 . S
C640 C639 1.523 . S
C641 C625 1.429 . S
C641 C637 1.429 . S
C641 C642 1.523 . S
C642 C626 1.368 1_545 S
C642 C638 1.368 . S
C642 C641 1.523 . S
H643 C618 0.950 . S
H644 C620 0.950 . S
H645 C621 0.949 . S
H646 C623 0.950 . S
H647 C625 0.950 . S
C648 C649 1.349 . S
C648 C650 1.327 . S
C648 H673 0.950 . S
C649 C648 1.349 . S
C649 C665 1.349 . S
C650 C648 1.327 . S
C650 C669 1.429 . S
C650 H674 0.950 . S
C651 C668 1.574 1_565 S
C651 C670 1.368 . S
C651 H675 0.949 . S
H652 C656 0.949 . S
C653 C654 1.349 . S
C653 C655 1.327 . S
C653 H676 0.950 . S
C654 C653 1.349 . S
C654 C666 1.349 . S
C655 C653 1.327 . S
C655 C671 1.429 . S
C655 H677 0.950 . S
C656 H652 0.949 . S
C656 C664 1.574 1_545 S
C656 C672 1.368 . S
H657 C665 0.950 . S
H658 C663 0.950 . S
H659 C664 0.949 . S
H660 C666 0.950 . S
H661 C667 0.950 . S
H662 C668 0.949 . S
C663 H658 0.950 . S
C663 C665 1.327 . S
C663 C669 1.429 . S
C664 C656 1.574 1_565 S
C664 H659 0.949 . S
C664 C670 1.368 . S
C665 C649 1.349 . S
C665 H657 0.950 . S
C665 C663 1.327 . S
C666 C654 1.349 . S
C666 H660 0.950 . S
C666 C667 1.327 . S
C667 H661 0.950 . S
C667 C666 1.327 . S
C667 C671 1.429 . S
C668 C651 1.574 1_545 S
C668 H662 0.949 . S
C668 C672 1.368 . S
C669 C650 1.429 . S
C669 C663 1.429 . S
C669 C670 1.523 . S
C670 C651 1.368 . S
C670 C664 1.368 . S
C670 C669 1.523 . S
C671 C655 1.429 . S
C671 C667 1.429 . S
C671 C672 1.523 . S
C672 C656 1.368 . S
C672 C668 1.368 . S
C672 C671 1.523 . S
H673 C648 0.950 . S
H674 C650 0.950 . S
H675 C651 0.949 . S
H676 C653 0.950 . S
H677 C655 0.950 . S
C678 C679 1.349 . S
C678 C680 1.327 . S
C678 H703 0.950 . S
C679 C678 1.349 . S
C679 C695 1.349 . S
C680 C678 1.327 . S
C680 C699 1.429 . S
C680 H704 0.950 . S
C681 C698 1.574 1_655 S
C681 C700 1.368 . S
C681 H705 0.949 . S
H682 C686 0.949 . S
C683 C684 1.349 . S
C683 C685 1.327 . S
C683 H706 0.950 . S
C684 C683 1.349 . S
C684 C696 1.349 . S
C685 C683 1.327 . S
C685 C701 1.429 . S
C685 H707 0.950 . S
C686 H682 0.949 . S
C686 C694 1.574 1_455 S
C686 C702 1.368 . S
H687 C695 0.950 . S
H688 C693 0.950 . S
H689 C694 0.949 . S
H690 C696 0.950 . S
H691 C697 0.950 . S
H692 C698 0.949 . S
C693 H688 0.950 . S
C693 C695 1.327 . S
C693 C699 1.429 . S
C694 C686 1.574 1_655 S
C694 H689 0.949 . S
C694 C700 1.368 . S
C695 C679 1.349 . S
C695 H687 0.950 . S
C695 C693 1.327 . S
C696 C684 1.349 . S
C696 H690 0.950 . S
C696 C697 1.327 . S
C697 H691 0.950 . S
C697 C696 1.327 . S
C697 C701 1.429 . S
C698 C681 1.574 1_455 S
C698 H692 0.949 . S
C698 C702 1.368 . S
C699 C680 1.429 . S
C699 C693 1.429 . S
C699 C700 1.523 . S
C700 C681 1.368 . S
C700 C694 1.368 . S
C700 C699 1.523 . S
C701 C685 1.429 . S
C701 C697 1.429 . S
C701 C702 1.523 . S
C702 C686 1.368 . S
C702 C698 1.368 . S
C702 C701 1.523 . S
H703 C678 0.950 . S
H704 C680 0.950 . S
H705 C681 0.949 . S
H706 C683 0.950 . S
H707 C685 0.950 . S
C708 C709 1.349 . S
C708 C710 1.327 . S
C708 H733 0.950 . S
C709 C708 1.349 . S
C709 C725 1.349 . S
C710 C708 1.327 . S
C710 C729 1.429 . S
C710 H734 0.950 . S
C711 C728 1.574 1_565 S
C711 C730 1.368 . S
C711 H735 0.949 . S
H712 C716 0.949 . S
C713 C714 1.349 . S
C713 C715 1.327 . S
C713 H736 0.950 . S
C714 C713 1.349 . S
C714 C726 1.349 . S
C715 C713 1.327 . S
C715 C731 1.429 . S
C715 H737 0.950 . S
C716 H712 0.949 . S
C716 C724 1.574 1_545 S
C716 C732 1.368 . S
H717 C725 0.950 . S
H718 C723 0.950 . S
H719 C724 0.949 . S
H720 C726 0.950 . S
H721 C727 0.950 . S
H722 C728 0.949 . S
C723 H718 0.950 . S
C723 C725 1.327 . S
C723 C729 1.429 . S
C724 C716 1.574 1_565 S
C724 H719 0.949 . S
C724 C730 1.368 . S
C725 C709 1.349 . S
C725 H717 0.950 . S
C725 C723 1.327 . S
C726 C714 1.349 . S
C726 H720 0.950 . S
C726 C727 1.327 . S
C727 H721 0.950 . S
C727 C726 1.327 . S
C727 C731 1.429 . S
C728 C711 1.574 1_545 S
C728 H722 0.949 . S
C728 C732 1.368 . S
C729 C710 1.429 . S
C729 C723 1.429 . S
C729 C730 1.523 . S
C730 C711 1.368 . S
C730 C724 1.368 . S
C730 C729 1.523 . S
C731 C715 1.429 . S
C731 C727 1.429 . S
C731 C732 1.523 . S
C732 C716 1.368 . S
C732 C728 1.368 . S
C732 C731 1.523 . S
H733 C708 0.950 . S
H734 C710 0.950 . S
H735 C711 0.949 . S
H736 C713 0.950 . S
H737 C715 0.950 . S
C738 C739 1.349 . S
C738 C740 1.327 . S
C738 H763 0.950 . S
C739 C738 1.349 . S
C739 C755 1.349 . S
C740 C738 1.327 . S
C740 C759 1.429 . S
C740 H764 0.950 . S
C741 C758 1.574 1_655 S
C741 C760 1.368 . S
C741 H765 0.949 . S
H742 C746 0.949 . S
C743 C744 1.349 . S
C743 C745 1.327 . S
C743 H766 0.950 . S
C744 C743 1.349 . S
C744 C756 1.349 . S
C745 C743 1.327 . S
C745 C761 1.429 . S
C745 H767 0.950 . S
C746 H742 0.949 . S
C746 C754 1.574 1_455 S
C746 C762 1.368 . S
H747 C755 0.950 . S
H748 C753 0.950 . S
H749 C754 0.949 . S
H750 C756 0.950 . S
H751 C757 0.950 . S
H752 C758 0.949 . S
C753 H748 0.950 . S
C753 C755 1.327 . S
C753 C759 1.429 . S
C754 C746 1.574 1_655 S
C754 H749 0.949 . S
C754 C760 1.368 . S
C755 C739 1.349 . S
C755 H747 0.950 . S
C755 C753 1.327 . S
C756 C744 1.349 . S
C756 H750 0.950 . S
C756 C757 1.327 . S
C757 H751 0.950 . S
C757 C756 1.327 . S
C757 C761 1.429 . S
C758 C741 1.574 1_455 S
C758 H752 0.949 . S
C758 C762 1.368 . S
C759 C740 1.429 . S
C759 C753 1.429 . S
C759 C760 1.523 . S
C760 C741 1.368 . S
C760 C754 1.368 . S
C760 C759 1.523 . S
C761 C745 1.429 . S
C761 C757 1.429 . S
C761 C762 1.523 . S
C762 C746 1.368 . S
C762 C758 1.368 . S
C762 C761 1.523 . S
H763 C738 0.950 . S
H764 C740 0.950 . S
H765 C741 0.949 . S
H766 C743 0.950 . S
H767 C745 0.950 . S
C768 C769 1.349 . S
C768 C770 1.327 . S
C768 H793 0.950 . S
C769 C768 1.349 . S
C769 C785 1.349 . S
C770 C768 1.327 . S
C770 C789 1.429 . S
C770 H794 0.950 . S
C771 C788 1.574 . S
C771 C790 1.368 . S
C771 H795 0.949 . S
H772 C776 0.949 . S
C773 C774 1.349 . S
C773 C775 1.327 . S
C773 H796 0.950 . S
C774 C773 1.349 . S
C774 C786 1.349 . S
C775 C773 1.327 . S
C775 C791 1.429 . S
C775 H797 0.950 . S
C776 H772 0.949 . S
C776 C784 1.574 . S
C776 C792 1.368 . S
H777 C785 0.950 . S
H778 C783 0.950 . S
H779 C784 0.949 . S
H780 C786 0.950 . S
H781 C787 0.950 . S
H782 C788 0.949 . S
C783 H778 0.950 . S
C783 C785 1.327 . S
C783 C789 1.429 . S
C784 C776 1.574 . S
C784 H779 0.949 . S
C784 C790 1.368 . S
C785 C769 1.349 . S
C785 H777 0.950 . S
C785 C783 1.327 . S
C786 C774 1.349 . S
C786 H780 0.950 . S
C786 C787 1.327 . S
C787 H781 0.950 . S
C787 C786 1.327 . S
C787 C791 1.429 . S
C788 C771 1.574 . S
C788 H782 0.949 . S
C788 C792 1.368 . S
C789 C770 1.429 . S
C789 C783 1.429 . S
C789 C790 1.523 . S
C790 C771 1.368 . S
C790 C784 1.368 . S
C790 C789 1.523 . S
C791 C775 1.429 . S
C791 C787 1.429 . S
C791 C792 1.523 . S
C792 C776 1.368 . S
C792 C788 1.368 . S
C792 C791 1.523 . S
H793 C768 0.950 . S
H794 C770 0.950 . S
H795 C771 0.949 . S
H796 C773 0.950 . S
H797 C775 0.950 . S
C798 C799 1.349 . S
C798 C800 1.327 . S
C798 H823 0.950 . S
C799 C798 1.349 . S
C799 C815 1.349 . S
C800 C798 1.327 . S
C800 C819 1.429 . S
C800 H824 0.950 . S
C801 C818 1.574 . S
C801 C820 1.368 . S
C801 H825 0.949 . S
H802 C806 0.949 . S
C803 C804 1.349 . S
C803 C805 1.327 . S
C803 H826 0.950 . S
C804 C803 1.349 . S
C804 C816 1.349 . S
C805 C803 1.327 . S
C805 C821 1.429 . S
C805 H827 0.950 . S
C806 H802 0.949 . S
C806 C814 1.574 . S
C806 C822 1.368 . S
H807 C815 0.950 . S
H808 C813 0.950 . S
H809 C814 0.949 . S
H810 C816 0.950 . S
H811 C817 0.950 . S
H812 C818 0.949 . S
C813 H808 0.950 . S
C813 C815 1.327 . S
C813 C819 1.429 . S
C814 C806 1.574 . S
C814 H809 0.949 . S
C814 C820 1.368 . S
C815 C799 1.349 . S
C815 H807 0.950 . S
C815 C813 1.327 . S
C816 C804 1.349 . S
C816 H810 0.950 . S
C816 C817 1.327 . S
C817 H811 0.950 . S
C817 C816 1.327 . S
C817 C821 1.429 . S
C818 C801 1.574 . S
C818 H812 0.949 . S
C818 C822 1.368 . S
C819 C800 1.429 . S
C819 C813 1.429 . S
C819 C820 1.523 . S
C820 C801 1.368 . S
C820 C814 1.368 . S
C820 C819 1.523 . S
C821 C805 1.429 . S
C821 C817 1.429 . S
C821 C822 1.523 . S
C822 C806 1.368 . S
C822 C818 1.368 . S
C822 C821 1.523 . S
H823 C798 0.950 . S
H824 C800 0.950 . S
H825 C801 0.949 . S
H826 C803 0.950 . S
H827 C805 0.950 . S
C828 C829 1.349 . S
C828 C830 1.327 . S
C828 H853 0.950 . S
C829 C828 1.349 . S
C829 C845 1.349 . S
C830 C828 1.327 . S
C830 C849 1.429 . S
C830 H854 0.950 . S
C831 C848 1.574 . S
C831 C850 1.368 . S
C831 H855 0.949 . S
H832 C836 0.949 . S
C833 C834 1.349 . S
C833 C835 1.327 . S
C833 H856 0.950 . S
C834 C833 1.349 . S
C834 C846 1.349 . S
C835 C833 1.327 . S
C835 C851 1.429 . S
C835 H857 0.950 . S
C836 H832 0.949 . S
C836 C844 1.574 . S
C836 C852 1.368 . S
H837 C845 0.950 . S
H838 C843 0.950 . S
H839 C844 0.949 . S
H840 C846 0.950 . S
H841 C847 0.950 . S
H842 C848 0.949 . S
C843 H838 0.950 . S
C843 C845 1.327 . S
C843 C849 1.429 . S
C844 C836 1.574 . S
C844 H839 0.949 . S
C844 C850 1.368 . S
C845 C829 1.349 . S
C845 H837 0.950 . S
C845 C843 1.327 . S
C846 C834 1.349 . S
C846 H840 0.950 . S
C846 C847 1.327 . S
C847 H841 0.950 . S
C847 C846 1.327 . S
C847 C851 1.429 . S
C848 C831 1.574 . S
C848 H842 0.949 . S
C848 C852 1.368 . S
C849 C830 1.429 . S
C849 C843 1.429 . S
C849 C850 1.523 . S
C850 C831 1.368 . S
C850 C844 1.368 . S
C850 C849 1.523 . S
C851 C835 1.429 . S
C851 C847 1.429 . S
C851 C852 1.523 . S
C852 C836 1.368 . S
C852 C848 1.368 . S
C852 C851 1.523 . S
H853 C828 0.950 . S
H854 C830 0.950 . S
H855 C831 0.949 . S
H856 C833 0.950 . S
H857 C835 0.950 . S
C858 C859 1.349 . S
C858 C860 1.327 . S
C858 H883 0.950 . S
C859 C858 1.349 . S
C859 C875 1.349 . S
C860 C858 1.327 . S
C860 C879 1.429 . S
C860 H884 0.950 . S
C861 C878 1.574 . S
C861 C880 1.368 . S
C861 H885 0.949 . S
H862 C866 0.949 . S
C863 C864 1.349 . S
C863 C865 1.327 . S
C863 H886 0.950 . S
C864 C863 1.349 . S
C864 C876 1.349 . S
C865 C863 1.327 . S
C865 C881 1.429 . S
C865 H887 0.950 . S
C866 H862 0.949 . S
C866 C874 1.574 . S
C866 C882 1.368 . S
H867 C875 0.950 . S
H868 C873 0.950 . S
H869 C874 0.949 . S
H870 C876 0.950 . S
H871 C877 0.950 . S
H872 C878 0.949 . S
C873 H868 0.950 . S
C873 C875 1.327 . S
C873 C879 1.429 . S
C874 C866 1.574 . S
C874 H869 0.949 . S
C874 C880 1.368 . S
C875 C859 1.349 . S
C875 H867 0.950 . S
C875 C873 1.327 . S
C876 C864 1.349 . S
C876 H870 0.950 . S
C876 C877 1.327 . S
C877 H871 0.950 . S
C877 C876 1.327 . S
C877 C881 1.429 . S
C878 C861 1.574 . S
C878 H872 0.949 . S
C878 C882 1.368 . S
C879 C860 1.429 . S
C879 C873 1.429 . S
C879 C880 1.523 . S
C880 C861 1.368 . S
C880 C874 1.368 . S
C880 C879 1.523 . S
C881 C865 1.429 . S
C881 C877 1.429 . S
C881 C882 1.523 . S
C882 C866 1.368 . S
C882 C878 1.368 . S
C882 C881 1.523 . S
H883 C858 0.950 . S
H884 C860 0.950 . S
H885 C861 0.949 . S
H886 C863 0.950 . S
H887 C865 0.950 . S
C888 C889 1.349 . S
C888 C890 1.327 . S
C888 H913 0.950 . S
C889 C888 1.349 . S
C889 C905 1.349 . S
C890 C888 1.327 . S
C890 C909 1.429 . S
C890 H914 0.950 . S
C891 C908 1.574 . S
C891 C910 1.368 . S
C891 H915 0.949 . S
H892 C896 0.949 . S
C893 C894 1.349 . S
C893 C895 1.327 . S
C893 H916 0.950 . S
C894 C893 1.349 . S
C894 C906 1.349 . S
C895 C893 1.327 . S
C895 C911 1.429 . S
C895 H917 0.950 . S
C896 H892 0.949 . S
C896 C904 1.574 . S
C896 C912 1.368 . S
H897 C905 0.950 . S
H898 C903 0.950 . S
H899 C904 0.949 . S
H900 C906 0.950 . S
H901 C907 0.950 . S
H902 C908 0.949 . S
C903 H898 0.950 . S
C903 C905 1.327 . S
C903 C909 1.429 . S
C904 C896 1.574 . S
C904 H899 0.949 . S
C904 C910 1.368 . S
C905 C889 1.349 . S
C905 H897 0.950 . S
C905 C903 1.327 . S
C906 C894 1.349 . S
C906 H900 0.950 . S
C906 C907 1.327 . S
C907 H901 0.950 . S
C907 C906 1.327 . S
C907 C911 1.429 . S
C908 C891 1.574 . S
C908 H902 0.949 . S
C908 C912 1.368 . S
C909 C890 1.429 . S
C909 C903 1.429 . S
C909 C910 1.523 . S
C910 C891 1.368 . S
C910 C904 1.368 . S
C910 C909 1.523 . S
C911 C895 1.429 . S
C911 C907 1.429 . S
C911 C912 1.523 . S
C912 C896 1.368 . S
C912 C908 1.368 . S
C912 C911 1.523 . S
H913 C888 0.950 . S
H914 C890 0.950 . S
H915 C891 0.949 . S
H916 C893 0.950 . S
H917 C895 0.950 . S
C918 C919 1.349 . S
C918 C920 1.327 . S
C918 H943 0.950 . S
C919 C918 1.349 . S
C919 C935 1.349 . S
C920 C918 1.327 . S
C920 C939 1.429 . S
C920 H944 0.950 . S
C921 C938 1.574 . S
C921 C940 1.368 . S
C921 H945 0.949 . S
H922 C926 0.949 . S
C923 C924 1.349 . S
C923 C925 1.327 . S
C923 H946 0.950 . S
C924 C923 1.349 . S
C924 C936 1.349 . S
C925 C923 1.327 . S
C925 C941 1.429 . S
C925 H947 0.950 . S
C926 H922 0.949 . S
C926 C934 1.574 . S
C926 C942 1.368 . S
H927 C935 0.950 . S
H928 C933 0.950 . S
H929 C934 0.949 . S
H930 C936 0.950 . S
H931 C937 0.950 . S
H932 C938 0.949 . S
C933 H928 0.950 . S
C933 C935 1.327 . S
C933 C939 1.429 . S
C934 C926 1.574 . S
C934 H929 0.949 . S
C934 C940 1.368 . S
C935 C919 1.349 . S
C935 H927 0.950 . S
C935 C933 1.327 . S
C936 C924 1.349 . S
C936 H930 0.950 . S
C936 C937 1.327 . S
C937 H931 0.950 . S
C937 C936 1.327 . S
C937 C941 1.429 . S
C938 C921 1.574 . S
C938 H932 0.949 . S
C938 C942 1.368 . S
C939 C920 1.429 . S
C939 C933 1.429 . S
C939 C940 1.523 . S
C940 C921 1.368 . S
C940 C934 1.368 . S
C940 C939 1.523 . S
C941 C925 1.429 . S
C941 C937 1.429 . S
C941 C942 1.523 . S
C942 C926 1.368 . S
C942 C938 1.368 . S
C942 C941 1.523 . S
H943 C918 0.950 . S
H944 C920 0.950 . S
H945 C921 0.949 . S
H946 C923 0.950 . S
H947 C925 0.950 . S
C948 C949 1.349 . S
C948 C950 1.327 . S
C948 H973 0.950 . S
C949 C948 1.349 . S
C949 C965 1.349 . S
C950 C948 1.327 . S
C950 C969 1.429 . S
C950 H974 0.950 . S
C951 C968 1.574 . S
C951 C970 1.368 . S
C951 H975 0.949 . S
H952 C956 0.949 . S
C953 C954 1.349 . S
C953 C955 1.327 . S
C953 H976 0.950 . S
C954 C953 1.349 . S
C954 C966 1.349 . S
C955 C953 1.327 . S
C955 C971 1.429 . S
C955 H977 0.950 . S
C956 H952 0.949 . S
C956 C964 1.574 . S
C956 C972 1.368 . S
H957 C965 0.950 . S
H958 C963 0.950 . S
H959 C964 0.949 . S
H960 C966 0.950 . S
H961 C967 0.950 . S
H962 C968 0.949 . S
C963 H958 0.950 . S
C963 C965 1.327 . S
C963 C969 1.429 . S
C964 C956 1.574 . S
C964 H959 0.949 . S
C964 C970 1.368 . S
C965 C949 1.349 . S
C965 H957 0.950 . S
C965 C963 1.327 . S
C966 C954 1.349 . S
C966 H960 0.950 . S
C966 C967 1.327 . S
C967 H961 0.950 . S
C967 C966 1.327 . S
C967 C971 1.429 . S
C968 C951 1.574 . S
C968 H962 0.949 . S
C968 C972 1.368 . S
C969 C950 1.429 . S
C969 C963 1.429 . S
C969 C970 1.523 . S
C970 C951 1.368 . S
C970 C964 1.368 . S
C970 C969 1.523 . S
C971 C955 1.429 . S
C971 C967 1.429 . S
C971 C972 1.523 . S
C972 C956 1.368 . S
C972 C968 1.368 . S
C972 C971 1.523 . S
H973 C948 0.950 . S
H974 C950 0.950 . S
H975 C951 0.949 . S
H976 C953 0.950 . S
H977 C955 0.950 . S
C978 C979 1.349 . S
C978 C980 1.327 . S
C978 H1003 0.950 . S
C979 C978 1.349 . S
C979 C995 1.349 . S
C980 C978 1.327 . S
C980 C999 1.429 . S
C980 H1004 0.950 . S
C981 C998 1.574 . S
C981 C1000 1.368 . S
C981 H1005 0.949 . S
H982 C986 0.949 . S
C983 C984 1.349 . S
C983 C985 1.327 . S
C983 H1006 0.950 . S
C984 C983 1.349 . S
C984 C996 1.349 . S
C985 C983 1.327 . S
C985 C1001 1.429 . S
C985 H1007 0.950 . S
C986 H982 0.949 . S
C986 C994 1.574 . S
C986 C1002 1.368 . S
H987 C995 0.950 . S
H988 C993 0.950 . S
H989 C994 0.949 . S
H990 C996 0.950 . S
H991 C997 0.950 . S
H992 C998 0.949 . S
C993 H988 0.950 . S
C993 C995 1.327 . S
C993 C999 1.429 . S
C994 C986 1.574 . S
C994 H989 0.949 . S
C994 C1000 1.368 . S
C995 C979 1.349 . S
C995 H987 0.950 . S
C995 C993 1.327 . S
C996 C984 1.349 . S
C996 H990 0.950 . S
C996 C997 1.327 . S
C997 H991 0.950 . S
C997 C996 1.327 . S
C997 C1001 1.429 . S
C998 C981 1.574 . S
C998 H992 0.949 . S
C998 C1002 1.368 . S
C999 C980 1.429 . S
C999 C993 1.429 . S
C999 C1000 1.523 . S
C1000 C981 1.368 . S
C1000 C994 1.368 . S
C1000 C999 1.523 . S
C1001 C985 1.429 . S
C1001 C997 1.429 . S
C1001 C1002 1.523 . S
C1002 C986 1.368 . S
C1002 C998 1.368 . S
C1002 C1001 1.523 . S
H1003 C978 0.950 . S
H1004 C980 0.950 . S
H1005 C981 0.949 . S
H1006 C983 0.950 . S
H1007 C985 0.950 . S
C1008 C1009 1.349 . S
C1008 C1010 1.327 . S
C1008 H1033 0.950 . S
C1009 C1008 1.349 . S
C1009 C1025 1.349 . S
C1010 C1008 1.327 . S
C1010 C1029 1.429 . S
C1010 H1034 0.950 . S
C1011 C1028 1.574 . S
C1011 C1030 1.368 . S
C1011 H1035 0.949 . S
H1012 C1016 0.949 . S
C1013 C1014 1.349 . S
C1013 C1015 1.327 . S
C1013 H1036 0.950 . S
C1014 C1013 1.349 . S
C1014 C1026 1.349 . S
C1015 C1013 1.327 . S
C1015 C1031 1.429 . S
C1015 H1037 0.950 . S
C1016 H1012 0.949 . S
C1016 C1024 1.574 . S
C1016 C1032 1.368 . S
H1017 C1025 0.950 . S
H1018 C1023 0.950 . S
H1019 C1024 0.949 . S
H1020 C1026 0.950 . S
H1021 C1027 0.950 . S
H1022 C1028 0.949 . S
C1023 H1018 0.950 . S
C1023 C1025 1.327 . S
C1023 C1029 1.429 . S
C1024 C1016 1.574 . S
C1024 H1019 0.949 . S
C1024 C1030 1.368 . S
C1025 C1009 1.349 . S
C1025 H1017 0.950 . S
C1025 C1023 1.327 . S
C1026 C1014 1.349 . S
C1026 H1020 0.950 . S
C1026 C1027 1.327 . S
C1027 H1021 0.950 . S
C1027 C1026 1.327 . S
C1027 C1031 1.429 . S
C1028 C1011 1.574 . S
C1028 H1022 0.949 . S
C1028 C1032 1.368 . S
C1029 C1010 1.429 . S
C1029 C1023 1.429 . S
C1029 C1030 1.523 . S
C1030 C1011 1.368 . S
C1030 C1024 1.368 . S
C1030 C1029 1.523 . S
C1031 C1015 1.429 . S
C1031 C1027 1.429 . S
C1031 C1032 1.523 . S
C1032 C1016 1.368 . S
C1032 C1028 1.368 . S
C1032 C1031 1.523 . S
H1033 C1008 0.950 . S
H1034 C1010 0.950 . S
H1035 C1011 0.949 . S
H1036 C1013 0.950 . S
H1037 C1015 0.950 . S
C1038 C1039 1.349 . S
C1038 C1040 1.327 . S
C1038 H1063 0.950 . S
C1039 C1038 1.349 . S
C1039 C1055 1.349 . S
C1040 C1038 1.327 . S
C1040 C1059 1.429 . S
C1040 H1064 0.950 . S
C1041 C1058 1.574 . S
C1041 C1060 1.368 . S
C1041 H1065 0.949 . S
H1042 C1046 0.949 . S
C1043 C1044 1.349 . S
C1043 C1045 1.327 . S
C1043 H1066 0.950 . S
C1044 C1043 1.349 . S
C1044 C1056 1.349 . S
C1045 C1043 1.327 . S
C1045 C1061 1.429 . S
C1045 H1067 0.950 . S
C1046 H1042 0.949 . S
C1046 C1054 1.574 . S
C1046 C1062 1.368 . S
H1047 C1055 0.950 . S
H1048 C1053 0.950 . S
H1049 C1054 0.949 . S
H1050 C1056 0.950 . S
H1051 C1057 0.950 . S
H1052 C1058 0.949 . S
C1053 H1048 0.950 . S
C1053 C1055 1.327 . S
C1053 C1059 1.429 . S
C1054 C1046 1.574 . S
C1054 H1049 0.949 . S
C1054 C1060 1.368 . S
C1055 C1039 1.349 . S
C1055 H1047 0.950 . S
C1055 C1053 1.327 . S
C1056 C1044 1.349 . S
C1056 H1050 0.950 . S
C1056 C1057 1.327 . S
C1057 H1051 0.950 . S
C1057 C1056 1.327 . S
C1057 C1061 1.429 . S
C1058 C1041 1.574 . S
C1058 H1052 0.949 . S
C1058 C1062 1.368 . S
C1059 C1040 1.429 . S
C1059 C1053 1.429 . S
C1059 C1060 1.523 . S
C1060 C1041 1.368 . S
C1060 C1054 1.368 . S
C1060 C1059 1.523 . S
C1061 C1045 1.429 . S
C1061 C1057 1.429 . S
C1061 C1062 1.523 . S
C1062 C1046 1.368 . S
C1062 C1058 1.368 . S
C1062 C1061 1.523 . S
H1063 C1038 0.950 . S
H1064 C1040 0.950 . S
H1065 C1041 0.949 . S
H1066 C1043 0.950 . S
H1067 C1045 0.950 . S
C1068 C1069 1.349 . S
C1068 C1070 1.327 . S
C1068 H1093 0.950 . S
C1069 C1068 1.349 . S
C1069 C1085 1.349 . S
C1070 C1068 1.327 . S
C1070 C1089 1.429 . S
C1070 H1094 0.950 . S
C1071 C1088 1.574 . S
C1071 C1090 1.368 . S
C1071 H1095 0.949 . S
H1072 C1076 0.949 . S
C1073 C1074 1.349 . S
C1073 C1075 1.327 . S
C1073 H1096 0.950 . S
C1074 C1073 1.349 . S
C1074 C1086 1.349 . S
C1075 C1073 1.327 . S
C1075 C1091 1.429 . S
C1075 H1097 0.950 . S
C1076 H1072 0.949 . S
C1076 C1084 1.574 . S
C1076 C1092 1.368 . S
H1077 C1085 0.950 . S
H1078 C1083 0.950 . S
H1079 C1084 0.949 . S
H1080 C1086 0.950 . S
H1081 C1087 0.950 . S
H1082 C1088 0.949 . S
C1083 H1078 0.950 . S
C1083 C1085 1.327 . S
C1083 C1089 1.429 . S
C1084 C1076 1.574 . S
C1084 H1079 0.949 . S
C1084 C1090 1.368 . S
C1085 C1069 1.349 . S
C1085 H1077 0.950 . S
C1085 C1083 1.327 . S
C1086 C1074 1.349 . S
C1086 H1080 0.950 . S
C1086 C1087 1.327 . S
C1087 H1081 0.950 . S
C1087 C1086 1.327 . S
C1087 C1091 1.429 . S
C1088 C1071 1.574 . S
C1088 H1082 0.949 . S
C1088 C1092 1.368 . S
C1089 C1070 1.429 . S
C1089 C1083 1.429 . S
C1089 C1090 1.523 . S
C1090 C1071 1.368 . S
C1090 C1084 1.368 . S
C1090 C1089 1.523 . S
C1091 C1075 1.429 . S
C1091 C1087 1.429 . S
C1091 C1092 1.523 . S
C1092 C1076 1.368 . S
C1092 C1088 1.368 . S
C1092 C1091 1.523 . S
H1093 C1068 0.950 . S
H1094 C1070 0.950 . S
H1095 C1071 0.949 . S
H1096 C1073 0.950 . S
H1097 C1075 0.950 . S
C1098 C1099 1.349 . S
C1098 C1100 1.327 . S
C1098 H1123 0.950 . S
C1099 C1098 1.349 . S
C1099 C1115 1.349 . S
C1100 C1098 1.327 . S
C1100 C1119 1.429 . S
C1100 H1124 0.950 . S
C1101 C1118 1.574 . S
C1101 C1120 1.368 . S
C1101 H1125 0.949 . S
H1102 C1106 0.949 . S
C1103 C1104 1.349 . S
C1103 C1105 1.327 . S
C1103 H1126 0.950 . S
C1104 C1103 1.349 . S
C1104 C1116 1.349 . S
C1105 C1103 1.327 . S
C1105 C1121 1.429 . S
C1105 H1127 0.950 . S
C1106 H1102 0.949 . S
C1106 C1114 1.574 . S
C1106 C1122 1.368 . S
H1107 C1115 0.950 . S
H1108 C1113 0.950 . S
H1109 C1114 0.949 . S
H1110 C1116 0.950 . S
H1111 C1117 0.950 . S
H1112 C1118 0.949 . S
C1113 H1108 0.950 . S
C1113 C1115 1.327 . S
C1113 C1119 1.429 . S
C1114 C1106 1.574 . S
C1114 H1109 0.949 . S
C1114 C1120 1.368 . S
C1115 C1099 1.349 . S
C1115 H1107 0.950 . S
C1115 C1113 1.327 . S
C1116 C1104 1.349 . S
C1116 H1110 0.950 . S
C1116 C1117 1.327 . S
C1117 H1111 0.950 . S
C1117 C1116 1.327 . S
C1117 C1121 1.429 . S
C1118 C1101 1.574 . S
C1118 H1112 0.949 . S
C1118 C1122 1.368 . S
C1119 C1100 1.429 . S
C1119 C1113 1.429 . S
C1119 C1120 1.523 . S
C1120 C1101 1.368 . S
C1120 C1114 1.368 . S
C1120 C1119 1.523 . S
C1121 C1105 1.429 . S
C1121 C1117 1.429 . S
C1121 C1122 1.523 . S
C1122 C1106 1.368 . S
C1122 C1118 1.368 . S
C1122 C1121 1.523 . S
H1123 C1098 0.950 . S
H1124 C1100 0.950 . S
H1125 C1101 0.949 . S
H1126 C1103 0.950 . S
H1127 C1105 0.950 . S
C1128 C1129 1.349 . S
C1128 C1130 1.327 . S
C1128 H1153 0.950 . S
C1129 C1128 1.349 . S
C1129 C1145 1.349 . S
C1130 C1128 1.327 . S
C1130 C1149 1.429 . S
C1130 H1154 0.950 . S
C1131 C1148 1.574 . S
C1131 C1150 1.368 . S
C1131 H1155 0.949 . S
H1132 C1136 0.949 . S
C1133 C1134 1.349 . S
C1133 C1135 1.327 . S
C1133 H1156 0.950 . S
C1134 C1133 1.349 . S
C1134 C1146 1.349 . S
C1135 C1133 1.327 . S
C1135 C1151 1.429 . S
C1135 H1157 0.950 . S
C1136 H1132 0.949 . S
C1136 C1144 1.574 . S
C1136 C1152 1.368 . S
H1137 C1145 0.950 . S
H1138 C1143 0.950 . S
H1139 C1144 0.949 . S
H1140 C1146 0.950 . S
H1141 C1147 0.950 . S
H1142 C1148 0.949 . S
C1143 H1138 0.950 . S
C1143 C1145 1.327 . S
C1143 C1149 1.429 . S
C1144 C1136 1.574 . S
C1144 H1139 0.949 . S
C1144 C1150 1.368 . S
C1145 C1129 1.349 . S
C1145 H1137 0.950 . S
C1145 C1143 1.327 . S
C1146 C1134 1.349 . S
C1146 H1140 0.950 . S
C1146 C1147 1.327 . S
C1147 H1141 0.950 . S
C1147 C1146 1.327 . S
C1147 C1151 1.429 . S
C1148 C1131 1.574 . S
C1148 H1142 0.949 . S
C1148 C1152 1.368 . S
C1149 C1130 1.429 . S
C1149 C1143 1.429 . S
C1149 C1150 1.523 . S
C1150 C1131 1.368 . S
C1150 C1144 1.368 . S
C1150 C1149 1.523 . S
C1151 C1135 1.429 . S
C1151 C1147 1.429 . S
C1151 C1152 1.523 . S
C1152 C1136 1.368 . S
C1152 C1148 1.368 . S
C1152 C1151 1.523 . S
H1153 C1128 0.950 . S
H1154 C1130 0.950 . S
H1155 C1131 0.949 . S
H1156 C1133 0.950 . S
H1157 C1135 0.950 . S
C1158 C1159 1.349 . S
C1158 C1160 1.327 . S
C1158 H1183 0.950 . S
C1159 C1158 1.349 . S
C1159 C1175 1.349 . S
C1160 C1158 1.327 . S
C1160 C1179 1.429 . S
C1160 H1184 0.950 . S
C1161 C1178 1.574 . S
C1161 C1180 1.368 . S
C1161 H1185 0.949 . S
H1162 C1166 0.949 . S
C1163 C1164 1.349 . S
C1163 C1165 1.327 . S
C1163 H1186 0.950 . S
C1164 C1163 1.349 . S
C1164 C1176 1.349 . S
C1165 C1163 1.327 . S
C1165 C1181 1.429 . S
C1165 H1187 0.950 . S
C1166 H1162 0.949 . S
C1166 C1174 1.574 . S
C1166 C1182 1.368 . S
H1167 C1175 0.950 . S
H1168 C1173 0.950 . S
H1169 C1174 0.949 . S
H1170 C1176 0.950 . S
H1171 C1177 0.950 . S
H1172 C1178 0.949 . S
C1173 H1168 0.950 . S
C1173 C1175 1.327 . S
C1173 C1179 1.429 . S
C1174 C1166 1.574 . S
C1174 H1169 0.949 . S
C1174 C1180 1.368 . S
C1175 C1159 1.349 . S
C1175 H1167 0.950 . S
C1175 C1173 1.327 . S
C1176 C1164 1.349 . S
C1176 H1170 0.950 . S
C1176 C1177 1.327 . S
C1177 H1171 0.950 . S
C1177 C1176 1.327 . S
C1177 C1181 1.429 . S
C1178 C1161 1.574 . S
C1178 H1172 0.949 . S
C1178 C1182 1.368 . S
C1179 C1160 1.429 . S
C1179 C1173 1.429 . S
C1179 C1180 1.523 . S
C1180 C1161 1.368 . S
C1180 C1174 1.368 . S
C1180 C1179 1.523 . S
C1181 C1165 1.429 . S
C1181 C1177 1.429 . S
C1181 C1182 1.523 . S
C1182 C1166 1.368 . S
C1182 C1178 1.368 . S
C1182 C1181 1.523 . S
H1183 C1158 0.950 . S
H1184 C1160 0.950 . S
H1185 C1161 0.949 . S
H1186 C1163 0.950 . S
H1187 C1165 0.950 . S
C1188 C1189 1.349 . S
C1188 C1190 1.327 . S
C1188 H1213 0.950 . S
C1189 C1188 1.349 . S
C1189 C1205 1.349 . S
C1190 C1188 1.327 . S
C1190 C1209 1.429 . S
C1190 H1214 0.950 . S
C1191 C1208 1.574 . S
C1191 C1210 1.368 . S
C1191 H1215 0.949 . S
H1192 C1196 0.949 . S
C1193 C1194 1.349 . S
C1193 C1195 1.327 . S
C1193 H1216 0.950 . S
C1194 C1193 1.349 . S
C1194 C1206 1.349 . S
C1195 C1193 1.327 . S
C1195 C1211 1.429 . S
C1195 H1217 0.950 . S
C1196 H1192 0.949 . S
C1196 C1204 1.574 . S
C1196 C1212 1.368 . S
H1197 C1205 0.950 . S
H1198 C1203 0.950 . S
H1199 C1204 0.949 . S
H1200 C1206 0.950 . S
H1201 C1207 0.950 . S
H1202 C1208 0.949 . S
C1203 H1198 0.950 . S
C1203 C1205 1.327 . S
C1203 C1209 1.429 . S
C1204 C1196 1.574 . S
C1204 H1199 0.949 . S
C1204 C1210 1.368 . S
C1205 C1189 1.349 . S
C1205 H1197 0.950 . S
C1205 C1203 1.327 . S
C1206 C1194 1.349 . S
C1206 H1200 0.950 . S
C1206 C1207 1.327 . S
C1207 H1201 0.950 . S
C1207 C1206 1.327 . S
C1207 C1211 1.429 . S
C1208 C1191 1.574 . S
C1208 H1202 0.949 . S
C1208 C1212 1.368 . S
C1209 C1190 1.429 . S
C1209 C1203 1.429 . S
C1209 C1210 1.523 . S
C1210 C1191 1.368 . S
C1210 C1204 1.368 . S
C1210 C1209 1.523 . S
C1211 C1195 1.429 . S
C1211 C1207 1.429 . S
C1211 C1212 1.523 . S
C1212 C1196 1.368 . S
C1212 C1208 1.368 . S
C1212 C1211 1.523 . S
H1213 C1188 0.950 . S
H1214 C1190 0.950 . S
H1215 C1191 0.949 . S
H1216 C1193 0.950 . S
H1217 C1195 0.950 . S
C1218 C1219 1.349 . S
C1218 C1220 1.327 . S
C1218 H1243 0.950 . S
C1219 C1218 1.349 . S
C1219 C1235 1.349 . S
C1220 C1218 1.327 . S
C1220 C1239 1.429 . S
C1220 H1244 0.950 . S
C1221 C1238 1.574 . S
C1221 C1240 1.368 . S
C1221 H1245 0.949 . S
H1222 C1226 0.949 . S
C1223 C1224 1.349 . S
C1223 C1225 1.327 . S
C1223 H1246 0.950 . S
C1224 C1223 1.349 . S
C1224 C1236 1.349 . S
C1225 C1223 1.327 . S
C1225 C1241 1.429 . S
C1225 H1247 0.950 . S
C1226 H1222 0.949 . S
C1226 C1234 1.574 . S
C1226 C1242 1.368 . S
H1227 C1235 0.950 . S
H1228 C1233 0.950 . S
H1229 C1234 0.949 . S
H1230 C1236 0.950 . S
H1231 C1237 0.950 . S
H1232 C1238 0.949 . S
C1233 H1228 0.950 . S
C1233 C1235 1.327 . S
C1233 C1239 1.429 . S
C1234 C1226 1.574 . S
C1234 H1229 0.949 . S
C1234 C1240 1.368 . S
C1235 C1219 1.349 . S
C1235 H1227 0.950 . S
C1235 C1233 1.327 . S
C1236 C1224 1.349 . S
C1236 H1230 0.950 . S
C1236 C1237 1.327 . S
C1237 H1231 0.950 . S
C1237 C1236 1.327 . S
C1237 C1241 1.429 . S
C1238 C1221 1.574 . S
C1238 H1232 0.949 . S
C1238 C1242 1.368 . S
C1239 C1220 1.429 . S
C1239 C1233 1.429 . S
C1239 C1240 1.523 . S
C1240 C1221 1.368 . S
C1240 C1234 1.368 . S
C1240 C1239 1.523 . S
C1241 C1225 1.429 . S
C1241 C1237 1.429 . S
C1241 C1242 1.523 . S
C1242 C1226 1.368 . S
C1242 C1238 1.368 . S
C1242 C1241 1.523 . S
H1243 C1218 0.950 . S
H1244 C1220 0.950 . S
H1245 C1221 0.949 . S
H1246 C1223 0.950 . S
H1247 C1225 0.950 . S
C1248 C1249 1.349 . S
C1248 C1250 1.327 . S
C1248 H1273 0.950 . S
C1249 C1248 1.349 . S
C1249 C1265 1.349 . S
C1250 C1248 1.327 . S
C1250 C1269 1.429 . S
C1250 H1274 0.950 . S
C1251 C1268 1.574 . S
C1251 C1270 1.368 . S
C1251 H1275 0.949 . S
H1252 C1256 0.949 . S
C1253 C1254 1.349 . S
C1253 C1255 1.327 . S
C1253 H1276 0.950 . S
C1254 C1253 1.349 . S
C1254 C1266 1.349 . S
C1255 C1253 1.327 . S
C1255 C1271 1.429 . S
C1255 H1277 0.950 . S
C1256 H1252 0.949 . S
C1256 C1264 1.574 . S
C1256 C1272 1.368 . S
H1257 C1265 0.950 . S
H1258 C1263 0.950 . S
H1259 C1264 0.949 . S
H1260 C1266 0.950 . S
H1261 C1267 0.950 . S
H1262 C1268 0.949 . S
C1263 H1258 0.950 . S
C1263 C1265 1.327 . S
C1263 C1269 1.429 . S
C1264 C1256 1.574 . S
C1264 H1259 0.949 . S
C1264 C1270 1.368 . S
C1265 C1249 1.349 . S
C1265 H1257 0.950 . S
C1265 C1263 1.327 . S
C1266 C1254 1.349 . S
C1266 H1260 0.950 . S
C1266 C1267 1.327 . S
C1267 H1261 0.950 . S
C1267 C1266 1.327 . S
C1267 C1271 1.429 . S
C1268 C1251 1.574 . S
C1268 H1262 0.949 . S
C1268 C1272 1.368 . S
C1269 C1250 1.429 . S
C1269 C1263 1.429 . S
C1269 C1270 1.523 . S
C1270 C1251 1.368 . S
C1270 C1264 1.368 . S
C1270 C1269 1.523 . S
C1271 C1255 1.429 . S
C1271 C1267 1.429 . S
C1271 C1272 1.523 . S
C1272 C1256 1.368 . S
C1272 C1268 1.368 . S
C1272 C1271 1.523 . S
H1273 C1248 0.950 . S
H1274 C1250 0.950 . S
H1275 C1251 0.949 . S
H1276 C1253 0.950 . S
H1277 C1255 0.950 . S
C1278 C1279 1.349 . S
C1278 C1280 1.327 . S
C1278 H1303 0.950 . S
C1279 C1278 1.349 . S
C1279 C1295 1.349 . S
C1280 C1278 1.327 . S
C1280 C1299 1.429 . S
C1280 H1304 0.950 . S
C1281 C1298 1.574 . S
C1281 C1300 1.368 . S
C1281 H1305 0.949 . S
H1282 C1286 0.949 . S
C1283 C1284 1.349 . S
C1283 C1285 1.327 . S
C1283 H1306 0.950 . S
C1284 C1283 1.349 . S
C1284 C1296 1.349 . S
C1285 C1283 1.327 . S
C1285 C1301 1.429 . S
C1285 H1307 0.950 . S
C1286 H1282 0.949 . S
C1286 C1294 1.574 . S
C1286 C1302 1.368 . S
H1287 C1295 0.950 . S
H1288 C1293 0.950 . S
H1289 C1294 0.949 . S
H1290 C1296 0.950 . S
H1291 C1297 0.950 . S
H1292 C1298 0.949 . S
C1293 H1288 0.950 . S
C1293 C1295 1.327 . S
C1293 C1299 1.429 . S
C1294 C1286 1.574 . S
C1294 H1289 0.949 . S
C1294 C1300 1.368 . S
C1295 C1279 1.349 . S
C1295 H1287 0.950 . S
C1295 C1293 1.327 . S
C1296 C1284 1.349 . S
C1296 H1290 0.950 . S
C1296 C1297 1.327 . S
C1297 H1291 0.950 . S
C1297 C1296 1.327 . S
C1297 C1301 1.429 . S
C1298 C1281 1.574 . S
C1298 H1292 0.949 . S
C1298 C1302 1.368 . S
C1299 C1280 1.429 . S
C1299 C1293 1.429 . S
C1299 C1300 1.523 . S
C1300 C1281 1.368 . S
C1300 C1294 1.368 . S
C1300 C1299 1.523 . S
C1301 C1285 1.429 . S
C1301 C1297 1.429 . S
C1301 C1302 1.523 . S
C1302 C1286 1.368 . S
C1302 C1298 1.368 . S
C1302 C1301 1.523 . S
H1303 C1278 0.950 . S
H1304 C1280 0.950 . S
H1305 C1281 0.949 . S
H1306 C1283 0.950 . S
H1307 C1285 0.950 . S
C1308 C1309 1.349 . S
C1308 C1310 1.327 . S
C1308 H1333 0.950 . S
C1309 C1308 1.349 . S
C1309 C1325 1.349 . S
C1310 C1308 1.327 . S
C1310 C1329 1.429 . S
C1310 H1334 0.950 . S
C1311 C1328 1.574 . S
C1311 C1330 1.368 . S
C1311 H1335 0.949 . S
H1312 C1316 0.949 . S
C1313 C1314 1.349 . S
C1313 C1315 1.327 . S
C1313 H1336 0.950 . S
C1314 C1313 1.349 . S
C1314 C1326 1.349 . S
C1315 C1313 1.327 . S
C1315 C1331 1.429 . S
C1315 H1337 0.950 . S
C1316 H1312 0.949 . S
C1316 C1324 1.574 . S
C1316 C1332 1.368 . S
H1317 C1325 0.950 . S
H1318 C1323 0.950 . S
H1319 C1324 0.949 . S
H1320 C1326 0.950 . S
H1321 C1327 0.950 . S
H1322 C1328 0.949 . S
C1323 H1318 0.950 . S
C1323 C1325 1.327 . S
C1323 C1329 1.429 . S
C1324 C1316 1.574 . S
C1324 H1319 0.949 . S
C1324 C1330 1.368 . S
C1325 C1309 1.349 . S
C1325 H1317 0.950 . S
C1325 C1323 1.327 . S
C1326 C1314 1.349 . S
C1326 H1320 0.950 . S
C1326 C1327 1.327 . S
C1327 H1321 0.950 . S
C1327 C1326 1.327 . S
C1327 C1331 1.429 . S
C1328 C1311 1.574 . S
C1328 H1322 0.949 . S
C1328 C1332 1.368 . S
C1329 C1310 1.429 . S
C1329 C1323 1.429 . S
C1329 C1330 1.523 . S
C1330 C1311 1.368 . S
C1330 C1324 1.368 . S
C1330 C1329 1.523 . S
C1331 C1315 1.429 . S
C1331 C1327 1.429 . S
C1331 C1332 1.523 . S
C1332 C1316 1.368 . S
C1332 C1328 1.368 . S
C1332 C1331 1.523 . S
H1333 C1308 0.950 . S
H1334 C1310 0.950 . S
H1335 C1311 0.949 . S
H1336 C1313 0.950 . S
H1337 C1315 0.950 . S
C1338 C1339 1.349 . S
C1338 C1340 1.327 . S
C1338 H1363 0.950 . S
C1339 C1338 1.349 . S
C1339 C1355 1.349 . S
C1340 C1338 1.327 . S
C1340 C1359 1.429 . S
C1340 H1364 0.950 . S
C1341 C1358 1.574 . S
C1341 C1360 1.368 . S
C1341 H1365 0.949 . S
H1342 C1346 0.949 . S
C1343 C1344 1.349 . S
C1343 C1345 1.327 . S
C1343 H1366 0.950 . S
C1344 C1343 1.349 . S
C1344 C1356 1.349 . S
C1345 C1343 1.327 . S
C1345 C1361 1.429 . S
C1345 H1367 0.950 . S
C1346 H1342 0.949 . S
C1346 C1354 1.574 . S
C1346 C1362 1.368 . S
H1347 C1355 0.950 . S
H1348 C1353 0.950 . S
H1349 C1354 0.949 . S
H1350 C1356 0.950 . S
H1351 C1357 0.950 . S
H1352 C1358 0.949 . S
C1353 H1348 0.950 . S
C1353 C1355 1.327 . S
C1353 C1359 1.429 . S
C1354 C1346 1.574 . S
C1354 H1349 0.949 . S
C1354 C1360 1.368 . S
C1355 C1339 1.349 . S
C1355 H1347 0.950 . S
C1355 C1353 1.327 . S
C1356 C1344 1.349 . S
C1356 H1350 0.950 . S
C1356 C1357 1.327 . S
C1357 H1351 0.950 . S
C1357 C1356 1.327 . S
C1357 C1361 1.429 . S
C1358 C1341 1.574 . S
C1358 H1352 0.949 . S
C1358 C1362 1.368 . S
C1359 C1340 1.429 . S
C1359 C1353 1.429 . S
C1359 C1360 1.523 . S
C1360 C1341 1.368 . S
C1360 C1354 1.368 . S
C1360 C1359 1.523 . S
C1361 C1345 1.429 . S
C1361 C1357 1.429 . S
C1361 C1362 1.523 . S
C1362 C1346 1.368 . S
C1362 C1358 1.368 . S
C1362 C1361 1.523 . S
H1363 C1338 0.950 . S
H1364 C1340 0.950 . S
H1365 C1341 0.949 . S
H1366 C1343 0.950 . S
H1367 C1345 0.950 . S
C1368 C1369 1.349 . S
C1368 C1370 1.327 . S
C1368 H1393 0.950 . S
C1369 C1368 1.349 . S
C1369 C1385 1.349 . S
C1370 C1368 1.327 . S
C1370 C1389 1.429 . S
C1370 H1394 0.950 . S
C1371 C1388 1.574 . S
C1371 C1390 1.368 . S
C1371 H1395 0.949 . S
H1372 C1376 0.949 . S
C1373 C1374 1.349 . S
C1373 C1375 1.327 . S
C1373 H1396 0.950 . S
C1374 C1373 1.349 . S
C1374 C1386 1.349 . S
C1375 C1373 1.327 . S
C1375 C1391 1.429 . S
C1375 H1397 0.950 . S
C1376 H1372 0.949 . S
C1376 C1384 1.574 . S
C1376 C1392 1.368 . S
H1377 C1385 0.950 . S
H1378 C1383 0.950 . S
H1379 C1384 0.949 . S
H1380 C1386 0.950 . S
H1381 C1387 0.950 . S
H1382 C1388 0.949 . S
C1383 H1378 0.950 . S
C1383 C1385 1.327 . S
C1383 C1389 1.429 . S
C1384 C1376 1.574 . S
C1384 H1379 0.949 . S
C1384 C1390 1.368 . S
C1385 C1369 1.349 . S
C1385 H1377 0.950 . S
C1385 C1383 1.327 . S
C1386 C1374 1.349 . S
C1386 H1380 0.950 . S
C1386 C1387 1.327 . S
C1387 H1381 0.950 . S
C1387 C1386 1.327 . S
C1387 C1391 1.429 . S
C1388 C1371 1.574 . S
C1388 H1382 0.949 . S
C1388 C1392 1.368 . S
C1389 C1370 1.429 . S
C1389 C1383 1.429 . S
C1389 C1390 1.523 . S
C1390 C1371 1.368 . S
C1390 C1384 1.368 . S
C1390 C1389 1.523 . S
C1391 C1375 1.429 . S
C1391 C1387 1.429 . S
C1391 C1392 1.523 . S
C1392 C1376 1.368 . S
C1392 C1388 1.368 . S
C1392 C1391 1.523 . S
H1393 C1368 0.950 . S
H1394 C1370 0.950 . S
H1395 C1371 0.949 . S
H1396 C1373 0.950 . S
H1397 C1375 0.950 . S
C1398 C1399 1.349 . S
C1398 C1400 1.327 . S
C1398 H1423 0.950 . S
C1399 C1398 1.349 . S
C1399 C1415 1.349 . S
C1400 C1398 1.327 . S
C1400 C1419 1.429 . S
C1400 H1424 0.950 . S
C1401 C1418 1.574 . S
C1401 C1420 1.368 . S
C1401 H1425 0.949 . S
H1402 C1406 0.949 . S
C1403 C1404 1.349 . S
C1403 C1405 1.327 . S
C1403 H1426 0.950 . S
C1404 C1403 1.349 . S
C1404 C1416 1.349 . S
C1405 C1403 1.327 . S
C1405 C1421 1.429 . S
C1405 H1427 0.950 . S
C1406 H1402 0.949 . S
C1406 C1414 1.574 . S
C1406 C1422 1.368 . S
H1407 C1415 0.950 . S
H1408 C1413 0.950 . S
H1409 C1414 0.949 . S
H1410 C1416 0.950 . S
H1411 C1417 0.950 . S
H1412 C1418 0.949 . S
C1413 H1408 0.950 . S
C1413 C1415 1.327 . S
C1413 C1419 1.429 . S
C1414 C1406 1.574 . S
C1414 H1409 0.949 . S
C1414 C1420 1.368 . S
C1415 C1399 1.349 . S
C1415 H1407 0.950 . S
C1415 C1413 1.327 . S
C1416 C1404 1.349 . S
C1416 H1410 0.950 . S
C1416 C1417 1.327 . S
C1417 H1411 0.950 . S
C1417 C1416 1.327 . S
C1417 C1421 1.429 . S
C1418 C1401 1.574 . S
C1418 H1412 0.949 . S
C1418 C1422 1.368 . S
C1419 C1400 1.429 . S
C1419 C1413 1.429 . S
C1419 C1420 1.523 . S
C1420 C1401 1.368 . S
C1420 C1414 1.368 . S
C1420 C1419 1.523 . S
C1421 C1405 1.429 . S
C1421 C1417 1.429 . S
C1421 C1422 1.523 . S
C1422 C1406 1.368 . S
C1422 C1418 1.368 . S
C1422 C1421 1.523 . S
H1423 C1398 0.950 . S
H1424 C1400 0.950 . S
H1425 C1401 0.949 . S
H1426 C1403 0.950 . S
H1427 C1405 0.950 . S
C1428 C1429 1.349 . S
C1428 C1430 1.327 . S
C1428 H1453 0.950 . S
C1429 C1428 1.349 . S
C1429 C1445 1.349 . S
C1430 C1428 1.327 . S
C1430 C1449 1.429 . S
C1430 H1454 0.950 . S
C1431 C1448 1.574 . S
C1431 C1450 1.368 . S
C1431 H1455 0.949 . S
H1432 C1436 0.949 . S
C1433 C1434 1.349 . S
C1433 C1435 1.327 . S
C1433 H1456 0.950 . S
C1434 C1433 1.349 . S
C1434 C1446 1.349 . S
C1435 C1433 1.327 . S
C1435 C1451 1.429 . S
C1435 H1457 0.950 . S
C1436 H1432 0.949 . S
C1436 C1444 1.574 . S
C1436 C1452 1.368 . S
H1437 C1445 0.950 . S
H1438 C1443 0.950 . S
H1439 C1444 0.949 . S
H1440 C1446 0.950 . S
H1441 C1447 0.950 . S
H1442 C1448 0.949 . S
C1443 H1438 0.950 . S
C1443 C1445 1.327 . S
C1443 C1449 1.429 . S
C1444 C1436 1.574 . S
C1444 H1439 0.949 . S
C1444 C1450 1.368 . S
C1445 C1429 1.349 . S
C1445 H1437 0.950 . S
C1445 C1443 1.327 . S
C1446 C1434 1.349 . S
C1446 H1440 0.950 . S
C1446 C1447 1.327 . S
C1447 H1441 0.950 . S
C1447 C1446 1.327 . S
C1447 C1451 1.429 . S
C1448 C1431 1.574 . S
C1448 H1442 0.949 . S
C1448 C1452 1.368 . S
C1449 C1430 1.429 . S
C1449 C1443 1.429 . S
C1449 C1450 1.523 . S
C1450 C1431 1.368 . S
C1450 C1444 1.368 . S
C1450 C1449 1.523 . S
C1451 C1435 1.429 . S
C1451 C1447 1.429 . S
C1451 C1452 1.523 . S
C1452 C1436 1.368 . S
C1452 C1448 1.368 . S
C1452 C1451 1.523 . S
H1453 C1428 0.950 . S
H1454 C1430 0.950 . S
H1455 C1431 0.949 . S
H1456 C1433 0.950 . S
H1457 C1435 0.950 . S
C1458 C1459 1.349 . S
C1458 C1460 1.327 . S
C1458 H1483 0.950 . S
C1459 C1458 1.349 . S
C1459 C1475 1.349 . S
C1460 C1458 1.327 . S
C1460 C1479 1.429 . S
C1460 H1484 0.950 . S
C1461 C1478 1.574 . S
C1461 C1480 1.368 . S
C1461 H1485 0.949 . S
H1462 C1466 0.949 . S
C1463 C1464 1.349 . S
C1463 C1465 1.327 . S
C1463 H1486 0.950 . S
C1464 C1463 1.349 . S
C1464 C1476 1.349 . S
C1465 C1463 1.327 . S
C1465 C1481 1.429 . S
C1465 H1487 0.950 . S
C1466 H1462 0.949 . S
C1466 C1474 1.574 . S
C1466 C1482 1.368 . S
H1467 C1475 0.950 . S
H1468 C1473 0.950 . S
H1469 C1474 0.949 . S
H1470 C1476 0.950 . S
H1471 C1477 0.950 . S
H1472 C1478 0.949 . S
C1473 H1468 0.950 . S
C1473 C1475 1.327 . S
C1473 C1479 1.429 . S
C1474 C1466 1.574 . S
C1474 H1469 0.949 . S
C1474 C1480 1.368 . S
C1475 C1459 1.349 . S
C1475 H1467 0.950 . S
C1475 C1473 1.327 . S
C1476 C1464 1.349 . S
C1476 H1470 0.950 . S
C1476 C1477 1.327 . S
C1477 H1471 0.950 . S
C1477 C1476 1.327 . S
C1477 C1481 1.429 . S
C1478 C1461 1.574 . S
C1478 H1472 0.949 . S
C1478 C1482 1.368 . S
C1479 C1460 1.429 . S
C1479 C1473 1.429 . S
C1479 C1480 1.523 . S
C1480 C1461 1.368 . S
C1480 C1474 1.368 . S
C1480 C1479 1.523 . S
C1481 C1465 1.429 . S
C1481 C1477 1.429 . S
C1481 C1482 1.523 . S
C1482 C1466 1.368 . S
C1482 C1478 1.368 . S
C1482 C1481 1.523 . S
H1483 C1458 0.950 . S
H1484 C1460 0.950 . S
H1485 C1461 0.949 . S
H1486 C1463 0.950 . S
H1487 C1465 0.950 . S
C1488 C1489 1.349 . S
C1488 C1490 1.327 . S
C1488 H1513 0.950 . S
C1489 C1488 1.349 . S
C1489 C1505 1.349 1_455 S
C1490 C1488 1.327 . S
C1490 C1509 1.429 . S
C1490 H1514 0.950 . S
C1491 C1508 1.574 . S
C1491 C1510 1.368 1_655 S
C1491 H1515 0.949 . S
H1492 C1496 0.949 . S
C1493 C1494 1.349 . S
C1493 C1495 1.327 . S
C1493 H1516 0.950 . S
C1494 C1493 1.349 . S
C1494 C1506 1.349 1_655 S
C1495 C1493 1.327 . S
C1495 C1511 1.429 . S
C1495 H1517 0.950 . S
C1496 H1492 0.949 . S
C1496 C1504 1.574 . S
C1496 C1512 1.368 1_455 S
H1497 C1505 0.950 . S
H1498 C1503 0.950 . S
H1499 C1504 0.949 . S
H1500 C1506 0.950 . S
H1501 C1507 0.950 . S
H1502 C1508 0.949 . S
C1503 H1498 0.950 . S
C1503 C1505 1.327 . S
C1503 C1509 1.429 1_655 S
C1504 C1496 1.574 . S
C1504 H1499 0.949 . S
C1504 C1510 1.368 . S
C1505 C1489 1.349 1_655 S
C1505 H1497 0.950 . S
C1505 C1503 1.327 . S
C1506 C1494 1.349 1_455 S
C1506 H1500 0.950 . S
C1506 C1507 1.327 . S
C1507 H1501 0.950 . S
C1507 C1506 1.327 . S
C1507 C1511 1.429 1_455 S
C1508 C1491 1.574 . S
C1508 H1502 0.949 . S
C1508 C1512 1.368 . S
C1509 C1490 1.429 . S
C1509 C1503 1.429 1_455 S
C1509 C1510 1.523 . S
C1510 C1491 1.368 1_455 S
C1510 C1504 1.368 . S
C1510 C1509 1.523 . S
C1511 C1495 1.429 . S
C1511 C1507 1.429 1_655 S
C1511 C1512 1.523 . S
C1512 C1496 1.368 1_655 S
C1512 C1508 1.368 . S
C1512 C1511 1.523 . S
H1513 C1488 0.950 . S
H1514 C1490 0.950 . S
H1515 C1491 0.949 . S
H1516 C1493 0.950 . S
H1517 C1495 0.950 . S
C1518 C1519 1.349 1_545 S
C1518 C1520 1.327 . S
C1518 H1543 0.950 . S
C1519 C1518 1.349 1_565 S
C1519 C1535 1.349 . S
C1520 C1518 1.327 . S
C1520 C1539 1.429 1_545 S
C1520 H1544 0.950 . S
C1521 C1538 1.574 . S
C1521 C1540 1.368 . S
C1521 H1545 0.949 . S
H1522 C1526 0.949 . S
C1523 C1524 1.349 1_565 S
C1523 C1525 1.327 . S
C1523 H1546 0.950 . S
C1524 C1523 1.349 1_545 S
C1524 C1536 1.349 . S
C1525 C1523 1.327 . S
C1525 C1541 1.429 1_565 S
C1525 H1547 0.950 . S
C1526 H1522 0.949 . S
C1526 C1534 1.574 . S
C1526 C1542 1.368 . S
H1527 C1535 0.950 . S
H1528 C1533 0.950 . S
H1529 C1534 0.949 . S
H1530 C1536 0.950 . S
H1531 C1537 0.950 . S
H1532 C1538 0.949 . S
C1533 H1528 0.950 . S
C1533 C1535 1.327 . S
C1533 C1539 1.429 . S
C1534 C1526 1.574 . S
C1534 H1529 0.949 . S
C1534 C1540 1.368 1_545 S
C1535 C1519 1.349 . S
C1535 H1527 0.950 . S
C1535 C1533 1.327 . S
C1536 C1524 1.349 . S
C1536 H1530 0.950 . S
C1536 C1537 1.327 . S
C1537 H1531 0.950 . S
C1537 C1536 1.327 . S
C1537 C1541 1.429 . S
C1538 C1521 1.574 . S
C1538 H1532 0.949 . S
C1538 C1542 1.368 1_565 S
C1539 C1520 1.429 1_565 S
C1539 C1533 1.429 . S
C1539 C1540 1.523 . S
C1540 C1521 1.368 . S
C1540 C1534 1.368 1_565 S
C1540 C1539 1.523 . S
C1541 C1525 1.429 1_545 S
C1541 C1537 1.429 . S
C1541 C1542 1.523 . S
C1542 C1526 1.368 . S
C1542 C1538 1.368 1_545 S
C1542 C1541 1.523 . S
H1543 C1518 0.950 . S
H1544 C1520 0.950 . S
H1545 C1521 0.949 . S
H1546 C1523 0.950 . S
H1547 C1525 0.950 . S
C1548 C1549 1.349 1_655 S
C1548 C1550 1.327 . S
C1548 H1573 0.950 . S
C1549 C1548 1.349 1_455 S
C1549 C1565 1.349 . S
C1550 C1548 1.327 . S
C1550 C1569 1.429 1_655 S
C1550 H1574 0.950 . S
C1551 C1568 1.574 . S
C1551 C1570 1.368 . S
C1551 H1575 0.949 . S
H1552 C1556 0.949 . S
C1553 C1554 1.349 1_455 S
C1553 C1555 1.327 . S
C1553 H1576 0.950 . S
C1554 C1553 1.349 1_655 S
C1554 C1566 1.349 . S
C1555 C1553 1.327 . S
C1555 C1571 1.429 1_455 S
C1555 H1577 0.950 . S
C1556 H1552 0.949 . S
C1556 C1564 1.574 . S
C1556 C1572 1.368 . S
H1557 C1565 0.950 . S
H1558 C1563 0.950 . S
H1559 C1564 0.949 . S
H1560 C1566 0.950 . S
H1561 C1567 0.950 . S
H1562 C1568 0.949 . S
C1563 H1558 0.950 . S
C1563 C1565 1.327 . S
C1563 C1569 1.429 . S
C1564 C1556 1.574 . S
C1564 H1559 0.949 . S
C1564 C1570 1.368 1_655 S
C1565 C1549 1.349 . S
C1565 H1557 0.950 . S
C1565 C1563 1.327 . S
C1566 C1554 1.349 . S
C1566 H1560 0.950 . S
C1566 C1567 1.327 . S
C1567 H1561 0.950 . S
C1567 C1566 1.327 . S
C1567 C1571 1.429 . S
C1568 C1551 1.574 . S
C1568 H1562 0.949 . S
C1568 C1572 1.368 1_455 S
C1569 C1550 1.429 1_455 S
C1569 C1563 1.429 . S
C1569 C1570 1.523 . S
C1570 C1551 1.368 . S
C1570 C1564 1.368 1_455 S
C1570 C1569 1.523 . S
C1571 C1555 1.429 1_655 S
C1571 C1567 1.429 . S
C1571 C1572 1.523 . S
C1572 C1556 1.368 . S
C1572 C1568 1.368 1_655 S
C1572 C1571 1.523 . S
H1573 C1548 0.950 . S
H1574 C1550 0.950 . S
H1575 C1551 0.949 . S
H1576 C1553 0.950 . S
H1577 C1555 0.950 . S
C1578 C1579 1.349 . S
C1578 C1580 1.327 . S
C1578 H1603 0.950 . S
C1579 C1578 1.349 . S
C1579 C1595 1.349 1_545 S
C1580 C1578 1.327 . S
C1580 C1599 1.429 . S
C1580 H1604 0.950 . S
C1581 C1598 1.574 . S
C1581 C1600 1.368 1_565 S
C1581 H1605 0.949 . S
H1582 C1586 0.949 . S
C1583 C1584 1.349 . S
C1583 C1585 1.327 . S
C1583 H1606 0.950 . S
C1584 C1583 1.349 . S
C1584 C1596 1.349 1_565 S
C1585 C1583 1.327 . S
C1585 C1601 1.429 . S
C1585 H1607 0.950 . S
C1586 H1582 0.949 . S
C1586 C1594 1.574 . S
C1586 C1602 1.368 1_545 S
H1587 C1595 0.950 . S
H1588 C1593 0.950 . S
H1589 C1594 0.949 . S
H1590 C1596 0.950 . S
H1591 C1597 0.950 . S
H1592 C1598 0.949 . S
C1593 H1588 0.950 . S
C1593 C1595 1.327 . S
C1593 C1599 1.429 1_565 S
C1594 C1586 1.574 . S
C1594 H1589 0.949 . S
C1594 C1600 1.368 . S
C1595 C1579 1.349 1_565 S
C1595 H1587 0.950 . S
C1595 C1593 1.327 . S
C1596 C1584 1.349 1_545 S
C1596 H1590 0.950 . S
C1596 C1597 1.327 . S
C1597 H1591 0.950 . S
C1597 C1596 1.327 . S
C1597 C1601 1.429 1_545 S
C1598 C1581 1.574 . S
C1598 H1592 0.949 . S
C1598 C1602 1.368 . S
C1599 C1580 1.429 . S
C1599 C1593 1.429 1_545 S
C1599 C1600 1.523 . S
C1600 C1581 1.368 1_545 S
C1600 C1594 1.368 . S
C1600 C1599 1.523 . S
C1601 C1585 1.429 . S
C1601 C1597 1.429 1_565 S
C1601 C1602 1.523 . S
C1602 C1586 1.368 1_565 S
C1602 C1598 1.368 . S
C1602 C1601 1.523 . S
H1603 C1578 0.950 . S
H1604 C1580 0.950 . S
H1605 C1581 0.949 . S
H1606 C1583 0.950 . S
H1607 C1585 0.950 . S
C1608 C1609 1.349 . S
C1608 C1610 1.327 . S
C1608 H1633 0.950 . S
C1609 C1608 1.349 . S
C1609 C1625 1.349 . S
C1610 C1608 1.327 . S
C1610 C1629 1.429 . S
C1610 H1634 0.950 . S
C1611 C1628 1.574 1_556 S
C1611 C1630 1.368 . S
C1611 H1635 0.949 . S
H1612 C1616 0.949 . S
C1613 C1614 1.349 . S
C1613 C1615 1.327 . S
C1613 H1636 0.950 . S
C1614 C1613 1.349 . S
C1614 C1626 1.349 . S
C1615 C1613 1.327 . S
C1615 C1631 1.429 . S
C1615 H1637 0.950 . S
C1616 H1612 0.949 . S
C1616 C1624 1.574 1_554 S
C1616 C1632 1.368 . S
H1617 C1625 0.950 . S
H1618 C1623 0.950 . S
H1619 C1624 0.949 . S
H1620 C1626 0.950 . S
H1621 C1627 0.950 . S
H1622 C1628 0.949 . S
C1623 H1618 0.950 . S
C1623 C1625 1.327 . S
C1623 C1629 1.429 . S
C1624 C1616 1.574 1_556 S
C1624 H1619 0.949 . S
C1624 C1630 1.368 . S
C1625 C1609 1.349 . S
C1625 H1617 0.950 . S
C1625 C1623 1.327 . S
C1626 C1614 1.349 . S
C1626 H1620 0.950 . S
C1626 C1627 1.327 . S
C1627 H1621 0.950 . S
C1627 C1626 1.327 . S
C1627 C1631 1.429 . S
C1628 C1611 1.574 1_554 S
C1628 H1622 0.949 . S
C1628 C1632 1.368 . S
C1629 C1610 1.429 . S
C1629 C1623 1.429 . S
C1629 C1630 1.523 . S
C1630 C1611 1.368 . S
C1630 C1624 1.368 . S
C1630 C1629 1.523 . S
C1631 C1615 1.429 . S
C1631 C1627 1.429 . S
C1631 C1632 1.523 . S
C1632 C1616 1.368 . S
C1632 C1628 1.368 . S
C1632 C1631 1.523 . S
H1633 C1608 0.950 . S
H1634 C1610 0.950 . S
H1635 C1611 0.949 . S
H1636 C1613 0.950 . S
H1637 C1615 0.950 . S
C1638 C1639 1.349 . S
C1638 C1640 1.327 . S
C1638 H1663 0.950 . S
C1639 C1638 1.349 . S
C1639 C1655 1.349 . S
C1640 C1638 1.327 . S
C1640 C1659 1.429 . S
C1640 H1664 0.950 . S
C1641 C1658 1.574 1_554 S
C1641 C1660 1.368 . S
C1641 H1665 0.949 . S
H1642 C1646 0.949 . S
C1643 C1644 1.349 . S
C1643 C1645 1.327 . S
C1643 H1666 0.950 . S
C1644 C1643 1.349 . S
C1644 C1656 1.349 . S
C1645 C1643 1.327 . S
C1645 C1661 1.429 . S
C1645 H1667 0.950 . S
C1646 H1642 0.949 . S
C1646 C1654 1.574 1_556 S
C1646 C1662 1.368 . S
H1647 C1655 0.950 . S
H1648 C1653 0.950 . S
H1649 C1654 0.949 . S
H1650 C1656 0.950 . S
H1651 C1657 0.950 . S
H1652 C1658 0.949 . S
C1653 H1648 0.950 . S
C1653 C1655 1.327 . S
C1653 C1659 1.429 . S
C1654 C1646 1.574 1_554 S
C1654 H1649 0.949 . S
C1654 C1660 1.368 . S
C1655 C1639 1.349 . S
C1655 H1647 0.950 . S
C1655 C1653 1.327 . S
C1656 C1644 1.349 . S
C1656 H1650 0.950 . S
C1656 C1657 1.327 . S
C1657 H1651 0.950 . S
C1657 C1656 1.327 . S
C1657 C1661 1.429 . S
C1658 C1641 1.574 1_556 S
C1658 H1652 0.949 . S
C1658 C1662 1.368 . S
C1659 C1640 1.429 . S
C1659 C1653 1.429 . S
C1659 C1660 1.523 . S
C1660 C1641 1.368 . S
C1660 C1654 1.368 . S
C1660 C1659 1.523 . S
C1661 C1645 1.429 . S
C1661 C1657 1.429 . S
C1661 C1662 1.523 . S
C1662 C1646 1.368 . S
C1662 C1658 1.368 . S
C1662 C1661 1.523 . S
H1663 C1638 0.950 . S
H1664 C1640 0.950 . S
H1665 C1641 0.949 . S
H1666 C1643 0.950 . S
H1667 C1645 0.950 . S
C1668 C1669 1.349 . S
C1668 C1670 1.327 . S
C1668 H1693 0.950 . S
C1669 C1668 1.349 . S
C1669 C1685 1.349 . S
C1670 C1668 1.327 . S
C1670 C1689 1.429 . S
C1670 H1694 0.950 . S
C1671 C1688 1.574 1_554 S
C1671 C1690 1.368 . S
C1671 H1695 0.949 . S
H1672 C1676 0.949 . S
C1673 C1674 1.349 . S
C1673 C1675 1.327 . S
C1673 H1696 0.950 . S
C1674 C1673 1.349 . S
C1674 C1686 1.349 . S
C1675 C1673 1.327 . S
C1675 C1691 1.429 . S
C1675 H1697 0.950 . S
C1676 H1672 0.949 . S
C1676 C1684 1.574 1_556 S
C1676 C1692 1.368 . S
H1677 C1685 0.950 . S
H1678 C1683 0.950 . S
H1679 C1684 0.949 . S
H1680 C1686 0.950 . S
H1681 C1687 0.950 . S
H1682 C1688 0.949 . S
C1683 H1678 0.950 . S
C1683 C1685 1.327 . S
C1683 C1689 1.429 . S
C1684 C1676 1.574 1_554 S
C1684 H1679 0.949 . S
C1684 C1690 1.368 . S
C1685 C1669 1.349 . S
C1685 H1677 0.950 . S
C1685 C1683 1.327 . S
C1686 C1674 1.349 . S
C1686 H1680 0.950 . S
C1686 C1687 1.327 . S
C1687 H1681 0.950 . S
C1687 C1686 1.327 . S
C1687 C1691 1.429 . S
C1688 C1671 1.574 1_556 S
C1688 H1682 0.949 . S
C1688 C1692 1.368 . S
C1689 C1670 1.429 . S
C1689 C1683 1.429 . S
C1689 C1690 1.523 . S
C1690 C1671 1.368 . S
C1690 C1684 1.368 . S
C1690 C1689 1.523 . S
C1691 C1675 1.429 . S
C1691 C1687 1.429 . S
C1691 C1692 1.523 . S
C1692 C1676 1.368 . S
C1692 C1688 1.368 . S
C1692 C1691 1.523 . S
H1693 C1668 0.950 . S
H1694 C1670 0.950 . S
H1695 C1671 0.949 . S
H1696 C1673 0.950 . S
H1697 C1675 0.950 . S
C1698 C1699 1.349 . S
C1698 C1700 1.327 . S
C1698 H1723 0.950 . S
C1699 C1698 1.349 . S
C1699 C1715 1.349 . S
C1700 C1698 1.327 . S
C1700 C1719 1.429 . S
C1700 H1724 0.950 . S
C1701 C1718 1.574 1_556 S
C1701 C1720 1.368 . S
C1701 H1725 0.949 . S
H1702 C1706 0.949 . S
C1703 C1704 1.349 . S
C1703 C1705 1.327 . S
C1703 H1726 0.950 . S
C1704 C1703 1.349 . S
C1704 C1716 1.349 . S
C1705 C1703 1.327 . S
C1705 C1721 1.429 . S
C1705 H1727 0.950 . S
C1706 H1702 0.949 . S
C1706 C1714 1.574 1_554 S
C1706 C1722 1.368 . S
H1707 C1715 0.950 . S
H1708 C1713 0.950 . S
H1709 C1714 0.949 . S
H1710 C1716 0.950 . S
H1711 C1717 0.950 . S
H1712 C1718 0.949 . S
C1713 H1708 0.950 . S
C1713 C1715 1.327 . S
C1713 C1719 1.429 . S
C1714 C1706 1.574 1_556 S
C1714 H1709 0.949 . S
C1714 C1720 1.368 . S
C1715 C1699 1.349 . S
C1715 H1707 0.950 . S
C1715 C1713 1.327 . S
C1716 C1704 1.349 . S
C1716 H1710 0.950 . S
C1716 C1717 1.327 . S
C1717 H1711 0.950 . S
C1717 C1716 1.327 . S
C1717 C1721 1.429 . S
C1718 C1701 1.574 1_554 S
C1718 H1712 0.949 . S
C1718 C1722 1.368 . S
C1719 C1700 1.429 . S
C1719 C1713 1.429 . S
C1719 C1720 1.523 . S
C1720 C1701 1.368 . S
C1720 C1714 1.368 . S
C1720 C1719 1.523 . S
C1721 C1705 1.429 . S
C1721 C1717 1.429 . S
C1721 C1722 1.523 . S
C1722 C1706 1.368 . S
C1722 C1718 1.368 . S
C1722 C1721 1.523 . S
H1723 C1698 0.950 . S
H1724 C1700 0.950 . S
H1725 C1701 0.949 . S
H1726 C1703 0.950 . S
H1727 C1705 0.950 . S
C529 C94 0.633 . S
C534 C28 0.633 . S
C559 C61 0.633 . S
C564 C127 0.633 . S
C589 C226 0.633 . S
C594 C160 0.633 . S
C619 C259 0.633 . S
C624 C193 0.633 . S
C649 C292 0.633 . S
C654 C358 0.633 . S
C679 C391 0.633 . S
C684 C325 0.633 . S
C709 C490 0.633 . S
C714 C424 0.633 . S
C739 C457 0.633 . S
C744 C523 0.633 . S
C769 N5 1.732 . S
C774 N500 1.732 . S
C799 N401 1.732 . S
C804 N38 1.732 . S
C829 N434 1.732 . S
C834 N71 1.732 . S
C859 N467 1.732 . S
C864 N104 1.732 . S
C889 N302 1.732 . S
C894 N137 1.732 . S
C919 N335 1.732 . S
C924 N170 1.732 . S
C949 N368 1.732 . S
C954 N203 1.732 . S
C979 N269 1.732 . S
C984 N236 1.732 . S
C1009 C17 1.369 . S
C1014 C107 1.401 . S
C1039 C8 1.401 . S
C1044 C50 1.369 . S
C1069 C83 1.369 . S
C1074 C41 1.401 . S
C1099 C74 1.401 . S
C1104 C116 1.369 . S
C1129 C173 1.401 . S
C1134 C149 1.369 . S
C1159 C182 1.369 . S
C1164 C206 1.401 . S
C1189 C239 1.401 . S
C1194 C215 1.369 . S
C1219 C140 1.401 . S
C1224 C248 1.369 . S
C1249 C281 1.369 . S
C1254 C371 1.401 . S
C1279 C272 1.401 . S
C1284 C314 1.369 . S
C1309 C347 1.369 . S
C1314 C305 1.401 . S
C1339 C380 1.369 . S
C1344 C338 1.401 . S
C1369 C413 1.369 . S
C1374 C437 1.401 . S
C1399 C470 1.401 . S
C1404 C446 1.369 . S
C1429 C503 1.401 . S
C1434 C479 1.369 . S
C1459 C512 1.369 . S
C1464 C404 1.401 . S
C1489 N14 1.559 . S
C1494 N212 1.559 . S
C1519 N245 1.559 . S
C1524 N47 1.559 . S
C1549 N146 1.559 . S
C1554 N80 1.559 . S
C1579 N179 1.559 . S
C1584 N113 1.559 . S
C1609 N278 1.559 . S
C1614 N476 1.559 . S
C1639 N509 1.559 . S
C1644 N311 1.559 . S
C1669 N410 1.559 . S
C1674 N344 1.559 . S
C1699 N377 1.559 . S
C1704 N443 1.559 . S
