# Generated by pormake.
# Topology sni, (6)-cn, num edge types: 1
# Building blocks:
#     Node 0, Type 0, BuildingBlock: IZENUY_clean_sbu_0, # of connection points: 6
#     Node 1, Type 0, BuildingBlock: IZENUY_clean_sbu_0, # of connection points: 6
#     Node 2, Type 0, BuildingBlock: IZENUY_clean_sbu_0, # of connection points: 6
#     Node 3, Type 0, BuildingBlock: IZENUY_clean_sbu_0, # of connection points: 6
#     Node 4, Type 0, BuildingBlock: IZENUY_clean_sbu_0, # of connection points: 6
#     Node 5, Type 0, BuildingBlock: IZENUY_clean_sbu_0, # of connection points: 6
#     Node 6, Type 0, BuildingBlock: IZENUY_clean_sbu_0, # of connection points: 6
#     Node 7, Type 0, BuildingBlock: IZENUY_clean_sbu_0, # of connection points: 6
#     Edge 8, Type (0, 0), BuildingBlock: EZIPEK_clean_linker_0, # of connection points: 2
#     Edge 9, Type (0, 0), BuildingBlock: EZIPEK_clean_linker_0, # of connection points: 2
#     Edge 10, Type (0, 0), BuildingBlock: EZIPEK_clean_linker_0, # of connection points: 2
#     Edge 11, Type (0, 0), BuildingBlock: EZIPEK_clean_linker_0, # of connection points: 2
#     Edge 12, Type (0, 0), BuildingBlock: EZIPEK_clean_linker_0, # of connection points: 2
#     Edge 13, Type (0, 0), BuildingBlock: EZIPEK_clean_linker_0, # of connection points: 2
#     Edge 14, Type (0, 0), BuildingBlock: EZIPEK_clean_linker_0, # of connection points: 2
#     Edge 15, Type (0, 0), BuildingBlock: EZIPEK_clean_linker_0, # of connection points: 2
#     Edge 16, Type (0, 0), BuildingBlock: EZIPEK_clean_linker_0, # of connection points: 2
#     Edge 17, Type (0, 0), BuildingBlock: EZIPEK_clean_linker_0, # of connection points: 2
#     Edge 18, Type (0, 0), BuildingBlock: EZIPEK_clean_linker_0, # of connection points: 2
#     Edge 19, Type (0, 0), BuildingBlock: EZIPEK_clean_linker_0, # of connection points: 2
#     Edge 20, Type (0, 0), BuildingBlock: EZIPEK_clean_linker_0, # of connection points: 2
#     Edge 21, Type (0, 0), BuildingBlock: EZIPEK_clean_linker_0, # of connection points: 2
#     Edge 22, Type (0, 0), BuildingBlock: EZIPEK_clean_linker_0, # of connection points: 2
#     Edge 23, Type (0, 0), BuildingBlock: EZIPEK_clean_linker_0, # of connection points: 2
#     Edge 24, Type (0, 0), BuildingBlock: EZIPEK_clean_linker_0, # of connection points: 2
#     Edge 25, Type (0, 0), BuildingBlock: EZIPEK_clean_linker_0, # of connection points: 2
#     Edge 26, Type (0, 0), BuildingBlock: EZIPEK_clean_linker_0, # of connection points: 2
#     Edge 27, Type (0, 0), BuildingBlock: EZIPEK_clean_linker_0, # of connection points: 2
#     Edge 28, Type (0, 0), BuildingBlock: EZIPEK_clean_linker_0, # of connection points: 2
#     Edge 29, Type (0, 0), BuildingBlock: EZIPEK_clean_linker_0, # of connection points: 2
#     Edge 30, Type (0, 0), BuildingBlock: EZIPEK_clean_linker_0, # of connection points: 2
#     Edge 31, Type (0, 0), BuildingBlock: EZIPEK_clean_linker_0, # of connection points: 2
# Relax obj value: 0.128
# Max RMSD: 0.110
# Mean RMSD: 0.110
data_MOF--net-sni--node1-IZENUY_clean_sbu_0--edge1-EZIPEK_clean_linker_0
_symmetry_space_group_name_H-M    P1
_symmetry_Int_Tables_number       1
_symmetry_cell_setting            triclinic
loop_
_symmetry_equiv_pos_as_xyz
'x, y, z'
_cell_length_a     30.61797
_cell_length_b     30.744358
_cell_length_c     14.919455
_cell_angle_alpha  90.062912
_cell_angle_beta   89.987413
_cell_angle_gamma 90.208172
loop_
_atom_site_label
_atom_site_type_symbol
_atom_site_fract_x
_atom_site_fract_y
_atom_site_fract_z
_atom_type_partial_charge
Fe0 Fe 0.64463 0.21029 1.00394 0.0
Fe1 Fe 0.71468 0.13896 0.01044 0.0
O2 O 0.65865 0.15438 0.00896 0.0
Fe3 Fe 0.61708 0.114 0.01049 0.0
O4 O 0.59366 0.13261 0.90603 0.0
O5 O 0.59445 0.2025 0.93671 0.0
O6 O 0.67368 0.21649 0.89881 0.0
C7 C 0.71404 0.21042 0.88959 0.0
C8 C 0.584 0.18082 0.12427 0.0
O9 O 0.73407 0.18562 0.94335 0.0
C10 C 0.67459 0.07817 0.12888 0.0
O11 O 0.69218 0.22868 0.07144 0.0
O12 O 0.72444 0.16813 0.11377 0.0
O13 O 0.57904 0.1467 0.07766 0.0
O14 O 0.61413 0.20774 0.10795 0.0
C15 C 0.68149 0.07881 0.8941 0.0
O16 O 0.70602 0.0896 0.07868 0.0
O17 O 0.63648 0.09162 0.11486 0.0
C18 C 0.71766 0.20827 0.12393 0.0
O19 O 0.7089 0.10885 0.90669 0.0
O20 O 0.64814 0.07447 0.94365 0.0
C21 C 0.58056 0.17061 0.8908 0.0
Fe22 Fe 0.90728 0.61534 0.01169 0.0
Fe23 Fe 0.88005 0.71224 0.01603 0.0
O24 O 0.86579 0.65582 0.00987 0.0
Fe25 Fe 0.80959 0.63982 1.00194 0.0
O26 O 0.81239 0.60828 0.10444 0.0
O27 O 0.87523 0.57603 0.07785 0.0
O28 O 0.93008 0.6348 0.11639 0.0
C29 C 0.94187 0.67322 0.13421 0.0
C30 C 0.85198 0.57804 0.88967 0.0
O31 O 0.92661 0.70508 0.09131 0.0
C32 C 0.81036 0.71006 0.88867 0.0
O33 O 0.94628 0.64683 0.94642 0.0
O34 O 0.91554 0.70969 0.91721 0.0
O35 O 0.81926 0.59095 0.93373 0.0
O36 O 0.88959 0.59227 0.90625 0.0
C37 C 0.80679 0.71088 0.12371 0.0
O38 O 0.83564 0.73023 0.94168 0.0
O39 O 0.80214 0.67011 0.89869 0.0
C40 C 0.94519 0.68196 0.90256 0.0
O41 O 0.84683 0.72 0.11618 0.0
O42 O 0.78845 0.68519 0.06918 0.0
C43 C 0.83998 0.57914 0.12175 0.0
Fe44 Fe 0.31251 0.88167 1.00138 0.0
Fe45 Fe 0.38397 0.81082 0.01439 0.0
O46 O 0.36873 0.86675 0.0085 0.0
Fe47 Fe 0.40986 0.90788 0.00947 0.0
O48 O 0.3875 0.93294 0.10885 0.0
O49 O 0.31849 0.93222 0.06723 0.0
O50 O 0.29919 0.85421 0.10556 0.0
C51 C 0.30725 0.8149 0.12268 0.0
C52 C 0.34883 0.93956 0.88323 0.0
O53 O 0.33584 0.7939 0.07951 0.0
C54 C 0.44877 0.84793 0.90017 0.0
O55 O 0.29623 0.83417 0.93432 0.0
O56 O 0.35723 0.79826 0.90925 0.0
O57 O 0.38058 0.94517 0.93586 0.0
O58 O 0.32089 0.9101 0.8962 0.0
C59 C 0.4417 0.84616 0.13406 0.0
O60 O 0.43505 0.81741 0.94989 0.0
O61 O 0.43572 0.88636 0.9102 0.0
C62 C 0.31806 0.80655 0.89036 0.0
O63 O 0.41197 0.81855 0.12047 0.0
O64 O 0.44706 0.87842 0.08307 0.0
C65 C 0.34879 0.9458 0.11798 0.0
Fe66 Fe 0.21745 0.37932 1.00403 0.0
Fe67 Fe 0.12119 0.40938 0.00614 0.0
O68 O 0.16035 0.36651 1.00556 0.0
Fe69 Fe 0.14215 0.31107 1.00582 0.0
O70 O 0.17291 0.29847 0.10708 0.0
O71 O 0.23359 0.33363 0.07383 0.0
O72 O 0.21427 0.41103 0.10674 0.0
C73 C 0.18765 0.44125 0.12219 0.0
C74 C 0.21578 0.30848 0.89001 0.0
O75 O 0.15409 0.44637 0.07449 0.0
C76 C 0.08232 0.34708 0.88917 0.0
O77 O 0.21209 0.42846 0.93468 0.0
O78 O 0.1421 0.43216 0.90337 0.0
O79 O 0.18602 0.29073 0.93544 0.0
O80 O 0.22625 0.34796 0.90186 0.0
C81 C 0.08227 0.35317 0.12368 0.0
O82 O 0.0805 0.38061 0.9381 0.0
O83 O 0.1106 0.31814 0.90301 0.0
C84 C 0.18092 0.44353 0.88881 0.0
O85 O 0.09669 0.3908 0.10894 0.0
O86 O 0.09424 0.32092 0.07708 0.0
C87 C 0.21321 0.30572 0.11964 0.0
Fe88 Fe 0.64139 0.81053 0.51139 0.0
Fe89 Fe 0.7141 0.8809 0.50847 0.0
O90 O 0.65775 0.86624 0.51019 0.0
Fe91 Fe 0.61739 0.90744 0.51234 0.0
O92 O 0.57849 0.8766 0.5806 0.0
O93 O 0.61306 0.81682 0.61786 0.0
O94 O 0.6888 0.79132 0.57545 0.0
C95 C 0.71691 0.81105 0.62249 0.0
C96 C 0.5782 0.85059 0.3979 0.0
O97 O 0.72508 0.85085 0.61079 0.0
C98 C 0.68278 0.9437 0.3964 0.0
O99 O 0.66866 0.79987 0.40605 0.0
O100 O 0.73022 0.83453 0.43702 0.0
O101 O 0.59308 0.88847 0.40895 0.0
O102 O 0.59071 0.81927 0.44669 0.0
C103 C 0.67602 0.9435 0.62734 0.0
O104 O 0.70846 0.91224 0.40611 0.0
O105 O 0.649 0.94668 0.44507 0.0
C106 C 0.70831 0.80783 0.38981 0.0
O107 O 0.70745 0.93036 0.57876 0.0
O108 O 0.63808 0.92893 0.6163 0.0
C109 C 0.58355 0.84445 0.63197 0.0
Fe110 Fe 0.14335 0.71078 0.51556 0.0
Fe111 Fe 0.21616 0.63941 0.49876 0.0
O112 O 0.15932 0.65452 0.50881 0.0
Fe113 Fe 0.11798 0.61282 0.51249 0.0
O114 O 0.09044 0.63384 0.41419 0.0
O115 O 0.09443 0.70404 0.44522 0.0
O116 O 0.17357 0.72596 0.41425 0.0
C117 C 0.21165 0.71528 0.38983 0.0
C118 C 0.08234 0.67571 0.6326 0.0
O119 O 0.23094 0.68296 0.42269 0.0
C120 C 0.18171 0.57746 0.62243 0.0
O121 O 0.18845 0.72712 0.58791 0.0
O122 O 0.23327 0.67155 0.59441 0.0
O123 O 0.0803 0.64137 0.58692 0.0
O124 O 0.11172 0.70356 0.61833 0.0
C125 C 0.1793 0.57575 0.39094 0.0
O126 O 0.21201 0.59286 0.57445 0.0
O127 O 0.14226 0.58813 0.611 0.0
C128 C 0.22167 0.70877 0.62035 0.0
O129 O 0.20723 0.60552 0.40054 0.0
O130 O 0.14553 0.57462 0.43871 0.0
C131 C 0.07868 0.6726 0.4006 0.0
Fe132 Fe 0.3843 0.21171 0.5036 0.0
Fe133 Fe 0.31378 0.13884 0.50777 0.0
O134 O 0.37007 0.15506 0.50439 0.0
Fe135 Fe 0.41216 0.11483 0.50168 0.0
O136 O 0.44968 0.1453 0.5732 0.0
O137 O 0.41628 0.20674 0.6062 0.0
O138 O 0.33913 0.22924 0.57345 0.0
C139 C 0.31107 0.20996 0.62053 0.0
C140 C 0.44817 0.17531 0.38736 0.0
O141 O 0.30361 0.16967 0.6105 0.0
C142 C 0.34712 0.07957 0.38658 0.0
O143 O 0.35246 0.22147 0.40164 0.0
O144 O 0.29415 0.18343 0.43907 0.0
O145 O 0.43626 0.13662 0.40008 0.0
O146 O 0.4333 0.20604 0.4341 0.0
C147 C 0.35467 0.07538 0.61869 0.0
O148 O 0.31837 0.10747 0.40472 0.0
O149 O 0.38224 0.077 0.43021 0.0
C150 C 0.31227 0.21224 0.39192 0.0
O151 O 0.32229 0.09018 0.5764 0.0
O152 O 0.3929 0.08835 0.60266 0.0
C153 C 0.44564 0.17892 0.62102 0.0
Fe154 Fe 0.88431 0.31267 0.5078 0.0
Fe155 Fe 0.90662 0.40959 0.495 0.0
O156 O 0.8668 0.36778 0.50196 0.0
Fe157 Fe 0.8102 0.38035 0.50633 0.0
O158 O 0.80347 0.35144 0.6118 0.0
O159 O 0.83788 0.29255 0.57346 0.0
O160 O 0.91312 0.32323 0.61329 0.0
C161 C 0.9436 0.35087 0.62095 0.0
C162 C 0.81607 0.3066 0.38957 0.0
O163 O 0.94735 0.38089 0.56327 0.0
C164 C 0.83791 0.44267 0.3852 0.0
O165 O 0.93445 0.32071 0.44145 0.0
O166 O 0.92859 0.3876 0.39199 0.0
O167 O 0.79417 0.33271 0.43799 0.0
O168 O 0.85615 0.29946 0.404 0.0
C169 C 0.84872 0.44528 0.6165 0.0
O170 O 0.87383 0.44591 0.42623 0.0
O171 O 0.81157 0.4121 0.40291 0.0
C172 C 0.94445 0.35004 0.38571 0.0
O173 O 0.88741 0.43499 0.59693 0.0
O174 O 0.81658 0.42927 0.57484 0.0
C175 C 0.81136 0.31185 0.62413 0.0
C176 C 0.52809 0.17805 0.34856 0.0
C177 C 0.4839 0.18437 0.32282 0.0
C178 C 0.50702 0.19882 0.16849 0.0
C179 C 0.55085 0.1906 0.19382 0.0
N180 N 0.60418 0.19009 0.31194 0.0
N181 N 0.43322 0.21482 0.21717 0.0
C182 C 0.56178 0.18584 0.28529 0.0
C183 C 0.4739 0.19916 0.2353 0.0
N184 N 0.53796 0.1638 0.43275 0.0
N185 N 0.49722 0.20652 0.08067 0.0
H186 H 0.40944 0.21756 0.26665 0.0
H187 H 0.42451 0.22924 0.1567 0.0
H188 H 0.52131 0.21093 0.0321 0.0
H189 H 0.4655 0.20722 0.05561 0.0
H190 H 0.56901 0.15352 0.4516 0.0
H191 H 0.51453 0.15979 0.48244 0.0
H192 H 0.61392 0.1907 0.37882 0.0
H193 H 0.62898 0.19797 0.2671 0.0
C194 C 0.83176 0.55651 0.28263 0.0
C195 C 0.82979 0.5456 0.19062 0.0
C196 C 0.81372 0.46975 0.23167 0.0
C197 C 0.82634 0.47872 0.32155 0.0
N198 N 0.8452 0.53269 0.43389 0.0
N199 N 0.81729 0.49177 0.07581 0.0
C200 C 0.83423 0.52281 0.34747 0.0
C201 C 0.82019 0.50217 0.16464 0.0
N202 N 0.83087 0.5991 0.30848 0.0
N203 N 0.79405 0.43123 0.21043 0.0
H204 H 0.81796 0.51514 0.02531 0.0
H205 H 0.81639 0.45987 0.05222 0.0
H206 H 0.78509 0.40842 0.25835 0.0
H207 H 0.78115 0.42442 0.14736 0.0
H208 H 0.82676 0.60909 0.37467 0.0
H209 H 0.83072 0.62465 0.26287 0.0
H210 H 0.8578 0.56274 0.45355 0.0
H211 H 0.84352 0.51031 0.48583 0.0
C212 C 0.54791 0.82214 0.25248 0.0
C213 C 0.54124 0.84414 0.33497 0.0
C214 C 0.46678 0.86321 0.28918 0.0
C215 C 0.47309 0.84025 0.20799 0.0
N216 N 0.5152 0.78989 0.11982 0.0
N217 N 0.49085 0.87581 0.44105 0.0
C218 C 0.51224 0.81696 0.19226 0.0
C219 C 0.49958 0.8617 0.35616 0.0
N220 N 0.58876 0.80816 0.22968 0.0
N221 N 0.43002 0.88766 0.30122 0.0
H222 H 0.51372 0.87469 0.49223 0.0
H223 H 0.45979 0.88447 0.46307 0.0
H224 H 0.40435 0.88803 0.25539 0.0
H225 H 0.42608 0.90965 0.35375 0.0
H226 H 0.59682 0.79641 0.16635 0.0
H227 H 0.61563 0.81144 0.27202 0.0
H228 H 0.54132 0.76895 0.10892 0.0
H229 H 0.4896 0.78555 0.07458 0.0
C230 C 0.19167 0.46276 0.28405 0.0
C231 C 0.19642 0.47415 0.19294 0.0
C232 C 0.19469 0.55175 0.23197 0.0
C233 C 0.18634 0.54059 0.32308 0.0
N234 N 0.17059 0.48441 0.43318 0.0
N235 N 0.21622 0.5276 0.0832 0.0
C236 C 0.18346 0.49581 0.34861 0.0
C237 C 0.20208 0.51819 0.16792 0.0
N238 N 0.19654 0.42035 0.30938 0.0
N239 N 0.19166 0.59413 0.205 0.0
H240 H 0.22325 0.50334 0.03647 0.0
H241 H 0.2252 0.55859 0.06189 0.0
H242 H 0.18392 0.61943 0.24844 0.0
H243 H 0.19254 0.60398 0.13832 0.0
H244 H 0.19853 0.41022 0.37581 0.0
H245 H 0.20314 0.39555 0.26383 0.0
H246 H 0.16165 0.45291 0.45117 0.0
H247 H 0.16569 0.50642 0.48497 0.0
C248 C 0.51059 0.81864 0.68664 0.0
C249 C 0.55165 0.83818 0.70542 0.0
C250 C 0.52778 0.85372 0.85876 0.0
C251 C 0.48488 0.84 0.83605 0.0
N252 N 0.43393 0.81264 0.72636 0.0
N253 N 0.59792 0.87931 0.80547 0.0
C254 C 0.4759 0.82291 0.74961 0.0
C255 C 0.56003 0.85678 0.7907 0.0
N256 N 0.50489 0.79592 0.60873 0.0
N257 N 0.53787 0.8633 0.94575 0.0
H258 H 0.62249 0.88208 0.75754 0.0
H259 H 0.6036 0.89804 0.86253 0.0
H260 H 0.51511 0.8612 0.99732 0.0
H261 H 0.5696 0.86907 0.96809 0.0
H262 H 0.4771 0.77758 0.59448 0.0
H263 H 0.52968 0.79231 0.56141 0.0
H264 H 0.42434 0.80502 0.66125 0.0
H265 H 0.40792 0.8147 0.77121 0.0
C266 C 0.21321 0.47308 0.74566 0.0
C267 C 0.18897 0.47995 0.82563 0.0
C268 C 0.17794 0.55594 0.7829 0.0
C269 C 0.19242 0.54632 0.69539 0.0
N270 N 0.23122 0.49788 0.5957 0.0
N271 N 0.14785 0.52893 0.92086 0.0
C272 C 0.21299 0.50573 0.67768 0.0
C273 C 0.17159 0.52177 0.8448 0.0
N274 N 0.23624 0.43544 0.7347 0.0
N275 N 0.17217 0.5982 0.80816 0.0
H276 H 0.14339 0.50572 0.97046 0.0
H277 H 0.13035 0.55739 0.93239 0.0
H278 H 0.17525 0.62402 0.76332 0.0
H279 H 0.16749 0.60774 0.87453 0.0
H280 H 0.25798 0.42986 0.68238 0.0
H281 H 0.23623 0.41056 0.78189 0.0
H282 H 0.24118 0.46731 0.57401 0.0
H283 H 0.23512 0.52169 0.54687 0.0
C284 C 0.5157 0.20782 0.68511 0.0
C285 C 0.47637 0.1841 0.69719 0.0
C286 C 0.50286 0.15691 0.84193 0.0
C287 C 0.54418 0.17686 0.82553 0.0
N288 N 0.59169 0.21753 0.72733 0.0
N289 N 0.43187 0.13533 0.78443 0.0
C290 C 0.55092 0.20184 0.74648 0.0
C291 C 0.46969 0.15875 0.77532 0.0
N292 N 0.51931 0.23592 0.61453 0.0
N293 N 0.49489 0.13701 0.9222 0.0
H294 H 0.40549 0.13882 0.74096 0.0
H295 H 0.42708 0.1112 0.83234 0.0
H296 H 0.51841 0.13347 0.97177 0.0
H297 H 0.4641 0.12673 0.94306 0.0
H298 H 0.54532 0.2574 0.60597 0.0
H299 H 0.49431 0.24033 0.56795 0.0
H300 H 0.60016 0.23183 0.66656 0.0
H301 H 0.61834 0.21317 0.76967 0.0
C302 C 0.82063 0.54839 0.74628 0.0
C303 C 0.84674 0.54212 0.82382 0.0
C304 C 0.86433 0.46806 0.77365 0.0
C305 C 0.84169 0.47594 0.69241 0.0
N306 N 0.78539 0.51718 0.61624 0.0
N307 N 0.89473 0.49647 0.91144 0.0
C308 C 0.81576 0.51402 0.6831 0.0
C309 C 0.86872 0.50196 0.83783 0.0
N310 N 0.80308 0.58838 0.72934 0.0
N311 N 0.8789 0.42694 0.79184 0.0
H312 H 0.89628 0.51859 0.9641 0.0
H313 H 0.91662 0.47091 0.91881 0.0
H314 H 0.87377 0.40074 0.74852 0.0
H315 H 0.89189 0.4174 0.85314 0.0
H316 H 0.78938 0.59715 0.66814 0.0
H317 H 0.80548 0.61436 0.77372 0.0
H318 H 0.76202 0.54165 0.61351 0.0
H319 H 0.78017 0.4936 0.56754 0.0
C320 C 0.02287 0.66976 0.85627 0.0
C321 C 0.98211 0.68982 0.8373 0.0
C322 C 1.01241 0.71061 0.6895 0.0
C323 C 0.04873 0.6828 0.70396 0.0
N324 N 0.07965 0.62572 0.79404 0.0
N325 N 0.93717 0.7268 0.72706 0.0
C326 C 0.05148 0.65956 0.78529 0.0
C327 C 0.97665 0.7102 0.75183 0.0
N328 N 0.0349 0.66063 0.94235 0.0
N329 N 1.01148 0.73666 0.61546 0.0
H330 H 0.91015 0.72802 0.76897 0.0
H331 H 0.9302 0.73672 0.66189 0.0
H332 H 0.03609 0.73644 0.56715 0.0
H333 H 0.98816 0.7608 0.60582 0.0
H334 H 0.06584 0.64892 0.95869 0.0
H335 H 0.01625 0.66959 0.99763 0.0
H336 H 0.07946 0.6052 0.84966 0.0
H337 H 0.09874 0.61494 0.74113 0.0
C338 C 0.3686 0.99787 0.66311 0.0
C339 C 0.34822 0.0384 0.68157 0.0
C340 C 0.31773 1.00813 0.82061 0.0
C341 C 0.34361 0.97049 0.80841 0.0
N342 N 0.39427 0.92875 0.72005 0.0
N343 N 0.30386 0.08291 0.77865 0.0
C344 C 0.36903 0.96504 0.72992 0.0
C345 C 0.32237 0.04357 0.76001 0.0
N346 N 0.38584 0.99001 0.58019 0.0
N347 N 0.28856 1.00979 0.88991 0.0
H348 H 0.30503 0.10898 0.73442 0.0
H349 H 0.28955 0.09067 0.83987 0.0
H350 H 0.28474 0.9845 0.93577 0.0
H351 H 0.26562 0.03439 0.89788 0.0
H352 H 0.39693 0.95966 0.55936 0.0
H353 H 0.38513 0.01271 0.52866 0.0
H354 H 0.41814 0.92543 0.67081 0.0
H355 H 0.3927 0.90249 0.76404 0.0
C356 C 0.99157 0.3064 0.73023 0.0
C357 C 0.97847 0.34706 0.692 0.0
C358 C 0.04276 0.38039 0.76101 0.0
C359 C 0.05011 0.34327 0.81421 0.0
N360 N 0.02551 0.2716 0.85833 0.0
N361 N 0.9865 0.42575 0.70255 0.0
C362 C 0.02277 0.3063 0.80171 0.0
C363 C 1.0025 0.385 0.71668 0.0
N364 N 0.97695 0.26779 0.69607 0.0
N365 N 0.07479 0.41079 0.74993 0.0
H366 H 0.95469 0.43135 0.68174 0.0
H367 H 1.00271 0.45367 0.72477 0.0
H368 H 0.10659 0.40501 0.77138 0.0
H369 H 0.07125 0.43756 0.70764 0.0
H370 H 0.98855 0.23786 0.71835 0.0
H371 H 0.95807 0.26523 0.63839 0.0
H372 H 1.00312 0.24597 0.85691 0.0
H373 H 0.04755 0.27025 0.91142 0.0
C374 C 0.71584 0.01257 0.825 0.0
C375 C 0.687 0.04833 0.81829 0.0
C376 C 0.65523 0.0185 0.68107 0.0
C377 C 0.68198 0.98071 0.6903 0.0
N378 N 0.73416 0.93949 0.77653 0.0
N379 N 0.64074 0.0928 0.72697 0.0
C380 C 0.71201 0.97747 0.76283 0.0
C381 C 0.65997 0.0534 0.74256 0.0
N382 N 0.7475 0.01283 0.88956 0.0
N383 N 0.62407 0.02071 0.61554 0.0
H384 H 0.64556 0.11961 0.76876 0.0
H385 H 0.62427 0.10064 0.66816 0.0
H386 H 0.62124 0.99852 0.56333 0.0
H387 H 0.5993 0.04381 0.61481 0.0
H388 H 0.77245 0.99004 0.89348 0.0
H389 H 0.75108 0.03827 0.93531 0.0
H390 H 0.75258 0.93297 0.8335 0.0
H391 H 0.7315 0.91268 0.73417 0.0
C392 C 0.05667 0.35784 0.28308 0.0
C393 C 0.04753 0.34771 0.19203 0.0
C394 C 0.97075 0.33331 0.2306 0.0
C395 C 0.98044 0.34284 0.32132 0.0
N396 N 0.03419 0.35138 0.43793 0.0
N397 N 0.9969 0.32224 0.07886 0.0
C398 C 0.02392 0.35111 0.3488 0.0
C399 C 1.00493 0.33389 0.16583 0.0
N400 N 0.0962 0.37514 0.30674 0.0
N401 N 0.92852 0.32475 0.20653 0.0
H402 H 0.01948 0.3263 0.02742 0.0
H403 H 0.96835 0.30704 0.05739 0.0
H404 H 0.90386 0.32043 0.25383 0.0
H405 H 0.91748 0.32294 0.1407 0.0
H406 H 0.10276 0.38816 0.36981 0.0
H407 H 0.12159 0.37979 0.26143 0.0
H408 H 0.06605 0.35303 0.46213 0.0
H409 H 1.0113 0.34479 0.48766 0.0
C410 C 0.70896 0.97308 0.2451 0.0
C411 C 0.69272 0.98026 0.33278 0.0
C412 C 0.67139 0.0543 0.29046 0.0
C413 C 0.68162 0.04481 0.1996 0.0
N414 N 0.70277 0.99168 0.08849 0.0
N415 N 0.6816 0.03441 0.44594 0.0
C416 C 0.69899 1.00346 0.17643 0.0
C417 C 0.68045 0.02295 0.35759 0.0
N418 N 0.73693 0.93966 0.22843 0.0
N419 N 0.6515 0.09251 0.31269 0.0
H420 H 0.6932 0.01308 0.4947 0.0
H421 H 0.67704 0.06604 0.4691 0.0
H422 H 0.64468 0.11666 0.26616 0.0
H423 H 0.63858 0.09882 0.37596 0.0
H424 H 0.75267 0.93552 0.1671 0.0
H425 H 0.74999 0.92051 0.27908 0.0
H426 H 0.71079 0.96028 0.06803 0.0
H427 H 0.6929 0.01169 0.0361 0.0
C428 C 1.0124 0.70661 0.19488 0.0
C429 C 0.97408 0.68075 0.20823 0.0
C430 C 1.00013 0.66146 0.35905 0.0
C431 C 0.04123 0.68043 0.33899 0.0
N432 N 0.08584 0.72514 0.2434 0.0
N433 N 0.92873 0.63868 0.3079 0.0
C434 C 0.04684 0.70486 0.25921 0.0
C435 C 0.96726 0.65975 0.292 0.0
N436 N 0.01611 0.73319 0.12173 0.0
N437 N 0.99173 0.64744 0.44428 0.0
H438 H 0.9016 0.64295 0.26707 0.0
H439 H 0.92373 0.61682 0.36015 0.0
H440 H 0.01425 0.6506 0.49599 0.0
H441 H 0.96131 0.6369 0.46668 0.0
H442 H 0.04014 0.75695 0.11488 0.0
H443 H 0.99401 0.73404 0.06904 0.0
H444 H 0.09525 0.73758 0.18148 0.0
H445 H 0.10976 0.72845 0.29239 0.0
C446 C 0.3534 0.02454 0.15898 0.0
C447 C 0.34041 0.98167 0.18212 0.0
C448 C 0.32112 1.0067 0.33325 0.0
C449 C 0.34006 0.04779 0.3135 0.0
N450 N 0.3793 0.09452 0.21148 0.0
N451 N 0.31387 0.9306 0.29184 0.0
C452 C 0.35729 0.05652 0.22717 0.0
C453 C 0.32431 0.97243 0.26926 0.0
N454 N 0.36149 0.03483 0.07149 0.0
N455 N 0.30025 1.00054 0.41326 0.0
H456 H 0.31443 0.90515 0.24568 0.0
H457 H 0.30711 0.92057 0.35701 0.0
H458 H 0.29789 0.02488 0.46175 0.0
H459 H 0.28236 0.97271 0.42886 0.0
H460 H 0.3669 0.06648 0.04912 0.0
H461 H 0.35829 0.0123 0.01982 0.0
H462 H 0.39696 0.10064 0.15314 0.0
H463 H 0.3829 0.11871 0.25988 0.0
C464 C 0.76915 0.24258 0.34725 0.0
C465 C 0.79278 0.28023 0.32086 0.0
C466 C 0.77201 0.2673 0.16385 0.0
C467 C 0.74427 0.23257 0.19155 0.0
N468 N 0.71536 0.18758 0.31026 0.0
N469 N 0.8157 0.33014 0.20589 0.0
C470 C 0.74285 0.22015 0.28341 0.0
C471 C 0.79398 0.29299 0.22957 0.0
N472 N 0.77302 0.22737 0.43297 0.0
N473 N 0.77931 0.27424 0.07455 0.0
H474 H 0.83331 0.34885 0.25175 0.0
H475 H 0.81407 0.34411 0.14249 0.0
H476 H 0.76497 0.25554 0.02433 0.0
H477 H 0.80269 0.29571 0.04972 0.0
H478 H 0.76111 0.19738 0.45429 0.0
H479 H 0.79135 0.24318 0.48188 0.0
H480 H 0.70797 0.18083 0.3769 0.0
H481 H 0.69755 0.16868 0.26552 0.0
C482 C 0.77308 0.78081 0.17984 0.0
C483 C 0.77936 0.73523 0.18948 0.0
C484 C 0.73909 0.7373 0.33183 0.0
C485 C 0.73086 0.7822 0.3193 0.0
N486 N 0.72612 0.84155 0.21535 0.0
N487 N 0.75463 0.66875 0.26027 0.0
C488 C 0.74396 0.80261 0.23877 0.0
C489 C 0.75821 0.71297 0.26104 0.0
N490 N 0.7943 0.80349 0.11421 0.0
N491 N 0.72944 0.7178 0.41165 0.0
H492 H 0.76569 0.6498 0.20745 0.0
H493 H 0.73614 0.65138 0.3068 0.0
H494 H 0.71439 0.73407 0.46442 0.0
H495 H 0.73965 0.68647 0.42784 0.0
H496 H 0.79408 0.83737 0.11095 0.0
H497 H 0.81424 0.7889 0.0664 0.0
H498 H 0.73049 0.85543 0.15226 0.0
H499 H 0.70281 0.85709 0.25499 0.0
C500 C 0.29772 0.78921 0.28083 0.0
C501 C 0.28142 0.79172 0.19215 0.0
C502 C 0.22036 0.74334 0.23196 0.0
C503 C 0.23566 0.74178 0.32173 0.0
N504 N 0.29412 0.7557 0.42744 0.0
N505 N 0.22403 0.77742 0.0856 0.0
C506 C 0.27574 0.76279 0.34518 0.0
C507 C 0.2418 0.77058 0.16842 0.0
N508 N 0.33358 0.81339 0.3041 0.0
N509 N 0.18777 0.71573 0.20546 0.0
H510 H 0.23904 0.79662 0.03698 0.0
H511 H 0.19283 0.76712 0.06744 0.0
H512 H 0.17277 0.69392 0.24919 0.0
H513 H 0.17844 0.71122 0.13901 0.0
H514 H 0.34429 0.81792 0.36962 0.0
H515 H 0.35112 0.83192 0.25797 0.0
H516 H 0.32551 0.76547 0.44508 0.0
H517 H 0.27945 0.7372 0.47742 0.0
C518 C 0.24433 0.25399 0.34423 0.0
C519 C 0.28526 0.23453 0.3224 0.0
C520 C 0.27826 0.26015 0.16738 0.0
C521 C 0.2379 0.28084 0.18911 0.0
N522 N 0.18722 0.30435 0.30305 0.0
N523 N 0.3295 0.20374 0.20579 0.0
C524 C 0.2219 0.27906 0.27856 0.0
C525 C 0.29919 0.23366 0.23207 0.0
N526 N 0.22546 0.24711 0.42615 0.0
N527 N 0.29779 0.26625 0.08589 0.0
H528 H 0.34279 0.18123 0.25004 0.0
H529 H 0.33727 0.19752 0.139 0.0
H530 H 0.28396 0.28304 0.03277 0.0
H531 H 0.32989 0.25699 0.07278 0.0
H532 H 0.19308 0.25464 0.44054 0.0
H533 H 0.24025 0.23072 0.47871 0.0
H534 H 0.17794 0.30988 0.36922 0.0
H535 H 0.17006 0.32363 0.2582 0.0
C536 C 0.26237 0.7124 0.76926 0.0
C537 C 0.24891 0.73294 0.68786 0.0
C538 C 0.28786 0.79959 0.73527 0.0
C539 C 0.29577 0.78074 0.82 0.0
N540 N 0.28491 0.72174 0.92366 0.0
N541 N 0.24653 0.79915 0.59798 0.0
C542 C 0.28158 0.73785 0.83855 0.0
C543 C 0.26082 0.77745 0.67236 0.0
N544 N 0.25762 0.66857 0.78136 0.0
N545 N 0.30768 0.83808 0.71339 0.0
H546 H 0.23079 0.78461 0.544 0.0
H547 H 0.24862 0.83281 0.59131 0.0
H548 H 0.32774 0.85509 0.75777 0.0
H549 H 0.30779 0.85104 0.64892 0.0
H550 H 0.27205 0.65178 0.83418 0.0
H551 H 0.24284 0.64772 0.73596 0.0
H552 H 0.26953 0.69321 0.94456 0.0
H553 H 0.29987 0.73869 0.97577 0.0
C554 C 0.2862 0.22115 0.77908 0.0
C555 C 0.28686 0.23582 0.68913 0.0
C556 C 0.23934 0.29724 0.73088 0.0
C557 C 0.23842 0.28208 0.82046 0.0
N558 N 0.25096 0.22208 0.92326 0.0
N559 N 0.27266 0.29487 0.58462 0.0
C560 C 0.25872 0.24181 0.8427 0.0
C561 C 0.26595 0.27586 0.66634 0.0
N562 N 0.31532 0.19023 0.80623 0.0
N563 N 0.21159 0.32979 0.70541 0.0
H564 H 0.28989 0.28077 0.53231 0.0
H565 H 0.26377 0.32678 0.57024 0.0
H566 H 0.1898 0.34471 0.74943 0.0
H567 H 0.2064 0.3388 0.63902 0.0
H568 H 0.32022 0.1818 0.87309 0.0
H569 H 0.33859 0.17687 0.76343 0.0
H570 H 0.26023 0.1902 0.93697 0.0
H571 H 0.23225 0.23543 0.97434 0.0
C572 C 0.74354 0.29838 0.71914 0.0
C573 C 0.78665 0.28645 0.69349 0.0
C574 C 0.77827 0.22028 0.78349 0.0
C575 C 0.73909 0.23655 0.82202 0.0
N576 N 0.69477 0.30114 0.84518 0.0
N577 N 0.84923 0.24123 0.72896 0.0
C578 C 0.72463 0.27861 0.79567 0.0
C579 C 0.80542 0.24895 0.73383 0.0
N580 N 0.71933 0.32659 0.66915 0.0
N581 N 0.78912 0.17739 0.79023 0.0
H582 H 0.87136 0.26343 0.7021 0.0
H583 H 0.86402 0.21559 0.76304 0.0
H584 H 0.76841 0.15407 0.81781 0.0
H585 H 0.8161 0.16428 0.75725 0.0
H586 H 0.68681 0.33346 0.68436 0.0
H587 H 0.72906 0.33792 0.60648 0.0
H588 H 0.68586 0.33295 0.82943 0.0
H589 H 0.68407 0.29106 0.90812 0.0
C590 C 0.72774 0.78703 0.7814 0.0
C591 C 0.74163 0.78612 0.69083 0.0
C592 C 0.79767 0.73194 0.7283 0.0
C593 C 0.78587 0.73523 0.82006 0.0
N594 N 0.74152 0.76759 0.93594 0.0
N595 N 0.79305 0.76259 0.57869 0.0
C596 C 0.75151 0.76341 0.84713 0.0
C597 C 0.77743 0.75979 0.66435 0.0
N598 N 0.69067 0.80919 0.80386 0.0
N599 N 0.82788 0.70183 0.7022 0.0
H600 H 0.77908 0.78261 0.53035 0.0
H601 H 0.82174 0.74789 0.55707 0.0
H602 H 0.84472 0.68226 0.74749 0.0
H603 H 0.83436 0.6941 0.6356 0.0
H604 H 0.67546 0.80723 0.8661 0.0
H605 H 0.67315 0.82752 0.75768 0.0
H606 H 0.72136 0.79174 0.96174 0.0
H607 H 0.75504 0.74792 0.98513 0.0
loop_
_geom_bond_atom_site_label_1
_geom_bond_atom_site_label_2
_geom_bond_distance
_geom_bond_site_symmetry_2
_ccdc_geom_bond_type
Fe0 O2 1.918 . S
Fe0 O5 1.997 1_554 S
Fe0 O6 2.002 1_554 S
Fe0 O11 1.976 . S
Fe0 O14 1.996 . S
Fe1 O2 1.918 . S
Fe1 O9 1.997 1_554 S
Fe1 O12 1.996 . S
Fe1 O16 1.976 . S
Fe1 O19 2.002 1_554 S
O2 Fe0 1.918 . S
O2 Fe1 1.918 . S
O2 Fe3 1.918 . S
Fe3 O2 1.918 . S
Fe3 O4 2.002 1_554 S
Fe3 O13 1.976 . S
Fe3 O17 1.996 . S
Fe3 O20 1.997 1_554 S
O4 Fe3 2.002 1_556 S
O4 C21 1.295 . S
O5 Fe0 1.997 1_556 S
O5 C21 1.235 . S
O6 Fe0 2.002 1_556 S
O6 C7 1.295 . S
C7 O6 1.295 . S
C7 O9 1.235 . S
C8 O13 1.287 . S
C8 O14 1.255 . S
O9 Fe1 1.997 1_556 S
O9 C7 1.235 . S
C10 O16 1.287 . S
C10 O17 1.255 . S
O11 Fe0 1.976 . S
O11 C18 1.287 . S
O12 Fe1 1.996 . S
O12 C18 1.255 . S
O13 Fe3 1.976 . S
O13 C8 1.287 . S
O14 Fe0 1.996 . S
O14 C8 1.255 . S
C15 O19 1.295 . S
C15 O20 1.235 . S
O16 Fe1 1.976 . S
O16 C10 1.287 . S
O17 Fe3 1.996 . S
O17 C10 1.255 . S
C18 O11 1.287 . S
C18 O12 1.255 . S
O19 Fe1 2.002 1_556 S
O19 C15 1.295 . S
O20 Fe3 1.997 1_556 S
O20 C15 1.235 . S
C21 O4 1.295 . S
C21 O5 1.235 . S
Fe22 O24 1.918 . S
Fe22 O27 1.997 1_556 S
Fe22 O28 2.002 1_556 S
Fe22 O33 1.976 . S
Fe22 O36 1.996 . S
Fe23 O24 1.918 . S
Fe23 O31 1.997 1_556 S
Fe23 O34 1.996 . S
Fe23 O38 1.976 . S
Fe23 O41 2.002 1_556 S
O24 Fe22 1.918 . S
O24 Fe23 1.918 . S
O24 Fe25 1.918 . S
Fe25 O24 1.918 . S
Fe25 O26 2.002 1_556 S
Fe25 O35 1.976 . S
Fe25 O39 1.996 . S
Fe25 O42 1.997 1_556 S
O26 Fe25 2.002 1_554 S
O26 C43 1.295 . S
O27 Fe22 1.997 1_554 S
O27 C43 1.235 . S
O28 Fe22 2.002 1_554 S
O28 C29 1.295 . S
C29 O28 1.295 . S
C29 O31 1.235 . S
C30 O35 1.287 . S
C30 O36 1.255 . S
O31 Fe23 1.997 1_554 S
O31 C29 1.235 . S
C32 O38 1.287 . S
C32 O39 1.255 . S
O33 Fe22 1.976 . S
O33 C40 1.287 . S
O34 Fe23 1.996 . S
O34 C40 1.255 . S
O35 Fe25 1.976 . S
O35 C30 1.287 . S
O36 Fe22 1.996 . S
O36 C30 1.255 . S
C37 O41 1.295 . S
C37 O42 1.235 . S
O38 Fe23 1.976 . S
O38 C32 1.287 . S
O39 Fe25 1.996 . S
O39 C32 1.255 . S
C40 O33 1.287 . S
C40 O34 1.255 . S
O41 Fe23 2.002 1_554 S
O41 C37 1.295 . S
O42 Fe25 1.997 1_554 S
O42 C37 1.235 . S
C43 O26 1.295 . S
C43 O27 1.235 . S
Fe44 O46 1.918 . S
Fe44 O49 1.997 1_556 S
Fe44 O50 2.002 1_556 S
Fe44 O55 1.976 . S
Fe44 O58 1.996 . S
Fe45 O46 1.918 . S
Fe45 O53 1.997 1_556 S
Fe45 O56 1.996 . S
Fe45 O60 1.976 . S
Fe45 O63 2.002 1_556 S
O46 Fe44 1.918 . S
O46 Fe45 1.918 . S
O46 Fe47 1.918 . S
Fe47 O46 1.918 . S
Fe47 O48 2.002 1_556 S
Fe47 O57 1.976 . S
Fe47 O61 1.996 . S
Fe47 O64 1.997 1_556 S
O48 Fe47 2.002 1_554 S
O48 C65 1.295 . S
O49 Fe44 1.997 1_554 S
O49 C65 1.235 . S
O50 Fe44 2.002 1_554 S
O50 C51 1.295 . S
C51 O50 1.295 . S
C51 O53 1.235 . S
C52 O57 1.287 . S
C52 O58 1.255 . S
O53 Fe45 1.997 1_554 S
O53 C51 1.235 . S
C54 O60 1.287 . S
C54 O61 1.255 . S
O55 Fe44 1.976 . S
O55 C62 1.287 . S
O56 Fe45 1.996 . S
O56 C62 1.255 . S
O57 Fe47 1.976 . S
O57 C52 1.287 . S
O58 Fe44 1.996 . S
O58 C52 1.255 . S
C59 O63 1.295 . S
C59 O64 1.235 . S
O60 Fe45 1.976 . S
O60 C54 1.287 . S
O61 Fe47 1.996 . S
O61 C54 1.255 . S
C62 O55 1.287 . S
C62 O56 1.255 . S
O63 Fe45 2.002 1_554 S
O63 C59 1.295 . S
O64 Fe47 1.997 1_554 S
O64 C59 1.235 . S
C65 O48 1.295 . S
C65 O49 1.235 . S
Fe66 O68 1.918 . S
Fe66 O71 1.997 1_556 S
Fe66 O72 2.002 1_556 S
Fe66 O77 1.976 . S
Fe66 O80 1.996 . S
Fe67 O68 1.918 . S
Fe67 O75 1.997 1_556 S
Fe67 O78 1.996 . S
Fe67 O82 1.976 . S
Fe67 O85 2.002 1_556 S
O68 Fe66 1.918 . S
O68 Fe67 1.918 . S
O68 Fe69 1.918 . S
Fe69 O68 1.918 . S
Fe69 O70 2.002 1_556 S
Fe69 O79 1.976 . S
Fe69 O83 1.996 . S
Fe69 O86 1.997 1_556 S
O70 Fe69 2.002 1_554 S
O70 C87 1.295 . S
O71 Fe66 1.997 1_554 S
O71 C87 1.235 . S
O72 Fe66 2.002 1_554 S
O72 C73 1.295 . S
C73 O72 1.295 . S
C73 O75 1.235 . S
C74 O79 1.287 . S
C74 O80 1.255 . S
O75 Fe67 1.997 1_554 S
O75 C73 1.235 . S
C76 O82 1.287 . S
C76 O83 1.255 . S
O77 Fe66 1.976 . S
O77 C84 1.287 . S
O78 Fe67 1.996 . S
O78 C84 1.255 . S
O79 Fe69 1.976 . S
O79 C74 1.287 . S
O80 Fe66 1.996 . S
O80 C74 1.255 . S
C81 O85 1.295 . S
C81 O86 1.235 . S
O82 Fe67 1.976 . S
O82 C76 1.287 . S
O83 Fe69 1.996 . S
O83 C76 1.255 . S
C84 O77 1.287 . S
C84 O78 1.255 . S
O85 Fe67 2.002 1_554 S
O85 C81 1.295 . S
O86 Fe69 1.997 1_554 S
O86 C81 1.235 . S
C87 O70 1.295 . S
C87 O71 1.235 . S
Fe88 O90 1.918 . S
Fe88 O93 1.997 . S
Fe88 O94 2.002 . S
Fe88 O99 1.976 . S
Fe88 O102 1.996 . S
Fe89 O90 1.918 . S
Fe89 O97 1.997 . S
Fe89 O100 1.996 . S
Fe89 O104 1.976 . S
Fe89 O107 2.002 . S
O90 Fe88 1.918 . S
O90 Fe89 1.918 . S
O90 Fe91 1.918 . S
Fe91 O90 1.918 . S
Fe91 O92 2.002 . S
Fe91 O101 1.976 . S
Fe91 O105 1.996 . S
Fe91 O108 1.997 . S
O92 Fe91 2.002 . S
O92 C109 1.295 . S
O93 Fe88 1.997 . S
O93 C109 1.235 . S
O94 Fe88 2.002 . S
O94 C95 1.295 . S
C95 O94 1.295 . S
C95 O97 1.235 . S
C96 O101 1.287 . S
C96 O102 1.255 . S
O97 Fe89 1.997 . S
O97 C95 1.235 . S
C98 O104 1.287 . S
C98 O105 1.255 . S
O99 Fe88 1.976 . S
O99 C106 1.287 . S
O100 Fe89 1.996 . S
O100 C106 1.255 . S
O101 Fe91 1.976 . S
O101 C96 1.287 . S
O102 Fe88 1.996 . S
O102 C96 1.255 . S
C103 O107 1.295 . S
C103 O108 1.235 . S
O104 Fe89 1.976 . S
O104 C98 1.287 . S
O105 Fe91 1.996 . S
O105 C98 1.255 . S
C106 O99 1.287 . S
C106 O100 1.255 . S
O107 Fe89 2.002 . S
O107 C103 1.295 . S
O108 Fe91 1.997 . S
O108 C103 1.235 . S
C109 O92 1.295 . S
C109 O93 1.235 . S
Fe110 O112 1.918 . S
Fe110 O115 1.997 . S
Fe110 O116 2.002 . S
Fe110 O121 1.976 . S
Fe110 O124 1.996 . S
Fe111 O112 1.918 . S
Fe111 O119 1.997 . S
Fe111 O122 1.996 . S
Fe111 O126 1.976 . S
Fe111 O129 2.002 . S
O112 Fe110 1.918 . S
O112 Fe111 1.918 . S
O112 Fe113 1.918 . S
Fe113 O112 1.918 . S
Fe113 O114 2.002 . S
Fe113 O123 1.976 . S
Fe113 O127 1.996 . S
Fe113 O130 1.997 . S
O114 Fe113 2.002 . S
O114 C131 1.295 . S
O115 Fe110 1.997 . S
O115 C131 1.235 . S
O116 Fe110 2.002 . S
O116 C117 1.295 . S
C117 O116 1.295 . S
C117 O119 1.235 . S
C118 O123 1.287 . S
C118 O124 1.255 . S
O119 Fe111 1.997 . S
O119 C117 1.235 . S
C120 O126 1.287 . S
C120 O127 1.255 . S
O121 Fe110 1.976 . S
O121 C128 1.287 . S
O122 Fe111 1.996 . S
O122 C128 1.255 . S
O123 Fe113 1.976 . S
O123 C118 1.287 . S
O124 Fe110 1.996 . S
O124 C118 1.255 . S
C125 O129 1.295 . S
C125 O130 1.235 . S
O126 Fe111 1.976 . S
O126 C120 1.287 . S
O127 Fe113 1.996 . S
O127 C120 1.255 . S
C128 O121 1.287 . S
C128 O122 1.255 . S
O129 Fe111 2.002 . S
O129 C125 1.295 . S
O130 Fe113 1.997 . S
O130 C125 1.235 . S
C131 O114 1.295 . S
C131 O115 1.235 . S
Fe132 O134 1.918 . S
Fe132 O137 1.997 . S
Fe132 O138 2.002 . S
Fe132 O143 1.976 . S
Fe132 O146 1.996 . S
Fe133 O134 1.918 . S
Fe133 O141 1.997 . S
Fe133 O144 1.996 . S
Fe133 O148 1.976 . S
Fe133 O151 2.002 . S
O134 Fe132 1.918 . S
O134 Fe133 1.918 . S
O134 Fe135 1.918 . S
Fe135 O134 1.918 . S
Fe135 O136 2.002 . S
Fe135 O145 1.976 . S
Fe135 O149 1.996 . S
Fe135 O152 1.997 . S
O136 Fe135 2.002 . S
O136 C153 1.295 . S
O137 Fe132 1.997 . S
O137 C153 1.235 . S
O138 Fe132 2.002 . S
O138 C139 1.295 . S
C139 O138 1.295 . S
C139 O141 1.235 . S
C140 O145 1.287 . S
C140 O146 1.255 . S
O141 Fe133 1.997 . S
O141 C139 1.235 . S
C142 O148 1.287 . S
C142 O149 1.255 . S
O143 Fe132 1.976 . S
O143 C150 1.287 . S
O144 Fe133 1.996 . S
O144 C150 1.255 . S
O145 Fe135 1.976 . S
O145 C140 1.287 . S
O146 Fe132 1.996 . S
O146 C140 1.255 . S
C147 O151 1.295 . S
C147 O152 1.235 . S
O148 Fe133 1.976 . S
O148 C142 1.287 . S
O149 Fe135 1.996 . S
O149 C142 1.255 . S
C150 O143 1.287 . S
C150 O144 1.255 . S
O151 Fe133 2.002 . S
O151 C147 1.295 . S
O152 Fe135 1.997 . S
O152 C147 1.235 . S
C153 O136 1.295 . S
C153 O137 1.235 . S
Fe154 O156 1.918 . S
Fe154 O159 1.997 . S
Fe154 O160 2.002 . S
Fe154 O165 1.976 . S
Fe154 O168 1.996 . S
Fe155 O156 1.918 . S
Fe155 O163 1.997 . S
Fe155 O166 1.996 . S
Fe155 O170 1.976 . S
Fe155 O173 2.002 . S
O156 Fe154 1.918 . S
O156 Fe155 1.918 . S
O156 Fe157 1.918 . S
Fe157 O156 1.918 . S
Fe157 O158 2.002 . S
Fe157 O167 1.976 . S
Fe157 O171 1.996 . S
Fe157 O174 1.997 . S
O158 Fe157 2.002 . S
O158 C175 1.295 . S
O159 Fe154 1.997 . S
O159 C175 1.235 . S
O160 Fe154 2.002 . S
O160 C161 1.295 . S
C161 O160 1.295 . S
C161 O163 1.235 . S
C162 O167 1.287 . S
C162 O168 1.255 . S
O163 Fe155 1.997 . S
O163 C161 1.235 . S
C164 O170 1.287 . S
C164 O171 1.255 . S
O165 Fe154 1.976 . S
O165 C172 1.287 . S
O166 Fe155 1.996 . S
O166 C172 1.255 . S
O167 Fe157 1.976 . S
O167 C162 1.287 . S
O168 Fe154 1.996 . S
O168 C162 1.255 . S
C169 O173 1.295 . S
C169 O174 1.235 . S
O170 Fe155 1.976 . S
O170 C164 1.287 . S
O171 Fe157 1.996 . S
O171 C164 1.255 . S
C172 O165 1.287 . S
C172 O166 1.255 . S
O173 Fe155 2.002 . S
O173 C169 1.295 . S
O174 Fe157 1.997 . S
O174 C169 1.235 . S
C175 O158 1.295 . S
C175 O159 1.235 . S
C176 C177 1.363 . S
C176 C182 1.379 . S
C176 N184 1.356 . S
C177 C176 1.363 . S
C177 C183 1.363 . S
C178 C179 1.363 . S
C178 C183 1.379 . S
C178 N185 1.356 . S
C179 C178 1.363 . S
C179 C182 1.363 . S
N180 C182 1.356 . S
N180 H192 0.984 . S
N180 H193 0.985 . S
N181 C183 1.356 . S
N181 H186 0.984 . S
N181 H187 0.985 . S
C182 C176 1.379 . S
C182 C179 1.363 . S
C182 N180 1.356 . S
C183 C177 1.363 . S
C183 C178 1.379 . S
C183 N181 1.356 . S
N184 C176 1.356 . S
N184 H190 0.984 . S
N184 H191 0.984 . S
N185 C178 1.356 . S
N185 H188 0.984 . S
N185 H189 0.985 . S
H186 N181 0.984 . S
H187 N181 0.985 . S
H188 N185 0.984 . S
H189 N185 0.985 . S
H190 N184 0.984 . S
H191 N184 0.984 . S
H192 N180 0.984 . S
H193 N180 0.985 . S
C194 C195 1.363 . S
C194 C200 1.379 . S
C194 N202 1.356 . S
C195 C194 1.363 . S
C195 C201 1.363 . S
C196 C197 1.363 . S
C196 C201 1.379 . S
C196 N203 1.356 . S
C197 C196 1.363 . S
C197 C200 1.363 . S
N198 C200 1.356 . S
N198 H210 0.984 . S
N198 H211 0.985 . S
N199 C201 1.356 . S
N199 H204 0.984 . S
N199 H205 0.985 . S
C200 C194 1.379 . S
C200 C197 1.363 . S
C200 N198 1.356 . S
C201 C195 1.363 . S
C201 C196 1.379 . S
C201 N199 1.356 . S
N202 C194 1.356 . S
N202 H208 0.984 . S
N202 H209 0.984 . S
N203 C196 1.356 . S
N203 H206 0.984 . S
N203 H207 0.985 . S
H204 N199 0.984 . S
H205 N199 0.985 . S
H206 N203 0.984 . S
H207 N203 0.985 . S
H208 N202 0.984 . S
H209 N202 0.984 . S
H210 N198 0.984 . S
H211 N198 0.985 . S
C212 C213 1.363 . S
C212 C218 1.379 . S
C212 N220 1.356 . S
C213 C212 1.363 . S
C213 C219 1.363 . S
C214 C215 1.363 . S
C214 C219 1.379 . S
C214 N221 1.356 . S
C215 C214 1.363 . S
C215 C218 1.363 . S
N216 C218 1.356 . S
N216 H228 0.984 . S
N216 H229 0.985 . S
N217 C219 1.356 . S
N217 H222 0.984 . S
N217 H223 0.985 . S
C218 C212 1.379 . S
C218 C215 1.363 . S
C218 N216 1.356 . S
C219 C213 1.363 . S
C219 C214 1.379 . S
C219 N217 1.356 . S
N220 C212 1.356 . S
N220 H226 0.984 . S
N220 H227 0.984 . S
N221 C214 1.356 . S
N221 H224 0.984 . S
N221 H225 0.985 . S
H222 N217 0.984 . S
H223 N217 0.985 . S
H224 N221 0.984 . S
H225 N221 0.985 . S
H226 N220 0.984 . S
H227 N220 0.984 . S
H228 N216 0.984 . S
H229 N216 0.985 . S
C230 C231 1.363 . S
C230 C236 1.379 . S
C230 N238 1.356 . S
C231 C230 1.363 . S
C231 C237 1.363 . S
C232 C233 1.363 . S
C232 C237 1.379 . S
C232 N239 1.356 . S
C233 C232 1.363 . S
C233 C236 1.363 . S
N234 C236 1.356 . S
N234 H246 0.984 . S
N234 H247 0.985 . S
N235 C237 1.356 . S
N235 H240 0.984 . S
N235 H241 0.985 . S
C236 C230 1.379 . S
C236 C233 1.363 . S
C236 N234 1.356 . S
C237 C231 1.363 . S
C237 C232 1.379 . S
C237 N235 1.356 . S
N238 C230 1.356 . S
N238 H244 0.984 . S
N238 H245 0.984 . S
N239 C232 1.356 . S
N239 H242 0.984 . S
N239 H243 0.985 . S
H240 N235 0.984 . S
H241 N235 0.985 . S
H242 N239 0.984 . S
H243 N239 0.985 . S
H244 N238 0.984 . S
H245 N238 0.984 . S
H246 N234 0.984 . S
H247 N234 0.985 . S
C248 C249 1.363 . S
C248 C254 1.379 . S
C248 N256 1.356 . S
C249 C248 1.363 . S
C249 C255 1.363 . S
C250 C251 1.363 . S
C250 C255 1.379 . S
C250 N257 1.356 . S
C251 C250 1.363 . S
C251 C254 1.363 . S
N252 C254 1.356 . S
N252 H264 0.984 . S
N252 H265 0.985 . S
N253 C255 1.356 . S
N253 H258 0.984 . S
N253 H259 0.985 . S
C254 C248 1.379 . S
C254 C251 1.363 . S
C254 N252 1.356 . S
C255 C249 1.363 . S
C255 C250 1.379 . S
C255 N253 1.356 . S
N256 C248 1.356 . S
N256 H262 0.984 . S
N256 H263 0.984 . S
N257 C250 1.356 . S
N257 H260 0.984 . S
N257 H261 0.985 . S
H258 N253 0.984 . S
H259 N253 0.985 . S
H260 N257 0.984 . S
H261 N257 0.985 . S
H262 N256 0.984 . S
H263 N256 0.984 . S
H264 N252 0.984 . S
H265 N252 0.985 . S
C266 C267 1.363 . S
C266 C272 1.379 . S
C266 N274 1.356 . S
C267 C266 1.363 . S
C267 C273 1.363 . S
C268 C269 1.363 . S
C268 C273 1.379 . S
C268 N275 1.356 . S
C269 C268 1.363 . S
C269 C272 1.363 . S
N270 C272 1.356 . S
N270 H282 0.984 . S
N270 H283 0.985 . S
N271 C273 1.356 . S
N271 H276 0.984 . S
N271 H277 0.985 . S
C272 C266 1.379 . S
C272 C269 1.363 . S
C272 N270 1.356 . S
C273 C267 1.363 . S
C273 C268 1.379 . S
C273 N271 1.356 . S
N274 C266 1.356 . S
N274 H280 0.984 . S
N274 H281 0.984 . S
N275 C268 1.356 . S
N275 H278 0.984 . S
N275 H279 0.985 . S
H276 N271 0.984 . S
H277 N271 0.985 . S
H278 N275 0.984 . S
H279 N275 0.985 . S
H280 N274 0.984 . S
H281 N274 0.984 . S
H282 N270 0.984 . S
H283 N270 0.985 . S
C284 C285 1.363 . S
C284 C290 1.379 . S
C284 N292 1.356 . S
C285 C284 1.363 . S
C285 C291 1.363 . S
C286 C287 1.363 . S
C286 C291 1.379 . S
C286 N293 1.356 . S
C287 C286 1.363 . S
C287 C290 1.363 . S
N288 C290 1.356 . S
N288 H300 0.984 . S
N288 H301 0.985 . S
N289 C291 1.356 . S
N289 H294 0.984 . S
N289 H295 0.985 . S
C290 C284 1.379 . S
C290 C287 1.363 . S
C290 N288 1.356 . S
C291 C285 1.363 . S
C291 C286 1.379 . S
C291 N289 1.356 . S
N292 C284 1.356 . S
N292 H298 0.984 . S
N292 H299 0.984 . S
N293 C286 1.356 . S
N293 H296 0.984 . S
N293 H297 0.985 . S
H294 N289 0.984 . S
H295 N289 0.985 . S
H296 N293 0.984 . S
H297 N293 0.985 . S
H298 N292 0.984 . S
H299 N292 0.984 . S
H300 N288 0.984 . S
H301 N288 0.985 . S
C302 C303 1.363 . S
C302 C308 1.379 . S
C302 N310 1.356 . S
C303 C302 1.363 . S
C303 C309 1.363 . S
C304 C305 1.363 . S
C304 C309 1.379 . S
C304 N311 1.356 . S
C305 C304 1.363 . S
C305 C308 1.363 . S
N306 C308 1.356 . S
N306 H318 0.984 . S
N306 H319 0.985 . S
N307 C309 1.356 . S
N307 H312 0.984 . S
N307 H313 0.985 . S
C308 C302 1.379 . S
C308 C305 1.363 . S
C308 N306 1.356 . S
C309 C303 1.363 . S
C309 C304 1.379 . S
C309 N307 1.356 . S
N310 C302 1.356 . S
N310 H316 0.984 . S
N310 H317 0.984 . S
N311 C304 1.356 . S
N311 H314 0.984 . S
N311 H315 0.985 . S
H312 N307 0.984 . S
H313 N307 0.985 . S
H314 N311 0.984 . S
H315 N311 0.985 . S
H316 N310 0.984 . S
H317 N310 0.984 . S
H318 N306 0.984 . S
H319 N306 0.985 . S
C320 C321 1.363 . S
C320 C326 1.379 1_655 S
C320 N328 1.356 . S
C321 C320 1.363 . S
C321 C327 1.363 . S
C322 C323 1.363 . S
C322 C327 1.379 1_455 S
C322 N329 1.356 . S
C323 C322 1.363 . S
C323 C326 1.363 . S
N324 C326 1.356 . S
N324 H336 0.984 . S
N324 H337 0.985 . S
N325 C327 1.356 . S
N325 H330 0.984 . S
N325 H331 0.985 . S
C326 C320 1.379 1_455 S
C326 C323 1.363 . S
C326 N324 1.356 . S
C327 C321 1.363 . S
C327 C322 1.379 1_655 S
C327 N325 1.356 . S
N328 C320 1.356 . S
N328 H334 0.974 1_655 S
N328 H335 0.984 . S
N329 C322 1.356 . S
N329 H332 0.984 . S
N329 H333 0.972 1_455 S
H330 N325 0.984 . S
H331 N325 0.985 . S
H332 N329 0.984 . S
H333 N329 0.972 1_655 S
H334 N328 0.974 1_455 S
H335 N328 0.984 . S
H336 N324 0.984 . S
H337 N324 0.985 . S
C338 C339 1.363 1_565 S
C338 C344 1.379 . S
C338 N346 1.356 1_565 S
C339 C338 1.363 1_545 S
C339 C345 1.363 . S
C340 C341 1.363 1_545 S
C340 C345 1.379 . S
C340 N347 1.356 1_545 S
C341 C340 1.363 1_565 S
C341 C344 1.363 . S
N342 C344 1.356 . S
N342 H354 0.984 . S
N342 H355 0.985 . S
N343 C345 1.356 . S
N343 H348 0.984 . S
N343 H349 0.985 . S
C344 C338 1.379 . S
C344 C341 1.363 . S
C344 N342 1.356 . S
C345 C339 1.363 . S
C345 C340 1.379 . S
C345 N343 1.356 . S
N346 C338 1.356 1_545 S
N346 H352 0.984 1_545 S
N346 H353 0.984 . S
N347 C340 1.356 1_565 S
N347 H350 0.984 . S
N347 H351 0.985 1_565 S
H348 N343 0.984 . S
H349 N343 0.985 . S
H350 N347 0.984 . S
H351 N347 0.985 1_545 S
H352 N346 0.984 1_565 S
H353 N346 0.984 . S
H354 N342 0.984 . S
H355 N342 0.985 . S
C356 C357 1.363 . S
C356 C362 1.379 1_655 S
C356 N364 1.356 . S
C357 C356 1.363 . S
C357 C363 1.363 . S
C358 C359 1.363 . S
C358 C363 1.379 1_455 S
C358 N365 1.356 . S
C359 C358 1.363 . S
C359 C362 1.363 . S
N360 C362 1.356 . S
N360 H372 0.984 . S
N360 H373 0.985 . S
N361 C363 1.356 . S
N361 H366 0.984 . S
N361 H367 0.985 . S
C362 C356 1.379 1_455 S
C362 C359 1.363 . S
C362 N360 1.356 . S
C363 C357 1.363 . S
C363 C358 1.379 1_655 S
C363 N361 1.356 . S
N364 C356 1.356 . S
N364 H370 0.984 . S
N364 H371 0.984 . S
N365 C358 1.356 . S
N365 H368 0.984 . S
N365 H369 0.985 . S
H366 N361 0.984 . S
H367 N361 0.985 . S
H368 N365 0.984 . S
H369 N365 0.985 . S
H370 N364 0.984 . S
H371 N364 0.984 . S
H372 N360 0.984 . S
H373 N360 0.985 . S
C374 C375 1.363 . S
C374 C380 1.379 1_545 S
C374 N382 1.356 . S
C375 C374 1.363 . S
C375 C381 1.363 . S
C376 C377 1.363 . S
C376 C381 1.379 1_565 S
C376 N383 1.356 . S
C377 C376 1.363 . S
C377 C380 1.363 . S
N378 C380 1.356 . S
N378 H390 0.984 . S
N378 H391 0.985 . S
N379 C381 1.356 . S
N379 H384 0.984 . S
N379 H385 0.985 . S
C380 C374 1.379 1_565 S
C380 C377 1.363 . S
C380 N378 1.356 . S
C381 C375 1.363 . S
C381 C376 1.379 1_545 S
C381 N379 1.356 . S
N382 C374 1.356 . S
N382 H388 0.984 . S
N382 H389 0.984 . S
N383 C376 1.356 . S
N383 H386 0.984 . S
N383 H387 0.985 . S
H384 N379 0.984 . S
H385 N379 0.985 . S
H386 N383 0.984 . S
H387 N383 0.985 . S
H388 N382 0.984 . S
H389 N382 0.984 . S
H390 N378 0.984 . S
H391 N378 0.985 . S
C392 C393 1.363 . S
C392 C398 1.379 1_455 S
C392 N400 1.356 . S
C393 C392 1.363 . S
C393 C399 1.363 . S
C394 C395 1.363 . S
C394 C399 1.379 1_655 S
C394 N401 1.356 . S
C395 C394 1.363 . S
C395 C398 1.363 . S
N396 C398 1.356 . S
N396 H408 0.984 . S
N396 H409 0.985 . S
N397 C399 1.356 . S
N397 H402 0.984 . S
N397 H403 0.985 . S
C398 C392 1.379 1_655 S
C398 C395 1.363 . S
C398 N396 1.356 . S
C399 C393 1.363 . S
C399 C394 1.379 1_455 S
C399 N397 1.356 . S
N400 C392 1.356 . S
N400 H406 0.984 . S
N400 H407 0.984 . S
N401 C394 1.356 . S
N401 H404 0.984 . S
N401 H405 0.985 . S
H402 N397 0.984 . S
H403 N397 0.985 . S
H404 N401 0.984 . S
H405 N401 0.985 . S
H406 N400 0.984 . S
H407 N400 0.984 . S
H408 N396 0.984 . S
H409 N396 0.985 . S
C410 C411 1.363 . S
C410 C416 1.379 1_565 S
C410 N418 1.356 . S
C411 C410 1.363 . S
C411 C417 1.363 . S
C412 C413 1.363 . S
C412 C417 1.379 1_545 S
C412 N419 1.356 . S
C413 C412 1.363 . S
C413 C416 1.363 . S
N414 C416 1.356 . S
N414 H426 0.974 1_545 S
N414 H427 0.985 . S
N415 C417 1.356 . S
N415 H420 0.984 . S
N415 H421 0.975 1_565 S
C416 C410 1.379 1_545 S
C416 C413 1.363 . S
C416 N414 1.356 . S
C417 C411 1.363 . S
C417 C412 1.379 1_565 S
C417 N415 1.356 . S
N418 C410 1.356 . S
N418 H424 0.984 . S
N418 H425 0.984 . S
N419 C412 1.356 . S
N419 H422 0.984 . S
N419 H423 0.985 . S
H420 N415 0.984 . S
H421 N415 0.975 1_545 S
H422 N419 0.984 . S
H423 N419 0.985 . S
H424 N418 0.984 . S
H425 N418 0.984 . S
H426 N414 0.974 1_565 S
H427 N414 0.985 . S
C428 C429 1.363 . S
C428 C434 1.379 1_655 S
C428 N436 1.356 . S
C429 C428 1.363 . S
C429 C435 1.363 . S
C430 C431 1.363 . S
C430 C435 1.379 1_455 S
C430 N437 1.356 . S
C431 C430 1.363 . S
C431 C434 1.363 . S
N432 C434 1.356 . S
N432 H444 0.984 . S
N432 H445 0.985 . S
N433 C435 1.356 . S
N433 H438 0.984 . S
N433 H439 0.985 . S
C434 C428 1.379 1_455 S
C434 C431 1.363 . S
C434 N432 1.356 . S
C435 C429 1.363 . S
C435 C430 1.379 1_655 S
C435 N433 1.356 . S
N436 C428 1.356 . S
N436 H442 0.984 . S
N436 H443 0.984 . S
N437 C430 1.356 . S
N437 H440 0.984 . S
N437 H441 0.985 . S
H438 N433 0.984 . S
H439 N433 0.985 . S
H440 N437 0.984 . S
H441 N437 0.985 . S
H442 N436 0.984 . S
H443 N436 0.984 . S
H444 N432 0.984 . S
H445 N432 0.985 . S
C446 C447 1.363 . S
C446 C452 1.379 1_565 S
C446 N454 1.356 . S
C447 C446 1.363 . S
C447 C453 1.363 . S
C448 C449 1.363 . S
C448 C453 1.379 1_545 S
C448 N455 1.356 . S
C449 C448 1.363 . S
C449 C452 1.363 . S
N450 C452 1.356 . S
N450 H462 0.984 . S
N450 H463 0.985 . S
N451 C453 1.356 . S
N451 H456 0.984 . S
N451 H457 0.985 . S
C452 C446 1.379 1_545 S
C452 C449 1.363 . S
C452 N450 1.356 . S
C453 C447 1.363 . S
C453 C448 1.379 1_565 S
C453 N451 1.356 . S
N454 C446 1.356 . S
N454 H460 0.984 . S
N454 H461 0.984 . S
N455 C448 1.356 . S
N455 H458 0.984 . S
N455 H459 0.983 1_545 S
H456 N451 0.984 . S
H457 N451 0.985 . S
H458 N455 0.984 . S
H459 N455 0.983 1_565 S
H460 N454 0.984 . S
H461 N454 0.984 . S
H462 N450 0.984 . S
H463 N450 0.985 . S
C464 C465 1.363 . S
C464 C470 1.379 . S
C464 N472 1.356 . S
C465 C464 1.363 . S
C465 C471 1.363 . S
C466 C467 1.363 . S
C466 C471 1.379 . S
C466 N473 1.356 . S
C467 C466 1.363 . S
C467 C470 1.363 . S
N468 C470 1.356 . S
N468 H480 0.984 . S
N468 H481 0.985 . S
N469 C471 1.356 . S
N469 H474 0.984 . S
N469 H475 0.985 . S
C470 C464 1.379 . S
C470 C467 1.363 . S
C470 N468 1.356 . S
C471 C465 1.363 . S
C471 C466 1.379 . S
C471 N469 1.356 . S
N472 C464 1.356 . S
N472 H478 0.984 . S
N472 H479 0.984 . S
N473 C466 1.356 . S
N473 H476 0.984 . S
N473 H477 0.985 . S
H474 N469 0.984 . S
H475 N469 0.985 . S
H476 N473 0.984 . S
H477 N473 0.985 . S
H478 N472 0.984 . S
H479 N472 0.984 . S
H480 N468 0.984 . S
H481 N468 0.985 . S
C482 C483 1.363 . S
C482 C488 1.379 . S
C482 N490 1.356 . S
C483 C482 1.363 . S
C483 C489 1.363 . S
C484 C485 1.363 . S
C484 C489 1.379 . S
C484 N491 1.356 . S
C485 C484 1.363 . S
C485 C488 1.363 . S
N486 C488 1.356 . S
N486 H498 0.984 . S
N486 H499 0.985 . S
N487 C489 1.356 . S
N487 H492 0.984 . S
N487 H493 0.985 . S
C488 C482 1.379 . S
C488 C485 1.363 . S
C488 N486 1.356 . S
C489 C483 1.363 . S
C489 C484 1.379 . S
C489 N487 1.356 . S
N490 C482 1.356 . S
N490 H496 0.984 . S
N490 H497 0.984 . S
N491 C484 1.356 . S
N491 H494 0.984 . S
N491 H495 0.985 . S
H492 N487 0.984 . S
H493 N487 0.985 . S
H494 N491 0.984 . S
H495 N491 0.985 . S
H496 N490 0.984 . S
H497 N490 0.984 . S
H498 N486 0.984 . S
H499 N486 0.985 . S
C500 C501 1.363 . S
C500 C506 1.379 . S
C500 N508 1.356 . S
C501 C500 1.363 . S
C501 C507 1.363 . S
C502 C503 1.363 . S
C502 C507 1.379 . S
C502 N509 1.356 . S
C503 C502 1.363 . S
C503 C506 1.363 . S
N504 C506 1.356 . S
N504 H516 0.984 . S
N504 H517 0.985 . S
N505 C507 1.356 . S
N505 H510 0.984 . S
N505 H511 0.985 . S
C506 C500 1.379 . S
C506 C503 1.363 . S
C506 N504 1.356 . S
C507 C501 1.363 . S
C507 C502 1.379 . S
C507 N505 1.356 . S
N508 C500 1.356 . S
N508 H514 0.984 . S
N508 H515 0.984 . S
N509 C502 1.356 . S
N509 H512 0.984 . S
N509 H513 0.985 . S
H510 N505 0.984 . S
H511 N505 0.985 . S
H512 N509 0.984 . S
H513 N509 0.985 . S
H514 N508 0.984 . S
H515 N508 0.984 . S
H516 N504 0.984 . S
H517 N504 0.985 . S
C518 C519 1.363 . S
C518 C524 1.379 . S
C518 N526 1.356 . S
C519 C518 1.363 . S
C519 C525 1.363 . S
C520 C521 1.363 . S
C520 C525 1.379 . S
C520 N527 1.356 . S
C521 C520 1.363 . S
C521 C524 1.363 . S
N522 C524 1.356 . S
N522 H534 0.984 . S
N522 H535 0.985 . S
N523 C525 1.356 . S
N523 H528 0.984 . S
N523 H529 0.985 . S
C524 C518 1.379 . S
C524 C521 1.363 . S
C524 N522 1.356 . S
C525 C519 1.363 . S
C525 C520 1.379 . S
C525 N523 1.356 . S
N526 C518 1.356 . S
N526 H532 0.984 . S
N526 H533 0.984 . S
N527 C520 1.356 . S
N527 H530 0.984 . S
N527 H531 0.985 . S
H528 N523 0.984 . S
H529 N523 0.985 . S
H530 N527 0.984 . S
H531 N527 0.985 . S
H532 N526 0.984 . S
H533 N526 0.984 . S
H534 N522 0.984 . S
H535 N522 0.985 . S
C536 C537 1.363 . S
C536 C542 1.379 . S
C536 N544 1.356 . S
C537 C536 1.363 . S
C537 C543 1.363 . S
C538 C539 1.363 . S
C538 C543 1.379 . S
C538 N545 1.356 . S
C539 C538 1.363 . S
C539 C542 1.363 . S
N540 C542 1.356 . S
N540 H552 0.984 . S
N540 H553 0.985 . S
N541 C543 1.356 . S
N541 H546 0.984 . S
N541 H547 0.985 . S
C542 C536 1.379 . S
C542 C539 1.363 . S
C542 N540 1.356 . S
C543 C537 1.363 . S
C543 C538 1.379 . S
C543 N541 1.356 . S
N544 C536 1.356 . S
N544 H550 0.984 . S
N544 H551 0.984 . S
N545 C538 1.356 . S
N545 H548 0.984 . S
N545 H549 0.985 . S
H546 N541 0.984 . S
H547 N541 0.985 . S
H548 N545 0.984 . S
H549 N545 0.985 . S
H550 N544 0.984 . S
H551 N544 0.984 . S
H552 N540 0.984 . S
H553 N540 0.985 . S
C554 C555 1.363 . S
C554 C560 1.379 . S
C554 N562 1.356 . S
C555 C554 1.363 . S
C555 C561 1.363 . S
C556 C557 1.363 . S
C556 C561 1.379 . S
C556 N563 1.356 . S
C557 C556 1.363 . S
C557 C560 1.363 . S
N558 C560 1.356 . S
N558 H570 0.984 . S
N558 H571 0.985 . S
N559 C561 1.356 . S
N559 H564 0.984 . S
N559 H565 0.985 . S
C560 C554 1.379 . S
C560 C557 1.363 . S
C560 N558 1.356 . S
C561 C555 1.363 . S
C561 C556 1.379 . S
C561 N559 1.356 . S
N562 C554 1.356 . S
N562 H568 0.984 . S
N562 H569 0.984 . S
N563 C556 1.356 . S
N563 H566 0.984 . S
N563 H567 0.985 . S
H564 N559 0.984 . S
H565 N559 0.985 . S
H566 N563 0.984 . S
H567 N563 0.985 . S
H568 N562 0.984 . S
H569 N562 0.984 . S
H570 N558 0.984 . S
H571 N558 0.985 . S
C572 C573 1.363 . S
C572 C578 1.379 . S
C572 N580 1.356 . S
C573 C572 1.363 . S
C573 C579 1.363 . S
C574 C575 1.363 . S
C574 C579 1.379 . S
C574 N581 1.356 . S
C575 C574 1.363 . S
C575 C578 1.363 . S
N576 C578 1.356 . S
N576 H588 0.984 . S
N576 H589 0.985 . S
N577 C579 1.356 . S
N577 H582 0.984 . S
N577 H583 0.985 . S
C578 C572 1.379 . S
C578 C575 1.363 . S
C578 N576 1.356 . S
C579 C573 1.363 . S
C579 C574 1.379 . S
C579 N577 1.356 . S
N580 C572 1.356 . S
N580 H586 0.984 . S
N580 H587 0.984 . S
N581 C574 1.356 . S
N581 H584 0.984 . S
N581 H585 0.985 . S
H582 N577 0.984 . S
H583 N577 0.985 . S
H584 N581 0.984 . S
H585 N581 0.985 . S
H586 N580 0.984 . S
H587 N580 0.984 . S
H588 N576 0.984 . S
H589 N576 0.985 . S
C590 C591 1.363 . S
C590 C596 1.379 . S
C590 N598 1.356 . S
C591 C590 1.363 . S
C591 C597 1.363 . S
C592 C593 1.363 . S
C592 C597 1.379 . S
C592 N599 1.356 . S
C593 C592 1.363 . S
C593 C596 1.363 . S
N594 C596 1.356 . S
N594 H606 0.984 . S
N594 H607 0.985 . S
N595 C597 1.356 . S
N595 H600 0.984 . S
N595 H601 0.985 . S
C596 C590 1.379 . S
C596 C593 1.363 . S
C596 N594 1.356 . S
C597 C591 1.363 . S
C597 C592 1.379 . S
C597 N595 1.356 . S
N598 C590 1.356 . S
N598 H604 0.984 . S
N598 H605 0.984 . S
N599 C592 1.356 . S
N599 H602 0.984 . S
N599 H603 0.985 . S
H600 N595 0.984 . S
H601 N595 0.985 . S
H602 N599 0.984 . S
H603 N599 0.985 . S
H604 N598 0.984 . S
H605 N598 0.984 . S
H606 N594 0.984 . S
H607 N594 0.985 . S
C177 C140 1.437 . S
C179 C8 1.437 . S
C195 C43 1.473 . S
C197 C164 1.480 . S
C213 C96 1.478 . S
C215 C59 1.472 . S
C231 C73 1.514 . S
C233 C125 1.514 . S
C249 C109 1.464 . S
C251 C54 1.469 . S
C267 C84 1.427 . S
C269 C120 1.427 . S
C285 C153 1.504 . S
C287 C21 1.504 . S
C303 C30 1.467 . S
C305 C169 1.462 . S
C321 C40 1.437 . S
C323 C118 1.437 . S
C339 C147 1.473 . S
C341 C52 1.480 . S
C357 C161 1.471 . S
C359 C76 1.478 . S
C375 C15 1.514 . S
C377 C103 1.514 . S
C393 C81 1.464 . S
C395 C172 1.469 . S
C411 C98 1.427 . S
C413 C10 1.427 . S
C429 C29 1.504 . S
C431 C131 1.504 . S
C447 C65 1.462 . S
C449 C142 1.467 . S
C465 C162 1.230 . S
C467 C18 1.230 . S
C483 C37 1.265 . S
C485 C106 1.267 . S
C501 C51 1.303 . S
C503 C117 1.303 . S
C519 C150 1.267 . S
C521 C87 1.265 . S
C537 C128 1.230 . S
C539 C62 1.230 . S
C555 C139 1.265 . S
C557 C74 1.267 . S
C573 C175 1.303 . S
C575 C7 1.303 . S
C591 C95 1.265 . S
C593 C32 1.267 . S
