# Generated by pormake.
# Topology unh, (4)-cn, num edge types: 1
# Building blocks:
#     Node 0, Type 0, BuildingBlock: QUQFOY_clean_sbu_1, # of connection points: 4
#     Node 1, Type 0, BuildingBlock: QUQFOY_clean_sbu_1, # of connection points: 4
#     Node 2, Type 0, BuildingBlock: QUQFOY_clean_sbu_1, # of connection points: 4
#     Node 3, Type 0, BuildingBlock: QUQFOY_clean_sbu_1, # of connection points: 4
#     Node 4, Type 0, BuildingBlock: QUQFOY_clean_sbu_1, # of connection points: 4
#     Node 5, Type 0, BuildingBlock: QUQFOY_clean_sbu_1, # of connection points: 4
#     Edge 6, Type (0, 0), BuildingBlock: XIVTED_clean_linker_0, # of connection points: 2
#     Edge 7, Type (0, 0), BuildingBlock: XIVTED_clean_linker_0, # of connection points: 2
#     Edge 8, Type (0, 0), BuildingBlock: XIVTED_clean_linker_0, # of connection points: 2
#     Edge 9, Type (0, 0), BuildingBlock: XIVTED_clean_linker_0, # of connection points: 2
#     Edge 10, Type (0, 0), BuildingBlock: XIVTED_clean_linker_0, # of connection points: 2
#     Edge 11, Type (0, 0), BuildingBlock: XIVTED_clean_linker_0, # of connection points: 2
#     Edge 12, Type (0, 0), BuildingBlock: XIVTED_clean_linker_0, # of connection points: 2
#     Edge 13, Type (0, 0), BuildingBlock: XIVTED_clean_linker_0, # of connection points: 2
#     Edge 14, Type (0, 0), BuildingBlock: XIVTED_clean_linker_0, # of connection points: 2
#     Edge 15, Type (0, 0), BuildingBlock: XIVTED_clean_linker_0, # of connection points: 2
#     Edge 16, Type (0, 0), BuildingBlock: XIVTED_clean_linker_0, # of connection points: 2
#     Edge 17, Type (0, 0), BuildingBlock: XIVTED_clean_linker_0, # of connection points: 2
# Relax obj value: 0.055
# Max RMSD: 0.146
# Mean RMSD: 0.146
data_MOF--net-unh--node1-QUQFOY_clean_sbu_1--edge1-XIVTED_clean_linker_0
_symmetry_space_group_name_H-M    P1
_symmetry_Int_Tables_number       1
_symmetry_cell_setting            triclinic
loop_
_symmetry_equiv_pos_as_xyz
'x, y, z'
_cell_length_a     44.128318
_cell_length_b     44.088631
_cell_length_c     22.951857
_cell_angle_alpha  90.012043
_cell_angle_beta   90.032053
_cell_angle_gamma 120.07805
loop_
_atom_site_label
_atom_site_type_symbol
_atom_site_fract_x
_atom_site_fract_y
_atom_site_fract_z
_atom_type_partial_charge
O0 O 0.07646 0.55223 0.01781 0.0
Cd1 Cd 0.11335 0.58794 0.07503 0.0
Cd2 Cd 0.14692 0.55403 0.04122 0.0
O3 O 0.09914 0.51797 0.00628 0.0
O4 O 0.08757 0.6022 0.13045 0.0
O5 O 0.11227 0.57124 0.15619 0.0
C6 C 0.09356 0.58509 0.17012 0.0
C7 C 0.17719 0.54026 0.1096 0.0
C8 C 0.07449 0.52446 0.99738 0.0
C9 C 0.17768 0.62908 0.00445 0.0
O10 O 0.17591 0.59978 0.99516 0.0
O11 O 0.157 0.63139 0.04045 0.0
O12 O 0.1765 0.53197 0.05545 0.0
O13 O 0.15957 0.55507 0.1249 0.0
O14 O 0.51803 0.07731 0.1892 0.0
Cd15 Cd 0.51916 0.1131 0.24877 0.0
Cd16 Cd 0.58592 0.14753 0.21627 0.0
O17 O 0.57512 0.10059 0.17915 0.0
O18 O 0.48123 0.08582 0.30643 0.0
O19 O 0.53782 0.11246 0.32759 0.0
C20 C 0.50574 0.09232 0.34362 0.0
C21 C 0.63525 0.18062 0.27428 0.0
C22 C 0.54413 0.0759 0.16897 0.0
C23 C 0.54 0.17734 0.18198 0.0
O24 O 0.5677 0.17605 0.17253 0.0
O25 O 0.51707 0.15613 0.21753 0.0
O26 O 0.63777 0.17932 0.21847 0.0
O27 O 0.60479 0.16175 0.2976 0.0
O28 O 0.4447 0.51812 0.35598 0.0
Cd29 Cd 0.4076 0.51604 0.41213 0.0
Cd30 Cd 0.44067 0.58645 0.38942 0.0
O31 O 0.47514 0.57558 0.34495 0.0
O32 O 0.39559 0.47676 0.46791 0.0
O33 O 0.42348 0.53289 0.49279 0.0
C34 C 0.4117 0.50058 0.50716 0.0
C35 C 0.46025 0.63257 0.45612 0.0
C36 C 0.47086 0.54526 0.33493 0.0
C37 C 0.36447 0.54123 0.35301 0.0
O38 O 0.39225 0.57113 0.35274 0.0
O39 O 0.36413 0.51493 0.37647 0.0
O40 O 0.46417 0.63851 0.40082 0.0
O41 O 0.44656 0.60055 0.47353 0.0
O42 O 0.92559 0.45156 0.51805 0.0
Cd43 Cd 0.88848 0.41607 0.5751 0.0
Cd44 Cd 0.85598 0.4514 0.54311 0.0
O45 O 0.90384 0.4867 0.50771 0.0
O46 O 0.91381 0.40117 0.63039 0.0
O47 O 0.88981 0.43276 0.65633 0.0
C48 C 0.90817 0.41849 0.67015 0.0
C49 C 0.82681 0.46669 0.61131 0.0
C50 C 0.92803 0.47964 0.49817 0.0
C51 C 0.82364 0.37628 0.505 0.0
O52 O 0.82588 0.40588 0.49685 0.0
O53 O 0.84432 0.37329 0.54014 0.0
O54 O 0.82753 0.47471 0.55702 0.0
O55 O 0.84373 0.45119 0.62685 0.0
O56 O 0.48745 0.92615 0.68849 0.0
Cd57 Cd 0.48834 0.8917 0.74759 0.0
Cd58 Cd 0.41899 0.85422 0.72356 0.0
O59 O 0.43014 0.89884 0.67627 0.0
O60 O 0.52562 0.91913 0.80597 0.0
O61 O 0.46882 0.89105 0.82615 0.0
C62 C 0.50073 0.91158 0.84289 0.0
C63 C 0.36795 0.82476 0.77927 0.0
C64 C 0.46048 0.92479 0.66601 0.0
C65 C 0.46512 0.82294 0.69354 0.0
O66 O 0.43532 0.82082 0.69192 0.0
O67 O 0.49133 0.84955 0.71576 0.0
O68 O 0.36705 0.8236 0.72317 0.0
O69 O 0.39781 0.84451 0.80405 0.0
O70 O 0.55847 0.48604 0.85416 0.0
Cd71 Cd 0.59536 0.48864 0.91152 0.0
Cd72 Cd 0.56375 0.41879 0.89104 0.0
O73 O 0.52946 0.42855 0.84357 0.0
O74 O 0.6062 0.52718 0.9677 0.0
O75 O 0.57877 0.47085 0.99171 0.0
C76 C 0.59014 0.50309 0.00651 0.0
C77 C 0.54212 0.36808 0.94792 0.0
C78 C 0.53297 0.45846 0.83274 0.0
C79 C 0.64053 0.46526 0.85683 0.0
O80 O 0.61317 0.4351 0.85785 0.0
O81 O 0.64001 0.49171 0.87755 0.0
O82 O 0.54239 0.36684 0.89186 0.0
O83 O 0.55268 0.39818 0.97211 0.0
H84 H 0.06574 0.46833 0.93215 0.0
H85 H 0.90027 0.45281 0.76291 0.0
H86 H 0.01522 0.52768 0.97531 0.0
H87 H 0.95553 0.39993 0.70863 0.0
H88 H 0.93577 0.4721 0.85126 0.0
H89 H 0.01968 0.43526 0.86051 0.0
C90 C 0.04475 0.47413 0.92716 0.0
C91 C 0.04464 0.50119 0.95931 0.0
C92 C 0.93989 0.45593 0.8204 0.0
C93 C 0.99191 0.46348 0.87723 0.0
C94 C 0.91953 0.4448 0.76995 0.0
C95 C 0.92525 0.4251 0.72791 0.0
C96 C 0.96634 0.44749 0.82884 0.0
C97 C 0.95041 0.41531 0.73966 0.0
C98 C 0.01849 0.45526 0.88613 0.0
C99 C 0.01666 0.50738 0.95107 0.0
N100 N 0.97035 0.42698 0.7887 0.0
N101 N 0.99165 0.48891 0.91054 0.0
H102 H 0.56477 0.95714 0.89005 0.0
H103 H 0.48183 0.01716 0.14226 0.0
H104 H 0.45401 0.90622 0.92644 0.0
H105 H 0.59281 0.06737 0.10781 0.0
H106 H 0.47186 0.97182 0.07141 0.0
H107 H 0.57623 0.9927 0.97769 0.0
C108 C 0.54288 0.95304 0.91693 0.0
C109 C 0.50834 0.92893 0.90049 0.0
C110 C 0.49844 0.99256 0.0797 0.0
C111 C 0.52126 0.96989 0.00059 0.0
C112 C 0.50417 0.01853 0.12017 0.0
C113 C 0.5382 0.04641 0.13056 0.0
C114 C 0.52689 0.99451 0.04901 0.0
C115 C 0.5661 0.04654 0.10093 0.0
C116 C 0.54944 0.97345 0.96694 0.0
C117 C 0.48104 0.92466 0.93719 0.0
N118 N 0.55979 0.02122 0.06109 0.0
N119 N 0.48806 0.94524 0.98511 0.0
H120 H 0.47373 0.48568 0.31484 0.0
H121 H 0.60623 0.56771 0.04817 0.0
H122 H 0.52356 0.5949 0.2665 0.0
H123 H 0.55405 0.45831 0.09583 0.0
H124 H 0.58339 0.58007 0.13646 0.0
H125 H 0.50965 0.47719 0.24355 0.0
C126 C 0.49243 0.50799 0.28953 0.0
C127 C 0.49526 0.54098 0.29615 0.0
C128 C 0.57732 0.55344 0.128 0.0
C129 C 0.53649 0.53132 0.21397 0.0
C130 C 0.59044 0.54636 0.07766 0.0
C131 C 0.58167 0.51183 0.0642 0.0
C132 C 0.55516 0.52577 0.16502 0.0
C133 C 0.56124 0.48527 0.10415 0.0
C134 C 0.513 0.50311 0.24881 0.0
C135 C 0.52029 0.56896 0.26257 0.0
N136 N 0.54835 0.49274 0.15238 0.0
N137 N 0.53967 0.5634 0.22243 0.0
H138 H 0.93762 0.5365 0.43435 0.0
H139 H 0.10136 0.55023 0.26215 0.0
H140 H 0.98642 0.47513 0.47441 0.0
H141 H 0.04655 0.60387 0.20946 0.0
H142 H 0.06611 0.53091 0.35069 0.0
H143 H 0.98352 0.56928 0.36248 0.0
C144 C 0.9582 0.53019 0.42863 0.0
C145 C 0.95787 0.50267 0.45997 0.0
C146 C 0.06204 0.54725 0.32013 0.0
C147 C 0.01042 0.54005 0.37764 0.0
C148 C 0.08225 0.55839 0.26958 0.0
C149 C 0.07658 0.57833 0.22793 0.0
C150 C 0.03582 0.55594 0.32909 0.0
C151 C 0.05162 0.5883 0.24016 0.0
C152 C 0.98437 0.54889 0.38747 0.0
C153 C 0.98534 0.49582 0.45081 0.0
N154 N 0.03185 0.57664 0.28931 0.0
N155 N 0.01028 0.51415 0.41018 0.0
H156 H 0.55127 0.10037 0.43122 0.0
H157 H 0.41031 0.92863 0.60036 0.0
H158 H 0.44173 0.04217 0.38495 0.0
H159 H 0.52076 0.98578 0.64079 0.0
H160 H 0.41962 0.97398 0.52947 0.0
H161 H 0.53876 0.06328 0.517 0.0
C162 C 0.52448 0.08012 0.43955 0.0
C163 C 0.49757 0.07413 0.40047 0.0
C164 C 0.44175 0.9767 0.55424 0.0
C165 C 0.48311 0.03117 0.49829 0.0
C166 C 0.43645 0.95081 0.59472 0.0
C167 C 0.46486 0.95314 0.62615 0.0
C168 C 0.47568 0.00513 0.54513 0.0
C169 C 0.49811 0.98261 0.61717 0.0
C170 C 0.51736 0.05884 0.48848 0.0
C171 C 0.46333 0.04759 0.4137 0.0
N172 N 0.50261 0.00726 0.57729 0.0
N173 N 0.45714 0.02681 0.46113 0.0
H174 H 0.4805 0.4072 0.76597 0.0
H175 H 0.44342 0.54447 0.5994 0.0
H176 H 0.52892 0.51709 0.80932 0.0
H177 H 0.40013 0.43674 0.54559 0.0
H178 H 0.46679 0.532 0.68666 0.0
H179 H 0.4436 0.41489 0.69467 0.0
C180 C 0.48316 0.43285 0.76094 0.0
C181 C 0.50819 0.46164 0.79317 0.0
C182 C 0.45182 0.51094 0.65617 0.0
C183 C 0.46604 0.47059 0.71177 0.0
C184 C 0.43834 0.51802 0.60638 0.0
C185 C 0.42017 0.49171 0.56474 0.0
C186 C 0.44735 0.47735 0.6643 0.0
C187 C 0.4142 0.45788 0.57635 0.0
C188 C 0.46209 0.43722 0.72021 0.0
C189 C 0.51032 0.49422 0.78499 0.0
N190 N 0.42817 0.45176 0.62469 0.0
N191 N 0.48975 0.49783 0.74487 0.0
H192 H 0.19999 0.57252 0.21483 0.0
H193 H 0.31237 0.48302 0.2987 0.0
H194 H 0.20596 0.49782 0.1008 0.0
H195 H 0.34491 0.59048 0.34073 0.0
H196 H 0.26264 0.47901 0.24358 0.0
H197 H 0.24245 0.56969 0.27989 0.0
C198 C 0.20982 0.55511 0.2039 0.0
C199 C 0.19966 0.53555 0.15211 0.0
C200 C 0.28059 0.50329 0.26538 0.0
C201 C 0.2479 0.53204 0.22659 0.0
C202 C 0.30876 0.50556 0.29698 0.0
C203 C 0.3328 0.5372 0.32396 0.0
C204 C 0.27608 0.53258 0.26216 0.0
C205 C 0.3271 0.56571 0.32015 0.0
C206 C 0.23414 0.55368 0.24089 0.0
C207 C 0.21334 0.51352 0.14009 0.0
N208 N 0.29924 0.56269 0.28998 0.0
N209 N 0.23682 0.51234 0.17712 0.0
H210 H 0.64362 0.18183 0.39312 0.0
H211 H 0.79811 0.37682 0.39764 0.0
H212 H 0.69589 0.23654 0.23569 0.0
H213 H 0.79008 0.3065 0.53526 0.0
H214 H 0.75468 0.32672 0.34151 0.0
H215 H 0.69195 0.22783 0.45042 0.0
C216 C 0.6654 0.20326 0.37064 0.0
C217 C 0.66572 0.20546 0.30957 0.0
C218 C 0.76254 0.32224 0.38388 0.0
C219 C 0.7203 0.25816 0.37462 0.0
C220 C 0.78711 0.35079 0.4161 0.0
C221 C 0.79762 0.34575 0.47119 0.0
C222 C 0.74766 0.28841 0.4074 0.0
C223 C 0.78271 0.31141 0.49282 0.0
C224 C 0.69291 0.22937 0.40331 0.0
C225 C 0.69457 0.23376 0.28263 0.0
N226 N 0.75805 0.28395 0.46112 0.0
N227 N 0.72041 0.25928 0.31535 0.0
H228 H 0.41679 0.7535 0.69203 0.0
H229 H 0.50215 0.70336 0.43977 0.0
H230 H 0.5215 0.82759 0.63519 0.0
H231 H 0.43544 0.62674 0.5668 0.0
H232 H 0.50819 0.75013 0.50524 0.0
H233 H 0.42071 0.70686 0.64099 0.0
C234 C 0.44073 0.75984 0.66915 0.0
C235 C 0.46886 0.79436 0.66766 0.0
C236 C 0.49271 0.72307 0.51901 0.0
C237 C 0.47322 0.74138 0.60833 0.0
C238 C 0.48916 0.69641 0.4817 0.0
C239 C 0.46812 0.66114 0.49781 0.0
C240 C 0.47435 0.71427 0.57195 0.0
C241 C 0.45192 0.65358 0.55267 0.0
C242 C 0.443 0.73324 0.64031 0.0
C243 C 0.49932 0.80122 0.63753 0.0
N244 N 0.45485 0.6799 0.58734 0.0
N245 N 0.5005 0.77502 0.60805 0.0
H246 H 0.66142 0.41684 0.85087 0.0
H247 H 0.79845 0.50937 0.60038 0.0
H248 H 0.6918 0.52234 0.79888 0.0
H249 H 0.80503 0.43663 0.71829 0.0
H250 H 0.75705 0.51314 0.66724 0.0
H251 H 0.71142 0.42144 0.7972 0.0
C252 C 0.67882 0.44108 0.82847 0.0
C253 C 0.67251 0.46924 0.82915 0.0
C254 C 0.76799 0.49677 0.67869 0.0
C255 C 0.72928 0.47443 0.76689 0.0
C256 C 0.79148 0.49451 0.64057 0.0
C257 C 0.80503 0.47251 0.65369 0.0
C258 C 0.75744 0.47626 0.72945 0.0
C259 C 0.7952 0.45389 0.70641 0.0
C260 C 0.70738 0.44373 0.7981 0.0
C261 C 0.6959 0.5001 0.79957 0.0
N262 N 0.77158 0.45575 0.74192 0.0
N263 N 0.72301 0.5017 0.76874 0.0
H264 H 0.35804 0.82404 0.89784 0.0
H265 H 0.20246 0.62995 0.896 0.0
H266 H 0.30648 0.77072 0.73888 0.0
H267 H 0.21106 0.6985 0.03714 0.0
H268 H 0.2457 0.68069 0.84115 0.0
H269 H 0.30863 0.77841 0.95368 0.0
C270 C 0.33616 0.8031 0.87468 0.0
C271 C 0.33649 0.80105 0.81362 0.0
C272 C 0.23798 0.68469 0.88398 0.0
C273 C 0.28064 0.74875 0.87703 0.0
C274 C 0.21351 0.65575 0.91545 0.0
C275 C 0.20327 0.66008 0.9712 0.0
C276 C 0.25304 0.71821 0.90886 0.0
C277 C 0.21824 0.69414 0.99416 0.0
C278 C 0.30804 0.77717 0.90653 0.0
C279 C 0.30745 0.77335 0.78584 0.0
N280 N 0.24283 0.72199 0.96315 0.0
N281 N 0.28102 0.748 0.81777 0.0
H282 H 0.53056 0.30496 0.9082 0.0
H283 H 0.506 0.21243 0.21653 0.0
H284 H 0.53412 0.35925 0.06694 0.0
H285 H 0.56129 0.19998 0.07199 0.0
H286 H 0.50046 0.25709 0.15999 0.0
H287 H 0.52447 0.25582 0.96601 0.0
C288 C 0.5295 0.30637 0.95521 0.0
C289 C 0.53327 0.33647 0.9828 0.0
C290 C 0.51357 0.24429 0.14088 0.0
C291 C 0.52618 0.28012 0.0491 0.0
C292 C 0.51662 0.21885 0.17283 0.0
C293 C 0.53434 0.20278 0.14889 0.0
C294 C 0.52744 0.2527 0.08428 0.0
C295 C 0.54774 0.21201 0.09224 0.0
C296 C 0.52618 0.27835 0.98812 0.0
C297 C 0.5316 0.33665 0.04396 0.0
N298 N 0.54386 0.23618 0.0618 0.0
N299 N 0.52833 0.3089 0.07525 0.0
loop_
_geom_bond_atom_site_label_1
_geom_bond_atom_site_label_2
_geom_bond_distance
_geom_bond_site_symmetry_2
_ccdc_geom_bond_type
O0 Cd1 2.223 . S
O0 C8 1.315 . S
Cd1 O0 2.223 . S
Cd1 O4 2.297 . S
Cd1 O5 2.439 . S
Cd1 O11 2.240 . S
Cd2 O3 2.240 . S
Cd2 O10 2.223 1_554 S
Cd2 O12 2.297 . S
Cd2 O13 2.439 . S
O3 Cd2 2.240 . S
O3 C8 1.279 . S
O4 Cd1 2.297 . S
O4 C6 1.247 . S
O5 Cd1 2.439 . S
O5 C6 1.208 . S
C6 O4 1.247 . S
C6 O5 1.208 . S
C7 O12 1.247 . S
C7 O13 1.208 . S
C8 O0 1.315 . S
C8 O3 1.279 . S
C9 O10 1.315 1_554 S
C9 O11 1.279 . S
O10 Cd2 2.223 1_556 S
O10 C9 1.315 1_556 S
O11 Cd1 2.240 . S
O11 C9 1.279 . S
O12 Cd2 2.297 . S
O12 C7 1.247 . S
O13 Cd2 2.439 . S
O13 C7 1.208 . S
O14 Cd15 2.223 . S
O14 C22 1.315 . S
Cd15 O14 2.223 . S
Cd15 O18 2.297 . S
Cd15 O19 2.439 . S
Cd15 O25 2.240 . S
Cd16 O17 2.240 . S
Cd16 O24 2.223 . S
Cd16 O26 2.297 . S
Cd16 O27 2.439 . S
O17 Cd16 2.240 . S
O17 C22 1.279 . S
O18 Cd15 2.297 . S
O18 C20 1.247 . S
O19 Cd15 2.439 . S
O19 C20 1.208 . S
C20 O18 1.247 . S
C20 O19 1.208 . S
C21 O26 1.247 . S
C21 O27 1.208 . S
C22 O14 1.315 . S
C22 O17 1.279 . S
C23 O24 1.315 . S
C23 O25 1.279 . S
O24 Cd16 2.223 . S
O24 C23 1.315 . S
O25 Cd15 2.240 . S
O25 C23 1.279 . S
O26 Cd16 2.297 . S
O26 C21 1.247 . S
O27 Cd16 2.439 . S
O27 C21 1.208 . S
O28 Cd29 2.223 . S
O28 C36 1.315 . S
Cd29 O28 2.223 . S
Cd29 O32 2.297 . S
Cd29 O33 2.439 . S
Cd29 O39 2.240 . S
Cd30 O31 2.240 . S
Cd30 O38 2.223 . S
Cd30 O40 2.297 . S
Cd30 O41 2.439 . S
O31 Cd30 2.240 . S
O31 C36 1.279 . S
O32 Cd29 2.297 . S
O32 C34 1.247 . S
O33 Cd29 2.439 . S
O33 C34 1.208 . S
C34 O32 1.247 . S
C34 O33 1.208 . S
C35 O40 1.247 . S
C35 O41 1.208 . S
C36 O28 1.315 . S
C36 O31 1.279 . S
C37 O38 1.315 . S
C37 O39 1.279 . S
O38 Cd30 2.223 . S
O38 C37 1.315 . S
O39 Cd29 2.240 . S
O39 C37 1.279 . S
O40 Cd30 2.297 . S
O40 C35 1.247 . S
O41 Cd30 2.439 . S
O41 C35 1.208 . S
O42 Cd43 2.223 . S
O42 C50 1.315 . S
Cd43 O42 2.223 . S
Cd43 O46 2.297 . S
Cd43 O47 2.439 . S
Cd43 O53 2.240 . S
Cd44 O45 2.240 . S
Cd44 O52 2.223 . S
Cd44 O54 2.297 . S
Cd44 O55 2.439 . S
O45 Cd44 2.240 . S
O45 C50 1.279 . S
O46 Cd43 2.297 . S
O46 C48 1.247 . S
O47 Cd43 2.439 . S
O47 C48 1.208 . S
C48 O46 1.247 . S
C48 O47 1.208 . S
C49 O54 1.247 . S
C49 O55 1.208 . S
C50 O42 1.315 . S
C50 O45 1.279 . S
C51 O52 1.315 . S
C51 O53 1.279 . S
O52 Cd44 2.223 . S
O52 C51 1.315 . S
O53 Cd43 2.240 . S
O53 C51 1.279 . S
O54 Cd44 2.297 . S
O54 C49 1.247 . S
O55 Cd44 2.439 . S
O55 C49 1.208 . S
O56 Cd57 2.223 . S
O56 C64 1.315 . S
Cd57 O56 2.223 . S
Cd57 O60 2.297 . S
Cd57 O61 2.439 . S
Cd57 O67 2.240 . S
Cd58 O59 2.240 . S
Cd58 O66 2.223 . S
Cd58 O68 2.297 . S
Cd58 O69 2.439 . S
O59 Cd58 2.240 . S
O59 C64 1.279 . S
O60 Cd57 2.297 . S
O60 C62 1.247 . S
O61 Cd57 2.439 . S
O61 C62 1.208 . S
C62 O60 1.247 . S
C62 O61 1.208 . S
C63 O68 1.247 . S
C63 O69 1.208 . S
C64 O56 1.315 . S
C64 O59 1.279 . S
C65 O66 1.315 . S
C65 O67 1.279 . S
O66 Cd58 2.223 . S
O66 C65 1.315 . S
O67 Cd57 2.240 . S
O67 C65 1.279 . S
O68 Cd58 2.297 . S
O68 C63 1.247 . S
O69 Cd58 2.439 . S
O69 C63 1.208 . S
O70 Cd71 2.223 . S
O70 C78 1.315 . S
Cd71 O70 2.223 . S
Cd71 O74 2.297 . S
Cd71 O75 2.439 1_556 S
Cd71 O81 2.240 . S
Cd72 O73 2.240 . S
Cd72 O80 2.223 . S
Cd72 O82 2.297 . S
Cd72 O83 2.439 . S
O73 Cd72 2.240 . S
O73 C78 1.279 . S
O74 Cd71 2.297 . S
O74 C76 1.247 1_556 S
O75 Cd71 2.439 1_554 S
O75 C76 1.208 . S
C76 O74 1.247 1_554 S
C76 O75 1.208 . S
C77 O82 1.247 . S
C77 O83 1.208 . S
C78 O70 1.315 . S
C78 O73 1.279 . S
C79 O80 1.315 . S
C79 O81 1.279 . S
O80 Cd72 2.223 . S
O80 C79 1.315 . S
O81 Cd71 2.240 . S
O81 C79 1.279 . S
O82 Cd72 2.297 . S
O82 C77 1.247 . S
O83 Cd72 2.439 . S
O83 C77 1.208 . S
H84 C90 0.930 . S
H85 C94 0.930 . S
H86 C99 0.929 1_554 S
H87 C97 0.938 . S
H88 C92 0.929 . S
H89 C98 0.929 . S
C90 H84 0.930 . S
C90 C91 1.367 . S
C90 C98 1.378 . S
C91 C90 1.367 . S
C91 C99 1.433 . S
C92 H88 0.929 . S
C92 C94 1.378 . S
C92 C96 1.350 1_655 S
C93 C96 1.463 . S
C93 C98 1.350 . S
C93 N101 1.427 . S
C94 H85 0.930 . S
C94 C92 1.378 . S
C94 C95 1.367 . S
C95 C94 1.367 . S
C95 C97 1.433 . S
C96 C92 1.350 1_455 S
C96 C93 1.463 . S
C96 N100 1.427 . S
C97 H87 0.938 . S
C97 C95 1.433 . S
C97 N100 1.384 1_655 S
C98 H89 0.929 . S
C98 C90 1.378 . S
C98 C93 1.350 . S
C99 H86 0.929 1_556 S
C99 C91 1.433 . S
C99 N101 1.384 . S
N100 C96 1.427 . S
N100 C97 1.384 1_455 S
N101 C93 1.427 . S
N101 C99 1.384 . S
H102 C108 0.942 . S
H103 C112 0.930 . S
H104 C117 0.929 . S
H105 C115 0.929 . S
H106 C110 0.929 1_565 S
H107 C116 0.929 . S
C108 H102 0.942 . S
C108 C109 1.367 . S
C108 C116 1.378 1_565 S
C109 C108 1.367 . S
C109 C117 1.433 . S
C110 H106 0.929 1_545 S
C110 C112 1.378 . S
C110 C114 1.350 . S
C111 C114 1.463 1_556 S
C111 C116 1.350 . S
C111 N119 1.427 1_545 S
C112 H103 0.930 . S
C112 C110 1.378 . S
C112 C113 1.367 . S
C113 C112 1.367 . S
C113 C115 1.433 . S
C114 C110 1.350 . S
C114 C111 1.463 1_554 S
C114 N118 1.427 . S
C115 H105 0.929 . S
C115 C113 1.433 . S
C115 N118 1.384 . S
C116 H107 0.929 . S
C116 C108 1.378 1_545 S
C116 C111 1.350 . S
C117 H104 0.929 . S
C117 C109 1.433 . S
C117 N119 1.384 . S
N118 C114 1.427 . S
N118 C115 1.384 . S
N119 C111 1.427 1_565 S
N119 C117 1.384 . S
H120 C126 0.930 . S
H121 C130 0.930 . S
H122 C135 0.929 . S
H123 C133 0.929 . S
H124 C128 0.929 . S
H125 C134 0.929 . S
C126 H120 0.930 . S
C126 C127 1.367 . S
C126 C134 1.378 . S
C127 C126 1.367 . S
C127 C135 1.433 . S
C128 H124 0.929 . S
C128 C130 1.378 . S
C128 C132 1.350 . S
C129 C132 1.463 . S
C129 C134 1.350 . S
C129 N137 1.427 . S
C130 H121 0.930 . S
C130 C128 1.378 . S
C130 C131 1.367 . S
C131 C130 1.367 . S
C131 C133 1.433 . S
C132 C128 1.350 . S
C132 C129 1.463 . S
C132 N136 1.427 . S
C133 H123 0.929 . S
C133 C131 1.433 . S
C133 N136 1.384 . S
C134 H125 0.929 . S
C134 C126 1.378 . S
C134 C129 1.350 . S
C135 H122 0.929 . S
C135 C127 1.433 . S
C135 N137 1.384 . S
N136 C132 1.427 . S
N136 C133 1.384 . S
N137 C129 1.427 . S
N137 C135 1.384 . S
H138 C144 0.930 . S
H139 C148 0.930 . S
H140 C153 0.929 . S
H141 C151 0.929 . S
H142 C146 0.929 . S
H143 C152 0.929 . S
C144 H138 0.930 . S
C144 C145 1.367 . S
C144 C152 1.378 . S
C145 C144 1.367 . S
C145 C153 1.433 . S
C146 H142 0.929 . S
C146 C148 1.378 1_655 S
C146 C150 1.350 . S
C147 C150 1.463 . S
C147 C152 1.350 . S
C147 N155 1.427 . S
C148 H139 0.930 . S
C148 C146 1.378 1_455 S
C148 C149 1.367 . S
C149 C148 1.367 . S
C149 C151 1.433 . S
C150 C146 1.350 . S
C150 C147 1.463 . S
C150 N154 1.427 1_655 S
C151 H141 0.929 . S
C151 C149 1.433 . S
C151 N154 1.384 . S
C152 H143 0.929 . S
C152 C144 1.378 . S
C152 C147 1.350 . S
C153 H140 0.929 . S
C153 C145 1.433 . S
C153 N155 1.384 . S
N154 C150 1.427 1_455 S
N154 C151 1.384 . S
N155 C147 1.427 . S
N155 C153 1.384 . S
H156 C162 0.930 . S
H157 C166 0.930 . S
H158 C171 0.916 1_565 S
H159 C169 0.929 . S
H160 C164 0.929 . S
H161 C170 0.929 . S
C162 H156 0.930 . S
C162 C163 1.367 . S
C162 C170 1.378 . S
C163 C162 1.367 . S
C163 C171 1.433 . S
C164 H160 0.929 . S
C164 C166 1.378 . S
C164 C168 1.350 . S
C165 C168 1.463 . S
C165 C170 1.350 1_565 S
C165 N173 1.427 . S
C166 H157 0.930 . S
C166 C164 1.378 . S
C166 C167 1.367 . S
C167 C166 1.367 . S
C167 C169 1.433 . S
C168 C164 1.350 . S
C168 C165 1.463 . S
C168 N172 1.427 . S
C169 H159 0.929 . S
C169 C167 1.433 . S
C169 N172 1.384 . S
C170 H161 0.929 . S
C170 C162 1.378 . S
C170 C165 1.350 1_545 S
C171 H158 0.916 1_545 S
C171 C163 1.433 . S
C171 N173 1.384 1_545 S
N172 C168 1.427 . S
N172 C169 1.384 . S
N173 C165 1.427 . S
N173 C171 1.384 1_565 S
H174 C180 0.930 . S
H175 C184 0.930 . S
H176 C189 0.929 . S
H177 C187 0.929 . S
H178 C182 0.929 . S
H179 C188 0.929 . S
C180 H174 0.930 . S
C180 C181 1.367 . S
C180 C188 1.378 . S
C181 C180 1.367 . S
C181 C189 1.433 . S
C182 H178 0.929 . S
C182 C184 1.378 . S
C182 C186 1.350 . S
C183 C186 1.463 . S
C183 C188 1.350 . S
C183 N191 1.427 . S
C184 H175 0.930 . S
C184 C182 1.378 . S
C184 C185 1.367 . S
C185 C184 1.367 . S
C185 C187 1.433 . S
C186 C182 1.350 . S
C186 C183 1.463 . S
C186 N190 1.427 . S
C187 H177 0.929 . S
C187 C185 1.433 . S
C187 N190 1.384 . S
C188 H179 0.929 . S
C188 C180 1.378 . S
C188 C183 1.350 . S
C189 H176 0.929 . S
C189 C181 1.433 . S
C189 N191 1.384 . S
N190 C186 1.427 . S
N190 C187 1.384 . S
N191 C183 1.427 . S
N191 C189 1.384 . S
H192 C198 0.930 . S
H193 C202 0.930 . S
H194 C207 0.929 . S
H195 C205 0.929 . S
H196 C200 0.929 . S
H197 C206 0.929 . S
C198 H192 0.930 . S
C198 C199 1.367 . S
C198 C206 1.378 . S
C199 C198 1.367 . S
C199 C207 1.433 . S
C200 H196 0.929 . S
C200 C202 1.378 . S
C200 C204 1.350 . S
C201 C204 1.463 . S
C201 C206 1.350 . S
C201 N209 1.427 . S
C202 H193 0.930 . S
C202 C200 1.378 . S
C202 C203 1.367 . S
C203 C202 1.367 . S
C203 C205 1.433 . S
C204 C200 1.350 . S
C204 C201 1.463 . S
C204 N208 1.427 . S
C205 H195 0.929 . S
C205 C203 1.433 . S
C205 N208 1.384 . S
C206 H197 0.929 . S
C206 C198 1.378 . S
C206 C201 1.350 . S
C207 H194 0.929 . S
C207 C199 1.433 . S
C207 N209 1.384 . S
N208 C204 1.427 . S
N208 C205 1.384 . S
N209 C201 1.427 . S
N209 C207 1.384 . S
H210 C216 0.930 . S
H211 C220 0.930 . S
H212 C225 0.929 . S
H213 C223 0.929 . S
H214 C218 0.929 . S
H215 C224 0.929 . S
C216 H210 0.930 . S
C216 C217 1.367 . S
C216 C224 1.378 . S
C217 C216 1.367 . S
C217 C225 1.433 . S
C218 H214 0.929 . S
C218 C220 1.378 . S
C218 C222 1.350 . S
C219 C222 1.463 . S
C219 C224 1.350 . S
C219 N227 1.427 . S
C220 H211 0.930 . S
C220 C218 1.378 . S
C220 C221 1.367 . S
C221 C220 1.367 . S
C221 C223 1.433 . S
C222 C218 1.350 . S
C222 C219 1.463 . S
C222 N226 1.427 . S
C223 H213 0.929 . S
C223 C221 1.433 . S
C223 N226 1.384 . S
C224 H215 0.929 . S
C224 C216 1.378 . S
C224 C219 1.350 . S
C225 H212 0.929 . S
C225 C217 1.433 . S
C225 N227 1.384 . S
N226 C222 1.427 . S
N226 C223 1.384 . S
N227 C219 1.427 . S
N227 C225 1.384 . S
H228 C234 0.930 . S
H229 C238 0.930 . S
H230 C243 0.929 . S
H231 C241 0.929 . S
H232 C236 0.929 . S
H233 C242 0.929 . S
C234 H228 0.930 . S
C234 C235 1.367 . S
C234 C242 1.378 . S
C235 C234 1.367 . S
C235 C243 1.433 . S
C236 H232 0.929 . S
C236 C238 1.378 . S
C236 C240 1.350 . S
C237 C240 1.463 . S
C237 C242 1.350 . S
C237 N245 1.427 . S
C238 H229 0.930 . S
C238 C236 1.378 . S
C238 C239 1.367 . S
C239 C238 1.367 . S
C239 C241 1.433 . S
C240 C236 1.350 . S
C240 C237 1.463 . S
C240 N244 1.427 . S
C241 H231 0.929 . S
C241 C239 1.433 . S
C241 N244 1.384 . S
C242 H233 0.929 . S
C242 C234 1.378 . S
C242 C237 1.350 . S
C243 H230 0.929 . S
C243 C235 1.433 . S
C243 N245 1.384 . S
N244 C240 1.427 . S
N244 C241 1.384 . S
N245 C237 1.427 . S
N245 C243 1.384 . S
H246 C252 0.930 . S
H247 C256 0.930 . S
H248 C261 0.929 . S
H249 C259 0.929 . S
H250 C254 0.929 . S
H251 C260 0.929 . S
C252 H246 0.930 . S
C252 C253 1.367 . S
C252 C260 1.378 . S
C253 C252 1.367 . S
C253 C261 1.433 . S
C254 H250 0.929 . S
C254 C256 1.378 . S
C254 C258 1.350 . S
C255 C258 1.463 . S
C255 C260 1.350 . S
C255 N263 1.427 . S
C256 H247 0.930 . S
C256 C254 1.378 . S
C256 C257 1.367 . S
C257 C256 1.367 . S
C257 C259 1.433 . S
C258 C254 1.350 . S
C258 C255 1.463 . S
C258 N262 1.427 . S
C259 H249 0.929 . S
C259 C257 1.433 . S
C259 N262 1.384 . S
C260 H251 0.929 . S
C260 C252 1.378 . S
C260 C255 1.350 . S
C261 H248 0.929 . S
C261 C253 1.433 . S
C261 N263 1.384 . S
N262 C258 1.427 . S
N262 C259 1.384 . S
N263 C255 1.427 . S
N263 C261 1.384 . S
H264 C270 0.930 . S
H265 C274 0.930 . S
H266 C279 0.929 . S
H267 C277 0.929 . S
H268 C272 0.929 . S
H269 C278 0.929 . S
C270 H264 0.930 . S
C270 C271 1.367 . S
C270 C278 1.378 . S
C271 C270 1.367 . S
C271 C279 1.433 . S
C272 H268 0.929 . S
C272 C274 1.378 . S
C272 C276 1.350 . S
C273 C276 1.463 . S
C273 C278 1.350 . S
C273 N281 1.427 . S
C274 H265 0.930 . S
C274 C272 1.378 . S
C274 C275 1.367 . S
C275 C274 1.367 . S
C275 C277 1.433 1_556 S
C276 C272 1.350 . S
C276 C273 1.463 . S
C276 N280 1.427 . S
C277 H267 0.929 . S
C277 C275 1.433 1_554 S
C277 N280 1.384 1_554 S
C278 H269 0.929 . S
C278 C270 1.378 . S
C278 C273 1.350 . S
C279 H266 0.929 . S
C279 C271 1.433 . S
C279 N281 1.384 . S
N280 C276 1.427 . S
N280 C277 1.384 1_556 S
N281 C273 1.427 . S
N281 C279 1.384 . S
H282 C288 0.930 . S
H283 C292 0.930 . S
H284 C297 0.929 . S
H285 C295 0.929 . S
H286 C290 0.929 . S
H287 C296 0.929 1_556 S
C288 H282 0.930 . S
C288 C289 1.367 . S
C288 C296 1.378 1_556 S
C289 C288 1.367 . S
C289 C297 1.433 1_556 S
C290 H286 0.929 . S
C290 C292 1.378 . S
C290 C294 1.350 . S
C291 C294 1.463 . S
C291 C296 1.350 . S
C291 N299 1.427 . S
C292 H283 0.930 . S
C292 C290 1.378 . S
C292 C293 1.367 . S
C293 C292 1.367 . S
C293 C295 1.433 . S
C294 C290 1.350 . S
C294 C291 1.463 . S
C294 N298 1.427 . S
C295 H285 0.929 . S
C295 C293 1.433 . S
C295 N298 1.384 . S
C296 H287 0.929 1_554 S
C296 C288 1.378 1_554 S
C296 C291 1.350 . S
C297 H284 0.929 . S
C297 C289 1.433 1_554 S
C297 N299 1.384 . S
N298 C294 1.427 . S
N298 C295 1.384 . S
N299 C291 1.427 . S
N299 C297 1.384 . S
C91 C8 1.438 1_556 S
C95 C48 1.475 . S
C109 C62 1.473 . S
C113 C22 1.429 . S
C127 C36 1.425 . S
C131 C76 1.468 . S
C145 C50 1.439 . S
C149 C6 1.479 . S
C163 C20 1.474 . S
C167 C64 1.437 . S
C181 C78 1.439 . S
C185 C34 1.479 . S
C199 C7 1.381 . S
C203 C37 1.386 . S
C217 C21 1.388 . S
C221 C51 1.378 . S
C235 C65 1.379 . S
C239 C35 1.384 . S
C253 C79 1.378 . S
C257 C49 1.384 . S
C271 C63 1.388 . S
C275 C9 1.379 1_556 S
C289 C77 1.382 . S
C293 C23 1.381 . S
