# Generated by pormake.
# Topology uob, (4)-cn, num edge types: 1
# Building blocks:
#     Node 0, Type 0, BuildingBlock: CEKHIL_clean_sbu_0, # of connection points: 4
#     Node 1, Type 0, BuildingBlock: CEKHIL_clean_sbu_0, # of connection points: 4
#     Node 2, Type 0, BuildingBlock: CEKHIL_clean_sbu_0, # of connection points: 4
#     Node 3, Type 0, BuildingBlock: CEKHIL_clean_sbu_0, # of connection points: 4
#     Node 4, Type 0, BuildingBlock: CEKHIL_clean_sbu_0, # of connection points: 4
#     Node 5, Type 0, BuildingBlock: CEKHIL_clean_sbu_0, # of connection points: 4
#     Node 6, Type 0, BuildingBlock: CEKHIL_clean_sbu_0, # of connection points: 4
#     Node 7, Type 0, BuildingBlock: CEKHIL_clean_sbu_0, # of connection points: 4
#     Node 8, Type 0, BuildingBlock: CEKHIL_clean_sbu_0, # of connection points: 4
#     Node 9, Type 0, BuildingBlock: CEKHIL_clean_sbu_0, # of connection points: 4
#     Node 10, Type 0, BuildingBlock: CEKHIL_clean_sbu_0, # of connection points: 4
#     Node 11, Type 0, BuildingBlock: CEKHIL_clean_sbu_0, # of connection points: 4
#     Node 12, Type 0, BuildingBlock: CEKHIL_clean_sbu_0, # of connection points: 4
#     Node 13, Type 0, BuildingBlock: CEKHIL_clean_sbu_0, # of connection points: 4
#     Node 14, Type 0, BuildingBlock: CEKHIL_clean_sbu_0, # of connection points: 4
#     Node 15, Type 0, BuildingBlock: CEKHIL_clean_sbu_0, # of connection points: 4
#     Edge 16, Type (0, 0), BuildingBlock: XUDNAN_clean_linker_2, # of connection points: 2
#     Edge 17, Type (0, 0), BuildingBlock: XUDNAN_clean_linker_2, # of connection points: 2
#     Edge 18, Type (0, 0), BuildingBlock: XUDNAN_clean_linker_2, # of connection points: 2
#     Edge 19, Type (0, 0), BuildingBlock: XUDNAN_clean_linker_2, # of connection points: 2
#     Edge 20, Type (0, 0), BuildingBlock: XUDNAN_clean_linker_2, # of connection points: 2
#     Edge 21, Type (0, 0), BuildingBlock: XUDNAN_clean_linker_2, # of connection points: 2
#     Edge 22, Type (0, 0), BuildingBlock: XUDNAN_clean_linker_2, # of connection points: 2
#     Edge 23, Type (0, 0), BuildingBlock: XUDNAN_clean_linker_2, # of connection points: 2
#     Edge 24, Type (0, 0), BuildingBlock: XUDNAN_clean_linker_2, # of connection points: 2
#     Edge 25, Type (0, 0), BuildingBlock: XUDNAN_clean_linker_2, # of connection points: 2
#     Edge 26, Type (0, 0), BuildingBlock: XUDNAN_clean_linker_2, # of connection points: 2
#     Edge 27, Type (0, 0), BuildingBlock: XUDNAN_clean_linker_2, # of connection points: 2
#     Edge 28, Type (0, 0), BuildingBlock: XUDNAN_clean_linker_2, # of connection points: 2
#     Edge 29, Type (0, 0), BuildingBlock: XUDNAN_clean_linker_2, # of connection points: 2
#     Edge 30, Type (0, 0), BuildingBlock: XUDNAN_clean_linker_2, # of connection points: 2
#     Edge 31, Type (0, 0), BuildingBlock: XUDNAN_clean_linker_2, # of connection points: 2
#     Edge 32, Type (0, 0), BuildingBlock: XUDNAN_clean_linker_2, # of connection points: 2
#     Edge 33, Type (0, 0), BuildingBlock: XUDNAN_clean_linker_2, # of connection points: 2
#     Edge 34, Type (0, 0), BuildingBlock: XUDNAN_clean_linker_2, # of connection points: 2
#     Edge 35, Type (0, 0), BuildingBlock: XUDNAN_clean_linker_2, # of connection points: 2
#     Edge 36, Type (0, 0), BuildingBlock: XUDNAN_clean_linker_2, # of connection points: 2
#     Edge 37, Type (0, 0), BuildingBlock: XUDNAN_clean_linker_2, # of connection points: 2
#     Edge 38, Type (0, 0), BuildingBlock: XUDNAN_clean_linker_2, # of connection points: 2
#     Edge 39, Type (0, 0), BuildingBlock: XUDNAN_clean_linker_2, # of connection points: 2
#     Edge 40, Type (0, 0), BuildingBlock: XUDNAN_clean_linker_2, # of connection points: 2
#     Edge 41, Type (0, 0), BuildingBlock: XUDNAN_clean_linker_2, # of connection points: 2
#     Edge 42, Type (0, 0), BuildingBlock: XUDNAN_clean_linker_2, # of connection points: 2
#     Edge 43, Type (0, 0), BuildingBlock: XUDNAN_clean_linker_2, # of connection points: 2
#     Edge 44, Type (0, 0), BuildingBlock: XUDNAN_clean_linker_2, # of connection points: 2
#     Edge 45, Type (0, 0), BuildingBlock: XUDNAN_clean_linker_2, # of connection points: 2
#     Edge 46, Type (0, 0), BuildingBlock: XUDNAN_clean_linker_2, # of connection points: 2
#     Edge 47, Type (0, 0), BuildingBlock: XUDNAN_clean_linker_2, # of connection points: 2
# Relax obj value: 0.172
# Max RMSD: 0.200
# Mean RMSD: 0.200
data_MOF--net-uob--node1-CEKHIL_clean_sbu_0--edge1-XUDNAN_clean_linker_2
_symmetry_space_group_name_H-M    P1
_symmetry_Int_Tables_number       1
_symmetry_cell_setting            triclinic
loop_
_symmetry_equiv_pos_as_xyz
'x, y, z'
_cell_length_a     52.916093
_cell_length_b     53.181804
_cell_length_c     26.438562
_cell_angle_alpha  90.130717
_cell_angle_beta   90.143437
_cell_angle_gamma 90.001938
loop_
_atom_site_label
_atom_site_type_symbol
_atom_site_fract_x
_atom_site_fract_y
_atom_site_fract_z
_atom_type_partial_charge
Co0 Co 0.13834 0.06784 0.28782 0.0
O1 O 0.17311 0.0792 0.29134 0.0
O2 O 0.15991 0.04141 0.31391 0.0
C3 C 0.12796 0.08259 0.21056 0.0
O4 O 0.10437 0.04921 0.28901 0.0
Co5 Co 0.09433 0.1066 0.28364 0.0
O6 O 0.07237 0.07651 0.27706 0.0
C7 C 0.12682 0.10317 0.37263 0.0
C8 C 0.17841 0.05746 0.31112 0.0
C9 C 0.08065 0.05417 0.28272 0.0
O10 O 0.1334 0.08102 0.35837 0.0
O11 O 0.1135 0.11781 0.34506 0.0
O12 O 0.14049 0.06159 0.21449 0.0
O13 O 0.12523 0.09498 0.25209 0.0
Co14 Co 0.93756 0.63972 0.53908 0.0
O15 O 0.93624 0.67611 0.53778 0.0
O16 O 0.96823 0.65397 0.56779 0.0
C17 C 0.92245 0.63149 0.46097 0.0
O18 O 0.94568 0.60193 0.54534 0.0
Co19 Co 0.88698 0.60979 0.53423 0.0
O20 O 0.90981 0.5803 0.52997 0.0
C21 C 0.89999 0.63707 0.62631 0.0
C22 C 0.95784 0.67594 0.56118 0.0
C23 C 0.93353 0.58105 0.53861 0.0
O24 O 0.92225 0.64057 0.60846 0.0
O25 O 0.88211 0.62679 0.6011 0.0
O26 O 0.94607 0.63784 0.46684 0.0
O27 O 0.90858 0.63394 0.50068 0.0
Co28 Co 0.38404 0.44609 0.78501 0.0
O29 O 0.34946 0.43463 0.78082 0.0
O30 O 0.36143 0.47024 0.81691 0.0
C31 C 0.39575 0.43644 0.70497 0.0
O32 O 0.41781 0.4646 0.79494 0.0
Co33 Co 0.42843 0.40797 0.77355 0.0
O34 O 0.45014 0.43837 0.77802 0.0
C35 C 0.39571 0.40613 0.86241 0.0
C36 C 0.34324 0.45462 0.80618 0.0
C37 C 0.44166 0.46011 0.78925 0.0
O38 O 0.38766 0.4283 0.85173 0.0
O39 O 0.41002 0.3935 0.83285 0.0
O40 O 0.38326 0.45711 0.71366 0.0
O41 O 0.3981 0.42165 0.74313 0.0
Co42 Co 0.57178 0.87703 0.02612 0.0
O43 O 0.58075 0.84176 0.03129 0.0
O44 O 0.54759 0.85927 0.06792 0.0
C45 C 0.5772 0.88163 0.9425 0.0
O46 O 0.55602 0.91234 0.02882 0.0
Co47 Co 0.6114 0.91707 -0.00625 0.0
O48 O 0.58229 0.94056 -0.00645 0.0
C49 C 0.61603 0.89223 0.09194 0.0
C50 C 0.56128 0.83927 0.06068 0.0
C51 C 0.56108 0.9348 0.01312 0.0
O52 O 0.59347 0.88374 0.08674 0.0
O53 O 0.62761 0.90476 0.05789 0.0
O54 O 0.55642 0.87183 0.95986 0.0
O55 O 0.59479 0.88569 0.97546 0.0
Co56 Co 0.14901 0.44852 0.0399 0.0
O57 O 0.18366 0.43784 0.03064 0.0
O58 O 0.16877 0.47492 0.00808 0.0
C59 C 0.14335 0.43306 0.11877 0.0
O60 O 0.11449 0.46615 0.04301 0.0
Co61 Co 0.10596 0.40904 0.05682 0.0
O62 O 0.08482 0.43912 0.07085 0.0
C63 C 0.13167 0.41297 0.95874 0.0
C64 C 0.18757 0.45913 0.00803 0.0
C65 C 0.09179 0.46111 0.0578 0.0
O66 O 0.14076 0.4345 0.97139 0.0
O67 O 0.11961 0.39874 0.9893 0.0
O68 O 0.15426 0.4549 0.11334 0.0
O69 O 0.13871 0.42129 0.07749 0.0
Co70 Co 0.5714 0.64011 0.27812 0.0
O71 O 0.58068 0.67538 0.27503 0.0
O72 O 0.54719 0.65868 0.23763 0.0
C73 C 0.57706 0.63413 0.36154 0.0
O74 O 0.55527 0.60506 0.27308 0.0
Co75 Co 0.61057 0.59912 0.30766 0.0
O76 O 0.58129 0.57584 0.30582 0.0
C77 C 0.61501 0.62515 0.21061 0.0
C78 C 0.56109 0.67843 0.24592 0.0
C79 C 0.56011 0.58224 0.28677 0.0
O80 O 0.59274 0.63416 0.21688 0.0
O81 O 0.62651 0.61185 0.2437 0.0
O82 O 0.55634 0.64438 0.34474 0.0
O83 O 0.59453 0.63042 0.3283 0.0
Co84 Co 0.38213 0.0705 0.51221 0.0
O85 O 0.34721 0.08155 0.51038 0.0
O86 O 0.36042 0.04362 0.48842 0.0
C87 C 0.39339 0.08618 0.58823 0.0
O88 O 0.41615 0.05201 0.50921 0.0
Co89 Co 0.42636 0.10912 0.51282 0.0
O90 O 0.44835 0.07913 0.52056 0.0
C91 C 0.39372 0.10399 0.42388 0.0
C92 C 0.34183 0.05954 0.49168 0.0
C93 C 0.43995 0.05683 0.51483 0.0
O94 O 0.3858 0.08287 0.44109 0.0
O95 O 0.40833 0.11862 0.44891 0.0
O96 O 0.38103 0.06502 0.58565 0.0
O97 O 0.39568 0.09814 0.54616 0.0
Co98 Co 0.94601 0.87385 0.76481 0.0
O99 O 0.94414 0.83753 0.76832 0.0
O100 O 0.97333 0.85856 0.72622 0.0
C101 C 0.93885 0.88237 0.84714 0.0
O102 O 0.95448 0.91132 0.75435 0.0
Co103 Co 0.89794 0.90555 0.78729 0.0
O104 O 0.92097 0.93459 0.77863 0.0
C105 C 0.90136 0.87871 0.69113 0.0
C106 C 0.96361 0.83697 0.73863 0.0
C107 C 0.94359 0.93272 0.76263 0.0
O108 O 0.92428 0.87288 0.70217 0.0
O109 O 0.88674 0.89067 0.72116 0.0
O110 O 0.96141 0.87606 0.83222 0.0
O111 O 0.92122 0.88046 0.81355 0.0
Co112 Co 0.64596 0.57579 0.78052 0.0
O113 O 0.68222 0.57946 0.77559 0.0
O114 O 0.66286 0.54778 0.81344 0.0
C115 C 0.63556 0.58654 0.70035 0.0
O116 O 0.60888 0.56549 0.79161 0.0
Co117 Co 0.61256 0.62371 0.7686 0.0
O118 O 0.58437 0.59958 0.77855 0.0
C119 C 0.64352 0.61771 0.85881 0.0
C120 C 0.68394 0.55902 0.80206 0.0
C121 C 0.58703 0.57631 0.78887 0.0
O122 O 0.64674 0.59448 0.84688 0.0
O123 O 0.63292 0.63353 0.82928 0.0
O124 O 0.64351 0.56384 0.70982 0.0
O125 O 0.63747 0.6021 0.7375 0.0
Co126 Co 0.45163 0.14448 0.00965 0.0
O127 O 0.44623 0.18031 0.01614 0.0
O128 O 0.47625 0.15917 0.05594 0.0
C129 C 0.44818 0.14129 0.92497 0.0
O130 O 0.46274 0.10738 0.01205 0.0
Co131 Co 0.40711 0.11144 0.9686 0.0
O132 O 0.43174 0.08368 0.9774 0.0
C133 C 0.4042 0.13287 0.07021 0.0
C134 C 0.46474 0.18048 0.04843 0.0
C135 C 0.45342 0.08596 -0.00188 0.0
O136 O 0.42765 0.13901 0.06723 0.0
O137 O 0.39162 0.12379 0.03305 0.0
O138 O 0.46943 0.14861 0.94512 0.0
O139 O 0.42949 0.13939 0.95579 0.0
Co140 Co 0.87521 0.94135 0.26593 0.0
O141 O 0.839 0.93799 0.27005 0.0
O142 O 0.86114 0.9673 0.30976 0.0
C143 C 0.8797 0.9365 0.1816 0.0
O144 O 0.91294 0.95041 0.26972 0.0
Co145 Co 0.90604 0.89454 0.23121 0.0
O146 O 0.93481 0.91845 0.23465 0.0
C147 C 0.88383 0.89514 0.33238 0.0
C148 C 0.83931 0.95668 0.30166 0.0
C149 C 0.93384 0.94028 0.25472 0.0
O150 O 0.87847 0.91848 0.32604 0.0
O151 O 0.89301 0.88131 0.29727 0.0
O152 O 0.87334 0.95827 0.20025 0.0
O153 O 0.87967 0.91815 0.21343 0.0
Co154 Co 0.06603 0.37831 0.53084 0.0
O155 O 0.08169 0.34571 0.53269 0.0
O156 O 0.04532 0.35437 0.56928 0.0
C157 C 0.07278 0.38601 0.44839 0.0
O158 O 0.04451 0.41057 0.53546 0.0
Co159 Co 0.10073 0.42441 0.50676 0.0
O160 O 0.06834 0.443 0.508 0.0
C161 C 0.10563 0.39826 0.60324 0.0
C162 C 0.06338 0.33816 0.56132 0.0
C163 C 0.04746 0.43407 0.52396 0.0
O164 O 0.08462 0.38705 0.59428 0.0
O165 O 0.11659 0.4128 0.57169 0.0
O166 O 0.05356 0.37235 0.46215 0.0
O167 O 0.08829 0.39206 0.48397 0.0
Co168 Co 0.64429 0.93989 0.52359 0.0
O169 O 0.68034 0.93493 0.52498 0.0
O170 O 0.66143 0.96837 0.49267 0.0
C171 C 0.63519 0.92761 0.60325 0.0
O172 O 0.60716 0.95099 0.51606 0.0
Co173 Co 0.61076 0.89187 0.5336 0.0
O174 O 0.58288 0.91671 0.52901 0.0
C175 C 0.6412 0.89927 0.44354 0.0
C176 C 0.68228 0.95588 0.50021 0.0
C177 C 0.58535 0.94015 0.52004 0.0
O178 O 0.64349 0.92257 0.45581 0.0
O179 O 0.63135 0.88294 0.47289 0.0
O180 O 0.6435 0.95032 0.59534 0.0
O181 O 0.63619 0.91285 0.5647 0.0
Co182 Co 0.06788 0.13942 0.78879 0.0
O183 O 0.0813 0.17299 0.79137 0.0
O184 O 0.0479 0.16224 0.74619 0.0
C185 C 0.07036 0.13131 0.87227 0.0
O186 O 0.0488 0.10596 0.7782 0.0
Co187 Co 0.10339 0.0951 0.82009 0.0
O188 O 0.07217 0.07487 0.81256 0.0
C189 C 0.11187 0.12123 0.72455 0.0
C190 C 0.06423 0.17954 0.75872 0.0
C191 C 0.05206 0.08267 0.79103 0.0
O192 O 0.09054 0.13239 0.72995 0.0
O193 O 0.12151 0.10656 0.75764 0.0
O194 O 0.05117 0.14382 0.85432 0.0
O195 O 0.08813 0.12665 0.84041 0.0
Co196 Co 0.87718 0.56539 0.03992 0.0
O197 O 0.84111 0.57064 0.03088 0.0
O198 O 0.86363 0.54196 0.99056 0.0
C199 C 0.87849 0.56799 0.12483 0.0
O200 O 0.91425 0.55382 0.03948 0.0
Co201 Co 0.91152 0.60747 0.08591 0.0
O202 O 0.93835 0.58141 0.08304 0.0
C203 C 0.89144 0.61294 0.98306 0.0
C204 C 0.84192 0.55301 -0.00319 0.0
C205 C 0.93551 0.56081 0.05906 0.0
O206 O 0.88392 0.58998 0.98428 0.0
O207 O 0.90122 0.62426 0.02113 0.0
O208 O 0.87144 0.54706 0.10334 0.0
O209 O 0.88171 0.58681 0.09501 0.0
Co210 Co 0.4499 0.37365 0.28266 0.0
O211 O 0.44542 0.33756 0.28103 0.0
O212 O 0.47534 0.35803 0.23982 0.0
C213 C 0.44565 0.37997 0.36643 0.0
O214 O 0.4603 0.41081 0.27588 0.0
Co215 Co 0.40414 0.40696 0.31484 0.0
O216 O 0.42874 0.43476 0.30717 0.0
C217 C 0.40357 0.38253 0.21593 0.0
C218 C 0.46417 0.33676 0.2495 0.0
C219 C 0.45068 0.43236 0.28792 0.0
O220 O 0.42669 0.37612 0.22291 0.0
O221 O 0.39021 0.39386 0.24914 0.0
O222 O 0.46712 0.37235 0.34794 0.0
O223 O 0.42696 0.38019 0.33492 0.0
H224 H 0.30646 0.09314 0.45692 0.0
H225 H 0.32099 0.0133 0.4728 0.0
H226 H 0.28097 1.00391 0.42788 0.0
H227 H 0.2379 0.0908 0.47068 0.0
H228 H 0.23254 0.11463 0.4235 0.0
H229 H 0.26133 0.11482 0.46 0.0
H230 H 0.28736 0.11416 0.37706 0.0
H231 H 0.25865 0.11365 0.34033 0.0
H232 H 0.28207 0.08943 0.33154 0.0
H233 H 0.23895 1.00335 0.38092 0.0
H234 H 0.19911 0.01168 0.33456 0.0
H235 H 0.21356 0.09182 0.34415 0.0
C236 C 0.30097 0.07367 0.45183 0.0
C237 C 0.31667 0.05392 0.46915 0.0
C238 C 0.30916 0.02872 0.46035 0.0
C239 C 0.28647 0.02322 0.43476 0.0
C240 C 0.27161 0.04312 0.41747 0.0
C241 C 0.2786 0.06786 0.42556 0.0
C242 C 0.25989 0.08577 0.40113 0.0
C243 C 0.24716 0.10249 0.44122 0.0
C244 C 0.27276 0.10169 0.36008 0.0
C245 C 0.24123 0.0673 0.37815 0.0
C246 C 0.24821 0.04278 0.38834 0.0
C247 C 0.23344 0.02249 0.37244 0.0
C248 C 0.21086 0.02738 0.34601 0.0
C249 C 0.20337 0.05235 0.335 0.0
C250 C 0.21899 0.07249 0.35101 0.0
H251 H 0.95002 0.8199 0.64568 0.0
H252 H 0.99318 0.79963 0.77855 0.0
H253 H 1.00115 0.75734 0.74172 0.0
H254 H 0.91805 0.76212 0.63729 0.0
H255 H 0.91661 0.76159 0.56916 0.0
H256 H 0.9181 0.79113 0.60222 0.0
H257 H 0.95772 0.80341 0.55059 0.0
H258 H 0.95648 0.77373 0.51761 0.0
H259 H 0.98488 0.78292 0.55062 0.0
H260 H 1.00178 0.71611 0.69202 0.0
H261 H 0.99174 0.67887 0.63949 0.0
H262 H 0.94467 0.72515 0.54275 0.0
C263 C 0.96155 0.80668 0.66643 0.0
C264 C 0.97146 0.81309 0.71439 0.0
C265 C 0.98595 0.79519 0.74122 0.0
C266 C 0.9905 0.77116 0.72056 0.0
C267 C 0.98003 0.7652 0.67339 0.0
C268 C 0.96564 0.78245 0.64692 0.0
C269 C 0.95404 0.77062 0.59998 0.0
C270 C 0.92499 0.77141 0.60234 0.0
C271 C 0.96388 0.78344 0.55185 0.0
C272 C 0.96386 0.7439 0.60432 0.0
C273 C 0.97925 0.74126 0.64634 0.0
C274 C 0.9899 0.71807 0.65889 0.0
C275 C 0.98419 0.697 0.6286 0.0
C276 C 0.96756 0.69904 0.58669 0.0
C277 C 0.95766 0.72297 0.57415 0.0
H278 H 0.32749 0.47772 0.89451 0.0
H279 H 0.30006 0.43752 0.76246 0.0
H280 H 0.2569 0.43803 0.79754 0.0
H281 H 0.29139 0.44448 0.98261 0.0
H282 H 0.28457 0.47064 0.02386 0.0
H283 H 0.3128 0.47084 0.98606 0.0
H284 H 0.30005 0.51319 0.94622 0.0
H285 H 0.27186 0.5136 0.98438 0.0
H286 H 0.2695 0.51635 0.9166 0.0
H287 H 0.21769 0.43985 0.84838 0.0
H288 H 0.18462 0.44163 0.91368 0.0
H289 H 0.23629 0.47919 0.01622 0.0
C290 C 0.31222 0.46969 0.87244 0.0
C291 C 0.31705 0.45794 0.82522 0.0
C292 C 0.29676 0.44683 0.79833 0.0
C293 C 0.27216 0.44706 0.81796 0.0
C294 C 0.26807 0.45831 0.86492 0.0
C295 C 0.28746 0.46942 0.892 0.0
C296 C 0.27808 0.47832 0.94349 0.0
C297 C 0.29256 0.46527 0.98655 0.0
C298 C 0.27999 0.50708 0.94792 0.0
C299 C 0.25061 0.46985 0.94154 0.0
C300 C 0.24528 0.45876 0.89533 0.0
C301 C 0.22157 0.44876 0.88442 0.0
C302 C 0.20286 0.4499 0.92168 0.0
C303 C 0.20776 0.46085 0.96948 0.0
C304 C 0.23195 0.47107 0.97963 0.0
H305 H 0.5953 0.8039 0.09331 0.0
H306 H 0.51523 0.821 0.08967 0.0
H307 H 0.50628 0.78157 0.13608 0.0
H308 H 0.59072 0.73619 0.0808 0.0
H309 H 0.616 0.73002 0.12486 0.0
H310 H 0.61589 0.75871 0.08875 0.0
H311 H 0.61865 0.78471 0.17161 0.0
H312 H 0.61876 0.7561 0.20797 0.0
H313 H 0.59535 0.77996 0.22029 0.0
H314 H 0.50612 0.73903 0.17991 0.0
H315 H 0.51499 0.69908 0.2247 0.0
H316 H 0.59539 0.71206 0.20801 0.0
C317 C 0.57587 0.79915 0.10178 0.0
C318 C 0.55587 0.81528 0.08719 0.0
C319 C 0.53077 0.80881 0.10016 0.0
C320 C 0.52553 0.78644 0.12646 0.0
C321 C 0.54567 0.77098 0.14052 0.0
C322 C 0.57037 0.77722 0.12918 0.0
C323 C 0.58867 0.7581 0.15108 0.0
C324 C 0.6037 0.74498 0.10886 0.0
C325 C 0.6064 0.77046 0.19005 0.0
C326 C 0.57042 0.74003 0.17623 0.0
C327 C 0.54567 0.74758 0.169 0.0
C328 C 0.52543 0.73316 0.18636 0.0
C329 C 0.53062 0.7105 0.21172 0.0
C330 C 0.55583 0.70275 0.2206 0.0
C331 C 0.57593 0.71784 0.20278 0.0
H332 H 0.69839 0.56293 0.90057 0.0
H333 H 0.72515 0.54036 0.75271 0.0
H334 H 0.76786 0.53273 0.78857 0.0
H335 H 0.75243 0.59785 0.93321 0.0
H336 H 0.75176 0.5898 -0.00061 0.0
H337 H 0.72293 0.58996 0.96315 0.0
H338 H 0.71456 0.54304 0.98857 0.0
H339 H 0.74315 0.54398 0.02579 0.0
H340 H 0.73898 0.52011 0.97799 0.0
H341 H 0.8081 0.52915 0.84045 0.0
H342 H 0.84333 0.53341 0.9014 0.0
H343 H 0.79128 0.56208 0.0141 0.0
C344 C 0.71313 0.55565 0.87622 0.0
C345 C 0.70844 0.55142 0.82424 0.0
C346 C 0.72833 0.54307 0.79284 0.0
C347 C 0.7526 0.53874 0.81293 0.0
C348 C 0.75676 0.54333 0.86434 0.0
C349 C 0.73759 0.55179 0.8955 0.0
C350 C 0.74754 0.55759 0.9482 0.0
C351 C 0.74342 0.58545 0.96177 0.0
C352 C 0.73533 0.54016 0.98748 0.0
C353 C 0.77539 0.55157 0.94167 0.0
C354 C 0.7802 0.54281 0.89335 0.0
C355 C 0.80449 0.53592 0.87839 0.0
C356 C 0.8244 0.53828 0.9134 0.0
C357 C 0.8201 0.54796 0.96262 0.0
C358 C 0.79517 0.55456 0.97682 0.0
H359 H 0.43092 0.30222 0.21259 0.0
H360 H 0.5109 0.31903 0.22128 0.0
H361 H 0.52031 0.28008 0.17273 0.0
H362 H 0.43444 0.23464 0.22002 0.0
H363 H 0.4098 0.22954 0.17392 0.0
H364 H 0.40968 0.2576 0.21221 0.0
H365 H 0.40867 0.28516 0.13157 0.0
H366 H 0.40862 0.25725 0.09288 0.0
H367 H 0.4326 0.28089 0.08394 0.0
H368 H 0.5205 0.23748 0.12584 0.0
H369 H 0.51135 0.19878 0.07618 0.0
H370 H 0.43112 0.21334 0.08981 0.0
C371 C 0.45044 0.2975 0.20482 0.0
C372 C 0.47027 0.31331 0.22155 0.0
C373 C 0.4955 0.30699 0.20926 0.0
C374 C 0.50097 0.2849 0.18179 0.0
C375 C 0.48094 0.26969 0.16574 0.0
C376 C 0.45614 0.27603 0.17614 0.0
C377 C 0.43789 0.25766 0.15165 0.0
C378 C 0.42202 0.24406 0.19185 0.0
C379 C 0.42095 0.27104 0.1127 0.0
C380 C 0.45621 0.2398 0.12616 0.0
C381 C 0.48099 0.24671 0.13543 0.0
C382 C 0.50116 0.23217 0.11781 0.0
C383 C 0.49583 0.21021 0.08975 0.0
C384 C 0.4706 0.20338 0.07844 0.0
C385 C 0.45063 0.21844 0.09697 0.0
H386 H 0.80384 0.92406 0.3356 0.0
H387 H 0.82381 1.00304 0.3372 0.0
H388 H 0.78545 0.0123 0.38824 0.0
H389 H 0.73639 0.93042 0.32916 0.0
H390 H 0.73056 0.90454 0.3714 0.0
H391 H 0.75863 0.90481 0.33305 0.0
H392 H 0.78649 0.90005 0.41363 0.0
H393 H 0.7584 0.89956 0.45193 0.0
H394 H 0.7829 0.92224 0.46473 0.0
H395 H 0.74245 0.01242 0.43581 0.0
H396 H 0.7028 1.00286 0.4825 0.0
H397 H 0.71502 0.92333 0.45674 0.0
C398 C 0.8 0.94337 0.3462 0.0
C399 C 0.81647 0.96295 0.33163 0.0
C400 C 0.81125 0.98784 0.34758 0.0
C401 C 0.78951 0.99322 0.37649 0.0
C402 C 0.77357 0.97339 0.39018 0.0
C403 C 0.77891 0.9489 0.37611 0.0
C404 C 0.75986 0.93065 0.39776 0.0
C405 C 0.74552 0.9168 0.35531 0.0
C406 C 0.77268 0.91203 0.43416 0.0
C407 C 0.74269 0.94861 0.42586 0.0
C408 C 0.75053 0.97326 0.42054 0.0
C409 C 0.73648 0.99313 0.44087 0.0
C410 C 0.71401 0.98758 0.4673 0.0
C411 C 0.70623 0.96236 0.47427 0.0
C412 C 0.7209 0.94277 0.4533 0.0
H413 H 0.02649 0.30434 0.59742 0.0
H414 H 0.10736 0.31801 0.59132 0.0
H415 H 0.11503 0.28043 0.64238 0.0
H416 H 0.02407 0.27846 0.72434 0.0
H417 H 1.00173 0.25392 0.70951 0.0
H418 H 1.00158 0.28274 0.67375 0.0
H419 H 1.00681 0.25745 0.59071 0.0
H420 H 1.00686 0.22856 0.6262 0.0
H421 H 0.03279 0.23574 0.58456 0.0
H422 H 0.11492 0.24354 0.6967 0.0
H423 H 0.10757 0.20474 0.74408 0.0
H424 H 0.02725 0.20947 0.7109 0.0
C425 C 0.04574 0.29931 0.60694 0.0
C426 C 0.06633 0.31436 0.59047 0.0
C427 C 0.09126 0.30693 0.60319 0.0
C428 C 0.09587 0.2856 0.6325 0.0
C429 C 0.07542 0.27123 0.64818 0.0
C430 C 0.05085 0.27728 0.63525 0.0
C431 C 0.03277 0.25726 0.65536 0.0
C432 C 0.01392 0.26879 0.69298 0.0
C433 C 0.01899 0.24396 0.61159 0.0
C434 C 0.05111 0.23943 0.68197 0.0
C435 C 0.07552 0.24834 0.67765 0.0
C436 C 0.09592 0.2362 0.70003 0.0
C437 C 0.09147 0.21416 0.72722 0.0
C438 C 0.06685 0.20392 0.73143 0.0
C439 C 0.0463 0.21674 0.70822 0.0
H440 H 0.02863 0.05742 0.28264 0.0
H441 H 0.09019 1.00338 0.27975 0.0
H442 H 0.05917 0.96877 0.27485 0.0
H443 H 0.98603 0.01994 0.35964 0.0
H444 H 0.95815 0.02995 0.32594 0.0
H445 H 0.98512 0.05053 0.33045 0.0
H446 H 0.98645 0.05396 0.23278 0.0
H447 H 0.95953 0.03338 0.22794 0.0
H448 H 0.98835 0.02571 0.19516 0.0
H449 H 0.02184 0.94026 0.26638 0.0
H450 H 0.98072 0.91925 0.25746 0.0
H451 H 0.94265 0.99144 0.26792 0.0
C452 C 0.03567 0.03831 0.28119 0.0
C453 C 0.062 0.0332 0.28152 0.0
C454 C 0.07023 0.00787 0.27968 0.0
C455 C 0.05272 0.98806 0.27685 0.0
C456 C 0.02701 0.99382 0.27627 0.0
C457 C 0.01846 0.0183 0.2787 0.0
C458 C 0.98976 0.01932 0.27705 0.0
C459 C 0.97914 0.0306 0.3262 0.0
C460 C 0.98048 0.03396 0.23046 0.0
C461 C 0.98348 0.99156 0.27266 0.0
C462 C 1.00532 0.97726 0.27226 0.0
C463 C 1.00463 0.95126 0.26696 0.0
C464 C 0.98108 0.93951 0.26171 0.0
C465 C 0.95831 0.95364 0.26198 0.0
C466 C 0.95962 0.98006 0.268 0.0
H467 H 0.98506 0.57136 0.53278 0.0
H468 H 0.91228 0.53459 0.54951 0.0
H469 H 0.93321 0.49333 0.55001 0.0
H470 H 0.01133 0.5259 0.44839 0.0
H471 H 0.04273 0.52745 0.47481 0.0
H472 H 0.02222 0.55441 0.47837 0.0
H473 H 0.02776 0.55561 0.57576 0.0
H474 H 0.04834 0.52867 0.57247 0.0
H475 H 0.02077 0.52791 0.61233 0.0
H476 H 0.96202 0.45539 0.54725 0.0
H477 H 0.9967 0.42428 0.53933 0.0
H478 H 0.0503 0.48554 0.52273 0.0
C479 C 0.97356 0.55466 0.53709 0.0
C480 C 0.94697 0.55642 0.54119 0.0
C481 C 0.93266 0.53394 0.54615 0.0
C482 C 0.94437 0.51029 0.54662 0.0
C483 C 0.97052 0.50918 0.54198 0.0
C484 C 0.98496 0.53075 0.53727 0.0
C485 C 0.01267 0.5242 0.53125 0.0
C486 C 0.02283 0.53354 0.48016 0.0
C487 C 0.0283 0.53472 0.5756 0.0
C488 C 0.01143 0.49569 0.53289 0.0
C489 C 0.987 0.48734 0.5395 0.0
C490 C 0.98128 0.46171 0.5421 0.0
C491 C 1.00108 0.44415 0.53762 0.0
C492 C 0.02627 0.45229 0.53016 0.0
C493 C 0.0313 0.4785 0.52803 0.0
H494 H 0.49315 0.45821 0.77433 0.0
H495 H 0.43277 0.50914 0.81801 0.0
H496 H 0.46394 0.54346 0.82699 0.0
H497 H 0.54124 0.48337 0.85865 0.0
H498 H 0.56639 0.47939 0.81347 0.0
H499 H 0.53954 0.45854 0.81222 0.0
H500 H 0.53148 0.46969 0.71824 0.0
H501 H 0.55832 0.49049 0.71913 0.0
H502 H 0.52773 0.50217 0.70036 0.0
H503 H 0.50124 0.57253 0.82817 0.0
H504 H 0.54176 0.59479 0.82023 0.0
H505 H 0.57851 0.5251 0.77638 0.0
C506 C 0.48639 0.47652 0.78617 0.0
C507 C 0.46035 0.48086 0.79562 0.0
C508 C 0.4525 0.50523 0.8106 0.0
C509 C 0.47011 0.52485 0.81591 0.0
C510 C 0.49554 0.51986 0.8062 0.0
C511 C 0.50369 0.49631 0.79162 0.0
C512 C 0.53199 0.49612 0.78199 0.0
C513 C 0.54559 0.4783 0.81879 0.0
C514 C 0.5377 0.48921 0.72664 0.0
C515 C 0.53852 0.52337 0.79303 0.0
C516 C 0.51717 0.53665 0.80707 0.0
C517 C 0.51807 0.56228 0.81747 0.0
C518 C 0.54125 0.57476 0.81272 0.0
C519 C 0.56344 0.56173 0.79776 0.0
C520 C 0.56203 0.53555 0.78852 0.0
H521 H 0.56609 0.98523 0.99077 0.0
H522 H 0.51206 0.93038 0.04634 0.0
H523 H 0.47981 0.96378 0.05268 0.0
H524 H 0.54539 0.03736 0.07002 0.0
H525 H 0.55014 0.06057 0.02138 0.0
H526 H 0.56934 0.03259 0.02258 0.0
H527 H 0.55599 0.02232 0.93053 0.0
H528 H 0.53681 0.05028 0.92897 0.0
H529 H 0.52287 0.02013 0.91495 0.0
H530 H 0.45281 1.00226 0.04841 0.0
H531 H 0.4327 0.04352 0.03521 0.0
H532 H 0.50425 0.07445 0.98534 0.0
C533 C 0.54753 0.98018 0.00455 0.0
C534 C 0.5417 0.955 0.01806 0.0
C535 C 0.5171 0.9494 0.03582 0.0
C536 C 0.49864 0.96828 0.03961 0.0
C537 C 0.50503 0.99278 0.02584 0.0
C538 C 0.52889 0.99883 0.00885 0.0
C539 C 0.53066 0.02657 -0.00453 0.0
C540 C 0.55003 0.04007 0.0294 0.0
C541 C 0.53695 0.03002 0.93913 0.0
C542 C 0.50393 0.03516 0.00709 0.0
C543 C 0.48953 0.01527 0.0245 0.0
C544 C 0.46396 0.018 0.03532 0.0
C545 C 0.45271 0.04151 0.0276 0.0
C546 C 0.46695 0.06222 0.00965 0.0
C547 C 0.49303 0.05908 -3e-05 0.0
H548 H 0.05103 0.46848 0.12027 0.0
H549 H 0.08699 0.49694 0.98476 0.0
H550 H 0.05017 0.52456 0.96921 0.0
H551 H 0.98851 0.46698 0.0767 0.0
H552 H 0.97426 0.4782 0.13436 0.0
H553 H 1.00385 0.46151 0.13667 0.0
H554 H 0.02482 0.49876 0.18403 0.0
H555 H 0.99515 0.51538 0.18284 0.0
H556 H 0.02312 0.52987 0.15731 0.0
H557 H 1.00774 0.54605 0.96417 0.0
H558 H 0.96556 0.56519 0.97729 0.0
H559 H 0.9581 0.5251 0.11888 0.0
C560 C 0.0513 0.48087 0.08783 0.0
C561 C 0.07186 0.48061 0.05367 0.0
C562 C 0.07159 0.49707 0.01168 0.0
C563 C 0.05065 0.51265 0.00232 0.0
C564 C 0.03037 0.51194 0.03592 0.0
C565 C 0.03082 0.49701 0.07862 0.0
C566 C 1.00683 0.50028 0.10936 0.0
C567 C 0.99253 0.47525 0.11455 0.0
C568 C 0.01284 0.51176 0.16147 0.0
C569 C 0.99241 0.51869 0.07636 0.0
C570 C 1.00631 0.52505 0.03402 0.0
C571 C 0.9968 0.54135 -0.00263 0.0
C572 C 0.97279 0.55194 0.00483 0.0
C573 C 0.9586 0.54625 0.04857 0.0
C574 C 0.96849 0.52937 0.08471 0.0
H575 H 0.50166 0.44284 0.30103 0.0
H576 H 0.43055 0.47566 0.25292 0.0
H577 H 0.45121 0.51688 0.24323 0.0
H578 H 0.52093 0.49468 0.37581 0.0
H579 H 0.55402 0.49255 0.36042 0.0
H580 H 0.53454 0.46481 0.35853 0.0
H581 H 0.54756 0.45681 0.26549 0.0
H582 H 0.56725 0.48445 0.26722 0.0
H583 H 0.54317 0.48131 0.21928 0.0
H584 H 0.47859 0.55514 0.24336 0.0
H585 H 0.51115 0.58799 0.25365 0.0
H586 H 0.56457 0.53126 0.30421 0.0
C587 C 0.49067 0.45861 0.28735 0.0
C588 C 0.46454 0.45601 0.27733 0.0
C589 C 0.45059 0.47723 0.26075 0.0
C590 C 0.46216 0.50073 0.25503 0.0
C591 C 0.48776 0.5029 0.26633 0.0
C592 C 0.50192 0.48247 0.28208 0.0
C593 C 0.52874 0.49048 0.29479 0.0
C594 C 0.53491 0.48532 0.35071 0.0
C595 C 0.54781 0.47749 0.25959 0.0
C596 C 0.52725 0.51853 0.28427 0.0
C597 C 0.50349 0.52523 0.26747 0.0
C598 C 0.49735 0.55011 0.25622 0.0
C599 C 0.51599 0.56869 0.26226 0.0
C600 C 0.54051 0.56238 0.27976 0.0
C601 C 0.54607 0.53685 0.29073 0.0
H602 H 0.49166 0.05919 0.52907 0.0
H603 H 0.43065 1.0068 0.49673 0.0
H604 H 0.46156 0.97219 0.49199 0.0
H605 H 0.53792 0.03102 0.44638 0.0
H606 H 0.56409 0.03636 0.48885 0.0
H607 H 0.53732 0.0573 0.48957 0.0
H608 H 0.53135 0.04923 0.58536 0.0
H609 H 0.55817 0.02837 0.58501 0.0
H610 H 0.52804 0.0174 0.60775 0.0
H611 H 0.49851 0.94334 0.49099 0.0
H612 H 0.5391 0.92125 0.49641 0.0
H613 H 0.57719 0.99181 0.52945 0.0
C614 C 0.48472 0.04045 0.52096 0.0
C615 C 0.45856 0.03582 0.5132 0.0
C616 C 0.45046 0.01094 0.50287 0.0
C617 C 0.46792 0.99113 0.49997 0.0
C618 C 0.49347 0.99641 0.5075 0.0
C619 C 0.50191 0.02041 0.51798 0.0
C620 C 0.53044 0.0208 0.52524 0.0
C621 C 0.54319 0.03735 0.48511 0.0
C622 C 0.5374 0.02946 0.57904 0.0
C623 C 0.53672 0.99321 0.51728 0.0
C624 C 0.51502 0.9796 0.507 0.0
C625 C 0.51561 0.95379 0.49904 0.0
C626 C 0.53888 0.94141 0.50233 0.0
C627 C 0.56151 0.95471 0.51354 0.0
C628 C 0.56036 0.9811 0.52048 0.0
H629 H 0.05483 0.03169 0.80669 0.0
H630 H 1.00458 0.08957 0.74907 0.0
H631 H 0.97248 0.05692 0.7303 0.0
H632 H 0.03859 0.98353 0.71552 0.0
H633 H 0.04071 0.95839 0.76095 0.0
H634 H 0.05982 0.98618 0.76872 0.0
H635 H 0.04155 0.99289 0.85856 0.0
H636 H 0.02253 0.96505 0.85124 0.0
H637 H 1.00778 0.9946 0.86686 0.0
H638 H 0.94513 0.01796 0.72198 0.0
H639 H 0.92459 0.97629 0.72506 0.0
H640 H 0.99338 0.94363 0.78534 0.0
C641 C 0.03713 0.03768 0.78999 0.0
C642 C 0.03231 0.06341 0.77946 0.0
C643 C 1.00881 0.07011 0.75756 0.0
C644 C 0.99048 0.05165 0.74666 0.0
C645 C 0.99597 0.02652 0.75753 0.0
C646 C 0.01876 0.01955 0.77866 0.0
C647 C 0.01989 0.99138 0.78779 0.0
C648 C 0.04101 0.97916 0.75636 0.0
C649 C 0.02312 0.98565 0.84447 0.0
C650 C 0.99402 0.98347 0.76889 0.0
C651 C 0.98052 1.00405 0.75161 0.0
C652 C 0.95565 1.00174 0.73489 0.0
C653 C 0.94415 0.97797 0.73676 0.0
C654 C 0.9575 0.95665 0.75475 0.0
C655 C 0.98293 0.95943 0.77021 0.0
H656 H 0.13355 0.08543 0.66535 0.0
H657 H 0.11744 0.16513 0.67466 0.0
H658 H 0.13033 0.17037 0.5859 0.0
H659 H 0.18636 0.08983 0.56291 0.0
H660 H 0.17469 0.06155 0.53334 0.0
H661 H 0.17292 0.0652 0.60109 0.0
H662 H 0.12476 0.0566 0.59716 0.0
H663 H 0.12627 0.05328 0.52975 0.0
H664 H 0.10507 0.07598 0.5574 0.0
H665 H 0.13368 0.16567 0.49488 0.0
H666 H 0.12774 0.15149 0.40712 0.0
H667 H 0.14083 0.07436 0.45362 0.0
C668 C 0.13411 0.10411 0.64916 0.0
C669 C 0.12494 0.12495 0.67644 0.0
C670 C 0.1247 0.14904 0.65407 0.0
C671 C 0.13215 0.1522 0.60387 0.0
C672 C 0.13973 0.13105 0.5767 0.0
C673 C 0.14107 0.10744 0.5986 0.0
C674 C 0.14502 0.0872 0.55895 0.0
C675 C 0.17132 0.07525 0.56441 0.0
C676 C 0.12402 0.06712 0.56095 0.0
C677 C 0.14334 0.10286 0.51134 0.0
C678 C 0.14121 0.12818 0.52254 0.0
C679 C 0.13608 0.14601 0.48545 0.0
C680 C 0.13244 0.13773 0.43578 0.0
C681 C 0.13376 0.11182 0.42374 0.0
C682 C 0.14012 0.09432 0.46172 0.0
H683 H 0.86682 0.61497 0.69092 0.0
H684 H 0.92463 0.67261 0.68237 0.0
H685 H 0.92237 0.67848 0.77484 0.0
H686 H 0.83116 0.64162 0.80394 0.0
H687 H 0.82608 0.61045 0.82859 0.0
H688 H 0.82736 0.61542 0.7612 0.0
H689 H 0.86281 0.58194 0.75427 0.0
H690 H 0.86172 0.57707 0.82135 0.0
H691 H 0.89113 0.58558 0.79166 0.0
H692 H 0.91947 0.67291 0.86781 0.0
H693 H 0.91744 0.6551 0.95384 0.0
H694 H 0.86252 0.60015 0.90169 0.0
C695 C 0.87822 0.62954 0.70833 0.0
C696 C 0.8957 0.6435 0.67972 0.0
C697 C 0.91102 0.6618 0.70381 0.0
C698 C 0.90973 0.66539 0.75621 0.0
C699 C 0.89301 0.65057 0.78377 0.0
C700 C 0.87742 0.63307 0.76062 0.0
C701 C 0.86416 0.61676 0.7991 0.0
C702 C 0.83549 0.62135 0.79815 0.0
C703 C 0.87036 0.5887 0.79111 0.0
C704 C 0.87588 0.62682 0.84721 0.0
C705 C 0.89187 0.64681 0.83781 0.0
C706 C 0.90659 0.65763 0.87587 0.0
C707 C 0.90536 0.64736 0.92457 0.0
C708 C 0.8899 0.6262 0.93429 0.0
C709 C 0.87448 0.61637 0.89538 0.0
H710 H 0.37819 0.41549 0.1562 0.0
H711 H 0.40749 0.33953 0.16176 0.0
H712 H 0.39918 0.33446 0.07055 0.0
H713 H 0.33088 0.40522 0.04596 0.0
H714 H 0.33869 0.43555 0.02015 0.0
H715 H 0.3389 0.4309 0.08769 0.0
H716 H 0.38501 0.44701 0.09172 0.0
H717 H 0.385 0.45165 0.02456 0.0
H718 H 0.40879 0.43201 0.05331 0.0
H719 H 0.39755 0.34068 0.97899 0.0
H720 H 0.40256 0.35752 0.89306 0.0
H721 H 0.37552 0.43026 0.94465 0.0
C722 C 0.38148 0.39741 0.13846 0.0
C723 C 0.39294 0.37771 0.16562 0.0
C724 C 0.39832 0.35464 0.1413 0.0
C725 C 0.39356 0.35159 0.08963 0.0
C726 C 0.38352 0.37184 0.06296 0.0
C727 C 0.37728 0.39428 0.08654 0.0
C728 C 0.37126 0.41452 0.04811 0.0
C729 C 0.34325 0.42197 0.05067 0.0
C730 C 0.38856 0.43763 0.05484 0.0
C731 C 0.37697 0.40053 -0.00043 0.0
C732 C 0.38322 0.37573 0.00894 0.0
C733 C 0.39205 0.35986 0.97094 0.0
C734 C 0.39505 0.36968 0.9223 0.0
C735 C 0.38949 0.39524 0.91217 0.0
C736 C 0.37962 0.41057 0.95107 0.0
H737 H 0.65573 0.92933 0.36485 0.0
H738 H 0.64038 0.85162 0.40435 0.0
H739 H 0.64245 0.83985 0.31464 0.0
H740 H 0.61686 0.93308 0.26895 0.0
H741 H 0.63566 0.95223 0.2273 0.0
H742 H 0.64088 0.95367 0.29426 0.0
H743 H 0.68803 0.94226 0.28186 0.0
H744 H 0.68311 0.9411 0.21434 0.0
H745 H 0.69642 0.9144 0.24679 0.0
H746 H 0.63398 0.83843 0.22427 0.0
H747 H 0.61853 0.84714 0.13808 0.0
H748 H 0.64087 0.92513 0.15365 0.0
C749 C 0.6538 0.90968 0.35478 0.0
C750 C 0.64765 0.89146 0.39154 0.0
C751 C 0.64496 0.86597 0.37687 0.0
C752 C 0.64631 0.85904 0.32594 0.0
C753 C 0.65083 0.87771 0.29026 0.0
C754 C 0.65507 0.90247 0.30399 0.0
C755 C 0.65566 0.91946 0.25809 0.0
C756 C 0.63609 0.94084 0.26244 0.0
C757 C 0.6824 0.92992 0.24977 0.0
C758 C 0.64859 0.90079 0.2171 0.0
C759 C 0.64661 0.87667 0.23637 0.0
C760 C 0.63641 0.85696 0.20817 0.0
C761 C 0.62748 0.8621 0.15952 0.0
C762 C 0.62898 0.88668 0.13958 0.0
C763 C 0.64038 0.90606 0.1679 0.0
H764 H 0.12902 0.43268 0.66407 0.0
H765 H 0.10652 0.35447 0.65452 0.0
H766 H 0.11945 0.34801 0.74295 0.0
H767 H 0.18235 0.42394 0.762 0.0
H768 H 0.17364 0.45277 0.79334 0.0
H769 H 0.16979 0.44978 0.72578 0.0
H770 H 0.12247 0.46173 0.73462 0.0
H771 H 0.12616 0.46453 0.80189 0.0
H772 H 0.10258 0.44361 0.77616 0.0
H773 H 0.12636 0.35159 0.83376 0.0
H774 H 0.12626 0.36516 0.92275 0.0
H775 H 0.14226 0.44172 0.87587 0.0
C776 C 0.12793 0.41401 0.68022 0.0
C777 C 0.11716 0.39396 0.65281 0.0
C778 C 0.11495 0.36995 0.67518 0.0
C779 C 0.12243 0.36607 0.72517 0.0
C780 C 0.132 0.38644 0.75217 0.0
C781 C 0.13493 0.40997 0.73057 0.0
C782 C 0.14148 0.42955 0.77013 0.0
C783 C 0.16842 0.4396 0.76233 0.0
C784 C 0.122 0.4511 0.77072 0.0
C785 C 0.13992 0.41369 0.81741 0.0
C786 C 0.1353 0.38875 0.80601 0.0
C787 C 0.1306 0.37094 0.8433 0.0
C788 C 0.13033 0.37888 0.89367 0.0
C789 C 0.1344 0.40447 0.90611 0.0
C790 C 0.1397 0.42194 0.86751 0.0
H791 H 0.6403 0.59252 0.14933 0.0
H792 H 0.61646 0.67013 0.16341 0.0
H793 H 0.63199 0.67884 0.0774 0.0
H794 H 0.6961 0.60364 0.0584 0.0
H795 H 0.68813 0.57548 0.02388 0.0
H796 H 0.68267 0.57708 0.09107 0.0
H797 H 0.63567 0.56526 0.07581 0.0
H798 H 0.64121 0.56381 0.00898 0.0
H799 H 0.61688 0.58417 0.03348 0.0
H800 H 0.6417 0.67744 0.98716 0.0
H801 H 0.64147 0.66548 0.89736 0.0
H802 H 0.65762 0.58814 0.93879 0.0
C803 C 0.63945 0.61153 0.13481 0.0
C804 C 0.62764 0.63078 0.16272 0.0
C805 C 0.6257 0.65525 0.14235 0.0
C806 C 0.63469 0.66041 0.09381 0.0
C807 C 0.64542 0.64082 0.06615 0.0
C808 C 0.64785 0.61682 0.08583 0.0
C809 C 0.6555 0.59818 0.04528 0.0
C810 C 0.6822 0.58801 0.0553 0.0
C811 C 0.63615 0.57661 0.04062 0.0
C812 C 0.65512 0.61507 -0.00074 0.0
C813 C 0.65025 0.63976 0.01248 0.0
C814 C 0.64608 0.6583 0.97631 0.0
C815 C 0.64585 0.65127 0.92531 0.0
C816 C 0.64935 0.62582 0.91103 0.0
C817 C 0.65516 0.60778 0.94845 0.0
H818 H 0.41659 0.13848 0.36315 0.0
H819 H 0.35413 0.08564 0.36818 0.0
H820 H 0.34409 0.09514 0.27913 0.0
H821 H 0.38726 0.18397 0.26881 0.0
H822 H 0.41745 0.18875 0.23894 0.0
H823 H 0.41586 0.18269 0.30593 0.0
H824 H 0.44658 0.14506 0.29496 0.0
H825 H 0.44823 0.15112 0.22836 0.0
H826 H 0.43879 0.12049 0.25046 0.0
H827 H 0.34556 0.10432 0.18744 0.0
H828 H 0.36013 0.11017 0.09984 0.0
H829 H 0.42175 0.15694 0.15427 0.0
C830 C 0.40031 0.1295 0.34598 0.0
C831 C 0.38616 0.11134 0.37238 0.0
C832 C 0.36533 0.09954 0.34841 0.0
C833 C 0.35928 0.10504 0.29807 0.0
C834 C 0.37413 0.1225 0.27251 0.0
C835 C 0.39418 0.13465 0.29575 0.0
C836 C 0.40956 0.14957 0.25822 0.0
C837 C 0.40738 0.17793 0.26862 0.0
C838 C 0.43741 0.14102 0.25799 0.0
C839 C 0.39612 0.14248 0.20979 0.0
C840 C 0.37523 0.12757 0.21893 0.0
C841 C 0.36152 0.11645 0.17977 0.0
C842 C 0.36997 0.11985 0.13011 0.0
C843 C 0.39217 0.13388 0.12036 0.0
C844 C 0.40467 0.14617 0.16059 0.0
H845 H 0.87383 0.90865 0.62824 0.0
H846 H 0.90975 0.83574 0.63835 0.0
H847 H 0.90247 0.82882 0.54696 0.0
H848 H 0.82664 0.89163 0.52361 0.0
H849 H 0.83041 0.92216 0.49517 0.0
H850 H 0.83299 0.91869 0.56282 0.0
H851 H 0.87724 0.93965 0.56008 0.0
H852 H 0.87484 0.94283 0.49266 0.0
H853 H 0.90135 0.92639 0.51994 0.0
H854 H 0.89821 0.83306 0.45375 0.0
H855 H 0.8976 0.84812 0.36561 0.0
H856 H 0.86423 0.91846 0.41592 0.0
C857 C 0.87913 0.89081 0.61148 0.0
C858 C 0.89238 0.87266 0.63984 0.0
C859 C 0.89986 0.84988 0.61669 0.0
C860 C 0.89552 0.84571 0.56509 0.0
C861 C 0.88343 0.86447 0.5374 0.0
C862 C 0.87506 0.88648 0.55986 0.0
C863 C 0.86582 0.90506 0.52064 0.0
C864 C 0.83726 0.90964 0.52589 0.0
C865 C 0.88071 0.92993 0.52351 0.0
C866 C 0.87169 0.89065 0.47267 0.0
C867 C 0.88124 0.86705 0.4831 0.0
C868 C 0.89022 0.85127 0.445 0.0
C869 C 0.88988 0.86004 0.39502 0.0
C870 C 0.88091 0.8845 0.38373 0.0
C871 C 0.87107 0.89961 0.4231 0.0
H872 H 0.10417 0.09827 0.91366 0.0
H873 H 0.04206 0.14806 0.95184 0.0
H874 H 0.04882 0.13894 0.04253 0.0
H875 H 0.09153 0.05146 0.01385 0.0
H876 H 0.12466 0.04565 0.02461 0.0
H877 H 0.11371 0.05464 0.96263 0.0
H878 H 0.14519 0.09195 0.96273 0.0
H879 H 0.15608 0.08323 0.02481 0.0
H880 H 0.14426 0.11453 0.01368 0.0
H881 H 0.06544 0.12859 0.12799 0.0
H882 H 0.08801 0.11465 0.20392 0.0
H883 H 0.13798 0.06899 0.11166 0.0
C884 C 0.09174 0.10696 0.94107 0.0
C885 C 0.0726 0.12394 0.92587 0.0
C886 C 0.05675 0.13494 0.96274 0.0
C887 C 0.06048 0.1299 0.01426 0.0
C888 C 0.07987 0.1135 0.02804 0.0
C889 C 0.09498 0.10185 -0.00744 0.0
C890 C 0.11489 0.08549 0.01761 0.0
C891 C 0.11095 0.05766 0.00386 0.0
C892 C 0.14169 0.09434 0.00389 0.0
C893 C 0.10909 0.09036 0.07287 0.0
C894 C 0.08883 0.10662 0.07781 0.0
C895 C 0.08097 0.11545 0.12468 0.0
C896 C 0.09405 0.10742 0.16772 0.0
C897 C 0.11459 0.09041 0.16395 0.0
C898 C 0.12207 0.08164 0.11579 0.0
H899 H 0.94363 0.63014 0.36598 0.0
H900 H 0.87917 0.60386 0.45215 0.0
H901 H 0.86355 0.58077 0.37777 0.0
H902 H 0.90867 0.64207 0.25379 0.0
H903 H 0.9336 0.6326 0.21149 0.0
H904 H 0.94125 0.64479 0.27318 0.0
H905 H 0.96694 0.60439 0.29241 0.0
H906 H 0.95907 0.59195 0.23087 0.0
H907 H 0.95183 0.57413 0.28688 0.0
H908 H 0.8547 0.56024 0.29363 0.0
H909 H 0.84995 0.54979 0.20253 0.0
H910 H 0.9174 0.5929 0.1697 0.0
C911 C 0.92637 0.61934 0.36924 0.0
C912 C 0.9129 0.61849 0.41521 0.0
C913 C 0.89006 0.60459 0.41766 0.0
C914 C 0.88104 0.59127 0.37559 0.0
C915 C 0.89482 0.5923 0.33094 0.0
C916 C 0.91674 0.60636 0.32715 0.0
C917 C 0.92665 0.60622 0.27348 0.0
C918 C 0.92758 0.63301 0.25171 0.0
C919 C 0.95267 0.59341 0.27078 0.0
C920 C 0.90657 0.59039 0.24769 0.0
C921 C 0.88879 0.58189 0.2817 0.0
C922 C 0.86851 0.56681 0.26658 0.0
C923 C 0.866 0.56084 0.21499 0.0
C924 C 0.88329 0.57056 0.17942 0.0
C925 C 0.90394 0.5852 0.19617 0.0
H926 H 0.37778 0.44222 0.60744 0.0
H927 H 0.44228 0.41615 0.6941 0.0
H928 H 0.46307 0.40217 0.61624 0.0
H929 H 0.37653 0.38988 0.52567 0.0
H930 H 0.3673 0.40688 0.46968 0.0
H931 H 0.35863 0.41861 0.53116 0.0
H932 H 0.38032 0.46112 0.51147 0.0
H933 H 0.38891 0.44957 0.4497 0.0
H934 H 0.41293 0.46147 0.49186 0.0
H935 H 0.47616 0.3886 0.53098 0.0
H936 H 0.47992 0.37444 0.44245 0.0
H937 H 0.40604 0.40596 0.40938 0.0
C938 C 0.39657 0.4342 0.60959 0.0
C939 C 0.40867 0.43077 0.6568 0.0
C940 C 0.43281 0.41934 0.6585 0.0
C941 C 0.44482 0.41131 0.61434 0.0
C942 C 0.4323 0.41441 0.56854 0.0
C943 C 0.40866 0.42544 0.5656 0.0
C944 C 0.39851 0.42414 0.51184 0.0
C945 C 0.37378 0.40897 0.50948 0.0
C946 C 0.39496 0.45066 0.48993 0.0
C947 C 0.41995 0.41032 0.48564 0.0
C948 C 0.43939 0.40531 0.51904 0.0
C949 C 0.46112 0.39249 0.5043 0.0
C950 C 0.46308 0.38448 0.45397 0.0
C951 C 0.44327 0.389 0.41913 0.0
C952 C 0.42146 0.40216 0.43524 0.0
H953 H 0.64398 0.94346 0.70134 0.0
H954 H 0.59721 0.89352 0.61101 0.0
H955 H 0.57517 0.87948 0.68709 0.0
H956 H 0.65277 0.89942 0.80097 0.0
H957 H 0.65243 0.92239 0.85121 0.0
H958 H 0.66274 0.93127 0.78891 0.0
H959 H 0.62934 0.96689 0.78712 0.0
H960 H 0.61891 0.95808 0.84947 0.0
H961 H 0.59657 0.95942 0.79798 0.0
H962 H 0.55837 0.86998 0.772 0.0
H963 H 0.55108 0.86213 0.86283 0.0
H964 H 0.61102 0.91468 0.9007 0.0
C965 C 0.62883 0.92989 0.69772 0.0
C966 C 0.62203 0.91996 0.64998 0.0
C967 C 0.60262 0.90168 0.64681 0.0
C968 C 0.58986 0.89358 0.68996 0.0
C969 C 0.59703 0.90351 0.73641 0.0
C970 C 0.61628 0.92098 0.74091 0.0
C971 C 0.62174 0.92667 0.79614 0.0
C972 C 0.64904 0.9195 0.81011 0.0
C973 C 0.61631 0.95442 0.80839 0.0
C974 C 0.60276 0.90945 0.82155 0.0
C975 C 0.58835 0.89671 0.78624 0.0
C976 C 0.56952 0.87979 0.80016 0.0
C977 C 0.56549 0.87548 0.85174 0.0
C978 C 0.58057 0.88766 0.88858 0.0
C979 C 0.59932 0.90499 0.87324 0.0
H980 H 0.09869 0.42634 0.40978 0.0
H981 H 0.06077 0.35701 0.36759 0.0
H982 H 0.07567 0.36203 0.27988 0.0
H983 H 0.08378 0.45913 0.28911 0.0
H984 H 0.1134 0.47587 0.28849 0.0
H985 H 0.09909 0.46737 0.34784 0.0
H986 H 0.14027 0.44447 0.3739 0.0
H987 H 0.15456 0.45251 0.31432 0.0
H988 H 0.15279 0.42007 0.33365 0.0
H989 H 0.09841 0.37118 0.20201 0.0
H990 H 0.12107 0.38791 0.12949 0.0
H991 H 0.14149 0.45465 0.21586 0.0
C992 C 0.09327 0.41248 0.38172 0.0
C993 C 0.07868 0.3912 0.39514 0.0
C994 C 0.07176 0.37347 0.35779 0.0
C995 C 0.08029 0.37609 0.30807 0.0
C996 C 0.09515 0.39688 0.29627 0.0
C997 C 0.10104 0.4152 0.33137 0.0
C998 C 0.11681 0.43597 0.30762 0.0
C999 C 0.10241 0.46108 0.3083 0.0
C1000 C 0.14264 0.43839 0.33396 0.0
C1001 C 0.11955 0.42594 0.25406 0.0
C1002 C 0.10704 0.40322 0.2491 0.0
C1003 C 0.10769 0.38926 0.20487 0.0
C1004 C 0.12074 0.39907 0.16379 0.0
C1005 C 0.13263 0.42299 0.16633 0.0
C1006 C 0.13237 0.43649 0.21251 0.0
H1007 H 0.64519 0.57171 0.60189 0.0
H1008 H 0.59571 0.61835 0.69297 0.0
H1009 H 0.57332 0.63217 0.61689 0.0
H1010 H 0.65246 0.61723 0.5051 0.0
H1011 H 0.65346 0.59505 0.45348 0.0
H1012 H 0.66373 0.58567 0.51561 0.0
H1013 H 0.63191 0.54865 0.51403 0.0
H1014 H 0.62155 0.55793 0.4518 0.0
H1015 H 0.59892 0.55487 0.50224 0.0
H1016 H 0.55679 0.64226 0.53203 0.0
H1017 H 0.54983 0.6513 0.44157 0.0
H1018 H 0.61207 0.60179 0.40265 0.0
C1019 C 0.62932 0.58442 0.60564 0.0
C1020 C 0.62187 0.59353 0.65362 0.0
C1021 C 0.60158 0.61079 0.65699 0.0
C1022 C 0.58863 0.61877 0.61383 0.0
C1023 C 0.5965 0.60975 0.56712 0.0
C1024 C 0.61655 0.59323 0.56242 0.0
C1025 C 0.62262 0.58862 0.50705 0.0
C1026 C 0.64967 0.59716 0.49459 0.0
C1027 C 0.6185 0.56086 0.49296 0.0
C1028 C 0.60307 0.60539 0.48184 0.0
C1029 C 0.5879 0.61694 0.51735 0.0
C1030 C 0.56852 0.63334 0.50373 0.0
C1031 C 0.5647 0.63835 0.4523 0.0
C1032 C 0.58047 0.62737 0.41525 0.0
C1033 C 0.5998 0.61055 0.43026 0.0
H1034 H 0.38123 0.07641 0.68737 0.0
H1035 H 0.43488 0.11638 0.59333 0.0
H1036 H 0.45657 0.13226 0.66919 0.0
H1037 H 0.37479 0.12544 0.77752 0.0
H1038 H 0.37176 0.10491 0.83132 0.0
H1039 H 0.36198 0.09426 0.76964 0.0
H1040 H 0.39169 0.0557 0.77747 0.0
H1041 H 0.40158 0.06627 0.83923 0.0
H1042 H 0.42477 0.06052 0.79075 0.0
H1043 H 0.47226 0.14457 0.75528 0.0
H1044 H 0.47818 0.15538 0.84576 0.0
H1045 H 0.41248 0.11042 0.8834 0.0
C1046 C 0.39776 0.08819 0.6829 0.0
C1047 C 0.40653 0.09489 0.63442 0.0
C1048 C 0.42786 0.11084 0.62998 0.0
C1049 C 0.44042 0.11992 0.67293 0.0
C1050 C 0.43123 0.1132 0.7202 0.0
C1051 C 0.41023 0.09792 0.72555 0.0
C1052 C 0.40304 0.09528 0.78068 0.0
C1053 C 0.37631 0.1056 0.79034 0.0
C1054 C 0.40542 0.06781 0.79804 0.0
C1055 C 0.42306 0.1117 0.80517 0.0
C1056 C 0.43944 0.12145 0.76976 0.0
C1057 C 0.45953 0.13707 0.78344 0.0
C1058 C 0.46278 0.14309 0.83479 0.0
C1059 C 0.44571 0.1339 0.8714 0.0
C1060 C 0.42573 0.1179 0.85625 0.0
H1061 H 0.88525 0.89271 0.12819 0.0
H1062 H 0.89664 0.97331 0.11795 0.0
H1063 H 0.91528 0.96786 0.03287 0.0
H1064 H 0.94197 0.87376 0.06311 0.0
H1065 H 0.92708 0.84782 0.03071 0.0
H1066 H 0.91542 0.85793 0.09141 0.0
H1067 H 0.87068 0.86403 0.0533 0.0
H1068 H 0.88214 0.85373 -0.00737 0.0
H1069 H 0.86669 0.8838 -0.00146 0.0
H1070 H 0.93394 0.95333 0.94987 0.0
H1071 H 0.94657 0.93142 0.87114 0.0
H1072 H 0.92018 0.86079 0.9328 0.0
C1073 C 0.89165 0.90921 0.10798 0.0
C1074 C 0.88958 0.93345 0.12964 0.0
C1075 C 0.89798 0.95459 0.10195 0.0
C1076 C 0.90873 0.95165 0.05377 0.0
C1077 C 0.91068 0.92747 0.03363 0.0
C1078 C 0.90205 0.90665 0.05957 0.0
C1079 C 0.90535 0.88284 0.0286 0.0
C1080 C 0.92354 0.86451 0.05504 0.0
C1081 C 0.87968 0.87037 0.01761 0.0
C1082 C 0.91701 0.89353 0.98098 0.0
C1083 C 0.92036 0.91925 0.98502 0.0
C1084 C 0.93122 0.93324 0.94618 0.0
C1085 C 0.93834 0.92068 0.90167 0.0
C1086 C 0.93417 0.89457 0.89618 0.0
C1087 C 0.92357 0.8808 0.93639 0.0
loop_
_geom_bond_atom_site_label_1
_geom_bond_atom_site_label_2
_geom_bond_distance
_geom_bond_site_symmetry_2
_ccdc_geom_bond_type
Co0 O1 2.216 . S
Co0 O2 2.091 . S
Co0 O4 2.004 . S
Co0 O10 2.021 . S
Co0 O12 2.137 . S
Co0 O13 2.244 . S
O1 Co0 2.216 . S
O1 C8 1.247 . S
O2 Co0 2.091 . S
O2 C8 1.261 . S
C3 O12 1.247 . S
C3 O13 1.272 . S
O4 Co0 2.004 . S
O4 C9 1.259 . S
Co5 O6 2.061 . S
Co5 O11 2.052 . S
Co5 O13 2.135 . S
O6 Co5 2.061 . S
O6 C9 1.235 . S
C7 O10 1.238 . S
C7 O11 1.241 . S
C8 O1 1.247 . S
C8 O2 1.261 . S
C9 O4 1.259 . S
C9 O6 1.235 . S
O10 Co0 2.021 . S
O10 C7 1.238 . S
O11 Co5 2.052 . S
O11 C7 1.241 . S
O12 Co0 2.137 . S
O12 C3 1.247 . S
O13 Co0 2.244 . S
O13 C3 1.272 . S
O13 Co5 2.135 . S
Co14 O15 2.216 . S
Co14 O16 2.091 . S
Co14 O18 2.004 . S
Co14 O24 2.021 . S
Co14 O26 2.137 . S
Co14 O27 2.244 . S
O15 Co14 2.216 . S
O15 C22 1.247 . S
O16 Co14 2.091 . S
O16 C22 1.261 . S
C17 O26 1.247 . S
C17 O27 1.272 . S
O18 Co14 2.004 . S
O18 C23 1.259 . S
Co19 O20 2.061 . S
Co19 O25 2.052 . S
Co19 O27 2.135 . S
O20 Co19 2.061 . S
O20 C23 1.235 . S
C21 O24 1.238 . S
C21 O25 1.241 . S
C22 O15 1.247 . S
C22 O16 1.261 . S
C23 O18 1.259 . S
C23 O20 1.235 . S
O24 Co14 2.021 . S
O24 C21 1.238 . S
O25 Co19 2.052 . S
O25 C21 1.241 . S
O26 Co14 2.137 . S
O26 C17 1.247 . S
O27 Co14 2.244 . S
O27 C17 1.272 . S
O27 Co19 2.135 . S
Co28 O29 2.216 . S
Co28 O30 2.091 . S
Co28 O32 2.004 . S
Co28 O38 2.021 . S
Co28 O40 2.137 . S
Co28 O41 2.244 . S
O29 Co28 2.216 . S
O29 C36 1.247 . S
O30 Co28 2.091 . S
O30 C36 1.261 . S
C31 O40 1.247 . S
C31 O41 1.272 . S
O32 Co28 2.004 . S
O32 C37 1.259 . S
Co33 O34 2.061 . S
Co33 O39 2.052 . S
Co33 O41 2.135 . S
O34 Co33 2.061 . S
O34 C37 1.235 . S
C35 O38 1.238 . S
C35 O39 1.241 . S
C36 O29 1.247 . S
C36 O30 1.261 . S
C37 O32 1.259 . S
C37 O34 1.235 . S
O38 Co28 2.021 . S
O38 C35 1.238 . S
O39 Co33 2.052 . S
O39 C35 1.241 . S
O40 Co28 2.137 . S
O40 C31 1.247 . S
O41 Co28 2.244 . S
O41 C31 1.272 . S
O41 Co33 2.135 . S
Co42 O43 2.216 . S
Co42 O44 2.091 . S
Co42 O46 2.004 . S
Co42 O52 2.021 . S
Co42 O54 2.137 1_554 S
Co42 O55 2.244 . S
O43 Co42 2.216 . S
O43 C50 1.247 . S
O44 Co42 2.091 . S
O44 C50 1.261 . S
C45 O54 1.247 . S
C45 O55 1.272 1_556 S
O46 Co42 2.004 . S
O46 C51 1.259 . S
Co47 O48 2.061 . S
Co47 O53 2.052 . S
Co47 O55 2.135 . S
O48 Co47 2.061 . S
O48 C51 1.235 . S
C49 O52 1.238 . S
C49 O53 1.241 . S
C50 O43 1.247 . S
C50 O44 1.261 . S
C51 O46 1.259 . S
C51 O48 1.235 . S
O52 Co42 2.021 . S
O52 C49 1.238 . S
O53 Co47 2.052 . S
O53 C49 1.241 . S
O54 Co42 2.137 1_556 S
O54 C45 1.247 . S
O55 Co42 2.244 . S
O55 C45 1.272 1_554 S
O55 Co47 2.135 . S
Co56 O57 2.216 . S
Co56 O58 2.090 1_554 S
Co56 O60 2.004 . S
Co56 O66 2.021 1_554 S
Co56 O68 2.137 . S
Co56 O69 2.244 . S
O57 Co56 2.216 . S
O57 C64 1.245 1_554 S
O58 Co56 2.090 1_556 S
O58 C64 1.261 . S
C59 O68 1.247 . S
C59 O69 1.272 . S
O60 Co56 2.004 . S
O60 C65 1.259 . S
Co61 O62 2.061 . S
Co61 O67 2.052 1_554 S
Co61 O69 2.135 . S
O62 Co61 2.061 . S
O62 C65 1.235 . S
C63 O66 1.238 . S
C63 O67 1.241 . S
C64 O57 1.245 1_556 S
C64 O58 1.261 . S
C65 O60 1.259 . S
C65 O62 1.235 . S
O66 Co56 2.021 1_556 S
O66 C63 1.238 . S
O67 Co61 2.052 1_556 S
O67 C63 1.241 . S
O68 Co56 2.137 . S
O68 C59 1.247 . S
O69 Co56 2.244 . S
O69 C59 1.272 . S
O69 Co61 2.135 . S
Co70 O71 2.216 . S
Co70 O72 2.091 . S
Co70 O74 2.004 . S
Co70 O80 2.021 . S
Co70 O82 2.137 . S
Co70 O83 2.244 . S
O71 Co70 2.216 . S
O71 C78 1.247 . S
O72 Co70 2.091 . S
O72 C78 1.261 . S
C73 O82 1.247 . S
C73 O83 1.272 . S
O74 Co70 2.004 . S
O74 C79 1.259 . S
Co75 O76 2.061 . S
Co75 O81 2.052 . S
Co75 O83 2.135 . S
O76 Co75 2.061 . S
O76 C79 1.235 . S
C77 O80 1.238 . S
C77 O81 1.241 . S
C78 O71 1.247 . S
C78 O72 1.261 . S
C79 O74 1.259 . S
C79 O76 1.235 . S
O80 Co70 2.021 . S
O80 C77 1.238 . S
O81 Co75 2.052 . S
O81 C77 1.241 . S
O82 Co70 2.137 . S
O82 C73 1.247 . S
O83 Co70 2.244 . S
O83 C73 1.272 . S
O83 Co75 2.135 . S
Co84 O85 2.216 . S
Co84 O86 2.091 . S
Co84 O88 2.004 . S
Co84 O94 2.021 . S
Co84 O96 2.137 . S
Co84 O97 2.244 . S
O85 Co84 2.216 . S
O85 C92 1.247 . S
O86 Co84 2.091 . S
O86 C92 1.261 . S
C87 O96 1.247 . S
C87 O97 1.272 . S
O88 Co84 2.004 . S
O88 C93 1.259 . S
Co89 O90 2.061 . S
Co89 O95 2.052 . S
Co89 O97 2.135 . S
O90 Co89 2.061 . S
O90 C93 1.235 . S
C91 O94 1.238 . S
C91 O95 1.241 . S
C92 O85 1.247 . S
C92 O86 1.261 . S
C93 O88 1.259 . S
C93 O90 1.235 . S
O94 Co84 2.021 . S
O94 C91 1.238 . S
O95 Co89 2.052 . S
O95 C91 1.241 . S
O96 Co84 2.137 . S
O96 C87 1.247 . S
O97 Co84 2.244 . S
O97 C87 1.272 . S
O97 Co89 2.135 . S
Co98 O99 2.216 . S
Co98 O100 2.091 . S
Co98 O102 2.004 . S
Co98 O108 2.021 . S
Co98 O110 2.137 . S
Co98 O111 2.244 . S
O99 Co98 2.216 . S
O99 C106 1.247 . S
O100 Co98 2.091 . S
O100 C106 1.261 . S
C101 O110 1.247 . S
C101 O111 1.272 . S
O102 Co98 2.004 . S
O102 C107 1.259 . S
Co103 O104 2.061 . S
Co103 O109 2.052 . S
Co103 O111 2.135 . S
O104 Co103 2.061 . S
O104 C107 1.235 . S
C105 O108 1.238 . S
C105 O109 1.241 . S
C106 O99 1.247 . S
C106 O100 1.261 . S
C107 O102 1.259 . S
C107 O104 1.235 . S
O108 Co98 2.021 . S
O108 C105 1.238 . S
O109 Co103 2.052 . S
O109 C105 1.241 . S
O110 Co98 2.137 . S
O110 C101 1.247 . S
O111 Co98 2.244 . S
O111 C101 1.272 . S
O111 Co103 2.135 . S
Co112 O113 2.216 . S
Co112 O114 2.091 . S
Co112 O116 2.004 . S
Co112 O122 2.021 . S
Co112 O124 2.137 . S
Co112 O125 2.244 . S
O113 Co112 2.216 . S
O113 C120 1.247 . S
O114 Co112 2.091 . S
O114 C120 1.261 . S
C115 O124 1.247 . S
C115 O125 1.272 . S
O116 Co112 2.004 . S
O116 C121 1.259 . S
Co117 O118 2.061 . S
Co117 O123 2.052 . S
Co117 O125 2.135 . S
O118 Co117 2.061 . S
O118 C121 1.235 . S
C119 O122 1.238 . S
C119 O123 1.241 . S
C120 O113 1.247 . S
C120 O114 1.261 . S
C121 O116 1.259 . S
C121 O118 1.235 . S
O122 Co112 2.021 . S
O122 C119 1.238 . S
O123 Co117 2.052 . S
O123 C119 1.241 . S
O124 Co112 2.137 . S
O124 C115 1.247 . S
O125 Co112 2.244 . S
O125 C115 1.272 . S
O125 Co117 2.135 . S
Co126 O127 2.216 . S
Co126 O128 2.091 . S
Co126 O130 2.004 . S
Co126 O136 2.021 . S
Co126 O138 2.137 1_554 S
Co126 O139 2.244 . S
O127 Co126 2.216 . S
O127 C134 1.247 . S
O128 Co126 2.091 . S
O128 C134 1.261 . S
C129 O138 1.247 . S
C129 O139 1.272 1_556 S
O130 Co126 2.004 . S
O130 C135 1.259 . S
Co131 O132 2.061 . S
Co131 O137 2.052 . S
Co131 O139 2.135 . S
O132 Co131 2.061 . S
O132 C135 1.235 . S
C133 O136 1.238 . S
C133 O137 1.241 . S
C134 O127 1.247 . S
C134 O128 1.261 . S
C135 O130 1.259 . S
C135 O132 1.235 . S
O136 Co126 2.021 . S
O136 C133 1.238 . S
O137 Co131 2.052 . S
O137 C133 1.241 . S
O138 Co126 2.137 1_556 S
O138 C129 1.247 . S
O139 Co126 2.244 . S
O139 C129 1.272 1_554 S
O139 Co131 2.135 . S
Co140 O141 2.216 . S
Co140 O142 2.091 . S
Co140 O144 2.004 . S
Co140 O150 2.021 . S
Co140 O152 2.137 . S
Co140 O153 2.244 . S
O141 Co140 2.216 . S
O141 C148 1.247 . S
O142 Co140 2.091 . S
O142 C148 1.261 . S
C143 O152 1.247 . S
C143 O153 1.272 . S
O144 Co140 2.004 . S
O144 C149 1.259 . S
Co145 O146 2.061 . S
Co145 O151 2.052 . S
Co145 O153 2.135 . S
O146 Co145 2.061 . S
O146 C149 1.235 . S
C147 O150 1.238 . S
C147 O151 1.241 . S
C148 O141 1.247 . S
C148 O142 1.261 . S
C149 O144 1.259 . S
C149 O146 1.235 . S
O150 Co140 2.021 . S
O150 C147 1.238 . S
O151 Co145 2.052 . S
O151 C147 1.241 . S
O152 Co140 2.137 . S
O152 C143 1.247 . S
O153 Co140 2.244 . S
O153 C143 1.272 . S
O153 Co145 2.135 . S
Co154 O155 2.216 . S
Co154 O156 2.091 . S
Co154 O158 2.004 . S
Co154 O164 2.021 . S
Co154 O166 2.137 . S
Co154 O167 2.244 . S
O155 Co154 2.216 . S
O155 C162 1.247 . S
O156 Co154 2.091 . S
O156 C162 1.261 . S
C157 O166 1.247 . S
C157 O167 1.272 . S
O158 Co154 2.004 . S
O158 C163 1.259 . S
Co159 O160 2.061 . S
Co159 O165 2.052 . S
Co159 O167 2.135 . S
O160 Co159 2.061 . S
O160 C163 1.235 . S
C161 O164 1.238 . S
C161 O165 1.241 . S
C162 O155 1.247 . S
C162 O156 1.261 . S
C163 O158 1.259 . S
C163 O160 1.235 . S
O164 Co154 2.021 . S
O164 C161 1.238 . S
O165 Co159 2.052 . S
O165 C161 1.241 . S
O166 Co154 2.137 . S
O166 C157 1.247 . S
O167 Co154 2.244 . S
O167 C157 1.272 . S
O167 Co159 2.135 . S
Co168 O169 2.216 . S
Co168 O170 2.091 . S
Co168 O172 2.004 . S
Co168 O178 2.021 . S
Co168 O180 2.137 . S
Co168 O181 2.244 . S
O169 Co168 2.216 . S
O169 C176 1.247 . S
O170 Co168 2.091 . S
O170 C176 1.261 . S
C171 O180 1.247 . S
C171 O181 1.272 . S
O172 Co168 2.004 . S
O172 C177 1.259 . S
Co173 O174 2.061 . S
Co173 O179 2.052 . S
Co173 O181 2.135 . S
O174 Co173 2.061 . S
O174 C177 1.235 . S
C175 O178 1.238 . S
C175 O179 1.241 . S
C176 O169 1.247 . S
C176 O170 1.261 . S
C177 O172 1.259 . S
C177 O174 1.235 . S
O178 Co168 2.021 . S
O178 C175 1.238 . S
O179 Co173 2.052 . S
O179 C175 1.241 . S
O180 Co168 2.137 . S
O180 C171 1.247 . S
O181 Co168 2.244 . S
O181 C171 1.272 . S
O181 Co173 2.135 . S
Co182 O183 2.216 . S
Co182 O184 2.091 . S
Co182 O186 2.004 . S
Co182 O192 2.021 . S
Co182 O194 2.137 . S
Co182 O195 2.244 . S
O183 Co182 2.216 . S
O183 C190 1.247 . S
O184 Co182 2.091 . S
O184 C190 1.261 . S
C185 O194 1.247 . S
C185 O195 1.272 . S
O186 Co182 2.004 . S
O186 C191 1.259 . S
Co187 O188 2.061 . S
Co187 O193 2.052 . S
Co187 O195 2.135 . S
O188 Co187 2.061 . S
O188 C191 1.235 . S
C189 O192 1.238 . S
C189 O193 1.241 . S
C190 O183 1.247 . S
C190 O184 1.261 . S
C191 O186 1.259 . S
C191 O188 1.235 . S
O192 Co182 2.021 . S
O192 C189 1.238 . S
O193 Co187 2.052 . S
O193 C189 1.241 . S
O194 Co182 2.137 . S
O194 C185 1.247 . S
O195 Co182 2.244 . S
O195 C185 1.272 . S
O195 Co187 2.135 . S
Co196 O197 2.216 . S
Co196 O198 2.090 1_554 S
Co196 O200 2.004 . S
Co196 O206 2.021 1_554 S
Co196 O208 2.137 . S
Co196 O209 2.244 . S
O197 Co196 2.216 . S
O197 C204 1.245 1_554 S
O198 Co196 2.090 1_556 S
O198 C204 1.261 . S
C199 O208 1.247 . S
C199 O209 1.272 . S
O200 Co196 2.004 . S
O200 C205 1.259 . S
Co201 O202 2.061 . S
Co201 O207 2.052 1_554 S
Co201 O209 2.135 . S
O202 Co201 2.061 . S
O202 C205 1.235 . S
C203 O206 1.238 . S
C203 O207 1.241 . S
C204 O197 1.245 1_556 S
C204 O198 1.261 . S
C205 O200 1.259 . S
C205 O202 1.235 . S
O206 Co196 2.021 1_556 S
O206 C203 1.238 . S
O207 Co201 2.052 1_556 S
O207 C203 1.241 . S
O208 Co196 2.137 . S
O208 C199 1.247 . S
O209 Co196 2.244 . S
O209 C199 1.272 . S
O209 Co201 2.135 . S
Co210 O211 2.216 . S
Co210 O212 2.091 . S
Co210 O214 2.004 . S
Co210 O220 2.021 . S
Co210 O222 2.137 . S
Co210 O223 2.244 . S
O211 Co210 2.216 . S
O211 C218 1.247 . S
O212 Co210 2.091 . S
O212 C218 1.261 . S
C213 O222 1.247 . S
C213 O223 1.272 . S
O214 Co210 2.004 . S
O214 C219 1.259 . S
Co215 O216 2.061 . S
Co215 O221 2.052 . S
Co215 O223 2.135 . S
O216 Co215 2.061 . S
O216 C219 1.235 . S
C217 O220 1.238 . S
C217 O221 1.241 . S
C218 O211 1.247 . S
C218 O212 1.261 . S
C219 O214 1.259 . S
C219 O216 1.235 . S
O220 Co210 2.021 . S
O220 C217 1.238 . S
O221 Co215 2.052 . S
O221 C217 1.241 . S
O222 Co210 2.137 . S
O222 C213 1.247 . S
O223 Co210 2.244 . S
O223 C213 1.272 . S
O223 Co215 2.135 . S
H224 C236 0.930 . S
H225 C238 0.930 . S
H226 C239 0.930 . S
H227 C243 0.959 . S
H228 C243 0.959 . S
H229 C243 0.961 . S
H230 C244 0.960 . S
H231 C244 0.961 . S
H232 C244 0.959 . S
H233 C247 0.929 . S
H234 C248 0.931 . S
H235 C250 0.930 . S
C236 H224 0.930 . S
C236 C237 1.399 . S
C236 C241 1.399 . S
C237 C236 1.399 . S
C237 C238 1.376 . S
C238 H225 0.930 . S
C238 C237 1.376 . S
C238 C239 1.388 . S
C239 H226 0.930 . S
C239 C238 1.388 . S
C239 C240 1.390 . S
C240 C239 1.390 . S
C240 C241 1.394 . S
C240 C246 1.465 . S
C241 C236 1.399 . S
C241 C240 1.394 . S
C241 C242 1.516 . S
C242 C241 1.516 . S
C242 C243 1.502 . S
C242 C244 1.561 . S
C242 C245 1.526 . S
C243 H227 0.959 . S
C243 H228 0.959 . S
C243 H229 0.961 . S
C243 C242 1.502 . S
C244 H230 0.960 . S
C244 H231 0.961 . S
C244 H232 0.959 . S
C244 C242 1.561 . S
C245 C242 1.526 . S
C245 C246 1.396 . S
C245 C250 1.390 . S
C246 C240 1.465 . S
C246 C245 1.396 . S
C246 C247 1.399 . S
C247 H233 0.929 . S
C247 C246 1.399 . S
C247 C248 1.385 . S
C248 H234 0.931 . S
C248 C247 1.385 . S
C248 C249 1.389 . S
C249 C248 1.389 . S
C249 C250 1.387 . S
C250 H235 0.930 . S
C250 C245 1.390 . S
C250 C249 1.387 . S
H251 C263 0.930 . S
H252 C265 0.930 . S
H253 C266 0.930 . S
H254 C270 0.959 . S
H255 C270 0.959 . S
H256 C270 0.961 . S
H257 C271 0.960 . S
H258 C271 0.961 . S
H259 C271 0.959 . S
H260 C274 0.929 . S
H261 C275 0.931 . S
H262 C277 0.930 . S
C263 H251 0.930 . S
C263 C264 1.399 . S
C263 C268 1.399 . S
C264 C263 1.399 . S
C264 C265 1.376 . S
C265 H252 0.930 . S
C265 C264 1.376 . S
C265 C266 1.388 . S
C266 H253 0.930 . S
C266 C265 1.388 . S
C266 C267 1.390 . S
C267 C266 1.390 . S
C267 C268 1.394 . S
C267 C273 1.465 . S
C268 C263 1.399 . S
C268 C267 1.394 . S
C268 C269 1.516 . S
C269 C268 1.516 . S
C269 C270 1.502 . S
C269 C271 1.561 . S
C269 C272 1.526 . S
C270 H254 0.959 . S
C270 H255 0.959 . S
C270 H256 0.961 . S
C270 C269 1.502 . S
C271 H257 0.960 . S
C271 H258 0.961 . S
C271 H259 0.959 . S
C271 C269 1.561 . S
C272 C269 1.526 . S
C272 C273 1.396 . S
C272 C277 1.390 . S
C273 C267 1.465 . S
C273 C272 1.396 . S
C273 C274 1.399 . S
C274 H260 0.929 . S
C274 C273 1.399 . S
C274 C275 1.385 . S
C275 H261 0.931 . S
C275 C274 1.385 . S
C275 C276 1.389 . S
C276 C275 1.389 . S
C276 C277 1.387 . S
C277 H262 0.930 . S
C277 C272 1.390 . S
C277 C276 1.387 . S
H278 C290 0.930 . S
H279 C292 0.930 . S
H280 C293 0.930 . S
H281 C297 0.959 . S
H282 C297 0.959 . S
H283 C297 0.961 . S
H284 C298 0.960 . S
H285 C298 0.961 . S
H286 C298 0.959 . S
H287 C301 0.929 . S
H288 C302 0.931 . S
H289 C304 0.930 . S
C290 H278 0.930 . S
C290 C291 1.399 . S
C290 C295 1.399 . S
C291 C290 1.399 . S
C291 C292 1.376 . S
C292 H279 0.930 . S
C292 C291 1.376 . S
C292 C293 1.388 . S
C293 H280 0.930 . S
C293 C292 1.388 . S
C293 C294 1.390 . S
C294 C293 1.390 . S
C294 C295 1.394 . S
C294 C300 1.465 . S
C295 C290 1.399 . S
C295 C294 1.394 . S
C295 C296 1.516 . S
C296 C295 1.516 . S
C296 C297 1.502 . S
C296 C298 1.561 . S
C296 C299 1.526 . S
C297 H281 0.959 . S
C297 H282 0.959 . S
C297 H283 0.961 . S
C297 C296 1.502 . S
C298 H284 0.960 . S
C298 H285 0.961 . S
C298 H286 0.959 . S
C298 C296 1.561 . S
C299 C296 1.526 . S
C299 C300 1.396 . S
C299 C304 1.390 . S
C300 C294 1.465 . S
C300 C299 1.396 . S
C300 C301 1.399 . S
C301 H287 0.929 . S
C301 C300 1.399 . S
C301 C302 1.385 . S
C302 H288 0.931 . S
C302 C301 1.385 . S
C302 C303 1.389 . S
C303 C302 1.389 . S
C303 C304 1.387 . S
C304 H289 0.930 . S
C304 C299 1.390 . S
C304 C303 1.387 . S
H305 C317 0.930 . S
H306 C319 0.930 . S
H307 C320 0.930 . S
H308 C324 0.959 . S
H309 C324 0.959 . S
H310 C324 0.961 . S
H311 C325 0.960 . S
H312 C325 0.961 . S
H313 C325 0.959 . S
H314 C328 0.929 . S
H315 C329 0.931 . S
H316 C331 0.930 . S
C317 H305 0.930 . S
C317 C318 1.399 . S
C317 C322 1.399 . S
C318 C317 1.399 . S
C318 C319 1.376 . S
C319 H306 0.930 . S
C319 C318 1.376 . S
C319 C320 1.388 . S
C320 H307 0.930 . S
C320 C319 1.388 . S
C320 C321 1.390 . S
C321 C320 1.390 . S
C321 C322 1.394 . S
C321 C327 1.465 . S
C322 C317 1.399 . S
C322 C321 1.394 . S
C322 C323 1.516 . S
C323 C322 1.516 . S
C323 C324 1.502 . S
C323 C325 1.561 . S
C323 C326 1.526 . S
C324 H308 0.959 . S
C324 H309 0.959 . S
C324 H310 0.961 . S
C324 C323 1.502 . S
C325 H311 0.960 . S
C325 H312 0.961 . S
C325 H313 0.959 . S
C325 C323 1.561 . S
C326 C323 1.526 . S
C326 C327 1.396 . S
C326 C331 1.390 . S
C327 C321 1.465 . S
C327 C326 1.396 . S
C327 C328 1.399 . S
C328 H314 0.929 . S
C328 C327 1.399 . S
C328 C329 1.385 . S
C329 H315 0.931 . S
C329 C328 1.385 . S
C329 C330 1.389 . S
C330 C329 1.389 . S
C330 C331 1.387 . S
C331 H316 0.930 . S
C331 C326 1.390 . S
C331 C330 1.387 . S
H332 C344 0.930 . S
H333 C346 0.930 . S
H334 C347 0.930 . S
H335 C351 0.963 . S
H336 C351 0.955 1_554 S
H337 C351 0.961 . S
H338 C352 0.960 . S
H339 C352 0.961 . S
H340 C352 0.959 . S
H341 C355 0.929 . S
H342 C356 0.931 . S
H343 C358 0.930 . S
C344 H332 0.930 . S
C344 C345 1.399 . S
C344 C349 1.399 . S
C345 C344 1.399 . S
C345 C346 1.376 . S
C346 H333 0.930 . S
C346 C345 1.376 . S
C346 C347 1.388 . S
C347 H334 0.930 . S
C347 C346 1.388 . S
C347 C348 1.390 . S
C348 C347 1.390 . S
C348 C349 1.394 . S
C348 C354 1.465 . S
C349 C344 1.399 . S
C349 C348 1.394 . S
C349 C350 1.516 . S
C350 C349 1.516 . S
C350 C351 1.502 . S
C350 C352 1.561 . S
C350 C353 1.526 . S
C351 H335 0.963 . S
C351 H336 0.955 1_556 S
C351 H337 0.961 . S
C351 C350 1.502 . S
C352 H338 0.960 . S
C352 H339 0.961 . S
C352 H340 0.959 . S
C352 C350 1.561 . S
C353 C350 1.526 . S
C353 C354 1.396 . S
C353 C358 1.390 . S
C354 C348 1.465 . S
C354 C353 1.396 . S
C354 C355 1.399 . S
C355 H341 0.929 . S
C355 C354 1.399 . S
C355 C356 1.385 . S
C356 H342 0.931 . S
C356 C355 1.385 . S
C356 C357 1.389 . S
C357 C356 1.389 . S
C357 C358 1.387 . S
C358 H343 0.930 . S
C358 C353 1.390 . S
C358 C357 1.387 . S
H359 C371 0.930 . S
H360 C373 0.930 . S
H361 C374 0.930 . S
H362 C378 0.959 . S
H363 C378 0.959 . S
H364 C378 0.961 . S
H365 C379 0.960 . S
H366 C379 0.961 . S
H367 C379 0.959 . S
H368 C382 0.929 . S
H369 C383 0.931 . S
H370 C385 0.930 . S
C371 H359 0.930 . S
C371 C372 1.399 . S
C371 C376 1.399 . S
C372 C371 1.399 . S
C372 C373 1.376 . S
C373 H360 0.930 . S
C373 C372 1.376 . S
C373 C374 1.388 . S
C374 H361 0.930 . S
C374 C373 1.388 . S
C374 C375 1.390 . S
C375 C374 1.390 . S
C375 C376 1.394 . S
C375 C381 1.465 . S
C376 C371 1.399 . S
C376 C375 1.394 . S
C376 C377 1.516 . S
C377 C376 1.516 . S
C377 C378 1.502 . S
C377 C379 1.561 . S
C377 C380 1.526 . S
C378 H362 0.959 . S
C378 H363 0.959 . S
C378 H364 0.961 . S
C378 C377 1.502 . S
C379 H365 0.960 . S
C379 H366 0.961 . S
C379 H367 0.959 . S
C379 C377 1.561 . S
C380 C377 1.526 . S
C380 C381 1.396 . S
C380 C385 1.390 . S
C381 C375 1.465 . S
C381 C380 1.396 . S
C381 C382 1.399 . S
C382 H368 0.929 . S
C382 C381 1.399 . S
C382 C383 1.385 . S
C383 H369 0.931 . S
C383 C382 1.385 . S
C383 C384 1.389 . S
C384 C383 1.389 . S
C384 C385 1.387 . S
C385 H370 0.930 . S
C385 C380 1.390 . S
C385 C384 1.387 . S
H386 C398 0.930 . S
H387 C400 0.930 . S
H388 C401 0.930 . S
H389 C405 0.959 . S
H390 C405 0.959 . S
H391 C405 0.961 . S
H392 C406 0.960 . S
H393 C406 0.961 . S
H394 C406 0.959 . S
H395 C409 0.929 . S
H396 C410 0.931 . S
H397 C412 0.930 . S
C398 H386 0.930 . S
C398 C399 1.399 . S
C398 C403 1.399 . S
C399 C398 1.399 . S
C399 C400 1.376 . S
C400 H387 0.930 . S
C400 C399 1.376 . S
C400 C401 1.388 . S
C401 H388 0.930 . S
C401 C400 1.388 . S
C401 C402 1.390 . S
C402 C401 1.390 . S
C402 C403 1.394 . S
C402 C408 1.465 . S
C403 C398 1.399 . S
C403 C402 1.394 . S
C403 C404 1.516 . S
C404 C403 1.516 . S
C404 C405 1.502 . S
C404 C406 1.561 . S
C404 C407 1.526 . S
C405 H389 0.959 . S
C405 H390 0.959 . S
C405 H391 0.961 . S
C405 C404 1.502 . S
C406 H392 0.960 . S
C406 H393 0.961 . S
C406 H394 0.959 . S
C406 C404 1.561 . S
C407 C404 1.526 . S
C407 C408 1.396 . S
C407 C412 1.390 . S
C408 C402 1.465 . S
C408 C407 1.396 . S
C408 C409 1.399 . S
C409 H395 0.929 . S
C409 C408 1.399 . S
C409 C410 1.385 . S
C410 H396 0.931 . S
C410 C409 1.385 . S
C410 C411 1.389 . S
C411 C410 1.389 . S
C411 C412 1.387 . S
C412 H397 0.930 . S
C412 C407 1.390 . S
C412 C411 1.387 . S
H413 C425 0.930 . S
H414 C427 0.930 . S
H415 C428 0.930 . S
H416 C432 0.959 . S
H417 C432 0.959 . S
H418 C432 0.961 . S
H419 C433 0.960 . S
H420 C433 0.961 . S
H421 C433 0.959 . S
H422 C436 0.929 . S
H423 C437 0.931 . S
H424 C439 0.930 . S
C425 H413 0.930 . S
C425 C426 1.399 . S
C425 C430 1.399 . S
C426 C425 1.399 . S
C426 C427 1.376 . S
C427 H414 0.930 . S
C427 C426 1.376 . S
C427 C428 1.388 . S
C428 H415 0.930 . S
C428 C427 1.388 . S
C428 C429 1.390 . S
C429 C428 1.390 . S
C429 C430 1.394 . S
C429 C435 1.465 . S
C430 C425 1.399 . S
C430 C429 1.394 . S
C430 C431 1.516 . S
C431 C430 1.516 . S
C431 C432 1.502 . S
C431 C433 1.561 . S
C431 C434 1.526 . S
C432 H416 0.959 . S
C432 H417 0.959 . S
C432 H418 0.961 . S
C432 C431 1.502 . S
C433 H419 0.960 . S
C433 H420 0.961 . S
C433 H421 0.959 . S
C433 C431 1.561 . S
C434 C431 1.526 . S
C434 C435 1.396 . S
C434 C439 1.390 . S
C435 C429 1.465 . S
C435 C434 1.396 . S
C435 C436 1.399 . S
C436 H422 0.929 . S
C436 C435 1.399 . S
C436 C437 1.385 . S
C437 H423 0.931 . S
C437 C436 1.385 . S
C437 C438 1.389 . S
C438 C437 1.389 . S
C438 C439 1.387 . S
C439 H424 0.930 . S
C439 C434 1.390 . S
C439 C438 1.387 . S
H440 C452 0.930 . S
H441 C454 0.930 . S
H442 C455 0.930 . S
H443 C459 0.959 . S
H444 C459 0.959 . S
H445 C459 0.961 . S
H446 C460 0.960 1_455 S
H447 C460 0.960 1_565 S
H448 C460 0.959 . S
H449 C463 0.911 1_545 S
H450 C464 0.931 . S
H451 C466 0.930 . S
C452 H440 0.930 . S
C452 C453 1.399 . S
C452 C457 1.399 . S
C453 C452 1.399 . S
C453 C454 1.376 . S
C454 H441 0.930 . S
C454 C453 1.376 . S
C454 C455 1.388 . S
C455 H442 0.930 . S
C455 C454 1.388 . S
C455 C456 1.390 . S
C456 C455 1.390 . S
C456 C457 1.394 . S
C456 C462 1.468 1_455 S
C457 C452 1.399 . S
C457 C456 1.394 . S
C457 C458 1.516 1_545 S
C458 C457 1.516 1_565 S
C458 C459 1.502 . S
C458 C460 1.561 1_465 S
C458 C461 1.526 1_455 S
C459 H443 0.959 . S
C459 H444 0.959 . S
C459 H445 0.961 . S
C459 C458 1.502 . S
C460 H446 0.960 1_655 S
C460 H447 0.960 1_545 S
C460 H448 0.959 . S
C460 C458 1.561 1_645 S
C461 C458 1.526 1_655 S
C461 C462 1.393 1_565 S
C461 C466 1.390 . S
C462 C456 1.468 1_655 S
C462 C461 1.393 1_545 S
C462 C463 1.398 1_545 S
C463 H449 0.911 1_565 S
C463 C462 1.398 1_565 S
C463 C464 1.406 . S
C464 H450 0.931 . S
C464 C463 1.406 . S
C464 C465 1.389 . S
C465 C464 1.389 . S
C465 C466 1.387 . S
C466 H451 0.930 . S
C466 C461 1.390 . S
C466 C465 1.387 . S
H467 C479 0.930 . S
H468 C481 0.930 . S
H469 C482 0.930 . S
H470 C486 0.959 . S
H471 C486 0.959 . S
H472 C486 0.961 . S
H473 C487 0.960 . S
H474 C487 0.961 . S
H475 C487 0.959 . S
H476 C490 0.929 . S
H477 C491 0.931 . S
H478 C493 0.930 . S
C479 H467 0.930 . S
C479 C480 1.399 . S
C479 C484 1.399 . S
C480 C479 1.399 . S
C480 C481 1.376 . S
C481 H468 0.930 . S
C481 C480 1.376 . S
C481 C482 1.388 . S
C482 H469 0.930 . S
C482 C481 1.388 . S
C482 C483 1.390 . S
C483 C482 1.390 . S
C483 C484 1.394 . S
C483 C489 1.465 1_655 S
C484 C479 1.399 . S
C484 C483 1.394 . S
C484 C485 1.516 . S
C485 C484 1.516 . S
C485 C486 1.502 1_655 S
C485 C487 1.561 . S
C485 C488 1.526 1_655 S
C486 H470 0.959 . S
C486 H471 0.959 . S
C486 H472 0.961 . S
C486 C485 1.502 1_455 S
C487 H473 0.960 . S
C487 H474 0.961 . S
C487 H475 0.959 . S
C487 C485 1.561 . S
C488 C485 1.526 1_455 S
C488 C489 1.396 . S
C488 C493 1.390 . S
C489 C483 1.465 1_455 S
C489 C488 1.396 . S
C489 C490 1.399 . S
C490 H476 0.929 . S
C490 C489 1.399 . S
C490 C491 1.385 . S
C491 H477 0.931 . S
C491 C490 1.385 . S
C491 C492 1.389 . S
C492 C491 1.389 . S
C492 C493 1.387 . S
C493 H478 0.930 . S
C493 C488 1.390 . S
C493 C492 1.387 . S
H494 C506 0.930 . S
H495 C508 0.930 . S
H496 C509 0.930 . S
H497 C513 0.959 . S
H498 C513 0.959 . S
H499 C513 0.961 . S
H500 C514 0.960 . S
H501 C514 0.961 . S
H502 C514 0.959 . S
H503 C517 0.929 . S
H504 C518 0.931 . S
H505 C520 0.930 . S
C506 H494 0.930 . S
C506 C507 1.399 . S
C506 C511 1.399 . S
C507 C506 1.399 . S
C507 C508 1.376 . S
C508 H495 0.930 . S
C508 C507 1.376 . S
C508 C509 1.388 . S
C509 H496 0.930 . S
C509 C508 1.388 . S
C509 C510 1.390 . S
C510 C509 1.390 . S
C510 C511 1.394 . S
C510 C516 1.465 . S
C511 C506 1.399 . S
C511 C510 1.394 . S
C511 C512 1.516 . S
C512 C511 1.516 . S
C512 C513 1.502 . S
C512 C514 1.561 . S
C512 C515 1.526 . S
C513 H497 0.959 . S
C513 H498 0.959 . S
C513 H499 0.961 . S
C513 C512 1.502 . S
C514 H500 0.960 . S
C514 H501 0.961 . S
C514 H502 0.959 . S
C514 C512 1.561 . S
C515 C512 1.526 . S
C515 C516 1.396 . S
C515 C520 1.390 . S
C516 C510 1.465 . S
C516 C515 1.396 . S
C516 C517 1.399 . S
C517 H503 0.929 . S
C517 C516 1.399 . S
C517 C518 1.385 . S
C518 H504 0.931 . S
C518 C517 1.385 . S
C518 C519 1.389 . S
C519 C518 1.389 . S
C519 C520 1.387 . S
C520 H505 0.930 . S
C520 C515 1.390 . S
C520 C519 1.387 . S
H521 C533 0.930 . S
H522 C535 0.930 . S
H523 C536 0.930 . S
H524 C540 0.959 . S
H525 C540 0.959 1_556 S
H526 C540 0.961 1_556 S
H527 C541 0.960 1_565 S
H528 C541 0.961 . S
H529 C541 0.959 1_565 S
H530 C544 0.929 . S
H531 C545 0.931 . S
H532 C547 0.930 . S
C533 H521 0.930 . S
C533 C534 1.399 . S
C533 C538 1.399 . S
C534 C533 1.399 . S
C534 C535 1.376 . S
C535 H522 0.930 . S
C535 C534 1.376 . S
C535 C536 1.388 . S
C536 H523 0.930 . S
C536 C535 1.388 . S
C536 C537 1.390 . S
C537 C536 1.390 . S
C537 C538 1.394 . S
C537 C543 1.465 1_565 S
C538 C533 1.399 . S
C538 C537 1.394 . S
C538 C539 1.516 1_565 S
C539 C538 1.516 1_545 S
C539 C540 1.502 . S
C539 C541 1.561 1_554 S
C539 C542 1.526 . S
C540 H524 0.959 . S
C540 H525 0.959 1_554 S
C540 H526 0.961 1_554 S
C540 C539 1.502 . S
C541 H527 0.960 1_545 S
C541 H528 0.961 . S
C541 H529 0.959 1_545 S
C541 C539 1.561 1_556 S
C542 C539 1.526 . S
C542 C543 1.396 . S
C542 C547 1.390 . S
C543 C537 1.465 1_545 S
C543 C542 1.396 . S
C543 C544 1.399 . S
C544 H530 0.929 . S
C544 C543 1.399 . S
C544 C545 1.385 . S
C545 H531 0.931 . S
C545 C544 1.385 . S
C545 C546 1.389 . S
C546 C545 1.389 . S
C546 C547 1.387 . S
C547 H532 0.930 . S
C547 C542 1.390 . S
C547 C546 1.387 . S
H548 C560 0.930 . S
H549 C562 0.930 . S
H550 C563 0.930 . S
H551 C567 0.959 . S
H552 C567 0.959 . S
H553 C567 0.961 1_455 S
H554 C568 0.960 . S
H555 C568 0.961 1_655 S
H556 C568 0.959 . S
H557 C571 0.929 . S
H558 C572 0.931 . S
H559 C574 0.930 . S
C560 H548 0.930 . S
C560 C561 1.399 . S
C560 C565 1.399 . S
C561 C560 1.399 . S
C561 C562 1.376 1_554 S
C562 H549 0.930 . S
C562 C561 1.376 1_556 S
C562 C563 1.388 . S
C563 H550 0.930 . S
C563 C562 1.388 . S
C563 C564 1.390 . S
C564 C563 1.390 . S
C564 C565 1.394 1_556 S
C564 C570 1.465 1_455 S
C565 C560 1.399 . S
C565 C564 1.394 1_554 S
C565 C566 1.521 . S
C566 C565 1.521 . S
C566 C567 1.499 1_455 S
C566 C568 1.564 . S
C566 C569 1.521 1_455 S
C567 H551 0.959 . S
C567 H552 0.959 . S
C567 H553 0.961 1_655 S
C567 C566 1.499 1_655 S
C568 H554 0.960 . S
C568 H555 0.961 1_455 S
C568 H556 0.959 . S
C568 C566 1.564 . S
C569 C566 1.521 1_655 S
C569 C570 1.396 1_554 S
C569 C574 1.390 . S
C570 C564 1.465 1_655 S
C570 C569 1.396 1_556 S
C570 C571 1.399 . S
C571 H557 0.929 . S
C571 C570 1.399 . S
C571 C572 1.385 . S
C572 H558 0.931 . S
C572 C571 1.385 . S
C572 C573 1.389 1_556 S
C573 C572 1.389 1_554 S
C573 C574 1.387 . S
C574 H559 0.930 . S
C574 C569 1.390 . S
C574 C573 1.387 . S
H575 C587 0.930 . S
H576 C589 0.930 . S
H577 C590 0.930 . S
H578 C594 0.959 . S
H579 C594 0.959 . S
H580 C594 0.961 . S
H581 C595 0.960 . S
H582 C595 0.961 . S
H583 C595 0.959 . S
H584 C598 0.929 . S
H585 C599 0.931 . S
H586 C601 0.930 . S
C587 H575 0.930 . S
C587 C588 1.399 . S
C587 C592 1.399 . S
C588 C587 1.399 . S
C588 C589 1.376 . S
C589 H576 0.930 . S
C589 C588 1.376 . S
C589 C590 1.388 . S
C590 H577 0.930 . S
C590 C589 1.388 . S
C590 C591 1.390 . S
C591 C590 1.390 . S
C591 C592 1.394 . S
C591 C597 1.465 . S
C592 C587 1.399 . S
C592 C591 1.394 . S
C592 C593 1.516 . S
C593 C592 1.516 . S
C593 C594 1.502 . S
C593 C595 1.561 . S
C593 C596 1.526 . S
C594 H578 0.959 . S
C594 H579 0.959 . S
C594 H580 0.961 . S
C594 C593 1.502 . S
C595 H581 0.960 . S
C595 H582 0.961 . S
C595 H583 0.959 . S
C595 C593 1.561 . S
C596 C593 1.526 . S
C596 C597 1.396 . S
C596 C601 1.390 . S
C597 C591 1.465 . S
C597 C596 1.396 . S
C597 C598 1.399 . S
C598 H584 0.929 . S
C598 C597 1.399 . S
C598 C599 1.385 . S
C599 H585 0.931 . S
C599 C598 1.385 . S
C599 C600 1.389 . S
C600 C599 1.389 . S
C600 C601 1.387 . S
C601 H586 0.930 . S
C601 C596 1.390 . S
C601 C600 1.387 . S
H602 C614 0.930 . S
H603 C616 0.930 . S
H604 C617 0.942 . S
H605 C621 0.959 . S
H606 C621 0.959 . S
H607 C621 0.961 . S
H608 C622 0.950 1_545 S
H609 C622 0.961 . S
H610 C622 0.959 . S
H611 C625 0.929 . S
H612 C626 0.931 . S
H613 C628 0.930 . S
C614 H602 0.930 . S
C614 C615 1.399 . S
C614 C619 1.399 . S
C615 C614 1.399 . S
C615 C616 1.376 . S
C616 H603 0.930 . S
C616 C615 1.376 . S
C616 C617 1.376 1_545 S
C617 H604 0.942 . S
C617 C616 1.376 1_565 S
C617 C618 1.390 . S
C618 C617 1.390 . S
C618 C619 1.375 1_565 S
C618 C624 1.482 . S
C619 C614 1.399 . S
C619 C618 1.375 1_545 S
C619 C620 1.516 . S
C620 C619 1.516 . S
C620 C621 1.502 . S
C620 C622 1.561 1_545 S
C620 C623 1.526 1_545 S
C621 H605 0.959 . S
C621 H606 0.959 . S
C621 H607 0.961 . S
C621 C620 1.502 . S
C622 H608 0.950 1_565 S
C622 H609 0.961 . S
C622 H610 0.959 . S
C622 C620 1.561 1_565 S
C623 C620 1.526 1_565 S
C623 C624 1.396 . S
C623 C628 1.390 . S
C624 C618 1.482 . S
C624 C623 1.396 . S
C624 C625 1.399 . S
C625 H611 0.929 . S
C625 C624 1.399 . S
C625 C626 1.385 . S
C626 H612 0.931 . S
C626 C625 1.385 . S
C626 C627 1.389 . S
C627 C626 1.389 . S
C627 C628 1.387 . S
C628 H613 0.930 . S
C628 C623 1.390 . S
C628 C627 1.387 . S
H629 C641 0.930 . S
H630 C643 0.930 . S
H631 C644 0.930 1_655 S
H632 C648 0.959 . S
H633 C648 0.959 . S
H634 C648 0.961 . S
H635 C649 0.960 . S
H636 C649 0.961 1_565 S
H637 C649 0.959 . S
H638 C652 0.929 . S
H639 C653 0.931 . S
H640 C655 0.930 . S
C641 H629 0.930 . S
C641 C642 1.399 . S
C641 C646 1.399 . S
C642 C641 1.399 . S
C642 C643 1.376 . S
C643 H630 0.930 . S
C643 C642 1.376 . S
C643 C644 1.388 . S
C644 H631 0.930 1_455 S
C644 C643 1.388 . S
C644 C645 1.391 . S
C645 C644 1.391 . S
C645 C646 1.397 . S
C645 C651 1.461 1_445 S
C646 C641 1.399 . S
C646 C645 1.397 . S
C646 C647 1.516 1_545 S
C647 C646 1.516 1_565 S
C647 C648 1.502 . S
C647 C649 1.561 1_465 S
C647 C650 1.526 1_455 S
C648 H632 0.959 . S
C648 H633 0.959 . S
C648 H634 0.961 . S
C648 C647 1.502 . S
C649 H635 0.960 . S
C649 H636 0.961 1_545 S
C649 H637 0.959 . S
C649 C647 1.561 1_645 S
C650 C647 1.526 1_655 S
C650 C651 1.396 . S
C650 C655 1.390 . S
C651 C645 1.461 1_665 S
C651 C650 1.396 . S
C651 C652 1.399 . S
C652 H638 0.929 . S
C652 C651 1.399 . S
C652 C653 1.385 . S
C653 H639 0.931 . S
C653 C652 1.385 . S
C653 C654 1.389 . S
C654 C653 1.389 . S
C654 C655 1.387 . S
C655 H640 0.930 . S
C655 C650 1.390 . S
C655 C654 1.387 . S
H656 C668 0.930 . S
H657 C670 0.930 . S
H658 C671 0.930 . S
H659 C675 0.959 . S
H660 C675 0.959 . S
H661 C675 0.961 . S
H662 C676 0.960 . S
H663 C676 0.961 . S
H664 C676 0.959 . S
H665 C679 0.929 . S
H666 C680 0.931 . S
H667 C682 0.930 . S
C668 H656 0.930 . S
C668 C669 1.399 . S
C668 C673 1.399 . S
C669 C668 1.399 . S
C669 C670 1.376 . S
C670 H657 0.930 . S
C670 C669 1.376 . S
C670 C671 1.388 . S
C671 H658 0.930 . S
C671 C670 1.388 . S
C671 C672 1.390 . S
C672 C671 1.390 . S
C672 C673 1.394 . S
C672 C678 1.465 . S
C673 C668 1.399 . S
C673 C672 1.394 . S
C673 C674 1.516 . S
C674 C673 1.516 . S
C674 C675 1.502 . S
C674 C676 1.561 . S
C674 C677 1.526 . S
C675 H659 0.959 . S
C675 H660 0.959 . S
C675 H661 0.961 . S
C675 C674 1.502 . S
C676 H662 0.960 . S
C676 H663 0.961 . S
C676 H664 0.959 . S
C676 C674 1.561 . S
C677 C674 1.526 . S
C677 C678 1.396 . S
C677 C682 1.390 . S
C678 C672 1.465 . S
C678 C677 1.396 . S
C678 C679 1.399 . S
C679 H665 0.929 . S
C679 C678 1.399 . S
C679 C680 1.385 . S
C680 H666 0.931 . S
C680 C679 1.385 . S
C680 C681 1.389 . S
C681 C680 1.389 . S
C681 C682 1.387 . S
C682 H667 0.930 . S
C682 C677 1.390 . S
C682 C681 1.387 . S
H683 C695 0.930 . S
H684 C697 0.930 . S
H685 C698 0.930 . S
H686 C702 0.959 . S
H687 C702 0.959 . S
H688 C702 0.961 . S
H689 C703 0.960 . S
H690 C703 0.961 . S
H691 C703 0.959 . S
H692 C706 0.929 . S
H693 C707 0.931 . S
H694 C709 0.930 . S
C695 H683 0.930 . S
C695 C696 1.399 . S
C695 C700 1.399 . S
C696 C695 1.399 . S
C696 C697 1.376 . S
C697 H684 0.930 . S
C697 C696 1.376 . S
C697 C698 1.388 . S
C698 H685 0.930 . S
C698 C697 1.388 . S
C698 C699 1.390 . S
C699 C698 1.390 . S
C699 C700 1.394 . S
C699 C705 1.465 . S
C700 C695 1.399 . S
C700 C699 1.394 . S
C700 C701 1.516 . S
C701 C700 1.516 . S
C701 C702 1.502 . S
C701 C703 1.561 . S
C701 C704 1.526 . S
C702 H686 0.959 . S
C702 H687 0.959 . S
C702 H688 0.961 . S
C702 C701 1.502 . S
C703 H689 0.960 . S
C703 H690 0.961 . S
C703 H691 0.959 . S
C703 C701 1.561 . S
C704 C701 1.526 . S
C704 C705 1.396 . S
C704 C709 1.390 . S
C705 C699 1.465 . S
C705 C704 1.396 . S
C705 C706 1.399 . S
C706 H692 0.929 . S
C706 C705 1.399 . S
C706 C707 1.385 . S
C707 H693 0.931 . S
C707 C706 1.385 . S
C707 C708 1.389 . S
C708 C707 1.389 . S
C708 C709 1.387 . S
C709 H694 0.930 . S
C709 C704 1.390 . S
C709 C708 1.387 . S
H710 C722 0.930 . S
H711 C724 0.930 . S
H712 C725 0.930 . S
H713 C729 0.959 . S
H714 C729 0.959 . S
H715 C729 0.961 . S
H716 C730 0.960 . S
H717 C730 0.961 . S
H718 C730 0.959 . S
H719 C733 0.929 . S
H720 C734 0.931 . S
H721 C736 0.930 . S
C722 H710 0.930 . S
C722 C723 1.399 . S
C722 C727 1.399 . S
C723 C722 1.399 . S
C723 C724 1.376 . S
C724 H711 0.930 . S
C724 C723 1.376 . S
C724 C725 1.388 . S
C725 H712 0.930 . S
C725 C724 1.388 . S
C725 C726 1.390 . S
C726 C725 1.390 . S
C726 C727 1.394 . S
C726 C732 1.465 . S
C727 C722 1.399 . S
C727 C726 1.394 . S
C727 C728 1.516 . S
C728 C727 1.516 . S
C728 C729 1.502 . S
C728 C730 1.561 . S
C728 C731 1.526 1_554 S
C729 H713 0.959 . S
C729 H714 0.959 . S
C729 H715 0.961 . S
C729 C728 1.502 . S
C730 H716 0.960 . S
C730 H717 0.961 . S
C730 H718 0.959 . S
C730 C728 1.561 . S
C731 C728 1.526 1_556 S
C731 C732 1.396 1_556 S
C731 C736 1.390 . S
C732 C726 1.465 . S
C732 C731 1.396 1_554 S
C732 C733 1.399 1_554 S
C733 H719 0.929 . S
C733 C732 1.399 1_556 S
C733 C734 1.385 . S
C734 H720 0.931 . S
C734 C733 1.385 . S
C734 C735 1.389 . S
C735 C734 1.389 . S
C735 C736 1.387 . S
C736 H721 0.930 . S
C736 C731 1.390 . S
C736 C735 1.387 . S
H737 C749 0.930 . S
H738 C751 0.930 . S
H739 C752 0.930 . S
H740 C756 0.959 . S
H741 C756 0.959 . S
H742 C756 0.961 . S
H743 C757 0.960 . S
H744 C757 0.961 . S
H745 C757 0.959 . S
H746 C760 0.929 . S
H747 C761 0.931 . S
H748 C763 0.930 . S
C749 H737 0.930 . S
C749 C750 1.399 . S
C749 C754 1.399 . S
C750 C749 1.399 . S
C750 C751 1.376 . S
C751 H738 0.930 . S
C751 C750 1.376 . S
C751 C752 1.388 . S
C752 H739 0.930 . S
C752 C751 1.388 . S
C752 C753 1.390 . S
C753 C752 1.390 . S
C753 C754 1.394 . S
C753 C759 1.465 . S
C754 C749 1.399 . S
C754 C753 1.394 . S
C754 C755 1.516 . S
C755 C754 1.516 . S
C755 C756 1.502 . S
C755 C757 1.561 . S
C755 C758 1.526 . S
C756 H740 0.959 . S
C756 H741 0.959 . S
C756 H742 0.961 . S
C756 C755 1.502 . S
C757 H743 0.960 . S
C757 H744 0.961 . S
C757 H745 0.959 . S
C757 C755 1.561 . S
C758 C755 1.526 . S
C758 C759 1.396 . S
C758 C763 1.390 . S
C759 C753 1.465 . S
C759 C758 1.396 . S
C759 C760 1.399 . S
C760 H746 0.929 . S
C760 C759 1.399 . S
C760 C761 1.385 . S
C761 H747 0.931 . S
C761 C760 1.385 . S
C761 C762 1.389 . S
C762 C761 1.389 . S
C762 C763 1.387 . S
C763 H748 0.930 . S
C763 C758 1.390 . S
C763 C762 1.387 . S
H764 C776 0.930 . S
H765 C778 0.930 . S
H766 C779 0.930 . S
H767 C783 0.959 . S
H768 C783 0.959 . S
H769 C783 0.961 . S
H770 C784 0.960 . S
H771 C784 0.961 . S
H772 C784 0.959 . S
H773 C787 0.929 . S
H774 C788 0.931 . S
H775 C790 0.930 . S
C776 H764 0.930 . S
C776 C777 1.399 . S
C776 C781 1.399 . S
C777 C776 1.399 . S
C777 C778 1.376 . S
C778 H765 0.930 . S
C778 C777 1.376 . S
C778 C779 1.388 . S
C779 H766 0.930 . S
C779 C778 1.388 . S
C779 C780 1.390 . S
C780 C779 1.390 . S
C780 C781 1.394 . S
C780 C786 1.465 . S
C781 C776 1.399 . S
C781 C780 1.394 . S
C781 C782 1.516 . S
C782 C781 1.516 . S
C782 C783 1.502 . S
C782 C784 1.561 . S
C782 C785 1.526 . S
C783 H767 0.959 . S
C783 H768 0.959 . S
C783 H769 0.961 . S
C783 C782 1.502 . S
C784 H770 0.960 . S
C784 H771 0.961 . S
C784 H772 0.959 . S
C784 C782 1.561 . S
C785 C782 1.526 . S
C785 C786 1.396 . S
C785 C790 1.390 . S
C786 C780 1.465 . S
C786 C785 1.396 . S
C786 C787 1.399 . S
C787 H773 0.929 . S
C787 C786 1.399 . S
C787 C788 1.385 . S
C788 H774 0.931 . S
C788 C787 1.385 . S
C788 C789 1.389 . S
C789 C788 1.389 . S
C789 C790 1.387 . S
C790 H775 0.930 . S
C790 C785 1.390 . S
C790 C789 1.387 . S
H791 C803 0.930 . S
H792 C805 0.930 . S
H793 C806 0.930 . S
H794 C810 0.959 . S
H795 C810 0.959 . S
H796 C810 0.961 . S
H797 C811 0.960 . S
H798 C811 0.961 . S
H799 C811 0.959 . S
H800 C814 0.929 . S
H801 C815 0.931 . S
H802 C817 0.930 . S
C803 H791 0.930 . S
C803 C804 1.399 . S
C803 C808 1.399 . S
C804 C803 1.399 . S
C804 C805 1.376 . S
C805 H792 0.930 . S
C805 C804 1.376 . S
C805 C806 1.388 . S
C806 H793 0.930 . S
C806 C805 1.388 . S
C806 C807 1.390 . S
C807 C806 1.390 . S
C807 C808 1.394 . S
C807 C813 1.465 . S
C808 C803 1.399 . S
C808 C807 1.394 . S
C808 C809 1.516 . S
C809 C808 1.516 . S
C809 C810 1.502 . S
C809 C811 1.561 . S
C809 C812 1.526 1_554 S
C810 H794 0.959 . S
C810 H795 0.959 . S
C810 H796 0.961 . S
C810 C809 1.502 . S
C811 H797 0.960 . S
C811 H798 0.961 . S
C811 H799 0.959 . S
C811 C809 1.561 . S
C812 C809 1.526 1_556 S
C812 C813 1.396 1_556 S
C812 C817 1.390 . S
C813 C807 1.465 . S
C813 C812 1.396 1_554 S
C813 C814 1.399 1_554 S
C814 H800 0.929 . S
C814 C813 1.399 1_556 S
C814 C815 1.385 . S
C815 H801 0.931 . S
C815 C814 1.385 . S
C815 C816 1.389 . S
C816 C815 1.389 . S
C816 C817 1.387 . S
C817 H802 0.930 . S
C817 C812 1.390 . S
C817 C816 1.387 . S
H818 C830 0.930 . S
H819 C832 0.930 . S
H820 C833 0.930 . S
H821 C837 0.959 . S
H822 C837 0.959 . S
H823 C837 0.961 . S
H824 C838 0.960 . S
H825 C838 0.961 . S
H826 C838 0.959 . S
H827 C841 0.929 . S
H828 C842 0.931 . S
H829 C844 0.930 . S
C830 H818 0.930 . S
C830 C831 1.399 . S
C830 C835 1.399 . S
C831 C830 1.399 . S
C831 C832 1.376 . S
C832 H819 0.930 . S
C832 C831 1.376 . S
C832 C833 1.388 . S
C833 H820 0.930 . S
C833 C832 1.388 . S
C833 C834 1.390 . S
C834 C833 1.390 . S
C834 C835 1.394 . S
C834 C840 1.465 . S
C835 C830 1.399 . S
C835 C834 1.394 . S
C835 C836 1.516 . S
C836 C835 1.516 . S
C836 C837 1.502 . S
C836 C838 1.561 . S
C836 C839 1.526 . S
C837 H821 0.959 . S
C837 H822 0.959 . S
C837 H823 0.961 . S
C837 C836 1.502 . S
C838 H824 0.960 . S
C838 H825 0.961 . S
C838 H826 0.959 . S
C838 C836 1.561 . S
C839 C836 1.526 . S
C839 C840 1.396 . S
C839 C844 1.390 . S
C840 C834 1.465 . S
C840 C839 1.396 . S
C840 C841 1.399 . S
C841 H827 0.929 . S
C841 C840 1.399 . S
C841 C842 1.385 . S
C842 H828 0.931 . S
C842 C841 1.385 . S
C842 C843 1.389 . S
C843 C842 1.389 . S
C843 C844 1.387 . S
C844 H829 0.930 . S
C844 C839 1.390 . S
C844 C843 1.387 . S
H845 C857 0.930 . S
H846 C859 0.930 . S
H847 C860 0.930 . S
H848 C864 0.959 . S
H849 C864 0.959 . S
H850 C864 0.961 . S
H851 C865 0.960 . S
H852 C865 0.961 . S
H853 C865 0.959 . S
H854 C868 0.929 . S
H855 C869 0.931 . S
H856 C871 0.930 . S
C857 H845 0.930 . S
C857 C858 1.399 . S
C857 C862 1.399 . S
C858 C857 1.399 . S
C858 C859 1.376 . S
C859 H846 0.930 . S
C859 C858 1.376 . S
C859 C860 1.388 . S
C860 H847 0.930 . S
C860 C859 1.388 . S
C860 C861 1.390 . S
C861 C860 1.390 . S
C861 C862 1.394 . S
C861 C867 1.465 . S
C862 C857 1.399 . S
C862 C861 1.394 . S
C862 C863 1.516 . S
C863 C862 1.516 . S
C863 C864 1.502 . S
C863 C865 1.561 . S
C863 C866 1.526 . S
C864 H848 0.959 . S
C864 H849 0.959 . S
C864 H850 0.961 . S
C864 C863 1.502 . S
C865 H851 0.960 . S
C865 H852 0.961 . S
C865 H853 0.959 . S
C865 C863 1.561 . S
C866 C863 1.526 . S
C866 C867 1.396 . S
C866 C871 1.390 . S
C867 C861 1.465 . S
C867 C866 1.396 . S
C867 C868 1.399 . S
C868 H854 0.929 . S
C868 C867 1.399 . S
C868 C869 1.385 . S
C869 H855 0.931 . S
C869 C868 1.385 . S
C869 C870 1.389 . S
C870 C869 1.389 . S
C870 C871 1.387 . S
C871 H856 0.930 . S
C871 C866 1.390 . S
C871 C870 1.387 . S
H872 C884 0.930 . S
H873 C886 0.930 . S
H874 C887 0.930 . S
H875 C891 0.959 . S
H876 C891 0.959 . S
H877 C891 0.961 1_556 S
H878 C892 0.976 . S
H879 C892 0.961 . S
H880 C892 0.959 . S
H881 C895 0.929 . S
H882 C896 0.931 . S
H883 C898 0.930 . S
C884 H872 0.930 . S
C884 C885 1.399 . S
C884 C889 1.399 . S
C885 C884 1.399 . S
C885 C886 1.376 . S
C886 H873 0.930 . S
C886 C885 1.376 . S
C886 C887 1.388 . S
C887 H874 0.930 . S
C887 C886 1.388 . S
C887 C888 1.390 1_556 S
C888 C887 1.390 1_554 S
C888 C889 1.394 1_554 S
C888 C894 1.465 . S
C889 C884 1.399 . S
C889 C888 1.394 1_556 S
C889 C890 1.516 1_556 S
C890 C889 1.516 1_554 S
C890 C891 1.502 . S
C890 C892 1.561 . S
C890 C893 1.526 . S
C891 H875 0.959 . S
C891 H876 0.959 . S
C891 H877 0.961 1_554 S
C891 C890 1.502 . S
C892 H878 0.976 . S
C892 H879 0.961 . S
C892 H880 0.959 . S
C892 C890 1.561 . S
C893 C890 1.526 . S
C893 C894 1.396 . S
C893 C898 1.390 . S
C894 C888 1.465 . S
C894 C893 1.396 . S
C894 C895 1.399 . S
C895 H881 0.929 . S
C895 C894 1.399 . S
C895 C896 1.385 . S
C896 H882 0.931 . S
C896 C895 1.385 . S
C896 C897 1.389 . S
C897 C896 1.389 . S
C897 C898 1.387 . S
C898 H883 0.930 . S
C898 C893 1.390 . S
C898 C897 1.387 . S
H899 C911 0.930 . S
H900 C913 0.930 . S
H901 C914 0.930 . S
H902 C918 0.959 . S
H903 C918 0.959 . S
H904 C918 0.961 . S
H905 C919 0.960 . S
H906 C919 0.961 . S
H907 C919 0.959 . S
H908 C922 0.929 . S
H909 C923 0.931 . S
H910 C925 0.930 . S
C911 H899 0.930 . S
C911 C912 1.399 . S
C911 C916 1.399 . S
C912 C911 1.399 . S
C912 C913 1.376 . S
C913 H900 0.930 . S
C913 C912 1.376 . S
C913 C914 1.388 . S
C914 H901 0.930 . S
C914 C913 1.388 . S
C914 C915 1.390 . S
C915 C914 1.390 . S
C915 C916 1.394 . S
C915 C921 1.465 . S
C916 C911 1.399 . S
C916 C915 1.394 . S
C916 C917 1.516 . S
C917 C916 1.516 . S
C917 C918 1.502 . S
C917 C919 1.561 . S
C917 C920 1.526 . S
C918 H902 0.959 . S
C918 H903 0.959 . S
C918 H904 0.961 . S
C918 C917 1.502 . S
C919 H905 0.960 . S
C919 H906 0.961 . S
C919 H907 0.959 . S
C919 C917 1.561 . S
C920 C917 1.526 . S
C920 C921 1.396 . S
C920 C925 1.390 . S
C921 C915 1.465 . S
C921 C920 1.396 . S
C921 C922 1.399 . S
C922 H908 0.929 . S
C922 C921 1.399 . S
C922 C923 1.385 . S
C923 H909 0.931 . S
C923 C922 1.385 . S
C923 C924 1.389 . S
C924 C923 1.389 . S
C924 C925 1.387 . S
C925 H910 0.930 . S
C925 C920 1.390 . S
C925 C924 1.387 . S
H926 C938 0.930 . S
H927 C940 0.930 . S
H928 C941 0.930 . S
H929 C945 0.959 . S
H930 C945 0.959 . S
H931 C945 0.961 . S
H932 C946 0.960 . S
H933 C946 0.961 . S
H934 C946 0.959 . S
H935 C949 0.929 . S
H936 C950 0.931 . S
H937 C952 0.930 . S
C938 H926 0.930 . S
C938 C939 1.399 . S
C938 C943 1.399 . S
C939 C938 1.399 . S
C939 C940 1.376 . S
C940 H927 0.930 . S
C940 C939 1.376 . S
C940 C941 1.388 . S
C941 H928 0.930 . S
C941 C940 1.388 . S
C941 C942 1.390 . S
C942 C941 1.390 . S
C942 C943 1.394 . S
C942 C948 1.465 . S
C943 C938 1.399 . S
C943 C942 1.394 . S
C943 C944 1.516 . S
C944 C943 1.516 . S
C944 C945 1.502 . S
C944 C946 1.561 . S
C944 C947 1.526 . S
C945 H929 0.959 . S
C945 H930 0.959 . S
C945 H931 0.961 . S
C945 C944 1.502 . S
C946 H932 0.960 . S
C946 H933 0.961 . S
C946 H934 0.959 . S
C946 C944 1.561 . S
C947 C944 1.526 . S
C947 C948 1.396 . S
C947 C952 1.390 . S
C948 C942 1.465 . S
C948 C947 1.396 . S
C948 C949 1.399 . S
C949 H935 0.929 . S
C949 C948 1.399 . S
C949 C950 1.385 . S
C950 H936 0.931 . S
C950 C949 1.385 . S
C950 C951 1.389 . S
C951 C950 1.389 . S
C951 C952 1.387 . S
C952 H937 0.930 . S
C952 C947 1.390 . S
C952 C951 1.387 . S
H953 C965 0.930 . S
H954 C967 0.930 . S
H955 C968 0.930 . S
H956 C972 0.959 . S
H957 C972 0.959 . S
H958 C972 0.961 . S
H959 C973 0.960 . S
H960 C973 0.961 . S
H961 C973 0.959 . S
H962 C976 0.929 . S
H963 C977 0.931 . S
H964 C979 0.930 . S
C965 H953 0.930 . S
C965 C966 1.399 . S
C965 C970 1.399 . S
C966 C965 1.399 . S
C966 C967 1.376 . S
C967 H954 0.930 . S
C967 C966 1.376 . S
C967 C968 1.388 . S
C968 H955 0.930 . S
C968 C967 1.388 . S
C968 C969 1.390 . S
C969 C968 1.390 . S
C969 C970 1.394 . S
C969 C975 1.465 . S
C970 C965 1.399 . S
C970 C969 1.394 . S
C970 C971 1.516 . S
C971 C970 1.516 . S
C971 C972 1.502 . S
C971 C973 1.561 . S
C971 C974 1.526 . S
C972 H956 0.959 . S
C972 H957 0.959 . S
C972 H958 0.961 . S
C972 C971 1.502 . S
C973 H959 0.960 . S
C973 H960 0.961 . S
C973 H961 0.959 . S
C973 C971 1.561 . S
C974 C971 1.526 . S
C974 C975 1.396 . S
C974 C979 1.390 . S
C975 C969 1.465 . S
C975 C974 1.396 . S
C975 C976 1.399 . S
C976 H962 0.929 . S
C976 C975 1.399 . S
C976 C977 1.385 . S
C977 H963 0.931 . S
C977 C976 1.385 . S
C977 C978 1.389 . S
C978 C977 1.389 . S
C978 C979 1.387 . S
C979 H964 0.930 . S
C979 C974 1.390 . S
C979 C978 1.387 . S
H980 C992 0.930 . S
H981 C994 0.930 . S
H982 C995 0.930 . S
H983 C999 0.959 . S
H984 C999 0.959 . S
H985 C999 0.961 . S
H986 C1000 0.960 . S
H987 C1000 0.961 . S
H988 C1000 0.959 . S
H989 C1003 0.929 . S
H990 C1004 0.931 . S
H991 C1006 0.930 . S
C992 H980 0.930 . S
C992 C993 1.399 . S
C992 C997 1.399 . S
C993 C992 1.399 . S
C993 C994 1.376 . S
C994 H981 0.930 . S
C994 C993 1.376 . S
C994 C995 1.388 . S
C995 H982 0.930 . S
C995 C994 1.388 . S
C995 C996 1.390 . S
C996 C995 1.390 . S
C996 C997 1.394 . S
C996 C1002 1.465 . S
C997 C992 1.399 . S
C997 C996 1.394 . S
C997 C998 1.516 . S
C998 C997 1.516 . S
C998 C999 1.502 . S
C998 C1000 1.561 . S
C998 C1001 1.526 . S
C999 H983 0.959 . S
C999 H984 0.959 . S
C999 H985 0.961 . S
C999 C998 1.502 . S
C1000 H986 0.960 . S
C1000 H987 0.961 . S
C1000 H988 0.959 . S
C1000 C998 1.561 . S
C1001 C998 1.526 . S
C1001 C1002 1.396 . S
C1001 C1006 1.390 . S
C1002 C996 1.465 . S
C1002 C1001 1.396 . S
C1002 C1003 1.399 . S
C1003 H989 0.929 . S
C1003 C1002 1.399 . S
C1003 C1004 1.385 . S
C1004 H990 0.931 . S
C1004 C1003 1.385 . S
C1004 C1005 1.389 . S
C1005 C1004 1.389 . S
C1005 C1006 1.387 . S
C1006 H991 0.930 . S
C1006 C1001 1.390 . S
C1006 C1005 1.387 . S
H1007 C1019 0.930 . S
H1008 C1021 0.930 . S
H1009 C1022 0.930 . S
H1010 C1026 0.959 . S
H1011 C1026 0.959 . S
H1012 C1026 0.961 . S
H1013 C1027 0.960 . S
H1014 C1027 0.961 . S
H1015 C1027 0.959 . S
H1016 C1030 0.929 . S
H1017 C1031 0.931 . S
H1018 C1033 0.930 . S
C1019 H1007 0.930 . S
C1019 C1020 1.399 . S
C1019 C1024 1.399 . S
C1020 C1019 1.399 . S
C1020 C1021 1.376 . S
C1021 H1008 0.930 . S
C1021 C1020 1.376 . S
C1021 C1022 1.388 . S
C1022 H1009 0.930 . S
C1022 C1021 1.388 . S
C1022 C1023 1.390 . S
C1023 C1022 1.390 . S
C1023 C1024 1.394 . S
C1023 C1029 1.465 . S
C1024 C1019 1.399 . S
C1024 C1023 1.394 . S
C1024 C1025 1.516 . S
C1025 C1024 1.516 . S
C1025 C1026 1.502 . S
C1025 C1027 1.561 . S
C1025 C1028 1.526 . S
C1026 H1010 0.959 . S
C1026 H1011 0.959 . S
C1026 H1012 0.961 . S
C1026 C1025 1.502 . S
C1027 H1013 0.960 . S
C1027 H1014 0.961 . S
C1027 H1015 0.959 . S
C1027 C1025 1.561 . S
C1028 C1025 1.526 . S
C1028 C1029 1.396 . S
C1028 C1033 1.390 . S
C1029 C1023 1.465 . S
C1029 C1028 1.396 . S
C1029 C1030 1.399 . S
C1030 H1016 0.929 . S
C1030 C1029 1.399 . S
C1030 C1031 1.385 . S
C1031 H1017 0.931 . S
C1031 C1030 1.385 . S
C1031 C1032 1.389 . S
C1032 C1031 1.389 . S
C1032 C1033 1.387 . S
C1033 H1018 0.930 . S
C1033 C1028 1.390 . S
C1033 C1032 1.387 . S
H1034 C1046 0.930 . S
H1035 C1048 0.930 . S
H1036 C1049 0.930 . S
H1037 C1053 0.959 . S
H1038 C1053 0.959 . S
H1039 C1053 0.961 . S
H1040 C1054 0.960 . S
H1041 C1054 0.961 . S
H1042 C1054 0.959 . S
H1043 C1057 0.929 . S
H1044 C1058 0.931 . S
H1045 C1060 0.930 . S
C1046 H1034 0.930 . S
C1046 C1047 1.399 . S
C1046 C1051 1.399 . S
C1047 C1046 1.399 . S
C1047 C1048 1.376 . S
C1048 H1035 0.930 . S
C1048 C1047 1.376 . S
C1048 C1049 1.388 . S
C1049 H1036 0.930 . S
C1049 C1048 1.388 . S
C1049 C1050 1.390 . S
C1050 C1049 1.390 . S
C1050 C1051 1.394 . S
C1050 C1056 1.465 . S
C1051 C1046 1.399 . S
C1051 C1050 1.394 . S
C1051 C1052 1.516 . S
C1052 C1051 1.516 . S
C1052 C1053 1.502 . S
C1052 C1054 1.561 . S
C1052 C1055 1.526 . S
C1053 H1037 0.959 . S
C1053 H1038 0.959 . S
C1053 H1039 0.961 . S
C1053 C1052 1.502 . S
C1054 H1040 0.960 . S
C1054 H1041 0.961 . S
C1054 H1042 0.959 . S
C1054 C1052 1.561 . S
C1055 C1052 1.526 . S
C1055 C1056 1.396 . S
C1055 C1060 1.390 . S
C1056 C1050 1.465 . S
C1056 C1055 1.396 . S
C1056 C1057 1.399 . S
C1057 H1043 0.929 . S
C1057 C1056 1.399 . S
C1057 C1058 1.385 . S
C1058 H1044 0.931 . S
C1058 C1057 1.385 . S
C1058 C1059 1.389 . S
C1059 C1058 1.389 . S
C1059 C1060 1.387 . S
C1060 H1045 0.930 . S
C1060 C1055 1.390 . S
C1060 C1059 1.387 . S
H1061 C1073 0.930 . S
H1062 C1075 0.930 . S
H1063 C1076 0.930 . S
H1064 C1080 0.959 . S
H1065 C1080 0.959 . S
H1066 C1080 0.961 . S
H1067 C1081 0.960 . S
H1068 C1081 0.961 . S
H1069 C1081 0.959 . S
H1070 C1084 0.929 . S
H1071 C1085 0.931 . S
H1072 C1087 0.930 . S
C1073 H1061 0.930 . S
C1073 C1074 1.399 . S
C1073 C1078 1.399 . S
C1074 C1073 1.399 . S
C1074 C1075 1.376 . S
C1075 H1062 0.930 . S
C1075 C1074 1.376 . S
C1075 C1076 1.388 . S
C1076 H1063 0.930 . S
C1076 C1075 1.388 . S
C1076 C1077 1.390 . S
C1077 C1076 1.390 . S
C1077 C1078 1.394 . S
C1077 C1083 1.465 . S
C1078 C1073 1.399 . S
C1078 C1077 1.394 . S
C1078 C1079 1.516 . S
C1079 C1078 1.516 . S
C1079 C1080 1.502 . S
C1079 C1081 1.561 . S
C1079 C1082 1.526 1_554 S
C1080 H1064 0.959 . S
C1080 H1065 0.959 . S
C1080 H1066 0.961 . S
C1080 C1079 1.502 . S
C1081 H1067 0.960 . S
C1081 H1068 0.961 . S
C1081 H1069 0.959 . S
C1081 C1079 1.561 . S
C1082 C1079 1.526 1_556 S
C1082 C1083 1.396 1_556 S
C1082 C1087 1.390 . S
C1083 C1077 1.465 . S
C1083 C1082 1.396 1_554 S
C1083 C1084 1.399 1_554 S
C1084 H1070 0.929 . S
C1084 C1083 1.399 1_556 S
C1084 C1085 1.385 . S
C1085 H1071 0.931 . S
C1085 C1084 1.385 . S
C1085 C1086 1.389 . S
C1086 C1085 1.389 . S
C1086 C1087 1.387 . S
C1087 H1072 0.930 . S
C1087 C1082 1.390 . S
C1087 C1086 1.387 . S
C237 C92 1.496 . S
C249 C8 1.530 . S
C264 C106 1.533 . S
C276 C22 1.495 . S
C291 C36 1.518 . S
C303 C64 1.515 . S
C318 C50 1.494 . S
C330 C78 1.535 . S
C345 C120 1.531 . S
C357 C204 1.502 . S
C372 C218 1.529 . S
C384 C134 1.498 . S
C399 C148 1.501 . S
C411 C176 1.525 . S
C426 C162 1.505 . S
C438 C190 1.525 . S
C453 C9 1.375 . S
C465 C149 1.423 . S
C480 C23 1.389 . S
C492 C163 1.407 . S
C507 C37 1.432 . S
C519 C121 1.392 . S
C534 C51 1.442 . S
C546 C135 1.376 . S
C561 C65 1.426 . S
C573 C205 1.399 . S
C588 C219 1.373 . S
C600 C79 1.425 . S
C615 C93 1.436 . S
C627 C177 1.386 . S
C642 C191 1.433 . S
C654 C107 1.390 . S
C669 C189 0.371 . S
C681 C7 0.473 . S
C696 C21 0.369 . S
C708 C203 0.472 . S
C723 C217 0.367 . S
C735 C35 0.471 . S
C750 C175 0.490 . S
C762 C49 0.486 . S
C777 C161 0.378 . S
C789 C63 0.478 . S
C804 C77 0.379 . S
C816 C119 0.478 . S
C831 C91 0.331 . S
C843 C133 0.347 . S
C858 C105 0.376 . S
C870 C147 0.477 . S
C885 C185 1.458 . S
C897 C3 1.492 . S
C912 C17 1.500 . S
C924 C199 1.503 . S
C939 C31 1.504 . S
C951 C213 1.470 . S
C966 C171 1.501 . S
C978 C45 1.466 . S
C993 C157 1.501 . S
C1005 C59 1.502 . S
C1020 C115 1.495 . S
C1032 C73 1.461 . S
C1047 C87 1.502 . S
C1059 C129 1.467 . S
C1074 C143 1.462 . S
C1086 C101 1.497 . S
