# Generated by pormake.
# Topology umr, (4)-cn, num edge types: 1
# Building blocks:
#     Node 0, Type 0, BuildingBlock: CEKHIL_clean_sbu_0, # of connection points: 4
#     Node 1, Type 0, BuildingBlock: CEKHIL_clean_sbu_0, # of connection points: 4
#     Node 2, Type 0, BuildingBlock: CEKHIL_clean_sbu_0, # of connection points: 4
#     Node 3, Type 0, BuildingBlock: CEKHIL_clean_sbu_0, # of connection points: 4
#     Node 4, Type 0, BuildingBlock: CEKHIL_clean_sbu_0, # of connection points: 4
#     Node 5, Type 0, BuildingBlock: CEKHIL_clean_sbu_0, # of connection points: 4
#     Node 6, Type 0, BuildingBlock: CEKHIL_clean_sbu_0, # of connection points: 4
#     Node 7, Type 0, BuildingBlock: CEKHIL_clean_sbu_0, # of connection points: 4
#     Node 8, Type 0, BuildingBlock: CEKHIL_clean_sbu_0, # of connection points: 4
#     Node 9, Type 0, BuildingBlock: CEKHIL_clean_sbu_0, # of connection points: 4
#     Node 10, Type 0, BuildingBlock: CEKHIL_clean_sbu_0, # of connection points: 4
#     Node 11, Type 0, BuildingBlock: CEKHIL_clean_sbu_0, # of connection points: 4
#     Node 12, Type 0, BuildingBlock: CEKHIL_clean_sbu_0, # of connection points: 4
#     Node 13, Type 0, BuildingBlock: CEKHIL_clean_sbu_0, # of connection points: 4
#     Node 14, Type 0, BuildingBlock: CEKHIL_clean_sbu_0, # of connection points: 4
#     Node 15, Type 0, BuildingBlock: CEKHIL_clean_sbu_0, # of connection points: 4
#     Node 16, Type 0, BuildingBlock: CEKHIL_clean_sbu_0, # of connection points: 4
#     Node 17, Type 0, BuildingBlock: CEKHIL_clean_sbu_0, # of connection points: 4
#     Node 18, Type 0, BuildingBlock: CEKHIL_clean_sbu_0, # of connection points: 4
#     Node 19, Type 0, BuildingBlock: CEKHIL_clean_sbu_0, # of connection points: 4
#     Node 20, Type 0, BuildingBlock: CEKHIL_clean_sbu_0, # of connection points: 4
#     Node 21, Type 0, BuildingBlock: CEKHIL_clean_sbu_0, # of connection points: 4
#     Node 22, Type 0, BuildingBlock: CEKHIL_clean_sbu_0, # of connection points: 4
#     Node 23, Type 0, BuildingBlock: CEKHIL_clean_sbu_0, # of connection points: 4
#     Node 24, Type 0, BuildingBlock: CEKHIL_clean_sbu_0, # of connection points: 4
#     Node 25, Type 0, BuildingBlock: CEKHIL_clean_sbu_0, # of connection points: 4
#     Node 26, Type 0, BuildingBlock: CEKHIL_clean_sbu_0, # of connection points: 4
#     Node 27, Type 0, BuildingBlock: CEKHIL_clean_sbu_0, # of connection points: 4
#     Node 28, Type 0, BuildingBlock: CEKHIL_clean_sbu_0, # of connection points: 4
#     Node 29, Type 0, BuildingBlock: CEKHIL_clean_sbu_0, # of connection points: 4
#     Node 30, Type 0, BuildingBlock: CEKHIL_clean_sbu_0, # of connection points: 4
#     Node 31, Type 0, BuildingBlock: CEKHIL_clean_sbu_0, # of connection points: 4
#     Edge 32, Type (0, 0), BuildingBlock: XIVTED_clean_linker_0, # of connection points: 2
#     Edge 33, Type (0, 0), BuildingBlock: XIVTED_clean_linker_0, # of connection points: 2
#     Edge 34, Type (0, 0), BuildingBlock: XIVTED_clean_linker_0, # of connection points: 2
#     Edge 35, Type (0, 0), BuildingBlock: XIVTED_clean_linker_0, # of connection points: 2
#     Edge 36, Type (0, 0), BuildingBlock: XIVTED_clean_linker_0, # of connection points: 2
#     Edge 37, Type (0, 0), BuildingBlock: XIVTED_clean_linker_0, # of connection points: 2
#     Edge 38, Type (0, 0), BuildingBlock: XIVTED_clean_linker_0, # of connection points: 2
#     Edge 39, Type (0, 0), BuildingBlock: XIVTED_clean_linker_0, # of connection points: 2
#     Edge 40, Type (0, 0), BuildingBlock: XIVTED_clean_linker_0, # of connection points: 2
#     Edge 41, Type (0, 0), BuildingBlock: XIVTED_clean_linker_0, # of connection points: 2
#     Edge 42, Type (0, 0), BuildingBlock: XIVTED_clean_linker_0, # of connection points: 2
#     Edge 43, Type (0, 0), BuildingBlock: XIVTED_clean_linker_0, # of connection points: 2
#     Edge 44, Type (0, 0), BuildingBlock: XIVTED_clean_linker_0, # of connection points: 2
#     Edge 45, Type (0, 0), BuildingBlock: XIVTED_clean_linker_0, # of connection points: 2
#     Edge 46, Type (0, 0), BuildingBlock: XIVTED_clean_linker_0, # of connection points: 2
#     Edge 47, Type (0, 0), BuildingBlock: XIVTED_clean_linker_0, # of connection points: 2
#     Edge 48, Type (0, 0), BuildingBlock: XIVTED_clean_linker_0, # of connection points: 2
#     Edge 49, Type (0, 0), BuildingBlock: XIVTED_clean_linker_0, # of connection points: 2
#     Edge 50, Type (0, 0), BuildingBlock: XIVTED_clean_linker_0, # of connection points: 2
#     Edge 51, Type (0, 0), BuildingBlock: XIVTED_clean_linker_0, # of connection points: 2
#     Edge 52, Type (0, 0), BuildingBlock: XIVTED_clean_linker_0, # of connection points: 2
#     Edge 53, Type (0, 0), BuildingBlock: XIVTED_clean_linker_0, # of connection points: 2
#     Edge 54, Type (0, 0), BuildingBlock: XIVTED_clean_linker_0, # of connection points: 2
#     Edge 55, Type (0, 0), BuildingBlock: XIVTED_clean_linker_0, # of connection points: 2
#     Edge 56, Type (0, 0), BuildingBlock: XIVTED_clean_linker_0, # of connection points: 2
#     Edge 57, Type (0, 0), BuildingBlock: XIVTED_clean_linker_0, # of connection points: 2
#     Edge 58, Type (0, 0), BuildingBlock: XIVTED_clean_linker_0, # of connection points: 2
#     Edge 59, Type (0, 0), BuildingBlock: XIVTED_clean_linker_0, # of connection points: 2
#     Edge 60, Type (0, 0), BuildingBlock: XIVTED_clean_linker_0, # of connection points: 2
#     Edge 61, Type (0, 0), BuildingBlock: XIVTED_clean_linker_0, # of connection points: 2
#     Edge 62, Type (0, 0), BuildingBlock: XIVTED_clean_linker_0, # of connection points: 2
#     Edge 63, Type (0, 0), BuildingBlock: XIVTED_clean_linker_0, # of connection points: 2
#     Edge 64, Type (0, 0), BuildingBlock: XIVTED_clean_linker_0, # of connection points: 2
#     Edge 65, Type (0, 0), BuildingBlock: XIVTED_clean_linker_0, # of connection points: 2
#     Edge 66, Type (0, 0), BuildingBlock: XIVTED_clean_linker_0, # of connection points: 2
#     Edge 67, Type (0, 0), BuildingBlock: XIVTED_clean_linker_0, # of connection points: 2
#     Edge 68, Type (0, 0), BuildingBlock: XIVTED_clean_linker_0, # of connection points: 2
#     Edge 69, Type (0, 0), BuildingBlock: XIVTED_clean_linker_0, # of connection points: 2
#     Edge 70, Type (0, 0), BuildingBlock: XIVTED_clean_linker_0, # of connection points: 2
#     Edge 71, Type (0, 0), BuildingBlock: XIVTED_clean_linker_0, # of connection points: 2
#     Edge 72, Type (0, 0), BuildingBlock: XIVTED_clean_linker_0, # of connection points: 2
#     Edge 73, Type (0, 0), BuildingBlock: XIVTED_clean_linker_0, # of connection points: 2
#     Edge 74, Type (0, 0), BuildingBlock: XIVTED_clean_linker_0, # of connection points: 2
#     Edge 75, Type (0, 0), BuildingBlock: XIVTED_clean_linker_0, # of connection points: 2
#     Edge 76, Type (0, 0), BuildingBlock: XIVTED_clean_linker_0, # of connection points: 2
#     Edge 77, Type (0, 0), BuildingBlock: XIVTED_clean_linker_0, # of connection points: 2
#     Edge 78, Type (0, 0), BuildingBlock: XIVTED_clean_linker_0, # of connection points: 2
#     Edge 79, Type (0, 0), BuildingBlock: XIVTED_clean_linker_0, # of connection points: 2
#     Edge 80, Type (0, 0), BuildingBlock: XIVTED_clean_linker_0, # of connection points: 2
#     Edge 81, Type (0, 0), BuildingBlock: XIVTED_clean_linker_0, # of connection points: 2
#     Edge 82, Type (0, 0), BuildingBlock: XIVTED_clean_linker_0, # of connection points: 2
#     Edge 83, Type (0, 0), BuildingBlock: XIVTED_clean_linker_0, # of connection points: 2
#     Edge 84, Type (0, 0), BuildingBlock: XIVTED_clean_linker_0, # of connection points: 2
#     Edge 85, Type (0, 0), BuildingBlock: XIVTED_clean_linker_0, # of connection points: 2
#     Edge 86, Type (0, 0), BuildingBlock: XIVTED_clean_linker_0, # of connection points: 2
#     Edge 87, Type (0, 0), BuildingBlock: XIVTED_clean_linker_0, # of connection points: 2
#     Edge 88, Type (0, 0), BuildingBlock: XIVTED_clean_linker_0, # of connection points: 2
#     Edge 89, Type (0, 0), BuildingBlock: XIVTED_clean_linker_0, # of connection points: 2
#     Edge 90, Type (0, 0), BuildingBlock: XIVTED_clean_linker_0, # of connection points: 2
#     Edge 91, Type (0, 0), BuildingBlock: XIVTED_clean_linker_0, # of connection points: 2
#     Edge 92, Type (0, 0), BuildingBlock: XIVTED_clean_linker_0, # of connection points: 2
#     Edge 93, Type (0, 0), BuildingBlock: XIVTED_clean_linker_0, # of connection points: 2
#     Edge 94, Type (0, 0), BuildingBlock: XIVTED_clean_linker_0, # of connection points: 2
#     Edge 95, Type (0, 0), BuildingBlock: XIVTED_clean_linker_0, # of connection points: 2
# Relax obj value: 0.090
# Max RMSD: 0.107
# Mean RMSD: 0.107
data_MOF--net-umr--node1-CEKHIL_clean_sbu_0--edge1-XIVTED_clean_linker_0
_symmetry_space_group_name_H-M    P1
_symmetry_Int_Tables_number       1
_symmetry_cell_setting            triclinic
loop_
_symmetry_equiv_pos_as_xyz
'x, y, z'
_cell_length_a     83.244501
_cell_length_b     83.317082
_cell_length_c     26.544875
_cell_angle_alpha  90.006089
_cell_angle_beta   90.006233
_cell_angle_gamma 90.119425
loop_
_atom_site_label
_atom_site_type_symbol
_atom_site_fract_x
_atom_site_fract_y
_atom_site_fract_z
_atom_type_partial_charge
Co0 Co 0.15971 0.29279 0.0255 0.0
O1 O 0.13748 0.29749 0.03931 0.0
O2 O 0.15796 0.3127 0.06293 0.0
C3 C 0.15583 0.28629 0.94413 0.0
O4 O 0.18415 0.29232 0.017 0.0
Co5 Co 0.17127 0.25916 0.9883 0.0
O6 O 0.19103 0.27106 0.96951 0.0
C7 C 0.16205 0.26423 0.0952 0.0
C8 C 0.14249 0.31048 0.06133 0.0
C9 C 0.19445 0.28431 0.99096 0.0
O10 O 0.16111 0.27956 0.08895 0.0
O11 O 0.16473 0.25433 0.05924 0.0
O12 O 0.15737 0.30129 0.95687 0.0
O13 O 0.1558 0.27615 0.98058 0.0
Co14 Co 0.96135 0.90854 0.27978 0.0
O15 O 0.95593 0.88645 0.29291 0.0
O16 O 0.94121 0.90717 0.31663 0.0
C17 C 0.96786 0.90456 0.19844 0.0
O18 O 0.96259 0.93295 0.27142 0.0
Co19 Co 0.99541 0.91916 0.24314 0.0
O20 O 0.98407 0.93915 0.22378 0.0
C21 C 0.98993 0.91005 0.35 0.0
C22 C 0.94294 0.89167 0.31431 0.0
C23 C 0.97091 0.94296 0.24508 0.0
O24 O 0.97455 0.90951 0.34361 0.0
O25 O 0.99992 0.91244 0.31408 0.0
O26 O 0.95289 0.90652 0.21097 0.0
O27 O 0.97794 0.90421 0.23506 0.0
Co28 Co 0.34705 0.71098 0.52705 0.0
O29 O 0.3688 0.70304 0.52774 0.0
O30 O 0.34794 0.69053 0.56175 0.0
C31 C 0.34699 0.71861 0.44571 0.0
O32 O 0.32279 0.71478 0.53103 0.0
Co33 Co 0.33964 0.74697 0.50311 0.0
O34 O 0.31694 0.73974 0.50396 0.0
C35 C 0.35385 0.73794 0.6006 0.0
C36 C 0.36324 0.69068 0.55193 0.0
C37 C 0.31268 0.72587 0.51929 0.0
O38 O 0.35085 0.72297 0.5923 0.0
O39 O 0.35194 0.7489 0.56739 0.0
O40 O 0.34438 0.70363 0.45712 0.0
O41 O 0.35077 0.72779 0.48272 0.0
Co42 Co 0.54084 0.09562 0.77353 0.0
O43 O 0.54516 0.11764 0.79133 0.0
O44 O 0.56088 0.09718 0.81061 0.0
C45 C 0.53407 0.10114 0.69338 0.0
O46 O 0.54078 0.07139 0.76053 0.0
Co47 Co 0.50742 0.08396 0.7344 0.0
O48 O 0.51957 0.06478 0.71228 0.0
C49 C 0.51256 0.09069 0.84322 0.0
C50 C 0.55839 0.11259 0.81165 0.0
C51 C 0.53288 0.0613 0.73322 0.0
O52 O 0.52782 0.09261 0.83684 0.0
O53 O 0.50266 0.08834 0.80701 0.0
O54 O 0.54913 0.09956 0.7054 0.0
O55 O 0.52399 0.10006 0.72987 0.0
Co56 Co 0.16135 0.71342 0.46076 0.0
O57 O 0.14016 0.7082 0.43727 0.0
O58 O 0.16148 0.69291 0.42533 0.0
C59 C 0.1533 0.72045 0.53864 0.0
O60 O 0.18511 0.71488 0.48157 0.0
Co61 Co 0.16927 0.74817 0.49846 0.0
O62 O 0.18837 0.73746 0.52705 0.0
C63 C 0.16667 0.74128 0.38914 0.0
C64 C 0.14607 0.69495 0.41986 0.0
C65 C 0.19358 0.72409 0.51045 0.0
O66 O 0.16564 0.72602 0.39704 0.0
O67 O 0.16699 0.75174 0.42445 0.0
O68 O 0.15581 0.70543 0.5281 0.0
O69 O 0.15472 0.73027 0.50159 0.0
Co70 Co 0.54264 0.9085 0.70686 0.0
O71 O 0.54932 0.88653 0.6974 0.0
O72 O 0.56252 0.90777 0.66897 0.0
C73 C 0.53642 0.90559 0.78894 0.0
O74 O 0.54033 0.93289 0.71114 0.0
Co75 Co 0.50829 0.91822 0.74259 0.0
O76 O 0.51883 0.939 0.75856 0.0
C77 C 0.51389 0.9077 0.63714 0.0
C78 C 0.56178 0.89226 0.67404 0.0
C79 C 0.53178 0.94298 0.73621 0.0
O80 O 0.52927 0.90776 0.64339 0.0
O81 O 0.50386 0.91031 0.67279 0.0
O82 O 0.55129 0.9081 0.77583 0.0
O83 O 0.52634 0.90414 0.75261 0.0
Co84 Co 0.34678 0.29115 0.95834 0.0
O85 O 0.36885 0.29528 0.9404 0.0
O86 O 0.34844 0.31105 0.92079 0.0
C87 C 0.35213 0.28455 0.0388 0.0
O88 O 0.32255 0.29135 0.97138 0.0
Co89 Co 0.33484 0.25793 -0.00207 0.0
O90 O 0.31574 0.27027 0.01982 0.0
C91 C 0.34176 0.26274 0.88915 0.0
C92 C 0.36384 0.30848 0.91973 0.0
C93 C 0.31239 0.2836 -0.00115 0.0
O94 O 0.34368 0.278 0.89529 0.0
O95 O 0.33936 0.25293 0.92554 0.0
O96 O 0.35075 0.29958 0.02627 0.0
O97 O 0.35106 0.27439 0.00253 0.0
Co98 Co 0.96173 0.09588 0.20752 0.0
O99 O 0.95639 0.11802 0.19529 0.0
O100 O 0.94155 0.09735 0.1712 0.0
C101 C 0.96857 0.09942 0.28871 0.0
O102 O 0.96293 0.07144 0.21484 0.0
Co103 Co 0.99599 0.08524 0.24191 0.0
O104 O 0.98475 0.06509 0.26068 0.0
C105 C 0.98996 0.09502 0.13608 0.0
C106 C 0.94341 0.11284 0.17359 0.0
C107 C 0.97143 0.06133 0.24013 0.0
O108 O 0.97463 0.09522 0.14323 0.0
O109 O 1.00017 0.09259 0.17135 0.0
O110 O 0.95353 0.09756 0.27669 0.0
O111 O 0.9785 0.10001 0.25173 0.0
Co112 Co 0.84598 0.71068 0.95654 0.0
O113 O 0.86846 0.70618 0.94583 0.0
O114 O 0.84847 0.69067 0.92024 0.0
C115 C 0.84883 0.71768 0.03786 0.0
O116 O 0.82143 0.71081 0.96159 0.0
Co117 Co 0.83325 0.74418 -0.00848 0.0
O118 O 0.81335 0.73208 0.00711 0.0
C119 C 0.84456 0.73905 0.8866 0.0
C120 C 0.86388 0.69303 0.92381 0.0
C121 C 0.81055 0.71873 0.98547 0.0
O122 O 0.84525 0.72369 0.89264 0.0
O123 O 0.84139 0.7489 0.92225 0.0
O124 O 0.84765 0.70256 0.02594 0.0
O125 O 0.84901 0.72758 0.00088 0.0
Co126 Co 0.04189 0.09579 0.70742 0.0
O127 O 0.04631 0.11789 0.6908 0.0
O128 O 0.06194 0.09744 0.6706 0.0
C129 C 0.03509 0.10079 0.78791 0.0
O130 O 0.04183 0.07152 0.7193 0.0
Co131 Co 0.00844 0.08394 0.74553 0.0
O132 O 0.02061 0.06472 0.7672 0.0
C133 C 0.01364 0.09135 0.6372 0.0
C134 C 0.05954 0.11286 0.67037 0.0
C135 C 0.03396 0.06134 0.74636 0.0
O136 O 0.0289 0.09316 0.64379 0.0
O137 O 0.00371 0.08881 0.67321 0.0
O138 O 0.05016 0.09933 0.77576 0.0
O139 O 0.02502 0.1 0.75131 0.0
Co140 Co 0.65755 0.29271 0.46039 0.0
O141 O 0.6359 0.29828 0.44227 0.0
O142 O 0.65726 0.31297 0.42395 0.0
C143 C 0.65167 0.28603 0.54043 0.0
O144 O 0.68173 0.29104 0.47491 0.0
Co145 Co 0.66593 0.25802 0.49687 0.0
O146 O 0.68586 0.26863 0.52039 0.0
C147 C 0.66 0.26449 0.38874 0.0
C148 C 0.64172 0.31126 0.42237 0.0
C149 C 0.69075 0.28194 0.50223 0.0
O150 O 0.65981 0.2798 0.39629 0.0
O151 O 0.66103 0.25415 0.42425 0.0
O152 O 0.6541 0.301 0.52878 0.0
O153 O 0.65178 0.2761 0.50341 0.0
Co154 Co 0.46194 0.90839 0.20785 0.0
O155 O 0.45726 0.88629 0.19199 0.0
O156 O 0.44164 0.90674 0.17205 0.0
C157 C 0.46915 0.90343 0.28814 0.0
O158 O 0.46231 0.93272 0.2193 0.0
Co159 Co 0.49571 0.91996 0.24425 0.0
O160 O 0.48376 0.93924 0.26663 0.0
C161 C 0.4899 0.91251 0.13616 0.0
C162 C 0.44393 0.89129 0.17216 0.0
C163 C 0.4704 0.94279 0.2462 0.0
O164 O 0.47465 0.91079 0.14345 0.0
O165 O 0.5 0.91501 0.17174 0.0
O166 O 0.45404 0.90504 0.2768 0.0
O167 O 0.47901 0.9041 0.25096 0.0
Co168 Co 0.84497 0.29245 0.52261 0.0
O169 O 0.86723 0.29835 0.52971 0.0
O170 O 0.84688 0.31269 0.55853 0.0
C171 C 0.84663 0.28559 0.44077 0.0
O172 O 0.82042 0.29048 0.52081 0.0
Co173 Co 0.83543 0.25733 0.49231 0.0
O174 O 0.81335 0.26607 0.49119 0.0
C175 C 0.84747 0.2644 0.59452 0.0
C176 C 0.86233 0.31116 0.55277 0.0
C177 C 0.80981 0.28007 0.50696 0.0
O178 O 0.84609 0.27965 0.58722 0.0
O179 O 0.8455 0.25395 0.55971 0.0
O180 O 0.84483 0.30059 0.45307 0.0
O181 O 0.84851 0.27581 0.47764 0.0
Co182 Co 0.4617 0.09577 0.2744 0.0
O183 O 0.4555 0.11791 0.28242 0.0
O184 O 0.44187 0.09714 0.31245 0.0
C185 C 0.46796 0.09813 0.19235 0.0
O186 O 0.46362 0.0713 0.27139 0.0
Co187 Co 0.49597 0.08544 0.23949 0.0
O188 O 0.48504 0.06482 0.22398 0.0
C189 C 0.49045 0.09681 0.34397 0.0
C190 C 0.44299 0.11259 0.30637 0.0
C191 C 0.47203 0.06106 0.24638 0.0
O192 O 0.47507 0.0967 0.33772 0.0
O193 O 0.50049 0.09393 0.30856 0.0
O194 O 0.45304 0.09592 0.20544 0.0
O195 O 0.47805 0.0996 0.22862 0.0
Co196 Co 0.65868 0.71494 0.01827 0.0
O197 O 0.63665 0.71145 0.03832 0.0
O198 O 0.6566 0.6946 0.05301 0.0
C199 C 0.65258 0.72304 0.93964 0.0
O200 O 0.68272 0.7138 0.00249 0.0
Co201 Co 0.67202 0.74792 0.98142 0.0
O202 O 0.69034 0.73508 0.95627 0.0
C203 C 0.6662 0.74195 0.09046 0.0
C204 C 0.64134 0.69774 0.0563 0.0
C205 C 0.69312 0.72135 0.9754 0.0
O206 O 0.66312 0.72696 0.08274 0.0
O207 O 0.6689 0.75205 0.05505 0.0
O208 O 0.65345 0.70778 0.94977 0.0
O209 O 0.65471 0.73259 0.97708 0.0
Co210 Co 0.04216 0.90871 0.77994 0.0
O211 O 0.04678 0.88648 0.79429 0.0
O212 O 0.06233 0.9069 0.81598 0.0
C213 C 0.03499 0.90453 0.69916 0.0
O214 O 0.04196 0.9331 0.77077 0.0
Co215 Co 0.00852 0.92072 0.7443 0.0
O216 O 0.02053 0.94031 0.72452 0.0
C217 C 0.01411 0.91187 0.85138 0.0
C218 C 0.05999 0.89147 0.81514 0.0
C219 C 0.03395 0.94352 0.74524 0.0
O220 O 0.02939 0.91052 0.84427 0.0
O221 O 0.00406 0.91464 0.81588 0.0
O222 O 0.05011 0.90597 0.71073 0.0
O223 O 0.02512 0.90485 0.73633 0.0
Co224 Co 0.65865 0.79429 0.51854 0.0
O225 O 0.63756 0.80337 0.52666 0.0
O226 O 0.65999 0.81428 0.55606 0.0
C227 C 0.6558 0.78811 0.43655 0.0
O228 O 0.68265 0.78876 0.51449 0.0
Co229 Co 0.66238 0.75831 0.48691 0.0
O230 O 0.68493 0.76496 0.47497 0.0
C231 C 0.65258 0.76657 0.59037 0.0
C232 C 0.64447 0.81504 0.55055 0.0
C233 C 0.69115 0.77771 0.49323 0.0
O234 O 0.65595 0.78151 0.58282 0.0
O235 O 0.65289 0.75595 0.55554 0.0
O236 O 0.6598 0.80266 0.44934 0.0
O237 O 0.65239 0.77862 0.47312 0.0
Co238 Co 0.46301 0.40762 0.77095 0.0
O239 O 0.45785 0.38539 0.78276 0.0
O240 O 0.44287 0.40582 0.80739 0.0
C241 C 0.46976 0.40436 0.68951 0.0
O242 O 0.46405 0.43209 0.764 0.0
Co243 Co 0.4972 0.41861 0.73649 0.0
O244 O 0.48576 0.4386 0.71774 0.0
C245 C 0.49128 0.40895 0.84251 0.0
C246 C 0.44482 0.39036 0.80453 0.0
C247 C 0.47246 0.44225 0.7385 0.0
O248 O 0.47596 0.40838 0.83524 0.0
O249 O 0.50147 0.41154 0.80726 0.0
O250 O 0.45473 0.40598 0.70185 0.0
O251 O 0.47975 0.40376 0.72636 0.0
Co252 Co 0.84464 0.21144 0.02208 0.0
O253 O 0.86684 0.20731 0.03806 0.0
O254 O 0.84662 0.19128 0.05813 0.0
C255 C 0.84945 0.21868 0.94181 0.0
O256 O 0.82031 0.21123 0.01093 0.0
Co257 Co 0.83239 0.24488 0.98561 0.0
O258 O 0.81306 0.23264 0.96472 0.0
C259 C 0.84043 0.23935 0.09333 0.0
C260 C 0.86202 0.19395 0.05825 0.0
C261 C 0.8099 0.21915 0.98502 0.0
O262 O 0.84203 0.22411 0.08624 0.0
O263 O 0.83787 0.24938 0.05767 0.0
O264 O 0.84815 0.20355 0.95324 0.0
O265 O 0.84857 0.22854 0.97889 0.0
Co266 Co 0.04538 0.59688 0.27658 0.0
O267 O 0.05119 0.61856 0.29312 0.0
O268 O 0.06577 0.59734 0.31277 0.0
C269 C 0.03876 0.60222 0.1961 0.0
O270 O 0.0434 0.57266 0.26323 0.0
Co271 Co 0.01045 0.58874 0.24093 0.0
O272 O 0.02093 0.56879 0.21752 0.0
C273 C 0.01714 0.59507 0.34873 0.0
C274 C 0.06422 0.61289 0.31295 0.0
C275 C 0.03418 0.56377 0.23569 0.0
O276 O 0.03247 0.59508 0.34101 0.0
O277 O 0.00675 0.59401 0.31333 0.0
O278 O 0.05371 0.59982 0.208 0.0
O279 O 0.02883 0.60251 0.23315 0.0
Co280 Co 0.65703 0.21251 0.95856 0.0
O281 O 0.63464 0.20805 0.94592 0.0
O282 O 0.65474 0.19253 0.92179 0.0
C283 C 0.65361 0.21927 0.03993 0.0
O284 O 0.6815 0.2126 0.96599 0.0
Co285 Co 0.66953 0.24595 -0.00521 0.0
O286 O 0.68908 0.23371 0.01317 0.0
C287 C 0.65979 0.24088 0.88821 0.0
C288 C 0.63932 0.1949 0.92424 0.0
C289 C 0.6921 0.2204 -0.00836 0.0
O290 O 0.6584 0.22558 0.8947 0.0
O291 O 0.6629 0.25074 0.92394 0.0
O292 O 0.65482 0.20421 0.02748 0.0
O293 O 0.65365 0.22932 0.00326 0.0
Co294 Co 0.04323 0.40979 0.2061 0.0
O295 O 0.0491 0.38754 0.19962 0.0
O296 O 0.06352 0.40786 0.1706 0.0
C297 C 0.0362 0.40845 0.28786 0.0
O298 O 0.04137 0.43432 0.20742 0.0
Co299 Co 0.00807 0.41944 0.23511 0.0
O300 O 0.01696 0.44147 0.23666 0.0
C301 C 0.01529 0.40685 0.13375 0.0
C302 C 0.06196 0.39243 0.17662 0.0
C303 C 0.03104 0.44496 0.22124 0.0
O304 O 0.03054 0.40843 0.14123 0.0
O305 O 0.00478 0.40895 0.16829 0.0
O306 O 0.05125 0.41016 0.27575 0.0
O307 O 0.02646 0.4064 0.2509 0.0
Co308 Co 0.84552 0.79033 0.45857 0.0
O309 O 0.8672 0.79662 0.44401 0.0
O310 O 0.84584 0.81059 0.42146 0.0
C311 C 0.85051 0.7841 0.53948 0.0
O312 O 0.82117 0.78734 0.46902 0.0
Co313 Co 0.83893 0.75499 0.49449 0.0
O314 O 0.81718 0.76352 0.50752 0.0
C315 C 0.84652 0.76187 0.38789 0.0
C316 C 0.86144 0.8093 0.42246 0.0
C317 C 0.81194 0.77678 0.49008 0.0
O318 O 0.84488 0.77713 0.39471 0.0
O319 O 0.84621 0.7516 0.42372 0.0
O320 O 0.84753 0.79892 0.52736 0.0
O321 O 0.85136 0.7742 0.50263 0.0
Co322 Co 0.46318 0.5949 0.70663 0.0
O323 O 0.45715 0.6169 0.69448 0.0
O324 O 0.44334 0.59573 0.66835 0.0
C325 C 0.4694 0.59888 0.78817 0.0
O326 O 0.4649 0.5705 0.71419 0.0
Co327 Co 0.49725 0.58485 0.74397 0.0
O328 O 0.4861 0.56471 0.76333 0.0
C329 C 0.49197 0.594 0.63712 0.0
C330 C 0.44456 0.61126 0.67169 0.0
C331 C 0.47313 0.56065 0.74123 0.0
O332 O 0.47659 0.5945 0.64332 0.0
O333 O 0.50193 0.59152 0.67306 0.0
O334 O 0.45449 0.59646 0.77536 0.0
O335 O 0.47955 0.5995 0.75181 0.0
Co336 Co 0.34541 0.21136 0.45801 0.0
O337 O 0.36756 0.20518 0.44971 0.0
O338 O 0.34673 0.19142 0.42057 0.0
C339 C 0.34791 0.21789 0.53986 0.0
O340 O 0.32092 0.21327 0.46162 0.0
Co341 Co 0.33519 0.24576 0.49172 0.0
O342 O 0.31472 0.23479 0.50886 0.0
C343 C 0.34615 0.2398 0.38705 0.0
C344 C 0.36221 0.1926 0.42626 0.0
C345 C 0.31083 0.22173 0.48706 0.0
O346 O 0.34617 0.22447 0.3941 0.0
O347 O 0.3433 0.24999 0.42205 0.0
O348 O 0.34574 0.20294 0.52724 0.0
O349 O 0.34933 0.22785 0.50322 0.0
Co350 Co 0.54278 0.59836 0.20698 0.0
O351 O 0.5471 0.62061 0.19188 0.0
O352 O 0.5627 0.60036 0.16968 0.0
C353 C 0.53614 0.60272 0.28799 0.0
O354 O 0.54286 0.574 0.21705 0.0
Co355 Co 0.50949 0.58608 0.24524 0.0
O356 O 0.52187 0.56681 0.2654 0.0
C357 C 0.51429 0.5944 0.13739 0.0
C358 C 0.56027 0.61578 0.17061 0.0
C359 C 0.53516 0.56364 0.24387 0.0
O360 O 0.52959 0.59616 0.14355 0.0
O361 O 0.50451 0.59158 0.17357 0.0
O362 O 0.55119 0.60139 0.2755 0.0
O363 O 0.52601 0.60217 0.25153 0.0
Co364 Co 0.1602 0.7927 0.9579 0.0
O365 O 0.13791 0.79877 0.95402 0.0
O366 O 0.15803 0.81308 0.9231 0.0
C367 C 0.15978 0.78536 0.0395 0.0
O368 O 0.18473 0.79062 0.95623 0.0
Co369 Co 0.1698 0.75735 0.98455 0.0
O370 O 0.19198 0.76594 0.98279 0.0
C371 C 0.15597 0.7651 0.88529 0.0
C372 C 0.14264 0.81159 0.93051 0.0
C373 C 0.19544 0.78005 0.96767 0.0
O374 O 0.15798 0.78026 0.89291 0.0
O375 O 0.15824 0.75446 0.91931 0.0
O376 O 0.16145 0.80044 0.0278 0.0
O377 O 0.15718 0.77582 0.00242 0.0
Co378 Co 0.96242 0.40826 0.70708 0.0
O379 O 0.95814 0.38633 0.68801 0.0
O380 O 0.94218 0.40683 0.67117 0.0
C381 C 0.96977 0.40239 0.7866 0.0
O382 O 0.96233 0.43238 0.72164 0.0
Co383 Co 0.996 0.42 0.74458 0.0
O384 O 0.98385 0.43897 0.76851 0.0
C385 C 0.99019 0.41375 0.6358 0.0
C386 C 0.94476 0.39146 0.66877 0.0
C387 C 0.97033 0.44241 0.74887 0.0
O388 O 0.97498 0.4118 0.64308 0.0
O389 O 1.00032 0.41589 0.67152 0.0
O390 O 0.95462 0.40381 0.77545 0.0
O391 O 0.97961 0.40372 0.74954 0.0
Co392 Co 0.34664 0.79036 0.02432 0.0
O393 O 0.36806 0.79471 0.04815 0.0
O394 O 0.34752 0.8112 0.05742 0.0
C395 C 0.35458 0.78189 0.94758 0.0
O396 O 0.3229 0.79027 0.00304 0.0
Co397 Co 0.3362 0.75606 0.98923 0.0
O398 O 0.31813 0.76785 0.95828 0.0
C399 C 0.33876 0.76376 0.09824 0.0
C400 C 0.36278 0.80847 0.06371 0.0
C401 C 0.31386 0.78161 0.97426 0.0
O402 O 0.34132 0.77878 0.08921 0.0
O403 O 0.33753 0.75308 0.06374 0.0
O404 O 0.35295 0.79716 0.95631 0.0
O405 O 0.35228 0.77261 0.98556 0.0
Co406 Co 0.96422 0.595 0.77858 0.0
O407 O 0.95986 0.61733 0.79205 0.0
O408 O 0.94408 0.59718 0.81451 0.0
C409 C 0.97142 0.5987 0.69763 0.0
O410 O 0.96414 0.57057 0.77017 0.0
Co411 Co 0.99778 0.58253 0.74384 0.0
O412 O 0.9855 0.56313 0.72392 0.0
C413 C 0.99219 0.59196 0.85037 0.0
C414 C 0.9466 0.61258 0.81307 0.0
C415 C 0.97202 0.56007 0.74453 0.0
O416 O 0.97693 0.59333 0.84304 0.0
O417 O 1.00226 0.58895 0.81512 0.0
O418 O 0.95629 0.59753 0.70935 0.0
O419 O 0.98131 0.59848 0.73479 0.0
Co420 Co 0.15813 0.21277 0.52431 0.0
O421 O 0.13597 0.20827 0.53966 0.0
O422 O 0.15633 0.19263 0.56069 0.0
C423 C 0.15356 0.21969 0.44373 0.0
O424 O 0.18249 0.2131 0.51342 0.0
Co425 Co 0.16964 0.24654 0.48798 0.0
O426 O 0.18893 0.23452 0.46587 0.0
C427 C 0.16167 0.24088 0.5956 0.0
C428 C 0.14089 0.19504 0.56023 0.0
C429 C 0.19252 0.22117 0.48629 0.0
O430 O 0.16032 0.22561 0.5884 0.0
O431 O 0.16414 0.25098 0.56003 0.0
O432 O 0.15505 0.20462 0.45561 0.0
O433 O 0.15398 0.22967 0.48062 0.0
Co434 Co 0.54414 0.41123 0.27155 0.0
O435 O 0.54831 0.38897 0.28621 0.0
O436 O 0.56432 0.40907 0.30759 0.0
C437 C 0.53696 0.40691 0.1909 0.0
O438 O 0.54428 0.43561 0.2616 0.0
Co439 Co 0.5106 0.42351 0.23594 0.0
O440 O 0.52293 0.44273 0.21483 0.0
C441 C 0.51618 0.41499 0.34325 0.0
C442 C 0.56167 0.39367 0.30674 0.0
C443 C 0.53639 0.44595 0.23534 0.0
O444 O 0.53142 0.41339 0.33591 0.0
O445 O 0.50612 0.41781 0.30784 0.0
O446 O 0.55208 0.40817 0.20258 0.0
O447 O 0.52705 0.40749 0.22796 0.0
H448 H 0.29161 0.28118 0.07802 0.0
H449 H 0.21535 0.28294 0.91214 0.0
H450 H 0.29474 0.29784 0.92452 0.0
H451 H 0.21218 0.29685 0.06826 0.0
H452 H 0.24446 0.28741 0.915 0.0
H453 H 0.26255 0.28595 0.07637 0.0
C454 C 0.2862 0.28612 0.0443 0.0
C455 C 0.29554 0.28909 0.0013 0.0
C456 C 0.23734 0.28979 0.94833 0.0
C457 C 0.26236 0.29413 -0.00126 0.0
C458 C 0.22078 0.2872 0.94676 0.0
C459 C 0.21141 0.28953 0.99004 0.0
C460 C 0.24464 0.2942 -0.00605 0.0
C461 C 0.219 0.29501 0.03402 0.0
C462 C 0.26966 0.28887 0.04343 0.0
C463 C 0.28796 0.29546 0.95853 0.0
N464 N 0.23525 0.29682 0.03522 0.0
N465 N 0.27173 0.29743 0.95791 0.0
H466 H 0.95826 0.96122 0.32087 0.0
H467 H 0.95822 0.0432 0.16479 0.0
H468 H 0.9732 0.96351 0.1655 0.0
H469 H 0.97407 0.04068 0.31924 0.0
H470 H 0.95436 0.01389 0.16512 0.0
H471 H 0.95467 0.99053 0.32051 0.0
C472 C 0.96039 0.96784 0.28639 0.0
C473 C 0.96611 0.96001 0.24321 0.0
C474 C 0.9584 0.01986 0.19911 0.0
C475 C 0.96185 0.99328 0.24242 0.0
C476 C 0.9605 0.03652 0.19907 0.0
C477 C 0.96655 0.04429 0.24199 0.0
C478 C 0.96196 0.01104 0.24277 0.0
C479 C 0.96949 0.03509 0.2853 0.0
C480 C 0.95844 0.98452 0.28633 0.0
C481 C 0.96888 0.96916 0.19964 0.0
N482 N 0.96717 0.01894 0.28463 0.0
N483 N 0.96672 0.98533 0.20031 0.0
H484 H 0.21248 0.73727 0.58321 0.0
H485 H 0.29568 0.69814 0.49919 0.0
H486 H 0.21383 0.70249 0.46265 0.0
H487 H 0.29007 0.74681 0.55151 0.0
H488 H 0.26619 0.69471 0.50292 0.0
H489 H 0.24149 0.73526 0.59133 0.0
C490 C 0.21883 0.72902 0.55876 0.0
C491 C 0.21067 0.72028 0.52138 0.0
C492 C 0.27152 0.70605 0.51391 0.0
C493 C 0.24409 0.71796 0.53082 0.0
C494 C 0.28827 0.70799 0.51206 0.0
C495 C 0.29526 0.72281 0.52483 0.0
C496 C 0.26188 0.71889 0.53001 0.0
C497 C 0.28516 0.73524 0.54094 0.0
C498 C 0.23543 0.72793 0.56345 0.0
C499 C 0.21963 0.70956 0.49166 0.0
N500 N 0.26904 0.73297 0.54326 0.0
N501 N 0.23594 0.70882 0.49658 0.0
H502 H 0.54613 0.04349 0.80885 0.0
H503 H 0.54477 0.96044 0.65894 0.0
H504 H 0.53066 0.04048 0.65408 0.0
H505 H 0.52882 0.96452 0.81297 0.0
H506 H 0.54898 0.98968 0.65673 0.0
H507 H 0.54944 0.01417 0.80998 0.0
C508 C 0.54388 0.03671 0.77474 0.0
C509 C 0.53804 0.04435 0.73136 0.0
C510 C 0.54481 0.98407 0.69115 0.0
C511 C 0.54192 0.01104 0.73237 0.0
C512 C 0.54247 0.96745 0.69254 0.0
C513 C 0.53632 0.96013 0.7361 0.0
C514 C 0.54139 0.99331 0.73405 0.0
C515 C 0.53343 0.96975 0.77853 0.0
C516 C 0.54564 0.02003 0.77556 0.0
C517 C 0.53509 0.03499 0.68834 0.0
N518 N 0.53601 0.98586 0.7765 0.0
N519 N 0.53704 0.0188 0.68991 0.0
H520 H 0.70954 0.70403 0.04596 0.0
H521 H 0.79391 0.7083 0.90313 0.0
H522 H 0.71465 0.72518 0.89847 0.0
H523 H 0.78882 0.71767 0.06203 0.0
H524 H 0.76462 0.70449 0.89718 0.0
H525 H 0.73857 0.69884 0.04723 0.0
C526 C 0.71669 0.70717 0.01329 0.0
C527 C 0.70974 0.71518 0.97222 0.0
C528 C 0.77002 0.70701 0.93346 0.0
C529 C 0.74276 0.70914 0.97337 0.0
C530 C 0.78667 0.70908 0.93696 0.0
C531 C 0.79368 0.71333 0.98313 0.0
C532 C 0.76048 0.70882 0.9767 0.0
C533 C 0.7838 0.71446 0.02575 0.0
C534 C 0.73322 0.7043 0.01423 0.0
C535 C 0.71959 0.71911 0.93105 0.0
N536 N 0.76768 0.71223 0.02154 0.0
N537 N 0.73563 0.71612 0.93273 0.0
H538 H 0.04648 0.96093 0.82306 0.0
H539 H 0.0487 0.04389 0.67247 0.0
H540 H 0.03308 0.96455 0.66658 0.0
H541 H 0.03102 0.04036 0.8248 0.0
H542 H 0.05293 0.01469 0.67189 0.0
H543 H 0.05069 0.99017 0.82511 0.0
C544 C 0.04486 0.96783 0.78884 0.0
C545 C 0.03936 0.96041 0.74462 0.0
C546 C 0.04843 0.02042 0.70568 0.0
C547 C 0.04433 0.99358 0.7466 0.0
C548 C 0.04611 0.03703 0.70619 0.0
C549 C 0.03938 0.04448 0.74863 0.0
C550 C 0.04436 0.01131 0.74831 0.0
C551 C 0.0361 0.03503 0.7912 0.0
C552 C 0.04716 0.98445 0.79015 0.0
C553 C 0.03723 0.96988 0.70145 0.0
N554 N 0.03859 0.01891 0.78995 0.0
N555 N 0.03971 0.986 0.70349 0.0
H556 H 0.71027 0.30264 0.44786 0.0
H557 H 0.78851 0.2618 0.55694 0.0
H558 H 0.71055 0.27035 0.57501 0.0
H559 H 0.79201 0.30577 0.47216 0.0
H560 H 0.75956 0.2653 0.56254 0.0
H561 H 0.7397 0.30508 0.45502 0.0
C562 C 0.71644 0.29631 0.47777 0.0
C563 C 0.70794 0.28602 0.51027 0.0
C564 C 0.76658 0.27434 0.54312 0.0
C565 C 0.74145 0.28866 0.51828 0.0
C566 C 0.78311 0.27231 0.53984 0.0
C567 C 0.79258 0.2835 0.51405 0.0
C568 C 0.75927 0.2875 0.51934 0.0
C569 C 0.78504 0.29693 0.49259 0.0
C570 C 0.73322 0.29769 0.48175 0.0
C571 C 0.71657 0.27815 0.54837 0.0
N572 N 0.76872 0.29845 0.49498 0.0
N573 N 0.73278 0.27947 0.55085 0.0
H574 H 0.45695 0.96086 0.1714 0.0
H575 H 0.45938 0.04349 0.32403 0.0
H576 H 0.47292 0.96338 0.32575 0.0
H577 H 0.47414 0.0398 0.16876 0.0
H578 H 0.45499 0.01425 0.32561 0.0
H579 H 0.45365 0.99019 0.1713 0.0
C580 C 0.45932 0.96753 0.20564 0.0
C581 C 0.4653 0.95975 0.24858 0.0
C582 C 0.45893 0.01994 0.29106 0.0
C583 C 0.46142 0.99308 0.24878 0.0
C584 C 0.46136 0.03657 0.29005 0.0
C585 C 0.46724 0.04398 0.2463 0.0
C586 C 0.46198 0.01082 0.24763 0.0
C587 C 0.46974 0.03448 0.20335 0.0
C588 C 0.45755 0.98422 0.20541 0.0
C589 C 0.46839 0.96898 0.2918 0.0
N590 N 0.46708 0.01839 0.20505 0.0
N591 N 0.46644 0.98518 0.29081 0.0
H592 H 0.71232 0.75535 0.4591 0.0
H593 H 0.79376 0.80485 0.48394 0.0
H594 H 0.71088 0.80331 0.52095 0.0
H595 H 0.7895 0.75336 0.49715 0.0
H596 H 0.76404 0.80667 0.4842 0.0
H597 H 0.74131 0.75676 0.45699 0.0
C598 C 0.71805 0.76626 0.47225 0.0
C599 C 0.70898 0.77918 0.49077 0.0
C600 C 0.76976 0.79505 0.48726 0.0
C601 C 0.74266 0.78082 0.48827 0.0
C602 C 0.78665 0.79399 0.48691 0.0
C603 C 0.7942 0.77894 0.49074 0.0
C604 C 0.7605 0.78093 0.49018 0.0
C605 C 0.78437 0.76526 0.49457 0.0
C606 C 0.73471 0.76702 0.4711 0.0
C607 C 0.71735 0.793 0.50678 0.0
N608 N 0.76817 0.7666 0.49382 0.0
N609 N 0.73377 0.79347 0.50523 0.0
H610 H 0.47419 0.46264 0.6586 0.0
H611 H 0.47604 0.54009 0.82058 0.0
H612 H 0.46031 0.46061 0.81492 0.0
H613 H 0.45993 0.54227 0.66634 0.0
H614 H 0.47162 0.51098 0.82007 0.0
H615 H 0.47022 0.49179 0.65967 0.0
C616 C 0.47005 0.46834 0.6929 0.0
C617 C 0.46757 0.45927 0.73674 0.0
C618 C 0.46879 0.51788 0.78665 0.0
C619 C 0.46347 0.49256 0.73861 0.0
C620 C 0.47137 0.53444 0.78683 0.0
C621 C 0.4684 0.54355 0.74337 0.0
C622 C 0.46369 0.51031 0.74221 0.0
C623 C 0.46233 0.53567 0.70066 0.0
C624 C 0.46775 0.48493 0.69345 0.0
C625 C 0.46225 0.4672 0.78027 0.0
N626 N 0.46049 0.51943 0.70077 0.0
N627 N 0.46071 0.48347 0.78046 0.0
H628 H 0.70893 0.20675 0.91435 0.0
H629 H 0.79268 0.20539 0.06123 0.0
H630 H 0.71361 0.22193 0.06898 0.0
H631 H 0.78865 0.22115 0.90702 0.0
H632 H 0.7634 0.20145 0.06366 0.0
H633 H 0.73809 0.20208 0.91142 0.0
C634 C 0.71603 0.20869 0.94801 0.0
C635 C 0.70893 0.21483 -0.00812 0.0
C636 C 0.76903 0.20543 0.02905 0.0
C637 C 0.74203 0.20933 0.98893 0.0
C638 C 0.78569 0.20757 0.02749 0.0
C639 C 0.79302 0.21368 0.98392 0.0
C640 C 0.75977 0.20905 0.98636 0.0
C641 C 0.78341 0.21652 0.94141 0.0
C642 C 0.73262 0.20613 0.94619 0.0
C643 C 0.71868 0.21731 0.03433 0.0
N644 N 0.76725 0.21421 0.94369 0.0
N645 N 0.73475 0.21458 0.03182 0.0
H646 H 0.01365 0.46668 0.17018 0.0
H647 H 0.05419 0.54365 0.2903 0.0
H648 H 0.05652 0.46224 0.26002 0.0
H649 H 0.02296 0.5447 0.16052 0.0
H650 H 0.05638 0.5143 0.28081 0.0
H651 H 0.01751 0.49563 0.16724 0.0
C652 C 0.024 0.47187 0.18888 0.0
C653 C 0.03479 0.46215 0.2153 0.0
C654 C 0.04927 0.52105 0.25405 0.0
C655 C 0.03917 0.49543 0.21321 0.0
C656 C 0.04804 0.53779 0.25937 0.0
C657 C 0.03812 0.54662 0.22676 0.0
C658 C 0.04046 0.51322 0.21603 0.0
C659 C 0.03046 0.53839 0.18729 0.0
C660 C 0.02624 0.48841 0.18718 0.0
C661 C 0.04801 0.46942 0.23899 0.0
N662 N 0.03164 0.52222 0.18349 0.0
N663 N 0.04972 0.48573 0.23811 0.0
H664 H 0.29025 0.22374 0.56638 0.0
H665 H 0.21261 0.22344 0.40556 0.0
H666 H 0.29252 0.20935 0.41054 0.0
H667 H 0.21101 0.20779 0.56029 0.0
H668 H 0.24178 0.21934 0.40529 0.0
H669 H 0.26116 0.21912 0.56547 0.0
C670 C 0.28462 0.21941 0.53216 0.0
C671 C 0.29373 0.21695 0.48842 0.0
C672 C 0.23499 0.21649 0.43895 0.0
C673 C 0.26051 0.21203 0.48681 0.0
C674 C 0.21839 0.21886 0.43917 0.0
C675 C 0.20944 0.21597 0.48305 0.0
C676 C 0.24274 0.21171 0.48341 0.0
C677 C 0.21748 0.21008 0.52564 0.0
C678 C 0.26806 0.21671 0.53174 0.0
C679 C 0.28589 0.21132 0.44507 0.0
N680 N 0.23376 0.20849 0.52515 0.0
N681 N 0.26964 0.20937 0.445 0.0
H682 H 0.53476 0.46669 0.15617 0.0
H683 H 0.53357 0.54271 0.3227 0.0
H684 H 0.54972 0.46364 0.31135 0.0
H685 H 0.54884 0.54623 0.16788 0.0
H686 H 0.53869 0.51375 0.32029 0.0
H687 H 0.53918 0.49578 0.15857 0.0
C688 C 0.53927 0.47214 0.19044 0.0
C689 C 0.54187 0.46281 0.23365 0.0
C690 C 0.54123 0.52092 0.28718 0.0
C691 C 0.54648 0.49603 0.23708 0.0
C692 C 0.53826 0.5374 0.28848 0.0
C693 C 0.54076 0.54682 0.24538 0.0
C694 C 0.54621 0.51374 0.24199 0.0
C695 C 0.54684 0.53938 0.20197 0.0
C696 C 0.54182 0.4887 0.19175 0.0
C697 C 0.54767 0.47043 0.27717 0.0
N698 N 0.54901 0.52319 0.20098 0.0
N699 N 0.54943 0.48668 0.27818 0.0
H700 H 0.29458 0.803 0.02621 0.0
H701 H 0.21686 0.76146 0.91937 0.0
H702 H 0.29466 0.77107 0.89818 0.0
H703 H 0.21303 0.80646 -0.00155 0.0
H704 H 0.24575 0.76538 0.91246 0.0
H705 H 0.26527 0.8058 0.01726 0.0
C706 C 0.28853 0.79689 -0.00444 0.0
C707 C 0.29706 0.78652 0.96353 0.0
C708 C 0.23866 0.77455 0.93083 0.0
C709 C 0.26367 0.78949 0.95364 0.0
C710 C 0.22216 0.77227 0.93493 0.0
C711 C 0.21262 0.78363 0.95959 0.0
C712 C 0.24586 0.78813 0.95272 0.0
C713 C 0.22005 0.79747 0.97898 0.0
C714 C 0.27181 0.79846 0.9906 0.0
C715 C 0.28858 0.77892 0.92448 0.0
N716 N 0.23634 0.79922 0.97595 0.0
N717 N 0.2724 0.78036 0.92119 0.0
H718 H 0.97317 0.46284 0.82877 0.0
H719 H 0.97291 0.53935 0.66526 0.0
H720 H 0.95598 0.46042 0.67571 0.0
H721 H 0.95891 0.54254 0.82129 0.0
H722 H 0.96767 0.51038 0.66742 0.0
H723 H 0.96886 0.49195 0.82809 0.0
C724 C 0.9682 0.46842 0.79538 0.0
C725 C 0.96495 0.45926 0.75219 0.0
C726 C 0.96543 0.51748 0.70087 0.0
C727 C 0.96045 0.49249 0.7507 0.0
C728 C 0.96846 0.53396 0.6997 0.0
C729 C 0.96634 0.54328 0.74317 0.0
C730 C 0.96079 0.51021 0.74629 0.0
C731 C 0.9606 0.53575 0.78692 0.0
C732 C 0.96571 0.48499 0.79506 0.0
C733 C 0.95856 0.46705 0.70985 0.0
N734 N 0.95837 0.51956 0.78775 0.0
N735 N 0.95687 0.4833 0.70972 0.0
H736 H 0.16096 0.30341 0.85674 0.0
H737 H 0.15526 0.22466 0.68362 0.0
H738 H 0.15063 0.25584 0.91272 0.0
H739 H 0.16509 0.27212 0.62537 0.0
H740 H 0.15317 0.23609 0.76808 0.0
H741 H 0.16199 0.29243 0.77092 0.0
C742 C 0.15884 0.29071 0.85092 0.0
C743 C 0.15579 0.28051 0.89175 0.0
C744 C 0.15577 0.244 0.73673 0.0
C745 C 0.15698 0.26789 0.79444 0.0
C746 C 0.15699 0.23745 0.68851 0.0
C747 C 0.16037 0.2474 0.64725 0.0
C748 C 0.15797 0.26059 0.74375 0.0
C749 C 0.16246 0.26394 0.65595 0.0
C750 C 0.15945 0.28443 0.8021 0.0
C751 C 0.15313 0.26414 0.88232 0.0
N752 N 0.16124 0.27 0.7032 0.0
N753 N 0.15382 0.25834 0.83474 0.0
H754 H 0.02998 0.90399 0.93889 0.0
H755 H 0.95112 0.91091 0.1112 0.0
H756 H 0.98296 0.91597 0.88109 0.0
H757 H 0.99809 0.89813 0.16713 0.0
H758 H 0.9623 0.91214 0.0257 0.0
H759 H 0.01829 0.90132 0.02295 0.0
C760 C 0.01723 0.90607 0.9438 0.0
C761 C 0.00748 0.91023 0.9028 0.0
C762 C 0.97012 0.90901 0.05677 0.0
C763 C 0.99401 0.90717 -0.00124 0.0
C764 C 0.96372 0.90827 0.10541 0.0
C765 C 0.97371 0.90451 0.14615 0.0
C766 C 0.98657 0.90594 0.04919 0.0
C767 C 0.98997 0.90121 0.13678 0.0
C768 C 0.01055 0.90452 -0.00823 0.0
C769 C 0.99099 0.91273 0.91146 0.0
N770 N 0.99589 0.90205 0.08936 0.0
N771 N 0.9848 0.91118 0.95844 0.0
H772 H 0.35253 0.74933 0.41683 0.0
H773 H 0.32731 0.73487 0.13073 0.0
H774 H 0.33595 0.70369 0.35976 0.0
H775 H 0.34756 0.77936 0.18556 0.0
H776 H 0.32797 0.72414 0.21577 0.0
H777 H 0.34867 0.76109 0.334 0.0
C778 C 0.34804 0.74175 0.3868 0.0
C779 C 0.3446 0.72546 0.39512 0.0
C780 C 0.33221 0.73626 0.20934 0.0
C781 C 0.34015 0.73894 0.2999 0.0
C782 C 0.33185 0.74245 0.16071 0.0
C783 C 0.33761 0.75801 0.15079 0.0
C784 C 0.3384 0.74565 0.24857 0.0
C785 C 0.34307 0.76729 0.19139 0.0
C786 C 0.34584 0.74852 0.33945 0.0
C787 C 0.33882 0.71627 0.35483 0.0
N788 N 0.34346 0.76091 0.23852 0.0
N789 N 0.3368 0.72315 0.30879 0.0
H790 H 0.5035 0.10686 0.66395 0.0
H791 H 0.52213 0.09872 0.37069 0.0
H792 H 0.55115 0.09901 0.60473 0.0
H793 H 0.47425 0.1017 0.43295 0.0
H794 H 0.53322 0.10171 0.4549 0.0
H795 H 0.49305 0.10789 0.57868 0.0
C796 C 0.5118 0.10538 0.63288 0.0
C797 C 0.52822 0.10267 0.64135 0.0
C798 C 0.5203 0.10178 0.45013 0.0
C799 C 0.51624 0.10384 0.54336 0.0
C800 C 0.5139 0.10007 0.402 0.0
C801 C 0.49717 0.09978 0.39466 0.0
C802 C 0.50992 0.10322 0.49138 0.0
C803 C 0.4872 0.10175 0.43675 0.0
C804 C 0.50579 0.10599 0.58414 0.0
C805 C 0.53841 0.10104 0.59972 0.0
N806 N 0.49374 0.10329 0.48337 0.0
N807 N 0.53222 0.10155 0.55232 0.0
H808 H 0.15348 0.7823 0.79706 0.0
H809 H 0.15259 0.70339 0.62706 0.0
H810 H 0.14949 0.73424 0.85719 0.0
H811 H 0.14836 0.75134 0.56694 0.0
H812 H 0.15029 0.71447 0.71223 0.0
H813 H 0.15018 0.7713 0.71224 0.0
C814 C 0.15174 0.7695 0.79256 0.0
C815 C 0.15202 0.75919 0.8343 0.0
C816 C 0.14973 0.72254 0.68031 0.0
C817 C 0.14838 0.74652 0.73759 0.0
C818 C 0.15107 0.71621 0.63181 0.0
C819 C 0.15084 0.72648 0.59011 0.0
C820 C 0.14827 0.73924 0.68685 0.0
C821 C 0.14877 0.743 0.59817 0.0
C822 C 0.14988 0.76321 0.74415 0.0
C823 C 0.14961 0.74267 0.82617 0.0
N824 N 0.1477 0.74888 0.64562 0.0
N825 N 0.14807 0.73685 0.77878 0.0
H826 H 0.47418 0.90454 0.04835 0.0
H827 H 0.5528 0.91393 0.87554 0.0
H828 H 0.52077 0.91832 0.10608 0.0
H829 H 0.50644 0.8984 0.82093 0.0
H830 H 0.54145 0.91568 0.96085 0.0
H831 H 0.48589 0.90257 0.96413 0.0
C832 C 0.48683 0.90718 0.04338 0.0
C833 C 0.49647 0.91156 0.08446 0.0
C834 C 0.53381 0.91185 0.93007 0.0
C835 C 0.50998 0.90929 0.98829 0.0
C836 C 0.5403 0.91082 0.88156 0.0
C837 C 0.53054 0.90608 0.84123 0.0
C838 C 0.51749 0.9081 0.93793 0.0
C839 C 0.5144 0.90221 0.85091 0.0
C840 C 0.49353 0.90602 -0.00468 0.0
C841 C 0.51283 0.91483 0.07567 0.0
N842 N 0.50839 0.90334 0.89814 0.0
N843 N 0.51905 0.91362 0.02863 0.0
H844 H 0.34986 0.30202 0.12656 0.0
H845 H 0.35212 0.22321 0.2994 0.0
H846 H 0.35693 0.25399 0.06976 0.0
H847 H 0.34679 0.27129 0.3582 0.0
H848 H 0.35538 0.23451 0.21509 0.0
H849 H 0.35017 0.29125 0.21263 0.0
C850 C 0.35157 0.28926 0.13225 0.0
C851 C 0.35322 0.27886 0.09114 0.0
C852 C 0.35357 0.24258 0.24656 0.0
C853 C 0.35356 0.26649 0.18879 0.0
C854 C 0.3517 0.23612 0.2947 0.0
C855 C 0.34904 0.24627 0.33597 0.0
C856 C 0.35271 0.2593 0.23965 0.0
C857 C 0.3487 0.26294 0.32755 0.0
C858 C 0.35174 0.28311 0.18123 0.0
C859 C 0.35545 0.26243 0.10041 0.0
N860 N 0.35042 0.26891 0.28036 0.0
N861 N 0.35547 0.25675 0.14819 0.0
H862 H 0.98276 0.08513 0.60786 0.0
H863 H 0.99881 0.10621 0.31925 0.0
H864 H 0.02895 0.09982 0.54926 0.0
H865 H 0.95239 0.09179 0.37608 0.0
H866 H 0.00979 0.10425 0.40372 0.0
H867 H 0.9714 0.08752 0.52385 0.0
C868 C 0.99056 0.08887 0.57736 0.0
C869 C 0.00688 0.09234 0.5858 0.0
C870 C 0.9972 0.10154 0.39794 0.0
C871 C 0.99381 0.09511 0.48927 0.0
C872 C 0.99089 0.10266 0.34967 0.0
C873 C 0.97466 0.09909 0.3407 0.0
C874 C 0.98724 0.09678 0.43777 0.0
C875 C 0.96496 0.09466 0.3815 0.0
C876 C 0.98401 0.09023 0.52933 0.0
C877 C 0.01633 0.09702 0.54462 0.0
N878 N 0.97143 0.09356 0.42844 0.0
N879 N 0.00963 0.0983 0.49813 0.0
H880 H 0.84906 0.74886 0.06631 0.0
H881 H 0.85179 0.73073 0.3604 0.0
H882 H 0.84857 0.7008 0.12734 0.0
H883 H 0.84481 0.77809 0.29772 0.0
H884 H 0.85262 0.7197 0.27576 0.0
H885 H 0.84918 0.75966 0.15093 0.0
C886 C 0.84893 0.74052 0.09761 0.0
C887 C 0.84874 0.72385 0.08977 0.0
C888 C 0.85091 0.7325 0.2805 0.0
C889 C 0.84901 0.73629 0.18723 0.0
C890 C 0.85047 0.73887 0.32887 0.0
C891 C 0.84812 0.75542 0.33633 0.0
C892 C 0.84904 0.74271 0.23909 0.0
C893 C 0.84662 0.76529 0.29386 0.0
C894 C 0.84902 0.74676 0.14603 0.0
C895 C 0.84868 0.71371 0.13182 0.0
N896 N 0.84706 0.75876 0.247 0.0
N897 N 0.84883 0.72012 0.17898 0.0
H898 H 0.97332 0.09996 0.04787 0.0
H899 H 0.05243 0.09864 0.87593 0.0
H900 H 0.02147 0.09564 0.10724 0.0
H901 H 0.00433 0.10487 0.81837 0.0
H902 H 0.04151 0.09868 0.9618 0.0
H903 H 0.98464 0.10289 0.96345 0.0
C904 C 0.98624 0.09966 0.04326 0.0
C905 C 0.99642 0.09742 0.08475 0.0
C906 C 0.03339 0.1001 0.93028 0.0
C907 C 0.00947 0.10075 0.98834 0.0
C908 C 0.03963 0.10009 0.88141 0.0
C909 C 0.02926 0.10161 0.84015 0.0
C910 C 0.01671 0.10163 0.93757 0.0
C911 C 0.01276 0.10351 0.84915 0.0
C912 C 0.99272 0.10135 -0.00494 0.0
C913 C 0.01311 0.09723 0.07644 0.0
N914 N 0.00699 0.10339 0.89683 0.0
N915 N 0.01909 0.09879 0.02921 0.0
H916 H 0.64394 0.25594 0.57046 0.0
H917 H 0.66387 0.27214 0.85977 0.0
H918 H 0.65806 0.30228 0.6284 0.0
H919 H 0.65112 0.22551 0.80042 0.0
H920 H 0.66059 0.28359 0.77633 0.0
H921 H 0.645 0.24502 0.65532 0.0
C922 C 0.64719 0.26386 0.60121 0.0
C923 C 0.65102 0.28003 0.59247 0.0
C924 C 0.65847 0.27086 0.78151 0.0
C925 C 0.65233 0.26754 0.6898 0.0
C926 C 0.66035 0.26426 0.82924 0.0
C927 C 0.65779 0.24776 0.83727 0.0
C928 C 0.65399 0.26095 0.74127 0.0
C929 C 0.65327 0.23825 0.79605 0.0
C930 C 0.64781 0.25759 0.64966 0.0
C931 C 0.65503 0.28975 0.63362 0.0
N932 N 0.65153 0.245 0.74977 0.0
N933 N 0.65568 0.28331 0.68064 0.0
H934 H 0.50002 0.89871 0.31657 0.0
H935 H 0.48218 0.90601 0.61066 0.0
H936 H 0.45246 0.90569 0.37751 0.0
H937 H 0.52996 0.90352 0.54741 0.0
H938 H 0.47095 0.90353 0.52655 0.0
H939 H 0.51085 0.89812 0.40147 0.0
C940 C 0.49182 0.9001 0.34793 0.0
C941 C 0.4753 0.90238 0.34002 0.0
C942 C 0.48388 0.90347 0.53104 0.0
C943 C 0.48771 0.9017 0.43763 0.0
C944 C 0.49036 0.90488 0.57915 0.0
C945 C 0.50711 0.90512 0.58626 0.0
C946 C 0.49417 0.90226 0.48951 0.0
C947 C 0.517 0.90347 0.54383 0.0
C948 C 0.49804 0.89975 0.39646 0.0
C949 C 0.46527 0.90396 0.38204 0.0
N950 N 0.51037 0.90219 0.49722 0.0
N951 N 0.47165 0.90366 0.42922 0.0
H952 H 0.84569 0.22313 0.18205 0.0
H953 H 0.84105 0.30236 0.35313 0.0
H954 H 0.83756 0.27069 0.12233 0.0
H955 H 0.85023 0.25477 0.41059 0.0
H956 H 0.83959 0.29111 0.26774 0.0
H957 H 0.84725 0.23464 0.26654 0.0
C958 C 0.84423 0.23596 0.18662 0.0
C959 C 0.84148 0.24592 0.14495 0.0
C960 C 0.84192 0.28316 0.29917 0.0
C961 C 0.84325 0.25919 0.24144 0.0
C962 C 0.84275 0.28959 0.34776 0.0
C963 C 0.84572 0.27949 0.38885 0.0
C964 C 0.84408 0.26656 0.29202 0.0
C965 C 0.84785 0.26301 0.37999 0.0
C966 C 0.84513 0.24254 0.23486 0.0
C967 C 0.83969 0.2625 0.15324 0.0
N968 N 0.84698 0.25708 0.33261 0.0
N969 N 0.8406 0.2686 0.20049 0.0
H970 H 0.49797 0.10514 0.1607 0.0
H971 H 0.48163 0.08442 0.87216 0.0
H972 H 0.45165 0.08966 0.10562 0.0
H973 H 0.52792 0.09845 0.93158 0.0
H974 H 0.4703 0.08635 0.95643 0.0
H975 H 0.50875 0.10309 0.07628 0.0
C976 C 0.49002 0.10131 0.13069 0.0
C977 C 0.47387 0.0975 0.14018 0.0
C978 C 0.48292 0.08899 0.95104 0.0
C979 C 0.48626 0.09511 0.04291 0.0
C980 C 0.48945 0.08791 0.90289 0.0
C981 C 0.50579 0.09135 0.89463 0.0
C982 C 0.49277 0.09358 -0.00867 0.0
C983 C 0.51528 0.09569 0.93606 0.0
C984 C 0.49623 0.10013 0.08238 0.0
C985 C 0.46415 0.09272 0.09978 0.0
N986 N 0.50861 0.09672 0.9826 0.0
N987 N 0.47053 0.09161 0.05269 0.0
H988 H 0.65154 0.75443 0.91273 0.0
H989 H 0.64278 0.73661 0.61905 0.0
H990 H 0.64877 0.70662 0.85043 0.0
H991 H 0.65497 0.78321 0.67972 0.0
H992 H 0.64076 0.72612 0.70425 0.0
H993 H 0.64897 0.76554 0.82847 0.0
C994 C 0.65038 0.74623 0.88125 0.0
C995 C 0.65054 0.72954 0.88848 0.0
C996 C 0.64379 0.73865 0.69895 0.0
C997 C 0.6475 0.74228 0.79179 0.0
C998 C 0.64493 0.74471 0.65026 0.0
C999 C 0.64933 0.76081 0.64206 0.0
C1000 C 0.64702 0.74873 0.73993 0.0
C1001 C 0.6517 0.77071 0.68415 0.0
C1002 C 0.64889 0.75263 0.83313 0.0
C1003 C 0.64882 0.71955 0.84639 0.0
N1004 N 0.65064 0.76446 0.73134 0.0
N1005 N 0.64743 0.72609 0.79966 0.0
H1006 H 0.02165 0.91005 0.37683 0.0
H1007 H 0.00407 0.90026 0.67041 0.0
H1008 H 0.97397 0.90564 0.43991 0.0
H1009 H 0.05162 0.90783 0.60985 0.0
H1010 H 0.99317 0.90065 0.58566 0.0
H1011 H 0.03295 0.90773 0.46087 0.0
C1012 C 0.0135 0.90857 0.4083 0.0
C1013 C 0.99675 0.90813 0.40113 0.0
C1014 C 0.00599 0.9022 0.59069 0.0
C1015 C 0.00978 0.90546 0.49783 0.0
C1016 C 0.01227 0.90199 0.63916 0.0
C1017 C 0.0288 0.90412 0.64719 0.0
C1018 C 0.01629 0.90456 0.54965 0.0
C1019 C 0.03881 0.90618 0.60526 0.0
C1020 C 0.02003 0.90725 0.45638 0.0
C1021 C 0.98692 0.9061 0.44353 0.0
N1022 N 0.03237 0.90641 0.55812 0.0
N1023 N 0.99359 0.90488 0.4901 0.0
H1024 H 0.64616 0.75886 0.40413 0.0
H1025 H 0.6771 0.77116 0.12257 0.0
H1026 H 0.66868 0.80257 0.35232 0.0
H1027 H 0.65521 0.72738 0.1768 0.0
H1028 H 0.67494 0.78256 0.20662 0.0
H1029 H 0.64976 0.74717 0.32117 0.0
C1030 C 0.65184 0.76605 0.37512 0.0
C1031 C 0.65715 0.78173 0.38507 0.0
C1032 C 0.67066 0.77045 0.20022 0.0
C1033 C 0.66136 0.76832 0.28972 0.0
C1034 C 0.67188 0.76389 0.15219 0.0
C1035 C 0.66618 0.7483 0.14242 0.0
C1036 C 0.66364 0.76141 0.2389 0.0
C1037 C 0.65973 0.73944 0.18251 0.0
C1038 C 0.65392 0.75932 0.32773 0.0
C1039 C 0.66436 0.79047 0.34607 0.0
N1040 N 0.65854 0.74617 0.22896 0.0
N1041 N 0.66628 0.78361 0.29994 0.0
H1042 H 0.45309 0.41156 0.60283 0.0
H1043 H 0.53213 0.40698 0.43047 0.0
H1044 H 0.50021 0.39906 0.65809 0.0
H1045 H 0.48511 0.41938 0.37356 0.0
H1046 H 0.5205 0.40392 0.51445 0.0
H1047 H 0.4644 0.41411 0.51777 0.0
C1048 C 0.46575 0.40926 0.59697 0.0
C1049 C 0.47574 0.40515 0.6374 0.0
C1050 C 0.51275 0.40731 0.4835 0.0
C1051 C 0.48874 0.40809 0.54094 0.0
C1052 C 0.5194 0.40909 0.43557 0.0
C1053 C 0.50962 0.41342 0.39479 0.0
C1054 C 0.49621 0.40989 0.49069 0.0
C1055 C 0.49316 0.41598 0.40374 0.0
C1056 C 0.47222 0.41076 0.5486 0.0
C1057 C 0.49208 0.40235 0.62798 0.0
N1058 N 0.48699 0.41417 0.45066 0.0
N1059 N 0.49807 0.4039 0.5808 0.0
H1060 H 0.84912 0.28121 0.68369 0.0
H1061 H 0.84979 0.20167 0.85289 0.0
H1062 H 0.85235 0.23324 0.62248 0.0
H1063 H 0.85208 0.24977 0.91311 0.0
H1064 H 0.8513 0.21294 0.76759 0.0
H1065 H 0.85114 0.26988 0.76842 0.0
C1066 C 0.8504 0.26834 0.68796 0.0
C1067 C 0.85038 0.25818 0.64587 0.0
C1068 C 0.85154 0.22099 0.79959 0.0
C1069 C 0.85254 0.24513 0.74254 0.0
C1070 C 0.85065 0.21455 0.84814 0.0
C1071 C 0.8507 0.22479 0.88995 0.0
C1072 C 0.85244 0.23774 0.79317 0.0
C1073 C 0.85188 0.24141 0.88188 0.0
C1074 C 0.85151 0.26186 0.73633 0.0
C1075 C 0.85212 0.24157 0.65376 0.0
N1076 N 0.85263 0.24736 0.83448 0.0
N1077 N 0.85299 0.23557 0.70111 0.0
H1078 H 0.0553 0.5955 0.10911 0.0
H1079 H 0.97628 0.60062 0.93713 0.0
H1080 H 0.00847 0.60876 0.16496 0.0
H1081 H 0.0233 0.58801 0.88062 0.0
H1082 H 0.98798 0.6042 0.0209 0.0
H1083 H 0.04399 0.59357 0.02406 0.0
C1084 C 0.0427 0.59813 0.10336 0.0
C1085 C 0.03279 0.60221 0.14397 0.0
C1086 C 0.99572 0.60066 0.99005 0.0
C1087 C 0.01975 0.59993 0.04744 0.0
C1088 C 0.98903 0.59858 0.94226 0.0
C1089 C 0.99878 0.594 0.9017 0.0
C1090 C 0.01226 0.59812 -0.00274 0.0
C1091 C 0.01526 0.59157 0.91063 0.0
C1092 C 0.03622 0.59698 0.05496 0.0
C1093 C 0.01652 0.60547 0.13466 0.0
N1094 N 0.02145 0.59365 0.95739 0.0
N1095 N 0.0105 0.6042 0.08742 0.0
H1096 H 0.65517 0.28112 0.30038 0.0
H1097 H 0.65824 0.20215 0.1275 0.0
H1098 H 0.66254 0.23325 0.35866 0.0
H1099 H 0.64972 0.24996 0.07086 0.0
H1100 H 0.6597 0.21321 0.21312 0.0
H1101 H 0.65321 0.26983 0.21555 0.0
C1102 C 0.65641 0.26827 0.29541 0.0
C1103 C 0.659 0.25815 0.33679 0.0
C1104 C 0.65748 0.22124 0.18185 0.0
C1105 C 0.65675 0.24515 0.23999 0.0
C1106 C 0.65662 0.21492 0.13314 0.0
C1107 C 0.65392 0.22515 0.09219 0.0
C1108 C 0.65562 0.23787 0.1893 0.0
C1109 C 0.65192 0.24163 0.10138 0.0
C1110 C 0.65526 0.26182 0.24701 0.0
C1111 C 0.66048 0.24156 0.32802 0.0
N1112 N 0.65284 0.24747 0.14888 0.0
N1113 N 0.65933 0.2356 0.28066 0.0
H1114 H 0.97385 0.40872 0.54708 0.0
H1115 H 0.05291 0.41464 0.37525 0.0
H1116 H 0.02133 0.41821 0.60609 0.0
H1117 H 0.00529 0.40508 0.31797 0.0
H1118 H 0.04162 0.41648 0.46049 0.0
H1119 H 0.98521 0.40791 0.46227 0.0
C1120 C 0.98663 0.41066 0.54228 0.0
C1121 C 0.99662 0.41349 0.58388 0.0
C1122 C 0.03367 0.414 0.42914 0.0
C1123 C 0.00972 0.41254 0.48701 0.0
C1124 C 0.04012 0.41295 0.38063 0.0
C1125 C 0.03003 0.40971 0.33965 0.0
C1126 C 0.01706 0.41178 0.43636 0.0
C1127 C 0.01353 0.40763 0.34851 0.0
C1128 C 0.99312 0.41018 0.49386 0.0
C1129 C 0.01312 0.41593 0.57527 0.0
N1130 N 0.00758 0.40868 0.39584 0.0
N1131 N 0.01914 0.41537 0.52786 0.0
H1132 H 0.84481 0.7708 0.86094 0.0
H1133 H 0.85846 0.7541 0.5689 0.0
H1134 H 0.85042 0.72337 0.79727 0.0
H1135 H 0.84506 0.80048 0.62795 0.0
H1136 H 0.85866 0.74334 0.65378 0.0
H1137 H 0.84793 0.78231 0.7775 0.0
C1138 C 0.84673 0.76276 0.82946 0.0
C1139 C 0.8472 0.74602 0.83617 0.0
C1140 C 0.85571 0.75587 0.64835 0.0
C1141 C 0.8508 0.75928 0.74037 0.0
C1142 C 0.85558 0.76206 0.59986 0.0
C1143 C 0.85155 0.77818 0.59145 0.0
C1144 C 0.8518 0.76586 0.6889 0.0
C1145 C 0.84814 0.78796 0.63294 0.0
C1146 C 0.8485 0.7694 0.78178 0.0
C1147 C 0.84987 0.73631 0.7939 0.0
N1148 N 0.84826 0.7816 0.6801 0.0
N1149 N 0.85151 0.7431 0.74769 0.0
H1150 H 0.48312 0.58902 0.10938 0.0
H1151 H 0.49913 0.60736 0.81906 0.0
H1152 H 0.52944 0.60239 0.04871 0.0
H1153 H 0.45312 0.59168 0.87597 0.0
H1154 H 0.50986 0.60688 0.90393 0.0
H1155 H 0.47161 0.59097 0.02545 0.0
C1156 C 0.49091 0.5924 0.07847 0.0
C1157 C 0.50734 0.59554 0.08626 0.0
C1158 C 0.49741 0.60356 0.89811 0.0
C1159 C 0.49409 0.5978 0.98982 0.0
C1160 C 0.49123 0.60383 0.84958 0.0
C1161 C 0.47521 0.59944 0.84047 0.0
C1162 C 0.48753 0.59883 0.93814 0.0
C1163 C 0.46553 0.59514 0.88147 0.0
C1164 C 0.48428 0.5935 0.03048 0.0
C1165 C 0.51675 0.59982 0.04458 0.0
N1166 N 0.47189 0.59486 0.92872 0.0
N1167 N 0.50998 0.60082 -0.00186 0.0
H1168 H 0.35363 0.2483 0.57038 0.0
H1169 H 0.33667 0.23152 0.86113 0.0
H1170 H 0.3408 0.20148 0.62752 0.0
H1171 H 0.34823 0.27821 0.79996 0.0
H1172 H 0.33821 0.22018 0.7768 0.0
H1173 H 0.35193 0.25912 0.65485 0.0
C1174 C 0.35045 0.24025 0.60084 0.0
C1175 C 0.3473 0.22394 0.59191 0.0
C1176 C 0.3404 0.23289 0.78183 0.0
C1177 C 0.34535 0.23637 0.68928 0.0
C1178 C 0.33953 0.23943 0.83002 0.0
C1179 C 0.34237 0.2559 0.83781 0.0
C1180 C 0.34415 0.24286 0.74099 0.0
C1181 C 0.34596 0.26548 0.79589 0.0
C1182 C 0.34948 0.24648 0.64919 0.0
C1183 C 0.34333 0.21411 0.63288 0.0
N1184 N 0.34676 0.2588 0.74931 0.0
N1185 N 0.34244 0.2205 0.68001 0.0
H1186 H 0.52354 0.59211 0.60917 0.0
H1187 H 0.50578 0.60866 0.31875 0.0
H1188 H 0.47615 0.60093 0.54876 0.0
H1189 H 0.55301 0.59748 0.37586 0.0
H1190 H 0.49518 0.60747 0.40381 0.0
H1191 H 0.53478 0.59541 0.52531 0.0
C1192 C 0.51545 0.59478 0.57834 0.0
C1193 C 0.4988 0.5962 0.58616 0.0
C1194 C 0.50787 0.60532 0.39797 0.0
C1195 C 0.51175 0.60002 0.48979 0.0
C1196 C 0.51396 0.60599 0.34935 0.0
C1197 C 0.5303 0.60305 0.34028 0.0
C1198 C 0.51816 0.60163 0.43807 0.0
C1199 C 0.54034 0.59981 0.38134 0.0
C1200 C 0.52194 0.59666 0.53039 0.0
C1201 C 0.48902 0.59967 0.54459 0.0
N1202 N 0.53407 0.59909 0.42863 0.0
N1203 N 0.49565 0.60144 0.49817 0.0
H1204 H 0.17343 0.77187 0.3589 0.0
H1205 H 0.15641 0.75436 0.06862 0.0
H1206 H 0.16131 0.72497 0.30041 0.0
H1207 H 0.16748 0.80151 0.1268 0.0
H1208 H 0.1594 0.74329 0.15267 0.0
H1209 H 0.17271 0.7826 0.27391 0.0
C1210 C 0.17064 0.76377 0.32818 0.0
C1211 C 0.16728 0.74746 0.33699 0.0
C1212 C 0.16122 0.75604 0.14721 0.0
C1213 C 0.16645 0.75982 0.23921 0.0
C1214 C 0.15952 0.76242 0.09916 0.0
C1215 C 0.16169 0.77892 0.09076 0.0
C1216 C 0.1651 0.76622 0.18741 0.0
C1217 C 0.16566 0.78873 0.13174 0.0
C1218 C 0.17026 0.76996 0.27956 0.0
C1219 C 0.16395 0.7376 0.29548 0.0
N1220 N 0.16722 0.78222 0.17847 0.0
N1221 N 0.16353 0.74397 0.24835 0.0
H1222 H 0.95277 0.40197 0.87547 0.0
H1223 H 0.03224 0.40451 0.0449 0.0
H1224 H 1.00088 0.39942 0.81529 0.0
H1225 H 0.98418 0.40139 0.10582 0.0
H1226 H 0.02102 0.40145 0.96025 0.0
H1227 H 0.96403 0.4008 0.96077 0.0
C1228 C 0.96566 0.4011 0.88023 0.0
C1229 C 0.9759 0.40094 0.83842 0.0
C1230 C 0.01296 0.40133 -0.00772 0.0
C1231 C 0.98886 0.39963 0.93529 0.0
C1232 C 0.01938 0.40305 0.0406 0.0
C1233 C 0.00916 0.40341 0.08257 0.0
C1234 C 0.99623 0.40003 0.98598 0.0
C1235 C 0.99256 0.40139 0.07465 0.0
C1236 C 0.9721 0.40041 0.9288 0.0
C1237 C 0.99253 0.39973 0.84653 0.0
N1238 N 0.98662 0.39993 0.02735 0.0
N1239 N 0.99849 0.39922 0.89398 0.0
H1240 H 0.35672 0.75035 0.9225 0.0
H1241 H 0.36534 0.76735 0.62829 0.0
H1242 H 0.35877 0.79788 0.85797 0.0
H1243 H 0.35233 0.72109 0.68974 0.0
H1244 H 0.3682 0.77779 0.71336 0.0
H1245 H 0.35986 0.73888 0.83874 0.0
C1246 C 0.35788 0.7584 0.89067 0.0
C1247 C 0.35729 0.77512 0.89706 0.0
C1248 C 0.36485 0.76533 0.70827 0.0
C1249 C 0.36101 0.76199 0.8011 0.0
C1250 C 0.36324 0.7593 0.65967 0.0
C1251 C 0.35828 0.74336 0.65179 0.0
C1252 C 0.36151 0.75537 0.74945 0.0
C1253 C 0.35604 0.73348 0.69399 0.0
C1254 C 0.3597 0.75181 0.84287 0.0
C1255 C 0.35903 0.78493 0.85459 0.0
N1256 N 0.3575 0.73971 0.74113 0.0
N1257 N 0.36075 0.7782 0.80824 0.0
H1258 H 0.95444 0.59586 0.60906 0.0
H1259 H 0.0339 0.5983 0.43784 0.0
H1260 H 1.00245 0.60159 0.66803 0.0
H1261 H 0.98574 0.59407 0.3783 0.0
H1262 H 0.02258 0.59961 0.52285 0.0
H1263 H 0.96566 0.59532 0.52361 0.0
C1264 C 0.9673 0.59704 0.60399 0.0
C1265 C 0.97752 0.59872 0.64555 0.0
C1266 C 0.01452 0.59842 0.49105 0.0
C1267 C 0.99044 0.59809 0.5485 0.0
C1268 C 0.02099 0.59766 0.44253 0.0
C1269 C 0.0108 0.59606 0.40074 0.0
C1270 C 0.99777 0.59754 0.49774 0.0
C1271 C 0.99413 0.59531 0.40922 0.0
C1272 C 0.97372 0.59672 0.55534 0.0
C1273 C 0.99411 0.6002 0.63702 0.0
N1274 N 0.98816 0.59603 0.45665 0.0
N1275 N 1.00005 0.59982 0.58953 0.0
H1276 H 0.16469 0.23276 0.12325 0.0
H1277 H 0.14754 0.2501 0.41359 0.0
H1278 H 0.15475 0.27991 0.18345 0.0
H1279 H 0.15887 0.20304 0.35573 0.0
H1280 H 0.14872 0.26083 0.32862 0.0
H1281 H 0.16144 0.22146 0.20702 0.0
C1282 C 0.1618 0.24078 0.15403 0.0
C1283 C 0.16004 0.25738 0.14617 0.0
C1284 C 0.15091 0.24815 0.3343 0.0
C1285 C 0.15627 0.24438 0.24244 0.0
C1286 C 0.15024 0.24199 0.38284 0.0
C1287 C 0.15323 0.22566 0.39164 0.0
C1288 C 0.15466 0.23793 0.29407 0.0
C1289 C 0.15651 0.2157 0.35045 0.0
C1290 C 0.15994 0.23427 0.20192 0.0
C1291 C 0.15629 0.26709 0.18766 0.0
N1292 N 0.15723 0.22203 0.30328 0.0
N1293 N 0.15455 0.26043 0.23405 0.0
H1294 H 0.5541 0.40795 0.10229 0.0
H1295 H 0.47467 0.40521 0.93145 0.0
H1296 H 0.50594 0.40383 0.16138 0.0
H1297 H 0.52281 0.40832 0.87116 0.0
H1298 H 0.48605 0.40355 0.01618 0.0
H1299 H 0.543 0.4071 0.01668 0.0
C1300 C 0.54123 0.40684 0.09722 0.0
C1301 C 0.53093 0.40606 0.13883 0.0
C1302 C 0.49411 0.40454 0.9843 0.0
C1303 C 0.51816 0.40508 0.04163 0.0
C1304 C 0.4876 0.40548 0.93592 0.0
C1305 C 0.49776 0.40704 0.89405 0.0
C1306 C 0.51087 0.40519 0.99082 0.0
C1307 C 0.51446 0.40726 0.90223 0.0
C1308 C 0.53489 0.40635 0.04848 0.0
C1309 C 0.51434 0.40458 0.13033 0.0
N1310 N 0.52047 0.40642 0.94961 0.0
N1311 N 0.50848 0.40418 0.08274 0.0
H1312 H 0.11044 0.30639 0.07819 0.0
H1313 H 0.09263 0.39845 0.14239 0.0
H1314 H 0.14818 0.34179 0.08918 0.0
H1315 H 0.05924 0.35987 0.17153 0.0
H1316 H 0.11274 0.37856 0.11618 0.0
H1317 H 0.09111 0.32645 0.10641 0.0
C1318 C 0.11468 0.31839 0.08675 0.0
C1319 C 0.13096 0.32241 0.08136 0.0
C1320 C 0.101 0.37449 0.12839 0.0
C1321 C 0.10879 0.34557 0.11321 0.0
C1322 C 0.08951 0.38582 0.14309 0.0
C1323 C 0.07423 0.38081 0.15915 0.0
C1324 C 0.0971 0.35806 0.1292 0.0
C1325 C 0.07086 0.36429 0.15953 0.0
C1326 C 0.10362 0.32985 0.10291 0.0
C1327 C 0.13575 0.33816 0.09304 0.0
N1328 N 0.08216 0.35355 0.14463 0.0
N1329 N 0.12469 0.34921 0.10809 0.0
H1330 H 0.89287 0.80539 0.39969 0.0
H1331 H 0.91195 0.89806 0.34564 0.0
H1332 H 0.85562 0.8413 0.40028 0.0
H1333 H 0.94536 0.85922 0.32265 0.0
H1334 H 0.89126 0.87832 0.36959 0.0
H1335 H 0.9122 0.82564 0.37412 0.0
C1336 C 0.88872 0.81757 0.39413 0.0
C1337 C 0.87258 0.82163 0.40221 0.0
C1338 C 0.90313 0.87417 0.35932 0.0
C1339 C 0.89488 0.84516 0.37317 0.0
C1340 C 0.91497 0.88542 0.34598 0.0
C1341 C 0.93044 0.88029 0.33218 0.0
C1342 C 0.90686 0.85772 0.35916 0.0
C1343 C 0.93364 0.86377 0.33294 0.0
C1344 C 0.89981 0.82918 0.3795 0.0
C1345 C 0.86793 0.83764 0.3942 0.0
N1346 N 0.92201 0.85315 0.34619 0.0
N1347 N 0.87908 0.84888 0.38044 0.0
H1348 H 0.38742 0.67714 0.49771 0.0
H1349 H 0.43382 0.63835 0.71707 0.0
H1350 H 0.36367 0.67468 0.64181 0.0
H1351 H 0.42633 0.60881 0.58575 0.0
H1352 H 0.41253 0.65647 0.68768 0.0
H1353 H 0.40628 0.65625 0.52591 0.0
C1354 C 0.38617 0.67214 0.53519 0.0
C1355 C 0.37401 0.67754 0.56756 0.0
C1356 C 0.41556 0.64599 0.66549 0.0
C1357 C 0.39568 0.6542 0.60017 0.0
C1358 C 0.42773 0.63574 0.68193 0.0
C1359 C 0.43179 0.62212 0.65367 0.0
C1360 C 0.40783 0.64289 0.61964 0.0
C1361 C 0.42347 0.61919 0.60859 0.0
C1362 C 0.39684 0.66024 0.55104 0.0
C1363 C 0.37285 0.67072 0.61573 0.0
N1364 N 0.41202 0.62967 0.5924 0.0
N1365 N 0.38377 0.6596 0.63104 0.0
H1366 H 0.60691 0.19852 0.91413 0.0
H1367 H 0.58976 0.1069 0.83901 0.0
H1368 H 0.64476 0.16384 0.8936 0.0
H1369 H 0.55444 0.1446 0.82917 0.0
H1370 H 0.60978 0.12683 0.86588 0.0
H1371 H 0.58728 0.17828 0.88873 0.0
C1372 C 0.61111 0.18665 0.90406 0.0
C1373 C 0.62752 0.18289 0.9059 0.0
C1374 C 0.59763 0.13071 0.85795 0.0
C1375 C 0.60502 0.15952 0.87724 0.0
C1376 C 0.58617 0.11932 0.84294 0.0
C1377 C 0.5704 0.12409 0.8318 0.0
C1378 C 0.59322 0.14693 0.86227 0.0
C1379 C 0.56646 0.14037 0.83724 0.0
C1380 C 0.59988 0.17508 0.88957 0.0
C1381 C 0.63224 0.16728 0.89247 0.0
N1382 N 0.57776 0.15117 0.85208 0.0
N1383 N 0.62103 0.15614 0.87893 0.0
H1384 H 0.09543 0.60613 0.34233 0.0
H1385 H 0.11568 0.6993 0.38619 0.0
H1386 H 0.06195 0.64517 0.32423 0.0
H1387 H 0.15142 0.66243 0.40612 0.0
H1388 H 0.09638 0.67901 0.36079 0.0
H1389 H 0.11639 0.62575 0.36549 0.0
C1390 C 0.09245 0.61876 0.34364 0.0
C1391 C 0.0769 0.624 0.3313 0.0
C1392 C 0.10843 0.67525 0.37043 0.0
C1393 C 0.10077 0.64643 0.35708 0.0
C1394 C 0.11952 0.68689 0.38483 0.0
C1395 C 0.1352 0.68258 0.39847 0.0
C1396 C 0.11289 0.65899 0.36987 0.0
C1397 C 0.13946 0.66628 0.3957 0.0
C1398 C 0.10443 0.62995 0.35654 0.0
C1399 C 0.07374 0.64052 0.33329 0.0
N1400 N 0.12832 0.65503 0.38205 0.0
N1401 N 0.08552 0.65106 0.34576 0.0
H1402 H 0.62909 0.83768 0.49555 0.0
H1403 H 0.57031 0.86318 0.71235 0.0
H1404 H 0.63725 0.82218 0.64817 0.0
H1405 H 0.58307 0.89721 0.59657 0.0
H1406 H 0.59226 0.84575 0.68435 0.0
H1407 H 0.60992 0.85782 0.52664 0.0
C1408 C 0.62702 0.83876 0.5357 0.0
C1409 C 0.63484 0.82852 0.56958 0.0
C1410 C 0.59027 0.85706 0.66523 0.0
C1411 C 0.61261 0.85093 0.60501 0.0
C1412 C 0.57769 0.86694 0.68085 0.0
C1413 C 0.57485 0.88162 0.65658 0.0
C1414 C 0.59982 0.86168 0.62416 0.0
C1415 C 0.58488 0.88598 0.61629 0.0
C1416 C 0.6161 0.85018 0.55334 0.0
C1417 C 0.63158 0.83008 0.62111 0.0
N1418 N 0.59681 0.87594 0.60084 0.0
N1419 N 0.6205 0.84093 0.63729 0.0
H1420 H 0.41402 0.39636 0.83741 0.0
H1421 H 0.39565 0.30406 0.8997 0.0
H1422 H 0.44773 0.35787 0.81272 0.0
H1423 H 0.35845 0.33999 0.89382 0.0
H1424 H 0.41514 0.3241 0.87192 0.0
H1425 H 0.39381 0.37648 0.86337 0.0
C1426 C 0.4172 0.38376 0.83774 0.0
C1427 C 0.4326 0.37878 0.82292 0.0
C1428 C 0.40271 0.32762 0.87642 0.0
C1429 C 0.40956 0.35601 0.85239 0.0
C1430 C 0.39156 0.31617 0.89228 0.0
C1431 C 0.37538 0.32034 0.89907 0.0
C1432 C 0.39775 0.3435 0.86776 0.0
C1433 C 0.37079 0.33623 0.88884 0.0
C1434 C 0.40564 0.37242 0.85227 0.0
C1435 C 0.43603 0.36229 0.82379 0.0
N1436 N 0.38194 0.34727 0.87402 0.0
N1437 N 0.42464 0.35154 0.83833 0.0
H1438 H 0.89414 0.19822 0.07318 0.0
H1439 H 0.91242 0.10653 0.14298 0.0
H1440 H 0.85669 0.1626 0.08657 0.0
H1441 H 0.94648 0.14518 0.16153 0.0
H1442 H 0.89216 0.12616 0.11602 0.0
H1443 H 0.91376 0.1783 0.10013 0.0
C1444 C 0.89002 0.18621 0.08206 0.0
C1445 C 0.87373 0.18209 0.07771 0.0
C1446 C 0.90408 0.13031 0.12597 0.0
C1447 C 0.89625 0.15908 0.10821 0.0
C1448 C 0.91567 0.11911 0.14107 0.0
C1449 C 0.93117 0.12423 0.15455 0.0
C1450 C 0.9081 0.14669 0.12387 0.0
C1451 C 0.93469 0.14068 0.15164 0.0
C1452 C 0.90125 0.17482 0.09745 0.0
C1453 C 0.86912 0.16631 0.08965 0.0
N1454 N 0.92329 0.15128 0.13657 0.0
N1455 N 0.88034 0.15534 0.10411 0.0
H1456 H 0.85838 0.66219 0.89142 0.0
H1457 H 0.95072 0.64476 0.8281 0.0
H1458 H 0.89644 0.69652 0.91622 0.0
H1459 H 0.91522 0.60716 0.84045 0.0
H1460 H 0.93055 0.66427 0.8547 0.0
H1461 H 0.87851 0.64229 0.86603 0.0
C1462 C 0.87095 0.66558 0.89123 0.0
C1463 C 0.87573 0.68106 0.90592 0.0
C1464 C 0.92717 0.65175 0.85181 0.0
C1465 C 0.8988 0.65836 0.87699 0.0
C1466 C 0.93868 0.64059 0.8366 0.0
C1467 C 0.93466 0.62429 0.83206 0.0
C1468 C 0.91141 0.64665 0.86202 0.0
C1469 C 0.91887 0.6196 0.84363 0.0
C1470 C 0.88243 0.65419 0.87702 0.0
C1471 C 0.8922 0.68474 0.90522 0.0
N1472 N 0.90779 0.63073 0.85776 0.0
N1473 N 0.90311 0.67351 0.8909 0.0
H1474 H 0.10879 0.19907 0.57523 0.0
H1475 H 0.09077 0.10699 0.64197 0.0
H1476 H 0.14626 0.16358 0.58738 0.0
H1477 H 0.05601 0.14507 0.65586 0.0
H1478 H 0.11101 0.12687 0.61639 0.0
H1479 H 0.08914 0.1789 0.60049 0.0
C1480 C 0.11291 0.18703 0.58349 0.0
C1481 C 0.12921 0.18302 0.57923 0.0
C1482 C 0.09894 0.13084 0.62494 0.0
C1483 C 0.10664 0.15971 0.60775 0.0
C1484 C 0.08736 0.1195 0.63922 0.0
C1485 C 0.07167 0.12438 0.65107 0.0
C1486 C 0.09475 0.14716 0.62214 0.0
C1487 C 0.06794 0.14075 0.64718 0.0
C1488 C 0.10165 0.17549 0.59789 0.0
C1489 C 0.13382 0.16721 0.59042 0.0
N1490 N 0.07937 0.15151 0.63306 0.0
N1491 N 0.12257 0.15609 0.60392 0.0
H1492 H 0.55746 0.36146 0.31827 0.0
H1493 H 0.64854 0.34268 0.39698 0.0
H1494 H 0.59296 0.3988 0.33694 0.0
H1495 H 0.60989 0.30814 0.40155 0.0
H1496 H 0.62927 0.36324 0.36926 0.0
H1497 H 0.57729 0.34165 0.3441 0.0
C1498 C 0.56944 0.36552 0.32805 0.0
C1499 C 0.57353 0.38184 0.32552 0.0
C1500 C 0.62506 0.35113 0.37622 0.0
C1501 C 0.59648 0.35908 0.35485 0.0
C1502 C 0.63606 0.33939 0.39171 0.0
C1503 C 0.63081 0.32367 0.40166 0.0
C1504 C 0.60876 0.34706 0.37028 0.0
C1505 C 0.61449 0.32009 0.39453 0.0
C1506 C 0.58079 0.35417 0.34278 0.0
C1507 C 0.58927 0.38634 0.3386 0.0
N1508 N 0.6041 0.33166 0.37934 0.0
N1509 N 0.60021 0.37501 0.35253 0.0
H1510 H 0.39396 0.80412 0.09119 0.0
H1511 H 0.41291 0.89724 0.14074 0.0
H1512 H 0.35754 0.84073 0.08096 0.0
H1513 H 0.44688 0.85885 0.16293 0.0
H1514 H 0.39252 0.8773 0.11645 0.0
H1515 H 0.41338 0.82442 0.11673 0.0
C1516 C 0.39 0.81644 0.09467 0.0
C1517 C 0.37407 0.8207 0.08389 0.0
C1518 C 0.40446 0.87327 0.12655 0.0
C1519 C 0.39645 0.84422 0.11274 0.0
C1520 C 0.41612 0.88466 0.14015 0.0
C1521 C 0.43165 0.87972 0.15387 0.0
C1522 C 0.40838 0.85686 0.12652 0.0
C1523 C 0.4351 0.86324 0.1527 0.0
C1524 C 0.40114 0.82808 0.10919 0.0
C1525 C 0.36968 0.8369 0.08912 0.0
N1526 N 0.42359 0.85246 0.13935 0.0
N1527 N 0.38083 0.8481 0.1029 0.0
H1528 H 0.94909 0.35989 0.64564 0.0
H1529 H 0.85637 0.34159 0.58901 0.0
H1530 H 0.91303 0.397 0.64562 0.0
H1531 H 0.89494 0.3087 0.55605 0.0
H1532 H 0.87636 0.36171 0.61511 0.0
H1533 H 0.92891 0.34065 0.6172 0.0
C1534 C 0.93693 0.36402 0.63938 0.0
C1535 C 0.93276 0.38009 0.64799 0.0
C1536 C 0.88041 0.35008 0.6021 0.0
C1537 C 0.90944 0.35801 0.61589 0.0
C1538 C 0.86901 0.33858 0.58745 0.0
C1539 C 0.87399 0.32343 0.57035 0.0
C1540 C 0.89686 0.34633 0.60008 0.0
C1541 C 0.89053 0.3202 0.56889 0.0
C1542 C 0.92538 0.35301 0.62312 0.0
C1543 C 0.91678 0.38474 0.63922 0.0
N1544 N 0.90132 0.33151 0.58366 0.0
N1545 N 0.90566 0.37373 0.62397 0.0
H1546 H 0.38767 0.18042 0.47719 0.0
H1547 H 0.43178 0.13895 0.25767 0.0
H1548 H 0.36194 0.17615 0.33687 0.0
H1549 H 0.42547 0.11139 0.39373 0.0
H1550 H 0.41077 0.15754 0.28635 0.0
H1551 H 0.40649 0.15961 0.44839 0.0
C1552 C 0.38603 0.1751 0.44029 0.0
C1553 C 0.37329 0.17993 0.40924 0.0
C1554 C 0.41399 0.14738 0.30968 0.0
C1555 C 0.39487 0.15661 0.37596 0.0
C1556 C 0.42599 0.13687 0.29364 0.0
C1557 C 0.4303 0.12367 0.3235 0.0
C1558 C 0.40671 0.14498 0.35665 0.0
C1559 C 0.4224 0.12142 0.36964 0.0
C1560 C 0.39667 0.16323 0.42415 0.0
C1561 C 0.3716 0.17265 0.36188 0.0
N1562 N 0.41113 0.13215 0.38533 0.0
N1563 N 0.38247 0.16152 0.34619 0.0
H1564 H 0.60957 0.70244 0.07731 0.0
H1565 H 0.591 0.60996 0.13745 0.0
H1566 H 0.64631 0.666 0.07964 0.0
H1567 H 0.55698 0.64824 0.16086 0.0
H1568 H 0.61107 0.62987 0.11115 0.0
H1569 H 0.58989 0.68243 0.10422 0.0
C1570 C 0.61353 0.69024 0.08376 0.0
C1571 C 0.62963 0.68591 0.07624 0.0
C1572 C 0.5992 0.6339 0.12197 0.0
C1573 C 0.60706 0.6628 0.10654 0.0
C1574 C 0.58771 0.62253 0.13671 0.0
C1575 C 0.57228 0.62744 0.15136 0.0
C1576 C 0.59519 0.65028 0.12155 0.0
C1577 C 0.56872 0.6439 0.14992 0.0
C1578 C 0.60227 0.67879 0.09908 0.0
C1579 C 0.63404 0.66989 0.08518 0.0
N1580 N 0.58006 0.65469 0.13529 0.0
N1581 N 0.6228 0.6589 0.09957 0.0
H1582 H 0.05608 0.8594 0.8323 0.0
H1583 H 0.14843 0.84211 0.89494 0.0
H1584 H 0.0914 0.89725 0.84182 0.0
H1585 H 0.11002 0.80882 0.92717 0.0
H1586 H 0.12838 0.86201 0.86837 0.0
H1587 H 0.0763 0.84021 0.86051 0.0
C1588 C 0.06809 0.86369 0.84052 0.0
C1589 C 0.07203 0.87997 0.83479 0.0
C1590 C 0.12438 0.85034 0.88136 0.0
C1591 C 0.09537 0.85797 0.86664 0.0
C1592 C 0.13581 0.83897 0.89631 0.0
C1593 C 0.1309 0.82378 0.91335 0.0
C1594 C 0.10795 0.8464 0.88286 0.0
C1595 C 0.11437 0.82038 0.91447 0.0
C1596 C 0.07964 0.85272 0.85668 0.0
C1597 C 0.08781 0.88482 0.84598 0.0
N1598 N 0.10353 0.83155 0.89927 0.0
N1599 N 0.09894 0.87385 0.86106 0.0
loop_
_geom_bond_atom_site_label_1
_geom_bond_atom_site_label_2
_geom_bond_distance
_geom_bond_site_symmetry_2
_ccdc_geom_bond_type
Co0 O1 2.216 . S
Co0 O2 2.091 . S
Co0 O4 2.004 . S
Co0 O10 2.021 . S
Co0 O12 2.137 1_554 S
Co0 O13 2.244 . S
O1 Co0 2.216 . S
O1 C8 1.247 . S
O2 Co0 2.091 . S
O2 C8 1.261 . S
C3 O12 1.247 . S
C3 O13 1.272 1_556 S
O4 Co0 2.004 . S
O4 C9 1.259 . S
Co5 O6 2.061 . S
Co5 O11 2.052 . S
Co5 O13 2.135 . S
O6 Co5 2.061 . S
O6 C9 1.235 . S
C7 O10 1.238 . S
C7 O11 1.241 . S
C8 O1 1.247 . S
C8 O2 1.261 . S
C9 O4 1.259 . S
C9 O6 1.235 . S
O10 Co0 2.021 . S
O10 C7 1.238 . S
O11 Co5 2.052 . S
O11 C7 1.241 . S
O12 Co0 2.137 1_556 S
O12 C3 1.247 . S
O13 Co0 2.244 . S
O13 C3 1.272 1_554 S
O13 Co5 2.135 . S
Co14 O15 2.216 . S
Co14 O16 2.091 . S
Co14 O18 2.004 . S
Co14 O24 2.021 . S
Co14 O26 2.137 . S
Co14 O27 2.244 . S
O15 Co14 2.216 . S
O15 C22 1.247 . S
O16 Co14 2.091 . S
O16 C22 1.261 . S
C17 O26 1.247 . S
C17 O27 1.272 . S
O18 Co14 2.004 . S
O18 C23 1.259 . S
Co19 O20 2.061 . S
Co19 O25 2.052 . S
Co19 O27 2.135 . S
O20 Co19 2.061 . S
O20 C23 1.235 . S
C21 O24 1.238 . S
C21 O25 1.241 . S
C22 O15 1.247 . S
C22 O16 1.261 . S
C23 O18 1.259 . S
C23 O20 1.235 . S
O24 Co14 2.021 . S
O24 C21 1.238 . S
O25 Co19 2.052 . S
O25 C21 1.241 . S
O26 Co14 2.137 . S
O26 C17 1.247 . S
O27 Co14 2.244 . S
O27 C17 1.272 . S
O27 Co19 2.135 . S
Co28 O29 2.216 . S
Co28 O30 2.091 . S
Co28 O32 2.004 . S
Co28 O38 2.021 . S
Co28 O40 2.137 . S
Co28 O41 2.244 . S
O29 Co28 2.216 . S
O29 C36 1.247 . S
O30 Co28 2.091 . S
O30 C36 1.261 . S
C31 O40 1.247 . S
C31 O41 1.272 . S
O32 Co28 2.004 . S
O32 C37 1.259 . S
Co33 O34 2.061 . S
Co33 O39 2.052 . S
Co33 O41 2.135 . S
O34 Co33 2.061 . S
O34 C37 1.235 . S
C35 O38 1.238 . S
C35 O39 1.241 . S
C36 O29 1.247 . S
C36 O30 1.261 . S
C37 O32 1.259 . S
C37 O34 1.235 . S
O38 Co28 2.021 . S
O38 C35 1.238 . S
O39 Co33 2.052 . S
O39 C35 1.241 . S
O40 Co28 2.137 . S
O40 C31 1.247 . S
O41 Co28 2.244 . S
O41 C31 1.272 . S
O41 Co33 2.135 . S
Co42 O43 2.216 . S
Co42 O44 2.091 . S
Co42 O46 2.004 . S
Co42 O52 2.021 . S
Co42 O54 2.137 . S
Co42 O55 2.244 . S
O43 Co42 2.216 . S
O43 C50 1.247 . S
O44 Co42 2.091 . S
O44 C50 1.261 . S
C45 O54 1.247 . S
C45 O55 1.272 . S
O46 Co42 2.004 . S
O46 C51 1.259 . S
Co47 O48 2.061 . S
Co47 O53 2.052 . S
Co47 O55 2.135 . S
O48 Co47 2.061 . S
O48 C51 1.235 . S
C49 O52 1.238 . S
C49 O53 1.241 . S
C50 O43 1.247 . S
C50 O44 1.261 . S
C51 O46 1.259 . S
C51 O48 1.235 . S
O52 Co42 2.021 . S
O52 C49 1.238 . S
O53 Co47 2.052 . S
O53 C49 1.241 . S
O54 Co42 2.137 . S
O54 C45 1.247 . S
O55 Co42 2.244 . S
O55 C45 1.272 . S
O55 Co47 2.135 . S
Co56 O57 2.216 . S
Co56 O58 2.091 . S
Co56 O60 2.004 . S
Co56 O66 2.021 . S
Co56 O68 2.137 . S
Co56 O69 2.244 . S
O57 Co56 2.216 . S
O57 C64 1.247 . S
O58 Co56 2.091 . S
O58 C64 1.261 . S
C59 O68 1.247 . S
C59 O69 1.272 . S
O60 Co56 2.004 . S
O60 C65 1.259 . S
Co61 O62 2.061 . S
Co61 O67 2.052 . S
Co61 O69 2.135 . S
O62 Co61 2.061 . S
O62 C65 1.235 . S
C63 O66 1.238 . S
C63 O67 1.241 . S
C64 O57 1.247 . S
C64 O58 1.261 . S
C65 O60 1.259 . S
C65 O62 1.235 . S
O66 Co56 2.021 . S
O66 C63 1.238 . S
O67 Co61 2.052 . S
O67 C63 1.241 . S
O68 Co56 2.137 . S
O68 C59 1.247 . S
O69 Co56 2.244 . S
O69 C59 1.272 . S
O69 Co61 2.135 . S
Co70 O71 2.216 . S
Co70 O72 2.091 . S
Co70 O74 2.004 . S
Co70 O80 2.021 . S
Co70 O82 2.137 . S
Co70 O83 2.244 . S
O71 Co70 2.216 . S
O71 C78 1.247 . S
O72 Co70 2.091 . S
O72 C78 1.261 . S
C73 O82 1.247 . S
C73 O83 1.272 . S
O74 Co70 2.004 . S
O74 C79 1.259 . S
Co75 O76 2.061 . S
Co75 O81 2.052 . S
Co75 O83 2.135 . S
O76 Co75 2.061 . S
O76 C79 1.235 . S
C77 O80 1.238 . S
C77 O81 1.241 . S
C78 O71 1.247 . S
C78 O72 1.261 . S
C79 O74 1.259 . S
C79 O76 1.235 . S
O80 Co70 2.021 . S
O80 C77 1.238 . S
O81 Co75 2.052 . S
O81 C77 1.241 . S
O82 Co70 2.137 . S
O82 C73 1.247 . S
O83 Co70 2.244 . S
O83 C73 1.272 . S
O83 Co75 2.135 . S
Co84 O85 2.216 . S
Co84 O86 2.091 . S
Co84 O88 2.004 . S
Co84 O94 2.021 . S
Co84 O96 2.137 1_556 S
Co84 O97 2.244 . S
O85 Co84 2.216 . S
O85 C92 1.247 . S
O86 Co84 2.091 . S
O86 C92 1.261 . S
C87 O96 1.247 . S
C87 O97 1.272 1_554 S
O88 Co84 2.004 . S
O88 C93 1.259 . S
Co89 O90 2.061 . S
Co89 O95 2.052 . S
Co89 O97 2.135 . S
O90 Co89 2.061 . S
O90 C93 1.235 . S
C91 O94 1.238 . S
C91 O95 1.241 . S
C92 O85 1.247 . S
C92 O86 1.261 . S
C93 O88 1.259 . S
C93 O90 1.235 . S
O94 Co84 2.021 . S
O94 C91 1.238 . S
O95 Co89 2.052 . S
O95 C91 1.241 . S
O96 Co84 2.137 1_554 S
O96 C87 1.247 . S
O97 Co84 2.244 . S
O97 C87 1.272 1_556 S
O97 Co89 2.135 . S
Co98 O99 2.216 . S
Co98 O100 2.091 . S
Co98 O102 2.004 . S
Co98 O108 2.021 . S
Co98 O110 2.137 . S
Co98 O111 2.244 . S
O99 Co98 2.216 . S
O99 C106 1.247 . S
O100 Co98 2.091 . S
O100 C106 1.261 . S
C101 O110 1.247 . S
C101 O111 1.272 . S
O102 Co98 2.004 . S
O102 C107 1.259 . S
Co103 O104 2.061 . S
Co103 O109 2.052 . S
Co103 O111 2.135 . S
O104 Co103 2.061 . S
O104 C107 1.235 . S
C105 O108 1.238 . S
C105 O109 1.241 . S
C106 O99 1.247 . S
C106 O100 1.261 . S
C107 O102 1.259 . S
C107 O104 1.235 . S
O108 Co98 2.021 . S
O108 C105 1.238 . S
O109 Co103 2.052 . S
O109 C105 1.241 . S
O110 Co98 2.137 . S
O110 C101 1.247 . S
O111 Co98 2.244 . S
O111 C101 1.272 . S
O111 Co103 2.135 . S
Co112 O113 2.216 . S
Co112 O114 2.091 . S
Co112 O116 2.004 . S
Co112 O122 2.021 . S
Co112 O124 2.137 1_556 S
Co112 O125 2.244 . S
O113 Co112 2.216 . S
O113 C120 1.247 . S
O114 Co112 2.091 . S
O114 C120 1.261 . S
C115 O124 1.247 . S
C115 O125 1.272 1_554 S
O116 Co112 2.004 . S
O116 C121 1.259 . S
Co117 O118 2.061 . S
Co117 O123 2.052 . S
Co117 O125 2.135 . S
O118 Co117 2.061 . S
O118 C121 1.235 . S
C119 O122 1.238 . S
C119 O123 1.241 . S
C120 O113 1.247 . S
C120 O114 1.261 . S
C121 O116 1.259 . S
C121 O118 1.235 . S
O122 Co112 2.021 . S
O122 C119 1.238 . S
O123 Co117 2.052 . S
O123 C119 1.241 . S
O124 Co112 2.137 1_554 S
O124 C115 1.247 . S
O125 Co112 2.244 . S
O125 C115 1.272 1_556 S
O125 Co117 2.135 . S
Co126 O127 2.216 . S
Co126 O128 2.091 . S
Co126 O130 2.004 . S
Co126 O136 2.021 . S
Co126 O138 2.137 . S
Co126 O139 2.244 . S
O127 Co126 2.216 . S
O127 C134 1.247 . S
O128 Co126 2.091 . S
O128 C134 1.261 . S
C129 O138 1.247 . S
C129 O139 1.272 . S
O130 Co126 2.004 . S
O130 C135 1.259 . S
Co131 O132 2.061 . S
Co131 O137 2.052 . S
Co131 O139 2.135 . S
O132 Co131 2.061 . S
O132 C135 1.235 . S
C133 O136 1.238 . S
C133 O137 1.241 . S
C134 O127 1.247 . S
C134 O128 1.261 . S
C135 O130 1.259 . S
C135 O132 1.235 . S
O136 Co126 2.021 . S
O136 C133 1.238 . S
O137 Co131 2.052 . S
O137 C133 1.241 . S
O138 Co126 2.137 . S
O138 C129 1.247 . S
O139 Co126 2.244 . S
O139 C129 1.272 . S
O139 Co131 2.135 . S
Co140 O141 2.216 . S
Co140 O142 2.091 . S
Co140 O144 2.004 . S
Co140 O150 2.021 . S
Co140 O152 2.137 . S
Co140 O153 2.244 . S
O141 Co140 2.216 . S
O141 C148 1.247 . S
O142 Co140 2.091 . S
O142 C148 1.261 . S
C143 O152 1.247 . S
C143 O153 1.272 . S
O144 Co140 2.004 . S
O144 C149 1.259 . S
Co145 O146 2.061 . S
Co145 O151 2.052 . S
Co145 O153 2.135 . S
O146 Co145 2.061 . S
O146 C149 1.235 . S
C147 O150 1.238 . S
C147 O151 1.241 . S
C148 O141 1.247 . S
C148 O142 1.261 . S
C149 O144 1.259 . S
C149 O146 1.235 . S
O150 Co140 2.021 . S
O150 C147 1.238 . S
O151 Co145 2.052 . S
O151 C147 1.241 . S
O152 Co140 2.137 . S
O152 C143 1.247 . S
O153 Co140 2.244 . S
O153 C143 1.272 . S
O153 Co145 2.135 . S
Co154 O155 2.216 . S
Co154 O156 2.091 . S
Co154 O158 2.004 . S
Co154 O164 2.021 . S
Co154 O166 2.137 . S
Co154 O167 2.244 . S
O155 Co154 2.216 . S
O155 C162 1.247 . S
O156 Co154 2.091 . S
O156 C162 1.261 . S
C157 O166 1.247 . S
C157 O167 1.272 . S
O158 Co154 2.004 . S
O158 C163 1.259 . S
Co159 O160 2.061 . S
Co159 O165 2.052 . S
Co159 O167 2.135 . S
O160 Co159 2.061 . S
O160 C163 1.235 . S
C161 O164 1.238 . S
C161 O165 1.241 . S
C162 O155 1.247 . S
C162 O156 1.261 . S
C163 O158 1.259 . S
C163 O160 1.235 . S
O164 Co154 2.021 . S
O164 C161 1.238 . S
O165 Co159 2.052 . S
O165 C161 1.241 . S
O166 Co154 2.137 . S
O166 C157 1.247 . S
O167 Co154 2.244 . S
O167 C157 1.272 . S
O167 Co159 2.135 . S
Co168 O169 2.216 . S
Co168 O170 2.091 . S
Co168 O172 2.004 . S
Co168 O178 2.021 . S
Co168 O180 2.137 . S
Co168 O181 2.244 . S
O169 Co168 2.216 . S
O169 C176 1.247 . S
O170 Co168 2.091 . S
O170 C176 1.261 . S
C171 O180 1.247 . S
C171 O181 1.272 . S
O172 Co168 2.004 . S
O172 C177 1.259 . S
Co173 O174 2.061 . S
Co173 O179 2.052 . S
Co173 O181 2.135 . S
O174 Co173 2.061 . S
O174 C177 1.235 . S
C175 O178 1.238 . S
C175 O179 1.241 . S
C176 O169 1.247 . S
C176 O170 1.261 . S
C177 O172 1.259 . S
C177 O174 1.235 . S
O178 Co168 2.021 . S
O178 C175 1.238 . S
O179 Co173 2.052 . S
O179 C175 1.241 . S
O180 Co168 2.137 . S
O180 C171 1.247 . S
O181 Co168 2.244 . S
O181 C171 1.272 . S
O181 Co173 2.135 . S
Co182 O183 2.216 . S
Co182 O184 2.091 . S
Co182 O186 2.004 . S
Co182 O192 2.021 . S
Co182 O194 2.137 . S
Co182 O195 2.244 . S
O183 Co182 2.216 . S
O183 C190 1.247 . S
O184 Co182 2.091 . S
O184 C190 1.261 . S
C185 O194 1.247 . S
C185 O195 1.272 . S
O186 Co182 2.004 . S
O186 C191 1.259 . S
Co187 O188 2.061 . S
Co187 O193 2.052 . S
Co187 O195 2.135 . S
O188 Co187 2.061 . S
O188 C191 1.235 . S
C189 O192 1.238 . S
C189 O193 1.241 . S
C190 O183 1.247 . S
C190 O184 1.261 . S
C191 O186 1.259 . S
C191 O188 1.235 . S
O192 Co182 2.021 . S
O192 C189 1.238 . S
O193 Co187 2.052 . S
O193 C189 1.241 . S
O194 Co182 2.137 . S
O194 C185 1.247 . S
O195 Co182 2.244 . S
O195 C185 1.272 . S
O195 Co187 2.135 . S
Co196 O197 2.216 . S
Co196 O198 2.091 . S
Co196 O200 2.004 . S
Co196 O206 2.021 . S
Co196 O208 2.137 1_554 S
Co196 O209 2.244 . S
O197 Co196 2.216 . S
O197 C204 1.247 . S
O198 Co196 2.091 . S
O198 C204 1.261 . S
C199 O208 1.247 . S
C199 O209 1.272 1_556 S
O200 Co196 2.004 . S
O200 C205 1.259 . S
Co201 O202 2.061 . S
Co201 O207 2.052 . S
Co201 O209 2.135 . S
O202 Co201 2.061 . S
O202 C205 1.235 . S
C203 O206 1.238 . S
C203 O207 1.241 . S
C204 O197 1.247 . S
C204 O198 1.261 . S
C205 O200 1.259 . S
C205 O202 1.235 . S
O206 Co196 2.021 . S
O206 C203 1.238 . S
O207 Co201 2.052 . S
O207 C203 1.241 . S
O208 Co196 2.137 1_556 S
O208 C199 1.247 . S
O209 Co196 2.244 . S
O209 C199 1.272 1_554 S
O209 Co201 2.135 . S
Co210 O211 2.216 . S
Co210 O212 2.091 . S
Co210 O214 2.004 . S
Co210 O220 2.021 . S
Co210 O222 2.137 . S
Co210 O223 2.244 . S
O211 Co210 2.216 . S
O211 C218 1.247 . S
O212 Co210 2.091 . S
O212 C218 1.261 . S
C213 O222 1.247 . S
C213 O223 1.272 . S
O214 Co210 2.004 . S
O214 C219 1.259 . S
Co215 O216 2.061 . S
Co215 O221 2.052 . S
Co215 O223 2.135 . S
O216 Co215 2.061 . S
O216 C219 1.235 . S
C217 O220 1.238 . S
C217 O221 1.241 . S
C218 O211 1.247 . S
C218 O212 1.261 . S
C219 O214 1.259 . S
C219 O216 1.235 . S
O220 Co210 2.021 . S
O220 C217 1.238 . S
O221 Co215 2.052 . S
O221 C217 1.241 . S
O222 Co210 2.137 . S
O222 C213 1.247 . S
O223 Co210 2.244 . S
O223 C213 1.272 . S
O223 Co215 2.135 . S
Co224 O225 2.216 . S
Co224 O226 2.091 . S
Co224 O228 2.004 . S
Co224 O234 2.021 . S
Co224 O236 2.137 . S
Co224 O237 2.244 . S
O225 Co224 2.216 . S
O225 C232 1.247 . S
O226 Co224 2.091 . S
O226 C232 1.261 . S
C227 O236 1.247 . S
C227 O237 1.272 . S
O228 Co224 2.004 . S
O228 C233 1.259 . S
Co229 O230 2.061 . S
Co229 O235 2.052 . S
Co229 O237 2.135 . S
O230 Co229 2.061 . S
O230 C233 1.235 . S
C231 O234 1.238 . S
C231 O235 1.241 . S
C232 O225 1.247 . S
C232 O226 1.261 . S
C233 O228 1.259 . S
C233 O230 1.235 . S
O234 Co224 2.021 . S
O234 C231 1.238 . S
O235 Co229 2.052 . S
O235 C231 1.241 . S
O236 Co224 2.137 . S
O236 C227 1.247 . S
O237 Co224 2.244 . S
O237 C227 1.272 . S
O237 Co229 2.135 . S
Co238 O239 2.216 . S
Co238 O240 2.091 . S
Co238 O242 2.004 . S
Co238 O248 2.021 . S
Co238 O250 2.137 . S
Co238 O251 2.244 . S
O239 Co238 2.216 . S
O239 C246 1.247 . S
O240 Co238 2.091 . S
O240 C246 1.261 . S
C241 O250 1.247 . S
C241 O251 1.272 . S
O242 Co238 2.004 . S
O242 C247 1.259 . S
Co243 O244 2.061 . S
Co243 O249 2.052 . S
Co243 O251 2.135 . S
O244 Co243 2.061 . S
O244 C247 1.235 . S
C245 O248 1.238 . S
C245 O249 1.241 . S
C246 O239 1.247 . S
C246 O240 1.261 . S
C247 O242 1.259 . S
C247 O244 1.235 . S
O248 Co238 2.021 . S
O248 C245 1.238 . S
O249 Co243 2.052 . S
O249 C245 1.241 . S
O250 Co238 2.137 . S
O250 C241 1.247 . S
O251 Co238 2.244 . S
O251 C241 1.272 . S
O251 Co243 2.135 . S
Co252 O253 2.216 . S
Co252 O254 2.091 . S
Co252 O256 2.004 . S
Co252 O262 2.021 . S
Co252 O264 2.137 1_554 S
Co252 O265 2.244 . S
O253 Co252 2.216 . S
O253 C260 1.247 . S
O254 Co252 2.091 . S
O254 C260 1.261 . S
C255 O264 1.247 . S
C255 O265 1.272 1_556 S
O256 Co252 2.004 . S
O256 C261 1.259 . S
Co257 O258 2.061 . S
Co257 O263 2.052 . S
Co257 O265 2.135 . S
O258 Co257 2.061 . S
O258 C261 1.235 . S
C259 O262 1.238 . S
C259 O263 1.241 . S
C260 O253 1.247 . S
C260 O254 1.261 . S
C261 O256 1.259 . S
C261 O258 1.235 . S
O262 Co252 2.021 . S
O262 C259 1.238 . S
O263 Co257 2.052 . S
O263 C259 1.241 . S
O264 Co252 2.137 1_556 S
O264 C255 1.247 . S
O265 Co252 2.244 . S
O265 C255 1.272 1_554 S
O265 Co257 2.135 . S
Co266 O267 2.216 . S
Co266 O268 2.091 . S
Co266 O270 2.004 . S
Co266 O276 2.021 . S
Co266 O278 2.137 . S
Co266 O279 2.244 . S
O267 Co266 2.216 . S
O267 C274 1.247 . S
O268 Co266 2.091 . S
O268 C274 1.261 . S
C269 O278 1.247 . S
C269 O279 1.272 . S
O270 Co266 2.004 . S
O270 C275 1.259 . S
Co271 O272 2.061 . S
Co271 O277 2.052 . S
Co271 O279 2.135 . S
O272 Co271 2.061 . S
O272 C275 1.235 . S
C273 O276 1.238 . S
C273 O277 1.241 . S
C274 O267 1.247 . S
C274 O268 1.261 . S
C275 O270 1.259 . S
C275 O272 1.235 . S
O276 Co266 2.021 . S
O276 C273 1.238 . S
O277 Co271 2.052 . S
O277 C273 1.241 . S
O278 Co266 2.137 . S
O278 C269 1.247 . S
O279 Co266 2.244 . S
O279 C269 1.272 . S
O279 Co271 2.135 . S
Co280 O281 2.216 . S
Co280 O282 2.091 . S
Co280 O284 2.004 . S
Co280 O290 2.021 . S
Co280 O292 2.137 1_556 S
Co280 O293 2.244 . S
O281 Co280 2.216 . S
O281 C288 1.247 . S
O282 Co280 2.091 . S
O282 C288 1.261 . S
C283 O292 1.247 . S
C283 O293 1.272 1_554 S
O284 Co280 2.004 . S
O284 C289 1.259 . S
Co285 O286 2.061 . S
Co285 O291 2.052 . S
Co285 O293 2.135 . S
O286 Co285 2.061 . S
O286 C289 1.235 . S
C287 O290 1.238 . S
C287 O291 1.241 . S
C288 O281 1.247 . S
C288 O282 1.261 . S
C289 O284 1.259 . S
C289 O286 1.235 . S
O290 Co280 2.021 . S
O290 C287 1.238 . S
O291 Co285 2.052 . S
O291 C287 1.241 . S
O292 Co280 2.137 1_554 S
O292 C283 1.247 . S
O293 Co280 2.244 . S
O293 C283 1.272 1_556 S
O293 Co285 2.135 . S
Co294 O295 2.216 . S
Co294 O296 2.091 . S
Co294 O298 2.004 . S
Co294 O304 2.021 . S
Co294 O306 2.137 . S
Co294 O307 2.244 . S
O295 Co294 2.216 . S
O295 C302 1.247 . S
O296 Co294 2.091 . S
O296 C302 1.261 . S
C297 O306 1.247 . S
C297 O307 1.272 . S
O298 Co294 2.004 . S
O298 C303 1.259 . S
Co299 O300 2.061 . S
Co299 O305 2.052 . S
Co299 O307 2.135 . S
O300 Co299 2.061 . S
O300 C303 1.235 . S
C301 O304 1.238 . S
C301 O305 1.241 . S
C302 O295 1.247 . S
C302 O296 1.261 . S
C303 O298 1.259 . S
C303 O300 1.235 . S
O304 Co294 2.021 . S
O304 C301 1.238 . S
O305 Co299 2.052 . S
O305 C301 1.241 . S
O306 Co294 2.137 . S
O306 C297 1.247 . S
O307 Co294 2.244 . S
O307 C297 1.272 . S
O307 Co299 2.135 . S
Co308 O309 2.216 . S
Co308 O310 2.091 . S
Co308 O312 2.004 . S
Co308 O318 2.021 . S
Co308 O320 2.137 . S
Co308 O321 2.244 . S
O309 Co308 2.216 . S
O309 C316 1.247 . S
O310 Co308 2.091 . S
O310 C316 1.261 . S
C311 O320 1.247 . S
C311 O321 1.272 . S
O312 Co308 2.004 . S
O312 C317 1.259 . S
Co313 O314 2.061 . S
Co313 O319 2.052 . S
Co313 O321 2.135 . S
O314 Co313 2.061 . S
O314 C317 1.235 . S
C315 O318 1.238 . S
C315 O319 1.241 . S
C316 O309 1.247 . S
C316 O310 1.261 . S
C317 O312 1.259 . S
C317 O314 1.235 . S
O318 Co308 2.021 . S
O318 C315 1.238 . S
O319 Co313 2.052 . S
O319 C315 1.241 . S
O320 Co308 2.137 . S
O320 C311 1.247 . S
O321 Co308 2.244 . S
O321 C311 1.272 . S
O321 Co313 2.135 . S
Co322 O323 2.216 . S
Co322 O324 2.091 . S
Co322 O326 2.004 . S
Co322 O332 2.021 . S
Co322 O334 2.137 . S
Co322 O335 2.244 . S
O323 Co322 2.216 . S
O323 C330 1.247 . S
O324 Co322 2.091 . S
O324 C330 1.261 . S
C325 O334 1.247 . S
C325 O335 1.272 . S
O326 Co322 2.004 . S
O326 C331 1.259 . S
Co327 O328 2.061 . S
Co327 O333 2.052 . S
Co327 O335 2.135 . S
O328 Co327 2.061 . S
O328 C331 1.235 . S
C329 O332 1.238 . S
C329 O333 1.241 . S
C330 O323 1.247 . S
C330 O324 1.261 . S
C331 O326 1.259 . S
C331 O328 1.235 . S
O332 Co322 2.021 . S
O332 C329 1.238 . S
O333 Co327 2.052 . S
O333 C329 1.241 . S
O334 Co322 2.137 . S
O334 C325 1.247 . S
O335 Co322 2.244 . S
O335 C325 1.272 . S
O335 Co327 2.135 . S
Co336 O337 2.216 . S
Co336 O338 2.091 . S
Co336 O340 2.004 . S
Co336 O346 2.021 . S
Co336 O348 2.137 . S
Co336 O349 2.244 . S
O337 Co336 2.216 . S
O337 C344 1.247 . S
O338 Co336 2.091 . S
O338 C344 1.261 . S
C339 O348 1.247 . S
C339 O349 1.272 . S
O340 Co336 2.004 . S
O340 C345 1.259 . S
Co341 O342 2.061 . S
Co341 O347 2.052 . S
Co341 O349 2.135 . S
O342 Co341 2.061 . S
O342 C345 1.235 . S
C343 O346 1.238 . S
C343 O347 1.241 . S
C344 O337 1.247 . S
C344 O338 1.261 . S
C345 O340 1.259 . S
C345 O342 1.235 . S
O346 Co336 2.021 . S
O346 C343 1.238 . S
O347 Co341 2.052 . S
O347 C343 1.241 . S
O348 Co336 2.137 . S
O348 C339 1.247 . S
O349 Co336 2.244 . S
O349 C339 1.272 . S
O349 Co341 2.135 . S
Co350 O351 2.216 . S
Co350 O352 2.091 . S
Co350 O354 2.004 . S
Co350 O360 2.021 . S
Co350 O362 2.137 . S
Co350 O363 2.244 . S
O351 Co350 2.216 . S
O351 C358 1.247 . S
O352 Co350 2.091 . S
O352 C358 1.261 . S
C353 O362 1.247 . S
C353 O363 1.272 . S
O354 Co350 2.004 . S
O354 C359 1.259 . S
Co355 O356 2.061 . S
Co355 O361 2.052 . S
Co355 O363 2.135 . S
O356 Co355 2.061 . S
O356 C359 1.235 . S
C357 O360 1.238 . S
C357 O361 1.241 . S
C358 O351 1.247 . S
C358 O352 1.261 . S
C359 O354 1.259 . S
C359 O356 1.235 . S
O360 Co350 2.021 . S
O360 C357 1.238 . S
O361 Co355 2.052 . S
O361 C357 1.241 . S
O362 Co350 2.137 . S
O362 C353 1.247 . S
O363 Co350 2.244 . S
O363 C353 1.272 . S
O363 Co355 2.135 . S
Co364 O365 2.216 . S
Co364 O366 2.091 . S
Co364 O368 2.004 . S
Co364 O374 2.021 . S
Co364 O376 2.137 1_556 S
Co364 O377 2.244 . S
O365 Co364 2.216 . S
O365 C372 1.247 . S
O366 Co364 2.091 . S
O366 C372 1.261 . S
C367 O376 1.247 . S
C367 O377 1.272 1_554 S
O368 Co364 2.004 . S
O368 C373 1.259 . S
Co369 O370 2.061 . S
Co369 O375 2.052 . S
Co369 O377 2.135 . S
O370 Co369 2.061 . S
O370 C373 1.235 . S
C371 O374 1.238 . S
C371 O375 1.241 . S
C372 O365 1.247 . S
C372 O366 1.261 . S
C373 O368 1.259 . S
C373 O370 1.235 . S
O374 Co364 2.021 . S
O374 C371 1.238 . S
O375 Co369 2.052 . S
O375 C371 1.241 . S
O376 Co364 2.137 1_554 S
O376 C367 1.247 . S
O377 Co364 2.244 . S
O377 C367 1.272 1_556 S
O377 Co369 2.135 . S
Co378 O379 2.216 . S
Co378 O380 2.091 . S
Co378 O382 2.004 . S
Co378 O388 2.021 . S
Co378 O390 2.137 . S
Co378 O391 2.244 . S
O379 Co378 2.216 . S
O379 C386 1.247 . S
O380 Co378 2.091 . S
O380 C386 1.261 . S
C381 O390 1.247 . S
C381 O391 1.272 . S
O382 Co378 2.004 . S
O382 C387 1.259 . S
Co383 O384 2.061 . S
Co383 O389 2.052 . S
Co383 O391 2.135 . S
O384 Co383 2.061 . S
O384 C387 1.235 . S
C385 O388 1.238 . S
C385 O389 1.241 . S
C386 O379 1.247 . S
C386 O380 1.261 . S
C387 O382 1.259 . S
C387 O384 1.235 . S
O388 Co378 2.021 . S
O388 C385 1.238 . S
O389 Co383 2.052 . S
O389 C385 1.241 . S
O390 Co378 2.137 . S
O390 C381 1.247 . S
O391 Co378 2.244 . S
O391 C381 1.272 . S
O391 Co383 2.135 . S
Co392 O393 2.216 . S
Co392 O394 2.091 . S
Co392 O396 2.004 . S
Co392 O402 2.021 . S
Co392 O404 2.137 1_554 S
Co392 O405 2.244 . S
O393 Co392 2.216 . S
O393 C400 1.247 . S
O394 Co392 2.091 . S
O394 C400 1.261 . S
C395 O404 1.247 . S
C395 O405 1.272 1_556 S
O396 Co392 2.004 . S
O396 C401 1.259 . S
Co397 O398 2.061 . S
Co397 O403 2.052 . S
Co397 O405 2.135 . S
O398 Co397 2.061 . S
O398 C401 1.235 . S
C399 O402 1.238 . S
C399 O403 1.241 . S
C400 O393 1.247 . S
C400 O394 1.261 . S
C401 O396 1.259 . S
C401 O398 1.235 . S
O402 Co392 2.021 . S
O402 C399 1.238 . S
O403 Co397 2.052 . S
O403 C399 1.241 . S
O404 Co392 2.137 1_556 S
O404 C395 1.247 . S
O405 Co392 2.244 . S
O405 C395 1.272 1_554 S
O405 Co397 2.135 . S
Co406 O407 2.216 . S
Co406 O408 2.091 . S
Co406 O410 2.004 . S
Co406 O416 2.021 . S
Co406 O418 2.137 . S
Co406 O419 2.244 . S
O407 Co406 2.216 . S
O407 C414 1.247 . S
O408 Co406 2.091 . S
O408 C414 1.261 . S
C409 O418 1.247 . S
C409 O419 1.272 . S
O410 Co406 2.004 . S
O410 C415 1.259 . S
Co411 O412 2.061 . S
Co411 O417 2.052 . S
Co411 O419 2.135 . S
O412 Co411 2.061 . S
O412 C415 1.235 . S
C413 O416 1.238 . S
C413 O417 1.241 . S
C414 O407 1.247 . S
C414 O408 1.261 . S
C415 O410 1.259 . S
C415 O412 1.235 . S
O416 Co406 2.021 . S
O416 C413 1.238 . S
O417 Co411 2.052 . S
O417 C413 1.241 . S
O418 Co406 2.137 . S
O418 C409 1.247 . S
O419 Co406 2.244 . S
O419 C409 1.272 . S
O419 Co411 2.135 . S
Co420 O421 2.216 . S
Co420 O422 2.091 . S
Co420 O424 2.004 . S
Co420 O430 2.021 . S
Co420 O432 2.137 . S
Co420 O433 2.244 . S
O421 Co420 2.216 . S
O421 C428 1.247 . S
O422 Co420 2.091 . S
O422 C428 1.261 . S
C423 O432 1.247 . S
C423 O433 1.272 . S
O424 Co420 2.004 . S
O424 C429 1.259 . S
Co425 O426 2.061 . S
Co425 O431 2.052 . S
Co425 O433 2.135 . S
O426 Co425 2.061 . S
O426 C429 1.235 . S
C427 O430 1.238 . S
C427 O431 1.241 . S
C428 O421 1.247 . S
C428 O422 1.261 . S
C429 O424 1.259 . S
C429 O426 1.235 . S
O430 Co420 2.021 . S
O430 C427 1.238 . S
O431 Co425 2.052 . S
O431 C427 1.241 . S
O432 Co420 2.137 . S
O432 C423 1.247 . S
O433 Co420 2.244 . S
O433 C423 1.272 . S
O433 Co425 2.135 . S
Co434 O435 2.216 . S
Co434 O436 2.091 . S
Co434 O438 2.004 . S
Co434 O444 2.021 . S
Co434 O446 2.137 . S
Co434 O447 2.244 . S
O435 Co434 2.216 . S
O435 C442 1.247 . S
O436 Co434 2.091 . S
O436 C442 1.261 . S
C437 O446 1.247 . S
C437 O447 1.272 . S
O438 Co434 2.004 . S
O438 C443 1.259 . S
Co439 O440 2.061 . S
Co439 O445 2.052 . S
Co439 O447 2.135 . S
O440 Co439 2.061 . S
O440 C443 1.235 . S
C441 O444 1.238 . S
C441 O445 1.241 . S
C442 O435 1.247 . S
C442 O436 1.261 . S
C443 O438 1.259 . S
C443 O440 1.235 . S
O444 Co434 2.021 . S
O444 C441 1.238 . S
O445 Co439 2.052 . S
O445 C441 1.241 . S
O446 Co434 2.137 . S
O446 C437 1.247 . S
O447 Co434 2.244 . S
O447 C437 1.272 . S
O447 Co439 2.135 . S
H448 C454 0.930 . S
H449 C458 0.930 . S
H450 C463 0.929 . S
H451 C461 0.929 . S
H452 C456 0.929 . S
H453 C462 0.929 . S
C454 H448 0.930 . S
C454 C455 1.367 1_554 S
C454 C462 1.378 . S
C455 C454 1.367 1_556 S
C455 C463 1.433 . S
C456 H452 0.929 . S
C456 C458 1.378 . S
C456 C460 1.350 1_556 S
C457 C460 1.463 1_556 S
C457 C462 1.350 1_556 S
C457 N465 1.427 . S
C458 H449 0.930 . S
C458 C456 1.378 . S
C458 C459 1.367 1_556 S
C459 C458 1.367 1_554 S
C459 C461 1.433 . S
C460 C456 1.350 1_554 S
C460 C457 1.463 1_554 S
C460 N464 1.427 . S
C461 H451 0.929 . S
C461 C459 1.433 . S
C461 N464 1.384 . S
C462 H453 0.929 . S
C462 C454 1.378 . S
C462 C457 1.350 1_554 S
C463 H450 0.929 . S
C463 C455 1.433 . S
C463 N465 1.384 . S
N464 C460 1.427 . S
N464 C461 1.384 . S
N465 C457 1.427 . S
N465 C463 1.384 . S
H466 C472 0.930 . S
H467 C476 0.930 . S
H468 C481 0.929 . S
H469 C479 0.929 . S
H470 C474 0.929 . S
H471 C480 0.929 . S
C472 H466 0.930 . S
C472 C473 1.367 . S
C472 C480 1.378 . S
C473 C472 1.367 . S
C473 C481 1.433 . S
C474 H470 0.929 . S
C474 C476 1.378 . S
C474 C478 1.350 . S
C475 C478 1.463 1_565 S
C475 C480 1.350 . S
C475 N483 1.427 . S
C476 H467 0.930 . S
C476 C474 1.378 . S
C476 C477 1.367 . S
C477 C476 1.367 . S
C477 C479 1.433 . S
C478 C474 1.350 . S
C478 C475 1.463 1_545 S
C478 N482 1.427 . S
C479 H469 0.929 . S
C479 C477 1.433 . S
C479 N482 1.384 . S
C480 H471 0.929 . S
C480 C472 1.378 . S
C480 C475 1.350 . S
C481 H468 0.929 . S
C481 C473 1.433 . S
C481 N483 1.384 . S
N482 C478 1.427 . S
N482 C479 1.384 . S
N483 C475 1.427 . S
N483 C481 1.384 . S
H484 C490 0.930 . S
H485 C494 0.930 . S
H486 C499 0.929 . S
H487 C497 0.929 . S
H488 C492 0.929 . S
H489 C498 0.929 . S
C490 H484 0.930 . S
C490 C491 1.367 . S
C490 C498 1.378 . S
C491 C490 1.367 . S
C491 C499 1.433 . S
C492 H488 0.929 . S
C492 C494 1.378 . S
C492 C496 1.350 . S
C493 C496 1.463 . S
C493 C498 1.350 . S
C493 N501 1.427 . S
C494 H485 0.930 . S
C494 C492 1.378 . S
C494 C495 1.367 . S
C495 C494 1.367 . S
C495 C497 1.433 . S
C496 C492 1.350 . S
C496 C493 1.463 . S
C496 N500 1.427 . S
C497 H487 0.929 . S
C497 C495 1.433 . S
C497 N500 1.384 . S
C498 H489 0.929 . S
C498 C490 1.378 . S
C498 C493 1.350 . S
C499 H486 0.929 . S
C499 C491 1.433 . S
C499 N501 1.384 . S
N500 C496 1.427 . S
N500 C497 1.384 . S
N501 C493 1.427 . S
N501 C499 1.384 . S
H502 C508 0.930 . S
H503 C512 0.930 . S
H504 C517 0.929 . S
H505 C515 0.929 . S
H506 C510 0.929 . S
H507 C516 0.929 . S
C508 H502 0.930 . S
C508 C509 1.367 . S
C508 C516 1.378 . S
C509 C508 1.367 . S
C509 C517 1.433 . S
C510 H506 0.929 . S
C510 C512 1.378 . S
C510 C514 1.350 . S
C511 C514 1.463 1_545 S
C511 C516 1.350 . S
C511 N519 1.427 . S
C512 H503 0.930 . S
C512 C510 1.378 . S
C512 C513 1.367 . S
C513 C512 1.367 . S
C513 C515 1.433 . S
C514 C510 1.350 . S
C514 C511 1.463 1_565 S
C514 N518 1.427 . S
C515 H505 0.929 . S
C515 C513 1.433 . S
C515 N518 1.384 . S
C516 H507 0.929 . S
C516 C508 1.378 . S
C516 C511 1.350 . S
C517 H504 0.929 . S
C517 C509 1.433 . S
C517 N519 1.384 . S
N518 C514 1.427 . S
N518 C515 1.384 . S
N519 C511 1.427 . S
N519 C517 1.384 . S
H520 C526 0.930 . S
H521 C530 0.930 . S
H522 C535 0.929 . S
H523 C533 0.929 . S
H524 C528 0.929 . S
H525 C534 0.929 . S
C526 H520 0.930 . S
C526 C527 1.367 . S
C526 C534 1.378 . S
C527 C526 1.367 . S
C527 C535 1.433 1_554 S
C528 H524 0.929 . S
C528 C530 1.378 . S
C528 C532 1.350 . S
C529 C532 1.463 1_554 S
C529 C534 1.350 . S
C529 N537 1.427 1_554 S
C530 H521 0.930 . S
C530 C528 1.378 . S
C530 C531 1.367 . S
C531 C530 1.367 . S
C531 C533 1.433 1_556 S
C532 C528 1.350 . S
C532 C529 1.463 1_556 S
C532 N536 1.427 1_556 S
C533 H523 0.929 . S
C533 C531 1.433 1_554 S
C533 N536 1.384 . S
C534 H525 0.929 . S
C534 C526 1.378 . S
C534 C529 1.350 . S
C535 H522 0.929 . S
C535 C527 1.433 1_556 S
C535 N537 1.384 . S
N536 C532 1.427 1_554 S
N536 C533 1.384 . S
N537 C529 1.427 1_556 S
N537 C535 1.384 . S
H538 C544 0.930 . S
H539 C548 0.930 . S
H540 C553 0.929 . S
H541 C551 0.929 . S
H542 C546 0.929 . S
H543 C552 0.929 . S
C544 H538 0.930 . S
C544 C545 1.367 . S
C544 C552 1.378 . S
C545 C544 1.367 . S
C545 C553 1.433 . S
C546 H542 0.929 . S
C546 C548 1.378 . S
C546 C550 1.350 . S
C547 C550 1.463 1_565 S
C547 C552 1.350 . S
C547 N555 1.427 . S
C548 H539 0.930 . S
C548 C546 1.378 . S
C548 C549 1.367 . S
C549 C548 1.367 . S
C549 C551 1.433 . S
C550 C546 1.350 . S
C550 C547 1.463 1_545 S
C550 N554 1.427 . S
C551 H541 0.929 . S
C551 C549 1.433 . S
C551 N554 1.384 . S
C552 H543 0.929 . S
C552 C544 1.378 . S
C552 C547 1.350 . S
C553 H540 0.929 . S
C553 C545 1.433 . S
C553 N555 1.384 . S
N554 C550 1.427 . S
N554 C551 1.384 . S
N555 C547 1.427 . S
N555 C553 1.384 . S
H556 C562 0.930 . S
H557 C566 0.930 . S
H558 C571 0.929 . S
H559 C569 0.929 . S
H560 C564 0.929 . S
H561 C570 0.929 . S
C562 H556 0.930 . S
C562 C563 1.367 . S
C562 C570 1.378 . S
C563 C562 1.367 . S
C563 C571 1.433 . S
C564 H560 0.929 . S
C564 C566 1.378 . S
C564 C568 1.350 . S
C565 C568 1.463 . S
C565 C570 1.350 . S
C565 N573 1.427 . S
C566 H557 0.930 . S
C566 C564 1.378 . S
C566 C567 1.367 . S
C567 C566 1.367 . S
C567 C569 1.433 . S
C568 C564 1.350 . S
C568 C565 1.463 . S
C568 N572 1.427 . S
C569 H559 0.929 . S
C569 C567 1.433 . S
C569 N572 1.384 . S
C570 H561 0.929 . S
C570 C562 1.378 . S
C570 C565 1.350 . S
C571 H558 0.929 . S
C571 C563 1.433 . S
C571 N573 1.384 . S
N572 C568 1.427 . S
N572 C569 1.384 . S
N573 C565 1.427 . S
N573 C571 1.384 . S
H574 C580 0.930 . S
H575 C584 0.930 . S
H576 C589 0.929 . S
H577 C587 0.929 . S
H578 C582 0.929 . S
H579 C588 0.929 . S
C580 H574 0.930 . S
C580 C581 1.367 . S
C580 C588 1.378 . S
C581 C580 1.367 . S
C581 C589 1.433 . S
C582 H578 0.929 . S
C582 C584 1.378 . S
C582 C586 1.350 . S
C583 C586 1.463 1_565 S
C583 C588 1.350 . S
C583 N591 1.427 . S
C584 H575 0.930 . S
C584 C582 1.378 . S
C584 C585 1.367 . S
C585 C584 1.367 . S
C585 C587 1.433 . S
C586 C582 1.350 . S
C586 C583 1.463 1_545 S
C586 N590 1.427 . S
C587 H577 0.929 . S
C587 C585 1.433 . S
C587 N590 1.384 . S
C588 H579 0.929 . S
C588 C580 1.378 . S
C588 C583 1.350 . S
C589 H576 0.929 . S
C589 C581 1.433 . S
C589 N591 1.384 . S
N590 C586 1.427 . S
N590 C587 1.384 . S
N591 C583 1.427 . S
N591 C589 1.384 . S
H592 C598 0.930 . S
H593 C602 0.930 . S
H594 C607 0.929 . S
H595 C605 0.929 . S
H596 C600 0.929 . S
H597 C606 0.929 . S
C598 H592 0.930 . S
C598 C599 1.367 . S
C598 C606 1.378 . S
C599 C598 1.367 . S
C599 C607 1.433 . S
C600 H596 0.929 . S
C600 C602 1.378 . S
C600 C604 1.350 . S
C601 C604 1.463 . S
C601 C606 1.350 . S
C601 N609 1.427 . S
C602 H593 0.930 . S
C602 C600 1.378 . S
C602 C603 1.367 . S
C603 C602 1.367 . S
C603 C605 1.433 . S
C604 C600 1.350 . S
C604 C601 1.463 . S
C604 N608 1.427 . S
C605 H595 0.929 . S
C605 C603 1.433 . S
C605 N608 1.384 . S
C606 H597 0.929 . S
C606 C598 1.378 . S
C606 C601 1.350 . S
C607 H594 0.929 . S
C607 C599 1.433 . S
C607 N609 1.384 . S
N608 C604 1.427 . S
N608 C605 1.384 . S
N609 C601 1.427 . S
N609 C607 1.384 . S
H610 C616 0.930 . S
H611 C620 0.930 . S
H612 C625 0.929 . S
H613 C623 0.929 . S
H614 C618 0.929 . S
H615 C624 0.929 . S
C616 H610 0.930 . S
C616 C617 1.367 . S
C616 C624 1.378 . S
C617 C616 1.367 . S
C617 C625 1.433 . S
C618 H614 0.929 . S
C618 C620 1.378 . S
C618 C622 1.350 . S
C619 C622 1.463 . S
C619 C624 1.350 . S
C619 N627 1.427 . S
C620 H611 0.930 . S
C620 C618 1.378 . S
C620 C621 1.367 . S
C621 C620 1.367 . S
C621 C623 1.433 . S
C622 C618 1.350 . S
C622 C619 1.463 . S
C622 N626 1.427 . S
C623 H613 0.929 . S
C623 C621 1.433 . S
C623 N626 1.384 . S
C624 H615 0.929 . S
C624 C616 1.378 . S
C624 C619 1.350 . S
C625 H612 0.929 . S
C625 C617 1.433 . S
C625 N627 1.384 . S
N626 C622 1.427 . S
N626 C623 1.384 . S
N627 C619 1.427 . S
N627 C625 1.384 . S
H628 C634 0.930 . S
H629 C638 0.930 . S
H630 C643 0.929 . S
H631 C641 0.929 . S
H632 C636 0.929 . S
H633 C642 0.929 . S
C634 H628 0.930 . S
C634 C635 1.367 . S
C634 C642 1.378 . S
C635 C634 1.367 . S
C635 C643 1.433 1_556 S
C636 H632 0.929 . S
C636 C638 1.378 . S
C636 C640 1.350 . S
C637 C640 1.463 1_556 S
C637 C642 1.350 . S
C637 N645 1.427 1_556 S
C638 H629 0.930 . S
C638 C636 1.378 . S
C638 C639 1.367 . S
C639 C638 1.367 . S
C639 C641 1.433 1_554 S
C640 C636 1.350 . S
C640 C637 1.463 1_554 S
C640 N644 1.427 1_554 S
C641 H631 0.929 . S
C641 C639 1.433 1_556 S
C641 N644 1.384 . S
C642 H633 0.929 . S
C642 C634 1.378 . S
C642 C637 1.350 . S
C643 H630 0.929 . S
C643 C635 1.433 1_554 S
C643 N645 1.384 . S
N644 C640 1.427 1_556 S
N644 C641 1.384 . S
N645 C637 1.427 1_554 S
N645 C643 1.384 . S
H646 C652 0.930 . S
H647 C656 0.930 . S
H648 C661 0.929 . S
H649 C659 0.929 . S
H650 C654 0.929 . S
H651 C660 0.929 . S
C652 H646 0.930 . S
C652 C653 1.367 . S
C652 C660 1.378 . S
C653 C652 1.367 . S
C653 C661 1.433 . S
C654 H650 0.929 . S
C654 C656 1.378 . S
C654 C658 1.350 . S
C655 C658 1.463 . S
C655 C660 1.350 . S
C655 N663 1.427 . S
C656 H647 0.930 . S
C656 C654 1.378 . S
C656 C657 1.367 . S
C657 C656 1.367 . S
C657 C659 1.433 . S
C658 C654 1.350 . S
C658 C655 1.463 . S
C658 N662 1.427 . S
C659 H649 0.929 . S
C659 C657 1.433 . S
C659 N662 1.384 . S
C660 H651 0.929 . S
C660 C652 1.378 . S
C660 C655 1.350 . S
C661 H648 0.929 . S
C661 C653 1.433 . S
C661 N663 1.384 . S
N662 C658 1.427 . S
N662 C659 1.384 . S
N663 C655 1.427 . S
N663 C661 1.384 . S
H664 C670 0.930 . S
H665 C674 0.930 . S
H666 C679 0.929 . S
H667 C677 0.929 . S
H668 C672 0.929 . S
H669 C678 0.929 . S
C670 H664 0.930 . S
C670 C671 1.367 . S
C670 C678 1.378 . S
C671 C670 1.367 . S
C671 C679 1.433 . S
C672 H668 0.929 . S
C672 C674 1.378 . S
C672 C676 1.350 . S
C673 C676 1.463 . S
C673 C678 1.350 . S
C673 N681 1.427 . S
C674 H665 0.930 . S
C674 C672 1.378 . S
C674 C675 1.367 . S
C675 C674 1.367 . S
C675 C677 1.433 . S
C676 C672 1.350 . S
C676 C673 1.463 . S
C676 N680 1.427 . S
C677 H667 0.929 . S
C677 C675 1.433 . S
C677 N680 1.384 . S
C678 H669 0.929 . S
C678 C670 1.378 . S
C678 C673 1.350 . S
C679 H666 0.929 . S
C679 C671 1.433 . S
C679 N681 1.384 . S
N680 C676 1.427 . S
N680 C677 1.384 . S
N681 C673 1.427 . S
N681 C679 1.384 . S
H682 C688 0.930 . S
H683 C692 0.930 . S
H684 C697 0.929 . S
H685 C695 0.929 . S
H686 C690 0.929 . S
H687 C696 0.929 . S
C688 H682 0.930 . S
C688 C689 1.367 . S
C688 C696 1.378 . S
C689 C688 1.367 . S
C689 C697 1.433 . S
C690 H686 0.929 . S
C690 C692 1.378 . S
C690 C694 1.350 . S
C691 C694 1.463 . S
C691 C696 1.350 . S
C691 N699 1.427 . S
C692 H683 0.930 . S
C692 C690 1.378 . S
C692 C693 1.367 . S
C693 C692 1.367 . S
C693 C695 1.433 . S
C694 C690 1.350 . S
C694 C691 1.463 . S
C694 N698 1.427 . S
C695 H685 0.929 . S
C695 C693 1.433 . S
C695 N698 1.384 . S
C696 H687 0.929 . S
C696 C688 1.378 . S
C696 C691 1.350 . S
C697 H684 0.929 . S
C697 C689 1.433 . S
C697 N699 1.384 . S
N698 C694 1.427 . S
N698 C695 1.384 . S
N699 C691 1.427 . S
N699 C697 1.384 . S
H700 C706 0.930 . S
H701 C710 0.930 . S
H702 C715 0.929 . S
H703 C713 0.929 . S
H704 C708 0.929 . S
H705 C714 0.929 . S
C706 H700 0.930 . S
C706 C707 1.367 . S
C706 C714 1.378 . S
C707 C706 1.367 . S
C707 C715 1.433 . S
C708 H704 0.929 . S
C708 C710 1.378 . S
C708 C712 1.350 . S
C709 C712 1.463 1_554 S
C709 C714 1.350 . S
C709 N717 1.427 . S
C710 H701 0.930 . S
C710 C708 1.378 . S
C710 C711 1.367 . S
C711 C710 1.367 . S
C711 C713 1.433 . S
C712 C708 1.350 . S
C712 C709 1.463 1_556 S
C712 N716 1.427 . S
C713 H703 0.929 . S
C713 C711 1.433 . S
C713 N716 1.384 . S
C714 H705 0.929 . S
C714 C706 1.378 . S
C714 C709 1.350 . S
C715 H702 0.929 . S
C715 C707 1.433 . S
C715 N717 1.384 . S
N716 C712 1.427 . S
N716 C713 1.384 . S
N717 C709 1.427 . S
N717 C715 1.384 . S
H718 C724 0.930 . S
H719 C728 0.930 . S
H720 C733 0.929 . S
H721 C731 0.929 . S
H722 C726 0.929 . S
H723 C732 0.929 . S
C724 H718 0.930 . S
C724 C725 1.367 . S
C724 C732 1.378 . S
C725 C724 1.367 . S
C725 C733 1.433 . S
C726 H722 0.929 . S
C726 C728 1.378 . S
C726 C730 1.350 . S
C727 C730 1.463 . S
C727 C732 1.350 . S
C727 N735 1.427 . S
C728 H719 0.930 . S
C728 C726 1.378 . S
C728 C729 1.367 . S
C729 C728 1.367 . S
C729 C731 1.433 . S
C730 C726 1.350 . S
C730 C727 1.463 . S
C730 N734 1.427 . S
C731 H721 0.929 . S
C731 C729 1.433 . S
C731 N734 1.384 . S
C732 H723 0.929 . S
C732 C724 1.378 . S
C732 C727 1.350 . S
C733 H720 0.929 . S
C733 C725 1.433 . S
C733 N735 1.384 . S
N734 C730 1.427 . S
N734 C731 1.384 . S
N735 C727 1.427 . S
N735 C733 1.384 . S
H736 C742 0.930 . S
H737 C746 0.930 . S
H738 C751 0.929 . S
H739 C749 0.929 . S
H740 C744 0.929 . S
H741 C750 0.929 . S
C742 H736 0.930 . S
C742 C743 1.367 . S
C742 C750 1.378 . S
C743 C742 1.367 . S
C743 C751 1.433 . S
C744 H740 0.929 . S
C744 C746 1.378 . S
C744 C748 1.350 . S
C745 C748 1.463 . S
C745 C750 1.350 . S
C745 N753 1.427 . S
C746 H737 0.930 . S
C746 C744 1.378 . S
C746 C747 1.367 . S
C747 C746 1.367 . S
C747 C749 1.433 . S
C748 C744 1.350 . S
C748 C745 1.463 . S
C748 N752 1.427 . S
C749 H739 0.929 . S
C749 C747 1.433 . S
C749 N752 1.384 . S
C750 H741 0.929 . S
C750 C742 1.378 . S
C750 C745 1.350 . S
C751 H738 0.929 . S
C751 C743 1.433 . S
C751 N753 1.384 . S
N752 C748 1.427 . S
N752 C749 1.384 . S
N753 C745 1.427 . S
N753 C751 1.384 . S
H754 C760 0.930 . S
H755 C764 0.930 . S
H756 C769 0.929 1_655 S
H757 C767 0.907 1_455 S
H758 C762 0.929 . S
H759 C768 0.929 . S
C760 H754 0.930 . S
C760 C761 1.367 . S
C760 C768 1.378 1_556 S
C761 C760 1.367 . S
C761 C769 1.433 . S
C762 H758 0.929 . S
C762 C764 1.378 . S
C762 C766 1.350 . S
C763 C766 1.463 1_455 S
C763 C768 1.350 . S
C763 N771 1.428 1_454 S
C764 H755 0.930 . S
C764 C762 1.378 . S
C764 C765 1.367 . S
C765 C764 1.367 . S
C765 C767 1.433 . S
C766 C762 1.350 . S
C766 C763 1.463 1_655 S
C766 N770 1.427 1_655 S
C767 H757 0.907 1_655 S
C767 C765 1.433 . S
C767 N770 1.384 1_655 S
C768 H759 0.929 . S
C768 C760 1.378 1_554 S
C768 C763 1.350 . S
C769 H756 0.929 1_455 S
C769 C761 1.433 . S
C769 N771 1.383 1_455 S
N770 C766 1.427 1_455 S
N770 C767 1.384 1_455 S
N771 C763 1.428 1_656 S
N771 C769 1.383 1_655 S
H772 C778 0.930 . S
H773 C782 0.930 . S
H774 C787 0.929 . S
H775 C785 0.929 . S
H776 C780 0.929 . S
H777 C786 0.929 . S
C778 H772 0.930 . S
C778 C779 1.367 . S
C778 C786 1.378 . S
C779 C778 1.367 . S
C779 C787 1.433 . S
C780 H776 0.929 . S
C780 C782 1.378 . S
C780 C784 1.350 . S
C781 C784 1.463 . S
C781 C786 1.350 . S
C781 N789 1.427 . S
C782 H773 0.930 . S
C782 C780 1.378 . S
C782 C783 1.367 . S
C783 C782 1.367 . S
C783 C785 1.433 . S
C784 C780 1.350 . S
C784 C781 1.463 . S
C784 N788 1.427 . S
C785 H775 0.929 . S
C785 C783 1.433 . S
C785 N788 1.384 . S
C786 H777 0.929 . S
C786 C778 1.378 . S
C786 C781 1.350 . S
C787 H774 0.929 . S
C787 C779 1.433 . S
C787 N789 1.384 . S
N788 C784 1.427 . S
N788 C785 1.384 . S
N789 C781 1.427 . S
N789 C787 1.384 . S
H790 C796 0.930 . S
H791 C800 0.930 . S
H792 C805 0.929 . S
H793 C803 0.929 . S
H794 C798 0.929 . S
H795 C804 0.929 . S
C796 H790 0.930 . S
C796 C797 1.367 . S
C796 C804 1.378 . S
C797 C796 1.367 . S
C797 C805 1.433 . S
C798 H794 0.929 . S
C798 C800 1.378 . S
C798 C802 1.350 . S
C799 C802 1.463 . S
C799 C804 1.350 . S
C799 N807 1.427 . S
C800 H791 0.930 . S
C800 C798 1.378 . S
C800 C801 1.367 . S
C801 C800 1.367 . S
C801 C803 1.433 . S
C802 C798 1.350 . S
C802 C799 1.463 . S
C802 N806 1.427 . S
C803 H793 0.929 . S
C803 C801 1.433 . S
C803 N806 1.384 . S
C804 H795 0.929 . S
C804 C796 1.378 . S
C804 C799 1.350 . S
C805 H792 0.929 . S
C805 C797 1.433 . S
C805 N807 1.384 . S
N806 C802 1.427 . S
N806 C803 1.384 . S
N807 C799 1.427 . S
N807 C805 1.384 . S
H808 C814 0.930 . S
H809 C818 0.930 . S
H810 C823 0.929 . S
H811 C821 0.929 . S
H812 C816 0.929 . S
H813 C822 0.929 . S
C814 H808 0.930 . S
C814 C815 1.367 . S
C814 C822 1.378 . S
C815 C814 1.367 . S
C815 C823 1.433 . S
C816 H812 0.929 . S
C816 C818 1.378 . S
C816 C820 1.350 . S
C817 C820 1.463 . S
C817 C822 1.350 . S
C817 N825 1.427 . S
C818 H809 0.930 . S
C818 C816 1.378 . S
C818 C819 1.367 . S
C819 C818 1.367 . S
C819 C821 1.433 . S
C820 C816 1.350 . S
C820 C817 1.463 . S
C820 N824 1.427 . S
C821 H811 0.929 . S
C821 C819 1.433 . S
C821 N824 1.384 . S
C822 H813 0.929 . S
C822 C814 1.378 . S
C822 C817 1.350 . S
C823 H810 0.929 . S
C823 C815 1.433 . S
C823 N825 1.384 . S
N824 C820 1.427 . S
N824 C821 1.384 . S
N825 C817 1.427 . S
N825 C823 1.384 . S
H826 C832 0.930 . S
H827 C836 0.930 . S
H828 C841 0.929 . S
H829 C839 0.929 . S
H830 C834 0.929 . S
H831 C840 0.929 . S
C832 H826 0.930 . S
C832 C833 1.367 . S
C832 C840 1.378 1_554 S
C833 C832 1.367 . S
C833 C841 1.433 . S
C834 H830 0.929 . S
C834 C836 1.378 . S
C834 C838 1.350 . S
C835 C838 1.463 . S
C835 C840 1.350 . S
C835 N843 1.427 . S
C836 H827 0.930 . S
C836 C834 1.378 . S
C836 C837 1.367 . S
C837 C836 1.367 . S
C837 C839 1.433 . S
C838 C834 1.350 . S
C838 C835 1.463 . S
C838 N842 1.427 . S
C839 H829 0.929 . S
C839 C837 1.433 . S
C839 N842 1.384 . S
C840 H831 0.929 . S
C840 C832 1.378 1_556 S
C840 C835 1.350 . S
C841 H828 0.929 . S
C841 C833 1.433 . S
C841 N843 1.384 1_554 S
N842 C838 1.427 . S
N842 C839 1.384 . S
N843 C835 1.427 . S
N843 C841 1.384 1_556 S
H844 C850 0.930 . S
H845 C854 0.930 . S
H846 C859 0.929 . S
H847 C857 0.929 . S
H848 C852 0.929 . S
H849 C858 0.929 . S
C850 H844 0.930 . S
C850 C851 1.367 . S
C850 C858 1.378 . S
C851 C850 1.367 . S
C851 C859 1.433 . S
C852 H848 0.929 . S
C852 C854 1.378 . S
C852 C856 1.350 . S
C853 C856 1.463 . S
C853 C858 1.350 . S
C853 N861 1.427 . S
C854 H845 0.930 . S
C854 C852 1.378 . S
C854 C855 1.367 . S
C855 C854 1.367 . S
C855 C857 1.433 . S
C856 C852 1.350 . S
C856 C853 1.463 . S
C856 N860 1.427 . S
C857 H847 0.929 . S
C857 C855 1.433 . S
C857 N860 1.384 . S
C858 H849 0.929 . S
C858 C850 1.378 . S
C858 C853 1.350 . S
C859 H846 0.929 . S
C859 C851 1.433 . S
C859 N861 1.384 . S
N860 C856 1.427 . S
N860 C857 1.384 . S
N861 C853 1.427 . S
N861 C859 1.384 . S
H862 C868 0.930 1_655 S
H863 C872 0.954 . S
H864 C877 0.929 . S
H865 C875 0.929 . S
H866 C870 0.929 . S
H867 C876 0.929 . S
C868 H862 0.930 1_455 S
C868 C869 1.367 . S
C868 C876 1.378 1_455 S
C869 C868 1.367 . S
C869 C877 1.433 . S
C870 H866 0.929 . S
C870 C872 1.378 1_455 S
C870 C874 1.350 1_455 S
C871 C874 1.463 1_455 S
C871 C876 1.350 1_455 S
C871 N879 1.427 . S
C872 H863 0.954 . S
C872 C870 1.378 1_655 S
C872 C873 1.367 . S
C873 C872 1.367 . S
C873 C875 1.433 . S
C874 C870 1.350 1_655 S
C874 C871 1.463 1_655 S
C874 N878 1.427 . S
C875 H865 0.929 . S
C875 C873 1.433 . S
C875 N878 1.384 . S
C876 H867 0.929 . S
C876 C868 1.378 1_655 S
C876 C871 1.350 1_655 S
C877 H864 0.929 . S
C877 C869 1.433 . S
C877 N879 1.384 . S
N878 C874 1.427 . S
N878 C875 1.384 . S
N879 C871 1.427 . S
N879 C877 1.384 . S
H880 C886 0.930 . S
H881 C890 0.930 . S
H882 C895 0.929 . S
H883 C893 0.929 . S
H884 C888 0.929 . S
H885 C894 0.929 . S
C886 H880 0.930 . S
C886 C887 1.367 . S
C886 C894 1.378 . S
C887 C886 1.367 . S
C887 C895 1.433 . S
C888 H884 0.929 . S
C888 C890 1.378 . S
C888 C892 1.350 . S
C889 C892 1.463 . S
C889 C894 1.350 . S
C889 N897 1.427 . S
C890 H881 0.930 . S
C890 C888 1.378 . S
C890 C891 1.367 . S
C891 C890 1.367 . S
C891 C893 1.433 . S
C892 C888 1.350 . S
C892 C889 1.463 . S
C892 N896 1.427 . S
C893 H883 0.929 . S
C893 C891 1.433 . S
C893 N896 1.384 . S
C894 H885 0.929 . S
C894 C886 1.378 . S
C894 C889 1.350 . S
C895 H882 0.929 . S
C895 C887 1.433 . S
C895 N897 1.384 . S
N896 C892 1.427 . S
N896 C893 1.384 . S
N897 C889 1.427 . S
N897 C895 1.384 . S
H898 C904 0.930 . S
H899 C908 0.930 . S
H900 C913 0.929 . S
H901 C911 0.929 . S
H902 C906 0.929 . S
H903 C912 0.929 . S
C904 H898 0.930 . S
C904 C905 1.367 . S
C904 C912 1.378 1_554 S
C905 C904 1.367 . S
C905 C913 1.433 . S
C906 H902 0.929 . S
C906 C908 1.378 . S
C906 C910 1.350 . S
C907 C910 1.463 1_655 S
C907 C912 1.350 . S
C907 N915 1.433 . S
C908 H899 0.930 . S
C908 C906 1.378 . S
C908 C909 1.367 . S
C909 C908 1.367 . S
C909 C911 1.433 . S
C910 C906 1.350 . S
C910 C907 1.463 1_455 S
C910 N914 1.427 . S
C911 H901 0.929 . S
C911 C909 1.433 . S
C911 N914 1.384 . S
C912 H903 0.929 . S
C912 C904 1.378 1_556 S
C912 C907 1.350 . S
C913 H900 0.929 . S
C913 C905 1.433 . S
C913 N915 1.400 1_554 S
N914 C910 1.427 . S
N914 C911 1.384 . S
N915 C907 1.433 . S
N915 C913 1.400 1_556 S
H916 C922 0.930 . S
H917 C926 0.930 . S
H918 C931 0.929 . S
H919 C929 0.929 . S
H920 C924 0.929 . S
H921 C930 0.929 . S
C922 H916 0.930 . S
C922 C923 1.367 . S
C922 C930 1.378 . S
C923 C922 1.367 . S
C923 C931 1.433 . S
C924 H920 0.929 . S
C924 C926 1.378 . S
C924 C928 1.350 . S
C925 C928 1.463 . S
C925 C930 1.350 . S
C925 N933 1.427 . S
C926 H917 0.930 . S
C926 C924 1.378 . S
C926 C927 1.367 . S
C927 C926 1.367 . S
C927 C929 1.433 . S
C928 C924 1.350 . S
C928 C925 1.463 . S
C928 N932 1.427 . S
C929 H919 0.929 . S
C929 C927 1.433 . S
C929 N932 1.384 . S
C930 H921 0.929 . S
C930 C922 1.378 . S
C930 C925 1.350 . S
C931 H918 0.929 . S
C931 C923 1.433 . S
C931 N933 1.384 . S
N932 C928 1.427 . S
N932 C929 1.384 . S
N933 C925 1.427 . S
N933 C931 1.384 . S
H934 C940 0.930 . S
H935 C944 0.930 . S
H936 C949 0.929 . S
H937 C947 0.929 . S
H938 C942 0.929 . S
H939 C948 0.929 . S
C940 H934 0.930 . S
C940 C941 1.367 . S
C940 C948 1.378 . S
C941 C940 1.367 . S
C941 C949 1.433 . S
C942 H938 0.929 . S
C942 C944 1.378 . S
C942 C946 1.350 . S
C943 C946 1.463 . S
C943 C948 1.350 . S
C943 N951 1.427 . S
C944 H935 0.930 . S
C944 C942 1.378 . S
C944 C945 1.367 . S
C945 C944 1.367 . S
C945 C947 1.433 . S
C946 C942 1.350 . S
C946 C943 1.463 . S
C946 N950 1.427 . S
C947 H937 0.929 . S
C947 C945 1.433 . S
C947 N950 1.384 . S
C948 H939 0.929 . S
C948 C940 1.378 . S
C948 C943 1.350 . S
C949 H936 0.929 . S
C949 C941 1.433 . S
C949 N951 1.384 . S
N950 C946 1.427 . S
N950 C947 1.384 . S
N951 C943 1.427 . S
N951 C949 1.384 . S
H952 C958 0.930 . S
H953 C962 0.930 . S
H954 C967 0.929 . S
H955 C965 0.929 . S
H956 C960 0.929 . S
H957 C966 0.929 . S
C958 H952 0.930 . S
C958 C959 1.367 . S
C958 C966 1.378 . S
C959 C958 1.367 . S
C959 C967 1.433 . S
C960 H956 0.929 . S
C960 C962 1.378 . S
C960 C964 1.350 . S
C961 C964 1.463 . S
C961 C966 1.350 . S
C961 N969 1.427 . S
C962 H953 0.930 . S
C962 C960 1.378 . S
C962 C963 1.367 . S
C963 C962 1.367 . S
C963 C965 1.433 . S
C964 C960 1.350 . S
C964 C961 1.463 . S
C964 N968 1.427 . S
C965 H955 0.929 . S
C965 C963 1.433 . S
C965 N968 1.384 . S
C966 H957 0.929 . S
C966 C958 1.378 . S
C966 C961 1.350 . S
C967 H954 0.929 . S
C967 C959 1.433 . S
C967 N969 1.384 . S
N968 C964 1.427 . S
N968 C965 1.384 . S
N969 C961 1.427 . S
N969 C967 1.384 . S
H970 C976 0.930 . S
H971 C980 0.930 . S
H972 C985 0.929 . S
H973 C983 0.929 . S
H974 C978 0.925 1_554 S
H975 C984 0.929 . S
C976 H970 0.930 . S
C976 C977 1.367 . S
C976 C984 1.378 . S
C977 C976 1.367 . S
C977 C985 1.433 . S
C978 H974 0.925 1_556 S
C978 C980 1.378 . S
C978 C982 1.350 1_556 S
C979 C982 1.463 . S
C979 C984 1.350 . S
C979 N987 1.427 . S
C980 H971 0.930 . S
C980 C978 1.378 . S
C980 C981 1.367 . S
C981 C980 1.367 . S
C981 C983 1.433 . S
C982 C978 1.350 1_554 S
C982 C979 1.463 . S
C982 N986 1.427 . S
C983 H973 0.929 . S
C983 C981 1.433 . S
C983 N986 1.384 1_556 S
C984 H975 0.929 . S
C984 C976 1.378 . S
C984 C979 1.350 . S
C985 H972 0.929 . S
C985 C977 1.433 . S
C985 N987 1.384 . S
N986 C982 1.427 . S
N986 C983 1.384 1_554 S
N987 C979 1.427 . S
N987 C985 1.384 . S
H988 C994 0.930 . S
H989 C998 0.930 . S
H990 C1003 0.929 . S
H991 C1001 0.929 . S
H992 C996 0.929 . S
H993 C1002 0.929 . S
C994 H988 0.930 . S
C994 C995 1.367 . S
C994 C1002 1.378 . S
C995 C994 1.367 . S
C995 C1003 1.433 . S
C996 H992 0.929 . S
C996 C998 1.378 . S
C996 C1000 1.350 . S
C997 C1000 1.463 . S
C997 C1002 1.350 . S
C997 N1005 1.427 . S
C998 H989 0.930 . S
C998 C996 1.378 . S
C998 C999 1.367 . S
C999 C998 1.367 . S
C999 C1001 1.433 . S
C1000 C996 1.350 . S
C1000 C997 1.463 . S
C1000 N1004 1.427 . S
C1001 H991 0.929 . S
C1001 C999 1.433 . S
C1001 N1004 1.384 . S
C1002 H993 0.929 . S
C1002 C994 1.378 . S
C1002 C997 1.350 . S
C1003 H990 0.929 . S
C1003 C995 1.433 . S
C1003 N1005 1.384 . S
N1004 C1000 1.427 . S
N1004 C1001 1.384 . S
N1005 C997 1.427 . S
N1005 C1003 1.384 . S
H1006 C1012 0.930 1_455 S
H1007 C1016 0.930 1_655 S
H1008 C1021 0.929 . S
H1009 C1019 0.929 . S
H1010 C1014 0.929 . S
H1011 C1020 0.929 . S
C1012 H1006 0.930 1_655 S
C1012 C1013 1.367 . S
C1012 C1020 1.378 1_655 S
C1013 C1012 1.367 . S
C1013 C1021 1.433 . S
C1014 H1010 0.929 . S
C1014 C1016 1.378 1_655 S
C1014 C1018 1.350 1_655 S
C1015 C1018 1.463 1_655 S
C1015 C1020 1.350 1_655 S
C1015 N1023 1.427 . S
C1016 H1007 0.930 1_455 S
C1016 C1014 1.378 1_455 S
C1016 C1017 1.367 . S
C1017 C1016 1.367 . S
C1017 C1019 1.433 . S
C1018 C1014 1.350 1_455 S
C1018 C1015 1.463 1_455 S
C1018 N1022 1.427 . S
C1019 H1009 0.929 . S
C1019 C1017 1.433 . S
C1019 N1022 1.384 . S
C1020 H1011 0.929 . S
C1020 C1012 1.378 1_455 S
C1020 C1015 1.350 1_455 S
C1021 H1008 0.929 . S
C1021 C1013 1.433 . S
C1021 N1023 1.384 . S
N1022 C1018 1.427 . S
N1022 C1019 1.384 . S
N1023 C1015 1.427 . S
N1023 C1021 1.384 . S
H1024 C1030 0.930 . S
H1025 C1034 0.930 . S
H1026 C1039 0.929 . S
H1027 C1037 0.929 . S
H1028 C1032 0.929 . S
H1029 C1038 0.929 . S
C1030 H1024 0.930 . S
C1030 C1031 1.367 . S
C1030 C1038 1.378 . S
C1031 C1030 1.367 . S
C1031 C1039 1.433 . S
C1032 H1028 0.929 . S
C1032 C1034 1.378 . S
C1032 C1036 1.350 . S
C1033 C1036 1.463 . S
C1033 C1038 1.350 . S
C1033 N1041 1.427 . S
C1034 H1025 0.930 . S
C1034 C1032 1.378 . S
C1034 C1035 1.367 . S
C1035 C1034 1.367 . S
C1035 C1037 1.433 . S
C1036 C1032 1.350 . S
C1036 C1033 1.463 . S
C1036 N1040 1.427 . S
C1037 H1027 0.929 . S
C1037 C1035 1.433 . S
C1037 N1040 1.384 . S
C1038 H1029 0.929 . S
C1038 C1030 1.378 . S
C1038 C1033 1.350 . S
C1039 H1026 0.929 . S
C1039 C1031 1.433 . S
C1039 N1041 1.384 . S
N1040 C1036 1.427 . S
N1040 C1037 1.384 . S
N1041 C1033 1.427 . S
N1041 C1039 1.384 . S
H1042 C1048 0.930 . S
H1043 C1052 0.930 . S
H1044 C1057 0.929 . S
H1045 C1055 0.929 . S
H1046 C1050 0.929 . S
H1047 C1056 0.929 . S
C1048 H1042 0.930 . S
C1048 C1049 1.367 . S
C1048 C1056 1.378 . S
C1049 C1048 1.367 . S
C1049 C1057 1.433 . S
C1050 H1046 0.929 . S
C1050 C1052 1.378 . S
C1050 C1054 1.350 . S
C1051 C1054 1.463 . S
C1051 C1056 1.350 . S
C1051 N1059 1.427 . S
C1052 H1043 0.930 . S
C1052 C1050 1.378 . S
C1052 C1053 1.367 . S
C1053 C1052 1.367 . S
C1053 C1055 1.433 . S
C1054 C1050 1.350 . S
C1054 C1051 1.463 . S
C1054 N1058 1.427 . S
C1055 H1045 0.929 . S
C1055 C1053 1.433 . S
C1055 N1058 1.384 . S
C1056 H1047 0.929 . S
C1056 C1048 1.378 . S
C1056 C1051 1.350 . S
C1057 H1044 0.929 . S
C1057 C1049 1.433 . S
C1057 N1059 1.384 . S
N1058 C1054 1.427 . S
N1058 C1055 1.384 . S
N1059 C1051 1.427 . S
N1059 C1057 1.384 . S
H1060 C1066 0.930 . S
H1061 C1070 0.930 . S
H1062 C1075 0.929 . S
H1063 C1073 0.929 . S
H1064 C1068 0.929 . S
H1065 C1074 0.929 . S
C1066 H1060 0.930 . S
C1066 C1067 1.367 . S
C1066 C1074 1.378 . S
C1067 C1066 1.367 . S
C1067 C1075 1.433 . S
C1068 H1064 0.929 . S
C1068 C1070 1.378 . S
C1068 C1072 1.350 . S
C1069 C1072 1.463 . S
C1069 C1074 1.350 . S
C1069 N1077 1.427 . S
C1070 H1061 0.930 . S
C1070 C1068 1.378 . S
C1070 C1071 1.367 . S
C1071 C1070 1.367 . S
C1071 C1073 1.433 . S
C1072 C1068 1.350 . S
C1072 C1069 1.463 . S
C1072 N1076 1.427 . S
C1073 H1063 0.929 . S
C1073 C1071 1.433 . S
C1073 N1076 1.384 . S
C1074 H1065 0.929 . S
C1074 C1066 1.378 . S
C1074 C1069 1.350 . S
C1075 H1062 0.929 . S
C1075 C1067 1.433 . S
C1075 N1077 1.384 . S
N1076 C1072 1.427 . S
N1076 C1073 1.384 . S
N1077 C1069 1.427 . S
N1077 C1075 1.384 . S
H1078 C1084 0.930 . S
H1079 C1088 0.930 . S
H1080 C1093 0.929 . S
H1081 C1091 0.929 . S
H1082 C1086 0.929 . S
H1083 C1092 0.929 . S
C1084 H1078 0.930 . S
C1084 C1085 1.367 . S
C1084 C1092 1.378 . S
C1085 C1084 1.367 . S
C1085 C1093 1.433 . S
C1086 H1082 0.929 . S
C1086 C1088 1.378 1_554 S
C1086 C1090 1.350 . S
C1087 C1090 1.463 1_455 S
C1087 C1092 1.350 . S
C1087 N1095 1.435 . S
C1088 H1079 0.930 . S
C1088 C1086 1.378 1_556 S
C1088 C1089 1.367 . S
C1089 C1088 1.367 . S
C1089 C1091 1.433 . S
C1090 C1086 1.350 . S
C1090 C1087 1.463 1_655 S
C1090 N1094 1.427 1_655 S
C1091 H1081 0.929 . S
C1091 C1089 1.433 . S
C1091 N1094 1.384 1_656 S
C1092 H1083 0.929 . S
C1092 C1084 1.378 . S
C1092 C1087 1.350 . S
C1093 H1080 0.929 . S
C1093 C1085 1.433 . S
C1093 N1095 1.396 . S
N1094 C1090 1.427 1_455 S
N1094 C1091 1.384 1_454 S
N1095 C1087 1.435 . S
N1095 C1093 1.396 . S
H1096 C1102 0.930 . S
H1097 C1106 0.930 . S
H1098 C1111 0.929 . S
H1099 C1109 0.929 . S
H1100 C1104 0.929 . S
H1101 C1110 0.929 . S
C1102 H1096 0.930 . S
C1102 C1103 1.367 . S
C1102 C1110 1.378 . S
C1103 C1102 1.367 . S
C1103 C1111 1.433 . S
C1104 H1100 0.929 . S
C1104 C1106 1.378 . S
C1104 C1108 1.350 . S
C1105 C1108 1.463 . S
C1105 C1110 1.350 . S
C1105 N1113 1.427 . S
C1106 H1097 0.930 . S
C1106 C1104 1.378 . S
C1106 C1107 1.367 . S
C1107 C1106 1.367 . S
C1107 C1109 1.433 . S
C1108 C1104 1.350 . S
C1108 C1105 1.463 . S
C1108 N1112 1.427 . S
C1109 H1099 0.929 . S
C1109 C1107 1.433 . S
C1109 N1112 1.384 . S
C1110 H1101 0.929 . S
C1110 C1102 1.378 . S
C1110 C1105 1.350 . S
C1111 H1098 0.929 . S
C1111 C1103 1.433 . S
C1111 N1113 1.384 . S
N1112 C1108 1.427 . S
N1112 C1109 1.384 . S
N1113 C1105 1.427 . S
N1113 C1111 1.384 . S
H1114 C1120 0.930 . S
H1115 C1124 0.930 . S
H1116 C1129 0.929 . S
H1117 C1127 0.894 1_655 S
H1118 C1122 0.929 . S
H1119 C1128 0.929 . S
C1120 H1114 0.930 . S
C1120 C1121 1.367 . S
C1120 C1128 1.378 . S
C1121 C1120 1.367 . S
C1121 C1129 1.433 1_655 S
C1122 H1118 0.929 . S
C1122 C1124 1.378 . S
C1122 C1126 1.350 . S
C1123 C1126 1.463 1_655 S
C1123 C1128 1.350 . S
C1123 N1131 1.427 1_655 S
C1124 H1115 0.930 . S
C1124 C1122 1.378 . S
C1124 C1125 1.367 . S
C1125 C1124 1.367 . S
C1125 C1127 1.497 . S
C1126 C1122 1.350 . S
C1126 C1123 1.463 1_455 S
C1126 N1130 1.427 1_455 S
C1127 H1117 0.894 1_455 S
C1127 C1125 1.497 . S
C1127 N1130 1.360 1_455 S
C1128 H1119 0.929 . S
C1128 C1120 1.378 . S
C1128 C1123 1.350 . S
C1129 H1116 0.929 . S
C1129 C1121 1.433 1_455 S
C1129 N1131 1.384 . S
N1130 C1126 1.427 1_655 S
N1130 C1127 1.360 1_655 S
N1131 C1123 1.427 1_455 S
N1131 C1129 1.384 . S
H1132 C1138 0.930 . S
H1133 C1142 0.930 . S
H1134 C1147 0.929 . S
H1135 C1145 0.929 . S
H1136 C1140 0.929 . S
H1137 C1146 0.929 . S
C1138 H1132 0.930 . S
C1138 C1139 1.367 . S
C1138 C1146 1.378 . S
C1139 C1138 1.367 . S
C1139 C1147 1.433 . S
C1140 H1136 0.929 . S
C1140 C1142 1.378 . S
C1140 C1144 1.350 . S
C1141 C1144 1.463 . S
C1141 C1146 1.350 . S
C1141 N1149 1.427 . S
C1142 H1133 0.930 . S
C1142 C1140 1.378 . S
C1142 C1143 1.367 . S
C1143 C1142 1.367 . S
C1143 C1145 1.433 . S
C1144 C1140 1.350 . S
C1144 C1141 1.463 . S
C1144 N1148 1.427 . S
C1145 H1135 0.929 . S
C1145 C1143 1.433 . S
C1145 N1148 1.384 . S
C1146 H1137 0.929 . S
C1146 C1138 1.378 . S
C1146 C1141 1.350 . S
C1147 H1134 0.929 . S
C1147 C1139 1.433 . S
C1147 N1149 1.384 . S
N1148 C1144 1.427 . S
N1148 C1145 1.384 . S
N1149 C1141 1.427 . S
N1149 C1147 1.384 . S
H1150 C1156 0.930 . S
H1151 C1160 0.930 . S
H1152 C1165 0.929 . S
H1153 C1163 0.929 . S
H1154 C1158 0.929 . S
H1155 C1164 0.929 . S
C1156 H1150 0.930 . S
C1156 C1157 1.367 . S
C1156 C1164 1.378 1_554 S
C1157 C1156 1.367 . S
C1157 C1165 1.433 . S
C1158 H1154 0.929 . S
C1158 C1160 1.378 . S
C1158 C1162 1.350 . S
C1159 C1162 1.463 . S
C1159 C1164 1.350 . S
C1159 N1167 1.427 . S
C1160 H1151 0.930 . S
C1160 C1158 1.378 . S
C1160 C1161 1.367 . S
C1161 C1160 1.367 . S
C1161 C1163 1.433 . S
C1162 C1158 1.350 . S
C1162 C1159 1.463 . S
C1162 N1166 1.427 . S
C1163 H1153 0.929 . S
C1163 C1161 1.433 . S
C1163 N1166 1.384 . S
C1164 H1155 0.929 . S
C1164 C1156 1.378 1_556 S
C1164 C1159 1.350 . S
C1165 H1152 0.929 . S
C1165 C1157 1.433 . S
C1165 N1167 1.384 1_554 S
N1166 C1162 1.427 . S
N1166 C1163 1.384 . S
N1167 C1159 1.427 . S
N1167 C1165 1.384 1_556 S
H1168 C1174 0.930 . S
H1169 C1178 0.930 . S
H1170 C1183 0.929 . S
H1171 C1181 0.929 . S
H1172 C1176 0.929 . S
H1173 C1182 0.929 . S
C1174 H1168 0.930 . S
C1174 C1175 1.367 . S
C1174 C1182 1.378 . S
C1175 C1174 1.367 . S
C1175 C1183 1.433 . S
C1176 H1172 0.929 . S
C1176 C1178 1.378 . S
C1176 C1180 1.350 . S
C1177 C1180 1.463 . S
C1177 C1182 1.350 . S
C1177 N1185 1.427 . S
C1178 H1169 0.930 . S
C1178 C1176 1.378 . S
C1178 C1179 1.367 . S
C1179 C1178 1.367 . S
C1179 C1181 1.433 . S
C1180 C1176 1.350 . S
C1180 C1177 1.463 . S
C1180 N1184 1.427 . S
C1181 H1171 0.929 . S
C1181 C1179 1.433 . S
C1181 N1184 1.384 . S
C1182 H1173 0.929 . S
C1182 C1174 1.378 . S
C1182 C1177 1.350 . S
C1183 H1170 0.929 . S
C1183 C1175 1.433 . S
C1183 N1185 1.384 . S
N1184 C1180 1.427 . S
N1184 C1181 1.384 . S
N1185 C1177 1.427 . S
N1185 C1183 1.384 . S
H1186 C1192 0.930 . S
H1187 C1196 0.930 . S
H1188 C1201 0.929 . S
H1189 C1199 0.929 . S
H1190 C1194 0.929 . S
H1191 C1200 0.929 . S
C1192 H1186 0.930 . S
C1192 C1193 1.367 . S
C1192 C1200 1.378 . S
C1193 C1192 1.367 . S
C1193 C1201 1.433 . S
C1194 H1190 0.929 . S
C1194 C1196 1.378 . S
C1194 C1198 1.350 . S
C1195 C1198 1.463 . S
C1195 C1200 1.350 . S
C1195 N1203 1.427 . S
C1196 H1187 0.930 . S
C1196 C1194 1.378 . S
C1196 C1197 1.367 . S
C1197 C1196 1.367 . S
C1197 C1199 1.433 . S
C1198 C1194 1.350 . S
C1198 C1195 1.463 . S
C1198 N1202 1.427 . S
C1199 H1189 0.929 . S
C1199 C1197 1.433 . S
C1199 N1202 1.384 . S
C1200 H1191 0.929 . S
C1200 C1192 1.378 . S
C1200 C1195 1.350 . S
C1201 H1188 0.929 . S
C1201 C1193 1.433 . S
C1201 N1203 1.384 . S
N1202 C1198 1.427 . S
N1202 C1199 1.384 . S
N1203 C1195 1.427 . S
N1203 C1201 1.384 . S
H1204 C1210 0.930 . S
H1205 C1214 0.930 . S
H1206 C1219 0.929 . S
H1207 C1217 0.929 . S
H1208 C1212 0.929 . S
H1209 C1218 0.929 . S
C1210 H1204 0.930 . S
C1210 C1211 1.367 . S
C1210 C1218 1.378 . S
C1211 C1210 1.367 . S
C1211 C1219 1.433 . S
C1212 H1208 0.929 . S
C1212 C1214 1.378 . S
C1212 C1216 1.350 . S
C1213 C1216 1.463 . S
C1213 C1218 1.350 . S
C1213 N1221 1.427 . S
C1214 H1205 0.930 . S
C1214 C1212 1.378 . S
C1214 C1215 1.367 . S
C1215 C1214 1.367 . S
C1215 C1217 1.433 . S
C1216 C1212 1.350 . S
C1216 C1213 1.463 . S
C1216 N1220 1.427 . S
C1217 H1207 0.929 . S
C1217 C1215 1.433 . S
C1217 N1220 1.384 . S
C1218 H1209 0.929 . S
C1218 C1210 1.378 . S
C1218 C1213 1.350 . S
C1219 H1206 0.929 . S
C1219 C1211 1.433 . S
C1219 N1221 1.384 . S
N1220 C1216 1.427 . S
N1220 C1217 1.384 . S
N1221 C1213 1.427 . S
N1221 C1219 1.384 . S
H1222 C1228 0.930 . S
H1223 C1232 0.930 . S
H1224 C1237 0.949 . S
H1225 C1235 0.929 1_655 S
H1226 C1230 0.929 . S
H1227 C1236 0.929 . S
C1228 H1222 0.930 . S
C1228 C1229 1.367 . S
C1228 C1236 1.378 . S
C1229 C1228 1.367 . S
C1229 C1237 1.433 . S
C1230 H1226 0.929 . S
C1230 C1232 1.378 1_556 S
C1230 C1234 1.350 . S
C1231 C1234 1.463 1_655 S
C1231 C1236 1.350 . S
C1231 N1239 1.427 1_655 S
C1232 H1223 0.930 . S
C1232 C1230 1.378 1_554 S
C1232 C1233 1.367 . S
C1233 C1232 1.367 . S
C1233 C1235 1.433 . S
C1234 C1230 1.350 . S
C1234 C1231 1.463 1_455 S
C1234 N1238 1.427 1_456 S
C1235 H1225 0.929 1_455 S
C1235 C1233 1.433 . S
C1235 N1238 1.384 1_455 S
C1236 H1227 0.929 . S
C1236 C1228 1.378 . S
C1236 C1231 1.350 . S
C1237 H1224 0.949 . S
C1237 C1229 1.433 . S
C1237 N1239 1.384 1_655 S
N1238 C1234 1.427 1_654 S
N1238 C1235 1.384 1_655 S
N1239 C1231 1.427 1_455 S
N1239 C1237 1.384 1_455 S
H1240 C1246 0.930 . S
H1241 C1250 0.930 . S
H1242 C1255 0.929 . S
H1243 C1253 0.929 . S
H1244 C1248 0.929 . S
H1245 C1254 0.929 . S
C1246 H1240 0.930 . S
C1246 C1247 1.367 . S
C1246 C1254 1.378 . S
C1247 C1246 1.367 . S
C1247 C1255 1.433 . S
C1248 H1244 0.929 . S
C1248 C1250 1.378 . S
C1248 C1252 1.350 . S
C1249 C1252 1.463 . S
C1249 C1254 1.350 . S
C1249 N1257 1.427 . S
C1250 H1241 0.930 . S
C1250 C1248 1.378 . S
C1250 C1251 1.367 . S
C1251 C1250 1.367 . S
C1251 C1253 1.433 . S
C1252 C1248 1.350 . S
C1252 C1249 1.463 . S
C1252 N1256 1.427 . S
C1253 H1243 0.929 . S
C1253 C1251 1.433 . S
C1253 N1256 1.384 . S
C1254 H1245 0.929 . S
C1254 C1246 1.378 . S
C1254 C1249 1.350 . S
C1255 H1242 0.929 . S
C1255 C1247 1.433 . S
C1255 N1257 1.384 . S
N1256 C1252 1.427 . S
N1256 C1253 1.384 . S
N1257 C1249 1.427 . S
N1257 C1255 1.384 . S
H1258 C1264 0.930 . S
H1259 C1268 0.930 . S
H1260 C1273 0.929 . S
H1261 C1271 0.949 . S
H1262 C1266 0.929 . S
H1263 C1272 0.929 . S
C1264 H1258 0.930 . S
C1264 C1265 1.367 . S
C1264 C1272 1.378 . S
C1265 C1264 1.367 . S
C1265 C1273 1.433 . S
C1266 H1262 0.929 . S
C1266 C1268 1.378 . S
C1266 C1270 1.350 . S
C1267 C1270 1.463 1_655 S
C1267 C1272 1.350 . S
C1267 N1275 1.416 1_655 S
C1268 H1259 0.930 . S
C1268 C1266 1.378 . S
C1268 C1269 1.367 . S
C1269 C1268 1.367 . S
C1269 C1271 1.433 . S
C1270 C1266 1.350 . S
C1270 C1267 1.463 1_455 S
C1270 N1274 1.427 1_455 S
C1271 H1261 0.949 . S
C1271 C1269 1.433 . S
C1271 N1274 1.384 1_455 S
C1272 H1263 0.929 . S
C1272 C1264 1.378 . S
C1272 C1267 1.350 . S
C1273 H1260 0.929 . S
C1273 C1265 1.433 . S
C1273 N1275 1.369 1_655 S
N1274 C1270 1.427 1_655 S
N1274 C1271 1.384 1_655 S
N1275 C1267 1.416 1_455 S
N1275 C1273 1.369 1_455 S
H1276 C1282 0.930 . S
H1277 C1286 0.930 . S
H1278 C1291 0.929 . S
H1279 C1289 0.929 . S
H1280 C1284 0.929 . S
H1281 C1290 0.929 . S
C1282 H1276 0.930 . S
C1282 C1283 1.367 . S
C1282 C1290 1.378 . S
C1283 C1282 1.367 . S
C1283 C1291 1.433 . S
C1284 H1280 0.929 . S
C1284 C1286 1.378 . S
C1284 C1288 1.350 . S
C1285 C1288 1.463 . S
C1285 C1290 1.350 . S
C1285 N1293 1.427 . S
C1286 H1277 0.930 . S
C1286 C1284 1.378 . S
C1286 C1287 1.367 . S
C1287 C1286 1.367 . S
C1287 C1289 1.433 . S
C1288 C1284 1.350 . S
C1288 C1285 1.463 . S
C1288 N1292 1.427 . S
C1289 H1279 0.929 . S
C1289 C1287 1.433 . S
C1289 N1292 1.384 . S
C1290 H1281 0.929 . S
C1290 C1282 1.378 . S
C1290 C1285 1.350 . S
C1291 H1278 0.929 . S
C1291 C1283 1.433 . S
C1291 N1293 1.384 . S
N1292 C1288 1.427 . S
N1292 C1289 1.384 . S
N1293 C1285 1.427 . S
N1293 C1291 1.384 . S
H1294 C1300 0.930 . S
H1295 C1304 0.930 . S
H1296 C1309 0.929 . S
H1297 C1307 0.929 . S
H1298 C1302 0.929 . S
H1299 C1308 0.929 . S
C1300 H1294 0.930 . S
C1300 C1301 1.367 . S
C1300 C1308 1.378 . S
C1301 C1300 1.367 . S
C1301 C1309 1.433 . S
C1302 H1298 0.929 . S
C1302 C1304 1.378 1_554 S
C1302 C1306 1.350 . S
C1303 C1306 1.463 . S
C1303 C1308 1.350 . S
C1303 N1311 1.427 . S
C1304 H1295 0.930 . S
C1304 C1302 1.378 1_556 S
C1304 C1305 1.367 . S
C1305 C1304 1.367 . S
C1305 C1307 1.433 . S
C1306 C1302 1.350 . S
C1306 C1303 1.463 . S
C1306 N1310 1.427 . S
C1307 H1297 0.929 . S
C1307 C1305 1.433 . S
C1307 N1310 1.384 1_556 S
C1308 H1299 0.929 . S
C1308 C1300 1.378 . S
C1308 C1303 1.350 . S
C1309 H1296 0.929 . S
C1309 C1301 1.433 . S
C1309 N1311 1.384 . S
N1310 C1306 1.427 . S
N1310 C1307 1.384 1_554 S
N1311 C1303 1.427 . S
N1311 C1309 1.384 . S
H1312 C1318 0.930 . S
H1313 C1322 0.930 . S
H1314 C1327 0.929 . S
H1315 C1325 0.929 . S
H1316 C1320 0.929 . S
H1317 C1326 0.929 . S
C1318 H1312 0.930 . S
C1318 C1319 1.367 . S
C1318 C1326 1.378 . S
C1319 C1318 1.367 . S
C1319 C1327 1.433 . S
C1320 H1316 0.929 . S
C1320 C1322 1.378 . S
C1320 C1324 1.350 . S
C1321 C1324 1.463 . S
C1321 C1326 1.350 . S
C1321 N1329 1.427 . S
C1322 H1313 0.930 . S
C1322 C1320 1.378 . S
C1322 C1323 1.367 . S
C1323 C1322 1.367 . S
C1323 C1325 1.433 . S
C1324 C1320 1.350 . S
C1324 C1321 1.463 . S
C1324 N1328 1.427 . S
C1325 H1315 0.929 . S
C1325 C1323 1.433 . S
C1325 N1328 1.384 . S
C1326 H1317 0.929 . S
C1326 C1318 1.378 . S
C1326 C1321 1.350 . S
C1327 H1314 0.929 . S
C1327 C1319 1.433 . S
C1327 N1329 1.384 . S
N1328 C1324 1.427 . S
N1328 C1325 1.384 . S
N1329 C1321 1.427 . S
N1329 C1327 1.384 . S
H1330 C1336 0.930 . S
H1331 C1340 0.930 . S
H1332 C1345 0.929 . S
H1333 C1343 0.929 . S
H1334 C1338 0.929 . S
H1335 C1344 0.929 . S
C1336 H1330 0.930 . S
C1336 C1337 1.367 . S
C1336 C1344 1.378 . S
C1337 C1336 1.367 . S
C1337 C1345 1.433 . S
C1338 H1334 0.929 . S
C1338 C1340 1.378 . S
C1338 C1342 1.350 . S
C1339 C1342 1.463 . S
C1339 C1344 1.350 . S
C1339 N1347 1.427 . S
C1340 H1331 0.930 . S
C1340 C1338 1.378 . S
C1340 C1341 1.367 . S
C1341 C1340 1.367 . S
C1341 C1343 1.433 . S
C1342 C1338 1.350 . S
C1342 C1339 1.463 . S
C1342 N1346 1.427 . S
C1343 H1333 0.929 . S
C1343 C1341 1.433 . S
C1343 N1346 1.384 . S
C1344 H1335 0.929 . S
C1344 C1336 1.378 . S
C1344 C1339 1.350 . S
C1345 H1332 0.929 . S
C1345 C1337 1.433 . S
C1345 N1347 1.384 . S
N1346 C1342 1.427 . S
N1346 C1343 1.384 . S
N1347 C1339 1.427 . S
N1347 C1345 1.384 . S
H1348 C1354 0.930 . S
H1349 C1358 0.930 . S
H1350 C1363 0.929 . S
H1351 C1361 0.929 . S
H1352 C1356 0.929 . S
H1353 C1362 0.929 . S
C1354 H1348 0.930 . S
C1354 C1355 1.367 . S
C1354 C1362 1.378 . S
C1355 C1354 1.367 . S
C1355 C1363 1.433 . S
C1356 H1352 0.929 . S
C1356 C1358 1.378 . S
C1356 C1360 1.350 . S
C1357 C1360 1.463 . S
C1357 C1362 1.350 . S
C1357 N1365 1.427 . S
C1358 H1349 0.930 . S
C1358 C1356 1.378 . S
C1358 C1359 1.367 . S
C1359 C1358 1.367 . S
C1359 C1361 1.433 . S
C1360 C1356 1.350 . S
C1360 C1357 1.463 . S
C1360 N1364 1.427 . S
C1361 H1351 0.929 . S
C1361 C1359 1.433 . S
C1361 N1364 1.384 . S
C1362 H1353 0.929 . S
C1362 C1354 1.378 . S
C1362 C1357 1.350 . S
C1363 H1350 0.929 . S
C1363 C1355 1.433 . S
C1363 N1365 1.384 . S
N1364 C1360 1.427 . S
N1364 C1361 1.384 . S
N1365 C1357 1.427 . S
N1365 C1363 1.384 . S
H1366 C1372 0.930 . S
H1367 C1376 0.930 . S
H1368 C1381 0.929 . S
H1369 C1379 0.929 . S
H1370 C1374 0.929 . S
H1371 C1380 0.929 . S
C1372 H1366 0.930 . S
C1372 C1373 1.367 . S
C1372 C1380 1.378 . S
C1373 C1372 1.367 . S
C1373 C1381 1.433 . S
C1374 H1370 0.929 . S
C1374 C1376 1.378 . S
C1374 C1378 1.350 . S
C1375 C1378 1.463 . S
C1375 C1380 1.350 . S
C1375 N1383 1.427 . S
C1376 H1367 0.930 . S
C1376 C1374 1.378 . S
C1376 C1377 1.367 . S
C1377 C1376 1.367 . S
C1377 C1379 1.433 . S
C1378 C1374 1.350 . S
C1378 C1375 1.463 . S
C1378 N1382 1.427 . S
C1379 H1369 0.929 . S
C1379 C1377 1.433 . S
C1379 N1382 1.384 . S
C1380 H1371 0.929 . S
C1380 C1372 1.378 . S
C1380 C1375 1.350 . S
C1381 H1368 0.929 . S
C1381 C1373 1.433 . S
C1381 N1383 1.384 . S
N1382 C1378 1.427 . S
N1382 C1379 1.384 . S
N1383 C1375 1.427 . S
N1383 C1381 1.384 . S
H1384 C1390 0.930 . S
H1385 C1394 0.930 . S
H1386 C1399 0.929 . S
H1387 C1397 0.929 . S
H1388 C1392 0.929 . S
H1389 C1398 0.929 . S
C1390 H1384 0.930 . S
C1390 C1391 1.367 . S
C1390 C1398 1.378 . S
C1391 C1390 1.367 . S
C1391 C1399 1.433 . S
C1392 H1388 0.929 . S
C1392 C1394 1.378 . S
C1392 C1396 1.350 . S
C1393 C1396 1.463 . S
C1393 C1398 1.350 . S
C1393 N1401 1.427 . S
C1394 H1385 0.930 . S
C1394 C1392 1.378 . S
C1394 C1395 1.367 . S
C1395 C1394 1.367 . S
C1395 C1397 1.433 . S
C1396 C1392 1.350 . S
C1396 C1393 1.463 . S
C1396 N1400 1.427 . S
C1397 H1387 0.929 . S
C1397 C1395 1.433 . S
C1397 N1400 1.384 . S
C1398 H1389 0.929 . S
C1398 C1390 1.378 . S
C1398 C1393 1.350 . S
C1399 H1386 0.929 . S
C1399 C1391 1.433 . S
C1399 N1401 1.384 . S
N1400 C1396 1.427 . S
N1400 C1397 1.384 . S
N1401 C1393 1.427 . S
N1401 C1399 1.384 . S
H1402 C1408 0.930 . S
H1403 C1412 0.930 . S
H1404 C1417 0.929 . S
H1405 C1415 0.929 . S
H1406 C1410 0.929 . S
H1407 C1416 0.929 . S
C1408 H1402 0.930 . S
C1408 C1409 1.367 . S
C1408 C1416 1.378 . S
C1409 C1408 1.367 . S
C1409 C1417 1.433 . S
C1410 H1406 0.929 . S
C1410 C1412 1.378 . S
C1410 C1414 1.350 . S
C1411 C1414 1.463 . S
C1411 C1416 1.350 . S
C1411 N1419 1.427 . S
C1412 H1403 0.930 . S
C1412 C1410 1.378 . S
C1412 C1413 1.367 . S
C1413 C1412 1.367 . S
C1413 C1415 1.433 . S
C1414 C1410 1.350 . S
C1414 C1411 1.463 . S
C1414 N1418 1.427 . S
C1415 H1405 0.929 . S
C1415 C1413 1.433 . S
C1415 N1418 1.384 . S
C1416 H1407 0.929 . S
C1416 C1408 1.378 . S
C1416 C1411 1.350 . S
C1417 H1404 0.929 . S
C1417 C1409 1.433 . S
C1417 N1419 1.384 . S
N1418 C1414 1.427 . S
N1418 C1415 1.384 . S
N1419 C1411 1.427 . S
N1419 C1417 1.384 . S
H1420 C1426 0.930 . S
H1421 C1430 0.930 . S
H1422 C1435 0.929 . S
H1423 C1433 0.929 . S
H1424 C1428 0.929 . S
H1425 C1434 0.929 . S
C1426 H1420 0.930 . S
C1426 C1427 1.367 . S
C1426 C1434 1.378 . S
C1427 C1426 1.367 . S
C1427 C1435 1.433 . S
C1428 H1424 0.929 . S
C1428 C1430 1.378 . S
C1428 C1432 1.350 . S
C1429 C1432 1.463 . S
C1429 C1434 1.350 . S
C1429 N1437 1.427 . S
C1430 H1421 0.930 . S
C1430 C1428 1.378 . S
C1430 C1431 1.367 . S
C1431 C1430 1.367 . S
C1431 C1433 1.433 . S
C1432 C1428 1.350 . S
C1432 C1429 1.463 . S
C1432 N1436 1.427 . S
C1433 H1423 0.929 . S
C1433 C1431 1.433 . S
C1433 N1436 1.384 . S
C1434 H1425 0.929 . S
C1434 C1426 1.378 . S
C1434 C1429 1.350 . S
C1435 H1422 0.929 . S
C1435 C1427 1.433 . S
C1435 N1437 1.384 . S
N1436 C1432 1.427 . S
N1436 C1433 1.384 . S
N1437 C1429 1.427 . S
N1437 C1435 1.384 . S
H1438 C1444 0.930 . S
H1439 C1448 0.930 . S
H1440 C1453 0.929 . S
H1441 C1451 0.929 . S
H1442 C1446 0.929 . S
H1443 C1452 0.929 . S
C1444 H1438 0.930 . S
C1444 C1445 1.367 . S
C1444 C1452 1.378 . S
C1445 C1444 1.367 . S
C1445 C1453 1.433 . S
C1446 H1442 0.929 . S
C1446 C1448 1.378 . S
C1446 C1450 1.350 . S
C1447 C1450 1.463 . S
C1447 C1452 1.350 . S
C1447 N1455 1.427 . S
C1448 H1439 0.930 . S
C1448 C1446 1.378 . S
C1448 C1449 1.367 . S
C1449 C1448 1.367 . S
C1449 C1451 1.433 . S
C1450 C1446 1.350 . S
C1450 C1447 1.463 . S
C1450 N1454 1.427 . S
C1451 H1441 0.929 . S
C1451 C1449 1.433 . S
C1451 N1454 1.384 . S
C1452 H1443 0.929 . S
C1452 C1444 1.378 . S
C1452 C1447 1.350 . S
C1453 H1440 0.929 . S
C1453 C1445 1.433 . S
C1453 N1455 1.384 . S
N1454 C1450 1.427 . S
N1454 C1451 1.384 . S
N1455 C1447 1.427 . S
N1455 C1453 1.384 . S
H1456 C1462 0.930 . S
H1457 C1466 0.930 . S
H1458 C1471 0.929 . S
H1459 C1469 0.929 . S
H1460 C1464 0.929 . S
H1461 C1470 0.929 . S
C1462 H1456 0.930 . S
C1462 C1463 1.367 . S
C1462 C1470 1.378 . S
C1463 C1462 1.367 . S
C1463 C1471 1.433 . S
C1464 H1460 0.929 . S
C1464 C1466 1.378 . S
C1464 C1468 1.350 . S
C1465 C1468 1.463 . S
C1465 C1470 1.350 . S
C1465 N1473 1.427 . S
C1466 H1457 0.930 . S
C1466 C1464 1.378 . S
C1466 C1467 1.367 . S
C1467 C1466 1.367 . S
C1467 C1469 1.433 . S
C1468 C1464 1.350 . S
C1468 C1465 1.463 . S
C1468 N1472 1.427 . S
C1469 H1459 0.929 . S
C1469 C1467 1.433 . S
C1469 N1472 1.384 . S
C1470 H1461 0.929 . S
C1470 C1462 1.378 . S
C1470 C1465 1.350 . S
C1471 H1458 0.929 . S
C1471 C1463 1.433 . S
C1471 N1473 1.384 . S
N1472 C1468 1.427 . S
N1472 C1469 1.384 . S
N1473 C1465 1.427 . S
N1473 C1471 1.384 . S
H1474 C1480 0.930 . S
H1475 C1484 0.930 . S
H1476 C1489 0.929 . S
H1477 C1487 0.929 . S
H1478 C1482 0.929 . S
H1479 C1488 0.929 . S
C1480 H1474 0.930 . S
C1480 C1481 1.367 . S
C1480 C1488 1.378 . S
C1481 C1480 1.367 . S
C1481 C1489 1.433 . S
C1482 H1478 0.929 . S
C1482 C1484 1.378 . S
C1482 C1486 1.350 . S
C1483 C1486 1.463 . S
C1483 C1488 1.350 . S
C1483 N1491 1.427 . S
C1484 H1475 0.930 . S
C1484 C1482 1.378 . S
C1484 C1485 1.367 . S
C1485 C1484 1.367 . S
C1485 C1487 1.433 . S
C1486 C1482 1.350 . S
C1486 C1483 1.463 . S
C1486 N1490 1.427 . S
C1487 H1477 0.929 . S
C1487 C1485 1.433 . S
C1487 N1490 1.384 . S
C1488 H1479 0.929 . S
C1488 C1480 1.378 . S
C1488 C1483 1.350 . S
C1489 H1476 0.929 . S
C1489 C1481 1.433 . S
C1489 N1491 1.384 . S
N1490 C1486 1.427 . S
N1490 C1487 1.384 . S
N1491 C1483 1.427 . S
N1491 C1489 1.384 . S
H1492 C1498 0.930 . S
H1493 C1502 0.930 . S
H1494 C1507 0.929 . S
H1495 C1505 0.929 . S
H1496 C1500 0.929 . S
H1497 C1506 0.929 . S
C1498 H1492 0.930 . S
C1498 C1499 1.367 . S
C1498 C1506 1.378 . S
C1499 C1498 1.367 . S
C1499 C1507 1.433 . S
C1500 H1496 0.929 . S
C1500 C1502 1.378 . S
C1500 C1504 1.350 . S
C1501 C1504 1.463 . S
C1501 C1506 1.350 . S
C1501 N1509 1.427 . S
C1502 H1493 0.930 . S
C1502 C1500 1.378 . S
C1502 C1503 1.367 . S
C1503 C1502 1.367 . S
C1503 C1505 1.433 . S
C1504 C1500 1.350 . S
C1504 C1501 1.463 . S
C1504 N1508 1.427 . S
C1505 H1495 0.929 . S
C1505 C1503 1.433 . S
C1505 N1508 1.384 . S
C1506 H1497 0.929 . S
C1506 C1498 1.378 . S
C1506 C1501 1.350 . S
C1507 H1494 0.929 . S
C1507 C1499 1.433 . S
C1507 N1509 1.384 . S
N1508 C1504 1.427 . S
N1508 C1505 1.384 . S
N1509 C1501 1.427 . S
N1509 C1507 1.384 . S
H1510 C1516 0.930 . S
H1511 C1520 0.930 . S
H1512 C1525 0.929 . S
H1513 C1523 0.929 . S
H1514 C1518 0.929 . S
H1515 C1524 0.929 . S
C1516 H1510 0.930 . S
C1516 C1517 1.367 . S
C1516 C1524 1.378 . S
C1517 C1516 1.367 . S
C1517 C1525 1.433 . S
C1518 H1514 0.929 . S
C1518 C1520 1.378 . S
C1518 C1522 1.350 . S
C1519 C1522 1.463 . S
C1519 C1524 1.350 . S
C1519 N1527 1.427 . S
C1520 H1511 0.930 . S
C1520 C1518 1.378 . S
C1520 C1521 1.367 . S
C1521 C1520 1.367 . S
C1521 C1523 1.433 . S
C1522 C1518 1.350 . S
C1522 C1519 1.463 . S
C1522 N1526 1.427 . S
C1523 H1513 0.929 . S
C1523 C1521 1.433 . S
C1523 N1526 1.384 . S
C1524 H1515 0.929 . S
C1524 C1516 1.378 . S
C1524 C1519 1.350 . S
C1525 H1512 0.929 . S
C1525 C1517 1.433 . S
C1525 N1527 1.384 . S
N1526 C1522 1.427 . S
N1526 C1523 1.384 . S
N1527 C1519 1.427 . S
N1527 C1525 1.384 . S
H1528 C1534 0.930 . S
H1529 C1538 0.930 . S
H1530 C1543 0.929 . S
H1531 C1541 0.929 . S
H1532 C1536 0.929 . S
H1533 C1542 0.929 . S
C1534 H1528 0.930 . S
C1534 C1535 1.367 . S
C1534 C1542 1.378 . S
C1535 C1534 1.367 . S
C1535 C1543 1.433 . S
C1536 H1532 0.929 . S
C1536 C1538 1.378 . S
C1536 C1540 1.350 . S
C1537 C1540 1.463 . S
C1537 C1542 1.350 . S
C1537 N1545 1.427 . S
C1538 H1529 0.930 . S
C1538 C1536 1.378 . S
C1538 C1539 1.367 . S
C1539 C1538 1.367 . S
C1539 C1541 1.433 . S
C1540 C1536 1.350 . S
C1540 C1537 1.463 . S
C1540 N1544 1.427 . S
C1541 H1531 0.929 . S
C1541 C1539 1.433 . S
C1541 N1544 1.384 . S
C1542 H1533 0.929 . S
C1542 C1534 1.378 . S
C1542 C1537 1.350 . S
C1543 H1530 0.929 . S
C1543 C1535 1.433 . S
C1543 N1545 1.384 . S
N1544 C1540 1.427 . S
N1544 C1541 1.384 . S
N1545 C1537 1.427 . S
N1545 C1543 1.384 . S
H1546 C1552 0.930 . S
H1547 C1556 0.930 . S
H1548 C1561 0.929 . S
H1549 C1559 0.929 . S
H1550 C1554 0.929 . S
H1551 C1560 0.929 . S
C1552 H1546 0.930 . S
C1552 C1553 1.367 . S
C1552 C1560 1.378 . S
C1553 C1552 1.367 . S
C1553 C1561 1.433 . S
C1554 H1550 0.929 . S
C1554 C1556 1.378 . S
C1554 C1558 1.350 . S
C1555 C1558 1.463 . S
C1555 C1560 1.350 . S
C1555 N1563 1.427 . S
C1556 H1547 0.930 . S
C1556 C1554 1.378 . S
C1556 C1557 1.367 . S
C1557 C1556 1.367 . S
C1557 C1559 1.433 . S
C1558 C1554 1.350 . S
C1558 C1555 1.463 . S
C1558 N1562 1.427 . S
C1559 H1549 0.929 . S
C1559 C1557 1.433 . S
C1559 N1562 1.384 . S
C1560 H1551 0.929 . S
C1560 C1552 1.378 . S
C1560 C1555 1.350 . S
C1561 H1548 0.929 . S
C1561 C1553 1.433 . S
C1561 N1563 1.384 . S
N1562 C1558 1.427 . S
N1562 C1559 1.384 . S
N1563 C1555 1.427 . S
N1563 C1561 1.384 . S
H1564 C1570 0.930 . S
H1565 C1574 0.930 . S
H1566 C1579 0.929 . S
H1567 C1577 0.929 . S
H1568 C1572 0.929 . S
H1569 C1578 0.929 . S
C1570 H1564 0.930 . S
C1570 C1571 1.367 . S
C1570 C1578 1.378 . S
C1571 C1570 1.367 . S
C1571 C1579 1.433 . S
C1572 H1568 0.929 . S
C1572 C1574 1.378 . S
C1572 C1576 1.350 . S
C1573 C1576 1.463 . S
C1573 C1578 1.350 . S
C1573 N1581 1.427 . S
C1574 H1565 0.930 . S
C1574 C1572 1.378 . S
C1574 C1575 1.367 . S
C1575 C1574 1.367 . S
C1575 C1577 1.433 . S
C1576 C1572 1.350 . S
C1576 C1573 1.463 . S
C1576 N1580 1.427 . S
C1577 H1567 0.929 . S
C1577 C1575 1.433 . S
C1577 N1580 1.384 . S
C1578 H1569 0.929 . S
C1578 C1570 1.378 . S
C1578 C1573 1.350 . S
C1579 H1566 0.929 . S
C1579 C1571 1.433 . S
C1579 N1581 1.384 . S
N1580 C1576 1.427 . S
N1580 C1577 1.384 . S
N1581 C1573 1.427 . S
N1581 C1579 1.384 . S
H1582 C1588 0.930 . S
H1583 C1592 0.930 . S
H1584 C1597 0.929 . S
H1585 C1595 0.929 . S
H1586 C1590 0.929 . S
H1587 C1596 0.929 . S
C1588 H1582 0.930 . S
C1588 C1589 1.367 . S
C1588 C1596 1.378 . S
C1589 C1588 1.367 . S
C1589 C1597 1.433 . S
C1590 H1586 0.929 . S
C1590 C1592 1.378 . S
C1590 C1594 1.350 . S
C1591 C1594 1.463 . S
C1591 C1596 1.350 . S
C1591 N1599 1.427 . S
C1592 H1583 0.930 . S
C1592 C1590 1.378 . S
C1592 C1593 1.367 . S
C1593 C1592 1.367 . S
C1593 C1595 1.433 . S
C1594 C1590 1.350 . S
C1594 C1591 1.463 . S
C1594 N1598 1.427 . S
C1595 H1585 0.929 . S
C1595 C1593 1.433 . S
C1595 N1598 1.384 . S
C1596 H1587 0.929 . S
C1596 C1588 1.378 . S
C1596 C1591 1.350 . S
C1597 H1584 0.929 . S
C1597 C1589 1.433 . S
C1597 N1599 1.384 . S
N1598 C1594 1.427 . S
N1598 C1595 1.384 . S
N1599 C1591 1.427 . S
N1599 C1597 1.384 . S
C455 C93 1.467 . S
C459 C9 1.467 . S
C473 C23 1.472 . S
C477 C107 1.474 . S
C491 C65 1.465 . S
C495 C37 1.472 . S
C509 C51 1.472 . S
C513 C79 1.474 . S
C527 C205 1.476 . S
C531 C121 1.469 . S
C545 C219 1.466 . S
C549 C135 1.475 . S
C563 C149 1.476 . S
C567 C177 1.467 . S
C581 C163 1.474 . S
C585 C191 1.472 . S
C599 C233 1.465 . S
C603 C317 1.475 . S
C617 C247 1.469 . S
C621 C331 1.466 . S
C635 C289 1.475 . S
C639 C261 1.470 . S
C653 C303 1.468 . S
C657 C275 1.476 . S
C671 C345 1.471 . S
C675 C429 1.465 . S
C689 C443 1.465 . S
C693 C359 1.470 . S
C707 C401 1.476 . S
C711 C373 1.466 . S
C725 C387 1.465 . S
C729 C415 1.470 . S
C743 C3 1.233 . S
C747 C427 1.242 . S
C761 C217 1.242 . S
C765 C17 1.232 . S
C779 C31 1.242 . S
C783 C399 1.231 . S
C797 C45 1.237 . S
C801 C189 1.233 . S
C815 C371 1.241 . S
C819 C59 1.232 . S
C833 C161 1.241 . S
C837 C73 1.232 . S
C851 C87 1.235 . S
C855 C343 1.241 . S
C869 C133 1.231 . S
C873 C101 1.242 . S
C887 C115 1.237 . S
C891 C315 1.233 . S
C905 C105 1.236 . S
C909 C129 1.241 . S
C923 C143 1.242 . S
C927 C287 1.231 . S
C941 C157 1.241 . S
C945 C77 1.231 . S
C959 C259 1.236 . S
C963 C171 1.240 . S
C977 C185 1.241 . S
C981 C49 1.231 . S
C995 C199 1.237 . S
C999 C231 1.233 . S
C1013 C21 1.234 . S
C1017 C213 1.236 . S
C1031 C227 1.241 . S
C1035 C203 1.231 . S
C1049 C241 1.232 . S
C1053 C441 1.242 . S
C1067 C175 1.240 . S
C1071 C255 1.236 . S
C1085 C269 1.232 . S
C1089 C413 1.241 . S
C1103 C147 1.240 . S
C1107 C283 1.232 . S
C1121 C385 1.240 . S
C1125 C297 1.236 . S
C1139 C119 1.233 . S
C1143 C311 1.237 . S
C1157 C357 1.231 . S
C1161 C325 1.242 . S
C1175 C339 1.235 . S
C1179 C91 1.235 . S
C1193 C329 1.231 . S
C1197 C353 1.242 . S
C1211 C63 1.232 . S
C1215 C367 1.242 . S
C1229 C381 1.239 . S
C1233 C301 1.238 . S
C1247 C395 1.235 . S
C1251 C35 1.235 . S
C1265 C409 1.232 . S
C1269 C273 1.241 . S
C1283 C7 1.233 . S
C1287 C423 1.242 . S
C1301 C437 1.241 . S
C1305 C245 1.235 . S
C1319 C8 1.422 . S
C1323 C302 1.419 . S
C1337 C316 1.421 . S
C1341 C22 1.419 . S
C1355 C36 1.422 . S
C1359 C330 1.422 . S
C1373 C288 1.422 . S
C1377 C50 1.420 . S
C1391 C274 1.418 . S
C1395 C64 1.419 . S
C1409 C232 1.422 . S
C1413 C78 1.422 . S
C1427 C246 1.418 . S
C1431 C92 1.419 . S
C1445 C260 1.422 . S
C1449 C106 1.422 . S
C1463 C120 1.418 . S
C1467 C414 1.419 . S
C1481 C428 1.419 . S
C1485 C134 1.418 . S
C1499 C442 1.422 . S
C1503 C148 1.422 . S
C1517 C400 1.419 . S
C1521 C162 1.418 . S
C1535 C386 1.419 . S
C1539 C176 1.418 . S
C1553 C344 1.422 . S
C1557 C190 1.422 . S
C1571 C204 1.422 . S
C1575 C358 1.422 . S
C1589 C218 1.421 . S
C1593 C372 1.419 . S
