# Generated by pormake.
# Topology wft, (7)-cn, num edge types: 1
# Building blocks:
#     Node 0, Type 0, BuildingBlock: HICVOG_clean_sbu_0, # of connection points: 7
#     Node 1, Type 0, BuildingBlock: HICVOG_clean_sbu_0, # of connection points: 7
#     Node 2, Type 0, BuildingBlock: HICVOG_clean_sbu_0, # of connection points: 7
#     Node 3, Type 0, BuildingBlock: HICVOG_clean_sbu_0, # of connection points: 7
#     Node 4, Type 0, BuildingBlock: HICVOG_clean_sbu_0, # of connection points: 7
#     Node 5, Type 0, BuildingBlock: HICVOG_clean_sbu_0, # of connection points: 7
#     Node 6, Type 0, BuildingBlock: HICVOG_clean_sbu_0, # of connection points: 7
#     Node 7, Type 0, BuildingBlock: HICVOG_clean_sbu_0, # of connection points: 7
#     Edge 8, Type (0, 0), BuildingBlock: XUDNAN_clean_linker_2, # of connection points: 2
#     Edge 9, Type (0, 0), BuildingBlock: XUDNAN_clean_linker_2, # of connection points: 2
#     Edge 10, Type (0, 0), BuildingBlock: XUDNAN_clean_linker_2, # of connection points: 2
#     Edge 11, Type (0, 0), BuildingBlock: XUDNAN_clean_linker_2, # of connection points: 2
#     Edge 12, Type (0, 0), BuildingBlock: XUDNAN_clean_linker_2, # of connection points: 2
#     Edge 13, Type (0, 0), BuildingBlock: XUDNAN_clean_linker_2, # of connection points: 2
#     Edge 14, Type (0, 0), BuildingBlock: XUDNAN_clean_linker_2, # of connection points: 2
#     Edge 15, Type (0, 0), BuildingBlock: XUDNAN_clean_linker_2, # of connection points: 2
#     Edge 16, Type (0, 0), BuildingBlock: XUDNAN_clean_linker_2, # of connection points: 2
#     Edge 17, Type (0, 0), BuildingBlock: XUDNAN_clean_linker_2, # of connection points: 2
#     Edge 18, Type (0, 0), BuildingBlock: XUDNAN_clean_linker_2, # of connection points: 2
#     Edge 19, Type (0, 0), BuildingBlock: XUDNAN_clean_linker_2, # of connection points: 2
#     Edge 20, Type (0, 0), BuildingBlock: XUDNAN_clean_linker_2, # of connection points: 2
#     Edge 21, Type (0, 0), BuildingBlock: XUDNAN_clean_linker_2, # of connection points: 2
#     Edge 22, Type (0, 0), BuildingBlock: XUDNAN_clean_linker_2, # of connection points: 2
#     Edge 23, Type (0, 0), BuildingBlock: XUDNAN_clean_linker_2, # of connection points: 2
#     Edge 24, Type (0, 0), BuildingBlock: XUDNAN_clean_linker_2, # of connection points: 2
#     Edge 25, Type (0, 0), BuildingBlock: XUDNAN_clean_linker_2, # of connection points: 2
#     Edge 26, Type (0, 0), BuildingBlock: XUDNAN_clean_linker_2, # of connection points: 2
#     Edge 27, Type (0, 0), BuildingBlock: XUDNAN_clean_linker_2, # of connection points: 2
#     Edge 28, Type (0, 0), BuildingBlock: XUDNAN_clean_linker_2, # of connection points: 2
#     Edge 29, Type (0, 0), BuildingBlock: XUDNAN_clean_linker_2, # of connection points: 2
#     Edge 30, Type (0, 0), BuildingBlock: XUDNAN_clean_linker_2, # of connection points: 2
#     Edge 31, Type (0, 0), BuildingBlock: XUDNAN_clean_linker_2, # of connection points: 2
#     Edge 32, Type (0, 0), BuildingBlock: XUDNAN_clean_linker_2, # of connection points: 2
#     Edge 33, Type (0, 0), BuildingBlock: XUDNAN_clean_linker_2, # of connection points: 2
#     Edge 34, Type (0, 0), BuildingBlock: XUDNAN_clean_linker_2, # of connection points: 2
#     Edge 35, Type (0, 0), BuildingBlock: XUDNAN_clean_linker_2, # of connection points: 2
# Relax obj value: 0.197
# Max RMSD: 0.212
# Mean RMSD: 0.212
data_MOF--net-wft--node1-HICVOG_clean_sbu_0--edge1-XUDNAN_clean_linker_2
_symmetry_space_group_name_H-M    P1
_symmetry_Int_Tables_number       1
_symmetry_cell_setting            triclinic
loop_
_symmetry_equiv_pos_as_xyz
'x, y, z'
_cell_length_a     32.188531
_cell_length_b     32.254102
_cell_length_c     30.31598
_cell_angle_alpha  89.823187
_cell_angle_beta   89.856827
_cell_angle_gamma 89.681819
loop_
_atom_site_label
_atom_site_type_symbol
_atom_site_fract_x
_atom_site_fract_y
_atom_site_fract_z
_atom_type_partial_charge
Zn0 Zn 0.34601 0.30821 0.35916 0.0
C1 C 0.33635 0.29466 0.22885 0.0
N2 N 0.29717 0.30744 0.23646 0.0
C3 C 0.29369 0.30618 0.28041 0.0
N4 N 0.3297 0.29381 0.29943 0.0
N5 N 0.35644 0.28543 0.26705 0.0
C6 C 0.49308 0.24452 0.26463 0.0
O7 O 0.4859 0.21829 0.2969 0.0
O8 O 0.31679 0.27565 0.40801 0.0
Zn9 Zn 0.4045 0.24842 0.27644 0.0
N10 N 0.33403 0.36684 0.36676 0.0
C11 C 0.32374 0.43344 0.3346 0.0
C12 C 0.33105 0.39113 0.33017 0.0
C13 C 0.33112 0.38346 0.4079 0.0
N14 N 0.3207 0.45003 0.37551 0.0
C15 C 0.32432 0.42648 0.4127 0.0
O16 O 0.41861 0.24066 0.34119 0.0
C17 C 0.42912 0.26907 0.36781 0.0
O18 O 0.40766 0.30209 0.37122 0.0
H19 H 0.33498 0.37799 0.29771 0.0
H20 H 0.33538 0.36335 0.43613 0.0
C21 C 0.41555 0.16609 0.24294 0.0
C22 C 0.40313 0.12601 0.23113 0.0
C23 C 0.33283 0.14591 0.24225 0.0
C24 C 0.3456 0.18506 0.25595 0.0
N25 N 0.38675 0.19436 0.25605 0.0
N26 N 0.36182 0.11718 0.23064 0.0
H27 H 0.44779 0.17474 0.24183 0.0
C28 C 0.32562 0.23807 0.41734 0.0
O29 O 0.3503 0.21714 0.39094 0.0
O30 O 0.46198 0.2637 0.2476 0.0
H31 H 0.32287 0.20776 0.26653 0.0
H32 H 0.32109 0.45311 0.30577 0.0
H33 H 0.30019 0.13812 0.24173 0.0
Zn34 Zn 0.25982 0.64213 0.75041 0.0
C35 C 0.29055 0.76313 0.75138 0.0
N36 N 0.28572 0.75841 0.79514 0.0
C37 C 0.28072 0.71731 0.79959 0.0
N38 N 0.2824 0.69739 0.76061 0.0
N39 N 0.28925 0.72626 0.72996 0.0
C40 C 0.23529 0.72318 0.6099 0.0
O41 O 0.22596 0.68816 0.62973 0.0
O42 O 0.26711 0.59543 0.79721 0.0
Zn43 Zn 0.30583 0.71734 0.66803 0.0
N44 N 0.20112 0.64912 0.74206 0.0
C45 C 0.14097 0.68964 0.72689 0.0
C46 C 0.18363 0.68683 0.73413 0.0
C47 C 0.17793 0.61419 0.74317 0.0
N48 N 0.1178 0.65458 0.72729 0.0
C49 C 0.13503 0.61654 0.73495 0.0
O50 O 0.31079 0.65759 0.64763 0.0
C51 C 0.29983 0.62146 0.65964 0.0
O52 O 0.28101 0.61541 0.69578 0.0
H53 H 0.20256 0.71439 0.7332 0.0
H54 H 0.19334 0.58518 0.75056 0.0
C55 C 0.37818 0.74107 0.61831 0.0
C56 C 0.41934 0.75497 0.61251 0.0
C57 C 0.42364 0.76716 0.68964 0.0
C58 C 0.38338 0.75254 0.69522 0.0
N59 N 0.36114 0.74033 0.65951 0.0
N60 N 0.44066 0.76779 0.6487 0.0
H61 H 0.36024 0.72946 0.59094 0.0
C62 C 0.29492 0.5679 0.78958 0.0
O63 O 0.32419 0.57662 0.7608 0.0
O64 O 0.26654 0.74359 0.62344 0.0
H65 H 0.37048 0.75021 0.72799 0.0
H66 H 0.12642 0.71938 0.72058 0.0
H67 H 0.44157 0.77719 0.71775 0.0
Zn68 Zn 0.63922 0.78913 0.2687 0.0
C69 C 0.76165 0.76123 0.27405 0.0
N70 N 0.75845 0.76215 0.22998 0.0
C71 C 0.71729 0.7638 0.22298 0.0
N72 N 0.69548 0.76466 0.26124 0.0
N73 N 0.72352 0.76142 0.29351 0.0
C74 C 0.72649 0.81062 0.41728 0.0
O75 O 0.6896 0.82146 0.40278 0.0
O76 O 0.59109 0.77698 0.22485 0.0
Zn77 Zn 0.71208 0.74638 0.35518 0.0
N78 N 0.64744 0.84821 0.26786 0.0
C79 C 0.68966 0.90736 0.27966 0.0
C80 C 0.68403 0.86459 0.28146 0.0
C81 C 0.61614 0.87274 0.25279 0.0
N82 N 0.65843 0.93193 0.26443 0.0
C83 C 0.62166 0.91584 0.25061 0.0
O84 O 0.6526 0.75043 0.37702 0.0
C85 C 0.61695 0.76243 0.36438 0.0
O86 O 0.61136 0.77688 0.32602 0.0
H87 H 0.70858 0.8447 0.29364 0.0
H88 H 0.58713 0.85854 0.24347 0.0
C89 C 0.71864 0.66998 0.40245 0.0
C90 C 0.72477 0.62693 0.40778 0.0
C91 C 0.74202 0.62213 0.33162 0.0
C92 C 0.73548 0.66456 0.32659 0.0
N93 N 0.72453 0.68777 0.36218 0.0
N94 N 0.73646 0.60441 0.37183 0.0
H95 H 0.70802 0.68933 0.42928 0.0
C96 C 0.56291 0.75168 0.23721 0.0
O97 O 0.57166 0.72563 0.26931 0.0
O98 O 0.74534 0.7802 0.39928 0.0
H99 H 0.73892 0.67875 0.2945 0.0
H100 H 0.71855 0.92096 0.29039 0.0
H101 H 0.75103 0.60328 0.3037 0.0
Zn102 Zn 0.78644 0.40973 0.73023 0.0
C103 C 0.75676 0.28956 0.74034 0.0
N104 N 0.76487 0.29525 0.78332 0.0
C105 C 0.76936 0.33657 0.78612 0.0
N106 N 0.76443 0.3556 0.74679 0.0
N107 N 0.75545 0.32594 0.71792 0.0
C108 C 0.794 0.33875 0.58342 0.0
O109 O 0.78609 0.37836 0.58876 0.0
O110 O 0.79033 0.45662 0.7768 0.0
Zn111 Zn 0.73578 0.33305 0.65664 0.0
N112 N 0.84125 0.39863 0.70711 0.0
C113 C 0.88385 0.35518 0.6625 0.0
C114 C 0.84517 0.36559 0.67975 0.0
C115 C 0.87474 0.42178 0.71835 0.0
N116 N 0.91729 0.37822 0.67355 0.0
C117 C 0.91407 0.41141 0.70104 0.0
O118 O 0.71979 0.39212 0.6394 0.0
C119 C 0.72928 0.42893 0.65032 0.0
O120 O 0.75378 0.43618 0.68201 0.0
H121 H 0.81847 0.3473 0.67173 0.0
H122 H 0.87064 0.44724 0.74108 0.0
C123 C 0.66874 0.29379 0.60961 0.0
C124 C 0.63204 0.27068 0.60586 0.0
C125 C 0.6289 0.26431 0.68365 0.0
C126 C 0.6646 0.28823 0.68737 0.0
N127 N 0.68473 0.30135 0.65038 0.0
N128 N 0.61343 0.25611 0.64307 0.0
H129 H 0.68436 0.30569 0.58058 0.0
C130 C 0.76085 0.48333 0.77746 0.0
O131 O 0.72603 0.4742 0.75727 0.0
O132 O 0.77765 0.31262 0.60988 0.0
H133 H 0.67594 0.29631 0.71965 0.0
H134 H 0.88735 0.32894 0.64063 0.0
H135 H 0.61319 0.25293 0.71282 0.0
Zn136 Zn 0.9187 0.28483 0.22987 0.0
C137 C 0.79632 0.25994 0.24754 0.0
N138 N 0.80466 0.26972 0.28957 0.0
C139 C 0.84611 0.27422 0.28947 0.0
N140 N 0.86297 0.26741 0.24931 0.0
N141 N 0.83149 0.25768 0.22282 0.0
C142 C 0.83398 0.27528 0.07791 0.0
O143 O 0.86429 0.24844 0.07228 0.0
O144 O 0.9657 0.28995 0.27632 0.0
Zn145 Zn 0.83608 0.23548 0.16267 0.0
N146 N 0.91092 0.33788 0.20167 0.0
C147 C 0.88994 0.37454 0.13723 0.0
C148 C 0.89262 0.33782 0.1614 0.0
C149 C 0.92595 0.37338 0.21944 0.0
N150 N 0.9069 0.40959 0.1539 0.0
C151 C 0.92485 0.41004 0.19452 0.0
O152 O 0.89482 0.21967 0.14518 0.0
C153 C 0.93318 0.22511 0.15279 0.0
O154 O 0.94513 0.24843 0.18381 0.0
H155 H 0.88138 0.30914 0.14786 0.0
H156 H 0.94109 0.3724 0.25126 0.0
C157 C 0.80437 0.16453 0.1184 0.0
C158 C 0.78736 0.12453 0.1147 0.0
C159 C 0.77405 0.12461 0.19179 0.0
C160 C 0.79195 0.16369 0.19533 0.0
N161 N 0.80616 0.18327 0.15853 0.0
N162 N 0.7725 0.10586 0.15182 0.0
H163 H 0.81801 0.17996 0.09023 0.0
C164 C 0.9991 0.30336 0.25837 0.0
O165 O 0.99834 0.31266 0.21615 0.0
O166 O 0.81497 0.27603 0.1149 0.0
H167 H 0.79558 0.17753 0.22741 0.0
H168 H 0.87581 0.37488 0.10489 0.0
H169 H 0.76247 0.10878 0.22079 0.0
Zn170 Zn 0.30004 0.14678 0.7784 0.0
C171 C 0.26626 0.26699 0.78022 0.0
N172 N 0.26867 0.26324 0.73633 0.0
C173 C 0.27139 0.22218 0.72983 0.0
N174 N 0.27147 0.20083 0.76849 0.0
N175 N 0.26627 0.22918 0.80024 0.0
C176 C 0.31647 0.23719 0.91859 0.0
O177 O 0.33077 0.20406 0.89843 0.0
O178 O 0.2896 0.09481 0.7384 0.0
Zn179 Zn 0.24902 0.21918 0.86208 0.0
N180 N 0.35902 0.16033 0.77785 0.0
C181 C 0.41243 0.20691 0.7992 0.0
C182 C 0.37069 0.19571 0.79858 0.0
C183 C 0.38758 0.1362 0.75678 0.0
N184 N 0.44107 0.18179 0.77987 0.0
C185 C 0.42989 0.1463 0.75892 0.0
O186 O 0.25435 0.16097 0.88607 0.0
C187 C 0.2694 0.12622 0.87467 0.0
O188 O 0.28609 0.12137 0.83717 0.0
H189 H 0.34773 0.21524 0.81427 0.0
H190 H 0.37754 0.10956 0.73831 0.0
C191 C 0.16883 0.22108 0.90558 0.0
C192 C 0.12518 0.22365 0.90665 0.0
C193 C 0.12532 0.2468 0.83231 0.0
C194 C 0.1684 0.24309 0.83091 0.0
N195 N 0.18949 0.23052 0.86748 0.0
N196 N 0.10473 0.23648 0.86979 0.0
H197 H 0.18599 0.20967 0.93383 0.0
C198 C 0.3085 0.06315 0.75469 0.0
O199 O 0.33154 0.06879 0.78984 0.0
O200 O 0.28202 0.2528 0.90592 0.0
H201 H 0.18471 0.24948 0.80053 0.0
H202 H 0.4221 0.23502 0.81551 0.0
H203 H 0.10823 0.25675 0.80344 0.0
Zn204 Zn 0.2144 0.80959 0.17078 0.0
C205 C 0.21443 0.78499 0.30248 0.0
N206 N 0.25579 0.78709 0.29747 0.0
C207 C 0.26103 0.79068 0.25371 0.0
N208 N 0.22373 0.79209 0.23259 0.0
N209 N 0.19438 0.78659 0.26333 0.0
C210 C 0.06265 0.79512 0.29033 0.0
O211 O 0.07157 0.82578 0.26337 0.0
O212 O 0.24508 0.7732 0.12626 0.0
Zn213 Zn 0.13878 0.76307 0.25156 0.0
N214 N 0.23218 0.86706 0.16498 0.0
C215 C 0.24928 0.93096 0.19927 0.0
C216 C 0.23833 0.88937 0.20236 0.0
C217 C 0.23591 0.885 0.12441 0.0
N218 N 0.25303 0.94886 0.15892 0.0
C219 C 0.24666 0.92727 0.121 0.0
O220 O 0.11142 0.7848 0.19735 0.0
C221 C 0.1182 0.80218 0.16059 0.0
O222 O 0.15473 0.81198 0.14872 0.0
H223 H 0.23445 0.87509 0.23437 0.0
H224 H 0.22932 0.86665 0.0955 0.0
C225 C 0.11644 0.67769 0.24615 0.0
C226 C 0.12175 0.63623 0.23333 0.0
C227 C 0.19016 0.65142 0.20924 0.0
C228 C 0.18461 0.69265 0.22149 0.0
N229 N 0.14786 0.70502 0.23953 0.0
N230 N 0.15855 0.6243 0.215 0.0
H231 H 0.08714 0.6886 0.25947 0.0
C232 C 0.22373 0.74581 0.1065 0.0
O233 O 0.18532 0.73919 0.1192 0.0
O234 O 0.09051 0.76746 0.29728 0.0
H235 H 0.20913 0.71466 0.21568 0.0
H236 H 0.25438 0.94906 0.22873 0.0
H237 H 0.21909 0.6412 0.19452 0.0
Zn238 Zn 0.75868 0.90614 0.77339 0.0
C239 C 0.78517 0.78468 0.77389 0.0
N240 N 0.77889 0.78999 0.73041 0.0
C241 C 0.77871 0.83134 0.7257 0.0
N242 N 0.78376 0.85113 0.76434 0.0
N243 N 0.7889 0.82172 0.795 0.0
C244 C 0.73648 0.81281 0.91278 0.0
O245 O 0.72369 0.84681 0.89301 0.0
O246 O 0.77276 0.95784 0.73393 0.0
Zn247 Zn 0.80504 0.8301 0.85736 0.0
N248 N 0.69897 0.89778 0.76958 0.0
C249 C 0.63739 0.86573 0.79588 0.0
C250 C 0.68063 0.86765 0.79402 0.0
C251 C 0.67583 0.92419 0.74461 0.0
N252 N 0.61445 0.89524 0.77487 0.0
C253 C 0.63243 0.92528 0.74961 0.0
O254 O 0.80057 0.88802 0.8829 0.0
C255 C 0.78691 0.92323 0.87096 0.0
O256 O 0.77194 0.92879 0.83286 0.0
H257 H 0.69944 0.84574 0.81224 0.0
H258 H 0.69152 0.94508 0.72259 0.0
C259 C 0.88053 0.81669 0.90528 0.0
C260 C 0.92355 0.80937 0.91056 0.0
C261 C 0.92988 0.80286 0.8326 0.0
C262 C 0.88758 0.81068 0.82775 0.0
N263 N 0.86361 0.81672 0.86415 0.0
N264 N 0.94673 0.8025 0.87358 0.0
H265 H 0.86048 0.82356 0.93294 0.0
C266 C 0.75451 0.98957 0.75086 0.0
O267 O 0.73165 0.98372 0.78625 0.0
O268 O 0.77043 0.79617 0.90003 0.0
H269 H 0.87389 0.8118 0.79524 0.0
H270 H 0.6222 0.84212 0.81542 0.0
H271 H 0.94932 0.79754 0.80399 0.0
H272 H 0.30242 0.33005 0.15703 0.0
H273 H 0.40267 0.24743 0.19538 0.0
H274 H 0.41585 0.23162 0.11678 0.0
H275 H 0.26069 0.26751 0.07965 0.0
H276 H 0.24555 0.30832 0.04216 0.0
H277 H 0.24994 0.31892 0.10005 0.0
H278 H 0.30202 0.37804 0.08345 0.0
H279 H 0.29764 0.36775 0.02523 0.0
H280 H 0.34795 0.36729 0.05122 0.0
H281 H 0.41009 0.21734 0.03417 0.0
H282 H 0.38626 0.20518 0.958 0.0
H283 H 0.28872 0.29705 0.97561 0.0
C284 C 0.32787 0.30922 0.14918 0.0
C285 C 0.35123 0.28949 0.18277 0.0
C286 C 0.38423 0.26275 0.17065 0.0
C287 C 0.39196 0.25375 0.12587 0.0
C288 C 0.36682 0.27241 0.09377 0.0
C289 C 0.3357 0.3 0.10511 0.0
C290 C 0.30984 0.31271 0.06568 0.0
C291 C 0.26382 0.30115 0.0723 0.0
C292 C 0.31467 0.35921 0.05582 0.0
C293 C 0.33004 0.28665 0.03027 0.0
C294 C 0.36335 0.26417 0.04678 0.0
C295 C 0.38457 0.23538 0.02084 0.0
C296 C 0.37072 0.22868 0.97755 0.0
C297 C 0.33561 0.25028 0.96071 0.0
C298 C 0.31595 0.28047 0.98718 0.0
H299 H 0.17972 0.74398 0.03099 0.0
H300 H 0.29982 0.71177 0.08561 0.0
H301 H 0.32259 0.686 0.01214 0.0
H302 H 0.17053 0.66203 0.94707 0.0
H303 H 0.14862 0.69749 0.90725 0.0
H304 H 0.13997 0.7057 0.96534 0.0
H305 H 0.1715 0.78075 0.95861 0.0
H306 H 0.17752 0.77161 0.90056 0.0
H307 H 0.22167 0.78646 0.93327 0.0
H308 H 0.33361 0.66935 0.93104 0.0
H309 H 0.33657 0.67533 0.84959 0.0
H310 H 0.21087 0.72313 0.84832 0.0
C311 C 0.21043 0.73041 0.02767 0.0
C312 C 0.23778 0.72873 0.06391 0.0
C313 C 0.27835 0.71265 0.05817 0.0
C314 C 0.29131 0.69772 0.01671 0.0
C315 C 0.26348 0.69985 0.9814 0.0
C316 C 0.22414 0.71664 0.98644 0.0
C317 C 0.20245 0.72178 0.94252 0.0
C318 C 0.16305 0.69517 0.94044 0.0
C319 C 0.19271 0.76783 0.9332 0.0
C320 C 0.23568 0.70549 0.91168 0.0
C321 C 0.27035 0.69204 0.93469 0.0
C322 C 0.30636 0.67909 0.91283 0.0
C323 C 0.30767 0.68211 0.86656 0.0
C324 C 0.27346 0.69844 0.84299 0.0
C325 C 0.23669 0.70892 0.86568 0.0
H326 H 0.76201 0.75199 0.97031 0.0
H327 H 0.66738 0.84666 0.95159 0.0
H328 H 0.64308 0.83589 0.0279 0.0
H329 H 0.69989 0.68429 0.04837 0.0
H330 H 0.7457 0.67244 0.08018 0.0
H331 H 0.74992 0.68161 0.02164 0.0
H332 H 0.80425 0.73903 0.03608 0.0
H333 H 0.80007 0.73023 0.0944 0.0
H334 H 0.791 0.78139 0.07224 0.0
H335 H 0.63874 0.82514 0.1104 0.0
H336 H 0.65386 0.813 0.18937 0.0
H337 H 0.74792 0.72288 0.15339 0.0
C338 C 0.73517 0.76934 0.98167 0.0
C339 C 0.71661 0.80006 0.95485 0.0
C340 C 0.68208 0.82276 0.97139 0.0
C341 C 0.66793 0.81682 0.01477 0.0
C342 C 0.68812 0.78756 0.04107 0.0
C343 C 0.72059 0.76368 0.02484 0.0
C344 C 0.74007 0.73766 0.06092 0.0
C345 C 0.73348 0.69124 0.05225 0.0
C346 C 0.78656 0.74771 0.06621 0.0
C347 C 0.71494 0.75214 0.10029 0.0
C348 C 0.68468 0.78049 0.08832 0.0
C349 C 0.66124 0.80178 0.12001 0.0
C350 C 0.66961 0.79442 0.16495 0.0
C351 C 0.70095 0.766 0.17755 0.0
C352 C 0.72297 0.74403 0.14466 0.0
H353 H 0.84248 0.32925 0.82745 0.0
H354 H 0.71915 0.38109 0.84043 0.0
H355 H 0.72766 0.38392 0.92148 0.0
H356 H 0.83524 0.26159 0.90505 0.0
H357 H 0.88704 0.26393 0.92734 0.0
H358 H 0.87791 0.2793 0.87136 0.0
H359 H 0.9094 0.35163 0.88596 0.0
H360 H 0.91997 0.33614 0.94206 0.0
H361 H 0.89016 0.38251 0.93114 0.0
H362 H 0.74217 0.36225 1.00042 0.0
H363 H 0.76377 0.32442 0.06805 0.0
H364 H 0.87789 0.28727 1.0026 0.0
C365 C 0.81862 0.34399 0.84731 0.0
C366 C 0.78075 0.35612 0.828 0.0
C367 C 0.74896 0.37311 0.85472 0.0
C368 C 0.75346 0.37441 0.90084 0.0
C369 C 0.7902 0.35916 0.91941 0.0
C370 C 0.82281 0.34542 0.8932 0.0
C371 C 0.85624 0.32458 0.92053 0.0
C372 C 0.86452 0.27973 0.90515 0.0
C373 C 0.89632 0.35026 0.91989 0.0
C374 C 0.83599 0.32561 0.96556 0.0
C375 C 0.79838 0.34647 0.96477 0.0
C376 C 0.77216 0.34696 1.00166 0.0
C377 C 0.78453 0.32525 0.0399 0.0
C378 C 0.82246 0.30285 0.0406 0.0
C379 C 0.84876 0.30422 1.00327 0.0
H380 H 0.84513 0.34748 0.33121 0.0
H381 H 0.88906 0.22112 0.34157 0.0
H382 H 0.89214 0.22773 0.42268 0.0
H383 H 0.90172 0.38951 0.43589 0.0
H384 H 0.8573 0.42201 0.44749 0.0
H385 H 0.872 0.41149 0.39116 0.0
H386 H 0.79751 0.38532 0.37635 0.0
H387 H 0.78295 0.39408 0.43264 0.0
H388 H 0.77714 0.34323 0.40907 0.0
H389 H 0.86927 0.24101 0.50096 0.0
H390 H 0.83386 0.26395 0.5695 0.0
H391 H 0.80735 0.3828 0.50832 0.0
C392 C 0.85849 0.32245 0.3505 0.0
C393 C 0.8681 0.28428 0.33036 0.0
C394 C 0.88312 0.25109 0.35644 0.0
C395 C 0.88441 0.25448 0.40263 0.0
C396 C 0.87132 0.29157 0.42197 0.0
C397 C 0.86007 0.32558 0.39654 0.0
C398 C 0.84156 0.35972 0.42477 0.0
C399 C 0.86985 0.39795 0.42484 0.0
C400 C 0.79719 0.37119 0.40981 0.0
C401 C 0.84135 0.3386 0.4694 0.0
C402 C 0.85897 0.29948 0.46743 0.0
C403 C 0.85684 0.27217 0.50328 0.0
C404 C 0.83637 0.28526 0.54195 0.0
C405 C 0.81842 0.32534 0.54446 0.0
C406 C 0.82175 0.35238 0.50788 0.0
H407 H 0.23432 0.25414 0.65861 0.0
H408 H 0.32036 0.15735 0.69768 0.0
H409 H 0.33569 0.14318 0.61893 0.0
H410 H 0.19833 0.20918 0.55229 0.0
H411 H 0.19791 0.25953 0.52633 0.0
H412 H 0.1871 0.2548 0.58449 0.0
H413 H 0.24596 0.30696 0.60116 0.0
H414 H 0.25727 0.31154 0.54331 0.0
H415 H 0.29774 0.29645 0.58117 0.0
H416 H 0.3482 0.14713 0.53541 0.0
H417 H 0.35904 0.1697 0.4583 0.0
H418 H 0.26819 0.26805 0.4763 0.0
C419 C 0.25538 0.22891 0.65064 0.0
C420 C 0.27535 0.20597 0.68434 0.0
C421 C 0.30347 0.17407 0.67259 0.0
C422 C 0.31261 0.16623 0.6278 0.0
C423 C 0.29339 0.19072 0.59543 0.0
C424 C 0.26519 0.22138 0.60658 0.0
C425 C 0.25275 0.24733 0.56699 0.0
C426 C 0.20626 0.24239 0.55693 0.0
C427 C 0.26413 0.29325 0.57357 0.0
C428 C 0.27927 0.22746 0.53167 0.0
C429 C 0.30188 0.1943 0.54832 0.0
C430 C 0.3302 0.17267 0.52208 0.0
C431 C 0.33608 0.18573 0.4782 0.0
C432 C 0.31434 0.22063 0.46114 0.0
C433 C 0.28504 0.24111 0.48819 0.0
H434 H 0.23604 0.82672 0.3746 0.0
H435 H 0.15672 0.72733 0.33062 0.0
H436 H 0.14302 0.70794 0.40861 0.0
H437 H 0.28661 0.77056 0.45081 0.0
H438 H 0.29314 0.81129 0.49072 0.0
H439 H 0.28756 0.82404 0.43337 0.0
H440 H 0.22469 0.8717 0.45125 0.0
H441 H 0.23039 0.85956 0.50902 0.0
H442 H 0.18133 0.85129 0.48199 0.0
H443 H 0.14908 0.69209 0.49077 0.0
H444 H 0.17384 0.68076 0.5669 0.0
H445 H 0.25217 0.78931 0.5557 0.0
C446 C 0.2142 0.80207 0.38153 0.0
C447 C 0.19623 0.77936 0.34681 0.0
C448 C 0.16923 0.74624 0.35678 0.0
C449 C 0.16173 0.73483 0.40104 0.0
C450 C 0.18153 0.75693 0.43461 0.0
C451 C 0.20693 0.79021 0.42516 0.0
C452 C 0.22945 0.80533 0.46582 0.0
C453 C 0.27696 0.8026 0.4598 0.0
C454 C 0.21562 0.8496 0.47772 0.0
C455 C 0.21425 0.77435 0.4996 0.0
C456 C 0.18602 0.74714 0.48134 0.0
C457 C 0.17051 0.71375 0.50548 0.0
C458 C 0.18484 0.70755 0.5488 0.0
C459 C 0.2149 0.73426 0.56749 0.0
C460 C 0.2288 0.76866 0.54273 0.0
H461 H 0.70966 0.82772 0.6757 0.0
H462 H 0.83575 0.8731 0.67733 0.0
H463 H 0.83428 0.8807 0.59599 0.0
H464 H 0.7199 0.7664 0.5902 0.0
H465 H 0.67052 0.7743 0.56389 0.0
H466 H 0.67538 0.78251 0.6222 0.0
H467 H 0.64889 0.85747 0.61664 0.0
H468 H 0.64114 0.85125 0.55816 0.0
H469 H 0.67263 0.89303 0.57827 0.0
H470 H 0.82465 0.86548 0.51445 0.0
H471 H 0.8028 0.8418 0.44006 0.0
H472 H 0.68116 0.81201 0.49209 0.0
C473 C 0.73594 0.84165 0.65901 0.0
C474 C 0.77243 0.85087 0.68244 0.0
C475 C 0.80711 0.86719 0.65979 0.0
C476 C 0.80664 0.87115 0.61359 0.0
C477 C 0.77088 0.85943 0.59094 0.0
C478 C 0.73561 0.84641 0.61312 0.0
C479 C 0.70261 0.83186 0.58138 0.0
C480 C 0.69144 0.78611 0.58995 0.0
C481 C 0.66403 0.86007 0.58376 0.0
C482 C 0.72529 0.83703 0.53797 0.0
C483 C 0.76477 0.8527 0.54397 0.0
C484 C 0.79328 0.85473 0.50915 0.0
C485 C 0.78084 0.84099 0.46717 0.0
C486 C 0.74011 0.82621 0.46047 0.0
C487 C 0.71207 0.82456 0.49623 0.0
H488 H 0.4812 0.11708 0.26667 0.0
H489 H 0.39404 0.05853 0.17755 0.0
H490 H 0.44344 1.00028 0.16742 0.0
H491 H 0.57712 0.08504 0.20871 0.0
H492 H 0.60448 0.07761 0.25996 0.0
H493 H 0.56399 0.11626 0.256 0.0
H494 H 0.52642 0.08251 0.32263 0.0
H495 H 0.56636 0.0435 0.32639 0.0
H496 H 0.51285 0.02839 0.32043 0.0
H497 H 0.5003 0.9464 0.17148 0.0
H498 H 0.55911 0.90052 0.19029 0.0
H499 H 0.608 0.9953 0.27715 0.0
C500 C 0.47286 0.09292 0.2437 0.0
C501 C 0.43401 0.09289 0.22206 0.0
C502 C 0.42378 0.05936 0.19414 0.0
C503 C 0.45169 0.02628 0.18803 0.0
C504 C 0.48964 0.02732 0.21007 0.0
C505 C 0.50024 0.05989 0.23722 0.0
C506 C 0.54146 0.05235 0.25975 0.0
C507 C 0.57366 0.08473 0.24522 0.0
C508 C 0.53643 0.05163 0.31028 0.0
C509 C 0.55197 1.00987 0.24192 0.0
C510 C 0.52197 0.99611 0.21298 0.0
C511 C 0.52406 0.95691 0.19396 0.0
C512 C 0.55741 0.93088 0.2053 0.0
C513 C 0.58793 0.94404 0.23584 0.0
C514 C 0.58538 0.98439 0.25354 0.0
H515 H 0.92099 0.49456 0.72298 0.0
H516 H 0.99348 0.38233 0.70117 0.0
H517 H 0.05785 0.42177 0.71199 0.0
H518 H 0.9862 0.56191 0.66639 0.0
H519 H 0.98013 0.60481 0.70386 0.0
H520 H 0.93925 0.56737 0.69846 0.0
H521 H 0.9413 0.5532 0.78258 0.0
H522 H 0.98201 0.59093 0.78838 0.0
H523 H 0.98975 0.53872 0.80822 0.0
H524 H 0.11386 0.47375 0.71761 0.0
H525 H 0.15868 0.53451 0.72079 0.0
H526 H 0.05038 0.6131 0.74344 0.0
C527 C 0.95021 0.47787 0.72175 0.0
C528 C 0.95203 0.43511 0.71161 0.0
C529 C 0.99123 0.41505 0.70881 0.0
C530 C 0.028 0.43711 0.71511 0.0
C531 C 0.0251 0.47921 0.72444 0.0
C532 C 0.9873 0.49939 0.72814 0.0
C533 C 0.99307 0.54531 0.73626 0.0
C534 C 0.97351 0.57136 0.69901 0.0
C535 C 0.9755 0.55776 0.78156 0.0
C536 C 0.04003 0.54783 0.73542 0.0
C537 C 0.0578 0.5093 0.72877 0.0
C538 C 0.10046 0.504 0.724 0.0
C539 C 0.1258 0.53901 0.72629 0.0
C540 C 0.10846 0.57899 0.73378 0.0
C541 C 0.06487 0.58311 0.73832 0.0
H542 H 0.98102 0.45269 0.14671 0.0
H543 H 0.92141 0.44902 0.27496 0.0
H544 H 0.9635 0.50922 0.29877 0.0
H545 H 0.08176 0.47339 0.18791 0.0
H546 H 0.09647 0.50593 0.14208 0.0
H547 H 0.05903 0.46537 0.13434 0.0
H548 H 1.00589 0.51898 0.10394 0.0
H549 H 0.04323 0.55973 0.11137 0.0
H550 H 0.9926 0.56379 0.13657 0.0
H551 H 1.0126 0.57047 0.30753 0.0
H552 H 0.06833 0.62316 0.30288 0.0
H553 H 0.09857 0.5815 0.17075 0.0
C554 C 0.97635 0.4651 0.17953 0.0
C555 C 0.9477 0.44699 0.20886 0.0
C556 C 0.94314 0.46296 0.25204 0.0
C557 C 0.96679 0.49705 0.26571 0.0
C558 C 0.99517 0.51409 0.23597 0.0
C559 C 1.0003 0.49826 0.19395 0.0
C560 C 0.03482 0.51986 0.16928 0.0
C561 C 0.0701 0.48932 0.15775 0.0
C562 C 1.01812 0.5419 0.12785 0.0
C563 C 0.04828 0.55059 0.2038 0.0
C564 C 1.02477 0.54729 0.24187 0.0
C565 C 0.03126 0.5732 0.27794 0.0
C566 C 0.06278 0.60306 0.27498 0.0
C567 C 0.08764 0.60609 0.23651 0.0
C568 C 0.0802 0.57949 0.20067 0.0
H569 H 0.42876 0.0611 0.75624 0.0
H570 H 0.50596 0.16744 0.72605 0.0
H571 H 0.5641 0.12035 0.70743 0.0
H572 H 0.50204 1.00606 0.811 0.0
H573 H 0.48653 0.95564 0.7918 0.0
H574 H 0.44918 0.99717 0.79414 0.0
H575 H 0.43315 0.98691 0.71087 0.0
H576 H 0.47081 0.94531 0.70859 0.0
H577 H 0.47497 0.9887 0.6713 0.0
H578 H 0.61585 0.06332 0.70329 0.0
H579 H 0.65846 1.00234 0.71682 0.0
H580 H 0.54747 0.93139 0.74836 0.0
C581 C 0.45721 0.07458 0.74381 0.0
C582 C 0.46252 0.11804 0.7417 0.0
C583 C 0.50108 0.13426 0.72747 0.0
C584 C 0.53418 0.10775 0.71654 0.0
C585 C 0.52813 0.06508 0.71986 0.0
C586 C 0.49054 0.04858 0.73297 0.0
C587 C 0.49362 1.00207 0.7393 0.0
C588 C 0.48219 0.98953 0.78687 0.0
C589 C 0.46652 0.9794 0.7055 0.0
C590 C 0.53938 0.99526 0.72996 0.0
C591 C 0.55843 0.03185 0.71783 0.0
C592 C 0.60115 0.03425 0.71173 0.0
C593 C 0.62526 0.99873 0.7194 0.0
C594 C 0.6067 0.96086 0.73324 0.0
C595 C 0.56291 0.95928 0.73726 0.0
H596 H 0.56219 0.2121 0.30315 0.0
H597 H 0.52417 0.28867 0.19238 0.0
H598 H 0.59832 0.29511 0.16975 0.0
H599 H 0.65116 0.26851 0.33086 0.0
H600 H 0.68057 0.22328 0.34706 0.0
H601 H 0.62486 0.2231 0.35126 0.0
H602 H 0.62264 0.15706 0.30289 0.0
H603 H 0.6784 0.15738 0.29772 0.0
H604 H 0.64643 0.15753 0.249 0.0
H605 H 0.67986 0.29433 0.16189 0.0
H606 H 0.75625 0.2922 0.17422 0.0
H607 H 0.73724 0.2168 0.29069 0.0
C608 C 0.56905 0.23005 0.2738 0.0
C609 C 0.53701 0.24977 0.24946 0.0
C610 C 0.548 0.27324 0.21162 0.0
C611 C 0.59009 0.27684 0.19843 0.0
C612 C 0.62085 0.25674 0.22336 0.0
C613 C 0.61046 0.234 0.26045 0.0
C614 C 0.64859 0.21714 0.28361 0.0
C615 C 0.65146 0.23403 0.33097 0.0
C616 C 0.64902 0.16945 0.28326 0.0
C617 C 0.68253 0.23446 0.25443 0.0
C618 C 0.66632 0.25668 0.2193 0.0
C619 C 0.69258 0.27658 0.18908 0.0
C620 C 0.73604 0.2748 0.19591 0.0
C621 C 0.75273 0.25363 0.23287 0.0
C622 C 0.72543 0.23266 0.26173 0.0
H623 H 0.31921 0.32587 0.75352 0.0
H624 H 0.22362 0.30406 0.8514 0.0
H625 H 0.22353 0.37899 0.86986 0.0
H626 H 0.37542 0.4073 0.81455 0.0
H627 H 0.38707 0.43504 0.76435 0.0
H628 H 0.38204 0.37943 0.76353 0.0
H629 H 0.32601 0.38597 0.70254 0.0
H630 H 0.3306 0.44147 0.70348 0.0
H631 H 0.28069 0.41778 0.71227 0.0
H632 H 0.22778 0.46068 0.86817 0.0
H633 H 0.24039 0.53519 0.85191 0.0
H634 H 0.33583 0.49992 0.75791 0.0
C635 C 0.29886 0.33652 0.77971 0.0
C636 C 0.27116 0.30879 0.80074 0.0
C637 C 0.24512 0.32426 0.83469 0.0
C638 C 0.24484 0.36705 0.84527 0.0
C639 C 0.2714 0.39383 0.8222 0.0
C640 C 0.29859 0.37862 0.79075 0.0
C641 C 0.32295 0.41307 0.76885 0.0
C642 C 0.36964 0.40843 0.77841 0.0
C643 C 0.31453 0.41464 0.71886 0.0
C644 C 0.30477 0.45053 0.79194 0.0
C645 C 0.27496 0.43925 0.82258 0.0
C646 C 0.25177 0.46949 0.84495 0.0
C647 C 0.25913 0.51186 0.83553 0.0
C648 C 0.28968 0.5238 0.80421 0.0
C649 C 0.31296 0.49233 0.78286 0.0
H650 H 0.4947 0.71567 0.27456 0.0
H651 H 0.52963 0.80314 0.17232 0.0
H652 H 0.45495 0.81812 0.1585 0.0
H653 H 0.39862 0.67722 0.22441 0.0
H654 H 0.37257 0.67458 0.27704 0.0
H655 H 0.42802 0.66717 0.27388 0.0
H656 H 0.43828 0.72586 0.33066 0.0
H657 H 0.38308 0.73396 0.33388 0.0
H658 H 0.41667 0.77655 0.31981 0.0
H659 H 0.37331 0.82559 0.15961 0.0
H660 H 0.29878 0.82889 0.17996 0.0
H661 H 0.32086 0.73965 0.28433 0.0
C662 C 0.48692 0.73722 0.24836 0.0
C663 C 0.51841 0.75759 0.22398 0.0
C664 C 0.50629 0.78653 0.19101 0.0
C665 C 0.46382 0.79527 0.18299 0.0
C666 C 0.43362 0.77505 0.20835 0.0
C667 C 0.44501 0.74667 0.24049 0.0
C668 C 0.40765 0.73172 0.26635 0.0
C669 C 0.40135 0.6849 0.26002 0.0
C670 C 0.41166 0.74271 0.31556 0.0
C671 C 0.37329 0.75645 0.24442 0.0
C672 C 0.38833 0.78077 0.21046 0.0
C673 C 0.36153 0.80656 0.18625 0.0
C674 C 0.31889 0.80825 0.19795 0.0
C675 C 0.30352 0.78503 0.23414 0.0
C676 C 0.33135 0.7582 0.25665 0.0
H677 H 0.7284 0.72653 0.75459 0.0
H678 H 0.83764 0.74531 0.83469 0.0
H679 H 0.84099 0.67002 0.85019 0.0
H680 H 0.68312 0.6412 0.82224 0.0
H681 H 0.66407 0.61526 0.77381 0.0
H682 H 0.66811 0.67096 0.77438 0.0
H683 H 0.71362 0.66801 0.7038 0.0
H684 H 0.71015 0.61241 0.70332 0.0
H685 H 0.76033 0.63689 0.70377 0.0
H686 H 0.83792 0.58916 0.84585 0.0
H687 H 0.82424 0.51505 0.82926 0.0
H688 H 0.71461 0.55148 0.75562 0.0
C689 C 0.75234 0.71506 0.7766 0.0
C690 C 0.78268 0.74225 0.79363 0.0
C691 C 0.81373 0.72571 0.82171 0.0
C692 C 0.81596 0.68264 0.83042 0.0
C693 C 0.78643 0.6565 0.81143 0.0
C694 C 0.75459 0.67251 0.78592 0.0
C695 C 0.72762 0.63839 0.7674 0.0
C696 C 0.68309 0.64165 0.78556 0.0
C697 C 0.72799 0.63898 0.71658 0.0
C698 C 0.74976 0.60038 0.78531 0.0
C699 C 0.78374 0.61111 0.81055 0.0
C700 C 0.81075 0.58065 0.82704 0.0
C701 C 0.8028 0.53854 0.81743 0.0
C702 C 0.76788 0.52707 0.79188 0.0
C703 C 0.74098 0.55874 0.77626 0.0
H704 H 0.06132 0.3565 0.23905 0.0
H705 H 0.02897 0.25729 0.32911 0.0
H706 H 0.10172 0.25592 0.3566 0.0
H707 H 0.15394 0.31731 0.20585 0.0
H708 H 0.18026 0.36631 0.20111 0.0
H709 H 0.12483 0.36427 0.19558 0.0
H710 H 0.11656 0.41824 0.25813 0.0
H711 H 0.17223 0.42041 0.26404 0.0
H712 H 0.14007 0.40846 0.3111 0.0
H713 H 0.1821 0.25745 0.3634 0.0
H714 H 0.2577 0.2613 0.34792 0.0
H715 H 0.23529 0.36169 0.25604 0.0
C716 C 0.06915 0.33528 0.26556 0.0
C717 C 0.03938 0.30712 0.28209 0.0
C718 C 0.05106 0.27957 0.3164 0.0
C719 C 0.09241 0.27856 0.33209 0.0
C720 C 0.12147 0.30589 0.31377 0.0
C721 C 0.10988 0.33419 0.28164 0.0
C722 C 0.14698 0.35756 0.26377 0.0
C723 C 0.15177 0.35092 0.21365 0.0
C724 C 0.14375 0.40392 0.27495 0.0
C725 C 0.18181 0.33684 0.28924 0.0
C726 C 0.16678 0.30748 0.31849 0.0
C727 C 0.19397 0.28126 0.34161 0.0
C728 C 0.2371 0.28401 0.33318 0.0
C729 C 0.25258 0.31266 0.30182 0.0
C730 C 0.2245 0.34034 0.28118 0.0
H731 H 0.35278 0.99589 0.78158 0.0
H732 H 0.25533 0.03153 0.69028 0.0
H733 H 0.24642 0.95726 0.67023 0.0
H734 H 0.3965 0.90875 0.71951 0.0
H735 H 0.4051 0.87847 0.76874 0.0
H736 H 0.40734 0.93417 0.77109 0.0
H737 H 0.35174 0.93559 0.83262 0.0
H738 H 0.3496 0.87997 0.83145 0.0
H739 H 0.3028 0.91006 0.82382 0.0
H740 H 0.24443 0.87581 0.66673 0.0
H741 H 0.24638 0.80037 0.68393 0.0
H742 H 0.344 0.82151 0.77878 0.0
C743 C 0.32991 0.98854 0.7567 0.0
C744 C 0.30479 1.0199 0.73744 0.0
C745 C 0.27519 1.00828 0.7053 0.0
C746 C 0.26999 0.96608 0.69374 0.0
C747 C 0.29477 0.93589 0.71441 0.0
C748 C 0.32421 0.94701 0.74523 0.0
C749 C 0.34443 0.90942 0.76631 0.0
C750 C 0.39112 0.90761 0.75574 0.0
C751 C 0.33665 0.90873 0.81649 0.0
C752 C 0.32145 0.87498 0.74335 0.0
C753 C 0.29332 0.89041 0.71291 0.0
C754 C 0.26697 0.86369 0.6899 0.0
C755 C 0.26864 0.82071 0.69935 0.0
C756 C 0.29622 0.80496 0.73171 0.0
C757 C 0.32337 0.83255 0.75306 0.0
H758 H 0.82006 0.81575 0.24929 0.0
H759 H 0.79867 0.71783 0.34441 0.0
H760 H 0.87335 0.71865 0.36423 0.0
H761 H 0.91384 0.78047 0.20892 0.0
H762 H 0.93667 0.831 0.20223 0.0
H763 H 0.88121 0.82532 0.19997 0.0
H764 H 0.87262 0.87941 0.26252 0.0
H765 H 0.92821 0.88537 0.26466 0.0
H766 H 0.89976 0.87184 0.31389 0.0
H767 H 0.95488 0.7242 0.36427 0.0
H768 H 0.02959 0.73842 0.35007 0.0
H769 H 0.99439 0.8355 0.25804 0.0
C770 C 0.83076 0.79516 0.27524 0.0
C771 C 0.80317 0.76667 0.29524 0.0
C772 C 0.81868 0.74012 0.32872 0.0
C773 C 0.86137 0.74032 0.34002 0.0
C774 C 0.88804 0.76782 0.31815 0.0
C775 C 0.8728 0.79541 0.28712 0.0
C776 C 0.90728 0.82091 0.2667 0.0
C777 C 0.90988 0.81398 0.21651 0.0
C778 C 0.90163 0.86712 0.27761 0.0
C779 C 0.94478 0.80279 0.29001 0.0
C780 C 0.93345 0.77209 0.31957 0.0
C781 C 0.96373 0.74886 0.34193 0.0
C782 C 1.00621 0.75714 0.33368 0.0
C783 C 1.01824 0.78865 0.30356 0.0
C784 C 0.9867 0.81189 0.28213 0.0
H785 H 0.70652 0.22896 0.77004 0.0
H786 H 0.80136 0.25405 0.67251 0.0
H787 H 0.80741 0.17856 0.65705 0.0
H788 H 0.75077 0.1444 0.81623 0.0
H789 H 0.70361 0.1158 0.82556 0.0
H790 H 0.70193 0.1714 0.82269 0.0
H791 H 0.64749 0.16841 0.7597 0.0
H792 H 0.64829 0.11264 0.76334 0.0
H793 H 0.65836 0.13788 0.7113 0.0
H794 H 0.81059 0.09724 0.663 0.0
H795 H 0.80612 1.02289 0.68524 0.0
H796 H 0.70689 0.0547 0.77627 0.0
C797 C 0.7273 0.21864 0.74409 0.0
C798 C 0.75279 0.24727 0.72175 0.0
C799 C 0.78059 0.23268 0.68896 0.0
C800 C 0.78447 0.18976 0.68035 0.0
C801 C 0.75978 0.162 0.70429 0.0
C802 C 0.73093 0.17629 0.73471 0.0
C803 C 0.70986 0.1409 0.7585 0.0
C804 C 0.717 0.14329 0.80868 0.0
C805 C 0.66325 0.1399 0.74754 0.0
C806 C 0.73256 0.10433 0.73846 0.0
C807 C 0.76111 0.11656 0.707 0.0
C808 C 0.78766 0.08749 0.68698 0.0
C809 C 0.78502 0.04526 0.69979 0.0
C810 C 0.75624 0.03262 0.73254 0.0
C811 C 0.72935 0.06284 0.7511 0.0
H812 H 0.33783 0.50835 0.42986 0.0
H813 H 0.30445 0.39283 0.49489 0.0
H814 H 0.3 0.42953 0.56579 0.0
H815 H 0.39887 0.55156 0.51893 0.0
H816 H 0.38016 0.6036 0.50946 0.0
H817 H 0.38378 0.56764 0.46423 0.0
H818 H 0.30584 0.57964 0.44671 0.0
H819 H 0.30202 0.61566 0.49178 0.0
H820 H 0.26766 0.5718 0.4895 0.0
H821 H 0.29559 0.47963 0.62922 0.0
H822 H 0.28979 0.53922 0.67955 0.0
H823 H 0.32472 0.62221 0.57272 0.0
C824 C 0.3298 0.49049 0.45893 0.0
C825 C 0.32223 0.44736 0.45644 0.0
C826 C 0.31159 0.42553 0.49557 0.0
C827 C 0.30869 0.44623 0.53617 0.0
C828 C 0.3164 0.48871 0.5372 0.0
C829 C 0.32665 0.51059 0.49957 0.0
C830 C 0.33153 0.5564 0.50906 0.0
C831 C 0.37625 0.57062 0.49988 0.0
C832 C 0.29987 0.58239 0.48271 0.0
C833 C 0.32185 0.55702 0.55791 0.0
C834 C 0.31347 0.51762 0.57358 0.0
C835 C 0.30232 0.51056 0.61735 0.0
C836 C 0.29909 0.54471 0.64567 0.0
C837 C 0.30689 0.58552 0.63015 0.0
C838 C 0.31896 0.59147 0.58576 0.0
H839 H 0.61796 0.75225 0.45442 0.0
H840 H 0.53428 0.76781 0.34338 0.0
H841 H 0.47424 0.76533 0.39408 0.0
H842 H 0.55478 0.68254 0.5186 0.0
H843 H 0.56792 0.70611 0.57053 0.0
H844 H 0.6043 0.7076 0.52533 0.0
H845 H 0.60679 0.78845 0.52875 0.0
H846 H 0.57265 0.78583 0.57585 0.0
H847 H 0.55889 0.81737 0.52884 0.0
H848 H 0.42299 0.76236 0.45753 0.0
H849 H 0.38532 0.76162 0.52851 0.0
H850 H 0.50279 0.74871 0.5977 0.0
C851 C 0.58701 0.75465 0.44067 0.0
C852 C 0.58092 0.7599 0.39486 0.0
C853 C 0.53984 0.76367 0.37834 0.0
C854 C 0.50546 0.76217 0.40685 0.0
C855 C 0.51257 0.75712 0.45185 0.0
C856 C 0.55234 0.75365 0.46866 0.0
C857 C 0.55165 0.7505 0.51847 0.0
C858 C 0.57079 0.70922 0.53414 0.0
C859 C 0.57378 0.78775 0.53927 0.0
C860 C 0.50531 0.75218 0.52704 0.0
C861 C 0.48322 0.756 0.48826 0.0
C862 C 0.43997 0.75905 0.48812 0.0
C863 C 0.41878 0.7583 0.52872 0.0
C864 C 0.4409 0.75458 0.56899 0.0
C865 C 0.48478 0.75153 0.56771 0.0
H866 H 0.71012 0.42774 0.56239 0.0
H867 H 0.72295 0.51029 0.6742 0.0
H868 H 0.71554 0.57066 0.62477 0.0
H869 H 0.7722 0.48358 0.49254 0.0
H870 H 0.74292 0.47423 0.44298 0.0
H871 H 0.74102 0.43758 0.48775 0.0
H872 H 0.6608 0.44396 0.49048 0.0
H873 H 0.66237 0.48048 0.44537 0.0
H874 H 0.63701 0.49439 0.49634 0.0
H875 H 0.7171 0.6216 0.56261 0.0
H876 H 0.72524 0.65951 0.49287 0.0
H877 H 0.71154 0.54404 0.42072 0.0
C878 C 0.70971 0.45848 0.57666 0.0
C879 C 0.71656 0.4643 0.62221 0.0
C880 C 0.71736 0.50508 0.63946 0.0
C881 C 0.71316 0.5396 0.61163 0.0
C882 C 0.70819 0.53286 0.5666 0.0
C883 C 0.70607 0.49332 0.54922 0.0
C884 C 0.70509 0.49455 0.49928 0.0
C885 C 0.74254 0.47112 0.47949 0.0
C886 C 0.66385 0.47733 0.48185 0.0
C887 C 0.70822 0.54084 0.49134 0.0
C888 C 0.70946 0.5624 0.53056 0.0
C889 C 0.71511 0.60518 0.53161 0.0
C890 C 0.71951 0.62656 0.4915 0.0
C891 C 0.71824 0.60514 0.45068 0.0
C892 C 0.71232 0.56165 0.45106 0.0
H893 H 0.47107 0.32653 0.41731 0.0
H894 H 0.46711 0.19511 0.38716 0.0
H895 H 0.52452 0.18238 0.43926 0.0
H896 H 0.58501 0.3323 0.43016 0.0
H897 H 0.58145 0.36899 0.47476 0.0
H898 H 0.5421 0.3684 0.43256 0.0
H899 H 0.48508 0.35896 0.49222 0.0
H900 H 0.52415 0.35978 0.53453 0.0
H901 H 0.48918 0.31648 0.53078 0.0
H902 H 0.57643 0.18267 0.50065 0.0
H903 H 0.62073 0.19671 0.56558 0.0
H904 H 0.59446 0.328 0.55309 0.0
C905 C 0.48252 0.29513 0.42139 0.0
C906 C 0.46453 0.26183 0.39812 0.0
C907 C 0.48047 0.22118 0.40439 0.0
C908 C 0.51315 0.21362 0.43389 0.0
C909 C 0.53 0.24707 0.45649 0.0
C910 C 0.51549 0.28708 0.45034 0.0
C911 C 0.53793 0.31728 0.48006 0.0
C912 C 0.56312 0.34859 0.45274 0.0
C913 C 0.50726 0.3394 0.51124 0.0
C914 C 0.56627 0.2878 0.50499 0.0
C915 C 0.56136 0.24744 0.4907 0.0
C916 C 0.58135 0.21422 0.51139 0.0
C917 C 0.60646 0.22241 0.54807 0.0
C918 C 0.61177 0.26343 0.56315 0.0
C919 C 0.59198 0.29656 0.54096 0.0
H920 H 0.79307 0.92247 0.96178 0.0
H921 H 0.7845 1.00529 0.84895 0.0
H922 H 0.78381 0.06546 0.89861 0.0
H923 H 0.7252 0.98053 0.03237 0.0
H924 H 0.75469 0.97063 0.08179 0.0
H925 H 0.75571 0.93372 0.03735 0.0
H926 H 0.83602 0.93804 0.03429 0.0
H927 H 0.83526 0.97486 0.07885 0.0
H928 H 0.86044 0.98783 0.0275 0.0
H929 H 0.78292 0.11686 0.96023 0.0
H930 H 0.78197 0.156 0.02988 0.0
H931 H 0.79151 0.04042 0.10329 0.0
C932 C 0.7914 0.95328 0.94756 0.0
C933 C 0.78852 0.95907 0.90141 0.0
C934 C 0.78608 0.99993 0.88415 0.0
C935 C 0.78591 0.03441 0.9121 0.0
C936 C 0.78823 0.02767 0.95738 0.0
C937 C 0.79099 0.98818 0.97509 0.0
C938 C 0.79235 0.98969 0.02505 0.0
C939 C 0.75475 0.96732 0.04532 0.0
C940 C 0.83347 0.97153 0.04244 0.0
C941 C 0.78984 0.03613 0.03252 0.0
C942 C 0.78764 0.05744 0.99303 0.0
C943 C 0.78495 0.10056 0.99142 0.0
C944 C 0.78473 0.12257 0.03126 0.0
C945 C 0.78722 0.10145 0.07228 0.0
C946 C 0.7895 0.05758 0.0726 0.0
H947 H 1.01227 0.25369 0.13755 0.0
H948 H 0.92259 0.16334 0.09233 0.0
H949 H 0.9683 0.14629 0.02951 0.0
H950 H 0.03453 0.2938 0.0358 0.0
H951 H 0.08917 0.30233 0.04471 0.0
H952 H 0.05394 0.30196 0.09082 0.0
H953 H 0.09755 0.24436 0.12853 0.0
H954 H 0.13327 0.24472 0.08261 0.0
H955 H 0.10871 0.19704 0.09917 0.0
H956 H 1.01688 0.1471 0.96601 0.0
H957 H 0.06637 0.16452 0.9065 0.0
H958 H 0.12607 0.25367 0.99171 0.0
C959 C 1.00299 0.22916 0.11541 0.0
C960 C 0.964 0.20944 0.12026 0.0
C961 C 0.95241 0.17857 0.08961 0.0
C962 C 0.97824 0.16863 0.05381 0.0
C963 C 1.01572 0.18967 0.04909 0.0
C964 C 0.02835 0.21905 0.07922 0.0
C965 C 0.06784 0.24036 0.0638 0.0
C966 C 0.06092 0.28738 0.05846 0.0
C967 C 0.10399 0.23105 0.09541 0.0
C968 C 0.07452 0.21947 0.01952 0.0
C969 C 0.0443 0.18997 0.01205 0.0
C970 C 0.04129 0.16933 0.9719 0.0
C971 C 0.06943 0.17946 0.93828 0.0
C972 C 0.10038 0.20972 0.94497 0.0
C973 C 0.10346 0.22947 0.98637 0.0
H974 H 0.23652 1.01032 0.10559 0.0
H975 H 0.26659 0.89496 0.03871 0.0
H976 H 0.27397 0.93319 0.96866 0.0
H977 H 0.17763 0.05703 0.01703 0.0
H978 H 0.19703 0.10842 0.02722 0.0
H979 H 0.19284 0.07178 0.07195 0.0
H980 H 0.27089 0.0816 0.08969 0.0
H981 H 0.27532 0.11821 0.04498 0.0
H982 H 0.30904 0.07344 0.04691 0.0
H983 H 0.28003 0.9844 0.90597 0.0
H984 H 0.28313 0.04425 0.85546 0.0
H985 H 0.24993 0.12646 0.96327 0.0
C986 C 0.24457 0.99292 0.07626 0.0
C987 C 0.25037 0.94937 0.07791 0.0
C988 C 0.26093 0.92805 0.03854 0.0
C989 C 0.26555 0.9496 0.99849 0.0
C990 C 0.25959 0.99246 0.99823 0.0
C991 C 0.24924 1.01388 0.03608 0.0
C992 C 0.24502 0.06 0.02706 0.0
C993 C 0.20048 0.07519 0.03636 0.0
C994 C 0.27698 0.08476 0.05374 0.0
C995 C 0.25482 0.06123 0.97818 0.0
C996 C 0.26317 1.02195 0.96221 0.0
C997 C 0.27353 1.01528 0.91816 0.0
C998 C 0.27543 0.04961 0.88972 0.0
C999 C 0.26703 0.09025 0.9053 0.0
C1000 C 0.25642 0.09588 0.9502 0.0
H1001 H 1.00727 0.81355 0.92611 0.0
H1002 H 0.88904 0.80528 0.99553 0.0
H1003 H 0.92591 0.80735 0.06613 0.0
H1004 H 0.06038 0.74595 0.99904 0.0
H1005 H 0.10917 0.77272 0.99788 0.0
H1006 H 0.07556 0.77457 0.95046 0.0
H1007 H 0.07293 0.85429 0.95098 0.0
H1008 H 0.10887 0.8541 0.99642 0.0
H1009 H 0.05993 0.88121 1.00124 0.0
H1010 H 0.97603 0.8074 0.12999 0.0
H1011 H 0.03537 0.80401 0.18125 0.0
H1012 H 0.12077 0.81167 0.07048 0.0
C1013 C 0.98879 0.81241 0.95597 0.0
C1014 C 0.94483 0.81019 0.95441 0.0
C1015 C 0.92244 0.80823 0.99484 0.0
C1016 C 0.94322 0.80911 0.03553 0.0
C1017 C 0.98641 0.81166 0.03555 0.0
C1018 C 1.00894 0.81306 0.9968 0.0
C1019 C 0.05524 0.81353 1.00576 0.0
C1020 C 0.0763 0.77439 0.9871 0.0
C1021 C 0.07541 0.85316 0.98752 0.0
C1022 C 0.05529 0.81298 0.05568 0.0
C1023 C 1.01527 0.81162 0.07225 0.0
C1024 C 1.00747 0.80885 0.11737 0.0
C1025 C 0.04144 0.80695 0.14623 0.0
C1026 C 0.08279 0.80807 0.12996 0.0
C1027 C 0.0896 0.8116 0.08404 0.0
loop_
_geom_bond_atom_site_label_1
_geom_bond_atom_site_label_2
_geom_bond_distance
_geom_bond_site_symmetry_2
_ccdc_geom_bond_type
Zn0 N4 2.020 . S
Zn0 O8 2.019 . S
Zn0 N10 2.119 . S
Zn0 O18 1.975 . S
C1 N2 1.334 . S
C1 N5 1.336 . S
N2 C1 1.334 . S
N2 C3 1.334 . S
C3 N2 1.334 . S
C3 N4 1.336 . S
N4 Zn0 2.020 . S
N4 C3 1.336 . S
N4 N5 1.354 . S
N5 C1 1.336 . S
N5 N4 1.354 . S
N5 Zn9 2.020 . S
C6 O7 1.244 . S
C6 O30 1.257 . S
O7 C6 1.244 . S
O8 Zn0 2.019 . S
O8 C28 1.257 . S
Zn9 N5 2.020 . S
Zn9 O16 1.975 . S
Zn9 N25 2.119 . S
Zn9 O30 2.019 . S
N10 Zn0 2.119 . S
N10 C12 1.334 . S
N10 C13 1.328 . S
C11 C12 1.391 . S
C11 N14 1.329 . S
C11 H32 0.930 . S
C12 N10 1.334 . S
C12 C11 1.391 . S
C12 H19 0.930 . S
C13 N10 1.328 . S
C13 C15 1.392 . S
C13 H20 0.930 . S
N14 C11 1.329 . S
N14 C15 1.331 . S
C15 C13 1.392 . S
C15 N14 1.331 . S
O16 Zn9 1.975 . S
O16 C17 1.252 . S
C17 O16 1.252 . S
C17 O18 1.252 . S
O18 Zn0 1.975 . S
O18 C17 1.252 . S
H19 C12 0.930 . S
H20 C13 0.930 . S
C21 C22 1.392 . S
C21 N25 1.328 . S
C21 H27 0.930 . S
C22 C21 1.392 . S
C22 N26 1.331 . S
C23 C24 1.391 . S
C23 N26 1.329 . S
C23 H33 0.930 . S
C24 C23 1.391 . S
C24 N25 1.334 . S
C24 H31 0.930 . S
N25 Zn9 2.119 . S
N25 C21 1.328 . S
N25 C24 1.334 . S
N26 C22 1.331 . S
N26 C23 1.329 . S
H27 C21 0.930 . S
C28 O8 1.257 . S
C28 O29 1.244 . S
O29 C28 1.244 . S
O30 C6 1.257 . S
O30 Zn9 2.019 . S
H31 C24 0.930 . S
H32 C11 0.930 . S
H33 C23 0.930 . S
Zn34 N38 2.020 . S
Zn34 O42 2.019 . S
Zn34 N44 2.119 . S
Zn34 O52 1.975 . S
C35 N36 1.334 . S
C35 N39 1.336 . S
N36 C35 1.334 . S
N36 C37 1.334 . S
C37 N36 1.334 . S
C37 N38 1.336 . S
N38 Zn34 2.020 . S
N38 C37 1.336 . S
N38 N39 1.354 . S
N39 C35 1.336 . S
N39 N38 1.354 . S
N39 Zn43 2.020 . S
C40 O41 1.244 . S
C40 O64 1.257 . S
O41 C40 1.244 . S
O42 Zn34 2.019 . S
O42 C62 1.257 . S
Zn43 N39 2.020 . S
Zn43 O50 1.975 . S
Zn43 N59 2.119 . S
Zn43 O64 2.019 . S
N44 Zn34 2.119 . S
N44 C46 1.334 . S
N44 C47 1.328 . S
C45 C46 1.391 . S
C45 N48 1.329 . S
C45 H66 0.930 . S
C46 N44 1.334 . S
C46 C45 1.391 . S
C46 H53 0.930 . S
C47 N44 1.328 . S
C47 C49 1.392 . S
C47 H54 0.930 . S
N48 C45 1.329 . S
N48 C49 1.331 . S
C49 C47 1.392 . S
C49 N48 1.331 . S
O50 Zn43 1.975 . S
O50 C51 1.252 . S
C51 O50 1.252 . S
C51 O52 1.252 . S
O52 Zn34 1.975 . S
O52 C51 1.252 . S
H53 C46 0.930 . S
H54 C47 0.930 . S
C55 C56 1.392 . S
C55 N59 1.328 . S
C55 H61 0.930 . S
C56 C55 1.392 . S
C56 N60 1.331 . S
C57 C58 1.391 . S
C57 N60 1.329 . S
C57 H67 0.930 . S
C58 C57 1.391 . S
C58 N59 1.334 . S
C58 H65 0.930 . S
N59 Zn43 2.119 . S
N59 C55 1.328 . S
N59 C58 1.334 . S
N60 C56 1.331 . S
N60 C57 1.329 . S
H61 C55 0.930 . S
C62 O42 1.257 . S
C62 O63 1.244 . S
O63 C62 1.244 . S
O64 C40 1.257 . S
O64 Zn43 2.019 . S
H65 C58 0.930 . S
H66 C45 0.930 . S
H67 C57 0.930 . S
Zn68 N72 2.020 . S
Zn68 O76 2.019 . S
Zn68 N78 2.119 . S
Zn68 O86 1.975 . S
C69 N70 1.334 . S
C69 N73 1.336 . S
N70 C69 1.334 . S
N70 C71 1.334 . S
C71 N70 1.334 . S
C71 N72 1.336 . S
N72 Zn68 2.020 . S
N72 C71 1.336 . S
N72 N73 1.354 . S
N73 C69 1.336 . S
N73 N72 1.354 . S
N73 Zn77 2.020 . S
C74 O75 1.244 . S
C74 O98 1.257 . S
O75 C74 1.244 . S
O76 Zn68 2.019 . S
O76 C96 1.257 . S
Zn77 N73 2.020 . S
Zn77 O84 1.975 . S
Zn77 N93 2.119 . S
Zn77 O98 2.019 . S
N78 Zn68 2.119 . S
N78 C80 1.334 . S
N78 C81 1.328 . S
C79 C80 1.391 . S
C79 N82 1.329 . S
C79 H100 0.930 . S
C80 N78 1.334 . S
C80 C79 1.391 . S
C80 H87 0.930 . S
C81 N78 1.328 . S
C81 C83 1.392 . S
C81 H88 0.930 . S
N82 C79 1.329 . S
N82 C83 1.331 . S
C83 C81 1.392 . S
C83 N82 1.331 . S
O84 Zn77 1.975 . S
O84 C85 1.252 . S
C85 O84 1.252 . S
C85 O86 1.252 . S
O86 Zn68 1.975 . S
O86 C85 1.252 . S
H87 C80 0.930 . S
H88 C81 0.930 . S
C89 C90 1.392 . S
C89 N93 1.328 . S
C89 H95 0.930 . S
C90 C89 1.392 . S
C90 N94 1.331 . S
C91 C92 1.391 . S
C91 N94 1.329 . S
C91 H101 0.930 . S
C92 C91 1.391 . S
C92 N93 1.334 . S
C92 H99 0.930 . S
N93 Zn77 2.119 . S
N93 C89 1.328 . S
N93 C92 1.334 . S
N94 C90 1.331 . S
N94 C91 1.329 . S
H95 C89 0.930 . S
C96 O76 1.257 . S
C96 O97 1.244 . S
O97 C96 1.244 . S
O98 C74 1.257 . S
O98 Zn77 2.019 . S
H99 C92 0.930 . S
H100 C79 0.930 . S
H101 C91 0.930 . S
Zn102 N106 2.020 . S
Zn102 O110 2.019 . S
Zn102 N112 2.119 . S
Zn102 O120 1.975 . S
C103 N104 1.334 . S
C103 N107 1.336 . S
N104 C103 1.334 . S
N104 C105 1.334 . S
C105 N104 1.334 . S
C105 N106 1.336 . S
N106 Zn102 2.020 . S
N106 C105 1.336 . S
N106 N107 1.354 . S
N107 C103 1.336 . S
N107 N106 1.354 . S
N107 Zn111 2.020 . S
C108 O109 1.244 . S
C108 O132 1.257 . S
O109 C108 1.244 . S
O110 Zn102 2.019 . S
O110 C130 1.257 . S
Zn111 N107 2.020 . S
Zn111 O118 1.975 . S
Zn111 N127 2.119 . S
Zn111 O132 2.019 . S
N112 Zn102 2.119 . S
N112 C114 1.334 . S
N112 C115 1.328 . S
C113 C114 1.391 . S
C113 N116 1.329 . S
C113 H134 0.930 . S
C114 N112 1.334 . S
C114 C113 1.391 . S
C114 H121 0.930 . S
C115 N112 1.328 . S
C115 C117 1.392 . S
C115 H122 0.930 . S
N116 C113 1.329 . S
N116 C117 1.331 . S
C117 C115 1.392 . S
C117 N116 1.331 . S
O118 Zn111 1.975 . S
O118 C119 1.252 . S
C119 O118 1.252 . S
C119 O120 1.252 . S
O120 Zn102 1.975 . S
O120 C119 1.252 . S
H121 C114 0.930 . S
H122 C115 0.930 . S
C123 C124 1.392 . S
C123 N127 1.328 . S
C123 H129 0.930 . S
C124 C123 1.392 . S
C124 N128 1.331 . S
C125 C126 1.391 . S
C125 N128 1.329 . S
C125 H135 0.930 . S
C126 C125 1.391 . S
C126 N127 1.334 . S
C126 H133 0.930 . S
N127 Zn111 2.119 . S
N127 C123 1.328 . S
N127 C126 1.334 . S
N128 C124 1.331 . S
N128 C125 1.329 . S
H129 C123 0.930 . S
C130 O110 1.257 . S
C130 O131 1.244 . S
O131 C130 1.244 . S
O132 C108 1.257 . S
O132 Zn111 2.019 . S
H133 C126 0.930 . S
H134 C113 0.930 . S
H135 C125 0.930 . S
Zn136 N140 2.020 . S
Zn136 O144 2.019 . S
Zn136 N146 2.119 . S
Zn136 O154 1.975 . S
C137 N138 1.334 . S
C137 N141 1.336 . S
N138 C137 1.334 . S
N138 C139 1.334 . S
C139 N138 1.334 . S
C139 N140 1.336 . S
N140 Zn136 2.020 . S
N140 C139 1.336 . S
N140 N141 1.354 . S
N141 C137 1.336 . S
N141 N140 1.354 . S
N141 Zn145 2.020 . S
C142 O143 1.244 . S
C142 O166 1.257 . S
O143 C142 1.244 . S
O144 Zn136 2.019 . S
O144 C164 1.257 . S
Zn145 N141 2.020 . S
Zn145 O152 1.975 . S
Zn145 N161 2.119 . S
Zn145 O166 2.019 . S
N146 Zn136 2.119 . S
N146 C148 1.334 . S
N146 C149 1.328 . S
C147 C148 1.391 . S
C147 N150 1.329 . S
C147 H168 0.930 . S
C148 N146 1.334 . S
C148 C147 1.391 . S
C148 H155 0.930 . S
C149 N146 1.328 . S
C149 C151 1.392 . S
C149 H156 0.930 . S
N150 C147 1.329 . S
N150 C151 1.331 . S
C151 C149 1.392 . S
C151 N150 1.331 . S
O152 Zn145 1.975 . S
O152 C153 1.252 . S
C153 O152 1.252 . S
C153 O154 1.252 . S
O154 Zn136 1.975 . S
O154 C153 1.252 . S
H155 C148 0.930 . S
H156 C149 0.930 . S
C157 C158 1.392 . S
C157 N161 1.328 . S
C157 H163 0.930 . S
C158 C157 1.392 . S
C158 N162 1.331 . S
C159 C160 1.391 . S
C159 N162 1.329 . S
C159 H169 0.930 . S
C160 C159 1.391 . S
C160 N161 1.334 . S
C160 H167 0.930 . S
N161 Zn145 2.119 . S
N161 C157 1.328 . S
N161 C160 1.334 . S
N162 C158 1.331 . S
N162 C159 1.329 . S
H163 C157 0.930 . S
C164 O144 1.257 . S
C164 O165 1.244 . S
O165 C164 1.244 . S
O166 C142 1.257 . S
O166 Zn145 2.019 . S
H167 C160 0.930 . S
H168 C147 0.930 . S
H169 C159 0.930 . S
Zn170 N174 2.020 . S
Zn170 O178 2.019 . S
Zn170 N180 2.119 . S
Zn170 O188 1.975 . S
C171 N172 1.334 . S
C171 N175 1.336 . S
N172 C171 1.334 . S
N172 C173 1.334 . S
C173 N172 1.334 . S
C173 N174 1.336 . S
N174 Zn170 2.020 . S
N174 C173 1.336 . S
N174 N175 1.354 . S
N175 C171 1.336 . S
N175 N174 1.354 . S
N175 Zn179 2.020 . S
C176 O177 1.244 . S
C176 O200 1.257 . S
O177 C176 1.244 . S
O178 Zn170 2.019 . S
O178 C198 1.257 . S
Zn179 N175 2.020 . S
Zn179 O186 1.975 . S
Zn179 N195 2.119 . S
Zn179 O200 2.019 . S
N180 Zn170 2.119 . S
N180 C182 1.334 . S
N180 C183 1.328 . S
C181 C182 1.391 . S
C181 N184 1.329 . S
C181 H202 0.930 . S
C182 N180 1.334 . S
C182 C181 1.391 . S
C182 H189 0.930 . S
C183 N180 1.328 . S
C183 C185 1.392 . S
C183 H190 0.930 . S
N184 C181 1.329 . S
N184 C185 1.331 . S
C185 C183 1.392 . S
C185 N184 1.331 . S
O186 Zn179 1.975 . S
O186 C187 1.252 . S
C187 O186 1.252 . S
C187 O188 1.252 . S
O188 Zn170 1.975 . S
O188 C187 1.252 . S
H189 C182 0.930 . S
H190 C183 0.930 . S
C191 C192 1.392 . S
C191 N195 1.328 . S
C191 H197 0.930 . S
C192 C191 1.392 . S
C192 N196 1.331 . S
C193 C194 1.391 . S
C193 N196 1.329 . S
C193 H203 0.930 . S
C194 C193 1.391 . S
C194 N195 1.334 . S
C194 H201 0.930 . S
N195 Zn179 2.119 . S
N195 C191 1.328 . S
N195 C194 1.334 . S
N196 C192 1.331 . S
N196 C193 1.329 . S
H197 C191 0.930 . S
C198 O178 1.257 . S
C198 O199 1.244 . S
O199 C198 1.244 . S
O200 C176 1.257 . S
O200 Zn179 2.019 . S
H201 C194 0.930 . S
H202 C181 0.930 . S
H203 C193 0.930 . S
Zn204 N208 2.020 . S
Zn204 O212 2.019 . S
Zn204 N214 2.119 . S
Zn204 O222 1.975 . S
C205 N206 1.334 . S
C205 N209 1.336 . S
N206 C205 1.334 . S
N206 C207 1.334 . S
C207 N206 1.334 . S
C207 N208 1.336 . S
N208 Zn204 2.020 . S
N208 C207 1.336 . S
N208 N209 1.354 . S
N209 C205 1.336 . S
N209 N208 1.354 . S
N209 Zn213 2.020 . S
C210 O211 1.244 . S
C210 O234 1.257 . S
O211 C210 1.244 . S
O212 Zn204 2.019 . S
O212 C232 1.257 . S
Zn213 N209 2.020 . S
Zn213 O220 1.975 . S
Zn213 N229 2.119 . S
Zn213 O234 2.019 . S
N214 Zn204 2.119 . S
N214 C216 1.334 . S
N214 C217 1.328 . S
C215 C216 1.391 . S
C215 N218 1.329 . S
C215 H236 0.930 . S
C216 N214 1.334 . S
C216 C215 1.391 . S
C216 H223 0.930 . S
C217 N214 1.328 . S
C217 C219 1.392 . S
C217 H224 0.930 . S
N218 C215 1.329 . S
N218 C219 1.331 . S
C219 C217 1.392 . S
C219 N218 1.331 . S
O220 Zn213 1.975 . S
O220 C221 1.252 . S
C221 O220 1.252 . S
C221 O222 1.252 . S
O222 Zn204 1.975 . S
O222 C221 1.252 . S
H223 C216 0.930 . S
H224 C217 0.930 . S
C225 C226 1.392 . S
C225 N229 1.328 . S
C225 H231 0.930 . S
C226 C225 1.392 . S
C226 N230 1.331 . S
C227 C228 1.391 . S
C227 N230 1.329 . S
C227 H237 0.930 . S
C228 C227 1.391 . S
C228 N229 1.334 . S
C228 H235 0.930 . S
N229 Zn213 2.119 . S
N229 C225 1.328 . S
N229 C228 1.334 . S
N230 C226 1.331 . S
N230 C227 1.329 . S
H231 C225 0.930 . S
C232 O212 1.257 . S
C232 O233 1.244 . S
O233 C232 1.244 . S
O234 C210 1.257 . S
O234 Zn213 2.019 . S
H235 C228 0.930 . S
H236 C215 0.930 . S
H237 C227 0.930 . S
Zn238 N242 2.020 . S
Zn238 O246 2.019 . S
Zn238 N248 2.119 . S
Zn238 O256 1.975 . S
C239 N240 1.334 . S
C239 N243 1.336 . S
N240 C239 1.334 . S
N240 C241 1.334 . S
C241 N240 1.334 . S
C241 N242 1.336 . S
N242 Zn238 2.020 . S
N242 C241 1.336 . S
N242 N243 1.354 . S
N243 C239 1.336 . S
N243 N242 1.354 . S
N243 Zn247 2.020 . S
C244 O245 1.244 . S
C244 O268 1.257 . S
O245 C244 1.244 . S
O246 Zn238 2.019 . S
O246 C266 1.257 . S
Zn247 N243 2.020 . S
Zn247 O254 1.975 . S
Zn247 N263 2.119 . S
Zn247 O268 2.019 . S
N248 Zn238 2.119 . S
N248 C250 1.334 . S
N248 C251 1.328 . S
C249 C250 1.391 . S
C249 N252 1.329 . S
C249 H270 0.930 . S
C250 N248 1.334 . S
C250 C249 1.391 . S
C250 H257 0.930 . S
C251 N248 1.328 . S
C251 C253 1.392 . S
C251 H258 0.930 . S
N252 C249 1.329 . S
N252 C253 1.331 . S
C253 C251 1.392 . S
C253 N252 1.331 . S
O254 Zn247 1.975 . S
O254 C255 1.252 . S
C255 O254 1.252 . S
C255 O256 1.252 . S
O256 Zn238 1.975 . S
O256 C255 1.252 . S
H257 C250 0.930 . S
H258 C251 0.930 . S
C259 C260 1.392 . S
C259 N263 1.328 . S
C259 H265 0.930 . S
C260 C259 1.392 . S
C260 N264 1.331 . S
C261 C262 1.391 . S
C261 N264 1.329 . S
C261 H271 0.930 . S
C262 C261 1.391 . S
C262 N263 1.334 . S
C262 H269 0.930 . S
N263 Zn247 2.119 . S
N263 C259 1.328 . S
N263 C262 1.334 . S
N264 C260 1.331 . S
N264 C261 1.329 . S
H265 C259 0.930 . S
C266 O246 1.257 . S
C266 O267 1.244 . S
O267 C266 1.244 . S
O268 C244 1.257 . S
O268 Zn247 2.019 . S
H269 C262 0.930 . S
H270 C249 0.930 . S
H271 C261 0.930 . S
H272 C284 0.930 . S
H273 C286 0.930 . S
H274 C287 0.930 . S
H275 C291 0.959 . S
H276 C291 0.959 . S
H277 C291 0.961 . S
H278 C292 0.960 . S
H279 C292 0.961 . S
H280 C292 0.959 . S
H281 C295 0.929 . S
H282 C296 0.931 1_556 S
H283 C298 0.930 . S
C284 H272 0.930 . S
C284 C285 1.399 . S
C284 C289 1.399 . S
C285 C284 1.399 . S
C285 C286 1.376 . S
C286 H273 0.930 . S
C286 C285 1.376 . S
C286 C287 1.388 . S
C287 H274 0.930 . S
C287 C286 1.388 . S
C287 C288 1.390 . S
C288 C287 1.390 . S
C288 C289 1.394 . S
C288 C294 1.465 . S
C289 C284 1.399 . S
C289 C288 1.394 . S
C289 C290 1.516 . S
C290 C289 1.516 . S
C290 C291 1.502 . S
C290 C292 1.561 . S
C290 C293 1.526 . S
C291 H275 0.959 . S
C291 H276 0.959 . S
C291 H277 0.961 . S
C291 C290 1.502 . S
C292 H278 0.960 . S
C292 H279 0.961 . S
C292 H280 0.959 . S
C292 C290 1.561 . S
C293 C290 1.526 . S
C293 C294 1.396 . S
C293 C298 1.390 . S
C294 C288 1.465 . S
C294 C293 1.396 . S
C294 C295 1.399 . S
C295 H281 0.929 . S
C295 C294 1.399 . S
C295 C296 1.385 . S
C296 H282 0.931 1_554 S
C296 C295 1.385 . S
C296 C297 1.389 . S
C297 C296 1.389 . S
C297 C298 1.387 . S
C298 H283 0.930 . S
C298 C293 1.390 . S
C298 C297 1.387 . S
H299 C311 0.930 . S
H300 C313 0.930 1_554 S
H301 C314 0.930 . S
H302 C318 0.959 . S
H303 C318 0.959 . S
H304 C318 0.961 . S
H305 C319 0.960 . S
H306 C319 0.961 . S
H307 C319 0.959 . S
H308 C322 0.929 . S
H309 C323 0.931 . S
H310 C325 0.930 . S
C311 H299 0.930 . S
C311 C312 1.399 . S
C311 C316 1.399 . S
C312 C311 1.399 . S
C312 C313 1.376 . S
C313 H300 0.930 1_556 S
C313 C312 1.376 . S
C313 C314 1.388 . S
C314 H301 0.930 . S
C314 C313 1.388 . S
C314 C315 1.390 . S
C315 C314 1.390 . S
C315 C316 1.394 . S
C315 C321 1.465 . S
C316 C311 1.399 . S
C316 C315 1.394 . S
C316 C317 1.516 . S
C317 C316 1.516 . S
C317 C318 1.502 . S
C317 C319 1.561 . S
C317 C320 1.526 . S
C318 H302 0.959 . S
C318 H303 0.959 . S
C318 H304 0.961 . S
C318 C317 1.502 . S
C319 H305 0.960 . S
C319 H306 0.961 . S
C319 H307 0.959 . S
C319 C317 1.561 . S
C320 C317 1.526 . S
C320 C321 1.396 . S
C320 C325 1.390 . S
C321 C315 1.465 . S
C321 C320 1.396 . S
C321 C322 1.399 . S
C322 H308 0.929 . S
C322 C321 1.399 . S
C322 C323 1.385 . S
C323 H309 0.931 . S
C323 C322 1.385 . S
C323 C324 1.389 . S
C324 C323 1.389 . S
C324 C325 1.387 . S
C325 H310 0.930 . S
C325 C320 1.390 . S
C325 C324 1.387 . S
H326 C338 0.930 . S
H327 C340 0.930 . S
H328 C341 0.930 . S
H329 C345 0.959 . S
H330 C345 0.959 . S
H331 C345 0.961 . S
H332 C346 0.960 . S
H333 C346 0.961 . S
H334 C346 0.959 . S
H335 C349 0.929 . S
H336 C350 0.931 . S
H337 C352 0.930 . S
C338 H326 0.930 . S
C338 C339 1.399 . S
C338 C343 1.399 . S
C339 C338 1.399 . S
C339 C340 1.376 . S
C340 H327 0.930 . S
C340 C339 1.376 . S
C340 C341 1.388 . S
C341 H328 0.930 . S
C341 C340 1.388 . S
C341 C342 1.390 . S
C342 C341 1.390 . S
C342 C343 1.394 . S
C342 C348 1.465 . S
C343 C338 1.399 . S
C343 C342 1.394 . S
C343 C344 1.516 . S
C344 C343 1.516 . S
C344 C345 1.502 . S
C344 C346 1.561 . S
C344 C347 1.526 . S
C345 H329 0.959 . S
C345 H330 0.959 . S
C345 H331 0.961 . S
C345 C344 1.502 . S
C346 H332 0.960 . S
C346 H333 0.961 . S
C346 H334 0.959 . S
C346 C344 1.561 . S
C347 C344 1.526 . S
C347 C348 1.396 . S
C347 C352 1.390 . S
C348 C342 1.465 . S
C348 C347 1.396 . S
C348 C349 1.399 . S
C349 H335 0.929 . S
C349 C348 1.399 . S
C349 C350 1.385 . S
C350 H336 0.931 . S
C350 C349 1.385 . S
C350 C351 1.389 . S
C351 C350 1.389 . S
C351 C352 1.387 . S
C352 H337 0.930 . S
C352 C347 1.390 . S
C352 C351 1.387 . S
H353 C365 0.930 . S
H354 C367 0.930 . S
H355 C368 0.930 . S
H356 C372 0.959 . S
H357 C372 0.959 . S
H358 C372 0.961 . S
H359 C373 0.960 . S
H360 C373 0.961 . S
H361 C373 0.959 . S
H362 C376 0.929 . S
H363 C377 0.931 1_554 S
H364 C379 0.930 . S
C365 H353 0.930 . S
C365 C366 1.399 . S
C365 C370 1.399 . S
C366 C365 1.399 . S
C366 C367 1.376 . S
C367 H354 0.930 . S
C367 C366 1.376 . S
C367 C368 1.388 . S
C368 H355 0.930 . S
C368 C367 1.388 . S
C368 C369 1.390 . S
C369 C368 1.390 . S
C369 C370 1.394 . S
C369 C375 1.465 . S
C370 C365 1.399 . S
C370 C369 1.394 . S
C370 C371 1.516 . S
C371 C370 1.516 . S
C371 C372 1.502 . S
C371 C373 1.561 . S
C371 C374 1.526 . S
C372 H356 0.959 . S
C372 H357 0.959 . S
C372 H358 0.961 . S
C372 C371 1.502 . S
C373 H359 0.960 . S
C373 H360 0.961 . S
C373 H361 0.959 . S
C373 C371 1.561 . S
C374 C371 1.526 . S
C374 C375 1.396 . S
C374 C379 1.390 . S
C375 C369 1.465 . S
C375 C374 1.396 . S
C375 C376 1.399 . S
C376 H362 0.929 . S
C376 C375 1.399 . S
C376 C377 1.385 . S
C377 H363 0.931 1_556 S
C377 C376 1.385 . S
C377 C378 1.389 . S
C378 C377 1.389 . S
C378 C379 1.387 . S
C379 H364 0.930 . S
C379 C374 1.390 . S
C379 C378 1.387 . S
H380 C392 0.930 . S
H381 C394 0.930 . S
H382 C395 0.930 . S
H383 C399 0.959 . S
H384 C399 0.959 . S
H385 C399 0.961 . S
H386 C400 0.960 . S
H387 C400 0.961 . S
H388 C400 0.959 . S
H389 C403 0.929 . S
H390 C404 0.931 . S
H391 C406 0.930 . S
C392 H380 0.930 . S
C392 C393 1.399 . S
C392 C397 1.399 . S
C393 C392 1.399 . S
C393 C394 1.376 . S
C394 H381 0.930 . S
C394 C393 1.376 . S
C394 C395 1.388 . S
C395 H382 0.930 . S
C395 C394 1.388 . S
C395 C396 1.390 . S
C396 C395 1.390 . S
C396 C397 1.394 . S
C396 C402 1.465 . S
C397 C392 1.399 . S
C397 C396 1.394 . S
C397 C398 1.516 . S
C398 C397 1.516 . S
C398 C399 1.502 . S
C398 C400 1.561 . S
C398 C401 1.526 . S
C399 H383 0.959 . S
C399 H384 0.959 . S
C399 H385 0.961 . S
C399 C398 1.502 . S
C400 H386 0.960 . S
C400 H387 0.961 . S
C400 H388 0.959 . S
C400 C398 1.561 . S
C401 C398 1.526 . S
C401 C402 1.396 . S
C401 C406 1.390 . S
C402 C396 1.465 . S
C402 C401 1.396 . S
C402 C403 1.399 . S
C403 H389 0.929 . S
C403 C402 1.399 . S
C403 C404 1.385 . S
C404 H390 0.931 . S
C404 C403 1.385 . S
C404 C405 1.389 . S
C405 C404 1.389 . S
C405 C406 1.387 . S
C406 H391 0.930 . S
C406 C401 1.390 . S
C406 C405 1.387 . S
H407 C419 0.930 . S
H408 C421 0.930 . S
H409 C422 0.930 . S
H410 C426 0.959 . S
H411 C426 0.959 . S
H412 C426 0.961 . S
H413 C427 0.960 . S
H414 C427 0.961 . S
H415 C427 0.959 . S
H416 C430 0.929 . S
H417 C431 0.931 . S
H418 C433 0.930 . S
C419 H407 0.930 . S
C419 C420 1.399 . S
C419 C424 1.399 . S
C420 C419 1.399 . S
C420 C421 1.376 . S
C421 H408 0.930 . S
C421 C420 1.376 . S
C421 C422 1.388 . S
C422 H409 0.930 . S
C422 C421 1.388 . S
C422 C423 1.390 . S
C423 C422 1.390 . S
C423 C424 1.394 . S
C423 C429 1.465 . S
C424 C419 1.399 . S
C424 C423 1.394 . S
C424 C425 1.516 . S
C425 C424 1.516 . S
C425 C426 1.502 . S
C425 C427 1.561 . S
C425 C428 1.526 . S
C426 H410 0.959 . S
C426 H411 0.959 . S
C426 H412 0.961 . S
C426 C425 1.502 . S
C427 H413 0.960 . S
C427 H414 0.961 . S
C427 H415 0.959 . S
C427 C425 1.561 . S
C428 C425 1.526 . S
C428 C429 1.396 . S
C428 C433 1.390 . S
C429 C423 1.465 . S
C429 C428 1.396 . S
C429 C430 1.399 . S
C430 H416 0.929 . S
C430 C429 1.399 . S
C430 C431 1.385 . S
C431 H417 0.931 . S
C431 C430 1.385 . S
C431 C432 1.389 . S
C432 C431 1.389 . S
C432 C433 1.387 . S
C433 H418 0.930 . S
C433 C428 1.390 . S
C433 C432 1.387 . S
H434 C446 0.930 . S
H435 C448 0.930 . S
H436 C449 0.930 . S
H437 C453 0.959 . S
H438 C453 0.959 . S
H439 C453 0.961 . S
H440 C454 0.960 . S
H441 C454 0.961 . S
H442 C454 0.959 . S
H443 C457 0.929 . S
H444 C458 0.931 . S
H445 C460 0.930 . S
C446 H434 0.930 . S
C446 C447 1.399 . S
C446 C451 1.399 . S
C447 C446 1.399 . S
C447 C448 1.376 . S
C448 H435 0.930 . S
C448 C447 1.376 . S
C448 C449 1.388 . S
C449 H436 0.930 . S
C449 C448 1.388 . S
C449 C450 1.390 . S
C450 C449 1.390 . S
C450 C451 1.394 . S
C450 C456 1.465 . S
C451 C446 1.399 . S
C451 C450 1.394 . S
C451 C452 1.516 . S
C452 C451 1.516 . S
C452 C453 1.502 . S
C452 C454 1.561 . S
C452 C455 1.526 . S
C453 H437 0.959 . S
C453 H438 0.959 . S
C453 H439 0.961 . S
C453 C452 1.502 . S
C454 H440 0.960 . S
C454 H441 0.961 . S
C454 H442 0.959 . S
C454 C452 1.561 . S
C455 C452 1.526 . S
C455 C456 1.396 . S
C455 C460 1.390 . S
C456 C450 1.465 . S
C456 C455 1.396 . S
C456 C457 1.399 . S
C457 H443 0.929 . S
C457 C456 1.399 . S
C457 C458 1.385 . S
C458 H444 0.931 . S
C458 C457 1.385 . S
C458 C459 1.389 . S
C459 C458 1.389 . S
C459 C460 1.387 . S
C460 H445 0.930 . S
C460 C455 1.390 . S
C460 C459 1.387 . S
H461 C473 0.930 . S
H462 C475 0.930 . S
H463 C476 0.930 . S
H464 C480 0.959 . S
H465 C480 0.959 . S
H466 C480 0.961 . S
H467 C481 0.960 . S
H468 C481 0.961 . S
H469 C481 0.959 . S
H470 C484 0.929 . S
H471 C485 0.931 . S
H472 C487 0.930 . S
C473 H461 0.930 . S
C473 C474 1.399 . S
C473 C478 1.399 . S
C474 C473 1.399 . S
C474 C475 1.376 . S
C475 H462 0.930 . S
C475 C474 1.376 . S
C475 C476 1.388 . S
C476 H463 0.930 . S
C476 C475 1.388 . S
C476 C477 1.390 . S
C477 C476 1.390 . S
C477 C478 1.394 . S
C477 C483 1.465 . S
C478 C473 1.399 . S
C478 C477 1.394 . S
C478 C479 1.516 . S
C479 C478 1.516 . S
C479 C480 1.502 . S
C479 C481 1.561 . S
C479 C482 1.526 . S
C480 H464 0.959 . S
C480 H465 0.959 . S
C480 H466 0.961 . S
C480 C479 1.502 . S
C481 H467 0.960 . S
C481 H468 0.961 . S
C481 H469 0.959 . S
C481 C479 1.561 . S
C482 C479 1.526 . S
C482 C483 1.396 . S
C482 C487 1.390 . S
C483 C477 1.465 . S
C483 C482 1.396 . S
C483 C484 1.399 . S
C484 H470 0.929 . S
C484 C483 1.399 . S
C484 C485 1.385 . S
C485 H471 0.931 . S
C485 C484 1.385 . S
C485 C486 1.389 . S
C486 C485 1.389 . S
C486 C487 1.387 . S
C487 H472 0.930 . S
C487 C482 1.390 . S
C487 C486 1.387 . S
H488 C500 0.930 . S
H489 C502 0.930 . S
H490 C503 0.930 . S
H491 C507 0.959 . S
H492 C507 0.959 1_565 S
H493 C507 0.961 . S
H494 C508 0.960 1_545 S
H495 C508 0.961 . S
H496 C508 0.959 . S
H497 C511 0.929 . S
H498 C512 0.931 . S
H499 C514 0.930 . S
C500 H488 0.930 . S
C500 C501 1.399 . S
C500 C505 1.399 . S
C501 C500 1.399 . S
C501 C502 1.376 . S
C502 H489 0.930 . S
C502 C501 1.376 . S
C502 C503 1.388 . S
C503 H490 0.930 . S
C503 C502 1.388 . S
C503 C504 1.390 . S
C504 C503 1.390 . S
C504 C505 1.394 . S
C504 C510 1.465 1_545 S
C505 C500 1.399 . S
C505 C504 1.394 . S
C505 C506 1.516 . S
C506 C505 1.516 . S
C506 C507 1.502 . S
C506 C508 1.561 1_545 S
C506 C509 1.526 1_545 S
C507 H491 0.959 . S
C507 H492 0.959 1_545 S
C507 H493 0.961 . S
C507 C506 1.502 . S
C508 H494 0.960 1_565 S
C508 H495 0.961 . S
C508 H496 0.959 . S
C508 C506 1.561 1_565 S
C509 C506 1.526 1_565 S
C509 C510 1.396 . S
C509 C514 1.390 . S
C510 C504 1.465 1_565 S
C510 C509 1.396 . S
C510 C511 1.399 . S
C511 H497 0.929 . S
C511 C510 1.399 . S
C511 C512 1.385 . S
C512 H498 0.931 . S
C512 C511 1.385 . S
C512 C513 1.389 . S
C513 C512 1.389 . S
C513 C514 1.387 . S
C514 H499 0.930 . S
C514 C509 1.390 . S
C514 C513 1.387 . S
H515 C527 0.930 . S
H516 C529 0.930 . S
H517 C530 0.930 . S
H518 C534 0.959 . S
H519 C534 0.959 . S
H520 C534 0.961 . S
H521 C535 0.960 . S
H522 C535 0.961 . S
H523 C535 0.959 . S
H524 C538 0.929 . S
H525 C539 0.931 . S
H526 C541 0.930 . S
C527 H515 0.930 . S
C527 C528 1.399 . S
C527 C532 1.399 . S
C528 C527 1.399 . S
C528 C529 1.376 . S
C529 H516 0.930 . S
C529 C528 1.376 . S
C529 C530 1.388 . S
C530 H517 0.930 . S
C530 C529 1.388 . S
C530 C531 1.390 . S
C531 C530 1.390 . S
C531 C532 1.394 . S
C531 C537 1.465 1_655 S
C532 C527 1.399 . S
C532 C531 1.394 . S
C532 C533 1.516 . S
C533 C532 1.516 . S
C533 C534 1.502 . S
C533 C535 1.561 . S
C533 C536 1.526 1_655 S
C534 H518 0.959 . S
C534 H519 0.959 . S
C534 H520 0.961 . S
C534 C533 1.502 . S
C535 H521 0.960 . S
C535 H522 0.961 . S
C535 H523 0.959 . S
C535 C533 1.561 . S
C536 C533 1.526 1_455 S
C536 C537 1.396 . S
C536 C541 1.390 . S
C537 C531 1.465 1_455 S
C537 C536 1.396 . S
C537 C538 1.399 . S
C538 H524 0.929 . S
C538 C537 1.399 . S
C538 C539 1.385 . S
C539 H525 0.931 . S
C539 C538 1.385 . S
C539 C540 1.389 . S
C540 C539 1.389 . S
C540 C541 1.387 . S
C541 H526 0.930 . S
C541 C536 1.390 . S
C541 C540 1.387 . S
H542 C554 0.930 . S
H543 C556 0.930 . S
H544 C557 0.930 . S
H545 C561 0.959 . S
H546 C561 0.959 . S
H547 C561 0.961 . S
H548 C562 0.960 . S
H549 C562 0.961 . S
H550 C562 0.959 . S
H551 C565 0.928 1_655 S
H552 C566 0.931 . S
H553 C568 0.930 . S
C554 H542 0.930 . S
C554 C555 1.399 . S
C554 C559 1.399 . S
C555 C554 1.399 . S
C555 C556 1.376 . S
C556 H543 0.930 . S
C556 C555 1.376 . S
C556 C557 1.388 . S
C557 H544 0.930 . S
C557 C556 1.388 . S
C557 C558 1.390 . S
C558 C557 1.390 . S
C558 C559 1.394 . S
C558 C564 1.465 1_655 S
C559 C554 1.399 . S
C559 C558 1.394 . S
C559 C560 1.509 1_655 S
C560 C559 1.509 1_455 S
C560 C561 1.520 . S
C560 C562 1.543 1_455 S
C560 C563 1.531 . S
C561 H545 0.959 . S
C561 H546 0.959 . S
C561 H547 0.961 . S
C561 C560 1.520 . S
C562 H548 0.960 . S
C562 H549 0.961 . S
C562 H550 0.959 . S
C562 C560 1.543 1_655 S
C563 C560 1.531 . S
C563 C564 1.396 . S
C563 C568 1.390 . S
C564 C558 1.465 1_455 S
C564 C563 1.396 . S
C564 C565 1.399 . S
C565 H551 0.928 1_455 S
C565 C564 1.399 . S
C565 C566 1.385 . S
C566 H552 0.931 . S
C566 C565 1.385 . S
C566 C567 1.389 . S
C567 C566 1.389 . S
C567 C568 1.387 . S
C568 H553 0.930 . S
C568 C563 1.390 . S
C568 C567 1.387 . S
H569 C581 0.930 1_565 S
H570 C583 0.930 . S
H571 C584 0.930 . S
H572 C588 0.959 . S
H573 C588 0.959 . S
H574 C588 0.961 . S
H575 C589 0.960 . S
H576 C589 0.961 . S
H577 C589 0.959 . S
H578 C592 0.929 . S
H579 C593 0.931 . S
H580 C595 0.930 . S
C581 H569 0.930 1_545 S
C581 C582 1.399 . S
C581 C586 1.399 1_545 S
C582 C581 1.399 . S
C582 C583 1.376 . S
C583 H570 0.930 . S
C583 C582 1.376 . S
C583 C584 1.388 . S
C584 H571 0.930 . S
C584 C583 1.388 . S
C584 C585 1.390 . S
C585 C584 1.390 . S
C585 C586 1.394 1_545 S
C585 C591 1.465 . S
C586 C581 1.399 1_565 S
C586 C585 1.394 1_565 S
C586 C587 1.516 . S
C587 C586 1.516 . S
C587 C588 1.502 . S
C587 C589 1.561 . S
C587 C590 1.526 . S
C588 H572 0.959 . S
C588 H573 0.959 . S
C588 H574 0.961 . S
C588 C587 1.502 . S
C589 H575 0.960 . S
C589 H576 0.961 . S
C589 H577 0.959 . S
C589 C587 1.561 . S
C590 C587 1.526 . S
C590 C591 1.396 1_565 S
C590 C595 1.390 . S
C591 C585 1.465 . S
C591 C590 1.396 1_545 S
C591 C592 1.399 . S
C592 H578 0.929 . S
C592 C591 1.399 . S
C592 C593 1.385 . S
C593 H579 0.931 . S
C593 C592 1.385 . S
C593 C594 1.389 1_545 S
C594 C593 1.389 1_565 S
C594 C595 1.387 . S
C595 H580 0.930 . S
C595 C590 1.390 . S
C595 C594 1.387 . S
H596 C608 0.930 . S
H597 C610 0.930 . S
H598 C611 0.930 . S
H599 C615 0.959 . S
H600 C615 0.959 . S
H601 C615 0.961 . S
H602 C616 0.960 . S
H603 C616 0.961 . S
H604 C616 0.959 . S
H605 C619 0.929 . S
H606 C620 0.931 . S
H607 C622 0.930 . S
C608 H596 0.930 . S
C608 C609 1.399 . S
C608 C613 1.399 . S
C609 C608 1.399 . S
C609 C610 1.376 . S
C610 H597 0.930 . S
C610 C609 1.376 . S
C610 C611 1.388 . S
C611 H598 0.930 . S
C611 C610 1.388 . S
C611 C612 1.390 . S
C612 C611 1.390 . S
C612 C613 1.394 . S
C612 C618 1.465 . S
C613 C608 1.399 . S
C613 C612 1.394 . S
C613 C614 1.516 . S
C614 C613 1.516 . S
C614 C615 1.502 . S
C614 C616 1.561 . S
C614 C617 1.526 . S
C615 H599 0.959 . S
C615 H600 0.959 . S
C615 H601 0.961 . S
C615 C614 1.502 . S
C616 H602 0.960 . S
C616 H603 0.961 . S
C616 H604 0.959 . S
C616 C614 1.561 . S
C617 C614 1.526 . S
C617 C618 1.396 . S
C617 C622 1.390 . S
C618 C612 1.465 . S
C618 C617 1.396 . S
C618 C619 1.399 . S
C619 H605 0.929 . S
C619 C618 1.399 . S
C619 C620 1.385 . S
C620 H606 0.931 . S
C620 C619 1.385 . S
C620 C621 1.389 . S
C621 C620 1.389 . S
C621 C622 1.387 . S
C622 H607 0.930 . S
C622 C617 1.390 . S
C622 C621 1.387 . S
H623 C635 0.930 . S
H624 C637 0.930 . S
H625 C638 0.930 . S
H626 C642 0.959 . S
H627 C642 0.959 . S
H628 C642 0.961 . S
H629 C643 0.960 . S
H630 C643 0.961 . S
H631 C643 0.959 . S
H632 C646 0.929 . S
H633 C647 0.931 . S
H634 C649 0.930 . S
C635 H623 0.930 . S
C635 C636 1.399 . S
C635 C640 1.399 . S
C636 C635 1.399 . S
C636 C637 1.376 . S
C637 H624 0.930 . S
C637 C636 1.376 . S
C637 C638 1.388 . S
C638 H625 0.930 . S
C638 C637 1.388 . S
C638 C639 1.390 . S
C639 C638 1.390 . S
C639 C640 1.394 . S
C639 C645 1.465 . S
C640 C635 1.399 . S
C640 C639 1.394 . S
C640 C641 1.516 . S
C641 C640 1.516 . S
C641 C642 1.502 . S
C641 C643 1.561 . S
C641 C644 1.526 . S
C642 H626 0.959 . S
C642 H627 0.959 . S
C642 H628 0.961 . S
C642 C641 1.502 . S
C643 H629 0.960 . S
C643 H630 0.961 . S
C643 H631 0.959 . S
C643 C641 1.561 . S
C644 C641 1.526 . S
C644 C645 1.396 . S
C644 C649 1.390 . S
C645 C639 1.465 . S
C645 C644 1.396 . S
C645 C646 1.399 . S
C646 H632 0.929 . S
C646 C645 1.399 . S
C646 C647 1.385 . S
C647 H633 0.931 . S
C647 C646 1.385 . S
C647 C648 1.389 . S
C648 C647 1.389 . S
C648 C649 1.387 . S
C649 H634 0.930 . S
C649 C644 1.390 . S
C649 C648 1.387 . S
H650 C662 0.930 . S
H651 C664 0.930 . S
H652 C665 0.930 . S
H653 C669 0.959 . S
H654 C669 0.959 . S
H655 C669 0.961 . S
H656 C670 0.960 . S
H657 C670 0.961 . S
H658 C670 0.959 . S
H659 C673 0.929 . S
H660 C674 0.931 . S
H661 C676 0.930 . S
C662 H650 0.930 . S
C662 C663 1.399 . S
C662 C667 1.399 . S
C663 C662 1.399 . S
C663 C664 1.376 . S
C664 H651 0.930 . S
C664 C663 1.376 . S
C664 C665 1.388 . S
C665 H652 0.930 . S
C665 C664 1.388 . S
C665 C666 1.390 . S
C666 C665 1.390 . S
C666 C667 1.394 . S
C666 C672 1.465 . S
C667 C662 1.399 . S
C667 C666 1.394 . S
C667 C668 1.516 . S
C668 C667 1.516 . S
C668 C669 1.502 . S
C668 C670 1.561 . S
C668 C671 1.526 . S
C669 H653 0.959 . S
C669 H654 0.959 . S
C669 H655 0.961 . S
C669 C668 1.502 . S
C670 H656 0.960 . S
C670 H657 0.961 . S
C670 H658 0.959 . S
C670 C668 1.561 . S
C671 C668 1.526 . S
C671 C672 1.396 . S
C671 C676 1.390 . S
C672 C666 1.465 . S
C672 C671 1.396 . S
C672 C673 1.399 . S
C673 H659 0.929 . S
C673 C672 1.399 . S
C673 C674 1.385 . S
C674 H660 0.931 . S
C674 C673 1.385 . S
C674 C675 1.389 . S
C675 C674 1.389 . S
C675 C676 1.387 . S
C676 H661 0.930 . S
C676 C671 1.390 . S
C676 C675 1.387 . S
H677 C689 0.930 . S
H678 C691 0.930 . S
H679 C692 0.930 . S
H680 C696 0.959 . S
H681 C696 0.959 . S
H682 C696 0.961 . S
H683 C697 0.960 . S
H684 C697 0.961 . S
H685 C697 0.959 . S
H686 C700 0.929 . S
H687 C701 0.931 . S
H688 C703 0.930 . S
C689 H677 0.930 . S
C689 C690 1.399 . S
C689 C694 1.399 . S
C690 C689 1.399 . S
C690 C691 1.376 . S
C691 H678 0.930 . S
C691 C690 1.376 . S
C691 C692 1.388 . S
C692 H679 0.930 . S
C692 C691 1.388 . S
C692 C693 1.390 . S
C693 C692 1.390 . S
C693 C694 1.394 . S
C693 C699 1.465 . S
C694 C689 1.399 . S
C694 C693 1.394 . S
C694 C695 1.516 . S
C695 C694 1.516 . S
C695 C696 1.502 . S
C695 C697 1.561 . S
C695 C698 1.526 . S
C696 H680 0.959 . S
C696 H681 0.959 . S
C696 H682 0.961 . S
C696 C695 1.502 . S
C697 H683 0.960 . S
C697 H684 0.961 . S
C697 H685 0.959 . S
C697 C695 1.561 . S
C698 C695 1.526 . S
C698 C699 1.396 . S
C698 C703 1.390 . S
C699 C693 1.465 . S
C699 C698 1.396 . S
C699 C700 1.399 . S
C700 H686 0.929 . S
C700 C699 1.399 . S
C700 C701 1.385 . S
C701 H687 0.931 . S
C701 C700 1.385 . S
C701 C702 1.389 . S
C702 C701 1.389 . S
C702 C703 1.387 . S
C703 H688 0.930 . S
C703 C698 1.390 . S
C703 C702 1.387 . S
H704 C716 0.930 . S
H705 C718 0.930 . S
H706 C719 0.930 . S
H707 C723 0.959 . S
H708 C723 0.959 . S
H709 C723 0.961 . S
H710 C724 0.960 . S
H711 C724 0.961 . S
H712 C724 0.959 . S
H713 C727 0.929 . S
H714 C728 0.931 . S
H715 C730 0.930 . S
C716 H704 0.930 . S
C716 C717 1.399 . S
C716 C721 1.399 . S
C717 C716 1.399 . S
C717 C718 1.376 . S
C718 H705 0.930 . S
C718 C717 1.376 . S
C718 C719 1.388 . S
C719 H706 0.930 . S
C719 C718 1.388 . S
C719 C720 1.390 . S
C720 C719 1.390 . S
C720 C721 1.394 . S
C720 C726 1.465 . S
C721 C716 1.399 . S
C721 C720 1.394 . S
C721 C722 1.516 . S
C722 C721 1.516 . S
C722 C723 1.502 . S
C722 C724 1.561 . S
C722 C725 1.526 . S
C723 H707 0.959 . S
C723 H708 0.959 . S
C723 H709 0.961 . S
C723 C722 1.502 . S
C724 H710 0.960 . S
C724 H711 0.961 . S
C724 H712 0.959 . S
C724 C722 1.561 . S
C725 C722 1.526 . S
C725 C726 1.396 . S
C725 C730 1.390 . S
C726 C720 1.465 . S
C726 C725 1.396 . S
C726 C727 1.399 . S
C727 H713 0.929 . S
C727 C726 1.399 . S
C727 C728 1.385 . S
C728 H714 0.931 . S
C728 C727 1.385 . S
C728 C729 1.389 . S
C729 C728 1.389 . S
C729 C730 1.387 . S
C730 H715 0.930 . S
C730 C725 1.390 . S
C730 C729 1.387 . S
H731 C743 0.930 . S
H732 C745 0.930 . S
H733 C746 0.930 . S
H734 C750 0.959 . S
H735 C750 0.959 . S
H736 C750 0.961 . S
H737 C751 0.960 . S
H738 C751 0.961 . S
H739 C751 0.959 . S
H740 C754 0.929 . S
H741 C755 0.931 . S
H742 C757 0.930 . S
C743 H731 0.930 . S
C743 C744 1.399 . S
C743 C748 1.399 . S
C744 C743 1.399 . S
C744 C745 1.376 . S
C745 H732 0.930 . S
C745 C744 1.376 . S
C745 C746 1.388 . S
C746 H733 0.930 . S
C746 C745 1.388 . S
C746 C747 1.390 . S
C747 C746 1.390 . S
C747 C748 1.394 . S
C747 C753 1.465 . S
C748 C743 1.399 . S
C748 C747 1.394 . S
C748 C749 1.516 . S
C749 C748 1.516 . S
C749 C750 1.502 . S
C749 C751 1.561 . S
C749 C752 1.526 . S
C750 H734 0.959 . S
C750 H735 0.959 . S
C750 H736 0.961 . S
C750 C749 1.502 . S
C751 H737 0.960 . S
C751 H738 0.961 . S
C751 H739 0.959 . S
C751 C749 1.561 . S
C752 C749 1.526 . S
C752 C753 1.396 . S
C752 C757 1.390 . S
C753 C747 1.465 . S
C753 C752 1.396 . S
C753 C754 1.399 . S
C754 H740 0.929 . S
C754 C753 1.399 . S
C754 C755 1.385 . S
C755 H741 0.931 . S
C755 C754 1.385 . S
C755 C756 1.389 . S
C756 C755 1.389 . S
C756 C757 1.387 . S
C757 H742 0.930 . S
C757 C752 1.390 . S
C757 C756 1.387 . S
H758 C770 0.930 . S
H759 C772 0.930 . S
H760 C773 0.930 . S
H761 C777 0.959 . S
H762 C777 0.959 . S
H763 C777 0.961 . S
H764 C778 0.960 . S
H765 C778 0.961 . S
H766 C778 0.959 . S
H767 C781 0.929 . S
H768 C782 0.931 . S
H769 C784 0.930 . S
C770 H758 0.930 . S
C770 C771 1.399 . S
C770 C775 1.399 . S
C771 C770 1.399 . S
C771 C772 1.376 . S
C772 H759 0.930 . S
C772 C771 1.376 . S
C772 C773 1.388 . S
C773 H760 0.930 . S
C773 C772 1.388 . S
C773 C774 1.390 . S
C774 C773 1.390 . S
C774 C775 1.394 . S
C774 C780 1.465 . S
C775 C770 1.399 . S
C775 C774 1.394 . S
C775 C776 1.516 . S
C776 C775 1.516 . S
C776 C777 1.502 . S
C776 C778 1.561 . S
C776 C779 1.526 . S
C777 H761 0.959 . S
C777 H762 0.959 . S
C777 H763 0.961 . S
C777 C776 1.502 . S
C778 H764 0.960 . S
C778 H765 0.961 . S
C778 H766 0.959 . S
C778 C776 1.561 . S
C779 C776 1.526 . S
C779 C780 1.396 . S
C779 C784 1.390 . S
C780 C774 1.465 . S
C780 C779 1.396 . S
C780 C781 1.399 . S
C781 H767 0.929 . S
C781 C780 1.399 . S
C781 C782 1.385 . S
C782 H768 0.931 . S
C782 C781 1.385 . S
C782 C783 1.389 . S
C783 C782 1.389 . S
C783 C784 1.387 . S
C784 H769 0.930 . S
C784 C779 1.390 . S
C784 C783 1.387 . S
H785 C797 0.930 . S
H786 C799 0.930 . S
H787 C800 0.930 . S
H788 C804 0.959 . S
H789 C804 0.959 . S
H790 C804 0.961 . S
H791 C805 0.960 . S
H792 C805 0.961 . S
H793 C805 0.959 . S
H794 C808 0.929 . S
H795 C809 0.931 . S
H796 C811 0.930 . S
C797 H785 0.930 . S
C797 C798 1.399 . S
C797 C802 1.399 . S
C798 C797 1.399 . S
C798 C799 1.376 . S
C799 H786 0.930 . S
C799 C798 1.376 . S
C799 C800 1.388 . S
C800 H787 0.930 . S
C800 C799 1.388 . S
C800 C801 1.390 . S
C801 C800 1.390 . S
C801 C802 1.394 . S
C801 C807 1.465 . S
C802 C797 1.399 . S
C802 C801 1.394 . S
C802 C803 1.516 . S
C803 C802 1.516 . S
C803 C804 1.502 . S
C803 C805 1.561 . S
C803 C806 1.526 . S
C804 H788 0.959 . S
C804 H789 0.959 . S
C804 H790 0.961 . S
C804 C803 1.502 . S
C805 H791 0.960 . S
C805 H792 0.961 . S
C805 H793 0.959 . S
C805 C803 1.561 . S
C806 C803 1.526 . S
C806 C807 1.396 . S
C806 C811 1.390 . S
C807 C801 1.465 . S
C807 C806 1.396 . S
C807 C808 1.399 . S
C808 H794 0.929 . S
C808 C807 1.399 . S
C808 C809 1.385 . S
C809 H795 0.931 . S
C809 C808 1.385 . S
C809 C810 1.389 . S
C810 C809 1.389 . S
C810 C811 1.387 . S
C811 H796 0.930 . S
C811 C806 1.390 . S
C811 C810 1.387 . S
H812 C824 0.930 . S
H813 C826 0.930 . S
H814 C827 0.930 . S
H815 C831 0.959 . S
H816 C831 0.959 . S
H817 C831 0.961 . S
H818 C832 0.960 . S
H819 C832 0.961 . S
H820 C832 0.959 . S
H821 C835 0.929 . S
H822 C836 0.931 . S
H823 C838 0.930 . S
C824 H812 0.930 . S
C824 C825 1.399 . S
C824 C829 1.399 . S
C825 C824 1.399 . S
C825 C826 1.376 . S
C826 H813 0.930 . S
C826 C825 1.376 . S
C826 C827 1.388 . S
C827 H814 0.930 . S
C827 C826 1.388 . S
C827 C828 1.390 . S
C828 C827 1.390 . S
C828 C829 1.394 . S
C828 C834 1.465 . S
C829 C824 1.399 . S
C829 C828 1.394 . S
C829 C830 1.516 . S
C830 C829 1.516 . S
C830 C831 1.502 . S
C830 C832 1.561 . S
C830 C833 1.526 . S
C831 H815 0.959 . S
C831 H816 0.959 . S
C831 H817 0.961 . S
C831 C830 1.502 . S
C832 H818 0.960 . S
C832 H819 0.961 . S
C832 H820 0.959 . S
C832 C830 1.561 . S
C833 C830 1.526 . S
C833 C834 1.396 . S
C833 C838 1.390 . S
C834 C828 1.465 . S
C834 C833 1.396 . S
C834 C835 1.399 . S
C835 H821 0.929 . S
C835 C834 1.399 . S
C835 C836 1.385 . S
C836 H822 0.931 . S
C836 C835 1.385 . S
C836 C837 1.389 . S
C837 C836 1.389 . S
C837 C838 1.387 . S
C838 H823 0.930 . S
C838 C833 1.390 . S
C838 C837 1.387 . S
H839 C851 0.930 . S
H840 C853 0.930 . S
H841 C854 0.930 . S
H842 C858 0.959 . S
H843 C858 0.959 . S
H844 C858 0.961 . S
H845 C859 0.960 . S
H846 C859 0.961 . S
H847 C859 0.959 . S
H848 C862 0.929 . S
H849 C863 0.931 . S
H850 C865 0.930 . S
C851 H839 0.930 . S
C851 C852 1.399 . S
C851 C856 1.399 . S
C852 C851 1.399 . S
C852 C853 1.376 . S
C853 H840 0.930 . S
C853 C852 1.376 . S
C853 C854 1.388 . S
C854 H841 0.930 . S
C854 C853 1.388 . S
C854 C855 1.390 . S
C855 C854 1.390 . S
C855 C856 1.394 . S
C855 C861 1.465 . S
C856 C851 1.399 . S
C856 C855 1.394 . S
C856 C857 1.516 . S
C857 C856 1.516 . S
C857 C858 1.502 . S
C857 C859 1.561 . S
C857 C860 1.526 . S
C858 H842 0.959 . S
C858 H843 0.959 . S
C858 H844 0.961 . S
C858 C857 1.502 . S
C859 H845 0.960 . S
C859 H846 0.961 . S
C859 H847 0.959 . S
C859 C857 1.561 . S
C860 C857 1.526 . S
C860 C861 1.396 . S
C860 C865 1.390 . S
C861 C855 1.465 . S
C861 C860 1.396 . S
C861 C862 1.399 . S
C862 H848 0.929 . S
C862 C861 1.399 . S
C862 C863 1.385 . S
C863 H849 0.931 . S
C863 C862 1.385 . S
C863 C864 1.389 . S
C864 C863 1.389 . S
C864 C865 1.387 . S
C865 H850 0.930 . S
C865 C860 1.390 . S
C865 C864 1.387 . S
H866 C878 0.930 . S
H867 C880 0.930 . S
H868 C881 0.930 . S
H869 C885 0.959 . S
H870 C885 0.959 . S
H871 C885 0.961 . S
H872 C886 0.960 . S
H873 C886 0.961 . S
H874 C886 0.959 . S
H875 C889 0.929 . S
H876 C890 0.931 . S
H877 C892 0.930 . S
C878 H866 0.930 . S
C878 C879 1.399 . S
C878 C883 1.399 . S
C879 C878 1.399 . S
C879 C880 1.376 . S
C880 H867 0.930 . S
C880 C879 1.376 . S
C880 C881 1.388 . S
C881 H868 0.930 . S
C881 C880 1.388 . S
C881 C882 1.390 . S
C882 C881 1.390 . S
C882 C883 1.394 . S
C882 C888 1.465 . S
C883 C878 1.399 . S
C883 C882 1.394 . S
C883 C884 1.516 . S
C884 C883 1.516 . S
C884 C885 1.502 . S
C884 C886 1.561 . S
C884 C887 1.526 . S
C885 H869 0.959 . S
C885 H870 0.959 . S
C885 H871 0.961 . S
C885 C884 1.502 . S
C886 H872 0.960 . S
C886 H873 0.961 . S
C886 H874 0.959 . S
C886 C884 1.561 . S
C887 C884 1.526 . S
C887 C888 1.396 . S
C887 C892 1.390 . S
C888 C882 1.465 . S
C888 C887 1.396 . S
C888 C889 1.399 . S
C889 H875 0.929 . S
C889 C888 1.399 . S
C889 C890 1.385 . S
C890 H876 0.931 . S
C890 C889 1.385 . S
C890 C891 1.389 . S
C891 C890 1.389 . S
C891 C892 1.387 . S
C892 H877 0.930 . S
C892 C887 1.390 . S
C892 C891 1.387 . S
H893 C905 0.930 . S
H894 C907 0.930 . S
H895 C908 0.930 . S
H896 C912 0.959 . S
H897 C912 0.959 . S
H898 C912 0.961 . S
H899 C913 0.960 . S
H900 C913 0.961 . S
H901 C913 0.959 . S
H902 C916 0.929 . S
H903 C917 0.931 . S
H904 C919 0.930 . S
C905 H893 0.930 . S
C905 C906 1.399 . S
C905 C910 1.399 . S
C906 C905 1.399 . S
C906 C907 1.376 . S
C907 H894 0.930 . S
C907 C906 1.376 . S
C907 C908 1.388 . S
C908 H895 0.930 . S
C908 C907 1.388 . S
C908 C909 1.390 . S
C909 C908 1.390 . S
C909 C910 1.394 . S
C909 C915 1.465 . S
C910 C905 1.399 . S
C910 C909 1.394 . S
C910 C911 1.516 . S
C911 C910 1.516 . S
C911 C912 1.502 . S
C911 C913 1.561 . S
C911 C914 1.526 . S
C912 H896 0.959 . S
C912 H897 0.959 . S
C912 H898 0.961 . S
C912 C911 1.502 . S
C913 H899 0.960 . S
C913 H900 0.961 . S
C913 H901 0.959 . S
C913 C911 1.561 . S
C914 C911 1.526 . S
C914 C915 1.396 . S
C914 C919 1.390 . S
C915 C909 1.465 . S
C915 C914 1.396 . S
C915 C916 1.399 . S
C916 H902 0.929 . S
C916 C915 1.399 . S
C916 C917 1.385 . S
C917 H903 0.931 . S
C917 C916 1.385 . S
C917 C918 1.389 . S
C918 C917 1.389 . S
C918 C919 1.387 . S
C919 H904 0.930 . S
C919 C914 1.390 . S
C919 C918 1.387 . S
H920 C932 0.930 . S
H921 C934 0.930 . S
H922 C935 0.930 . S
H923 C939 0.959 . S
H924 C939 0.959 . S
H925 C939 0.961 . S
H926 C940 0.960 . S
H927 C940 0.961 . S
H928 C940 0.959 . S
H929 C943 0.929 . S
H930 C944 0.931 . S
H931 C946 0.930 . S
C932 H920 0.930 . S
C932 C933 1.399 . S
C932 C937 1.399 . S
C933 C932 1.399 . S
C933 C934 1.376 . S
C934 H921 0.930 . S
C934 C933 1.376 . S
C934 C935 1.388 1_565 S
C935 H922 0.930 . S
C935 C934 1.388 1_545 S
C935 C936 1.390 . S
C936 C935 1.390 . S
C936 C937 1.394 1_545 S
C936 C942 1.455 1_556 S
C937 C932 1.399 . S
C937 C936 1.394 1_565 S
C937 C938 1.516 1_556 S
C938 C937 1.516 1_554 S
C938 C939 1.502 . S
C938 C940 1.561 . S
C938 C941 1.526 1_565 S
C939 H923 0.959 . S
C939 H924 0.959 . S
C939 H925 0.961 . S
C939 C938 1.502 . S
C940 H926 0.960 . S
C940 H927 0.961 . S
C940 H928 0.959 . S
C940 C938 1.561 . S
C941 C938 1.526 1_545 S
C941 C942 1.409 . S
C941 C946 1.390 . S
C942 C936 1.455 1_554 S
C942 C941 1.409 . S
C942 C943 1.398 1_554 S
C943 H929 0.929 . S
C943 C942 1.398 1_556 S
C943 C944 1.385 1_556 S
C944 H930 0.931 . S
C944 C943 1.385 1_554 S
C944 C945 1.389 . S
C945 C944 1.389 . S
C945 C946 1.387 . S
C946 H931 0.930 . S
C946 C941 1.390 . S
C946 C945 1.387 . S
H947 C959 0.930 . S
H948 C961 0.930 . S
H949 C962 0.930 . S
H950 C966 0.959 1_556 S
H951 C966 0.959 1_556 S
H952 C966 0.961 . S
H953 C967 0.960 . S
H954 C967 0.961 . S
H955 C967 0.959 . S
H956 C970 0.929 . S
H957 C971 0.931 . S
H958 C973 0.930 . S
C959 H947 0.930 . S
C959 C960 1.399 . S
C959 C964 1.399 . S
C960 C959 1.399 . S
C960 C961 1.376 . S
C961 H948 0.930 . S
C961 C960 1.376 . S
C961 C962 1.388 . S
C962 H949 0.930 . S
C962 C961 1.388 . S
C962 C963 1.390 . S
C963 C962 1.390 . S
C963 C964 1.394 . S
C963 C969 1.465 1_654 S
C964 C959 1.399 . S
C964 C963 1.394 . S
C964 C965 1.516 1_655 S
C965 C964 1.516 1_455 S
C965 C966 1.502 . S
C965 C967 1.561 . S
C965 C968 1.526 1_554 S
C966 H950 0.959 1_554 S
C966 H951 0.959 1_554 S
C966 H952 0.961 . S
C966 C965 1.502 . S
C967 H953 0.960 . S
C967 H954 0.961 . S
C967 H955 0.959 . S
C967 C965 1.561 . S
C968 C965 1.526 1_556 S
C968 C969 1.396 . S
C968 C973 1.390 . S
C969 C963 1.465 1_456 S
C969 C968 1.396 . S
C969 C970 1.399 . S
C970 H956 0.929 . S
C970 C969 1.399 . S
C970 C971 1.385 . S
C971 H957 0.931 . S
C971 C970 1.385 . S
C971 C972 1.389 . S
C972 C971 1.389 . S
C972 C973 1.387 . S
C973 H958 0.930 . S
C973 C968 1.390 . S
C973 C972 1.387 . S
H974 C986 0.930 . S
H975 C988 0.930 . S
H976 C989 0.930 . S
H977 C993 0.959 . S
H978 C993 0.959 . S
H979 C993 0.961 . S
H980 C994 0.960 1_565 S
H981 C994 0.961 . S
H982 C994 0.959 1_565 S
H983 C997 0.929 . S
H984 C998 0.931 . S
H985 C1000 0.930 . S
C986 H974 0.930 . S
C986 C987 1.399 . S
C986 C991 1.399 . S
C987 C986 1.399 . S
C987 C988 1.376 . S
C988 H975 0.930 . S
C988 C987 1.376 . S
C988 C989 1.388 1_554 S
C989 H976 0.930 . S
C989 C988 1.388 1_556 S
C989 C990 1.391 . S
C990 C989 1.391 . S
C990 C991 1.373 1_556 S
C990 C996 1.482 . S
C991 C986 1.399 . S
C991 C990 1.373 1_554 S
C991 C992 1.516 1_565 S
C992 C991 1.516 1_545 S
C992 C993 1.502 . S
C992 C994 1.561 . S
C992 C995 1.526 1_554 S
C993 H977 0.959 . S
C993 H978 0.959 . S
C993 H979 0.961 . S
C993 C992 1.502 . S
C994 H980 0.960 1_545 S
C994 H981 0.961 . S
C994 H982 0.959 1_545 S
C994 C992 1.561 . S
C995 C992 1.526 1_556 S
C995 C996 1.396 1_545 S
C995 C1000 1.390 . S
C996 C990 1.482 . S
C996 C995 1.396 1_565 S
C996 C997 1.399 . S
C997 H983 0.929 . S
C997 C996 1.399 . S
C997 C998 1.385 1_565 S
C998 H984 0.931 . S
C998 C997 1.385 1_545 S
C998 C999 1.389 . S
C999 C998 1.389 . S
C999 C1000 1.387 . S
C1000 H985 0.930 . S
C1000 C995 1.390 . S
C1000 C999 1.387 . S
H1001 C1013 0.930 . S
H1002 C1015 0.930 . S
H1003 C1016 0.930 . S
H1004 C1020 0.959 1_554 S
H1005 C1020 0.959 1_554 S
H1006 C1020 0.961 . S
H1007 C1021 0.960 . S
H1008 C1021 0.961 . S
H1009 C1021 0.959 . S
H1010 C1024 0.929 . S
H1011 C1025 0.931 . S
H1012 C1027 0.930 . S
C1013 H1001 0.930 . S
C1013 C1014 1.399 . S
C1013 C1018 1.399 . S
C1014 C1013 1.399 . S
C1014 C1015 1.376 . S
C1015 H1002 0.930 . S
C1015 C1014 1.376 . S
C1015 C1016 1.388 . S
C1016 H1003 0.930 . S
C1016 C1015 1.388 . S
C1016 C1017 1.390 . S
C1017 C1016 1.390 . S
C1017 C1018 1.394 . S
C1017 C1023 1.465 1_656 S
C1018 C1013 1.399 . S
C1018 C1017 1.394 . S
C1018 C1019 1.516 . S
C1019 C1018 1.516 . S
C1019 C1020 1.502 . S
C1019 C1021 1.561 1_655 S
C1019 C1022 1.526 1_656 S
C1020 H1004 0.959 1_556 S
C1020 H1005 0.959 1_556 S
C1020 H1006 0.961 . S
C1020 C1019 1.502 . S
C1021 H1007 0.960 . S
C1021 H1008 0.961 . S
C1021 H1009 0.959 . S
C1021 C1019 1.561 1_455 S
C1022 C1019 1.526 1_454 S
C1022 C1023 1.396 . S
C1022 C1027 1.390 . S
C1023 C1017 1.465 1_454 S
C1023 C1022 1.396 . S
C1023 C1024 1.399 . S
C1024 H1010 0.929 . S
C1024 C1023 1.399 . S
C1024 C1025 1.385 . S
C1025 H1011 0.931 . S
C1025 C1024 1.385 . S
C1025 C1026 1.389 . S
C1026 C1025 1.389 . S
C1026 C1027 1.387 . S
C1027 H1012 0.930 . S
C1027 C1022 1.390 . S
C1027 C1026 1.387 . S
C285 C1 1.581 . S
C297 C176 1.582 1_554 S
C312 C232 1.653 1_556 S
C324 C37 1.514 . S
C339 C244 1.593 1_554 S
C351 C71 1.530 . S
C366 C105 1.548 . S
C378 C142 1.645 1_556 S
C393 C139 1.476 . S
C405 C108 1.650 . S
C420 C173 1.558 . S
C432 C28 1.581 . S
C447 C205 1.578 . S
C459 C40 1.580 . S
C474 C241 1.481 . S
C486 C74 1.643 . S
C501 C22 0.994 . S
C513 C83 1.046 . S
C528 C117 0.958 . S
C540 C49 1.026 . S
C555 C151 1.003 . S
C567 C226 1.043 . S
C582 C185 0.925 . S
C594 C253 0.995 . S
C609 C6 2.298 . S
C621 C137 2.226 . S
C636 C171 2.257 . S
C648 C62 2.286 . S
C663 C96 2.262 . S
C675 C207 2.191 . S
C690 C239 2.190 . S
C702 C130 2.249 . S
C717 C164 2.268 1_455 S
C729 C3 2.191 . S
C744 C198 2.297 1_565 S
C756 C35 2.242 . S
C771 C69 2.243 . S
C783 C210 2.252 1_655 S
C798 C103 2.195 . S
C810 C266 2.263 1_545 S
C825 C15 0.923 . S
C837 C51 0.910 . S
C852 C85 0.906 . S
C864 C56 0.865 . S
C879 C119 0.899 . S
C891 C90 0.847 . S
C906 C17 0.902 . S
C918 C124 0.926 . S
C933 C255 0.901 . S
C945 C158 0.860 . S
C960 C153 0.897 . S
C972 C192 0.846 . S
C987 C219 0.885 . S
C999 C187 0.905 . S
C1014 C260 0.839 . S
C1026 C221 0.898 . S
