# Generated by pormake.
# Topology uky, (4)-cn, num edge types: 1
# Building blocks:
#     Node 0, Type 0, BuildingBlock: CEKHIL_clean_sbu_0, # of connection points: 4
#     Node 1, Type 0, BuildingBlock: CEKHIL_clean_sbu_0, # of connection points: 4
#     Node 2, Type 0, BuildingBlock: CEKHIL_clean_sbu_0, # of connection points: 4
#     Node 3, Type 0, BuildingBlock: CEKHIL_clean_sbu_0, # of connection points: 4
#     Node 4, Type 0, BuildingBlock: CEKHIL_clean_sbu_0, # of connection points: 4
#     Node 5, Type 0, BuildingBlock: CEKHIL_clean_sbu_0, # of connection points: 4
#     Node 6, Type 0, BuildingBlock: CEKHIL_clean_sbu_0, # of connection points: 4
#     Node 7, Type 0, BuildingBlock: CEKHIL_clean_sbu_0, # of connection points: 4
#     Node 8, Type 0, BuildingBlock: CEKHIL_clean_sbu_0, # of connection points: 4
#     Node 9, Type 0, BuildingBlock: CEKHIL_clean_sbu_0, # of connection points: 4
#     Node 10, Type 0, BuildingBlock: CEKHIL_clean_sbu_0, # of connection points: 4
#     Node 11, Type 0, BuildingBlock: CEKHIL_clean_sbu_0, # of connection points: 4
#     Node 12, Type 0, BuildingBlock: CEKHIL_clean_sbu_0, # of connection points: 4
#     Node 13, Type 0, BuildingBlock: CEKHIL_clean_sbu_0, # of connection points: 4
#     Node 14, Type 0, BuildingBlock: CEKHIL_clean_sbu_0, # of connection points: 4
#     Node 15, Type 0, BuildingBlock: CEKHIL_clean_sbu_0, # of connection points: 4
#     Node 16, Type 0, BuildingBlock: CEKHIL_clean_sbu_0, # of connection points: 4
#     Node 17, Type 0, BuildingBlock: CEKHIL_clean_sbu_0, # of connection points: 4
#     Node 18, Type 0, BuildingBlock: CEKHIL_clean_sbu_0, # of connection points: 4
#     Node 19, Type 0, BuildingBlock: CEKHIL_clean_sbu_0, # of connection points: 4
#     Node 20, Type 0, BuildingBlock: CEKHIL_clean_sbu_0, # of connection points: 4
#     Node 21, Type 0, BuildingBlock: CEKHIL_clean_sbu_0, # of connection points: 4
#     Node 22, Type 0, BuildingBlock: CEKHIL_clean_sbu_0, # of connection points: 4
#     Node 23, Type 0, BuildingBlock: CEKHIL_clean_sbu_0, # of connection points: 4
#     Node 24, Type 0, BuildingBlock: CEKHIL_clean_sbu_0, # of connection points: 4
#     Node 25, Type 0, BuildingBlock: CEKHIL_clean_sbu_0, # of connection points: 4
#     Node 26, Type 0, BuildingBlock: CEKHIL_clean_sbu_0, # of connection points: 4
#     Node 27, Type 0, BuildingBlock: CEKHIL_clean_sbu_0, # of connection points: 4
#     Node 28, Type 0, BuildingBlock: CEKHIL_clean_sbu_0, # of connection points: 4
#     Node 29, Type 0, BuildingBlock: CEKHIL_clean_sbu_0, # of connection points: 4
#     Node 30, Type 0, BuildingBlock: CEKHIL_clean_sbu_0, # of connection points: 4
#     Node 31, Type 0, BuildingBlock: CEKHIL_clean_sbu_0, # of connection points: 4
#     Node 32, Type 0, BuildingBlock: CEKHIL_clean_sbu_0, # of connection points: 4
#     Node 33, Type 0, BuildingBlock: CEKHIL_clean_sbu_0, # of connection points: 4
#     Node 34, Type 0, BuildingBlock: CEKHIL_clean_sbu_0, # of connection points: 4
#     Node 35, Type 0, BuildingBlock: CEKHIL_clean_sbu_0, # of connection points: 4
#     Node 36, Type 0, BuildingBlock: CEKHIL_clean_sbu_0, # of connection points: 4
#     Node 37, Type 0, BuildingBlock: CEKHIL_clean_sbu_0, # of connection points: 4
#     Node 38, Type 0, BuildingBlock: CEKHIL_clean_sbu_0, # of connection points: 4
#     Node 39, Type 0, BuildingBlock: CEKHIL_clean_sbu_0, # of connection points: 4
#     Node 40, Type 0, BuildingBlock: CEKHIL_clean_sbu_0, # of connection points: 4
#     Node 41, Type 0, BuildingBlock: CEKHIL_clean_sbu_0, # of connection points: 4
#     Node 42, Type 0, BuildingBlock: CEKHIL_clean_sbu_0, # of connection points: 4
#     Node 43, Type 0, BuildingBlock: CEKHIL_clean_sbu_0, # of connection points: 4
#     Node 44, Type 0, BuildingBlock: CEKHIL_clean_sbu_0, # of connection points: 4
#     Node 45, Type 0, BuildingBlock: CEKHIL_clean_sbu_0, # of connection points: 4
#     Node 46, Type 0, BuildingBlock: CEKHIL_clean_sbu_0, # of connection points: 4
#     Node 47, Type 0, BuildingBlock: CEKHIL_clean_sbu_0, # of connection points: 4
#     Edge 48, Type (0, 0), BuildingBlock: UVAHIK_clean_linker_0, # of connection points: 2
#     Edge 49, Type (0, 0), BuildingBlock: UVAHIK_clean_linker_0, # of connection points: 2
#     Edge 50, Type (0, 0), BuildingBlock: UVAHIK_clean_linker_0, # of connection points: 2
#     Edge 51, Type (0, 0), BuildingBlock: UVAHIK_clean_linker_0, # of connection points: 2
#     Edge 52, Type (0, 0), BuildingBlock: UVAHIK_clean_linker_0, # of connection points: 2
#     Edge 53, Type (0, 0), BuildingBlock: UVAHIK_clean_linker_0, # of connection points: 2
#     Edge 54, Type (0, 0), BuildingBlock: UVAHIK_clean_linker_0, # of connection points: 2
#     Edge 55, Type (0, 0), BuildingBlock: UVAHIK_clean_linker_0, # of connection points: 2
#     Edge 56, Type (0, 0), BuildingBlock: UVAHIK_clean_linker_0, # of connection points: 2
#     Edge 57, Type (0, 0), BuildingBlock: UVAHIK_clean_linker_0, # of connection points: 2
#     Edge 58, Type (0, 0), BuildingBlock: UVAHIK_clean_linker_0, # of connection points: 2
#     Edge 59, Type (0, 0), BuildingBlock: UVAHIK_clean_linker_0, # of connection points: 2
#     Edge 60, Type (0, 0), BuildingBlock: UVAHIK_clean_linker_0, # of connection points: 2
#     Edge 61, Type (0, 0), BuildingBlock: UVAHIK_clean_linker_0, # of connection points: 2
#     Edge 62, Type (0, 0), BuildingBlock: UVAHIK_clean_linker_0, # of connection points: 2
#     Edge 63, Type (0, 0), BuildingBlock: UVAHIK_clean_linker_0, # of connection points: 2
#     Edge 64, Type (0, 0), BuildingBlock: UVAHIK_clean_linker_0, # of connection points: 2
#     Edge 65, Type (0, 0), BuildingBlock: UVAHIK_clean_linker_0, # of connection points: 2
#     Edge 66, Type (0, 0), BuildingBlock: UVAHIK_clean_linker_0, # of connection points: 2
#     Edge 67, Type (0, 0), BuildingBlock: UVAHIK_clean_linker_0, # of connection points: 2
#     Edge 68, Type (0, 0), BuildingBlock: UVAHIK_clean_linker_0, # of connection points: 2
#     Edge 69, Type (0, 0), BuildingBlock: UVAHIK_clean_linker_0, # of connection points: 2
#     Edge 70, Type (0, 0), BuildingBlock: UVAHIK_clean_linker_0, # of connection points: 2
#     Edge 71, Type (0, 0), BuildingBlock: UVAHIK_clean_linker_0, # of connection points: 2
#     Edge 72, Type (0, 0), BuildingBlock: UVAHIK_clean_linker_0, # of connection points: 2
#     Edge 73, Type (0, 0), BuildingBlock: UVAHIK_clean_linker_0, # of connection points: 2
#     Edge 74, Type (0, 0), BuildingBlock: UVAHIK_clean_linker_0, # of connection points: 2
#     Edge 75, Type (0, 0), BuildingBlock: UVAHIK_clean_linker_0, # of connection points: 2
#     Edge 76, Type (0, 0), BuildingBlock: UVAHIK_clean_linker_0, # of connection points: 2
#     Edge 77, Type (0, 0), BuildingBlock: UVAHIK_clean_linker_0, # of connection points: 2
#     Edge 78, Type (0, 0), BuildingBlock: UVAHIK_clean_linker_0, # of connection points: 2
#     Edge 79, Type (0, 0), BuildingBlock: UVAHIK_clean_linker_0, # of connection points: 2
#     Edge 80, Type (0, 0), BuildingBlock: UVAHIK_clean_linker_0, # of connection points: 2
#     Edge 81, Type (0, 0), BuildingBlock: UVAHIK_clean_linker_0, # of connection points: 2
#     Edge 82, Type (0, 0), BuildingBlock: UVAHIK_clean_linker_0, # of connection points: 2
#     Edge 83, Type (0, 0), BuildingBlock: UVAHIK_clean_linker_0, # of connection points: 2
#     Edge 84, Type (0, 0), BuildingBlock: UVAHIK_clean_linker_0, # of connection points: 2
#     Edge 85, Type (0, 0), BuildingBlock: UVAHIK_clean_linker_0, # of connection points: 2
#     Edge 86, Type (0, 0), BuildingBlock: UVAHIK_clean_linker_0, # of connection points: 2
#     Edge 87, Type (0, 0), BuildingBlock: UVAHIK_clean_linker_0, # of connection points: 2
#     Edge 88, Type (0, 0), BuildingBlock: UVAHIK_clean_linker_0, # of connection points: 2
#     Edge 89, Type (0, 0), BuildingBlock: UVAHIK_clean_linker_0, # of connection points: 2
#     Edge 90, Type (0, 0), BuildingBlock: UVAHIK_clean_linker_0, # of connection points: 2
#     Edge 91, Type (0, 0), BuildingBlock: UVAHIK_clean_linker_0, # of connection points: 2
#     Edge 92, Type (0, 0), BuildingBlock: UVAHIK_clean_linker_0, # of connection points: 2
#     Edge 93, Type (0, 0), BuildingBlock: UVAHIK_clean_linker_0, # of connection points: 2
#     Edge 94, Type (0, 0), BuildingBlock: UVAHIK_clean_linker_0, # of connection points: 2
#     Edge 95, Type (0, 0), BuildingBlock: UVAHIK_clean_linker_0, # of connection points: 2
#     Edge 96, Type (0, 0), BuildingBlock: UVAHIK_clean_linker_0, # of connection points: 2
#     Edge 97, Type (0, 0), BuildingBlock: UVAHIK_clean_linker_0, # of connection points: 2
#     Edge 98, Type (0, 0), BuildingBlock: UVAHIK_clean_linker_0, # of connection points: 2
#     Edge 99, Type (0, 0), BuildingBlock: UVAHIK_clean_linker_0, # of connection points: 2
#     Edge 100, Type (0, 0), BuildingBlock: UVAHIK_clean_linker_0, # of connection points: 2
#     Edge 101, Type (0, 0), BuildingBlock: UVAHIK_clean_linker_0, # of connection points: 2
#     Edge 102, Type (0, 0), BuildingBlock: UVAHIK_clean_linker_0, # of connection points: 2
#     Edge 103, Type (0, 0), BuildingBlock: UVAHIK_clean_linker_0, # of connection points: 2
#     Edge 104, Type (0, 0), BuildingBlock: UVAHIK_clean_linker_0, # of connection points: 2
#     Edge 105, Type (0, 0), BuildingBlock: UVAHIK_clean_linker_0, # of connection points: 2
#     Edge 106, Type (0, 0), BuildingBlock: UVAHIK_clean_linker_0, # of connection points: 2
#     Edge 107, Type (0, 0), BuildingBlock: UVAHIK_clean_linker_0, # of connection points: 2
#     Edge 108, Type (0, 0), BuildingBlock: UVAHIK_clean_linker_0, # of connection points: 2
#     Edge 109, Type (0, 0), BuildingBlock: UVAHIK_clean_linker_0, # of connection points: 2
#     Edge 110, Type (0, 0), BuildingBlock: UVAHIK_clean_linker_0, # of connection points: 2
#     Edge 111, Type (0, 0), BuildingBlock: UVAHIK_clean_linker_0, # of connection points: 2
#     Edge 112, Type (0, 0), BuildingBlock: UVAHIK_clean_linker_0, # of connection points: 2
#     Edge 113, Type (0, 0), BuildingBlock: UVAHIK_clean_linker_0, # of connection points: 2
#     Edge 114, Type (0, 0), BuildingBlock: UVAHIK_clean_linker_0, # of connection points: 2
#     Edge 115, Type (0, 0), BuildingBlock: UVAHIK_clean_linker_0, # of connection points: 2
#     Edge 116, Type (0, 0), BuildingBlock: UVAHIK_clean_linker_0, # of connection points: 2
#     Edge 117, Type (0, 0), BuildingBlock: UVAHIK_clean_linker_0, # of connection points: 2
#     Edge 118, Type (0, 0), BuildingBlock: UVAHIK_clean_linker_0, # of connection points: 2
#     Edge 119, Type (0, 0), BuildingBlock: UVAHIK_clean_linker_0, # of connection points: 2
#     Edge 120, Type (0, 0), BuildingBlock: UVAHIK_clean_linker_0, # of connection points: 2
#     Edge 121, Type (0, 0), BuildingBlock: UVAHIK_clean_linker_0, # of connection points: 2
#     Edge 122, Type (0, 0), BuildingBlock: UVAHIK_clean_linker_0, # of connection points: 2
#     Edge 123, Type (0, 0), BuildingBlock: UVAHIK_clean_linker_0, # of connection points: 2
#     Edge 124, Type (0, 0), BuildingBlock: UVAHIK_clean_linker_0, # of connection points: 2
#     Edge 125, Type (0, 0), BuildingBlock: UVAHIK_clean_linker_0, # of connection points: 2
#     Edge 126, Type (0, 0), BuildingBlock: UVAHIK_clean_linker_0, # of connection points: 2
#     Edge 127, Type (0, 0), BuildingBlock: UVAHIK_clean_linker_0, # of connection points: 2
#     Edge 128, Type (0, 0), BuildingBlock: UVAHIK_clean_linker_0, # of connection points: 2
#     Edge 129, Type (0, 0), BuildingBlock: UVAHIK_clean_linker_0, # of connection points: 2
#     Edge 130, Type (0, 0), BuildingBlock: UVAHIK_clean_linker_0, # of connection points: 2
#     Edge 131, Type (0, 0), BuildingBlock: UVAHIK_clean_linker_0, # of connection points: 2
#     Edge 132, Type (0, 0), BuildingBlock: UVAHIK_clean_linker_0, # of connection points: 2
#     Edge 133, Type (0, 0), BuildingBlock: UVAHIK_clean_linker_0, # of connection points: 2
#     Edge 134, Type (0, 0), BuildingBlock: UVAHIK_clean_linker_0, # of connection points: 2
#     Edge 135, Type (0, 0), BuildingBlock: UVAHIK_clean_linker_0, # of connection points: 2
#     Edge 136, Type (0, 0), BuildingBlock: UVAHIK_clean_linker_0, # of connection points: 2
#     Edge 137, Type (0, 0), BuildingBlock: UVAHIK_clean_linker_0, # of connection points: 2
#     Edge 138, Type (0, 0), BuildingBlock: UVAHIK_clean_linker_0, # of connection points: 2
#     Edge 139, Type (0, 0), BuildingBlock: UVAHIK_clean_linker_0, # of connection points: 2
#     Edge 140, Type (0, 0), BuildingBlock: UVAHIK_clean_linker_0, # of connection points: 2
#     Edge 141, Type (0, 0), BuildingBlock: UVAHIK_clean_linker_0, # of connection points: 2
#     Edge 142, Type (0, 0), BuildingBlock: UVAHIK_clean_linker_0, # of connection points: 2
#     Edge 143, Type (0, 0), BuildingBlock: UVAHIK_clean_linker_0, # of connection points: 2
# Relax obj value: 0.312
# Max RMSD: 0.250
# Mean RMSD: 0.250
data_MOF--net-uky--node1-CEKHIL_clean_sbu_0--edge1-UVAHIK_clean_linker_0
_symmetry_space_group_name_H-M    P1
_symmetry_Int_Tables_number       1
_symmetry_cell_setting            triclinic
loop_
_symmetry_equiv_pos_as_xyz
'x, y, z'
_cell_length_a     78.182502
_cell_length_b     78.234598
_cell_length_c     78.124181
_cell_angle_alpha  89.977909
_cell_angle_beta   90.011058
_cell_angle_gamma 90.030694
loop_
_atom_site_label
_atom_site_type_symbol
_atom_site_fract_x
_atom_site_fract_y
_atom_site_fract_z
_atom_type_partial_charge
Co0 Co 0.22529 0.18228 0.37016 0.0
O1 O 0.20382 0.18059 0.38167 0.0
O2 O 0.21781 0.15863 0.37051 0.0
C3 C 0.21736 0.20445 0.3536 0.0
O4 O 0.24738 0.17948 0.35653 0.0
Co5 Co 0.24719 0.21494 0.37399 0.0
O6 O 0.26136 0.20463 0.35582 0.0
C7 C 0.24474 0.19067 0.4027 0.0
C8 C 0.20424 0.1644 0.37824 0.0
C9 C 0.25963 0.18912 0.35118 0.0
O10 O 0.23741 0.17974 0.39281 0.0
O11 O 0.24849 0.20588 0.39795 0.0
O12 O 0.21371 0.18889 0.3492 0.0
O13 O 0.22465 0.20623 0.36837 0.0
Co14 Co 0.04882 0.97111 0.62508 0.0
O15 O 0.05193 0.94973 0.63672 0.0
O16 O 0.07241 0.96418 0.62336 0.0
C17 C 0.02533 0.96343 0.61028 0.0
O18 O 0.05041 0.99281 0.61084 0.0
Co19 Co 0.01658 0.99333 0.63106 0.0
O20 O 0.02507 0.0064 0.61115 0.0
C21 C 0.04371 0.99241 0.65731 0.0
C22 C 0.06774 0.95057 0.6317 0.0
C23 C 0.04023 0.00457 0.6055 0.0
O24 O 0.05338 0.98379 0.64715 0.0
O25 O 0.02826 -0.00356 0.65366 0.0
O26 O 0.04047 0.95925 0.60493 0.0
O27 O 0.02472 0.97064 0.62518 0.0
Co28 Co 0.26113 0.78626 0.86873 0.0
O29 O 0.28282 0.78367 0.87974 0.0
O30 O 0.27421 0.80706 0.86618 0.0
C31 C 0.2621 0.76102 0.85491 0.0
O32 O 0.24019 0.79338 0.8551 0.0
Co33 Co 0.23134 0.76194 0.87682 0.0
O34 O 0.21963 0.77348 0.85759 0.0
C35 C 0.24109 0.78804 0.90203 0.0
C36 C 0.28617 0.79907 0.87455 0.0
C37 C 0.2255 0.7872 0.85107 0.0
O38 O 0.25101 0.79482 0.89081 0.0
O39 O 0.23302 0.77405 0.89942 0.0
O40 O 0.26965 0.77445 0.84873 0.0
O41 O 0.25522 0.76284 0.86989 0.0
Co42 Co 0.43419 0.0178 0.12124 0.0
O43 O 0.42707 0.03894 0.13143 0.0
O44 O 0.41 0.021 0.11752 0.0
C45 C 0.4574 0.0284 0.10787 0.0
O46 O 0.43683 -0.0046 0.10827 0.0
Co47 Co 0.46874 0.0007 0.13016 0.0
O48 O 0.46458 0.98801 0.10861 0.0
C49 C 0.44012 -0.00083 0.15484 0.0
C50 C 0.41195 0.03545 0.1255 0.0
C51 C 0.44948 0.98652 0.10266 0.0
O52 O 0.42998 0.00568 0.14362 0.0
O53 O 0.45616 -0.00293 0.15227 0.0
O54 O 0.44231 0.02994 0.1011 0.0
O55 O 0.45783 0.02182 0.12307 0.0
Co56 Co 0.22766 0.7967 0.1111 0.0
O57 O 0.20575 0.79902 0.1005 0.0
O58 O 0.21894 0.81956 0.11498 0.0
C59 C 0.22173 0.77154 0.1238 0.0
O60 O 0.25001 0.79856 0.12451 0.0
Co61 Co 0.25133 0.76685 0.10094 0.0
O62 O 0.26581 0.77496 0.11996 0.0
C63 C 0.24617 0.79541 0.07701 0.0
C64 C 0.20557 0.81447 0.10646 0.0
C65 C 0.26319 0.78915 0.12749 0.0
O66 O 0.23874 0.80396 0.08894 0.0
O67 O 0.251 0.7799 0.07887 0.0
O68 O 0.21727 0.78588 0.13085 0.0
O69 O 0.22851 0.77274 0.10873 0.0
Co70 Co 0.44179 0.97154 0.36472 0.0
O71 O 0.44095 0.94948 0.35416 0.0
O72 O 0.41958 0.96149 0.36842 0.0
C73 C 0.46727 0.96743 0.37749 0.0
O74 O 0.43801 0.99326 0.37841 0.0
Co75 Co 0.46949 -0.00189 0.35594 0.0
O76 O 0.46084 0.01054 0.3762 0.0
C77 C 0.44177 0.9913 0.33131 0.0
C78 C 0.42556 0.94828 0.3603 0.0
C79 C 0.44655 0.00654 0.38292 0.0
O80 O 0.43392 0.98237 0.34268 0.0
O81 O 0.45664 -0.00227 0.33372 0.0
O82 O 0.45328 0.96175 0.3844 0.0
O83 O 0.46565 0.97443 0.36255 0.0
Co84 Co 0.26747 0.1926 0.61811 0.0
O85 O 0.29068 0.19473 0.6105 0.0
O86 O 0.27846 0.17054 0.61884 0.0
C87 C 0.26832 0.21512 0.63599 0.0
O88 O 0.2445 0.18548 0.62797 0.0
Co89 Co 0.2407 0.22069 0.61105 0.0
O90 O 0.22659 0.20792 0.62773 0.0
C91 C 0.25124 0.19784 0.58305 0.0
C92 C 0.29215 0.17853 0.61382 0.0
C93 C 0.23037 0.19274 0.6322 0.0
O94 O 0.25967 0.18866 0.59381 0.0
O95 O 0.24373 0.21177 0.5872 0.0
O96 O 0.27416 0.20033 0.6407 0.0
O97 O 0.2634 0.21627 0.62019 0.0
Co98 Co 0.04832 0.01667 0.87005 0.0
O99 O 0.04731 0.03921 0.86056 0.0
O100 O 0.07008 0.02803 0.87319 0.0
C101 C 0.02325 0.01877 0.88413 0.0
O102 O 0.05392 -0.0056 0.8824 0.0
Co103 Co 0.02115 0.98924 0.86133 0.0
O104 O 0.03177 0.9762 0.88015 0.0
C105 C 0.04772 -0.00187 0.83593 0.0
C106 C 0.06286 0.04118 0.86602 0.0
C107 C 0.04625 0.98037 0.88633 0.0
O108 O 0.05565 0.0073 0.84708 0.0
O109 O 0.03332 0.99092 0.83886 0.0
O110 O 0.03721 0.02488 0.89073 0.0
O111 O 0.02462 0.01259 0.86885 0.0
Co112 Co 0.37264 0.2092 0.1818 0.0
O113 O 0.38286 0.18892 0.17264 0.0
O114 O 0.36767 0.20762 0.15762 0.0
C115 C 0.3607 0.19647 0.20473 0.0
O116 O 0.35939 0.23106 0.18695 0.0
Co117 Co 0.38354 0.22343 0.21722 0.0
O118 O 0.36368 0.23877 0.21436 0.0
C119 C 0.40623 0.22804 0.18737 0.0
C120 C 0.37601 0.19326 0.15815 0.0
C121 C 0.35615 0.24055 0.20002 0.0
O122 O 0.39457 0.22213 0.17735 0.0
O123 O 0.40467 0.22861 0.20367 0.0
O124 O 0.35322 0.19597 0.18991 0.0
O125 O 0.37576 0.20334 0.20496 0.0
Co126 Co 0.01751 0.11879 0.43416 0.0
O127 O 0.03995 0.12802 0.43119 0.0
O128 O 0.02342 0.1186 0.41007 0.0
C129 C 0.02458 0.10154 0.45607 0.0
O130 O -0.00609 0.10774 0.43266 0.0
Co131 Co -0.002 0.12515 0.46812 0.0
O132 O 0.98048 0.10996 0.45808 0.0
C133 C 0.00539 0.15352 0.44458 0.0
C134 C 0.03791 0.12516 0.41498 0.0
C135 C 0.9812 0.10466 0.44268 0.0
O136 O 0.00798 0.1427 0.43244 0.0
O137 O 0.00296 0.14898 0.46013 0.0
O138 O 0.02713 0.09665 0.44039 0.0
O139 O 0.01907 0.11698 0.45794 0.0
Co140 Co 0.11503 0.77177 0.6862 0.0
O141 O 0.10064 0.78998 0.67847 0.0
O142 O 0.11642 0.77356 0.66155 0.0
C143 C 0.12761 0.78687 0.70721 0.0
O144 O 0.13208 0.75235 0.68969 0.0
Co145 Co 0.11145 0.75713 0.72291 0.0
O146 O 0.13387 0.74659 0.71781 0.0
C147 C 0.08549 0.74892 0.69664 0.0
C148 C 0.10615 0.78652 0.66321 0.0
C149 C 0.1393 0.74494 0.70252 0.0
O150 O 0.095 0.75556 0.68494 0.0
O151 O 0.08929 0.74935 0.71258 0.0
O152 O 0.13307 0.78807 0.69157 0.0
O153 O 0.11402 0.77772 0.7094 0.0
Co154 Co 0.46683 0.86086 0.93992 0.0
O155 O 0.44988 0.84401 0.93494 0.0
O156 O 0.46273 0.8603 0.91551 0.0
C157 C 0.45279 0.87327 0.96172 0.0
O158 O 0.48436 0.88006 0.9405 0.0
Co159 Co 0.48548 0.86082 0.97497 0.0
O160 O 0.49191 0.88431 0.96794 0.0
C161 C 0.49352 0.83439 0.94926 0.0
C162 C 0.45153 0.84852 0.91904 0.0
C163 C 0.49152 0.88901 0.95232 0.0
O164 O 0.48505 0.84282 0.93795 0.0
O165 O 0.49421 0.83881 0.96504 0.0
O166 O 0.44921 0.87733 0.946 0.0
O167 O 0.46343 0.86077 0.96364 0.0
Co168 Co 0.3722 0.76717 0.30417 0.0
O169 O 0.38508 0.78732 0.30934 0.0
O170 O 0.36864 0.77328 0.32782 0.0
C171 C 0.36081 0.77679 0.27953 0.0
O172 O 0.3564 0.74659 0.30344 0.0
Co173 Co 0.38002 0.74551 0.27195 0.0
O174 O 0.35878 0.73322 0.27808 0.0
C175 C 0.40361 0.74451 0.30133 0.0
C176 C 0.37877 0.78608 0.32466 0.0
C177 C 0.35162 0.73523 0.29257 0.0
O178 O 0.3927 0.75283 0.31042 0.0
O179 O 0.40144 0.74134 0.28541 0.0
O180 O 0.35402 0.78087 0.29414 0.0
O181 O 0.37502 0.76835 0.28033 0.0
Co182 Co 0.46598 0.12321 0.55008 0.0
O183 O 0.44483 0.13218 0.55835 0.0
O184 O 0.46578 0.12222 0.57484 0.0
C185 C 0.45447 0.10661 0.52965 0.0
O186 O 0.48926 0.11227 0.5459 0.0
Co187 Co 0.47767 0.13085 0.51288 0.0
O188 O 0.49645 0.11473 0.51808 0.0
C189 C 0.47545 0.15836 0.53841 0.0
C190 C 0.45062 0.12895 0.57356 0.0
C191 C 0.49918 0.10908 0.53313 0.0
O192 O 0.47566 0.1471 0.55042 0.0
O193 O 0.47452 0.15437 0.52255 0.0
O194 O 0.45521 0.10119 0.54537 0.0
O195 O 0.45934 0.12219 0.52719 0.0
Co196 Co 0.11881 0.21622 0.79683 0.0
O197 O 0.10707 0.19586 0.80363 0.0
O198 O 0.11964 0.21406 0.82148 0.0
C199 C 0.1338 0.20381 0.77563 0.0
O200 O 0.13265 0.23817 0.79449 0.0
Co201 Co 0.11373 0.23153 0.76058 0.0
O202 O 0.13158 0.24807 0.76746 0.0
C203 C 0.08572 0.23237 0.78586 0.0
C204 C 0.11108 0.19998 0.8192 0.0
C205 C 0.1371 0.24886 0.78278 0.0
O206 O 0.09643 0.229 0.79791 0.0
O207 O 0.0899 0.23233 0.77001 0.0
O208 O 0.13922 0.20297 0.79134 0.0
O209 O 0.11913 0.21106 0.77347 0.0
Co210 Co 0.02202 0.86542 0.0506 0.0
O211 O 0.0394 0.84867 0.05462 0.0
O212 O 0.02659 0.86384 0.07487 0.0
C213 C 0.0361 0.87861 0.02919 0.0
O214 O 0.00419 0.88435 0.05131 0.0
Co215 Co 0.00304 0.86813 0.0159 0.0
O216 O -0.00207 0.89151 0.02418 0.0
C217 C -0.00562 0.84031 0.04022 0.0
C218 C 0.03824 0.85274 0.07068 0.0
C219 C -0.00221 0.89463 0.04017 0.0
O220 O 0.00397 0.84708 0.05178 0.0
O221 O 0.9931 0.84626 0.02499 0.0
O222 O 0.0395 0.88231 0.04503 0.0
O223 O 0.02519 0.86641 0.02684 0.0
Co224 Co 0.19219 0.37173 0.22191 0.0
O225 O 0.18976 0.38488 0.20143 0.0
O226 O 0.1685 0.37158 0.21474 0.0
C227 C 0.21522 0.35677 0.21322 0.0
O228 O 0.19009 0.35635 0.24281 0.0
Co229 Co 0.225 0.37542 0.24419 0.0
O230 O 0.21528 0.35583 0.25682 0.0
C231 C 0.19879 0.40252 0.24466 0.0
C232 C 0.17368 0.38079 0.20187 0.0
C233 C 0.19997 0.35066 0.25469 0.0
O234 O 0.18851 0.39304 0.23598 0.0
O235 O 0.21423 0.39827 0.24806 0.0
O236 O 0.19995 0.35211 0.20865 0.0
O237 O 0.21616 0.37106 0.22147 0.0
Co238 Co 0.69042 0.11616 0.77201 0.0
O239 O 0.68403 0.10619 0.79348 0.0
O240 O 0.66607 0.11892 0.77556 0.0
C241 C 0.71301 0.13073 0.78237 0.0
O242 O 0.69256 0.12858 0.7491 0.0
Co243 Co 0.72572 0.10784 0.75567 0.0
O244 O 0.71939 0.12571 0.739 0.0
C245 C 0.69791 0.08227 0.75451 0.0
C246 C 0.66865 0.11145 0.79022 0.0
C247 C 0.70437 0.13192 0.73808 0.0
O248 O 0.68717 0.09327 0.76044 0.0
O249 O 0.71392 0.08531 0.75291 0.0
O250 O 0.69768 0.13691 0.78368 0.0
O251 O 0.71408 0.11547 0.77613 0.0
Co252 Co 0.12131 0.44124 0.01392 0.0
O253 O 0.13066 0.44085 0.03652 0.0
O254 O 0.11856 0.41864 0.0236 0.0
C255 C 0.10691 0.4659 0.01756 0.0
O256 O 0.1096 0.43709 0.99102 0.0
Co257 Co 0.13059 0.47028 0.98873 0.0
O258 O 0.11353 0.45951 0.97345 0.0
C259 C 0.15651 0.4458 0.00054 0.0
C260 C 0.12598 0.42495 0.0371 0.0
C261 C 0.10683 0.44506 0.97688 0.0
O262 O 0.14459 0.43525 0.00461 0.0
O263 O 0.15354 0.46117 -0.00419 0.0
O264 O 0.10029 0.45149 0.02254 0.0
O265 O 0.12227 0.46504 0.01155 0.0
Co266 Co 0.79445 0.86964 0.26401 0.0
O267 O 0.79344 0.87844 0.28687 0.0
O268 O 0.81599 0.86559 0.27557 0.0
C269 C 0.76907 0.85606 0.26535 0.0
O270 O 0.79983 0.85789 0.24135 0.0
Co271 Co 0.76785 0.88041 0.23678 0.0
O272 O 0.7778 0.86159 0.22323 0.0
C273 C 0.79561 0.90421 0.24609 0.0
C274 C 0.8088 0.87252 0.28888 0.0
C275 C 0.79203 0.85473 0.22718 0.0
O276 O 0.80266 0.89254 0.25531 0.0
O277 O 0.78117 0.90221 0.23863 0.0
O278 O 0.78281 0.84906 0.27147 0.0
O279 O 0.77076 0.87156 0.25978 0.0
Co280 Co 0.86236 0.04739 0.02276 0.0
O281 O 0.85376 0.0563 0.04382 0.0
O282 O 0.86155 0.07215 0.02152 0.0
C283 C 0.88117 0.02926 0.03463 0.0
O284 O 0.87262 0.04246 -0.00072 0.0
Co285 Co 0.85712 0.00909 0.01412 0.0
O286 O 0.87256 0.01404 -0.00533 0.0
C287 C 0.8278 0.03262 0.01342 0.0
C288 C 0.85577 0.07132 0.03712 0.0
C289 C 0.87673 0.0292 0.99041 0.0
O290 O 0.83813 0.04542 0.014 0.0
O291 O 0.8328 0.01711 0.0149 0.0
O292 O 0.88517 0.04523 0.03247 0.0
O293 O 0.86557 0.02514 0.03103 0.0
Co294 Co 0.30476 0.6164 0.70884 0.0
O295 O 0.31556 0.61261 0.68723 0.0
O296 O 0.32924 0.6197 0.71113 0.0
C297 C 0.28379 0.63347 0.69892 0.0
O298 O 0.29749 0.62217 0.73321 0.0
Co299 Co 0.26758 0.6036 0.7147 0.0
O300 O 0.26928 0.61707 0.73613 0.0
C301 C 0.29591 0.57902 0.71206 0.0
C302 C 0.32981 0.61635 0.69483 0.0
C303 C 0.28341 0.62297 0.74176 0.0
O304 O 0.30677 0.59119 0.71423 0.0
O305 O 0.27987 0.58159 0.71002 0.0
O306 O 0.29886 0.63967 0.70213 0.0
O307 O 0.28244 0.61705 0.70016 0.0
Co308 Co 0.12178 0.5489 0.46281 0.0
O309 O 0.13327 0.55474 0.44193 0.0
O310 O 0.12073 0.57334 0.4593 0.0
C311 C 0.10633 0.52711 0.45201 0.0
O312 O 0.10795 0.54752 0.48491 0.0
Co313 Co 0.12661 0.51312 0.47963 0.0
O314 O 0.10625 0.51999 0.49297 0.0
C315 C 0.15382 0.5393 0.48269 0.0
C316 C 0.12887 0.57041 0.44509 0.0
C317 C 0.10161 0.53554 0.49429 0.0
O318 O 0.14416 0.55072 0.47574 0.0
O319 O 0.14947 0.52359 0.48422 0.0
O320 O 0.10115 0.54276 0.45009 0.0
O321 O 0.12126 0.52532 0.45882 0.0
Co322 Co 0.36535 0.44287 0.96845 0.0
O323 O 0.35385 0.43416 0.94854 0.0
O324 O 0.37136 0.41917 0.96511 0.0
C325 C 0.37482 0.46719 0.9562 0.0
O326 O 0.38025 0.4475 0.98941 0.0
Co327 Co 0.35497 0.47701 0.98592 0.0
O328 O 0.37784 0.47521 -0.00344 0.0
C329 C 0.33399 0.44586 0.99116 0.0
C330 C 0.36179 0.41989 0.95152 0.0
C331 C 0.38533 0.46081 -0.0023 0.0
O332 O 0.34492 0.43662 0.98301 0.0
O333 O 0.33537 0.46208 0.99286 0.0
O334 O 0.38302 0.45293 0.954 0.0
O335 O 0.36054 0.46603 0.96444 0.0
Co336 Co 0.70804 0.69344 0.87569 0.0
O337 O 0.68625 0.68595 0.88418 0.0
O338 O 0.70449 0.66986 0.8695 0.0
C339 C 0.69888 0.71816 0.86418 0.0
O340 O 0.73111 0.69661 0.8641 0.0
Co341 Co 0.72574 0.72637 0.88891 0.0
O342 O 0.74201 0.72256 0.86991 0.0
C343 C 0.72512 0.69543 0.91056 0.0
C344 C 0.68979 0.67136 0.87708 0.0
C345 C 0.74238 0.70839 0.8619 0.0
O346 O 0.71891 0.68665 0.8981 0.0
O347 O 0.72774 0.71157 0.90977 0.0
O348 O 0.69708 0.70386 0.85596 0.0
O349 O 0.70472 0.71693 0.87964 0.0
Co350 Co 0.55373 0.46585 0.12551 0.0
O351 O 0.55853 0.44371 0.13494 0.0
O352 O 0.57772 0.46078 0.1228 0.0
C353 C 0.53051 0.45825 0.11028 0.0
O354 O 0.55356 0.48889 0.11345 0.0
Co355 Co 0.5202 0.48519 0.13409 0.0
O356 O 0.52727 0.50043 0.11515 0.0
C357 C 0.54786 0.48365 0.15973 0.0
C358 C 0.57417 0.44617 0.12988 0.0
C359 C 0.54243 0.50023 0.1092 0.0
O360 O 0.55785 0.47663 0.14867 0.0
O361 O 0.53212 0.48701 0.15671 0.0
O362 O 0.54578 0.45549 0.10438 0.0
O363 O 0.52973 0.46382 0.12586 0.0
Co364 Co 0.76809 0.29909 0.37188 0.0
O365 O 0.79124 0.29845 0.37954 0.0
O366 O 0.77873 0.32128 0.36841 0.0
C367 C 0.76994 0.27457 0.35688 0.0
O368 O 0.74456 0.30394 0.3616 0.0
Co369 Co 0.74314 0.27073 0.38315 0.0
O370 O 0.72747 0.28125 0.3664 0.0
C371 C 0.75317 0.29728 0.40782 0.0
C372 C 0.79251 0.31417 0.3745 0.0
C373 C 0.73041 0.29574 0.35956 0.0
O374 O 0.76056 0.30565 0.39572 0.0
O375 O 0.74649 0.28251 0.40565 0.0
O376 O 0.77479 0.28898 0.35026 0.0
O377 O 0.76526 0.27516 0.37277 0.0
Co378 Co 0.93706 0.52641 0.61924 0.0
O379 O 0.92811 0.54709 0.62877 0.0
O380 O 0.91259 0.52703 0.61589 0.0
C381 C 0.959 0.53861 0.60517 0.0
O382 O 0.94169 0.50381 0.60729 0.0
Co383 Co 0.97326 0.51315 0.62835 0.0
O384 O 0.96974 0.49777 0.60851 0.0
C385 C 0.94516 0.50981 0.65343 0.0
C386 C 0.91328 0.54176 0.62354 0.0
C387 C 0.95476 0.49494 0.60273 0.0
O388 O 0.93432 0.51492 0.64215 0.0
O389 O 0.96131 0.50914 0.65073 0.0
O390 O 0.94379 0.5384 0.59847 0.0
O391 O 0.96017 0.53275 0.62061 0.0
Co392 Co 0.72053 0.29734 0.61284 0.0
O393 O 0.70077 0.30145 0.59904 0.0
O394 O 0.71301 0.32067 0.61594 0.0
C395 C 0.71113 0.27255 0.62402 0.0
O396 O 0.74043 0.29737 0.62969 0.0
Co397 Co 0.7436 0.26585 0.60647 0.0
O398 O 0.75108 0.27071 0.6302 0.0
C399 C 0.74513 0.29523 0.58277 0.0
C400 C 0.70058 0.31667 0.60561 0.0
C401 C 0.7495 0.28556 0.63669 0.0
O402 O 0.73569 0.30397 0.59304 0.0
O403 O 0.74887 0.2795 0.58534 0.0
O404 O 0.70628 0.28706 0.6304 0.0
O405 O 0.72029 0.27345 0.61024 0.0
Co406 Co 0.94074 0.46183 0.86157 0.0
O407 O 0.93045 0.44223 0.85109 0.0
O408 O 0.91656 0.46147 0.86666 0.0
C409 C 0.96304 0.44786 0.87319 0.0
O410 O 0.94713 0.48314 0.87513 0.0
Co411 Co 0.97673 0.47448 0.85058 0.0
O412 O 0.97482 0.48968 0.87069 0.0
C413 C 0.94703 0.48059 0.8281 0.0
C414 C 0.91625 0.44725 0.85807 0.0
C415 C 0.96067 0.49194 0.87842 0.0
O416 O 0.93684 0.47525 0.83987 0.0
O417 O 0.96334 0.48028 0.82949 0.0
O418 O 0.94826 0.44791 0.88073 0.0
O419 O 0.96352 0.4549 0.8582 0.0
Co420 Co 0.77204 0.68507 0.11518 0.0
O421 O 0.79189 0.67822 0.10265 0.0
O422 O 0.77581 0.6608 0.11829 0.0
C423 C 0.78424 0.70808 0.12745 0.0
O424 O 0.75099 0.68788 0.13037 0.0
Co425 Co 0.75474 0.71987 0.10748 0.0
O426 O 0.74245 0.71528 0.12912 0.0
C427 C 0.75032 0.69107 0.08347 0.0
C428 C 0.78921 0.66301 0.10867 0.0
C429 C 0.74166 0.70038 0.13566 0.0
O430 O 0.75761 0.68096 0.09421 0.0
O431 O 0.74892 0.7072 0.08591 0.0
O432 O 0.78631 0.69296 0.13395 0.0
O433 O 0.77612 0.70865 0.11303 0.0
Co434 Co 0.54217 0.52537 0.3681 0.0
O435 O 0.54682 0.54764 0.35875 0.0
O436 O 0.56536 0.53186 0.37334 0.0
C437 C 0.51688 0.53195 0.38022 0.0
O438 O 0.54216 0.50253 0.38054 0.0
Co439 Co 0.51111 0.50349 0.3567 0.0
O440 O 0.51735 0.48867 0.37624 0.0
C441 C 0.54121 0.5065 0.33404 0.0
C442 C 0.56192 0.5461 0.36553 0.0
C443 C 0.53179 0.49014 0.38365 0.0
O444 O 0.54951 0.51447 0.34583 0.0
O445 O 0.52552 0.50206 0.33554 0.0
O446 O 0.53115 0.53573 0.38785 0.0
O447 O 0.51829 0.52577 0.36493 0.0
Co448 Co 0.87455 0.71014 0.69935 0.0
O449 O 0.88315 0.68816 0.69273 0.0
O450 O 0.87055 0.70668 0.67527 0.0
C451 C 0.86061 0.70126 0.72289 0.0
O452 O 0.86305 0.73338 0.70145 0.0
Co453 Co 0.88471 0.7277 0.73342 0.0
O454 O 0.86375 0.74126 0.72905 0.0
C455 C 0.90963 0.72569 0.70506 0.0
C456 C 0.87737 0.69171 0.67754 0.0
C457 C 0.8577 0.74262 0.71397 0.0
O458 O 0.89777 0.7205 0.69486 0.0
O459 O 0.90718 0.72821 0.72107 0.0
O460 O 0.8537 0.69957 0.70786 0.0
O461 O 0.8762 0.70681 0.72306 0.0
Co462 Co 0.52017 0.62253 0.94185 0.0
O463 O 0.54229 0.6303 0.93468 0.0
O464 O 0.5221 0.62027 0.91734 0.0
C465 C 0.52947 0.60643 0.96378 0.0
O466 O 0.49627 0.61255 0.94445 0.0
Co467 Co 0.5054 0.63146 0.97757 0.0
O468 O 0.48666 0.6156 0.97141 0.0
C469 C 0.51049 0.65824 0.95152 0.0
C470 C 0.53747 0.62626 0.91929 0.0
C471 C 0.48513 0.60979 0.95625 0.0
O472 O 0.51143 0.64671 0.93981 0.0
O473 O 0.5097 0.65463 0.96748 0.0
O474 O 0.52971 0.60043 0.94827 0.0
O475 O 0.52491 0.62222 0.96533 0.0
Co476 Co 0.61365 0.27268 0.19148 0.0
O477 O 0.60468 0.2936 0.18244 0.0
O478 O 0.61944 0.27449 0.16749 0.0
C479 C 0.62537 0.28419 0.21516 0.0
O480 O 0.62563 0.25011 0.19653 0.0
Co481 Co 0.60087 0.25792 0.22595 0.0
O482 O 0.62033 0.24194 0.22361 0.0
C483 C 0.57895 0.25555 0.19531 0.0
C484 C 0.61158 0.28912 0.16802 0.0
C485 C 0.62821 0.2402 0.20945 0.0
O486 O 0.59133 0.26098 0.18593 0.0
O487 O 0.57985 0.25443 0.21163 0.0
O488 O 0.63338 0.28471 0.20061 0.0
O489 O 0.60998 0.27809 0.21467 0.0
Co490 Co 0.96559 0.3608 0.44566 0.0
O491 O 0.94666 0.34774 0.43718 0.0
O492 O 0.96403 0.36354 0.42117 0.0
C493 C 0.9518 0.37321 0.46762 0.0
O494 O 0.98581 0.37663 0.44983 0.0
Co495 Co 0.98066 0.35455 0.4819 0.0
O496 O 0.99159 0.37709 0.478 0.0
C497 C 0.98758 0.32992 0.45407 0.0
C498 C 0.9507 0.35366 0.42218 0.0
C499 C 0.99333 0.38315 0.46296 0.0
O500 O 0.98089 0.34022 0.44311 0.0
O501 O 0.98766 0.33282 0.47021 0.0
O502 O 0.95033 0.3793 0.45222 0.0
O503 O 0.96 0.35892 0.46891 0.0
Co504 Co 0.8737 0.27281 0.80258 0.0
O505 O 0.88451 0.29403 0.80839 0.0
O506 O 0.87389 0.27551 0.82713 0.0
C507 C 0.8565 0.28358 0.78215 0.0
O508 O 0.86082 0.25024 0.80156 0.0
Co509 Co 0.8772 0.25692 0.76638 0.0
O510 O 0.85944 0.24078 0.77442 0.0
C511 C 0.90635 0.25575 0.79044 0.0
C512 C 0.88101 0.29023 0.82418 0.0
C513 C 0.8553 0.23976 0.79015 0.0
O514 O 0.8967 0.26102 0.80272 0.0
O515 O 0.90124 0.25466 0.7749 0.0
O516 O 0.85227 0.28466 0.79818 0.0
O517 O 0.87152 0.2774 0.77909 0.0
Co518 Co 0.97368 0.62628 0.0423 0.0
O519 O 0.95009 0.63262 0.04401 0.0
O520 O 0.96659 0.62543 0.066 0.0
C521 C 0.97059 0.60804 0.02034 0.0
O522 O -0.00175 0.61809 0.04518 0.0
Co523 Co -0.00584 0.63531 0.00947 0.0
O524 O 0.01232 0.62134 0.02021 0.0
C525 C 0.98157 0.66224 0.03226 0.0
C526 C 0.95163 0.63004 0.06034 0.0
C527 C 0.01148 0.61595 0.03559 0.0
O528 O 0.98015 0.65118 0.04435 0.0
O529 O 0.98522 0.65814 0.01683 0.0
O530 O 0.96732 0.60309 0.03587 0.0
O531 O 0.97393 0.62411 0.01848 0.0
Co532 Co 0.6143 0.71411 0.30031 0.0
O533 O 0.60764 0.69296 0.3106 0.0
O534 O 0.61884 0.71498 0.32467 0.0
C535 C 0.62873 0.7027 0.27821 0.0
O536 O 0.62345 0.73762 0.29369 0.0
Co537 Co 0.60102 0.72384 0.26419 0.0
O538 O 0.61819 0.74236 0.26576 0.0
C539 C 0.57778 0.72593 0.29377 0.0
C540 C 0.61288 0.69947 0.32494 0.0
C541 C 0.62524 0.74646 0.27988 0.0
O542 O 0.59041 0.72309 0.30392 0.0
O543 O 0.57913 0.72569 0.27744 0.0
O544 O 0.63593 0.70427 0.29311 0.0
O545 O 0.61262 0.70644 0.27758 0.0
Co546 Co 0.51904 0.36316 0.54566 0.0
O547 O 0.53755 0.34797 0.55084 0.0
O548 O 0.52372 0.36384 0.56989 0.0
C549 C 0.53159 0.37577 0.52305 0.0
O550 O 0.50003 0.38086 0.54514 0.0
Co551 Co 0.49931 0.36134 0.51128 0.0
O552 O 0.49201 0.38472 0.5178 0.0
C553 C 0.49354 0.33502 0.53787 0.0
C554 C 0.53597 0.35312 0.56656 0.0
C555 C 0.49229 0.3894 0.53341 0.0
O556 O 0.50231 0.34382 0.54867 0.0
O557 O 0.49181 0.3393 0.52213 0.0
O558 O 0.53521 0.38069 0.5385 0.0
O559 O 0.52171 0.36257 0.52184 0.0
Co560 Co 0.69079 0.87014 0.71393 0.0
O561 O 0.68533 0.87849 0.69153 0.0
O562 O 0.66629 0.8692 0.71047 0.0
C563 C 0.71223 0.85275 0.70576 0.0
O564 O 0.69176 0.8599 0.73791 0.0
Co565 Co 0.72648 0.87737 0.72993 0.0
O566 O 0.71856 0.86188 0.74833 0.0
C567 C 0.70112 0.90513 0.72717 0.0
C568 C 0.6695 0.87522 0.69529 0.0
C569 C 0.70311 0.8568 0.74946 0.0
O570 O 0.68941 0.89424 0.72318 0.0
O571 O 0.71689 0.90106 0.72881 0.0
O572 O 0.69644 0.84771 0.70461 0.0
O573 O 0.7144 0.8685 0.71022 0.0
Co574 Co 0.18272 0.61789 0.2639 0.0
O575 O 0.17801 0.61045 0.2867 0.0
O576 O 0.15822 0.61831 0.26789 0.0
C577 C 0.20378 0.63598 0.27139 0.0
O578 O 0.18333 0.62703 0.2394 0.0
Co579 Co 0.21854 0.61041 0.24827 0.0
O580 O 0.20996 0.62391 0.22872 0.0
C581 C 0.19452 0.58256 0.2559 0.0
C582 C 0.16203 0.61308 0.28325 0.0
C583 C 0.19457 0.62912 0.2275 0.0
O584 O 0.18205 0.59329 0.25617 0.0
O585 O 0.21019 0.58714 0.25482 0.0
O586 O 0.18792 0.64084 0.27222 0.0
O587 O 0.20621 0.62018 0.26737 0.0
Co588 Co 0.62438 0.94112 0.51795 0.0
O589 O 0.63103 0.93589 0.54097 0.0
O590 O 0.61975 0.91728 0.5227 0.0
C591 C 0.61016 0.96534 0.52407 0.0
O592 O 0.61525 0.94219 0.49352 0.0
Co593 Co 0.63799 0.97399 0.50031 0.0
O594 O 0.62198 0.96761 0.48176 0.0
C595 C 0.66128 0.94576 0.50876 0.0
C596 C 0.62576 0.92048 0.53789 0.0
C597 C 0.61434 0.95322 0.4813 0.0
O598 O 0.64838 0.93566 0.51018 0.0
O599 O 0.65972 0.9619 0.50661 0.0
O600 O 0.60277 0.95058 0.52597 0.0
O601 O 0.62621 0.96489 0.52016 0.0
Co602 Co 0.29833 0.37573 0.78079 0.0
O603 O 0.30865 0.38699 0.79999 0.0
O604 O 0.32229 0.36971 0.78208 0.0
C605 C 0.27513 0.36565 0.79468 0.0
O606 O 0.29173 0.36116 0.76011 0.0
Co607 Co 0.26276 0.38726 0.76697 0.0
O608 O 0.2641 0.36594 0.75353 0.0
C609 C 0.29368 0.40722 0.75827 0.0
C610 C 0.32264 0.37911 0.7958 0.0
C611 C 0.27803 0.35772 0.7516 0.0
O612 O 0.3034 0.39628 0.76583 0.0
O613 O 0.27735 0.4063 0.75814 0.0
O614 O 0.28968 0.35775 0.79571 0.0
O615 O 0.27555 0.38027 0.78696 0.0
Co616 Co 0.36683 0.55335 0.53081 0.0
O617 O 0.35982 0.56324 0.55209 0.0
O618 O 0.3678 0.57803 0.52917 0.0
C619 C 0.38491 0.53412 0.54217 0.0
O620 O 0.37573 0.54752 0.50701 0.0
Co621 Co 0.35942 0.5152 0.52273 0.0
O622 O 0.37465 0.51908 0.50283 0.0
C623 C 0.33131 0.54038 0.52274 0.0
C624 C 0.36289 0.57795 0.54507 0.0
C625 C 0.37915 0.53404 0.4982 0.0
O626 O 0.34217 0.55277 0.52298 0.0
O627 O 0.33567 0.52468 0.52423 0.0
O628 O 0.38986 0.54976 0.53965 0.0
O629 O 0.36896 0.53102 0.53921 0.0
Co630 Co 0.79618 0.11209 0.21879 0.0
O631 O 0.7981 0.10285 0.19623 0.0
O632 O 0.81915 0.11579 0.21008 0.0
C633 C 0.77152 0.12614 0.21404 0.0
O634 O 0.79831 0.12408 0.24189 0.0
Co635 Co 0.76559 0.10109 0.24165 0.0
O636 O 0.77413 0.11929 0.2569 0.0
C637 C 0.7945 0.07747 0.23674 0.0
C638 C 0.81364 0.10862 0.19608 0.0
C639 C 0.78859 0.12655 0.25499 0.0
O640 O 0.80288 0.08924 0.22886 0.0
O641 O 0.77901 0.07931 0.24171 0.0
O642 O 0.78606 0.13273 0.20953 0.0
O643 O 0.77214 0.1106 0.21971 0.0
Co644 Co 0.61754 0.04926 0.96217 0.0
O645 O 0.62957 0.0575 0.94251 0.0
O646 O 0.61817 0.07401 0.96258 0.0
C647 C 0.60073 0.03071 0.94797 0.0
O648 O 0.60357 0.04508 0.98387 0.0
Co649 Co 0.62058 0.01101 0.97265 0.0
O650 O 0.60083 0.01667 0.98743 0.0
C651 C 0.64922 0.03471 0.97946 0.0
C652 C 0.62626 0.07274 0.94809 0.0
C653 C 0.59687 0.03199 0.99134 0.0
O654 O 0.63987 0.04754 0.97508 0.0
O655 O 0.64424 0.01916 0.97819 0.0
O656 O 0.59669 0.04678 0.94873 0.0
O657 O 0.61547 0.02676 0.95429 0.0
Co658 Co 0.86292 0.93921 0.46467 0.0
O659 O 0.84957 0.93073 0.44599 0.0
O660 O 0.86712 0.91496 0.46178 0.0
C661 C 0.87298 0.96248 0.45095 0.0
O662 O 0.87913 0.94394 0.48464 0.0
Co663 Co 0.85415 0.97441 0.48091 0.0
O664 O 0.87709 0.97184 0.4913 0.0
C665 C 0.83243 0.94436 0.48827 0.0
C666 C 0.8564 0.91596 0.44907 0.0
C667 C 0.88443 0.95736 0.49262 0.0
O668 O 0.84319 0.93453 0.48064 0.0
O669 O 0.83398 0.96065 0.48878 0.0
O670 O 0.88027 0.94771 0.44887 0.0
O671 O 0.85907 0.96235 0.45988 0.0
C672 C 0.26188 0.18009 0.55846 0.0
C673 C 0.2504 0.19233 0.56493 0.0
C674 C 0.26177 0.17587 0.54105 0.0
C675 C 0.23544 0.17795 0.50186 0.0
H676 H 0.27881 0.18093 0.47796 0.0
C677 C 0.25909 0.19607 0.4308 0.0
C678 C 0.24816 0.18594 0.42073 0.0
C679 C 0.26073 0.19303 0.44832 0.0
C680 C 0.26663 0.17992 0.48448 0.0
H681 H 0.22941 0.20924 0.55829 0.0
H682 H 0.22921 0.20182 0.52807 0.0
H683 H 0.27818 0.18271 0.50919 0.0
H684 H 0.23097 0.16416 0.42105 0.0
H685 H 0.23377 0.15893 0.45178 0.0
H686 H 0.22381 0.17586 0.47716 0.0
C687 C 0.23826 0.19547 0.53643 0.0
C688 C 0.26628 0.18081 0.50235 0.0
C689 C 0.23848 0.19982 0.55374 0.0
C690 C 0.23949 0.17219 0.42844 0.0
C691 C 0.24101 0.16925 0.44604 0.0
C692 C 0.2358 0.17692 0.48402 0.0
C693 C 0.25005 0.18364 0.52985 0.0
C694 C 0.25063 0.18029 0.51118 0.0
C695 C 0.25139 0.17987 0.4562 0.0
C696 C 0.25136 0.17834 0.47512 0.0
H697 H 0.27123 0.17409 0.56673 0.0
H698 H 0.27094 0.16664 0.53631 0.0
H699 H 0.22321 0.17737 0.50836 0.0
H700 H 0.26602 0.20671 0.42525 0.0
H701 H 0.26869 0.20153 0.45583 0.0
C702 C 0.06404 0.98839 0.68194 0.0
C703 C 0.05018 -0.00289 0.67449 0.0
C704 C 0.06806 0.99084 0.69926 0.0
C705 C 0.04466 0.00023 0.73798 0.0
H706 H 0.08867 0.00157 0.76094 0.0
C707 C 0.06523 0.00939 0.81134 0.0
C708 C 0.05468 -0.00339 0.81839 0.0
C709 C 0.06859 0.00963 0.7937 0.0
C710 C 0.07634 0.00125 0.75462 0.0
H711 H 0.03088 0.01658 0.67884 0.0
H712 H 0.03793 0.02085 0.70884 0.0
H713 H 0.0873 0.00365 0.72945 0.0
H714 H 0.04107 0.97306 0.81288 0.0
H715 H 0.04693 0.97354 0.78233 0.0
H716 H 0.03364 -0.00251 0.76282 0.0
C717 C 0.04544 0.01185 0.70146 0.0
C718 C 0.07556 0.00239 0.73669 0.0
C719 C 0.0414 0.00937 0.68427 0.0
C720 C 0.04895 0.98327 0.8078 0.0
C721 C 0.05231 0.98351 0.79031 0.0
C722 C 0.04546 -0.00112 0.7557 0.0
C723 C 0.05829 0.00208 0.70932 0.0
C724 C 0.05966 0.00187 0.72824 0.0
C725 C 0.06148 -0.00292 0.78299 0.0
C726 C 0.06127 -0.00081 0.76419 0.0
H727 H 0.07113 0.97893 0.67472 0.0
H728 H 0.07802 0.98312 0.70501 0.0
H729 H 0.03225 -0.00048 0.73186 0.0
H730 H 0.06987 0.01981 0.8192 0.0
H731 H 0.07571 0.02022 0.7883 0.0
C732 C 0.22855 0.78966 0.93152 0.0
C733 C 0.23963 0.79635 0.91903 0.0
C734 C 0.22855 0.79622 0.94813 0.0
C735 C 0.25788 0.81643 0.97813 0.0
H736 H 0.2179 0.81591 0.0075 0.0
C737 C 0.23718 0.81653 0.05456 0.0
C738 C 0.2481 0.80327 0.0599 0.0
C739 C 0.23697 0.82174 0.03741 0.0
C740 C 0.22918 0.81652 -0.00053 0.0
H741 H 0.25867 0.81596 0.91401 0.0
H742 H 0.25863 0.82739 0.94306 0.0
H743 H 0.21434 0.81422 0.97654 0.0
H744 H 0.26832 0.78611 0.05181 0.0
H745 H 0.26798 0.79518 0.02209 0.0
H746 H 0.27273 0.81808 0.0011 0.0
C747 C 0.25009 0.81692 0.93999 0.0
C748 C 0.22714 0.81535 0.98174 0.0
C749 C 0.25006 0.81038 0.92333 0.0
C750 C 0.25966 0.79626 0.04807 0.0
C751 C 0.25957 0.80157 0.03104 0.0
C752 C 0.25991 0.81757 -0.00414 0.0
C753 C 0.23963 0.80964 0.95267 0.0
C754 C 0.2415 0.81458 0.97093 0.0
C755 C 0.24783 0.81395 0.02538 0.0
C756 C 0.24562 0.8169 0.00674 0.0
H757 H 0.22027 0.77893 0.92866 0.0
H758 H 0.22048 0.79017 0.95762 0.0
H759 H 0.26921 0.81583 0.9702 0.0
H760 H 0.22812 0.8222 0.06338 0.0
H761 H 0.22788 0.83141 0.03344 0.0
C762 C 0.43997 0.00588 0.30289 0.0
C763 C 0.43392 0.99328 0.31418 0.0
C764 C 0.43445 0.00626 0.28591 0.0
C765 C 0.41662 0.00753 0.25139 0.0
H766 H 0.4235 0.96398 0.2287 0.0
C767 C 0.41806 0.00251 0.17793 0.0
C768 C 0.43328 -0.00502 0.17201 0.0
C769 C 0.41308 0.00063 0.19504 0.0
C770 C 0.42132 0.97619 0.23488 0.0
H771 H 0.41659 0.97174 0.31676 0.0
H772 H 0.40711 0.97231 0.28692 0.0
H773 H 0.42352 0.96533 0.25993 0.0
H774 H 0.4545 0.97854 0.17905 0.0
H775 H 0.44578 0.97523 0.20874 0.0
H776 H 0.41536 0.01853 0.22635 0.0
C777 C 0.41614 0.98187 0.29128 0.0
C778 C 0.42119 0.97695 0.25274 0.0
C779 C 0.42151 0.98161 0.30836 0.0
C780 C 0.44278 0.98463 0.18323 0.0
C781 C 0.43771 0.98261 0.20023 0.0
C782 C 0.41661 0.00675 0.23353 0.0
C783 C 0.42287 -0.00605 0.2798 0.0
C784 C 0.41946 0.99272 0.26117 0.0
C785 C 0.42309 0.991 0.20644 0.0
C786 C 0.41959 0.99116 0.2251 0.0
H787 H 0.44944 0.01512 0.30699 0.0
H788 H 0.43999 0.01563 0.27733 0.0
H789 H 0.41513 0.01984 0.25757 0.0
H790 H 0.41043 0.01054 0.16961 0.0
H791 H 0.40168 0.00714 0.19947 0.0
C792 C 0.55713 0.25948 0.1721 0.0
C793 C 0.56254 0.25107 0.18707 0.0
C794 C 0.54059 0.25687 0.16572 0.0
C795 C 0.50314 0.22824 0.1677 0.0
H796 H 0.47585 0.26962 0.16685 0.0
C797 C 0.43253 0.246 0.18864 0.0
C798 C 0.42271 0.23367 0.18004 0.0
C799 C 0.44923 0.24951 0.18347 0.0
C800 C 0.48335 0.25798 0.16673 0.0
H801 H 0.55534 0.23257 0.20644 0.0
H802 H 0.5267 0.22775 0.19512 0.0
H803 H 0.50702 0.27165 0.16872 0.0
H804 H 0.42232 0.21596 0.1587 0.0
H805 H 0.45188 0.22181 0.14989 0.0
H806 H 0.47945 0.21456 0.16664 0.0
C807 C 0.53515 0.23644 0.18838 0.0
C808 C 0.50117 0.25914 0.1677 0.0
C809 C 0.55149 0.23929 0.19494 0.0
C810 C 0.4296 0.22556 0.16554 0.0
C811 C 0.4465 0.22885 0.16055 0.0
C812 C 0.48534 0.22709 0.1665 0.0
C813 C 0.52938 0.2455 0.17398 0.0
C814 C 0.51116 0.24426 0.16892 0.0
C815 C 0.45659 0.24056 0.16974 0.0
C816 C 0.47525 0.24194 0.16673 0.0
H817 H 0.56536 0.26869 0.16581 0.0
H818 H 0.53641 0.26401 0.1546 0.0
H819 H 0.51058 0.21659 0.16854 0.0
H820 H 0.4275 0.25252 0.19979 0.0
H821 H 0.45674 0.25847 0.19091 0.0
C822 C 0.9923 0.30797 0.43101 0.0
C823 C -0.00526 0.31347 0.44799 0.0
C824 C -0.00273 0.29153 0.42599 0.0
C825 C 0.02212 0.25342 0.44039 0.0
H826 H 0.98628 0.2277 0.41764 0.0
C827 C 0.00867 0.18361 0.45442 0.0
C828 C 0.00618 0.17206 0.44086 0.0
C829 C 0.01019 0.20105 0.4513 0.0
C830 C -0.00342 0.23477 0.42365 0.0
H831 H 0.00525 0.30629 0.4727 0.0
H832 H 0.01358 0.27779 0.4641 0.0
H833 H 0.98434 0.25882 0.4192 0.0
H834 H 0.00325 0.16984 0.41334 0.0
H835 H 0.00535 0.20076 0.40794 0.0
H836 H 0.03368 0.22923 0.44589 0.0
C837 C 0.00802 0.28614 0.45455 0.0
C838 C -0.00449 0.2526 0.42453 0.0
C839 C 0.00306 0.3025 0.45955 0.0
C840 C 0.00512 0.17843 0.42405 0.0
C841 C 0.00635 0.19605 0.42095 0.0
C842 C 0.02309 0.23563 0.43965 0.0
C843 C 0.00484 0.2803 0.43783 0.0
C844 C 0.00791 0.26205 0.43355 0.0
C845 C 0.00906 0.20745 0.43457 0.0
C846 C 0.00998 0.22613 0.43188 0.0
H847 H 0.98601 0.31612 0.42174 0.0
H848 H -0.00518 0.28747 0.41297 0.0
H849 H 0.03209 0.26034 0.44707 0.0
H850 H 0.00967 0.17919 0.46752 0.0
H851 H 0.01199 0.2096 0.46206 0.0
C852 C 0.0616 0.74459 0.67553 0.0
C853 C 0.06873 0.74151 0.69177 0.0
C854 C 0.04467 0.73991 0.67202 0.0
C855 C 0.00767 0.71492 0.68871 0.0
H856 H 0.98064 0.75297 0.67188 0.0
C857 C 0.93975 0.7358 0.70866 0.0
C858 C 0.92724 0.72791 0.69839 0.0
C859 C 0.95679 0.73622 0.70346 0.0
C860 C 0.98809 0.74213 0.67622 0.0
H861 H 0.06405 0.72992 0.7166 0.0
H862 H 0.03471 0.72194 0.71055 0.0
H863 H 0.01188 0.75437 0.67052 0.0
H864 H 0.92283 0.71478 0.6743 0.0
H865 H 0.95294 0.7155 0.6653 0.0
H866 H 0.98374 0.70324 0.69539 0.0
C867 C 0.04213 0.7279 0.70047 0.0
C868 C 0.00594 0.74286 0.67541 0.0
C869 C 0.05896 0.73263 0.70399 0.0
C870 C 0.93212 0.721 0.68248 0.0
C871 C 0.94929 0.72134 0.67733 0.0
C872 C 0.98983 0.71418 0.68945 0.0
C873 C 0.03462 0.73193 0.68463 0.0
C874 C 0.01593 0.72953 0.68222 0.0
C875 C 0.9617 0.72876 0.68794 0.0
C876 C 0.97999 0.72798 0.68365 0.0
H877 H 0.06879 0.75133 0.66578 0.0
H878 H 0.03928 0.743 0.65963 0.0
H879 H 0.01501 0.70439 0.69392 0.0
H880 H 0.93648 0.7413 0.72095 0.0
H881 H 0.96627 0.74196 0.7118 0.0
C882 C 0.49931 0.81142 0.92755 0.0
C883 C 0.5016 0.81804 0.94415 0.0
C884 C 0.5045 0.79477 0.92364 0.0
C885 C 0.52884 0.75742 0.94076 0.0
H886 H 0.49244 0.73092 0.91987 0.0
C887 C 0.51445 0.68885 0.95942 0.0
C888 C 0.51135 0.67653 0.94668 0.0
C889 C 0.51626 0.70602 0.95517 0.0
C890 C 0.50289 0.73817 0.92537 0.0
H891 H 0.51233 0.81274 0.96924 0.0
H892 H 0.52102 0.78382 0.96254 0.0
H893 H 0.49116 0.76207 0.9192 0.0
H894 H 0.50757 0.67271 0.91943 0.0
H895 H 0.51023 0.70315 0.91206 0.0
H896 H 0.5399 0.73345 0.94796 0.0
C897 C 0.51538 0.79145 0.95245 0.0
C898 C 0.50221 0.75603 0.92497 0.0
C899 C 0.51024 0.80806 0.95635 0.0
C900 C 0.50991 0.68189 0.92954 0.0
C901 C 0.51146 0.69924 0.92531 0.0
C902 C 0.52943 0.73961 0.94129 0.0
C903 C 0.5121 0.78441 0.93622 0.0
C904 C 0.51482 0.76584 0.93329 0.0
C905 C 0.51484 0.7114 0.93811 0.0
C906 C 0.51611 0.72985 0.9342 0.0
H907 H 0.49283 0.8188 0.91778 0.0
H908 H 0.50203 0.78981 0.91093 0.0
H909 H 0.53895 0.7646 0.94694 0.0
H910 H 0.51573 0.68525 0.97274 0.0
H911 H 0.51852 0.71518 0.96533 0.0
C912 C 0.54866 0.73881 0.29201 0.0
C913 C 0.56072 0.72919 0.3012 0.0
C914 C 0.53208 0.74083 0.29826 0.0
C915 C 0.49983 0.71843 0.3217 0.0
H916 H 0.47583 0.76176 0.31954 0.0
C917 C 0.42704 0.74919 0.32269 0.0
C918 C 0.42012 0.73961 0.30912 0.0
C919 C 0.44404 0.74676 0.32771 0.0
C920 C 0.48237 0.7496 0.3206 0.0
H921 H 0.56502 0.71438 0.32428 0.0
H922 H 0.53566 0.7175 0.33497 0.0
H923 H 0.50694 0.76118 0.31695 0.0
H924 H 0.425 0.71894 0.29131 0.0
H925 H 0.45452 0.71458 0.30021 0.0
H926 H 0.47512 0.70675 0.32416 0.0
C927 C 0.53923 0.72366 0.32307 0.0
C928 C 0.50015 0.74927 0.31899 0.0
C929 C 0.55598 0.72193 0.31698 0.0
C930 C 0.43003 0.72661 0.30169 0.0
C931 C 0.44691 0.72402 0.30689 0.0
C932 C 0.482 0.71873 0.32306 0.0
C933 C 0.52712 0.73302 0.31367 0.0
C934 C 0.50896 0.73365 0.31895 0.0
C935 C 0.45428 0.73452 0.31947 0.0
C936 C 0.47307 0.73428 0.32195 0.0
H937 H 0.55196 0.74459 0.27986 0.0
H938 H 0.52292 0.74794 0.29068 0.0
H939 H 0.50635 0.70621 0.32162 0.0
H940 H 0.41971 0.75931 0.32866 0.0
H941 H 0.44942 0.75496 0.33751 0.0
C942 C 0.48962 0.3119 0.55989 0.0
C943 C 0.48613 0.3185 0.5435 0.0
C944 C 0.48474 0.29523 0.56418 0.0
C945 C 0.45908 0.25794 0.54892 0.0
H946 H 0.49658 0.23129 0.56751 0.0
C947 C 0.47127 0.18889 0.53024 0.0
C948 C 0.47524 0.17675 0.54291 0.0
C949 C 0.46997 0.20615 0.53431 0.0
C950 C 0.48585 0.23859 0.56266 0.0
H951 H 0.47371 0.31312 0.51922 0.0
H952 H 0.46558 0.28418 0.52653 0.0
H953 H 0.49816 0.26243 0.56785 0.0
H954 H 0.48108 0.17335 0.56986 0.0
H955 H 0.4793 0.2039 0.57686 0.0
H956 H 0.44734 0.23401 0.54269 0.0
C957 C 0.4719 0.29184 0.5362 0.0
C958 C 0.4867 0.25644 0.56288 0.0
C959 C 0.47673 0.30846 0.53192 0.0
C960 C 0.47807 0.18238 0.55979 0.0
C961 C 0.47701 0.19981 0.56382 0.0
C962 C 0.45831 0.24013 0.54856 0.0
C963 C 0.47627 0.28484 0.55219 0.0
C964 C 0.47364 0.2663 0.55537 0.0
C965 C 0.47277 0.21179 0.55111 0.0
C966 C 0.47198 0.23031 0.55482 0.0
H967 H 0.49671 0.31933 0.56919 0.0
H968 H 0.48807 0.29029 0.5767 0.0
H969 H 0.44862 0.26516 0.54341 0.0
H970 H 0.46891 0.18507 0.51712 0.0
H971 H 0.467 0.21516 0.5242 0.0
C972 C 0.93164 0.25333 0.81039 0.0
C973 C 0.92432 0.25093 0.7941 0.0
C974 C 0.94894 0.24954 0.81323 0.0
C975 C 0.98562 0.22615 0.79395 0.0
H976 H 0.01377 0.26024 0.8165 0.0
C977 C 0.05534 0.23641 0.77694 0.0
C978 C 0.0675 0.23529 0.79017 0.0
C979 C 0.03796 0.23731 0.78064 0.0
C980 C 0.006 0.25049 0.81044 0.0
H981 H 0.92947 0.24228 0.76816 0.0
H982 H 0.9593 0.23604 0.77302 0.0
H983 H 0.98253 0.26285 0.81733 0.0
H984 H 0.07083 0.23499 0.81777 0.0
H985 H 0.04013 0.23703 0.8242 0.0
H986 H 0.00908 0.21442 0.78617 0.0
C987 C 0.95174 0.24056 0.78372 0.0
C988 C 0.98815 0.25193 0.81095 0.0
C989 C 0.93458 0.24432 0.78089 0.0
C990 C 0.06181 0.23581 0.80728 0.0
C991 C 0.0443 0.23697 0.81098 0.0
C992 C 0.00337 0.22485 0.79329 0.0
C993 C 0.95919 0.24319 0.79987 0.0
C994 C 0.9778 0.24009 0.80217 0.0
C995 C 0.03227 0.23733 0.79765 0.0
C996 C 0.0137 0.23729 0.80106 0.0
H997 H 0.9241 0.25838 0.82086 0.0
H998 H 0.9543 0.25162 0.82584 0.0
H999 H 0.97801 0.21658 0.78742 0.0
H1000 H 0.05917 0.2361 0.76362 0.0
H1001 H 0.0289 0.23783 0.77016 0.0
C1002 C 0.98236 0.68784 0.0517 0.0
C1003 C 0.97826 0.68044 0.03585 0.0
C1004 C 0.98016 0.70545 0.05424 0.0
C1005 C 0.97684 0.74501 0.02846 0.0
H1006 H 0.96657 0.76656 0.07195 0.0
C1007 C 0.97403 0.81701 0.03219 0.0
C1008 C 0.98577 0.82387 0.04397 0.0
C1009 C 0.96878 0.80004 0.03352 0.0
C1010 C 0.96937 0.76065 0.05973 0.0
H1011 H 0.96733 0.68519 0.0108 0.0
H1012 H 0.96278 0.71547 0.01542 0.0
H1013 H 0.96586 0.73529 0.06958 0.0
H1014 H -0.0003 0.8188 0.06748 0.0
H1015 H 0.9906 0.78903 0.06966 0.0
H1016 H 0.98045 0.77016 0.01859 0.0
C1017 C 0.96847 0.70805 0.02565 0.0
C1018 C 0.96908 0.74278 0.05838 0.0
C1019 C 0.97102 0.69066 0.023 0.0
C1020 C 0.99077 0.81388 0.05809 0.0
C1021 C 0.98551 0.79683 0.0594 0.0
C1022 C 0.97691 0.76273 0.02975 0.0
C1023 C 0.97351 0.71581 0.04107 0.0
C1024 C 0.97293 0.73476 0.04272 0.0
C1025 C 0.97516 0.78956 0.04664 0.0
C1026 C 0.97331 0.77076 0.04539 0.0
H1027 H 0.98786 0.68018 0.06185 0.0
H1028 H 0.98426 0.71099 0.06625 0.0
H1029 H 0.98039 0.73938 0.01631 0.0
H1030 H 0.96964 0.82445 0.02135 0.0
H1031 H 0.96051 0.79481 0.02369 0.0
C1032 C 0.20295 0.42896 0.26196 0.0
C1033 C 0.1931 0.41971 0.2501 0.0
C1034 C 0.1997 0.4462 0.26486 0.0
C1035 C 0.17073 0.4824 0.25964 0.0
H1036 H 0.21276 0.50689 0.24988 0.0
C1037 C 0.17598 0.55665 0.25109 0.0
C1038 C 0.19107 0.5641 0.25742 0.0
C1039 C 0.17392 0.53883 0.25141 0.0
C1040 C 0.20095 0.5003 0.2529 0.0
H1041 H 0.17107 0.4209 0.23321 0.0
H1042 H 0.16548 0.4513 0.23831 0.0
H1043 H 0.21266 0.47593 0.24945 0.0
H1044 H 0.21509 0.55903 0.27037 0.0
H1045 H 0.2113 0.52836 0.27143 0.0
H1046 H 0.15912 0.50702 0.26334 0.0
C1047 C 0.1757 0.44507 0.24528 0.0
C1048 C 0.2009 0.48256 0.2526 0.0
C1049 C 0.17896 0.42772 0.24234 0.0
C1050 C 0.20351 0.55362 0.26498 0.0
C1051 C 0.20136 0.53601 0.26555 0.0
C1052 C 0.17081 0.50033 0.26014 0.0
C1053 C 0.18654 0.45457 0.256 0.0
C1054 C 0.18589 0.47343 0.25618 0.0
C1055 C 0.18685 0.52833 0.25826 0.0
C1056 C 0.18603 0.50943 0.25702 0.0
H1057 H 0.21371 0.42311 0.26843 0.0
H1058 H 0.20805 0.45323 0.27341 0.0
H1059 H 0.15898 0.47556 0.26233 0.0
H1060 H 0.16615 0.5645 0.24529 0.0
H1061 H 0.16258 0.53327 0.24572 0.0
C1062 C 0.67711 0.05788 0.75732 0.0
C1063 C 0.6919 0.06495 0.74987 0.0
C1064 C 0.67312 0.04058 0.7548 0.0
C1065 C 0.69023 0.00182 0.75641 0.0
H1066 H 0.66911 0.97983 0.71722 0.0
C1067 C 0.70915 0.93503 0.73499 0.0
C1068 C 0.6964 0.92323 0.73031 0.0
C1069 C 0.70505 0.95204 0.73819 0.0
C1070 C 0.67475 0.98578 0.72839 0.0
H1071 H 0.71333 0.05981 0.73295 0.0
H1072 H 0.70619 0.02981 0.72851 0.0
H1073 H 0.66713 0.01103 0.72059 0.0
H1074 H 0.66929 0.92025 0.7251 0.0
H1075 H 0.66215 0.95029 0.73065 0.0
H1076 H 0.69876 0.97692 0.7638 0.0
C1077 C 0.69783 0.03761 0.73634 0.0
C1078 C 0.67361 0.00355 0.73029 0.0
C1079 C 0.70193 0.05473 0.73899 0.0
C1080 C 0.67941 0.92898 0.72872 0.0
C1081 C 0.67532 0.94616 0.73185 0.0
C1082 C 0.6915 0.98416 0.75446 0.0
C1083 C 0.68368 0.03033 0.74455 0.0
C1084 C 0.68167 0.01165 0.74413 0.0
C1085 C 0.68811 0.95779 0.73677 0.0
C1086 C 0.68422 0.97601 0.74017 0.0
H1087 H 0.66916 0.06542 0.76579 0.0
H1088 H 0.66222 0.03507 0.76135 0.0
H1089 H 0.69671 0.00792 0.76705 0.0
H1090 H 0.7224 0.93119 0.73622 0.0
H1091 H 0.71525 0.96079 0.74159 0.0
C1092 C 0.18136 0.42587 -0.00377 0.0
C1093 C 0.17447 0.44092 0.00314 0.0
C1094 C 0.19899 0.4227 -0.00257 0.0
C1095 C 0.23884 0.44747 0.00347 0.0
H1096 H 0.26106 0.40333 0.00747 0.0
C1097 C 0.3098 0.44557 0.01172 0.0
C1098 C 0.31813 0.438 -0.00227 0.0
C1099 C 0.29278 0.44172 0.01522 0.0
C1100 C 0.25493 0.41569 0.00638 0.0
H1101 H 0.17994 0.4636 0.01801 0.0
H1102 H 0.21026 0.45773 0.02095 0.0
H1103 H 0.22961 0.4051 0.00809 0.0
H1104 H 0.31586 0.41905 0.97762 0.0
H1105 H 0.28576 0.41245 0.98369 0.0
H1106 H 0.26389 0.45813 0.00195 0.0
C1107 C 0.20247 0.44876 0.01382 0.0
C1108 C 0.23699 0.41672 0.00664 0.0
C1109 C 0.18509 0.4521 0.01224 0.0
C1110 C 0.30971 0.42508 0.98848 0.0
C1111 C 0.29252 0.42128 0.99195 0.0
C1112 C 0.25657 0.44646 0.00347 0.0
C1113 C 0.20981 0.43441 0.00585 0.0
C1114 C 0.22877 0.4327 0.00536 0.0
C1115 C 0.28371 0.43031 0.00474 0.0
C1116 C 0.26481 0.43063 0.00507 0.0
H1117 H 0.17329 0.41704 0.98924 0.0
H1118 H 0.20421 0.41152 0.99116 0.0
H1119 H 0.23305 0.45993 0.0018 0.0
H1120 H 0.31609 0.45539 0.01923 0.0
H1121 H 0.28629 0.44867 0.02531 0.0
C1122 C 0.81754 0.05575 0.2309 0.0
C1123 C 0.80284 0.06078 0.23999 0.0
C1124 C 0.82414 0.0392 0.23281 0.0
C1125 C 0.82375 0.00037 0.22869 0.0
H1126 H 0.81926 0.97503 0.27113 0.0
C1127 C 0.79897 0.93233 0.23135 0.0
C1128 C 0.80417 0.92101 0.24431 0.0
C1129 C 0.8055 0.94888 0.2306 0.0
C1130 C 0.82101 0.98188 0.25921 0.0
H1131 H 0.7843 0.05276 0.25905 0.0
H1132 H 0.79561 0.02413 0.26222 0.0
H1133 H 0.81914 0.00616 0.27169 0.0
H1134 H 0.82109 0.91794 0.26611 0.0
H1135 H 0.83244 0.9471 0.26487 0.0
H1136 H 0.82498 0.97608 0.21614 0.0
C1137 C 0.80215 0.03287 0.25369 0.0
C1138 C 0.82076 -0.00026 0.25951 0.0
C1139 C 0.79551 0.04927 0.2517 0.0
C1140 C 0.81676 0.92638 0.25601 0.0
C1141 C 0.82322 0.94308 0.25533 0.0
C1142 C 0.82404 0.98251 0.22838 0.0
C1143 C 0.81628 0.02748 0.24398 0.0
C1144 C 0.82121 0.00914 0.24417 0.0
C1145 C 0.81737 0.95462 0.24282 0.0
C1146 C 0.82177 0.97308 0.24355 0.0
H1147 H 0.82354 0.06434 0.22183 0.0
H1148 H 0.8351 0.03544 0.22523 0.0
H1149 H 0.82416 0.0072 0.21663 0.0
H1150 H 0.78942 0.92858 0.22202 0.0
H1151 H 0.8005 0.95747 0.22094 0.0
C1152 C 0.67632 0.02417 0.99273 0.0
C1153 C 0.66674 0.03782 0.98603 0.0
C1154 C 0.69317 0.02661 -0.00199 0.0
C1155 C 0.73042 0.05388 0.99043 0.0
H1156 H 0.74862 0.02849 0.029 0.0
C1157 C 0.80279 0.05235 0.00849 0.0
C1158 C 0.80922 0.03578 0.01132 0.0
C1159 C 0.78515 0.05511 0.00698 0.0
C1160 C 0.74371 0.03568 0.0182 0.0
H1161 H 0.66729 0.06492 0.98007 0.0
H1162 H 0.69688 0.06917 0.98939 0.0
H1163 H 0.71783 0.02922 0.02419 0.0
H1164 H 0.80203 0.00915 0.01472 0.0
H1165 H 0.77153 0.014 0.01208 0.0
H1166 H 0.75645 0.05998 0.98427 0.0
C1167 C 0.69128 0.05654 0.9904 0.0
C1168 C 0.7261 0.03609 0.01544 0.0
C1169 C 0.67432 0.05412 0.98514 0.0
C1170 C 0.79762 0.02209 0.01256 0.0
C1171 C 0.78007 0.02487 0.0112 0.0
C1172 C 0.74809 0.05353 0.99325 0.0
C1173 C 0.70092 0.04276 -0.00325 0.0
C1174 C 0.71928 0.04472 0.00121 0.0
C1175 C 0.77363 0.04139 0.00847 0.0
C1176 C 0.75492 0.04397 0.00686 0.0
H1177 H 0.67094 0.01145 0.99368 0.0
H1178 H 0.70029 0.01564 0.00258 0.0
H1179 H 0.72558 0.06055 0.97929 0.0
H1180 H 0.81136 0.06319 0.00749 0.0
H1181 H 0.7805 0.06798 0.00488 0.0
C1182 C 0.31345 0.43245 0.75723 0.0
C1183 C 0.3013 0.42189 0.74925 0.0
C1184 C 0.3173 0.44854 0.75026 0.0
C1185 C 0.29431 0.48048 0.72541 0.0
H1186 H 0.33662 0.50634 0.72538 0.0
C1187 C 0.29341 0.54898 0.70216 0.0
C1188 C 0.30174 0.56109 0.71243 0.0
C1189 C 0.29685 0.53162 0.70406 0.0
C1190 C 0.32471 0.49927 0.72539 0.0
H1191 H 0.28517 0.41877 0.72695 0.0
H1192 H 0.2923 0.44639 0.71451 0.0
H1193 H 0.33693 0.47594 0.73333 0.0
H1194 H 0.32104 0.56472 0.73199 0.0
H1195 H 0.32661 0.53412 0.73589 0.0
H1196 H 0.28186 0.50355 0.71818 0.0
C1197 C 0.29842 0.44266 0.72639 0.0
C1198 C 0.3249 0.48189 0.72991 0.0
C1199 C 0.29439 0.42683 0.73344 0.0
C1200 C 0.31441 0.5556 0.72394 0.0
C1201 C 0.31764 0.53809 0.72611 0.0
C1202 C 0.29409 0.4977 0.72102 0.0
C1203 C 0.30915 0.45409 0.73517 0.0
C1204 C 0.30967 0.47232 0.72986 0.0
C1205 C 0.3084 0.52588 0.71661 0.0
C1206 C 0.30926 0.50735 0.72085 0.0
H1207 H 0.3189 0.42888 0.76946 0.0
H1208 H 0.32564 0.45707 0.75731 0.0
H1209 H 0.28225 0.47365 0.72575 0.0
H1210 H 0.28383 0.55291 0.69294 0.0
H1211 H 0.28991 0.52262 0.69613 0.0
C1212 C 0.30081 0.53133 0.52422 0.0
C1213 C 0.31289 0.54402 0.52021 0.0
C1214 C 0.28357 0.53372 0.52055 0.0
C1215 C 0.25003 0.56498 0.51012 0.0
H1216 H 0.22865 0.52481 0.49035 0.0
C1217 C 0.1796 0.55877 0.48298 0.0
C1218 C 0.17111 0.54402 0.48885 0.0
C1219 C 0.19685 0.56155 0.48716 0.0
C1220 C 0.23444 0.53613 0.49586 0.0
H1221 H 0.31616 0.5696 0.51 0.0
H1222 H 0.28573 0.57369 0.50331 0.0
H1223 H 0.25906 0.52447 0.49667 0.0
H1224 H 0.17362 0.52147 0.50491 0.0
H1225 H 0.20341 0.5263 0.512 0.0
H1226 H 0.22503 0.57651 0.50923 0.0
C1227 C 0.28977 0.56191 0.50937 0.0
C1228 C 0.25183 0.53592 0.49955 0.0
C1229 C 0.30716 0.55955 0.51315 0.0
C1230 C 0.17983 0.53278 0.49985 0.0
C1231 C 0.19691 0.53553 0.50395 0.0
C1232 C 0.23248 0.56521 0.5063 0.0
C1233 C 0.27789 0.5488 0.51263 0.0
C1234 C 0.25975 0.55013 0.50717 0.0
C1235 C 0.20575 0.54959 0.4972 0.0
C1236 C 0.2245 0.55058 0.49958 0.0
H1237 H 0.30469 0.51935 0.52999 0.0
H1238 H 0.27468 0.52356 0.52368 0.0
H1239 H 0.25582 0.57612 0.51595 0.0
H1240 H 0.17319 0.5677 0.47455 0.0
H1241 H 0.20344 0.57252 0.48185 0.0
C1242 C 0.75073 0.6685 0.06068 0.0
C1243 C 0.7442 0.68401 0.067 0.0
C1244 C 0.74691 0.66319 0.04401 0.0
C1245 C 0.71874 0.6712 0.00667 0.0
H1246 H 0.76012 0.66544 0.97991 0.0
C1247 C 0.74158 0.69317 0.93774 0.0
C1248 C 0.72868 0.68683 0.92698 0.0
C1249 C 0.74353 0.68677 0.95428 0.0
C1250 C 0.74843 0.66671 0.98724 0.0
H1251 H 0.7275 0.70541 0.0613 0.0
H1252 H 0.7208 0.69611 0.03235 0.0
H1253 H 0.76172 0.66515 0.01112 0.0
H1254 H 0.70813 0.66835 0.92476 0.0
H1255 H 0.71125 0.65744 0.95407 0.0
H1256 H 0.70562 0.67375 0.98273 0.0
C1257 C 0.72889 0.68806 0.04022 0.0
C1258 C 0.74931 0.66644 0.00509 0.0
C1259 C 0.73286 0.69348 0.05676 0.0
C1260 C 0.71823 0.6734 0.9328 0.0
C1261 C 0.71996 0.66722 0.94954 0.0
C1262 C 0.71783 0.67127 0.9888 0.0
C1263 C 0.73629 0.67315 0.03348 0.0
C1264 C 0.73459 0.66942 0.01496 0.0
C1265 C 0.73243 0.67409 0.96051 0.0
C1266 C 0.73279 0.66976 0.97895 0.0
H1267 H 0.75949 0.66089 0.06826 0.0
H1268 H 0.75271 0.65159 0.03915 0.0
H1269 H 0.70718 0.67339 0.01399 0.0
H1270 H 0.74986 0.70346 0.93355 0.0
H1271 H 0.75313 0.69244 0.96252 0.0
C1272 C 0.56334 0.51294 0.3116 0.0
C1273 C 0.54983 0.50271 0.31761 0.0
C1274 C 0.56973 0.51066 0.29499 0.0
C1275 C 0.56744 0.51192 0.25584 0.0
H1276 H 0.57026 0.46752 0.23393 0.0
C1277 C 0.54595 0.49972 0.18726 0.0
C1278 C 0.55456 0.48777 0.17697 0.0
C1279 C 0.55105 0.50257 0.20411 0.0
C1280 C 0.5699 0.48003 0.23985 0.0
H1281 H 0.53329 0.4813 0.31147 0.0
H1282 H 0.54445 0.47727 0.28275 0.0
H1283 H 0.56967 0.46939 0.26512 0.0
H1284 H 0.57575 0.4699 0.17613 0.0
H1285 H 0.58453 0.47473 0.20588 0.0
H1286 H 0.56683 0.5225 0.23056 0.0
C1287 C 0.55012 0.48707 0.29073 0.0
C1288 C 0.56942 0.48109 0.2577 0.0
C1289 C 0.5436 0.4895 0.30715 0.0
C1290 C 0.56885 0.47919 0.18375 0.0
C1291 C 0.57384 0.4819 0.20077 0.0
C1292 C 0.56783 0.51085 0.23799 0.0
C1293 C 0.56292 0.49791 0.28428 0.0
C1294 C 0.56748 0.49699 0.26585 0.0
C1295 C 0.56481 0.49344 0.21119 0.0
C1296 C 0.56835 0.49486 0.2298 0.0
H1297 H 0.5684 0.52323 0.31938 0.0
H1298 H 0.57965 0.51915 0.29037 0.0
H1299 H 0.56589 0.52435 0.26172 0.0
H1300 H 0.53497 0.50664 0.18241 0.0
H1301 H 0.54367 0.51137 0.21186 0.0
C1302 C 0.74044 0.29901 0.43704 0.0
C1303 C 0.75276 0.30466 0.42524 0.0
C1304 C 0.74092 0.3045 0.454 0.0
C1305 C 0.77112 0.31707 0.48662 0.0
H1306 H 0.72973 0.32465 0.51288 0.0
C1307 C 0.74358 0.31876 0.56092 0.0
C1308 C 0.75073 0.30321 0.56648 0.0
C1309 C 0.74649 0.32465 0.54426 0.0
C1310 C 0.74151 0.32296 0.50578 0.0
H1311 H 0.77495 0.32097 0.42185 0.0
H1312 H 0.77597 0.33035 0.45179 0.0
H1313 H 0.72853 0.32505 0.48175 0.0
H1314 H 0.76781 0.28253 0.55938 0.0
H1315 H 0.77272 0.29268 0.53044 0.0
H1316 H 0.78395 0.3142 0.51069 0.0
C1317 C 0.76589 0.32174 0.44777 0.0
C1318 C 0.74077 0.32303 0.48793 0.0
C1319 C 0.76525 0.31643 0.43065 0.0
C1320 C 0.76194 0.29445 0.55549 0.0
C1321 C 0.76489 0.30037 0.53889 0.0
C1322 C 0.77185 0.31692 0.50451 0.0
C1323 C 0.75384 0.31563 0.45965 0.0
C1324 C 0.75541 0.3194 0.47818 0.0
C1325 C 0.75669 0.31518 0.53287 0.0
C1326 C 0.75691 0.31919 0.51428 0.0
H1327 H 0.73059 0.29003 0.43325 0.0
H1328 H 0.73159 0.29939 0.46289 0.0
H1329 H 0.78261 0.31421 0.47944 0.0
H1330 H 0.73499 0.32593 0.56908 0.0
H1331 H 0.74019 0.33624 0.54006 0.0
C1332 C 0.9483 0.49388 0.68092 0.0
C1333 C 0.93889 0.50521 0.67065 0.0
C1334 C 0.94348 0.49086 0.69784 0.0
C1335 C 0.92534 0.48174 0.73135 0.0
H1336 H 0.9259 0.52281 0.75916 0.0
C1337 C 0.92486 0.4789 0.80505 0.0
C1338 C 0.9398 0.48641 0.81166 0.0
C1339 C 0.91973 0.48229 0.78823 0.0
C1340 C 0.92541 0.51127 0.75152 0.0
H1341 H 0.91678 0.52193 0.66984 0.0
H1342 H 0.90864 0.51699 0.69976 0.0
H1343 H 0.92591 0.5252 0.7279 0.0
H1344 H 0.96034 0.50428 0.80642 0.0
H1345 H 0.95116 0.51051 0.77724 0.0
H1346 H 0.92556 0.4678 0.75494 0.0
C1347 C 0.91959 0.5103 0.69454 0.0
C1348 C 0.92533 0.51262 0.73368 0.0
C1349 C 0.92422 0.51306 0.67746 0.0
C1350 C 0.94883 0.49825 0.80161 0.0
C1351 C 0.94351 0.5019 0.78496 0.0
C1352 C 0.92512 0.48039 0.74917 0.0
C1353 C 0.92933 0.49934 0.70492 0.0
C1354 C 0.92591 0.49786 0.72347 0.0
C1355 C 0.92924 0.49355 0.77794 0.0
C1356 C 0.92576 0.49513 0.7594 0.0
H1357 H 0.95963 0.4876 0.67599 0.0
H1358 H 0.9513 0.48249 0.70564 0.0
H1359 H 0.92576 0.47019 0.72371 0.0
H1360 H 0.91771 0.46967 0.81252 0.0
H1361 H 0.90868 0.47572 0.78306 0.0
C1362 C 0.81116 0.92041 0.49118 0.0
C1363 C 0.81693 0.93673 0.49605 0.0
C1364 C 0.79514 0.91447 0.4966 0.0
C1365 C 0.75885 0.92441 0.52607 0.0
H1366 H 0.73049 0.91198 0.48728 0.0
C1367 C 0.69199 0.94954 0.51608 0.0
C1368 C 0.67877 0.93879 0.51039 0.0
C1369 C 0.70861 0.94343 0.51766 0.0
C1370 C 0.73826 0.91497 0.49837 0.0
H1371 H 0.81107 0.959 0.51152 0.0
H1372 H 0.78333 0.94881 0.52077 0.0
H1373 H 0.76156 0.91135 0.4845 0.0
H1374 H 0.67258 0.91306 0.50211 0.0
H1375 H 0.70216 0.90248 0.50424 0.0
H1376 H 0.73547 0.92943 0.53942 0.0
C1377 C 0.79106 0.94049 0.51285 0.0
C1378 C 0.75608 0.91459 0.49681 0.0
C1379 C 0.80694 0.94644 0.50738 0.0
C1380 C 0.68254 0.92164 0.50649 0.0
C1381 C 0.69938 0.91558 0.50773 0.0
C1382 C 0.74107 0.92491 0.52757 0.0
C1383 C 0.78472 0.92467 0.50712 0.0
C1384 C 0.76653 0.92023 0.51035 0.0
C1385 C 0.71253 0.92647 0.51336 0.0
C1386 C 0.73066 0.92106 0.51345 0.0
H1387 H 0.8186 0.91257 0.48251 0.0
H1388 H 0.79066 0.90217 0.49208 0.0
H1389 H 0.76656 0.92843 0.53687 0.0
H1390 H 0.68949 0.96276 0.51936 0.0
H1391 H 0.71856 0.95218 0.52176 0.0
C1392 C 0.20067 0.33569 0.2827 0.0
C1393 C 0.19376 0.33709 0.26618 0.0
C1394 C 0.19697 0.32155 0.29285 0.0
C1395 C 0.18943 0.2767 0.28767 0.0
H1396 H 0.18604 0.2777 0.33719 0.0
C1397 C 0.2011 0.2166 0.32896 0.0
C1398 C 0.21144 0.21917 0.34345 0.0
C1399 C 0.19461 0.23053 0.31988 0.0
C1400 C 0.18701 0.27721 0.32337 0.0
H1401 H 0.1768 0.32538 0.24762 0.0
H1402 H 0.17058 0.30025 0.26538 0.0
H1403 H 0.18065 0.30371 0.32077 0.0
H1404 H 0.22322 0.23825 0.35974 0.0
H1405 H 0.21231 0.26259 0.34361 0.0
H1406 H 0.19676 0.25052 0.29024 0.0
C1407 C 0.17877 0.31021 0.27044 0.0
C1408 C 0.18379 0.29205 0.31399 0.0
C1409 C 0.18228 0.32457 0.26034 0.0
C1410 C 0.21528 0.2359 0.34863 0.0
C1411 C 0.20885 0.24983 0.3395 0.0
C1412 C 0.19273 0.26188 0.29705 0.0
C1413 C 0.18645 0.3084 0.28661 0.0
C1414 C 0.18562 0.29208 0.29611 0.0
C1415 C 0.19839 0.2473 0.32506 0.0
C1416 C 0.1922 0.26216 0.31504 0.0
H1417 H 0.20945 0.34524 0.28756 0.0
H1418 H 0.20323 0.32042 0.30517 0.0
H1419 H 0.1911 0.2764 0.27391 0.0
H1420 H 0.19781 0.20383 0.32476 0.0
H1421 H 0.1865 0.22815 0.30889 0.0
C1422 C 0.0119 0.95468 0.5827 0.0
C1423 C 0.01006 0.9609 0.59946 0.0
C1424 C -0.00236 0.95259 0.57217 0.0
C1425 C 0.96496 0.94179 0.55455 0.0
H1426 H 0.93043 0.97729 0.55532 0.0
C1427 C 0.90444 0.94032 0.51122 0.0
C1428 C 0.89917 0.95611 0.50444 0.0
C1429 C 0.91752 0.93963 0.52347 0.0
C1430 C 0.94001 0.96731 0.55486 0.0
H1431 H 0.99183 0.96947 0.6185 0.0
H1432 H 0.96679 0.96553 0.60018 0.0
H1433 H 0.95394 0.97836 0.57561 0.0
H1434 H 0.90408 0.98342 0.50455 0.0
H1435 H 0.92701 0.98216 0.52539 0.0
H1436 H 0.95138 0.93119 0.53325 0.0
C1437 C 0.97931 0.96255 0.59506 0.0
C1438 C 0.95338 0.96778 0.56669 0.0
C1439 C 0.99363 0.96474 0.60559 0.0
C1440 C 0.90763 0.97107 0.5097 0.0
C1441 C 0.92072 0.97036 0.52177 0.0
C1442 C 0.95162 0.94137 0.54263 0.0
C1443 C 0.98117 0.95656 0.57817 0.0
C1444 C 0.96617 0.95518 0.56652 0.0
C1445 C 0.92564 0.95469 0.52906 0.0
C1446 C 0.93915 0.9543 0.54245 0.0
H1447 H 0.02441 0.95165 0.57758 0.0
H1448 H -0.00039 0.94826 0.55915 0.0
H1449 H 0.97444 0.93171 0.55425 0.0
H1450 H 0.89814 0.92858 0.50746 0.0
H1451 H 0.92096 0.92735 0.52886 0.0
C1452 C 0.27609 0.74216 0.8335 0.0
C1453 C 0.26381 0.74425 0.84645 0.0
C1454 C 0.27857 0.72629 0.82585 0.0
C1455 C 0.25723 0.68741 0.8141 0.0
H1456 H 0.30327 0.67015 0.80752 0.0
C1457 C 0.26938 0.63035 0.76961 0.0
C1458 C 0.28316 0.63232 0.75822 0.0
C1459 C 0.26774 0.64101 0.78385 0.0
C1460 C 0.29034 0.67481 0.80916 0.0
H1461 H 0.24432 0.73142 0.86142 0.0
H1462 H 0.2483 0.70352 0.84746 0.0
H1463 H 0.29852 0.69498 0.82581 0.0
H1464 H 0.30651 0.64647 0.75336 0.0
H1465 H 0.30343 0.66539 0.7778 0.0
H1466 H 0.24905 0.66807 0.79665 0.0
C1467 C 0.25615 0.71424 0.84352 0.0
C1468 C 0.28763 0.68895 0.81972 0.0
C1469 C 0.25387 0.73015 0.85146 0.0
C1470 C 0.29577 0.64457 0.7619 0.0
C1471 C 0.29402 0.65539 0.77602 0.0
C1472 C 0.25994 0.67341 0.80334 0.0
C1473 C 0.26866 0.71217 0.83077 0.0
C1474 C 0.27111 0.69564 0.82192 0.0
C1475 C 0.27973 0.65406 0.78692 0.0
C1476 C 0.2766 0.66721 0.80035 0.0
H1477 H 0.28401 0.75277 0.82939 0.0
H1478 H 0.28811 0.72509 0.81586 0.0
H1479 H 0.24438 0.69242 0.81549 0.0
H1480 H 0.25955 0.62086 0.76725 0.0
H1481 H 0.2568 0.63933 0.79218 0.0
C1482 C 0.57958 0.05093 0.01093 0.0
C1483 C 0.58412 0.03451 0.00517 0.0
C1484 C 0.56743 0.05295 0.02398 0.0
C1485 C 0.53336 0.05266 0.04353 0.0
H1486 H 0.53174 0.01909 0.08005 0.0
C1487 C 0.47192 0.03767 0.08098 0.0
C1488 C 0.47305 0.03255 0.09817 0.0
C1489 C 0.48669 0.04075 0.07143 0.0
C1490 C 0.53211 0.02879 0.07016 0.0
H1491 H 0.57924 0.00736 0.00857 0.0
H1492 H 0.55812 0.0109 0.03087 0.0
H1493 H 0.55583 0.01934 0.06044 0.0
H1494 H 0.4905 0.02729 0.11907 0.0
H1495 H 0.51636 0.03292 0.10248 0.0
H1496 H 0.50959 0.0621 0.0533 0.0
C1497 C 0.56416 0.02223 0.02567 0.0
C1498 C 0.54584 0.02878 0.05876 0.0
C1499 C 0.57623 0.02022 0.01272 0.0
C1500 C 0.48925 0.03108 0.1058 0.0
C1501 C 0.50405 0.03426 0.09627 0.0
C1502 C 0.51963 0.05272 0.05501 0.0
C1503 C 0.55964 0.03858 0.03151 0.0
C1504 C 0.54637 0.04036 0.045 0.0
C1505 C 0.50296 0.03887 0.07888 0.0
C1506 C 0.5186 0.04046 0.06817 0.0
H1507 H 0.58541 0.06222 0.0054 0.0
H1508 H 0.56424 0.06572 0.02824 0.0
H1509 H 0.53337 0.06174 0.03307 0.0
H1510 H 0.45961 0.03891 0.07474 0.0
H1511 H 0.48533 0.044 0.05803 0.0
C1512 C 0.20727 0.75465 0.14662 0.0
C1513 C 0.21716 0.75499 0.13161 0.0
C1514 C 0.202 0.73915 0.15367 0.0
C1515 C 0.21368 0.69428 0.15643 0.0
H1516 H 0.16801 0.68915 0.17521 0.0
C1517 C 0.19821 0.63576 0.19659 0.0
C1518 C 0.1903 0.63942 0.2123 0.0
C1519 C 0.19787 0.64765 0.18329 0.0
C1520 C 0.18081 0.69038 0.17006 0.0
H1521 H 0.22939 0.73938 0.11225 0.0
H1522 H 0.22037 0.71212 0.1248 0.0
H1523 H 0.17523 0.71467 0.15868 0.0
H1524 H 0.17471 0.6577 0.22603 0.0
H1525 H 0.17458 0.67879 0.20305 0.0
H1526 H 0.21967 0.67058 0.16843 0.0
C1527 C 0.21665 0.72392 0.13102 0.0
C1528 C 0.18493 0.70497 0.16058 0.0
C1529 C 0.22183 0.73949 0.12386 0.0
C1530 C 0.18083 0.65455 0.214 0.0
C1531 C 0.18076 0.66662 0.20078 0.0
C1532 C 0.20962 0.67978 0.166 0.0
C1533 C 0.20659 0.72362 0.14594 0.0
C1534 C 0.20153 0.70724 0.15403 0.0
C1535 C 0.18997 0.66363 0.18556 0.0
C1536 C 0.19325 0.6778 0.17328 0.0
H1537 H 0.20345 0.76639 0.1529 0.0
H1538 H 0.19454 0.73932 0.16535 0.0
H1539 H 0.22661 0.69576 0.15168 0.0
H1540 H 0.20542 0.62406 0.19491 0.0
H1541 H 0.20463 0.64469 0.17156 0.0
C1542 C 0.605 0.95884 0.45123 0.0
C1543 C 0.60282 0.94988 0.46667 0.0
C1544 C 0.59255 0.95807 0.43845 0.0
C1545 C 0.55196 0.9364 0.42541 0.0
H1546 H 0.54108 0.98128 0.40731 0.0
C1547 C 0.48524 0.95455 0.40047 0.0
C1548 C 0.48408 0.96456 0.38558 0.0
C1549 C 0.5011 0.95119 0.40792 0.0
C1550 C 0.5441 0.96861 0.412 0.0
H1551 H 0.58641 0.93223 0.48038 0.0
H1552 H 0.56442 0.93127 0.45833 0.0
H1553 H 0.5668 0.97741 0.42432 0.0
H1554 H 0.49859 0.97892 0.3668 0.0
H1555 H 0.52641 0.97323 0.38003 0.0
H1556 H 0.52871 0.92787 0.41364 0.0
C1557 C 0.57587 0.93867 0.45591 0.0
C1558 C 0.5589 0.96634 0.42173 0.0
C1559 C 0.58847 0.93925 0.46861 0.0
C1560 C 0.4991 0.97121 0.37831 0.0
C1561 C 0.515 0.96796 0.38587 0.0
C1562 C 0.53706 0.93871 0.41578 0.0
C1563 C 0.57749 0.94854 0.44092 0.0
C1564 C 0.56287 0.95028 0.42884 0.0
C1565 C 0.51615 0.95787 0.40073 0.0
C1566 C 0.53282 0.95492 0.40927 0.0
H1567 H 0.61607 0.96693 0.44925 0.0
H1568 H 0.59445 0.96545 0.42687 0.0
H1569 H 0.55476 0.9238 0.43042 0.0
H1570 H 0.4739 0.9492 0.40635 0.0
H1571 H 0.50155 0.94361 0.41952 0.0
C1572 C 0.26018 0.24516 0.64357 0.0
C1573 C 0.26875 0.22993 0.64765 0.0
C1574 C 0.26122 0.25927 0.65454 0.0
C1575 C 0.28863 0.27877 0.68694 0.0
H1576 H 0.24756 0.30195 0.70213 0.0
C1577 C 0.28981 0.33012 0.74024 0.0
C1578 C 0.27818 0.34372 0.73891 0.0
C1579 C 0.289 0.31641 0.72876 0.0
C1580 C 0.2592 0.29584 0.69781 0.0
H1581 H 0.28507 0.21744 0.66633 0.0
H1582 H 0.28705 0.24212 0.68526 0.0
H1583 H 0.24527 0.27798 0.68235 0.0
H1584 H 0.25708 0.35402 0.7241 0.0
H1585 H 0.25609 0.33059 0.70381 0.0
H1586 H 0.30265 0.29676 0.70203 0.0
C1587 C 0.27954 0.24315 0.67365 0.0
C1588 C 0.25784 0.28207 0.68652 0.0
C1589 C 0.2783 0.22901 0.66286 0.0
C1590 C 0.26609 0.3436 0.72561 0.0
C1591 C 0.26544 0.33008 0.71402 0.0
C1592 C 0.29002 0.2927 0.69804 0.0
C1593 C 0.27106 0.25841 0.66958 0.0
C1594 C 0.27253 0.27336 0.68107 0.0
C1595 C 0.27669 0.31616 0.71559 0.0
C1596 C 0.27532 0.30138 0.70367 0.0
H1597 H 0.25273 0.24619 0.63193 0.0
H1598 H 0.25459 0.27094 0.65112 0.0
H1599 H 0.30016 0.27233 0.68278 0.0
H1600 H 0.2992 0.32983 0.75044 0.0
H1601 H 0.29775 0.30583 0.7305 0.0
C1602 C 0.88735 0.0193 0.96198 0.0
C1603 C 0.88791 0.03129 0.97533 0.0
C1604 C 0.8997 0.01952 0.94907 0.0
C1605 C 0.93682 0.04444 0.93176 0.0
H1606 H 0.95334 -0.00076 0.91978 0.0
C1607 C 0.00496 0.03103 0.9072 0.0
C1608 C 0.00663 0.02028 0.89291 0.0
C1609 C 0.9891 0.03322 0.91507 0.0
C1610 C 0.94873 0.01194 0.92282 0.0
H1611 H 0.9013 0.0534 0.98527 0.0
H1612 H 0.92327 0.05342 0.96321 0.0
H1613 H 0.92764 0.0021 0.93703 0.0
H1614 H 0.99308 0.00324 0.87572 0.0
H1615 H 0.96532 0.00673 0.88985 0.0
H1616 H 0.95863 0.05411 0.91822 0.0
C1617 C 0.91308 0.04409 0.96233 0.0
C1618 C 0.93392 0.01363 0.93264 0.0
C1619 C 0.9005 0.04407 0.97506 0.0
C1620 C 0.99216 0.01158 0.88674 0.0
C1621 C 0.97631 0.01358 0.8948 0.0
C1622 C 0.9518 0.04272 0.92214 0.0
C1623 C 0.91313 0.03149 0.94945 0.0
C1624 C 0.92788 0.0299 0.93747 0.0
C1625 C 0.97463 0.02451 0.90896 0.0
C1626 C 0.95801 0.02644 0.9178 0.0
H1627 H 0.87762 0.00943 0.96176 0.0
H1628 H 0.89899 0.00994 0.9391 0.0
H1629 H 0.93241 0.05717 0.93491 0.0
H1630 H 0.01588 0.03795 0.91218 0.0
H1631 H 0.98818 0.04155 0.92611 0.0
C1632 C 0.35814 0.19457 0.2366 0.0
C1633 C 0.35214 0.19009 0.22029 0.0
C1634 C 0.34928 0.18933 0.25124 0.0
C1635 C 0.30597 0.17585 0.26446 0.0
H1636 H 0.32833 0.16886 0.30821 0.0
C1637 C 0.26702 0.16996 0.32654 0.0
C1638 C 0.27194 0.18243 0.33852 0.0
C1639 C 0.27782 0.16587 0.31284 0.0
C1640 C 0.32193 0.17063 0.29603 0.0
H1641 H 0.33278 0.17586 0.20643 0.0
H1642 H 0.31763 0.16629 0.23191 0.0
H1643 H 0.34556 0.17115 0.28222 0.0
H1644 H 0.29246 0.19935 0.34639 0.0
H1645 H 0.31129 0.19209 0.32271 0.0
H1646 H 0.28239 0.1757 0.27833 0.0
C1647 C 0.32884 0.17427 0.23348 0.0
C1648 C 0.33178 0.17207 0.28117 0.0
C1649 C 0.33755 0.17971 0.21887 0.0
C1650 C 0.28828 0.1898 0.33726 0.0
C1651 C 0.29913 0.18553 0.32378 0.0
C1652 C 0.29614 0.17423 0.27928 0.0
C1653 C 0.33436 0.17931 0.24985 0.0
C1654 C 0.32395 0.17526 0.26527 0.0
C1655 C 0.29381 0.17396 0.31113 0.0
C1656 C 0.30404 0.17215 0.29528 0.0
H1657 H 0.36936 0.20256 0.23806 0.0
H1658 H 0.35379 0.19368 0.26359 0.0
H1659 H 0.29946 0.17851 0.25252 0.0
H1660 H 0.25448 0.1641 0.32719 0.0
H1661 H 0.27345 0.15685 0.30328 0.0
C1662 C 0.0572 0.00984 0.57889 0.0
C1663 C 0.04583 0.01583 0.59146 0.0
C1664 C 0.06018 0.01947 0.5641 0.0
C1665 C 0.05508 0.06217 0.54476 0.0
H1666 H 0.0415 0.03764 0.50381 0.0
C1667 C 0.02578 0.09661 0.48752 0.0
C1668 C 0.02955 0.09101 0.47089 0.0
C1669 C 0.03146 0.08737 0.50167 0.0
C1670 C 0.0457 0.04465 0.515 0.0
H1671 H 0.02971 0.03702 0.59913 0.0
H1672 H 0.03516 0.05393 0.57353 0.0
H1673 H 0.04666 0.02193 0.53026 0.0
H1674 H 0.04211 0.07133 0.45595 0.0
H1675 H 0.05219 0.0552 0.48077 0.0
H1676 H 0.05373 0.08493 0.52969 0.0
C1677 C 0.04167 0.0418 0.57499 0.0
C1678 C 0.04868 0.03563 0.53014 0.0
C1679 C 0.03845 0.03207 0.58958 0.0
C1680 C 0.03893 0.07587 0.46865 0.0
C1681 C 0.04471 0.06665 0.48285 0.0
C1682 C 0.05225 0.07117 0.52961 0.0
C1683 C 0.05212 0.03536 0.56188 0.0
C1684 C 0.05277 0.0444 0.54529 0.0
C1685 C 0.04114 0.07239 0.49953 0.0
C1686 C 0.04686 0.06258 0.51474 0.0
H1687 H 0.06301 -0.00268 0.58001 0.0
H1688 H 0.06832 0.01428 0.55416 0.0
H1689 H 0.05843 0.06918 0.55625 0.0
H1690 H 0.0185 0.1082 0.48963 0.0
H1691 H 0.02808 0.09192 0.51432 0.0
C1692 C 0.13121 0.79212 0.73848 0.0
C1693 C 0.13693 0.79461 0.72165 0.0
C1694 C 0.1406 0.79851 0.75224 0.0
C1695 C 0.15979 0.81748 0.77975 0.0
H1696 H 0.2078 0.80528 0.77758 0.0
C1697 C 0.19768 0.79236 0.83631 0.0
C1698 C 0.21521 0.79594 0.83785 0.0
C1699 C 0.18829 0.79893 0.82267 0.0
C1700 C 0.19454 0.80922 0.77831 0.0
H1701 H 0.15648 0.80647 0.7059 0.0
H1702 H 0.1729 0.8177 0.73001 0.0
H1703 H 0.19057 0.80437 0.75172 0.0
H1704 H 0.23646 0.81003 0.82684 0.0
H1705 H 0.21999 0.82129 0.80271 0.0
H1706 H 0.1636 0.82119 0.80664 0.0
C1707 C 0.16126 0.81063 0.73256 0.0
C1708 C 0.18464 0.8087 0.76347 0.0
C1709 C 0.15186 0.80421 0.71878 0.0
C1710 C 0.22297 0.80699 0.82596 0.0
C1711 C 0.21358 0.81343 0.81215 0.0
C1712 C 0.16968 0.81792 0.79461 0.0
C1713 C 0.15589 0.80757 0.74946 0.0
C1714 C 0.16699 0.81204 0.76419 0.0
C1715 C 0.19625 0.80911 0.81018 0.0
C1716 C 0.18696 0.81304 0.79415 0.0
H1717 H 0.11971 0.78483 0.74107 0.0
H1718 H 0.13624 0.79566 0.76508 0.0
H1719 H 0.1463 0.82053 0.78061 0.0
H1720 H 0.19131 0.78402 0.84536 0.0
H1721 H 0.175 0.7952 0.82138 0.0
C1722 C 0.45064 0.87884 0.99312 0.0
C1723 C 0.44701 0.88381 0.97624 0.0
C1724 C 0.44666 0.88966 0.00677 0.0
C1725 C 0.44404 0.93479 0.01568 0.0
H1726 H 0.42659 0.92064 0.05997 0.0
C1727 C 0.46027 0.9695 0.07795 0.0
C1728 C 0.44656 0.97438 0.08849 0.0
C1729 C 0.45757 0.9587 0.06404 0.0
C1730 C 0.4313 0.92477 0.0476 0.0
H1731 H 0.43562 0.90354 0.9604 0.0
H1732 H 0.42893 0.92255 0.98426 0.0
H1733 H 0.42575 0.90064 0.03576 0.0
H1734 H 0.41931 0.9715 0.0929 0.0
H1735 H 0.41471 0.95209 0.06866 0.0
H1736 H 0.45027 0.95861 0.02763 0.0
C1737 C 0.43484 0.91031 0.98691 0.0
C1738 C 0.4309 0.91335 0.03383 0.0
C1739 C 0.43866 0.89942 0.97328 0.0
C1740 C 0.43011 0.96798 0.08498 0.0
C1741 C 0.42747 0.95687 0.07118 0.0
C1742 C 0.44466 0.94607 0.02947 0.0
C1743 C 0.43914 0.90568 0.00373 0.0
C1744 C 0.43753 0.9182 0.01782 0.0
C1745 C 0.44117 0.95234 0.06051 0.0
C1746 C 0.43861 0.94104 0.0456 0.0
H1747 H 0.45699 0.86683 -0.00423 0.0
H1748 H 0.45024 0.88585 0.01962 0.0
H1749 H 0.44938 0.9388 0.00353 0.0
H1750 H 0.47307 0.9743 0.08025 0.0
H1751 H 0.46836 0.95524 0.05604 0.0
C1752 C 0.33677 0.78972 0.26288 0.0
C1753 C 0.35259 0.78122 0.26311 0.0
C1754 C 0.32878 0.7936 0.24736 0.0
C1755 C 0.31812 0.80706 0.21228 0.0
H1756 H 0.31782 0.7707 0.1786 0.0
C1757 C 0.29261 0.7889 0.13961 0.0
C1758 C 0.27551 0.79422 0.14087 0.0
C1759 C 0.30369 0.79069 0.15347 0.0
C1760 C 0.31803 0.78117 0.18767 0.0
H1761 H 0.3727 0.77052 0.24731 0.0
H1762 H 0.35883 0.77738 0.2202 0.0
H1763 H 0.33399 0.76714 0.20482 0.0
H1764 H 0.25686 0.80667 0.15714 0.0
H1765 H 0.27613 0.80937 0.18166 0.0
H1766 H 0.30178 0.82092 0.19513 0.0
C1767 C 0.35247 0.78085 0.23201 0.0
C1768 C 0.32731 0.77909 0.20276 0.0
C1769 C 0.36044 0.77696 0.24753 0.0
C1770 C 0.27001 0.80248 0.15584 0.0
C1771 C 0.28106 0.80405 0.16986 0.0
C1772 C 0.30881 0.80916 0.1971 0.0
C1773 C 0.33646 0.78905 0.23175 0.0
C1774 C 0.32736 0.79192 0.21531 0.0
C1775 C 0.29784 0.79755 0.16903 0.0
C1776 C 0.30858 0.79617 0.18467 0.0
H1777 H 0.33042 0.79319 0.2747 0.0
H1778 H 0.31636 0.79972 0.24761 0.0
H1779 H 0.31806 0.81726 0.22164 0.0
H1780 H 0.29726 0.78276 0.12809 0.0
H1781 H 0.31667 0.78603 0.15222 0.0
C1782 C 0.44532 0.03412 0.39891 0.0
C1783 C 0.44009 0.01704 0.39719 0.0
C1784 C 0.44092 0.04346 0.41345 0.0
C1785 C 0.43516 0.03728 0.45831 0.0
H1786 H 0.42133 0.08486 0.458 0.0
C1787 C 0.44139 0.07959 0.51853 0.0
C1788 C 0.44841 0.09583 0.51545 0.0
C1789 C 0.43568 0.0695 0.5049 0.0
C1790 C 0.42524 0.07158 0.45831 0.0
H1791 H 0.42564 -0.00351 0.40902 0.0
H1792 H 0.41837 0.01278 0.43477 0.0
H1793 H 0.41928 0.06802 0.43178 0.0
H1794 H 0.45484 0.11434 0.49581 0.0
H1795 H 0.44548 0.09666 0.47212 0.0
H1796 H 0.44231 0.04105 0.48444 0.0
C1797 C 0.42567 0.01893 0.42472 0.0
C1798 C 0.42393 0.06195 0.44334 0.0
C1799 C 0.4298 0.00967 0.40999 0.0
C1800 C 0.44947 0.10187 0.49859 0.0
C1801 C 0.4439 0.09179 0.485 0.0
C1802 C 0.43669 0.04697 0.47324 0.0
C1803 C 0.43146 0.0358 0.42667 0.0
C1804 C 0.42942 0.0449 0.44309 0.0
C1805 C 0.43698 0.07546 0.48795 0.0
C1806 C 0.43235 0.06441 0.47322 0.0
H1807 H 0.4532 0.04013 0.38922 0.0
H1808 H 0.44569 0.0564 0.41476 0.0
H1809 H 0.43959 0.02416 0.45839 0.0
H1810 H 0.4403 0.07468 0.53145 0.0
H1811 H 0.43029 0.05704 0.50763 0.0
C1812 C 0.13734 0.19851 0.74442 0.0
C1813 C 0.14323 0.19616 0.76122 0.0
C1814 C 0.14603 0.19121 0.73068 0.0
C1815 C 0.16245 0.16961 0.7035 0.0
H1816 H 0.21157 0.1763 0.70356 0.0
C1817 C 0.20166 0.18912 0.64563 0.0
C1818 C 0.21875 0.18383 0.64413 0.0
C1819 C 0.1916 0.18337 0.65919 0.0
C1820 C 0.19793 0.17387 0.70344 0.0
H1821 H 0.16255 0.18395 0.77692 0.0
H1822 H 0.17774 0.17101 0.75284 0.0
H1823 H 0.19554 0.18054 0.72982 0.0
H1824 H 0.23829 0.16725 0.65478 0.0
H1825 H 0.22071 0.15745 0.67874 0.0
H1826 H 0.16483 0.16423 0.67671 0.0
C1827 C 0.16651 0.1787 0.75029 0.0
C1828 C 0.1887 0.17633 0.71853 0.0
C1829 C 0.15784 0.18611 0.76406 0.0
C1830 C 0.22516 0.17159 0.65564 0.0
C1831 C 0.21515 0.16601 0.66937 0.0
C1832 C 0.17167 0.16732 0.68837 0.0
C1833 C 0.16076 0.18127 0.73341 0.0
C1834 C 0.17078 0.175 0.71854 0.0
C1835 C 0.1985 0.17237 0.67162 0.0
C1836 C 0.1894 0.17015 0.68806 0.0
H1837 H 0.1261 0.20618 0.74183 0.0
H1838 H 0.14145 0.19382 0.71786 0.0
H1839 H 0.14869 0.16802 0.7032 0.0
H1840 H 0.19633 0.19842 0.63685 0.0
H1841 H 0.17886 0.1886 0.66065 0.0
C1842 C 0.03971 0.8835 -0.00212 0.0
C1843 C 0.04361 0.88817 0.01477 0.0
C1844 C 0.04636 0.89278 0.98416 0.0
C1845 C 0.0611 0.93564 0.97341 0.0
H1846 H 0.07192 0.91409 0.93005 0.0
C1847 C 0.06522 0.97521 0.91172 0.0
C1848 C 0.05394 0.96888 0.89921 0.0
C1849 C 0.07012 0.96489 0.92551 0.0
C1850 C 0.06909 0.9203 0.94211 0.0
H1851 H 0.05791 0.90589 0.03062 0.0
H1852 H 0.06951 0.92221 0.00657 0.0
H1853 H 0.06875 0.89654 0.95571 0.0
H1854 H 0.04015 0.94643 0.89053 0.0
H1855 H 0.04866 0.92855 0.91443 0.0
H1856 H 0.06059 0.95928 0.95969 0.0
C1857 C 0.06123 0.91141 0.00396 0.0
C1858 C 0.06722 0.91026 0.95677 0.0
C1859 C 0.0546 0.90207 0.01771 0.0
C1860 C 0.04871 0.95173 0.90007 0.0
C1861 C 0.05374 0.94141 0.9137 0.0
C1862 C 0.06299 0.94568 0.95875 0.0
C1863 C 0.05705 0.90695 0.98704 0.0
C1864 C 0.06249 0.91776 0.97242 0.0
C1865 C 0.06402 0.94803 0.92687 0.0
C1866 C 0.06627 0.93802 0.94282 0.0
H1867 H 0.03131 0.87282 -0.00478 0.0
H1868 H 0.04263 0.88919 0.97131 0.0
H1869 H 0.05737 0.9418 0.98525 0.0
H1870 H 0.06949 0.98838 0.91137 0.0
H1871 H 0.07816 0.97028 0.93544 0.0
C1872 C 0.22908 0.33152 0.19941 0.0
C1873 C 0.23034 0.34601 0.20996 0.0
C1874 C 0.2433 0.32105 0.1967 0.0
C1875 C 0.2786 0.30673 0.18676 0.0
H1876 H 0.30287 0.29254 0.22764 0.0
C1877 C 0.34354 0.26815 0.2097 0.0
C1878 C 0.34299 0.25401 0.19865 0.0
C1879 C 0.33046 0.28023 0.2096 0.0
C1880 C 0.29648 0.29659 0.21603 0.0
H1881 H 0.24751 0.36114 0.22564 0.0
H1882 H 0.27228 0.3427 0.2211 0.0
H1883 H 0.27905 0.3123 0.23004 0.0
H1884 H 0.32854 0.2417 0.17844 0.0
H1885 H 0.30529 0.26256 0.17863 0.0
H1886 H 0.29619 0.29114 0.17269 0.0
C1887 C 0.26029 0.33944 0.21496 0.0
C1888 C 0.28277 0.30788 0.21745 0.0
C1889 C 0.24613 0.35 0.21752 0.0
C1890 C 0.32932 0.2525 0.18707 0.0
C1891 C 0.31604 0.2645 0.18715 0.0
C1892 C 0.29249 0.29555 0.1853 0.0
C1893 C 0.25897 0.3248 0.20464 0.0
C1894 C 0.2737 0.31306 0.20286 0.0
C1895 C 0.31631 0.27834 0.19866 0.0
C1896 C 0.30162 0.29036 0.19994 0.0
H1897 H 0.21707 0.32819 0.19335 0.0
H1898 H 0.24191 0.30977 0.18878 0.0
H1899 H 0.27185 0.31061 0.1753 0.0
H1900 H 0.35406 0.26981 0.21858 0.0
H1901 H 0.33137 0.29098 0.21829 0.0
C1902 C 0.74456 0.13562 0.7823 0.0
C1903 C 0.72818 0.14055 0.78767 0.0
C1904 C 0.75885 0.14527 0.78694 0.0
C1905 C 0.77056 0.18877 0.80139 0.0
H1906 H 0.81552 0.1682 0.80531 0.0
C1907 C 0.83165 0.22925 0.80897 0.0
C1908 C 0.84294 0.22646 0.79525 0.0
C1909 C 0.81845 0.21765 0.8123 0.0
C1910 C 0.803 0.17407 0.80441 0.0
H1911 H 0.71388 0.15892 0.8027 0.0
H1912 H 0.73885 0.17543 0.81132 0.0
H1913 H 0.79026 0.1499 0.80352 0.0
H1914 H 0.85001 0.20889 0.77499 0.0
H1915 H 0.82719 0.18849 0.78105 0.0
H1916 H 0.78341 0.21292 0.80222 0.0
C1917 C 0.74069 0.16446 0.80308 0.0
C1918 C 0.78854 0.16363 0.80322 0.0
C1919 C 0.72637 0.15498 0.79819 0.0
C1920 C 0.84143 0.21141 0.78558 0.0
C1921 C 0.82846 0.19968 0.78912 0.0
C1922 C 0.78498 0.19918 0.80287 0.0
C1923 C 0.7571 0.15989 0.7973 0.0
C1924 C 0.77219 0.17085 0.8011 0.0
C1925 C 0.81659 0.20293 0.80219 0.0
C1926 C 0.80134 0.19191 0.80386 0.0
H1927 H 0.7463 0.12456 0.77416 0.0
H1928 H 0.77121 0.1415 0.78195 0.0
H1929 H 0.75825 0.19485 0.79957 0.0
H1930 H 0.8325 0.24078 0.8166 0.0
H1931 H 0.80942 0.2204 0.82244 0.0
C1932 C 0.02153 0.59004 0.05117 0.0
C1933 C 0.02538 0.60467 0.0415 0.0
C1934 C 0.03337 0.57669 0.05236 0.0
C1935 C 0.06759 0.55947 0.02536 0.0
H1936 H 0.06997 0.52439 0.06032 0.0
C1937 C 0.10665 0.49776 0.01607 0.0
C1938 C 0.0986 0.48247 0.02098 0.0
C1939 C 0.09953 0.51352 0.02045 0.0
C1940 C 0.06936 0.53408 0.05044 0.0
H1941 H 0.04529 0.61791 0.02748 0.0
H1942 H 0.06623 0.59502 0.03024 0.0
H1943 H 0.05563 0.55145 0.06658 0.0
H1944 H 0.07674 0.47166 0.0342 0.0
H1945 H 0.06416 0.49925 0.04166 0.0
H1946 H 0.08098 0.54207 0.00913 0.0
C1947 C 0.05384 0.59344 0.03624 0.0
C1948 C 0.0612 0.54959 0.05403 0.0
C1949 C 0.04192 0.60662 0.03478 0.0
C1950 C 0.0832 0.48324 0.0302 0.0
C1951 C 0.07611 0.49902 0.03464 0.0
C1952 C 0.0758 0.54407 0.02183 0.0
C1953 C 0.04932 0.5779 0.04409 0.0
C1954 C 0.05996 0.56237 0.04142 0.0
C1955 C 0.08424 0.51433 0.02987 0.0
C1956 C 0.07652 0.53109 0.0342 0.0
H1957 H 0.00885 0.58819 0.05644 0.0
H1958 H 0.02941 0.56494 0.05852 0.0
H1959 H 0.06656 0.56879 0.01517 0.0
H1960 H 0.11858 0.49757 0.00903 0.0
H1961 H 0.10615 0.52509 0.01669 0.0
C1962 C 0.64938 0.76328 0.29253 0.0
C1963 C 0.63662 0.76156 0.28001 0.0
C1964 C 0.66144 0.77642 0.29141 0.0
C1965 C 0.6811 0.80507 0.25923 0.0
H1966 H 0.7034 0.82394 0.29933 0.0
C1967 C 0.73817 0.85323 0.25705 0.0
C1968 C 0.75237 0.84737 0.26639 0.0
C1969 C 0.72232 0.84501 0.25862 0.0
C1970 C 0.6972 0.81883 0.28803 0.0
H1971 H 0.62583 0.77291 0.25707 0.0
H1972 H 0.6465 0.79613 0.25543 0.0
H1973 H 0.67803 0.80611 0.3028 0.0
H1974 H 0.76116 0.82847 0.28472 0.0
H1975 H 0.73352 0.81442 0.28766 0.0
H1976 H 0.70042 0.81788 0.24453 0.0
C1977 C 0.64757 0.78703 0.26582 0.0
C1978 C 0.68275 0.80853 0.29 0.0
C1979 C 0.63565 0.77377 0.26682 0.0
C1980 C 0.75046 0.83325 0.27732 0.0
C1981 C 0.73462 0.82528 0.27912 0.0
C1982 C 0.69542 0.81559 0.25727 0.0
C1983 C 0.66089 0.78828 0.27785 0.0
C1984 C 0.67481 0.80109 0.27566 0.0
C1985 C 0.72041 0.83108 0.26983 0.0
C1986 C 0.70386 0.82215 0.27168 0.0
H1987 H 0.65054 0.75404 0.30279 0.0
H1988 H 0.67164 0.77678 0.30078 0.0
H1989 H 0.6755 0.79943 0.24789 0.0
H1990 H 0.73933 0.86409 0.24852 0.0
H1991 H 0.71152 0.84965 0.25128 0.0
C1992 C 0.88853 0.00176 0.04889 0.0
C1993 C 0.8938 0.01657 0.04029 0.0
C1994 C 0.90052 0.98959 0.05405 0.0
C1995 C 0.92571 0.96065 0.05279 0.0
H1996 H 0.97342 0.97213 0.06008 0.0
C1997 C 0.98948 0.925 0.03608 0.0
C1998 C 0.98878 0.91005 0.04599 0.0
C1999 C 0.97935 0.93904 0.04029 0.0
C2000 C 0.96008 0.96881 0.05833 0.0
H2001 H 0.91558 0.03047 0.03034 0.0
H2002 H 0.93642 0.00883 0.03824 0.0
H2003 H 0.9521 -0.0051 0.05887 0.0
H2004 H 0.97756 0.89814 0.06838 0.0
H2005 H 0.95913 0.92261 0.07531 0.0
H2006 H 0.93386 0.93453 0.05238 0.0
C2007 C 0.9232 0.00678 0.04177 0.0
C2008 C 0.94787 0.98181 0.0574 0.0
C2009 C 0.91124 0.01915 0.03704 0.0
C2010 C 0.97833 0.90959 0.0606 0.0
C2011 C 0.96783 0.9235 0.06455 0.0
C2012 C 0.93785 0.94767 0.05416 0.0
C2013 C 0.91801 0.99175 0.05025 0.0
C2014 C 0.9306 0.97794 0.05397 0.0
C2015 C 0.9681 0.93819 0.05424 0.0
C2016 C 0.95517 0.95169 0.05639 0.0
H2017 H 0.87513 -0.00036 0.05174 0.0
H2018 H 0.89602 0.97843 0.0609 0.0
H2019 H 0.91266 0.95705 0.04987 0.0
H2020 H -0.00247 0.92566 0.02481 0.0
H2021 H 0.9796 0.95021 0.03208 0.0
C2022 C 0.2528 0.63745 0.69221 0.0
C2023 C 0.26895 0.64458 0.69545 0.0
C2024 C 0.23857 0.64798 0.68991 0.0
C2025 C 0.21015 0.67233 0.69953 0.0
H2026 H 0.21152 0.71585 0.67573 0.0
C2027 C 0.16191 0.72519 0.71349 0.0
C2028 C 0.15425 0.73367 0.69958 0.0
C2029 C 0.17567 0.71419 0.71095 0.0
C2030 C 0.21091 0.70365 0.68226 0.0
H2031 H 0.28304 0.6683 0.69826 0.0
H2032 H 0.25815 0.6867 0.6945 0.0
H2033 H 0.2361 0.69649 0.67409 0.0
H2034 H 0.15547 0.73751 0.67208 0.0
H2035 H 0.17972 0.71818 0.66769 0.0
H2036 H 0.18514 0.6795 0.70789 0.0
C2037 C 0.25649 0.67298 0.69352 0.0
C2038 C 0.225 0.69265 0.68145 0.0
C2039 C 0.27073 0.66244 0.69581 0.0
C2040 C 0.16099 0.73113 0.68307 0.0
C2041 C 0.17491 0.72013 0.68055 0.0
C2042 C 0.19616 0.68333 0.70041 0.0
C2043 C 0.24021 0.66586 0.69082 0.0
C2044 C 0.22484 0.67697 0.69028 0.0
C2045 C 0.18221 0.7114 0.69447 0.0
C2046 C 0.19651 0.69922 0.69205 0.0
H2047 H 0.25108 0.62372 0.69172 0.0
H2048 H 0.22622 0.64212 0.68762 0.0
H2049 H 0.20967 0.66044 0.70662 0.0
H2050 H 0.15722 0.72693 0.72642 0.0
H2051 H 0.18127 0.70789 0.72196 0.0
C2052 C 0.00873 0.40404 0.44404 0.0
C2053 C 0.00452 0.39821 0.46054 0.0
C2054 C 0.01945 0.41819 0.44188 0.0
C2055 C 0.05236 0.44302 0.46472 0.0
H2056 H 0.04393 0.4771 0.42966 0.0
C2057 C 0.10125 0.49571 0.45131 0.0
C2058 C 0.09483 0.51237 0.44959 0.0
C2059 C 0.09022 0.48171 0.4509 0.0
C2060 C 0.0464 0.46772 0.43955 0.0
H2061 H 0.00786 0.40304 0.48772 0.0
H2062 H 0.0263 0.42775 0.48393 0.0
H2063 H 0.02415 0.45311 0.43298 0.0
H2064 H 0.07197 0.52747 0.44541 0.0
H2065 H 0.05259 0.50297 0.44497 0.0
H2066 H 0.07426 0.45776 0.47166 0.0
C2067 C 0.02164 0.42117 0.47265 0.0
C2068 C 0.03518 0.4539 0.44134 0.0
C2069 C 0.01102 0.40702 0.47481 0.0
C2070 C 0.07726 0.51475 0.44675 0.0
C2071 C 0.06618 0.50071 0.44644 0.0
C2072 C 0.06352 0.45679 0.46295 0.0
C2073 C 0.02612 0.42682 0.45617 0.0
C2074 C 0.03802 0.44144 0.454 0.0
C2075 C 0.07251 0.48407 0.44888 0.0
C2076 C 0.06069 0.4693 0.45035 0.0
H2077 H 0.00393 0.39757 0.43277 0.0
H2078 H 0.02278 0.42214 0.42902 0.0
H2079 H 0.05504 0.43353 0.47446 0.0
H2080 H 0.11477 0.49348 0.45334 0.0
H2081 H 0.09554 0.46902 0.45244 0.0
C2082 C 0.4554 0.59959 0.96215 0.0
C2083 C 0.47046 0.59853 0.95243 0.0
C2084 C 0.44226 0.58772 0.95981 0.0
C2085 C 0.42769 0.55157 0.93185 0.0
H2086 H 0.40686 0.53599 0.97412 0.0
C2087 C 0.39799 0.48467 0.94277 0.0
C2088 C 0.38263 0.48386 0.95206 0.0
C2089 C 0.40626 0.50031 0.94031 0.0
C2090 C 0.41236 0.54037 0.96216 0.0
H2091 H 0.48338 0.58458 0.93226 0.0
H2092 H 0.46088 0.56343 0.92869 0.0
H2093 H 0.42587 0.5605 0.97459 0.0
H2094 H 0.36343 0.49886 0.96532 0.0
H2095 H 0.37812 0.52612 0.96136 0.0
H2096 H 0.41481 0.53057 0.91974 0.0
C2097 C 0.45888 0.57368 0.93777 0.0
C2098 C 0.42322 0.55451 0.96239 0.0
C2099 C 0.47187 0.58577 0.93988 0.0
C2100 C 0.37533 0.49905 0.95823 0.0
C2101 C 0.38371 0.51465 0.95598 0.0
C2102 C 0.41701 0.53723 0.9317 0.0
C2103 C 0.44405 0.57427 0.94798 0.0
C2104 C 0.43122 0.5602 0.94728 0.0
C2105 C 0.39941 0.51537 0.94729 0.0
C2106 C 0.40941 0.53141 0.9469 0.0
H2107 H 0.45388 0.60945 0.97176 0.0
H2108 H 0.43086 0.5889 0.96758 0.0
H2109 H 0.43334 0.55575 0.91991 0.0
H2110 H 0.40385 0.47316 0.93777 0.0
H2111 H 0.41842 0.50051 0.93366 0.0
C2112 C 0.70181 0.75001 0.86306 0.0
C2113 C 0.69568 0.73476 0.85583 0.0
C2114 C 0.69987 0.76552 0.85435 0.0
C2115 C 0.67618 0.78718 0.81975 0.0
H2116 H 0.71881 0.81123 0.81195 0.0
C2117 C 0.68614 0.83327 0.76299 0.0
C2118 C 0.69839 0.84631 0.76444 0.0
C2119 C 0.68349 0.82185 0.77652 0.0
C2120 C 0.70666 0.80502 0.81428 0.0
H2121 H 0.682 0.72382 0.83431 0.0
H2122 H 0.67849 0.75089 0.81921 0.0
H2123 H 0.71809 0.78739 0.8318 0.0
H2124 H 0.71645 0.85855 0.78155 0.0
H2125 H 0.71128 0.8392 0.80539 0.0
H2126 H 0.66472 0.80473 0.80215 0.0
C2127 C 0.6848 0.75088 0.83156 0.0
C2128 C 0.70629 0.79128 0.82565 0.0
C2129 C 0.68695 0.73538 0.84013 0.0
C2130 C 0.70712 0.84842 0.78 0.0
C2131 C 0.70422 0.83725 0.79362 0.0
C2132 C 0.67647 0.80111 0.80853 0.0
C2133 C 0.69154 0.76604 0.83842 0.0
C2134 C 0.69117 0.78198 0.82819 0.0
C2135 C 0.69282 0.82343 0.79187 0.0
C2136 C 0.69182 0.80997 0.80533 0.0
H2137 H 0.70854 0.74992 0.87517 0.0
H2138 H 0.70511 0.77706 0.85994 0.0
H2139 H 0.6643 0.78029 0.82163 0.0
H2140 H 0.67928 0.83133 0.7511 0.0
H2141 H 0.67474 0.8113 0.77457 0.0
C2142 C 0.51738 0.45356 0.08159 0.0
C2143 C 0.51533 0.45685 0.09914 0.0
C2144 C 0.50322 0.45297 0.07075 0.0
C2145 C 0.45685 0.44651 0.06942 0.0
H2146 H 0.45945 0.47299 0.02749 0.0
C2147 C 0.4089 0.47431 0.01452 0.0
C2148 C 0.40027 0.45945 0.00924 0.0
C2149 C 0.42297 0.47325 0.02543 0.0
C2150 C 0.45855 0.46555 0.03915 0.0
H2151 H 0.49682 0.46171 0.11922 0.0
H2152 H 0.47192 0.46051 0.10019 0.0
H2153 H 0.48387 0.47242 0.04696 0.0
H2154 H 0.39961 0.43181 0.01133 0.0
H2155 H 0.42421 0.43 0.03069 0.0
H2156 H 0.43146 0.43969 0.06154 0.0
C2157 C 0.48455 0.4584 0.09488 0.0
C2158 C 0.47254 0.46513 0.05023 0.0
C2159 C 0.49877 0.45917 0.10573 0.0
C2160 C 0.40601 0.44348 0.01516 0.0
C2161 C 0.42 0.44244 0.02629 0.0
C2162 C 0.4429 0.44676 0.0582 0.0
C2163 C 0.48668 0.4555 0.07725 0.0
C2164 C 0.47181 0.45568 0.0655 0.0
C2165 C 0.42864 0.45733 0.03146 0.0
C2166 C 0.44359 0.45639 0.04304 0.0
H2167 H 0.52997 0.45169 0.07612 0.0
H2168 H 0.5052 0.45054 0.05724 0.0
H2169 H 0.45601 0.43904 0.08107 0.0
H2170 H 0.40486 0.48681 0.01013 0.0
H2171 H 0.42933 0.48493 0.02931 0.0
C2172 C 0.77954 0.25852 0.3311 0.0
C2173 C 0.77255 0.25833 0.34767 0.0
C2174 C 0.78358 0.24328 0.3228 0.0
C2175 C 0.7734 0.19769 0.32186 0.0
H2176 H 0.81581 0.19425 0.29628 0.0
C2177 C 0.7883 0.13682 0.28505 0.0
C2178 C 0.79343 0.13927 0.26801 0.0
C2179 C 0.7891 0.15023 0.29675 0.0
C2180 C 0.80391 0.19503 0.30331 0.0
H2181 H 0.76398 0.24205 0.36842 0.0
H2182 H 0.77092 0.21528 0.35379 0.0
H2183 H 0.80969 0.22009 0.31274 0.0
H2184 H 0.80459 0.15718 0.25007 0.0
H2185 H 0.80559 0.18089 0.2704 0.0
H2186 H 0.76725 0.173 0.31207 0.0
C2187 C 0.77328 0.22727 0.34727 0.0
C2188 C 0.8004 0.20981 0.31273 0.0
C2189 C 0.76929 0.24257 0.35563 0.0
C2190 C 0.80064 0.15497 0.26318 0.0
C2191 C 0.8012 0.16853 0.27485 0.0
C2192 C 0.77686 0.18297 0.3124 0.0
C2193 C 0.78065 0.2275 0.33085 0.0
C2194 C 0.78499 0.21137 0.3219 0.0
C2195 C 0.79475 0.16648 0.29156 0.0
C2196 C 0.79206 0.18153 0.30285 0.0
H2197 H 0.78217 0.27047 0.3246 0.0
H2198 H 0.78893 0.24385 0.31002 0.0
H2199 H 0.76134 0.1986 0.32861 0.0
H2200 H 0.78289 0.12473 0.28912 0.0
H2201 H 0.78452 0.14808 0.30965 0.0
C2202 C 0.97323 0.54566 0.57743 0.0
C2203 C 0.97421 0.54371 0.59526 0.0
C2204 C 0.98794 0.54909 0.56789 0.0
C2205 C 0.02018 0.56123 0.55014 0.0
H2206 H 0.05962 0.53458 0.56396 0.0
C2207 C 0.0821 0.55651 0.50909 0.0
C2208 C 0.0884 0.53976 0.50721 0.0
C2209 C 0.06928 0.56009 0.5211 0.0
C2210 C 0.04873 0.54214 0.55993 0.0
H2211 H 0.99106 0.54488 0.61726 0.0
H2212 H 0.01668 0.55135 0.60069 0.0
H2213 H 0.03472 0.53565 0.5824 0.0
H2214 H 0.0861 0.51369 0.51657 0.0
H2215 H 0.06386 0.51988 0.53713 0.0
H2216 H 0.03397 0.56676 0.52708 0.0
C2217 C 0.00467 0.54973 0.59397 0.0
C2218 C 0.03449 0.54295 0.57063 0.0
C2219 C 0.98999 0.54608 0.60348 0.0
C2220 C 0.08168 0.52676 0.51767 0.0
C2221 C 0.06897 0.53034 0.52961 0.0
C2222 C 0.03443 0.56031 0.53935 0.0
C2223 C 0.00391 0.55083 0.57601 0.0
C2224 C 0.01985 0.55212 0.56568 0.0
C2225 C 0.06262 0.54701 0.5315 0.0
C2226 C 0.04864 0.55031 0.54391 0.0
H2227 H 0.9612 0.54391 0.57076 0.0
H2228 H 0.98687 0.54961 0.55408 0.0
H2229 H 0.00923 0.56868 0.54607 0.0
H2230 H 0.08696 0.56682 0.50122 0.0
H2231 H 0.06465 0.57308 0.5223 0.0
C2232 C 0.71454 0.24087 0.62708 0.0
C2233 C 0.70732 0.25627 0.63276 0.0
C2234 C 0.71169 0.22571 0.63614 0.0
C2235 C 0.68429 0.20551 0.66923 0.0
H2236 H 0.72538 0.1799 0.67975 0.0
C2237 C 0.68943 0.1574 0.72552 0.0
C2238 C 0.70072 0.14357 0.72367 0.0
C2239 C 0.68799 0.16964 0.71251 0.0
C2240 C 0.71367 0.18663 0.67669 0.0
H2241 H 0.69091 0.26783 0.65192 0.0
H2242 H 0.68606 0.24147 0.66776 0.0
H2243 H 0.72691 0.20381 0.66007 0.0
H2244 H 0.71819 0.13085 0.70631 0.0
H2245 H 0.71521 0.15173 0.68347 0.0
H2246 H 0.67111 0.1884 0.68613 0.0
C2247 C 0.69381 0.24102 0.65628 0.0
C2248 C 0.71458 0.20039 0.66539 0.0
C2249 C 0.69673 0.25615 0.64728 0.0
C2250 C 0.70963 0.14158 0.70821 0.0
C2251 C 0.70799 0.1536 0.69515 0.0
C2252 C 0.68335 0.19163 0.6805 0.0
C2253 C 0.70151 0.2257 0.65098 0.0
C2254 C 0.69997 0.21012 0.6617 0.0
C2255 C 0.69764 0.16811 0.69736 0.0
C2256 C 0.69809 0.18214 0.68451 0.0
H2257 H 0.72268 0.24057 0.61586 0.0
H2258 H 0.71765 0.21404 0.63166 0.0
H2259 H 0.67278 0.21271 0.66649 0.0
H2260 H 0.68242 0.15923 0.73734 0.0
H2261 H 0.67996 0.1807 0.71468 0.0
C2262 C 0.09385 0.44406 0.94764 0.0
C2263 C 0.09453 0.43776 0.96448 0.0
C2264 C 0.08074 0.43905 0.93661 0.0
C2265 C 0.05353 0.42284 0.91392 0.0
H2266 H 0.00951 0.43128 0.93509 0.0
C2267 C 0.9767 0.43107 0.89659 0.0
C2268 C 0.9784 0.44115 0.88181 0.0
C2269 C 0.99114 0.4257 0.90559 0.0
C2270 C 0.02159 0.42843 0.92896 0.0
H2271 H 0.0826 0.42041 0.98258 0.0
H2272 H 0.05952 0.41185 0.9633 0.0
H2273 H 0.03493 0.42969 0.9528 0.0
H2274 H -0.00352 0.45298 0.86445 0.0
H2275 H 0.02171 0.4442 0.8805 0.0
H2276 H 0.04021 0.422 0.89 0.0
C2277 C 0.06916 0.42068 0.95871 0.0
C2278 C 0.0362 0.42753 0.93916 0.0
C2279 C 0.0824 0.42555 0.96971 0.0
C2280 C -0.00519 0.44524 0.87583 0.0
C2281 C 0.00927 0.44006 0.88497 0.0
C2282 C 0.03887 0.42358 0.9037 0.0
C2283 C 0.06795 0.42776 0.94222 0.0
C2284 C 0.05238 0.42529 0.9317 0.0
C2285 C 0.0076 0.4305 0.90016 0.0
C2286 C 0.02279 0.42696 0.91105 0.0
H2287 H 0.10309 0.45335 0.94315 0.0
H2288 H 0.08007 0.44483 0.92402 0.0
H2289 H 0.06585 0.4209 0.90788 0.0
H2290 H 0.96418 0.42752 0.90135 0.0
H2291 H 0.98937 0.41805 0.91701 0.0
C2292 C 0.81063 0.82931 0.22111 0.0
C2293 C 0.79917 0.84188 0.2153 0.0
C2294 C 0.81499 0.81554 0.21056 0.0
C2295 C 0.807 0.78238 0.19194 0.0
H2296 H 0.81146 0.7847 0.14255 0.0
C2297 C 0.78619 0.73988 0.13031 0.0
C2298 C 0.79063 0.72352 0.13618 0.0
C2299 C 0.79174 0.75441 0.13912 0.0
C2300 C 0.81019 0.78385 0.15633 0.0
H2301 H 0.78452 0.85067 0.1934 0.0
H2302 H 0.79206 0.82675 0.17513 0.0
H2303 H 0.8143 0.81073 0.15959 0.0
H2304 H 0.80496 0.70949 0.15537 0.0
H2305 H 0.81484 0.73482 0.17056 0.0
H2306 H 0.80203 0.75575 0.18874 0.0
C2307 C 0.79769 0.82745 0.18779 0.0
C2308 C 0.81191 0.79872 0.16608 0.0
C2309 C 0.79323 0.84109 0.19834 0.0
C2310 C 0.80115 0.72195 0.15067 0.0
C2311 C 0.8068 0.73646 0.15939 0.0
C2312 C 0.80522 0.76754 0.18221 0.0
C2313 C 0.80812 0.81421 0.19398 0.0
C2314 C 0.80981 0.79822 0.18394 0.0
C2315 C 0.80192 0.75286 0.1539 0.0
C2316 C 0.80628 0.76818 0.16425 0.0
H2317 H 0.81548 0.8296 0.2341 0.0
H2318 H 0.82321 0.80559 0.2156 0.0
H2319 H 0.80507 0.78159 0.20564 0.0
H2320 H 0.77811 0.74145 0.11916 0.0
H2321 H 0.78753 0.76682 0.13467 0.0
C2322 C 0.40091 0.54957 0.4806 0.0
C2323 C 0.38958 0.53577 0.48251 0.0
C2324 C 0.41227 0.55015 0.4668 0.0
C2325 C 0.4329 0.52117 0.43536 0.0
H2326 H 0.45095 0.5638 0.41757 0.0
C2327 C 0.48592 0.52437 0.38355 0.0
C2328 C 0.50028 0.53371 0.389 0.0
C2329 C 0.47053 0.52536 0.39265 0.0
C2330 C 0.44593 0.55181 0.42238 0.0
H2331 H 0.38051 0.5123 0.47089 0.0
H2332 H 0.39975 0.51365 0.44644 0.0
H2333 H 0.42668 0.56431 0.43722 0.0
H2334 H 0.50969 0.55186 0.40773 0.0
H2335 H 0.4827 0.55387 0.42335 0.0
H2336 H 0.45217 0.50876 0.42035 0.0
C2337 C 0.40038 0.52373 0.45591 0.0
C2338 C 0.43212 0.55208 0.43374 0.0
C2339 C 0.38924 0.52301 0.46987 0.0
C2340 C 0.49883 0.54446 0.40331 0.0
C2341 C 0.48338 0.54571 0.41217 0.0
C2342 C 0.4465 0.52092 0.42378 0.0
C2343 C 0.41237 0.53707 0.45441 0.0
C2344 C 0.42569 0.53678 0.44074 0.0
C2345 C 0.46917 0.53599 0.40707 0.0
C2346 C 0.45339 0.53625 0.41752 0.0
H2347 H 0.40157 0.55955 0.4902 0.0
H2348 H 0.42145 0.5605 0.46632 0.0
H2349 H 0.42857 0.50913 0.44064 0.0
H2350 H 0.48669 0.51598 0.37257 0.0
H2351 H 0.45972 0.51775 0.38849 0.0
C2352 C 0.75406 0.69376 0.83596 0.0
C2353 C 0.75621 0.70552 0.84936 0.0
C2354 C 0.76674 0.69181 0.82351 0.0
C2355 C 0.80401 0.7147 0.80514 0.0
H2356 H 0.8118 0.67135 0.78237 0.0
C2357 C 0.85659 0.70557 0.75432 0.0
C2358 C 0.8505 0.69918 0.73866 0.0
C2359 C 0.84633 0.70492 0.76893 0.0
C2360 C 0.80973 0.68351 0.78867 0.0
H2361 H 0.77361 0.7239 0.86071 0.0
H2362 H 0.79598 0.72004 0.83943 0.0
H2363 H 0.79176 0.67283 0.80631 0.0
H2364 H 0.82931 0.68638 0.72615 0.0
H2365 H 0.81151 0.68496 0.75182 0.0
H2366 H 0.82217 0.72527 0.78757 0.0
C2367 C 0.78429 0.71273 0.83812 0.0
C2368 C 0.7982 0.68441 0.8023 0.0
C2369 C 0.7715 0.71489 0.85039 0.0
C2370 C 0.83429 0.69147 0.73804 0.0
C2371 C 0.82414 0.69058 0.75272 0.0
C2372 C 0.81572 0.71372 0.79171 0.0
C2373 C 0.78196 0.70138 0.82435 0.0
C2374 C 0.79502 0.70008 0.81056 0.0
C2375 C 0.82996 0.69758 0.7682 0.0
C2376 C 0.81852 0.69818 0.78323 0.0
H2377 H 0.74236 0.68643 0.83477 0.0
H2378 H 0.76434 0.68316 0.81297 0.0
H2379 H 0.80167 0.72706 0.81091 0.0
H2380 H 0.86907 0.71152 0.75519 0.0
H2381 H 0.85111 0.71031 0.78078 0.0
C2382 C 0.53804 0.5285 0.09506 0.0
C2383 C 0.54694 0.51294 0.096 0.0
C2384 C 0.54059 0.53954 0.08128 0.0
C2385 C 0.54923 0.53775 0.03637 0.0
H2386 H 0.55353 0.58701 0.03957 0.0
C2387 C 0.54324 0.58061 0.97659 0.0
C2388 C 0.5343 0.59601 0.97872 0.0
C2389 C 0.54809 0.57094 0.99082 0.0
C2390 C 0.55217 0.57328 0.03845 0.0
H2391 H 0.56598 0.49701 0.08363 0.0
H2392 H 0.57011 0.51623 0.05923 0.0
H2393 H 0.55665 0.56953 0.06527 0.0
H2394 H 0.52332 0.61338 -0.00269 0.0
H2395 H 0.53103 0.59623 0.02205 0.0
H2396 H 0.54366 0.54138 0.00988 0.0
C2397 C 0.56132 0.51988 0.06929 0.0
C2398 C 0.55411 0.56331 0.05314 0.0
C2399 C 0.559 0.50896 0.08326 0.0
C2400 C 0.53027 0.60157 -0.00471 0.0
C2401 C 0.53487 0.5918 0.0095 0.0
C2402 C 0.54701 0.54773 0.02173 0.0
C2403 C 0.55188 0.5351 0.06804 0.0
C2404 C 0.55234 0.54549 0.05227 0.0
C2405 C 0.54386 0.57636 0.00747 0.0
C2406 C 0.54808 0.56566 0.02265 0.0
H2407 H 0.52872 0.53191 0.10473 0.0
H2408 H 0.53306 0.55114 0.08052 0.0
H2409 H 0.5476 0.52403 0.03543 0.0
H2410 H 0.54667 0.57612 0.96393 0.0
H2411 H 0.55523 0.55926 0.98876 0.0
C2412 C 0.65018 0.29678 0.23082 0.0
C2413 C 0.63365 0.28975 0.2312 0.0
C2414 C 0.65838 0.30152 0.24597 0.0
C2415 C 0.67039 0.317 0.27967 0.0
H2416 H 0.66897 0.2828 0.3155 0.0
C2417 C 0.69997 0.29886 0.35091 0.0
C2418 C 0.71728 0.30244 0.34779 0.0
C2419 C 0.68773 0.30162 0.33822 0.0
C2420 C 0.66925 0.29274 0.30587 0.0
H2421 H 0.6125 0.28265 0.24767 0.0
H2422 H 0.62686 0.29088 0.27422 0.0
H2423 H 0.65115 0.27936 0.29038 0.0
H2424 H 0.73527 0.31285 0.32949 0.0
H2425 H 0.714 0.31717 0.30701 0.0
H2426 H 0.68887 0.33017 0.29507 0.0
C2427 C 0.63352 0.29262 0.26219 0.0
C2428 C 0.65901 0.29072 0.2914 0.0
C2429 C 0.62529 0.28793 0.247 0.0
C2430 C 0.72198 0.31006 0.33222 0.0
C2431 C 0.70975 0.31254 0.31936 0.0
C2432 C 0.68061 0.31909 0.29424 0.0
C2433 C 0.65024 0.29927 0.26185 0.0
C2434 C 0.6597 0.30263 0.27798 0.0
C2435 C 0.6926 0.30765 0.32198 0.0
C2436 C 0.68038 0.30681 0.30739 0.0
H2437 H 0.65694 0.2984 0.21883 0.0
H2438 H 0.67134 0.30639 0.24528 0.0
H2439 H 0.67104 0.32651 0.26961 0.0
H2440 H 0.69599 0.29319 0.36292 0.0
H2441 H 0.67457 0.29821 0.34087 0.0
C2442 C 0.93579 0.47528 0.58592 0.0
C2443 C 0.95231 0.48081 0.59039 0.0
C2444 C 0.93353 0.46207 0.57409 0.0
C2445 C 0.95674 0.42662 0.55272 0.0
H2446 H 0.92134 0.43129 0.51828 0.0
C2447 C 0.94947 0.37679 0.49931 0.0
C2448 C 0.94744 0.38354 0.48278 0.0
C2449 C 0.94729 0.38721 0.51366 0.0
C2450 C 0.9313 0.4298 0.52779 0.0
H2451 H 0.97941 0.47686 0.58585 0.0
H2452 H 0.97547 0.45418 0.565 0.0
H2453 H 0.92367 0.45251 0.54096 0.0
H2454 H 0.9408 0.40622 0.46827 0.0
H2455 H 0.9374 0.42447 0.49321 0.0
H2456 H 0.96499 0.40448 0.53907 0.0
C2457 C 0.96425 0.45972 0.57092 0.0
C2458 C 0.93251 0.44186 0.54092 0.0
C2459 C 0.96651 0.47283 0.58281 0.0
C2460 C 0.94244 0.40066 0.48087 0.0
C2461 C 0.94039 0.4111 0.49519 0.0
C2462 C 0.9556 0.41464 0.53955 0.0
C2463 C 0.94774 0.45418 0.56641 0.0
C2464 C 0.94546 0.44058 0.55335 0.0
C2465 C 0.94315 0.4046 0.51175 0.0
C2466 C 0.94306 0.41625 0.52675 0.0
H2467 H 0.92457 0.48109 0.59158 0.0
H2468 H 0.92065 0.45797 0.57105 0.0
H2469 H 0.96667 0.42508 0.56227 0.0
H2470 H 0.95317 0.36358 0.50116 0.0
H2471 H 0.94919 0.38171 0.52624 0.0
C2472 C 0.82767 0.29311 0.77221 0.0
C2473 C 0.8445 0.28817 0.76834 0.0
C2474 C 0.81607 0.29672 0.7591 0.0
C2475 C 0.81274 0.30674 0.71297 0.0
H2476 H 0.76966 0.28228 0.71572 0.0
C2477 C 0.76269 0.2754 0.66383 0.0
C2478 C 0.75839 0.28907 0.65299 0.0
C2479 C 0.77129 0.27835 0.67915 0.0
C2480 C 0.78156 0.28934 0.71487 0.0
H2481 H 0.86258 0.28363 0.7478 0.0
H2482 H 0.84229 0.28985 0.7249 0.0
H2483 H 0.78898 0.28228 0.74024 0.0
H2484 H 0.75949 0.31658 0.6498 0.0
H2485 H 0.77507 0.3217 0.67661 0.0
H2486 H 0.80554 0.31318 0.68728 0.0
C2487 C 0.8381 0.29108 0.73805 0.0
C2488 C 0.79256 0.28943 0.72892 0.0
C2489 C 0.84967 0.28737 0.75115 0.0
C2490 C 0.76268 0.30582 0.6579 0.0
C2491 C 0.77159 0.30874 0.67318 0.0
C2492 C 0.80164 0.30677 0.69894 0.0
C2493 C 0.82113 0.29557 0.74189 0.0
C2494 C 0.80849 0.2977 0.72793 0.0
C2495 C 0.77597 0.295 0.68391 0.0
C2496 C 0.78621 0.2976 0.6996 0.0
H2497 H 0.82335 0.29392 0.78536 0.0
H2498 H 0.80309 0.30025 0.76242 0.0
H2499 H 0.82486 0.31338 0.71195 0.0
H2500 H 0.7594 0.26237 0.66049 0.0
H2501 H 0.77469 0.26751 0.68708 0.0
C2502 C 0.97131 0.51901 0.89148 0.0
C2503 C 0.96006 0.50503 0.89199 0.0
C2504 C 0.97176 0.53076 0.90489 0.0
C2505 C 0.94824 0.54494 0.94389 0.0
H2506 H 0.99275 0.56308 0.95629 0.0
C2507 C 0.96189 0.58023 0.00742 0.0
C2508 C 0.96996 0.59618 0.00573 0.0
C2509 C 0.9605 0.56929 0.99337 0.0
C2510 C 0.98024 0.55818 0.95288 0.0
H2511 H 0.94027 0.49247 0.90678 0.0
H2512 H 0.94149 0.51259 0.93058 0.0
H2513 H 0.99025 0.54369 0.93204 0.0
H2514 H 0.98331 0.61306 0.98823 0.0
H2515 H 0.98125 0.59369 0.96372 0.0
H2516 H 0.93845 0.55906 0.96526 0.0
C2517 C 0.94966 0.5148 0.91962 0.0
C2518 C 0.97875 0.54715 0.93892 0.0
C2519 C 0.94898 0.50321 0.90601 0.0
C2520 C 0.97697 0.60085 0.98986 0.0
C2521 C 0.97585 0.58978 0.97588 0.0
C2522 C 0.9498 0.55575 0.95803 0.0
C2523 C 0.96122 0.52861 0.91932 0.0
C2524 C 0.96271 0.54043 0.93418 0.0
C2525 C 0.96744 0.574 0.97749 0.0
C2526 C 0.9658 0.56249 0.96259 0.0
H2527 H 0.97984 0.52084 0.88071 0.0
H2528 H 0.98048 0.54147 0.90395 0.0
H2529 H 0.93565 0.54027 0.94049 0.0
H2530 H 0.95636 0.57632 0.01952 0.0
H2531 H 0.9541 0.55711 -0.00506 0.0
C2532 C 0.63081 0.69631 0.24687 0.0
C2533 C 0.63875 0.69818 0.26287 0.0
C2534 C 0.64057 0.69291 0.23227 0.0
C2535 C 0.66516 0.69924 0.20302 0.0
H2536 H 0.70713 0.67285 0.2046 0.0
C2537 C 0.71969 0.71135 0.1561 0.0
C2538 C 0.72912 0.6975 0.14959 0.0
C2539 C 0.70761 0.7089 0.16896 0.0
C2540 C 0.69532 0.68005 0.20385 0.0
H2541 H 0.66304 0.69748 0.27627 0.0
H2542 H 0.68007 0.69202 0.25086 0.0
H2543 H 0.68744 0.67204 0.22883 0.0
H2544 H 0.73327 0.67015 0.15171 0.0
H2545 H 0.71196 0.66587 0.17426 0.0
H2546 H 0.673 0.70726 0.17808 0.0
C2547 C 0.6663 0.69282 0.24953 0.0
C2548 C 0.68413 0.67975 0.21781 0.0
C2549 C 0.65655 0.69612 0.2641 0.0
C2550 C 0.72624 0.6811 0.15642 0.0
C2551 C 0.71407 0.67865 0.16936 0.0
C2552 C 0.67629 0.69949 0.18907 0.0
C2553 C 0.65848 0.6914 0.23339 0.0
C2554 C 0.66915 0.68972 0.21774 0.0
C2555 C 0.70455 0.69254 0.17568 0.0
C2556 C 0.69174 0.69031 0.18953 0.0
H2557 H 0.61708 0.6977 0.24558 0.0
H2558 H 0.63411 0.69166 0.22007 0.0
H2559 H 0.65382 0.70717 0.20254 0.0
H2560 H 0.72163 0.7242 0.1513 0.0
H2561 H 0.70082 0.71995 0.17382 0.0
C2562 C 0.52799 0.46147 0.39727 0.0
C2563 C 0.53666 0.47719 0.39654 0.0
C2564 C 0.53184 0.44961 0.41003 0.0
C2565 C 0.54663 0.44767 0.45382 0.0
H2566 H 0.54879 0.39885 0.4455 0.0
C2567 C 0.54778 0.39988 0.50971 0.0
C2568 C 0.53674 0.38583 0.50795 0.0
C2569 C 0.55167 0.41015 0.49561 0.0
C2570 C 0.54815 0.41244 0.44805 0.0
H2571 H 0.55646 0.49264 0.40839 0.0
H2572 H 0.56295 0.47193 0.43093 0.0
H2573 H 0.54847 0.41865 0.42133 0.0
H2574 H 0.52158 0.37112 0.48998 0.0
H2575 H 0.5279 0.38926 0.46552 0.0
H2576 H 0.54539 0.44158 0.48043 0.0
C2577 C 0.55325 0.46883 0.42153 0.0
C2578 C 0.54804 0.42375 0.43422 0.0
C2579 C 0.54955 0.48063 0.40861 0.0
C2580 C 0.5301 0.38189 0.49173 0.0
C2581 C 0.53387 0.39222 0.47767 0.0
C2582 C 0.54658 0.43637 0.46765 0.0
C2583 C 0.54429 0.45329 0.42244 0.0
C2584 C 0.54688 0.44145 0.43698 0.0
C2585 C 0.54448 0.40664 0.47949 0.0
C2586 C 0.5469 0.4186 0.46491 0.0
H2587 H 0.51806 0.45839 0.3881 0.0
H2588 H 0.5246 0.43781 0.41056 0.0
H2589 H 0.54556 0.46125 0.45631 0.0
H2590 H 0.55322 0.40311 0.52205 0.0
H2591 H 0.56011 0.42098 0.4974 0.0
C2592 C 0.72395 0.82334 0.70139 0.0
C2593 C 0.72675 0.84097 0.70341 0.0
C2594 C 0.73779 0.81212 0.70005 0.0
C2595 C 0.78399 0.80985 0.69069 0.0
H2596 H 0.78334 0.77085 0.72136 0.0
C2597 C 0.83429 0.76132 0.72501 0.0
C2598 C 0.84337 0.75461 0.71102 0.0
C2599 C 0.81981 0.77138 0.7224 0.0
C2600 C 0.78367 0.78168 0.71271 0.0
H2601 H 0.74611 0.86075 0.70506 0.0
H2602 H 0.77026 0.84115 0.7027 0.0
H2603 H 0.75818 0.78916 0.71919 0.0
H2604 H 0.8446 0.7536 0.68328 0.0
H2605 H 0.81935 0.77153 0.67876 0.0
H2606 H 0.80967 0.80248 0.6845 0.0
C2607 C 0.7574 0.83602 0.70208 0.0
C2608 C 0.76923 0.79205 0.71134 0.0
C2609 C 0.74358 0.84721 0.70357 0.0
C2610 C 0.83789 0.75858 0.69433 0.0
C2611 C 0.82347 0.76885 0.69173 0.0
C2612 C 0.7984 0.79935 0.69193 0.0
C2613 C 0.75465 0.81834 0.70055 0.0
C2614 C 0.76935 0.80642 0.70057 0.0
C2615 C 0.81416 0.7751 0.70576 0.0
C2616 C 0.79848 0.78538 0.70323 0.0
H2617 H 0.7111 0.81818 0.70117 0.0
H2618 H 0.73531 0.79856 0.69876 0.0
H2619 H 0.78436 0.82077 0.68218 0.0
H2620 H 0.83808 0.75846 0.73803 0.0
H2621 H 0.81298 0.77624 0.73344 0.0
C2622 C 0.23494 0.64167 0.27395 0.0
C2623 C 0.21805 0.64713 0.27647 0.0
C2624 C 0.24856 0.6515 0.27985 0.0
C2625 C 0.26042 0.69511 0.29257 0.0
H2626 H 0.30106 0.67181 0.30897 0.0
C2627 C 0.32351 0.73067 0.30714 0.0
C2628 C 0.33675 0.72443 0.29669 0.0
C2629 C 0.30848 0.72122 0.30924 0.0
C2630 C 0.28972 0.67848 0.3046 0.0
H2631 H 0.20207 0.66719 0.28697 0.0
H2632 H 0.22597 0.68438 0.29751 0.0
H2633 H 0.275 0.6555 0.30363 0.0
H2634 H 0.34518 0.70309 0.28115 0.0
H2635 H 0.31912 0.68646 0.28511 0.0
H2636 H 0.27538 0.71805 0.29325 0.0
C2637 C 0.22867 0.67256 0.29082 0.0
C2638 C 0.27486 0.66916 0.30141 0.0
C2639 C 0.215 0.66275 0.28478 0.0
C2640 C 0.33512 0.70823 0.28918 0.0
C2641 C 0.32028 0.69867 0.29155 0.0
C2642 C 0.27526 0.70447 0.29596 0.0
C2643 C 0.2456 0.66695 0.28856 0.0
C2644 C 0.26028 0.67727 0.29468 0.0
C2645 C 0.30668 0.70525 0.30124 0.0
C2646 C 0.2902 0.6961 0.30137 0.0
H2647 H 0.23766 0.62973 0.26748 0.0
H2648 H 0.26145 0.64703 0.27746 0.0
H2649 H 0.24944 0.70173 0.28736 0.0
H2650 H 0.32445 0.74317 0.31303 0.0
H2651 H 0.29812 0.72652 0.31676 0.0
C2652 C 0.52819 0.09859 0.52492 0.0
C2653 C 0.51379 0.09739 0.53559 0.0
C2654 C 0.54098 0.08617 0.52556 0.0
C2655 C 0.55604 0.04784 0.55009 0.0
H2656 H 0.57397 0.03463 0.50572 0.0
C2657 C 0.58502 0.98165 0.53496 0.0
C2658 C 0.60079 0.98152 0.52636 0.0
C2659 C 0.57616 -0.00305 0.53733 0.0
C2660 C 0.56922 0.03831 0.51821 0.0
H2661 H 0.50174 0.08264 0.55573 0.0
H2662 H 0.52364 0.06055 0.55638 0.0
H2663 H 0.55549 0.0595 0.50797 0.0
H2664 H 0.61965 -0.0028 0.51341 0.0
H2665 H 0.60383 0.02397 0.51712 0.0
H2666 H 0.56914 0.02588 0.56002 0.0
C2667 C 0.52541 0.0713 0.54783 0.0
C2668 C 0.5587 0.05265 0.51957 0.0
C2669 C 0.51278 0.08394 0.54743 0.0
C2670 C 0.60752 -0.00304 0.5201 0.0
C2671 C 0.59849 0.01223 0.5222 0.0
C2672 C 0.56634 0.0333 0.54865 0.0
C2673 C 0.53949 0.07203 0.5366 0.0
C2674 C 0.55181 0.05754 0.5355 0.0
C2675 C 0.58276 0.01235 0.53088 0.0
C2676 C 0.57288 0.02835 0.53267 0.0
H2677 H 0.52939 0.10896 0.51581 0.0
H2678 H 0.55186 0.08748 0.51708 0.0
H2679 H 0.55129 0.05135 0.56261 0.0
H2680 H 0.57957 0.96994 0.53996 0.0
H2681 H 0.56397 -0.00329 0.54391 0.0
C2682 C 0.25917 0.34079 0.8068 0.0
C2683 C 0.25894 0.35677 0.79859 0.0
C2684 C 0.24421 0.33111 0.80819 0.0
C2685 C 0.20797 0.31642 0.81408 0.0
H2686 H 0.18777 0.30928 0.76933 0.0
C2687 C 0.14855 0.27825 0.77814 0.0
C2688 C 0.14913 0.26274 0.78715 0.0
C2689 C 0.16038 0.29115 0.78156 0.0
C2690 C 0.1929 0.31135 0.78203 0.0
H2691 H 0.24267 0.37571 0.78651 0.0
H2692 H 0.21661 0.35859 0.78858 0.0
H2693 H 0.21059 0.33001 0.7727 0.0
H2694 H 0.16236 0.24861 0.80699 0.0
H2695 H 0.18361 0.2708 0.81242 0.0
H2696 H 0.19018 0.29786 0.82349 0.0
C2697 C 0.22839 0.35358 0.7939 0.0
C2698 C 0.20605 0.32323 0.78391 0.0
C2699 C 0.24329 0.36336 0.79273 0.0
C2700 C 0.16159 0.26049 0.7999 0.0
C2701 C 0.17369 0.27328 0.80308 0.0
C2702 C 0.19455 0.3047 0.81226 0.0
C2703 C 0.22883 0.33719 0.80122 0.0
C2704 C 0.21384 0.32574 0.79989 0.0
C2705 C 0.17337 0.28872 0.79379 0.0
C2706 C 0.18697 0.30187 0.79615 0.0
H2707 H 0.27103 0.33544 0.81156 0.0
H2708 H 0.24489 0.31848 0.81383 0.0
H2709 H 0.21378 0.31818 0.82654 0.0
H2710 H 0.13891 0.28044 0.76843 0.0
H2711 H 0.15937 0.30301 0.77448 0.0
C2712 C 0.41428 0.5218 0.54144 0.0
C2713 C 0.39705 0.52035 0.54619 0.0
C2714 C 0.42544 0.50808 0.54384 0.0
C2715 C 0.44886 0.47938 0.5545 0.0
H2716 H 0.4297 0.43441 0.54608 0.0
C2717 C 0.47599 0.40694 0.55466 0.0
C2718 C 0.483 0.40507 0.53819 0.0
C2719 C 0.46641 0.42145 0.55877 0.0
C2720 C 0.43512 0.44689 0.5487 0.0
H2721 H 0.3781 0.50404 0.55809 0.0
H2722 H 0.39773 0.4804 0.56316 0.0
H2723 H 0.4108 0.45907 0.5475 0.0
H2724 H 0.48622 0.41716 0.51341 0.0
H2725 H 0.46974 0.44271 0.5208 0.0
H2726 H 0.47338 0.46697 0.55434 0.0
C2727 C 0.40256 0.49177 0.5569 0.0
C2728 C 0.42433 0.46105 0.54963 0.0
C2729 C 0.39132 0.50533 0.55412 0.0
C2730 C 0.4808 0.41821 0.52613 0.0
C2731 C 0.47153 0.43283 0.53035 0.0
C2732 C 0.45967 0.46521 0.55324 0.0
C2733 C 0.41967 0.49277 0.55138 0.0
C2734 C 0.43107 0.47754 0.55226 0.0
C2735 C 0.4641 0.4344 0.54659 0.0
C2736 C 0.45283 0.44896 0.55013 0.0
H2737 H 0.41896 0.53325 0.5352 0.0
H2738 H 0.4384 0.5093 0.53912 0.0
H2739 H 0.45451 0.49179 0.55689 0.0
H2740 H 0.47748 0.39697 0.56418 0.0
H2741 H 0.46061 0.42248 0.57132 0.0
C2742 C 0.65367 0.22705 0.19511 0.0
C2743 C 0.64121 0.22654 0.20807 0.0
C2744 C 0.66681 0.21496 0.19473 0.0
C2745 C 0.69904 0.19664 0.20666 0.0
H2746 H 0.69176 0.14783 0.21148 0.0
C2747 C 0.7409 0.13176 0.22189 0.0
C2748 C 0.75555 0.13598 0.21241 0.0
C2749 C 0.72622 0.14196 0.22079 0.0
C2750 C 0.69402 0.16143 0.21036 0.0
H2751 H 0.63234 0.21244 0.23032 0.0
H2752 H 0.65521 0.19125 0.22948 0.0
H2753 H 0.66717 0.16714 0.21036 0.0
H2754 H 0.76615 0.15355 0.19375 0.0
H2755 H 0.74054 0.17082 0.19129 0.0
H2756 H 0.72576 0.19126 0.20728 0.0
C2757 C 0.65481 0.20106 0.2197 0.0
C2758 C 0.67994 0.17245 0.20961 0.0
C2759 C 0.6418 0.21327 0.22022 0.0
C2760 C 0.75511 0.15015 0.20142 0.0
C2761 C 0.74044 0.16013 0.2001 0.0
C2762 C 0.71308 0.1857 0.20764 0.0
C2763 C 0.66762 0.202 0.20715 0.0
C2764 C 0.68236 0.19014 0.20765 0.0
C2765 C 0.7259 0.15641 0.21001 0.0
C2766 C 0.71078 0.16794 0.20935 0.0
H2767 H 0.65359 0.23709 0.18556 0.0
H2768 H 0.67648 0.21587 0.18484 0.0
H2769 H 0.70126 0.21026 0.2055 0.0
H2770 H 0.74095 0.12089 0.23048 0.0
H2771 H 0.71531 0.13879 0.22872 0.0
C2772 C 0.59295 0.00028 0.94244 0.0
C2773 C 0.58836 0.01762 0.94242 0.0
C2774 C 0.5808 0.98774 0.93876 0.0
C2775 C 0.53505 0.98063 0.94258 0.0
H2776 H 0.54571 0.93794 0.91973 0.0
C2777 C 0.50402 0.90917 0.93063 0.0
C2778 C 0.49988 0.90532 0.94772 0.0
C2779 C 0.51266 0.9243 0.92661 0.0
C2780 C 0.54241 0.94989 0.92588 0.0
H2781 H 0.56773 0.03554 0.93769 0.0
H2782 H 0.54646 0.01358 0.93129 0.0
H2783 H 0.56558 0.96197 0.91763 0.0
H2784 H 0.50089 0.91467 0.97387 0.0
H2785 H 0.51592 0.94091 0.96686 0.0
H2786 H 0.51216 0.9684 0.95129 0.0
C2787 C 0.55942 0.0097 0.93429 0.0
C2788 C 0.55384 0.96358 0.92481 0.0
C2789 C 0.57159 0.02225 0.93792 0.0
C2790 C 0.50403 0.91715 0.9606 0.0
C2791 C 0.51248 0.9323 0.95656 0.0
C2792 C 0.52366 0.96695 0.9437 0.0
C2793 C 0.56382 0.99231 0.93501 0.0
C2794 C 0.55052 0.97889 0.9336 0.0
C2795 C 0.51708 0.93594 0.93957 0.0
C2796 C 0.52751 0.95128 0.93582 0.0
H2797 H 0.6058 -0.00365 0.9458 0.0
H2798 H 0.58453 0.97444 0.93963 0.0
H2799 H 0.53216 0.99223 0.94957 0.0
H2800 H 0.50093 0.90033 0.92042 0.0
H2801 H 0.51601 0.92686 0.9134 0.0
C2802 C 0.97059 0.07901 0.42682 0.0
C2803 C 0.96717 0.09356 0.43674 0.0
C2804 C 0.95789 0.06664 0.42429 0.0
C2805 C 0.91921 0.05138 0.44653 0.0
H2806 H 0.91654 0.01956 0.4086 0.0
C2807 C 0.87343 -0.00567 0.44883 0.0
C2808 C 0.88103 0.97851 0.44511 0.0
C2809 C 0.88174 0.00955 0.4446 0.0
C2810 C 0.91715 0.02839 0.41926 0.0
H2811 H 0.94749 0.10754 0.4503 0.0
H2812 H 0.92513 0.08649 0.4452 0.0
H2813 H 0.93486 0.04485 0.40631 0.0
H2814 H 0.90287 0.96617 0.43329 0.0
H2815 H 0.91749 0.99279 0.42606 0.0
H2816 H 0.90181 0.03489 0.45959 0.0
C2817 C 0.93775 0.08414 0.44 0.0
C2818 C 0.92765 0.04284 0.41797 0.0
C2819 C 0.95051 0.09628 0.44281 0.0
C2820 C 0.89675 0.97819 0.4364 0.0
C2821 C 0.90505 -0.00657 0.43213 0.0
C2822 C 0.90866 0.03708 0.44774 0.0
C2823 C 0.94149 0.06877 0.43143 0.0
C2824 C 0.92901 0.05439 0.43172 0.0
C2825 C 0.89782 0.00926 0.43654 0.0
C2826 C 0.90771 0.02528 0.43425 0.0
H2827 H 0.98338 0.0766 0.42205 0.0
H2828 H 0.96129 0.05495 0.4177 0.0
H2829 H 0.9202 0.05968 0.45757 0.0
H2830 H 0.86124 -0.00502 0.45539 0.0
H2831 H 0.87575 0.02157 0.44796 0.0
C2832 C 0.05704 0.11652 0.39088 0.0
C2833 C 0.05206 0.12863 0.40316 0.0
C2834 C 0.07283 0.11818 0.38254 0.0
C2835 C 0.10817 0.14854 0.37429 0.0
H2836 H 0.13865 0.11075 0.3846 0.0
C2837 C 0.17633 0.16 0.39239 0.0
C2838 C 0.18872 0.15407 0.38084 0.0
C2839 C 0.15973 0.15365 0.39182 0.0
C2840 C 0.13022 0.12122 0.38128 0.0
H2841 H 0.05873 0.15245 0.41555 0.0
H2842 H 0.08587 0.15567 0.40074 0.0
H2843 H 0.10758 0.10686 0.38712 0.0
H2844 H 0.19395 0.13578 0.36067 0.0
H2845 H 0.16459 0.12438 0.35988 0.0
H2846 H 0.13077 0.16325 0.36972 0.0
C2847 C 0.07782 0.14485 0.39753 0.0
C2848 C 0.11249 0.11901 0.38263 0.0
C2849 C 0.06233 0.143 0.40607 0.0
C2850 C 0.18463 0.14049 0.36977 0.0
C2851 C 0.16788 0.13406 0.36923 0.0
C2852 C 0.12579 0.15075 0.37302 0.0
C2853 C 0.08352 0.13219 0.38613 0.0
C2854 C 0.10138 0.13292 0.37993 0.0
C2855 C 0.15521 0.1412 0.37974 0.0
C2856 C 0.13694 0.13734 0.37725 0.0
H2857 H 0.04933 0.10523 0.38862 0.0
H2858 H 0.07697 0.10826 0.37381 0.0
H2859 H 0.09988 0.1594 0.37197 0.0
H2860 H 0.17918 0.17035 0.40116 0.0
H2861 H 0.15016 0.15912 0.40022 0.0
C2862 C 0.09006 0.93134 0.61971 0.0
C2863 C 0.07891 0.93555 0.63316 0.0
C2864 C 0.09757 0.91514 0.61903 0.0
C2865 C 0.10977 0.87752 0.64285 0.0
H2866 H 0.08786 0.84973 0.60796 0.0
C2867 C 0.08844 0.80859 0.64907 0.0
C2868 C 0.10367 0.79915 0.64954 0.0
C2869 C 0.08798 0.82443 0.64088 0.0
C2870 C 0.09442 0.85744 0.61743 0.0
H2871 H 0.06786 0.92689 0.65705 0.0
H2872 H 0.08167 0.89884 0.65627 0.0
H2873 H 0.08453 0.88098 0.6074 0.0
H2874 H 0.1299 0.79793 0.64068 0.0
H2875 H 0.12925 0.82608 0.6269 0.0
H2876 H 0.11905 0.85397 0.6533 0.0
C2877 C 0.08434 0.90793 0.64615 0.0
C2878 C 0.09255 0.87521 0.61713 0.0
C2879 C 0.07646 0.92391 0.6466 0.0
C2880 C 0.11794 0.80491 0.64026 0.0
C2881 C 0.11762 0.821 0.63246 0.0
C2882 C 0.11198 0.85983 0.6429 0.0
C2883 C 0.09442 0.90322 0.63206 0.0
C2884 C 0.09971 0.88527 0.6302 0.0
C2885 C 0.10286 0.83112 0.63342 0.0
C2886 C 0.10386 0.84966 0.63053 0.0
H2887 H 0.09197 0.94006 0.6091 0.0
H2888 H 0.10528 0.91167 0.60804 0.0
H2889 H 0.11522 0.88506 0.65313 0.0
H2890 H 0.07735 0.80443 0.65628 0.0
H2891 H 0.07654 0.83217 0.64189 0.0
C2892 C 0.43226 0.82576 0.90882 0.0
C2893 C 0.43934 0.84203 0.90634 0.0
C2894 C 0.41685 0.82146 0.90105 0.0
C2895 C 0.38258 0.83181 0.87144 0.0
H2896 H 0.35405 0.8225 0.91105 0.0
C2897 C 0.30864 0.82115 0.8684 0.0
C2898 C 0.30322 0.80653 0.87736 0.0
C2899 C 0.32542 0.82716 0.87024 0.0
C2900 C 0.36184 0.82502 0.89985 0.0
H2901 H 0.4372 0.86583 0.89231 0.0
H2902 H 0.40985 0.85832 0.87881 0.0
H2903 H 0.38436 0.82814 0.91493 0.0
H2904 H 0.3109 0.78693 0.89544 0.0
H2905 H 0.33991 0.79734 0.89867 0.0
H2906 H 0.35989 0.82819 0.85634 0.0
C2907 C 0.41632 0.84892 0.88666 0.0
C2908 C 0.37916 0.8282 0.90206 0.0
C2909 C 0.43193 0.85318 0.89435 0.0
C2910 C 0.31468 0.79825 0.88839 0.0
C2911 C 0.33129 0.80426 0.8903 0.0
C2912 C 0.3651 0.82846 0.86918 0.0
C2913 C 0.40822 0.83346 0.89087 0.0
C2914 C 0.38976 0.83116 0.88788 0.0
C2915 C 0.33687 0.81872 0.88122 0.0
C2916 C 0.35471 0.82461 0.88338 0.0
H2917 H 0.43788 0.81691 0.91789 0.0
H2918 H 0.4109 0.80936 0.90424 0.0
H2919 H 0.39055 0.83428 0.86037 0.0
H2920 H 0.30006 0.82771 0.85972 0.0
H2921 H 0.32942 0.83838 0.86317 0.0
C2922 C 0.3595 0.17634 0.13701 0.0
C2923 C 0.37537 0.18082 0.14414 0.0
C2924 C 0.35769 0.16088 0.12819 0.0
C2925 C 0.3598 0.12146 0.13235 0.0
H2926 H 0.39046 0.10108 0.09914 0.0
C2927 C 0.39753 0.05991 0.13956 0.0
C2928 C 0.39851 0.04852 0.12576 0.0
C2929 C 0.38776 0.07476 0.13824 0.0
C2930 C 0.38144 0.1066 0.10811 0.0
H2931 H 0.40206 0.17389 0.14629 0.0
H2932 H 0.39912 0.14733 0.13014 0.0
H2933 H 0.38756 0.13222 0.10045 0.0
H2934 H 0.38942 0.04303 0.10014 0.0
H2935 H 0.37289 0.06958 0.09753 0.0
H2936 H 0.35529 0.09596 0.14138 0.0
C2937 C 0.38805 0.15555 0.13151 0.0
C2938 C 0.37983 0.12436 0.10886 0.0
C2939 C 0.38975 0.1707 0.14075 0.0
C2940 C 0.38869 0.05159 0.11101 0.0
C2941 C 0.3793 0.06673 0.10948 0.0
C2942 C 0.36172 0.10373 0.13186 0.0
C2943 C 0.37185 0.15008 0.12599 0.0
C2944 C 0.36954 0.13193 0.12146 0.0
C2945 C 0.37921 0.07864 0.12291 0.0
C2946 C 0.37309 0.09625 0.1202 0.0
H2947 H 0.3482 0.18387 0.13972 0.0
H2948 H 0.34507 0.15681 0.12414 0.0
H2949 H 0.35197 0.12704 0.14234 0.0
H2950 H 0.40506 0.0578 0.15102 0.0
H2951 H 0.38803 0.08387 0.14868 0.0
C2952 C 0.17971 0.82249 0.09018 0.0
C2953 C 0.19006 0.82489 0.10462 0.0
C2954 C 0.16334 0.82942 0.08959 0.0
C2955 C 0.12798 0.8389 0.1175 0.0
H2956 H 0.10794 0.85598 0.07543 0.0
C2957 C 0.05682 0.85849 0.09601 0.0
C2958 C 0.05191 0.84758 0.08257 0.0
C2959 C 0.07309 0.85695 0.10335 0.0
C2960 C 0.11343 0.85143 0.08733 0.0
H2961 H 0.19188 0.83693 0.12951 0.0
H2962 H 0.16282 0.84896 0.12861 0.0
H2963 H 0.13899 0.85411 0.07804 0.0
H2964 H 0.05902 0.8252 0.06787 0.0
H2965 H 0.08729 0.82248 0.08077 0.0
H2966 H 0.10212 0.83557 0.12638 0.0
C2967 C 0.16752 0.8418 0.11772 0.0
C2968 C 0.13113 0.85036 0.08883 0.0
C2969 C 0.18413 0.83509 0.11816 0.0
C2970 C 0.06255 0.83385 0.0781 0.0
C2971 C 0.0787 0.83229 0.08546 0.0
C2972 C 0.11016 0.84002 0.116 0.0
C2973 C 0.15687 0.83869 0.10356 0.0
C2974 C 0.13857 0.84349 0.10366 0.0
C2975 C 0.08439 0.84437 0.09741 0.0
C2976 C 0.10285 0.84576 0.10066 0.0
H2977 H 0.18401 0.81462 0.07961 0.0
H2978 H 0.15537 0.82664 0.07858 0.0
H2979 H 0.13341 0.83342 0.12902 0.0
H2980 H 0.04886 0.86922 0.09965 0.0
H2981 H 0.07735 0.86642 0.11252 0.0
C2982 C 0.42416 0.91766 0.35223 0.0
C2983 C 0.41639 0.93184 0.35998 0.0
C2984 C 0.41729 0.90141 0.35432 0.0
C2985 C 0.38004 0.87642 0.36117 0.0
H2986 H 0.4134 0.8424 0.37509 0.0
C2987 C 0.36934 0.80487 0.34866 0.0
C2988 C 0.3822 0.79941 0.33737 0.0
C2989 C 0.37158 0.81984 0.35822 0.0
C2990 C 0.40382 0.85175 0.37155 0.0
H2991 H 0.39469 0.94031 0.3751 0.0
H2992 H 0.38235 0.91158 0.37835 0.0
H2993 H 0.42022 0.87273 0.37776 0.0
H2994 H 0.40788 0.80418 0.32817 0.0
H2995 H 0.412 0.82993 0.34506 0.0
H2996 H 0.36419 0.85539 0.35361 0.0
C2997 C 0.39395 0.91321 0.37095 0.0
C2998 C 0.40772 0.86905 0.37302 0.0
C2999 C 0.40097 0.92958 0.36901 0.0
C3000 C 0.39778 0.80822 0.33676 0.0
C3001 C 0.40016 0.82287 0.34654 0.0
C3002 C 0.37613 0.85904 0.35963 0.0
C3003 C 0.40243 0.89899 0.36407 0.0
C3004 C 0.39626 0.88144 0.36695 0.0
C3005 C 0.38688 0.82917 0.35687 0.0
C3006 C 0.38842 0.84662 0.36389 0.0
H3007 H 0.43596 0.91898 0.34508 0.0
H3008 H 0.42379 0.89063 0.34854 0.0
H3009 H 0.37103 0.88582 0.35645 0.0
H3010 H 0.35718 0.79826 0.34923 0.0
H3011 H 0.36117 0.8245 0.36607 0.0
C3012 C 0.43293 0.14895 0.59011 0.0
C3013 C 0.43989 0.13257 0.58842 0.0
C3014 C 0.41903 0.15169 0.60088 0.0
C3015 C 0.38107 0.1289 0.61135 0.0
H3016 H 0.36949 0.17191 0.63307 0.0
C3017 C 0.31117 0.15336 0.61961 0.0
C3018 C 0.3091 0.17028 0.6139 0.0
C3019 C 0.32757 0.14644 0.62161 0.0
C3020 C 0.37255 0.15975 0.62717 0.0
H3021 H 0.43881 0.10638 0.59724 0.0
H3022 H 0.41397 0.11105 0.61594 0.0
H3023 H 0.39948 0.1638 0.62995 0.0
H3024 H 0.3225 0.19302 0.60529 0.0
H3025 H 0.3509 0.18095 0.60858 0.0
H3026 H 0.35417 0.12543 0.6075 0.0
C3027 C 0.41947 0.12182 0.60917 0.0
C3028 C 0.38967 0.15508 0.6255 0.0
C3029 C 0.43368 0.11917 0.5986 0.0
C3030 C 0.32365 0.17997 0.60978 0.0
C3031 C 0.33994 0.17313 0.61188 0.0
C3032 C 0.36391 0.13359 0.61303 0.0
C3033 C 0.4116 0.13797 0.60982 0.0
C3034 C 0.39411 0.14007 0.61673 0.0
C3035 C 0.34209 0.15642 0.61809 0.0
C3036 C 0.35958 0.14949 0.6201 0.0
H3037 H 0.43751 0.15938 0.58221 0.0
H3038 H 0.41314 0.16422 0.60092 0.0
H3039 H 0.38411 0.11731 0.60442 0.0
H3040 H 0.30017 0.14562 0.62293 0.0
H3041 H 0.3289 0.13347 0.62627 0.0
C3042 C 0.11909 0.18386 0.84556 0.0
C3043 C 0.10677 0.18841 0.83331 0.0
C3044 C 0.1162 0.16988 0.8564 0.0
C3045 C 0.08303 0.13968 0.87146 0.0
H3046 H 0.11559 0.10398 0.86024 0.0
C3047 C 0.08692 0.06119 0.87352 0.0
C3048 C 0.07097 0.05822 0.86572 0.0
C3049 C 0.0934 0.07785 0.8748 0.0
C3050 C 0.1066 0.11384 0.86391 0.0
H3051 H 0.0814 0.18318 0.82355 0.0
H3052 H 0.07608 0.15927 0.84274 0.0
H3053 H 0.12298 0.13388 0.85492 0.0
H3054 H 0.04961 0.07025 0.85268 0.0
H3055 H 0.06088 0.09903 0.85484 0.0
H3056 H 0.0662 0.11961 0.87933 0.0
C3057 C 0.08799 0.16625 0.844 0.0
C3058 C 0.11084 0.13096 0.86094 0.0
C3059 C 0.09105 0.17986 0.83295 0.0
C3060 C 0.06189 0.07208 0.85885 0.0
C3061 C 0.06825 0.08862 0.86026 0.0
C3062 C 0.07882 0.12262 0.87445 0.0
C3063 C 0.10078 0.16069 0.85535 0.0
C3064 C 0.09869 0.1439 0.86378 0.0
C3065 C 0.08389 0.09173 0.8685 0.0
C3066 C 0.09018 0.10952 0.86977 0.0
H3067 H 0.13138 0.19025 0.84589 0.0
H3068 H 0.12625 0.16578 0.86501 0.0
H3069 H 0.07354 0.14945 0.87393 0.0
H3070 H 0.09418 0.05073 0.87896 0.0
H3071 H 0.10559 0.07994 0.88105 0.0
C3072 C 0.16793 0.39737 0.17552 0.0
C3073 C 0.16261 0.3848 0.18717 0.0
C3074 C 0.16023 0.39863 0.15954 0.0
C3075 C 0.12538 0.39114 0.13157 0.0
H3076 H 0.16129 0.38395 0.098 0.0
C3077 C 0.11738 0.40214 0.05792 0.0
C3078 C 0.1289 0.4149 0.05269 0.0
C3079 C 0.11934 0.39426 0.07392 0.0
C3080 C 0.15106 0.38569 0.1072 0.0
H3081 H 0.14406 0.36473 0.19196 0.0
H3082 H 0.13044 0.36705 0.16365 0.0
H3083 H 0.16728 0.37943 0.1283 0.0
H3084 H 0.15181 0.42895 0.05947 0.0
H3085 H 0.15552 0.41495 0.087 0.0
H3086 H 0.10949 0.39851 0.11037 0.0
C3087 C 0.14063 0.37581 0.16703 0.0
C3088 C 0.15448 0.38315 0.12447 0.0
C3089 C 0.14838 0.37454 0.18317 0.0
C3090 C 0.14276 0.41915 0.06324 0.0
C3091 C 0.14492 0.41109 0.07894 0.0
C3092 C 0.12193 0.39373 0.11415 0.0
C3093 C 0.14707 0.38736 0.1549 0.0
C3094 C 0.14191 0.38657 0.13681 0.0
C3095 C 0.13311 0.39879 0.08456 0.0
C3096 C 0.13502 0.39174 0.10196 0.0
H3097 H 0.17871 0.4056 0.17837 0.0
H3098 H 0.16519 0.40781 0.1504 0.0
H3099 H 0.11554 0.39383 0.14095 0.0
H3100 H 0.10652 0.39878 0.04999 0.0
H3101 H 0.11009 0.38483 0.07807 0.0
C3102 C 0.65524 0.09734 0.81521 0.0
C3103 C 0.65577 0.11124 0.80389 0.0
C3104 C 0.64674 0.09878 0.83083 0.0
C3105 C 0.61992 0.10816 0.86029 0.0
H3106 H 0.65361 0.12843 0.89065 0.0
C3107 C 0.61557 0.0982 0.93246 0.0
C3108 C 0.62926 0.08742 0.93679 0.0
C3109 C 0.61631 0.10805 0.91751 0.0
C3110 C 0.64383 0.1232 0.88232 0.0
H3111 H 0.64725 0.13721 0.79946 0.0
H3112 H 0.63283 0.13992 0.82731 0.0
H3113 H 0.65684 0.13133 0.85957 0.0
H3114 H 0.65497 0.07967 0.93019 0.0
H3115 H 0.65661 0.09745 0.90458 0.0
H3116 H 0.60748 0.09908 0.88295 0.0
C3117 C 0.6386 0.12784 0.8238 0.0
C3118 C 0.64565 0.12488 0.86461 0.0
C3119 C 0.64673 0.12624 0.8079 0.0
C3120 C 0.64435 0.08804 0.92714 0.0
C3121 C 0.64526 0.09821 0.9125 0.0
C3122 C 0.61789 0.10678 0.87801 0.0
C3123 C 0.63901 0.11425 0.83551 0.0
C3124 C 0.63411 0.11674 0.85352 0.0
C3125 C 0.63092 0.10754 0.90705 0.0
C3126 C 0.63028 0.11359 0.88914 0.0
H3127 H 0.66228 0.08574 0.81243 0.0
H3128 H 0.64732 0.08823 0.83981 0.0
H3129 H 0.61104 0.1016 0.8519 0.0
H3130 H 0.60371 0.0977 0.93961 0.0
H3131 H 0.60509 0.11511 0.91351 0.0
C3132 C 0.80717 0.87768 0.32023 0.0
C3133 C 0.81671 0.87214 0.30606 0.0
C3134 C 0.8136 0.87595 0.33675 0.0
C3135 C 0.85245 0.87418 0.36156 0.0
H3136 H 0.82087 0.86065 0.39741 0.0
C3137 C 0.8661 0.89108 0.43154 0.0
C3138 C 0.85283 0.90156 0.43754 0.0
C3139 C 0.86345 0.88057 0.41725 0.0
C3140 C 0.82995 0.86421 0.38756 0.0
H3141 H 0.8407 0.86074 0.29806 0.0
H3142 H 0.85222 0.85813 0.32723 0.0
H3143 H 0.8132 0.8561 0.36748 0.0
H3144 H 0.82612 0.90819 0.43467 0.0
H3145 H 0.82133 0.88969 0.41017 0.0
H3146 H 0.86868 0.88339 0.3816 0.0
C3147 C 0.83964 0.86361 0.32539 0.0
C3148 C 0.82555 0.86166 0.37044 0.0
C3149 C 0.83308 0.86518 0.30875 0.0
C3150 C 0.83653 0.90021 0.43021 0.0
C3151 C 0.8338 0.88953 0.41623 0.0
C3152 C 0.85685 0.87677 0.37872 0.0
C3153 C 0.8298 0.86874 0.33955 0.0
C3154 C 0.83636 0.86745 0.35729 0.0
C3155 C 0.8474 0.8802 0.4091 0.0
C3156 C 0.84523 0.87264 0.39183 0.0
H3157 H 0.79453 0.88312 0.31863 0.0
H3158 H 0.8059 0.88041 0.34737 0.0
H3159 H 0.86102 0.87874 0.35166 0.0
H3160 H 0.87881 0.89203 0.43698 0.0
H3161 H 0.87412 0.87345 0.41204 0.0
C3162 C 0.8377 0.11956 0.17763 0.0
C3163 C 0.82332 0.10895 0.17986 0.0
C3164 C 0.8446 0.12212 0.16123 0.0
C3165 C 0.83081 0.12416 0.11749 0.0
H3166 H 0.87316 0.10391 0.1017 0.0
C3167 C 0.83694 0.08766 0.05628 0.0
C3168 C 0.85257 0.08644 0.04766 0.0
C3169 C 0.83529 0.09839 0.07039 0.0
C3170 C 0.86156 0.11021 0.10589 0.0
H3171 H 0.80566 0.09185 0.16693 0.0
H3172 H 0.81758 0.09642 0.13859 0.0
H3173 H 0.86778 0.10656 0.13243 0.0
H3174 H 0.87846 0.0961 0.04607 0.0
H3175 H 0.87572 0.1148 0.07118 0.0
H3176 H 0.82396 0.12668 0.0911 0.0
C3177 C 0.82336 0.1029 0.1494 0.0
C3178 C 0.8585 0.11165 0.12348 0.0
C3179 C 0.81662 0.10023 0.16565 0.0
C3180 C 0.86619 0.09711 0.05244 0.0
C3181 C 0.86467 0.10766 0.06685 0.0
C3182 C 0.83389 0.12281 0.09997 0.0
C3183 C 0.83704 0.11422 0.14698 0.0
C3184 C 0.84269 0.11774 0.12933 0.0
C3185 C 0.8494 0.10781 0.07639 0.0
C3186 C 0.84883 0.11484 0.094 0.0
H3187 H 0.84309 0.12648 0.18836 0.0
H3188 H 0.85529 0.13077 0.15957 0.0
H3189 H 0.81855 0.12899 0.1218 0.0
H3190 H 0.82637 0.07934 0.05288 0.0
H3191 H 0.82342 0.09802 0.07754 0.0
C3192 C 0.37831 0.60259 0.55775 0.0
C3193 C 0.36305 0.59333 0.55576 0.0
C3194 C 0.38046 0.6134 0.57187 0.0
C3195 C 0.35879 0.63392 0.60843 0.0
H3196 H 0.39116 0.60948 0.63704 0.0
C3197 C 0.3503 0.63525 0.68003 0.0
C3198 C 0.34524 0.61863 0.68449 0.0
C3199 C 0.35997 0.63802 0.66522 0.0
C3200 C 0.38245 0.61684 0.62916 0.0
H3201 H 0.3376 0.58911 0.56571 0.0
H3202 H 0.34097 0.60859 0.58985 0.0
H3203 H 0.39207 0.60587 0.60599 0.0
H3204 H 0.34745 0.59183 0.67826 0.0
H3205 H 0.36489 0.59649 0.65282 0.0
H3206 H 0.34824 0.64376 0.63164 0.0
C3207 C 0.35133 0.60747 0.58071 0.0
C3208 C 0.383 0.61484 0.61139 0.0
C3209 C 0.34938 0.59631 0.56694 0.0
C3210 C 0.35152 0.60471 0.67517 0.0
C3211 C 0.36148 0.60743 0.66061 0.0
C3212 C 0.35842 0.63614 0.62616 0.0
C3213 C 0.36717 0.6154 0.58381 0.0
C3214 C 0.37048 0.62252 0.60101 0.0
C3215 C 0.36486 0.62415 0.65491 0.0
C3216 C 0.36955 0.62675 0.63673 0.0
H3217 H 0.38911 0.60021 0.54939 0.0
H3218 H 0.3928 0.61929 0.57408 0.0
H3219 H 0.34901 0.63994 0.60067 0.0
H3220 H 0.34526 0.64617 0.68691 0.0
H3221 H 0.36236 0.65101 0.66105 0.0
C3222 C 0.15005 0.59729 0.30775 0.0
C3223 C 0.14947 0.61168 0.29708 0.0
C3224 C 0.14255 0.59777 0.32392 0.0
C3225 C 0.11699 0.60667 0.35558 0.0
H3226 H 0.15452 0.6222 0.38419 0.0
C3227 C 0.11774 0.59513 0.42834 0.0
C3228 C 0.13103 0.58356 0.43183 0.0
C3229 C 0.11774 0.60448 0.41306 0.0
C3230 C 0.14375 0.61827 0.3764 0.0
H3231 H 0.13996 0.63752 0.29432 0.0
H3232 H 0.12714 0.63852 0.32309 0.0
H3233 H 0.15568 0.62663 0.35317 0.0
H3234 H 0.15537 0.57372 0.42307 0.0
H3235 H 0.15575 0.59057 0.39677 0.0
H3236 H 0.10553 0.59733 0.37869 0.0
C3237 C 0.133 0.62679 0.31867 0.0
C3238 C 0.14438 0.62084 0.35873 0.0
C3239 C 0.1402 0.62616 0.30225 0.0
C3240 C 0.14502 0.58261 0.42065 0.0
C3241 C 0.14524 0.59227 0.40565 0.0
C3242 C 0.1162 0.60437 0.37332 0.0
C3243 C 0.13467 0.61277 0.32975 0.0
C3244 C 0.13133 0.61445 0.34818 0.0
C3245 C 0.13128 0.60272 0.40138 0.0
C3246 C 0.12994 0.60946 0.38376 0.0
H3247 H 0.15738 0.58613 0.30408 0.0
H3248 H 0.14412 0.58692 0.3324 0.0
H3249 H 0.10696 0.60142 0.34758 0.0
H3250 H 0.10672 0.59592 0.43671 0.0
H3251 H 0.10683 0.61244 0.40997 0.0
C3252 C 0.377 0.39754 0.93468 0.0
C3253 C 0.36176 0.40621 0.93862 0.0
C3254 C 0.3782 0.38784 0.91968 0.0
C3255 C 0.35427 0.36759 0.88477 0.0
H3256 H 0.38292 0.39349 0.85356 0.0
C3257 C 0.34433 0.36306 0.8126 0.0
C3258 C 0.33707 0.37877 0.80783 0.0
C3259 C 0.35399 0.36182 0.82765 0.0
C3260 C 0.37527 0.38577 0.86217 0.0
H3261 H 0.33547 0.41039 0.93105 0.0
H3262 H 0.33731 0.39285 0.90526 0.0
H3263 H 0.38598 0.39754 0.88448 0.0
H3264 H 0.33551 0.40572 0.81377 0.0
H3265 H 0.35302 0.40376 0.83956 0.0
H3266 H 0.34278 0.35667 0.86244 0.0
C3267 C 0.34838 0.39371 0.91358 0.0
C3268 C 0.37703 0.38804 0.87982 0.0
C3269 C 0.34733 0.40379 0.92826 0.0
C3270 C 0.34108 0.39351 0.81719 0.0
C3271 C 0.35112 0.39237 0.8319 0.0
C3272 C 0.35277 0.36505 0.86714 0.0
C3273 C 0.364 0.38627 0.90878 0.0
C3274 C 0.36589 0.37967 0.89118 0.0
C3275 C 0.35689 0.37639 0.83773 0.0
C3276 C 0.3626 0.37483 0.85569 0.0
H3277 H 0.38836 0.39938 0.94241 0.0
H3278 H 0.39039 0.38229 0.91614 0.0
H3279 H 0.34553 0.36106 0.89332 0.0
H3280 H 0.34121 0.35149 0.80566 0.0
H3281 H 0.35823 0.34937 0.83198 0.0
C3282 C 0.55274 0.61272 0.89491 0.0
C3283 C 0.54964 0.62717 0.90509 0.0
C3284 C 0.56711 0.61219 0.88424 0.0
C3285 C 0.60097 0.63701 0.86386 0.0
H3286 H 0.63375 0.60954 0.88905 0.0
C3287 C 0.67341 0.64947 0.8608 0.0
C3288 C 0.67686 0.65781 0.87634 0.0
C3289 C 0.6587 0.63941 0.8591 0.0
C3290 C 0.62471 0.61679 0.88144 0.0
H3291 H 0.55794 0.65282 0.91126 0.0
H3292 H 0.58257 0.65224 0.89203 0.0
H3293 H 0.60309 0.60471 0.89312 0.0
H3294 H 0.66877 0.66123 0.9026 0.0
H3295 H 0.64352 0.64301 0.89988 0.0
H3296 H 0.62261 0.64999 0.85322 0.0
C3297 C 0.57409 0.64128 0.89239 0.0
C3298 C 0.60722 0.61403 0.88372 0.0
C3299 C 0.56011 0.6416 0.90342 0.0
C3300 C 0.66632 0.65487 0.89053 0.0
C3301 C 0.65198 0.6444 0.88899 0.0
C3302 C 0.61846 0.63951 0.86128 0.0
C3303 C 0.5781 0.62634 0.88328 0.0
C3304 C 0.59529 0.62484 0.87577 0.0
C3305 C 0.64772 0.63715 0.87311 0.0
C3306 C 0.6304 0.63012 0.87087 0.0
H3307 H 0.54486 0.60139 0.89622 0.0
H3308 H 0.57014 0.60049 0.87748 0.0
H3309 H 0.59195 0.64556 0.85774 0.0
H3310 H 0.68133 0.65177 0.84966 0.0
H3311 H 0.65547 0.63409 0.84671 0.0
C3312 C 0.59737 0.3109 0.15003 0.0
C3313 C 0.61198 0.30122 0.1537 0.0
C3314 C 0.59861 0.32545 0.13982 0.0
C3315 C 0.62658 0.35989 0.13745 0.0
H3316 H 0.59324 0.37792 0.10543 0.0
C3317 C 0.59773 0.42946 0.11643 0.0
C3318 C 0.58657 0.43208 0.13028 0.0
C3319 C 0.60677 0.41408 0.11496 0.0
C3320 C 0.60299 0.37304 0.114 0.0
H3321 H 0.6391 0.29829 0.1489 0.0
H3322 H 0.64144 0.32442 0.13159 0.0
H3323 H 0.59714 0.34694 0.10794 0.0
H3324 H 0.57696 0.42151 0.15402 0.0
H3325 H 0.59336 0.39499 0.15186 0.0
H3326 H 0.63084 0.38591 0.145 0.0
C3327 C 0.62899 0.32043 0.13619 0.0
C3328 C 0.60518 0.35538 0.11544 0.0
C3329 C 0.62764 0.30553 0.14602 0.0
C3330 C 0.58555 0.41977 0.14328 0.0
C3331 C 0.59492 0.40467 0.14205 0.0
C3332 C 0.62411 0.37753 0.13625 0.0
C3333 C 0.61458 0.33081 0.13356 0.0
C3334 C 0.61641 0.34867 0.12776 0.0
C3335 C 0.60512 0.4015 0.12763 0.0
C3336 C 0.61177 0.38412 0.12505 0.0
H3337 H 0.58521 0.3078 0.15593 0.0
H3338 H 0.58735 0.33336 0.13816 0.0
H3339 H 0.63515 0.35502 0.1472 0.0
H3340 H 0.59854 0.43872 0.10615 0.0
H3341 H 0.61446 0.41173 0.10367 0.0
C3342 C 0.81239 0.33797 0.36555 0.0
C3343 C 0.80944 0.32251 0.37429 0.0
C3344 C 0.82912 0.34426 0.36373 0.0
C3345 C 0.87335 0.32896 0.36323 0.0
H3346 H 0.88691 0.37127 0.38513 0.0
C3347 C 0.92995 0.33543 0.40668 0.0
C3348 C 0.93941 0.35061 0.40747 0.0
C3349 C 0.9166 0.33378 0.39499 0.0
C3350 C 0.88337 0.35968 0.37842 0.0
H3351 H 0.82153 0.30203 0.38865 0.0
H3352 H 0.85032 0.31289 0.38544 0.0
H3353 H 0.85664 0.36586 0.3793 0.0
H3354 H 0.94319 0.37562 0.39615 0.0
H3355 H 0.91924 0.37295 0.37596 0.0
H3356 H 0.89983 0.32207 0.36375 0.0
C3357 C 0.83987 0.31999 0.37971 0.0
C3358 C 0.86605 0.3566 0.37512 0.0
C3359 C 0.82333 0.31386 0.38167 0.0
C3360 C 0.93608 0.36374 0.39566 0.0
C3361 C 0.9224 0.36225 0.38419 0.0
C3362 C 0.89059 0.33201 0.36655 0.0
C3363 C 0.843 0.335 0.37043 0.0
C3364 C 0.86088 0.34076 0.3685 0.0
C3365 C 0.91225 0.34744 0.38413 0.0
C3366 C 0.89561 0.34692 0.37515 0.0
H3367 H 0.8019 0.34488 0.35972 0.0
H3368 H 0.83127 0.35602 0.35674 0.0
H3369 H 0.86963 0.31672 0.3579 0.0
H3370 H 0.93232 0.32515 0.41567 0.0
H3371 H 0.90887 0.32229 0.39539 0.0
C3372 C 0.86351 0.67844 0.65197 0.0
C3373 C 0.87671 0.67846 0.66422 0.0
C3374 C 0.86081 0.66407 0.64164 0.0
C3375 C 0.85766 0.62153 0.64374 0.0
H3376 H 0.88668 0.60728 0.60615 0.0
C3377 C 0.89526 0.5611 0.64071 0.0
C3378 C 0.89833 0.55287 0.62512 0.0
C3379 C 0.88417 0.575 0.64141 0.0
C3380 C 0.87797 0.61113 0.61621 0.0
H3381 H 0.89816 0.66421 0.67446 0.0
H3382 H 0.89374 0.63936 0.65606 0.0
H3383 H 0.88493 0.63754 0.61369 0.0
H3384 H 0.89161 0.55166 0.59827 0.0
H3385 H 0.87269 0.57672 0.59931 0.0
H3386 H 0.8524 0.59494 0.64767 0.0
C3387 C 0.88539 0.65033 0.65465 0.0
C3388 C 0.87703 0.62843 0.62052 0.0
C3389 C 0.8879 0.66449 0.66515 0.0
C3390 C 0.88921 0.55781 0.61046 0.0
C3391 C 0.87845 0.57209 0.61104 0.0
C3392 C 0.85878 0.60422 0.63958 0.0
C3393 C 0.87155 0.64984 0.64325 0.0
C3394 C 0.86758 0.63355 0.63485 0.0
C3395 C 0.8764 0.58117 0.62641 0.0
C3396 C 0.86976 0.59882 0.62644 0.0
H3397 H 0.85464 0.68903 0.65114 0.0
H3398 H 0.85002 0.66378 0.63296 0.0
H3399 H 0.85046 0.6253 0.65497 0.0
H3400 H 0.90227 0.55748 0.65211 0.0
H3401 H 0.88301 0.58191 0.65337 0.0
C3402 C 0.55335 0.36046 0.59231 0.0
C3403 C 0.54915 0.34882 0.57927 0.0
C3404 C 0.56861 0.3586 0.60145 0.0
C3405 C 0.60498 0.32918 0.60928 0.0
H3406 H 0.63348 0.36914 0.60163 0.0
C3407 C 0.67368 0.32367 0.59048 0.0
C3408 C 0.68522 0.32736 0.60373 0.0
C3409 C 0.65696 0.32967 0.59122 0.0
C3410 C 0.62558 0.35806 0.60423 0.0
H3411 H 0.5565 0.32527 0.56671 0.0
H3412 H 0.58287 0.32182 0.58279 0.0
H3413 H 0.60233 0.37142 0.59868 0.0
H3414 H 0.6889 0.34157 0.62729 0.0
H3415 H 0.65935 0.35225 0.62846 0.0
H3416 H 0.62834 0.31556 0.61349 0.0
C3417 C 0.57457 0.33244 0.58595 0.0
C3418 C 0.6078 0.35933 0.60264 0.0
C3419 C 0.55951 0.33445 0.57666 0.0
C3420 C 0.68025 0.33861 0.61686 0.0
C3421 C 0.6634 0.34464 0.61762 0.0
C3422 C 0.62268 0.32792 0.61081 0.0
C3423 C 0.57966 0.34489 0.59788 0.0
C3424 C 0.59744 0.3447 0.60436 0.0
C3425 C 0.65153 0.3395 0.60519 0.0
C3426 C 0.63309 0.34217 0.60759 0.0
H3427 H 0.54555 0.37169 0.59452 0.0
H3428 H 0.57221 0.3683 0.61067 0.0
H3429 H 0.59728 0.31777 0.61084 0.0
H3430 H 0.67722 0.31514 0.58015 0.0
H3431 H 0.64795 0.32574 0.58144 0.0
C3432 C 0.89545 0.31557 0.83657 0.0
C3433 C 0.88228 0.30345 0.83744 0.0
C3434 C 0.89433 0.33068 0.84596 0.0
C3435 C 0.88818 0.35935 0.87334 0.0
H3436 H 0.8573 0.38727 0.84626 0.0
C3437 C 0.89412 0.43154 0.87446 0.0
C3438 C 0.9016 0.43556 0.85862 0.0
C3439 C 0.88477 0.41641 0.87635 0.0
C3440 C 0.86553 0.37958 0.85434 0.0
H3441 H 0.8581 0.29698 0.84936 0.0
H3442 H 0.8558 0.32395 0.86527 0.0
H3443 H 0.85625 0.35606 0.84379 0.0
H3444 H 0.90367 0.42833 0.83199 0.0
H3445 H 0.88668 0.40234 0.83506 0.0
H3446 H 0.89829 0.38286 0.88301 0.0
C3447 C 0.86715 0.32147 0.85772 0.0
C3448 C 0.86493 0.36179 0.85296 0.0
C3449 C 0.86853 0.30609 0.84871 0.0
C3450 C 0.89791 0.42547 0.84428 0.0
C3451 C 0.88817 0.41064 0.84605 0.0
C3452 C 0.88851 0.37711 0.87502 0.0
C3453 C 0.87982 0.33403 0.85598 0.0
C3454 C 0.87684 0.35166 0.86179 0.0
C3455 C 0.88243 0.40548 0.86229 0.0
C3456 C 0.87782 0.38738 0.86484 0.0
H3457 H 0.90609 0.31383 0.82785 0.0
H3458 H 0.90414 0.34034 0.84431 0.0
H3459 H 0.89759 0.35173 0.88008 0.0
H3460 H 0.897 0.43908 0.88573 0.0
H3461 H 0.88053 0.41259 0.88898 0.0
C3462 C 0.80927 0.64174 0.12103 0.0
C3463 C 0.80246 0.64992 0.10655 0.0
C3464 C 0.8255 0.63423 0.12023 0.0
C3465 C 0.86391 0.64563 0.10884 0.0
H3466 H 0.8832 0.60493 0.08813 0.0
C3467 C 0.92386 0.64343 0.0675 0.0
C3468 C 0.93664 0.63154 0.07155 0.0
C3469 C 0.90851 0.64356 0.07654 0.0
C3470 C 0.878 0.61617 0.09433 0.0
H3471 H 0.80611 0.65518 0.0796 0.0
H3472 H 0.83412 0.6414 0.07805 0.0
H3473 H 0.85238 0.60612 0.09446 0.0
H3474 H 0.94373 0.61068 0.08836 0.0
H3475 H 0.91631 0.61048 0.10389 0.0
H3476 H 0.88906 0.65637 0.10715 0.0
C3477 C 0.82706 0.64095 0.08998 0.0
C3478 C 0.86046 0.61683 0.09791 0.0
C3479 C 0.81109 0.64881 0.09087 0.0
C3480 C 0.93406 0.62006 0.08514 0.0
C3481 C 0.91844 0.61988 0.09393 0.0
C3482 C 0.8813 0.6451 0.10498 0.0
C3483 C 0.83472 0.63443 0.10484 0.0
C3484 C 0.85331 0.63174 0.10478 0.0
C3485 C 0.90553 0.63153 0.08952 0.0
C3486 C 0.88836 0.63056 0.09724 0.0
H3487 H 0.80291 0.64273 0.13331 0.0
H3488 H 0.83136 0.62946 0.13186 0.0
H3489 H 0.8585 0.65734 0.11389 0.0
H3490 H 0.92558 0.65239 0.05705 0.0
H3491 H 0.89864 0.65256 0.07286 0.0
C3492 C 0.62848 0.68172 0.34595 0.0
C3493 C 0.61301 0.68883 0.34032 0.0
C3494 C 0.62836 0.66703 0.35616 0.0
C3495 C 0.60079 0.63623 0.37948 0.0
H3496 H 0.61985 0.6027 0.34825 0.0
C3497 C 0.58524 0.56294 0.37942 0.0
C3498 C 0.57401 0.56051 0.36557 0.0
C3499 C 0.595 0.5779 0.38062 0.0
C3500 C 0.61489 0.61187 0.35738 0.0
H3501 H 0.58545 0.68753 0.34201 0.0
H3502 H 0.58516 0.66228 0.36032 0.0
H3503 H 0.62825 0.63265 0.34572 0.0
H3504 H 0.56476 0.57119 0.34172 0.0
H3505 H 0.58235 0.59701 0.34346 0.0
H3506 H 0.58654 0.61543 0.39033 0.0
C3507 C 0.59737 0.6679 0.35695 0.0
C3508 C 0.61974 0.62898 0.35603 0.0
C3509 C 0.5975 0.68232 0.34646 0.0
C3510 C 0.57333 0.57279 0.35251 0.0
C3511 C 0.58338 0.58747 0.35348 0.0
C3512 C 0.59618 0.61903 0.38104 0.0
C3513 C 0.61275 0.65952 0.36101 0.0
C3514 C 0.61203 0.64143 0.36645 0.0
C3515 C 0.59398 0.59029 0.3677 0.0
C3516 C 0.60258 0.60693 0.36943 0.0
H3517 H 0.64056 0.68645 0.34106 0.0
H3518 H 0.64036 0.66077 0.3591 0.0
H3519 H 0.59464 0.64561 0.38761 0.0
H3520 H 0.58586 0.5537 0.38973 0.0
H3521 H 0.60303 0.57997 0.39172 0.0
C3522 C 0.6111 0.89879 0.55612 0.0
C3523 C 0.62606 0.90762 0.55153 0.0
C3524 C 0.61051 0.8895 0.57145 0.0
C3525 C 0.63545 0.86915 0.60503 0.0
H3526 H 0.61067 0.89627 0.6384 0.0
C3527 C 0.65659 0.89126 0.67126 0.0
C3528 C 0.65624 0.87701 0.68212 0.0
C3529 C 0.6466 0.89155 0.65649 0.0
C3530 C 0.61717 0.88821 0.6292 0.0
H3531 H 0.65235 0.91285 0.55839 0.0
H3532 H 0.6516 0.89596 0.5847 0.0
H3533 H 0.60558 0.90079 0.60776 0.0
H3534 H 0.64488 0.85216 0.68662 0.0
H3535 H 0.62789 0.85233 0.66007 0.0
H3536 H 0.64786 0.85738 0.62647 0.0
C3537 C 0.64032 0.89636 0.57665 0.0
C3538 C 0.61426 0.89075 0.61173 0.0
C3539 C 0.64074 0.90603 0.56168 0.0
C3540 C 0.64512 0.86338 0.67849 0.0
C3541 C 0.63548 0.86344 0.66337 0.0
C3542 C 0.63805 0.86633 0.62249 0.0
C3543 C 0.62505 0.88853 0.58195 0.0
C3544 C 0.62402 0.88185 0.59956 0.0
C3545 C 0.63649 0.8774 0.65213 0.0
C3546 C 0.62954 0.87643 0.63464 0.0
H3547 H 0.59958 0.90008 0.54851 0.0
H3548 H 0.59859 0.88369 0.57544 0.0
H3549 H 0.64323 0.86231 0.59583 0.0
H3550 H 0.66519 0.90183 0.67379 0.0
H3551 H 0.64771 0.90233 0.64784 0.0
loop_
_geom_bond_atom_site_label_1
_geom_bond_atom_site_label_2
_geom_bond_distance
_geom_bond_site_symmetry_2
_ccdc_geom_bond_type
Co0 O1 2.216 . S
Co0 O2 2.091 . S
Co0 O4 2.004 . S
Co0 O10 2.021 . S
Co0 O12 2.137 . S
Co0 O13 2.244 . S
O1 Co0 2.216 . S
O1 C8 1.247 . S
O2 Co0 2.091 . S
O2 C8 1.261 . S
C3 O12 1.247 . S
C3 O13 1.272 . S
O4 Co0 2.004 . S
O4 C9 1.259 . S
Co5 O6 2.061 . S
Co5 O11 2.052 . S
Co5 O13 2.135 . S
O6 Co5 2.061 . S
O6 C9 1.235 . S
C7 O10 1.238 . S
C7 O11 1.241 . S
C8 O1 1.247 . S
C8 O2 1.261 . S
C9 O4 1.259 . S
C9 O6 1.235 . S
O10 Co0 2.021 . S
O10 C7 1.238 . S
O11 Co5 2.052 . S
O11 C7 1.241 . S
O12 Co0 2.137 . S
O12 C3 1.247 . S
O13 Co0 2.244 . S
O13 C3 1.272 . S
O13 Co5 2.135 . S
Co14 O15 2.216 . S
Co14 O16 2.091 . S
Co14 O18 2.004 . S
Co14 O24 2.021 . S
Co14 O26 2.137 . S
Co14 O27 2.244 . S
O15 Co14 2.216 . S
O15 C22 1.247 . S
O16 Co14 2.091 . S
O16 C22 1.261 . S
C17 O26 1.247 . S
C17 O27 1.272 . S
O18 Co14 2.004 . S
O18 C23 1.259 1_565 S
Co19 O20 2.061 . S
Co19 O25 2.052 1_545 S
Co19 O27 2.135 1_545 S
O20 Co19 2.061 . S
O20 C23 1.235 . S
C21 O24 1.238 . S
C21 O25 1.241 . S
C22 O15 1.247 . S
C22 O16 1.261 . S
C23 O18 1.259 1_545 S
C23 O20 1.235 . S
O24 Co14 2.021 . S
O24 C21 1.238 . S
O25 Co19 2.052 1_565 S
O25 C21 1.241 . S
O26 Co14 2.137 . S
O26 C17 1.247 . S
O27 Co14 2.244 . S
O27 C17 1.272 . S
O27 Co19 2.135 1_565 S
Co28 O29 2.216 . S
Co28 O30 2.091 . S
Co28 O32 2.004 . S
Co28 O38 2.021 . S
Co28 O40 2.137 . S
Co28 O41 2.244 . S
O29 Co28 2.216 . S
O29 C36 1.247 . S
O30 Co28 2.091 . S
O30 C36 1.261 . S
C31 O40 1.247 . S
C31 O41 1.272 . S
O32 Co28 2.004 . S
O32 C37 1.259 . S
Co33 O34 2.061 . S
Co33 O39 2.052 . S
Co33 O41 2.135 . S
O34 Co33 2.061 . S
O34 C37 1.235 . S
C35 O38 1.238 . S
C35 O39 1.241 . S
C36 O29 1.247 . S
C36 O30 1.261 . S
C37 O32 1.259 . S
C37 O34 1.235 . S
O38 Co28 2.021 . S
O38 C35 1.238 . S
O39 Co33 2.052 . S
O39 C35 1.241 . S
O40 Co28 2.137 . S
O40 C31 1.247 . S
O41 Co28 2.244 . S
O41 C31 1.272 . S
O41 Co33 2.135 . S
Co42 O43 2.216 . S
Co42 O44 2.091 . S
Co42 O46 2.004 . S
Co42 O52 2.021 . S
Co42 O54 2.137 . S
Co42 O55 2.244 . S
O43 Co42 2.216 . S
O43 C50 1.247 . S
O44 Co42 2.091 . S
O44 C50 1.261 . S
C45 O54 1.247 . S
C45 O55 1.272 . S
O46 Co42 2.004 . S
O46 C51 1.259 1_545 S
Co47 O48 2.061 . S
Co47 O53 2.052 1_565 S
Co47 O55 2.135 1_565 S
O48 Co47 2.061 . S
O48 C51 1.235 . S
C49 O52 1.238 . S
C49 O53 1.241 . S
C50 O43 1.247 . S
C50 O44 1.261 . S
C51 O46 1.259 1_565 S
C51 O48 1.235 . S
O52 Co42 2.021 . S
O52 C49 1.238 . S
O53 Co47 2.052 1_545 S
O53 C49 1.241 . S
O54 Co42 2.137 . S
O54 C45 1.247 . S
O55 Co42 2.244 . S
O55 C45 1.272 . S
O55 Co47 2.135 1_545 S
Co56 O57 2.216 . S
Co56 O58 2.091 . S
Co56 O60 2.004 . S
Co56 O66 2.021 . S
Co56 O68 2.137 . S
Co56 O69 2.244 . S
O57 Co56 2.216 . S
O57 C64 1.247 . S
O58 Co56 2.091 . S
O58 C64 1.261 . S
C59 O68 1.247 . S
C59 O69 1.272 . S
O60 Co56 2.004 . S
O60 C65 1.259 . S
Co61 O62 2.061 . S
Co61 O67 2.052 . S
Co61 O69 2.135 . S
O62 Co61 2.061 . S
O62 C65 1.235 . S
C63 O66 1.238 . S
C63 O67 1.241 . S
C64 O57 1.247 . S
C64 O58 1.261 . S
C65 O60 1.259 . S
C65 O62 1.235 . S
O66 Co56 2.021 . S
O66 C63 1.238 . S
O67 Co61 2.052 . S
O67 C63 1.241 . S
O68 Co56 2.137 . S
O68 C59 1.247 . S
O69 Co56 2.244 . S
O69 C59 1.272 . S
O69 Co61 2.135 . S
Co70 O71 2.216 . S
Co70 O72 2.091 . S
Co70 O74 2.004 . S
Co70 O80 2.021 . S
Co70 O82 2.137 . S
Co70 O83 2.244 . S
O71 Co70 2.216 . S
O71 C78 1.247 . S
O72 Co70 2.091 . S
O72 C78 1.261 . S
C73 O82 1.247 . S
C73 O83 1.272 . S
O74 Co70 2.004 . S
O74 C79 1.259 1_565 S
Co75 O76 2.061 . S
Co75 O81 2.052 1_545 S
Co75 O83 2.135 1_545 S
O76 Co75 2.061 . S
O76 C79 1.235 . S
C77 O80 1.238 . S
C77 O81 1.241 . S
C78 O71 1.247 . S
C78 O72 1.261 . S
C79 O74 1.259 1_545 S
C79 O76 1.235 . S
O80 Co70 2.021 . S
O80 C77 1.238 . S
O81 Co75 2.052 1_565 S
O81 C77 1.241 . S
O82 Co70 2.137 . S
O82 C73 1.247 . S
O83 Co70 2.244 . S
O83 C73 1.272 . S
O83 Co75 2.135 1_565 S
Co84 O85 2.216 . S
Co84 O86 2.091 . S
Co84 O88 2.004 . S
Co84 O94 2.021 . S
Co84 O96 2.137 . S
Co84 O97 2.244 . S
O85 Co84 2.216 . S
O85 C92 1.247 . S
O86 Co84 2.091 . S
O86 C92 1.261 . S
C87 O96 1.247 . S
C87 O97 1.272 . S
O88 Co84 2.004 . S
O88 C93 1.259 . S
Co89 O90 2.061 . S
Co89 O95 2.052 . S
Co89 O97 2.135 . S
O90 Co89 2.061 . S
O90 C93 1.235 . S
C91 O94 1.238 . S
C91 O95 1.241 . S
C92 O85 1.247 . S
C92 O86 1.261 . S
C93 O88 1.259 . S
C93 O90 1.235 . S
O94 Co84 2.021 . S
O94 C91 1.238 . S
O95 Co89 2.052 . S
O95 C91 1.241 . S
O96 Co84 2.137 . S
O96 C87 1.247 . S
O97 Co84 2.244 . S
O97 C87 1.272 . S
O97 Co89 2.135 . S
Co98 O99 2.216 . S
Co98 O100 2.091 . S
Co98 O102 2.004 . S
Co98 O108 2.021 . S
Co98 O110 2.137 . S
Co98 O111 2.244 . S
O99 Co98 2.216 . S
O99 C106 1.247 . S
O100 Co98 2.091 . S
O100 C106 1.261 . S
C101 O110 1.247 . S
C101 O111 1.272 . S
O102 Co98 2.004 . S
O102 C107 1.259 1_545 S
Co103 O104 2.061 . S
Co103 O109 2.052 1_565 S
Co103 O111 2.135 1_565 S
O104 Co103 2.061 . S
O104 C107 1.235 . S
C105 O108 1.238 . S
C105 O109 1.241 . S
C106 O99 1.247 . S
C106 O100 1.261 . S
C107 O102 1.259 1_565 S
C107 O104 1.235 . S
O108 Co98 2.021 . S
O108 C105 1.238 . S
O109 Co103 2.052 1_545 S
O109 C105 1.241 . S
O110 Co98 2.137 . S
O110 C101 1.247 . S
O111 Co98 2.244 . S
O111 C101 1.272 . S
O111 Co103 2.135 1_545 S
Co112 O113 2.216 . S
Co112 O114 2.091 . S
Co112 O116 2.004 . S
Co112 O122 2.021 . S
Co112 O124 2.137 . S
Co112 O125 2.244 . S
O113 Co112 2.216 . S
O113 C120 1.247 . S
O114 Co112 2.091 . S
O114 C120 1.261 . S
C115 O124 1.247 . S
C115 O125 1.272 . S
O116 Co112 2.004 . S
O116 C121 1.259 . S
Co117 O118 2.061 . S
Co117 O123 2.052 . S
Co117 O125 2.135 . S
O118 Co117 2.061 . S
O118 C121 1.235 . S
C119 O122 1.238 . S
C119 O123 1.241 . S
C120 O113 1.247 . S
C120 O114 1.261 . S
C121 O116 1.259 . S
C121 O118 1.235 . S
O122 Co112 2.021 . S
O122 C119 1.238 . S
O123 Co117 2.052 . S
O123 C119 1.241 . S
O124 Co112 2.137 . S
O124 C115 1.247 . S
O125 Co112 2.244 . S
O125 C115 1.272 . S
O125 Co117 2.135 . S
Co126 O127 2.216 . S
Co126 O128 2.091 . S
Co126 O130 2.004 . S
Co126 O136 2.021 . S
Co126 O138 2.137 . S
Co126 O139 2.244 . S
O127 Co126 2.216 . S
O127 C134 1.247 . S
O128 Co126 2.091 . S
O128 C134 1.261 . S
C129 O138 1.247 . S
C129 O139 1.272 . S
O130 Co126 2.004 . S
O130 C135 1.259 1_455 S
Co131 O132 2.061 . S
Co131 O137 2.052 1_655 S
Co131 O139 2.135 1_655 S
O132 Co131 2.061 . S
O132 C135 1.235 . S
C133 O136 1.238 . S
C133 O137 1.241 . S
C134 O127 1.247 . S
C134 O128 1.261 . S
C135 O130 1.259 1_655 S
C135 O132 1.235 . S
O136 Co126 2.021 . S
O136 C133 1.238 . S
O137 Co131 2.052 1_455 S
O137 C133 1.241 . S
O138 Co126 2.137 . S
O138 C129 1.247 . S
O139 Co126 2.244 . S
O139 C129 1.272 . S
O139 Co131 2.135 1_455 S
Co140 O141 2.216 . S
Co140 O142 2.091 . S
Co140 O144 2.004 . S
Co140 O150 2.021 . S
Co140 O152 2.137 . S
Co140 O153 2.244 . S
O141 Co140 2.216 . S
O141 C148 1.247 . S
O142 Co140 2.091 . S
O142 C148 1.261 . S
C143 O152 1.247 . S
C143 O153 1.272 . S
O144 Co140 2.004 . S
O144 C149 1.259 . S
Co145 O146 2.061 . S
Co145 O151 2.052 . S
Co145 O153 2.135 . S
O146 Co145 2.061 . S
O146 C149 1.235 . S
C147 O150 1.238 . S
C147 O151 1.241 . S
C148 O141 1.247 . S
C148 O142 1.261 . S
C149 O144 1.259 . S
C149 O146 1.235 . S
O150 Co140 2.021 . S
O150 C147 1.238 . S
O151 Co145 2.052 . S
O151 C147 1.241 . S
O152 Co140 2.137 . S
O152 C143 1.247 . S
O153 Co140 2.244 . S
O153 C143 1.272 . S
O153 Co145 2.135 . S
Co154 O155 2.216 . S
Co154 O156 2.091 . S
Co154 O158 2.004 . S
Co154 O164 2.021 . S
Co154 O166 2.137 . S
Co154 O167 2.244 . S
O155 Co154 2.216 . S
O155 C162 1.247 . S
O156 Co154 2.091 . S
O156 C162 1.261 . S
C157 O166 1.247 . S
C157 O167 1.272 . S
O158 Co154 2.004 . S
O158 C163 1.259 . S
Co159 O160 2.061 . S
Co159 O165 2.052 . S
Co159 O167 2.135 . S
O160 Co159 2.061 . S
O160 C163 1.235 . S
C161 O164 1.238 . S
C161 O165 1.241 . S
C162 O155 1.247 . S
C162 O156 1.261 . S
C163 O158 1.259 . S
C163 O160 1.235 . S
O164 Co154 2.021 . S
O164 C161 1.238 . S
O165 Co159 2.052 . S
O165 C161 1.241 . S
O166 Co154 2.137 . S
O166 C157 1.247 . S
O167 Co154 2.244 . S
O167 C157 1.272 . S
O167 Co159 2.135 . S
Co168 O169 2.216 . S
Co168 O170 2.091 . S
Co168 O172 2.004 . S
Co168 O178 2.021 . S
Co168 O180 2.137 . S
Co168 O181 2.244 . S
O169 Co168 2.216 . S
O169 C176 1.247 . S
O170 Co168 2.091 . S
O170 C176 1.261 . S
C171 O180 1.247 . S
C171 O181 1.272 . S
O172 Co168 2.004 . S
O172 C177 1.259 . S
Co173 O174 2.061 . S
Co173 O179 2.052 . S
Co173 O181 2.135 . S
O174 Co173 2.061 . S
O174 C177 1.235 . S
C175 O178 1.238 . S
C175 O179 1.241 . S
C176 O169 1.247 . S
C176 O170 1.261 . S
C177 O172 1.259 . S
C177 O174 1.235 . S
O178 Co168 2.021 . S
O178 C175 1.238 . S
O179 Co173 2.052 . S
O179 C175 1.241 . S
O180 Co168 2.137 . S
O180 C171 1.247 . S
O181 Co168 2.244 . S
O181 C171 1.272 . S
O181 Co173 2.135 . S
Co182 O183 2.216 . S
Co182 O184 2.091 . S
Co182 O186 2.004 . S
Co182 O192 2.021 . S
Co182 O194 2.137 . S
Co182 O195 2.244 . S
O183 Co182 2.216 . S
O183 C190 1.247 . S
O184 Co182 2.091 . S
O184 C190 1.261 . S
C185 O194 1.247 . S
C185 O195 1.272 . S
O186 Co182 2.004 . S
O186 C191 1.259 . S
Co187 O188 2.061 . S
Co187 O193 2.052 . S
Co187 O195 2.135 . S
O188 Co187 2.061 . S
O188 C191 1.235 . S
C189 O192 1.238 . S
C189 O193 1.241 . S
C190 O183 1.247 . S
C190 O184 1.261 . S
C191 O186 1.259 . S
C191 O188 1.235 . S
O192 Co182 2.021 . S
O192 C189 1.238 . S
O193 Co187 2.052 . S
O193 C189 1.241 . S
O194 Co182 2.137 . S
O194 C185 1.247 . S
O195 Co182 2.244 . S
O195 C185 1.272 . S
O195 Co187 2.135 . S
Co196 O197 2.216 . S
Co196 O198 2.091 . S
Co196 O200 2.004 . S
Co196 O206 2.021 . S
Co196 O208 2.137 . S
Co196 O209 2.244 . S
O197 Co196 2.216 . S
O197 C204 1.247 . S
O198 Co196 2.091 . S
O198 C204 1.261 . S
C199 O208 1.247 . S
C199 O209 1.272 . S
O200 Co196 2.004 . S
O200 C205 1.259 . S
Co201 O202 2.061 . S
Co201 O207 2.052 . S
Co201 O209 2.135 . S
O202 Co201 2.061 . S
O202 C205 1.235 . S
C203 O206 1.238 . S
C203 O207 1.241 . S
C204 O197 1.247 . S
C204 O198 1.261 . S
C205 O200 1.259 . S
C205 O202 1.235 . S
O206 Co196 2.021 . S
O206 C203 1.238 . S
O207 Co201 2.052 . S
O207 C203 1.241 . S
O208 Co196 2.137 . S
O208 C199 1.247 . S
O209 Co196 2.244 . S
O209 C199 1.272 . S
O209 Co201 2.135 . S
Co210 O211 2.216 . S
Co210 O212 2.091 . S
Co210 O214 2.004 . S
Co210 O220 2.021 . S
Co210 O222 2.137 . S
Co210 O223 2.244 . S
O211 Co210 2.216 . S
O211 C218 1.247 . S
O212 Co210 2.091 . S
O212 C218 1.261 . S
C213 O222 1.247 . S
C213 O223 1.272 . S
O214 Co210 2.004 . S
O214 C219 1.259 1_455 S
Co215 O216 2.061 . S
Co215 O221 2.052 1_655 S
Co215 O223 2.135 1_655 S
O216 Co215 2.061 . S
O216 C219 1.235 . S
C217 O220 1.238 . S
C217 O221 1.241 . S
C218 O211 1.247 . S
C218 O212 1.261 . S
C219 O214 1.259 1_655 S
C219 O216 1.235 . S
O220 Co210 2.021 . S
O220 C217 1.238 . S
O221 Co215 2.052 1_455 S
O221 C217 1.241 . S
O222 Co210 2.137 . S
O222 C213 1.247 . S
O223 Co210 2.244 . S
O223 C213 1.272 . S
O223 Co215 2.135 1_455 S
Co224 O225 2.216 . S
Co224 O226 2.091 . S
Co224 O228 2.004 . S
Co224 O234 2.021 . S
Co224 O236 2.137 . S
Co224 O237 2.244 . S
O225 Co224 2.216 . S
O225 C232 1.247 . S
O226 Co224 2.091 . S
O226 C232 1.261 . S
C227 O236 1.247 . S
C227 O237 1.272 . S
O228 Co224 2.004 . S
O228 C233 1.259 . S
Co229 O230 2.061 . S
Co229 O235 2.052 . S
Co229 O237 2.135 . S
O230 Co229 2.061 . S
O230 C233 1.235 . S
C231 O234 1.238 . S
C231 O235 1.241 . S
C232 O225 1.247 . S
C232 O226 1.261 . S
C233 O228 1.259 . S
C233 O230 1.235 . S
O234 Co224 2.021 . S
O234 C231 1.238 . S
O235 Co229 2.052 . S
O235 C231 1.241 . S
O236 Co224 2.137 . S
O236 C227 1.247 . S
O237 Co224 2.244 . S
O237 C227 1.272 . S
O237 Co229 2.135 . S
Co238 O239 2.216 . S
Co238 O240 2.091 . S
Co238 O242 2.004 . S
Co238 O248 2.021 . S
Co238 O250 2.137 . S
Co238 O251 2.244 . S
O239 Co238 2.216 . S
O239 C246 1.247 . S
O240 Co238 2.091 . S
O240 C246 1.261 . S
C241 O250 1.247 . S
C241 O251 1.272 . S
O242 Co238 2.004 . S
O242 C247 1.259 . S
Co243 O244 2.061 . S
Co243 O249 2.052 . S
Co243 O251 2.135 . S
O244 Co243 2.061 . S
O244 C247 1.235 . S
C245 O248 1.238 . S
C245 O249 1.241 . S
C246 O239 1.247 . S
C246 O240 1.261 . S
C247 O242 1.259 . S
C247 O244 1.235 . S
O248 Co238 2.021 . S
O248 C245 1.238 . S
O249 Co243 2.052 . S
O249 C245 1.241 . S
O250 Co238 2.137 . S
O250 C241 1.247 . S
O251 Co238 2.244 . S
O251 C241 1.272 . S
O251 Co243 2.135 . S
Co252 O253 2.216 . S
Co252 O254 2.091 . S
Co252 O256 2.004 . S
Co252 O262 2.021 . S
Co252 O264 2.137 . S
Co252 O265 2.244 . S
O253 Co252 2.216 . S
O253 C260 1.247 . S
O254 Co252 2.091 . S
O254 C260 1.261 . S
C255 O264 1.247 . S
C255 O265 1.272 . S
O256 Co252 2.004 . S
O256 C261 1.259 1_554 S
Co257 O258 2.061 . S
Co257 O263 2.052 1_556 S
Co257 O265 2.135 1_556 S
O258 Co257 2.061 . S
O258 C261 1.235 . S
C259 O262 1.238 . S
C259 O263 1.241 . S
C260 O253 1.247 . S
C260 O254 1.261 . S
C261 O256 1.259 1_556 S
C261 O258 1.235 . S
O262 Co252 2.021 . S
O262 C259 1.238 . S
O263 Co257 2.052 1_554 S
O263 C259 1.241 . S
O264 Co252 2.137 . S
O264 C255 1.247 . S
O265 Co252 2.244 . S
O265 C255 1.272 . S
O265 Co257 2.135 1_554 S
Co266 O267 2.216 . S
Co266 O268 2.091 . S
Co266 O270 2.004 . S
Co266 O276 2.021 . S
Co266 O278 2.137 . S
Co266 O279 2.244 . S
O267 Co266 2.216 . S
O267 C274 1.247 . S
O268 Co266 2.091 . S
O268 C274 1.261 . S
C269 O278 1.247 . S
C269 O279 1.272 . S
O270 Co266 2.004 . S
O270 C275 1.259 . S
Co271 O272 2.061 . S
Co271 O277 2.052 . S
Co271 O279 2.135 . S
O272 Co271 2.061 . S
O272 C275 1.235 . S
C273 O276 1.238 . S
C273 O277 1.241 . S
C274 O267 1.247 . S
C274 O268 1.261 . S
C275 O270 1.259 . S
C275 O272 1.235 . S
O276 Co266 2.021 . S
O276 C273 1.238 . S
O277 Co271 2.052 . S
O277 C273 1.241 . S
O278 Co266 2.137 . S
O278 C269 1.247 . S
O279 Co266 2.244 . S
O279 C269 1.272 . S
O279 Co271 2.135 . S
Co280 O281 2.216 . S
Co280 O282 2.091 . S
Co280 O284 2.004 . S
Co280 O290 2.021 . S
Co280 O292 2.137 . S
Co280 O293 2.244 . S
O281 Co280 2.216 . S
O281 C288 1.247 . S
O282 Co280 2.091 . S
O282 C288 1.261 . S
C283 O292 1.247 . S
C283 O293 1.272 . S
O284 Co280 2.004 . S
O284 C289 1.259 1_554 S
Co285 O286 2.061 . S
Co285 O291 2.052 1_556 S
Co285 O293 2.135 1_556 S
O286 Co285 2.061 . S
O286 C289 1.235 . S
C287 O290 1.238 . S
C287 O291 1.241 . S
C288 O281 1.247 . S
C288 O282 1.261 . S
C289 O284 1.259 1_556 S
C289 O286 1.235 . S
O290 Co280 2.021 . S
O290 C287 1.238 . S
O291 Co285 2.052 1_554 S
O291 C287 1.241 . S
O292 Co280 2.137 . S
O292 C283 1.247 . S
O293 Co280 2.244 . S
O293 C283 1.272 . S
O293 Co285 2.135 1_554 S
Co294 O295 2.216 . S
Co294 O296 2.091 . S
Co294 O298 2.004 . S
Co294 O304 2.021 . S
Co294 O306 2.137 . S
Co294 O307 2.244 . S
O295 Co294 2.216 . S
O295 C302 1.247 . S
O296 Co294 2.091 . S
O296 C302 1.261 . S
C297 O306 1.247 . S
C297 O307 1.272 . S
O298 Co294 2.004 . S
O298 C303 1.259 . S
Co299 O300 2.061 . S
Co299 O305 2.052 . S
Co299 O307 2.135 . S
O300 Co299 2.061 . S
O300 C303 1.235 . S
C301 O304 1.238 . S
C301 O305 1.241 . S
C302 O295 1.247 . S
C302 O296 1.261 . S
C303 O298 1.259 . S
C303 O300 1.235 . S
O304 Co294 2.021 . S
O304 C301 1.238 . S
O305 Co299 2.052 . S
O305 C301 1.241 . S
O306 Co294 2.137 . S
O306 C297 1.247 . S
O307 Co294 2.244 . S
O307 C297 1.272 . S
O307 Co299 2.135 . S
Co308 O309 2.216 . S
Co308 O310 2.091 . S
Co308 O312 2.004 . S
Co308 O318 2.021 . S
Co308 O320 2.137 . S
Co308 O321 2.244 . S
O309 Co308 2.216 . S
O309 C316 1.247 . S
O310 Co308 2.091 . S
O310 C316 1.261 . S
C311 O320 1.247 . S
C311 O321 1.272 . S
O312 Co308 2.004 . S
O312 C317 1.259 . S
Co313 O314 2.061 . S
Co313 O319 2.052 . S
Co313 O321 2.135 . S
O314 Co313 2.061 . S
O314 C317 1.235 . S
C315 O318 1.238 . S
C315 O319 1.241 . S
C316 O309 1.247 . S
C316 O310 1.261 . S
C317 O312 1.259 . S
C317 O314 1.235 . S
O318 Co308 2.021 . S
O318 C315 1.238 . S
O319 Co313 2.052 . S
O319 C315 1.241 . S
O320 Co308 2.137 . S
O320 C311 1.247 . S
O321 Co308 2.244 . S
O321 C311 1.272 . S
O321 Co313 2.135 . S
Co322 O323 2.216 . S
Co322 O324 2.091 . S
Co322 O326 2.004 . S
Co322 O332 2.021 . S
Co322 O334 2.137 . S
Co322 O335 2.244 . S
O323 Co322 2.216 . S
O323 C330 1.247 . S
O324 Co322 2.091 . S
O324 C330 1.261 . S
C325 O334 1.247 . S
C325 O335 1.272 . S
O326 Co322 2.004 . S
O326 C331 1.259 1_556 S
Co327 O328 2.061 . S
Co327 O333 2.052 1_554 S
Co327 O335 2.135 1_554 S
O328 Co327 2.061 . S
O328 C331 1.235 . S
C329 O332 1.238 . S
C329 O333 1.241 . S
C330 O323 1.247 . S
C330 O324 1.261 . S
C331 O326 1.259 1_554 S
C331 O328 1.235 . S
O332 Co322 2.021 . S
O332 C329 1.238 . S
O333 Co327 2.052 1_556 S
O333 C329 1.241 . S
O334 Co322 2.137 . S
O334 C325 1.247 . S
O335 Co322 2.244 . S
O335 C325 1.272 . S
O335 Co327 2.135 1_556 S
Co336 O337 2.216 . S
Co336 O338 2.091 . S
Co336 O340 2.004 . S
Co336 O346 2.021 . S
Co336 O348 2.137 . S
Co336 O349 2.244 . S
O337 Co336 2.216 . S
O337 C344 1.247 . S
O338 Co336 2.091 . S
O338 C344 1.261 . S
C339 O348 1.247 . S
C339 O349 1.272 . S
O340 Co336 2.004 . S
O340 C345 1.259 . S
Co341 O342 2.061 . S
Co341 O347 2.052 . S
Co341 O349 2.135 . S
O342 Co341 2.061 . S
O342 C345 1.235 . S
C343 O346 1.238 . S
C343 O347 1.241 . S
C344 O337 1.247 . S
C344 O338 1.261 . S
C345 O340 1.259 . S
C345 O342 1.235 . S
O346 Co336 2.021 . S
O346 C343 1.238 . S
O347 Co341 2.052 . S
O347 C343 1.241 . S
O348 Co336 2.137 . S
O348 C339 1.247 . S
O349 Co336 2.244 . S
O349 C339 1.272 . S
O349 Co341 2.135 . S
Co350 O351 2.216 . S
Co350 O352 2.091 . S
Co350 O354 2.004 . S
Co350 O360 2.021 . S
Co350 O362 2.137 . S
Co350 O363 2.244 . S
O351 Co350 2.216 . S
O351 C358 1.247 . S
O352 Co350 2.091 . S
O352 C358 1.261 . S
C353 O362 1.247 . S
C353 O363 1.272 . S
O354 Co350 2.004 . S
O354 C359 1.259 . S
Co355 O356 2.061 . S
Co355 O361 2.052 . S
Co355 O363 2.135 . S
O356 Co355 2.061 . S
O356 C359 1.235 . S
C357 O360 1.238 . S
C357 O361 1.241 . S
C358 O351 1.247 . S
C358 O352 1.261 . S
C359 O354 1.259 . S
C359 O356 1.235 . S
O360 Co350 2.021 . S
O360 C357 1.238 . S
O361 Co355 2.052 . S
O361 C357 1.241 . S
O362 Co350 2.137 . S
O362 C353 1.247 . S
O363 Co350 2.244 . S
O363 C353 1.272 . S
O363 Co355 2.135 . S
Co364 O365 2.216 . S
Co364 O366 2.091 . S
Co364 O368 2.004 . S
Co364 O374 2.021 . S
Co364 O376 2.137 . S
Co364 O377 2.244 . S
O365 Co364 2.216 . S
O365 C372 1.247 . S
O366 Co364 2.091 . S
O366 C372 1.261 . S
C367 O376 1.247 . S
C367 O377 1.272 . S
O368 Co364 2.004 . S
O368 C373 1.259 . S
Co369 O370 2.061 . S
Co369 O375 2.052 . S
Co369 O377 2.135 . S
O370 Co369 2.061 . S
O370 C373 1.235 . S
C371 O374 1.238 . S
C371 O375 1.241 . S
C372 O365 1.247 . S
C372 O366 1.261 . S
C373 O368 1.259 . S
C373 O370 1.235 . S
O374 Co364 2.021 . S
O374 C371 1.238 . S
O375 Co369 2.052 . S
O375 C371 1.241 . S
O376 Co364 2.137 . S
O376 C367 1.247 . S
O377 Co364 2.244 . S
O377 C367 1.272 . S
O377 Co369 2.135 . S
Co378 O379 2.216 . S
Co378 O380 2.091 . S
Co378 O382 2.004 . S
Co378 O388 2.021 . S
Co378 O390 2.137 . S
Co378 O391 2.244 . S
O379 Co378 2.216 . S
O379 C386 1.247 . S
O380 Co378 2.091 . S
O380 C386 1.261 . S
C381 O390 1.247 . S
C381 O391 1.272 . S
O382 Co378 2.004 . S
O382 C387 1.259 . S
Co383 O384 2.061 . S
Co383 O389 2.052 . S
Co383 O391 2.135 . S
O384 Co383 2.061 . S
O384 C387 1.235 . S
C385 O388 1.238 . S
C385 O389 1.241 . S
C386 O379 1.247 . S
C386 O380 1.261 . S
C387 O382 1.259 . S
C387 O384 1.235 . S
O388 Co378 2.021 . S
O388 C385 1.238 . S
O389 Co383 2.052 . S
O389 C385 1.241 . S
O390 Co378 2.137 . S
O390 C381 1.247 . S
O391 Co378 2.244 . S
O391 C381 1.272 . S
O391 Co383 2.135 . S
Co392 O393 2.216 . S
Co392 O394 2.091 . S
Co392 O396 2.004 . S
Co392 O402 2.021 . S
Co392 O404 2.137 . S
Co392 O405 2.244 . S
O393 Co392 2.216 . S
O393 C400 1.247 . S
O394 Co392 2.091 . S
O394 C400 1.261 . S
C395 O404 1.247 . S
C395 O405 1.272 . S
O396 Co392 2.004 . S
O396 C401 1.259 . S
Co397 O398 2.061 . S
Co397 O403 2.052 . S
Co397 O405 2.135 . S
O398 Co397 2.061 . S
O398 C401 1.235 . S
C399 O402 1.238 . S
C399 O403 1.241 . S
C400 O393 1.247 . S
C400 O394 1.261 . S
C401 O396 1.259 . S
C401 O398 1.235 . S
O402 Co392 2.021 . S
O402 C399 1.238 . S
O403 Co397 2.052 . S
O403 C399 1.241 . S
O404 Co392 2.137 . S
O404 C395 1.247 . S
O405 Co392 2.244 . S
O405 C395 1.272 . S
O405 Co397 2.135 . S
Co406 O407 2.216 . S
Co406 O408 2.091 . S
Co406 O410 2.004 . S
Co406 O416 2.021 . S
Co406 O418 2.137 . S
Co406 O419 2.244 . S
O407 Co406 2.216 . S
O407 C414 1.247 . S
O408 Co406 2.091 . S
O408 C414 1.261 . S
C409 O418 1.247 . S
C409 O419 1.272 . S
O410 Co406 2.004 . S
O410 C415 1.259 . S
Co411 O412 2.061 . S
Co411 O417 2.052 . S
Co411 O419 2.135 . S
O412 Co411 2.061 . S
O412 C415 1.235 . S
C413 O416 1.238 . S
C413 O417 1.241 . S
C414 O407 1.247 . S
C414 O408 1.261 . S
C415 O410 1.259 . S
C415 O412 1.235 . S
O416 Co406 2.021 . S
O416 C413 1.238 . S
O417 Co411 2.052 . S
O417 C413 1.241 . S
O418 Co406 2.137 . S
O418 C409 1.247 . S
O419 Co406 2.244 . S
O419 C409 1.272 . S
O419 Co411 2.135 . S
Co420 O421 2.216 . S
Co420 O422 2.091 . S
Co420 O424 2.004 . S
Co420 O430 2.021 . S
Co420 O432 2.137 . S
Co420 O433 2.244 . S
O421 Co420 2.216 . S
O421 C428 1.247 . S
O422 Co420 2.091 . S
O422 C428 1.261 . S
C423 O432 1.247 . S
C423 O433 1.272 . S
O424 Co420 2.004 . S
O424 C429 1.259 . S
Co425 O426 2.061 . S
Co425 O431 2.052 . S
Co425 O433 2.135 . S
O426 Co425 2.061 . S
O426 C429 1.235 . S
C427 O430 1.238 . S
C427 O431 1.241 . S
C428 O421 1.247 . S
C428 O422 1.261 . S
C429 O424 1.259 . S
C429 O426 1.235 . S
O430 Co420 2.021 . S
O430 C427 1.238 . S
O431 Co425 2.052 . S
O431 C427 1.241 . S
O432 Co420 2.137 . S
O432 C423 1.247 . S
O433 Co420 2.244 . S
O433 C423 1.272 . S
O433 Co425 2.135 . S
Co434 O435 2.216 . S
Co434 O436 2.091 . S
Co434 O438 2.004 . S
Co434 O444 2.021 . S
Co434 O446 2.137 . S
Co434 O447 2.244 . S
O435 Co434 2.216 . S
O435 C442 1.247 . S
O436 Co434 2.091 . S
O436 C442 1.261 . S
C437 O446 1.247 . S
C437 O447 1.272 . S
O438 Co434 2.004 . S
O438 C443 1.259 . S
Co439 O440 2.061 . S
Co439 O445 2.052 . S
Co439 O447 2.135 . S
O440 Co439 2.061 . S
O440 C443 1.235 . S
C441 O444 1.238 . S
C441 O445 1.241 . S
C442 O435 1.247 . S
C442 O436 1.261 . S
C443 O438 1.259 . S
C443 O440 1.235 . S
O444 Co434 2.021 . S
O444 C441 1.238 . S
O445 Co439 2.052 . S
O445 C441 1.241 . S
O446 Co434 2.137 . S
O446 C437 1.247 . S
O447 Co434 2.244 . S
O447 C437 1.272 . S
O447 Co439 2.135 . S
Co448 O449 2.216 . S
Co448 O450 2.091 . S
Co448 O452 2.004 . S
Co448 O458 2.021 . S
Co448 O460 2.137 . S
Co448 O461 2.244 . S
O449 Co448 2.216 . S
O449 C456 1.247 . S
O450 Co448 2.091 . S
O450 C456 1.261 . S
C451 O460 1.247 . S
C451 O461 1.272 . S
O452 Co448 2.004 . S
O452 C457 1.259 . S
Co453 O454 2.061 . S
Co453 O459 2.052 . S
Co453 O461 2.135 . S
O454 Co453 2.061 . S
O454 C457 1.235 . S
C455 O458 1.238 . S
C455 O459 1.241 . S
C456 O449 1.247 . S
C456 O450 1.261 . S
C457 O452 1.259 . S
C457 O454 1.235 . S
O458 Co448 2.021 . S
O458 C455 1.238 . S
O459 Co453 2.052 . S
O459 C455 1.241 . S
O460 Co448 2.137 . S
O460 C451 1.247 . S
O461 Co448 2.244 . S
O461 C451 1.272 . S
O461 Co453 2.135 . S
Co462 O463 2.216 . S
Co462 O464 2.091 . S
Co462 O466 2.004 . S
Co462 O472 2.021 . S
Co462 O474 2.137 . S
Co462 O475 2.244 . S
O463 Co462 2.216 . S
O463 C470 1.247 . S
O464 Co462 2.091 . S
O464 C470 1.261 . S
C465 O474 1.247 . S
C465 O475 1.272 . S
O466 Co462 2.004 . S
O466 C471 1.259 . S
Co467 O468 2.061 . S
Co467 O473 2.052 . S
Co467 O475 2.135 . S
O468 Co467 2.061 . S
O468 C471 1.235 . S
C469 O472 1.238 . S
C469 O473 1.241 . S
C470 O463 1.247 . S
C470 O464 1.261 . S
C471 O466 1.259 . S
C471 O468 1.235 . S
O472 Co462 2.021 . S
O472 C469 1.238 . S
O473 Co467 2.052 . S
O473 C469 1.241 . S
O474 Co462 2.137 . S
O474 C465 1.247 . S
O475 Co462 2.244 . S
O475 C465 1.272 . S
O475 Co467 2.135 . S
Co476 O477 2.216 . S
Co476 O478 2.091 . S
Co476 O480 2.004 . S
Co476 O486 2.021 . S
Co476 O488 2.137 . S
Co476 O489 2.244 . S
O477 Co476 2.216 . S
O477 C484 1.247 . S
O478 Co476 2.091 . S
O478 C484 1.261 . S
C479 O488 1.247 . S
C479 O489 1.272 . S
O480 Co476 2.004 . S
O480 C485 1.259 . S
Co481 O482 2.061 . S
Co481 O487 2.052 . S
Co481 O489 2.135 . S
O482 Co481 2.061 . S
O482 C485 1.235 . S
C483 O486 1.238 . S
C483 O487 1.241 . S
C484 O477 1.247 . S
C484 O478 1.261 . S
C485 O480 1.259 . S
C485 O482 1.235 . S
O486 Co476 2.021 . S
O486 C483 1.238 . S
O487 Co481 2.052 . S
O487 C483 1.241 . S
O488 Co476 2.137 . S
O488 C479 1.247 . S
O489 Co476 2.244 . S
O489 C479 1.272 . S
O489 Co481 2.135 . S
Co490 O491 2.216 . S
Co490 O492 2.091 . S
Co490 O494 2.004 . S
Co490 O500 2.021 . S
Co490 O502 2.137 . S
Co490 O503 2.244 . S
O491 Co490 2.216 . S
O491 C498 1.247 . S
O492 Co490 2.091 . S
O492 C498 1.261 . S
C493 O502 1.247 . S
C493 O503 1.272 . S
O494 Co490 2.004 . S
O494 C499 1.259 1_655 S
Co495 O496 2.061 . S
Co495 O501 2.052 1_455 S
Co495 O503 2.135 1_455 S
O496 Co495 2.061 . S
O496 C499 1.235 . S
C497 O500 1.238 . S
C497 O501 1.241 . S
C498 O491 1.247 . S
C498 O492 1.261 . S
C499 O494 1.259 1_455 S
C499 O496 1.235 . S
O500 Co490 2.021 . S
O500 C497 1.238 . S
O501 Co495 2.052 1_655 S
O501 C497 1.241 . S
O502 Co490 2.137 . S
O502 C493 1.247 . S
O503 Co490 2.244 . S
O503 C493 1.272 . S
O503 Co495 2.135 1_655 S
Co504 O505 2.216 . S
Co504 O506 2.091 . S
Co504 O508 2.004 . S
Co504 O514 2.021 . S
Co504 O516 2.137 . S
Co504 O517 2.244 . S
O505 Co504 2.216 . S
O505 C512 1.247 . S
O506 Co504 2.091 . S
O506 C512 1.261 . S
C507 O516 1.247 . S
C507 O517 1.272 . S
O508 Co504 2.004 . S
O508 C513 1.259 . S
Co509 O510 2.061 . S
Co509 O515 2.052 . S
Co509 O517 2.135 . S
O510 Co509 2.061 . S
O510 C513 1.235 . S
C511 O514 1.238 . S
C511 O515 1.241 . S
C512 O505 1.247 . S
C512 O506 1.261 . S
C513 O508 1.259 . S
C513 O510 1.235 . S
O514 Co504 2.021 . S
O514 C511 1.238 . S
O515 Co509 2.052 . S
O515 C511 1.241 . S
O516 Co504 2.137 . S
O516 C507 1.247 . S
O517 Co504 2.244 . S
O517 C507 1.272 . S
O517 Co509 2.135 . S
Co518 O519 2.216 . S
Co518 O520 2.091 . S
Co518 O522 2.004 . S
Co518 O528 2.021 . S
Co518 O530 2.137 . S
Co518 O531 2.244 . S
O519 Co518 2.216 . S
O519 C526 1.247 . S
O520 Co518 2.091 . S
O520 C526 1.261 . S
C521 O530 1.247 . S
C521 O531 1.272 . S
O522 Co518 2.004 . S
O522 C527 1.259 1_655 S
Co523 O524 2.061 . S
Co523 O529 2.052 1_455 S
Co523 O531 2.135 1_455 S
O524 Co523 2.061 . S
O524 C527 1.235 . S
C525 O528 1.238 . S
C525 O529 1.241 . S
C526 O519 1.247 . S
C526 O520 1.261 . S
C527 O522 1.259 1_455 S
C527 O524 1.235 . S
O528 Co518 2.021 . S
O528 C525 1.238 . S
O529 Co523 2.052 1_655 S
O529 C525 1.241 . S
O530 Co518 2.137 . S
O530 C521 1.247 . S
O531 Co518 2.244 . S
O531 C521 1.272 . S
O531 Co523 2.135 1_655 S
Co532 O533 2.216 . S
Co532 O534 2.091 . S
Co532 O536 2.004 . S
Co532 O542 2.021 . S
Co532 O544 2.137 . S
Co532 O545 2.244 . S
O533 Co532 2.216 . S
O533 C540 1.247 . S
O534 Co532 2.091 . S
O534 C540 1.261 . S
C535 O544 1.247 . S
C535 O545 1.272 . S
O536 Co532 2.004 . S
O536 C541 1.259 . S
Co537 O538 2.061 . S
Co537 O543 2.052 . S
Co537 O545 2.135 . S
O538 Co537 2.061 . S
O538 C541 1.235 . S
C539 O542 1.238 . S
C539 O543 1.241 . S
C540 O533 1.247 . S
C540 O534 1.261 . S
C541 O536 1.259 . S
C541 O538 1.235 . S
O542 Co532 2.021 . S
O542 C539 1.238 . S
O543 Co537 2.052 . S
O543 C539 1.241 . S
O544 Co532 2.137 . S
O544 C535 1.247 . S
O545 Co532 2.244 . S
O545 C535 1.272 . S
O545 Co537 2.135 . S
Co546 O547 2.216 . S
Co546 O548 2.091 . S
Co546 O550 2.004 . S
Co546 O556 2.021 . S
Co546 O558 2.137 . S
Co546 O559 2.244 . S
O547 Co546 2.216 . S
O547 C554 1.247 . S
O548 Co546 2.091 . S
O548 C554 1.261 . S
C549 O558 1.247 . S
C549 O559 1.272 . S
O550 Co546 2.004 . S
O550 C555 1.259 . S
Co551 O552 2.061 . S
Co551 O557 2.052 . S
Co551 O559 2.135 . S
O552 Co551 2.061 . S
O552 C555 1.235 . S
C553 O556 1.238 . S
C553 O557 1.241 . S
C554 O547 1.247 . S
C554 O548 1.261 . S
C555 O550 1.259 . S
C555 O552 1.235 . S
O556 Co546 2.021 . S
O556 C553 1.238 . S
O557 Co551 2.052 . S
O557 C553 1.241 . S
O558 Co546 2.137 . S
O558 C549 1.247 . S
O559 Co546 2.244 . S
O559 C549 1.272 . S
O559 Co551 2.135 . S
Co560 O561 2.216 . S
Co560 O562 2.091 . S
Co560 O564 2.004 . S
Co560 O570 2.021 . S
Co560 O572 2.137 . S
Co560 O573 2.244 . S
O561 Co560 2.216 . S
O561 C568 1.247 . S
O562 Co560 2.091 . S
O562 C568 1.261 . S
C563 O572 1.247 . S
C563 O573 1.272 . S
O564 Co560 2.004 . S
O564 C569 1.259 . S
Co565 O566 2.061 . S
Co565 O571 2.052 . S
Co565 O573 2.135 . S
O566 Co565 2.061 . S
O566 C569 1.235 . S
C567 O570 1.238 . S
C567 O571 1.241 . S
C568 O561 1.247 . S
C568 O562 1.261 . S
C569 O564 1.259 . S
C569 O566 1.235 . S
O570 Co560 2.021 . S
O570 C567 1.238 . S
O571 Co565 2.052 . S
O571 C567 1.241 . S
O572 Co560 2.137 . S
O572 C563 1.247 . S
O573 Co560 2.244 . S
O573 C563 1.272 . S
O573 Co565 2.135 . S
Co574 O575 2.216 . S
Co574 O576 2.091 . S
Co574 O578 2.004 . S
Co574 O584 2.021 . S
Co574 O586 2.137 . S
Co574 O587 2.244 . S
O575 Co574 2.216 . S
O575 C582 1.247 . S
O576 Co574 2.091 . S
O576 C582 1.261 . S
C577 O586 1.247 . S
C577 O587 1.272 . S
O578 Co574 2.004 . S
O578 C583 1.259 . S
Co579 O580 2.061 . S
Co579 O585 2.052 . S
Co579 O587 2.135 . S
O580 Co579 2.061 . S
O580 C583 1.235 . S
C581 O584 1.238 . S
C581 O585 1.241 . S
C582 O575 1.247 . S
C582 O576 1.261 . S
C583 O578 1.259 . S
C583 O580 1.235 . S
O584 Co574 2.021 . S
O584 C581 1.238 . S
O585 Co579 2.052 . S
O585 C581 1.241 . S
O586 Co574 2.137 . S
O586 C577 1.247 . S
O587 Co574 2.244 . S
O587 C577 1.272 . S
O587 Co579 2.135 . S
Co588 O589 2.216 . S
Co588 O590 2.091 . S
Co588 O592 2.004 . S
Co588 O598 2.021 . S
Co588 O600 2.137 . S
Co588 O601 2.244 . S
O589 Co588 2.216 . S
O589 C596 1.247 . S
O590 Co588 2.091 . S
O590 C596 1.261 . S
C591 O600 1.247 . S
C591 O601 1.272 . S
O592 Co588 2.004 . S
O592 C597 1.259 . S
Co593 O594 2.061 . S
Co593 O599 2.052 . S
Co593 O601 2.135 . S
O594 Co593 2.061 . S
O594 C597 1.235 . S
C595 O598 1.238 . S
C595 O599 1.241 . S
C596 O589 1.247 . S
C596 O590 1.261 . S
C597 O592 1.259 . S
C597 O594 1.235 . S
O598 Co588 2.021 . S
O598 C595 1.238 . S
O599 Co593 2.052 . S
O599 C595 1.241 . S
O600 Co588 2.137 . S
O600 C591 1.247 . S
O601 Co588 2.244 . S
O601 C591 1.272 . S
O601 Co593 2.135 . S
Co602 O603 2.216 . S
Co602 O604 2.091 . S
Co602 O606 2.004 . S
Co602 O612 2.021 . S
Co602 O614 2.137 . S
Co602 O615 2.244 . S
O603 Co602 2.216 . S
O603 C610 1.247 . S
O604 Co602 2.091 . S
O604 C610 1.261 . S
C605 O614 1.247 . S
C605 O615 1.272 . S
O606 Co602 2.004 . S
O606 C611 1.259 . S
Co607 O608 2.061 . S
Co607 O613 2.052 . S
Co607 O615 2.135 . S
O608 Co607 2.061 . S
O608 C611 1.235 . S
C609 O612 1.238 . S
C609 O613 1.241 . S
C610 O603 1.247 . S
C610 O604 1.261 . S
C611 O606 1.259 . S
C611 O608 1.235 . S
O612 Co602 2.021 . S
O612 C609 1.238 . S
O613 Co607 2.052 . S
O613 C609 1.241 . S
O614 Co602 2.137 . S
O614 C605 1.247 . S
O615 Co602 2.244 . S
O615 C605 1.272 . S
O615 Co607 2.135 . S
Co616 O617 2.216 . S
Co616 O618 2.091 . S
Co616 O620 2.004 . S
Co616 O626 2.021 . S
Co616 O628 2.137 . S
Co616 O629 2.244 . S
O617 Co616 2.216 . S
O617 C624 1.247 . S
O618 Co616 2.091 . S
O618 C624 1.261 . S
C619 O628 1.247 . S
C619 O629 1.272 . S
O620 Co616 2.004 . S
O620 C625 1.259 . S
Co621 O622 2.061 . S
Co621 O627 2.052 . S
Co621 O629 2.135 . S
O622 Co621 2.061 . S
O622 C625 1.235 . S
C623 O626 1.238 . S
C623 O627 1.241 . S
C624 O617 1.247 . S
C624 O618 1.261 . S
C625 O620 1.259 . S
C625 O622 1.235 . S
O626 Co616 2.021 . S
O626 C623 1.238 . S
O627 Co621 2.052 . S
O627 C623 1.241 . S
O628 Co616 2.137 . S
O628 C619 1.247 . S
O629 Co616 2.244 . S
O629 C619 1.272 . S
O629 Co621 2.135 . S
Co630 O631 2.216 . S
Co630 O632 2.091 . S
Co630 O634 2.004 . S
Co630 O640 2.021 . S
Co630 O642 2.137 . S
Co630 O643 2.244 . S
O631 Co630 2.216 . S
O631 C638 1.247 . S
O632 Co630 2.091 . S
O632 C638 1.261 . S
C633 O642 1.247 . S
C633 O643 1.272 . S
O634 Co630 2.004 . S
O634 C639 1.259 . S
Co635 O636 2.061 . S
Co635 O641 2.052 . S
Co635 O643 2.135 . S
O636 Co635 2.061 . S
O636 C639 1.235 . S
C637 O640 1.238 . S
C637 O641 1.241 . S
C638 O631 1.247 . S
C638 O632 1.261 . S
C639 O634 1.259 . S
C639 O636 1.235 . S
O640 Co630 2.021 . S
O640 C637 1.238 . S
O641 Co635 2.052 . S
O641 C637 1.241 . S
O642 Co630 2.137 . S
O642 C633 1.247 . S
O643 Co630 2.244 . S
O643 C633 1.272 . S
O643 Co635 2.135 . S
Co644 O645 2.216 . S
Co644 O646 2.091 . S
Co644 O648 2.004 . S
Co644 O654 2.021 . S
Co644 O656 2.137 . S
Co644 O657 2.244 . S
O645 Co644 2.216 . S
O645 C652 1.247 . S
O646 Co644 2.091 . S
O646 C652 1.261 . S
C647 O656 1.247 . S
C647 O657 1.272 . S
O648 Co644 2.004 . S
O648 C653 1.259 1_556 S
Co649 O650 2.061 . S
Co649 O655 2.052 1_554 S
Co649 O657 2.135 1_554 S
O650 Co649 2.061 . S
O650 C653 1.235 . S
C651 O654 1.238 . S
C651 O655 1.241 . S
C652 O645 1.247 . S
C652 O646 1.261 . S
C653 O648 1.259 1_554 S
C653 O650 1.235 . S
O654 Co644 2.021 . S
O654 C651 1.238 . S
O655 Co649 2.052 1_556 S
O655 C651 1.241 . S
O656 Co644 2.137 . S
O656 C647 1.247 . S
O657 Co644 2.244 . S
O657 C647 1.272 . S
O657 Co649 2.135 1_556 S
Co658 O659 2.216 . S
Co658 O660 2.091 . S
Co658 O662 2.004 . S
Co658 O668 2.021 . S
Co658 O670 2.137 . S
Co658 O671 2.244 . S
O659 Co658 2.216 . S
O659 C666 1.247 . S
O660 Co658 2.091 . S
O660 C666 1.261 . S
C661 O670 1.247 . S
C661 O671 1.272 . S
O662 Co658 2.004 . S
O662 C667 1.259 . S
Co663 O664 2.061 . S
Co663 O669 2.052 . S
Co663 O671 2.135 . S
O664 Co663 2.061 . S
O664 C667 1.235 . S
C665 O668 1.238 . S
C665 O669 1.241 . S
C666 O659 1.247 . S
C666 O660 1.261 . S
C667 O662 1.259 . S
C667 O664 1.235 . S
O668 Co658 2.021 . S
O668 C665 1.238 . S
O669 Co663 2.052 . S
O669 C665 1.241 . S
O670 Co658 2.137 . S
O670 C661 1.247 . S
O671 Co658 2.244 . S
O671 C661 1.272 . S
O671 Co663 2.135 . S
C672 C673 1.349 . S
C672 C674 1.327 . S
C672 H697 0.950 . S
C673 C672 1.349 . S
C673 C689 1.349 . S
C674 C672 1.327 . S
C674 C693 1.429 . S
C674 H698 0.950 . S
C675 C692 1.574 . S
C675 C694 1.368 . S
C675 H699 0.949 . S
H676 C680 0.949 . S
C677 C678 1.349 . S
C677 C679 1.327 . S
C677 H700 0.950 . S
C678 C677 1.349 . S
C678 C690 1.349 . S
C679 C677 1.327 . S
C679 C695 1.429 . S
C679 H701 0.950 . S
C680 H676 0.949 . S
C680 C688 1.574 . S
C680 C696 1.368 . S
H681 C689 0.950 . S
H682 C687 0.950 . S
H683 C688 0.949 . S
H684 C690 0.950 . S
H685 C691 0.950 . S
H686 C692 0.949 . S
C687 H682 0.950 . S
C687 C689 1.327 . S
C687 C693 1.429 . S
C688 C680 1.574 . S
C688 H683 0.949 . S
C688 C694 1.368 . S
C689 C673 1.349 . S
C689 H681 0.950 . S
C689 C687 1.327 . S
C690 C678 1.349 . S
C690 H684 0.950 . S
C690 C691 1.327 . S
C691 H685 0.950 . S
C691 C690 1.327 . S
C691 C695 1.429 . S
C692 C675 1.574 . S
C692 H686 0.949 . S
C692 C696 1.368 . S
C693 C674 1.429 . S
C693 C687 1.429 . S
C693 C694 1.523 . S
C694 C675 1.368 . S
C694 C688 1.368 . S
C694 C693 1.523 . S
C695 C679 1.429 . S
C695 C691 1.429 . S
C695 C696 1.523 . S
C696 C680 1.368 . S
C696 C692 1.368 . S
C696 C695 1.523 . S
H697 C672 0.950 . S
H698 C674 0.950 . S
H699 C675 0.949 . S
H700 C677 0.950 . S
H701 C679 0.950 . S
C702 C703 1.349 . S
C702 C704 1.327 . S
C702 H727 0.950 . S
C703 C702 1.349 . S
C703 C719 1.349 1_565 S
C704 C702 1.327 . S
C704 C723 1.429 . S
C704 H728 0.950 . S
C705 C722 1.574 . S
C705 C724 1.368 1_545 S
C705 H729 0.949 . S
H706 C710 0.949 . S
C707 C708 1.349 . S
C707 C709 1.327 . S
C707 H730 0.950 . S
C708 C707 1.349 . S
C708 C720 1.349 1_545 S
C709 C707 1.327 . S
C709 C725 1.429 . S
C709 H731 0.950 . S
C710 H706 0.949 . S
C710 C718 1.574 . S
C710 C726 1.368 1_565 S
H711 C719 0.950 . S
H712 C717 0.950 . S
H713 C718 0.949 . S
H714 C720 0.950 . S
H715 C721 0.950 . S
H716 C722 0.949 . S
C717 H712 0.950 . S
C717 C719 1.327 . S
C717 C723 1.429 1_545 S
C718 C710 1.574 . S
C718 H713 0.949 . S
C718 C724 1.368 . S
C719 C703 1.349 1_545 S
C719 H711 0.950 . S
C719 C717 1.327 . S
C720 C708 1.349 1_565 S
C720 H714 0.950 . S
C720 C721 1.327 . S
C721 H715 0.950 . S
C721 C720 1.327 . S
C721 C725 1.429 1_565 S
C722 C705 1.574 . S
C722 H716 0.949 . S
C722 C726 1.368 . S
C723 C704 1.429 . S
C723 C717 1.429 1_565 S
C723 C724 1.523 . S
C724 C705 1.368 1_565 S
C724 C718 1.368 . S
C724 C723 1.523 . S
C725 C709 1.429 . S
C725 C721 1.429 1_545 S
C725 C726 1.523 . S
C726 C710 1.368 1_545 S
C726 C722 1.368 . S
C726 C725 1.523 . S
H727 C702 0.950 . S
H728 C704 0.950 . S
H729 C705 0.949 . S
H730 C707 0.950 . S
H731 C709 0.950 . S
C732 C733 1.349 . S
C732 C734 1.327 . S
C732 H757 0.950 . S
C733 C732 1.349 . S
C733 C749 1.349 . S
C734 C732 1.327 . S
C734 C753 1.429 . S
C734 H758 0.950 . S
C735 C752 1.574 1_556 S
C735 C754 1.368 . S
C735 H759 0.949 . S
H736 C740 0.949 . S
C737 C738 1.349 . S
C737 C739 1.327 . S
C737 H760 0.950 . S
C738 C737 1.349 . S
C738 C750 1.349 . S
C739 C737 1.327 . S
C739 C755 1.429 . S
C739 H761 0.950 . S
C740 H736 0.949 . S
C740 C748 1.574 1_554 S
C740 C756 1.368 . S
H741 C749 0.950 . S
H742 C747 0.950 . S
H743 C748 0.949 . S
H744 C750 0.950 . S
H745 C751 0.950 . S
H746 C752 0.949 . S
C747 H742 0.950 . S
C747 C749 1.327 . S
C747 C753 1.429 . S
C748 C740 1.574 1_556 S
C748 H743 0.949 . S
C748 C754 1.368 . S
C749 C733 1.349 . S
C749 H741 0.950 . S
C749 C747 1.327 . S
C750 C738 1.349 . S
C750 H744 0.950 . S
C750 C751 1.327 . S
C751 H745 0.950 . S
C751 C750 1.327 . S
C751 C755 1.429 . S
C752 C735 1.574 1_554 S
C752 H746 0.949 . S
C752 C756 1.368 . S
C753 C734 1.429 . S
C753 C747 1.429 . S
C753 C754 1.523 . S
C754 C735 1.368 . S
C754 C748 1.368 . S
C754 C753 1.523 . S
C755 C739 1.429 . S
C755 C751 1.429 . S
C755 C756 1.523 . S
C756 C740 1.368 . S
C756 C752 1.368 . S
C756 C755 1.523 . S
H757 C732 0.950 . S
H758 C734 0.950 . S
H759 C735 0.949 . S
H760 C737 0.950 . S
H761 C739 0.950 . S
C762 C763 1.351 1_545 S
C762 C764 1.327 . S
C762 H787 0.948 . S
C763 C762 1.351 1_565 S
C763 C779 1.349 . S
C764 C762 1.327 . S
C764 C783 1.429 1_545 S
C764 H788 0.950 . S
C765 C782 1.574 . S
C765 C784 1.368 . S
C765 H789 0.949 . S
H766 C770 0.949 . S
C767 C768 1.351 1_565 S
C767 C769 1.327 . S
C767 H790 0.948 . S
C768 C767 1.351 1_545 S
C768 C780 1.349 . S
C769 C767 1.327 . S
C769 C785 1.429 1_565 S
C769 H791 0.950 . S
C770 H766 0.949 . S
C770 C778 1.574 . S
C770 C786 1.368 . S
H771 C779 0.950 . S
H772 C777 0.950 . S
H773 C778 0.949 . S
H774 C780 0.950 . S
H775 C781 0.950 . S
H776 C782 0.949 . S
C777 H772 0.950 . S
C777 C779 1.327 . S
C777 C783 1.429 . S
C778 C770 1.574 . S
C778 H773 0.949 . S
C778 C784 1.368 1_545 S
C779 C763 1.349 . S
C779 H771 0.950 . S
C779 C777 1.327 . S
C780 C768 1.349 . S
C780 H774 0.950 . S
C780 C781 1.327 . S
C781 H775 0.950 . S
C781 C780 1.327 . S
C781 C785 1.429 . S
C782 C765 1.574 . S
C782 H776 0.949 . S
C782 C786 1.368 1_565 S
C783 C764 1.429 1_565 S
C783 C777 1.429 . S
C783 C784 1.523 . S
C784 C765 1.368 . S
C784 C778 1.368 1_565 S
C784 C783 1.523 . S
C785 C769 1.429 1_545 S
C785 C781 1.429 . S
C785 C786 1.523 . S
C786 C770 1.368 . S
C786 C782 1.368 1_545 S
C786 C785 1.523 . S
H787 C762 0.948 . S
H788 C764 0.950 . S
H789 C765 0.949 . S
H790 C767 0.948 . S
H791 C769 0.950 . S
C792 C793 1.349 . S
C792 C794 1.327 . S
C792 H817 0.950 . S
C793 C792 1.349 . S
C793 C809 1.349 . S
C794 C792 1.327 . S
C794 C813 1.429 . S
C794 H818 0.950 . S
C795 C812 1.574 . S
C795 C814 1.368 . S
C795 H819 0.949 . S
H796 C800 0.949 . S
C797 C798 1.349 . S
C797 C799 1.327 . S
C797 H820 0.950 . S
C798 C797 1.349 . S
C798 C810 1.349 . S
C799 C797 1.327 . S
C799 C815 1.429 . S
C799 H821 0.950 . S
C800 H796 0.949 . S
C800 C808 1.574 . S
C800 C816 1.368 . S
H801 C809 0.950 . S
H802 C807 0.950 . S
H803 C808 0.949 . S
H804 C810 0.950 . S
H805 C811 0.950 . S
H806 C812 0.949 . S
C807 H802 0.950 . S
C807 C809 1.327 . S
C807 C813 1.429 . S
C808 C800 1.574 . S
C808 H803 0.949 . S
C808 C814 1.368 . S
C809 C793 1.349 . S
C809 H801 0.950 . S
C809 C807 1.327 . S
C810 C798 1.349 . S
C810 H804 0.950 . S
C810 C811 1.327 . S
C811 H805 0.950 . S
C811 C810 1.327 . S
C811 C815 1.429 . S
C812 C795 1.574 . S
C812 H806 0.949 . S
C812 C816 1.368 . S
C813 C794 1.429 . S
C813 C807 1.429 . S
C813 C814 1.523 . S
C814 C795 1.368 . S
C814 C808 1.368 . S
C814 C813 1.523 . S
C815 C799 1.429 . S
C815 C811 1.429 . S
C815 C816 1.523 . S
C816 C800 1.368 . S
C816 C812 1.368 . S
C816 C815 1.523 . S
H817 C792 0.950 . S
H818 C794 0.950 . S
H819 C795 0.949 . S
H820 C797 0.950 . S
H821 C799 0.950 . S
C822 C823 1.322 1_455 S
C822 C824 1.335 . S
C822 H847 0.972 . S
C823 C822 1.322 1_655 S
C823 C839 1.349 . S
C824 C822 1.335 . S
C824 C843 1.429 1_455 S
C824 H848 0.950 . S
C825 C842 1.574 . S
C825 C844 1.368 . S
C825 H849 0.949 . S
H826 C830 0.949 . S
C827 C828 1.322 1_655 S
C827 C829 1.335 . S
C827 H850 0.972 . S
C828 C827 1.322 1_455 S
C828 C840 1.349 . S
C829 C827 1.335 . S
C829 C845 1.429 1_655 S
C829 H851 0.950 . S
C830 H826 0.949 . S
C830 C838 1.574 . S
C830 C846 1.368 . S
H831 C839 0.950 . S
H832 C837 0.950 . S
H833 C838 0.949 . S
H834 C840 0.950 . S
H835 C841 0.950 . S
H836 C842 0.949 . S
C837 H832 0.950 . S
C837 C839 1.327 . S
C837 C843 1.429 . S
C838 C830 1.574 . S
C838 H833 0.949 . S
C838 C844 1.368 1_455 S
C839 C823 1.349 . S
C839 H831 0.950 . S
C839 C837 1.327 . S
C840 C828 1.349 . S
C840 H834 0.950 . S
C840 C841 1.327 . S
C841 H835 0.950 . S
C841 C840 1.327 . S
C841 C845 1.429 . S
C842 C825 1.574 . S
C842 H836 0.949 . S
C842 C846 1.368 1_655 S
C843 C824 1.429 1_655 S
C843 C837 1.429 . S
C843 C844 1.523 . S
C844 C825 1.368 . S
C844 C838 1.368 1_655 S
C844 C843 1.523 . S
C845 C829 1.429 1_455 S
C845 C841 1.429 . S
C845 C846 1.523 . S
C846 C830 1.368 . S
C846 C842 1.368 1_455 S
C846 C845 1.523 . S
H847 C822 0.972 . S
H848 C824 0.950 . S
H849 C825 0.949 . S
H850 C827 0.972 . S
H851 C829 0.950 . S
C852 C853 1.349 . S
C852 C854 1.327 . S
C852 H877 0.950 . S
C853 C852 1.349 . S
C853 C869 1.349 . S
C854 C852 1.327 . S
C854 C873 1.429 . S
C854 H878 0.950 . S
C855 C872 1.574 1_455 S
C855 C874 1.368 . S
C855 H879 0.949 . S
H856 C860 0.949 . S
C857 C858 1.349 . S
C857 C859 1.327 . S
C857 H880 0.950 . S
C858 C857 1.349 . S
C858 C870 1.349 . S
C859 C857 1.327 . S
C859 C875 1.429 . S
C859 H881 0.950 . S
C860 H856 0.949 . S
C860 C868 1.574 1_655 S
C860 C876 1.368 . S
H861 C869 0.950 . S
H862 C867 0.950 . S
H863 C868 0.949 . S
H864 C870 0.950 . S
H865 C871 0.950 . S
H866 C872 0.949 . S
C867 H862 0.950 . S
C867 C869 1.327 . S
C867 C873 1.429 . S
C868 C860 1.574 1_455 S
C868 H863 0.949 . S
C868 C874 1.368 . S
C869 C853 1.349 . S
C869 H861 0.950 . S
C869 C867 1.327 . S
C870 C858 1.349 . S
C870 H864 0.950 . S
C870 C871 1.327 . S
C871 H865 0.950 . S
C871 C870 1.327 . S
C871 C875 1.429 . S
C872 C855 1.574 1_655 S
C872 H866 0.949 . S
C872 C876 1.368 . S
C873 C854 1.429 . S
C873 C867 1.429 . S
C873 C874 1.523 . S
C874 C855 1.368 . S
C874 C868 1.368 . S
C874 C873 1.523 . S
C875 C859 1.429 . S
C875 C871 1.429 . S
C875 C876 1.523 . S
C876 C860 1.368 . S
C876 C872 1.368 . S
C876 C875 1.523 . S
H877 C852 0.950 . S
H878 C854 0.950 . S
H879 C855 0.949 . S
H880 C857 0.950 . S
H881 C859 0.950 . S
C882 C883 1.349 . S
C882 C884 1.327 . S
C882 H907 0.950 . S
C883 C882 1.349 . S
C883 C899 1.349 . S
C884 C882 1.327 . S
C884 C903 1.429 . S
C884 H908 0.950 . S
C885 C902 1.574 . S
C885 C904 1.368 . S
C885 H909 0.949 . S
H886 C890 0.949 . S
C887 C888 1.349 . S
C887 C889 1.327 . S
C887 H910 0.950 . S
C888 C887 1.349 . S
C888 C900 1.349 . S
C889 C887 1.327 . S
C889 C905 1.429 . S
C889 H911 0.950 . S
C890 H886 0.949 . S
C890 C898 1.574 . S
C890 C906 1.368 . S
H891 C899 0.950 . S
H892 C897 0.950 . S
H893 C898 0.949 . S
H894 C900 0.950 . S
H895 C901 0.950 . S
H896 C902 0.949 . S
C897 H892 0.950 . S
C897 C899 1.327 . S
C897 C903 1.429 . S
C898 C890 1.574 . S
C898 H893 0.949 . S
C898 C904 1.368 . S
C899 C883 1.349 . S
C899 H891 0.950 . S
C899 C897 1.327 . S
C900 C888 1.349 . S
C900 H894 0.950 . S
C900 C901 1.327 . S
C901 H895 0.950 . S
C901 C900 1.327 . S
C901 C905 1.429 . S
C902 C885 1.574 . S
C902 H896 0.949 . S
C902 C906 1.368 . S
C903 C884 1.429 . S
C903 C897 1.429 . S
C903 C904 1.523 . S
C904 C885 1.368 . S
C904 C898 1.368 . S
C904 C903 1.523 . S
C905 C889 1.429 . S
C905 C901 1.429 . S
C905 C906 1.523 . S
C906 C890 1.368 . S
C906 C902 1.368 . S
C906 C905 1.523 . S
H907 C882 0.950 . S
H908 C884 0.950 . S
H909 C885 0.949 . S
H910 C887 0.950 . S
H911 C889 0.950 . S
C912 C913 1.349 . S
C912 C914 1.327 . S
C912 H937 0.950 . S
C913 C912 1.349 . S
C913 C929 1.349 . S
C914 C912 1.327 . S
C914 C933 1.429 . S
C914 H938 0.950 . S
C915 C932 1.574 . S
C915 C934 1.368 . S
C915 H939 0.949 . S
H916 C920 0.949 . S
C917 C918 1.349 . S
C917 C919 1.327 . S
C917 H940 0.950 . S
C918 C917 1.349 . S
C918 C930 1.349 . S
C919 C917 1.327 . S
C919 C935 1.429 . S
C919 H941 0.950 . S
C920 H916 0.949 . S
C920 C928 1.574 . S
C920 C936 1.368 . S
H921 C929 0.950 . S
H922 C927 0.950 . S
H923 C928 0.949 . S
H924 C930 0.950 . S
H925 C931 0.950 . S
H926 C932 0.949 . S
C927 H922 0.950 . S
C927 C929 1.327 . S
C927 C933 1.429 . S
C928 C920 1.574 . S
C928 H923 0.949 . S
C928 C934 1.368 . S
C929 C913 1.349 . S
C929 H921 0.950 . S
C929 C927 1.327 . S
C930 C918 1.349 . S
C930 H924 0.950 . S
C930 C931 1.327 . S
C931 H925 0.950 . S
C931 C930 1.327 . S
C931 C935 1.429 . S
C932 C915 1.574 . S
C932 H926 0.949 . S
C932 C936 1.368 . S
C933 C914 1.429 . S
C933 C927 1.429 . S
C933 C934 1.523 . S
C934 C915 1.368 . S
C934 C928 1.368 . S
C934 C933 1.523 . S
C935 C919 1.429 . S
C935 C931 1.429 . S
C935 C936 1.523 . S
C936 C920 1.368 . S
C936 C932 1.368 . S
C936 C935 1.523 . S
H937 C912 0.950 . S
H938 C914 0.950 . S
H939 C915 0.949 . S
H940 C917 0.950 . S
H941 C919 0.950 . S
C942 C943 1.349 . S
C942 C944 1.327 . S
C942 H967 0.950 . S
C943 C942 1.349 . S
C943 C959 1.349 . S
C944 C942 1.327 . S
C944 C963 1.429 . S
C944 H968 0.950 . S
C945 C962 1.574 . S
C945 C964 1.368 . S
C945 H969 0.949 . S
H946 C950 0.949 . S
C947 C948 1.349 . S
C947 C949 1.327 . S
C947 H970 0.950 . S
C948 C947 1.349 . S
C948 C960 1.349 . S
C949 C947 1.327 . S
C949 C965 1.429 . S
C949 H971 0.950 . S
C950 H946 0.949 . S
C950 C958 1.574 . S
C950 C966 1.368 . S
H951 C959 0.950 . S
H952 C957 0.950 . S
H953 C958 0.949 . S
H954 C960 0.950 . S
H955 C961 0.950 . S
H956 C962 0.949 . S
C957 H952 0.950 . S
C957 C959 1.327 . S
C957 C963 1.429 . S
C958 C950 1.574 . S
C958 H953 0.949 . S
C958 C964 1.368 . S
C959 C943 1.349 . S
C959 H951 0.950 . S
C959 C957 1.327 . S
C960 C948 1.349 . S
C960 H954 0.950 . S
C960 C961 1.327 . S
C961 H955 0.950 . S
C961 C960 1.327 . S
C961 C965 1.429 . S
C962 C945 1.574 . S
C962 H956 0.949 . S
C962 C966 1.368 . S
C963 C944 1.429 . S
C963 C957 1.429 . S
C963 C964 1.523 . S
C964 C945 1.368 . S
C964 C958 1.368 . S
C964 C963 1.523 . S
C965 C949 1.429 . S
C965 C961 1.429 . S
C965 C966 1.523 . S
C966 C950 1.368 . S
C966 C962 1.368 . S
C966 C965 1.523 . S
H967 C942 0.950 . S
H968 C944 0.950 . S
H969 C945 0.949 . S
H970 C947 0.950 . S
H971 C949 0.950 . S
C972 C973 1.349 . S
C972 C974 1.327 . S
C972 H997 0.950 . S
C973 C972 1.349 . S
C973 C989 1.349 . S
C974 C972 1.327 . S
C974 C993 1.429 . S
C974 H998 0.950 . S
C975 C992 1.574 1_655 S
C975 C994 1.368 . S
C975 H999 0.949 . S
H976 C980 0.949 . S
C977 C978 1.349 . S
C977 C979 1.327 . S
C977 H1000 0.950 . S
C978 C977 1.349 . S
C978 C990 1.349 . S
C979 C977 1.327 . S
C979 C995 1.429 . S
C979 H1001 0.950 . S
C980 H976 0.949 . S
C980 C988 1.574 1_455 S
C980 C996 1.368 . S
H981 C989 0.950 . S
H982 C987 0.950 . S
H983 C988 0.949 . S
H984 C990 0.950 . S
H985 C991 0.950 . S
H986 C992 0.949 . S
C987 H982 0.950 . S
C987 C989 1.327 . S
C987 C993 1.429 . S
C988 C980 1.574 1_655 S
C988 H983 0.949 . S
C988 C994 1.368 . S
C989 C973 1.349 . S
C989 H981 0.950 . S
C989 C987 1.327 . S
C990 C978 1.349 . S
C990 H984 0.950 . S
C990 C991 1.327 . S
C991 H985 0.950 . S
C991 C990 1.327 . S
C991 C995 1.429 . S
C992 C975 1.574 1_455 S
C992 H986 0.949 . S
C992 C996 1.368 . S
C993 C974 1.429 . S
C993 C987 1.429 . S
C993 C994 1.523 . S
C994 C975 1.368 . S
C994 C988 1.368 . S
C994 C993 1.523 . S
C995 C979 1.429 . S
C995 C991 1.429 . S
C995 C996 1.523 . S
C996 C980 1.368 . S
C996 C992 1.368 . S
C996 C995 1.523 . S
H997 C972 0.950 . S
H998 C974 0.950 . S
H999 C975 0.949 . S
H1000 C977 0.950 . S
H1001 C979 0.950 . S
C1002 C1003 1.322 1_455 S
C1002 C1004 1.335 . S
C1002 H1027 0.972 . S
C1003 C1002 1.322 1_655 S
C1003 C1019 1.349 . S
C1004 C1002 1.335 . S
C1004 C1023 1.429 1_455 S
C1004 H1028 0.950 . S
C1005 C1022 1.574 . S
C1005 C1024 1.368 . S
C1005 H1029 0.949 . S
H1006 C1010 0.949 . S
C1007 C1008 1.322 1_655 S
C1007 C1009 1.335 . S
C1007 H1030 0.972 . S
C1008 C1007 1.322 1_455 S
C1008 C1020 1.349 . S
C1009 C1007 1.335 . S
C1009 C1025 1.429 1_655 S
C1009 H1031 0.950 . S
C1010 H1006 0.949 . S
C1010 C1018 1.574 . S
C1010 C1026 1.368 . S
H1011 C1019 0.950 . S
H1012 C1017 0.950 . S
H1013 C1018 0.949 . S
H1014 C1020 0.950 . S
H1015 C1021 0.950 . S
H1016 C1022 0.949 . S
C1017 H1012 0.950 . S
C1017 C1019 1.327 . S
C1017 C1023 1.429 . S
C1018 C1010 1.574 . S
C1018 H1013 0.949 . S
C1018 C1024 1.368 1_455 S
C1019 C1003 1.349 . S
C1019 H1011 0.950 . S
C1019 C1017 1.327 . S
C1020 C1008 1.349 . S
C1020 H1014 0.950 . S
C1020 C1021 1.327 . S
C1021 H1015 0.950 . S
C1021 C1020 1.327 . S
C1021 C1025 1.429 . S
C1022 C1005 1.574 . S
C1022 H1016 0.949 . S
C1022 C1026 1.368 1_655 S
C1023 C1004 1.429 1_655 S
C1023 C1017 1.429 . S
C1023 C1024 1.523 . S
C1024 C1005 1.368 . S
C1024 C1018 1.368 1_655 S
C1024 C1023 1.523 . S
C1025 C1009 1.429 1_455 S
C1025 C1021 1.429 . S
C1025 C1026 1.523 . S
C1026 C1010 1.368 . S
C1026 C1022 1.368 1_455 S
C1026 C1025 1.523 . S
H1027 C1002 0.972 . S
H1028 C1004 0.950 . S
H1029 C1005 0.949 . S
H1030 C1007 0.972 . S
H1031 C1009 0.950 . S
C1032 C1033 1.349 . S
C1032 C1034 1.327 . S
C1032 H1057 0.950 . S
C1033 C1032 1.349 . S
C1033 C1049 1.349 . S
C1034 C1032 1.327 . S
C1034 C1053 1.429 . S
C1034 H1058 0.950 . S
C1035 C1052 1.574 . S
C1035 C1054 1.368 . S
C1035 H1059 0.949 . S
H1036 C1040 0.949 . S
C1037 C1038 1.349 . S
C1037 C1039 1.327 . S
C1037 H1060 0.950 . S
C1038 C1037 1.349 . S
C1038 C1050 1.349 . S
C1039 C1037 1.327 . S
C1039 C1055 1.429 . S
C1039 H1061 0.950 . S
C1040 H1036 0.949 . S
C1040 C1048 1.574 . S
C1040 C1056 1.368 . S
H1041 C1049 0.950 . S
H1042 C1047 0.950 . S
H1043 C1048 0.949 . S
H1044 C1050 0.950 . S
H1045 C1051 0.950 . S
H1046 C1052 0.949 . S
C1047 H1042 0.950 . S
C1047 C1049 1.327 . S
C1047 C1053 1.429 . S
C1048 C1040 1.574 . S
C1048 H1043 0.949 . S
C1048 C1054 1.368 . S
C1049 C1033 1.349 . S
C1049 H1041 0.950 . S
C1049 C1047 1.327 . S
C1050 C1038 1.349 . S
C1050 H1044 0.950 . S
C1050 C1051 1.327 . S
C1051 H1045 0.950 . S
C1051 C1050 1.327 . S
C1051 C1055 1.429 . S
C1052 C1035 1.574 . S
C1052 H1046 0.949 . S
C1052 C1056 1.368 . S
C1053 C1034 1.429 . S
C1053 C1047 1.429 . S
C1053 C1054 1.523 . S
C1054 C1035 1.368 . S
C1054 C1048 1.368 . S
C1054 C1053 1.523 . S
C1055 C1039 1.429 . S
C1055 C1051 1.429 . S
C1055 C1056 1.523 . S
C1056 C1040 1.368 . S
C1056 C1052 1.368 . S
C1056 C1055 1.523 . S
H1057 C1032 0.950 . S
H1058 C1034 0.950 . S
H1059 C1035 0.949 . S
H1060 C1037 0.950 . S
H1061 C1039 0.950 . S
C1062 C1063 1.349 . S
C1062 C1064 1.327 . S
C1062 H1087 0.950 . S
C1063 C1062 1.349 . S
C1063 C1079 1.349 . S
C1064 C1062 1.327 . S
C1064 C1083 1.429 . S
C1064 H1088 0.950 . S
C1065 C1082 1.574 1_545 S
C1065 C1084 1.368 . S
C1065 H1089 0.949 . S
H1066 C1070 0.949 . S
C1067 C1068 1.349 . S
C1067 C1069 1.327 . S
C1067 H1090 0.950 . S
C1068 C1067 1.349 . S
C1068 C1080 1.349 . S
C1069 C1067 1.327 . S
C1069 C1085 1.429 . S
C1069 H1091 0.950 . S
C1070 H1066 0.949 . S
C1070 C1078 1.574 1_565 S
C1070 C1086 1.368 . S
H1071 C1079 0.950 . S
H1072 C1077 0.950 . S
H1073 C1078 0.949 . S
H1074 C1080 0.950 . S
H1075 C1081 0.950 . S
H1076 C1082 0.949 . S
C1077 H1072 0.950 . S
C1077 C1079 1.327 . S
C1077 C1083 1.429 . S
C1078 C1070 1.574 1_545 S
C1078 H1073 0.949 . S
C1078 C1084 1.368 . S
C1079 C1063 1.349 . S
C1079 H1071 0.950 . S
C1079 C1077 1.327 . S
C1080 C1068 1.349 . S
C1080 H1074 0.950 . S
C1080 C1081 1.327 . S
C1081 H1075 0.950 . S
C1081 C1080 1.327 . S
C1081 C1085 1.429 . S
C1082 C1065 1.574 1_565 S
C1082 H1076 0.949 . S
C1082 C1086 1.368 . S
C1083 C1064 1.429 . S
C1083 C1077 1.429 . S
C1083 C1084 1.523 . S
C1084 C1065 1.368 . S
C1084 C1078 1.368 . S
C1084 C1083 1.523 . S
C1085 C1069 1.429 . S
C1085 C1081 1.429 . S
C1085 C1086 1.523 . S
C1086 C1070 1.368 . S
C1086 C1082 1.368 . S
C1086 C1085 1.523 . S
H1087 C1062 0.950 . S
H1088 C1064 0.950 . S
H1089 C1065 0.949 . S
H1090 C1067 0.950 . S
H1091 C1069 0.950 . S
C1092 C1093 1.322 1_556 S
C1092 C1094 1.335 . S
C1092 H1117 0.972 . S
C1093 C1092 1.322 1_554 S
C1093 C1109 1.349 . S
C1094 C1092 1.335 . S
C1094 C1113 1.429 1_556 S
C1094 H1118 0.950 . S
C1095 C1112 1.574 . S
C1095 C1114 1.368 . S
C1095 H1119 0.949 . S
H1096 C1100 0.949 . S
C1097 C1098 1.322 1_554 S
C1097 C1099 1.335 . S
C1097 H1120 0.972 . S
C1098 C1097 1.322 1_556 S
C1098 C1110 1.349 . S
C1099 C1097 1.335 . S
C1099 C1115 1.429 1_554 S
C1099 H1121 0.950 . S
C1100 H1096 0.949 . S
C1100 C1108 1.574 . S
C1100 C1116 1.368 . S
H1101 C1109 0.950 . S
H1102 C1107 0.950 . S
H1103 C1108 0.949 . S
H1104 C1110 0.950 . S
H1105 C1111 0.950 . S
H1106 C1112 0.949 . S
C1107 H1102 0.950 . S
C1107 C1109 1.327 . S
C1107 C1113 1.429 . S
C1108 C1100 1.574 . S
C1108 H1103 0.949 . S
C1108 C1114 1.368 1_556 S
C1109 C1093 1.349 . S
C1109 H1101 0.950 . S
C1109 C1107 1.327 . S
C1110 C1098 1.349 . S
C1110 H1104 0.950 . S
C1110 C1111 1.327 . S
C1111 H1105 0.950 . S
C1111 C1110 1.327 . S
C1111 C1115 1.429 . S
C1112 C1095 1.574 . S
C1112 H1106 0.949 . S
C1112 C1116 1.368 1_554 S
C1113 C1094 1.429 1_554 S
C1113 C1107 1.429 . S
C1113 C1114 1.523 . S
C1114 C1095 1.368 . S
C1114 C1108 1.368 1_554 S
C1114 C1113 1.523 . S
C1115 C1099 1.429 1_556 S
C1115 C1111 1.429 . S
C1115 C1116 1.523 . S
C1116 C1100 1.368 . S
C1116 C1112 1.368 1_556 S
C1116 C1115 1.523 . S
H1117 C1092 0.972 . S
H1118 C1094 0.950 . S
H1119 C1095 0.949 . S
H1120 C1097 0.972 . S
H1121 C1099 0.950 . S
C1122 C1123 1.349 . S
C1122 C1124 1.327 . S
C1122 H1147 0.950 . S
C1123 C1122 1.349 . S
C1123 C1139 1.349 . S
C1124 C1122 1.327 . S
C1124 C1143 1.429 . S
C1124 H1148 0.950 . S
C1125 C1142 1.574 1_545 S
C1125 C1144 1.368 . S
C1125 H1149 0.949 . S
H1126 C1130 0.949 . S
C1127 C1128 1.349 . S
C1127 C1129 1.327 . S
C1127 H1150 0.950 . S
C1128 C1127 1.349 . S
C1128 C1140 1.349 . S
C1129 C1127 1.327 . S
C1129 C1145 1.429 . S
C1129 H1151 0.950 . S
C1130 H1126 0.949 . S
C1130 C1138 1.574 1_565 S
C1130 C1146 1.368 . S
H1131 C1139 0.950 . S
H1132 C1137 0.950 . S
H1133 C1138 0.949 . S
H1134 C1140 0.950 . S
H1135 C1141 0.950 . S
H1136 C1142 0.949 . S
C1137 H1132 0.950 . S
C1137 C1139 1.327 . S
C1137 C1143 1.429 . S
C1138 C1130 1.574 1_545 S
C1138 H1133 0.949 . S
C1138 C1144 1.368 . S
C1139 C1123 1.349 . S
C1139 H1131 0.950 . S
C1139 C1137 1.327 . S
C1140 C1128 1.349 . S
C1140 H1134 0.950 . S
C1140 C1141 1.327 . S
C1141 H1135 0.950 . S
C1141 C1140 1.327 . S
C1141 C1145 1.429 . S
C1142 C1125 1.574 1_565 S
C1142 H1136 0.949 . S
C1142 C1146 1.368 . S
C1143 C1124 1.429 . S
C1143 C1137 1.429 . S
C1143 C1144 1.523 . S
C1144 C1125 1.368 . S
C1144 C1138 1.368 . S
C1144 C1143 1.523 . S
C1145 C1129 1.429 . S
C1145 C1141 1.429 . S
C1145 C1146 1.523 . S
C1146 C1130 1.368 . S
C1146 C1142 1.368 . S
C1146 C1145 1.523 . S
H1147 C1122 0.950 . S
H1148 C1124 0.950 . S
H1149 C1125 0.949 . S
H1150 C1127 0.950 . S
H1151 C1129 0.950 . S
C1152 C1153 1.349 . S
C1152 C1154 1.327 . S
C1152 H1177 0.950 . S
C1153 C1152 1.349 . S
C1153 C1169 1.322 1_556 S
C1154 C1152 1.327 . S
C1154 C1173 1.429 . S
C1154 H1178 0.950 . S
C1155 C1172 1.574 . S
C1155 C1174 1.368 1_554 S
C1155 H1179 0.949 . S
H1156 C1160 0.949 . S
C1157 C1158 1.349 . S
C1157 C1159 1.327 . S
C1157 H1180 0.950 . S
C1158 C1157 1.349 . S
C1158 C1170 1.322 1_554 S
C1159 C1157 1.327 . S
C1159 C1175 1.429 . S
C1159 H1181 0.950 . S
C1160 H1156 0.949 . S
C1160 C1168 1.574 . S
C1160 C1176 1.368 1_556 S
H1161 C1169 0.972 . S
H1162 C1167 0.950 . S
H1163 C1168 0.949 . S
H1164 C1170 0.972 . S
H1165 C1171 0.950 . S
H1166 C1172 0.949 . S
C1167 H1162 0.950 . S
C1167 C1169 1.335 . S
C1167 C1173 1.429 1_554 S
C1168 C1160 1.574 . S
C1168 H1163 0.949 . S
C1168 C1174 1.368 . S
C1169 C1153 1.322 1_554 S
C1169 H1161 0.972 . S
C1169 C1167 1.335 . S
C1170 C1158 1.322 1_556 S
C1170 H1164 0.972 . S
C1170 C1171 1.335 . S
C1171 H1165 0.950 . S
C1171 C1170 1.335 . S
C1171 C1175 1.429 1_556 S
C1172 C1155 1.574 . S
C1172 H1166 0.949 . S
C1172 C1176 1.368 . S
C1173 C1154 1.429 . S
C1173 C1167 1.429 1_556 S
C1173 C1174 1.523 . S
C1174 C1155 1.368 1_556 S
C1174 C1168 1.368 . S
C1174 C1173 1.523 . S
C1175 C1159 1.429 . S
C1175 C1171 1.429 1_554 S
C1175 C1176 1.523 . S
C1176 C1160 1.368 1_554 S
C1176 C1172 1.368 . S
C1176 C1175 1.523 . S
H1177 C1152 0.950 . S
H1178 C1154 0.950 . S
H1179 C1155 0.949 . S
H1180 C1157 0.950 . S
H1181 C1159 0.950 . S
C1182 C1183 1.349 . S
C1182 C1184 1.327 . S
C1182 H1207 0.950 . S
C1183 C1182 1.349 . S
C1183 C1199 1.349 . S
C1184 C1182 1.327 . S
C1184 C1203 1.429 . S
C1184 H1208 0.950 . S
C1185 C1202 1.574 . S
C1185 C1204 1.368 . S
C1185 H1209 0.949 . S
H1186 C1190 0.949 . S
C1187 C1188 1.349 . S
C1187 C1189 1.327 . S
C1187 H1210 0.950 . S
C1188 C1187 1.349 . S
C1188 C1200 1.349 . S
C1189 C1187 1.327 . S
C1189 C1205 1.429 . S
C1189 H1211 0.950 . S
C1190 H1186 0.949 . S
C1190 C1198 1.574 . S
C1190 C1206 1.368 . S
H1191 C1199 0.950 . S
H1192 C1197 0.950 . S
H1193 C1198 0.949 . S
H1194 C1200 0.950 . S
H1195 C1201 0.950 . S
H1196 C1202 0.949 . S
C1197 H1192 0.950 . S
C1197 C1199 1.327 . S
C1197 C1203 1.429 . S
C1198 C1190 1.574 . S
C1198 H1193 0.949 . S
C1198 C1204 1.368 . S
C1199 C1183 1.349 . S
C1199 H1191 0.950 . S
C1199 C1197 1.327 . S
C1200 C1188 1.349 . S
C1200 H1194 0.950 . S
C1200 C1201 1.327 . S
C1201 H1195 0.950 . S
C1201 C1200 1.327 . S
C1201 C1205 1.429 . S
C1202 C1185 1.574 . S
C1202 H1196 0.949 . S
C1202 C1206 1.368 . S
C1203 C1184 1.429 . S
C1203 C1197 1.429 . S
C1203 C1204 1.523 . S
C1204 C1185 1.368 . S
C1204 C1198 1.368 . S
C1204 C1203 1.523 . S
C1205 C1189 1.429 . S
C1205 C1201 1.429 . S
C1205 C1206 1.523 . S
C1206 C1190 1.368 . S
C1206 C1202 1.368 . S
C1206 C1205 1.523 . S
H1207 C1182 0.950 . S
H1208 C1184 0.950 . S
H1209 C1185 0.949 . S
H1210 C1187 0.950 . S
H1211 C1189 0.950 . S
C1212 C1213 1.349 . S
C1212 C1214 1.327 . S
C1212 H1237 0.950 . S
C1213 C1212 1.349 . S
C1213 C1229 1.349 . S
C1214 C1212 1.327 . S
C1214 C1233 1.429 . S
C1214 H1238 0.950 . S
C1215 C1232 1.574 . S
C1215 C1234 1.368 . S
C1215 H1239 0.949 . S
H1216 C1220 0.949 . S
C1217 C1218 1.349 . S
C1217 C1219 1.327 . S
C1217 H1240 0.950 . S
C1218 C1217 1.349 . S
C1218 C1230 1.349 . S
C1219 C1217 1.327 . S
C1219 C1235 1.429 . S
C1219 H1241 0.950 . S
C1220 H1216 0.949 . S
C1220 C1228 1.574 . S
C1220 C1236 1.368 . S
H1221 C1229 0.950 . S
H1222 C1227 0.950 . S
H1223 C1228 0.949 . S
H1224 C1230 0.950 . S
H1225 C1231 0.950 . S
H1226 C1232 0.949 . S
C1227 H1222 0.950 . S
C1227 C1229 1.327 . S
C1227 C1233 1.429 . S
C1228 C1220 1.574 . S
C1228 H1223 0.949 . S
C1228 C1234 1.368 . S
C1229 C1213 1.349 . S
C1229 H1221 0.950 . S
C1229 C1227 1.327 . S
C1230 C1218 1.349 . S
C1230 H1224 0.950 . S
C1230 C1231 1.327 . S
C1231 H1225 0.950 . S
C1231 C1230 1.327 . S
C1231 C1235 1.429 . S
C1232 C1215 1.574 . S
C1232 H1226 0.949 . S
C1232 C1236 1.368 . S
C1233 C1214 1.429 . S
C1233 C1227 1.429 . S
C1233 C1234 1.523 . S
C1234 C1215 1.368 . S
C1234 C1228 1.368 . S
C1234 C1233 1.523 . S
C1235 C1219 1.429 . S
C1235 C1231 1.429 . S
C1235 C1236 1.523 . S
C1236 C1220 1.368 . S
C1236 C1232 1.368 . S
C1236 C1235 1.523 . S
H1237 C1212 0.950 . S
H1238 C1214 0.950 . S
H1239 C1215 0.949 . S
H1240 C1217 0.950 . S
H1241 C1219 0.950 . S
C1242 C1243 1.349 . S
C1242 C1244 1.327 . S
C1242 H1267 0.950 . S
C1243 C1242 1.349 . S
C1243 C1259 1.349 . S
C1244 C1242 1.327 . S
C1244 C1263 1.429 . S
C1244 H1268 0.950 . S
C1245 C1262 1.574 1_554 S
C1245 C1264 1.368 . S
C1245 H1269 0.949 . S
H1246 C1250 0.949 . S
C1247 C1248 1.349 . S
C1247 C1249 1.327 . S
C1247 H1270 0.950 . S
C1248 C1247 1.349 . S
C1248 C1260 1.349 . S
C1249 C1247 1.327 . S
C1249 C1265 1.429 . S
C1249 H1271 0.950 . S
C1250 H1246 0.949 . S
C1250 C1258 1.574 1_556 S
C1250 C1266 1.368 . S
H1251 C1259 0.950 . S
H1252 C1257 0.950 . S
H1253 C1258 0.949 . S
H1254 C1260 0.950 . S
H1255 C1261 0.950 . S
H1256 C1262 0.949 . S
C1257 H1252 0.950 . S
C1257 C1259 1.327 . S
C1257 C1263 1.429 . S
C1258 C1250 1.574 1_554 S
C1258 H1253 0.949 . S
C1258 C1264 1.368 . S
C1259 C1243 1.349 . S
C1259 H1251 0.950 . S
C1259 C1257 1.327 . S
C1260 C1248 1.349 . S
C1260 H1254 0.950 . S
C1260 C1261 1.327 . S
C1261 H1255 0.950 . S
C1261 C1260 1.327 . S
C1261 C1265 1.429 . S
C1262 C1245 1.574 1_556 S
C1262 H1256 0.949 . S
C1262 C1266 1.368 . S
C1263 C1244 1.429 . S
C1263 C1257 1.429 . S
C1263 C1264 1.523 . S
C1264 C1245 1.368 . S
C1264 C1258 1.368 . S
C1264 C1263 1.523 . S
C1265 C1249 1.429 . S
C1265 C1261 1.429 . S
C1265 C1266 1.523 . S
C1266 C1250 1.368 . S
C1266 C1262 1.368 . S
C1266 C1265 1.523 . S
H1267 C1242 0.950 . S
H1268 C1244 0.950 . S
H1269 C1245 0.949 . S
H1270 C1247 0.950 . S
H1271 C1249 0.950 . S
C1272 C1273 1.349 . S
C1272 C1274 1.327 . S
C1272 H1297 0.950 . S
C1273 C1272 1.349 . S
C1273 C1289 1.349 . S
C1274 C1272 1.327 . S
C1274 C1293 1.429 . S
C1274 H1298 0.950 . S
C1275 C1292 1.574 . S
C1275 C1294 1.368 . S
C1275 H1299 0.949 . S
H1276 C1280 0.949 . S
C1277 C1278 1.349 . S
C1277 C1279 1.327 . S
C1277 H1300 0.950 . S
C1278 C1277 1.349 . S
C1278 C1290 1.349 . S
C1279 C1277 1.327 . S
C1279 C1295 1.429 . S
C1279 H1301 0.950 . S
C1280 H1276 0.949 . S
C1280 C1288 1.574 . S
C1280 C1296 1.368 . S
H1281 C1289 0.950 . S
H1282 C1287 0.950 . S
H1283 C1288 0.949 . S
H1284 C1290 0.950 . S
H1285 C1291 0.950 . S
H1286 C1292 0.949 . S
C1287 H1282 0.950 . S
C1287 C1289 1.327 . S
C1287 C1293 1.429 . S
C1288 C1280 1.574 . S
C1288 H1283 0.949 . S
C1288 C1294 1.368 . S
C1289 C1273 1.349 . S
C1289 H1281 0.950 . S
C1289 C1287 1.327 . S
C1290 C1278 1.349 . S
C1290 H1284 0.950 . S
C1290 C1291 1.327 . S
C1291 H1285 0.950 . S
C1291 C1290 1.327 . S
C1291 C1295 1.429 . S
C1292 C1275 1.574 . S
C1292 H1286 0.949 . S
C1292 C1296 1.368 . S
C1293 C1274 1.429 . S
C1293 C1287 1.429 . S
C1293 C1294 1.523 . S
C1294 C1275 1.368 . S
C1294 C1288 1.368 . S
C1294 C1293 1.523 . S
C1295 C1279 1.429 . S
C1295 C1291 1.429 . S
C1295 C1296 1.523 . S
C1296 C1280 1.368 . S
C1296 C1292 1.368 . S
C1296 C1295 1.523 . S
H1297 C1272 0.950 . S
H1298 C1274 0.950 . S
H1299 C1275 0.949 . S
H1300 C1277 0.950 . S
H1301 C1279 0.950 . S
C1302 C1303 1.349 . S
C1302 C1304 1.327 . S
C1302 H1327 0.950 . S
C1303 C1302 1.349 . S
C1303 C1319 1.349 . S
C1304 C1302 1.327 . S
C1304 C1323 1.429 . S
C1304 H1328 0.950 . S
C1305 C1322 1.574 . S
C1305 C1324 1.368 . S
C1305 H1329 0.949 . S
H1306 C1310 0.949 . S
C1307 C1308 1.349 . S
C1307 C1309 1.327 . S
C1307 H1330 0.950 . S
C1308 C1307 1.349 . S
C1308 C1320 1.349 . S
C1309 C1307 1.327 . S
C1309 C1325 1.429 . S
C1309 H1331 0.950 . S
C1310 H1306 0.949 . S
C1310 C1318 1.574 . S
C1310 C1326 1.368 . S
H1311 C1319 0.950 . S
H1312 C1317 0.950 . S
H1313 C1318 0.949 . S
H1314 C1320 0.950 . S
H1315 C1321 0.950 . S
H1316 C1322 0.949 . S
C1317 H1312 0.950 . S
C1317 C1319 1.327 . S
C1317 C1323 1.429 . S
C1318 C1310 1.574 . S
C1318 H1313 0.949 . S
C1318 C1324 1.368 . S
C1319 C1303 1.349 . S
C1319 H1311 0.950 . S
C1319 C1317 1.327 . S
C1320 C1308 1.349 . S
C1320 H1314 0.950 . S
C1320 C1321 1.327 . S
C1321 H1315 0.950 . S
C1321 C1320 1.327 . S
C1321 C1325 1.429 . S
C1322 C1305 1.574 . S
C1322 H1316 0.949 . S
C1322 C1326 1.368 . S
C1323 C1304 1.429 . S
C1323 C1317 1.429 . S
C1323 C1324 1.523 . S
C1324 C1305 1.368 . S
C1324 C1318 1.368 . S
C1324 C1323 1.523 . S
C1325 C1309 1.429 . S
C1325 C1321 1.429 . S
C1325 C1326 1.523 . S
C1326 C1310 1.368 . S
C1326 C1322 1.368 . S
C1326 C1325 1.523 . S
H1327 C1302 0.950 . S
H1328 C1304 0.950 . S
H1329 C1305 0.949 . S
H1330 C1307 0.950 . S
H1331 C1309 0.950 . S
C1332 C1333 1.349 . S
C1332 C1334 1.327 . S
C1332 H1357 0.950 . S
C1333 C1332 1.349 . S
C1333 C1349 1.349 . S
C1334 C1332 1.327 . S
C1334 C1353 1.429 . S
C1334 H1358 0.950 . S
C1335 C1352 1.574 . S
C1335 C1354 1.368 . S
C1335 H1359 0.949 . S
H1336 C1340 0.949 . S
C1337 C1338 1.349 . S
C1337 C1339 1.327 . S
C1337 H1360 0.950 . S
C1338 C1337 1.349 . S
C1338 C1350 1.349 . S
C1339 C1337 1.327 . S
C1339 C1355 1.429 . S
C1339 H1361 0.950 . S
C1340 H1336 0.949 . S
C1340 C1348 1.574 . S
C1340 C1356 1.368 . S
H1341 C1349 0.950 . S
H1342 C1347 0.950 . S
H1343 C1348 0.949 . S
H1344 C1350 0.950 . S
H1345 C1351 0.950 . S
H1346 C1352 0.949 . S
C1347 H1342 0.950 . S
C1347 C1349 1.327 . S
C1347 C1353 1.429 . S
C1348 C1340 1.574 . S
C1348 H1343 0.949 . S
C1348 C1354 1.368 . S
C1349 C1333 1.349 . S
C1349 H1341 0.950 . S
C1349 C1347 1.327 . S
C1350 C1338 1.349 . S
C1350 H1344 0.950 . S
C1350 C1351 1.327 . S
C1351 H1345 0.950 . S
C1351 C1350 1.327 . S
C1351 C1355 1.429 . S
C1352 C1335 1.574 . S
C1352 H1346 0.949 . S
C1352 C1356 1.368 . S
C1353 C1334 1.429 . S
C1353 C1347 1.429 . S
C1353 C1354 1.523 . S
C1354 C1335 1.368 . S
C1354 C1348 1.368 . S
C1354 C1353 1.523 . S
C1355 C1339 1.429 . S
C1355 C1351 1.429 . S
C1355 C1356 1.523 . S
C1356 C1340 1.368 . S
C1356 C1352 1.368 . S
C1356 C1355 1.523 . S
H1357 C1332 0.950 . S
H1358 C1334 0.950 . S
H1359 C1335 0.949 . S
H1360 C1337 0.950 . S
H1361 C1339 0.950 . S
C1362 C1363 1.349 . S
C1362 C1364 1.327 . S
C1362 H1387 0.950 . S
C1363 C1362 1.349 . S
C1363 C1379 1.349 . S
C1364 C1362 1.327 . S
C1364 C1383 1.429 . S
C1364 H1388 0.950 . S
C1365 C1382 1.574 . S
C1365 C1384 1.368 . S
C1365 H1389 0.949 . S
H1366 C1370 0.949 . S
C1367 C1368 1.349 . S
C1367 C1369 1.327 . S
C1367 H1390 0.950 . S
C1368 C1367 1.349 . S
C1368 C1380 1.349 . S
C1369 C1367 1.327 . S
C1369 C1385 1.429 . S
C1369 H1391 0.950 . S
C1370 H1366 0.949 . S
C1370 C1378 1.574 . S
C1370 C1386 1.368 . S
H1371 C1379 0.950 . S
H1372 C1377 0.950 . S
H1373 C1378 0.949 . S
H1374 C1380 0.950 . S
H1375 C1381 0.950 . S
H1376 C1382 0.949 . S
C1377 H1372 0.950 . S
C1377 C1379 1.327 . S
C1377 C1383 1.429 . S
C1378 C1370 1.574 . S
C1378 H1373 0.949 . S
C1378 C1384 1.368 . S
C1379 C1363 1.349 . S
C1379 H1371 0.950 . S
C1379 C1377 1.327 . S
C1380 C1368 1.349 . S
C1380 H1374 0.950 . S
C1380 C1381 1.327 . S
C1381 H1375 0.950 . S
C1381 C1380 1.327 . S
C1381 C1385 1.429 . S
C1382 C1365 1.574 . S
C1382 H1376 0.949 . S
C1382 C1386 1.368 . S
C1383 C1364 1.429 . S
C1383 C1377 1.429 . S
C1383 C1384 1.523 . S
C1384 C1365 1.368 . S
C1384 C1378 1.368 . S
C1384 C1383 1.523 . S
C1385 C1369 1.429 . S
C1385 C1381 1.429 . S
C1385 C1386 1.523 . S
C1386 C1370 1.368 . S
C1386 C1382 1.368 . S
C1386 C1385 1.523 . S
H1387 C1362 0.950 . S
H1388 C1364 0.950 . S
H1389 C1365 0.949 . S
H1390 C1367 0.950 . S
H1391 C1369 0.950 . S
C1392 C1393 1.349 . S
C1392 C1394 1.327 . S
C1392 H1417 0.950 . S
C1393 C1392 1.349 . S
C1393 C1409 1.349 . S
C1394 C1392 1.327 . S
C1394 C1413 1.429 . S
C1394 H1418 0.950 . S
C1395 C1412 1.574 . S
C1395 C1414 1.368 . S
C1395 H1419 0.949 . S
H1396 C1400 0.949 . S
C1397 C1398 1.349 . S
C1397 C1399 1.327 . S
C1397 H1420 0.950 . S
C1398 C1397 1.349 . S
C1398 C1410 1.349 . S
C1399 C1397 1.327 . S
C1399 C1415 1.429 . S
C1399 H1421 0.950 . S
C1400 H1396 0.949 . S
C1400 C1408 1.574 . S
C1400 C1416 1.368 . S
H1401 C1409 0.950 . S
H1402 C1407 0.950 . S
H1403 C1408 0.949 . S
H1404 C1410 0.950 . S
H1405 C1411 0.950 . S
H1406 C1412 0.949 . S
C1407 H1402 0.950 . S
C1407 C1409 1.327 . S
C1407 C1413 1.429 . S
C1408 C1400 1.574 . S
C1408 H1403 0.949 . S
C1408 C1414 1.368 . S
C1409 C1393 1.349 . S
C1409 H1401 0.950 . S
C1409 C1407 1.327 . S
C1410 C1398 1.349 . S
C1410 H1404 0.950 . S
C1410 C1411 1.327 . S
C1411 H1405 0.950 . S
C1411 C1410 1.327 . S
C1411 C1415 1.429 . S
C1412 C1395 1.574 . S
C1412 H1406 0.949 . S
C1412 C1416 1.368 . S
C1413 C1394 1.429 . S
C1413 C1407 1.429 . S
C1413 C1414 1.523 . S
C1414 C1395 1.368 . S
C1414 C1408 1.368 . S
C1414 C1413 1.523 . S
C1415 C1399 1.429 . S
C1415 C1411 1.429 . S
C1415 C1416 1.523 . S
C1416 C1400 1.368 . S
C1416 C1412 1.368 . S
C1416 C1415 1.523 . S
H1417 C1392 0.950 . S
H1418 C1394 0.950 . S
H1419 C1395 0.949 . S
H1420 C1397 0.950 . S
H1421 C1399 0.950 . S
C1422 C1423 1.349 . S
C1422 C1424 1.327 . S
C1422 H1447 0.950 1_655 S
C1423 C1422 1.349 . S
C1423 C1439 1.349 . S
C1424 C1422 1.327 . S
C1424 C1443 1.429 . S
C1424 H1448 0.950 . S
C1425 C1442 1.574 . S
C1425 C1444 1.368 . S
C1425 H1449 0.949 . S
H1426 C1430 0.949 . S
C1427 C1428 1.349 . S
C1427 C1429 1.327 . S
C1427 H1450 0.950 . S
C1428 C1427 1.349 . S
C1428 C1440 1.349 . S
C1429 C1427 1.327 . S
C1429 C1445 1.429 . S
C1429 H1451 0.950 . S
C1430 H1426 0.949 . S
C1430 C1438 1.574 . S
C1430 C1446 1.368 . S
H1431 C1439 0.950 . S
H1432 C1437 0.950 . S
H1433 C1438 0.949 . S
H1434 C1440 0.950 . S
H1435 C1441 0.950 . S
H1436 C1442 0.949 . S
C1437 H1432 0.950 . S
C1437 C1439 1.327 . S
C1437 C1443 1.429 . S
C1438 C1430 1.574 . S
C1438 H1433 0.949 . S
C1438 C1444 1.368 . S
C1439 C1423 1.349 . S
C1439 H1431 0.950 . S
C1439 C1437 1.327 . S
C1440 C1428 1.349 . S
C1440 H1434 0.950 . S
C1440 C1441 1.327 . S
C1441 H1435 0.950 . S
C1441 C1440 1.327 . S
C1441 C1445 1.429 . S
C1442 C1425 1.574 . S
C1442 H1436 0.949 . S
C1442 C1446 1.368 . S
C1443 C1424 1.429 . S
C1443 C1437 1.429 . S
C1443 C1444 1.523 . S
C1444 C1425 1.368 . S
C1444 C1438 1.368 . S
C1444 C1443 1.523 . S
C1445 C1429 1.429 . S
C1445 C1441 1.429 . S
C1445 C1446 1.523 . S
C1446 C1430 1.368 . S
C1446 C1442 1.368 . S
C1446 C1445 1.523 . S
H1447 C1422 0.950 1_455 S
H1448 C1424 0.950 . S
H1449 C1425 0.949 . S
H1450 C1427 0.950 . S
H1451 C1429 0.950 . S
C1452 C1453 1.349 . S
C1452 C1454 1.327 . S
C1452 H1477 0.950 . S
C1453 C1452 1.349 . S
C1453 C1469 1.349 . S
C1454 C1452 1.327 . S
C1454 C1473 1.429 . S
C1454 H1478 0.950 . S
C1455 C1472 1.574 . S
C1455 C1474 1.368 . S
C1455 H1479 0.949 . S
H1456 C1460 0.949 . S
C1457 C1458 1.349 . S
C1457 C1459 1.327 . S
C1457 H1480 0.950 . S
C1458 C1457 1.349 . S
C1458 C1470 1.349 . S
C1459 C1457 1.327 . S
C1459 C1475 1.429 . S
C1459 H1481 0.950 . S
C1460 H1456 0.949 . S
C1460 C1468 1.574 . S
C1460 C1476 1.368 . S
H1461 C1469 0.950 . S
H1462 C1467 0.950 . S
H1463 C1468 0.949 . S
H1464 C1470 0.950 . S
H1465 C1471 0.950 . S
H1466 C1472 0.949 . S
C1467 H1462 0.950 . S
C1467 C1469 1.327 . S
C1467 C1473 1.429 . S
C1468 C1460 1.574 . S
C1468 H1463 0.949 . S
C1468 C1474 1.368 . S
C1469 C1453 1.349 . S
C1469 H1461 0.950 . S
C1469 C1467 1.327 . S
C1470 C1458 1.349 . S
C1470 H1464 0.950 . S
C1470 C1471 1.327 . S
C1471 H1465 0.950 . S
C1471 C1470 1.327 . S
C1471 C1475 1.429 . S
C1472 C1455 1.574 . S
C1472 H1466 0.949 . S
C1472 C1476 1.368 . S
C1473 C1454 1.429 . S
C1473 C1467 1.429 . S
C1473 C1474 1.523 . S
C1474 C1455 1.368 . S
C1474 C1468 1.368 . S
C1474 C1473 1.523 . S
C1475 C1459 1.429 . S
C1475 C1471 1.429 . S
C1475 C1476 1.523 . S
C1476 C1460 1.368 . S
C1476 C1472 1.368 . S
C1476 C1475 1.523 . S
H1477 C1452 0.950 . S
H1478 C1454 0.950 . S
H1479 C1455 0.949 . S
H1480 C1457 0.950 . S
H1481 C1459 0.950 . S
C1482 C1483 1.349 . S
C1482 C1484 1.327 . S
C1482 H1507 0.950 . S
C1483 C1482 1.349 . S
C1483 C1499 1.349 . S
C1484 C1482 1.327 . S
C1484 C1503 1.429 . S
C1484 H1508 0.950 . S
C1485 C1502 1.574 . S
C1485 C1504 1.368 . S
C1485 H1509 0.949 . S
H1486 C1490 0.949 . S
C1487 C1488 1.349 . S
C1487 C1489 1.327 . S
C1487 H1510 0.950 . S
C1488 C1487 1.349 . S
C1488 C1500 1.349 . S
C1489 C1487 1.327 . S
C1489 C1505 1.429 . S
C1489 H1511 0.950 . S
C1490 H1486 0.949 . S
C1490 C1498 1.574 . S
C1490 C1506 1.368 . S
H1491 C1499 0.950 . S
H1492 C1497 0.950 . S
H1493 C1498 0.949 . S
H1494 C1500 0.950 . S
H1495 C1501 0.950 . S
H1496 C1502 0.949 . S
C1497 H1492 0.950 . S
C1497 C1499 1.327 . S
C1497 C1503 1.429 . S
C1498 C1490 1.574 . S
C1498 H1493 0.949 . S
C1498 C1504 1.368 . S
C1499 C1483 1.349 . S
C1499 H1491 0.950 . S
C1499 C1497 1.327 . S
C1500 C1488 1.349 . S
C1500 H1494 0.950 . S
C1500 C1501 1.327 . S
C1501 H1495 0.950 . S
C1501 C1500 1.327 . S
C1501 C1505 1.429 . S
C1502 C1485 1.574 . S
C1502 H1496 0.949 . S
C1502 C1506 1.368 . S
C1503 C1484 1.429 . S
C1503 C1497 1.429 . S
C1503 C1504 1.523 . S
C1504 C1485 1.368 . S
C1504 C1498 1.368 . S
C1504 C1503 1.523 . S
C1505 C1489 1.429 . S
C1505 C1501 1.429 . S
C1505 C1506 1.523 . S
C1506 C1490 1.368 . S
C1506 C1502 1.368 . S
C1506 C1505 1.523 . S
H1507 C1482 0.950 . S
H1508 C1484 0.950 . S
H1509 C1485 0.949 . S
H1510 C1487 0.950 . S
H1511 C1489 0.950 . S
C1512 C1513 1.349 . S
C1512 C1514 1.327 . S
C1512 H1537 0.950 . S
C1513 C1512 1.349 . S
C1513 C1529 1.349 . S
C1514 C1512 1.327 . S
C1514 C1533 1.429 . S
C1514 H1538 0.950 . S
C1515 C1532 1.574 . S
C1515 C1534 1.368 . S
C1515 H1539 0.949 . S
H1516 C1520 0.949 . S
C1517 C1518 1.349 . S
C1517 C1519 1.327 . S
C1517 H1540 0.950 . S
C1518 C1517 1.349 . S
C1518 C1530 1.349 . S
C1519 C1517 1.327 . S
C1519 C1535 1.429 . S
C1519 H1541 0.950 . S
C1520 H1516 0.949 . S
C1520 C1528 1.574 . S
C1520 C1536 1.368 . S
H1521 C1529 0.950 . S
H1522 C1527 0.950 . S
H1523 C1528 0.949 . S
H1524 C1530 0.950 . S
H1525 C1531 0.950 . S
H1526 C1532 0.949 . S
C1527 H1522 0.950 . S
C1527 C1529 1.327 . S
C1527 C1533 1.429 . S
C1528 C1520 1.574 . S
C1528 H1523 0.949 . S
C1528 C1534 1.368 . S
C1529 C1513 1.349 . S
C1529 H1521 0.950 . S
C1529 C1527 1.327 . S
C1530 C1518 1.349 . S
C1530 H1524 0.950 . S
C1530 C1531 1.327 . S
C1531 H1525 0.950 . S
C1531 C1530 1.327 . S
C1531 C1535 1.429 . S
C1532 C1515 1.574 . S
C1532 H1526 0.949 . S
C1532 C1536 1.368 . S
C1533 C1514 1.429 . S
C1533 C1527 1.429 . S
C1533 C1534 1.523 . S
C1534 C1515 1.368 . S
C1534 C1528 1.368 . S
C1534 C1533 1.523 . S
C1535 C1519 1.429 . S
C1535 C1531 1.429 . S
C1535 C1536 1.523 . S
C1536 C1520 1.368 . S
C1536 C1532 1.368 . S
C1536 C1535 1.523 . S
H1537 C1512 0.950 . S
H1538 C1514 0.950 . S
H1539 C1515 0.949 . S
H1540 C1517 0.950 . S
H1541 C1519 0.950 . S
C1542 C1543 1.349 . S
C1542 C1544 1.327 . S
C1542 H1567 0.950 . S
C1543 C1542 1.349 . S
C1543 C1559 1.349 . S
C1544 C1542 1.327 . S
C1544 C1563 1.429 . S
C1544 H1568 0.950 . S
C1545 C1562 1.574 . S
C1545 C1564 1.368 . S
C1545 H1569 0.949 . S
H1546 C1550 0.949 . S
C1547 C1548 1.349 . S
C1547 C1549 1.327 . S
C1547 H1570 0.950 . S
C1548 C1547 1.349 . S
C1548 C1560 1.349 . S
C1549 C1547 1.327 . S
C1549 C1565 1.429 . S
C1549 H1571 0.950 . S
C1550 H1546 0.949 . S
C1550 C1558 1.574 . S
C1550 C1566 1.368 . S
H1551 C1559 0.950 . S
H1552 C1557 0.950 . S
H1553 C1558 0.949 . S
H1554 C1560 0.950 . S
H1555 C1561 0.950 . S
H1556 C1562 0.949 . S
C1557 H1552 0.950 . S
C1557 C1559 1.327 . S
C1557 C1563 1.429 . S
C1558 C1550 1.574 . S
C1558 H1553 0.949 . S
C1558 C1564 1.368 . S
C1559 C1543 1.349 . S
C1559 H1551 0.950 . S
C1559 C1557 1.327 . S
C1560 C1548 1.349 . S
C1560 H1554 0.950 . S
C1560 C1561 1.327 . S
C1561 H1555 0.950 . S
C1561 C1560 1.327 . S
C1561 C1565 1.429 . S
C1562 C1545 1.574 . S
C1562 H1556 0.949 . S
C1562 C1566 1.368 . S
C1563 C1544 1.429 . S
C1563 C1557 1.429 . S
C1563 C1564 1.523 . S
C1564 C1545 1.368 . S
C1564 C1558 1.368 . S
C1564 C1563 1.523 . S
C1565 C1549 1.429 . S
C1565 C1561 1.429 . S
C1565 C1566 1.523 . S
C1566 C1550 1.368 . S
C1566 C1562 1.368 . S
C1566 C1565 1.523 . S
H1567 C1542 0.950 . S
H1568 C1544 0.950 . S
H1569 C1545 0.949 . S
H1570 C1547 0.950 . S
H1571 C1549 0.950 . S
C1572 C1573 1.349 . S
C1572 C1574 1.327 . S
C1572 H1597 0.950 . S
C1573 C1572 1.349 . S
C1573 C1589 1.349 . S
C1574 C1572 1.327 . S
C1574 C1593 1.429 . S
C1574 H1598 0.950 . S
C1575 C1592 1.574 . S
C1575 C1594 1.368 . S
C1575 H1599 0.949 . S
H1576 C1580 0.949 . S
C1577 C1578 1.349 . S
C1577 C1579 1.327 . S
C1577 H1600 0.950 . S
C1578 C1577 1.349 . S
C1578 C1590 1.349 . S
C1579 C1577 1.327 . S
C1579 C1595 1.429 . S
C1579 H1601 0.950 . S
C1580 H1576 0.949 . S
C1580 C1588 1.574 . S
C1580 C1596 1.368 . S
H1581 C1589 0.950 . S
H1582 C1587 0.950 . S
H1583 C1588 0.949 . S
H1584 C1590 0.950 . S
H1585 C1591 0.950 . S
H1586 C1592 0.949 . S
C1587 H1582 0.950 . S
C1587 C1589 1.327 . S
C1587 C1593 1.429 . S
C1588 C1580 1.574 . S
C1588 H1583 0.949 . S
C1588 C1594 1.368 . S
C1589 C1573 1.349 . S
C1589 H1581 0.950 . S
C1589 C1587 1.327 . S
C1590 C1578 1.349 . S
C1590 H1584 0.950 . S
C1590 C1591 1.327 . S
C1591 H1585 0.950 . S
C1591 C1590 1.327 . S
C1591 C1595 1.429 . S
C1592 C1575 1.574 . S
C1592 H1586 0.949 . S
C1592 C1596 1.368 . S
C1593 C1574 1.429 . S
C1593 C1587 1.429 . S
C1593 C1594 1.523 . S
C1594 C1575 1.368 . S
C1594 C1588 1.368 . S
C1594 C1593 1.523 . S
C1595 C1579 1.429 . S
C1595 C1591 1.429 . S
C1595 C1596 1.523 . S
C1596 C1580 1.368 . S
C1596 C1592 1.368 . S
C1596 C1595 1.523 . S
H1597 C1572 0.950 . S
H1598 C1574 0.950 . S
H1599 C1575 0.949 . S
H1600 C1577 0.950 . S
H1601 C1579 0.950 . S
C1602 C1603 1.349 . S
C1602 C1604 1.327 . S
C1602 H1627 0.950 . S
C1603 C1602 1.349 . S
C1603 C1619 1.349 . S
C1604 C1602 1.327 . S
C1604 C1623 1.429 . S
C1604 H1628 0.950 . S
C1605 C1622 1.574 . S
C1605 C1624 1.368 . S
C1605 H1629 0.949 . S
H1606 C1610 0.949 . S
C1607 C1608 1.349 . S
C1607 C1609 1.327 . S
C1607 H1630 0.950 1_655 S
C1608 C1607 1.349 . S
C1608 C1620 1.349 . S
C1609 C1607 1.327 . S
C1609 C1625 1.429 . S
C1609 H1631 0.950 . S
C1610 H1606 0.949 . S
C1610 C1618 1.574 . S
C1610 C1626 1.368 . S
H1611 C1619 0.950 . S
H1612 C1617 0.950 . S
H1613 C1618 0.949 . S
H1614 C1620 0.950 . S
H1615 C1621 0.950 . S
H1616 C1622 0.949 . S
C1617 H1612 0.950 . S
C1617 C1619 1.327 . S
C1617 C1623 1.429 . S
C1618 C1610 1.574 . S
C1618 H1613 0.949 . S
C1618 C1624 1.368 . S
C1619 C1603 1.349 . S
C1619 H1611 0.950 . S
C1619 C1617 1.327 . S
C1620 C1608 1.349 . S
C1620 H1614 0.950 . S
C1620 C1621 1.327 . S
C1621 H1615 0.950 . S
C1621 C1620 1.327 . S
C1621 C1625 1.429 . S
C1622 C1605 1.574 . S
C1622 H1616 0.949 . S
C1622 C1626 1.368 . S
C1623 C1604 1.429 . S
C1623 C1617 1.429 . S
C1623 C1624 1.523 . S
C1624 C1605 1.368 . S
C1624 C1618 1.368 . S
C1624 C1623 1.523 . S
C1625 C1609 1.429 . S
C1625 C1621 1.429 . S
C1625 C1626 1.523 . S
C1626 C1610 1.368 . S
C1626 C1622 1.368 . S
C1626 C1625 1.523 . S
H1627 C1602 0.950 . S
H1628 C1604 0.950 . S
H1629 C1605 0.949 . S
H1630 C1607 0.950 1_455 S
H1631 C1609 0.950 . S
C1632 C1633 1.349 . S
C1632 C1634 1.327 . S
C1632 H1657 0.950 . S
C1633 C1632 1.349 . S
C1633 C1649 1.349 . S
C1634 C1632 1.327 . S
C1634 C1653 1.429 . S
C1634 H1658 0.950 . S
C1635 C1652 1.574 . S
C1635 C1654 1.368 . S
C1635 H1659 0.949 . S
H1636 C1640 0.949 . S
C1637 C1638 1.349 . S
C1637 C1639 1.327 . S
C1637 H1660 0.950 . S
C1638 C1637 1.349 . S
C1638 C1650 1.349 . S
C1639 C1637 1.327 . S
C1639 C1655 1.429 . S
C1639 H1661 0.950 . S
C1640 H1636 0.949 . S
C1640 C1648 1.574 . S
C1640 C1656 1.368 . S
H1641 C1649 0.950 . S
H1642 C1647 0.950 . S
H1643 C1648 0.949 . S
H1644 C1650 0.950 . S
H1645 C1651 0.950 . S
H1646 C1652 0.949 . S
C1647 H1642 0.950 . S
C1647 C1649 1.327 . S
C1647 C1653 1.429 . S
C1648 C1640 1.574 . S
C1648 H1643 0.949 . S
C1648 C1654 1.368 . S
C1649 C1633 1.349 . S
C1649 H1641 0.950 . S
C1649 C1647 1.327 . S
C1650 C1638 1.349 . S
C1650 H1644 0.950 . S
C1650 C1651 1.327 . S
C1651 H1645 0.950 . S
C1651 C1650 1.327 . S
C1651 C1655 1.429 . S
C1652 C1635 1.574 . S
C1652 H1646 0.949 . S
C1652 C1656 1.368 . S
C1653 C1634 1.429 . S
C1653 C1647 1.429 . S
C1653 C1654 1.523 . S
C1654 C1635 1.368 . S
C1654 C1648 1.368 . S
C1654 C1653 1.523 . S
C1655 C1639 1.429 . S
C1655 C1651 1.429 . S
C1655 C1656 1.523 . S
C1656 C1640 1.368 . S
C1656 C1652 1.368 . S
C1656 C1655 1.523 . S
H1657 C1632 0.950 . S
H1658 C1634 0.950 . S
H1659 C1635 0.949 . S
H1660 C1637 0.950 . S
H1661 C1639 0.950 . S
C1662 C1663 1.349 . S
C1662 C1664 1.327 . S
C1662 H1687 0.950 1_545 S
C1663 C1662 1.349 . S
C1663 C1679 1.349 . S
C1664 C1662 1.327 . S
C1664 C1683 1.429 . S
C1664 H1688 0.950 . S
C1665 C1682 1.574 . S
C1665 C1684 1.368 . S
C1665 H1689 0.949 . S
H1666 C1670 0.949 . S
C1667 C1668 1.349 . S
C1667 C1669 1.327 . S
C1667 H1690 0.950 . S
C1668 C1667 1.349 . S
C1668 C1680 1.349 . S
C1669 C1667 1.327 . S
C1669 C1685 1.429 . S
C1669 H1691 0.950 . S
C1670 H1666 0.949 . S
C1670 C1678 1.574 . S
C1670 C1686 1.368 . S
H1671 C1679 0.950 . S
H1672 C1677 0.950 . S
H1673 C1678 0.949 . S
H1674 C1680 0.950 . S
H1675 C1681 0.950 . S
H1676 C1682 0.949 . S
C1677 H1672 0.950 . S
C1677 C1679 1.327 . S
C1677 C1683 1.429 . S
C1678 C1670 1.574 . S
C1678 H1673 0.949 . S
C1678 C1684 1.368 . S
C1679 C1663 1.349 . S
C1679 H1671 0.950 . S
C1679 C1677 1.327 . S
C1680 C1668 1.349 . S
C1680 H1674 0.950 . S
C1680 C1681 1.327 . S
C1681 H1675 0.950 . S
C1681 C1680 1.327 . S
C1681 C1685 1.429 . S
C1682 C1665 1.574 . S
C1682 H1676 0.949 . S
C1682 C1686 1.368 . S
C1683 C1664 1.429 . S
C1683 C1677 1.429 . S
C1683 C1684 1.523 . S
C1684 C1665 1.368 . S
C1684 C1678 1.368 . S
C1684 C1683 1.523 . S
C1685 C1669 1.429 . S
C1685 C1681 1.429 . S
C1685 C1686 1.523 . S
C1686 C1670 1.368 . S
C1686 C1682 1.368 . S
C1686 C1685 1.523 . S
H1687 C1662 0.950 1_565 S
H1688 C1664 0.950 . S
H1689 C1665 0.949 . S
H1690 C1667 0.950 . S
H1691 C1669 0.950 . S
C1692 C1693 1.349 . S
C1692 C1694 1.327 . S
C1692 H1717 0.950 . S
C1693 C1692 1.349 . S
C1693 C1709 1.349 . S
C1694 C1692 1.327 . S
C1694 C1713 1.429 . S
C1694 H1718 0.950 . S
C1695 C1712 1.574 . S
C1695 C1714 1.368 . S
C1695 H1719 0.949 . S
H1696 C1700 0.949 . S
C1697 C1698 1.349 . S
C1697 C1699 1.327 . S
C1697 H1720 0.950 . S
C1698 C1697 1.349 . S
C1698 C1710 1.349 . S
C1699 C1697 1.327 . S
C1699 C1715 1.429 . S
C1699 H1721 0.950 . S
C1700 H1696 0.949 . S
C1700 C1708 1.574 . S
C1700 C1716 1.368 . S
H1701 C1709 0.950 . S
H1702 C1707 0.950 . S
H1703 C1708 0.949 . S
H1704 C1710 0.950 . S
H1705 C1711 0.950 . S
H1706 C1712 0.949 . S
C1707 H1702 0.950 . S
C1707 C1709 1.327 . S
C1707 C1713 1.429 . S
C1708 C1700 1.574 . S
C1708 H1703 0.949 . S
C1708 C1714 1.368 . S
C1709 C1693 1.349 . S
C1709 H1701 0.950 . S
C1709 C1707 1.327 . S
C1710 C1698 1.349 . S
C1710 H1704 0.950 . S
C1710 C1711 1.327 . S
C1711 H1705 0.950 . S
C1711 C1710 1.327 . S
C1711 C1715 1.429 . S
C1712 C1695 1.574 . S
C1712 H1706 0.949 . S
C1712 C1716 1.368 . S
C1713 C1694 1.429 . S
C1713 C1707 1.429 . S
C1713 C1714 1.523 . S
C1714 C1695 1.368 . S
C1714 C1708 1.368 . S
C1714 C1713 1.523 . S
C1715 C1699 1.429 . S
C1715 C1711 1.429 . S
C1715 C1716 1.523 . S
C1716 C1700 1.368 . S
C1716 C1712 1.368 . S
C1716 C1715 1.523 . S
H1717 C1692 0.950 . S
H1718 C1694 0.950 . S
H1719 C1695 0.949 . S
H1720 C1697 0.950 . S
H1721 C1699 0.950 . S
C1722 C1723 1.349 . S
C1722 C1724 1.327 . S
C1722 H1747 0.950 . S
C1723 C1722 1.349 . S
C1723 C1739 1.349 1_554 S
C1724 C1722 1.327 . S
C1724 C1743 1.429 . S
C1724 H1748 0.950 . S
C1725 C1742 1.574 . S
C1725 C1744 1.368 . S
C1725 H1749 0.949 . S
H1726 C1730 0.949 . S
C1727 C1728 1.349 . S
C1727 C1729 1.327 . S
C1727 H1750 0.950 1_565 S
C1728 C1727 1.349 . S
C1728 C1740 1.349 . S
C1729 C1727 1.327 . S
C1729 C1745 1.429 . S
C1729 H1751 0.950 . S
C1730 H1726 0.949 . S
C1730 C1738 1.574 . S
C1730 C1746 1.368 . S
H1731 C1739 0.950 . S
H1732 C1737 0.950 . S
H1733 C1738 0.949 . S
H1734 C1740 0.950 . S
H1735 C1741 0.950 . S
H1736 C1742 0.949 . S
C1737 H1732 0.950 . S
C1737 C1739 1.327 1_554 S
C1737 C1743 1.429 . S
C1738 C1730 1.574 . S
C1738 H1733 0.949 . S
C1738 C1744 1.368 . S
C1739 C1723 1.349 1_556 S
C1739 H1731 0.950 . S
C1739 C1737 1.327 1_556 S
C1740 C1728 1.349 . S
C1740 H1734 0.950 . S
C1740 C1741 1.327 . S
C1741 H1735 0.950 . S
C1741 C1740 1.327 . S
C1741 C1745 1.429 . S
C1742 C1725 1.574 . S
C1742 H1736 0.949 . S
C1742 C1746 1.368 . S
C1743 C1724 1.429 . S
C1743 C1737 1.429 . S
C1743 C1744 1.523 . S
C1744 C1725 1.368 . S
C1744 C1738 1.368 . S
C1744 C1743 1.523 . S
C1745 C1729 1.429 . S
C1745 C1741 1.429 . S
C1745 C1746 1.523 . S
C1746 C1730 1.368 . S
C1746 C1742 1.368 . S
C1746 C1745 1.523 . S
H1747 C1722 0.950 . S
H1748 C1724 0.950 . S
H1749 C1725 0.949 . S
H1750 C1727 0.950 1_545 S
H1751 C1729 0.950 . S
C1752 C1753 1.349 . S
C1752 C1754 1.327 . S
C1752 H1777 0.950 . S
C1753 C1752 1.349 . S
C1753 C1769 1.349 . S
C1754 C1752 1.327 . S
C1754 C1773 1.429 . S
C1754 H1778 0.950 . S
C1755 C1772 1.574 . S
C1755 C1774 1.368 . S
C1755 H1779 0.949 . S
H1756 C1760 0.949 . S
C1757 C1758 1.349 . S
C1757 C1759 1.327 . S
C1757 H1780 0.950 . S
C1758 C1757 1.349 . S
C1758 C1770 1.349 . S
C1759 C1757 1.327 . S
C1759 C1775 1.429 . S
C1759 H1781 0.950 . S
C1760 H1756 0.949 . S
C1760 C1768 1.574 . S
C1760 C1776 1.368 . S
H1761 C1769 0.950 . S
H1762 C1767 0.950 . S
H1763 C1768 0.949 . S
H1764 C1770 0.950 . S
H1765 C1771 0.950 . S
H1766 C1772 0.949 . S
C1767 H1762 0.950 . S
C1767 C1769 1.327 . S
C1767 C1773 1.429 . S
C1768 C1760 1.574 . S
C1768 H1763 0.949 . S
C1768 C1774 1.368 . S
C1769 C1753 1.349 . S
C1769 H1761 0.950 . S
C1769 C1767 1.327 . S
C1770 C1758 1.349 . S
C1770 H1764 0.950 . S
C1770 C1771 1.327 . S
C1771 H1765 0.950 . S
C1771 C1770 1.327 . S
C1771 C1775 1.429 . S
C1772 C1755 1.574 . S
C1772 H1766 0.949 . S
C1772 C1776 1.368 . S
C1773 C1754 1.429 . S
C1773 C1767 1.429 . S
C1773 C1774 1.523 . S
C1774 C1755 1.368 . S
C1774 C1768 1.368 . S
C1774 C1773 1.523 . S
C1775 C1759 1.429 . S
C1775 C1771 1.429 . S
C1775 C1776 1.523 . S
C1776 C1760 1.368 . S
C1776 C1772 1.368 . S
C1776 C1775 1.523 . S
H1777 C1752 0.950 . S
H1778 C1754 0.950 . S
H1779 C1755 0.949 . S
H1780 C1757 0.950 . S
H1781 C1759 0.950 . S
C1782 C1783 1.349 . S
C1782 C1784 1.327 . S
C1782 H1807 0.950 . S
C1783 C1782 1.349 . S
C1783 C1799 1.349 . S
C1784 C1782 1.327 . S
C1784 C1803 1.429 . S
C1784 H1808 0.950 . S
C1785 C1802 1.574 . S
C1785 C1804 1.368 . S
C1785 H1809 0.949 . S
H1786 C1790 0.949 . S
C1787 C1788 1.349 . S
C1787 C1789 1.327 . S
C1787 H1810 0.950 . S
C1788 C1787 1.349 . S
C1788 C1800 1.349 . S
C1789 C1787 1.327 . S
C1789 C1805 1.429 . S
C1789 H1811 0.950 . S
C1790 H1786 0.949 . S
C1790 C1798 1.574 . S
C1790 C1806 1.368 . S
H1791 C1799 0.950 1_565 S
H1792 C1797 0.950 . S
H1793 C1798 0.949 . S
H1794 C1800 0.950 . S
H1795 C1801 0.950 . S
H1796 C1802 0.949 . S
C1797 H1792 0.950 . S
C1797 C1799 1.327 . S
C1797 C1803 1.429 . S
C1798 C1790 1.574 . S
C1798 H1793 0.949 . S
C1798 C1804 1.368 . S
C1799 C1783 1.349 . S
C1799 H1791 0.950 1_545 S
C1799 C1797 1.327 . S
C1800 C1788 1.349 . S
C1800 H1794 0.950 . S
C1800 C1801 1.327 . S
C1801 H1795 0.950 . S
C1801 C1800 1.327 . S
C1801 C1805 1.429 . S
C1802 C1785 1.574 . S
C1802 H1796 0.949 . S
C1802 C1806 1.368 . S
C1803 C1784 1.429 . S
C1803 C1797 1.429 . S
C1803 C1804 1.523 . S
C1804 C1785 1.368 . S
C1804 C1798 1.368 . S
C1804 C1803 1.523 . S
C1805 C1789 1.429 . S
C1805 C1801 1.429 . S
C1805 C1806 1.523 . S
C1806 C1790 1.368 . S
C1806 C1802 1.368 . S
C1806 C1805 1.523 . S
H1807 C1782 0.950 . S
H1808 C1784 0.950 . S
H1809 C1785 0.949 . S
H1810 C1787 0.950 . S
H1811 C1789 0.950 . S
C1812 C1813 1.349 . S
C1812 C1814 1.327 . S
C1812 H1837 0.950 . S
C1813 C1812 1.349 . S
C1813 C1829 1.349 . S
C1814 C1812 1.327 . S
C1814 C1833 1.429 . S
C1814 H1838 0.950 . S
C1815 C1832 1.574 . S
C1815 C1834 1.368 . S
C1815 H1839 0.949 . S
H1816 C1820 0.949 . S
C1817 C1818 1.349 . S
C1817 C1819 1.327 . S
C1817 H1840 0.950 . S
C1818 C1817 1.349 . S
C1818 C1830 1.349 . S
C1819 C1817 1.327 . S
C1819 C1835 1.429 . S
C1819 H1841 0.950 . S
C1820 H1816 0.949 . S
C1820 C1828 1.574 . S
C1820 C1836 1.368 . S
H1821 C1829 0.950 . S
H1822 C1827 0.950 . S
H1823 C1828 0.949 . S
H1824 C1830 0.950 . S
H1825 C1831 0.950 . S
H1826 C1832 0.949 . S
C1827 H1822 0.950 . S
C1827 C1829 1.327 . S
C1827 C1833 1.429 . S
C1828 C1820 1.574 . S
C1828 H1823 0.949 . S
C1828 C1834 1.368 . S
C1829 C1813 1.349 . S
C1829 H1821 0.950 . S
C1829 C1827 1.327 . S
C1830 C1818 1.349 . S
C1830 H1824 0.950 . S
C1830 C1831 1.327 . S
C1831 H1825 0.950 . S
C1831 C1830 1.327 . S
C1831 C1835 1.429 . S
C1832 C1815 1.574 . S
C1832 H1826 0.949 . S
C1832 C1836 1.368 . S
C1833 C1814 1.429 . S
C1833 C1827 1.429 . S
C1833 C1834 1.523 . S
C1834 C1815 1.368 . S
C1834 C1828 1.368 . S
C1834 C1833 1.523 . S
C1835 C1819 1.429 . S
C1835 C1831 1.429 . S
C1835 C1836 1.523 . S
C1836 C1820 1.368 . S
C1836 C1832 1.368 . S
C1836 C1835 1.523 . S
H1837 C1812 0.950 . S
H1838 C1814 0.950 . S
H1839 C1815 0.949 . S
H1840 C1817 0.950 . S
H1841 C1819 0.950 . S
C1842 C1843 1.349 . S
C1842 C1844 1.327 . S
C1842 H1867 0.950 . S
C1843 C1842 1.349 . S
C1843 C1859 1.349 1_556 S
C1844 C1842 1.327 . S
C1844 C1863 1.429 . S
C1844 H1868 0.950 . S
C1845 C1862 1.574 . S
C1845 C1864 1.368 . S
C1845 H1869 0.949 . S
H1846 C1850 0.949 . S
C1847 C1848 1.349 . S
C1847 C1849 1.327 . S
C1847 H1870 0.950 1_565 S
C1848 C1847 1.349 . S
C1848 C1860 1.349 . S
C1849 C1847 1.327 . S
C1849 C1865 1.429 . S
C1849 H1871 0.950 . S
C1850 H1846 0.949 . S
C1850 C1858 1.574 . S
C1850 C1866 1.368 . S
H1851 C1859 0.950 . S
H1852 C1857 0.950 . S
H1853 C1858 0.949 . S
H1854 C1860 0.950 . S
H1855 C1861 0.950 . S
H1856 C1862 0.949 . S
C1857 H1852 0.950 . S
C1857 C1859 1.327 1_556 S
C1857 C1863 1.429 . S
C1858 C1850 1.574 . S
C1858 H1853 0.949 . S
C1858 C1864 1.368 . S
C1859 C1843 1.349 1_554 S
C1859 H1851 0.950 . S
C1859 C1857 1.327 1_554 S
C1860 C1848 1.349 . S
C1860 H1854 0.950 . S
C1860 C1861 1.327 . S
C1861 H1855 0.950 . S
C1861 C1860 1.327 . S
C1861 C1865 1.429 . S
C1862 C1845 1.574 . S
C1862 H1856 0.949 . S
C1862 C1866 1.368 . S
C1863 C1844 1.429 . S
C1863 C1857 1.429 . S
C1863 C1864 1.523 . S
C1864 C1845 1.368 . S
C1864 C1858 1.368 . S
C1864 C1863 1.523 . S
C1865 C1849 1.429 . S
C1865 C1861 1.429 . S
C1865 C1866 1.523 . S
C1866 C1850 1.368 . S
C1866 C1862 1.368 . S
C1866 C1865 1.523 . S
H1867 C1842 0.950 . S
H1868 C1844 0.950 . S
H1869 C1845 0.949 . S
H1870 C1847 0.950 1_545 S
H1871 C1849 0.950 . S
C1872 C1873 1.349 . S
C1872 C1874 1.327 . S
C1872 H1897 0.950 . S
C1873 C1872 1.349 . S
C1873 C1889 1.349 . S
C1874 C1872 1.327 . S
C1874 C1893 1.429 . S
C1874 H1898 0.950 . S
C1875 C1892 1.574 . S
C1875 C1894 1.368 . S
C1875 H1899 0.949 . S
H1876 C1880 0.949 . S
C1877 C1878 1.349 . S
C1877 C1879 1.327 . S
C1877 H1900 0.950 . S
C1878 C1877 1.349 . S
C1878 C1890 1.349 . S
C1879 C1877 1.327 . S
C1879 C1895 1.429 . S
C1879 H1901 0.950 . S
C1880 H1876 0.949 . S
C1880 C1888 1.574 . S
C1880 C1896 1.368 . S
H1881 C1889 0.950 . S
H1882 C1887 0.950 . S
H1883 C1888 0.949 . S
H1884 C1890 0.950 . S
H1885 C1891 0.950 . S
H1886 C1892 0.949 . S
C1887 H1882 0.950 . S
C1887 C1889 1.327 . S
C1887 C1893 1.429 . S
C1888 C1880 1.574 . S
C1888 H1883 0.949 . S
C1888 C1894 1.368 . S
C1889 C1873 1.349 . S
C1889 H1881 0.950 . S
C1889 C1887 1.327 . S
C1890 C1878 1.349 . S
C1890 H1884 0.950 . S
C1890 C1891 1.327 . S
C1891 H1885 0.950 . S
C1891 C1890 1.327 . S
C1891 C1895 1.429 . S
C1892 C1875 1.574 . S
C1892 H1886 0.949 . S
C1892 C1896 1.368 . S
C1893 C1874 1.429 . S
C1893 C1887 1.429 . S
C1893 C1894 1.523 . S
C1894 C1875 1.368 . S
C1894 C1888 1.368 . S
C1894 C1893 1.523 . S
C1895 C1879 1.429 . S
C1895 C1891 1.429 . S
C1895 C1896 1.523 . S
C1896 C1880 1.368 . S
C1896 C1892 1.368 . S
C1896 C1895 1.523 . S
H1897 C1872 0.950 . S
H1898 C1874 0.950 . S
H1899 C1875 0.949 . S
H1900 C1877 0.950 . S
H1901 C1879 0.950 . S
C1902 C1903 1.349 . S
C1902 C1904 1.327 . S
C1902 H1927 0.950 . S
C1903 C1902 1.349 . S
C1903 C1919 1.349 . S
C1904 C1902 1.327 . S
C1904 C1923 1.429 . S
C1904 H1928 0.950 . S
C1905 C1922 1.574 . S
C1905 C1924 1.368 . S
C1905 H1929 0.949 . S
H1906 C1910 0.949 . S
C1907 C1908 1.349 . S
C1907 C1909 1.327 . S
C1907 H1930 0.950 . S
C1908 C1907 1.349 . S
C1908 C1920 1.349 . S
C1909 C1907 1.327 . S
C1909 C1925 1.429 . S
C1909 H1931 0.950 . S
C1910 H1906 0.949 . S
C1910 C1918 1.574 . S
C1910 C1926 1.368 . S
H1911 C1919 0.950 . S
H1912 C1917 0.950 . S
H1913 C1918 0.949 . S
H1914 C1920 0.950 . S
H1915 C1921 0.950 . S
H1916 C1922 0.949 . S
C1917 H1912 0.950 . S
C1917 C1919 1.327 . S
C1917 C1923 1.429 . S
C1918 C1910 1.574 . S
C1918 H1913 0.949 . S
C1918 C1924 1.368 . S
C1919 C1903 1.349 . S
C1919 H1911 0.950 . S
C1919 C1917 1.327 . S
C1920 C1908 1.349 . S
C1920 H1914 0.950 . S
C1920 C1921 1.327 . S
C1921 H1915 0.950 . S
C1921 C1920 1.327 . S
C1921 C1925 1.429 . S
C1922 C1905 1.574 . S
C1922 H1916 0.949 . S
C1922 C1926 1.368 . S
C1923 C1904 1.429 . S
C1923 C1917 1.429 . S
C1923 C1924 1.523 . S
C1924 C1905 1.368 . S
C1924 C1918 1.368 . S
C1924 C1923 1.523 . S
C1925 C1909 1.429 . S
C1925 C1921 1.429 . S
C1925 C1926 1.523 . S
C1926 C1910 1.368 . S
C1926 C1922 1.368 . S
C1926 C1925 1.523 . S
H1927 C1902 0.950 . S
H1928 C1904 0.950 . S
H1929 C1905 0.949 . S
H1930 C1907 0.950 . S
H1931 C1909 0.950 . S
C1932 C1933 1.349 . S
C1932 C1934 1.327 . S
C1932 H1957 0.950 . S
C1933 C1932 1.349 . S
C1933 C1949 1.349 . S
C1934 C1932 1.327 . S
C1934 C1953 1.429 . S
C1934 H1958 0.950 . S
C1935 C1952 1.574 . S
C1935 C1954 1.368 . S
C1935 H1959 0.949 . S
H1936 C1940 0.949 . S
C1937 C1938 1.349 . S
C1937 C1939 1.327 . S
C1937 H1960 0.950 . S
C1938 C1937 1.349 . S
C1938 C1950 1.349 . S
C1939 C1937 1.327 . S
C1939 C1955 1.429 . S
C1939 H1961 0.950 . S
C1940 H1936 0.949 . S
C1940 C1948 1.574 . S
C1940 C1956 1.368 . S
H1941 C1949 0.950 . S
H1942 C1947 0.950 . S
H1943 C1948 0.949 . S
H1944 C1950 0.950 . S
H1945 C1951 0.950 . S
H1946 C1952 0.949 . S
C1947 H1942 0.950 . S
C1947 C1949 1.327 . S
C1947 C1953 1.429 . S
C1948 C1940 1.574 . S
C1948 H1943 0.949 . S
C1948 C1954 1.368 . S
C1949 C1933 1.349 . S
C1949 H1941 0.950 . S
C1949 C1947 1.327 . S
C1950 C1938 1.349 . S
C1950 H1944 0.950 . S
C1950 C1951 1.327 . S
C1951 H1945 0.950 . S
C1951 C1950 1.327 . S
C1951 C1955 1.429 . S
C1952 C1935 1.574 . S
C1952 H1946 0.949 . S
C1952 C1956 1.368 . S
C1953 C1934 1.429 . S
C1953 C1947 1.429 . S
C1953 C1954 1.523 . S
C1954 C1935 1.368 . S
C1954 C1948 1.368 . S
C1954 C1953 1.523 . S
C1955 C1939 1.429 . S
C1955 C1951 1.429 . S
C1955 C1956 1.523 . S
C1956 C1940 1.368 . S
C1956 C1952 1.368 . S
C1956 C1955 1.523 . S
H1957 C1932 0.950 . S
H1958 C1934 0.950 . S
H1959 C1935 0.949 . S
H1960 C1937 0.950 . S
H1961 C1939 0.950 . S
C1962 C1963 1.349 . S
C1962 C1964 1.327 . S
C1962 H1987 0.950 . S
C1963 C1962 1.349 . S
C1963 C1979 1.349 . S
C1964 C1962 1.327 . S
C1964 C1983 1.429 . S
C1964 H1988 0.950 . S
C1965 C1982 1.574 . S
C1965 C1984 1.368 . S
C1965 H1989 0.949 . S
H1966 C1970 0.949 . S
C1967 C1968 1.349 . S
C1967 C1969 1.327 . S
C1967 H1990 0.950 . S
C1968 C1967 1.349 . S
C1968 C1980 1.349 . S
C1969 C1967 1.327 . S
C1969 C1985 1.429 . S
C1969 H1991 0.950 . S
C1970 H1966 0.949 . S
C1970 C1978 1.574 . S
C1970 C1986 1.368 . S
H1971 C1979 0.950 . S
H1972 C1977 0.950 . S
H1973 C1978 0.949 . S
H1974 C1980 0.950 . S
H1975 C1981 0.950 . S
H1976 C1982 0.949 . S
C1977 H1972 0.950 . S
C1977 C1979 1.327 . S
C1977 C1983 1.429 . S
C1978 C1970 1.574 . S
C1978 H1973 0.949 . S
C1978 C1984 1.368 . S
C1979 C1963 1.349 . S
C1979 H1971 0.950 . S
C1979 C1977 1.327 . S
C1980 C1968 1.349 . S
C1980 H1974 0.950 . S
C1980 C1981 1.327 . S
C1981 H1975 0.950 . S
C1981 C1980 1.327 . S
C1981 C1985 1.429 . S
C1982 C1965 1.574 . S
C1982 H1976 0.949 . S
C1982 C1986 1.368 . S
C1983 C1964 1.429 . S
C1983 C1977 1.429 . S
C1983 C1984 1.523 . S
C1984 C1965 1.368 . S
C1984 C1978 1.368 . S
C1984 C1983 1.523 . S
C1985 C1969 1.429 . S
C1985 C1981 1.429 . S
C1985 C1986 1.523 . S
C1986 C1970 1.368 . S
C1986 C1982 1.368 . S
C1986 C1985 1.523 . S
H1987 C1962 0.950 . S
H1988 C1964 0.950 . S
H1989 C1965 0.949 . S
H1990 C1967 0.950 . S
H1991 C1969 0.950 . S
C1992 C1993 1.349 . S
C1992 C1994 1.327 . S
C1992 H2017 0.950 . S
C1993 C1992 1.349 . S
C1993 C2009 1.349 . S
C1994 C1992 1.327 . S
C1994 C2013 1.429 . S
C1994 H2018 0.950 . S
C1995 C2012 1.574 . S
C1995 C2014 1.368 . S
C1995 H2019 0.949 . S
H1996 C2000 0.949 . S
C1997 C1998 1.349 . S
C1997 C1999 1.327 . S
C1997 H2020 0.950 . S
C1998 C1997 1.349 . S
C1998 C2010 1.349 . S
C1999 C1997 1.327 . S
C1999 C2015 1.429 . S
C1999 H2021 0.950 . S
C2000 H1996 0.949 . S
C2000 C2008 1.574 . S
C2000 C2016 1.368 . S
H2001 C2009 0.950 1_545 S
H2002 C2007 0.950 . S
H2003 C2008 0.949 . S
H2004 C2010 0.950 . S
H2005 C2011 0.950 . S
H2006 C2012 0.949 . S
C2007 H2002 0.950 . S
C2007 C2009 1.327 . S
C2007 C2013 1.429 . S
C2008 C2000 1.574 . S
C2008 H2003 0.949 . S
C2008 C2014 1.368 . S
C2009 C1993 1.349 . S
C2009 H2001 0.950 1_565 S
C2009 C2007 1.327 . S
C2010 C1998 1.349 . S
C2010 H2004 0.950 . S
C2010 C2011 1.327 . S
C2011 H2005 0.950 . S
C2011 C2010 1.327 . S
C2011 C2015 1.429 . S
C2012 C1995 1.574 . S
C2012 H2006 0.949 . S
C2012 C2016 1.368 . S
C2013 C1994 1.429 . S
C2013 C2007 1.429 . S
C2013 C2014 1.523 . S
C2014 C1995 1.368 . S
C2014 C2008 1.368 . S
C2014 C2013 1.523 . S
C2015 C1999 1.429 . S
C2015 C2011 1.429 . S
C2015 C2016 1.523 . S
C2016 C2000 1.368 . S
C2016 C2012 1.368 . S
C2016 C2015 1.523 . S
H2017 C1992 0.950 . S
H2018 C1994 0.950 . S
H2019 C1995 0.949 . S
H2020 C1997 0.950 . S
H2021 C1999 0.950 . S
C2022 C2023 1.349 . S
C2022 C2024 1.327 . S
C2022 H2047 0.950 . S
C2023 C2022 1.349 . S
C2023 C2039 1.349 . S
C2024 C2022 1.327 . S
C2024 C2043 1.429 . S
C2024 H2048 0.950 . S
C2025 C2042 1.574 . S
C2025 C2044 1.368 . S
C2025 H2049 0.949 . S
H2026 C2030 0.949 . S
C2027 C2028 1.349 . S
C2027 C2029 1.327 . S
C2027 H2050 0.950 . S
C2028 C2027 1.349 . S
C2028 C2040 1.349 . S
C2029 C2027 1.327 . S
C2029 C2045 1.429 . S
C2029 H2051 0.950 . S
C2030 H2026 0.949 . S
C2030 C2038 1.574 . S
C2030 C2046 1.368 . S
H2031 C2039 0.950 . S
H2032 C2037 0.950 . S
H2033 C2038 0.949 . S
H2034 C2040 0.950 . S
H2035 C2041 0.950 . S
H2036 C2042 0.949 . S
C2037 H2032 0.950 . S
C2037 C2039 1.327 . S
C2037 C2043 1.429 . S
C2038 C2030 1.574 . S
C2038 H2033 0.949 . S
C2038 C2044 1.368 . S
C2039 C2023 1.349 . S
C2039 H2031 0.950 . S
C2039 C2037 1.327 . S
C2040 C2028 1.349 . S
C2040 H2034 0.950 . S
C2040 C2041 1.327 . S
C2041 H2035 0.950 . S
C2041 C2040 1.327 . S
C2041 C2045 1.429 . S
C2042 C2025 1.574 . S
C2042 H2036 0.949 . S
C2042 C2046 1.368 . S
C2043 C2024 1.429 . S
C2043 C2037 1.429 . S
C2043 C2044 1.523 . S
C2044 C2025 1.368 . S
C2044 C2038 1.368 . S
C2044 C2043 1.523 . S
C2045 C2029 1.429 . S
C2045 C2041 1.429 . S
C2045 C2046 1.523 . S
C2046 C2030 1.368 . S
C2046 C2042 1.368 . S
C2046 C2045 1.523 . S
H2047 C2022 0.950 . S
H2048 C2024 0.950 . S
H2049 C2025 0.949 . S
H2050 C2027 0.950 . S
H2051 C2029 0.950 . S
C2052 C2053 1.349 . S
C2052 C2054 1.327 . S
C2052 H2077 0.950 . S
C2053 C2052 1.349 . S
C2053 C2069 1.349 . S
C2054 C2052 1.327 . S
C2054 C2073 1.429 . S
C2054 H2078 0.950 . S
C2055 C2072 1.574 . S
C2055 C2074 1.368 . S
C2055 H2079 0.949 . S
H2056 C2060 0.949 . S
C2057 C2058 1.349 . S
C2057 C2059 1.327 . S
C2057 H2080 0.950 . S
C2058 C2057 1.349 . S
C2058 C2070 1.349 . S
C2059 C2057 1.327 . S
C2059 C2075 1.429 . S
C2059 H2081 0.950 . S
C2060 H2056 0.949 . S
C2060 C2068 1.574 . S
C2060 C2076 1.368 . S
H2061 C2069 0.950 . S
H2062 C2067 0.950 . S
H2063 C2068 0.949 . S
H2064 C2070 0.950 . S
H2065 C2071 0.950 . S
H2066 C2072 0.949 . S
C2067 H2062 0.950 . S
C2067 C2069 1.327 . S
C2067 C2073 1.429 . S
C2068 C2060 1.574 . S
C2068 H2063 0.949 . S
C2068 C2074 1.368 . S
C2069 C2053 1.349 . S
C2069 H2061 0.950 . S
C2069 C2067 1.327 . S
C2070 C2058 1.349 . S
C2070 H2064 0.950 . S
C2070 C2071 1.327 . S
C2071 H2065 0.950 . S
C2071 C2070 1.327 . S
C2071 C2075 1.429 . S
C2072 C2055 1.574 . S
C2072 H2066 0.949 . S
C2072 C2076 1.368 . S
C2073 C2054 1.429 . S
C2073 C2067 1.429 . S
C2073 C2074 1.523 . S
C2074 C2055 1.368 . S
C2074 C2068 1.368 . S
C2074 C2073 1.523 . S
C2075 C2059 1.429 . S
C2075 C2071 1.429 . S
C2075 C2076 1.523 . S
C2076 C2060 1.368 . S
C2076 C2072 1.368 . S
C2076 C2075 1.523 . S
H2077 C2052 0.950 . S
H2078 C2054 0.950 . S
H2079 C2055 0.949 . S
H2080 C2057 0.950 . S
H2081 C2059 0.950 . S
C2082 C2083 1.349 . S
C2082 C2084 1.327 . S
C2082 H2107 0.950 . S
C2083 C2082 1.349 . S
C2083 C2099 1.349 . S
C2084 C2082 1.327 . S
C2084 C2103 1.429 . S
C2084 H2108 0.950 . S
C2085 C2102 1.574 . S
C2085 C2104 1.368 . S
C2085 H2109 0.949 . S
H2086 C2090 0.949 . S
C2087 C2088 1.349 . S
C2087 C2089 1.327 . S
C2087 H2110 0.950 . S
C2088 C2087 1.349 . S
C2088 C2100 1.349 . S
C2089 C2087 1.327 . S
C2089 C2105 1.429 . S
C2089 H2111 0.950 . S
C2090 H2086 0.949 . S
C2090 C2098 1.574 . S
C2090 C2106 1.368 . S
H2091 C2099 0.950 . S
H2092 C2097 0.950 . S
H2093 C2098 0.949 . S
H2094 C2100 0.950 . S
H2095 C2101 0.950 . S
H2096 C2102 0.949 . S
C2097 H2092 0.950 . S
C2097 C2099 1.327 . S
C2097 C2103 1.429 . S
C2098 C2090 1.574 . S
C2098 H2093 0.949 . S
C2098 C2104 1.368 . S
C2099 C2083 1.349 . S
C2099 H2091 0.950 . S
C2099 C2097 1.327 . S
C2100 C2088 1.349 . S
C2100 H2094 0.950 . S
C2100 C2101 1.327 . S
C2101 H2095 0.950 . S
C2101 C2100 1.327 . S
C2101 C2105 1.429 . S
C2102 C2085 1.574 . S
C2102 H2096 0.949 . S
C2102 C2106 1.368 . S
C2103 C2084 1.429 . S
C2103 C2097 1.429 . S
C2103 C2104 1.523 . S
C2104 C2085 1.368 . S
C2104 C2098 1.368 . S
C2104 C2103 1.523 . S
C2105 C2089 1.429 . S
C2105 C2101 1.429 . S
C2105 C2106 1.523 . S
C2106 C2090 1.368 . S
C2106 C2102 1.368 . S
C2106 C2105 1.523 . S
H2107 C2082 0.950 . S
H2108 C2084 0.950 . S
H2109 C2085 0.949 . S
H2110 C2087 0.950 . S
H2111 C2089 0.950 . S
C2112 C2113 1.349 . S
C2112 C2114 1.327 . S
C2112 H2137 0.950 . S
C2113 C2112 1.349 . S
C2113 C2129 1.349 . S
C2114 C2112 1.327 . S
C2114 C2133 1.429 . S
C2114 H2138 0.950 . S
C2115 C2132 1.574 . S
C2115 C2134 1.368 . S
C2115 H2139 0.949 . S
H2116 C2120 0.949 . S
C2117 C2118 1.349 . S
C2117 C2119 1.327 . S
C2117 H2140 0.950 . S
C2118 C2117 1.349 . S
C2118 C2130 1.349 . S
C2119 C2117 1.327 . S
C2119 C2135 1.429 . S
C2119 H2141 0.950 . S
C2120 H2116 0.949 . S
C2120 C2128 1.574 . S
C2120 C2136 1.368 . S
H2121 C2129 0.950 . S
H2122 C2127 0.950 . S
H2123 C2128 0.949 . S
H2124 C2130 0.950 . S
H2125 C2131 0.950 . S
H2126 C2132 0.949 . S
C2127 H2122 0.950 . S
C2127 C2129 1.327 . S
C2127 C2133 1.429 . S
C2128 C2120 1.574 . S
C2128 H2123 0.949 . S
C2128 C2134 1.368 . S
C2129 C2113 1.349 . S
C2129 H2121 0.950 . S
C2129 C2127 1.327 . S
C2130 C2118 1.349 . S
C2130 H2124 0.950 . S
C2130 C2131 1.327 . S
C2131 H2125 0.950 . S
C2131 C2130 1.327 . S
C2131 C2135 1.429 . S
C2132 C2115 1.574 . S
C2132 H2126 0.949 . S
C2132 C2136 1.368 . S
C2133 C2114 1.429 . S
C2133 C2127 1.429 . S
C2133 C2134 1.523 . S
C2134 C2115 1.368 . S
C2134 C2128 1.368 . S
C2134 C2133 1.523 . S
C2135 C2119 1.429 . S
C2135 C2131 1.429 . S
C2135 C2136 1.523 . S
C2136 C2120 1.368 . S
C2136 C2132 1.368 . S
C2136 C2135 1.523 . S
H2137 C2112 0.950 . S
H2138 C2114 0.950 . S
H2139 C2115 0.949 . S
H2140 C2117 0.950 . S
H2141 C2119 0.950 . S
C2142 C2143 1.349 . S
C2142 C2144 1.327 . S
C2142 H2167 0.950 . S
C2143 C2142 1.349 . S
C2143 C2159 1.349 . S
C2144 C2142 1.327 . S
C2144 C2163 1.429 . S
C2144 H2168 0.950 . S
C2145 C2162 1.574 . S
C2145 C2164 1.368 . S
C2145 H2169 0.949 . S
H2146 C2150 0.949 . S
C2147 C2148 1.349 . S
C2147 C2149 1.327 . S
C2147 H2170 0.950 . S
C2148 C2147 1.349 . S
C2148 C2160 1.349 . S
C2149 C2147 1.327 . S
C2149 C2165 1.429 . S
C2149 H2171 0.950 . S
C2150 H2146 0.949 . S
C2150 C2158 1.574 . S
C2150 C2166 1.368 . S
H2151 C2159 0.950 . S
H2152 C2157 0.950 . S
H2153 C2158 0.949 . S
H2154 C2160 0.950 . S
H2155 C2161 0.950 . S
H2156 C2162 0.949 . S
C2157 H2152 0.950 . S
C2157 C2159 1.327 . S
C2157 C2163 1.429 . S
C2158 C2150 1.574 . S
C2158 H2153 0.949 . S
C2158 C2164 1.368 . S
C2159 C2143 1.349 . S
C2159 H2151 0.950 . S
C2159 C2157 1.327 . S
C2160 C2148 1.349 . S
C2160 H2154 0.950 . S
C2160 C2161 1.327 . S
C2161 H2155 0.950 . S
C2161 C2160 1.327 . S
C2161 C2165 1.429 . S
C2162 C2145 1.574 . S
C2162 H2156 0.949 . S
C2162 C2166 1.368 . S
C2163 C2144 1.429 . S
C2163 C2157 1.429 . S
C2163 C2164 1.523 . S
C2164 C2145 1.368 . S
C2164 C2158 1.368 . S
C2164 C2163 1.523 . S
C2165 C2149 1.429 . S
C2165 C2161 1.429 . S
C2165 C2166 1.523 . S
C2166 C2150 1.368 . S
C2166 C2162 1.368 . S
C2166 C2165 1.523 . S
H2167 C2142 0.950 . S
H2168 C2144 0.950 . S
H2169 C2145 0.949 . S
H2170 C2147 0.950 . S
H2171 C2149 0.950 . S
C2172 C2173 1.349 . S
C2172 C2174 1.327 . S
C2172 H2197 0.950 . S
C2173 C2172 1.349 . S
C2173 C2189 1.349 . S
C2174 C2172 1.327 . S
C2174 C2193 1.429 . S
C2174 H2198 0.950 . S
C2175 C2192 1.574 . S
C2175 C2194 1.368 . S
C2175 H2199 0.949 . S
H2176 C2180 0.949 . S
C2177 C2178 1.349 . S
C2177 C2179 1.327 . S
C2177 H2200 0.950 . S
C2178 C2177 1.349 . S
C2178 C2190 1.349 . S
C2179 C2177 1.327 . S
C2179 C2195 1.429 . S
C2179 H2201 0.950 . S
C2180 H2176 0.949 . S
C2180 C2188 1.574 . S
C2180 C2196 1.368 . S
H2181 C2189 0.950 . S
H2182 C2187 0.950 . S
H2183 C2188 0.949 . S
H2184 C2190 0.950 . S
H2185 C2191 0.950 . S
H2186 C2192 0.949 . S
C2187 H2182 0.950 . S
C2187 C2189 1.327 . S
C2187 C2193 1.429 . S
C2188 C2180 1.574 . S
C2188 H2183 0.949 . S
C2188 C2194 1.368 . S
C2189 C2173 1.349 . S
C2189 H2181 0.950 . S
C2189 C2187 1.327 . S
C2190 C2178 1.349 . S
C2190 H2184 0.950 . S
C2190 C2191 1.327 . S
C2191 H2185 0.950 . S
C2191 C2190 1.327 . S
C2191 C2195 1.429 . S
C2192 C2175 1.574 . S
C2192 H2186 0.949 . S
C2192 C2196 1.368 . S
C2193 C2174 1.429 . S
C2193 C2187 1.429 . S
C2193 C2194 1.523 . S
C2194 C2175 1.368 . S
C2194 C2188 1.368 . S
C2194 C2193 1.523 . S
C2195 C2179 1.429 . S
C2195 C2191 1.429 . S
C2195 C2196 1.523 . S
C2196 C2180 1.368 . S
C2196 C2192 1.368 . S
C2196 C2195 1.523 . S
H2197 C2172 0.950 . S
H2198 C2174 0.950 . S
H2199 C2175 0.949 . S
H2200 C2177 0.950 . S
H2201 C2179 0.950 . S
C2202 C2203 1.349 . S
C2202 C2204 1.327 . S
C2202 H2227 0.950 1_455 S
C2203 C2202 1.349 . S
C2203 C2219 1.349 . S
C2204 C2202 1.327 . S
C2204 C2223 1.429 . S
C2204 H2228 0.950 . S
C2205 C2222 1.574 . S
C2205 C2224 1.368 . S
C2205 H2229 0.949 . S
H2206 C2210 0.949 . S
C2207 C2208 1.349 . S
C2207 C2209 1.327 . S
C2207 H2230 0.950 . S
C2208 C2207 1.349 . S
C2208 C2220 1.349 . S
C2209 C2207 1.327 . S
C2209 C2225 1.429 . S
C2209 H2231 0.950 . S
C2210 H2206 0.949 . S
C2210 C2218 1.574 . S
C2210 C2226 1.368 . S
H2211 C2219 0.950 . S
H2212 C2217 0.950 . S
H2213 C2218 0.949 . S
H2214 C2220 0.950 . S
H2215 C2221 0.950 . S
H2216 C2222 0.949 . S
C2217 H2212 0.950 . S
C2217 C2219 1.327 . S
C2217 C2223 1.429 . S
C2218 C2210 1.574 . S
C2218 H2213 0.949 . S
C2218 C2224 1.368 . S
C2219 C2203 1.349 . S
C2219 H2211 0.950 . S
C2219 C2217 1.327 . S
C2220 C2208 1.349 . S
C2220 H2214 0.950 . S
C2220 C2221 1.327 . S
C2221 H2215 0.950 . S
C2221 C2220 1.327 . S
C2221 C2225 1.429 . S
C2222 C2205 1.574 . S
C2222 H2216 0.949 . S
C2222 C2226 1.368 . S
C2223 C2204 1.429 . S
C2223 C2217 1.429 . S
C2223 C2224 1.523 . S
C2224 C2205 1.368 . S
C2224 C2218 1.368 . S
C2224 C2223 1.523 . S
C2225 C2209 1.429 . S
C2225 C2221 1.429 . S
C2225 C2226 1.523 . S
C2226 C2210 1.368 . S
C2226 C2222 1.368 . S
C2226 C2225 1.523 . S
H2227 C2202 0.950 1_655 S
H2228 C2204 0.950 . S
H2229 C2205 0.949 . S
H2230 C2207 0.950 . S
H2231 C2209 0.950 . S
C2232 C2233 1.349 . S
C2232 C2234 1.327 . S
C2232 H2257 0.950 . S
C2233 C2232 1.349 . S
C2233 C2249 1.349 . S
C2234 C2232 1.327 . S
C2234 C2253 1.429 . S
C2234 H2258 0.950 . S
C2235 C2252 1.574 . S
C2235 C2254 1.368 . S
C2235 H2259 0.949 . S
H2236 C2240 0.949 . S
C2237 C2238 1.349 . S
C2237 C2239 1.327 . S
C2237 H2260 0.950 . S
C2238 C2237 1.349 . S
C2238 C2250 1.349 . S
C2239 C2237 1.327 . S
C2239 C2255 1.429 . S
C2239 H2261 0.950 . S
C2240 H2236 0.949 . S
C2240 C2248 1.574 . S
C2240 C2256 1.368 . S
H2241 C2249 0.950 . S
H2242 C2247 0.950 . S
H2243 C2248 0.949 . S
H2244 C2250 0.950 . S
H2245 C2251 0.950 . S
H2246 C2252 0.949 . S
C2247 H2242 0.950 . S
C2247 C2249 1.327 . S
C2247 C2253 1.429 . S
C2248 C2240 1.574 . S
C2248 H2243 0.949 . S
C2248 C2254 1.368 . S
C2249 C2233 1.349 . S
C2249 H2241 0.950 . S
C2249 C2247 1.327 . S
C2250 C2238 1.349 . S
C2250 H2244 0.950 . S
C2250 C2251 1.327 . S
C2251 H2245 0.950 . S
C2251 C2250 1.327 . S
C2251 C2255 1.429 . S
C2252 C2235 1.574 . S
C2252 H2246 0.949 . S
C2252 C2256 1.368 . S
C2253 C2234 1.429 . S
C2253 C2247 1.429 . S
C2253 C2254 1.523 . S
C2254 C2235 1.368 . S
C2254 C2248 1.368 . S
C2254 C2253 1.523 . S
C2255 C2239 1.429 . S
C2255 C2251 1.429 . S
C2255 C2256 1.523 . S
C2256 C2240 1.368 . S
C2256 C2252 1.368 . S
C2256 C2255 1.523 . S
H2257 C2232 0.950 . S
H2258 C2234 0.950 . S
H2259 C2235 0.949 . S
H2260 C2237 0.950 . S
H2261 C2239 0.950 . S
C2262 C2263 1.349 . S
C2262 C2264 1.327 . S
C2262 H2287 0.950 . S
C2263 C2262 1.349 . S
C2263 C2279 1.349 . S
C2264 C2262 1.327 . S
C2264 C2283 1.429 . S
C2264 H2288 0.950 . S
C2265 C2282 1.574 . S
C2265 C2284 1.368 . S
C2265 H2289 0.949 . S
H2266 C2270 0.949 . S
C2267 C2268 1.349 . S
C2267 C2269 1.327 . S
C2267 H2290 0.950 1_455 S
C2268 C2267 1.349 . S
C2268 C2280 1.349 . S
C2269 C2267 1.327 . S
C2269 C2285 1.429 . S
C2269 H2291 0.950 . S
C2270 H2266 0.949 . S
C2270 C2278 1.574 . S
C2270 C2286 1.368 . S
H2271 C2279 0.950 . S
H2272 C2277 0.950 . S
H2273 C2278 0.949 . S
H2274 C2280 0.950 . S
H2275 C2281 0.950 . S
H2276 C2282 0.949 . S
C2277 H2272 0.950 . S
C2277 C2279 1.327 . S
C2277 C2283 1.429 . S
C2278 C2270 1.574 . S
C2278 H2273 0.949 . S
C2278 C2284 1.368 . S
C2279 C2263 1.349 . S
C2279 H2271 0.950 . S
C2279 C2277 1.327 . S
C2280 C2268 1.349 . S
C2280 H2274 0.950 . S
C2280 C2281 1.327 . S
C2281 H2275 0.950 . S
C2281 C2280 1.327 . S
C2281 C2285 1.429 . S
C2282 C2265 1.574 . S
C2282 H2276 0.949 . S
C2282 C2286 1.368 . S
C2283 C2264 1.429 . S
C2283 C2277 1.429 . S
C2283 C2284 1.523 . S
C2284 C2265 1.368 . S
C2284 C2278 1.368 . S
C2284 C2283 1.523 . S
C2285 C2269 1.429 . S
C2285 C2281 1.429 . S
C2285 C2286 1.523 . S
C2286 C2270 1.368 . S
C2286 C2282 1.368 . S
C2286 C2285 1.523 . S
H2287 C2262 0.950 . S
H2288 C2264 0.950 . S
H2289 C2265 0.949 . S
H2290 C2267 0.950 1_655 S
H2291 C2269 0.950 . S
C2292 C2293 1.349 . S
C2292 C2294 1.327 . S
C2292 H2317 0.950 . S
C2293 C2292 1.349 . S
C2293 C2309 1.349 . S
C2294 C2292 1.327 . S
C2294 C2313 1.429 . S
C2294 H2318 0.950 . S
C2295 C2312 1.574 . S
C2295 C2314 1.368 . S
C2295 H2319 0.949 . S
H2296 C2300 0.949 . S
C2297 C2298 1.349 . S
C2297 C2299 1.327 . S
C2297 H2320 0.950 . S
C2298 C2297 1.349 . S
C2298 C2310 1.349 . S
C2299 C2297 1.327 . S
C2299 C2315 1.429 . S
C2299 H2321 0.950 . S
C2300 H2296 0.949 . S
C2300 C2308 1.574 . S
C2300 C2316 1.368 . S
H2301 C2309 0.950 . S
H2302 C2307 0.950 . S
H2303 C2308 0.949 . S
H2304 C2310 0.950 . S
H2305 C2311 0.950 . S
H2306 C2312 0.949 . S
C2307 H2302 0.950 . S
C2307 C2309 1.327 . S
C2307 C2313 1.429 . S
C2308 C2300 1.574 . S
C2308 H2303 0.949 . S
C2308 C2314 1.368 . S
C2309 C2293 1.349 . S
C2309 H2301 0.950 . S
C2309 C2307 1.327 . S
C2310 C2298 1.349 . S
C2310 H2304 0.950 . S
C2310 C2311 1.327 . S
C2311 H2305 0.950 . S
C2311 C2310 1.327 . S
C2311 C2315 1.429 . S
C2312 C2295 1.574 . S
C2312 H2306 0.949 . S
C2312 C2316 1.368 . S
C2313 C2294 1.429 . S
C2313 C2307 1.429 . S
C2313 C2314 1.523 . S
C2314 C2295 1.368 . S
C2314 C2308 1.368 . S
C2314 C2313 1.523 . S
C2315 C2299 1.429 . S
C2315 C2311 1.429 . S
C2315 C2316 1.523 . S
C2316 C2300 1.368 . S
C2316 C2312 1.368 . S
C2316 C2315 1.523 . S
H2317 C2292 0.950 . S
H2318 C2294 0.950 . S
H2319 C2295 0.949 . S
H2320 C2297 0.950 . S
H2321 C2299 0.950 . S
C2322 C2323 1.349 . S
C2322 C2324 1.327 . S
C2322 H2347 0.950 . S
C2323 C2322 1.349 . S
C2323 C2339 1.349 . S
C2324 C2322 1.327 . S
C2324 C2343 1.429 . S
C2324 H2348 0.950 . S
C2325 C2342 1.574 . S
C2325 C2344 1.368 . S
C2325 H2349 0.949 . S
H2326 C2330 0.949 . S
C2327 C2328 1.349 . S
C2327 C2329 1.327 . S
C2327 H2350 0.950 . S
C2328 C2327 1.349 . S
C2328 C2340 1.349 . S
C2329 C2327 1.327 . S
C2329 C2345 1.429 . S
C2329 H2351 0.950 . S
C2330 H2326 0.949 . S
C2330 C2338 1.574 . S
C2330 C2346 1.368 . S
H2331 C2339 0.950 . S
H2332 C2337 0.950 . S
H2333 C2338 0.949 . S
H2334 C2340 0.950 . S
H2335 C2341 0.950 . S
H2336 C2342 0.949 . S
C2337 H2332 0.950 . S
C2337 C2339 1.327 . S
C2337 C2343 1.429 . S
C2338 C2330 1.574 . S
C2338 H2333 0.949 . S
C2338 C2344 1.368 . S
C2339 C2323 1.349 . S
C2339 H2331 0.950 . S
C2339 C2337 1.327 . S
C2340 C2328 1.349 . S
C2340 H2334 0.950 . S
C2340 C2341 1.327 . S
C2341 H2335 0.950 . S
C2341 C2340 1.327 . S
C2341 C2345 1.429 . S
C2342 C2325 1.574 . S
C2342 H2336 0.949 . S
C2342 C2346 1.368 . S
C2343 C2324 1.429 . S
C2343 C2337 1.429 . S
C2343 C2344 1.523 . S
C2344 C2325 1.368 . S
C2344 C2338 1.368 . S
C2344 C2343 1.523 . S
C2345 C2329 1.429 . S
C2345 C2341 1.429 . S
C2345 C2346 1.523 . S
C2346 C2330 1.368 . S
C2346 C2342 1.368 . S
C2346 C2345 1.523 . S
H2347 C2322 0.950 . S
H2348 C2324 0.950 . S
H2349 C2325 0.949 . S
H2350 C2327 0.950 . S
H2351 C2329 0.950 . S
C2352 C2353 1.349 . S
C2352 C2354 1.327 . S
C2352 H2377 0.950 . S
C2353 C2352 1.349 . S
C2353 C2369 1.349 . S
C2354 C2352 1.327 . S
C2354 C2373 1.429 . S
C2354 H2378 0.950 . S
C2355 C2372 1.574 . S
C2355 C2374 1.368 . S
C2355 H2379 0.949 . S
H2356 C2360 0.949 . S
C2357 C2358 1.349 . S
C2357 C2359 1.327 . S
C2357 H2380 0.950 . S
C2358 C2357 1.349 . S
C2358 C2370 1.349 . S
C2359 C2357 1.327 . S
C2359 C2375 1.429 . S
C2359 H2381 0.950 . S
C2360 H2356 0.949 . S
C2360 C2368 1.574 . S
C2360 C2376 1.368 . S
H2361 C2369 0.950 . S
H2362 C2367 0.950 . S
H2363 C2368 0.949 . S
H2364 C2370 0.950 . S
H2365 C2371 0.950 . S
H2366 C2372 0.949 . S
C2367 H2362 0.950 . S
C2367 C2369 1.327 . S
C2367 C2373 1.429 . S
C2368 C2360 1.574 . S
C2368 H2363 0.949 . S
C2368 C2374 1.368 . S
C2369 C2353 1.349 . S
C2369 H2361 0.950 . S
C2369 C2367 1.327 . S
C2370 C2358 1.349 . S
C2370 H2364 0.950 . S
C2370 C2371 1.327 . S
C2371 H2365 0.950 . S
C2371 C2370 1.327 . S
C2371 C2375 1.429 . S
C2372 C2355 1.574 . S
C2372 H2366 0.949 . S
C2372 C2376 1.368 . S
C2373 C2354 1.429 . S
C2373 C2367 1.429 . S
C2373 C2374 1.523 . S
C2374 C2355 1.368 . S
C2374 C2368 1.368 . S
C2374 C2373 1.523 . S
C2375 C2359 1.429 . S
C2375 C2371 1.429 . S
C2375 C2376 1.523 . S
C2376 C2360 1.368 . S
C2376 C2372 1.368 . S
C2376 C2375 1.523 . S
H2377 C2352 0.950 . S
H2378 C2354 0.950 . S
H2379 C2355 0.949 . S
H2380 C2357 0.950 . S
H2381 C2359 0.950 . S
C2382 C2383 1.349 . S
C2382 C2384 1.327 . S
C2382 H2407 0.950 . S
C2383 C2382 1.349 . S
C2383 C2399 1.349 . S
C2384 C2382 1.327 . S
C2384 C2403 1.429 . S
C2384 H2408 0.950 . S
C2385 C2402 1.574 . S
C2385 C2404 1.368 . S
C2385 H2409 0.949 . S
H2386 C2390 0.949 . S
C2387 C2388 1.351 . S
C2387 C2389 1.343 . S
C2387 H2410 0.932 1_554 S
C2388 C2387 1.351 . S
C2388 C2400 1.349 . S
C2389 C2387 1.343 . S
C2389 C2405 1.429 . S
C2389 H2411 0.950 . S
C2390 H2386 0.949 . S
C2390 C2398 1.574 . S
C2390 C2406 1.368 . S
H2391 C2399 0.950 . S
H2392 C2397 0.950 . S
H2393 C2398 0.949 . S
H2394 C2400 0.950 . S
H2395 C2401 0.950 . S
H2396 C2402 0.949 . S
C2397 H2392 0.950 . S
C2397 C2399 1.327 . S
C2397 C2403 1.429 . S
C2398 C2390 1.574 . S
C2398 H2393 0.949 . S
C2398 C2404 1.368 . S
C2399 C2383 1.349 . S
C2399 H2391 0.950 . S
C2399 C2397 1.327 . S
C2400 C2388 1.349 . S
C2400 H2394 0.950 . S
C2400 C2401 1.327 . S
C2401 H2395 0.950 . S
C2401 C2400 1.327 . S
C2401 C2405 1.429 . S
C2402 C2385 1.574 . S
C2402 H2396 0.949 . S
C2402 C2406 1.368 . S
C2403 C2384 1.429 . S
C2403 C2397 1.429 . S
C2403 C2404 1.523 . S
C2404 C2385 1.368 . S
C2404 C2398 1.368 . S
C2404 C2403 1.523 . S
C2405 C2389 1.429 . S
C2405 C2401 1.429 . S
C2405 C2406 1.523 . S
C2406 C2390 1.368 . S
C2406 C2402 1.368 . S
C2406 C2405 1.523 . S
H2407 C2382 0.950 . S
H2408 C2384 0.950 . S
H2409 C2385 0.949 . S
H2410 C2387 0.932 1_556 S
H2411 C2389 0.950 . S
C2412 C2413 1.349 . S
C2412 C2414 1.327 . S
C2412 H2437 0.950 . S
C2413 C2412 1.349 . S
C2413 C2429 1.349 . S
C2414 C2412 1.327 . S
C2414 C2433 1.429 . S
C2414 H2438 0.950 . S
C2415 C2432 1.574 . S
C2415 C2434 1.368 . S
C2415 H2439 0.949 . S
H2416 C2420 0.949 . S
C2417 C2418 1.349 . S
C2417 C2419 1.327 . S
C2417 H2440 0.950 . S
C2418 C2417 1.349 . S
C2418 C2430 1.349 . S
C2419 C2417 1.327 . S
C2419 C2435 1.429 . S
C2419 H2441 0.950 . S
C2420 H2416 0.949 . S
C2420 C2428 1.574 . S
C2420 C2436 1.368 . S
H2421 C2429 0.950 . S
H2422 C2427 0.950 . S
H2423 C2428 0.949 . S
H2424 C2430 0.950 . S
H2425 C2431 0.950 . S
H2426 C2432 0.949 . S
C2427 H2422 0.950 . S
C2427 C2429 1.327 . S
C2427 C2433 1.429 . S
C2428 C2420 1.574 . S
C2428 H2423 0.949 . S
C2428 C2434 1.368 . S
C2429 C2413 1.349 . S
C2429 H2421 0.950 . S
C2429 C2427 1.327 . S
C2430 C2418 1.349 . S
C2430 H2424 0.950 . S
C2430 C2431 1.327 . S
C2431 H2425 0.950 . S
C2431 C2430 1.327 . S
C2431 C2435 1.429 . S
C2432 C2415 1.574 . S
C2432 H2426 0.949 . S
C2432 C2436 1.368 . S
C2433 C2414 1.429 . S
C2433 C2427 1.429 . S
C2433 C2434 1.523 . S
C2434 C2415 1.368 . S
C2434 C2428 1.368 . S
C2434 C2433 1.523 . S
C2435 C2419 1.429 . S
C2435 C2431 1.429 . S
C2435 C2436 1.523 . S
C2436 C2420 1.368 . S
C2436 C2432 1.368 . S
C2436 C2435 1.523 . S
H2437 C2412 0.950 . S
H2438 C2414 0.950 . S
H2439 C2415 0.949 . S
H2440 C2417 0.950 . S
H2441 C2419 0.950 . S
C2442 C2443 1.349 . S
C2442 C2444 1.327 . S
C2442 H2467 0.950 . S
C2443 C2442 1.349 . S
C2443 C2459 1.349 . S
C2444 C2442 1.327 . S
C2444 C2463 1.429 . S
C2444 H2468 0.950 . S
C2445 C2462 1.574 . S
C2445 C2464 1.368 . S
C2445 H2469 0.949 . S
H2446 C2450 0.949 . S
C2447 C2448 1.349 . S
C2447 C2449 1.327 . S
C2447 H2470 0.950 . S
C2448 C2447 1.349 . S
C2448 C2460 1.349 . S
C2449 C2447 1.327 . S
C2449 C2465 1.429 . S
C2449 H2471 0.950 . S
C2450 H2446 0.949 . S
C2450 C2458 1.574 . S
C2450 C2466 1.368 . S
H2451 C2459 0.950 . S
H2452 C2457 0.950 . S
H2453 C2458 0.949 . S
H2454 C2460 0.950 . S
H2455 C2461 0.950 . S
H2456 C2462 0.949 . S
C2457 H2452 0.950 . S
C2457 C2459 1.327 . S
C2457 C2463 1.429 . S
C2458 C2450 1.574 . S
C2458 H2453 0.949 . S
C2458 C2464 1.368 . S
C2459 C2443 1.349 . S
C2459 H2451 0.950 . S
C2459 C2457 1.327 . S
C2460 C2448 1.349 . S
C2460 H2454 0.950 . S
C2460 C2461 1.327 . S
C2461 H2455 0.950 . S
C2461 C2460 1.327 . S
C2461 C2465 1.429 . S
C2462 C2445 1.574 . S
C2462 H2456 0.949 . S
C2462 C2466 1.368 . S
C2463 C2444 1.429 . S
C2463 C2457 1.429 . S
C2463 C2464 1.523 . S
C2464 C2445 1.368 . S
C2464 C2458 1.368 . S
C2464 C2463 1.523 . S
C2465 C2449 1.429 . S
C2465 C2461 1.429 . S
C2465 C2466 1.523 . S
C2466 C2450 1.368 . S
C2466 C2462 1.368 . S
C2466 C2465 1.523 . S
H2467 C2442 0.950 . S
H2468 C2444 0.950 . S
H2469 C2445 0.949 . S
H2470 C2447 0.950 . S
H2471 C2449 0.950 . S
C2472 C2473 1.349 . S
C2472 C2474 1.327 . S
C2472 H2497 0.950 . S
C2473 C2472 1.349 . S
C2473 C2489 1.349 . S
C2474 C2472 1.327 . S
C2474 C2493 1.429 . S
C2474 H2498 0.950 . S
C2475 C2492 1.574 . S
C2475 C2494 1.368 . S
C2475 H2499 0.949 . S
H2476 C2480 0.949 . S
C2477 C2478 1.349 . S
C2477 C2479 1.327 . S
C2477 H2500 0.950 . S
C2478 C2477 1.349 . S
C2478 C2490 1.349 . S
C2479 C2477 1.327 . S
C2479 C2495 1.429 . S
C2479 H2501 0.950 . S
C2480 H2476 0.949 . S
C2480 C2488 1.574 . S
C2480 C2496 1.368 . S
H2481 C2489 0.950 . S
H2482 C2487 0.950 . S
H2483 C2488 0.949 . S
H2484 C2490 0.950 . S
H2485 C2491 0.950 . S
H2486 C2492 0.949 . S
C2487 H2482 0.950 . S
C2487 C2489 1.327 . S
C2487 C2493 1.429 . S
C2488 C2480 1.574 . S
C2488 H2483 0.949 . S
C2488 C2494 1.368 . S
C2489 C2473 1.349 . S
C2489 H2481 0.950 . S
C2489 C2487 1.327 . S
C2490 C2478 1.349 . S
C2490 H2484 0.950 . S
C2490 C2491 1.327 . S
C2491 H2485 0.950 . S
C2491 C2490 1.327 . S
C2491 C2495 1.429 . S
C2492 C2475 1.574 . S
C2492 H2486 0.949 . S
C2492 C2496 1.368 . S
C2493 C2474 1.429 . S
C2493 C2487 1.429 . S
C2493 C2494 1.523 . S
C2494 C2475 1.368 . S
C2494 C2488 1.368 . S
C2494 C2493 1.523 . S
C2495 C2479 1.429 . S
C2495 C2491 1.429 . S
C2495 C2496 1.523 . S
C2496 C2480 1.368 . S
C2496 C2492 1.368 . S
C2496 C2495 1.523 . S
H2497 C2472 0.950 . S
H2498 C2474 0.950 . S
H2499 C2475 0.949 . S
H2500 C2477 0.950 . S
H2501 C2479 0.950 . S
C2502 C2503 1.349 . S
C2502 C2504 1.327 . S
C2502 H2527 0.950 . S
C2503 C2502 1.349 . S
C2503 C2519 1.349 . S
C2504 C2502 1.327 . S
C2504 C2523 1.429 . S
C2504 H2528 0.950 . S
C2505 C2522 1.574 . S
C2505 C2524 1.368 . S
C2505 H2529 0.949 . S
H2506 C2510 0.949 . S
C2507 C2508 1.349 1_554 S
C2507 C2509 1.330 1_554 S
C2507 H2530 0.947 . S
C2508 C2507 1.349 1_556 S
C2508 C2520 1.349 . S
C2509 C2507 1.330 1_556 S
C2509 C2525 1.429 . S
C2509 H2531 0.950 . S
C2510 H2506 0.949 . S
C2510 C2518 1.574 . S
C2510 C2526 1.368 . S
H2511 C2519 0.950 . S
H2512 C2517 0.950 . S
H2513 C2518 0.949 . S
H2514 C2520 0.950 . S
H2515 C2521 0.950 . S
H2516 C2522 0.949 . S
C2517 H2512 0.950 . S
C2517 C2519 1.327 . S
C2517 C2523 1.429 . S
C2518 C2510 1.574 . S
C2518 H2513 0.949 . S
C2518 C2524 1.368 . S
C2519 C2503 1.349 . S
C2519 H2511 0.950 . S
C2519 C2517 1.327 . S
C2520 C2508 1.349 . S
C2520 H2514 0.950 . S
C2520 C2521 1.327 . S
C2521 H2515 0.950 . S
C2521 C2520 1.327 . S
C2521 C2525 1.429 . S
C2522 C2505 1.574 . S
C2522 H2516 0.949 . S
C2522 C2526 1.368 . S
C2523 C2504 1.429 . S
C2523 C2517 1.429 . S
C2523 C2524 1.523 . S
C2524 C2505 1.368 . S
C2524 C2518 1.368 . S
C2524 C2523 1.523 . S
C2525 C2509 1.429 . S
C2525 C2521 1.429 . S
C2525 C2526 1.523 . S
C2526 C2510 1.368 . S
C2526 C2522 1.368 . S
C2526 C2525 1.523 . S
H2527 C2502 0.950 . S
H2528 C2504 0.950 . S
H2529 C2505 0.949 . S
H2530 C2507 0.947 . S
H2531 C2509 0.950 . S
C2532 C2533 1.349 . S
C2532 C2534 1.327 . S
C2532 H2557 0.950 . S
C2533 C2532 1.349 . S
C2533 C2549 1.349 . S
C2534 C2532 1.327 . S
C2534 C2553 1.429 . S
C2534 H2558 0.950 . S
C2535 C2552 1.574 . S
C2535 C2554 1.368 . S
C2535 H2559 0.949 . S
H2536 C2540 0.949 . S
C2537 C2538 1.349 . S
C2537 C2539 1.327 . S
C2537 H2560 0.950 . S
C2538 C2537 1.349 . S
C2538 C2550 1.349 . S
C2539 C2537 1.327 . S
C2539 C2555 1.429 . S
C2539 H2561 0.950 . S
C2540 H2536 0.949 . S
C2540 C2548 1.574 . S
C2540 C2556 1.368 . S
H2541 C2549 0.950 . S
H2542 C2547 0.950 . S
H2543 C2548 0.949 . S
H2544 C2550 0.950 . S
H2545 C2551 0.950 . S
H2546 C2552 0.949 . S
C2547 H2542 0.950 . S
C2547 C2549 1.327 . S
C2547 C2553 1.429 . S
C2548 C2540 1.574 . S
C2548 H2543 0.949 . S
C2548 C2554 1.368 . S
C2549 C2533 1.349 . S
C2549 H2541 0.950 . S
C2549 C2547 1.327 . S
C2550 C2538 1.349 . S
C2550 H2544 0.950 . S
C2550 C2551 1.327 . S
C2551 H2545 0.950 . S
C2551 C2550 1.327 . S
C2551 C2555 1.429 . S
C2552 C2535 1.574 . S
C2552 H2546 0.949 . S
C2552 C2556 1.368 . S
C2553 C2534 1.429 . S
C2553 C2547 1.429 . S
C2553 C2554 1.523 . S
C2554 C2535 1.368 . S
C2554 C2548 1.368 . S
C2554 C2553 1.523 . S
C2555 C2539 1.429 . S
C2555 C2551 1.429 . S
C2555 C2556 1.523 . S
C2556 C2540 1.368 . S
C2556 C2552 1.368 . S
C2556 C2555 1.523 . S
H2557 C2532 0.950 . S
H2558 C2534 0.950 . S
H2559 C2535 0.949 . S
H2560 C2537 0.950 . S
H2561 C2539 0.950 . S
C2562 C2563 1.349 . S
C2562 C2564 1.327 . S
C2562 H2587 0.950 . S
C2563 C2562 1.349 . S
C2563 C2579 1.349 . S
C2564 C2562 1.327 . S
C2564 C2583 1.429 . S
C2564 H2588 0.950 . S
C2565 C2582 1.574 . S
C2565 C2584 1.368 . S
C2565 H2589 0.949 . S
H2566 C2570 0.949 . S
C2567 C2568 1.349 . S
C2567 C2569 1.327 . S
C2567 H2590 0.950 . S
C2568 C2567 1.349 . S
C2568 C2580 1.349 . S
C2569 C2567 1.327 . S
C2569 C2585 1.429 . S
C2569 H2591 0.950 . S
C2570 H2566 0.949 . S
C2570 C2578 1.574 . S
C2570 C2586 1.368 . S
H2571 C2579 0.950 . S
H2572 C2577 0.950 . S
H2573 C2578 0.949 . S
H2574 C2580 0.950 . S
H2575 C2581 0.950 . S
H2576 C2582 0.949 . S
C2577 H2572 0.950 . S
C2577 C2579 1.327 . S
C2577 C2583 1.429 . S
C2578 C2570 1.574 . S
C2578 H2573 0.949 . S
C2578 C2584 1.368 . S
C2579 C2563 1.349 . S
C2579 H2571 0.950 . S
C2579 C2577 1.327 . S
C2580 C2568 1.349 . S
C2580 H2574 0.950 . S
C2580 C2581 1.327 . S
C2581 H2575 0.950 . S
C2581 C2580 1.327 . S
C2581 C2585 1.429 . S
C2582 C2565 1.574 . S
C2582 H2576 0.949 . S
C2582 C2586 1.368 . S
C2583 C2564 1.429 . S
C2583 C2577 1.429 . S
C2583 C2584 1.523 . S
C2584 C2565 1.368 . S
C2584 C2578 1.368 . S
C2584 C2583 1.523 . S
C2585 C2569 1.429 . S
C2585 C2581 1.429 . S
C2585 C2586 1.523 . S
C2586 C2570 1.368 . S
C2586 C2582 1.368 . S
C2586 C2585 1.523 . S
H2587 C2562 0.950 . S
H2588 C2564 0.950 . S
H2589 C2565 0.949 . S
H2590 C2567 0.950 . S
H2591 C2569 0.950 . S
C2592 C2593 1.349 . S
C2592 C2594 1.327 . S
C2592 H2617 0.950 . S
C2593 C2592 1.349 . S
C2593 C2609 1.349 . S
C2594 C2592 1.327 . S
C2594 C2613 1.429 . S
C2594 H2618 0.950 . S
C2595 C2612 1.574 . S
C2595 C2614 1.368 . S
C2595 H2619 0.949 . S
H2596 C2600 0.949 . S
C2597 C2598 1.349 . S
C2597 C2599 1.327 . S
C2597 H2620 0.950 . S
C2598 C2597 1.349 . S
C2598 C2610 1.349 . S
C2599 C2597 1.327 . S
C2599 C2615 1.429 . S
C2599 H2621 0.950 . S
C2600 H2596 0.949 . S
C2600 C2608 1.574 . S
C2600 C2616 1.368 . S
H2601 C2609 0.950 . S
H2602 C2607 0.950 . S
H2603 C2608 0.949 . S
H2604 C2610 0.950 . S
H2605 C2611 0.950 . S
H2606 C2612 0.949 . S
C2607 H2602 0.950 . S
C2607 C2609 1.327 . S
C2607 C2613 1.429 . S
C2608 C2600 1.574 . S
C2608 H2603 0.949 . S
C2608 C2614 1.368 . S
C2609 C2593 1.349 . S
C2609 H2601 0.950 . S
C2609 C2607 1.327 . S
C2610 C2598 1.349 . S
C2610 H2604 0.950 . S
C2610 C2611 1.327 . S
C2611 H2605 0.950 . S
C2611 C2610 1.327 . S
C2611 C2615 1.429 . S
C2612 C2595 1.574 . S
C2612 H2606 0.949 . S
C2612 C2616 1.368 . S
C2613 C2594 1.429 . S
C2613 C2607 1.429 . S
C2613 C2614 1.523 . S
C2614 C2595 1.368 . S
C2614 C2608 1.368 . S
C2614 C2613 1.523 . S
C2615 C2599 1.429 . S
C2615 C2611 1.429 . S
C2615 C2616 1.523 . S
C2616 C2600 1.368 . S
C2616 C2612 1.368 . S
C2616 C2615 1.523 . S
H2617 C2592 0.950 . S
H2618 C2594 0.950 . S
H2619 C2595 0.949 . S
H2620 C2597 0.950 . S
H2621 C2599 0.950 . S
C2622 C2623 1.349 . S
C2622 C2624 1.327 . S
C2622 H2647 0.950 . S
C2623 C2622 1.349 . S
C2623 C2639 1.349 . S
C2624 C2622 1.327 . S
C2624 C2643 1.429 . S
C2624 H2648 0.950 . S
C2625 C2642 1.574 . S
C2625 C2644 1.368 . S
C2625 H2649 0.949 . S
H2626 C2630 0.949 . S
C2627 C2628 1.349 . S
C2627 C2629 1.327 . S
C2627 H2650 0.950 . S
C2628 C2627 1.349 . S
C2628 C2640 1.349 . S
C2629 C2627 1.327 . S
C2629 C2645 1.429 . S
C2629 H2651 0.950 . S
C2630 H2626 0.949 . S
C2630 C2638 1.574 . S
C2630 C2646 1.368 . S
H2631 C2639 0.950 . S
H2632 C2637 0.950 . S
H2633 C2638 0.949 . S
H2634 C2640 0.950 . S
H2635 C2641 0.950 . S
H2636 C2642 0.949 . S
C2637 H2632 0.950 . S
C2637 C2639 1.327 . S
C2637 C2643 1.429 . S
C2638 C2630 1.574 . S
C2638 H2633 0.949 . S
C2638 C2644 1.368 . S
C2639 C2623 1.349 . S
C2639 H2631 0.950 . S
C2639 C2637 1.327 . S
C2640 C2628 1.349 . S
C2640 H2634 0.950 . S
C2640 C2641 1.327 . S
C2641 H2635 0.950 . S
C2641 C2640 1.327 . S
C2641 C2645 1.429 . S
C2642 C2625 1.574 . S
C2642 H2636 0.949 . S
C2642 C2646 1.368 . S
C2643 C2624 1.429 . S
C2643 C2637 1.429 . S
C2643 C2644 1.523 . S
C2644 C2625 1.368 . S
C2644 C2638 1.368 . S
C2644 C2643 1.523 . S
C2645 C2629 1.429 . S
C2645 C2641 1.429 . S
C2645 C2646 1.523 . S
C2646 C2630 1.368 . S
C2646 C2642 1.368 . S
C2646 C2645 1.523 . S
H2647 C2622 0.950 . S
H2648 C2624 0.950 . S
H2649 C2625 0.949 . S
H2650 C2627 0.950 . S
H2651 C2629 0.950 . S
C2652 C2653 1.349 . S
C2652 C2654 1.327 . S
C2652 H2677 0.950 . S
C2653 C2652 1.349 . S
C2653 C2669 1.349 . S
C2654 C2652 1.327 . S
C2654 C2673 1.429 . S
C2654 H2678 0.950 . S
C2655 C2672 1.574 . S
C2655 C2674 1.368 . S
C2655 H2679 0.949 . S
H2656 C2660 0.949 . S
C2657 C2658 1.349 1_565 S
C2657 C2659 1.328 1_565 S
C2657 H2680 0.949 . S
C2658 C2657 1.349 1_545 S
C2658 C2670 1.349 . S
C2659 C2657 1.328 1_545 S
C2659 C2675 1.429 . S
C2659 H2681 0.950 . S
C2660 H2656 0.949 . S
C2660 C2668 1.574 . S
C2660 C2676 1.368 . S
H2661 C2669 0.950 . S
H2662 C2667 0.950 . S
H2663 C2668 0.949 . S
H2664 C2670 0.950 . S
H2665 C2671 0.950 . S
H2666 C2672 0.949 . S
C2667 H2662 0.950 . S
C2667 C2669 1.327 . S
C2667 C2673 1.429 . S
C2668 C2660 1.574 . S
C2668 H2663 0.949 . S
C2668 C2674 1.368 . S
C2669 C2653 1.349 . S
C2669 H2661 0.950 . S
C2669 C2667 1.327 . S
C2670 C2658 1.349 . S
C2670 H2664 0.950 . S
C2670 C2671 1.327 . S
C2671 H2665 0.950 . S
C2671 C2670 1.327 . S
C2671 C2675 1.429 . S
C2672 C2655 1.574 . S
C2672 H2666 0.949 . S
C2672 C2676 1.368 . S
C2673 C2654 1.429 . S
C2673 C2667 1.429 . S
C2673 C2674 1.523 . S
C2674 C2655 1.368 . S
C2674 C2668 1.368 . S
C2674 C2673 1.523 . S
C2675 C2659 1.429 . S
C2675 C2671 1.429 . S
C2675 C2676 1.523 . S
C2676 C2660 1.368 . S
C2676 C2672 1.368 . S
C2676 C2675 1.523 . S
H2677 C2652 0.950 . S
H2678 C2654 0.950 . S
H2679 C2655 0.949 . S
H2680 C2657 0.949 . S
H2681 C2659 0.950 . S
C2682 C2683 1.349 . S
C2682 C2684 1.327 . S
C2682 H2707 0.950 . S
C2683 C2682 1.349 . S
C2683 C2699 1.349 . S
C2684 C2682 1.327 . S
C2684 C2703 1.429 . S
C2684 H2708 0.950 . S
C2685 C2702 1.574 . S
C2685 C2704 1.368 . S
C2685 H2709 0.949 . S
H2686 C2690 0.949 . S
C2687 C2688 1.349 . S
C2687 C2689 1.327 . S
C2687 H2710 0.950 . S
C2688 C2687 1.349 . S
C2688 C2700 1.349 . S
C2689 C2687 1.327 . S
C2689 C2705 1.429 . S
C2689 H2711 0.950 . S
C2690 H2686 0.949 . S
C2690 C2698 1.574 . S
C2690 C2706 1.368 . S
H2691 C2699 0.950 . S
H2692 C2697 0.950 . S
H2693 C2698 0.949 . S
H2694 C2700 0.950 . S
H2695 C2701 0.950 . S
H2696 C2702 0.949 . S
C2697 H2692 0.950 . S
C2697 C2699 1.327 . S
C2697 C2703 1.429 . S
C2698 C2690 1.574 . S
C2698 H2693 0.949 . S
C2698 C2704 1.368 . S
C2699 C2683 1.349 . S
C2699 H2691 0.950 . S
C2699 C2697 1.327 . S
C2700 C2688 1.349 . S
C2700 H2694 0.950 . S
C2700 C2701 1.327 . S
C2701 H2695 0.950 . S
C2701 C2700 1.327 . S
C2701 C2705 1.429 . S
C2702 C2685 1.574 . S
C2702 H2696 0.949 . S
C2702 C2706 1.368 . S
C2703 C2684 1.429 . S
C2703 C2697 1.429 . S
C2703 C2704 1.523 . S
C2704 C2685 1.368 . S
C2704 C2698 1.368 . S
C2704 C2703 1.523 . S
C2705 C2689 1.429 . S
C2705 C2701 1.429 . S
C2705 C2706 1.523 . S
C2706 C2690 1.368 . S
C2706 C2702 1.368 . S
C2706 C2705 1.523 . S
H2707 C2682 0.950 . S
H2708 C2684 0.950 . S
H2709 C2685 0.949 . S
H2710 C2687 0.950 . S
H2711 C2689 0.950 . S
C2712 C2713 1.349 . S
C2712 C2714 1.327 . S
C2712 H2737 0.950 . S
C2713 C2712 1.349 . S
C2713 C2729 1.349 . S
C2714 C2712 1.327 . S
C2714 C2733 1.429 . S
C2714 H2738 0.950 . S
C2715 C2732 1.574 . S
C2715 C2734 1.368 . S
C2715 H2739 0.949 . S
H2716 C2720 0.949 . S
C2717 C2718 1.349 . S
C2717 C2719 1.327 . S
C2717 H2740 0.950 . S
C2718 C2717 1.349 . S
C2718 C2730 1.349 . S
C2719 C2717 1.327 . S
C2719 C2735 1.429 . S
C2719 H2741 0.950 . S
C2720 H2716 0.949 . S
C2720 C2728 1.574 . S
C2720 C2736 1.368 . S
H2721 C2729 0.950 . S
H2722 C2727 0.950 . S
H2723 C2728 0.949 . S
H2724 C2730 0.950 . S
H2725 C2731 0.950 . S
H2726 C2732 0.949 . S
C2727 H2722 0.950 . S
C2727 C2729 1.327 . S
C2727 C2733 1.429 . S
C2728 C2720 1.574 . S
C2728 H2723 0.949 . S
C2728 C2734 1.368 . S
C2729 C2713 1.349 . S
C2729 H2721 0.950 . S
C2729 C2727 1.327 . S
C2730 C2718 1.349 . S
C2730 H2724 0.950 . S
C2730 C2731 1.327 . S
C2731 H2725 0.950 . S
C2731 C2730 1.327 . S
C2731 C2735 1.429 . S
C2732 C2715 1.574 . S
C2732 H2726 0.949 . S
C2732 C2736 1.368 . S
C2733 C2714 1.429 . S
C2733 C2727 1.429 . S
C2733 C2734 1.523 . S
C2734 C2715 1.368 . S
C2734 C2728 1.368 . S
C2734 C2733 1.523 . S
C2735 C2719 1.429 . S
C2735 C2731 1.429 . S
C2735 C2736 1.523 . S
C2736 C2720 1.368 . S
C2736 C2732 1.368 . S
C2736 C2735 1.523 . S
H2737 C2712 0.950 . S
H2738 C2714 0.950 . S
H2739 C2715 0.949 . S
H2740 C2717 0.950 . S
H2741 C2719 0.950 . S
C2742 C2743 1.349 . S
C2742 C2744 1.327 . S
C2742 H2767 0.950 . S
C2743 C2742 1.349 . S
C2743 C2759 1.349 . S
C2744 C2742 1.327 . S
C2744 C2763 1.429 . S
C2744 H2768 0.950 . S
C2745 C2762 1.574 . S
C2745 C2764 1.368 . S
C2745 H2769 0.949 . S
H2746 C2750 0.949 . S
C2747 C2748 1.349 . S
C2747 C2749 1.327 . S
C2747 H2770 0.950 . S
C2748 C2747 1.349 . S
C2748 C2760 1.349 . S
C2749 C2747 1.327 . S
C2749 C2765 1.429 . S
C2749 H2771 0.950 . S
C2750 H2746 0.949 . S
C2750 C2758 1.574 . S
C2750 C2766 1.368 . S
H2751 C2759 0.950 . S
H2752 C2757 0.950 . S
H2753 C2758 0.949 . S
H2754 C2760 0.950 . S
H2755 C2761 0.950 . S
H2756 C2762 0.949 . S
C2757 H2752 0.950 . S
C2757 C2759 1.327 . S
C2757 C2763 1.429 . S
C2758 C2750 1.574 . S
C2758 H2753 0.949 . S
C2758 C2764 1.368 . S
C2759 C2743 1.349 . S
C2759 H2751 0.950 . S
C2759 C2757 1.327 . S
C2760 C2748 1.349 . S
C2760 H2754 0.950 . S
C2760 C2761 1.327 . S
C2761 H2755 0.950 . S
C2761 C2760 1.327 . S
C2761 C2765 1.429 . S
C2762 C2745 1.574 . S
C2762 H2756 0.949 . S
C2762 C2766 1.368 . S
C2763 C2744 1.429 . S
C2763 C2757 1.429 . S
C2763 C2764 1.523 . S
C2764 C2745 1.368 . S
C2764 C2758 1.368 . S
C2764 C2763 1.523 . S
C2765 C2749 1.429 . S
C2765 C2761 1.429 . S
C2765 C2766 1.523 . S
C2766 C2750 1.368 . S
C2766 C2762 1.368 . S
C2766 C2765 1.523 . S
H2767 C2742 0.950 . S
H2768 C2744 0.950 . S
H2769 C2745 0.949 . S
H2770 C2747 0.950 . S
H2771 C2749 0.950 . S
C2772 C2773 1.349 . S
C2772 C2774 1.327 . S
C2772 H2797 0.951 1_565 S
C2773 C2772 1.349 . S
C2773 C2789 1.349 . S
C2774 C2772 1.327 . S
C2774 C2793 1.429 . S
C2774 H2798 0.950 . S
C2775 C2792 1.574 . S
C2775 C2794 1.368 . S
C2775 H2799 0.949 . S
H2776 C2780 0.949 . S
C2777 C2778 1.349 . S
C2777 C2779 1.327 . S
C2777 H2800 0.950 . S
C2778 C2777 1.349 . S
C2778 C2790 1.349 . S
C2779 C2777 1.327 . S
C2779 C2795 1.429 . S
C2779 H2801 0.950 . S
C2780 H2776 0.949 . S
C2780 C2788 1.574 . S
C2780 C2796 1.368 . S
H2781 C2789 0.950 . S
H2782 C2787 0.950 . S
H2783 C2788 0.949 . S
H2784 C2790 0.950 . S
H2785 C2791 0.950 . S
H2786 C2792 0.949 . S
C2787 H2782 0.950 . S
C2787 C2789 1.327 . S
C2787 C2793 1.429 . S
C2788 C2780 1.574 . S
C2788 H2783 0.949 . S
C2788 C2794 1.368 . S
C2789 C2773 1.349 . S
C2789 H2781 0.950 . S
C2789 C2787 1.327 . S
C2790 C2778 1.349 . S
C2790 H2784 0.950 . S
C2790 C2791 1.327 . S
C2791 H2785 0.950 . S
C2791 C2790 1.327 . S
C2791 C2795 1.429 . S
C2792 C2775 1.574 . S
C2792 H2786 0.949 . S
C2792 C2796 1.368 . S
C2793 C2774 1.429 . S
C2793 C2787 1.429 . S
C2793 C2794 1.523 . S
C2794 C2775 1.368 . S
C2794 C2788 1.368 . S
C2794 C2793 1.523 . S
C2795 C2779 1.429 . S
C2795 C2791 1.429 . S
C2795 C2796 1.523 . S
C2796 C2780 1.368 . S
C2796 C2792 1.368 . S
C2796 C2795 1.523 . S
H2797 C2772 0.951 1_545 S
H2798 C2774 0.950 . S
H2799 C2775 0.949 . S
H2800 C2777 0.950 . S
H2801 C2779 0.950 . S
C2802 C2803 1.349 . S
C2802 C2804 1.327 . S
C2802 H2827 0.950 . S
C2803 C2802 1.349 . S
C2803 C2819 1.349 . S
C2804 C2802 1.327 . S
C2804 C2823 1.429 . S
C2804 H2828 0.950 . S
C2805 C2822 1.574 . S
C2805 C2824 1.368 . S
C2805 H2829 0.949 . S
H2806 C2810 0.949 . S
C2807 C2808 1.349 . S
C2807 C2809 1.327 . S
C2807 H2830 0.950 . S
C2808 C2807 1.349 . S
C2808 C2820 1.349 . S
C2809 C2807 1.327 . S
C2809 C2825 1.429 . S
C2809 H2831 0.950 . S
C2810 H2806 0.949 . S
C2810 C2818 1.574 . S
C2810 C2826 1.368 . S
H2811 C2819 0.950 . S
H2812 C2817 0.950 . S
H2813 C2818 0.949 . S
H2814 C2820 0.950 1_565 S
H2815 C2821 0.950 . S
H2816 C2822 0.949 . S
C2817 H2812 0.950 . S
C2817 C2819 1.327 . S
C2817 C2823 1.429 . S
C2818 C2810 1.574 . S
C2818 H2813 0.949 . S
C2818 C2824 1.368 . S
C2819 C2803 1.349 . S
C2819 H2811 0.950 . S
C2819 C2817 1.327 . S
C2820 C2808 1.349 . S
C2820 H2814 0.950 1_545 S
C2820 C2821 1.327 . S
C2821 H2815 0.950 . S
C2821 C2820 1.327 . S
C2821 C2825 1.429 . S
C2822 C2805 1.574 . S
C2822 H2816 0.949 . S
C2822 C2826 1.368 . S
C2823 C2804 1.429 . S
C2823 C2817 1.429 . S
C2823 C2824 1.523 . S
C2824 C2805 1.368 . S
C2824 C2818 1.368 . S
C2824 C2823 1.523 . S
C2825 C2809 1.429 . S
C2825 C2821 1.429 . S
C2825 C2826 1.523 . S
C2826 C2810 1.368 . S
C2826 C2822 1.368 . S
C2826 C2825 1.523 . S
H2827 C2802 0.950 . S
H2828 C2804 0.950 . S
H2829 C2805 0.949 . S
H2830 C2807 0.950 . S
H2831 C2809 0.950 . S
C2832 C2833 1.349 . S
C2832 C2834 1.327 . S
C2832 H2857 0.950 . S
C2833 C2832 1.349 . S
C2833 C2849 1.349 . S
C2834 C2832 1.327 . S
C2834 C2853 1.429 . S
C2834 H2858 0.950 . S
C2835 C2852 1.574 . S
C2835 C2854 1.368 . S
C2835 H2859 0.949 . S
H2836 C2840 0.949 . S
C2837 C2838 1.349 . S
C2837 C2839 1.327 . S
C2837 H2860 0.950 . S
C2838 C2837 1.349 . S
C2838 C2850 1.349 . S
C2839 C2837 1.327 . S
C2839 C2855 1.429 . S
C2839 H2861 0.950 . S
C2840 H2836 0.949 . S
C2840 C2848 1.574 . S
C2840 C2856 1.368 . S
H2841 C2849 0.950 . S
H2842 C2847 0.950 . S
H2843 C2848 0.949 . S
H2844 C2850 0.950 . S
H2845 C2851 0.950 . S
H2846 C2852 0.949 . S
C2847 H2842 0.950 . S
C2847 C2849 1.327 . S
C2847 C2853 1.429 . S
C2848 C2840 1.574 . S
C2848 H2843 0.949 . S
C2848 C2854 1.368 . S
C2849 C2833 1.349 . S
C2849 H2841 0.950 . S
C2849 C2847 1.327 . S
C2850 C2838 1.349 . S
C2850 H2844 0.950 . S
C2850 C2851 1.327 . S
C2851 H2845 0.950 . S
C2851 C2850 1.327 . S
C2851 C2855 1.429 . S
C2852 C2835 1.574 . S
C2852 H2846 0.949 . S
C2852 C2856 1.368 . S
C2853 C2834 1.429 . S
C2853 C2847 1.429 . S
C2853 C2854 1.523 . S
C2854 C2835 1.368 . S
C2854 C2848 1.368 . S
C2854 C2853 1.523 . S
C2855 C2839 1.429 . S
C2855 C2851 1.429 . S
C2855 C2856 1.523 . S
C2856 C2840 1.368 . S
C2856 C2852 1.368 . S
C2856 C2855 1.523 . S
H2857 C2832 0.950 . S
H2858 C2834 0.950 . S
H2859 C2835 0.949 . S
H2860 C2837 0.950 . S
H2861 C2839 0.950 . S
C2862 C2863 1.349 . S
C2862 C2864 1.327 . S
C2862 H2887 0.950 . S
C2863 C2862 1.349 . S
C2863 C2879 1.349 . S
C2864 C2862 1.327 . S
C2864 C2883 1.429 . S
C2864 H2888 0.950 . S
C2865 C2882 1.574 . S
C2865 C2884 1.368 . S
C2865 H2889 0.949 . S
H2866 C2870 0.949 . S
C2867 C2868 1.349 . S
C2867 C2869 1.327 . S
C2867 H2890 0.950 . S
C2868 C2867 1.349 . S
C2868 C2880 1.349 . S
C2869 C2867 1.327 . S
C2869 C2885 1.429 . S
C2869 H2891 0.950 . S
C2870 H2866 0.949 . S
C2870 C2878 1.574 . S
C2870 C2886 1.368 . S
H2871 C2879 0.950 . S
H2872 C2877 0.950 . S
H2873 C2878 0.949 . S
H2874 C2880 0.950 . S
H2875 C2881 0.950 . S
H2876 C2882 0.949 . S
C2877 H2872 0.950 . S
C2877 C2879 1.327 . S
C2877 C2883 1.429 . S
C2878 C2870 1.574 . S
C2878 H2873 0.949 . S
C2878 C2884 1.368 . S
C2879 C2863 1.349 . S
C2879 H2871 0.950 . S
C2879 C2877 1.327 . S
C2880 C2868 1.349 . S
C2880 H2874 0.950 . S
C2880 C2881 1.327 . S
C2881 H2875 0.950 . S
C2881 C2880 1.327 . S
C2881 C2885 1.429 . S
C2882 C2865 1.574 . S
C2882 H2876 0.949 . S
C2882 C2886 1.368 . S
C2883 C2864 1.429 . S
C2883 C2877 1.429 . S
C2883 C2884 1.523 . S
C2884 C2865 1.368 . S
C2884 C2878 1.368 . S
C2884 C2883 1.523 . S
C2885 C2869 1.429 . S
C2885 C2881 1.429 . S
C2885 C2886 1.523 . S
C2886 C2870 1.368 . S
C2886 C2882 1.368 . S
C2886 C2885 1.523 . S
H2887 C2862 0.950 . S
H2888 C2864 0.950 . S
H2889 C2865 0.949 . S
H2890 C2867 0.950 . S
H2891 C2869 0.950 . S
C2892 C2893 1.349 . S
C2892 C2894 1.327 . S
C2892 H2917 0.950 . S
C2893 C2892 1.349 . S
C2893 C2909 1.349 . S
C2894 C2892 1.327 . S
C2894 C2913 1.429 . S
C2894 H2918 0.950 . S
C2895 C2912 1.574 . S
C2895 C2914 1.368 . S
C2895 H2919 0.949 . S
H2896 C2900 0.949 . S
C2897 C2898 1.349 . S
C2897 C2899 1.327 . S
C2897 H2920 0.950 . S
C2898 C2897 1.349 . S
C2898 C2910 1.349 . S
C2899 C2897 1.327 . S
C2899 C2915 1.429 . S
C2899 H2921 0.950 . S
C2900 H2896 0.949 . S
C2900 C2908 1.574 . S
C2900 C2916 1.368 . S
H2901 C2909 0.950 . S
H2902 C2907 0.950 . S
H2903 C2908 0.949 . S
H2904 C2910 0.950 . S
H2905 C2911 0.950 . S
H2906 C2912 0.949 . S
C2907 H2902 0.950 . S
C2907 C2909 1.327 . S
C2907 C2913 1.429 . S
C2908 C2900 1.574 . S
C2908 H2903 0.949 . S
C2908 C2914 1.368 . S
C2909 C2893 1.349 . S
C2909 H2901 0.950 . S
C2909 C2907 1.327 . S
C2910 C2898 1.349 . S
C2910 H2904 0.950 . S
C2910 C2911 1.327 . S
C2911 H2905 0.950 . S
C2911 C2910 1.327 . S
C2911 C2915 1.429 . S
C2912 C2895 1.574 . S
C2912 H2906 0.949 . S
C2912 C2916 1.368 . S
C2913 C2894 1.429 . S
C2913 C2907 1.429 . S
C2913 C2914 1.523 . S
C2914 C2895 1.368 . S
C2914 C2908 1.368 . S
C2914 C2913 1.523 . S
C2915 C2899 1.429 . S
C2915 C2911 1.429 . S
C2915 C2916 1.523 . S
C2916 C2900 1.368 . S
C2916 C2912 1.368 . S
C2916 C2915 1.523 . S
H2917 C2892 0.950 . S
H2918 C2894 0.950 . S
H2919 C2895 0.949 . S
H2920 C2897 0.950 . S
H2921 C2899 0.950 . S
C2922 C2923 1.349 . S
C2922 C2924 1.327 . S
C2922 H2947 0.950 . S
C2923 C2922 1.349 . S
C2923 C2939 1.349 . S
C2924 C2922 1.327 . S
C2924 C2943 1.429 . S
C2924 H2948 0.950 . S
C2925 C2942 1.574 . S
C2925 C2944 1.368 . S
C2925 H2949 0.949 . S
H2926 C2930 0.949 . S
C2927 C2928 1.349 . S
C2927 C2929 1.327 . S
C2927 H2950 0.950 . S
C2928 C2927 1.349 . S
C2928 C2940 1.349 . S
C2929 C2927 1.327 . S
C2929 C2945 1.429 . S
C2929 H2951 0.950 . S
C2930 H2926 0.949 . S
C2930 C2938 1.574 . S
C2930 C2946 1.368 . S
H2931 C2939 0.950 . S
H2932 C2937 0.950 . S
H2933 C2938 0.949 . S
H2934 C2940 0.950 . S
H2935 C2941 0.950 . S
H2936 C2942 0.949 . S
C2937 H2932 0.950 . S
C2937 C2939 1.327 . S
C2937 C2943 1.429 . S
C2938 C2930 1.574 . S
C2938 H2933 0.949 . S
C2938 C2944 1.368 . S
C2939 C2923 1.349 . S
C2939 H2931 0.950 . S
C2939 C2937 1.327 . S
C2940 C2928 1.349 . S
C2940 H2934 0.950 . S
C2940 C2941 1.327 . S
C2941 H2935 0.950 . S
C2941 C2940 1.327 . S
C2941 C2945 1.429 . S
C2942 C2925 1.574 . S
C2942 H2936 0.949 . S
C2942 C2946 1.368 . S
C2943 C2924 1.429 . S
C2943 C2937 1.429 . S
C2943 C2944 1.523 . S
C2944 C2925 1.368 . S
C2944 C2938 1.368 . S
C2944 C2943 1.523 . S
C2945 C2929 1.429 . S
C2945 C2941 1.429 . S
C2945 C2946 1.523 . S
C2946 C2930 1.368 . S
C2946 C2942 1.368 . S
C2946 C2945 1.523 . S
H2947 C2922 0.950 . S
H2948 C2924 0.950 . S
H2949 C2925 0.949 . S
H2950 C2927 0.950 . S
H2951 C2929 0.950 . S
C2952 C2953 1.349 . S
C2952 C2954 1.327 . S
C2952 H2977 0.950 . S
C2953 C2952 1.349 . S
C2953 C2969 1.349 . S
C2954 C2952 1.327 . S
C2954 C2973 1.429 . S
C2954 H2978 0.950 . S
C2955 C2972 1.574 . S
C2955 C2974 1.368 . S
C2955 H2979 0.949 . S
H2956 C2960 0.949 . S
C2957 C2958 1.349 . S
C2957 C2959 1.327 . S
C2957 H2980 0.950 . S
C2958 C2957 1.349 . S
C2958 C2970 1.349 . S
C2959 C2957 1.327 . S
C2959 C2975 1.429 . S
C2959 H2981 0.950 . S
C2960 H2956 0.949 . S
C2960 C2968 1.574 . S
C2960 C2976 1.368 . S
H2961 C2969 0.950 . S
H2962 C2967 0.950 . S
H2963 C2968 0.949 . S
H2964 C2970 0.950 . S
H2965 C2971 0.950 . S
H2966 C2972 0.949 . S
C2967 H2962 0.950 . S
C2967 C2969 1.327 . S
C2967 C2973 1.429 . S
C2968 C2960 1.574 . S
C2968 H2963 0.949 . S
C2968 C2974 1.368 . S
C2969 C2953 1.349 . S
C2969 H2961 0.950 . S
C2969 C2967 1.327 . S
C2970 C2958 1.349 . S
C2970 H2964 0.950 . S
C2970 C2971 1.327 . S
C2971 H2965 0.950 . S
C2971 C2970 1.327 . S
C2971 C2975 1.429 . S
C2972 C2955 1.574 . S
C2972 H2966 0.949 . S
C2972 C2976 1.368 . S
C2973 C2954 1.429 . S
C2973 C2967 1.429 . S
C2973 C2974 1.523 . S
C2974 C2955 1.368 . S
C2974 C2968 1.368 . S
C2974 C2973 1.523 . S
C2975 C2959 1.429 . S
C2975 C2971 1.429 . S
C2975 C2976 1.523 . S
C2976 C2960 1.368 . S
C2976 C2972 1.368 . S
C2976 C2975 1.523 . S
H2977 C2952 0.950 . S
H2978 C2954 0.950 . S
H2979 C2955 0.949 . S
H2980 C2957 0.950 . S
H2981 C2959 0.950 . S
C2982 C2983 1.349 . S
C2982 C2984 1.327 . S
C2982 H3007 0.950 . S
C2983 C2982 1.349 . S
C2983 C2999 1.349 . S
C2984 C2982 1.327 . S
C2984 C3003 1.429 . S
C2984 H3008 0.950 . S
C2985 C3002 1.574 . S
C2985 C3004 1.368 . S
C2985 H3009 0.949 . S
H2986 C2990 0.949 . S
C2987 C2988 1.349 . S
C2987 C2989 1.327 . S
C2987 H3010 0.950 . S
C2988 C2987 1.349 . S
C2988 C3000 1.349 . S
C2989 C2987 1.327 . S
C2989 C3005 1.429 . S
C2989 H3011 0.950 . S
C2990 H2986 0.949 . S
C2990 C2998 1.574 . S
C2990 C3006 1.368 . S
H2991 C2999 0.950 . S
H2992 C2997 0.950 . S
H2993 C2998 0.949 . S
H2994 C3000 0.950 . S
H2995 C3001 0.950 . S
H2996 C3002 0.949 . S
C2997 H2992 0.950 . S
C2997 C2999 1.327 . S
C2997 C3003 1.429 . S
C2998 C2990 1.574 . S
C2998 H2993 0.949 . S
C2998 C3004 1.368 . S
C2999 C2983 1.349 . S
C2999 H2991 0.950 . S
C2999 C2997 1.327 . S
C3000 C2988 1.349 . S
C3000 H2994 0.950 . S
C3000 C3001 1.327 . S
C3001 H2995 0.950 . S
C3001 C3000 1.327 . S
C3001 C3005 1.429 . S
C3002 C2985 1.574 . S
C3002 H2996 0.949 . S
C3002 C3006 1.368 . S
C3003 C2984 1.429 . S
C3003 C2997 1.429 . S
C3003 C3004 1.523 . S
C3004 C2985 1.368 . S
C3004 C2998 1.368 . S
C3004 C3003 1.523 . S
C3005 C2989 1.429 . S
C3005 C3001 1.429 . S
C3005 C3006 1.523 . S
C3006 C2990 1.368 . S
C3006 C3002 1.368 . S
C3006 C3005 1.523 . S
H3007 C2982 0.950 . S
H3008 C2984 0.950 . S
H3009 C2985 0.949 . S
H3010 C2987 0.950 . S
H3011 C2989 0.950 . S
C3012 C3013 1.349 . S
C3012 C3014 1.327 . S
C3012 H3037 0.950 . S
C3013 C3012 1.349 . S
C3013 C3029 1.349 . S
C3014 C3012 1.327 . S
C3014 C3033 1.429 . S
C3014 H3038 0.950 . S
C3015 C3032 1.574 . S
C3015 C3034 1.368 . S
C3015 H3039 0.949 . S
H3016 C3020 0.949 . S
C3017 C3018 1.349 . S
C3017 C3019 1.327 . S
C3017 H3040 0.950 . S
C3018 C3017 1.349 . S
C3018 C3030 1.349 . S
C3019 C3017 1.327 . S
C3019 C3035 1.429 . S
C3019 H3041 0.950 . S
C3020 H3016 0.949 . S
C3020 C3028 1.574 . S
C3020 C3036 1.368 . S
H3021 C3029 0.950 . S
H3022 C3027 0.950 . S
H3023 C3028 0.949 . S
H3024 C3030 0.950 . S
H3025 C3031 0.950 . S
H3026 C3032 0.949 . S
C3027 H3022 0.950 . S
C3027 C3029 1.327 . S
C3027 C3033 1.429 . S
C3028 C3020 1.574 . S
C3028 H3023 0.949 . S
C3028 C3034 1.368 . S
C3029 C3013 1.349 . S
C3029 H3021 0.950 . S
C3029 C3027 1.327 . S
C3030 C3018 1.349 . S
C3030 H3024 0.950 . S
C3030 C3031 1.327 . S
C3031 H3025 0.950 . S
C3031 C3030 1.327 . S
C3031 C3035 1.429 . S
C3032 C3015 1.574 . S
C3032 H3026 0.949 . S
C3032 C3036 1.368 . S
C3033 C3014 1.429 . S
C3033 C3027 1.429 . S
C3033 C3034 1.523 . S
C3034 C3015 1.368 . S
C3034 C3028 1.368 . S
C3034 C3033 1.523 . S
C3035 C3019 1.429 . S
C3035 C3031 1.429 . S
C3035 C3036 1.523 . S
C3036 C3020 1.368 . S
C3036 C3032 1.368 . S
C3036 C3035 1.523 . S
H3037 C3012 0.950 . S
H3038 C3014 0.950 . S
H3039 C3015 0.949 . S
H3040 C3017 0.950 . S
H3041 C3019 0.950 . S
C3042 C3043 1.349 . S
C3042 C3044 1.327 . S
C3042 H3067 0.950 . S
C3043 C3042 1.349 . S
C3043 C3059 1.349 . S
C3044 C3042 1.327 . S
C3044 C3063 1.429 . S
C3044 H3068 0.950 . S
C3045 C3062 1.574 . S
C3045 C3064 1.368 . S
C3045 H3069 0.949 . S
H3046 C3050 0.949 . S
C3047 C3048 1.349 . S
C3047 C3049 1.327 . S
C3047 H3070 0.950 . S
C3048 C3047 1.349 . S
C3048 C3060 1.349 . S
C3049 C3047 1.327 . S
C3049 C3065 1.429 . S
C3049 H3071 0.950 . S
C3050 H3046 0.949 . S
C3050 C3058 1.574 . S
C3050 C3066 1.368 . S
H3051 C3059 0.950 . S
H3052 C3057 0.950 . S
H3053 C3058 0.949 . S
H3054 C3060 0.950 . S
H3055 C3061 0.950 . S
H3056 C3062 0.949 . S
C3057 H3052 0.950 . S
C3057 C3059 1.327 . S
C3057 C3063 1.429 . S
C3058 C3050 1.574 . S
C3058 H3053 0.949 . S
C3058 C3064 1.368 . S
C3059 C3043 1.349 . S
C3059 H3051 0.950 . S
C3059 C3057 1.327 . S
C3060 C3048 1.349 . S
C3060 H3054 0.950 . S
C3060 C3061 1.327 . S
C3061 H3055 0.950 . S
C3061 C3060 1.327 . S
C3061 C3065 1.429 . S
C3062 C3045 1.574 . S
C3062 H3056 0.949 . S
C3062 C3066 1.368 . S
C3063 C3044 1.429 . S
C3063 C3057 1.429 . S
C3063 C3064 1.523 . S
C3064 C3045 1.368 . S
C3064 C3058 1.368 . S
C3064 C3063 1.523 . S
C3065 C3049 1.429 . S
C3065 C3061 1.429 . S
C3065 C3066 1.523 . S
C3066 C3050 1.368 . S
C3066 C3062 1.368 . S
C3066 C3065 1.523 . S
H3067 C3042 0.950 . S
H3068 C3044 0.950 . S
H3069 C3045 0.949 . S
H3070 C3047 0.950 . S
H3071 C3049 0.950 . S
C3072 C3073 1.349 . S
C3072 C3074 1.327 . S
C3072 H3097 0.950 . S
C3073 C3072 1.349 . S
C3073 C3089 1.349 . S
C3074 C3072 1.327 . S
C3074 C3093 1.429 . S
C3074 H3098 0.950 . S
C3075 C3092 1.574 . S
C3075 C3094 1.368 . S
C3075 H3099 0.949 . S
H3076 C3080 0.949 . S
C3077 C3078 1.349 . S
C3077 C3079 1.327 . S
C3077 H3100 0.950 . S
C3078 C3077 1.349 . S
C3078 C3090 1.349 . S
C3079 C3077 1.327 . S
C3079 C3095 1.429 . S
C3079 H3101 0.950 . S
C3080 H3076 0.949 . S
C3080 C3088 1.574 . S
C3080 C3096 1.368 . S
H3081 C3089 0.950 . S
H3082 C3087 0.950 . S
H3083 C3088 0.949 . S
H3084 C3090 0.950 . S
H3085 C3091 0.950 . S
H3086 C3092 0.949 . S
C3087 H3082 0.950 . S
C3087 C3089 1.327 . S
C3087 C3093 1.429 . S
C3088 C3080 1.574 . S
C3088 H3083 0.949 . S
C3088 C3094 1.368 . S
C3089 C3073 1.349 . S
C3089 H3081 0.950 . S
C3089 C3087 1.327 . S
C3090 C3078 1.349 . S
C3090 H3084 0.950 . S
C3090 C3091 1.327 . S
C3091 H3085 0.950 . S
C3091 C3090 1.327 . S
C3091 C3095 1.429 . S
C3092 C3075 1.574 . S
C3092 H3086 0.949 . S
C3092 C3096 1.368 . S
C3093 C3074 1.429 . S
C3093 C3087 1.429 . S
C3093 C3094 1.523 . S
C3094 C3075 1.368 . S
C3094 C3088 1.368 . S
C3094 C3093 1.523 . S
C3095 C3079 1.429 . S
C3095 C3091 1.429 . S
C3095 C3096 1.523 . S
C3096 C3080 1.368 . S
C3096 C3092 1.368 . S
C3096 C3095 1.523 . S
H3097 C3072 0.950 . S
H3098 C3074 0.950 . S
H3099 C3075 0.949 . S
H3100 C3077 0.950 . S
H3101 C3079 0.950 . S
C3102 C3103 1.349 . S
C3102 C3104 1.327 . S
C3102 H3127 0.950 . S
C3103 C3102 1.349 . S
C3103 C3119 1.349 . S
C3104 C3102 1.327 . S
C3104 C3123 1.429 . S
C3104 H3128 0.950 . S
C3105 C3122 1.574 . S
C3105 C3124 1.368 . S
C3105 H3129 0.949 . S
H3106 C3110 0.949 . S
C3107 C3108 1.349 . S
C3107 C3109 1.327 . S
C3107 H3130 0.950 . S
C3108 C3107 1.349 . S
C3108 C3120 1.349 . S
C3109 C3107 1.327 . S
C3109 C3125 1.429 . S
C3109 H3131 0.950 . S
C3110 H3106 0.949 . S
C3110 C3118 1.574 . S
C3110 C3126 1.368 . S
H3111 C3119 0.950 . S
H3112 C3117 0.950 . S
H3113 C3118 0.949 . S
H3114 C3120 0.950 . S
H3115 C3121 0.950 . S
H3116 C3122 0.949 . S
C3117 H3112 0.950 . S
C3117 C3119 1.327 . S
C3117 C3123 1.429 . S
C3118 C3110 1.574 . S
C3118 H3113 0.949 . S
C3118 C3124 1.368 . S
C3119 C3103 1.349 . S
C3119 H3111 0.950 . S
C3119 C3117 1.327 . S
C3120 C3108 1.349 . S
C3120 H3114 0.950 . S
C3120 C3121 1.327 . S
C3121 H3115 0.950 . S
C3121 C3120 1.327 . S
C3121 C3125 1.429 . S
C3122 C3105 1.574 . S
C3122 H3116 0.949 . S
C3122 C3126 1.368 . S
C3123 C3104 1.429 . S
C3123 C3117 1.429 . S
C3123 C3124 1.523 . S
C3124 C3105 1.368 . S
C3124 C3118 1.368 . S
C3124 C3123 1.523 . S
C3125 C3109 1.429 . S
C3125 C3121 1.429 . S
C3125 C3126 1.523 . S
C3126 C3110 1.368 . S
C3126 C3122 1.368 . S
C3126 C3125 1.523 . S
H3127 C3102 0.950 . S
H3128 C3104 0.950 . S
H3129 C3105 0.949 . S
H3130 C3107 0.950 . S
H3131 C3109 0.950 . S
C3132 C3133 1.349 . S
C3132 C3134 1.327 . S
C3132 H3157 0.950 . S
C3133 C3132 1.349 . S
C3133 C3149 1.349 . S
C3134 C3132 1.327 . S
C3134 C3153 1.429 . S
C3134 H3158 0.950 . S
C3135 C3152 1.574 . S
C3135 C3154 1.368 . S
C3135 H3159 0.949 . S
H3136 C3140 0.949 . S
C3137 C3138 1.349 . S
C3137 C3139 1.327 . S
C3137 H3160 0.950 . S
C3138 C3137 1.349 . S
C3138 C3150 1.349 . S
C3139 C3137 1.327 . S
C3139 C3155 1.429 . S
C3139 H3161 0.950 . S
C3140 H3136 0.949 . S
C3140 C3148 1.574 . S
C3140 C3156 1.368 . S
H3141 C3149 0.950 . S
H3142 C3147 0.950 . S
H3143 C3148 0.949 . S
H3144 C3150 0.950 . S
H3145 C3151 0.950 . S
H3146 C3152 0.949 . S
C3147 H3142 0.950 . S
C3147 C3149 1.327 . S
C3147 C3153 1.429 . S
C3148 C3140 1.574 . S
C3148 H3143 0.949 . S
C3148 C3154 1.368 . S
C3149 C3133 1.349 . S
C3149 H3141 0.950 . S
C3149 C3147 1.327 . S
C3150 C3138 1.349 . S
C3150 H3144 0.950 . S
C3150 C3151 1.327 . S
C3151 H3145 0.950 . S
C3151 C3150 1.327 . S
C3151 C3155 1.429 . S
C3152 C3135 1.574 . S
C3152 H3146 0.949 . S
C3152 C3156 1.368 . S
C3153 C3134 1.429 . S
C3153 C3147 1.429 . S
C3153 C3154 1.523 . S
C3154 C3135 1.368 . S
C3154 C3148 1.368 . S
C3154 C3153 1.523 . S
C3155 C3139 1.429 . S
C3155 C3151 1.429 . S
C3155 C3156 1.523 . S
C3156 C3140 1.368 . S
C3156 C3152 1.368 . S
C3156 C3155 1.523 . S
H3157 C3132 0.950 . S
H3158 C3134 0.950 . S
H3159 C3135 0.949 . S
H3160 C3137 0.950 . S
H3161 C3139 0.950 . S
C3162 C3163 1.349 . S
C3162 C3164 1.327 . S
C3162 H3187 0.950 . S
C3163 C3162 1.349 . S
C3163 C3179 1.349 . S
C3164 C3162 1.327 . S
C3164 C3183 1.429 . S
C3164 H3188 0.950 . S
C3165 C3182 1.574 . S
C3165 C3184 1.368 . S
C3165 H3189 0.949 . S
H3166 C3170 0.949 . S
C3167 C3168 1.349 . S
C3167 C3169 1.327 . S
C3167 H3190 0.950 . S
C3168 C3167 1.349 . S
C3168 C3180 1.349 . S
C3169 C3167 1.327 . S
C3169 C3185 1.429 . S
C3169 H3191 0.950 . S
C3170 H3166 0.949 . S
C3170 C3178 1.574 . S
C3170 C3186 1.368 . S
H3171 C3179 0.950 . S
H3172 C3177 0.950 . S
H3173 C3178 0.949 . S
H3174 C3180 0.950 . S
H3175 C3181 0.950 . S
H3176 C3182 0.949 . S
C3177 H3172 0.950 . S
C3177 C3179 1.327 . S
C3177 C3183 1.429 . S
C3178 C3170 1.574 . S
C3178 H3173 0.949 . S
C3178 C3184 1.368 . S
C3179 C3163 1.349 . S
C3179 H3171 0.950 . S
C3179 C3177 1.327 . S
C3180 C3168 1.349 . S
C3180 H3174 0.950 . S
C3180 C3181 1.327 . S
C3181 H3175 0.950 . S
C3181 C3180 1.327 . S
C3181 C3185 1.429 . S
C3182 C3165 1.574 . S
C3182 H3176 0.949 . S
C3182 C3186 1.368 . S
C3183 C3164 1.429 . S
C3183 C3177 1.429 . S
C3183 C3184 1.523 . S
C3184 C3165 1.368 . S
C3184 C3178 1.368 . S
C3184 C3183 1.523 . S
C3185 C3169 1.429 . S
C3185 C3181 1.429 . S
C3185 C3186 1.523 . S
C3186 C3170 1.368 . S
C3186 C3182 1.368 . S
C3186 C3185 1.523 . S
H3187 C3162 0.950 . S
H3188 C3164 0.950 . S
H3189 C3165 0.949 . S
H3190 C3167 0.950 . S
H3191 C3169 0.950 . S
C3192 C3193 1.349 . S
C3192 C3194 1.327 . S
C3192 H3217 0.950 . S
C3193 C3192 1.349 . S
C3193 C3209 1.349 . S
C3194 C3192 1.327 . S
C3194 C3213 1.429 . S
C3194 H3218 0.950 . S
C3195 C3212 1.574 . S
C3195 C3214 1.368 . S
C3195 H3219 0.949 . S
H3196 C3200 0.949 . S
C3197 C3198 1.349 . S
C3197 C3199 1.327 . S
C3197 H3220 0.950 . S
C3198 C3197 1.349 . S
C3198 C3210 1.349 . S
C3199 C3197 1.327 . S
C3199 C3215 1.429 . S
C3199 H3221 0.950 . S
C3200 H3196 0.949 . S
C3200 C3208 1.574 . S
C3200 C3216 1.368 . S
H3201 C3209 0.950 . S
H3202 C3207 0.950 . S
H3203 C3208 0.949 . S
H3204 C3210 0.950 . S
H3205 C3211 0.950 . S
H3206 C3212 0.949 . S
C3207 H3202 0.950 . S
C3207 C3209 1.327 . S
C3207 C3213 1.429 . S
C3208 C3200 1.574 . S
C3208 H3203 0.949 . S
C3208 C3214 1.368 . S
C3209 C3193 1.349 . S
C3209 H3201 0.950 . S
C3209 C3207 1.327 . S
C3210 C3198 1.349 . S
C3210 H3204 0.950 . S
C3210 C3211 1.327 . S
C3211 H3205 0.950 . S
C3211 C3210 1.327 . S
C3211 C3215 1.429 . S
C3212 C3195 1.574 . S
C3212 H3206 0.949 . S
C3212 C3216 1.368 . S
C3213 C3194 1.429 . S
C3213 C3207 1.429 . S
C3213 C3214 1.523 . S
C3214 C3195 1.368 . S
C3214 C3208 1.368 . S
C3214 C3213 1.523 . S
C3215 C3199 1.429 . S
C3215 C3211 1.429 . S
C3215 C3216 1.523 . S
C3216 C3200 1.368 . S
C3216 C3212 1.368 . S
C3216 C3215 1.523 . S
H3217 C3192 0.950 . S
H3218 C3194 0.950 . S
H3219 C3195 0.949 . S
H3220 C3197 0.950 . S
H3221 C3199 0.950 . S
C3222 C3223 1.349 . S
C3222 C3224 1.327 . S
C3222 H3247 0.950 . S
C3223 C3222 1.349 . S
C3223 C3239 1.349 . S
C3224 C3222 1.327 . S
C3224 C3243 1.429 . S
C3224 H3248 0.950 . S
C3225 C3242 1.574 . S
C3225 C3244 1.368 . S
C3225 H3249 0.949 . S
H3226 C3230 0.949 . S
C3227 C3228 1.349 . S
C3227 C3229 1.327 . S
C3227 H3250 0.950 . S
C3228 C3227 1.349 . S
C3228 C3240 1.349 . S
C3229 C3227 1.327 . S
C3229 C3245 1.429 . S
C3229 H3251 0.950 . S
C3230 H3226 0.949 . S
C3230 C3238 1.574 . S
C3230 C3246 1.368 . S
H3231 C3239 0.950 . S
H3232 C3237 0.950 . S
H3233 C3238 0.949 . S
H3234 C3240 0.950 . S
H3235 C3241 0.950 . S
H3236 C3242 0.949 . S
C3237 H3232 0.950 . S
C3237 C3239 1.327 . S
C3237 C3243 1.429 . S
C3238 C3230 1.574 . S
C3238 H3233 0.949 . S
C3238 C3244 1.368 . S
C3239 C3223 1.349 . S
C3239 H3231 0.950 . S
C3239 C3237 1.327 . S
C3240 C3228 1.349 . S
C3240 H3234 0.950 . S
C3240 C3241 1.327 . S
C3241 H3235 0.950 . S
C3241 C3240 1.327 . S
C3241 C3245 1.429 . S
C3242 C3225 1.574 . S
C3242 H3236 0.949 . S
C3242 C3246 1.368 . S
C3243 C3224 1.429 . S
C3243 C3237 1.429 . S
C3243 C3244 1.523 . S
C3244 C3225 1.368 . S
C3244 C3238 1.368 . S
C3244 C3243 1.523 . S
C3245 C3229 1.429 . S
C3245 C3241 1.429 . S
C3245 C3246 1.523 . S
C3246 C3230 1.368 . S
C3246 C3242 1.368 . S
C3246 C3245 1.523 . S
H3247 C3222 0.950 . S
H3248 C3224 0.950 . S
H3249 C3225 0.949 . S
H3250 C3227 0.950 . S
H3251 C3229 0.950 . S
C3252 C3253 1.349 . S
C3252 C3254 1.327 . S
C3252 H3277 0.950 . S
C3253 C3252 1.349 . S
C3253 C3269 1.349 . S
C3254 C3252 1.327 . S
C3254 C3273 1.429 . S
C3254 H3278 0.950 . S
C3255 C3272 1.574 . S
C3255 C3274 1.368 . S
C3255 H3279 0.949 . S
H3256 C3260 0.949 . S
C3257 C3258 1.349 . S
C3257 C3259 1.327 . S
C3257 H3280 0.950 . S
C3258 C3257 1.349 . S
C3258 C3270 1.349 . S
C3259 C3257 1.327 . S
C3259 C3275 1.429 . S
C3259 H3281 0.950 . S
C3260 H3256 0.949 . S
C3260 C3268 1.574 . S
C3260 C3276 1.368 . S
H3261 C3269 0.950 . S
H3262 C3267 0.950 . S
H3263 C3268 0.949 . S
H3264 C3270 0.950 . S
H3265 C3271 0.950 . S
H3266 C3272 0.949 . S
C3267 H3262 0.950 . S
C3267 C3269 1.327 . S
C3267 C3273 1.429 . S
C3268 C3260 1.574 . S
C3268 H3263 0.949 . S
C3268 C3274 1.368 . S
C3269 C3253 1.349 . S
C3269 H3261 0.950 . S
C3269 C3267 1.327 . S
C3270 C3258 1.349 . S
C3270 H3264 0.950 . S
C3270 C3271 1.327 . S
C3271 H3265 0.950 . S
C3271 C3270 1.327 . S
C3271 C3275 1.429 . S
C3272 C3255 1.574 . S
C3272 H3266 0.949 . S
C3272 C3276 1.368 . S
C3273 C3254 1.429 . S
C3273 C3267 1.429 . S
C3273 C3274 1.523 . S
C3274 C3255 1.368 . S
C3274 C3268 1.368 . S
C3274 C3273 1.523 . S
C3275 C3259 1.429 . S
C3275 C3271 1.429 . S
C3275 C3276 1.523 . S
C3276 C3260 1.368 . S
C3276 C3272 1.368 . S
C3276 C3275 1.523 . S
H3277 C3252 0.950 . S
H3278 C3254 0.950 . S
H3279 C3255 0.949 . S
H3280 C3257 0.950 . S
H3281 C3259 0.950 . S
C3282 C3283 1.349 . S
C3282 C3284 1.327 . S
C3282 H3307 0.950 . S
C3283 C3282 1.349 . S
C3283 C3299 1.349 . S
C3284 C3282 1.327 . S
C3284 C3303 1.429 . S
C3284 H3308 0.950 . S
C3285 C3302 1.574 . S
C3285 C3304 1.368 . S
C3285 H3309 0.949 . S
H3286 C3290 0.949 . S
C3287 C3288 1.349 . S
C3287 C3289 1.327 . S
C3287 H3310 0.950 . S
C3288 C3287 1.349 . S
C3288 C3300 1.349 . S
C3289 C3287 1.327 . S
C3289 C3305 1.429 . S
C3289 H3311 0.950 . S
C3290 H3286 0.949 . S
C3290 C3298 1.574 . S
C3290 C3306 1.368 . S
H3291 C3299 0.950 . S
H3292 C3297 0.950 . S
H3293 C3298 0.949 . S
H3294 C3300 0.950 . S
H3295 C3301 0.950 . S
H3296 C3302 0.949 . S
C3297 H3292 0.950 . S
C3297 C3299 1.327 . S
C3297 C3303 1.429 . S
C3298 C3290 1.574 . S
C3298 H3293 0.949 . S
C3298 C3304 1.368 . S
C3299 C3283 1.349 . S
C3299 H3291 0.950 . S
C3299 C3297 1.327 . S
C3300 C3288 1.349 . S
C3300 H3294 0.950 . S
C3300 C3301 1.327 . S
C3301 H3295 0.950 . S
C3301 C3300 1.327 . S
C3301 C3305 1.429 . S
C3302 C3285 1.574 . S
C3302 H3296 0.949 . S
C3302 C3306 1.368 . S
C3303 C3284 1.429 . S
C3303 C3297 1.429 . S
C3303 C3304 1.523 . S
C3304 C3285 1.368 . S
C3304 C3298 1.368 . S
C3304 C3303 1.523 . S
C3305 C3289 1.429 . S
C3305 C3301 1.429 . S
C3305 C3306 1.523 . S
C3306 C3290 1.368 . S
C3306 C3302 1.368 . S
C3306 C3305 1.523 . S
H3307 C3282 0.950 . S
H3308 C3284 0.950 . S
H3309 C3285 0.949 . S
H3310 C3287 0.950 . S
H3311 C3289 0.950 . S
C3312 C3313 1.349 . S
C3312 C3314 1.327 . S
C3312 H3337 0.950 . S
C3313 C3312 1.349 . S
C3313 C3329 1.349 . S
C3314 C3312 1.327 . S
C3314 C3333 1.429 . S
C3314 H3338 0.950 . S
C3315 C3332 1.574 . S
C3315 C3334 1.368 . S
C3315 H3339 0.949 . S
H3316 C3320 0.949 . S
C3317 C3318 1.349 . S
C3317 C3319 1.327 . S
C3317 H3340 0.950 . S
C3318 C3317 1.349 . S
C3318 C3330 1.349 . S
C3319 C3317 1.327 . S
C3319 C3335 1.429 . S
C3319 H3341 0.950 . S
C3320 H3316 0.949 . S
C3320 C3328 1.574 . S
C3320 C3336 1.368 . S
H3321 C3329 0.950 . S
H3322 C3327 0.950 . S
H3323 C3328 0.949 . S
H3324 C3330 0.950 . S
H3325 C3331 0.950 . S
H3326 C3332 0.949 . S
C3327 H3322 0.950 . S
C3327 C3329 1.327 . S
C3327 C3333 1.429 . S
C3328 C3320 1.574 . S
C3328 H3323 0.949 . S
C3328 C3334 1.368 . S
C3329 C3313 1.349 . S
C3329 H3321 0.950 . S
C3329 C3327 1.327 . S
C3330 C3318 1.349 . S
C3330 H3324 0.950 . S
C3330 C3331 1.327 . S
C3331 H3325 0.950 . S
C3331 C3330 1.327 . S
C3331 C3335 1.429 . S
C3332 C3315 1.574 . S
C3332 H3326 0.949 . S
C3332 C3336 1.368 . S
C3333 C3314 1.429 . S
C3333 C3327 1.429 . S
C3333 C3334 1.523 . S
C3334 C3315 1.368 . S
C3334 C3328 1.368 . S
C3334 C3333 1.523 . S
C3335 C3319 1.429 . S
C3335 C3331 1.429 . S
C3335 C3336 1.523 . S
C3336 C3320 1.368 . S
C3336 C3332 1.368 . S
C3336 C3335 1.523 . S
H3337 C3312 0.950 . S
H3338 C3314 0.950 . S
H3339 C3315 0.949 . S
H3340 C3317 0.950 . S
H3341 C3319 0.950 . S
C3342 C3343 1.349 . S
C3342 C3344 1.327 . S
C3342 H3367 0.950 . S
C3343 C3342 1.349 . S
C3343 C3359 1.349 . S
C3344 C3342 1.327 . S
C3344 C3363 1.429 . S
C3344 H3368 0.950 . S
C3345 C3362 1.574 . S
C3345 C3364 1.368 . S
C3345 H3369 0.949 . S
H3346 C3350 0.949 . S
C3347 C3348 1.349 . S
C3347 C3349 1.327 . S
C3347 H3370 0.950 . S
C3348 C3347 1.349 . S
C3348 C3360 1.349 . S
C3349 C3347 1.327 . S
C3349 C3365 1.429 . S
C3349 H3371 0.950 . S
C3350 H3346 0.949 . S
C3350 C3358 1.574 . S
C3350 C3366 1.368 . S
H3351 C3359 0.950 . S
H3352 C3357 0.950 . S
H3353 C3358 0.949 . S
H3354 C3360 0.950 . S
H3355 C3361 0.950 . S
H3356 C3362 0.949 . S
C3357 H3352 0.950 . S
C3357 C3359 1.327 . S
C3357 C3363 1.429 . S
C3358 C3350 1.574 . S
C3358 H3353 0.949 . S
C3358 C3364 1.368 . S
C3359 C3343 1.349 . S
C3359 H3351 0.950 . S
C3359 C3357 1.327 . S
C3360 C3348 1.349 . S
C3360 H3354 0.950 . S
C3360 C3361 1.327 . S
C3361 H3355 0.950 . S
C3361 C3360 1.327 . S
C3361 C3365 1.429 . S
C3362 C3345 1.574 . S
C3362 H3356 0.949 . S
C3362 C3366 1.368 . S
C3363 C3344 1.429 . S
C3363 C3357 1.429 . S
C3363 C3364 1.523 . S
C3364 C3345 1.368 . S
C3364 C3358 1.368 . S
C3364 C3363 1.523 . S
C3365 C3349 1.429 . S
C3365 C3361 1.429 . S
C3365 C3366 1.523 . S
C3366 C3350 1.368 . S
C3366 C3362 1.368 . S
C3366 C3365 1.523 . S
H3367 C3342 0.950 . S
H3368 C3344 0.950 . S
H3369 C3345 0.949 . S
H3370 C3347 0.950 . S
H3371 C3349 0.950 . S
C3372 C3373 1.349 . S
C3372 C3374 1.327 . S
C3372 H3397 0.950 . S
C3373 C3372 1.349 . S
C3373 C3389 1.349 . S
C3374 C3372 1.327 . S
C3374 C3393 1.429 . S
C3374 H3398 0.950 . S
C3375 C3392 1.574 . S
C3375 C3394 1.368 . S
C3375 H3399 0.949 . S
H3376 C3380 0.949 . S
C3377 C3378 1.349 . S
C3377 C3379 1.327 . S
C3377 H3400 0.950 . S
C3378 C3377 1.349 . S
C3378 C3390 1.349 . S
C3379 C3377 1.327 . S
C3379 C3395 1.429 . S
C3379 H3401 0.950 . S
C3380 H3376 0.949 . S
C3380 C3388 1.574 . S
C3380 C3396 1.368 . S
H3381 C3389 0.950 . S
H3382 C3387 0.950 . S
H3383 C3388 0.949 . S
H3384 C3390 0.950 . S
H3385 C3391 0.950 . S
H3386 C3392 0.949 . S
C3387 H3382 0.950 . S
C3387 C3389 1.327 . S
C3387 C3393 1.429 . S
C3388 C3380 1.574 . S
C3388 H3383 0.949 . S
C3388 C3394 1.368 . S
C3389 C3373 1.349 . S
C3389 H3381 0.950 . S
C3389 C3387 1.327 . S
C3390 C3378 1.349 . S
C3390 H3384 0.950 . S
C3390 C3391 1.327 . S
C3391 H3385 0.950 . S
C3391 C3390 1.327 . S
C3391 C3395 1.429 . S
C3392 C3375 1.574 . S
C3392 H3386 0.949 . S
C3392 C3396 1.368 . S
C3393 C3374 1.429 . S
C3393 C3387 1.429 . S
C3393 C3394 1.523 . S
C3394 C3375 1.368 . S
C3394 C3388 1.368 . S
C3394 C3393 1.523 . S
C3395 C3379 1.429 . S
C3395 C3391 1.429 . S
C3395 C3396 1.523 . S
C3396 C3380 1.368 . S
C3396 C3392 1.368 . S
C3396 C3395 1.523 . S
H3397 C3372 0.950 . S
H3398 C3374 0.950 . S
H3399 C3375 0.949 . S
H3400 C3377 0.950 . S
H3401 C3379 0.950 . S
C3402 C3403 1.349 . S
C3402 C3404 1.327 . S
C3402 H3427 0.950 . S
C3403 C3402 1.349 . S
C3403 C3419 1.349 . S
C3404 C3402 1.327 . S
C3404 C3423 1.429 . S
C3404 H3428 0.950 . S
C3405 C3422 1.574 . S
C3405 C3424 1.368 . S
C3405 H3429 0.949 . S
H3406 C3410 0.949 . S
C3407 C3408 1.349 . S
C3407 C3409 1.327 . S
C3407 H3430 0.950 . S
C3408 C3407 1.349 . S
C3408 C3420 1.349 . S
C3409 C3407 1.327 . S
C3409 C3425 1.429 . S
C3409 H3431 0.950 . S
C3410 H3406 0.949 . S
C3410 C3418 1.574 . S
C3410 C3426 1.368 . S
H3411 C3419 0.950 . S
H3412 C3417 0.950 . S
H3413 C3418 0.949 . S
H3414 C3420 0.950 . S
H3415 C3421 0.950 . S
H3416 C3422 0.949 . S
C3417 H3412 0.950 . S
C3417 C3419 1.327 . S
C3417 C3423 1.429 . S
C3418 C3410 1.574 . S
C3418 H3413 0.949 . S
C3418 C3424 1.368 . S
C3419 C3403 1.349 . S
C3419 H3411 0.950 . S
C3419 C3417 1.327 . S
C3420 C3408 1.349 . S
C3420 H3414 0.950 . S
C3420 C3421 1.327 . S
C3421 H3415 0.950 . S
C3421 C3420 1.327 . S
C3421 C3425 1.429 . S
C3422 C3405 1.574 . S
C3422 H3416 0.949 . S
C3422 C3426 1.368 . S
C3423 C3404 1.429 . S
C3423 C3417 1.429 . S
C3423 C3424 1.523 . S
C3424 C3405 1.368 . S
C3424 C3418 1.368 . S
C3424 C3423 1.523 . S
C3425 C3409 1.429 . S
C3425 C3421 1.429 . S
C3425 C3426 1.523 . S
C3426 C3410 1.368 . S
C3426 C3422 1.368 . S
C3426 C3425 1.523 . S
H3427 C3402 0.950 . S
H3428 C3404 0.950 . S
H3429 C3405 0.949 . S
H3430 C3407 0.950 . S
H3431 C3409 0.950 . S
C3432 C3433 1.349 . S
C3432 C3434 1.327 . S
C3432 H3457 0.950 . S
C3433 C3432 1.349 . S
C3433 C3449 1.349 . S
C3434 C3432 1.327 . S
C3434 C3453 1.429 . S
C3434 H3458 0.950 . S
C3435 C3452 1.574 . S
C3435 C3454 1.368 . S
C3435 H3459 0.949 . S
H3436 C3440 0.949 . S
C3437 C3438 1.349 . S
C3437 C3439 1.327 . S
C3437 H3460 0.950 . S
C3438 C3437 1.349 . S
C3438 C3450 1.349 . S
C3439 C3437 1.327 . S
C3439 C3455 1.429 . S
C3439 H3461 0.950 . S
C3440 H3436 0.949 . S
C3440 C3448 1.574 . S
C3440 C3456 1.368 . S
H3441 C3449 0.950 . S
H3442 C3447 0.950 . S
H3443 C3448 0.949 . S
H3444 C3450 0.950 . S
H3445 C3451 0.950 . S
H3446 C3452 0.949 . S
C3447 H3442 0.950 . S
C3447 C3449 1.327 . S
C3447 C3453 1.429 . S
C3448 C3440 1.574 . S
C3448 H3443 0.949 . S
C3448 C3454 1.368 . S
C3449 C3433 1.349 . S
C3449 H3441 0.950 . S
C3449 C3447 1.327 . S
C3450 C3438 1.349 . S
C3450 H3444 0.950 . S
C3450 C3451 1.327 . S
C3451 H3445 0.950 . S
C3451 C3450 1.327 . S
C3451 C3455 1.429 . S
C3452 C3435 1.574 . S
C3452 H3446 0.949 . S
C3452 C3456 1.368 . S
C3453 C3434 1.429 . S
C3453 C3447 1.429 . S
C3453 C3454 1.523 . S
C3454 C3435 1.368 . S
C3454 C3448 1.368 . S
C3454 C3453 1.523 . S
C3455 C3439 1.429 . S
C3455 C3451 1.429 . S
C3455 C3456 1.523 . S
C3456 C3440 1.368 . S
C3456 C3452 1.368 . S
C3456 C3455 1.523 . S
H3457 C3432 0.950 . S
H3458 C3434 0.950 . S
H3459 C3435 0.949 . S
H3460 C3437 0.950 . S
H3461 C3439 0.950 . S
C3462 C3463 1.349 . S
C3462 C3464 1.327 . S
C3462 H3487 0.950 . S
C3463 C3462 1.349 . S
C3463 C3479 1.349 . S
C3464 C3462 1.327 . S
C3464 C3483 1.429 . S
C3464 H3488 0.950 . S
C3465 C3482 1.574 . S
C3465 C3484 1.368 . S
C3465 H3489 0.949 . S
H3466 C3470 0.949 . S
C3467 C3468 1.349 . S
C3467 C3469 1.327 . S
C3467 H3490 0.950 . S
C3468 C3467 1.349 . S
C3468 C3480 1.349 . S
C3469 C3467 1.327 . S
C3469 C3485 1.429 . S
C3469 H3491 0.950 . S
C3470 H3466 0.949 . S
C3470 C3478 1.574 . S
C3470 C3486 1.368 . S
H3471 C3479 0.950 . S
H3472 C3477 0.950 . S
H3473 C3478 0.949 . S
H3474 C3480 0.950 . S
H3475 C3481 0.950 . S
H3476 C3482 0.949 . S
C3477 H3472 0.950 . S
C3477 C3479 1.327 . S
C3477 C3483 1.429 . S
C3478 C3470 1.574 . S
C3478 H3473 0.949 . S
C3478 C3484 1.368 . S
C3479 C3463 1.349 . S
C3479 H3471 0.950 . S
C3479 C3477 1.327 . S
C3480 C3468 1.349 . S
C3480 H3474 0.950 . S
C3480 C3481 1.327 . S
C3481 H3475 0.950 . S
C3481 C3480 1.327 . S
C3481 C3485 1.429 . S
C3482 C3465 1.574 . S
C3482 H3476 0.949 . S
C3482 C3486 1.368 . S
C3483 C3464 1.429 . S
C3483 C3477 1.429 . S
C3483 C3484 1.523 . S
C3484 C3465 1.368 . S
C3484 C3478 1.368 . S
C3484 C3483 1.523 . S
C3485 C3469 1.429 . S
C3485 C3481 1.429 . S
C3485 C3486 1.523 . S
C3486 C3470 1.368 . S
C3486 C3482 1.368 . S
C3486 C3485 1.523 . S
H3487 C3462 0.950 . S
H3488 C3464 0.950 . S
H3489 C3465 0.949 . S
H3490 C3467 0.950 . S
H3491 C3469 0.950 . S
C3492 C3493 1.349 . S
C3492 C3494 1.327 . S
C3492 H3517 0.950 . S
C3493 C3492 1.349 . S
C3493 C3509 1.349 . S
C3494 C3492 1.327 . S
C3494 C3513 1.429 . S
C3494 H3518 0.950 . S
C3495 C3512 1.574 . S
C3495 C3514 1.368 . S
C3495 H3519 0.949 . S
H3496 C3500 0.949 . S
C3497 C3498 1.349 . S
C3497 C3499 1.327 . S
C3497 H3520 0.950 . S
C3498 C3497 1.349 . S
C3498 C3510 1.349 . S
C3499 C3497 1.327 . S
C3499 C3515 1.429 . S
C3499 H3521 0.950 . S
C3500 H3496 0.949 . S
C3500 C3508 1.574 . S
C3500 C3516 1.368 . S
H3501 C3509 0.950 . S
H3502 C3507 0.950 . S
H3503 C3508 0.949 . S
H3504 C3510 0.950 . S
H3505 C3511 0.950 . S
H3506 C3512 0.949 . S
C3507 H3502 0.950 . S
C3507 C3509 1.327 . S
C3507 C3513 1.429 . S
C3508 C3500 1.574 . S
C3508 H3503 0.949 . S
C3508 C3514 1.368 . S
C3509 C3493 1.349 . S
C3509 H3501 0.950 . S
C3509 C3507 1.327 . S
C3510 C3498 1.349 . S
C3510 H3504 0.950 . S
C3510 C3511 1.327 . S
C3511 H3505 0.950 . S
C3511 C3510 1.327 . S
C3511 C3515 1.429 . S
C3512 C3495 1.574 . S
C3512 H3506 0.949 . S
C3512 C3516 1.368 . S
C3513 C3494 1.429 . S
C3513 C3507 1.429 . S
C3513 C3514 1.523 . S
C3514 C3495 1.368 . S
C3514 C3508 1.368 . S
C3514 C3513 1.523 . S
C3515 C3499 1.429 . S
C3515 C3511 1.429 . S
C3515 C3516 1.523 . S
C3516 C3500 1.368 . S
C3516 C3512 1.368 . S
C3516 C3515 1.523 . S
H3517 C3492 0.950 . S
H3518 C3494 0.950 . S
H3519 C3495 0.949 . S
H3520 C3497 0.950 . S
H3521 C3499 0.950 . S
C3522 C3523 1.349 . S
C3522 C3524 1.327 . S
C3522 H3547 0.950 . S
C3523 C3522 1.349 . S
C3523 C3539 1.349 . S
C3524 C3522 1.327 . S
C3524 C3543 1.429 . S
C3524 H3548 0.950 . S
C3525 C3542 1.574 . S
C3525 C3544 1.368 . S
C3525 H3549 0.949 . S
H3526 C3530 0.949 . S
C3527 C3528 1.349 . S
C3527 C3529 1.327 . S
C3527 H3550 0.950 . S
C3528 C3527 1.349 . S
C3528 C3540 1.349 . S
C3529 C3527 1.327 . S
C3529 C3545 1.429 . S
C3529 H3551 0.950 . S
C3530 H3526 0.949 . S
C3530 C3538 1.574 . S
C3530 C3546 1.368 . S
H3531 C3539 0.950 . S
H3532 C3537 0.950 . S
H3533 C3538 0.949 . S
H3534 C3540 0.950 . S
H3535 C3541 0.950 . S
H3536 C3542 0.949 . S
C3537 H3532 0.950 . S
C3537 C3539 1.327 . S
C3537 C3543 1.429 . S
C3538 C3530 1.574 . S
C3538 H3533 0.949 . S
C3538 C3544 1.368 . S
C3539 C3523 1.349 . S
C3539 H3531 0.950 . S
C3539 C3537 1.327 . S
C3540 C3528 1.349 . S
C3540 H3534 0.950 . S
C3540 C3541 1.327 . S
C3541 H3535 0.950 . S
C3541 C3540 1.327 . S
C3541 C3545 1.429 . S
C3542 C3525 1.574 . S
C3542 H3536 0.949 . S
C3542 C3546 1.368 . S
C3543 C3524 1.429 . S
C3543 C3537 1.429 . S
C3543 C3544 1.523 . S
C3544 C3525 1.368 . S
C3544 C3538 1.368 . S
C3544 C3543 1.523 . S
C3545 C3529 1.429 . S
C3545 C3541 1.429 . S
C3545 C3546 1.523 . S
C3546 C3530 1.368 . S
C3546 C3542 1.368 . S
C3546 C3545 1.523 . S
H3547 C3522 0.950 . S
H3548 C3524 0.950 . S
H3549 C3525 0.949 . S
H3550 C3527 0.950 . S
H3551 C3529 0.950 . S
C673 C91 1.010 . S
C678 C7 1.010 . S
C703 C21 1.010 . S
C708 C105 1.010 . S
C733 C35 1.010 . S
C738 C63 1.010 . S
C763 C77 1.010 . S
C768 C49 1.010 . S
C793 C483 1.010 . S
C798 C119 1.010 . S
C823 C497 1.010 . S
C828 C133 1.010 . S
C853 C147 1.010 . S
C858 C455 1.010 . S
C883 C161 1.010 . S
C888 C469 1.010 . S
C913 C539 1.010 . S
C918 C175 1.010 . S
C943 C553 1.010 . S
C948 C189 1.010 . S
C973 C511 1.010 . S
C978 C203 1.010 . S
C1003 C525 1.010 . S
C1008 C217 1.010 . S
C1033 C231 1.010 . S
C1038 C581 1.010 . S
C1063 C245 1.010 . S
C1068 C567 1.010 . S
C1093 C259 1.010 . S
C1098 C329 1.010 . S
C1123 C637 1.010 . S
C1128 C273 1.010 . S
C1153 C651 1.010 . S
C1158 C287 1.010 . S
C1183 C609 1.010 . S
C1188 C301 1.010 . S
C1213 C623 1.010 . S
C1218 C315 1.010 . S
C1243 C427 1.010 . S
C1248 C343 1.010 . S
C1273 C441 1.010 . S
C1278 C357 1.010 . S
C1303 C371 1.010 . S
C1308 C399 1.010 . S
C1333 C385 1.010 . S
C1338 C413 1.010 . S
C1363 C665 1.010 . S
C1368 C595 1.010 . S
C1393 C233 0.992 . S
C1398 C3 1.028 . S
C1423 C17 1.028 1_655 S
C1428 C667 0.992 . S
C1453 C31 1.028 . S
C1458 C303 0.992 . S
C1483 C653 0.992 . S
C1488 C45 1.028 . S
C1513 C59 1.028 . S
C1518 C583 0.992 . S
C1543 C597 0.992 . S
C1548 C73 1.028 . S
C1573 C87 1.028 . S
C1578 C611 0.992 . S
C1603 C289 0.992 . S
C1608 C101 1.028 1_655 S
C1633 C115 1.028 . S
C1638 C9 0.992 . S
C1663 C23 0.992 . S
C1668 C129 1.028 . S
C1693 C143 1.028 . S
C1698 C37 0.992 . S
C1723 C157 1.028 1_554 S
C1728 C51 0.992 . S
C1753 C171 1.028 . S
C1758 C65 0.992 . S
C1783 C79 0.992 . S
C1788 C185 1.028 . S
C1813 C199 1.028 . S
C1818 C93 0.992 . S
C1843 C213 1.028 1_556 S
C1848 C107 0.992 . S
C1873 C227 1.028 . S
C1878 C121 0.992 . S
C1903 C241 1.028 . S
C1908 C513 0.992 . S
C1933 C527 0.992 . S
C1938 C255 1.028 . S
C1963 C541 0.992 . S
C1968 C269 1.028 . S
C1993 C283 1.028 1_565 S
C1998 C219 0.992 . S
C2023 C297 1.028 . S
C2028 C149 0.992 . S
C2053 C499 0.992 . S
C2058 C311 1.028 . S
C2083 C471 0.992 . S
C2088 C325 1.028 . S
C2113 C339 1.028 . S
C2118 C569 0.992 . S
C2143 C353 1.028 . S
C2148 C331 0.992 . S
C2173 C367 1.028 . S
C2178 C639 0.992 . S
C2203 C381 1.028 1_455 S
C2208 C317 0.992 . S
C2233 C395 1.028 . S
C2238 C247 0.992 . S
C2263 C261 0.992 . S
C2268 C409 1.028 1_455 S
C2293 C275 0.992 . S
C2298 C423 1.028 . S
C2323 C625 0.992 . S
C2328 C437 1.028 . S
C2353 C345 0.992 . S
C2358 C451 1.028 . S
C2383 C359 0.992 . S
C2388 C465 1.028 1_554 S
C2413 C479 1.028 . S
C2418 C373 0.992 . S
C2443 C387 0.992 . S
C2448 C493 1.028 . S
C2473 C507 1.028 . S
C2478 C401 0.992 . S
C2503 C415 0.992 . S
C2508 C521 1.028 1_556 S
C2533 C535 1.028 . S
C2538 C429 0.992 . S
C2563 C443 0.992 . S
C2568 C549 1.028 . S
C2593 C563 1.028 . S
C2598 C457 0.992 . S
C2623 C577 1.028 . S
C2628 C177 0.992 . S
C2653 C191 0.992 . S
C2658 C591 1.028 1_545 S
C2683 C605 1.028 . S
C2688 C205 0.992 . S
C2713 C619 1.028 . S
C2718 C555 0.992 . S
C2743 C485 0.992 . S
C2748 C633 1.028 . S
C2773 C647 1.028 1_565 S
C2778 C163 0.992 . S
C2803 C135 0.992 . S
C2808 C661 1.028 1_545 S
C2833 C134 0.452 . S
C2838 C8 0.452 . S
C2863 C22 0.452 . S
C2868 C148 0.452 . S
C2893 C162 0.452 . S
C2898 C36 0.452 . S
C2923 C120 0.452 . S
C2928 C50 0.452 . S
C2953 C64 0.452 . S
C2958 C218 0.452 . S
C2983 C78 0.452 . S
C2988 C176 0.452 . S
C3013 C190 0.452 . S
C3018 C92 0.452 . S
C3043 C204 0.452 . S
C3048 C106 0.452 . S
C3073 C232 0.452 . S
C3078 C260 0.452 . S
C3103 C246 0.452 . S
C3108 C652 0.452 . S
C3133 C274 0.452 . S
C3138 C666 0.452 . S
C3163 C638 0.452 . S
C3168 C288 0.452 . S
C3193 C624 0.452 . S
C3198 C302 0.452 . S
C3223 C582 0.452 . S
C3228 C316 0.452 . S
C3253 C330 0.452 . S
C3258 C610 0.452 . S
C3283 C470 0.452 . S
C3288 C344 0.452 . S
C3313 C484 0.452 . S
C3318 C358 0.452 . S
C3343 C372 0.452 . S
C3348 C498 0.452 . S
C3373 C456 0.452 . S
C3378 C386 0.452 . S
C3403 C554 0.452 . S
C3408 C400 0.452 . S
C3433 C512 0.452 . S
C3438 C414 0.452 . S
C3463 C428 0.452 . S
C3468 C526 0.452 . S
C3493 C540 0.452 . S
C3498 C442 0.452 . S
C3523 C596 0.452 . S
C3528 C568 0.452 . S
