# Generated by pormake.
# Topology snp, (6)-cn, num edge types: 1
# Building blocks:
#     Node 0, Type 0, BuildingBlock: LEVNOQ01_clean_sbu_1, # of connection points: 6
#     Node 1, Type 0, BuildingBlock: LEVNOQ01_clean_sbu_1, # of connection points: 6
#     Node 2, Type 0, BuildingBlock: LEVNOQ01_clean_sbu_1, # of connection points: 6
#     Node 3, Type 0, BuildingBlock: LEVNOQ01_clean_sbu_1, # of connection points: 6
#     Edge 4, Type (0, 0), BuildingBlock: FUNLAD_clean_linker_1, # of connection points: 2
#     Edge 5, Type (0, 0), BuildingBlock: FUNLAD_clean_linker_1, # of connection points: 2
#     Edge 6, Type (0, 0), BuildingBlock: FUNLAD_clean_linker_1, # of connection points: 2
#     Edge 7, Type (0, 0), BuildingBlock: FUNLAD_clean_linker_1, # of connection points: 2
#     Edge 8, Type (0, 0), BuildingBlock: FUNLAD_clean_linker_1, # of connection points: 2
#     Edge 9, Type (0, 0), BuildingBlock: FUNLAD_clean_linker_1, # of connection points: 2
#     Edge 10, Type (0, 0), BuildingBlock: FUNLAD_clean_linker_1, # of connection points: 2
#     Edge 11, Type (0, 0), BuildingBlock: FUNLAD_clean_linker_1, # of connection points: 2
#     Edge 12, Type (0, 0), BuildingBlock: FUNLAD_clean_linker_1, # of connection points: 2
#     Edge 13, Type (0, 0), BuildingBlock: FUNLAD_clean_linker_1, # of connection points: 2
#     Edge 14, Type (0, 0), BuildingBlock: FUNLAD_clean_linker_1, # of connection points: 2
#     Edge 15, Type (0, 0), BuildingBlock: FUNLAD_clean_linker_1, # of connection points: 2
# Relax obj value: 0.509
# Max RMSD: 0.249
# Mean RMSD: 0.247
data_MOF--net-snp--node1-LEVNOQ01_clean_sbu_1--edge1-FUNLAD_clean_linker_1
_symmetry_space_group_name_H-M    P1
_symmetry_Int_Tables_number       1
_symmetry_cell_setting            triclinic
loop_
_symmetry_equiv_pos_as_xyz
'x, y, z'
_cell_length_a     27.514053
_cell_length_b     27.138604
_cell_length_c     25.949473
_cell_angle_alpha  99.934268
_cell_angle_beta   101.11235
_cell_angle_gamma 91.884537
loop_
_atom_site_label
_atom_site_type_symbol
_atom_site_fract_x
_atom_site_fract_y
_atom_site_fract_z
_atom_type_partial_charge
O0 O 0.21075 0.06436 0.96443 0.0
Mg1 Mg 0.15139 0.02102 0.98142 0.0
O2 O 0.26469 0.08299 0.04316 0.0
Mg3 Mg 0.23766 0.02864 0.09557 0.0
O4 O 0.16364 0.04298 0.05951 0.0
O5 O 0.09515 0.0622 0.01319 0.0
O6 O 0.20678 0.97332 0.14499 0.0
O7 O 0.23203 0.098 0.16223 0.0
Mg8 Mg 0.31276 0.03324 0.21412 0.0
O9 O 0.3151 0.01857 0.13582 0.0
O10 O 0.25903 0.97983 0.22361 0.0
O11 O 0.29636 0.10882 0.23062 0.0
O12 O 0.38156 0.01439 0.19767 0.0
C13 C 0.20631 0.93013 0.98947 0.0
C14 C 0.24992 0.08785 0.99422 0.0
C15 C 0.12432 0.06623 0.05905 0.0
C16 C 0.21948 0.96105 0.1911 0.0
C17 C 0.25693 0.12377 0.20593 0.0
C18 C 0.36145 0.01155 0.14796 0.0
O19 O 0.16228 0.94373 0.97885 0.0
O20 O 0.24 0.95806 0.02493 0.0
O21 O 0.96403 0.31456 0.70973 0.0
Mg22 Mg 0.03589 0.33696 0.69866 0.0
O23 O 0.95622 0.24526 0.64776 0.0
Mg24 Mg 0.00914 0.24695 0.58788 0.0
O25 O 0.03034 0.32705 0.61843 0.0
O26 O 0.05221 0.40128 0.66789 0.0
O27 O 0.06029 0.24587 0.52507 0.0
O28 O 0.94146 0.26229 0.51804 0.0
Mg29 Mg 0.97033 0.146 0.48692 0.0
O30 O -0.00882 0.16857 0.56447 0.0
O31 O 0.03154 0.17834 0.46176 0.0
O32 O 0.90753 0.18696 0.47284 0.0
O33 O 0.97226 0.08989 0.53525 0.0
C34 C 0.10021 0.24683 0.69933 0.0
C35 C 0.94244 0.272 0.68733 0.0
C36 C 0.04216 0.37341 0.62114 0.0
C37 C 0.06121 0.21707 0.48056 0.0
C38 C 0.90766 0.23445 0.48226 0.0
C39 C 0.98711 0.12524 0.57567 0.0
O40 O 0.09132 0.28903 0.72445 0.0
O41 O 0.07582 0.22822 0.65227 0.0
O42 O 0.73784 0.03689 0.87607 0.0
Mg43 Mg 0.6952 0.97636 0.88833 0.0
O44 O 0.79463 0.03775 0.9498 0.0
Mg45 Mg 0.7684 0.98086 1.00002 0.0
O46 O 0.68652 0.98904 0.966 0.0
O47 O 0.62428 0.98771 0.89589 0.0
O48 O 0.74684 0.92366 0.05326 0.0
O49 O 0.76976 0.05048 0.07207 0.0
Mg50 Mg 0.86452 0.97659 0.10677 0.0
O51 O 0.84515 0.97117 0.02847 0.0
O52 O 0.81425 0.92041 0.11706 0.0
O53 O 0.84046 0.0487 0.13173 0.0
O54 O 0.92072 0.95784 0.06042 0.0
C55 C 0.75345 0.8879 0.8877 0.0
C56 C 0.77844 0.05448 0.90692 0.0
C57 C 0.64017 0.99369 0.94692 0.0
C58 C 0.76964 0.90633 0.09382 0.0
C59 C 0.80073 0.06921 0.11571 0.0
C60 C 0.88721 0.95951 0.01897 0.0
O61 O 0.71573 0.9038 0.86088 0.0
O62 O 0.77398 0.91192 0.9339 0.0
O63 O 0.9353 0.71195 0.36124 0.0
Mg64 Mg 0.98728 0.66094 0.3884 0.0
O65 O 0.93872 0.76505 0.43793 0.0
Mg66 Mg 0.00081 0.74642 0.50581 0.0
O67 O -0.01024 0.66778 0.46797 0.0
O68 O 0.95139 0.60143 0.41463 0.0
O69 O 0.06498 0.73264 0.57941 0.0
O70 O 0.94081 0.73781 0.55813 0.0
Mg71 Mg 0.01449 0.84556 0.61186 0.0
O72 O 0.01097 0.8244 0.53497 0.0
O73 O 0.07438 0.80489 0.63858 0.0
O74 O 0.94684 0.80918 0.61824 0.0
O75 O 0.02146 0.90328 0.5663 0.0
C76 C 0.07869 0.73349 0.41626 0.0
C77 C 0.92076 0.75038 0.38814 0.0
C78 C 0.95965 0.62956 0.46112 0.0
C79 C 0.08769 0.76138 0.62312 0.0
C80 C 0.92626 0.76585 0.59661 0.0
C81 C 0.01468 0.86819 0.52505 0.0
O82 O 0.06052 0.69074 0.38945 0.0
O83 O 0.06041 0.75632 0.45484 0.0
H84 H 0.86663 0.92709 0.93257 0.0
C85 C 0.89608 0.9471 0.96378 0.0
H86 H 0.9423 0.9524 0.90885 0.0
H87 H 0.07661 0.01164 0.15631 0.0
H88 H 0.08648 0.92165 0.14456 0.0
H89 H 0.04926 0.86556 0.05996 0.0
H90 H -0.00052 0.89876 0.98685 0.0
C91 C 0.93821 0.96168 0.95005 0.0
C92 C 0.97644 -0.00417 0.98889 0.0
C93 C 0.00813 0.97647 0.02903 0.0
C94 C 0.0312 0.009 0.0768 0.0
C95 C 0.05935 0.98836 0.11852 0.0
C96 C 0.06528 0.937 0.11234 0.0
C97 C 0.04406 0.90534 0.06467 0.0
C98 C 0.0156 0.92466 0.02328 0.0
H99 H 0.14247 0.11975 0.13587 0.0
C100 C 0.11301 0.09641 0.1079 0.0
H101 H 0.05945 0.11822 0.15421 0.0
H102 H 0.93028 0.04473 0.91194 0.0
H103 H 0.92994 0.13529 0.91784 0.0
H104 H 0.96876 0.19271 1.00122 0.0
H105 H 0.01184 0.15988 0.07806 0.0
C106 C 0.0672 0.09499 0.11864 0.0
C107 C 0.0272 0.06147 0.08144 0.0
C108 C -0.00223 0.08108 0.03967 0.0
C109 C 0.97341 0.04813 0.99261 0.0
C110 C 0.94811 0.06848 0.94921 0.0
C111 C 0.94758 0.12024 0.95215 0.0
C112 C 0.96995 0.15257 0.99894 0.0
C113 C -0.00535 0.13338 0.04251 0.0
H114 H 0.00863 0.84555 0.43759 0.0
C115 C 0.0086 0.87731 0.4694 0.0
H116 H -0.00389 0.92703 0.41479 0.0
H117 H 0.92513 0.02289 0.64095 0.0
H118 H 0.8464 0.97728 0.59568 0.0
H119 H 0.83675 0.9284 0.50434 0.0
H120 H 0.90608 0.9241 0.45794 0.0
C121 C 0.0006 0.9226 0.45621 0.0
C122 C -0.00019 0.96703 0.49805 0.0
C123 C 0.9583 0.97145 0.52316 0.0
C124 C 0.96364 0.0001 0.57536 0.0
C125 C 0.92255 0.00193 0.60091 0.0
C126 C 0.87738 0.97594 0.57545 0.0
C127 C 0.87199 0.94827 0.52406 0.0
C128 C 0.91192 0.94589 0.49799 0.0
H129 H 0.00341 0.14844 0.66382 0.0
C130 C -0.00019 0.11653 0.63143 0.0
H131 H 0.01854 0.06645 0.68483 0.0
H132 H 0.08468 0.96934 0.45851 0.0
H133 H 0.16337 0.01474 0.50362 0.0
H134 H 0.17178 0.06764 0.59282 0.0
H135 H 0.10184 0.07439 0.63792 0.0
C136 C 0.00902 0.07102 0.64341 0.0
C137 C 0.00926 0.02751 0.6003 0.0
C138 C 0.05037 0.02409 0.57453 0.0
C139 C 0.04542 -0.00574 0.52303 0.0
C140 C 0.08685 0.99138 0.49796 0.0
C141 C 0.13197 0.01754 0.52319 0.0
C142 C 0.13671 0.04725 0.57344 0.0
C143 C 0.09641 0.05082 0.59889 0.0
H144 H 0.61808 0.00404 0.02474 0.0
C145 C 0.60567 0.00518 0.98256 0.0
H146 H 0.54508 0.0145 0.92126 0.0
H147 H 0.43216 0.91533 0.07877 0.0
H148 H 0.43591 0.84133 0.01252 0.0
H149 H 0.47836 0.84621 0.93778 0.0
H150 H 0.51786 0.92509 0.92949 0.0
C151 C 0.55868 0.01392 0.96334 0.0
C152 C 0.52285 0.01476 0.99831 0.0
C153 C 0.49812 0.96898 1.00069 0.0
C154 C 0.47256 0.96655 0.04251 0.0
C155 C 0.45074 0.91966 0.04652 0.0
C156 C 0.45291 0.87681 0.00899 0.0
C157 C 0.47692 0.87952 0.96702 0.0
C158 C 0.49951 0.92495 0.96281 0.0
H159 H 0.37283 0.00034 0.06547 0.0
C160 C 0.39132 0.00496 0.1072 0.0
H161 H 0.45989 0.01661 0.16269 0.0
H162 H 0.56237 0.10883 0.99957 0.0
H163 H 0.55646 0.18405 0.06385 0.0
H164 H 0.51069 0.18058 0.1363 0.0
H165 H 0.47074 0.10209 0.14499 0.0
C166 C 0.44081 0.00911 0.12106 0.0
C167 C 0.47023 0.01056 0.07992 0.0
C168 C 0.49325 0.05689 0.07612 0.0
C169 C 0.51959 0.05898 0.03479 0.0
C170 C 0.54233 0.10541 0.03096 0.0
C171 C 0.53902 0.14877 0.06736 0.0
C172 C 0.5132 0.14682 0.10811 0.0
C173 C 0.49045 0.10152 0.11264 0.0
H174 H 0.00753 0.37755 0.54015 0.0
C175 C 0.03698 0.39518 0.57311 0.0
H176 H 0.08345 0.45935 0.60943 0.0
H177 H 0.90167 0.50142 0.40826 0.0
H178 H 0.94101 0.44606 0.34767 0.0
H179 H 0.01672 0.40554 0.38131 0.0
H180 H 0.05273 0.41975 0.47619 0.0
C181 C 0.05285 0.44303 0.57721 0.0
C182 C 0.01608 0.47657 0.55596 0.0
C183 C -0.00313 0.46954 0.50037 0.0
C184 C 0.95493 0.49485 0.48094 0.0
C185 C 0.9349 0.48519 0.42533 0.0
C186 C 0.95687 0.45297 0.39001 0.0
C187 C -0.00068 0.42998 0.40894 0.0
C188 C 0.01934 0.43812 0.46345 0.0
H189 H 0.96556 0.62713 0.54422 0.0
C190 C 0.94074 0.61522 0.50565 0.0
H191 H 0.88353 0.56527 0.45991 0.0
H192 H 0.04325 0.49899 0.66641 0.0
H193 H 0.00293 0.55389 0.726 0.0
H194 H 0.92968 0.59731 0.69099 0.0
H195 H 0.89688 0.58573 0.59515 0.0
C196 C 0.91122 0.57314 0.49667 0.0
C197 C 0.93523 0.53039 0.51698 0.0
C198 C 0.95227 0.5349 0.57259 0.0
C199 C -0.00633 0.5091 0.59234 0.0
C200 C 0.01145 0.51672 0.64842 0.0
C201 C -0.01136 0.54844 0.68337 0.0
C202 C 0.9475 0.57295 0.66371 0.0
C203 C 0.92927 0.56628 0.60891 0.0
H204 H 0.07139 0.2301 0.40327 0.0
C205 C 0.09141 0.23138 0.44404 0.0
H206 H 0.16104 0.226 0.49214 0.0
H207 H 0.21017 0.08184 0.29137 0.0
H208 H 0.21846 0.02957 0.35869 0.0
H209 H 0.20304 0.06186 0.44843 0.0
H210 H 0.17857 0.14636 0.47116 0.0
C211 C 0.14082 0.22944 0.45275 0.0
C212 C 0.16405 0.21593 0.40516 0.0
C213 C 0.17958 0.16664 0.39309 0.0
C214 C 0.18853 0.14804 0.34135 0.0
C215 C 0.20266 0.09811 0.32988 0.0
C216 C 0.20764 0.06754 0.36822 0.0
C217 C 0.19885 0.08569 0.4187 0.0
C218 C 0.1848 0.13446 0.43117 0.0
H219 H 0.26122 0.19505 0.26137 0.0
C220 C 0.23537 0.16564 0.2357 0.0
H221 H 0.16713 0.12497 0.22655 0.0
H222 H 0.14386 0.31451 0.41844 0.0
H223 H 0.13572 0.36742 0.35075 0.0
H224 H 0.14852 0.33419 0.25996 0.0
H225 H 0.1702 0.24817 0.23641 0.0
C226 C 0.19085 0.15788 0.24782 0.0
C227 C 0.18279 0.17902 0.30203 0.0
C228 C 0.17025 0.22916 0.31497 0.0
C229 C 0.1615 0.24786 0.36685 0.0
C230 C 0.14953 0.29826 0.37909 0.0
C231 C 0.14506 0.32897 0.34077 0.0
C232 C 0.1524 0.31029 0.28968 0.0
C233 C 0.16492 0.26097 0.2767 0.0
H234 H 0.88305 0.27545 0.73408 0.0
C235 C 0.90579 0.25036 0.71315 0.0
H236 H 0.9308 0.17756 0.69987 0.0
H237 H 0.83502 0.19254 0.92015 0.0
H238 H 0.8972 0.26112 0.95962 0.0
H239 H 0.95366 0.29093 0.9066 0.0
H240 H 0.94698 0.25398 0.81353 0.0
C241 C 0.90685 0.2022 0.71943 0.0
C242 C 0.87725 0.18076 0.75381 0.0
C243 C 0.88391 0.20089 0.80927 0.0
C244 C 0.85393 0.18121 0.84099 0.0
C245 C 0.85837 0.20464 0.89497 0.0
C246 C 0.89379 0.2441 0.91806 0.0
C247 C 0.92544 0.26102 0.88816 0.0
C248 C 0.92079 0.23979 0.83446 0.0
H249 H 0.84899 0.09376 0.90398 0.0
C250 C 0.80929 0.09127 0.88936 0.0
H251 H 0.74961 0.11315 0.83602 0.0
H252 H 0.85715 0.13128 0.6498 0.0
H253 H 0.80105 0.05761 0.61291 0.0
H254 H 0.75437 0.01912 0.66968 0.0
H255 H 0.76268 0.05467 0.76329 0.0
C256 C 0.78956 0.11634 0.85072 0.0
C257 C 0.82047 0.13878 0.81838 0.0
C258 C 0.81587 0.11691 0.76372 0.0
C259 C 0.84382 0.13824 0.73131 0.0
C260 C 0.8375 0.11623 0.67657 0.0
C261 C 0.80538 0.07386 0.65479 0.0
C262 C 0.77899 0.0523 0.6867 0.0
C263 C 0.784 0.07334 0.74046 0.0
H264 H 0.86292 0.80545 0.38416 0.0
C265 C 0.88279 0.7794 0.36048 0.0
H266 H 0.89405 0.74909 0.28359 0.0
H267 H 0.69638 0.78516 0.13881 0.0
H268 H 0.69099 0.69442 0.12966 0.0
H269 H 0.75104 0.65216 0.18783 0.0
H270 H 0.81623 0.70016 0.25585 0.0
C271 C 0.87397 0.77522 0.30694 0.0
C272 C 0.83516 0.80214 0.2763 0.0
C273 C 0.79683 0.77363 0.23684 0.0
C274 C 0.76277 0.7979 0.20249 0.0
C275 C 0.72425 0.76841 0.16453 0.0
C276 C 0.72047 0.71638 0.15921 0.0
C277 C 0.75422 0.69259 0.192 0.0
C278 C 0.79171 0.72066 0.23071 0.0
H279 H 0.76061 0.82945 0.10058 0.0
C280 C 0.74702 0.86563 0.11391 0.0
H281 H 0.7246 0.91171 0.17646 0.0
H282 H 0.90553 0.8686 0.34605 0.0
H283 H 0.90968 0.95876 0.35671 0.0
H284 H 0.84934 0.00119 0.29927 0.0
H285 H 0.7854 0.95398 0.23067 0.0
C286 C 0.73887 0.87573 0.16407 0.0
C287 C 0.76766 0.85072 0.20652 0.0
C288 C 0.80441 0.87962 0.24811 0.0
C289 C 0.83862 0.85523 0.28243 0.0
C290 C 0.87708 0.88482 0.32065 0.0
C291 C 0.88039 0.93685 0.32684 0.0
C292 C 0.84654 0.96071 0.29441 0.0
C293 C 0.80949 0.93275 0.25509 0.0
H294 H 0.11217 0.71859 0.68572 0.0
C295 C 0.12624 0.74414 0.66325 0.0
H296 H 0.17927 0.80098 0.66408 0.0
H297 H 0.14495 0.92884 0.87672 0.0
H298 H 0.10698 0.97566 0.81048 0.0
H299 H 0.10465 0.94511 0.71484 0.0
H300 H 0.13986 0.86787 0.68556 0.0
C301 C 0.16541 0.77686 0.68815 0.0
C302 C 0.17398 0.79773 0.74717 0.0
C303 C 0.15961 0.84688 0.76459 0.0
C304 C 0.16319 0.86579 0.82006 0.0
C305 C 0.14388 0.91271 0.8355 0.0
C306 C 0.12191 0.94019 0.79779 0.0
C307 C 0.12048 0.92295 0.74404 0.0
C308 C 0.14015 0.87769 0.72763 0.0
H309 H 0.25652 0.89142 0.94057 0.0
C310 C 0.21973 0.88885 0.94972 0.0
H311 H 0.14705 0.85515 0.92606 0.0
H312 H 0.20839 0.70462 0.72885 0.0
H313 H 0.24544 0.657 0.79591 0.0
H314 H 0.25576 0.69187 0.892 0.0
H315 H 0.22888 0.77472 0.92191 0.0
C316 C 0.18375 0.85678 0.91643 0.0
C317 C 0.18506 0.83777 0.8589 0.0
C318 C 0.20157 0.78984 0.84179 0.0
C319 C 0.19549 0.76957 0.78602 0.0
C320 C 0.21175 0.72141 0.77046 0.0
C321 C 0.23317 0.69383 0.80853 0.0
C322 C 0.239 0.7135 0.86269 0.0
C323 C 0.22342 0.76094 0.87936 0.0
H324 H 0.81446 0.83731 0.88404 0.0
C325 C 0.77978 0.84728 0.86148 0.0
H326 H 0.73351 0.84059 0.78508 0.0
H327 H 0.9523 0.82115 0.72001 0.0
H328 H 0.96923 0.90716 0.76574 0.0
H329 H 0.90932 0.94935 0.81475 0.0
H330 H 0.8339 0.90484 0.82103 0.0
C331 C 0.76795 0.83093 0.80829 0.0
C332 C 0.80379 0.80586 0.77777 0.0
C333 C 0.84748 0.83319 0.77379 0.0
C334 C 0.88024 0.81011 0.7422 0.0
C335 C 0.92484 0.83737 0.74119 0.0
C336 C 0.93528 0.88682 0.76763 0.0
C337 C 0.90178 0.91041 0.79559 0.0
C338 C 0.85857 0.88411 0.79907 0.0
H339 H 0.84888 0.75629 0.60455 0.0
C340 C 0.88649 0.74795 0.62085 0.0
H341 H 0.93693 0.73628 0.68859 0.0
H342 H 0.72408 0.74297 0.77738 0.0
H343 H 0.70438 0.65855 0.72595 0.0
H344 H 0.759 0.62048 0.6672 0.0
H345 H 0.83393 0.66659 0.6596 0.0
C346 C 0.89842 0.74155 0.67198 0.0
C347 C 0.8672 0.7615 0.7108 0.0
C348 C 0.82365 0.73429 0.7146 0.0
C349 C 0.79211 0.75634 0.74848 0.0
C350 C 0.74908 0.72811 0.75197 0.0
C351 C 0.73743 0.67963 0.72278 0.0
C352 C 0.76819 0.6582 0.68966 0.0
C353 C 0.81091 0.68504 0.68549 0.0
H354 H 0.16489 0.89541 0.17638 0.0
C355 C 0.18944 0.92215 0.20706 0.0
H356 H 0.22051 0.94404 0.28919 0.0
H357 H 0.03603 0.78881 0.30707 0.0
H358 H 0.98024 0.8461 0.26853 0.0
H359 H 0.01265 0.91775 0.23513 0.0
H360 H 0.10107 0.93222 0.23988 0.0
C361 C 0.19519 0.91759 0.25882 0.0
C362 C 0.17434 0.87367 0.27687 0.0
C363 C 0.12262 0.86634 0.27468 0.0
C364 C 0.1041 0.82587 0.29537 0.0
C365 C 0.05222 0.81909 0.29229 0.0
C366 C 0.01973 0.85176 0.27033 0.0
C367 C 0.03798 0.89204 0.25146 0.0
C368 C 0.08879 0.89962 0.25387 0.0
H369 H 0.1337 0.79621 0.42206 0.0
C370 C 0.11541 0.7621 0.39633 0.0
H371 H 0.0962 0.72209 0.31705 0.0
H372 H 0.27556 0.87653 0.28711 0.0
H373 H 0.33139 0.82146 0.32954 0.0
H374 H 0.29921 0.75297 0.36773 0.0
H375 H 0.2107 0.73916 0.36359 0.0
C376 C 0.11759 0.7538 0.34422 0.0
C377 C 0.13745 0.79404 0.32008 0.0
C378 C 0.18905 0.80153 0.32269 0.0
C379 C 0.20752 0.84121 0.30088 0.0
C380 C 0.25938 0.84748 0.30363 0.0
C381 C 0.2919 0.81598 0.3277 0.0
C382 C 0.27377 0.7774 0.34918 0.0
C383 C 0.22296 0.76996 0.34666 0.0
H384 H 0.15829 0.19195 0.70288 0.0
C385 C 0.13865 0.21804 0.72674 0.0
H386 H 0.12708 0.24855 0.8033 0.0
H387 H 0.25444 0.04606 0.84054 0.0
H388 H 0.19677 -0.00124 0.76633 0.0
H389 H 0.12761 0.03861 0.71747 0.0
H390 H 0.12024 0.12789 0.73906 0.0
C391 C 0.14776 0.22261 0.78047 0.0
C392 C 0.18677 0.19625 0.812 0.0
C393 C 0.18752 0.14316 0.80207 0.0
C394 C 0.22379 0.11917 0.83456 0.0
C395 C 0.22638 0.06662 0.82019 0.0
C396 C 0.19311 0.03854 0.77723 0.0
C397 C 0.15481 0.06116 0.74918 0.0
C398 C 0.15156 0.11275 0.76156 0.0
H399 H 0.25639 0.16551 0.98776 0.0
C400 C 0.27014 0.1297 0.97351 0.0
H401 H 0.29548 0.08505 0.91279 0.0
H402 H 0.19966 0.29876 0.83954 0.0
H403 H 0.25949 0.34681 0.91328 0.0
H404 H 0.31963 0.30461 0.97141 0.0
H405 H 0.31979 0.21366 0.95617 0.0
C406 C 0.28055 0.12077 0.9242 0.0
C407 C 0.25517 0.14752 0.88114 0.0
C408 C 0.25627 0.20064 0.88921 0.0
C409 C 0.22209 0.22495 0.85487 0.0
C410 C 0.22414 0.2781 0.8645 0.0
C411 C 0.25861 0.30626 0.90654 0.0
C412 C 0.29241 0.2825 0.93932 0.0
C413 C 0.29171 0.23035 0.93062 0.0
H414 H 0.80139 0.15123 0.14125 0.0
C415 C 0.79183 0.11551 0.15151 0.0
H416 H 0.78265 0.07608 0.2119 0.0
H417 H 0.9518 0.1897 0.39053 0.0
H418 H -0.01227 0.11202 0.36318 0.0
H419 H 0.94545 0.0512 0.28416 0.0
H420 H 0.86759 0.06816 0.23207 0.0
C421 C 0.79018 0.11289 0.20274 0.0
C422 C 0.81548 0.152 0.24944 0.0
C423 C 0.86122 0.14156 0.28045 0.0
C424 C 0.88516 0.17637 0.32679 0.0
C425 C 0.93133 0.16477 0.35565 0.0
C426 C 0.95264 0.12017 0.3403 0.0
C427 C 0.92893 0.086 0.29582 0.0
C428 C 0.884 0.09641 0.26611 0.0
H429 H 0.83431 0.24236 0.43847 0.0
C430 C 0.87291 0.2546 0.44128 0.0
H431 H 0.92639 0.26711 0.3972 0.0
H432 H 0.72826 0.18343 0.20075 0.0
H433 H 0.69046 0.26043 0.2299 0.0
H434 H 0.73111 0.31998 0.31095 0.0
H435 H 0.80985 0.30309 0.36364 0.0
C436 C 0.88754 0.25602 0.3947 0.0
C437 C 0.86252 0.22109 0.34403 0.0
C438 C 0.8167 0.23138 0.31323 0.0
C439 C 0.79336 0.19705 0.26585 0.0
C440 C 0.74757 0.20835 0.23652 0.0
C441 C 0.72553 0.25232 0.25287 0.0
C442 C 0.74841 0.28586 0.29858 0.0
C443 C 0.79348 0.27572 0.32853 0.0
loop_
_geom_bond_atom_site_label_1
_geom_bond_atom_site_label_2
_geom_bond_distance
_geom_bond_site_symmetry_2
_ccdc_geom_bond_type
O0 Mg1 1.990 . S
O0 C14 1.253 . S
Mg1 O0 1.990 . S
Mg1 O4 2.180 1_556 S
Mg1 O5 2.117 1_556 S
Mg1 O19 2.030 1_545 S
O2 Mg3 2.072 . S
O2 C14 1.260 1_554 S
Mg3 O2 2.072 . S
Mg3 O4 2.099 . S
Mg3 O6 2.079 1_545 S
Mg3 O7 2.072 . S
Mg3 O9 2.099 . S
Mg3 O20 2.079 1_544 S
O4 Mg1 2.180 1_554 S
O4 Mg3 2.099 . S
O4 C15 1.279 . S
O5 Mg1 2.117 1_554 S
O5 C15 1.250 . S
O6 Mg3 2.079 1_565 S
O6 C16 1.264 . S
O7 Mg3 2.072 . S
O7 C17 1.260 . S
Mg8 O9 2.180 . S
Mg8 O10 2.030 1_545 S
Mg8 O11 1.990 . S
Mg8 O12 2.117 . S
O9 Mg3 2.099 . S
O9 Mg8 2.180 . S
O9 C18 1.279 . S
O10 Mg8 2.030 1_565 S
O10 C16 1.248 . S
O11 Mg8 1.990 . S
O11 C17 1.253 . S
O12 Mg8 2.117 . S
O12 C18 1.250 . S
C13 O19 1.248 . S
C13 O20 1.264 . S
C14 O0 1.253 . S
C14 O2 1.260 1_556 S
C15 O4 1.279 . S
C15 O5 1.250 . S
C16 O6 1.264 . S
C16 O10 1.248 . S
C17 O7 1.260 . S
C17 O11 1.253 . S
C18 O9 1.279 . S
C18 O12 1.250 . S
O19 Mg1 2.030 1_565 S
O19 C13 1.248 . S
O20 Mg3 2.079 1_566 S
O20 C13 1.264 . S
O21 Mg22 1.990 1_655 S
O21 C35 1.253 . S
Mg22 O21 1.990 1_455 S
Mg22 O25 2.180 . S
Mg22 O26 2.117 1_455 S
Mg22 O40 2.030 . S
O23 Mg24 2.072 1_655 S
O23 C35 1.260 . S
Mg24 O23 2.072 1_455 S
Mg24 O25 2.099 . S
Mg24 O27 2.079 . S
Mg24 O28 2.072 1_455 S
Mg24 O30 2.099 . S
Mg24 O41 2.079 . S
O25 Mg22 2.180 . S
O25 Mg24 2.099 . S
O25 C36 1.279 . S
O26 Mg22 2.117 1_655 S
O26 C36 1.250 1_655 S
O27 Mg24 2.079 . S
O27 C37 1.264 . S
O28 Mg24 2.072 1_655 S
O28 C38 1.260 . S
Mg29 O30 2.180 . S
Mg29 O31 2.030 . S
Mg29 O32 1.990 1_455 S
Mg29 O33 2.117 1_455 S
O30 Mg24 2.099 . S
O30 Mg29 2.180 . S
O30 C39 1.279 . S
O31 Mg29 2.030 . S
O31 C37 1.248 . S
O32 Mg29 1.990 1_655 S
O32 C38 1.253 . S
O33 Mg29 2.117 1_655 S
O33 C39 1.250 1_655 S
C34 O40 1.248 . S
C34 O41 1.264 . S
C35 O21 1.253 . S
C35 O23 1.260 . S
C36 O25 1.279 . S
C36 O26 1.250 1_455 S
C37 O27 1.264 . S
C37 O31 1.248 . S
C38 O28 1.260 . S
C38 O32 1.253 . S
C39 O30 1.279 . S
C39 O33 1.250 1_455 S
O40 Mg22 2.030 . S
O40 C34 1.248 . S
O41 Mg24 2.079 . S
O41 C34 1.264 . S
O42 Mg43 1.990 1_545 S
O42 C56 1.253 . S
Mg43 O42 1.990 1_565 S
Mg43 O46 2.180 . S
Mg43 O47 2.117 1_565 S
Mg43 O61 2.030 . S
O44 Mg45 2.072 1_546 S
O44 C56 1.260 . S
Mg45 O44 2.072 1_564 S
Mg45 O46 2.099 1_554 S
Mg45 O48 2.079 . S
Mg45 O49 2.072 1_565 S
Mg45 O51 2.099 . S
Mg45 O62 2.079 1_554 S
O46 Mg43 2.180 . S
O46 Mg45 2.099 1_556 S
O46 C57 1.279 1_565 S
O47 Mg43 2.117 1_545 S
O47 C57 1.250 . S
O48 Mg45 2.079 . S
O48 C58 1.264 . S
O49 Mg45 2.072 1_545 S
O49 C59 1.260 . S
Mg50 O51 2.181 1_545 S
Mg50 O52 2.020 1_545 S
Mg50 O53 2.003 . S
Mg50 O54 2.124 . S
O51 Mg45 2.099 . S
O51 Mg50 2.181 1_565 S
O51 C60 1.279 1_565 S
O52 Mg50 2.020 1_565 S
O52 C58 1.248 . S
O53 Mg50 2.003 . S
O53 C59 1.253 . S
O54 Mg50 2.124 . S
O54 C60 1.250 . S
C55 O61 1.248 . S
C55 O62 1.264 . S
C56 O42 1.253 . S
C56 O44 1.260 . S
C57 O46 1.279 1_545 S
C57 O47 1.250 . S
C58 O48 1.264 . S
C58 O52 1.248 . S
C59 O49 1.260 . S
C59 O53 1.253 . S
C60 O51 1.279 1_545 S
C60 O54 1.250 . S
O61 Mg43 2.030 . S
O61 C55 1.248 . S
O62 Mg45 2.079 1_556 S
O62 C55 1.264 . S
O63 Mg64 1.990 1_655 S
O63 C77 1.253 . S
Mg64 O63 1.990 1_455 S
Mg64 O67 2.180 . S
Mg64 O68 2.117 1_455 S
Mg64 O82 2.030 . S
O65 Mg66 2.072 1_655 S
O65 C77 1.260 . S
Mg66 O65 2.072 1_455 S
Mg66 O67 2.099 . S
Mg66 O69 2.079 . S
Mg66 O70 2.072 1_455 S
Mg66 O72 2.099 . S
Mg66 O83 2.079 . S
O67 Mg64 2.180 . S
O67 Mg66 2.099 . S
O67 C78 1.279 1_455 S
O68 Mg64 2.117 1_655 S
O68 C78 1.250 . S
O69 Mg66 2.079 . S
O69 C79 1.264 . S
O70 Mg66 2.072 1_655 S
O70 C80 1.260 . S
Mg71 O72 2.180 . S
Mg71 O73 2.030 . S
Mg71 O74 1.990 1_455 S
Mg71 O75 2.117 1_455 S
O72 Mg66 2.099 . S
O72 Mg71 2.180 . S
O72 C81 1.279 1_455 S
O73 Mg71 2.030 . S
O73 C79 1.248 . S
O74 Mg71 1.990 1_655 S
O74 C80 1.253 . S
O75 Mg71 2.117 1_655 S
O75 C81 1.250 . S
C76 O82 1.248 . S
C76 O83 1.264 . S
C77 O63 1.253 . S
C77 O65 1.260 . S
C78 O67 1.279 1_655 S
C78 O68 1.250 . S
C79 O69 1.264 . S
C79 O73 1.248 . S
C80 O70 1.260 . S
C80 O74 1.253 . S
C81 O72 1.279 1_655 S
C81 O75 1.250 . S
O82 Mg64 2.030 . S
O82 C76 1.248 . S
O83 Mg66 2.079 . S
O83 C76 1.264 . S
H84 C85 0.951 . S
C85 H84 0.951 . S
C85 C91 1.265 1_556 S
H86 C91 0.950 . S
H87 C95 0.949 . S
H88 C96 0.950 . S
H89 C97 0.951 . S
H90 C98 0.951 . S
C91 C85 1.265 1_554 S
C91 H86 0.950 . S
C91 C92 1.478 . S
C92 C91 1.478 . S
C92 C93 1.397 1_545 S
C92 C109 1.394 . S
C93 C92 1.397 1_565 S
C93 C94 1.438 1_655 S
C93 C98 1.429 . S
C94 C93 1.438 1_455 S
C94 C95 1.428 . S
C94 C107 1.394 1_565 S
C95 H87 0.949 . S
C95 C94 1.428 . S
C95 C96 1.345 . S
C96 H88 0.950 . S
C96 C95 1.345 . S
C96 C97 1.424 1_455 S
C97 H89 0.951 . S
C97 C96 1.424 1_655 S
C97 C98 1.347 . S
C98 H90 0.951 . S
C98 C93 1.429 . S
C98 C97 1.347 . S
H99 C100 0.951 . S
C100 H99 0.951 . S
C100 C106 1.265 . S
H101 C106 0.950 . S
H102 C110 0.949 . S
H103 C111 0.950 . S
H104 C112 0.951 . S
H105 C113 0.951 . S
C106 C100 1.265 . S
C106 H101 0.950 . S
C106 C107 1.478 . S
C107 C94 1.394 1_545 S
C107 C106 1.478 . S
C107 C108 1.397 . S
C108 C107 1.397 . S
C108 C109 1.438 1_455 S
C108 C113 1.429 1_554 S
C109 C92 1.394 . S
C109 C108 1.438 1_655 S
C109 C110 1.428 1_554 S
C110 H102 0.949 . S
C110 C109 1.428 1_556 S
C110 C111 1.345 . S
C111 H103 0.950 . S
C111 C110 1.345 . S
C111 C112 1.424 1_655 S
C112 H104 0.951 . S
C112 C111 1.424 1_455 S
C112 C113 1.347 . S
C113 H105 0.951 . S
C113 C108 1.429 1_556 S
C113 C112 1.347 . S
H114 C115 0.951 1_455 S
C115 H114 0.951 1_655 S
C115 C121 1.265 . S
H116 C121 0.950 . S
H117 C125 0.949 . S
H118 C126 0.950 . S
H119 C127 0.951 . S
H120 C128 0.951 . S
C121 C115 1.265 . S
C121 H116 0.950 . S
C121 C122 1.478 . S
C122 C121 1.478 . S
C122 C123 1.397 . S
C122 C139 1.394 1_655 S
C123 C122 1.397 . S
C123 C124 1.438 1_565 S
C123 C128 1.429 . S
C124 C123 1.438 1_545 S
C124 C125 1.428 . S
C124 C137 1.394 1_655 S
C125 H117 0.949 . S
C125 C124 1.428 . S
C125 C126 1.345 . S
C126 H118 0.950 . S
C126 C125 1.345 . S
C126 C127 1.424 1_545 S
C127 H119 0.951 . S
C127 C126 1.424 1_565 S
C127 C128 1.347 . S
C128 H120 0.951 . S
C128 C123 1.429 . S
C128 C127 1.347 . S
H129 C130 0.951 1_655 S
C130 H129 0.951 1_455 S
C130 C136 1.265 . S
H131 C136 0.950 . S
H132 C140 0.949 . S
H133 C141 0.950 . S
H134 C142 0.951 . S
H135 C143 0.951 . S
C136 C130 1.265 . S
C136 H131 0.950 . S
C136 C137 1.478 . S
C137 C124 1.394 1_455 S
C137 C136 1.478 . S
C137 C138 1.397 . S
C138 C137 1.397 . S
C138 C139 1.438 1_545 S
C138 C143 1.429 . S
C139 C122 1.394 1_455 S
C139 C138 1.438 1_565 S
C139 C140 1.428 . S
C140 H132 0.949 . S
C140 C139 1.428 . S
C140 C141 1.345 . S
C141 H133 0.950 . S
C141 C140 1.345 . S
C141 C142 1.424 1_565 S
C142 H134 0.951 . S
C142 C141 1.424 1_545 S
C142 C143 1.347 . S
C143 H135 0.951 . S
C143 C138 1.429 . S
C143 C142 1.347 . S
H144 C145 0.951 . S
C145 H144 0.951 . S
C145 C151 1.265 1_554 S
H146 C151 0.950 1_565 S
H147 C155 0.949 . S
H148 C156 0.950 . S
H149 C157 0.951 . S
H150 C158 0.951 . S
C151 C145 1.265 1_556 S
C151 H146 0.950 1_545 S
C151 C152 1.478 1_556 S
C152 C151 1.478 1_554 S
C152 C153 1.397 1_545 S
C152 C169 1.394 . S
C153 C152 1.397 1_565 S
C153 C154 1.438 . S
C153 C158 1.429 1_554 S
C154 C153 1.438 . S
C154 C155 1.428 . S
C154 C167 1.394 1_565 S
C155 H147 0.949 . S
C155 C154 1.428 . S
C155 C156 1.345 1_554 S
C156 H148 0.950 . S
C156 C155 1.345 1_556 S
C156 C157 1.424 . S
C157 H149 0.951 . S
C157 C156 1.424 . S
C157 C158 1.347 . S
C158 H150 0.951 . S
C158 C153 1.429 1_556 S
C158 C157 1.347 . S
H159 C160 0.951 . S
C160 H159 0.951 . S
C160 C166 1.265 . S
H161 C166 0.950 . S
H162 C170 0.949 . S
H163 C171 0.950 . S
H164 C172 0.951 . S
H165 C173 0.951 . S
C166 C160 1.265 . S
C166 H161 0.950 . S
C166 C167 1.478 . S
C167 C154 1.394 1_545 S
C167 C166 1.478 . S
C167 C168 1.397 . S
C168 C167 1.397 . S
C168 C169 1.438 . S
C168 C173 1.429 . S
C169 C152 1.394 . S
C169 C168 1.438 . S
C169 C170 1.428 . S
C170 H162 0.949 . S
C170 C169 1.428 . S
C170 C171 1.345 . S
C171 H163 0.950 . S
C171 C170 1.345 . S
C171 C172 1.424 . S
C172 H164 0.951 . S
C172 C171 1.424 . S
C172 C173 1.347 . S
C173 H165 0.951 . S
C173 C168 1.429 . S
C173 C172 1.347 . S
H174 C175 0.951 1_655 S
C175 H174 0.951 1_455 S
C175 C181 1.265 . S
H176 C181 0.950 . S
H177 C185 0.949 . S
H178 C186 0.950 . S
H179 C187 0.951 . S
H180 C188 0.951 . S
C181 C175 1.265 . S
C181 H176 0.950 . S
C181 C182 1.478 . S
C182 C181 1.478 . S
C182 C183 1.397 . S
C182 C199 1.394 . S
C183 C182 1.397 . S
C183 C184 1.436 1_455 S
C183 C188 1.429 . S
C184 C183 1.436 1_655 S
C184 C185 1.427 . S
C184 C197 1.397 . S
C185 H177 0.949 . S
C185 C184 1.427 . S
C185 C186 1.345 1_655 S
C186 H178 0.950 . S
C186 C185 1.345 1_455 S
C186 C187 1.424 . S
C187 H179 0.951 . S
C187 C186 1.424 . S
C187 C188 1.347 . S
C188 H180 0.951 . S
C188 C183 1.429 . S
C188 C187 1.347 . S
H189 C190 0.951 1_455 S
C190 H189 0.951 1_655 S
C190 C196 1.265 . S
H191 C196 0.950 . S
H192 C200 0.949 . S
H193 C201 0.950 1_455 S
H194 C202 0.951 . S
H195 C203 0.951 . S
C196 C190 1.265 . S
C196 H191 0.950 . S
C196 C197 1.478 . S
C197 C184 1.397 . S
C197 C196 1.478 . S
C197 C198 1.397 . S
C198 C197 1.397 . S
C198 C199 1.438 1_655 S
C198 C203 1.429 . S
C199 C182 1.394 . S
C199 C198 1.438 1_455 S
C199 C200 1.428 . S
C200 H192 0.949 . S
C200 C199 1.428 . S
C200 C201 1.342 1_455 S
C201 H193 0.950 1_655 S
C201 C200 1.342 1_655 S
C201 C202 1.426 . S
C202 H194 0.951 . S
C202 C201 1.426 . S
C202 C203 1.347 . S
C203 H195 0.951 . S
C203 C198 1.429 . S
C203 C202 1.347 . S
H204 C205 0.951 . S
C205 H204 0.951 . S
C205 C211 1.265 . S
H206 C211 0.950 . S
H207 C215 0.949 . S
H208 C216 0.950 . S
H209 C217 0.951 . S
H210 C218 0.951 . S
C211 C205 1.265 . S
C211 H206 0.950 . S
C211 C212 1.478 . S
C212 C211 1.478 . S
C212 C213 1.397 . S
C212 C229 1.394 . S
C213 C212 1.397 . S
C213 C214 1.438 . S
C213 C218 1.429 . S
C214 C213 1.438 . S
C214 C215 1.428 . S
C214 C227 1.394 . S
C215 H207 0.949 . S
C215 C214 1.428 . S
C215 C216 1.345 . S
C216 H208 0.950 . S
C216 C215 1.345 . S
C216 C217 1.424 . S
C217 H209 0.951 . S
C217 C216 1.424 . S
C217 C218 1.347 . S
C218 H210 0.951 . S
C218 C213 1.429 . S
C218 C217 1.347 . S
H219 C220 0.951 . S
C220 H219 0.951 . S
C220 C226 1.265 . S
H221 C226 0.950 . S
H222 C230 0.949 . S
H223 C231 0.950 . S
H224 C232 0.951 . S
H225 C233 0.951 . S
C226 C220 1.265 . S
C226 H221 0.950 . S
C226 C227 1.478 . S
C227 C214 1.394 . S
C227 C226 1.478 . S
C227 C228 1.397 . S
C228 C227 1.397 . S
C228 C229 1.438 . S
C228 C233 1.429 . S
C229 C212 1.394 . S
C229 C228 1.438 . S
C229 C230 1.428 . S
C230 H222 0.949 . S
C230 C229 1.428 . S
C230 C231 1.345 . S
C231 H223 0.950 . S
C231 C230 1.345 . S
C231 C232 1.424 . S
C232 H224 0.951 . S
C232 C231 1.424 . S
C232 C233 1.347 . S
C233 H225 0.951 . S
C233 C228 1.429 . S
C233 C232 1.347 . S
H234 C235 0.951 . S
C235 H234 0.951 . S
C235 C241 1.265 . S
H236 C241 0.950 . S
H237 C245 0.949 . S
H238 C246 0.950 . S
H239 C247 0.951 . S
H240 C248 0.951 . S
C241 C235 1.265 . S
C241 H236 0.950 . S
C241 C242 1.478 . S
C242 C241 1.478 . S
C242 C243 1.397 . S
C242 C259 1.394 . S
C243 C242 1.397 . S
C243 C244 1.438 . S
C243 C248 1.429 . S
C244 C243 1.438 . S
C244 C245 1.428 . S
C244 C257 1.394 . S
C245 H237 0.949 . S
C245 C244 1.428 . S
C245 C246 1.345 . S
C246 H238 0.950 . S
C246 C245 1.345 . S
C246 C247 1.424 . S
C247 H239 0.951 . S
C247 C246 1.424 . S
C247 C248 1.347 . S
C248 H240 0.951 . S
C248 C243 1.429 . S
C248 C247 1.347 . S
H249 C250 0.951 . S
C250 H249 0.951 . S
C250 C256 1.265 . S
H251 C256 0.950 . S
H252 C260 0.949 . S
H253 C261 0.950 . S
H254 C262 0.951 . S
H255 C263 0.951 . S
C256 C250 1.265 . S
C256 H251 0.950 . S
C256 C257 1.478 . S
C257 C244 1.394 . S
C257 C256 1.478 . S
C257 C258 1.397 . S
C258 C257 1.397 . S
C258 C259 1.438 . S
C258 C263 1.429 . S
C259 C242 1.394 . S
C259 C258 1.438 . S
C259 C260 1.428 . S
C260 H252 0.949 . S
C260 C259 1.428 . S
C260 C261 1.345 . S
C261 H253 0.950 . S
C261 C260 1.345 . S
C261 C262 1.424 . S
C262 H254 0.951 . S
C262 C261 1.424 . S
C262 C263 1.347 . S
C263 H255 0.951 . S
C263 C258 1.429 . S
C263 C262 1.347 . S
H264 C265 0.951 . S
C265 H264 0.951 . S
C265 C271 1.265 . S
H266 C271 0.950 . S
H267 C275 0.949 . S
H268 C276 0.950 . S
H269 C277 0.951 . S
H270 C278 0.951 . S
C271 C265 1.265 . S
C271 H266 0.950 . S
C271 C272 1.478 . S
C272 C271 1.478 . S
C272 C273 1.397 . S
C272 C289 1.394 . S
C273 C272 1.397 . S
C273 C274 1.438 . S
C273 C278 1.429 . S
C274 C273 1.438 . S
C274 C275 1.428 . S
C274 C287 1.394 . S
C275 H267 0.949 . S
C275 C274 1.428 . S
C275 C276 1.345 . S
C276 H268 0.950 . S
C276 C275 1.345 . S
C276 C277 1.424 . S
C277 H269 0.951 . S
C277 C276 1.424 . S
C277 C278 1.347 . S
C278 H270 0.951 . S
C278 C273 1.429 . S
C278 C277 1.347 . S
H279 C280 0.951 . S
C280 H279 0.951 . S
C280 C286 1.265 . S
H281 C286 0.950 . S
H282 C290 0.949 . S
H283 C291 0.950 . S
H284 C292 0.951 1_545 S
H285 C293 0.951 . S
C286 C280 1.265 . S
C286 H281 0.950 . S
C286 C287 1.478 . S
C287 C274 1.394 . S
C287 C286 1.478 . S
C287 C288 1.397 . S
C288 C287 1.397 . S
C288 C289 1.438 . S
C288 C293 1.429 . S
C289 C272 1.394 . S
C289 C288 1.438 . S
C289 C290 1.428 . S
C290 H282 0.949 . S
C290 C289 1.428 . S
C290 C291 1.345 . S
C291 H283 0.950 . S
C291 C290 1.345 . S
C291 C292 1.424 . S
C292 H284 0.951 1_565 S
C292 C291 1.424 . S
C292 C293 1.347 . S
C293 H285 0.951 . S
C293 C288 1.429 . S
C293 C292 1.347 . S
H294 C295 0.951 . S
C295 H294 0.951 . S
C295 C301 1.265 . S
H296 C301 0.950 . S
H297 C305 0.949 . S
H298 C306 0.950 1_545 S
H299 C307 0.951 . S
H300 C308 0.951 . S
C301 C295 1.265 . S
C301 H296 0.950 . S
C301 C302 1.478 . S
C302 C301 1.478 . S
C302 C303 1.397 . S
C302 C319 1.394 . S
C303 C302 1.397 . S
C303 C304 1.438 . S
C303 C308 1.429 . S
C304 C303 1.438 . S
C304 C305 1.428 . S
C304 C317 1.394 . S
C305 H297 0.949 . S
C305 C304 1.428 . S
C305 C306 1.345 . S
C306 H298 0.950 1_565 S
C306 C305 1.345 . S
C306 C307 1.424 . S
C307 H299 0.951 . S
C307 C306 1.424 . S
C307 C308 1.347 . S
C308 H300 0.951 . S
C308 C303 1.429 . S
C308 C307 1.347 . S
H309 C310 0.951 . S
C310 H309 0.951 . S
C310 C316 1.265 . S
H311 C316 0.950 . S
H312 C320 0.949 . S
H313 C321 0.950 . S
H314 C322 0.951 . S
H315 C323 0.951 . S
C316 C310 1.265 . S
C316 H311 0.950 . S
C316 C317 1.478 . S
C317 C304 1.394 . S
C317 C316 1.478 . S
C317 C318 1.397 . S
C318 C317 1.397 . S
C318 C319 1.438 . S
C318 C323 1.429 . S
C319 C302 1.394 . S
C319 C318 1.438 . S
C319 C320 1.428 . S
C320 H312 0.949 . S
C320 C319 1.428 . S
C320 C321 1.345 . S
C321 H313 0.950 . S
C321 C320 1.345 . S
C321 C322 1.424 . S
C322 H314 0.951 . S
C322 C321 1.424 . S
C322 C323 1.347 . S
C323 H315 0.951 . S
C323 C318 1.429 . S
C323 C322 1.347 . S
H324 C325 0.951 . S
C325 H324 0.951 . S
C325 C331 1.265 . S
H326 C331 0.950 . S
H327 C335 0.949 . S
H328 C336 0.950 . S
H329 C337 0.951 . S
H330 C338 0.951 . S
C331 C325 1.265 . S
C331 H326 0.950 . S
C331 C332 1.478 . S
C332 C331 1.478 . S
C332 C333 1.397 . S
C332 C349 1.394 . S
C333 C332 1.397 . S
C333 C334 1.438 . S
C333 C338 1.429 . S
C334 C333 1.438 . S
C334 C335 1.428 . S
C334 C347 1.394 . S
C335 H327 0.949 . S
C335 C334 1.428 . S
C335 C336 1.345 . S
C336 H328 0.950 . S
C336 C335 1.345 . S
C336 C337 1.424 . S
C337 H329 0.951 . S
C337 C336 1.424 . S
C337 C338 1.347 . S
C338 H330 0.951 . S
C338 C333 1.429 . S
C338 C337 1.347 . S
H339 C340 0.951 . S
C340 H339 0.951 . S
C340 C346 1.265 . S
H341 C346 0.950 . S
H342 C350 0.949 . S
H343 C351 0.950 . S
H344 C352 0.951 . S
H345 C353 0.951 . S
C346 C340 1.265 . S
C346 H341 0.950 . S
C346 C347 1.478 . S
C347 C334 1.394 . S
C347 C346 1.478 . S
C347 C348 1.397 . S
C348 C347 1.397 . S
C348 C349 1.438 . S
C348 C353 1.429 . S
C349 C332 1.394 . S
C349 C348 1.438 . S
C349 C350 1.428 . S
C350 H342 0.949 . S
C350 C349 1.428 . S
C350 C351 1.345 . S
C351 H343 0.950 . S
C351 C350 1.345 . S
C351 C352 1.424 . S
C352 H344 0.951 . S
C352 C351 1.424 . S
C352 C353 1.347 . S
C353 H345 0.951 . S
C353 C348 1.429 . S
C353 C352 1.347 . S
H354 C355 0.951 . S
C355 H354 0.951 . S
C355 C361 1.265 . S
H356 C361 0.950 . S
H357 C365 0.949 . S
H358 C366 0.950 1_655 S
H359 C367 0.951 . S
H360 C368 0.951 . S
C361 C355 1.265 . S
C361 H356 0.950 . S
C361 C362 1.478 . S
C362 C361 1.478 . S
C362 C363 1.397 . S
C362 C379 1.394 . S
C363 C362 1.397 . S
C363 C364 1.438 . S
C363 C368 1.429 . S
C364 C363 1.438 . S
C364 C365 1.428 . S
C364 C377 1.394 . S
C365 H357 0.949 . S
C365 C364 1.428 . S
C365 C366 1.345 . S
C366 H358 0.950 1_455 S
C366 C365 1.345 . S
C366 C367 1.424 . S
C367 H359 0.951 . S
C367 C366 1.424 . S
C367 C368 1.347 . S
C368 H360 0.951 . S
C368 C363 1.429 . S
C368 C367 1.347 . S
H369 C370 0.951 . S
C370 H369 0.951 . S
C370 C376 1.265 . S
H371 C376 0.950 . S
H372 C380 0.949 . S
H373 C381 0.950 . S
H374 C382 0.951 . S
H375 C383 0.951 . S
C376 C370 1.265 . S
C376 H371 0.950 . S
C376 C377 1.478 . S
C377 C364 1.394 . S
C377 C376 1.478 . S
C377 C378 1.397 . S
C378 C377 1.397 . S
C378 C379 1.438 . S
C378 C383 1.429 . S
C379 C362 1.394 . S
C379 C378 1.438 . S
C379 C380 1.428 . S
C380 H372 0.949 . S
C380 C379 1.428 . S
C380 C381 1.345 . S
C381 H373 0.950 . S
C381 C380 1.345 . S
C381 C382 1.424 . S
C382 H374 0.951 . S
C382 C381 1.424 . S
C382 C383 1.347 . S
C383 H375 0.951 . S
C383 C378 1.429 . S
C383 C382 1.347 . S
H384 C385 0.951 . S
C385 H384 0.951 . S
C385 C391 1.265 . S
H386 C391 0.950 . S
H387 C395 0.949 . S
H388 C396 0.950 1_565 S
H389 C397 0.951 . S
H390 C398 0.951 . S
C391 C385 1.265 . S
C391 H386 0.950 . S
C391 C392 1.478 . S
C392 C391 1.478 . S
C392 C393 1.397 . S
C392 C409 1.394 . S
C393 C392 1.397 . S
C393 C394 1.438 . S
C393 C398 1.429 . S
C394 C393 1.438 . S
C394 C395 1.428 . S
C394 C407 1.394 . S
C395 H387 0.949 . S
C395 C394 1.428 . S
C395 C396 1.345 . S
C396 H388 0.950 1_545 S
C396 C395 1.345 . S
C396 C397 1.424 . S
C397 H389 0.951 . S
C397 C396 1.424 . S
C397 C398 1.347 . S
C398 H390 0.951 . S
C398 C393 1.429 . S
C398 C397 1.347 . S
H399 C400 0.951 . S
C400 H399 0.951 . S
C400 C406 1.265 . S
H401 C406 0.950 . S
H402 C410 0.949 . S
H403 C411 0.950 . S
H404 C412 0.951 . S
H405 C413 0.951 . S
C406 C400 1.265 . S
C406 H401 0.950 . S
C406 C407 1.478 . S
C407 C394 1.394 . S
C407 C406 1.478 . S
C407 C408 1.397 . S
C408 C407 1.397 . S
C408 C409 1.438 . S
C408 C413 1.429 . S
C409 C392 1.394 . S
C409 C408 1.438 . S
C409 C410 1.428 . S
C410 H402 0.949 . S
C410 C409 1.428 . S
C410 C411 1.345 . S
C411 H403 0.950 . S
C411 C410 1.345 . S
C411 C412 1.424 . S
C412 H404 0.951 . S
C412 C411 1.424 . S
C412 C413 1.347 . S
C413 H405 0.951 . S
C413 C408 1.429 . S
C413 C412 1.347 . S
H414 C415 0.951 . S
C415 H414 0.951 . S
C415 C421 1.265 . S
H416 C421 0.950 . S
H417 C425 0.949 . S
H418 C426 0.950 . S
H419 C427 0.951 . S
H420 C428 0.951 . S
C421 C415 1.265 . S
C421 H416 0.950 . S
C421 C422 1.478 . S
C422 C421 1.478 . S
C422 C423 1.397 . S
C422 C439 1.394 . S
C423 C422 1.397 . S
C423 C424 1.438 . S
C423 C428 1.429 . S
C424 C423 1.438 . S
C424 C425 1.428 . S
C424 C437 1.394 . S
C425 H417 0.949 . S
C425 C424 1.428 . S
C425 C426 1.345 . S
C426 H418 0.950 . S
C426 C425 1.345 . S
C426 C427 1.424 . S
C427 H419 0.951 . S
C427 C426 1.424 . S
C427 C428 1.347 . S
C428 H420 0.951 . S
C428 C423 1.429 . S
C428 C427 1.347 . S
H429 C430 0.951 . S
C430 H429 0.951 . S
C430 C436 1.265 . S
H431 C436 0.950 . S
H432 C440 0.949 . S
H433 C441 0.950 . S
H434 C442 0.951 . S
H435 C443 0.951 . S
C436 C430 1.265 . S
C436 H431 0.950 . S
C436 C437 1.478 . S
C437 C424 1.394 . S
C437 C436 1.478 . S
C437 C438 1.397 . S
C438 C437 1.397 . S
C438 C439 1.438 . S
C438 C443 1.429 . S
C439 C422 1.394 . S
C439 C438 1.438 . S
C439 C440 1.428 . S
C440 H432 0.949 . S
C440 C439 1.428 . S
C440 C441 1.345 . S
C441 H433 0.950 . S
C441 C440 1.345 . S
C441 C442 1.424 . S
C442 H434 0.951 . S
C442 C441 1.424 . S
C442 C443 1.347 . S
C443 H435 0.951 . S
C443 C438 1.429 . S
C443 C442 1.347 . S
C85 C60 1.310 1_556 S
C100 C15 1.311 . S
C115 C81 1.148 . S
C130 C39 1.149 . S
C145 C57 0.944 1_554 S
C160 C18 0.945 . S
C175 C36 0.780 . S
C190 C78 0.781 . S
C205 C37 1.191 . S
C220 C17 1.407 . S
C235 C35 1.782 . S
C250 C56 1.774 . S
C265 C77 1.445 . S
C280 C58 1.217 . S
C295 C79 1.009 . S
C310 C13 1.035 . S
C325 C55 1.475 . S
C340 C80 1.241 . S
C355 C16 1.660 . S
C370 C76 1.628 . S
C385 C34 1.475 . S
C400 C14 1.199 . S
C415 C59 1.137 . S
C430 C38 1.080 . S
