# Generated by pormake.
# Topology whz, (6)-cn, num edge types: 1
# Building blocks:
#     Node 0, Type 0, BuildingBlock: UKALOJ_clean_sbu_0, # of connection points: 6
#     Node 1, Type 0, BuildingBlock: UKALOJ_clean_sbu_0, # of connection points: 6
#     Node 2, Type 0, BuildingBlock: UKALOJ_clean_sbu_0, # of connection points: 6
#     Node 3, Type 0, BuildingBlock: UKALOJ_clean_sbu_0, # of connection points: 6
#     Node 4, Type 0, BuildingBlock: UKALOJ_clean_sbu_0, # of connection points: 6
#     Node 5, Type 0, BuildingBlock: UKALOJ_clean_sbu_0, # of connection points: 6
#     Node 6, Type 0, BuildingBlock: UKALOJ_clean_sbu_0, # of connection points: 6
#     Node 7, Type 0, BuildingBlock: UKALOJ_clean_sbu_0, # of connection points: 6
#     Node 8, Type 0, BuildingBlock: UKALOJ_clean_sbu_0, # of connection points: 6
#     Node 9, Type 0, BuildingBlock: UKALOJ_clean_sbu_0, # of connection points: 6
#     Node 10, Type 0, BuildingBlock: UKALOJ_clean_sbu_0, # of connection points: 6
#     Node 11, Type 0, BuildingBlock: UKALOJ_clean_sbu_0, # of connection points: 6
#     Node 12, Type 0, BuildingBlock: UKALOJ_clean_sbu_0, # of connection points: 6
#     Node 13, Type 0, BuildingBlock: UKALOJ_clean_sbu_0, # of connection points: 6
#     Node 14, Type 0, BuildingBlock: UKALOJ_clean_sbu_0, # of connection points: 6
#     Node 15, Type 0, BuildingBlock: UKALOJ_clean_sbu_0, # of connection points: 6
#     Edge 16, Type (0, 0), BuildingBlock: CIFDUS_clean_linker_0, # of connection points: 2
#     Edge 17, Type (0, 0), BuildingBlock: CIFDUS_clean_linker_0, # of connection points: 2
#     Edge 18, Type (0, 0), BuildingBlock: CIFDUS_clean_linker_0, # of connection points: 2
#     Edge 19, Type (0, 0), BuildingBlock: CIFDUS_clean_linker_0, # of connection points: 2
#     Edge 20, Type (0, 0), BuildingBlock: CIFDUS_clean_linker_0, # of connection points: 2
#     Edge 21, Type (0, 0), BuildingBlock: CIFDUS_clean_linker_0, # of connection points: 2
#     Edge 22, Type (0, 0), BuildingBlock: CIFDUS_clean_linker_0, # of connection points: 2
#     Edge 23, Type (0, 0), BuildingBlock: CIFDUS_clean_linker_0, # of connection points: 2
#     Edge 24, Type (0, 0), BuildingBlock: CIFDUS_clean_linker_0, # of connection points: 2
#     Edge 25, Type (0, 0), BuildingBlock: CIFDUS_clean_linker_0, # of connection points: 2
#     Edge 26, Type (0, 0), BuildingBlock: CIFDUS_clean_linker_0, # of connection points: 2
#     Edge 27, Type (0, 0), BuildingBlock: CIFDUS_clean_linker_0, # of connection points: 2
#     Edge 28, Type (0, 0), BuildingBlock: CIFDUS_clean_linker_0, # of connection points: 2
#     Edge 29, Type (0, 0), BuildingBlock: CIFDUS_clean_linker_0, # of connection points: 2
#     Edge 30, Type (0, 0), BuildingBlock: CIFDUS_clean_linker_0, # of connection points: 2
#     Edge 31, Type (0, 0), BuildingBlock: CIFDUS_clean_linker_0, # of connection points: 2
#     Edge 32, Type (0, 0), BuildingBlock: CIFDUS_clean_linker_0, # of connection points: 2
#     Edge 33, Type (0, 0), BuildingBlock: CIFDUS_clean_linker_0, # of connection points: 2
#     Edge 34, Type (0, 0), BuildingBlock: CIFDUS_clean_linker_0, # of connection points: 2
#     Edge 35, Type (0, 0), BuildingBlock: CIFDUS_clean_linker_0, # of connection points: 2
#     Edge 36, Type (0, 0), BuildingBlock: CIFDUS_clean_linker_0, # of connection points: 2
#     Edge 37, Type (0, 0), BuildingBlock: CIFDUS_clean_linker_0, # of connection points: 2
#     Edge 38, Type (0, 0), BuildingBlock: CIFDUS_clean_linker_0, # of connection points: 2
#     Edge 39, Type (0, 0), BuildingBlock: CIFDUS_clean_linker_0, # of connection points: 2
#     Edge 40, Type (0, 0), BuildingBlock: CIFDUS_clean_linker_0, # of connection points: 2
#     Edge 41, Type (0, 0), BuildingBlock: CIFDUS_clean_linker_0, # of connection points: 2
#     Edge 42, Type (0, 0), BuildingBlock: CIFDUS_clean_linker_0, # of connection points: 2
#     Edge 43, Type (0, 0), BuildingBlock: CIFDUS_clean_linker_0, # of connection points: 2
#     Edge 44, Type (0, 0), BuildingBlock: CIFDUS_clean_linker_0, # of connection points: 2
#     Edge 45, Type (0, 0), BuildingBlock: CIFDUS_clean_linker_0, # of connection points: 2
#     Edge 46, Type (0, 0), BuildingBlock: CIFDUS_clean_linker_0, # of connection points: 2
#     Edge 47, Type (0, 0), BuildingBlock: CIFDUS_clean_linker_0, # of connection points: 2
#     Edge 48, Type (0, 0), BuildingBlock: CIFDUS_clean_linker_0, # of connection points: 2
#     Edge 49, Type (0, 0), BuildingBlock: CIFDUS_clean_linker_0, # of connection points: 2
#     Edge 50, Type (0, 0), BuildingBlock: CIFDUS_clean_linker_0, # of connection points: 2
#     Edge 51, Type (0, 0), BuildingBlock: CIFDUS_clean_linker_0, # of connection points: 2
#     Edge 52, Type (0, 0), BuildingBlock: CIFDUS_clean_linker_0, # of connection points: 2
#     Edge 53, Type (0, 0), BuildingBlock: CIFDUS_clean_linker_0, # of connection points: 2
#     Edge 54, Type (0, 0), BuildingBlock: CIFDUS_clean_linker_0, # of connection points: 2
#     Edge 55, Type (0, 0), BuildingBlock: CIFDUS_clean_linker_0, # of connection points: 2
#     Edge 56, Type (0, 0), BuildingBlock: CIFDUS_clean_linker_0, # of connection points: 2
#     Edge 57, Type (0, 0), BuildingBlock: CIFDUS_clean_linker_0, # of connection points: 2
#     Edge 58, Type (0, 0), BuildingBlock: CIFDUS_clean_linker_0, # of connection points: 2
#     Edge 59, Type (0, 0), BuildingBlock: CIFDUS_clean_linker_0, # of connection points: 2
#     Edge 60, Type (0, 0), BuildingBlock: CIFDUS_clean_linker_0, # of connection points: 2
#     Edge 61, Type (0, 0), BuildingBlock: CIFDUS_clean_linker_0, # of connection points: 2
#     Edge 62, Type (0, 0), BuildingBlock: CIFDUS_clean_linker_0, # of connection points: 2
#     Edge 63, Type (0, 0), BuildingBlock: CIFDUS_clean_linker_0, # of connection points: 2
# Relax obj value: 0.344
# Max RMSD: 0.237
# Mean RMSD: 0.237
data_MOF--net-whz--node1-UKALOJ_clean_sbu_0--edge1-CIFDUS_clean_linker_0
_symmetry_space_group_name_H-M    P1
_symmetry_Int_Tables_number       1
_symmetry_cell_setting            triclinic
loop_
_symmetry_equiv_pos_as_xyz
'x, y, z'
_cell_length_a     37.134036
_cell_length_b     37.171477
_cell_length_c     40.655971
_cell_angle_alpha  90.353798
_cell_angle_beta   90.020267
_cell_angle_gamma 90.138036
loop_
_atom_site_label
_atom_site_type_symbol
_atom_site_fract_x
_atom_site_fract_y
_atom_site_fract_z
_atom_type_partial_charge
Zn0 Zn 0.30966 0.15737 0.11981 0.0
O1 O 0.30503 0.18763 0.16449 0.0
C2 C 0.31756 0.09162 0.15935 0.0
Zn3 Zn 0.25555 0.1342 0.1314 0.0
C4 C 0.277 0.18578 0.18248 0.0
O5 O 0.25205 0.16389 0.17487 0.0
C6 C 0.28469 0.10784 0.06699 0.0
O7 O 0.22816 0.17623 0.10715 0.0
O8 O 0.2814 0.19899 0.09603 0.0
N9 N 0.20883 0.10779 0.14193 0.0
C10 C 0.17476 0.11805 0.14855 0.0
C11 C 0.17616 0.06078 0.1504 0.0
N12 N 0.20956 0.07223 0.14318 0.0
N13 N 0.15368 0.08893 0.15394 0.0
C14 C 0.38822 0.19041 0.12509 0.0
C15 C 0.39262 0.21543 0.07827 0.0
N16 N 0.35754 0.18299 0.10835 0.0
N17 N 0.36056 0.19851 0.07927 0.0
N18 N 0.41071 0.2109 0.10669 0.0
H19 H 0.40969 0.20061 0.17347 0.0
H20 H 0.41222 0.15463 0.15956 0.0
H21 H 0.36981 0.17244 0.1727 0.0
C22 C 0.39517 0.17909 0.15981 0.0
C23 C 0.16287 0.15643 0.15131 0.0
H24 H 0.18536 0.17387 0.15964 0.0
H25 H 0.14 0.15905 0.16872 0.0
H26 H 0.15406 0.16583 0.12675 0.0
O27 O 0.25877 0.10504 0.08713 0.0
O28 O 0.31138 0.12805 0.07398 0.0
C29 C 0.24725 0.20121 0.09489 0.0
O30 O 0.3371 0.11513 0.14522 0.0
O31 O 0.28357 0.09347 0.15649 0.0
Zn32 Zn 0.59092 0.5566 0.37534 0.0
O33 O 0.56541 0.55686 0.42263 0.0
C34 C 0.66302 0.56671 0.40726 0.0
Zn35 Zn 0.61663 0.50438 0.38788 0.0
C36 C 0.5726 0.53172 0.44271 0.0
O37 O 0.59494 0.50759 0.43467 0.0
C38 C 0.63171 0.52473 0.31878 0.0
O39 O 0.56927 0.47622 0.3724 0.0
O40 O 0.5465 0.52794 0.35729 0.0
N41 N 0.6406 0.4577 0.40135 0.0
C42 C 0.6463 0.42625 0.38559 0.0
C43 C 0.66826 0.42149 0.43391 0.0
N44 N 0.65423 0.45467 0.43131 0.0
N45 N 0.66354 0.4031 0.40561 0.0
C46 C 0.56342 0.63707 0.37616 0.0
C47 C 0.52703 0.6361 0.33561 0.0
N48 N 0.56491 0.60371 0.36281 0.0
N49 N 0.54224 0.60333 0.33763 0.0
N50 N 0.53982 0.65786 0.35951 0.0
H51 H 0.5684 0.66981 0.4199 0.0
H52 H 0.60998 0.65941 0.39924 0.0
H53 H 0.58771 0.62523 0.42296 0.0
C54 C 0.58335 0.64847 0.4065 0.0
C55 C 0.63843 0.42006 0.34978 0.0
H56 H 0.61194 0.43165 0.34322 0.0
H57 H 0.63896 0.39124 0.34288 0.0
H58 H 0.65931 0.43392 0.33499 0.0
O59 O 0.63758 0.50075 0.34017 0.0
O60 O 0.61439 0.55302 0.32681 0.0
C61 C 0.54349 0.49409 0.36004 0.0
O62 O 0.63679 0.58465 0.39548 0.0
O63 O 0.66245 0.53262 0.40488 0.0
Zn64 Zn 0.19584 0.84818 0.62431 0.0
O65 O 0.19035 0.82386 0.67116 0.0
C66 C 0.1986 0.92092 0.65607 0.0
Zn67 Zn 0.25265 0.86648 0.63402 0.0
C68 C 0.21883 0.8237 0.68854 0.0
O69 O 0.2464 0.84062 0.67867 0.0
C70 C 0.23477 0.88491 0.56728 0.0
O71 O 0.2733 0.81883 0.61435 0.0
O72 O 0.21782 0.79894 0.60744 0.0
N73 N 0.30317 0.88237 0.64934 0.0
C74 C 0.33246 0.89581 0.63402 0.0
C75 C 0.34415 0.89527 0.68536 0.0
N76 N 0.3107 0.88195 0.68121 0.0
N77 N 0.35836 0.90423 0.65612 0.0
C78 C 0.11454 0.81839 0.62423 0.0
C79 C 0.10556 0.81522 0.57258 0.0
N80 N 0.14482 0.83068 0.60933 0.0
N81 N 0.13889 0.82854 0.57727 0.0
N82 N 0.08952 0.80832 0.60159 0.0
H83 H 0.12285 0.84163 0.67212 0.0
H84 H 0.1206 0.79322 0.67091 0.0
H85 H 0.07989 0.81918 0.66683 0.0
C86 C 0.10897 0.81824 0.66067 0.0
C87 C 0.33654 0.89868 0.59747 0.0
H88 H 0.3252 0.87435 0.58537 0.0
H89 H 0.36526 0.90141 0.59037 0.0
H90 H 0.32168 0.92263 0.58869 0.0
O91 O 0.25868 0.89014 0.589 0.0
O92 O 0.20502 0.8702 0.5753 0.0
C93 C 0.25166 0.79402 0.60574 0.0
O94 O 0.17552 0.89876 0.64422 0.0
O95 O 0.23188 0.91363 0.65392 0.0
Zn96 Zn 0.88608 0.50537 0.88517 0.0
O97 O 0.93299 0.53052 0.86486 0.0
C98 C 0.86444 0.48111 0.81872 0.0
Zn99 Zn 0.91034 0.45206 0.87321 0.0
C100 C 0.9576 0.51126 0.85193 0.0
O101 O 0.95377 0.47734 0.85072 0.0
C102 C 0.84071 0.44564 0.9103 0.0
O103 O 0.94025 0.45412 0.91829 0.0
O104 O 0.91196 0.50423 0.93017 0.0
N105 N 0.93179 0.40272 0.86034 0.0
C106 C 0.94687 0.37578 0.87769 0.0
C107 C 0.95015 0.36113 0.82704 0.0
N108 N 0.93378 0.39338 0.82891 0.0
N109 N 0.95877 0.34946 0.85731 0.0
C110 C 0.85564 0.58363 0.88224 0.0
C111 C 0.8481 0.59481 0.93331 0.0
N112 N 0.86562 0.55404 0.89887 0.0
N113 N 0.86091 0.56111 0.93056 0.0
N114 N 0.8446 0.60951 0.90335 0.0
H115 H 0.88265 0.57335 0.83634 0.0
H116 H 0.8604 0.61656 0.83885 0.0
H117 H 0.83435 0.57591 0.83389 0.0
C118 C 0.85861 0.58777 0.84571 0.0
C119 C 0.94785 0.37433 0.91448 0.0
H120 H 0.97178 0.38936 0.92351 0.0
H121 H 0.94967 0.34614 0.92311 0.0
H122 H 0.92333 0.38699 0.92493 0.0
O123 O 0.86595 0.42693 0.89765 0.0
O124 O 0.8412 0.47962 0.90684 0.0
C125 C 0.9347 0.48046 0.93774 0.0
O126 O 0.86039 0.50674 0.83914 0.0
O127 O 0.8825 0.45354 0.82694 0.0
Zn128 Zn 0.75748 0.87931 0.87002 0.0
O129 O 0.78733 0.83556 0.88891 0.0
C130 C 0.73613 0.89786 0.93755 0.0
Zn131 Zn 0.70567 0.85202 0.88223 0.0
C132 C 0.77018 0.80804 0.89868 0.0
O133 O 0.73601 0.80829 0.89913 0.0
C134 C 0.6934 0.92226 0.84902 0.0
O135 O 0.70499 0.8257 0.83548 0.0
O136 O 0.75608 0.85298 0.82477 0.0
N137 N 0.65935 0.82491 0.89586 0.0
C138 C 0.62593 0.82253 0.88281 0.0
C139 C 0.6278 0.78645 0.9233 0.0
N140 N 0.66031 0.80241 0.921 0.0
N141 N 0.60567 0.79856 0.89961 0.0
C142 C 0.8369 0.90582 0.86627 0.0
C143 C 0.83615 0.93363 0.82054 0.0
N144 N 0.80304 0.9041 0.85452 0.0
N145 N 0.80266 0.92134 0.82613 0.0
N146 N 0.8583 0.92404 0.8452 0.0
H147 H 0.85908 0.86354 0.8953 0.0
H148 H 0.86963 0.90815 0.91011 0.0
H149 H 0.8252 0.8894 0.91602 0.0
C150 C 0.84829 0.8911 0.89891 0.0
C151 C 0.614 0.84191 0.85254 0.0
H152 H 0.59251 0.82662 0.83958 0.0
H153 H 0.60307 0.86853 0.85982 0.0
H154 H 0.63697 0.84621 0.83563 0.0
O155 O 0.67583 0.89679 0.86251 0.0
O156 O 0.72755 0.92177 0.85009 0.0
C157 C 0.73163 0.83096 0.81643 0.0
O158 O 0.75942 0.90511 0.91573 0.0
O159 O 0.70982 0.87698 0.93062 0.0
Zn160 Zn 0.37456 0.49769 0.62448 0.0
O161 O 0.41777 0.52922 0.64191 0.0
C162 C 0.35897 0.47629 0.69244 0.0
Zn163 Zn 0.40544 0.44823 0.6369 0.0
C164 C 0.44631 0.51482 0.65295 0.0
O165 O 0.44811 0.48074 0.65498 0.0
C166 C 0.33413 0.43291 0.60386 0.0
O167 O 0.43174 0.44902 0.59034 0.0
O168 O 0.39935 0.49643 0.57853 0.0
N169 N 0.43411 0.40262 0.64979 0.0
C170 C 0.43651 0.36935 0.63637 0.0
C171 C 0.47329 0.37133 0.67657 0.0
N172 N 0.4571 0.40369 0.67471 0.0
N173 N 0.46085 0.34922 0.65277 0.0
C174 C 0.33549 0.57182 0.62421 0.0
C175 C 0.32298 0.57632 0.57314 0.0
N176 N 0.3478 0.54195 0.60915 0.0
N177 N 0.33991 0.54479 0.57749 0.0
N178 N 0.31976 0.59365 0.6021 0.0
H179 H 0.34073 0.60976 0.66438 0.0
H180 H 0.31787 0.56838 0.67406 0.0
H181 H 0.36599 0.5685 0.66916 0.0
C182 C 0.34052 0.58027 0.66 0.0
C183 C 0.41677 0.35737 0.6061 0.0
H184 H 0.41256 0.38029 0.58923 0.0
H185 H 0.4318 0.33584 0.59303 0.0
H186 H 0.39012 0.34653 0.61339 0.0
O187 O 0.36135 0.41682 0.61605 0.0
O188 O 0.3324 0.46685 0.60604 0.0
C189 C 0.42351 0.47407 0.57059 0.0
O190 O 0.35055 0.49929 0.67085 0.0
O191 O 0.38047 0.45073 0.68513 0.0
Zn192 Zn 0.80184 0.14999 0.37698 0.0
O193 O 0.80855 0.17333 0.32943 0.0
C194 C 0.79314 0.07557 0.34675 0.0
Zn195 Zn 0.74575 0.13609 0.3624 0.0
C196 C 0.78422 0.16892 0.30775 0.0
O197 O 0.75628 0.1511 0.31469 0.0
C198 C 0.7577 0.12208 0.43309 0.0
O199 O 0.73183 0.18936 0.37399 0.0
O200 O 0.78555 0.20119 0.394 0.0
N201 N 0.69416 0.12599 0.34815 0.0
C202 C 0.67081 0.09961 0.35598 0.0
C203 C 0.64534 0.13274 0.32019 0.0
N204 N 0.67833 0.14648 0.32591 0.0
N205 N 0.64008 0.10315 0.33852 0.0
C206 C 0.88209 0.18201 0.37857 0.0
C207 C 0.90067 0.16024 0.4238 0.0
N208 N 0.85494 0.16162 0.3909 0.0
N209 N 0.86682 0.14826 0.41898 0.0
N210 N 0.91103 0.18174 0.39896 0.0
H211 H 0.85939 0.22009 0.34517 0.0
H212 H 0.90705 0.21234 0.33901 0.0
H213 H 0.87509 0.17897 0.32646 0.0
C214 C 0.88107 0.19959 0.34552 0.0
C215 C 0.67696 0.07314 0.38314 0.0
H216 H 0.6735 0.08718 0.40709 0.0
H217 H 0.65772 0.05041 0.38248 0.0
H218 H 0.70482 0.06262 0.3821 0.0
O219 O 0.73432 0.12253 0.4104 0.0
O220 O 0.79057 0.12872 0.42616 0.0
C221 C 0.75357 0.21122 0.38771 0.0
O222 O 0.81719 0.09761 0.35702 0.0
O223 O 0.7602 0.08392 0.34984 0.0
Zn224 Zn 0.12561 0.49809 0.11675 0.0
O225 O 0.07517 0.47816 0.13075 0.0
C226 C 0.14304 0.51218 0.18579 0.0
Zn227 Zn 0.10843 0.55392 0.13038 0.0
C228 C 0.05218 0.49901 0.14395 0.0
O229 O 0.05968 0.53218 0.14799 0.0
C230 C 0.18178 0.55177 0.09992 0.0
O231 O 0.08286 0.56032 0.0837 0.0
O232 O 0.10553 0.50786 0.07018 0.0
N233 N 0.09263 0.6051 0.14642 0.0
C234 C 0.07986 0.63527 0.1319 0.0
C235 C 0.08268 0.64603 0.18335 0.0
N236 N 0.09418 0.61211 0.17837 0.0
N237 N 0.07326 0.66125 0.15465 0.0
C238 C 0.14017 0.41449 0.1099 0.0
C239 C 0.16535 0.4142 0.06279 0.0
N240 N 0.14122 0.44883 0.09928 0.0
N241 N 0.15665 0.44838 0.06995 0.0
N242 N 0.1553 0.39213 0.08731 0.0
H243 H 0.12135 0.42678 0.15908 0.0
H244 H 0.09852 0.39066 0.13876 0.0
H245 H 0.14333 0.38363 0.15443 0.0
C246 C 0.12524 0.40341 0.14255 0.0
C247 C 0.07604 0.6399 0.09554 0.0
H248 H 0.05138 0.6257 0.08707 0.0
H249 H 0.07389 0.66873 0.08893 0.0
H250 H 0.09959 0.62793 0.08277 0.0
O251 O 0.15853 0.57438 0.11038 0.0
O252 O 0.17519 0.51841 0.10237 0.0
C253 C 0.08712 0.53518 0.06271 0.0
O254 O 0.14468 0.48805 0.16365 0.0
O255 O 0.13195 0.54358 0.17844 0.0
Zn256 Zn 0.80527 0.64968 0.62611 0.0
O257 O 0.80552 0.67783 0.67223 0.0
C258 C 0.79468 0.57838 0.66035 0.0
Zn259 Zn 0.74756 0.63509 0.63475 0.0
C260 C 0.77828 0.67496 0.69099 0.0
O261 O 0.75153 0.65641 0.68176 0.0
C262 C 0.76993 0.61229 0.56826 0.0
O263 O 0.73384 0.6858 0.61705 0.0
O264 O 0.78965 0.69842 0.60371 0.0
N265 N 0.69454 0.62587 0.6447 0.0
C266 C 0.67303 0.59663 0.6433 0.0
C267 C 0.64206 0.6397 0.66334 0.0
N268 N 0.67522 0.65252 0.65719 0.0
N269 N 0.63983 0.60459 0.65512 0.0
C270 C 0.88577 0.68066 0.63328 0.0
C271 C 0.90444 0.67342 0.58417 0.0
N272 N 0.85931 0.66312 0.61653 0.0
N273 N 0.87135 0.65861 0.58612 0.0
N274 N 0.91429 0.68745 0.61343 0.0
H275 H 0.86281 0.71612 0.66906 0.0
H276 H 0.9085 0.70368 0.67785 0.0
H277 H 0.87258 0.67154 0.68384 0.0
C278 C 0.88246 0.69371 0.66806 0.0
C279 C 0.68444 0.56113 0.62916 0.0
H280 H 0.70754 0.56438 0.61225 0.0
H281 H 0.6618 0.54814 0.61576 0.0
H282 H 0.69306 0.54325 0.64943 0.0
O283 O 0.74285 0.61471 0.58713 0.0
O284 O 0.80089 0.62244 0.57846 0.0
C285 C 0.7567 0.70748 0.60508 0.0
O286 O 0.81939 0.60011 0.65104 0.0
O287 O 0.76203 0.58535 0.65359 0.0
Zn288 Zn 0.10898 0.06225 0.87335 0.0
O289 O 0.08386 0.06694 0.92087 0.0
C290 C 0.18139 0.05874 0.90658 0.0
Zn291 Zn 0.12597 0.00609 0.8849 0.0
C292 C 0.08407 0.03941 0.93929 0.0
O293 O 0.10148 0.01191 0.93024 0.0
C294 C 0.14536 0.02484 0.81675 0.0
O295 O 0.07634 0.98746 0.86592 0.0
O296 O 0.06014 0.04281 0.85431 0.0
N297 N 0.13989 0.95484 0.89885 0.0
C298 C 0.15776 0.92717 0.88476 0.0
C299 C 0.14612 0.91207 0.93418 0.0
N300 N 0.13263 0.94515 0.92946 0.0
N301 N 0.1622 0.90024 0.90657 0.0
C302 C 0.06365 0.1327 0.86419 0.0
C303 C 0.10459 0.17105 0.85315 0.0
N304 N 0.09526 0.11477 0.86314 0.0
N305 N 0.12058 0.13873 0.85626 0.0
N306 N 0.06884 0.16801 0.85795 0.0
H307 H 0.03179 0.09266 0.88942 0.0
H308 H 0.01429 0.10719 0.85051 0.0
H309 H 0.01075 0.1362 0.88589 0.0
C310 C 0.02817 0.11621 0.87328 0.0
C311 C 0.1685 0.92555 0.84925 0.0
H312 H 0.14543 0.93369 0.83366 0.0
H313 H 0.17671 0.89805 0.84174 0.0
H314 H 0.19119 0.94441 0.84496 0.0
O315 O 0.14849 1.00054 0.83833 0.0
O316 O 0.13169 0.0551 0.8247 0.0
C317 C 0.05307 0.00935 0.85484 0.0
O318 O 0.15909 0.08065 0.89392 0.0
O319 O 0.1748 0.02523 0.90502 0.0
Zn320 Zn 0.75781 0.36965 0.13866 0.0
O321 O 0.77982 0.32119 0.12065 0.0
C322 C 0.73868 0.39477 0.07284 0.0
Zn323 Zn 0.7025 0.35118 0.12638 0.0
C324 C 0.75934 0.29791 0.10721 0.0
O325 O 0.72592 0.30474 0.10402 0.0
C326 C 0.7023 0.42168 0.16236 0.0
O327 O 0.69945 0.32077 0.1707 0.0
O328 O 0.75141 0.34521 0.18378 0.0
N329 N 0.65212 0.3341 0.11099 0.0
C330 C 0.62177 0.32275 0.12619 0.0
C331 C 0.61136 0.32187 0.07465 0.0
N332 N 0.64543 0.33335 0.07899 0.0
N333 N 0.59589 0.3148 0.10384 0.0
C334 C 0.83999 0.3874 0.14224 0.0
C335 C 0.84216 0.41307 0.18928 0.0
N336 N 0.80646 0.38689 0.15485 0.0
N337 N 0.80799 0.40258 0.18414 0.0
N338 N 0.86289 0.40373 0.16346 0.0
H339 H 0.86403 0.3473 0.11153 0.0
H340 H 0.86815 0.39239 0.09623 0.0
H341 H 0.82569 0.36849 0.09343 0.0
C342 C 0.84979 0.37331 0.1088 0.0
C343 C 0.61705 0.32131 0.1627 0.0
H344 H 0.62826 0.29561 0.17186 0.0
H345 H 0.58814 0.32263 0.16949 0.0
H346 H 0.63188 0.34381 0.17464 0.0
O347 O 0.68013 0.39817 0.1514 0.0
O348 O 0.73571 0.41683 0.1578 0.0
C349 C 0.72548 0.32455 0.19078 0.0
O350 O 0.76468 0.3941 0.09302 0.0
O351 O 0.70864 0.38052 0.08059 0.0
Zn352 Zn 0.37492 0.00393 0.38767 0.0
O353 O 0.41931 0.03336 0.37143 0.0
C354 C 0.35774 0.98337 0.31983 0.0
Zn355 Zn 0.40215 0.95244 0.37497 0.0
C356 C 0.44652 0.01745 0.35939 0.0
O357 O 0.44641 0.98329 0.35698 0.0
C358 C 0.3297 0.94128 0.40561 0.0
O359 O 0.4286 0.95155 0.42136 0.0
O360 O 0.39907 1.00066 0.434 0.0
N361 N 0.42867 0.90586 0.36126 0.0
C362 C 0.43007 0.87254 0.37432 0.0
C363 C 0.46725 0.87364 0.33442 0.0
N364 N 0.45183 0.90636 0.33649 0.0
N365 N 0.4541 0.85186 0.35789 0.0
C366 C 0.3489 0.08326 0.39421 0.0
C367 C 0.32083 0.08032 0.43992 0.0
N368 N 0.35033 0.04891 0.40435 0.0
N369 N 0.33293 0.04718 0.43272 0.0
N370 N 0.33074 0.10357 0.41632 0.0
H371 H 0.39069 0.10831 0.36641 0.0
H372 H 0.34599 0.11706 0.35145 0.0
H373 H 0.36685 0.07374 0.34437 0.0
C374 C 0.36377 0.09621 0.36213 0.0
C375 C 0.40979 0.86116 0.40437 0.0
H376 H 0.42364 0.83869 0.41694 0.0
H377 H 0.3825 0.85198 0.39696 0.0
H378 H 0.40682 0.88405 0.42173 0.0
O379 O 0.35637 0.92295 0.39502 0.0
O380 O 0.33094 0.9752 0.40402 0.0
C381 C 0.42193 0.97689 0.44156 0.0
O382 O 0.35158 0.00757 0.34124 0.0
O383 O 0.37704 0.95622 0.32713 0.0
Zn384 Zn 0.24618 0.36629 0.37773 0.0
O385 O 0.26691 0.31947 0.3981 0.0
C386 C 0.22512 0.39152 0.44324 0.0
Zn387 Zn 0.18934 0.34963 0.388 0.0
C388 C 0.24507 0.29675 0.41014 0.0
O389 O 0.21148 0.30333 0.40999 0.0
C390 C 0.1916 0.41896 0.35253 0.0
O391 O 0.1867 0.32014 0.34257 0.0
O392 O 0.24152 0.33918 0.33313 0.0
N393 N 0.1385 0.33146 0.40138 0.0
C394 C 0.10857 0.32197 0.38436 0.0
C395 C 0.10029 0.30619 0.43408 0.0
N396 N 0.13302 0.32179 0.43228 0.0
N397 N 0.08428 0.30596 0.40437 0.0
C398 C 0.32941 0.38431 0.37589 0.0
C399 C 0.33295 0.40389 0.32684 0.0
N400 N 0.29611 0.38236 0.36263 0.0
N401 N 0.29859 0.39432 0.33213 0.0
N402 N 0.35311 0.39787 0.3538 0.0
H403 H 0.35192 0.34742 0.41026 0.0
H404 H 0.35648 0.39401 0.42193 0.0
H405 H 0.31359 0.37111 0.42563 0.0
C406 C 0.33816 0.37387 0.41052 0.0
C407 C 0.10457 0.32551 0.3479 0.0
H408 H 0.1132 0.30003 0.33597 0.0
H409 H 0.07605 0.33029 0.34119 0.0
H410 H 0.12154 0.34782 0.33859 0.0
O411 O 0.16858 0.39672 0.36391 0.0
O412 O 0.22493 0.41294 0.35661 0.0
C413 C 0.21458 0.3205 0.3244 0.0
O414 O 0.25109 0.39187 0.42299 0.0
O415 O 0.19498 0.37766 0.43485 0.0
Zn416 Zn 0.91456 0.94648 0.13702 0.0
O417 O 0.94463 0.94781 0.09254 0.0
C418 C 0.84684 0.93968 0.09811 0.0
Zn419 Zn 0.89157 1.00081 0.12538 0.0
C420 C 0.94336 0.9757 0.07457 0.0
O421 O 0.92192 1.00095 0.08207 0.0
C422 C 0.86701 0.97577 0.1907 0.0
O423 O 0.93501 0.02726 0.14862 0.0
O424 O 0.95772 0.97417 0.16019 0.0
N425 N 0.86915 0.04848 0.11072 0.0
C426 C 0.86563 0.08158 0.12417 0.0
C427 C 0.84143 0.08301 0.07665 0.0
N428 N 0.85414 0.04958 0.0812 0.0
N429 N 0.84833 0.10385 0.10314 0.0
C430 C 0.94797 0.868 0.13241 0.0
C431 C 0.96366 0.85948 0.18215 0.0
N432 N 0.93765 0.8974 0.14986 0.0
N433 N 0.94736 0.8918 0.18074 0.0
N434 N 0.96447 0.84379 0.15218 0.0
H435 H 0.97061 0.87526 0.08475 0.0
H436 H 0.94172 0.83682 0.08756 0.0
H437 H 0.92255 0.88137 0.08642 0.0
C438 C 0.94526 0.86505 0.09572 0.0
C439 C 0.87774 0.09123 0.15826 0.0
H440 H 0.90496 0.1035 0.15702 0.0
H441 H 0.85903 0.11089 0.16968 0.0
H442 H 0.87949 0.06701 0.17389 0.0
O443 O 0.86269 1.00095 0.17005 0.0
O444 O 0.88617 0.94859 0.18301 0.0
C445 C 0.96002 0.00836 0.16103 0.0
O446 O 0.87036 0.92002 0.1121 0.0
O447 O 0.84924 0.97364 0.10103 0.0
Zn448 Zn 0.31062 0.65938 0.88472 0.0
O449 O 0.31261 0.68352 0.83807 0.0
C450 C 0.31865 0.5886 0.85156 0.0
Zn451 Zn 0.25698 0.63472 0.87488 0.0
C452 C 0.28402 0.68216 0.82094 0.0
O453 O 0.25783 0.66302 0.83059 0.0
C454 C 0.27971 0.61674 0.94131 0.0
O455 O 0.2295 0.67809 0.89599 0.0
O456 O 0.28169 0.70536 0.90145 0.0
N457 N 0.20966 0.61226 0.85956 0.0
C458 C 0.17603 0.61059 0.87201 0.0
C459 C 0.17445 0.58727 0.82401 0.0
N460 N 0.20852 0.59779 0.82976 0.0
N461 N 0.15325 0.59517 0.84996 0.0
C462 C 0.39141 0.68611 0.88468 0.0
C463 C 0.39057 0.72354 0.9246 0.0
N464 N 0.35799 0.68501 0.89783 0.0
N465 N 0.35769 0.70829 0.92263 0.0
N466 N 0.4123 0.71014 0.90106 0.0
H467 H 0.3796 0.66124 0.83789 0.0
H468 H 0.42466 0.67959 0.84153 0.0
H469 H 0.41277 0.63866 0.86241 0.0
C470 C 0.40272 0.66541 0.85473 0.0
C471 C 0.16628 0.6229 0.90603 0.0
H472 H 0.19019 0.62341 0.92227 0.0
H473 H 0.15542 0.65064 0.90486 0.0
H474 H 0.1455 0.605 0.9168 0.0
O475 O 0.25591 0.60826 0.92016 0.0
O476 O 0.30594 0.63693 0.93308 0.0
C477 C 0.24755 0.70585 0.90384 0.0
O478 O 0.3382 0.61255 0.86548 0.0
O479 O 0.28464 0.59173 0.85275 0.0
Zn480 Zn 0.62534 1.00177 0.62162 0.0
O481 O 0.58109 0.97235 0.63989 0.0
C482 C 0.64339 0.02519 0.68841 0.0
Zn483 Zn 0.59817 0.054 0.63225 0.0
C484 C 0.55368 0.98946 0.65006 0.0
O485 O 0.55406 0.02367 0.6505 0.0
C486 C 0.66953 0.06469 0.59997 0.0
O487 O 0.57161 0.05332 0.58602 0.0
O488 O 0.59999 0.00279 0.57568 0.0
N489 N 0.5715 0.10074 0.64546 0.0
C490 C 0.57011 0.13421 0.6327 0.0
C491 C 0.53349 0.13292 0.67303 0.0
N492 N 0.54869 0.10015 0.6705 0.0
N493 N 0.54644 0.15489 0.64961 0.0
C494 C 0.65256 0.92262 0.61784 0.0
C495 C 0.6826 0.92444 0.57314 0.0
N496 N 0.65066 0.95646 0.60643 0.0
N497 N 0.66928 0.9575 0.57868 0.0
N498 N 0.67235 0.90196 0.59723 0.0
H499 H 0.60907 0.89972 0.64509 0.0
H500 H 0.65308 0.88921 0.66106 0.0
H501 H 0.63399 0.93346 0.6672 0.0
C502 C 0.63646 0.91061 0.64976 0.0
C503 C 0.59009 0.14573 0.60256 0.0
H504 H 0.57635 0.16855 0.59041 0.0
H505 H 0.61762 0.15442 0.60971 0.0
H506 H 0.59246 0.12296 0.58495 0.0
O507 O 0.6432 0.0831 0.61109 0.0
O508 O 0.66886 0.03081 0.60285 0.0
C509 C 0.57753 0.02658 0.56714 0.0
O510 O 0.64974 1.00031 0.66772 0.0
O511 O 0.62364 0.05175 0.68032 0.0
H512 H 0.21527 0.19761 0.21677 0.0
H513 H 0.3258 0.23301 0.20855 0.0
H514 H 0.31495 0.27956 0.24996 0.0
H515 H 0.27453 0.30993 0.28809 0.0
H516 H 0.16422 0.27443 0.29768 0.0
H517 H 0.17441 0.22851 0.25523 0.0
C518 C 0.23712 0.21526 0.22424 0.0
C519 C 0.27142 0.21167 0.20972 0.0
C520 C 0.23059 0.24224 0.24778 0.0
C521 C 0.29925 0.23505 0.21944 0.0
C522 C 0.29301 0.2618 0.24296 0.0
C523 C 0.25246 0.29245 0.28076 0.0
C524 C 0.21855 0.29573 0.29601 0.0
C525 C 0.25877 0.26572 0.2571 0.0
C526 C 0.19048 0.27264 0.28623 0.0
C527 C 0.1964 0.24622 0.26216 0.0
H528 H 0.49554 0.46702 0.56594 0.0
H529 H 0.40196 0.50276 0.51267 0.0
H530 H 0.44048 0.52823 0.46985 0.0
H531 H 0.50089 0.54084 0.44799 0.0
H532 H 0.59441 0.50495 0.50124 0.0
H533 H 0.55591 0.48028 0.54444 0.0
C534 C 0.48366 0.4796 0.54451 0.0
C535 C 0.44608 0.48238 0.54195 0.0
C536 C 0.50596 0.49529 0.52071 0.0
C537 C 0.4309 0.4998 0.51472 0.0
C538 C 0.45288 0.51477 0.49053 0.0
C539 C 0.51276 0.52854 0.46956 0.0
C540 C 0.55031 0.52529 0.47192 0.0
C541 C 0.49045 0.51319 0.49355 0.0
C542 C 0.56549 0.50825 0.49934 0.0
C543 C 0.54352 0.4937 0.52374 0.0
H544 H 0.2805 0.80934 0.72076 0.0
H545 H 0.16786 0.7802 0.71719 0.0
H546 H 0.17898 0.73164 0.75636 0.0
H547 H 0.2211 0.69688 0.79008 0.0
H548 H 0.33387 0.72582 0.79206 0.0
H549 H 0.32231 0.77464 0.75361 0.0
C550 C 0.25812 0.79275 0.72875 0.0
C551 C 0.22328 0.79854 0.71617 0.0
C552 C 0.26494 0.76435 0.75018 0.0
C553 C 0.19483 0.77651 0.72671 0.0
C554 C 0.20127 0.74854 0.74879 0.0
C555 C 0.2433 0.7135 0.78175 0.0
C556 C 0.27839 0.7076 0.79378 0.0
C557 C 0.23634 0.74192 0.76022 0.0
C558 C 0.30671 0.72964 0.783 0.0
C559 C 0.30005 0.75775 0.7613 0.0
H560 H 0.00703 0.47622 0.93869 0.0
H561 H 0.91514 0.50538 0.9977 0.0
H562 H 0.95482 0.53083 0.03996 0.0
H563 H 0.01571 0.54456 0.06004 0.0
H564 H 0.10772 0.51469 1.00154 0.0
H565 H 0.06803 0.49133 0.95824 0.0
C566 C 0.9959 0.48732 0.96123 0.0
C567 C 0.95846 0.48813 0.96571 0.0
C568 C 0.01879 0.50311 0.98473 0.0
C569 C 0.94404 0.5038 0.9943 0.0
C570 C 0.96663 0.51883 0.01814 0.0
C571 C 0.02691 0.5341 0.03726 0.0
C572 C 0.06437 0.5321 0.0334 0.0
C573 C 0.00401 0.51909 0.01339 0.0
C574 C 0.07882 0.51722 0.00447 0.0
C575 C 0.0562 0.50327 0.98008 0.0
H576 H 0.71847 0.75973 0.8126 0.0
H577 H 0.76378 0.84858 0.75885 0.0
H578 H 0.78682 0.8071 0.71692 0.0
H579 H 0.79428 0.74542 0.69581 0.0
H580 H 0.74852 0.65669 0.74934 0.0
H581 H 0.72679 0.69801 0.792 0.0
C582 C 0.73261 0.76998 0.79126 0.0
C583 C 0.73874 0.80708 0.78826 0.0
C584 C 0.74684 0.74591 0.76797 0.0
C585 C 0.75821 0.82008 0.76119 0.0
C586 C 0.77178 0.79638 0.73751 0.0
C587 C 0.78046 0.73517 0.71733 0.0
C588 C 0.77357 0.69818 0.71996 0.0
C589 C 0.76671 0.75921 0.74091 0.0
C590 C 0.7546 0.68512 0.74729 0.0
C591 C 0.74173 0.70874 0.77135 0.0
H592 H 0.72562 0.25262 0.18688 0.0
H593 H 0.74264 0.34156 0.25356 0.0
H594 H 0.76885 0.30094 0.29424 0.0
H595 H 0.78765 0.24035 0.3102 0.0
H596 H 0.76949 0.15097 0.24431 0.0
H597 H 0.74485 0.19176 0.20285 0.0
C598 C 0.73401 0.26274 0.21079 0.0
C599 C 0.73119 0.29961 0.21792 0.0
C600 C 0.75048 0.23952 0.23329 0.0
C601 C 0.74362 0.31298 0.24822 0.0
C602 C 0.75922 0.28994 0.27109 0.0
C603 C 0.77952 0.23011 0.28625 0.0
C604 C 0.78139 0.19308 0.27965 0.0
C605 C 0.76343 0.25332 0.26359 0.0
C606 C 0.76928 0.17965 0.24927 0.0
C607 C 0.75449 0.20281 0.22597 0.0
H608 H 0.95617 0.03741 0.04093 0.0
H609 H 0.99212 0.92749 0.05032 0.0
H610 H 0.04123 0.93924 0.01198 0.0
H611 H 0.0736 0.9802 0.97619 0.0
H612 H 0.03713 0.08966 0.9646 0.0
H613 H 0.98906 0.07885 0.00467 0.0
C614 C 0.97447 0.01585 0.03432 0.0
C615 C 0.97027 0.98146 0.04833 0.0
C616 C 1.00294 0.02294 0.01259 0.0
C617 C 0.99452 0.95405 0.03976 0.0
C618 C 0.02279 0.96085 0.01805 0.0
C619 C 0.0555 1.002 0.98261 0.0
C620 C 0.05911 0.03582 0.96746 0.0
C621 C 0.02734 0.99521 0.00457 0.0
C622 C 0.03519 0.06352 0.9761 0.0
C623 C 0.00748 0.0572 0.99871 0.0
H624 H 0.49269 0.96153 0.447 0.0
H625 H 0.40377 0.01001 0.49893 0.0
H626 H 0.44494 0.03281 0.54121 0.0
H627 H 0.5065 0.04062 0.56233 0.0
H628 H 0.5954 0.99213 0.51041 0.0
H629 H 0.55414 0.96871 0.46846 0.0
C630 C 0.48228 0.97632 0.46802 0.0
C631 C 0.44527 0.98365 0.47021 0.0
C632 C 0.50623 0.99042 0.49152 0.0
C633 C 0.43217 0.0037 0.49704 0.0
C634 C 0.45571 0.01711 0.52095 0.0
C635 C 0.51686 0.02567 0.54138 0.0
C636 C 0.55391 0.01872 0.53895 0.0
C637 C 0.49287 0.01129 0.51805 0.0
C638 C 0.56697 0.99828 0.51236 0.0
C639 C 0.54338 0.98453 0.48866 0.0
H640 H 0.22077 0.02035 0.95032 0.0
H641 H 0.20758 0.12757 0.9121 0.0
H642 H 0.24607 0.15156 0.95589 0.0
H643 H 0.27436 0.14326 0.0103 0.0
H644 H 0.28073 0.03704 0.05143 0.0
H645 H 0.25478 0.01127 1.00115 0.0
C646 C 0.22703 0.04886 0.95099 0.0
C647 C 0.21099 0.07215 0.92804 0.0
C648 C 0.2479 0.06264 0.97705 0.0
C649 C 0.21935 0.10904 0.9295 0.0
C650 C 0.24126 0.12281 0.95466 0.0
C651 C 0.27135 0.11435 0.00755 0.0
C652 C 0.28002 0.09187 0.03407 0.0
C653 C 0.25447 0.10007 0.97932 0.0
C654 C 0.27485 0.05462 0.03097 0.0
C655 C 0.25965 0.04001 1.00239 0.0
H656 H 0.69217 0.52981 0.28113 0.0
H657 H 0.58199 0.49372 0.28014 0.0
H658 H 0.59223 0.46114 0.2285 0.0
H659 H 0.63513 0.43589 0.18802 0.0
H660 H 0.74507 0.47405 0.18849 0.0
H661 H 0.73217 0.51315 0.23503 0.0
C662 C 0.6702 0.51587 0.26887 0.0
C663 C 0.63634 0.51442 0.28401 0.0
C664 C 0.67636 0.49706 0.2392 0.0
C665 C 0.60815 0.49564 0.26844 0.0
C666 C 0.61409 0.47672 0.2391 0.0
C667 C 0.65599 0.45346 0.19771 0.0
C668 C 0.69117 0.45132 0.18497 0.0
C669 C 0.64845 0.47619 0.2248 0.0
C670 C 0.71779 0.47457 0.19791 0.0
C671 C 0.71053 0.49701 0.22474 0.0
H672 H 0.21407 0.92709 0.5152 0.0
H673 H 0.28449 0.84062 0.54321 0.0
H674 H 0.31664 0.84492 0.49114 0.0
H675 H 0.33152 0.88039 0.44235 0.0
H676 H 0.26248 0.96816 0.41455 0.0
H677 H 0.22259 0.9556 0.46073 0.0
C678 C 0.23577 0.90867 0.50933 0.0
C679 C 0.24734 0.88397 0.53296 0.0
C680 C 0.25463 0.91164 0.47933 0.0
C681 C 0.27552 0.86016 0.52532 0.0
C682 C 0.29394 0.86258 0.49558 0.0
C683 C 0.30699 0.8958 0.44564 0.0
C684 C 0.30028 0.92541 0.42536 0.0
C685 C 0.28474 0.88921 0.47296 0.0
C686 C 0.26844 0.94535 0.43008 0.0
C687 C 0.24573 0.93842 0.45669 0.0
H688 H 0.86008 0.55124 0.67979 0.0
H689 H 0.74567 0.54166 0.69686 0.0
H690 H 0.75674 0.50704 0.74624 0.0
H691 H 0.79899 0.48755 0.78942 0.0
H692 H 0.91303 0.49294 0.77114 0.0
H693 H 0.90214 0.52065 0.71759 0.0
C694 C 0.83759 0.54076 0.69382 0.0
C695 C 0.80218 0.54978 0.6848 0.0
C696 C 0.84405 0.52036 0.72234 0.0
C697 C 0.77332 0.53554 0.70317 0.0
C698 C 0.77954 0.51582 0.73169 0.0
C699 C 0.82127 0.49369 0.77312 0.0
C700 C 0.85666 0.48816 0.78389 0.0
C701 C 0.81478 0.50926 0.74222 0.0
C702 C 0.8855 0.49657 0.76294 0.0
C703 C 0.8793 0.51272 0.73249 0.0
H704 H 0.79797 0.97613 0.06143 0.0
H705 H 0.8357 0.86869 0.08136 0.0
H706 H 0.79892 0.84529 0.03601 0.0
H707 H 0.76276 0.85674 0.98598 0.0
H708 H 0.73031 0.96496 0.96355 0.0
H709 H 0.75781 0.98673 0.01477 0.0
C710 C 0.79772 0.94745 0.05635 0.0
C711 C 0.81987 0.92426 0.07479 0.0
C712 C 0.77742 0.93439 0.02961 0.0
C713 C 0.81904 0.8872 0.06766 0.0
C714 C 0.7981 0.87382 0.04159 0.0
C715 C 0.76067 0.88486 0.99305 0.0
C716 C 0.74383 0.90921 0.97161 0.0
C717 C 0.77805 0.89732 0.02178 0.0
C718 C 0.74241 0.94576 0.98015 0.0
C719 C 0.75847 0.95818 0.00923 0.0
H720 H 0.28238 0.53762 0.81674 0.0
H721 H 0.38985 0.57718 0.83565 0.0
H722 H 0.41298 0.53969 0.79068 0.0
H723 H 0.40092 0.50311 0.74069 0.0
H724 H 0.29241 0.46948 0.71904 0.0
H725 H 0.27134 0.4968 0.77052 0.0
C726 C 0.31103 0.53761 0.81157 0.0
C727 C 0.33427 0.56057 0.8295 0.0
C728 C 0.32385 0.51707 0.78494 0.0
C729 C 0.3713 0.55992 0.82233 0.0
C730 C 0.3845 0.53861 0.79643 0.0
C731 C 0.37293 0.5007 0.74801 0.0
C732 C 0.34826 0.48364 0.72669 0.0
C733 C 0.36083 0.51807 0.77685 0.0
C734 C 0.31185 0.48178 0.73554 0.0
C735 C 0.29982 0.49773 0.76477 0.0
H736 H 0.78135 0.0819 0.48585 0.0
H737 H 0.70307 0.16102 0.45668 0.0
H738 H 0.67262 0.15589 0.50942 0.0
H739 H 0.66256 0.12258 0.56023 0.0
H740 H 0.73741 0.03993 0.58845 0.0
H741 H 0.77506 0.05328 0.54073 0.0
C742 C 0.7581 0.09843 0.49146 0.0
C743 C 0.74419 0.12142 0.46731 0.0
C744 C 0.73988 0.09464 0.5218 0.0
C745 C 0.71394 0.14269 0.47478 0.0
C746 C 0.6965 0.13987 0.50497 0.0
C747 C 0.68777 0.10841 0.5566 0.0
C748 C 0.69709 0.08033 0.57785 0.0
C749 C 0.70842 0.11506 0.52825 0.0
C750 C 0.72961 0.06176 0.57243 0.0
C751 C 0.75101 0.06913 0.54492 0.0
H752 H 0.13113 0.4228 0.31507 0.0
H753 H 0.23011 0.47896 0.33685 0.0
H754 H 0.22196 0.51686 0.28858 0.0
H755 H 0.1914 0.52757 0.2352 0.0
H756 H 0.09454 0.4684 0.21255 0.0
H757 H 0.09691 0.43857 0.26578 0.0
C758 C 0.15028 0.44412 0.30988 0.0
C759 C 0.18123 0.44787 0.32944 0.0
C760 C 0.14614 0.46495 0.28135 0.0
C761 C 0.20605 0.47539 0.32209 0.0
C762 C 0.20157 0.49694 0.29431 0.0
C763 C 0.17052 0.50878 0.24242 0.0
C764 C 0.14296 0.49997 0.22017 0.0
C765 C 0.17251 0.49097 0.27295 0.0
C766 C 0.11609 0.47537 0.22945 0.0
C767 C 0.11743 0.45827 0.25983 0.0
H768 H 0.73592 0.65159 0.52302 0.0
H769 H 0.7871 0.54911 0.53739 0.0
H770 H 0.76249 0.52733 0.48477 0.0
H771 H 0.7191 0.53493 0.4394 0.0
H772 H 0.6667 0.63743 0.42633 0.0
H773 H 0.69982 0.66208 0.47316 0.0
C774 C 0.74253 0.62486 0.51402 0.0
C775 C 0.76341 0.60196 0.5337 0.0
C776 C 0.72778 0.61251 0.48416 0.0
C777 C 0.7715 0.56726 0.5223 0.0
C778 C 0.75714 0.55478 0.4924 0.0
C779 C 0.71555 0.56295 0.44621 0.0
C780 C 0.68989 0.5841 0.4295 0.0
C781 C 0.73419 0.57678 0.47372 0.0
C782 C 0.68596 0.6204 0.4387 0.0
C783 C 0.70476 0.63448 0.4657 0.0
H784 H 0.1981 0.0345 0.77025 0.0
H785 H 0.09412 0.98646 0.7869 0.0
H786 H 0.09804 0.95374 0.73477 0.0
H787 H 0.1352 0.93157 0.6889 0.0
H788 H 0.23971 0.97898 0.67237 0.0
H789 H 0.23108 0.01956 0.71898 0.0
C790 C 0.17596 0.01774 0.76182 0.0
C791 C 0.14586 0.01288 0.78214 0.0
C792 C 0.1786 0.99853 0.73185 0.0
C793 C 0.11747 0.99067 0.77137 0.0
C794 C 0.11976 0.9718 0.74167 0.0
C795 C 0.15553 0.9516 0.69479 0.0
C796 C 0.1882 0.95181 0.67738 0.0
C797 C 0.15076 0.97449 0.72222 0.0
C798 C 0.21437 0.97792 0.68555 0.0
C799 C 0.2096 1.00107 0.7124 0.0
H800 H 0.7666 0.35702 0.02271 0.0
H801 H 0.72874 0.46251 0.04961 0.0
H802 H 0.75288 0.48705 0.99817 0.0
H803 H 0.79166 0.4796 0.94955 0.0
H804 H 0.83234 0.37422 0.92443 0.0
H805 H 0.79958 0.34833 0.97067 0.0
C806 C 0.76277 0.38516 0.01669 0.0
C807 C 0.7456 0.40798 0.03942 0.0
C808 C 0.77754 0.39907 0.98757 0.0
C809 C 0.7414 0.4445 0.03206 0.0
C810 C 0.75545 0.4585 1.00282 0.0
C811 C 0.79273 0.45082 0.95367 0.0
C812 C 0.81477 0.42898 0.93358 0.0
C813 C 0.77456 0.43622 0.9809 0.0
C814 C 0.81577 0.39175 0.93946 0.0
C815 C 0.79718 0.37691 0.96606 0.0
H816 H 0.2816 0.04111 0.19442 0.0
H817 H 0.38835 0.08333 0.17738 0.0
H818 H 0.41148 0.04767 0.22313 0.0
H819 H 0.39945 0.01158 0.27279 0.0
H820 H 0.29175 0.97435 0.29234 0.0
H821 H 0.27079 1.00058 0.24056 0.0
C822 C 0.31009 0.04209 0.20025 0.0
C823 C 0.33314 0.06522 0.18262 0.0
C824 C 0.32292 0.02244 0.22719 0.0
C825 C 0.36998 0.06591 0.19054 0.0
C826 C 0.38319 0.04564 0.21682 0.0
C827 C 0.37169 0.00825 0.26498 0.0
C828 C 0.34717 0.99055 0.28571 0.0
C829 C 0.35968 0.02477 0.23597 0.0
C830 C 0.31104 0.98727 0.27625 0.0
C831 C 0.29909 0.00256 0.24688 0.0
H832 H 0.27254 0.45991 0.57753 0.0
H833 H 0.33891 0.36471 0.57814 0.0
H834 H 0.30704 0.34161 0.52988 0.0
H835 H 0.26741 0.35314 0.48257 0.0
H836 H 0.20243 0.44889 0.48049 0.0
H837 H 0.22666 0.46732 0.53436 0.0
C838 C 0.2795 0.43367 0.56765 0.0
C839 C 0.30856 0.41431 0.58129 0.0
C840 C 0.2617 0.42104 0.53929 0.0
C841 C 0.31685 0.38024 0.56826 0.0
C842 C 0.29883 0.36717 0.5404 0.0
C843 C 0.25798 0.37762 0.49441 0.0
C844 C 0.23333 0.39979 0.47788 0.0
C845 C 0.27234 0.38805 0.52496 0.0
C846 C 0.22124 0.43146 0.49304 0.0
C847 C 0.23525 0.44198 0.52366 0.0
H848 H 0.80175 0.97765 0.22155 0.0
H849 H 0.91534 0.99412 0.23677 0.0
H850 H 0.90353 0.0229 0.28995 0.0
H851 H 0.86006 0.05159 0.32781 0.0
H852 H 0.74645 0.03146 0.314 0.0
H853 H 0.75914 0.99518 0.26552 0.0
C854 C 0.82384 0.98647 0.23711 0.0
C855 C 0.85929 0.98375 0.22551 0.0
C856 C 0.81686 0.0027 0.26787 0.0
C857 C 0.88782 0.9956 0.24556 0.0
C858 C 0.88107 0.01232 0.27583 0.0
C859 C 0.83816 0.03837 0.31483 0.0
C860 C 0.80234 0.04513 0.3243 0.0
C861 C 0.84558 0.0172 0.28673 0.0
C862 C 0.77435 0.02733 0.30721 0.0
C863 C 0.7815 0.00663 0.2792 0.0
H864 H 0.19597 0.61815 0.07398 0.0
H865 H 0.23594 0.50925 0.07698 0.0
H866 H 0.27375 0.5206 0.02933 0.0
H867 H 0.28719 0.55816 0.98086 0.0
H868 H 0.24889 0.66734 0.97862 0.0
H869 H 0.21906 0.65935 0.03169 0.0
C870 C 0.21384 0.59728 0.06492 0.0
C871 C 0.21238 0.5627 0.07867 0.0
C872 C 0.23545 0.60382 0.03712 0.0
C873 C 0.23598 0.53604 0.06663 0.0
C874 C 0.25755 0.54237 0.03915 0.0
C875 C 0.27326 0.58039 0.99263 0.0
C876 C 0.27016 0.61323 0.97619 0.0
C877 C 0.2562 0.57561 0.02324 0.0
C878 C 0.25179 0.6419 0.99125 0.0
C879 C 0.23454 0.63728 0.02145 0.0
H880 H 0.60426 0.99577 0.73682 0.0
H881 H 0.70902 0.03928 0.71494 0.0
H882 H 0.73243 0.0159 0.76698 0.0
H883 H 0.72515 0.97557 0.81387 0.0
H884 H 0.62152 0.92741 0.83349 0.0
H885 H 0.5953 0.96074 0.78771 0.0
C886 C 0.63187 1.00112 0.74416 0.0
C887 C 0.65487 0.01972 0.72263 0.0
C888 C 0.64536 0.98633 0.77346 0.0
C889 C 0.69083 0.02564 0.73158 0.0
C890 C 0.70421 0.01198 0.76115 0.0
C891 C 0.69661 0.97289 0.8087 0.0
C892 C 0.67546 0.94855 0.82698 0.0
C893 C 0.68204 0.99117 0.78164 0.0
C894 C 0.63851 0.94571 0.81985 0.0
C895 C 0.62354 0.96463 0.79349 0.0
H896 H 0.43274 0.27663 0.08971 0.0
H897 H 0.46734 0.18058 0.13909 0.0
H898 H 0.52756 0.20643 0.14657 0.0
H899 H 0.57226 0.25472 0.13418 0.0
H900 H 0.53754 0.34834 0.08126 0.0
H901 H 0.47571 0.32548 0.08002 0.0
C902 C 0.45339 0.26153 0.10242 0.0
C903 C 0.4453 0.22694 0.11423 0.0
C904 C 0.4881 0.27621 0.10581 0.0
C905 C 0.4724 0.20761 0.13056 0.0
C906 C 0.50703 0.22227 0.13449 0.0
C907 C 0.55083 0.27029 0.12312 0.0
C908 C 0.55913 0.30331 0.10808 0.0
C909 C 0.51541 0.25635 0.12171 0.0
C910 C 0.5315 0.32301 0.09311 0.0
C911 C 0.49628 0.30986 0.09229 0.0
H912 H 0.47288 0.68422 0.36265 0.0
H913 H 0.58469 0.7147 0.36571 0.0
H914 H 0.56787 0.7785 0.36693 0.0
H915 H 0.52099 0.82562 0.36328 0.0
H916 H 0.40916 0.79505 0.36201 0.0
H917 H 0.42593 0.7313 0.36413 0.0
C918 C 0.49341 0.70496 0.36403 0.0
C919 C 0.52992 0.69497 0.36427 0.0
C920 C 0.48343 0.74145 0.36488 0.0
C921 C 0.55645 0.72187 0.36603 0.0
C922 C 0.54681 0.75827 0.36645 0.0
C923 C 0.50044 0.80487 0.36387 0.0
C924 C 0.46393 0.81479 0.36261 0.0
C925 C 0.51039 0.76839 0.36535 0.0
C926 C 0.43737 0.7879 0.36339 0.0
C927 C 0.44699 0.75154 0.36438 0.0
H928 H 0.93341 0.74705 0.58146 0.0
H929 H 0.96745 0.67482 0.65746 0.0
H930 H 0.02471 0.70784 0.66299 0.0
H931 H 0.06705 0.75498 0.64265 0.0
H932 H 0.03159 0.82671 0.56642 0.0
H933 H 0.97315 0.7966 0.5645 0.0
C934 C 0.95328 0.73895 0.59949 0.0
C935 C 0.94626 0.70881 0.6192 0.0
C936 C 0.98597 0.75801 0.60236 0.0
C937 C 0.97217 0.69827 0.64238 0.0
C938 C 0.00493 0.71705 0.64537 0.0
C939 C 0.04616 0.76459 0.62634 0.0
C940 C 0.05364 0.79338 0.60487 0.0
C941 C 0.01241 0.74676 0.62514 0.0
C942 C 0.02651 0.80476 0.58319 0.0
C943 C 0.9931 0.78747 0.58201 0.0
H944 H 0.94923 0.28354 0.83169 0.0
H945 H 0.01686 0.3453 0.89706 0.0
H946 H 0.05672 0.29356 0.90406 0.0
H947 H 0.07422 0.23153 0.88892 0.0
H948 H 0.00648 0.16951 0.82392 0.0
H949 H 0.96468 0.22021 0.8193 0.0
C950 C 0.97247 0.28533 0.84778 0.0
C951 C 0.97985 0.31791 0.86424 0.0
C952 C 0.9953 0.25548 0.85151 0.0
C953 C 0.01015 0.32022 0.88484 0.0
C954 C 0.03314 0.29076 0.88853 0.0
C955 C 0.05012 0.22923 0.87398 0.0
C956 C 0.04317 0.19695 0.85692 0.0
C957 C 0.02624 0.25842 0.87165 0.0
C958 C 0.01195 0.19398 0.83762 0.0
C959 C 0.98824 0.22301 0.83485 0.0
H960 H 0.58001 0.73119 0.89608 0.0
H961 H 0.5483 0.84243 0.89437 0.0
H962 H 0.48466 0.82468 0.89298 0.0
H963 H 0.43801 0.7772 0.89602 0.0
H964 H 0.46955 0.6659 0.89596 0.0
H965 H 0.53325 0.68355 0.89398 0.0
C966 C 0.55902 0.75138 0.89499 0.0
C967 C 0.56862 0.78802 0.89517 0.0
C968 C 0.52259 0.74086 0.89398 0.0
C969 C 0.54143 0.81412 0.89376 0.0
C970 C 0.50512 0.80394 0.89322 0.0
C971 C 0.45896 0.75695 0.89514 0.0
C972 C 0.44932 0.72035 0.896 0.0
C973 C 0.49538 0.7674 0.89381 0.0
C974 C 0.47647 0.69418 0.89486 0.0
C975 C 0.5128 0.70431 0.89398 0.0
H976 H 0.52791 0.32286 0.64833 0.0
H977 H 0.41606 0.29233 0.64794 0.0
H978 H 0.43279 0.22861 0.64529 0.0
H979 H 0.47961 0.18146 0.64645 0.0
H980 H 0.59149 0.21172 0.64498 0.0
H981 H 0.57481 0.27559 0.64469 0.0
C982 C 0.50736 0.30212 0.6473 0.0
C983 C 0.47083 0.31209 0.64815 0.0
C984 C 0.51729 0.2656 0.6455 0.0
C985 C 0.44428 0.28518 0.64682 0.0
C986 C 0.45388 0.24882 0.64553 0.0
C987 C 0.50019 0.20217 0.64564 0.0
C988 C 0.53668 0.1921 0.64555 0.0
C989 C 0.49029 0.2387 0.64528 0.0
C990 C 0.56327 0.21897 0.64455 0.0
C991 C 0.5537 0.2554 0.64465 0.0
H992 H 0.07077 0.23599 0.41201 0.0
H993 H 0.02299 0.33535 0.38094 0.0
H994 H 0.96424 0.30528 0.37468 0.0
H995 H 0.92564 0.25119 0.38255 0.0
H996 H 0.97481 0.1517 0.41234 0.0
H997 H 0.03366 0.18112 0.41506 0.0
C998 C 0.0475 0.25077 0.40337 0.0
C999 C 0.05105 0.28764 0.39664 0.0
C1000 C 0.01405 0.23326 0.39994 0.0
C1001 C 0.02085 0.30681 0.38572 0.0
C1002 C 0.98729 0.28964 0.38242 0.0
C1003 C 0.94943 0.23574 0.38858 0.0
C1004 C 0.94591 0.19902 0.39663 0.0
C1005 C 0.98342 0.25292 0.38992 0.0
C1006 C 0.97686 0.17983 0.40582 0.0
C1007 C 0.0105 0.19665 0.40739 0.0
H1008 H 0.01205 0.68347 0.12471 0.0
H1009 H 0.10487 0.72056 0.17863 0.0
H1010 H 0.08045 0.78162 0.18034 0.0
H1011 H 0.03059 0.82358 0.17024 0.0
H1012 H 0.93552 0.78637 0.11991 0.0
H1013 H 0.96268 0.72679 0.11246 0.0
C1014 C 0.02713 0.70521 0.13611 0.0
C1015 C 0.06045 0.6977 0.15121 0.0
C1016 C 0.01236 0.74025 0.13769 0.0
C1017 C 0.07936 0.72584 0.1667 0.0
C1018 C 0.06532 0.76069 0.16777 0.0
C1019 C 0.01613 0.80251 0.1572 0.0
C1020 C 0.98155 0.80975 0.14476 0.0
C1021 C 0.03156 0.76808 0.15393 0.0
C1022 C 0.96274 0.78201 0.12848 0.0
C1023 C 0.97811 0.74774 0.12467 0.0
H1024 H 0.18083 0.22717 0.11067 0.0
H1025 H 0.27742 0.25246 0.05634 0.0
H1026 H 0.25631 0.3138 0.04833 0.0
H1027 H 0.21379 0.36157 0.06155 0.0
H1028 H 0.11632 0.33705 0.11452 0.0
H1029 H 0.13476 0.27423 0.11894 0.0
C1030 C 0.19683 0.24584 0.09639 0.0
C1031 C 0.23073 0.2353 0.08423 0.0
C1032 C 0.18491 0.28144 0.09252 0.0
C1033 C 0.2513 0.25994 0.06605 0.0
C1034 C 0.23937 0.29509 0.06163 0.0
C1035 C 0.19638 0.34246 0.07386 0.0
C1036 C 0.16443 0.35446 0.08887 0.0
C1037 C 0.20678 0.30636 0.07561 0.0
C1038 C 0.14195 0.32917 0.10429 0.0
C1039 C 0.15222 0.29302 0.1063 0.0
H1040 H 0.38328 0.45539 0.32656 0.0
H1041 H 0.40717 0.36388 0.38728 0.0
H1042 H 0.4695 0.38443 0.39313 0.0
H1043 H 0.51677 0.43009 0.38226 0.0
H1044 H 0.4917 0.5204 0.32005 0.0
H1045 H 0.43063 0.49793 0.31256 0.0
C1046 C 0.40216 0.4398 0.34096 0.0
C1047 C 0.3902 0.40882 0.35733 0.0
C1048 C 0.43793 0.45134 0.34355 0.0
C1049 C 0.41509 0.38871 0.37565 0.0
C1050 C 0.45094 0.40017 0.37854 0.0
C1051 C 0.49809 0.44444 0.36661 0.0
C1052 C 0.50871 0.47694 0.35183 0.0
C1053 C 0.46259 0.43168 0.36283 0.0
C1054 C 0.48415 0.49543 0.33183 0.0
C1055 C 0.44916 0.4827 0.32762 0.0
H1056 H 0.23106 0.73233 0.63362 0.0
H1057 H 0.3054 0.77679 0.5633 0.0
H1058 H 0.33291 0.71745 0.55533 0.0
H1059 H 0.33673 0.65333 0.56997 0.0
H1060 H 0.26636 0.61033 0.64406 0.0
H1061 H 0.23634 0.66885 0.64964 0.0
C1062 C 0.2529 0.7287 0.61618 0.0
C1063 C 0.26587 0.75824 0.59844 0.0
C1064 C 0.26949 0.69508 0.61297 0.0
C1065 C 0.29487 0.75398 0.57673 0.0
C1066 C 0.31063 0.72025 0.57236 0.0
C1067 C 0.31485 0.6571 0.58731 0.0
C1068 C 0.30363 0.62817 0.60674 0.0
C1069 C 0.29838 0.69074 0.59061 0.0
C1070 C 0.27547 0.63273 0.6293 0.0
C1071 C 0.25827 0.66594 0.63224 0.0
H1072 H 0.98688 0.57491 0.87252 0.0
H1073 H 0.00794 0.48146 0.81198 0.0
H1074 H 0.07057 0.49983 0.80591 0.0
H1075 H 0.1204 0.53912 0.82177 0.0
H1076 H 0.09999 0.63401 0.88023 0.0
H1077 H 0.03633 0.61794 0.88388 0.0
C1078 C 0.00499 0.55906 0.85738 0.0
C1079 C 0.99282 0.52678 0.84285 0.0
C1080 C 0.04132 0.56939 0.85449 0.0
C1081 C 0.01668 0.50634 0.82353 0.0
C1082 C 0.05257 0.51668 0.82021 0.0
C1083 C 0.102 0.55639 0.83521 0.0
C1084 C 0.11536 0.58683 0.85192 0.0
C1085 C 0.06536 0.54756 0.83633 0.0
C1086 C 0.09101 0.60932 0.8687 0.0
C1087 C 0.05438 0.6005 0.87026 0.0
H1088 H 0.75262 0.74512 0.87128 0.0
H1089 H 0.83063 0.79544 0.93525 0.0
H1090 H 0.86157 0.73749 0.94193 0.0
H1091 H 0.86503 0.67206 0.93015 0.0
H1092 H 0.78939 0.62366 0.86284 0.0
H1093 H 0.75892 0.68156 0.85613 0.0
C1094 C 0.77627 0.74321 0.88687 0.0
C1095 C 0.78903 0.77389 0.90348 0.0
C1096 C 0.79437 0.71041 0.88953 0.0
C1097 C 0.82026 0.77178 0.92272 0.0
C1098 C 0.83788 0.73881 0.92641 0.0
C1099 C 0.84208 0.67457 0.91383 0.0
C1100 C 0.82938 0.64409 0.89682 0.0
C1101 C 0.82505 0.70793 0.91001 0.0
C1102 C 0.79974 0.64711 0.87567 0.0
C1103 C 0.78222 0.68001 0.87213 0.0
H1104 H 0.57218 0.62763 0.64888 0.0
H1105 H 0.63484 0.53325 0.67064 0.0
H1106 H 0.57995 0.49725 0.67381 0.0
H1107 H 0.51408 0.49226 0.66818 0.0
H1108 H 0.45158 0.58783 0.64929 0.0
H1109 H 0.50642 0.62391 0.64856 0.0
C1110 C 0.57382 0.59918 0.65442 0.0
C1111 C 0.60774 0.5829 0.65798 0.0
C1112 C 0.54211 0.57896 0.65726 0.0
C1113 C 0.60938 0.54616 0.66586 0.0
C1114 C 0.57787 0.52566 0.66831 0.0
C1115 C 0.51237 0.52107 0.66444 0.0
C1116 C 0.47874 0.53722 0.65853 0.0
C1117 C 0.5441 0.54171 0.66365 0.0
C1118 C 0.47707 0.57462 0.65379 0.0
C1119 C 0.50845 0.59529 0.65316 0.0
H1120 H 0.68747 0.23957 0.37744 0.0
H1121 H 0.79391 0.2667 0.41274 0.0
H1122 H 0.77526 0.32914 0.42093 0.0
H1123 H 0.72874 0.37622 0.4172 0.0
H1124 H 0.62239 0.34845 0.38334 0.0
H1125 H 0.641 0.28589 0.37496 0.0
C1126 C 0.70662 0.25905 0.38705 0.0
C1127 C 0.74202 0.24849 0.39449 0.0
C1128 C 0.69582 0.29479 0.39152 0.0
C1129 C 0.76645 0.27412 0.40692 0.0
C1130 C 0.75586 0.30983 0.41151 0.0
C1131 C 0.70989 0.35632 0.40784 0.0
C1132 C 0.67472 0.36677 0.3998 0.0
C1133 C 0.72069 0.32047 0.4037 0.0
C1134 C 0.65001 0.341 0.38837 0.0
C1135 C 0.66053 0.3053 0.38398 0.0
H1136 H 0.89032 0.4677 0.17897 0.0
H1137 H 0.91798 0.36381 0.13903 0.0
H1138 H 0.98008 0.38395 0.13038 0.0
H1139 H 0.02577 0.43177 0.13313 0.0
H1140 H 0.99757 0.53564 0.17376 0.0
H1141 H 0.9364 0.51455 0.18393 0.0
C1142 C 0.91009 0.44949 0.16853 0.0
C1143 C 0.89959 0.41471 0.15889 0.0
C1144 C 0.94553 0.46116 0.16401 0.0
C1145 C 0.92525 0.39112 0.14554 0.0
C1146 C 0.96077 0.40251 0.14097 0.0
C1147 C 0.00633 0.44973 0.14444 0.0
C1148 C 0.01616 0.48527 0.15255 0.0
C1149 C 0.9711 0.4376 0.14987 0.0
C1150 C 0.99068 0.50819 0.1672 0.0
C1151 C 0.95567 0.4962 0.17296 0.0
H1152 H 0.69019 0.73587 0.61223 0.0
H1153 H 0.7981 0.7622 0.58066 0.0
H1154 H 0.78087 0.82529 0.57495 0.0
H1155 H 0.73612 0.87337 0.58244 0.0
H1156 H 0.62867 0.84668 0.61405 0.0
H1157 H 0.64495 0.78312 0.61696 0.0
C1158 C 0.70991 0.75526 0.60371 0.0
C1159 C 0.74542 0.74438 0.59698 0.0
C1160 C 0.70009 0.79143 0.60121 0.0
C1161 C 0.77058 0.7699 0.58598 0.0
C1162 C 0.76082 0.80597 0.5829 0.0
C1163 C 0.71638 0.85349 0.58992 0.0
C1164 C 0.68166 0.86462 0.59907 0.0
C1165 C 0.72586 0.8171 0.59109 0.0
C1166 C 0.65598 0.83883 0.60827 0.0
C1167 C 0.66514 0.8025 0.60946 0.0
H1168 H 0.88834 0.98588 0.82693 0.0
H1169 H 0.91289 0.88144 0.86627 0.0
H1170 H 0.97644 0.89798 0.87086 0.0
H1171 H 0.0244 0.9432 0.86571 0.0
H1172 H 0.99969 0.0473 0.82497 0.0
H1173 H 0.93691 0.02948 0.81799 0.0
C1174 C 0.90771 0.96678 0.8364 0.0
C1175 C 0.89585 0.93306 0.8474 0.0
C1176 C 0.94414 0.97628 0.83838 0.0
C1177 C 0.92113 0.90819 0.85913 0.0
C1178 C 0.95753 0.91745 0.86128 0.0
C1179 C 0.00541 0.96182 0.85486 0.0
C1180 C 0.01662 0.99664 0.84616 0.0
C1181 C 0.96924 0.9516 0.85133 0.0
C1182 C 0.99167 0.02045 0.83215 0.0
C1183 C 0.95575 0.01033 0.82822 0.0
H1184 H 0.78754 0.13313 0.08063 0.0
H1185 H 0.8864 0.15875 0.13121 0.0
H1186 H 0.86832 0.22181 0.13533 0.0
H1187 H 0.82386 0.26947 0.12521 0.0
H1188 H 0.72521 0.24368 0.07386 0.0
H1189 H 0.74428 0.1811 0.06847 0.0
C1190 C 0.80509 0.15257 0.09258 0.0
C1191 C 0.83775 0.141 0.10651 0.0
C1192 C 0.7948 0.18884 0.09423 0.0
C1193 C 0.86046 0.16653 0.12156 0.0
C1194 C 0.85036 0.20273 0.12344 0.0
C1195 C 0.80673 0.25031 0.11239 0.0
C1196 C 0.77315 0.26136 0.09986 0.0
C1197 C 0.81752 0.21417 0.10995 0.0
C1198 C 0.7512 0.236 0.08364 0.0
C1199 C 0.76199 0.20014 0.08072 0.0
H1200 H 0.5132 0.99208 0.34385 0.0
H1201 H 0.45305 0.09034 0.35746 0.0
H1202 H 0.5079 0.12559 0.35126 0.0
H1203 H 0.57363 0.12849 0.34563 0.0
H1204 H 0.6341 0.03113 0.33109 0.0
H1205 H 0.57861 0.99535 0.33426 0.0
C1206 C 0.51203 0.02122 0.34502 0.0
C1207 C 0.47908 0.0385 0.35133 0.0
C1208 C 0.54382 0.04141 0.34185 0.0
C1209 C 0.47804 0.0763 0.3528 0.0
C1210 C 0.50942 0.09653 0.34935 0.0
C1211 C 0.57442 0.09944 0.3431 0.0
C1212 C 0.60766 0.08216 0.33939 0.0
C1213 C 0.54251 0.07935 0.34454 0.0
C1214 C 0.60872 0.04465 0.33536 0.0
C1215 C 0.57705 0.02435 0.33681 0.0
H1216 H 0.31221 0.26975 0.40198 0.0
H1217 H 0.20651 0.243 0.43903 0.0
H1218 H 0.22469 0.18041 0.44535 0.0
H1219 H 0.26864 0.13249 0.43534 0.0
H1220 H 0.37411 0.159 0.39855 0.0
H1221 H 0.35778 0.22259 0.39643 0.0
C1222 C 0.29331 0.25038 0.41196 0.0
C1223 C 0.25797 0.2609 0.41973 0.0
C1224 C 0.3036 0.21433 0.41474 0.0
C1225 C 0.23383 0.23551 0.4327 0.0
C1226 C 0.24411 0.19969 0.43614 0.0
C1227 C 0.28801 0.15231 0.42702 0.0
C1228 C 0.32195 0.1411 0.41589 0.0
C1229 C 0.27856 0.18869 0.42635 0.0
C1230 C 0.34721 0.16687 0.40568 0.0
C1231 C 0.33806 0.20324 0.40497 0.0
H1232 H 0.98742 0.07194 0.14045 0.0
H1233 H 0.00965 0.98197 0.20378 0.0
H1234 H 0.07149 0.00309 0.21128 0.0
H1235 H 0.12118 0.04171 0.19308 0.0
H1236 H 0.10045 0.1274 0.12485 0.0
H1237 H 0.03609 0.11405 0.12648 0.0
C1238 C 0.00553 0.05754 0.15662 0.0
C1239 C 0.99413 0.02536 0.17143 0.0
C1240 C 0.04145 0.06899 0.15966 0.0
C1241 C 0.01794 0.00672 0.19201 0.0
C1242 C 0.05331 0.01869 0.19617 0.0
C1243 C 0.10237 0.05787 0.17914 0.0
C1244 C 0.1155 0.08578 0.15926 0.0
C1245 C 0.06568 0.04893 0.17906 0.0
C1246 C 0.09103 0.10649 0.14109 0.0
C1247 C 0.05422 0.09848 0.14165 0.0
H1248 H 0.14118 0.83521 0.92634 0.0
H1249 H 0.22934 0.89287 0.88236 0.0
H1250 H 0.26514 0.83766 0.88027 0.0
H1251 H 0.27061 0.77284 0.88994 0.0
H1252 H 0.18142 0.71432 0.93175 0.0
H1253 H 0.14684 0.77012 0.93652 0.0
C1254 C 0.16819 0.83541 0.91621 0.0
C1255 C 0.18244 0.86756 0.90378 0.0
C1256 C 0.18845 0.80364 0.9152 0.0
C1257 C 0.21757 0.86802 0.89107 0.0
C1258 C 0.2381 0.83663 0.89026 0.0
C1259 C 0.24385 0.77246 0.90065 0.0
C1260 C 0.22863 0.73975 0.91085 0.0
C1261 C 0.22378 0.8043 0.9022 0.0
C1262 C 0.19366 0.73935 0.92395 0.0
C1263 C 0.17387 0.77114 0.9265 0.0
H1264 H 0.42308 0.88538 0.67914 0.0
H1265 H 0.3674 0.96641 0.62379 0.0
H1266 H 0.42309 1.00142 0.61895 0.0
H1267 H 0.48751 0.00884 0.63061 0.0
H1268 H 0.54491 0.92572 0.68205 0.0
H1269 H 0.4887 0.89164 0.68887 0.0
C1270 C 0.42347 0.91062 0.66591 0.0
C1271 C 0.3916 0.92327 0.65147 0.0
C1272 C 0.45566 0.93028 0.663 0.0
C1273 C 0.39194 0.95599 0.63446 0.0
C1274 C 0.42362 0.97608 0.63199 0.0
C1275 C 0.48752 0.98349 0.64373 0.0
C1276 C 0.5199 0.97002 0.65649 0.0
C1277 C 0.45556 0.96355 0.64629 0.0
C1278 C 0.52004 0.93667 0.67246 0.0
C1279 C 0.48802 0.9172 0.6762 0.0
loop_
_geom_bond_atom_site_label_1
_geom_bond_atom_site_label_2
_geom_bond_distance
_geom_bond_site_symmetry_2
_ccdc_geom_bond_type
Zn0 O1 2.055 . S
Zn0 O8 2.046 . S
Zn0 N16 2.036 . S
Zn0 O28 2.053 . S
Zn0 O30 2.066 . S
O1 Zn0 2.055 . S
O1 C4 1.259 . S
C2 O30 1.256 . S
C2 O31 1.244 . S
Zn3 O5 2.046 . S
Zn3 O7 2.055 . S
Zn3 N9 2.036 . S
Zn3 O27 2.066 . S
Zn3 O31 2.053 . S
C4 O1 1.259 . S
C4 O5 1.254 . S
O5 Zn3 2.046 . S
O5 C4 1.254 . S
C6 O27 1.256 . S
C6 O28 1.244 . S
O7 Zn3 2.055 . S
O7 C29 1.259 . S
O8 Zn0 2.046 . S
O8 C29 1.254 . S
N9 Zn3 2.036 . S
N9 C10 1.298 . S
N9 N12 1.398 . S
C10 N9 1.298 . S
C10 N13 1.367 . S
C10 C23 1.481 . S
C11 N12 1.299 . S
C11 N13 1.379 . S
N12 N9 1.398 . S
N12 C11 1.299 . S
N13 C10 1.367 . S
N13 C11 1.379 . S
C14 N16 1.298 . S
C14 N18 1.367 . S
C14 C22 1.481 . S
C15 N17 1.299 . S
C15 N18 1.379 . S
N16 Zn0 2.036 . S
N16 C14 1.298 . S
N16 N17 1.398 . S
N17 C15 1.299 . S
N17 N16 1.398 . S
N18 C14 1.367 . S
N18 C15 1.379 . S
H19 C22 0.980 . S
H20 C22 0.981 . S
H21 C22 0.981 . S
C22 C14 1.481 . S
C22 H19 0.980 . S
C22 H20 0.981 . S
C22 H21 0.981 . S
C23 C10 1.481 . S
C23 H24 0.980 . S
C23 H25 0.981 . S
C23 H26 0.981 . S
H24 C23 0.980 . S
H25 C23 0.981 . S
H26 C23 0.981 . S
O27 Zn3 2.066 . S
O27 C6 1.256 . S
O28 Zn0 2.053 . S
O28 C6 1.244 . S
C29 O7 1.259 . S
C29 O8 1.254 . S
O30 Zn0 2.066 . S
O30 C2 1.256 . S
O31 C2 1.244 . S
O31 Zn3 2.053 . S
Zn32 O33 2.055 . S
Zn32 O40 2.046 . S
Zn32 N48 2.036 . S
Zn32 O60 2.053 . S
Zn32 O62 2.066 . S
O33 Zn32 2.055 . S
O33 C36 1.259 . S
C34 O62 1.256 . S
C34 O63 1.244 . S
Zn35 O37 2.046 . S
Zn35 O39 2.055 . S
Zn35 N41 2.036 . S
Zn35 O59 2.066 . S
Zn35 O63 2.053 . S
C36 O33 1.259 . S
C36 O37 1.254 . S
O37 Zn35 2.046 . S
O37 C36 1.254 . S
C38 O59 1.256 . S
C38 O60 1.244 . S
O39 Zn35 2.055 . S
O39 C61 1.259 . S
O40 Zn32 2.046 . S
O40 C61 1.254 . S
N41 Zn35 2.036 . S
N41 C42 1.298 . S
N41 N44 1.398 . S
C42 N41 1.298 . S
C42 N45 1.367 . S
C42 C55 1.481 . S
C43 N44 1.299 . S
C43 N45 1.379 . S
N44 N41 1.398 . S
N44 C43 1.299 . S
N45 C42 1.367 . S
N45 C43 1.379 . S
C46 N48 1.298 . S
C46 N50 1.367 . S
C46 C54 1.481 . S
C47 N49 1.299 . S
C47 N50 1.379 . S
N48 Zn32 2.036 . S
N48 C46 1.298 . S
N48 N49 1.398 . S
N49 C47 1.299 . S
N49 N48 1.398 . S
N50 C46 1.367 . S
N50 C47 1.379 . S
H51 C54 0.980 . S
H52 C54 0.981 . S
H53 C54 0.981 . S
C54 C46 1.481 . S
C54 H51 0.980 . S
C54 H52 0.981 . S
C54 H53 0.981 . S
C55 C42 1.481 . S
C55 H56 0.980 . S
C55 H57 0.981 . S
C55 H58 0.981 . S
H56 C55 0.980 . S
H57 C55 0.981 . S
H58 C55 0.981 . S
O59 Zn35 2.066 . S
O59 C38 1.256 . S
O60 Zn32 2.053 . S
O60 C38 1.244 . S
C61 O39 1.259 . S
C61 O40 1.254 . S
O62 Zn32 2.066 . S
O62 C34 1.256 . S
O63 C34 1.244 . S
O63 Zn35 2.053 . S
Zn64 O65 2.055 . S
Zn64 O72 2.046 . S
Zn64 N80 2.036 . S
Zn64 O92 2.053 . S
Zn64 O94 2.066 . S
O65 Zn64 2.055 . S
O65 C68 1.259 . S
C66 O94 1.256 . S
C66 O95 1.244 . S
Zn67 O69 2.046 . S
Zn67 O71 2.055 . S
Zn67 N73 2.036 . S
Zn67 O91 2.066 . S
Zn67 O95 2.053 . S
C68 O65 1.259 . S
C68 O69 1.254 . S
O69 Zn67 2.046 . S
O69 C68 1.254 . S
C70 O91 1.256 . S
C70 O92 1.244 . S
O71 Zn67 2.055 . S
O71 C93 1.259 . S
O72 Zn64 2.046 . S
O72 C93 1.254 . S
N73 Zn67 2.036 . S
N73 C74 1.298 . S
N73 N76 1.398 . S
C74 N73 1.298 . S
C74 N77 1.367 . S
C74 C87 1.481 . S
C75 N76 1.299 . S
C75 N77 1.379 . S
N76 N73 1.398 . S
N76 C75 1.299 . S
N77 C74 1.367 . S
N77 C75 1.379 . S
C78 N80 1.298 . S
C78 N82 1.367 . S
C78 C86 1.481 . S
C79 N81 1.299 . S
C79 N82 1.379 . S
N80 Zn64 2.036 . S
N80 C78 1.298 . S
N80 N81 1.398 . S
N81 C79 1.299 . S
N81 N80 1.398 . S
N82 C78 1.367 . S
N82 C79 1.379 . S
H83 C86 0.980 . S
H84 C86 0.981 . S
H85 C86 0.981 . S
C86 C78 1.481 . S
C86 H83 0.980 . S
C86 H84 0.981 . S
C86 H85 0.981 . S
C87 C74 1.481 . S
C87 H88 0.980 . S
C87 H89 0.981 . S
C87 H90 0.981 . S
H88 C87 0.980 . S
H89 C87 0.981 . S
H90 C87 0.981 . S
O91 Zn67 2.066 . S
O91 C70 1.256 . S
O92 Zn64 2.053 . S
O92 C70 1.244 . S
C93 O71 1.259 . S
C93 O72 1.254 . S
O94 Zn64 2.066 . S
O94 C66 1.256 . S
O95 C66 1.244 . S
O95 Zn67 2.053 . S
Zn96 O97 2.055 . S
Zn96 O104 2.046 . S
Zn96 N112 2.036 . S
Zn96 O124 2.053 . S
Zn96 O126 2.066 . S
O97 Zn96 2.055 . S
O97 C100 1.259 . S
C98 O126 1.256 . S
C98 O127 1.244 . S
Zn99 O101 2.046 . S
Zn99 O103 2.055 . S
Zn99 N105 2.036 . S
Zn99 O123 2.066 . S
Zn99 O127 2.053 . S
C100 O97 1.259 . S
C100 O101 1.254 . S
O101 Zn99 2.046 . S
O101 C100 1.254 . S
C102 O123 1.256 . S
C102 O124 1.244 . S
O103 Zn99 2.055 . S
O103 C125 1.259 . S
O104 Zn96 2.046 . S
O104 C125 1.254 . S
N105 Zn99 2.036 . S
N105 C106 1.298 . S
N105 N108 1.398 . S
C106 N105 1.298 . S
C106 N109 1.367 . S
C106 C119 1.481 . S
C107 N108 1.299 . S
C107 N109 1.379 . S
N108 N105 1.398 . S
N108 C107 1.299 . S
N109 C106 1.367 . S
N109 C107 1.379 . S
C110 N112 1.298 . S
C110 N114 1.367 . S
C110 C118 1.481 . S
C111 N113 1.299 . S
C111 N114 1.379 . S
N112 Zn96 2.036 . S
N112 C110 1.298 . S
N112 N113 1.398 . S
N113 C111 1.299 . S
N113 N112 1.398 . S
N114 C110 1.367 . S
N114 C111 1.379 . S
H115 C118 0.980 . S
H116 C118 0.981 . S
H117 C118 0.981 . S
C118 C110 1.481 . S
C118 H115 0.980 . S
C118 H116 0.981 . S
C118 H117 0.981 . S
C119 C106 1.481 . S
C119 H120 0.980 . S
C119 H121 0.981 . S
C119 H122 0.981 . S
H120 C119 0.980 . S
H121 C119 0.981 . S
H122 C119 0.981 . S
O123 Zn99 2.066 . S
O123 C102 1.256 . S
O124 Zn96 2.053 . S
O124 C102 1.244 . S
C125 O103 1.259 . S
C125 O104 1.254 . S
O126 Zn96 2.066 . S
O126 C98 1.256 . S
O127 C98 1.244 . S
O127 Zn99 2.053 . S
Zn128 O129 2.055 . S
Zn128 O136 2.046 . S
Zn128 N144 2.036 . S
Zn128 O156 2.053 . S
Zn128 O158 2.066 . S
O129 Zn128 2.055 . S
O129 C132 1.259 . S
C130 O158 1.256 . S
C130 O159 1.244 . S
Zn131 O133 2.046 . S
Zn131 O135 2.055 . S
Zn131 N137 2.036 . S
Zn131 O155 2.066 . S
Zn131 O159 2.053 . S
C132 O129 1.259 . S
C132 O133 1.254 . S
O133 Zn131 2.046 . S
O133 C132 1.254 . S
C134 O155 1.256 . S
C134 O156 1.244 . S
O135 Zn131 2.055 . S
O135 C157 1.259 . S
O136 Zn128 2.046 . S
O136 C157 1.254 . S
N137 Zn131 2.036 . S
N137 C138 1.298 . S
N137 N140 1.398 . S
C138 N137 1.298 . S
C138 N141 1.367 . S
C138 C151 1.481 . S
C139 N140 1.299 . S
C139 N141 1.379 . S
N140 N137 1.398 . S
N140 C139 1.299 . S
N141 C138 1.367 . S
N141 C139 1.379 . S
C142 N144 1.298 . S
C142 N146 1.367 . S
C142 C150 1.481 . S
C143 N145 1.299 . S
C143 N146 1.379 . S
N144 Zn128 2.036 . S
N144 C142 1.298 . S
N144 N145 1.398 . S
N145 C143 1.299 . S
N145 N144 1.398 . S
N146 C142 1.367 . S
N146 C143 1.379 . S
H147 C150 0.980 . S
H148 C150 0.981 . S
H149 C150 0.981 . S
C150 C142 1.481 . S
C150 H147 0.980 . S
C150 H148 0.981 . S
C150 H149 0.981 . S
C151 C138 1.481 . S
C151 H152 0.980 . S
C151 H153 0.981 . S
C151 H154 0.981 . S
H152 C151 0.980 . S
H153 C151 0.981 . S
H154 C151 0.981 . S
O155 Zn131 2.066 . S
O155 C134 1.256 . S
O156 Zn128 2.053 . S
O156 C134 1.244 . S
C157 O135 1.259 . S
C157 O136 1.254 . S
O158 Zn128 2.066 . S
O158 C130 1.256 . S
O159 C130 1.244 . S
O159 Zn131 2.053 . S
Zn160 O161 2.055 . S
Zn160 O168 2.046 . S
Zn160 N176 2.036 . S
Zn160 O188 2.053 . S
Zn160 O190 2.066 . S
O161 Zn160 2.055 . S
O161 C164 1.259 . S
C162 O190 1.256 . S
C162 O191 1.244 . S
Zn163 O165 2.046 . S
Zn163 O167 2.055 . S
Zn163 N169 2.036 . S
Zn163 O187 2.066 . S
Zn163 O191 2.053 . S
C164 O161 1.259 . S
C164 O165 1.254 . S
O165 Zn163 2.046 . S
O165 C164 1.254 . S
C166 O187 1.256 . S
C166 O188 1.244 . S
O167 Zn163 2.055 . S
O167 C189 1.259 . S
O168 Zn160 2.046 . S
O168 C189 1.254 . S
N169 Zn163 2.036 . S
N169 C170 1.298 . S
N169 N172 1.398 . S
C170 N169 1.298 . S
C170 N173 1.367 . S
C170 C183 1.481 . S
C171 N172 1.299 . S
C171 N173 1.379 . S
N172 N169 1.398 . S
N172 C171 1.299 . S
N173 C170 1.367 . S
N173 C171 1.379 . S
C174 N176 1.298 . S
C174 N178 1.367 . S
C174 C182 1.481 . S
C175 N177 1.299 . S
C175 N178 1.379 . S
N176 Zn160 2.036 . S
N176 C174 1.298 . S
N176 N177 1.398 . S
N177 C175 1.299 . S
N177 N176 1.398 . S
N178 C174 1.367 . S
N178 C175 1.379 . S
H179 C182 0.980 . S
H180 C182 0.981 . S
H181 C182 0.981 . S
C182 C174 1.481 . S
C182 H179 0.980 . S
C182 H180 0.981 . S
C182 H181 0.981 . S
C183 C170 1.481 . S
C183 H184 0.980 . S
C183 H185 0.981 . S
C183 H186 0.981 . S
H184 C183 0.980 . S
H185 C183 0.981 . S
H186 C183 0.981 . S
O187 Zn163 2.066 . S
O187 C166 1.256 . S
O188 Zn160 2.053 . S
O188 C166 1.244 . S
C189 O167 1.259 . S
C189 O168 1.254 . S
O190 Zn160 2.066 . S
O190 C162 1.256 . S
O191 C162 1.244 . S
O191 Zn163 2.053 . S
Zn192 O193 2.055 . S
Zn192 O200 2.046 . S
Zn192 N208 2.036 . S
Zn192 O220 2.053 . S
Zn192 O222 2.066 . S
O193 Zn192 2.055 . S
O193 C196 1.259 . S
C194 O222 1.256 . S
C194 O223 1.244 . S
Zn195 O197 2.046 . S
Zn195 O199 2.055 . S
Zn195 N201 2.036 . S
Zn195 O219 2.066 . S
Zn195 O223 2.053 . S
C196 O193 1.259 . S
C196 O197 1.254 . S
O197 Zn195 2.046 . S
O197 C196 1.254 . S
C198 O219 1.256 . S
C198 O220 1.244 . S
O199 Zn195 2.055 . S
O199 C221 1.259 . S
O200 Zn192 2.046 . S
O200 C221 1.254 . S
N201 Zn195 2.036 . S
N201 C202 1.298 . S
N201 N204 1.398 . S
C202 N201 1.298 . S
C202 N205 1.367 . S
C202 C215 1.481 . S
C203 N204 1.299 . S
C203 N205 1.379 . S
N204 N201 1.398 . S
N204 C203 1.299 . S
N205 C202 1.367 . S
N205 C203 1.379 . S
C206 N208 1.298 . S
C206 N210 1.367 . S
C206 C214 1.481 . S
C207 N209 1.299 . S
C207 N210 1.379 . S
N208 Zn192 2.036 . S
N208 C206 1.298 . S
N208 N209 1.398 . S
N209 C207 1.299 . S
N209 N208 1.398 . S
N210 C206 1.367 . S
N210 C207 1.379 . S
H211 C214 0.980 . S
H212 C214 0.981 . S
H213 C214 0.981 . S
C214 C206 1.481 . S
C214 H211 0.980 . S
C214 H212 0.981 . S
C214 H213 0.981 . S
C215 C202 1.481 . S
C215 H216 0.980 . S
C215 H217 0.981 . S
C215 H218 0.981 . S
H216 C215 0.980 . S
H217 C215 0.981 . S
H218 C215 0.981 . S
O219 Zn195 2.066 . S
O219 C198 1.256 . S
O220 Zn192 2.053 . S
O220 C198 1.244 . S
C221 O199 1.259 . S
C221 O200 1.254 . S
O222 Zn192 2.066 . S
O222 C194 1.256 . S
O223 C194 1.244 . S
O223 Zn195 2.053 . S
Zn224 O225 2.055 . S
Zn224 O232 2.046 . S
Zn224 N240 2.036 . S
Zn224 O252 2.053 . S
Zn224 O254 2.066 . S
O225 Zn224 2.055 . S
O225 C228 1.259 . S
C226 O254 1.256 . S
C226 O255 1.244 . S
Zn227 O229 2.046 . S
Zn227 O231 2.055 . S
Zn227 N233 2.036 . S
Zn227 O251 2.066 . S
Zn227 O255 2.053 . S
C228 O225 1.259 . S
C228 O229 1.254 . S
O229 Zn227 2.046 . S
O229 C228 1.254 . S
C230 O251 1.256 . S
C230 O252 1.244 . S
O231 Zn227 2.055 . S
O231 C253 1.259 . S
O232 Zn224 2.046 . S
O232 C253 1.254 . S
N233 Zn227 2.036 . S
N233 C234 1.298 . S
N233 N236 1.398 . S
C234 N233 1.298 . S
C234 N237 1.367 . S
C234 C247 1.481 . S
C235 N236 1.299 . S
C235 N237 1.379 . S
N236 N233 1.398 . S
N236 C235 1.299 . S
N237 C234 1.367 . S
N237 C235 1.379 . S
C238 N240 1.298 . S
C238 N242 1.367 . S
C238 C246 1.481 . S
C239 N241 1.299 . S
C239 N242 1.379 . S
N240 Zn224 2.036 . S
N240 C238 1.298 . S
N240 N241 1.398 . S
N241 C239 1.299 . S
N241 N240 1.398 . S
N242 C238 1.367 . S
N242 C239 1.379 . S
H243 C246 0.980 . S
H244 C246 0.981 . S
H245 C246 0.981 . S
C246 C238 1.481 . S
C246 H243 0.980 . S
C246 H244 0.981 . S
C246 H245 0.981 . S
C247 C234 1.481 . S
C247 H248 0.980 . S
C247 H249 0.981 . S
C247 H250 0.981 . S
H248 C247 0.980 . S
H249 C247 0.981 . S
H250 C247 0.981 . S
O251 Zn227 2.066 . S
O251 C230 1.256 . S
O252 Zn224 2.053 . S
O252 C230 1.244 . S
C253 O231 1.259 . S
C253 O232 1.254 . S
O254 Zn224 2.066 . S
O254 C226 1.256 . S
O255 C226 1.244 . S
O255 Zn227 2.053 . S
Zn256 O257 2.055 . S
Zn256 O264 2.046 . S
Zn256 N272 2.036 . S
Zn256 O284 2.053 . S
Zn256 O286 2.066 . S
O257 Zn256 2.055 . S
O257 C260 1.259 . S
C258 O286 1.256 . S
C258 O287 1.244 . S
Zn259 O261 2.046 . S
Zn259 O263 2.055 . S
Zn259 N265 2.036 . S
Zn259 O283 2.066 . S
Zn259 O287 2.053 . S
C260 O257 1.259 . S
C260 O261 1.254 . S
O261 Zn259 2.046 . S
O261 C260 1.254 . S
C262 O283 1.256 . S
C262 O284 1.244 . S
O263 Zn259 2.055 . S
O263 C285 1.259 . S
O264 Zn256 2.046 . S
O264 C285 1.254 . S
N265 Zn259 2.036 . S
N265 C266 1.298 . S
N265 N268 1.398 . S
C266 N265 1.298 . S
C266 N269 1.367 . S
C266 C279 1.481 . S
C267 N268 1.299 . S
C267 N269 1.379 . S
N268 N265 1.398 . S
N268 C267 1.299 . S
N269 C266 1.367 . S
N269 C267 1.379 . S
C270 N272 1.298 . S
C270 N274 1.367 . S
C270 C278 1.481 . S
C271 N273 1.299 . S
C271 N274 1.379 . S
N272 Zn256 2.036 . S
N272 C270 1.298 . S
N272 N273 1.398 . S
N273 C271 1.299 . S
N273 N272 1.398 . S
N274 C270 1.367 . S
N274 C271 1.379 . S
H275 C278 0.980 . S
H276 C278 0.981 . S
H277 C278 0.981 . S
C278 C270 1.481 . S
C278 H275 0.980 . S
C278 H276 0.981 . S
C278 H277 0.981 . S
C279 C266 1.481 . S
C279 H280 0.980 . S
C279 H281 0.981 . S
C279 H282 0.981 . S
H280 C279 0.980 . S
H281 C279 0.981 . S
H282 C279 0.981 . S
O283 Zn259 2.066 . S
O283 C262 1.256 . S
O284 Zn256 2.053 . S
O284 C262 1.244 . S
C285 O263 1.259 . S
C285 O264 1.254 . S
O286 Zn256 2.066 . S
O286 C258 1.256 . S
O287 C258 1.244 . S
O287 Zn259 2.053 . S
Zn288 O289 2.055 . S
Zn288 O296 2.046 . S
Zn288 N304 2.036 . S
Zn288 O316 2.053 . S
Zn288 O318 2.066 . S
O289 Zn288 2.055 . S
O289 C292 1.259 . S
C290 O318 1.256 . S
C290 O319 1.244 . S
Zn291 O293 2.046 . S
Zn291 O295 2.055 . S
Zn291 N297 2.036 . S
Zn291 O315 2.066 . S
Zn291 O319 2.053 1_565 S
C292 O289 1.259 . S
C292 O293 1.254 1_545 S
O293 Zn291 2.046 . S
O293 C292 1.254 1_565 S
C294 O315 1.256 1_545 S
C294 O316 1.244 . S
O295 Zn291 2.055 . S
O295 C317 1.259 . S
O296 Zn288 2.046 . S
O296 C317 1.254 1_545 S
N297 Zn291 2.036 . S
N297 C298 1.298 . S
N297 N300 1.398 . S
C298 N297 1.298 . S
C298 N301 1.367 . S
C298 C311 1.481 . S
C299 N300 1.299 . S
C299 N301 1.379 . S
N300 N297 1.398 . S
N300 C299 1.299 . S
N301 C298 1.367 . S
N301 C299 1.379 . S
C302 N304 1.298 . S
C302 N306 1.367 . S
C302 C310 1.481 . S
C303 N305 1.299 . S
C303 N306 1.379 . S
N304 Zn288 2.036 . S
N304 C302 1.298 . S
N304 N305 1.398 . S
N305 C303 1.299 . S
N305 N304 1.398 . S
N306 C302 1.367 . S
N306 C303 1.379 . S
H307 C310 0.980 . S
H308 C310 0.981 . S
H309 C310 0.981 . S
C310 C302 1.481 . S
C310 H307 0.980 . S
C310 H308 0.981 . S
C310 H309 0.981 . S
C311 C298 1.481 . S
C311 H312 0.980 . S
C311 H313 0.981 . S
C311 H314 0.981 . S
H312 C311 0.980 . S
H313 C311 0.981 . S
H314 C311 0.981 . S
O315 Zn291 2.066 . S
O315 C294 1.256 1_565 S
O316 Zn288 2.053 . S
O316 C294 1.244 . S
C317 O295 1.259 . S
C317 O296 1.254 1_565 S
O318 Zn288 2.066 . S
O318 C290 1.256 . S
O319 C290 1.244 . S
O319 Zn291 2.053 1_545 S
Zn320 O321 2.055 . S
Zn320 O328 2.046 . S
Zn320 N336 2.036 . S
Zn320 O348 2.053 . S
Zn320 O350 2.066 . S
O321 Zn320 2.055 . S
O321 C324 1.259 . S
C322 O350 1.256 . S
C322 O351 1.244 . S
Zn323 O325 2.046 . S
Zn323 O327 2.055 . S
Zn323 N329 2.036 . S
Zn323 O347 2.066 . S
Zn323 O351 2.053 . S
C324 O321 1.259 . S
C324 O325 1.254 . S
O325 Zn323 2.046 . S
O325 C324 1.254 . S
C326 O347 1.256 . S
C326 O348 1.244 . S
O327 Zn323 2.055 . S
O327 C349 1.259 . S
O328 Zn320 2.046 . S
O328 C349 1.254 . S
N329 Zn323 2.036 . S
N329 C330 1.298 . S
N329 N332 1.398 . S
C330 N329 1.298 . S
C330 N333 1.367 . S
C330 C343 1.481 . S
C331 N332 1.299 . S
C331 N333 1.379 . S
N332 N329 1.398 . S
N332 C331 1.299 . S
N333 C330 1.367 . S
N333 C331 1.379 . S
C334 N336 1.298 . S
C334 N338 1.367 . S
C334 C342 1.481 . S
C335 N337 1.299 . S
C335 N338 1.379 . S
N336 Zn320 2.036 . S
N336 C334 1.298 . S
N336 N337 1.398 . S
N337 C335 1.299 . S
N337 N336 1.398 . S
N338 C334 1.367 . S
N338 C335 1.379 . S
H339 C342 0.980 . S
H340 C342 0.981 . S
H341 C342 0.981 . S
C342 C334 1.481 . S
C342 H339 0.980 . S
C342 H340 0.981 . S
C342 H341 0.981 . S
C343 C330 1.481 . S
C343 H344 0.980 . S
C343 H345 0.981 . S
C343 H346 0.981 . S
H344 C343 0.980 . S
H345 C343 0.981 . S
H346 C343 0.981 . S
O347 Zn323 2.066 . S
O347 C326 1.256 . S
O348 Zn320 2.053 . S
O348 C326 1.244 . S
C349 O327 1.259 . S
C349 O328 1.254 . S
O350 Zn320 2.066 . S
O350 C322 1.256 . S
O351 C322 1.244 . S
O351 Zn323 2.053 . S
Zn352 O353 2.055 . S
Zn352 O360 2.046 . S
Zn352 N368 2.036 . S
Zn352 O380 2.053 1_545 S
Zn352 O382 2.066 . S
O353 Zn352 2.055 . S
O353 C356 1.259 . S
C354 O382 1.256 1_565 S
C354 O383 1.244 . S
Zn355 O357 2.046 . S
Zn355 O359 2.055 . S
Zn355 N361 2.036 . S
Zn355 O379 2.066 . S
Zn355 O383 2.053 . S
C356 O353 1.259 . S
C356 O357 1.254 1_545 S
O357 Zn355 2.046 . S
O357 C356 1.254 1_565 S
C358 O379 1.256 . S
C358 O380 1.244 . S
O359 Zn355 2.055 . S
O359 C381 1.259 . S
O360 Zn352 2.046 . S
O360 C381 1.254 1_545 S
N361 Zn355 2.036 . S
N361 C362 1.298 . S
N361 N364 1.398 . S
C362 N361 1.298 . S
C362 N365 1.367 . S
C362 C375 1.481 . S
C363 N364 1.299 . S
C363 N365 1.379 . S
N364 N361 1.398 . S
N364 C363 1.299 . S
N365 C362 1.367 . S
N365 C363 1.379 . S
C366 N368 1.298 . S
C366 N370 1.367 . S
C366 C374 1.481 . S
C367 N369 1.299 . S
C367 N370 1.379 . S
N368 Zn352 2.036 . S
N368 C366 1.298 . S
N368 N369 1.398 . S
N369 C367 1.299 . S
N369 N368 1.398 . S
N370 C366 1.367 . S
N370 C367 1.379 . S
H371 C374 0.980 . S
H372 C374 0.981 . S
H373 C374 0.981 . S
C374 C366 1.481 . S
C374 H371 0.980 . S
C374 H372 0.981 . S
C374 H373 0.981 . S
C375 C362 1.481 . S
C375 H376 0.980 . S
C375 H377 0.981 . S
C375 H378 0.981 . S
H376 C375 0.980 . S
H377 C375 0.981 . S
H378 C375 0.981 . S
O379 Zn355 2.066 . S
O379 C358 1.256 . S
O380 Zn352 2.053 1_565 S
O380 C358 1.244 . S
C381 O359 1.259 . S
C381 O360 1.254 1_565 S
O382 Zn352 2.066 . S
O382 C354 1.256 1_545 S
O383 C354 1.244 . S
O383 Zn355 2.053 . S
Zn384 O385 2.055 . S
Zn384 O392 2.046 . S
Zn384 N400 2.036 . S
Zn384 O412 2.053 . S
Zn384 O414 2.066 . S
O385 Zn384 2.055 . S
O385 C388 1.259 . S
C386 O414 1.256 . S
C386 O415 1.244 . S
Zn387 O389 2.046 . S
Zn387 O391 2.055 . S
Zn387 N393 2.036 . S
Zn387 O411 2.066 . S
Zn387 O415 2.053 . S
C388 O385 1.259 . S
C388 O389 1.254 . S
O389 Zn387 2.046 . S
O389 C388 1.254 . S
C390 O411 1.256 . S
C390 O412 1.244 . S
O391 Zn387 2.055 . S
O391 C413 1.259 . S
O392 Zn384 2.046 . S
O392 C413 1.254 . S
N393 Zn387 2.036 . S
N393 C394 1.298 . S
N393 N396 1.398 . S
C394 N393 1.298 . S
C394 N397 1.367 . S
C394 C407 1.481 . S
C395 N396 1.299 . S
C395 N397 1.379 . S
N396 N393 1.398 . S
N396 C395 1.299 . S
N397 C394 1.367 . S
N397 C395 1.379 . S
C398 N400 1.298 . S
C398 N402 1.367 . S
C398 C406 1.481 . S
C399 N401 1.299 . S
C399 N402 1.379 . S
N400 Zn384 2.036 . S
N400 C398 1.298 . S
N400 N401 1.398 . S
N401 C399 1.299 . S
N401 N400 1.398 . S
N402 C398 1.367 . S
N402 C399 1.379 . S
H403 C406 0.980 . S
H404 C406 0.981 . S
H405 C406 0.981 . S
C406 C398 1.481 . S
C406 H403 0.980 . S
C406 H404 0.981 . S
C406 H405 0.981 . S
C407 C394 1.481 . S
C407 H408 0.980 . S
C407 H409 0.981 . S
C407 H410 0.981 . S
H408 C407 0.980 . S
H409 C407 0.981 . S
H410 C407 0.981 . S
O411 Zn387 2.066 . S
O411 C390 1.256 . S
O412 Zn384 2.053 . S
O412 C390 1.244 . S
C413 O391 1.259 . S
C413 O392 1.254 . S
O414 Zn384 2.066 . S
O414 C386 1.256 . S
O415 C386 1.244 . S
O415 Zn387 2.053 . S
Zn416 O417 2.055 . S
Zn416 O424 2.046 . S
Zn416 N432 2.036 . S
Zn416 O444 2.053 . S
Zn416 O446 2.066 . S
O417 Zn416 2.055 . S
O417 C420 1.259 . S
C418 O446 1.256 . S
C418 O447 1.244 . S
Zn419 O421 2.046 . S
Zn419 O423 2.055 . S
Zn419 N425 2.036 . S
Zn419 O443 2.066 . S
Zn419 O447 2.053 1_545 S
C420 O417 1.259 . S
C420 O421 1.254 1_565 S
O421 Zn419 2.046 . S
O421 C420 1.254 1_545 S
C422 O443 1.256 1_565 S
C422 O444 1.244 . S
O423 Zn419 2.055 . S
O423 C445 1.259 . S
O424 Zn416 2.046 . S
O424 C445 1.254 1_565 S
N425 Zn419 2.036 . S
N425 C426 1.298 . S
N425 N428 1.398 . S
C426 N425 1.298 . S
C426 N429 1.367 . S
C426 C439 1.481 . S
C427 N428 1.299 . S
C427 N429 1.379 . S
N428 N425 1.398 . S
N428 C427 1.299 . S
N429 C426 1.367 . S
N429 C427 1.379 . S
C430 N432 1.298 . S
C430 N434 1.367 . S
C430 C438 1.481 . S
C431 N433 1.299 . S
C431 N434 1.379 . S
N432 Zn416 2.036 . S
N432 C430 1.298 . S
N432 N433 1.398 . S
N433 C431 1.299 . S
N433 N432 1.398 . S
N434 C430 1.367 . S
N434 C431 1.379 . S
H435 C438 0.980 . S
H436 C438 0.981 . S
H437 C438 0.981 . S
C438 C430 1.481 . S
C438 H435 0.980 . S
C438 H436 0.981 . S
C438 H437 0.981 . S
C439 C426 1.481 . S
C439 H440 0.980 . S
C439 H441 0.981 . S
C439 H442 0.981 . S
H440 C439 0.980 . S
H441 C439 0.981 . S
H442 C439 0.981 . S
O443 Zn419 2.066 . S
O443 C422 1.256 1_545 S
O444 Zn416 2.053 . S
O444 C422 1.244 . S
C445 O423 1.259 . S
C445 O424 1.254 1_545 S
O446 Zn416 2.066 . S
O446 C418 1.256 . S
O447 C418 1.244 . S
O447 Zn419 2.053 1_565 S
Zn448 O449 2.055 . S
Zn448 O456 2.046 . S
Zn448 N464 2.036 . S
Zn448 O476 2.053 . S
Zn448 O478 2.066 . S
O449 Zn448 2.055 . S
O449 C452 1.259 . S
C450 O478 1.256 . S
C450 O479 1.244 . S
Zn451 O453 2.046 . S
Zn451 O455 2.055 . S
Zn451 N457 2.036 . S
Zn451 O475 2.066 . S
Zn451 O479 2.053 . S
C452 O449 1.259 . S
C452 O453 1.254 . S
O453 Zn451 2.046 . S
O453 C452 1.254 . S
C454 O475 1.256 . S
C454 O476 1.244 . S
O455 Zn451 2.055 . S
O455 C477 1.259 . S
O456 Zn448 2.046 . S
O456 C477 1.254 . S
N457 Zn451 2.036 . S
N457 C458 1.298 . S
N457 N460 1.398 . S
C458 N457 1.298 . S
C458 N461 1.367 . S
C458 C471 1.481 . S
C459 N460 1.299 . S
C459 N461 1.379 . S
N460 N457 1.398 . S
N460 C459 1.299 . S
N461 C458 1.367 . S
N461 C459 1.379 . S
C462 N464 1.298 . S
C462 N466 1.367 . S
C462 C470 1.481 . S
C463 N465 1.299 . S
C463 N466 1.379 . S
N464 Zn448 2.036 . S
N464 C462 1.298 . S
N464 N465 1.398 . S
N465 C463 1.299 . S
N465 N464 1.398 . S
N466 C462 1.367 . S
N466 C463 1.379 . S
H467 C470 0.980 . S
H468 C470 0.981 . S
H469 C470 0.981 . S
C470 C462 1.481 . S
C470 H467 0.980 . S
C470 H468 0.981 . S
C470 H469 0.981 . S
C471 C458 1.481 . S
C471 H472 0.980 . S
C471 H473 0.981 . S
C471 H474 0.981 . S
H472 C471 0.980 . S
H473 C471 0.981 . S
H474 C471 0.981 . S
O475 Zn451 2.066 . S
O475 C454 1.256 . S
O476 Zn448 2.053 . S
O476 C454 1.244 . S
C477 O455 1.259 . S
C477 O456 1.254 . S
O478 Zn448 2.066 . S
O478 C450 1.256 . S
O479 C450 1.244 . S
O479 Zn451 2.053 . S
Zn480 O481 2.055 . S
Zn480 O488 2.046 . S
Zn480 N496 2.036 . S
Zn480 O508 2.053 1_565 S
Zn480 O510 2.066 . S
O481 Zn480 2.055 . S
O481 C484 1.259 . S
C482 O510 1.256 1_545 S
C482 O511 1.244 . S
Zn483 O485 2.046 . S
Zn483 O487 2.055 . S
Zn483 N489 2.036 . S
Zn483 O507 2.066 . S
Zn483 O511 2.053 . S
C484 O481 1.259 . S
C484 O485 1.254 1_565 S
O485 Zn483 2.046 . S
O485 C484 1.254 1_545 S
C486 O507 1.256 . S
C486 O508 1.244 . S
O487 Zn483 2.055 . S
O487 C509 1.259 . S
O488 Zn480 2.046 . S
O488 C509 1.254 1_565 S
N489 Zn483 2.036 . S
N489 C490 1.298 . S
N489 N492 1.398 . S
C490 N489 1.298 . S
C490 N493 1.367 . S
C490 C503 1.481 . S
C491 N492 1.299 . S
C491 N493 1.379 . S
N492 N489 1.398 . S
N492 C491 1.299 . S
N493 C490 1.367 . S
N493 C491 1.379 . S
C494 N496 1.298 . S
C494 N498 1.367 . S
C494 C502 1.481 . S
C495 N497 1.299 . S
C495 N498 1.379 . S
N496 Zn480 2.036 . S
N496 C494 1.298 . S
N496 N497 1.398 . S
N497 C495 1.299 . S
N497 N496 1.398 . S
N498 C494 1.367 . S
N498 C495 1.379 . S
H499 C502 0.980 . S
H500 C502 0.981 . S
H501 C502 0.981 . S
C502 C494 1.481 . S
C502 H499 0.980 . S
C502 H500 0.981 . S
C502 H501 0.981 . S
C503 C490 1.481 . S
C503 H504 0.980 . S
C503 H505 0.981 . S
C503 H506 0.981 . S
H504 C503 0.980 . S
H505 C503 0.981 . S
H506 C503 0.981 . S
O507 Zn483 2.066 . S
O507 C486 1.256 . S
O508 Zn480 2.053 1_545 S
O508 C486 1.244 . S
C509 O487 1.259 . S
C509 O488 1.254 1_545 S
O510 Zn480 2.066 . S
O510 C482 1.256 1_565 S
O511 C482 1.244 . S
O511 Zn483 2.053 . S
H512 C518 0.930 . S
H513 C521 0.930 . S
H514 C522 0.930 . S
H515 C523 0.930 . S
H516 C526 0.930 . S
H517 C527 0.930 . S
C518 H512 0.930 . S
C518 C519 1.355 . S
C518 C520 1.415 . S
C519 C518 1.355 . S
C519 C521 1.419 . S
C520 C518 1.415 . S
C520 C525 1.425 . S
C520 C527 1.409 . S
C521 H513 0.930 . S
C521 C519 1.419 . S
C521 C522 1.362 . S
C522 H514 0.930 . S
C522 C521 1.362 . S
C522 C525 1.409 . S
C523 H515 0.930 . S
C523 C524 1.355 . S
C523 C525 1.415 . S
C524 C523 1.355 . S
C524 C526 1.419 . S
C525 C520 1.425 . S
C525 C522 1.409 . S
C525 C523 1.415 . S
C526 H516 0.930 . S
C526 C524 1.419 . S
C526 C527 1.362 . S
C527 H517 0.930 . S
C527 C520 1.409 . S
C527 C526 1.362 . S
H528 C534 0.930 . S
H529 C537 0.930 . S
H530 C538 0.930 . S
H531 C539 0.930 . S
H532 C542 0.930 . S
H533 C543 0.930 . S
C534 H528 0.930 . S
C534 C535 1.355 . S
C534 C536 1.415 . S
C535 C534 1.355 . S
C535 C537 1.419 . S
C536 C534 1.415 . S
C536 C541 1.425 . S
C536 C543 1.409 . S
C537 H529 0.930 . S
C537 C535 1.419 . S
C537 C538 1.362 . S
C538 H530 0.930 . S
C538 C537 1.362 . S
C538 C541 1.409 . S
C539 H531 0.930 . S
C539 C540 1.355 . S
C539 C541 1.415 . S
C540 C539 1.355 . S
C540 C542 1.419 . S
C541 C536 1.425 . S
C541 C538 1.409 . S
C541 C539 1.415 . S
C542 H532 0.930 . S
C542 C540 1.419 . S
C542 C543 1.362 . S
C543 H533 0.930 . S
C543 C536 1.409 . S
C543 C542 1.362 . S
H544 C550 0.930 . S
H545 C553 0.930 . S
H546 C554 0.930 . S
H547 C555 0.930 . S
H548 C558 0.930 . S
H549 C559 0.930 . S
C550 H544 0.930 . S
C550 C551 1.355 . S
C550 C552 1.415 . S
C551 C550 1.355 . S
C551 C553 1.419 . S
C552 C550 1.415 . S
C552 C557 1.425 . S
C552 C559 1.409 . S
C553 H545 0.930 . S
C553 C551 1.419 . S
C553 C554 1.362 . S
C554 H546 0.930 . S
C554 C553 1.362 . S
C554 C557 1.409 . S
C555 H547 0.930 . S
C555 C556 1.355 . S
C555 C557 1.415 . S
C556 C555 1.355 . S
C556 C558 1.419 . S
C557 C552 1.425 . S
C557 C554 1.409 . S
C557 C555 1.415 . S
C558 H548 0.930 . S
C558 C556 1.419 . S
C558 C559 1.362 . S
C559 H549 0.930 . S
C559 C552 1.409 . S
C559 C558 1.362 . S
H560 C566 0.930 . S
H561 C569 0.930 . S
H562 C570 0.930 . S
H563 C571 0.930 . S
H564 C574 0.930 . S
H565 C575 0.930 . S
C566 H560 0.930 . S
C566 C567 1.355 . S
C566 C568 1.415 1_655 S
C567 C566 1.355 . S
C567 C569 1.419 . S
C568 C566 1.415 1_455 S
C568 C573 1.425 1_456 S
C568 C575 1.409 . S
C569 H561 0.930 . S
C569 C567 1.419 . S
C569 C570 1.362 1_556 S
C570 H562 0.930 . S
C570 C569 1.362 1_554 S
C570 C573 1.409 . S
C571 H563 0.930 . S
C571 C572 1.355 . S
C571 C573 1.415 1_455 S
C572 C571 1.355 . S
C572 C574 1.419 . S
C573 C568 1.425 1_654 S
C573 C570 1.409 . S
C573 C571 1.415 1_655 S
C574 H564 0.930 . S
C574 C572 1.419 . S
C574 C575 1.362 1_554 S
C575 H565 0.930 . S
C575 C568 1.409 . S
C575 C574 1.362 1_556 S
H576 C582 0.930 . S
H577 C585 0.930 . S
H578 C586 0.930 . S
H579 C587 0.930 . S
H580 C590 0.930 . S
H581 C591 0.930 . S
C582 H576 0.930 . S
C582 C583 1.355 . S
C582 C584 1.415 . S
C583 C582 1.355 . S
C583 C585 1.419 . S
C584 C582 1.415 . S
C584 C589 1.425 . S
C584 C591 1.409 . S
C585 H577 0.930 . S
C585 C583 1.419 . S
C585 C586 1.362 . S
C586 H578 0.930 . S
C586 C585 1.362 . S
C586 C589 1.409 . S
C587 H579 0.930 . S
C587 C588 1.355 . S
C587 C589 1.415 . S
C588 C587 1.355 . S
C588 C590 1.419 . S
C589 C584 1.425 . S
C589 C586 1.409 . S
C589 C587 1.415 . S
C590 H580 0.930 . S
C590 C588 1.419 . S
C590 C591 1.362 . S
C591 H581 0.930 . S
C591 C584 1.409 . S
C591 C590 1.362 . S
H592 C598 0.930 . S
H593 C601 0.930 . S
H594 C602 0.930 . S
H595 C603 0.930 . S
H596 C606 0.930 . S
H597 C607 0.930 . S
C598 H592 0.930 . S
C598 C599 1.355 . S
C598 C600 1.415 . S
C599 C598 1.355 . S
C599 C601 1.419 . S
C600 C598 1.415 . S
C600 C605 1.425 . S
C600 C607 1.409 . S
C601 H593 0.930 . S
C601 C599 1.419 . S
C601 C602 1.362 . S
C602 H594 0.930 . S
C602 C601 1.362 . S
C602 C605 1.409 . S
C603 H595 0.930 . S
C603 C604 1.355 . S
C603 C605 1.415 . S
C604 C603 1.355 . S
C604 C606 1.419 . S
C605 C600 1.425 . S
C605 C602 1.409 . S
C605 C603 1.415 . S
C606 H596 0.930 . S
C606 C604 1.419 . S
C606 C607 1.362 . S
C607 H597 0.930 . S
C607 C600 1.409 . S
C607 C606 1.362 . S
H608 C614 0.930 . S
H609 C617 0.929 1_556 S
H610 C618 0.930 . S
H611 C619 0.930 . S
H612 C622 0.929 1_554 S
H613 C623 0.930 . S
C614 H608 0.930 . S
C614 C615 1.355 1_545 S
C614 C616 1.409 1_655 S
C615 C614 1.355 1_565 S
C615 C617 1.425 . S
C616 C614 1.409 1_455 S
C616 C621 1.425 1_444 S
C616 C623 1.415 . S
C617 H609 0.929 1_554 S
C617 C615 1.425 . S
C617 C618 1.358 1_554 S
C618 H610 0.930 . S
C618 C617 1.358 1_556 S
C618 C621 1.415 . S
C619 H611 0.930 . S
C619 C620 1.355 1_565 S
C619 C621 1.409 1_455 S
C620 C619 1.355 1_545 S
C620 C622 1.425 . S
C621 C616 1.425 1_666 S
C621 C618 1.415 . S
C621 C619 1.409 1_655 S
C622 H612 0.929 1_556 S
C622 C620 1.425 . S
C622 C623 1.358 1_556 S
C623 H613 0.930 . S
C623 C616 1.415 . S
C623 C622 1.358 1_554 S
H624 C630 0.930 . S
H625 C633 0.930 . S
H626 C634 0.930 . S
H627 C635 0.930 . S
H628 C638 0.930 . S
H629 C639 0.930 . S
C630 H624 0.930 . S
C630 C631 1.355 . S
C630 C632 1.415 . S
C631 C630 1.355 . S
C631 C633 1.419 . S
C632 C630 1.415 . S
C632 C637 1.425 1_565 S
C632 C639 1.409 . S
C633 H625 0.930 . S
C633 C631 1.419 . S
C633 C634 1.362 1_565 S
C634 H626 0.930 . S
C634 C633 1.362 1_545 S
C634 C637 1.409 . S
C635 H627 0.930 . S
C635 C636 1.355 . S
C635 C637 1.415 . S
C636 C635 1.355 . S
C636 C638 1.419 . S
C637 C632 1.425 1_545 S
C637 C634 1.409 . S
C637 C635 1.415 . S
C638 H628 0.930 . S
C638 C636 1.419 . S
C638 C639 1.362 1_545 S
C639 H629 0.930 . S
C639 C632 1.409 . S
C639 C638 1.362 1_565 S
H640 C646 0.930 . S
H641 C649 0.930 . S
H642 C650 0.930 . S
H643 C651 0.930 . S
H644 C654 0.930 . S
H645 C655 0.930 . S
C646 H640 0.930 . S
C646 C647 1.355 . S
C646 C648 1.415 1_556 S
C647 C646 1.355 . S
C647 C649 1.419 . S
C648 C646 1.415 1_554 S
C648 C653 1.425 1_554 S
C648 C655 1.409 . S
C649 H641 0.930 . S
C649 C647 1.419 . S
C649 C650 1.362 . S
C650 H642 0.930 . S
C650 C649 1.362 . S
C650 C653 1.409 . S
C651 H643 0.930 . S
C651 C652 1.355 . S
C651 C653 1.415 1_554 S
C652 C651 1.355 . S
C652 C654 1.419 . S
C653 C648 1.425 1_556 S
C653 C650 1.409 . S
C653 C651 1.415 1_556 S
C654 H644 0.930 . S
C654 C652 1.419 . S
C654 C655 1.362 . S
C655 H645 0.930 . S
C655 C648 1.409 . S
C655 C654 1.362 . S
H656 C662 0.930 . S
H657 C665 0.930 . S
H658 C666 0.930 . S
H659 C667 0.930 . S
H660 C670 0.930 . S
H661 C671 0.930 . S
C662 H656 0.930 . S
C662 C663 1.355 . S
C662 C664 1.415 . S
C663 C662 1.355 . S
C663 C665 1.419 . S
C664 C662 1.415 . S
C664 C669 1.425 . S
C664 C671 1.409 . S
C665 H657 0.930 . S
C665 C663 1.419 . S
C665 C666 1.362 . S
C666 H658 0.930 . S
C666 C665 1.362 . S
C666 C669 1.409 . S
C667 H659 0.930 . S
C667 C668 1.355 . S
C667 C669 1.415 . S
C668 C667 1.355 . S
C668 C670 1.419 . S
C669 C664 1.425 . S
C669 C666 1.409 . S
C669 C667 1.415 . S
C670 H660 0.930 . S
C670 C668 1.419 . S
C670 C671 1.362 . S
C671 H661 0.930 . S
C671 C664 1.409 . S
C671 C670 1.362 . S
H672 C678 0.930 . S
H673 C681 0.930 . S
H674 C682 0.930 . S
H675 C683 0.930 . S
H676 C686 0.930 . S
H677 C687 0.930 . S
C678 H672 0.930 . S
C678 C679 1.355 . S
C678 C680 1.415 . S
C679 C678 1.355 . S
C679 C681 1.419 . S
C680 C678 1.415 . S
C680 C685 1.425 . S
C680 C687 1.409 . S
C681 H673 0.930 . S
C681 C679 1.419 . S
C681 C682 1.362 . S
C682 H674 0.930 . S
C682 C681 1.362 . S
C682 C685 1.409 . S
C683 H675 0.930 . S
C683 C684 1.355 . S
C683 C685 1.415 . S
C684 C683 1.355 . S
C684 C686 1.419 . S
C685 C680 1.425 . S
C685 C682 1.409 . S
C685 C683 1.415 . S
C686 H676 0.930 . S
C686 C684 1.419 . S
C686 C687 1.362 . S
C687 H677 0.930 . S
C687 C680 1.409 . S
C687 C686 1.362 . S
H688 C694 0.930 . S
H689 C697 0.930 . S
H690 C698 0.930 . S
H691 C699 0.930 . S
H692 C702 0.930 . S
H693 C703 0.930 . S
C694 H688 0.930 . S
C694 C695 1.355 . S
C694 C696 1.415 . S
C695 C694 1.355 . S
C695 C697 1.419 . S
C696 C694 1.415 . S
C696 C701 1.425 . S
C696 C703 1.409 . S
C697 H689 0.930 . S
C697 C695 1.419 . S
C697 C698 1.362 . S
C698 H690 0.930 . S
C698 C697 1.362 . S
C698 C701 1.409 . S
C699 H691 0.930 . S
C699 C700 1.355 . S
C699 C701 1.415 . S
C700 C699 1.355 . S
C700 C702 1.419 . S
C701 C696 1.425 . S
C701 C698 1.409 . S
C701 C699 1.415 . S
C702 H692 0.930 . S
C702 C700 1.419 . S
C702 C703 1.362 . S
C703 H693 0.930 . S
C703 C696 1.409 . S
C703 C702 1.362 . S
H704 C710 0.930 . S
H705 C713 0.930 . S
H706 C714 0.930 . S
H707 C715 0.930 . S
H708 C718 0.930 . S
H709 C719 0.930 . S
C710 H704 0.930 . S
C710 C711 1.355 . S
C710 C712 1.415 . S
C711 C710 1.355 . S
C711 C713 1.419 . S
C712 C710 1.415 . S
C712 C717 1.425 . S
C712 C719 1.409 1_554 S
C713 H705 0.930 . S
C713 C711 1.419 . S
C713 C714 1.362 . S
C714 H706 0.930 . S
C714 C713 1.362 . S
C714 C717 1.407 . S
C715 H707 0.930 . S
C715 C716 1.355 . S
C715 C717 1.417 1_556 S
C716 C715 1.355 . S
C716 C718 1.419 . S
C717 C712 1.425 . S
C717 C714 1.407 . S
C717 C715 1.417 1_554 S
C718 H708 0.930 . S
C718 C716 1.419 . S
C718 C719 1.362 . S
C719 H709 0.930 . S
C719 C712 1.409 1_556 S
C719 C718 1.362 . S
H720 C726 0.930 . S
H721 C729 0.930 . S
H722 C730 0.930 . S
H723 C731 0.930 . S
H724 C734 0.930 . S
H725 C735 0.930 . S
C726 H720 0.930 . S
C726 C727 1.355 . S
C726 C728 1.415 . S
C727 C726 1.355 . S
C727 C729 1.419 . S
C728 C726 1.415 . S
C728 C733 1.425 . S
C728 C735 1.409 . S
C729 H721 0.930 . S
C729 C727 1.419 . S
C729 C730 1.362 . S
C730 H722 0.930 . S
C730 C729 1.362 . S
C730 C733 1.409 . S
C731 H723 0.930 . S
C731 C732 1.355 . S
C731 C733 1.415 . S
C732 C731 1.355 . S
C732 C734 1.419 . S
C733 C728 1.425 . S
C733 C730 1.409 . S
C733 C731 1.415 . S
C734 H724 0.930 . S
C734 C732 1.419 . S
C734 C735 1.362 . S
C735 H725 0.930 . S
C735 C728 1.409 . S
C735 C734 1.362 . S
H736 C742 0.930 . S
H737 C745 0.930 . S
H738 C746 0.930 . S
H739 C747 0.930 . S
H740 C750 0.930 . S
H741 C751 0.930 . S
C742 H736 0.930 . S
C742 C743 1.355 . S
C742 C744 1.415 . S
C743 C742 1.355 . S
C743 C745 1.419 . S
C744 C742 1.415 . S
C744 C749 1.425 . S
C744 C751 1.409 . S
C745 H737 0.930 . S
C745 C743 1.419 . S
C745 C746 1.362 . S
C746 H738 0.930 . S
C746 C745 1.362 . S
C746 C749 1.409 . S
C747 H739 0.930 . S
C747 C748 1.355 . S
C747 C749 1.415 . S
C748 C747 1.355 . S
C748 C750 1.419 . S
C749 C744 1.425 . S
C749 C746 1.409 . S
C749 C747 1.415 . S
C750 H740 0.930 . S
C750 C748 1.419 . S
C750 C751 1.362 . S
C751 H741 0.930 . S
C751 C744 1.409 . S
C751 C750 1.362 . S
H752 C758 0.930 . S
H753 C761 0.930 . S
H754 C762 0.930 . S
H755 C763 0.930 . S
H756 C766 0.930 . S
H757 C767 0.930 . S
C758 H752 0.930 . S
C758 C759 1.355 . S
C758 C760 1.415 . S
C759 C758 1.355 . S
C759 C761 1.419 . S
C760 C758 1.415 . S
C760 C765 1.425 . S
C760 C767 1.409 . S
C761 H753 0.930 . S
C761 C759 1.419 . S
C761 C762 1.362 . S
C762 H754 0.930 . S
C762 C761 1.362 . S
C762 C765 1.409 . S
C763 H755 0.930 . S
C763 C764 1.355 . S
C763 C765 1.415 . S
C764 C763 1.355 . S
C764 C766 1.419 . S
C765 C760 1.425 . S
C765 C762 1.409 . S
C765 C763 1.415 . S
C766 H756 0.930 . S
C766 C764 1.419 . S
C766 C767 1.362 . S
C767 H757 0.930 . S
C767 C760 1.409 . S
C767 C766 1.362 . S
H768 C774 0.930 . S
H769 C777 0.930 . S
H770 C778 0.930 . S
H771 C779 0.930 . S
H772 C782 0.930 . S
H773 C783 0.930 . S
C774 H768 0.930 . S
C774 C775 1.355 . S
C774 C776 1.415 . S
C775 C774 1.355 . S
C775 C777 1.419 . S
C776 C774 1.415 . S
C776 C781 1.425 . S
C776 C783 1.409 . S
C777 H769 0.930 . S
C777 C775 1.419 . S
C777 C778 1.362 . S
C778 H770 0.930 . S
C778 C777 1.362 . S
C778 C781 1.409 . S
C779 H771 0.930 . S
C779 C780 1.355 . S
C779 C781 1.415 . S
C780 C779 1.355 . S
C780 C782 1.419 . S
C781 C776 1.425 . S
C781 C778 1.409 . S
C781 C779 1.415 . S
C782 H772 0.930 . S
C782 C780 1.419 . S
C782 C783 1.362 . S
C783 H773 0.930 . S
C783 C776 1.409 . S
C783 C782 1.362 . S
H784 C790 0.930 1_545 S
H785 C793 0.930 . S
H786 C794 0.930 . S
H787 C795 0.930 . S
H788 C798 0.930 . S
H789 C799 0.930 . S
C790 H784 0.930 1_565 S
C790 C791 1.355 . S
C790 C792 1.415 . S
C791 C790 1.355 . S
C791 C793 1.419 . S
C792 C790 1.415 . S
C792 C797 1.425 . S
C792 C799 1.409 . S
C793 H785 0.930 . S
C793 C791 1.419 . S
C793 C794 1.362 . S
C794 H786 0.930 . S
C794 C793 1.362 . S
C794 C797 1.409 . S
C795 H787 0.930 . S
C795 C796 1.355 . S
C795 C797 1.415 . S
C796 C795 1.355 . S
C796 C798 1.419 . S
C797 C792 1.425 . S
C797 C794 1.409 . S
C797 C795 1.415 . S
C798 H788 0.930 . S
C798 C796 1.419 . S
C798 C799 1.362 . S
C799 H789 0.930 . S
C799 C792 1.409 . S
C799 C798 1.362 . S
H800 C806 0.930 . S
H801 C809 0.930 . S
H802 C810 0.930 1_556 S
H803 C811 0.930 . S
H804 C814 0.930 . S
H805 C815 0.932 1_554 S
C806 H800 0.930 . S
C806 C807 1.355 . S
C806 C808 1.415 . S
C807 C806 1.355 . S
C807 C809 1.419 . S
C808 C806 1.415 . S
C808 C813 1.425 1_554 S
C808 C815 1.409 1_554 S
C809 H801 0.930 . S
C809 C807 1.419 . S
C809 C810 1.362 . S
C810 H802 0.930 1_554 S
C810 C809 1.362 . S
C810 C813 1.409 1_554 S
C811 H803 0.930 . S
C811 C812 1.355 . S
C811 C813 1.415 . S
C812 C811 1.355 . S
C812 C814 1.419 . S
C813 C808 1.425 1_556 S
C813 C810 1.409 1_556 S
C813 C811 1.415 . S
C814 H804 0.930 . S
C814 C812 1.419 . S
C814 C815 1.362 . S
C815 H805 0.932 1_556 S
C815 C808 1.409 1_556 S
C815 C814 1.362 . S
H816 C822 0.930 . S
H817 C825 0.930 . S
H818 C826 0.930 . S
H819 C827 0.930 1_565 S
H820 C830 0.930 . S
H821 C831 0.930 . S
C822 H816 0.930 . S
C822 C823 1.355 . S
C822 C824 1.415 . S
C823 C822 1.355 . S
C823 C825 1.419 . S
C824 C822 1.415 . S
C824 C829 1.425 . S
C824 C831 1.409 . S
C825 H817 0.930 . S
C825 C823 1.419 . S
C825 C826 1.362 . S
C826 H818 0.930 . S
C826 C825 1.362 . S
C826 C829 1.409 . S
C827 H819 0.930 1_545 S
C827 C828 1.355 . S
C827 C829 1.415 . S
C828 C827 1.355 . S
C828 C830 1.419 . S
C829 C824 1.425 . S
C829 C826 1.409 . S
C829 C827 1.415 . S
C830 H820 0.930 . S
C830 C828 1.419 . S
C830 C831 1.362 . S
C831 H821 0.930 . S
C831 C824 1.409 . S
C831 C830 1.362 . S
H832 C838 0.930 . S
H833 C841 0.930 . S
H834 C842 0.930 . S
H835 C843 0.930 . S
H836 C846 0.930 . S
H837 C847 0.930 . S
C838 H832 0.930 . S
C838 C839 1.355 . S
C838 C840 1.415 . S
C839 C838 1.355 . S
C839 C841 1.419 . S
C840 C838 1.415 . S
C840 C845 1.425 . S
C840 C847 1.409 . S
C841 H833 0.930 . S
C841 C839 1.419 . S
C841 C842 1.362 . S
C842 H834 0.930 . S
C842 C841 1.362 . S
C842 C845 1.409 . S
C843 H835 0.930 . S
C843 C844 1.355 . S
C843 C845 1.415 . S
C844 C843 1.355 . S
C844 C846 1.419 . S
C845 C840 1.425 . S
C845 C842 1.409 . S
C845 C843 1.415 . S
C846 H836 0.930 . S
C846 C844 1.419 . S
C846 C847 1.362 . S
C847 H837 0.930 . S
C847 C840 1.409 . S
C847 C846 1.362 . S
H848 C854 0.930 . S
H849 C857 0.930 . S
H850 C858 0.930 . S
H851 C859 0.930 . S
H852 C862 0.930 . S
H853 C863 0.930 . S
C854 H848 0.930 . S
C854 C855 1.355 . S
C854 C856 1.415 . S
C855 C854 1.355 . S
C855 C857 1.419 1_545 S
C856 C854 1.415 . S
C856 C861 1.425 . S
C856 C863 1.409 . S
C857 H849 0.930 . S
C857 C855 1.419 1_565 S
C857 C858 1.362 1_565 S
C858 H850 0.930 . S
C858 C857 1.362 1_545 S
C858 C861 1.409 . S
C859 H851 0.930 . S
C859 C860 1.355 . S
C859 C861 1.415 . S
C860 C859 1.355 . S
C860 C862 1.419 . S
C861 C856 1.425 . S
C861 C858 1.409 . S
C861 C859 1.415 . S
C862 H852 0.930 . S
C862 C860 1.419 . S
C862 C863 1.362 . S
C863 H853 0.930 . S
C863 C856 1.409 . S
C863 C862 1.362 . S
H864 C870 0.930 . S
H865 C873 0.930 . S
H866 C874 0.930 1_556 S
H867 C875 0.930 . S
H868 C878 0.930 . S
H869 C879 0.918 1_554 S
C870 H864 0.930 . S
C870 C871 1.355 . S
C870 C872 1.415 . S
C871 C870 1.355 . S
C871 C873 1.419 . S
C872 C870 1.415 . S
C872 C877 1.425 1_554 S
C872 C879 1.402 1_554 S
C873 H865 0.930 . S
C873 C871 1.419 . S
C873 C874 1.362 . S
C874 H866 0.930 1_554 S
C874 C873 1.362 . S
C874 C877 1.409 1_554 S
C875 H867 0.930 . S
C875 C876 1.355 . S
C875 C877 1.415 . S
C876 C875 1.355 . S
C876 C878 1.419 . S
C877 C872 1.425 1_556 S
C877 C874 1.409 1_556 S
C877 C875 1.415 . S
C878 H868 0.930 . S
C878 C876 1.419 . S
C878 C879 1.382 . S
C879 H869 0.918 1_556 S
C879 C872 1.402 1_556 S
C879 C878 1.382 . S
H880 C886 0.930 . S
H881 C889 0.930 . S
H882 C890 0.930 . S
H883 C891 0.930 . S
H884 C894 0.930 . S
H885 C895 0.930 1_545 S
C886 H880 0.930 . S
C886 C887 1.355 1_545 S
C886 C888 1.415 1_545 S
C887 C886 1.355 1_565 S
C887 C889 1.419 . S
C888 C886 1.415 1_565 S
C888 C893 1.425 . S
C888 C895 1.409 . S
C889 H881 0.930 . S
C889 C887 1.419 . S
C889 C890 1.362 . S
C890 H882 0.930 . S
C890 C889 1.362 . S
C890 C893 1.409 . S
C891 H883 0.930 . S
C891 C892 1.355 . S
C891 C893 1.415 . S
C892 C891 1.355 . S
C892 C894 1.419 . S
C893 C888 1.425 . S
C893 C890 1.409 . S
C893 C891 1.415 . S
C894 H884 0.930 . S
C894 C892 1.419 . S
C894 C895 1.362 . S
C895 H885 0.930 1_565 S
C895 C888 1.409 . S
C895 C894 1.362 . S
H896 C902 0.930 . S
H897 C905 0.930 . S
H898 C906 0.930 . S
H899 C907 0.930 . S
H900 C910 0.930 . S
H901 C911 0.930 . S
C902 H896 0.930 . S
C902 C903 1.355 . S
C902 C904 1.415 . S
C903 C902 1.355 . S
C903 C905 1.419 . S
C904 C902 1.415 . S
C904 C909 1.425 . S
C904 C911 1.409 . S
C905 H897 0.930 . S
C905 C903 1.419 . S
C905 C906 1.362 . S
C906 H898 0.930 . S
C906 C905 1.362 . S
C906 C909 1.409 . S
C907 H899 0.930 . S
C907 C908 1.355 . S
C907 C909 1.415 . S
C908 C907 1.355 . S
C908 C910 1.419 . S
C909 C904 1.425 . S
C909 C906 1.409 . S
C909 C907 1.415 . S
C910 H900 0.930 . S
C910 C908 1.419 . S
C910 C911 1.362 . S
C911 H901 0.930 . S
C911 C904 1.409 . S
C911 C910 1.362 . S
H912 C918 0.930 . S
H913 C921 0.930 . S
H914 C922 0.930 . S
H915 C923 0.930 . S
H916 C926 0.930 . S
H917 C927 0.930 . S
C918 H912 0.930 . S
C918 C919 1.355 . S
C918 C920 1.415 . S
C919 C918 1.355 . S
C919 C921 1.419 . S
C920 C918 1.415 . S
C920 C925 1.425 . S
C920 C927 1.409 . S
C921 H913 0.930 . S
C921 C919 1.419 . S
C921 C922 1.362 . S
C922 H914 0.930 . S
C922 C921 1.362 . S
C922 C925 1.409 . S
C923 H915 0.930 . S
C923 C924 1.355 . S
C923 C925 1.415 . S
C924 C923 1.355 . S
C924 C926 1.419 . S
C925 C920 1.425 . S
C925 C922 1.409 . S
C925 C923 1.415 . S
C926 H916 0.930 . S
C926 C924 1.419 . S
C926 C927 1.362 . S
C927 H917 0.930 . S
C927 C920 1.409 . S
C927 C926 1.362 . S
H928 C934 0.930 . S
H929 C937 0.930 . S
H930 C938 0.930 . S
H931 C939 0.930 . S
H932 C942 0.930 . S
H933 C943 0.930 . S
C934 H928 0.930 . S
C934 C935 1.355 . S
C934 C936 1.415 . S
C935 C934 1.355 . S
C935 C937 1.419 . S
C936 C934 1.415 . S
C936 C941 1.425 1_655 S
C936 C943 1.409 . S
C937 H929 0.930 . S
C937 C935 1.419 . S
C937 C938 1.362 1_655 S
C938 H930 0.930 . S
C938 C937 1.362 1_455 S
C938 C941 1.409 . S
C939 H931 0.930 . S
C939 C940 1.355 . S
C939 C941 1.415 . S
C940 C939 1.355 . S
C940 C942 1.419 . S
C941 C936 1.425 1_455 S
C941 C938 1.409 . S
C941 C939 1.415 . S
C942 H932 0.930 . S
C942 C940 1.419 . S
C942 C943 1.362 1_455 S
C943 H933 0.930 . S
C943 C936 1.409 . S
C943 C942 1.362 1_655 S
H944 C950 0.930 . S
H945 C953 0.930 . S
H946 C954 0.930 . S
H947 C955 0.930 . S
H948 C958 0.930 . S
H949 C959 0.930 . S
C950 H944 0.930 . S
C950 C951 1.355 . S
C950 C952 1.415 . S
C951 C950 1.355 . S
C951 C953 1.419 1_655 S
C952 C950 1.415 . S
C952 C957 1.425 1_655 S
C952 C959 1.409 . S
C953 H945 0.930 . S
C953 C951 1.419 1_455 S
C953 C954 1.362 . S
C954 H946 0.930 . S
C954 C953 1.362 . S
C954 C957 1.409 . S
C955 H947 0.930 . S
C955 C956 1.355 . S
C955 C957 1.415 . S
C956 C955 1.355 . S
C956 C958 1.419 1_455 S
C957 C952 1.425 1_455 S
C957 C954 1.409 . S
C957 C955 1.415 . S
C958 H948 0.930 . S
C958 C956 1.419 1_655 S
C958 C959 1.362 . S
C959 H949 0.930 . S
C959 C952 1.409 . S
C959 C958 1.362 . S
H960 C966 0.930 . S
H961 C969 0.930 . S
H962 C970 0.930 . S
H963 C971 0.930 . S
H964 C974 0.930 . S
H965 C975 0.930 . S
C966 H960 0.930 . S
C966 C967 1.355 . S
C966 C968 1.415 . S
C967 C966 1.355 . S
C967 C969 1.419 . S
C968 C966 1.415 . S
C968 C973 1.425 . S
C968 C975 1.409 . S
C969 H961 0.930 . S
C969 C967 1.419 . S
C969 C970 1.362 . S
C970 H962 0.930 . S
C970 C969 1.362 . S
C970 C973 1.409 . S
C971 H963 0.930 . S
C971 C972 1.355 . S
C971 C973 1.415 . S
C972 C971 1.355 . S
C972 C974 1.419 . S
C973 C968 1.425 . S
C973 C970 1.409 . S
C973 C971 1.415 . S
C974 H964 0.930 . S
C974 C972 1.419 . S
C974 C975 1.362 . S
C975 H965 0.930 . S
C975 C968 1.409 . S
C975 C974 1.362 . S
H976 C982 0.930 . S
H977 C985 0.930 . S
H978 C986 0.930 . S
H979 C987 0.930 . S
H980 C990 0.930 . S
H981 C991 0.930 . S
C982 H976 0.930 . S
C982 C983 1.355 . S
C982 C984 1.415 . S
C983 C982 1.355 . S
C983 C985 1.419 . S
C984 C982 1.415 . S
C984 C989 1.425 . S
C984 C991 1.409 . S
C985 H977 0.930 . S
C985 C983 1.419 . S
C985 C986 1.362 . S
C986 H978 0.930 . S
C986 C985 1.362 . S
C986 C989 1.409 . S
C987 H979 0.930 . S
C987 C988 1.355 . S
C987 C989 1.415 . S
C988 C987 1.355 . S
C988 C990 1.419 . S
C989 C984 1.425 . S
C989 C986 1.409 . S
C989 C987 1.415 . S
C990 H980 0.930 . S
C990 C988 1.419 . S
C990 C991 1.362 . S
C991 H981 0.930 . S
C991 C984 1.409 . S
C991 C990 1.362 . S
H992 C998 0.930 . S
H993 C1001 0.930 . S
H994 C1002 0.930 . S
H995 C1003 0.930 . S
H996 C1006 0.930 . S
H997 C1007 0.930 . S
C998 H992 0.930 . S
C998 C999 1.355 . S
C998 C1000 1.415 . S
C999 C998 1.355 . S
C999 C1001 1.419 . S
C1000 C998 1.415 . S
C1000 C1005 1.425 1_455 S
C1000 C1007 1.409 . S
C1001 H993 0.930 . S
C1001 C999 1.419 . S
C1001 C1002 1.362 1_455 S
C1002 H994 0.930 . S
C1002 C1001 1.362 1_655 S
C1002 C1005 1.409 . S
C1003 H995 0.930 . S
C1003 C1004 1.355 . S
C1003 C1005 1.415 . S
C1004 C1003 1.355 . S
C1004 C1006 1.419 . S
C1005 C1000 1.425 1_655 S
C1005 C1002 1.409 . S
C1005 C1003 1.415 . S
C1006 H996 0.930 . S
C1006 C1004 1.419 . S
C1006 C1007 1.362 1_655 S
C1007 H997 0.930 . S
C1007 C1000 1.409 . S
C1007 C1006 1.362 1_455 S
H1008 C1014 0.930 1_655 S
H1009 C1017 0.930 . S
H1010 C1018 0.930 . S
H1011 C1019 0.930 1_455 S
H1012 C1022 0.930 . S
H1013 C1023 0.930 . S
C1014 H1008 0.930 1_455 S
C1014 C1015 1.355 . S
C1014 C1016 1.415 1_455 S
C1015 C1014 1.355 . S
C1015 C1017 1.419 . S
C1016 C1014 1.415 1_655 S
C1016 C1021 1.425 1_655 S
C1016 C1023 1.409 . S
C1017 H1009 0.930 . S
C1017 C1015 1.419 . S
C1017 C1018 1.362 . S
C1018 H1010 0.930 . S
C1018 C1017 1.362 . S
C1018 C1021 1.409 . S
C1019 H1011 0.930 1_655 S
C1019 C1020 1.355 . S
C1019 C1021 1.415 1_655 S
C1020 C1019 1.355 . S
C1020 C1022 1.419 . S
C1021 C1016 1.425 1_455 S
C1021 C1018 1.409 . S
C1021 C1019 1.415 1_455 S
C1022 H1012 0.930 . S
C1022 C1020 1.419 . S
C1022 C1023 1.362 . S
C1023 H1013 0.930 . S
C1023 C1016 1.409 . S
C1023 C1022 1.362 . S
H1024 C1030 0.930 . S
H1025 C1033 0.930 . S
H1026 C1034 0.930 . S
H1027 C1035 0.930 . S
H1028 C1038 0.930 . S
H1029 C1039 0.930 . S
C1030 H1024 0.930 . S
C1030 C1031 1.355 . S
C1030 C1032 1.415 . S
C1031 C1030 1.355 . S
C1031 C1033 1.419 . S
C1032 C1030 1.415 . S
C1032 C1037 1.425 . S
C1032 C1039 1.409 . S
C1033 H1025 0.930 . S
C1033 C1031 1.419 . S
C1033 C1034 1.362 . S
C1034 H1026 0.930 . S
C1034 C1033 1.362 . S
C1034 C1037 1.409 . S
C1035 H1027 0.930 . S
C1035 C1036 1.355 . S
C1035 C1037 1.415 . S
C1036 C1035 1.355 . S
C1036 C1038 1.419 . S
C1037 C1032 1.425 . S
C1037 C1034 1.409 . S
C1037 C1035 1.415 . S
C1038 H1028 0.930 . S
C1038 C1036 1.419 . S
C1038 C1039 1.362 . S
C1039 H1029 0.930 . S
C1039 C1032 1.409 . S
C1039 C1038 1.362 . S
H1040 C1046 0.930 . S
H1041 C1049 0.930 . S
H1042 C1050 0.930 . S
H1043 C1051 0.930 . S
H1044 C1054 0.930 . S
H1045 C1055 0.930 . S
C1046 H1040 0.930 . S
C1046 C1047 1.355 . S
C1046 C1048 1.415 . S
C1047 C1046 1.355 . S
C1047 C1049 1.419 . S
C1048 C1046 1.415 . S
C1048 C1053 1.425 . S
C1048 C1055 1.409 . S
C1049 H1041 0.930 . S
C1049 C1047 1.419 . S
C1049 C1050 1.362 . S
C1050 H1042 0.930 . S
C1050 C1049 1.362 . S
C1050 C1053 1.409 . S
C1051 H1043 0.930 . S
C1051 C1052 1.355 . S
C1051 C1053 1.415 . S
C1052 C1051 1.355 . S
C1052 C1054 1.419 . S
C1053 C1048 1.425 . S
C1053 C1050 1.409 . S
C1053 C1051 1.415 . S
C1054 H1044 0.930 . S
C1054 C1052 1.419 . S
C1054 C1055 1.362 . S
C1055 H1045 0.930 . S
C1055 C1048 1.409 . S
C1055 C1054 1.362 . S
H1056 C1062 0.930 . S
H1057 C1065 0.930 . S
H1058 C1066 0.930 . S
H1059 C1067 0.930 . S
H1060 C1070 0.930 . S
H1061 C1071 0.930 . S
C1062 H1056 0.930 . S
C1062 C1063 1.355 . S
C1062 C1064 1.415 . S
C1063 C1062 1.355 . S
C1063 C1065 1.419 . S
C1064 C1062 1.415 . S
C1064 C1069 1.425 . S
C1064 C1071 1.409 . S
C1065 H1057 0.930 . S
C1065 C1063 1.419 . S
C1065 C1066 1.362 . S
C1066 H1058 0.930 . S
C1066 C1065 1.362 . S
C1066 C1069 1.409 . S
C1067 H1059 0.930 . S
C1067 C1068 1.355 . S
C1067 C1069 1.415 . S
C1068 C1067 1.355 . S
C1068 C1070 1.419 . S
C1069 C1064 1.425 . S
C1069 C1066 1.409 . S
C1069 C1067 1.415 . S
C1070 H1060 0.930 . S
C1070 C1068 1.419 . S
C1070 C1071 1.362 . S
C1071 H1061 0.930 . S
C1071 C1064 1.409 . S
C1071 C1070 1.362 . S
H1072 C1078 0.930 . S
H1073 C1081 0.930 . S
H1074 C1082 0.930 . S
H1075 C1083 0.930 . S
H1076 C1086 0.930 . S
H1077 C1087 0.930 . S
C1078 H1072 0.930 . S
C1078 C1079 1.355 . S
C1078 C1080 1.415 1_655 S
C1079 C1078 1.355 . S
C1079 C1081 1.419 1_655 S
C1080 C1078 1.415 1_455 S
C1080 C1085 1.425 . S
C1080 C1087 1.409 . S
C1081 H1073 0.930 . S
C1081 C1079 1.419 1_455 S
C1081 C1082 1.362 . S
C1082 H1074 0.930 . S
C1082 C1081 1.362 . S
C1082 C1085 1.409 . S
C1083 H1075 0.930 . S
C1083 C1084 1.355 . S
C1083 C1085 1.415 . S
C1084 C1083 1.355 . S
C1084 C1086 1.419 . S
C1085 C1080 1.425 . S
C1085 C1082 1.409 . S
C1085 C1083 1.415 . S
C1086 H1076 0.930 . S
C1086 C1084 1.419 . S
C1086 C1087 1.362 . S
C1087 H1077 0.930 . S
C1087 C1080 1.409 . S
C1087 C1086 1.362 . S
H1088 C1094 0.930 . S
H1089 C1097 0.930 . S
H1090 C1098 0.930 . S
H1091 C1099 0.930 . S
H1092 C1102 0.930 . S
H1093 C1103 0.930 . S
C1094 H1088 0.930 . S
C1094 C1095 1.355 . S
C1094 C1096 1.415 . S
C1095 C1094 1.355 . S
C1095 C1097 1.419 . S
C1096 C1094 1.415 . S
C1096 C1101 1.425 . S
C1096 C1103 1.409 . S
C1097 H1089 0.930 . S
C1097 C1095 1.419 . S
C1097 C1098 1.362 . S
C1098 H1090 0.930 . S
C1098 C1097 1.362 . S
C1098 C1101 1.409 . S
C1099 H1091 0.930 . S
C1099 C1100 1.355 . S
C1099 C1101 1.415 . S
C1100 C1099 1.355 . S
C1100 C1102 1.419 . S
C1101 C1096 1.425 . S
C1101 C1098 1.409 . S
C1101 C1099 1.415 . S
C1102 H1092 0.930 . S
C1102 C1100 1.419 . S
C1102 C1103 1.362 . S
C1103 H1093 0.930 . S
C1103 C1096 1.409 . S
C1103 C1102 1.362 . S
H1104 C1110 0.930 . S
H1105 C1113 0.930 . S
H1106 C1114 0.930 . S
H1107 C1115 0.930 . S
H1108 C1118 0.930 . S
H1109 C1119 0.930 . S
C1110 H1104 0.930 . S
C1110 C1111 1.355 . S
C1110 C1112 1.415 . S
C1111 C1110 1.355 . S
C1111 C1113 1.419 . S
C1112 C1110 1.415 . S
C1112 C1117 1.425 . S
C1112 C1119 1.409 . S
C1113 H1105 0.930 . S
C1113 C1111 1.419 . S
C1113 C1114 1.362 . S
C1114 H1106 0.930 . S
C1114 C1113 1.362 . S
C1114 C1117 1.409 . S
C1115 H1107 0.930 . S
C1115 C1116 1.355 . S
C1115 C1117 1.415 . S
C1116 C1115 1.355 . S
C1116 C1118 1.419 . S
C1117 C1112 1.425 . S
C1117 C1114 1.409 . S
C1117 C1115 1.415 . S
C1118 H1108 0.930 . S
C1118 C1116 1.419 . S
C1118 C1119 1.362 . S
C1119 H1109 0.930 . S
C1119 C1112 1.409 . S
C1119 C1118 1.362 . S
H1120 C1126 0.930 . S
H1121 C1129 0.930 . S
H1122 C1130 0.930 . S
H1123 C1131 0.930 . S
H1124 C1134 0.930 . S
H1125 C1135 0.930 . S
C1126 H1120 0.930 . S
C1126 C1127 1.355 . S
C1126 C1128 1.415 . S
C1127 C1126 1.355 . S
C1127 C1129 1.419 . S
C1128 C1126 1.415 . S
C1128 C1133 1.425 . S
C1128 C1135 1.409 . S
C1129 H1121 0.930 . S
C1129 C1127 1.419 . S
C1129 C1130 1.362 . S
C1130 H1122 0.930 . S
C1130 C1129 1.362 . S
C1130 C1133 1.409 . S
C1131 H1123 0.930 . S
C1131 C1132 1.355 . S
C1131 C1133 1.415 . S
C1132 C1131 1.355 . S
C1132 C1134 1.419 . S
C1133 C1128 1.425 . S
C1133 C1130 1.409 . S
C1133 C1131 1.415 . S
C1134 H1124 0.930 . S
C1134 C1132 1.419 . S
C1134 C1135 1.362 . S
C1135 H1125 0.930 . S
C1135 C1128 1.409 . S
C1135 C1134 1.362 . S
H1136 C1142 0.930 . S
H1137 C1145 0.930 . S
H1138 C1146 0.930 . S
H1139 C1147 0.930 . S
H1140 C1150 0.930 . S
H1141 C1151 0.930 . S
C1142 H1136 0.930 . S
C1142 C1143 1.355 . S
C1142 C1144 1.415 . S
C1143 C1142 1.355 . S
C1143 C1145 1.419 . S
C1144 C1142 1.415 . S
C1144 C1149 1.425 . S
C1144 C1151 1.409 . S
C1145 H1137 0.930 . S
C1145 C1143 1.419 . S
C1145 C1146 1.362 . S
C1146 H1138 0.930 . S
C1146 C1145 1.362 . S
C1146 C1149 1.409 . S
C1147 H1139 0.930 . S
C1147 C1148 1.355 . S
C1147 C1149 1.415 1_455 S
C1148 C1147 1.355 . S
C1148 C1150 1.419 1_455 S
C1149 C1144 1.425 . S
C1149 C1146 1.409 . S
C1149 C1147 1.415 1_655 S
C1150 H1140 0.930 . S
C1150 C1148 1.419 1_655 S
C1150 C1151 1.362 . S
C1151 H1141 0.930 . S
C1151 C1144 1.409 . S
C1151 C1150 1.362 . S
H1152 C1158 0.930 . S
H1153 C1161 0.930 . S
H1154 C1162 0.930 . S
H1155 C1163 0.930 . S
H1156 C1166 0.930 . S
H1157 C1167 0.930 . S
C1158 H1152 0.930 . S
C1158 C1159 1.355 . S
C1158 C1160 1.415 . S
C1159 C1158 1.355 . S
C1159 C1161 1.419 . S
C1160 C1158 1.415 . S
C1160 C1165 1.425 . S
C1160 C1167 1.409 . S
C1161 H1153 0.930 . S
C1161 C1159 1.419 . S
C1161 C1162 1.362 . S
C1162 H1154 0.930 . S
C1162 C1161 1.362 . S
C1162 C1165 1.409 . S
C1163 H1155 0.930 . S
C1163 C1164 1.355 . S
C1163 C1165 1.415 . S
C1164 C1163 1.355 . S
C1164 C1166 1.419 . S
C1165 C1160 1.425 . S
C1165 C1162 1.409 . S
C1165 C1163 1.415 . S
C1166 H1156 0.930 . S
C1166 C1164 1.419 . S
C1166 C1167 1.362 . S
C1167 H1157 0.930 . S
C1167 C1160 1.409 . S
C1167 C1166 1.362 . S
H1168 C1174 0.930 . S
H1169 C1177 0.930 . S
H1170 C1178 0.930 . S
H1171 C1179 0.930 . S
H1172 C1182 0.937 1_545 S
H1173 C1183 0.930 1_545 S
C1174 H1168 0.930 . S
C1174 C1175 1.355 . S
C1174 C1176 1.415 . S
C1175 C1174 1.355 . S
C1175 C1177 1.419 . S
C1176 C1174 1.415 . S
C1176 C1181 1.425 . S
C1176 C1183 1.409 . S
C1177 H1169 0.930 . S
C1177 C1175 1.419 . S
C1177 C1178 1.362 . S
C1178 H1170 0.930 . S
C1178 C1177 1.362 . S
C1178 C1181 1.409 . S
C1179 H1171 0.930 . S
C1179 C1180 1.355 . S
C1179 C1181 1.415 1_455 S
C1180 C1179 1.355 . S
C1180 C1182 1.422 1_455 S
C1181 C1176 1.425 . S
C1181 C1178 1.409 . S
C1181 C1179 1.415 1_655 S
C1182 H1172 0.937 1_565 S
C1182 C1180 1.422 1_655 S
C1182 C1183 1.363 . S
C1183 H1173 0.930 1_565 S
C1183 C1176 1.409 . S
C1183 C1182 1.363 . S
H1184 C1190 0.930 . S
H1185 C1193 0.930 . S
H1186 C1194 0.930 . S
H1187 C1195 0.930 . S
H1188 C1198 0.930 . S
H1189 C1199 0.930 . S
C1190 H1184 0.930 . S
C1190 C1191 1.355 . S
C1190 C1192 1.415 . S
C1191 C1190 1.355 . S
C1191 C1193 1.419 . S
C1192 C1190 1.415 . S
C1192 C1197 1.425 . S
C1192 C1199 1.409 . S
C1193 H1185 0.930 . S
C1193 C1191 1.419 . S
C1193 C1194 1.362 . S
C1194 H1186 0.930 . S
C1194 C1193 1.362 . S
C1194 C1197 1.409 . S
C1195 H1187 0.930 . S
C1195 C1196 1.355 . S
C1195 C1197 1.415 . S
C1196 C1195 1.355 . S
C1196 C1198 1.419 . S
C1197 C1192 1.425 . S
C1197 C1194 1.409 . S
C1197 C1195 1.415 . S
C1198 H1188 0.930 . S
C1198 C1196 1.419 . S
C1198 C1199 1.362 . S
C1199 H1189 0.930 . S
C1199 C1192 1.409 . S
C1199 C1198 1.362 . S
H1200 C1206 0.930 . S
H1201 C1209 0.930 . S
H1202 C1210 0.930 . S
H1203 C1211 0.930 . S
H1204 C1214 0.930 . S
H1205 C1215 0.930 . S
C1206 H1200 0.930 . S
C1206 C1207 1.355 . S
C1206 C1208 1.415 . S
C1207 C1206 1.355 . S
C1207 C1209 1.419 . S
C1208 C1206 1.415 . S
C1208 C1213 1.425 . S
C1208 C1215 1.409 . S
C1209 H1201 0.930 . S
C1209 C1207 1.419 . S
C1209 C1210 1.362 . S
C1210 H1202 0.930 . S
C1210 C1209 1.362 . S
C1210 C1213 1.409 . S
C1211 H1203 0.930 . S
C1211 C1212 1.355 . S
C1211 C1213 1.415 . S
C1212 C1211 1.355 . S
C1212 C1214 1.419 . S
C1213 C1208 1.425 . S
C1213 C1210 1.409 . S
C1213 C1211 1.415 . S
C1214 H1204 0.930 . S
C1214 C1212 1.419 . S
C1214 C1215 1.362 . S
C1215 H1205 0.930 . S
C1215 C1208 1.409 . S
C1215 C1214 1.362 . S
H1216 C1222 0.930 . S
H1217 C1225 0.930 . S
H1218 C1226 0.930 . S
H1219 C1227 0.930 . S
H1220 C1230 0.930 . S
H1221 C1231 0.930 . S
C1222 H1216 0.930 . S
C1222 C1223 1.355 . S
C1222 C1224 1.415 . S
C1223 C1222 1.355 . S
C1223 C1225 1.419 . S
C1224 C1222 1.415 . S
C1224 C1229 1.425 . S
C1224 C1231 1.409 . S
C1225 H1217 0.930 . S
C1225 C1223 1.419 . S
C1225 C1226 1.362 . S
C1226 H1218 0.930 . S
C1226 C1225 1.362 . S
C1226 C1229 1.409 . S
C1227 H1219 0.930 . S
C1227 C1228 1.355 . S
C1227 C1229 1.415 . S
C1228 C1227 1.355 . S
C1228 C1230 1.419 . S
C1229 C1224 1.425 . S
C1229 C1226 1.409 . S
C1229 C1227 1.415 . S
C1230 H1220 0.930 . S
C1230 C1228 1.419 . S
C1230 C1231 1.362 . S
C1231 H1221 0.930 . S
C1231 C1224 1.409 . S
C1231 C1230 1.362 . S
H1232 C1238 0.927 1_655 S
H1233 C1241 0.930 1_665 S
H1234 C1242 0.930 . S
H1235 C1243 0.930 . S
H1236 C1246 0.930 . S
H1237 C1247 0.930 . S
C1238 H1232 0.927 1_455 S
C1238 C1239 1.353 1_455 S
C1238 C1240 1.418 . S
C1239 C1238 1.353 1_655 S
C1239 C1241 1.419 1_655 S
C1240 C1238 1.418 . S
C1240 C1245 1.425 . S
C1240 C1247 1.409 . S
C1241 H1233 0.930 1_445 S
C1241 C1239 1.419 1_455 S
C1241 C1242 1.362 . S
C1242 H1234 0.930 . S
C1242 C1241 1.362 . S
C1242 C1245 1.409 . S
C1243 H1235 0.930 . S
C1243 C1244 1.355 . S
C1243 C1245 1.415 . S
C1244 C1243 1.355 . S
C1244 C1246 1.419 . S
C1245 C1240 1.425 . S
C1245 C1242 1.409 . S
C1245 C1243 1.415 . S
C1246 H1236 0.930 . S
C1246 C1244 1.419 . S
C1246 C1247 1.362 . S
C1247 H1237 0.930 . S
C1247 C1240 1.409 . S
C1247 C1246 1.362 . S
H1248 C1254 0.930 . S
H1249 C1257 0.930 . S
H1250 C1258 0.930 . S
H1251 C1259 0.930 . S
H1252 C1262 0.930 . S
H1253 C1263 0.930 . S
C1254 H1248 0.930 . S
C1254 C1255 1.355 . S
C1254 C1256 1.415 . S
C1255 C1254 1.355 . S
C1255 C1257 1.419 . S
C1256 C1254 1.415 . S
C1256 C1261 1.425 . S
C1256 C1263 1.409 . S
C1257 H1249 0.930 . S
C1257 C1255 1.419 . S
C1257 C1258 1.362 . S
C1258 H1250 0.930 . S
C1258 C1257 1.362 . S
C1258 C1261 1.409 . S
C1259 H1251 0.930 . S
C1259 C1260 1.355 . S
C1259 C1261 1.415 . S
C1260 C1259 1.355 . S
C1260 C1262 1.419 . S
C1261 C1256 1.425 . S
C1261 C1258 1.409 . S
C1261 C1259 1.415 . S
C1262 H1252 0.930 . S
C1262 C1260 1.419 . S
C1262 C1263 1.362 . S
C1263 H1253 0.930 . S
C1263 C1256 1.409 . S
C1263 C1262 1.362 . S
H1264 C1270 0.930 . S
H1265 C1273 0.930 . S
H1266 C1274 0.930 . S
H1267 C1275 0.930 . S
H1268 C1278 0.930 . S
H1269 C1279 0.930 . S
C1270 H1264 0.930 . S
C1270 C1271 1.355 . S
C1270 C1272 1.415 . S
C1271 C1270 1.355 . S
C1271 C1273 1.419 . S
C1272 C1270 1.415 . S
C1272 C1277 1.425 . S
C1272 C1279 1.409 . S
C1273 H1265 0.930 . S
C1273 C1271 1.419 . S
C1273 C1274 1.362 . S
C1274 H1266 0.930 . S
C1274 C1273 1.362 . S
C1274 C1277 1.409 . S
C1275 H1267 0.930 . S
C1275 C1276 1.355 . S
C1275 C1277 1.415 . S
C1276 C1275 1.355 . S
C1276 C1278 1.419 . S
C1277 C1272 1.425 . S
C1277 C1274 1.409 . S
C1277 C1275 1.415 . S
C1278 H1268 0.930 . S
C1278 C1276 1.419 . S
C1278 C1279 1.362 . S
C1279 H1269 0.930 . S
C1279 C1272 1.409 . S
C1279 C1278 1.362 . S
C519 C4 0.748 . S
C524 C413 0.748 . S
C535 C189 0.832 . S
C540 C36 0.832 . S
C551 C68 0.794 . S
C556 C452 0.794 . S
C567 C125 0.876 . S
C572 C253 0.876 . S
C583 C157 0.777 . S
C588 C260 0.777 . S
C599 C349 0.872 . S
C604 C196 0.872 . S
C615 C420 0.909 . S
C620 C292 0.909 . S
C631 C381 0.904 . S
C636 C509 0.904 . S
C647 C290 1.903 . S
C652 C6 1.828 . S
C663 C38 1.865 . S
C668 C326 1.868 . S
C679 C70 1.821 . S
C684 C358 1.896 . S
C695 C258 1.874 . S
C700 C98 1.848 . S
C711 C418 1.898 . S
C716 C130 1.846 . S
C727 C450 1.878 . S
C732 C162 1.873 . S
C743 C198 1.820 . S
C748 C486 1.899 . S
C759 C390 1.875 . S
C764 C226 1.846 . S
C775 C262 1.821 . S
C780 C34 1.901 . S
C791 C294 1.841 1_565 S
C796 C66 1.877 . S
C807 C322 1.862 . S
C812 C102 1.888 . S
C823 C2 1.898 . S
C828 C354 1.844 1_545 S
C839 C166 1.872 . S
C844 C386 1.875 . S
C855 C422 1.856 1_545 S
C860 C194 1.871 . S
C871 C230 1.872 . S
C876 C454 1.852 . S
C887 C482 1.825 1_565 S
C892 C134 1.903 . S
C903 N18 1.366 . S
C908 N333 1.337 . S
C919 N50 1.350 . S
C924 N365 1.364 . S
C935 N274 1.361 . S
C940 N82 1.356 . S
C951 N109 1.311 . S
C956 N306 1.287 . S
C967 N141 1.365 . S
C972 N466 1.349 . S
C983 N173 1.366 . S
C988 N493 1.339 . S
C999 N397 1.366 . S
C1004 N210 1.340 . S
C1015 N237 1.350 . S
C1020 N434 1.364 . S
C1031 C29 1.107 . S
C1036 N242 1.136 . S
C1047 N402 1.083 . S
C1052 C61 1.009 . S
C1063 C93 1.098 . S
C1068 N178 1.107 . S
C1079 C100 1.092 . S
C1084 N461 1.131 . S
C1095 C132 1.104 . S
C1100 N114 1.111 . S
C1111 N269 1.088 . S
C1116 C164 1.069 . S
C1127 C221 1.001 . S
C1132 N45 1.074 . S
C1143 N338 1.117 . S
C1148 C228 1.059 . S
C1159 C285 1.000 . S
C1164 N498 1.070 . S
C1175 N146 1.081 . S
C1180 C317 1.007 . S
C1191 N429 1.074 . S
C1196 C324 1.001 . S
C1207 C356 1.100 . S
C1212 N205 1.108 . S
C1223 C388 1.002 . S
C1228 N370 1.075 . S
C1239 C445 1.087 . S
C1244 N13 1.129 . S
C1255 N301 1.094 . S
C1260 C477 1.079 . S
C1271 N77 1.134 . S
C1276 C484 1.123 . S
