# Generated by pormake.
# Topology usf, (4)-cn, num edge types: 1
# Building blocks:
#     Node 0, Type 0, BuildingBlock: ESEHIV_clean_sbu_0, # of connection points: 4
#     Node 1, Type 0, BuildingBlock: ESEHIV_clean_sbu_0, # of connection points: 4
#     Node 2, Type 0, BuildingBlock: ESEHIV_clean_sbu_0, # of connection points: 4
#     Node 3, Type 0, BuildingBlock: ESEHIV_clean_sbu_0, # of connection points: 4
#     Node 4, Type 0, BuildingBlock: ESEHIV_clean_sbu_0, # of connection points: 4
#     Node 5, Type 0, BuildingBlock: ESEHIV_clean_sbu_0, # of connection points: 4
#     Node 6, Type 0, BuildingBlock: ESEHIV_clean_sbu_0, # of connection points: 4
#     Node 7, Type 0, BuildingBlock: ESEHIV_clean_sbu_0, # of connection points: 4
#     Node 8, Type 0, BuildingBlock: ESEHIV_clean_sbu_0, # of connection points: 4
#     Node 9, Type 0, BuildingBlock: ESEHIV_clean_sbu_0, # of connection points: 4
#     Node 10, Type 0, BuildingBlock: ESEHIV_clean_sbu_0, # of connection points: 4
#     Node 11, Type 0, BuildingBlock: ESEHIV_clean_sbu_0, # of connection points: 4
#     Node 12, Type 0, BuildingBlock: ESEHIV_clean_sbu_0, # of connection points: 4
#     Node 13, Type 0, BuildingBlock: ESEHIV_clean_sbu_0, # of connection points: 4
#     Node 14, Type 0, BuildingBlock: ESEHIV_clean_sbu_0, # of connection points: 4
#     Node 15, Type 0, BuildingBlock: ESEHIV_clean_sbu_0, # of connection points: 4
#     Node 16, Type 0, BuildingBlock: ESEHIV_clean_sbu_0, # of connection points: 4
#     Node 17, Type 0, BuildingBlock: ESEHIV_clean_sbu_0, # of connection points: 4
#     Edge 18, Type (0, 0), BuildingBlock: AJUNOK_clean_linker_0, # of connection points: 2
#     Edge 19, Type (0, 0), BuildingBlock: AJUNOK_clean_linker_0, # of connection points: 2
#     Edge 20, Type (0, 0), BuildingBlock: AJUNOK_clean_linker_0, # of connection points: 2
#     Edge 21, Type (0, 0), BuildingBlock: AJUNOK_clean_linker_0, # of connection points: 2
#     Edge 22, Type (0, 0), BuildingBlock: AJUNOK_clean_linker_0, # of connection points: 2
#     Edge 23, Type (0, 0), BuildingBlock: AJUNOK_clean_linker_0, # of connection points: 2
#     Edge 24, Type (0, 0), BuildingBlock: AJUNOK_clean_linker_0, # of connection points: 2
#     Edge 25, Type (0, 0), BuildingBlock: AJUNOK_clean_linker_0, # of connection points: 2
#     Edge 26, Type (0, 0), BuildingBlock: AJUNOK_clean_linker_0, # of connection points: 2
#     Edge 27, Type (0, 0), BuildingBlock: AJUNOK_clean_linker_0, # of connection points: 2
#     Edge 28, Type (0, 0), BuildingBlock: AJUNOK_clean_linker_0, # of connection points: 2
#     Edge 29, Type (0, 0), BuildingBlock: AJUNOK_clean_linker_0, # of connection points: 2
#     Edge 30, Type (0, 0), BuildingBlock: AJUNOK_clean_linker_0, # of connection points: 2
#     Edge 31, Type (0, 0), BuildingBlock: AJUNOK_clean_linker_0, # of connection points: 2
#     Edge 32, Type (0, 0), BuildingBlock: AJUNOK_clean_linker_0, # of connection points: 2
#     Edge 33, Type (0, 0), BuildingBlock: AJUNOK_clean_linker_0, # of connection points: 2
#     Edge 34, Type (0, 0), BuildingBlock: AJUNOK_clean_linker_0, # of connection points: 2
#     Edge 35, Type (0, 0), BuildingBlock: AJUNOK_clean_linker_0, # of connection points: 2
#     Edge 36, Type (0, 0), BuildingBlock: AJUNOK_clean_linker_0, # of connection points: 2
#     Edge 37, Type (0, 0), BuildingBlock: AJUNOK_clean_linker_0, # of connection points: 2
#     Edge 38, Type (0, 0), BuildingBlock: AJUNOK_clean_linker_0, # of connection points: 2
#     Edge 39, Type (0, 0), BuildingBlock: AJUNOK_clean_linker_0, # of connection points: 2
#     Edge 40, Type (0, 0), BuildingBlock: AJUNOK_clean_linker_0, # of connection points: 2
#     Edge 41, Type (0, 0), BuildingBlock: AJUNOK_clean_linker_0, # of connection points: 2
#     Edge 42, Type (0, 0), BuildingBlock: AJUNOK_clean_linker_0, # of connection points: 2
#     Edge 43, Type (0, 0), BuildingBlock: AJUNOK_clean_linker_0, # of connection points: 2
#     Edge 44, Type (0, 0), BuildingBlock: AJUNOK_clean_linker_0, # of connection points: 2
#     Edge 45, Type (0, 0), BuildingBlock: AJUNOK_clean_linker_0, # of connection points: 2
#     Edge 46, Type (0, 0), BuildingBlock: AJUNOK_clean_linker_0, # of connection points: 2
#     Edge 47, Type (0, 0), BuildingBlock: AJUNOK_clean_linker_0, # of connection points: 2
#     Edge 48, Type (0, 0), BuildingBlock: AJUNOK_clean_linker_0, # of connection points: 2
#     Edge 49, Type (0, 0), BuildingBlock: AJUNOK_clean_linker_0, # of connection points: 2
#     Edge 50, Type (0, 0), BuildingBlock: AJUNOK_clean_linker_0, # of connection points: 2
#     Edge 51, Type (0, 0), BuildingBlock: AJUNOK_clean_linker_0, # of connection points: 2
#     Edge 52, Type (0, 0), BuildingBlock: AJUNOK_clean_linker_0, # of connection points: 2
#     Edge 53, Type (0, 0), BuildingBlock: AJUNOK_clean_linker_0, # of connection points: 2
# Relax obj value: 0.033
# Max RMSD: 0.181
# Mean RMSD: 0.122
data_MOF--net-usf--node1-ESEHIV_clean_sbu_0--edge1-AJUNOK_clean_linker_0
_symmetry_space_group_name_H-M    P1
_symmetry_Int_Tables_number       1
_symmetry_cell_setting            triclinic
loop_
_symmetry_equiv_pos_as_xyz
'x, y, z'
_cell_length_a     33.402311
_cell_length_b     36.079734
_cell_length_c     25.176844
_cell_angle_alpha  90.19785
_cell_angle_beta   90.613258
_cell_angle_gamma 117.02953
loop_
_atom_site_label
_atom_site_type_symbol
_atom_site_fract_x
_atom_site_fract_y
_atom_site_fract_z
_atom_type_partial_charge
Cu0 Cu 0.04823 0.55729 1.02251 0.0
N1 N 1.01154 0.55356 0.96423 0.0
N2 N 0.98882 0.5586 0.8819 0.0
C3 C 1.02322 0.56083 0.9129 0.0
C4 C 0.95409 0.54875 0.91524 0.0
C5 C 0.96826 0.54588 0.9659 0.0
O6 O 0.09442 0.54008 1.00294 0.0
C7 C 0.06009 0.64076 0.04048 0.0
O8 O 0.04572 0.63835 0.99129 0.0
H9 H 0.05626 0.56737 0.89903 0.0
H10 H 0.94879 0.53974 1.00175 0.0
N11 N 1.01262 0.52098 0.07408 0.0
N12 N 0.98465 0.50157 0.15499 0.0
C13 C 1.01544 0.53196 0.12541 0.0
C14 C 0.9784 0.48225 0.07049 0.0
C15 C 0.96084 0.47019 0.12067 0.0
C16 C 0.08194 0.50654 0.97577 0.0
O17 O 0.03964 0.48657 0.96041 0.0
H18 H 0.03868 0.56242 0.14037 0.0
H19 H 0.96646 0.46451 0.03398 0.0
O20 O 0.06926 0.61214 0.05757 0.0
H21 H 0.92118 0.54534 0.90418 0.0
H22 H 0.93275 0.44089 0.13105 0.0
Cu23 Cu 0.51065 0.51551 0.04072 0.0
N24 N 0.45844 0.46436 0.04747 0.0
N25 N 0.41409 0.39805 0.07002 0.0
C26 C 0.45667 0.42898 0.06783 0.0
C27 C 0.38814 0.41489 0.05078 0.0
C28 C 0.41547 0.45561 0.03698 0.0
O29 O 0.54157 0.52451 0.1135 0.0
C30 C 0.51088 0.50625 0.92799 0.0
O31 O 0.46905 0.49799 0.93716 0.0
H32 H 0.48604 0.42615 0.08126 0.0
H33 H 0.40468 0.47757 1.02142 0.0
N34 N 0.49821 0.56086 0.03063 0.0
N35 N 0.50848 0.62187 0.99648 0.0
C36 C 0.52367 0.59307 0.99942 0.0
C37 C 0.46584 0.56979 0.04907 0.0
C38 C 0.47233 0.60767 1.02828 0.0
C39 C 0.51624 0.51789 0.15457 0.0
O40 O 0.47343 0.50672 0.14582 0.0
H41 H 0.55349 0.59559 0.97987 0.0
H42 H 0.43947 0.55027 0.07558 0.0
O43 O 0.53757 0.51382 0.96874 0.0
H44 H 0.35178 0.39937 0.04849 0.0
H45 H 0.45185 0.6233 0.03555 0.0
Cu46 Cu 0.5405 0.98179 0.05181 0.0
N47 N 0.56106 1.01488 0.99235 0.0
N48 N 0.57494 0.03188 0.90733 0.0
C49 C 0.55424 1.00084 0.94203 0.0
C50 C 0.59526 0.06692 0.93712 0.0
C51 C 0.58679 0.05625 0.98979 0.0
O52 O 0.4877 0.92976 0.03077 0.0
C53 C 0.63139 0.99434 0.06765 0.0
O54 O 0.63433 0.99852 1.01586 0.0
H55 H 0.53377 0.96852 0.93136 0.0
H56 H 0.5989 0.07696 1.02383 0.0
N57 N 0.51959 1.00726 0.10028 0.0
N58 N 0.50611 0.02408 0.18074 0.0
C59 C 0.51769 0.99901 0.15218 0.0
C60 C 0.50776 0.03814 0.09519 0.0
C61 C 0.49917 0.04857 0.14525 0.0
C62 C 0.45732 0.93542 1.00593 0.0
O63 O 0.46408 0.9736 0.9968 0.0
H64 H 0.52626 0.97582 0.16885 0.0
H65 H 0.50713 0.05303 0.05818 0.0
O66 O 0.59261 0.98087 0.08861 0.0
H67 H 0.61544 0.09788 0.92197 0.0
H68 H 0.49094 0.07348 0.1551 0.0
Cu69 Cu 0.58361 0.07788 0.54056 0.0
N70 N 0.53973 0.05228 0.48886 0.0
N71 N 0.51113 0.03488 0.40719 0.0
C72 C 0.5483 0.05665 0.43688 0.0
C73 C 0.47729 1.01679 0.44188 0.0
C74 C 0.49519 0.02761 0.49265 0.0
O75 O 0.64021 0.0868 0.50689 0.0
C76 C 0.54331 0.11903 0.59481 0.0
O77 O 0.51887 0.08095 0.61142 0.0
H78 H 0.58141 0.07597 0.42121 0.0
H79 H 0.47717 1.01804 0.52955 0.0
N80 N 0.57268 0.04168 0.59686 0.0
N81 N 0.56894 1.0207 0.68043 0.0
C82 C 0.58586 0.05327 0.64728 0.0
C83 C 0.54702 1.00021 0.59768 0.0
C84 C 0.54442 0.98712 0.64946 0.0
C85 C 0.66804 0.07583 0.5282 0.0
O86 O 0.66438 0.06685 0.57894 0.0
H87 H 0.60625 0.08534 0.6595 0.0
H88 H 0.52984 0.98119 0.56345 0.0
O89 O 0.57597 0.1263 0.56362 0.0
H90 H 0.44259 0.99663 0.43129 0.0
H91 H 0.52396 0.95587 0.66338 0.0
Cu92 Cu 1.01153 0.54849 0.51984 0.0
N93 N 0.99273 0.57223 0.5735 0.0
N94 N 0.98443 0.58569 0.65802 0.0
C95 C 0.97788 0.55595 0.62166 0.0
C96 C 1.00286 0.62189 0.63144 0.0
C97 C 1.00757 0.61347 0.57925 0.0
O98 O 1.00253 0.49335 0.54229 0.0
C99 C 0.0778 0.61668 0.46342 0.0
O100 O 0.043 0.61023 0.43317 0.0
H101 H 0.96749 0.52377 0.63149 0.0
H102 H 0.02566 0.6362 0.5493 0.0
N103 N 0.97438 0.53683 0.46028 0.0
N104 N 0.95646 0.52154 0.37484 0.0
C105 C 0.98141 0.51983 0.41618 0.0
C106 C 0.94249 0.54839 0.44731 0.0
C107 C 0.93128 0.53887 0.39418 0.0
C108 C 1.01041 0.48185 0.58734 0.0
O109 O 0.03681 0.51014 0.62166 0.0
H110 H 1.00695 0.5093 0.41361 0.0
H111 H 0.93076 0.56519 0.47335 0.0
O112 O 0.07275 0.59152 0.50156 0.0
H113 H 1.01636 0.65242 0.64938 0.0
H114 H 0.90923 0.54712 0.37069 0.0
Cu115 Cu 0.53988 0.49783 0.54016 0.0
N116 N 0.55396 0.52848 0.47413 0.0
N117 N 0.55851 0.53954 0.38458 0.0
C118 C 0.54129 0.51133 0.4245 0.0
C119 C 0.58254 0.57607 0.41059 0.0
C120 C 0.57983 0.56924 0.46503 0.0
O121 O 0.47913 0.45336 0.52629 0.0
C122 C 0.62458 0.49655 0.53581 0.0
O123 O 0.62992 0.51567 0.49022 0.0
H124 H 0.52043 0.47838 0.41777 0.0
H125 H 0.59613 0.59248 0.49574 0.0
N126 N 0.54069 0.52437 0.60753 0.0
N127 N 0.54252 0.53123 0.69803 0.0
C128 C 0.52984 0.50461 0.65535 0.0
C129 C 0.56132 0.56506 0.62074 0.0
C130 C 0.56231 0.56931 0.6757 0.0
C131 C 0.44712 0.46343 0.52797 0.0
O132 O 0.45586 0.50081 0.5451 0.0
H133 H 0.51544 0.47114 0.6587 0.0
H134 H 0.57664 0.59005 0.59263 0.0
O135 O 0.58549 0.47931 0.55594 0.0
H136 H 0.60031 0.60605 0.39186 0.0
H137 H 0.5772 0.59847 0.69756 0.0
Cu138 Cu 0.75867 0.92465 0.3757 0.0
N139 N 0.72323 0.91607 0.31492 0.0
N140 N 0.70474 0.9112 0.22899 0.0
C141 C 0.73849 0.92291 0.26499 0.0
C142 C 0.66665 0.89654 0.25747 0.0
C143 C 0.67823 0.89984 0.31066 0.0
O144 O 0.81389 0.9218 0.35494 0.0
C145 C 0.75158 1.00036 0.39235 0.0
O146 O 0.74169 0.99748 0.3414 0.0
H147 H 0.77356 0.9341 0.25534 0.0
H148 H 0.65549 0.89008 0.34381 0.0
N149 N 0.72888 0.88116 0.42257 0.0
N150 N 0.70899 0.84696 0.49906 0.0
C151 C 0.73571 0.88321 0.47543 0.0
C152 C 0.69694 0.84217 0.41221 0.0
C153 C 0.68452 0.82093 0.4595 0.0
C154 C 0.80761 0.89017 0.32641 0.0
O155 O 0.76632 0.86272 0.3143 0.0
H156 H 0.75938 0.91101 0.49626 0.0
H157 H 0.6837 0.83005 0.37307 0.0
O158 O 0.76468 0.97515 0.41243 0.0
H159 H 0.6329 0.88355 0.24097 0.0
H160 H 0.65993 0.78879 0.46429 0.0
Cu161 Cu 0.19225 0.85667 0.38716 0.0
N162 N 0.15215 0.84017 0.3297 0.0
N163 N 0.12715 0.83037 0.2458 0.0
C164 C 0.15824 0.85644 0.28064 0.0
C165 C 0.10037 0.79663 0.27398 0.0
C166 C 0.11572 0.80285 0.32575 0.0
O167 O 0.2418 0.91209 0.37303 0.0
C168 C 0.20164 0.79077 0.44358 0.0
O169 O 0.20796 0.81295 0.48704 0.0
H170 H 0.1869 0.88499 0.26954 0.0
H171 H 0.10347 0.78038 0.35741 0.0
N172 N 0.16273 0.86358 0.44595 0.0
N173 N 0.15036 0.87524 0.52993 0.0
C174 C 0.18125 0.87786 0.4941 0.0
C175 C 0.1188 0.85306 0.45075 0.0
C176 C 0.11104 0.86024 0.50256 0.0
C177 C 0.26677 0.92508 0.33239 0.0
O178 O 0.26693 0.89784 0.29774 0.0
H179 H 0.21637 0.88765 0.50341 0.0
H180 H 0.09394 0.84002 0.41922 0.0
O181 O 0.20296 0.80777 0.39869 0.0
H182 H 0.07364 0.76839 0.25755 0.0
H183 H 0.0788 0.85412 0.5188 0.0
Cu184 Cu 0.20237 0.29109 0.38291 0.0
N185 N 0.21818 0.26736 0.32519 0.0
N186 N 0.22208 0.26039 0.23686 0.0
C187 C 0.19535 0.25677 0.27851 0.0
C188 C 0.26314 0.27171 0.25875 0.0
C189 C 0.2606 0.2759 0.31297 0.0
O190 O 0.14668 0.29291 0.36152 0.0
C191 C 0.26519 0.3628 0.44336 0.0
O192 O 0.23187 0.35536 0.47565 0.0
H193 H 0.16114 0.25179 0.27433 0.0
H194 H 0.28883 0.28941 0.34039 0.0
N195 N 0.18897 0.25906 0.44462 0.0
N196 N 0.17344 0.24477 0.5308 0.0
C197 C 0.1707 0.26643 0.4884 0.0
C198 C 0.20242 0.23066 0.45911 0.0
C199 C 0.19273 0.22162 0.51215 0.0
C200 C 0.14096 0.30671 0.31705 0.0
O201 O 0.17661 0.33099 0.28989 0.0
H202 H 0.15847 0.28945 0.49012 0.0
H203 H 0.21992 0.21905 0.43356 0.0
O204 O 0.25709 0.34273 0.39951 0.0
H205 H 0.29373 0.28028 0.23684 0.0
H206 H 0.2005 0.20042 0.53534 0.0
Cu207 Cu 0.19462 0.34752 0.8819 0.0
N208 N 0.15986 0.31627 0.82376 0.0
N209 N 0.14354 0.28499 0.74374 0.0
C210 C 0.17627 0.30749 0.77944 0.0
C211 C 0.10496 0.27989 0.7664 0.0
C212 C 0.11508 0.29907 0.81584 0.0
O213 O 0.25642 0.36755 0.85637 0.0
C214 C 0.18886 0.41813 0.93329 0.0
O215 O 0.22159 0.42112 0.96517 0.0
H216 H 0.2116 0.31846 0.773 0.0
H217 H 0.09156 0.30063 0.84386 0.0
N218 N 0.18251 0.31117 0.93992 0.0
N219 N 0.18108 0.28316 1.01983 0.0
C220 C 0.19694 0.31865 0.99114 0.0
C221 C 0.15716 0.2697 0.93636 0.0
C222 C 0.15632 0.25242 0.98518 0.0
C223 C 0.28273 0.353 0.87268 0.0
O224 O 0.2729 0.33133 0.91659 0.0
H225 H 0.21894 0.34925 1.00692 0.0
H226 H 0.1411 0.25298 0.90026 0.0
O227 O 0.17528 0.39058 0.89642 0.0
H228 H 0.07171 0.26339 0.74858 0.0
H229 H 0.13996 0.21952 0.99397 0.0
Cu230 Cu 0.66414 0.85825 0.86182 0.0
N231 N 0.68967 0.84111 0.8073 0.0
N232 N 0.70439 0.82901 0.72466 0.0
C233 C 0.67788 0.83877 0.75572 0.0
C234 C 0.73413 0.82511 0.75792 0.0
C235 C 0.72477 0.83232 0.80906 0.0
O236 O 0.65666 0.90587 0.83564 0.0
C237 C 0.61666 0.7783 0.89757 0.0
O238 O 0.65723 0.78152 0.89315 0.0
H239 H 0.65207 0.84654 0.74108 0.0
H240 H 0.74301 0.83224 0.84474 0.0
N241 N 0.70227 0.87747 0.92057 0.0
N242 N 0.72245 0.89534 1.00512 0.0
C243 C 0.68801 0.87789 0.97008 0.0
C244 C 0.74742 0.89539 0.92402 0.0
C245 C 0.76001 0.90622 0.97642 0.0
C246 C 0.69073 0.93374 0.81221 0.0
O247 O 0.72685 0.92845 0.8069 0.0
H248 H 0.65291 0.86635 0.97993 0.0
H249 H 0.76959 0.90061 0.89086 0.0
O250 O 0.61009 0.80946 0.88542 0.0
H251 H 0.76133 0.81855 0.74595 0.0
H252 H 0.79406 0.92043 0.99206 0.0
Cu253 Cu 0.19243 0.82102 0.88267 0.0
N254 N 0.20247 0.85985 0.82955 0.0
N255 N 0.19357 0.88439 0.75142 0.0
C256 C 0.18397 0.85023 0.78066 0.0
C257 C 0.22001 0.91693 0.78286 0.0
C258 C 0.22515 0.90166 0.8314 0.0
O259 O 0.14976 0.76788 0.84961 0.0
C260 C 0.2742 0.85396 0.94054 0.0
O261 O 0.25822 0.8788 0.95815 0.0
H262 H 0.16416 0.81865 0.7667 0.0
H263 H 0.24341 0.9197 0.8658 0.0
N264 N 0.16436 0.83407 0.93835 0.0
N265 N 0.14302 0.84161 1.01965 0.0
C266 C 0.16501 0.82552 0.99025 0.0
C267 C 0.14041 0.85554 0.93467 0.0
C268 C 0.12711 0.86021 0.98483 0.0
C269 C 0.111 0.74473 0.8684 0.0
O270 O 0.10249 0.75145 0.91721 0.0
H271 H 0.18231 0.80883 1.00626 0.0
H272 H 0.13336 0.86716 0.89804 0.0
O273 O 0.25103 0.82554 0.90668 0.0
H274 H 0.23395 0.94936 0.77184 0.0
H275 H 0.10693 0.87564 0.99475 0.0
Cu276 Cu 0.37313 0.2147 0.70732 0.0
N277 N 0.32935 0.20057 0.65371 0.0
N278 N 0.29523 0.19111 0.57431 0.0
C279 C 0.33485 0.20862 0.60135 0.0
C280 C 0.26384 0.17133 0.6113 0.0
C281 C 0.28494 0.17722 0.66007 0.0
O282 O 0.42792 0.21395 0.68091 0.0
C283 C 0.36921 0.29219 0.72402 0.0
O284 O 0.35615 0.28873 0.67408 0.0
H285 H 0.36748 0.22509 0.58342 0.0
H286 H 0.26911 0.16491 0.69759 0.0
N287 N 0.34938 0.17466 0.76002 0.0
N288 N 0.32318 0.1469 0.8391 0.0
C289 C 0.34187 0.18211 0.81038 0.0
C290 C 0.33446 0.13325 0.75636 0.0
C291 C 0.31809 0.11598 0.80519 0.0
C292 C 0.42465 0.18733 0.64542 0.0
O293 O 0.38469 0.16128 0.62704 0.0
H294 H 0.34899 0.21268 0.82522 0.0
H295 H 0.33508 0.11681 0.72062 0.0
O296 O 0.38238 0.2666 0.74229 0.0
H297 H 0.22808 0.15363 0.60371 0.0
H298 H 0.30396 0.08333 0.81514 0.0
Cu299 Cu 0.84064 0.20142 0.70022 0.0
N300 N 0.78166 0.15845 0.70808 0.0
N301 N 0.73023 0.09503 0.73235 0.0
C302 C 0.77245 0.11835 0.71517 0.0
C303 C 0.71172 0.12123 0.73595 0.0
C304 C 0.74349 0.16036 0.72076 0.0
O305 O 0.86819 0.2052 0.77449 0.0
C306 C 0.83639 0.17856 0.58838 0.0
O307 O 0.79312 0.16305 0.5971 0.0
H308 H 0.79744 0.10718 0.71192 0.0
H309 H 0.73998 0.18865 0.72298 0.0
N310 N 0.84416 0.25401 0.68822 0.0
N311 N 0.87878 0.32004 0.66024 0.0
C312 C 0.88367 0.28878 0.68395 0.0
C313 C 0.81317 0.26357 0.66624 0.0
C314 C 0.83438 0.30427 0.64922 0.0
C315 C 0.84719 0.2136 0.81193 0.0
O316 O 0.81245 0.21913 0.79737 0.0
H317 H 0.91582 0.28969 0.69318 0.0
H318 H 0.77848 0.24158 0.65863 0.0
O319 O 0.86377 0.19295 0.62869 0.0
H320 H 0.6785 0.11309 0.75086 0.0
H321 H 0.81874 0.32024 0.62755 0.0
Cu322 Cu 0.86208 0.64149 0.70981 0.0
N323 N 0.83736 0.66101 0.76246 0.0
N324 N 0.82734 0.68054 0.84336 0.0
C325 C 0.85481 0.67255 0.81168 0.0
C326 C 0.79109 0.67373 0.8131 0.0
C327 C 0.79745 0.66187 0.76305 0.0
O328 O 0.91614 0.64208 0.74269 0.0
C329 C 0.78419 0.58936 0.6545 0.0
O330 O 0.78603 0.62572 0.64432 0.0
H331 H 0.88596 0.67298 0.82481 0.0
H332 H 0.77372 0.6531 0.73031 0.0
N333 N 0.87936 0.67742 0.65232 0.0
N334 N 0.89275 0.69733 0.56821 0.0
C335 C 0.87855 0.66513 0.60178 0.0
C336 C 0.89526 0.71904 0.65088 0.0
C337 C 0.90385 0.73152 0.5986 0.0
C338 C 0.95582 0.66538 0.7263 0.0
O339 O 0.96074 0.68328 0.67992 0.0
H340 H 0.86753 0.63307 0.58979 0.0
H341 H 0.90019 0.73875 0.6853 0.0
O342 O 0.81495 0.58756 0.68345 0.0
H343 H 0.76176 0.67628 0.82659 0.0
H344 H 0.91621 0.76293 0.58391 0.0
Cu345 Cu 0.92429 0.74747 0.20258 0.0
N346 N 0.88022 0.7276 0.14943 0.0
N347 N 0.84994 0.7118 0.06786 0.0
C348 C 0.88721 0.72219 0.0981 0.0
C349 C 0.81809 0.70988 0.10187 0.0
C350 C 0.83691 0.71979 0.15213 0.0
O351 O 0.97801 0.74812 0.17026 0.0
C352 C 0.89664 0.79885 0.25851 0.0
O353 O 0.8655 0.7623 0.27307 0.0
H354 H 0.91912 0.7259 0.08351 0.0
H355 H 0.82043 0.72212 0.18777 0.0
N356 N 0.90648 0.71027 0.25878 0.0
N357 N 0.89586 0.68696 0.34184 0.0
C358 C 0.91618 0.72033 0.31037 0.0
C359 C 0.88008 0.66892 0.2572 0.0
C360 C 0.87352 0.65436 0.30855 0.0
C361 C 0.99657 0.72627 0.18755 0.0
O362 O 0.98606 0.70975 0.23488 0.0
H363 H 0.93595 0.75193 0.32464 0.0
H364 H 0.86606 0.65086 0.2213 0.0
O365 O 0.92749 0.80081 0.22723 0.0
H366 H 0.78396 0.70301 0.09098 0.0
H367 H 0.85361 0.62238 0.32033 0.0
Cu368 Cu 0.31388 0.15975 0.20969 0.0
N369 N 0.28182 0.16824 0.26475 0.0
N370 N 0.26865 0.17886 0.34856 0.0
C371 C 0.2989 0.17817 0.31432 0.0
C372 C 0.23089 0.16904 0.31976 0.0
C373 C 0.23928 0.16296 0.26763 0.0
O374 O 0.3331 0.11907 0.2367 0.0
C375 C 0.33917 0.23608 0.16796 0.0
O376 O 0.29511 0.21939 0.16931 0.0
H377 H 0.33221 0.18274 0.32556 0.0
H378 H 0.21567 0.15441 0.23478 0.0
N379 N 0.28094 0.13688 0.14732 0.0
N380 N 0.2741 0.13002 0.05898 0.0
C381 C 0.3024 0.14149 0.10119 0.0
C382 C 0.23697 0.12051 0.1343 0.0
C383 C 0.23266 0.11609 0.07958 0.0
C384 C 0.30039 0.08614 0.25438 0.0
O385 O 0.25967 0.08297 0.25175 0.0
H386 H 0.33854 0.15429 0.09895 0.0
H387 H 0.21013 0.11376 0.16198 0.0
O388 O 0.35848 0.21551 0.18749 0.0
H389 H 0.19947 0.16593 0.33547 0.0
H390 H 0.20173 0.10538 0.05665 0.0
Cu391 Cu 0.87208 0.17861 0.1991 0.0
N392 N 0.85791 0.19479 0.2675 0.0
N393 N 0.85666 0.20158 0.35775 0.0
C394 C 0.85973 0.17861 0.31614 0.0
C395 C 0.85217 0.23307 0.33409 0.0
C396 C 0.85306 0.22895 0.27935 0.0
O397 O 0.93484 0.18982 0.21223 0.0
C398 C 0.78712 0.10686 0.19275 0.0
O399 O 0.77556 0.12907 0.22477 0.0
H400 H 0.86533 0.15153 0.321 0.0
H401 H 0.8519 0.25043 0.25032 0.0
N402 N 0.87161 0.20825 0.13471 0.0
N403 N 0.87164 0.2243 0.04666 0.0
C404 C 0.86689 0.19448 0.083 0.0
C405 C 0.88001 0.24825 0.1304 0.0
C406 C 0.88068 0.25818 0.07736 0.0
C407 C 0.9626 0.22838 0.21802 0.0
O408 O 0.9481 0.25626 0.21123 0.0
H409 H 0.86024 0.16315 0.0722 0.0
H410 H 0.88656 0.26945 0.1635 0.0
O411 O 0.82863 0.12062 0.18117 0.0
H412 H 0.84873 0.25775 0.35492 0.0
H413 H 0.88881 0.28894 0.06294 0.0
C414 C 0.92709 0.49417 0.28505 0.0
C415 C 0.96364 0.51562 0.31994 0.0
C416 C 0.93405 0.48827 0.23136 0.0
C417 C 0.97777 0.50416 0.21094 0.0
H418 H 0.89307 0.48188 0.29951 0.0
H419 H 0.90514 0.47225 0.20536 0.0
S420 S 0.08459 0.56305 0.2862 0.0
N421 N 0.04489 0.55361 0.33012 0.0
N422 N 0.05797 0.54123 0.23027 0.0
C423 C 1.01447 0.52529 0.24575 0.0
C424 C 1.00741 0.5314 0.29999 0.0
C425 C 0.50945 0.50229 0.30632 0.0
C426 C 0.55094 0.53264 0.32682 0.0
C427 C 0.49997 0.49716 0.25105 0.0
C428 C 0.53155 0.52144 0.21245 0.0
H429 H 0.48325 0.48316 0.33335 0.0
H430 H 0.4668 0.47407 0.23845 0.0
S431 S 0.64709 0.60295 0.24383 0.0
N432 N 0.62537 0.58583 0.30277 0.0
N433 N 0.60742 0.57582 0.19967 0.0
C434 C 0.57392 0.55074 0.23211 0.0
C435 C 0.58353 0.55645 0.28875 0.0
C436 C 0.473 0.03051 0.26531 0.0
C437 C 0.50775 0.0276 0.23754 0.0
C438 C 0.47357 0.03191 0.32108 0.0
C439 C 0.5092 0.03096 0.35037 0.0
H440 H 0.44506 0.0311 0.24374 0.0
H441 H 0.44651 0.03447 0.34142 0.0
S442 S 0.60827 0.0238 0.29589 0.0
N443 N 0.5791 0.02494 0.24318 0.0
N444 N 0.57926 0.0258 0.34749 0.0
C445 C 0.54394 0.02788 0.32283 0.0
C446 C 0.54348 0.02672 0.26648 0.0
C447 C 0.94704 0.55298 0.74096 0.0
C448 C 0.98574 0.58061 0.71442 0.0
C449 C 0.94837 0.54606 0.7956 0.0
C450 C 0.98863 0.56616 0.82555 0.0
H451 H 0.91565 0.53661 0.71915 0.0
H452 H 0.91772 0.52421 0.81429 0.0
S453 S 0.09985 0.64025 0.77275 0.0
N454 N 0.06569 0.62682 0.72056 0.0
N455 N 0.06835 0.61516 0.82341 0.0
C456 C 0.02772 0.5938 0.79893 0.0
C457 C 0.02622 0.6007 0.74334 0.0
C458 C 0.56907 0.54876 0.7936 0.0
C459 C 0.5375 0.52195 0.75532 0.0
C460 C 0.56275 0.54209 0.84938 0.0
C461 C 0.52422 0.50848 0.86995 0.0
H462 H 0.59874 0.5757 0.78039 0.0
H463 H 0.58704 0.56472 0.87648 0.0
S464 S 0.43205 0.42821 0.78803 0.0
N465 N 0.46689 0.45952 0.74364 0.0
N466 N 0.45502 0.44716 0.84661 0.0
C467 C 0.49333 0.48083 0.83207 0.0
C468 C 0.49991 0.4874 0.77559 0.0
C469 C 0.57495 0.06095 0.81923 0.0
C470 C 0.57433 0.02853 0.85037 0.0
C471 C 0.57335 0.05817 0.76386 0.0
C472 C 0.57145 0.02295 0.73745 0.0
H473 H 0.57557 0.08832 0.8378 0.0
H474 H 0.57262 0.08348 0.74167 0.0
S475 S 0.57197 0.93053 0.80046 0.0
N476 N 0.57342 0.96062 0.85072 0.0
N477 N 0.57118 0.95585 0.74633 0.0
C478 C 0.57158 0.99057 0.76798 0.0
C479 C 0.57284 0.99322 0.82451 0.0
C480 C 0.74606 0.85006 0.64096 0.0
C481 C 0.70505 0.82949 0.66757 0.0
C482 C 0.74707 0.85489 0.58572 0.0
C483 C 0.70718 0.83877 0.5551 0.0
H484 H 0.77743 0.8639 0.66323 0.0
H485 H 0.77927 0.87176 0.5668 0.0
S486 S 0.59136 0.78013 0.60563 0.0
N487 N 0.62381 0.79114 0.65923 0.0
N488 N 0.62566 0.80024 0.55527 0.0
C489 C 0.66606 0.81686 0.58104 0.0
C490 C 0.66502 0.81229 0.63734 0.0
C491 C 0.21016 0.91339 0.66111 0.0
C492 C 0.17985 0.8852 0.69717 0.0
C493 C 0.1994 0.91113 0.6068 0.0
C494 C 0.15784 0.88079 0.58659 0.0
H495 H 0.24316 0.93614 0.67459 0.0
H496 H 0.22428 0.93261 0.58014 0.0
S497 S 0.06487 0.80256 0.66583 0.0
N498 N 0.10489 0.8287 0.70993 0.0
N499 N 0.0852 0.82345 0.60786 0.0
C500 C 0.12636 0.85374 0.62276 0.0
C501 C 0.13728 0.85615 0.67802 0.0
C502 C 0.12874 0.26088 0.59665 0.0
C503 C 0.16401 0.25099 0.58529 0.0
C504 C 0.12139 0.2708 0.64855 0.0
C505 C 0.14927 0.27151 0.69133 0.0
H506 H 0.10687 0.26148 0.56491 0.0
H507 H 0.09461 0.27923 0.65491 0.0
S508 S 0.24483 0.2461 0.68397 0.0
N509 N 0.22666 0.24198 0.62199 0.0
N510 N 0.21161 0.25875 0.71941 0.0
C511 C 0.18371 0.26042 0.68087 0.0
C512 C 0.19139 0.25055 0.62803 0.0
C513 C 0.67681 0.8748 0.14339 0.0
C514 C 0.7086 0.90908 0.17234 0.0
C515 C 0.68176 0.87054 0.08894 0.0
C516 C 0.71866 0.90044 0.06131 0.0
H517 H 0.64856 0.85044 0.16326 0.0
H518 H 0.65693 0.84316 0.0685 0.0
S519 S 0.80975 0.99737 0.11847 0.0
N520 N 0.77701 0.97452 0.16917 0.0
N521 N 0.78644 0.96652 0.06668 0.0
C522 C 0.75032 0.93527 0.08964 0.0
C523 C 0.74521 0.93962 0.14515 0.0
C524 C 0.13157 0.80284 0.10304 0.0
C525 C 0.13803 0.83928 0.07643 0.0
C526 C 0.12672 0.79974 0.15822 0.0
C527 C 0.12928 0.83336 0.18893 0.0
H528 H 0.12991 0.7764 0.08091 0.0
H529 H 0.12208 0.77121 0.17721 0.0
S530 S 0.14898 0.93667 0.13931 0.0
N531 N 0.14857 0.91032 0.08533 0.0
N532 N 0.14013 0.90455 0.18943 0.0
C533 C 0.13653 0.87022 0.16312 0.0
C534 C 0.1407 0.87317 0.10676 0.0
C535 C 0.2338 0.30149 0.09685 0.0
C536 C 0.19057 0.27801 0.0748 0.0
C537 C 0.24435 0.29452 0.14894 0.0
C538 C 0.21181 0.2643 0.18162 0.0
H539 H 0.25988 0.325 0.07335 0.0
H540 H 0.27803 0.31375 0.16402 0.0
S541 S 0.09256 0.19671 0.14394 0.0
N542 N 0.11433 0.22505 0.0907 0.0
N543 N 0.13413 0.21139 0.18783 0.0
C544 C 0.16825 0.2411 0.16015 0.0
C545 C 0.15763 0.24813 0.10711 0.0
C546 C 0.25927 0.10549 0.96554 0.0
C547 C 0.28631 0.13516 1.00368 0.0
C548 C 0.27161 0.10931 0.91189 0.0
C549 C 0.31112 0.14322 0.89436 0.0
H550 H 0.22878 0.07879 0.97747 0.0
H551 H 0.24989 0.08579 0.8838 0.0
S552 S 0.39317 0.22984 0.97809 0.0
N553 N 0.35383 0.2003 1.01959 0.0
N554 N 0.37745 0.20672 0.91952 0.0
C555 C 0.33823 0.17324 0.93201 0.0
C556 C 0.32575 0.16939 0.98646 0.0
C557 C 0.87456 0.19353 0.89975 0.0
C558 C 0.85931 0.21865 0.87128 0.0
C559 C 0.87829 0.195 0.95664 0.0
C560 C 0.86714 0.22176 0.988 0.0
H561 H 0.88229 0.17162 0.87818 0.0
H562 H 0.88999 0.17498 0.97616 0.0
S563 S 0.82484 0.29343 0.93332 0.0
N564 N 0.83385 0.27159 0.88023 0.0
N565 N 0.83856 0.27279 0.98428 0.0
C566 C 0.85198 0.24685 0.95959 0.0
C567 C 0.84872 0.24569 0.9024 0.0
C568 C 0.80329 0.67637 0.98908 0.0
C569 C 0.84498 0.70491 1.01113 0.0
C570 C 0.79752 0.66904 0.93417 0.0
C571 C 0.83333 0.68968 0.89932 0.0
H572 H 0.77505 0.65905 1.01454 0.0
H573 H 0.76512 0.64636 0.91892 0.0
S574 S 0.94786 0.77023 0.93536 0.0
N575 N 0.92172 0.75635 0.99264 0.0
N576 N 0.91092 0.74137 0.88967 0.0
C577 C 0.87493 0.71864 0.92045 0.0
C578 C 0.88077 0.72655 0.97628 0.0
C579 C 0.24539 0.15179 0.43841 0.0
C580 C 0.27436 0.18348 0.40511 0.0
C581 C 0.25222 0.1547 0.4936 0.0
C582 C 0.28799 0.18968 0.5175 0.0
H583 H 0.21804 0.12414 0.42145 0.0
H584 H 0.22985 0.12887 0.51752 0.0
S585 S 0.37031 0.28284 0.44673 0.0
N586 N 0.33849 0.25148 0.39894 0.0
N587 N 0.35044 0.25814 0.50291 0.0
C588 C 0.31629 0.22218 0.4843 0.0
C589 C 0.3097 0.21877 0.42805 0.0
C590 C 0.83144 0.1557 0.43802 0.0
C591 C 0.85786 0.19497 0.41533 0.0
C592 C 0.82746 0.15028 0.49397 0.0
C593 C 0.8506 0.18334 0.53057 0.0
H594 H 0.81176 0.12935 0.41234 0.0
H595 H 0.80473 0.11998 0.50888 0.0
S596 S 0.92697 0.29193 0.4925 0.0
N597 N 0.90957 0.2673 0.43491 0.0
N598 N 0.90259 0.25669 0.53885 0.0
C599 C 0.87889 0.22226 0.5084 0.0
C600 C 0.88231 0.22811 0.45141 0.0
C601 C 0.93196 0.71983 0.48329 0.0
C602 C 0.89311 0.69465 0.51146 0.0
C603 C 0.93295 0.71635 0.42791 0.0
C604 C 0.89497 0.68785 0.39897 0.0
H605 H 0.96182 0.74183 0.50438 0.0
H606 H 0.96367 0.73606 0.40754 0.0
S607 S 0.7837 0.61793 0.45489 0.0
N608 N 0.81527 0.64206 0.5071 0.0
N609 N 0.81653 0.63604 0.40293 0.0
C610 C 0.8557 0.66297 0.42697 0.0
C611 C 0.85491 0.66632 0.48327 0.0
C612 C 0.10015 0.45707 0.92329 0.0
C613 C 0.11284 0.48805 0.96314 0.0
C614 C 0.12561 0.43582 0.91306 0.0
C615 C 0.16496 0.44414 0.94247 0.0
H616 H 0.06972 0.44855 0.9 0.0
H617 H 0.11351 0.41186 0.88251 0.0
S618 S 0.21442 0.52389 0.04975 0.0
N619 N 0.16869 0.52724 0.03083 0.0
N620 N 0.21646 0.48724 1.01206 0.0
C621 C 0.17886 0.47594 0.98154 0.0
C622 C 0.15294 0.49788 0.99169 0.0
C623 C 0.55823 0.73632 0.96424 0.0
C624 C 0.58063 0.73841 0.91649 0.0
C625 C 0.53252 0.6978 0.9891 0.0
C626 C 0.52857 0.66029 0.96696 0.0
H627 H 0.56296 0.76471 0.9842 0.0
H628 H 0.51785 0.69761 1.02729 0.0
S629 S 0.57462 0.64904 0.83776 0.0
N630 N 0.59322 0.6997 0.84523 0.0
N631 N 0.54415 0.62764 0.89065 0.0
C632 C 0.54814 0.66203 0.91721 0.0
C633 C 0.5744 0.70101 0.89237 0.0
C634 C 0.33241 0.87224 1.01206 0.0
C635 C 0.32014 0.86228 0.95822 0.0
C636 C 0.3777 0.89123 1.02872 0.0
C637 C 0.41248 0.90141 0.99208 0.0
H638 H 0.30692 0.86783 0.04106 0.0
H639 H 0.38563 0.90139 0.06974 0.0
S640 S 0.39855 0.8799 0.84724 0.0
N641 N 0.34653 0.86145 0.86896 0.0
N642 N 0.43169 0.8983 0.90009 0.0
C643 C 0.40065 0.88932 0.93874 0.0
C644 C 0.35443 0.86934 0.92184 0.0
C645 C 0.52327 0.16269 0.65512 0.0
C646 C 0.52523 0.14903 0.60322 0.0
C647 C 0.49359 0.17924 0.66776 0.0
C648 C 0.46383 0.18122 0.62922 0.0
H649 H 0.5426 0.15796 0.68685 0.0
H650 H 0.49125 0.18708 0.7088 0.0
S651 S 0.45785 0.15182 0.48695 0.0
N652 N 0.49729 0.14133 0.5125 0.0
N653 N 0.4406 0.17104 0.53632 0.0
C654 C 0.46736 0.16983 0.57663 0.0
C655 C 0.49828 0.15401 0.5636 0.0
C656 C 0.91086 0.37364 0.5909 0.0
C657 C 0.91406 0.35903 0.64168 0.0
C658 C 0.94355 0.41217 0.57273 0.0
C659 C 0.98077 0.43829 0.6048 0.0
H660 H 0.88263 0.35515 0.56498 0.0
H661 H 0.93855 0.42208 0.53373 0.0
S662 S 1.00605 0.41313 0.74019 0.0
N663 N 0.95846 0.37248 0.7229 0.0
N664 N 1.01979 0.44519 0.6893 0.0
C665 C 0.98516 0.42331 0.65511 0.0
C666 C 0.95193 0.38369 0.67337 0.0
C667 C 0.74762 0.54507 0.57583 0.0
C668 C 0.74654 0.55244 0.63048 0.0
C669 C 0.70779 0.52286 0.54615 0.0
C670 C 0.66527 0.50728 0.57001 0.0
H671 H 0.7792 0.55967 0.55501 0.0
H672 H 0.71026 0.52074 0.50348 0.0
S673 S 0.64509 0.51436 0.71375 0.0
N674 N 0.7003 0.5395 0.70837 0.0
N675 N 0.62538 0.49703 0.65343 0.0
C676 C 0.66417 0.51108 0.62576 0.0
C677 C 0.70484 0.53401 0.65576 0.0
C678 C 0.03595 0.68252 0.16902 0.0
C679 C 1.02186 0.71183 0.15114 0.0
C680 C 0.0517 0.66197 0.13365 0.0
C681 C 0.05409 0.66976 0.0787 0.0
H682 H 0.03271 0.67365 0.21041 0.0
H683 H 0.05955 0.63809 0.14931 0.0
S684 S 0.03065 0.75012 1.01308 0.0
N685 N 1.01788 0.752 0.07581 0.0
N686 N 0.04795 0.71401 1.00985 0.0
C687 C 0.044 0.70171 0.06117 0.0
C688 C 0.02778 0.72254 0.09713 0.0
C689 C 0.40178 0.30961 0.16027 0.0
C690 C 0.36327 0.27588 0.13903 0.0
C691 C 0.41931 0.34931 0.13661 0.0
C692 C 0.39885 0.3565 0.09103 0.0
H693 H 0.41708 0.30585 0.19667 0.0
H694 H 0.44783 0.3749 0.15539 0.0
S695 S 0.30203 0.27638 1.01536 0.0
N696 N 0.30846 0.25118 0.06667 0.0
N697 N 0.34139 0.3249 1.0224 0.0
C698 C 0.36198 0.32226 0.06801 0.0
C699 C 0.34424 0.28223 0.09194 0.0
C700 C 0.70789 0.04953 0.18619 0.0
C701 C 0.75068 0.07107 0.16332 0.0
C702 C 0.67014 0.02203 0.15612 0.0
C703 C 0.67324 1.01516 0.10149 0.0
H704 H 0.70304 0.05542 0.22725 0.0
H705 H 0.63779 1.00799 0.17527 0.0
S706 S 0.77851 0.06062 1.02347 0.0
N707 N 0.79446 0.08096 0.0835 0.0
N708 N 0.72412 0.0293 1.0272 0.0
C709 C 0.71652 0.03423 0.07906 0.0
C710 C 0.755 0.06217 0.10982 0.0
C711 C 0.69332 0.0642 0.43841 0.0
C712 C 0.69702 0.064 0.49419 0.0
C713 C 0.71353 0.04593 0.40576 0.0
C714 C 0.73828 0.02645 0.42732 0.0
H715 H 0.67281 0.07674 0.41965 0.0
H716 H 0.70771 0.04537 0.36329 0.0
S717 S 0.76472 0.02361 0.57038 0.0
N718 N 0.73241 0.0472 0.56909 0.0
N719 N 0.76993 1.01281 0.50786 0.0
C720 C 0.74498 0.02868 0.48276 0.0
C721 C 0.72445 0.04736 0.51607 0.0
C722 C 0.1273 0.67719 0.408 0.0
C723 C 0.11882 0.65728 0.45766 0.0
C724 C 0.15739 0.7196 0.40289 0.0
C725 C 0.18012 0.74426 0.4474 0.0
H726 H 0.10844 0.66044 0.37306 0.0
H727 H 0.16025 0.73365 0.36427 0.0
S728 S 0.17501 0.70569 0.58525 0.0
N729 N 0.13965 0.6643 0.55117 0.0
N730 N 0.19626 0.74389 0.54197 0.0
C731 C 0.17495 0.72382 0.49656 0.0
C732 C 0.14436 0.68041 0.50161 0.0
C733 C 0.32021 0.41312 0.50928 0.0
C734 C 0.31243 0.38952 0.46211 0.0
C735 C 0.36371 0.4361 0.53063 0.0
C736 C 0.40139 0.43585 0.50655 0.0
H737 H 0.29243 0.41392 0.53016 0.0
H738 H 0.36785 0.45414 0.56659 0.0
S739 S 0.40063 0.38169 0.38079 0.0
N740 N 0.34719 0.3692 0.39058 0.0
N741 N 0.42862 0.41171 0.43159 0.0
C742 C 0.39443 0.41269 0.45931 0.0
C743 C 0.35013 0.38982 0.43686 0.0
C744 C 0.88825 0.84399 0.32777 0.0
C745 C 0.89026 0.83547 0.27346 0.0
C746 C 0.86617 0.86703 0.34495 0.0
C747 C 0.84455 0.88151 0.30837 0.0
H748 H 0.90055 0.82981 0.3574 0.0
H749 H 0.86215 0.86984 0.38719 0.0
S750 S 0.84259 0.87 0.16188 0.0
N751 N 0.87172 0.84613 0.18326 0.0
N752 N 0.8292 0.8883 0.21546 0.0
C753 C 0.84905 0.87569 0.25391 0.0
C754 C 0.87221 0.85296 0.23643 0.0
C755 C 0.31465 0.02371 0.24851 0.0
C756 C 0.3058 0.05155 0.27952 0.0
C757 C 0.30531 0.98386 0.26752 0.0
C758 C 0.28659 0.97032 0.31819 0.0
H759 H 0.32551 0.03145 0.20788 0.0
H760 H 0.31009 0.96264 0.24084 0.0
S761 S 0.26368 0.03476 0.41734 0.0
N762 N 0.28191 0.06493 0.36487 0.0
N763 N 0.2652 0.99102 0.40123 0.0
C764 C 0.28135 0.99958 0.35105 0.0
C765 C 0.29059 0.03984 0.33148 0.0
C766 C 0.05897 0.2537 0.31558 0.0
C767 C 0.09558 0.28643 0.29042 0.0
C768 C 1.01661 0.23248 0.29027 0.0
C769 C 1.00906 0.24319 0.23886 0.0
H770 H 0.06286 0.24443 0.3554 0.0
H771 H 0.98908 0.20884 0.31202 0.0
S772 S 0.09319 0.32414 0.1537 0.0
N773 N 0.1211 0.32651 0.20918 0.0
N774 N 0.04147 0.28732 0.16281 0.0
C775 C 0.04526 0.27504 0.2128 0.0
C776 C 0.08845 0.29642 0.23818 0.0
C777 C 0.33119 0.33688 0.74402 0.0
C778 C 0.3578 0.31805 0.76158 0.0
C779 C 0.31053 0.35235 0.78022 0.0
C780 C 0.31532 0.3493 0.83547 0.0
H781 H 0.32384 0.33741 0.70212 0.0
H782 H 0.2883 0.36418 0.7646 0.0
S783 S 0.39282 0.31532 0.90137 0.0
N784 N 0.39599 0.30626 0.83764 0.0
N785 N 0.35713 0.33519 0.90523 0.0
C786 C 0.34634 0.33549 0.85316 0.0
C787 C 0.3675 0.31985 0.81639 0.0
C788 C 0.71476 0.02228 0.71813 0.0
C789 C 0.71238 0.05281 0.75075 0.0
C790 C 0.70448 0.98263 0.7376 0.0
C791 C 0.69142 0.97203 0.79054 0.0
H792 H 0.72633 0.0298 0.67782 0.0
H793 H 0.7086 0.96063 0.71163 0.0
S794 S 0.68286 0.04171 0.89324 0.0
N795 N 0.69691 0.07017 0.83891 0.0
N796 N 0.67814 0.99567 0.87585 0.0
C797 C 0.6879 1.00192 0.8234 0.0
C798 C 0.69817 0.04233 0.8034 0.0
C799 C 0.07664 0.72417 0.77705 0.0
C800 C 0.0729 0.71785 0.83224 0.0
C801 C 0.03903 0.70537 0.74303 0.0
C802 C 0.99591 0.67887 0.76235 0.0
H803 H 0.10843 0.74537 0.75998 0.0
H804 H 0.04376 0.71316 0.70136 0.0
S805 S 0.96846 0.64905 0.90316 0.0
N806 N 1.02288 0.68071 0.90409 0.0
N807 N 0.95252 0.64517 0.8403 0.0
C808 C 0.99214 0.67033 0.81704 0.0
C809 C 0.03046 0.68981 0.85181 0.0
loop_
_geom_bond_atom_site_label_1
_geom_bond_atom_site_label_2
_geom_bond_distance
_geom_bond_site_symmetry_2
_ccdc_geom_bond_type
Cu0 N1 1.999 1_554 S
Cu0 O6 1.974 1_554 S
Cu0 N11 1.985 . S
Cu0 O20 1.959 . S
N1 Cu0 1.999 1_556 S
N1 C3 1.263 . S
N1 C5 1.389 . S
N2 C3 1.358 . S
N2 C4 1.400 . S
C3 N1 1.263 . S
C3 N2 1.358 . S
C3 H9 0.930 . S
C4 N2 1.400 . S
C4 C5 1.351 . S
C4 H21 0.930 . S
C5 N1 1.389 . S
C5 C4 1.351 . S
C5 H10 0.930 . S
O6 Cu0 1.974 1_556 S
O6 C16 1.282 . S
C7 O8 1.261 . S
C7 O20 1.251 1_655 S
O8 C7 1.261 . S
H9 C3 0.930 . S
H10 C5 0.930 . S
N11 Cu0 1.985 . S
N11 C13 1.335 . S
N11 C14 1.390 . S
N12 C13 1.345 . S
N12 C15 1.336 . S
C13 N11 1.335 . S
C13 N12 1.345 . S
C13 H18 0.930 . S
C14 N11 1.390 . S
C14 C15 1.346 . S
C14 H19 0.930 . S
C15 N12 1.336 . S
C15 C14 1.346 . S
C15 H22 0.929 . S
C16 O6 1.282 . S
C16 O17 1.216 . S
O17 C16 1.216 . S
H18 C13 0.930 . S
H19 C14 0.930 . S
O20 Cu0 1.959 . S
O20 C7 1.251 1_455 S
H21 C4 0.930 . S
H22 C15 0.929 . S
Cu23 N24 1.999 . S
Cu23 O29 1.974 . S
Cu23 N34 1.985 . S
Cu23 O43 1.959 1_554 S
N24 Cu23 1.999 . S
N24 C26 1.263 . S
N24 C28 1.389 1_554 S
N25 C26 1.358 . S
N25 C27 1.400 . S
C26 N24 1.263 . S
C26 N25 1.358 . S
C26 H32 0.930 . S
C27 N25 1.400 . S
C27 C28 1.351 1_554 S
C27 H44 0.930 1_554 S
C28 N24 1.389 1_556 S
C28 C27 1.351 1_556 S
C28 H33 0.930 . S
O29 Cu23 1.974 . S
O29 C39 1.282 . S
C30 O31 1.261 . S
C30 O43 1.251 . S
O31 C30 1.261 . S
H32 C26 0.930 . S
H33 C28 0.930 . S
N34 Cu23 1.985 . S
N34 C36 1.335 1_554 S
N34 C37 1.390 . S
N35 C36 1.345 . S
N35 C38 1.336 1_556 S
C36 N34 1.335 1_556 S
C36 N35 1.345 . S
C36 H41 0.930 . S
C37 N34 1.390 . S
C37 C38 1.346 . S
C37 H42 0.930 . S
C38 N35 1.336 1_554 S
C38 C37 1.346 . S
C38 H45 0.929 . S
C39 O29 1.282 . S
C39 O40 1.216 . S
O40 C39 1.216 . S
H41 C36 0.930 . S
H42 C37 0.930 . S
O43 Cu23 1.959 1_556 S
O43 C30 1.251 . S
H44 C27 0.930 1_556 S
H45 C38 0.929 . S
Cu46 N47 1.999 1_554 S
Cu46 O52 1.974 1_554 S
Cu46 N57 1.985 . S
Cu46 O66 1.959 1_565 S
N47 Cu46 1.999 1_556 S
N47 C49 1.254 1_565 S
N47 C51 1.407 1_565 S
N48 C49 1.358 . S
N48 C50 1.400 . S
C49 N47 1.254 1_545 S
C49 N48 1.358 . S
C49 H55 0.930 . S
C50 N48 1.400 . S
C50 C51 1.352 . S
C50 H67 0.930 . S
C51 N47 1.407 1_545 S
C51 C50 1.352 . S
C51 H56 0.921 1_545 S
O52 Cu46 1.974 1_556 S
O52 C62 1.282 . S
C53 O54 1.261 . S
C53 O66 1.251 . S
O54 C53 1.261 . S
H55 C49 0.930 . S
H56 C51 0.921 1_565 S
N57 Cu46 1.985 . S
N57 C59 1.335 . S
N57 C60 1.390 . S
N58 C59 1.345 . S
N58 C61 1.336 . S
C59 N57 1.335 . S
C59 N58 1.345 . S
C59 H64 0.922 . S
C60 N57 1.390 . S
C60 C61 1.346 . S
C60 H65 0.930 . S
C61 N58 1.336 . S
C61 C60 1.346 . S
C61 H68 0.929 . S
C62 O52 1.282 . S
C62 O63 1.216 1_565 S
O63 C62 1.216 1_545 S
H64 C59 0.922 . S
H65 C60 0.930 . S
O66 Cu46 1.959 1_545 S
O66 C53 1.251 . S
H67 C50 0.930 . S
H68 C61 0.929 . S
Cu69 N70 1.999 . S
Cu69 O75 1.974 1_545 S
Cu69 N80 1.985 . S
Cu69 O89 1.959 . S
N70 Cu69 1.999 . S
N70 C72 1.263 . S
N70 C74 1.389 . S
N71 C72 1.358 . S
N71 C73 1.400 . S
C72 N70 1.263 . S
C72 N71 1.358 . S
C72 H78 0.930 1_545 S
C73 N71 1.400 . S
C73 C74 1.351 . S
C73 H90 0.930 . S
C74 N70 1.389 . S
C74 C73 1.351 . S
C74 H79 0.930 . S
O75 Cu69 1.974 1_565 S
O75 C85 1.282 . S
C76 O77 1.261 . S
C76 O89 1.251 . S
O77 C76 1.261 . S
H78 C72 0.930 1_565 S
H79 C74 0.930 . S
N80 Cu69 1.985 . S
N80 C82 1.335 . S
N80 C83 1.390 1_545 S
N81 C82 1.345 . S
N81 C84 1.336 1_545 S
C82 N80 1.335 . S
C82 N81 1.345 . S
C82 H87 0.930 . S
C83 N80 1.390 1_565 S
C83 C84 1.346 . S
C83 H88 0.930 . S
C84 N81 1.336 1_565 S
C84 C83 1.346 . S
C84 H91 0.929 . S
C85 O75 1.282 . S
C85 O86 1.216 . S
O86 C85 1.216 . S
H87 C82 0.930 . S
H88 C83 0.930 . S
O89 Cu69 1.959 . S
O89 C76 1.251 . S
H90 C73 0.930 . S
H91 C84 0.929 . S
Cu92 N93 1.999 . S
Cu92 O98 1.974 1_455 S
Cu92 N103 1.985 . S
Cu92 O112 1.959 . S
N93 Cu92 1.999 . S
N93 C95 1.263 . S
N93 C97 1.389 . S
N94 C95 1.358 . S
N94 C96 1.400 . S
C95 N93 1.263 . S
C95 N94 1.358 . S
C95 H101 0.930 . S
C96 N94 1.400 . S
C96 C97 1.351 . S
C96 H113 0.930 . S
C97 N93 1.389 . S
C97 C96 1.351 . S
C97 H102 0.932 . S
O98 Cu92 1.974 1_655 S
O98 C108 1.282 . S
C99 O100 1.261 . S
C99 O112 1.251 . S
O100 C99 1.261 . S
H101 C95 0.930 . S
H102 C97 0.932 . S
N103 Cu92 1.985 . S
N103 C105 1.335 . S
N103 C106 1.390 1_455 S
N104 C105 1.345 . S
N104 C107 1.336 . S
C105 N103 1.335 . S
C105 N104 1.345 . S
C105 H110 0.930 . S
C106 N103 1.390 1_655 S
C106 C107 1.346 1_655 S
C106 H111 0.930 . S
C107 N104 1.336 . S
C107 C106 1.346 1_455 S
C107 H114 0.930 1_455 S
C108 O98 1.282 . S
C108 O109 1.216 1_655 S
O109 C108 1.216 1_455 S
H110 C105 0.930 . S
H111 C106 0.930 . S
O112 Cu92 1.959 . S
O112 C99 1.251 . S
H113 C96 0.930 . S
H114 C107 0.930 1_655 S
Cu115 N116 1.999 . S
Cu115 O121 1.974 . S
Cu115 N126 1.985 . S
Cu115 O135 1.959 . S
N116 Cu115 1.999 . S
N116 C118 1.263 . S
N116 C120 1.389 . S
N117 C118 1.358 . S
N117 C119 1.400 . S
C118 N116 1.263 . S
C118 N117 1.358 . S
C118 H124 0.930 . S
C119 N117 1.400 . S
C119 C120 1.351 . S
C119 H136 0.930 . S
C120 N116 1.389 . S
C120 C119 1.351 . S
C120 H125 0.930 . S
O121 Cu115 1.974 . S
O121 C131 1.282 . S
C122 O123 1.261 . S
C122 O135 1.251 . S
O123 C122 1.261 . S
H124 C118 0.930 . S
H125 C120 0.930 . S
N126 Cu115 1.985 . S
N126 C128 1.335 . S
N126 C129 1.390 . S
N127 C128 1.345 . S
N127 C130 1.336 . S
C128 N126 1.335 . S
C128 N127 1.345 . S
C128 H133 0.930 . S
C129 N126 1.390 . S
C129 C130 1.346 . S
C129 H134 0.930 . S
C130 N127 1.336 . S
C130 C129 1.346 . S
C130 H137 0.929 . S
C131 O121 1.282 . S
C131 O132 1.216 . S
O132 C131 1.216 . S
H133 C128 0.930 . S
H134 C129 0.930 . S
O135 Cu115 1.959 . S
O135 C122 1.251 . S
H136 C119 0.930 . S
H137 C130 0.929 . S
Cu138 N139 1.999 . S
Cu138 O144 1.974 . S
Cu138 N149 1.985 . S
Cu138 O158 1.959 . S
N139 Cu138 1.999 . S
N139 C141 1.263 . S
N139 C143 1.389 . S
N140 C141 1.358 . S
N140 C142 1.400 . S
C141 N139 1.263 . S
C141 N140 1.358 . S
C141 H147 0.930 . S
C142 N140 1.400 . S
C142 C143 1.351 . S
C142 H159 0.930 . S
C143 N139 1.389 . S
C143 C142 1.351 . S
C143 H148 0.930 . S
O144 Cu138 1.974 . S
O144 C154 1.282 . S
C145 O146 1.261 . S
C145 O158 1.251 . S
O146 C145 1.261 . S
H147 C141 0.930 . S
H148 C143 0.930 . S
N149 Cu138 1.985 . S
N149 C151 1.335 . S
N149 C152 1.390 . S
N150 C151 1.345 . S
N150 C153 1.336 . S
C151 N149 1.335 . S
C151 N150 1.345 . S
C151 H156 0.930 . S
C152 N149 1.390 . S
C152 C153 1.346 . S
C152 H157 0.930 . S
C153 N150 1.336 . S
C153 C152 1.346 . S
C153 H160 0.929 . S
C154 O144 1.282 . S
C154 O155 1.216 . S
O155 C154 1.216 . S
H156 C151 0.930 . S
H157 C152 0.930 . S
O158 Cu138 1.959 . S
O158 C145 1.251 . S
H159 C142 0.930 . S
H160 C153 0.929 . S
Cu161 N162 1.999 . S
Cu161 O167 1.974 . S
Cu161 N172 1.985 . S
Cu161 O181 1.959 . S
N162 Cu161 1.999 . S
N162 C164 1.263 . S
N162 C166 1.389 . S
N163 C164 1.358 . S
N163 C165 1.400 . S
C164 N162 1.263 . S
C164 N163 1.358 . S
C164 H170 0.930 . S
C165 N163 1.400 . S
C165 C166 1.351 . S
C165 H182 0.930 . S
C166 N162 1.389 . S
C166 C165 1.351 . S
C166 H171 0.930 . S
O167 Cu161 1.974 . S
O167 C177 1.282 . S
C168 O169 1.261 . S
C168 O181 1.251 . S
O169 C168 1.261 . S
H170 C164 0.930 . S
H171 C166 0.930 . S
N172 Cu161 1.985 . S
N172 C174 1.335 . S
N172 C175 1.390 . S
N173 C174 1.345 . S
N173 C176 1.336 . S
C174 N172 1.335 . S
C174 N173 1.345 . S
C174 H179 0.930 . S
C175 N172 1.390 . S
C175 C176 1.346 . S
C175 H180 0.930 . S
C176 N173 1.336 . S
C176 C175 1.346 . S
C176 H183 0.929 . S
C177 O167 1.282 . S
C177 O178 1.216 . S
O178 C177 1.216 . S
H179 C174 0.930 . S
H180 C175 0.930 . S
O181 Cu161 1.959 . S
O181 C168 1.251 . S
H182 C165 0.930 . S
H183 C176 0.929 . S
Cu184 N185 1.999 . S
Cu184 O190 1.974 . S
Cu184 N195 1.985 . S
Cu184 O204 1.959 . S
N185 Cu184 1.999 . S
N185 C187 1.263 . S
N185 C189 1.389 . S
N186 C187 1.358 . S
N186 C188 1.400 . S
C187 N185 1.263 . S
C187 N186 1.358 . S
C187 H193 0.930 . S
C188 N186 1.400 . S
C188 C189 1.351 . S
C188 H205 0.930 . S
C189 N185 1.389 . S
C189 C188 1.351 . S
C189 H194 0.930 . S
O190 Cu184 1.974 . S
O190 C200 1.282 . S
C191 O192 1.261 . S
C191 O204 1.251 . S
O192 C191 1.261 . S
H193 C187 0.930 . S
H194 C189 0.930 . S
N195 Cu184 1.985 . S
N195 C197 1.335 . S
N195 C198 1.390 . S
N196 C197 1.345 . S
N196 C199 1.336 . S
C197 N195 1.335 . S
C197 N196 1.345 . S
C197 H202 0.930 . S
C198 N195 1.390 . S
C198 C199 1.346 . S
C198 H203 0.930 . S
C199 N196 1.336 . S
C199 C198 1.346 . S
C199 H206 0.929 . S
C200 O190 1.282 . S
C200 O201 1.216 . S
O201 C200 1.216 . S
H202 C197 0.930 . S
H203 C198 0.930 . S
O204 Cu184 1.959 . S
O204 C191 1.251 . S
H205 C188 0.930 . S
H206 C199 0.929 . S
Cu207 N208 1.999 . S
Cu207 O213 1.974 . S
Cu207 N218 1.985 . S
Cu207 O227 1.959 . S
N208 Cu207 1.999 . S
N208 C210 1.263 . S
N208 C212 1.389 . S
N209 C210 1.358 . S
N209 C211 1.400 . S
C210 N208 1.263 . S
C210 N209 1.358 . S
C210 H216 0.930 . S
C211 N209 1.400 . S
C211 C212 1.351 . S
C211 H228 0.930 . S
C212 N208 1.389 . S
C212 C211 1.351 . S
C212 H217 0.930 . S
O213 Cu207 1.974 . S
O213 C223 1.282 . S
C214 O215 1.261 . S
C214 O227 1.251 . S
O215 C214 1.261 . S
H216 C210 0.930 . S
H217 C212 0.930 . S
N218 Cu207 1.985 . S
N218 C220 1.335 . S
N218 C221 1.390 . S
N219 C220 1.345 . S
N219 C222 1.336 . S
C220 N218 1.335 . S
C220 N219 1.345 . S
C220 H225 0.930 . S
C221 N218 1.390 . S
C221 C222 1.346 . S
C221 H226 0.930 . S
C222 N219 1.336 . S
C222 C221 1.346 . S
C222 H229 0.919 1_556 S
C223 O213 1.282 . S
C223 O224 1.216 . S
O224 C223 1.216 . S
H225 C220 0.930 . S
H226 C221 0.930 . S
O227 Cu207 1.959 . S
O227 C214 1.251 . S
H228 C211 0.930 . S
H229 C222 0.919 1_554 S
Cu230 N231 1.999 . S
Cu230 O236 1.974 . S
Cu230 N241 1.985 . S
Cu230 O250 1.959 . S
N231 Cu230 1.999 . S
N231 C233 1.263 . S
N231 C235 1.389 . S
N232 C233 1.358 . S
N232 C234 1.400 . S
C233 N231 1.263 . S
C233 N232 1.358 . S
C233 H239 0.930 . S
C234 N232 1.400 . S
C234 C235 1.351 . S
C234 H251 0.930 . S
C235 N231 1.389 . S
C235 C234 1.351 . S
C235 H240 0.930 . S
O236 Cu230 1.974 . S
O236 C246 1.282 . S
C237 O238 1.261 . S
C237 O250 1.251 . S
O238 C237 1.261 . S
H239 C233 0.930 . S
H240 C235 0.930 . S
N241 Cu230 1.985 . S
N241 C243 1.335 . S
N241 C244 1.390 . S
N242 C243 1.345 . S
N242 C245 1.336 . S
C243 N241 1.335 . S
C243 N242 1.345 . S
C243 H248 0.930 . S
C244 N241 1.390 . S
C244 C245 1.346 . S
C244 H249 0.930 . S
C245 N242 1.336 . S
C245 C244 1.346 . S
C245 H252 0.929 1_556 S
C246 O236 1.282 . S
C246 O247 1.216 . S
O247 C246 1.216 . S
H248 C243 0.930 . S
H249 C244 0.930 . S
O250 Cu230 1.959 . S
O250 C237 1.251 . S
H251 C234 0.930 . S
H252 C245 0.929 1_554 S
Cu253 N254 1.999 . S
Cu253 O259 1.974 . S
Cu253 N264 1.985 . S
Cu253 O273 1.959 . S
N254 Cu253 1.999 . S
N254 C256 1.263 . S
N254 C258 1.389 . S
N255 C256 1.358 . S
N255 C257 1.400 . S
C256 N254 1.263 . S
C256 N255 1.358 . S
C256 H262 0.930 . S
C257 N255 1.400 . S
C257 C258 1.351 . S
C257 H274 0.930 . S
C258 N254 1.389 . S
C258 C257 1.351 . S
C258 H263 0.930 . S
O259 Cu253 1.974 . S
O259 C269 1.282 . S
C260 O261 1.261 . S
C260 O273 1.251 . S
O261 C260 1.261 . S
H262 C256 0.930 . S
H263 C258 0.930 . S
N264 Cu253 1.985 . S
N264 C266 1.335 . S
N264 C267 1.390 . S
N265 C266 1.345 . S
N265 C268 1.336 . S
C266 N264 1.335 . S
C266 N265 1.345 . S
C266 H271 0.930 . S
C267 N264 1.390 . S
C267 C268 1.346 . S
C267 H272 0.930 . S
C268 N265 1.336 . S
C268 C267 1.346 . S
C268 H275 0.929 1_556 S
C269 O259 1.282 . S
C269 O270 1.216 . S
O270 C269 1.216 . S
H271 C266 0.930 . S
H272 C267 0.930 . S
O273 Cu253 1.959 . S
O273 C260 1.251 . S
H274 C257 0.930 . S
H275 C268 0.929 1_554 S
Cu276 N277 1.999 . S
Cu276 O282 1.974 . S
Cu276 N287 1.985 . S
Cu276 O296 1.959 . S
N277 Cu276 1.999 . S
N277 C279 1.263 . S
N277 C281 1.389 . S
N278 C279 1.358 . S
N278 C280 1.400 . S
C279 N277 1.263 . S
C279 N278 1.358 . S
C279 H285 0.930 . S
C280 N278 1.400 . S
C280 C281 1.351 . S
C280 H297 0.930 . S
C281 N277 1.389 . S
C281 C280 1.351 . S
C281 H286 0.930 . S
O282 Cu276 1.974 . S
O282 C292 1.282 . S
C283 O284 1.261 . S
C283 O296 1.251 . S
O284 C283 1.261 . S
H285 C279 0.930 . S
H286 C281 0.930 . S
N287 Cu276 1.985 . S
N287 C289 1.335 . S
N287 C290 1.390 . S
N288 C289 1.345 . S
N288 C291 1.336 . S
C289 N287 1.335 . S
C289 N288 1.345 . S
C289 H294 0.930 . S
C290 N287 1.390 . S
C290 C291 1.346 . S
C290 H295 0.930 . S
C291 N288 1.336 . S
C291 C290 1.346 . S
C291 H298 0.929 . S
C292 O282 1.282 . S
C292 O293 1.216 . S
O293 C292 1.216 . S
H294 C289 0.930 . S
H295 C290 0.930 . S
O296 Cu276 1.959 . S
O296 C283 1.251 . S
H297 C280 0.930 . S
H298 C291 0.929 . S
Cu299 N300 1.999 . S
Cu299 O305 1.974 . S
Cu299 N310 1.985 . S
Cu299 O319 1.959 . S
N300 Cu299 1.999 . S
N300 C302 1.263 . S
N300 C304 1.389 . S
N301 C302 1.358 . S
N301 C303 1.400 . S
C302 N300 1.263 . S
C302 N301 1.358 . S
C302 H308 0.930 . S
C303 N301 1.400 . S
C303 C304 1.351 . S
C303 H320 0.930 . S
C304 N300 1.389 . S
C304 C303 1.351 . S
C304 H309 0.930 . S
O305 Cu299 1.974 . S
O305 C315 1.282 . S
C306 O307 1.261 . S
C306 O319 1.251 . S
O307 C306 1.261 . S
H308 C302 0.930 . S
H309 C304 0.930 . S
N310 Cu299 1.985 . S
N310 C312 1.335 . S
N310 C313 1.390 . S
N311 C312 1.345 . S
N311 C314 1.336 . S
C312 N310 1.335 . S
C312 N311 1.345 . S
C312 H317 0.930 . S
C313 N310 1.390 . S
C313 C314 1.346 . S
C313 H318 0.930 . S
C314 N311 1.336 . S
C314 C313 1.346 . S
C314 H321 0.929 . S
C315 O305 1.282 . S
C315 O316 1.216 . S
O316 C315 1.216 . S
H317 C312 0.930 . S
H318 C313 0.930 . S
O319 Cu299 1.959 . S
O319 C306 1.251 . S
H320 C303 0.930 . S
H321 C314 0.929 . S
Cu322 N323 1.999 . S
Cu322 O328 1.974 . S
Cu322 N333 1.985 . S
Cu322 O342 1.959 . S
N323 Cu322 1.999 . S
N323 C325 1.263 . S
N323 C327 1.389 . S
N324 C325 1.358 . S
N324 C326 1.400 . S
C325 N323 1.263 . S
C325 N324 1.358 . S
C325 H331 0.930 . S
C326 N324 1.400 . S
C326 C327 1.351 . S
C326 H343 0.930 . S
C327 N323 1.389 . S
C327 C326 1.351 . S
C327 H332 0.930 . S
O328 Cu322 1.974 . S
O328 C338 1.282 . S
C329 O330 1.261 . S
C329 O342 1.251 . S
O330 C329 1.261 . S
H331 C325 0.930 . S
H332 C327 0.930 . S
N333 Cu322 1.985 . S
N333 C335 1.335 . S
N333 C336 1.390 . S
N334 C335 1.345 . S
N334 C337 1.336 . S
C335 N333 1.335 . S
C335 N334 1.345 . S
C335 H340 0.930 . S
C336 N333 1.390 . S
C336 C337 1.346 . S
C336 H341 0.930 . S
C337 N334 1.336 . S
C337 C336 1.346 . S
C337 H344 0.929 . S
C338 O328 1.282 . S
C338 O339 1.216 . S
O339 C338 1.216 . S
H340 C335 0.930 . S
H341 C336 0.930 . S
O342 Cu322 1.959 . S
O342 C329 1.251 . S
H343 C326 0.930 . S
H344 C337 0.929 . S
Cu345 N346 1.999 . S
Cu345 O351 1.974 . S
Cu345 N356 1.985 . S
Cu345 O365 1.959 . S
N346 Cu345 1.999 . S
N346 C348 1.263 . S
N346 C350 1.389 . S
N347 C348 1.358 . S
N347 C349 1.400 . S
C348 N346 1.263 . S
C348 N347 1.358 . S
C348 H354 0.930 . S
C349 N347 1.400 . S
C349 C350 1.351 . S
C349 H366 0.930 . S
C350 N346 1.389 . S
C350 C349 1.351 . S
C350 H355 0.930 . S
O351 Cu345 1.974 . S
O351 C361 1.282 . S
C352 O353 1.261 . S
C352 O365 1.251 . S
O353 C352 1.261 . S
H354 C348 0.930 . S
H355 C350 0.930 . S
N356 Cu345 1.985 . S
N356 C358 1.335 . S
N356 C359 1.390 . S
N357 C358 1.345 . S
N357 C360 1.336 . S
C358 N356 1.335 . S
C358 N357 1.345 . S
C358 H363 0.930 . S
C359 N356 1.390 . S
C359 C360 1.346 . S
C359 H364 0.930 . S
C360 N357 1.336 . S
C360 C359 1.346 . S
C360 H367 0.929 . S
C361 O351 1.282 . S
C361 O362 1.216 . S
O362 C361 1.216 . S
H363 C358 0.930 . S
H364 C359 0.930 . S
O365 Cu345 1.959 . S
O365 C352 1.251 . S
H366 C349 0.930 . S
H367 C360 0.929 . S
Cu368 N369 1.999 . S
Cu368 O374 1.974 . S
Cu368 N379 1.985 . S
Cu368 O388 1.959 . S
N369 Cu368 1.999 . S
N369 C371 1.263 . S
N369 C373 1.389 . S
N370 C371 1.358 . S
N370 C372 1.400 . S
C371 N369 1.263 . S
C371 N370 1.358 . S
C371 H377 0.930 . S
C372 N370 1.400 . S
C372 C373 1.351 . S
C372 H389 0.930 . S
C373 N369 1.389 . S
C373 C372 1.351 . S
C373 H378 0.930 . S
O374 Cu368 1.974 . S
O374 C384 1.282 . S
C375 O376 1.261 . S
C375 O388 1.251 . S
O376 C375 1.261 . S
H377 C371 0.930 . S
H378 C373 0.930 . S
N379 Cu368 1.985 . S
N379 C381 1.335 . S
N379 C382 1.390 . S
N380 C381 1.345 . S
N380 C383 1.336 . S
C381 N379 1.335 . S
C381 N380 1.345 . S
C381 H386 0.930 . S
C382 N379 1.390 . S
C382 C383 1.346 . S
C382 H387 0.930 . S
C383 N380 1.336 . S
C383 C382 1.346 . S
C383 H390 0.929 . S
C384 O374 1.282 . S
C384 O385 1.216 . S
O385 C384 1.216 . S
H386 C381 0.930 . S
H387 C382 0.930 . S
O388 Cu368 1.959 . S
O388 C375 1.251 . S
H389 C372 0.930 . S
H390 C383 0.929 . S
Cu391 N392 1.999 . S
Cu391 O397 1.974 . S
Cu391 N402 1.985 . S
Cu391 O411 1.959 . S
N392 Cu391 1.999 . S
N392 C394 1.263 . S
N392 C396 1.389 . S
N393 C394 1.358 . S
N393 C395 1.400 . S
C394 N392 1.263 . S
C394 N393 1.358 . S
C394 H400 0.930 . S
C395 N393 1.400 . S
C395 C396 1.351 . S
C395 H412 0.930 . S
C396 N392 1.389 . S
C396 C395 1.351 . S
C396 H401 0.930 . S
O397 Cu391 1.974 . S
O397 C407 1.282 . S
C398 O399 1.261 . S
C398 O411 1.251 . S
O399 C398 1.261 . S
H400 C394 0.930 . S
H401 C396 0.930 . S
N402 Cu391 1.985 . S
N402 C404 1.335 . S
N402 C405 1.390 . S
N403 C404 1.345 . S
N403 C406 1.336 . S
C404 N402 1.335 . S
C404 N403 1.345 . S
C404 H409 0.930 . S
C405 N402 1.390 . S
C405 C406 1.346 . S
C405 H410 0.930 . S
C406 N403 1.336 . S
C406 C405 1.346 . S
C406 H413 0.929 . S
C407 O397 1.282 . S
C407 O408 1.216 . S
O408 C407 1.216 . S
H409 C404 0.930 . S
H410 C405 0.930 . S
O411 Cu391 1.959 . S
O411 C398 1.251 . S
H412 C395 0.930 . S
H413 C406 0.929 . S
C414 C415 1.369 1_655 S
C414 C416 1.419 1_655 S
C414 H418 0.930 . S
C415 C414 1.369 1_455 S
C415 C424 1.429 . S
C416 C414 1.419 1_455 S
C416 C417 1.363 . S
C416 H419 0.929 1_455 S
C417 C416 1.363 . S
C417 C423 1.428 . S
H418 C414 0.930 . S
H419 C416 0.929 1_655 S
S420 N421 1.613 . S
S420 N422 1.610 . S
N421 S420 1.613 . S
N421 C424 1.350 . S
N422 S420 1.610 . S
N422 C423 1.351 . S
C423 C417 1.428 . S
C423 N422 1.351 . S
C423 C424 1.434 . S
C424 C415 1.429 . S
C424 N421 1.350 . S
C424 C423 1.434 . S
C425 C426 1.369 . S
C425 C427 1.419 . S
C425 H429 0.930 . S
C426 C425 1.369 . S
C426 C435 1.429 . S
C427 C425 1.419 . S
C427 C428 1.363 . S
C427 H430 0.929 . S
C428 C427 1.363 . S
C428 C434 1.428 . S
H429 C425 0.930 . S
H430 C427 0.929 . S
S431 N432 1.613 . S
S431 N433 1.610 . S
N432 S431 1.613 . S
N432 C435 1.350 . S
N433 S431 1.610 . S
N433 C434 1.351 . S
C434 C428 1.428 . S
C434 N433 1.351 . S
C434 C435 1.434 . S
C435 C426 1.429 . S
C435 N432 1.350 . S
C435 C434 1.434 . S
C436 C437 1.369 1_545 S
C436 C438 1.419 . S
C436 H440 0.930 . S
C437 C436 1.369 1_565 S
C437 C446 1.429 . S
C438 C436 1.419 . S
C438 C439 1.363 . S
C438 H441 0.929 . S
C439 C438 1.363 . S
C439 C445 1.428 1_545 S
H440 C436 0.930 . S
H441 C438 0.929 . S
S442 N443 1.613 . S
S442 N444 1.610 . S
N443 S442 1.613 . S
N443 C446 1.350 . S
N444 S442 1.610 . S
N444 C445 1.351 . S
C445 C439 1.428 1_565 S
C445 N444 1.351 . S
C445 C446 1.434 . S
C446 C437 1.429 . S
C446 N443 1.350 . S
C446 C445 1.434 . S
C447 C448 1.369 . S
C447 C449 1.419 . S
C447 H451 0.930 . S
C448 C447 1.369 . S
C448 C457 1.429 . S
C449 C447 1.419 . S
C449 C450 1.363 . S
C449 H452 0.929 . S
C450 C449 1.363 . S
C450 C456 1.428 . S
H451 C447 0.930 . S
H452 C449 0.929 . S
S453 N454 1.613 . S
S453 N455 1.610 . S
N454 S453 1.613 . S
N454 C457 1.350 . S
N455 S453 1.610 . S
N455 C456 1.351 . S
C456 C450 1.428 . S
C456 N455 1.351 . S
C456 C457 1.434 . S
C457 C448 1.429 . S
C457 N454 1.350 . S
C457 C456 1.434 . S
C458 C459 1.369 . S
C458 C460 1.419 . S
C458 H462 0.930 . S
C459 C458 1.369 . S
C459 C468 1.429 . S
C460 C458 1.419 . S
C460 C461 1.363 . S
C460 H463 0.929 . S
C461 C460 1.363 . S
C461 C467 1.428 . S
H462 C458 0.930 . S
H463 C460 0.929 . S
S464 N465 1.613 . S
S464 N466 1.610 . S
N465 S464 1.613 . S
N465 C468 1.350 . S
N466 S464 1.610 . S
N466 C467 1.351 . S
C467 C461 1.428 . S
C467 N466 1.351 . S
C467 C468 1.434 . S
C468 C459 1.429 . S
C468 N465 1.350 . S
C468 C467 1.434 . S
C469 C470 1.369 . S
C469 C471 1.419 . S
C469 H473 0.930 . S
C470 C469 1.369 . S
C470 C479 1.429 1_545 S
C471 C469 1.419 . S
C471 C472 1.363 . S
C471 H474 0.929 . S
C472 C471 1.363 . S
C472 C478 1.428 1_545 S
H473 C469 0.930 . S
H474 C471 0.929 . S
S475 N476 1.613 . S
S475 N477 1.610 . S
N476 S475 1.613 . S
N476 C479 1.350 . S
N477 S475 1.610 . S
N477 C478 1.351 . S
C478 C472 1.428 1_565 S
C478 N477 1.351 . S
C478 C479 1.434 . S
C479 C470 1.429 1_565 S
C479 N476 1.350 . S
C479 C478 1.434 . S
C480 C481 1.369 . S
C480 C482 1.419 . S
C480 H484 0.930 . S
C481 C480 1.369 . S
C481 C490 1.429 . S
C482 C480 1.419 . S
C482 C483 1.363 . S
C482 H485 0.929 . S
C483 C482 1.363 . S
C483 C489 1.428 . S
H484 C480 0.930 . S
H485 C482 0.929 . S
S486 N487 1.613 . S
S486 N488 1.610 . S
N487 S486 1.613 . S
N487 C490 1.350 . S
N488 S486 1.610 . S
N488 C489 1.351 . S
C489 C483 1.428 . S
C489 N488 1.351 . S
C489 C490 1.434 . S
C490 C481 1.429 . S
C490 N487 1.350 . S
C490 C489 1.434 . S
C491 C492 1.369 . S
C491 C493 1.419 . S
C491 H495 0.930 . S
C492 C491 1.369 . S
C492 C501 1.429 . S
C493 C491 1.419 . S
C493 C494 1.363 . S
C493 H496 0.929 . S
C494 C493 1.363 . S
C494 C500 1.428 . S
H495 C491 0.930 . S
H496 C493 0.929 . S
S497 N498 1.613 . S
S497 N499 1.610 . S
N498 S497 1.613 . S
N498 C501 1.350 . S
N499 S497 1.610 . S
N499 C500 1.351 . S
C500 C494 1.428 . S
C500 N499 1.351 . S
C500 C501 1.434 . S
C501 C492 1.429 . S
C501 N498 1.350 . S
C501 C500 1.434 . S
C502 C503 1.369 . S
C502 C504 1.419 . S
C502 H506 0.930 . S
C503 C502 1.369 . S
C503 C512 1.429 . S
C504 C502 1.419 . S
C504 C505 1.363 . S
C504 H507 0.929 . S
C505 C504 1.363 . S
C505 C511 1.428 . S
H506 C502 0.930 . S
H507 C504 0.929 . S
S508 N509 1.613 . S
S508 N510 1.610 . S
N509 S508 1.613 . S
N509 C512 1.350 . S
N510 S508 1.610 . S
N510 C511 1.351 . S
C511 C505 1.428 . S
C511 N510 1.351 . S
C511 C512 1.434 . S
C512 C503 1.429 . S
C512 N509 1.350 . S
C512 C511 1.434 . S
C513 C514 1.369 . S
C513 C515 1.419 . S
C513 H517 0.930 . S
C514 C513 1.369 . S
C514 C523 1.429 . S
C515 C513 1.419 . S
C515 C516 1.363 . S
C515 H518 0.929 . S
C516 C515 1.363 . S
C516 C522 1.428 . S
H517 C513 0.930 . S
H518 C515 0.929 . S
S519 N520 1.613 . S
S519 N521 1.610 . S
N520 S519 1.613 . S
N520 C523 1.350 . S
N521 S519 1.610 . S
N521 C522 1.351 . S
C522 C516 1.428 . S
C522 N521 1.351 . S
C522 C523 1.434 . S
C523 C514 1.429 . S
C523 N520 1.350 . S
C523 C522 1.434 . S
C524 C525 1.369 . S
C524 C526 1.419 . S
C524 H528 0.930 . S
C525 C524 1.369 . S
C525 C534 1.429 . S
C526 C524 1.419 . S
C526 C527 1.363 . S
C526 H529 0.929 . S
C527 C526 1.363 . S
C527 C533 1.428 . S
H528 C524 0.930 . S
H529 C526 0.929 . S
S530 N531 1.613 . S
S530 N532 1.610 . S
N531 S530 1.613 . S
N531 C534 1.350 . S
N532 S530 1.610 . S
N532 C533 1.351 . S
C533 C527 1.428 . S
C533 N532 1.351 . S
C533 C534 1.434 . S
C534 C525 1.429 . S
C534 N531 1.350 . S
C534 C533 1.434 . S
C535 C536 1.369 . S
C535 C537 1.419 . S
C535 H539 0.930 . S
C536 C535 1.369 . S
C536 C545 1.429 . S
C537 C535 1.419 . S
C537 C538 1.363 . S
C537 H540 0.929 . S
C538 C537 1.363 . S
C538 C544 1.428 . S
H539 C535 0.930 . S
H540 C537 0.929 . S
S541 N542 1.613 . S
S541 N543 1.610 . S
N542 S541 1.613 . S
N542 C545 1.350 . S
N543 S541 1.610 . S
N543 C544 1.351 . S
C544 C538 1.428 . S
C544 N543 1.351 . S
C544 C545 1.434 . S
C545 C536 1.429 . S
C545 N542 1.350 . S
C545 C544 1.434 . S
C546 C547 1.369 . S
C546 C548 1.419 . S
C546 H550 0.930 . S
C547 C546 1.369 . S
C547 C556 1.429 . S
C548 C546 1.419 . S
C548 C549 1.363 . S
C548 H551 0.929 . S
C549 C548 1.363 . S
C549 C555 1.428 . S
H550 C546 0.930 . S
H551 C548 0.929 . S
S552 N553 1.621 . S
S552 N554 1.610 . S
N553 S552 1.621 . S
N553 C556 1.359 . S
N554 S552 1.610 . S
N554 C555 1.351 . S
C555 C549 1.428 . S
C555 N554 1.351 . S
C555 C556 1.434 . S
C556 C547 1.429 . S
C556 N553 1.359 . S
C556 C555 1.434 . S
C557 C558 1.369 . S
C557 C559 1.419 . S
C557 H561 0.930 . S
C558 C557 1.369 . S
C558 C567 1.429 . S
C559 C557 1.419 . S
C559 C560 1.363 . S
C559 H562 0.929 . S
C560 C559 1.363 . S
C560 C566 1.428 . S
H561 C557 0.930 . S
H562 C559 0.929 . S
S563 N564 1.613 . S
S563 N565 1.610 . S
N564 S563 1.613 . S
N564 C567 1.350 . S
N565 S563 1.610 . S
N565 C566 1.351 . S
C566 C560 1.428 . S
C566 N565 1.351 . S
C566 C567 1.434 . S
C567 C558 1.429 . S
C567 N564 1.350 . S
C567 C566 1.434 . S
C568 C569 1.369 . S
C568 C570 1.419 . S
C568 H572 0.930 . S
C569 C568 1.369 . S
C569 C578 1.429 . S
C570 C568 1.419 . S
C570 C571 1.363 . S
C570 H573 0.929 . S
C571 C570 1.363 . S
C571 C577 1.428 . S
H572 C568 0.930 . S
H573 C570 0.929 . S
S574 N575 1.613 . S
S574 N576 1.610 . S
N575 S574 1.613 . S
N575 C578 1.350 . S
N576 S574 1.610 . S
N576 C577 1.351 . S
C577 C571 1.428 . S
C577 N576 1.351 . S
C577 C578 1.434 . S
C578 C569 1.429 . S
C578 N575 1.350 . S
C578 C577 1.434 . S
C579 C580 1.369 . S
C579 C581 1.419 . S
C579 H583 0.930 . S
C580 C579 1.369 . S
C580 C589 1.429 . S
C581 C579 1.419 . S
C581 C582 1.363 . S
C581 H584 0.929 . S
C582 C581 1.363 . S
C582 C588 1.428 . S
H583 C579 0.930 . S
H584 C581 0.929 . S
S585 N586 1.613 . S
S585 N587 1.610 . S
N586 S585 1.613 . S
N586 C589 1.350 . S
N587 S585 1.610 . S
N587 C588 1.351 . S
C588 C582 1.428 . S
C588 N587 1.351 . S
C588 C589 1.434 . S
C589 C580 1.429 . S
C589 N586 1.350 . S
C589 C588 1.434 . S
C590 C591 1.369 . S
C590 C592 1.419 . S
C590 H594 0.930 . S
C591 C590 1.369 . S
C591 C600 1.429 . S
C592 C590 1.419 . S
C592 C593 1.363 . S
C592 H595 0.929 . S
C593 C592 1.363 . S
C593 C599 1.428 . S
H594 C590 0.930 . S
H595 C592 0.929 . S
S596 N597 1.613 . S
S596 N598 1.610 . S
N597 S596 1.613 . S
N597 C600 1.350 . S
N598 S596 1.610 . S
N598 C599 1.351 . S
C599 C593 1.428 . S
C599 N598 1.351 . S
C599 C600 1.434 . S
C600 C591 1.429 . S
C600 N597 1.350 . S
C600 C599 1.434 . S
C601 C602 1.369 . S
C601 C603 1.419 . S
C601 H605 0.930 . S
C602 C601 1.369 . S
C602 C611 1.429 . S
C603 C601 1.419 . S
C603 C604 1.363 . S
C603 H606 0.929 . S
C604 C603 1.363 . S
C604 C610 1.428 . S
H605 C601 0.930 . S
H606 C603 0.929 . S
S607 N608 1.613 . S
S607 N609 1.610 . S
N608 S607 1.613 . S
N608 C611 1.350 . S
N609 S607 1.610 . S
N609 C610 1.351 . S
C610 C604 1.428 . S
C610 N609 1.351 . S
C610 C611 1.434 . S
C611 C602 1.429 . S
C611 N608 1.350 . S
C611 C610 1.434 . S
C612 C613 1.369 . S
C612 C614 1.419 . S
C612 H616 0.930 . S
C613 C612 1.369 . S
C613 C622 1.429 . S
C614 C612 1.419 . S
C614 C615 1.363 . S
C614 H617 0.929 . S
C615 C614 1.363 . S
C615 C621 1.428 . S
H616 C612 0.930 . S
H617 C614 0.929 . S
S618 N619 1.612 1_554 S
S618 N620 1.598 1_554 S
N619 S618 1.612 1_556 S
N619 C622 1.365 . S
N620 S618 1.598 1_556 S
N620 C621 1.351 . S
C621 C615 1.428 . S
C621 N620 1.351 . S
C621 C622 1.434 . S
C622 C613 1.429 . S
C622 N619 1.365 . S
C622 C621 1.434 . S
C623 C624 1.369 . S
C623 C625 1.419 . S
C623 H627 0.930 . S
C624 C623 1.369 . S
C624 C633 1.429 . S
C625 C623 1.419 . S
C625 C626 1.363 . S
C625 H628 0.930 . S
C626 C625 1.363 . S
C626 C632 1.428 . S
H627 C623 0.930 . S
H628 C625 0.930 . S
S629 N630 1.613 . S
S629 N631 1.610 . S
N630 S629 1.613 . S
N630 C633 1.350 . S
N631 S629 1.610 . S
N631 C632 1.351 . S
C632 C626 1.428 . S
C632 N631 1.351 . S
C632 C633 1.434 . S
C633 C624 1.429 . S
C633 N630 1.350 . S
C633 C632 1.434 . S
C634 C635 1.369 . S
C634 C636 1.419 . S
C634 H638 0.930 . S
C635 C634 1.369 . S
C635 C644 1.429 . S
C636 C634 1.419 . S
C636 C637 1.363 . S
C636 H639 0.929 . S
C637 C636 1.363 . S
C637 C643 1.428 . S
H638 C634 0.930 . S
H639 C636 0.929 . S
S640 N641 1.613 . S
S640 N642 1.610 . S
N641 S640 1.613 . S
N641 C644 1.350 . S
N642 S640 1.610 . S
N642 C643 1.351 . S
C643 C637 1.428 . S
C643 N642 1.351 . S
C643 C644 1.434 . S
C644 C635 1.429 . S
C644 N641 1.350 . S
C644 C643 1.434 . S
C645 C646 1.369 . S
C645 C647 1.419 . S
C645 H649 0.930 . S
C646 C645 1.369 . S
C646 C655 1.429 . S
C647 C645 1.419 . S
C647 C648 1.363 . S
C647 H650 0.929 . S
C648 C647 1.363 . S
C648 C654 1.428 . S
H649 C645 0.930 . S
H650 C647 0.929 . S
S651 N652 1.613 . S
S651 N653 1.610 . S
N652 S651 1.613 . S
N652 C655 1.350 . S
N653 S651 1.610 . S
N653 C654 1.351 . S
C654 C648 1.428 . S
C654 N653 1.351 . S
C654 C655 1.434 . S
C655 C646 1.429 . S
C655 N652 1.350 . S
C655 C654 1.434 . S
C656 C657 1.369 . S
C656 C658 1.419 . S
C656 H660 0.930 . S
C657 C656 1.369 . S
C657 C666 1.429 . S
C658 C656 1.419 . S
C658 C659 1.363 . S
C658 H661 0.929 . S
C659 C658 1.363 . S
C659 C665 1.428 . S
H660 C656 0.930 . S
H661 C658 0.929 . S
S662 N663 1.602 1_455 S
S662 N664 1.610 . S
N663 S662 1.602 1_655 S
N663 C666 1.365 . S
N664 S662 1.610 . S
N664 C665 1.351 1_455 S
C665 C659 1.428 . S
C665 N664 1.351 1_655 S
C665 C666 1.434 . S
C666 C657 1.429 . S
C666 N663 1.365 . S
C666 C665 1.434 . S
C667 C668 1.369 . S
C667 C669 1.419 . S
C667 H671 0.930 . S
C668 C667 1.369 . S
C668 C677 1.429 . S
C669 C667 1.419 . S
C669 C670 1.363 . S
C669 H672 0.929 . S
C670 C669 1.363 . S
C670 C676 1.428 . S
H671 C667 0.930 . S
H672 C669 0.929 . S
S673 N674 1.613 . S
S673 N675 1.610 . S
N674 S673 1.613 . S
N674 C677 1.350 . S
N675 S673 1.610 . S
N675 C676 1.351 . S
C676 C670 1.428 . S
C676 N675 1.351 . S
C676 C677 1.434 . S
C677 C668 1.429 . S
C677 N674 1.350 . S
C677 C676 1.434 . S
C678 C679 1.369 . S
C678 C680 1.419 . S
C678 H682 0.930 . S
C679 C678 1.369 . S
C679 C688 1.429 . S
C680 C678 1.419 . S
C680 C681 1.363 . S
C680 H683 0.929 . S
C681 C680 1.363 . S
C681 C687 1.428 . S
H682 C678 0.930 . S
H683 C680 0.929 . S
S684 N685 1.613 . S
S684 N686 1.610 . S
N685 S684 1.613 . S
N685 C688 1.350 . S
N686 S684 1.610 . S
N686 C687 1.351 . S
C687 C681 1.428 . S
C687 N686 1.351 . S
C687 C688 1.434 . S
C688 C679 1.429 . S
C688 N685 1.350 . S
C688 C687 1.434 . S
C689 C690 1.369 . S
C689 C691 1.419 . S
C689 H693 0.930 . S
C690 C689 1.369 . S
C690 C699 1.429 . S
C691 C689 1.419 . S
C691 C692 1.363 . S
C691 H694 0.929 . S
C692 C691 1.363 . S
C692 C698 1.428 . S
H693 C689 0.930 . S
H694 C691 0.929 . S
S695 N696 1.603 1_556 S
S695 N697 1.609 1_556 S
N696 S695 1.603 1_554 S
N696 C699 1.350 . S
N697 S695 1.609 1_554 S
N697 C698 1.351 . S
C698 C692 1.428 . S
C698 N697 1.351 . S
C698 C699 1.434 . S
C699 C690 1.429 . S
C699 N696 1.350 . S
C699 C698 1.434 . S
C700 C701 1.369 . S
C700 C702 1.419 . S
C700 H704 0.930 . S
C701 C700 1.369 . S
C701 C710 1.429 . S
C702 C700 1.419 . S
C702 C703 1.363 . S
C702 H705 0.929 . S
C703 C702 1.363 . S
C703 C709 1.428 . S
H704 C700 0.930 . S
H705 C702 0.929 . S
S706 N707 1.613 1_556 S
S706 N708 1.610 . S
N707 S706 1.613 1_554 S
N707 C710 1.350 . S
N708 S706 1.610 . S
N708 C709 1.351 1_556 S
C709 C703 1.428 . S
C709 N708 1.351 1_554 S
C709 C710 1.434 . S
C710 C701 1.429 . S
C710 N707 1.350 . S
C710 C709 1.434 . S
C711 C712 1.369 . S
C711 C713 1.419 . S
C711 H715 0.930 . S
C712 C711 1.369 . S
C712 C721 1.429 . S
C713 C711 1.419 . S
C713 C714 1.363 . S
C713 H716 0.929 . S
C714 C713 1.363 . S
C714 C720 1.428 . S
H715 C711 0.930 . S
H716 C713 0.929 . S
S717 N718 1.613 . S
S717 N719 1.610 . S
N718 S717 1.613 . S
N718 C721 1.350 . S
N719 S717 1.610 . S
N719 C720 1.351 . S
C720 C714 1.428 . S
C720 N719 1.351 . S
C720 C721 1.434 . S
C721 C712 1.429 . S
C721 N718 1.350 . S
C721 C720 1.434 . S
C722 C723 1.369 . S
C722 C724 1.419 . S
C722 H726 0.930 . S
C723 C722 1.369 . S
C723 C732 1.429 . S
C724 C722 1.419 . S
C724 C725 1.363 . S
C724 H727 0.929 . S
C725 C724 1.363 . S
C725 C731 1.428 . S
H726 C722 0.930 . S
H727 C724 0.929 . S
S728 N729 1.613 . S
S728 N730 1.610 . S
N729 S728 1.613 . S
N729 C732 1.350 . S
N730 S728 1.610 . S
N730 C731 1.351 . S
C731 C725 1.428 . S
C731 N730 1.351 . S
C731 C732 1.434 . S
C732 C723 1.429 . S
C732 N729 1.350 . S
C732 C731 1.434 . S
C733 C734 1.369 . S
C733 C735 1.419 . S
C733 H737 0.930 . S
C734 C733 1.369 . S
C734 C743 1.429 . S
C735 C733 1.419 . S
C735 C736 1.363 . S
C735 H738 0.929 . S
C736 C735 1.363 . S
C736 C742 1.428 . S
H737 C733 0.930 . S
H738 C735 0.929 . S
S739 N740 1.613 . S
S739 N741 1.610 . S
N740 S739 1.613 . S
N740 C743 1.350 . S
N741 S739 1.610 . S
N741 C742 1.351 . S
C742 C736 1.428 . S
C742 N741 1.351 . S
C742 C743 1.434 . S
C743 C734 1.429 . S
C743 N740 1.350 . S
C743 C742 1.434 . S
C744 C745 1.369 . S
C744 C746 1.419 . S
C744 H748 0.930 . S
C745 C744 1.369 . S
C745 C754 1.429 . S
C746 C744 1.419 . S
C746 C747 1.363 . S
C746 H749 0.929 . S
C747 C746 1.363 . S
C747 C753 1.428 . S
H748 C744 0.930 . S
H749 C746 0.929 . S
S750 N751 1.613 . S
S750 N752 1.610 . S
N751 S750 1.613 . S
N751 C754 1.350 . S
N752 S750 1.610 . S
N752 C753 1.351 . S
C753 C747 1.428 . S
C753 N752 1.351 . S
C753 C754 1.434 . S
C754 C745 1.429 . S
C754 N751 1.350 . S
C754 C753 1.434 . S
C755 C756 1.369 . S
C755 C757 1.419 1_545 S
C755 H759 0.930 . S
C756 C755 1.369 . S
C756 C765 1.429 . S
C757 C755 1.419 1_565 S
C757 C758 1.363 . S
C757 H760 0.929 . S
C758 C757 1.363 . S
C758 C764 1.428 . S
H759 C755 0.930 . S
H760 C757 0.929 . S
S761 N762 1.613 1_565 S
S761 N763 1.610 . S
N762 S761 1.613 1_545 S
N762 C765 1.350 . S
N763 S761 1.610 . S
N763 C764 1.351 . S
C764 C758 1.428 . S
C764 N763 1.351 . S
C764 C765 1.434 1_565 S
C765 C756 1.429 . S
C765 N762 1.350 . S
C765 C764 1.434 1_545 S
C766 C767 1.369 . S
C766 C768 1.419 1_455 S
C766 H770 0.930 . S
C767 C766 1.369 . S
C767 C776 1.429 . S
C768 C766 1.419 1_655 S
C768 C769 1.363 . S
C768 H771 0.929 . S
C769 C768 1.363 . S
C769 C775 1.442 . S
H770 C766 0.930 . S
H771 C768 0.929 . S
S772 N773 1.613 . S
S772 N774 1.610 . S
N773 S772 1.613 . S
N773 C776 1.350 . S
N774 S772 1.610 . S
N774 C775 1.351 1_455 S
C775 C769 1.442 . S
C775 N774 1.351 1_655 S
C775 C776 1.420 1_655 S
C776 C767 1.429 . S
C776 N773 1.350 . S
C776 C775 1.420 1_455 S
C777 C778 1.369 . S
C777 C779 1.419 . S
C777 H781 0.930 . S
C778 C777 1.369 . S
C778 C787 1.429 . S
C779 C777 1.419 . S
C779 C780 1.363 . S
C779 H782 0.929 . S
C780 C779 1.363 . S
C780 C786 1.428 . S
H781 C777 0.930 . S
H782 C779 0.929 . S
S783 N784 1.613 . S
S783 N785 1.610 . S
N784 S783 1.613 . S
N784 C787 1.350 . S
N785 S783 1.610 . S
N785 C786 1.351 . S
C786 C780 1.428 . S
C786 N785 1.351 . S
C786 C787 1.434 . S
C787 C778 1.429 . S
C787 N784 1.350 . S
C787 C786 1.434 . S
C788 C789 1.366 1_565 S
C788 C790 1.421 . S
C788 H792 0.930 1_565 S
C789 C788 1.366 1_545 S
C789 C798 1.429 . S
C790 C788 1.421 . S
C790 C791 1.363 . S
C790 H793 0.929 . S
C791 C790 1.363 . S
C791 C797 1.428 . S
H792 C788 0.930 1_545 S
H793 C790 0.929 . S
S794 N795 1.613 1_565 S
S794 N796 1.610 . S
N795 S794 1.613 1_545 S
N795 C798 1.350 . S
N796 S794 1.610 . S
N796 C797 1.351 . S
C797 C791 1.428 . S
C797 N796 1.351 . S
C797 C798 1.434 1_565 S
C798 C789 1.429 . S
C798 N795 1.350 . S
C798 C797 1.434 1_545 S
C799 C800 1.369 . S
C799 C801 1.398 1_455 S
C799 H803 0.930 . S
C800 C799 1.369 . S
C800 C809 1.429 . S
C801 C799 1.398 1_655 S
C801 C802 1.381 . S
C801 H804 0.931 . S
C802 C801 1.381 . S
C802 C808 1.428 . S
H803 C799 0.930 . S
H804 C801 0.931 . S
S805 N806 1.613 . S
S805 N807 1.610 . S
N806 S805 1.613 . S
N806 C809 1.350 1_655 S
N807 S805 1.610 . S
N807 C808 1.351 . S
C808 C802 1.428 . S
C808 N807 1.351 . S
C808 C809 1.434 1_655 S
C809 C800 1.429 . S
C809 N806 1.350 1_455 S
C809 C808 1.434 1_455 S
C415 N104 1.257 . S
C417 N12 1.263 . S
C426 N117 1.924 . S
C428 C39 1.937 . S
C437 N58 1.229 . S
C439 N71 1.247 . S
C448 N94 1.225 . S
C450 N2 1.228 . S
C459 N127 1.879 . S
C461 C30 1.919 . S
C470 N48 1.191 . S
C472 N81 1.196 . S
C481 N232 1.253 . S
C483 N150 1.238 . S
C492 N255 1.265 . S
C494 N173 1.246 . S
C503 N196 1.233 . S
C505 N209 1.250 . S
C514 N140 1.178 . S
C516 N242 1.170 1_554 S
C525 N265 1.184 1_554 S
C527 N163 1.188 . S
C536 N219 1.195 1_554 S
C538 N186 1.197 . S
C547 N380 1.262 1_556 S
C549 N288 1.265 . S
C558 C315 1.940 . S
C560 N403 1.905 1_556 S
C569 N347 1.236 1_556 S
C571 N324 1.240 . S
C580 N370 1.210 . S
C582 N278 1.212 . S
C591 N393 1.910 . S
C593 C306 1.933 . S
C602 N334 1.171 . S
C604 N357 1.168 . S
C613 C16 1.494 . S
C615 C214 1.514 . S
C624 C237 1.571 . S
C626 N35 1.540 . S
C635 C260 1.524 . S
C637 C62 1.527 . S
C646 C76 1.585 . S
C648 C292 1.595 . S
C657 N311 1.501 . S
C659 C108 1.511 . S
C668 C329 1.566 . S
C670 C122 1.565 . S
C679 C361 1.550 . S
C681 C7 1.542 . S
C690 C375 1.594 . S
C692 N25 1.609 . S
C701 C398 1.524 . S
C703 C53 1.525 . S
C712 C85 1.522 . S
C714 C145 1.540 . S
C723 C99 1.544 . S
C725 C168 1.540 . S
C734 C191 1.545 . S
C736 C131 1.524 . S
C745 C352 1.547 . S
C747 C154 1.546 . S
C756 C384 1.537 . S
C758 C177 1.573 . S
C767 C200 1.528 . S
C769 C407 1.521 . S
C778 C283 1.570 . S
C780 C223 1.562 . S
C789 N301 1.493 . S
C791 C246 1.503 . S
C800 C269 1.539 . S
C802 C338 1.560 . S
