# Generated by pormake.
# Topology loh, (5)-cn, num edge types: 1
# Building blocks:
#     Node 0, Type 0, BuildingBlock: XOMCOT_clean_sbu_0, # of connection points: 5
#     Node 1, Type 0, BuildingBlock: XOMCOT_clean_sbu_0, # of connection points: 5
#     Node 2, Type 0, BuildingBlock: XOMCOT_clean_sbu_0, # of connection points: 5
#     Node 3, Type 0, BuildingBlock: XOMCOT_clean_sbu_0, # of connection points: 5
#     Node 4, Type 0, BuildingBlock: XOMCOT_clean_sbu_0, # of connection points: 5
#     Node 5, Type 0, BuildingBlock: XOMCOT_clean_sbu_0, # of connection points: 5
#     Node 6, Type 0, BuildingBlock: XOMCOT_clean_sbu_0, # of connection points: 5
#     Node 7, Type 0, BuildingBlock: XOMCOT_clean_sbu_0, # of connection points: 5
#     Edge 8, Type (0, 0), BuildingBlock: ZUJKAS_clean_linker_0, # of connection points: 2
#     Edge 9, Type (0, 0), BuildingBlock: ZUJKAS_clean_linker_0, # of connection points: 2
#     Edge 10, Type (0, 0), BuildingBlock: ZUJKAS_clean_linker_0, # of connection points: 2
#     Edge 11, Type (0, 0), BuildingBlock: ZUJKAS_clean_linker_0, # of connection points: 2
#     Edge 12, Type (0, 0), BuildingBlock: ZUJKAS_clean_linker_0, # of connection points: 2
#     Edge 13, Type (0, 0), BuildingBlock: ZUJKAS_clean_linker_0, # of connection points: 2
#     Edge 14, Type (0, 0), BuildingBlock: ZUJKAS_clean_linker_0, # of connection points: 2
#     Edge 15, Type (0, 0), BuildingBlock: ZUJKAS_clean_linker_0, # of connection points: 2
#     Edge 16, Type (0, 0), BuildingBlock: ZUJKAS_clean_linker_0, # of connection points: 2
#     Edge 17, Type (0, 0), BuildingBlock: ZUJKAS_clean_linker_0, # of connection points: 2
#     Edge 18, Type (0, 0), BuildingBlock: ZUJKAS_clean_linker_0, # of connection points: 2
#     Edge 19, Type (0, 0), BuildingBlock: ZUJKAS_clean_linker_0, # of connection points: 2
#     Edge 20, Type (0, 0), BuildingBlock: ZUJKAS_clean_linker_0, # of connection points: 2
#     Edge 21, Type (0, 0), BuildingBlock: ZUJKAS_clean_linker_0, # of connection points: 2
#     Edge 22, Type (0, 0), BuildingBlock: ZUJKAS_clean_linker_0, # of connection points: 2
#     Edge 23, Type (0, 0), BuildingBlock: ZUJKAS_clean_linker_0, # of connection points: 2
#     Edge 24, Type (0, 0), BuildingBlock: ZUJKAS_clean_linker_0, # of connection points: 2
#     Edge 25, Type (0, 0), BuildingBlock: ZUJKAS_clean_linker_0, # of connection points: 2
#     Edge 26, Type (0, 0), BuildingBlock: ZUJKAS_clean_linker_0, # of connection points: 2
#     Edge 27, Type (0, 0), BuildingBlock: ZUJKAS_clean_linker_0, # of connection points: 2
# Relax obj value: 0.180
# Max RMSD: 0.132
# Mean RMSD: 0.132
data_MOF--net-loh--node1-XOMCOT_clean_sbu_0--edge1-ZUJKAS_clean_linker_0
_symmetry_space_group_name_H-M    P1
_symmetry_Int_Tables_number       1
_symmetry_cell_setting            triclinic
loop_
_symmetry_equiv_pos_as_xyz
'x, y, z'
_cell_length_a     34.421884
_cell_length_b     30.430327
_cell_length_c     53.135817
_cell_angle_alpha  90.013956
_cell_angle_beta   90.013459
_cell_angle_gamma 89.982119
loop_
_atom_site_label
_atom_site_type_symbol
_atom_site_fract_x
_atom_site_fract_y
_atom_site_fract_z
_atom_type_partial_charge
Co0 Co 0.04933 0.27423 0.14364 0.0
C1 C 0.04212 0.19112 0.17371 0.0
C2 C 0.07154 0.18141 0.13855 0.0
C3 C 0.07083 0.14216 0.15121 0.0
N4 N 0.05376 0.2124 0.15259 0.0
N5 N 0.05254 0.14817 0.17335 0.0
H6 H 1.02734 0.20675 0.18929 0.0
H7 H 0.08453 0.18652 0.1203 0.0
C8 C 0.08729 0.28302 0.09286 0.0
O9 O 0.057 0.30594 0.08544 0.0
N10 N 0.04669 0.33608 0.13481 0.0
C11 C 1.01625 0.3631 0.13089 0.0
C12 C 1.02996 0.40218 0.12134 0.0
C13 C 0.07833 0.3601 0.12903 0.0
N14 N 0.06908 0.39993 0.11967 0.0
C15 C 0.96816 0.27325 0.13185 0.0
C16 C 0.97245 0.23112 0.08594 0.0
C17 C 0.93682 0.2494 0.09345 0.0
C18 C 0.93476 0.26913 0.1172 0.0
C19 C 1.00542 0.23622 0.10127 0.0
N20 N 1.0036 0.26012 0.12307 0.0
H21 H 0.96551 0.28901 0.14994 0.0
H22 H 1.03239 0.22171 0.09517 0.0
H23 H 0.98608 0.3552 0.13355 0.0
H24 H 0.10752 0.34706 0.12998 0.0
O25 O 1.02325 0.28764 0.1749 0.0
O26 O 0.08685 0.29026 0.16937 0.0
O27 O 0.08756 0.26552 0.11481 0.0
C28 C 0.05714 0.29798 0.1839 0.0
H29 H 0.08284 0.1114 0.14455 0.0
H30 H 1.01203 0.42869 0.11432 0.0
H31 H 0.97516 0.21429 0.06807 0.0
H32 H 0.90753 0.28189 0.12435 0.0
Co33 Co 0.54319 0.77153 0.64405 0.0
C34 C 0.54681 0.8543 0.67463 0.0
C35 C 0.51641 0.86291 0.63972 0.0
C36 C 0.51596 0.90207 0.65249 0.0
N37 N 0.53546 0.83265 0.65357 0.0
N38 N 0.5349 0.89676 0.67447 0.0
H39 H 0.56276 0.83932 0.68993 0.0
H40 H 0.50366 0.85744 0.62142 0.0
C41 C 0.50554 0.76161 0.59294 0.0
O42 O 0.53622 0.73993 0.58501 0.0
N43 N 0.54961 0.71042 0.63458 0.0
C44 C 0.58198 0.68645 0.63073 0.0
C45 C 0.57136 0.64644 0.62079 0.0
C46 C 0.51991 0.68379 0.62825 0.0
N47 N 0.53224 0.64511 0.61877 0.0
C48 C 0.62464 0.78068 0.63434 0.0
C49 C 0.61975 0.81636 0.58672 0.0
C50 C 0.6563 0.80251 0.59555 0.0
C51 C 0.65845 0.7867 0.6203 0.0
C52 C 0.58656 0.81055 0.60174 0.0
N53 N 0.58886 0.78922 0.62435 0.0
H54 H 0.62744 0.76687 0.65293 0.0
H55 H 0.55911 0.82238 0.59474 0.0
H56 H 0.6114 0.69723 0.63378 0.0
H57 H 0.48986 0.69408 0.629 0.0
O58 O 0.56852 0.75855 0.67572 0.0
O59 O 0.50546 0.75237 0.66885 0.0
O60 O 0.50526 0.77878 0.61497 0.0
C61 C 0.53471 0.74604 0.68394 0.0
H62 H 0.50298 0.93239 0.64593 0.0
H63 H 0.59128 0.62175 0.61384 0.0
H64 H 0.6164 0.83022 0.56809 0.0
H65 H 0.68602 0.77798 0.62874 0.0
Co66 Co 0.05544 0.76073 0.89514 0.0
C67 C 0.05123 0.84338 0.86448 0.0
C68 C 0.07917 0.85305 0.90016 0.0
C69 C 0.07924 0.89225 0.8874 0.0
N70 N 0.06191 0.82212 0.88582 0.0
N71 N 0.06182 0.88627 0.86495 0.0
H72 H 1.0367 0.82785 0.84878 0.0
H73 H 0.09093 0.84796 0.91877 0.0
C74 C 0.09453 0.75049 0.94583 0.0
O75 O 0.0644 0.72792 0.95381 0.0
N76 N 0.05018 0.69941 0.90435 0.0
C77 C 1.01829 0.67487 0.90858 0.0
C78 C 1.02985 0.63476 0.91792 0.0
C79 C 0.08048 0.6731 0.90987 0.0
N80 N 0.06908 0.63393 0.91918 0.0
C81 C 0.97392 0.76841 0.90526 0.0
C82 C 0.97864 0.80279 0.9532 0.0
C83 C 0.94213 0.78901 0.94427 0.0
C84 C 0.94008 0.7737 0.9194 0.0
C85 C 1.01187 0.79764 0.9381 0.0
N86 N 1.00968 0.77714 0.91523 0.0
H87 H 0.97116 0.75503 0.88656 0.0
H88 H 1.03924 0.80943 0.94524 0.0
H89 H 0.98863 0.6853 0.9062 0.0
H90 H 0.11031 0.68398 0.90863 0.0
O91 O 1.02988 0.74756 0.86353 0.0
O92 O 0.0931 0.74259 0.87003 0.0
O93 O 0.09391 0.76842 0.92399 0.0
C94 C 0.06376 0.73575 0.85509 0.0
H95 H 0.09088 0.92303 0.89429 0.0
H96 H 1.0105 0.60962 0.92496 0.0
H97 H 0.98193 0.81619 0.97194 0.0
H98 H 0.91256 0.76494 0.91092 0.0
Co99 Co 0.544 0.2678 0.39544 0.0
C100 C 0.54758 0.18463 0.36507 0.0
C101 C 0.52081 0.17548 0.40113 0.0
C102 C 0.52148 0.13584 0.38888 0.0
N103 N 0.53708 0.20634 0.38631 0.0
N104 N 0.53809 0.14136 0.36611 0.0
H105 H 0.56155 0.20013 0.34916 0.0
H106 H 0.50951 0.18083 0.41983 0.0
C107 C 0.50637 0.27825 0.44644 0.0
O108 O 0.53701 0.30043 0.45397 0.0
N109 N 0.54965 0.32926 0.40448 0.0
C110 C 0.5817 0.35403 0.40771 0.0
C111 C 0.57067 0.39424 0.41718 0.0
C112 C 0.51967 0.35563 0.41066 0.0
N113 N 0.53159 0.39496 0.41948 0.0
C114 C 0.62563 0.26059 0.40585 0.0
C115 C 0.62034 0.22192 0.45269 0.0
C116 C 0.65696 0.23567 0.44413 0.0
C117 C 0.65936 0.25388 0.41996 0.0
C118 C 0.58726 0.22894 0.43778 0.0
N119 N 0.58975 0.2511 0.41543 0.0
H120 H 0.62849 0.27545 0.38752 0.0
H121 H 0.55979 0.2169 0.44458 0.0
H122 H 0.61122 0.34381 0.40449 0.0
H123 H 0.48976 0.34481 0.4102 0.0
O124 O 0.56932 0.28053 0.36368 0.0
O125 O 0.50616 0.28592 0.3705 0.0
O126 O 0.50601 0.2605 0.42455 0.0
C127 C 0.53533 0.29239 0.35538 0.0
H128 H 0.5111 0.1051 0.39657 0.0
H129 H 0.59037 0.4196 0.42356 0.0
H130 H 0.61723 0.20592 0.47078 0.0
H131 H 0.68695 0.26451 0.41229 0.0
Co132 Co 0.55478 0.76567 0.14697 0.0
C133 C 0.54946 0.68048 0.17475 0.0
C134 C 0.59563 0.68084 0.14762 0.0
C135 C 0.59585 0.6411 0.15978 0.0
N136 N 0.56659 0.70571 0.15691 0.0
N137 N 0.56708 0.64077 0.17703 0.0
H138 H 0.5253 0.69133 0.18619 0.0
H139 H 0.61586 0.69064 0.13315 0.0
C140 C 0.59112 0.77518 0.09487 0.0
O141 O 0.55975 0.79492 0.08641 0.0
N142 N 0.54387 0.82595 0.13747 0.0
C143 C 0.51085 0.84922 0.14039 0.0
C144 C 0.51668 0.89096 0.13122 0.0
C145 C 0.56982 0.85472 0.12805 0.0
N146 N 0.5537 0.89416 0.12304 0.0
C147 C 0.47355 0.75251 0.13773 0.0
C148 C 0.47954 0.71689 0.09014 0.0
C149 C 0.44277 0.73076 0.09859 0.0
C150 C 0.44003 0.74636 0.12337 0.0
C151 C 0.51243 0.72299 0.10545 0.0
N152 N 0.50955 0.74454 0.12796 0.0
H153 H 0.47036 0.76554 0.15648 0.0
H154 H 0.54018 0.71155 0.09871 0.0
H155 H 0.48431 0.83736 0.14871 0.0
H156 H 0.59964 0.84621 0.12397 0.0
O157 O 0.53005 0.7772 0.17907 0.0
O158 O 0.59225 0.78817 0.17095 0.0
O159 O 0.59203 0.76 0.11736 0.0
C160 C 0.56339 0.79244 0.18658 0.0
H161 H 0.61581 0.61442 0.15604 0.0
H162 H 0.49495 0.91659 0.13026 0.0
H163 H 0.48331 0.70304 0.07154 0.0
H164 H 0.41222 0.75486 0.13156 0.0
Co165 Co 0.04486 0.2614 0.64502 0.0
C166 C 0.04957 0.3439 0.67581 0.0
C167 C 1.01588 0.35216 0.64216 0.0
C168 C 1.01574 0.3911 0.65515 0.0
N169 N 1.03684 0.32224 0.65507 0.0
N170 N 1.03672 0.38601 0.67636 0.0
H171 H 0.06712 0.3291 0.69042 0.0
H172 H 1.00148 0.34661 0.62439 0.0
C173 C 1.00731 0.25229 0.59391 0.0
O174 O 1.0383 0.23108 0.58606 0.0
N175 N 0.05138 0.20048 0.63508 0.0
C176 C 0.08355 0.17645 0.63067 0.0
C177 C 0.07248 0.13654 0.62079 0.0
C178 C 1.02142 0.17396 0.62912 0.0
N179 N 1.03329 0.13528 0.61938 0.0
C180 C 0.12617 0.27025 0.63432 0.0
C181 C 0.11969 0.31151 0.58826 0.0
C182 C 0.15654 0.29741 0.59626 0.0
C183 C 0.15956 0.27796 0.62007 0.0
C184 C 0.08696 0.30355 0.60335 0.0
N185 N 0.09007 0.27998 0.62518 0.0
H186 H 0.12946 0.25426 0.6523 0.0
H187 H 0.05921 0.31585 0.59712 0.0
H188 H 0.1131 0.18701 0.6333 0.0
H189 H 0.99146 0.18438 0.63041 0.0
O190 O 0.0707 0.24799 0.6765 0.0
O191 O 1.00759 0.24137 0.66984 0.0
O192 O 1.00666 0.269 0.61606 0.0
C193 C 1.03704 0.23499 0.68476 0.0
H194 H 1.00146 0.42109 0.64928 0.0
H195 H 0.09214 0.11185 0.61357 0.0
H196 H 0.11615 0.32842 0.57048 0.0
H197 H 0.18734 0.26703 0.6273 0.0
Co198 Co 0.54857 0.27198 0.89289 0.0
C199 C 0.5456 0.35545 0.86291 0.0
C200 C 0.57151 0.36426 0.89926 0.0
C201 C 0.57106 0.40404 0.88716 0.0
N202 N 0.55563 0.33355 0.88415 0.0
N203 N 0.55497 0.39871 0.86421 0.0
H204 H 0.53207 0.3401 0.84678 0.0
H205 H 0.58241 0.35871 0.91804 0.0
C206 C 0.58625 0.26057 0.94382 0.0
O207 O 0.5559 0.2377 0.95114 0.0
N208 N 0.54266 0.21036 0.90145 0.0
C209 C 0.51043 0.18562 0.90382 0.0
C210 C 0.52091 0.14524 0.91327 0.0
C211 C 0.57229 0.18373 0.90795 0.0
N212 N 0.55986 0.14436 0.9164 0.0
C213 C 0.46695 0.27938 0.90325 0.0
C214 C 0.47234 0.31625 0.95058 0.0
C215 C 0.43571 0.30288 0.94185 0.0
C216 C 0.43324 0.28563 0.91745 0.0
C217 C 0.50538 0.30975 0.93557 0.0
N218 N 0.50284 0.28843 0.91295 0.0
H219 H 0.46403 0.26527 0.88474 0.0
H220 H 0.53284 0.32154 0.94252 0.0
H221 H 0.48111 0.19602 0.90006 0.0
H222 H 0.60223 0.19445 0.90818 0.0
O223 O 0.52327 0.25991 0.86106 0.0
O224 O 0.5864 0.2541 0.86791 0.0
O225 O 0.58645 0.27884 0.92208 0.0
C226 C 0.5572 0.24785 0.85277 0.0
H227 H 0.58124 0.43473 0.89504 0.0
H228 H 0.50083 0.12 0.91928 0.0
H229 H 0.47548 0.33154 0.96887 0.0
H230 H 0.40562 0.27538 0.90965 0.0
Co231 Co 0.04258 0.77412 0.39215 0.0
C232 C 0.05005 0.69122 0.36201 0.0
C233 C 1.02509 0.68035 0.39849 0.0
C234 C 1.02931 0.64044 0.38677 0.0
N235 N 1.03825 0.71236 0.38313 0.0
N236 N 0.04495 0.64723 0.3639 0.0
H237 H 0.063 0.70725 0.3459 0.0
H238 H 1.01375 0.68514 0.41723 0.0
C239 C 1.00439 0.78297 0.44301 0.0
O240 O 1.03427 0.80629 0.4507 0.0
N241 N 0.04582 0.83579 0.40111 0.0
C242 C 0.07695 0.86183 0.40479 0.0
C243 C 0.06439 0.90117 0.41466 0.0
C244 C 1.01485 0.86058 0.40738 0.0
N245 N 1.02528 0.90001 0.41679 0.0
C246 C 0.12438 0.77022 0.40225 0.0
C247 C 0.12094 0.73313 0.44956 0.0
C248 C 0.15703 0.74816 0.44069 0.0
C249 C 0.15848 0.76514 0.41617 0.0
C250 C 0.08748 0.73823 0.43475 0.0
N251 N 0.08894 0.75978 0.41217 0.0
H252 H 0.12663 0.78442 0.38373 0.0
H253 H 0.06051 0.72541 0.44189 0.0
H254 H 0.10685 0.85284 0.4018 0.0
H255 H 0.98537 0.84835 0.40681 0.0
O256 O 0.06753 0.7879 0.36046 0.0
O257 O 1.0042 0.79037 0.3671 0.0
O258 O 1.00477 0.7651 0.42115 0.0
C259 C 1.03324 0.79828 0.35209 0.0
H260 H 1.02135 0.60874 0.39445 0.0
H261 H 0.08309 0.92702 0.42163 0.0
H262 H 0.11814 0.71864 0.46807 0.0
H263 H 0.18574 0.77509 0.40776 0.0
H264 H 0.42959 0.28216 0.99189 0.0
H265 H 0.37063 0.27937 1.01764 0.0
H266 H 0.30321 0.32607 0.95469 0.0
H267 H 0.36192 0.32861 0.92881 0.0
H268 H 0.31722 0.34138 0.0319 0.0
H269 H 0.24583 0.21447 0.97299 0.0
H270 H 0.29647 0.2285 0.96955 0.0
H271 H 0.25953 0.26261 0.95566 0.0
C272 C 0.40229 0.29235 0.9836 0.0
C273 C 0.40049 0.30523 0.95819 0.0
C274 C 0.36855 0.29052 0.99833 0.0
C275 C 0.33226 0.3015 0.98797 0.0
C276 C 0.33063 0.31616 0.96292 0.0
H277 H 0.09668 0.31749 0.04568 0.0
H278 H 0.15637 0.32178 0.02086 0.0
C279 C 0.36429 0.31775 0.94816 0.0
C280 C 0.29615 0.29729 1.00328 0.0
H281 H 0.20698 0.24766 1.00472 0.0
C282 C 0.29323 0.32069 0.02601 0.0
C283 C 0.2648 0.27014 0.99569 0.0
C284 C 0.26684 0.24215 0.97228 0.0
C285 C 0.2596 0.3184 0.04102 0.0
C286 C 0.2282 0.29168 0.03324 0.0
C287 C 0.23108 0.2682 1.0106 0.0
C288 C 0.19192 0.28801 0.04826 0.0
C289 C 0.25748 0.3452 0.06486 0.0
C290 C 0.19194 0.26692 0.07177 0.0
C291 C 0.15774 0.26407 0.08598 0.0
C292 C 0.12284 0.28234 0.07697 0.0
C293 C 0.1229 0.30283 0.0532 0.0
C294 C 0.15704 0.30544 0.03897 0.0
H295 H 0.28093 0.37021 0.06586 0.0
H296 H 0.22895 0.36206 0.06632 0.0
H297 H 0.26038 0.32303 0.08134 0.0
H298 H 0.21849 0.25281 0.07916 0.0
H299 H 0.15884 0.24823 0.10422 0.0
H300 H 0.43148 0.78153 0.6078 0.0
H301 H 0.37181 0.77586 0.58308 0.0
H302 H 0.43876 0.7378 0.51798 0.0
H303 H 0.49834 0.74155 0.54293 0.0
H304 H 0.34588 0.81744 0.54425 0.0
H305 H 0.35981 0.64283 0.51683 0.0
H306 H 0.39122 0.66795 0.53985 0.0
H307 H 0.40093 0.6743 0.50673 0.0
C308 C 0.43354 0.77205 0.5882 0.0
C309 C 0.46972 0.76194 0.57736 0.0
C310 C 0.39932 0.76867 0.57407 0.0
C311 C 0.40047 0.75539 0.54873 0.0
C312 C 0.43677 0.74666 0.53767 0.0
H313 H 0.21652 0.80822 0.44167 0.0
H314 H 0.2746 0.80798 0.46765 0.0
C315 C 0.47094 0.74937 0.5519 0.0
C316 C 0.36383 0.75212 0.53379 0.0
H317 H 0.31205 0.6849 0.49455 0.0
C318 C 0.33844 0.78828 0.53355 0.0
C319 C 0.35347 0.7138 0.52014 0.0
C320 C 0.37759 0.67238 0.52109 0.0
C321 C 0.30364 0.78765 0.51971 0.0
C322 C 0.29443 0.75038 0.50487 0.0
C323 C 0.31928 0.71375 0.50558 0.0
C324 C 0.25948 0.7491 0.48826 0.0
C325 C 0.27682 0.82677 0.52159 0.0
C326 C 0.23218 0.71492 0.49023 0.0
C327 C 0.19915 0.71418 0.47475 0.0
C328 C 0.19268 0.74763 0.45689 0.0
C329 C 0.22048 0.78145 0.45483 0.0
C330 C 0.25358 0.78185 0.47007 0.0
H331 H 0.28117 0.84485 0.53954 0.0
H332 H 0.28318 0.84986 0.50597 0.0
H333 H 0.24587 0.81674 0.52032 0.0
H334 H 0.23622 0.68898 0.50394 0.0
H335 H 0.17891 0.68719 0.47669 0.0
H336 H 0.42268 0.67199 0.06084 0.0
H337 H 0.36617 0.67506 0.03283 0.0
H338 H 0.32602 0.79166 0.07087 0.0
H339 H 0.3831 0.79053 0.09772 0.0
H340 H 0.28987 0.66998 0.04146 0.0
H341 H 0.3205 0.83237 0.99956 0.0
H342 H 0.35568 0.80347 1.0185 0.0
H343 H 0.31803 0.83568 0.03319 0.0
C344 C 0.40218 0.69869 0.06304 0.0
C345 C 0.4078 0.73097 0.08172 0.0
C346 C 0.36963 0.70021 0.04709 0.0
C347 C 0.34203 0.73409 0.04934 0.0
C348 C 0.34723 0.76578 0.06823 0.0
H349 H 0.10309 0.72879 0.9955 0.0
H350 H 0.1632 0.72437 0.01982 0.0
C351 C 0.37977 0.76455 0.08397 0.0
C352 C 0.30734 0.73605 0.03245 0.0
H353 H 0.25566 0.80521 0.99432 0.0
C354 C 0.28259 0.69942 0.03098 0.0
C355 C 0.29802 0.77411 1.01829 0.0
C356 C 0.3247 0.81342 1.01722 0.0
C357 C 0.24834 0.70029 1.01647 0.0
C358 C 0.23778 0.73936 1.00359 0.0
C359 C 0.26319 0.77546 1.00444 0.0
C360 C 0.20077 0.7435 0.98902 0.0
C361 C 0.22425 0.65896 1.01479 0.0
C362 C 0.20125 0.75801 0.96388 0.0
C363 C 0.16666 0.76175 0.9501 0.0
C364 C 0.13076 0.75083 0.96109 0.0
C365 C 0.13023 0.73722 0.98639 0.0
C366 C 0.16474 0.73412 1.00026 0.0
H367 H 0.24196 0.62917 1.01862 0.0
H368 H 0.20083 0.66028 0.02911 0.0
H369 H 0.2107 0.65551 0.99595 0.0
H370 H 0.22852 0.76578 0.95475 0.0
H371 H 0.16822 0.77206 0.93062 0.0
H372 H 0.43416 0.246 0.43455 0.0
H373 H 0.37438 0.25206 0.45927 0.0
H374 H 0.43795 0.3159 0.51889 0.0
H375 H 0.4975 0.31108 0.49408 0.0
H376 H 0.35369 0.22014 0.50443 0.0
H377 H 0.35102 0.4021 0.50909 0.0
H378 H 0.38273 0.37236 0.48811 0.0
H379 H 0.39541 0.37892 0.52077 0.0
C380 C 0.43548 0.2612 0.45297 0.0
C381 C 0.47071 0.27817 0.46226 0.0
C382 C 0.40121 0.26474 0.46707 0.0
C383 C 0.40134 0.28536 0.49075 0.0
C384 C 0.43673 0.30103 0.50039 0.0
H385 H 0.23062 0.32208 0.6093 0.0
H386 H 0.28909 0.32002 0.58303 0.0
C387 C 0.47094 0.29777 0.48625 0.0
C388 C 0.36463 0.28977 0.50549 0.0
H389 H 0.30595 0.36427 0.53528 0.0
C390 C 0.34315 0.25171 0.511 0.0
C391 C 0.3507 0.331 0.51409 0.0
C392 C 0.37093 0.37348 0.50754 0.0
C393 C 0.30874 0.2536 0.52525 0.0
C394 C 0.29515 0.2947 0.53407 0.0
C395 C 0.31647 0.33279 0.52855 0.0
C396 C 0.25915 0.29853 0.54943 0.0
C397 C 0.28761 0.21146 0.53125 0.0
C398 C 0.22269 0.28827 0.5391 0.0
C399 C 0.18917 0.28955 0.55406 0.0
C400 C 0.19143 0.30096 0.57969 0.0
C401 C 0.22787 0.31263 0.58972 0.0
C402 C 0.26131 0.31164 0.57472 0.0
H403 H 0.30584 0.18203 0.52751 0.0
H404 H 0.27837 0.21094 0.55128 0.0
H405 H 0.26114 0.20917 0.5194 0.0
H406 H 0.22026 0.27862 0.51955 0.0
H407 H 0.16168 0.28005 0.54576 0.0
H408 H 0.66459 0.7516 0.10942 0.0
H409 H 0.7246 0.75657 0.0851 0.0
H410 H 0.6597 0.80225 0.02077 0.0
H411 H 0.59968 0.79893 0.04531 0.0
H412 H 0.74975 0.71681 0.04513 0.0
H413 H 0.74195 0.89406 0.02277 0.0
H414 H 0.70969 0.86836 0.04507 0.0
H415 H 0.69995 0.86502 1.01179 0.0
C416 C 0.66298 0.76265 0.09008 0.0
C417 C 0.62718 0.77495 0.07938 0.0
C418 C 0.69744 0.76557 0.07617 0.0
C419 C 0.69705 0.7807 0.05117 0.0
C420 C 0.66116 0.79178 0.04021 0.0
H421 H 0.88163 0.73016 0.94395 0.0
H422 H 0.82348 0.72988 0.96978 0.0
C423 C 0.62669 0.78935 0.05421 0.0
C424 C 0.73407 0.78367 0.03653 0.0
H425 H 0.7889 0.85223 0.99987 0.0
C426 C 0.75834 0.74657 0.03539 0.0
C427 C 0.74602 0.8227 0.02417 0.0
C428 C 0.72325 0.86492 0.02622 0.0
C429 C 0.79349 0.74704 0.02188 0.0
C430 C 0.80427 0.78523 1.00829 0.0
C431 C 0.78054 0.8227 1.00993 0.0
C432 C 0.83961 0.78665 0.99196 0.0
C433 C 0.81901 0.70672 0.02282 0.0
C434 C 0.86767 0.81988 0.99487 0.0
C435 C 0.90078 0.82103 0.97944 0.0
C436 C 0.90663 0.78896 0.96067 0.0
C437 C 0.87819 0.75598 0.95778 0.0
C438 C 0.84502 0.7552 0.97296 0.0
H439 H 0.81382 0.68741 0.04024 0.0
H440 H 0.81209 0.68519 1.00657 0.0
H441 H 0.85028 0.71552 0.02198 0.0
H442 H 0.86408 0.84485 1.00922 0.0
H443 H 0.92153 0.84734 0.9821 0.0
H444 H 0.93481 0.2833 0.60611 0.0
H445 H 0.87521 0.27798 0.58115 0.0
H446 H 0.93947 0.21727 0.52077 0.0
H447 H 0.99886 0.22135 0.54581 0.0
H448 H 0.85482 0.31198 0.53634 0.0
H449 H 0.85286 0.13023 0.52901 0.0
H450 H 0.88453 0.15913 0.5504 0.0
H451 H 0.89703 0.1543 0.51764 0.0
C452 C 0.93632 0.26893 0.58748 0.0
C453 C 0.9717 0.25264 0.57804 0.0
C454 C 0.90215 0.26582 0.57324 0.0
C455 C 0.90254 0.24632 0.54925 0.0
C456 C 0.93806 0.23128 0.53948 0.0
H457 H 0.731 0.2112 0.43071 0.0
H458 H 0.78979 0.21329 0.45668 0.0
C459 C 0.97217 0.23411 0.55376 0.0
C460 C 0.86593 0.24243 0.53435 0.0
H461 H 0.80749 0.16904 0.50351 0.0
C462 C 0.84437 0.28066 0.52933 0.0
C463 C 0.85216 0.20155 0.52514 0.0
C464 C 0.87261 0.15889 0.531 0.0
C465 C 0.81 0.27929 0.51501 0.0
C466 C 0.79647 0.23852 0.50566 0.0
C467 C 0.81792 0.20027 0.51066 0.0
C468 C 0.76032 0.23514 0.49038 0.0
C469 C 0.78886 0.32166 0.50952 0.0
C470 C 0.72403 0.24567 0.50084 0.0
C471 C 0.69033 0.24446 0.48605 0.0
C472 C 0.69222 0.23277 0.46044 0.0
C473 C 0.72852 0.22093 0.45025 0.0
C474 C 0.76215 0.22191 0.4651 0.0
H475 H 0.80733 0.35089 0.51325 0.0
H476 H 0.77905 0.32268 0.48962 0.0
H477 H 0.76278 0.32389 0.52172 0.0
H478 H 0.72183 0.25535 0.52041 0.0
H479 H 0.66298 0.25408 0.49448 0.0
H480 H 0.88735 0.3174 0.08425 0.0
H481 H 0.82863 0.3176 0.05852 0.0
H482 H 0.84845 0.18195 0.03883 0.0
H483 H 0.90791 0.18172 0.06446 0.0
H484 H 0.82534 0.23051 0.99822 0.0
H485 H 0.72634 0.26259 0.07821 0.0
H486 H 0.76376 0.30332 0.07558 0.0
H487 H 0.77652 0.24726 0.08259 0.0
C488 C 0.87912 0.28745 0.07459 0.0
C489 C 0.90203 0.24931 0.07673 0.0
C490 C 0.84544 0.28761 0.05991 0.0
C491 C 0.83347 0.24949 0.04723 0.0
C492 C 0.85689 0.21168 0.04863 0.0
H493 H 0.59996 0.21425 0.98706 0.0
H494 H 0.66007 0.21063 1.01141 0.0
C495 C 0.89091 0.21159 0.06322 0.0
C496 C 0.79659 0.24945 0.03252 0.0
H497 H 0.69945 0.27147 0.03715 0.0
C498 C 0.79777 0.23921 1.00675 0.0
C499 C 0.76042 0.26009 0.0437 0.0
C500 C 0.75651 0.26848 0.07159 0.0
C501 C 0.76404 0.24042 0.99178 0.0
C502 C 0.72824 0.25319 1.00273 0.0
C503 C 0.72693 0.26235 0.02862 0.0
C504 C 0.69159 0.2563 0.98787 0.0
C505 C 0.767 0.22719 0.96448 0.0
C506 C 0.68885 0.28405 0.9668 0.0
C507 C 0.65442 0.28624 0.95276 0.0
C508 C 0.62183 0.2611 0.95969 0.0
C509 C 0.62434 0.23428 0.98121 0.0
C510 C 0.6588 0.23197 0.99513 0.0
H511 H 0.79309 0.20659 0.96093 0.0
H512 H 0.74084 0.20868 0.95837 0.0
H513 H 0.76947 0.25715 0.95269 0.0
H514 H 0.71335 0.30408 0.96119 0.0
H515 H 0.65347 0.30738 0.93638 0.0
H516 H 0.71638 0.74331 0.5954 0.0
H517 H 0.77445 0.74306 0.56953 0.0
H518 H 0.73385 0.85848 0.53048 0.0
H519 H 0.6766 0.861 0.55771 0.0
H520 H 0.7833 0.73181 0.52165 0.0
H521 H 0.8425 0.89598 0.54547 0.0
H522 H 0.80266 0.87171 0.56255 0.0
H523 H 0.79425 0.89834 0.53279 0.0
C524 C 0.72003 0.76951 0.58183 0.0
C525 C 0.69173 0.80269 0.57914 0.0
C526 C 0.75324 0.76893 0.56674 0.0
C527 C 0.75912 0.80114 0.54823 0.0
C528 C 0.73066 0.83386 0.54503 0.0
H529 H 0.93092 0.75958 0.4284 0.0
H530 H 0.87103 0.76478 0.45292 0.0
C531 C 0.6975 0.83485 0.56042 0.0
C532 C 0.79449 0.79908 0.53198 0.0
H533 H 0.87376 0.85748 0.51234 0.0
C534 C 0.80309 0.75933 0.51969 0.0
C535 C 0.82074 0.83471 0.52958 0.0
C536 C 0.81486 0.87744 0.54349 0.0
C537 C 0.83706 0.75403 0.50532 0.0
C538 C 0.8627 0.79005 0.50227 0.0
C539 C 0.85405 0.82991 0.51445 0.0
C540 C 0.89914 0.7868 0.48714 0.0
C541 C 0.84566 0.7093 0.49435 0.0
C542 C 0.93499 0.79869 0.49783 0.0
C543 C 0.96924 0.79645 0.48368 0.0
C544 C 0.96852 0.78198 0.45854 0.0
C545 C 0.93267 0.76997 0.44787 0.0
C546 C 0.89833 0.77283 0.46192 0.0
H547 H 0.83025 0.68286 0.50475 0.0
H548 H 0.83555 0.70831 0.47454 0.0
H549 H 0.87727 0.70206 0.49471 0.0
H550 H 0.93651 0.80978 0.51718 0.0
H551 H 0.99628 0.80635 0.49244 0.0
H552 H 0.99819 0.3302 0.21267 0.0
H553 H 1.002 0.38803 0.24427 0.0
H554 H 0.12703 0.38713 0.2388 0.0
H555 H 0.12331 0.33022 0.20622 0.0
H556 H 1.03202 0.39727 0.28898 0.0
H557 H 0.1058 0.51415 0.2248 0.0
H558 H 0.0866 0.46229 0.21411 0.0
H559 H 0.13285 0.46455 0.22988 0.0
C560 C 1.02661 0.34176 0.21841 0.0
C561 C 0.06045 0.32575 0.20675 0.0
C562 C 1.02873 0.37505 0.23648 0.0
C563 C 0.06473 0.39301 0.24347 0.0
C564 C 0.09881 0.37493 0.23315 0.0
H565 H 0.07774 0.5687 0.37342 0.0
H566 H 0.08615 0.50764 0.34397 0.0
C567 C 0.09668 0.34189 0.21478 0.0
C568 C 0.06601 0.43118 0.26109 0.0
H569 H 0.09692 0.53758 0.26693 0.0
C570 C 0.0463 0.4279 0.28415 0.0
C571 C 0.0839 0.47161 0.25462 0.0
C572 C 0.10314 0.47866 0.22941 0.0
C573 C 0.04388 0.46363 0.30082 0.0
C574 C 0.06301 0.50354 0.2948 0.0
C575 C 0.08269 0.50691 0.27173 0.0
C576 C 0.06208 0.5423 0.31198 0.0
C577 C 1.01956 0.45857 0.32429 0.0
C578 C 0.04824 0.58326 0.30351 0.0
C579 C 0.04439 0.61865 0.32027 0.0
C580 C 0.05394 0.61348 0.34579 0.0
C581 C 0.06953 0.57322 0.35391 0.0
C582 C 0.07406 0.53824 0.33713 0.0
H583 H 0.99768 0.43198 0.3222 0.0
H584 H 1.03869 0.44974 0.34032 0.0
H585 H 1.0041 0.48954 0.32898 0.0
H586 H 1.03914 0.58742 0.28414 0.0
H587 H 1.03224 0.64934 0.3136 0.0
H588 H 0.46912 0.70765 0.70332 0.0
H589 H 0.46627 0.64952 0.73528 0.0
H590 H 0.58984 0.66042 0.74663 0.0
H591 H 0.593 0.71861 0.71498 0.0
H592 H 0.55534 0.57085 0.73263 0.0
H593 H 0.48759 0.65374 0.81523 0.0
H594 H 0.46759 0.66349 0.78437 0.0
H595 H 0.51498 0.68392 0.79193 0.0
C596 C 0.49553 0.69851 0.7131 0.0
C597 C 0.53129 0.71785 0.7066 0.0
C598 C 0.49384 0.66517 0.73128 0.0
C599 C 0.52787 0.65062 0.74321 0.0
C600 C 0.56327 0.67119 0.7376 0.0
H601 H 0.59367 0.47629 0.8607 0.0
H602 H 0.58264 0.53529 0.83071 0.0
C603 C 0.56495 0.70465 0.71959 0.0
C604 C 0.5273 0.61189 0.76017 0.0
H605 H 0.5041 0.57896 0.81976 0.0
C606 C 0.5438 0.57241 0.7516 0.0
C607 C 0.51226 0.61417 0.78486 0.0
C608 C 0.49467 0.65604 0.79488 0.0
C609 C 0.54621 0.5353 0.76727 0.0
C610 C 0.53183 0.53781 0.79213 0.0
C611 C 0.51481 0.57709 0.80059 0.0
C612 C 0.53744 0.50133 0.8103 0.0
C613 C 0.56534 0.49406 0.75754 0.0
C614 C 0.51567 0.46239 0.80874 0.0
C615 C 0.52155 0.42839 0.82621 0.0
C616 C 0.54938 0.43277 0.8455 0.0
C617 C 0.57138 0.4718 0.8466 0.0
C618 C 0.56529 0.50567 0.82933 0.0
H619 H 0.57797 0.49863 0.73849 0.0
H620 H 0.58872 0.48348 0.77062 0.0
H621 H 0.54357 0.4672 0.75666 0.0
H622 H 0.49394 0.45848 0.79417 0.0
H623 H 0.50385 0.39913 0.82482 0.0
H624 H 0.09991 0.39712 0.70656 0.0
H625 H 0.11025 0.45657 0.73735 0.0
H626 H 0.99728 0.50943 0.71971 0.0
H627 H 0.98667 0.45037 0.6895 0.0
H628 H 0.10707 0.55188 0.72741 0.0
H629 H 0.99764 0.498 0.79748 0.0
H630 H 1.01732 0.4615 0.77388 0.0
H631 H 0.97975 0.50001 0.76574 0.0
C632 C 0.07717 0.42114 0.70953 0.0
C633 C 0.04253 0.41909 0.69551 0.0
C634 C 0.0832 0.45522 0.72696 0.0
C635 C 0.05441 0.48727 0.73093 0.0
C636 C 1.01974 0.48487 0.71716 0.0
H637 H 1.00745 0.71631 0.82064 0.0
H638 H 1.00885 0.65783 0.7891 0.0
C639 C 1.01385 0.45123 0.69972 0.0
C640 C 0.0603 0.52399 0.749 0.0
H641 H 1.02077 0.57138 0.80132 0.0
C642 C 0.08858 0.55597 0.74377 0.0
C643 C 1.03604 0.52932 0.77025 0.0
C644 C 1.00619 0.49522 0.77738 0.0
C645 C 0.09217 0.59405 0.75869 0.0
C646 C 0.0672 0.59988 0.7796 0.0
C647 C 1.03965 0.56723 0.78515 0.0
C648 C 0.06865 0.63952 0.79605 0.0
C649 C 0.12165 0.62842 0.75138 0.0
C650 C 0.10214 0.64968 0.81 0.0
C651 C 0.10152 0.6835 0.82792 0.0
C652 C 0.06725 0.70747 0.83244 0.0
C653 C 1.03436 0.69865 0.81758 0.0
C654 C 1.03506 0.66501 0.79962 0.0
H655 H 0.13121 0.62457 0.73153 0.0
H656 H 0.10969 0.66203 0.7539 0.0
H657 H 0.1476 0.62512 0.76362 0.0
H658 H 0.1282 0.63006 0.80797 0.0
H659 H 0.12721 0.68904 0.83926 0.0
H660 H 0.59157 0.31303 0.32102 0.0
H661 H 0.58852 0.36992 0.28852 0.0
H662 H 0.46783 0.39247 0.30587 0.0
H663 H 0.47065 0.33575 0.33853 0.0
H664 H 0.53962 0.38301 0.24534 0.0
H665 H 0.5201 0.51342 0.31769 0.0
H666 H 0.53579 0.45851 0.32556 0.0
H667 H 0.48565 0.46905 0.31846 0.0
C668 C 0.56414 0.32943 0.3176 0.0
C669 C 0.5314 0.31993 0.33247 0.0
C670 C 0.56249 0.36207 0.29905 0.0
C671 C 0.52818 0.38608 0.29512 0.0
C672 C 0.49481 0.37492 0.3089 0.0
H673 H 0.49856 0.62353 0.20105 0.0
H674 H 0.48475 0.56147 0.22929 0.0
C675 C 0.49639 0.34215 0.3274 0.0
C676 C 0.5281 0.42404 0.27747 0.0
H677 H 0.52276 0.53628 0.27539 0.0
C678 C 0.53565 0.41648 0.25188 0.0
C679 C 0.52283 0.46776 0.286 0.0
C680 C 0.51592 0.47798 0.31344 0.0
C681 C 0.53853 0.45143 0.23467 0.0
C682 C 0.53448 0.49521 0.24333 0.0
C683 C 0.52576 0.50273 0.26877 0.0
C684 C 0.54239 0.53349 0.22668 0.0
C685 C 0.5461 0.44118 0.20733 0.0
C686 C 0.57958 0.53908 0.21646 0.0
C687 C 0.58762 0.5745 0.20061 0.0
C688 C 0.55865 0.60543 0.19447 0.0
C689 C 0.52157 0.60048 0.20532 0.0
C690 C 0.51357 0.56489 0.22136 0.0
H691 H 0.53713 0.40714 0.20249 0.0
H692 H 0.53045 0.46447 0.19483 0.0
H693 H 0.57768 0.4442 0.20351 0.0
H694 H 0.6026 0.51603 0.22085 0.0
H695 H 0.61682 0.57766 0.19333 0.0
H696 H 0.50459 0.81913 0.2175 0.0
H697 H 0.50655 0.87854 0.24849 0.0
H698 H 0.62975 0.89274 0.23674 0.0
H699 H 0.6281 0.83344 0.20544 0.0
H700 H 0.5959 0.89531 0.2917 0.0
H701 H 0.53112 1.01063 0.22206 0.0
H702 H 0.50852 0.95753 0.22513 0.0
H703 H 0.55688 0.96146 0.21279 0.0
C704 C 0.53231 0.83412 0.22187 0.0
C705 C 0.5662 0.82152 0.20893 0.0
C706 C 0.5333 0.86829 0.23949 0.0
C707 C 0.56819 0.89035 0.24464 0.0
C708 C 0.60251 0.87621 0.23292 0.0
H709 H 0.58956 0.14147 0.32686 0.0
H710 H 0.60057 0.08196 0.29643 0.0
C711 C 0.60152 0.84219 0.21513 0.0
C712 C 0.56817 0.92963 0.2612 0.0
H713 H 0.53713 0.03629 0.26401 0.0
C714 C 0.58338 0.92624 0.28562 0.0
C715 C 0.55218 0.97006 0.25309 0.0
C716 C 0.53642 0.97557 0.22679 0.0
C717 C 0.58163 0.96188 0.30246 0.0
C718 C 0.56429 1.00178 0.29465 0.0
C719 C 0.55041 1.00566 0.26994 0.0
C720 C 0.55758 0.03849 0.31254 0.0
C721 C 0.59776 0.95655 0.32867 0.0
C722 C 0.5292 0.03413 0.33123 0.0
C723 C 0.52243 0.0681 0.34834 0.0
C724 C 0.54415 0.10736 0.34738 0.0
C725 C 0.57217 0.11197 0.32822 0.0
C726 C 0.57869 0.07788 0.31089 0.0
H727 H 0.61685 0.92723 0.33024 0.0
H728 H 0.6145 0.98618 0.33427 0.0
H729 H 0.57336 0.9527 0.34215 0.0
H730 H 0.51211 1.00431 0.33255 0.0
H731 H 0.49989 0.06344 0.36224 0.0
H732 H 0.11005 0.95394 0.85481 0.0
H733 H 0.10023 1.01293 0.82433 0.0
H734 H 0.9927 0.95329 0.80064 0.0
H735 H 1.00229 0.89387 0.8315 0.0
H736 H 0.08843 1.00353 0.7697 0.0
H737 H 0.96541 0.08516 0.81922 0.0
H738 H 0.99828 0.04818 0.83517 0.0
H739 H 0.96236 0.02676 0.81404 0.0
C740 C 0.08418 0.9534 0.84324 0.0
C741 C 0.05675 0.9194 0.84575 0.0
C742 C 0.07871 0.98707 0.82573 0.0
C743 C 0.04552 0.98785 0.81046 0.0
C744 C 1.0183 0.95359 0.81249 0.0
H745 H 0.97496 0.18514 0.6996 0.0
H746 H 0.97526 0.12566 0.73064 0.0
C747 C 1.02396 0.9195 0.82994 0.0
C748 C 1.04011 0.02455 0.79235 0.0
H749 H 0.98764 0.11821 0.78181 0.0
C750 C 0.06629 0.02851 0.77226 0.0
C751 C 1.0111 0.05697 0.79568 0.0
C752 C 0.98269 0.05451 0.81723 0.0
C753 C 0.0644 0.06409 0.75545 0.0
C754 C 1.03626 0.09746 0.75927 0.0
C755 C 1.00945 0.09295 0.77904 0.0
C756 C 1.03439 0.13705 0.74282 0.0
C757 C 0.09228 0.0652 0.73354 0.0
C758 C 0.06681 0.16472 0.7402 0.0
C759 C 0.06677 0.19869 0.72244 0.0
C760 C 1.03407 0.20609 0.70716 0.0
C761 C 1.00059 0.18046 0.71112 0.0
C762 C 1.00077 0.14625 0.72879 0.0
H763 H 0.10379 0.03196 0.72914 0.0
H764 H 0.07812 0.07861 0.7164 0.0
H765 H 0.11732 0.08657 0.73836 0.0
H766 H 0.09272 0.15908 0.75131 0.0
H767 H 0.09296 0.21792 0.71995 0.0
H768 H 0.4852 0.96244 0.68583 0.0
H769 H 0.49508 0.02206 0.71587 0.0
H770 H 0.60577 0.96682 0.73687 0.0
H771 H 0.59613 0.9068 0.70639 0.0
H772 H 0.50977 1.01454 0.76971 0.0
H773 H 0.62876 0.0987 0.71759 0.0
H774 H 0.59647 0.05996 0.70254 0.0
H775 H 0.63381 0.04065 0.72332 0.0
C776 C 0.51177 0.96301 0.69672 0.0
C777 C 0.54008 0.9301 0.69353 0.0
C778 C 0.51729 0.99703 0.71397 0.0
C779 C 0.55137 0.99926 0.72834 0.0
C780 C 0.57947 0.96603 0.72569 0.0
H781 H 0.62033 0.20002 0.83756 0.0
H782 H 0.62091 0.14034 0.80665 0.0
C783 C 0.5738 0.93158 0.70847 0.0
C784 C 0.55676 0.03641 0.74616 0.0
H785 H 0.60738 0.1318 0.75522 0.0
C786 C 0.53123 0.04008 0.76663 0.0
C787 C 0.58488 0.06957 0.74214 0.0
C788 C 0.61252 0.06748 0.72016 0.0
C789 C 0.53286 0.07613 0.78311 0.0
C790 C 0.56005 0.11019 0.7786 0.0
C791 C 0.58628 0.10597 0.75849 0.0
C792 C 0.56147 0.15022 0.7947 0.0
C793 C 0.50568 0.07706 0.8054 0.0
C794 C 0.52855 0.17715 0.79733 0.0
C795 C 0.5281 0.21126 0.815 0.0
C796 C 0.56075 0.21947 0.83019 0.0
C797 C 0.59471 0.1947 0.82612 0.0
C798 C 0.59505 0.16037 0.80853 0.0
H799 H 0.49492 0.04366 0.81016 0.0
H800 H 0.52018 0.09113 0.82225 0.0
H801 H 0.48013 0.09779 0.8008 0.0
H802 H 0.50263 0.1707 0.78638 0.0
H803 H 0.50153 0.2298 0.81758 0.0
H804 H 0.10135 0.08154 0.18442 0.0
H805 H 0.09126 0.02255 0.21482 0.0
H806 H 0.98204 0.08036 0.23671 0.0
H807 H 0.99194 0.13985 0.2059 0.0
H808 H 0.07714 0.03236 0.2693 0.0
H809 H 0.95777 0.94755 0.21775 0.0
H810 H 0.99072 0.98496 0.20222 0.0
H811 H 0.95379 1.00594 0.22274 0.0
C812 C 0.07505 0.08168 0.19558 0.0
C813 C 0.04723 0.11516 0.19256 0.0
C814 C 0.06942 0.04802 0.21303 0.0
C815 C 1.0357 0.04672 0.22777 0.0
C816 C 1.00807 0.08048 0.22526 0.0
H817 H 0.96918 0.84509 0.33741 0.0
H818 H 0.96735 0.905 0.30664 0.0
C819 C 1.01388 0.1146 0.20785 0.0
C820 C 1.03025 1.00997 0.24582 0.0
H821 H 0.98024 0.91423 0.25502 0.0
C822 C 0.05579 1.00667 0.26629 0.0
C823 C 1.00227 0.97664 0.24189 0.0
C824 C 0.97457 0.97849 0.21993 0.0
C825 C 0.05442 0.97069 0.28282 0.0
C826 C 1.0275 0.93634 0.27834 0.0
C827 C 1.00114 0.94027 0.25827 0.0
C828 C 1.02672 0.89614 0.2943 0.0
C829 C 0.08166 0.97007 0.30509 0.0
C830 C 0.06 0.86972 0.29664 0.0
C831 C 0.06115 0.83551 0.31421 0.0
C832 C 1.02886 0.82666 0.32959 0.0
C833 C 0.99452 0.8509 0.3258 0.0
C834 C 0.99348 0.88535 0.3083 0.0
H835 H 0.09203 1.00362 0.3099 0.0
H836 H 0.06739 0.9557 0.32192 0.0
H837 H 0.10745 0.94976 0.30043 0.0
H838 H 0.08567 0.87667 0.28555 0.0
H839 H 0.08799 0.81737 0.31657 0.0
H840 H 0.14244 0.64696 0.93777 0.0
H841 H 0.17529 0.60214 0.96886 0.0
H842 H 0.08104 0.50882 0.9665 0.0
H843 H 0.04945 0.55142 0.93394 0.0
H844 H 0.15034 0.59344 1.01293 0.0
H845 H 0.16615 0.4256 0.97804 0.0
H846 H 0.15691 0.47076 0.9568 0.0
H847 H 0.11718 0.44114 0.97123 0.0
C848 C 0.12921 0.61607 0.94294 0.0
C849 C 0.09252 0.60348 0.93352 0.0
C850 C 0.14817 0.59049 0.96098 0.0
C851 C 0.13085 0.552 0.97013 0.0
C852 C 0.09568 0.53778 0.95945 0.0
H853 H 0.05544 0.48434 0.10592 0.0
H854 H 0.08742 0.52362 0.0721 0.0
C855 C 0.07708 0.56283 0.94108 0.0
C856 C 0.14501 0.53114 0.99366 0.0
H857 H 0.14357 0.43172 0.02285 0.0
C858 C 0.15022 0.55797 1.01494 0.0
C859 C 0.14672 0.48499 0.9965 0.0
C860 C 0.14693 0.45419 0.97426 0.0
C861 C 0.15153 0.53992 0.03918 0.0
C862 C 0.14597 0.49419 0.04219 0.0
C863 C 0.14641 0.46703 0.02077 0.0
C864 C 0.13257 0.47491 0.06632 0.0
C865 C 0.1569 0.57037 0.0613 0.0
C866 C 0.14726 0.4345 0.07471 0.0
C867 C 0.12806 0.41114 0.09359 0.0
C868 C 0.09372 0.4278 0.10454 0.0
C869 C 0.08121 0.47004 0.09763 0.0
C870 C 0.10007 0.49304 0.07852 0.0
H871 H 0.17854 0.59622 0.05672 0.0
H872 H 0.12902 0.58723 0.06542 0.0
H873 H 0.16675 0.55257 0.07839 0.0
H874 H 0.17219 0.41972 0.06558 0.0
H875 H 0.13888 0.37879 0.09819 0.0
H876 H 0.46147 0.65938 0.59684 0.0
H877 H 0.43073 0.61405 0.56501 0.0
H878 H 0.52271 0.51858 0.57232 0.0
H879 H 0.5522 0.56206 0.60547 0.0
H880 H 0.45973 0.60178 0.52195 0.0
H881 H 0.4358 0.43718 0.56018 0.0
H882 H 0.44458 0.48367 0.58055 0.0
H883 H 0.48459 0.45189 0.5681 0.0
C884 C 0.4745 0.62793 0.59258 0.0
C885 C 0.50991 0.6148 0.60365 0.0
C886 C 0.45682 0.6021 0.57412 0.0
C887 C 0.47416 0.56273 0.56623 0.0
C888 C 0.50808 0.54823 0.57839 0.0
H889 H 0.55102 0.47862 0.43193 0.0
H890 H 0.52171 0.52254 0.46492 0.0
C891 C 0.52544 0.57366 0.59711 0.0
C892 C 0.46132 0.54075 0.54273 0.0
H893 H 0.45974 0.43927 0.51588 0.0
C894 C 0.45853 0.56623 0.52073 0.0
C895 C 0.45793 0.49456 0.54092 0.0
C896 C 0.4554 0.46549 0.56384 0.0
C897 C 0.4576 0.54649 0.4969 0.0
C898 C 0.46096 0.50029 0.49507 0.0
C899 C 0.45851 0.47483 0.51709 0.0
C900 C 0.47345 0.47823 0.4715 0.0
C901 C 0.4547 0.57556 0.474 0.0
C902 C 0.45618 0.43868 0.46389 0.0
C903 C 0.4738 0.41254 0.44555 0.0
C904 C 0.50909 0.42558 0.43431 0.0
C905 C 0.52441 0.46701 0.44046 0.0
C906 C 0.50712 0.49272 0.45909 0.0
H907 H 0.43504 0.60379 0.47776 0.0
H908 H 0.48379 0.58928 0.46961 0.0
H909 H 0.44375 0.55735 0.45733 0.0
H910 H 0.43026 0.42677 0.47318 0.0
H911 H 0.46088 0.38094 0.44156 0.0
H912 H 0.53996 0.06086 0.92891 0.0
H913 H 0.56443 0.02014 0.96501 0.0
H914 H 0.65388 0.11742 0.97606 0.0
H915 H 0.62852 0.15959 0.94095 0.0
H916 H 0.63205 0.98413 0.98353 0.0
H917 H 0.58834 0.1321 0.03876 0.0
H918 H 0.57711 0.12666 1.00578 0.0
H919 H 0.62577 0.13931 1.01563 0.0
C920 C 0.56508 0.07347 0.93878 0.0
C921 C 0.58103 0.11455 0.93252 0.0
C922 C 0.57934 0.04986 0.95929 0.0
C923 C 0.61016 0.06657 0.97369 0.0
C924 C 0.62936 0.1046 0.9656 0.0
H925 H 0.63031 0.90959 0.11313 0.0
H926 H 0.65597 0.95586 0.07938 0.0
C927 C 0.61482 0.12857 0.94526 0.0
C928 C 0.61768 0.04754 0.99884 0.0
H929 H 0.59984 0.06755 0.061 0.0
C930 C 0.6261 1.00252 1.00059 0.0
C931 C 0.60967 0.07178 0.02103 0.0
C932 C 0.59945 0.12005 0.02038 0.0
C933 C 0.62373 0.98035 0.02369 0.0
C934 C 0.61323 1.00413 0.04553 0.0
C935 C 0.60802 0.0497 0.04414 0.0
C936 C 0.59982 0.98132 0.06844 0.0
C937 C 0.62906 0.93112 0.02423 0.0
C938 C 0.5601 0.98213 0.07418 0.0
C939 C 0.54528 0.95569 0.09326 0.0
C940 C 0.56993 0.92779 0.10706 0.0
C941 C 0.61027 0.92969 0.1025 0.0
C942 C 0.62508 0.95618 0.08326 0.0
H943 H 0.63516 0.91731 1.00528 0.0
H944 H 0.65361 0.92268 0.03684 0.0
H945 H 0.60258 0.9151 0.03186 0.0
H946 H 0.54016 1.00151 0.06294 0.0
H947 H 0.51417 0.95526 0.096 0.0
H948 H 0.95654 0.88005 0.43991 0.0
H949 H 0.92565 0.92151 0.47335 0.0
H950 H 1.01133 0.02396 0.46479 0.0
H951 H 0.0408 0.98413 0.43019 0.0
H952 H 0.95704 0.93316 0.51541 0.0
H953 H 0.92219 0.09838 0.48226 0.0
H954 H 0.93173 0.05425 0.46039 0.0
H955 H 0.97092 0.08797 0.47228 0.0
C956 C 0.96799 0.91222 0.44426 0.0
C957 C 1.00185 0.92831 0.43248 0.0
C958 C 0.95022 0.93589 0.46362 0.0
C959 C 0.96591 0.97605 0.47166 0.0
C960 C 0.99791 0.99362 0.45868 0.0
H961 H 0.05382 0.05345 0.60378 0.0
H962 H 1.0222 1.01087 0.57116 0.0
C963 C 1.01532 0.97031 0.4391 0.0
C964 C 0.95413 0.9956 0.49609 0.0
H965 H 0.95181 0.09495 0.5254 0.0
C966 C 0.95456 0.9685 0.51752 0.0
C967 C 0.94914 0.04141 0.49918 0.0
C968 C 0.94298 0.0719 0.47717 0.0
C969 C 0.95544 0.98651 0.54179 0.0
C970 C 0.95745 0.03265 0.54459 0.0
C971 C 0.95164 0.05948 0.52338 0.0
C972 C 0.97197 0.05355 0.56801 0.0
C973 C 0.95601 0.95576 0.56405 0.0
C974 C 0.95442 0.09174 0.57741 0.0
C975 C 0.97331 0.11726 0.5955 0.0
C976 C 1.01019 0.10492 0.60473 0.0
C977 C 1.02601 0.06464 0.59682 0.0
C978 C 1.00742 0.03962 0.57841 0.0
H979 H 0.93684 0.92703 0.56051 0.0
H980 H 0.98591 0.94296 0.56675 0.0
H981 H 0.9464 0.97232 0.5816 0.0
H982 H 0.9271 0.10316 0.56971 0.0
H983 H 0.95982 0.14789 0.60089 0.0
loop_
_geom_bond_atom_site_label_1
_geom_bond_atom_site_label_2
_geom_bond_distance
_geom_bond_site_symmetry_2
_ccdc_geom_bond_type
Co0 N4 2.148 . S
Co0 N10 2.128 . S
Co0 N20 2.194 1_455 S
Co0 O25 2.351 1_455 S
Co0 O26 2.155 . S
Co0 O27 2.096 . S
C1 N4 1.301 . S
C1 N5 1.328 . S
C1 H6 0.930 1_455 S
C2 C3 1.333 . S
C2 N4 1.317 . S
C2 H7 0.930 . S
C3 C2 1.333 . S
C3 N5 1.350 . S
C3 H29 0.931 . S
N4 Co0 2.148 . S
N4 C1 1.301 . S
N4 C2 1.317 . S
N5 C1 1.328 . S
N5 C3 1.350 . S
H6 C1 0.930 1_655 S
H7 C2 0.930 . S
C8 O9 1.224 . S
C8 O27 1.247 . S
O9 C8 1.224 . S
N10 Co0 2.128 . S
N10 C11 1.355 1_455 S
N10 C13 1.311 . S
C11 N10 1.355 1_655 S
C11 C12 1.363 . S
C11 H23 0.929 . S
C12 C11 1.363 . S
C12 N14 1.375 1_655 S
C12 H30 0.931 . S
C13 N10 1.311 . S
C13 N14 1.347 . S
C13 H24 0.929 . S
N14 C12 1.375 1_455 S
N14 C13 1.347 . S
C15 C18 1.365 . S
C15 N20 1.328 . S
C15 H21 0.929 . S
C16 C17 1.362 . S
C16 C19 1.378 . S
C16 H31 0.929 . S
C17 C16 1.362 . S
C17 C18 1.366 . S
C18 C15 1.365 . S
C18 C17 1.366 . S
C18 H32 0.930 . S
C19 C16 1.378 . S
C19 N20 1.315 . S
C19 H22 0.930 . S
N20 Co0 2.194 1_655 S
N20 C15 1.328 . S
N20 C19 1.315 . S
H21 C15 0.929 . S
H22 C19 0.930 . S
H23 C11 0.929 . S
H24 C13 0.929 . S
O25 Co0 2.351 1_655 S
O25 C28 1.244 1_655 S
O26 Co0 2.155 . S
O26 C28 1.240 . S
O27 Co0 2.096 . S
O27 C8 1.247 . S
C28 O25 1.244 1_455 S
C28 O26 1.240 . S
H29 C3 0.931 . S
H30 C12 0.931 . S
H31 C16 0.929 . S
H32 C18 0.930 . S
Co33 N37 2.148 . S
Co33 N43 2.128 . S
Co33 N53 2.194 . S
Co33 O58 2.351 . S
Co33 O59 2.155 . S
Co33 O60 2.096 . S
C34 N37 1.301 . S
C34 N38 1.328 . S
C34 H39 0.930 . S
C35 C36 1.333 . S
C35 N37 1.317 . S
C35 H40 0.930 . S
C36 C35 1.333 . S
C36 N38 1.350 . S
C36 H62 0.931 . S
N37 Co33 2.148 . S
N37 C34 1.301 . S
N37 C35 1.317 . S
N38 C34 1.328 . S
N38 C36 1.350 . S
H39 C34 0.930 . S
H40 C35 0.930 . S
C41 O42 1.224 . S
C41 O60 1.247 . S
O42 C41 1.224 . S
N43 Co33 2.128 . S
N43 C44 1.355 . S
N43 C46 1.311 . S
C44 N43 1.355 . S
C44 C45 1.363 . S
C44 H56 0.929 . S
C45 C44 1.363 . S
C45 N47 1.375 . S
C45 H63 0.931 . S
C46 N43 1.311 . S
C46 N47 1.347 . S
C46 H57 0.929 . S
N47 C45 1.375 . S
N47 C46 1.347 . S
C48 C51 1.365 . S
C48 N53 1.328 . S
C48 H54 0.929 . S
C49 C50 1.362 . S
C49 C52 1.378 . S
C49 H64 0.929 . S
C50 C49 1.362 . S
C50 C51 1.366 . S
C51 C48 1.365 . S
C51 C50 1.366 . S
C51 H65 0.930 . S
C52 C49 1.378 . S
C52 N53 1.315 . S
C52 H55 0.930 . S
N53 Co33 2.194 . S
N53 C48 1.328 . S
N53 C52 1.315 . S
H54 C48 0.929 . S
H55 C52 0.930 . S
H56 C44 0.929 . S
H57 C46 0.929 . S
O58 Co33 2.351 . S
O58 C61 1.244 . S
O59 Co33 2.155 . S
O59 C61 1.240 . S
O60 Co33 2.096 . S
O60 C41 1.247 . S
C61 O58 1.244 . S
C61 O59 1.240 . S
H62 C36 0.931 . S
H63 C45 0.931 . S
H64 C49 0.929 . S
H65 C51 0.930 . S
Co66 N70 2.148 . S
Co66 N76 2.128 . S
Co66 N86 2.194 1_455 S
Co66 O91 2.351 1_455 S
Co66 O92 2.155 . S
Co66 O93 2.096 . S
C67 N70 1.301 . S
C67 N71 1.328 . S
C67 H72 0.930 1_455 S
C68 C69 1.333 . S
C68 N70 1.317 . S
C68 H73 0.930 . S
C69 C68 1.333 . S
C69 N71 1.350 . S
C69 H95 0.931 . S
N70 Co66 2.148 . S
N70 C67 1.301 . S
N70 C68 1.317 . S
N71 C67 1.328 . S
N71 C69 1.350 . S
H72 C67 0.930 1_655 S
H73 C68 0.930 . S
C74 O75 1.224 . S
C74 O93 1.247 . S
O75 C74 1.224 . S
N76 Co66 2.128 . S
N76 C77 1.355 1_455 S
N76 C79 1.311 . S
C77 N76 1.355 1_655 S
C77 C78 1.363 . S
C77 H89 0.929 . S
C78 C77 1.363 . S
C78 N80 1.375 1_655 S
C78 H96 0.931 . S
C79 N76 1.311 . S
C79 N80 1.347 . S
C79 H90 0.929 . S
N80 C78 1.375 1_455 S
N80 C79 1.347 . S
C81 C84 1.365 . S
C81 N86 1.328 . S
C81 H87 0.929 . S
C82 C83 1.362 . S
C82 C85 1.378 . S
C82 H97 0.929 . S
C83 C82 1.362 . S
C83 C84 1.366 . S
C84 C81 1.365 . S
C84 C83 1.366 . S
C84 H98 0.930 . S
C85 C82 1.378 . S
C85 N86 1.315 . S
C85 H88 0.930 . S
N86 Co66 2.194 1_655 S
N86 C81 1.328 . S
N86 C85 1.315 . S
H87 C81 0.929 . S
H88 C85 0.930 . S
H89 C77 0.929 . S
H90 C79 0.929 . S
O91 Co66 2.351 1_655 S
O91 C94 1.244 1_655 S
O92 Co66 2.155 . S
O92 C94 1.240 . S
O93 Co66 2.096 . S
O93 C74 1.247 . S
C94 O91 1.244 1_455 S
C94 O92 1.240 . S
H95 C69 0.931 . S
H96 C78 0.931 . S
H97 C82 0.929 . S
H98 C84 0.930 . S
Co99 N103 2.148 . S
Co99 N109 2.128 . S
Co99 N119 2.194 . S
Co99 O124 2.351 . S
Co99 O125 2.155 . S
Co99 O126 2.096 . S
C100 N103 1.301 . S
C100 N104 1.328 . S
C100 H105 0.930 . S
C101 C102 1.333 . S
C101 N103 1.317 . S
C101 H106 0.930 . S
C102 C101 1.333 . S
C102 N104 1.350 . S
C102 H128 0.931 . S
N103 Co99 2.148 . S
N103 C100 1.301 . S
N103 C101 1.317 . S
N104 C100 1.328 . S
N104 C102 1.350 . S
H105 C100 0.930 . S
H106 C101 0.930 . S
C107 O108 1.224 . S
C107 O126 1.247 . S
O108 C107 1.224 . S
N109 Co99 2.128 . S
N109 C110 1.355 . S
N109 C112 1.311 . S
C110 N109 1.355 . S
C110 C111 1.363 . S
C110 H122 0.929 . S
C111 C110 1.363 . S
C111 N113 1.375 . S
C111 H129 0.931 . S
C112 N109 1.311 . S
C112 N113 1.347 . S
C112 H123 0.929 . S
N113 C111 1.375 . S
N113 C112 1.347 . S
C114 C117 1.365 . S
C114 N119 1.328 . S
C114 H120 0.929 . S
C115 C116 1.362 . S
C115 C118 1.378 . S
C115 H130 0.929 . S
C116 C115 1.362 . S
C116 C117 1.366 . S
C117 C114 1.365 . S
C117 C116 1.366 . S
C117 H131 0.930 . S
C118 C115 1.378 . S
C118 N119 1.315 . S
C118 H121 0.930 . S
N119 Co99 2.194 . S
N119 C114 1.328 . S
N119 C118 1.315 . S
H120 C114 0.929 . S
H121 C118 0.930 . S
H122 C110 0.929 . S
H123 C112 0.929 . S
O124 Co99 2.351 . S
O124 C127 1.244 . S
O125 Co99 2.155 . S
O125 C127 1.240 . S
O126 Co99 2.096 . S
O126 C107 1.247 . S
C127 O124 1.244 . S
C127 O125 1.240 . S
H128 C102 0.931 . S
H129 C111 0.931 . S
H130 C115 0.929 . S
H131 C117 0.930 . S
Co132 N136 2.148 . S
Co132 N142 2.128 . S
Co132 N152 2.194 . S
Co132 O157 2.351 . S
Co132 O158 2.155 . S
Co132 O159 2.096 . S
C133 N136 1.301 . S
C133 N137 1.328 . S
C133 H138 0.930 . S
C134 C135 1.333 . S
C134 N136 1.317 . S
C134 H139 0.930 . S
C135 C134 1.333 . S
C135 N137 1.350 . S
C135 H161 0.931 . S
N136 Co132 2.148 . S
N136 C133 1.301 . S
N136 C134 1.317 . S
N137 C133 1.328 . S
N137 C135 1.350 . S
H138 C133 0.930 . S
H139 C134 0.930 . S
C140 O141 1.224 . S
C140 O159 1.247 . S
O141 C140 1.224 . S
N142 Co132 2.128 . S
N142 C143 1.355 . S
N142 C145 1.311 . S
C143 N142 1.355 . S
C143 C144 1.363 . S
C143 H155 0.929 . S
C144 C143 1.363 . S
C144 N146 1.375 . S
C144 H162 0.931 . S
C145 N142 1.311 . S
C145 N146 1.347 . S
C145 H156 0.929 . S
N146 C144 1.375 . S
N146 C145 1.347 . S
C147 C150 1.365 . S
C147 N152 1.328 . S
C147 H153 0.929 . S
C148 C149 1.362 . S
C148 C151 1.378 . S
C148 H163 0.929 . S
C149 C148 1.362 . S
C149 C150 1.366 . S
C150 C147 1.365 . S
C150 C149 1.366 . S
C150 H164 0.930 . S
C151 C148 1.378 . S
C151 N152 1.315 . S
C151 H154 0.930 . S
N152 Co132 2.194 . S
N152 C147 1.328 . S
N152 C151 1.315 . S
H153 C147 0.929 . S
H154 C151 0.930 . S
H155 C143 0.929 . S
H156 C145 0.929 . S
O157 Co132 2.351 . S
O157 C160 1.244 . S
O158 Co132 2.155 . S
O158 C160 1.240 . S
O159 Co132 2.096 . S
O159 C140 1.247 . S
C160 O157 1.244 . S
C160 O158 1.240 . S
H161 C135 0.931 . S
H162 C144 0.931 . S
H163 C148 0.929 . S
H164 C150 0.930 . S
Co165 N169 2.148 . S
Co165 N175 2.128 1_655 S
Co165 N185 2.194 1_655 S
Co165 O190 2.351 1_655 S
Co165 O191 2.155 . S
Co165 O192 2.096 . S
C166 N169 1.301 1_455 S
C166 N170 1.328 1_455 S
C166 H171 0.930 . S
C167 C168 1.333 . S
C167 N169 1.317 . S
C167 H172 0.930 . S
C168 C167 1.333 . S
C168 N170 1.350 . S
C168 H194 0.931 . S
N169 Co165 2.148 . S
N169 C166 1.301 1_655 S
N169 C167 1.317 . S
N170 C166 1.328 1_655 S
N170 C168 1.350 . S
H171 C166 0.930 . S
H172 C167 0.930 . S
C173 O174 1.224 . S
C173 O192 1.247 . S
O174 C173 1.224 . S
N175 Co165 2.128 1_455 S
N175 C176 1.355 . S
N175 C178 1.311 1_455 S
C176 N175 1.355 . S
C176 C177 1.363 . S
C176 H188 0.929 . S
C177 C176 1.363 . S
C177 N179 1.375 1_455 S
C177 H195 0.931 . S
C178 N175 1.311 1_655 S
C178 N179 1.347 . S
C178 H189 0.929 . S
N179 C177 1.375 1_655 S
N179 C178 1.347 . S
C180 C183 1.365 . S
C180 N185 1.328 . S
C180 H186 0.929 . S
C181 C182 1.362 . S
C181 C184 1.378 . S
C181 H196 0.929 . S
C182 C181 1.362 . S
C182 C183 1.366 . S
C183 C180 1.365 . S
C183 C182 1.366 . S
C183 H197 0.930 . S
C184 C181 1.378 . S
C184 N185 1.315 . S
C184 H187 0.930 . S
N185 Co165 2.194 1_455 S
N185 C180 1.328 . S
N185 C184 1.315 . S
H186 C180 0.929 . S
H187 C184 0.930 . S
H188 C176 0.929 . S
H189 C178 0.929 . S
O190 Co165 2.351 1_455 S
O190 C193 1.244 . S
O191 Co165 2.155 . S
O191 C193 1.240 1_655 S
O192 Co165 2.096 . S
O192 C173 1.247 . S
C193 O190 1.244 . S
C193 O191 1.240 1_455 S
H194 C168 0.931 . S
H195 C177 0.931 . S
H196 C181 0.929 . S
H197 C183 0.930 . S
Co198 N202 2.148 . S
Co198 N208 2.128 . S
Co198 N218 2.194 . S
Co198 O223 2.351 . S
Co198 O224 2.155 . S
Co198 O225 2.096 . S
C199 N202 1.301 . S
C199 N203 1.328 . S
C199 H204 0.930 . S
C200 C201 1.333 . S
C200 N202 1.317 . S
C200 H205 0.930 . S
C201 C200 1.333 . S
C201 N203 1.350 . S
C201 H227 0.931 . S
N202 Co198 2.148 . S
N202 C199 1.301 . S
N202 C200 1.317 . S
N203 C199 1.328 . S
N203 C201 1.350 . S
H204 C199 0.930 . S
H205 C200 0.930 . S
C206 O207 1.224 . S
C206 O225 1.247 . S
O207 C206 1.224 . S
N208 Co198 2.128 . S
N208 C209 1.355 . S
N208 C211 1.311 . S
C209 N208 1.355 . S
C209 C210 1.363 . S
C209 H221 0.929 . S
C210 C209 1.363 . S
C210 N212 1.375 . S
C210 H228 0.931 . S
C211 N208 1.311 . S
C211 N212 1.347 . S
C211 H222 0.929 . S
N212 C210 1.375 . S
N212 C211 1.347 . S
C213 C216 1.365 . S
C213 N218 1.328 . S
C213 H219 0.929 . S
C214 C215 1.362 . S
C214 C217 1.378 . S
C214 H229 0.929 . S
C215 C214 1.362 . S
C215 C216 1.366 . S
C216 C213 1.365 . S
C216 C215 1.366 . S
C216 H230 0.930 . S
C217 C214 1.378 . S
C217 N218 1.315 . S
C217 H220 0.930 . S
N218 Co198 2.194 . S
N218 C213 1.328 . S
N218 C217 1.315 . S
H219 C213 0.929 . S
H220 C217 0.930 . S
H221 C209 0.929 . S
H222 C211 0.929 . S
O223 Co198 2.351 . S
O223 C226 1.244 . S
O224 Co198 2.155 . S
O224 C226 1.240 . S
O225 Co198 2.096 . S
O225 C206 1.247 . S
C226 O223 1.244 . S
C226 O224 1.240 . S
H227 C201 0.931 . S
H228 C210 0.931 . S
H229 C214 0.929 . S
H230 C216 0.930 . S
Co231 N235 2.148 . S
Co231 N241 2.128 1_655 S
Co231 N251 2.194 1_655 S
Co231 O256 2.351 1_655 S
Co231 O257 2.155 . S
Co231 O258 2.096 . S
C232 N235 1.301 1_455 S
C232 N236 1.328 1_455 S
C232 H237 0.930 . S
C233 C234 1.333 . S
C233 N235 1.317 . S
C233 H238 0.930 . S
C234 C233 1.333 . S
C234 N236 1.350 . S
C234 H260 0.931 . S
N235 Co231 2.148 . S
N235 C232 1.301 1_655 S
N235 C233 1.317 . S
N236 C232 1.328 1_655 S
N236 C234 1.350 . S
H237 C232 0.930 . S
H238 C233 0.930 . S
C239 O240 1.224 . S
C239 O258 1.247 . S
O240 C239 1.224 . S
N241 Co231 2.128 1_455 S
N241 C242 1.355 . S
N241 C244 1.311 1_455 S
C242 N241 1.355 . S
C242 C243 1.363 . S
C242 H254 0.929 . S
C243 C242 1.363 . S
C243 N245 1.375 1_455 S
C243 H261 0.931 . S
C244 N241 1.311 1_655 S
C244 N245 1.347 . S
C244 H255 0.929 . S
N245 C243 1.375 1_655 S
N245 C244 1.347 . S
C246 C249 1.365 . S
C246 N251 1.328 . S
C246 H252 0.929 . S
C247 C248 1.362 . S
C247 C250 1.378 . S
C247 H262 0.929 . S
C248 C247 1.362 . S
C248 C249 1.366 . S
C249 C246 1.365 . S
C249 C248 1.366 . S
C249 H263 0.930 . S
C250 C247 1.378 . S
C250 N251 1.315 . S
C250 H253 0.930 . S
N251 Co231 2.194 1_455 S
N251 C246 1.328 . S
N251 C250 1.315 . S
H252 C246 0.929 . S
H253 C250 0.930 . S
H254 C242 0.929 . S
H255 C244 0.929 . S
O256 Co231 2.351 1_455 S
O256 C259 1.244 . S
O257 Co231 2.155 . S
O257 C259 1.240 1_655 S
O258 Co231 2.096 . S
O258 C239 1.247 . S
C259 O256 1.244 . S
C259 O257 1.240 1_455 S
H260 C234 0.931 . S
H261 C243 0.931 . S
H262 C247 0.929 . S
H263 C249 0.930 . S
H264 C272 0.929 . S
H265 C274 0.930 . S
H266 C276 0.930 . S
H267 C279 0.929 . S
H268 C282 0.930 . S
H269 C284 0.960 . S
H270 C284 0.960 . S
H271 C284 0.960 . S
C272 H264 0.929 . S
C272 C273 1.377 . S
C272 C274 1.384 . S
C273 C272 1.377 . S
C273 C279 1.390 . S
C274 H265 0.930 . S
C274 C272 1.384 . S
C274 C275 1.372 . S
C275 C274 1.372 . S
C275 C276 1.400 . S
C275 C280 1.490 . S
C276 H266 0.930 . S
C276 C275 1.400 . S
C276 C279 1.386 . S
H277 C293 0.930 . S
H278 C294 0.931 . S
C279 H267 0.929 . S
C279 C273 1.390 . S
C279 C276 1.386 . S
C280 C275 1.490 . S
C280 C282 1.395 1_556 S
C280 C283 1.403 . S
H281 C287 0.930 . S
C282 H268 0.930 . S
C282 C280 1.395 1_554 S
C282 C285 1.403 . S
C283 C280 1.403 . S
C283 C284 1.524 . S
C283 C287 1.400 . S
C284 H269 0.960 . S
C284 H270 0.960 . S
C284 H271 0.960 . S
C284 C283 1.524 . S
C285 C282 1.403 . S
C285 C286 1.392 . S
C285 C289 1.495 . S
C286 C285 1.392 . S
C286 C287 1.385 1_554 S
C286 C288 1.478 . S
C287 H281 0.930 . S
C287 C283 1.400 . S
C287 C286 1.385 1_556 S
C288 C286 1.478 . S
C288 C290 1.381 . S
C288 C294 1.383 . S
C289 C285 1.495 . S
C289 H295 0.959 . S
C289 H296 0.961 . S
C289 H297 0.960 . S
C290 C288 1.381 . S
C290 C291 1.394 . S
C290 H298 0.930 . S
C291 C290 1.394 . S
C291 C292 1.383 . S
C291 H299 0.929 . S
C292 C291 1.383 . S
C292 C293 1.377 . S
C293 H277 0.930 . S
C293 C292 1.377 . S
C293 C294 1.379 . S
C294 H278 0.931 . S
C294 C288 1.383 . S
C294 C293 1.379 . S
H295 C289 0.959 . S
H296 C289 0.961 . S
H297 C289 0.960 . S
H298 C290 0.930 . S
H299 C291 0.929 . S
H300 C308 0.929 . S
H301 C310 0.930 . S
H302 C312 0.930 . S
H303 C315 0.929 . S
H304 C318 0.930 . S
H305 C320 0.960 . S
H306 C320 0.960 . S
H307 C320 0.960 . S
C308 H300 0.929 . S
C308 C309 1.377 . S
C308 C310 1.384 . S
C309 C308 1.377 . S
C309 C315 1.390 . S
C310 H301 0.930 . S
C310 C308 1.384 . S
C310 C311 1.372 . S
C311 C310 1.372 . S
C311 C312 1.400 . S
C311 C316 1.490 . S
C312 H302 0.930 . S
C312 C311 1.400 . S
C312 C315 1.386 . S
H313 C329 0.930 . S
H314 C330 0.931 . S
C315 H303 0.929 . S
C315 C309 1.390 . S
C315 C312 1.386 . S
C316 C311 1.490 . S
C316 C318 1.395 . S
C316 C319 1.403 . S
H317 C323 0.930 . S
C318 H304 0.930 . S
C318 C316 1.395 . S
C318 C321 1.403 . S
C319 C316 1.403 . S
C319 C320 1.524 . S
C319 C323 1.400 . S
C320 H305 0.960 . S
C320 H306 0.960 . S
C320 H307 0.960 . S
C320 C319 1.524 . S
C321 C318 1.403 . S
C321 C322 1.392 . S
C321 C325 1.495 . S
C322 C321 1.392 . S
C322 C323 1.385 . S
C322 C324 1.478 . S
C323 H317 0.930 . S
C323 C319 1.400 . S
C323 C322 1.385 . S
C324 C322 1.478 . S
C324 C326 1.381 . S
C324 C330 1.383 . S
C325 C321 1.495 . S
C325 H331 0.959 . S
C325 H332 0.961 . S
C325 H333 0.960 . S
C326 C324 1.381 . S
C326 C327 1.394 . S
C326 H334 0.930 . S
C327 C326 1.394 . S
C327 C328 1.383 . S
C327 H335 0.929 . S
C328 C327 1.383 . S
C328 C329 1.377 . S
C329 H313 0.930 . S
C329 C328 1.377 . S
C329 C330 1.379 . S
C330 H314 0.931 . S
C330 C324 1.383 . S
C330 C329 1.379 . S
H331 C325 0.959 . S
H332 C325 0.961 . S
H333 C325 0.960 . S
H334 C326 0.930 . S
H335 C327 0.929 . S
H336 C344 0.929 . S
H337 C346 0.930 . S
H338 C348 0.930 . S
H339 C351 0.929 . S
H340 C354 0.930 . S
H341 C356 0.960 . S
H342 C356 0.960 . S
H343 C356 0.960 . S
C344 H336 0.929 . S
C344 C345 1.377 . S
C344 C346 1.384 . S
C345 C344 1.377 . S
C345 C351 1.390 . S
C346 H337 0.930 . S
C346 C344 1.384 . S
C346 C347 1.372 . S
C347 C346 1.372 . S
C347 C348 1.400 . S
C347 C352 1.490 . S
C348 H338 0.930 . S
C348 C347 1.400 . S
C348 C351 1.386 . S
H349 C365 0.930 . S
H350 C366 0.931 . S
C351 H339 0.929 . S
C351 C345 1.390 . S
C351 C348 1.386 . S
C352 C347 1.490 . S
C352 C354 1.395 . S
C352 C355 1.403 1_554 S
H353 C359 0.930 . S
C354 H340 0.930 . S
C354 C352 1.395 . S
C354 C357 1.403 . S
C355 C352 1.403 1_556 S
C355 C356 1.524 . S
C355 C359 1.400 . S
C356 H341 0.960 . S
C356 H342 0.960 . S
C356 H343 0.960 . S
C356 C355 1.524 . S
C357 C354 1.403 . S
C357 C358 1.392 1_554 S
C357 C361 1.495 . S
C358 C357 1.392 1_556 S
C358 C359 1.385 . S
C358 C360 1.478 . S
C359 H353 0.930 . S
C359 C355 1.400 . S
C359 C358 1.385 . S
C360 C358 1.478 . S
C360 C362 1.381 . S
C360 C366 1.383 . S
C361 C357 1.495 . S
C361 H367 0.959 . S
C361 H368 0.961 . S
C361 H369 0.960 . S
C362 C360 1.381 . S
C362 C363 1.394 . S
C362 H370 0.930 . S
C363 C362 1.394 . S
C363 C364 1.383 . S
C363 H371 0.929 . S
C364 C363 1.383 . S
C364 C365 1.377 . S
C365 H349 0.930 . S
C365 C364 1.377 . S
C365 C366 1.379 . S
C366 H350 0.931 . S
C366 C360 1.383 . S
C366 C365 1.379 . S
H367 C361 0.959 . S
H368 C361 0.961 . S
H369 C361 0.960 . S
H370 C362 0.930 . S
H371 C363 0.929 . S
H372 C380 0.929 . S
H373 C382 0.930 . S
H374 C384 0.930 . S
H375 C387 0.929 . S
H376 C390 0.930 . S
H377 C392 0.960 . S
H378 C392 0.960 . S
H379 C392 0.960 . S
C380 H372 0.929 . S
C380 C381 1.377 . S
C380 C382 1.384 . S
C381 C380 1.377 . S
C381 C387 1.390 . S
C382 H373 0.930 . S
C382 C380 1.384 . S
C382 C383 1.372 . S
C383 C382 1.372 . S
C383 C384 1.400 . S
C383 C388 1.490 . S
C384 H374 0.930 . S
C384 C383 1.400 . S
C384 C387 1.386 . S
H385 C401 0.930 . S
H386 C402 0.931 . S
C387 H375 0.929 . S
C387 C381 1.390 . S
C387 C384 1.386 . S
C388 C383 1.490 . S
C388 C390 1.395 . S
C388 C391 1.403 . S
H389 C395 0.930 . S
C390 H376 0.930 . S
C390 C388 1.395 . S
C390 C393 1.403 . S
C391 C388 1.403 . S
C391 C392 1.524 . S
C391 C395 1.400 . S
C392 H377 0.960 . S
C392 H378 0.960 . S
C392 H379 0.960 . S
C392 C391 1.524 . S
C393 C390 1.403 . S
C393 C394 1.392 . S
C393 C397 1.495 . S
C394 C393 1.392 . S
C394 C395 1.385 . S
C394 C396 1.478 . S
C395 H389 0.930 . S
C395 C391 1.400 . S
C395 C394 1.385 . S
C396 C394 1.478 . S
C396 C398 1.381 . S
C396 C402 1.383 . S
C397 C393 1.495 . S
C397 H403 0.959 . S
C397 H404 0.961 . S
C397 H405 0.960 . S
C398 C396 1.381 . S
C398 C399 1.394 . S
C398 H406 0.930 . S
C399 C398 1.394 . S
C399 C400 1.383 . S
C399 H407 0.929 . S
C400 C399 1.383 . S
C400 C401 1.377 . S
C401 H385 0.930 . S
C401 C400 1.377 . S
C401 C402 1.379 . S
C402 H386 0.931 . S
C402 C396 1.383 . S
C402 C401 1.379 . S
H403 C397 0.959 . S
H404 C397 0.961 . S
H405 C397 0.960 . S
H406 C398 0.930 . S
H407 C399 0.929 . S
H408 C416 0.929 . S
H409 C418 0.930 . S
H410 C420 0.930 . S
H411 C423 0.929 . S
H412 C426 0.930 . S
H413 C428 0.960 . S
H414 C428 0.960 . S
H415 C428 0.960 . S
C416 H408 0.929 . S
C416 C417 1.377 . S
C416 C418 1.384 . S
C417 C416 1.377 . S
C417 C423 1.390 . S
C418 H409 0.930 . S
C418 C416 1.384 . S
C418 C419 1.372 . S
C419 C418 1.372 . S
C419 C420 1.400 . S
C419 C424 1.490 . S
C420 H410 0.930 . S
C420 C419 1.400 . S
C420 C423 1.386 . S
H421 C437 0.930 . S
H422 C438 0.931 . S
C423 H411 0.929 . S
C423 C417 1.390 . S
C423 C420 1.386 . S
C424 C419 1.490 . S
C424 C426 1.395 . S
C424 C427 1.403 1_554 S
H425 C431 0.930 . S
C426 H412 0.930 . S
C426 C424 1.395 . S
C426 C429 1.403 . S
C427 C424 1.403 1_556 S
C427 C428 1.524 . S
C427 C431 1.400 . S
C428 H413 0.960 . S
C428 H414 0.960 . S
C428 H415 0.960 . S
C428 C427 1.524 . S
C429 C426 1.403 . S
C429 C430 1.392 1_554 S
C429 C433 1.495 . S
C430 C429 1.392 1_556 S
C430 C431 1.385 . S
C430 C432 1.478 . S
C431 H425 0.930 . S
C431 C427 1.400 . S
C431 C430 1.385 . S
C432 C430 1.478 . S
C432 C434 1.381 . S
C432 C438 1.383 . S
C433 C429 1.495 . S
C433 H439 0.959 . S
C433 H440 0.961 . S
C433 H441 0.960 . S
C434 C432 1.381 . S
C434 C435 1.394 . S
C434 H442 0.930 . S
C435 C434 1.394 . S
C435 C436 1.383 . S
C435 H443 0.929 . S
C436 C435 1.383 . S
C436 C437 1.377 . S
C437 H421 0.930 . S
C437 C436 1.377 . S
C437 C438 1.379 . S
C438 H422 0.931 . S
C438 C432 1.383 . S
C438 C437 1.379 . S
H439 C433 0.959 . S
H440 C433 0.961 . S
H441 C433 0.960 . S
H442 C434 0.930 . S
H443 C435 0.929 . S
H444 C452 0.929 . S
H445 C454 0.930 . S
H446 C456 0.930 . S
H447 C459 0.929 . S
H448 C462 0.930 . S
H449 C464 0.960 . S
H450 C464 0.960 . S
H451 C464 0.960 . S
C452 H444 0.929 . S
C452 C453 1.377 . S
C452 C454 1.384 . S
C453 C452 1.377 . S
C453 C459 1.390 . S
C454 H445 0.930 . S
C454 C452 1.384 . S
C454 C455 1.372 . S
C455 C454 1.372 . S
C455 C456 1.400 . S
C455 C460 1.490 . S
C456 H446 0.930 . S
C456 C455 1.400 . S
C456 C459 1.386 . S
H457 C473 0.930 . S
H458 C474 0.931 . S
C459 H447 0.929 . S
C459 C453 1.390 . S
C459 C456 1.386 . S
C460 C455 1.490 . S
C460 C462 1.395 . S
C460 C463 1.403 . S
H461 C467 0.930 . S
C462 H448 0.930 . S
C462 C460 1.395 . S
C462 C465 1.403 . S
C463 C460 1.403 . S
C463 C464 1.524 . S
C463 C467 1.400 . S
C464 H449 0.960 . S
C464 H450 0.960 . S
C464 H451 0.960 . S
C464 C463 1.524 . S
C465 C462 1.403 . S
C465 C466 1.392 . S
C465 C469 1.495 . S
C466 C465 1.392 . S
C466 C467 1.385 . S
C466 C468 1.478 . S
C467 H461 0.930 . S
C467 C463 1.400 . S
C467 C466 1.385 . S
C468 C466 1.478 . S
C468 C470 1.381 . S
C468 C474 1.383 . S
C469 C465 1.495 . S
C469 H475 0.959 . S
C469 H476 0.961 . S
C469 H477 0.960 . S
C470 C468 1.381 . S
C470 C471 1.394 . S
C470 H478 0.930 . S
C471 C470 1.394 . S
C471 C472 1.383 . S
C471 H479 0.929 . S
C472 C471 1.383 . S
C472 C473 1.377 . S
C473 H457 0.930 . S
C473 C472 1.377 . S
C473 C474 1.379 . S
C474 H458 0.931 . S
C474 C468 1.383 . S
C474 C473 1.379 . S
H475 C469 0.959 . S
H476 C469 0.961 . S
H477 C469 0.960 . S
H478 C470 0.930 . S
H479 C471 0.929 . S
H480 C488 0.929 . S
H481 C490 0.930 . S
H482 C492 0.930 . S
H483 C495 0.929 . S
H484 C498 0.930 . S
H485 C500 0.960 . S
H486 C500 0.960 . S
H487 C500 0.960 . S
C488 H480 0.929 . S
C488 C489 1.377 . S
C488 C490 1.384 . S
C489 C488 1.377 . S
C489 C495 1.390 . S
C490 H481 0.930 . S
C490 C488 1.384 . S
C490 C491 1.372 . S
C491 C490 1.372 . S
C491 C492 1.400 . S
C491 C496 1.490 . S
C492 H482 0.930 . S
C492 C491 1.400 . S
C492 C495 1.386 . S
H493 C509 0.930 . S
H494 C510 0.931 . S
C495 H483 0.929 . S
C495 C489 1.390 . S
C495 C492 1.386 . S
C496 C491 1.490 . S
C496 C498 1.395 1_554 S
C496 C499 1.403 . S
H497 C503 0.930 . S
C498 H484 0.930 . S
C498 C496 1.395 1_556 S
C498 C501 1.403 . S
C499 C496 1.403 . S
C499 C500 1.524 . S
C499 C503 1.400 . S
C500 H485 0.960 . S
C500 H486 0.960 . S
C500 H487 0.960 . S
C500 C499 1.524 . S
C501 C498 1.403 . S
C501 C502 1.392 . S
C501 C505 1.495 . S
C502 C501 1.392 . S
C502 C503 1.385 1_556 S
C502 C504 1.478 . S
C503 H497 0.930 . S
C503 C499 1.400 . S
C503 C502 1.385 1_554 S
C504 C502 1.478 . S
C504 C506 1.381 . S
C504 C510 1.383 . S
C505 C501 1.495 . S
C505 H511 0.959 . S
C505 H512 0.961 . S
C505 H513 0.960 . S
C506 C504 1.381 . S
C506 C507 1.394 . S
C506 H514 0.930 . S
C507 C506 1.394 . S
C507 C508 1.383 . S
C507 H515 0.929 . S
C508 C507 1.383 . S
C508 C509 1.377 . S
C509 H493 0.930 . S
C509 C508 1.377 . S
C509 C510 1.379 . S
C510 H494 0.931 . S
C510 C504 1.383 . S
C510 C509 1.379 . S
H511 C505 0.959 . S
H512 C505 0.961 . S
H513 C505 0.960 . S
H514 C506 0.930 . S
H515 C507 0.929 . S
H516 C524 0.929 . S
H517 C526 0.930 . S
H518 C528 0.930 . S
H519 C531 0.929 . S
H520 C534 0.930 . S
H521 C536 0.960 . S
H522 C536 0.960 . S
H523 C536 0.960 . S
C524 H516 0.929 . S
C524 C525 1.377 . S
C524 C526 1.384 . S
C525 C524 1.377 . S
C525 C531 1.390 . S
C526 H517 0.930 . S
C526 C524 1.384 . S
C526 C527 1.372 . S
C527 C526 1.372 . S
C527 C528 1.400 . S
C527 C532 1.490 . S
C528 H518 0.930 . S
C528 C527 1.400 . S
C528 C531 1.386 . S
H529 C545 0.930 . S
H530 C546 0.931 . S
C531 H519 0.929 . S
C531 C525 1.390 . S
C531 C528 1.386 . S
C532 C527 1.490 . S
C532 C534 1.395 . S
C532 C535 1.403 . S
H533 C539 0.930 . S
C534 H520 0.930 . S
C534 C532 1.395 . S
C534 C537 1.403 . S
C535 C532 1.403 . S
C535 C536 1.524 . S
C535 C539 1.400 . S
C536 H521 0.960 . S
C536 H522 0.960 . S
C536 H523 0.960 . S
C536 C535 1.524 . S
C537 C534 1.403 . S
C537 C538 1.392 . S
C537 C541 1.495 . S
C538 C537 1.392 . S
C538 C539 1.385 . S
C538 C540 1.478 . S
C539 H533 0.930 . S
C539 C535 1.400 . S
C539 C538 1.385 . S
C540 C538 1.478 . S
C540 C542 1.381 . S
C540 C546 1.383 . S
C541 C537 1.495 . S
C541 H547 0.959 . S
C541 H548 0.961 . S
C541 H549 0.960 . S
C542 C540 1.381 . S
C542 C543 1.394 . S
C542 H550 0.930 . S
C543 C542 1.394 . S
C543 C544 1.383 . S
C543 H551 0.929 . S
C544 C543 1.383 . S
C544 C545 1.377 . S
C545 H529 0.930 . S
C545 C544 1.377 . S
C545 C546 1.379 . S
C546 H530 0.931 . S
C546 C540 1.383 . S
C546 C545 1.379 . S
H547 C541 0.959 . S
H548 C541 0.961 . S
H549 C541 0.960 . S
H550 C542 0.930 . S
H551 C543 0.929 . S
H552 C560 0.929 . S
H553 C562 0.927 1_655 S
H554 C564 0.930 . S
H555 C567 0.929 . S
H556 C570 0.930 . S
H557 C572 0.960 . S
H558 C572 0.960 . S
H559 C572 0.960 . S
C560 H552 0.929 . S
C560 C561 1.377 . S
C560 C562 1.384 . S
C561 C560 1.377 . S
C561 C567 1.390 . S
C562 H553 0.927 1_455 S
C562 C560 1.384 . S
C562 C563 1.372 . S
C563 C562 1.372 . S
C563 C564 1.400 . S
C563 C568 1.490 . S
C564 H554 0.930 . S
C564 C563 1.400 . S
C564 C567 1.386 . S
H565 C581 0.930 . S
H566 C582 0.931 . S
C567 H555 0.929 . S
C567 C561 1.390 . S
C567 C564 1.386 . S
C568 C563 1.490 . S
C568 C570 1.395 1_455 S
C568 C571 1.403 . S
H569 C575 0.930 . S
C570 H556 0.930 . S
C570 C568 1.395 1_655 S
C570 C573 1.403 . S
C571 C568 1.403 . S
C571 C572 1.524 . S
C571 C575 1.400 . S
C572 H557 0.960 . S
C572 H558 0.960 . S
C572 H559 0.960 . S
C572 C571 1.524 . S
C573 C570 1.403 . S
C573 C574 1.392 . S
C573 C577 1.495 . S
C574 C573 1.392 . S
C574 C575 1.385 1_655 S
C574 C576 1.478 . S
C575 H569 0.930 . S
C575 C571 1.400 . S
C575 C574 1.385 1_455 S
C576 C574 1.478 . S
C576 C578 1.381 . S
C576 C582 1.383 . S
C577 C573 1.495 . S
C577 H583 0.959 . S
C577 H584 0.961 . S
C577 H585 0.960 . S
C578 C576 1.381 . S
C578 C579 1.394 . S
C578 H586 0.930 . S
C579 C578 1.394 . S
C579 C580 1.382 1_655 S
C579 H587 0.929 . S
C580 C579 1.382 1_455 S
C580 C581 1.377 . S
C581 H565 0.930 . S
C581 C580 1.377 . S
C581 C582 1.379 1_455 S
C582 H566 0.931 . S
C582 C576 1.383 . S
C582 C581 1.379 1_655 S
H583 C577 0.959 . S
H584 C577 0.961 . S
H585 C577 0.960 . S
H586 C578 0.930 . S
H587 C579 0.929 . S
H588 C596 0.929 . S
H589 C598 0.930 . S
H590 C600 0.930 . S
H591 C603 0.929 . S
H592 C606 0.930 . S
H593 C608 0.960 . S
H594 C608 0.960 . S
H595 C608 0.960 . S
C596 H588 0.929 . S
C596 C597 1.377 . S
C596 C598 1.384 . S
C597 C596 1.377 . S
C597 C603 1.390 . S
C598 H589 0.930 . S
C598 C596 1.384 . S
C598 C599 1.372 . S
C599 C598 1.372 . S
C599 C600 1.400 . S
C599 C604 1.490 . S
C600 H590 0.930 . S
C600 C599 1.400 . S
C600 C603 1.386 . S
H601 C617 0.930 . S
H602 C618 0.931 . S
C603 H591 0.929 . S
C603 C597 1.390 . S
C603 C600 1.386 . S
C604 C599 1.490 . S
C604 C606 1.395 . S
C604 C607 1.403 . S
H605 C611 0.930 . S
C606 H592 0.930 . S
C606 C604 1.395 . S
C606 C609 1.403 . S
C607 C604 1.403 . S
C607 C608 1.524 . S
C607 C611 1.400 . S
C608 H593 0.960 . S
C608 H594 0.960 . S
C608 H595 0.960 . S
C608 C607 1.524 . S
C609 C606 1.403 . S
C609 C610 1.392 . S
C609 C613 1.495 . S
C610 C609 1.392 . S
C610 C611 1.385 . S
C610 C612 1.478 . S
C611 H605 0.930 . S
C611 C607 1.400 . S
C611 C610 1.385 . S
C612 C610 1.478 . S
C612 C614 1.381 . S
C612 C618 1.383 . S
C613 C609 1.495 . S
C613 H619 0.959 . S
C613 H620 0.961 . S
C613 H621 0.960 . S
C614 C612 1.381 . S
C614 C615 1.394 . S
C614 H622 0.930 . S
C615 C614 1.394 . S
C615 C616 1.383 . S
C615 H623 0.929 . S
C616 C615 1.383 . S
C616 C617 1.377 . S
C617 H601 0.930 . S
C617 C616 1.377 . S
C617 C618 1.379 . S
C618 H602 0.931 . S
C618 C612 1.383 . S
C618 C617 1.379 . S
H619 C613 0.959 . S
H620 C613 0.961 . S
H621 C613 0.960 . S
H622 C614 0.930 . S
H623 C615 0.929 . S
H624 C632 0.929 . S
H625 C634 0.930 . S
H626 C636 0.930 . S
H627 C639 0.929 . S
H628 C642 0.930 . S
H629 C644 0.960 . S
H630 C644 0.960 . S
H631 C644 0.960 . S
C632 H624 0.929 . S
C632 C633 1.377 . S
C632 C634 1.384 . S
C633 C632 1.377 . S
C633 C639 1.390 . S
C634 H625 0.930 . S
C634 C632 1.384 . S
C634 C635 1.372 . S
C635 C634 1.372 . S
C635 C636 1.400 . S
C635 C640 1.490 . S
C636 H626 0.930 . S
C636 C635 1.400 . S
C636 C639 1.386 . S
H637 C653 0.930 . S
H638 C654 0.931 . S
C639 H627 0.929 . S
C639 C633 1.390 . S
C639 C636 1.386 . S
C640 C635 1.490 . S
C640 C642 1.395 . S
C640 C643 1.403 1_455 S
H641 C647 0.930 . S
C642 H628 0.930 . S
C642 C640 1.395 . S
C642 C645 1.403 . S
C643 C640 1.403 1_655 S
C643 C644 1.524 . S
C643 C647 1.400 . S
C644 H629 0.960 . S
C644 H630 0.960 . S
C644 H631 0.960 . S
C644 C643 1.524 . S
C645 C642 1.403 . S
C645 C646 1.392 . S
C645 C649 1.495 . S
C646 C645 1.392 . S
C646 C647 1.385 1_455 S
C646 C648 1.478 . S
C647 H641 0.930 . S
C647 C643 1.400 . S
C647 C646 1.385 1_655 S
C648 C646 1.478 . S
C648 C650 1.381 . S
C648 C654 1.383 . S
C649 C645 1.495 . S
C649 H655 0.959 . S
C649 H656 0.961 . S
C649 H657 0.960 . S
C650 C648 1.381 . S
C650 C651 1.394 . S
C650 H658 0.930 . S
C651 C650 1.394 . S
C651 C652 1.383 . S
C651 H659 0.929 . S
C652 C651 1.383 . S
C652 C653 1.377 . S
C653 H637 0.930 . S
C653 C652 1.377 . S
C653 C654 1.379 . S
C654 H638 0.931 . S
C654 C648 1.383 . S
C654 C653 1.379 . S
H655 C649 0.959 . S
H656 C649 0.961 . S
H657 C649 0.960 . S
H658 C650 0.930 . S
H659 C651 0.929 . S
H660 C668 0.929 . S
H661 C670 0.930 . S
H662 C672 0.930 . S
H663 C675 0.929 . S
H664 C678 0.930 . S
H665 C680 0.960 . S
H666 C680 0.960 . S
H667 C680 0.960 . S
C668 H660 0.929 . S
C668 C669 1.377 . S
C668 C670 1.384 . S
C669 C668 1.377 . S
C669 C675 1.390 . S
C670 H661 0.930 . S
C670 C668 1.384 . S
C670 C671 1.372 . S
C671 C670 1.372 . S
C671 C672 1.400 . S
C671 C676 1.490 . S
C672 H662 0.930 . S
C672 C671 1.400 . S
C672 C675 1.386 . S
H673 C689 0.930 . S
H674 C690 0.931 . S
C675 H663 0.929 . S
C675 C669 1.390 . S
C675 C672 1.386 . S
C676 C671 1.490 . S
C676 C678 1.395 . S
C676 C679 1.403 . S
H677 C683 0.930 . S
C678 H664 0.930 . S
C678 C676 1.395 . S
C678 C681 1.403 . S
C679 C676 1.403 . S
C679 C680 1.524 . S
C679 C683 1.400 . S
C680 H665 0.960 . S
C680 H666 0.960 . S
C680 H667 0.960 . S
C680 C679 1.524 . S
C681 C678 1.403 . S
C681 C682 1.392 . S
C681 C685 1.495 . S
C682 C681 1.392 . S
C682 C683 1.385 . S
C682 C684 1.478 . S
C683 H677 0.930 . S
C683 C679 1.400 . S
C683 C682 1.385 . S
C684 C682 1.478 . S
C684 C686 1.381 . S
C684 C690 1.383 . S
C685 C681 1.495 . S
C685 H691 0.959 . S
C685 H692 0.961 . S
C685 H693 0.960 . S
C686 C684 1.381 . S
C686 C687 1.394 . S
C686 H694 0.930 . S
C687 C686 1.394 . S
C687 C688 1.383 . S
C687 H695 0.929 . S
C688 C687 1.383 . S
C688 C689 1.377 . S
C689 H673 0.930 . S
C689 C688 1.377 . S
C689 C690 1.379 . S
C690 H674 0.931 . S
C690 C684 1.383 . S
C690 C689 1.379 . S
H691 C685 0.959 . S
H692 C685 0.961 . S
H693 C685 0.960 . S
H694 C686 0.930 . S
H695 C687 0.929 . S
H696 C704 0.929 . S
H697 C706 0.930 . S
H698 C708 0.930 . S
H699 C711 0.929 . S
H700 C714 0.930 . S
H701 C716 0.960 . S
H702 C716 0.960 . S
H703 C716 0.960 . S
C704 H696 0.929 . S
C704 C705 1.377 . S
C704 C706 1.384 . S
C705 C704 1.377 . S
C705 C711 1.390 . S
C706 H697 0.930 . S
C706 C704 1.384 . S
C706 C707 1.372 . S
C707 C706 1.372 . S
C707 C708 1.400 . S
C707 C712 1.490 . S
C708 H698 0.930 . S
C708 C707 1.400 . S
C708 C711 1.386 . S
H709 C725 0.930 . S
H710 C726 0.931 . S
C711 H699 0.929 . S
C711 C705 1.390 . S
C711 C708 1.386 . S
C712 C707 1.490 . S
C712 C714 1.395 . S
C712 C715 1.403 1_565 S
H713 C719 0.930 . S
C714 H700 0.930 . S
C714 C712 1.395 . S
C714 C717 1.403 . S
C715 C712 1.403 1_545 S
C715 C716 1.524 . S
C715 C719 1.400 . S
C716 H701 0.960 . S
C716 H702 0.960 . S
C716 H703 0.960 . S
C716 C715 1.524 . S
C717 C714 1.403 . S
C717 C718 1.392 1_565 S
C717 C721 1.495 . S
C718 C717 1.392 1_545 S
C718 C719 1.385 . S
C718 C720 1.478 . S
C719 H713 0.930 . S
C719 C715 1.400 . S
C719 C718 1.385 . S
C720 C718 1.478 . S
C720 C722 1.381 . S
C720 C726 1.383 . S
C721 C717 1.495 . S
C721 H727 0.959 . S
C721 H728 0.961 1_565 S
C721 H729 0.960 . S
C722 C720 1.381 . S
C722 C723 1.394 . S
C722 H730 0.930 . S
C723 C722 1.394 . S
C723 C724 1.383 . S
C723 H731 0.929 . S
C724 C723 1.383 . S
C724 C725 1.377 . S
C725 H709 0.930 . S
C725 C724 1.377 . S
C725 C726 1.379 . S
C726 H710 0.931 . S
C726 C720 1.383 . S
C726 C725 1.379 . S
H727 C721 0.959 . S
H728 C721 0.961 1_545 S
H729 C721 0.960 . S
H730 C722 0.930 . S
H731 C723 0.929 . S
H732 C740 0.929 . S
H733 C742 0.930 . S
H734 C744 0.930 . S
H735 C747 0.929 . S
H736 C750 0.930 . S
H737 C752 0.960 . S
H738 C752 0.960 . S
H739 C752 0.960 1_655 S
C740 H732 0.929 . S
C740 C741 1.377 . S
C740 C742 1.384 . S
C741 C740 1.377 . S
C741 C747 1.390 1_455 S
C742 H733 0.930 . S
C742 C740 1.384 . S
C742 C743 1.372 . S
C743 C742 1.372 . S
C743 C744 1.400 1_455 S
C743 C748 1.490 . S
C744 H734 0.930 . S
C744 C743 1.400 1_655 S
C744 C747 1.386 . S
H745 C761 0.930 . S
H746 C762 0.931 . S
C747 H735 0.929 . S
C747 C741 1.390 1_655 S
C747 C744 1.386 . S
C748 C743 1.490 . S
C748 C750 1.395 . S
C748 C751 1.403 1_565 S
H749 C755 0.930 . S
C750 H736 0.930 . S
C750 C748 1.395 . S
C750 C753 1.403 . S
C751 C748 1.403 1_545 S
C751 C752 1.524 . S
C751 C755 1.400 . S
C752 H737 0.960 . S
C752 H738 0.960 . S
C752 H739 0.960 1_455 S
C752 C751 1.524 . S
C753 C750 1.403 . S
C753 C754 1.392 1_565 S
C753 C757 1.495 . S
C754 C753 1.392 1_545 S
C754 C755 1.385 . S
C754 C756 1.478 . S
C755 H749 0.930 . S
C755 C751 1.400 . S
C755 C754 1.385 . S
C756 C754 1.478 . S
C756 C758 1.381 . S
C756 C762 1.383 1_455 S
C757 C753 1.495 . S
C757 H763 0.960 . S
C757 H764 0.961 1_455 S
C757 H765 0.960 . S
C758 C756 1.381 . S
C758 C759 1.394 . S
C758 H766 0.930 . S
C759 C758 1.394 . S
C759 C760 1.383 . S
C759 H767 0.929 . S
C760 C759 1.383 . S
C760 C761 1.377 1_455 S
C761 H745 0.930 . S
C761 C760 1.377 1_655 S
C761 C762 1.379 . S
C762 H746 0.931 . S
C762 C756 1.383 1_655 S
C762 C761 1.379 . S
H763 C757 0.960 . S
H764 C757 0.961 1_655 S
H765 C757 0.960 . S
H766 C758 0.930 . S
H767 C759 0.929 . S
H768 C776 0.929 . S
H769 C778 0.930 . S
H770 C780 0.930 . S
H771 C783 0.929 . S
H772 C786 0.930 . S
H773 C788 0.960 . S
H774 C788 0.960 . S
H775 C788 0.960 . S
C776 H768 0.929 . S
C776 C777 1.377 . S
C776 C778 1.384 . S
C777 C776 1.377 . S
C777 C783 1.390 . S
C778 H769 0.930 . S
C778 C776 1.384 . S
C778 C779 1.372 . S
C779 C778 1.372 . S
C779 C780 1.400 . S
C779 C784 1.490 . S
C780 H770 0.930 . S
C780 C779 1.400 . S
C780 C783 1.386 . S
H781 C797 0.930 . S
H782 C798 0.931 . S
C783 H771 0.929 . S
C783 C777 1.390 . S
C783 C780 1.386 . S
C784 C779 1.490 . S
C784 C786 1.395 . S
C784 C787 1.403 . S
H785 C791 0.930 . S
C786 H772 0.930 . S
C786 C784 1.395 . S
C786 C789 1.403 1_565 S
C787 C784 1.403 . S
C787 C788 1.524 . S
C787 C791 1.400 1_565 S
C788 H773 0.960 . S
C788 H774 0.960 . S
C788 H775 0.960 . S
C788 C787 1.524 . S
C789 C786 1.403 1_545 S
C789 C790 1.392 . S
C789 C793 1.495 . S
C790 C789 1.392 . S
C790 C791 1.385 . S
C790 C792 1.478 . S
C791 H785 0.930 . S
C791 C787 1.400 1_545 S
C791 C790 1.385 . S
C792 C790 1.478 . S
C792 C794 1.381 . S
C792 C798 1.383 . S
C793 C789 1.495 . S
C793 H799 0.959 . S
C793 H800 0.961 . S
C793 H801 0.960 . S
C794 C792 1.381 . S
C794 C795 1.394 . S
C794 H802 0.930 . S
C795 C794 1.394 . S
C795 C796 1.383 . S
C795 H803 0.929 . S
C796 C795 1.383 . S
C796 C797 1.377 . S
C797 H781 0.930 . S
C797 C796 1.377 . S
C797 C798 1.379 . S
C798 H782 0.931 . S
C798 C792 1.383 . S
C798 C797 1.379 . S
H799 C793 0.959 . S
H800 C793 0.961 . S
H801 C793 0.960 . S
H802 C794 0.930 . S
H803 C795 0.929 . S
H804 C812 0.929 . S
H805 C814 0.930 . S
H806 C816 0.930 . S
H807 C819 0.929 . S
H808 C822 0.930 . S
H809 C824 0.960 . S
H810 C824 0.960 . S
H811 C824 0.960 . S
C812 H804 0.929 . S
C812 C813 1.377 . S
C812 C814 1.384 . S
C813 C812 1.377 . S
C813 C819 1.390 1_455 S
C814 H805 0.930 . S
C814 C812 1.384 . S
C814 C815 1.372 . S
C815 C814 1.372 . S
C815 C816 1.400 1_455 S
C815 C820 1.490 . S
C816 H806 0.930 . S
C816 C815 1.400 1_655 S
C816 C819 1.386 . S
H817 C833 0.930 1_655 S
H818 C834 0.931 . S
C819 H807 0.929 . S
C819 C813 1.390 1_655 S
C819 C816 1.386 . S
C820 C815 1.490 . S
C820 C822 1.395 . S
C820 C823 1.403 1_455 S
H821 C827 0.930 . S
C822 H808 0.930 . S
C822 C820 1.395 . S
C822 C825 1.403 1_545 S
C823 C820 1.403 1_655 S
C823 C824 1.524 . S
C823 C827 1.400 1_545 S
C824 H809 0.960 . S
C824 H810 0.960 . S
C824 H811 0.960 . S
C824 C823 1.524 . S
C825 C822 1.403 1_565 S
C825 C826 1.392 . S
C825 C829 1.495 . S
C826 C825 1.392 . S
C826 C827 1.385 1_455 S
C826 C828 1.478 . S
C827 H821 0.930 . S
C827 C823 1.400 1_565 S
C827 C826 1.385 1_655 S
C828 C826 1.478 . S
C828 C830 1.381 . S
C828 C834 1.383 . S
C829 C825 1.495 . S
C829 H835 0.959 . S
C829 H836 0.961 . S
C829 H837 0.960 . S
C830 C828 1.381 . S
C830 C831 1.394 . S
C830 H838 0.930 . S
C831 C830 1.394 . S
C831 C832 1.383 . S
C831 H839 0.929 . S
C832 C831 1.383 . S
C832 C833 1.377 . S
C833 H817 0.930 1_455 S
C833 C832 1.377 . S
C833 C834 1.379 . S
C834 H818 0.931 . S
C834 C828 1.383 . S
C834 C833 1.379 . S
H835 C829 0.959 . S
H836 C829 0.961 . S
H837 C829 0.960 . S
H838 C830 0.930 . S
H839 C831 0.929 . S
H840 C848 0.929 . S
H841 C850 0.930 . S
H842 C852 0.930 . S
H843 C855 0.929 . S
H844 C858 0.930 . S
H845 C860 0.960 . S
H846 C860 0.960 . S
H847 C860 0.960 . S
C848 H840 0.929 . S
C848 C849 1.377 . S
C848 C850 1.384 . S
C849 C848 1.377 . S
C849 C855 1.390 1_455 S
C850 H841 0.930 . S
C850 C848 1.384 . S
C850 C851 1.372 . S
C851 C850 1.372 . S
C851 C852 1.400 1_455 S
C851 C856 1.490 . S
C852 H842 0.930 . S
C852 C851 1.400 1_655 S
C852 C855 1.386 . S
H853 C869 0.930 . S
H854 C870 0.931 . S
C855 H843 0.929 . S
C855 C849 1.390 1_655 S
C855 C852 1.386 . S
C856 C851 1.490 . S
C856 C858 1.395 1_556 S
C856 C859 1.403 . S
H857 C863 0.930 . S
C858 H844 0.930 . S
C858 C856 1.395 1_554 S
C858 C861 1.403 . S
C859 C856 1.403 . S
C859 C860 1.524 . S
C859 C863 1.400 . S
C860 H845 0.960 . S
C860 H846 0.960 . S
C860 H847 0.960 . S
C860 C859 1.524 . S
C861 C858 1.403 . S
C861 C862 1.392 . S
C861 C865 1.495 . S
C862 C861 1.392 . S
C862 C863 1.385 1_554 S
C862 C864 1.478 . S
C863 H857 0.930 . S
C863 C859 1.400 . S
C863 C862 1.385 1_556 S
C864 C862 1.478 . S
C864 C866 1.381 . S
C864 C870 1.383 1_455 S
C865 C861 1.495 . S
C865 H871 0.959 . S
C865 H872 0.961 . S
C865 H873 0.960 . S
C866 C864 1.381 . S
C866 C867 1.394 . S
C866 H874 0.930 . S
C867 C866 1.394 . S
C867 C868 1.383 . S
C867 H875 0.929 . S
C868 C867 1.383 . S
C868 C869 1.377 1_455 S
C869 H853 0.930 . S
C869 C868 1.377 1_655 S
C869 C870 1.379 . S
C870 H854 0.931 . S
C870 C864 1.383 1_655 S
C870 C869 1.379 . S
H871 C865 0.959 . S
H872 C865 0.961 . S
H873 C865 0.960 . S
H874 C866 0.930 . S
H875 C867 0.929 . S
H876 C884 0.929 . S
H877 C886 0.930 . S
H878 C888 0.930 . S
H879 C891 0.929 . S
H880 C894 0.930 . S
H881 C896 0.960 . S
H882 C896 0.960 . S
H883 C896 0.960 . S
C884 H876 0.929 . S
C884 C885 1.377 . S
C884 C886 1.384 . S
C885 C884 1.377 . S
C885 C891 1.390 . S
C886 H877 0.930 . S
C886 C884 1.384 . S
C886 C887 1.372 . S
C887 C886 1.372 . S
C887 C888 1.400 . S
C887 C892 1.490 . S
C888 H878 0.930 . S
C888 C887 1.400 . S
C888 C891 1.386 . S
H889 C905 0.930 . S
H890 C906 0.931 . S
C891 H879 0.929 . S
C891 C885 1.390 . S
C891 C888 1.386 . S
C892 C887 1.490 . S
C892 C894 1.395 . S
C892 C895 1.403 . S
H893 C899 0.930 . S
C894 H880 0.930 . S
C894 C892 1.395 . S
C894 C897 1.403 . S
C895 C892 1.403 . S
C895 C896 1.524 . S
C895 C899 1.400 . S
C896 H881 0.960 . S
C896 H882 0.960 . S
C896 H883 0.960 . S
C896 C895 1.524 . S
C897 C894 1.403 . S
C897 C898 1.392 . S
C897 C901 1.495 . S
C898 C897 1.392 . S
C898 C899 1.385 . S
C898 C900 1.478 . S
C899 H893 0.930 . S
C899 C895 1.400 . S
C899 C898 1.385 . S
C900 C898 1.478 . S
C900 C902 1.381 . S
C900 C906 1.383 . S
C901 C897 1.495 . S
C901 H907 0.959 . S
C901 H908 0.961 . S
C901 H909 0.960 . S
C902 C900 1.381 . S
C902 C903 1.394 . S
C902 H910 0.930 . S
C903 C902 1.394 . S
C903 C904 1.383 . S
C903 H911 0.929 . S
C904 C903 1.383 . S
C904 C905 1.377 . S
C905 H889 0.930 . S
C905 C904 1.377 . S
C905 C906 1.379 . S
C906 H890 0.931 . S
C906 C900 1.383 . S
C906 C905 1.379 . S
H907 C901 0.959 . S
H908 C901 0.961 . S
H909 C901 0.960 . S
H910 C902 0.930 . S
H911 C903 0.929 . S
H912 C920 0.929 . S
H913 C922 0.930 . S
H914 C924 0.930 . S
H915 C927 0.929 . S
H916 C930 0.931 . S
H917 C932 0.960 . S
H918 C932 0.934 1_556 S
H919 C932 0.960 . S
C920 H912 0.929 . S
C920 C921 1.377 . S
C920 C922 1.384 . S
C921 C920 1.377 . S
C921 C927 1.390 . S
C922 H913 0.930 . S
C922 C920 1.384 . S
C922 C923 1.372 . S
C923 C922 1.372 . S
C923 C924 1.400 . S
C923 C928 1.490 . S
C924 H914 0.930 . S
C924 C923 1.400 . S
C924 C927 1.386 . S
H925 C941 0.930 . S
H926 C942 0.931 . S
C927 H915 0.929 . S
C927 C921 1.390 . S
C927 C924 1.386 . S
C928 C923 1.490 . S
C928 C930 1.395 1_545 S
C928 C931 1.403 1_556 S
H929 C935 0.930 . S
C930 H916 0.931 . S
C930 C928 1.395 1_565 S
C930 C933 1.403 . S
C931 C928 1.403 1_554 S
C931 C932 1.524 . S
C931 C935 1.400 1_545 S
C932 H917 0.960 . S
C932 H918 0.934 1_554 S
C932 H919 0.960 . S
C932 C931 1.524 . S
C933 C930 1.403 . S
C933 C934 1.392 1_556 S
C933 C937 1.495 . S
C934 C933 1.392 1_554 S
C934 C935 1.385 . S
C934 C936 1.478 . S
C935 H929 0.930 . S
C935 C931 1.400 1_565 S
C935 C934 1.385 . S
C936 C934 1.478 . S
C936 C938 1.381 . S
C936 C942 1.383 . S
C937 C933 1.495 . S
C937 H943 0.959 . S
C937 H944 0.961 . S
C937 H945 0.960 . S
C938 C936 1.381 . S
C938 C939 1.394 . S
C938 H946 0.930 . S
C939 C938 1.394 . S
C939 C940 1.383 . S
C939 H947 0.929 . S
C940 C939 1.383 . S
C940 C941 1.377 . S
C941 H925 0.930 . S
C941 C940 1.377 . S
C941 C942 1.379 . S
C942 H926 0.931 . S
C942 C936 1.383 . S
C942 C941 1.379 . S
H943 C937 0.959 . S
H944 C937 0.961 . S
H945 C937 0.960 . S
H946 C938 0.930 . S
H947 C939 0.929 . S
H948 C956 0.929 . S
H949 C958 0.930 . S
H950 C960 0.930 . S
H951 C963 0.929 . S
H952 C966 0.930 . S
H953 C968 0.960 . S
H954 C968 0.960 . S
H955 C968 0.960 . S
C956 H948 0.929 . S
C956 C957 1.377 . S
C956 C958 1.384 . S
C957 C956 1.377 . S
C957 C963 1.390 1_655 S
C958 H949 0.930 . S
C958 C956 1.384 . S
C958 C959 1.372 . S
C959 C958 1.372 . S
C959 C960 1.400 1_655 S
C959 C964 1.490 . S
C960 H950 0.930 . S
C960 C959 1.400 1_455 S
C960 C963 1.386 . S
H961 C977 0.930 . S
H962 C978 0.931 . S
C963 H951 0.929 . S
C963 C957 1.390 1_455 S
C963 C960 1.386 . S
C964 C959 1.490 . S
C964 C966 1.395 . S
C964 C967 1.403 1_565 S
H965 C971 0.930 . S
C966 H952 0.930 . S
C966 C964 1.395 . S
C966 C969 1.403 . S
C967 C964 1.403 1_545 S
C967 C968 1.524 . S
C967 C971 1.400 . S
C968 H953 0.960 . S
C968 H954 0.960 . S
C968 H955 0.960 . S
C968 C967 1.524 . S
C969 C966 1.403 . S
C969 C970 1.392 1_565 S
C969 C973 1.495 . S
C970 C969 1.392 1_545 S
C970 C971 1.385 . S
C970 C972 1.478 . S
C971 H965 0.930 . S
C971 C967 1.400 . S
C971 C970 1.385 . S
C972 C970 1.478 . S
C972 C974 1.381 . S
C972 C978 1.383 1_655 S
C973 C969 1.495 . S
C973 H979 0.959 . S
C973 H980 0.961 1_655 S
C973 H981 0.960 . S
C974 C972 1.381 . S
C974 C975 1.394 . S
C974 H982 0.930 . S
C975 C974 1.394 . S
C975 C976 1.383 . S
C975 H983 0.929 . S
C976 C975 1.383 . S
C976 C977 1.377 1_655 S
C977 H961 0.930 . S
C977 C976 1.377 1_455 S
C977 C978 1.379 . S
C978 H962 0.931 . S
C978 C972 1.383 1_455 S
C978 C977 1.379 . S
H979 C973 0.959 . S
H980 C973 0.961 1_455 S
H981 C973 0.960 . S
H982 C974 0.930 . S
H983 C975 0.929 . S
C273 C215 1.803 . S
C292 C8 1.806 . S
C309 C41 1.804 . S
C328 C248 1.803 . S
C345 C149 1.805 . S
C364 C74 1.791 . S
C381 C107 1.808 . S
C400 C182 1.793 . S
C417 C140 1.804 . S
C436 C83 1.800 . S
C453 C173 1.808 . S
C472 C116 1.796 . S
C489 C17 1.804 . S
C508 C206 1.813 . S
C525 C50 1.805 . S
C544 C239 1.814 . S
C561 C28 2.033 . S
C580 N236 1.999 1_455 S
C597 C61 2.035 . S
C616 N203 2.015 . S
C633 N170 2.014 1_455 S
C652 C94 2.025 . S
C669 C127 2.032 . S
C688 N137 1.996 . S
C705 C160 2.035 . S
C724 N104 2.011 . S
C741 N71 2.012 . S
C760 C193 2.019 . S
C777 N38 2.017 . S
C796 C226 2.037 . S
C813 N5 2.015 . S
C832 C259 2.033 . S
C849 N80 0.988 . S
C868 N14 0.974 . S
C885 N47 0.991 . S
C904 N113 0.958 . S
C921 N212 0.976 . S
C940 N146 1.031 . S
C957 N245 0.989 . S
C976 N179 0.969 . S
