# Generated by pormake.
# Topology vcp, (7)-cn, num edge types: 1
# Building blocks:
#     Node 0, Type 0, BuildingBlock: HICVOG_clean_sbu_0, # of connection points: 7
#     Node 1, Type 0, BuildingBlock: HICVOG_clean_sbu_0, # of connection points: 7
#     Node 2, Type 0, BuildingBlock: HICVOG_clean_sbu_0, # of connection points: 7
#     Node 3, Type 0, BuildingBlock: HICVOG_clean_sbu_0, # of connection points: 7
#     Node 4, Type 0, BuildingBlock: HICVOG_clean_sbu_0, # of connection points: 7
#     Node 5, Type 0, BuildingBlock: HICVOG_clean_sbu_0, # of connection points: 7
#     Node 6, Type 0, BuildingBlock: HICVOG_clean_sbu_0, # of connection points: 7
#     Node 7, Type 0, BuildingBlock: HICVOG_clean_sbu_0, # of connection points: 7
#     Node 8, Type 0, BuildingBlock: HICVOG_clean_sbu_0, # of connection points: 7
#     Node 9, Type 0, BuildingBlock: HICVOG_clean_sbu_0, # of connection points: 7
#     Node 10, Type 0, BuildingBlock: HICVOG_clean_sbu_0, # of connection points: 7
#     Node 11, Type 0, BuildingBlock: HICVOG_clean_sbu_0, # of connection points: 7
#     Node 12, Type 0, BuildingBlock: HICVOG_clean_sbu_0, # of connection points: 7
#     Node 13, Type 0, BuildingBlock: HICVOG_clean_sbu_0, # of connection points: 7
#     Node 14, Type 0, BuildingBlock: HICVOG_clean_sbu_0, # of connection points: 7
#     Node 15, Type 0, BuildingBlock: HICVOG_clean_sbu_0, # of connection points: 7
#     Edge 16, Type (0, 0), BuildingBlock: OJICUG_clean_linker_0, # of connection points: 2
#     Edge 17, Type (0, 0), BuildingBlock: OJICUG_clean_linker_0, # of connection points: 2
#     Edge 18, Type (0, 0), BuildingBlock: OJICUG_clean_linker_0, # of connection points: 2
#     Edge 19, Type (0, 0), BuildingBlock: OJICUG_clean_linker_0, # of connection points: 2
#     Edge 20, Type (0, 0), BuildingBlock: OJICUG_clean_linker_0, # of connection points: 2
#     Edge 21, Type (0, 0), BuildingBlock: OJICUG_clean_linker_0, # of connection points: 2
#     Edge 22, Type (0, 0), BuildingBlock: OJICUG_clean_linker_0, # of connection points: 2
#     Edge 23, Type (0, 0), BuildingBlock: OJICUG_clean_linker_0, # of connection points: 2
#     Edge 24, Type (0, 0), BuildingBlock: OJICUG_clean_linker_0, # of connection points: 2
#     Edge 25, Type (0, 0), BuildingBlock: OJICUG_clean_linker_0, # of connection points: 2
#     Edge 26, Type (0, 0), BuildingBlock: OJICUG_clean_linker_0, # of connection points: 2
#     Edge 27, Type (0, 0), BuildingBlock: OJICUG_clean_linker_0, # of connection points: 2
#     Edge 28, Type (0, 0), BuildingBlock: OJICUG_clean_linker_0, # of connection points: 2
#     Edge 29, Type (0, 0), BuildingBlock: OJICUG_clean_linker_0, # of connection points: 2
#     Edge 30, Type (0, 0), BuildingBlock: OJICUG_clean_linker_0, # of connection points: 2
#     Edge 31, Type (0, 0), BuildingBlock: OJICUG_clean_linker_0, # of connection points: 2
#     Edge 32, Type (0, 0), BuildingBlock: OJICUG_clean_linker_0, # of connection points: 2
#     Edge 33, Type (0, 0), BuildingBlock: OJICUG_clean_linker_0, # of connection points: 2
#     Edge 34, Type (0, 0), BuildingBlock: OJICUG_clean_linker_0, # of connection points: 2
#     Edge 35, Type (0, 0), BuildingBlock: OJICUG_clean_linker_0, # of connection points: 2
#     Edge 36, Type (0, 0), BuildingBlock: OJICUG_clean_linker_0, # of connection points: 2
#     Edge 37, Type (0, 0), BuildingBlock: OJICUG_clean_linker_0, # of connection points: 2
#     Edge 38, Type (0, 0), BuildingBlock: OJICUG_clean_linker_0, # of connection points: 2
#     Edge 39, Type (0, 0), BuildingBlock: OJICUG_clean_linker_0, # of connection points: 2
#     Edge 40, Type (0, 0), BuildingBlock: OJICUG_clean_linker_0, # of connection points: 2
#     Edge 41, Type (0, 0), BuildingBlock: OJICUG_clean_linker_0, # of connection points: 2
#     Edge 42, Type (0, 0), BuildingBlock: OJICUG_clean_linker_0, # of connection points: 2
#     Edge 43, Type (0, 0), BuildingBlock: OJICUG_clean_linker_0, # of connection points: 2
#     Edge 44, Type (0, 0), BuildingBlock: OJICUG_clean_linker_0, # of connection points: 2
#     Edge 45, Type (0, 0), BuildingBlock: OJICUG_clean_linker_0, # of connection points: 2
#     Edge 46, Type (0, 0), BuildingBlock: OJICUG_clean_linker_0, # of connection points: 2
#     Edge 47, Type (0, 0), BuildingBlock: OJICUG_clean_linker_0, # of connection points: 2
#     Edge 48, Type (0, 0), BuildingBlock: OJICUG_clean_linker_0, # of connection points: 2
#     Edge 49, Type (0, 0), BuildingBlock: OJICUG_clean_linker_0, # of connection points: 2
#     Edge 50, Type (0, 0), BuildingBlock: OJICUG_clean_linker_0, # of connection points: 2
#     Edge 51, Type (0, 0), BuildingBlock: OJICUG_clean_linker_0, # of connection points: 2
#     Edge 52, Type (0, 0), BuildingBlock: OJICUG_clean_linker_0, # of connection points: 2
#     Edge 53, Type (0, 0), BuildingBlock: OJICUG_clean_linker_0, # of connection points: 2
#     Edge 54, Type (0, 0), BuildingBlock: OJICUG_clean_linker_0, # of connection points: 2
#     Edge 55, Type (0, 0), BuildingBlock: OJICUG_clean_linker_0, # of connection points: 2
#     Edge 56, Type (0, 0), BuildingBlock: OJICUG_clean_linker_0, # of connection points: 2
#     Edge 57, Type (0, 0), BuildingBlock: OJICUG_clean_linker_0, # of connection points: 2
#     Edge 58, Type (0, 0), BuildingBlock: OJICUG_clean_linker_0, # of connection points: 2
#     Edge 59, Type (0, 0), BuildingBlock: OJICUG_clean_linker_0, # of connection points: 2
#     Edge 60, Type (0, 0), BuildingBlock: OJICUG_clean_linker_0, # of connection points: 2
#     Edge 61, Type (0, 0), BuildingBlock: OJICUG_clean_linker_0, # of connection points: 2
#     Edge 62, Type (0, 0), BuildingBlock: OJICUG_clean_linker_0, # of connection points: 2
#     Edge 63, Type (0, 0), BuildingBlock: OJICUG_clean_linker_0, # of connection points: 2
#     Edge 64, Type (0, 0), BuildingBlock: OJICUG_clean_linker_0, # of connection points: 2
#     Edge 65, Type (0, 0), BuildingBlock: OJICUG_clean_linker_0, # of connection points: 2
#     Edge 66, Type (0, 0), BuildingBlock: OJICUG_clean_linker_0, # of connection points: 2
#     Edge 67, Type (0, 0), BuildingBlock: OJICUG_clean_linker_0, # of connection points: 2
#     Edge 68, Type (0, 0), BuildingBlock: OJICUG_clean_linker_0, # of connection points: 2
#     Edge 69, Type (0, 0), BuildingBlock: OJICUG_clean_linker_0, # of connection points: 2
#     Edge 70, Type (0, 0), BuildingBlock: OJICUG_clean_linker_0, # of connection points: 2
#     Edge 71, Type (0, 0), BuildingBlock: OJICUG_clean_linker_0, # of connection points: 2
# Relax obj value: 0.200
# Max RMSD: 0.229
# Mean RMSD: 0.229
data_MOF--net-vcp--node1-HICVOG_clean_sbu_0--edge1-OJICUG_clean_linker_0
_symmetry_space_group_name_H-M    P1
_symmetry_Int_Tables_number       1
_symmetry_cell_setting            triclinic
loop_
_symmetry_equiv_pos_as_xyz
'x, y, z'
_cell_length_a     63.168945
_cell_length_b     19.36465
_cell_length_c     26.127166
_cell_angle_alpha  89.982343
_cell_angle_beta   90.040832
_cell_angle_gamma 90.029468
loop_
_atom_site_label
_atom_site_type_symbol
_atom_site_fract_x
_atom_site_fract_y
_atom_site_fract_z
_atom_type_partial_charge
Zn0 Zn 0.11683 0.11411 0.47668 0.0
C1 C 0.14593 0.22721 0.36847 0.0
N2 N 0.14281 0.2778 0.40292 0.0
C3 C 0.13615 0.24375 0.44442 0.0
N4 N 0.13452 0.17535 0.43583 0.0
N5 N 0.14172 0.16355 0.38875 0.0
C6 C 0.14134 1.00747 0.28205 0.0
O7 O 0.12728 0.98403 0.31475 0.0
O8 O 0.1229 0.12211 0.55272 0.0
Zn9 Zn 0.15775 0.07665 0.37301 0.0
N10 N 0.08666 0.13065 0.46354 0.0
C11 C 0.05988 0.19423 0.42016 0.0
C12 C 0.08114 0.18292 0.43153 0.0
C13 C 0.07161 0.08812 0.48406 0.0
N14 N 0.04492 0.15211 0.44055 0.0
C15 C 0.04995 0.0988 0.47235 0.0
O16 O 0.1483 0.98797 0.41188 0.0
C17 C 0.13336 0.97029 0.44213 0.0
O18 O 0.12163 0.01491 0.46334 0.0
H19 H 0.09316 0.21513 0.41439 0.0
H20 H 0.07666 0.04562 0.50793 0.0
C21 C 0.20501 0.06021 0.37303 0.0
C22 C 0.2257 0.08131 0.38769 0.0
C23 C 0.21063 0.17254 0.43622 0.0
C24 C 0.19044 0.1508 0.42269 0.0
N25 N 0.18778 0.0961 0.39061 0.0
N26 N 0.22764 0.13749 0.41861 0.0
H27 H 0.20264 0.01642 0.34798 0.0
C28 C 0.1389 0.08929 0.5698 0.0
O29 O 0.15204 0.06104 0.53697 0.0
O30 O 0.15547 0.04944 0.29771 0.0
H31 H 0.17699 0.17784 0.438 0.0
H32 H 0.05528 0.23581 0.39482 0.0
H33 H 0.21278 0.21655 0.46119 0.0
Zn34 Zn 0.41368 0.90443 0.47633 0.0
C35 C 0.38573 0.78777 0.36841 0.0
N36 N 0.38975 0.73759 0.40266 0.0
C37 C 0.39588 0.77249 0.44426 0.0
N38 N 0.39631 0.84117 0.43595 0.0
N39 N 0.38888 0.85195 0.38889 0.0
C40 C 0.38914 1.00779 0.28188 0.0
O41 O 0.40285 0.03219 0.3151 0.0
O42 O 0.40781 0.89656 0.55251 0.0
Zn43 Zn 0.37234 0.93739 0.37219 0.0
N44 N 0.44405 0.89012 0.46331 0.0
C45 C 0.4711 0.82607 0.42139 0.0
C46 C 0.44981 0.83666 0.4327 0.0
C47 C 0.45894 0.93439 0.48266 0.0
N48 N 0.48587 0.86988 0.44058 0.0
C49 C 0.48065 0.92433 0.47106 0.0
O50 O 0.38076 0.02649 0.41167 0.0
C51 C 0.39559 0.04611 0.44162 0.0
O52 O 0.40798 1.00316 0.46262 0.0
H53 H 0.43796 0.80286 0.4166 0.0
H54 H 0.45373 0.97757 0.50562 0.0
C55 C 0.3251 0.95324 0.37179 0.0
C56 C 0.30436 0.9307 0.38457 0.0
C57 C 0.31922 0.83467 0.42824 0.0
C58 C 0.33947 0.85776 0.41662 0.0
N59 N 0.34226 0.91563 0.3878 0.0
N60 N 0.30228 0.87146 0.41214 0.0
H61 H 0.32758 0.99952 0.34938 0.0
C62 C 0.39167 0.92849 0.56969 0.0
O63 O 0.37827 0.95574 0.53694 0.0
O64 O 0.37516 0.96497 0.29702 0.0
H65 H 0.35283 0.82919 0.43086 0.0
H66 H 0.47587 0.78359 0.39712 0.0
H67 H 0.31695 0.78821 0.45058 0.0
Zn68 Zn 0.61691 0.89955 0.03941 0.0
C69 C 0.64795 0.79785 0.15129 0.0
N70 N 0.64625 0.74375 0.11922 0.0
C71 C 0.63832 0.77264 0.07653 0.0
N72 N 0.63477 0.84096 0.0824 0.0
N73 N 0.6419 0.85787 0.12857 0.0
C74 C 0.64318 0.01068 0.23377 0.0
O75 O 0.62858 0.03252 0.20184 0.0
O76 O 0.62338 0.89033 0.96371 0.0
Zn77 Zn 0.65783 0.94509 0.14147 0.0
N78 N 0.58667 0.88331 0.05226 0.0
C79 C 0.55979 0.82058 0.09594 0.0
C80 C 0.58107 0.83129 0.08438 0.0
C81 C 0.57169 0.92637 0.03196 0.0
N82 N 0.54491 0.8632 0.07576 0.0
C83 C 0.55001 0.91646 0.04397 0.0
O84 O 0.64692 0.03236 0.10414 0.0
C85 C 0.63201 0.04672 0.07292 0.0
O86 O 0.62128 0.99954 0.05154 0.0
H87 H 0.59306 0.79895 0.10155 0.0
H88 H 0.57683 0.96879 1.00812 0.0
C89 C 0.70491 0.96014 0.13852 0.0
C90 C 0.72528 0.94116 0.12043 0.0
C91 C 0.7092 0.85863 0.06549 0.0
C92 C 0.68929 0.87847 0.08253 0.0
N93 N 0.68733 0.92772 0.11933 0.0
N94 N 0.72659 0.89029 0.08464 0.0
H95 H 0.70303 0.99956 0.16749 0.0
C96 C 0.63927 0.92398 0.94694 0.0
O97 O 0.65219 0.95292 0.98004 0.0
O98 O 0.6575 0.97003 0.21728 0.0
H99 H 0.67547 0.85437 0.0663 0.0
H100 H 0.55513 0.77916 0.12134 0.0
H101 H 0.71084 0.81884 0.03671 0.0
Zn102 Zn 0.91414 0.1112 0.04245 0.0
C103 C 0.88739 0.22857 0.15079 0.0
N104 N 0.89251 0.27872 0.11741 0.0
C105 C 0.89799 0.24376 0.07535 0.0
N106 N 0.89694 0.175 0.08247 0.0
N107 N 0.88928 0.16446 0.12928 0.0
C108 C 0.88906 0.00826 0.23488 0.0
O109 O 0.90263 0.98324 0.20164 0.0
O110 O 0.9089 0.12006 0.966 0.0
Zn111 Zn 0.87216 0.08031 0.14504 0.0
N112 N 0.94443 0.12456 0.05658 0.0
C113 C 0.97159 0.1867 0.09986 0.0
C114 C 0.95029 0.17686 0.08824 0.0
C115 C 0.95923 0.08083 0.03642 0.0
N116 N 0.98628 0.14338 0.07986 0.0
C117 C 0.98095 0.09017 0.04828 0.0
O118 O 0.87968 0.99201 0.10368 0.0
C119 C 0.89454 0.97094 0.0744 0.0
O120 O 0.90787 0.01234 0.05501 0.0
H121 H 0.93853 0.21037 0.1049 0.0
H122 H 0.95396 0.03861 0.01254 0.0
C123 C 0.82503 0.06502 0.14393 0.0
C124 C 0.80429 0.0892 0.13306 0.0
C125 C 0.8191 0.19085 0.09696 0.0
C126 C 0.83936 0.16634 0.1067 0.0
N127 N 0.84217 0.10474 0.13091 0.0
N128 N 0.80218 0.15196 0.11021 0.0
H129 H 0.82752 0.01582 0.16262 0.0
C130 C 0.89265 0.08934 0.9482 0.0
O131 O 0.87877 0.0637 0.98047 0.0
O132 O 0.87518 0.05135 0.21974 0.0
H133 H 0.8527 0.19683 0.09471 0.0
H134 H 0.97643 0.22823 0.12497 0.0
H135 H 0.81681 0.24018 0.07831 0.0
Zn136 Zn 0.91416 0.90388 0.54241 0.0
C137 C 0.88714 0.78687 0.65073 0.0
N138 N 0.89214 0.73666 0.61732 0.0
C139 C 0.89772 0.77159 0.5753 0.0
N140 N 0.89685 0.84034 0.58247 0.0
N141 N 0.88921 0.85098 0.62927 0.0
C142 C 0.88905 1.00686 0.7349 0.0
O143 O 0.90271 0.03163 0.70174 0.0
O144 O 0.90893 0.89495 0.46597 0.0
Zn145 Zn 0.87216 0.93529 0.64492 0.0
N146 N 0.94444 0.89028 0.55662 0.0
C147 C 0.97149 0.82769 0.5999 0.0
C148 C 0.95021 0.83784 0.58825 0.0
C149 C 0.95932 0.9339 0.53654 0.0
N150 N 0.98625 0.87088 0.57998 0.0
C151 C 0.98101 0.92425 0.54844 0.0
O152 O 0.87988 0.02358 0.60367 0.0
C153 C 0.89474 0.04438 0.57428 0.0
O154 O 0.90796 1.00274 0.55483 0.0
H155 H 0.93838 0.80443 0.60484 0.0
H156 H 0.95411 0.97623 0.51269 0.0
C157 C 0.82503 0.95086 0.64355 0.0
C158 C 0.80428 0.92693 0.63229 0.0
C159 C 0.81908 0.82574 0.59558 0.0
C160 C 0.83934 0.85 0.60573 0.0
N161 N 0.84216 0.91123 0.63041 0.0
N162 N 0.80216 0.86452 0.60895 0.0
H163 H 0.82752 0.99977 0.66262 0.0
C164 C 0.89268 0.92567 0.44819 0.0
O165 O 0.87882 0.95131 0.48047 0.0
O166 O 0.87509 0.96405 0.71967 0.0
H167 H 0.85269 0.81962 0.59365 0.0
H168 H 0.97625 0.78604 0.62498 0.0
H169 H 0.81679 0.77669 0.57654 0.0
Zn170 Zn 0.61679 0.1169 0.53958 0.0
C171 C 0.64784 0.21892 0.65121 0.0
N172 N 0.64596 0.27305 0.61921 0.0
C173 C 0.63808 0.244 0.57654 0.0
N174 N 0.63472 0.17558 0.58235 0.0
N175 N 0.64191 0.15878 0.62848 0.0
C176 C 0.64325 1.0059 0.73366 0.0
O177 O 0.62867 0.9839 0.70172 0.0
O178 O 0.6232 0.12598 0.46381 0.0
Zn179 Zn 0.65791 0.07176 0.64139 0.0
N180 N 0.58656 0.13328 0.55262 0.0
C181 C 0.55986 0.19622 0.59667 0.0
C182 C 0.58109 0.18518 0.58495 0.0
C183 C 0.57147 0.09062 0.53229 0.0
N184 N 0.54487 0.15403 0.57645 0.0
C185 C 0.54982 0.10087 0.54447 0.0
O186 O 0.64702 0.98451 0.60401 0.0
C187 C 0.63204 0.96994 0.57304 0.0
O188 O 0.62119 0.01695 0.55182 0.0
H189 H 0.59317 0.21719 0.60215 0.0
H190 H 0.57649 0.04827 0.50828 0.0
C191 C 0.70497 0.05642 0.63832 0.0
C192 C 0.72537 0.07567 0.62054 0.0
C193 C 0.70941 0.1596 0.56659 0.0
C194 C 0.68946 0.13954 0.58332 0.0
N195 N 0.68743 0.08943 0.61948 0.0
N196 N 0.72676 0.12736 0.5854 0.0
H197 H 0.70303 0.01635 0.66679 0.0
C198 C 0.63912 0.09247 0.44705 0.0
O199 O 0.65207 0.06373 0.48016 0.0
O200 O 0.65755 0.04673 0.71718 0.0
H201 H 0.67569 0.16417 0.56737 0.0
H202 H 0.55531 0.23757 0.62223 0.0
H203 H 0.71111 0.20006 0.53832 0.0
Zn204 Zn 0.37233 0.07496 0.87517 0.0
C205 C 0.39566 0.24519 0.93807 0.0
N206 N 0.3882 0.27541 0.89542 0.0
C207 C 0.38453 0.22124 0.86442 0.0
N208 N 0.38916 0.16018 0.88764 0.0
N209 N 0.39701 0.17604 0.9333 0.0
C210 C 0.39243 0.09495 0.06949 0.0
O211 O 0.37889 0.0684 0.03675 0.0
O212 O 0.37306 0.04841 0.79978 0.0
Zn213 Zn 0.41447 0.11625 0.97619 0.0
N214 N 0.34282 0.0968 0.89496 0.0
C215 C 0.32072 0.17574 0.94017 0.0
C216 C 0.34071 0.15284 0.92596 0.0
C217 C 0.32532 0.06082 0.87916 0.0
N218 N 0.30341 0.14061 0.9242 0.0
C219 C 0.30489 0.08321 0.8944 0.0
O220 O 0.40871 0.01708 0.96527 0.0
C221 C 0.39685 0.97159 0.94542 0.0
O222 O 0.38192 0.98784 0.91471 0.0
H223 H 0.35442 0.1801 0.93973 0.0
H224 H 0.32729 0.01601 0.8549 0.0
C225 C 0.45962 0.08532 0.98222 0.0
C226 C 0.48134 0.09472 0.97041 0.0
C227 C 0.47198 0.19278 0.92029 0.0
C228 C 0.45068 0.18281 0.93181 0.0
N229 N 0.44482 0.12978 0.96274 0.0
N230 N 0.48666 0.14877 0.9396 0.0
H231 H 0.45432 0.04249 1.00546 0.0
C232 C 0.38711 1.0065 0.78371 0.0
O233 O 0.40131 0.98303 0.81609 0.0
O234 O 0.40858 0.12676 0.05221 0.0
H235 H 0.43887 0.21667 0.91561 0.0
H236 H 0.31896 0.2208 0.96427 0.0
H237 H 0.47682 0.23491 0.89574 0.0
Zn238 Zn 0.11639 0.89855 0.97634 0.0
C239 C 0.14671 0.79649 0.86416 0.0
N240 N 0.14355 0.74193 0.89516 0.0
C241 C 0.13602 0.77141 0.93796 0.0
N242 N 0.13409 0.84038 0.93324 0.0
N243 N 0.14168 0.8571 0.88752 0.0
C244 C 0.14344 0.01135 0.78386 0.0
O245 O 0.12911 0.03436 0.816 0.0
O246 O 0.12242 0.88804 0.0523 0.0
Zn247 Zn 0.15807 0.94342 0.87562 0.0
N248 N 0.08623 0.88295 0.96267 0.0
C249 C 0.0594 0.82088 0.91824 0.0
C250 C 0.08066 0.83155 0.92997 0.0
C251 C 0.07123 0.92529 0.98355 0.0
N252 N 0.04449 0.86282 0.93898 0.0
C253 C 0.04957 0.91531 0.97147 0.0
O254 O 0.14775 0.03013 0.91476 0.0
C255 C 0.13273 0.04487 0.94558 0.0
O256 O 0.12138 0.99816 0.96555 0.0
H257 H 0.09265 0.79966 0.91247 0.0
H258 H 0.07633 0.96712 1.00799 0.0
C259 C 0.20509 0.9584 0.87988 0.0
C260 C 0.2255 0.93696 0.89614 0.0
C261 C 0.20959 0.84705 0.94455 0.0
C262 C 0.18963 0.86904 0.9293 0.0
N263 N 0.18757 0.92327 0.89654 0.0
N264 N 0.22693 0.88131 0.92776 0.0
H265 H 0.20316 1.00177 0.85419 0.0
C266 C 0.13841 0.92078 0.06959 0.0
O267 O 0.15174 0.9484 0.03686 0.0
O268 O 0.15756 0.96978 0.80016 0.0
H269 H 0.17589 0.8425 0.94364 0.0
H270 H 0.05476 0.78001 0.89233 0.0
H271 H 0.21131 0.80339 0.97006 0.0
Zn272 Zn 0.6151 0.61218 0.47465 0.0
C273 C 0.64215 0.72921 0.36636 0.0
N274 N 0.63713 0.77942 0.39975 0.0
C275 C 0.63152 0.74449 0.44175 0.0
N276 N 0.63239 0.67573 0.43458 0.0
N277 N 0.64007 0.6651 0.3878 0.0
C278 C 0.64027 0.50924 0.28217 0.0
O279 O 0.62659 0.48446 0.31529 0.0
O280 O 0.62035 0.62109 0.55108 0.0
Zn281 Zn 0.65712 0.5808 0.37219 0.0
N282 N 0.58481 0.6258 0.46049 0.0
C283 C 0.55776 0.68838 0.41721 0.0
C284 C 0.57904 0.67821 0.42884 0.0
C285 C 0.56993 0.58224 0.48063 0.0
N286 N 0.54299 0.64525 0.4372 0.0
C287 C 0.54823 0.59191 0.46877 0.0
O288 O 0.64939 0.49252 0.41341 0.0
C289 C 0.63451 0.47169 0.44277 0.0
O290 O 0.62128 0.5133 0.46221 0.0
H291 H 0.59086 0.71158 0.41219 0.0
H292 H 0.57514 0.53993 0.50451 0.0
C293 C 0.70425 0.56531 0.37357 0.0
C294 C 0.72499 0.5892 0.38494 0.0
C295 C 0.71016 0.69019 0.42189 0.0
C296 C 0.68991 0.66597 0.41163 0.0
N297 N 0.6871 0.60484 0.38679 0.0
N298 N 0.72709 0.6515 0.40845 0.0
H299 H 0.70176 0.51649 0.35436 0.0
C300 C 0.6366 0.59036 0.56884 0.0
O301 O 0.65045 0.56472 0.53653 0.0
O302 O 0.65422 0.55206 0.29743 0.0
H303 H 0.67655 0.69627 0.42376 0.0
H304 H 0.55299 0.73001 0.39211 0.0
H305 H 0.71244 0.73915 0.44106 0.0
Zn306 Zn 0.91248 0.3992 0.47746 0.0
C307 C 0.88147 0.29711 0.36579 0.0
N308 N 0.88336 0.24298 0.3978 0.0
C309 C 0.89123 0.27204 0.44049 0.0
N310 N 0.89456 0.34048 0.43468 0.0
N311 N 0.88738 0.35726 0.38854 0.0
C312 C 0.88605 0.51014 0.28337 0.0
O313 O 0.90061 0.53218 0.31535 0.0
O314 O 0.90608 0.39009 0.55323 0.0
Zn315 Zn 0.87136 0.44425 0.3756 0.0
N316 N 0.94271 0.3829 0.46443 0.0
C317 C 0.96943 0.31998 0.42044 0.0
C318 C 0.94819 0.33099 0.43213 0.0
C319 C 0.95779 0.4256 0.48478 0.0
N320 N 0.98441 0.36221 0.44067 0.0
C321 C 0.97945 0.41538 0.47263 0.0
O322 O 0.88221 0.53152 0.41303 0.0
C323 C 0.89719 0.54612 0.444 0.0
O324 O 0.90805 0.49913 0.46522 0.0
H325 H 0.93613 0.29894 0.41493 0.0
H326 H 0.95275 0.46793 0.50878 0.0
C327 C 0.8243 0.45966 0.37866 0.0
C328 C 0.80388 0.44031 0.39631 0.0
C329 C 0.81981 0.35597 0.44997 0.0
C330 C 0.83977 0.37612 0.43337 0.0
N331 N 0.84182 0.42648 0.3974 0.0
N332 N 0.80247 0.38837 0.43125 0.0
H333 H 0.82625 0.49992 0.35034 0.0
C334 C 0.89016 0.42355 0.57002 0.0
O335 O 0.87719 0.45225 0.53694 0.0
O336 O 0.87175 0.46928 0.29982 0.0
H337 H 0.85353 0.35135 0.44925 0.0
H338 H 0.97399 0.27864 0.39489 0.0
H339 H 0.8181 0.31532 0.47808 0.0
Zn340 Zn 0.1571 0.44133 0.14237 0.0
C341 C 0.13372 0.27123 0.07941 0.0
N342 N 0.14114 0.24097 0.12209 0.0
C343 C 0.14482 0.29511 0.15309 0.0
N344 N 0.14025 0.3562 0.12986 0.0
N345 N 0.1324 0.34039 0.08417 0.0
C346 C 0.13697 0.42152 0.94798 0.0
O347 O 0.15053 0.44807 0.98068 0.0
O348 O 0.15633 0.46791 0.21775 0.0
Zn349 Zn 0.11495 0.40028 0.04133 0.0
N350 N 0.18662 0.41934 0.1227 0.0
C351 C 0.20874 0.34015 0.07781 0.0
C352 C 0.18875 0.36312 0.0919 0.0
C353 C 0.20411 0.45545 0.13841 0.0
N354 N 0.22604 0.3754 0.09367 0.0
C355 C 0.22455 0.43299 0.12328 0.0
O356 O 0.12075 0.49947 0.05223 0.0
C357 C 0.13266 0.54484 0.07207 0.0
O358 O 0.14757 0.52845 0.10275 0.0
H359 H 0.17504 0.33575 0.0782 0.0
H360 H 0.20213 0.5004 0.16251 0.0
C361 C 0.06981 0.43122 0.03527 0.0
C362 C 0.04809 0.42181 0.04706 0.0
C363 C 0.05745 0.3238 0.09725 0.0
C364 C 0.07875 0.33377 0.08573 0.0
N365 N 0.0846 0.38679 0.05478 0.0
N366 N 0.04276 0.36778 0.07791 0.0
H367 H 0.0751 0.47402 0.01201 0.0
C368 C 0.14228 0.50986 0.23377 0.0
O369 O 0.12811 0.53336 0.20134 0.0
O370 O 0.12082 0.38973 0.9653 0.0
H371 H 0.09055 0.29992 0.10194 0.0
H372 H 0.21051 0.29494 0.05387 0.0
H373 H 0.0526 0.28169 0.12182 0.0
Zn374 Zn 0.37134 0.57306 0.14181 0.0
C375 C 0.39355 0.74504 0.0795 0.0
N376 N 0.38606 0.77458 0.12233 0.0
C377 C 0.38279 0.72001 0.15325 0.0
N378 N 0.3877 0.65938 0.1298 0.0
N379 N 0.39533 0.67601 0.0841 0.0
C380 C 0.391 0.5955 0.94786 0.0
O381 O 0.37767 0.56794 0.98061 0.0
O382 O 0.37185 0.54676 0.21727 0.0
Zn383 Zn 0.41304 0.61778 0.04106 0.0
N384 N 0.34184 0.59319 0.12089 0.0
C385 C 0.31981 0.6694 0.07289 0.0
C386 C 0.33977 0.64743 0.08815 0.0
C387 C 0.32433 0.55803 0.13754 0.0
N388 N 0.30248 0.6351 0.08967 0.0
C389 C 0.30392 0.57945 0.12129 0.0
O390 O 0.40805 0.51821 0.05193 0.0
C391 C 0.39668 0.47153 0.07191 0.0
O392 O 0.38166 0.48633 0.10269 0.0
H393 H 0.35351 0.67401 0.07382 0.0
H394 H 0.32626 0.51467 0.16324 0.0
C395 C 0.4582 0.59104 0.03378 0.0
C396 C 0.47986 0.60102 0.0458 0.0
C397 C 0.47006 0.69547 0.09902 0.0
C398 C 0.4488 0.68481 0.08735 0.0
N399 N 0.44321 0.63339 0.05468 0.0
N400 N 0.48496 0.65353 0.07825 0.0
H401 H 0.45309 0.54919 0.00936 0.0
C402 C 0.38594 0.50511 0.23359 0.0
O403 O 0.40025 0.48196 0.20146 0.0
O404 O 0.407 0.62821 0.96511 0.0
H405 H 0.43682 0.71672 0.10487 0.0
H406 H 0.31808 0.71306 0.04739 0.0
H407 H 0.47471 0.73637 0.1249 0.0
Zn408 Zn 0.41242 0.40227 0.54081 0.0
C409 C 0.38336 0.28912 0.64904 0.0
N410 N 0.38648 0.23853 0.61458 0.0
C411 C 0.39312 0.27259 0.57306 0.0
N412 N 0.39472 0.341 0.58164 0.0
N413 N 0.38754 0.35279 0.62874 0.0
C414 C 0.38796 0.50879 0.73541 0.0
O415 O 0.40202 0.53216 0.70268 0.0
O416 O 0.40636 0.39427 0.46476 0.0
Zn417 Zn 0.37149 0.43966 0.64449 0.0
N418 N 0.44258 0.38573 0.55394 0.0
C419 C 0.46937 0.32218 0.59733 0.0
C420 C 0.44811 0.33349 0.58597 0.0
C421 C 0.45764 0.42824 0.53339 0.0
N422 N 0.48433 0.36427 0.5769 0.0
C423 C 0.4793 0.41756 0.54509 0.0
O424 O 0.38092 0.52835 0.60559 0.0
C425 C 0.39586 0.54606 0.57535 0.0
O426 O 0.4076 0.50146 0.55415 0.0
H427 H 0.43608 0.30129 0.60313 0.0
H428 H 0.45258 0.47072 0.5095 0.0
C429 C 0.32424 0.45616 0.64446 0.0
C430 C 0.30354 0.43502 0.62987 0.0
C431 C 0.3186 0.34354 0.58156 0.0
C432 C 0.33879 0.36532 0.59502 0.0
N433 N 0.34146 0.42015 0.62696 0.0
N434 N 0.30159 0.3787 0.5991 0.0
H435 H 0.32662 0.50005 0.66941 0.0
C436 C 0.39037 0.42714 0.44765 0.0
O437 O 0.37723 0.45544 0.48046 0.0
O438 O 0.37381 0.46688 0.71978 0.0
H439 H 0.35223 0.33818 0.57976 0.0
H440 H 0.47396 0.28062 0.62268 0.0
H441 H 0.31643 0.29942 0.5567 0.0
Zn442 Zn 0.11556 0.6119 0.54109 0.0
C443 C 0.14352 0.7286 0.64901 0.0
N444 N 0.13947 0.77878 0.61479 0.0
C445 C 0.13333 0.74387 0.5732 0.0
N446 N 0.13291 0.67519 0.5815 0.0
N447 N 0.14037 0.66441 0.62854 0.0
C448 C 0.14016 0.5086 0.73557 0.0
O449 O 0.12644 0.48416 0.70238 0.0
O450 O 0.12146 0.61975 0.46493 0.0
Zn451 Zn 0.15692 0.57899 0.64522 0.0
N452 N 0.08518 0.62619 0.55404 0.0
C453 C 0.05811 0.69023 0.59588 0.0
C454 C 0.0794 0.67964 0.58463 0.0
C455 C 0.0703 0.58191 0.53465 0.0
N456 N 0.04334 0.64641 0.57665 0.0
C457 C 0.04858 0.59196 0.54619 0.0
O458 O 0.14849 0.48989 0.60577 0.0
C459 C 0.13365 0.47024 0.57585 0.0
O460 O 0.12125 0.51317 0.55485 0.0
H461 H 0.09125 0.71344 0.60077 0.0
H462 H 0.07552 0.53873 0.5117 0.0
C463 C 0.20415 0.56319 0.64559 0.0
C464 C 0.22489 0.58572 0.63276 0.0
C465 C 0.21002 0.68165 0.58901 0.0
C466 C 0.18977 0.65858 0.60067 0.0
N467 N 0.18699 0.60076 0.62955 0.0
N468 N 0.22696 0.6449 0.60513 0.0
H469 H 0.20167 0.51695 0.66805 0.0
C470 C 0.13761 0.58782 0.44779 0.0
O471 O 0.151 0.56058 0.48057 0.0
O472 O 0.15412 0.55145 0.72039 0.0
H473 H 0.1764 0.68711 0.58643 0.0
H474 H 0.05333 0.73271 0.62014 0.0
H475 H 0.21228 0.72807 0.56661 0.0
Zn476 Zn 0.91249 0.61651 0.97766 0.0
C477 C 0.88142 0.71822 0.86581 0.0
N478 N 0.88315 0.77232 0.89787 0.0
C479 C 0.89109 0.74342 0.94054 0.0
N480 N 0.89462 0.6751 0.93466 0.0
N481 N 0.88748 0.65819 0.88851 0.0
C482 C 0.88618 0.50546 0.78328 0.0
O483 O 0.90081 0.48371 0.81517 0.0
O484 O 0.906 0.62568 0.05335 0.0
Zn485 Zn 0.87155 0.57097 0.87562 0.0
N486 N 0.94273 0.63279 0.96484 0.0
C487 C 0.9696 0.69551 0.92114 0.0
C488 C 0.94832 0.68476 0.93267 0.0
C489 C 0.95771 0.58982 0.98522 0.0
N490 N 0.98448 0.65298 0.94139 0.0
C491 C 0.97939 0.59977 0.97323 0.0
O492 O 0.88249 0.48371 0.9129 0.0
C493 C 0.8974 0.46934 0.94411 0.0
O494 O 0.90813 0.51651 0.96549 0.0
H495 H 0.93633 0.71703 0.91544 0.0
H496 H 0.95258 0.54744 0.0091 0.0
C497 C 0.82448 0.55595 0.87862 0.0
C498 C 0.80411 0.57486 0.8968 0.0
C499 C 0.82022 0.65714 0.9519 0.0
C500 C 0.84012 0.63737 0.93477 0.0
N501 N 0.84206 0.58828 0.89784 0.0
N502 N 0.80281 0.62557 0.93272 0.0
H503 H 0.82634 0.51667 0.84955 0.0
C504 C 0.8901 0.59201 0.07009 0.0
O505 O 0.8772 0.56306 0.03697 0.0
O506 O 0.87185 0.54604 0.79981 0.0
H507 H 0.85394 0.6614 0.95102 0.0
H508 H 0.97425 0.73689 0.89569 0.0
H509 H 0.81859 0.6968 0.98079 0.0
Zn510 Zn 0.61526 0.40495 0.97459 0.0
C511 C 0.64193 0.28749 0.86621 0.0
N512 N 0.6368 0.23736 0.89959 0.0
C513 C 0.63136 0.27233 0.94168 0.0
N514 N 0.63244 0.34108 0.93457 0.0
N515 N 0.64009 0.35161 0.88774 0.0
C516 C 0.64029 0.50781 0.78215 0.0
O517 O 0.62674 0.53288 0.81542 0.0
O518 O 0.62049 0.39607 0.05104 0.0
Zn519 Zn 0.65723 0.43572 0.87194 0.0
N520 N 0.58496 0.39165 0.96048 0.0
C521 C 0.55778 0.32957 0.91723 0.0
C522 C 0.57909 0.33937 0.92882 0.0
C523 C 0.57017 0.43541 0.98066 0.0
N524 N 0.5431 0.37292 0.93725 0.0
C525 C 0.54845 0.42611 0.96883 0.0
O526 O 0.64975 0.52403 0.91334 0.0
C527 C 0.63489 0.54514 0.94262 0.0
O528 O 0.62155 0.5038 0.96201 0.0
H529 H 0.59084 0.30583 0.91215 0.0
H530 H 0.57546 0.47761 1.00454 0.0
C531 C 0.70435 0.45105 0.87306 0.0
C532 C 0.7251 0.42682 0.88379 0.0
C533 C 0.71032 0.32488 0.9195 0.0
C534 C 0.69005 0.34943 0.90989 0.0
N535 N 0.68722 0.4112 0.88594 0.0
N536 N 0.72723 0.36389 0.90638 0.0
H537 H 0.70185 0.50038 0.85458 0.0
C538 C 0.63674 0.42679 0.06886 0.0
O539 O 0.65062 0.45246 0.03661 0.0
O540 O 0.65417 0.46469 0.79726 0.0
H541 H 0.67672 0.31883 0.92179 0.0
H542 H 0.55293 0.28806 0.89212 0.0
H543 H 0.71262 0.27541 0.93794 0.0
C544 C 0.03474 0.01344 0.53672 0.0
C545 C 0.03246 0.05358 0.49215 0.0
H546 H 0.0205 0.9426 0.58921 0.0
C547 C 1.0128 0.0516 0.4665 0.0
H548 H 0.04928 0.01426 0.55858 0.0
C549 C 0.99606 0.01051 0.48442 0.0
C550 C 0.99837 0.97021 0.52891 0.0
H551 H 1.01033 0.08135 0.4319 0.0
H552 H 0.98152 0.00964 0.46256 0.0
C553 C 0.01801 0.97236 0.55463 0.0
C554 C 0.5345 0.0135 0.48146 0.0
C555 C 0.53225 0.0553 0.52518 0.0
H556 H 0.52023 0.94088 0.43031 0.0
C557 C 0.51253 0.05446 0.55061 0.0
H558 H 0.54906 0.01323 0.45973 0.0
C559 C 0.49575 0.01295 0.53335 0.0
C560 C 0.49805 0.97094 0.48977 0.0
H561 H 0.51004 0.08546 0.58457 0.0
H562 H 0.48118 0.01311 0.55506 0.0
C563 C 0.51773 0.97197 0.46423 0.0
C564 C 0.49622 1.00591 0.03288 0.0
C565 C 0.49862 0.04778 0.98922 0.0
H566 H 0.51031 0.93306 0.08416 0.0
C567 C 0.5183 0.04618 0.96367 0.0
H568 H 0.48166 1.00617 0.05462 0.0
C569 C 0.53495 1.00421 0.98093 0.0
C570 C 0.53258 0.96252 0.02469 0.0
H571 H 0.52087 0.07714 0.9297 0.0
H572 H 0.54951 1.00403 0.95918 0.0
C573 C 0.51288 0.96394 0.05016 0.0
C574 C 0.03446 0.99996 0.03642 0.0
C575 C 0.03215 0.96049 0.99154 0.0
H576 H 0.02031 0.07041 0.08929 0.0
C577 C 1.01252 0.96321 0.96577 0.0
H578 H 0.04897 0.99855 0.05839 0.0
C579 C 0.99586 1.00439 0.98386 0.0
C580 C 0.99821 0.04405 0.02863 0.0
H581 H 1.01003 0.934 0.93094 0.0
H582 H 0.98135 1.00588 0.96191 0.0
C583 C 0.01781 0.04114 0.05449 0.0
C584 C 0.51123 0.54384 0.46267 0.0
C585 C 0.53087 0.546 0.48836 0.0
H586 H 0.47995 0.50198 0.45879 0.0
C587 C 0.53319 0.50577 0.53287 0.0
H588 H 0.50873 0.57357 0.42807 0.0
C589 C 0.51645 0.46472 0.55085 0.0
C590 C 0.49679 0.46273 0.52523 0.0
H591 H 0.54774 0.50664 0.55471 0.0
H592 H 0.51893 0.43501 0.58547 0.0
C593 C 0.4945 0.50282 0.48064 0.0
C594 C 0.03351 0.50331 0.48387 0.0
C595 C 0.03119 0.54534 0.52744 0.0
H596 H 0.01924 0.43077 0.43264 0.0
C597 C 1.01149 0.54434 0.55292 0.0
H598 H 0.04809 0.50314 0.46221 0.0
C599 C 0.99473 0.5028 0.53565 0.0
C600 C 0.99701 0.46097 0.49195 0.0
H601 H 1.00898 0.57544 0.58682 0.0
H602 H 0.98016 0.50308 0.55734 0.0
C603 C 0.01674 0.46179 0.46658 0.0
C604 C 1.01112 0.47029 0.05373 0.0
C605 C 0.0308 0.46869 0.02819 0.0
H606 H 0.9799 0.51239 0.05813 0.0
C607 C 0.0332 0.51048 0.98449 0.0
H608 H 1.00854 0.4394 0.08772 0.0
C609 C 0.01654 0.55237 0.96715 0.0
C610 C 0.99683 0.5538 0.99259 0.0
H611 H 0.04777 0.5102 0.96277 0.0
H612 H 0.01911 0.5832 0.93312 0.0
C613 C 0.99446 0.51219 0.0364 0.0
C614 C 0.51692 0.55312 0.05139 0.0
C615 C 0.49728 0.55583 0.02568 0.0
H616 H 0.54809 0.51045 0.05518 0.0
C617 C 0.49494 0.51634 0.98082 0.0
H618 H 0.51943 0.58234 0.08621 0.0
C619 C 0.51159 0.47515 0.96271 0.0
C620 C 0.5312 0.47224 0.98852 0.0
H621 H 0.48043 0.51774 0.95889 0.0
H622 H 0.50907 0.44586 0.92793 0.0
C623 C 0.53357 0.51193 0.03327 0.0
C624 C 0.11237 0.87899 0.48678 0.0
C625 C 0.13103 0.89795 0.46067 0.0
H626 H 0.09828 0.81272 0.54279 0.0
C627 C 0.14828 0.85219 0.46163 0.0
H628 H 0.09864 0.91254 0.48643 0.0
C629 C 0.14776 0.79352 0.4933 0.0
C630 C 0.13 0.77979 0.52418 0.0
H631 H 0.16288 0.86513 0.4421 0.0
H632 H 0.16209 0.7634 0.49797 0.0
C633 C 0.11196 0.82099 0.5186 0.0
C634 C 0.37896 0.16115 0.46232 0.0
C635 C 0.39694 0.11855 0.46036 0.0
H636 H 0.36401 0.24707 0.49963 0.0
C637 C 0.41547 0.14046 0.48581 0.0
H638 H 0.36445 0.14582 0.44337 0.0
C639 C 0.41519 0.19827 0.51782 0.0
C640 C 0.39654 0.23623 0.52429 0.0
H641 H 0.4297 0.10931 0.48475 0.0
H642 H 0.42891 0.20878 0.54138 0.0
C643 C 0.37876 0.21947 0.49427 0.0
C644 C 0.64492 0.16809 0.05618 0.0
C645 C 0.62875 0.11826 0.05366 0.0
H646 H 0.65788 0.26023 0.02269 0.0
C647 C 0.61063 0.13289 0.02405 0.0
H648 H 0.65904 0.15863 0.07863 0.0
C649 C 0.61003 0.19074 0.99218 0.0
C650 C 0.62727 0.23603 0.9901 0.0
H651 H 0.59768 0.09628 0.02177 0.0
H652 H 0.59704 0.196 0.96536 0.0
C653 C 0.64415 0.22671 0.02453 0.0
C654 C 0.91284 0.81658 0.99847 0.0
C655 C 0.8936 0.78359 0.98808 0.0
H656 H 0.92832 0.90103 0.03562 0.0
C657 C 0.87533 0.80476 0.01453 0.0
H658 H 0.92702 0.80255 0.9778 0.0
C659 C 0.87594 0.86182 0.04762 0.0
C660 C 0.89481 0.89924 0.05403 0.0
H661 H 0.8602 0.78083 1.00626 0.0
H662 H 0.86128 0.8803 0.06416 0.0
C663 C 0.91347 0.87359 0.03132 0.0
C664 C 0.87636 0.15427 0.54825 0.0
C665 C 0.89512 0.11607 0.55384 0.0
H666 H 0.86066 0.23598 0.50761 0.0
C667 C 0.91372 0.14101 0.53034 0.0
H668 H 0.86176 0.13637 0.56544 0.0
C669 C 0.91308 0.19803 0.49749 0.0
C670 C 0.8939 0.23184 0.48796 0.0
H671 H 0.92849 0.11301 0.53401 0.0
H672 H 0.92716 0.21144 0.47617 0.0
C673 C 0.87575 0.21143 0.51522 0.0
C674 C 0.64506 0.84882 0.55618 0.0
C675 C 0.62883 0.89839 0.55379 0.0
H676 H 0.6581 0.75696 0.52256 0.0
C677 C 0.6107 0.88352 0.52426 0.0
H678 H 0.65919 0.85846 0.57856 0.0
C679 C 0.61014 0.82575 0.49235 0.0
C680 C 0.62744 0.78074 0.49015 0.0
H681 H 0.59771 0.91993 0.52208 0.0
H682 H 0.59714 0.82034 0.46558 0.0
C683 C 0.64434 0.79027 0.52449 0.0
C684 C 0.41557 0.82784 0.03109 0.0
C685 C 0.39765 0.78553 0.033 0.0
H686 H 0.42979 0.91829 0.99976 0.0
C687 C 0.38103 0.79709 0.99824 0.0
H688 H 0.42835 0.82099 0.05825 0.0
C689 C 0.38149 0.85435 0.9653 0.0
C690 C 0.3986 0.90075 0.96695 0.0
H691 H 0.36684 0.76568 0.99991 0.0
H692 H 0.3677 0.86544 0.94206 0.0
C693 C 0.4162 0.88422 0.99786 0.0
C694 C 0.14675 0.16415 0.96496 0.0
C695 C 0.1302 0.11564 0.96683 0.0
H696 H 0.1604 0.25466 0.99931 0.0
C697 C 0.11243 0.13026 0.99765 0.0
H698 H 0.16064 0.15458 0.94177 0.0
C699 C 0.11242 0.18689 0.03068 0.0
C700 C 0.12986 0.23131 0.0325 0.0
H701 H 0.09923 0.09459 0.99967 0.0
H702 H 0.0996 0.19232 0.05786 0.0
C703 C 0.14656 0.22165 0.99768 0.0
C704 C 0.61555 0.37503 0.48671 0.0
C705 C 0.63414 0.39999 0.4632 0.0
H706 H 0.60213 0.30458 0.54088 0.0
C707 C 0.65291 0.36182 0.46879 0.0
H708 H 0.60078 0.40301 0.48304 0.0
C709 C 0.65353 0.30467 0.50181 0.0
C710 C 0.63538 0.28422 0.52907 0.0
H711 H 0.66751 0.37974 0.45159 0.0
H712 H 0.66862 0.28013 0.50942 0.0
C713 C 0.6162 0.31801 0.51955 0.0
C714 C 0.91909 0.69036 0.52464 0.0
C715 C 0.90178 0.73533 0.52689 0.0
H716 H 0.93153 0.59622 0.49487 0.0
C717 C 0.88486 0.72575 0.49261 0.0
H718 H 0.9321 0.69581 0.55136 0.0
C719 C 0.88414 0.6672 0.46091 0.0
C720 C 0.90039 0.61768 0.46325 0.0
H721 H 0.8711 0.75903 0.49459 0.0
H722 H 0.86999 0.65753 0.43859 0.0
C723 C 0.91853 0.63259 0.49272 0.0
C724 C 0.11333 0.63254 0.01987 0.0
C725 C 0.13097 0.6157 0.05055 0.0
H726 H 0.10113 0.69603 0.95969 0.0
C727 C 0.14816 0.66179 0.05195 0.0
H728 H 0.09968 0.59871 0.01818 0.0
C729 C 0.14864 0.71902 0.01898 0.0
C730 C 0.13195 0.73092 0.98449 0.0
H731 H 0.16199 0.65044 0.07499 0.0
H732 H 0.16288 0.75015 0.01711 0.0
C733 C 0.11396 0.68894 0.98666 0.0
C734 C 0.38264 0.35231 0.05251 0.0
C735 C 0.3992 0.40076 0.05067 0.0
H736 H 0.36896 0.26187 0.01812 0.0
C737 C 0.41698 0.38608 0.01987 0.0
H738 H 0.36874 0.36192 0.07568 0.0
C739 C 0.41697 0.32947 0.98683 0.0
C740 C 0.39952 0.28512 0.98497 0.0
H741 H 0.43018 0.42171 0.01788 0.0
H742 H 0.4298 0.32401 0.95967 0.0
C743 C 0.38281 0.29482 0.01977 0.0
C744 C 0.38091 0.66412 0.55582 0.0
C745 C 0.39818 0.6184 0.5568 0.0
H746 H 0.36709 0.75286 0.51946 0.0
C747 C 0.41684 0.63742 0.5307 0.0
H748 H 0.36632 0.65113 0.57533 0.0
C749 C 0.41724 0.69542 0.49889 0.0
C750 C 0.39918 0.73657 0.49329 0.0
H751 H 0.43057 0.60391 0.53107 0.0
H752 H 0.43092 0.70374 0.47472 0.0
C753 C 0.38142 0.72278 0.52415 0.0
C754 C 0.11407 0.31806 0.49966 0.0
C755 C 0.13272 0.28011 0.49319 0.0
H756 H 0.09954 0.407 0.53272 0.0
C757 C 0.15049 0.29689 0.52321 0.0
H758 H 0.10034 0.30753 0.4761 0.0
C759 C 0.15029 0.35521 0.55516 0.0
C760 C 0.1323 0.39779 0.55712 0.0
H761 H 0.16525 0.2693 0.51785 0.0
H762 H 0.16481 0.37054 0.57411 0.0
C763 C 0.11378 0.37586 0.53167 0.0
C764 C 0.91935 0.32534 0.0249 0.0
C765 C 0.9021 0.28005 0.02695 0.0
H766 H 0.93171 0.41978 0.99533 0.0
C767 C 0.88523 0.28936 0.99247 0.0
H768 H 0.93232 0.32007 0.05176 0.0
C769 C 0.88449 0.34797 0.9608 0.0
C770 C 0.90066 0.3978 0.96336 0.0
H771 H 0.87151 0.25583 0.99428 0.0
H772 H 0.87037 0.35742 0.93832 0.0
C773 C 0.91876 0.38317 0.99302 0.0
C774 C 0.61597 0.64264 0.98553 0.0
C775 C 0.63465 0.61685 0.96299 0.0
H776 H 0.60238 0.7138 0.03891 0.0
C777 C 0.65354 0.6541 0.9696 0.0
H778 H 0.60111 0.61532 0.98107 0.0
C779 C 0.65414 0.71114 1.0027 0.0
C780 C 0.63584 0.73247 0.02897 0.0
H781 H 0.66821 0.63548 0.95319 0.0
H782 H 0.66928 0.73492 0.01113 0.0
C783 C 0.61659 0.69966 0.01838 0.0
C784 C 0.28433 0.04272 0.37276 0.0
C785 C 0.28461 0.97021 0.3728 0.0
H786 H 0.26546 0.13438 0.37648 0.0
C787 C 0.26508 0.93494 0.36953 0.0
H788 H 0.2989 0.07189 0.37578 0.0
C789 C 0.24579 0.97082 0.37015 0.0
C790 C 0.2455 0.04311 0.3743 0.0
H791 H 0.26465 0.87902 0.3692 0.0
H792 H 0.23122 0.94144 0.37107 0.0
C793 C 0.26504 0.07858 0.37361 0.0
C794 C 0.74582 0.04768 0.1464 0.0
C795 C 0.74534 0.97663 0.13568 0.0
H796 H 0.76488 0.13841 0.15482 0.0
C797 C 0.76479 0.94109 0.13201 0.0
H798 H 0.73131 0.07716 0.14897 0.0
C799 C 0.78416 0.97633 0.13527 0.0
C800 C 0.78458 0.04827 0.14197 0.0
H801 H 0.76506 0.88622 0.12401 0.0
H802 H 0.79865 0.94779 0.1289 0.0
C803 C 0.76518 0.08296 0.14935 0.0
C804 C 0.76514 0.93306 0.64819 0.0
C805 C 0.78458 0.9678 0.64135 0.0
H806 H 0.73127 0.93903 0.64761 0.0
C807 C 0.78422 0.03986 0.63536 0.0
H808 H 0.76479 0.87752 0.65311 0.0
C809 C 0.76488 0.07525 0.63231 0.0
C810 C 0.74539 0.03975 0.63548 0.0
H811 H 0.79874 0.06845 0.62941 0.0
H812 H 0.7652 0.13028 0.62489 0.0
C813 C 0.74581 0.96849 0.64546 0.0
C814 C 0.28427 0.97271 0.88159 0.0
C815 C 0.28491 0.04519 0.88254 0.0
H816 H 0.26493 0.88194 0.88442 0.0
C817 C 0.26559 0.08159 0.88003 0.0
H818 H 0.29871 0.9428 0.88407 0.0
C819 C 0.24613 0.04667 0.88022 0.0
C820 C 0.24549 0.97431 0.88337 0.0
H821 H 0.26547 0.13753 0.88053 0.0
H822 H 0.23169 0.07669 0.88159 0.0
C823 C 0.26481 0.93781 0.88222 0.0
C824 C 0.78347 0.5477 0.37181 0.0
C825 C 0.78387 0.47637 0.38147 0.0
H826 H 0.7645 0.63875 0.36449 0.0
C827 C 0.76438 0.44085 0.38443 0.0
H828 H 0.79801 0.57716 0.36982 0.0
C829 C 0.74505 0.47628 0.38147 0.0
C830 C 0.74469 0.54839 0.3758 0.0
H831 H 0.76406 0.38576 0.3916 0.0
H832 H 0.73052 0.44765 0.38725 0.0
C833 C 0.76414 0.58317 0.36916 0.0
C834 C 0.2833 0.46973 0.13737 0.0
C835 C 0.28392 0.54209 0.13407 0.0
H836 H 0.26398 0.37883 0.13726 0.0
C837 C 0.26459 0.57855 0.13513 0.0
H838 H 0.29775 0.43975 0.13607 0.0
C839 C 0.24514 0.54359 0.13583 0.0
C840 C 0.24452 0.47111 0.13504 0.0
H841 H 0.26447 0.6344 0.13282 0.0
H842 H 0.2307 0.57347 0.13328 0.0
C843 C 0.26385 0.43477 0.13763 0.0
C844 C 0.24492 0.47372 0.64476 0.0
C845 C 0.24465 0.54623 0.64456 0.0
H846 H 0.26378 0.38204 0.64124 0.0
C847 C 0.26418 0.5815 0.64772 0.0
H848 H 0.23035 0.44455 0.64184 0.0
C849 C 0.28346 0.5456 0.64717 0.0
C850 C 0.28375 0.4733 0.64318 0.0
H851 H 0.26461 0.63742 0.64793 0.0
H852 H 0.29804 0.57497 0.64616 0.0
C853 C 0.26421 0.43784 0.64398 0.0
C854 C 0.76459 0.57495 0.88537 0.0
C855 C 0.78405 0.53946 0.8815 0.0
H856 H 0.73073 0.5682 0.88854 0.0
C857 C 0.78356 0.46849 0.87049 0.0
H858 H 0.76433 0.62977 0.89359 0.0
C859 C 0.76421 0.43322 0.86744 0.0
C860 C 0.7448 0.46784 0.87501 0.0
H861 H 0.79807 0.43903 0.86776 0.0
H862 H 0.7645 0.37782 0.86174 0.0
C863 C 0.74523 0.53972 0.88201 0.0
C864 C 0.15622 1.00694 0.19283 0.0
C865 C 0.14103 0.98345 0.22804 0.0
H866 H 0.16752 1.00477 0.1157 0.0
C867 C 0.12559 0.93609 0.21123 0.0
H868 H 0.16837 0.04323 0.20444 0.0
C869 C 0.12512 0.9138 0.16023 0.0
C870 C 0.1401 0.93821 0.12483 0.0
H871 H 0.1137 0.91661 0.23735 0.0
H872 H 0.11277 0.87841 0.14837 0.0
C873 C 0.15578 0.98449 0.14192 0.0
C874 C 0.375 0.03093 0.14154 0.0
C875 C 0.3907 0.07728 0.12469 0.0
H876 H 0.36232 0.97204 0.20382 0.0
C877 C 0.40564 0.10157 0.16029 0.0
H878 H 0.36331 0.01069 0.11516 0.0
C879 C 0.40507 0.07921 0.21129 0.0
C880 C 0.3896 0.03182 0.22786 0.0
H881 H 0.418 0.13701 0.14862 0.0
H882 H 0.41691 0.09865 0.2376 0.0
C883 C 0.37449 0.00834 0.19241 0.0
C884 C 0.6577 0.009 0.32346 0.0
C885 C 0.64278 0.03366 0.28799 0.0
H886 H 0.66842 0.00892 0.40117 0.0
C887 C 0.62733 0.08087 0.3048 0.0
H888 H 0.66982 0.9727 0.31184 0.0
C889 C 0.62654 0.10186 0.35603 0.0
C890 C 0.6412 0.07621 0.39173 0.0
H891 H 0.61565 0.10125 0.27849 0.0
H892 H 0.61419 0.13721 0.36779 0.0
C893 C 0.65693 0.03008 0.37469 0.0
C894 C 0.87517 0.98798 0.37548 0.0
C895 C 0.89096 0.94233 0.39284 0.0
H896 H 0.86232 0.04515 0.31256 0.0
C897 C 0.90589 0.91746 0.35749 0.0
H898 H 0.86349 0.00862 0.40165 0.0
C899 C 0.9052 0.93853 0.30619 0.0
C900 C 0.88964 0.98523 0.28912 0.0
H901 H 0.9183 0.88248 0.36957 0.0
H902 H 0.91702 0.91871 0.28005 0.0
C903 C 0.87456 0.00932 0.32435 0.0
C904 C 0.90523 0.07639 0.80625 0.0
C905 C 0.88962 0.02985 0.78913 0.0
H906 H 0.91836 0.13228 0.86965 0.0
C907 C 0.87449 1.00591 0.82432 0.0
H908 H 0.91709 0.0961 0.78015 0.0
C909 C 0.8751 0.02721 0.87545 0.0
C910 C 0.89094 0.0727 0.89285 0.0
H911 H 0.86221 0.9702 0.8125 0.0
H912 H 0.86338 1.00668 0.90159 0.0
C913 C 0.90591 0.09744 0.85754 0.0
C914 C 0.6578 1.0076 0.82331 0.0
C915 C 0.64288 0.98287 0.78788 0.0
H916 H 0.66855 1.0077 0.901 0.0
C917 C 0.62745 0.93554 0.80471 0.0
H918 H 0.66991 0.04399 0.81166 0.0
C919 C 0.62669 0.9145 0.85594 0.0
C920 C 0.64135 0.94024 0.89161 0.0
H921 H 0.61576 0.9151 0.77842 0.0
H922 H 0.61435 0.87907 0.86773 0.0
C923 C 0.65706 0.98647 0.87454 0.0
C924 C 0.37292 0.00994 0.69382 0.0
C925 C 0.3877 0.98444 0.72929 0.0
H926 H 0.36241 0.01161 0.61598 0.0
C927 C 0.4032 0.93758 0.71222 0.0
H928 H 0.36078 0.04605 0.7056 0.0
C929 C 0.40415 0.91769 0.66075 0.0
C930 C 0.38958 0.94405 0.62512 0.0
H931 H 0.41481 0.91666 0.73853 0.0
H932 H 0.41652 0.88252 0.64878 0.0
C933 C 0.37382 0.98988 0.64239 0.0
C934 C 0.15676 0.02788 0.64258 0.0
C935 C 0.14104 0.07385 0.62525 0.0
H936 H 0.16977 0.97161 0.70587 0.0
C937 C 0.12651 0.10041 0.66085 0.0
H938 H 0.16815 1.00603 0.61619 0.0
C939 C 0.12745 0.08051 0.71232 0.0
C940 C 0.1429 0.03347 0.72944 0.0
H941 H 0.11417 0.1357 0.64884 0.0
H942 H 0.11587 0.10155 0.73859 0.0
C943 C 0.15766 1.00784 0.69403 0.0
C944 C 0.62412 0.43971 0.21079 0.0
C945 C 0.63971 0.48625 0.22793 0.0
H946 H 0.611 0.38381 0.14736 0.0
C947 C 0.65486 0.51021 0.19278 0.0
H948 H 0.61224 0.41998 0.23687 0.0
C949 C 0.65426 0.48891 0.14164 0.0
C950 C 0.63843 0.44341 0.12421 0.0
H951 H 0.66713 0.54592 0.20462 0.0
H952 H 0.66599 0.50945 0.11553 0.0
C953 C 0.62345 0.41866 0.15949 0.0
C954 C 0.90187 0.58051 0.21235 0.0
C955 C 0.88644 0.53315 0.22915 0.0
H956 H 0.91499 0.63698 0.14935 0.0
C957 C 0.87154 0.50838 0.19368 0.0
H958 H 0.91354 0.60097 0.23867 0.0
C959 C 0.8723 0.52949 0.14245 0.0
C960 C 0.88801 0.57575 0.12542 0.0
H961 H 0.85944 0.47197 0.20531 0.0
H962 H 0.86082 0.50823 0.11597 0.0
C963 C 0.90265 0.60153 0.16112 0.0
C964 C 0.12518 0.59863 0.35669 0.0
C965 C 0.13973 0.57226 0.39237 0.0
H966 H 0.11456 0.59969 0.27888 0.0
C967 C 0.15549 0.52644 0.37513 0.0
H968 H 0.1128 0.63381 0.36863 0.0
C969 C 0.15642 0.50639 0.32371 0.0
C970 C 0.14166 0.5319 0.28819 0.0
H971 H 0.16689 0.5047 0.40158 0.0
H972 H 0.16857 0.47027 0.31196 0.0
C973 C 0.12615 0.57877 0.30522 0.0
C974 C 0.40187 0.43586 0.30515 0.0
C975 C 0.38645 0.483 0.28801 0.0
H976 H 0.4151 0.38058 0.36866 0.0
C977 C 0.3717 0.50872 0.3234 0.0
H978 H 0.41344 0.41474 0.27891 0.0
C979 C 0.37257 0.48868 0.37485 0.0
C980 C 0.38826 0.44261 0.3922 0.0
H981 H 0.35962 0.54504 0.31154 0.0
H982 H 0.36119 0.51061 0.40122 0.0
C983 C 0.40278 0.41595 0.35663 0.0
C984 C 0.40375 0.58013 0.80619 0.0
C985 C 0.3883 0.53282 0.78942 0.0
H986 H 0.41662 0.63776 0.86901 0.0
C987 C 0.37312 0.50938 0.82466 0.0
H988 H 0.41564 0.59956 0.78003 0.0
C989 C 0.37358 0.53182 0.87557 0.0
C990 C 0.38928 0.57806 0.89262 0.0
H991 H 0.36095 0.47313 0.81308 0.0
H992 H 0.36185 0.51159 0.90182 0.0
C993 C 0.40426 0.60241 0.85719 0.0
C994 C 0.15485 0.50811 0.825 0.0
C995 C 0.13972 0.4846 0.7896 0.0
H996 H 0.16606 0.50581 0.90223 0.0
C997 C 0.12428 0.43717 0.80621 0.0
H998 H 0.16701 0.54444 0.81356 0.0
C999 C 0.12373 0.41483 0.85721 0.0
C1000 C 0.13867 0.43917 0.89278 0.0
H1001 H 0.11243 0.4177 0.77993 0.0
H1002 H 0.11138 0.37937 0.86892 0.0
C1003 C 0.15436 0.48555 0.87588 0.0
C1004 C 0.90203 0.43536 0.71221 0.0
C1005 C 0.88655 0.48244 0.72907 0.0
H1006 H 0.91518 0.37909 0.64919 0.0
C1007 C 0.87159 0.50693 0.69366 0.0
H1008 H 0.91376 0.41512 0.73848 0.0
C1009 C 0.87234 0.48581 0.64243 0.0
C1010 C 0.88809 0.43982 0.62535 0.0
H1011 H 0.85945 0.54311 0.70532 0.0
H1012 H 0.86081 0.50684 0.61599 0.0
C1013 C 0.9028 0.41433 0.661 0.0
C1014 C 0.65412 0.52803 0.64151 0.0
C1015 C 0.63833 0.5737 0.62419 0.0
H1016 H 0.66699 0.47085 0.70441 0.0
C1017 C 0.62343 0.59861 0.65957 0.0
H1018 H 0.66579 0.50736 0.61532 0.0
C1019 C 0.62413 0.57755 0.71087 0.0
C1020 C 0.63969 0.53083 0.72791 0.0
H1021 H 0.61102 0.63361 0.64751 0.0
H1022 H 0.61232 0.5974 0.73703 0.0
C1023 C 0.65475 0.5067 0.69265 0.0
C1024 C 0.16037 0.22716 0.22617 0.0
C1025 C 0.14875 0.2848 0.20856 0.0
H1026 H 0.16984 0.16578 0.29114 0.0
C1027 C 0.13736 0.32381 0.24414 0.0
H1028 H 0.1692 0.19571 0.19938 0.0
C1029 C 0.13697 0.30462 0.29567 0.0
C1030 C 0.14784 0.24551 0.31327 0.0
H1031 H 0.12757 0.36651 0.23168 0.0
H1032 H 0.12736 0.33504 0.32156 0.0
C1033 C 0.1602 0.20841 0.27828 0.0
C1034 C 0.39304 0.70988 0.2949 0.0
C1035 C 0.38263 0.76925 0.31356 0.0
H1036 H 0.40115 0.6478 0.23008 0.0
C1037 C 0.36963 0.80641 0.2799 0.0
H1038 H 0.40309 0.67933 0.31976 0.0
C1039 C 0.36848 0.78764 0.22787 0.0
C1040 C 0.37971 0.72992 0.20908 0.0
H1041 H 0.3603 0.84916 0.29371 0.0
H1042 H 0.35921 0.81926 0.20201 0.0
C1043 C 0.39165 0.69066 0.24349 0.0
C1044 C 0.65943 0.71076 0.27902 0.0
C1045 C 0.64581 0.74728 0.31159 0.0
H1046 H 0.67105 0.69869 0.20207 0.0
C1047 C 0.63534 0.806 0.29195 0.0
H1048 H 0.66877 0.66848 0.29361 0.0
C1049 C 0.63738 0.8254 0.24074 0.0
C1050 C 0.65002 0.78694 0.20735 0.0
H1051 H 0.62481 0.83608 0.31588 0.0
H1052 H 0.62792 0.86797 0.22662 0.0
C1053 C 0.66124 0.72969 0.22709 0.0
C1054 C 0.87004 0.21004 0.23807 0.0
C1055 C 0.88366 0.24668 0.20552 0.0
H1056 H 0.85841 0.19781 0.31501 0.0
C1057 C 0.89408 0.30551 0.22516 0.0
H1058 H 0.86072 0.1677 0.22348 0.0
C1059 C 0.89201 0.32489 0.27636 0.0
C1060 C 0.87939 0.28627 0.30973 0.0
H1061 H 0.9046 0.33569 0.20125 0.0
H1062 H 0.90143 0.36754 0.29049 0.0
C1063 C 0.86821 0.22892 0.28999 0.0
C1064 C 0.89398 0.71009 0.72511 0.0
C1065 C 0.8835 0.76881 0.70551 0.0
H1066 H 0.90142 0.64812 0.79043 0.0
C1067 C 0.8699 0.80532 0.73811 0.0
H1068 H 0.9045 0.68002 0.70116 0.0
C1069 C 0.86811 0.78639 0.79004 0.0
C1070 C 0.87933 0.72913 0.80975 0.0
H1071 H 0.86054 0.8476 0.72355 0.0
H1072 H 0.8583 0.81738 0.81508 0.0
C1073 C 0.89196 0.69068 0.77633 0.0
C1074 C 0.65928 0.30599 0.77893 0.0
C1075 C 0.64566 0.26937 0.81148 0.0
H1076 H 0.67092 0.31818 0.70199 0.0
C1077 C 0.63524 0.21056 0.79185 0.0
H1078 H 0.66861 0.34832 0.79351 0.0
C1079 C 0.6373 0.19116 0.74065 0.0
C1080 C 0.64993 0.22976 0.70727 0.0
H1081 H 0.62471 0.18039 0.81576 0.0
H1082 H 0.62787 0.14852 0.72653 0.0
C1083 C 0.66111 0.28709 0.72701 0.0
C1084 C 0.39236 0.21175 0.72183 0.0
C1085 C 0.38147 0.27082 0.70424 0.0
H1086 H 0.40178 0.14989 0.7858 0.0
C1087 C 0.3691 0.3079 0.73925 0.0
H1088 H 0.40197 0.18136 0.69593 0.0
C1089 C 0.36896 0.28915 0.79136 0.0
C1090 C 0.38059 0.23154 0.80895 0.0
H1091 H 0.35946 0.35051 0.7264 0.0
H1092 H 0.36012 0.32058 0.81816 0.0
C1093 C 0.39198 0.19256 0.77336 0.0
C1094 C 0.13628 0.80649 0.72256 0.0
C1095 C 0.14667 0.74712 0.70385 0.0
H1096 H 0.12825 0.86863 0.78741 0.0
C1097 C 0.15971 0.70998 0.73744 0.0
H1098 H 0.12621 0.83703 0.69776 0.0
C1099 C 0.16092 0.72878 0.78946 0.0
C1100 C 0.14971 0.78651 0.80831 0.0
H1101 H 0.16903 0.66723 0.72358 0.0
H1102 H 0.17022 0.69719 0.81526 0.0
C1103 C 0.13773 0.82575 0.77396 0.0
loop_
_geom_bond_atom_site_label_1
_geom_bond_atom_site_label_2
_geom_bond_distance
_geom_bond_site_symmetry_2
_ccdc_geom_bond_type
Zn0 N4 2.020 . S
Zn0 O8 2.019 . S
Zn0 N10 2.119 . S
Zn0 O18 1.975 1_545 S
C1 N2 1.334 . S
C1 N5 1.336 . S
N2 C1 1.334 . S
N2 C3 1.334 . S
C3 N2 1.334 . S
C3 N4 1.336 . S
N4 Zn0 2.020 . S
N4 C3 1.336 . S
N4 N5 1.354 . S
N5 C1 1.336 . S
N5 N4 1.354 . S
N5 Zn9 2.020 . S
C6 O7 1.244 1_565 S
C6 O30 1.257 . S
O7 C6 1.244 1_545 S
O8 Zn0 2.019 . S
O8 C28 1.257 . S
Zn9 N5 2.020 . S
Zn9 O16 1.975 1_545 S
Zn9 N25 2.119 . S
Zn9 O30 2.019 1_545 S
N10 Zn0 2.119 . S
N10 C12 1.334 . S
N10 C13 1.328 . S
C11 C12 1.391 1_565 S
C11 N14 1.329 1_565 S
C11 H32 0.930 . S
C12 N10 1.334 . S
C12 C11 1.391 1_545 S
C12 H19 0.930 . S
C13 N10 1.328 . S
C13 C15 1.392 . S
C13 H20 0.930 . S
N14 C11 1.329 1_545 S
N14 C15 1.331 . S
C15 C13 1.392 . S
C15 N14 1.331 . S
O16 Zn9 1.975 1_565 S
O16 C17 1.252 . S
C17 O16 1.252 . S
C17 O18 1.252 . S
O18 Zn0 1.975 1_565 S
O18 C17 1.252 . S
H19 C12 0.930 . S
H20 C13 0.930 . S
C21 C22 1.392 . S
C21 N25 1.328 . S
C21 H27 0.930 . S
C22 C21 1.392 . S
C22 N26 1.331 . S
C23 C24 1.391 . S
C23 N26 1.329 . S
C23 H33 0.930 . S
C24 C23 1.391 . S
C24 N25 1.334 . S
C24 H31 0.930 . S
N25 Zn9 2.119 . S
N25 C21 1.328 . S
N25 C24 1.334 . S
N26 C22 1.331 . S
N26 C23 1.329 . S
H27 C21 0.930 . S
C28 O8 1.257 . S
C28 O29 1.244 . S
O29 C28 1.244 . S
O30 C6 1.257 . S
O30 Zn9 2.019 1_565 S
H31 C24 0.930 . S
H32 C11 0.930 . S
H33 C23 0.930 . S
Zn34 N38 2.020 . S
Zn34 O42 2.019 . S
Zn34 N44 2.119 . S
Zn34 O52 1.975 1_565 S
C35 N36 1.334 . S
C35 N39 1.336 . S
N36 C35 1.334 . S
N36 C37 1.334 . S
C37 N36 1.334 . S
C37 N38 1.336 . S
N38 Zn34 2.020 . S
N38 C37 1.336 . S
N38 N39 1.354 . S
N39 C35 1.336 . S
N39 N38 1.354 . S
N39 Zn43 2.020 . S
C40 O41 1.244 1_545 S
C40 O64 1.257 . S
O41 C40 1.244 1_565 S
O42 Zn34 2.019 . S
O42 C62 1.257 . S
Zn43 N39 2.020 . S
Zn43 O50 1.975 1_565 S
Zn43 N59 2.119 . S
Zn43 O64 2.019 1_565 S
N44 Zn34 2.119 . S
N44 C46 1.334 . S
N44 C47 1.328 . S
C45 C46 1.391 1_545 S
C45 N48 1.329 1_545 S
C45 H66 0.930 . S
C46 N44 1.334 . S
C46 C45 1.391 1_565 S
C46 H53 0.930 . S
C47 N44 1.328 . S
C47 C49 1.392 . S
C47 H54 0.930 . S
N48 C45 1.329 1_565 S
N48 C49 1.331 . S
C49 C47 1.392 . S
C49 N48 1.331 . S
O50 Zn43 1.975 1_545 S
O50 C51 1.252 . S
C51 O50 1.252 . S
C51 O52 1.252 . S
O52 Zn34 1.975 1_545 S
O52 C51 1.252 . S
H53 C46 0.930 . S
H54 C47 0.930 . S
C55 C56 1.392 . S
C55 N59 1.328 . S
C55 H61 0.930 . S
C56 C55 1.392 . S
C56 N60 1.331 . S
C57 C58 1.391 . S
C57 N60 1.329 . S
C57 H67 0.930 . S
C58 C57 1.391 . S
C58 N59 1.334 . S
C58 H65 0.930 . S
N59 Zn43 2.119 . S
N59 C55 1.328 . S
N59 C58 1.334 . S
N60 C56 1.331 . S
N60 C57 1.329 . S
H61 C55 0.930 . S
C62 O42 1.257 . S
C62 O63 1.244 . S
O63 C62 1.244 . S
O64 C40 1.257 . S
O64 Zn43 2.019 1_545 S
H65 C58 0.930 . S
H66 C45 0.930 . S
H67 C57 0.930 . S
Zn68 N72 2.020 . S
Zn68 O76 2.019 1_554 S
Zn68 N78 2.119 . S
Zn68 O86 1.975 1_565 S
C69 N70 1.334 . S
C69 N73 1.336 . S
N70 C69 1.334 . S
N70 C71 1.334 . S
C71 N70 1.334 . S
C71 N72 1.336 . S
N72 Zn68 2.020 . S
N72 C71 1.336 . S
N72 N73 1.354 . S
N73 C69 1.336 . S
N73 N72 1.354 . S
N73 Zn77 2.020 . S
C74 O75 1.244 1_545 S
C74 O98 1.257 . S
O75 C74 1.244 1_565 S
O76 Zn68 2.019 1_556 S
O76 C96 1.257 . S
Zn77 N73 2.020 . S
Zn77 O84 1.975 1_565 S
Zn77 N93 2.119 . S
Zn77 O98 2.019 1_565 S
N78 Zn68 2.119 . S
N78 C80 1.334 . S
N78 C81 1.328 . S
C79 C80 1.391 1_545 S
C79 N82 1.329 1_545 S
C79 H100 0.930 . S
C80 N78 1.334 . S
C80 C79 1.391 1_565 S
C80 H87 0.930 . S
C81 N78 1.328 . S
C81 C83 1.392 . S
C81 H88 0.930 1_554 S
N82 C79 1.329 1_565 S
N82 C83 1.331 . S
C83 C81 1.392 . S
C83 N82 1.331 . S
O84 Zn77 1.975 1_545 S
O84 C85 1.252 . S
C85 O84 1.252 . S
C85 O86 1.252 . S
O86 Zn68 1.975 1_545 S
O86 C85 1.252 . S
H87 C80 0.930 . S
H88 C81 0.930 1_556 S
C89 C90 1.392 . S
C89 N93 1.328 . S
C89 H95 0.930 . S
C90 C89 1.392 . S
C90 N94 1.331 . S
C91 C92 1.391 . S
C91 N94 1.329 . S
C91 H101 0.930 . S
C92 C91 1.391 . S
C92 N93 1.334 . S
C92 H99 0.930 . S
N93 Zn77 2.119 . S
N93 C89 1.328 . S
N93 C92 1.334 . S
N94 C90 1.331 . S
N94 C91 1.329 . S
H95 C89 0.930 . S
C96 O76 1.257 . S
C96 O97 1.244 . S
O97 C96 1.244 . S
O98 C74 1.257 . S
O98 Zn77 2.019 1_545 S
H99 C92 0.930 . S
H100 C79 0.930 . S
H101 C91 0.930 . S
Zn102 N106 2.020 . S
Zn102 O110 2.019 1_554 S
Zn102 N112 2.119 . S
Zn102 O120 1.975 1_545 S
C103 N104 1.334 . S
C103 N107 1.336 . S
N104 C103 1.334 . S
N104 C105 1.334 . S
C105 N104 1.334 . S
C105 N106 1.336 . S
N106 Zn102 2.020 . S
N106 C105 1.336 . S
N106 N107 1.354 . S
N107 C103 1.336 . S
N107 N106 1.354 . S
N107 Zn111 2.020 . S
C108 O109 1.244 1_565 S
C108 O132 1.257 . S
O109 C108 1.244 1_545 S
O110 Zn102 2.019 1_556 S
O110 C130 1.257 . S
Zn111 N107 2.020 . S
Zn111 O118 1.975 1_545 S
Zn111 N127 2.119 . S
Zn111 O132 2.019 1_545 S
N112 Zn102 2.119 . S
N112 C114 1.334 . S
N112 C115 1.328 . S
C113 C114 1.391 1_565 S
C113 N116 1.329 1_565 S
C113 H134 0.930 . S
C114 N112 1.334 . S
C114 C113 1.391 1_545 S
C114 H121 0.930 . S
C115 N112 1.328 . S
C115 C117 1.392 . S
C115 H122 0.930 1_554 S
N116 C113 1.329 1_545 S
N116 C117 1.331 . S
C117 C115 1.392 . S
C117 N116 1.331 . S
O118 Zn111 1.975 1_565 S
O118 C119 1.252 . S
C119 O118 1.252 . S
C119 O120 1.252 . S
O120 Zn102 1.975 1_565 S
O120 C119 1.252 . S
H121 C114 0.930 . S
H122 C115 0.930 1_556 S
C123 C124 1.392 . S
C123 N127 1.328 . S
C123 H129 0.930 . S
C124 C123 1.392 . S
C124 N128 1.331 . S
C125 C126 1.391 . S
C125 N128 1.329 . S
C125 H135 0.930 . S
C126 C125 1.391 . S
C126 N127 1.334 . S
C126 H133 0.930 . S
N127 Zn111 2.119 . S
N127 C123 1.328 . S
N127 C126 1.334 . S
N128 C124 1.331 . S
N128 C125 1.329 . S
H129 C123 0.930 . S
C130 O110 1.257 . S
C130 O131 1.244 . S
O131 C130 1.244 . S
O132 C108 1.257 . S
O132 Zn111 2.019 1_565 S
H133 C126 0.930 . S
H134 C113 0.930 . S
H135 C125 0.930 . S
Zn136 N140 2.020 . S
Zn136 O144 2.019 . S
Zn136 N146 2.119 . S
Zn136 O154 1.975 1_565 S
C137 N138 1.334 . S
C137 N141 1.336 . S
N138 C137 1.334 . S
N138 C139 1.334 . S
C139 N138 1.334 . S
C139 N140 1.336 . S
N140 Zn136 2.020 . S
N140 C139 1.336 . S
N140 N141 1.354 . S
N141 C137 1.336 . S
N141 N140 1.354 . S
N141 Zn145 2.020 . S
C142 O143 1.244 1_545 S
C142 O166 1.257 . S
O143 C142 1.244 1_565 S
O144 Zn136 2.019 . S
O144 C164 1.257 . S
Zn145 N141 2.020 . S
Zn145 O152 1.975 1_565 S
Zn145 N161 2.119 . S
Zn145 O166 2.019 1_565 S
N146 Zn136 2.119 . S
N146 C148 1.334 . S
N146 C149 1.328 . S
C147 C148 1.391 1_545 S
C147 N150 1.329 1_545 S
C147 H168 0.930 . S
C148 N146 1.334 . S
C148 C147 1.391 1_565 S
C148 H155 0.930 . S
C149 N146 1.328 . S
C149 C151 1.392 . S
C149 H156 0.930 . S
N150 C147 1.329 1_565 S
N150 C151 1.331 . S
C151 C149 1.392 . S
C151 N150 1.331 . S
O152 Zn145 1.975 1_545 S
O152 C153 1.252 . S
C153 O152 1.252 . S
C153 O154 1.252 . S
O154 Zn136 1.975 1_545 S
O154 C153 1.252 . S
H155 C148 0.930 . S
H156 C149 0.930 . S
C157 C158 1.392 . S
C157 N161 1.328 . S
C157 H163 0.930 . S
C158 C157 1.392 . S
C158 N162 1.331 . S
C159 C160 1.391 . S
C159 N162 1.329 . S
C159 H169 0.930 . S
C160 C159 1.391 . S
C160 N161 1.334 . S
C160 H167 0.930 . S
N161 Zn145 2.119 . S
N161 C157 1.328 . S
N161 C160 1.334 . S
N162 C158 1.331 . S
N162 C159 1.329 . S
H163 C157 0.930 . S
C164 O144 1.257 . S
C164 O165 1.244 . S
O165 C164 1.244 . S
O166 C142 1.257 . S
O166 Zn145 2.019 1_545 S
H167 C160 0.930 . S
H168 C147 0.930 . S
H169 C159 0.930 . S
Zn170 N174 2.020 . S
Zn170 O178 2.019 . S
Zn170 N180 2.119 . S
Zn170 O188 1.975 1_545 S
C171 N172 1.334 . S
C171 N175 1.336 . S
N172 C171 1.334 . S
N172 C173 1.334 . S
C173 N172 1.334 . S
C173 N174 1.336 . S
N174 Zn170 2.020 . S
N174 C173 1.336 . S
N174 N175 1.354 . S
N175 C171 1.336 . S
N175 N174 1.354 . S
N175 Zn179 2.020 . S
C176 O177 1.244 1_565 S
C176 O200 1.257 . S
O177 C176 1.244 1_545 S
O178 Zn170 2.019 . S
O178 C198 1.257 . S
Zn179 N175 2.020 . S
Zn179 O186 1.975 1_545 S
Zn179 N195 2.119 . S
Zn179 O200 2.019 1_545 S
N180 Zn170 2.119 . S
N180 C182 1.334 . S
N180 C183 1.328 . S
C181 C182 1.391 1_565 S
C181 N184 1.329 1_565 S
C181 H202 0.930 . S
C182 N180 1.334 . S
C182 C181 1.391 1_545 S
C182 H189 0.930 . S
C183 N180 1.328 . S
C183 C185 1.392 . S
C183 H190 0.930 . S
N184 C181 1.329 1_545 S
N184 C185 1.331 . S
C185 C183 1.392 . S
C185 N184 1.331 . S
O186 Zn179 1.975 1_565 S
O186 C187 1.252 . S
C187 O186 1.252 . S
C187 O188 1.252 . S
O188 Zn170 1.975 1_565 S
O188 C187 1.252 . S
H189 C182 0.930 . S
H190 C183 0.930 . S
C191 C192 1.392 . S
C191 N195 1.328 . S
C191 H197 0.930 . S
C192 C191 1.392 . S
C192 N196 1.331 . S
C193 C194 1.391 . S
C193 N196 1.329 . S
C193 H203 0.930 . S
C194 C193 1.391 . S
C194 N195 1.334 . S
C194 H201 0.930 . S
N195 Zn179 2.119 . S
N195 C191 1.328 . S
N195 C194 1.334 . S
N196 C192 1.331 . S
N196 C193 1.329 . S
H197 C191 0.930 . S
C198 O178 1.257 . S
C198 O199 1.244 . S
O199 C198 1.244 . S
O200 C176 1.257 . S
O200 Zn179 2.019 1_565 S
H201 C194 0.930 . S
H202 C181 0.930 . S
H203 C193 0.930 . S
Zn204 N208 2.020 . S
Zn204 O212 2.019 1_545 S
Zn204 N214 2.119 . S
Zn204 O222 1.975 1_545 S
C205 N206 1.334 . S
C205 N209 1.336 . S
N206 C205 1.334 . S
N206 C207 1.334 . S
C207 N206 1.334 . S
C207 N208 1.336 . S
N208 Zn204 2.020 . S
N208 C207 1.336 . S
N208 N209 1.354 . S
N209 C205 1.336 . S
N209 N208 1.354 . S
N209 Zn213 2.020 . S
C210 O211 1.244 . S
C210 O234 1.257 . S
O211 C210 1.244 . S
O212 Zn204 2.019 1_565 S
O212 C232 1.257 . S
Zn213 N209 2.020 . S
Zn213 O220 1.975 1_545 S
Zn213 N229 2.119 . S
Zn213 O234 2.019 1_556 S
N214 Zn204 2.119 . S
N214 C216 1.334 . S
N214 C217 1.328 . S
C215 C216 1.391 . S
C215 N218 1.329 . S
C215 H236 0.930 . S
C216 N214 1.334 . S
C216 C215 1.391 . S
C216 H223 0.930 . S
C217 N214 1.328 . S
C217 C219 1.392 . S
C217 H224 0.930 . S
N218 C215 1.329 . S
N218 C219 1.331 . S
C219 C217 1.392 . S
C219 N218 1.331 . S
O220 Zn213 1.975 1_565 S
O220 C221 1.252 . S
C221 O220 1.252 . S
C221 O222 1.252 . S
O222 Zn204 1.975 1_565 S
O222 C221 1.252 . S
H223 C216 0.930 . S
H224 C217 0.930 . S
C225 C226 1.392 . S
C225 N229 1.328 . S
C225 H231 0.930 1_556 S
C226 C225 1.392 . S
C226 N230 1.331 . S
C227 C228 1.391 1_565 S
C227 N230 1.329 1_565 S
C227 H237 0.930 . S
C228 C227 1.391 1_545 S
C228 N229 1.334 . S
C228 H235 0.930 . S
N229 Zn213 2.119 . S
N229 C225 1.328 . S
N229 C228 1.334 . S
N230 C226 1.331 . S
N230 C227 1.329 1_545 S
H231 C225 0.930 1_554 S
C232 O212 1.257 . S
C232 O233 1.244 1_565 S
O233 C232 1.244 1_545 S
O234 C210 1.257 . S
O234 Zn213 2.019 1_554 S
H235 C228 0.930 . S
H236 C215 0.930 . S
H237 C227 0.930 . S
Zn238 N242 2.020 . S
Zn238 O246 2.019 1_556 S
Zn238 N248 2.119 . S
Zn238 O256 1.975 1_565 S
C239 N240 1.334 . S
C239 N243 1.336 . S
N240 C239 1.334 . S
N240 C241 1.334 . S
C241 N240 1.334 . S
C241 N242 1.336 . S
N242 Zn238 2.020 . S
N242 C241 1.336 . S
N242 N243 1.354 . S
N243 C239 1.336 . S
N243 N242 1.354 . S
N243 Zn247 2.020 . S
C244 O245 1.244 1_545 S
C244 O268 1.257 . S
O245 C244 1.244 1_565 S
O246 Zn238 2.019 1_554 S
O246 C266 1.257 . S
Zn247 N243 2.020 . S
Zn247 O254 1.975 1_565 S
Zn247 N263 2.119 . S
Zn247 O268 2.019 1_565 S
N248 Zn238 2.119 . S
N248 C250 1.334 . S
N248 C251 1.328 . S
C249 C250 1.391 1_545 S
C249 N252 1.329 1_545 S
C249 H270 0.930 . S
C250 N248 1.334 . S
C250 C249 1.391 1_565 S
C250 H257 0.930 . S
C251 N248 1.328 . S
C251 C253 1.392 . S
C251 H258 0.930 1_556 S
N252 C249 1.329 1_565 S
N252 C253 1.331 . S
C253 C251 1.392 . S
C253 N252 1.331 . S
O254 Zn247 1.975 1_545 S
O254 C255 1.252 . S
C255 O254 1.252 . S
C255 O256 1.252 . S
O256 Zn238 1.975 1_545 S
O256 C255 1.252 . S
H257 C250 0.930 . S
H258 C251 0.930 1_554 S
C259 C260 1.392 . S
C259 N263 1.328 . S
C259 H265 0.930 . S
C260 C259 1.392 . S
C260 N264 1.331 . S
C261 C262 1.391 . S
C261 N264 1.329 . S
C261 H271 0.930 . S
C262 C261 1.391 . S
C262 N263 1.334 . S
C262 H269 0.930 . S
N263 Zn247 2.119 . S
N263 C259 1.328 . S
N263 C262 1.334 . S
N264 C260 1.331 . S
N264 C261 1.329 . S
H265 C259 0.930 . S
C266 O246 1.257 . S
C266 O267 1.244 . S
O267 C266 1.244 . S
O268 C244 1.257 . S
O268 Zn247 2.019 1_545 S
H269 C262 0.930 . S
H270 C249 0.930 . S
H271 C261 0.930 . S
Zn272 N276 2.020 . S
Zn272 O280 2.019 . S
Zn272 N282 2.119 . S
Zn272 O290 1.975 . S
C273 N274 1.334 . S
C273 N277 1.336 . S
N274 C273 1.334 . S
N274 C275 1.334 . S
C275 N274 1.334 . S
C275 N276 1.336 . S
N276 Zn272 2.020 . S
N276 C275 1.336 . S
N276 N277 1.354 . S
N277 C273 1.336 . S
N277 N276 1.354 . S
N277 Zn281 2.020 . S
C278 O279 1.244 . S
C278 O302 1.257 . S
O279 C278 1.244 . S
O280 Zn272 2.019 . S
O280 C300 1.257 . S
Zn281 N277 2.020 . S
Zn281 O288 1.975 . S
Zn281 N297 2.119 . S
Zn281 O302 2.019 . S
N282 Zn272 2.119 . S
N282 C284 1.334 . S
N282 C285 1.328 . S
C283 C284 1.391 . S
C283 N286 1.329 . S
C283 H304 0.930 . S
C284 N282 1.334 . S
C284 C283 1.391 . S
C284 H291 0.930 . S
C285 N282 1.328 . S
C285 C287 1.392 . S
C285 H292 0.930 . S
N286 C283 1.329 . S
N286 C287 1.331 . S
C287 C285 1.392 . S
C287 N286 1.331 . S
O288 Zn281 1.975 . S
O288 C289 1.252 . S
C289 O288 1.252 . S
C289 O290 1.252 . S
O290 Zn272 1.975 . S
O290 C289 1.252 . S
H291 C284 0.930 . S
H292 C285 0.930 . S
C293 C294 1.392 . S
C293 N297 1.328 . S
C293 H299 0.930 . S
C294 C293 1.392 . S
C294 N298 1.331 . S
C295 C296 1.391 . S
C295 N298 1.329 . S
C295 H305 0.930 . S
C296 C295 1.391 . S
C296 N297 1.334 . S
C296 H303 0.930 . S
N297 Zn281 2.119 . S
N297 C293 1.328 . S
N297 C296 1.334 . S
N298 C294 1.331 . S
N298 C295 1.329 . S
H299 C293 0.930 . S
C300 O280 1.257 . S
C300 O301 1.244 . S
O301 C300 1.244 . S
O302 C278 1.257 . S
O302 Zn281 2.019 . S
H303 C296 0.930 . S
H304 C283 0.930 . S
H305 C295 0.930 . S
Zn306 N310 2.020 . S
Zn306 O314 2.019 . S
Zn306 N316 2.119 . S
Zn306 O324 1.975 . S
C307 N308 1.334 . S
C307 N311 1.336 . S
N308 C307 1.334 . S
N308 C309 1.334 . S
C309 N308 1.334 . S
C309 N310 1.336 . S
N310 Zn306 2.020 . S
N310 C309 1.336 . S
N310 N311 1.354 . S
N311 C307 1.336 . S
N311 N310 1.354 . S
N311 Zn315 2.020 . S
C312 O313 1.244 . S
C312 O336 1.257 . S
O313 C312 1.244 . S
O314 Zn306 2.019 . S
O314 C334 1.257 . S
Zn315 N311 2.020 . S
Zn315 O322 1.975 . S
Zn315 N331 2.119 . S
Zn315 O336 2.019 . S
N316 Zn306 2.119 . S
N316 C318 1.334 . S
N316 C319 1.328 . S
C317 C318 1.391 . S
C317 N320 1.329 . S
C317 H338 0.930 . S
C318 N316 1.334 . S
C318 C317 1.391 . S
C318 H325 0.930 . S
C319 N316 1.328 . S
C319 C321 1.392 . S
C319 H326 0.930 . S
N320 C317 1.329 . S
N320 C321 1.331 . S
C321 C319 1.392 . S
C321 N320 1.331 . S
O322 Zn315 1.975 . S
O322 C323 1.252 . S
C323 O322 1.252 . S
C323 O324 1.252 . S
O324 Zn306 1.975 . S
O324 C323 1.252 . S
H325 C318 0.930 . S
H326 C319 0.930 . S
C327 C328 1.392 . S
C327 N331 1.328 . S
C327 H333 0.930 . S
C328 C327 1.392 . S
C328 N332 1.331 . S
C329 C330 1.391 . S
C329 N332 1.329 . S
C329 H339 0.930 . S
C330 C329 1.391 . S
C330 N331 1.334 . S
C330 H337 0.930 . S
N331 Zn315 2.119 . S
N331 C327 1.328 . S
N331 C330 1.334 . S
N332 C328 1.331 . S
N332 C329 1.329 . S
H333 C327 0.930 . S
C334 O314 1.257 . S
C334 O335 1.244 . S
O335 C334 1.244 . S
O336 C312 1.257 . S
O336 Zn315 2.019 . S
H337 C330 0.930 . S
H338 C317 0.930 . S
H339 C329 0.930 . S
Zn340 N344 2.020 . S
Zn340 O348 2.019 . S
Zn340 N350 2.119 . S
Zn340 O358 1.975 . S
C341 N342 1.334 . S
C341 N345 1.336 . S
N342 C341 1.334 . S
N342 C343 1.334 . S
C343 N342 1.334 . S
C343 N344 1.336 . S
N344 Zn340 2.020 . S
N344 C343 1.336 . S
N344 N345 1.354 . S
N345 C341 1.336 . S
N345 N344 1.354 . S
N345 Zn349 2.020 . S
C346 O347 1.244 . S
C346 O370 1.257 . S
O347 C346 1.244 . S
O348 Zn340 2.019 . S
O348 C368 1.257 . S
Zn349 N345 2.020 . S
Zn349 O356 1.975 . S
Zn349 N365 2.119 . S
Zn349 O370 2.019 1_554 S
N350 Zn340 2.119 . S
N350 C352 1.334 . S
N350 C353 1.328 . S
C351 C352 1.391 . S
C351 N354 1.329 . S
C351 H372 0.930 . S
C352 N350 1.334 . S
C352 C351 1.391 . S
C352 H359 0.930 . S
C353 N350 1.328 . S
C353 C355 1.392 . S
C353 H360 0.930 . S
N354 C351 1.329 . S
N354 C355 1.331 . S
C355 C353 1.392 . S
C355 N354 1.331 . S
O356 Zn349 1.975 . S
O356 C357 1.252 . S
C357 O356 1.252 . S
C357 O358 1.252 . S
O358 Zn340 1.975 . S
O358 C357 1.252 . S
H359 C352 0.930 . S
H360 C353 0.930 . S
C361 C362 1.392 . S
C361 N365 1.328 . S
C361 H367 0.930 1_554 S
C362 C361 1.392 . S
C362 N366 1.331 . S
C363 C364 1.391 . S
C363 N366 1.329 . S
C363 H373 0.930 . S
C364 C363 1.391 . S
C364 N365 1.334 . S
C364 H371 0.930 . S
N365 Zn349 2.119 . S
N365 C361 1.328 . S
N365 C364 1.334 . S
N366 C362 1.331 . S
N366 C363 1.329 . S
H367 C361 0.930 1_556 S
C368 O348 1.257 . S
C368 O369 1.244 . S
O369 C368 1.244 . S
O370 C346 1.257 . S
O370 Zn349 2.019 1_556 S
H371 C364 0.930 . S
H372 C351 0.930 . S
H373 C363 0.930 . S
Zn374 N378 2.020 . S
Zn374 O382 2.019 . S
Zn374 N384 2.119 . S
Zn374 O392 1.975 . S
C375 N376 1.334 . S
C375 N379 1.336 . S
N376 C375 1.334 . S
N376 C377 1.334 . S
C377 N376 1.334 . S
C377 N378 1.336 . S
N378 Zn374 2.020 . S
N378 C377 1.336 . S
N378 N379 1.354 . S
N379 C375 1.336 . S
N379 N378 1.354 . S
N379 Zn383 2.020 . S
C380 O381 1.244 . S
C380 O404 1.257 . S
O381 C380 1.244 . S
O382 Zn374 2.019 . S
O382 C402 1.257 . S
Zn383 N379 2.020 . S
Zn383 O390 1.975 . S
Zn383 N399 2.119 . S
Zn383 O404 2.019 1_554 S
N384 Zn374 2.119 . S
N384 C386 1.334 . S
N384 C387 1.328 . S
C385 C386 1.391 . S
C385 N388 1.329 . S
C385 H406 0.930 . S
C386 N384 1.334 . S
C386 C385 1.391 . S
C386 H393 0.930 . S
C387 N384 1.328 . S
C387 C389 1.392 . S
C387 H394 0.930 . S
N388 C385 1.329 . S
N388 C389 1.331 . S
C389 C387 1.392 . S
C389 N388 1.331 . S
O390 Zn383 1.975 . S
O390 C391 1.252 . S
C391 O390 1.252 . S
C391 O392 1.252 . S
O392 Zn374 1.975 . S
O392 C391 1.252 . S
H393 C386 0.930 . S
H394 C387 0.930 . S
C395 C396 1.392 . S
C395 N399 1.328 . S
C395 H401 0.930 1_554 S
C396 C395 1.392 . S
C396 N400 1.331 . S
C397 C398 1.391 . S
C397 N400 1.329 . S
C397 H407 0.930 . S
C398 C397 1.391 . S
C398 N399 1.334 . S
C398 H405 0.930 . S
N399 Zn383 2.119 . S
N399 C395 1.328 . S
N399 C398 1.334 . S
N400 C396 1.331 . S
N400 C397 1.329 . S
H401 C395 0.930 1_556 S
C402 O382 1.257 . S
C402 O403 1.244 . S
O403 C402 1.244 . S
O404 C380 1.257 . S
O404 Zn383 2.019 1_556 S
H405 C398 0.930 . S
H406 C385 0.930 . S
H407 C397 0.930 . S
Zn408 N412 2.020 . S
Zn408 O416 2.019 . S
Zn408 N418 2.119 . S
Zn408 O426 1.975 . S
C409 N410 1.334 . S
C409 N413 1.336 . S
N410 C409 1.334 . S
N410 C411 1.334 . S
C411 N410 1.334 . S
C411 N412 1.336 . S
N412 Zn408 2.020 . S
N412 C411 1.336 . S
N412 N413 1.354 . S
N413 C409 1.336 . S
N413 N412 1.354 . S
N413 Zn417 2.020 . S
C414 O415 1.244 . S
C414 O438 1.257 . S
O415 C414 1.244 . S
O416 Zn408 2.019 . S
O416 C436 1.257 . S
Zn417 N413 2.020 . S
Zn417 O424 1.975 . S
Zn417 N433 2.119 . S
Zn417 O438 2.019 . S
N418 Zn408 2.119 . S
N418 C420 1.334 . S
N418 C421 1.328 . S
C419 C420 1.391 . S
C419 N422 1.329 . S
C419 H440 0.930 . S
C420 N418 1.334 . S
C420 C419 1.391 . S
C420 H427 0.930 . S
C421 N418 1.328 . S
C421 C423 1.392 . S
C421 H428 0.930 . S
N422 C419 1.329 . S
N422 C423 1.331 . S
C423 C421 1.392 . S
C423 N422 1.331 . S
O424 Zn417 1.975 . S
O424 C425 1.252 . S
C425 O424 1.252 . S
C425 O426 1.252 . S
O426 Zn408 1.975 . S
O426 C425 1.252 . S
H427 C420 0.930 . S
H428 C421 0.930 . S
C429 C430 1.392 . S
C429 N433 1.328 . S
C429 H435 0.930 . S
C430 C429 1.392 . S
C430 N434 1.331 . S
C431 C432 1.391 . S
C431 N434 1.329 . S
C431 H441 0.930 . S
C432 C431 1.391 . S
C432 N433 1.334 . S
C432 H439 0.930 . S
N433 Zn417 2.119 . S
N433 C429 1.328 . S
N433 C432 1.334 . S
N434 C430 1.331 . S
N434 C431 1.329 . S
H435 C429 0.930 . S
C436 O416 1.257 . S
C436 O437 1.244 . S
O437 C436 1.244 . S
O438 C414 1.257 . S
O438 Zn417 2.019 . S
H439 C432 0.930 . S
H440 C419 0.930 . S
H441 C431 0.930 . S
Zn442 N446 2.020 . S
Zn442 O450 2.019 . S
Zn442 N452 2.119 . S
Zn442 O460 1.975 . S
C443 N444 1.334 . S
C443 N447 1.336 . S
N444 C443 1.334 . S
N444 C445 1.334 . S
C445 N444 1.334 . S
C445 N446 1.336 . S
N446 Zn442 2.020 . S
N446 C445 1.336 . S
N446 N447 1.354 . S
N447 C443 1.336 . S
N447 N446 1.354 . S
N447 Zn451 2.020 . S
C448 O449 1.244 . S
C448 O472 1.257 . S
O449 C448 1.244 . S
O450 Zn442 2.019 . S
O450 C470 1.257 . S
Zn451 N447 2.020 . S
Zn451 O458 1.975 . S
Zn451 N467 2.119 . S
Zn451 O472 2.019 . S
N452 Zn442 2.119 . S
N452 C454 1.334 . S
N452 C455 1.328 . S
C453 C454 1.391 . S
C453 N456 1.329 . S
C453 H474 0.930 . S
C454 N452 1.334 . S
C454 C453 1.391 . S
C454 H461 0.930 . S
C455 N452 1.328 . S
C455 C457 1.392 . S
C455 H462 0.930 . S
N456 C453 1.329 . S
N456 C457 1.331 . S
C457 C455 1.392 . S
C457 N456 1.331 . S
O458 Zn451 1.975 . S
O458 C459 1.252 . S
C459 O458 1.252 . S
C459 O460 1.252 . S
O460 Zn442 1.975 . S
O460 C459 1.252 . S
H461 C454 0.930 . S
H462 C455 0.930 . S
C463 C464 1.392 . S
C463 N467 1.328 . S
C463 H469 0.930 . S
C464 C463 1.392 . S
C464 N468 1.331 . S
C465 C466 1.391 . S
C465 N468 1.329 . S
C465 H475 0.930 . S
C466 C465 1.391 . S
C466 N467 1.334 . S
C466 H473 0.930 . S
N467 Zn451 2.119 . S
N467 C463 1.328 . S
N467 C466 1.334 . S
N468 C464 1.331 . S
N468 C465 1.329 . S
H469 C463 0.930 . S
C470 O450 1.257 . S
C470 O471 1.244 . S
O471 C470 1.244 . S
O472 C448 1.257 . S
O472 Zn451 2.019 . S
H473 C466 0.930 . S
H474 C453 0.930 . S
H475 C465 0.930 . S
Zn476 N480 2.020 . S
Zn476 O484 2.019 1_556 S
Zn476 N486 2.119 . S
Zn476 O494 1.975 . S
C477 N478 1.334 . S
C477 N481 1.336 . S
N478 C477 1.334 . S
N478 C479 1.334 . S
C479 N478 1.334 . S
C479 N480 1.336 . S
N480 Zn476 2.020 . S
N480 C479 1.336 . S
N480 N481 1.354 . S
N481 C477 1.336 . S
N481 N480 1.354 . S
N481 Zn485 2.020 . S
C482 O483 1.244 . S
C482 O506 1.257 . S
O483 C482 1.244 . S
O484 Zn476 2.019 1_554 S
O484 C504 1.257 . S
Zn485 N481 2.020 . S
Zn485 O492 1.975 . S
Zn485 N501 2.119 . S
Zn485 O506 2.019 . S
N486 Zn476 2.119 . S
N486 C488 1.334 . S
N486 C489 1.328 . S
C487 C488 1.391 . S
C487 N490 1.329 . S
C487 H508 0.930 . S
C488 N486 1.334 . S
C488 C487 1.391 . S
C488 H495 0.930 . S
C489 N486 1.328 . S
C489 C491 1.392 . S
C489 H496 0.930 1_556 S
N490 C487 1.329 . S
N490 C491 1.331 . S
C491 C489 1.392 . S
C491 N490 1.331 . S
O492 Zn485 1.975 . S
O492 C493 1.252 . S
C493 O492 1.252 . S
C493 O494 1.252 . S
O494 Zn476 1.975 . S
O494 C493 1.252 . S
H495 C488 0.930 . S
H496 C489 0.930 1_554 S
C497 C498 1.392 . S
C497 N501 1.328 . S
C497 H503 0.930 . S
C498 C497 1.392 . S
C498 N502 1.331 . S
C499 C500 1.391 . S
C499 N502 1.329 . S
C499 H509 0.930 . S
C500 C499 1.391 . S
C500 N501 1.334 . S
C500 H507 0.930 . S
N501 Zn485 2.119 . S
N501 C497 1.328 . S
N501 C500 1.334 . S
N502 C498 1.331 . S
N502 C499 1.329 . S
H503 C497 0.930 . S
C504 O484 1.257 . S
C504 O505 1.244 . S
O505 C504 1.244 . S
O506 C482 1.257 . S
O506 Zn485 2.019 . S
H507 C500 0.930 . S
H508 C487 0.930 . S
H509 C499 0.930 . S
Zn510 N514 2.020 . S
Zn510 O518 2.019 1_556 S
Zn510 N520 2.119 . S
Zn510 O528 1.975 . S
C511 N512 1.334 . S
C511 N515 1.336 . S
N512 C511 1.334 . S
N512 C513 1.334 . S
C513 N512 1.334 . S
C513 N514 1.336 . S
N514 Zn510 2.020 . S
N514 C513 1.336 . S
N514 N515 1.354 . S
N515 C511 1.336 . S
N515 N514 1.354 . S
N515 Zn519 2.020 . S
C516 O517 1.244 . S
C516 O540 1.257 . S
O517 C516 1.244 . S
O518 Zn510 2.019 1_554 S
O518 C538 1.257 . S
Zn519 N515 2.020 . S
Zn519 O526 1.975 . S
Zn519 N535 2.119 . S
Zn519 O540 2.019 . S
N520 Zn510 2.119 . S
N520 C522 1.334 . S
N520 C523 1.328 . S
C521 C522 1.391 . S
C521 N524 1.329 . S
C521 H542 0.930 . S
C522 N520 1.334 . S
C522 C521 1.391 . S
C522 H529 0.930 . S
C523 N520 1.328 . S
C523 C525 1.392 . S
C523 H530 0.930 1_556 S
N524 C521 1.329 . S
N524 C525 1.331 . S
C525 C523 1.392 . S
C525 N524 1.331 . S
O526 Zn519 1.975 . S
O526 C527 1.252 . S
C527 O526 1.252 . S
C527 O528 1.252 . S
O528 Zn510 1.975 . S
O528 C527 1.252 . S
H529 C522 0.930 . S
H530 C523 0.930 1_554 S
C531 C532 1.392 . S
C531 N535 1.328 . S
C531 H537 0.930 . S
C532 C531 1.392 . S
C532 N536 1.331 . S
C533 C534 1.391 . S
C533 N536 1.329 . S
C533 H543 0.930 . S
C534 C533 1.391 . S
C534 N535 1.334 . S
C534 H541 0.930 . S
N535 Zn519 2.119 . S
N535 C531 1.328 . S
N535 C534 1.334 . S
N536 C532 1.331 . S
N536 C533 1.329 . S
H537 C531 0.930 . S
C538 O518 1.257 . S
C538 O539 1.244 . S
O539 C538 1.244 . S
O540 C516 1.257 . S
O540 Zn519 2.019 . S
H541 C534 0.930 . S
H542 C521 0.930 . S
H543 C533 0.930 . S
C544 C545 1.387 . S
C544 H548 0.950 . S
C544 C553 1.390 1_455 S
C545 C544 1.387 . S
C545 C547 1.387 1_545 S
H546 C553 0.950 . S
C547 C545 1.387 1_565 S
C547 C549 1.390 1_455 S
C547 H551 0.950 . S
H548 C544 0.950 . S
C549 C547 1.390 1_655 S
C549 C550 1.387 . S
C549 H552 0.950 . S
C550 C549 1.387 . S
C550 C553 1.387 1_565 S
H551 C547 0.950 . S
H552 C549 0.950 . S
C553 C544 1.390 1_655 S
C553 H546 0.950 . S
C553 C550 1.387 1_545 S
C554 C555 1.387 1_565 S
C554 H558 0.950 . S
C554 C563 1.390 . S
C555 C554 1.387 1_545 S
C555 C557 1.387 . S
H556 C563 0.950 . S
C557 C555 1.387 . S
C557 C559 1.390 . S
C557 H561 0.950 . S
H558 C554 0.950 . S
C559 C557 1.390 . S
C559 C560 1.387 1_545 S
C559 H562 0.950 . S
C560 C559 1.387 1_565 S
C560 C563 1.387 . S
H561 C557 0.950 . S
H562 C559 0.950 . S
C563 C554 1.390 . S
C563 H556 0.950 . S
C563 C560 1.387 . S
C564 C565 1.387 1_554 S
C564 H568 0.950 . S
C564 C573 1.390 1_545 S
C565 C564 1.387 1_556 S
C565 C567 1.387 . S
H566 C573 0.950 . S
C567 C565 1.387 . S
C567 C569 1.390 1_545 S
C567 H571 0.950 . S
H568 C564 0.950 . S
C569 C567 1.390 1_565 S
C569 C570 1.387 1_556 S
C569 H572 0.950 . S
C570 C569 1.387 1_554 S
C570 C573 1.387 . S
H571 C567 0.950 . S
H572 C569 0.950 . S
C573 C564 1.390 1_565 S
C573 H566 0.950 . S
C573 C570 1.387 . S
C574 C575 1.387 1_554 S
C574 H578 0.950 . S
C574 C583 1.390 1_455 S
C575 C574 1.387 1_556 S
C575 C577 1.387 1_565 S
H576 C583 0.950 . S
C577 C575 1.387 1_545 S
C577 C579 1.390 1_455 S
C577 H581 0.950 . S
H578 C574 0.950 . S
C579 C577 1.390 1_655 S
C579 C580 1.387 1_556 S
C579 H582 0.950 . S
C580 C579 1.387 1_554 S
C580 C583 1.387 1_545 S
H581 C577 0.950 . S
H582 C579 0.950 . S
C583 C574 1.390 1_655 S
C583 H576 0.950 . S
C583 C580 1.387 1_565 S
C584 C585 1.387 . S
C584 H588 0.950 . S
C584 C593 1.390 . S
C585 C584 1.387 . S
C585 C587 1.387 . S
H586 C593 0.950 . S
C587 C585 1.387 . S
C587 C589 1.390 . S
C587 H591 0.950 . S
H588 C584 0.950 . S
C589 C587 1.390 . S
C589 C590 1.387 . S
C589 H592 0.950 . S
C590 C589 1.387 . S
C590 C593 1.387 . S
H591 C587 0.950 . S
H592 C589 0.950 . S
C593 C584 1.390 . S
C593 H586 0.950 . S
C593 C590 1.387 . S
C594 C595 1.387 . S
C594 H598 0.950 . S
C594 C603 1.390 1_455 S
C595 C594 1.387 . S
C595 C597 1.387 . S
H596 C603 0.950 . S
C597 C595 1.387 . S
C597 C599 1.390 1_455 S
C597 H601 0.950 . S
H598 C594 0.950 . S
C599 C597 1.390 1_655 S
C599 C600 1.387 . S
C599 H602 0.950 . S
C600 C599 1.387 . S
C600 C603 1.387 . S
H601 C597 0.950 . S
H602 C599 0.950 . S
C603 C594 1.390 1_655 S
C603 H596 0.950 . S
C603 C600 1.387 . S
C604 C605 1.387 . S
C604 H608 0.950 . S
C604 C613 1.390 1_455 S
C605 C604 1.387 . S
C605 C607 1.387 1_554 S
H606 C613 0.950 . S
C607 C605 1.387 1_556 S
C607 C609 1.390 1_455 S
C607 H611 0.950 . S
H608 C604 0.950 . S
C609 C607 1.390 1_655 S
C609 C610 1.387 . S
C609 H612 0.950 . S
C610 C609 1.387 . S
C610 C613 1.387 1_556 S
H611 C607 0.950 . S
H612 C609 0.950 . S
C613 C604 1.390 1_655 S
C613 H606 0.950 . S
C613 C610 1.387 1_554 S
C614 C615 1.387 . S
C614 H618 0.950 . S
C614 C623 1.390 . S
C615 C614 1.387 . S
C615 C617 1.387 1_554 S
H616 C623 0.950 . S
C617 C615 1.387 1_556 S
C617 C619 1.390 . S
C617 H621 0.950 . S
H618 C614 0.950 . S
C619 C617 1.390 . S
C619 C620 1.387 . S
C619 H622 0.950 . S
C620 C619 1.387 . S
C620 C623 1.387 1_556 S
H621 C617 0.950 . S
H622 C619 0.950 . S
C623 C614 1.390 . S
C623 H616 0.950 . S
C623 C620 1.387 1_554 S
C624 C625 1.387 . S
C624 H628 0.950 . S
C624 C633 1.390 . S
C625 C624 1.387 . S
C625 C627 1.387 . S
H626 C633 0.950 . S
C627 C625 1.387 . S
C627 C629 1.390 . S
C627 H631 0.950 . S
H628 C624 0.950 . S
C629 C627 1.390 . S
C629 C630 1.387 . S
C629 H632 0.950 . S
C630 C629 1.387 . S
C630 C633 1.387 . S
H631 C627 0.950 . S
H632 C629 0.950 . S
C633 C624 1.390 . S
C633 H626 0.950 . S
C633 C630 1.387 . S
C634 C635 1.387 . S
C634 H638 0.950 . S
C634 C643 1.390 . S
C635 C634 1.387 . S
C635 C637 1.387 . S
H636 C643 0.950 . S
C637 C635 1.387 . S
C637 C639 1.390 . S
C637 H641 0.950 . S
H638 C634 0.950 . S
C639 C637 1.390 . S
C639 C640 1.387 . S
C639 H642 0.950 . S
C640 C639 1.387 . S
C640 C643 1.387 . S
H641 C637 0.950 . S
H642 C639 0.950 . S
C643 C634 1.390 . S
C643 H636 0.950 . S
C643 C640 1.387 . S
C644 C645 1.387 . S
C644 H648 0.950 . S
C644 C653 1.390 1_554 S
C645 C644 1.387 . S
C645 C647 1.387 . S
H646 C653 0.950 . S
C647 C645 1.387 . S
C647 C649 1.390 1_554 S
C647 H651 0.950 . S
H648 C644 0.950 . S
C649 C647 1.390 1_556 S
C649 C650 1.387 . S
C649 H652 0.950 . S
C650 C649 1.387 . S
C650 C653 1.387 . S
H651 C647 0.950 . S
H652 C649 0.950 . S
C653 C644 1.390 1_556 S
C653 H646 0.950 . S
C653 C650 1.387 . S
C654 C655 1.387 . S
C654 H658 0.950 . S
C654 C663 1.390 . S
C655 C654 1.387 . S
C655 C657 1.387 1_556 S
H656 C663 0.950 . S
C657 C655 1.387 1_554 S
C657 C659 1.390 . S
C657 H661 0.950 . S
H658 C654 0.950 . S
C659 C657 1.390 . S
C659 C660 1.387 . S
C659 H662 0.950 . S
C660 C659 1.387 . S
C660 C663 1.387 1_554 S
H661 C657 0.950 . S
H662 C659 0.950 . S
C663 C654 1.390 . S
C663 H656 0.950 . S
C663 C660 1.387 1_556 S
C664 C665 1.387 . S
C664 H668 0.950 . S
C664 C673 1.390 . S
C665 C664 1.387 . S
C665 C667 1.387 . S
H666 C673 0.950 . S
C667 C665 1.387 . S
C667 C669 1.390 . S
C667 H671 0.950 . S
H668 C664 0.950 . S
C669 C667 1.390 . S
C669 C670 1.387 . S
C669 H672 0.950 . S
C670 C669 1.387 . S
C670 C673 1.387 . S
H671 C667 0.950 . S
H672 C669 0.950 . S
C673 C664 1.390 . S
C673 H666 0.950 . S
C673 C670 1.387 . S
C674 C675 1.387 . S
C674 H678 0.950 . S
C674 C683 1.390 . S
C675 C674 1.387 . S
C675 C677 1.387 . S
H676 C683 0.950 . S
C677 C675 1.387 . S
C677 C679 1.390 . S
C677 H681 0.950 . S
H678 C674 0.950 . S
C679 C677 1.390 . S
C679 C680 1.387 . S
C679 H682 0.950 . S
C680 C679 1.387 . S
C680 C683 1.387 . S
H681 C677 0.950 . S
H682 C679 0.950 . S
C683 C674 1.390 . S
C683 H676 0.950 . S
C683 C680 1.387 . S
C684 C685 1.387 1_556 S
C684 H688 0.949 1_556 S
C684 C693 1.391 . S
C685 C684 1.387 1_554 S
C685 C687 1.387 . S
H686 C693 0.950 . S
C687 C685 1.387 . S
C687 C689 1.390 1_554 S
C687 H691 0.950 . S
H688 C684 0.949 1_554 S
C689 C687 1.390 1_556 S
C689 C690 1.387 . S
C689 H692 0.950 . S
C690 C689 1.387 . S
C690 C693 1.387 . S
H691 C687 0.950 . S
H692 C689 0.950 . S
C693 C684 1.391 . S
C693 H686 0.950 . S
C693 C690 1.387 . S
C694 C695 1.387 . S
C694 H698 0.950 . S
C694 C703 1.390 . S
C695 C694 1.387 . S
C695 C697 1.387 1_556 S
H696 C703 0.950 . S
C697 C695 1.387 1_554 S
C697 C699 1.390 . S
C697 H701 0.950 . S
H698 C694 0.950 . S
C699 C697 1.390 . S
C699 C700 1.387 . S
C699 H702 0.950 . S
C700 C699 1.387 . S
C700 C703 1.387 1_554 S
H701 C697 0.950 . S
H702 C699 0.950 . S
C703 C694 1.390 . S
C703 H696 0.950 . S
C703 C700 1.387 1_556 S
C704 C705 1.387 . S
C704 H708 0.950 . S
C704 C713 1.390 . S
C705 C704 1.387 . S
C705 C707 1.387 . S
H706 C713 0.950 . S
C707 C705 1.387 . S
C707 C709 1.390 . S
C707 H711 0.950 . S
H708 C704 0.950 . S
C709 C707 1.390 . S
C709 C710 1.387 . S
C709 H712 0.950 . S
C710 C709 1.387 . S
C710 C713 1.387 . S
H711 C707 0.950 . S
H712 C709 0.950 . S
C713 C704 1.390 . S
C713 H706 0.950 . S
C713 C710 1.387 . S
C714 C715 1.387 . S
C714 H718 0.950 . S
C714 C723 1.390 . S
C715 C714 1.387 . S
C715 C717 1.387 . S
H716 C723 0.950 . S
C717 C715 1.387 . S
C717 C719 1.390 . S
C717 H721 0.950 . S
H718 C714 0.950 . S
C719 C717 1.390 . S
C719 C720 1.387 . S
C719 H722 0.950 . S
C720 C719 1.387 . S
C720 C723 1.387 . S
H721 C717 0.950 . S
H722 C719 0.950 . S
C723 C714 1.390 . S
C723 H716 0.950 . S
C723 C720 1.387 . S
C724 C725 1.387 . S
C724 H728 0.950 . S
C724 C733 1.390 1_554 S
C725 C724 1.387 . S
C725 C727 1.387 . S
H726 C733 0.950 . S
C727 C725 1.387 . S
C727 C729 1.390 . S
C727 H731 0.950 . S
H728 C724 0.950 . S
C729 C727 1.390 . S
C729 C730 1.387 1_554 S
C729 H732 0.950 1_554 S
C730 C729 1.387 1_556 S
C730 C733 1.387 . S
H731 C727 0.950 . S
H732 C729 0.950 1_556 S
C733 C724 1.390 1_556 S
C733 H726 0.950 . S
C733 C730 1.387 . S
C734 C735 1.387 . S
C734 H738 0.950 . S
C734 C743 1.390 . S
C735 C734 1.387 . S
C735 C737 1.387 . S
H736 C743 0.950 1_556 S
C737 C735 1.387 . S
C737 C739 1.390 1_554 S
C737 H741 0.950 . S
H738 C734 0.950 . S
C739 C737 1.390 1_556 S
C739 C740 1.387 . S
C739 H742 0.950 . S
C740 C739 1.387 . S
C740 C743 1.387 1_556 S
H741 C737 0.950 . S
H742 C739 0.950 . S
C743 C734 1.390 . S
C743 H736 0.950 1_554 S
C743 C740 1.387 1_554 S
C744 C745 1.387 . S
C744 H748 0.950 . S
C744 C753 1.390 . S
C745 C744 1.387 . S
C745 C747 1.387 . S
H746 C753 0.950 . S
C747 C745 1.387 . S
C747 C749 1.390 . S
C747 H751 0.950 . S
H748 C744 0.950 . S
C749 C747 1.390 . S
C749 C750 1.387 . S
C749 H752 0.950 . S
C750 C749 1.387 . S
C750 C753 1.387 . S
H751 C747 0.950 . S
H752 C749 0.950 . S
C753 C744 1.390 . S
C753 H746 0.950 . S
C753 C750 1.387 . S
C754 C755 1.387 . S
C754 H758 0.950 . S
C754 C763 1.390 . S
C755 C754 1.387 . S
C755 C757 1.387 . S
H756 C763 0.950 . S
C757 C755 1.387 . S
C757 C759 1.390 . S
C757 H761 0.950 . S
H758 C754 0.950 . S
C759 C757 1.390 . S
C759 C760 1.387 . S
C759 H762 0.950 . S
C760 C759 1.387 . S
C760 C763 1.387 . S
H761 C757 0.950 . S
H762 C759 0.950 . S
C763 C754 1.390 . S
C763 H756 0.950 . S
C763 C760 1.387 . S
C764 C765 1.387 1_556 S
C764 H768 0.950 . S
C764 C773 1.390 . S
C765 C764 1.387 1_554 S
C765 C767 1.387 . S
H766 C773 0.950 . S
C767 C765 1.387 . S
C767 C769 1.390 1_554 S
C767 H771 0.950 . S
H768 C764 0.950 . S
C769 C767 1.390 1_556 S
C769 C770 1.387 . S
C769 H772 0.950 . S
C770 C769 1.387 . S
C770 C773 1.387 . S
H771 C767 0.950 . S
H772 C769 0.950 . S
C773 C764 1.390 . S
C773 H766 0.950 . S
C773 C770 1.387 . S
C774 C775 1.387 . S
C774 H778 0.950 . S
C774 C783 1.384 1_556 S
C775 C774 1.387 . S
C775 C777 1.387 . S
H776 C783 0.952 . S
C777 C775 1.387 . S
C777 C779 1.390 1_556 S
C777 H781 0.950 . S
H778 C774 0.950 . S
C779 C777 1.390 1_554 S
C779 C780 1.387 . S
C779 H782 0.950 . S
C780 C779 1.387 . S
C780 C783 1.392 . S
H781 C777 0.950 . S
H782 C779 0.950 . S
C783 C774 1.384 1_554 S
C783 H776 0.952 . S
C783 C780 1.392 . S
C784 C785 1.388 . S
C784 H788 0.950 . S
C784 C793 1.390 1_545 S
C785 C784 1.388 . S
C785 C787 1.388 . S
H786 C793 0.950 . S
C787 C785 1.388 . S
C787 C789 1.390 1_545 S
C787 H791 0.950 . S
H788 C784 0.950 . S
C789 C787 1.390 1_565 S
C789 C790 1.388 . S
C789 H792 0.950 . S
C790 C789 1.388 . S
C790 C793 1.388 . S
H791 C787 0.950 . S
H792 C789 0.950 . S
C793 C784 1.390 1_565 S
C793 H786 0.950 . S
C793 C790 1.388 . S
C794 C795 1.387 . S
C794 H798 0.950 . S
C794 C803 1.390 1_545 S
C795 C794 1.387 . S
C795 C797 1.387 . S
H796 C803 0.950 . S
C797 C795 1.387 . S
C797 C799 1.390 1_545 S
C797 H801 0.950 . S
H798 C794 0.950 . S
C799 C797 1.390 1_565 S
C799 C800 1.387 . S
C799 H802 0.950 . S
C800 C799 1.387 . S
C800 C803 1.387 . S
H801 C797 0.950 . S
H802 C799 0.950 . S
C803 C794 1.390 1_565 S
C803 H796 0.950 . S
C803 C800 1.387 . S
C804 C805 1.387 . S
C804 H808 0.950 . S
C804 C813 1.390 1_545 S
C805 C804 1.387 . S
C805 C807 1.387 . S
H806 C813 0.950 . S
C807 C805 1.387 . S
C807 C809 1.390 1_545 S
C807 H811 0.950 . S
H808 C804 0.950 . S
C809 C807 1.390 1_565 S
C809 C810 1.387 . S
C809 H812 0.950 . S
C810 C809 1.387 . S
C810 C813 1.387 . S
H811 C807 0.950 . S
H812 C809 0.950 . S
C813 C804 1.390 1_565 S
C813 H806 0.950 . S
C813 C810 1.387 . S
C814 C815 1.388 . S
C814 H818 0.950 . S
C814 C823 1.390 1_565 S
C815 C814 1.388 . S
C815 C817 1.388 . S
H816 C823 0.950 . S
C817 C815 1.388 . S
C817 C819 1.390 1_565 S
C817 H821 0.950 . S
H818 C814 0.950 . S
C819 C817 1.390 1_545 S
C819 C820 1.388 . S
C819 H822 0.950 . S
C820 C819 1.388 . S
C820 C823 1.388 . S
H821 C817 0.950 . S
H822 C819 0.950 . S
C823 C814 1.390 1_545 S
C823 H816 0.950 . S
C823 C820 1.388 . S
C824 C825 1.387 . S
C824 H828 0.950 . S
C824 C833 1.390 . S
C825 C824 1.387 . S
C825 C827 1.387 . S
H826 C833 0.950 . S
C827 C825 1.387 . S
C827 C829 1.390 . S
C827 H831 0.950 . S
H828 C824 0.950 . S
C829 C827 1.390 . S
C829 C830 1.387 . S
C829 H832 0.950 . S
C830 C829 1.387 . S
C830 C833 1.387 . S
H831 C827 0.950 . S
H832 C829 0.950 . S
C833 C824 1.390 . S
C833 H826 0.950 . S
C833 C830 1.387 . S
C834 C835 1.387 . S
C834 H838 0.950 . S
C834 C843 1.390 . S
C835 C834 1.387 . S
C835 C837 1.387 . S
H836 C843 0.950 . S
C837 C835 1.387 . S
C837 C839 1.390 . S
C837 H841 0.950 . S
H838 C834 0.950 . S
C839 C837 1.390 . S
C839 C840 1.387 . S
C839 H842 0.950 . S
C840 C839 1.387 . S
C840 C843 1.387 . S
H841 C837 0.950 . S
H842 C839 0.950 . S
C843 C834 1.390 . S
C843 H836 0.950 . S
C843 C840 1.387 . S
C844 C845 1.387 . S
C844 H848 0.950 . S
C844 C853 1.390 . S
C845 C844 1.387 . S
C845 C847 1.387 . S
H846 C853 0.950 . S
C847 C845 1.387 . S
C847 C849 1.390 . S
C847 H851 0.950 . S
H848 C844 0.950 . S
C849 C847 1.390 . S
C849 C850 1.387 . S
C849 H852 0.950 . S
C850 C849 1.387 . S
C850 C853 1.387 . S
H851 C847 0.950 . S
H852 C849 0.950 . S
C853 C844 1.390 . S
C853 H846 0.950 . S
C853 C850 1.387 . S
C854 C855 1.387 . S
C854 H858 0.950 . S
C854 C863 1.390 . S
C855 C854 1.387 . S
C855 C857 1.387 . S
H856 C863 0.950 . S
C857 C855 1.387 . S
C857 C859 1.390 . S
C857 H861 0.950 . S
H858 C854 0.950 . S
C859 C857 1.390 . S
C859 C860 1.387 . S
C859 H862 0.950 . S
C860 C859 1.387 . S
C860 C863 1.387 . S
H861 C857 0.950 . S
H862 C859 0.950 . S
C863 C854 1.390 . S
C863 H856 0.950 . S
C863 C860 1.387 . S
C864 C865 1.387 . S
C864 H868 0.950 . S
C864 C873 1.390 . S
C865 C864 1.387 . S
C865 C867 1.387 1_565 S
H866 C873 0.950 . S
C867 C865 1.387 1_545 S
C867 C869 1.390 1_545 S
C867 H871 0.950 . S
H868 C864 0.950 . S
C869 C867 1.390 1_565 S
C869 C870 1.387 . S
C869 H872 0.950 1_565 S
C870 C869 1.387 . S
C870 C873 1.387 . S
H871 C867 0.950 . S
H872 C869 0.950 1_545 S
C873 C864 1.390 . S
C873 H866 0.950 . S
C873 C870 1.387 . S
C874 C875 1.387 . S
C874 H878 0.950 . S
C874 C883 1.390 . S
C875 C874 1.387 . S
C875 C877 1.387 1_545 S
H876 C883 0.950 . S
C877 C875 1.387 1_565 S
C877 C879 1.390 . S
C877 H881 0.950 . S
H878 C874 0.950 . S
C879 C877 1.390 . S
C879 C880 1.387 1_565 S
C879 H882 0.950 . S
C880 C879 1.387 1_545 S
C880 C883 1.387 . S
H881 C877 0.950 . S
H882 C879 0.950 . S
C883 C874 1.390 . S
C883 H876 0.950 . S
C883 C880 1.387 . S
C884 C885 1.387 . S
C884 H888 0.950 . S
C884 C893 1.390 . S
C885 C884 1.387 . S
C885 C887 1.387 1_545 S
H886 C893 0.950 . S
C887 C885 1.387 1_565 S
C887 C889 1.390 . S
C887 H891 0.950 . S
H888 C884 0.950 . S
C889 C887 1.390 . S
C889 C890 1.387 1_565 S
C889 H892 0.950 . S
C890 C889 1.387 1_545 S
C890 C893 1.387 . S
H891 C887 0.950 . S
H892 C889 0.950 . S
C893 C884 1.390 . S
C893 H886 0.950 . S
C893 C890 1.387 . S
C894 C895 1.387 . S
C894 H898 0.950 1_565 S
C894 C903 1.390 . S
C895 C894 1.387 . S
C895 C897 1.387 . S
H896 C903 0.950 1_545 S
C897 C895 1.387 . S
C897 C899 1.390 . S
C897 H901 0.950 . S
H898 C894 0.950 1_545 S
C899 C897 1.390 . S
C899 C900 1.387 . S
C899 H902 0.950 . S
C900 C899 1.387 . S
C900 C903 1.387 . S
H901 C897 0.950 . S
H902 C899 0.950 . S
C903 C894 1.390 . S
C903 H896 0.950 1_565 S
C903 C900 1.387 . S
C904 C905 1.387 1_565 S
C904 H908 0.950 . S
C904 C913 1.390 1_565 S
C905 C904 1.387 1_545 S
C905 C907 1.387 . S
H906 C913 0.950 1_565 S
C907 C905 1.387 . S
C907 C909 1.390 . S
C907 H911 0.950 . S
H908 C904 0.950 . S
C909 C907 1.390 . S
C909 C910 1.387 . S
C909 H912 0.950 . S
C910 C909 1.387 . S
C910 C913 1.387 . S
H911 C907 0.950 . S
H912 C909 0.950 . S
C913 C904 1.390 1_545 S
C913 H906 0.950 1_545 S
C913 C910 1.387 . S
C914 C915 1.387 . S
C914 H918 0.950 . S
C914 C923 1.390 . S
C915 C914 1.387 . S
C915 C917 1.387 1_565 S
H916 C923 0.950 . S
C917 C915 1.387 1_545 S
C917 C919 1.390 1_545 S
C917 H921 0.950 . S
H918 C914 0.950 . S
C919 C917 1.390 1_565 S
C919 C920 1.387 . S
C919 H922 0.950 1_565 S
C920 C919 1.387 . S
C920 C923 1.387 . S
H921 C917 0.950 . S
H922 C919 0.950 1_545 S
C923 C914 1.390 . S
C923 H916 0.950 . S
C923 C920 1.387 . S
C924 C925 1.387 . S
C924 H928 0.950 . S
C924 C933 1.390 . S
C925 C924 1.387 . S
C925 C927 1.387 . S
H926 C933 0.950 . S
C927 C925 1.387 . S
C927 C929 1.390 . S
C927 H931 0.950 1_565 S
H928 C924 0.950 . S
C929 C927 1.390 . S
C929 C930 1.387 . S
C929 H932 0.950 1_565 S
C930 C929 1.387 . S
C930 C933 1.387 . S
H931 C927 0.950 1_545 S
H932 C929 0.950 1_545 S
C933 C924 1.390 . S
C933 H926 0.950 . S
C933 C930 1.387 . S
C934 C935 1.387 . S
C934 H938 0.950 . S
C934 C943 1.390 . S
C935 C934 1.387 . S
C935 C937 1.386 1_545 S
H936 C943 0.950 . S
C937 C935 1.386 1_565 S
C937 C939 1.391 . S
C937 H941 0.951 . S
H938 C934 0.950 . S
C939 C937 1.391 . S
C939 C940 1.387 1_565 S
C939 H942 0.950 . S
C940 C939 1.387 1_545 S
C940 C943 1.387 . S
H941 C937 0.951 . S
H942 C939 0.950 . S
C943 C934 1.390 . S
C943 H936 0.950 . S
C943 C940 1.387 . S
C944 C945 1.387 . S
C944 H948 0.950 . S
C944 C953 1.390 . S
C945 C944 1.387 . S
C945 C947 1.387 . S
H946 C953 0.950 . S
C947 C945 1.387 . S
C947 C949 1.390 . S
C947 H951 0.950 . S
H948 C944 0.950 . S
C949 C947 1.390 . S
C949 C950 1.387 . S
C949 H952 0.950 . S
C950 C949 1.387 . S
C950 C953 1.387 . S
H951 C947 0.950 . S
H952 C949 0.950 . S
C953 C944 1.390 . S
C953 H946 0.950 . S
C953 C950 1.387 . S
C954 C955 1.387 . S
C954 H958 0.950 . S
C954 C963 1.390 . S
C955 C954 1.387 . S
C955 C957 1.387 . S
H956 C963 0.950 . S
C957 C955 1.387 . S
C957 C959 1.390 . S
C957 H961 0.950 . S
H958 C954 0.950 . S
C959 C957 1.390 . S
C959 C960 1.387 . S
C959 H962 0.950 . S
C960 C959 1.387 . S
C960 C963 1.387 . S
H961 C957 0.950 . S
H962 C959 0.950 . S
C963 C954 1.390 . S
C963 H956 0.950 . S
C963 C960 1.387 . S
C964 C965 1.387 . S
C964 H968 0.950 . S
C964 C973 1.390 . S
C965 C964 1.387 . S
C965 C967 1.387 . S
H966 C973 0.950 . S
C967 C965 1.387 . S
C967 C969 1.390 . S
C967 H971 0.950 . S
H968 C964 0.950 . S
C969 C967 1.390 . S
C969 C970 1.387 . S
C969 H972 0.950 . S
C970 C969 1.387 . S
C970 C973 1.387 . S
H971 C967 0.950 . S
H972 C969 0.950 . S
C973 C964 1.390 . S
C973 H966 0.950 . S
C973 C970 1.387 . S
C974 C975 1.387 . S
C974 H978 0.950 . S
C974 C983 1.390 . S
C975 C974 1.387 . S
C975 C977 1.387 . S
H976 C983 0.950 . S
C977 C975 1.387 . S
C977 C979 1.390 . S
C977 H981 0.950 . S
H978 C974 0.950 . S
C979 C977 1.390 . S
C979 C980 1.387 . S
C979 H982 0.950 . S
C980 C979 1.387 . S
C980 C983 1.387 . S
H981 C977 0.950 . S
H982 C979 0.950 . S
C983 C974 1.390 . S
C983 H976 0.950 . S
C983 C980 1.387 . S
C984 C985 1.387 . S
C984 H988 0.950 . S
C984 C993 1.390 . S
C985 C984 1.387 . S
C985 C987 1.387 . S
H986 C993 0.950 . S
C987 C985 1.387 . S
C987 C989 1.390 . S
C987 H991 0.950 . S
H988 C984 0.950 . S
C989 C987 1.390 . S
C989 C990 1.387 . S
C989 H992 0.950 . S
C990 C989 1.387 . S
C990 C993 1.387 . S
H991 C987 0.950 . S
H992 C989 0.950 . S
C993 C984 1.390 . S
C993 H986 0.950 . S
C993 C990 1.387 . S
C994 C995 1.387 . S
C994 H998 0.950 . S
C994 C1003 1.390 . S
C995 C994 1.387 . S
C995 C997 1.387 . S
H996 C1003 0.950 . S
C997 C995 1.387 . S
C997 C999 1.390 . S
C997 H1001 0.950 . S
H998 C994 0.950 . S
C999 C997 1.390 . S
C999 C1000 1.387 . S
C999 H1002 0.950 . S
C1000 C999 1.387 . S
C1000 C1003 1.387 . S
H1001 C997 0.950 . S
H1002 C999 0.950 . S
C1003 C994 1.390 . S
C1003 H996 0.950 . S
C1003 C1000 1.387 . S
C1004 C1005 1.387 . S
C1004 H1008 0.950 . S
C1004 C1013 1.390 . S
C1005 C1004 1.387 . S
C1005 C1007 1.387 . S
H1006 C1013 0.950 . S
C1007 C1005 1.387 . S
C1007 C1009 1.390 . S
C1007 H1011 0.950 . S
H1008 C1004 0.950 . S
C1009 C1007 1.390 . S
C1009 C1010 1.387 . S
C1009 H1012 0.950 . S
C1010 C1009 1.387 . S
C1010 C1013 1.387 . S
H1011 C1007 0.950 . S
H1012 C1009 0.950 . S
C1013 C1004 1.390 . S
C1013 H1006 0.950 . S
C1013 C1010 1.387 . S
C1014 C1015 1.387 . S
C1014 H1018 0.950 . S
C1014 C1023 1.390 . S
C1015 C1014 1.387 . S
C1015 C1017 1.387 . S
H1016 C1023 0.950 . S
C1017 C1015 1.387 . S
C1017 C1019 1.390 . S
C1017 H1021 0.950 . S
H1018 C1014 0.950 . S
C1019 C1017 1.390 . S
C1019 C1020 1.387 . S
C1019 H1022 0.950 . S
C1020 C1019 1.387 . S
C1020 C1023 1.387 . S
H1021 C1017 0.950 . S
H1022 C1019 0.950 . S
C1023 C1014 1.390 . S
C1023 H1016 0.950 . S
C1023 C1020 1.387 . S
C1024 C1025 1.387 . S
C1024 H1028 0.950 . S
C1024 C1033 1.390 . S
C1025 C1024 1.387 . S
C1025 C1027 1.387 . S
H1026 C1033 0.950 . S
C1027 C1025 1.387 . S
C1027 C1029 1.390 . S
C1027 H1031 0.950 . S
H1028 C1024 0.950 . S
C1029 C1027 1.390 . S
C1029 C1030 1.387 . S
C1029 H1032 0.950 . S
C1030 C1029 1.387 . S
C1030 C1033 1.387 . S
H1031 C1027 0.950 . S
H1032 C1029 0.950 . S
C1033 C1024 1.390 . S
C1033 H1026 0.950 . S
C1033 C1030 1.387 . S
C1034 C1035 1.387 . S
C1034 H1038 0.950 . S
C1034 C1043 1.390 . S
C1035 C1034 1.387 . S
C1035 C1037 1.387 . S
H1036 C1043 0.950 . S
C1037 C1035 1.387 . S
C1037 C1039 1.390 . S
C1037 H1041 0.950 . S
H1038 C1034 0.950 . S
C1039 C1037 1.390 . S
C1039 C1040 1.387 . S
C1039 H1042 0.950 . S
C1040 C1039 1.387 . S
C1040 C1043 1.387 . S
H1041 C1037 0.950 . S
H1042 C1039 0.950 . S
C1043 C1034 1.390 . S
C1043 H1036 0.950 . S
C1043 C1040 1.387 . S
C1044 C1045 1.387 . S
C1044 H1048 0.950 . S
C1044 C1053 1.390 . S
C1045 C1044 1.387 . S
C1045 C1047 1.387 . S
H1046 C1053 0.950 . S
C1047 C1045 1.387 . S
C1047 C1049 1.390 . S
C1047 H1051 0.950 . S
H1048 C1044 0.950 . S
C1049 C1047 1.390 . S
C1049 C1050 1.387 . S
C1049 H1052 0.950 . S
C1050 C1049 1.387 . S
C1050 C1053 1.387 . S
H1051 C1047 0.950 . S
H1052 C1049 0.950 . S
C1053 C1044 1.390 . S
C1053 H1046 0.950 . S
C1053 C1050 1.387 . S
C1054 C1055 1.387 . S
C1054 H1058 0.950 . S
C1054 C1063 1.390 . S
C1055 C1054 1.387 . S
C1055 C1057 1.387 . S
H1056 C1063 0.950 . S
C1057 C1055 1.387 . S
C1057 C1059 1.390 . S
C1057 H1061 0.950 . S
H1058 C1054 0.950 . S
C1059 C1057 1.390 . S
C1059 C1060 1.387 . S
C1059 H1062 0.950 . S
C1060 C1059 1.387 . S
C1060 C1063 1.387 . S
H1061 C1057 0.950 . S
H1062 C1059 0.950 . S
C1063 C1054 1.390 . S
C1063 H1056 0.950 . S
C1063 C1060 1.387 . S
C1064 C1065 1.387 . S
C1064 H1068 0.950 . S
C1064 C1073 1.390 . S
C1065 C1064 1.387 . S
C1065 C1067 1.387 . S
H1066 C1073 0.950 . S
C1067 C1065 1.387 . S
C1067 C1069 1.390 . S
C1067 H1071 0.950 . S
H1068 C1064 0.950 . S
C1069 C1067 1.390 . S
C1069 C1070 1.387 . S
C1069 H1072 0.950 . S
C1070 C1069 1.387 . S
C1070 C1073 1.387 . S
H1071 C1067 0.950 . S
H1072 C1069 0.950 . S
C1073 C1064 1.390 . S
C1073 H1066 0.950 . S
C1073 C1070 1.387 . S
C1074 C1075 1.387 . S
C1074 H1078 0.950 . S
C1074 C1083 1.390 . S
C1075 C1074 1.387 . S
C1075 C1077 1.387 . S
H1076 C1083 0.950 . S
C1077 C1075 1.387 . S
C1077 C1079 1.390 . S
C1077 H1081 0.950 . S
H1078 C1074 0.950 . S
C1079 C1077 1.390 . S
C1079 C1080 1.387 . S
C1079 H1082 0.950 . S
C1080 C1079 1.387 . S
C1080 C1083 1.387 . S
H1081 C1077 0.950 . S
H1082 C1079 0.950 . S
C1083 C1074 1.390 . S
C1083 H1076 0.950 . S
C1083 C1080 1.387 . S
C1084 C1085 1.387 . S
C1084 H1088 0.950 . S
C1084 C1093 1.390 . S
C1085 C1084 1.387 . S
C1085 C1087 1.387 . S
H1086 C1093 0.950 . S
C1087 C1085 1.387 . S
C1087 C1089 1.390 . S
C1087 H1091 0.950 . S
H1088 C1084 0.950 . S
C1089 C1087 1.390 . S
C1089 C1090 1.387 . S
C1089 H1092 0.950 . S
C1090 C1089 1.387 . S
C1090 C1093 1.387 . S
H1091 C1087 0.950 . S
H1092 C1089 0.950 . S
C1093 C1084 1.390 . S
C1093 H1086 0.950 . S
C1093 C1090 1.387 . S
C1094 C1095 1.387 . S
C1094 H1098 0.950 . S
C1094 C1103 1.390 . S
C1095 C1094 1.387 . S
C1095 C1097 1.387 . S
H1096 C1103 0.950 . S
C1097 C1095 1.387 . S
C1097 C1099 1.390 . S
C1097 H1101 0.950 . S
H1098 C1094 0.950 . S
C1099 C1097 1.390 . S
C1099 C1100 1.387 . S
C1099 H1102 0.950 . S
C1100 C1099 1.387 . S
C1100 C1103 1.387 . S
H1101 C1097 0.950 . S
H1102 C1099 0.950 . S
C1103 C1094 1.390 . S
C1103 H1096 0.950 . S
C1103 C1100 1.387 . S
C545 C15 1.529 . S
C550 C151 1.529 . S
C555 C185 1.530 . S
C560 C49 1.530 . S
C565 C226 1.529 . S
C570 C83 1.529 . S
C575 C253 1.528 . S
C580 C117 1.528 . S
C585 C287 1.528 . S
C590 C423 1.528 . S
C595 C457 1.528 . S
C600 C321 1.528 . S
C605 C362 1.529 . S
C610 C491 1.529 . S
C615 C396 1.528 . S
C620 C525 1.528 . S
C625 C17 1.836 . S
C630 C445 1.812 . S
C635 C51 1.839 . S
C640 C411 1.811 . S
C645 C85 1.839 . S
C650 C513 1.811 . S
C655 C479 1.813 . S
C660 C119 1.838 . S
C665 C153 1.836 . S
C670 C309 1.812 . S
C675 C187 1.837 . S
C680 C275 1.812 . S
C685 C375 1.811 . S
C690 C221 1.839 . S
C695 C255 1.838 . S
C700 C341 1.813 . S
C705 C289 1.836 . S
C710 C173 1.812 . S
C715 C139 1.813 . S
C720 C323 1.837 . S
C725 C357 1.837 . S
C730 C241 1.813 . S
C735 C391 1.839 . S
C740 C205 1.810 . S
C745 C425 1.837 . S
C750 C37 1.811 . S
C755 C3 1.811 . S
C760 C459 1.839 . S
C765 C105 1.812 . S
C770 C493 1.839 . S
C775 C527 1.839 . S
C780 C71 1.811 . S
C785 C56 1.789 1_545 S
C790 C22 1.789 1_565 S
C795 C90 1.789 1_545 S
C800 C124 1.789 1_565 S
C805 C158 1.789 1_545 S
C810 C192 1.789 1_565 S
C815 C219 1.789 1_565 S
C820 C260 1.789 1_545 S
C825 C328 1.789 . S
C830 C294 1.789 . S
C835 C389 1.789 . S
C840 C355 1.789 . S
C845 C464 1.790 . S
C850 C430 1.790 . S
C855 C498 1.789 . S
C860 C532 1.789 . S
C865 C6 1.172 . S
C870 C266 1.164 . S
C875 C210 1.163 . S
C880 C40 1.172 . S
C885 C74 1.172 . S
C890 C198 1.164 . S
C895 C164 1.163 . S
C900 C108 1.171 . S
C905 C142 1.172 . S
C910 C130 1.164 . S
C915 C176 1.171 . S
C920 C96 1.161 . S
C925 C232 1.171 . S
C930 C62 1.161 . S
C935 C28 1.162 . S
C940 C244 1.171 . S
C945 C278 1.171 . S
C950 C538 1.162 . S
C955 C312 1.172 . S
C960 C504 1.163 . S
C965 C470 1.162 . S
C970 C368 1.171 . S
C975 C402 1.172 . S
C980 C436 1.163 . S
C985 C414 1.171 . S
C990 C380 1.163 . S
C995 C448 1.172 . S
C1000 C346 1.162 . S
C1005 C482 1.171 . S
C1010 C334 1.163 . S
C1015 C300 1.163 . S
C1020 C516 1.172 . S
C1025 C343 1.811 . S
C1030 C1 1.811 . S
C1035 C35 1.813 . S
C1040 C377 1.813 . S
C1045 C273 1.811 . S
C1050 C69 1.811 . S
C1055 C103 1.811 . S
C1060 C307 1.811 . S
C1065 C137 1.811 . S
C1070 C477 1.811 . S
C1075 C511 1.813 . S
C1080 C171 1.813 . S
C1085 C409 1.811 . S
C1090 C207 1.811 . S
C1095 C443 1.811 . S
C1100 C239 1.811 . S
