# Generated by pormake.
# Topology rob, (6)-cn, num edge types: 1
# Building blocks:
#     Node 0, Type 0, BuildingBlock: MIFKUJ_clean_sbu_0, # of connection points: 6
#     Node 1, Type 0, BuildingBlock: MIFKUJ_clean_sbu_0, # of connection points: 6
#     Node 2, Type 0, BuildingBlock: MIFKUJ_clean_sbu_0, # of connection points: 6
#     Node 3, Type 0, BuildingBlock: MIFKUJ_clean_sbu_0, # of connection points: 6
#     Edge 4, Type (0, 0), BuildingBlock: UVAHIK_clean_linker_0, # of connection points: 2
#     Edge 5, Type (0, 0), BuildingBlock: UVAHIK_clean_linker_0, # of connection points: 2
#     Edge 6, Type (0, 0), BuildingBlock: UVAHIK_clean_linker_0, # of connection points: 2
#     Edge 7, Type (0, 0), BuildingBlock: UVAHIK_clean_linker_0, # of connection points: 2
#     Edge 8, Type (0, 0), BuildingBlock: UVAHIK_clean_linker_0, # of connection points: 2
#     Edge 9, Type (0, 0), BuildingBlock: UVAHIK_clean_linker_0, # of connection points: 2
#     Edge 10, Type (0, 0), BuildingBlock: UVAHIK_clean_linker_0, # of connection points: 2
#     Edge 11, Type (0, 0), BuildingBlock: UVAHIK_clean_linker_0, # of connection points: 2
#     Edge 12, Type (0, 0), BuildingBlock: UVAHIK_clean_linker_0, # of connection points: 2
#     Edge 13, Type (0, 0), BuildingBlock: UVAHIK_clean_linker_0, # of connection points: 2
#     Edge 14, Type (0, 0), BuildingBlock: UVAHIK_clean_linker_0, # of connection points: 2
#     Edge 15, Type (0, 0), BuildingBlock: UVAHIK_clean_linker_0, # of connection points: 2
# Relax obj value: 0.067
# Max RMSD: 0.156
# Mean RMSD: 0.156
data_MOF--net-rob--node1-MIFKUJ_clean_sbu_0--edge1-UVAHIK_clean_linker_0
_symmetry_space_group_name_H-M    P1
_symmetry_Int_Tables_number       1
_symmetry_cell_setting            triclinic
loop_
_symmetry_equiv_pos_as_xyz
'x, y, z'
_cell_length_a     20.331975
_cell_length_b     32.041612
_cell_length_c     37.797601
_cell_angle_alpha  89.798749
_cell_angle_beta   84.768451
_cell_angle_gamma 89.769517
loop_
_atom_site_label
_atom_site_type_symbol
_atom_site_fract_x
_atom_site_fract_y
_atom_site_fract_z
_atom_type_partial_charge
Zn0 Zn 0.18946 0.25175 0.96036 0.0
Zn1 Zn 0.27163 0.21437 0.01739 0.0
C2 C 0.28867 0.25882 0.90513 0.0
O3 O 0.2675 0.29741 0.90968 0.0
C4 C 0.17918 0.20577 0.07473 0.0
O5 O 0.20277 0.16794 0.06876 0.0
O6 O 0.12444 0.27473 0.92796 0.0
O7 O 0.14455 0.20398 0.98703 0.0
O8 O 0.2352 0.16712 0.99037 0.0
C9 C 0.09705 0.24692 0.91047 0.0
O10 O 0.10963 0.20747 0.91674 0.0
O11 O 0.2632 0.23048 0.92558 0.0
C12 C 0.35462 0.22177 0.07037 0.0
O13 O 0.3355 0.26013 0.06423 0.0
O14 O 0.3371 0.1928 0.05033 0.0
O15 O 0.31611 0.2621 0.99057 0.0
O16 O 0.22503 0.29864 0.98834 0.0
O17 O 0.19854 0.2348 0.05324 0.0
C18 C 0.17312 0.16877 0.98854 0.0
C19 C 0.28687 0.29719 0.99091 0.0
Zn20 Zn 0.6847 0.75142 0.9999 0.0
Zn21 Zn 0.76428 0.71407 0.05864 0.0
C22 C 0.7895 0.75858 0.9482 0.0
O23 O 0.7659 0.79677 0.95129 0.0
C24 C 0.66838 0.70229 0.11439 0.0
O25 O 0.69178 0.66452 0.10792 0.0
O26 O 0.6252 0.77158 0.96328 0.0
O27 O 0.63763 0.70439 0.02609 0.0
O28 O 0.72872 0.6681 0.02941 0.0
C29 C 0.61329 0.74253 0.94194 0.0
O30 O 0.6341 0.70462 0.94843 0.0
O31 O 0.76359 0.73026 0.96853 0.0
C32 C 0.86 0.71687 0.10734 0.0
O33 O 0.84773 0.75665 0.10239 0.0
O34 O 0.83127 0.69 0.08951 0.0
O35 O 0.80658 0.76427 0.03411 0.0
O36 O 0.71519 0.79949 0.02806 0.0
O37 O 0.69092 0.73223 0.09479 0.0
C38 C 0.66696 0.66938 0.02643 0.0
C39 C 0.77667 0.79894 0.03184 0.0
Zn40 Zn 0.2609 0.74495 0.55873 0.0
Zn41 Zn 0.18351 0.70594 0.49993 0.0
C42 C 0.16725 0.75763 0.61524 0.0
O43 O 0.19013 0.79526 0.60776 0.0
C44 C 0.28678 0.6961 0.44816 0.0
O45 O 0.26302 0.65828 0.45351 0.0
O46 O 0.32773 0.76874 0.58955 0.0
O47 O 0.30362 0.69445 0.53533 0.0
O48 O 0.21288 0.65886 0.52984 0.0
C49 C 0.35175 0.74134 0.60917 0.0
O50 O 0.33485 0.70214 0.60569 0.0
O51 O 0.18775 0.72758 0.59526 0.0
C52 C 0.11474 0.71387 0.44103 0.0
O53 O 0.13604 0.75164 0.44699 0.0
O54 O 0.12463 0.68519 0.46334 0.0
O55 O 0.13608 0.7538 0.52455 0.0
O56 O 0.22636 0.7903 0.52839 0.0
O57 O 0.26272 0.7255 0.4679 0.0
C58 C 0.27399 0.6597 0.53441 0.0
C59 C 0.16506 0.7888 0.52435 0.0
Zn60 Zn 0.7721 0.24637 0.51911 0.0
Zn61 Zn 0.69444 0.21106 0.45883 0.0
C62 C 0.67577 0.25621 0.57454 0.0
O63 O 0.70025 0.29378 0.56872 0.0
C64 C 0.79812 0.20446 0.40587 0.0
O65 O 0.77736 0.16578 0.40978 0.0
O66 O 0.83527 0.26746 0.55323 0.0
O67 O 0.81734 0.19823 0.49345 0.0
O68 O 0.72662 0.16311 0.48699 0.0
C69 C 0.84924 0.2389 0.57481 0.0
O70 O 0.82908 0.20074 0.56934 0.0
O71 O 0.69629 0.22689 0.55369 0.0
C72 C 0.60894 0.2188 0.40602 0.0
O73 O 0.62495 0.25765 0.41209 0.0
O74 O 0.63155 0.19 0.42476 0.0
O75 O 0.64848 0.25819 0.48543 0.0
O76 O 0.73897 0.29395 0.49091 0.0
O77 O 0.7707 0.2325 0.42592 0.0
C78 C 0.78775 0.16363 0.49151 0.0
C79 C 0.67719 0.29299 0.48811 0.0
C80 C 0.65939 0.59135 0.02423 0.0
C81 C 0.62872 0.63067 0.02356 0.0
C82 C 0.62264 0.555 0.02106 0.0
C83 C 0.45214 0.51506 0.03148 0.0
H84 H 0.523 0.42654 0.96935 0.0
C85 C 0.29496 0.37516 0.99381 0.0
C86 C 0.32541 0.33574 0.99398 0.0
C87 C 0.33197 0.41133 0.9973 0.0
C88 C 0.50283 0.45082 0.98706 0.0
H89 H 0.53548 0.6627 0.01904 0.0
H90 H 0.47184 0.59948 0.0133 0.0
H91 H 0.58859 0.48898 0.9766 0.0
H92 H 0.41852 0.30335 0.99797 0.0
H93 H 0.48258 0.36626 1.00434 0.0
H94 H 0.36639 0.47692 0.04195 0.0
C95 C 0.524 0.59666 0.01671 0.0
C96 C 0.54042 0.48651 0.99126 0.0
C97 C 0.56063 0.6329 0.01981 0.0
C98 C 0.39354 0.33324 0.99756 0.0
C99 C 0.43041 0.36931 1.00103 0.0
C100 C 0.41456 0.47937 0.0273 0.0
C101 C 0.55457 0.55734 0.01725 0.0
C102 C 0.51541 0.51902 0.01346 0.0
C103 C 0.40007 0.40873 1.00097 0.0
C104 C 0.43951 0.44689 1.00504 0.0
H105 H 0.71175 0.58861 0.02717 0.0
H106 H 0.64736 0.52506 0.02191 0.0
H107 H 0.43195 0.53938 0.04915 0.0
H108 H 0.24258 0.3781 0.99101 0.0
H109 H 0.3074 0.44135 0.99678 0.0
C110 C 0.2852 0.58247 0.5256 0.0
C111 C 0.31295 0.62082 0.53407 0.0
C112 C 0.32435 0.54652 0.52254 0.0
C113 C 0.49728 0.51476 0.50363 0.0
H114 H 0.43567 0.40707 0.53979 0.0
C115 C 0.66537 0.36917 0.50179 0.0
C116 C 0.63725 0.33142 0.49206 0.0
C117 C 0.62605 0.40474 0.50756 0.0
C118 C 0.45324 0.4369 0.52927 0.0
H119 H 0.40257 0.65129 0.54755 0.0
H120 H 0.47031 0.5886 0.54258 0.0
H121 H 0.36509 0.46846 0.54997 0.0
H122 H 0.54639 0.30155 0.47979 0.0
H123 H 0.47823 0.36369 0.48939 0.0
H124 H 0.58519 0.48325 0.48273 0.0
C125 C 0.41879 0.58644 0.53761 0.0
C126 C 0.41289 0.47196 0.53512 0.0
C127 C 0.37984 0.62228 0.54062 0.0
C128 C 0.56946 0.33011 0.48753 0.0
C129 C 0.53028 0.36561 0.49324 0.0
C130 C 0.53758 0.47972 0.49777 0.0
C131 C 0.39176 0.54839 0.52795 0.0
C132 C 0.43454 0.51119 0.52231 0.0
C133 C 0.55803 0.40315 0.50363 0.0
C134 C 0.51586 0.44045 0.51043 0.0
H135 H 0.23382 0.5804 0.52038 0.0
H136 H 0.30237 0.51758 0.51484 0.0
H137 H 0.51477 0.54453 0.49295 0.0
H138 H 0.71742 0.37107 0.50564 0.0
H139 H 0.64861 0.43324 0.51581 0.0
C140 C 0.06479 0.1326 0.98796 0.0
C141 C 0.13306 0.13039 0.99115 0.0
C142 C 0.0259 0.09688 0.99187 0.0
C143 C 0.03399 -0.01781 0.98927 0.0
H144 H 0.86457 -0.01047 0.04519 0.0
C145 C 0.8836 0.83663 0.03262 0.0
C146 C 0.81535 0.8379 0.0292 0.0
C147 C 0.9215 0.87271 0.02815 0.0
C148 C 0.91141 -0.01287 0.02919 0.0
H149 H 0.21424 0.08887 1.00053 0.0
H150 H 0.14602 0.02636 0.00765 0.0
H151 H 0.93333 0.05159 0.03646 0.0
H152 H 0.73312 0.87821 0.01903 0.0
H153 H 0.79969 0.94143 0.01112 0.0
H154 H 0.01218 0.9177 0.98211 0.0
C155 C 0.12281 0.05575 1.00176 0.0
C156 C 0.95077 0.02262 0.02418 0.0
C157 C 0.16182 0.09155 0.99781 0.0
C158 C 0.78556 0.87625 0.02192 0.0
C159 C 0.8236 0.91244 0.01748 0.0
C160 C -0.00533 0.94671 0.9943 0.0
C161 C 0.05436 0.05814 0.99909 0.0
C162 C 0.01252 0.02049 1.00422 0.0
C163 C 0.89207 0.91089 0.0202 0.0
C164 C 0.93309 0.94879 0.01442 0.0
H165 H 0.04112 0.16201 0.98261 0.0
H166 H 0.9735 0.09957 0.98909 0.0
H167 H 0.08085 0.97975 0.97329 0.0
H168 H 0.9081 0.80765 0.03842 0.0
H169 H 0.97395 0.8707 0.03102 0.0
C170 C 0.89288 0.12566 0.4987 0.0
C171 C 0.82553 0.12443 0.49309 0.0
C172 C 0.92916 0.08889 0.50038 0.0
C173 C 0.91076 0.97728 0.51903 0.0
H174 H 0.08892 0.97053 0.47285 0.0
C175 C 0.06034 0.8247 0.51252 0.0
C176 C 0.12692 0.82727 0.51952 0.0
C177 C 0.02359 0.86077 0.50804 0.0
C178 C 0.03948 0.97215 0.48615 0.0
H179 H 0.74342 0.08373 0.48463 0.0
H180 H 0.80725 0.01924 0.48742 0.0
H181 H 0.0236 0.03375 0.46659 0.0
H182 H 0.20736 0.86964 0.52713 0.0
H183 H 0.14265 0.93292 0.51962 0.0
H184 H 0.92673 0.91583 0.53878 0.0
C185 C 0.83161 0.04876 0.49082 0.0
C186 C 0.0021 0.00824 0.48253 0.0
C187 C 0.7952 0.08564 0.4891 0.0
C188 C 0.15617 0.86669 0.52172 0.0
C189 C 0.11928 0.90287 0.51724 0.0
C190 C 0.94813 0.9412 0.52265 0.0
C191 C 0.89893 0.0501 0.4965 0.0
C192 C 0.93752 0.01121 0.49909 0.0
C193 C 0.05257 0.9002 0.5105 0.0
C194 C 0.01292 0.93836 0.50636 0.0
H195 H 0.91769 0.15504 0.50204 0.0
H196 H 0.98071 0.09083 0.50534 0.0
H197 H 0.86148 0.97897 0.53253 0.0
H198 H 0.03646 0.79478 0.51037 0.0
H199 H 0.97257 0.85778 0.50234 0.0
C200 C 0.53934 0.24184 0.35872 0.0
C201 C 0.57079 0.20927 0.3756 0.0
C202 C 0.50892 0.2345 0.32779 0.0
C203 C 0.51686 0.16548 0.25078 0.0
H204 H 0.36017 0.2279 0.23153 0.0
C205 C 0.39551 0.17131 0.11488 0.0
C206 C 0.38534 0.21254 0.10355 0.0
C207 C 0.41598 0.16349 0.14876 0.0
C208 C 0.40374 0.21007 0.23662 0.0
H209 H 0.59337 0.14306 0.37389 0.0
H210 H 0.53972 0.13015 0.31944 0.0
H211 H 0.39457 0.22631 0.29162 0.0
H212 H 0.392 0.2778 0.11815 0.0
H213 H 0.42672 0.26407 0.17683 0.0
H214 H 0.52629 0.15012 0.19522 0.0
C215 C 0.53908 0.16143 0.33023 0.0
C216 C 0.42353 0.20923 0.27095 0.0
C217 C 0.56933 0.16877 0.36149 0.0
C218 C 0.39874 0.24565 0.12605 0.0
C219 C 0.41831 0.23785 0.15979 0.0
C220 C 0.49661 0.16606 0.21632 0.0
C221 C 0.50918 0.19439 0.31285 0.0
C222 C 0.48171 0.18831 0.27816 0.0
C223 C 0.42565 0.19678 0.17179 0.0
C224 C 0.44127 0.18968 0.20879 0.0
H225 H 0.53952 0.2734 0.36891 0.0
H226 H 0.48732 0.26075 0.31484 0.0
H227 H 0.56206 0.14921 0.25546 0.0
H228 H 0.38554 0.14514 0.09814 0.0
H229 H 0.42171 0.13155 0.15746 0.0
C230 C 0.60744 0.74985 0.15903 0.0
C231 C 0.62054 0.7095 0.14559 0.0
C232 C 0.56654 0.7555 0.19057 0.0
C233 C 0.44024 0.70139 0.25073 0.0
H234 H 0.50432 0.76899 0.32527 0.0
C235 C 0.35787 0.67071 0.39562 0.0
C236 C 0.33226 0.70446 0.41618 0.0
C237 C 0.39182 0.67744 0.36246 0.0
C238 C 0.48545 0.75052 0.3045 0.0
H239 H 0.59952 0.64368 0.15394 0.0
H240 H 0.52887 0.65346 0.20848 0.0
H241 H 0.56229 0.77023 0.26542 0.0
H242 H 0.32579 0.77199 0.41904 0.0
H243 H 0.38669 0.78377 0.3607 0.0
H244 H 0.3652 0.68036 0.28995 0.0
C245 C 0.54954 0.68081 0.19478 0.0
C246 C 0.51837 0.7513 0.27028 0.0
C247 C 0.5905 0.67517 0.16358 0.0
C248 C 0.34496 0.74536 0.40377 0.0
C249 C 0.37958 0.75213 0.37044 0.0
C250 C 0.40781 0.70042 0.2848 0.0
C251 C 0.53756 0.72094 0.20886 0.0
C252 C 0.4972 0.7257 0.24336 0.0
C253 C 0.40138 0.71808 0.3491 0.0
C254 C 0.43125 0.72396 0.31225 0.0
H255 H 0.63011 0.77689 0.14575 0.0
H256 H 0.55787 0.7868 0.20072 0.0
H257 H 0.42185 0.68207 0.23037 0.0
H258 H 0.3497 0.63883 0.40454 0.0
H259 H 0.40941 0.65069 0.34682 0.0
C260 C 0.56624 0.79191 0.8985 0.0
C261 C 0.58529 0.75136 0.90787 0.0
C262 C 0.54577 0.79994 0.86465 0.0
C263 C 0.56694 0.75894 0.77405 0.0
H264 H 0.39813 0.80955 0.75915 0.0
C265 C 0.42954 0.72206 0.6536 0.0
C266 C 0.39203 0.75291 0.6382 0.0
C267 C 0.46118 0.73064 0.6839 0.0
C268 C 0.44613 0.79626 0.76275 0.0
H269 H 0.59575 0.68733 0.8894 0.0
H270 H 0.56085 0.70146 0.83088 0.0
H271 H 0.43613 0.80841 0.81886 0.0
H272 H 0.35979 0.81746 0.64178 0.0
H273 H 0.41531 0.83253 0.69531 0.0
H274 H 0.5765 0.7456 0.71845 0.0
C275 C 0.56224 0.72708 0.84943 0.0
C276 C 0.4677 0.79552 0.79692 0.0
C277 C 0.5818 0.71898 0.88313 0.0
C278 C 0.38875 0.79314 0.65301 0.0
C279 C 0.42002 0.80167 0.68375 0.0
C280 C 0.54568 0.75986 0.74002 0.0
C281 C 0.54506 0.76767 0.83961 0.0
C282 C 0.52714 0.77541 0.80303 0.0
C283 C 0.45584 0.77026 0.69976 0.0
C284 C 0.48389 0.77705 0.73421 0.0
H285 H 0.56839 0.8175 0.917 0.0
H286 H 0.53241 0.83149 0.85771 0.0
H287 H 0.61361 0.74395 0.77796 0.0
H288 H 0.43304 0.69078 0.64277 0.0
H289 H 0.48752 0.70554 0.6958 0.0
C290 C 0.61476 0.20728 0.61836 0.0
C291 C 0.63303 0.24804 0.60762 0.0
C292 C 0.58104 0.20015 0.6519 0.0
C293 C 0.561 0.24709 0.74029 0.0
H294 H 0.3946 0.1882 0.75575 0.0
C295 C 0.37495 0.28144 0.85822 0.0
C296 C 0.33811 0.24899 0.87522 0.0
C297 C 0.41757 0.27365 0.82799 0.0
C298 C 0.44178 0.20394 0.75199 0.0
H299 H 0.62742 0.31332 0.62294 0.0
H300 H 0.56948 0.30081 0.68092 0.0
H301 H 0.45501 0.1884 0.69652 0.0
H302 H 0.31806 0.1826 0.87437 0.0
H303 H 0.39285 0.16893 0.8209 0.0
H304 H 0.5474 0.26373 0.79518 0.0
C305 C 0.58186 0.27435 0.66378 0.0
C306 C 0.47616 0.20411 0.71812 0.0
C307 C 0.61475 0.28149 0.63041 0.0
C308 C 0.34608 0.2082 0.86184 0.0
C309 C 0.38846 0.20042 0.83118 0.0
C310 C 0.52698 0.24678 0.774 0.0
C311 C 0.56592 0.23363 0.6752 0.0
C312 C 0.53481 0.22703 0.71176 0.0
C313 C 0.42423 0.23321 0.81381 0.0
C314 C 0.46579 0.22655 0.77993 0.0
H315 H 0.62819 0.18087 0.60137 0.0
H316 H 0.5689 0.16847 0.6601 0.0
H317 H 0.60687 0.26429 0.73622 0.0
H318 H 0.37003 0.31319 0.86791 0.0
H319 H 0.44365 0.29971 0.81497 0.0
C320 C 0.94077 0.73389 0.15075 0.0
C321 C 0.90023 0.7043 0.13627 0.0
C322 C 0.97236 0.72456 0.18103 0.0
C323 C 0.95219 0.66061 0.26121 0.0
H324 H 0.12301 0.70763 0.27585 0.0
C325 C 0.06783 0.66442 0.39801 0.0
C326 C 0.089 0.70463 0.4065 0.0
C327 C 0.04886 0.65598 0.36397 0.0
C328 C 0.0754 0.69408 0.2721 0.0
H329 H 0.86289 0.64107 0.14137 0.0
H330 H 0.91828 0.62471 0.19476 0.0
H331 H 0.08629 0.70634 0.21624 0.0
H332 H 0.10551 0.76757 0.3861 0.0
H333 H 0.07318 0.75274 0.32732 0.0
H334 H 0.94082 0.64966 0.31753 0.0
C335 C 0.92533 0.65519 0.18256 0.0
C336 C 0.05435 0.69339 0.23801 0.0
C337 C 0.89407 0.66445 0.1519 0.0
C338 C 0.08968 0.73621 0.38057 0.0
C339 C 0.07166 0.72768 0.3467 0.0
C340 C 0.97352 0.66113 0.29542 0.0
C341 C 0.96395 0.68545 0.19776 0.0
C342 C -0.00857 0.67819 0.23238 0.0
C343 C 0.05187 0.68745 0.33785 0.0
C344 C 0.03422 0.67938 0.30131 0.0
H345 H 0.94661 0.76484 0.13928 0.0
H346 H 0.00097 0.7488 0.19226 0.0
H347 H 0.90331 0.64887 0.25777 0.0
H348 H 0.06687 0.63943 0.41741 0.0
H349 H 0.03344 0.62473 0.35779 0.0
C350 C 0.88767 0.18292 0.36035 0.0
C351 C 0.84854 0.21489 0.37662 0.0
C352 C 0.93057 0.1911 0.33029 0.0
C353 C 0.95064 0.25987 0.2533 0.0
H354 H 0.11855 0.20189 0.23793 0.0
C355 C 0.1192 0.25531 0.11839 0.0
C356 C 0.13867 0.21449 0.10844 0.0
C357 C 0.08696 0.26303 0.15217 0.0
C358 C 0.07191 0.21846 0.24189 0.0
H359 H 0.82494 0.28087 0.37481 0.0
H360 H 0.90018 0.29521 0.32165 0.0
H361 H 0.05994 0.20281 0.29712 0.0
H362 H 0.13717 0.1497 0.12562 0.0
H363 H 0.08179 0.16324 0.18399 0.0
H364 H 0.96213 0.27428 0.19753 0.0
C365 C 0.89739 0.2638 0.33236 0.0
C366 C 0.03838 0.21898 0.27573 0.0
C367 C 0.85475 0.25566 0.36285 0.0
C368 C 0.12342 0.18157 0.1324 0.0
C369 C 0.09205 0.18931 0.16602 0.0
C370 C -0.0155 0.25948 0.21931 0.0
C371 C 0.93517 0.23144 0.31557 0.0
C372 C 0.97621 0.23827 0.28154 0.0
C373 C 0.07459 0.23012 0.17653 0.0
C374 C 0.04419 0.23737 0.21311 0.0
H375 H 0.8841 0.15122 0.37039 0.0
H376 H 0.95827 0.16535 0.31774 0.0
H377 H 0.90267 0.27486 0.25695 0.0
H378 H 0.13029 0.28132 0.10048 0.0
H379 H 0.0736 0.29476 0.15965 0.0
C380 C 0.89425 0.28984 0.61717 0.0
C381 C 0.87698 0.24883 0.60864 0.0
C382 C 0.91333 0.29906 0.65102 0.0
C383 C 0.88893 0.26132 0.74242 0.0
H384 H 0.05729 0.31101 0.75816 0.0
C385 C 0.01959 0.22727 0.86612 0.0
C386 C 0.05798 0.25798 0.88069 0.0
C387 C -0.01087 0.23525 0.83523 0.0
C388 C 0.00937 0.29802 0.75431 0.0
H389 H 0.86841 0.18522 0.62858 0.0
H390 H 0.90077 0.20143 0.68717 0.0
H391 H 0.02218 0.30825 0.69789 0.0
H392 H 0.09259 0.3218 0.8751 0.0
H393 H 0.03903 0.33582 0.82068 0.0
H394 H 0.87645 0.24996 0.79838 0.0
C395 C 0.89914 0.22646 0.6679 0.0
C396 C -0.01052 0.29636 0.71982 0.0
C397 C 0.88106 0.21718 0.63418 0.0
C398 C 0.06309 0.29756 0.8645 0.0
C399 C 0.03289 0.30549 0.83325 0.0
C400 C 0.90846 0.26324 0.77678 0.0
C401 C 0.91433 0.26751 0.67688 0.0
C402 C 0.93027 0.27651 0.7135 0.0
C403 C -0.00356 0.27413 0.81801 0.0
C404 C 0.97008 0.28006 0.78295 0.0
H405 H 0.89153 0.3149 0.59805 0.0
H406 H 0.92522 0.33094 0.65735 0.0
H407 H 0.84245 0.24651 0.73826 0.0
H408 H 0.01459 0.19649 0.878 0.0
H409 H 0.96226 0.21017 0.82399 0.0
C410 C 0.10721 0.70965 0.66001 0.0
C411 C 0.12644 0.75017 0.64906 0.0
C412 C 0.07505 0.70285 0.69394 0.0
C413 C 0.06002 0.74964 0.78252 0.0
H414 H 0.89448 0.69011 0.79962 0.0
C415 C 0.87808 0.78151 0.90283 0.0
C416 C 0.84064 0.7489 0.91915 0.0
C417 C 0.9207 0.77419 0.87252 0.0
C418 C 0.94147 0.706 0.79541 0.0
H419 H 0.12444 0.81541 0.6645 0.0
H420 H 0.06891 0.80347 0.72324 0.0
H421 H 0.95205 0.69128 0.73979 0.0
H422 H 0.81999 0.68265 0.91734 0.0
H423 H 0.89497 0.66976 0.86382 0.0
H424 H 0.04908 0.76534 0.83765 0.0
C425 C 0.0794 0.77694 0.70591 0.0
C426 C 0.9742 0.70677 0.76117 0.0
C427 C 0.11082 0.78377 0.67212 0.0
C428 C 0.84855 0.70833 0.90533 0.0
C429 C 0.89097 0.70103 0.87461 0.0
C430 C 0.02764 0.7487 0.81663 0.0
C431 C 0.06239 0.73639 0.71745 0.0
C432 C 0.03254 0.72987 0.75424 0.0
C433 C 0.92675 0.73408 0.85764 0.0
C434 C 0.96684 0.72816 0.8232 0.0
H435 H 0.11854 0.68313 0.64281 0.0
H436 H 0.06211 0.6713 0.70221 0.0
H437 H 0.10573 0.76692 0.77801 0.0
H438 H 0.87315 0.81308 0.91294 0.0
H439 H 0.94681 0.80045 0.85986 0.0
loop_
_geom_bond_atom_site_label_1
_geom_bond_atom_site_label_2
_geom_bond_distance
_geom_bond_site_symmetry_2
_ccdc_geom_bond_type
Zn0 O6 1.969 . S
Zn0 O7 1.965 . S
Zn0 O11 2.024 . S
Zn0 O16 1.969 . S
Zn1 O8 1.969 . S
Zn1 O14 1.969 . S
Zn1 O15 1.965 . S
Zn1 O17 2.024 . S
C2 O3 1.229 . S
C2 O11 1.058 . S
O3 C2 1.229 . S
C4 O5 1.229 . S
C4 O17 1.058 . S
O5 C4 1.229 . S
O6 Zn0 1.969 . S
O6 C9 1.267 . S
O7 Zn0 1.965 . S
O7 C18 1.260 1_556 S
O8 Zn1 1.969 . S
O8 C18 1.258 . S
C9 O6 1.267 . S
C9 O10 1.228 . S
O10 C9 1.228 . S
O11 Zn0 2.024 . S
O11 C2 1.058 . S
C12 O13 1.228 . S
C12 O14 1.267 . S
O13 C12 1.228 . S
O14 Zn1 1.969 . S
O14 C12 1.267 . S
O15 Zn1 1.965 . S
O15 C19 1.249 1_554 S
O16 Zn0 1.969 . S
O16 C19 1.275 . S
O17 Zn1 2.024 . S
O17 C4 1.058 . S
C18 O7 1.260 1_554 S
C18 O8 1.258 . S
C19 O15 1.249 1_556 S
C19 O16 1.275 . S
Zn20 O26 1.969 . S
Zn20 O27 1.965 . S
Zn20 O31 2.024 . S
Zn20 O36 1.969 . S
Zn21 O28 1.969 . S
Zn21 O34 1.969 . S
Zn21 O35 1.965 . S
Zn21 O37 2.024 . S
C22 O23 1.229 . S
C22 O31 1.058 . S
O23 C22 1.229 . S
C24 O25 1.229 . S
C24 O37 1.058 . S
O25 C24 1.229 . S
O26 Zn20 1.969 . S
O26 C29 1.267 . S
O27 Zn20 1.965 . S
O27 C38 1.260 1_556 S
O28 Zn21 1.969 . S
O28 C38 1.258 . S
C29 O26 1.267 . S
C29 O30 1.228 . S
O30 C29 1.228 . S
O31 Zn20 2.024 . S
O31 C22 1.058 . S
C32 O33 1.228 . S
C32 O34 1.267 . S
O33 C32 1.228 . S
O34 Zn21 1.969 . S
O34 C32 1.267 . S
O35 Zn21 1.965 . S
O35 C39 1.249 1_554 S
O36 Zn20 1.969 . S
O36 C39 1.275 . S
O37 Zn21 2.024 . S
O37 C24 1.058 . S
C38 O27 1.260 1_554 S
C38 O28 1.258 . S
C39 O35 1.249 1_556 S
C39 O36 1.275 . S
Zn40 O46 1.969 . S
Zn40 O47 1.965 . S
Zn40 O51 2.024 . S
Zn40 O56 1.969 . S
Zn41 O48 1.969 . S
Zn41 O54 1.969 . S
Zn41 O55 1.965 . S
Zn41 O57 2.024 . S
C42 O43 1.229 . S
C42 O51 1.058 . S
O43 C42 1.229 . S
C44 O45 1.229 . S
C44 O57 1.058 . S
O45 C44 1.229 . S
O46 Zn40 1.969 . S
O46 C49 1.267 . S
O47 Zn40 1.965 . S
O47 C58 1.260 . S
O48 Zn41 1.969 . S
O48 C58 1.258 . S
C49 O46 1.267 . S
C49 O50 1.228 . S
O50 C49 1.228 . S
O51 Zn40 2.024 . S
O51 C42 1.058 . S
C52 O53 1.228 . S
C52 O54 1.267 . S
O53 C52 1.228 . S
O54 Zn41 1.969 . S
O54 C52 1.267 . S
O55 Zn41 1.965 . S
O55 C59 1.260 . S
O56 Zn40 1.969 . S
O56 C59 1.258 . S
O57 Zn41 2.024 . S
O57 C44 1.058 . S
C58 O47 1.260 . S
C58 O48 1.258 . S
C59 O55 1.260 . S
C59 O56 1.258 . S
Zn60 O66 1.969 . S
Zn60 O67 1.965 . S
Zn60 O71 2.024 . S
Zn60 O76 1.969 . S
Zn61 O68 1.969 . S
Zn61 O74 1.969 . S
Zn61 O75 1.965 . S
Zn61 O77 2.024 . S
C62 O63 1.229 . S
C62 O71 1.058 . S
O63 C62 1.229 . S
C64 O65 1.229 . S
C64 O77 1.058 . S
O65 C64 1.229 . S
O66 Zn60 1.969 . S
O66 C69 1.267 . S
O67 Zn60 1.965 . S
O67 C78 1.260 . S
O68 Zn61 1.969 . S
O68 C78 1.258 . S
C69 O66 1.267 . S
C69 O70 1.228 . S
O70 C69 1.228 . S
O71 Zn60 2.024 . S
O71 C62 1.058 . S
C72 O73 1.228 . S
C72 O74 1.267 . S
O73 C72 1.228 . S
O74 Zn61 1.969 . S
O74 C72 1.267 . S
O75 Zn61 1.965 . S
O75 C79 1.260 . S
O76 Zn60 1.969 . S
O76 C79 1.258 . S
O77 Zn61 2.024 . S
O77 C64 1.058 . S
C78 O67 1.260 . S
C78 O68 1.258 . S
C79 O75 1.260 . S
C79 O76 1.258 . S
C80 C81 1.363 . S
C80 C82 1.327 . S
C80 H105 0.950 . S
C81 C80 1.363 . S
C81 C97 1.336 1_556 S
C82 C80 1.327 . S
C82 C101 1.409 1_556 S
C82 H106 0.950 . S
C83 C100 1.574 . S
C83 C102 1.368 . S
C83 H107 0.949 . S
H84 C88 0.949 . S
C85 C86 1.349 . S
C85 C87 1.327 . S
C85 H108 0.950 . S
C86 C85 1.349 . S
C86 C98 1.349 1_554 S
C87 C85 1.327 . S
C87 C103 1.429 . S
C87 H109 0.950 . S
C88 H84 0.949 . S
C88 C96 1.574 . S
C88 C104 1.368 1_556 S
H89 C97 0.950 . S
H90 C95 0.950 . S
H91 C96 0.949 . S
H92 C98 0.950 . S
H93 C99 0.950 . S
H94 C100 0.949 . S
C95 H90 0.950 . S
C95 C97 1.327 . S
C95 C101 1.449 . S
C96 C88 1.574 . S
C96 H91 0.949 . S
C96 C102 1.368 1_556 S
C97 C81 1.336 1_554 S
C97 H89 0.950 . S
C97 C95 1.327 . S
C98 C86 1.349 1_556 S
C98 H92 0.950 . S
C98 C99 1.327 . S
C99 H93 0.950 . S
C99 C98 1.327 . S
C99 C103 1.429 1_556 S
C100 C83 1.574 . S
C100 H94 0.949 . S
C100 C104 1.368 . S
C101 C82 1.409 1_554 S
C101 C95 1.449 . S
C101 C102 1.522 . S
C102 C83 1.368 . S
C102 C96 1.368 1_554 S
C102 C101 1.522 . S
C103 C87 1.429 . S
C103 C99 1.429 1_554 S
C103 C104 1.523 . S
C104 C88 1.368 1_554 S
C104 C100 1.368 . S
C104 C103 1.523 . S
H105 C80 0.950 . S
H106 C82 0.950 . S
H107 C83 0.949 . S
H108 C85 0.950 . S
H109 C87 0.950 . S
C110 C111 1.349 . S
C110 C112 1.327 . S
C110 H135 0.950 . S
C111 C110 1.349 . S
C111 C127 1.349 . S
C112 C110 1.327 . S
C112 C131 1.429 . S
C112 H136 0.950 . S
C113 C130 1.574 . S
C113 C132 1.368 . S
C113 H137 0.949 . S
H114 C118 0.949 . S
C115 C116 1.349 . S
C115 C117 1.327 . S
C115 H138 0.950 . S
C116 C115 1.349 . S
C116 C128 1.349 . S
C117 C115 1.327 . S
C117 C133 1.429 . S
C117 H139 0.950 . S
C118 H114 0.949 . S
C118 C126 1.574 . S
C118 C134 1.368 . S
H119 C127 0.950 . S
H120 C125 0.950 . S
H121 C126 0.949 . S
H122 C128 0.950 . S
H123 C129 0.950 . S
H124 C130 0.949 . S
C125 H120 0.950 . S
C125 C127 1.327 . S
C125 C131 1.429 . S
C126 C118 1.574 . S
C126 H121 0.949 . S
C126 C132 1.368 . S
C127 C111 1.349 . S
C127 H119 0.950 . S
C127 C125 1.327 . S
C128 C116 1.349 . S
C128 H122 0.950 . S
C128 C129 1.327 . S
C129 H123 0.950 . S
C129 C128 1.327 . S
C129 C133 1.429 . S
C130 C113 1.574 . S
C130 H124 0.949 . S
C130 C134 1.368 . S
C131 C112 1.429 . S
C131 C125 1.429 . S
C131 C132 1.523 . S
C132 C113 1.368 . S
C132 C126 1.368 . S
C132 C131 1.523 . S
C133 C117 1.429 . S
C133 C129 1.429 . S
C133 C134 1.523 . S
C134 C118 1.368 . S
C134 C130 1.368 . S
C134 C133 1.523 . S
H135 C110 0.950 . S
H136 C112 0.950 . S
H137 C113 0.949 . S
H138 C115 0.950 . S
H139 C117 0.950 . S
C140 C141 1.336 1_554 S
C140 C142 1.327 . S
C140 H165 0.950 . S
C141 C140 1.336 1_556 S
C141 C157 1.363 . S
C142 C140 1.327 . S
C142 C161 1.450 . S
C142 H166 0.950 . S
C143 C160 1.574 1_545 S
C143 C162 1.368 1_556 S
C143 H167 0.949 . S
H144 C148 0.949 . S
C145 C146 1.349 1_556 S
C145 C147 1.327 . S
C145 H168 0.950 . S
C146 C145 1.349 1_554 S
C146 C158 1.349 . S
C147 C145 1.327 . S
C147 C163 1.429 1_556 S
C147 H169 0.950 . S
C148 H144 0.949 . S
C148 C156 1.574 1_565 S
C148 C164 1.368 . S
H149 C157 0.950 . S
H150 C155 0.950 . S
H151 C156 0.949 . S
H152 C158 0.950 . S
H153 C159 0.950 . S
H154 C160 0.949 . S
C155 H150 0.950 . S
C155 C157 1.327 . S
C155 C161 1.409 1_556 S
C156 C148 1.574 1_545 S
C156 H151 0.949 . S
C156 C162 1.368 1_655 S
C157 C141 1.363 . S
C157 H149 0.950 . S
C157 C155 1.327 . S
C158 C146 1.349 . S
C158 H152 0.950 . S
C158 C159 1.327 . S
C159 H153 0.950 . S
C159 C158 1.327 . S
C159 C163 1.429 . S
C160 C143 1.574 1_565 S
C160 H154 0.949 . S
C160 C164 1.368 1_456 S
C161 C142 1.450 . S
C161 C155 1.409 1_554 S
C161 C162 1.522 . S
C162 C143 1.368 1_554 S
C162 C156 1.368 1_455 S
C162 C161 1.522 . S
C163 C147 1.429 1_554 S
C163 C159 1.429 . S
C163 C164 1.523 . S
C164 C148 1.368 . S
C164 C160 1.368 1_654 S
C164 C163 1.523 . S
H165 C140 0.950 . S
H166 C142 0.950 . S
H167 C143 0.949 . S
H168 C145 0.950 . S
H169 C147 0.950 . S
C170 C171 1.349 . S
C170 C172 1.327 . S
C170 H195 0.950 . S
C171 C170 1.349 . S
C171 C187 1.349 . S
C172 C170 1.327 . S
C172 C191 1.429 . S
C172 H196 0.950 . S
C173 C190 1.574 1_545 S
C173 C192 1.368 . S
C173 H197 0.949 . S
H174 C178 0.949 . S
C175 C176 1.349 . S
C175 C177 1.327 . S
C175 H198 0.950 . S
C176 C175 1.349 . S
C176 C188 1.349 . S
C177 C175 1.327 . S
C177 C193 1.429 . S
C177 H199 0.950 . S
C178 H174 0.949 . S
C178 C186 1.574 1_565 S
C178 C194 1.368 . S
H179 C187 0.950 . S
H180 C185 0.950 . S
H181 C186 0.949 . S
H182 C188 0.950 . S
H183 C189 0.950 . S
H184 C190 0.949 . S
C185 H180 0.950 . S
C185 C187 1.327 . S
C185 C191 1.429 . S
C186 C178 1.574 1_545 S
C186 H181 0.949 . S
C186 C192 1.368 1_455 S
C187 C171 1.349 . S
C187 H179 0.950 . S
C187 C185 1.327 . S
C188 C176 1.349 . S
C188 H182 0.950 . S
C188 C189 1.327 . S
C189 H183 0.950 . S
C189 C188 1.327 . S
C189 C193 1.429 . S
C190 C173 1.574 1_565 S
C190 H184 0.949 . S
C190 C194 1.368 1_655 S
C191 C172 1.429 . S
C191 C185 1.429 . S
C191 C192 1.523 . S
C192 C173 1.368 . S
C192 C186 1.368 1_655 S
C192 C191 1.523 . S
C193 C177 1.429 . S
C193 C189 1.429 . S
C193 C194 1.523 . S
C194 C178 1.368 . S
C194 C190 1.368 1_455 S
C194 C193 1.523 . S
H195 C170 0.950 . S
H196 C172 0.950 . S
H197 C173 0.949 . S
H198 C175 0.950 . S
H199 C177 0.950 . S
C200 C201 1.349 . S
C200 C202 1.327 . S
C200 H225 0.950 . S
C201 C200 1.349 . S
C201 C217 1.349 . S
C202 C200 1.327 . S
C202 C221 1.429 . S
C202 H226 0.950 . S
C203 C220 1.574 . S
C203 C222 1.368 . S
C203 H227 0.949 . S
H204 C208 0.949 . S
C205 C206 1.349 . S
C205 C207 1.327 . S
C205 H228 0.950 . S
C206 C205 1.349 . S
C206 C218 1.349 . S
C207 C205 1.327 . S
C207 C223 1.429 . S
C207 H229 0.950 . S
C208 H204 0.949 . S
C208 C216 1.574 . S
C208 C224 1.368 . S
H209 C217 0.950 . S
H210 C215 0.950 . S
H211 C216 0.949 . S
H212 C218 0.950 . S
H213 C219 0.950 . S
H214 C220 0.949 . S
C215 H210 0.950 . S
C215 C217 1.327 . S
C215 C221 1.429 . S
C216 C208 1.574 . S
C216 H211 0.949 . S
C216 C222 1.368 . S
C217 C201 1.349 . S
C217 H209 0.950 . S
C217 C215 1.327 . S
C218 C206 1.349 . S
C218 H212 0.950 . S
C218 C219 1.327 . S
C219 H213 0.950 . S
C219 C218 1.327 . S
C219 C223 1.429 . S
C220 C203 1.574 . S
C220 H214 0.949 . S
C220 C224 1.368 . S
C221 C202 1.429 . S
C221 C215 1.429 . S
C221 C222 1.523 . S
C222 C203 1.368 . S
C222 C216 1.368 . S
C222 C221 1.523 . S
C223 C207 1.429 . S
C223 C219 1.429 . S
C223 C224 1.523 . S
C224 C208 1.368 . S
C224 C220 1.368 . S
C224 C223 1.523 . S
H225 C200 0.950 . S
H226 C202 0.950 . S
H227 C203 0.949 . S
H228 C205 0.950 . S
H229 C207 0.950 . S
C230 C231 1.349 . S
C230 C232 1.327 . S
C230 H255 0.950 . S
C231 C230 1.349 . S
C231 C247 1.349 . S
C232 C230 1.327 . S
C232 C251 1.429 . S
C232 H256 0.950 . S
C233 C250 1.574 . S
C233 C252 1.368 . S
C233 H257 0.949 . S
H234 C238 0.949 . S
C235 C236 1.349 . S
C235 C237 1.327 . S
C235 H258 0.950 . S
C236 C235 1.349 . S
C236 C248 1.349 . S
C237 C235 1.327 . S
C237 C253 1.429 . S
C237 H259 0.950 . S
C238 H234 0.949 . S
C238 C246 1.574 . S
C238 C254 1.368 . S
H239 C247 0.950 . S
H240 C245 0.950 . S
H241 C246 0.949 . S
H242 C248 0.950 . S
H243 C249 0.950 . S
H244 C250 0.949 . S
C245 H240 0.950 . S
C245 C247 1.327 . S
C245 C251 1.429 . S
C246 C238 1.574 . S
C246 H241 0.949 . S
C246 C252 1.368 . S
C247 C231 1.349 . S
C247 H239 0.950 . S
C247 C245 1.327 . S
C248 C236 1.349 . S
C248 H242 0.950 . S
C248 C249 1.327 . S
C249 H243 0.950 . S
C249 C248 1.327 . S
C249 C253 1.429 . S
C250 C233 1.574 . S
C250 H244 0.949 . S
C250 C254 1.368 . S
C251 C232 1.429 . S
C251 C245 1.429 . S
C251 C252 1.523 . S
C252 C233 1.368 . S
C252 C246 1.368 . S
C252 C251 1.523 . S
C253 C237 1.429 . S
C253 C249 1.429 . S
C253 C254 1.523 . S
C254 C238 1.368 . S
C254 C250 1.368 . S
C254 C253 1.523 . S
H255 C230 0.950 . S
H256 C232 0.950 . S
H257 C233 0.949 . S
H258 C235 0.950 . S
H259 C237 0.950 . S
C260 C261 1.349 . S
C260 C262 1.327 . S
C260 H285 0.950 . S
C261 C260 1.349 . S
C261 C277 1.349 . S
C262 C260 1.327 . S
C262 C281 1.429 . S
C262 H286 0.950 . S
C263 C280 1.574 . S
C263 C282 1.368 . S
C263 H287 0.949 . S
H264 C268 0.949 . S
C265 C266 1.349 . S
C265 C267 1.327 . S
C265 H288 0.950 . S
C266 C265 1.349 . S
C266 C278 1.349 . S
C267 C265 1.327 . S
C267 C283 1.429 . S
C267 H289 0.950 . S
C268 H264 0.949 . S
C268 C276 1.574 . S
C268 C284 1.368 . S
H269 C277 0.950 . S
H270 C275 0.950 . S
H271 C276 0.949 . S
H272 C278 0.950 . S
H273 C279 0.950 . S
H274 C280 0.949 . S
C275 H270 0.950 . S
C275 C277 1.327 . S
C275 C281 1.429 . S
C276 C268 1.574 . S
C276 H271 0.949 . S
C276 C282 1.368 . S
C277 C261 1.349 . S
C277 H269 0.950 . S
C277 C275 1.327 . S
C278 C266 1.349 . S
C278 H272 0.950 . S
C278 C279 1.327 . S
C279 H273 0.950 . S
C279 C278 1.327 . S
C279 C283 1.429 . S
C280 C263 1.574 . S
C280 H274 0.949 . S
C280 C284 1.368 . S
C281 C262 1.429 . S
C281 C275 1.429 . S
C281 C282 1.523 . S
C282 C263 1.368 . S
C282 C276 1.368 . S
C282 C281 1.523 . S
C283 C267 1.429 . S
C283 C279 1.429 . S
C283 C284 1.523 . S
C284 C268 1.368 . S
C284 C280 1.368 . S
C284 C283 1.523 . S
H285 C260 0.950 . S
H286 C262 0.950 . S
H287 C263 0.949 . S
H288 C265 0.950 . S
H289 C267 0.950 . S
C290 C291 1.349 . S
C290 C292 1.327 . S
C290 H315 0.950 . S
C291 C290 1.349 . S
C291 C307 1.349 . S
C292 C290 1.327 . S
C292 C311 1.429 . S
C292 H316 0.950 . S
C293 C310 1.574 . S
C293 C312 1.368 . S
C293 H317 0.949 . S
H294 C298 0.949 . S
C295 C296 1.349 . S
C295 C297 1.327 . S
C295 H318 0.950 . S
C296 C295 1.349 . S
C296 C308 1.349 . S
C297 C295 1.327 . S
C297 C313 1.429 . S
C297 H319 0.950 . S
C298 H294 0.949 . S
C298 C306 1.574 . S
C298 C314 1.368 . S
H299 C307 0.950 . S
H300 C305 0.950 . S
H301 C306 0.949 . S
H302 C308 0.950 . S
H303 C309 0.950 . S
H304 C310 0.949 . S
C305 H300 0.950 . S
C305 C307 1.327 . S
C305 C311 1.429 . S
C306 C298 1.574 . S
C306 H301 0.949 . S
C306 C312 1.368 . S
C307 C291 1.349 . S
C307 H299 0.950 . S
C307 C305 1.327 . S
C308 C296 1.349 . S
C308 H302 0.950 . S
C308 C309 1.327 . S
C309 H303 0.950 . S
C309 C308 1.327 . S
C309 C313 1.429 . S
C310 C293 1.574 . S
C310 H304 0.949 . S
C310 C314 1.368 . S
C311 C292 1.429 . S
C311 C305 1.429 . S
C311 C312 1.523 . S
C312 C293 1.368 . S
C312 C306 1.368 . S
C312 C311 1.523 . S
C313 C297 1.429 . S
C313 C309 1.429 . S
C313 C314 1.523 . S
C314 C298 1.368 . S
C314 C310 1.368 . S
C314 C313 1.523 . S
H315 C290 0.950 . S
H316 C292 0.950 . S
H317 C293 0.949 . S
H318 C295 0.950 . S
H319 C297 0.950 . S
C320 C321 1.349 . S
C320 C322 1.327 . S
C320 H345 0.950 . S
C321 C320 1.349 . S
C321 C337 1.349 . S
C322 C320 1.327 . S
C322 C341 1.429 . S
C322 H346 0.950 . S
C323 C340 1.574 . S
C323 C342 1.368 1_455 S
C323 H347 0.949 . S
H324 C328 0.949 . S
C325 C326 1.349 . S
C325 C327 1.327 . S
C325 H348 0.950 . S
C326 C325 1.349 . S
C326 C338 1.349 . S
C327 C325 1.327 . S
C327 C343 1.429 . S
C327 H349 0.950 . S
C328 H324 0.949 . S
C328 C336 1.574 . S
C328 C344 1.368 1_655 S
H329 C337 0.950 . S
H330 C335 0.950 . S
H331 C336 0.949 . S
H332 C338 0.950 . S
H333 C339 0.950 . S
H334 C340 0.949 . S
C335 H330 0.950 . S
C335 C337 1.327 . S
C335 C341 1.429 . S
C336 C328 1.574 . S
C336 H331 0.949 . S
C336 C342 1.368 . S
C337 C321 1.349 . S
C337 H329 0.950 . S
C337 C335 1.327 . S
C338 C326 1.349 . S
C338 H332 0.950 . S
C338 C339 1.327 . S
C339 H333 0.950 . S
C339 C338 1.327 . S
C339 C343 1.429 . S
C340 C323 1.574 . S
C340 H334 0.949 . S
C340 C344 1.368 . S
C341 C322 1.429 . S
C341 C335 1.429 . S
C341 C342 1.523 . S
C342 C323 1.368 1_655 S
C342 C336 1.368 . S
C342 C341 1.523 . S
C343 C327 1.429 . S
C343 C339 1.429 . S
C343 C344 1.523 . S
C344 C328 1.368 1_455 S
C344 C340 1.368 . S
C344 C343 1.523 . S
H345 C320 0.950 . S
H346 C322 0.950 . S
H347 C323 0.949 . S
H348 C325 0.950 . S
H349 C327 0.950 . S
C350 C351 1.349 . S
C350 C352 1.327 . S
C350 H375 0.950 . S
C351 C350 1.349 . S
C351 C367 1.349 . S
C352 C350 1.327 . S
C352 C371 1.429 . S
C352 H376 0.950 . S
C353 C370 1.574 . S
C353 C372 1.368 1_455 S
C353 H377 0.949 . S
H354 C358 0.949 . S
C355 C356 1.349 . S
C355 C357 1.327 . S
C355 H378 0.950 . S
C356 C355 1.349 . S
C356 C368 1.349 . S
C357 C355 1.327 . S
C357 C373 1.429 . S
C357 H379 0.950 . S
C358 H354 0.949 . S
C358 C366 1.574 . S
C358 C374 1.368 1_655 S
H359 C367 0.950 . S
H360 C365 0.950 . S
H361 C366 0.949 . S
H362 C368 0.950 . S
H363 C369 0.950 . S
H364 C370 0.949 . S
C365 H360 0.950 . S
C365 C367 1.327 . S
C365 C371 1.429 . S
C366 C358 1.574 . S
C366 H361 0.949 . S
C366 C372 1.368 . S
C367 C351 1.349 . S
C367 H359 0.950 . S
C367 C365 1.327 . S
C368 C356 1.349 . S
C368 H362 0.950 . S
C368 C369 1.327 . S
C369 H363 0.950 . S
C369 C368 1.327 . S
C369 C373 1.429 . S
C370 C353 1.574 . S
C370 H364 0.949 . S
C370 C374 1.368 . S
C371 C352 1.429 . S
C371 C365 1.429 . S
C371 C372 1.523 . S
C372 C353 1.368 1_655 S
C372 C366 1.368 . S
C372 C371 1.523 . S
C373 C357 1.429 . S
C373 C369 1.429 . S
C373 C374 1.523 . S
C374 C358 1.368 1_455 S
C374 C370 1.368 . S
C374 C373 1.523 . S
H375 C350 0.950 . S
H376 C352 0.950 . S
H377 C353 0.949 . S
H378 C355 0.950 . S
H379 C357 0.950 . S
C380 C381 1.349 . S
C380 C382 1.327 . S
C380 H405 0.950 . S
C381 C380 1.349 . S
C381 C397 1.349 . S
C382 C380 1.327 . S
C382 C401 1.429 . S
C382 H406 0.950 . S
C383 C400 1.574 . S
C383 C402 1.368 1_455 S
C383 H407 0.949 . S
H384 C388 0.949 . S
C385 C386 1.349 . S
C385 C387 1.327 . S
C385 H408 0.950 . S
C386 C385 1.349 . S
C386 C398 1.349 . S
C387 C385 1.327 . S
C387 C403 1.429 . S
C387 H409 0.950 . S
C388 H384 0.949 . S
C388 C396 1.574 . S
C388 C404 1.368 1_655 S
H389 C397 0.950 . S
H390 C395 0.950 . S
H391 C396 0.949 . S
H392 C398 0.950 . S
H393 C399 0.950 . S
H394 C400 0.949 . S
C395 H390 0.950 . S
C395 C397 1.327 . S
C395 C401 1.429 . S
C396 C388 1.574 . S
C396 H391 0.949 . S
C396 C402 1.368 . S
C397 C381 1.349 . S
C397 H389 0.950 . S
C397 C395 1.327 . S
C398 C386 1.349 . S
C398 H392 0.950 . S
C398 C399 1.327 . S
C399 H393 0.950 . S
C399 C398 1.327 . S
C399 C403 1.429 . S
C400 C383 1.574 . S
C400 H394 0.949 . S
C400 C404 1.368 . S
C401 C382 1.429 . S
C401 C395 1.429 . S
C401 C402 1.523 . S
C402 C383 1.368 1_655 S
C402 C396 1.368 . S
C402 C401 1.523 . S
C403 C387 1.429 . S
C403 C399 1.429 . S
C403 C404 1.523 . S
C404 C388 1.368 1_455 S
C404 C400 1.368 . S
C404 C403 1.523 . S
H405 C380 0.950 . S
H406 C382 0.950 . S
H407 C383 0.949 . S
H408 C385 0.950 . S
H409 C387 0.950 . S
C410 C411 1.349 . S
C410 C412 1.327 . S
C410 H435 0.950 . S
C411 C410 1.349 . S
C411 C427 1.349 . S
C412 C410 1.327 . S
C412 C431 1.429 . S
C412 H436 0.950 . S
C413 C430 1.574 . S
C413 C432 1.368 1_655 S
C413 H437 0.949 . S
H414 C418 0.949 . S
C415 C416 1.349 . S
C415 C417 1.327 . S
C415 H438 0.950 . S
C416 C415 1.349 . S
C416 C428 1.349 . S
C417 C415 1.327 . S
C417 C433 1.429 . S
C417 H439 0.950 . S
C418 H414 0.949 . S
C418 C426 1.574 . S
C418 C434 1.368 1_455 S
H419 C427 0.950 . S
H420 C425 0.950 . S
H421 C426 0.949 . S
H422 C428 0.950 . S
H423 C429 0.950 . S
H424 C430 0.949 . S
C425 H420 0.950 . S
C425 C427 1.327 . S
C425 C431 1.429 . S
C426 C418 1.574 . S
C426 H421 0.949 . S
C426 C432 1.368 . S
C427 C411 1.349 . S
C427 H419 0.950 . S
C427 C425 1.327 . S
C428 C416 1.349 . S
C428 H422 0.950 . S
C428 C429 1.327 . S
C429 H423 0.950 . S
C429 C428 1.327 . S
C429 C433 1.429 . S
C430 C413 1.574 . S
C430 H424 0.949 . S
C430 C434 1.368 . S
C431 C412 1.429 . S
C431 C425 1.429 . S
C431 C432 1.523 . S
C432 C413 1.368 1_455 S
C432 C426 1.368 . S
C432 C431 1.523 . S
C433 C417 1.429 . S
C433 C429 1.429 . S
C433 C434 1.523 . S
C434 C418 1.368 1_655 S
C434 C430 1.368 . S
C434 C433 1.523 . S
H435 C410 0.950 . S
H436 C412 0.950 . S
H437 C413 0.949 . S
H438 C415 0.950 . S
H439 C417 0.950 . S
C81 C38 1.486 1_556 S
C86 C19 1.486 1_554 S
C111 C58 1.489 . S
C116 C79 1.489 . S
C141 C18 1.486 1_556 S
C146 C39 1.486 1_554 S
C171 C78 1.489 . S
C176 C59 1.489 . S
C201 C72 1.209 . S
C206 C12 1.209 . S
C231 C24 0.908 . S
C236 C44 0.908 . S
C261 C29 1.209 . S
C266 C49 1.209 . S
C291 C62 0.908 . S
C296 C2 0.908 . S
C321 C32 1.209 . S
C326 C52 1.209 . S
C351 C64 0.908 . S
C356 C4 0.908 . S
C381 C69 1.209 . S
C386 C9 1.209 . S
C411 C42 0.908 . S
C416 C22 0.908 . S
