# Generated by pormake.
# Topology srs-g, (5)-cn, num edge types: 1
# Building blocks:
#     Node 0, Type 0, BuildingBlock: XOMCOT_clean_sbu_1, # of connection points: 5
#     Node 1, Type 0, BuildingBlock: XOMCOT_clean_sbu_1, # of connection points: 5
#     Node 2, Type 0, BuildingBlock: XOMCOT_clean_sbu_1, # of connection points: 5
#     Node 3, Type 0, BuildingBlock: XOMCOT_clean_sbu_1, # of connection points: 5
#     Node 4, Type 0, BuildingBlock: XOMCOT_clean_sbu_1, # of connection points: 5
#     Node 5, Type 0, BuildingBlock: XOMCOT_clean_sbu_1, # of connection points: 5
#     Node 6, Type 0, BuildingBlock: XOMCOT_clean_sbu_1, # of connection points: 5
#     Node 7, Type 0, BuildingBlock: XOMCOT_clean_sbu_1, # of connection points: 5
#     Node 8, Type 0, BuildingBlock: XOMCOT_clean_sbu_1, # of connection points: 5
#     Node 9, Type 0, BuildingBlock: XOMCOT_clean_sbu_1, # of connection points: 5
#     Node 10, Type 0, BuildingBlock: XOMCOT_clean_sbu_1, # of connection points: 5
#     Node 11, Type 0, BuildingBlock: XOMCOT_clean_sbu_1, # of connection points: 5
#     Node 12, Type 0, BuildingBlock: XOMCOT_clean_sbu_1, # of connection points: 5
#     Node 13, Type 0, BuildingBlock: XOMCOT_clean_sbu_1, # of connection points: 5
#     Node 14, Type 0, BuildingBlock: XOMCOT_clean_sbu_1, # of connection points: 5
#     Node 15, Type 0, BuildingBlock: XOMCOT_clean_sbu_1, # of connection points: 5
#     Node 16, Type 0, BuildingBlock: XOMCOT_clean_sbu_1, # of connection points: 5
#     Node 17, Type 0, BuildingBlock: XOMCOT_clean_sbu_1, # of connection points: 5
#     Node 18, Type 0, BuildingBlock: XOMCOT_clean_sbu_1, # of connection points: 5
#     Node 19, Type 0, BuildingBlock: XOMCOT_clean_sbu_1, # of connection points: 5
#     Node 20, Type 0, BuildingBlock: XOMCOT_clean_sbu_1, # of connection points: 5
#     Node 21, Type 0, BuildingBlock: XOMCOT_clean_sbu_1, # of connection points: 5
#     Node 22, Type 0, BuildingBlock: XOMCOT_clean_sbu_1, # of connection points: 5
#     Node 23, Type 0, BuildingBlock: XOMCOT_clean_sbu_1, # of connection points: 5
#     Node 24, Type 0, BuildingBlock: XOMCOT_clean_sbu_1, # of connection points: 5
#     Node 25, Type 0, BuildingBlock: XOMCOT_clean_sbu_1, # of connection points: 5
#     Node 26, Type 0, BuildingBlock: XOMCOT_clean_sbu_1, # of connection points: 5
#     Node 27, Type 0, BuildingBlock: XOMCOT_clean_sbu_1, # of connection points: 5
#     Node 28, Type 0, BuildingBlock: XOMCOT_clean_sbu_1, # of connection points: 5
#     Node 29, Type 0, BuildingBlock: XOMCOT_clean_sbu_1, # of connection points: 5
#     Node 30, Type 0, BuildingBlock: XOMCOT_clean_sbu_1, # of connection points: 5
#     Node 31, Type 0, BuildingBlock: XOMCOT_clean_sbu_1, # of connection points: 5
#     Node 32, Type 0, BuildingBlock: XOMCOT_clean_sbu_1, # of connection points: 5
#     Node 33, Type 0, BuildingBlock: XOMCOT_clean_sbu_1, # of connection points: 5
#     Node 34, Type 0, BuildingBlock: XOMCOT_clean_sbu_1, # of connection points: 5
#     Node 35, Type 0, BuildingBlock: XOMCOT_clean_sbu_1, # of connection points: 5
#     Node 36, Type 0, BuildingBlock: XOMCOT_clean_sbu_1, # of connection points: 5
#     Node 37, Type 0, BuildingBlock: XOMCOT_clean_sbu_1, # of connection points: 5
#     Node 38, Type 0, BuildingBlock: XOMCOT_clean_sbu_1, # of connection points: 5
#     Node 39, Type 0, BuildingBlock: XOMCOT_clean_sbu_1, # of connection points: 5
#     Node 40, Type 0, BuildingBlock: XOMCOT_clean_sbu_1, # of connection points: 5
#     Node 41, Type 0, BuildingBlock: XOMCOT_clean_sbu_1, # of connection points: 5
#     Node 42, Type 0, BuildingBlock: XOMCOT_clean_sbu_1, # of connection points: 5
#     Node 43, Type 0, BuildingBlock: XOMCOT_clean_sbu_1, # of connection points: 5
#     Node 44, Type 0, BuildingBlock: XOMCOT_clean_sbu_1, # of connection points: 5
#     Node 45, Type 0, BuildingBlock: XOMCOT_clean_sbu_1, # of connection points: 5
#     Node 46, Type 0, BuildingBlock: XOMCOT_clean_sbu_1, # of connection points: 5
#     Node 47, Type 0, BuildingBlock: XOMCOT_clean_sbu_1, # of connection points: 5
#     Edge 48, Type (0, 0), None
#     Edge 49, Type (0, 0), None
#     Edge 50, Type (0, 0), None
#     Edge 51, Type (0, 0), None
#     Edge 52, Type (0, 0), None
#     Edge 53, Type (0, 0), None
#     Edge 54, Type (0, 0), None
#     Edge 55, Type (0, 0), None
#     Edge 56, Type (0, 0), None
#     Edge 57, Type (0, 0), None
#     Edge 58, Type (0, 0), None
#     Edge 59, Type (0, 0), None
#     Edge 60, Type (0, 0), None
#     Edge 61, Type (0, 0), None
#     Edge 62, Type (0, 0), None
#     Edge 63, Type (0, 0), None
#     Edge 64, Type (0, 0), None
#     Edge 65, Type (0, 0), None
#     Edge 66, Type (0, 0), None
#     Edge 67, Type (0, 0), None
#     Edge 68, Type (0, 0), None
#     Edge 69, Type (0, 0), None
#     Edge 70, Type (0, 0), None
#     Edge 71, Type (0, 0), None
#     Edge 72, Type (0, 0), None
#     Edge 73, Type (0, 0), None
#     Edge 74, Type (0, 0), None
#     Edge 75, Type (0, 0), None
#     Edge 76, Type (0, 0), None
#     Edge 77, Type (0, 0), None
#     Edge 78, Type (0, 0), None
#     Edge 79, Type (0, 0), None
#     Edge 80, Type (0, 0), None
#     Edge 81, Type (0, 0), None
#     Edge 82, Type (0, 0), None
#     Edge 83, Type (0, 0), None
#     Edge 84, Type (0, 0), None
#     Edge 85, Type (0, 0), None
#     Edge 86, Type (0, 0), None
#     Edge 87, Type (0, 0), None
#     Edge 88, Type (0, 0), None
#     Edge 89, Type (0, 0), None
#     Edge 90, Type (0, 0), None
#     Edge 91, Type (0, 0), None
#     Edge 92, Type (0, 0), None
#     Edge 93, Type (0, 0), None
#     Edge 94, Type (0, 0), None
#     Edge 95, Type (0, 0), None
#     Edge 96, Type (0, 0), None
#     Edge 97, Type (0, 0), None
#     Edge 98, Type (0, 0), None
#     Edge 99, Type (0, 0), None
#     Edge 100, Type (0, 0), None
#     Edge 101, Type (0, 0), None
#     Edge 102, Type (0, 0), None
#     Edge 103, Type (0, 0), None
#     Edge 104, Type (0, 0), None
#     Edge 105, Type (0, 0), None
#     Edge 106, Type (0, 0), None
#     Edge 107, Type (0, 0), None
#     Edge 108, Type (0, 0), None
#     Edge 109, Type (0, 0), None
#     Edge 110, Type (0, 0), None
#     Edge 111, Type (0, 0), None
#     Edge 112, Type (0, 0), None
#     Edge 113, Type (0, 0), None
#     Edge 114, Type (0, 0), None
#     Edge 115, Type (0, 0), None
#     Edge 116, Type (0, 0), None
#     Edge 117, Type (0, 0), None
#     Edge 118, Type (0, 0), None
#     Edge 119, Type (0, 0), None
#     Edge 120, Type (0, 0), None
#     Edge 121, Type (0, 0), None
#     Edge 122, Type (0, 0), None
#     Edge 123, Type (0, 0), None
#     Edge 124, Type (0, 0), None
#     Edge 125, Type (0, 0), None
#     Edge 126, Type (0, 0), None
#     Edge 127, Type (0, 0), None
#     Edge 128, Type (0, 0), None
#     Edge 129, Type (0, 0), None
#     Edge 130, Type (0, 0), None
#     Edge 131, Type (0, 0), None
#     Edge 132, Type (0, 0), None
#     Edge 133, Type (0, 0), None
#     Edge 134, Type (0, 0), None
#     Edge 135, Type (0, 0), None
#     Edge 136, Type (0, 0), None
#     Edge 137, Type (0, 0), None
#     Edge 138, Type (0, 0), None
#     Edge 139, Type (0, 0), None
#     Edge 140, Type (0, 0), None
#     Edge 141, Type (0, 0), None
#     Edge 142, Type (0, 0), None
#     Edge 143, Type (0, 0), None
#     Edge 144, Type (0, 0), None
#     Edge 145, Type (0, 0), None
#     Edge 146, Type (0, 0), None
#     Edge 147, Type (0, 0), None
#     Edge 148, Type (0, 0), None
#     Edge 149, Type (0, 0), None
#     Edge 150, Type (0, 0), None
#     Edge 151, Type (0, 0), None
#     Edge 152, Type (0, 0), None
#     Edge 153, Type (0, 0), None
#     Edge 154, Type (0, 0), None
#     Edge 155, Type (0, 0), None
#     Edge 156, Type (0, 0), None
#     Edge 157, Type (0, 0), None
#     Edge 158, Type (0, 0), None
#     Edge 159, Type (0, 0), None
#     Edge 160, Type (0, 0), None
#     Edge 161, Type (0, 0), None
#     Edge 162, Type (0, 0), None
#     Edge 163, Type (0, 0), None
#     Edge 164, Type (0, 0), None
#     Edge 165, Type (0, 0), None
#     Edge 166, Type (0, 0), None
#     Edge 167, Type (0, 0), None
# Relax obj value: 0.963
# Max RMSD: 0.251
# Mean RMSD: 0.251
data_MOF--net-srs-g--node1-XOMCOT_clean_sbu_1--edge1-none
_symmetry_space_group_name_H-M    P1
_symmetry_Int_Tables_number       1
_symmetry_cell_setting            triclinic
loop_
_symmetry_equiv_pos_as_xyz
'x, y, z'
_cell_length_a     45.270012
_cell_length_b     45.269854
_cell_length_c     45.269625
_cell_angle_alpha  90.019065
_cell_angle_beta   90.019034
_cell_angle_gamma 90.019022
loop_
_atom_site_label
_atom_site_type_symbol
_atom_site_fract_x
_atom_site_fract_y
_atom_site_fract_z
_atom_type_partial_charge
C0 C 0.08199 0.00075 0.1844 0.0
C1 C 0.10737 0.9971 0.20052 0.0
N2 N 0.11084 0.02082 0.21802 0.0
N3 N 0.07074 0.02772 0.19006 0.0
C4 C 0.08829 0.03897 0.21138 0.0
H5 H 0.07481 0.98641 0.16676 0.0
Co6 Co 0.04682 0.04838 0.16385 0.0
C7 C 0.05015 0.11287 0.18282 0.0
O8 O 0.02306 0.11825 0.17399 0.0
N9 N 0.02411 0.0688 0.13641 0.0
C10 C 0.9944 0.08078 0.09921 0.0
C11 C 0.99784 0.06282 0.12363 0.0
C12 C 0.03613 0.09024 0.11942 0.0
N13 N 0.01863 0.09792 0.09685 0.0
O14 O 0.07793 0.04702 0.13544 0.0
H15 H 0.98285 0.04554 0.13038 0.0
H16 H 0.0582 0.09894 0.12261 0.0
O17 O 0.0612 0.08684 0.18033 0.0
C18 C 0.07554 0.02485 0.11805 0.0
O19 O 0.05248 0.00737 0.12054 0.0
N20 N 0.01594 0.04538 0.19102 0.0
C21 C 0.99498 0.01083 0.23749 0.0
C22 C 0.00698 0.03906 0.24279 0.0
C23 C 0.01737 0.0561 0.21917 0.0
C24 C 0.00061 0.0201 0.1852 0.0
C25 C 0.9897 0.00258 0.20812 0.0
H26 H 0.03035 0.07539 0.22427 0.0
H27 H 0.00106 0.01086 0.16319 0.0
H28 H 0.08746 0.06164 0.21881 0.0
H29 H 0.1242 0.9808 0.19609 0.0
H30 H 0.9759 0.08073 0.08404 0.0
H31 H 0.01185 0.04644 0.26502 0.0
H32 H 0.98029 0.98121 0.20289 0.0
C33 C 0.24837 0.83206 0.43439 0.0
C34 C 0.25204 0.85744 0.45052 0.0
N35 N 0.22832 0.8609 0.46801 0.0
N36 N 0.22139 0.82081 0.44004 0.0
C37 C 0.21016 0.83835 0.46136 0.0
H38 H 0.26269 0.82488 0.41675 0.0
Co39 Co 0.20071 0.79689 0.41382 0.0
C40 C 0.13623 0.8002 0.43279 0.0
O41 O 0.13082 0.77311 0.42395 0.0
N42 N 0.18026 0.77418 0.38637 0.0
C43 C 0.16825 0.74447 0.34917 0.0
C44 C 0.18622 0.74791 0.3736 0.0
C45 C 0.15882 0.78619 0.36939 0.0
N46 N 0.15112 0.76869 0.34681 0.0
O47 O 0.20206 0.82801 0.38542 0.0
H48 H 0.20349 0.73292 0.38035 0.0
H49 H 0.15014 0.80826 0.37257 0.0
O50 O 0.16226 0.81125 0.43031 0.0
C51 C 0.22422 0.82562 0.36803 0.0
O52 O 0.24169 0.80256 0.37052 0.0
N53 N 0.20372 0.766 0.44098 0.0
C54 C 0.23828 0.74501 0.48743 0.0
C55 C 0.21006 0.75701 0.49274 0.0
C56 C 0.19302 0.76741 0.46913 0.0
C57 C 0.22898 0.75068 0.43515 0.0
C58 C 0.2465 0.73974 0.45806 0.0
H59 H 0.17374 0.7804 0.47424 0.0
H60 H 0.2382 0.75114 0.41314 0.0
H61 H 0.18749 0.83752 0.46878 0.0
H62 H 0.26834 0.87428 0.44609 0.0
H63 H 0.16828 0.72597 0.334 0.0
H64 H 0.20271 0.76186 0.51498 0.0
H65 H 0.26786 0.73033 0.45282 0.0
C66 C 0.41717 0.99833 0.68449 0.0
C67 C 0.39179 0.00199 0.70061 0.0
N68 N 0.38833 0.97826 0.71808 0.0
N69 N 0.42841 0.97135 0.69013 0.0
C70 C 0.41087 0.96011 0.71144 0.0
H71 H 0.42435 0.01266 0.66686 0.0
Co72 Co 0.45233 0.95069 0.66392 0.0
C73 C 0.44901 0.88621 0.68286 0.0
O74 O 0.4761 0.88083 0.67405 0.0
N75 N 0.47504 0.93027 0.63649 0.0
C76 C 0.50474 0.91828 0.5993 0.0
C77 C 0.50131 0.93625 0.62373 0.0
C78 C 0.46302 0.90883 0.61948 0.0
N79 N 0.48052 0.90114 0.59692 0.0
O80 O 0.42121 0.95205 0.63551 0.0
H81 H 0.5163 0.95353 0.63049 0.0
H82 H 0.44095 0.90013 0.62265 0.0
O83 O 0.43797 0.91224 0.68038 0.0
C84 C 0.4236 0.97421 0.61813 0.0
O85 O 0.44666 0.99169 0.62064 0.0
N86 N 0.48322 0.95371 0.69111 0.0
C87 C 0.50413 0.9883 0.7376 0.0
C88 C 0.49216 0.96005 0.74289 0.0
C89 C 0.48179 0.943 0.71926 0.0
C90 C 0.49853 0.97899 0.68531 0.0
C91 C 0.50943 0.99653 0.70824 0.0
H92 H 0.46882 0.9237 0.72434 0.0
H93 H 0.49808 0.98822 0.6633 0.0
H94 H 0.4117 0.93744 0.71885 0.0
H95 H 0.37497 0.01828 0.69617 0.0
H96 H 0.52324 0.91833 0.58414 0.0
H97 H 0.48729 0.95269 0.76511 0.0
H98 H 0.51882 0.01791 0.70302 0.0
C99 C 0.25071 0.16708 0.93447 0.0
C100 C 0.24706 0.1417 0.95059 0.0
N101 N 0.27078 0.13826 0.96808 0.0
N102 N 0.27769 0.17834 0.94012 0.0
C103 C 0.28893 0.16082 0.96145 0.0
H104 H 0.23638 0.17424 0.91683 0.0
Co105 Co 0.29835 0.20226 0.91391 0.0
C106 C 0.36284 0.19897 0.93289 0.0
O107 O 0.36822 0.22606 0.92406 0.0
N108 N 0.31877 0.22496 0.88647 0.0
C109 C 0.33075 0.25465 0.84928 0.0
C110 C 0.31279 0.25122 0.8737 0.0
C111 C 0.3402 0.21295 0.86949 0.0
N112 N 0.34789 0.23044 0.84691 0.0
O113 O 0.29698 0.17112 0.88551 0.0
H114 H 0.29551 0.2662 0.88045 0.0
H115 H 0.3489 0.19088 0.87267 0.0
O116 O 0.3368 0.18792 0.9304 0.0
C117 C 0.27482 0.1735 0.86811 0.0
O118 O 0.25734 0.19655 0.8706 0.0
N119 N 0.29535 0.23315 0.94108 0.0
C120 C 0.2608 0.25412 0.98755 0.0
C121 C 0.28903 0.24214 0.99285 0.0
C122 C 0.30607 0.23175 0.96924 0.0
C123 C 0.27007 0.24846 0.93527 0.0
C124 C 0.25255 0.25938 0.95818 0.0
H125 H 0.32536 0.21878 0.97434 0.0
H126 H 0.26083 0.24799 0.91326 0.0
H127 H 0.3116 0.16166 0.96887 0.0
H128 H 0.23076 0.12486 0.94615 0.0
H129 H 0.3307 0.27314 0.83411 0.0
H130 H 0.2964 0.23729 0.01508 0.0
H131 H 0.23118 0.26878 0.95295 0.0
C132 C 0.08203 0.99832 0.31459 0.0
C133 C 0.1074 0.00198 0.29847 0.0
N134 N 0.11085 0.97825 0.28098 0.0
N135 N 0.07077 0.97134 0.30894 0.0
C136 C 0.0883 0.9601 0.28762 0.0
H137 H 0.07487 0.01265 0.33224 0.0
Co138 Co 0.04687 0.95067 0.33516 0.0
C139 C 0.05017 0.88618 0.31619 0.0
O140 O 0.02308 0.8808 0.32502 0.0
N141 N 0.02418 0.93025 0.36261 0.0
C142 C 0.9945 0.91827 0.39981 0.0
C143 C 0.99792 0.93622 0.37539 0.0
C144 C 0.0362 0.90882 0.37959 0.0
N145 N 0.01872 0.90113 0.40217 0.0
O146 O 0.07801 0.95205 0.36356 0.0
H147 H 0.98293 0.95349 0.36864 0.0
H148 H 0.05826 0.90013 0.3764 0.0
O149 O 0.06122 0.91222 0.31868 0.0
C150 C 0.07563 0.97422 0.38095 0.0
O151 O 0.05257 0.99169 0.37846 0.0
N152 N 0.01597 0.95366 0.30799 0.0
C153 C 0.99499 0.9882 0.26153 0.0
C154 C 0.00697 0.95997 0.25622 0.0
C155 C 0.01737 0.94294 0.27984 0.0
C156 C 0.00065 0.97893 0.31381 0.0
C157 C 0.98972 0.99645 0.2909 0.0
H158 H 0.03035 0.92365 0.27474 0.0
H159 H 0.00112 0.98817 0.33582 0.0
H160 H 0.08746 0.93742 0.28019 0.0
H161 H 0.12424 0.01828 0.3029 0.0
H162 H 0.97601 0.91831 0.41499 0.0
H163 H 0.01183 0.9526 0.23399 0.0
H164 H 0.98033 0.01782 0.29612 0.0
C165 C 0.25087 0.83195 0.56454 0.0
C166 C 0.24722 0.85733 0.54841 0.0
N167 N 0.27095 0.86079 0.53094 0.0
N168 N 0.27785 0.82072 0.55891 0.0
C169 C 0.2891 0.83826 0.53759 0.0
H170 H 0.23654 0.82478 0.58217 0.0
Co171 Co 0.29851 0.79681 0.58513 0.0
C172 C 0.363 0.80015 0.5662 0.0
O173 O 0.3684 0.77306 0.57503 0.0
N174 N 0.31894 0.77412 0.61258 0.0
C175 C 0.33091 0.74444 0.64978 0.0
C176 C 0.31296 0.74785 0.62534 0.0
C177 C 0.34037 0.78615 0.62958 0.0
N178 N 0.34804 0.76866 0.65217 0.0
O179 O 0.29715 0.82794 0.61353 0.0
H180 H 0.29568 0.73286 0.61858 0.0
H181 H 0.34906 0.80822 0.62641 0.0
O182 O 0.33697 0.81118 0.56867 0.0
C183 C 0.27498 0.82555 0.63091 0.0
O184 O 0.25751 0.80248 0.6284 0.0
N185 N 0.29551 0.76592 0.55795 0.0
C186 C 0.26093 0.74499 0.51147 0.0
C187 C 0.28916 0.75697 0.50618 0.0
C188 C 0.30622 0.76734 0.5298 0.0
C189 C 0.27023 0.7506 0.56376 0.0
C190 C 0.25269 0.73969 0.54083 0.0
H191 H 0.32552 0.78031 0.52472 0.0
H192 H 0.261 0.75105 0.58577 0.0
H193 H 0.31177 0.83743 0.53018 0.0
H194 H 0.23092 0.87416 0.55285 0.0
H195 H 0.33086 0.72594 0.66495 0.0
H196 H 0.29652 0.76183 0.48395 0.0
H197 H 0.23132 0.7303 0.54605 0.0
C198 C 0.41705 0.00082 0.81467 0.0
C199 C 0.39167 0.99714 0.79854 0.0
N200 N 0.3882 0.02086 0.78105 0.0
N201 N 0.42829 0.0278 0.80903 0.0
C202 C 0.41075 0.03903 0.7877 0.0
H203 H 0.42422 0.9865 0.83231 0.0
Co204 Co 0.4522 0.04849 0.83525 0.0
C205 C 0.44887 0.11297 0.81629 0.0
O206 O 0.47596 0.11837 0.82513 0.0
N207 N 0.4749 0.06894 0.86271 0.0
C208 C 0.50459 0.08095 0.89992 0.0
C209 C 0.50117 0.06298 0.87549 0.0
C210 C 0.46288 0.09037 0.87969 0.0
N211 N 0.48037 0.09807 0.90228 0.0
O212 O 0.42107 0.04711 0.86364 0.0
H213 H 0.51616 0.04571 0.86874 0.0
H214 H 0.44081 0.09905 0.8765 0.0
O215 O 0.43783 0.08693 0.81877 0.0
C216 C 0.42346 0.02496 0.88103 0.0
O217 O 0.44653 0.0075 0.87854 0.0
N218 N 0.48309 0.04549 0.8081 0.0
C219 C 0.5041 0.01094 0.76165 0.0
C220 C 0.49209 0.03915 0.75633 0.0
C221 C 0.48168 0.05619 0.77994 0.0
C222 C 0.49843 0.02023 0.81392 0.0
C223 C 0.50937 0.00271 0.79102 0.0
H224 H 0.46869 0.07547 0.77483 0.0
H225 H 0.49796 0.01101 0.83593 0.0
H226 H 0.41157 0.0617 0.78028 0.0
H227 H 0.37484 0.98084 0.80297 0.0
H228 H 0.52309 0.08092 0.91509 0.0
H229 H 0.48723 0.0465 0.7341 0.0
H230 H 0.51878 0.98135 0.79625 0.0
C231 C 0.24827 0.1671 0.06463 0.0
C232 C 0.25192 0.14172 0.0485 0.0
N233 N 0.22819 0.13826 0.03101 0.0
N234 N 0.22129 0.17834 0.05899 0.0
C235 C 0.21004 0.1608 0.03766 0.0
H236 H 0.26261 0.17427 0.08228 0.0
Co237 Co 0.20064 0.20225 0.08521 0.0
C238 C 0.13614 0.19891 0.06625 0.0
O239 O 0.13075 0.22599 0.0751 0.0
N240 N 0.18022 0.22494 0.11266 0.0
C241 C 0.16825 0.25464 0.14988 0.0
C242 C 0.1862 0.25122 0.12545 0.0
C243 C 0.15879 0.21292 0.12965 0.0
N244 N 0.15112 0.23041 0.15224 0.0
O245 O 0.20201 0.17113 0.1136 0.0
H246 H 0.20347 0.26621 0.1187 0.0
H247 H 0.1501 0.19085 0.12646 0.0
O248 O 0.16218 0.18787 0.06873 0.0
C249 C 0.22418 0.17352 0.131 0.0
O250 O 0.24166 0.19659 0.12851 0.0
N251 N 0.20363 0.23314 0.05805 0.0
C252 C 0.23817 0.25411 0.01159 0.0
C253 C 0.20994 0.24211 0.00628 0.0
C254 C 0.19291 0.23172 0.0299 0.0
C255 C 0.2289 0.24848 0.06387 0.0
C256 C 0.24641 0.2594 0.04096 0.0
H257 H 0.17361 0.21873 0.0248 0.0
H258 H 0.23814 0.24802 0.08588 0.0
H259 H 0.18737 0.16163 0.03024 0.0
H260 H 0.26821 0.12489 0.05293 0.0
H261 H 0.1683 0.27313 0.16505 0.0
H262 H 0.20257 0.23725 0.98405 0.0
H263 H 0.26778 0.26881 0.04619 0.0
C264 C 0.18434 0.08194 0.00072 0.0
C265 C 0.20042 0.10736 0.99703 0.0
N266 N 0.21785 0.11089 0.02078 0.0
N267 N 0.19 0.07075 0.02772 0.0
C268 C 0.21127 0.08836 0.03896 0.0
H269 H 0.16674 0.07469 0.98638 0.0
Co270 Co 0.16381 0.04682 0.04839 0.0
C271 C 0.18281 0.05015 0.11287 0.0
O272 O 0.17399 0.02306 0.11825 0.0
N273 N 0.13639 0.02411 0.06883 0.0
C274 C 0.09919 0.9944 0.0808 0.0
C275 C 0.12362 0.99783 0.06284 0.0
C276 C 0.11941 0.03612 0.09026 0.0
N277 N 0.09683 0.01862 0.09794 0.0
O278 O 0.1354 0.07792 0.04704 0.0
H279 H 0.13036 0.98285 0.04556 0.0
H280 H 0.12259 0.05819 0.09896 0.0
O281 O 0.18031 0.0612 0.08685 0.0
C282 C 0.118 0.07553 0.02488 0.0
O283 O 0.12049 0.05247 0.00739 0.0
N284 N 0.191 0.01596 0.04538 0.0
C285 C 0.23748 0.99501 0.01083 0.0
C286 C 0.24278 0.00702 0.03906 0.0
C287 C 0.21915 0.0174 0.0561 0.0
C288 C 0.18519 0.00062 0.02011 0.0
C289 C 0.20811 0.98971 0.00259 0.0
H290 H 0.22425 0.0304 0.07538 0.0
H291 H 0.16318 0.00105 0.01087 0.0
H292 H 0.2187 0.08757 0.06164 0.0
H293 H 0.196 0.12413 0.98068 0.0
H294 H 0.08402 0.9759 0.08075 0.0
H295 H 0.265 0.0119 0.04643 0.0
H296 H 0.20288 0.9803 0.98122 0.0
C297 C 0.16713 0.93442 0.25068 0.0
C298 C 0.14172 0.95049 0.24699 0.0
N299 N 0.1382 0.96792 0.27075 0.0
N300 N 0.17833 0.94007 0.27769 0.0
C301 C 0.16074 0.96134 0.28894 0.0
H302 H 0.17437 0.91682 0.23634 0.0
Co303 Co 0.20226 0.91389 0.29836 0.0
C304 C 0.19897 0.93288 0.36285 0.0
O305 O 0.22607 0.92407 0.36823 0.0
N306 N 0.22497 0.88647 0.3188 0.0
C307 C 0.25466 0.84927 0.33079 0.0
C308 C 0.25124 0.87369 0.31282 0.0
C309 C 0.21296 0.86948 0.34023 0.0
N310 N 0.23045 0.8469 0.34792 0.0
O311 O 0.17114 0.88547 0.297 0.0
H312 H 0.26622 0.88044 0.29555 0.0
H313 H 0.19089 0.87266 0.34892 0.0
O314 O 0.18791 0.93038 0.33682 0.0
C315 C 0.17351 0.86808 0.27484 0.0
O316 O 0.19656 0.87057 0.25736 0.0
N317 N 0.23314 0.94107 0.29536 0.0
C318 C 0.2541 0.98754 0.26081 0.0
C319 C 0.2421 0.99285 0.28903 0.0
C320 C 0.23172 0.96923 0.30607 0.0
C321 C 0.24846 0.93526 0.27009 0.0
C322 C 0.25937 0.95818 0.25257 0.0
H323 H 0.21873 0.97433 0.32535 0.0
H324 H 0.24801 0.91325 0.26086 0.0
H325 H 0.16154 0.96877 0.31161 0.0
H326 H 0.12493 0.94607 0.23064 0.0
H327 H 0.27316 0.83411 0.33074 0.0
H328 H 0.23724 0.01508 0.2964 0.0
H329 H 0.26877 0.95295 0.2312 0.0
C330 C 0.31479 0.91711 0.5007 0.0
C331 C 0.29871 0.89169 0.49699 0.0
N332 N 0.28128 0.88816 0.52073 0.0
N333 N 0.30914 0.9283 0.52771 0.0
C334 C 0.28786 0.91069 0.53893 0.0
H335 H 0.33239 0.92436 0.48638 0.0
Co336 Co 0.33533 0.95223 0.54841 0.0
C337 C 0.31633 0.94892 0.61288 0.0
O338 O 0.32515 0.97602 0.61827 0.0
N339 N 0.36275 0.97495 0.56887 0.0
C340 C 0.39995 0.00466 0.58088 0.0
C341 C 0.37552 0.00123 0.56291 0.0
C342 C 0.37973 0.96294 0.59031 0.0
N343 N 0.40232 0.98044 0.59801 0.0
O344 O 0.36374 0.92113 0.54706 0.0
H345 H 0.36878 0.01621 0.54563 0.0
H346 H 0.37655 0.94087 0.59899 0.0
O347 O 0.31883 0.93787 0.58685 0.0
C348 C 0.38113 0.92352 0.52491 0.0
O349 O 0.37864 0.94657 0.50744 0.0
N350 N 0.30814 0.9831 0.54539 0.0
C351 C 0.26168 0.00408 0.51083 0.0
C352 C 0.25637 0.99207 0.53905 0.0
C353 C 0.27999 0.98167 0.55608 0.0
C354 C 0.31396 0.99844 0.52013 0.0
C355 C 0.29105 0.00936 0.50261 0.0
H356 H 0.27488 0.96867 0.57536 0.0
H357 H 0.33597 0.99799 0.51091 0.0
H358 H 0.28044 0.91148 0.5616 0.0
H359 H 0.30312 0.87491 0.48063 0.0
H360 H 0.41512 0.02316 0.58085 0.0
H361 H 0.23414 0.9872 0.54639 0.0
H362 H 0.29628 0.01878 0.48125 0.0
C363 C 0.33189 0.06465 0.75076 0.0
C364 C 0.3573 0.04859 0.74707 0.0
N365 N 0.36084 0.03117 0.77083 0.0
N366 N 0.3207 0.05901 0.77777 0.0
C367 C 0.33831 0.03776 0.78901 0.0
H368 H 0.32464 0.08224 0.73642 0.0
Co369 Co 0.29678 0.0852 0.79844 0.0
C370 C 0.3001 0.06624 0.86292 0.0
O371 O 0.273 0.07505 0.86829 0.0
N372 N 0.27407 0.11263 0.81887 0.0
C373 C 0.24436 0.14981 0.83086 0.0
C374 C 0.24779 0.12538 0.81289 0.0
C375 C 0.28608 0.12963 0.84031 0.0
N376 N 0.26859 0.1522 0.84799 0.0
O377 O 0.32789 0.11363 0.79709 0.0
H378 H 0.2328 0.11862 0.79561 0.0
H379 H 0.30815 0.12646 0.84901 0.0
O380 O 0.31115 0.06874 0.83689 0.0
C381 C 0.3255 0.13101 0.77492 0.0
O382 O 0.30244 0.12849 0.75744 0.0
N383 N 0.2659 0.05801 0.79542 0.0
C384 C 0.245 0.01151 0.76082 0.0
C385 C 0.25699 0.00622 0.78906 0.0
C386 C 0.26735 0.02985 0.80611 0.0
C387 C 0.25058 0.0638 0.77014 0.0
C388 C 0.23969 0.04088 0.75259 0.0
H389 H 0.28033 0.02477 0.82541 0.0
H390 H 0.25102 0.08581 0.76092 0.0
H391 H 0.33753 0.03035 0.81168 0.0
H392 H 0.37408 0.053 0.73072 0.0
H393 H 0.22586 0.16497 0.83081 0.0
H394 H 0.26187 0.984 0.79641 0.0
H395 H 0.2303 0.04609 0.73122 0.0
C396 C 0.18451 0.91721 0.49829 0.0
C397 C 0.20058 0.89181 0.50198 0.0
N398 N 0.21799 0.88827 0.47823 0.0
N399 N 0.19014 0.92839 0.47128 0.0
C400 C 0.21141 0.91079 0.46004 0.0
H401 H 0.16691 0.92446 0.51262 0.0
Co402 Co 0.16395 0.95231 0.4506 0.0
C403 C 0.1829 0.94897 0.38612 0.0
O404 O 0.17409 0.97607 0.38074 0.0
N405 N 0.13652 0.97501 0.43016 0.0
C406 C 0.09932 0.00469 0.41819 0.0
C407 C 0.12376 0.00128 0.43614 0.0
C408 C 0.11952 0.96298 0.40873 0.0
N409 N 0.09693 0.98046 0.40106 0.0
O410 O 0.13553 0.92119 0.45196 0.0
H411 H 0.13052 0.01627 0.45342 0.0
H412 H 0.12269 0.94091 0.40004 0.0
O413 O 0.18042 0.93793 0.41215 0.0
C414 C 0.11815 0.92358 0.47412 0.0
O415 O 0.12066 0.94665 0.4916 0.0
N416 N 0.19114 0.98319 0.45361 0.0
C417 C 0.23764 0.0041 0.48819 0.0
C418 C 0.24293 0.99211 0.45996 0.0
C419 C 0.2193 0.98175 0.44291 0.0
C420 C 0.18535 0.99852 0.47889 0.0
C421 C 0.20828 0.00941 0.49642 0.0
H422 H 0.22438 0.96875 0.42362 0.0
H423 H 0.16334 0.99808 0.48811 0.0
H424 H 0.21882 0.91157 0.43736 0.0
H425 H 0.19617 0.87503 0.51834 0.0
H426 H 0.08415 0.02319 0.41824 0.0
H427 H 0.26515 0.98723 0.4526 0.0
H428 H 0.20307 0.01881 0.5178 0.0
C429 C 0.33202 0.93442 0.74832 0.0
C430 C 0.35743 0.9505 0.75204 0.0
N431 N 0.36096 0.96792 0.72829 0.0
N432 N 0.32083 0.94006 0.72131 0.0
C433 C 0.33843 0.96133 0.71009 0.0
H434 H 0.32477 0.91681 0.76265 0.0
Co435 Co 0.29691 0.91385 0.70061 0.0
C436 C 0.30024 0.93283 0.63614 0.0
O437 O 0.27315 0.924 0.63074 0.0
N438 N 0.27421 0.88641 0.68016 0.0
C439 C 0.24451 0.8492 0.66814 0.0
C440 C 0.24793 0.87363 0.68611 0.0
C441 C 0.28623 0.86943 0.65872 0.0
N442 N 0.26874 0.84684 0.65102 0.0
O443 O 0.32803 0.88545 0.70198 0.0
H444 H 0.23294 0.88038 0.70338 0.0
H445 H 0.3083 0.87262 0.65005 0.0
O446 O 0.31128 0.93034 0.66218 0.0
C447 C 0.32564 0.86807 0.72414 0.0
O448 O 0.30257 0.87055 0.7416 0.0
N449 N 0.26603 0.94102 0.70361 0.0
C450 C 0.24504 0.98747 0.73818 0.0
C451 C 0.25705 0.99279 0.70997 0.0
C452 C 0.26746 0.96918 0.69293 0.0
C453 C 0.25069 0.93519 0.72887 0.0
C454 C 0.23975 0.9581 0.74639 0.0
H455 H 0.28047 0.97429 0.67366 0.0
H456 H 0.25114 0.91318 0.73809 0.0
H457 H 0.33765 0.96875 0.68742 0.0
H458 H 0.37421 0.94609 0.7684 0.0
H459 H 0.22601 0.83403 0.66817 0.0
H460 H 0.26192 0.01502 0.70262 0.0
H461 H 0.23033 0.95287 0.76775 0.0
C462 C 0.31463 0.08199 0.99836 0.0
C463 C 0.29856 0.10739 0.00206 0.0
N464 N 0.28112 0.11091 0.9783 0.0
N465 N 0.30898 0.07079 0.97135 0.0
C466 C 0.28771 0.08837 0.96011 0.0
H467 H 0.33224 0.07475 0.0127 0.0
Co468 Co 0.33517 0.04687 0.95067 0.0
C469 C 0.31619 0.05017 0.88619 0.0
O470 O 0.325 0.02307 0.88081 0.0
N471 N 0.3626 0.02417 0.93024 0.0
C472 C 0.39981 0.99449 0.91826 0.0
C473 C 0.37538 0.99791 0.93621 0.0
C474 C 0.37959 0.03619 0.90881 0.0
N475 N 0.40218 0.01872 0.90113 0.0
O476 O 0.36358 0.078 0.95205 0.0
H477 H 0.36863 0.98292 0.95349 0.0
H478 H 0.3764 0.05826 0.90012 0.0
O479 O 0.31868 0.06123 0.91223 0.0
C480 C 0.38098 0.07562 0.97421 0.0
O481 O 0.37849 0.05256 0.99168 0.0
N482 N 0.30799 0.01598 0.95367 0.0
C483 C 0.26152 0.99502 0.98821 0.0
C484 C 0.25621 0.00701 0.95998 0.0
C485 C 0.27984 0.0174 0.94295 0.0
C486 C 0.3138 0.00066 0.97894 0.0
C487 C 0.29088 0.98974 0.99645 0.0
H488 H 0.27474 0.03039 0.92367 0.0
H489 H 0.33581 0.00111 0.98817 0.0
H490 H 0.28028 0.08758 0.93744 0.0
H491 H 0.30297 0.12418 0.01841 0.0
H492 H 0.41499 0.976 0.91831 0.0
H493 H 0.23399 0.01188 0.95262 0.0
H494 H 0.29611 0.98033 0.01782 0.0
C495 C 0.16715 0.06467 0.24832 0.0
C496 C 0.14174 0.04859 0.25201 0.0
N497 N 0.1382 0.03116 0.22825 0.0
N498 N 0.17833 0.05903 0.2213 0.0
C499 C 0.16073 0.03775 0.21006 0.0
H500 H 0.1744 0.08228 0.26266 0.0
Co501 Co 0.20225 0.08523 0.20064 0.0
C502 C 0.19891 0.06625 0.13615 0.0
O503 O 0.226 0.07507 0.13077 0.0
N504 N 0.22496 0.11266 0.1802 0.0
C505 C 0.25465 0.14987 0.16823 0.0
C506 C 0.25123 0.12544 0.18618 0.0
C507 C 0.21293 0.12965 0.15878 0.0
N508 N 0.23042 0.15223 0.1511 0.0
O509 O 0.17114 0.11363 0.20201 0.0
H510 H 0.26622 0.11869 0.20345 0.0
H511 H 0.19086 0.12646 0.15009 0.0
O512 O 0.18787 0.06874 0.16218 0.0
C513 C 0.17354 0.13102 0.22418 0.0
O514 O 0.1966 0.12853 0.24165 0.0
N515 N 0.23313 0.05805 0.20363 0.0
C516 C 0.25409 0.01158 0.23818 0.0
C517 C 0.24207 0.00627 0.20995 0.0
C518 C 0.23169 0.02989 0.19292 0.0
C519 C 0.24847 0.06387 0.2289 0.0
C520 C 0.25939 0.04095 0.24642 0.0
H521 H 0.21868 0.02479 0.17363 0.0
H522 H 0.24803 0.08588 0.23813 0.0
H523 H 0.16151 0.03033 0.18739 0.0
H524 H 0.12496 0.05301 0.26836 0.0
H525 H 0.27315 0.16504 0.16827 0.0
H526 H 0.2372 0.98405 0.20259 0.0
H527 H 0.26881 0.04618 0.26779 0.0
C528 C 0.00074 0.18439 0.082 0.0
C529 C 0.99709 0.20051 0.10738 0.0
N530 N 0.02081 0.21801 0.11085 0.0
N531 N 0.02772 0.19004 0.07076 0.0
C532 C 0.03896 0.21137 0.0883 0.0
H533 H 0.98641 0.16674 0.07482 0.0
Co534 Co 0.04837 0.16383 0.04683 0.0
C535 C 0.11286 0.1828 0.05016 0.0
O536 O 0.11825 0.17397 0.02307 0.0
N537 N 0.06879 0.13639 0.02413 0.0
C538 C 0.08075 0.09919 0.99442 0.0
C539 C 0.0628 0.12362 0.99785 0.0
C540 C 0.09022 0.1194 0.03614 0.0
N541 N 0.09789 0.09682 0.01865 0.0
O542 O 0.04701 0.13543 0.07795 0.0
H543 H 0.04553 0.13037 0.98287 0.0
H544 H 0.09892 0.12259 0.05821 0.0
O545 O 0.08683 0.18032 0.0612 0.0
C546 C 0.02485 0.11803 0.07556 0.0
O547 O 0.00737 0.12052 0.0525 0.0
N548 N 0.04537 0.191 0.01595 0.0
C549 C 0.01082 0.23748 0.995 0.0
C550 C 0.03906 0.24278 0.00699 0.0
C551 C 0.05609 0.21916 0.01738 0.0
C552 C 0.02009 0.18519 0.00063 0.0
C553 C 0.00257 0.20811 0.98971 0.0
H554 H 0.07539 0.22425 0.03036 0.0
H555 H 0.01085 0.16318 0.00108 0.0
H556 H 0.06163 0.21879 0.08747 0.0
H557 H 0.98079 0.19608 0.12421 0.0
H558 H 0.0807 0.08402 0.97592 0.0
H559 H 0.04644 0.265 0.01186 0.0
H560 H 0.9812 0.20289 0.98031 0.0
C561 C 0.50073 0.31474 0.91705 0.0
C562 C 0.49706 0.29862 0.89167 0.0
N563 N 0.52077 0.28112 0.88821 0.0
N564 N 0.52771 0.30909 0.9283 0.0
C565 C 0.53893 0.28777 0.91076 0.0
H566 H 0.48641 0.33239 0.92422 0.0
Co567 Co 0.54839 0.3353 0.95223 0.0
C568 C 0.61287 0.31633 0.94892 0.0
O569 O 0.61827 0.32516 0.97601 0.0
N570 N 0.56884 0.36274 0.97494 0.0
C571 C 0.58084 0.39995 0.00464 0.0
C572 C 0.56287 0.37552 0.00121 0.0
C573 C 0.59028 0.37973 0.96293 0.0
N574 N 0.59797 0.40231 0.98043 0.0
O575 O 0.54704 0.3637 0.92111 0.0
H576 H 0.5456 0.36877 0.01619 0.0
H577 H 0.59896 0.37654 0.94086 0.0
O578 O 0.58684 0.31881 0.93787 0.0
C579 C 0.52489 0.3811 0.9235 0.0
O580 O 0.50742 0.37861 0.94656 0.0
N581 N 0.54538 0.30814 0.98311 0.0
C582 C 0.51082 0.26168 0.00411 0.0
C583 C 0.53904 0.25637 0.99211 0.0
C584 C 0.55608 0.27998 0.9817 0.0
C585 C 0.52011 0.31396 0.99844 0.0
C586 C 0.5026 0.29105 0.00937 0.0
H587 H 0.57536 0.27488 0.96871 0.0
H588 H 0.51089 0.33597 0.99797 0.0
H589 H 0.5616 0.28034 0.91159 0.0
H590 H 0.48076 0.30305 0.87483 0.0
H591 H 0.5808 0.41512 0.02315 0.0
H592 H 0.5464 0.23414 0.98725 0.0
H593 H 0.48124 0.29628 0.01878 0.0
C594 C 0.93445 0.25071 0.16707 0.0
C595 C 0.95057 0.24705 0.1417 0.0
N596 N 0.96806 0.27078 0.13825 0.0
N597 N 0.9401 0.27769 0.17833 0.0
C598 C 0.96143 0.28893 0.1608 0.0
H599 H 0.9168 0.23638 0.17423 0.0
Co600 Co 0.9139 0.29835 0.20225 0.0
C601 C 0.93288 0.36284 0.19897 0.0
O602 O 0.92406 0.36822 0.22606 0.0
N603 N 0.88647 0.31878 0.22496 0.0
C604 C 0.84927 0.33075 0.25465 0.0
C605 C 0.87369 0.31279 0.25122 0.0
C606 C 0.86948 0.34021 0.21295 0.0
N607 N 0.84691 0.34789 0.23043 0.0
O608 O 0.88549 0.29699 0.17112 0.0
H609 H 0.88044 0.29551 0.2662 0.0
H610 H 0.87267 0.34891 0.19088 0.0
O611 O 0.93039 0.33681 0.18791 0.0
C612 C 0.86809 0.27483 0.17349 0.0
O613 O 0.87058 0.25735 0.19654 0.0
N614 N 0.94108 0.29535 0.23314 0.0
C615 C 0.98755 0.2608 0.25411 0.0
C616 C 0.99285 0.28903 0.24213 0.0
C617 C 0.96923 0.30607 0.23174 0.0
C618 C 0.93526 0.27007 0.24846 0.0
C619 C 0.95818 0.25256 0.25938 0.0
H620 H 0.97433 0.32536 0.21877 0.0
H621 H 0.91325 0.26083 0.24799 0.0
H622 H 0.96886 0.3116 0.16165 0.0
H623 H 0.94614 0.23075 0.12486 0.0
H624 H 0.8341 0.3307 0.27314 0.0
H625 H 0.01508 0.2964 0.23728 0.0
H626 H 0.95295 0.23118 0.26877 0.0
C627 C 0.99833 0.68448 0.41716 0.0
C628 C 0.00199 0.7006 0.39179 0.0
N629 N 0.97826 0.71808 0.38833 0.0
N630 N 0.97136 0.69012 0.42841 0.0
C631 C 0.96011 0.71144 0.41087 0.0
H632 H 0.01266 0.66684 0.42434 0.0
Co633 Co 0.9507 0.66391 0.45233 0.0
C634 C 0.88621 0.68286 0.44901 0.0
O635 O 0.88083 0.67404 0.4761 0.0
N636 N 0.93028 0.63648 0.47504 0.0
C637 C 0.91831 0.59928 0.50473 0.0
C638 C 0.93626 0.62372 0.50131 0.0
C639 C 0.90884 0.61948 0.46302 0.0
N640 N 0.90116 0.5969 0.48051 0.0
O641 O 0.95205 0.6355 0.42121 0.0
H642 H 0.95355 0.63048 0.51629 0.0
H643 H 0.90014 0.62265 0.44095 0.0
O644 O 0.91224 0.68038 0.43797 0.0
C645 C 0.9742 0.61811 0.4236 0.0
O646 O 0.99169 0.62062 0.44666 0.0
N647 N 0.95372 0.6911 0.48321 0.0
C648 C 0.9883 0.73759 0.50414 0.0
C649 C 0.96006 0.74288 0.49216 0.0
C650 C 0.94301 0.71925 0.4818 0.0
C651 C 0.979 0.6853 0.49853 0.0
C652 C 0.99654 0.70823 0.50943 0.0
H653 H 0.9237 0.72433 0.46882 0.0
H654 H 0.98823 0.6633 0.49808 0.0
H655 H 0.93745 0.71885 0.41171 0.0
H656 H 0.01827 0.69616 0.37495 0.0
H657 H 0.91836 0.58412 0.52323 0.0
H658 H 0.95269 0.7651 0.48729 0.0
H659 H 0.01791 0.70302 0.51882 0.0
C660 C 0.06467 0.24831 0.16715 0.0
C661 C 0.04859 0.25199 0.14174 0.0
N662 N 0.03115 0.22824 0.13821 0.0
N663 N 0.05902 0.2213 0.17834 0.0
C664 C 0.03774 0.21006 0.16074 0.0
H665 H 0.08228 0.26265 0.1744 0.0
Co666 Co 0.08523 0.20064 0.20226 0.0
C667 C 0.06625 0.13615 0.19892 0.0
O668 O 0.07509 0.13076 0.22601 0.0
N669 N 0.11266 0.18021 0.22496 0.0
C670 C 0.14988 0.16825 0.25465 0.0
C671 C 0.12545 0.18619 0.25123 0.0
C672 C 0.12965 0.15878 0.21293 0.0
N673 N 0.15225 0.15112 0.23042 0.0
O674 O 0.11363 0.202 0.17114 0.0
H675 H 0.1187 0.20347 0.26622 0.0
H676 H 0.12646 0.15009 0.19086 0.0
O677 O 0.06874 0.16218 0.18788 0.0
C678 C 0.13102 0.22417 0.17353 0.0
O679 O 0.12854 0.24164 0.1966 0.0
N680 N 0.05805 0.20363 0.23314 0.0
C681 C 0.01159 0.23817 0.2541 0.0
C682 C 0.00628 0.20995 0.24209 0.0
C683 C 0.0299 0.19292 0.2317 0.0
C684 C 0.06387 0.2289 0.24848 0.0
C685 C 0.04096 0.24642 0.2594 0.0
H686 H 0.0248 0.17363 0.2187 0.0
H687 H 0.08588 0.23814 0.24803 0.0
H688 H 0.03032 0.18738 0.16153 0.0
H689 H 0.05301 0.26833 0.12496 0.0
H690 H 0.16506 0.1683 0.27315 0.0
H691 H 0.98405 0.20258 0.23722 0.0
H692 H 0.04618 0.26779 0.26882 0.0
C693 C 0.49841 0.81467 0.58203 0.0
C694 C 0.50207 0.79855 0.6074 0.0
N695 N 0.47834 0.78105 0.61085 0.0
N696 N 0.47143 0.80902 0.57077 0.0
C697 C 0.46019 0.78769 0.58829 0.0
H698 H 0.51274 0.83232 0.57487 0.0
Co699 Co 0.45077 0.83522 0.54685 0.0
C700 C 0.38628 0.81625 0.55013 0.0
O701 O 0.3809 0.82508 0.52304 0.0
N702 N 0.43035 0.86266 0.52415 0.0
C703 C 0.41838 0.89986 0.49446 0.0
C704 C 0.43633 0.87544 0.49789 0.0
C705 C 0.40891 0.87965 0.53616 0.0
N706 N 0.40124 0.90223 0.51868 0.0
O707 O 0.45213 0.86363 0.57799 0.0
H708 H 0.4536 0.86868 0.48291 0.0
H709 H 0.40022 0.87646 0.55823 0.0
O710 O 0.41231 0.81873 0.56119 0.0
C711 C 0.47429 0.88103 0.57562 0.0
O712 O 0.49177 0.87854 0.55256 0.0
N713 N 0.45378 0.80805 0.51596 0.0
C714 C 0.48833 0.76158 0.495 0.0
C715 C 0.46009 0.75628 0.50697 0.0
C716 C 0.44306 0.7799 0.51735 0.0
C717 C 0.47906 0.81387 0.50065 0.0
C718 C 0.49658 0.79095 0.48974 0.0
H719 H 0.42376 0.7748 0.53032 0.0
H720 H 0.48829 0.83588 0.50112 0.0
H721 H 0.43752 0.78026 0.58745 0.0
H722 H 0.51836 0.80299 0.62425 0.0
H723 H 0.41843 0.91503 0.47597 0.0
H724 H 0.45272 0.73405 0.51182 0.0
H725 H 0.51795 0.79618 0.48035 0.0
C726 C 0.93441 0.74832 0.33203 0.0
C727 C 0.95049 0.75203 0.35744 0.0
N728 N 0.96792 0.72829 0.36096 0.0
N729 N 0.94005 0.72131 0.32084 0.0
C730 C 0.96133 0.71009 0.33843 0.0
H731 H 0.9168 0.76265 0.32478 0.0
Co732 Co 0.91384 0.70062 0.29692 0.0
C733 C 0.93282 0.63614 0.30024 0.0
O734 O 0.92399 0.63074 0.27315 0.0
N735 N 0.8864 0.68016 0.27421 0.0
C736 C 0.84918 0.66816 0.24452 0.0
C737 C 0.87362 0.68613 0.24794 0.0
C738 C 0.86942 0.65873 0.28623 0.0
N739 N 0.84683 0.65104 0.26875 0.0
O740 O 0.88545 0.70198 0.32804 0.0
H741 H 0.88036 0.7034 0.23296 0.0
H742 H 0.87261 0.65005 0.3083 0.0
O743 O 0.93033 0.66218 0.31129 0.0
C744 C 0.86805 0.72414 0.32565 0.0
O745 O 0.87054 0.7416 0.30258 0.0
N746 N 0.94101 0.70362 0.26604 0.0
C747 C 0.98747 0.73818 0.24503 0.0
C748 C 0.99278 0.70996 0.25705 0.0
C749 C 0.96917 0.69293 0.26746 0.0
C750 C 0.93519 0.72888 0.25069 0.0
C751 C 0.9581 0.7464 0.23976 0.0
H752 H 0.97427 0.67366 0.28046 0.0
H753 H 0.91318 0.7381 0.25115 0.0
H754 H 0.96875 0.68742 0.33765 0.0
H755 H 0.94608 0.76839 0.37422 0.0
H756 H 0.834 0.6682 0.22603 0.0
H757 H 0.01501 0.70261 0.26192 0.0
H758 H 0.95287 0.76775 0.23034 0.0
C759 C 0.56458 0.25084 0.83191 0.0
C760 C 0.54851 0.24714 0.85731 0.0
N761 N 0.5311 0.2709 0.86084 0.0
N762 N 0.55895 0.27785 0.82072 0.0
C763 C 0.53769 0.28909 0.83832 0.0
H764 H 0.58218 0.2365 0.82466 0.0
Co765 Co 0.58515 0.29852 0.79681 0.0
C766 C 0.5662 0.363 0.80014 0.0
O767 O 0.57502 0.36839 0.77305 0.0
N768 N 0.61258 0.31895 0.77411 0.0
C769 C 0.64979 0.33092 0.74443 0.0
C770 C 0.62535 0.31297 0.74784 0.0
C771 C 0.62958 0.34038 0.78614 0.0
N772 N 0.65217 0.34806 0.76865 0.0
O773 O 0.61356 0.29716 0.82793 0.0
H774 H 0.61859 0.29569 0.73285 0.0
H775 H 0.62641 0.34907 0.80821 0.0
O776 O 0.56868 0.33697 0.81119 0.0
C777 C 0.63094 0.27499 0.82554 0.0
O778 O 0.62843 0.25752 0.80247 0.0
N779 N 0.55796 0.29551 0.76593 0.0
C780 C 0.51146 0.26093 0.74501 0.0
C781 C 0.50618 0.28916 0.757 0.0
C782 C 0.52981 0.30621 0.76737 0.0
C783 C 0.56376 0.27023 0.7506 0.0
C784 C 0.54083 0.2527 0.73971 0.0
H785 H 0.52472 0.32551 0.78035 0.0
H786 H 0.58576 0.26101 0.75104 0.0
H787 H 0.53028 0.31176 0.83754 0.0
H788 H 0.55292 0.23079 0.87409 0.0
H789 H 0.66496 0.33087 0.72594 0.0
H790 H 0.48395 0.29652 0.76188 0.0
H791 H 0.54604 0.23132 0.7303 0.0
C792 C 0.58202 0.50086 0.6845 0.0
C793 C 0.60739 0.4972 0.70063 0.0
N794 N 0.61086 0.52093 0.71812 0.0
N795 N 0.57078 0.52784 0.69014 0.0
C796 C 0.58832 0.53908 0.71147 0.0
H797 H 0.57484 0.48653 0.66685 0.0
Co798 Co 0.54687 0.5485 0.66392 0.0
C799 C 0.55022 0.61299 0.68289 0.0
O800 O 0.52313 0.61838 0.67405 0.0
N801 N 0.52418 0.56892 0.63647 0.0
C802 C 0.49448 0.5809 0.59926 0.0
C803 C 0.4979 0.56295 0.62369 0.0
C804 C 0.5362 0.59035 0.61949 0.0
N805 N 0.51871 0.59803 0.5969 0.0
O806 O 0.57799 0.54712 0.63553 0.0
H807 H 0.48291 0.54567 0.63044 0.0
H808 H 0.55827 0.59904 0.62268 0.0
O809 O 0.56125 0.58695 0.68041 0.0
C810 C 0.5756 0.52496 0.61814 0.0
O811 O 0.55253 0.50748 0.62062 0.0
N812 N 0.51598 0.54551 0.69109 0.0
C813 C 0.49501 0.51096 0.73755 0.0
C814 C 0.50701 0.53919 0.74286 0.0
C815 C 0.5174 0.55623 0.71924 0.0
C816 C 0.50064 0.52024 0.68526 0.0
C817 C 0.48972 0.50272 0.70818 0.0
H818 H 0.5304 0.57552 0.72434 0.0
H819 H 0.5011 0.511 0.66326 0.0
H820 H 0.58749 0.56175 0.7189 0.0
H821 H 0.62422 0.48091 0.69619 0.0
H822 H 0.47599 0.58085 0.58409 0.0
H823 H 0.51188 0.54656 0.76509 0.0
H824 H 0.48031 0.48135 0.70295 0.0
C825 C 0.74828 0.33206 0.93446 0.0
C826 C 0.75196 0.35744 0.9506 0.0
N827 N 0.72824 0.3609 0.96808 0.0
N828 N 0.7213 0.32082 0.9401 0.0
C829 C 0.71007 0.33836 0.96143 0.0
H830 H 0.7626 0.32489 0.91682 0.0
Co831 Co 0.70062 0.29691 0.91387 0.0
C832 C 0.63613 0.30023 0.93282 0.0
O833 O 0.63073 0.27315 0.92397 0.0
N834 N 0.68017 0.27422 0.88641 0.0
C835 C 0.66817 0.24453 0.84919 0.0
C836 C 0.68613 0.24795 0.87363 0.0
C837 C 0.65875 0.28624 0.86942 0.0
N838 N 0.65105 0.26876 0.84683 0.0
O839 O 0.70199 0.32804 0.88549 0.0
H840 H 0.70339 0.23295 0.88038 0.0
H841 H 0.65007 0.30831 0.87261 0.0
O842 O 0.66217 0.31127 0.93035 0.0
C843 C 0.72415 0.32565 0.8681 0.0
O844 O 0.74161 0.30259 0.87058 0.0
N845 N 0.70361 0.26601 0.94102 0.0
C846 C 0.73817 0.24501 0.98748 0.0
C847 C 0.70995 0.25701 0.99279 0.0
C848 C 0.69291 0.26742 0.96918 0.0
C849 C 0.72887 0.25068 0.9352 0.0
C850 C 0.74639 0.23974 0.9581 0.0
H851 H 0.67364 0.28041 0.97429 0.0
H852 H 0.7381 0.25115 0.91319 0.0
H853 H 0.6874 0.33753 0.96885 0.0
H854 H 0.76826 0.37427 0.94617 0.0
H855 H 0.6682 0.22603 0.83402 0.0
H856 H 0.7026 0.26187 0.01502 0.0
H857 H 0.76775 0.23033 0.95287 0.0
C858 C 0.91717 0.49825 0.18456 0.0
C859 C 0.8918 0.50191 0.20069 0.0
N860 N 0.88833 0.47818 0.21816 0.0
N861 N 0.92841 0.47127 0.19019 0.0
C862 C 0.91087 0.46002 0.21151 0.0
H863 H 0.92435 0.51258 0.16693 0.0
Co864 Co 0.95231 0.45061 0.16397 0.0
C865 C 0.94898 0.38612 0.1829 0.0
O866 O 0.97607 0.38073 0.17407 0.0
N867 N 0.975 0.43018 0.13652 0.0
C868 C 0.00469 0.41821 0.09932 0.0
C869 C 0.00127 0.43616 0.12376 0.0
C870 C 0.96298 0.40875 0.11952 0.0
N871 N 0.98046 0.40108 0.09693 0.0
O872 O 0.92118 0.45198 0.13557 0.0
H873 H 0.01626 0.45344 0.13052 0.0
H874 H 0.94091 0.40006 0.12269 0.0
O875 O 0.93794 0.41215 0.18043 0.0
C876 C 0.92358 0.47414 0.11819 0.0
O877 O 0.94664 0.49162 0.1207 0.0
N878 N 0.98321 0.4536 0.19115 0.0
C879 C 0.00413 0.48819 0.23764 0.0
C880 C 0.99216 0.45995 0.24293 0.0
C881 C 0.98179 0.4429 0.2193 0.0
C882 C 0.99853 0.47889 0.18535 0.0
C883 C 0.00943 0.49642 0.20828 0.0
H884 H 0.96881 0.42359 0.22438 0.0
H885 H 0.99807 0.48812 0.16334 0.0
H886 H 0.9117 0.43735 0.21892 0.0
H887 H 0.87497 0.5182 0.19625 0.0
H888 H 0.02318 0.41826 0.08415 0.0
H889 H 0.98729 0.45259 0.26515 0.0
H890 H 0.01882 0.5178 0.20306 0.0
C891 C 0.7508 0.66708 0.43455 0.0
C892 C 0.74714 0.6417 0.45068 0.0
N893 N 0.77087 0.63826 0.46817 0.0
N894 N 0.77778 0.67833 0.44019 0.0
C895 C 0.78903 0.66081 0.46152 0.0
H896 H 0.73647 0.67424 0.41691 0.0
Co897 Co 0.79844 0.70224 0.41397 0.0
C898 C 0.86293 0.69894 0.43292 0.0
O899 O 0.86833 0.72602 0.42408 0.0
N900 N 0.81886 0.72492 0.38652 0.0
C901 C 0.83083 0.7546 0.34931 0.0
C902 C 0.81288 0.75119 0.37374 0.0
C903 C 0.84028 0.7129 0.36953 0.0
N904 N 0.84795 0.73037 0.34694 0.0
O905 O 0.79705 0.67109 0.38558 0.0
H906 H 0.79562 0.76618 0.3805 0.0
H907 H 0.84897 0.69083 0.37271 0.0
O908 O 0.8369 0.68789 0.43045 0.0
C909 C 0.77489 0.67347 0.36818 0.0
O910 O 0.75742 0.69653 0.37067 0.0
N911 N 0.79546 0.73314 0.44114 0.0
C912 C 0.76093 0.75413 0.48761 0.0
C913 C 0.78916 0.74214 0.49291 0.0
C914 C 0.80618 0.73174 0.46929 0.0
C915 C 0.77019 0.74846 0.43532 0.0
C916 C 0.75268 0.75939 0.45824 0.0
H917 H 0.82547 0.71876 0.47439 0.0
H918 H 0.76094 0.74799 0.41332 0.0
H919 H 0.8117 0.66165 0.46894 0.0
H920 H 0.73085 0.62486 0.44624 0.0
H921 H 0.83078 0.77309 0.33414 0.0
H922 H 0.79653 0.73729 0.51513 0.0
H923 H 0.73131 0.76879 0.45302 0.0
C924 C 0.58202 0.49841 0.81467 0.0
C925 C 0.6074 0.50206 0.79855 0.0
N926 N 0.61085 0.47834 0.78106 0.0
N927 N 0.57077 0.47143 0.80901 0.0
C928 C 0.58829 0.46018 0.78769 0.0
H929 H 0.57486 0.51274 0.83231 0.0
Co930 Co 0.54685 0.45076 0.83522 0.0
C931 C 0.55013 0.38628 0.81624 0.0
O932 O 0.52304 0.38089 0.82506 0.0
N933 N 0.52415 0.43034 0.86265 0.0
C934 C 0.49445 0.41835 0.89985 0.0
C935 C 0.49788 0.43631 0.87543 0.0
C936 C 0.53616 0.4089 0.87964 0.0
N937 N 0.51867 0.40122 0.90222 0.0
O938 O 0.57798 0.45213 0.86362 0.0
H939 H 0.4829 0.45359 0.86867 0.0
H940 H 0.55822 0.40021 0.87646 0.0
O941 O 0.56119 0.41231 0.81873 0.0
C942 C 0.57561 0.47429 0.88102 0.0
O943 O 0.55255 0.49177 0.87853 0.0
N944 N 0.51595 0.45377 0.80805 0.0
C945 C 0.495 0.48833 0.76159 0.0
C946 C 0.50698 0.4601 0.75627 0.0
C947 C 0.51736 0.44306 0.77989 0.0
C948 C 0.50064 0.47905 0.81387 0.0
C949 C 0.48973 0.49657 0.79095 0.0
H950 H 0.53033 0.42376 0.77479 0.0
H951 H 0.50111 0.48828 0.83588 0.0
H952 H 0.58745 0.43751 0.78026 0.0
H953 H 0.62424 0.51836 0.80299 0.0
H954 H 0.47595 0.4184 0.91501 0.0
H955 H 0.51183 0.45273 0.73405 0.0
H956 H 0.48034 0.51794 0.79618 0.0
C957 C 0.75079 0.33195 0.06461 0.0
C958 C 0.74713 0.35733 0.0485 0.0
N959 N 0.77086 0.36079 0.03102 0.0
N960 N 0.77777 0.32071 0.05897 0.0
C961 C 0.78901 0.33825 0.03766 0.0
H962 H 0.73646 0.32477 0.08224 0.0
Co963 Co 0.79843 0.29679 0.08518 0.0
C964 C 0.86291 0.30011 0.06624 0.0
O965 O 0.8683 0.27302 0.07506 0.0
N966 N 0.81885 0.27409 0.11262 0.0
C967 C 0.83084 0.24438 0.14981 0.0
C968 C 0.81287 0.24781 0.12538 0.0
C969 C 0.84029 0.2861 0.12963 0.0
N970 N 0.84797 0.26861 0.1522 0.0
O971 O 0.79708 0.32791 0.1136 0.0
H972 H 0.7956 0.23282 0.11861 0.0
H973 H 0.84899 0.30817 0.12645 0.0
O974 O 0.83688 0.31115 0.06872 0.0
C975 C 0.77491 0.32552 0.13098 0.0
O976 O 0.75743 0.30246 0.12847 0.0
N977 N 0.79541 0.2659 0.058 0.0
C978 C 0.76082 0.24499 0.01152 0.0
C979 C 0.78906 0.25696 0.00622 0.0
C980 C 0.80611 0.26732 0.02985 0.0
C981 C 0.77013 0.25059 0.06381 0.0
C982 C 0.75259 0.23969 0.04088 0.0
H983 H 0.82542 0.2803 0.02476 0.0
H984 H 0.7609 0.25104 0.08581 0.0
H985 H 0.81168 0.33742 0.03025 0.0
H986 H 0.73084 0.37416 0.05294 0.0
H987 H 0.83079 0.22588 0.16497 0.0
H988 H 0.79641 0.26183 0.984 0.0
H989 H 0.73121 0.2303 0.0461 0.0
C990 C 0.91705 0.50074 0.31474 0.0
C991 C 0.89167 0.49706 0.29861 0.0
N992 N 0.8882 0.52078 0.28113 0.0
N993 N 0.9283 0.52772 0.30909 0.0
C994 C 0.91075 0.53894 0.28777 0.0
H995 H 0.92423 0.48642 0.33238 0.0
Co996 Co 0.95222 0.5484 0.3353 0.0
C997 C 0.94891 0.61288 0.31633 0.0
O998 O 0.976 0.61828 0.32517 0.0
N999 N 0.97493 0.56885 0.36275 0.0
C1000 C 0.00465 0.58086 0.39994 0.0
C1001 C 0.00121 0.56289 0.37552 0.0
C1002 C 0.96292 0.59029 0.37973 0.0
N1003 N 0.98042 0.59799 0.40231 0.0
O1004 O 0.9211 0.54704 0.3637 0.0
H1005 H 0.0162 0.54562 0.36876 0.0
H1006 H 0.94085 0.59897 0.37655 0.0
O1007 O 0.93786 0.58684 0.31882 0.0
C1008 C 0.9235 0.52489 0.3811 0.0
O1009 O 0.94655 0.50742 0.3786 0.0
N1010 N 0.98311 0.54539 0.30814 0.0
C1011 C 0.0041 0.51083 0.26169 0.0
C1012 C 0.9921 0.53905 0.25637 0.0
C1013 C 0.98169 0.55609 0.27998 0.0
C1014 C 0.99844 0.52013 0.31396 0.0
C1015 C 0.00937 0.50261 0.29106 0.0
H1016 H 0.9687 0.57537 0.27488 0.0
H1017 H 0.99797 0.51091 0.33597 0.0
H1018 H 0.91158 0.56161 0.28035 0.0
H1019 H 0.87484 0.48076 0.30304 0.0
H1020 H 0.02315 0.58083 0.41511 0.0
H1021 H 0.98724 0.5464 0.23414 0.0
H1022 H 0.01878 0.48125 0.29629 0.0
C1023 C 0.74839 0.66713 0.56473 0.0
C1024 C 0.75203 0.64175 0.54861 0.0
N1025 N 0.7283 0.63828 0.53112 0.0
N1026 N 0.72141 0.67838 0.55908 0.0
C1027 C 0.71016 0.66084 0.53776 0.0
H1028 H 0.76272 0.67431 0.58238 0.0
Co1029 Co 0.70076 0.7023 0.58529 0.0
C1030 C 0.63626 0.69897 0.56632 0.0
O1031 O 0.63088 0.72606 0.57515 0.0
N1032 N 0.68034 0.72501 0.61273 0.0
C1033 C 0.66837 0.75472 0.64994 0.0
C1034 C 0.68632 0.75128 0.62551 0.0
C1035 C 0.6589 0.713 0.62972 0.0
N1036 N 0.65123 0.7305 0.6523 0.0
O1037 O 0.70212 0.67119 0.6137 0.0
H1038 H 0.7036 0.76627 0.61876 0.0
H1039 H 0.65021 0.69093 0.62654 0.0
O1040 O 0.6623 0.68793 0.56881 0.0
C1041 C 0.72428 0.67358 0.63109 0.0
O1042 O 0.74177 0.69663 0.6286 0.0
N1043 N 0.70376 0.73318 0.55812 0.0
C1044 C 0.73831 0.75413 0.51165 0.0
C1045 C 0.71007 0.74214 0.50635 0.0
C1046 C 0.69304 0.73176 0.52997 0.0
C1047 C 0.72904 0.74851 0.56394 0.0
C1048 C 0.74656 0.75942 0.54102 0.0
H1049 H 0.67374 0.71877 0.52487 0.0
H1050 H 0.73828 0.74805 0.58595 0.0
H1051 H 0.68749 0.66167 0.53033 0.0
H1052 H 0.76832 0.62492 0.55304 0.0
H1053 H 0.66842 0.77322 0.6651 0.0
H1054 H 0.7027 0.73727 0.48412 0.0
H1055 H 0.76793 0.76883 0.54625 0.0
C1056 C 0.68444 0.58198 0.50083 0.0
C1057 C 0.70053 0.60739 0.49713 0.0
N1058 N 0.71796 0.61092 0.52089 0.0
N1059 N 0.69009 0.57079 0.52783 0.0
C1060 C 0.71137 0.58839 0.53908 0.0
H1061 H 0.66683 0.57473 0.48649 0.0
Co1062 Co 0.66389 0.54687 0.54851 0.0
C1063 C 0.68287 0.55022 0.61299 0.0
O1064 O 0.67405 0.52313 0.61837 0.0
N1065 N 0.63646 0.52417 0.56894 0.0
C1066 C 0.59925 0.49448 0.58091 0.0
C1067 C 0.62368 0.4979 0.56296 0.0
C1068 C 0.61948 0.5362 0.59037 0.0
N1069 N 0.59688 0.51871 0.59804 0.0
O1070 O 0.63549 0.57799 0.54714 0.0
H1071 H 0.63042 0.48291 0.54568 0.0
H1072 H 0.62267 0.55827 0.59906 0.0
O1073 O 0.68038 0.56126 0.58696 0.0
C1074 C 0.6181 0.57559 0.52497 0.0
O1075 O 0.62058 0.55252 0.5075 0.0
N1076 N 0.69107 0.516 0.54551 0.0
C1077 C 0.73754 0.49503 0.51096 0.0
C1078 C 0.74284 0.50705 0.53919 0.0
C1079 C 0.71923 0.51744 0.55622 0.0
C1080 C 0.68525 0.50065 0.52024 0.0
C1081 C 0.70817 0.48973 0.50272 0.0
H1082 H 0.72433 0.53044 0.5755 0.0
H1083 H 0.66324 0.50109 0.511 0.0
H1084 H 0.7188 0.58761 0.56175 0.0
H1085 H 0.69611 0.62417 0.48079 0.0
H1086 H 0.58407 0.47599 0.58086 0.0
H1087 H 0.76507 0.51192 0.54655 0.0
H1088 H 0.70294 0.48032 0.48136 0.0
C1089 C 0.66713 0.4345 0.75077 0.0
C1090 C 0.64172 0.45058 0.74707 0.0
N1091 N 0.6382 0.468 0.77084 0.0
N1092 N 0.67832 0.44014 0.77778 0.0
C1093 C 0.66074 0.46142 0.78903 0.0
H1094 H 0.67436 0.4169 0.73643 0.0
Co1095 Co 0.70224 0.41395 0.79846 0.0
C1096 C 0.69894 0.43292 0.86294 0.0
O1097 O 0.72603 0.4241 0.86833 0.0
N1098 N 0.72493 0.38651 0.81889 0.0
C1099 C 0.75461 0.34931 0.83087 0.0
C1100 C 0.7512 0.37374 0.81292 0.0
C1101 C 0.71291 0.36952 0.84032 0.0
N1102 N 0.73039 0.34694 0.84799 0.0
O1103 O 0.67111 0.38554 0.79708 0.0
H1104 H 0.76618 0.38049 0.79565 0.0
H1105 H 0.69084 0.37271 0.849 0.0
O1106 O 0.68788 0.43043 0.83691 0.0
C1107 C 0.67348 0.36815 0.77491 0.0
O1108 O 0.69654 0.37064 0.75744 0.0
N1109 N 0.73313 0.44113 0.79547 0.0
C1110 C 0.7541 0.4876 0.76093 0.0
C1111 C 0.7421 0.4929 0.78916 0.0
C1112 C 0.73171 0.46928 0.80618 0.0
C1113 C 0.74846 0.43531 0.7702 0.0
C1114 C 0.75938 0.45823 0.75269 0.0
H1115 H 0.71872 0.47438 0.82547 0.0
H1116 H 0.748 0.41331 0.76096 0.0
H1117 H 0.66153 0.46884 0.8117 0.0
H1118 H 0.62493 0.44616 0.73072 0.0
H1119 H 0.7731 0.33413 0.83082 0.0
H1120 H 0.73724 0.51513 0.79652 0.0
H1121 H 0.76878 0.45301 0.73132 0.0
C1122 C 0.8147 0.41711 0.00078 0.0
C1123 C 0.79862 0.3917 0.99707 0.0
N1124 N 0.7812 0.38816 0.02082 0.0
N1125 N 0.80907 0.42829 0.0278 0.0
C1126 C 0.78779 0.41069 0.03902 0.0
H1127 H 0.83231 0.42436 0.98645 0.0
Co1128 Co 0.83527 0.45221 0.04849 0.0
C1129 C 0.8163 0.44888 0.11297 0.0
O1130 O 0.82512 0.47598 0.11837 0.0
N1131 N 0.86271 0.47491 0.06895 0.0
C1132 C 0.89992 0.50461 0.08096 0.0
C1133 C 0.87549 0.50119 0.06299 0.0
C1134 C 0.8797 0.46289 0.09038 0.0
N1135 N 0.90229 0.48038 0.09808 0.0
O1136 O 0.86367 0.4211 0.04712 0.0
H1137 H 0.86874 0.51618 0.04572 0.0
H1138 H 0.87651 0.44082 0.09906 0.0
O1139 O 0.81878 0.43784 0.08693 0.0
C1140 C 0.88106 0.42348 0.02496 0.0
O1141 O 0.87857 0.44655 0.0075 0.0
N1142 N 0.8081 0.48309 0.0455 0.0
C1143 C 0.76163 0.50409 0.01094 0.0
C1144 C 0.75633 0.49207 0.03916 0.0
C1145 C 0.77994 0.48166 0.05619 0.0
C1146 C 0.81392 0.49843 0.02024 0.0
C1147 C 0.791 0.50937 0.00272 0.0
H1148 H 0.77484 0.46865 0.07546 0.0
H1149 H 0.83592 0.49798 0.01102 0.0
H1150 H 0.78037 0.41147 0.06169 0.0
H1151 H 0.80303 0.37492 0.98071 0.0
H1152 H 0.9151 0.52311 0.08093 0.0
H1153 H 0.7341 0.4872 0.04651 0.0
H1154 H 0.79623 0.51878 0.98137 0.0
C1155 C 0.83189 0.56458 0.25084 0.0
C1156 C 0.85729 0.54851 0.24714 0.0
N1157 N 0.86084 0.5311 0.27091 0.0
N1158 N 0.82071 0.55895 0.27786 0.0
C1159 C 0.83831 0.53769 0.2891 0.0
H1160 H 0.82464 0.58217 0.2365 0.0
Co1161 Co 0.7968 0.58515 0.29853 0.0
C1162 C 0.80014 0.56621 0.36301 0.0
O1163 O 0.77305 0.57502 0.3684 0.0
N1164 N 0.7741 0.61258 0.31896 0.0
C1165 C 0.74441 0.64978 0.33095 0.0
C1166 C 0.74783 0.62535 0.31299 0.0
C1167 C 0.78613 0.62959 0.3404 0.0
N1168 N 0.76865 0.65217 0.34808 0.0
O1169 O 0.82792 0.61356 0.29716 0.0
H1170 H 0.73284 0.61858 0.29572 0.0
H1171 H 0.8082 0.62641 0.34908 0.0
O1172 O 0.81118 0.56869 0.33698 0.0
C1173 C 0.82553 0.63094 0.27499 0.0
O1174 O 0.80246 0.62843 0.25752 0.0
N1175 N 0.76592 0.55796 0.29553 0.0
C1176 C 0.74501 0.51147 0.26093 0.0
C1177 C 0.757 0.50618 0.28917 0.0
C1178 C 0.76736 0.52981 0.30622 0.0
C1179 C 0.75059 0.56376 0.27025 0.0
C1180 C 0.7397 0.54083 0.25271 0.0
H1181 H 0.78035 0.52472 0.32552 0.0
H1182 H 0.75103 0.58577 0.26103 0.0
H1183 H 0.83754 0.53028 0.31177 0.0
H1184 H 0.87407 0.55292 0.23079 0.0
H1185 H 0.72592 0.66495 0.3309 0.0
H1186 H 0.76188 0.48395 0.29652 0.0
H1187 H 0.7303 0.54604 0.23133 0.0
C1188 C 0.68444 0.41721 0.99837 0.0
C1189 C 0.7005 0.3918 0.00207 0.0
N1190 N 0.71792 0.38827 0.97831 0.0
N1191 N 0.69008 0.4284 0.97137 0.0
C1192 C 0.71134 0.4108 0.96013 0.0
H1193 H 0.66684 0.42446 0.01271 0.0
Co1194 Co 0.6639 0.45233 0.95069 0.0
C1195 C 0.68286 0.44901 0.88622 0.0
O1196 O 0.67405 0.47611 0.88084 0.0
N1197 N 0.63648 0.47504 0.93026 0.0
C1198 C 0.59929 0.50474 0.91828 0.0
C1199 C 0.62372 0.50131 0.93624 0.0
C1200 C 0.61948 0.46303 0.90882 0.0
N1201 N 0.5969 0.48052 0.90114 0.0
O1202 O 0.63547 0.42122 0.95204 0.0
H1203 H 0.63048 0.5163 0.95352 0.0
H1204 H 0.62265 0.44096 0.90012 0.0
O1205 O 0.68037 0.43796 0.91224 0.0
C1206 C 0.61809 0.4236 0.9742 0.0
O1207 O 0.62059 0.44667 0.99168 0.0
N1208 N 0.6911 0.4832 0.95372 0.0
C1209 C 0.73759 0.50411 0.98831 0.0
C1210 C 0.74288 0.49212 0.96007 0.0
C1211 C 0.71925 0.48176 0.94302 0.0
C1212 C 0.6853 0.49852 0.979 0.0
C1213 C 0.70823 0.50941 0.99654 0.0
H1214 H 0.72433 0.46877 0.92372 0.0
H1215 H 0.66329 0.49808 0.98822 0.0
H1216 H 0.71875 0.41158 0.93745 0.0
H1217 H 0.69609 0.37502 0.01841 0.0
H1218 H 0.58413 0.52325 0.91833 0.0
H1219 H 0.7651 0.48724 0.95271 0.0
H1220 H 0.70302 0.51881 0.01791 0.0
C1221 C 0.83202 0.43434 0.24841 0.0
C1222 C 0.85744 0.45041 0.25212 0.0
N1223 N 0.86097 0.46784 0.22837 0.0
N1224 N 0.82083 0.43999 0.2214 0.0
C1225 C 0.83843 0.46126 0.21017 0.0
H1226 H 0.82477 0.41673 0.26273 0.0
Co1227 Co 0.7969 0.4138 0.2007 0.0
C1228 C 0.8002 0.43279 0.13623 0.0
O1229 O 0.77311 0.42397 0.13084 0.0
N1230 N 0.77418 0.38637 0.18024 0.0
C1231 C 0.74447 0.34917 0.16823 0.0
C1232 C 0.7479 0.3736 0.1862 0.0
C1233 C 0.78619 0.36939 0.1588 0.0
N1234 N 0.76869 0.34681 0.1511 0.0
O1235 O 0.828 0.38539 0.20205 0.0
H1236 H 0.73292 0.38035 0.20348 0.0
H1237 H 0.80826 0.37257 0.15012 0.0
O1238 O 0.81126 0.43029 0.16226 0.0
C1239 C 0.82562 0.36799 0.2242 0.0
O1240 O 0.80256 0.37048 0.24167 0.0
N1241 N 0.76602 0.44097 0.20372 0.0
C1242 C 0.74504 0.48742 0.23829 0.0
C1243 C 0.75705 0.49274 0.21008 0.0
C1244 C 0.76746 0.46913 0.19303 0.0
C1245 C 0.75069 0.43515 0.22898 0.0
C1246 C 0.73976 0.45805 0.24651 0.0
H1247 H 0.78046 0.47424 0.17376 0.0
H1248 H 0.75114 0.41314 0.2382 0.0
H1249 H 0.83765 0.46868 0.1875 0.0
H1250 H 0.87422 0.446 0.26847 0.0
H1251 H 0.72596 0.334 0.16826 0.0
H1252 H 0.76192 0.51498 0.20274 0.0
H1253 H 0.73034 0.45282 0.26786 0.0
C1254 C 0.81471 0.58198 0.49845 0.0
C1255 C 0.79864 0.60739 0.50214 0.0
N1256 N 0.78121 0.6109 0.47839 0.0
N1257 N 0.80906 0.57078 0.47144 0.0
C1258 C 0.78778 0.58837 0.4602 0.0
H1259 H 0.83232 0.57474 0.51279 0.0
Co1260 Co 0.83524 0.54685 0.45076 0.0
C1261 C 0.81624 0.55013 0.38629 0.0
O1262 O 0.82504 0.52303 0.38091 0.0
N1263 N 0.86265 0.52414 0.43033 0.0
C1264 C 0.89985 0.49444 0.41834 0.0
C1265 C 0.87543 0.49787 0.4363 0.0
C1266 C 0.87964 0.53615 0.40889 0.0
N1267 N 0.90221 0.51866 0.40121 0.0
O1268 O 0.86365 0.57797 0.45212 0.0
H1269 H 0.86868 0.48289 0.45358 0.0
H1270 H 0.87645 0.55821 0.4002 0.0
O1271 O 0.81874 0.5612 0.41231 0.0
C1272 C 0.88105 0.5756 0.47428 0.0
O1273 O 0.87856 0.55254 0.49176 0.0
N1274 N 0.80805 0.51597 0.45377 0.0
C1275 C 0.76158 0.49503 0.48833 0.0
C1276 C 0.75627 0.50701 0.4601 0.0
C1277 C 0.77989 0.51739 0.44307 0.0
C1278 C 0.81386 0.50065 0.47905 0.0
C1279 C 0.79095 0.48974 0.49657 0.0
H1280 H 0.77479 0.53038 0.42378 0.0
H1281 H 0.83587 0.5011 0.48828 0.0
H1282 H 0.78035 0.58757 0.43753 0.0
H1283 H 0.80306 0.62418 0.5185 0.0
H1284 H 0.91501 0.47595 0.41839 0.0
H1285 H 0.73404 0.51188 0.45274 0.0
H1286 H 0.79617 0.48035 0.51794 0.0
C1287 C 0.66718 0.56477 0.74842 0.0
C1288 C 0.64177 0.5487 0.75211 0.0
N1289 N 0.63823 0.53127 0.72835 0.0
N1290 N 0.67837 0.55912 0.72142 0.0
C1291 C 0.66076 0.53785 0.71017 0.0
H1292 H 0.67443 0.58237 0.76277 0.0
Co1293 Co 0.7023 0.58531 0.70075 0.0
C1294 C 0.69897 0.56632 0.63627 0.0
O1295 O 0.72607 0.57513 0.63089 0.0
N1296 N 0.72502 0.61273 0.68032 0.0
C1297 C 0.75473 0.64992 0.66834 0.0
C1298 C 0.7513 0.6255 0.6863 0.0
C1299 C 0.71301 0.62972 0.65888 0.0
N1300 N 0.73051 0.65229 0.65121 0.0
O1301 O 0.6712 0.61372 0.70211 0.0
H1302 H 0.76628 0.61875 0.70358 0.0
H1303 H 0.69094 0.62653 0.65019 0.0
O1304 O 0.68792 0.56882 0.6623 0.0
C1305 C 0.67359 0.63111 0.72428 0.0
O1306 O 0.69665 0.62862 0.74176 0.0
N1307 N 0.73317 0.55812 0.70376 0.0
C1308 C 0.7541 0.51165 0.73831 0.0
C1309 C 0.7421 0.50634 0.71008 0.0
C1310 C 0.73172 0.52996 0.69304 0.0
C1311 C 0.74851 0.56393 0.72903 0.0
C1312 C 0.75941 0.54101 0.74655 0.0
H1313 H 0.71872 0.52487 0.67376 0.0
H1314 H 0.74807 0.58594 0.73827 0.0
H1315 H 0.66154 0.53042 0.6875 0.0
H1316 H 0.62499 0.55311 0.76846 0.0
H1317 H 0.77324 0.66509 0.66839 0.0
H1318 H 0.73722 0.48411 0.70271 0.0
H1319 H 0.76882 0.54623 0.76792 0.0
C1320 C 0.50085 0.6845 0.58203 0.0
C1321 C 0.4972 0.70063 0.60741 0.0
N1322 N 0.52093 0.71812 0.61087 0.0
N1323 N 0.52783 0.69014 0.57079 0.0
C1324 C 0.53908 0.71147 0.58833 0.0
H1325 H 0.48652 0.66685 0.57486 0.0
Co1326 Co 0.54849 0.66392 0.54688 0.0
C1327 C 0.61299 0.68288 0.55022 0.0
O1328 O 0.61838 0.67403 0.52314 0.0
N1329 N 0.56891 0.63647 0.52419 0.0
C1330 C 0.58087 0.59925 0.4945 0.0
C1331 C 0.56293 0.62368 0.49792 0.0
C1332 C 0.59033 0.61948 0.53622 0.0
N1333 N 0.598 0.59688 0.51873 0.0
O1334 O 0.54712 0.63553 0.57801 0.0
H1335 H 0.54566 0.63044 0.48292 0.0
H1336 H 0.59902 0.62267 0.55829 0.0
O1337 O 0.58695 0.6804 0.56126 0.0
C1338 C 0.52495 0.61813 0.57561 0.0
O1339 O 0.50748 0.62062 0.55254 0.0
N1340 N 0.5455 0.69108 0.51599 0.0
C1341 C 0.51096 0.73754 0.49501 0.0
C1342 C 0.53919 0.74285 0.50701 0.0
C1343 C 0.55622 0.71923 0.51741 0.0
C1344 C 0.52022 0.68526 0.50065 0.0
C1345 C 0.50271 0.70817 0.48973 0.0
H1346 H 0.57551 0.72434 0.5304 0.0
H1347 H 0.51098 0.66325 0.50111 0.0
H1348 H 0.56175 0.7189 0.5875 0.0
H1349 H 0.48091 0.69619 0.62424 0.0
H1350 H 0.58082 0.58407 0.476 0.0
H1351 H 0.54656 0.76508 0.51188 0.0
H1352 H 0.48134 0.70294 0.48031 0.0
C1353 C 0.00081 0.81467 0.41705 0.0
C1354 C 0.99714 0.79854 0.39167 0.0
N1355 N 0.02085 0.78105 0.38821 0.0
N1356 N 0.0278 0.80903 0.42829 0.0
C1357 C 0.03902 0.7877 0.41076 0.0
H1358 H 0.98649 0.83231 0.42422 0.0
Co1359 Co 0.04848 0.83525 0.4522 0.0
C1360 C 0.11296 0.8163 0.44888 0.0
O1361 O 0.11837 0.82514 0.47597 0.0
N1362 N 0.06893 0.86271 0.4749 0.0
C1363 C 0.08092 0.89993 0.50459 0.0
C1364 C 0.06296 0.87549 0.50117 0.0
C1365 C 0.09035 0.8797 0.46288 0.0
N1366 N 0.09804 0.90229 0.48036 0.0
O1367 O 0.04711 0.86364 0.42107 0.0
H1368 H 0.0457 0.86874 0.51616 0.0
H1369 H 0.09903 0.8765 0.44081 0.0
O1370 O 0.08692 0.81877 0.43784 0.0
C1371 C 0.02496 0.88103 0.42346 0.0
O1372 O 0.0075 0.87855 0.44653 0.0
N1373 N 0.04548 0.8081 0.4831 0.0
C1374 C 0.01094 0.76164 0.50411 0.0
C1375 C 0.03915 0.75633 0.4921 0.0
C1376 C 0.05619 0.77994 0.48169 0.0
C1377 C 0.02022 0.81392 0.49843 0.0
C1378 C 0.00271 0.79101 0.50937 0.0
H1379 H 0.07547 0.77484 0.4687 0.0
H1380 H 0.01099 0.83593 0.49796 0.0
H1381 H 0.06169 0.78028 0.41158 0.0
H1382 H 0.98083 0.80296 0.37484 0.0
H1383 H 0.08089 0.9151 0.52308 0.0
H1384 H 0.04651 0.7341 0.48725 0.0
H1385 H 0.98135 0.79624 0.51879 0.0
C1386 C 0.43449 0.75076 0.66712 0.0
C1387 C 0.45057 0.74707 0.64171 0.0
N1388 N 0.468 0.77083 0.6382 0.0
N1389 N 0.44014 0.77778 0.67832 0.0
C1390 C 0.46142 0.78902 0.66074 0.0
H1391 H 0.41689 0.73642 0.67435 0.0
Co1392 Co 0.41394 0.79845 0.70223 0.0
C1393 C 0.43292 0.86293 0.69894 0.0
O1394 O 0.4241 0.86832 0.72603 0.0
N1395 N 0.38651 0.81888 0.72493 0.0
C1396 C 0.3493 0.83084 0.75461 0.0
C1397 C 0.37373 0.81289 0.75119 0.0
C1398 C 0.36952 0.8403 0.71291 0.0
N1399 N 0.34693 0.84797 0.73038 0.0
O1400 O 0.38554 0.79707 0.6711 0.0
H1401 H 0.38048 0.79562 0.76618 0.0
H1402 H 0.37271 0.84899 0.69084 0.0
O1403 O 0.43043 0.8369 0.68788 0.0
C1404 C 0.36814 0.77491 0.67347 0.0
O1405 O 0.37063 0.75744 0.69653 0.0
N1406 N 0.44112 0.79546 0.73312 0.0
C1407 C 0.4876 0.76093 0.75411 0.0
C1408 C 0.4929 0.78915 0.74211 0.0
C1409 C 0.46928 0.80617 0.73171 0.0
C1410 C 0.43531 0.77019 0.74845 0.0
C1411 C 0.45823 0.75268 0.75938 0.0
H1412 H 0.47437 0.82546 0.71872 0.0
H1413 H 0.41331 0.76094 0.74799 0.0
H1414 H 0.46884 0.81169 0.66153 0.0
H1415 H 0.44615 0.73072 0.62492 0.0
H1416 H 0.33412 0.83079 0.77309 0.0
H1417 H 0.51512 0.79652 0.73725 0.0
H1418 H 0.45301 0.73131 0.76878 0.0
C1419 C 0.49825 0.18456 0.91717 0.0
C1420 C 0.50191 0.20068 0.8918 0.0
N1421 N 0.47818 0.21815 0.88833 0.0
N1422 N 0.47126 0.19019 0.92841 0.0
C1423 C 0.46002 0.2115 0.91087 0.0
H1424 H 0.51258 0.16692 0.92434 0.0
Co1425 Co 0.4506 0.16397 0.95231 0.0
C1426 C 0.38611 0.18289 0.94898 0.0
O1427 O 0.38072 0.17406 0.97606 0.0
N1428 N 0.43018 0.13652 0.975 0.0
C1429 C 0.41821 0.09931 0.00468 0.0
C1430 C 0.43616 0.12375 0.00127 0.0
C1431 C 0.40875 0.11951 0.96297 0.0
N1432 N 0.40108 0.09692 0.98045 0.0
O1433 O 0.45197 0.13557 0.92118 0.0
H1434 H 0.45343 0.13052 0.01626 0.0
H1435 H 0.40006 0.12269 0.9409 0.0
O1436 O 0.41215 0.18043 0.93794 0.0
C1437 C 0.47413 0.11818 0.92357 0.0
O1438 O 0.4916 0.12069 0.94664 0.0
N1439 N 0.4536 0.19114 0.98321 0.0
C1440 C 0.48818 0.23763 0.00413 0.0
C1441 C 0.45994 0.24292 0.99216 0.0
C1442 C 0.44289 0.21929 0.98179 0.0
C1443 C 0.47889 0.18534 0.99853 0.0
C1444 C 0.49642 0.20827 0.00943 0.0
H1445 H 0.42359 0.22438 0.96881 0.0
H1446 H 0.48812 0.16334 0.99807 0.0
H1447 H 0.43735 0.21891 0.91169 0.0
H1448 H 0.5182 0.19625 0.87497 0.0
H1449 H 0.41827 0.08414 0.02318 0.0
H1450 H 0.45258 0.26515 0.98729 0.0
H1451 H 0.5178 0.20306 0.01882 0.0
C1452 C 0.56477 0.74842 0.66718 0.0
C1453 C 0.5487 0.75211 0.64177 0.0
N1454 N 0.53127 0.72835 0.63824 0.0
N1455 N 0.55912 0.72142 0.67837 0.0
C1456 C 0.53785 0.71017 0.66077 0.0
H1457 H 0.58238 0.76277 0.67443 0.0
Co1458 Co 0.58531 0.70075 0.70231 0.0
C1459 C 0.56632 0.63627 0.69898 0.0
O1460 O 0.57514 0.63089 0.72607 0.0
N1461 N 0.61273 0.68033 0.72502 0.0
C1462 C 0.64994 0.66836 0.75473 0.0
C1463 C 0.62551 0.68631 0.7513 0.0
C1464 C 0.62972 0.65889 0.71301 0.0
N1465 N 0.6523 0.65122 0.7305 0.0
O1466 O 0.61372 0.70211 0.6712 0.0
H1467 H 0.61876 0.70359 0.76628 0.0
H1468 H 0.62654 0.6502 0.69094 0.0
O1469 O 0.56882 0.6623 0.68793 0.0
C1470 C 0.63112 0.72427 0.67359 0.0
O1471 O 0.62864 0.74175 0.69665 0.0
N1472 N 0.55812 0.70376 0.73317 0.0
C1473 C 0.51165 0.73831 0.75411 0.0
C1474 C 0.50635 0.71007 0.74211 0.0
C1475 C 0.52997 0.69304 0.73173 0.0
C1476 C 0.56393 0.72904 0.74851 0.0
C1477 C 0.54101 0.74656 0.75941 0.0
H1478 H 0.52487 0.67375 0.71873 0.0
H1479 H 0.58594 0.73828 0.74807 0.0
H1480 H 0.53042 0.6875 0.66155 0.0
H1481 H 0.55311 0.76846 0.62499 0.0
H1482 H 0.66511 0.66841 0.77323 0.0
H1483 H 0.48412 0.7027 0.73723 0.0
H1484 H 0.54623 0.76793 0.76883 0.0
C1485 C 0.99835 0.31462 0.08199 0.0
C1486 C 0.00205 0.29854 0.10739 0.0
N1487 N 0.97829 0.28111 0.1109 0.0
N1488 N 0.97135 0.30898 0.07078 0.0
C1489 C 0.9601 0.2877 0.08836 0.0
H1490 H 0.01269 0.33223 0.07476 0.0
Co1491 Co 0.95068 0.33518 0.04687 0.0
C1492 C 0.88619 0.3162 0.05016 0.0
O1493 O 0.8808 0.32503 0.02307 0.0
N1494 N 0.93025 0.36261 0.02417 0.0
C1495 C 0.91828 0.39983 0.9945 0.0
C1496 C 0.93623 0.37539 0.99791 0.0
C1497 C 0.90882 0.3796 0.0362 0.0
N1498 N 0.90115 0.40219 0.01872 0.0
O1499 O 0.95205 0.36358 0.078 0.0
H1500 H 0.9535 0.36864 0.98292 0.0
H1501 H 0.90013 0.37641 0.05826 0.0
O1502 O 0.91222 0.31869 0.06122 0.0
C1503 C 0.97422 0.38098 0.07563 0.0
O1504 O 0.99169 0.37849 0.05257 0.0
N1505 N 0.95367 0.308 0.01598 0.0
C1506 C 0.9882 0.26152 0.99501 0.0
C1507 C 0.95998 0.25622 0.007 0.0
C1508 C 0.94295 0.27984 0.01739 0.0
C1509 C 0.97894 0.31381 0.00065 0.0
C1510 C 0.99645 0.29089 0.98973 0.0
H1511 H 0.92366 0.27475 0.03038 0.0
H1512 H 0.98818 0.33582 0.00111 0.0
H1513 H 0.93743 0.28027 0.08756 0.0
H1514 H 0.01839 0.30297 0.12418 0.0
H1515 H 0.91833 0.415 0.97601 0.0
H1516 H 0.95261 0.23399 0.01186 0.0
H1517 H 0.01782 0.29611 0.98033 0.0
C1518 C 0.43434 0.2484 0.83202 0.0
C1519 C 0.45042 0.25211 0.85744 0.0
N1520 N 0.46784 0.22837 0.86097 0.0
N1521 N 0.43998 0.2214 0.82083 0.0
C1522 C 0.46126 0.21017 0.83843 0.0
H1523 H 0.41673 0.26273 0.82477 0.0
Co1524 Co 0.41379 0.2007 0.7969 0.0
C1525 C 0.43278 0.13623 0.8002 0.0
O1526 O 0.42395 0.13083 0.77311 0.0
N1527 N 0.38636 0.18025 0.77418 0.0
C1528 C 0.34916 0.16825 0.74447 0.0
C1529 C 0.37359 0.18622 0.74791 0.0
C1530 C 0.36937 0.15881 0.78619 0.0
N1531 N 0.34679 0.15112 0.7687 0.0
O1532 O 0.38539 0.20205 0.82801 0.0
H1533 H 0.38034 0.20349 0.73292 0.0
H1534 H 0.37256 0.15013 0.80826 0.0
O1535 O 0.43029 0.16226 0.81126 0.0
C1536 C 0.36799 0.22421 0.82562 0.0
O1537 O 0.37048 0.24168 0.80256 0.0
N1538 N 0.44097 0.20372 0.76602 0.0
C1539 C 0.48742 0.23829 0.74504 0.0
C1540 C 0.49274 0.21007 0.75705 0.0
C1541 C 0.46912 0.19303 0.76745 0.0
C1542 C 0.43514 0.22898 0.75069 0.0
C1543 C 0.45805 0.24651 0.73976 0.0
H1544 H 0.47423 0.17376 0.78045 0.0
H1545 H 0.41313 0.2382 0.75114 0.0
H1546 H 0.46868 0.1875 0.83765 0.0
H1547 H 0.446 0.26847 0.87422 0.0
H1548 H 0.33398 0.16828 0.72597 0.0
H1549 H 0.51497 0.20273 0.76191 0.0
H1550 H 0.45282 0.26787 0.73034 0.0
C1551 C 0.06465 0.75075 0.3319 0.0
C1552 C 0.04858 0.74706 0.35731 0.0
N1553 N 0.03117 0.77082 0.36085 0.0
N1554 N 0.05901 0.77776 0.32072 0.0
C1555 C 0.03775 0.789 0.33832 0.0
H1556 H 0.08225 0.73641 0.32465 0.0
Co1557 Co 0.0852 0.79843 0.29679 0.0
C1558 C 0.06625 0.86291 0.3001 0.0
O1559 O 0.07506 0.86829 0.27301 0.0
N1560 N 0.11263 0.81886 0.27408 0.0
C1561 C 0.14982 0.83083 0.24438 0.0
C1562 C 0.12539 0.81287 0.2478 0.0
C1563 C 0.12963 0.84029 0.28609 0.0
N1564 N 0.15221 0.84797 0.2686 0.0
O1565 O 0.11362 0.79708 0.3279 0.0
H1566 H 0.11862 0.79559 0.23282 0.0
H1567 H 0.12646 0.84899 0.30816 0.0
O1568 O 0.06873 0.83688 0.31115 0.0
C1569 C 0.13101 0.77492 0.32552 0.0
O1570 O 0.1285 0.75744 0.30245 0.0
N1571 N 0.05801 0.79541 0.26591 0.0
C1572 C 0.01151 0.76082 0.24501 0.0
C1573 C 0.00622 0.78905 0.25699 0.0
C1574 C 0.02985 0.80611 0.26735 0.0
C1575 C 0.0638 0.77012 0.25059 0.0
C1576 C 0.04087 0.75258 0.2397 0.0
H1577 H 0.02477 0.8254 0.28034 0.0
H1578 H 0.08581 0.7609 0.25103 0.0
H1579 H 0.03034 0.81167 0.33753 0.0
H1580 H 0.053 0.73071 0.37409 0.0
H1581 H 0.16498 0.83078 0.22588 0.0
H1582 H 0.984 0.79641 0.26187 0.0
H1583 H 0.04609 0.73121 0.2303 0.0
loop_
_geom_bond_atom_site_label_1
_geom_bond_atom_site_label_2
_geom_bond_distance
_geom_bond_site_symmetry_2
_ccdc_geom_bond_type
C0 C1 1.351 . S
C0 N3 1.368 . S
C0 H5 0.931 . S
C1 C0 1.351 . S
C1 N2 1.373 . S
C1 H29 0.930 1_545 S
N2 C1 1.373 . S
N2 C4 1.340 . S
N3 C0 1.368 . S
N3 C4 1.321 . S
N3 Co6 2.135 . S
C4 N2 1.340 . S
C4 N3 1.321 . S
C4 H28 0.930 . S
H5 C0 0.931 . S
Co6 N3 2.135 . S
Co6 N9 2.121 . S
Co6 O14 2.055 . S
Co6 O17 2.039 . S
Co6 N20 2.140 . S
C7 O8 1.227 . S
C7 O17 1.265 . S
O8 C7 1.227 . S
N9 Co6 2.121 . S
N9 C11 1.375 1_455 S
N9 C12 1.313 . S
C10 C11 1.338 . S
C10 N13 1.377 . S
C10 H30 0.930 . S
C11 N9 1.375 1_655 S
C11 C10 1.338 . S
C11 H15 0.931 . S
C12 N9 1.313 . S
C12 N13 1.344 1_455 S
C12 H16 0.930 . S
N13 C10 1.377 . S
N13 C12 1.344 1_655 S
O14 Co6 2.055 . S
O14 C18 1.253 . S
H15 C11 0.931 . S
H16 C12 0.930 . S
O17 Co6 2.039 . S
O17 C7 1.265 . S
C18 O14 1.253 . S
C18 O19 1.227 . S
O19 C18 1.227 . S
N20 Co6 2.140 . S
N20 C23 1.346 . S
N20 C24 1.345 . S
C21 C22 1.402 1_565 S
C21 C25 1.387 1_455 S
C22 C21 1.402 1_545 S
C22 C23 1.369 . S
C22 H31 0.929 . S
C23 N20 1.346 . S
C23 C22 1.369 . S
C23 H26 0.928 . S
C24 N20 1.345 . S
C24 C25 1.371 1_445 S
C24 H27 0.931 . S
C25 C21 1.387 1_655 S
C25 C24 1.371 1_665 S
C25 H32 0.930 . S
H26 C23 0.928 . S
H27 C24 0.931 . S
H28 C4 0.930 . S
H29 C1 0.930 1_565 S
H30 C10 0.930 . S
H31 C22 0.929 . S
H32 C25 0.930 . S
C33 C34 1.351 . S
C33 N36 1.368 . S
C33 H38 0.931 . S
C34 C33 1.351 . S
C34 N35 1.373 . S
C34 H62 0.930 . S
N35 C34 1.373 . S
N35 C37 1.340 . S
N36 C33 1.368 . S
N36 C37 1.321 . S
N36 Co39 2.135 . S
C37 N35 1.340 . S
C37 N36 1.321 . S
C37 H61 0.930 . S
H38 C33 0.931 . S
Co39 N36 2.135 . S
Co39 N42 2.121 . S
Co39 O47 2.055 . S
Co39 O50 2.039 . S
Co39 N53 2.140 . S
C40 O41 1.227 . S
C40 O50 1.265 . S
O41 C40 1.227 . S
N42 Co39 2.121 . S
N42 C44 1.375 . S
N42 C45 1.313 . S
C43 C44 1.338 . S
C43 N46 1.377 . S
C43 H63 0.930 . S
C44 N42 1.375 . S
C44 C43 1.338 . S
C44 H48 0.931 . S
C45 N42 1.313 . S
C45 N46 1.344 . S
C45 H49 0.930 . S
N46 C43 1.377 . S
N46 C45 1.344 . S
O47 Co39 2.055 . S
O47 C51 1.253 . S
H48 C44 0.931 . S
H49 C45 0.930 . S
O50 Co39 2.039 . S
O50 C40 1.265 . S
C51 O47 1.253 . S
C51 O52 1.227 . S
O52 C51 1.227 . S
N53 Co39 2.140 . S
N53 C56 1.346 . S
N53 C57 1.345 . S
C54 C55 1.387 . S
C54 C58 1.391 . S
C55 C54 1.387 . S
C55 C56 1.369 . S
C55 H64 0.929 . S
C56 N53 1.346 . S
C56 C55 1.369 . S
C56 H59 0.928 . S
C57 N53 1.345 . S
C57 C58 1.371 . S
C57 H60 0.931 . S
C58 C54 1.391 . S
C58 C57 1.371 . S
C58 H65 0.930 . S
H59 C56 0.928 . S
H60 C57 0.931 . S
H61 C37 0.930 . S
H62 C34 0.930 . S
H63 C43 0.930 . S
H64 C55 0.929 . S
H65 C58 0.930 . S
C66 C67 1.351 . S
C66 N69 1.368 . S
C66 H71 0.931 . S
C67 C66 1.351 . S
C67 N68 1.373 . S
C67 H95 0.930 1_565 S
N68 C67 1.373 . S
N68 C70 1.340 . S
N69 C66 1.368 . S
N69 C70 1.321 . S
N69 Co72 2.135 . S
C70 N68 1.340 . S
C70 N69 1.321 . S
C70 H94 0.930 . S
H71 C66 0.931 . S
Co72 N69 2.135 . S
Co72 N75 2.121 . S
Co72 O80 2.055 . S
Co72 O83 2.039 . S
Co72 N86 2.140 . S
C73 O74 1.227 . S
C73 O83 1.265 . S
O74 C73 1.227 . S
N75 Co72 2.121 . S
N75 C77 1.375 . S
N75 C78 1.313 . S
C76 C77 1.338 . S
C76 N79 1.377 . S
C76 H96 0.930 . S
C77 N75 1.375 . S
C77 C76 1.338 . S
C77 H81 0.931 . S
C78 N75 1.313 . S
C78 N79 1.344 . S
C78 H82 0.930 . S
N79 C76 1.377 . S
N79 C78 1.344 . S
O80 Co72 2.055 . S
O80 C84 1.253 . S
H81 C77 0.931 . S
H82 C78 0.930 . S
O83 Co72 2.039 . S
O83 C73 1.265 . S
C84 O80 1.253 . S
C84 O85 1.227 . S
O85 C84 1.227 . S
N86 Co72 2.140 . S
N86 C89 1.346 . S
N86 C90 1.345 . S
C87 C88 1.387 1_545 S
C87 C91 1.391 . S
C88 C87 1.387 1_565 S
C88 C89 1.369 . S
C88 H97 0.929 . S
C89 N86 1.346 . S
C89 C88 1.369 . S
C89 H92 0.928 . S
C90 N86 1.345 . S
C90 C91 1.371 1_565 S
C90 H93 0.931 . S
C91 C87 1.391 . S
C91 C90 1.371 1_545 S
C91 H98 0.930 . S
H92 C89 0.928 . S
H93 C90 0.931 . S
H94 C70 0.930 . S
H95 C67 0.930 1_545 S
H96 C76 0.930 . S
H97 C88 0.929 . S
H98 C91 0.930 . S
C99 C100 1.351 . S
C99 N102 1.368 . S
C99 H104 0.931 . S
C100 C99 1.351 . S
C100 N101 1.373 . S
C100 H128 0.930 . S
N101 C100 1.373 . S
N101 C103 1.340 . S
N102 C99 1.368 . S
N102 C103 1.321 . S
N102 Co105 2.135 . S
C103 N101 1.340 . S
C103 N102 1.321 . S
C103 H127 0.930 . S
H104 C99 0.931 . S
Co105 N102 2.135 . S
Co105 N108 2.121 . S
Co105 O113 2.055 . S
Co105 O116 2.039 . S
Co105 N119 2.140 . S
C106 O107 1.227 . S
C106 O116 1.265 . S
O107 C106 1.227 . S
N108 Co105 2.121 . S
N108 C110 1.375 . S
N108 C111 1.313 . S
C109 C110 1.338 . S
C109 N112 1.377 . S
C109 H129 0.930 . S
C110 N108 1.375 . S
C110 C109 1.338 . S
C110 H114 0.931 . S
C111 N108 1.313 . S
C111 N112 1.344 . S
C111 H115 0.930 . S
N112 C109 1.377 . S
N112 C111 1.344 . S
O113 Co105 2.055 . S
O113 C117 1.253 . S
H114 C110 0.931 . S
H115 C111 0.930 . S
O116 Co105 2.039 . S
O116 C106 1.265 . S
C117 O113 1.253 . S
C117 O118 1.227 . S
O118 C117 1.227 . S
N119 Co105 2.140 . S
N119 C122 1.346 . S
N119 C123 1.345 . S
C120 C121 1.387 . S
C120 C124 1.391 . S
C121 C120 1.387 . S
C121 C122 1.369 . S
C121 H130 0.929 . S
C122 N119 1.346 . S
C122 C121 1.369 . S
C122 H125 0.928 . S
C123 N119 1.345 . S
C123 C124 1.371 . S
C123 H126 0.931 . S
C124 C120 1.391 . S
C124 C123 1.371 . S
C124 H131 0.930 . S
H125 C122 0.928 . S
H126 C123 0.931 . S
H127 C103 0.930 . S
H128 C100 0.930 . S
H129 C109 0.930 . S
H130 C121 0.929 . S
H131 C124 0.930 . S
C132 C133 1.351 . S
C132 N135 1.368 . S
C132 H137 0.931 . S
C133 C132 1.351 . S
C133 N134 1.373 . S
C133 H161 0.930 1_565 S
N134 C133 1.373 . S
N134 C136 1.340 . S
N135 C132 1.368 . S
N135 C136 1.321 . S
N135 Co138 2.135 . S
C136 N134 1.340 . S
C136 N135 1.321 . S
C136 H160 0.930 . S
H137 C132 0.931 . S
Co138 N135 2.135 . S
Co138 N141 2.121 . S
Co138 O146 2.055 . S
Co138 O149 2.039 . S
Co138 N152 2.140 . S
C139 O140 1.227 . S
C139 O149 1.265 . S
O140 C139 1.227 . S
N141 Co138 2.121 . S
N141 C143 1.375 1_455 S
N141 C144 1.313 . S
C142 C143 1.338 . S
C142 N145 1.377 . S
C142 H162 0.930 . S
C143 N141 1.375 1_655 S
C143 C142 1.338 . S
C143 H147 0.931 . S
C144 N141 1.313 . S
C144 N145 1.344 1_455 S
C144 H148 0.930 . S
N145 C142 1.377 . S
N145 C144 1.344 1_655 S
O146 Co138 2.055 . S
O146 C150 1.253 . S
H147 C143 0.931 . S
H148 C144 0.930 . S
O149 Co138 2.039 . S
O149 C139 1.265 . S
C150 O146 1.253 . S
C150 O151 1.227 . S
O151 C150 1.227 . S
N152 Co138 2.140 . S
N152 C155 1.346 . S
N152 C156 1.345 . S
C153 C154 1.403 1_545 S
C153 C157 1.387 1_455 S
C154 C153 1.403 1_565 S
C154 C155 1.369 . S
C154 H163 0.929 . S
C155 N152 1.346 . S
C155 C154 1.369 . S
C155 H158 0.928 . S
C156 N152 1.345 . S
C156 C157 1.371 1_465 S
C156 H159 0.931 . S
C157 C153 1.387 1_655 S
C157 C156 1.371 1_645 S
C157 H164 0.930 . S
H158 C155 0.928 . S
H159 C156 0.931 . S
H160 C136 0.930 . S
H161 C133 0.930 1_545 S
H162 C142 0.930 . S
H163 C154 0.929 . S
H164 C157 0.930 . S
C165 C166 1.351 . S
C165 N168 1.368 . S
C165 H170 0.931 . S
C166 C165 1.351 . S
C166 N167 1.373 . S
C166 H194 0.930 . S
N167 C166 1.373 . S
N167 C169 1.340 . S
N168 C165 1.368 . S
N168 C169 1.321 . S
N168 Co171 2.135 . S
C169 N167 1.340 . S
C169 N168 1.321 . S
C169 H193 0.930 . S
H170 C165 0.931 . S
Co171 N168 2.135 . S
Co171 N174 2.121 . S
Co171 O179 2.055 . S
Co171 O182 2.039 . S
Co171 N185 2.140 . S
C172 O173 1.227 . S
C172 O182 1.265 . S
O173 C172 1.227 . S
N174 Co171 2.121 . S
N174 C176 1.375 . S
N174 C177 1.313 . S
C175 C176 1.338 . S
C175 N178 1.377 . S
C175 H195 0.930 . S
C176 N174 1.375 . S
C176 C175 1.338 . S
C176 H180 0.931 . S
C177 N174 1.313 . S
C177 N178 1.344 . S
C177 H181 0.930 . S
N178 C175 1.377 . S
N178 C177 1.344 . S
O179 Co171 2.055 . S
O179 C183 1.253 . S
H180 C176 0.931 . S
H181 C177 0.930 . S
O182 Co171 2.039 . S
O182 C172 1.265 . S
C183 O179 1.253 . S
C183 O184 1.227 . S
O184 C183 1.227 . S
N185 Co171 2.140 . S
N185 C188 1.346 . S
N185 C189 1.345 . S
C186 C187 1.387 . S
C186 C190 1.391 . S
C187 C186 1.387 . S
C187 C188 1.369 . S
C187 H196 0.929 . S
C188 N185 1.346 . S
C188 C187 1.369 . S
C188 H191 0.928 . S
C189 N185 1.345 . S
C189 C190 1.371 . S
C189 H192 0.931 . S
C190 C186 1.391 . S
C190 C189 1.371 . S
C190 H197 0.930 . S
H191 C188 0.928 . S
H192 C189 0.931 . S
H193 C169 0.930 . S
H194 C166 0.930 . S
H195 C175 0.930 . S
H196 C187 0.929 . S
H197 C190 0.930 . S
C198 C199 1.351 . S
C198 N201 1.368 . S
C198 H203 0.931 . S
C199 C198 1.351 . S
C199 N200 1.373 . S
C199 H227 0.930 1_545 S
N200 C199 1.373 . S
N200 C202 1.340 . S
N201 C198 1.368 . S
N201 C202 1.321 . S
N201 Co204 2.135 . S
C202 N200 1.340 . S
C202 N201 1.321 . S
C202 H226 0.930 . S
H203 C198 0.931 . S
Co204 N201 2.135 . S
Co204 N207 2.121 . S
Co204 O212 2.055 . S
Co204 O215 2.039 . S
Co204 N218 2.140 . S
C205 O206 1.227 . S
C205 O215 1.265 . S
O206 C205 1.227 . S
N207 Co204 2.121 . S
N207 C209 1.375 . S
N207 C210 1.313 . S
C208 C209 1.338 . S
C208 N211 1.377 . S
C208 H228 0.930 . S
C209 N207 1.375 . S
C209 C208 1.338 . S
C209 H213 0.931 . S
C210 N207 1.313 . S
C210 N211 1.344 . S
C210 H214 0.930 . S
N211 C208 1.377 . S
N211 C210 1.344 . S
O212 Co204 2.055 . S
O212 C216 1.253 . S
H213 C209 0.931 . S
H214 C210 0.930 . S
O215 Co204 2.039 . S
O215 C205 1.265 . S
C216 O212 1.253 . S
C216 O217 1.227 . S
O217 C216 1.227 . S
N218 Co204 2.140 . S
N218 C221 1.346 . S
N218 C222 1.345 . S
C219 C220 1.387 1_565 S
C219 C223 1.391 . S
C220 C219 1.387 1_545 S
C220 C221 1.369 . S
C220 H229 0.929 . S
C221 N218 1.346 . S
C221 C220 1.369 . S
C221 H224 0.928 . S
C222 N218 1.345 . S
C222 C223 1.371 1_545 S
C222 H225 0.931 . S
C223 C219 1.391 . S
C223 C222 1.371 1_565 S
C223 H230 0.930 . S
H224 C221 0.928 . S
H225 C222 0.931 . S
H226 C202 0.930 . S
H227 C199 0.930 1_565 S
H228 C208 0.930 . S
H229 C220 0.929 . S
H230 C223 0.930 . S
C231 C232 1.351 . S
C231 N234 1.368 . S
C231 H236 0.931 . S
C232 C231 1.351 . S
C232 N233 1.373 . S
C232 H260 0.930 . S
N233 C232 1.373 . S
N233 C235 1.340 . S
N234 C231 1.368 . S
N234 C235 1.321 . S
N234 Co237 2.135 . S
C235 N233 1.340 . S
C235 N234 1.321 . S
C235 H259 0.930 . S
H236 C231 0.931 . S
Co237 N234 2.135 . S
Co237 N240 2.121 . S
Co237 O245 2.055 . S
Co237 O248 2.039 . S
Co237 N251 2.140 . S
C238 O239 1.227 . S
C238 O248 1.265 . S
O239 C238 1.227 . S
N240 Co237 2.121 . S
N240 C242 1.375 . S
N240 C243 1.313 . S
C241 C242 1.338 . S
C241 N244 1.377 . S
C241 H261 0.930 . S
C242 N240 1.375 . S
C242 C241 1.338 . S
C242 H246 0.931 . S
C243 N240 1.313 . S
C243 N244 1.344 . S
C243 H247 0.930 . S
N244 C241 1.377 . S
N244 C243 1.344 . S
O245 Co237 2.055 . S
O245 C249 1.253 . S
H246 C242 0.931 . S
H247 C243 0.930 . S
O248 Co237 2.039 . S
O248 C238 1.265 . S
C249 O245 1.253 . S
C249 O250 1.227 . S
O250 C249 1.227 . S
N251 Co237 2.140 . S
N251 C254 1.346 . S
N251 C255 1.345 . S
C252 C253 1.387 . S
C252 C256 1.391 . S
C253 C252 1.387 . S
C253 C254 1.369 . S
C253 H262 0.929 . S
C254 N251 1.346 . S
C254 C253 1.369 . S
C254 H257 0.928 . S
C255 N251 1.345 . S
C255 C256 1.371 . S
C255 H258 0.931 . S
C256 C252 1.391 . S
C256 C255 1.371 . S
C256 H263 0.930 . S
H257 C254 0.928 . S
H258 C255 0.931 . S
H259 C235 0.930 . S
H260 C232 0.930 . S
H261 C241 0.930 . S
H262 C253 0.929 . S
H263 C256 0.930 . S
C264 C265 1.351 . S
C264 N267 1.368 . S
C264 H269 0.931 . S
C265 C264 1.351 . S
C265 N266 1.373 . S
C265 H293 0.930 1_554 S
N266 C265 1.373 . S
N266 C268 1.340 . S
N267 C264 1.368 . S
N267 C268 1.321 . S
N267 Co270 2.135 . S
C268 N266 1.340 . S
C268 N267 1.321 . S
C268 H292 0.930 . S
H269 C264 0.931 . S
Co270 N267 2.135 . S
Co270 N273 2.121 . S
Co270 O278 2.055 . S
Co270 O281 2.039 . S
Co270 N284 2.140 . S
C271 O272 1.227 . S
C271 O281 1.265 . S
O272 C271 1.227 . S
N273 Co270 2.121 . S
N273 C275 1.375 1_545 S
N273 C276 1.313 . S
C274 C275 1.338 . S
C274 N277 1.377 . S
C274 H294 0.930 . S
C275 N273 1.375 1_565 S
C275 C274 1.338 . S
C275 H279 0.931 . S
C276 N273 1.313 . S
C276 N277 1.344 1_545 S
C276 H280 0.930 . S
N277 C274 1.377 . S
N277 C276 1.344 1_565 S
O278 Co270 2.055 . S
O278 C282 1.253 . S
H279 C275 0.931 . S
H280 C276 0.930 . S
O281 Co270 2.039 . S
O281 C271 1.265 . S
C282 O278 1.253 . S
C282 O283 1.227 . S
O283 C282 1.227 . S
N284 Co270 2.140 . S
N284 C287 1.346 . S
N284 C288 1.345 . S
C285 C286 1.402 1_556 S
C285 C289 1.387 1_545 S
C286 C285 1.402 1_554 S
C286 C287 1.369 . S
C286 H295 0.929 . S
C287 N284 1.346 . S
C287 C286 1.369 . S
C287 H290 0.928 . S
C288 N284 1.345 . S
C288 C289 1.371 1_544 S
C288 H291 0.931 . S
C289 C285 1.387 1_565 S
C289 C288 1.371 1_566 S
C289 H296 0.930 . S
H290 C287 0.928 . S
H291 C288 0.931 . S
H292 C268 0.930 . S
H293 C265 0.930 1_556 S
H294 C274 0.930 . S
H295 C286 0.929 . S
H296 C289 0.930 . S
C297 C298 1.351 . S
C297 N300 1.368 . S
C297 H302 0.931 . S
C298 C297 1.351 . S
C298 N299 1.373 . S
C298 H326 0.930 . S
N299 C298 1.373 . S
N299 C301 1.340 . S
N300 C297 1.368 . S
N300 C301 1.321 . S
N300 Co303 2.135 . S
C301 N299 1.340 . S
C301 N300 1.321 . S
C301 H325 0.930 . S
H302 C297 0.931 . S
Co303 N300 2.135 . S
Co303 N306 2.121 . S
Co303 O311 2.055 . S
Co303 O314 2.039 . S
Co303 N317 2.140 . S
C304 O305 1.227 . S
C304 O314 1.265 . S
O305 C304 1.227 . S
N306 Co303 2.121 . S
N306 C308 1.375 . S
N306 C309 1.313 . S
C307 C308 1.338 . S
C307 N310 1.377 . S
C307 H327 0.930 . S
C308 N306 1.375 . S
C308 C307 1.338 . S
C308 H312 0.931 . S
C309 N306 1.313 . S
C309 N310 1.344 . S
C309 H313 0.930 . S
N310 C307 1.377 . S
N310 C309 1.344 . S
O311 Co303 2.055 . S
O311 C315 1.253 . S
H312 C308 0.931 . S
H313 C309 0.930 . S
O314 Co303 2.039 . S
O314 C304 1.265 . S
C315 O311 1.253 . S
C315 O316 1.227 . S
O316 C315 1.227 . S
N317 Co303 2.140 . S
N317 C320 1.346 . S
N317 C321 1.345 . S
C318 C319 1.387 . S
C318 C322 1.391 . S
C319 C318 1.387 . S
C319 C320 1.369 . S
C319 H328 0.929 . S
C320 N317 1.346 . S
C320 C319 1.369 . S
C320 H323 0.928 . S
C321 N317 1.345 . S
C321 C322 1.371 . S
C321 H324 0.931 . S
C322 C318 1.391 . S
C322 C321 1.371 . S
C322 H329 0.930 . S
H323 C320 0.928 . S
H324 C321 0.931 . S
H325 C301 0.930 . S
H326 C298 0.930 . S
H327 C307 0.930 . S
H328 C319 0.929 . S
H329 C322 0.930 . S
C330 C331 1.351 . S
C330 N333 1.368 . S
C330 H335 0.931 . S
C331 C330 1.351 . S
C331 N332 1.373 . S
C331 H359 0.930 . S
N332 C331 1.373 . S
N332 C334 1.340 . S
N333 C330 1.368 . S
N333 C334 1.321 . S
N333 Co336 2.135 . S
C334 N332 1.340 . S
C334 N333 1.321 . S
C334 H358 0.930 . S
H335 C330 0.931 . S
Co336 N333 2.135 . S
Co336 N339 2.121 . S
Co336 O344 2.055 . S
Co336 O347 2.039 . S
Co336 N350 2.140 . S
C337 O338 1.227 . S
C337 O347 1.265 . S
O338 C337 1.227 . S
N339 Co336 2.121 . S
N339 C341 1.375 1_565 S
N339 C342 1.313 . S
C340 C341 1.338 . S
C340 N343 1.377 . S
C340 H360 0.930 . S
C341 N339 1.375 1_545 S
C341 C340 1.338 . S
C341 H345 0.931 . S
C342 N339 1.313 . S
C342 N343 1.344 1_565 S
C342 H346 0.930 . S
N343 C340 1.377 . S
N343 C342 1.344 1_545 S
O344 Co336 2.055 . S
O344 C348 1.253 . S
H345 C341 0.931 . S
H346 C342 0.930 . S
O347 Co336 2.039 . S
O347 C337 1.265 . S
C348 O344 1.253 . S
C348 O349 1.227 . S
O349 C348 1.227 . S
N350 Co336 2.140 . S
N350 C353 1.346 . S
N350 C354 1.345 . S
C351 C352 1.404 . S
C351 C355 1.387 1_565 S
C352 C351 1.404 . S
C352 C353 1.369 . S
C352 H361 0.929 . S
C353 N350 1.346 . S
C353 C352 1.369 . S
C353 H356 0.928 . S
C354 N350 1.345 . S
C354 C355 1.371 1_565 S
C354 H357 0.931 . S
C355 C351 1.387 1_545 S
C355 C354 1.371 1_545 S
C355 H362 0.930 . S
H356 C353 0.928 . S
H357 C354 0.931 . S
H358 C334 0.930 . S
H359 C331 0.930 . S
H360 C340 0.930 . S
H361 C352 0.929 . S
H362 C355 0.930 . S
C363 C364 1.351 . S
C363 N366 1.368 . S
C363 H368 0.931 . S
C364 C363 1.351 . S
C364 N365 1.373 . S
C364 H392 0.930 . S
N365 C364 1.373 . S
N365 C367 1.340 . S
N366 C363 1.368 . S
N366 C367 1.321 . S
N366 Co369 2.135 . S
C367 N365 1.340 . S
C367 N366 1.321 . S
C367 H391 0.930 . S
H368 C363 0.931 . S
Co369 N366 2.135 . S
Co369 N372 2.121 . S
Co369 O377 2.055 . S
Co369 O380 2.039 . S
Co369 N383 2.140 . S
C370 O371 1.227 . S
C370 O380 1.265 . S
O371 C370 1.227 . S
N372 Co369 2.121 . S
N372 C374 1.375 . S
N372 C375 1.313 . S
C373 C374 1.338 . S
C373 N376 1.377 . S
C373 H393 0.930 . S
C374 N372 1.375 . S
C374 C373 1.338 . S
C374 H378 0.931 . S
C375 N372 1.313 . S
C375 N376 1.344 . S
C375 H379 0.930 . S
N376 C373 1.377 . S
N376 C375 1.344 . S
O377 Co369 2.055 . S
O377 C381 1.253 . S
H378 C374 0.931 . S
H379 C375 0.930 . S
O380 Co369 2.039 . S
O380 C370 1.265 . S
C381 O377 1.253 . S
C381 O382 1.227 . S
O382 C381 1.227 . S
N383 Co369 2.140 . S
N383 C386 1.346 . S
N383 C387 1.345 . S
C384 C385 1.387 . S
C384 C388 1.391 . S
C385 C384 1.387 . S
C385 C386 1.369 . S
C385 H394 0.929 . S
C386 N383 1.346 . S
C386 C385 1.369 . S
C386 H389 0.928 . S
C387 N383 1.345 . S
C387 C388 1.371 . S
C387 H390 0.931 . S
C388 C384 1.391 . S
C388 C387 1.371 . S
C388 H395 0.930 . S
H389 C386 0.928 . S
H390 C387 0.931 . S
H391 C367 0.930 . S
H392 C364 0.930 . S
H393 C373 0.930 . S
H394 C385 0.929 . S
H395 C388 0.930 . S
C396 C397 1.351 . S
C396 N399 1.368 . S
C396 H401 0.931 . S
C397 C396 1.351 . S
C397 N398 1.373 . S
C397 H425 0.930 . S
N398 C397 1.373 . S
N398 C400 1.340 . S
N399 C396 1.368 . S
N399 C400 1.321 . S
N399 Co402 2.135 . S
C400 N398 1.340 . S
C400 N399 1.321 . S
C400 H424 0.930 . S
H401 C396 0.931 . S
Co402 N399 2.135 . S
Co402 N405 2.121 . S
Co402 O410 2.055 . S
Co402 O413 2.039 . S
Co402 N416 2.140 . S
C403 O404 1.227 . S
C403 O413 1.265 . S
O404 C403 1.227 . S
N405 Co402 2.121 . S
N405 C407 1.375 1_565 S
N405 C408 1.313 . S
C406 C407 1.338 . S
C406 N409 1.377 . S
C406 H426 0.930 . S
C407 N405 1.375 1_545 S
C407 C406 1.338 . S
C407 H411 0.931 . S
C408 N405 1.313 . S
C408 N409 1.344 1_565 S
C408 H412 0.930 . S
N409 C406 1.377 . S
N409 C408 1.344 1_545 S
O410 Co402 2.055 . S
O410 C414 1.253 . S
H411 C407 0.931 . S
H412 C408 0.930 . S
O413 Co402 2.039 . S
O413 C403 1.265 . S
C414 O410 1.253 . S
C414 O415 1.227 . S
O415 C414 1.227 . S
N416 Co402 2.140 . S
N416 C419 1.346 . S
N416 C420 1.345 . S
C417 C418 1.402 . S
C417 C421 1.387 1_565 S
C418 C417 1.402 . S
C418 C419 1.369 . S
C418 H427 0.929 . S
C419 N416 1.346 . S
C419 C418 1.369 . S
C419 H422 0.928 . S
C420 N416 1.345 . S
C420 C421 1.371 1_565 S
C420 H423 0.931 . S
C421 C417 1.387 1_545 S
C421 C420 1.371 1_545 S
C421 H428 0.930 . S
H422 C419 0.928 . S
H423 C420 0.931 . S
H424 C400 0.930 . S
H425 C397 0.930 . S
H426 C406 0.930 . S
H427 C418 0.929 . S
H428 C421 0.930 . S
C429 C430 1.351 . S
C429 N432 1.368 . S
C429 H434 0.931 . S
C430 C429 1.351 . S
C430 N431 1.373 . S
C430 H458 0.930 . S
N431 C430 1.373 . S
N431 C433 1.340 . S
N432 C429 1.368 . S
N432 C433 1.321 . S
N432 Co435 2.135 . S
C433 N431 1.340 . S
C433 N432 1.321 . S
C433 H457 0.930 . S
H434 C429 0.931 . S
Co435 N432 2.135 . S
Co435 N438 2.121 . S
Co435 O443 2.055 . S
Co435 O446 2.039 . S
Co435 N449 2.140 . S
C436 O437 1.227 . S
C436 O446 1.265 . S
O437 C436 1.227 . S
N438 Co435 2.121 . S
N438 C440 1.375 . S
N438 C441 1.313 . S
C439 C440 1.338 . S
C439 N442 1.377 . S
C439 H459 0.930 . S
C440 N438 1.375 . S
C440 C439 1.338 . S
C440 H444 0.931 . S
C441 N438 1.313 . S
C441 N442 1.344 . S
C441 H445 0.930 . S
N442 C439 1.377 . S
N442 C441 1.344 . S
O443 Co435 2.055 . S
O443 C447 1.253 . S
H444 C440 0.931 . S
H445 C441 0.930 . S
O446 Co435 2.039 . S
O446 C436 1.265 . S
C447 O443 1.253 . S
C447 O448 1.227 . S
O448 C447 1.227 . S
N449 Co435 2.140 . S
N449 C452 1.346 . S
N449 C453 1.345 . S
C450 C451 1.387 . S
C450 C454 1.391 . S
C451 C450 1.387 . S
C451 C452 1.369 . S
C451 H460 0.929 . S
C452 N449 1.346 . S
C452 C451 1.369 . S
C452 H455 0.928 . S
C453 N449 1.345 . S
C453 C454 1.371 . S
C453 H456 0.931 . S
C454 C450 1.391 . S
C454 C453 1.371 . S
C454 H461 0.930 . S
H455 C452 0.928 . S
H456 C453 0.931 . S
H457 C433 0.930 . S
H458 C430 0.930 . S
H459 C439 0.930 . S
H460 C451 0.929 . S
H461 C454 0.930 . S
C462 C463 1.351 . S
C462 N465 1.368 . S
C462 H467 0.931 . S
C463 C462 1.351 . S
C463 N464 1.373 . S
C463 H491 0.930 1_556 S
N464 C463 1.373 . S
N464 C466 1.340 . S
N465 C462 1.368 . S
N465 C466 1.321 . S
N465 Co468 2.135 . S
C466 N464 1.340 . S
C466 N465 1.321 . S
C466 H490 0.930 . S
H467 C462 0.931 . S
Co468 N465 2.135 . S
Co468 N471 2.121 . S
Co468 O476 2.055 . S
Co468 O479 2.039 . S
Co468 N482 2.140 . S
C469 O470 1.227 . S
C469 O479 1.265 . S
O470 C469 1.227 . S
N471 Co468 2.121 . S
N471 C473 1.375 1_545 S
N471 C474 1.313 . S
C472 C473 1.338 . S
C472 N475 1.377 . S
C472 H492 0.930 . S
C473 N471 1.375 1_565 S
C473 C472 1.338 . S
C473 H477 0.931 . S
C474 N471 1.313 . S
C474 N475 1.344 1_545 S
C474 H478 0.930 . S
N475 C472 1.377 . S
N475 C474 1.344 1_565 S
O476 Co468 2.055 . S
O476 C480 1.253 . S
H477 C473 0.931 . S
H478 C474 0.930 . S
O479 Co468 2.039 . S
O479 C469 1.265 . S
C480 O476 1.253 . S
C480 O481 1.227 . S
O481 C480 1.227 . S
N482 Co468 2.140 . S
N482 C485 1.346 . S
N482 C486 1.345 . S
C483 C484 1.403 1_554 S
C483 C487 1.387 1_545 S
C484 C483 1.403 1_556 S
C484 C485 1.369 . S
C484 H493 0.929 . S
C485 N482 1.346 . S
C485 C484 1.369 . S
C485 H488 0.928 . S
C486 N482 1.345 . S
C486 C487 1.371 1_546 S
C486 H489 0.931 . S
C487 C483 1.387 1_565 S
C487 C486 1.371 1_564 S
C487 H494 0.930 . S
H488 C485 0.928 . S
H489 C486 0.931 . S
H490 C466 0.930 . S
H491 C463 0.930 1_554 S
H492 C472 0.930 . S
H493 C484 0.929 . S
H494 C487 0.930 . S
C495 C496 1.351 . S
C495 N498 1.368 . S
C495 H500 0.931 . S
C496 C495 1.351 . S
C496 N497 1.373 . S
C496 H524 0.930 . S
N497 C496 1.373 . S
N497 C499 1.340 . S
N498 C495 1.368 . S
N498 C499 1.321 . S
N498 Co501 2.135 . S
C499 N497 1.340 . S
C499 N498 1.321 . S
C499 H523 0.930 . S
H500 C495 0.931 . S
Co501 N498 2.135 . S
Co501 N504 2.121 . S
Co501 O509 2.055 . S
Co501 O512 2.039 . S
Co501 N515 2.140 . S
C502 O503 1.227 . S
C502 O512 1.265 . S
O503 C502 1.227 . S
N504 Co501 2.121 . S
N504 C506 1.375 . S
N504 C507 1.313 . S
C505 C506 1.338 . S
C505 N508 1.377 . S
C505 H525 0.930 . S
C506 N504 1.375 . S
C506 C505 1.338 . S
C506 H510 0.931 . S
C507 N504 1.313 . S
C507 N508 1.344 . S
C507 H511 0.930 . S
N508 C505 1.377 . S
N508 C507 1.344 . S
O509 Co501 2.055 . S
O509 C513 1.253 . S
H510 C506 0.931 . S
H511 C507 0.930 . S
O512 Co501 2.039 . S
O512 C502 1.265 . S
C513 O509 1.253 . S
C513 O514 1.227 . S
O514 C513 1.227 . S
N515 Co501 2.140 . S
N515 C518 1.346 . S
N515 C519 1.345 . S
C516 C517 1.387 . S
C516 C520 1.391 . S
C517 C516 1.387 . S
C517 C518 1.369 . S
C517 H526 0.929 . S
C518 N515 1.346 . S
C518 C517 1.369 . S
C518 H521 0.928 . S
C519 N515 1.345 . S
C519 C520 1.371 . S
C519 H522 0.931 . S
C520 C516 1.391 . S
C520 C519 1.371 . S
C520 H527 0.930 . S
H521 C518 0.928 . S
H522 C519 0.931 . S
H523 C499 0.930 . S
H524 C496 0.930 . S
H525 C505 0.930 . S
H526 C517 0.929 . S
H527 C520 0.930 . S
C528 C529 1.351 . S
C528 N531 1.368 . S
C528 H533 0.931 . S
C529 C528 1.351 . S
C529 N530 1.373 . S
C529 H557 0.930 1_455 S
N530 C529 1.373 . S
N530 C532 1.340 . S
N531 C528 1.368 . S
N531 C532 1.321 . S
N531 Co534 2.135 . S
C532 N530 1.340 . S
C532 N531 1.321 . S
C532 H556 0.930 . S
H533 C528 0.931 . S
Co534 N531 2.135 . S
Co534 N537 2.121 . S
Co534 O542 2.055 . S
Co534 O545 2.039 . S
Co534 N548 2.140 . S
C535 O536 1.227 . S
C535 O545 1.265 . S
O536 C535 1.227 . S
N537 Co534 2.121 . S
N537 C539 1.375 1_554 S
N537 C540 1.313 . S
C538 C539 1.338 . S
C538 N541 1.377 . S
C538 H558 0.930 . S
C539 N537 1.375 1_556 S
C539 C538 1.338 . S
C539 H543 0.931 . S
C540 N537 1.313 . S
C540 N541 1.344 1_554 S
C540 H544 0.930 . S
N541 C538 1.377 . S
N541 C540 1.344 1_556 S
O542 Co534 2.055 . S
O542 C546 1.253 . S
H543 C539 0.931 . S
H544 C540 0.930 . S
O545 Co534 2.039 . S
O545 C535 1.265 . S
C546 O542 1.253 . S
C546 O547 1.227 . S
O547 C546 1.227 . S
N548 Co534 2.140 . S
N548 C551 1.346 . S
N548 C552 1.345 . S
C549 C550 1.402 1_655 S
C549 C553 1.387 1_554 S
C550 C549 1.402 1_455 S
C550 C551 1.369 . S
C550 H559 0.929 . S
C551 N548 1.346 . S
C551 C550 1.369 . S
C551 H554 0.928 . S
C552 N548 1.345 . S
C552 C553 1.371 1_454 S
C552 H555 0.931 . S
C553 C549 1.387 1_556 S
C553 C552 1.371 1_656 S
C553 H560 0.930 . S
H554 C551 0.928 . S
H555 C552 0.931 . S
H556 C532 0.930 . S
H557 C529 0.930 1_655 S
H558 C538 0.930 . S
H559 C550 0.929 . S
H560 C553 0.930 . S
C561 C562 1.351 . S
C561 N564 1.368 . S
C561 H566 0.931 . S
C562 C561 1.351 . S
C562 N563 1.373 . S
C562 H590 0.930 . S
N563 C562 1.373 . S
N563 C565 1.340 . S
N564 C561 1.368 . S
N564 C565 1.321 . S
N564 Co567 2.135 . S
C565 N563 1.340 . S
C565 N564 1.321 . S
C565 H589 0.930 . S
H566 C561 0.931 . S
Co567 N564 2.135 . S
Co567 N570 2.121 . S
Co567 O575 2.055 . S
Co567 O578 2.039 . S
Co567 N581 2.140 . S
C568 O569 1.227 . S
C568 O578 1.265 . S
O569 C568 1.227 . S
N570 Co567 2.121 . S
N570 C572 1.375 1_556 S
N570 C573 1.313 . S
C571 C572 1.338 . S
C571 N574 1.377 . S
C571 H591 0.930 . S
C572 N570 1.375 1_554 S
C572 C571 1.338 . S
C572 H576 0.931 . S
C573 N570 1.313 . S
C573 N574 1.344 1_556 S
C573 H577 0.930 . S
N574 C571 1.377 . S
N574 C573 1.344 1_554 S
O575 Co567 2.055 . S
O575 C579 1.253 . S
H576 C572 0.931 . S
H577 C573 0.930 . S
O578 Co567 2.039 . S
O578 C568 1.265 . S
C579 O575 1.253 . S
C579 O580 1.227 . S
O580 C579 1.227 . S
N581 Co567 2.140 . S
N581 C584 1.346 . S
N581 C585 1.345 . S
C582 C583 1.404 . S
C582 C586 1.387 1_556 S
C583 C582 1.404 . S
C583 C584 1.369 . S
C583 H592 0.929 . S
C584 N581 1.346 . S
C584 C583 1.369 . S
C584 H587 0.928 . S
C585 N581 1.345 . S
C585 C586 1.371 1_556 S
C585 H588 0.931 . S
C586 C582 1.387 1_554 S
C586 C585 1.371 1_554 S
C586 H593 0.930 . S
H587 C584 0.928 . S
H588 C585 0.931 . S
H589 C565 0.930 . S
H590 C562 0.930 . S
H591 C571 0.930 . S
H592 C583 0.929 . S
H593 C586 0.930 . S
C594 C595 1.351 . S
C594 N597 1.368 . S
C594 H599 0.931 . S
C595 C594 1.351 . S
C595 N596 1.373 . S
C595 H623 0.930 . S
N596 C595 1.373 . S
N596 C598 1.340 . S
N597 C594 1.368 . S
N597 C598 1.321 . S
N597 Co600 2.135 . S
C598 N596 1.340 . S
C598 N597 1.321 . S
C598 H622 0.930 . S
H599 C594 0.931 . S
Co600 N597 2.135 . S
Co600 N603 2.121 . S
Co600 O608 2.055 . S
Co600 O611 2.039 . S
Co600 N614 2.140 . S
C601 O602 1.227 . S
C601 O611 1.265 . S
O602 C601 1.227 . S
N603 Co600 2.121 . S
N603 C605 1.375 . S
N603 C606 1.313 . S
C604 C605 1.338 . S
C604 N607 1.377 . S
C604 H624 0.930 . S
C605 N603 1.375 . S
C605 C604 1.338 . S
C605 H609 0.931 . S
C606 N603 1.313 . S
C606 N607 1.344 . S
C606 H610 0.930 . S
N607 C604 1.377 . S
N607 C606 1.344 . S
O608 Co600 2.055 . S
O608 C612 1.253 . S
H609 C605 0.931 . S
H610 C606 0.930 . S
O611 Co600 2.039 . S
O611 C601 1.265 . S
C612 O608 1.253 . S
C612 O613 1.227 . S
O613 C612 1.227 . S
N614 Co600 2.140 . S
N614 C617 1.346 . S
N614 C618 1.345 . S
C615 C616 1.387 . S
C615 C619 1.391 . S
C616 C615 1.387 . S
C616 C617 1.369 . S
C616 H625 0.929 . S
C617 N614 1.346 . S
C617 C616 1.369 . S
C617 H620 0.928 . S
C618 N614 1.345 . S
C618 C619 1.371 . S
C618 H621 0.931 . S
C619 C615 1.391 . S
C619 C618 1.371 . S
C619 H626 0.930 . S
H620 C617 0.928 . S
H621 C618 0.931 . S
H622 C598 0.930 . S
H623 C595 0.930 . S
H624 C604 0.930 . S
H625 C616 0.929 . S
H626 C619 0.930 . S
C627 C628 1.351 . S
C627 N630 1.368 . S
C627 H632 0.931 . S
C628 C627 1.351 . S
C628 N629 1.373 . S
C628 H656 0.930 1_655 S
N629 C628 1.373 . S
N629 C631 1.340 . S
N630 C627 1.368 . S
N630 C631 1.321 . S
N630 Co633 2.135 . S
C631 N629 1.340 . S
C631 N630 1.321 . S
C631 H655 0.930 . S
H632 C627 0.931 . S
Co633 N630 2.135 . S
Co633 N636 2.121 . S
Co633 O641 2.055 . S
Co633 O644 2.039 . S
Co633 N647 2.140 . S
C634 O635 1.227 . S
C634 O644 1.265 . S
O635 C634 1.227 . S
N636 Co633 2.121 . S
N636 C638 1.375 . S
N636 C639 1.313 . S
C637 C638 1.338 . S
C637 N640 1.377 . S
C637 H657 0.930 . S
C638 N636 1.375 . S
C638 C637 1.338 . S
C638 H642 0.931 . S
C639 N636 1.313 . S
C639 N640 1.344 . S
C639 H643 0.930 . S
N640 C637 1.377 . S
N640 C639 1.344 . S
O641 Co633 2.055 . S
O641 C645 1.253 . S
H642 C638 0.931 . S
H643 C639 0.930 . S
O644 Co633 2.039 . S
O644 C634 1.265 . S
C645 O641 1.253 . S
C645 O646 1.227 . S
O646 C645 1.227 . S
N647 Co633 2.140 . S
N647 C650 1.346 . S
N647 C651 1.345 . S
C648 C649 1.387 1_455 S
C648 C652 1.391 . S
C649 C648 1.387 1_655 S
C649 C650 1.369 . S
C649 H658 0.929 . S
C650 N647 1.346 . S
C650 C649 1.369 . S
C650 H653 0.928 . S
C651 N647 1.345 . S
C651 C652 1.371 1_655 S
C651 H654 0.931 . S
C652 C648 1.391 . S
C652 C651 1.371 1_455 S
C652 H659 0.930 . S
H653 C650 0.928 . S
H654 C651 0.931 . S
H655 C631 0.930 . S
H656 C628 0.930 1_455 S
H657 C637 0.930 . S
H658 C649 0.929 . S
H659 C652 0.930 . S
C660 C661 1.351 . S
C660 N663 1.368 . S
C660 H665 0.931 . S
C661 C660 1.351 . S
C661 N662 1.373 . S
C661 H689 0.930 . S
N662 C661 1.373 . S
N662 C664 1.340 . S
N663 C660 1.368 . S
N663 C664 1.321 . S
N663 Co666 2.135 . S
C664 N662 1.340 . S
C664 N663 1.321 . S
C664 H688 0.930 . S
H665 C660 0.931 . S
Co666 N663 2.135 . S
Co666 N669 2.121 . S
Co666 O674 2.055 . S
Co666 O677 2.039 . S
Co666 N680 2.140 . S
C667 O668 1.227 . S
C667 O677 1.265 . S
O668 C667 1.227 . S
N669 Co666 2.121 . S
N669 C671 1.375 . S
N669 C672 1.313 . S
C670 C671 1.338 . S
C670 N673 1.377 . S
C670 H690 0.930 . S
C671 N669 1.375 . S
C671 C670 1.338 . S
C671 H675 0.931 . S
C672 N669 1.313 . S
C672 N673 1.344 . S
C672 H676 0.930 . S
N673 C670 1.377 . S
N673 C672 1.344 . S
O674 Co666 2.055 . S
O674 C678 1.253 . S
H675 C671 0.931 . S
H676 C672 0.930 . S
O677 Co666 2.039 . S
O677 C667 1.265 . S
C678 O674 1.253 . S
C678 O679 1.227 . S
O679 C678 1.227 . S
N680 Co666 2.140 . S
N680 C683 1.346 . S
N680 C684 1.345 . S
C681 C682 1.387 . S
C681 C685 1.391 . S
C682 C681 1.387 . S
C682 C683 1.369 . S
C682 H691 0.929 . S
C683 N680 1.346 . S
C683 C682 1.369 . S
C683 H686 0.928 . S
C684 N680 1.345 . S
C684 C685 1.371 . S
C684 H687 0.931 . S
C685 C681 1.391 . S
C685 C684 1.371 . S
C685 H692 0.930 . S
H686 C683 0.928 . S
H687 C684 0.931 . S
H688 C664 0.930 . S
H689 C661 0.930 . S
H690 C670 0.930 . S
H691 C682 0.929 . S
H692 C685 0.930 . S
C693 C694 1.351 . S
C693 N696 1.368 . S
C693 H698 0.931 . S
C694 C693 1.351 . S
C694 N695 1.373 . S
C694 H722 0.930 . S
N695 C694 1.373 . S
N695 C697 1.340 . S
N696 C693 1.368 . S
N696 C697 1.321 . S
N696 Co699 2.135 . S
C697 N695 1.340 . S
C697 N696 1.321 . S
C697 H721 0.930 . S
H698 C693 0.931 . S
Co699 N696 2.135 . S
Co699 N702 2.121 . S
Co699 O707 2.055 . S
Co699 O710 2.039 . S
Co699 N713 2.140 . S
C700 O701 1.227 . S
C700 O710 1.265 . S
O701 C700 1.227 . S
N702 Co699 2.121 . S
N702 C704 1.375 . S
N702 C705 1.313 . S
C703 C704 1.338 . S
C703 N706 1.377 . S
C703 H723 0.930 . S
C704 N702 1.375 . S
C704 C703 1.338 . S
C704 H708 0.931 . S
C705 N702 1.313 . S
C705 N706 1.344 . S
C705 H709 0.930 . S
N706 C703 1.377 . S
N706 C705 1.344 . S
O707 Co699 2.055 . S
O707 C711 1.253 . S
H708 C704 0.931 . S
H709 C705 0.930 . S
O710 Co699 2.039 . S
O710 C700 1.265 . S
C711 O707 1.253 . S
C711 O712 1.227 . S
O712 C711 1.227 . S
N713 Co699 2.140 . S
N713 C716 1.346 . S
N713 C717 1.345 . S
C714 C715 1.387 . S
C714 C718 1.391 . S
C715 C714 1.387 . S
C715 C716 1.369 . S
C715 H724 0.929 . S
C716 N713 1.346 . S
C716 C715 1.369 . S
C716 H719 0.928 . S
C717 N713 1.345 . S
C717 C718 1.371 . S
C717 H720 0.931 . S
C718 C714 1.391 . S
C718 C717 1.371 . S
C718 H725 0.930 . S
H719 C716 0.928 . S
H720 C717 0.931 . S
H721 C697 0.930 . S
H722 C694 0.930 . S
H723 C703 0.930 . S
H724 C715 0.929 . S
H725 C718 0.930 . S
C726 C727 1.351 . S
C726 N729 1.368 . S
C726 H731 0.931 . S
C727 C726 1.351 . S
C727 N728 1.373 . S
C727 H755 0.930 . S
N728 C727 1.373 . S
N728 C730 1.340 . S
N729 C726 1.368 . S
N729 C730 1.321 . S
N729 Co732 2.135 . S
C730 N728 1.340 . S
C730 N729 1.321 . S
C730 H754 0.930 . S
H731 C726 0.931 . S
Co732 N729 2.135 . S
Co732 N735 2.121 . S
Co732 O740 2.055 . S
Co732 O743 2.039 . S
Co732 N746 2.140 . S
C733 O734 1.227 . S
C733 O743 1.265 . S
O734 C733 1.227 . S
N735 Co732 2.121 . S
N735 C737 1.375 . S
N735 C738 1.313 . S
C736 C737 1.338 . S
C736 N739 1.377 . S
C736 H756 0.930 . S
C737 N735 1.375 . S
C737 C736 1.338 . S
C737 H741 0.931 . S
C738 N735 1.313 . S
C738 N739 1.344 . S
C738 H742 0.930 . S
N739 C736 1.377 . S
N739 C738 1.344 . S
O740 Co732 2.055 . S
O740 C744 1.253 . S
H741 C737 0.931 . S
H742 C738 0.930 . S
O743 Co732 2.039 . S
O743 C733 1.265 . S
C744 O740 1.253 . S
C744 O745 1.227 . S
O745 C744 1.227 . S
N746 Co732 2.140 . S
N746 C749 1.346 . S
N746 C750 1.345 . S
C747 C748 1.387 . S
C747 C751 1.391 . S
C748 C747 1.387 . S
C748 C749 1.369 . S
C748 H757 0.929 . S
C749 N746 1.346 . S
C749 C748 1.369 . S
C749 H752 0.928 . S
C750 N746 1.345 . S
C750 C751 1.371 . S
C750 H753 0.931 . S
C751 C747 1.391 . S
C751 C750 1.371 . S
C751 H758 0.930 . S
H752 C749 0.928 . S
H753 C750 0.931 . S
H754 C730 0.930 . S
H755 C727 0.930 . S
H756 C736 0.930 . S
H757 C748 0.929 . S
H758 C751 0.930 . S
C759 C760 1.351 . S
C759 N762 1.368 . S
C759 H764 0.931 . S
C760 C759 1.351 . S
C760 N761 1.373 . S
C760 H788 0.930 . S
N761 C760 1.373 . S
N761 C763 1.340 . S
N762 C759 1.368 . S
N762 C763 1.321 . S
N762 Co765 2.135 . S
C763 N761 1.340 . S
C763 N762 1.321 . S
C763 H787 0.930 . S
H764 C759 0.931 . S
Co765 N762 2.135 . S
Co765 N768 2.121 . S
Co765 O773 2.055 . S
Co765 O776 2.039 . S
Co765 N779 2.140 . S
C766 O767 1.227 . S
C766 O776 1.265 . S
O767 C766 1.227 . S
N768 Co765 2.121 . S
N768 C770 1.375 . S
N768 C771 1.313 . S
C769 C770 1.338 . S
C769 N772 1.377 . S
C769 H789 0.930 . S
C770 N768 1.375 . S
C770 C769 1.338 . S
C770 H774 0.931 . S
C771 N768 1.313 . S
C771 N772 1.344 . S
C771 H775 0.930 . S
N772 C769 1.377 . S
N772 C771 1.344 . S
O773 Co765 2.055 . S
O773 C777 1.253 . S
H774 C770 0.931 . S
H775 C771 0.930 . S
O776 Co765 2.039 . S
O776 C766 1.265 . S
C777 O773 1.253 . S
C777 O778 1.227 . S
O778 C777 1.227 . S
N779 Co765 2.140 . S
N779 C782 1.346 . S
N779 C783 1.345 . S
C780 C781 1.387 . S
C780 C784 1.391 . S
C781 C780 1.387 . S
C781 C782 1.369 . S
C781 H790 0.929 . S
C782 N779 1.346 . S
C782 C781 1.369 . S
C782 H785 0.928 . S
C783 N779 1.345 . S
C783 C784 1.371 . S
C783 H786 0.931 . S
C784 C780 1.391 . S
C784 C783 1.371 . S
C784 H791 0.930 . S
H785 C782 0.928 . S
H786 C783 0.931 . S
H787 C763 0.930 . S
H788 C760 0.930 . S
H789 C769 0.930 . S
H790 C781 0.929 . S
H791 C784 0.930 . S
C792 C793 1.351 . S
C792 N795 1.368 . S
C792 H797 0.931 . S
C793 C792 1.351 . S
C793 N794 1.373 . S
C793 H821 0.930 . S
N794 C793 1.373 . S
N794 C796 1.340 . S
N795 C792 1.368 . S
N795 C796 1.321 . S
N795 Co798 2.135 . S
C796 N794 1.340 . S
C796 N795 1.321 . S
C796 H820 0.930 . S
H797 C792 0.931 . S
Co798 N795 2.135 . S
Co798 N801 2.121 . S
Co798 O806 2.055 . S
Co798 O809 2.039 . S
Co798 N812 2.140 . S
C799 O800 1.227 . S
C799 O809 1.265 . S
O800 C799 1.227 . S
N801 Co798 2.121 . S
N801 C803 1.375 . S
N801 C804 1.313 . S
C802 C803 1.338 . S
C802 N805 1.377 . S
C802 H822 0.930 . S
C803 N801 1.375 . S
C803 C802 1.338 . S
C803 H807 0.931 . S
C804 N801 1.313 . S
C804 N805 1.344 . S
C804 H808 0.930 . S
N805 C802 1.377 . S
N805 C804 1.344 . S
O806 Co798 2.055 . S
O806 C810 1.253 . S
H807 C803 0.931 . S
H808 C804 0.930 . S
O809 Co798 2.039 . S
O809 C799 1.265 . S
C810 O806 1.253 . S
C810 O811 1.227 . S
O811 C810 1.227 . S
N812 Co798 2.140 . S
N812 C815 1.346 . S
N812 C816 1.345 . S
C813 C814 1.387 . S
C813 C817 1.391 . S
C814 C813 1.387 . S
C814 C815 1.369 . S
C814 H823 0.929 . S
C815 N812 1.346 . S
C815 C814 1.369 . S
C815 H818 0.928 . S
C816 N812 1.345 . S
C816 C817 1.371 . S
C816 H819 0.931 . S
C817 C813 1.391 . S
C817 C816 1.371 . S
C817 H824 0.930 . S
H818 C815 0.928 . S
H819 C816 0.931 . S
H820 C796 0.930 . S
H821 C793 0.930 . S
H822 C802 0.930 . S
H823 C814 0.929 . S
H824 C817 0.930 . S
C825 C826 1.351 . S
C825 N828 1.368 . S
C825 H830 0.931 . S
C826 C825 1.351 . S
C826 N827 1.373 . S
C826 H854 0.930 . S
N827 C826 1.373 . S
N827 C829 1.340 . S
N828 C825 1.368 . S
N828 C829 1.321 . S
N828 Co831 2.135 . S
C829 N827 1.340 . S
C829 N828 1.321 . S
C829 H853 0.930 . S
H830 C825 0.931 . S
Co831 N828 2.135 . S
Co831 N834 2.121 . S
Co831 O839 2.055 . S
Co831 O842 2.039 . S
Co831 N845 2.140 . S
C832 O833 1.227 . S
C832 O842 1.265 . S
O833 C832 1.227 . S
N834 Co831 2.121 . S
N834 C836 1.375 . S
N834 C837 1.313 . S
C835 C836 1.338 . S
C835 N838 1.377 . S
C835 H855 0.930 . S
C836 N834 1.375 . S
C836 C835 1.338 . S
C836 H840 0.931 . S
C837 N834 1.313 . S
C837 N838 1.344 . S
C837 H841 0.930 . S
N838 C835 1.377 . S
N838 C837 1.344 . S
O839 Co831 2.055 . S
O839 C843 1.253 . S
H840 C836 0.931 . S
H841 C837 0.930 . S
O842 Co831 2.039 . S
O842 C832 1.265 . S
C843 O839 1.253 . S
C843 O844 1.227 . S
O844 C843 1.227 . S
N845 Co831 2.140 . S
N845 C848 1.346 . S
N845 C849 1.345 . S
C846 C847 1.387 . S
C846 C850 1.391 . S
C847 C846 1.387 . S
C847 C848 1.369 . S
C847 H856 0.929 . S
C848 N845 1.346 . S
C848 C847 1.369 . S
C848 H851 0.928 . S
C849 N845 1.345 . S
C849 C850 1.371 . S
C849 H852 0.931 . S
C850 C846 1.391 . S
C850 C849 1.371 . S
C850 H857 0.930 . S
H851 C848 0.928 . S
H852 C849 0.931 . S
H853 C829 0.930 . S
H854 C826 0.930 . S
H855 C835 0.930 . S
H856 C847 0.929 . S
H857 C850 0.930 . S
C858 C859 1.351 . S
C858 N861 1.368 . S
C858 H863 0.931 . S
C859 C858 1.351 . S
C859 N860 1.373 . S
C859 H887 0.930 . S
N860 C859 1.373 . S
N860 C862 1.340 . S
N861 C858 1.368 . S
N861 C862 1.321 . S
N861 Co864 2.135 . S
C862 N860 1.340 . S
C862 N861 1.321 . S
C862 H886 0.930 . S
H863 C858 0.931 . S
Co864 N861 2.135 . S
Co864 N867 2.121 . S
Co864 O872 2.055 . S
Co864 O875 2.039 . S
Co864 N878 2.140 . S
C865 O866 1.227 . S
C865 O875 1.265 . S
O866 C865 1.227 . S
N867 Co864 2.121 . S
N867 C869 1.375 1_655 S
N867 C870 1.313 . S
C868 C869 1.338 . S
C868 N871 1.377 . S
C868 H888 0.930 . S
C869 N867 1.375 1_455 S
C869 C868 1.338 . S
C869 H873 0.931 . S
C870 N867 1.313 . S
C870 N871 1.344 1_655 S
C870 H874 0.930 . S
N871 C868 1.377 . S
N871 C870 1.344 1_455 S
O872 Co864 2.055 . S
O872 C876 1.253 . S
H873 C869 0.931 . S
H874 C870 0.930 . S
O875 Co864 2.039 . S
O875 C865 1.265 . S
C876 O872 1.253 . S
C876 O877 1.227 . S
O877 C876 1.227 . S
N878 Co864 2.140 . S
N878 C881 1.346 . S
N878 C882 1.345 . S
C879 C880 1.402 . S
C879 C883 1.387 1_655 S
C880 C879 1.402 . S
C880 C881 1.369 . S
C880 H889 0.929 . S
C881 N878 1.346 . S
C881 C880 1.369 . S
C881 H884 0.928 . S
C882 N878 1.345 . S
C882 C883 1.371 1_655 S
C882 H885 0.931 . S
C883 C879 1.387 1_455 S
C883 C882 1.371 1_455 S
C883 H890 0.930 . S
H884 C881 0.928 . S
H885 C882 0.931 . S
H886 C862 0.930 . S
H887 C859 0.930 . S
H888 C868 0.930 . S
H889 C880 0.929 . S
H890 C883 0.930 . S
C891 C892 1.351 . S
C891 N894 1.368 . S
C891 H896 0.931 . S
C892 C891 1.351 . S
C892 N893 1.373 . S
C892 H920 0.930 . S
N893 C892 1.373 . S
N893 C895 1.340 . S
N894 C891 1.368 . S
N894 C895 1.321 . S
N894 Co897 2.135 . S
C895 N893 1.340 . S
C895 N894 1.321 . S
C895 H919 0.930 . S
H896 C891 0.931 . S
Co897 N894 2.135 . S
Co897 N900 2.121 . S
Co897 O905 2.055 . S
Co897 O908 2.039 . S
Co897 N911 2.140 . S
C898 O899 1.227 . S
C898 O908 1.265 . S
O899 C898 1.227 . S
N900 Co897 2.121 . S
N900 C902 1.375 . S
N900 C903 1.313 . S
C901 C902 1.338 . S
C901 N904 1.377 . S
C901 H921 0.930 . S
C902 N900 1.375 . S
C902 C901 1.338 . S
C902 H906 0.931 . S
C903 N900 1.313 . S
C903 N904 1.344 . S
C903 H907 0.930 . S
N904 C901 1.377 . S
N904 C903 1.344 . S
O905 Co897 2.055 . S
O905 C909 1.253 . S
H906 C902 0.931 . S
H907 C903 0.930 . S
O908 Co897 2.039 . S
O908 C898 1.265 . S
C909 O905 1.253 . S
C909 O910 1.227 . S
O910 C909 1.227 . S
N911 Co897 2.140 . S
N911 C914 1.346 . S
N911 C915 1.345 . S
C912 C913 1.387 . S
C912 C916 1.391 . S
C913 C912 1.387 . S
C913 C914 1.369 . S
C913 H922 0.929 . S
C914 N911 1.346 . S
C914 C913 1.369 . S
C914 H917 0.928 . S
C915 N911 1.345 . S
C915 C916 1.371 . S
C915 H918 0.931 . S
C916 C912 1.391 . S
C916 C915 1.371 . S
C916 H923 0.930 . S
H917 C914 0.928 . S
H918 C915 0.931 . S
H919 C895 0.930 . S
H920 C892 0.930 . S
H921 C901 0.930 . S
H922 C913 0.929 . S
H923 C916 0.930 . S
C924 C925 1.351 . S
C924 N927 1.368 . S
C924 H929 0.931 . S
C925 C924 1.351 . S
C925 N926 1.373 . S
C925 H953 0.930 . S
N926 C925 1.373 . S
N926 C928 1.340 . S
N927 C924 1.368 . S
N927 C928 1.321 . S
N927 Co930 2.135 . S
C928 N926 1.340 . S
C928 N927 1.321 . S
C928 H952 0.930 . S
H929 C924 0.931 . S
Co930 N927 2.135 . S
Co930 N933 2.121 . S
Co930 O938 2.055 . S
Co930 O941 2.039 . S
Co930 N944 2.140 . S
C931 O932 1.227 . S
C931 O941 1.265 . S
O932 C931 1.227 . S
N933 Co930 2.121 . S
N933 C935 1.375 . S
N933 C936 1.313 . S
C934 C935 1.338 . S
C934 N937 1.377 . S
C934 H954 0.930 . S
C935 N933 1.375 . S
C935 C934 1.338 . S
C935 H939 0.931 . S
C936 N933 1.313 . S
C936 N937 1.344 . S
C936 H940 0.930 . S
N937 C934 1.377 . S
N937 C936 1.344 . S
O938 Co930 2.055 . S
O938 C942 1.253 . S
H939 C935 0.931 . S
H940 C936 0.930 . S
O941 Co930 2.039 . S
O941 C931 1.265 . S
C942 O938 1.253 . S
C942 O943 1.227 . S
O943 C942 1.227 . S
N944 Co930 2.140 . S
N944 C947 1.346 . S
N944 C948 1.345 . S
C945 C946 1.387 . S
C945 C949 1.391 . S
C946 C945 1.387 . S
C946 C947 1.369 . S
C946 H955 0.929 . S
C947 N944 1.346 . S
C947 C946 1.369 . S
C947 H950 0.928 . S
C948 N944 1.345 . S
C948 C949 1.371 . S
C948 H951 0.931 . S
C949 C945 1.391 . S
C949 C948 1.371 . S
C949 H956 0.930 . S
H950 C947 0.928 . S
H951 C948 0.931 . S
H952 C928 0.930 . S
H953 C925 0.930 . S
H954 C934 0.930 . S
H955 C946 0.929 . S
H956 C949 0.930 . S
C957 C958 1.351 . S
C957 N960 1.368 . S
C957 H962 0.931 . S
C958 C957 1.351 . S
C958 N959 1.373 . S
C958 H986 0.930 . S
N959 C958 1.373 . S
N959 C961 1.340 . S
N960 C957 1.368 . S
N960 C961 1.321 . S
N960 Co963 2.135 . S
C961 N959 1.340 . S
C961 N960 1.321 . S
C961 H985 0.930 . S
H962 C957 0.931 . S
Co963 N960 2.135 . S
Co963 N966 2.121 . S
Co963 O971 2.055 . S
Co963 O974 2.039 . S
Co963 N977 2.140 . S
C964 O965 1.227 . S
C964 O974 1.265 . S
O965 C964 1.227 . S
N966 Co963 2.121 . S
N966 C968 1.375 . S
N966 C969 1.313 . S
C967 C968 1.338 . S
C967 N970 1.377 . S
C967 H987 0.930 . S
C968 N966 1.375 . S
C968 C967 1.338 . S
C968 H972 0.931 . S
C969 N966 1.313 . S
C969 N970 1.344 . S
C969 H973 0.930 . S
N970 C967 1.377 . S
N970 C969 1.344 . S
O971 Co963 2.055 . S
O971 C975 1.253 . S
H972 C968 0.931 . S
H973 C969 0.930 . S
O974 Co963 2.039 . S
O974 C964 1.265 . S
C975 O971 1.253 . S
C975 O976 1.227 . S
O976 C975 1.227 . S
N977 Co963 2.140 . S
N977 C980 1.346 . S
N977 C981 1.345 . S
C978 C979 1.387 . S
C978 C982 1.391 . S
C979 C978 1.387 . S
C979 C980 1.369 . S
C979 H988 0.929 . S
C980 N977 1.346 . S
C980 C979 1.369 . S
C980 H983 0.928 . S
C981 N977 1.345 . S
C981 C982 1.371 . S
C981 H984 0.931 . S
C982 C978 1.391 . S
C982 C981 1.371 . S
C982 H989 0.930 . S
H983 C980 0.928 . S
H984 C981 0.931 . S
H985 C961 0.930 . S
H986 C958 0.930 . S
H987 C967 0.930 . S
H988 C979 0.929 . S
H989 C982 0.930 . S
C990 C991 1.351 . S
C990 N993 1.368 . S
C990 H995 0.931 . S
C991 C990 1.351 . S
C991 N992 1.373 . S
C991 H1019 0.930 . S
N992 C991 1.373 . S
N992 C994 1.340 . S
N993 C990 1.368 . S
N993 C994 1.321 . S
N993 Co996 2.135 . S
C994 N992 1.340 . S
C994 N993 1.321 . S
C994 H1018 0.930 . S
H995 C990 0.931 . S
Co996 N993 2.135 . S
Co996 N999 2.121 . S
Co996 O1004 2.055 . S
Co996 O1007 2.039 . S
Co996 N1010 2.140 . S
C997 O998 1.227 . S
C997 O1007 1.265 . S
O998 C997 1.227 . S
N999 Co996 2.121 . S
N999 C1001 1.375 1_655 S
N999 C1002 1.313 . S
C1000 C1001 1.338 . S
C1000 N1003 1.377 . S
C1000 H1020 0.930 . S
C1001 N999 1.375 1_455 S
C1001 C1000 1.338 . S
C1001 H1005 0.931 . S
C1002 N999 1.313 . S
C1002 N1003 1.344 1_655 S
C1002 H1006 0.930 . S
N1003 C1000 1.377 . S
N1003 C1002 1.344 1_455 S
O1004 Co996 2.055 . S
O1004 C1008 1.253 . S
H1005 C1001 0.931 . S
H1006 C1002 0.930 . S
O1007 Co996 2.039 . S
O1007 C997 1.265 . S
C1008 O1004 1.253 . S
C1008 O1009 1.227 . S
O1009 C1008 1.227 . S
N1010 Co996 2.140 . S
N1010 C1013 1.346 . S
N1010 C1014 1.345 . S
C1011 C1012 1.404 . S
C1011 C1015 1.387 1_655 S
C1012 C1011 1.404 . S
C1012 C1013 1.369 . S
C1012 H1021 0.929 . S
C1013 N1010 1.346 . S
C1013 C1012 1.369 . S
C1013 H1016 0.928 . S
C1014 N1010 1.345 . S
C1014 C1015 1.371 1_655 S
C1014 H1017 0.931 . S
C1015 C1011 1.387 1_455 S
C1015 C1014 1.371 1_455 S
C1015 H1022 0.930 . S
H1016 C1013 0.928 . S
H1017 C1014 0.931 . S
H1018 C994 0.930 . S
H1019 C991 0.930 . S
H1020 C1000 0.930 . S
H1021 C1012 0.929 . S
H1022 C1015 0.930 . S
C1023 C1024 1.351 . S
C1023 N1026 1.368 . S
C1023 H1028 0.931 . S
C1024 C1023 1.351 . S
C1024 N1025 1.373 . S
C1024 H1052 0.930 . S
N1025 C1024 1.373 . S
N1025 C1027 1.340 . S
N1026 C1023 1.368 . S
N1026 C1027 1.321 . S
N1026 Co1029 2.135 . S
C1027 N1025 1.340 . S
C1027 N1026 1.321 . S
C1027 H1051 0.930 . S
H1028 C1023 0.931 . S
Co1029 N1026 2.135 . S
Co1029 N1032 2.121 . S
Co1029 O1037 2.055 . S
Co1029 O1040 2.039 . S
Co1029 N1043 2.140 . S
C1030 O1031 1.227 . S
C1030 O1040 1.265 . S
O1031 C1030 1.227 . S
N1032 Co1029 2.121 . S
N1032 C1034 1.375 . S
N1032 C1035 1.313 . S
C1033 C1034 1.338 . S
C1033 N1036 1.377 . S
C1033 H1053 0.930 . S
C1034 N1032 1.375 . S
C1034 C1033 1.338 . S
C1034 H1038 0.931 . S
C1035 N1032 1.313 . S
C1035 N1036 1.344 . S
C1035 H1039 0.930 . S
N1036 C1033 1.377 . S
N1036 C1035 1.344 . S
O1037 Co1029 2.055 . S
O1037 C1041 1.253 . S
H1038 C1034 0.931 . S
H1039 C1035 0.930 . S
O1040 Co1029 2.039 . S
O1040 C1030 1.265 . S
C1041 O1037 1.253 . S
C1041 O1042 1.227 . S
O1042 C1041 1.227 . S
N1043 Co1029 2.140 . S
N1043 C1046 1.346 . S
N1043 C1047 1.345 . S
C1044 C1045 1.387 . S
C1044 C1048 1.391 . S
C1045 C1044 1.387 . S
C1045 C1046 1.369 . S
C1045 H1054 0.929 . S
C1046 N1043 1.346 . S
C1046 C1045 1.369 . S
C1046 H1049 0.928 . S
C1047 N1043 1.345 . S
C1047 C1048 1.371 . S
C1047 H1050 0.931 . S
C1048 C1044 1.391 . S
C1048 C1047 1.371 . S
C1048 H1055 0.930 . S
H1049 C1046 0.928 . S
H1050 C1047 0.931 . S
H1051 C1027 0.930 . S
H1052 C1024 0.930 . S
H1053 C1033 0.930 . S
H1054 C1045 0.929 . S
H1055 C1048 0.930 . S
C1056 C1057 1.351 . S
C1056 N1059 1.368 . S
C1056 H1061 0.931 . S
C1057 C1056 1.351 . S
C1057 N1058 1.373 . S
C1057 H1085 0.930 . S
N1058 C1057 1.373 . S
N1058 C1060 1.340 . S
N1059 C1056 1.368 . S
N1059 C1060 1.321 . S
N1059 Co1062 2.135 . S
C1060 N1058 1.340 . S
C1060 N1059 1.321 . S
C1060 H1084 0.930 . S
H1061 C1056 0.931 . S
Co1062 N1059 2.135 . S
Co1062 N1065 2.121 . S
Co1062 O1070 2.055 . S
Co1062 O1073 2.039 . S
Co1062 N1076 2.140 . S
C1063 O1064 1.227 . S
C1063 O1073 1.265 . S
O1064 C1063 1.227 . S
N1065 Co1062 2.121 . S
N1065 C1067 1.375 . S
N1065 C1068 1.313 . S
C1066 C1067 1.338 . S
C1066 N1069 1.377 . S
C1066 H1086 0.930 . S
C1067 N1065 1.375 . S
C1067 C1066 1.338 . S
C1067 H1071 0.931 . S
C1068 N1065 1.313 . S
C1068 N1069 1.344 . S
C1068 H1072 0.930 . S
N1069 C1066 1.377 . S
N1069 C1068 1.344 . S
O1070 Co1062 2.055 . S
O1070 C1074 1.253 . S
H1071 C1067 0.931 . S
H1072 C1068 0.930 . S
O1073 Co1062 2.039 . S
O1073 C1063 1.265 . S
C1074 O1070 1.253 . S
C1074 O1075 1.227 . S
O1075 C1074 1.227 . S
N1076 Co1062 2.140 . S
N1076 C1079 1.346 . S
N1076 C1080 1.345 . S
C1077 C1078 1.387 . S
C1077 C1081 1.391 . S
C1078 C1077 1.387 . S
C1078 C1079 1.369 . S
C1078 H1087 0.929 . S
C1079 N1076 1.346 . S
C1079 C1078 1.369 . S
C1079 H1082 0.928 . S
C1080 N1076 1.345 . S
C1080 C1081 1.371 . S
C1080 H1083 0.931 . S
C1081 C1077 1.391 . S
C1081 C1080 1.371 . S
C1081 H1088 0.930 . S
H1082 C1079 0.928 . S
H1083 C1080 0.931 . S
H1084 C1060 0.930 . S
H1085 C1057 0.930 . S
H1086 C1066 0.930 . S
H1087 C1078 0.929 . S
H1088 C1081 0.930 . S
C1089 C1090 1.351 . S
C1089 N1092 1.368 . S
C1089 H1094 0.931 . S
C1090 C1089 1.351 . S
C1090 N1091 1.373 . S
C1090 H1118 0.930 . S
N1091 C1090 1.373 . S
N1091 C1093 1.340 . S
N1092 C1089 1.368 . S
N1092 C1093 1.321 . S
N1092 Co1095 2.135 . S
C1093 N1091 1.340 . S
C1093 N1092 1.321 . S
C1093 H1117 0.930 . S
H1094 C1089 0.931 . S
Co1095 N1092 2.135 . S
Co1095 N1098 2.121 . S
Co1095 O1103 2.055 . S
Co1095 O1106 2.039 . S
Co1095 N1109 2.140 . S
C1096 O1097 1.227 . S
C1096 O1106 1.265 . S
O1097 C1096 1.227 . S
N1098 Co1095 2.121 . S
N1098 C1100 1.375 . S
N1098 C1101 1.313 . S
C1099 C1100 1.338 . S
C1099 N1102 1.377 . S
C1099 H1119 0.930 . S
C1100 N1098 1.375 . S
C1100 C1099 1.338 . S
C1100 H1104 0.931 . S
C1101 N1098 1.313 . S
C1101 N1102 1.344 . S
C1101 H1105 0.930 . S
N1102 C1099 1.377 . S
N1102 C1101 1.344 . S
O1103 Co1095 2.055 . S
O1103 C1107 1.253 . S
H1104 C1100 0.931 . S
H1105 C1101 0.930 . S
O1106 Co1095 2.039 . S
O1106 C1096 1.265 . S
C1107 O1103 1.253 . S
C1107 O1108 1.227 . S
O1108 C1107 1.227 . S
N1109 Co1095 2.140 . S
N1109 C1112 1.346 . S
N1109 C1113 1.345 . S
C1110 C1111 1.387 . S
C1110 C1114 1.391 . S
C1111 C1110 1.387 . S
C1111 C1112 1.369 . S
C1111 H1120 0.929 . S
C1112 N1109 1.346 . S
C1112 C1111 1.369 . S
C1112 H1115 0.928 . S
C1113 N1109 1.345 . S
C1113 C1114 1.371 . S
C1113 H1116 0.931 . S
C1114 C1110 1.391 . S
C1114 C1113 1.371 . S
C1114 H1121 0.930 . S
H1115 C1112 0.928 . S
H1116 C1113 0.931 . S
H1117 C1093 0.930 . S
H1118 C1090 0.930 . S
H1119 C1099 0.930 . S
H1120 C1111 0.929 . S
H1121 C1114 0.930 . S
C1122 C1123 1.351 . S
C1122 N1125 1.368 . S
C1122 H1127 0.931 . S
C1123 C1122 1.351 . S
C1123 N1124 1.373 . S
C1123 H1151 0.930 1_554 S
N1124 C1123 1.373 . S
N1124 C1126 1.340 . S
N1125 C1122 1.368 . S
N1125 C1126 1.321 . S
N1125 Co1128 2.135 . S
C1126 N1124 1.340 . S
C1126 N1125 1.321 . S
C1126 H1150 0.930 . S
H1127 C1122 0.931 . S
Co1128 N1125 2.135 . S
Co1128 N1131 2.121 . S
Co1128 O1136 2.055 . S
Co1128 O1139 2.039 . S
Co1128 N1142 2.140 . S
C1129 O1130 1.227 . S
C1129 O1139 1.265 . S
O1130 C1129 1.227 . S
N1131 Co1128 2.121 . S
N1131 C1133 1.375 . S
N1131 C1134 1.313 . S
C1132 C1133 1.338 . S
C1132 N1135 1.377 . S
C1132 H1152 0.930 . S
C1133 N1131 1.375 . S
C1133 C1132 1.338 . S
C1133 H1137 0.931 . S
C1134 N1131 1.313 . S
C1134 N1135 1.344 . S
C1134 H1138 0.930 . S
N1135 C1132 1.377 . S
N1135 C1134 1.344 . S
O1136 Co1128 2.055 . S
O1136 C1140 1.253 . S
H1137 C1133 0.931 . S
H1138 C1134 0.930 . S
O1139 Co1128 2.039 . S
O1139 C1129 1.265 . S
C1140 O1136 1.253 . S
C1140 O1141 1.227 . S
O1141 C1140 1.227 . S
N1142 Co1128 2.140 . S
N1142 C1145 1.346 . S
N1142 C1146 1.345 . S
C1143 C1144 1.387 1_556 S
C1143 C1147 1.391 . S
C1144 C1143 1.387 1_554 S
C1144 C1145 1.369 . S
C1144 H1153 0.929 . S
C1145 N1142 1.346 . S
C1145 C1144 1.369 . S
C1145 H1148 0.928 . S
C1146 N1142 1.345 . S
C1146 C1147 1.371 1_554 S
C1146 H1149 0.931 . S
C1147 C1143 1.391 . S
C1147 C1146 1.371 1_556 S
C1147 H1154 0.930 . S
H1148 C1145 0.928 . S
H1149 C1146 0.931 . S
H1150 C1126 0.930 . S
H1151 C1123 0.930 1_556 S
H1152 C1132 0.930 . S
H1153 C1144 0.929 . S
H1154 C1147 0.930 . S
C1155 C1156 1.351 . S
C1155 N1158 1.368 . S
C1155 H1160 0.931 . S
C1156 C1155 1.351 . S
C1156 N1157 1.373 . S
C1156 H1184 0.930 . S
N1157 C1156 1.373 . S
N1157 C1159 1.340 . S
N1158 C1155 1.368 . S
N1158 C1159 1.321 . S
N1158 Co1161 2.135 . S
C1159 N1157 1.340 . S
C1159 N1158 1.321 . S
C1159 H1183 0.930 . S
H1160 C1155 0.931 . S
Co1161 N1158 2.135 . S
Co1161 N1164 2.121 . S
Co1161 O1169 2.055 . S
Co1161 O1172 2.039 . S
Co1161 N1175 2.140 . S
C1162 O1163 1.227 . S
C1162 O1172 1.265 . S
O1163 C1162 1.227 . S
N1164 Co1161 2.121 . S
N1164 C1166 1.375 . S
N1164 C1167 1.313 . S
C1165 C1166 1.338 . S
C1165 N1168 1.377 . S
C1165 H1185 0.930 . S
C1166 N1164 1.375 . S
C1166 C1165 1.338 . S
C1166 H1170 0.931 . S
C1167 N1164 1.313 . S
C1167 N1168 1.344 . S
C1167 H1171 0.930 . S
N1168 C1165 1.377 . S
N1168 C1167 1.344 . S
O1169 Co1161 2.055 . S
O1169 C1173 1.253 . S
H1170 C1166 0.931 . S
H1171 C1167 0.930 . S
O1172 Co1161 2.039 . S
O1172 C1162 1.265 . S
C1173 O1169 1.253 . S
C1173 O1174 1.227 . S
O1174 C1173 1.227 . S
N1175 Co1161 2.140 . S
N1175 C1178 1.346 . S
N1175 C1179 1.345 . S
C1176 C1177 1.387 . S
C1176 C1180 1.391 . S
C1177 C1176 1.387 . S
C1177 C1178 1.369 . S
C1177 H1186 0.929 . S
C1178 N1175 1.346 . S
C1178 C1177 1.369 . S
C1178 H1181 0.928 . S
C1179 N1175 1.345 . S
C1179 C1180 1.371 . S
C1179 H1182 0.931 . S
C1180 C1176 1.391 . S
C1180 C1179 1.371 . S
C1180 H1187 0.930 . S
H1181 C1178 0.928 . S
H1182 C1179 0.931 . S
H1183 C1159 0.930 . S
H1184 C1156 0.930 . S
H1185 C1165 0.930 . S
H1186 C1177 0.929 . S
H1187 C1180 0.930 . S
C1188 C1189 1.351 . S
C1188 N1191 1.368 . S
C1188 H1193 0.931 . S
C1189 C1188 1.351 . S
C1189 N1190 1.373 . S
C1189 H1217 0.930 1_556 S
N1190 C1189 1.373 . S
N1190 C1192 1.340 . S
N1191 C1188 1.368 . S
N1191 C1192 1.321 . S
N1191 Co1194 2.135 . S
C1192 N1190 1.340 . S
C1192 N1191 1.321 . S
C1192 H1216 0.930 . S
H1193 C1188 0.931 . S
Co1194 N1191 2.135 . S
Co1194 N1197 2.121 . S
Co1194 O1202 2.055 . S
Co1194 O1205 2.039 . S
Co1194 N1208 2.140 . S
C1195 O1196 1.227 . S
C1195 O1205 1.265 . S
O1196 C1195 1.227 . S
N1197 Co1194 2.121 . S
N1197 C1199 1.375 . S
N1197 C1200 1.313 . S
C1198 C1199 1.338 . S
C1198 N1201 1.377 . S
C1198 H1218 0.930 . S
C1199 N1197 1.375 . S
C1199 C1198 1.338 . S
C1199 H1203 0.931 . S
C1200 N1197 1.313 . S
C1200 N1201 1.344 . S
C1200 H1204 0.930 . S
N1201 C1198 1.377 . S
N1201 C1200 1.344 . S
O1202 Co1194 2.055 . S
O1202 C1206 1.253 . S
H1203 C1199 0.931 . S
H1204 C1200 0.930 . S
O1205 Co1194 2.039 . S
O1205 C1195 1.265 . S
C1206 O1202 1.253 . S
C1206 O1207 1.227 . S
O1207 C1206 1.227 . S
N1208 Co1194 2.140 . S
N1208 C1211 1.346 . S
N1208 C1212 1.345 . S
C1209 C1210 1.387 1_554 S
C1209 C1213 1.391 . S
C1210 C1209 1.387 1_556 S
C1210 C1211 1.369 . S
C1210 H1219 0.929 . S
C1211 N1208 1.346 . S
C1211 C1210 1.369 . S
C1211 H1214 0.928 . S
C1212 N1208 1.345 . S
C1212 C1213 1.371 1_556 S
C1212 H1215 0.931 . S
C1213 C1209 1.391 . S
C1213 C1212 1.371 1_554 S
C1213 H1220 0.930 . S
H1214 C1211 0.928 . S
H1215 C1212 0.931 . S
H1216 C1192 0.930 . S
H1217 C1189 0.930 1_554 S
H1218 C1198 0.930 . S
H1219 C1210 0.929 . S
H1220 C1213 0.930 . S
C1221 C1222 1.351 . S
C1221 N1224 1.368 . S
C1221 H1226 0.931 . S
C1222 C1221 1.351 . S
C1222 N1223 1.373 . S
C1222 H1250 0.930 . S
N1223 C1222 1.373 . S
N1223 C1225 1.340 . S
N1224 C1221 1.368 . S
N1224 C1225 1.321 . S
N1224 Co1227 2.135 . S
C1225 N1223 1.340 . S
C1225 N1224 1.321 . S
C1225 H1249 0.930 . S
H1226 C1221 0.931 . S
Co1227 N1224 2.135 . S
Co1227 N1230 2.121 . S
Co1227 O1235 2.055 . S
Co1227 O1238 2.039 . S
Co1227 N1241 2.140 . S
C1228 O1229 1.227 . S
C1228 O1238 1.265 . S
O1229 C1228 1.227 . S
N1230 Co1227 2.121 . S
N1230 C1232 1.375 . S
N1230 C1233 1.313 . S
C1231 C1232 1.338 . S
C1231 N1234 1.377 . S
C1231 H1251 0.930 . S
C1232 N1230 1.375 . S
C1232 C1231 1.338 . S
C1232 H1236 0.931 . S
C1233 N1230 1.313 . S
C1233 N1234 1.344 . S
C1233 H1237 0.930 . S
N1234 C1231 1.377 . S
N1234 C1233 1.344 . S
O1235 Co1227 2.055 . S
O1235 C1239 1.253 . S
H1236 C1232 0.931 . S
H1237 C1233 0.930 . S
O1238 Co1227 2.039 . S
O1238 C1228 1.265 . S
C1239 O1235 1.253 . S
C1239 O1240 1.227 . S
O1240 C1239 1.227 . S
N1241 Co1227 2.140 . S
N1241 C1244 1.346 . S
N1241 C1245 1.345 . S
C1242 C1243 1.387 . S
C1242 C1246 1.391 . S
C1243 C1242 1.387 . S
C1243 C1244 1.369 . S
C1243 H1252 0.929 . S
C1244 N1241 1.346 . S
C1244 C1243 1.369 . S
C1244 H1247 0.928 . S
C1245 N1241 1.345 . S
C1245 C1246 1.371 . S
C1245 H1248 0.931 . S
C1246 C1242 1.391 . S
C1246 C1245 1.371 . S
C1246 H1253 0.930 . S
H1247 C1244 0.928 . S
H1248 C1245 0.931 . S
H1249 C1225 0.930 . S
H1250 C1222 0.930 . S
H1251 C1231 0.930 . S
H1252 C1243 0.929 . S
H1253 C1246 0.930 . S
C1254 C1255 1.351 . S
C1254 N1257 1.368 . S
C1254 H1259 0.931 . S
C1255 C1254 1.351 . S
C1255 N1256 1.373 . S
C1255 H1283 0.930 . S
N1256 C1255 1.373 . S
N1256 C1258 1.340 . S
N1257 C1254 1.368 . S
N1257 C1258 1.321 . S
N1257 Co1260 2.135 . S
C1258 N1256 1.340 . S
C1258 N1257 1.321 . S
C1258 H1282 0.930 . S
H1259 C1254 0.931 . S
Co1260 N1257 2.135 . S
Co1260 N1263 2.121 . S
Co1260 O1268 2.055 . S
Co1260 O1271 2.039 . S
Co1260 N1274 2.140 . S
C1261 O1262 1.227 . S
C1261 O1271 1.265 . S
O1262 C1261 1.227 . S
N1263 Co1260 2.121 . S
N1263 C1265 1.375 . S
N1263 C1266 1.313 . S
C1264 C1265 1.338 . S
C1264 N1267 1.377 . S
C1264 H1284 0.930 . S
C1265 N1263 1.375 . S
C1265 C1264 1.338 . S
C1265 H1269 0.931 . S
C1266 N1263 1.313 . S
C1266 N1267 1.344 . S
C1266 H1270 0.930 . S
N1267 C1264 1.377 . S
N1267 C1266 1.344 . S
O1268 Co1260 2.055 . S
O1268 C1272 1.253 . S
H1269 C1265 0.931 . S
H1270 C1266 0.930 . S
O1271 Co1260 2.039 . S
O1271 C1261 1.265 . S
C1272 O1268 1.253 . S
C1272 O1273 1.227 . S
O1273 C1272 1.227 . S
N1274 Co1260 2.140 . S
N1274 C1277 1.346 . S
N1274 C1278 1.345 . S
C1275 C1276 1.387 . S
C1275 C1279 1.391 . S
C1276 C1275 1.387 . S
C1276 C1277 1.369 . S
C1276 H1285 0.929 . S
C1277 N1274 1.346 . S
C1277 C1276 1.369 . S
C1277 H1280 0.928 . S
C1278 N1274 1.345 . S
C1278 C1279 1.371 . S
C1278 H1281 0.931 . S
C1279 C1275 1.391 . S
C1279 C1278 1.371 . S
C1279 H1286 0.930 . S
H1280 C1277 0.928 . S
H1281 C1278 0.931 . S
H1282 C1258 0.930 . S
H1283 C1255 0.930 . S
H1284 C1264 0.930 . S
H1285 C1276 0.929 . S
H1286 C1279 0.930 . S
C1287 C1288 1.351 . S
C1287 N1290 1.368 . S
C1287 H1292 0.931 . S
C1288 C1287 1.351 . S
C1288 N1289 1.373 . S
C1288 H1316 0.930 . S
N1289 C1288 1.373 . S
N1289 C1291 1.340 . S
N1290 C1287 1.368 . S
N1290 C1291 1.321 . S
N1290 Co1293 2.135 . S
C1291 N1289 1.340 . S
C1291 N1290 1.321 . S
C1291 H1315 0.930 . S
H1292 C1287 0.931 . S
Co1293 N1290 2.135 . S
Co1293 N1296 2.121 . S
Co1293 O1301 2.055 . S
Co1293 O1304 2.039 . S
Co1293 N1307 2.140 . S
C1294 O1295 1.227 . S
C1294 O1304 1.265 . S
O1295 C1294 1.227 . S
N1296 Co1293 2.121 . S
N1296 C1298 1.375 . S
N1296 C1299 1.313 . S
C1297 C1298 1.338 . S
C1297 N1300 1.377 . S
C1297 H1317 0.930 . S
C1298 N1296 1.375 . S
C1298 C1297 1.338 . S
C1298 H1302 0.931 . S
C1299 N1296 1.313 . S
C1299 N1300 1.344 . S
C1299 H1303 0.930 . S
N1300 C1297 1.377 . S
N1300 C1299 1.344 . S
O1301 Co1293 2.055 . S
O1301 C1305 1.253 . S
H1302 C1298 0.931 . S
H1303 C1299 0.930 . S
O1304 Co1293 2.039 . S
O1304 C1294 1.265 . S
C1305 O1301 1.253 . S
C1305 O1306 1.227 . S
O1306 C1305 1.227 . S
N1307 Co1293 2.140 . S
N1307 C1310 1.346 . S
N1307 C1311 1.345 . S
C1308 C1309 1.387 . S
C1308 C1312 1.391 . S
C1309 C1308 1.387 . S
C1309 C1310 1.369 . S
C1309 H1318 0.929 . S
C1310 N1307 1.346 . S
C1310 C1309 1.369 . S
C1310 H1313 0.928 . S
C1311 N1307 1.345 . S
C1311 C1312 1.371 . S
C1311 H1314 0.931 . S
C1312 C1308 1.391 . S
C1312 C1311 1.371 . S
C1312 H1319 0.930 . S
H1313 C1310 0.928 . S
H1314 C1311 0.931 . S
H1315 C1291 0.930 . S
H1316 C1288 0.930 . S
H1317 C1297 0.930 . S
H1318 C1309 0.929 . S
H1319 C1312 0.930 . S
C1320 C1321 1.351 . S
C1320 N1323 1.368 . S
C1320 H1325 0.931 . S
C1321 C1320 1.351 . S
C1321 N1322 1.373 . S
C1321 H1349 0.930 . S
N1322 C1321 1.373 . S
N1322 C1324 1.340 . S
N1323 C1320 1.368 . S
N1323 C1324 1.321 . S
N1323 Co1326 2.135 . S
C1324 N1322 1.340 . S
C1324 N1323 1.321 . S
C1324 H1348 0.930 . S
H1325 C1320 0.931 . S
Co1326 N1323 2.135 . S
Co1326 N1329 2.121 . S
Co1326 O1334 2.055 . S
Co1326 O1337 2.039 . S
Co1326 N1340 2.140 . S
C1327 O1328 1.227 . S
C1327 O1337 1.265 . S
O1328 C1327 1.227 . S
N1329 Co1326 2.121 . S
N1329 C1331 1.375 . S
N1329 C1332 1.313 . S
C1330 C1331 1.338 . S
C1330 N1333 1.377 . S
C1330 H1350 0.930 . S
C1331 N1329 1.375 . S
C1331 C1330 1.338 . S
C1331 H1335 0.931 . S
C1332 N1329 1.313 . S
C1332 N1333 1.344 . S
C1332 H1336 0.930 . S
N1333 C1330 1.377 . S
N1333 C1332 1.344 . S
O1334 Co1326 2.055 . S
O1334 C1338 1.253 . S
H1335 C1331 0.931 . S
H1336 C1332 0.930 . S
O1337 Co1326 2.039 . S
O1337 C1327 1.265 . S
C1338 O1334 1.253 . S
C1338 O1339 1.227 . S
O1339 C1338 1.227 . S
N1340 Co1326 2.140 . S
N1340 C1343 1.346 . S
N1340 C1344 1.345 . S
C1341 C1342 1.387 . S
C1341 C1345 1.391 . S
C1342 C1341 1.387 . S
C1342 C1343 1.369 . S
C1342 H1351 0.929 . S
C1343 N1340 1.346 . S
C1343 C1342 1.369 . S
C1343 H1346 0.928 . S
C1344 N1340 1.345 . S
C1344 C1345 1.371 . S
C1344 H1347 0.931 . S
C1345 C1341 1.391 . S
C1345 C1344 1.371 . S
C1345 H1352 0.930 . S
H1346 C1343 0.928 . S
H1347 C1344 0.931 . S
H1348 C1324 0.930 . S
H1349 C1321 0.930 . S
H1350 C1330 0.930 . S
H1351 C1342 0.929 . S
H1352 C1345 0.930 . S
C1353 C1354 1.351 . S
C1353 N1356 1.368 . S
C1353 H1358 0.931 . S
C1354 C1353 1.351 . S
C1354 N1355 1.373 . S
C1354 H1382 0.930 1_455 S
N1355 C1354 1.373 . S
N1355 C1357 1.340 . S
N1356 C1353 1.368 . S
N1356 C1357 1.321 . S
N1356 Co1359 2.135 . S
C1357 N1355 1.340 . S
C1357 N1356 1.321 . S
C1357 H1381 0.930 . S
H1358 C1353 0.931 . S
Co1359 N1356 2.135 . S
Co1359 N1362 2.121 . S
Co1359 O1367 2.055 . S
Co1359 O1370 2.039 . S
Co1359 N1373 2.140 . S
C1360 O1361 1.227 . S
C1360 O1370 1.265 . S
O1361 C1360 1.227 . S
N1362 Co1359 2.121 . S
N1362 C1364 1.375 . S
N1362 C1365 1.313 . S
C1363 C1364 1.338 . S
C1363 N1366 1.377 . S
C1363 H1383 0.930 . S
C1364 N1362 1.375 . S
C1364 C1363 1.338 . S
C1364 H1368 0.931 . S
C1365 N1362 1.313 . S
C1365 N1366 1.344 . S
C1365 H1369 0.930 . S
N1366 C1363 1.377 . S
N1366 C1365 1.344 . S
O1367 Co1359 2.055 . S
O1367 C1371 1.253 . S
H1368 C1364 0.931 . S
H1369 C1365 0.930 . S
O1370 Co1359 2.039 . S
O1370 C1360 1.265 . S
C1371 O1367 1.253 . S
C1371 O1372 1.227 . S
O1372 C1371 1.227 . S
N1373 Co1359 2.140 . S
N1373 C1376 1.346 . S
N1373 C1377 1.345 . S
C1374 C1375 1.387 1_655 S
C1374 C1378 1.391 . S
C1375 C1374 1.387 1_455 S
C1375 C1376 1.369 . S
C1375 H1384 0.929 . S
C1376 N1373 1.346 . S
C1376 C1375 1.369 . S
C1376 H1379 0.928 . S
C1377 N1373 1.345 . S
C1377 C1378 1.371 1_455 S
C1377 H1380 0.931 . S
C1378 C1374 1.391 . S
C1378 C1377 1.371 1_655 S
C1378 H1385 0.930 . S
H1379 C1376 0.928 . S
H1380 C1377 0.931 . S
H1381 C1357 0.930 . S
H1382 C1354 0.930 1_655 S
H1383 C1363 0.930 . S
H1384 C1375 0.929 . S
H1385 C1378 0.930 . S
C1386 C1387 1.351 . S
C1386 N1389 1.368 . S
C1386 H1391 0.931 . S
C1387 C1386 1.351 . S
C1387 N1388 1.373 . S
C1387 H1415 0.930 . S
N1388 C1387 1.373 . S
N1388 C1390 1.340 . S
N1389 C1386 1.368 . S
N1389 C1390 1.321 . S
N1389 Co1392 2.135 . S
C1390 N1388 1.340 . S
C1390 N1389 1.321 . S
C1390 H1414 0.930 . S
H1391 C1386 0.931 . S
Co1392 N1389 2.135 . S
Co1392 N1395 2.121 . S
Co1392 O1400 2.055 . S
Co1392 O1403 2.039 . S
Co1392 N1406 2.140 . S
C1393 O1394 1.227 . S
C1393 O1403 1.265 . S
O1394 C1393 1.227 . S
N1395 Co1392 2.121 . S
N1395 C1397 1.375 . S
N1395 C1398 1.313 . S
C1396 C1397 1.338 . S
C1396 N1399 1.377 . S
C1396 H1416 0.930 . S
C1397 N1395 1.375 . S
C1397 C1396 1.338 . S
C1397 H1401 0.931 . S
C1398 N1395 1.313 . S
C1398 N1399 1.344 . S
C1398 H1402 0.930 . S
N1399 C1396 1.377 . S
N1399 C1398 1.344 . S
O1400 Co1392 2.055 . S
O1400 C1404 1.253 . S
H1401 C1397 0.931 . S
H1402 C1398 0.930 . S
O1403 Co1392 2.039 . S
O1403 C1393 1.265 . S
C1404 O1400 1.253 . S
C1404 O1405 1.227 . S
O1405 C1404 1.227 . S
N1406 Co1392 2.140 . S
N1406 C1409 1.346 . S
N1406 C1410 1.345 . S
C1407 C1408 1.387 . S
C1407 C1411 1.391 . S
C1408 C1407 1.387 . S
C1408 C1409 1.369 . S
C1408 H1417 0.929 . S
C1409 N1406 1.346 . S
C1409 C1408 1.369 . S
C1409 H1412 0.928 . S
C1410 N1406 1.345 . S
C1410 C1411 1.371 . S
C1410 H1413 0.931 . S
C1411 C1407 1.391 . S
C1411 C1410 1.371 . S
C1411 H1418 0.930 . S
H1412 C1409 0.928 . S
H1413 C1410 0.931 . S
H1414 C1390 0.930 . S
H1415 C1387 0.930 . S
H1416 C1396 0.930 . S
H1417 C1408 0.929 . S
H1418 C1411 0.930 . S
C1419 C1420 1.351 . S
C1419 N1422 1.368 . S
C1419 H1424 0.931 . S
C1420 C1419 1.351 . S
C1420 N1421 1.373 . S
C1420 H1448 0.930 . S
N1421 C1420 1.373 . S
N1421 C1423 1.340 . S
N1422 C1419 1.368 . S
N1422 C1423 1.321 . S
N1422 Co1425 2.135 . S
C1423 N1421 1.340 . S
C1423 N1422 1.321 . S
C1423 H1447 0.930 . S
H1424 C1419 0.931 . S
Co1425 N1422 2.135 . S
Co1425 N1428 2.121 . S
Co1425 O1433 2.055 . S
Co1425 O1436 2.039 . S
Co1425 N1439 2.140 . S
C1426 O1427 1.227 . S
C1426 O1436 1.265 . S
O1427 C1426 1.227 . S
N1428 Co1425 2.121 . S
N1428 C1430 1.375 1_556 S
N1428 C1431 1.313 . S
C1429 C1430 1.338 . S
C1429 N1432 1.377 . S
C1429 H1449 0.930 . S
C1430 N1428 1.375 1_554 S
C1430 C1429 1.338 . S
C1430 H1434 0.931 . S
C1431 N1428 1.313 . S
C1431 N1432 1.344 1_556 S
C1431 H1435 0.930 . S
N1432 C1429 1.377 . S
N1432 C1431 1.344 1_554 S
O1433 Co1425 2.055 . S
O1433 C1437 1.253 . S
H1434 C1430 0.931 . S
H1435 C1431 0.930 . S
O1436 Co1425 2.039 . S
O1436 C1426 1.265 . S
C1437 O1433 1.253 . S
C1437 O1438 1.227 . S
O1438 C1437 1.227 . S
N1439 Co1425 2.140 . S
N1439 C1442 1.346 . S
N1439 C1443 1.345 . S
C1440 C1441 1.402 . S
C1440 C1444 1.387 1_556 S
C1441 C1440 1.402 . S
C1441 C1442 1.369 . S
C1441 H1450 0.929 . S
C1442 N1439 1.346 . S
C1442 C1441 1.369 . S
C1442 H1445 0.928 . S
C1443 N1439 1.345 . S
C1443 C1444 1.371 1_556 S
C1443 H1446 0.931 . S
C1444 C1440 1.387 1_554 S
C1444 C1443 1.371 1_554 S
C1444 H1451 0.930 . S
H1445 C1442 0.928 . S
H1446 C1443 0.931 . S
H1447 C1423 0.930 . S
H1448 C1420 0.930 . S
H1449 C1429 0.930 . S
H1450 C1441 0.929 . S
H1451 C1444 0.930 . S
C1452 C1453 1.351 . S
C1452 N1455 1.368 . S
C1452 H1457 0.931 . S
C1453 C1452 1.351 . S
C1453 N1454 1.373 . S
C1453 H1481 0.930 . S
N1454 C1453 1.373 . S
N1454 C1456 1.340 . S
N1455 C1452 1.368 . S
N1455 C1456 1.321 . S
N1455 Co1458 2.135 . S
C1456 N1454 1.340 . S
C1456 N1455 1.321 . S
C1456 H1480 0.930 . S
H1457 C1452 0.931 . S
Co1458 N1455 2.135 . S
Co1458 N1461 2.121 . S
Co1458 O1466 2.055 . S
Co1458 O1469 2.039 . S
Co1458 N1472 2.140 . S
C1459 O1460 1.227 . S
C1459 O1469 1.265 . S
O1460 C1459 1.227 . S
N1461 Co1458 2.121 . S
N1461 C1463 1.375 . S
N1461 C1464 1.313 . S
C1462 C1463 1.338 . S
C1462 N1465 1.377 . S
C1462 H1482 0.930 . S
C1463 N1461 1.375 . S
C1463 C1462 1.338 . S
C1463 H1467 0.931 . S
C1464 N1461 1.313 . S
C1464 N1465 1.344 . S
C1464 H1468 0.930 . S
N1465 C1462 1.377 . S
N1465 C1464 1.344 . S
O1466 Co1458 2.055 . S
O1466 C1470 1.253 . S
H1467 C1463 0.931 . S
H1468 C1464 0.930 . S
O1469 Co1458 2.039 . S
O1469 C1459 1.265 . S
C1470 O1466 1.253 . S
C1470 O1471 1.227 . S
O1471 C1470 1.227 . S
N1472 Co1458 2.140 . S
N1472 C1475 1.346 . S
N1472 C1476 1.345 . S
C1473 C1474 1.387 . S
C1473 C1477 1.391 . S
C1474 C1473 1.387 . S
C1474 C1475 1.369 . S
C1474 H1483 0.929 . S
C1475 N1472 1.346 . S
C1475 C1474 1.369 . S
C1475 H1478 0.928 . S
C1476 N1472 1.345 . S
C1476 C1477 1.371 . S
C1476 H1479 0.931 . S
C1477 C1473 1.391 . S
C1477 C1476 1.371 . S
C1477 H1484 0.930 . S
H1478 C1475 0.928 . S
H1479 C1476 0.931 . S
H1480 C1456 0.930 . S
H1481 C1453 0.930 . S
H1482 C1462 0.930 . S
H1483 C1474 0.929 . S
H1484 C1477 0.930 . S
C1485 C1486 1.351 . S
C1485 N1488 1.368 . S
C1485 H1490 0.931 . S
C1486 C1485 1.351 . S
C1486 N1487 1.373 . S
C1486 H1514 0.930 1_655 S
N1487 C1486 1.373 . S
N1487 C1489 1.340 . S
N1488 C1485 1.368 . S
N1488 C1489 1.321 . S
N1488 Co1491 2.135 . S
C1489 N1487 1.340 . S
C1489 N1488 1.321 . S
C1489 H1513 0.930 . S
H1490 C1485 0.931 . S
Co1491 N1488 2.135 . S
Co1491 N1494 2.121 . S
Co1491 O1499 2.055 . S
Co1491 O1502 2.039 . S
Co1491 N1505 2.140 . S
C1492 O1493 1.227 . S
C1492 O1502 1.265 . S
O1493 C1492 1.227 . S
N1494 Co1491 2.121 . S
N1494 C1496 1.375 1_554 S
N1494 C1497 1.313 . S
C1495 C1496 1.338 . S
C1495 N1498 1.377 . S
C1495 H1515 0.930 . S
C1496 N1494 1.375 1_556 S
C1496 C1495 1.338 . S
C1496 H1500 0.931 . S
C1497 N1494 1.313 . S
C1497 N1498 1.344 1_554 S
C1497 H1501 0.930 . S
N1498 C1495 1.377 . S
N1498 C1497 1.344 1_556 S
O1499 Co1491 2.055 . S
O1499 C1503 1.253 . S
H1500 C1496 0.931 . S
H1501 C1497 0.930 . S
O1502 Co1491 2.039 . S
O1502 C1492 1.265 . S
C1503 O1499 1.253 . S
C1503 O1504 1.227 . S
O1504 C1503 1.227 . S
N1505 Co1491 2.140 . S
N1505 C1508 1.346 . S
N1505 C1509 1.345 . S
C1506 C1507 1.403 1_455 S
C1506 C1510 1.387 1_554 S
C1507 C1506 1.403 1_655 S
C1507 C1508 1.369 . S
C1507 H1516 0.929 . S
C1508 N1505 1.346 . S
C1508 C1507 1.369 . S
C1508 H1511 0.928 . S
C1509 N1505 1.345 . S
C1509 C1510 1.371 1_654 S
C1509 H1512 0.931 . S
C1510 C1506 1.387 1_556 S
C1510 C1509 1.371 1_456 S
C1510 H1517 0.930 . S
H1511 C1508 0.928 . S
H1512 C1509 0.931 . S
H1513 C1489 0.930 . S
H1514 C1486 0.930 1_455 S
H1515 C1495 0.930 . S
H1516 C1507 0.929 . S
H1517 C1510 0.930 . S
C1518 C1519 1.351 . S
C1518 N1521 1.368 . S
C1518 H1523 0.931 . S
C1519 C1518 1.351 . S
C1519 N1520 1.373 . S
C1519 H1547 0.930 . S
N1520 C1519 1.373 . S
N1520 C1522 1.340 . S
N1521 C1518 1.368 . S
N1521 C1522 1.321 . S
N1521 Co1524 2.135 . S
C1522 N1520 1.340 . S
C1522 N1521 1.321 . S
C1522 H1546 0.930 . S
H1523 C1518 0.931 . S
Co1524 N1521 2.135 . S
Co1524 N1527 2.121 . S
Co1524 O1532 2.055 . S
Co1524 O1535 2.039 . S
Co1524 N1538 2.140 . S
C1525 O1526 1.227 . S
C1525 O1535 1.265 . S
O1526 C1525 1.227 . S
N1527 Co1524 2.121 . S
N1527 C1529 1.375 . S
N1527 C1530 1.313 . S
C1528 C1529 1.338 . S
C1528 N1531 1.377 . S
C1528 H1548 0.930 . S
C1529 N1527 1.375 . S
C1529 C1528 1.338 . S
C1529 H1533 0.931 . S
C1530 N1527 1.313 . S
C1530 N1531 1.344 . S
C1530 H1534 0.930 . S
N1531 C1528 1.377 . S
N1531 C1530 1.344 . S
O1532 Co1524 2.055 . S
O1532 C1536 1.253 . S
H1533 C1529 0.931 . S
H1534 C1530 0.930 . S
O1535 Co1524 2.039 . S
O1535 C1525 1.265 . S
C1536 O1532 1.253 . S
C1536 O1537 1.227 . S
O1537 C1536 1.227 . S
N1538 Co1524 2.140 . S
N1538 C1541 1.346 . S
N1538 C1542 1.345 . S
C1539 C1540 1.387 . S
C1539 C1543 1.391 . S
C1540 C1539 1.387 . S
C1540 C1541 1.369 . S
C1540 H1549 0.929 . S
C1541 N1538 1.346 . S
C1541 C1540 1.369 . S
C1541 H1544 0.928 . S
C1542 N1538 1.345 . S
C1542 C1543 1.371 . S
C1542 H1545 0.931 . S
C1543 C1539 1.391 . S
C1543 C1542 1.371 . S
C1543 H1550 0.930 . S
H1544 C1541 0.928 . S
H1545 C1542 0.931 . S
H1546 C1522 0.930 . S
H1547 C1519 0.930 . S
H1548 C1528 0.930 . S
H1549 C1540 0.929 . S
H1550 C1543 0.930 . S
C1551 C1552 1.351 . S
C1551 N1554 1.368 . S
C1551 H1556 0.931 . S
C1552 C1551 1.351 . S
C1552 N1553 1.373 . S
C1552 H1580 0.930 . S
N1553 C1552 1.373 . S
N1553 C1555 1.340 . S
N1554 C1551 1.368 . S
N1554 C1555 1.321 . S
N1554 Co1557 2.135 . S
C1555 N1553 1.340 . S
C1555 N1554 1.321 . S
C1555 H1579 0.930 . S
H1556 C1551 0.931 . S
Co1557 N1554 2.135 . S
Co1557 N1560 2.121 . S
Co1557 O1565 2.055 . S
Co1557 O1568 2.039 . S
Co1557 N1571 2.140 . S
C1558 O1559 1.227 . S
C1558 O1568 1.265 . S
O1559 C1558 1.227 . S
N1560 Co1557 2.121 . S
N1560 C1562 1.375 . S
N1560 C1563 1.313 . S
C1561 C1562 1.338 . S
C1561 N1564 1.377 . S
C1561 H1581 0.930 . S
C1562 N1560 1.375 . S
C1562 C1561 1.338 . S
C1562 H1566 0.931 . S
C1563 N1560 1.313 . S
C1563 N1564 1.344 . S
C1563 H1567 0.930 . S
N1564 C1561 1.377 . S
N1564 C1563 1.344 . S
O1565 Co1557 2.055 . S
O1565 C1569 1.253 . S
H1566 C1562 0.931 . S
H1567 C1563 0.930 . S
O1568 Co1557 2.039 . S
O1568 C1558 1.265 . S
C1569 O1565 1.253 . S
C1569 O1570 1.227 . S
O1570 C1569 1.227 . S
N1571 Co1557 2.140 . S
N1571 C1574 1.346 . S
N1571 C1575 1.345 . S
C1572 C1573 1.387 . S
C1572 C1576 1.391 . S
C1573 C1572 1.387 . S
C1573 C1574 1.369 . S
C1573 H1582 0.929 . S
C1574 N1571 1.346 . S
C1574 C1573 1.369 . S
C1574 H1577 0.928 . S
C1575 N1571 1.345 . S
C1575 C1576 1.371 . S
C1575 H1578 0.931 . S
C1576 C1572 1.391 . S
C1576 C1575 1.371 . S
C1576 H1583 0.930 . S
H1577 C1574 0.928 . S
H1578 C1575 0.931 . S
H1579 C1555 0.930 . S
H1580 C1552 0.930 . S
H1581 C1561 0.930 . S
H1582 C1573 0.929 . S
H1583 C1576 0.930 . S
C546 N13 3.148 1_455 S
N46 C1569 3.147 . S
N79 C711 3.149 . S
N112 C1536 3.148 . S
N145 C1371 3.148 1_655 S
N178 C1404 3.150 . S
N211 C1437 3.147 . S
C678 N244 3.149 . S
N277 C18 3.148 1_565 S
N310 C51 3.148 . S
N343 C84 3.147 1_545 S
N376 C117 3.150 . S
N409 C150 3.150 1_545 S
C183 N442 3.148 . S
C216 N475 3.148 1_545 S
N508 C249 3.149 . S
C282 N541 3.148 1_554 S
C1206 N574 3.147 1_556 S
C1239 N607 3.148 . S
C1272 N640 3.149 . S
N673 C513 3.149 . S
N706 C348 3.148 . S
C1173 N739 3.148 . S
N772 C1107 3.150 . S
N805 C1338 3.148 . S
C777 N838 3.148 . S
C1503 N871 3.150 1_655 S
N904 C744 3.148 . S
N937 C579 3.148 . S
C612 N970 3.150 . S
C645 N1003 3.147 1_655 S
C1470 N1036 3.149 . S
C810 N1069 3.148 . S
C843 N1102 3.148 . S
N1135 C876 3.147 . S
N1168 C909 3.150 . S
N1201 C942 3.149 . S
N1234 C975 3.147 . S
N1267 C1008 3.148 . S
C1041 N1300 3.149 . S
C1074 N1333 3.148 . S
C414 N1366 3.147 . S
N1399 C447 3.148 . S
C480 N1432 3.150 1_556 S
C1305 N1465 3.149 . S
N1498 C1140 3.148 1_556 S
N1531 C381 3.147 . S
C315 N1564 3.150 . S
N497 N2 0.712 . S
N35 N398 0.712 . S
N431 N68 0.712 . S
N464 N101 0.711 . S
N134 N299 0.711 . S
N167 N332 0.712 . S
N365 N200 0.712 . S
N233 N266 0.712 . S
N662 N530 0.712 . S
N563 N761 0.712 . S
N1487 N596 0.711 . S
N728 N629 0.712 . S
N695 N1388 0.711 . S
N794 N1289 0.712 . S
N1190 N827 0.712 . S
N1223 N860 0.712 . S
N1256 N893 0.711 . S
N1091 N926 0.711 . S
N959 N1124 0.712 . S
N1157 N992 0.712 . S
N1025 N1058 0.712 . S
N1454 N1322 0.712 . S
N1355 N1553 0.712 . S
N1520 N1421 0.712 . S
C667 C7 2.098 . S
C40 C1360 2.098 . S
C73 C1393 2.098 . S
C106 C1426 2.098 . S
C139 C1558 2.098 . S
C700 C172 2.098 . S
C205 C1525 2.098 . S
C238 C535 2.098 . S
C502 C271 2.098 . S
C403 C304 2.098 . S
C337 C436 2.098 . S
C469 C370 2.098 . S
C832 C568 2.098 . S
C601 C865 2.098 . S
C634 C898 2.098 . S
C997 C733 2.098 . S
C931 C766 2.098 . S
C799 C1459 2.098 . S
C1492 C964 2.098 . S
C1327 C1030 2.098 . S
C1063 C1294 2.098 . S
C1195 C1096 2.098 . S
C1129 C1228 2.098 . S
C1162 C1261 2.098 . S
C153 C21 3.326 1_545 S
C186 C54 3.322 . S
C219 C87 3.324 1_565 S
C120 C252 3.325 1_556 S
C483 C285 3.326 1_554 S
C516 C318 3.325 1_545 S
C351 C417 3.323 . S
C384 C450 3.323 1_545 S
C549 C1506 3.326 1_655 S
C582 C1440 3.323 . S
C615 C681 3.325 1_655 S
C1374 C648 3.324 1_655 S
C1341 C714 3.325 . S
C747 C1572 3.323 1_655 S
C1539 C780 3.322 . S
C945 C813 3.325 . S
C978 C846 3.323 1_554 S
C879 C1011 3.323 . S
C912 C1044 3.326 . S
C1077 C1275 3.325 . S
C1110 C1308 3.326 . S
C1143 C1209 3.324 1_556 S
C1176 C1242 3.322 . S
C1473 C1407 3.326 . S
