# Generated by pormake.
# Topology ato, (4)-cn, num edge types: 1
# Building blocks:
#     Node 0, Type 0, BuildingBlock: CEKHIL_clean_sbu_0, # of connection points: 4
#     Node 1, Type 0, BuildingBlock: CEKHIL_clean_sbu_0, # of connection points: 4
#     Node 2, Type 0, BuildingBlock: CEKHIL_clean_sbu_0, # of connection points: 4
#     Node 3, Type 0, BuildingBlock: CEKHIL_clean_sbu_0, # of connection points: 4
#     Node 4, Type 0, BuildingBlock: CEKHIL_clean_sbu_0, # of connection points: 4
#     Node 5, Type 0, BuildingBlock: CEKHIL_clean_sbu_0, # of connection points: 4
#     Node 6, Type 0, BuildingBlock: CEKHIL_clean_sbu_0, # of connection points: 4
#     Node 7, Type 0, BuildingBlock: CEKHIL_clean_sbu_0, # of connection points: 4
#     Node 8, Type 0, BuildingBlock: CEKHIL_clean_sbu_0, # of connection points: 4
#     Node 9, Type 0, BuildingBlock: CEKHIL_clean_sbu_0, # of connection points: 4
#     Node 10, Type 0, BuildingBlock: CEKHIL_clean_sbu_0, # of connection points: 4
#     Node 11, Type 0, BuildingBlock: CEKHIL_clean_sbu_0, # of connection points: 4
#     Node 12, Type 0, BuildingBlock: CEKHIL_clean_sbu_0, # of connection points: 4
#     Node 13, Type 0, BuildingBlock: CEKHIL_clean_sbu_0, # of connection points: 4
#     Node 14, Type 0, BuildingBlock: CEKHIL_clean_sbu_0, # of connection points: 4
#     Node 15, Type 0, BuildingBlock: CEKHIL_clean_sbu_0, # of connection points: 4
#     Node 16, Type 0, BuildingBlock: CEKHIL_clean_sbu_0, # of connection points: 4
#     Node 17, Type 0, BuildingBlock: CEKHIL_clean_sbu_0, # of connection points: 4
#     Node 18, Type 0, BuildingBlock: CEKHIL_clean_sbu_0, # of connection points: 4
#     Node 19, Type 0, BuildingBlock: CEKHIL_clean_sbu_0, # of connection points: 4
#     Node 20, Type 0, BuildingBlock: CEKHIL_clean_sbu_0, # of connection points: 4
#     Node 21, Type 0, BuildingBlock: CEKHIL_clean_sbu_0, # of connection points: 4
#     Node 22, Type 0, BuildingBlock: CEKHIL_clean_sbu_0, # of connection points: 4
#     Node 23, Type 0, BuildingBlock: CEKHIL_clean_sbu_0, # of connection points: 4
#     Node 24, Type 0, BuildingBlock: CEKHIL_clean_sbu_0, # of connection points: 4
#     Node 25, Type 0, BuildingBlock: CEKHIL_clean_sbu_0, # of connection points: 4
#     Node 26, Type 0, BuildingBlock: CEKHIL_clean_sbu_0, # of connection points: 4
#     Node 27, Type 0, BuildingBlock: CEKHIL_clean_sbu_0, # of connection points: 4
#     Node 28, Type 0, BuildingBlock: CEKHIL_clean_sbu_0, # of connection points: 4
#     Node 29, Type 0, BuildingBlock: CEKHIL_clean_sbu_0, # of connection points: 4
#     Node 30, Type 0, BuildingBlock: CEKHIL_clean_sbu_0, # of connection points: 4
#     Node 31, Type 0, BuildingBlock: CEKHIL_clean_sbu_0, # of connection points: 4
#     Node 32, Type 0, BuildingBlock: CEKHIL_clean_sbu_0, # of connection points: 4
#     Node 33, Type 0, BuildingBlock: CEKHIL_clean_sbu_0, # of connection points: 4
#     Node 34, Type 0, BuildingBlock: CEKHIL_clean_sbu_0, # of connection points: 4
#     Node 35, Type 0, BuildingBlock: CEKHIL_clean_sbu_0, # of connection points: 4
#     Edge 36, Type (0, 0), BuildingBlock: TEMPAE_clean_linker_10, # of connection points: 2
#     Edge 37, Type (0, 0), BuildingBlock: TEMPAE_clean_linker_10, # of connection points: 2
#     Edge 38, Type (0, 0), BuildingBlock: TEMPAE_clean_linker_10, # of connection points: 2
#     Edge 39, Type (0, 0), BuildingBlock: TEMPAE_clean_linker_10, # of connection points: 2
#     Edge 40, Type (0, 0), BuildingBlock: TEMPAE_clean_linker_10, # of connection points: 2
#     Edge 41, Type (0, 0), BuildingBlock: TEMPAE_clean_linker_10, # of connection points: 2
#     Edge 42, Type (0, 0), BuildingBlock: TEMPAE_clean_linker_10, # of connection points: 2
#     Edge 43, Type (0, 0), BuildingBlock: TEMPAE_clean_linker_10, # of connection points: 2
#     Edge 44, Type (0, 0), BuildingBlock: TEMPAE_clean_linker_10, # of connection points: 2
#     Edge 45, Type (0, 0), BuildingBlock: TEMPAE_clean_linker_10, # of connection points: 2
#     Edge 46, Type (0, 0), BuildingBlock: TEMPAE_clean_linker_10, # of connection points: 2
#     Edge 47, Type (0, 0), BuildingBlock: TEMPAE_clean_linker_10, # of connection points: 2
#     Edge 48, Type (0, 0), BuildingBlock: TEMPAE_clean_linker_10, # of connection points: 2
#     Edge 49, Type (0, 0), BuildingBlock: TEMPAE_clean_linker_10, # of connection points: 2
#     Edge 50, Type (0, 0), BuildingBlock: TEMPAE_clean_linker_10, # of connection points: 2
#     Edge 51, Type (0, 0), BuildingBlock: TEMPAE_clean_linker_10, # of connection points: 2
#     Edge 52, Type (0, 0), BuildingBlock: TEMPAE_clean_linker_10, # of connection points: 2
#     Edge 53, Type (0, 0), BuildingBlock: TEMPAE_clean_linker_10, # of connection points: 2
#     Edge 54, Type (0, 0), BuildingBlock: TEMPAE_clean_linker_10, # of connection points: 2
#     Edge 55, Type (0, 0), BuildingBlock: TEMPAE_clean_linker_10, # of connection points: 2
#     Edge 56, Type (0, 0), BuildingBlock: TEMPAE_clean_linker_10, # of connection points: 2
#     Edge 57, Type (0, 0), BuildingBlock: TEMPAE_clean_linker_10, # of connection points: 2
#     Edge 58, Type (0, 0), BuildingBlock: TEMPAE_clean_linker_10, # of connection points: 2
#     Edge 59, Type (0, 0), BuildingBlock: TEMPAE_clean_linker_10, # of connection points: 2
#     Edge 60, Type (0, 0), BuildingBlock: TEMPAE_clean_linker_10, # of connection points: 2
#     Edge 61, Type (0, 0), BuildingBlock: TEMPAE_clean_linker_10, # of connection points: 2
#     Edge 62, Type (0, 0), BuildingBlock: TEMPAE_clean_linker_10, # of connection points: 2
#     Edge 63, Type (0, 0), BuildingBlock: TEMPAE_clean_linker_10, # of connection points: 2
#     Edge 64, Type (0, 0), BuildingBlock: TEMPAE_clean_linker_10, # of connection points: 2
#     Edge 65, Type (0, 0), BuildingBlock: TEMPAE_clean_linker_10, # of connection points: 2
#     Edge 66, Type (0, 0), BuildingBlock: TEMPAE_clean_linker_10, # of connection points: 2
#     Edge 67, Type (0, 0), BuildingBlock: TEMPAE_clean_linker_10, # of connection points: 2
#     Edge 68, Type (0, 0), BuildingBlock: TEMPAE_clean_linker_10, # of connection points: 2
#     Edge 69, Type (0, 0), BuildingBlock: TEMPAE_clean_linker_10, # of connection points: 2
#     Edge 70, Type (0, 0), BuildingBlock: TEMPAE_clean_linker_10, # of connection points: 2
#     Edge 71, Type (0, 0), BuildingBlock: TEMPAE_clean_linker_10, # of connection points: 2
#     Edge 72, Type (0, 0), BuildingBlock: TEMPAE_clean_linker_10, # of connection points: 2
#     Edge 73, Type (0, 0), BuildingBlock: TEMPAE_clean_linker_10, # of connection points: 2
#     Edge 74, Type (0, 0), BuildingBlock: TEMPAE_clean_linker_10, # of connection points: 2
#     Edge 75, Type (0, 0), BuildingBlock: TEMPAE_clean_linker_10, # of connection points: 2
#     Edge 76, Type (0, 0), BuildingBlock: TEMPAE_clean_linker_10, # of connection points: 2
#     Edge 77, Type (0, 0), BuildingBlock: TEMPAE_clean_linker_10, # of connection points: 2
#     Edge 78, Type (0, 0), BuildingBlock: TEMPAE_clean_linker_10, # of connection points: 2
#     Edge 79, Type (0, 0), BuildingBlock: TEMPAE_clean_linker_10, # of connection points: 2
#     Edge 80, Type (0, 0), BuildingBlock: TEMPAE_clean_linker_10, # of connection points: 2
#     Edge 81, Type (0, 0), BuildingBlock: TEMPAE_clean_linker_10, # of connection points: 2
#     Edge 82, Type (0, 0), BuildingBlock: TEMPAE_clean_linker_10, # of connection points: 2
#     Edge 83, Type (0, 0), BuildingBlock: TEMPAE_clean_linker_10, # of connection points: 2
#     Edge 84, Type (0, 0), BuildingBlock: TEMPAE_clean_linker_10, # of connection points: 2
#     Edge 85, Type (0, 0), BuildingBlock: TEMPAE_clean_linker_10, # of connection points: 2
#     Edge 86, Type (0, 0), BuildingBlock: TEMPAE_clean_linker_10, # of connection points: 2
#     Edge 87, Type (0, 0), BuildingBlock: TEMPAE_clean_linker_10, # of connection points: 2
#     Edge 88, Type (0, 0), BuildingBlock: TEMPAE_clean_linker_10, # of connection points: 2
#     Edge 89, Type (0, 0), BuildingBlock: TEMPAE_clean_linker_10, # of connection points: 2
#     Edge 90, Type (0, 0), BuildingBlock: TEMPAE_clean_linker_10, # of connection points: 2
#     Edge 91, Type (0, 0), BuildingBlock: TEMPAE_clean_linker_10, # of connection points: 2
#     Edge 92, Type (0, 0), BuildingBlock: TEMPAE_clean_linker_10, # of connection points: 2
#     Edge 93, Type (0, 0), BuildingBlock: TEMPAE_clean_linker_10, # of connection points: 2
#     Edge 94, Type (0, 0), BuildingBlock: TEMPAE_clean_linker_10, # of connection points: 2
#     Edge 95, Type (0, 0), BuildingBlock: TEMPAE_clean_linker_10, # of connection points: 2
#     Edge 96, Type (0, 0), BuildingBlock: TEMPAE_clean_linker_10, # of connection points: 2
#     Edge 97, Type (0, 0), BuildingBlock: TEMPAE_clean_linker_10, # of connection points: 2
#     Edge 98, Type (0, 0), BuildingBlock: TEMPAE_clean_linker_10, # of connection points: 2
#     Edge 99, Type (0, 0), BuildingBlock: TEMPAE_clean_linker_10, # of connection points: 2
#     Edge 100, Type (0, 0), BuildingBlock: TEMPAE_clean_linker_10, # of connection points: 2
#     Edge 101, Type (0, 0), BuildingBlock: TEMPAE_clean_linker_10, # of connection points: 2
#     Edge 102, Type (0, 0), BuildingBlock: TEMPAE_clean_linker_10, # of connection points: 2
#     Edge 103, Type (0, 0), BuildingBlock: TEMPAE_clean_linker_10, # of connection points: 2
#     Edge 104, Type (0, 0), BuildingBlock: TEMPAE_clean_linker_10, # of connection points: 2
#     Edge 105, Type (0, 0), BuildingBlock: TEMPAE_clean_linker_10, # of connection points: 2
#     Edge 106, Type (0, 0), BuildingBlock: TEMPAE_clean_linker_10, # of connection points: 2
#     Edge 107, Type (0, 0), BuildingBlock: TEMPAE_clean_linker_10, # of connection points: 2
# Relax obj value: 0.085
# Max RMSD: 0.096
# Mean RMSD: 0.096
data_MOF--net-ato--node1-CEKHIL_clean_sbu_0--edge1-TEMPAE_clean_linker_10
_symmetry_space_group_name_H-M    P1
_symmetry_Int_Tables_number       1
_symmetry_cell_setting            triclinic
loop_
_symmetry_equiv_pos_as_xyz
'x, y, z'
_cell_length_a     102.83402
_cell_length_b     102.85955
_cell_length_c     23.467478
_cell_angle_alpha  89.962282
_cell_angle_beta   90.013024
_cell_angle_gamma 120.04283
loop_
_atom_site_label
_atom_site_type_symbol
_atom_site_fract_x
_atom_site_fract_y
_atom_site_fract_z
_atom_type_partial_charge
Co0 Co 0.25303 0.05759 0.27334 0.0
O1 O 0.23594 0.04293 0.31742 0.0
O2 O 0.25822 0.04464 0.31585 0.0
C3 C 0.2512 0.07783 0.29951 0.0
O4 O 0.27358 0.07124 0.23716 0.0
Co5 Co 0.25056 0.07687 0.17679 0.0
O6 O 0.27281 0.08832 0.17985 0.0
C7 C 0.24116 0.04492 0.15466 0.0
C8 C 0.2447 0.03822 0.33668 0.0
C9 C 0.28009 0.08303 0.20533 0.0
O10 O 0.24618 0.04375 0.20388 0.0
O11 O 0.24094 0.05674 0.13896 0.0
O12 O 0.25785 0.07282 0.3325 0.0
O13 O 0.24503 0.07001 0.25437 0.0
Co14 Co 0.94887 0.19708 0.27864 0.0
O15 O 0.9618 0.19332 0.32749 0.0
O16 O 0.96288 0.21525 0.31946 0.0
C17 C 0.92734 0.17621 0.30486 0.0
O18 O 0.93687 0.20513 0.2371 0.0
Co19 Co 0.92967 0.17515 0.18246 0.0
O20 O 0.91923 0.18696 0.1823 0.0
C21 C 0.96212 0.19599 0.16293 0.0
C22 C 0.96772 0.20716 0.34423 0.0
C23 C 0.92511 0.19992 0.20513 0.0
O24 O 0.96328 0.20251 0.21133 0.0
O25 O 0.95003 0.18432 0.14657 0.0
O26 O 0.93287 0.18822 0.33614 0.0
O27 O 0.93536 0.17678 0.26171 0.0
Co28 Co 0.81039 0.75445 0.26684 0.0
O29 O 0.81406 0.77136 0.31431 0.0
O30 O 0.79227 0.75029 0.30797 0.0
C31 C 0.83162 0.7544 0.29313 0.0
O32 O 0.80227 0.73412 0.22738 0.0
Co33 Co 0.83194 0.75632 0.17076 0.0
O34 O 0.82007 0.73408 0.17221 0.0
C35 C 0.81095 0.76771 0.14939 0.0
C36 C 0.80026 0.76338 0.33164 0.0
C37 C 0.80719 0.72725 0.19583 0.0
O38 O 0.80465 0.76289 0.1986 0.0
O39 O 0.8225 0.76704 0.1333 0.0
O40 O 0.81969 0.74791 0.32494 0.0
O41 O 0.83068 0.76137 0.24906 0.0
Co42 Co 0.05762 0.25047 0.74735 0.0
O43 O 0.04422 0.23371 0.69964 0.0
O44 O 0.04377 0.2549 0.70682 0.0
C45 C 0.07875 0.25042 0.72033 0.0
O46 O 0.07014 0.27068 0.78735 0.0
Co47 Co 0.07706 0.24791 0.8428 0.0
O48 O 0.08798 0.27017 0.8408 0.0
C49 C 0.04479 0.23696 0.86451 0.0
C50 C 0.03856 0.24185 0.6827 0.0
C51 C 0.08214 0.27728 0.81798 0.0
O52 O 0.04344 0.24199 0.81559 0.0
O53 O 0.0569 0.23737 0.88042 0.0
O54 O 0.07337 0.25704 0.68903 0.0
O55 O 0.07083 0.24331 0.76421 0.0
Co56 Co 0.75573 0.8087 0.73558 0.0
O57 O 0.77231 0.81235 0.68626 0.0
O58 O 0.7513 0.79055 0.69394 0.0
C59 C 0.75546 0.82986 0.71043 0.0
O60 O 0.73573 0.80078 0.77762 0.0
Co61 Co 0.7589 0.83059 0.83263 0.0
O62 O 0.73664 0.81877 0.8345 0.0
C63 C 0.77017 0.80944 0.85065 0.0
C64 C 0.76425 0.79856 0.66918 0.0
C65 C 0.72939 0.8059 0.81104 0.0
O66 O 0.76463 0.80297 0.80231 0.0
O67 O 0.77 0.8212 0.86735 0.0
O68 O 0.74875 0.81792 0.67886 0.0
O69 O 0.76285 0.82901 0.75325 0.0
Co70 Co 0.19807 0.94859 0.74087 0.0
O71 O 0.1956 0.96295 0.6951 0.0
O72 O 0.21621 0.96133 0.69782 0.0
C73 C 0.17594 0.92812 0.71583 0.0
O74 O 0.20497 0.9352 0.77912 0.0
Co75 Co 0.17628 0.92991 0.83827 0.0
O76 O 0.18703 0.91841 0.83697 0.0
C77 C 0.19897 0.96194 0.85822 0.0
C78 C 0.20908 0.96761 0.67608 0.0
C79 C 0.19966 0.92359 0.81191 0.0
O80 O 0.20511 0.96284 0.8091 0.0
O81 O 0.18691 0.95023 0.87462 0.0
O82 O 0.18762 0.93296 0.683 0.0
O83 O 0.17762 0.93628 0.75998 0.0
Co84 Co 0.75367 0.94793 0.74537 0.0
O85 O 0.77117 0.96143 0.70049 0.0
O86 O 0.75 0.96199 0.7025 0.0
C87 C 0.75364 0.92648 0.72141 0.0
O88 O 0.73285 0.9354 0.78159 0.0
Co89 Co 0.75505 0.92842 0.84443 0.0
O90 O 0.73287 0.9182 0.84073 0.0
C91 C 0.76594 0.96068 0.86421 0.0
C92 C 0.76338 0.96725 0.68121 0.0
C93 C 0.726 0.92381 0.81439 0.0
O94 O 0.76123 0.96198 0.81448 0.0
O95 O 0.76555 0.94863 0.88089 0.0
O96 O 0.74809 0.9323 0.6867 0.0
O97 O 0.76012 0.93441 0.76599 0.0
Co98 Co 0.05924 0.80591 0.74596 0.0
O99 O 0.04445 0.80882 0.70461 0.0
O100 O 0.0463 0.78838 0.70034 0.0
C101 C 0.07966 0.82849 0.72363 0.0
O102 O 0.073 0.79857 0.7782 0.0
Co103 Co 0.0785 0.82639 0.84624 0.0
O104 O 0.08956 0.8153 0.84026 0.0
C105 C 0.04661 0.80338 0.86627 0.0
C106 C 0.03981 0.79566 0.68224 0.0
C107 C 0.08449 0.80323 0.81143 0.0
O108 O 0.04543 0.79782 0.8157 0.0
O109 O 0.05836 0.81532 0.88313 0.0
O110 O 0.07441 0.8175 0.68729 0.0
O111 O 0.07176 0.82595 0.76925 0.0
Co112 Co 0.20027 0.25474 0.73775 0.0
O113 O 0.19706 0.23725 0.69442 0.0
O114 O 0.21762 0.2595 0.69062 0.0
C115 C 0.17776 0.25291 0.71829 0.0
O116 O 0.2077 0.27558 0.77239 0.0
Co117 Co 0.18018 0.25248 0.84108 0.0
O118 O 0.19092 0.27468 0.83598 0.0
C119 C 0.20271 0.24288 0.85442 0.0
C120 C 0.21019 0.2458 0.67176 0.0
C121 C 0.20289 0.28203 0.80681 0.0
O122 O 0.20854 0.2485 0.80525 0.0
O123 O 0.19065 0.24216 0.87289 0.0
O124 O 0.1886 0.25882 0.68131 0.0
O125 O 0.18037 0.2471 0.76246 0.0
Co126 Co 0.94931 0.75077 0.27824 0.0
O127 O 0.96352 0.76825 0.32199 0.0
O128 O 0.96193 0.74605 0.32538 0.0
C129 C 0.92846 0.75236 0.29777 0.0
O130 O 0.93605 0.72994 0.24309 0.0
Co131 Co 0.93139 0.75298 0.17496 0.0
O132 O 0.92045 0.73076 0.17792 0.0
C133 C 0.96357 0.7627 0.16147 0.0
C134 C 0.96814 0.75972 0.34448 0.0
C135 C 0.92507 0.72347 0.20742 0.0
O136 O 0.96386 0.75718 0.21078 0.0
O137 O 0.95218 0.76333 0.14306 0.0
O138 O 0.93346 0.7465 0.33465 0.0
O139 O 0.93688 0.75826 0.25368 0.0
Co140 Co 0.25347 0.19835 0.27031 0.0
O141 O 0.23595 0.19593 0.31149 0.0
O142 O 0.25859 0.21597 0.316 0.0
C143 C 0.25061 0.17549 0.29243 0.0
O144 O 0.27445 0.20516 0.23839 0.0
Co145 Co 0.25195 0.17769 0.17043 0.0
O146 O 0.27406 0.18793 0.17864 0.0
C147 C 0.2441 0.20145 0.14957 0.0
C148 C 0.24479 0.20902 0.33391 0.0
C149 C 0.28118 0.2001 0.20675 0.0
O150 O 0.24817 0.20677 0.20061 0.0
O151 O 0.24376 0.18946 0.13256 0.0
O152 O 0.25667 0.18648 0.32872 0.0
O153 O 0.2454 0.17826 0.24691 0.0
Co154 Co 0.80746 0.05753 0.27664 0.0
O155 O 0.81183 0.04459 0.32336 0.0
O156 O 0.78997 0.04378 0.32149 0.0
C157 C 0.82897 0.07926 0.29753 0.0
O158 O 0.79889 0.06958 0.23845 0.0
Co159 Co 0.82787 0.07611 0.17498 0.0
O160 O 0.81586 0.08628 0.17722 0.0
C161 C 0.80695 0.04355 0.16076 0.0
C162 C 0.79828 0.03881 0.34336 0.0
C163 C 0.80345 0.08085 0.2041 0.0
O164 O 0.80079 0.04283 0.20968 0.0
O165 O 0.81859 0.05541 0.14268 0.0
O166 O 0.81773 0.0738 0.3329 0.0
O167 O 0.82731 0.07088 0.25423 0.0
Co168 Co 0.92257 0.39112 0.60745 0.0
O169 O 0.9054 0.37643 0.65105 0.0
O170 O 0.92763 0.37803 0.64999 0.0
C171 C 0.92075 0.41134 0.63424 0.0
O172 O 0.94315 0.40488 0.57129 0.0
Co173 Co 0.9199 0.41051 0.51161 0.0
O174 O 0.94213 0.42203 0.51505 0.0
C175 C 0.91112 0.37878 0.48786 0.0
C176 C 0.91406 0.37163 0.67047 0.0
C177 C 0.94953 0.41675 0.53976 0.0
O178 O 0.9158 0.37741 0.53755 0.0
O179 O 0.91088 0.3906 0.47245 0.0
O180 O 0.92738 0.40628 0.66701 0.0
O181 O 0.91456 0.40356 0.58905 0.0
Co182 Co 0.61639 0.53122 0.60447 0.0
O183 O 0.62962 0.52704 0.65004 0.0
O184 O 0.63055 0.54894 0.64709 0.0
C185 C 0.59474 0.51004 0.62873 0.0
O186 O 0.60418 0.53971 0.56709 0.0
Co187 Co 0.59693 0.51024 0.50552 0.0
O188 O 0.58712 0.52259 0.50726 0.0
C189 C 0.62931 0.53128 0.48649 0.0
C190 C 0.63559 0.5407 0.66899 0.0
C191 C 0.59278 0.53511 0.53342 0.0
O192 O 0.63051 0.53744 0.53579 0.0
O193 O 0.61725 0.51965 0.46971 0.0
O194 O 0.60066 0.52148 0.66302 0.0
O195 O 0.60266 0.51125 0.58436 0.0
Co196 Co 0.47565 0.0875 0.60542 0.0
O197 O 0.47786 0.10437 0.65009 0.0
O198 O 0.4573 0.08209 0.64696 0.0
C199 C 0.49771 0.08933 0.63252 0.0
O200 O 0.46904 0.06714 0.56831 0.0
Co201 Co 0.49792 0.09057 0.51003 0.0
O202 O 0.48735 0.06833 0.5126 0.0
C203 C 0.47475 0.09904 0.48599 0.0
C204 C 0.46431 0.09553 0.66854 0.0
C205 C 0.47461 0.06086 0.53688 0.0
O206 O 0.46878 0.09443 0.53582 0.0
O207 O 0.48683 0.09933 0.47046 0.0
O208 O 0.4859 0.08252 0.66479 0.0
O209 O 0.49618 0.09571 0.5877 0.0
Co210 Co 0.72575 0.58682 0.07295 0.0
O211 O 0.71276 0.56935 0.02714 0.0
O212 O 0.71171 0.59028 0.02898 0.0
C213 C 0.74752 0.58731 0.05074 0.0
O214 O 0.73779 0.60758 0.11 0.0
Co215 Co 0.74489 0.58559 0.17361 0.0
O216 O 0.75491 0.60776 0.17014 0.0
C217 C 0.71234 0.57368 0.19003 0.0
C218 C 0.7068 0.57699 0.00744 0.0
C219 C 0.74924 0.61452 0.14336 0.0
O220 O 0.71132 0.57882 0.14082 0.0
O221 O 0.72438 0.57421 0.2076 0.0
O222 O 0.74177 0.59284 0.0156 0.0
O223 O 0.73938 0.58063 0.0947 0.0
Co224 Co 0.41934 0.14006 0.07238 0.0
O225 O 0.43629 0.14275 0.02692 0.0
O226 O 0.41406 0.12205 0.02883 0.0
C227 C 0.42082 0.1621 0.04817 0.0
O228 O 0.39897 0.13306 0.1103 0.0
Co229 Co 0.42266 0.16164 0.1712 0.0
O230 O 0.40039 0.15041 0.17205 0.0
C231 C 0.43255 0.1394 0.18831 0.0
C232 C 0.42753 0.12929 0.00756 0.0
C233 C 0.39282 0.1381 0.1451 0.0
O234 O 0.42657 0.13295 0.14038 0.0
O235 O 0.43328 0.15161 0.20477 0.0
O236 O 0.4142 0.15057 0.01459 0.0
O237 O 0.42729 0.1604 0.0923 0.0
Co238 Co 0.86723 0.2817 0.07508 0.0
O239 O 0.86432 0.29602 0.03052 0.0
O240 O 0.88486 0.29426 0.02937 0.0
C241 C 0.84482 0.26093 0.05421 0.0
O242 O 0.87455 0.26835 0.11086 0.0
Co243 Co 0.84675 0.2636 0.17702 0.0
O244 O 0.85771 0.25235 0.17401 0.0
C245 C 0.86916 0.29579 0.19184 0.0
C246 C 0.87758 0.30056 0.00923 0.0
C247 C 0.86979 0.25713 0.14545 0.0
O248 O 0.87511 0.29619 0.14275 0.0
O249 O 0.85714 0.28431 0.20976 0.0
O250 O 0.85589 0.26595 0.01822 0.0
O251 O 0.84716 0.2693 0.09833 0.0
Co252 Co 0.4216 0.2816 0.09129 0.0
O253 O 0.43878 0.29546 0.04593 0.0
O254 O 0.4172 0.29521 0.04893 0.0
C255 C 0.42249 0.26065 0.06663 0.0
O256 O 0.40097 0.26858 0.12803 0.0
Co257 Co 0.42354 0.2621 0.189 0.0
O258 O 0.40133 0.25117 0.18488 0.0
C259 C 0.4335 0.2942 0.21033 0.0
C260 C 0.43056 0.30085 0.0271 0.0
C261 C 0.39427 0.25675 0.15966 0.0
O262 O 0.42894 0.29561 0.16042 0.0
O263 O 0.43327 0.28221 0.22657 0.0
O264 O 0.41632 0.26601 0.0327 0.0
O265 O 0.42881 0.26866 0.11117 0.0
Co266 Co 0.72501 0.14199 0.07056 0.0
O267 O 0.71192 0.14586 0.02281 0.0
O268 O 0.71116 0.12406 0.02795 0.0
C269 C 0.74641 0.16335 0.04613 0.0
O270 O 0.73713 0.13375 0.11026 0.0
Co271 Co 0.74421 0.16322 0.16843 0.0
O272 O 0.75463 0.1514 0.16706 0.0
C273 C 0.71179 0.14189 0.1877 0.0
C274 C 0.70613 0.13216 1.00463 0.0
C275 C 0.74876 0.13862 0.14277 0.0
O276 O 0.71055 0.13586 0.1381 0.0
O277 O 0.72389 0.15343 0.20478 0.0
O278 O 0.74111 0.15159 0.01348 0.0
O279 O 0.7383 0.1622 0.08974 0.0
Co280 Co 0.86483 0.58458 0.06504 0.0
O281 O 0.86091 0.56778 0.01659 0.0
O282 O 0.88293 0.58855 0.02384 0.0
C283 C 0.84397 0.58527 0.03885 0.0
O284 O 0.873 0.6047 0.10647 0.0
Co285 Co 0.84284 0.58191 0.16112 0.0
O286 O 0.85496 0.60414 0.16221 0.0
C287 C 0.86379 0.57048 0.18128 0.0
C288 C 0.87473 0.57556 0.99951 0.0
C289 C 0.86792 0.61121 0.13929 0.0
O290 O 0.87025 0.57566 0.13258 0.0
O291 O 0.85213 0.57092 0.1975 0.0
O292 O 0.85597 0.59172 0.00745 0.0
O293 O 0.84456 0.57785 0.08206 0.0
Co294 Co 0.61548 0.08646 0.60205 0.0
O295 O 0.6289 0.10397 0.64698 0.0
O296 O 0.62937 0.08276 0.64587 0.0
C297 C 0.59404 0.08659 0.62473 0.0
O298 O 0.60301 0.06559 0.5661 0.0
Co299 Co 0.59627 0.08771 0.50168 0.0
O300 O 0.58591 0.06553 0.50623 0.0
C301 C 0.62873 0.09916 0.48434 0.0
C302 C 0.63463 0.09615 0.66691 0.0
C303 C 0.59143 0.05867 0.53333 0.0
O304 O 0.62975 0.09403 0.53357 0.0
O305 O 0.61674 0.09879 0.4671 0.0
O306 O 0.59969 0.08099 0.66003 0.0
O307 O 0.60207 0.09294 0.58021 0.0
Co308 Co 0.91891 0.52962 0.59613 0.0
O309 O 0.90166 0.52547 0.64285 0.0
O310 O 0.92275 0.54731 0.63928 0.0
C311 C 0.91919 0.50824 0.61884 0.0
O312 O 0.93952 0.53819 0.55825 0.0
Co313 Co 0.91758 0.50907 0.49627 0.0
O314 O 0.93979 0.52122 0.49876 0.0
C315 C 0.90569 0.52973 0.47923 0.0
C316 C 0.90953 0.53914 0.66171 0.0
C317 C 0.94649 0.53373 0.52504 0.0
O318 O 0.91079 0.53593 0.52839 0.0
O319 O 0.90628 0.51824 0.46194 0.0
O320 O 0.92498 0.51965 0.65338 0.0
O321 O 0.91248 0.50969 0.57499 0.0
Co322 Co 0.47563 0.39098 0.62278 0.0
O323 O 0.47908 0.37782 0.67163 0.0
O324 O 0.45758 0.37768 0.66606 0.0
C325 C 0.49731 0.41216 0.64595 0.0
O326 O 0.46804 0.40346 0.58145 0.0
Co327 Co 0.49731 0.40899 0.52374 0.0
O328 O 0.48592 0.41985 0.52215 0.0
C329 C 0.47545 0.37667 0.50816 0.0
C330 C 0.46544 0.37243 0.68992 0.0
C331 C 0.47327 0.41475 0.54701 0.0
O332 O 0.46913 0.37616 0.55646 0.0
O333 O 0.48744 0.38829 0.49077 0.0
O334 O 0.4856 0.40729 0.67872 0.0
O335 O 0.49591 0.40367 0.60331 0.0
Co336 Co 0.58897 0.72541 0.9402 0.0
O337 O 0.57126 0.71102 0.98257 0.0
O338 O 0.59337 0.71241 0.98632 0.0
C339 C 0.58739 0.74616 0.96153 0.0
O340 O 0.61001 0.73875 0.90672 0.0
Co341 Co 0.5877 0.74435 0.83882 0.0
O342 O 0.60987 0.75524 0.84421 0.0
C343 C 0.57772 0.71216 0.82162 0.0
C344 C 0.57965 0.70622 1.0049 0.0
C345 C 0.61685 0.75013 0.87302 0.0
O346 O 0.5827 0.71129 0.8714 0.0
O347 O 0.57759 0.72389 0.80421 0.0
O348 O 0.59309 0.74089 0.998 0.0
O349 O 0.58172 0.7381 0.91651 0.0
Co350 Co 0.28212 0.86664 0.94801 0.0
O351 O 0.29653 0.86369 0.99168 0.0
O352 O 0.29451 0.88405 0.99521 0.0
C353 C 0.26153 0.84401 0.96745 0.0
O354 O 0.26853 0.87379 0.91278 0.0
Co355 Co 0.26466 0.84636 0.84445 0.0
O356 O 0.25328 0.8572 0.84723 0.0
C357 C 0.29671 0.8692 0.83191 0.0
C358 C 0.30093 0.87678 0.0142 0.0
C359 C 0.25757 0.86904 0.8769 0.0
O360 O 0.29668 0.87506 0.88071 0.0
O361 O 0.28557 0.85698 0.81348 0.0
O362 O 0.26636 0.85486 1.00434 0.0
O363 O 0.27002 0.84668 0.92345 0.0
Co364 Co 0.14219 0.41844 0.92697 0.0
O365 O 0.14502 0.43613 0.96817 0.0
O366 O 0.12456 0.41379 0.97175 0.0
C367 C 0.16468 0.42054 0.95 0.0
O368 O 0.13484 0.39733 0.89533 0.0
Co369 Co 0.16262 0.41936 0.8273 0.0
O370 O 0.15146 0.39719 0.8336 0.0
C371 C 0.13996 0.42863 0.80649 0.0
C372 C 0.13179 0.42754 0.99004 0.0
C373 C 0.13941 0.39035 0.86267 0.0
O374 O 0.13428 0.42422 0.8569 0.0
O375 O 0.15185 0.42868 0.78991 0.0
O376 O 0.15362 0.41483 0.9861 0.0
O377 O 0.16227 0.4259 0.90407 0.0
Co378 Co 0.39195 0.92058 0.41545 0.0
O379 O 0.37685 0.90307 0.37413 0.0
O380 O 0.37935 0.92565 0.36997 0.0
C381 C 0.41205 0.91792 0.39308 0.0
O382 O 0.40616 0.94153 0.44771 0.0
Co383 Co 0.41082 0.91868 0.5157 0.0
O384 O 0.42265 0.9408 0.50859 0.0
C385 C 0.37933 0.91109 0.5363 0.0
C386 C 0.37253 0.91186 0.35187 0.0
C387 C 0.41782 0.94808 0.48022 0.0
O388 O 0.37818 0.9152 0.48518 0.0
O389 O 0.39088 0.9106 0.55353 0.0
O390 O 0.407 0.92387 0.35682 0.0
O391 O 0.40407 0.91257 0.43856 0.0
Co392 Co 0.08809 0.47378 0.39419 0.0
O393 O 0.10497 0.47638 0.34841 0.0
O394 O 0.08264 0.45586 0.34939 0.0
C395 C 0.08994 0.49609 0.37128 0.0
O396 O 0.06779 0.46694 0.43259 0.0
Co397 Co 0.09185 0.4953 0.49377 0.0
O398 O 0.06958 0.48453 0.49393 0.0
C399 C 0.10076 0.47227 0.51041 0.0
C400 C 0.09614 0.46304 0.32826 0.0
C401 C 0.06184 0.47217 0.46743 0.0
O402 O 0.09507 0.46623 0.46161 0.0
O403 O 0.10166 0.48451 0.52766 0.0
O404 O 0.0831 0.48463 0.33743 0.0
O405 O 0.09642 0.49411 0.41481 0.0
Co406 Co 0.53315 0.61567 0.40819 0.0
O407 O 0.52991 0.62999 0.36498 0.0
O408 O 0.55065 0.62861 0.36249 0.0
C409 C 0.51086 0.5948 0.38664 0.0
O410 O 0.54082 0.60246 0.44264 0.0
Co411 Co 0.51275 0.59682 0.50941 0.0
O412 O 0.52429 0.58618 0.50599 0.0
C413 C 0.53521 0.62895 0.52688 0.0
C414 C 0.54317 0.63478 0.34319 0.0
C415 C 0.53638 0.59127 0.47724 0.0
O416 O 0.54093 0.62985 0.47682 0.0
O417 O 0.52334 0.61723 0.54438 0.0
O418 O 0.52191 0.6001 0.3505 0.0
O419 O 0.51313 0.60292 0.43141 0.0
Co420 Co 0.08772 0.61403 0.41596 0.0
O421 O 0.1054 0.62748 0.37183 0.0
O422 O 0.08433 0.62827 0.37332 0.0
C423 C 0.08757 0.59255 0.3916 0.0
O424 O 0.06674 0.60169 0.45098 0.0
Co425 Co 0.08815 0.59398 0.51471 0.0
O426 O 0.066 0.58407 0.50974 0.0
C427 C 0.09984 0.62639 0.53512 0.0
C428 C 0.09773 0.63344 0.35242 0.0
C429 C 0.0595 0.59002 0.48302 0.0
O430 O 0.09527 0.62791 0.48543 0.0
O431 O 0.09905 0.61415 0.55161 0.0
O432 O 0.08219 0.59852 0.35684 0.0
O433 O 0.09387 0.60027 0.43681 0.0
Co434 Co 0.39329 0.47408 0.40858 0.0
O435 O 0.37857 0.47645 0.36475 0.0
O436 O 0.38034 0.45592 0.366 0.0
C437 C 0.41343 0.49631 0.38216 0.0
O438 O 0.40701 0.46725 0.44464 0.0
Co439 Co 0.41273 0.49594 0.50448 0.0
O440 O 0.42425 0.48523 0.50105 0.0
C441 C 0.38087 0.47311 0.52786 0.0
C442 C 0.37387 0.46299 0.34541 0.0
C443 C 0.41887 0.47258 0.47611 0.0
O444 O 0.3795 0.46702 0.47825 0.0
O445 O 0.39275 0.48513 0.54328 0.0
O446 O 0.40853 0.48463 0.34934 0.0
O447 O 0.4056 0.49454 0.42738 0.0
Co448 Co 0.53209 0.91924 0.40499 0.0
O449 O 0.52918 0.90242 0.35824 0.0
O450 O 0.55003 0.92453 0.36088 0.0
C451 C 0.51001 0.91787 0.38197 0.0
O452 O 0.53943 0.93951 0.44388 0.0
Co453 Co 0.5109 0.91624 0.50442 0.0
O454 O 0.52225 0.93851 0.50546 0.0
C455 C 0.53291 0.90594 0.52032 0.0
C456 C 0.54266 0.91115 0.33903 0.0
C457 C 0.53465 0.94586 0.47874 0.0
O458 O 0.53919 0.91172 0.47194 0.0
O459 O 0.52089 0.90552 0.53757 0.0
O460 O 0.52156 0.92472 0.34851 0.0
O461 O 0.51177 0.91128 0.42558 0.0
Co462 Co 0.28415 0.42092 0.94131 0.0
O463 O 0.29859 0.4376 0.9875 0.0
O464 O 0.29648 0.41515 0.98521 0.0
C465 C 0.26383 0.42297 0.96489 0.0
O466 O 0.27058 0.40072 0.90277 0.0
Co467 Co 0.26618 0.42461 0.8425 0.0
O468 O 0.25448 0.40235 0.84258 0.0
C469 C 0.29815 0.43356 0.82495 0.0
C470 C 0.30296 0.42858 1.0069 0.0
C471 C 0.25924 0.39467 0.86868 0.0
O472 O 0.29863 0.42793 0.87375 0.0
O473 O 0.28673 0.43435 0.80798 0.0
O474 O 0.26836 0.41597 0.99832 0.0
O475 O 0.27223 0.4294 0.92118 0.0
Co476 Co 0.58604 0.86439 0.93752 0.0
O477 O 0.56892 0.8616 0.98199 0.0
O478 O 0.59083 0.88259 0.9789 0.0
C479 C 0.5848 0.84262 0.96474 0.0
O480 O 0.60657 0.87165 0.90078 0.0
Co481 Co 0.5839 0.84251 0.84224 0.0
O482 O 0.60616 0.8538 0.84464 0.0
C483 C 0.57431 0.86483 0.81809 0.0
C484 C 0.57739 0.87523 1.00041 0.0
C485 C 0.61324 0.86652 0.8692 0.0
O486 O 0.57882 0.8709 0.8678 0.0
O487 O 0.57447 0.85297 0.8027 0.0
O488 O 0.59136 0.85443 0.99702 0.0
O489 O 0.57839 0.84396 0.91967 0.0
Co490 Co 0.14351 0.72324 0.9471 0.0
O491 O 0.14725 0.71029 0.99602 0.0
O492 O 0.12553 0.70969 0.99016 0.0
C493 C 0.16493 0.74465 0.97058 0.0
O494 O 0.13554 0.73538 0.90577 0.0
Co495 Co 0.16499 0.74164 0.84835 0.0
O496 O 0.15333 0.75223 0.84743 0.0
C497 C 0.14345 0.70924 0.83185 0.0
C498 C 0.13356 0.70467 0.01415 0.0
C499 C 0.14059 0.74677 0.87188 0.0
O500 O 0.13727 0.70848 0.88072 0.0
O501 O 0.15522 0.72106 0.81426 0.0
O502 O 0.15317 0.73956 1.00315 0.0
O503 O 0.16376 0.73628 0.92783 0.0
C504 C 0.22327 0.97618 0.58421 0.0
C505 C 0.21538 0.97846 0.62812 0.0
C506 C 0.22808 0.98547 0.53558 0.0
C507 C 0.22553 0.99778 0.53176 0.0
C508 C 0.21801 1.00042 0.57709 0.0
C509 C 0.21272 0.99053 0.62401 0.0
C510 C 0.23548 0.98183 0.4875 0.0
C511 C 0.21556 0.01371 0.5761 0.0
C512 C 0.25011 0.02942 0.42836 0.0
C513 C 0.24 0.02725 0.38428 0.0
C514 C 0.24552 0.02006 0.47679 0.0
C515 C 0.23061 0.0078 0.48026 0.0
C516 C 0.22052 0.00526 0.43472 0.0
C517 C 0.22523 0.01522 0.38799 0.0
C518 C 0.25649 0.0236 0.52508 0.0
C519 C 0.20473 0.99201 0.43534 0.0
H520 H 0.22514 0.96671 0.58681 0.0
H521 H 0.20663 0.99233 0.65791 0.0
H522 H 0.229 0.98001 0.44759 0.0
H523 H 0.24695 0.99139 0.47986 0.0
H524 H 0.23629 0.97164 0.49633 0.0
H525 H 0.2106 0.01487 0.61649 0.0
H526 H 0.22639 0.02421 0.56864 0.0
H527 H 0.20795 0.01253 0.54052 0.0
H528 H 0.26148 0.03886 0.42608 0.0
H529 H 0.2174 0.01351 0.35397 0.0
H530 H 0.25828 0.01398 0.53282 0.0
H531 H 0.25182 0.02546 0.56488 0.0
H532 H 0.26755 0.03374 0.51644 0.0
H533 H 0.20497 0.98149 0.44299 0.0
H534 H 0.19869 0.99089 0.39475 0.0
H535 H 0.19826 0.99323 0.47066 0.0
C536 C 0.01636 0.24051 0.63185 0.0
C537 C 0.02792 0.23706 0.63403 0.0
C538 C 0.00636 0.23598 0.5852 0.0
C539 C 0.0084 0.22841 0.53849 0.0
C540 C 0.02036 0.2253 0.54005 0.0
C541 C 0.02974 0.22937 0.5882 0.0
C542 C 0.99344 0.239 0.58645 0.0
C543 C 0.02334 0.21777 0.49058 0.0
C544 C 0.97616 0.20321 0.43908 0.0
C545 C 0.97828 0.21282 0.39318 0.0
C546 C 0.98554 0.2083 0.48728 0.0
C547 C 0.99778 0.22323 0.48885 0.0
C548 C 1.00011 0.23294 0.44211 0.0
C549 C 0.99012 0.22771 0.3954 0.0
C550 C 0.98226 0.19771 0.53676 0.0
C551 C 0.01333 0.24873 0.44089 0.0
H552 H 0.01492 0.24645 0.66723 0.0
H553 H 0.03882 0.22689 0.58933 0.0
H554 H 0.9942 0.24614 0.54974 0.0
H555 H 0.98266 0.22827 0.58239 0.0
H556 H 0.99319 0.24467 0.62636 0.0
H557 H 0.03375 0.21718 0.49658 0.0
H558 H 0.01378 0.20619 0.48514 0.0
H559 H 0.02438 0.22397 0.45054 0.0
H560 H 0.96688 0.19175 0.43792 0.0
H561 H 0.9918 0.23515 0.35994 0.0
H562 H 0.98143 0.20298 0.57682 0.0
H563 H 0.99158 0.19533 0.54216 0.0
H564 H 0.97165 0.18687 0.5308 0.0
H565 H 0.01281 0.25521 0.47768 0.0
H566 H 0.01375 0.25477 0.40105 0.0
H567 H 0.02394 0.24845 0.44481 0.0
C568 C 0.80409 0.77632 0.42534 0.0
C569 C 0.7945 0.76838 0.37997 0.0
C570 C 0.79881 0.7805 0.47329 0.0
C571 C 0.7837 0.77726 0.47509 0.0
C572 C 0.77402 0.76947 0.42876 0.0
C573 C 0.77945 0.76483 0.38237 0.0
C574 C 0.80941 0.78827 0.52235 0.0
C575 C 0.75802 0.7663 0.4277 0.0
C576 C 0.76617 0.77803 0.61829 0.0
C577 C 0.76908 0.79287 0.62011 0.0
C578 C 0.77097 0.7728 0.57169 0.0
C579 C 0.77824 0.78245 0.52467 0.0
C580 C 0.78075 0.79731 0.52581 0.0
C581 C 0.77644 0.80241 0.57392 0.0
C582 C 0.76857 0.75708 0.57339 0.0
C583 C 0.78792 0.80783 0.476 0.0
H584 H 0.81568 0.77888 0.42409 0.0
H585 H 0.77201 0.75871 0.34734 0.0
H586 H 0.81128 0.7998 0.52743 0.0
H587 H 0.80438 0.78215 0.56266 0.0
H588 H 0.82047 0.78902 0.51617 0.0
H589 H 0.75207 0.76054 0.3879 0.0
H590 H 0.75172 0.75916 0.46453 0.0
H591 H 0.75787 0.77697 0.43164 0.0
H592 H 0.76051 0.77063 0.65398 0.0
H593 H 0.77852 0.81384 0.5748 0.0
H594 H 0.77953 0.75751 0.56937 0.0
H595 H 0.76154 0.75047 0.53684 0.0
H596 H 0.76305 0.7511 0.61345 0.0
H597 H 0.79966 0.81034 0.47047 0.0
H598 H 0.78802 0.8186 0.48166 0.0
H599 H 0.78178 0.80242 0.43613 0.0
C600 C 0.7659 0.99007 0.6312 0.0
C601 C 0.76888 0.97819 0.63324 0.0
C602 C 0.77081 1.00021 0.5849 0.0
C603 C 0.77825 0.998 0.53812 0.0
C604 C 0.781 0.98579 0.53971 0.0
C605 C 0.77659 0.97627 0.58768 0.0
C606 C 0.76819 0.01339 0.58636 0.0
C607 C 0.78833 0.98258 0.49015 0.0
C608 C 0.77821 0.01627 0.39565 0.0
C609 C 0.79309 0.02811 0.39212 0.0
C610 C 0.7733 0.00623 0.44225 0.0
C611 C 0.7833 0.00848 0.48782 0.0
C612 C 0.79826 0.02067 0.48486 0.0
C613 C 0.80304 0.0301 0.43661 0.0
C614 C 0.75746 0.99307 0.44228 0.0
C615 C 0.80917 0.02393 0.53315 0.0
H616 H 0.75996 0.9916 0.66636 0.0
H617 H 0.77872 0.96696 0.58867 0.0
H618 H 0.779 0.02401 0.58038 0.0
H619 H 0.76069 0.01254 0.55087 0.0
H620 H 0.76306 0.01404 0.62712 0.0
H621 H 0.78892 0.97219 0.49662 0.0
H622 H 0.78195 0.98137 0.45043 0.0
H623 H 0.79988 0.99211 0.48372 0.0
H624 H 0.77049 0.01467 0.36131 0.0
H625 H 0.8145 0.03937 0.43448 0.0
H626 H 0.75113 0.99391 0.47898 0.0
H627 H 0.75766 0.98244 0.44723 0.0
H628 H 0.75132 0.99245 0.4025 0.0
H629 H 0.80428 0.02509 0.57368 0.0
H630 H 0.8201 0.03436 0.5259 0.0
H631 H 0.8113 0.01445 0.53857 0.0
C632 C 0.01717 0.79323 0.63075 0.0
C633 C 0.02879 0.78988 0.63443 0.0
C634 C 0.00704 0.78815 0.58442 0.0
C635 C 0.00896 0.78007 0.53925 0.0
C636 C 0.02086 0.77689 0.54251 0.0
C637 C 0.0304 0.78155 0.59045 0.0
C638 C 0.99421 0.79131 0.58406 0.0
C639 C 0.02374 0.76884 0.49469 0.0
C640 C 0.97655 0.75521 0.43892 0.0
C641 C 0.97891 0.76489 0.39302 0.0
C642 C 0.98598 0.76011 0.48719 0.0
C643 C 0.99852 0.77488 0.48878 0.0
C644 C 1.00116 0.78459 0.44172 0.0
C645 C 0.99113 0.77959 0.39511 0.0
C646 C 0.98232 0.74954 0.53703 0.0
C647 C 0.01468 0.8002 0.44028 0.0
H648 H 0.01586 0.79966 0.6646 0.0
H649 H 0.03949 0.7791 0.59258 0.0
H650 H 0.99538 0.79863 0.54743 0.0
H651 H 0.98339 0.78067 0.57874 0.0
H652 H 0.99371 0.79689 0.62385 0.0
H653 H 0.03385 0.76782 0.50246 0.0
H654 H 0.01393 0.75742 0.48919 0.0
H655 H 0.02528 0.77497 0.45402 0.0
H656 H 0.96699 0.7439 0.43792 0.0
H657 H 0.993 0.78711 0.3597 0.0
H658 H 0.98125 0.75489 0.57646 0.0
H659 H 0.99157 0.74713 0.54403 0.0
H660 H 0.97172 0.73873 0.53051 0.0
H661 H 0.01405 0.80702 0.47557 0.0
H662 H 0.01561 0.80605 0.3994 0.0
H663 H 0.02508 0.79963 0.44661 0.0
C664 C 0.22567 0.21374 0.38215 0.0
C665 C 0.23987 0.21497 0.38192 0.0
C666 C 0.22092 0.21908 0.42852 0.0
C667 C 0.23031 0.22514 0.4771 0.0
C668 C 0.24456 0.22612 0.47728 0.0
C669 C 0.24929 0.22135 0.42929 0.0
C670 C 0.20592 0.21836 0.42531 0.0
C671 C 0.25471 0.23189 0.52874 0.0
C672 C 0.22502 0.2507 0.58151 0.0
C673 C 0.21582 0.24055 0.62357 0.0
C674 C 0.22955 0.24581 0.53326 0.0
C675 C 0.22526 0.23044 0.52771 0.0
C676 C 0.21628 0.22021 0.57092 0.0
C677 C 0.21143 0.22532 0.61763 0.0
C678 C 0.23866 0.25706 0.48757 0.0
C679 C 0.21188 0.20385 0.56805 0.0
H680 H 0.21837 0.20883 0.34557 0.0
H681 H 0.26019 0.22211 0.42964 0.0
H682 H 0.19834 0.21079 0.45895 0.0
H683 H 0.20738 0.22966 0.4331 0.0
H684 H 0.20039 0.21424 0.38329 0.0
H685 H 0.26515 0.23134 0.52312 0.0
H686 H 0.25786 0.2437 0.53742 0.0
H687 H 0.24866 0.2252 0.56689 0.0
H688 H 0.22829 0.26245 0.58537 0.0
H689 H 0.20434 0.21742 0.64999 0.0
H690 H 0.23284 0.25331 0.44591 0.0
H691 H 0.24974 0.25779 0.48303 0.0
H692 H 0.24054 0.26845 0.497 0.0
H693 H 0.20481 0.19855 0.52995 0.0
H694 H 0.20557 0.1975 0.60643 0.0
H695 H 0.22208 0.20282 0.5637 0.0
C696 C 0.91903 0.3626 0.76263 0.0
C697 C 0.90915 0.36056 0.71786 0.0
C698 C 0.91416 0.35318 0.81094 0.0
C699 C 0.89919 0.34099 0.81363 0.0
C700 C 0.88933 0.33859 0.76743 0.0
C701 C 0.89431 0.3486 0.72082 0.0
C702 C 0.92492 0.35656 0.8599 0.0
C703 C 0.87349 0.32542 0.76715 0.0
C704 C 0.89148 0.30909 0.91677 0.0
C705 C 0.88356 0.31131 0.96074 0.0
C706 C 0.89637 0.31846 0.86836 0.0
C707 C 0.89387 0.33079 0.86473 0.0
C708 C 0.88622 0.33332 0.90994 0.0
C709 C 0.88086 0.32335 0.9567 0.0
C710 C 0.90389 0.31492 0.82042 0.0
C711 C 0.8838 0.34663 0.90914 0.0
H712 H 0.93044 0.37198 0.76097 0.0
H713 H 0.88664 0.34699 0.68632 0.0
H714 H 0.92007 0.35829 0.89948 0.0
H715 H 0.92666 0.34691 0.86755 0.0
H716 H 0.93601 0.36672 0.85204 0.0
H717 H 0.86761 0.32446 0.72629 0.0
H718 H 0.87362 0.31483 0.7746 0.0
H719 H 0.86693 0.3266 0.80223 0.0
H720 H 0.89341 0.29966 0.91929 0.0
H721 H 0.87476 0.32513 0.99064 0.0
H722 H 0.91546 0.32441 0.81387 0.0
H723 H 0.89764 0.3134 0.7801 0.0
H724 H 0.90448 0.30459 0.82874 0.0
H725 H 0.89468 0.35714 0.90279 0.0
H726 H 0.87859 0.34762 0.94918 0.0
H727 H 0.87642 0.34563 0.87295 0.0
C728 C 0.65765 0.56124 0.72174 0.0
C729 C 0.6465 0.54609 0.71707 0.0
C730 C 0.66769 0.5664 0.76829 0.0
C731 C 0.66614 0.55632 0.81262 0.0
C732 C 0.6547 0.54105 0.80839 0.0
C733 C 0.64525 0.53608 0.76025 0.0
C734 C 0.68006 0.58263 0.76973 0.0
C735 C 0.65223 0.53 0.85533 0.0
C736 C 0.69886 0.56462 0.91217 0.0
C737 C 0.6961 0.57141 0.95884 0.0
C738 C 0.68946 0.56005 0.86388 0.0
C739 C 0.67655 0.56166 0.86309 0.0
C740 C 0.67352 0.56819 0.91091 0.0
C741 C 0.68353 0.57332 0.95756 0.0
C742 C 0.69352 0.55375 0.81322 0.0
C743 C 0.6596 0.56957 0.91314 0.0
H744 H 0.65867 0.56901 0.68847 0.0
H745 H 0.63651 0.5244 0.75732 0.0
H746 H 0.67858 0.58835 0.8071 0.0
H747 H 0.69111 0.58329 0.77446 0.0
H748 H 0.68028 0.58882 0.7306 0.0
H749 H 0.64238 0.51871 0.84697 0.0
H750 H 0.66232 0.52883 0.86023 0.0
H751 H 0.65046 0.53421 0.89648 0.0
H752 H 0.7087 0.56333 0.91266 0.0
H753 H 0.68136 0.57854 0.99362 0.0
H754 H 0.69428 0.56025 0.77434 0.0
H755 H 0.68463 0.54196 0.80561 0.0
H756 H 0.70438 0.55404 0.8192 0.0
H757 H 0.65987 0.57702 0.87843 0.0
H758 H 0.65844 0.57416 0.95446 0.0
H759 H 0.64947 0.5584 0.90637 0.0
C760 C 0.44693 0.08932 0.75208 0.0
C761 C 0.45777 0.10014 0.71563 0.0
C762 C 0.44171 0.09354 0.80023 0.0
C763 C 0.4471 0.10895 0.81143 0.0
C764 C 0.45769 0.1199 0.77362 0.0
C765 C 0.46307 0.11538 0.72683 0.0
C766 C 0.43076 0.0815 0.84008 0.0
C767 C 0.46341 0.13642 0.7827 0.0
C768 C 0.42358 0.11888 0.90905 0.0
C769 C 0.43213 0.12325 0.95918 0.0
C770 C 0.4284 0.1144 0.86052 0.0
C771 C 0.44179 0.11364 0.86289 0.0
C772 C 0.45019 0.11759 0.9143 0.0
C773 C 0.44546 0.1227 0.96134 0.0
C774 C 0.41941 0.11093 0.80617 0.0
C775 C 0.46419 0.1164 0.91964 0.0
H776 H 0.44291 0.07753 0.74415 0.0
H777 H 0.47144 0.1238 0.69884 0.0
H778 H 0.43569 0.08336 0.88345 0.0
H779 H 0.42031 0.08208 0.84345 0.0
H780 H 0.42777 0.07003 0.82581 0.0
H781 H 0.47083 0.14343 0.74747 0.0
H782 H 0.45382 0.13847 0.78637 0.0
H783 H 0.46981 0.14015 0.82318 0.0
H784 H 0.4134 0.11955 0.9071 0.0
H785 H 0.45208 0.12609 1.00012 0.0
H786 H 0.41554 0.09923 0.79256 0.0
H787 H 0.4266 0.11844 0.77154 0.0
H788 H 0.40944 0.11236 0.81094 0.0
H789 H 0.46171 0.10496 0.90744 0.0
H790 H 0.46881 0.1188 0.96361 0.0
H791 H 0.47295 0.12443 0.89006 0.0
C792 C 0.46939 0.36405 0.78499 0.0
C793 C 0.45977 0.36191 0.73913 0.0
C794 C 0.46437 0.35458 0.83302 0.0
C795 C 0.44951 0.34219 0.83441 0.0
C796 C 0.43979 0.33986 0.78769 0.0
C797 C 0.44494 0.34995 0.74122 0.0
C798 C 0.47497 0.35791 0.8825 0.0
C799 C 0.42408 0.3265 0.78617 0.0
C800 C 0.44354 0.31014 0.93343 0.0
C801 C 0.43561 0.31171 0.97897 0.0
C802 C 0.44767 0.31964 0.88552 0.0
C803 C 0.44439 0.33149 0.88396 0.0
C804 C 0.43663 0.33331 0.93054 0.0
C805 C 0.43202 0.32318 0.97682 0.0
C806 C 0.45539 0.31687 0.83617 0.0
C807 C 0.43344 0.34611 0.93197 0.0
H808 H 0.48082 0.37341 0.78389 0.0
H809 H 0.43749 0.34824 0.70575 0.0
H810 H 0.46961 0.35856 0.92263 0.0
H811 H 0.47753 0.3487 0.88758 0.0
H812 H 0.48572 0.36862 0.87678 0.0
H813 H 0.41805 0.32605 0.74628 0.0
H814 H 0.42454 0.31598 0.78992 0.0
H815 H 0.4175 0.32686 0.82292 0.0
H816 H 0.44613 0.30113 0.93449 0.0
H817 H 0.42589 0.32443 0.01196 0.0
H818 H 0.46692 0.32655 0.83094 0.0
H819 H 0.44921 0.31578 0.79603 0.0
H820 H 0.45615 0.30655 0.84213 0.0
H821 H 0.44409 0.35696 0.92771 0.0
H822 H 0.42778 0.3463 0.97204 0.0
H823 H 0.4262 0.34525 0.89547 0.0
C824 C 0.68302 0.11208 0.95517 0.0
C825 C 0.69548 0.12665 0.95584 0.0
C826 C 0.67294 0.10697 0.90868 0.0
C827 C 0.67578 0.11638 0.86048 0.0
C828 C 0.68862 0.13097 0.86059 0.0
C829 C 0.69808 0.13602 0.90867 0.0
C830 C 0.65911 0.09159 0.9116 0.0
C831 C 0.6925 0.1412 0.80953 0.0
C832 C 0.6567 0.0977 0.71962 0.0
C833 C 0.64554 0.10168 0.71499 0.0
C834 C 0.66678 0.10261 0.76607 0.0
C835 C 0.66525 0.11115 0.81037 0.0
C836 C 0.65378 0.11493 0.80624 0.0
C837 C 0.6443 0.11043 0.75817 0.0
C838 C 0.67918 0.09882 0.76734 0.0
C839 C 0.65132 0.12351 0.85316 0.0
H840 H 0.68096 0.10482 0.99163 0.0
H841 H 0.70783 0.14723 0.9087 0.0
H842 H 0.64891 0.09253 0.9054 0.0
H843 H 0.65932 0.08441 0.87684 0.0
H844 H 0.65815 0.08592 0.95296 0.0
H845 H 0.70339 0.15179 0.81483 0.0
H846 H 0.69312 0.13536 0.77073 0.0
H847 H 0.68358 0.14407 0.80226 0.0
H848 H 0.65771 0.09095 0.68635 0.0
H849 H 0.63554 0.11335 0.75527 0.0
H850 H 0.67784 0.09174 0.80499 0.0
H851 H 0.69023 0.10926 0.77144 0.0
H852 H 0.67931 0.09275 0.72841 0.0
H853 H 0.64974 0.11763 0.89447 0.0
H854 H 0.64138 0.1248 0.84514 0.0
H855 H 0.66135 0.13484 0.85753 0.0
C856 C 0.89624 0.53497 0.75504 0.0
C857 C 0.90427 0.54467 0.71002 0.0
C858 C 0.89204 0.54017 0.80325 0.0
C859 C 0.89537 0.55531 0.80563 0.0
C860 C 0.90319 0.56506 0.75954 0.0
C861 C 0.90784 0.55971 0.71295 0.0
C862 C 0.88422 0.52949 0.85206 0.0
C863 C 0.90646 0.58109 0.75901 0.0
C864 C 0.87057 0.56302 0.90488 0.0
C865 C 0.88023 0.57042 0.95074 0.0
C866 C 0.87549 0.55846 0.85692 0.0
C867 C 0.89028 0.56076 0.85557 0.0
C868 C 0.90002 0.56802 0.90236 0.0
C869 C 0.89499 0.57307 0.9488 0.0
C870 C 0.86488 0.55133 0.80735 0.0
C871 C 0.91566 0.5702 0.90386 0.0
H872 H 0.89366 0.52338 0.75339 0.0
H873 H 0.91405 0.56724 0.67822 0.0
H874 H 0.89043 0.53437 0.89234 0.0
H875 H 0.87275 0.52775 0.85761 0.0
H876 H 0.88332 0.51838 0.8453 0.0
H877 H 0.91211 0.58707 0.7191 0.0
H878 H 0.89583 0.58132 0.76372 0.0
H879 H 0.91373 0.58733 0.79562 0.0
H880 H 0.85922 0.56113 0.90584 0.0
H881 H 0.90247 0.57875 0.98423 0.0
H882 H 0.86236 0.5396 0.80157 0.0
H883 H 0.87024 0.5575 0.76745 0.0
H884 H 0.85412 0.55124 0.81341 0.0
H885 H 0.91509 0.55919 0.89914 0.0
H886 H 0.92164 0.57552 0.94413 0.0
H887 H 0.92235 0.57734 0.86762 0.0
C888 C 0.54599 0.65754 0.29162 0.0
C889 C 0.54888 0.6456 0.29484 0.0
C890 C 0.55114 0.66759 0.24504 0.0
C891 C 0.55874 0.66525 0.19918 0.0
C892 C 0.56139 0.65299 0.20191 0.0
C893 C 0.55673 0.64355 0.25014 0.0
C894 C 0.54859 0.68081 0.24524 0.0
C895 C 0.56889 0.64965 0.15333 0.0
C896 C 0.55944 0.68348 0.05576 0.0
C897 C 0.57433 0.69533 0.05309 0.0
C898 C 0.5543 0.67342 0.1023 0.0
C899 C 0.56408 0.67567 0.14868 0.0
C900 C 0.57907 0.68783 0.14647 0.0
C901 C 0.58408 0.69728 0.09829 0.0
C902 C 0.53845 0.66029 0.10153 0.0
C903 C 0.58975 0.69107 0.19559 0.0
H904 H 0.53995 0.65918 0.32609 0.0
H905 H 0.55879 0.6342 0.25199 0.0
H906 H 0.55944 0.6914 0.23961 0.0
H907 H 0.54127 0.67995 0.20901 0.0
H908 H 0.54327 0.68156 0.28537 0.0
H909 H 0.56941 0.63924 0.16063 0.0
H910 H 0.56269 0.64839 0.11309 0.0
H911 H 0.58049 0.65913 0.14731 0.0
H912 H 0.55187 0.68192 0.02091 0.0
H913 H 0.59554 0.70657 0.09687 0.0
H914 H 0.53193 0.66124 0.1373 0.0
H915 H 0.53857 0.64965 0.10755 0.0
H916 H 0.53254 0.6596 0.06103 0.0
H917 H 0.58473 0.6924 0.23548 0.0
H918 H 0.60077 0.7014 0.18861 0.0
H919 H 0.5917 0.6815 0.20204 0.0
C920 C 0.36316 0.91697 0.26076 0.0
C921 C 0.36148 0.90687 0.30422 0.0
C922 C 0.35362 0.91228 0.21282 0.0
C923 C 0.34167 0.89722 0.20905 0.0
C924 C 0.33967 0.88707 0.25376 0.0
C925 C 0.34979 0.89193 0.3001 0.0
C926 C 0.35658 0.92338 0.16548 0.0
C927 C 0.32679 0.87109 0.25282 0.0
C928 C 0.30934 0.88978 0.1085 0.0
C929 C 0.31174 0.88252 0.06256 0.0
C930 C 0.31876 0.89431 0.15679 0.0
C931 C 0.33132 0.89212 0.15836 0.0
C932 C 0.33402 0.88515 0.1112 0.0
C933 C 0.32401 0.88012 0.06457 0.0
C934 C 0.31505 0.90112 0.20673 0.0
C935 C 0.34757 0.88312 0.10976 0.0
H936 H 0.37231 0.92849 0.26323 0.0
H937 H 0.34842 0.88407 0.33357 0.0
H938 H 0.35824 0.91895 0.12468 0.0
H939 H 0.34674 0.92494 0.15985 0.0
H940 H 0.36664 0.93451 0.17384 0.0
H941 H 0.32619 0.86489 0.29244 0.0
H942 H 0.31601 0.87096 0.24735 0.0
H943 H 0.32801 0.86501 0.21605 0.0
H944 H 0.29973 0.89145 0.10754 0.0
H945 H 0.32592 0.87453 0.02913 0.0
H946 H 0.32434 0.91273 0.21431 0.0
H947 H 0.31382 0.89455 0.24593 0.0
H948 H 0.30451 0.90143 0.19998 0.0
H949 H 0.35795 0.89408 0.11667 0.0
H950 H 0.34859 0.87834 0.06867 0.0
H951 H 0.34687 0.87554 0.14471 0.0
C952 C 0.09113 0.44989 0.23418 0.0
C953 C 0.10088 0.45698 0.28011 0.0
C954 C 0.0959 0.44534 0.18562 0.0
C955 C 0.11058 0.44732 0.18384 0.0
C956 C 0.12029 0.45406 0.23109 0.0
C957 C 0.11545 0.45913 0.27795 0.0
C958 C 0.08536 0.43878 0.13556 0.0
C959 C 0.13578 0.45585 0.23234 0.0
C960 C 0.11723 0.42245 0.08076 0.0
C961 C 0.12585 0.43261 0.03773 0.0
C962 C 0.11239 0.42712 0.1287 0.0
C963 C 0.11571 0.44223 0.1329 0.0
C964 C 0.12406 0.45244 0.08862 0.0
C965 C 0.1293 0.4476 0.04225 0.0
C966 C 0.10406 0.41595 0.17564 0.0
C967 C 0.1274 0.4685 0.09007 0.0
H968 H 0.07994 0.44844 0.23528 0.0
H969 H 0.12301 0.46462 0.31338 0.0
H970 H 0.09076 0.44546 0.09664 0.0
H971 H 0.0829 0.42716 0.12728 0.0
H972 H 0.07457 0.43856 0.14261 0.0
H973 H 0.14157 0.4604 0.27363 0.0
H974 H 0.13501 0.44484 0.22468 0.0
H975 H 0.14277 0.46353 0.19779 0.0
H976 H 0.1147 0.41089 0.07795 0.0
H977 H 0.13594 0.45549 0.0091 0.0
H978 H 0.09273 0.41457 0.18128 0.0
H979 H 0.11014 0.42019 0.21658 0.0
H980 H 0.10278 0.40476 0.16684 0.0
H981 H 0.11682 0.46877 0.09573 0.0
H982 H 0.13305 0.47473 0.05057 0.0
H983 H 0.13473 0.47444 0.12693 0.0
C984 C 0.11155 0.64281 0.26021 0.0
C985 C 0.10334 0.64441 0.30463 0.0
C986 C 0.11597 0.65228 0.21212 0.0
C987 C 0.11266 0.6641 0.20927 0.0
C988 C 0.1047 0.666 0.25488 0.0
C989 C 0.09984 0.65593 0.30132 0.0
C990 C 0.12392 0.64944 0.16381 0.0
C991 C 0.10146 0.67878 0.25496 0.0
C992 C 0.13761 0.6965 0.10952 0.0
C993 C 0.12801 0.69416 0.06338 0.0
C994 C 0.13262 0.68711 0.15779 0.0
C995 C 0.11783 0.67461 0.15914 0.0
C996 C 0.10814 0.67206 0.11208 0.0
C997 C 0.11324 0.68206 0.06536 0.0
C998 C 0.14316 0.69068 0.20766 0.0
C999 C 0.0925 0.65858 0.11055 0.0
H1000 H 0.11408 0.63377 0.26212 0.0
H1001 H 0.09349 0.6572 0.33558 0.0
H1002 H 0.11778 0.64804 0.1233 0.0
H1003 H 0.13537 0.65921 0.15839 0.0
H1004 H 0.12486 0.63927 0.17102 0.0
H1005 H 0.09583 0.67917 0.2948 0.0
H1006 H 0.11209 0.68963 0.24998 0.0
H1007 H 0.09417 0.67768 0.21832 0.0
H1008 H 0.14898 0.70597 0.1085 0.0
H1009 H 0.10581 0.6802 0.02969 0.0
H1010 H 0.14571 0.6815 0.21392 0.0
H1011 H 0.13773 0.69151 0.24731 0.0
H1012 H 0.15391 0.70137 0.2016 0.0
H1013 H 0.09306 0.64814 0.11575 0.0
H1014 H 0.08657 0.65786 0.07008 0.0
H1015 H 0.08577 0.65907 0.14649 0.0
C1016 C 0.36465 0.44845 0.25448 0.0
C1017 C 0.36278 0.45669 0.29814 0.0
C1018 C 0.35521 0.4437 0.20624 0.0
C1019 C 0.34319 0.4467 0.20253 0.0
C1020 C 0.34094 0.45453 0.2477 0.0
C1021 C 0.35096 0.45973 0.29424 0.0
C1022 C 0.35844 0.43593 0.15835 0.0
C1023 C 0.32796 0.45747 0.24684 0.0
C1024 C 0.32612 0.44757 0.05862 0.0
C1025 C 0.31378 0.43298 0.05493 0.0
C1026 C 0.33603 0.45202 0.10543 0.0
C1027 C 0.33315 0.44187 0.15109 0.0
C1028 C 0.32056 0.42715 0.14769 0.0
C1029 C 0.31123 0.4228 0.09917 0.0
C1030 C 0.34962 0.4676 0.10595 0.0
C1031 C 0.31665 0.41614 0.19612 0.0
H1032 H 0.37392 0.44628 0.25688 0.0
H1033 H 0.34947 0.46608 0.32792 0.0
H1034 H 0.34859 0.42464 0.15085 0.0
H1035 H 0.3605 0.44244 0.11833 0.0
H1036 H 0.36836 0.43467 0.16727 0.0
H1037 H 0.327 0.46255 0.28726 0.0
H1038 H 0.32937 0.46517 0.21128 0.0
H1039 H 0.31727 0.44683 0.23944 0.0
H1040 H 0.32812 0.45546 0.02446 0.0
H1041 H 0.30156 0.41157 0.09687 0.0
H1042 H 0.35994 0.46696 0.1135 0.0
H1043 H 0.34868 0.47424 0.1413 0.0
H1044 H 0.35093 0.47371 0.06536 0.0
H1045 H 0.32602 0.41395 0.20396 0.0
H1046 H 0.30629 0.40526 0.18755 0.0
H1047 H 0.31501 0.421 0.23583 0.0
C1048 C 0.54994 0.91337 0.23678 0.0
C1049 C 0.5486 0.90667 0.29008 0.0
C1050 C 0.55457 0.90864 0.18845 0.0
C1051 C 0.55841 0.89723 0.19388 0.0
C1052 C 0.5574 0.8907 0.2482 0.0
C1053 C 0.55224 0.89531 0.29546 0.0
C1054 C 0.55503 0.91561 0.13132 0.0
C1055 C 0.56176 0.87882 0.25639 0.0
C1056 C 0.55724 0.87432 0.06378 0.0
C1057 C 0.57238 0.8815 0.04721 0.0
C1058 C 0.55251 0.87948 0.11062 0.0
C1059 C 0.56322 0.89197 0.14263 0.0
C1060 C 0.57851 0.89934 0.12579 0.0
C1061 C 0.58288 0.89412 0.07807 0.0
C1062 C 0.53606 0.87147 0.12614 0.0
C1063 C 0.59034 0.91254 0.15905 0.0
H1064 H 0.54694 0.92204 0.23263 0.0
H1065 H 0.55116 0.89013 0.33675 0.0
H1066 H 0.56653 0.9209 0.11327 0.0
H1067 H 0.54745 0.90676 0.10101 0.0
H1068 H 0.55157 0.92424 0.13415 0.0
H1069 H 0.56113 0.87546 0.30175 0.0
H1070 H 0.55424 0.86872 0.23098 0.0
H1071 H 0.57338 0.88302 0.24078 0.0
H1072 H 0.54904 0.86458 0.04023 0.0
H1073 H 0.59462 0.89968 0.06597 0.0
H1074 H 0.53194 0.87959 0.12758 0.0
H1075 H 0.53444 0.86645 0.16924 0.0
H1076 H 0.52906 0.86241 0.09545 0.0
H1077 H 0.58759 0.92168 0.16034 0.0
H1078 H 0.60174 0.91706 0.14049 0.0
H1079 H 0.59053 0.9091 0.20374 0.0
C1080 C 0.22097 0.98637 0.89363 0.0
C1081 C 0.20612 0.97457 0.89995 0.0
C1082 C 0.22775 0.99771 0.93543 0.0
C1083 C 0.21946 0.9973 0.98447 0.0
C1084 C 0.2045 0.98545 0.99086 0.0
C1085 C 0.19806 0.97431 0.94882 0.0
C1086 C 0.24374 0.01018 0.92704 0.0
C1087 C 0.19514 0.98462 0.04187 0.0
C1088 C 0.23796 0.02019 0.11915 0.0
C1089 C 0.23567 0.03246 0.11215 0.0
C1090 C 0.23318 0.00886 0.07719 0.0
C1091 C 0.22587 0.00977 0.02725 0.0
C1092 C 0.2236 0.02214 0.02001 0.0
C1093 C 0.2285 0.03325 0.06224 0.0
C1094 C 0.23581 0.99585 0.08648 0.0
C1095 C 0.21571 0.02352 0.96798 0.0
H1096 H 0.22736 0.98666 0.85645 0.0
H1097 H 0.18656 0.96534 0.95444 0.0
H1098 H 0.24407 0.0211 0.92355 0.0
H1099 H 0.25064 0.0109 0.96454 0.0
H1100 H 0.24891 0.00854 0.88817 0.0
H1101 H 0.18386 0.97435 0.04166 0.0
H1102 H 0.20098 0.9848 0.08185 0.0
H1103 H 0.19364 0.99458 0.04253 0.0
H1104 H 0.24356 0.01948 0.15714 0.0
H1105 H 0.22658 0.04259 0.05598 0.0
H1106 H 0.24188 0.99469 0.04949 0.0
H1107 H 0.22488 0.98525 0.08974 0.0
H1108 H 0.24239 0.99718 0.12578 0.0
H1109 H 0.22139 0.02295 0.92866 0.0
H1110 H 0.21543 0.03418 0.96748 0.0
H1111 H 0.20398 0.01401 0.96663 0.0
C1112 C 0.98662 0.21735 0.12544 0.0
C1113 C 0.97488 0.20241 0.12165 0.0
C1114 C 0.99786 0.22364 0.0831 0.0
C1115 C 0.99743 0.21474 0.03612 0.0
C1116 C 0.98574 0.19962 0.03261 0.0
C1117 C 0.97466 0.19368 0.07514 0.0
C1118 C 0.01017 0.23981 0.08845 0.0
C1119 C 0.98492 0.18964 0.9839 0.0
C1120 C 0.01951 0.23248 0.89912 0.0
C1121 C 0.03222 0.23095 0.90676 0.0
C1122 C 0.00821 0.22753 0.94125 0.0
C1123 C 0.00961 0.22086 0.99213 0.0
C1124 C 0.02236 0.21924 0.99984 0.0
C1125 C 0.03343 0.22425 0.95732 0.0
C1126 C 0.99475 0.22942 0.93135 0.0
C1127 C 0.0243 0.21207 0.053 0.0
H1128 H 0.98685 0.22424 0.16078 0.0
H1129 H 0.96573 0.18209 0.07167 0.0
H1130 H 0.02125 0.24045 0.09107 0.0
H1131 H 0.01036 0.24618 0.04999 0.0
H1132 H 0.00874 0.24534 0.12666 0.0
H1133 H 0.97491 0.17821 0.9867 0.0
H1134 H 0.98456 0.19473 0.94267 0.0
H1135 H 0.99514 0.18857 0.98355 0.0
H1136 H 0.01846 0.2377 0.8606 0.0
H1137 H 0.04312 0.22292 0.96407 0.0
H1138 H 0.99365 0.23595 0.96675 0.0
H1139 H 0.98436 0.21826 0.93092 0.0
H1140 H 0.99551 0.23522 0.8905 0.0
H1141 H 0.02388 0.21815 0.09136 0.0
H1142 H 0.03508 0.21203 0.05326 0.0
H1143 H 0.01495 0.2003 0.05655 0.0
C1144 C 0.78519 0.81157 0.93768 0.0
C1145 C 0.7764 0.80285 0.89162 0.0
C1146 C 0.79015 0.80549 0.98027 0.0
C1147 C 0.78627 0.79023 0.97726 0.0
C1148 C 0.77754 0.78135 0.93067 0.0
C1149 C 0.77275 0.78777 0.88827 0.0
C1150 C 0.79961 0.81547 0.02853 0.0
C1151 C 0.7732 0.76504 0.92585 0.0
C1152 C 0.81232 0.78015 0.05595 0.0
C1153 C 0.80449 0.77377 0.10698 0.0
C1154 C 0.80636 0.78521 0.01328 0.0
C1155 C 0.79216 0.78397 0.02129 0.0
C1156 C 0.78415 0.7776 0.07259 0.0
C1157 C 0.7904 0.77259 0.11487 0.0
C1158 C 0.81539 0.79203 0.95966 0.0
C1159 C 0.76898 0.77613 0.08282 0.0
H1160 H 0.78818 0.82326 0.94079 0.0
H1161 H 0.76586 0.78089 0.85329 0.0
H1162 H 0.79418 0.81057 0.07 0.0
H1163 H 0.81075 0.81621 0.02864 0.0
H1164 H 0.80137 0.82701 0.0254 0.0
H1165 H 0.7661 0.75955 0.88786 0.0
H1166 H 0.78344 0.76406 0.92316 0.0
H1167 H 0.76697 0.75886 0.96454 0.0
H1168 H 0.82322 0.78121 0.04896 0.0
H1169 H 0.78419 0.76761 0.15374 0.0
H1170 H 0.81815 0.80389 0.9557 0.0
H1171 H 0.80868 0.78596 0.92165 0.0
H1172 H 0.82603 0.79172 0.9591 0.0
H1173 H 0.77007 0.78742 0.08299 0.0
H1174 H 0.76393 0.77048 0.12389 0.0
H1175 H 0.76119 0.76965 0.04771 0.0
C1176 C 0.77725 0.97157 0.95922 0.0
C1177 C 0.77156 0.97317 0.90667 0.0
C1178 C 0.78202 0.98259 1.00171 0.0
C1179 C 0.78123 0.99574 0.99196 0.0
C1180 C 0.77551 0.99751 0.93926 0.0
C1181 C 0.77074 0.98621 0.89719 0.0
C1182 C 0.78816 0.98023 0.05688 0.0
C1183 C 0.77455 0.01142 0.92719 0.0
C1184 C 0.78498 0.01953 0.12305 0.0
C1185 C 0.80022 0.03058 0.12065 0.0
C1186 C 0.77851 0.00827 0.08082 0.0
C1187 C 0.78752 0.00801 0.03549 0.0
C1188 C 0.80294 0.01898 0.03358 0.0
C1189 C 0.80906 0.03006 0.07593 0.0
C1190 C 0.76202 0.99672 0.08444 0.0
C1191 C 0.81306 0.01902 0.9868 0.0
H1192 H 0.77801 0.96161 0.96757 0.0
H1193 H 0.7663 0.98757 0.85713 0.0
H1194 H 0.80012 0.98903 0.06172 0.0
H1195 H 0.78197 0.98128 0.09366 0.0
H1196 H 0.78736 0.96907 0.05892 0.0
H1197 H 0.76918 0.01082 0.88546 0.0
H1198 H 0.76806 0.01309 0.96126 0.0
H1199 H 0.78599 0.02143 0.92722 0.0
H1200 H 0.77803 0.0199 0.157 0.0
H1201 H 0.82088 0.03846 0.07369 0.0
H1202 H 0.76058 0.98532 0.08819 0.0
H1203 H 0.75624 0.99692 0.0448 0.0
H1204 H 0.75646 0.99866 0.12138 0.0
H1205 H 0.81341 0.00842 0.98808 0.0
H1206 H 0.82473 0.02859 0.99053 0.0
H1207 H 0.80854 0.0196 0.94454 0.0
C1208 C 0.02068 0.78272 0.89709 0.0
C1209 C 0.03429 0.79585 0.90925 0.0
C1210 C 0.00925 0.77603 0.93872 0.0
C1211 C 0.01147 0.78261 0.99364 0.0
C1212 C 0.02528 0.79563 1.00636 0.0
C1213 C 0.03642 0.80202 0.96438 0.0
C1214 C 0.99467 0.76211 0.92358 0.0
C1215 C 0.02815 0.80316 0.06395 0.0
C1216 C 0.9782 0.77851 0.07873 0.0
C1217 C 0.97653 0.7682 0.12151 0.0
C1218 C 0.98926 0.78296 0.03648 0.0
C1219 C 0.99899 0.77696 0.03632 0.0
C1220 C 0.99748 0.76661 0.0795 0.0
C1221 C 0.98632 0.76241 0.12185 0.0
C1222 C 0.99062 0.79427 0.99224 0.0
C1223 C 0.00763 0.75995 0.08075 0.0
H1224 H 0.0189 0.77777 0.85503 0.0
H1225 H 0.04686 0.81208 0.97507 0.0
H1226 H 0.99184 0.75326 0.95613 0.0
H1227 H 0.98543 0.76473 0.92337 0.0
H1228 H 0.99514 0.7576 0.8811 0.0
H1229 H 0.03983 0.81267 0.06831 0.0
H1230 H 0.02032 0.8075 0.07054 0.0
H1231 H 0.02601 0.79495 0.09842 0.0
H1232 H 0.97077 0.78314 0.07814 0.0
H1233 H 0.985 0.75432 0.15423 0.0
H1234 H 0.98972 0.78963 0.94883 0.0
H1235 H 1.00181 0.80456 0.99551 0.0
H1236 H 0.98186 0.79748 0.99716 0.0
H1237 H 0.00699 0.75441 0.03946 0.0
H1238 H 0.00464 0.7516 0.11555 0.0
H1239 H 0.01946 0.76898 0.08655 0.0
C1240 C 0.23847 0.2219 0.11978 0.0
C1241 C 0.23979 0.20931 0.10635 0.0
C1242 C 0.2339 0.22873 0.07817 0.0
C1243 C 0.23054 0.22282 0.02198 0.0
C1244 C 0.23229 0.21044 0.00794 0.0
C1245 C 0.23688 0.20391 0.04993 0.0
C1246 C 0.23224 0.242 0.0947 0.0
C1247 C 0.22873 0.20364 0.94891 0.0
C1248 C 0.20137 0.22629 0.93434 0.0
C1249 C 0.21016 0.23733 0.89399 0.0
C1250 C 0.2079 0.22173 0.9765 0.0
C1251 C 0.22371 0.22843 0.97915 0.0
C1252 C 0.23272 0.23953 0.93837 0.0
C1253 C 0.22583 0.24378 0.89593 0.0
C1254 C 0.1978 0.20961 0.01801 0.0
C1255 C 0.24962 0.24697 0.93994 0.0
H1256 H 0.24077 0.22627 0.16287 0.0
H1257 H 0.23798 0.19431 0.03825 0.0
H1258 H 0.23822 0.25129 0.06373 0.0
H1259 H 0.2202 0.23874 0.09351 0.0
H1260 H 0.23666 0.24618 0.13811 0.0
H1261 H 0.23164 0.19466 0.94376 0.0
H1262 H 0.21656 0.19876 0.94016 0.0
H1263 H 0.23491 0.21242 0.91629 0.0
H1264 H 0.18924 0.22118 0.93306 0.0
H1265 H 0.2327 0.25244 0.86543 0.0
H1266 H 0.20078 0.21377 0.06238 0.0
H1267 H 0.19944 0.19977 0.01377 0.0
H1268 H 0.18573 0.20579 0.01104 0.0
H1269 H 0.25384 0.25218 0.98231 0.0
H1270 H 0.25506 0.25576 0.90661 0.0
H1271 H 0.2531 0.23846 0.93378 0.0
C1272 C 0.90102 0.36841 0.39088 0.0
C1273 C 0.90608 0.36655 0.44442 0.0
C1274 C 0.89629 0.35738 0.34839 0.0
C1275 C 0.89654 0.34398 0.35903 0.0
C1276 C 0.90186 0.34204 0.41242 0.0
C1277 C 0.90655 0.35333 0.45452 0.0
C1278 C 0.8906 0.35993 0.29249 0.0
C1279 C 0.90231 0.32791 0.42542 0.0
C1280 C 0.86785 0.30983 0.27643 0.0
C1281 C 0.87643 0.30876 0.23193 0.0
C1282 C 0.87433 0.32102 0.31824 0.0
C1283 C 0.88989 0.33156 0.31611 0.0
C1284 C 0.89867 0.3307 0.27114 0.0
C1285 C 0.89182 0.31935 0.22938 0.0
C1286 C 0.86444 0.32163 0.36457 0.0
C1287 C 0.91529 0.34173 0.26738 0.0
H1288 H 0.90061 0.37853 0.38191 0.0
H1289 H 0.91052 0.35176 0.49532 0.0
H1290 H 0.89662 0.35837 0.2563 0.0
H1291 H 0.8785 0.35155 0.28755 0.0
H1292 H 0.892 0.37134 0.28948 0.0
H1293 H 0.90777 0.32855 0.46698 0.0
H1294 H 0.8907 0.31817 0.42645 0.0
H1295 H 0.90844 0.32573 0.39133 0.0
H1296 H 0.85592 0.30181 0.27881 0.0
H1297 H 0.89858 0.31856 0.19559 0.0
H1298 H 0.86457 0.33247 0.36246 0.0
H1299 H 0.86881 0.32099 0.40707 0.0
H1300 H 0.85261 0.31236 0.36108 0.0
H1301 H 0.91723 0.3533 0.26263 0.0
H1302 H 0.92065 0.33932 0.23094 0.0
H1303 H 0.92091 0.34146 0.30735 0.0
C1304 C 0.68746 0.57011 0.22532 0.0
C1305 C 0.69949 0.56739 0.23089 0.0
C1306 C 0.6761 0.5651 0.26722 0.0
C1307 C 0.67674 0.55714 0.31562 0.0
C1308 C 0.68875 0.55425 0.32098 0.0
C1309 C 0.69989 0.55936 0.2788 0.0
C1310 C 0.66342 0.56835 0.25987 0.0
C1311 C 0.68982 0.54565 0.37128 0.0
C1312 C 0.65421 0.55261 0.45138 0.0
C1313 C 0.64193 0.53805 0.44462 0.0
C1314 C 0.66546 0.55917 0.40915 0.0
C1315 C 0.66445 0.55095 0.35914 0.0
C1316 C 0.65214 0.53625 0.35234 0.0
C1317 C 0.64112 0.53002 0.39491 0.0
C1318 C 0.67846 0.57486 0.41807 0.0
C1319 C 0.65066 0.52698 0.30021 0.0
H1320 H 0.68707 0.57637 0.18885 0.0
H1321 H 0.70902 0.55706 0.2837 0.0
H1322 H 0.65256 0.55766 0.25754 0.0
H1323 H 0.66286 0.57462 0.29735 0.0
H1324 H 0.66473 0.575 0.22079 0.0
H1325 H 0.70012 0.54471 0.37 0.0
H1326 H 0.6898 0.55124 0.41165 0.0
H1327 H 0.6799 0.53416 0.37216 0.0
H1328 H 0.65493 0.55898 0.48921 0.0
H1329 H 0.63177 0.51873 0.38893 0.0
H1330 H 0.67931 0.58211 0.3816 0.0
H1331 H 0.68913 0.57463 0.41977 0.0
H1332 H 0.67734 0.58 0.45801 0.0
H1333 H 0.65096 0.53317 0.26102 0.0
H1334 H 0.64009 0.51595 0.30027 0.0
H1335 H 0.66028 0.52496 0.29799 0.0
C1336 C 0.43286 0.11688 0.23012 0.0
C1337 C 0.43849 0.13244 0.22868 0.0
C1338 C 0.43755 0.11037 0.27252 0.0
C1339 C 0.44827 0.11965 0.31388 0.0
C1340 C 0.45417 0.13536 0.31181 0.0
C1341 C 0.44919 0.14152 0.26961 0.0
C1342 C 0.43097 0.09356 0.27337 0.0
C1343 C 0.46584 0.14575 0.35408 0.0
C1344 C 0.4544 0.10461 0.45457 0.0
C1345 C 0.46739 0.10387 0.44249 0.0
C1346 C 0.44772 0.10924 0.41263 0.0
C1347 C 0.45414 0.11322 0.35734 0.0
C1348 C 0.46704 0.1122 0.3447 0.0
C1349 C 0.47346 0.10759 0.38713 0.0
C1350 C 0.43395 0.11017 0.42777 0.0
C1351 C 0.47435 0.11638 0.28661 0.0
H1352 H 0.42449 0.10977 0.19913 0.0
H1353 H 0.45371 0.15357 0.26876 0.0
H1354 H 0.44002 0.09078 0.26791 0.0
H1355 H 0.42561 0.08899 0.31527 0.0
H1356 H 0.42247 0.08786 0.23931 0.0
H1357 H 0.4691 0.15769 0.34735 0.0
H1358 H 0.46152 0.1425 0.39817 0.0
H1359 H 0.47607 0.14475 0.35054 0.0
H1360 H 0.44953 0.1017 0.49685 0.0
H1361 H 0.4834 0.10698 0.37658 0.0
H1362 H 0.42488 0.10381 0.39634 0.0
H1363 H 0.43664 0.12204 0.42594 0.0
H1364 H 0.42968 0.10571 0.47108 0.0
H1365 H 0.46598 0.11 0.25294 0.0
H1366 H 0.48384 0.11418 0.28258 0.0
H1367 H 0.47866 0.12849 0.27842 0.0
C1368 C 0.43964 0.32032 0.24165 0.0
C1369 C 0.43883 0.30655 0.25337 0.0
C1370 C 0.44458 0.33168 0.28353 0.0
C1371 C 0.4488 0.32922 0.33837 0.0
C1372 C 0.44778 0.31529 0.35056 0.0
C1373 C 0.44287 0.30422 0.30823 0.0
C1374 C 0.44552 0.34641 0.26892 0.0
C1375 C 0.45222 0.31215 0.40814 0.0
C1376 C 0.4774 0.36225 0.42623 0.0
C1377 C 0.46844 0.36375 0.46798 0.0
C1378 C 0.47111 0.35126 0.38358 0.0
C1379 C 0.45538 0.34147 0.38196 0.0
C1380 C 0.44622 0.34278 0.42419 0.0
C1381 C 0.45287 0.35385 0.46697 0.0
C1382 C 0.48136 0.35009 0.34034 0.0
C1383 C 0.4294 0.33257 0.42387 0.0
H1384 H 0.43648 0.32225 0.19978 0.0
H1385 H 0.44226 0.29366 0.31853 0.0
H1386 H 0.43921 0.34906 0.30076 0.0
H1387 H 0.45739 0.3556 0.27057 0.0
H1388 H 0.44098 0.34627 0.22582 0.0
H1389 H 0.4501 0.30047 0.41176 0.0
H1390 H 0.46435 0.32 0.41576 0.0
H1391 H 0.44592 0.31403 0.44242 0.0
H1392 H 0.48945 0.3698 0.42668 0.0
H1393 H 0.44584 0.35504 0.49853 0.0
H1394 H 0.47796 0.35124 0.29661 0.0
H1395 H 0.48039 0.33887 0.34321 0.0
H1396 H 0.49332 0.35879 0.34666 0.0
H1397 H 0.42473 0.33345 0.38234 0.0
H1398 H 0.4238 0.33531 0.45849 0.0
H1399 H 0.4266 0.32072 0.42882 0.0
C1400 C 0.69997 0.14298 0.27956 0.0
C1401 C 0.69915 0.13505 0.22955 0.0
C1402 C 0.68894 0.13666 0.32213 0.0
C1403 C 0.67663 0.12197 0.31505 0.0
C1404 C 0.67563 0.11385 0.26474 0.0
C1405 C 0.68688 0.12049 0.22251 0.0
C1406 C 0.69042 0.14583 0.37455 0.0
C1407 C 0.66264 0.09817 0.25551 0.0
C1408 C 0.65355 0.10262 0.44863 0.0
C1409 C 0.64154 0.10536 0.44323 0.0
C1410 C 0.66492 0.10766 0.40672 0.0
C1411 C 0.66432 0.11569 0.35851 0.0
C1412 C 0.65231 0.1186 0.35328 0.0
C1413 C 0.64116 0.11344 0.39543 0.0
C1414 C 0.67758 0.10438 0.4139 0.0
C1415 C 0.65126 0.12728 0.30321 0.0
H1416 H 0.70932 0.15425 0.28577 0.0
H1417 H 0.68617 0.1142 0.18447 0.0
H1418 H 0.6808 0.14785 0.37698 0.0
H1419 H 0.69011 0.13957 0.41352 0.0
H1420 H 0.70099 0.15686 0.37471 0.0
H1421 H 0.66379 0.09309 0.21541 0.0
H1422 H 0.66179 0.09086 0.29178 0.0
H1423 H 0.65197 0.09838 0.25391 0.0
H1424 H 0.65393 0.09632 0.485 0.0
H1425 H 0.63204 0.11577 0.39064 0.0
H1426 H 0.68845 0.11506 0.41662 0.0
H1427 H 0.67818 0.09821 0.37618 0.0
H1428 H 0.67623 0.09763 0.45273 0.0
H1429 H 0.66119 0.13877 0.30261 0.0
H1430 H 0.64096 0.12821 0.30455 0.0
H1431 H 0.65132 0.12176 0.2627 0.0
C1432 C 0.89192 0.528 0.38905 0.0
C1433 C 0.89938 0.53622 0.43812 0.0
C1434 C 0.88678 0.53398 0.34684 0.0
C1435 C 0.88903 0.54863 0.3534 0.0
C1436 C 0.89639 0.55701 0.40297 0.0
C1437 C 0.90146 0.5507 0.44484 0.0
C1438 C 0.87886 0.52455 0.29516 0.0
C1439 C 0.89893 0.57264 0.41162 0.0
C1440 C 0.88512 0.56723 0.21826 0.0
C1441 C 0.87032 0.56441 0.22321 0.0
C1442 C 0.89152 0.56249 0.26092 0.0
C1443 C 0.88291 0.55469 0.3095 0.0
C1444 C 0.86796 0.55172 0.31438 0.0
C1445 C 0.86189 0.55658 0.27141 0.0
C1446 C 0.90749 0.56583 0.25407 0.0
C1447 C 0.85829 0.54327 0.36489 0.0
H1448 H 0.89011 0.51676 0.38317 0.0
H1449 H 0.90727 0.55721 0.48223 0.0
H1450 H 0.86723 0.52258 0.29292 0.0
H1451 H 0.88473 0.53059 0.25572 0.0
H1452 H 0.87832 0.51349 0.29578 0.0
H1453 H 0.90508 0.57783 0.45176 0.0
H1454 H 0.90542 0.57992 0.37531 0.0
H1455 H 0.88799 0.57232 0.4127 0.0
H1456 H 0.89179 0.57336 0.18162 0.0
H1457 H 0.85043 0.55424 0.2759 0.0
H1458 H 0.90771 0.55517 0.252 0.0
H1459 H 0.91426 0.57214 0.29162 0.0
H1460 H 0.91288 0.57247 0.215 0.0
H1461 H 0.8567 0.53178 0.36633 0.0
H1462 H 0.84706 0.54235 0.36337 0.0
H1463 H 0.86393 0.54898 0.4051 0.0
C1464 C 0.535 0.64091 0.61943 0.0
C1465 C 0.5426 0.64154 0.56866 0.0
C1466 C 0.54162 0.65199 0.66152 0.0
C1467 C 0.55629 0.66422 0.65319 0.0
C1468 C 0.56414 0.66501 0.60233 0.0
C1469 C 0.5572 0.65367 0.56056 0.0
C1470 C 0.53271 0.65074 0.71453 0.0
C1471 C 0.5798 0.67791 0.59185 0.0
C1472 C 0.56421 0.69968 0.73169 0.0
C1473 C 0.57218 0.69948 0.78017 0.0
C1474 C 0.55945 0.68857 0.68959 0.0
C1475 C 0.56265 0.67678 0.69554 0.0
C1476 C 0.57069 0.67642 0.74417 0.0
C1477 C 0.57533 0.68775 0.78606 0.0
C1478 C 0.55072 0.68933 0.63913 0.0
C1479 C 0.57428 0.664 0.75207 0.0
H1480 H 0.5237 0.63168 0.62657 0.0
H1481 H 0.56323 0.65426 0.52191 0.0
H1482 H 0.53922 0.65139 0.75318 0.0
H1483 H 0.53054 0.66026 0.7163 0.0
H1484 H 0.52176 0.64009 0.71601 0.0
H1485 H 0.58478 0.67643 0.55208 0.0
H1486 H 0.57956 0.68855 0.58873 0.0
H1487 H 0.58721 0.67908 0.62822 0.0
H1488 H 0.56157 0.70857 0.72645 0.0
H1489 H 0.58156 0.68753 0.82293 0.0
H1490 H 0.53921 0.67943 0.63931 0.0
H1491 H 0.55616 0.689 0.59876 0.0
H1492 H 0.54981 0.69965 0.63934 0.0
H1493 H 0.56371 0.65308 0.75644 0.0
H1494 H 0.58135 0.66575 0.7903 0.0
H1495 H 0.58023 0.6632 0.71397 0.0
C1496 C 0.31809 0.89253 0.78793 0.0
C1497 C 0.30975 0.87684 0.79265 0.0
C1498 C 0.32913 0.89948 0.74512 0.0
C1499 C 0.33204 0.89054 0.70694 0.0
C1500 C 0.32384 0.87471 0.71257 0.0
C1501 C 0.31279 0.8681 0.75491 0.0
C1502 C 0.33755 0.91638 0.74026 0.0
C1503 C 0.32679 0.86471 0.674 0.0
C1504 C 0.35285 0.90444 0.56493 0.0
C1505 C 0.36717 0.90696 0.57943 0.0
C1506 C 0.34142 0.89975 0.60649 0.0
C1507 C 0.34437 0.89753 0.66375 0.0
C1508 C 0.35894 0.9006 0.67883 0.0
C1509 C 0.37008 0.90527 0.63684 0.0
C1510 C 0.32604 0.89669 0.58883 0.0
C1511 C 0.36265 0.89833 0.73905 0.0
H1512 H 0.31564 0.89933 0.81634 0.0
H1513 H 0.30642 0.85596 0.75836 0.0
H1514 H 0.34975 0.9208 0.74643 0.0
H1515 H 0.33607 0.91975 0.69689 0.0
H1516 H 0.3337 0.92173 0.77201 0.0
H1517 H 0.31925 0.85259 0.68332 0.0
H1518 H 0.32524 0.8668 0.62882 0.0
H1519 H 0.33859 0.86734 0.67892 0.0
H1520 H 0.35048 0.90579 0.52102 0.0
H1521 H 0.38112 0.90739 0.6493 0.0
H1522 H 0.32207 0.90246 0.61804 0.0
H1523 H 0.31792 0.88447 0.59182 0.0
H1524 H 0.32592 0.90043 0.54449 0.0
H1525 H 0.35943 0.90443 0.76969 0.0
H1526 H 0.37478 0.90222 0.74472 0.0
H1527 H 0.35612 0.88622 0.7502 0.0
C1528 C 0.11975 0.43454 0.77581 0.0
C1529 C 0.13266 0.43369 0.76354 0.0
C1530 C 0.1133 0.43958 0.73434 0.0
C1531 C 0.11994 0.44391 0.67945 0.0
C1532 C 0.13275 0.44276 0.66662 0.0
C1533 C 0.13889 0.43769 0.70845 0.0
C1534 C 0.09959 0.4406 0.74956 0.0
C1535 C 0.14032 0.44735 0.60905 0.0
C1536 C 0.10001 0.44914 0.55109 0.0
C1537 C 0.10603 0.46476 0.55105 0.0
C1538 C 0.10403 0.44208 0.59367 0.0
C1539 C 0.11446 0.45087 0.63667 0.0
C1540 C 0.12069 0.46664 0.63621 0.0
C1541 C 0.11638 0.47334 0.59377 0.0
C1542 C 0.0971 0.42523 0.59279 0.0
C1543 C 0.13209 0.47653 0.68025 0.0
H1544 H 0.11476 0.43141 0.81785 0.0
H1545 H 0.14879 0.43705 0.69769 0.0
H1546 H 0.10247 0.45253 0.74956 0.0
H1547 H 0.09067 0.43468 0.71717 0.0
H1548 H 0.09505 0.43571 0.79215 0.0
H1549 H 0.14972 0.44502 0.60476 0.0
H1550 H 0.13208 0.44133 0.57461 0.0
H1551 H 0.14481 0.45955 0.60233 0.0
H1552 H 0.09188 0.44239 0.51878 0.0
H1553 H 0.12117 0.48543 0.59411 0.0
H1554 H 0.09159 0.42043 0.63426 0.0
H1555 H 0.10598 0.42223 0.58679 0.0
H1556 H 0.08866 0.41992 0.55824 0.0
H1557 H 0.12745 0.47288 0.72373 0.0
H1558 H 0.1355 0.48856 0.67509 0.0
H1559 H 0.14227 0.47544 0.677 0.0
C1560 C 0.12115 0.68556 0.79397 0.0
C1561 C 0.13647 0.69638 0.79129 0.0
C1562 C 0.11439 0.67439 0.7516 0.0
C1563 C 0.12318 0.67394 0.70584 0.0
C1564 C 0.13868 0.68469 0.70355 0.0
C1565 C 0.14509 0.69573 0.74601 0.0
C1566 C 0.09783 0.66312 0.75558 0.0
C1567 C 0.14856 0.68451 0.65629 0.0
C1568 C 0.11164 0.63718 0.62964 0.0
C1569 C 0.10589 0.63892 0.5775 0.0
C1570 C 0.11692 0.6483 0.67187 0.0
C1571 C 0.11655 0.66168 0.66231 0.0
C1572 C 0.11076 0.6636 0.61003 0.0
C1573 C 0.10551 0.65221 0.56818 0.0
C1574 C 0.1231 0.64578 0.7266 0.0
C1575 C 0.11021 0.67774 0.59821 0.0
H1576 H 0.11436 0.68605 0.82831 0.0
H1577 H 0.15695 0.70396 0.74349 0.0
H1578 H 0.09205 0.66346 0.71612 0.0
H1579 H 0.09611 0.65161 0.75927 0.0
H1580 H 0.09244 0.66524 0.79271 0.0
H1581 H 0.16033 0.6939 0.65979 0.0
H1582 H 0.14864 0.67376 0.65716 0.0
H1583 H 0.14403 0.68525 0.61427 0.0
H1584 H 0.11207 0.62704 0.63783 0.0
H1585 H 0.10104 0.65369 0.52842 0.0
H1586 H 0.1171 0.64695 0.76375 0.0
H1587 H 0.13513 0.65442 0.73105 0.0
H1588 H 0.12208 0.63451 0.72835 0.0
H1589 H 0.10394 0.67963 0.63258 0.0
H1590 H 0.1048 0.67728 0.5567 0.0
H1591 H 0.12177 0.68755 0.59795 0.0
C1592 C 0.32126 0.43383 0.78624 0.0
C1593 C 0.31093 0.43895 0.78408 0.0
C1594 C 0.33246 0.43806 0.74403 0.0
C1595 C 0.33344 0.44775 0.69904 0.0
C1596 C 0.32314 0.45305 0.69718 0.0
C1597 C 0.31206 0.44858 0.73941 0.0
C1598 C 0.34323 0.43215 0.74746 0.0
C1599 C 0.32389 0.46361 0.65081 0.0
C1600 C 0.37052 0.47297 0.62467 0.0
C1601 C 0.36858 0.46604 0.57114 0.0
C1602 C 0.35942 0.46684 0.66695 0.0
C1603 C 0.34586 0.45336 0.6561 0.0
C1604 C 0.34383 0.44609 0.60272 0.0
C1605 C 0.3552 0.45251 0.56081 0.0
C1606 C 0.36208 0.47509 0.72288 0.0
C1607 C 0.32952 0.43167 0.58956 0.0
H1608 H 0.3204 0.42628 0.82013 0.0
H1609 H 0.30422 0.45271 0.7373 0.0
H1610 H 0.34286 0.4263 0.70728 0.0
H1611 H 0.35489 0.44163 0.75247 0.0
H1612 H 0.34064 0.42426 0.78365 0.0
H1613 H 0.31475 0.46633 0.65438 0.0
H1614 H 0.33483 0.47423 0.65284 0.0
H1615 H 0.32316 0.45856 0.60832 0.0
H1616 H 0.38077 0.48338 0.63382 0.0
H1617 H 0.35356 0.44698 0.52 0.0
H1618 H 0.3604 0.46746 0.75904 0.0
H1619 H 0.35382 0.47896 0.72787 0.0
H1620 H 0.37356 0.48501 0.72589 0.0
H1621 H 0.32715 0.42327 0.62358 0.0
H1622 H 0.33007 0.42681 0.54796 0.0
H1623 H 0.31994 0.43377 0.58856 0.0
C1624 C 0.56486 0.8653 0.72007 0.0
C1625 C 0.5691 0.87183 0.77457 0.0
C1626 C 0.56004 0.87149 0.67746 0.0
C1627 C 0.55935 0.88461 0.68905 0.0
C1628 C 0.56378 0.89145 0.74351 0.0
C1629 C 0.56861 0.88499 0.78565 0.0
C1630 C 0.55535 0.86374 0.62029 0.0
C1631 C 0.56319 0.90546 0.7575 0.0
C1632 C 0.55539 0.90532 0.56056 0.0
C1633 C 0.53988 0.89996 0.56042 0.0
C1634 C 0.56199 0.9007 0.60284 0.0
C1635 C 0.55283 0.89034 0.64544 0.0
C1636 C 0.53715 0.8847 0.64465 0.0
C1637 C 0.53091 0.8896 0.60248 0.0
C1638 C 0.57876 0.90698 0.60229 0.0
C1639 C 0.52689 0.87342 0.68834 0.0
H1640 H 0.56523 0.85519 0.71035 0.0
H1641 H 0.57192 0.89021 0.82725 0.0
H1642 H 0.54323 0.8596 0.61312 0.0
H1643 H 0.56163 0.87178 0.58555 0.0
H1644 H 0.55729 0.85407 0.61702 0.0
H1645 H 0.56789 0.90997 0.80032 0.0
H1646 H 0.56953 0.91428 0.72515 0.0
H1647 H 0.55138 0.90297 0.75619 0.0
H1648 H 0.56242 0.91344 0.52866 0.0
H1649 H 0.5189 0.8853 0.60264 0.0
H1650 H 0.58128 0.89773 0.59757 0.0
H1651 H 0.58367 0.91262 0.64344 0.0
H1652 H 0.58437 0.91517 0.56716 0.0
H1653 H 0.52767 0.86306 0.68563 0.0
H1654 H 0.51496 0.87032 0.6824 0.0
H1655 H 0.53045 0.87804 0.7319 0.0
C1656 C 0.36702 0.11689 0.12032 0.0
C1657 C 0.3763 0.1293 0.15468 0.0
C1658 C 0.35135 0.10879 0.12838 0.0
C1659 C 0.3448 0.11313 0.1721 0.0
C1660 C 0.35411 0.12548 0.20747 0.0
C1661 C 0.3697 0.13343 0.19823 0.0
C1662 C 0.34179 0.09575 0.08953 0.0
C1663 C 0.3476 0.13042 0.25479 0.0
C1664 C 0.30389 0.10298 0.15987 0.0
C1665 C 0.29666 0.09061 0.19679 0.0
C1666 C 0.31948 0.11025 0.15095 0.0
C1667 C 0.32815 0.10511 0.17978 0.0
C1668 C 0.32097 0.09263 0.217 0.0
C1669 C 0.30533 0.08552 0.225 0.0
C1670 C 0.32668 0.12351 0.11084 0.0
C1671 C 0.32984 0.08687 0.24877 0.0
H1672 H 0.37196 0.1136 0.08651 0.0
H1673 H 0.37671 0.14293 0.22532 0.0
H1674 H 0.33493 0.08544 0.11503 0.0
H1675 H 0.33388 0.09807 0.06545 0.0
H1676 H 0.34863 0.09353 0.05862 0.0
H1677 H 0.35641 0.1399 0.27987 0.0
H1678 H 0.33989 0.13396 0.23668 0.0
H1679 H 0.3409 0.1209 0.28411 0.0
H1680 H 0.29737 0.10704 0.13769 0.0
H1681 H 0.29991 0.07599 0.25361 0.0
H1682 H 0.33291 0.12142 0.07687 0.0
H1683 H 0.33495 0.13368 0.13434 0.0
H1684 H 0.31832 0.12587 0.09053 0.0
H1685 H 0.33611 0.08383 0.21821 0.0
H1686 H 0.32256 0.07688 0.27535 0.0
H1687 H 0.33824 0.09582 0.27678 0.0
C1688 C 0.87493 0.23877 0.19671 0.0
C1689 C 0.87877 0.24956 0.15351 0.0
C1690 C 0.88314 0.23138 0.20499 0.0
C1691 C 0.89547 0.23474 0.16902 0.0
C1692 C 0.89952 0.24568 0.1256 0.0
C1693 C 0.89116 0.25299 0.11846 0.0
C1694 C 0.87848 0.21985 0.25197 0.0
C1695 C 0.91254 0.24949 0.08617 0.0
C1696 C 0.92323 0.22311 0.22178 0.0
C1697 C 0.91805 0.20927 0.19416 0.0
C1698 C 0.9162 0.23169 0.21311 0.0
C1699 C 0.90374 0.22635 0.1758 0.0
C1700 C 0.89865 0.21256 0.14694 0.0
C1701 C 0.90583 0.2042 0.15652 0.0
C1702 C 0.92192 0.24632 0.24483 0.0
C1703 C 0.88542 0.20647 0.10671 0.0
H1704 H 0.86547 0.23607 0.22435 0.0
H1705 H 0.89424 0.26128 0.08496 0.0
H1706 H 0.87514 0.20868 0.23346 0.0
H1707 H 0.8881 0.22281 0.28095 0.0
H1708 H 0.86895 0.2189 0.2775 0.0
H1709 H 0.91453 0.25857 0.05563 0.0
H1710 H 0.92294 0.25309 0.11125 0.0
H1711 H 0.91037 0.23938 0.06167 0.0
H1712 H 0.93264 0.22717 0.25091 0.0
H1713 H 0.90173 0.19357 0.13469 0.0
H1714 H 0.91307 0.24554 0.27403 0.0
H1715 H 0.92453 0.25558 0.21444 0.0
H1716 H 0.93215 0.24927 0.27021 0.0
H1717 H 0.87515 0.20416 0.13046 0.0
H1718 H 0.88332 0.19595 0.08544 0.0
H1719 H 0.88734 0.21493 0.0735 0.0
C1720 C 0.75296 0.63982 0.11506 0.0
C1721 C 0.75628 0.63104 0.15151 0.0
C1722 C 0.76028 0.65554 0.1211 0.0
C1723 C 0.77108 0.66264 0.16484 0.0
C1724 C 0.77417 0.6538 0.20263 0.0
C1725 C 0.76679 0.63817 0.19541 0.0
C1726 C 0.75673 0.6646 0.07982 0.0
C1727 C 0.78552 0.66088 0.2501 0.0
C1728 C 0.80241 0.7032 0.14993 0.0
C1729 C 0.79754 0.7108 0.18608 0.0
C1730 C 0.7937 0.68763 0.14142 0.0
C1731 C 0.77975 0.67935 0.16981 0.0
C1732 C 0.7746 0.68694 0.20551 0.0
C1733 C 0.78354 0.70256 0.21319 0.0
C1734 C 0.79962 0.67999 0.10299 0.0
C1735 C 0.75981 0.6785 0.23667 0.0
H1736 H 0.74489 0.63445 0.08099 0.0
H1737 H 0.76938 0.63153 0.22422 0.0
H1738 H 0.75348 0.67188 0.10336 0.0
H1739 H 0.7669 0.67208 0.05452 0.0
H1740 H 0.74752 0.65736 0.05003 0.0
H1741 H 0.7861 0.65238 0.27752 0.0
H1742 H 0.79683 0.66834 0.23185 0.0
H1743 H 0.78266 0.66793 0.27719 0.0
H1744 H 0.81315 0.7094 0.12851 0.0
H1745 H 0.77961 0.70826 0.24111 0.0
H1746 H 0.79117 0.67333 0.06991 0.0
H1747 H 0.80166 0.67206 0.12824 0.0
H1748 H 0.81026 0.68812 0.08155 0.0
H1749 H 0.75062 0.67174 0.2062 0.0
H1750 H 0.75698 0.68613 0.26019 0.0
H1751 H 0.76028 0.67056 0.26751 0.0
C1752 C 0.08439 0.30244 0.79922 0.0
C1753 C 0.08953 0.29379 0.82728 0.0
C1754 C 0.09172 0.31812 0.80609 0.0
C1755 C 0.10448 0.32536 0.84199 0.0
C1756 C 0.10952 0.31668 0.87134 0.0
C1757 C 0.10203 0.30105 0.86356 0.0
C1758 C 0.08604 0.32699 0.77386 0.0
C1759 C 0.12305 0.32395 0.91013 0.0
C1760 C 0.13362 0.36623 0.81494 0.0
C1761 C 0.13023 0.37372 0.85733 0.0
C1762 C 0.12517 0.35057 0.809 0.0
C1763 C 0.11307 0.34207 0.84662 0.0
C1764 C 0.10951 0.34951 0.88936 0.0
C1765 C 0.11809 0.36525 0.89408 0.0
C1766 C 0.12929 0.3431 0.76262 0.0
C1767 C 0.09676 0.34083 0.93055 0.0
H1768 H 0.07476 0.29699 0.77111 0.0
H1769 H 0.10611 0.29454 0.88571 0.0
H1770 H 0.08383 0.33402 0.80374 0.0
H1771 H 0.09474 0.33471 0.74338 0.0
H1772 H 0.07557 0.31964 0.7498 0.0
H1773 H 0.12507 0.31556 0.93219 0.0
H1774 H 0.13321 0.33154 0.88504 0.0
H1775 H 0.12156 0.33091 0.94272 0.0
H1776 H 0.14289 0.37262 0.786 0.0
H1777 H 0.11537 0.37089 0.92702 0.0
H1778 H 0.11944 0.33634 0.73478 0.0
H1779 H 0.13255 0.33528 0.78181 0.0
H1780 H 0.13873 0.35134 0.73576 0.0
H1781 H 0.08612 0.33398 0.90684 0.0
H1782 H 0.09521 0.34829 0.96057 0.0
H1783 H 0.09892 0.33295 0.95558 0.0
C1784 C 0.70396 0.78323 0.79294 0.0
C1785 C 0.71301 0.79658 0.82309 0.0
C1786 C 0.68837 0.77478 0.80247 0.0
C1787 C 0.68164 0.77972 0.84329 0.0
C1788 C 0.69076 0.79294 0.87491 0.0
C1789 C 0.70627 0.8012 0.86436 0.0
C1790 C 0.67902 0.76078 0.76768 0.0
C1791 C 0.68407 0.7986 0.91895 0.0
C1792 C 0.64075 0.76903 0.82536 0.0
C1793 C 0.63344 0.75749 0.86571 0.0
C1794 C 0.65635 0.77615 0.81719 0.0
C1795 C 0.66498 0.77172 0.85029 0.0
C1796 C 0.65773 0.76006 0.89095 0.0
C1797 C 0.64205 0.75306 0.89812 0.0
C1798 C 0.6636 0.78851 0.7733 0.0
C1799 C 0.66656 0.75508 0.92725 0.0
H1800 H 0.709 0.77952 0.76101 0.0
H1801 H 0.71311 0.81142 0.88829 0.0
H1802 H 0.67211 0.75112 0.79612 0.0
H1803 H 0.67117 0.7624 0.74011 0.0
H1804 H 0.68603 0.75792 0.74023 0.0
H1805 H 0.69279 0.80852 0.94247 0.0
H1806 H 0.67639 0.80177 0.89791 0.0
H1807 H 0.6773 0.78959 0.9501 0.0
H1808 H 0.63429 0.77256 0.7998 0.0
H1809 H 0.63656 0.74417 0.92936 0.0
H1810 H 0.66995 0.78577 0.742 0.0
H1811 H 0.67175 0.79918 0.79433 0.0
H1812 H 0.65526 0.79034 0.7499 0.0
H1813 H 0.67301 0.75155 0.89973 0.0
H1814 H 0.65923 0.74562 0.95598 0.0
H1815 H 0.67482 0.76462 0.95357 0.0
C1816 C 0.20319 0.90355 0.85826 0.0
C1817 C 0.20869 0.91614 0.82229 0.0
C1818 C 0.21154 0.89638 0.86875 0.0
C1819 C 0.22575 0.90187 0.84264 0.0
C1820 C 0.23143 0.91462 0.80664 0.0
C1821 C 0.22285 0.9216 0.79689 0.0
C1822 C 0.20504 0.8828 0.90731 0.0
C1823 C 0.24651 0.92078 0.77781 0.0
C1824 C 0.2523 0.88966 0.90441 0.0
C1825 C 0.24968 0.87771 0.86829 0.0
C1826 C 0.24469 0.89771 0.8964 0.0
C1827 C 0.2343 0.89381 0.85098 0.0
C1828 C 0.23175 0.8819 0.81405 0.0
C1829 C 0.23941 0.87399 0.82323 0.0
C1830 C 0.24764 0.9103 0.93689 0.0
C1831 C 0.22084 0.87741 0.76492 0.0
H1832 H 0.1923 0.89921 0.87826 0.0
H1833 H 0.22725 0.93132 0.76915 0.0
H1834 H 0.20337 0.87283 0.88298 0.0
H1835 H 0.21298 0.88459 0.94245 0.0
H1836 H 0.1941 0.88027 0.92605 0.0
H1837 H 0.24958 0.93107 0.75261 0.0
H1838 H 0.25539 0.92346 0.81006 0.0
H1839 H 0.24637 0.91218 0.74892 0.0
H1840 H 0.26018 0.89263 0.93934 0.0
H1841 H 0.23733 0.86486 0.79472 0.0
H1842 H 0.23708 0.90772 0.95908 0.0
H1843 H 0.25146 0.92089 0.91284 0.0
H1844 H 0.25625 0.91214 0.96938 0.0
H1845 H 0.20939 0.87376 0.78124 0.0
H1846 H 0.22041 0.86814 0.73921 0.0
H1847 H 0.22404 0.8872 0.73657 0.0
C1848 C 0.70233 0.90542 0.86452 0.0
C1849 C 0.70946 0.91658 0.82268 0.0
C1850 C 0.68671 0.89803 0.87224 0.0
C1851 C 0.67788 0.90177 0.83713 0.0
C1852 C 0.68497 0.91316 0.79536 0.0
C1853 C 0.70068 0.92047 0.78872 0.0
C1854 C 0.67964 0.88601 0.9175 0.0
C1855 C 0.67591 0.91742 0.75696 0.0
C1856 C 0.63703 0.87121 0.82124 0.0
C1857 C 0.62974 0.87586 0.85996 0.0
C1858 C 0.6526 0.87976 0.81231 0.0
C1859 C 0.6612 0.89327 0.843 0.0
C1860 C 0.65393 0.89815 0.88159 0.0
C1861 C 0.6383 0.88941 0.88953 0.0
C1862 C 0.6599 0.87416 0.77069 0.0
C1863 C 0.66272 0.91245 0.9154 0.0
H1864 H 0.70895 0.90236 0.89138 0.0
H1865 H 0.70604 0.92905 0.75627 0.0
H1866 H 0.67283 0.88862 0.94698 0.0
H1867 H 0.67194 0.87503 0.89734 0.0
H1868 H 0.68814 0.88484 0.94279 0.0
H1869 H 0.68314 0.9269 0.72814 0.0
H1870 H 0.66814 0.90761 0.73062 0.0
H1871 H 0.66892 0.92061 0.78286 0.0
H1872 H 0.63057 0.86082 0.79785 0.0
H1873 H 0.63283 0.89314 0.9195 0.0
H1874 H 0.66782 0.87165 0.79364 0.0
H1875 H 0.66651 0.88298 0.73869 0.0
H1876 H 0.65155 0.86385 0.74798 0.0
H1877 H 0.67073 0.91142 0.94411 0.0
H1878 H 0.65533 0.91509 0.94157 0.0
H1879 H 0.66943 0.92203 0.88633 0.0
C1880 C 0.10342 0.79829 0.85907 0.0
C1881 C 0.09197 0.79411 0.81836 0.0
C1882 C 0.1106 0.78988 0.8671 0.0
C1883 C 0.10635 0.77695 0.83346 0.0
C1884 C 0.0948 0.7726 0.79237 0.0
C1885 C 0.08772 0.78121 0.78539 0.0
C1886 C 0.12283 0.79492 0.91148 0.0
C1887 C 0.09002 0.75894 0.75545 0.0
C1888 C 0.13601 0.7654 0.81959 0.0
C1889 C 0.1313 0.75388 0.86028 0.0
C1890 C 0.12774 0.77265 0.80922 0.0
C1891 C 0.11441 0.76836 0.8404 0.0
C1892 C 0.10939 0.75654 0.88068 0.0
C1893 C 0.11787 0.74942 0.89007 0.0
C1894 C 0.13349 0.78517 0.76581 0.0
C1895 C 0.09527 0.75168 0.91496 0.0
H1896 H 0.1068 0.80818 0.88509 0.0
H1897 H 0.07891 0.77785 0.75386 0.0
H1898 H 0.12003 0.78573 0.94244 0.0
H1899 H 0.13359 0.79757 0.89083 0.0
H1900 H 0.12453 0.80499 0.93523 0.0
H1901 H 0.08064 0.75685 0.72635 0.0
H1902 H 0.09967 0.76038 0.72949 0.0
H1903 H 0.08643 0.74886 0.78253 0.0
H1904 H 0.1463 0.76892 0.79595 0.0
H1905 H 0.11408 0.74054 0.92152 0.0
H1906 H 0.13652 0.79592 0.78733 0.0
H1907 H 0.12457 0.78298 0.73431 0.0
H1908 H 0.14352 0.78654 0.74264 0.0
H1909 H 0.09674 0.76103 0.94278 0.0
H1910 H 0.09239 0.74174 0.94211 0.0
H1911 H 0.08568 0.74893 0.88617 0.0
C1912 C 0.2247 0.30757 0.78226 0.0
C1913 C 0.21169 0.29863 0.81436 0.0
C1914 C 0.23302 0.32326 0.78975 0.0
C1915 C 0.22824 0.33017 0.83041 0.0
C1916 C 0.21516 0.32122 0.86301 0.0
C1917 C 0.20706 0.30563 0.85455 0.0
C1918 C 0.24687 0.33244 0.75398 0.0
C1919 C 0.20968 0.32812 0.90687 0.0
C1920 C 0.25563 0.36903 0.88886 0.0
C1921 C 0.25155 0.37818 0.85826 0.0
C1922 C 0.24833 0.35343 0.87953 0.0
C1923 C 0.23671 0.3468 0.83848 0.0
C1924 C 0.23267 0.35598 0.80694 0.0
C1925 C 0.24009 0.37151 0.81728 0.0
C1926 C 0.2529 0.34401 0.9143 0.0
C1927 C 0.22035 0.34937 0.76272 0.0
H1928 H 0.2284 0.30234 0.75111 0.0
H1929 H 0.19706 0.2989 0.87979 0.0
H1930 H 0.24552 0.34077 0.72843 0.0
H1931 H 0.25679 0.33882 0.78193 0.0
H1932 H 0.24918 0.32537 0.72459 0.0
H1933 H 0.19944 0.31958 0.92938 0.0
H1934 H 0.2186 0.3344 0.93892 0.0
H1935 H 0.20714 0.33628 0.88606 0.0
H1936 H 0.26445 0.37401 0.92058 0.0
H1937 H 0.23686 0.37843 0.79311 0.0
H1938 H 0.25605 0.33745 0.88572 0.0
H1939 H 0.24327 0.33585 0.94049 0.0
H1940 H 0.26251 0.35093 0.94306 0.0
H1941 H 0.22279 0.34291 0.73084 0.0
H1942 H 0.21899 0.3581 0.7401 0.0
H1943 H 0.20953 0.34141 0.78332 0.0
C1944 C 0.92145 0.69795 0.23169 0.0
C1945 C 0.91759 0.70692 0.19872 0.0
C1946 C 0.91429 0.6823 0.22336 0.0
C1947 C 0.90304 0.67545 0.18097 0.0
C1948 C 0.89922 0.68445 0.14721 0.0
C1949 C 0.90649 0.7 0.15654 0.0
C1950 C 0.91862 0.67307 0.2604 0.0
C1951 C 0.8873 0.67763 0.10153 0.0
C1952 C 0.89109 0.63642 0.12305 0.0
C1953 C 0.87743 0.62755 0.15166 0.0
C1954 C 0.89977 0.65197 0.13326 0.0
C1955 C 0.89473 0.65882 0.17316 0.0
C1956 C 0.88116 0.64987 0.20313 0.0
C1957 C 0.87269 0.63441 0.19196 0.0
C1958 C 0.91415 0.66114 0.10026 0.0
C1959 C 0.87538 0.65669 0.2461 0.0
H1960 H 0.93 0.70313 0.26431 0.0
H1961 H 0.90341 0.70675 0.13051 0.0
H1962 H 0.90876 0.66491 0.28569 0.0
H1963 H 0.92211 0.66649 0.23345 0.0
H1964 H 0.92792 0.68012 0.29014 0.0
H1965 H 0.88601 0.68624 0.07761 0.0
H1966 H 0.89013 0.67121 0.07088 0.0
H1967 H 0.87633 0.66962 0.12103 0.0
H1968 H 0.89489 0.63128 0.09191 0.0
H1969 H 0.86223 0.62771 0.2147 0.0
H1970 H 0.92361 0.66776 0.1299 0.0
H1971 H 0.91306 0.66925 0.07233 0.0
H1972 H 0.917 0.65403 0.07335 0.0
H1973 H 0.88413 0.66315 0.27846 0.0
H1974 H 0.86511 0.64808 0.26828 0.0
H1975 H 0.87272 0.66467 0.2244 0.0
C1976 C 0.37063 0.23804 0.20938 0.0
C1977 C 0.37772 0.24931 0.16794 0.0
C1978 C 0.35501 0.23058 0.21715 0.0
C1979 C 0.34615 0.23437 0.18242 0.0
C1980 C 0.3532 0.24585 0.14096 0.0
C1981 C 0.3689 0.25323 0.13435 0.0
C1982 C 0.34796 0.21847 0.26206 0.0
C1983 C 0.34412 0.25014 0.10283 0.0
C1984 C 0.30525 0.20424 0.16318 0.0
C1985 C 0.29783 0.20896 0.20095 0.0
C1986 C 0.3209 0.21251 0.15626 0.0
C1987 C 0.32945 0.22584 0.18801 0.0
C1988 C 0.32209 0.23071 0.22617 0.0
C1989 C 0.30638 0.22224 0.23212 0.0
C1990 C 0.3283 0.20692 0.11507 0.0
C1991 C 0.33084 0.24482 0.26105 0.0
H1992 H 0.3773 0.23496 0.23591 0.0
H1993 H 0.37423 0.26189 0.10218 0.0
H1994 H 0.34109 0.22098 0.29166 0.0
H1995 H 0.34031 0.20752 0.24161 0.0
H1996 H 0.35647 0.21731 0.28724 0.0
H1997 H 0.35131 0.25965 0.07408 0.0
H1998 H 0.33633 0.24036 0.0764 0.0
H1999 H 0.33714 0.2533 0.12894 0.0
H2000 H 0.29882 0.19404 0.13866 0.0
H2001 H 0.30081 0.22602 0.26138 0.0
H2002 H 0.33627 0.20452 0.13825 0.0
H2003 H 0.33489 0.21572 0.08296 0.0
H2004 H 0.32002 0.19657 0.09244 0.0
H2005 H 0.33894 0.24373 0.28899 0.0
H2006 H 0.32343 0.24724 0.28807 0.0
H2007 H 0.33745 0.25456 0.23255 0.0
C2008 C 0.76789 0.1339 0.19036 0.0
C2009 C 0.75558 0.12902 0.15323 0.0
C2010 C 0.77473 0.12523 0.2 0.0
C2011 C 0.76922 0.11129 0.1718 0.0
C2012 C 0.75667 0.10613 0.13501 0.0
C2013 C 0.75 0.11504 0.12619 0.0
C2014 C 0.7881 0.13117 0.23954 0.0
C2015 C 0.7505 0.09135 0.104 0.0
C2016 C 0.79764 0.0984 0.15039 0.0
C2017 C 0.79404 0.08792 0.19463 0.0
C2018 C 0.7894 0.10573 0.14169 0.0
C2019 C 0.77725 0.10263 0.17825 0.0
C2020 C 0.77332 0.09187 0.22234 0.0
C2021 C 0.78173 0.0846 0.22991 0.0
C2022 C 0.79394 0.11705 0.09397 0.0
C2023 C 0.76048 0.08831 0.26236 0.0
H2024 H 0.77231 0.14463 0.21175 0.0
H2025 H 0.7405 0.1111 0.09753 0.0
H2026 H 0.78612 0.12275 0.273 0.0
H2027 H 0.7982 0.13318 0.21529 0.0
H2028 H 0.79052 0.14183 0.26052 0.0
H2029 H 0.74019 0.08853 0.07936 0.0
H2030 H 0.75909 0.09181 0.0742 0.0
H2031 H 0.74785 0.08216 0.13475 0.0
H2032 H 0.80703 0.10099 0.12246 0.0
H2033 H 0.77884 0.07655 0.2642 0.0
H2034 H 0.79767 0.12836 0.1119 0.0
H2035 H 0.78417 0.11417 0.06593 0.0
H2036 H 0.80318 0.11765 0.06756 0.0
H2037 H 0.763 0.09848 0.28727 0.0
H2038 H 0.75834 0.07913 0.29253 0.0
H2039 H 0.75006 0.08502 0.23779 0.0
C2040 C 0.0391 0.46753 0.52336 0.0
C2041 C 0.04537 0.46341 0.47852 0.0
C2042 C 0.02361 0.4595 0.53462 0.0
C2043 C 0.01403 0.44709 0.49999 0.0
C2044 C 0.02024 0.44279 0.45489 0.0
C2045 C 0.03583 0.45095 0.44483 0.0
C2046 C 0.01747 0.46443 0.58333 0.0
C2047 C 0.01039 0.4297 0.41669 0.0
C2048 C 0.97497 0.41939 0.55674 0.0
C2049 C 0.96607 0.42443 0.53006 0.0
C2050 C 0.99056 0.42656 0.54706 0.0
C2051 C 0.99745 0.43904 0.50967 0.0
C2052 C 0.98853 0.44415 0.4825 0.0
C2053 C 0.97302 0.43683 0.4931 0.0
C2054 C 0.9997 0.42084 0.57714 0.0
C2055 C 0.9954 0.4574 0.44231 0.0
H2056 H 0.04632 0.47705 0.55001 0.0
H2057 H 0.04051 0.44766 0.41008 0.0
H2058 H 0.00958 0.46792 0.56674 0.0
H2059 H 0.01105 0.45491 0.613 0.0
H2060 H 0.02648 0.47393 0.60767 0.0
H2061 H 0.01698 0.4275 0.38453 0.0
H2062 H 1.0038 0.4194 0.44256 0.0
H2063 H 1.00224 0.43195 0.39409 0.0
H2064 H 0.96977 0.40984 0.58535 0.0
H2065 H 0.96633 0.44087 0.47208 0.0
H2066 H 0.00834 0.42984 0.60434 0.0
H2067 H 0.0057 0.41776 0.54546 0.0
H2068 H 0.99265 0.41089 0.60425 0.0
H2069 H 1.00385 0.46759 0.46527 0.0
H2070 H 0.98688 0.45975 0.42348 0.0
H2071 H 1.00136 0.45531 0.40724 0.0
C2072 C 0.57395 0.54 0.48482 0.0
C2073 C 0.58581 0.54461 0.52393 0.0
C2074 C 0.56681 0.54842 0.47614 0.0
C2075 C 0.57158 0.56182 0.50732 0.0
C2076 C 0.58372 0.56674 0.54607 0.0
C2077 C 0.5907 0.55808 0.55391 0.0
C2078 C 0.55392 0.54276 0.43442 0.0
C2079 C 0.5891 0.58096 0.58016 0.0
C2080 C 0.55857 0.58829 0.45192 0.0
C2081 C 0.54577 0.58414 0.48548 0.0
C2082 C 0.56731 0.58139 0.45939 0.0
C2083 C 0.56321 0.57012 0.50153 0.0
C2084 C 0.55048 0.56609 0.53616 0.0
C2085 C 0.54193 0.5731 0.52766 0.0
C2086 C 0.58077 0.58594 0.42144 0.0
C2087 C 0.54571 0.55415 0.58162 0.0
H2088 H 0.57008 0.52968 0.46108 0.0
H2089 H 0.59986 0.56178 0.58411 0.0
H2090 H 0.54343 0.5401 0.45735 0.0
H2091 H 0.55605 0.5516 0.40262 0.0
H2092 H 0.55207 0.53253 0.41144 0.0
H2093 H 0.5992 0.58371 0.60607 0.0
H2094 H 0.5918 0.59054 0.55132 0.0
H2095 H 0.58003 0.57975 0.60914 0.0
H2096 H 0.56168 0.59681 0.41932 0.0
H2097 H 0.53215 0.56984 0.55421 0.0
H2098 H 0.57895 0.57624 0.39491 0.0
H2099 H 0.59093 0.58924 0.44767 0.0
H2100 H 0.58295 0.59542 0.3928 0.0
H2101 H 0.54258 0.54319 0.56162 0.0
H2102 H 0.53599 0.55284 0.60686 0.0
H2103 H 0.55519 0.55693 0.61111 0.0
C2104 C 0.471 0.03741 0.48934 0.0
C2105 C 0.46577 0.04434 0.5273 0.0
C2106 C 0.46286 0.02185 0.47974 0.0
C2107 C 0.44916 0.01291 0.50896 0.0
C2108 C 0.44374 0.0198 0.547 0.0
C2109 C 0.45208 0.03542 0.55563 0.0
C2110 C 0.46903 0.01496 0.43877 0.0
C2111 C 0.42923 0.01063 0.57927 0.0
C2112 C 0.42228 0.97365 0.45219 0.0
C2113 C 0.42576 0.9647 0.48693 0.0
C2114 C 0.42976 0.98936 0.45891 0.0
C2115 C 0.4409 0.99627 0.50164 0.0
C2116 C 0.44439 0.98729 0.53701 0.0
C2117 C 0.43685 0.97167 0.5291 0.0
C2118 C 0.42581 0.99858 0.42006 0.0
C2119 C 0.45613 0.99418 0.58328 0.0
H2120 H 0.48152 0.04415 0.46697 0.0
H2121 H 0.44791 0.0406 0.58502 0.0
H2122 H 0.47144 0.00697 0.46183 0.0
H2123 H 0.46057 0.00848 0.40549 0.0
H2124 H 0.47952 0.02353 0.41762 0.0
H2125 H 0.4263 0.01772 0.60589 0.0
H2126 H 0.41989 0.00409 0.54908 0.0
H2127 H 0.43016 1.00244 0.60734 0.0
H2128 H 0.41377 0.96842 0.41946 0.0
H2129 H 0.43962 0.96492 0.5565 0.0
H2130 H 0.43591 0.00674 0.39591 0.0
H2131 H 0.42204 0.00515 0.44564 0.0
H2132 H 0.41682 0.99151 0.38924 0.0
H2133 H 0.46719 1.00217 0.56429 0.0
H2134 H 0.45732 0.98561 0.60792 0.0
H2135 H 0.45317 1.00064 0.6132 0.0
C2136 C 0.58901 0.03356 0.55634 0.0
C2137 C 0.58408 0.04208 0.52604 0.0
C2138 C 0.58179 0.01784 0.55009 0.0
C2139 C 0.56937 0.01046 0.51264 0.0
C2140 C 0.56446 0.01901 0.48159 0.0
C2141 C 0.57183 0.03464 0.48867 0.0
C2142 C 0.58733 0.00911 0.58403 0.0
C2143 C 0.55128 0.01161 0.44116 0.0
C2144 C 0.55672 0.97125 0.45541 0.0
C2145 C 0.54396 0.96233 0.48882 0.0
C2146 C 0.56534 0.98687 0.46368 0.0
C2147 C 0.56117 0.99377 0.50659 0.0
C2148 C 0.54853 0.9848 0.54132 0.0
C2149 C 0.54006 0.96924 0.53192 0.0
C2150 C 0.57869 0.99605 0.42551 0.0
C2151 C 0.54373 0.99169 0.58768 0.0
H2152 H 0.59843 0.03915 0.5853 0.0
H2153 H 0.56789 0.04102 0.46485 0.0
H2154 H 0.57828 1.00104 0.61262 0.0
H2155 H 0.59025 1.00246 0.55495 0.0
H2156 H 0.59733 0.01652 0.61027 0.0
H2157 H 0.54908 0.01988 0.41914 0.0
H2158 H 0.55336 0.00506 0.40851 0.0
H2159 H 0.54101 0.00362 0.46485 0.0
H2160 H 0.55987 0.96608 0.42204 0.0
H2161 H 0.53032 0.96249 0.55835 0.0
H2162 H 0.58887 0.00299 0.45154 0.0
H2163 H 0.57664 0.00386 0.39948 0.0
H2164 H 0.58097 0.98892 0.39636 0.0
H2165 H 0.55328 0.99851 0.61669 0.0
H2166 H 0.53421 0.98309 0.61327 0.0
H2167 H 0.54028 0.99936 0.56848 0.0
C2168 C 0.97144 0.55614 0.55089 0.0
C2169 C 0.96299 0.54341 0.51678 0.0
C2170 C 0.98714 0.56486 0.54503 0.0
C2171 C 0.99457 0.56081 0.50391 0.0
C2172 C 0.98606 0.54826 0.46827 0.0
C2173 C 0.97043 0.53971 0.47521 0.0
C2174 C 0.99583 0.57814 0.58398 0.0
C2175 C 0.99352 0.54358 0.42373 0.0
C2176 C 0.03481 0.58826 0.45815 0.0
C2177 C 0.04294 0.5831 0.48966 0.0
C2178 C 0.01909 0.58135 0.46315 0.0
C2179 C 0.01131 0.56899 0.5006 0.0
C2180 C 0.01947 0.56392 0.53326 0.0
C2181 C 0.03512 0.571 0.52737 0.0
C2182 C 0.01076 0.58705 0.42753 0.0
C2183 C 0.01163 0.5508 0.57375 0.0
H2184 H 0.96584 0.55913 0.58309 0.0
H2185 H 0.96405 0.52999 0.44823 0.0
H2186 H 1.00323 0.576 0.61215 0.0
H2187 H 1.00318 0.58834 0.55866 0.0
H2188 H 0.98834 0.58042 0.61104 0.0
H2189 H 0.98524 0.53413 0.39704 0.0
H2190 H 1.00069 0.5532 0.3955 0.0
H2191 H 1.00094 0.54007 0.44478 0.0
H2192 H 0.04069 0.59759 0.42895 0.0
H2193 H 0.04122 0.5669 0.55222 0.0
H2194 H 1.0037 0.58978 0.45519 0.0
H2195 H 1.00311 0.57816 0.39754 0.0
H2196 H 0.01849 0.59721 0.40258 0.0
H2197 H 0.00471 0.55289 0.6046 0.0
H2198 H 0.01966 0.54865 0.59789 0.0
H2199 H 1.00392 0.54051 0.54962 0.0
C2200 C 0.42093 0.44948 0.45899 0.0
C2201 C 0.42632 0.4635 0.48547 0.0
C2202 C 0.42783 0.4408 0.46833 0.0
C2203 C 0.44041 0.44623 0.50513 0.0
C2204 C 0.44586 0.46032 0.53211 0.0
C2205 C 0.4388 0.46877 0.52191 0.0
C2206 C 0.42173 0.42587 0.43848 0.0
C2207 C 0.45924 0.46653 0.57163 0.0
C2208 C 0.45197 0.41941 0.56924 0.0
C2209 C 0.46432 0.42221 0.53514 0.0
C2210 C 0.44392 0.42695 0.55946 0.0
C2211 C 0.44822 0.43745 0.51419 0.0
C2212 C 0.46044 0.44005 0.47887 0.0
C2213 C 0.46836 0.43247 0.48988 0.0
C2214 C 0.43101 0.42394 0.59833 0.0
C2215 C 0.46534 0.45104 0.42988 0.0
H2216 H 0.41131 0.44526 0.43081 0.0
H2217 H 0.44309 0.47955 0.54278 0.0
H2218 H 0.43053 0.42601 0.4107 0.0
H2219 H 0.41861 0.41679 0.47026 0.0
H2220 H 0.41172 0.42311 0.41199 0.0
H2221 H 0.46186 0.47749 0.59047 0.0
H2222 H 0.45711 0.45847 0.60672 0.0
H2223 H 0.46927 0.46807 0.54811 0.0
H2224 H 0.44876 0.41155 0.60436 0.0
H2225 H 0.47779 0.43466 0.46288 0.0
H2226 H 0.42068 0.42049 0.57298 0.0
H2227 H 0.43357 0.43439 0.62131 0.0
H2228 H 0.42869 0.41505 0.6302 0.0
H2229 H 0.45572 0.44811 0.40096 0.0
H2230 H 0.4746 0.45127 0.40476 0.0
H2231 H 0.46918 0.46251 0.44634 0.0
C2232 C 0.26545 0.10582 0.29827 0.0
C2233 C 0.25206 0.09241 0.30876 0.0
C2234 C 0.26589 0.11972 0.29967 0.0
C2235 C 0.25268 0.12018 0.31322 0.0
C2236 C 0.2393 0.10663 0.32646 0.0
C2237 C 0.2391 0.09288 0.32309 0.0
C2238 C 0.28027 0.1338 0.28381 0.0
C2239 C 0.22506 0.1066 0.34226 0.0
C2240 C 0.25574 0.15784 0.34996 0.0
C2241 C 0.25123 0.16142 0.29869 0.0
C2242 C 0.25626 0.14445 0.35555 0.0
C2243 C 0.25244 0.13456 0.30847 0.0
C2244 C 0.24806 0.13825 0.25649 0.0
C2245 C 0.24737 0.15151 0.25246 0.0
C2246 C 0.26073 0.1408 0.41197 0.0
C2247 C 0.2441 0.12818 0.2049 0.0
H2248 H 0.27542 0.10537 0.28654 0.0
H2249 H 0.22874 0.08244 0.33095 0.0
H2250 H 0.27858 0.13847 0.24366 0.0
H2251 H 0.28339 0.14248 0.31723 0.0
H2252 H 0.28976 0.13167 0.27767 0.0
H2253 H 0.21615 0.09541 0.35744 0.0
H2254 H 0.22735 0.11501 0.37611 0.0
H2255 H 0.22073 0.1098 0.30466 0.0
H2256 H 0.2587 0.16541 0.38592 0.0
H2257 H 0.24386 0.15414 0.21265 0.0
H2258 H 0.27072 0.13949 0.40639 0.0
H2259 H 0.2515 0.12994 0.42823 0.0
H2260 H 0.26334 0.14962 0.44449 0.0
H2261 H 0.25352 0.12627 0.19426 0.0
H2262 H 0.24155 0.13298 0.16694 0.0
H2263 H 0.23416 0.11707 0.21432 0.0
C2264 C 0.84628 0.10195 0.35607 0.0
C2265 C 0.84244 0.09441 0.30361 0.0
C2266 C 0.85963 0.11588 0.3622 0.0
C2267 C 0.86915 0.12254 0.31445 0.0
C2268 C 0.86499 0.1152 0.26101 0.0
C2269 C 0.85182 0.10119 0.25646 0.0
C2270 C 0.8638 0.12322 0.42009 0.0
C2271 C 0.87461 0.12198 0.20867 0.0
C2272 C 0.8994 0.16393 0.30969 0.0
C2273 C 0.91245 0.16297 0.3151 0.0
C2274 C 0.88511 0.1509 0.3114 0.0
C2275 C 0.88394 0.1367 0.3203 0.0
C2276 C 0.89716 0.1359 0.32892 0.0
C2277 C 0.91126 0.14901 0.32506 0.0
C2278 C 0.87138 0.15224 0.3003 0.0
C2279 C 0.89646 0.12109 0.33987 0.0
H2280 H 0.8391 0.09674 0.39271 0.0
H2281 H 0.84893 0.09551 0.21567 0.0
H2282 H 0.87428 0.12372 0.43504 0.0
H2283 H 0.86607 0.13494 0.41748 0.0
H2284 H 0.85484 0.11704 0.45222 0.0
H2285 H 0.86917 0.11547 0.16943 0.0
H2286 H 0.87706 0.13369 0.20255 0.0
H2287 H 0.88552 0.12239 0.21427 0.0
H2288 H 0.9004 0.17476 0.30116 0.0
H2289 H 0.92142 0.14834 0.32912 0.0
H2290 H 0.86275 0.14619 0.33355 0.0
H2291 H 0.86635 0.14692 0.2588 0.0
H2292 H 0.87405 0.16412 0.29905 0.0
H2293 H 0.88817 0.11477 0.37388 0.0
H2294 H 0.90753 0.1226 0.35264 0.0
H2295 H 0.89269 0.11413 0.30071 0.0
C2296 C 0.9051 0.74959 0.25372 0.0
C2297 C 0.91353 0.75118 0.30281 0.0
C2298 C 0.89113 0.7489 0.25694 0.0
C2299 C 0.88569 0.75048 0.31042 0.0
C2300 C 0.89412 0.752 0.36034 0.0
C2301 C 0.90782 0.75204 0.35603 0.0
C2302 C 0.88233 0.74676 0.20279 0.0
C2303 C 0.889 0.75422 0.41791 0.0
C2304 C 0.85941 0.76627 0.29633 0.0
C2305 C 0.84529 0.75347 0.30403 0.0
C2306 C 0.87265 0.76559 0.30183 0.0
C2307 C 0.87175 0.75162 0.31291 0.0
C2308 C 0.85746 0.73866 0.32153 0.0
C2309 C 0.84438 0.7398 0.31798 0.0
C2310 C 0.88761 0.77978 0.29406 0.0
C2311 C 0.85594 0.72346 0.33139 0.0
H2312 H 0.90935 0.74878 0.21251 0.0
H2313 H 0.91436 0.75336 0.39405 0.0
H2314 H 0.87054 0.7376 0.20829 0.0
H2315 H 0.88207 0.75717 0.19284 0.0
H2316 H 0.88727 0.74402 0.16579 0.0
H2317 H 0.89641 0.75451 0.4529 0.0
H2318 H 0.88888 0.76496 0.41808 0.0
H2319 H 0.87736 0.74511 0.42666 0.0
H2320 H 0.86009 0.77686 0.28576 0.0
H2321 H 0.83343 0.72987 0.32322 0.0
H2322 H 0.89288 0.77915 0.25371 0.0
H2323 H 0.89535 0.78104 0.3293 0.0
H2324 H 0.88646 0.78996 0.29263 0.0
H2325 H 0.85965 0.72001 0.29269 0.0
H2326 H 0.84419 0.7147 0.34119 0.0
H2327 H 0.86329 0.72398 0.36694 0.0
C2328 C 0.09456 0.2386 0.71035 0.0
C2329 C 0.09342 0.25159 0.7095 0.0
C2330 C 0.10855 0.23941 0.70519 0.0
C2331 C 0.12181 0.25363 0.70165 0.0
C2332 C 0.12067 0.26682 0.69995 0.0
C2333 C 0.10642 0.26561 0.7029 0.0
C2334 C 0.10916 0.22505 0.70544 0.0
C2335 C 0.13451 0.28221 0.69828 0.0
C2336 C 0.1561 0.25374 0.76251 0.0
C2337 C 0.16392 0.25394 0.7133 0.0
C2338 C 0.14279 0.25435 0.75918 0.0
C2339 C 0.13679 0.25463 0.70516 0.0
C2340 C 0.14468 0.25493 0.65517 0.0
C2341 C 0.1583 0.25482 0.65987 0.0
C2342 C 0.13502 0.25446 0.81366 0.0
C2343 C 0.13847 0.25479 0.59678 0.0
H2344 H 0.08446 0.22776 0.71538 0.0
H2345 H 0.1055 0.27567 0.70308 0.0
H2346 H 0.11632 0.22508 0.67 0.0
H2347 H 0.11427 0.22416 0.74583 0.0
H2348 H 0.09783 0.21494 0.70134 0.0
H2349 H 0.13171 0.29126 0.69309 0.0
H2350 H 0.14091 0.28419 0.73851 0.0
H2351 H 0.142 0.28296 0.66291 0.0
H2352 H 0.1604 0.25318 0.80396 0.0
H2353 H 0.16428 0.25492 0.6217 0.0
H2354 H 0.12415 0.24381 0.81758 0.0
H2355 H 0.13251 0.26377 0.81295 0.0
H2356 H 0.14188 0.25571 0.85203 0.0
H2357 H 0.12763 0.24421 0.59096 0.0
H2358 H 0.14625 0.2557 0.56218 0.0
H2359 H 0.13616 0.26419 0.59253 0.0
C2360 C 0.76709 0.8576 0.70642 0.0
C2361 C 0.75427 0.84341 0.70074 0.0
C2362 C 0.76619 0.87074 0.70242 0.0
C2363 C 0.75201 0.86967 0.69498 0.0
C2364 C 0.73903 0.85532 0.68814 0.0
C2365 C 0.74036 0.84233 0.69013 0.0
C2366 C 0.78039 0.88578 0.70826 0.0
C2367 C 0.72364 0.85362 0.68212 0.0
C2368 C 0.75071 0.90266 0.76109 0.0
C2369 C 0.75182 0.91136 0.71338 0.0
C2370 C 0.74986 0.88869 0.75527 0.0
C2371 C 0.75074 0.88347 0.70037 0.0
C2372 C 0.75161 0.89209 0.65179 0.0
C2373 C 0.75188 0.90584 0.65885 0.0
C2374 C 0.74846 0.8797 0.8082 0.0
C2375 C 0.753 0.88716 0.59267 0.0
H2376 H 0.77786 0.8584 0.7144 0.0
H2377 H 0.73042 0.83132 0.68643 0.0
H2378 H 0.78103 0.89351 0.67397 0.0
H2379 H 0.78031 0.89097 0.74957 0.0
H2380 H 0.79064 0.88476 0.70645 0.0
H2381 H 0.71489 0.84188 0.67218 0.0
H2382 H 0.72056 0.857 0.72253 0.0
H2383 H 0.72365 0.86112 0.64815 0.0
H2384 H 0.75052 0.90677 0.80333 0.0
H2385 H 0.75283 0.91259 0.62188 0.0
H2386 H 0.75904 0.87953 0.81516 0.0
H2387 H 0.73931 0.8679 0.80301 0.0
H2388 H 0.74614 0.88445 0.84684 0.0
H2389 H 0.76387 0.8874 0.58878 0.0
H2390 H 0.75246 0.8945 0.55912 0.0
H2391 H 0.74397 0.87543 0.58486 0.0
C2392 C 0.1481 0.91206 0.71925 0.0
C2393 C 0.1621 0.91349 0.70733 0.0
C2394 C 0.13481 0.89809 0.71535 0.0
C2395 C 0.13559 0.88508 0.7016 0.0
C2396 C 0.14975 0.88652 0.68888 0.0
C2397 C 0.16282 0.90078 0.69089 0.0
C2398 C 0.11997 0.89721 0.7275 0.0
C2399 C 0.15118 0.87291 0.67616 0.0
C2400 C 0.10346 0.84928 0.76422 0.0
C2401 C 0.09438 0.84241 0.71651 0.0
C2402 C 0.11721 0.86274 0.75928 0.0
C2403 C 0.12177 0.86994 0.7056 0.0
C2404 C 0.11268 0.86301 0.65705 0.0
C2405 C 0.09921 0.84916 0.66292 0.0
C2406 C 0.12675 0.86939 0.81188 0.0
C2407 C 0.11686 0.87053 0.59943 0.0
H2408 H 0.14755 0.92193 0.73172 0.0
H2409 H 0.17368 0.90186 0.68235 0.0
H2410 H 0.11173 0.89076 0.69352 0.0
H2411 H 0.11532 0.8912 0.76828 0.0
H2412 H 0.12109 0.9085 0.73063 0.0
H2413 H 0.1628 0.87599 0.66366 0.0
H2414 H 0.14799 0.86562 0.7145 0.0
H2415 H 0.14339 0.86617 0.64148 0.0
H2416 H 0.09988 0.84409 0.80568 0.0
H2417 H 0.09217 0.84393 0.62601 0.0
H2418 H 0.12705 0.87999 0.8235 0.0
H2419 H 0.13849 0.87218 0.80341 0.0
H2420 H 0.12241 0.86165 0.84896 0.0
H2421 H 0.11689 0.88133 0.60133 0.0
H2422 H 0.10893 0.86344 0.56552 0.0
H2423 H 0.12836 0.87318 0.58747 0.0
C2424 C 0.93543 0.43933 0.63545 0.0
C2425 C 0.92177 0.426 0.64339 0.0
C2426 C 0.93608 0.45333 0.63599 0.0
C2427 C 0.92282 0.45398 0.64618 0.0
C2428 C 0.90916 0.4405 0.65725 0.0
C2429 C 0.90876 0.42665 0.65462 0.0
C2430 C 0.95077 0.46733 0.62238 0.0
C2431 C 0.89483 0.44065 0.66957 0.0
C2432 C 0.92509 0.4915 0.67873 0.0
C2433 C 0.92091 0.49483 0.62621 0.0
C2434 C 0.92592 0.47831 0.686 0.0
C2435 C 0.92279 0.46842 0.63932 0.0
C2436 C 0.91901 0.47201 0.58587 0.0
C2437 C 0.91795 0.48503 0.5802 0.0
C2438 C 0.92973 0.47476 0.7439 0.0
C2439 C 0.91586 0.46198 0.53462 0.0
H2440 H 0.94545 0.43874 0.62604 0.0
H2441 H 0.8982 0.41628 0.66054 0.0
H2442 H 0.94981 0.47196 0.58088 0.0
H2443 H 0.95341 0.47608 0.65508 0.0
H2444 H 0.96027 0.46509 0.61981 0.0
H2445 H 0.88567 0.42952 0.68408 0.0
H2446 H 0.8968 0.44912 0.70277 0.0
H2447 H 0.89103 0.44387 0.63052 0.0
H2448 H 0.92733 0.49898 0.71452 0.0
H2449 H 0.91477 0.48751 0.53938 0.0
H2450 H 0.93951 0.47302 0.74075 0.0
H2451 H 0.92013 0.46414 0.7601 0.0
H2452 H 0.93234 0.48381 0.77535 0.0
H2453 H 0.92534 0.45991 0.52738 0.0
H2454 H 0.91408 0.46688 0.49522 0.0
H2455 H 0.90567 0.45093 0.5424 0.0
C2456 C 0.51049 0.43969 0.66821 0.0
C2457 C 0.51114 0.42681 0.65391 0.0
C2458 C 0.52363 0.45392 0.669 0.0
C2459 C 0.53773 0.45514 0.65712 0.0
C2460 C 0.53842 0.44198 0.64568 0.0
C2461 C 0.5251 0.42804 0.64307 0.0
C2462 C 0.52231 0.46769 0.67942 0.0
C2463 C 0.5532 0.44264 0.63443 0.0
C2464 C 0.57032 0.48979 0.59043 0.0
C2465 C 0.5796 0.49684 0.63746 0.0
C2466 C 0.55626 0.47675 0.59693 0.0
C2467 C 0.55162 0.47016 0.65156 0.0
C2468 C 0.56088 0.47734 0.69947 0.0
C2469 C 0.57465 0.49079 0.69195 0.0
C2470 C 0.54657 0.4698 0.54491 0.0
C2471 C 0.55661 0.47044 0.7581 0.0
H2472 H 0.49965 0.43874 0.67592 0.0
H2473 H 0.52558 0.41804 0.63225 0.0
H2474 H 0.53027 0.47479 0.71307 0.0
H2475 H 0.52534 0.47454 0.63994 0.0
H2476 H 0.51076 0.46479 0.6922 0.0
H2477 H 0.552 0.4313 0.63307 0.0
H2478 H 0.55784 0.44827 0.593 0.0
H2479 H 0.5615 0.44936 0.66788 0.0
H2480 H 0.57403 0.49445 0.54828 0.0
H2481 H 0.58188 0.49617 0.72832 0.0
H2482 H 0.53489 0.46722 0.55335 0.0
H2483 H 0.54612 0.45907 0.53456 0.0
H2484 H 0.55091 0.47727 0.50706 0.0
H2485 H 0.54509 0.46788 0.76917 0.0
H2486 H 0.56449 0.47789 0.79144 0.0
H2487 H 0.55661 0.45965 0.75851 0.0
C2488 C 0.56999 0.08299 0.58476 0.0
C2489 C 0.57905 0.08509 0.63242 0.0
C2490 C 0.55615 0.08248 0.59 0.0
C2491 C 0.55149 0.0848 0.64397 0.0
C2492 C 0.56052 0.08676 0.69253 0.0
C2493 C 0.57408 0.08659 0.68631 0.0
C2494 C 0.54669 0.07982 0.53734 0.0
C2495 C 0.55623 0.08975 0.75049 0.0
C2496 C 0.52553 0.10099 0.6311 0.0
C2497 C 0.51144 0.08842 0.6419 0.0
C2498 C 0.53872 0.10016 0.63528 0.0
C2499 C 0.53775 0.08624 0.64815 0.0
C2500 C 0.52351 0.07352 0.65988 0.0
C2501 C 0.51053 0.07484 0.6576 0.0
C2502 C 0.55366 0.11411 0.62417 0.0
C2503 C 0.52189 0.05836 0.67165 0.0
H2504 H 0.57372 0.08174 0.54305 0.0
H2505 H 0.58113 0.08835 0.72316 0.0
H2506 H 0.5349 0.07092 0.54546 0.0
H2507 H 0.54654 0.09022 0.52614 0.0
H2508 H 0.55101 0.07646 0.50012 0.0
H2509 H 0.56393 0.09013 0.78448 0.0
H2510 H 0.55649 0.10067 0.74979 0.0
H2511 H 0.5446 0.08099 0.76146 0.0
H2512 H 0.52622 0.1115 0.61914 0.0
H2513 H 0.49959 0.06507 0.66521 0.0
H2514 H 0.55837 0.11292 0.58328 0.0
H2515 H 0.5618 0.11565 0.65826 0.0
H2516 H 0.55267 0.12437 0.62182 0.0
H2517 H 0.52497 0.05433 0.63288 0.0
H2518 H 0.51024 0.04987 0.68404 0.0
H2519 H 0.52966 0.05919 0.70605 0.0
C2520 C 0.7704 0.58821 0.09107 0.0
C2521 C 0.76268 0.58916 0.04345 0.0
C2522 C 0.78438 0.58905 0.08548 0.0
C2523 C 0.79069 0.59044 0.03063 0.0
C2524 C 0.7831 0.59171 0.98232 0.0
C2525 C 0.76925 0.59125 0.9894 0.0
C2526 C 0.79221 0.58803 0.13836 0.0
C2527 C 0.78927 0.59288 0.92304 0.0
C2528 C 0.83194 0.60105 0.02717 0.0
C2529 C 0.83069 0.58686 0.02873 0.0
C2530 C 0.81902 0.60248 0.02585 0.0
C2531 C 0.80459 0.58939 0.02425 0.0
C2532 C 0.80342 0.57507 0.02247 0.0
C2533 C 0.81647 0.57399 0.02597 0.0
C2534 C 0.82077 0.61792 0.02969 0.0
C2535 C 0.78834 0.56084 0.01924 0.0
H2536 H 0.76548 0.58672 0.13304 0.0
H2537 H 0.7633 0.59194 0.95243 0.0
H2538 H 0.79235 0.57731 0.13815 0.0
H2539 H 0.80407 0.5973 0.13906 0.0
H2540 H 0.78661 0.58853 0.17808 0.0
H2541 H 0.7826 0.59483 0.89037 0.0
H2542 H 0.80109 0.60216 0.92079 0.0
H2543 H 0.78922 0.58235 0.91244 0.0
H2544 H 0.84298 0.61099 0.03019 0.0
H2545 H 0.81557 0.56302 0.02719 0.0
H2546 H 0.81649 0.61919 0.07153 0.0
H2547 H 0.81401 0.61943 0.99626 0.0
H2548 H 0.83267 0.62697 0.02536 0.0
H2549 H 0.78224 0.55911 0.06004 0.0
H2550 H 0.78945 0.55081 0.01093 0.0
H2551 H 0.78138 0.56175 0.98506 0.0
C2552 C 0.4071 0.17609 0.0615 0.0
C2553 C 0.41962 0.17567 0.04055 0.0
C2554 C 0.40665 0.18954 0.06117 0.0
C2555 C 0.41895 0.20279 0.03858 0.0
C2556 C 0.4313 0.20216 0.01488 0.0
C2557 C 0.43156 0.18862 0.01677 0.0
C2558 C 0.39337 0.18973 0.08764 0.0
C2559 C 0.44455 0.21593 0.98973 0.0
C2560 C 0.41458 0.23702 0.00993 0.0
C2561 C 0.42137 0.2458 0.05845 0.0
C2562 C 0.41368 0.22298 1.00266 0.0
C2563 C 0.41961 0.21757 0.04508 0.0
C2564 C 0.42638 0.22637 0.09421 0.0
C2565 C 0.42723 0.24035 0.10012 0.0
C2566 C 0.40647 0.21397 0.94952 0.0
C2567 C 0.43277 0.22104 0.14072 0.0
H2568 H 0.39789 0.16603 0.07997 0.0
H2569 H 0.44125 0.18823 1.00074 0.0
H2570 H 0.39703 0.19675 0.12668 0.0
H2571 H 0.38879 0.19483 0.05791 0.0
H2572 H 0.38424 0.17829 0.09932 0.0
H2573 H 0.45244 0.21322 0.96755 0.0
H2574 H 0.44066 0.22148 0.95905 0.0
H2575 H 0.45076 0.22414 0.02408 0.0
H2576 H 0.41005 0.24115 0.97752 0.0
H2577 H 0.43251 0.24703 0.13777 0.0
H2578 H 0.39685 0.20284 0.96112 0.0
H2579 H 0.41466 0.21195 0.92612 0.0
H2580 H 0.4024 0.21972 0.92054 0.0
H2581 H 0.42393 0.21002 0.15736 0.0
H2582 H 0.43737 0.22908 0.17681 0.0
H2583 H 0.44187 0.21941 0.12324 0.0
C2584 C 0.77433 0.1763 0.03426 0.0
C2585 C 0.7611 0.17701 0.03673 0.0
C2586 C 0.78848 0.18953 0.03327 0.0
C2587 C 0.78933 0.20374 0.03288 0.0
C2588 C 0.77588 0.20438 0.03238 0.0
C2589 C 0.76196 0.19102 0.03557 0.0
C2590 C 0.8025 0.18832 0.03583 0.0
C2591 C 0.77619 0.2192 0.03033 0.0
C2592 C 0.82264 0.23845 0.09666 0.0
C2593 C 0.83103 0.24601 0.04825 0.0
C2594 C 0.80944 0.22443 0.09229 0.0
C2595 C 0.80414 0.21795 0.03791 0.0
C2596 C 0.8126 0.22549 0.98876 0.0
C2597 C 0.82607 0.23933 0.9946 0.0
C2598 C 0.80106 0.21664 0.14601 0.0
C2599 C 0.80715 0.2192 0.92992 0.0
H2600 H 0.77362 0.16543 0.03611 0.0
H2601 H 0.75168 0.19153 0.03758 0.0
H2602 H 0.81037 0.19503 1.00127 0.0
H2603 H 0.80836 0.19299 0.07687 0.0
H2604 H 0.79998 0.17651 0.03222 0.0
H2605 H 0.76483 0.21773 0.02344 0.0
H2606 H 0.78071 0.22532 0.07098 0.0
H2607 H 0.78372 0.22635 0.99566 0.0
H2608 H 0.82642 0.24345 0.13832 0.0
H2609 H 0.83248 0.24514 0.95701 0.0
H2610 H 0.79881 0.20491 0.14692 0.0
H2611 H 0.79004 0.21615 0.14687 0.0
H2612 H 0.80736 0.22248 0.18512 0.0
H2613 H 0.80521 0.2076 0.92702 0.0
H2614 H 0.81524 0.22615 0.89616 0.0
H2615 H 0.79623 0.21859 0.9215 0.0
C2616 C 0.58771 0.76648 0.02187 0.0
C2617 C 0.58848 0.76101 0.96803 0.0
C2618 C 0.58761 0.78008 0.02749 0.0
C2619 C 0.58885 0.78864 0.97824 0.0
C2620 C 0.59033 0.78344 0.9241 0.0
C2621 C 0.58983 0.76959 0.91961 0.0
C2622 C 0.58555 0.78498 0.08577 0.0
C2623 C 0.59217 0.79237 0.87058 0.0
C2624 C 0.57288 0.81481 0.96759 0.0
C2625 C 0.58569 0.82892 0.97502 0.0
C2626 C 0.57361 0.80158 0.9723 0.0
C2627 C 0.58765 0.80251 0.98216 0.0
C2628 C 0.60062 0.81678 0.99053 0.0
C2629 C 0.59943 0.82984 0.98787 0.0
C2630 C 0.55941 0.78662 0.96485 0.0
C2631 C 0.61588 0.81834 0.99903 0.0
H2632 H 0.58659 0.75984 0.05938 0.0
H2633 H 0.59056 0.76552 0.87792 0.0
H2634 H 0.59463 0.79661 0.09467 0.0
H2635 H 0.57477 0.78499 0.0871 0.0
H2636 H 0.58547 0.77749 0.12006 0.0
H2637 H 0.59477 0.78758 0.83277 0.0
H2638 H 0.58168 0.7926 0.86192 0.0
H2639 H 0.60131 0.80417 0.87615 0.0
H2640 H 0.56225 0.81414 0.9578 0.0
H2641 H 0.60938 0.84079 0.99283 0.0
H2642 H 0.55835 0.77881 0.99954 0.0
H2643 H 0.55987 0.78146 0.92398 0.0
H2644 H 0.54921 0.78773 0.96468 0.0
H2645 H 0.61552 0.81089 0.03394 0.0
H2646 H 0.62464 0.83007 0.00904 0.0
H2647 H 0.61922 0.81478 0.95965 0.0
C2648 C 0.17768 0.77231 0.9893 0.0
C2649 C 0.1786 0.75938 0.97919 0.0
C2650 C 0.19075 0.78658 0.991 0.0
C2651 C 0.20505 0.7878 0.98454 0.0
C2652 C 0.20596 0.77461 0.97715 0.0
C2653 C 0.19272 0.76062 0.97331 0.0
C2654 C 0.18922 0.80036 0.9968 0.0
C2655 C 0.22093 0.7753 0.97186 0.0
C2656 C 0.23862 0.82274 0.92351 0.0
C2657 C 0.24673 0.8301 0.97261 0.0
C2658 C 0.22472 0.80939 0.9271 0.0
C2659 C 0.21901 0.80284 0.98108 0.0
C2660 C 0.22713 0.81025 0.03096 0.0
C2661 C 0.24077 0.82395 0.02615 0.0
C2662 C 0.21624 0.80217 0.87289 0.0
C2663 C 0.2217 0.80343 0.08917 0.0
H2664 H 0.16672 0.77134 0.99306 0.0
H2665 H 0.1934 0.75058 0.96565 0.0
H2666 H 0.19629 0.80751 0.03233 0.0
H2667 H 0.19329 0.80717 0.95725 0.0
H2668 H 0.17742 0.79749 1.00441 0.0
H2669 H 0.21977 0.76396 0.97284 0.0
H2670 H 0.22639 0.78082 0.93116 0.0
H2671 H 0.22852 0.78212 1.00693 0.0
H2672 H 0.24307 0.82748 0.88202 0.0
H2673 H 0.24706 0.82958 0.06419 0.0
H2674 H 0.20442 0.79959 0.87652 0.0
H2675 H 0.216 0.79139 0.86572 0.0
H2676 H 0.22141 0.80945 0.83501 0.0
H2677 H 0.21008 0.80112 0.09645 0.0
H2678 H 0.22901 0.81083 0.12385 0.0
H2679 H 0.22143 0.79252 0.0917 0.0
C2680 C 0.18513 0.42157 0.01169 0.0
C2681 C 0.17855 0.41969 0.9578 0.0
C2682 C 0.1989 0.42185 0.01834 0.0
C2683 C 0.20591 0.4196 0.97026 0.0
C2684 C 0.1989 0.41703 0.91625 0.0
C2685 C 0.18551 0.41744 0.91053 0.0
C2686 C 0.20624 0.42513 0.07628 0.0
C2687 C 0.20564 0.41406 0.86414 0.0
C2688 C 0.24804 0.43501 0.95936 0.0
C2689 C 0.24924 0.42235 0.97207 0.0
C2690 C 0.23413 0.43447 0.96196 0.0
C2691 C 0.22096 0.42074 0.9752 0.0
C2692 C 0.22216 0.40793 0.98863 0.0
C2693 C 0.23635 0.40897 0.98792 0.0
C2694 C 0.23349 0.44852 0.94909 0.0
C2695 C 0.20838 0.39295 1.00084 0.0
H2696 H 0.17982 0.42342 0.04827 0.0
H2697 H 0.18044 0.41586 0.86885 0.0
H2698 H 0.20864 0.41615 0.08883 0.0
H2699 H 0.21715 0.4358 0.07458 0.0
H2700 H 0.19913 0.42613 0.10969 0.0
H2701 H 0.19803 0.41075 0.82668 0.0
H2702 H 0.21635 0.4243 0.85289 0.0
H2703 H 0.20824 0.40501 0.87303 0.0
H2704 H 0.25804 0.44537 0.9473 0.0
H2705 H 0.23726 0.39912 0.99704 0.0
H2706 H 0.22699 0.45043 0.98252 0.0
H2707 H 0.22764 0.44721 0.90796 0.0
H2708 H 0.24486 0.45862 0.94628 0.0
H2709 H 0.20159 0.39407 0.03514 0.0
H2710 H 0.21126 0.38429 0.01363 0.0
H2711 H 0.20121 0.38896 0.96218 0.0
C2712 C 0.43301 0.91963 0.33234 0.0
C2713 C 0.42683 0.91878 0.38643 0.0
C2714 C 0.44676 0.91987 0.32612 0.0
C2715 C 0.45476 0.91977 0.37523 0.0
C2716 C 0.44876 0.91941 0.4299 0.0
C2717 C 0.43478 0.91863 0.43474 0.0
C2718 C 0.45252 0.91977 0.26708 0.0
C2719 C 0.45706 0.91974 0.4835 0.0
C2720 C 0.48216 0.90512 0.37634 0.0
C2721 C 0.49605 0.91842 0.3739 0.0
C2722 C 0.46864 0.90537 0.37316 0.0
C2723 C 0.46903 0.91933 0.37012 0.0
C2724 C 0.48311 0.93281 0.36707 0.0
C2725 C 0.49648 0.93217 0.36794 0.0
C2726 C 0.45394 0.8907 0.37469 0.0
C2727 C 0.48408 0.94794 0.36601 0.0
H2728 H 0.42687 0.91967 0.29484 0.0
H2729 H 0.43018 0.91806 0.47671 0.0
H2730 H 0.46399 0.92951 0.26148 0.0
H2731 H 0.4533 0.90947 0.26129 0.0
H2732 H 0.44515 0.92013 0.23326 0.0
H2733 H 0.45154 0.92075 0.52258 0.0
H2734 H 0.45767 0.9093 0.48668 0.0
H2735 H 0.46876 0.9293 0.4821 0.0
H2736 H 0.48188 0.89449 0.38086 0.0
H2737 H 0.50727 0.94246 0.36687 0.0
H2738 H 0.44642 0.89038 0.34015 0.0
H2739 H 0.44816 0.88965 0.41575 0.0
H2740 H 0.45556 0.88085 0.37002 0.0
H2741 H 0.47707 0.94843 0.33108 0.0
H2742 H 0.4958 0.9573 0.36046 0.0
H2743 H 0.4796 0.94967 0.40658 0.0
C2744 C 0.08357 0.56814 0.42909 0.0
C2745 C 0.086 0.57759 0.38241 0.0
C2746 C 0.08304 0.55431 0.42244 0.0
C2747 C 0.08565 0.55008 0.3681 0.0
C2748 C 0.08792 0.55951 0.32052 0.0
C2749 C 0.08779 0.57304 0.3281 0.0
C2750 C 0.08004 0.54442 0.47404 0.0
C2751 C 0.09122 0.55568 0.26224 0.0
C2752 C 0.10162 0.52386 0.37771 0.0
C2753 C 0.08909 0.50993 0.36465 0.0
C2754 C 0.10085 0.53711 0.37559 0.0
C2755 C 0.08702 0.53634 0.36248 0.0
C2756 C 0.07435 0.52226 0.34867 0.0
C2757 C 0.07561 0.50924 0.34891 0.0
C2758 C 0.11477 0.5519 0.38889 0.0
C2759 C 0.05927 0.52082 0.33658 0.0
H2760 H 0.0821 0.57154 0.4711 0.0
H2761 H 0.0898 0.58041 0.29203 0.0
H2762 H 0.07114 0.53273 0.46447 0.0
H2763 H 0.09035 0.54411 0.48547 0.0
H2764 H 0.07651 0.54846 0.5116 0.0
H2765 H 0.09187 0.5637 0.22908 0.0
H2766 H 0.10209 0.55583 0.26332 0.0
H2767 H 0.08246 0.54418 0.24979 0.0
H2768 H 0.11206 0.52439 0.38968 0.0
H2769 H 0.06587 0.49841 0.33952 0.0
H2770 H 0.11333 0.55626 0.43021 0.0
H2771 H 0.11658 0.56035 0.35577 0.0
H2772 H 0.12498 0.55083 0.39153 0.0
H2773 H 0.05512 0.5237 0.37553 0.0
H2774 H 0.05077 0.50929 0.32306 0.0
H2775 H 0.0603 0.52884 0.30285 0.0
C2776 C 0.49112 0.57414 0.32646 0.0
C2777 C 0.49724 0.5798 0.38031 0.0
C2778 C 0.47764 0.56031 0.32084 0.0
C2779 C 0.47044 0.55169 0.37011 0.0
C2780 C 0.47699 0.55711 0.42431 0.0
C2781 C 0.49009 0.57119 0.42878 0.0
C2782 C 0.4708 0.55519 0.26249 0.0
C2783 C 0.47003 0.54813 0.47787 0.0
C2784 C 0.42847 0.52419 0.37964 0.0
C2785 C 0.42777 0.51036 0.37229 0.0
C2786 C 0.44217 0.53775 0.37535 0.0
C2787 C 0.45564 0.53745 0.36604 0.0
C2788 C 0.45494 0.52345 0.35785 0.0
C2789 C 0.44094 0.51005 0.36005 0.0
C2790 C 0.44228 0.55239 0.38254 0.0
C2791 C 0.46903 0.52255 0.34998 0.0
H2792 H 0.49657 0.5808 0.2889 0.0
H2793 H 0.4948 0.5754 0.47049 0.0
H2794 H 0.46878 0.54374 0.25364 0.0
H2795 H 0.45973 0.55461 0.26099 0.0
H2796 H 0.47804 0.56287 0.22825 0.0
H2797 H 0.47731 0.55318 0.51582 0.0
H2798 H 0.45908 0.54744 0.48607 0.0
H2799 H 0.46783 0.53648 0.47263 0.0
H2800 H 0.41824 0.5244 0.389 0.0
H2801 H 0.4404 0.49931 0.35519 0.0
H2802 H 0.4489 0.56033 0.34795 0.0
H2803 H 0.44773 0.55769 0.42352 0.0
H2804 H 0.43076 0.5508 0.38232 0.0
H2805 H 0.47598 0.53009 0.31502 0.0
H2806 H 0.46653 0.51095 0.34036 0.0
H2807 H 0.47588 0.52641 0.38947 0.0
loop_
_geom_bond_atom_site_label_1
_geom_bond_atom_site_label_2
_geom_bond_distance
_geom_bond_site_symmetry_2
_ccdc_geom_bond_type
Co0 O1 2.216 . S
Co0 O2 2.091 . S
Co0 O4 2.004 . S
Co0 O10 2.021 . S
Co0 O12 2.137 . S
Co0 O13 2.244 . S
O1 Co0 2.216 . S
O1 C8 1.247 . S
O2 Co0 2.091 . S
O2 C8 1.261 . S
C3 O12 1.247 . S
C3 O13 1.272 . S
O4 Co0 2.004 . S
O4 C9 1.259 . S
Co5 O6 2.061 . S
Co5 O11 2.052 . S
Co5 O13 2.135 . S
O6 Co5 2.061 . S
O6 C9 1.235 . S
C7 O10 1.238 . S
C7 O11 1.241 . S
C8 O1 1.247 . S
C8 O2 1.261 . S
C9 O4 1.259 . S
C9 O6 1.235 . S
O10 Co0 2.021 . S
O10 C7 1.238 . S
O11 Co5 2.052 . S
O11 C7 1.241 . S
O12 Co0 2.137 . S
O12 C3 1.247 . S
O13 Co0 2.244 . S
O13 C3 1.272 . S
O13 Co5 2.135 . S
Co14 O15 2.216 . S
Co14 O16 2.091 . S
Co14 O18 2.004 . S
Co14 O24 2.021 . S
Co14 O26 2.137 . S
Co14 O27 2.244 . S
O15 Co14 2.216 . S
O15 C22 1.247 . S
O16 Co14 2.091 . S
O16 C22 1.261 . S
C17 O26 1.247 . S
C17 O27 1.272 . S
O18 Co14 2.004 . S
O18 C23 1.259 . S
Co19 O20 2.061 . S
Co19 O25 2.052 . S
Co19 O27 2.135 . S
O20 Co19 2.061 . S
O20 C23 1.235 . S
C21 O24 1.238 . S
C21 O25 1.241 . S
C22 O15 1.247 . S
C22 O16 1.261 . S
C23 O18 1.259 . S
C23 O20 1.235 . S
O24 Co14 2.021 . S
O24 C21 1.238 . S
O25 Co19 2.052 . S
O25 C21 1.241 . S
O26 Co14 2.137 . S
O26 C17 1.247 . S
O27 Co14 2.244 . S
O27 C17 1.272 . S
O27 Co19 2.135 . S
Co28 O29 2.216 . S
Co28 O30 2.091 . S
Co28 O32 2.004 . S
Co28 O38 2.021 . S
Co28 O40 2.137 . S
Co28 O41 2.244 . S
O29 Co28 2.216 . S
O29 C36 1.247 . S
O30 Co28 2.091 . S
O30 C36 1.261 . S
C31 O40 1.247 . S
C31 O41 1.272 . S
O32 Co28 2.004 . S
O32 C37 1.259 . S
Co33 O34 2.061 . S
Co33 O39 2.052 . S
Co33 O41 2.135 . S
O34 Co33 2.061 . S
O34 C37 1.235 . S
C35 O38 1.238 . S
C35 O39 1.241 . S
C36 O29 1.247 . S
C36 O30 1.261 . S
C37 O32 1.259 . S
C37 O34 1.235 . S
O38 Co28 2.021 . S
O38 C35 1.238 . S
O39 Co33 2.052 . S
O39 C35 1.241 . S
O40 Co28 2.137 . S
O40 C31 1.247 . S
O41 Co28 2.244 . S
O41 C31 1.272 . S
O41 Co33 2.135 . S
Co42 O43 2.216 . S
Co42 O44 2.091 . S
Co42 O46 2.004 . S
Co42 O52 2.021 . S
Co42 O54 2.137 . S
Co42 O55 2.244 . S
O43 Co42 2.216 . S
O43 C50 1.247 . S
O44 Co42 2.091 . S
O44 C50 1.261 . S
C45 O54 1.247 . S
C45 O55 1.272 . S
O46 Co42 2.004 . S
O46 C51 1.259 . S
Co47 O48 2.061 . S
Co47 O53 2.052 . S
Co47 O55 2.135 . S
O48 Co47 2.061 . S
O48 C51 1.235 . S
C49 O52 1.238 . S
C49 O53 1.241 . S
C50 O43 1.247 . S
C50 O44 1.261 . S
C51 O46 1.259 . S
C51 O48 1.235 . S
O52 Co42 2.021 . S
O52 C49 1.238 . S
O53 Co47 2.052 . S
O53 C49 1.241 . S
O54 Co42 2.137 . S
O54 C45 1.247 . S
O55 Co42 2.244 . S
O55 C45 1.272 . S
O55 Co47 2.135 . S
Co56 O57 2.216 . S
Co56 O58 2.091 . S
Co56 O60 2.004 . S
Co56 O66 2.021 . S
Co56 O68 2.137 . S
Co56 O69 2.244 . S
O57 Co56 2.216 . S
O57 C64 1.247 . S
O58 Co56 2.091 . S
O58 C64 1.261 . S
C59 O68 1.247 . S
C59 O69 1.272 . S
O60 Co56 2.004 . S
O60 C65 1.259 . S
Co61 O62 2.061 . S
Co61 O67 2.052 . S
Co61 O69 2.135 . S
O62 Co61 2.061 . S
O62 C65 1.235 . S
C63 O66 1.238 . S
C63 O67 1.241 . S
C64 O57 1.247 . S
C64 O58 1.261 . S
C65 O60 1.259 . S
C65 O62 1.235 . S
O66 Co56 2.021 . S
O66 C63 1.238 . S
O67 Co61 2.052 . S
O67 C63 1.241 . S
O68 Co56 2.137 . S
O68 C59 1.247 . S
O69 Co56 2.244 . S
O69 C59 1.272 . S
O69 Co61 2.135 . S
Co70 O71 2.216 . S
Co70 O72 2.091 . S
Co70 O74 2.004 . S
Co70 O80 2.021 . S
Co70 O82 2.137 . S
Co70 O83 2.244 . S
O71 Co70 2.216 . S
O71 C78 1.247 . S
O72 Co70 2.091 . S
O72 C78 1.261 . S
C73 O82 1.247 . S
C73 O83 1.272 . S
O74 Co70 2.004 . S
O74 C79 1.259 . S
Co75 O76 2.061 . S
Co75 O81 2.052 . S
Co75 O83 2.135 . S
O76 Co75 2.061 . S
O76 C79 1.235 . S
C77 O80 1.238 . S
C77 O81 1.241 . S
C78 O71 1.247 . S
C78 O72 1.261 . S
C79 O74 1.259 . S
C79 O76 1.235 . S
O80 Co70 2.021 . S
O80 C77 1.238 . S
O81 Co75 2.052 . S
O81 C77 1.241 . S
O82 Co70 2.137 . S
O82 C73 1.247 . S
O83 Co70 2.244 . S
O83 C73 1.272 . S
O83 Co75 2.135 . S
Co84 O85 2.216 . S
Co84 O86 2.091 . S
Co84 O88 2.004 . S
Co84 O94 2.021 . S
Co84 O96 2.137 . S
Co84 O97 2.244 . S
O85 Co84 2.216 . S
O85 C92 1.247 . S
O86 Co84 2.091 . S
O86 C92 1.261 . S
C87 O96 1.247 . S
C87 O97 1.272 . S
O88 Co84 2.004 . S
O88 C93 1.259 . S
Co89 O90 2.061 . S
Co89 O95 2.052 . S
Co89 O97 2.135 . S
O90 Co89 2.061 . S
O90 C93 1.235 . S
C91 O94 1.238 . S
C91 O95 1.241 . S
C92 O85 1.247 . S
C92 O86 1.261 . S
C93 O88 1.259 . S
C93 O90 1.235 . S
O94 Co84 2.021 . S
O94 C91 1.238 . S
O95 Co89 2.052 . S
O95 C91 1.241 . S
O96 Co84 2.137 . S
O96 C87 1.247 . S
O97 Co84 2.244 . S
O97 C87 1.272 . S
O97 Co89 2.135 . S
Co98 O99 2.216 . S
Co98 O100 2.091 . S
Co98 O102 2.004 . S
Co98 O108 2.021 . S
Co98 O110 2.137 . S
Co98 O111 2.244 . S
O99 Co98 2.216 . S
O99 C106 1.247 . S
O100 Co98 2.091 . S
O100 C106 1.261 . S
C101 O110 1.247 . S
C101 O111 1.272 . S
O102 Co98 2.004 . S
O102 C107 1.259 . S
Co103 O104 2.061 . S
Co103 O109 2.052 . S
Co103 O111 2.135 . S
O104 Co103 2.061 . S
O104 C107 1.235 . S
C105 O108 1.238 . S
C105 O109 1.241 . S
C106 O99 1.247 . S
C106 O100 1.261 . S
C107 O102 1.259 . S
C107 O104 1.235 . S
O108 Co98 2.021 . S
O108 C105 1.238 . S
O109 Co103 2.052 . S
O109 C105 1.241 . S
O110 Co98 2.137 . S
O110 C101 1.247 . S
O111 Co98 2.244 . S
O111 C101 1.272 . S
O111 Co103 2.135 . S
Co112 O113 2.216 . S
Co112 O114 2.091 . S
Co112 O116 2.004 . S
Co112 O122 2.021 . S
Co112 O124 2.137 . S
Co112 O125 2.244 . S
O113 Co112 2.216 . S
O113 C120 1.247 . S
O114 Co112 2.091 . S
O114 C120 1.261 . S
C115 O124 1.247 . S
C115 O125 1.272 . S
O116 Co112 2.004 . S
O116 C121 1.259 . S
Co117 O118 2.061 . S
Co117 O123 2.052 . S
Co117 O125 2.135 . S
O118 Co117 2.061 . S
O118 C121 1.235 . S
C119 O122 1.238 . S
C119 O123 1.241 . S
C120 O113 1.247 . S
C120 O114 1.261 . S
C121 O116 1.259 . S
C121 O118 1.235 . S
O122 Co112 2.021 . S
O122 C119 1.238 . S
O123 Co117 2.052 . S
O123 C119 1.241 . S
O124 Co112 2.137 . S
O124 C115 1.247 . S
O125 Co112 2.244 . S
O125 C115 1.272 . S
O125 Co117 2.135 . S
Co126 O127 2.216 . S
Co126 O128 2.091 . S
Co126 O130 2.004 . S
Co126 O136 2.021 . S
Co126 O138 2.137 . S
Co126 O139 2.244 . S
O127 Co126 2.216 . S
O127 C134 1.247 . S
O128 Co126 2.091 . S
O128 C134 1.261 . S
C129 O138 1.247 . S
C129 O139 1.272 . S
O130 Co126 2.004 . S
O130 C135 1.259 . S
Co131 O132 2.061 . S
Co131 O137 2.052 . S
Co131 O139 2.135 . S
O132 Co131 2.061 . S
O132 C135 1.235 . S
C133 O136 1.238 . S
C133 O137 1.241 . S
C134 O127 1.247 . S
C134 O128 1.261 . S
C135 O130 1.259 . S
C135 O132 1.235 . S
O136 Co126 2.021 . S
O136 C133 1.238 . S
O137 Co131 2.052 . S
O137 C133 1.241 . S
O138 Co126 2.137 . S
O138 C129 1.247 . S
O139 Co126 2.244 . S
O139 C129 1.272 . S
O139 Co131 2.135 . S
Co140 O141 2.216 . S
Co140 O142 2.091 . S
Co140 O144 2.004 . S
Co140 O150 2.021 . S
Co140 O152 2.137 . S
Co140 O153 2.244 . S
O141 Co140 2.216 . S
O141 C148 1.247 . S
O142 Co140 2.091 . S
O142 C148 1.261 . S
C143 O152 1.247 . S
C143 O153 1.272 . S
O144 Co140 2.004 . S
O144 C149 1.259 . S
Co145 O146 2.061 . S
Co145 O151 2.052 . S
Co145 O153 2.135 . S
O146 Co145 2.061 . S
O146 C149 1.235 . S
C147 O150 1.238 . S
C147 O151 1.241 . S
C148 O141 1.247 . S
C148 O142 1.261 . S
C149 O144 1.259 . S
C149 O146 1.235 . S
O150 Co140 2.021 . S
O150 C147 1.238 . S
O151 Co145 2.052 . S
O151 C147 1.241 . S
O152 Co140 2.137 . S
O152 C143 1.247 . S
O153 Co140 2.244 . S
O153 C143 1.272 . S
O153 Co145 2.135 . S
Co154 O155 2.216 . S
Co154 O156 2.091 . S
Co154 O158 2.004 . S
Co154 O164 2.021 . S
Co154 O166 2.137 . S
Co154 O167 2.244 . S
O155 Co154 2.216 . S
O155 C162 1.247 . S
O156 Co154 2.091 . S
O156 C162 1.261 . S
C157 O166 1.247 . S
C157 O167 1.272 . S
O158 Co154 2.004 . S
O158 C163 1.259 . S
Co159 O160 2.061 . S
Co159 O165 2.052 . S
Co159 O167 2.135 . S
O160 Co159 2.061 . S
O160 C163 1.235 . S
C161 O164 1.238 . S
C161 O165 1.241 . S
C162 O155 1.247 . S
C162 O156 1.261 . S
C163 O158 1.259 . S
C163 O160 1.235 . S
O164 Co154 2.021 . S
O164 C161 1.238 . S
O165 Co159 2.052 . S
O165 C161 1.241 . S
O166 Co154 2.137 . S
O166 C157 1.247 . S
O167 Co154 2.244 . S
O167 C157 1.272 . S
O167 Co159 2.135 . S
Co168 O169 2.216 . S
Co168 O170 2.091 . S
Co168 O172 2.004 . S
Co168 O178 2.021 . S
Co168 O180 2.137 . S
Co168 O181 2.244 . S
O169 Co168 2.216 . S
O169 C176 1.247 . S
O170 Co168 2.091 . S
O170 C176 1.261 . S
C171 O180 1.247 . S
C171 O181 1.272 . S
O172 Co168 2.004 . S
O172 C177 1.259 . S
Co173 O174 2.061 . S
Co173 O179 2.052 . S
Co173 O181 2.135 . S
O174 Co173 2.061 . S
O174 C177 1.235 . S
C175 O178 1.238 . S
C175 O179 1.241 . S
C176 O169 1.247 . S
C176 O170 1.261 . S
C177 O172 1.259 . S
C177 O174 1.235 . S
O178 Co168 2.021 . S
O178 C175 1.238 . S
O179 Co173 2.052 . S
O179 C175 1.241 . S
O180 Co168 2.137 . S
O180 C171 1.247 . S
O181 Co168 2.244 . S
O181 C171 1.272 . S
O181 Co173 2.135 . S
Co182 O183 2.216 . S
Co182 O184 2.091 . S
Co182 O186 2.004 . S
Co182 O192 2.021 . S
Co182 O194 2.137 . S
Co182 O195 2.244 . S
O183 Co182 2.216 . S
O183 C190 1.247 . S
O184 Co182 2.091 . S
O184 C190 1.261 . S
C185 O194 1.247 . S
C185 O195 1.272 . S
O186 Co182 2.004 . S
O186 C191 1.259 . S
Co187 O188 2.061 . S
Co187 O193 2.052 . S
Co187 O195 2.135 . S
O188 Co187 2.061 . S
O188 C191 1.235 . S
C189 O192 1.238 . S
C189 O193 1.241 . S
C190 O183 1.247 . S
C190 O184 1.261 . S
C191 O186 1.259 . S
C191 O188 1.235 . S
O192 Co182 2.021 . S
O192 C189 1.238 . S
O193 Co187 2.052 . S
O193 C189 1.241 . S
O194 Co182 2.137 . S
O194 C185 1.247 . S
O195 Co182 2.244 . S
O195 C185 1.272 . S
O195 Co187 2.135 . S
Co196 O197 2.216 . S
Co196 O198 2.091 . S
Co196 O200 2.004 . S
Co196 O206 2.021 . S
Co196 O208 2.137 . S
Co196 O209 2.244 . S
O197 Co196 2.216 . S
O197 C204 1.247 . S
O198 Co196 2.091 . S
O198 C204 1.261 . S
C199 O208 1.247 . S
C199 O209 1.272 . S
O200 Co196 2.004 . S
O200 C205 1.259 . S
Co201 O202 2.061 . S
Co201 O207 2.052 . S
Co201 O209 2.135 . S
O202 Co201 2.061 . S
O202 C205 1.235 . S
C203 O206 1.238 . S
C203 O207 1.241 . S
C204 O197 1.247 . S
C204 O198 1.261 . S
C205 O200 1.259 . S
C205 O202 1.235 . S
O206 Co196 2.021 . S
O206 C203 1.238 . S
O207 Co201 2.052 . S
O207 C203 1.241 . S
O208 Co196 2.137 . S
O208 C199 1.247 . S
O209 Co196 2.244 . S
O209 C199 1.272 . S
O209 Co201 2.135 . S
Co210 O211 2.216 . S
Co210 O212 2.091 1_554 S
Co210 O214 2.004 . S
Co210 O220 2.021 . S
Co210 O222 2.137 . S
Co210 O223 2.244 . S
O211 Co210 2.216 . S
O211 C218 1.247 1_554 S
O212 Co210 2.091 1_556 S
O212 C218 1.261 . S
C213 O222 1.247 . S
C213 O223 1.272 . S
O214 Co210 2.004 . S
O214 C219 1.259 . S
Co215 O216 2.061 . S
Co215 O221 2.052 . S
Co215 O223 2.135 . S
O216 Co215 2.061 . S
O216 C219 1.235 . S
C217 O220 1.238 . S
C217 O221 1.241 . S
C218 O211 1.247 1_556 S
C218 O212 1.261 . S
C219 O214 1.259 . S
C219 O216 1.235 . S
O220 Co210 2.021 . S
O220 C217 1.238 . S
O221 Co215 2.052 . S
O221 C217 1.241 . S
O222 Co210 2.137 . S
O222 C213 1.247 . S
O223 Co210 2.244 . S
O223 C213 1.272 . S
O223 Co215 2.135 . S
Co224 O225 2.216 . S
Co224 O226 2.091 1_554 S
Co224 O228 2.004 . S
Co224 O234 2.021 . S
Co224 O236 2.137 . S
Co224 O237 2.244 . S
O225 Co224 2.216 . S
O225 C232 1.247 1_554 S
O226 Co224 2.091 1_556 S
O226 C232 1.261 . S
C227 O236 1.247 . S
C227 O237 1.272 . S
O228 Co224 2.004 . S
O228 C233 1.259 . S
Co229 O230 2.061 . S
Co229 O235 2.052 . S
Co229 O237 2.135 . S
O230 Co229 2.061 . S
O230 C233 1.235 . S
C231 O234 1.238 . S
C231 O235 1.241 . S
C232 O225 1.247 1_556 S
C232 O226 1.261 . S
C233 O228 1.259 . S
C233 O230 1.235 . S
O234 Co224 2.021 . S
O234 C231 1.238 . S
O235 Co229 2.052 . S
O235 C231 1.241 . S
O236 Co224 2.137 . S
O236 C227 1.247 . S
O237 Co224 2.244 . S
O237 C227 1.272 . S
O237 Co229 2.135 . S
Co238 O239 2.216 . S
Co238 O240 2.091 1_554 S
Co238 O242 2.004 . S
Co238 O248 2.021 . S
Co238 O250 2.137 . S
Co238 O251 2.244 . S
O239 Co238 2.216 . S
O239 C246 1.247 1_554 S
O240 Co238 2.091 1_556 S
O240 C246 1.261 . S
C241 O250 1.247 . S
C241 O251 1.272 . S
O242 Co238 2.004 . S
O242 C247 1.259 . S
Co243 O244 2.061 . S
Co243 O249 2.052 . S
Co243 O251 2.135 . S
O244 Co243 2.061 . S
O244 C247 1.235 . S
C245 O248 1.238 . S
C245 O249 1.241 . S
C246 O239 1.247 1_556 S
C246 O240 1.261 . S
C247 O242 1.259 . S
C247 O244 1.235 . S
O248 Co238 2.021 . S
O248 C245 1.238 . S
O249 Co243 2.052 . S
O249 C245 1.241 . S
O250 Co238 2.137 . S
O250 C241 1.247 . S
O251 Co238 2.244 . S
O251 C241 1.272 . S
O251 Co243 2.135 . S
Co252 O253 2.216 . S
Co252 O254 2.091 1_554 S
Co252 O256 2.004 . S
Co252 O262 2.021 . S
Co252 O264 2.137 . S
Co252 O265 2.244 . S
O253 Co252 2.216 . S
O253 C260 1.247 1_554 S
O254 Co252 2.091 1_556 S
O254 C260 1.261 . S
C255 O264 1.247 . S
C255 O265 1.272 . S
O256 Co252 2.004 . S
O256 C261 1.259 . S
Co257 O258 2.061 . S
Co257 O263 2.052 . S
Co257 O265 2.135 . S
O258 Co257 2.061 . S
O258 C261 1.235 . S
C259 O262 1.238 . S
C259 O263 1.241 . S
C260 O253 1.247 1_556 S
C260 O254 1.261 . S
C261 O256 1.259 . S
C261 O258 1.235 . S
O262 Co252 2.021 . S
O262 C259 1.238 . S
O263 Co257 2.052 . S
O263 C259 1.241 . S
O264 Co252 2.137 . S
O264 C255 1.247 . S
O265 Co252 2.244 . S
O265 C255 1.272 . S
O265 Co257 2.135 . S
Co266 O267 2.216 . S
Co266 O268 2.091 1_554 S
Co266 O270 2.004 . S
Co266 O276 2.021 . S
Co266 O278 2.137 . S
Co266 O279 2.244 . S
O267 Co266 2.216 . S
O267 C274 1.247 1_554 S
O268 Co266 2.091 1_556 S
O268 C274 1.261 . S
C269 O278 1.247 . S
C269 O279 1.272 . S
O270 Co266 2.004 . S
O270 C275 1.259 . S
Co271 O272 2.061 . S
Co271 O277 2.052 . S
Co271 O279 2.135 . S
O272 Co271 2.061 . S
O272 C275 1.235 . S
C273 O276 1.238 . S
C273 O277 1.241 . S
C274 O267 1.247 1_556 S
C274 O268 1.261 . S
C275 O270 1.259 . S
C275 O272 1.235 . S
O276 Co266 2.021 . S
O276 C273 1.238 . S
O277 Co271 2.052 . S
O277 C273 1.241 . S
O278 Co266 2.137 . S
O278 C269 1.247 . S
O279 Co266 2.244 . S
O279 C269 1.272 . S
O279 Co271 2.135 . S
Co280 O281 2.216 . S
Co280 O282 2.091 1_554 S
Co280 O284 2.004 . S
Co280 O290 2.021 . S
Co280 O292 2.137 . S
Co280 O293 2.244 . S
O281 Co280 2.216 . S
O281 C288 1.247 1_554 S
O282 Co280 2.091 1_556 S
O282 C288 1.261 . S
C283 O292 1.247 . S
C283 O293 1.272 . S
O284 Co280 2.004 . S
O284 C289 1.259 . S
Co285 O286 2.061 . S
Co285 O291 2.052 . S
Co285 O293 2.135 . S
O286 Co285 2.061 . S
O286 C289 1.235 . S
C287 O290 1.238 . S
C287 O291 1.241 . S
C288 O281 1.247 1_556 S
C288 O282 1.261 . S
C289 O284 1.259 . S
C289 O286 1.235 . S
O290 Co280 2.021 . S
O290 C287 1.238 . S
O291 Co285 2.052 . S
O291 C287 1.241 . S
O292 Co280 2.137 . S
O292 C283 1.247 . S
O293 Co280 2.244 . S
O293 C283 1.272 . S
O293 Co285 2.135 . S
Co294 O295 2.216 . S
Co294 O296 2.091 . S
Co294 O298 2.004 . S
Co294 O304 2.021 . S
Co294 O306 2.137 . S
Co294 O307 2.244 . S
O295 Co294 2.216 . S
O295 C302 1.247 . S
O296 Co294 2.091 . S
O296 C302 1.261 . S
C297 O306 1.247 . S
C297 O307 1.272 . S
O298 Co294 2.004 . S
O298 C303 1.259 . S
Co299 O300 2.061 . S
Co299 O305 2.052 . S
Co299 O307 2.135 . S
O300 Co299 2.061 . S
O300 C303 1.235 . S
C301 O304 1.238 . S
C301 O305 1.241 . S
C302 O295 1.247 . S
C302 O296 1.261 . S
C303 O298 1.259 . S
C303 O300 1.235 . S
O304 Co294 2.021 . S
O304 C301 1.238 . S
O305 Co299 2.052 . S
O305 C301 1.241 . S
O306 Co294 2.137 . S
O306 C297 1.247 . S
O307 Co294 2.244 . S
O307 C297 1.272 . S
O307 Co299 2.135 . S
Co308 O309 2.216 . S
Co308 O310 2.091 . S
Co308 O312 2.004 . S
Co308 O318 2.021 . S
Co308 O320 2.137 . S
Co308 O321 2.244 . S
O309 Co308 2.216 . S
O309 C316 1.247 . S
O310 Co308 2.091 . S
O310 C316 1.261 . S
C311 O320 1.247 . S
C311 O321 1.272 . S
O312 Co308 2.004 . S
O312 C317 1.259 . S
Co313 O314 2.061 . S
Co313 O319 2.052 . S
Co313 O321 2.135 . S
O314 Co313 2.061 . S
O314 C317 1.235 . S
C315 O318 1.238 . S
C315 O319 1.241 . S
C316 O309 1.247 . S
C316 O310 1.261 . S
C317 O312 1.259 . S
C317 O314 1.235 . S
O318 Co308 2.021 . S
O318 C315 1.238 . S
O319 Co313 2.052 . S
O319 C315 1.241 . S
O320 Co308 2.137 . S
O320 C311 1.247 . S
O321 Co308 2.244 . S
O321 C311 1.272 . S
O321 Co313 2.135 . S
Co322 O323 2.216 . S
Co322 O324 2.091 . S
Co322 O326 2.004 . S
Co322 O332 2.021 . S
Co322 O334 2.137 . S
Co322 O335 2.244 . S
O323 Co322 2.216 . S
O323 C330 1.247 . S
O324 Co322 2.091 . S
O324 C330 1.261 . S
C325 O334 1.247 . S
C325 O335 1.272 . S
O326 Co322 2.004 . S
O326 C331 1.259 . S
Co327 O328 2.061 . S
Co327 O333 2.052 . S
Co327 O335 2.135 . S
O328 Co327 2.061 . S
O328 C331 1.235 . S
C329 O332 1.238 . S
C329 O333 1.241 . S
C330 O323 1.247 . S
C330 O324 1.261 . S
C331 O326 1.259 . S
C331 O328 1.235 . S
O332 Co322 2.021 . S
O332 C329 1.238 . S
O333 Co327 2.052 . S
O333 C329 1.241 . S
O334 Co322 2.137 . S
O334 C325 1.247 . S
O335 Co322 2.244 . S
O335 C325 1.272 . S
O335 Co327 2.135 . S
Co336 O337 2.216 . S
Co336 O338 2.091 1_556 S
Co336 O340 2.004 . S
Co336 O346 2.021 . S
Co336 O348 2.137 . S
Co336 O349 2.244 . S
O337 Co336 2.216 . S
O337 C344 1.247 1_556 S
O338 Co336 2.091 1_554 S
O338 C344 1.261 . S
C339 O348 1.247 . S
C339 O349 1.272 . S
O340 Co336 2.004 . S
O340 C345 1.259 . S
Co341 O342 2.061 . S
Co341 O347 2.052 . S
Co341 O349 2.135 . S
O342 Co341 2.061 . S
O342 C345 1.235 . S
C343 O346 1.238 . S
C343 O347 1.241 . S
C344 O337 1.247 1_554 S
C344 O338 1.261 . S
C345 O340 1.259 . S
C345 O342 1.235 . S
O346 Co336 2.021 . S
O346 C343 1.238 . S
O347 Co341 2.052 . S
O347 C343 1.241 . S
O348 Co336 2.137 . S
O348 C339 1.247 . S
O349 Co336 2.244 . S
O349 C339 1.272 . S
O349 Co341 2.135 . S
Co350 O351 2.216 . S
Co350 O352 2.091 1_556 S
Co350 O354 2.004 . S
Co350 O360 2.021 . S
Co350 O362 2.137 . S
Co350 O363 2.244 . S
O351 Co350 2.216 . S
O351 C358 1.247 1_556 S
O352 Co350 2.091 1_554 S
O352 C358 1.261 . S
C353 O362 1.247 . S
C353 O363 1.272 . S
O354 Co350 2.004 . S
O354 C359 1.259 . S
Co355 O356 2.061 . S
Co355 O361 2.052 . S
Co355 O363 2.135 . S
O356 Co355 2.061 . S
O356 C359 1.235 . S
C357 O360 1.238 . S
C357 O361 1.241 . S
C358 O351 1.247 1_554 S
C358 O352 1.261 . S
C359 O354 1.259 . S
C359 O356 1.235 . S
O360 Co350 2.021 . S
O360 C357 1.238 . S
O361 Co355 2.052 . S
O361 C357 1.241 . S
O362 Co350 2.137 . S
O362 C353 1.247 . S
O363 Co350 2.244 . S
O363 C353 1.272 . S
O363 Co355 2.135 . S
Co364 O365 2.216 . S
Co364 O366 2.091 1_556 S
Co364 O368 2.004 . S
Co364 O374 2.021 . S
Co364 O376 2.137 . S
Co364 O377 2.244 . S
O365 Co364 2.216 . S
O365 C372 1.247 1_556 S
O366 Co364 2.091 1_554 S
O366 C372 1.261 . S
C367 O376 1.247 . S
C367 O377 1.272 . S
O368 Co364 2.004 . S
O368 C373 1.259 . S
Co369 O370 2.061 . S
Co369 O375 2.052 . S
Co369 O377 2.135 . S
O370 Co369 2.061 . S
O370 C373 1.235 . S
C371 O374 1.238 . S
C371 O375 1.241 . S
C372 O365 1.247 1_554 S
C372 O366 1.261 . S
C373 O368 1.259 . S
C373 O370 1.235 . S
O374 Co364 2.021 . S
O374 C371 1.238 . S
O375 Co369 2.052 . S
O375 C371 1.241 . S
O376 Co364 2.137 . S
O376 C367 1.247 . S
O377 Co364 2.244 . S
O377 C367 1.272 . S
O377 Co369 2.135 . S
Co378 O379 2.216 . S
Co378 O380 2.091 . S
Co378 O382 2.004 . S
Co378 O388 2.021 . S
Co378 O390 2.137 . S
Co378 O391 2.244 . S
O379 Co378 2.216 . S
O379 C386 1.247 . S
O380 Co378 2.091 . S
O380 C386 1.261 . S
C381 O390 1.247 . S
C381 O391 1.272 . S
O382 Co378 2.004 . S
O382 C387 1.259 . S
Co383 O384 2.061 . S
Co383 O389 2.052 . S
Co383 O391 2.135 . S
O384 Co383 2.061 . S
O384 C387 1.235 . S
C385 O388 1.238 . S
C385 O389 1.241 . S
C386 O379 1.247 . S
C386 O380 1.261 . S
C387 O382 1.259 . S
C387 O384 1.235 . S
O388 Co378 2.021 . S
O388 C385 1.238 . S
O389 Co383 2.052 . S
O389 C385 1.241 . S
O390 Co378 2.137 . S
O390 C381 1.247 . S
O391 Co378 2.244 . S
O391 C381 1.272 . S
O391 Co383 2.135 . S
Co392 O393 2.216 . S
Co392 O394 2.091 . S
Co392 O396 2.004 . S
Co392 O402 2.021 . S
Co392 O404 2.137 . S
Co392 O405 2.244 . S
O393 Co392 2.216 . S
O393 C400 1.247 . S
O394 Co392 2.091 . S
O394 C400 1.261 . S
C395 O404 1.247 . S
C395 O405 1.272 . S
O396 Co392 2.004 . S
O396 C401 1.259 . S
Co397 O398 2.061 . S
Co397 O403 2.052 . S
Co397 O405 2.135 . S
O398 Co397 2.061 . S
O398 C401 1.235 . S
C399 O402 1.238 . S
C399 O403 1.241 . S
C400 O393 1.247 . S
C400 O394 1.261 . S
C401 O396 1.259 . S
C401 O398 1.235 . S
O402 Co392 2.021 . S
O402 C399 1.238 . S
O403 Co397 2.052 . S
O403 C399 1.241 . S
O404 Co392 2.137 . S
O404 C395 1.247 . S
O405 Co392 2.244 . S
O405 C395 1.272 . S
O405 Co397 2.135 . S
Co406 O407 2.216 . S
Co406 O408 2.091 . S
Co406 O410 2.004 . S
Co406 O416 2.021 . S
Co406 O418 2.137 . S
Co406 O419 2.244 . S
O407 Co406 2.216 . S
O407 C414 1.247 . S
O408 Co406 2.091 . S
O408 C414 1.261 . S
C409 O418 1.247 . S
C409 O419 1.272 . S
O410 Co406 2.004 . S
O410 C415 1.259 . S
Co411 O412 2.061 . S
Co411 O417 2.052 . S
Co411 O419 2.135 . S
O412 Co411 2.061 . S
O412 C415 1.235 . S
C413 O416 1.238 . S
C413 O417 1.241 . S
C414 O407 1.247 . S
C414 O408 1.261 . S
C415 O410 1.259 . S
C415 O412 1.235 . S
O416 Co406 2.021 . S
O416 C413 1.238 . S
O417 Co411 2.052 . S
O417 C413 1.241 . S
O418 Co406 2.137 . S
O418 C409 1.247 . S
O419 Co406 2.244 . S
O419 C409 1.272 . S
O419 Co411 2.135 . S
Co420 O421 2.216 . S
Co420 O422 2.091 . S
Co420 O424 2.004 . S
Co420 O430 2.021 . S
Co420 O432 2.137 . S
Co420 O433 2.244 . S
O421 Co420 2.216 . S
O421 C428 1.247 . S
O422 Co420 2.091 . S
O422 C428 1.261 . S
C423 O432 1.247 . S
C423 O433 1.272 . S
O424 Co420 2.004 . S
O424 C429 1.259 . S
Co425 O426 2.061 . S
Co425 O431 2.052 . S
Co425 O433 2.135 . S
O426 Co425 2.061 . S
O426 C429 1.235 . S
C427 O430 1.238 . S
C427 O431 1.241 . S
C428 O421 1.247 . S
C428 O422 1.261 . S
C429 O424 1.259 . S
C429 O426 1.235 . S
O430 Co420 2.021 . S
O430 C427 1.238 . S
O431 Co425 2.052 . S
O431 C427 1.241 . S
O432 Co420 2.137 . S
O432 C423 1.247 . S
O433 Co420 2.244 . S
O433 C423 1.272 . S
O433 Co425 2.135 . S
Co434 O435 2.216 . S
Co434 O436 2.091 . S
Co434 O438 2.004 . S
Co434 O444 2.021 . S
Co434 O446 2.137 . S
Co434 O447 2.244 . S
O435 Co434 2.216 . S
O435 C442 1.247 . S
O436 Co434 2.091 . S
O436 C442 1.261 . S
C437 O446 1.247 . S
C437 O447 1.272 . S
O438 Co434 2.004 . S
O438 C443 1.259 . S
Co439 O440 2.061 . S
Co439 O445 2.052 . S
Co439 O447 2.135 . S
O440 Co439 2.061 . S
O440 C443 1.235 . S
C441 O444 1.238 . S
C441 O445 1.241 . S
C442 O435 1.247 . S
C442 O436 1.261 . S
C443 O438 1.259 . S
C443 O440 1.235 . S
O444 Co434 2.021 . S
O444 C441 1.238 . S
O445 Co439 2.052 . S
O445 C441 1.241 . S
O446 Co434 2.137 . S
O446 C437 1.247 . S
O447 Co434 2.244 . S
O447 C437 1.272 . S
O447 Co439 2.135 . S
Co448 O449 2.216 . S
Co448 O450 2.091 . S
Co448 O452 2.004 . S
Co448 O458 2.021 . S
Co448 O460 2.137 . S
Co448 O461 2.244 . S
O449 Co448 2.216 . S
O449 C456 1.247 . S
O450 Co448 2.091 . S
O450 C456 1.261 . S
C451 O460 1.247 . S
C451 O461 1.272 . S
O452 Co448 2.004 . S
O452 C457 1.259 . S
Co453 O454 2.061 . S
Co453 O459 2.052 . S
Co453 O461 2.135 . S
O454 Co453 2.061 . S
O454 C457 1.235 . S
C455 O458 1.238 . S
C455 O459 1.241 . S
C456 O449 1.247 . S
C456 O450 1.261 . S
C457 O452 1.259 . S
C457 O454 1.235 . S
O458 Co448 2.021 . S
O458 C455 1.238 . S
O459 Co453 2.052 . S
O459 C455 1.241 . S
O460 Co448 2.137 . S
O460 C451 1.247 . S
O461 Co448 2.244 . S
O461 C451 1.272 . S
O461 Co453 2.135 . S
Co462 O463 2.216 . S
Co462 O464 2.091 1_556 S
Co462 O466 2.004 . S
Co462 O472 2.021 . S
Co462 O474 2.137 . S
Co462 O475 2.244 . S
O463 Co462 2.216 . S
O463 C470 1.247 1_556 S
O464 Co462 2.091 1_554 S
O464 C470 1.261 . S
C465 O474 1.247 . S
C465 O475 1.272 . S
O466 Co462 2.004 . S
O466 C471 1.259 . S
Co467 O468 2.061 . S
Co467 O473 2.052 . S
Co467 O475 2.135 . S
O468 Co467 2.061 . S
O468 C471 1.235 . S
C469 O472 1.238 . S
C469 O473 1.241 . S
C470 O463 1.247 1_554 S
C470 O464 1.261 . S
C471 O466 1.259 . S
C471 O468 1.235 . S
O472 Co462 2.021 . S
O472 C469 1.238 . S
O473 Co467 2.052 . S
O473 C469 1.241 . S
O474 Co462 2.137 . S
O474 C465 1.247 . S
O475 Co462 2.244 . S
O475 C465 1.272 . S
O475 Co467 2.135 . S
Co476 O477 2.216 . S
Co476 O478 2.091 1_556 S
Co476 O480 2.004 . S
Co476 O486 2.021 . S
Co476 O488 2.137 . S
Co476 O489 2.244 . S
O477 Co476 2.216 . S
O477 C484 1.247 1_556 S
O478 Co476 2.091 1_554 S
O478 C484 1.261 . S
C479 O488 1.247 . S
C479 O489 1.272 . S
O480 Co476 2.004 . S
O480 C485 1.259 . S
Co481 O482 2.061 . S
Co481 O487 2.052 . S
Co481 O489 2.135 . S
O482 Co481 2.061 . S
O482 C485 1.235 . S
C483 O486 1.238 . S
C483 O487 1.241 . S
C484 O477 1.247 1_554 S
C484 O478 1.261 . S
C485 O480 1.259 . S
C485 O482 1.235 . S
O486 Co476 2.021 . S
O486 C483 1.238 . S
O487 Co481 2.052 . S
O487 C483 1.241 . S
O488 Co476 2.137 . S
O488 C479 1.247 . S
O489 Co476 2.244 . S
O489 C479 1.272 . S
O489 Co481 2.135 . S
Co490 O491 2.216 . S
Co490 O492 2.091 1_556 S
Co490 O494 2.004 . S
Co490 O500 2.021 . S
Co490 O502 2.137 . S
Co490 O503 2.244 . S
O491 Co490 2.216 . S
O491 C498 1.247 1_556 S
O492 Co490 2.091 1_554 S
O492 C498 1.261 . S
C493 O502 1.247 . S
C493 O503 1.272 . S
O494 Co490 2.004 . S
O494 C499 1.259 . S
Co495 O496 2.061 . S
Co495 O501 2.052 . S
Co495 O503 2.135 . S
O496 Co495 2.061 . S
O496 C499 1.235 . S
C497 O500 1.238 . S
C497 O501 1.241 . S
C498 O491 1.247 1_554 S
C498 O492 1.261 . S
C499 O494 1.259 . S
C499 O496 1.235 . S
O500 Co490 2.021 . S
O500 C497 1.238 . S
O501 Co495 2.052 . S
O501 C497 1.241 . S
O502 Co490 2.137 . S
O502 C493 1.247 . S
O503 Co490 2.244 . S
O503 C493 1.272 . S
O503 Co495 2.135 . S
C504 C505 1.391 . S
C504 C506 1.394 . S
C504 H520 0.931 . S
C505 C504 1.391 . S
C505 C509 1.376 . S
C506 C504 1.394 . S
C506 C507 1.369 . S
C506 C510 1.531 . S
C507 C506 1.369 . S
C507 C508 1.410 . S
C507 C515 1.503 1_565 S
C508 C507 1.410 . S
C508 C509 1.392 . S
C508 C511 1.511 1_565 S
C509 C505 1.376 . S
C509 C508 1.392 . S
C509 H521 0.929 . S
C510 C506 1.531 . S
C510 H522 0.960 . S
C510 H523 0.962 . S
C510 H524 0.960 . S
C511 C508 1.511 1_545 S
C511 H525 0.961 . S
C511 H526 0.961 . S
C511 H527 0.961 . S
C512 C513 1.370 . S
C512 C514 1.363 . S
C512 H528 0.931 . S
C513 C512 1.370 . S
C513 C517 1.408 . S
C514 C512 1.363 . S
C514 C515 1.370 . S
C514 C518 1.524 . S
C515 C507 1.503 1_545 S
C515 C514 1.370 . S
C515 C516 1.403 . S
C516 C515 1.403 . S
C516 C517 1.404 . S
C516 C519 1.539 1_545 S
C517 C513 1.408 . S
C517 C516 1.404 . S
C517 H529 0.930 . S
C518 C514 1.524 . S
C518 H530 0.956 . S
C518 H531 0.961 . S
C518 H532 0.961 . S
C519 C516 1.539 1_565 S
C519 H533 0.958 . S
C519 H534 0.961 . S
C519 H535 0.960 . S
H520 C504 0.931 . S
H521 C509 0.929 . S
H522 C510 0.960 . S
H523 C510 0.962 . S
H524 C510 0.960 . S
H525 C511 0.961 . S
H526 C511 0.961 . S
H527 C511 0.961 . S
H528 C512 0.931 . S
H529 C517 0.930 . S
H530 C518 0.956 . S
H531 C518 0.961 . S
H532 C518 0.961 . S
H533 C519 0.958 . S
H534 C519 0.961 . S
H535 C519 0.960 . S
C536 C537 1.391 . S
C536 C538 1.394 . S
C536 H552 0.931 . S
C537 C536 1.391 . S
C537 C541 1.376 . S
C538 C536 1.394 . S
C538 C539 1.369 . S
C538 C542 1.531 1_455 S
C539 C538 1.369 . S
C539 C540 1.410 . S
C539 C547 1.503 1_455 S
C540 C539 1.410 . S
C540 C541 1.392 . S
C540 C543 1.511 . S
C541 C537 1.376 . S
C541 C540 1.392 . S
C541 H553 0.929 . S
C542 C538 1.531 1_655 S
C542 H554 0.960 . S
C542 H555 0.962 . S
C542 H556 0.960 . S
C543 C540 1.511 . S
C543 H557 0.961 . S
C543 H558 0.961 . S
C543 H559 0.961 . S
C544 C545 1.370 . S
C544 C546 1.363 . S
C544 H560 0.931 . S
C545 C544 1.370 . S
C545 C549 1.408 . S
C546 C544 1.363 . S
C546 C547 1.370 . S
C546 C550 1.524 . S
C547 C539 1.503 1_655 S
C547 C546 1.370 . S
C547 C548 1.403 . S
C548 C547 1.403 . S
C548 C549 1.404 . S
C548 C551 1.539 1_655 S
C549 C545 1.408 . S
C549 C548 1.404 . S
C549 H561 0.930 . S
C550 C546 1.524 . S
C550 H562 0.956 . S
C550 H563 0.961 . S
C550 H564 0.961 . S
C551 C548 1.539 1_455 S
C551 H565 0.958 . S
C551 H566 0.961 . S
C551 H567 0.960 . S
H552 C536 0.931 . S
H553 C541 0.929 . S
H554 C542 0.960 . S
H555 C542 0.962 . S
H556 C542 0.960 . S
H557 C543 0.961 . S
H558 C543 0.961 . S
H559 C543 0.961 . S
H560 C544 0.931 . S
H561 C549 0.930 . S
H562 C550 0.956 . S
H563 C550 0.961 . S
H564 C550 0.961 . S
H565 C551 0.958 . S
H566 C551 0.961 . S
H567 C551 0.960 . S
C568 C569 1.391 . S
C568 C570 1.394 . S
C568 H584 0.931 . S
C569 C568 1.391 . S
C569 C573 1.376 . S
C570 C568 1.394 . S
C570 C571 1.369 . S
C570 C574 1.531 . S
C571 C570 1.369 . S
C571 C572 1.410 . S
C571 C579 1.503 . S
C572 C571 1.410 . S
C572 C573 1.392 . S
C572 C575 1.511 . S
C573 C569 1.376 . S
C573 C572 1.392 . S
C573 H585 0.929 . S
C574 C570 1.531 . S
C574 H586 0.960 . S
C574 H587 0.962 . S
C574 H588 0.960 . S
C575 C572 1.511 . S
C575 H589 0.961 . S
C575 H590 0.961 . S
C575 H591 0.961 . S
C576 C577 1.370 . S
C576 C578 1.363 . S
C576 H592 0.931 . S
C577 C576 1.370 . S
C577 C581 1.408 . S
C578 C576 1.363 . S
C578 C579 1.370 . S
C578 C582 1.524 . S
C579 C571 1.503 . S
C579 C578 1.370 . S
C579 C580 1.403 . S
C580 C579 1.403 . S
C580 C581 1.404 . S
C580 C583 1.539 . S
C581 C577 1.408 . S
C581 C580 1.404 . S
C581 H593 0.930 . S
C582 C578 1.524 . S
C582 H594 0.956 . S
C582 H595 0.961 . S
C582 H596 0.961 . S
C583 C580 1.539 . S
C583 H597 0.958 . S
C583 H598 0.961 . S
C583 H599 0.960 . S
H584 C568 0.931 . S
H585 C573 0.929 . S
H586 C574 0.960 . S
H587 C574 0.962 . S
H588 C574 0.960 . S
H589 C575 0.961 . S
H590 C575 0.961 . S
H591 C575 0.961 . S
H592 C576 0.931 . S
H593 C581 0.930 . S
H594 C582 0.956 . S
H595 C582 0.961 . S
H596 C582 0.961 . S
H597 C583 0.958 . S
H598 C583 0.961 . S
H599 C583 0.960 . S
C600 C601 1.391 . S
C600 C602 1.409 . S
C600 H616 0.931 . S
C601 C600 1.391 . S
C601 C605 1.376 . S
C602 C600 1.409 . S
C602 C603 1.381 . S
C602 C606 1.502 1_565 S
C603 C602 1.381 . S
C603 C604 1.410 . S
C603 C611 1.503 1_565 S
C604 C603 1.410 . S
C604 C605 1.392 . S
C604 C607 1.511 . S
C605 C601 1.376 . S
C605 C604 1.392 . S
C605 H617 0.929 . S
C606 C602 1.502 1_545 S
C606 H618 0.960 . S
C606 H619 0.962 . S
C606 H620 0.960 . S
C607 C604 1.511 . S
C607 H621 0.961 . S
C607 H622 0.961 . S
C607 H623 0.961 . S
C608 C609 1.370 . S
C608 C610 1.363 . S
C608 H624 0.931 . S
C609 C608 1.370 . S
C609 C613 1.408 . S
C610 C608 1.363 . S
C610 C611 1.370 . S
C610 C614 1.524 1_545 S
C611 C603 1.503 1_545 S
C611 C610 1.370 . S
C611 C612 1.403 . S
C612 C611 1.403 . S
C612 C613 1.404 . S
C612 C615 1.539 . S
C613 C609 1.408 . S
C613 C612 1.404 . S
C613 H625 0.930 . S
C614 C610 1.524 1_565 S
C614 H626 0.956 . S
C614 H627 0.961 . S
C614 H628 0.961 . S
C615 C612 1.539 . S
C615 H629 0.958 . S
C615 H630 0.961 . S
C615 H631 0.960 . S
H616 C600 0.931 . S
H617 C605 0.929 . S
H618 C606 0.960 . S
H619 C606 0.962 . S
H620 C606 0.960 . S
H621 C607 0.961 . S
H622 C607 0.961 . S
H623 C607 0.961 . S
H624 C608 0.931 . S
H625 C613 0.930 . S
H626 C614 0.956 . S
H627 C614 0.961 . S
H628 C614 0.961 . S
H629 C615 0.958 . S
H630 C615 0.961 . S
H631 C615 0.960 . S
C632 C633 1.391 . S
C632 C634 1.394 . S
C632 H648 0.931 . S
C633 C632 1.391 . S
C633 C637 1.376 . S
C634 C632 1.394 . S
C634 C635 1.369 . S
C634 C638 1.531 . S
C635 C634 1.369 . S
C635 C636 1.410 . S
C635 C643 1.503 1_455 S
C636 C635 1.410 . S
C636 C637 1.392 . S
C636 C639 1.511 . S
C637 C633 1.376 . S
C637 C636 1.392 . S
C637 H649 0.929 . S
C638 C634 1.531 . S
C638 H650 0.960 . S
C638 H651 0.962 1_455 S
C638 H652 0.960 . S
C639 C636 1.511 . S
C639 H653 0.961 . S
C639 H654 0.961 . S
C639 H655 0.961 . S
C640 C641 1.370 . S
C640 C642 1.363 . S
C640 H656 0.931 . S
C641 C640 1.370 . S
C641 C645 1.408 . S
C642 C640 1.363 . S
C642 C643 1.370 . S
C642 C646 1.524 . S
C643 C635 1.503 1_655 S
C643 C642 1.370 . S
C643 C644 1.403 1_655 S
C644 C643 1.403 1_455 S
C644 C645 1.404 1_455 S
C644 C647 1.539 . S
C645 C641 1.408 . S
C645 C644 1.404 1_655 S
C645 H657 0.930 . S
C646 C642 1.524 . S
C646 H658 0.956 . S
C646 H659 0.961 . S
C646 H660 0.961 . S
C647 C644 1.539 . S
C647 H661 0.958 . S
C647 H662 0.961 . S
C647 H663 0.960 . S
H648 C632 0.931 . S
H649 C637 0.929 . S
H650 C638 0.960 . S
H651 C638 0.962 1_655 S
H652 C638 0.960 . S
H653 C639 0.961 . S
H654 C639 0.961 . S
H655 C639 0.961 . S
H656 C640 0.931 . S
H657 C645 0.930 . S
H658 C646 0.956 . S
H659 C646 0.961 . S
H660 C646 0.961 . S
H661 C647 0.958 . S
H662 C647 0.961 . S
H663 C647 0.960 . S
C664 C665 1.391 . S
C664 C666 1.394 . S
C664 H680 0.931 . S
C665 C664 1.391 . S
C665 C669 1.376 . S
C666 C664 1.394 . S
C666 C667 1.369 . S
C666 C670 1.531 . S
C667 C666 1.369 . S
C667 C668 1.410 . S
C667 C675 1.503 . S
C668 C667 1.410 . S
C668 C669 1.392 . S
C668 C671 1.511 . S
C669 C665 1.376 . S
C669 C668 1.392 . S
C669 H681 0.929 . S
C670 C666 1.531 . S
C670 H682 0.960 . S
C670 H683 0.962 . S
C670 H684 0.960 . S
C671 C668 1.511 . S
C671 H685 0.961 . S
C671 H686 0.961 . S
C671 H687 0.961 . S
C672 C673 1.370 . S
C672 C674 1.363 . S
C672 H688 0.931 . S
C673 C672 1.370 . S
C673 C677 1.408 . S
C674 C672 1.363 . S
C674 C675 1.370 . S
C674 C678 1.524 . S
C675 C667 1.503 . S
C675 C674 1.370 . S
C675 C676 1.403 . S
C676 C675 1.403 . S
C676 C677 1.404 . S
C676 C679 1.539 . S
C677 C673 1.408 . S
C677 C676 1.404 . S
C677 H689 0.930 . S
C678 C674 1.524 . S
C678 H690 0.956 . S
C678 H691 0.961 . S
C678 H692 0.961 . S
C679 C676 1.539 . S
C679 H693 0.958 . S
C679 H694 0.961 . S
C679 H695 0.960 . S
H680 C664 0.931 . S
H681 C669 0.929 . S
H682 C670 0.960 . S
H683 C670 0.962 . S
H684 C670 0.960 . S
H685 C671 0.961 . S
H686 C671 0.961 . S
H687 C671 0.961 . S
H688 C672 0.931 . S
H689 C677 0.930 . S
H690 C678 0.956 . S
H691 C678 0.961 . S
H692 C678 0.961 . S
H693 C679 0.958 . S
H694 C679 0.961 . S
H695 C679 0.960 . S
C696 C697 1.391 . S
C696 C698 1.394 . S
C696 H712 0.931 . S
C697 C696 1.391 . S
C697 C701 1.376 . S
C698 C696 1.394 . S
C698 C699 1.369 . S
C698 C702 1.531 . S
C699 C698 1.369 . S
C699 C700 1.410 . S
C699 C707 1.503 . S
C700 C699 1.410 . S
C700 C701 1.392 . S
C700 C703 1.511 . S
C701 C697 1.376 . S
C701 C700 1.392 . S
C701 H713 0.929 . S
C702 C698 1.531 . S
C702 H714 0.960 . S
C702 H715 0.962 . S
C702 H716 0.960 . S
C703 C700 1.511 . S
C703 H717 0.961 . S
C703 H718 0.961 . S
C703 H719 0.961 . S
C704 C705 1.370 . S
C704 C706 1.363 . S
C704 H720 0.931 . S
C705 C704 1.370 . S
C705 C709 1.408 . S
C706 C704 1.363 . S
C706 C707 1.370 . S
C706 C710 1.524 . S
C707 C699 1.503 . S
C707 C706 1.370 . S
C707 C708 1.403 . S
C708 C707 1.403 . S
C708 C709 1.404 . S
C708 C711 1.539 . S
C709 C705 1.408 . S
C709 C708 1.404 . S
C709 H721 0.930 . S
C710 C706 1.524 . S
C710 H722 0.956 . S
C710 H723 0.961 . S
C710 H724 0.961 . S
C711 C708 1.539 . S
C711 H725 0.958 . S
C711 H726 0.961 . S
C711 H727 0.960 . S
H712 C696 0.931 . S
H713 C701 0.929 . S
H714 C702 0.960 . S
H715 C702 0.962 . S
H716 C702 0.960 . S
H717 C703 0.961 . S
H718 C703 0.961 . S
H719 C703 0.961 . S
H720 C704 0.931 . S
H721 C709 0.930 . S
H722 C710 0.956 . S
H723 C710 0.961 . S
H724 C710 0.961 . S
H725 C711 0.958 . S
H726 C711 0.961 . S
H727 C711 0.960 . S
C728 C729 1.391 . S
C728 C730 1.394 . S
C728 H744 0.931 . S
C729 C728 1.391 . S
C729 C733 1.376 . S
C730 C728 1.394 . S
C730 C731 1.369 . S
C730 C734 1.531 . S
C731 C730 1.369 . S
C731 C732 1.410 . S
C731 C739 1.503 . S
C732 C731 1.410 . S
C732 C733 1.392 . S
C732 C735 1.511 . S
C733 C729 1.376 . S
C733 C732 1.392 . S
C733 H745 0.929 . S
C734 C730 1.531 . S
C734 H746 0.960 . S
C734 H747 0.962 . S
C734 H748 0.960 . S
C735 C732 1.511 . S
C735 H749 0.961 . S
C735 H750 0.961 . S
C735 H751 0.961 . S
C736 C737 1.370 . S
C736 C738 1.363 . S
C736 H752 0.931 . S
C737 C736 1.370 . S
C737 C741 1.408 . S
C738 C736 1.363 . S
C738 C739 1.370 . S
C738 C742 1.524 . S
C739 C731 1.503 . S
C739 C738 1.370 . S
C739 C740 1.403 . S
C740 C739 1.403 . S
C740 C741 1.404 . S
C740 C743 1.539 . S
C741 C737 1.408 . S
C741 C740 1.404 . S
C741 H753 0.929 . S
C742 C738 1.524 . S
C742 H754 0.956 . S
C742 H755 0.961 . S
C742 H756 0.961 . S
C743 C740 1.539 . S
C743 H757 0.958 . S
C743 H758 0.961 . S
C743 H759 0.960 . S
H744 C728 0.931 . S
H745 C733 0.929 . S
H746 C734 0.960 . S
H747 C734 0.962 . S
H748 C734 0.960 . S
H749 C735 0.961 . S
H750 C735 0.961 . S
H751 C735 0.961 . S
H752 C736 0.931 . S
H753 C741 0.929 . S
H754 C742 0.956 . S
H755 C742 0.961 . S
H756 C742 0.961 . S
H757 C743 0.958 . S
H758 C743 0.961 . S
H759 C743 0.960 . S
C760 C761 1.391 . S
C760 C762 1.394 . S
C760 H776 0.931 . S
C761 C760 1.391 . S
C761 C765 1.376 . S
C762 C760 1.394 . S
C762 C763 1.369 . S
C762 C766 1.531 . S
C763 C762 1.369 . S
C763 C764 1.410 . S
C763 C771 1.503 . S
C764 C763 1.410 . S
C764 C765 1.392 . S
C764 C767 1.511 . S
C765 C761 1.376 . S
C765 C764 1.392 . S
C765 H777 0.929 . S
C766 C762 1.531 . S
C766 H778 0.960 . S
C766 H779 0.962 . S
C766 H780 0.960 . S
C767 C764 1.511 . S
C767 H781 0.961 . S
C767 H782 0.961 . S
C767 H783 0.961 . S
C768 C769 1.370 . S
C768 C770 1.363 . S
C768 H784 0.931 . S
C769 C768 1.370 . S
C769 C773 1.408 . S
C770 C768 1.363 . S
C770 C771 1.370 . S
C770 C774 1.524 . S
C771 C763 1.503 . S
C771 C770 1.370 . S
C771 C772 1.403 . S
C772 C771 1.403 . S
C772 C773 1.404 . S
C772 C775 1.539 . S
C773 C769 1.408 . S
C773 C772 1.404 . S
C773 H785 0.923 1_556 S
C774 C770 1.524 . S
C774 H786 0.956 . S
C774 H787 0.961 . S
C774 H788 0.961 . S
C775 C772 1.539 . S
C775 H789 0.958 . S
C775 H790 0.961 . S
C775 H791 0.960 . S
H776 C760 0.931 . S
H777 C765 0.929 . S
H778 C766 0.960 . S
H779 C766 0.962 . S
H780 C766 0.960 . S
H781 C767 0.961 . S
H782 C767 0.961 . S
H783 C767 0.961 . S
H784 C768 0.931 . S
H785 C773 0.923 1_554 S
H786 C774 0.956 . S
H787 C774 0.961 . S
H788 C774 0.961 . S
H789 C775 0.958 . S
H790 C775 0.961 . S
H791 C775 0.960 . S
C792 C793 1.391 . S
C792 C794 1.394 . S
C792 H808 0.931 . S
C793 C792 1.391 . S
C793 C797 1.376 . S
C794 C792 1.394 . S
C794 C795 1.369 . S
C794 C798 1.531 . S
C795 C794 1.369 . S
C795 C796 1.410 . S
C795 C803 1.503 . S
C796 C795 1.410 . S
C796 C797 1.392 . S
C796 C799 1.511 . S
C797 C793 1.376 . S
C797 C796 1.392 . S
C797 H809 0.929 . S
C798 C794 1.531 . S
C798 H810 0.960 . S
C798 H811 0.962 . S
C798 H812 0.960 . S
C799 C796 1.511 . S
C799 H813 0.961 . S
C799 H814 0.961 . S
C799 H815 0.961 . S
C800 C801 1.370 . S
C800 C802 1.363 . S
C800 H816 0.931 . S
C801 C800 1.370 . S
C801 C805 1.408 . S
C802 C800 1.363 . S
C802 C803 1.370 . S
C802 C806 1.524 . S
C803 C795 1.503 . S
C803 C802 1.370 . S
C803 C804 1.403 . S
C804 C803 1.403 . S
C804 C805 1.404 . S
C804 C807 1.539 . S
C805 C801 1.408 . S
C805 C804 1.404 . S
C805 H817 0.930 . S
C806 C802 1.524 . S
C806 H818 0.956 . S
C806 H819 0.961 . S
C806 H820 0.961 . S
C807 C804 1.539 . S
C807 H821 0.958 . S
C807 H822 0.961 . S
C807 H823 0.960 . S
H808 C792 0.931 . S
H809 C797 0.929 . S
H810 C798 0.960 . S
H811 C798 0.962 . S
H812 C798 0.960 . S
H813 C799 0.961 . S
H814 C799 0.961 . S
H815 C799 0.961 . S
H816 C800 0.931 . S
H817 C805 0.930 . S
H818 C806 0.956 . S
H819 C806 0.961 . S
H820 C806 0.961 . S
H821 C807 0.958 . S
H822 C807 0.961 . S
H823 C807 0.960 . S
C824 C825 1.391 . S
C824 C826 1.394 . S
C824 H840 0.931 . S
C825 C824 1.391 . S
C825 C829 1.376 . S
C826 C824 1.394 . S
C826 C827 1.369 . S
C826 C830 1.531 . S
C827 C826 1.369 . S
C827 C828 1.410 . S
C827 C835 1.503 . S
C828 C827 1.410 . S
C828 C829 1.392 . S
C828 C831 1.511 . S
C829 C825 1.376 . S
C829 C828 1.392 . S
C829 H841 0.929 . S
C830 C826 1.531 . S
C830 H842 0.960 . S
C830 H843 0.962 . S
C830 H844 0.960 . S
C831 C828 1.511 . S
C831 H845 0.961 . S
C831 H846 0.961 . S
C831 H847 0.961 . S
C832 C833 1.370 . S
C832 C834 1.363 . S
C832 H848 0.931 . S
C833 C832 1.370 . S
C833 C837 1.408 . S
C834 C832 1.363 . S
C834 C835 1.370 . S
C834 C838 1.524 . S
C835 C827 1.503 . S
C835 C834 1.370 . S
C835 C836 1.403 . S
C836 C835 1.403 . S
C836 C837 1.404 . S
C836 C839 1.539 . S
C837 C833 1.408 . S
C837 C836 1.404 . S
C837 H849 0.930 . S
C838 C834 1.524 . S
C838 H850 0.956 . S
C838 H851 0.961 . S
C838 H852 0.961 . S
C839 C836 1.539 . S
C839 H853 0.958 . S
C839 H854 0.961 . S
C839 H855 0.960 . S
H840 C824 0.931 . S
H841 C829 0.929 . S
H842 C830 0.960 . S
H843 C830 0.962 . S
H844 C830 0.960 . S
H845 C831 0.961 . S
H846 C831 0.961 . S
H847 C831 0.961 . S
H848 C832 0.931 . S
H849 C837 0.930 . S
H850 C838 0.956 . S
H851 C838 0.961 . S
H852 C838 0.961 . S
H853 C839 0.958 . S
H854 C839 0.961 . S
H855 C839 0.960 . S
C856 C857 1.391 . S
C856 C858 1.394 . S
C856 H872 0.931 . S
C857 C856 1.391 . S
C857 C861 1.376 . S
C858 C856 1.394 . S
C858 C859 1.369 . S
C858 C862 1.531 . S
C859 C858 1.369 . S
C859 C860 1.410 . S
C859 C867 1.503 . S
C860 C859 1.410 . S
C860 C861 1.392 . S
C860 C863 1.511 . S
C861 C857 1.376 . S
C861 C860 1.392 . S
C861 H873 0.929 . S
C862 C858 1.531 . S
C862 H874 0.960 . S
C862 H875 0.962 . S
C862 H876 0.960 . S
C863 C860 1.511 . S
C863 H877 0.961 . S
C863 H878 0.961 . S
C863 H879 0.961 . S
C864 C865 1.370 . S
C864 C866 1.363 . S
C864 H880 0.931 . S
C865 C864 1.370 . S
C865 C869 1.408 . S
C866 C864 1.363 . S
C866 C867 1.370 . S
C866 C870 1.524 . S
C867 C859 1.503 . S
C867 C866 1.370 . S
C867 C868 1.403 . S
C868 C867 1.403 . S
C868 C869 1.404 . S
C868 C871 1.539 . S
C869 C865 1.408 . S
C869 C868 1.404 . S
C869 H881 0.930 . S
C870 C866 1.524 . S
C870 H882 0.956 . S
C870 H883 0.961 . S
C870 H884 0.961 . S
C871 C868 1.539 . S
C871 H885 0.958 . S
C871 H886 0.961 . S
C871 H887 0.960 . S
H872 C856 0.931 . S
H873 C861 0.929 . S
H874 C862 0.960 . S
H875 C862 0.962 . S
H876 C862 0.960 . S
H877 C863 0.961 . S
H878 C863 0.961 . S
H879 C863 0.961 . S
H880 C864 0.931 . S
H881 C869 0.930 . S
H882 C870 0.956 . S
H883 C870 0.961 . S
H884 C870 0.961 . S
H885 C871 0.958 . S
H886 C871 0.961 . S
H887 C871 0.960 . S
C888 C889 1.391 . S
C888 C890 1.394 . S
C888 H904 0.931 . S
C889 C888 1.391 . S
C889 C893 1.376 . S
C890 C888 1.394 . S
C890 C891 1.369 . S
C890 C894 1.531 . S
C891 C890 1.369 . S
C891 C892 1.410 . S
C891 C899 1.503 . S
C892 C891 1.410 . S
C892 C893 1.392 . S
C892 C895 1.511 . S
C893 C889 1.376 . S
C893 C892 1.392 . S
C893 H905 0.929 . S
C894 C890 1.531 . S
C894 H906 0.960 . S
C894 H907 0.962 . S
C894 H908 0.960 . S
C895 C892 1.511 . S
C895 H909 0.961 . S
C895 H910 0.961 . S
C895 H911 0.961 . S
C896 C897 1.370 . S
C896 C898 1.363 . S
C896 H912 0.931 . S
C897 C896 1.370 . S
C897 C901 1.408 . S
C898 C896 1.363 . S
C898 C899 1.370 . S
C898 C902 1.524 . S
C899 C891 1.503 . S
C899 C898 1.370 . S
C899 C900 1.403 . S
C900 C899 1.403 . S
C900 C901 1.404 . S
C900 C903 1.539 . S
C901 C897 1.408 . S
C901 C900 1.404 . S
C901 H913 0.930 . S
C902 C898 1.524 . S
C902 H914 0.956 . S
C902 H915 0.961 . S
C902 H916 0.961 . S
C903 C900 1.539 . S
C903 H917 0.958 . S
C903 H918 0.961 . S
C903 H919 0.960 . S
H904 C888 0.931 . S
H905 C893 0.929 . S
H906 C894 0.960 . S
H907 C894 0.962 . S
H908 C894 0.960 . S
H909 C895 0.961 . S
H910 C895 0.961 . S
H911 C895 0.961 . S
H912 C896 0.931 . S
H913 C901 0.930 . S
H914 C902 0.956 . S
H915 C902 0.961 . S
H916 C902 0.961 . S
H917 C903 0.958 . S
H918 C903 0.961 . S
H919 C903 0.960 . S
C920 C921 1.391 . S
C920 C922 1.394 . S
C920 H936 0.931 . S
C921 C920 1.391 . S
C921 C925 1.376 . S
C922 C920 1.394 . S
C922 C923 1.369 . S
C922 C926 1.531 . S
C923 C922 1.369 . S
C923 C924 1.410 . S
C923 C931 1.503 . S
C924 C923 1.410 . S
C924 C925 1.392 . S
C924 C927 1.511 . S
C925 C921 1.376 . S
C925 C924 1.392 . S
C925 H937 0.929 . S
C926 C922 1.531 . S
C926 H938 0.960 . S
C926 H939 0.962 . S
C926 H940 0.960 . S
C927 C924 1.511 . S
C927 H941 0.961 . S
C927 H942 0.961 . S
C927 H943 0.961 . S
C928 C929 1.370 . S
C928 C930 1.363 . S
C928 H944 0.931 . S
C929 C928 1.370 . S
C929 C933 1.408 . S
C930 C928 1.363 . S
C930 C931 1.370 . S
C930 C934 1.524 . S
C931 C923 1.503 . S
C931 C930 1.370 . S
C931 C932 1.403 . S
C932 C931 1.403 . S
C932 C933 1.404 . S
C932 C935 1.539 . S
C933 C929 1.408 . S
C933 C932 1.404 . S
C933 H945 0.917 1_554 S
C934 C930 1.524 . S
C934 H946 0.956 . S
C934 H947 0.961 . S
C934 H948 0.961 . S
C935 C932 1.539 . S
C935 H949 0.958 . S
C935 H950 0.961 . S
C935 H951 0.960 . S
H936 C920 0.931 . S
H937 C925 0.929 . S
H938 C926 0.960 . S
H939 C926 0.962 . S
H940 C926 0.960 . S
H941 C927 0.961 . S
H942 C927 0.961 . S
H943 C927 0.961 . S
H944 C928 0.931 . S
H945 C933 0.917 1_556 S
H946 C934 0.956 . S
H947 C934 0.961 . S
H948 C934 0.961 . S
H949 C935 0.958 . S
H950 C935 0.961 . S
H951 C935 0.960 . S
C952 C953 1.391 . S
C952 C954 1.394 . S
C952 H968 0.931 . S
C953 C952 1.391 . S
C953 C957 1.376 . S
C954 C952 1.394 . S
C954 C955 1.369 . S
C954 C958 1.531 . S
C955 C954 1.369 . S
C955 C956 1.410 . S
C955 C963 1.503 . S
C956 C955 1.410 . S
C956 C957 1.392 . S
C956 C959 1.511 . S
C957 C953 1.376 . S
C957 C956 1.392 . S
C957 H969 0.929 . S
C958 C954 1.531 . S
C958 H970 0.960 . S
C958 H971 0.962 . S
C958 H972 0.960 . S
C959 C956 1.511 . S
C959 H973 0.961 . S
C959 H974 0.961 . S
C959 H975 0.961 . S
C960 C961 1.370 . S
C960 C962 1.363 . S
C960 H976 0.931 . S
C961 C960 1.370 . S
C961 C965 1.408 . S
C962 C960 1.363 . S
C962 C963 1.370 . S
C962 C966 1.524 . S
C963 C955 1.503 . S
C963 C962 1.370 . S
C963 C964 1.403 . S
C964 C963 1.403 . S
C964 C965 1.404 . S
C964 C967 1.539 . S
C965 C961 1.408 . S
C965 C964 1.404 . S
C965 H977 0.930 . S
C966 C962 1.524 . S
C966 H978 0.956 . S
C966 H979 0.961 . S
C966 H980 0.961 . S
C967 C964 1.539 . S
C967 H981 0.958 . S
C967 H982 0.961 . S
C967 H983 0.960 . S
H968 C952 0.931 . S
H969 C957 0.929 . S
H970 C958 0.960 . S
H971 C958 0.962 . S
H972 C958 0.960 . S
H973 C959 0.961 . S
H974 C959 0.961 . S
H975 C959 0.961 . S
H976 C960 0.931 . S
H977 C965 0.930 . S
H978 C966 0.956 . S
H979 C966 0.961 . S
H980 C966 0.961 . S
H981 C967 0.958 . S
H982 C967 0.961 . S
H983 C967 0.960 . S
C984 C985 1.391 . S
C984 C986 1.394 . S
C984 H1000 0.931 . S
C985 C984 1.391 . S
C985 C989 1.376 . S
C986 C984 1.394 . S
C986 C987 1.369 . S
C986 C990 1.531 . S
C987 C986 1.369 . S
C987 C988 1.410 . S
C987 C995 1.503 . S
C988 C987 1.410 . S
C988 C989 1.392 . S
C988 C991 1.511 . S
C989 C985 1.376 . S
C989 C988 1.392 . S
C989 H1001 0.929 . S
C990 C986 1.531 . S
C990 H1002 0.960 . S
C990 H1003 0.962 . S
C990 H1004 0.960 . S
C991 C988 1.511 . S
C991 H1005 0.961 . S
C991 H1006 0.961 . S
C991 H1007 0.961 . S
C992 C993 1.370 . S
C992 C994 1.363 . S
C992 H1008 0.931 . S
C993 C992 1.370 . S
C993 C997 1.408 . S
C994 C992 1.363 . S
C994 C995 1.370 . S
C994 C998 1.524 . S
C995 C987 1.503 . S
C995 C994 1.370 . S
C995 C996 1.403 . S
C996 C995 1.403 . S
C996 C997 1.404 . S
C996 C999 1.539 . S
C997 C993 1.408 . S
C997 C996 1.404 . S
C997 H1009 0.930 . S
C998 C994 1.524 . S
C998 H1010 0.956 . S
C998 H1011 0.961 . S
C998 H1012 0.961 . S
C999 C996 1.539 . S
C999 H1013 0.958 . S
C999 H1014 0.961 . S
C999 H1015 0.960 . S
H1000 C984 0.931 . S
H1001 C989 0.929 . S
H1002 C990 0.960 . S
H1003 C990 0.962 . S
H1004 C990 0.960 . S
H1005 C991 0.961 . S
H1006 C991 0.961 . S
H1007 C991 0.961 . S
H1008 C992 0.931 . S
H1009 C997 0.930 . S
H1010 C998 0.956 . S
H1011 C998 0.961 . S
H1012 C998 0.961 . S
H1013 C999 0.958 . S
H1014 C999 0.961 . S
H1015 C999 0.960 . S
C1016 C1017 1.391 . S
C1016 C1018 1.394 . S
C1016 H1032 0.931 . S
C1017 C1016 1.391 . S
C1017 C1021 1.376 . S
C1018 C1016 1.394 . S
C1018 C1019 1.369 . S
C1018 C1022 1.531 . S
C1019 C1018 1.369 . S
C1019 C1020 1.410 . S
C1019 C1027 1.503 . S
C1020 C1019 1.410 . S
C1020 C1021 1.392 . S
C1020 C1023 1.511 . S
C1021 C1017 1.376 . S
C1021 C1020 1.392 . S
C1021 H1033 0.929 . S
C1022 C1018 1.531 . S
C1022 H1034 0.960 . S
C1022 H1035 0.962 . S
C1022 H1036 0.960 . S
C1023 C1020 1.511 . S
C1023 H1037 0.961 . S
C1023 H1038 0.961 . S
C1023 H1039 0.961 . S
C1024 C1025 1.370 . S
C1024 C1026 1.363 . S
C1024 H1040 0.931 . S
C1025 C1024 1.370 . S
C1025 C1029 1.408 . S
C1026 C1024 1.363 . S
C1026 C1027 1.370 . S
C1026 C1030 1.524 . S
C1027 C1019 1.503 . S
C1027 C1026 1.370 . S
C1027 C1028 1.403 . S
C1028 C1027 1.403 . S
C1028 C1029 1.404 . S
C1028 C1031 1.539 . S
C1029 C1025 1.408 . S
C1029 C1028 1.404 . S
C1029 H1041 0.930 . S
C1030 C1026 1.524 . S
C1030 H1042 0.956 . S
C1030 H1043 0.961 . S
C1030 H1044 0.961 . S
C1031 C1028 1.539 . S
C1031 H1045 0.958 . S
C1031 H1046 0.961 . S
C1031 H1047 0.960 . S
H1032 C1016 0.931 . S
H1033 C1021 0.929 . S
H1034 C1022 0.960 . S
H1035 C1022 0.962 . S
H1036 C1022 0.960 . S
H1037 C1023 0.961 . S
H1038 C1023 0.961 . S
H1039 C1023 0.961 . S
H1040 C1024 0.931 . S
H1041 C1029 0.930 . S
H1042 C1030 0.956 . S
H1043 C1030 0.961 . S
H1044 C1030 0.961 . S
H1045 C1031 0.958 . S
H1046 C1031 0.961 . S
H1047 C1031 0.960 . S
C1048 C1049 1.391 . S
C1048 C1050 1.394 . S
C1048 H1064 0.931 . S
C1049 C1048 1.391 . S
C1049 C1053 1.376 . S
C1050 C1048 1.394 . S
C1050 C1051 1.369 . S
C1050 C1054 1.531 . S
C1051 C1050 1.369 . S
C1051 C1052 1.410 . S
C1051 C1059 1.503 . S
C1052 C1051 1.410 . S
C1052 C1053 1.392 . S
C1052 C1055 1.511 . S
C1053 C1049 1.376 . S
C1053 C1052 1.392 . S
C1053 H1065 0.929 . S
C1054 C1050 1.531 . S
C1054 H1066 0.960 . S
C1054 H1067 0.962 . S
C1054 H1068 0.960 . S
C1055 C1052 1.511 . S
C1055 H1069 0.961 . S
C1055 H1070 0.961 . S
C1055 H1071 0.961 . S
C1056 C1057 1.370 . S
C1056 C1058 1.363 . S
C1056 H1072 0.931 . S
C1057 C1056 1.370 . S
C1057 C1061 1.408 . S
C1058 C1056 1.363 . S
C1058 C1059 1.370 . S
C1058 C1062 1.524 . S
C1059 C1051 1.503 . S
C1059 C1058 1.370 . S
C1059 C1060 1.403 . S
C1060 C1059 1.403 . S
C1060 C1061 1.404 . S
C1060 C1063 1.539 . S
C1061 C1057 1.408 . S
C1061 C1060 1.404 . S
C1061 H1073 0.930 . S
C1062 C1058 1.524 . S
C1062 H1074 0.956 . S
C1062 H1075 0.961 . S
C1062 H1076 0.961 . S
C1063 C1060 1.539 . S
C1063 H1077 0.958 . S
C1063 H1078 0.961 . S
C1063 H1079 0.960 . S
H1064 C1048 0.931 . S
H1065 C1053 0.929 . S
H1066 C1054 0.960 . S
H1067 C1054 0.962 . S
H1068 C1054 0.960 . S
H1069 C1055 0.961 . S
H1070 C1055 0.961 . S
H1071 C1055 0.961 . S
H1072 C1056 0.931 . S
H1073 C1061 0.930 . S
H1074 C1062 0.956 . S
H1075 C1062 0.961 . S
H1076 C1062 0.961 . S
H1077 C1063 0.958 . S
H1078 C1063 0.961 . S
H1079 C1063 0.960 . S
C1080 C1081 1.391 . S
C1080 C1082 1.430 . S
C1080 H1096 0.931 . S
C1081 C1080 1.391 . S
C1081 C1085 1.376 . S
C1082 C1080 1.430 . S
C1082 C1083 1.357 . S
C1082 C1086 1.509 1_565 S
C1083 C1082 1.357 . S
C1083 C1084 1.410 . S
C1083 C1091 1.503 1_566 S
C1084 C1083 1.410 . S
C1084 C1085 1.392 . S
C1084 C1087 1.511 1_556 S
C1085 C1081 1.376 . S
C1085 C1084 1.392 . S
C1085 H1097 0.929 . S
C1086 C1082 1.509 1_545 S
C1086 H1098 0.960 . S
C1086 H1099 0.962 . S
C1086 H1100 0.960 . S
C1087 C1084 1.511 1_554 S
C1087 H1101 0.961 . S
C1087 H1102 0.961 . S
C1087 H1103 0.961 . S
C1088 C1089 1.370 . S
C1088 C1090 1.363 . S
C1088 H1104 0.931 . S
C1089 C1088 1.370 . S
C1089 C1093 1.408 . S
C1090 C1088 1.363 . S
C1090 C1091 1.370 . S
C1090 C1094 1.524 1_545 S
C1091 C1083 1.503 1_544 S
C1091 C1090 1.370 . S
C1091 C1092 1.403 . S
C1092 C1091 1.403 . S
C1092 C1093 1.404 . S
C1092 C1095 1.539 1_554 S
C1093 C1089 1.408 . S
C1093 C1092 1.404 . S
C1093 H1105 0.930 . S
C1094 C1090 1.524 1_565 S
C1094 H1106 0.956 . S
C1094 H1107 0.961 . S
C1094 H1108 0.961 . S
C1095 C1092 1.539 1_556 S
C1095 H1109 0.958 . S
C1095 H1110 0.961 . S
C1095 H1111 0.960 . S
H1096 C1080 0.931 . S
H1097 C1085 0.929 . S
H1098 C1086 0.960 . S
H1099 C1086 0.962 . S
H1100 C1086 0.960 . S
H1101 C1087 0.961 . S
H1102 C1087 0.961 . S
H1103 C1087 0.961 . S
H1104 C1088 0.931 . S
H1105 C1093 0.930 . S
H1106 C1094 0.956 . S
H1107 C1094 0.961 . S
H1108 C1094 0.961 . S
H1109 C1095 0.958 . S
H1110 C1095 0.961 . S
H1111 C1095 0.960 . S
C1112 C1113 1.391 . S
C1112 C1114 1.394 . S
C1112 H1128 0.931 . S
C1113 C1112 1.391 . S
C1113 C1117 1.376 . S
C1114 C1112 1.394 . S
C1114 C1115 1.369 . S
C1114 C1118 1.531 . S
C1115 C1114 1.369 . S
C1115 C1116 1.410 . S
C1115 C1123 1.503 1_654 S
C1116 C1115 1.410 . S
C1116 C1117 1.392 . S
C1116 C1119 1.511 1_655 S
C1117 C1113 1.376 . S
C1117 C1116 1.392 . S
C1117 H1129 0.929 . S
C1118 C1114 1.531 . S
C1118 H1130 0.960 1_655 S
C1118 H1131 0.962 1_554 S
C1118 H1132 0.960 . S
C1119 C1116 1.511 1_455 S
C1119 H1133 0.961 1_455 S
C1119 H1134 0.961 . S
C1119 H1135 0.961 . S
C1120 C1121 1.370 . S
C1120 C1122 1.374 . S
C1120 H1136 0.931 . S
C1121 C1120 1.370 . S
C1121 C1125 1.408 . S
C1122 C1120 1.374 . S
C1122 C1123 1.377 . S
C1122 C1126 1.507 1_455 S
C1123 C1115 1.503 1_456 S
C1123 C1122 1.377 . S
C1123 C1124 1.403 . S
C1124 C1123 1.403 . S
C1124 C1125 1.404 . S
C1124 C1127 1.539 1_556 S
C1125 C1121 1.408 . S
C1125 C1124 1.404 . S
C1125 H1137 0.930 . S
C1126 C1122 1.507 1_655 S
C1126 H1138 0.956 . S
C1126 H1139 0.961 . S
C1126 H1140 0.961 . S
C1127 C1124 1.539 1_554 S
C1127 H1141 0.958 . S
C1127 H1142 0.961 . S
C1127 H1143 0.960 . S
H1128 C1112 0.931 . S
H1129 C1117 0.929 . S
H1130 C1118 0.960 1_455 S
H1131 C1118 0.962 1_556 S
H1132 C1118 0.960 . S
H1133 C1119 0.961 1_655 S
H1134 C1119 0.961 . S
H1135 C1119 0.961 . S
H1136 C1120 0.931 . S
H1137 C1125 0.930 . S
H1138 C1126 0.956 . S
H1139 C1126 0.961 . S
H1140 C1126 0.961 . S
H1141 C1127 0.958 . S
H1142 C1127 0.961 . S
H1143 C1127 0.960 . S
C1144 C1145 1.391 . S
C1144 C1146 1.394 . S
C1144 H1160 0.931 . S
C1145 C1144 1.391 . S
C1145 C1149 1.376 . S
C1146 C1144 1.394 . S
C1146 C1147 1.369 . S
C1146 C1150 1.531 . S
C1147 C1146 1.369 . S
C1147 C1148 1.410 . S
C1147 C1155 1.503 1_556 S
C1148 C1147 1.410 . S
C1148 C1149 1.392 . S
C1148 C1151 1.511 . S
C1149 C1145 1.376 . S
C1149 C1148 1.392 . S
C1149 H1161 0.929 . S
C1150 C1146 1.531 . S
C1150 H1162 0.960 1_556 S
C1150 H1163 0.962 . S
C1150 H1164 0.960 . S
C1151 C1148 1.511 . S
C1151 H1165 0.961 . S
C1151 H1166 0.961 1_556 S
C1151 H1167 0.961 1_556 S
C1152 C1153 1.370 . S
C1152 C1154 1.363 . S
C1152 H1168 0.931 . S
C1153 C1152 1.370 . S
C1153 C1157 1.408 . S
C1154 C1152 1.363 . S
C1154 C1155 1.370 . S
C1154 C1158 1.524 1_554 S
C1155 C1147 1.503 1_554 S
C1155 C1154 1.370 . S
C1155 C1156 1.403 . S
C1156 C1155 1.403 . S
C1156 C1157 1.404 . S
C1156 C1159 1.539 . S
C1157 C1153 1.408 . S
C1157 C1156 1.404 . S
C1157 H1169 0.930 . S
C1158 C1154 1.524 1_556 S
C1158 H1170 0.956 . S
C1158 H1171 0.961 . S
C1158 H1172 0.961 . S
C1159 C1156 1.539 . S
C1159 H1173 0.958 . S
C1159 H1174 0.961 . S
C1159 H1175 0.960 . S
H1160 C1144 0.931 . S
H1161 C1149 0.929 . S
H1162 C1150 0.960 1_554 S
H1163 C1150 0.962 . S
H1164 C1150 0.960 . S
H1165 C1151 0.961 . S
H1166 C1151 0.961 1_554 S
H1167 C1151 0.961 1_554 S
H1168 C1152 0.931 . S
H1169 C1157 0.930 . S
H1170 C1158 0.956 . S
H1171 C1158 0.961 . S
H1172 C1158 0.961 . S
H1173 C1159 0.958 . S
H1174 C1159 0.961 . S
H1175 C1159 0.960 . S
C1176 C1177 1.391 . S
C1176 C1178 1.394 . S
C1176 H1192 0.931 . S
C1177 C1176 1.391 . S
C1177 C1181 1.376 . S
C1178 C1176 1.394 . S
C1178 C1179 1.369 . S
C1178 C1182 1.531 1_556 S
C1179 C1178 1.369 . S
C1179 C1180 1.410 1_565 S
C1179 C1187 1.503 1_566 S
C1180 C1179 1.410 1_545 S
C1180 C1181 1.392 1_545 S
C1180 C1183 1.511 . S
C1181 C1177 1.376 . S
C1181 C1180 1.392 1_565 S
C1181 H1193 0.929 . S
C1182 C1178 1.531 1_554 S
C1182 H1194 0.960 . S
C1182 H1195 0.962 . S
C1182 H1196 0.960 . S
C1183 C1180 1.511 . S
C1183 H1197 0.961 . S
C1183 H1198 0.961 . S
C1183 H1199 0.961 . S
C1184 C1185 1.370 . S
C1184 C1186 1.363 . S
C1184 H1200 0.931 . S
C1185 C1184 1.370 . S
C1185 C1189 1.408 . S
C1186 C1184 1.363 . S
C1186 C1187 1.370 . S
C1186 C1190 1.524 . S
C1187 C1179 1.503 1_544 S
C1187 C1186 1.370 . S
C1187 C1188 1.403 . S
C1188 C1187 1.403 . S
C1188 C1189 1.404 . S
C1188 C1191 1.539 . S
C1189 C1185 1.408 . S
C1189 C1188 1.404 . S
C1189 H1201 0.930 . S
C1190 C1186 1.524 . S
C1190 H1202 0.956 1_545 S
C1190 H1203 0.961 1_554 S
C1190 H1204 0.961 . S
C1191 C1188 1.539 . S
C1191 H1205 0.893 1_545 S
C1191 H1206 0.961 . S
C1191 H1207 0.960 1_554 S
H1192 C1176 0.931 . S
H1193 C1181 0.929 . S
H1194 C1182 0.960 . S
H1195 C1182 0.962 . S
H1196 C1182 0.960 . S
H1197 C1183 0.961 . S
H1198 C1183 0.961 . S
H1199 C1183 0.961 . S
H1200 C1184 0.931 . S
H1201 C1189 0.930 . S
H1202 C1190 0.956 1_565 S
H1203 C1190 0.961 1_556 S
H1204 C1190 0.961 . S
H1205 C1191 0.893 1_565 S
H1206 C1191 0.961 . S
H1207 C1191 0.960 1_556 S
C1208 C1209 1.391 . S
C1208 C1210 1.352 1_455 S
C1208 H1224 0.931 . S
C1209 C1208 1.391 . S
C1209 C1213 1.376 . S
C1210 C1208 1.352 1_655 S
C1210 C1211 1.341 1_655 S
C1210 C1214 1.608 . S
C1211 C1210 1.341 1_455 S
C1211 C1212 1.410 . S
C1211 C1219 1.503 1_456 S
C1212 C1211 1.410 . S
C1212 C1213 1.392 . S
C1212 C1215 1.511 1_556 S
C1213 C1209 1.376 . S
C1213 C1212 1.392 . S
C1213 H1225 0.929 . S
C1214 C1210 1.608 . S
C1214 H1226 0.960 . S
C1214 H1227 0.962 . S
C1214 H1228 0.960 . S
C1215 C1212 1.511 1_554 S
C1215 H1229 0.961 . S
C1215 H1230 0.961 . S
C1215 H1231 0.961 . S
C1216 C1217 1.370 . S
C1216 C1218 1.363 . S
C1216 H1232 0.931 . S
C1217 C1216 1.370 . S
C1217 C1221 1.408 . S
C1218 C1216 1.363 . S
C1218 C1219 1.370 . S
C1218 C1222 1.524 . S
C1219 C1211 1.503 1_654 S
C1219 C1218 1.370 . S
C1219 C1220 1.403 . S
C1220 C1219 1.403 . S
C1220 C1221 1.404 . S
C1220 C1223 1.539 . S
C1221 C1217 1.408 . S
C1221 C1220 1.404 . S
C1221 H1233 0.930 . S
C1222 C1218 1.524 . S
C1222 H1234 0.956 1_554 S
C1222 H1235 0.961 1_655 S
C1222 H1236 0.961 . S
C1223 C1220 1.539 . S
C1223 H1237 0.958 . S
C1223 H1238 0.961 . S
C1223 H1239 0.960 1_655 S
H1224 C1208 0.931 . S
H1225 C1213 0.929 . S
H1226 C1214 0.960 . S
H1227 C1214 0.962 . S
H1228 C1214 0.960 . S
H1229 C1215 0.961 . S
H1230 C1215 0.961 . S
H1231 C1215 0.961 . S
H1232 C1216 0.931 . S
H1233 C1221 0.930 . S
H1234 C1222 0.956 1_556 S
H1235 C1222 0.961 1_455 S
H1236 C1222 0.961 . S
H1237 C1223 0.958 . S
H1238 C1223 0.961 . S
H1239 C1223 0.960 1_455 S
C1240 C1241 1.391 . S
C1240 C1242 1.394 . S
C1240 H1256 0.931 . S
C1241 C1240 1.391 . S
C1241 C1245 1.376 . S
C1242 C1240 1.394 . S
C1242 C1243 1.369 . S
C1242 C1246 1.531 . S
C1243 C1242 1.369 . S
C1243 C1244 1.410 . S
C1243 C1251 1.503 1_554 S
C1244 C1243 1.410 . S
C1244 C1245 1.392 . S
C1244 C1247 1.511 1_554 S
C1245 C1241 1.376 . S
C1245 C1244 1.392 . S
C1245 H1257 0.929 . S
C1246 C1242 1.531 . S
C1246 H1258 0.960 . S
C1246 H1259 0.962 . S
C1246 H1260 0.960 . S
C1247 C1244 1.511 1_556 S
C1247 H1261 0.961 . S
C1247 H1262 0.961 . S
C1247 H1263 0.961 . S
C1248 C1249 1.370 . S
C1248 C1250 1.363 . S
C1248 H1264 0.931 . S
C1249 C1248 1.370 . S
C1249 C1253 1.408 . S
C1250 C1248 1.363 . S
C1250 C1251 1.370 . S
C1250 C1254 1.524 . S
C1251 C1243 1.503 1_556 S
C1251 C1250 1.370 . S
C1251 C1252 1.403 . S
C1252 C1251 1.403 . S
C1252 C1253 1.404 . S
C1252 C1255 1.539 . S
C1253 C1249 1.408 . S
C1253 C1252 1.404 . S
C1253 H1265 0.930 . S
C1254 C1250 1.524 . S
C1254 H1266 0.956 . S
C1254 H1267 0.961 . S
C1254 H1268 0.961 . S
C1255 C1252 1.539 . S
C1255 H1269 0.958 1_556 S
C1255 H1270 0.961 . S
C1255 H1271 0.960 1_556 S
H1256 C1240 0.931 . S
H1257 C1245 0.929 . S
H1258 C1246 0.960 . S
H1259 C1246 0.962 . S
H1260 C1246 0.960 . S
H1261 C1247 0.961 . S
H1262 C1247 0.961 . S
H1263 C1247 0.961 . S
H1264 C1248 0.931 . S
H1265 C1253 0.930 . S
H1266 C1254 0.956 . S
H1267 C1254 0.961 . S
H1268 C1254 0.961 . S
H1269 C1255 0.958 1_554 S
H1270 C1255 0.961 . S
H1271 C1255 0.960 1_554 S
C1272 C1273 1.391 . S
C1272 C1274 1.394 . S
C1272 H1288 0.931 . S
C1273 C1272 1.391 . S
C1273 C1277 1.376 . S
C1274 C1272 1.394 . S
C1274 C1275 1.369 . S
C1274 C1278 1.531 . S
C1275 C1274 1.369 . S
C1275 C1276 1.410 . S
C1275 C1283 1.503 . S
C1276 C1275 1.410 . S
C1276 C1277 1.392 . S
C1276 C1279 1.511 . S
C1277 C1273 1.376 . S
C1277 C1276 1.392 . S
C1277 H1289 0.929 . S
C1278 C1274 1.531 . S
C1278 H1290 0.960 . S
C1278 H1291 0.962 . S
C1278 H1292 0.960 . S
C1279 C1276 1.511 . S
C1279 H1293 0.961 . S
C1279 H1294 0.961 . S
C1279 H1295 0.961 . S
C1280 C1281 1.370 . S
C1280 C1282 1.363 . S
C1280 H1296 0.931 . S
C1281 C1280 1.370 . S
C1281 C1285 1.408 . S
C1282 C1280 1.363 . S
C1282 C1283 1.370 . S
C1282 C1286 1.524 . S
C1283 C1275 1.503 . S
C1283 C1282 1.370 . S
C1283 C1284 1.403 . S
C1284 C1283 1.403 . S
C1284 C1285 1.404 . S
C1284 C1287 1.539 . S
C1285 C1281 1.408 . S
C1285 C1284 1.404 . S
C1285 H1297 0.930 . S
C1286 C1282 1.524 . S
C1286 H1298 0.956 . S
C1286 H1299 0.961 . S
C1286 H1300 0.961 . S
C1287 C1284 1.539 . S
C1287 H1301 0.958 . S
C1287 H1302 0.961 . S
C1287 H1303 0.960 . S
H1288 C1272 0.931 . S
H1289 C1277 0.929 . S
H1290 C1278 0.960 . S
H1291 C1278 0.962 . S
H1292 C1278 0.960 . S
H1293 C1279 0.961 . S
H1294 C1279 0.961 . S
H1295 C1279 0.961 . S
H1296 C1280 0.931 . S
H1297 C1285 0.930 . S
H1298 C1286 0.956 . S
H1299 C1286 0.961 . S
H1300 C1286 0.961 . S
H1301 C1287 0.958 . S
H1302 C1287 0.961 . S
H1303 C1287 0.960 . S
C1304 C1305 1.391 . S
C1304 C1306 1.394 . S
C1304 H1320 0.931 . S
C1305 C1304 1.391 . S
C1305 C1309 1.376 . S
C1306 C1304 1.394 . S
C1306 C1307 1.369 . S
C1306 C1310 1.531 . S
C1307 C1306 1.369 . S
C1307 C1308 1.410 . S
C1307 C1315 1.503 . S
C1308 C1307 1.410 . S
C1308 C1309 1.392 . S
C1308 C1311 1.511 . S
C1309 C1305 1.376 . S
C1309 C1308 1.392 . S
C1309 H1321 0.929 . S
C1310 C1306 1.531 . S
C1310 H1322 0.960 . S
C1310 H1323 0.962 . S
C1310 H1324 0.960 . S
C1311 C1308 1.511 . S
C1311 H1325 0.961 . S
C1311 H1326 0.961 . S
C1311 H1327 0.961 . S
C1312 C1313 1.370 . S
C1312 C1314 1.363 . S
C1312 H1328 0.931 . S
C1313 C1312 1.370 . S
C1313 C1317 1.408 . S
C1314 C1312 1.363 . S
C1314 C1315 1.370 . S
C1314 C1318 1.524 . S
C1315 C1307 1.503 . S
C1315 C1314 1.370 . S
C1315 C1316 1.403 . S
C1316 C1315 1.403 . S
C1316 C1317 1.404 . S
C1316 C1319 1.539 . S
C1317 C1313 1.408 . S
C1317 C1316 1.404 . S
C1317 H1329 0.930 . S
C1318 C1314 1.524 . S
C1318 H1330 0.956 . S
C1318 H1331 0.961 . S
C1318 H1332 0.961 . S
C1319 C1316 1.539 . S
C1319 H1333 0.958 . S
C1319 H1334 0.961 . S
C1319 H1335 0.960 . S
H1320 C1304 0.931 . S
H1321 C1309 0.929 . S
H1322 C1310 0.960 . S
H1323 C1310 0.962 . S
H1324 C1310 0.960 . S
H1325 C1311 0.961 . S
H1326 C1311 0.961 . S
H1327 C1311 0.961 . S
H1328 C1312 0.931 . S
H1329 C1317 0.930 . S
H1330 C1318 0.956 . S
H1331 C1318 0.961 . S
H1332 C1318 0.961 . S
H1333 C1319 0.958 . S
H1334 C1319 0.961 . S
H1335 C1319 0.960 . S
C1336 C1337 1.391 . S
C1336 C1338 1.394 . S
C1336 H1352 0.931 . S
C1337 C1336 1.391 . S
C1337 C1341 1.376 . S
C1338 C1336 1.394 . S
C1338 C1339 1.369 . S
C1338 C1342 1.531 . S
C1339 C1338 1.369 . S
C1339 C1340 1.410 . S
C1339 C1347 1.503 . S
C1340 C1339 1.410 . S
C1340 C1341 1.392 . S
C1340 C1343 1.511 . S
C1341 C1337 1.376 . S
C1341 C1340 1.392 . S
C1341 H1353 0.929 . S
C1342 C1338 1.531 . S
C1342 H1354 0.960 . S
C1342 H1355 0.962 . S
C1342 H1356 0.960 . S
C1343 C1340 1.511 . S
C1343 H1357 0.961 . S
C1343 H1358 0.961 . S
C1343 H1359 0.961 . S
C1344 C1345 1.370 . S
C1344 C1346 1.363 . S
C1344 H1360 0.931 . S
C1345 C1344 1.370 . S
C1345 C1349 1.408 . S
C1346 C1344 1.363 . S
C1346 C1347 1.370 . S
C1346 C1350 1.524 . S
C1347 C1339 1.503 . S
C1347 C1346 1.370 . S
C1347 C1348 1.403 . S
C1348 C1347 1.403 . S
C1348 C1349 1.404 . S
C1348 C1351 1.539 . S
C1349 C1345 1.408 . S
C1349 C1348 1.404 . S
C1349 H1361 0.930 . S
C1350 C1346 1.524 . S
C1350 H1362 0.956 . S
C1350 H1363 0.961 . S
C1350 H1364 0.961 . S
C1351 C1348 1.539 . S
C1351 H1365 0.958 . S
C1351 H1366 0.961 . S
C1351 H1367 0.960 . S
H1352 C1336 0.931 . S
H1353 C1341 0.929 . S
H1354 C1342 0.960 . S
H1355 C1342 0.962 . S
H1356 C1342 0.960 . S
H1357 C1343 0.961 . S
H1358 C1343 0.961 . S
H1359 C1343 0.961 . S
H1360 C1344 0.931 . S
H1361 C1349 0.930 . S
H1362 C1350 0.956 . S
H1363 C1350 0.961 . S
H1364 C1350 0.961 . S
H1365 C1351 0.958 . S
H1366 C1351 0.961 . S
H1367 C1351 0.960 . S
C1368 C1369 1.391 . S
C1368 C1370 1.394 . S
C1368 H1384 0.931 . S
C1369 C1368 1.391 . S
C1369 C1373 1.376 . S
C1370 C1368 1.394 . S
C1370 C1371 1.369 . S
C1370 C1374 1.531 . S
C1371 C1370 1.369 . S
C1371 C1372 1.410 . S
C1371 C1379 1.503 . S
C1372 C1371 1.410 . S
C1372 C1373 1.392 . S
C1372 C1375 1.511 . S
C1373 C1369 1.376 . S
C1373 C1372 1.392 . S
C1373 H1385 0.929 . S
C1374 C1370 1.531 . S
C1374 H1386 0.960 . S
C1374 H1387 0.962 . S
C1374 H1388 0.960 . S
C1375 C1372 1.511 . S
C1375 H1389 0.961 . S
C1375 H1390 0.961 . S
C1375 H1391 0.961 . S
C1376 C1377 1.370 . S
C1376 C1378 1.363 . S
C1376 H1392 0.931 . S
C1377 C1376 1.370 . S
C1377 C1381 1.408 . S
C1378 C1376 1.363 . S
C1378 C1379 1.370 . S
C1378 C1382 1.524 . S
C1379 C1371 1.503 . S
C1379 C1378 1.370 . S
C1379 C1380 1.403 . S
C1380 C1379 1.403 . S
C1380 C1381 1.404 . S
C1380 C1383 1.539 . S
C1381 C1377 1.408 . S
C1381 C1380 1.404 . S
C1381 H1393 0.930 . S
C1382 C1378 1.524 . S
C1382 H1394 0.956 . S
C1382 H1395 0.961 . S
C1382 H1396 0.961 . S
C1383 C1380 1.539 . S
C1383 H1397 0.958 . S
C1383 H1398 0.961 . S
C1383 H1399 0.960 . S
H1384 C1368 0.931 . S
H1385 C1373 0.929 . S
H1386 C1374 0.960 . S
H1387 C1374 0.962 . S
H1388 C1374 0.960 . S
H1389 C1375 0.961 . S
H1390 C1375 0.961 . S
H1391 C1375 0.961 . S
H1392 C1376 0.931 . S
H1393 C1381 0.930 . S
H1394 C1382 0.956 . S
H1395 C1382 0.961 . S
H1396 C1382 0.961 . S
H1397 C1383 0.958 . S
H1398 C1383 0.961 . S
H1399 C1383 0.960 . S
C1400 C1401 1.391 . S
C1400 C1402 1.394 . S
C1400 H1416 0.931 . S
C1401 C1400 1.391 . S
C1401 C1405 1.376 . S
C1402 C1400 1.394 . S
C1402 C1403 1.369 . S
C1402 C1406 1.531 . S
C1403 C1402 1.369 . S
C1403 C1404 1.410 . S
C1403 C1411 1.503 . S
C1404 C1403 1.410 . S
C1404 C1405 1.392 . S
C1404 C1407 1.511 . S
C1405 C1401 1.376 . S
C1405 C1404 1.392 . S
C1405 H1417 0.929 . S
C1406 C1402 1.531 . S
C1406 H1418 0.960 . S
C1406 H1419 0.962 . S
C1406 H1420 0.960 . S
C1407 C1404 1.511 . S
C1407 H1421 0.961 . S
C1407 H1422 0.961 . S
C1407 H1423 0.961 . S
C1408 C1409 1.370 . S
C1408 C1410 1.363 . S
C1408 H1424 0.931 . S
C1409 C1408 1.370 . S
C1409 C1413 1.408 . S
C1410 C1408 1.363 . S
C1410 C1411 1.370 . S
C1410 C1414 1.524 . S
C1411 C1403 1.503 . S
C1411 C1410 1.370 . S
C1411 C1412 1.403 . S
C1412 C1411 1.403 . S
C1412 C1413 1.404 . S
C1412 C1415 1.539 . S
C1413 C1409 1.408 . S
C1413 C1412 1.404 . S
C1413 H1425 0.930 . S
C1414 C1410 1.524 . S
C1414 H1426 0.956 . S
C1414 H1427 0.961 . S
C1414 H1428 0.961 . S
C1415 C1412 1.539 . S
C1415 H1429 0.958 . S
C1415 H1430 0.961 . S
C1415 H1431 0.960 . S
H1416 C1400 0.931 . S
H1417 C1405 0.929 . S
H1418 C1406 0.960 . S
H1419 C1406 0.962 . S
H1420 C1406 0.960 . S
H1421 C1407 0.961 . S
H1422 C1407 0.961 . S
H1423 C1407 0.961 . S
H1424 C1408 0.931 . S
H1425 C1413 0.930 . S
H1426 C1414 0.956 . S
H1427 C1414 0.961 . S
H1428 C1414 0.961 . S
H1429 C1415 0.958 . S
H1430 C1415 0.961 . S
H1431 C1415 0.960 . S
C1432 C1433 1.391 . S
C1432 C1434 1.394 . S
C1432 H1448 0.931 . S
C1433 C1432 1.391 . S
C1433 C1437 1.376 . S
C1434 C1432 1.394 . S
C1434 C1435 1.369 . S
C1434 C1438 1.531 . S
C1435 C1434 1.369 . S
C1435 C1436 1.410 . S
C1435 C1443 1.503 . S
C1436 C1435 1.410 . S
C1436 C1437 1.392 . S
C1436 C1439 1.511 . S
C1437 C1433 1.376 . S
C1437 C1436 1.392 . S
C1437 H1449 0.929 . S
C1438 C1434 1.531 . S
C1438 H1450 0.960 . S
C1438 H1451 0.962 . S
C1438 H1452 0.960 . S
C1439 C1436 1.511 . S
C1439 H1453 0.961 . S
C1439 H1454 0.961 . S
C1439 H1455 0.961 . S
C1440 C1441 1.370 . S
C1440 C1442 1.363 . S
C1440 H1456 0.931 . S
C1441 C1440 1.370 . S
C1441 C1445 1.408 . S
C1442 C1440 1.363 . S
C1442 C1443 1.370 . S
C1442 C1446 1.524 . S
C1443 C1435 1.503 . S
C1443 C1442 1.370 . S
C1443 C1444 1.403 . S
C1444 C1443 1.403 . S
C1444 C1445 1.404 . S
C1444 C1447 1.539 . S
C1445 C1441 1.408 . S
C1445 C1444 1.404 . S
C1445 H1457 0.930 . S
C1446 C1442 1.524 . S
C1446 H1458 0.956 . S
C1446 H1459 0.961 . S
C1446 H1460 0.961 . S
C1447 C1444 1.539 . S
C1447 H1461 0.958 . S
C1447 H1462 0.961 . S
C1447 H1463 0.960 . S
H1448 C1432 0.931 . S
H1449 C1437 0.929 . S
H1450 C1438 0.960 . S
H1451 C1438 0.962 . S
H1452 C1438 0.960 . S
H1453 C1439 0.961 . S
H1454 C1439 0.961 . S
H1455 C1439 0.961 . S
H1456 C1440 0.931 . S
H1457 C1445 0.930 . S
H1458 C1446 0.956 . S
H1459 C1446 0.961 . S
H1460 C1446 0.961 . S
H1461 C1447 0.958 . S
H1462 C1447 0.961 . S
H1463 C1447 0.960 . S
C1464 C1465 1.391 . S
C1464 C1466 1.394 . S
C1464 H1480 0.931 . S
C1465 C1464 1.391 . S
C1465 C1469 1.376 . S
C1466 C1464 1.394 . S
C1466 C1467 1.369 . S
C1466 C1470 1.531 . S
C1467 C1466 1.369 . S
C1467 C1468 1.410 . S
C1467 C1475 1.503 . S
C1468 C1467 1.410 . S
C1468 C1469 1.392 . S
C1468 C1471 1.511 . S
C1469 C1465 1.376 . S
C1469 C1468 1.392 . S
C1469 H1481 0.929 . S
C1470 C1466 1.531 . S
C1470 H1482 0.960 . S
C1470 H1483 0.962 . S
C1470 H1484 0.960 . S
C1471 C1468 1.511 . S
C1471 H1485 0.961 . S
C1471 H1486 0.961 . S
C1471 H1487 0.961 . S
C1472 C1473 1.370 . S
C1472 C1474 1.363 . S
C1472 H1488 0.931 . S
C1473 C1472 1.370 . S
C1473 C1477 1.408 . S
C1474 C1472 1.363 . S
C1474 C1475 1.370 . S
C1474 C1478 1.524 . S
C1475 C1467 1.503 . S
C1475 C1474 1.370 . S
C1475 C1476 1.403 . S
C1476 C1475 1.403 . S
C1476 C1477 1.404 . S
C1476 C1479 1.539 . S
C1477 C1473 1.408 . S
C1477 C1476 1.404 . S
C1477 H1489 0.930 . S
C1478 C1474 1.524 . S
C1478 H1490 0.956 . S
C1478 H1491 0.961 . S
C1478 H1492 0.961 . S
C1479 C1476 1.539 . S
C1479 H1493 0.958 . S
C1479 H1494 0.961 . S
C1479 H1495 0.960 . S
H1480 C1464 0.931 . S
H1481 C1469 0.929 . S
H1482 C1470 0.960 . S
H1483 C1470 0.962 . S
H1484 C1470 0.960 . S
H1485 C1471 0.961 . S
H1486 C1471 0.961 . S
H1487 C1471 0.961 . S
H1488 C1472 0.931 . S
H1489 C1477 0.930 . S
H1490 C1478 0.956 . S
H1491 C1478 0.961 . S
H1492 C1478 0.961 . S
H1493 C1479 0.958 . S
H1494 C1479 0.961 . S
H1495 C1479 0.960 . S
C1496 C1497 1.391 . S
C1496 C1498 1.394 . S
C1496 H1512 0.931 . S
C1497 C1496 1.391 . S
C1497 C1501 1.376 . S
C1498 C1496 1.394 . S
C1498 C1499 1.369 . S
C1498 C1502 1.531 . S
C1499 C1498 1.369 . S
C1499 C1500 1.410 . S
C1499 C1507 1.503 . S
C1500 C1499 1.410 . S
C1500 C1501 1.392 . S
C1500 C1503 1.511 . S
C1501 C1497 1.376 . S
C1501 C1500 1.392 . S
C1501 H1513 0.929 . S
C1502 C1498 1.531 . S
C1502 H1514 0.960 . S
C1502 H1515 0.962 . S
C1502 H1516 0.960 . S
C1503 C1500 1.511 . S
C1503 H1517 0.961 . S
C1503 H1518 0.961 . S
C1503 H1519 0.961 . S
C1504 C1505 1.370 . S
C1504 C1506 1.363 . S
C1504 H1520 0.931 . S
C1505 C1504 1.370 . S
C1505 C1509 1.408 . S
C1506 C1504 1.363 . S
C1506 C1507 1.370 . S
C1506 C1510 1.524 . S
C1507 C1499 1.503 . S
C1507 C1506 1.370 . S
C1507 C1508 1.403 . S
C1508 C1507 1.403 . S
C1508 C1509 1.404 . S
C1508 C1511 1.539 . S
C1509 C1505 1.408 . S
C1509 C1508 1.404 . S
C1509 H1521 0.930 . S
C1510 C1506 1.524 . S
C1510 H1522 0.956 . S
C1510 H1523 0.961 . S
C1510 H1524 0.961 . S
C1511 C1508 1.539 . S
C1511 H1525 0.958 . S
C1511 H1526 0.961 . S
C1511 H1527 0.960 . S
H1512 C1496 0.931 . S
H1513 C1501 0.929 . S
H1514 C1502 0.960 . S
H1515 C1502 0.962 . S
H1516 C1502 0.960 . S
H1517 C1503 0.961 . S
H1518 C1503 0.961 . S
H1519 C1503 0.961 . S
H1520 C1504 0.931 . S
H1521 C1509 0.930 . S
H1522 C1510 0.956 . S
H1523 C1510 0.961 . S
H1524 C1510 0.961 . S
H1525 C1511 0.958 . S
H1526 C1511 0.961 . S
H1527 C1511 0.960 . S
C1528 C1529 1.391 . S
C1528 C1530 1.394 . S
C1528 H1544 0.931 . S
C1529 C1528 1.391 . S
C1529 C1533 1.376 . S
C1530 C1528 1.394 . S
C1530 C1531 1.369 . S
C1530 C1534 1.531 . S
C1531 C1530 1.369 . S
C1531 C1532 1.410 . S
C1531 C1539 1.503 . S
C1532 C1531 1.410 . S
C1532 C1533 1.392 . S
C1532 C1535 1.511 . S
C1533 C1529 1.376 . S
C1533 C1532 1.392 . S
C1533 H1545 0.929 . S
C1534 C1530 1.531 . S
C1534 H1546 0.960 . S
C1534 H1547 0.962 . S
C1534 H1548 0.960 . S
C1535 C1532 1.511 . S
C1535 H1549 0.961 . S
C1535 H1550 0.961 . S
C1535 H1551 0.961 . S
C1536 C1537 1.370 . S
C1536 C1538 1.363 . S
C1536 H1552 0.931 . S
C1537 C1536 1.370 . S
C1537 C1541 1.408 . S
C1538 C1536 1.363 . S
C1538 C1539 1.370 . S
C1538 C1542 1.524 . S
C1539 C1531 1.503 . S
C1539 C1538 1.370 . S
C1539 C1540 1.403 . S
C1540 C1539 1.403 . S
C1540 C1541 1.404 . S
C1540 C1543 1.539 . S
C1541 C1537 1.408 . S
C1541 C1540 1.404 . S
C1541 H1553 0.930 . S
C1542 C1538 1.524 . S
C1542 H1554 0.956 . S
C1542 H1555 0.961 . S
C1542 H1556 0.961 . S
C1543 C1540 1.539 . S
C1543 H1557 0.958 . S
C1543 H1558 0.961 . S
C1543 H1559 0.960 . S
H1544 C1528 0.931 . S
H1545 C1533 0.929 . S
H1546 C1534 0.960 . S
H1547 C1534 0.962 . S
H1548 C1534 0.960 . S
H1549 C1535 0.961 . S
H1550 C1535 0.961 . S
H1551 C1535 0.961 . S
H1552 C1536 0.931 . S
H1553 C1541 0.930 . S
H1554 C1542 0.956 . S
H1555 C1542 0.961 . S
H1556 C1542 0.961 . S
H1557 C1543 0.958 . S
H1558 C1543 0.961 . S
H1559 C1543 0.960 . S
C1560 C1561 1.391 . S
C1560 C1562 1.394 . S
C1560 H1576 0.931 . S
C1561 C1560 1.391 . S
C1561 C1565 1.376 . S
C1562 C1560 1.394 . S
C1562 C1563 1.369 . S
C1562 C1566 1.531 . S
C1563 C1562 1.369 . S
C1563 C1564 1.410 . S
C1563 C1571 1.503 . S
C1564 C1563 1.410 . S
C1564 C1565 1.392 . S
C1564 C1567 1.511 . S
C1565 C1561 1.376 . S
C1565 C1564 1.392 . S
C1565 H1577 0.929 . S
C1566 C1562 1.531 . S
C1566 H1578 0.960 . S
C1566 H1579 0.962 . S
C1566 H1580 0.960 . S
C1567 C1564 1.511 . S
C1567 H1581 0.961 . S
C1567 H1582 0.961 . S
C1567 H1583 0.961 . S
C1568 C1569 1.370 . S
C1568 C1570 1.363 . S
C1568 H1584 0.931 . S
C1569 C1568 1.370 . S
C1569 C1573 1.408 . S
C1570 C1568 1.363 . S
C1570 C1571 1.370 . S
C1570 C1574 1.524 . S
C1571 C1563 1.503 . S
C1571 C1570 1.370 . S
C1571 C1572 1.403 . S
C1572 C1571 1.403 . S
C1572 C1573 1.404 . S
C1572 C1575 1.539 . S
C1573 C1569 1.408 . S
C1573 C1572 1.404 . S
C1573 H1585 0.930 . S
C1574 C1570 1.524 . S
C1574 H1586 0.956 . S
C1574 H1587 0.961 . S
C1574 H1588 0.961 . S
C1575 C1572 1.539 . S
C1575 H1589 0.958 . S
C1575 H1590 0.961 . S
C1575 H1591 0.960 . S
H1576 C1560 0.931 . S
H1577 C1565 0.929 . S
H1578 C1566 0.960 . S
H1579 C1566 0.962 . S
H1580 C1566 0.960 . S
H1581 C1567 0.961 . S
H1582 C1567 0.961 . S
H1583 C1567 0.961 . S
H1584 C1568 0.931 . S
H1585 C1573 0.930 . S
H1586 C1574 0.956 . S
H1587 C1574 0.961 . S
H1588 C1574 0.961 . S
H1589 C1575 0.958 . S
H1590 C1575 0.961 . S
H1591 C1575 0.960 . S
C1592 C1593 1.391 . S
C1592 C1594 1.394 . S
C1592 H1608 0.931 . S
C1593 C1592 1.391 . S
C1593 C1597 1.376 . S
C1594 C1592 1.394 . S
C1594 C1595 1.369 . S
C1594 C1598 1.531 . S
C1595 C1594 1.369 . S
C1595 C1596 1.410 . S
C1595 C1603 1.503 . S
C1596 C1595 1.410 . S
C1596 C1597 1.392 . S
C1596 C1599 1.511 . S
C1597 C1593 1.376 . S
C1597 C1596 1.392 . S
C1597 H1609 0.929 . S
C1598 C1594 1.531 . S
C1598 H1610 0.960 . S
C1598 H1611 0.962 . S
C1598 H1612 0.960 . S
C1599 C1596 1.511 . S
C1599 H1613 0.961 . S
C1599 H1614 0.961 . S
C1599 H1615 0.961 . S
C1600 C1601 1.370 . S
C1600 C1602 1.363 . S
C1600 H1616 0.931 . S
C1601 C1600 1.370 . S
C1601 C1605 1.408 . S
C1602 C1600 1.363 . S
C1602 C1603 1.370 . S
C1602 C1606 1.524 . S
C1603 C1595 1.503 . S
C1603 C1602 1.370 . S
C1603 C1604 1.403 . S
C1604 C1603 1.403 . S
C1604 C1605 1.404 . S
C1604 C1607 1.539 . S
C1605 C1601 1.408 . S
C1605 C1604 1.404 . S
C1605 H1617 0.930 . S
C1606 C1602 1.524 . S
C1606 H1618 0.956 . S
C1606 H1619 0.961 . S
C1606 H1620 0.961 . S
C1607 C1604 1.539 . S
C1607 H1621 0.958 . S
C1607 H1622 0.961 . S
C1607 H1623 0.960 . S
H1608 C1592 0.931 . S
H1609 C1597 0.929 . S
H1610 C1598 0.960 . S
H1611 C1598 0.962 . S
H1612 C1598 0.960 . S
H1613 C1599 0.961 . S
H1614 C1599 0.961 . S
H1615 C1599 0.961 . S
H1616 C1600 0.931 . S
H1617 C1605 0.930 . S
H1618 C1606 0.956 . S
H1619 C1606 0.961 . S
H1620 C1606 0.961 . S
H1621 C1607 0.958 . S
H1622 C1607 0.961 . S
H1623 C1607 0.960 . S
C1624 C1625 1.391 . S
C1624 C1626 1.394 . S
C1624 H1640 0.931 . S
C1625 C1624 1.391 . S
C1625 C1629 1.376 . S
C1626 C1624 1.394 . S
C1626 C1627 1.369 . S
C1626 C1630 1.531 . S
C1627 C1626 1.369 . S
C1627 C1628 1.410 . S
C1627 C1635 1.503 . S
C1628 C1627 1.410 . S
C1628 C1629 1.392 . S
C1628 C1631 1.511 . S
C1629 C1625 1.376 . S
C1629 C1628 1.392 . S
C1629 H1641 0.929 . S
C1630 C1626 1.531 . S
C1630 H1642 0.960 . S
C1630 H1643 0.962 . S
C1630 H1644 0.960 . S
C1631 C1628 1.511 . S
C1631 H1645 0.961 . S
C1631 H1646 0.961 . S
C1631 H1647 0.961 . S
C1632 C1633 1.370 . S
C1632 C1634 1.363 . S
C1632 H1648 0.931 . S
C1633 C1632 1.370 . S
C1633 C1637 1.408 . S
C1634 C1632 1.363 . S
C1634 C1635 1.370 . S
C1634 C1638 1.524 . S
C1635 C1627 1.503 . S
C1635 C1634 1.370 . S
C1635 C1636 1.403 . S
C1636 C1635 1.403 . S
C1636 C1637 1.404 . S
C1636 C1639 1.539 . S
C1637 C1633 1.408 . S
C1637 C1636 1.404 . S
C1637 H1649 0.930 . S
C1638 C1634 1.524 . S
C1638 H1650 0.956 . S
C1638 H1651 0.961 . S
C1638 H1652 0.961 . S
C1639 C1636 1.539 . S
C1639 H1653 0.958 . S
C1639 H1654 0.961 . S
C1639 H1655 0.960 . S
H1640 C1624 0.931 . S
H1641 C1629 0.929 . S
H1642 C1630 0.960 . S
H1643 C1630 0.962 . S
H1644 C1630 0.960 . S
H1645 C1631 0.961 . S
H1646 C1631 0.961 . S
H1647 C1631 0.961 . S
H1648 C1632 0.931 . S
H1649 C1637 0.930 . S
H1650 C1638 0.956 . S
H1651 C1638 0.961 . S
H1652 C1638 0.961 . S
H1653 C1639 0.958 . S
H1654 C1639 0.961 . S
H1655 C1639 0.960 . S
C1656 C1657 1.391 . S
C1656 C1658 1.394 . S
C1656 H1672 0.931 . S
C1657 C1656 1.391 . S
C1657 C1661 1.376 . S
C1658 C1656 1.394 . S
C1658 C1659 1.369 . S
C1658 C1662 1.531 . S
C1659 C1658 1.369 . S
C1659 C1660 1.410 . S
C1659 C1667 1.503 . S
C1660 C1659 1.410 . S
C1660 C1661 1.392 . S
C1660 C1663 1.511 . S
C1661 C1657 1.376 . S
C1661 C1660 1.392 . S
C1661 H1673 0.929 . S
C1662 C1658 1.531 . S
C1662 H1674 0.960 . S
C1662 H1675 0.962 . S
C1662 H1676 0.960 . S
C1663 C1660 1.511 . S
C1663 H1677 0.961 . S
C1663 H1678 0.961 . S
C1663 H1679 0.961 . S
C1664 C1665 1.370 . S
C1664 C1666 1.363 . S
C1664 H1680 0.931 . S
C1665 C1664 1.370 . S
C1665 C1669 1.408 . S
C1666 C1664 1.363 . S
C1666 C1667 1.370 . S
C1666 C1670 1.524 . S
C1667 C1659 1.503 . S
C1667 C1666 1.370 . S
C1667 C1668 1.403 . S
C1668 C1667 1.403 . S
C1668 C1669 1.404 . S
C1668 C1671 1.539 . S
C1669 C1665 1.408 . S
C1669 C1668 1.404 . S
C1669 H1681 0.930 . S
C1670 C1666 1.524 . S
C1670 H1682 0.956 . S
C1670 H1683 0.961 . S
C1670 H1684 0.961 . S
C1671 C1668 1.539 . S
C1671 H1685 0.958 . S
C1671 H1686 0.961 . S
C1671 H1687 0.960 . S
H1672 C1656 0.931 . S
H1673 C1661 0.929 . S
H1674 C1662 0.960 . S
H1675 C1662 0.962 . S
H1676 C1662 0.960 . S
H1677 C1663 0.961 . S
H1678 C1663 0.961 . S
H1679 C1663 0.961 . S
H1680 C1664 0.931 . S
H1681 C1669 0.930 . S
H1682 C1670 0.956 . S
H1683 C1670 0.961 . S
H1684 C1670 0.961 . S
H1685 C1671 0.958 . S
H1686 C1671 0.961 . S
H1687 C1671 0.960 . S
C1688 C1689 1.391 . S
C1688 C1690 1.394 . S
C1688 H1704 0.931 . S
C1689 C1688 1.391 . S
C1689 C1693 1.376 . S
C1690 C1688 1.394 . S
C1690 C1691 1.369 . S
C1690 C1694 1.531 . S
C1691 C1690 1.369 . S
C1691 C1692 1.410 . S
C1691 C1699 1.503 . S
C1692 C1691 1.410 . S
C1692 C1693 1.392 . S
C1692 C1695 1.511 . S
C1693 C1689 1.376 . S
C1693 C1692 1.392 . S
C1693 H1705 0.929 . S
C1694 C1690 1.531 . S
C1694 H1706 0.960 . S
C1694 H1707 0.962 . S
C1694 H1708 0.960 . S
C1695 C1692 1.511 . S
C1695 H1709 0.961 . S
C1695 H1710 0.961 . S
C1695 H1711 0.961 . S
C1696 C1697 1.370 . S
C1696 C1698 1.363 . S
C1696 H1712 0.931 . S
C1697 C1696 1.370 . S
C1697 C1701 1.408 . S
C1698 C1696 1.363 . S
C1698 C1699 1.370 . S
C1698 C1702 1.524 . S
C1699 C1691 1.503 . S
C1699 C1698 1.370 . S
C1699 C1700 1.403 . S
C1700 C1699 1.403 . S
C1700 C1701 1.404 . S
C1700 C1703 1.539 . S
C1701 C1697 1.408 . S
C1701 C1700 1.404 . S
C1701 H1713 0.930 . S
C1702 C1698 1.524 . S
C1702 H1714 0.956 . S
C1702 H1715 0.961 . S
C1702 H1716 0.961 . S
C1703 C1700 1.539 . S
C1703 H1717 0.958 . S
C1703 H1718 0.961 . S
C1703 H1719 0.960 . S
H1704 C1688 0.931 . S
H1705 C1693 0.929 . S
H1706 C1694 0.960 . S
H1707 C1694 0.962 . S
H1708 C1694 0.960 . S
H1709 C1695 0.961 . S
H1710 C1695 0.961 . S
H1711 C1695 0.961 . S
H1712 C1696 0.931 . S
H1713 C1701 0.930 . S
H1714 C1702 0.956 . S
H1715 C1702 0.961 . S
H1716 C1702 0.961 . S
H1717 C1703 0.958 . S
H1718 C1703 0.961 . S
H1719 C1703 0.960 . S
C1720 C1721 1.391 . S
C1720 C1722 1.394 . S
C1720 H1736 0.931 . S
C1721 C1720 1.391 . S
C1721 C1725 1.376 . S
C1722 C1720 1.394 . S
C1722 C1723 1.369 . S
C1722 C1726 1.531 . S
C1723 C1722 1.369 . S
C1723 C1724 1.410 . S
C1723 C1731 1.503 . S
C1724 C1723 1.410 . S
C1724 C1725 1.392 . S
C1724 C1727 1.511 . S
C1725 C1721 1.376 . S
C1725 C1724 1.392 . S
C1725 H1737 0.929 . S
C1726 C1722 1.531 . S
C1726 H1738 0.960 . S
C1726 H1739 0.962 . S
C1726 H1740 0.960 . S
C1727 C1724 1.511 . S
C1727 H1741 0.961 . S
C1727 H1742 0.961 . S
C1727 H1743 0.961 . S
C1728 C1729 1.370 . S
C1728 C1730 1.363 . S
C1728 H1744 0.931 . S
C1729 C1728 1.370 . S
C1729 C1733 1.408 . S
C1730 C1728 1.363 . S
C1730 C1731 1.370 . S
C1730 C1734 1.524 . S
C1731 C1723 1.503 . S
C1731 C1730 1.370 . S
C1731 C1732 1.403 . S
C1732 C1731 1.403 . S
C1732 C1733 1.404 . S
C1732 C1735 1.539 . S
C1733 C1729 1.408 . S
C1733 C1732 1.404 . S
C1733 H1745 0.930 . S
C1734 C1730 1.524 . S
C1734 H1746 0.956 . S
C1734 H1747 0.961 . S
C1734 H1748 0.961 . S
C1735 C1732 1.539 . S
C1735 H1749 0.958 . S
C1735 H1750 0.961 . S
C1735 H1751 0.960 . S
H1736 C1720 0.931 . S
H1737 C1725 0.929 . S
H1738 C1726 0.960 . S
H1739 C1726 0.962 . S
H1740 C1726 0.960 . S
H1741 C1727 0.961 . S
H1742 C1727 0.961 . S
H1743 C1727 0.961 . S
H1744 C1728 0.931 . S
H1745 C1733 0.930 . S
H1746 C1734 0.956 . S
H1747 C1734 0.961 . S
H1748 C1734 0.961 . S
H1749 C1735 0.958 . S
H1750 C1735 0.961 . S
H1751 C1735 0.960 . S
C1752 C1753 1.391 . S
C1752 C1754 1.394 . S
C1752 H1768 0.931 . S
C1753 C1752 1.391 . S
C1753 C1757 1.376 . S
C1754 C1752 1.394 . S
C1754 C1755 1.369 . S
C1754 C1758 1.531 . S
C1755 C1754 1.369 . S
C1755 C1756 1.410 . S
C1755 C1763 1.503 . S
C1756 C1755 1.410 . S
C1756 C1757 1.392 . S
C1756 C1759 1.511 . S
C1757 C1753 1.376 . S
C1757 C1756 1.392 . S
C1757 H1769 0.929 . S
C1758 C1754 1.531 . S
C1758 H1770 0.960 . S
C1758 H1771 0.962 . S
C1758 H1772 0.960 . S
C1759 C1756 1.511 . S
C1759 H1773 0.961 . S
C1759 H1774 0.961 . S
C1759 H1775 0.961 . S
C1760 C1761 1.370 . S
C1760 C1762 1.363 . S
C1760 H1776 0.931 . S
C1761 C1760 1.370 . S
C1761 C1765 1.408 . S
C1762 C1760 1.363 . S
C1762 C1763 1.370 . S
C1762 C1766 1.524 . S
C1763 C1755 1.503 . S
C1763 C1762 1.370 . S
C1763 C1764 1.403 . S
C1764 C1763 1.403 . S
C1764 C1765 1.404 . S
C1764 C1767 1.539 . S
C1765 C1761 1.408 . S
C1765 C1764 1.404 . S
C1765 H1777 0.930 . S
C1766 C1762 1.524 . S
C1766 H1778 0.956 . S
C1766 H1779 0.961 . S
C1766 H1780 0.961 . S
C1767 C1764 1.539 . S
C1767 H1781 0.958 . S
C1767 H1782 0.961 . S
C1767 H1783 0.960 . S
H1768 C1752 0.931 . S
H1769 C1757 0.929 . S
H1770 C1758 0.960 . S
H1771 C1758 0.962 . S
H1772 C1758 0.960 . S
H1773 C1759 0.961 . S
H1774 C1759 0.961 . S
H1775 C1759 0.961 . S
H1776 C1760 0.931 . S
H1777 C1765 0.930 . S
H1778 C1766 0.956 . S
H1779 C1766 0.961 . S
H1780 C1766 0.961 . S
H1781 C1767 0.958 . S
H1782 C1767 0.961 . S
H1783 C1767 0.960 . S
C1784 C1785 1.391 . S
C1784 C1786 1.394 . S
C1784 H1800 0.931 . S
C1785 C1784 1.391 . S
C1785 C1789 1.376 . S
C1786 C1784 1.394 . S
C1786 C1787 1.369 . S
C1786 C1790 1.531 . S
C1787 C1786 1.369 . S
C1787 C1788 1.410 . S
C1787 C1795 1.503 . S
C1788 C1787 1.410 . S
C1788 C1789 1.392 . S
C1788 C1791 1.511 . S
C1789 C1785 1.376 . S
C1789 C1788 1.392 . S
C1789 H1801 0.929 . S
C1790 C1786 1.531 . S
C1790 H1802 0.960 . S
C1790 H1803 0.962 . S
C1790 H1804 0.960 . S
C1791 C1788 1.511 . S
C1791 H1805 0.961 . S
C1791 H1806 0.961 . S
C1791 H1807 0.961 . S
C1792 C1793 1.370 . S
C1792 C1794 1.363 . S
C1792 H1808 0.931 . S
C1793 C1792 1.370 . S
C1793 C1797 1.408 . S
C1794 C1792 1.363 . S
C1794 C1795 1.370 . S
C1794 C1798 1.524 . S
C1795 C1787 1.503 . S
C1795 C1794 1.370 . S
C1795 C1796 1.403 . S
C1796 C1795 1.403 . S
C1796 C1797 1.404 . S
C1796 C1799 1.539 . S
C1797 C1793 1.408 . S
C1797 C1796 1.404 . S
C1797 H1809 0.930 . S
C1798 C1794 1.524 . S
C1798 H1810 0.956 . S
C1798 H1811 0.961 . S
C1798 H1812 0.961 . S
C1799 C1796 1.539 . S
C1799 H1813 0.958 . S
C1799 H1814 0.961 . S
C1799 H1815 0.960 . S
H1800 C1784 0.931 . S
H1801 C1789 0.929 . S
H1802 C1790 0.960 . S
H1803 C1790 0.962 . S
H1804 C1790 0.960 . S
H1805 C1791 0.961 . S
H1806 C1791 0.961 . S
H1807 C1791 0.961 . S
H1808 C1792 0.931 . S
H1809 C1797 0.930 . S
H1810 C1798 0.956 . S
H1811 C1798 0.961 . S
H1812 C1798 0.961 . S
H1813 C1799 0.958 . S
H1814 C1799 0.961 . S
H1815 C1799 0.960 . S
C1816 C1817 1.391 . S
C1816 C1818 1.394 . S
C1816 H1832 0.931 . S
C1817 C1816 1.391 . S
C1817 C1821 1.376 . S
C1818 C1816 1.394 . S
C1818 C1819 1.369 . S
C1818 C1822 1.531 . S
C1819 C1818 1.369 . S
C1819 C1820 1.410 . S
C1819 C1827 1.503 . S
C1820 C1819 1.410 . S
C1820 C1821 1.392 . S
C1820 C1823 1.511 . S
C1821 C1817 1.376 . S
C1821 C1820 1.392 . S
C1821 H1833 0.929 . S
C1822 C1818 1.531 . S
C1822 H1834 0.960 . S
C1822 H1835 0.962 . S
C1822 H1836 0.960 . S
C1823 C1820 1.511 . S
C1823 H1837 0.961 . S
C1823 H1838 0.961 . S
C1823 H1839 0.961 . S
C1824 C1825 1.370 . S
C1824 C1826 1.363 . S
C1824 H1840 0.931 . S
C1825 C1824 1.370 . S
C1825 C1829 1.408 . S
C1826 C1824 1.363 . S
C1826 C1827 1.370 . S
C1826 C1830 1.524 . S
C1827 C1819 1.503 . S
C1827 C1826 1.370 . S
C1827 C1828 1.403 . S
C1828 C1827 1.403 . S
C1828 C1829 1.404 . S
C1828 C1831 1.539 . S
C1829 C1825 1.408 . S
C1829 C1828 1.404 . S
C1829 H1841 0.930 . S
C1830 C1826 1.524 . S
C1830 H1842 0.956 . S
C1830 H1843 0.961 . S
C1830 H1844 0.961 . S
C1831 C1828 1.539 . S
C1831 H1845 0.958 . S
C1831 H1846 0.961 . S
C1831 H1847 0.960 . S
H1832 C1816 0.931 . S
H1833 C1821 0.929 . S
H1834 C1822 0.960 . S
H1835 C1822 0.962 . S
H1836 C1822 0.960 . S
H1837 C1823 0.961 . S
H1838 C1823 0.961 . S
H1839 C1823 0.961 . S
H1840 C1824 0.931 . S
H1841 C1829 0.930 . S
H1842 C1830 0.956 . S
H1843 C1830 0.961 . S
H1844 C1830 0.961 . S
H1845 C1831 0.958 . S
H1846 C1831 0.961 . S
H1847 C1831 0.960 . S
C1848 C1849 1.391 . S
C1848 C1850 1.394 . S
C1848 H1864 0.931 . S
C1849 C1848 1.391 . S
C1849 C1853 1.376 . S
C1850 C1848 1.394 . S
C1850 C1851 1.369 . S
C1850 C1854 1.531 . S
C1851 C1850 1.369 . S
C1851 C1852 1.410 . S
C1851 C1859 1.503 . S
C1852 C1851 1.410 . S
C1852 C1853 1.392 . S
C1852 C1855 1.511 . S
C1853 C1849 1.376 . S
C1853 C1852 1.392 . S
C1853 H1865 0.929 . S
C1854 C1850 1.531 . S
C1854 H1866 0.960 . S
C1854 H1867 0.962 . S
C1854 H1868 0.960 . S
C1855 C1852 1.511 . S
C1855 H1869 0.961 . S
C1855 H1870 0.961 . S
C1855 H1871 0.961 . S
C1856 C1857 1.370 . S
C1856 C1858 1.363 . S
C1856 H1872 0.931 . S
C1857 C1856 1.370 . S
C1857 C1861 1.408 . S
C1858 C1856 1.363 . S
C1858 C1859 1.370 . S
C1858 C1862 1.524 . S
C1859 C1851 1.503 . S
C1859 C1858 1.370 . S
C1859 C1860 1.403 . S
C1860 C1859 1.403 . S
C1860 C1861 1.404 . S
C1860 C1863 1.539 . S
C1861 C1857 1.408 . S
C1861 C1860 1.404 . S
C1861 H1873 0.930 . S
C1862 C1858 1.524 . S
C1862 H1874 0.956 . S
C1862 H1875 0.961 . S
C1862 H1876 0.961 . S
C1863 C1860 1.539 . S
C1863 H1877 0.958 . S
C1863 H1878 0.961 . S
C1863 H1879 0.960 . S
H1864 C1848 0.931 . S
H1865 C1853 0.929 . S
H1866 C1854 0.960 . S
H1867 C1854 0.962 . S
H1868 C1854 0.960 . S
H1869 C1855 0.961 . S
H1870 C1855 0.961 . S
H1871 C1855 0.961 . S
H1872 C1856 0.931 . S
H1873 C1861 0.930 . S
H1874 C1862 0.956 . S
H1875 C1862 0.961 . S
H1876 C1862 0.961 . S
H1877 C1863 0.958 . S
H1878 C1863 0.961 . S
H1879 C1863 0.960 . S
C1880 C1881 1.391 . S
C1880 C1882 1.394 . S
C1880 H1896 0.931 . S
C1881 C1880 1.391 . S
C1881 C1885 1.376 . S
C1882 C1880 1.394 . S
C1882 C1883 1.369 . S
C1882 C1886 1.531 . S
C1883 C1882 1.369 . S
C1883 C1884 1.410 . S
C1883 C1891 1.503 . S
C1884 C1883 1.410 . S
C1884 C1885 1.392 . S
C1884 C1887 1.511 . S
C1885 C1881 1.376 . S
C1885 C1884 1.392 . S
C1885 H1897 0.929 . S
C1886 C1882 1.531 . S
C1886 H1898 0.960 . S
C1886 H1899 0.962 . S
C1886 H1900 0.960 . S
C1887 C1884 1.511 . S
C1887 H1901 0.961 . S
C1887 H1902 0.961 . S
C1887 H1903 0.961 . S
C1888 C1889 1.370 . S
C1888 C1890 1.363 . S
C1888 H1904 0.931 . S
C1889 C1888 1.370 . S
C1889 C1893 1.408 . S
C1890 C1888 1.363 . S
C1890 C1891 1.370 . S
C1890 C1894 1.524 . S
C1891 C1883 1.503 . S
C1891 C1890 1.370 . S
C1891 C1892 1.403 . S
C1892 C1891 1.403 . S
C1892 C1893 1.404 . S
C1892 C1895 1.539 . S
C1893 C1889 1.408 . S
C1893 C1892 1.404 . S
C1893 H1905 0.930 . S
C1894 C1890 1.524 . S
C1894 H1906 0.956 . S
C1894 H1907 0.961 . S
C1894 H1908 0.961 . S
C1895 C1892 1.539 . S
C1895 H1909 0.958 . S
C1895 H1910 0.961 . S
C1895 H1911 0.960 . S
H1896 C1880 0.931 . S
H1897 C1885 0.929 . S
H1898 C1886 0.960 . S
H1899 C1886 0.962 . S
H1900 C1886 0.960 . S
H1901 C1887 0.961 . S
H1902 C1887 0.961 . S
H1903 C1887 0.961 . S
H1904 C1888 0.931 . S
H1905 C1893 0.930 . S
H1906 C1894 0.956 . S
H1907 C1894 0.961 . S
H1908 C1894 0.961 . S
H1909 C1895 0.958 . S
H1910 C1895 0.961 . S
H1911 C1895 0.960 . S
C1912 C1913 1.391 . S
C1912 C1914 1.394 . S
C1912 H1928 0.931 . S
C1913 C1912 1.391 . S
C1913 C1917 1.376 . S
C1914 C1912 1.394 . S
C1914 C1915 1.369 . S
C1914 C1918 1.531 . S
C1915 C1914 1.369 . S
C1915 C1916 1.410 . S
C1915 C1923 1.503 . S
C1916 C1915 1.410 . S
C1916 C1917 1.392 . S
C1916 C1919 1.511 . S
C1917 C1913 1.376 . S
C1917 C1916 1.392 . S
C1917 H1929 0.929 . S
C1918 C1914 1.531 . S
C1918 H1930 0.960 . S
C1918 H1931 0.962 . S
C1918 H1932 0.960 . S
C1919 C1916 1.511 . S
C1919 H1933 0.961 . S
C1919 H1934 0.961 . S
C1919 H1935 0.961 . S
C1920 C1921 1.370 . S
C1920 C1922 1.363 . S
C1920 H1936 0.931 . S
C1921 C1920 1.370 . S
C1921 C1925 1.408 . S
C1922 C1920 1.363 . S
C1922 C1923 1.370 . S
C1922 C1926 1.524 . S
C1923 C1915 1.503 . S
C1923 C1922 1.370 . S
C1923 C1924 1.403 . S
C1924 C1923 1.403 . S
C1924 C1925 1.404 . S
C1924 C1927 1.539 . S
C1925 C1921 1.408 . S
C1925 C1924 1.404 . S
C1925 H1937 0.930 . S
C1926 C1922 1.524 . S
C1926 H1938 0.956 . S
C1926 H1939 0.961 . S
C1926 H1940 0.961 . S
C1927 C1924 1.539 . S
C1927 H1941 0.958 . S
C1927 H1942 0.961 . S
C1927 H1943 0.960 . S
H1928 C1912 0.931 . S
H1929 C1917 0.929 . S
H1930 C1918 0.960 . S
H1931 C1918 0.962 . S
H1932 C1918 0.960 . S
H1933 C1919 0.961 . S
H1934 C1919 0.961 . S
H1935 C1919 0.961 . S
H1936 C1920 0.931 . S
H1937 C1925 0.930 . S
H1938 C1926 0.956 . S
H1939 C1926 0.961 . S
H1940 C1926 0.961 . S
H1941 C1927 0.958 . S
H1942 C1927 0.961 . S
H1943 C1927 0.960 . S
C1944 C1945 1.391 . S
C1944 C1946 1.394 . S
C1944 H1960 0.931 . S
C1945 C1944 1.391 . S
C1945 C1949 1.376 . S
C1946 C1944 1.394 . S
C1946 C1947 1.369 . S
C1946 C1950 1.531 . S
C1947 C1946 1.369 . S
C1947 C1948 1.410 . S
C1947 C1955 1.503 . S
C1948 C1947 1.410 . S
C1948 C1949 1.392 . S
C1948 C1951 1.511 . S
C1949 C1945 1.376 . S
C1949 C1948 1.392 . S
C1949 H1961 0.929 . S
C1950 C1946 1.531 . S
C1950 H1962 0.960 . S
C1950 H1963 0.962 . S
C1950 H1964 0.960 . S
C1951 C1948 1.511 . S
C1951 H1965 0.961 . S
C1951 H1966 0.961 . S
C1951 H1967 0.961 . S
C1952 C1953 1.370 . S
C1952 C1954 1.363 . S
C1952 H1968 0.931 . S
C1953 C1952 1.370 . S
C1953 C1957 1.408 . S
C1954 C1952 1.363 . S
C1954 C1955 1.370 . S
C1954 C1958 1.524 . S
C1955 C1947 1.503 . S
C1955 C1954 1.370 . S
C1955 C1956 1.403 . S
C1956 C1955 1.403 . S
C1956 C1957 1.404 . S
C1956 C1959 1.539 . S
C1957 C1953 1.408 . S
C1957 C1956 1.404 . S
C1957 H1969 0.930 . S
C1958 C1954 1.524 . S
C1958 H1970 0.956 . S
C1958 H1971 0.961 . S
C1958 H1972 0.961 . S
C1959 C1956 1.539 . S
C1959 H1973 0.958 . S
C1959 H1974 0.961 . S
C1959 H1975 0.960 . S
H1960 C1944 0.931 . S
H1961 C1949 0.929 . S
H1962 C1950 0.960 . S
H1963 C1950 0.962 . S
H1964 C1950 0.960 . S
H1965 C1951 0.961 . S
H1966 C1951 0.961 . S
H1967 C1951 0.961 . S
H1968 C1952 0.931 . S
H1969 C1957 0.930 . S
H1970 C1958 0.956 . S
H1971 C1958 0.961 . S
H1972 C1958 0.961 . S
H1973 C1959 0.958 . S
H1974 C1959 0.961 . S
H1975 C1959 0.960 . S
C1976 C1977 1.391 . S
C1976 C1978 1.394 . S
C1976 H1992 0.931 . S
C1977 C1976 1.391 . S
C1977 C1981 1.376 . S
C1978 C1976 1.394 . S
C1978 C1979 1.369 . S
C1978 C1982 1.531 . S
C1979 C1978 1.369 . S
C1979 C1980 1.410 . S
C1979 C1987 1.503 . S
C1980 C1979 1.410 . S
C1980 C1981 1.392 . S
C1980 C1983 1.511 . S
C1981 C1977 1.376 . S
C1981 C1980 1.392 . S
C1981 H1993 0.929 . S
C1982 C1978 1.531 . S
C1982 H1994 0.960 . S
C1982 H1995 0.962 . S
C1982 H1996 0.960 . S
C1983 C1980 1.511 . S
C1983 H1997 0.961 . S
C1983 H1998 0.961 . S
C1983 H1999 0.961 . S
C1984 C1985 1.370 . S
C1984 C1986 1.363 . S
C1984 H2000 0.931 . S
C1985 C1984 1.370 . S
C1985 C1989 1.408 . S
C1986 C1984 1.363 . S
C1986 C1987 1.370 . S
C1986 C1990 1.524 . S
C1987 C1979 1.503 . S
C1987 C1986 1.370 . S
C1987 C1988 1.403 . S
C1988 C1987 1.403 . S
C1988 C1989 1.404 . S
C1988 C1991 1.539 . S
C1989 C1985 1.408 . S
C1989 C1988 1.404 . S
C1989 H2001 0.930 . S
C1990 C1986 1.524 . S
C1990 H2002 0.956 . S
C1990 H2003 0.961 . S
C1990 H2004 0.961 . S
C1991 C1988 1.539 . S
C1991 H2005 0.958 . S
C1991 H2006 0.961 . S
C1991 H2007 0.960 . S
H1992 C1976 0.931 . S
H1993 C1981 0.929 . S
H1994 C1982 0.960 . S
H1995 C1982 0.962 . S
H1996 C1982 0.960 . S
H1997 C1983 0.961 . S
H1998 C1983 0.961 . S
H1999 C1983 0.961 . S
H2000 C1984 0.931 . S
H2001 C1989 0.930 . S
H2002 C1990 0.956 . S
H2003 C1990 0.961 . S
H2004 C1990 0.961 . S
H2005 C1991 0.958 . S
H2006 C1991 0.961 . S
H2007 C1991 0.960 . S
C2008 C2009 1.391 . S
C2008 C2010 1.394 . S
C2008 H2024 0.931 . S
C2009 C2008 1.391 . S
C2009 C2013 1.376 . S
C2010 C2008 1.394 . S
C2010 C2011 1.369 . S
C2010 C2014 1.531 . S
C2011 C2010 1.369 . S
C2011 C2012 1.410 . S
C2011 C2019 1.503 . S
C2012 C2011 1.410 . S
C2012 C2013 1.392 . S
C2012 C2015 1.511 . S
C2013 C2009 1.376 . S
C2013 C2012 1.392 . S
C2013 H2025 0.929 . S
C2014 C2010 1.531 . S
C2014 H2026 0.960 . S
C2014 H2027 0.962 . S
C2014 H2028 0.960 . S
C2015 C2012 1.511 . S
C2015 H2029 0.961 . S
C2015 H2030 0.961 . S
C2015 H2031 0.961 . S
C2016 C2017 1.370 . S
C2016 C2018 1.363 . S
C2016 H2032 0.931 . S
C2017 C2016 1.370 . S
C2017 C2021 1.408 . S
C2018 C2016 1.363 . S
C2018 C2019 1.370 . S
C2018 C2022 1.524 . S
C2019 C2011 1.503 . S
C2019 C2018 1.370 . S
C2019 C2020 1.403 . S
C2020 C2019 1.403 . S
C2020 C2021 1.404 . S
C2020 C2023 1.539 . S
C2021 C2017 1.408 . S
C2021 C2020 1.404 . S
C2021 H2033 0.930 . S
C2022 C2018 1.524 . S
C2022 H2034 0.956 . S
C2022 H2035 0.961 . S
C2022 H2036 0.961 . S
C2023 C2020 1.539 . S
C2023 H2037 0.958 . S
C2023 H2038 0.961 . S
C2023 H2039 0.960 . S
H2024 C2008 0.931 . S
H2025 C2013 0.929 . S
H2026 C2014 0.960 . S
H2027 C2014 0.962 . S
H2028 C2014 0.960 . S
H2029 C2015 0.961 . S
H2030 C2015 0.961 . S
H2031 C2015 0.961 . S
H2032 C2016 0.931 . S
H2033 C2021 0.930 . S
H2034 C2022 0.956 . S
H2035 C2022 0.961 . S
H2036 C2022 0.961 . S
H2037 C2023 0.958 . S
H2038 C2023 0.961 . S
H2039 C2023 0.960 . S
C2040 C2041 1.391 . S
C2040 C2042 1.394 . S
C2040 H2056 0.931 . S
C2041 C2040 1.391 . S
C2041 C2045 1.376 . S
C2042 C2040 1.394 . S
C2042 C2043 1.369 . S
C2042 C2046 1.531 . S
C2043 C2042 1.369 . S
C2043 C2044 1.410 . S
C2043 C2051 1.503 1_455 S
C2044 C2043 1.410 . S
C2044 C2045 1.392 . S
C2044 C2047 1.511 . S
C2045 C2041 1.376 . S
C2045 C2044 1.392 . S
C2045 H2057 0.929 . S
C2046 C2042 1.531 . S
C2046 H2058 0.960 . S
C2046 H2059 0.962 . S
C2046 H2060 0.960 . S
C2047 C2044 1.511 . S
C2047 H2061 0.961 . S
C2047 H2062 0.961 1_455 S
C2047 H2063 0.961 . S
C2048 C2049 1.370 . S
C2048 C2050 1.363 . S
C2048 H2064 0.931 . S
C2049 C2048 1.370 . S
C2049 C2053 1.408 . S
C2050 C2048 1.363 . S
C2050 C2051 1.370 . S
C2050 C2054 1.524 . S
C2051 C2043 1.503 1_655 S
C2051 C2050 1.370 . S
C2051 C2052 1.403 . S
C2052 C2051 1.403 . S
C2052 C2053 1.404 . S
C2052 C2055 1.539 . S
C2053 C2049 1.408 . S
C2053 C2052 1.404 . S
C2053 H2065 0.930 . S
C2054 C2050 1.524 . S
C2054 H2066 0.956 . S
C2054 H2067 0.961 . S
C2054 H2068 0.961 . S
C2055 C2052 1.539 . S
C2055 H2069 0.958 . S
C2055 H2070 0.961 . S
C2055 H2071 0.960 1_655 S
H2056 C2040 0.931 . S
H2057 C2045 0.929 . S
H2058 C2046 0.960 . S
H2059 C2046 0.962 . S
H2060 C2046 0.960 . S
H2061 C2047 0.961 . S
H2062 C2047 0.961 1_655 S
H2063 C2047 0.961 . S
H2064 C2048 0.931 . S
H2065 C2053 0.930 . S
H2066 C2054 0.956 . S
H2067 C2054 0.961 . S
H2068 C2054 0.961 . S
H2069 C2055 0.958 . S
H2070 C2055 0.961 . S
H2071 C2055 0.960 1_455 S
C2072 C2073 1.391 . S
C2072 C2074 1.394 . S
C2072 H2088 0.931 . S
C2073 C2072 1.391 . S
C2073 C2077 1.376 . S
C2074 C2072 1.394 . S
C2074 C2075 1.369 . S
C2074 C2078 1.531 . S
C2075 C2074 1.369 . S
C2075 C2076 1.410 . S
C2075 C2083 1.503 . S
C2076 C2075 1.410 . S
C2076 C2077 1.392 . S
C2076 C2079 1.511 . S
C2077 C2073 1.376 . S
C2077 C2076 1.392 . S
C2077 H2089 0.929 . S
C2078 C2074 1.531 . S
C2078 H2090 0.960 . S
C2078 H2091 0.962 . S
C2078 H2092 0.960 . S
C2079 C2076 1.511 . S
C2079 H2093 0.961 . S
C2079 H2094 0.961 . S
C2079 H2095 0.961 . S
C2080 C2081 1.370 . S
C2080 C2082 1.363 . S
C2080 H2096 0.931 . S
C2081 C2080 1.370 . S
C2081 C2085 1.408 . S
C2082 C2080 1.363 . S
C2082 C2083 1.370 . S
C2082 C2086 1.524 . S
C2083 C2075 1.503 . S
C2083 C2082 1.370 . S
C2083 C2084 1.403 . S
C2084 C2083 1.403 . S
C2084 C2085 1.404 . S
C2084 C2087 1.539 . S
C2085 C2081 1.408 . S
C2085 C2084 1.404 . S
C2085 H2097 0.930 . S
C2086 C2082 1.524 . S
C2086 H2098 0.956 . S
C2086 H2099 0.961 . S
C2086 H2100 0.961 . S
C2087 C2084 1.539 . S
C2087 H2101 0.958 . S
C2087 H2102 0.961 . S
C2087 H2103 0.960 . S
H2088 C2072 0.931 . S
H2089 C2077 0.929 . S
H2090 C2078 0.960 . S
H2091 C2078 0.962 . S
H2092 C2078 0.960 . S
H2093 C2079 0.961 . S
H2094 C2079 0.961 . S
H2095 C2079 0.961 . S
H2096 C2080 0.931 . S
H2097 C2085 0.930 . S
H2098 C2086 0.956 . S
H2099 C2086 0.961 . S
H2100 C2086 0.961 . S
H2101 C2087 0.958 . S
H2102 C2087 0.961 . S
H2103 C2087 0.960 . S
C2104 C2105 1.391 . S
C2104 C2106 1.394 . S
C2104 H2120 0.931 . S
C2105 C2104 1.391 . S
C2105 C2109 1.376 . S
C2106 C2104 1.394 . S
C2106 C2107 1.369 . S
C2106 C2110 1.531 . S
C2107 C2106 1.369 . S
C2107 C2108 1.410 . S
C2107 C2115 1.503 1_545 S
C2108 C2107 1.410 . S
C2108 C2109 1.392 . S
C2108 C2111 1.511 . S
C2109 C2105 1.376 . S
C2109 C2108 1.392 . S
C2109 H2121 0.929 . S
C2110 C2106 1.531 . S
C2110 H2122 0.960 1_545 S
C2110 H2123 0.962 . S
C2110 H2124 0.960 . S
C2111 C2108 1.511 . S
C2111 H2125 0.961 . S
C2111 H2126 0.960 . S
C2111 H2127 0.961 . S
C2112 C2113 1.370 . S
C2112 C2114 1.363 . S
C2112 H2128 0.931 . S
C2113 C2112 1.370 . S
C2113 C2117 1.408 . S
C2114 C2112 1.363 . S
C2114 C2115 1.370 . S
C2114 C2118 1.524 . S
C2115 C2107 1.503 1_565 S
C2115 C2114 1.370 . S
C2115 C2116 1.403 . S
C2116 C2115 1.403 . S
C2116 C2117 1.404 . S
C2116 C2119 1.539 . S
C2117 C2113 1.408 . S
C2117 C2116 1.404 . S
C2117 H2129 0.930 . S
C2118 C2114 1.524 . S
C2118 H2130 0.956 1_565 S
C2118 H2131 0.961 1_565 S
C2118 H2132 0.961 . S
C2119 C2116 1.539 . S
C2119 H2133 0.958 . S
C2119 H2134 0.961 . S
C2119 H2135 0.960 . S
H2120 C2104 0.931 . S
H2121 C2109 0.929 . S
H2122 C2110 0.960 1_565 S
H2123 C2110 0.962 . S
H2124 C2110 0.960 . S
H2125 C2111 0.961 . S
H2126 C2111 0.960 . S
H2127 C2111 0.961 . S
H2128 C2112 0.931 . S
H2129 C2117 0.930 . S
H2130 C2118 0.956 1_545 S
H2131 C2118 0.961 1_545 S
H2132 C2118 0.961 . S
H2133 C2119 0.958 . S
H2134 C2119 0.961 . S
H2135 C2119 0.960 . S
C2136 C2137 1.391 . S
C2136 C2138 1.394 . S
C2136 H2152 0.931 . S
C2137 C2136 1.391 . S
C2137 C2141 1.376 . S
C2138 C2136 1.394 . S
C2138 C2139 1.369 . S
C2138 C2142 1.531 . S
C2139 C2138 1.369 . S
C2139 C2140 1.410 . S
C2139 C2147 1.503 1_545 S
C2140 C2139 1.410 . S
C2140 C2141 1.392 . S
C2140 C2143 1.511 . S
C2141 C2137 1.376 . S
C2141 C2140 1.392 . S
C2141 H2153 0.929 . S
C2142 C2138 1.531 . S
C2142 H2154 0.951 1_545 S
C2142 H2155 0.962 . S
C2142 H2156 0.960 . S
C2143 C2140 1.511 . S
C2143 H2157 0.961 . S
C2143 H2158 0.961 1_545 S
C2143 H2159 0.961 . S
C2144 C2145 1.370 . S
C2144 C2146 1.363 . S
C2144 H2160 0.931 . S
C2145 C2144 1.370 . S
C2145 C2149 1.408 . S
C2146 C2144 1.363 . S
C2146 C2147 1.370 . S
C2146 C2150 1.524 . S
C2147 C2139 1.503 1_565 S
C2147 C2146 1.370 . S
C2147 C2148 1.403 . S
C2148 C2147 1.403 . S
C2148 C2149 1.404 . S
C2148 C2151 1.539 . S
C2149 C2145 1.408 . S
C2149 C2148 1.404 . S
C2149 H2161 0.930 . S
C2150 C2146 1.524 . S
C2150 H2162 0.956 1_565 S
C2150 H2163 0.961 1_565 S
C2150 H2164 0.961 . S
C2151 C2148 1.539 . S
C2151 H2165 0.958 . S
C2151 H2166 0.961 . S
C2151 H2167 0.960 . S
H2152 C2136 0.931 . S
H2153 C2141 0.929 . S
H2154 C2142 0.951 1_565 S
H2155 C2142 0.962 . S
H2156 C2142 0.960 . S
H2157 C2143 0.961 . S
H2158 C2143 0.961 1_565 S
H2159 C2143 0.961 . S
H2160 C2144 0.931 . S
H2161 C2149 0.930 . S
H2162 C2150 0.956 1_545 S
H2163 C2150 0.961 1_545 S
H2164 C2150 0.961 . S
H2165 C2151 0.958 . S
H2166 C2151 0.961 . S
H2167 C2151 0.960 . S
C2168 C2169 1.391 . S
C2168 C2170 1.394 . S
C2168 H2184 0.931 . S
C2169 C2168 1.391 . S
C2169 C2173 1.376 . S
C2170 C2168 1.394 . S
C2170 C2171 1.369 . S
C2170 C2174 1.531 . S
C2171 C2170 1.369 . S
C2171 C2172 1.410 . S
C2171 C2179 1.503 1_655 S
C2172 C2171 1.410 . S
C2172 C2173 1.392 . S
C2172 C2175 1.511 . S
C2173 C2169 1.376 . S
C2173 C2172 1.392 . S
C2173 H2185 0.929 . S
C2174 C2170 1.531 . S
C2174 H2186 0.960 1_655 S
C2174 H2187 0.978 1_655 S
C2174 H2188 0.960 . S
C2175 C2172 1.511 . S
C2175 H2189 0.961 . S
C2175 H2190 0.961 . S
C2175 H2191 0.961 . S
C2176 C2177 1.370 . S
C2176 C2178 1.363 . S
C2176 H2192 0.931 . S
C2177 C2176 1.370 . S
C2177 C2181 1.408 . S
C2178 C2176 1.363 . S
C2178 C2179 1.370 . S
C2178 C2182 1.524 . S
C2179 C2171 1.503 1_455 S
C2179 C2178 1.370 . S
C2179 C2180 1.403 . S
C2180 C2179 1.403 . S
C2180 C2181 1.404 . S
C2180 C2183 1.539 . S
C2181 C2177 1.408 . S
C2181 C2180 1.404 . S
C2181 H2193 0.930 . S
C2182 C2178 1.524 . S
C2182 H2194 0.956 . S
C2182 H2195 0.961 1_455 S
C2182 H2196 0.961 . S
C2183 C2180 1.539 . S
C2183 H2197 0.958 . S
C2183 H2198 0.961 . S
C2183 H2199 0.960 1_455 S
H2184 C2168 0.931 . S
H2185 C2173 0.929 . S
H2186 C2174 0.960 1_455 S
H2187 C2174 0.978 1_455 S
H2188 C2174 0.960 . S
H2189 C2175 0.961 . S
H2190 C2175 0.961 . S
H2191 C2175 0.961 . S
H2192 C2176 0.931 . S
H2193 C2181 0.930 . S
H2194 C2182 0.956 . S
H2195 C2182 0.961 1_655 S
H2196 C2182 0.961 . S
H2197 C2183 0.958 . S
H2198 C2183 0.961 . S
H2199 C2183 0.960 1_655 S
C2200 C2201 1.391 . S
C2200 C2202 1.394 . S
C2200 H2216 0.931 . S
C2201 C2200 1.391 . S
C2201 C2205 1.376 . S
C2202 C2200 1.394 . S
C2202 C2203 1.369 . S
C2202 C2206 1.531 . S
C2203 C2202 1.369 . S
C2203 C2204 1.410 . S
C2203 C2211 1.503 . S
C2204 C2203 1.410 . S
C2204 C2205 1.392 . S
C2204 C2207 1.511 . S
C2205 C2201 1.376 . S
C2205 C2204 1.392 . S
C2205 H2217 0.929 . S
C2206 C2202 1.531 . S
C2206 H2218 0.960 . S
C2206 H2219 0.962 . S
C2206 H2220 0.960 . S
C2207 C2204 1.511 . S
C2207 H2221 0.961 . S
C2207 H2222 0.961 . S
C2207 H2223 0.961 . S
C2208 C2209 1.370 . S
C2208 C2210 1.363 . S
C2208 H2224 0.931 . S
C2209 C2208 1.370 . S
C2209 C2213 1.408 . S
C2210 C2208 1.363 . S
C2210 C2211 1.370 . S
C2210 C2214 1.524 . S
C2211 C2203 1.503 . S
C2211 C2210 1.370 . S
C2211 C2212 1.403 . S
C2212 C2211 1.403 . S
C2212 C2213 1.404 . S
C2212 C2215 1.539 . S
C2213 C2209 1.408 . S
C2213 C2212 1.404 . S
C2213 H2225 0.930 . S
C2214 C2210 1.524 . S
C2214 H2226 0.956 . S
C2214 H2227 0.961 . S
C2214 H2228 0.961 . S
C2215 C2212 1.539 . S
C2215 H2229 0.958 . S
C2215 H2230 0.961 . S
C2215 H2231 0.960 . S
H2216 C2200 0.931 . S
H2217 C2205 0.929 . S
H2218 C2206 0.960 . S
H2219 C2206 0.962 . S
H2220 C2206 0.960 . S
H2221 C2207 0.961 . S
H2222 C2207 0.961 . S
H2223 C2207 0.961 . S
H2224 C2208 0.931 . S
H2225 C2213 0.930 . S
H2226 C2214 0.956 . S
H2227 C2214 0.961 . S
H2228 C2214 0.961 . S
H2229 C2215 0.958 . S
H2230 C2215 0.961 . S
H2231 C2215 0.960 . S
C2232 C2233 1.391 . S
C2232 C2234 1.394 . S
C2232 H2248 0.931 . S
C2233 C2232 1.391 . S
C2233 C2237 1.376 . S
C2234 C2232 1.394 . S
C2234 C2235 1.369 . S
C2234 C2238 1.531 . S
C2235 C2234 1.369 . S
C2235 C2236 1.410 . S
C2235 C2243 1.503 . S
C2236 C2235 1.410 . S
C2236 C2237 1.392 . S
C2236 C2239 1.511 . S
C2237 C2233 1.376 . S
C2237 C2236 1.392 . S
C2237 H2249 0.929 . S
C2238 C2234 1.531 . S
C2238 H2250 0.960 . S
C2238 H2251 0.962 . S
C2238 H2252 0.960 . S
C2239 C2236 1.511 . S
C2239 H2253 0.961 . S
C2239 H2254 0.961 . S
C2239 H2255 0.961 . S
C2240 C2241 1.370 . S
C2240 C2242 1.363 . S
C2240 H2256 0.931 . S
C2241 C2240 1.370 . S
C2241 C2245 1.408 . S
C2242 C2240 1.363 . S
C2242 C2243 1.370 . S
C2242 C2246 1.524 . S
C2243 C2235 1.503 . S
C2243 C2242 1.370 . S
C2243 C2244 1.403 . S
C2244 C2243 1.403 . S
C2244 C2245 1.404 . S
C2244 C2247 1.539 . S
C2245 C2241 1.408 . S
C2245 C2244 1.404 . S
C2245 H2257 0.930 . S
C2246 C2242 1.524 . S
C2246 H2258 0.956 . S
C2246 H2259 0.961 . S
C2246 H2260 0.961 . S
C2247 C2244 1.539 . S
C2247 H2261 0.958 . S
C2247 H2262 0.961 . S
C2247 H2263 0.960 . S
H2248 C2232 0.931 . S
H2249 C2237 0.929 . S
H2250 C2238 0.960 . S
H2251 C2238 0.962 . S
H2252 C2238 0.960 . S
H2253 C2239 0.961 . S
H2254 C2239 0.961 . S
H2255 C2239 0.961 . S
H2256 C2240 0.931 . S
H2257 C2245 0.930 . S
H2258 C2246 0.956 . S
H2259 C2246 0.961 . S
H2260 C2246 0.961 . S
H2261 C2247 0.958 . S
H2262 C2247 0.961 . S
H2263 C2247 0.960 . S
C2264 C2265 1.391 . S
C2264 C2266 1.394 . S
C2264 H2280 0.931 . S
C2265 C2264 1.391 . S
C2265 C2269 1.376 . S
C2266 C2264 1.394 . S
C2266 C2267 1.369 . S
C2266 C2270 1.531 . S
C2267 C2266 1.369 . S
C2267 C2268 1.410 . S
C2267 C2275 1.503 . S
C2268 C2267 1.410 . S
C2268 C2269 1.392 . S
C2268 C2271 1.511 . S
C2269 C2265 1.376 . S
C2269 C2268 1.392 . S
C2269 H2281 0.929 . S
C2270 C2266 1.531 . S
C2270 H2282 0.960 . S
C2270 H2283 0.962 . S
C2270 H2284 0.960 . S
C2271 C2268 1.511 . S
C2271 H2285 0.961 . S
C2271 H2286 0.961 . S
C2271 H2287 0.961 . S
C2272 C2273 1.370 . S
C2272 C2274 1.363 . S
C2272 H2288 0.931 . S
C2273 C2272 1.370 . S
C2273 C2277 1.408 . S
C2274 C2272 1.363 . S
C2274 C2275 1.370 . S
C2274 C2278 1.524 . S
C2275 C2267 1.503 . S
C2275 C2274 1.370 . S
C2275 C2276 1.403 . S
C2276 C2275 1.403 . S
C2276 C2277 1.404 . S
C2276 C2279 1.539 . S
C2277 C2273 1.408 . S
C2277 C2276 1.404 . S
C2277 H2289 0.930 . S
C2278 C2274 1.524 . S
C2278 H2290 0.956 . S
C2278 H2291 0.961 . S
C2278 H2292 0.961 . S
C2279 C2276 1.539 . S
C2279 H2293 0.958 . S
C2279 H2294 0.961 . S
C2279 H2295 0.960 . S
H2280 C2264 0.931 . S
H2281 C2269 0.929 . S
H2282 C2270 0.960 . S
H2283 C2270 0.962 . S
H2284 C2270 0.960 . S
H2285 C2271 0.961 . S
H2286 C2271 0.961 . S
H2287 C2271 0.961 . S
H2288 C2272 0.931 . S
H2289 C2277 0.930 . S
H2290 C2278 0.956 . S
H2291 C2278 0.961 . S
H2292 C2278 0.961 . S
H2293 C2279 0.958 . S
H2294 C2279 0.961 . S
H2295 C2279 0.960 . S
C2296 C2297 1.391 . S
C2296 C2298 1.394 . S
C2296 H2312 0.931 . S
C2297 C2296 1.391 . S
C2297 C2301 1.376 . S
C2298 C2296 1.394 . S
C2298 C2299 1.369 . S
C2298 C2302 1.531 . S
C2299 C2298 1.369 . S
C2299 C2300 1.410 . S
C2299 C2307 1.503 . S
C2300 C2299 1.410 . S
C2300 C2301 1.392 . S
C2300 C2303 1.511 . S
C2301 C2297 1.376 . S
C2301 C2300 1.392 . S
C2301 H2313 0.929 . S
C2302 C2298 1.531 . S
C2302 H2314 0.960 . S
C2302 H2315 0.962 . S
C2302 H2316 0.960 . S
C2303 C2300 1.511 . S
C2303 H2317 0.961 . S
C2303 H2318 0.961 . S
C2303 H2319 0.961 . S
C2304 C2305 1.370 . S
C2304 C2306 1.363 . S
C2304 H2320 0.931 . S
C2305 C2304 1.370 . S
C2305 C2309 1.408 . S
C2306 C2304 1.363 . S
C2306 C2307 1.370 . S
C2306 C2310 1.524 . S
C2307 C2299 1.503 . S
C2307 C2306 1.370 . S
C2307 C2308 1.403 . S
C2308 C2307 1.403 . S
C2308 C2309 1.404 . S
C2308 C2311 1.539 . S
C2309 C2305 1.408 . S
C2309 C2308 1.404 . S
C2309 H2321 0.930 . S
C2310 C2306 1.524 . S
C2310 H2322 0.956 . S
C2310 H2323 0.961 . S
C2310 H2324 0.961 . S
C2311 C2308 1.539 . S
C2311 H2325 0.958 . S
C2311 H2326 0.961 . S
C2311 H2327 0.960 . S
H2312 C2296 0.931 . S
H2313 C2301 0.929 . S
H2314 C2302 0.960 . S
H2315 C2302 0.962 . S
H2316 C2302 0.960 . S
H2317 C2303 0.961 . S
H2318 C2303 0.961 . S
H2319 C2303 0.961 . S
H2320 C2304 0.931 . S
H2321 C2309 0.930 . S
H2322 C2310 0.956 . S
H2323 C2310 0.961 . S
H2324 C2310 0.961 . S
H2325 C2311 0.958 . S
H2326 C2311 0.961 . S
H2327 C2311 0.960 . S
C2328 C2329 1.391 . S
C2328 C2330 1.394 . S
C2328 H2344 0.931 . S
C2329 C2328 1.391 . S
C2329 C2333 1.376 . S
C2330 C2328 1.394 . S
C2330 C2331 1.369 . S
C2330 C2334 1.531 . S
C2331 C2330 1.369 . S
C2331 C2332 1.410 . S
C2331 C2339 1.503 . S
C2332 C2331 1.410 . S
C2332 C2333 1.392 . S
C2332 C2335 1.511 . S
C2333 C2329 1.376 . S
C2333 C2332 1.392 . S
C2333 H2345 0.929 . S
C2334 C2330 1.531 . S
C2334 H2346 0.960 . S
C2334 H2347 0.962 . S
C2334 H2348 0.960 . S
C2335 C2332 1.511 . S
C2335 H2349 0.961 . S
C2335 H2350 0.961 . S
C2335 H2351 0.961 . S
C2336 C2337 1.370 . S
C2336 C2338 1.363 . S
C2336 H2352 0.931 . S
C2337 C2336 1.370 . S
C2337 C2341 1.408 . S
C2338 C2336 1.363 . S
C2338 C2339 1.370 . S
C2338 C2342 1.524 . S
C2339 C2331 1.503 . S
C2339 C2338 1.370 . S
C2339 C2340 1.403 . S
C2340 C2339 1.403 . S
C2340 C2341 1.404 . S
C2340 C2343 1.539 . S
C2341 C2337 1.408 . S
C2341 C2340 1.404 . S
C2341 H2353 0.930 . S
C2342 C2338 1.524 . S
C2342 H2354 0.956 . S
C2342 H2355 0.961 . S
C2342 H2356 0.961 . S
C2343 C2340 1.539 . S
C2343 H2357 0.958 . S
C2343 H2358 0.961 . S
C2343 H2359 0.960 . S
H2344 C2328 0.931 . S
H2345 C2333 0.929 . S
H2346 C2334 0.960 . S
H2347 C2334 0.962 . S
H2348 C2334 0.960 . S
H2349 C2335 0.961 . S
H2350 C2335 0.961 . S
H2351 C2335 0.961 . S
H2352 C2336 0.931 . S
H2353 C2341 0.930 . S
H2354 C2342 0.956 . S
H2355 C2342 0.961 . S
H2356 C2342 0.961 . S
H2357 C2343 0.958 . S
H2358 C2343 0.961 . S
H2359 C2343 0.960 . S
C2360 C2361 1.391 . S
C2360 C2362 1.394 . S
C2360 H2376 0.931 . S
C2361 C2360 1.391 . S
C2361 C2365 1.376 . S
C2362 C2360 1.394 . S
C2362 C2363 1.369 . S
C2362 C2366 1.531 . S
C2363 C2362 1.369 . S
C2363 C2364 1.410 . S
C2363 C2371 1.503 . S
C2364 C2363 1.410 . S
C2364 C2365 1.392 . S
C2364 C2367 1.511 . S
C2365 C2361 1.376 . S
C2365 C2364 1.392 . S
C2365 H2377 0.929 . S
C2366 C2362 1.531 . S
C2366 H2378 0.960 . S
C2366 H2379 0.962 . S
C2366 H2380 0.960 . S
C2367 C2364 1.511 . S
C2367 H2381 0.961 . S
C2367 H2382 0.961 . S
C2367 H2383 0.961 . S
C2368 C2369 1.370 . S
C2368 C2370 1.363 . S
C2368 H2384 0.931 . S
C2369 C2368 1.370 . S
C2369 C2373 1.408 . S
C2370 C2368 1.363 . S
C2370 C2371 1.370 . S
C2370 C2374 1.524 . S
C2371 C2363 1.503 . S
C2371 C2370 1.370 . S
C2371 C2372 1.403 . S
C2372 C2371 1.403 . S
C2372 C2373 1.404 . S
C2372 C2375 1.539 . S
C2373 C2369 1.408 . S
C2373 C2372 1.404 . S
C2373 H2385 0.930 . S
C2374 C2370 1.524 . S
C2374 H2386 0.956 . S
C2374 H2387 0.961 . S
C2374 H2388 0.961 . S
C2375 C2372 1.539 . S
C2375 H2389 0.958 . S
C2375 H2390 0.961 . S
C2375 H2391 0.960 . S
H2376 C2360 0.931 . S
H2377 C2365 0.929 . S
H2378 C2366 0.960 . S
H2379 C2366 0.962 . S
H2380 C2366 0.960 . S
H2381 C2367 0.961 . S
H2382 C2367 0.961 . S
H2383 C2367 0.961 . S
H2384 C2368 0.931 . S
H2385 C2373 0.930 . S
H2386 C2374 0.956 . S
H2387 C2374 0.961 . S
H2388 C2374 0.961 . S
H2389 C2375 0.958 . S
H2390 C2375 0.961 . S
H2391 C2375 0.960 . S
C2392 C2393 1.391 . S
C2392 C2394 1.394 . S
C2392 H2408 0.931 . S
C2393 C2392 1.391 . S
C2393 C2397 1.376 . S
C2394 C2392 1.394 . S
C2394 C2395 1.369 . S
C2394 C2398 1.531 . S
C2395 C2394 1.369 . S
C2395 C2396 1.410 . S
C2395 C2403 1.503 . S
C2396 C2395 1.410 . S
C2396 C2397 1.392 . S
C2396 C2399 1.511 . S
C2397 C2393 1.376 . S
C2397 C2396 1.392 . S
C2397 H2409 0.929 . S
C2398 C2394 1.531 . S
C2398 H2410 0.960 . S
C2398 H2411 0.962 . S
C2398 H2412 0.960 . S
C2399 C2396 1.511 . S
C2399 H2413 0.961 . S
C2399 H2414 0.961 . S
C2399 H2415 0.961 . S
C2400 C2401 1.370 . S
C2400 C2402 1.363 . S
C2400 H2416 0.931 . S
C2401 C2400 1.370 . S
C2401 C2405 1.408 . S
C2402 C2400 1.363 . S
C2402 C2403 1.370 . S
C2402 C2406 1.524 . S
C2403 C2395 1.503 . S
C2403 C2402 1.370 . S
C2403 C2404 1.403 . S
C2404 C2403 1.403 . S
C2404 C2405 1.404 . S
C2404 C2407 1.539 . S
C2405 C2401 1.408 . S
C2405 C2404 1.404 . S
C2405 H2417 0.930 . S
C2406 C2402 1.524 . S
C2406 H2418 0.956 . S
C2406 H2419 0.961 . S
C2406 H2420 0.961 . S
C2407 C2404 1.539 . S
C2407 H2421 0.958 . S
C2407 H2422 0.961 . S
C2407 H2423 0.960 . S
H2408 C2392 0.931 . S
H2409 C2397 0.929 . S
H2410 C2398 0.960 . S
H2411 C2398 0.962 . S
H2412 C2398 0.960 . S
H2413 C2399 0.961 . S
H2414 C2399 0.961 . S
H2415 C2399 0.961 . S
H2416 C2400 0.931 . S
H2417 C2405 0.930 . S
H2418 C2406 0.956 . S
H2419 C2406 0.961 . S
H2420 C2406 0.961 . S
H2421 C2407 0.958 . S
H2422 C2407 0.961 . S
H2423 C2407 0.960 . S
C2424 C2425 1.391 . S
C2424 C2426 1.394 . S
C2424 H2440 0.931 . S
C2425 C2424 1.391 . S
C2425 C2429 1.376 . S
C2426 C2424 1.394 . S
C2426 C2427 1.369 . S
C2426 C2430 1.531 . S
C2427 C2426 1.369 . S
C2427 C2428 1.410 . S
C2427 C2435 1.503 . S
C2428 C2427 1.410 . S
C2428 C2429 1.392 . S
C2428 C2431 1.511 . S
C2429 C2425 1.376 . S
C2429 C2428 1.392 . S
C2429 H2441 0.929 . S
C2430 C2426 1.531 . S
C2430 H2442 0.960 . S
C2430 H2443 0.962 . S
C2430 H2444 0.960 . S
C2431 C2428 1.511 . S
C2431 H2445 0.961 . S
C2431 H2446 0.961 . S
C2431 H2447 0.961 . S
C2432 C2433 1.370 . S
C2432 C2434 1.363 . S
C2432 H2448 0.931 . S
C2433 C2432 1.370 . S
C2433 C2437 1.408 . S
C2434 C2432 1.363 . S
C2434 C2435 1.370 . S
C2434 C2438 1.524 . S
C2435 C2427 1.503 . S
C2435 C2434 1.370 . S
C2435 C2436 1.403 . S
C2436 C2435 1.403 . S
C2436 C2437 1.404 . S
C2436 C2439 1.539 . S
C2437 C2433 1.408 . S
C2437 C2436 1.404 . S
C2437 H2449 0.930 . S
C2438 C2434 1.524 . S
C2438 H2450 0.956 . S
C2438 H2451 0.961 . S
C2438 H2452 0.961 . S
C2439 C2436 1.539 . S
C2439 H2453 0.958 . S
C2439 H2454 0.961 . S
C2439 H2455 0.960 . S
H2440 C2424 0.931 . S
H2441 C2429 0.929 . S
H2442 C2430 0.960 . S
H2443 C2430 0.962 . S
H2444 C2430 0.960 . S
H2445 C2431 0.961 . S
H2446 C2431 0.961 . S
H2447 C2431 0.961 . S
H2448 C2432 0.931 . S
H2449 C2437 0.930 . S
H2450 C2438 0.956 . S
H2451 C2438 0.961 . S
H2452 C2438 0.961 . S
H2453 C2439 0.958 . S
H2454 C2439 0.961 . S
H2455 C2439 0.960 . S
C2456 C2457 1.391 . S
C2456 C2458 1.394 . S
C2456 H2472 0.931 . S
C2457 C2456 1.391 . S
C2457 C2461 1.376 . S
C2458 C2456 1.394 . S
C2458 C2459 1.369 . S
C2458 C2462 1.531 . S
C2459 C2458 1.369 . S
C2459 C2460 1.410 . S
C2459 C2467 1.503 . S
C2460 C2459 1.410 . S
C2460 C2461 1.392 . S
C2460 C2463 1.511 . S
C2461 C2457 1.376 . S
C2461 C2460 1.392 . S
C2461 H2473 0.929 . S
C2462 C2458 1.531 . S
C2462 H2474 0.960 . S
C2462 H2475 0.962 . S
C2462 H2476 0.960 . S
C2463 C2460 1.511 . S
C2463 H2477 0.961 . S
C2463 H2478 0.961 . S
C2463 H2479 0.961 . S
C2464 C2465 1.370 . S
C2464 C2466 1.363 . S
C2464 H2480 0.931 . S
C2465 C2464 1.370 . S
C2465 C2469 1.408 . S
C2466 C2464 1.363 . S
C2466 C2467 1.370 . S
C2466 C2470 1.524 . S
C2467 C2459 1.503 . S
C2467 C2466 1.370 . S
C2467 C2468 1.403 . S
C2468 C2467 1.403 . S
C2468 C2469 1.404 . S
C2468 C2471 1.539 . S
C2469 C2465 1.408 . S
C2469 C2468 1.404 . S
C2469 H2481 0.930 . S
C2470 C2466 1.524 . S
C2470 H2482 0.956 . S
C2470 H2483 0.961 . S
C2470 H2484 0.961 . S
C2471 C2468 1.539 . S
C2471 H2485 0.958 . S
C2471 H2486 0.961 . S
C2471 H2487 0.960 . S
H2472 C2456 0.931 . S
H2473 C2461 0.929 . S
H2474 C2462 0.960 . S
H2475 C2462 0.962 . S
H2476 C2462 0.960 . S
H2477 C2463 0.961 . S
H2478 C2463 0.961 . S
H2479 C2463 0.961 . S
H2480 C2464 0.931 . S
H2481 C2469 0.930 . S
H2482 C2470 0.956 . S
H2483 C2470 0.961 . S
H2484 C2470 0.961 . S
H2485 C2471 0.958 . S
H2486 C2471 0.961 . S
H2487 C2471 0.960 . S
C2488 C2489 1.391 . S
C2488 C2490 1.394 . S
C2488 H2504 0.931 . S
C2489 C2488 1.391 . S
C2489 C2493 1.376 . S
C2490 C2488 1.394 . S
C2490 C2491 1.369 . S
C2490 C2494 1.531 . S
C2491 C2490 1.369 . S
C2491 C2492 1.410 . S
C2491 C2499 1.503 . S
C2492 C2491 1.410 . S
C2492 C2493 1.392 . S
C2492 C2495 1.511 . S
C2493 C2489 1.376 . S
C2493 C2492 1.392 . S
C2493 H2505 0.929 . S
C2494 C2490 1.531 . S
C2494 H2506 0.960 . S
C2494 H2507 0.962 . S
C2494 H2508 0.960 . S
C2495 C2492 1.511 . S
C2495 H2509 0.961 . S
C2495 H2510 0.961 . S
C2495 H2511 0.961 . S
C2496 C2497 1.370 . S
C2496 C2498 1.363 . S
C2496 H2512 0.931 . S
C2497 C2496 1.370 . S
C2497 C2501 1.408 . S
C2498 C2496 1.363 . S
C2498 C2499 1.370 . S
C2498 C2502 1.524 . S
C2499 C2491 1.503 . S
C2499 C2498 1.370 . S
C2499 C2500 1.403 . S
C2500 C2499 1.403 . S
C2500 C2501 1.404 . S
C2500 C2503 1.539 . S
C2501 C2497 1.408 . S
C2501 C2500 1.404 . S
C2501 H2513 0.930 . S
C2502 C2498 1.524 . S
C2502 H2514 0.956 . S
C2502 H2515 0.961 . S
C2502 H2516 0.961 . S
C2503 C2500 1.539 . S
C2503 H2517 0.958 . S
C2503 H2518 0.961 . S
C2503 H2519 0.960 . S
H2504 C2488 0.931 . S
H2505 C2493 0.929 . S
H2506 C2494 0.960 . S
H2507 C2494 0.962 . S
H2508 C2494 0.960 . S
H2509 C2495 0.961 . S
H2510 C2495 0.961 . S
H2511 C2495 0.961 . S
H2512 C2496 0.931 . S
H2513 C2501 0.930 . S
H2514 C2502 0.956 . S
H2515 C2502 0.961 . S
H2516 C2502 0.961 . S
H2517 C2503 0.958 . S
H2518 C2503 0.961 . S
H2519 C2503 0.960 . S
C2520 C2521 1.391 . S
C2520 C2522 1.394 . S
C2520 H2536 0.931 . S
C2521 C2520 1.391 . S
C2521 C2525 1.376 . S
C2522 C2520 1.394 . S
C2522 C2523 1.369 . S
C2522 C2526 1.531 . S
C2523 C2522 1.369 . S
C2523 C2524 1.410 . S
C2523 C2531 1.503 . S
C2524 C2523 1.410 . S
C2524 C2525 1.392 . S
C2524 C2527 1.511 1_554 S
C2525 C2521 1.376 . S
C2525 C2524 1.392 . S
C2525 H2537 0.929 1_554 S
C2526 C2522 1.531 . S
C2526 H2538 0.960 . S
C2526 H2539 0.962 . S
C2526 H2540 0.960 . S
C2527 C2524 1.511 1_556 S
C2527 H2541 0.961 . S
C2527 H2542 0.961 . S
C2527 H2543 0.961 . S
C2528 C2529 1.370 . S
C2528 C2530 1.363 . S
C2528 H2544 0.931 . S
C2529 C2528 1.370 . S
C2529 C2533 1.408 . S
C2530 C2528 1.363 . S
C2530 C2531 1.370 . S
C2530 C2534 1.524 . S
C2531 C2523 1.503 . S
C2531 C2530 1.370 . S
C2531 C2532 1.403 . S
C2532 C2531 1.403 . S
C2532 C2533 1.404 . S
C2532 C2535 1.539 . S
C2533 C2529 1.408 . S
C2533 C2532 1.404 . S
C2533 H2545 0.930 . S
C2534 C2530 1.524 . S
C2534 H2546 0.956 . S
C2534 H2547 0.961 . S
C2534 H2548 0.961 . S
C2535 C2532 1.539 . S
C2535 H2549 0.958 . S
C2535 H2550 0.961 1_554 S
C2535 H2551 0.960 1_554 S
H2536 C2520 0.931 . S
H2537 C2525 0.929 1_556 S
H2538 C2526 0.960 . S
H2539 C2526 0.962 . S
H2540 C2526 0.960 . S
H2541 C2527 0.961 . S
H2542 C2527 0.961 . S
H2543 C2527 0.961 . S
H2544 C2528 0.931 . S
H2545 C2533 0.930 . S
H2546 C2534 0.956 . S
H2547 C2534 0.961 . S
H2548 C2534 0.961 . S
H2549 C2535 0.958 . S
H2550 C2535 0.961 1_556 S
H2551 C2535 0.960 1_556 S
C2552 C2553 1.391 . S
C2552 C2554 1.394 . S
C2552 H2568 0.931 . S
C2553 C2552 1.391 . S
C2553 C2557 1.376 . S
C2554 C2552 1.394 . S
C2554 C2555 1.369 . S
C2554 C2558 1.531 . S
C2555 C2554 1.369 . S
C2555 C2556 1.410 . S
C2555 C2563 1.503 . S
C2556 C2555 1.410 . S
C2556 C2557 1.392 . S
C2556 C2559 1.511 . S
C2557 C2553 1.376 . S
C2557 C2556 1.392 . S
C2557 H2569 0.929 . S
C2558 C2554 1.531 . S
C2558 H2570 0.960 . S
C2558 H2571 0.962 . S
C2558 H2572 0.960 . S
C2559 C2556 1.511 . S
C2559 H2573 0.961 1_554 S
C2559 H2574 0.961 . S
C2559 H2575 0.961 . S
C2560 C2561 1.370 . S
C2560 C2562 1.363 . S
C2560 H2576 0.931 . S
C2561 C2560 1.370 . S
C2561 C2565 1.408 . S
C2562 C2560 1.363 . S
C2562 C2563 1.370 . S
C2562 C2566 1.524 1_554 S
C2563 C2555 1.503 . S
C2563 C2562 1.370 . S
C2563 C2564 1.403 . S
C2564 C2563 1.403 . S
C2564 C2565 1.404 . S
C2564 C2567 1.539 . S
C2565 C2561 1.408 . S
C2565 C2564 1.404 . S
C2565 H2577 0.930 . S
C2566 C2562 1.524 1_556 S
C2566 H2578 0.956 1_556 S
C2566 H2579 0.961 . S
C2566 H2580 0.961 . S
C2567 C2564 1.539 . S
C2567 H2581 0.958 . S
C2567 H2582 0.961 . S
C2567 H2583 0.960 . S
H2568 C2552 0.931 . S
H2569 C2557 0.929 . S
H2570 C2558 0.960 . S
H2571 C2558 0.962 . S
H2572 C2558 0.960 . S
H2573 C2559 0.961 1_556 S
H2574 C2559 0.961 . S
H2575 C2559 0.961 . S
H2576 C2560 0.931 . S
H2577 C2565 0.930 . S
H2578 C2566 0.956 1_554 S
H2579 C2566 0.961 . S
H2580 C2566 0.961 . S
H2581 C2567 0.958 . S
H2582 C2567 0.961 . S
H2583 C2567 0.960 . S
C2584 C2585 1.391 . S
C2584 C2586 1.394 . S
C2584 H2600 0.931 . S
C2585 C2584 1.391 . S
C2585 C2589 1.376 . S
C2586 C2584 1.394 . S
C2586 C2587 1.369 . S
C2586 C2590 1.531 . S
C2587 C2586 1.369 . S
C2587 C2588 1.410 . S
C2587 C2595 1.503 . S
C2588 C2587 1.410 . S
C2588 C2589 1.392 . S
C2588 C2591 1.511 . S
C2589 C2585 1.376 . S
C2589 C2588 1.392 . S
C2589 H2601 0.929 . S
C2590 C2586 1.531 . S
C2590 H2602 0.960 . S
C2590 H2603 0.962 . S
C2590 H2604 0.960 . S
C2591 C2588 1.511 . S
C2591 H2605 0.961 . S
C2591 H2606 0.961 . S
C2591 H2607 0.961 1_554 S
C2592 C2593 1.370 . S
C2592 C2594 1.363 . S
C2592 H2608 0.931 . S
C2593 C2592 1.370 . S
C2593 C2597 1.408 . S
C2594 C2592 1.363 . S
C2594 C2595 1.370 . S
C2594 C2598 1.524 . S
C2595 C2587 1.503 . S
C2595 C2594 1.370 . S
C2595 C2596 1.403 . S
C2596 C2595 1.403 . S
C2596 C2597 1.404 . S
C2596 C2599 1.539 1_554 S
C2597 C2593 1.408 . S
C2597 C2596 1.404 . S
C2597 H2609 0.930 1_554 S
C2598 C2594 1.524 . S
C2598 H2610 0.956 . S
C2598 H2611 0.961 . S
C2598 H2612 0.961 . S
C2599 C2596 1.539 1_556 S
C2599 H2613 0.958 . S
C2599 H2614 0.961 . S
C2599 H2615 0.960 . S
H2600 C2584 0.931 . S
H2601 C2589 0.929 . S
H2602 C2590 0.960 . S
H2603 C2590 0.962 . S
H2604 C2590 0.960 . S
H2605 C2591 0.961 . S
H2606 C2591 0.961 . S
H2607 C2591 0.961 1_556 S
H2608 C2592 0.931 . S
H2609 C2597 0.930 1_556 S
H2610 C2598 0.956 . S
H2611 C2598 0.961 . S
H2612 C2598 0.961 . S
H2613 C2599 0.958 . S
H2614 C2599 0.961 . S
H2615 C2599 0.960 . S
C2616 C2617 1.391 . S
C2616 C2618 1.394 . S
C2616 H2632 0.931 1_556 S
C2617 C2616 1.391 . S
C2617 C2621 1.376 . S
C2618 C2616 1.394 . S
C2618 C2619 1.369 . S
C2618 C2622 1.531 1_556 S
C2619 C2618 1.369 . S
C2619 C2620 1.410 . S
C2619 C2627 1.503 . S
C2620 C2619 1.410 . S
C2620 C2621 1.392 . S
C2620 C2623 1.511 . S
C2621 C2617 1.376 . S
C2621 C2620 1.392 . S
C2621 H2633 0.929 . S
C2622 C2618 1.531 1_554 S
C2622 H2634 0.960 . S
C2622 H2635 0.962 . S
C2622 H2636 0.960 . S
C2623 C2620 1.511 . S
C2623 H2637 0.961 . S
C2623 H2638 0.961 . S
C2623 H2639 0.961 . S
C2624 C2625 1.370 . S
C2624 C2626 1.363 . S
C2624 H2640 0.931 . S
C2625 C2624 1.370 . S
C2625 C2629 1.408 . S
C2626 C2624 1.363 . S
C2626 C2627 1.370 . S
C2626 C2630 1.524 . S
C2627 C2619 1.503 . S
C2627 C2626 1.370 . S
C2627 C2628 1.403 . S
C2628 C2627 1.403 . S
C2628 C2629 1.404 . S
C2628 C2631 1.539 . S
C2629 C2625 1.408 . S
C2629 C2628 1.404 . S
C2629 H2641 0.930 . S
C2630 C2626 1.524 . S
C2630 H2642 0.956 . S
C2630 H2643 0.961 . S
C2630 H2644 0.961 . S
C2631 C2628 1.539 . S
C2631 H2645 0.958 . S
C2631 H2646 0.961 . S
C2631 H2647 0.960 . S
H2632 C2616 0.931 1_554 S
H2633 C2621 0.929 . S
H2634 C2622 0.960 . S
H2635 C2622 0.962 . S
H2636 C2622 0.960 . S
H2637 C2623 0.961 . S
H2638 C2623 0.961 . S
H2639 C2623 0.961 . S
H2640 C2624 0.931 . S
H2641 C2629 0.930 . S
H2642 C2630 0.956 . S
H2643 C2630 0.961 . S
H2644 C2630 0.961 . S
H2645 C2631 0.958 . S
H2646 C2631 0.961 . S
H2647 C2631 0.960 . S
C2648 C2649 1.391 . S
C2648 C2650 1.394 . S
C2648 H2664 0.931 . S
C2649 C2648 1.391 . S
C2649 C2653 1.376 . S
C2650 C2648 1.394 . S
C2650 C2651 1.369 . S
C2650 C2654 1.531 . S
C2651 C2650 1.369 . S
C2651 C2652 1.410 . S
C2651 C2659 1.503 . S
C2652 C2651 1.410 . S
C2652 C2653 1.392 . S
C2652 C2655 1.511 . S
C2653 C2649 1.376 . S
C2653 C2652 1.392 . S
C2653 H2665 0.929 . S
C2654 C2650 1.531 . S
C2654 H2666 0.960 . S
C2654 H2667 0.962 . S
C2654 H2668 0.960 . S
C2655 C2652 1.511 . S
C2655 H2669 0.961 . S
C2655 H2670 0.961 . S
C2655 H2671 0.961 1_556 S
C2656 C2657 1.370 . S
C2656 C2658 1.363 . S
C2656 H2672 0.931 . S
C2657 C2656 1.370 . S
C2657 C2661 1.408 . S
C2658 C2656 1.363 . S
C2658 C2659 1.370 . S
C2658 C2662 1.524 . S
C2659 C2651 1.503 . S
C2659 C2658 1.370 . S
C2659 C2660 1.403 . S
C2660 C2659 1.403 . S
C2660 C2661 1.404 . S
C2660 C2663 1.539 1_556 S
C2661 C2657 1.408 . S
C2661 C2660 1.404 . S
C2661 H2673 0.930 1_556 S
C2662 C2658 1.524 . S
C2662 H2674 0.956 . S
C2662 H2675 0.961 . S
C2662 H2676 0.961 . S
C2663 C2660 1.539 1_554 S
C2663 H2677 0.958 . S
C2663 H2678 0.961 . S
C2663 H2679 0.960 . S
H2664 C2648 0.931 . S
H2665 C2653 0.929 . S
H2666 C2654 0.960 . S
H2667 C2654 0.962 . S
H2668 C2654 0.960 . S
H2669 C2655 0.961 . S
H2670 C2655 0.961 . S
H2671 C2655 0.961 1_554 S
H2672 C2656 0.931 . S
H2673 C2661 0.930 1_554 S
H2674 C2662 0.956 . S
H2675 C2662 0.961 . S
H2676 C2662 0.961 . S
H2677 C2663 0.958 . S
H2678 C2663 0.961 . S
H2679 C2663 0.960 . S
C2680 C2681 1.391 . S
C2680 C2682 1.394 . S
C2680 H2696 0.931 1_556 S
C2681 C2680 1.391 . S
C2681 C2685 1.376 . S
C2682 C2680 1.394 . S
C2682 C2683 1.369 . S
C2682 C2686 1.531 1_556 S
C2683 C2682 1.369 . S
C2683 C2684 1.410 . S
C2683 C2691 1.503 . S
C2684 C2683 1.410 . S
C2684 C2685 1.392 . S
C2684 C2687 1.511 . S
C2685 C2681 1.376 . S
C2685 C2684 1.392 . S
C2685 H2697 0.929 . S
C2686 C2682 1.531 1_554 S
C2686 H2698 0.960 . S
C2686 H2699 0.962 . S
C2686 H2700 0.960 . S
C2687 C2684 1.511 . S
C2687 H2701 0.961 . S
C2687 H2702 0.961 . S
C2687 H2703 0.961 . S
C2688 C2689 1.370 . S
C2688 C2690 1.363 . S
C2688 H2704 0.931 . S
C2689 C2688 1.370 . S
C2689 C2693 1.408 . S
C2690 C2688 1.363 . S
C2690 C2691 1.370 . S
C2690 C2694 1.524 . S
C2691 C2683 1.503 . S
C2691 C2690 1.370 . S
C2691 C2692 1.403 . S
C2692 C2691 1.403 . S
C2692 C2693 1.404 . S
C2692 C2695 1.539 . S
C2693 C2689 1.408 . S
C2693 C2692 1.404 . S
C2693 H2705 0.930 . S
C2694 C2690 1.524 . S
C2694 H2706 0.956 . S
C2694 H2707 0.961 . S
C2694 H2708 0.961 . S
C2695 C2692 1.539 . S
C2695 H2709 0.958 . S
C2695 H2710 0.961 . S
C2695 H2711 0.960 . S
H2696 C2680 0.931 1_554 S
H2697 C2685 0.929 . S
H2698 C2686 0.960 . S
H2699 C2686 0.962 . S
H2700 C2686 0.960 . S
H2701 C2687 0.961 . S
H2702 C2687 0.961 . S
H2703 C2687 0.961 . S
H2704 C2688 0.931 . S
H2705 C2693 0.930 . S
H2706 C2694 0.956 . S
H2707 C2694 0.961 . S
H2708 C2694 0.961 . S
H2709 C2695 0.958 . S
H2710 C2695 0.961 . S
H2711 C2695 0.960 . S
C2712 C2713 1.391 . S
C2712 C2714 1.394 . S
C2712 H2728 0.931 . S
C2713 C2712 1.391 . S
C2713 C2717 1.376 . S
C2714 C2712 1.394 . S
C2714 C2715 1.369 . S
C2714 C2718 1.531 . S
C2715 C2714 1.369 . S
C2715 C2716 1.410 . S
C2715 C2723 1.503 . S
C2716 C2715 1.410 . S
C2716 C2717 1.392 . S
C2716 C2719 1.511 . S
C2717 C2713 1.376 . S
C2717 C2716 1.392 . S
C2717 H2729 0.929 . S
C2718 C2714 1.531 . S
C2718 H2730 0.960 . S
C2718 H2731 0.962 . S
C2718 H2732 0.960 . S
C2719 C2716 1.511 . S
C2719 H2733 0.961 . S
C2719 H2734 0.961 . S
C2719 H2735 0.961 . S
C2720 C2721 1.370 . S
C2720 C2722 1.363 . S
C2720 H2736 0.931 . S
C2721 C2720 1.370 . S
C2721 C2725 1.408 . S
C2722 C2720 1.363 . S
C2722 C2723 1.370 . S
C2722 C2726 1.524 . S
C2723 C2715 1.503 . S
C2723 C2722 1.370 . S
C2723 C2724 1.403 . S
C2724 C2723 1.403 . S
C2724 C2725 1.404 . S
C2724 C2727 1.539 . S
C2725 C2721 1.408 . S
C2725 C2724 1.404 . S
C2725 H2737 0.930 . S
C2726 C2722 1.524 . S
C2726 H2738 0.956 . S
C2726 H2739 0.961 . S
C2726 H2740 0.961 . S
C2727 C2724 1.539 . S
C2727 H2741 0.958 . S
C2727 H2742 0.961 . S
C2727 H2743 0.960 . S
H2728 C2712 0.931 . S
H2729 C2717 0.929 . S
H2730 C2718 0.960 . S
H2731 C2718 0.962 . S
H2732 C2718 0.960 . S
H2733 C2719 0.961 . S
H2734 C2719 0.961 . S
H2735 C2719 0.961 . S
H2736 C2720 0.931 . S
H2737 C2725 0.930 . S
H2738 C2726 0.956 . S
H2739 C2726 0.961 . S
H2740 C2726 0.961 . S
H2741 C2727 0.958 . S
H2742 C2727 0.961 . S
H2743 C2727 0.960 . S
C2744 C2745 1.391 . S
C2744 C2746 1.394 . S
C2744 H2760 0.931 . S
C2745 C2744 1.391 . S
C2745 C2749 1.376 . S
C2746 C2744 1.394 . S
C2746 C2747 1.369 . S
C2746 C2750 1.531 . S
C2747 C2746 1.369 . S
C2747 C2748 1.410 . S
C2747 C2755 1.503 . S
C2748 C2747 1.410 . S
C2748 C2749 1.392 . S
C2748 C2751 1.511 . S
C2749 C2745 1.376 . S
C2749 C2748 1.392 . S
C2749 H2761 0.929 . S
C2750 C2746 1.531 . S
C2750 H2762 0.960 . S
C2750 H2763 0.962 . S
C2750 H2764 0.960 . S
C2751 C2748 1.511 . S
C2751 H2765 0.961 . S
C2751 H2766 0.961 . S
C2751 H2767 0.961 . S
C2752 C2753 1.370 . S
C2752 C2754 1.363 . S
C2752 H2768 0.931 . S
C2753 C2752 1.370 . S
C2753 C2757 1.408 . S
C2754 C2752 1.363 . S
C2754 C2755 1.370 . S
C2754 C2758 1.524 . S
C2755 C2747 1.503 . S
C2755 C2754 1.370 . S
C2755 C2756 1.403 . S
C2756 C2755 1.403 . S
C2756 C2757 1.404 . S
C2756 C2759 1.539 . S
C2757 C2753 1.408 . S
C2757 C2756 1.404 . S
C2757 H2769 0.930 . S
C2758 C2754 1.524 . S
C2758 H2770 0.956 . S
C2758 H2771 0.961 . S
C2758 H2772 0.961 . S
C2759 C2756 1.539 . S
C2759 H2773 0.958 . S
C2759 H2774 0.961 . S
C2759 H2775 0.960 . S
H2760 C2744 0.931 . S
H2761 C2749 0.929 . S
H2762 C2750 0.960 . S
H2763 C2750 0.962 . S
H2764 C2750 0.960 . S
H2765 C2751 0.961 . S
H2766 C2751 0.961 . S
H2767 C2751 0.961 . S
H2768 C2752 0.931 . S
H2769 C2757 0.930 . S
H2770 C2758 0.956 . S
H2771 C2758 0.961 . S
H2772 C2758 0.961 . S
H2773 C2759 0.958 . S
H2774 C2759 0.961 . S
H2775 C2759 0.960 . S
C2776 C2777 1.391 . S
C2776 C2778 1.394 . S
C2776 H2792 0.931 . S
C2777 C2776 1.391 . S
C2777 C2781 1.376 . S
C2778 C2776 1.394 . S
C2778 C2779 1.369 . S
C2778 C2782 1.531 . S
C2779 C2778 1.369 . S
C2779 C2780 1.410 . S
C2779 C2787 1.503 . S
C2780 C2779 1.410 . S
C2780 C2781 1.392 . S
C2780 C2783 1.511 . S
C2781 C2777 1.376 . S
C2781 C2780 1.392 . S
C2781 H2793 0.929 . S
C2782 C2778 1.531 . S
C2782 H2794 0.960 . S
C2782 H2795 0.962 . S
C2782 H2796 0.960 . S
C2783 C2780 1.511 . S
C2783 H2797 0.961 . S
C2783 H2798 0.961 . S
C2783 H2799 0.961 . S
C2784 C2785 1.370 . S
C2784 C2786 1.363 . S
C2784 H2800 0.931 . S
C2785 C2784 1.370 . S
C2785 C2789 1.408 . S
C2786 C2784 1.363 . S
C2786 C2787 1.370 . S
C2786 C2790 1.524 . S
C2787 C2779 1.503 . S
C2787 C2786 1.370 . S
C2787 C2788 1.403 . S
C2788 C2787 1.403 . S
C2788 C2789 1.404 . S
C2788 C2791 1.539 . S
C2789 C2785 1.408 . S
C2789 C2788 1.404 . S
C2789 H2801 0.930 . S
C2790 C2786 1.524 . S
C2790 H2802 0.956 . S
C2790 H2803 0.961 . S
C2790 H2804 0.961 . S
C2791 C2788 1.539 . S
C2791 H2805 0.958 . S
C2791 H2806 0.961 . S
C2791 H2807 0.960 . S
H2792 C2776 0.931 . S
H2793 C2781 0.929 . S
H2794 C2782 0.960 . S
H2795 C2782 0.962 . S
H2796 C2782 0.960 . S
H2797 C2783 0.961 . S
H2798 C2783 0.961 . S
H2799 C2783 0.961 . S
H2800 C2784 0.931 . S
H2801 C2789 0.930 . S
H2802 C2790 0.956 . S
H2803 C2790 0.961 . S
H2804 C2790 0.961 . S
H2805 C2791 0.958 . S
H2806 C2791 0.961 . S
H2807 C2791 0.960 . S
C505 C78 1.514 . S
C513 C8 1.515 . S
C537 C50 1.495 . S
C545 C22 1.507 . S
C569 C36 1.516 . S
C577 C64 1.513 . S
C601 C92 1.518 . S
C609 C162 1.515 . S
C633 C106 1.507 . S
C641 C134 1.510 . S
C665 C148 1.520 . S
C673 C120 1.516 . S
C697 C176 1.517 . S
C705 C246 1.516 . S
C729 C190 1.503 . S
C737 C218 1.511 . S
C761 C204 1.504 . S
C769 C232 1.511 . S
C793 C330 1.497 . S
C801 C260 1.506 . S
C825 C274 1.520 . S
C833 C302 1.516 . S
C857 C316 1.496 . S
C865 C288 1.506 . S
C889 C414 1.496 . S
C897 C344 1.505 . S
C921 C386 1.505 . S
C929 C358 1.511 . S
C953 C400 1.520 . S
C961 C372 1.516 . S
C985 C428 1.498 . S
C993 C498 1.506 . S
C1017 C442 1.502 . S
C1025 C470 1.509 . S
C1049 C456 1.492 . S
C1057 C484 1.504 . S
C1081 C77 1.547 . S
C1089 C7 1.523 . S
C1113 C21 1.553 . S
C1121 C49 1.518 . S
C1145 C63 1.498 . S
C1153 C35 1.541 . S
C1177 C91 1.529 . S
C1185 C161 1.527 . S
C1209 C105 1.524 . S
C1217 C133 1.531 . S
C1241 C147 1.533 . S
C1249 C119 1.527 . S
C1273 C175 1.514 . S
C1281 C245 1.532 . S
C1305 C217 1.544 . S
C1313 C189 1.524 . S
C1337 C231 1.547 . S
C1345 C203 1.519 . S
C1369 C259 1.537 . S
C1377 C329 1.526 . S
C1401 C273 1.544 . S
C1409 C301 1.521 . S
C1433 C315 1.531 . S
C1441 C287 1.527 . S
C1465 C413 1.507 . S
C1473 C343 1.535 . S
C1497 C357 1.551 . S
C1505 C385 1.518 . S
C1529 C371 1.522 . S
C1537 C399 1.534 . S
C1561 C497 1.498 . S
C1569 C427 1.541 . S
C1593 C469 1.498 . S
C1601 C441 1.541 . S
C1625 C483 1.511 . S
C1633 C455 1.535 . S
C1657 C233 1.653 . S
C1665 C9 1.651 . S
C1689 C247 1.633 . S
C1697 C23 1.645 . S
C1721 C219 1.654 . S
C1729 C37 1.650 . S
C1753 C51 1.634 . S
C1761 C373 1.647 . S
C1785 C65 1.644 . S
C1793 C345 1.652 . S
C1817 C79 1.654 . S
C1825 C359 1.649 . S
C1849 C93 1.646 . S
C1857 C485 1.652 . S
C1881 C107 1.650 . S
C1889 C499 1.651 . S
C1913 C121 1.644 . S
C1921 C471 1.643 . S
C1945 C135 1.642 . S
C1953 C289 1.643 . S
C1977 C261 1.653 . S
C1985 C149 1.650 . S
C2009 C275 1.634 . S
C2017 C163 1.649 . S
C2041 C401 1.633 . S
C2049 C177 1.645 . S
C2073 C191 1.652 . S
C2081 C415 1.647 . S
C2105 C205 1.652 . S
C2113 C387 1.647 . S
C2137 C303 1.653 . S
C2145 C457 1.646 . S
C2169 C317 1.634 . S
C2177 C429 1.645 . S
C2201 C443 1.654 . S
C2209 C331 1.647 . S
C2233 C3 1.309 . S
C2241 C143 1.311 . S
C2265 C157 1.316 . S
C2273 C17 1.313 . S
C2297 C129 1.297 . S
C2305 C31 1.306 . S
C2329 C45 1.303 . S
C2337 C115 1.307 . S
C2361 C59 1.305 . S
C2369 C87 1.307 . S
C2393 C73 1.312 . S
C2401 C101 1.310 . S
C2425 C171 1.309 . S
C2433 C311 1.311 . S
C2457 C325 1.315 . S
C2465 C185 1.313 . S
C2489 C297 1.296 . S
C2497 C199 1.305 . S
C2521 C213 1.316 . S
C2529 C283 1.313 . S
C2553 C227 1.308 . S
C2561 C255 1.310 . S
C2585 C269 1.303 . S
C2593 C241 1.308 . S
C2617 C339 1.293 . S
C2625 C479 1.303 . S
C2649 C493 1.305 . S
C2657 C353 1.309 . S
C2681 C367 1.294 . S
C2689 C465 1.303 . S
C2713 C381 1.293 . S
C2721 C451 1.304 . S
C2745 C423 1.293 . S
C2753 C395 1.304 . S
C2777 C409 1.293 . S
C2785 C437 1.303 . S
