# Generated by pormake.
# Topology snk, (6)-cn, num edge types: 1
# Building blocks:
#     Node 0, Type 0, BuildingBlock: VOLQOD_clean_sbu_1, # of connection points: 6
#     Node 1, Type 0, BuildingBlock: VOLQOD_clean_sbu_1, # of connection points: 6
#     Node 2, Type 0, BuildingBlock: VOLQOD_clean_sbu_1, # of connection points: 6
#     Node 3, Type 0, BuildingBlock: VOLQOD_clean_sbu_1, # of connection points: 6
#     Node 4, Type 0, BuildingBlock: VOLQOD_clean_sbu_1, # of connection points: 6
#     Node 5, Type 0, BuildingBlock: VOLQOD_clean_sbu_1, # of connection points: 6
#     Node 6, Type 0, BuildingBlock: VOLQOD_clean_sbu_1, # of connection points: 6
#     Node 7, Type 0, BuildingBlock: VOLQOD_clean_sbu_1, # of connection points: 6
#     Edge 8, Type (0, 0), BuildingBlock: OJICUG_clean_linker_0, # of connection points: 2
#     Edge 9, Type (0, 0), BuildingBlock: OJICUG_clean_linker_0, # of connection points: 2
#     Edge 10, Type (0, 0), BuildingBlock: OJICUG_clean_linker_0, # of connection points: 2
#     Edge 11, Type (0, 0), BuildingBlock: OJICUG_clean_linker_0, # of connection points: 2
#     Edge 12, Type (0, 0), BuildingBlock: OJICUG_clean_linker_0, # of connection points: 2
#     Edge 13, Type (0, 0), BuildingBlock: OJICUG_clean_linker_0, # of connection points: 2
#     Edge 14, Type (0, 0), BuildingBlock: OJICUG_clean_linker_0, # of connection points: 2
#     Edge 15, Type (0, 0), BuildingBlock: OJICUG_clean_linker_0, # of connection points: 2
#     Edge 16, Type (0, 0), BuildingBlock: OJICUG_clean_linker_0, # of connection points: 2
#     Edge 17, Type (0, 0), BuildingBlock: OJICUG_clean_linker_0, # of connection points: 2
#     Edge 18, Type (0, 0), BuildingBlock: OJICUG_clean_linker_0, # of connection points: 2
#     Edge 19, Type (0, 0), BuildingBlock: OJICUG_clean_linker_0, # of connection points: 2
#     Edge 20, Type (0, 0), BuildingBlock: OJICUG_clean_linker_0, # of connection points: 2
#     Edge 21, Type (0, 0), BuildingBlock: OJICUG_clean_linker_0, # of connection points: 2
#     Edge 22, Type (0, 0), BuildingBlock: OJICUG_clean_linker_0, # of connection points: 2
#     Edge 23, Type (0, 0), BuildingBlock: OJICUG_clean_linker_0, # of connection points: 2
#     Edge 24, Type (0, 0), BuildingBlock: OJICUG_clean_linker_0, # of connection points: 2
#     Edge 25, Type (0, 0), BuildingBlock: OJICUG_clean_linker_0, # of connection points: 2
#     Edge 26, Type (0, 0), BuildingBlock: OJICUG_clean_linker_0, # of connection points: 2
#     Edge 27, Type (0, 0), BuildingBlock: OJICUG_clean_linker_0, # of connection points: 2
#     Edge 28, Type (0, 0), BuildingBlock: OJICUG_clean_linker_0, # of connection points: 2
#     Edge 29, Type (0, 0), BuildingBlock: OJICUG_clean_linker_0, # of connection points: 2
#     Edge 30, Type (0, 0), BuildingBlock: OJICUG_clean_linker_0, # of connection points: 2
#     Edge 31, Type (0, 0), BuildingBlock: OJICUG_clean_linker_0, # of connection points: 2
# Relax obj value: 0.176
# Max RMSD: 0.167
# Mean RMSD: 0.167
data_MOF--net-snk--node1-VOLQOD_clean_sbu_1--edge1-OJICUG_clean_linker_0
_symmetry_space_group_name_H-M    P1
_symmetry_Int_Tables_number       1
_symmetry_cell_setting            triclinic
loop_
_symmetry_equiv_pos_as_xyz
'x, y, z'
_cell_length_a     35.904619
_cell_length_b     35.855781
_cell_length_c     12.878925
_cell_angle_alpha  90.129179
_cell_angle_beta   90.062261
_cell_angle_gamma 90.157971
loop_
_atom_site_label
_atom_site_type_symbol
_atom_site_fract_x
_atom_site_fract_y
_atom_site_fract_z
_atom_type_partial_charge
O0 O 0.03505 0.01506 0.44121 0.0
Zn1 Zn -0.00899 0.04597 0.39144 0.0
O2 O -0.00946 0.09505 0.46147 0.0
Zn3 Zn 0.9454 0.10076 0.54449 0.0
Zn4 Zn 0.03561 0.101 0.54513 0.0
Zn5 Zn -0.00996 0.1353 0.36271 0.0
O6 O 0.90984 0.14025 0.48702 0.0
O7 O 0.94568 0.16805 0.37063 0.0
O8 O 0.94672 0.01492 0.43958 0.0
O9 O 0.91779 0.05236 0.55049 0.0
O10 O 0.95939 0.10885 0.69373 0.0
O11 O 0.02142 0.10797 0.69451 0.0
O12 O 0.07108 0.1407 0.48747 0.0
O13 O -0.00899 0.05252 0.23242 0.0
O14 O 0.03671 0.16516 0.362 0.0
O15 O 0.98673 0.11437 0.22334 0.0
C16 C 0.06042 0.02133 0.50853 0.0
C17 C 0.91483 0.16527 0.418 0.0
C18 C -0.00964 0.10892 0.74221 0.0
C19 C 0.92118 0.02078 0.50651 0.0
C20 C 0.06701 0.16369 0.41274 0.0
C21 C 0.98791 0.08266 0.18029 0.0
O22 O 0.06362 0.05307 0.55169 0.0
O23 O 0.29773 0.86679 0.69375 0.0
Zn24 Zn 0.26664 0.8226 0.64488 0.0
O25 O 0.21786 0.82306 0.71551 0.0
Zn26 Zn 0.21237 0.778 0.79895 0.0
Zn27 Zn 0.21216 0.86836 0.79844 0.0
Zn28 Zn 0.17739 0.82337 0.61741 0.0
O29 O 0.17268 0.74232 0.74186 0.0
O30 O 0.14791 0.77648 0.61649 0.0
O31 O 0.29769 0.77841 0.69294 0.0
O32 O 0.26031 0.75007 0.80485 0.0
O33 O 0.20558 0.79242 0.94803 0.0
O34 O 0.20366 0.85454 0.94754 0.0
O35 O 0.17297 0.90406 0.73982 0.0
O36 O 0.25969 0.82296 0.48611 0.0
O37 O 0.14439 0.86751 0.626 0.0
O38 O 0.19789 0.82709 0.47794 0.0
C39 C 0.29208 0.89228 0.76121 0.0
C40 C 0.14957 0.74622 0.66726 0.0
C41 C 0.20403 0.82354 -0.0042 0.0
C42 C 0.29177 0.75313 0.76058 0.0
C43 C 0.14759 0.89871 0.67185 0.0
C44 C 0.22945 0.82616 0.43445 0.0
O45 O 0.26064 0.89576 0.80539 0.0
O46 O 0.44904 0.12696 0.9437 0.0
Zn47 Zn 0.49319 0.09587 0.89566 0.0
O48 O 0.4936 0.04706 -0.03371 0.0
Zn49 Zn 0.5388 0.04141 0.04917 0.0
Zn50 Zn 0.44859 0.04157 0.04978 0.0
Zn51 Zn 0.49395 0.00649 0.86823 0.0
O52 O 0.57448 0.00223 -0.00957 0.0
O53 O 0.53803 0.97346 0.87681 0.0
O54 O 0.53733 0.12703 0.94437 0.0
O55 O 0.56616 0.08995 0.05616 0.0
O56 O 0.52497 0.03285 0.19819 0.0
O57 O 0.46294 0.03478 0.19885 0.0
O58 O 0.41294 0.00189 -0.00746 0.0
O59 O 0.49355 0.08884 0.73693 0.0
O60 O 0.4471 0.97701 0.86719 0.0
O61 O 0.49772 0.02696 0.72876 0.0
C62 C 0.42377 0.12104 0.01134 0.0
C63 C 0.56919 0.97676 0.92254 0.0
C64 C 0.49401 0.0332 0.24651 0.0
C65 C 0.56275 0.1214 0.01186 0.0
C66 C 0.41684 0.97873 0.91789 0.0
C67 C 0.49677 0.05854 0.68527 0.0
O68 O 0.42072 0.08958 0.05568 0.0
O69 O 0.18556 0.27612 0.18936 0.0
Zn70 Zn 0.21665 0.32043 0.14138 0.0
O71 O 0.26557 0.31999 0.21163 0.0
Zn72 Zn 0.27145 0.36514 0.29531 0.0
Zn73 Zn 0.27118 0.27481 0.29455 0.0
Zn74 Zn 0.30586 0.31944 0.11309 0.0
O75 O 0.31111 0.40068 0.23769 0.0
O76 O 0.33562 0.36619 0.11231 0.0
O77 O 0.18574 0.36451 0.19108 0.0
O78 O 0.22356 0.39313 0.30187 0.0
O79 O 0.27838 0.35097 0.44465 0.0
O80 O 0.27935 0.28884 0.44367 0.0
O81 O 0.3106 0.23916 0.2371 0.0
O82 O 0.22332 0.32042 -0.01756 0.0
O83 O 0.33862 0.27511 0.12136 0.0
O84 O 0.28509 0.31596 -0.02632 0.0
C85 C 0.19131 0.25062 0.25646 0.0
C86 C 0.33412 0.39656 0.16299 0.0
C87 C 0.27942 0.31986 0.49222 0.0
C88 C 0.19192 0.38991 0.25855 0.0
C89 C 0.33573 0.2442 0.16848 0.0
C90 C 0.25347 0.31718 0.93046 0.0
O91 O 0.22279 0.24724 0.30065 0.0
O92 O 0.79771 0.36679 0.19371 0.0
Zn93 Zn 0.7666 0.3226 0.14485 0.0
O94 O 0.71784 0.32306 0.21554 0.0
Zn95 Zn 0.71237 0.278 0.29899 0.0
Zn96 Zn 0.71215 0.36836 0.29847 0.0
Zn97 Zn 0.67735 0.32337 0.11751 0.0
O98 O 0.67268 0.24232 0.24195 0.0
O99 O 0.64788 0.27648 0.11661 0.0
O100 O 0.79766 0.2784 0.19281 0.0
O101 O 0.76032 0.25007 0.30482 0.0
O102 O 0.70559 0.29242 0.44806 0.0
O103 O 0.70364 0.35454 0.44756 0.0
O104 O 0.67297 0.40406 0.23987 0.0
O105 O 0.75963 0.32298 -0.01389 0.0
O106 O 0.64435 0.36751 0.12615 0.0
O107 O 0.69783 0.32711 -0.02198 0.0
C108 C 0.79207 0.39228 0.26118 0.0
C109 C 0.64955 0.24622 0.16738 0.0
C110 C 0.70401 0.32354 0.49582 0.0
C111 C 0.79175 0.25312 0.26047 0.0
C112 C 0.64757 0.39872 0.17196 0.0
C113 C 0.72937 0.32619 0.93449 0.0
O114 O 0.76064 0.39575 0.3054 0.0
O115 O 0.68557 0.7761 0.68957 0.0
Zn116 Zn 0.71665 0.82042 0.64155 0.0
O117 O 0.76558 0.81998 0.71176 0.0
Zn118 Zn 0.77147 0.86514 0.79543 0.0
Zn119 Zn 0.7712 0.77481 0.79467 0.0
Zn120 Zn 0.80584 0.81944 0.61316 0.0
O121 O 0.81112 0.90068 0.73774 0.0
O122 O 0.83561 0.86618 0.61236 0.0
O123 O 0.68574 0.86449 0.6913 0.0
O124 O 0.72358 0.89313 0.80204 0.0
O125 O 0.77842 0.85097 0.94478 0.0
O126 O 0.77937 0.78884 0.9438 0.0
O127 O 0.81062 0.73916 0.73719 0.0
O128 O 0.7233 0.82041 0.48259 0.0
O129 O 0.83861 0.77511 0.62138 0.0
O130 O 0.78506 0.81597 0.47376 0.0
C131 C 0.69133 0.7506 0.75666 0.0
C132 C 0.83412 0.89656 0.66302 0.0
C133 C 0.77944 0.81986 -0.00765 0.0
C134 C 0.69193 0.8899 0.75875 0.0
C135 C 0.83574 0.7442 0.66852 0.0
C136 C 0.75344 0.81719 0.43058 0.0
O137 O 0.72282 0.74723 0.80081 0.0
O138 O 0.53505 0.51513 0.94143 0.0
Zn139 Zn 0.49101 0.54606 0.89173 0.0
O140 O 0.49053 0.59512 -0.03812 0.0
Zn141 Zn 0.4454 0.60081 0.04488 0.0
Zn142 Zn 0.53561 0.60104 0.04553 0.0
Zn143 Zn 0.49003 0.6354 0.86325 0.0
O144 O 0.40981 0.64027 -0.01263 0.0
O145 O 0.44571 0.66818 0.8713 0.0
O146 O 0.44673 0.51499 0.93982 0.0
O147 O 0.41781 0.55239 0.05088 0.0
O148 O 0.45938 0.60894 0.1941 0.0
O149 O 0.52142 0.608 0.1949 0.0
O150 O 0.5711 0.64073 -0.01213 0.0
O151 O 0.491 0.55266 0.73273 0.0
O152 O 0.53672 0.66522 0.86246 0.0
O153 O 0.48665 0.61451 0.72386 0.0
C154 C 0.56042 0.52138 0.0088 0.0
C155 C 0.41483 0.66535 0.91852 0.0
C156 C 0.49035 0.609 0.24258 0.0
C157 C 0.4212 0.52083 0.00681 0.0
C158 C 0.56703 0.66373 0.91315 0.0
C159 C 0.48784 0.58282 0.6807 0.0
O160 O 0.5636 0.5531 0.05204 0.0
O161 O 0.94904 0.627 0.44353 0.0
Zn162 Zn -0.00682 0.59592 0.39542 0.0
O163 O -0.0064 0.54711 0.466 0.0
Zn164 Zn 0.03879 0.54145 0.54888 0.0
Zn165 Zn 0.94859 0.54161 0.54951 0.0
Zn166 Zn -0.00606 0.50655 0.3679 0.0
O167 O 0.07446 0.50225 0.49015 0.0
O168 O 0.03802 0.47352 0.37641 0.0
O169 O 0.03733 0.62708 0.44415 0.0
O170 O 0.06617 0.58998 0.55586 0.0
O171 O 0.02498 0.53291 0.69792 0.0
O172 O 0.96294 0.53481 0.69858 0.0
O173 O 0.91295 0.50192 0.4923 0.0
O174 O -0.00646 0.58892 0.23668 0.0
O175 O 0.94709 0.47705 0.36689 0.0
O176 O -0.00231 0.52704 0.22845 0.0
C177 C 0.92376 0.62107 0.51114 0.0
C178 C 0.06918 0.4768 0.4222 0.0
C179 C -0.00599 0.53325 0.74625 0.0
C180 C 0.06276 0.62144 0.51161 0.0
C181 C 0.91684 0.47876 0.41763 0.0
C182 C -0.00325 0.55862 0.18499 0.0
O183 O 0.92071 0.5896 0.55544 0.0
C184 C 0.0937 0.2123 0.2943 0.0
C185 C 0.09879 0.18676 0.37608 0.0
H186 H 0.11867 0.25189 0.19142 0.0
C187 C 0.13483 0.18163 0.41592 0.0
H188 H 0.06637 0.21688 0.26107 0.0
C189 C 0.165 0.20154 0.37492 0.0
C190 C 0.15985 0.22713 0.29323 0.0
H191 H 0.13986 0.16195 0.47802 0.0
H192 H 0.19233 0.19709 0.40821 0.0
C193 C 0.1238 0.23222 0.25348 0.0
C194 C 0.11055 -0.00354 0.62582 0.0
C195 C 0.08383 -0.00978 0.54732 0.0
H196 H 0.15115 0.97264 0.72811 0.0
C197 C 0.07749 0.95352 0.51334 0.0
H198 H 0.11598 0.02435 0.65472 0.0
C199 C 0.09733 0.92387 0.55651 0.0
C200 C 0.12415 0.93007 0.63472 0.0
H201 H 0.05687 0.94755 0.45409 0.0
H202 H 0.0918 0.89602 0.52749 0.0
C203 C 0.13047 0.96676 0.66897 0.0
C204 C 0.31867 0.9413 0.88011 0.0
C205 C 0.32365 0.91564 0.79824 0.0
H206 H 0.34408 0.98087 -0.01658 0.0
C207 C 0.35964 0.91035 0.75844 0.0
H208 H 0.29138 0.9459 0.91343 0.0
C209 C 0.38985 0.93014 0.79937 0.0
C210 C 0.38494 0.95578 0.88126 0.0
H211 H 0.36463 0.89061 0.69624 0.0
H212 H 0.41713 0.9254 0.76609 0.0
C213 C 0.34896 0.96111 0.9212 0.0
C214 C 0.37369 0.14648 0.12772 0.0
C215 C 0.40019 0.15228 0.04863 0.0
H216 H 0.33304 0.1708 0.22895 0.0
C217 C 0.40605 0.18871 0.01233 0.0
H218 H 0.36863 0.11882 0.15837 0.0
C219 C 0.38594 0.21853 0.05382 0.0
C220 C 0.35935 0.21276 0.13265 0.0
H221 H 0.42647 0.19434 0.95249 0.0
H222 H 0.39109 0.24616 0.02306 0.0
C223 C 0.35352 0.17635 0.16921 0.0
C224 C 0.90274 0.9532 0.50378 0.0
C225 C 0.89766 0.98934 0.54332 0.0
H226 H 0.88737 0.89571 0.5116 0.0
C227 C 0.87202 -0.00539 0.62487 0.0
H228 H 0.92245 0.94798 0.44183 0.0
C229 C 0.85207 0.96446 0.66593 0.0
C230 C 0.8572 0.92833 0.6263 0.0
H231 H 0.86757 0.02203 0.65799 0.0
H232 H 0.83236 0.96958 0.72791 0.0
C233 C 0.88279 0.92312 0.54466 0.0
C234 C 0.84706 0.18306 0.41882 0.0
C235 C 0.88341 0.18884 0.38204 0.0
H236 H 0.78959 0.19816 0.40808 0.0
C237 C 0.88914 0.21532 0.30288 0.0
H238 H 0.84153 0.16266 0.47881 0.0
C239 C 0.85934 0.23537 0.2613 0.0
C240 C 0.82297 0.22957 0.29784 0.0
H241 H 0.91672 0.22043 0.27194 0.0
H242 H 0.86495 0.25572 0.20122 0.0
C243 C 0.8172 0.20317 0.37724 0.0
C244 C 0.63171 0.17831 0.17119 0.0
C245 C 0.62652 0.2143 0.13103 0.0
H246 H 0.6163 0.1207 0.16389 0.0
C247 C 0.6009 0.21922 0.04925 0.0
H248 H 0.65144 0.17343 0.23333 0.0
C249 C 0.581 0.18899 0.00865 0.0
C250 C 0.58616 0.15298 0.04865 0.0
H251 H 0.59626 0.24651 0.01582 0.0
H252 H 0.56129 0.19398 0.94652 0.0
C253 C 0.6118 0.14801 0.13042 0.0
C254 C 0.62417 0.90678 0.76364 0.0
C255 C 0.66078 0.91324 0.79762 0.0
H256 H 0.56669 0.92091 0.77794 0.0
C257 C 0.66692 0.94 0.87624 0.0
H258 H 0.61828 0.88613 0.7043 0.0
C259 C 0.63718 0.95983 0.91952 0.0
C260 C 0.60057 0.95339 0.88529 0.0
H261 H 0.69474 0.94551 0.90514 0.0
H262 H 0.64297 0.98054 -0.02123 0.0
C263 C 0.59448 0.92653 0.80695 0.0
C264 C 0.63486 0.68164 0.91622 0.0
C265 C 0.59881 0.68678 0.87644 0.0
H266 H 0.69237 0.69707 0.9084 0.0
C267 C 0.59372 0.71232 0.79467 0.0
H268 H 0.6399 0.66195 -0.02169 0.0
C269 C 0.62382 0.73222 0.75379 0.0
C270 C 0.65987 0.72713 0.79348 0.0
H271 H 0.56638 0.71691 0.76149 0.0
H272 H 0.61868 0.7519 0.69174 0.0
C273 C 0.66503 0.70153 0.87516 0.0
C274 C 0.63046 0.46677 0.16914 0.0
C275 C 0.62413 0.43009 0.13485 0.0
H276 H 0.61597 0.52436 0.15497 0.0
C277 C 0.59731 0.4239 0.05664 0.0
H278 H 0.65114 0.47264 0.22829 0.0
C279 C 0.57747 0.45356 0.01352 0.0
C280 C 0.58382 0.49026 0.04754 0.0
H281 H 0.59177 0.39606 0.02759 0.0
H282 H 0.55685 0.4476 -0.04573 0.0
C283 C 0.61054 0.49648 0.12604 0.0
C284 C 0.88984 0.43017 0.29914 0.0
C285 C 0.88494 0.4558 0.38106 0.0
H286 H 0.8646 0.39063 0.19605 0.0
C287 C 0.84897 0.46111 0.42109 0.0
H288 H 0.91711 0.42545 0.26579 0.0
C289 C 0.81868 0.44129 0.38006 0.0
C290 C 0.82364 0.41563 0.29816 0.0
H291 H 0.8441 0.48086 0.48333 0.0
H292 H 0.7914 0.44587 0.41345 0.0
C293 C 0.85962 0.41036 0.25827 0.0
C294 C 0.85352 0.67635 0.66914 0.0
C295 C 0.85936 0.71277 0.63264 0.0
H296 H 0.86863 0.61882 0.6582 0.0
C297 C 0.88594 0.71855 0.5538 0.0
H298 H 0.83305 0.67079 0.72888 0.0
C299 C 0.90604 0.68874 0.51225 0.0
C300 C 0.90018 0.6523 0.5485 0.0
H301 H 0.89109 0.74619 0.5231 0.0
H302 H 0.92646 0.69438 0.45242 0.0
C303 C 0.87369 0.64648 0.62759 0.0
C304 C 0.38279 0.42316 0.04469 0.0
C305 C 0.3572 0.42834 0.12634 0.0
H306 H 0.42245 0.44805 0.94192 0.0
C307 C 0.35208 0.46446 0.16609 0.0
H308 H 0.38736 0.39577 0.01154 0.0
C309 C 0.37204 0.49462 0.12511 0.0
C310 C 0.39768 0.48938 0.04355 0.0
H311 H 0.33238 0.46956 0.2281 0.0
H312 H 0.3676 0.52203 0.15833 0.0
C313 C 0.40275 0.45325 0.00389 0.0
C314 C 0.38917 0.71544 0.80346 0.0
C315 C 0.38341 0.68891 0.88249 0.0
H316 H 0.365 0.75584 0.7018 0.0
C317 C 0.34703 0.68306 0.91902 0.0
H318 H 0.41677 0.7206 0.77272 0.0
C319 C 0.31718 0.70315 0.87733 0.0
C320 C 0.32298 0.72959 0.79805 0.0
H321 H 0.34148 0.66263 -0.0211 0.0
H322 H 0.28955 0.69809 0.90797 0.0
C323 C 0.35937 0.73546 0.76177 0.0
C324 C 0.13172 0.67832 0.67099 0.0
C325 C 0.12654 0.71431 0.63087 0.0
H326 H 0.11631 0.62071 0.66363 0.0
C327 C 0.10092 0.71924 0.54909 0.0
H328 H 0.15145 0.67342 0.73313 0.0
C329 C 0.08102 0.68902 0.50845 0.0
C330 C 0.08617 0.65301 0.54843 0.0
H331 H 0.09629 0.74654 0.51569 0.0
H332 H 0.06131 0.69402 0.44633 0.0
C333 C 0.11181 0.64802 0.63019 0.0
C334 C 0.12416 0.40683 0.26329 0.0
C335 C 0.16077 0.41327 0.29737 0.0
H336 H 0.06669 0.42099 0.27748 0.0
C337 C 0.1669 0.44 0.37604 0.0
H338 H 0.11829 0.38619 0.2039 0.0
C339 C 0.13715 0.45985 0.41929 0.0
C340 C 0.10055 0.45343 0.38496 0.0
H341 H 0.19471 0.4455 0.40501 0.0
H342 H 0.14294 0.48054 0.47858 0.0
C343 C 0.09447 0.42659 0.30656 0.0
C344 C 0.95758 0.10952 0.91326 0.0
C345 C -0.01008 0.10245 0.85542 0.0
H346 H 0.93152 0.10764 0.06267 0.0
C347 C 0.02024 0.08473 0.90419 0.0
H348 H 0.93362 0.12265 0.87771 0.0
C349 C 0.01841 0.07486 0.00907 0.0
C350 C 0.9864 0.08285 0.06682 0.0
H351 H 0.0453 0.07817 0.86117 0.0
H352 H 0.04258 0.06267 0.04614 0.0
C353 C 0.95605 0.10021 0.01827 0.0
C354 C 0.20967 0.85727 0.27324 0.0
C355 C 0.22898 0.82793 0.32103 0.0
H356 H 0.18616 0.87876 0.13281 0.0
C357 C 0.23944 0.79684 0.26215 0.0
H358 H 0.20048 0.88107 0.31841 0.0
C359 C 0.22996 0.7948 0.15696 0.0
C360 C 0.21028 0.82407 0.10901 0.0
H361 H 0.2533 0.77344 0.29848 0.0
H362 H 0.23839 0.77047 0.11298 0.0
C363 C 0.20083 0.85561 0.16787 0.0
C364 C 0.52767 0.03849 0.52389 0.0
C365 C 0.4985 0.05802 0.57184 0.0
H366 H 0.54899 0.01485 0.38327 0.0
C367 C 0.46754 0.06873 0.5131 0.0
H368 H 0.55138 0.02912 0.56893 0.0
C369 C 0.46545 0.05928 0.40786 0.0
C370 C 0.49455 0.0394 0.35975 0.0
H371 H 0.44427 0.08278 0.54955 0.0
H372 H 0.44122 0.06792 0.36396 0.0
C373 C 0.52597 0.02969 0.41847 0.0
C374 C 0.24492 0.34741 0.75914 0.0
C375 C 0.25377 0.31564 0.81699 0.0
H376 H 0.24743 0.37422 0.611 0.0
C377 C 0.27182 0.28563 0.76845 0.0
H378 H 0.23213 0.37132 0.79617 0.0
C379 C 0.28097 0.28727 0.66335 0.0
C380 C 0.27306 0.31939 0.60543 0.0
H381 H 0.27986 0.2613 0.81288 0.0
H382 H 0.29465 0.26358 0.62776 0.0
C383 C 0.25466 0.34937 0.65416 0.0
C384 C 0.70947 0.35723 0.77331 0.0
C385 C 0.72889 0.32796 0.82107 0.0
H386 H 0.68591 0.37866 0.63288 0.0
C387 C 0.73948 0.29693 0.76215 0.0
H388 H 0.70019 0.38099 0.8185 0.0
C389 C 0.73003 0.29488 0.65695 0.0
C390 C 0.71025 0.32407 0.60903 0.0
H391 H 0.75344 0.27358 0.79846 0.0
H392 H 0.73857 0.27058 0.61293 0.0
C393 C 0.70066 0.35556 0.66792 0.0
C394 C 0.745 0.84747 0.2593 0.0
C395 C 0.75372 0.81566 0.31711 0.0
H396 H 0.74763 0.87431 0.11121 0.0
C397 C 0.77169 0.7856 0.26853 0.0
H398 H 0.73229 0.87142 0.29635 0.0
C399 C 0.78086 0.78723 0.16345 0.0
C400 C 0.77307 0.8194 0.10557 0.0
H401 H 0.77964 0.76124 0.31294 0.0
H402 H 0.79447 0.7635 0.12785 0.0
C403 C 0.75476 0.84942 0.15434 0.0
C404 C 0.51817 0.57467 0.50934 0.0
C405 C 0.4863 0.58305 0.56723 0.0
H406 H 0.545 0.57764 0.36127 0.0
C407 C 0.45611 0.60075 0.51879 0.0
H408 H 0.54221 0.56219 0.5463 0.0
C409 C 0.45768 0.61 0.41375 0.0
C410 C 0.4899 0.60255 0.35578 0.0
H411 H 0.43169 0.60846 0.56327 0.0
H412 H 0.43385 0.6234 0.37827 0.0
C413 C 0.52005 0.5845 0.40443 0.0
C414 C 0.02601 0.52985 0.91818 0.0
C415 C -0.00545 0.53947 0.85949 0.0
H416 H 0.05144 0.52937 0.06862 0.0
C417 C 0.96541 0.55927 0.90762 0.0
H418 H 0.04907 0.51508 0.88296 0.0
C419 C 0.96748 0.56874 0.01285 0.0
C420 C -0.00152 0.55812 0.07156 0.0
H421 H 0.94114 0.56783 0.86375 0.0
H422 H 0.94418 0.58271 0.04932 0.0
C423 C 0.0277 0.53867 0.02359 0.0
loop_
_geom_bond_atom_site_label_1
_geom_bond_atom_site_label_2
_geom_bond_distance
_geom_bond_site_symmetry_2
_ccdc_geom_bond_type
O0 Zn1 1.953 1_465 S
O0 C16 1.225 . S
Zn1 O0 1.953 1_645 S
Zn1 O2 1.949 1_655 S
Zn1 O8 1.919 1_545 S
Zn1 O13 1.924 1_655 S
O2 Zn1 1.949 1_455 S
O2 Zn3 1.923 1_455 S
O2 Zn4 1.950 . S
O2 Zn5 1.945 1_455 S
Zn3 O2 1.923 1_655 S
Zn3 O6 1.933 . S
Zn3 O9 1.941 . S
Zn3 O10 1.965 . S
Zn4 O2 1.950 . S
Zn4 O11 1.938 . S
Zn4 O12 1.906 . S
Zn4 O22 1.953 . S
Zn5 O2 1.945 1_655 S
Zn5 O7 1.932 . S
Zn5 O14 1.977 1_655 S
Zn5 O15 1.910 1_655 S
O6 Zn3 1.933 . S
O6 C17 1.226 . S
O7 Zn5 1.932 . S
O7 C17 1.307 . S
O8 Zn1 1.919 1_565 S
O8 C19 1.251 1_565 S
O9 Zn3 1.941 . S
O9 C19 1.286 . S
O10 Zn3 1.965 . S
O10 C18 1.303 1_655 S
O11 Zn4 1.938 . S
O11 C18 1.247 . S
O12 Zn4 1.906 . S
O12 C20 1.304 . S
O13 Zn1 1.924 1_455 S
O13 C21 1.311 . S
O14 Zn5 1.977 1_455 S
O14 C20 1.272 . S
O15 Zn5 1.910 1_455 S
O15 C21 1.231 . S
C16 O0 1.225 . S
C16 O22 1.298 1_565 S
C17 O6 1.226 . S
C17 O7 1.307 . S
C18 O10 1.303 1_455 S
C18 O11 1.247 . S
C19 O8 1.251 1_545 S
C19 O9 1.286 . S
C20 O12 1.304 . S
C20 O14 1.272 . S
C21 O13 1.311 . S
C21 O15 1.231 . S
O22 Zn4 1.953 . S
O22 C16 1.298 1_545 S
O23 Zn24 1.953 . S
O23 C39 1.225 . S
Zn24 O23 1.953 . S
Zn24 O25 1.949 . S
Zn24 O31 1.919 . S
Zn24 O36 1.924 . S
O25 Zn24 1.949 . S
O25 Zn26 1.923 . S
O25 Zn27 1.950 . S
O25 Zn28 1.945 . S
Zn26 O25 1.923 . S
Zn26 O29 1.933 . S
Zn26 O32 1.941 . S
Zn26 O33 1.965 1_556 S
Zn27 O25 1.950 . S
Zn27 O34 1.938 . S
Zn27 O35 1.906 . S
Zn27 O45 1.953 . S
Zn28 O25 1.945 . S
Zn28 O30 1.932 . S
Zn28 O37 1.977 . S
Zn28 O38 1.910 . S
O29 Zn26 1.933 . S
O29 C40 1.226 . S
O30 Zn28 1.932 . S
O30 C40 1.307 . S
O31 Zn24 1.919 . S
O31 C42 1.253 . S
O32 Zn26 1.941 . S
O32 C42 1.283 . S
O33 Zn26 1.965 1_554 S
O33 C41 1.303 . S
O34 Zn27 1.938 . S
O34 C41 1.247 1_556 S
O35 Zn27 1.906 . S
O35 C43 1.304 . S
O36 Zn24 1.924 . S
O36 C44 1.311 . S
O37 Zn28 1.977 . S
O37 C43 1.272 . S
O38 Zn28 1.910 . S
O38 C44 1.231 . S
C39 O23 1.225 . S
C39 O45 1.298 . S
C40 O29 1.226 . S
C40 O30 1.307 . S
C41 O33 1.303 . S
C41 O34 1.247 1_554 S
C42 O31 1.253 . S
C42 O32 1.283 . S
C43 O35 1.304 . S
C43 O37 1.272 . S
C44 O36 1.311 . S
C44 O38 1.231 . S
O45 Zn27 1.953 . S
O45 C39 1.298 . S
O46 Zn47 1.953 1_554 S
O46 C62 1.225 . S
Zn47 O46 1.953 1_556 S
Zn47 O48 1.949 1_556 S
Zn47 O54 1.921 . S
Zn47 O59 1.924 . S
O48 Zn47 1.949 1_554 S
O48 Zn49 1.923 . S
O48 Zn50 1.950 . S
O48 Zn51 1.945 1_554 S
Zn49 O48 1.923 . S
Zn49 O52 1.933 . S
Zn49 O55 1.941 . S
Zn49 O56 1.965 . S
Zn50 O48 1.950 . S
Zn50 O57 1.938 . S
Zn50 O58 1.906 . S
Zn50 O68 1.953 . S
Zn51 O48 1.945 1_556 S
Zn51 O53 1.932 . S
Zn51 O60 1.977 . S
Zn51 O61 1.910 . S
O52 Zn49 1.933 . S
O52 C63 1.226 1_554 S
O53 Zn51 1.932 . S
O53 C63 1.307 . S
O54 Zn47 1.921 . S
O54 C65 1.247 1_556 S
O55 Zn49 1.941 . S
O55 C65 1.283 . S
O56 Zn49 1.965 . S
O56 C64 1.303 . S
O57 Zn50 1.938 . S
O57 C64 1.247 . S
O58 Zn50 1.906 . S
O58 C66 1.304 1_554 S
O59 Zn47 1.924 . S
O59 C67 1.311 . S
O60 Zn51 1.977 . S
O60 C66 1.272 . S
O61 Zn51 1.910 . S
O61 C67 1.231 . S
C62 O46 1.225 . S
C62 O68 1.298 . S
C63 O52 1.226 1_556 S
C63 O53 1.307 . S
C64 O56 1.303 . S
C64 O57 1.247 . S
C65 O54 1.247 1_554 S
C65 O55 1.283 . S
C66 O58 1.304 1_556 S
C66 O60 1.272 . S
C67 O59 1.311 . S
C67 O61 1.231 . S
O68 Zn50 1.953 . S
O68 C62 1.298 . S
O69 Zn70 1.953 . S
O69 C85 1.225 . S
Zn70 O69 1.953 . S
Zn70 O71 1.949 . S
Zn70 O77 1.919 . S
Zn70 O82 1.924 . S
O71 Zn70 1.949 . S
O71 Zn72 1.923 . S
O71 Zn73 1.950 . S
O71 Zn74 1.945 . S
Zn72 O71 1.923 . S
Zn72 O75 1.933 . S
Zn72 O78 1.941 . S
Zn72 O79 1.965 . S
Zn73 O71 1.950 . S
Zn73 O80 1.938 . S
Zn73 O81 1.906 . S
Zn73 O91 1.953 . S
Zn74 O71 1.945 . S
Zn74 O76 1.932 . S
Zn74 O83 1.977 . S
Zn74 O84 1.910 1_554 S
O75 Zn72 1.933 . S
O75 C86 1.226 . S
O76 Zn74 1.932 . S
O76 C86 1.307 . S
O77 Zn70 1.919 . S
O77 C88 1.253 . S
O78 Zn72 1.941 . S
O78 C88 1.283 . S
O79 Zn72 1.965 . S
O79 C87 1.303 . S
O80 Zn73 1.938 . S
O80 C87 1.247 . S
O81 Zn73 1.906 . S
O81 C89 1.304 . S
O82 Zn70 1.924 . S
O82 C90 1.311 1_554 S
O83 Zn74 1.977 . S
O83 C89 1.272 . S
O84 Zn74 1.910 1_556 S
O84 C90 1.231 . S
C85 O69 1.225 . S
C85 O91 1.298 . S
C86 O75 1.226 . S
C86 O76 1.307 . S
C87 O79 1.303 . S
C87 O80 1.247 . S
C88 O77 1.253 . S
C88 O78 1.283 . S
C89 O81 1.304 . S
C89 O83 1.272 . S
C90 O82 1.311 1_556 S
C90 O84 1.231 . S
O91 Zn73 1.953 . S
O91 C85 1.298 . S
O92 Zn93 1.953 . S
O92 C108 1.225 . S
Zn93 O92 1.953 . S
Zn93 O94 1.949 . S
Zn93 O100 1.919 . S
Zn93 O105 1.924 . S
O94 Zn93 1.949 . S
O94 Zn95 1.923 . S
O94 Zn96 1.950 . S
O94 Zn97 1.945 . S
Zn95 O94 1.923 . S
Zn95 O98 1.933 . S
Zn95 O101 1.941 . S
Zn95 O102 1.965 . S
Zn96 O94 1.950 . S
Zn96 O103 1.938 . S
Zn96 O104 1.906 . S
Zn96 O114 1.953 . S
Zn97 O94 1.945 . S
Zn97 O99 1.932 . S
Zn97 O106 1.977 . S
Zn97 O107 1.910 1_554 S
O98 Zn95 1.933 . S
O98 C109 1.226 . S
O99 Zn97 1.932 . S
O99 C109 1.307 . S
O100 Zn93 1.919 . S
O100 C111 1.253 . S
O101 Zn95 1.941 . S
O101 C111 1.283 . S
O102 Zn95 1.965 . S
O102 C110 1.303 . S
O103 Zn96 1.938 . S
O103 C110 1.247 . S
O104 Zn96 1.906 . S
O104 C112 1.304 . S
O105 Zn93 1.924 . S
O105 C113 1.311 1_554 S
O106 Zn97 1.977 . S
O106 C112 1.272 . S
O107 Zn97 1.910 1_556 S
O107 C113 1.231 . S
C108 O92 1.225 . S
C108 O114 1.298 . S
C109 O98 1.226 . S
C109 O99 1.307 . S
C110 O102 1.303 . S
C110 O103 1.247 . S
C111 O100 1.253 . S
C111 O101 1.283 . S
C112 O104 1.304 . S
C112 O106 1.272 . S
C113 O105 1.311 1_556 S
C113 O107 1.231 . S
O114 Zn96 1.953 . S
O114 C108 1.298 . S
O115 Zn116 1.953 . S
O115 C131 1.225 . S
Zn116 O115 1.953 . S
Zn116 O117 1.949 . S
Zn116 O123 1.919 . S
Zn116 O128 1.924 . S
O117 Zn116 1.949 . S
O117 Zn118 1.923 . S
O117 Zn119 1.950 . S
O117 Zn120 1.945 . S
Zn118 O117 1.923 . S
Zn118 O121 1.933 . S
Zn118 O124 1.941 . S
Zn118 O125 1.965 1_556 S
Zn119 O117 1.950 . S
Zn119 O126 1.938 . S
Zn119 O127 1.906 . S
Zn119 O137 1.953 . S
Zn120 O117 1.945 . S
Zn120 O122 1.932 . S
Zn120 O129 1.977 . S
Zn120 O130 1.910 . S
O121 Zn118 1.933 . S
O121 C132 1.226 . S
O122 Zn120 1.932 . S
O122 C132 1.307 . S
O123 Zn116 1.919 . S
O123 C134 1.253 . S
O124 Zn118 1.941 . S
O124 C134 1.283 . S
O125 Zn118 1.965 1_554 S
O125 C133 1.303 . S
O126 Zn119 1.938 . S
O126 C133 1.247 1_556 S
O127 Zn119 1.906 . S
O127 C135 1.304 . S
O128 Zn116 1.924 . S
O128 C136 1.311 . S
O129 Zn120 1.977 . S
O129 C135 1.272 . S
O130 Zn120 1.910 . S
O130 C136 1.231 . S
C131 O115 1.225 . S
C131 O137 1.298 . S
C132 O121 1.226 . S
C132 O122 1.307 . S
C133 O125 1.303 . S
C133 O126 1.247 1_554 S
C134 O123 1.253 . S
C134 O124 1.283 . S
C135 O127 1.304 . S
C135 O129 1.272 . S
C136 O128 1.311 . S
C136 O130 1.231 . S
O137 Zn119 1.953 . S
O137 C131 1.298 . S
O138 Zn139 1.953 1_554 S
O138 C154 1.225 . S
Zn139 O138 1.953 1_556 S
Zn139 O140 1.949 1_556 S
Zn139 O146 1.921 . S
Zn139 O151 1.924 . S
O140 Zn139 1.949 1_554 S
O140 Zn141 1.923 . S
O140 Zn142 1.950 . S
O140 Zn143 1.945 1_554 S
Zn141 O140 1.923 . S
Zn141 O144 1.933 . S
Zn141 O147 1.941 . S
Zn141 O148 1.965 . S
Zn142 O140 1.950 . S
Zn142 O149 1.938 . S
Zn142 O150 1.906 . S
Zn142 O160 1.953 . S
Zn143 O140 1.945 1_556 S
Zn143 O145 1.932 . S
Zn143 O152 1.977 . S
Zn143 O153 1.910 . S
O144 Zn141 1.933 . S
O144 C155 1.226 1_554 S
O145 Zn143 1.932 . S
O145 C155 1.307 . S
O146 Zn139 1.921 . S
O146 C157 1.247 1_556 S
O147 Zn141 1.941 . S
O147 C157 1.283 . S
O148 Zn141 1.965 . S
O148 C156 1.303 . S
O149 Zn142 1.938 . S
O149 C156 1.247 . S
O150 Zn142 1.906 . S
O150 C158 1.304 1_554 S
O151 Zn139 1.924 . S
O151 C159 1.311 . S
O152 Zn143 1.977 . S
O152 C158 1.272 . S
O153 Zn143 1.910 . S
O153 C159 1.231 . S
C154 O138 1.225 . S
C154 O160 1.298 . S
C155 O144 1.226 1_556 S
C155 O145 1.307 . S
C156 O148 1.303 . S
C156 O149 1.247 . S
C157 O146 1.247 1_554 S
C157 O147 1.283 . S
C158 O150 1.304 1_556 S
C158 O152 1.272 . S
C159 O151 1.311 . S
C159 O153 1.231 . S
O160 Zn142 1.953 . S
O160 C154 1.298 . S
O161 Zn162 1.953 1_655 S
O161 C177 1.225 . S
Zn162 O161 1.953 1_455 S
Zn162 O163 1.949 . S
Zn162 O169 1.919 . S
Zn162 O174 1.924 . S
O163 Zn162 1.949 . S
O163 Zn164 1.923 . S
O163 Zn165 1.950 1_455 S
O163 Zn166 1.945 . S
Zn164 O163 1.923 . S
Zn164 O167 1.933 . S
Zn164 O170 1.941 . S
Zn164 O171 1.965 . S
Zn165 O163 1.950 1_655 S
Zn165 O172 1.938 . S
Zn165 O173 1.906 . S
Zn165 O183 1.953 . S
Zn166 O163 1.945 . S
Zn166 O168 1.932 . S
Zn166 O175 1.977 1_455 S
Zn166 O176 1.910 . S
O167 Zn164 1.933 . S
O167 C178 1.226 . S
O168 Zn166 1.932 . S
O168 C178 1.307 . S
O169 Zn162 1.919 . S
O169 C180 1.253 . S
O170 Zn164 1.941 . S
O170 C180 1.283 . S
O171 Zn164 1.965 . S
O171 C179 1.303 1_455 S
O172 Zn165 1.938 . S
O172 C179 1.247 . S
O173 Zn165 1.906 . S
O173 C181 1.304 . S
O174 Zn162 1.924 . S
O174 C182 1.311 1_455 S
O175 Zn166 1.977 1_655 S
O175 C181 1.272 . S
O176 Zn166 1.910 . S
O176 C182 1.231 1_455 S
C177 O161 1.225 . S
C177 O183 1.298 . S
C178 O167 1.226 . S
C178 O168 1.307 . S
C179 O171 1.303 1_655 S
C179 O172 1.247 . S
C180 O169 1.253 . S
C180 O170 1.283 . S
C181 O173 1.304 . S
C181 O175 1.272 . S
C182 O174 1.311 1_655 S
C182 O176 1.231 1_655 S
O183 Zn165 1.953 . S
O183 C177 1.298 . S
C184 C185 1.387 . S
C184 H188 0.950 . S
C184 C193 1.390 . S
C185 C184 1.387 . S
C185 C187 1.387 . S
H186 C193 0.950 . S
C187 C185 1.387 . S
C187 C189 1.390 . S
C187 H191 0.950 . S
H188 C184 0.950 . S
C189 C187 1.390 . S
C189 C190 1.387 . S
C189 H192 0.950 . S
C190 C189 1.387 . S
C190 C193 1.387 . S
H191 C187 0.950 . S
H192 C189 0.950 . S
C193 C184 1.390 . S
C193 H186 0.950 . S
C193 C190 1.387 . S
C194 C195 1.387 . S
C194 H198 0.950 . S
C194 C203 1.390 . S
C195 C194 1.387 . S
C195 C197 1.387 . S
H196 C203 0.950 . S
C197 C195 1.387 . S
C197 C199 1.390 . S
C197 H201 0.950 . S
H198 C194 0.950 . S
C199 C197 1.390 . S
C199 C200 1.387 . S
C199 H202 0.950 . S
C200 C199 1.387 . S
C200 C203 1.387 . S
H201 C197 0.950 . S
H202 C199 0.950 . S
C203 C194 1.390 . S
C203 H196 0.950 . S
C203 C200 1.387 . S
C204 C205 1.387 . S
C204 H208 0.950 . S
C204 C213 1.392 . S
C205 C204 1.387 . S
C205 C207 1.387 . S
H206 C213 0.946 1_554 S
C207 C205 1.387 . S
C207 C209 1.390 . S
C207 H211 0.950 . S
H208 C204 0.950 . S
C209 C207 1.390 . S
C209 C210 1.387 . S
C209 H212 0.950 . S
C210 C209 1.387 . S
C210 C213 1.389 . S
H211 C207 0.950 . S
H212 C209 0.950 . S
C213 C204 1.392 . S
C213 H206 0.946 1_556 S
C213 C210 1.389 . S
C214 C215 1.387 . S
C214 H218 0.950 . S
C214 C223 1.390 . S
C215 C214 1.387 . S
C215 C217 1.387 . S
H216 C223 0.950 . S
C217 C215 1.387 . S
C217 C219 1.390 . S
C217 H221 0.950 . S
H218 C214 0.950 . S
C219 C217 1.390 . S
C219 C220 1.387 . S
C219 H222 0.950 . S
C220 C219 1.387 . S
C220 C223 1.387 . S
H221 C217 0.950 . S
H222 C219 0.950 . S
C223 C214 1.390 . S
C223 H216 0.950 . S
C223 C220 1.387 . S
C224 C225 1.387 . S
C224 H228 0.950 . S
C224 C233 1.390 . S
C225 C224 1.387 . S
C225 C227 1.387 . S
H226 C233 0.950 . S
C227 C225 1.387 . S
C227 C229 1.390 . S
C227 H231 0.950 1_565 S
H228 C224 0.950 . S
C229 C227 1.390 . S
C229 C230 1.387 . S
C229 H232 0.950 . S
C230 C229 1.387 . S
C230 C233 1.387 . S
H231 C227 0.950 1_545 S
H232 C229 0.950 . S
C233 C224 1.390 . S
C233 H226 0.950 . S
C233 C230 1.387 . S
C234 C235 1.387 . S
C234 H238 0.950 . S
C234 C243 1.390 . S
C235 C234 1.387 . S
C235 C237 1.387 . S
H236 C243 0.950 . S
C237 C235 1.387 . S
C237 C239 1.390 . S
C237 H241 0.950 . S
H238 C234 0.950 . S
C239 C237 1.390 . S
C239 C240 1.387 . S
C239 H242 0.950 . S
C240 C239 1.387 . S
C240 C243 1.387 . S
H241 C237 0.950 . S
H242 C239 0.950 . S
C243 C234 1.390 . S
C243 H236 0.950 . S
C243 C240 1.387 . S
C244 C245 1.387 . S
C244 H248 0.950 . S
C244 C253 1.390 . S
C245 C244 1.387 . S
C245 C247 1.387 . S
H246 C253 0.950 . S
C247 C245 1.387 . S
C247 C249 1.390 . S
C247 H251 0.950 . S
H248 C244 0.950 . S
C249 C247 1.390 . S
C249 C250 1.387 . S
C249 H252 0.950 . S
C250 C249 1.387 . S
C250 C253 1.387 . S
H251 C247 0.950 . S
H252 C249 0.950 . S
C253 C244 1.390 . S
C253 H246 0.950 . S
C253 C250 1.387 . S
C254 C255 1.387 . S
C254 H258 0.950 . S
C254 C263 1.390 1_565 S
C255 C254 1.387 . S
C255 C257 1.387 . S
H256 C263 0.950 . S
C257 C255 1.387 . S
C257 C259 1.390 . S
C257 H261 0.950 . S
H258 C254 0.950 . S
C259 C257 1.390 . S
C259 C260 1.387 1_565 S
C259 H262 0.950 1_556 S
C260 C259 1.387 1_545 S
C260 C263 1.387 . S
H261 C257 0.950 . S
H262 C259 0.950 1_554 S
C263 C254 1.390 1_545 S
C263 H256 0.950 . S
C263 C260 1.387 . S
C264 C265 1.387 . S
C264 H268 0.950 . S
C264 C273 1.390 . S
C265 C264 1.387 . S
C265 C267 1.387 . S
H266 C273 0.950 . S
C267 C265 1.387 . S
C267 C269 1.390 . S
C267 H271 0.950 1_556 S
H268 C264 0.950 . S
C269 C267 1.390 . S
C269 C270 1.387 . S
C269 H272 0.950 . S
C270 C269 1.387 . S
C270 C273 1.387 . S
H271 C267 0.950 1_554 S
H272 C269 0.950 . S
C273 C264 1.390 . S
C273 H266 0.950 . S
C273 C270 1.387 . S
C274 C275 1.387 . S
C274 H278 0.950 . S
C274 C283 1.390 . S
C275 C274 1.387 . S
C275 C277 1.387 . S
H276 C283 0.950 . S
C277 C275 1.387 . S
C277 C279 1.390 . S
C277 H281 0.950 . S
H278 C274 0.950 . S
C279 C277 1.390 . S
C279 C280 1.387 . S
C279 H282 0.950 1_554 S
C280 C279 1.387 . S
C280 C283 1.387 . S
H281 C277 0.950 . S
H282 C279 0.950 1_556 S
C283 C274 1.390 . S
C283 H276 0.950 . S
C283 C280 1.387 . S
C284 C285 1.387 . S
C284 H288 0.950 . S
C284 C293 1.390 . S
C285 C284 1.387 . S
C285 C287 1.387 . S
H286 C293 0.950 . S
C287 C285 1.387 . S
C287 C289 1.390 . S
C287 H291 0.950 . S
H288 C284 0.950 . S
C289 C287 1.390 . S
C289 C290 1.387 . S
C289 H292 0.950 . S
C290 C289 1.387 . S
C290 C293 1.387 . S
H291 C287 0.950 . S
H292 C289 0.950 . S
C293 C284 1.390 . S
C293 H286 0.950 . S
C293 C290 1.387 . S
C294 C295 1.387 . S
C294 H298 0.950 . S
C294 C303 1.390 . S
C295 C294 1.387 . S
C295 C297 1.387 . S
H296 C303 0.950 . S
C297 C295 1.387 . S
C297 C299 1.390 . S
C297 H301 0.950 . S
H298 C294 0.950 . S
C299 C297 1.390 . S
C299 C300 1.387 . S
C299 H302 0.950 . S
C300 C299 1.387 . S
C300 C303 1.387 . S
H301 C297 0.950 . S
H302 C299 0.950 . S
C303 C294 1.390 . S
C303 H296 0.950 . S
C303 C300 1.387 . S
C304 C305 1.387 . S
C304 H308 0.950 . S
C304 C313 1.390 . S
C305 C304 1.387 . S
C305 C307 1.387 . S
H306 C313 0.950 1_556 S
C307 C305 1.387 . S
C307 C309 1.390 . S
C307 H311 0.950 . S
H308 C304 0.950 . S
C309 C307 1.390 . S
C309 C310 1.387 . S
C309 H312 0.950 . S
C310 C309 1.387 . S
C310 C313 1.387 . S
H311 C307 0.950 . S
H312 C309 0.950 . S
C313 C304 1.390 . S
C313 H306 0.950 1_554 S
C313 C310 1.387 . S
C314 C315 1.387 . S
C314 H318 0.950 . S
C314 C323 1.390 . S
C315 C314 1.387 . S
C315 C317 1.387 1_556 S
H316 C323 0.950 . S
C317 C315 1.387 1_554 S
C317 C319 1.390 1_554 S
C317 H321 0.950 . S
H318 C314 0.950 . S
C319 C317 1.390 1_556 S
C319 C320 1.387 . S
C319 H322 0.950 . S
C320 C319 1.387 . S
C320 C323 1.387 . S
H321 C317 0.950 . S
H322 C319 0.950 . S
C323 C314 1.390 . S
C323 H316 0.950 . S
C323 C320 1.387 . S
C324 C325 1.387 . S
C324 H328 0.950 . S
C324 C333 1.390 . S
C325 C324 1.387 . S
C325 C327 1.387 . S
H326 C333 0.950 . S
C327 C325 1.387 . S
C327 C329 1.390 . S
C327 H331 0.950 . S
H328 C324 0.950 . S
C329 C327 1.390 . S
C329 C330 1.387 . S
C329 H332 0.950 . S
C330 C329 1.387 . S
C330 C333 1.387 . S
H331 C327 0.950 . S
H332 C329 0.950 . S
C333 C324 1.390 . S
C333 H326 0.950 . S
C333 C330 1.387 . S
C334 C335 1.387 . S
C334 H338 0.950 . S
C334 C343 1.390 . S
C335 C334 1.387 . S
C335 C337 1.387 . S
H336 C343 0.950 . S
C337 C335 1.387 . S
C337 C339 1.390 . S
C337 H341 0.950 . S
H338 C334 0.950 . S
C339 C337 1.390 . S
C339 C340 1.387 . S
C339 H342 0.950 . S
C340 C339 1.387 . S
C340 C343 1.387 . S
H341 C337 0.950 . S
H342 C339 0.950 . S
C343 C334 1.390 . S
C343 H336 0.950 . S
C343 C340 1.387 . S
C344 C345 1.387 1_655 S
C344 H348 0.950 . S
C344 C353 1.390 1_556 S
C345 C344 1.387 1_455 S
C345 C347 1.387 . S
H346 C353 0.950 . S
C347 C345 1.387 . S
C347 C349 1.390 1_556 S
C347 H351 0.950 . S
H348 C344 0.950 . S
C349 C347 1.390 1_554 S
C349 C350 1.387 . S
C349 H352 0.950 . S
C350 C349 1.387 . S
C350 C353 1.387 1_455 S
H351 C347 0.950 . S
H352 C349 0.950 . S
C353 C344 1.390 1_554 S
C353 H346 0.950 . S
C353 C350 1.387 1_655 S
C354 C355 1.387 . S
C354 H358 0.950 . S
C354 C363 1.390 . S
C355 C354 1.387 . S
C355 C357 1.387 . S
H356 C363 0.950 . S
C357 C355 1.387 . S
C357 C359 1.390 . S
C357 H361 0.950 . S
H358 C354 0.950 . S
C359 C357 1.390 . S
C359 C360 1.387 . S
C359 H362 0.950 . S
C360 C359 1.387 . S
C360 C363 1.387 . S
H361 C357 0.950 . S
H362 C359 0.950 . S
C363 C354 1.390 . S
C363 H356 0.950 . S
C363 C360 1.387 . S
C364 C365 1.387 . S
C364 H368 0.950 . S
C364 C373 1.390 . S
C365 C364 1.387 . S
C365 C367 1.387 . S
H366 C373 0.950 . S
C367 C365 1.387 . S
C367 C369 1.390 . S
C367 H371 0.950 . S
H368 C364 0.950 . S
C369 C367 1.390 . S
C369 C370 1.387 . S
C369 H372 0.950 . S
C370 C369 1.387 . S
C370 C373 1.387 . S
H371 C367 0.950 . S
H372 C369 0.950 . S
C373 C364 1.390 . S
C373 H366 0.950 . S
C373 C370 1.387 . S
C374 C375 1.387 . S
C374 H378 0.950 . S
C374 C383 1.390 . S
C375 C374 1.387 . S
C375 C377 1.387 . S
H376 C383 0.950 . S
C377 C375 1.387 . S
C377 C379 1.390 . S
C377 H381 0.950 . S
H378 C374 0.950 . S
C379 C377 1.390 . S
C379 C380 1.387 . S
C379 H382 0.950 . S
C380 C379 1.387 . S
C380 C383 1.387 . S
H381 C377 0.950 . S
H382 C379 0.950 . S
C383 C374 1.390 . S
C383 H376 0.950 . S
C383 C380 1.387 . S
C384 C385 1.387 . S
C384 H388 0.950 . S
C384 C393 1.390 . S
C385 C384 1.387 . S
C385 C387 1.387 . S
H386 C393 0.950 . S
C387 C385 1.387 . S
C387 C389 1.390 . S
C387 H391 0.950 . S
H388 C384 0.950 . S
C389 C387 1.390 . S
C389 C390 1.387 . S
C389 H392 0.950 . S
C390 C389 1.387 . S
C390 C393 1.387 . S
H391 C387 0.950 . S
H392 C389 0.950 . S
C393 C384 1.390 . S
C393 H386 0.950 . S
C393 C390 1.387 . S
C394 C395 1.387 . S
C394 H398 0.950 . S
C394 C403 1.390 . S
C395 C394 1.387 . S
C395 C397 1.387 . S
H396 C403 0.950 . S
C397 C395 1.387 . S
C397 C399 1.390 . S
C397 H401 0.950 . S
H398 C394 0.950 . S
C399 C397 1.390 . S
C399 C400 1.387 . S
C399 H402 0.950 . S
C400 C399 1.387 . S
C400 C403 1.387 . S
H401 C397 0.950 . S
H402 C399 0.950 . S
C403 C394 1.390 . S
C403 H396 0.950 . S
C403 C400 1.387 . S
C404 C405 1.387 . S
C404 H408 0.950 . S
C404 C413 1.390 . S
C405 C404 1.387 . S
C405 C407 1.387 . S
H406 C413 0.950 . S
C407 C405 1.387 . S
C407 C409 1.390 . S
C407 H411 0.950 . S
H408 C404 0.950 . S
C409 C407 1.390 . S
C409 C410 1.387 . S
C409 H412 0.950 . S
C410 C409 1.387 . S
C410 C413 1.387 . S
H411 C407 0.950 . S
H412 C409 0.950 . S
C413 C404 1.390 . S
C413 H406 0.950 . S
C413 C410 1.387 . S
C414 C415 1.387 1_455 S
C414 H418 0.950 . S
C414 C423 1.390 1_556 S
C415 C414 1.387 1_655 S
C415 C417 1.387 . S
H416 C423 0.950 . S
C417 C415 1.387 . S
C417 C419 1.390 1_556 S
C417 H421 0.950 . S
H418 C414 0.950 . S
C419 C417 1.390 1_554 S
C419 C420 1.387 . S
C419 H422 0.950 . S
C420 C419 1.387 . S
C420 C423 1.387 1_655 S
H421 C417 0.950 . S
H422 C419 0.950 . S
C423 C414 1.390 1_554 S
C423 H416 0.950 . S
C423 C420 1.387 1_455 S
C185 C20 1.513 . S
C190 C85 1.551 . S
C195 C16 1.551 . S
C200 C43 1.514 . S
C205 C39 1.551 . S
C210 C66 1.514 1_565 S
C215 C62 1.552 . S
C220 C89 1.515 . S
C225 C19 1.497 1_565 S
C230 C132 1.554 . S
C235 C17 1.554 . S
C240 C111 1.497 . S
C245 C109 1.553 . S
C250 C65 1.497 . S
C255 C134 1.498 . S
C260 C63 1.553 . S
C265 C158 1.514 . S
C270 C131 1.552 . S
C275 C112 1.515 . S
C280 C154 1.552 . S
C285 C181 1.514 . S
C290 C108 1.551 . S
C295 C135 1.514 . S
C300 C177 1.552 . S
C305 C86 1.553 . S
C310 C157 1.499 . S
C315 C155 1.553 . S
C320 C42 1.498 . S
C325 C40 1.553 . S
C330 C180 1.496 . S
C335 C88 1.498 . S
C340 C178 1.553 . S
C345 C18 1.214 . S
C350 C21 1.124 . S
C355 C44 1.120 . S
C360 C41 1.214 . S
C365 C67 1.125 . S
C370 C64 1.213 . S
C375 C90 1.125 . S
C380 C87 1.214 . S
C385 C113 1.120 . S
C390 C110 1.214 . S
C395 C136 1.125 . S
C400 C133 1.213 . S
C405 C159 1.120 . S
C410 C156 1.214 . S
C415 C179 1.214 . S
C420 C182 1.125 . S
