# Generated by pormake.
# Topology sml, (6)-cn, num edge types: 1
# Building blocks:
#     Node 0, Type 0, BuildingBlock: BETGAK_clean_sbu_0, # of connection points: 6
#     Node 1, Type 0, BuildingBlock: BETGAK_clean_sbu_0, # of connection points: 6
#     Node 2, Type 0, BuildingBlock: BETGAK_clean_sbu_0, # of connection points: 6
#     Node 3, Type 0, BuildingBlock: BETGAK_clean_sbu_0, # of connection points: 6
#     Node 4, Type 0, BuildingBlock: BETGAK_clean_sbu_0, # of connection points: 6
#     Node 5, Type 0, BuildingBlock: BETGAK_clean_sbu_0, # of connection points: 6
#     Edge 6, Type (0, 0), BuildingBlock: CIFDUS_clean_linker_0, # of connection points: 2
#     Edge 7, Type (0, 0), BuildingBlock: CIFDUS_clean_linker_0, # of connection points: 2
#     Edge 8, Type (0, 0), BuildingBlock: CIFDUS_clean_linker_0, # of connection points: 2
#     Edge 9, Type (0, 0), BuildingBlock: CIFDUS_clean_linker_0, # of connection points: 2
#     Edge 10, Type (0, 0), BuildingBlock: CIFDUS_clean_linker_0, # of connection points: 2
#     Edge 11, Type (0, 0), BuildingBlock: CIFDUS_clean_linker_0, # of connection points: 2
#     Edge 12, Type (0, 0), BuildingBlock: CIFDUS_clean_linker_0, # of connection points: 2
#     Edge 13, Type (0, 0), BuildingBlock: CIFDUS_clean_linker_0, # of connection points: 2
#     Edge 14, Type (0, 0), BuildingBlock: CIFDUS_clean_linker_0, # of connection points: 2
#     Edge 15, Type (0, 0), BuildingBlock: CIFDUS_clean_linker_0, # of connection points: 2
#     Edge 16, Type (0, 0), BuildingBlock: CIFDUS_clean_linker_0, # of connection points: 2
#     Edge 17, Type (0, 0), BuildingBlock: CIFDUS_clean_linker_0, # of connection points: 2
#     Edge 18, Type (0, 0), BuildingBlock: CIFDUS_clean_linker_0, # of connection points: 2
#     Edge 19, Type (0, 0), BuildingBlock: CIFDUS_clean_linker_0, # of connection points: 2
#     Edge 20, Type (0, 0), BuildingBlock: CIFDUS_clean_linker_0, # of connection points: 2
#     Edge 21, Type (0, 0), BuildingBlock: CIFDUS_clean_linker_0, # of connection points: 2
#     Edge 22, Type (0, 0), BuildingBlock: CIFDUS_clean_linker_0, # of connection points: 2
#     Edge 23, Type (0, 0), BuildingBlock: CIFDUS_clean_linker_0, # of connection points: 2
# Relax obj value: 0.219
# Max RMSD: 0.240
# Mean RMSD: 0.240
data_MOF--net-sml--node1-BETGAK_clean_sbu_0--edge1-CIFDUS_clean_linker_0
_symmetry_space_group_name_H-M    P1
_symmetry_Int_Tables_number       1
_symmetry_cell_setting            triclinic
loop_
_symmetry_equiv_pos_as_xyz
'x, y, z'
_cell_length_a     27.173799
_cell_length_b     27.202222
_cell_length_c     23.030143
_cell_angle_alpha  90.136154
_cell_angle_beta   90.123995
_cell_angle_gamma 120.31492
loop_
_atom_site_label
_atom_site_type_symbol
_atom_site_fract_x
_atom_site_fract_y
_atom_site_fract_z
_atom_type_partial_charge
La0 La 0.17594 0.42495 0.14748 0.0
La1 La 0.22801 0.40387 0.25435 0.0
C2 C 0.15024 0.44556 0.04891 0.0
C3 C 0.16405 0.44285 0.98801 0.0
C4 C 0.14157 0.46231 0.94504 0.0
C5 C 0.15387 0.45991 0.88665 0.0
C6 C 0.18911 0.43822 0.87047 0.0
C7 C 0.21187 0.41903 0.91384 0.0
C8 C 0.19923 0.42114 0.97221 0.0
C9 C 0.10258 0.36482 0.22934 0.0
C10 C 0.22004 0.33554 0.14367 0.0
C11 C 0.24678 0.37931 0.35411 0.0
C12 C 0.231 0.38336 0.41387 0.0
C13 C 0.25658 0.37038 0.45941 0.0
C14 C 0.24344 0.37529 0.51683 0.0
C15 C 0.20471 0.39374 0.52967 0.0
C16 C 0.17843 0.40592 0.48361 0.0
C17 C 0.19141 0.40062 0.42606 0.0
C18 C 0.30178 0.46865 0.1741 0.0
C19 C 0.19504 0.50048 0.25658 0.0
O20 O 0.12101 0.39664 0.07546 0.0
O21 O 0.19188 0.48371 0.08106 0.0
O22 O 0.09747 0.39929 0.19469 0.0
O23 O 0.14572 0.36177 0.21479 0.0
O24 O 0.20826 0.37043 0.11452 0.0
O25 O 0.22237 0.33589 0.2009 0.0
O26 O 0.28025 0.4278 0.32835 0.0
O27 O 0.20522 0.34339 0.32034 0.0
O28 O 0.31088 0.43787 0.21055 0.0
O29 O 0.25671 0.46756 0.1884 0.0
O30 O 0.20064 0.46215 0.28665 0.0
O31 O 0.1922 0.49894 0.19916 0.0
H32 H 0.11443 0.47932 0.95666 0.0
H33 H 0.13626 0.47552 0.85418 0.0
H34 H 0.23869 0.40158 0.90255 0.0
H35 H 0.2168 0.40578 1.00487 0.0
H36 H 0.28691 0.35656 0.45055 0.0
H37 H 0.26347 0.36437 0.55118 0.0
H38 H 0.14868 0.42053 0.49199 0.0
H39 H 0.17092 0.41036 0.3912 0.0
La40 La 0.82273 0.27781 0.58057 0.0
La41 La 0.78406 0.19453 0.47746 0.0
C42 C 0.83211 0.32395 0.67857 0.0
C43 C 0.82409 0.30961 0.74113 0.0
C44 C 0.85808 0.35197 0.78156 0.0
C45 C 0.85176 0.34068 0.84116 0.0
C46 C 0.81114 0.28656 0.86205 0.0
C47 C 0.77735 0.24377 0.82125 0.0
C48 C 0.78367 0.25522 0.76134 0.0
C49 C 0.90441 0.29389 0.50807 0.0
C50 C 0.79566 0.1481 0.59486 0.0
C51 C 0.774 0.14932 0.37884 0.0
C52 C 0.77684 0.16401 0.31652 0.0
C53 C 0.73966 0.12191 0.27743 0.0
C54 C 0.74218 0.13319 0.21793 0.0
C55 C 0.78206 0.18703 0.19581 0.0
C56 C 0.81861 0.22975 0.2353 0.0
C57 C 0.81618 0.2183 0.29508 0.0
C58 C 0.70422 0.18541 0.54921 0.0
C59 C 0.80423 0.3208 0.4613 0.0
O60 O 0.87375 0.32151 0.65282 0.0
O61 O 0.78638 0.30358 0.64579 0.0
O62 O 0.90366 0.33344 0.53891 0.0
O63 O 0.86238 0.24623 0.52266 0.0
O64 O 0.79965 0.19451 0.61882 0.0
O65 O 0.79821 0.14267 0.53809 0.0
O66 O 0.73111 0.14569 0.40824 0.0
O67 O 0.82166 0.17431 0.40878 0.0
O68 O 0.70236 0.14196 0.52349 0.0
O69 O 0.74706 0.23013 0.53192 0.0
O70 O 0.80021 0.27417 0.4385 0.0
O71 O 0.80777 0.3299 0.51831 0.0
H72 H 0.88974 0.39411 0.76697 0.0
H73 H 0.8793 0.3744 0.87091 0.0
H74 H 0.74539 0.20171 0.83561 0.0
H75 H 0.75689 0.22177 0.73094 0.0
H76 H 0.70879 0.07985 0.29294 0.0
H77 H 0.71269 0.09955 0.18917 0.0
H78 H 0.85006 0.27158 0.21989 0.0
H79 H 0.84538 0.25162 0.32434 0.0
La80 La 0.55795 0.75859 0.82428 0.0
La81 La 0.5707 0.83292 0.92782 0.0
C82 C 0.5381 0.71478 0.72399 0.0
C83 C 0.54705 0.73252 0.66251 0.0
C84 C 0.55987 0.70165 0.62263 0.0
C85 C 0.56667 0.71582 0.56374 0.0
C86 C 0.56057 0.76117 0.54328 0.0
C87 C 0.54789 0.79232 0.58345 0.0
C88 C 0.5415 0.7783 0.64259 0.0
C89 C 0.62372 0.75611 0.90622 0.0
C90 C 0.64472 0.89419 0.8213 0.0
C91 C 0.57776 0.8781 0.02582 0.0
C92 C 0.56896 0.86188 0.08763 0.0
C93 C 0.55674 0.89397 0.12653 0.0
C94 C 0.54867 0.88021 0.18554 0.0
C95 C 0.553 0.83416 0.20698 0.0
C96 C 0.56475 0.80164 0.16769 0.0
C97 C 0.5723 0.81516 0.10845 0.0
C98 C 0.50307 0.82806 0.84261 0.0
C99 C 0.48989 0.69858 0.93549 0.0
O100 O 0.58365 0.72689 0.75436 0.0
O101 O 0.50193 0.72335 0.75352 0.0
O102 O 0.59361 0.71459 0.87052 0.0
O103 O 0.62097 0.79971 0.89208 0.0
O104 O 0.6127 0.84614 0.79202 0.0
O105 O 0.64081 0.89733 0.87818 0.0
O106 O 0.53203 0.85576 0.99317 0.0
O107 O 0.62081 0.8786 0.99975 0.0
O108 O 0.5361 0.8742 0.87124 0.0
O109 O 0.50762 0.78811 0.8632 0.0
O110 O 0.52453 0.74654 0.96332 0.0
O111 O 0.48968 0.69487 0.87812 0.0
H112 H 0.56414 0.66606 0.637 0.0
H113 H 0.57572 0.6905 0.53401 0.0
H114 H 0.5435 0.82786 0.56927 0.0
H115 H 0.53205 0.80303 0.67263 0.0
H116 H 0.55372 0.93001 0.11126 0.0
H117 H 0.54013 0.90637 0.2146 0.0
H118 H 0.56757 0.76542 0.18268 0.0
H119 H 0.58076 0.78921 0.07905 0.0
La120 La 0.76337 0.5771 0.21509 0.0
La121 La 0.8304 0.58074 0.10657 0.0
C122 C 0.71187 0.54741 0.31085 0.0
C123 C 0.73031 0.55087 0.37174 0.0
C124 C 0.69072 0.51737 0.41422 0.0
C125 C 0.70795 0.52002 0.47208 0.0
C126 C 0.76523 0.55619 0.48849 0.0
C127 C 0.8048 0.58954 0.44553 0.0
C128 C 0.78751 0.58681 0.38777 0.0
C129 C 0.76595 0.64417 0.13034 0.0
C130 C 0.89588 0.66559 0.21279 0.0
C131 C 0.88088 0.60981 1.0102 0.0
C132 C 0.86203 0.59944 0.94905 0.0
C133 C 0.90075 0.62996 0.90474 0.0
C134 C 0.88275 0.62202 0.84667 0.0
C135 C 0.8255 0.58355 0.8319 0.0
C136 C 0.78698 0.55263 0.87659 0.0
C137 C 0.8051 0.56045 0.93452 0.0
C138 C 0.82217 0.50912 0.18752 0.0
C139 C 0.69976 0.48897 0.10961 0.0
O140 O 0.72672 0.59603 0.28547 0.0
O141 O 0.71985 0.51315 0.27722 0.0
O142 O 0.7599 0.65242 0.18481 0.0
O143 O 0.76425 0.59743 0.12626 0.0
O144 O 0.8496 0.63719 0.24506 0.0
O145 O 0.89655 0.65277 0.15722 0.0
O146 O 0.87336 0.56536 0.03964 0.0
O147 O 0.86595 0.6413 0.04 0.0
O148 O 0.82772 0.50215 0.1326 0.0
O149 O 0.82773 0.55742 0.19536 0.0
O150 O 0.74583 0.51733 0.07726 0.0
O151 O 0.69743 0.50379 0.16426 0.0
H152 H 0.64646 0.48904 0.40262 0.0
H153 H 0.67651 0.49325 0.50386 0.0
H154 H 0.84909 0.61828 0.45663 0.0
H155 H 0.81885 0.61285 0.35565 0.0
H156 H 0.94482 0.66044 0.9151 0.0
H157 H 0.91338 0.64701 0.81349 0.0
H158 H 0.7428 0.52214 0.86678 0.0
H159 H 0.77449 0.53629 0.96795 0.0
La160 La 0.2884 0.84757 0.44363 0.0
La161 La 0.2083 0.80813 0.54919 0.0
C162 C 0.33545 0.86094 0.34585 0.0
C163 C 0.31885 0.84796 0.28433 0.0
C164 C 0.36096 0.87113 0.24137 0.0
C165 C 0.34593 0.8622 0.18249 0.0
C166 C 0.28837 0.82974 0.1655 0.0
C167 C 0.24633 0.80591 0.2089 0.0
C168 C 0.26147 0.81509 0.26772 0.0
C169 C 0.30509 0.92842 0.51849 0.0
C170 C 0.15728 0.81647 0.43214 0.0
C171 C 0.16655 0.80228 0.64843 0.0
C172 C 0.1878 0.81464 0.70869 0.0
C173 C 0.149 0.7904 0.75438 0.0
C174 C 0.16809 0.79971 0.81195 0.0
C175 C 0.22656 0.83342 0.82508 0.0
C176 C 0.26538 0.8584 0.77898 0.0
C177 C 0.24616 0.84895 0.72129 0.0
C178 C 0.19421 0.7268 0.47684 0.0
C179 C 0.33547 0.83069 0.56145 0.0
O180 O 0.32489 0.89825 0.37003 0.0
O181 O 0.32255 0.81765 0.38011 0.0
O182 O 0.34406 0.92901 0.48577 0.0
O183 O 0.25785 0.88586 0.50397 0.0
O184 O 0.20362 0.82176 0.40676 0.0
O185 O 0.15299 0.81832 0.48917 0.0
O186 O 0.16764 0.75969 0.6232 0.0
O187 O 0.18391 0.84607 0.61382 0.0
O188 O 0.15414 0.72426 0.50953 0.0
O189 O 0.24087 0.77034 0.49041 0.0
O190 O 0.28891 0.82471 0.58612 0.0
O191 O 0.34377 0.83577 0.50446 0.0
H192 H 0.40554 0.89667 0.25336 0.0
H193 H 0.3794 0.8805 0.15028 0.0
H194 H 0.20158 0.78118 0.19743 0.0
H195 H 0.22837 0.79712 0.30016 0.0
H196 H 0.10379 0.76393 0.74552 0.0
H197 H 0.13687 0.7807 0.84625 0.0
H198 H 0.31071 0.88427 0.78738 0.0
H199 H 0.27688 0.868 0.68661 0.0
La200 La 0.41891 0.13838 0.91211 0.0
La201 La 0.39806 0.19646 0.80886 0.0
C202 C 0.44206 0.11593 1.01111 0.0
C203 C 0.4338 0.12713 0.07195 0.0
C204 C 0.38614 0.13092 0.08858 0.0
C205 C 0.37924 0.14199 0.14643 0.0
C206 C 0.41967 0.14908 0.1889 0.0
C207 C 0.46726 0.14506 0.172 0.0
C208 C 0.47428 0.13434 0.11404 0.0
C209 C 0.34831 0.06897 0.83245 0.0
C210 C 0.33525 0.1908 0.92183 0.0
C211 C 0.37455 0.21747 0.70932 0.0
C212 C 0.38232 0.20471 0.64889 0.0
C213 C 0.42831 0.19774 0.63304 0.0
C214 C 0.43464 0.18531 0.57549 0.0
C215 C 0.39506 0.17961 0.5326 0.0
C216 C 0.34879 0.18616 0.54891 0.0
C217 C 0.34252 0.19853 0.60648 0.0
C218 C 0.47246 0.26388 0.88763 0.0
C219 C 0.48542 0.15022 0.79774 0.0
O220 O 0.39592 0.08144 0.98164 0.0
O221 O 0.4777 0.16045 0.98068 0.0
O222 O 0.38074 0.05804 0.8648 0.0
O223 O 0.35291 0.11535 0.84925 0.0
O224 O 0.3685 0.17482 0.94834 0.0
O225 O 0.33406 0.19469 0.86484 0.0
O226 O 0.42074 0.25251 0.73839 0.0
O227 O 0.33905 0.17364 0.74052 0.0
O228 O 0.43984 0.27725 0.85858 0.0
O229 O 0.4652 0.21734 0.86906 0.0
O230 O 0.45142 0.16537 0.77223 0.0
O231 O 0.48452 0.14165 0.85453 0.0
H232 H 0.35408 0.12498 0.05693 0.0
H233 H 0.34179 0.1442 0.15805 0.0
H234 H 0.49954 0.15101 0.20345 0.0
H235 H 0.51144 0.13174 0.10203 0.0
H236 H 0.45957 0.20228 0.66495 0.0
H237 H 0.47109 0.18114 0.56444 0.0
H238 H 0.31702 0.18115 0.51727 0.0
H239 H 0.30645 0.20324 0.61792 0.0
H240 H 0.33246 0.2003 0.04018 0.0
H241 H 0.26577 0.22874 0.8814 0.0
H242 H 0.22205 0.27333 0.93593 0.0
H243 H 0.20761 0.31003 0.02788 0.0
H244 H 0.27259 0.28019 0.187 0.0
H245 H 0.31096 0.22976 0.13329 0.0
C246 C 0.30757 0.21526 1.01752 0.0
C247 C 0.30287 0.21115 0.95659 0.0
C248 C 0.28222 0.24099 0.04922 0.0
C249 C 0.27052 0.2313 0.92819 0.0
C250 C 0.24544 0.25702 0.95935 0.0
C251 C 0.22974 0.29213 0.05092 0.0
C252 C 0.23746 0.29945 0.11138 0.0
C253 C 0.25184 0.26305 1.01975 0.0
C254 C 0.26583 0.27532 0.14048 0.0
C255 C 0.2881 0.24657 0.10975 0.0
H256 H 0.03896 0.40231 0.27851 0.0
H257 H 0.08813 0.27556 0.29881 0.0
H258 H 0.02697 0.23819 0.38524 0.0
H259 H 0.95958 0.24344 0.45618 0.0
H260 H 0.92121 0.37833 0.43651 0.0
H261 H 0.97627 0.40934 0.34792 0.0
C262 C 0.03619 0.36626 0.30159 0.0
C263 C 0.06773 0.34155 0.2823 0.0
C264 C 1.00195 0.34592 0.35103 0.0
C265 C 0.06436 0.29546 0.31315 0.0
C266 C 0.02916 0.27397 0.3623 0.0
C267 C 0.96288 0.27904 0.43183 0.0
C268 C 0.93504 0.30759 0.45211 0.0
C269 C 0.99758 0.29891 0.38175 0.0
C270 C 0.94094 0.35473 0.42121 0.0
C271 C 0.97296 0.37296 0.37071 0.0
H272 H 0.78232 0.13978 0.7126 0.0
H273 H 0.76713 0.04073 0.55968 0.0
H274 H 0.72163 0.95369 0.6168 0.0
H275 H 0.67838 0.90453 0.70826 0.0
H276 H 0.69451 0.00366 0.86133 0.0
H277 H 0.74728 0.0914 0.80602 0.0
C278 C 0.76997 0.09934 0.69183 0.0
C279 C 0.77789 0.0971 0.63168 0.0
C280 C 0.7433 0.04911 0.72487 0.0
C281 C 0.76167 0.04407 0.60581 0.0
C282 C 0.73525 0.99402 0.63841 0.0
C283 C 0.69397 0.94532 0.72971 0.0
C284 C 0.68206 0.94727 0.78883 0.0
C285 C 0.72458 0.99586 0.69767 0.0
C286 C 0.70299 1.00066 0.81592 0.0
C287 C 0.73311 0.05102 0.78426 0.0
H288 H 0.6705 0.69027 0.902 0.0
H289 H 0.65941 0.81304 1.01078 0.0
H290 H 0.70654 0.79245 0.0903 0.0
H291 H 0.74276 0.73166 0.13119 0.0
H292 H 0.75472 0.61125 1.01824 0.0
H293 H 0.71663 0.63941 0.93786 0.0
C294 C 0.67915 0.71318 0.94287 0.0
C295 C 0.66077 0.75252 0.95101 0.0
C296 C 0.70646 0.7013 0.98768 0.0
C297 C 0.67292 0.78244 1.00372 0.0
C298 C 0.69969 0.77041 0.04919 0.0
C299 C 0.73784 0.71241 0.08871 0.0
C300 C 0.75107 0.66898 0.08095 0.0
C301 C 0.71543 0.72878 0.04212 0.0
C302 C 0.74478 0.64459 0.02558 0.0
C303 C 0.7227 0.66048 0.97948 0.0
H304 H 0.14554 0.80399 0.31396 0.0
H305 H 0.05149 0.79043 0.46984 0.0
H306 H 0.96302 0.74764 0.41435 0.0
H307 H 0.91099 0.70493 0.32403 0.0
H308 H 0.0041 0.7159 0.16825 0.0
H309 H 0.09403 0.76919 0.22121 0.0
C310 C 0.1059 0.79231 0.33579 0.0
C311 C 0.1055 0.79977 0.39633 0.0
C312 C 0.05471 0.7668 0.30368 0.0
C313 C 0.05346 0.78501 0.42346 0.0
C314 C 1.00259 0.76025 0.39176 0.0
C315 C 0.9509 0.7195 0.30133 0.0
C316 C 0.95049 0.70563 0.2423 0.0
C317 C 1.0025 0.74949 0.3322 0.0
C318 C 1.00287 0.72562 0.21367 0.0
C319 C 0.05445 0.75597 0.24402 0.0
H320 H 0.40239 0.03192 0.76446 0.0
H321 H 0.2545 0.051 0.76941 0.0
H322 H 0.22581 0.00715 0.67228 0.0
H323 H 0.24395 0.9627 0.5857 0.0
H324 H 0.4001 0.95781 0.57999 0.0
H325 H 0.42487 0.9973 0.67729 0.0
C326 C 0.36394 0.02673 0.74426 0.0
C327 C 0.33034 0.0442 0.77385 0.0
C328 C 0.34936 0.004 0.6882 0.0
C329 C 0.28093 0.03771 0.74711 0.0
C330 C 0.26463 0.01269 0.69174 0.0
C331 C 0.2832 0.97031 0.60608 0.0
C332 C 0.31931 0.95573 0.57641 0.0
C333 C 0.29858 0.99552 0.66179 0.0
C334 C 0.37097 0.96742 0.60236 0.0
C335 C 0.38533 0.99017 0.65803 0.0
H336 H 0.11416 0.40004 0.78042 0.0
H337 H 0.29213 0.4694 0.82183 0.0
H338 H 0.31272 0.463 0.71972 0.0
H339 H 0.28013 0.43753 0.6192 0.0
H340 H 0.10167 0.36548 0.57787 0.0
H341 H 0.08153 0.37473 0.67937 0.0
C342 C 0.15751 0.41421 0.76692 0.0
C343 C 0.20157 0.43508 0.80847 0.0
C344 C 0.16897 0.41026 0.70828 0.0
C345 C 0.25743 0.45258 0.79065 0.0
C346 C 0.26925 0.4492 0.73232 0.0
C347 C 0.2367 0.42329 0.63242 0.0
C348 C 0.19245 0.40058 0.591 0.0
C349 C 0.2253 0.42784 0.69088 0.0
C350 C 0.13664 0.38362 0.60871 0.0
C351 C 0.12501 0.38853 0.66681 0.0
H352 H 0.79696 0.28171 0.13772 0.0
H353 H 0.77651 0.11554 0.1091 0.0
H354 H 0.7815 0.13042 1.00442 0.0
H355 H 0.79372 0.19123 0.92032 0.0
H356 H 0.8136 0.35721 0.94855 0.0
H357 H 0.80763 0.34204 0.05329 0.0
C358 C 0.794 0.2489 0.10863 0.0
C359 C 0.78614 0.19745 0.13169 0.0
C360 C 0.79701 0.25774 0.04803 0.0
C361 C 0.78173 0.15524 0.09293 0.0
C362 C 0.78488 0.16381 0.03285 0.0
C363 C 0.79613 0.22388 0.94926 0.0
C364 C 0.80453 0.27549 0.92611 0.0
C365 C 0.79249 0.21486 1.0098 0.0
C366 C 0.80815 0.31743 0.96479 0.0
C367 C 0.80446 0.30871 0.0249 0.0
H368 H 0.49493 0.78781 0.47486 0.0
H369 H 0.6418 0.76645 0.46975 0.0
H370 H 0.65142 0.78551 0.36568 0.0
H371 H 0.61849 0.80847 0.27582 0.0
H372 H 0.47214 0.8306 0.28041 0.0
H373 H 0.46235 0.81165 0.38473 0.0
C374 C 0.52937 0.78788 0.45108 0.0
C375 C 0.56741 0.77542 0.48022 0.0
C376 C 0.53473 0.79894 0.39099 0.0
C377 C 0.6114 0.77508 0.44843 0.0
C378 C 0.61709 0.78619 0.38886 0.0
C379 C 0.58413 0.80861 0.29954 0.0
C380 C 0.54611 0.82088 0.27022 0.0
C381 C 0.57885 0.79785 0.3596 0.0
C382 C 0.50235 0.82179 0.30192 0.0
C383 C 0.49661 0.8108 0.3616 0.0
H384 H 0.87923 0.57677 0.73452 0.0
H385 H 0.72702 0.57508 0.79086 0.0
H386 H 0.69436 0.56489 0.6904 0.0
H387 H 0.71006 0.55916 0.58615 0.0
H388 H 0.86208 0.5607 0.52949 0.0
H389 H 0.89414 0.56932 0.63014 0.0
C390 C 0.83908 0.57453 0.7248 0.0
C391 C 0.80568 0.57665 0.77038 0.0
C392 C 0.8206 0.56896 0.66674 0.0
C393 C 0.75332 0.57282 0.75689 0.0
C394 C 0.73472 0.56733 0.69934 0.0
C395 C 0.74991 0.56075 0.59582 0.0
C396 C 0.78367 0.55954 0.55013 0.0
C397 C 0.76804 0.5655 0.65389 0.0
C398 C 0.83561 0.56243 0.5636 0.0
C399 C 0.85386 0.56705 0.62124 0.0
H400 H 0.18873 0.75455 0.91151 0.0
H401 H 0.30963 0.93134 0.87721 0.0
H402 H 0.34064 0.94543 0.97869 0.0
H403 H 0.33108 0.90815 0.07814 0.0
H404 H 0.20889 0.73158 0.11197 0.0
H405 H 0.17989 0.71722 1.01006 0.0
C406 C 0.22154 0.79633 0.92624 0.0
C407 C 0.24656 0.84184 0.88663 0.0
C408 C 0.23871 0.80428 0.98476 0.0
C409 C 0.28995 0.89538 0.90645 0.0
C410 C 0.30748 0.90356 0.96463 0.0
C411 C 0.29851 0.86638 0.06309 0.0
C412 C 0.2721 0.82105 0.10286 0.0
C413 C 0.28197 0.85836 1.00426 0.0
C414 C 0.22941 0.76741 0.08263 0.0
C415 C 0.21299 0.75906 0.02424 0.0
H416 H 0.37837 0.22576 0.43484 0.0
H417 H 0.4279 0.10581 0.49187 0.0
H418 H 0.44073 0.08653 0.39106 0.0
H419 H 0.43681 0.10287 0.28648 0.0
H420 H 0.38588 0.22182 0.22972 0.0
H421 H 0.37344 0.2413 0.33053 0.0
C422 C 0.3914 0.19495 0.42527 0.0
C423 C 0.40223 0.1674 0.47105 0.0
C424 C 0.39824 0.18368 0.36716 0.0
C425 C 0.42003 0.12828 0.45767 0.0
C426 C 0.42706 0.11696 0.39996 0.0
C427 C 0.42342 0.1334 0.29619 0.0
C428 C 0.41232 0.16082 0.2505 0.0
C429 C 0.41639 0.14447 0.35435 0.0
C430 C 0.39413 0.19961 0.26391 0.0
C431 C 0.38728 0.21102 0.3216 0.0
H432 H 0.15966 0.49889 0.36703 0.0
H433 H 0.22954 0.6077 0.21761 0.0
H434 H 0.23626 0.68785 0.27288 0.0
H435 H 0.22456 0.72752 0.36504 0.0
H436 H 0.14956 0.61762 0.51214 0.0
H437 H 0.14226 0.53708 0.45674 0.0
C438 C 0.17625 0.54014 0.34657 0.0
C439 C 0.19458 0.54754 0.28851 0.0
C440 C 0.17927 0.58576 0.37836 0.0
C441 C 0.21505 0.60092 0.26222 0.0
C442 C 0.21917 0.64683 0.29387 0.0
C443 C 0.20722 0.68607 0.3848 0.0
C444 C 0.1888 0.6785 0.44263 0.0
C445 C 0.202 0.6399 0.35217 0.0
C446 C 0.16439 0.62424 0.46765 0.0
C447 C 0.16026 0.57833 0.43604 0.0
H448 H 0.64396 0.10416 0.63181 0.0
H449 H 0.67707 0.2663 0.56563 0.0
H450 H 0.61421 0.27022 0.63838 0.0
H451 H 0.5495 0.22806 0.71959 0.0
H452 H 0.51682 0.06834 0.7912 0.0
H453 H 0.58071 0.06321 0.71863 0.0
C454 C 0.63682 0.13993 0.63333 0.0
C455 C 0.6643 0.18456 0.59302 0.0
C456 C 0.60147 0.14266 0.6766 0.0
C457 C 0.65601 0.23139 0.59601 0.0
C458 C 0.62026 0.23376 0.63766 0.0
C459 C 0.55651 0.19216 0.7194 0.0
C460 C 0.52849 0.14851 0.76018 0.0
C461 C 0.59285 0.18977 0.67801 0.0
C462 C 0.53846 0.10265 0.76034 0.0
C463 C 0.57452 0.09956 0.71856 0.0
H464 H 0.28784 0.48735 0.06172 0.0
H465 H 0.41236 0.54453 0.1992 0.0
H466 H 0.48244 0.62054 0.13687 0.0
H467 H 0.50647 0.67308 0.04468 0.0
H468 H 0.38398 0.61225 0.90453 0.0
H469 H 0.3147 0.53494 0.96606 0.0
C470 C 0.33028 0.51658 0.07773 0.0
C471 C 0.34489 0.51127 0.13493 0.0
C472 C 0.37049 0.55924 0.04117 0.0
C473 C 0.40039 0.54816 0.1552 0.0
C474 C 0.44028 0.5916 0.11967 0.0
C475 C 0.4647 0.64266 0.02754 0.0
C476 C 0.45007 0.64861 0.97038 0.0
C477 C 0.42557 0.59792 0.06281 0.0
C478 C 0.3962 0.60845 0.94836 0.0
C479 C 0.35652 0.56443 0.98361 0.0
H480 H 0.79267 0.30874 0.34508 0.0
H481 H 0.82016 0.42848 0.48237 0.0
H482 H 0.82727 0.49776 0.40964 0.0
H483 H 0.82815 0.52461 0.30577 0.0
H484 H 0.802 0.40239 0.17172 0.0
H485 H 0.79248 0.33378 0.24492 0.0
C486 C 0.80021 0.34988 0.35974 0.0
C487 C 0.80606 0.36325 0.41942 0.0
C488 C 0.80473 0.38918 0.31804 0.0
C489 C 0.81541 0.4169 0.43682 0.0
C490 C 0.81958 0.45655 0.39519 0.0
C491 C 0.82 0.48279 0.29287 0.0
C492 C 0.81566 0.46846 0.23341 0.0
C493 C 0.81467 0.44325 0.33552 0.0
C494 C 0.80559 0.41443 0.2171 0.0
C495 C 0.80006 0.37513 0.25893 0.0
H496 H 0.31447 0.76218 0.65204 0.0
H497 H 0.45179 0.90355 0.56255 0.0
H498 H 0.51655 0.91803 0.64411 0.0
H499 H 0.53134 0.8935 0.74481 0.0
H500 H 0.39411 0.74652 0.82808 0.0
H501 H 0.33142 0.73161 0.74554 0.0
C502 C 0.35892 0.79553 0.64992 0.0
C503 C 0.37841 0.83201 0.60178 0.0
C504 C 0.39531 0.8033 0.69651 0.0
C505 C 0.43604 0.87476 0.59914 0.0
C506 C 0.47274 0.88343 0.64606 0.0
C507 C 0.48754 0.85863 0.74469 0.0
C508 C 0.46652 0.82187 0.79272 0.0
C509 C 0.45238 0.84881 0.69573 0.0
C510 C 0.41057 0.77564 0.79174 0.0
C511 C 0.37493 0.76693 0.74452 0.0
H512 H 0.6948 0.41005 0.03602 0.0
H513 H 0.5904 0.46878 0.11563 0.0
H514 H 0.50988 0.40473 0.05279 0.0
H515 H 0.47144 0.33582 0.97018 0.0
H516 H 0.57546 0.27308 0.89735 0.0
H517 H 0.65396 0.3349 0.96213 0.0
C518 C 0.65406 0.40809 0.04017 0.0
C519 C 0.64832 0.44392 0.08013 0.0
C520 C 0.60825 0.37103 1.00446 0.0
C521 C 0.59546 0.44103 0.08549 0.0
C522 C 0.5497 0.40487 0.04917 0.0
C523 C 0.51142 0.33599 0.96871 0.0
C524 C 0.5183 0.30096 0.92845 0.0
C525 C 0.55596 0.37045 1.00761 0.0
C526 C 0.56955 0.30017 0.9277 0.0
C527 C 0.61438 0.3354 0.96475 0.0
loop_
_geom_bond_atom_site_label_1
_geom_bond_atom_site_label_2
_geom_bond_distance
_geom_bond_site_symmetry_2
_ccdc_geom_bond_type
La0 C2 2.928 . S
La0 O20 2.521 . S
La0 O21 2.628 . S
La0 O22 2.554 . S
La0 O23 2.757 . S
La0 O24 2.470 . S
La0 O29 2.482 . S
La0 O31 2.503 . S
La1 C11 2.928 . S
La1 O23 2.482 . S
La1 O25 2.503 . S
La1 O26 2.521 . S
La1 O27 2.628 . S
La1 O28 2.554 . S
La1 O29 2.757 . S
La1 O30 2.470 . S
C2 La0 2.928 . S
C2 C3 1.503 1_554 S
C2 O20 1.261 . S
C2 O21 1.243 . S
C3 C2 1.503 1_556 S
C3 C4 1.394 . S
C3 C8 1.373 . S
C4 C3 1.394 . S
C4 C5 1.380 . S
C4 H32 0.930 . S
C5 C4 1.380 . S
C5 C6 1.376 . S
C5 H33 0.930 . S
C6 C5 1.376 . S
C6 C7 1.370 . S
C7 C6 1.370 . S
C7 C8 1.396 . S
C7 H34 0.929 . S
C8 C3 1.373 . S
C8 C7 1.396 . S
C8 H35 0.929 . S
C9 O22 1.240 . S
C9 O23 1.289 . S
C10 O24 1.258 . S
C10 O25 1.256 . S
C11 La1 2.928 . S
C11 C12 1.503 . S
C11 O26 1.261 . S
C11 O27 1.243 . S
C12 C11 1.503 . S
C12 C13 1.394 . S
C12 C17 1.373 . S
C13 C12 1.394 . S
C13 C14 1.380 . S
C13 H36 0.930 . S
C14 C13 1.380 . S
C14 C15 1.376 . S
C14 H37 0.930 . S
C15 C14 1.376 . S
C15 C16 1.370 . S
C16 C15 1.370 . S
C16 C17 1.396 . S
C16 H38 0.929 . S
C17 C12 1.373 . S
C17 C16 1.396 . S
C17 H39 0.929 . S
C18 O28 1.240 . S
C18 O29 1.289 . S
C19 O30 1.258 . S
C19 O31 1.256 . S
O20 La0 2.521 . S
O20 C2 1.261 . S
O21 La0 2.628 . S
O21 C2 1.243 . S
O22 La0 2.554 . S
O22 C9 1.240 . S
O23 La0 2.757 . S
O23 La1 2.482 . S
O23 C9 1.289 . S
O24 La0 2.470 . S
O24 C10 1.258 . S
O25 La1 2.503 . S
O25 C10 1.256 . S
O26 La1 2.521 . S
O26 C11 1.261 . S
O27 La1 2.628 . S
O27 C11 1.243 . S
O28 La1 2.554 . S
O28 C18 1.240 . S
O29 La0 2.482 . S
O29 La1 2.757 . S
O29 C18 1.289 . S
O30 La1 2.470 . S
O30 C19 1.258 . S
O31 La0 2.503 . S
O31 C19 1.256 . S
H32 C4 0.930 . S
H33 C5 0.930 . S
H34 C7 0.929 . S
H35 C8 0.929 . S
H36 C13 0.930 . S
H37 C14 0.930 . S
H38 C16 0.929 . S
H39 C17 0.929 . S
La40 C42 2.928 . S
La40 O60 2.521 . S
La40 O61 2.628 . S
La40 O62 2.554 . S
La40 O63 2.757 . S
La40 O64 2.470 . S
La40 O69 2.482 . S
La40 O71 2.503 . S
La41 C51 2.928 . S
La41 O63 2.482 . S
La41 O65 2.503 . S
La41 O66 2.521 . S
La41 O67 2.628 . S
La41 O68 2.554 . S
La41 O69 2.757 . S
La41 O70 2.470 . S
C42 La40 2.928 . S
C42 C43 1.503 . S
C42 O60 1.261 . S
C42 O61 1.243 . S
C43 C42 1.503 . S
C43 C44 1.394 . S
C43 C48 1.373 . S
C44 C43 1.394 . S
C44 C45 1.380 . S
C44 H72 0.930 . S
C45 C44 1.380 . S
C45 C46 1.376 . S
C45 H73 0.930 . S
C46 C45 1.376 . S
C46 C47 1.370 . S
C47 C46 1.370 . S
C47 C48 1.396 . S
C47 H74 0.929 . S
C48 C43 1.373 . S
C48 C47 1.396 . S
C48 H75 0.929 . S
C49 O62 1.240 . S
C49 O63 1.289 . S
C50 O64 1.258 . S
C50 O65 1.256 . S
C51 La41 2.928 . S
C51 C52 1.503 . S
C51 O66 1.261 . S
C51 O67 1.243 . S
C52 C51 1.503 . S
C52 C53 1.394 . S
C52 C57 1.373 . S
C53 C52 1.394 . S
C53 C54 1.380 . S
C53 H76 0.930 . S
C54 C53 1.380 . S
C54 C55 1.376 . S
C54 H77 0.930 . S
C55 C54 1.376 . S
C55 C56 1.370 . S
C56 C55 1.370 . S
C56 C57 1.396 . S
C56 H78 0.929 . S
C57 C52 1.373 . S
C57 C56 1.396 . S
C57 H79 0.929 . S
C58 O68 1.240 . S
C58 O69 1.289 . S
C59 O70 1.258 . S
C59 O71 1.256 . S
O60 La40 2.521 . S
O60 C42 1.261 . S
O61 La40 2.628 . S
O61 C42 1.243 . S
O62 La40 2.554 . S
O62 C49 1.240 . S
O63 La40 2.757 . S
O63 La41 2.482 . S
O63 C49 1.289 . S
O64 La40 2.470 . S
O64 C50 1.258 . S
O65 La41 2.503 . S
O65 C50 1.256 . S
O66 La41 2.521 . S
O66 C51 1.261 . S
O67 La41 2.628 . S
O67 C51 1.243 . S
O68 La41 2.554 . S
O68 C58 1.240 . S
O69 La40 2.482 . S
O69 La41 2.757 . S
O69 C58 1.289 . S
O70 La41 2.470 . S
O70 C59 1.258 . S
O71 La40 2.503 . S
O71 C59 1.256 . S
H72 C44 0.930 . S
H73 C45 0.930 . S
H74 C47 0.929 . S
H75 C48 0.929 . S
H76 C53 0.930 . S
H77 C54 0.930 . S
H78 C56 0.929 . S
H79 C57 0.929 . S
La80 C82 2.928 . S
La80 O100 2.521 . S
La80 O101 2.628 . S
La80 O102 2.554 . S
La80 O103 2.757 . S
La80 O104 2.470 . S
La80 O109 2.482 . S
La80 O111 2.503 . S
La81 C91 2.928 1_556 S
La81 O103 2.482 . S
La81 O105 2.503 . S
La81 O106 2.521 1_556 S
La81 O107 2.628 1_556 S
La81 O108 2.554 . S
La81 O109 2.757 . S
La81 O110 2.470 . S
C82 La80 2.928 . S
C82 C83 1.503 . S
C82 O100 1.261 . S
C82 O101 1.243 . S
C83 C82 1.503 . S
C83 C84 1.394 . S
C83 C88 1.373 . S
C84 C83 1.394 . S
C84 C85 1.380 . S
C84 H112 0.930 . S
C85 C84 1.380 . S
C85 C86 1.376 . S
C85 H113 0.930 . S
C86 C85 1.376 . S
C86 C87 1.370 . S
C87 C86 1.370 . S
C87 C88 1.396 . S
C87 H114 0.929 . S
C88 C83 1.373 . S
C88 C87 1.396 . S
C88 H115 0.929 . S
C89 O102 1.240 . S
C89 O103 1.289 . S
C90 O104 1.258 . S
C90 O105 1.256 . S
C91 La81 2.928 1_554 S
C91 C92 1.503 . S
C91 O106 1.261 . S
C91 O107 1.243 . S
C92 C91 1.503 . S
C92 C93 1.394 . S
C92 C97 1.373 . S
C93 C92 1.394 . S
C93 C94 1.380 . S
C93 H116 0.930 . S
C94 C93 1.380 . S
C94 C95 1.376 . S
C94 H117 0.930 . S
C95 C94 1.376 . S
C95 C96 1.370 . S
C96 C95 1.370 . S
C96 C97 1.396 . S
C96 H118 0.929 . S
C97 C92 1.373 . S
C97 C96 1.396 . S
C97 H119 0.929 . S
C98 O108 1.240 . S
C98 O109 1.289 . S
C99 O110 1.258 . S
C99 O111 1.256 . S
O100 La80 2.521 . S
O100 C82 1.261 . S
O101 La80 2.628 . S
O101 C82 1.243 . S
O102 La80 2.554 . S
O102 C89 1.240 . S
O103 La80 2.757 . S
O103 La81 2.482 . S
O103 C89 1.289 . S
O104 La80 2.470 . S
O104 C90 1.258 . S
O105 La81 2.503 . S
O105 C90 1.256 . S
O106 La81 2.521 1_554 S
O106 C91 1.261 . S
O107 La81 2.628 1_554 S
O107 C91 1.243 . S
O108 La81 2.554 . S
O108 C98 1.240 . S
O109 La80 2.482 . S
O109 La81 2.757 . S
O109 C98 1.289 . S
O110 La81 2.470 . S
O110 C99 1.258 . S
O111 La80 2.503 . S
O111 C99 1.256 . S
H112 C84 0.930 . S
H113 C85 0.930 . S
H114 C87 0.929 . S
H115 C88 0.929 . S
H116 C93 0.930 . S
H117 C94 0.930 . S
H118 C96 0.929 . S
H119 C97 0.929 . S
La120 C122 2.928 . S
La120 O140 2.521 . S
La120 O141 2.628 . S
La120 O142 2.554 . S
La120 O143 2.757 . S
La120 O144 2.470 . S
La120 O149 2.482 . S
La120 O151 2.503 . S
La121 C131 2.928 1_554 S
La121 O143 2.482 . S
La121 O145 2.503 . S
La121 O146 2.521 1_554 S
La121 O147 2.628 1_554 S
La121 O148 2.554 . S
La121 O149 2.757 . S
La121 O150 2.470 . S
C122 La120 2.928 . S
C122 C123 1.503 . S
C122 O140 1.261 . S
C122 O141 1.243 . S
C123 C122 1.503 . S
C123 C124 1.394 . S
C123 C128 1.373 . S
C124 C123 1.394 . S
C124 C125 1.380 . S
C124 H152 0.930 . S
C125 C124 1.380 . S
C125 C126 1.376 . S
C125 H153 0.930 . S
C126 C125 1.376 . S
C126 C127 1.370 . S
C127 C126 1.370 . S
C127 C128 1.396 . S
C127 H154 0.929 . S
C128 C123 1.373 . S
C128 C127 1.396 . S
C128 H155 0.929 . S
C129 O142 1.240 . S
C129 O143 1.289 . S
C130 O144 1.258 . S
C130 O145 1.256 . S
C131 La121 2.928 1_556 S
C131 C132 1.503 . S
C131 O146 1.261 . S
C131 O147 1.243 . S
C132 C131 1.503 . S
C132 C133 1.394 . S
C132 C137 1.373 . S
C133 C132 1.394 . S
C133 C134 1.380 . S
C133 H156 0.930 . S
C134 C133 1.380 . S
C134 C135 1.376 . S
C134 H157 0.930 . S
C135 C134 1.376 . S
C135 C136 1.370 . S
C136 C135 1.370 . S
C136 C137 1.396 . S
C136 H158 0.929 . S
C137 C132 1.373 . S
C137 C136 1.396 . S
C137 H159 0.929 . S
C138 O148 1.240 . S
C138 O149 1.289 . S
C139 O150 1.258 . S
C139 O151 1.256 . S
O140 La120 2.521 . S
O140 C122 1.261 . S
O141 La120 2.628 . S
O141 C122 1.243 . S
O142 La120 2.554 . S
O142 C129 1.240 . S
O143 La120 2.757 . S
O143 La121 2.482 . S
O143 C129 1.289 . S
O144 La120 2.470 . S
O144 C130 1.258 . S
O145 La121 2.503 . S
O145 C130 1.256 . S
O146 La121 2.521 1_556 S
O146 C131 1.261 . S
O147 La121 2.628 1_556 S
O147 C131 1.243 . S
O148 La121 2.554 . S
O148 C138 1.240 . S
O149 La120 2.482 . S
O149 La121 2.757 . S
O149 C138 1.289 . S
O150 La121 2.470 . S
O150 C139 1.258 . S
O151 La120 2.503 . S
O151 C139 1.256 . S
H152 C124 0.930 . S
H153 C125 0.930 . S
H154 C127 0.929 . S
H155 C128 0.929 . S
H156 C133 0.930 . S
H157 C134 0.930 . S
H158 C136 0.929 . S
H159 C137 0.929 . S
La160 C162 2.928 . S
La160 O180 2.521 . S
La160 O181 2.628 . S
La160 O182 2.554 . S
La160 O183 2.757 . S
La160 O184 2.470 . S
La160 O189 2.482 . S
La160 O191 2.503 . S
La161 C171 2.928 . S
La161 O183 2.482 . S
La161 O185 2.503 . S
La161 O186 2.521 . S
La161 O187 2.628 . S
La161 O188 2.554 . S
La161 O189 2.757 . S
La161 O190 2.470 . S
C162 La160 2.928 . S
C162 C163 1.503 . S
C162 O180 1.261 . S
C162 O181 1.243 . S
C163 C162 1.503 . S
C163 C164 1.394 . S
C163 C168 1.373 . S
C164 C163 1.394 . S
C164 C165 1.380 . S
C164 H192 0.930 . S
C165 C164 1.380 . S
C165 C166 1.376 . S
C165 H193 0.930 . S
C166 C165 1.376 . S
C166 C167 1.370 . S
C167 C166 1.370 . S
C167 C168 1.396 . S
C167 H194 0.929 . S
C168 C163 1.373 . S
C168 C167 1.396 . S
C168 H195 0.929 . S
C169 O182 1.240 . S
C169 O183 1.289 . S
C170 O184 1.258 . S
C170 O185 1.256 . S
C171 La161 2.928 . S
C171 C172 1.503 . S
C171 O186 1.261 . S
C171 O187 1.243 . S
C172 C171 1.503 . S
C172 C173 1.394 . S
C172 C177 1.373 . S
C173 C172 1.394 . S
C173 C174 1.380 . S
C173 H196 0.930 . S
C174 C173 1.380 . S
C174 C175 1.376 . S
C174 H197 0.930 . S
C175 C174 1.376 . S
C175 C176 1.370 . S
C176 C175 1.370 . S
C176 C177 1.396 . S
C176 H198 0.929 . S
C177 C172 1.373 . S
C177 C176 1.396 . S
C177 H199 0.929 . S
C178 O188 1.240 . S
C178 O189 1.289 . S
C179 O190 1.258 . S
C179 O191 1.256 . S
O180 La160 2.521 . S
O180 C162 1.261 . S
O181 La160 2.628 . S
O181 C162 1.243 . S
O182 La160 2.554 . S
O182 C169 1.240 . S
O183 La160 2.757 . S
O183 La161 2.482 . S
O183 C169 1.289 . S
O184 La160 2.470 . S
O184 C170 1.258 . S
O185 La161 2.503 . S
O185 C170 1.256 . S
O186 La161 2.521 . S
O186 C171 1.261 . S
O187 La161 2.628 . S
O187 C171 1.243 . S
O188 La161 2.554 . S
O188 C178 1.240 . S
O189 La160 2.482 . S
O189 La161 2.757 . S
O189 C178 1.289 . S
O190 La161 2.470 . S
O190 C179 1.258 . S
O191 La160 2.503 . S
O191 C179 1.256 . S
H192 C164 0.930 . S
H193 C165 0.930 . S
H194 C167 0.929 . S
H195 C168 0.929 . S
H196 C173 0.930 . S
H197 C174 0.930 . S
H198 C176 0.929 . S
H199 C177 0.929 . S
La200 C202 2.928 . S
La200 O220 2.521 . S
La200 O221 2.628 . S
La200 O222 2.554 . S
La200 O223 2.757 . S
La200 O224 2.470 . S
La200 O229 2.482 . S
La200 O231 2.503 . S
La201 C211 2.928 . S
La201 O223 2.482 . S
La201 O225 2.503 . S
La201 O226 2.521 . S
La201 O227 2.628 . S
La201 O228 2.554 . S
La201 O229 2.757 . S
La201 O230 2.470 . S
C202 La200 2.928 . S
C202 C203 1.505 1_556 S
C202 O220 1.261 . S
C202 O221 1.243 . S
C203 C202 1.505 1_554 S
C203 C204 1.393 . S
C203 C208 1.372 . S
C204 C203 1.393 . S
C204 C205 1.380 . S
C204 H232 0.930 1_554 S
C205 C204 1.380 . S
C205 C206 1.376 . S
C205 H233 0.930 . S
C206 C205 1.376 . S
C206 C207 1.370 . S
C207 C206 1.370 . S
C207 C208 1.396 . S
C207 H234 0.929 . S
C208 C203 1.372 . S
C208 C207 1.396 . S
C208 H235 0.929 . S
C209 O222 1.240 . S
C209 O223 1.289 . S
C210 O224 1.258 . S
C210 O225 1.256 . S
C211 La201 2.928 . S
C211 C212 1.503 . S
C211 O226 1.261 . S
C211 O227 1.243 . S
C212 C211 1.503 . S
C212 C213 1.394 . S
C212 C217 1.373 . S
C213 C212 1.394 . S
C213 C214 1.380 . S
C213 H236 0.930 . S
C214 C213 1.380 . S
C214 C215 1.376 . S
C214 H237 0.930 . S
C215 C214 1.376 . S
C215 C216 1.370 . S
C216 C215 1.370 . S
C216 C217 1.396 . S
C216 H238 0.929 . S
C217 C212 1.373 . S
C217 C216 1.396 . S
C217 H239 0.929 . S
C218 O228 1.240 . S
C218 O229 1.289 . S
C219 O230 1.258 . S
C219 O231 1.256 . S
O220 La200 2.521 . S
O220 C202 1.261 . S
O221 La200 2.628 . S
O221 C202 1.243 . S
O222 La200 2.554 . S
O222 C209 1.240 . S
O223 La200 2.757 . S
O223 La201 2.482 . S
O223 C209 1.289 . S
O224 La200 2.470 . S
O224 C210 1.258 . S
O225 La201 2.503 . S
O225 C210 1.256 . S
O226 La201 2.521 . S
O226 C211 1.261 . S
O227 La201 2.628 . S
O227 C211 1.243 . S
O228 La201 2.554 . S
O228 C218 1.240 . S
O229 La200 2.482 . S
O229 La201 2.757 . S
O229 C218 1.289 . S
O230 La201 2.470 . S
O230 C219 1.258 . S
O231 La200 2.503 . S
O231 C219 1.256 . S
H232 C204 0.930 1_556 S
H233 C205 0.930 . S
H234 C207 0.929 . S
H235 C208 0.929 . S
H236 C213 0.930 . S
H237 C214 0.930 . S
H238 C216 0.929 . S
H239 C217 0.929 . S
H240 C246 0.930 . S
H241 C249 0.930 . S
H242 C250 0.930 . S
H243 C251 0.930 . S
H244 C254 0.930 . S
H245 C255 0.930 . S
C246 H240 0.930 . S
C246 C247 1.355 . S
C246 C248 1.415 . S
C247 C246 1.355 . S
C247 C249 1.419 . S
C248 C246 1.415 . S
C248 C253 1.425 1_556 S
C248 C255 1.409 1_556 S
C249 H241 0.930 . S
C249 C247 1.419 . S
C249 C250 1.362 . S
C250 H242 0.930 . S
C250 C249 1.362 . S
C250 C253 1.409 1_556 S
C251 H243 0.930 . S
C251 C252 1.355 . S
C251 C253 1.415 . S
C252 C251 1.355 . S
C252 C254 1.419 . S
C253 C248 1.425 1_554 S
C253 C250 1.409 1_554 S
C253 C251 1.415 . S
C254 H244 0.930 . S
C254 C252 1.419 . S
C254 C255 1.362 . S
C255 H245 0.930 . S
C255 C248 1.409 1_554 S
C255 C254 1.362 . S
H256 C262 0.930 . S
H257 C265 0.930 . S
H258 C266 0.930 . S
H259 C267 0.930 . S
H260 C270 0.930 . S
H261 C271 0.930 . S
C262 H256 0.930 . S
C262 C263 1.355 . S
C262 C264 1.414 . S
C263 C262 1.355 . S
C263 C265 1.419 . S
C264 C262 1.414 . S
C264 C269 1.425 1_455 S
C264 C271 1.410 1_455 S
C265 H257 0.930 . S
C265 C263 1.419 . S
C265 C266 1.362 . S
C266 H258 0.930 . S
C266 C265 1.362 . S
C266 C269 1.410 1_455 S
C267 H259 0.930 . S
C267 C268 1.355 . S
C267 C269 1.414 . S
C268 C267 1.355 . S
C268 C270 1.419 . S
C269 C264 1.425 1_655 S
C269 C266 1.410 1_655 S
C269 C267 1.414 . S
C270 H260 0.930 . S
C270 C268 1.419 . S
C270 C271 1.362 . S
C271 H261 0.930 . S
C271 C264 1.410 1_655 S
C271 C270 1.362 . S
H272 C278 0.930 . S
H273 C281 0.930 . S
H274 C282 0.930 . S
H275 C283 0.930 . S
H276 C286 0.930 . S
H277 C287 0.930 . S
C278 H272 0.930 . S
C278 C279 1.355 . S
C278 C280 1.415 . S
C279 C278 1.355 . S
C279 C281 1.419 1_545 S
C280 C278 1.415 . S
C280 C285 1.425 1_545 S
C280 C287 1.409 . S
C281 H273 0.930 . S
C281 C279 1.419 1_565 S
C281 C282 1.362 . S
C282 H274 0.930 . S
C282 C281 1.362 . S
C282 C285 1.409 . S
C283 H275 0.930 . S
C283 C284 1.355 . S
C283 C285 1.415 . S
C284 C283 1.355 . S
C284 C286 1.419 1_565 S
C285 C280 1.425 1_565 S
C285 C282 1.409 . S
C285 C283 1.415 . S
C286 H276 0.930 . S
C286 C284 1.419 1_545 S
C286 C287 1.362 . S
C287 H277 0.930 . S
C287 C280 1.409 . S
C287 C286 1.362 . S
H288 C294 0.930 1_554 S
H289 C297 0.930 . S
H290 C298 0.930 . S
H291 C299 0.930 1_556 S
H292 C302 0.930 . S
H293 C303 0.930 . S
C294 H288 0.930 1_556 S
C294 C295 1.355 . S
C294 C296 1.415 1_556 S
C295 C294 1.355 . S
C295 C297 1.419 . S
C296 C294 1.415 1_554 S
C296 C301 1.425 1_554 S
C296 C303 1.409 . S
C297 H289 0.930 . S
C297 C295 1.419 . S
C297 C298 1.362 . S
C298 H290 0.930 . S
C298 C297 1.362 . S
C298 C301 1.409 . S
C299 H291 0.930 1_554 S
C299 C300 1.355 . S
C299 C301 1.415 1_554 S
C300 C299 1.355 . S
C300 C302 1.419 . S
C301 C296 1.425 1_556 S
C301 C298 1.409 . S
C301 C299 1.415 1_556 S
C302 H292 0.930 . S
C302 C300 1.419 . S
C302 C303 1.362 . S
C303 H293 0.930 . S
C303 C296 1.409 . S
C303 C302 1.362 . S
H304 C310 0.930 . S
H305 C313 0.930 . S
H306 C314 0.930 . S
H307 C315 0.930 . S
H308 C318 0.930 . S
H309 C319 0.930 . S
C310 H304 0.930 . S
C310 C311 1.355 1_655 S
C310 C312 1.415 . S
C311 C310 1.355 1_455 S
C311 C313 1.419 . S
C312 C310 1.415 . S
C312 C317 1.425 1_655 S
C312 C319 1.409 . S
C313 H305 0.930 . S
C313 C311 1.419 . S
C313 C314 1.362 . S
C314 H306 0.930 . S
C314 C313 1.362 . S
C314 C317 1.409 . S
C315 H307 0.930 . S
C315 C316 1.355 1_455 S
C315 C317 1.415 . S
C316 C315 1.355 1_655 S
C316 C318 1.419 . S
C317 C312 1.425 1_455 S
C317 C314 1.409 . S
C317 C315 1.415 . S
C318 H308 0.930 . S
C318 C316 1.419 . S
C318 C319 1.362 . S
C319 H309 0.930 . S
C319 C312 1.409 . S
C319 C318 1.362 . S
H320 C326 0.930 . S
H321 C329 0.930 . S
H322 C330 0.930 . S
H323 C331 0.930 . S
H324 C334 0.930 . S
H325 C335 0.930 . S
C326 H320 0.930 . S
C326 C327 1.355 . S
C326 C328 1.415 . S
C327 C326 1.355 . S
C327 C329 1.419 . S
C328 C326 1.415 . S
C328 C333 1.425 1_545 S
C328 C335 1.409 1_545 S
C329 H321 0.930 . S
C329 C327 1.419 . S
C329 C330 1.362 . S
C330 H322 0.930 . S
C330 C329 1.362 . S
C330 C333 1.409 1_545 S
C331 H323 0.930 . S
C331 C332 1.355 . S
C331 C333 1.415 . S
C332 C331 1.355 . S
C332 C334 1.419 . S
C333 C328 1.425 1_565 S
C333 C330 1.409 1_565 S
C333 C331 1.415 . S
C334 H324 0.930 . S
C334 C332 1.419 . S
C334 C335 1.362 . S
C335 H325 0.930 . S
C335 C328 1.409 1_565 S
C335 C334 1.362 . S
H336 C342 0.930 . S
H337 C345 0.930 . S
H338 C346 0.930 . S
H339 C347 0.930 . S
H340 C350 0.930 . S
H341 C351 0.930 . S
C342 H336 0.930 . S
C342 C343 1.355 . S
C342 C344 1.415 . S
C343 C342 1.355 . S
C343 C345 1.419 . S
C344 C342 1.415 . S
C344 C349 1.425 . S
C344 C351 1.409 . S
C345 H337 0.930 . S
C345 C343 1.419 . S
C345 C346 1.362 . S
C346 H338 0.930 . S
C346 C345 1.362 . S
C346 C349 1.409 . S
C347 H339 0.930 . S
C347 C348 1.355 . S
C347 C349 1.415 . S
C348 C347 1.355 . S
C348 C350 1.419 . S
C349 C344 1.425 . S
C349 C346 1.409 . S
C349 C347 1.415 . S
C350 H340 0.930 . S
C350 C348 1.419 . S
C350 C351 1.362 . S
C351 H341 0.930 . S
C351 C344 1.409 . S
C351 C350 1.362 . S
H352 C358 0.930 1_554 S
H353 C361 0.930 . S
H354 C362 0.930 . S
H355 C363 0.930 . S
H356 C366 0.930 . S
H357 C367 0.930 . S
C358 H352 0.930 1_556 S
C358 C359 1.355 1_556 S
C358 C360 1.415 . S
C359 C358 1.355 1_554 S
C359 C361 1.419 1_554 S
C360 C358 1.415 . S
C360 C365 1.425 . S
C360 C367 1.409 . S
C361 H353 0.930 . S
C361 C359 1.419 1_556 S
C361 C362 1.362 . S
C362 H354 0.930 . S
C362 C361 1.362 . S
C362 C365 1.409 . S
C363 H355 0.930 . S
C363 C364 1.355 . S
C363 C365 1.415 . S
C364 C363 1.355 . S
C364 C366 1.419 . S
C365 C360 1.425 . S
C365 C362 1.409 . S
C365 C363 1.415 . S
C366 H356 0.930 . S
C366 C364 1.419 . S
C366 C367 1.362 . S
C367 H357 0.930 . S
C367 C360 1.409 . S
C367 C366 1.362 . S
H368 C374 0.930 . S
H369 C377 0.930 . S
H370 C378 0.930 . S
H371 C379 0.930 . S
H372 C382 0.930 . S
H373 C383 0.930 . S
C374 H368 0.930 . S
C374 C375 1.355 . S
C374 C376 1.415 . S
C375 C374 1.355 . S
C375 C377 1.419 . S
C376 C374 1.415 . S
C376 C381 1.425 . S
C376 C383 1.409 . S
C377 H369 0.930 . S
C377 C375 1.419 . S
C377 C378 1.362 . S
C378 H370 0.930 . S
C378 C377 1.362 . S
C378 C381 1.409 . S
C379 H371 0.930 . S
C379 C380 1.355 . S
C379 C381 1.415 . S
C380 C379 1.355 . S
C380 C382 1.419 . S
C381 C376 1.425 . S
C381 C378 1.409 . S
C381 C379 1.415 . S
C382 H372 0.930 . S
C382 C380 1.419 . S
C382 C383 1.362 . S
C383 H373 0.930 . S
C383 C376 1.409 . S
C383 C382 1.362 . S
H384 C390 0.930 . S
H385 C393 0.930 . S
H386 C394 0.930 . S
H387 C395 0.930 . S
H388 C398 0.930 . S
H389 C399 0.930 . S
C390 H384 0.930 . S
C390 C391 1.355 . S
C390 C392 1.415 . S
C391 C390 1.355 . S
C391 C393 1.419 . S
C392 C390 1.415 . S
C392 C397 1.425 . S
C392 C399 1.409 . S
C393 H385 0.930 . S
C393 C391 1.419 . S
C393 C394 1.362 . S
C394 H386 0.930 . S
C394 C393 1.362 . S
C394 C397 1.409 . S
C395 H387 0.930 . S
C395 C396 1.355 . S
C395 C397 1.415 . S
C396 C395 1.355 . S
C396 C398 1.419 . S
C397 C392 1.425 . S
C397 C394 1.409 . S
C397 C395 1.415 . S
C398 H388 0.930 . S
C398 C396 1.419 . S
C398 C399 1.362 . S
C399 H389 0.930 . S
C399 C392 1.409 . S
C399 C398 1.362 . S
H400 C406 0.930 . S
H401 C409 0.930 . S
H402 C410 0.930 1_556 S
H403 C411 0.930 . S
H404 C414 0.930 . S
H405 C415 0.930 . S
C406 H400 0.930 . S
C406 C407 1.355 1_554 S
C406 C408 1.415 . S
C407 C406 1.355 1_556 S
C407 C409 1.419 . S
C408 C406 1.415 . S
C408 C413 1.425 . S
C408 C415 1.409 . S
C409 H401 0.930 . S
C409 C407 1.419 . S
C409 C410 1.362 1_556 S
C410 H402 0.930 1_554 S
C410 C409 1.362 1_554 S
C410 C413 1.409 . S
C411 H403 0.930 . S
C411 C412 1.355 . S
C411 C413 1.415 . S
C412 C411 1.355 . S
C412 C414 1.419 . S
C413 C408 1.425 . S
C413 C410 1.409 . S
C413 C411 1.415 . S
C414 H404 0.930 . S
C414 C412 1.419 . S
C414 C415 1.362 . S
C415 H405 0.930 . S
C415 C408 1.409 . S
C415 C414 1.362 . S
H416 C422 0.930 . S
H417 C425 0.930 . S
H418 C426 0.930 . S
H419 C427 0.930 . S
H420 C430 0.930 . S
H421 C431 0.930 . S
C422 H416 0.930 . S
C422 C423 1.355 . S
C422 C424 1.415 . S
C423 C422 1.355 . S
C423 C425 1.419 . S
C424 C422 1.415 . S
C424 C429 1.425 . S
C424 C431 1.409 . S
C425 H417 0.930 . S
C425 C423 1.419 . S
C425 C426 1.362 . S
C426 H418 0.930 . S
C426 C425 1.362 . S
C426 C429 1.409 . S
C427 H419 0.930 . S
C427 C428 1.355 . S
C427 C429 1.415 . S
C428 C427 1.355 . S
C428 C430 1.419 . S
C429 C424 1.425 . S
C429 C426 1.409 . S
C429 C427 1.415 . S
C430 H420 0.930 . S
C430 C428 1.419 . S
C430 C431 1.362 . S
C431 H421 0.930 . S
C431 C424 1.409 . S
C431 C430 1.362 . S
H432 C438 0.930 . S
H433 C441 0.930 . S
H434 C442 0.930 . S
H435 C443 0.930 . S
H436 C446 0.930 . S
H437 C447 0.930 . S
C438 H432 0.930 . S
C438 C439 1.355 . S
C438 C440 1.415 . S
C439 C438 1.355 . S
C439 C441 1.419 . S
C440 C438 1.415 . S
C440 C445 1.425 . S
C440 C447 1.409 . S
C441 H433 0.930 . S
C441 C439 1.419 . S
C441 C442 1.362 . S
C442 H434 0.930 . S
C442 C441 1.362 . S
C442 C445 1.409 . S
C443 H435 0.930 . S
C443 C444 1.355 . S
C443 C445 1.415 . S
C444 C443 1.355 . S
C444 C446 1.419 . S
C445 C440 1.425 . S
C445 C442 1.409 . S
C445 C443 1.415 . S
C446 H436 0.930 . S
C446 C444 1.419 . S
C446 C447 1.362 . S
C447 H437 0.930 . S
C447 C440 1.409 . S
C447 C446 1.362 . S
H448 C454 0.930 . S
H449 C457 0.930 . S
H450 C458 0.930 . S
H451 C459 0.930 . S
H452 C462 0.930 . S
H453 C463 0.930 . S
C454 H448 0.930 . S
C454 C455 1.355 . S
C454 C456 1.415 . S
C455 C454 1.355 . S
C455 C457 1.419 . S
C456 C454 1.415 . S
C456 C461 1.425 . S
C456 C463 1.409 . S
C457 H449 0.930 . S
C457 C455 1.419 . S
C457 C458 1.362 . S
C458 H450 0.930 . S
C458 C457 1.362 . S
C458 C461 1.409 . S
C459 H451 0.930 . S
C459 C460 1.355 . S
C459 C461 1.415 . S
C460 C459 1.355 . S
C460 C462 1.419 . S
C461 C456 1.425 . S
C461 C458 1.409 . S
C461 C459 1.415 . S
C462 H452 0.930 . S
C462 C460 1.419 . S
C462 C463 1.362 . S
C463 H453 0.930 . S
C463 C456 1.409 . S
C463 C462 1.362 . S
H464 C470 0.930 . S
H465 C473 0.930 . S
H466 C474 0.930 . S
H467 C475 0.930 . S
H468 C478 0.930 . S
H469 C479 0.930 . S
C470 H464 0.930 . S
C470 C471 1.355 . S
C470 C472 1.415 . S
C471 C470 1.355 . S
C471 C473 1.419 . S
C472 C470 1.415 . S
C472 C477 1.425 . S
C472 C479 1.409 . S
C473 H465 0.930 . S
C473 C471 1.419 . S
C473 C474 1.362 . S
C474 H466 0.930 . S
C474 C473 1.362 . S
C474 C477 1.409 . S
C475 H467 0.930 . S
C475 C476 1.355 . S
C475 C477 1.415 . S
C476 C475 1.355 . S
C476 C478 1.419 1_554 S
C477 C472 1.425 . S
C477 C474 1.409 . S
C477 C475 1.415 . S
C478 H468 0.930 . S
C478 C476 1.419 1_556 S
C478 C479 1.362 1_556 S
C479 H469 0.930 . S
C479 C472 1.409 . S
C479 C478 1.362 1_554 S
H480 C486 0.930 . S
H481 C489 0.930 . S
H482 C490 0.930 . S
H483 C491 0.930 . S
H484 C494 0.930 . S
H485 C495 0.930 . S
C486 H480 0.930 . S
C486 C487 1.355 . S
C486 C488 1.415 . S
C487 C486 1.355 . S
C487 C489 1.419 . S
C488 C486 1.415 . S
C488 C493 1.425 . S
C488 C495 1.409 . S
C489 H481 0.930 . S
C489 C487 1.419 . S
C489 C490 1.362 . S
C490 H482 0.930 . S
C490 C489 1.362 . S
C490 C493 1.409 . S
C491 H483 0.930 . S
C491 C492 1.355 . S
C491 C493 1.415 . S
C492 C491 1.355 . S
C492 C494 1.419 . S
C493 C488 1.425 . S
C493 C490 1.409 . S
C493 C491 1.415 . S
C494 H484 0.930 . S
C494 C492 1.419 . S
C494 C495 1.362 . S
C495 H485 0.930 . S
C495 C488 1.409 . S
C495 C494 1.362 . S
H496 C502 0.930 . S
H497 C505 0.930 . S
H498 C506 0.930 . S
H499 C507 0.930 . S
H500 C510 0.930 . S
H501 C511 0.930 . S
C502 H496 0.930 . S
C502 C503 1.355 . S
C502 C504 1.415 . S
C503 C502 1.355 . S
C503 C505 1.419 . S
C504 C502 1.415 . S
C504 C509 1.425 . S
C504 C511 1.409 . S
C505 H497 0.930 . S
C505 C503 1.419 . S
C505 C506 1.362 . S
C506 H498 0.930 . S
C506 C505 1.362 . S
C506 C509 1.409 . S
C507 H499 0.930 . S
C507 C508 1.355 . S
C507 C509 1.415 . S
C508 C507 1.355 . S
C508 C510 1.419 . S
C509 C504 1.425 . S
C509 C506 1.409 . S
C509 C507 1.415 . S
C510 H500 0.930 . S
C510 C508 1.419 . S
C510 C511 1.362 . S
C511 H501 0.930 . S
C511 C504 1.409 . S
C511 C510 1.362 . S
H512 C518 0.930 . S
H513 C521 0.930 1_554 S
H514 C522 0.930 . S
H515 C523 0.930 . S
H516 C526 0.930 . S
H517 C527 0.930 . S
C518 H512 0.930 . S
C518 C519 1.355 . S
C518 C520 1.415 . S
C519 C518 1.355 . S
C519 C521 1.419 . S
C520 C518 1.415 . S
C520 C525 1.425 . S
C520 C527 1.409 . S
C521 H513 0.930 1_556 S
C521 C519 1.419 . S
C521 C522 1.362 . S
C522 H514 0.930 . S
C522 C521 1.362 . S
C522 C525 1.409 . S
C523 H515 0.930 . S
C523 C524 1.355 . S
C523 C525 1.415 . S
C524 C523 1.355 . S
C524 C526 1.419 . S
C525 C520 1.425 . S
C525 C522 1.409 . S
C525 C523 1.415 . S
C526 H516 0.930 . S
C526 C524 1.419 . S
C526 C527 1.362 . S
C527 H517 0.930 . S
C527 C520 1.409 . S
C527 C526 1.362 . S
C247 C210 1.840 . S
C252 C10 1.844 . S
C263 C9 1.439 . S
C268 C49 1.414 . S
C279 C50 1.851 . S
C284 C90 1.856 . S
C295 C89 1.440 . S
C300 C129 1.356 . S
C311 C170 1.826 . S
C316 C130 1.828 . S
C327 C209 1.451 . S
C332 C169 1.379 . S
C343 C6 1.453 . S
C348 C15 1.453 . S
C359 C55 1.531 . S
C364 C46 1.531 . S
C375 C86 1.549 . S
C380 C95 1.549 . S
C391 C135 1.455 . S
C396 C126 1.455 . S
C407 C175 1.459 . S
C412 C166 1.459 . S
C423 C215 1.488 . S
C428 C206 1.488 . S
C439 C19 1.880 . S
C444 C178 1.881 . S
C455 C58 1.879 . S
C460 C219 1.884 . S
C471 C18 1.888 . S
C476 C99 1.864 1_554 S
C487 C59 1.873 . S
C492 C138 1.885 . S
C503 C179 1.866 . S
C508 C98 1.887 . S
C519 C139 1.880 1_556 S
C524 C218 1.881 . S
