# Generated by pormake.
# Topology ull, (4)-cn, num edge types: 1
# Building blocks:
#     Node 0, Type 0, BuildingBlock: CEKHIL_clean_sbu_0, # of connection points: 4
#     Node 1, Type 0, BuildingBlock: CEKHIL_clean_sbu_0, # of connection points: 4
#     Node 2, Type 0, BuildingBlock: CEKHIL_clean_sbu_0, # of connection points: 4
#     Node 3, Type 0, BuildingBlock: CEKHIL_clean_sbu_0, # of connection points: 4
#     Node 4, Type 0, BuildingBlock: CEKHIL_clean_sbu_0, # of connection points: 4
#     Node 5, Type 0, BuildingBlock: CEKHIL_clean_sbu_0, # of connection points: 4
#     Node 6, Type 0, BuildingBlock: CEKHIL_clean_sbu_0, # of connection points: 4
#     Node 7, Type 0, BuildingBlock: CEKHIL_clean_sbu_0, # of connection points: 4
#     Node 8, Type 0, BuildingBlock: CEKHIL_clean_sbu_0, # of connection points: 4
#     Node 9, Type 0, BuildingBlock: CEKHIL_clean_sbu_0, # of connection points: 4
#     Node 10, Type 0, BuildingBlock: CEKHIL_clean_sbu_0, # of connection points: 4
#     Node 11, Type 0, BuildingBlock: CEKHIL_clean_sbu_0, # of connection points: 4
#     Node 12, Type 0, BuildingBlock: CEKHIL_clean_sbu_0, # of connection points: 4
#     Node 13, Type 0, BuildingBlock: CEKHIL_clean_sbu_0, # of connection points: 4
#     Node 14, Type 0, BuildingBlock: CEKHIL_clean_sbu_0, # of connection points: 4
#     Node 15, Type 0, BuildingBlock: CEKHIL_clean_sbu_0, # of connection points: 4
#     Node 16, Type 0, BuildingBlock: CEKHIL_clean_sbu_0, # of connection points: 4
#     Node 17, Type 0, BuildingBlock: CEKHIL_clean_sbu_0, # of connection points: 4
#     Node 18, Type 0, BuildingBlock: CEKHIL_clean_sbu_0, # of connection points: 4
#     Node 19, Type 0, BuildingBlock: CEKHIL_clean_sbu_0, # of connection points: 4
#     Node 20, Type 0, BuildingBlock: CEKHIL_clean_sbu_0, # of connection points: 4
#     Node 21, Type 0, BuildingBlock: CEKHIL_clean_sbu_0, # of connection points: 4
#     Node 22, Type 0, BuildingBlock: CEKHIL_clean_sbu_0, # of connection points: 4
#     Node 23, Type 0, BuildingBlock: CEKHIL_clean_sbu_0, # of connection points: 4
#     Node 24, Type 0, BuildingBlock: CEKHIL_clean_sbu_0, # of connection points: 4
#     Node 25, Type 0, BuildingBlock: CEKHIL_clean_sbu_0, # of connection points: 4
#     Node 26, Type 0, BuildingBlock: CEKHIL_clean_sbu_0, # of connection points: 4
#     Node 27, Type 0, BuildingBlock: CEKHIL_clean_sbu_0, # of connection points: 4
#     Node 28, Type 0, BuildingBlock: CEKHIL_clean_sbu_0, # of connection points: 4
#     Node 29, Type 0, BuildingBlock: CEKHIL_clean_sbu_0, # of connection points: 4
#     Node 30, Type 0, BuildingBlock: CEKHIL_clean_sbu_0, # of connection points: 4
#     Node 31, Type 0, BuildingBlock: CEKHIL_clean_sbu_0, # of connection points: 4
#     Node 32, Type 0, BuildingBlock: CEKHIL_clean_sbu_0, # of connection points: 4
#     Node 33, Type 0, BuildingBlock: CEKHIL_clean_sbu_0, # of connection points: 4
#     Node 34, Type 0, BuildingBlock: CEKHIL_clean_sbu_0, # of connection points: 4
#     Node 35, Type 0, BuildingBlock: CEKHIL_clean_sbu_0, # of connection points: 4
#     Node 36, Type 0, BuildingBlock: CEKHIL_clean_sbu_0, # of connection points: 4
#     Node 37, Type 0, BuildingBlock: CEKHIL_clean_sbu_0, # of connection points: 4
#     Node 38, Type 0, BuildingBlock: CEKHIL_clean_sbu_0, # of connection points: 4
#     Node 39, Type 0, BuildingBlock: CEKHIL_clean_sbu_0, # of connection points: 4
#     Node 40, Type 0, BuildingBlock: CEKHIL_clean_sbu_0, # of connection points: 4
#     Node 41, Type 0, BuildingBlock: CEKHIL_clean_sbu_0, # of connection points: 4
#     Node 42, Type 0, BuildingBlock: CEKHIL_clean_sbu_0, # of connection points: 4
#     Node 43, Type 0, BuildingBlock: CEKHIL_clean_sbu_0, # of connection points: 4
#     Node 44, Type 0, BuildingBlock: CEKHIL_clean_sbu_0, # of connection points: 4
#     Node 45, Type 0, BuildingBlock: CEKHIL_clean_sbu_0, # of connection points: 4
#     Node 46, Type 0, BuildingBlock: CEKHIL_clean_sbu_0, # of connection points: 4
#     Node 47, Type 0, BuildingBlock: CEKHIL_clean_sbu_0, # of connection points: 4
#     Edge 48, Type (0, 0), BuildingBlock: KIFKEQ_clean_linker_1, # of connection points: 2
#     Edge 49, Type (0, 0), BuildingBlock: KIFKEQ_clean_linker_1, # of connection points: 2
#     Edge 50, Type (0, 0), BuildingBlock: KIFKEQ_clean_linker_1, # of connection points: 2
#     Edge 51, Type (0, 0), BuildingBlock: KIFKEQ_clean_linker_1, # of connection points: 2
#     Edge 52, Type (0, 0), BuildingBlock: KIFKEQ_clean_linker_1, # of connection points: 2
#     Edge 53, Type (0, 0), BuildingBlock: KIFKEQ_clean_linker_1, # of connection points: 2
#     Edge 54, Type (0, 0), BuildingBlock: KIFKEQ_clean_linker_1, # of connection points: 2
#     Edge 55, Type (0, 0), BuildingBlock: KIFKEQ_clean_linker_1, # of connection points: 2
#     Edge 56, Type (0, 0), BuildingBlock: KIFKEQ_clean_linker_1, # of connection points: 2
#     Edge 57, Type (0, 0), BuildingBlock: KIFKEQ_clean_linker_1, # of connection points: 2
#     Edge 58, Type (0, 0), BuildingBlock: KIFKEQ_clean_linker_1, # of connection points: 2
#     Edge 59, Type (0, 0), BuildingBlock: KIFKEQ_clean_linker_1, # of connection points: 2
#     Edge 60, Type (0, 0), BuildingBlock: KIFKEQ_clean_linker_1, # of connection points: 2
#     Edge 61, Type (0, 0), BuildingBlock: KIFKEQ_clean_linker_1, # of connection points: 2
#     Edge 62, Type (0, 0), BuildingBlock: KIFKEQ_clean_linker_1, # of connection points: 2
#     Edge 63, Type (0, 0), BuildingBlock: KIFKEQ_clean_linker_1, # of connection points: 2
#     Edge 64, Type (0, 0), BuildingBlock: KIFKEQ_clean_linker_1, # of connection points: 2
#     Edge 65, Type (0, 0), BuildingBlock: KIFKEQ_clean_linker_1, # of connection points: 2
#     Edge 66, Type (0, 0), BuildingBlock: KIFKEQ_clean_linker_1, # of connection points: 2
#     Edge 67, Type (0, 0), BuildingBlock: KIFKEQ_clean_linker_1, # of connection points: 2
#     Edge 68, Type (0, 0), BuildingBlock: KIFKEQ_clean_linker_1, # of connection points: 2
#     Edge 69, Type (0, 0), BuildingBlock: KIFKEQ_clean_linker_1, # of connection points: 2
#     Edge 70, Type (0, 0), BuildingBlock: KIFKEQ_clean_linker_1, # of connection points: 2
#     Edge 71, Type (0, 0), BuildingBlock: KIFKEQ_clean_linker_1, # of connection points: 2
#     Edge 72, Type (0, 0), BuildingBlock: KIFKEQ_clean_linker_1, # of connection points: 2
#     Edge 73, Type (0, 0), BuildingBlock: KIFKEQ_clean_linker_1, # of connection points: 2
#     Edge 74, Type (0, 0), BuildingBlock: KIFKEQ_clean_linker_1, # of connection points: 2
#     Edge 75, Type (0, 0), BuildingBlock: KIFKEQ_clean_linker_1, # of connection points: 2
#     Edge 76, Type (0, 0), BuildingBlock: KIFKEQ_clean_linker_1, # of connection points: 2
#     Edge 77, Type (0, 0), BuildingBlock: KIFKEQ_clean_linker_1, # of connection points: 2
#     Edge 78, Type (0, 0), BuildingBlock: KIFKEQ_clean_linker_1, # of connection points: 2
#     Edge 79, Type (0, 0), BuildingBlock: KIFKEQ_clean_linker_1, # of connection points: 2
#     Edge 80, Type (0, 0), BuildingBlock: KIFKEQ_clean_linker_1, # of connection points: 2
#     Edge 81, Type (0, 0), BuildingBlock: KIFKEQ_clean_linker_1, # of connection points: 2
#     Edge 82, Type (0, 0), BuildingBlock: KIFKEQ_clean_linker_1, # of connection points: 2
#     Edge 83, Type (0, 0), BuildingBlock: KIFKEQ_clean_linker_1, # of connection points: 2
#     Edge 84, Type (0, 0), BuildingBlock: KIFKEQ_clean_linker_1, # of connection points: 2
#     Edge 85, Type (0, 0), BuildingBlock: KIFKEQ_clean_linker_1, # of connection points: 2
#     Edge 86, Type (0, 0), BuildingBlock: KIFKEQ_clean_linker_1, # of connection points: 2
#     Edge 87, Type (0, 0), BuildingBlock: KIFKEQ_clean_linker_1, # of connection points: 2
#     Edge 88, Type (0, 0), BuildingBlock: KIFKEQ_clean_linker_1, # of connection points: 2
#     Edge 89, Type (0, 0), BuildingBlock: KIFKEQ_clean_linker_1, # of connection points: 2
#     Edge 90, Type (0, 0), BuildingBlock: KIFKEQ_clean_linker_1, # of connection points: 2
#     Edge 91, Type (0, 0), BuildingBlock: KIFKEQ_clean_linker_1, # of connection points: 2
#     Edge 92, Type (0, 0), BuildingBlock: KIFKEQ_clean_linker_1, # of connection points: 2
#     Edge 93, Type (0, 0), BuildingBlock: KIFKEQ_clean_linker_1, # of connection points: 2
#     Edge 94, Type (0, 0), BuildingBlock: KIFKEQ_clean_linker_1, # of connection points: 2
#     Edge 95, Type (0, 0), BuildingBlock: KIFKEQ_clean_linker_1, # of connection points: 2
#     Edge 96, Type (0, 0), BuildingBlock: KIFKEQ_clean_linker_1, # of connection points: 2
#     Edge 97, Type (0, 0), BuildingBlock: KIFKEQ_clean_linker_1, # of connection points: 2
#     Edge 98, Type (0, 0), BuildingBlock: KIFKEQ_clean_linker_1, # of connection points: 2
#     Edge 99, Type (0, 0), BuildingBlock: KIFKEQ_clean_linker_1, # of connection points: 2
#     Edge 100, Type (0, 0), BuildingBlock: KIFKEQ_clean_linker_1, # of connection points: 2
#     Edge 101, Type (0, 0), BuildingBlock: KIFKEQ_clean_linker_1, # of connection points: 2
#     Edge 102, Type (0, 0), BuildingBlock: KIFKEQ_clean_linker_1, # of connection points: 2
#     Edge 103, Type (0, 0), BuildingBlock: KIFKEQ_clean_linker_1, # of connection points: 2
#     Edge 104, Type (0, 0), BuildingBlock: KIFKEQ_clean_linker_1, # of connection points: 2
#     Edge 105, Type (0, 0), BuildingBlock: KIFKEQ_clean_linker_1, # of connection points: 2
#     Edge 106, Type (0, 0), BuildingBlock: KIFKEQ_clean_linker_1, # of connection points: 2
#     Edge 107, Type (0, 0), BuildingBlock: KIFKEQ_clean_linker_1, # of connection points: 2
#     Edge 108, Type (0, 0), BuildingBlock: KIFKEQ_clean_linker_1, # of connection points: 2
#     Edge 109, Type (0, 0), BuildingBlock: KIFKEQ_clean_linker_1, # of connection points: 2
#     Edge 110, Type (0, 0), BuildingBlock: KIFKEQ_clean_linker_1, # of connection points: 2
#     Edge 111, Type (0, 0), BuildingBlock: KIFKEQ_clean_linker_1, # of connection points: 2
#     Edge 112, Type (0, 0), BuildingBlock: KIFKEQ_clean_linker_1, # of connection points: 2
#     Edge 113, Type (0, 0), BuildingBlock: KIFKEQ_clean_linker_1, # of connection points: 2
#     Edge 114, Type (0, 0), BuildingBlock: KIFKEQ_clean_linker_1, # of connection points: 2
#     Edge 115, Type (0, 0), BuildingBlock: KIFKEQ_clean_linker_1, # of connection points: 2
#     Edge 116, Type (0, 0), BuildingBlock: KIFKEQ_clean_linker_1, # of connection points: 2
#     Edge 117, Type (0, 0), BuildingBlock: KIFKEQ_clean_linker_1, # of connection points: 2
#     Edge 118, Type (0, 0), BuildingBlock: KIFKEQ_clean_linker_1, # of connection points: 2
#     Edge 119, Type (0, 0), BuildingBlock: KIFKEQ_clean_linker_1, # of connection points: 2
#     Edge 120, Type (0, 0), BuildingBlock: KIFKEQ_clean_linker_1, # of connection points: 2
#     Edge 121, Type (0, 0), BuildingBlock: KIFKEQ_clean_linker_1, # of connection points: 2
#     Edge 122, Type (0, 0), BuildingBlock: KIFKEQ_clean_linker_1, # of connection points: 2
#     Edge 123, Type (0, 0), BuildingBlock: KIFKEQ_clean_linker_1, # of connection points: 2
#     Edge 124, Type (0, 0), BuildingBlock: KIFKEQ_clean_linker_1, # of connection points: 2
#     Edge 125, Type (0, 0), BuildingBlock: KIFKEQ_clean_linker_1, # of connection points: 2
#     Edge 126, Type (0, 0), BuildingBlock: KIFKEQ_clean_linker_1, # of connection points: 2
#     Edge 127, Type (0, 0), BuildingBlock: KIFKEQ_clean_linker_1, # of connection points: 2
#     Edge 128, Type (0, 0), BuildingBlock: KIFKEQ_clean_linker_1, # of connection points: 2
#     Edge 129, Type (0, 0), BuildingBlock: KIFKEQ_clean_linker_1, # of connection points: 2
#     Edge 130, Type (0, 0), BuildingBlock: KIFKEQ_clean_linker_1, # of connection points: 2
#     Edge 131, Type (0, 0), BuildingBlock: KIFKEQ_clean_linker_1, # of connection points: 2
#     Edge 132, Type (0, 0), BuildingBlock: KIFKEQ_clean_linker_1, # of connection points: 2
#     Edge 133, Type (0, 0), BuildingBlock: KIFKEQ_clean_linker_1, # of connection points: 2
#     Edge 134, Type (0, 0), BuildingBlock: KIFKEQ_clean_linker_1, # of connection points: 2
#     Edge 135, Type (0, 0), BuildingBlock: KIFKEQ_clean_linker_1, # of connection points: 2
#     Edge 136, Type (0, 0), BuildingBlock: KIFKEQ_clean_linker_1, # of connection points: 2
#     Edge 137, Type (0, 0), BuildingBlock: KIFKEQ_clean_linker_1, # of connection points: 2
#     Edge 138, Type (0, 0), BuildingBlock: KIFKEQ_clean_linker_1, # of connection points: 2
#     Edge 139, Type (0, 0), BuildingBlock: KIFKEQ_clean_linker_1, # of connection points: 2
#     Edge 140, Type (0, 0), BuildingBlock: KIFKEQ_clean_linker_1, # of connection points: 2
#     Edge 141, Type (0, 0), BuildingBlock: KIFKEQ_clean_linker_1, # of connection points: 2
#     Edge 142, Type (0, 0), BuildingBlock: KIFKEQ_clean_linker_1, # of connection points: 2
#     Edge 143, Type (0, 0), BuildingBlock: KIFKEQ_clean_linker_1, # of connection points: 2
# Relax obj value: 0.022
# Max RMSD: 0.082
# Mean RMSD: 0.082
data_MOF--net-ull--node1-CEKHIL_clean_sbu_0--edge1-KIFKEQ_clean_linker_1
_symmetry_space_group_name_H-M    P1
_symmetry_Int_Tables_number       1
_symmetry_cell_setting            triclinic
loop_
_symmetry_equiv_pos_as_xyz
'x, y, z'
_cell_length_a     61.670354
_cell_length_b     61.656914
_cell_length_c     61.665031
_cell_angle_alpha  90.008885
_cell_angle_beta   89.996772
_cell_angle_gamma 89.984129
loop_
_atom_site_label
_atom_site_type_symbol
_atom_site_fract_x
_atom_site_fract_y
_atom_site_fract_z
_atom_type_partial_charge
Co0 Co 0.048 0.33865 0.16803 0.0
O1 O 0.07219 0.34317 0.18684 0.0
O2 O 0.0412 0.36097 0.18947 0.0
C3 C 0.06784 0.3398 0.13713 0.0
O4 O 0.01988 0.3384 0.15023 0.0
Co5 Co 0.04735 0.29726 0.13906 0.0
O6 O 0.02414 0.3134 0.12395 0.0
C7 C 0.03389 0.2942 0.18514 0.0
C8 C 0.06103 0.35825 0.19626 0.0
C9 C 0.01355 0.3289 0.13265 0.0
O10 O 0.0364 0.31482 0.1877 0.0
O11 O 0.03858 0.28426 0.1675 0.0
O12 O 0.06135 0.35759 0.14629 0.0
O13 O 0.0638 0.32227 0.14784 0.0
Co14 Co 0.66902 0.04717 0.16807 0.0
O15 O 0.66294 0.07119 0.18668 0.0
O16 O 0.64699 0.0392 0.18936 0.0
C17 C 0.66719 0.06646 0.13689 0.0
O18 O 0.67107 0.01902 0.15048 0.0
Co19 Co 0.71098 0.04871 0.13996 0.0
O20 O 0.6967 0.02422 0.12497 0.0
C21 C 0.7141 0.03744 0.18652 0.0
C22 C 0.64867 0.05912 0.19623 0.0
C23 C 0.6814 0.01304 0.13326 0.0
O24 O 0.69324 0.03727 0.18816 0.0
O25 O 0.72401 0.04316 0.16918 0.0
O26 O 0.64963 0.05923 0.14594 0.0
O27 O 0.68473 0.0636 0.14795 0.0
Co28 Co 0.96027 0.66891 0.17013 0.0
O29 O 0.93621 0.66443 0.18913 0.0
O30 O 0.96707 0.64633 0.19127 0.0
C31 C 0.94028 0.66835 0.13934 0.0
O32 O 0.9882 0.66906 0.15205 0.0
Co33 Co 0.96113 0.7109 0.14219 0.0
O34 O 0.98395 0.69475 0.12643 0.0
C35 C 0.97299 0.71325 0.18863 0.0
C36 C 0.94739 0.64928 0.1984 0.0
C37 C 0.99431 0.67878 0.13451 0.0
O38 O 0.97212 0.69238 0.19006 0.0
O39 O 0.96757 0.72358 0.17143 0.0
O40 O 0.94654 0.65037 0.14828 0.0
O41 O 0.94455 0.6857 0.15026 0.0
Co42 Co 0.33772 0.96192 0.17256 0.0
O43 O 0.34247 0.93836 0.1923 0.0
O44 O 0.36015 0.96958 0.19338 0.0
C45 C 0.33847 0.94132 0.14215 0.0
O46 O 0.33739 0.98961 0.15426 0.0
Co47 Co 0.29642 0.96277 0.14366 0.0
O48 O 0.31287 0.98521 0.12755 0.0
C49 C 0.29322 0.97449 0.19023 0.0
C50 C 0.35736 0.95018 0.20124 0.0
C51 C 0.32838 0.99564 0.13637 0.0
O52 O 0.31405 0.97384 0.19209 0.0
O53 O 0.28329 0.96904 0.1728 0.0
O54 O 0.35639 0.94787 0.15101 0.0
O55 O 0.32103 0.94581 0.15285 0.0
Co56 Co 0.04868 0.66839 0.83533 0.0
O57 O 0.07115 0.66253 0.8147 0.0
O58 O 0.0387 0.64714 0.8142 0.0
C59 C 0.06993 0.66504 0.86507 0.0
O60 O 0.02178 0.67028 0.85473 0.0
Co61 Co 0.05239 0.70903 0.86471 0.0
O62 O 0.02848 0.69492 0.88079 0.0
C63 C 0.03722 0.71405 0.81942 0.0
C64 C 0.05798 0.64885 0.80574 0.0
C65 C 0.0167 0.68008 0.87252 0.0
O66 O 0.03781 0.69332 0.81672 0.0
O67 O 0.04358 0.72338 0.83686 0.0
O68 O 0.06155 0.64806 0.85591 0.0
O69 O 0.06697 0.68313 0.8549 0.0
Co70 Co 0.33337 0.04867 0.83626 0.0
O71 O 0.33829 0.07278 0.81743 0.0
O72 O 0.35665 0.04205 0.81579 0.0
C73 C 0.33294 0.06864 0.86704 0.0
O74 O 0.33282 0.02077 0.85441 0.0
Co75 Co 0.29049 0.04782 0.86301 0.0
O76 O 0.30614 0.02486 0.87905 0.0
C77 C 0.28961 0.03597 0.81653 0.0
C78 C 0.35391 0.06179 0.80873 0.0
C79 C 0.32247 0.0146 0.87156 0.0
O80 O 0.31051 0.03665 0.81572 0.0
O81 O 0.27878 0.04162 0.83334 0.0
O82 O 0.35121 0.06254 0.85859 0.0
O83 O 0.31594 0.06429 0.85564 0.0
Co84 Co 0.95452 0.33551 0.83734 0.0
O85 O 0.92976 0.34113 0.81962 0.0
O86 O 0.96058 0.35924 0.81722 0.0
C87 C 0.93589 0.33434 0.86893 0.0
O88 O 0.98305 0.33407 0.85423 0.0
Co89 Co 0.95586 0.29153 0.86191 0.0
O90 O 0.98019 0.30586 0.87728 0.0
C91 C 0.966 0.29251 0.81526 0.0
C92 C 0.94062 0.35671 0.81072 0.0
C93 C 0.99014 0.32259 0.87026 0.0
O94 O 0.96567 0.3134 0.81567 0.0
O95 O 0.96056 0.28076 0.83151 0.0
O96 O 0.9419 0.35276 0.86074 0.0
O97 O 0.9394 0.31763 0.85677 0.0
Co98 Co 0.66786 0.95899 0.83359 0.0
O99 O 0.66176 0.93408 0.81624 0.0
O100 O 0.64457 0.96536 0.81302 0.0
C101 C 0.66797 0.94061 0.86538 0.0
O102 O 0.66988 0.98781 0.85017 0.0
Co103 Co 0.71128 0.95935 0.85937 0.0
O104 O 0.69723 0.98415 0.87413 0.0
C105 C 0.71169 0.96858 0.81234 0.0
C106 C 0.64651 0.94516 0.80705 0.0
C107 C 0.68111 0.99464 0.8665 0.0
O108 O 0.69077 0.96897 0.81208 0.0
O109 O 0.72265 0.96321 0.82915 0.0
O110 O 0.64985 0.9471 0.8569 0.0
O111 O 0.68494 0.94366 0.85352 0.0
Co112 Co 0.1688 0.05013 0.3408 0.0
O113 O 0.1867 0.07453 0.34729 0.0
O114 O 0.18973 0.04267 0.36344 0.0
C115 C 0.13732 0.069 0.34188 0.0
O116 O 0.15166 0.02172 0.33834 0.0
Co117 Co 0.14192 0.05147 0.29803 0.0
O118 O 0.12691 0.02673 0.31193 0.0
C119 C 0.18879 0.04158 0.29618 0.0
C120 C 0.19597 0.06283 0.36202 0.0
C121 C 0.13478 0.01563 0.32751 0.0
O122 O 0.18961 0.0405 0.31707 0.0
O123 O 0.17179 0.04755 0.28585 0.0
O124 O 0.14603 0.06185 0.35964 0.0
O125 O 0.14883 0.06627 0.32461 0.0
Co126 Co 0.95767 0.17481 0.3401 0.0
O127 O 0.93522 0.19557 0.34555 0.0
O128 O 0.96749 0.19611 0.36128 0.0
C129 C 0.93627 0.14521 0.34367 0.0
O130 O 0.98449 0.15526 0.33865 0.0
Co131 Co 0.95403 0.14485 0.29982 0.0
O132 O 0.9776 0.12879 0.31449 0.0
C133 C 0.97 0.18986 0.29441 0.0
C134 C 0.94821 0.20454 0.35938 0.0
C135 C 0.98942 0.13723 0.3292 0.0
O136 O 0.96888 0.19306 0.31505 0.0
O137 O 0.96375 0.17228 0.28529 0.0
O138 O 0.94455 0.15456 0.36058 0.0
O139 O 0.9394 0.15515 0.32547 0.0
Co140 Co 0.83438 0.96204 0.34183 0.0
O141 O 0.81635 0.93684 0.34432 0.0
O142 O 0.81237 0.96651 0.36406 0.0
C143 C 0.86592 0.94319 0.342 0.0
O144 O 0.85072 0.9909 0.34416 0.0
Co145 Co 0.86488 0.96828 0.3022 0.0
O146 O 0.87948 0.98911 0.32177 0.0
C147 C 0.81823 0.97999 0.29862 0.0
C148 C 0.80628 0.94672 0.3599 0.0
C149 C 0.86901 0.99819 0.33707 0.0
O150 O 0.81479 0.97461 0.31854 0.0
O151 O 0.83664 0.97793 0.28921 0.0
O152 O 0.85626 0.94798 0.36007 0.0
O153 O 0.85558 0.94853 0.32458 0.0
Co154 Co 0.04701 0.83623 0.34136 0.0
O155 O 0.07198 0.81899 0.34778 0.0
O156 O 0.04034 0.81537 0.36421 0.0
C157 C 0.06499 0.8683 0.34183 0.0
O158 O 0.01802 0.85228 0.33923 0.0
Co159 Co 0.04674 0.86273 0.29833 0.0
O160 O 0.01908 0.87419 0.3099 0.0
C161 C 0.03927 0.81547 0.297 0.0
C162 C 0.06056 0.80945 0.3626 0.0
C163 C 0.00961 0.8668 0.32673 0.0
O164 O 0.03775 0.81491 0.31788 0.0
O165 O 0.04496 0.83249 0.28657 0.0
O166 O 0.05829 0.85958 0.35978 0.0
O167 O 0.0623 0.85657 0.32472 0.0
Co168 Co 0.17079 0.95806 0.66344 0.0
O169 O 0.18905 0.9341 0.65625 0.0
O170 O 0.19226 0.96664 0.64167 0.0
C171 C 0.13946 0.93919 0.66057 0.0
O172 O 0.15357 0.98631 0.66708 0.0
Co173 Co 0.14315 0.95436 0.70539 0.0
O174 O 0.12881 0.98043 0.6933 0.0
C175 C 0.18973 0.96503 0.70883 0.0
C176 C 0.19887 0.94656 0.64256 0.0
C177 C 0.13691 0.99222 0.67836 0.0
O178 O 0.19102 0.9666 0.68802 0.0
O179 O 0.17257 0.95857 0.7186 0.0
O180 O 0.14849 0.94752 0.6435 0.0
O181 O 0.15055 0.94079 0.67825 0.0
Co182 Co 0.04861 0.17179 0.66668 0.0
O183 O 0.07235 0.19083 0.66048 0.0
O184 O 0.0408 0.19164 0.64338 0.0
C185 C 0.06837 0.1408 0.66703 0.0
O186 O 0.02077 0.15395 0.66874 0.0
Co187 Co 0.04942 0.14682 0.71052 0.0
O188 O 0.0222 0.13387 0.69934 0.0
C189 C 0.03834 0.19319 0.71027 0.0
C190 C 0.06033 0.19938 0.64552 0.0
C191 C 0.01274 0.13986 0.68195 0.0
O192 O 0.03732 0.19279 0.68939 0.0
O193 O 0.04517 0.17717 0.72157 0.0
O194 O 0.06163 0.149 0.64886 0.0
O195 O 0.06493 0.15269 0.68395 0.0
Co196 Co 0.83565 0.0483 0.66394 0.0
O197 O 0.81726 0.07259 0.65818 0.0
O198 O 0.81539 0.04143 0.64058 0.0
C199 C 0.86683 0.06765 0.66451 0.0
O200 O 0.85322 0.02011 0.66545 0.0
Co201 Co 0.86157 0.04795 0.70736 0.0
O202 O 0.87733 0.02417 0.69261 0.0
C203 C 0.8148 0.03752 0.70767 0.0
C204 C 0.80842 0.06126 0.64288 0.0
C205 C 0.86997 0.01375 0.67633 0.0
O206 O 0.81451 0.0372 0.68674 0.0
O207 O 0.83146 0.04331 0.71864 0.0
O208 O 0.85859 0.06138 0.6462 0.0
O209 O 0.85501 0.0639 0.68136 0.0
Co210 Co 0.95829 0.83495 0.66641 0.0
O211 O 0.93369 0.8162 0.66365 0.0
O212 O 0.96392 0.81271 0.64469 0.0
C213 C 0.93868 0.866 0.66504 0.0
O214 O 0.98665 0.8521 0.66441 0.0
Co215 Co 0.9625 0.86644 0.70555 0.0
O216 O 0.98341 0.88123 0.68616 0.0
C217 C 0.97504 0.82012 0.71062 0.0
C218 C 0.94418 0.80621 0.64842 0.0
C219 C 0.99314 0.87078 0.67123 0.0
O220 O 0.97077 0.81621 0.69051 0.0
O221 O 0.97185 0.83861 0.71957 0.0
O222 O 0.94421 0.85609 0.64733 0.0
O223 O 0.94373 0.85611 0.6828 0.0
Co224 Co 0.33806 0.17369 0.04787 0.0
O225 O 0.34731 0.19115 0.07184 0.0
O226 O 0.36069 0.19366 0.03865 0.0
C227 C 0.3393 0.14186 0.06608 0.0
O228 O 0.33313 0.15728 0.01953 0.0
Co229 Co 0.29464 0.14855 0.0513 0.0
O230 O 0.30364 0.13595 0.02315 0.0
C231 C 0.29381 0.19539 0.04149 0.0
C232 C 0.36125 0.19992 0.05881 0.0
C233 C 0.31985 0.14284 0.01234 0.0
O234 O 0.31467 0.19554 0.03997 0.0
O235 O 0.28311 0.17874 0.04775 0.0
O236 O 0.35673 0.15004 0.05762 0.0
O237 O 0.32224 0.154 0.06508 0.0
Co238 Co 0.34019 0.836 0.95973 0.0
O239 O 0.34651 0.81954 0.93421 0.0
O240 O 0.36325 0.81509 0.96559 0.0
C241 C 0.34023 0.86853 0.9426 0.0
O242 O 0.33823 0.85124 0.98918 0.0
Co243 Co 0.29693 0.86209 0.96115 0.0
O244 O 0.30865 0.87288 0.98902 0.0
C245 C 0.29614 0.81468 0.96766 0.0
C246 C 0.36153 0.80984 0.9452 0.0
C247 C 0.32565 0.86541 0.9981 0.0
O248 O 0.31704 0.81426 0.96872 0.0
O249 O 0.28543 0.83173 0.96255 0.0
O250 O 0.35831 0.85978 0.94888 0.0
O251 O 0.32323 0.85661 0.94517 0.0
Co252 Co 0.17032 0.34008 0.95476 0.0
O253 O 0.18874 0.3458 0.93054 0.0
O254 O 0.19079 0.36325 0.96178 0.0
C255 C 0.13918 0.33999 0.93528 0.0
O256 O 0.15268 0.33852 0.98288 0.0
Co257 Co 0.14392 0.29699 0.95463 0.0
O258 O 0.12819 0.31178 0.97841 0.0
C259 C 0.19041 0.29615 0.96648 0.0
C260 C 0.19761 0.36105 0.94189 0.0
C261 C 0.13578 0.3278 0.98907 0.0
O262 O 0.19117 0.31706 0.96592 0.0
O263 O 0.17362 0.28532 0.9608 0.0
O264 O 0.14756 0.35814 0.94184 0.0
O265 O 0.15087 0.323 0.93888 0.0
Co266 Co 0.66708 0.17192 0.95729 0.0
O267 O 0.66149 0.19279 0.935 0.0
O268 O 0.64418 0.19163 0.96644 0.0
C269 C 0.66675 0.14256 0.93517 0.0
O270 O 0.66839 0.15197 0.98378 0.0
Co271 Co 0.70955 0.14477 0.95528 0.0
O272 O 0.69493 0.12755 0.97811 0.0
C273 C 0.71124 0.19022 0.97075 0.0
C274 C 0.64652 0.20063 0.94748 0.0
C275 C 0.67892 0.13468 0.9891 0.0
O276 O 0.69036 0.19143 0.97011 0.0
O277 O 0.72178 0.17364 0.96395 0.0
O278 O 0.64874 0.15064 0.94246 0.0
O279 O 0.68394 0.15363 0.93972 0.0
Co280 Co 0.83571 0.66654 0.95671 0.0
O281 O 0.81902 0.66051 0.93127 0.0
O282 O 0.81465 0.64369 0.96264 0.0
C283 C 0.86821 0.66627 0.93961 0.0
O284 O 0.85109 0.66829 0.98606 0.0
Co285 Co 0.86203 0.70968 0.95808 0.0
O286 O 0.87289 0.69775 0.98582 0.0
C287 C 0.81479 0.71065 0.9658 0.0
C288 C 0.80917 0.64562 0.94232 0.0
C289 C 0.86535 0.68078 0.99491 0.0
O290 O 0.81422 0.68974 0.96602 0.0
O291 O 0.83185 0.72141 0.96084 0.0
O292 O 0.85925 0.64824 0.94573 0.0
O293 O 0.85641 0.68338 0.94215 0.0
Co294 Co 0.66637 0.83365 0.04615 0.0
O295 O 0.65981 0.81574 0.07057 0.0
O296 O 0.64342 0.81314 0.0388 0.0
C297 C 0.66612 0.86523 0.06492 0.0
O298 O 0.66879 0.85047 0.01765 0.0
Co299 Co 0.70973 0.85965 0.04686 0.0
O300 O 0.69855 0.87179 0.01933 0.0
C301 C 0.71048 0.81277 0.03716 0.0
C302 C 0.64506 0.80653 0.05881 0.0
C303 C 0.68164 0.8649 0.00963 0.0
O304 O 0.68958 0.81243 0.03622 0.0
O305 O 0.72121 0.82947 0.04326 0.0
O306 O 0.64811 0.85681 0.05803 0.0
O307 O 0.68314 0.8534 0.06203 0.0
Co308 Co 0.17344 0.6652 0.04751 0.0
O309 O 0.19135 0.6617 0.07265 0.0
O310 O 0.19555 0.6432 0.04225 0.0
C311 C 0.14174 0.66415 0.06607 0.0
O312 O 0.15709 0.66422 0.01858 0.0
Co313 Co 0.14346 0.70557 0.04355 0.0
O314 O 0.12908 0.68754 0.02116 0.0
C315 C 0.19048 0.70974 0.03398 0.0
C316 C 0.20157 0.64661 0.06222 0.0
C317 C 0.13909 0.67223 0.01153 0.0
O318 O 0.19308 0.68908 0.03614 0.0
O319 O 0.1724 0.7193 0.03775 0.0
O320 O 0.15146 0.64631 0.06056 0.0
O321 O 0.15224 0.68174 0.06174 0.0
Co322 Co 0.83257 0.34042 0.04996 0.0
O323 O 0.81437 0.35043 0.07311 0.0
O324 O 0.81272 0.36252 0.0393 0.0
C325 C 0.86379 0.3423 0.06917 0.0
O326 O 0.84991 0.33455 0.02228 0.0
Co327 Co 0.85811 0.29727 0.05542 0.0
O328 O 0.87343 0.30746 0.02908 0.0
C329 C 0.81147 0.29577 0.04442 0.0
C330 C 0.80591 0.36372 0.05925 0.0
C331 C 0.86608 0.32241 0.01682 0.0
O332 O 0.81115 0.31658 0.0422 0.0
O333 O 0.8281 0.28542 0.05135 0.0
O334 O 0.8558 0.35955 0.06013 0.0
O335 O 0.85176 0.3252 0.068 0.0
Co336 Co 0.54746 0.8398 0.66929 0.0
O337 O 0.5719 0.84377 0.68805 0.0
O338 O 0.54107 0.86183 0.69104 0.0
C339 C 0.56704 0.84093 0.63822 0.0
O340 O 0.5191 0.84041 0.652 0.0
Co341 Co 0.54476 0.79953 0.63904 0.0
O342 O 0.52304 0.81761 0.62375 0.0
C343 C 0.53336 0.79521 0.6857 0.0
C344 C 0.56084 0.85875 0.6978 0.0
C345 C 0.51287 0.83266 0.63358 0.0
O346 O 0.53583 0.81579 0.68868 0.0
O347 O 0.53739 0.78581 0.6676 0.0
O348 O 0.56099 0.85876 0.64764 0.0
O349 O 0.56256 0.82334 0.64864 0.0
Co350 Co 0.16292 0.5456 0.67287 0.0
O351 O 0.15886 0.56968 0.69216 0.0
O352 O 0.14002 0.53915 0.69357 0.0
C353 C 0.16323 0.56576 0.64211 0.0
O354 O 0.16239 0.51747 0.65521 0.0
Co355 Co 0.2045 0.54296 0.64425 0.0
O356 O 0.18972 0.51785 0.63088 0.0
C357 C 0.20626 0.52914 0.69033 0.0
C358 C 0.14345 0.55856 0.70115 0.0
C359 C 0.17293 0.50916 0.63917 0.0
O360 O 0.18586 0.53294 0.69284 0.0
O361 O 0.21659 0.53302 0.67274 0.0
O362 O 0.14503 0.55988 0.65086 0.0
O363 O 0.1804 0.56084 0.65304 0.0
Co364 Co 0.45711 0.1649 0.67199 0.0
O365 O 0.43219 0.16119 0.69007 0.0
O366 O 0.4629 0.14321 0.69431 0.0
C367 C 0.43844 0.16307 0.64044 0.0
O368 O 0.48584 0.16427 0.65534 0.0
Co369 Co 0.45984 0.20516 0.64165 0.0
O370 O 0.48224 0.18723 0.62712 0.0
C371 C 0.46978 0.20993 0.68849 0.0
C372 C 0.44288 0.14631 0.70032 0.0
C373 C 0.49232 0.17219 0.63707 0.0
O374 O 0.46821 0.18924 0.69123 0.0
O375 O 0.46553 0.2193 0.67042 0.0
O376 O 0.44429 0.14547 0.65037 0.0
O377 O 0.44242 0.18088 0.65071 0.0
Co378 Co 0.83653 0.45628 0.67207 0.0
O379 O 0.84109 0.43097 0.68949 0.0
O380 O 0.85791 0.46224 0.69451 0.0
C381 C 0.83883 0.43863 0.63992 0.0
O382 O 0.83646 0.48555 0.6565 0.0
Co383 Co 0.79641 0.45906 0.64142 0.0
O384 O 0.81205 0.48432 0.62928 0.0
C385 C 0.7912 0.46777 0.68853 0.0
C386 C 0.85549 0.44202 0.70009 0.0
C387 C 0.82741 0.4936 0.63948 0.0
O388 O 0.81184 0.46611 0.6916 0.0
O389 O 0.78216 0.46398 0.67021 0.0
O390 O 0.85629 0.44465 0.65002 0.0
O391 O 0.82094 0.44186 0.65029 0.0
Co392 Co 0.54896 0.16391 0.3331 0.0
O393 O 0.57405 0.15673 0.31642 0.0
O394 O 0.54269 0.13953 0.31388 0.0
C395 C 0.56673 0.16605 0.36519 0.0
O396 O 0.52001 0.16679 0.34894 0.0
Co397 Co 0.54814 0.20911 0.35542 0.0
O398 O 0.52054 0.1982 0.36778 0.0
C399 C 0.53981 0.20618 0.30863 0.0
C400 C 0.5629 0.14111 0.30791 0.0
C401 C 0.51137 0.18055 0.36212 0.0
O402 O 0.53903 0.18534 0.31015 0.0
O403 O 0.54554 0.21849 0.32434 0.0
O404 O 0.56041 0.14745 0.35766 0.0
O405 O 0.56401 0.18228 0.35221 0.0
Co406 Co 0.84239 0.54841 0.33547 0.0
O407 O 0.84803 0.57389 0.3187 0.0
O408 O 0.86529 0.54276 0.31438 0.0
C409 C 0.84245 0.56583 0.36787 0.0
O410 O 0.84115 0.51902 0.35084 0.0
Co411 Co 0.79957 0.54627 0.36225 0.0
O412 O 0.81191 0.51862 0.37291 0.0
C413 C 0.79828 0.53877 0.31493 0.0
C414 C 0.86311 0.56305 0.3089 0.0
C415 C 0.82895 0.50987 0.36515 0.0
O416 O 0.81919 0.53874 0.31411 0.0
O417 O 0.78768 0.54358 0.33214 0.0
O418 O 0.86055 0.55982 0.35896 0.0
O419 O 0.82537 0.56281 0.35617 0.0
Co420 Co 0.45666 0.83874 0.33082 0.0
O421 O 0.43384 0.84501 0.31075 0.0
O422 O 0.46528 0.86233 0.31163 0.0
C423 C 0.43547 0.83798 0.36077 0.0
O424 O 0.48359 0.83652 0.35004 0.0
Co425 Co 0.45491 0.79474 0.35538 0.0
O426 O 0.47885 0.80797 0.37234 0.0
C427 C 0.46795 0.79545 0.30948 0.0
C428 C 0.44614 0.86012 0.30295 0.0
C429 C 0.48951 0.82462 0.36622 0.0
O430 O 0.46895 0.81631 0.31014 0.0
O431 O 0.46063 0.78394 0.32514 0.0
O432 O 0.4425 0.85628 0.35313 0.0
O433 O 0.43954 0.82121 0.34886 0.0
Co434 Co 0.16324 0.45959 0.33512 0.0
O435 O 0.16012 0.43497 0.31648 0.0
O436 O 0.14114 0.46522 0.31323 0.0
C437 C 0.16241 0.44008 0.36621 0.0
O438 O 0.16174 0.48799 0.35233 0.0
Co439 Co 0.2032 0.46361 0.36559 0.0
O440 O 0.18412 0.48437 0.38095 0.0
C441 C 0.20699 0.4766 0.31932 0.0
C442 C 0.14479 0.44546 0.30667 0.0
C443 C 0.16903 0.49428 0.37091 0.0
O444 O 0.18689 0.472 0.31585 0.0
O445 O 0.21642 0.47362 0.33759 0.0
O446 O 0.14454 0.44561 0.3566 0.0
O447 O 0.18001 0.445 0.35596 0.0
Co448 Co 0.66915 0.54495 0.84123 0.0
O449 O 0.68787 0.5696 0.84389 0.0
O450 O 0.69135 0.53943 0.86297 0.0
C451 C 0.63802 0.56443 0.84233 0.0
O452 O 0.65216 0.51648 0.84322 0.0
Co453 Co 0.63811 0.54033 0.80184 0.0
O454 O 0.62336 0.51919 0.82099 0.0
C455 C 0.68438 0.52751 0.79744 0.0
C456 C 0.69797 0.5591 0.85903 0.0
C457 C 0.63374 0.50964 0.83606 0.0
O458 O 0.6881 0.53235 0.81744 0.0
O459 O 0.66596 0.53034 0.78824 0.0
O460 O 0.6479 0.55907 0.86011 0.0
O461 O 0.64801 0.55934 0.82462 0.0
Co462 Co 0.45821 0.6715 0.83862 0.0
O463 O 0.43464 0.69123 0.84278 0.0
O464 O 0.46528 0.69242 0.86131 0.0
C465 C 0.43734 0.64128 0.83889 0.0
O466 O 0.48568 0.65266 0.83888 0.0
Co467 Co 0.4591 0.64293 0.79699 0.0
O468 O 0.48075 0.62645 0.81395 0.0
C469 C 0.47417 0.68853 0.79477 0.0
C470 C 0.44587 0.70015 0.85811 0.0
C471 C 0.49131 0.63468 0.8297 0.0
O472 O 0.47103 0.69103 0.81531 0.0
O473 O 0.46945 0.67108 0.78453 0.0
O474 O 0.44363 0.65005 0.85695 0.0
O475 O 0.44217 0.65204 0.82159 0.0
Co476 Co 0.33709 0.45755 0.83686 0.0
O477 O 0.31891 0.43318 0.84275 0.0
O478 O 0.31604 0.46479 0.85941 0.0
C479 C 0.36841 0.4384 0.83783 0.0
O480 O 0.35429 0.48596 0.83512 0.0
Co481 Co 0.36478 0.45723 0.7946 0.0
O482 O 0.3797 0.48154 0.80927 0.0
C483 C 0.31804 0.46815 0.79227 0.0
C484 C 0.30953 0.44477 0.85753 0.0
C485 C 0.37137 0.49235 0.8248 0.0
O486 O 0.31656 0.46773 0.81314 0.0
O487 O 0.33536 0.46289 0.78206 0.0
O488 O 0.35963 0.44533 0.85565 0.0
O489 O 0.35713 0.4416 0.8205 0.0
Co490 Co 0.54761 0.33162 0.83973 0.0
O491 O 0.57022 0.31146 0.84639 0.0
O492 O 0.53739 0.31052 0.86093 0.0
C493 C 0.56815 0.36175 0.84333 0.0
O494 O 0.52059 0.35063 0.83676 0.0
Co495 Co 0.55253 0.36 0.79849 0.0
O496 O 0.52769 0.37584 0.81132 0.0
C497 C 0.53919 0.31422 0.79396 0.0
C498 C 0.55685 0.30237 0.85976 0.0
C499 C 0.51562 0.368 0.82618 0.0
O500 O 0.53777 0.31257 0.81475 0.0
O501 O 0.54642 0.33124 0.78449 0.0
O502 O 0.55951 0.35262 0.86019 0.0
O503 O 0.56601 0.35123 0.82533 0.0
Co504 Co 0.67282 0.45724 0.16937 0.0
O505 O 0.6911 0.43349 0.16101 0.0
O506 O 0.69236 0.46622 0.14629 0.0
C507 C 0.64172 0.43785 0.16924 0.0
O508 O 0.65534 0.48519 0.17325 0.0
Co509 Co 0.64765 0.4549 0.21309 0.0
O510 O 0.63202 0.48016 0.20089 0.0
C511 C 0.69425 0.46625 0.21327 0.0
C512 C 0.69925 0.44625 0.14646 0.0
C513 C 0.63916 0.49135 0.18503 0.0
O514 O 0.69441 0.46688 0.19236 0.0
O515 O 0.67772 0.46007 0.22424 0.0
O516 O 0.64956 0.44546 0.15126 0.0
O517 O 0.65384 0.44038 0.18612 0.0
Co518 Co 0.54864 0.66876 0.1648 0.0
O519 O 0.57259 0.68698 0.15763 0.0
O520 O 0.54107 0.68778 0.14058 0.0
C521 C 0.56837 0.63789 0.16647 0.0
O522 O 0.52082 0.65093 0.16782 0.0
Co523 Co 0.54971 0.64568 0.20966 0.0
O524 O 0.52578 0.62872 0.19642 0.0
C525 C 0.53855 0.69204 0.20745 0.0
C526 C 0.56094 0.69484 0.14207 0.0
C527 C 0.51497 0.63481 0.17985 0.0
O528 O 0.53761 0.69082 0.1866 0.0
O529 O 0.54513 0.67642 0.21945 0.0
O530 O 0.56148 0.64513 0.14796 0.0
O531 O 0.56497 0.65055 0.18281 0.0
Co532 Co 0.33674 0.54445 0.16939 0.0
O533 O 0.31984 0.57016 0.16498 0.0
O534 O 0.31466 0.5394 0.14734 0.0
C535 C 0.36915 0.56175 0.16818 0.0
O536 O 0.35196 0.5149 0.16917 0.0
Co537 Co 0.36613 0.54063 0.21032 0.0
O538 O 0.37711 0.51424 0.19578 0.0
C539 C 0.31878 0.53308 0.21418 0.0
C540 C 0.30939 0.55967 0.15009 0.0
C541 C 0.36775 0.50579 0.17943 0.0
O542 O 0.31643 0.53453 0.19342 0.0
O543 O 0.33684 0.53675 0.22377 0.0
O544 O 0.35942 0.5561 0.15039 0.0
O545 O 0.35833 0.55831 0.18575 0.0
Co546 Co 0.4626 0.33137 0.16128 0.0
O547 O 0.43991 0.3125 0.15141 0.0
O548 O 0.47316 0.31339 0.13767 0.0
C549 C 0.44216 0.36183 0.16218 0.0
O550 O 0.48969 0.34954 0.16676 0.0
Co551 Co 0.45822 0.35324 0.20641 0.0
O552 O 0.4856 0.36795 0.1981 0.0
C553 C 0.47027 0.30722 0.204 0.0
C554 C 0.45365 0.30538 0.1372 0.0
C555 C 0.49637 0.36318 0.1811 0.0
O556 O 0.47255 0.30902 0.18331 0.0
O557 O 0.46246 0.32235 0.21589 0.0
O558 O 0.45056 0.35509 0.14409 0.0
O559 O 0.44451 0.34888 0.1785 0.0
Co560 Co 0.83586 0.67052 0.5491 0.0
O561 O 0.84086 0.68884 0.57353 0.0
O562 O 0.85837 0.69187 0.54244 0.0
C563 C 0.83704 0.63933 0.56842 0.0
O564 O 0.83499 0.65298 0.52083 0.0
Co565 Co 0.79383 0.64265 0.54903 0.0
O566 O 0.80929 0.62742 0.52537 0.0
C567 C 0.79122 0.68927 0.53809 0.0
C568 C 0.85594 0.69828 0.56245 0.0
C569 C 0.82502 0.63559 0.5147 0.0
O570 O 0.8121 0.69066 0.53824 0.0
O571 O 0.78103 0.67205 0.54367 0.0
O572 O 0.85478 0.64841 0.56173 0.0
O573 O 0.81956 0.65032 0.56495 0.0
Co574 Co 0.83873 0.33454 0.45928 0.0
O575 O 0.84379 0.31396 0.43655 0.0
O576 O 0.86115 0.31406 0.46797 0.0
C577 C 0.83985 0.36424 0.43769 0.0
O578 O 0.83796 0.35406 0.48614 0.0
Co579 Co 0.79701 0.3629 0.45773 0.0
O580 O 0.81228 0.37943 0.48063 0.0
C581 C 0.794 0.31706 0.47176 0.0
C582 C 0.85862 0.30554 0.44881 0.0
C583 C 0.82803 0.37169 0.49157 0.0
O584 O 0.81487 0.31541 0.47164 0.0
O585 O 0.78401 0.33403 0.46511 0.0
O586 O 0.85765 0.35557 0.44481 0.0
O587 O 0.82238 0.35358 0.44209 0.0
Co588 Co 0.66825 0.83715 0.45506 0.0
O589 O 0.68671 0.84222 0.43066 0.0
O590 O 0.68942 0.85971 0.46182 0.0
C591 C 0.63696 0.83783 0.43583 0.0
O592 O 0.65081 0.83636 0.48336 0.0
Co593 Co 0.6405 0.79496 0.45565 0.0
O594 O 0.62535 0.81048 0.47934 0.0
C595 C 0.68719 0.79266 0.46646 0.0
C596 C 0.69612 0.85722 0.44192 0.0
C597 C 0.63355 0.82635 0.48977 0.0
O598 O 0.68851 0.81355 0.46611 0.0
O599 O 0.66998 0.78236 0.46102 0.0
O600 O 0.64592 0.85577 0.4422 0.0
O601 O 0.64816 0.82053 0.43948 0.0
Co602 Co 0.1654 0.67108 0.46091 0.0
O603 O 0.15912 0.689 0.43651 0.0
O604 O 0.14347 0.6928 0.46848 0.0
C605 C 0.16276 0.63959 0.44225 0.0
O606 O 0.16787 0.65405 0.48939 0.0
Co607 Co 0.20717 0.64319 0.4589 0.0
O608 O 0.19341 0.62852 0.48392 0.0
C609 C 0.21066 0.68974 0.46974 0.0
C610 C 0.14486 0.69888 0.44827 0.0
C611 C 0.17832 0.63688 0.49533 0.0
O612 O 0.1898 0.69127 0.47008 0.0
O613 O 0.22057 0.67239 0.46403 0.0
O614 O 0.14559 0.64891 0.45002 0.0
O615 O 0.18054 0.65048 0.44424 0.0
Co616 Co 0.33667 0.16631 0.45822 0.0
O617 O 0.31711 0.16216 0.43451 0.0
O618 O 0.31576 0.14362 0.46516 0.0
C619 C 0.36703 0.16618 0.4376 0.0
O620 O 0.35521 0.16592 0.48583 0.0
Co621 Co 0.36529 0.20792 0.45966 0.0
O622 O 0.38147 0.1909 0.48148 0.0
C623 C 0.3194 0.2102 0.47379 0.0
C624 C 0.30816 0.14681 0.4457 0.0
C625 C 0.37309 0.17506 0.49179 0.0
O626 O 0.31703 0.1896 0.47092 0.0
O627 O 0.33687 0.22043 0.46915 0.0
O628 O 0.35824 0.14805 0.44365 0.0
O629 O 0.35625 0.18345 0.4425 0.0
Co630 Co 0.16561 0.33358 0.54575 0.0
O631 O 0.161 0.31289 0.56848 0.0
O632 O 0.14377 0.31253 0.53698 0.0
C633 C 0.16374 0.36331 0.56725 0.0
O634 O 0.16601 0.35306 0.51882 0.0
Co635 Co 0.20652 0.3631 0.54725 0.0
O636 O 0.1906 0.37938 0.52466 0.0
C637 C 0.21063 0.31759 0.53232 0.0
C638 C 0.14654 0.30401 0.55611 0.0
C639 C 0.17528 0.37109 0.51355 0.0
O640 O 0.18992 0.31494 0.53354 0.0
O641 O 0.22022 0.33502 0.53831 0.0
O642 O 0.14617 0.35422 0.56009 0.0
O643 O 0.18147 0.35303 0.56296 0.0
Co644 Co 0.66944 0.16737 0.54741 0.0
O645 O 0.68686 0.15954 0.57175 0.0
O646 O 0.6907 0.14526 0.53913 0.0
C647 C 0.63766 0.16486 0.56562 0.0
O648 O 0.65293 0.17143 0.51883 0.0
Co649 Co 0.64252 0.20972 0.55063 0.0
O650 O 0.62837 0.19791 0.52434 0.0
C651 C 0.68936 0.21244 0.54102 0.0
C652 C 0.69653 0.14559 0.55946 0.0
C653 C 0.63647 0.18287 0.51268 0.0
O654 O 0.69034 0.1916 0.53953 0.0
O655 O 0.67221 0.22251 0.54702 0.0
O656 O 0.64659 0.14776 0.55725 0.0
O657 O 0.64904 0.18241 0.5644 0.0
Co658 Co 0.33534 0.84011 0.54454 0.0
O659 O 0.3183 0.84829 0.56908 0.0
O660 O 0.31438 0.86259 0.53648 0.0
C661 C 0.36733 0.84217 0.5625 0.0
O662 O 0.35146 0.83582 0.51578 0.0
Co663 Co 0.36199 0.79752 0.54743 0.0
O664 O 0.37596 0.80923 0.521 0.0
C665 C 0.31503 0.79523 0.53796 0.0
C666 C 0.30886 0.86249 0.55689 0.0
C667 C 0.36776 0.82428 0.50942 0.0
O668 O 0.31406 0.81611 0.53681 0.0
O669 O 0.3322 0.78504 0.5437 0.0
O670 O 0.3586 0.85939 0.55417 0.0
O671 O 0.35571 0.82478 0.56134 0.0
H672 H 0.1121 0.4622 0.28078 0.0
H673 H 0.14656 0.40306 0.29585 0.0
H674 H 0.09012 0.44226 0.25404 0.0
H675 H 0.12451 0.3834 0.27021 0.0
H676 H 0.04285 0.38983 0.22271 0.0
H677 H 0.062 0.4126 0.24942 0.0
H678 H 0.12243 0.38194 0.23165 0.0
H679 H 0.10363 0.35914 0.20608 0.0
C680 C 0.11498 0.44503 0.2784 0.0
C681 C 0.13134 0.43431 0.29016 0.0
C682 C 0.10228 0.43359 0.26328 0.0
C683 C 0.10575 0.41128 0.25978 0.0
C684 C 0.12173 0.40065 0.27204 0.0
C685 C 0.13441 0.41199 0.28684 0.0
C686 C 0.0602 0.38796 0.22472 0.0
C687 C 0.07163 0.37238 0.21257 0.0
C688 C 0.07117 0.4011 0.23984 0.0
C689 C 0.09371 0.39886 0.24291 0.0
C690 C 0.10502 0.38373 0.23019 0.0
C691 C 0.09416 0.37062 0.21542 0.0
H692 H 0.64996 0.10026 0.2111 0.0
H693 H 0.61535 0.0399 0.2196 0.0
H694 H 0.62745 0.11725 0.23822 0.0
H695 H 0.5926 0.05726 0.2476 0.0
H696 H 0.6059 0.13492 0.30375 0.0
H697 H 0.62502 0.11231 0.27805 0.0
H698 H 0.5641 0.08942 0.25225 0.0
H699 H 0.54454 0.11213 0.2788 0.0
C700 C 0.6376 0.09049 0.21887 0.0
C701 C 0.63466 0.06859 0.21333 0.0
C702 C 0.62467 0.1003 0.2345 0.0
C703 C 0.60844 0.08854 0.24526 0.0
C704 C 0.60502 0.0667 0.23953 0.0
C705 C 0.61812 0.05675 0.22368 0.0
C706 C 0.59644 0.12505 0.29272 0.0
C707 C 0.57368 0.12568 0.293 0.0
C708 C 0.60745 0.11203 0.27799 0.0
C709 C 0.59608 0.0994 0.26286 0.0
C710 C 0.57326 0.09903 0.26374 0.0
C711 C 0.5621 0.11209 0.2788 0.0
H712 H 0.906 0.65189 0.21239 0.0
H713 H 0.96496 0.61522 0.22198 0.0
H714 H 0.88755 0.62955 0.23863 0.0
H715 H 0.94623 0.59278 0.24925 0.0
H716 H 0.89293 0.54541 0.28025 0.0
H717 H 0.91543 0.56529 0.25388 0.0
H718 H 0.889 0.62575 0.27743 0.0
H719 H 0.86645 0.60625 0.30281 0.0
C720 C 0.91517 0.63915 0.22029 0.0
C721 C 0.93709 0.63555 0.21523 0.0
C722 C 0.90453 0.62632 0.23545 0.0
C723 C 0.91547 0.60956 0.24631 0.0
C724 C 0.93736 0.60558 0.24112 0.0
C725 C 0.94811 0.61851 0.22568 0.0
C726 C 0.89201 0.56294 0.27968 0.0
C727 C 0.87758 0.57421 0.29331 0.0
C728 C 0.90498 0.57431 0.26474 0.0
C729 C 0.90375 0.59708 0.26333 0.0
C730 C 0.88997 0.6082 0.27766 0.0
C731 C 0.87701 0.59696 0.29228 0.0
H732 H 0.45408 0.9036 0.29654 0.0
H733 H 0.41846 0.84901 0.27113 0.0
H734 H 0.43348 0.92804 0.27265 0.0
H735 H 0.39867 0.87291 0.24694 0.0
H736 H 0.34654 0.91851 0.22941 0.0
H737 H 0.37031 0.89848 0.25352 0.0
H738 H 0.42397 0.93962 0.23515 0.0
H739 H 0.39963 0.96036 0.21133 0.0
C740 C 0.4423 0.8968 0.28543 0.0
C741 C 0.43763 0.87449 0.28581 0.0
C742 C 0.43047 0.91076 0.27181 0.0
C743 C 0.41397 0.90251 0.25833 0.0
C744 C 0.41068 0.87995 0.25765 0.0
C745 C 0.42218 0.86619 0.27135 0.0
C746 C 0.36333 0.92352 0.23074 0.0
C747 C 0.37128 0.94085 0.21836 0.0
C748 C 0.37705 0.9119 0.24441 0.0
C749 C 0.39923 0.917 0.24578 0.0
C750 C 0.40699 0.9352 0.23438 0.0
C751 C 0.39307 0.9471 0.2208 0.0
H752 H 0.10104 0.54951 0.71162 0.0
H753 H 0.15505 0.59063 0.7286 0.0
H754 H 0.0774 0.5708 0.73561 0.0
H755 H 0.13201 0.61116 0.75297 0.0
H756 H 0.08545 0.66064 0.77392 0.0
H757 H 0.10427 0.6372 0.74848 0.0
H758 H 0.06837 0.58203 0.7726 0.0
H759 H 0.04868 0.60605 0.79757 0.0
C760 C 0.10793 0.56277 0.72085 0.0
C761 C 0.1298 0.5686 0.7181 0.0
C762 C 0.09441 0.57499 0.73454 0.0
C763 C 0.10264 0.59309 0.7458 0.0
C764 C 0.12487 0.59787 0.74398 0.0
C765 C 0.13819 0.58594 0.73017 0.0
C766 C 0.08125 0.64358 0.77346 0.0
C767 C 0.06574 0.63512 0.78775 0.0
C768 C 0.09222 0.63005 0.75907 0.0
C769 C 0.08838 0.60756 0.75896 0.0
C770 C 0.07181 0.59925 0.77231 0.0
C771 C 0.06048 0.61298 0.78656 0.0
H772 H 0.35494 0.10442 0.79911 0.0
H773 H 0.38648 0.04386 0.78329 0.0
H774 H 0.37831 0.12341 0.7742 0.0
H775 H 0.40987 0.0632 0.75724 0.0
H776 H 0.45963 0.11403 0.72683 0.0
H777 H 0.43945 0.09185 0.75326 0.0
H778 H 0.38043 0.12518 0.73556 0.0
H779 H 0.40027 0.14738 0.71024 0.0
C780 C 0.36675 0.09504 0.7901 0.0
C781 C 0.36855 0.07251 0.79295 0.0
C782 C 0.3802 0.10601 0.77572 0.0
C783 C 0.39572 0.09482 0.76339 0.0
C784 C 0.39805 0.07229 0.76653 0.0
C785 C 0.38457 0.0612 0.78126 0.0
C786 C 0.44238 0.11663 0.72881 0.0
C787 C 0.43165 0.13274 0.7167 0.0
C788 C 0.43081 0.10382 0.74376 0.0
C789 C 0.40837 0.10694 0.74674 0.0
C790 C 0.39776 0.12267 0.73414 0.0
C791 C 0.40921 0.13544 0.71951 0.0
H792 H 0.85551 0.39938 0.7103 0.0
H793 H 0.88693 0.45984 0.7267 0.0
H794 H 0.87787 0.38048 0.73634 0.0
H795 H 0.90929 0.44063 0.75364 0.0
H796 H 0.95825 0.38898 0.78473 0.0
H797 H 0.93877 0.41143 0.75798 0.0
H798 H 0.87884 0.37973 0.77551 0.0
H799 H 0.89794 0.35737 0.80129 0.0
C800 C 0.86708 0.40874 0.71964 0.0
C801 C 0.86918 0.43121 0.71662 0.0
C802 C 0.87993 0.39784 0.73463 0.0
C803 C 0.89517 0.40908 0.74731 0.0
C804 C 0.89771 0.43153 0.74407 0.0
C805 C 0.8848 0.44254 0.72882 0.0
C806 C 0.94093 0.38689 0.78275 0.0
C807 C 0.92974 0.37112 0.79485 0.0
C808 C 0.92977 0.39981 0.76758 0.0
C809 C 0.9073 0.39711 0.76439 0.0
C810 C 0.8962 0.38188 0.77713 0.0
C811 C 0.90723 0.36904 0.792 0.0
H812 H 0.61714 0.96301 0.77791 0.0
H813 H 0.64158 0.90204 0.80232 0.0
H814 H 0.59425 0.94303 0.75187 0.0
H815 H 0.61871 0.88252 0.77729 0.0
H816 H 0.60197 0.8552 0.71251 0.0
H817 H 0.62067 0.87771 0.73852 0.0
H818 H 0.56276 0.91604 0.74767 0.0
H819 H 0.54382 0.89344 0.72071 0.0
C820 C 0.61751 0.94545 0.77783 0.0
C821 C 0.63153 0.93414 0.79182 0.0
C822 C 0.60434 0.93403 0.76307 0.0
C823 C 0.60497 0.91118 0.76225 0.0
C824 C 0.61824 0.90008 0.77703 0.0
C825 C 0.63139 0.91135 0.79144 0.0
C826 C 0.59304 0.86832 0.72005 0.0
C827 C 0.57129 0.87234 0.71467 0.0
C828 C 0.60381 0.88125 0.73507 0.0
C829 C 0.59316 0.89853 0.7454 0.0
C830 C 0.57142 0.90286 0.73993 0.0
C831 C 0.56054 0.88982 0.72468 0.0
H832 H 0.22645 0.04372 0.38918 0.0
H833 H 0.20016 0.10559 0.36941 0.0
H834 H 0.25337 0.06279 0.4119 0.0
H835 H 0.2261 0.12417 0.39208 0.0
H836 H 0.28632 0.11153 0.46303 0.0
H837 H 0.25864 0.08914 0.44481 0.0
H838 H 0.26516 0.12856 0.3873 0.0
H839 H 0.2919 0.1508 0.40525 0.0
C840 C 0.22629 0.06127 0.38983 0.0
C841 C 0.21155 0.07315 0.3771 0.0
C842 C 0.24155 0.07216 0.4029 0.0
C843 C 0.24209 0.095 0.40343 0.0
C844 C 0.22651 0.10661 0.3916 0.0
C845 C 0.21161 0.09589 0.37855 0.0
C846 C 0.28165 0.1154 0.44655 0.0
C847 C 0.2911 0.13314 0.43571 0.0
C848 C 0.26599 0.1025 0.43609 0.0
C849 C 0.25955 0.10725 0.41471 0.0
C850 C 0.2694 0.12471 0.40392 0.0
C851 C 0.28482 0.13749 0.41426 0.0
H852 H 0.9014 0.29729 0.45849 0.0
H853 H 0.84808 0.27568 0.41867 0.0
H854 H 0.92623 0.27397 0.43772 0.0
H855 H 0.87237 0.25211 0.39859 0.0
H856 H 0.91969 0.23562 0.34809 0.0
H857 H 0.89979 0.25973 0.37204 0.0
H858 H 0.93699 0.23645 0.42667 0.0
H859 H 0.95762 0.21264 0.40219 0.0
C860 C 0.89492 0.28711 0.44572 0.0
C861 C 0.87289 0.28843 0.44 0.0
C862 C 0.90912 0.27384 0.43378 0.0
C863 C 0.9014 0.26167 0.41607 0.0
C864 C 0.87904 0.26185 0.4116 0.0
C865 C 0.86503 0.27518 0.42327 0.0
C866 C 0.92397 0.236 0.36513 0.0
C867 C 0.94007 0.2222 0.37333 0.0
C868 C 0.91239 0.24962 0.37893 0.0
C869 C 0.91629 0.24951 0.40141 0.0
C870 C 0.9335 0.23683 0.40946 0.0
C871 C 0.94537 0.22329 0.39547 0.0
H872 H 0.72147 0.88956 0.46022 0.0
H873 H 0.70746 0.85727 0.39963 0.0
H874 H 0.74824 0.91252 0.44148 0.0
H875 H 0.73313 0.88025 0.38115 0.0
H876 H 0.79686 0.90395 0.35785 0.0
H877 H 0.7714 0.88343 0.3794 0.0
H878 H 0.75285 0.94172 0.4136 0.0
H879 H 0.77936 0.96247 0.39219 0.0
C880 C 0.72407 0.88737 0.443 0.0
C881 C 0.71256 0.87136 0.43151 0.0
C882 C 0.73924 0.90061 0.43223 0.0
C883 C 0.74306 0.89804 0.40984 0.0
C884 C 0.73109 0.88235 0.39847 0.0
C885 C 0.71624 0.86916 0.40913 0.0
C886 C 0.78735 0.91255 0.36986 0.0
C887 C 0.78994 0.93495 0.37305 0.0
C888 C 0.77264 0.90073 0.38225 0.0
C889 C 0.75978 0.91094 0.39805 0.0
C890 C 0.76256 0.93334 0.40161 0.0
C891 C 0.77757 0.94525 0.38923 0.0
H892 H 0.10307 0.79911 0.36376 0.0
H893 H 0.04214 0.78433 0.39509 0.0
H894 H 0.12143 0.77334 0.38683 0.0
H895 H 0.06092 0.75768 0.41833 0.0
H896 H 0.11485 0.72683 0.4672 0.0
H897 H 0.09223 0.75395 0.44823 0.0
H898 H 0.11921 0.73318 0.38706 0.0
H899 H 0.14162 0.70702 0.4055 0.0
C900 C 0.0935 0.79027 0.37554 0.0
C901 C 0.07103 0.79355 0.3773 0.0
C902 C 0.1041 0.77547 0.38882 0.0
C903 C 0.09259 0.76327 0.4042 0.0
C904 C 0.07018 0.76691 0.40661 0.0
C905 C 0.05945 0.78198 0.39321 0.0
C906 C 0.11586 0.72818 0.44972 0.0
C907 C 0.13037 0.71507 0.43794 0.0
C908 C 0.10283 0.74353 0.43888 0.0
C909 C 0.10422 0.74588 0.4162 0.0
C910 C 0.1181 0.73213 0.40457 0.0
C911 C 0.13101 0.71708 0.41524 0.0
H912 H 0.2175 0.90728 0.6469 0.0
H913 H 0.21884 0.96437 0.60625 0.0
H914 H 0.24411 0.89004 0.624 0.0
H915 H 0.24633 0.94673 0.58299 0.0
H916 H 0.27634 0.88746 0.53802 0.0
H917 H 0.25034 0.91114 0.55731 0.0
H918 H 0.28343 0.89785 0.61754 0.0
H919 H 0.30856 0.8743 0.5988 0.0
C920 C 0.22358 0.91628 0.63309 0.0
C921 C 0.21612 0.93733 0.62854 0.0
C922 C 0.23893 0.90634 0.61994 0.0
C923 C 0.24747 0.91707 0.60179 0.0
C924 C 0.23996 0.93808 0.59689 0.0
C925 C 0.22444 0.94822 0.61028 0.0
C926 C 0.27805 0.88984 0.55533 0.0
C927 C 0.29411 0.87858 0.56698 0.0
C928 C 0.26332 0.90346 0.56632 0.0
C929 C 0.26468 0.90603 0.58899 0.0
C930 C 0.28167 0.89585 0.60017 0.0
C931 C 0.29604 0.88226 0.58938 0.0
H932 H 0.04998 0.20868 0.60305 0.0
H933 H 0.09163 0.22804 0.65583 0.0
H934 H 0.07012 0.23277 0.57845 0.0
H935 H 0.11101 0.25243 0.63187 0.0
H936 H 0.15931 0.27283 0.58391 0.0
H937 H 0.13664 0.24741 0.60364 0.0
H938 H 0.08037 0.27019 0.56861 0.0
H939 H 0.10359 0.29522 0.54803 0.0
C940 C 0.0631 0.21844 0.60946 0.0
C941 C 0.06945 0.21633 0.63125 0.0
C942 C 0.07465 0.23218 0.5954 0.0
C943 C 0.0926 0.24409 0.60303 0.0
C944 C 0.09783 0.24293 0.6252 0.0
C945 C 0.08657 0.2291 0.63904 0.0
C946 C 0.14217 0.27211 0.58011 0.0
C947 C 0.13317 0.28607 0.5646 0.0
C948 C 0.12909 0.25771 0.59159 0.0
C949 C 0.10653 0.25722 0.58824 0.0
C950 C 0.09766 0.27022 0.57167 0.0
C951 C 0.11093 0.28449 0.55985 0.0
H952 H 0.79411 0.10257 0.6449 0.0
H953 H 0.78602 0.04345 0.6081 0.0
H954 H 0.76761 0.1205 0.62235 0.0
H955 H 0.75867 0.06178 0.58529 0.0
H956 H 0.72705 0.11898 0.53947 0.0
H957 H 0.75427 0.09598 0.55786 0.0
H958 H 0.72745 0.11436 0.61984 0.0
H959 H 0.70109 0.13713 0.60199 0.0
C960 C 0.7866 0.09329 0.63201 0.0
C961 C 0.792 0.07143 0.62854 0.0
C962 C 0.77137 0.10365 0.61903 0.0
C963 C 0.76087 0.09249 0.60221 0.0
C964 C 0.76657 0.07076 0.59816 0.0
C965 C 0.78203 0.06025 0.6113 0.0
C966 C 0.72701 0.11792 0.557 0.0
C967 C 0.71226 0.13027 0.56928 0.0
C968 C 0.74244 0.1047 0.56748 0.0
C969 C 0.74316 0.10369 0.5903 0.0
C970 C 0.72761 0.11515 0.60229 0.0
C971 C 0.7125 0.12828 0.59198 0.0
H972 H 0.85806 0.70598 0.60539 0.0
H973 H 0.88707 0.72564 0.5447 0.0
H974 H 0.88115 0.73076 0.62481 0.0
H975 H 0.91015 0.7516 0.56454 0.0
H976 H 0.96047 0.78154 0.61461 0.0
H977 H 0.94039 0.75536 0.59212 0.0
H978 H 0.88228 0.76913 0.62876 0.0
H979 H 0.90213 0.79422 0.65128 0.0
C980 C 0.86924 0.71583 0.59608 0.0
C981 C 0.87041 0.71406 0.57339 0.0
C982 C 0.88252 0.73014 0.60731 0.0
C983 C 0.89724 0.74352 0.59625 0.0
C984 C 0.89895 0.7415 0.57354 0.0
C985 C 0.88565 0.72681 0.56217 0.0
C986 C 0.94346 0.77872 0.6179 0.0
C987 C 0.933 0.7897 0.63497 0.0
C988 C 0.93192 0.76393 0.6049 0.0
C989 C 0.90977 0.75996 0.60878 0.0
C990 C 0.89941 0.77134 0.62559 0.0
C991 C 0.91086 0.78583 0.63855 0.0
H992 H 0.46059 0.26193 0.13698 0.0
H993 H 0.42945 0.31362 0.10173 0.0
H994 H 0.44134 0.23514 0.11469 0.0
H995 H 0.41033 0.28698 0.07926 0.0
H996 H 0.38673 0.22922 0.03655 0.0
H997 H 0.41371 0.25423 0.05213 0.0
H998 H 0.40025 0.22874 0.11592 0.0
H999 H 0.3734 0.20435 0.10067 0.0
C1000 C 0.45022 0.26748 0.12393 0.0
C1001 C 0.44656 0.28967 0.12081 0.0
C1002 C 0.43912 0.25224 0.11129 0.0
C1003 C 0.42429 0.25902 0.09531 0.0
C1004 C 0.42182 0.2813 0.09127 0.0
C1005 C 0.43271 0.29651 0.1041 0.0
C1006 C 0.38965 0.22899 0.05386 0.0
C1007 C 0.37783 0.21498 0.0674 0.0
C1008 C 0.40506 0.24323 0.06275 0.0
C1009 C 0.40923 0.24321 0.0852 0.0
C1010 C 0.39767 0.22887 0.09854 0.0
C1011 C 0.38209 0.21506 0.08979 0.0
H1012 H 0.36782 0.8067 0.90208 0.0
H1013 H 0.3895 0.77931 0.9628 0.0
H1014 H 0.39067 0.78172 0.88236 0.0
H1015 H 0.41227 0.75333 0.94264 0.0
H1016 H 0.46281 0.72131 0.894 0.0
H1017 H 0.44436 0.74858 0.91669 0.0
H1018 H 0.38754 0.74336 0.87607 0.0
H1019 H 0.40577 0.71712 0.85352 0.0
C1020 C 0.3774 0.79519 0.91127 0.0
C1021 C 0.3765 0.79471 0.93402 0.0
C1022 C 0.39054 0.78082 0.89991 0.0
C1023 C 0.40298 0.76521 0.91087 0.0
C1024 C 0.40286 0.76518 0.93373 0.0
C1025 C 0.38974 0.77991 0.94525 0.0
C1026 C 0.44646 0.72623 0.8899 0.0
C1027 C 0.43588 0.71723 0.87179 0.0
C1028 C 0.43585 0.74166 0.90297 0.0
C1029 C 0.41456 0.74833 0.89804 0.0
C1030 C 0.40408 0.73902 0.88009 0.0
C1031 C 0.41458 0.72384 0.86714 0.0
H1032 H 0.28319 0.46379 0.88875 0.0
H1033 H 0.29952 0.40225 0.8594 0.0
H1034 H 0.25584 0.44534 0.91144 0.0
H1035 H 0.27312 0.38423 0.88194 0.0
H1036 H 0.20692 0.36315 0.89925 0.0
H1037 H 0.23314 0.38563 0.88092 0.0
H1038 H 0.25123 0.41504 0.94182 0.0
H1039 H 0.22404 0.39241 0.9606 0.0
C1040 C 0.28103 0.44643 0.88719 0.0
C1041 C 0.29323 0.43458 0.87197 0.0
C1042 C 0.26555 0.43588 0.90027 0.0
C1043 C 0.26214 0.41339 0.89822 0.0
C1044 C 0.27499 0.40163 0.88358 0.0
C1045 C 0.29017 0.41204 0.87061 0.0
C1046 C 0.2164 0.37433 0.90893 0.0
C1047 C 0.21365 0.37565 0.93151 0.0
C1048 C 0.23147 0.38728 0.89834 0.0
C1049 C 0.24453 0.40185 0.90995 0.0
C1050 C 0.24137 0.40392 0.93248 0.0
C1051 C 0.22598 0.39088 0.94321 0.0
H1052 H 0.60367 0.20815 0.95751 0.0
H1053 H 0.65668 0.23137 0.91817 0.0
H1054 H 0.57853 0.23173 0.93736 0.0
H1055 H 0.63206 0.2551 0.8987 0.0
H1056 H 0.58459 0.27081 0.84826 0.0
H1057 H 0.60436 0.24646 0.87206 0.0
H1058 H 0.56792 0.27025 0.92698 0.0
H1059 H 0.54744 0.29441 0.90264 0.0
C1060 C 0.61 0.21871 0.94499 0.0
C1061 C 0.63204 0.21778 0.93917 0.0
C1062 C 0.59564 0.23213 0.93343 0.0
C1063 C 0.60321 0.24479 0.91601 0.0
C1064 C 0.62556 0.245 0.91151 0.0
C1065 C 0.63973 0.23156 0.92281 0.0
C1066 C 0.58043 0.27049 0.86533 0.0
C1067 C 0.56464 0.28455 0.87366 0.0
C1068 C 0.5919 0.25671 0.87903 0.0
C1069 C 0.5882 0.25694 0.90152 0.0
C1070 C 0.57123 0.26983 0.90973 0.0
C1071 C 0.55945 0.28355 0.89584 0.0
H1072 H 0.72232 0.54284 0.89298 0.0
H1073 H 0.71184 0.60048 0.85453 0.0
H1074 H 0.74969 0.56239 0.91443 0.0
H1075 H 0.73826 0.61985 0.87601 0.0
H1076 H 0.80234 0.64233 0.8992 0.0
H1077 H 0.7768 0.6196 0.8801 0.0
H1078 H 0.75434 0.59316 0.94096 0.0
H1079 H 0.78085 0.61583 0.96039 0.0
C1080 C 0.72588 0.55959 0.88908 0.0
C1081 C 0.7151 0.57001 0.87188 0.0
C1082 C 0.74137 0.57082 0.90147 0.0
C1083 C 0.74632 0.59263 0.8968 0.0
C1084 C 0.73525 0.60295 0.87977 0.0
C1085 C 0.71999 0.59181 0.86745 0.0
C1086 C 0.792 0.63174 0.90865 0.0
C1087 C 0.79341 0.63116 0.93138 0.0
C1088 C 0.77727 0.61869 0.89764 0.0
C1089 C 0.76323 0.60482 0.90899 0.0
C1090 C 0.76497 0.60367 0.93175 0.0
C1091 C 0.78 0.61673 0.94287 0.0
H1092 H 0.60361 0.69946 0.13465 0.0
H1093 H 0.54138 0.72396 0.11376 0.0
H1094 H 0.62184 0.72558 0.11183 0.0
H1095 H 0.56009 0.75093 0.09076 0.0
H1096 H 0.6116 0.78313 0.03988 0.0
H1097 H 0.58877 0.75539 0.05758 0.0
H1098 H 0.6231 0.76596 0.11766 0.0
H1099 H 0.64566 0.79288 0.10037 0.0
C1100 C 0.59376 0.71048 0.12515 0.0
C1101 C 0.57103 0.70997 0.1264 0.0
C1102 C 0.60427 0.72543 0.112 0.0
C1103 C 0.59242 0.74055 0.09983 0.0
C1104 C 0.5696 0.73944 0.10003 0.0
C1105 C 0.55893 0.72415 0.11323 0.0
C1106 C 0.61418 0.77942 0.05685 0.0
C1107 C 0.63067 0.78997 0.06862 0.0
C1108 C 0.60105 0.76373 0.06698 0.0
C1109 C 0.60436 0.75837 0.08891 0.0
C1110 C 0.6204 0.76945 0.10064 0.0
C1111 C 0.63337 0.78493 0.09067 0.0
H1112 H 0.21319 0.64954 0.1044 0.0
H1113 H 0.22668 0.61303 0.04613 0.0
H1114 H 0.23838 0.62728 0.12445 0.0
H1115 H 0.25291 0.59081 0.0664 0.0
H1116 H 0.30118 0.60276 0.14975 0.0
H1117 H 0.27643 0.62281 0.12695 0.0
H1118 H 0.25642 0.5633 0.09584 0.0
H1119 H 0.28218 0.54298 0.11854 0.0
C1120 C 0.22177 0.63689 0.09574 0.0
C1121 C 0.21805 0.63324 0.07356 0.0
C1122 C 0.23635 0.62411 0.10729 0.0
C1123 C 0.24794 0.60738 0.09703 0.0
C1124 C 0.24417 0.60351 0.07483 0.0
C1125 C 0.22933 0.61634 0.06318 0.0
C1126 C 0.2915 0.5938 0.13815 0.0
C1127 C 0.29348 0.57119 0.13619 0.0
C1128 C 0.2772 0.60536 0.12505 0.0
C1129 C 0.26415 0.59468 0.10973 0.0
C1130 C 0.2663 0.57204 0.10743 0.0
C1131 C 0.28089 0.56039 0.12054 0.0
H1132 H 0.73256 0.46703 0.12519 0.0
H1133 H 0.69937 0.40561 0.13034 0.0
H1134 H 0.75849 0.45059 0.09955 0.0
H1135 H 0.72455 0.38961 0.10439 0.0
H1136 H 0.76487 0.37226 0.04456 0.0
H1137 H 0.7379 0.39588 0.06226 0.0
H1138 H 0.78619 0.41628 0.10859 0.0
H1139 H 0.8127 0.39221 0.09151 0.0
C1140 C 0.73062 0.45019 0.12057 0.0
C1141 C 0.71418 0.4375 0.1299 0.0
C1142 C 0.74535 0.44084 0.10592 0.0
C1143 C 0.7433 0.41892 0.09989 0.0
C1144 C 0.72629 0.4066 0.10855 0.0
C1145 C 0.71204 0.41571 0.12357 0.0
C1146 C 0.76973 0.38222 0.05819 0.0
C1147 C 0.79071 0.38049 0.06679 0.0
C1148 C 0.75439 0.39566 0.06829 0.0
C1149 C 0.76009 0.40794 0.08668 0.0
C1150 C 0.78149 0.4072 0.0943 0.0
C1151 C 0.79658 0.39337 0.08462 0.0
H1152 H 0.97234 0.23431 0.30041 0.0
H1153 H 0.99108 0.18301 0.25657 0.0
H1154 H 0.98754 0.26121 0.27517 0.0
H1155 H 0.00691 0.2093 0.23222 0.0
H1156 H 0.00965 0.2581 0.18004 0.0
H1157 H 0.99405 0.23493 0.20746 0.0
H1158 H 0.01984 0.27648 0.25767 0.0
H1159 H 0.03487 0.3006 0.22964 0.0
C1160 C 0.97985 0.22878 0.28552 0.0
C1161 C 0.98006 0.20657 0.28026 0.0
C1162 C 0.98866 0.24416 0.27112 0.0
C1163 C 0.99806 0.23753 0.25135 0.0
C1164 C 0.99913 0.21519 0.24682 0.0
C1165 C 0.99009 0.20002 0.2609 0.0
C1166 C 0.01209 0.26238 0.1969 0.0
C1167 C 0.02389 0.281 0.20263 0.0
C1168 C 0.00319 0.24897 0.21272 0.0
C1169 C 0.00613 0.25341 0.23489 0.0
C1170 C 0.01728 0.2725 0.24076 0.0
C1171 C 0.02598 0.28627 0.22474 0.0
H1172 H 0.77492 0.96892 0.29615 0.0
H1173 H 0.82226 0.01456 0.27234 0.0
H1174 H 0.74799 0.98373 0.27066 0.0
H1175 H 0.79551 0.02998 0.24797 0.0
H1176 H 0.75764 0.03043 0.18634 0.0
H1177 H 0.78047 0.01747 0.21522 0.0
H1178 H 0.72516 0.01418 0.25809 0.0
H1179 H 0.70169 0.02675 0.22844 0.0
C1180 C 0.77939 0.98238 0.28579 0.0
C1181 C 0.80075 0.99032 0.28584 0.0
C1182 C 0.76399 0.99092 0.27126 0.0
C1183 C 0.76971 0.00773 0.25684 0.0
C1184 C 0.79069 0.01656 0.25822 0.0
C1185 C 0.80603 0.00781 0.2723 0.0
C1186 C 0.75015 0.02712 0.20188 0.0
C1187 C 0.72773 0.02989 0.20499 0.0
C1188 C 0.7634 0.01976 0.21861 0.0
C1189 C 0.75482 0.01512 0.23921 0.0
C1190 C 0.73233 0.01759 0.24243 0.0
C1191 C 0.7189 0.02491 0.22547 0.0
H1192 H 0.97756 0.75718 0.19065 0.0
H1193 H 0.98853 0.69908 0.2284 0.0
H1194 H 0.9947 0.7787 0.21861 0.0
H1195 H 0.00587 0.72114 0.25678 0.0
H1196 H 0.01308 0.78095 0.30869 0.0
H1197 H 0.99704 0.75384 0.28418 0.0
H1198 H 0.03405 0.78024 0.23101 0.0
H1199 H 0.04992 0.80701 0.25508 0.0
C1200 C 0.9835 0.74891 0.20496 0.0
C1201 C 0.98181 0.72624 0.20703 0.0
C1202 C 0.99345 0.76133 0.221 0.0
C1203 C 1.00196 0.75158 0.23973 0.0
C1204 C 0.99951 0.72907 0.24245 0.0
C1205 C 0.98962 0.71647 0.22618 0.0
C1206 C 0.01813 0.78061 0.29187 0.0
C1207 C 0.03251 0.79642 0.28379 0.0
C1208 C 0.00894 0.76511 0.27786 0.0
C1209 C 0.01397 0.76524 0.2556 0.0
C1210 C 0.02949 0.78004 0.24798 0.0
C1211 C 0.03863 0.79538 0.26184 0.0
H1212 H 0.1956 0.04871 0.25318 0.0
H1213 H 0.2245 0.0175 0.30892 0.0
H1214 H 0.22264 0.03228 0.22985 0.0
H1215 H 0.2519 1.00092 0.28512 0.0
H1216 H 0.24912 0.97536 0.19283 0.0
H1217 H 0.22664 0.99232 0.2202 0.0
H1218 H 0.28361 0.01 0.25674 0.0
H1219 H 0.3066 0.99285 0.22901 0.0
C1220 C 0.20785 0.0385 0.26056 0.0
C1221 C 0.20757 0.03416 0.28295 0.0
C1222 C 0.22335 0.02905 0.24711 0.0
C1223 C 0.23911 0.01498 0.25559 0.0
C1224 C 0.23987 0.01166 0.27815 0.0
C1225 C 0.22418 0.02115 0.29174 0.0
C1226 C 0.25705 0.98271 0.20667 0.0
C1227 C 0.27979 0.98296 0.20845 0.0
C1228 C 0.24408 0.99251 0.22237 0.0
C1229 C 0.25337 0.00282 0.24041 0.0
C1230 C 0.27603 1.00221 0.24294 0.0
C1231 C 0.28916 0.99243 0.22704 0.0
H1232 H 0.03218 0.70535 0.77567 0.0
H1233 H 0.02047 0.75445 0.82425 0.0
H1234 H 0.01769 0.72979 0.74773 0.0
H1235 H 0.00539 0.77815 0.79696 0.0
H1236 H 1.00248 0.82634 0.7442 0.0
H1237 H 0.01797 0.79977 0.7685 0.0
H1238 H 0.98585 0.74843 0.7332 0.0
H1239 H 0.97092 0.77546 0.70793 0.0
C1240 C 0.02642 0.72126 0.7804 0.0
C1241 C 0.02788 0.72808 0.80215 0.0
C1242 C 0.018 0.73522 0.76443 0.0
C1243 C 0.01071 0.75618 0.76995 0.0
C1244 C 0.01149 0.76249 0.79186 0.0
C1245 C 0.0201 0.74878 0.80762 0.0
C1246 C 0.99867 0.8094 0.74153 0.0
C1247 C 0.98513 0.80307 0.72434 0.0
C1248 C 0.0075 0.79409 0.75559 0.0
C1249 C 0.00275 0.7719 0.75326 0.0
C1250 C 0.98985 0.76537 0.73554 0.0
C1251 C 0.98122 0.78083 0.72111 0.0
H1252 H 0.19479 0.95932 0.75237 0.0
H1253 H 0.22606 0.98843 0.69677 0.0
H1254 H 0.22093 0.97656 0.77617 0.0
H1255 H 0.25251 0.00577 0.72102 0.0
H1256 H 0.24571 0.03538 0.81167 0.0
H1257 H 0.22449 0.01715 0.78414 0.0
H1258 H 0.28305 0.99767 0.7512 0.0
H1259 H 0.30478 0.01604 0.77917 0.0
C1260 C 0.20739 0.96919 0.74513 0.0
C1261 C 0.20802 0.97273 0.7226 0.0
C1262 C 0.22237 0.97911 0.75885 0.0
C1263 C 0.2385 0.99283 0.75049 0.0
C1264 C 0.24019 0.99531 0.72789 0.0
C1265 C 0.22503 0.98538 0.71404 0.0
C1266 C 0.25426 0.02737 0.79858 0.0
C1267 C 0.27707 0.02697 0.79792 0.0
C1268 C 0.24201 0.01684 0.7828 0.0
C1269 C 0.2521 0.00564 0.76575 0.0
C1270 C 0.27486 0.00611 0.76424 0.0
C1271 C 0.28727 0.01663 0.78026 0.0
H1272 H 0.00504 0.21997 0.69809 0.0
H1273 H 0.05095 0.20856 0.74974 0.0
H1274 H 0.98648 0.24704 0.72074 0.0
H1275 H 0.03267 0.23592 0.77198 0.0
H1276 H 0.99701 0.30701 0.78696 0.0
H1277 H 0.01535 0.28594 0.7585 0.0
H1278 H 0.97332 0.23165 0.77148 0.0
H1279 H 0.9553 0.25232 0.80022 0.0
C1280 C 0.01154 0.22368 0.71398 0.0
C1281 C 0.02943 0.2121 0.72217 0.0
C1282 C 1.00089 0.23909 0.7269 0.0
C1283 C 0.00829 0.24349 0.74797 0.0
C1284 C 0.0268 0.23282 0.75571 0.0
C1285 C 0.03719 0.21717 0.74301 0.0
C1286 C 0.99137 0.29075 0.78341 0.0
C1287 C 0.97474 0.28128 0.79586 0.0
C1288 C 1.00189 0.27875 0.76719 0.0
C1289 C 0.99559 0.25732 0.76287 0.0
C1290 C 0.97831 0.24823 0.77451 0.0
C1291 C 0.96808 0.26003 0.79096 0.0
H1292 H 0.77962 0.01357 0.69324 0.0
H1293 H 0.80692 0.04302 0.75073 0.0
H1294 H 0.75181 0.99592 0.71584 0.0
H1295 H 0.7796 0.02535 0.77284 0.0
H1296 H 0.69688 0.99088 0.77627 0.0
H1297 H 0.71916 0.00812 0.74797 0.0
H1298 H 0.77674 0.98109 0.77699 0.0
H1299 H 0.75494 0.96383 0.80484 0.0
C1300 C 0.77949 0.01662 0.71053 0.0
C1301 C 0.79578 0.02945 0.72017 0.0
C1302 C 0.76358 0.00652 0.72342 0.0
C1303 C 0.76383 0.00908 0.74607 0.0
C1304 C 0.77926 0.0229 0.75544 0.0
C1305 C 0.79494 0.03299 0.7427 0.0
C1306 C 0.71425 0.98824 0.77632 0.0
C1307 C 0.72412 0.97623 0.79309 0.0
C1308 C 0.72694 0.9981 0.76012 0.0
C1309 C 0.74964 0.99612 0.76054 0.0
C1310 C 0.75928 0.98307 0.77648 0.0
C1311 C 0.74672 0.97321 0.79246 0.0
H1312 H 0.19548 0.25225 0.96695 0.0
H1313 H 0.22726 0.31139 0.98723 0.0
H1314 H 0.22229 0.23109 0.98636 0.0
H1315 H 0.25455 0.28971 0.00669 0.0
H1316 H 0.25059 0.20283 0.04698 0.0
H1317 H 0.22814 0.22934 0.02848 0.0
H1318 H 0.28494 0.25757 0.99904 0.0
H1319 H 0.30782 0.23067 0.01756 0.0
C1320 C 0.2083 0.26082 0.97535 0.0
C1321 C 0.20892 0.28364 0.97573 0.0
C1322 C 0.22367 0.24861 0.98654 0.0
C1323 C 0.24025 0.25876 0.99834 0.0
C1324 C 0.24184 0.2815 0.99777 0.0
C1325 C 0.22623 0.29387 0.98662 0.0
C1326 C 0.25849 0.21481 0.03685 0.0
C1327 C 0.28106 0.21431 0.03353 0.0
C1328 C 0.24555 0.23 0.02621 0.0
C1329 C 0.25476 0.24524 0.01204 0.0
C1330 C 0.27744 0.24593 0.00985 0.0
C1331 C 0.2905 0.23053 0.02047 0.0
H1332 H 0.19124 0.75373 0.02971 0.0
H1333 H 0.23079 0.69682 0.01883 0.0
H1334 H 0.21853 0.77609 0.01254 0.0
H1335 H 0.25844 0.71969 1.00143 0.0
H1336 H 0.30875 0.78004 0.99317 0.0
H1337 H 0.28493 0.75248 0.00939 0.0
H1338 H 0.23073 0.77856 0.97365 0.0
H1339 H 0.25414 0.80584 0.95765 0.0
C1340 C 0.20581 0.74591 0.02377 0.0
C1341 C 0.20859 0.72332 0.02548 0.0
C1342 C 0.22145 0.7588 0.0138 0.0
C1343 C 0.24045 0.74961 0.00525 0.0
C1344 C 0.24389 0.7272 0.0078 0.0
C1345 C 0.22805 0.71413 0.01775 0.0
C1346 C 0.29185 0.77955 0.98844 0.0
C1347 C 0.2833 0.7954 0.97438 0.0
C1348 C 0.27823 0.76379 0.99775 0.0
C1349 C 0.25588 0.76369 0.99315 0.0
C1350 C 0.24777 0.77855 0.97791 0.0
C1351 C 0.26125 0.79416 0.96868 0.0
H1352 H 0.80331 0.25323 0.05313 0.0
H1353 H 0.77732 0.30813 0.01813 0.0
H1354 H 0.77705 0.22962 0.03574 0.0
H1355 H 0.75079 0.28413 1.00061 0.0
H1356 H 0.69671 0.22915 0.98796 0.0
H1357 H 0.7183 0.25653 0.00735 0.0
H1358 H 0.77606 0.21868 0.9961 0.0
H1359 H 0.755 0.1917 0.97692 0.0
C1360 C 0.79181 0.26037 0.04194 0.0
C1361 C 0.79274 0.28258 0.0368 0.0
C1362 C 0.77677 0.24678 0.03193 0.0
C1363 C 0.76215 0.25494 0.01649 0.0
C1364 C 0.76191 0.27739 0.01241 0.0
C1365 C 0.7771 0.29111 0.02246 0.0
C1366 C 0.71405 0.22679 0.98949 0.0
C1367 C 0.72401 0.20804 0.98098 0.0
C1368 C 0.72638 0.24248 1.00056 0.0
C1369 C 0.7488 0.23955 0.00355 0.0
C1370 C 0.75875 0.2212 0.99445 0.0
C1371 C 0.7466 0.20574 0.98331 0.0
H1372 H 0.77781 0.69589 0.98652 0.0
H1373 H 0.80866 0.75432 0.96303 0.0
H1374 H 0.75 0.71813 0.00452 0.0
H1375 H 0.78129 0.77609 0.98102 0.0
H1376 H 0.6963 0.7772 0.01372 0.0
H1377 H 0.71908 0.75001 0.99541 0.0
H1378 H 0.77613 0.77905 0.02354 0.0
H1379 H 0.75382 0.80579 0.04184 0.0
C1380 C 0.77847 0.71336 0.98482 0.0
C1381 C 0.79573 0.72328 0.97358 0.0
C1382 C 0.76256 0.72605 0.99514 0.0
C1383 C 0.76378 0.7488 0.99446 0.0
C1384 C 0.7802 0.75858 0.98212 0.0
C1385 C 0.79588 0.74603 0.97177 0.0
C1386 C 0.71366 0.77748 0.01635 0.0
C1387 C 0.72322 0.79395 0.029 0.0
C1388 C 0.72665 0.76193 0.00585 0.0
C1389 C 0.74935 0.76274 0.00777 0.0
C1390 C 0.75869 0.77831 0.02147 0.0
C1391 C 0.74583 0.79363 0.03199 0.0
H1392 H 0.46938 0.73304 0.79812 0.0
H1393 H 0.50331 0.68311 0.7627 0.0
H1394 H 0.48422 0.76056 0.77324 0.0
H1395 H 0.51869 0.7102 0.73877 0.0
H1396 H 0.517 0.75451 0.68206 0.0
H1397 H 0.50355 0.73087 0.71012 0.0
H1398 H 0.51652 0.78001 0.75834 0.0
H1399 H 0.52967 0.80441 0.72963 0.0
C1400 C 0.48028 0.72802 0.78529 0.0
C1401 C 0.48481 0.7059 0.78202 0.0
C1402 C 0.48883 0.74375 0.77109 0.0
C1403 C 0.50224 0.73755 0.75363 0.0
C1404 C 0.50784 0.71554 0.75151 0.0
C1405 C 0.49909 0.69997 0.76532 0.0
C1406 C 0.51715 0.76043 0.6986 0.0
C1407 C 0.52479 0.78134 0.70353 0.0
C1408 C 0.50947 0.74673 0.71481 0.0
C1409 C 0.50937 0.75328 0.73664 0.0
C1410 C 0.51641 0.77443 0.74169 0.0
C1411 C 0.52403 0.78836 0.72527 0.0
H1412 H 0.27627 0.47864 0.80536 0.0
H1413 H 0.31771 0.47591 0.74886 0.0
H1414 H 0.24642 0.49185 0.78249 0.0
H1415 H 0.28865 0.48947 0.72664 0.0
H1416 H 0.23136 0.49394 0.68549 0.0
H1417 H 0.25552 0.47739 0.7118 0.0
H1418 H 0.2341 0.52316 0.7604 0.0
H1419 H 0.20882 0.53912 0.73389 0.0
C1420 C 0.27904 0.4808 0.78815 0.0
C1421 C 0.29941 0.47593 0.77899 0.0
C1422 C 0.26198 0.48849 0.77508 0.0
C1423 C 0.26497 0.49142 0.75262 0.0
C1424 C 0.28544 0.48684 0.7437 0.0
C1425 C 0.30227 0.47912 0.75659 0.0
C1426 C 0.2316 0.50029 0.70188 0.0
C1427 C 0.21852 0.51798 0.70761 0.0
C1428 C 0.24555 0.4909 0.71696 0.0
C1429 C 0.24727 0.49932 0.73809 0.0
C1430 C 0.23323 0.51629 0.74426 0.0
C1431 C 0.21882 0.52548 0.72912 0.0
H1432 H 0.54274 0.31038 0.75 0.0
H1433 H 0.51638 0.27761 0.8061 0.0
H1434 H 0.52568 0.28391 0.72646 0.0
H1435 H 0.49903 0.25099 0.78217 0.0
H1436 H 0.48852 0.19749 0.72732 0.0
H1437 H 0.50603 0.22106 0.75422 0.0
H1438 H 0.48744 0.27726 0.71686 0.0
H1439 H 0.47026 0.2541 0.6902 0.0
C1440 C 0.5334 0.29747 0.75739 0.0
C1441 C 0.53075 0.29638 0.78002 0.0
C1442 C 0.52351 0.28231 0.74382 0.0
C1443 C 0.51064 0.26558 0.7524 0.0
C1444 C 0.50881 0.26373 0.77507 0.0
C1445 C 0.51874 0.27901 0.78875 0.0
C1446 C 0.48796 0.21489 0.72501 0.0
C1447 C 0.47819 0.22382 0.70638 0.0
C1448 C 0.49799 0.22838 0.74042 0.0
C1449 C 0.4985 0.251 0.73744 0.0
C1450 C 0.48784 0.25988 0.71938 0.0
C1451 C 0.47785 0.24652 0.7041 0.0
H1452 H 0.80083 0.47393 0.73209 0.0
H1453 H 0.74895 0.47984 0.68531 0.0
H1454 H 0.77626 0.4871 0.76059 0.0
H1455 H 0.72516 0.49344 0.71307 0.0
H1456 H 0.67888 0.49669 0.76687 0.0
H1457 H 0.70577 0.48065 0.74315 0.0
H1458 H 0.75589 0.51881 0.77385 0.0
H1459 H 0.72867 0.53423 0.79863 0.0
C1460 C 0.78428 0.478 0.72786 0.0
C1461 C 0.77687 0.47549 0.70639 0.0
C1462 C 0.77024 0.48567 0.74415 0.0
C1463 C 0.74856 0.49103 0.73926 0.0
C1464 C 0.74147 0.48888 0.71771 0.0
C1465 C 0.75529 0.48113 0.70164 0.0
C1466 C 0.69564 0.50164 0.76866 0.0
C1467 C 0.70159 0.51705 0.78432 0.0
C1468 C 0.71111 0.49248 0.75497 0.0
C1469 C 0.73299 0.49883 0.75612 0.0
C1470 C 0.7392 0.51355 0.77248 0.0
C1471 C 0.72363 0.52247 0.78659 0.0
H1472 H 0.5055 0.19389 0.2835 0.0
H1473 H 0.55492 0.24308 0.28956 0.0
H1474 H 0.48788 0.21523 0.25484 0.0
H1475 H 0.53776 0.26391 0.26039 0.0
H1476 H 0.50664 0.28413 0.19367 0.0
H1477 H 0.52459 0.25637 0.2159 0.0
H1478 H 0.47184 0.25891 0.26172 0.0
H1479 H 0.45426 0.28719 0.24003 0.0
C1480 C 0.51296 0.20889 0.27824 0.0
C1481 C 0.53159 0.21683 0.28873 0.0
C1482 C 0.50283 0.22111 0.26195 0.0
C1483 C 0.51155 0.24112 0.25544 0.0
C1484 C 0.53085 0.24843 0.26503 0.0
C1485 C 0.54062 0.23655 0.28171 0.0
C1486 C 0.49865 0.2784 0.20823 0.0
C1487 C 0.47905 0.28782 0.21514 0.0
C1488 C 0.50897 0.26262 0.22095 0.0
C1489 C 0.49952 0.25553 0.24043 0.0
C1490 C 0.47933 0.26401 0.24667 0.0
C1491 C 0.46933 0.28019 0.2343 0.0
H1492 H 0.75479 0.54296 0.30866 0.0
H1493 H 0.81235 0.51656 0.27853 0.0
H1494 H 0.73239 0.5248 0.28191 0.0
H1495 H 0.78948 0.49839 0.25133 0.0
H1496 H 0.73031 0.48838 0.19818 0.0
H1497 H 0.75789 0.50704 0.22017 0.0
H1498 H 0.728 0.48239 0.27838 0.0
H1499 H 0.70088 0.46374 0.25688 0.0
C1500 C 0.76276 0.53355 0.29614 0.0
C1501 C 0.78543 0.53097 0.29604 0.0
C1502 C 0.74985 0.52311 0.28082 0.0
C1503 C 0.75918 0.50989 0.26481 0.0
C1504 C 0.7819 0.50846 0.26358 0.0
C1505 C 0.79495 0.51888 0.27913 0.0
C1506 C 0.72989 0.48661 0.21565 0.0
C1507 C 0.71311 0.47478 0.22572 0.0
C1508 C 0.74567 0.4973 0.22819 0.0
C1509 C 0.74479 0.49645 0.25095 0.0
C1510 C 0.72882 0.48363 0.26086 0.0
C1511 C 0.71328 0.4729 0.24846 0.0
H1512 H 0.50332 0.71636 0.19604 0.0
H1513 H 0.55378 0.71106 0.24428 0.0
H1514 H 0.48547 0.74448 0.21794 0.0
H1515 H 0.53635 0.73969 0.26564 0.0
H1516 H 0.5033 0.80667 0.28519 0.0
H1517 H 0.52136 0.78461 0.25733 0.0
H1518 H 0.47125 0.73622 0.26308 0.0
H1519 H 0.45361 0.75775 0.29144 0.0
C1520 C 0.51092 0.72166 0.21097 0.0
C1521 C 0.52992 0.71153 0.21849 0.0
C1522 C 0.50068 0.73765 0.22348 0.0
C1523 C 0.50964 0.74421 0.24337 0.0
C1524 C 0.52926 0.73499 0.25027 0.0
C1525 C 0.53917 0.71861 0.23809 0.0
C1526 C 0.49595 0.79152 0.28021 0.0
C1527 C 0.47708 0.78388 0.2905 0.0
C1528 C 0.5063 0.77892 0.26435 0.0
C1529 C 0.49758 0.75885 0.25808 0.0
C1530 C 0.47815 0.75175 0.26755 0.0
C1531 C 0.46813 0.76402 0.2838 0.0
H1532 H 0.27553 0.52696 0.20314 0.0
H1533 H 0.32038 0.52212 0.25682 0.0
H1534 H 0.24605 0.51476 0.22707 0.0
H1535 H 0.29165 0.50955 0.27999 0.0
H1536 H 0.23656 0.50832 0.32449 0.0
H1537 H 0.26088 0.52369 0.29771 0.0
H1538 H 0.23207 0.48339 0.24813 0.0
H1539 H 0.2067 0.46863 0.2752 0.0
C1540 C 0.27913 0.52334 0.21994 0.0
C1541 C 0.30035 0.52586 0.22804 0.0
C1542 C 0.26227 0.51623 0.23362 0.0
C1543 C 0.26635 0.5115 0.2556 0.0
C1544 C 0.28765 0.51364 0.26339 0.0
C1545 C 0.30428 0.5208 0.24993 0.0
C1546 C 0.23527 0.50282 0.30784 0.0
C1547 C 0.22003 0.48697 0.30202 0.0
C1548 C 0.2493 0.51157 0.29246 0.0
C1549 C 0.2489 0.50437 0.27082 0.0
C1550 C 0.23286 0.48929 0.26465 0.0
C1551 C 0.21841 0.48077 0.28013 0.0
H1552 H 0.80476 0.7261 0.51622 0.0
H1553 H 0.7474 0.6941 0.54074 0.0
H1554 H 0.78165 0.75319 0.49823 0.0
H1555 H 0.72477 0.72083 0.52292 0.0
H1556 H 0.72422 0.80647 0.48784 0.0
H1557 H 0.75143 0.78357 0.50592 0.0
H1558 H 0.71872 0.72637 0.48241 0.0
H1559 H 0.6919 0.74878 0.46449 0.0
C1560 C 0.78733 0.725 0.51808 0.0
C1561 C 0.77798 0.70766 0.52968 0.0
C1562 C 0.77414 0.74052 0.50779 0.0
C1563 C 0.75141 0.73885 0.50884 0.0
C1564 C 0.74222 0.72227 0.52142 0.0
C1565 C 0.75527 0.70694 0.5317 0.0
C1566 C 0.72306 0.78901 0.48626 0.0
C1567 C 0.70561 0.77952 0.47495 0.0
C1568 C 0.73864 0.77594 0.49661 0.0
C1569 C 0.73693 0.7532 0.49592 0.0
C1570 C 0.72021 0.74384 0.48363 0.0
C1571 C 0.70483 0.75677 0.47329 0.0
H1572 H 0.69536 0.2558 0.54726 0.0
H1573 H 0.72578 0.19974 0.51813 0.0
H1574 H 0.72246 0.27911 0.53085 0.0
H1575 H 0.75315 0.22346 0.50155 0.0
H1576 H 0.80726 0.27882 0.49138 0.0
H1577 H 0.78422 0.25181 0.50956 0.0
H1578 H 0.72737 0.28833 0.49137 0.0
H1579 H 0.74989 0.31495 0.47341 0.0
C1580 C 0.70796 0.24836 0.53755 0.0
C1581 C 0.70811 0.22585 0.53378 0.0
C1582 C 0.72349 0.26179 0.52808 0.0
C1583 C 0.73969 0.25317 0.51457 0.0
C1584 C 0.74082 0.23055 0.51186 0.0
C1585 C 0.72513 0.21699 0.52135 0.0
C1586 C 0.78983 0.28095 0.49111 0.0
C1587 C 0.78053 0.29929 0.48111 0.0
C1588 C 0.77667 0.26547 0.5015 0.0
C1589 C 0.75402 0.26818 0.50223 0.0
C1590 C 0.74479 0.28602 0.49152 0.0
C1591 C 0.75779 0.30128 0.4811 0.0
H1592 H 0.27847 0.80812 0.51532 0.0
H1593 H 0.3093 0.75174 0.54339 0.0
H1594 H 0.25131 0.78446 0.49824 0.0
H1595 H 0.28249 0.72853 0.52642 0.0
H1596 H 0.19741 0.72807 0.48905 0.0
H1597 H 0.22049 0.75548 0.50649 0.0
H1598 H 0.2774 0.72006 0.48648 0.0
H1599 H 0.25478 0.69298 0.46916 0.0
C1600 C 0.27926 0.79081 0.5182 0.0
C1601 C 0.29632 0.78186 0.53051 0.0
C1602 C 0.26372 0.77728 0.50839 0.0
C1603 C 0.26506 0.75461 0.51063 0.0
C1604 C 0.28131 0.74589 0.52399 0.0
C1605 C 0.29666 0.75928 0.5338 0.0
C1606 C 0.21485 0.72631 0.48811 0.0
C1607 C 0.22416 0.70808 0.4779 0.0
C1608 C 0.22804 0.74202 0.4981 0.0
C1609 C 0.25073 0.73968 0.4982 0.0
C1610 C 0.25996 0.72207 0.48709 0.0
C1611 C 0.24691 0.70656 0.47706 0.0
H1612 H 0.20278 0.27341 0.52972 0.0
H1613 H 0.24976 0.32262 0.5131 0.0
H1614 H 0.22774 0.24532 0.51625 0.0
H1615 H 0.27395 0.29512 0.4992 0.0
H1616 H 0.32413 0.24451 0.50049 0.0
H1617 H 0.29647 0.26829 0.51496 0.0
H1618 H 0.24679 0.22964 0.48418 0.0
H1619 H 0.27495 0.20497 0.47021 0.0
C1620 C 0.21828 0.27824 0.52303 0.0
C1621 C 0.22446 0.30023 0.52291 0.0
C1622 C 0.23253 0.26218 0.51525 0.0
C1623 C 0.2531 0.26789 0.50709 0.0
C1624 C 0.25862 0.28998 0.50604 0.0
C1625 C 0.24464 0.30584 0.51397 0.0
C1626 C 0.30732 0.24096 0.49683 0.0
C1627 C 0.30176 0.22309 0.48385 0.0
C1628 C 0.29141 0.25469 0.50506 0.0
C1629 C 0.26938 0.2513 0.50025 0.0
C1630 C 0.26361 0.23278 0.48813 0.0
C1631 C 0.27969 0.2187 0.48008 0.0
H1632 H 0.07819 0.30448 0.11278 0.0
H1633 H 0.08125 0.37447 0.11283 0.0
H1634 H 0.09474 0.30377 0.07692 0.0
H1635 H 0.09795 0.37371 0.07674 0.0
H1636 H 0.14932 0.35571 0.02149 0.0
H1637 H 0.13306 0.36016 0.05759 0.0
H1638 H 0.08201 0.31565 0.04001 0.0
H1639 H 0.09786 0.31123 0.00437 0.0
C1640 C 0.08242 0.31972 0.10514 0.0
C1641 C 0.07828 0.33953 0.11555 0.0
C1642 C 0.09185 0.31932 0.08457 0.0
C1643 C 0.0975 0.3387 0.07399 0.0
C1644 C 0.09383 0.35854 0.08457 0.0
C1645 C 0.08417 0.35895 0.10514 0.0
C1646 C 0.13449 0.34711 0.02526 0.0
C1647 C 0.12512 0.33288 0.01008 0.0
C1648 C 0.12519 0.34967 0.0459 0.0
C1649 C 0.10649 0.33793 0.05168 0.0
C1650 C 0.09668 0.32453 0.03617 0.0
C1651 C 0.1058 0.32208 0.01567 0.0
H1652 H 0.70236 0.07703 0.11245 0.0
H1653 H 0.63232 0.07827 0.11206 0.0
H1654 H 0.70287 0.09287 0.07628 0.0
H1655 H 0.63287 0.09431 0.07566 0.0
H1656 H 0.65013 0.14669 0.02122 0.0
H1657 H 0.64563 0.12972 0.05691 0.0
H1658 H 0.69167 0.08009 0.03911 0.0
H1659 H 0.69618 0.0967 0.00376 0.0
C1660 C 0.68707 0.08068 0.10464 0.0
C1661 C 0.66731 0.0763 0.11505 0.0
C1662 C 0.68735 0.08968 0.08388 0.0
C1663 C 0.6679 0.09469 0.07311 0.0
C1664 C 0.6481 0.09067 0.08363 0.0
C1665 C 0.6478 0.08141 0.10438 0.0
C1666 C 0.65905 0.13198 0.02482 0.0
C1667 C 0.67374 0.12327 0.00967 0.0
C1668 C 0.65644 0.12228 0.04523 0.0
C1669 C 0.66858 0.1038 0.05086 0.0
C1670 C 0.68243 0.09456 0.03537 0.0
C1671 C 0.68493 0.10411 0.01504 0.0
H1672 H 0.93471 0.70314 0.11278 0.0
H1673 H 0.92038 0.63485 0.11824 0.0
H1674 H 0.91565 0.70449 0.07837 0.0
H1675 H 0.90014 0.63631 0.08423 0.0
H1676 H 0.88391 0.64373 0.01098 0.0
H1677 H 0.90202 0.63972 0.04616 0.0
H1678 H 0.88102 0.70429 0.06393 0.0
H1679 H 0.86432 0.70852 0.02849 0.0
C1680 C 0.92729 0.68844 0.10668 0.0
C1681 C 0.92897 0.66893 0.11822 0.0
C1682 C 0.91614 0.68921 0.087 0.0
C1683 C 0.90595 0.67057 0.07854 0.0
C1684 C 0.90787 0.65096 0.09006 0.0
C1685 C 0.91939 0.65012 0.10962 0.0
C1686 C 0.883 0.65684 0.02265 0.0
C1687 C 0.87289 0.67645 0.01713 0.0
C1688 C 0.89334 0.6546 0.0428 0.0
C1689 C 0.89342 0.67186 0.05784 0.0
C1690 C 0.88203 0.69092 0.05259 0.0
C1691 C 0.87218 0.69328 0.03239 0.0
H1692 H 0.29781 0.86504 0.03164 0.0
H1693 H 0.36292 0.88349 0.01423 0.0
H1694 H 0.30217 0.88187 0.06698 0.0
H1695 H 0.3671 0.90177 0.04932 0.0
H1696 H 0.37193 0.92096 0.12128 0.0
H1697 H 0.37038 0.90043 0.0874 0.0
H1698 H 0.30236 0.91646 0.08127 0.0
H1699 H 0.30378 0.93575 0.11552 0.0
C1700 C 0.31314 0.87269 0.03553 0.0
C1701 C 0.33002 0.87303 0.02032 0.0
C1702 C 0.31559 0.88262 0.05569 0.0
C1703 C 0.3348 0.89376 0.06096 0.0
C1704 C 0.35209 0.89331 0.04596 0.0
C1705 C 0.34977 0.88286 0.02586 0.0
C1706 C 0.35668 0.92001 0.11262 0.0
C1707 C 0.33793 0.92981 0.12112 0.0
C1708 C 0.35579 0.90832 0.09313 0.0
C1709 C 0.33618 0.90645 0.08158 0.0
C1710 C 0.31763 0.91687 0.08993 0.0
C1711 C 0.31844 0.92817 0.10953 0.0
H1712 H 0.06652 0.6332 0.89553 0.0
H1713 H 0.09876 0.69392 0.88221 0.0
H1714 H 0.08453 0.6314 0.93091 0.0
H1715 H 0.11725 0.69172 0.91736 0.0
H1716 H 0.16124 0.66645 0.97367 0.0
H1717 H 0.14544 0.66275 0.93724 0.0
H1718 H 0.08145 0.65953 0.96533 0.0
H1719 H 0.09711 0.66396 1.00155 0.0
C1720 C 0.07762 0.64604 0.90008 0.0
C1721 C 0.08121 0.66375 0.88618 0.0
C1722 C 0.0879 0.64497 0.92027 0.0
C1723 C 0.10238 0.66131 0.92669 0.0
C1724 C 0.10633 0.67879 0.91263 0.0
C1725 C 0.09565 0.68013 0.89264 0.0
C1726 C 0.14387 0.6644 0.97203 0.0
C1727 C 0.13036 0.66539 0.99034 0.0
C1728 C 0.13485 0.66249 0.95125 0.0
C1729 C 0.11226 0.66095 0.94858 0.0
C1730 C 0.09891 0.6606 0.967 0.0
C1731 C 0.10785 0.6631 0.98767 0.0
H1732 H 0.36437 0.09244 0.88693 0.0
H1733 H 0.29878 0.06954 0.89493 0.0
H1734 H 0.36185 0.11197 0.92121 0.0
H1735 H 0.29662 0.0875 0.92988 0.0
H1736 H 0.28893 0.13681 0.98196 0.0
H1737 H 0.29267 0.1202 0.94647 0.0
H1738 H 0.36117 0.11043 0.9585 0.0
H1739 H 0.35741 0.12875 0.99346 0.0
C1740 C 0.34951 0.09137 0.89623 0.0
C1741 C 0.33172 0.07962 0.88825 0.0
C1742 C 0.34807 0.10244 0.91599 0.0
C1743 C 0.32896 0.10158 0.92848 0.0
C1744 C 0.3114 0.08924 0.92058 0.0
C1745 C 0.31266 0.07869 0.90058 0.0
C1746 C 0.3048 0.13128 0.97684 0.0
C1747 C 0.32287 0.13397 0.99037 0.0
C1748 C 0.30697 0.12149 0.95657 0.0
C1749 C 0.32717 0.11346 0.94955 0.0
C1750 C 0.34537 0.11657 0.96307 0.0
C1751 C 0.34327 0.12698 0.98317 0.0
H1752 H 0.89923 0.29862 0.99958 0.0
H1753 H 0.85629 0.3521 0.98485 0.0
H1754 H 0.91567 0.30189 0.96402 0.0
H1755 H 0.87281 0.35516 0.94889 0.0
H1756 H 0.92484 0.36757 0.89597 0.0
H1757 H 0.90766 0.36524 0.93156 0.0
H1758 H 0.90602 0.29541 0.92607 0.0
H1759 H 0.92343 0.29774 0.89058 0.0
C1760 C 0.89323 0.3111 0.98878 0.0
C1761 C 0.87632 0.32508 0.99516 0.0
C1762 C 0.90262 0.31285 0.96827 0.0
C1763 C 0.89545 0.32865 0.95355 0.0
C1764 C 0.87877 0.34288 0.95994 0.0
C1765 C 0.86926 0.34108 0.98051 0.0
C1766 C 0.92083 0.35172 0.90238 0.0
C1767 C 0.92555 0.33282 0.89052 0.0
C1768 C 0.91084 0.35041 0.9227 0.0
C1769 C 0.90547 0.33016 0.93166 0.0
C1770 C 0.91017 0.31126 0.91973 0.0
C1771 C 0.92007 0.31258 0.89937 0.0
H1772 H 0.71058 0.86715 0.97709 0.0
H1773 H 0.64424 0.88229 0.99308 0.0
H1774 H 0.70636 0.88442 0.94197 0.0
H1775 H 0.64017 0.90113 0.95834 0.0
H1776 H 0.63526 0.91986 0.88665 0.0
H1777 H 0.63742 0.89992 0.92074 0.0
H1778 H 0.70488 0.9183 0.92677 0.0
H1779 H 0.70289 0.93688 0.89209 0.0
C1780 C 0.69504 0.87427 0.97297 0.0
C1781 C 0.67774 0.87347 0.98769 0.0
C1782 C 0.69266 0.88446 0.95294 0.0
C1783 C 0.67307 0.89473 0.94732 0.0
C1784 C 0.65548 0.89332 0.96192 0.0
C1785 C 0.65774 0.88258 0.98185 0.0
C1786 C 0.65052 0.91958 0.89535 0.0
C1787 C 0.66896 0.92976 0.88669 0.0
C1788 C 0.65176 0.90824 0.91498 0.0
C1789 C 0.67139 0.90719 0.92659 0.0
C1790 C 0.68962 0.91806 0.9181 0.0
C1791 C 0.68849 0.92895 0.89827 0.0
H1792 H 0.11341 0.07938 0.30627 0.0
H1793 H 0.11225 0.08149 0.37628 0.0
H1794 H 0.07743 0.09573 0.30518 0.0
H1795 H 0.07611 0.09804 0.37514 0.0
H1796 H 0.02193 0.15025 0.35714 0.0
H1797 H 0.05781 0.13361 0.3616 0.0
H1798 H 0.04006 0.08318 0.31645 0.0
H1799 H 0.00456 0.09941 0.312 0.0
C1800 C 0.10547 0.08335 0.32142 0.0
C1801 C 0.11558 0.07905 0.34135 0.0
C1802 C 0.08485 0.09265 0.32081 0.0
C1803 C 0.07396 0.09806 0.34009 0.0
C1804 C 0.0842 0.09412 0.36005 0.0
C1805 C 0.10478 0.08455 0.36068 0.0
C1806 C 0.02561 0.13548 0.34837 0.0
C1807 C 0.01037 0.12636 0.33404 0.0
C1808 C 0.04612 0.12596 0.35096 0.0
C1809 C 0.05177 0.10729 0.33911 0.0
C1810 C 0.03628 0.09778 0.32547 0.0
C1811 C 0.01585 0.10711 0.32303 0.0
H1812 H 0.93861 0.11578 0.37653 0.0
H1813 H 0.90882 0.12691 0.31414 0.0
H1814 H 0.92087 0.08031 0.37869 0.0
H1815 H 0.89062 0.09164 0.31664 0.0
H1816 H 0.84623 0.0358 0.34089 0.0
H1817 H 0.86147 0.07244 0.34446 0.0
H1818 H 0.92537 0.04505 0.35234 0.0
H1819 H 0.91028 0.00856 0.34803 0.0
C1820 C 0.92811 0.11074 0.36339 0.0
C1821 C 0.92512 0.12406 0.34513 0.0
C1822 C 0.91799 0.09048 0.36466 0.0
C1823 C 0.90428 0.08341 0.34793 0.0
C1824 C 0.90093 0.09689 0.32986 0.0
C1825 C 0.91144 0.11695 0.32836 0.0
C1826 C 0.86342 0.03764 0.34402 0.0
C1827 C 0.87711 0.01944 0.34437 0.0
C1828 C 0.87214 0.05854 0.34583 0.0
C1829 C 0.89457 0.06147 0.34857 0.0
C1830 C 0.90802 0.04319 0.35033 0.0
C1831 C 0.8994 0.02237 0.34794 0.0
H1832 H 0.89406 0.94162 0.30813 0.0
H1833 H 0.88582 0.92002 0.37418 0.0
H1834 H 0.92843 0.92259 0.30606 0.0
H1835 H 0.91981 0.89974 0.37183 0.0
H1836 H 0.99275 0.88196 0.36505 0.0
H1837 H 0.95802 0.90076 0.36991 0.0
H1838 H 0.94215 0.88793 0.30277 0.0
H1839 H 0.97713 0.87059 0.29786 0.0
C1840 C 0.89956 0.93264 0.32218 0.0
C1841 C 0.88722 0.93223 0.34126 0.0
C1842 C 0.91922 0.92149 0.32097 0.0
C1843 C 0.92686 0.90917 0.33864 0.0
C1844 C 0.91462 0.90912 0.35792 0.0
C1845 C 0.89508 0.92066 0.35926 0.0
C1846 C 0.98162 0.88304 0.3515 0.0
C1847 C 0.98759 0.87506 0.33105 0.0
C1848 C 0.96171 0.89378 0.35423 0.0
C1849 C 0.94734 0.89635 0.33661 0.0
C1850 C 0.953 0.88707 0.31654 0.0
C1851 C 0.97297 0.87686 0.31374 0.0
H1852 H 0.09816 0.99949 0.30887 0.0
H1853 H 0.14706 0.9837 0.35664 0.0
H1854 H 0.08181 0.9642 0.31371 0.0
H1855 H 0.13029 0.94786 0.36146 0.0
H1856 H 0.07714 0.89412 0.3759 0.0
H1857 H 0.0945 0.92987 0.37419 0.0
H1858 H 0.0938 0.92665 0.30425 0.0
H1859 H 0.07654 0.89116 0.30591 0.0
C1860 C 0.10548 0.98854 0.32049 0.0
C1861 C 0.12418 0.99447 0.33219 0.0
C1862 C 0.09606 0.96821 0.32318 0.0
C1863 C 0.10494 0.95315 0.33771 0.0
C1864 C 0.12312 0.9592 0.35012 0.0
C1865 C 0.13273 0.97967 0.34732 0.0
C1866 C 0.08069 0.9011 0.36018 0.0
C1867 C 0.07534 0.88992 0.34103 0.0
C1868 C 0.09077 0.92146 0.35923 0.0
C1869 C 0.09541 0.93107 0.3391 0.0
C1870 C 0.09018 0.91976 0.32001 0.0
C1871 C 0.08033 0.89941 0.32095 0.0
H1872 H 0.03077 0.84879 0.66376 0.0
H1873 H 0.00271 0.91293 0.66303 0.0
H1874 H 0.06697 0.86467 0.6589 0.0
H1875 H 0.03873 0.92868 0.65752 0.0
H1876 H 0.108 0.94411 0.6299 0.0
H1877 H 0.07238 0.92644 0.62868 0.0
H1878 H 0.08749 0.89193 0.68763 0.0
H1879 H 0.12282 0.91001 0.68924 0.0
C1880 C 0.03229 0.86619 0.66185 0.0
C1881 C 0.01403 0.87967 0.66373 0.0
C1882 C 0.05295 0.87525 0.65927 0.0
C1883 C 0.05553 0.89786 0.65795 0.0
C1884 C 0.03711 0.91121 0.65841 0.0
C1885 C 0.01656 0.90221 0.66155 0.0
C1886 C 0.1037 0.93272 0.64256 0.0
C1887 C 0.11809 0.92846 0.65972 0.0
C1888 C 0.08339 0.92264 0.64183 0.0
C1889 C 0.07739 0.90772 0.65794 0.0
C1890 C 0.09191 0.90319 0.67489 0.0
C1891 C 0.112 0.91365 0.6759 0.0
H1892 H 0.10255 0.00956 0.70013 0.0
H1893 H 0.14854 0.02437 0.64927 0.0
H1894 H 0.087 0.04542 0.69673 0.0
H1895 H 0.1327 0.06075 0.64599 0.0
H1896 H 0.08043 0.11479 0.63325 0.0
H1897 H 0.09775 0.07915 0.63498 0.0
H1898 H 0.09825 0.08296 0.70491 0.0
H1899 H 0.08086 0.11848 0.70319 0.0
C1900 C 0.10941 0.02043 0.68815 0.0
C1901 C 0.12697 0.01398 0.67503 0.0
C1902 C 0.1005 0.04112 0.68634 0.0
C1903 C 0.10877 0.05603 0.6713 0.0
C1904 C 0.12597 0.04956 0.65773 0.0
C1905 C 0.13506 0.02875 0.65964 0.0
C1906 C 0.08428 0.10802 0.64899 0.0
C1907 C 0.07916 0.11938 0.66811 0.0
C1908 C 0.09434 0.08768 0.64996 0.0
C1909 C 0.09931 0.0782 0.67006 0.0
C1910 C 0.0944 0.08971 0.68916 0.0
C1911 C 0.08449 0.11009 0.68819 0.0
H1912 H 0.99597 0.12419 0.64381 0.0
H1913 H 0.98057 0.13529 0.7111 0.0
H1914 H 0.96097 0.1061 0.6388 0.0
H1915 H 0.94522 0.11889 0.70601 0.0
H1916 H 0.89353 0.06889 0.69957 0.0
H1917 H 0.9288 0.08599 0.70251 0.0
H1918 H 0.9235 0.10822 0.63614 0.0
H1919 H 0.88875 0.08956 0.63291 0.0
C1920 C 0.98488 0.12308 0.65738 0.0
C1921 C 0.99097 0.13085 0.67787 0.0
C1922 C 0.96477 0.11281 0.65456 0.0
C1923 C 0.9502 0.11061 0.67209 0.0
C1924 C 0.95614 0.11943 0.69229 0.0
C1925 C 0.97635 0.1291 0.6952 0.0
C1926 C 0.89997 0.07734 0.68559 0.0
C1927 C 0.88839 0.07795 0.66605 0.0
C1928 C 0.92017 0.0874 0.68729 0.0
C1929 C 0.92907 0.09894 0.66967 0.0
C1930 C 0.91744 0.09935 0.65001 0.0
C1931 C 0.89742 0.08877 0.64817 0.0
H1932 H 0.9237 0.8892 0.63019 0.0
H1933 H 0.9301 0.89161 0.69991 0.0
H1934 H 0.907 0.92533 0.63055 0.0
H1935 H 0.91353 0.92744 0.70023 0.0
H1936 H 0.90886 0.99946 0.6914 0.0
H1937 H 0.92513 0.964 0.68694 0.0
H1938 H 0.87257 0.9448 0.64491 0.0
H1939 H 0.85593 0.98074 0.64938 0.0
C1940 C 0.92153 0.89742 0.64556 0.0
C1941 C 0.92834 0.88764 0.66502 0.0
C1942 C 0.91187 0.91801 0.64575 0.0
C1943 C 0.90911 0.92924 0.66539 0.0
C1944 C 0.91572 0.9193 0.68481 0.0
C1945 C 0.92516 0.89874 0.68464 0.0
C1946 C 0.90069 0.98783 0.68108 0.0
C1947 C 0.88083 0.99291 0.67102 0.0
C1948 C 0.91006 0.96743 0.67859 0.0
C1949 C 0.89993 0.9515 0.66592 0.0
C1950 C 0.88069 0.9568 0.65483 0.0
C1951 C 0.87118 0.97735 0.6574 0.0
H1952 H 0.33098 0.0049 0.0934 0.0
H1953 H 0.33862 0.03355 0.15683 0.0
H1954 H 0.33568 0.04062 0.07667 0.0
H1955 H 0.34262 0.06946 0.14002 0.0
H1956 H 0.31102 0.12662 0.09648 0.0
H1957 H 0.3116 0.09113 0.11442 0.0
H1958 H 0.36759 0.07282 0.07669 0.0
H1959 H 0.3675 0.10855 0.05921 0.0
C1960 C 0.33399 0.01881 0.10371 0.0
C1961 C 0.33452 0.01651 0.12638 0.0
C1962 C 0.33666 0.03918 0.09415 0.0
C1963 C 0.33936 0.05768 0.10711 0.0
C1964 C 0.34049 0.05536 0.12975 0.0
C1965 C 0.33838 0.03486 0.13931 0.0
C1966 C 0.32347 0.11503 0.09207 0.0
C1967 C 0.33921 0.12029 0.07647 0.0
C1968 C 0.32389 0.09485 0.10243 0.0
C1969 C 0.33973 0.07942 0.09699 0.0
C1970 C 0.35529 0.08454 0.08119 0.0
C1971 C 0.3552 0.10491 0.07122 0.0
H1972 H 0.35118 0.98258 0.85858 0.0
H1973 H 0.30715 1.00012 0.91031 0.0
H1974 H 0.35714 0.94725 0.87606 0.0
H1975 H 0.31305 0.96525 0.92734 0.0
H1976 H 0.3041 0.89199 0.93308 0.0
H1977 H 0.30207 0.92754 0.91595 0.0
H1978 H 0.37191 0.92977 0.91174 0.0
H1979 H 0.374 0.894 0.92905 0.0
C1980 C 0.343 0.97907 0.87372 0.0
C1981 C 0.32844 0.99412 0.88281 0.0
C1982 C 0.34643 0.95888 0.88372 0.0
C1983 C 0.33525 0.95341 0.90286 0.0
C1984 C 0.32153 0.96883 0.91237 0.0
C1985 C 0.31822 0.98889 0.90256 0.0
C1986 C 0.31904 0.90005 0.92857 0.0
C1987 C 0.3392 0.89027 0.93254 0.0
C1988 C 0.31788 0.92043 0.9188 0.0
C1989 C 0.33685 0.93145 0.91259 0.0
C1990 C 0.35705 0.92158 0.91626 0.0
C1991 C 0.35822 0.90122 0.9263 0.0
H1992 H 0.02054 0.35312 0.85789 0.0
H1993 H 0.00777 0.30387 0.90617 0.0
H1994 H 0.05674 0.35862 0.87348 0.0
H1995 H 0.04348 0.30943 0.92148 0.0
H1996 H 0.11683 0.30359 0.92414 0.0
H1997 H 0.08069 0.30123 0.90839 0.0
H1998 H 0.076 0.37111 0.90806 0.0
H1999 H 0.11239 0.37352 0.92384 0.0
C2000 C 0.0253 0.34365 0.87189 0.0
C2001 C 0.01128 0.32787 0.88055 0.0
C2002 C 0.046 0.34683 0.88083 0.0
C2003 C 0.05305 0.33419 0.89848 0.0
C2004 C 0.03871 0.31907 0.90759 0.0
C2005 C 0.01814 0.31598 0.8988 0.0
C2006 C 0.10813 0.31847 0.92071 0.0
C2007 C 0.1174 0.33873 0.92535 0.0
C2008 C 0.08739 0.31712 0.91176 0.0
C2009 C 0.07545 0.33599 0.90713 0.0
C2010 C 0.08487 0.3563 0.91136 0.0
C2011 C 0.10562 0.35766 0.9205 0.0
H2012 H 0.70275 0.12035 0.92241 0.0
H2013 H 0.63279 0.11707 0.92215 0.0
H2014 H 0.70448 0.08488 0.90505 0.0
H2015 H 0.63457 0.08138 0.90473 0.0
H2016 H 0.65164 0.0261 0.85372 0.0
H2017 H 0.64697 0.06243 0.86947 0.0
H2018 H 0.69532 0.0476 0.91784 0.0
H2019 H 0.69999 0.01183 0.9025 0.0
C2020 C 0.68774 0.11209 0.91858 0.0
C2021 C 0.66765 0.12144 0.9238 0.0
C2022 C 0.68872 0.09174 0.90869 0.0
C2023 C 0.66965 0.08028 0.90367 0.0
C2024 C 0.64951 0.08988 0.9083 0.0
C2025 C 0.64852 0.11023 0.91839 0.0
C2026 C 0.66111 0.03056 0.86782 0.0
C2027 C 0.67637 0.01604 0.87662 0.0
C2028 C 0.65842 0.05134 0.87683 0.0
C2029 C 0.67107 0.05796 0.89465 0.0
C2030 C 0.6857 0.04317 0.90382 0.0
C2031 C 0.68828 0.02255 0.895 0.0
H2032 H 1.00116 0.69797 0.90988 0.0
H2033 H 0.98444 0.65174 0.85983 0.0
H2034 H 0.96568 0.69338 0.92613 0.0
H2035 H 0.94858 0.64719 0.8764 0.0
H2036 H 0.8939 0.63225 0.92735 0.0
H2037 H 0.9302 0.63386 0.9113 0.0
H2038 H 0.92826 0.7038 0.91435 0.0
H2039 H 0.89212 0.70222 0.93031 0.0
C2040 C 0.99 0.6867 0.90235 0.0
C2041 C 0.99568 0.67538 0.88334 0.0
C2042 C 0.96958 0.68417 0.91168 0.0
C2043 C 0.95426 0.67017 0.90238 0.0
C2044 C 0.96011 0.6581 0.88392 0.0
C2045 C 0.98061 0.66074 0.87442 0.0
C2046 C 0.90127 0.64795 0.92462 0.0
C2047 C 0.89022 0.66712 0.93017 0.0
C2048 C 0.92197 0.64885 0.91531 0.0
C2049 C 0.93208 0.66894 0.91165 0.0
C2050 C 0.92097 0.68807 0.91722 0.0
C2051 C 0.90025 0.68718 0.92629 0.0
H2052 H 0.70017 0.99623 0.09699 0.0
H2053 H 0.65198 0.98155 0.14583 0.0
H2054 H 0.69518 0.9607 0.08116 0.0
H2055 H 0.64701 0.94551 0.12959 0.0
H2056 H 0.6323 0.89149 0.0767 0.0
H2057 H 0.6343 0.92734 0.0938 0.0
H2058 H 0.70418 0.92315 0.09394 0.0
H2059 H 0.70224 0.88753 0.07695 0.0
C2060 C 0.6884 0.98549 0.10438 0.0
C2061 C 0.67663 0.99179 0.12291 0.0
C2062 C 0.68564 0.96503 0.09528 0.0
C2063 C 0.67095 0.95023 0.10431 0.0
C2064 C 0.65848 0.95664 0.12232 0.0
C2065 C 0.66136 0.97724 0.13162 0.0
C2066 C 0.64807 0.89826 0.08042 0.0
C2067 C 0.66713 0.88679 0.07535 0.0
C2068 C 0.64918 0.91868 0.09033 0.0
C2069 C 0.66938 0.92806 0.09509 0.0
C2070 C 0.68839 0.91643 0.09022 0.0
C2071 C 0.68727 0.89601 0.08052 0.0
H2072 H 0.02738 0.65248 0.14963 0.0
H2073 H 0.00803 0.69128 0.09451 0.0
H2074 H 0.06311 0.64698 0.13285 0.0
H2075 H 0.04332 0.68586 0.07814 0.0
H2076 H 0.11597 0.69925 0.07309 0.0
H2077 H 0.08006 0.70012 0.08946 0.0
H2078 H 0.0822 0.63072 0.09849 0.0
H2079 H 0.11838 0.62978 0.08188 0.0
C2080 C 0.03057 0.65955 0.13388 0.0
C2081 C 0.01492 0.67262 0.12363 0.0
C2082 C 0.051 0.65639 0.12428 0.0
C2083 C 0.05608 0.66635 0.10438 0.0
C2084 C 0.04003 0.67839 0.09369 0.0
C2085 C 0.01975 0.68143 0.10313 0.0
C2086 C 0.10883 0.68415 0.07851 0.0
C2087 C 0.11995 0.66444 0.07607 0.0
C2088 C 0.08822 0.68464 0.08783 0.0
C2089 C 0.07829 0.66546 0.09513 0.0
C2090 C 0.08952 0.64574 0.09307 0.0
C2091 C 0.11012 0.64521 0.08346 0.0
H2092 H 0.99659 0.31254 0.09531 0.0
H2093 H 0.98216 0.35757 0.14718 0.0
H2094 H 0.96042 0.31738 0.08088 0.0
H2095 H 0.94555 0.36259 0.13216 0.0
H2096 H 0.88964 0.37693 0.07938 0.0
H2097 H 0.92612 0.37605 0.09529 0.0
H2098 H 0.92335 0.30615 0.09742 0.0
H2099 H 0.887 0.30696 0.08187 0.0
C2100 C 0.98582 0.32366 0.1036 0.0
C2101 C 0.99231 0.33444 0.12267 0.0
C2102 C 0.96501 0.32635 0.09528 0.0
C2103 C 0.95013 0.34007 0.10559 0.0
C2104 C 0.95678 0.35184 0.12396 0.0
C2105 C 0.9777 0.34896 0.13253 0.0
C2106 C 0.89682 0.3614 0.08335 0.0
C2107 C 0.88554 0.34199 0.07925 0.0
C2108 C 0.9176 0.36094 0.09256 0.0
C2109 C 0.92753 0.34105 0.09746 0.0
C2110 C 0.91611 0.32171 0.09361 0.0
C2111 C 0.89529 0.32218 0.08474 0.0
H2112 H 0.64856 0.85358 0.52214 0.0
H2113 H 0.59467 0.8121 0.50499 0.0
H2114 H 0.63253 0.85898 0.55823 0.0
H2115 H 0.57905 0.81745 0.54061 0.0
H2116 H 0.57571 0.80557 0.61336 0.0
H2117 H 0.5918 0.80453 0.57735 0.0
H2118 H 0.59787 0.87428 0.57775 0.0
H2119 H 0.58154 0.87539 0.61406 0.0
C2120 C 0.63325 0.84586 0.5259 0.0
C2121 C 0.62313 0.83213 0.51072 0.0
C2122 C 0.62408 0.84898 0.54653 0.0
C2123 C 0.60475 0.83832 0.55231 0.0
C2124 C 0.59419 0.82551 0.53677 0.0
C2125 C 0.60319 0.8225 0.51629 0.0
C2126 C 0.58044 0.82071 0.60583 0.0
C2127 C 0.5772 0.84057 0.61649 0.0
C2128 C 0.58961 0.82012 0.58517 0.0
C2129 C 0.59595 0.83934 0.57469 0.0
C2130 C 0.59319 0.85922 0.58549 0.0
C2131 C 0.58375 0.85984 0.60618 0.0
H2132 H 0.19945 0.57681 0.61942 0.0
H2133 H 0.12953 0.58016 0.61696 0.0
H2134 H 0.20155 0.59476 0.5843 0.0
H2135 H 0.13167 0.59813 0.58156 0.0
H2136 H 0.14982 0.64979 0.52759 0.0
H2137 H 0.14506 0.63318 0.5635 0.0
H2138 H 0.19189 0.58389 0.54683 0.0
H2139 H 0.19671 0.60013 0.5115 0.0
C2140 C 0.18452 0.58137 0.61137 0.0
C2141 C 0.16433 0.57691 0.62088 0.0
C2142 C 0.18572 0.59162 0.59122 0.0
C2143 C 0.16676 0.59775 0.5801 0.0
C2144 C 0.14654 0.59372 0.5898 0.0
C2145 C 0.14533 0.5833 0.60997 0.0
C2146 C 0.15898 0.63534 0.53158 0.0
C2147 C 0.17381 0.6265 0.51665 0.0
C2148 C 0.15621 0.62582 0.5521 0.0
C2149 C 0.16835 0.60742 0.55808 0.0
C2150 C 0.18264 0.59831 0.54291 0.0
C2151 C 0.1853 0.60765 0.52254 0.0
H2152 H 0.35714 0.14947 0.52494 0.0
H2153 H 0.41338 0.18659 0.50552 0.0
H2154 H 0.37327 0.14445 0.56102 0.0
H2155 H 0.42908 0.1817 0.54123 0.0
H2156 H 0.4317 0.19758 0.61381 0.0
H2157 H 0.41631 0.19748 0.57744 0.0
H2158 H 0.40762 0.12811 0.58099 0.0
H2159 H 0.42332 0.12812 0.61757 0.0
C2160 C 0.37302 0.15622 0.52818 0.0
C2161 C 0.38377 0.16873 0.51242 0.0
C2162 C 0.38223 0.15335 0.54881 0.0
C2163 C 0.40221 0.16305 0.55397 0.0
C2164 C 0.41345 0.17443 0.53782 0.0
C2165 C 0.40441 0.17716 0.51731 0.0
C2166 C 0.42655 0.18229 0.60688 0.0
C2167 C 0.42884 0.16285 0.61849 0.0
C2168 C 0.4178 0.18222 0.58603 0.0
C2169 C 0.4109 0.16276 0.57638 0.0
C2170 C 0.41276 0.14333 0.5881 0.0
C2171 C 0.42184 0.14335 0.60894 0.0
H2172 H 0.8135 0.41106 0.50538 0.0
H2173 H 0.855 0.35785 0.52456 0.0
H2174 H 0.81813 0.42756 0.54076 0.0
H2175 H 0.85964 0.37472 0.56032 0.0
H2176 H 0.87407 0.42512 0.61638 0.0
H2177 H 0.87412 0.40939 0.57979 0.0
H2178 H 0.80442 0.4154 0.57734 0.0
H2179 H 0.80431 0.43088 0.61364 0.0
C2180 C 0.82379 0.40292 0.51706 0.0
C2181 C 0.8336 0.38289 0.51217 0.0
C2182 C 0.82638 0.41242 0.53739 0.0
C2183 C 0.83894 0.40226 0.55339 0.0
C2184 C 0.84984 0.38289 0.54824 0.0
C2185 C 0.84715 0.37323 0.52779 0.0
C2186 C 0.8588 0.42309 0.60796 0.0
C2187 C 0.83919 0.42932 0.61782 0.0
C2188 C 0.85883 0.41399 0.58711 0.0
C2189 C 0.8393 0.41131 0.57569 0.0
C2190 C 0.81976 0.41754 0.58563 0.0
C2191 C 0.81969 0.42634 0.60647 0.0
H2192 H 0.57737 0.13365 0.39342 0.0
H2193 H 0.58011 0.20317 0.38533 0.0
H2194 H 0.59503 0.13701 0.42873 0.0
H2195 H 0.59794 0.20651 0.42052 0.0
H2196 H 0.60374 0.20603 0.49407 0.0
H2197 H 0.58763 0.20146 0.45859 0.0
H2198 H 0.63037 0.14746 0.44586 0.0
H2199 H 0.64665 0.15188 0.48188 0.0
C2200 C 0.58176 0.14965 0.39918 0.0
C2201 C 0.57724 0.16817 0.38665 0.0
C2202 C 0.59204 0.15154 0.41932 0.0
C2203 C 0.59787 0.17201 0.42745 0.0
C2204 C 0.59343 0.19052 0.41483 0.0
C2205 C 0.58327 0.18862 0.39465 0.0
C2206 C 0.60982 0.19311 0.48384 0.0
C2207 C 0.62662 0.17934 0.49094 0.0
C2208 C 0.60062 0.19062 0.46336 0.0
C2209 C 0.60783 0.17425 0.44931 0.0
C2210 C 0.6244 0.1602 0.45638 0.0
C2211 C 0.63378 0.16278 0.47697 0.0
H2212 H 0.8762 0.58001 0.39307 0.0
H2213 H 0.80636 0.57478 0.39159 0.0
H2214 H 0.87409 0.5972 0.4289 0.0
H2215 H 0.80432 0.59179 0.42719 0.0
H2216 H 0.80997 0.59688 0.49979 0.0
H2217 H 0.81577 0.58034 0.46469 0.0
H2218 H 0.85884 0.6325 0.44683 0.0
H2219 H 0.85299 0.64949 0.48242 0.0
C2220 C 0.86043 0.58248 0.40041 0.0
C2221 C 0.84144 0.57592 0.3896 0.0
C2222 C 0.85924 0.59246 0.42081 0.0
C2223 C 0.83906 0.59574 0.43085 0.0
C2224 C 0.82012 0.58925 0.41995 0.0
C2225 C 0.82129 0.57954 0.39954 0.0
C2226 C 0.82078 0.60495 0.48855 0.0
C2227 C 0.83077 0.62478 0.49392 0.0
C2228 C 0.82403 0.59541 0.46835 0.0
C2229 C 0.83746 0.60529 0.4529 0.0
C2230 C 0.84836 0.62456 0.45847 0.0
C2231 C 0.84499 0.63428 0.47881 0.0
H2232 H 0.40068 0.80144 0.49071 0.0
H2233 H 0.35642 0.85442 0.4782 0.0
H2234 H 0.41579 0.80535 0.45473 0.0
H2235 H 0.37171 0.85817 0.44166 0.0
H2236 H 0.42381 0.8712 0.38767 0.0
H2237 H 0.40646 0.8687 0.42322 0.0
H2238 H 0.40438 0.79895 0.41714 0.0
H2239 H 0.42189 0.80142 0.38174 0.0
C2240 C 0.39409 0.81397 0.48031 0.0
C2241 C 0.37719 0.82758 0.48745 0.0
C2242 C 0.40272 0.81607 0.45953 0.0
C2243 C 0.39481 0.83189 0.44523 0.0
C2244 C 0.37818 0.84584 0.45237 0.0
C2245 C 0.36939 0.84365 0.47326 0.0
C2246 C 0.41958 0.85533 0.39391 0.0
C2247 C 0.42434 0.83648 0.38198 0.0
C2248 C 0.4095 0.85393 0.41421 0.0
C2249 C 0.40412 0.83364 0.42305 0.0
C2250 C 0.40858 0.81482 0.4109 0.0
C2251 C 0.41854 0.81623 0.39059 0.0
H2252 H 0.19744 0.43295 0.3921 0.0
H2253 H 0.12803 0.42394 0.3892 0.0
H2254 H 0.19808 0.4165 0.42801 0.0
H2255 H 0.12873 0.40729 0.42531 0.0
H2256 H 0.14941 0.35629 0.48009 0.0
H2257 H 0.1446 0.37313 0.44434 0.0
H2258 H 0.18367 0.42749 0.46472 0.0
H2259 H 0.18843 0.41104 0.50009 0.0
C2260 C 0.18231 0.42745 0.39913 0.0
C2261 C 0.16268 0.42985 0.38788 0.0
C2262 C 0.18267 0.41809 0.41973 0.0
C2263 C 0.16342 0.41074 0.4295 0.0
C2264 C 0.1438 0.41276 0.41812 0.0
C2265 C 0.14341 0.42238 0.39754 0.0
C2266 C 0.15668 0.37198 0.47703 0.0
C2267 C 0.16957 0.38212 0.49291 0.0
C2268 C 0.15392 0.38161 0.45658 0.0
C2269 C 0.1641 0.40143 0.45168 0.0
C2270 C 0.17602 0.412 0.4679 0.0
C2271 C 0.17866 0.40253 0.48823 0.0
H2272 H 0.6115 0.57111 0.80769 0.0
H2273 H 0.61588 0.58161 0.87681 0.0
H2274 H 0.57578 0.58799 0.80739 0.0
H2275 H 0.57995 0.59873 0.87643 0.0
H2276 H 0.52517 0.65005 0.8548 0.0
H2277 H 0.56084 0.63297 0.85974 0.0
H2278 H 0.53928 0.57735 0.82316 0.0
H2279 H 0.504 0.59399 0.81836 0.0
C2280 C 0.60484 0.57703 0.82282 0.0
C2281 C 0.61644 0.5749 0.84229 0.0
C2282 C 0.58435 0.58665 0.82266 0.0
C2283 C 0.57504 0.59456 0.84192 0.0
C2284 C 0.58678 0.59284 0.86136 0.0
C2285 C 0.60725 0.58294 0.86157 0.0
C2286 C 0.52794 0.63402 0.84817 0.0
C2287 C 0.51179 0.62358 0.8359 0.0
C2288 C 0.54835 0.62427 0.85098 0.0
C2289 C 0.55291 0.60403 0.84146 0.0
C2290 C 0.53638 0.59316 0.83028 0.0
C2291 C 0.5161 0.60274 0.8276 0.0
H2292 H 0.42701 0.61773 0.803 0.0
H2293 H 0.42348 0.61638 0.87295 0.0
H2294 H 0.41058 0.58183 0.80147 0.0
H2295 H 0.40696 0.58025 0.87137 0.0
H2296 H 0.35704 0.52431 0.85288 0.0
H2297 H 0.37242 0.56076 0.85757 0.0
H2298 H 0.42355 0.54492 0.81248 0.0
H2299 H 0.40857 0.50896 0.8078 0.0
C2300 C 0.42268 0.60979 0.81805 0.0
C2301 C 0.42669 0.61981 0.83809 0.0
C2302 C 0.41333 0.5892 0.81718 0.0
C2303 C 0.40763 0.57818 0.83632 0.0
C2304 C 0.4111 0.58841 0.85638 0.0
C2305 C 0.42066 0.60901 0.85726 0.0
C2306 C 0.37168 0.52856 0.84416 0.0
C2307 C 0.38136 0.51372 0.82976 0.0
C2308 C 0.38048 0.5494 0.84687 0.0
C2309 C 0.39897 0.55576 0.83509 0.0
C2310 C 0.40903 0.54065 0.82141 0.0
C2311 C 0.40041 0.51994 0.81882 0.0
H2312 H 0.3917 0.42681 0.80217 0.0
H2313 H 0.39381 0.42638 0.87219 0.0
H2314 H 0.42733 0.40979 0.80097 0.0
H2315 H 0.42967 0.40928 0.87095 0.0
H2316 H 0.48322 0.35664 0.85493 0.0
H2317 H 0.44753 0.37373 0.85891 0.0
H2318 H 0.46489 0.42124 0.81054 0.0
H2319 H 0.50017 0.40445 0.80647 0.0
C2320 C 0.39979 0.4231 0.81732 0.0
C2321 C 0.39002 0.42804 0.83727 0.0
C2322 C 0.42023 0.41342 0.81663 0.0
C2323 C 0.43133 0.40831 0.83588 0.0
C2324 C 0.42144 0.41293 0.85588 0.0
C2325 C 0.401 0.42283 0.85657 0.0
C2326 C 0.47947 0.37082 0.84528 0.0
C2327 C 0.49456 0.37899 0.83023 0.0
C2328 C 0.45906 0.38063 0.84761 0.0
C2329 C 0.45335 0.39864 0.83482 0.0
C2330 C 0.46867 0.40714 0.82032 0.0
C2331 C 0.48898 0.39751 0.81809 0.0
H2332 H 0.56299 0.39243 0.87467 0.0
H2333 H 0.59724 0.37934 0.815 0.0
H2334 H 0.57999 0.42829 0.87658 0.0
H2335 H 0.6147 0.415 0.81731 0.0
H2336 H 0.65656 0.47241 0.84294 0.0
H2337 H 0.64153 0.43571 0.84673 0.0
H2338 H 0.57686 0.46237 0.84821 0.0
H2339 H 0.59177 0.49889 0.84373 0.0
C2340 C 0.57431 0.39714 0.86209 0.0
C2341 C 0.57879 0.38316 0.84465 0.0
C2342 C 0.584 0.41761 0.86322 0.0
C2343 C 0.59875 0.42423 0.84721 0.0
C2344 C 0.60356 0.41011 0.82998 0.0
C2345 C 0.59347 0.38983 0.82858 0.0
C2346 C 0.63919 0.47043 0.84465 0.0
C2347 C 0.62529 0.48841 0.84313 0.0
C2348 C 0.63062 0.44948 0.8466 0.0
C2349 C 0.60808 0.44633 0.84764 0.0
C2350 C 0.59429 0.46443 0.84751 0.0
C2351 C 0.60281 0.48527 0.845 0.0
H2352 H 0.52649 0.36962 0.21226 0.0
H2353 H 0.51454 0.37951 0.14409 0.0
H2354 H 0.56169 0.38679 0.20884 0.0
H2355 H 0.54916 0.39846 0.14072 0.0
H2356 H 0.62081 0.41588 0.13717 0.0
H2357 H 0.58621 0.39695 0.13945 0.0
H2358 H 0.57902 0.41897 0.20576 0.0
H2359 H 0.61434 0.43619 0.20377 0.0
C2360 C 0.53138 0.37579 0.19655 0.0
C2361 C 0.51784 0.37334 0.17845 0.0
C2362 C 0.55152 0.38589 0.19457 0.0
C2363 C 0.5584 0.39448 0.17455 0.0
C2364 C 0.54475 0.39186 0.15637 0.0
C2365 C 0.52481 0.38112 0.15825 0.0
C2366 C 0.61176 0.41654 0.15221 0.0
C2367 C 0.62028 0.42733 0.17034 0.0
C2368 C 0.59179 0.40583 0.15352 0.0
C2369 C 0.57961 0.40616 0.17286 0.0
C2370 C 0.58804 0.41762 0.19077 0.0
C2371 C 0.60826 0.42775 0.18962 0.0
H2372 H 0.6055 0.50944 0.20732 0.0
H2373 H 0.6489 0.52166 0.15358 0.0
H2374 H 0.58896 0.54469 0.20214 0.0
H2375 H 0.6322 0.55737 0.14856 0.0
H2376 H 0.57934 0.60971 0.13412 0.0
H2377 H 0.59686 0.57431 0.1377 0.0
H2378 H 0.59951 0.58281 0.20718 0.0
H2379 H 0.58184 0.61803 0.20363 0.0
C2380 C 0.61157 0.51961 0.19436 0.0
C2381 C 0.62869 0.51266 0.18093 0.0
C2382 C 0.60212 0.53994 0.1915 0.0
C2383 C 0.60942 0.55391 0.17511 0.0
C2384 C 0.62619 0.5469 0.16131 0.0
C2385 C 0.63579 0.52648 0.16423 0.0
C2386 C 0.58368 0.60399 0.15015 0.0
C2387 C 0.57912 0.61658 0.16862 0.0
C2388 C 0.59385 0.58381 0.15217 0.0
C2389 C 0.59951 0.57575 0.17271 0.0
C2390 C 0.59509 0.58846 0.19114 0.0
C2391 C 0.58504 0.60866 0.18912 0.0
H2392 H 0.4824 0.64541 0.15093 0.0
H2393 H 0.50096 0.59733 0.1985 0.0
H2394 H 0.44728 0.62721 0.14662 0.0
H2395 H 0.46633 0.57938 0.19406 0.0
H2396 H 0.39355 0.57189 0.20347 0.0
H2397 H 0.42897 0.58924 0.20431 0.0
H2398 H 0.42953 0.59202 0.13434 0.0
H2399 H 0.39377 0.57464 0.13348 0.0
C2400 C 0.47914 0.6309 0.16027 0.0
C2401 C 0.49443 0.62307 0.17529 0.0
C2402 C 0.45906 0.62045 0.15776 0.0
C2403 C 0.45394 0.60205 0.17027 0.0
C2404 C 0.46959 0.59378 0.18455 0.0
C2405 C 0.48952 0.60411 0.18702 0.0
C2406 C 0.40122 0.57611 0.18824 0.0
C2407 C 0.39092 0.5718 0.16841 0.0
C2408 C 0.42156 0.58599 0.18872 0.0
C2409 C 0.4321 0.5919 0.16938 0.0
C2410 C 0.42175 0.58776 0.1495 0.0
C2411 C 0.40138 0.57769 0.14901 0.0
H2412 H 0.42879 0.38774 0.12892 0.0
H2413 H 0.42858 0.38281 0.19875 0.0
H2414 H 0.40838 0.42154 0.13115 0.0
H2415 H 0.40897 0.41703 0.20113 0.0
H2416 H 0.35832 0.46875 0.20049 0.0
H2417 H 0.37487 0.43318 0.19516 0.0
H2418 H 0.41145 0.45862 0.14098 0.0
H2419 H 0.394 0.49396 0.14598 0.0
C2420 C 0.42452 0.39399 0.14478 0.0
C2421 C 0.43025 0.38261 0.16368 0.0
C2422 C 0.41288 0.41343 0.14606 0.0
C2423 C 0.40687 0.42207 0.16631 0.0
C2424 C 0.41284 0.41069 0.18521 0.0
C2425 C 0.42427 0.39114 0.1839 0.0
C2426 C 0.36947 0.46645 0.1871 0.0
C2427 C 0.37473 0.48382 0.17343 0.0
C2428 C 0.37922 0.44621 0.18422 0.0
C2429 C 0.3948 0.44302 0.16784 0.0
C2430 C 0.3994 0.46034 0.15363 0.0
C2431 C 0.38942 0.48058 0.15641 0.0
H2432 H 0.85653 0.50536 0.6086 0.0
H2433 H 0.80952 0.53078 0.65364 0.0
H2434 H 0.86017 0.54135 0.59202 0.0
H2435 H 0.81312 0.56677 0.63734 0.0
H2436 H 0.80206 0.61674 0.58333 0.0
H2437 H 0.802 0.58202 0.60227 0.0
H2438 H 0.87186 0.57934 0.59782 0.0
H2439 H 0.87189 0.61398 0.57857 0.0
C2440 C 0.84748 0.51886 0.61528 0.0
C2441 C 0.83301 0.5156 0.63249 0.0
C2442 C 0.84948 0.5394 0.60582 0.0
C2443 C 0.83676 0.55686 0.61324 0.0
C2444 C 0.82291 0.5536 0.63107 0.0
C2445 C 0.82104 0.53314 0.64058 0.0
C2446 C 0.8174 0.60874 0.58639 0.0
C2447 C 0.83697 0.61808 0.57949 0.0
C2448 C 0.81739 0.58893 0.59739 0.0
C2449 C 0.83696 0.57802 0.60172 0.0
C2450 C 0.85652 0.58729 0.59462 0.0
C2451 C 0.85653 0.60714 0.58365 0.0
H2452 H 0.86467 0.49446 0.38655 0.0
H2453 H 0.80289 0.47539 0.36005 0.0
H2454 H 0.86838 0.45871 0.40362 0.0
H2455 H 0.80691 0.43945 0.37582 0.0
H2456 H 0.80479 0.38956 0.42892 0.0
H2457 H 0.80397 0.42414 0.41014 0.0
H2458 H 0.87336 0.42067 0.40057 0.0
H2459 H 0.87419 0.38639 0.42045 0.0
C2460 C 0.85223 0.48234 0.3839 0.0
C2461 C 0.83349 0.48752 0.37211 0.0
C2462 C 0.85429 0.46187 0.39364 0.0
C2463 C 0.83774 0.44621 0.39148 0.0
C2464 C 0.81967 0.45122 0.37848 0.0
C2465 C 0.81745 0.4717 0.36918 0.0
C2466 C 0.81987 0.39618 0.42283 0.0
C2467 C 0.83953 0.38524 0.42612 0.0
C2468 C 0.81941 0.41597 0.41184 0.0
C2469 C 0.83858 0.42519 0.40349 0.0
C2470 C 0.85831 0.41422 0.4069 0.0
C2471 C 0.85878 0.39451 0.41819 0.0
H2472 H 0.52105 0.85462 0.35579 0.0
H2473 H 0.50502 0.80502 0.40271 0.0
H2474 H 0.55662 0.85903 0.37296 0.0
H2475 H 0.54019 0.80955 0.41968 0.0
H2476 H 0.61352 0.80204 0.42492 0.0
H2477 H 0.5776 0.80065 0.40856 0.0
H2478 H 0.57505 0.87065 0.40771 0.0
H2479 H 0.61123 0.87206 0.42407 0.0
C2480 C 0.52495 0.84486 0.36986 0.0
C2481 C 0.51021 0.82929 0.37766 0.0
C2482 C 0.5453 0.84742 0.37971 0.0
C2483 C 0.55131 0.8344 0.39747 0.0
C2484 C 0.53623 0.8195 0.40574 0.0
C2485 C 0.51598 0.81699 0.39602 0.0
C2486 C 0.60532 0.81715 0.42127 0.0
C2487 C 0.61516 0.83715 0.42586 0.0
C2488 C 0.58469 0.81636 0.41199 0.0
C2489 C 0.57343 0.83555 0.40696 0.0
C2490 C 0.58338 0.8556 0.41129 0.0
C2491 C 0.60402 0.85639 0.42076 0.0
H2492 H 0.13136 0.60885 0.44641 0.0
H2493 H 0.19163 0.62242 0.41344 0.0
H2494 H 0.12923 0.57368 0.42802 0.0
H2495 H 0.18913 0.58747 0.39462 0.0
H2496 H 0.16347 0.53268 0.34972 0.0
H2497 H 0.16015 0.56869 0.36648 0.0
H2498 H 0.15635 0.53893 0.42969 0.0
H2499 H 0.16033 0.50309 0.41307 0.0
C2500 C 0.14407 0.60435 0.43515 0.0
C2501 C 0.16171 0.61828 0.43138 0.0
C2502 C 0.14281 0.58429 0.42464 0.0
C2503 C 0.15889 0.57806 0.40978 0.0
C2504 C 0.1764 0.59208 0.40582 0.0
C2505 C 0.17792 0.61193 0.41671 0.0
C2506 C 0.16132 0.53386 0.36712 0.0
C2507 C 0.16205 0.51519 0.38014 0.0
C2508 C 0.15965 0.5544 0.37669 0.0
C2509 C 0.15813 0.55647 0.39934 0.0
C2510 C 0.15743 0.53771 0.4122 0.0
C2511 C 0.15965 0.51727 0.4027 0.0
H2512 H 0.49461 0.1428 0.37868 0.0
H2513 H 0.47888 0.20959 0.36516 0.0
H2514 H 0.4597 0.13836 0.39716 0.0
H2515 H 0.44369 0.20503 0.38211 0.0
H2516 H 0.39429 0.20069 0.43472 0.0
H2517 H 0.4289 0.20269 0.41621 0.0
H2518 H 0.42178 0.13599 0.39555 0.0
H2519 H 0.38759 0.13374 0.41546 0.0
C2520 C 0.48344 0.15635 0.37928 0.0
C2521 C 0.48944 0.17658 0.37077 0.0
C2522 C 0.46342 0.15386 0.3898 0.0
C2523 C 0.44889 0.17146 0.39158 0.0
C2524 C 0.45463 0.1913 0.38187 0.0
C2525 C 0.47474 0.1939 0.3719 0.0
C2526 C 0.40015 0.18643 0.4263 0.0
C2527 C 0.38821 0.1671 0.42646 0.0
C2528 C 0.41997 0.1876 0.41544 0.0
C2529 C 0.42814 0.16961 0.40395 0.0
C2530 C 0.41621 0.15014 0.40433 0.0
C2531 C 0.39654 0.14886 0.41563 0.0
H2532 H 0.13998 0.49581 0.61257 0.0
H2533 H 0.19536 0.47326 0.64872 0.0
H2534 H 0.13643 0.45989 0.59564 0.0
H2535 H 0.19161 0.43736 0.63259 0.0
H2536 H 0.19857 0.38771 0.5791 0.0
H2537 H 0.19863 0.42247 0.59767 0.0
H2538 H 0.1286 0.42145 0.60019 0.0
H2539 H 0.12858 0.38677 0.58089 0.0
C2540 C 0.15097 0.48294 0.61729 0.0
C2541 C 0.16786 0.48706 0.63193 0.0
C2542 C 0.14901 0.46241 0.60763 0.0
C2543 C 0.16396 0.4458 0.6125 0.0
C2544 C 0.18014 0.44986 0.62805 0.0
C2545 C 0.18215 0.47031 0.63751 0.0
C2546 C 0.18318 0.39487 0.58361 0.0
C2547 C 0.16358 0.38446 0.57859 0.0
C2548 C 0.18319 0.41476 0.59443 0.0
C2549 C 0.16361 0.4247 0.6007 0.0
C2550 C 0.14396 0.41435 0.5955 0.0
C2551 C 0.14395 0.39444 0.58453 0.0
H2552 H 0.62118 0.19342 0.59511 0.0
H2553 H 0.60628 0.13413 0.56093 0.0
H2554 H 0.58625 0.19128 0.61395 0.0
H2555 H 0.57112 0.13236 0.57938 0.0
H2556 H 0.50124 0.16418 0.59484 0.0
H2557 H 0.53702 0.1599 0.57823 0.0
H2558 H 0.56672 0.16262 0.64153 0.0
H2559 H 0.53072 0.16626 0.65827 0.0
C2560 C 0.61041 0.18 0.59159 0.0
C2561 C 0.61638 0.16397 0.57654 0.0
C2562 C 0.59056 0.17867 0.6025 0.0
C2563 C 0.57616 0.16155 0.5982 0.0
C2564 C 0.58203 0.14565 0.58301 0.0
C2565 C 0.60208 0.1467 0.57246 0.0
C2566 C 0.51538 0.16326 0.60522 0.0
C2567 C 0.51329 0.16543 0.6278 0.0
C2568 C 0.5358 0.16084 0.59574 0.0
C2569 C 0.55454 0.1611 0.60863 0.0
C2570 C 0.55245 0.16246 0.63129 0.0
C2571 C 0.53192 0.16433 0.64085 0.0
H2572 H 0.50399 0.83966 0.5911 0.0
H2573 H 0.4746 0.83988 0.65463 0.0
H2574 H 0.46827 0.84445 0.57448 0.0
H2575 H 0.43868 0.84401 0.63788 0.0
H2576 H 0.38339 0.81353 0.59211 0.0
H2577 H 0.41848 0.81503 0.61068 0.0
H2578 H 0.43473 0.87326 0.57548 0.0
H2579 H 0.39937 0.87216 0.55731 0.0
C2580 C 0.4899 0.84116 0.6015 0.0
C2581 C 0.49199 0.8395 0.62412 0.0
C2582 C 0.46951 0.84388 0.592 0.0
C2583 C 0.45081 0.84443 0.60493 0.0
C2584 C 0.45292 0.84354 0.62761 0.0
C2585 C 0.47342 0.84138 0.63717 0.0
C2586 C 0.39443 0.82667 0.58839 0.0
C2587 C 0.38871 0.8427 0.57326 0.0
C2588 C 0.41439 0.82763 0.59914 0.0
C2589 C 0.42915 0.84436 0.59459 0.0
C2590 C 0.42354 0.86027 0.5793 0.0
C2591 C 0.40338 0.8596 0.56892 0.0
loop_
_geom_bond_atom_site_label_1
_geom_bond_atom_site_label_2
_geom_bond_distance
_geom_bond_site_symmetry_2
_ccdc_geom_bond_type
Co0 O1 2.216 . S
Co0 O2 2.091 . S
Co0 O4 2.004 . S
Co0 O10 2.021 . S
Co0 O12 2.137 . S
Co0 O13 2.244 . S
O1 Co0 2.216 . S
O1 C8 1.247 . S
O2 Co0 2.091 . S
O2 C8 1.261 . S
C3 O12 1.247 . S
C3 O13 1.272 . S
O4 Co0 2.004 . S
O4 C9 1.259 1_455 S
Co5 O6 2.061 1_455 S
Co5 O11 2.052 . S
Co5 O13 2.135 . S
O6 Co5 2.061 1_655 S
O6 C9 1.235 . S
C7 O10 1.238 . S
C7 O11 1.241 . S
C8 O1 1.247 . S
C8 O2 1.261 . S
C9 O4 1.259 1_655 S
C9 O6 1.235 . S
O10 Co0 2.021 . S
O10 C7 1.238 . S
O11 Co5 2.052 . S
O11 C7 1.241 . S
O12 Co0 2.137 . S
O12 C3 1.247 . S
O13 Co0 2.244 . S
O13 C3 1.272 . S
O13 Co5 2.135 . S
Co14 O15 2.216 . S
Co14 O16 2.091 . S
Co14 O18 2.004 . S
Co14 O24 2.021 . S
Co14 O26 2.137 . S
Co14 O27 2.244 . S
O15 Co14 2.216 . S
O15 C22 1.247 . S
O16 Co14 2.091 . S
O16 C22 1.261 . S
C17 O26 1.247 . S
C17 O27 1.272 . S
O18 Co14 2.004 . S
O18 C23 1.259 1_545 S
Co19 O20 2.061 1_545 S
Co19 O25 2.052 . S
Co19 O27 2.135 . S
O20 Co19 2.061 1_565 S
O20 C23 1.235 . S
C21 O24 1.238 . S
C21 O25 1.241 . S
C22 O15 1.247 . S
C22 O16 1.261 . S
C23 O18 1.259 1_565 S
C23 O20 1.235 . S
O24 Co14 2.021 . S
O24 C21 1.238 . S
O25 Co19 2.052 . S
O25 C21 1.241 . S
O26 Co14 2.137 . S
O26 C17 1.247 . S
O27 Co14 2.244 . S
O27 C17 1.272 . S
O27 Co19 2.135 . S
Co28 O29 2.216 . S
Co28 O30 2.091 . S
Co28 O32 2.004 . S
Co28 O38 2.021 . S
Co28 O40 2.137 . S
Co28 O41 2.244 . S
O29 Co28 2.216 . S
O29 C36 1.247 . S
O30 Co28 2.091 . S
O30 C36 1.261 . S
C31 O40 1.247 . S
C31 O41 1.272 . S
O32 Co28 2.004 . S
O32 C37 1.259 1_655 S
Co33 O34 2.061 1_655 S
Co33 O39 2.052 . S
Co33 O41 2.135 . S
O34 Co33 2.061 1_455 S
O34 C37 1.235 . S
C35 O38 1.238 . S
C35 O39 1.241 . S
C36 O29 1.247 . S
C36 O30 1.261 . S
C37 O32 1.259 1_455 S
C37 O34 1.235 . S
O38 Co28 2.021 . S
O38 C35 1.238 . S
O39 Co33 2.052 . S
O39 C35 1.241 . S
O40 Co28 2.137 . S
O40 C31 1.247 . S
O41 Co28 2.244 . S
O41 C31 1.272 . S
O41 Co33 2.135 . S
Co42 O43 2.216 . S
Co42 O44 2.091 . S
Co42 O46 2.004 . S
Co42 O52 2.021 . S
Co42 O54 2.137 . S
Co42 O55 2.244 . S
O43 Co42 2.216 . S
O43 C50 1.247 . S
O44 Co42 2.091 . S
O44 C50 1.261 . S
C45 O54 1.247 . S
C45 O55 1.272 . S
O46 Co42 2.004 . S
O46 C51 1.259 1_565 S
Co47 O48 2.061 1_565 S
Co47 O53 2.052 . S
Co47 O55 2.135 . S
O48 Co47 2.061 1_545 S
O48 C51 1.235 . S
C49 O52 1.238 . S
C49 O53 1.241 . S
C50 O43 1.247 . S
C50 O44 1.261 . S
C51 O46 1.259 1_545 S
C51 O48 1.235 . S
O52 Co42 2.021 . S
O52 C49 1.238 . S
O53 Co47 2.052 . S
O53 C49 1.241 . S
O54 Co42 2.137 . S
O54 C45 1.247 . S
O55 Co42 2.244 . S
O55 C45 1.272 . S
O55 Co47 2.135 . S
Co56 O57 2.216 . S
Co56 O58 2.091 . S
Co56 O60 2.004 . S
Co56 O66 2.021 . S
Co56 O68 2.137 . S
Co56 O69 2.244 . S
O57 Co56 2.216 . S
O57 C64 1.247 . S
O58 Co56 2.091 . S
O58 C64 1.261 . S
C59 O68 1.247 . S
C59 O69 1.272 . S
O60 Co56 2.004 . S
O60 C65 1.259 1_455 S
Co61 O62 2.061 1_455 S
Co61 O67 2.052 . S
Co61 O69 2.135 . S
O62 Co61 2.061 1_655 S
O62 C65 1.235 . S
C63 O66 1.238 . S
C63 O67 1.241 . S
C64 O57 1.247 . S
C64 O58 1.261 . S
C65 O60 1.259 1_655 S
C65 O62 1.235 . S
O66 Co56 2.021 . S
O66 C63 1.238 . S
O67 Co61 2.052 . S
O67 C63 1.241 . S
O68 Co56 2.137 . S
O68 C59 1.247 . S
O69 Co56 2.244 . S
O69 C59 1.272 . S
O69 Co61 2.135 . S
Co70 O71 2.216 . S
Co70 O72 2.091 . S
Co70 O74 2.004 . S
Co70 O80 2.021 . S
Co70 O82 2.137 . S
Co70 O83 2.244 . S
O71 Co70 2.216 . S
O71 C78 1.247 . S
O72 Co70 2.091 . S
O72 C78 1.261 . S
C73 O82 1.247 . S
C73 O83 1.272 . S
O74 Co70 2.004 . S
O74 C79 1.259 1_545 S
Co75 O76 2.061 1_545 S
Co75 O81 2.052 . S
Co75 O83 2.135 . S
O76 Co75 2.061 1_565 S
O76 C79 1.235 . S
C77 O80 1.238 . S
C77 O81 1.241 . S
C78 O71 1.247 . S
C78 O72 1.261 . S
C79 O74 1.259 1_565 S
C79 O76 1.235 . S
O80 Co70 2.021 . S
O80 C77 1.238 . S
O81 Co75 2.052 . S
O81 C77 1.241 . S
O82 Co70 2.137 . S
O82 C73 1.247 . S
O83 Co70 2.244 . S
O83 C73 1.272 . S
O83 Co75 2.135 . S
Co84 O85 2.216 . S
Co84 O86 2.091 . S
Co84 O88 2.004 . S
Co84 O94 2.021 . S
Co84 O96 2.137 . S
Co84 O97 2.244 . S
O85 Co84 2.216 . S
O85 C92 1.247 . S
O86 Co84 2.091 . S
O86 C92 1.261 . S
C87 O96 1.247 . S
C87 O97 1.272 . S
O88 Co84 2.004 . S
O88 C93 1.259 1_655 S
Co89 O90 2.061 1_655 S
Co89 O95 2.052 . S
Co89 O97 2.135 . S
O90 Co89 2.061 1_455 S
O90 C93 1.235 . S
C91 O94 1.238 . S
C91 O95 1.241 . S
C92 O85 1.247 . S
C92 O86 1.261 . S
C93 O88 1.259 1_455 S
C93 O90 1.235 . S
O94 Co84 2.021 . S
O94 C91 1.238 . S
O95 Co89 2.052 . S
O95 C91 1.241 . S
O96 Co84 2.137 . S
O96 C87 1.247 . S
O97 Co84 2.244 . S
O97 C87 1.272 . S
O97 Co89 2.135 . S
Co98 O99 2.216 . S
Co98 O100 2.091 . S
Co98 O102 2.004 . S
Co98 O108 2.021 . S
Co98 O110 2.137 . S
Co98 O111 2.244 . S
O99 Co98 2.216 . S
O99 C106 1.247 . S
O100 Co98 2.091 . S
O100 C106 1.261 . S
C101 O110 1.247 . S
C101 O111 1.272 . S
O102 Co98 2.004 . S
O102 C107 1.259 1_565 S
Co103 O104 2.061 1_565 S
Co103 O109 2.052 . S
Co103 O111 2.135 . S
O104 Co103 2.061 1_545 S
O104 C107 1.235 . S
C105 O108 1.238 . S
C105 O109 1.241 . S
C106 O99 1.247 . S
C106 O100 1.261 . S
C107 O102 1.259 1_545 S
C107 O104 1.235 . S
O108 Co98 2.021 . S
O108 C105 1.238 . S
O109 Co103 2.052 . S
O109 C105 1.241 . S
O110 Co98 2.137 . S
O110 C101 1.247 . S
O111 Co98 2.244 . S
O111 C101 1.272 . S
O111 Co103 2.135 . S
Co112 O113 2.216 . S
Co112 O114 2.091 . S
Co112 O116 2.004 . S
Co112 O122 2.021 . S
Co112 O124 2.137 . S
Co112 O125 2.244 . S
O113 Co112 2.216 . S
O113 C120 1.247 . S
O114 Co112 2.091 . S
O114 C120 1.261 . S
C115 O124 1.247 . S
C115 O125 1.272 . S
O116 Co112 2.004 . S
O116 C121 1.259 1_545 S
Co117 O118 2.061 1_545 S
Co117 O123 2.052 . S
Co117 O125 2.135 . S
O118 Co117 2.061 1_565 S
O118 C121 1.235 . S
C119 O122 1.238 . S
C119 O123 1.241 . S
C120 O113 1.247 . S
C120 O114 1.261 . S
C121 O116 1.259 1_565 S
C121 O118 1.235 . S
O122 Co112 2.021 . S
O122 C119 1.238 . S
O123 Co117 2.052 . S
O123 C119 1.241 . S
O124 Co112 2.137 . S
O124 C115 1.247 . S
O125 Co112 2.244 . S
O125 C115 1.272 . S
O125 Co117 2.135 . S
Co126 O127 2.216 . S
Co126 O128 2.091 . S
Co126 O130 2.004 . S
Co126 O136 2.021 . S
Co126 O138 2.137 . S
Co126 O139 2.244 . S
O127 Co126 2.216 . S
O127 C134 1.247 . S
O128 Co126 2.091 . S
O128 C134 1.261 . S
C129 O138 1.247 . S
C129 O139 1.272 . S
O130 Co126 2.004 . S
O130 C135 1.259 1_655 S
Co131 O132 2.061 1_655 S
Co131 O137 2.052 . S
Co131 O139 2.135 . S
O132 Co131 2.061 1_455 S
O132 C135 1.235 . S
C133 O136 1.238 . S
C133 O137 1.241 . S
C134 O127 1.247 . S
C134 O128 1.261 . S
C135 O130 1.259 1_455 S
C135 O132 1.235 . S
O136 Co126 2.021 . S
O136 C133 1.238 . S
O137 Co131 2.052 . S
O137 C133 1.241 . S
O138 Co126 2.137 . S
O138 C129 1.247 . S
O139 Co126 2.244 . S
O139 C129 1.272 . S
O139 Co131 2.135 . S
Co140 O141 2.216 . S
Co140 O142 2.091 . S
Co140 O144 2.004 . S
Co140 O150 2.021 . S
Co140 O152 2.137 . S
Co140 O153 2.244 . S
O141 Co140 2.216 . S
O141 C148 1.247 . S
O142 Co140 2.091 . S
O142 C148 1.261 . S
C143 O152 1.247 . S
C143 O153 1.272 . S
O144 Co140 2.004 . S
O144 C149 1.259 1_565 S
Co145 O146 2.061 1_565 S
Co145 O151 2.052 . S
Co145 O153 2.135 . S
O146 Co145 2.061 1_545 S
O146 C149 1.235 . S
C147 O150 1.238 . S
C147 O151 1.241 . S
C148 O141 1.247 . S
C148 O142 1.261 . S
C149 O144 1.259 1_545 S
C149 O146 1.235 . S
O150 Co140 2.021 . S
O150 C147 1.238 . S
O151 Co145 2.052 . S
O151 C147 1.241 . S
O152 Co140 2.137 . S
O152 C143 1.247 . S
O153 Co140 2.244 . S
O153 C143 1.272 . S
O153 Co145 2.135 . S
Co154 O155 2.216 . S
Co154 O156 2.091 . S
Co154 O158 2.004 . S
Co154 O164 2.021 . S
Co154 O166 2.137 . S
Co154 O167 2.244 . S
O155 Co154 2.216 . S
O155 C162 1.247 . S
O156 Co154 2.091 . S
O156 C162 1.261 . S
C157 O166 1.247 . S
C157 O167 1.272 . S
O158 Co154 2.004 . S
O158 C163 1.259 1_455 S
Co159 O160 2.061 1_455 S
Co159 O165 2.052 . S
Co159 O167 2.135 . S
O160 Co159 2.061 1_655 S
O160 C163 1.235 . S
C161 O164 1.238 . S
C161 O165 1.241 . S
C162 O155 1.247 . S
C162 O156 1.261 . S
C163 O158 1.259 1_655 S
C163 O160 1.235 . S
O164 Co154 2.021 . S
O164 C161 1.238 . S
O165 Co159 2.052 . S
O165 C161 1.241 . S
O166 Co154 2.137 . S
O166 C157 1.247 . S
O167 Co154 2.244 . S
O167 C157 1.272 . S
O167 Co159 2.135 . S
Co168 O169 2.216 . S
Co168 O170 2.091 . S
Co168 O172 2.004 . S
Co168 O178 2.021 . S
Co168 O180 2.137 . S
Co168 O181 2.244 . S
O169 Co168 2.216 . S
O169 C176 1.247 . S
O170 Co168 2.091 . S
O170 C176 1.261 . S
C171 O180 1.247 . S
C171 O181 1.272 . S
O172 Co168 2.004 . S
O172 C177 1.259 1_565 S
Co173 O174 2.061 1_565 S
Co173 O179 2.052 . S
Co173 O181 2.135 . S
O174 Co173 2.061 1_545 S
O174 C177 1.235 . S
C175 O178 1.238 . S
C175 O179 1.241 . S
C176 O169 1.247 . S
C176 O170 1.261 . S
C177 O172 1.259 1_545 S
C177 O174 1.235 . S
O178 Co168 2.021 . S
O178 C175 1.238 . S
O179 Co173 2.052 . S
O179 C175 1.241 . S
O180 Co168 2.137 . S
O180 C171 1.247 . S
O181 Co168 2.244 . S
O181 C171 1.272 . S
O181 Co173 2.135 . S
Co182 O183 2.216 . S
Co182 O184 2.091 . S
Co182 O186 2.004 . S
Co182 O192 2.021 . S
Co182 O194 2.137 . S
Co182 O195 2.244 . S
O183 Co182 2.216 . S
O183 C190 1.247 . S
O184 Co182 2.091 . S
O184 C190 1.261 . S
C185 O194 1.247 . S
C185 O195 1.272 . S
O186 Co182 2.004 . S
O186 C191 1.259 1_455 S
Co187 O188 2.061 1_455 S
Co187 O193 2.052 . S
Co187 O195 2.135 . S
O188 Co187 2.061 1_655 S
O188 C191 1.235 . S
C189 O192 1.238 . S
C189 O193 1.241 . S
C190 O183 1.247 . S
C190 O184 1.261 . S
C191 O186 1.259 1_655 S
C191 O188 1.235 . S
O192 Co182 2.021 . S
O192 C189 1.238 . S
O193 Co187 2.052 . S
O193 C189 1.241 . S
O194 Co182 2.137 . S
O194 C185 1.247 . S
O195 Co182 2.244 . S
O195 C185 1.272 . S
O195 Co187 2.135 . S
Co196 O197 2.216 . S
Co196 O198 2.091 . S
Co196 O200 2.004 . S
Co196 O206 2.021 . S
Co196 O208 2.137 . S
Co196 O209 2.244 . S
O197 Co196 2.216 . S
O197 C204 1.247 . S
O198 Co196 2.091 . S
O198 C204 1.261 . S
C199 O208 1.247 . S
C199 O209 1.272 . S
O200 Co196 2.004 . S
O200 C205 1.259 1_545 S
Co201 O202 2.061 1_545 S
Co201 O207 2.052 . S
Co201 O209 2.135 . S
O202 Co201 2.061 1_565 S
O202 C205 1.235 . S
C203 O206 1.238 . S
C203 O207 1.241 . S
C204 O197 1.247 . S
C204 O198 1.261 . S
C205 O200 1.259 1_565 S
C205 O202 1.235 . S
O206 Co196 2.021 . S
O206 C203 1.238 . S
O207 Co201 2.052 . S
O207 C203 1.241 . S
O208 Co196 2.137 . S
O208 C199 1.247 . S
O209 Co196 2.244 . S
O209 C199 1.272 . S
O209 Co201 2.135 . S
Co210 O211 2.216 . S
Co210 O212 2.091 . S
Co210 O214 2.004 . S
Co210 O220 2.021 . S
Co210 O222 2.137 . S
Co210 O223 2.244 . S
O211 Co210 2.216 . S
O211 C218 1.247 . S
O212 Co210 2.091 . S
O212 C218 1.261 . S
C213 O222 1.247 . S
C213 O223 1.272 . S
O214 Co210 2.004 . S
O214 C219 1.259 1_655 S
Co215 O216 2.061 1_655 S
Co215 O221 2.052 . S
Co215 O223 2.135 . S
O216 Co215 2.061 1_455 S
O216 C219 1.235 . S
C217 O220 1.238 . S
C217 O221 1.241 . S
C218 O211 1.247 . S
C218 O212 1.261 . S
C219 O214 1.259 1_455 S
C219 O216 1.235 . S
O220 Co210 2.021 . S
O220 C217 1.238 . S
O221 Co215 2.052 . S
O221 C217 1.241 . S
O222 Co210 2.137 . S
O222 C213 1.247 . S
O223 Co210 2.244 . S
O223 C213 1.272 . S
O223 Co215 2.135 . S
Co224 O225 2.216 . S
Co224 O226 2.091 . S
Co224 O228 2.004 . S
Co224 O234 2.021 . S
Co224 O236 2.137 . S
Co224 O237 2.244 . S
O225 Co224 2.216 . S
O225 C232 1.247 . S
O226 Co224 2.091 . S
O226 C232 1.261 . S
C227 O236 1.247 . S
C227 O237 1.272 . S
O228 Co224 2.004 . S
O228 C233 1.259 1_554 S
Co229 O230 2.061 1_554 S
Co229 O235 2.052 . S
Co229 O237 2.135 . S
O230 Co229 2.061 1_556 S
O230 C233 1.235 . S
C231 O234 1.238 . S
C231 O235 1.241 . S
C232 O225 1.247 . S
C232 O226 1.261 . S
C233 O228 1.259 1_556 S
C233 O230 1.235 . S
O234 Co224 2.021 . S
O234 C231 1.238 . S
O235 Co229 2.052 . S
O235 C231 1.241 . S
O236 Co224 2.137 . S
O236 C227 1.247 . S
O237 Co224 2.244 . S
O237 C227 1.272 . S
O237 Co229 2.135 . S
Co238 O239 2.216 . S
Co238 O240 2.091 . S
Co238 O242 2.004 . S
Co238 O248 2.021 . S
Co238 O250 2.137 . S
Co238 O251 2.244 . S
O239 Co238 2.216 . S
O239 C246 1.247 . S
O240 Co238 2.091 . S
O240 C246 1.261 . S
C241 O250 1.247 . S
C241 O251 1.272 . S
O242 Co238 2.004 . S
O242 C247 1.259 1_556 S
Co243 O244 2.061 1_556 S
Co243 O249 2.052 . S
Co243 O251 2.135 . S
O244 Co243 2.061 1_554 S
O244 C247 1.235 . S
C245 O248 1.238 . S
C245 O249 1.241 . S
C246 O239 1.247 . S
C246 O240 1.261 . S
C247 O242 1.259 1_554 S
C247 O244 1.235 . S
O248 Co238 2.021 . S
O248 C245 1.238 . S
O249 Co243 2.052 . S
O249 C245 1.241 . S
O250 Co238 2.137 . S
O250 C241 1.247 . S
O251 Co238 2.244 . S
O251 C241 1.272 . S
O251 Co243 2.135 . S
Co252 O253 2.216 . S
Co252 O254 2.091 . S
Co252 O256 2.004 . S
Co252 O262 2.021 . S
Co252 O264 2.137 . S
Co252 O265 2.244 . S
O253 Co252 2.216 . S
O253 C260 1.247 . S
O254 Co252 2.091 . S
O254 C260 1.261 . S
C255 O264 1.247 . S
C255 O265 1.272 . S
O256 Co252 2.004 . S
O256 C261 1.259 1_556 S
Co257 O258 2.061 1_556 S
Co257 O263 2.052 . S
Co257 O265 2.135 . S
O258 Co257 2.061 1_554 S
O258 C261 1.235 . S
C259 O262 1.238 . S
C259 O263 1.241 . S
C260 O253 1.247 . S
C260 O254 1.261 . S
C261 O256 1.259 1_554 S
C261 O258 1.235 . S
O262 Co252 2.021 . S
O262 C259 1.238 . S
O263 Co257 2.052 . S
O263 C259 1.241 . S
O264 Co252 2.137 . S
O264 C255 1.247 . S
O265 Co252 2.244 . S
O265 C255 1.272 . S
O265 Co257 2.135 . S
Co266 O267 2.216 . S
Co266 O268 2.091 . S
Co266 O270 2.004 . S
Co266 O276 2.021 . S
Co266 O278 2.137 . S
Co266 O279 2.244 . S
O267 Co266 2.216 . S
O267 C274 1.247 . S
O268 Co266 2.091 . S
O268 C274 1.261 . S
C269 O278 1.247 . S
C269 O279 1.272 . S
O270 Co266 2.004 . S
O270 C275 1.259 1_556 S
Co271 O272 2.061 1_556 S
Co271 O277 2.052 . S
Co271 O279 2.135 . S
O272 Co271 2.061 1_554 S
O272 C275 1.235 . S
C273 O276 1.238 . S
C273 O277 1.241 . S
C274 O267 1.247 . S
C274 O268 1.261 . S
C275 O270 1.259 1_554 S
C275 O272 1.235 . S
O276 Co266 2.021 . S
O276 C273 1.238 . S
O277 Co271 2.052 . S
O277 C273 1.241 . S
O278 Co266 2.137 . S
O278 C269 1.247 . S
O279 Co266 2.244 . S
O279 C269 1.272 . S
O279 Co271 2.135 . S
Co280 O281 2.216 . S
Co280 O282 2.091 . S
Co280 O284 2.004 . S
Co280 O290 2.021 . S
Co280 O292 2.137 . S
Co280 O293 2.244 . S
O281 Co280 2.216 . S
O281 C288 1.247 . S
O282 Co280 2.091 . S
O282 C288 1.261 . S
C283 O292 1.247 . S
C283 O293 1.272 . S
O284 Co280 2.004 . S
O284 C289 1.259 1_556 S
Co285 O286 2.061 1_556 S
Co285 O291 2.052 . S
Co285 O293 2.135 . S
O286 Co285 2.061 1_554 S
O286 C289 1.235 . S
C287 O290 1.238 . S
C287 O291 1.241 . S
C288 O281 1.247 . S
C288 O282 1.261 . S
C289 O284 1.259 1_554 S
C289 O286 1.235 . S
O290 Co280 2.021 . S
O290 C287 1.238 . S
O291 Co285 2.052 . S
O291 C287 1.241 . S
O292 Co280 2.137 . S
O292 C283 1.247 . S
O293 Co280 2.244 . S
O293 C283 1.272 . S
O293 Co285 2.135 . S
Co294 O295 2.216 . S
Co294 O296 2.091 . S
Co294 O298 2.004 . S
Co294 O304 2.021 . S
Co294 O306 2.137 . S
Co294 O307 2.244 . S
O295 Co294 2.216 . S
O295 C302 1.247 . S
O296 Co294 2.091 . S
O296 C302 1.261 . S
C297 O306 1.247 . S
C297 O307 1.272 . S
O298 Co294 2.004 . S
O298 C303 1.259 1_554 S
Co299 O300 2.061 1_554 S
Co299 O305 2.052 . S
Co299 O307 2.135 . S
O300 Co299 2.061 1_556 S
O300 C303 1.235 . S
C301 O304 1.238 . S
C301 O305 1.241 . S
C302 O295 1.247 . S
C302 O296 1.261 . S
C303 O298 1.259 1_556 S
C303 O300 1.235 . S
O304 Co294 2.021 . S
O304 C301 1.238 . S
O305 Co299 2.052 . S
O305 C301 1.241 . S
O306 Co294 2.137 . S
O306 C297 1.247 . S
O307 Co294 2.244 . S
O307 C297 1.272 . S
O307 Co299 2.135 . S
Co308 O309 2.216 . S
Co308 O310 2.091 . S
Co308 O312 2.004 . S
Co308 O318 2.021 . S
Co308 O320 2.137 . S
Co308 O321 2.244 . S
O309 Co308 2.216 . S
O309 C316 1.247 . S
O310 Co308 2.091 . S
O310 C316 1.261 . S
C311 O320 1.247 . S
C311 O321 1.272 . S
O312 Co308 2.004 . S
O312 C317 1.259 1_554 S
Co313 O314 2.061 1_554 S
Co313 O319 2.052 . S
Co313 O321 2.135 . S
O314 Co313 2.061 1_556 S
O314 C317 1.235 . S
C315 O318 1.238 . S
C315 O319 1.241 . S
C316 O309 1.247 . S
C316 O310 1.261 . S
C317 O312 1.259 1_556 S
C317 O314 1.235 . S
O318 Co308 2.021 . S
O318 C315 1.238 . S
O319 Co313 2.052 . S
O319 C315 1.241 . S
O320 Co308 2.137 . S
O320 C311 1.247 . S
O321 Co308 2.244 . S
O321 C311 1.272 . S
O321 Co313 2.135 . S
Co322 O323 2.216 . S
Co322 O324 2.091 . S
Co322 O326 2.004 . S
Co322 O332 2.021 . S
Co322 O334 2.137 . S
Co322 O335 2.244 . S
O323 Co322 2.216 . S
O323 C330 1.247 . S
O324 Co322 2.091 . S
O324 C330 1.261 . S
C325 O334 1.247 . S
C325 O335 1.272 . S
O326 Co322 2.004 . S
O326 C331 1.259 1_554 S
Co327 O328 2.061 1_554 S
Co327 O333 2.052 . S
Co327 O335 2.135 . S
O328 Co327 2.061 1_556 S
O328 C331 1.235 . S
C329 O332 1.238 . S
C329 O333 1.241 . S
C330 O323 1.247 . S
C330 O324 1.261 . S
C331 O326 1.259 1_556 S
C331 O328 1.235 . S
O332 Co322 2.021 . S
O332 C329 1.238 . S
O333 Co327 2.052 . S
O333 C329 1.241 . S
O334 Co322 2.137 . S
O334 C325 1.247 . S
O335 Co322 2.244 . S
O335 C325 1.272 . S
O335 Co327 2.135 . S
Co336 O337 2.216 . S
Co336 O338 2.091 . S
Co336 O340 2.004 . S
Co336 O346 2.021 . S
Co336 O348 2.137 . S
Co336 O349 2.244 . S
O337 Co336 2.216 . S
O337 C344 1.247 . S
O338 Co336 2.091 . S
O338 C344 1.261 . S
C339 O348 1.247 . S
C339 O349 1.272 . S
O340 Co336 2.004 . S
O340 C345 1.259 . S
Co341 O342 2.061 . S
Co341 O347 2.052 . S
Co341 O349 2.135 . S
O342 Co341 2.061 . S
O342 C345 1.235 . S
C343 O346 1.238 . S
C343 O347 1.241 . S
C344 O337 1.247 . S
C344 O338 1.261 . S
C345 O340 1.259 . S
C345 O342 1.235 . S
O346 Co336 2.021 . S
O346 C343 1.238 . S
O347 Co341 2.052 . S
O347 C343 1.241 . S
O348 Co336 2.137 . S
O348 C339 1.247 . S
O349 Co336 2.244 . S
O349 C339 1.272 . S
O349 Co341 2.135 . S
Co350 O351 2.216 . S
Co350 O352 2.091 . S
Co350 O354 2.004 . S
Co350 O360 2.021 . S
Co350 O362 2.137 . S
Co350 O363 2.244 . S
O351 Co350 2.216 . S
O351 C358 1.247 . S
O352 Co350 2.091 . S
O352 C358 1.261 . S
C353 O362 1.247 . S
C353 O363 1.272 . S
O354 Co350 2.004 . S
O354 C359 1.259 . S
Co355 O356 2.061 . S
Co355 O361 2.052 . S
Co355 O363 2.135 . S
O356 Co355 2.061 . S
O356 C359 1.235 . S
C357 O360 1.238 . S
C357 O361 1.241 . S
C358 O351 1.247 . S
C358 O352 1.261 . S
C359 O354 1.259 . S
C359 O356 1.235 . S
O360 Co350 2.021 . S
O360 C357 1.238 . S
O361 Co355 2.052 . S
O361 C357 1.241 . S
O362 Co350 2.137 . S
O362 C353 1.247 . S
O363 Co350 2.244 . S
O363 C353 1.272 . S
O363 Co355 2.135 . S
Co364 O365 2.216 . S
Co364 O366 2.091 . S
Co364 O368 2.004 . S
Co364 O374 2.021 . S
Co364 O376 2.137 . S
Co364 O377 2.244 . S
O365 Co364 2.216 . S
O365 C372 1.247 . S
O366 Co364 2.091 . S
O366 C372 1.261 . S
C367 O376 1.247 . S
C367 O377 1.272 . S
O368 Co364 2.004 . S
O368 C373 1.259 . S
Co369 O370 2.061 . S
Co369 O375 2.052 . S
Co369 O377 2.135 . S
O370 Co369 2.061 . S
O370 C373 1.235 . S
C371 O374 1.238 . S
C371 O375 1.241 . S
C372 O365 1.247 . S
C372 O366 1.261 . S
C373 O368 1.259 . S
C373 O370 1.235 . S
O374 Co364 2.021 . S
O374 C371 1.238 . S
O375 Co369 2.052 . S
O375 C371 1.241 . S
O376 Co364 2.137 . S
O376 C367 1.247 . S
O377 Co364 2.244 . S
O377 C367 1.272 . S
O377 Co369 2.135 . S
Co378 O379 2.216 . S
Co378 O380 2.091 . S
Co378 O382 2.004 . S
Co378 O388 2.021 . S
Co378 O390 2.137 . S
Co378 O391 2.244 . S
O379 Co378 2.216 . S
O379 C386 1.247 . S
O380 Co378 2.091 . S
O380 C386 1.261 . S
C381 O390 1.247 . S
C381 O391 1.272 . S
O382 Co378 2.004 . S
O382 C387 1.259 . S
Co383 O384 2.061 . S
Co383 O389 2.052 . S
Co383 O391 2.135 . S
O384 Co383 2.061 . S
O384 C387 1.235 . S
C385 O388 1.238 . S
C385 O389 1.241 . S
C386 O379 1.247 . S
C386 O380 1.261 . S
C387 O382 1.259 . S
C387 O384 1.235 . S
O388 Co378 2.021 . S
O388 C385 1.238 . S
O389 Co383 2.052 . S
O389 C385 1.241 . S
O390 Co378 2.137 . S
O390 C381 1.247 . S
O391 Co378 2.244 . S
O391 C381 1.272 . S
O391 Co383 2.135 . S
Co392 O393 2.216 . S
Co392 O394 2.091 . S
Co392 O396 2.004 . S
Co392 O402 2.021 . S
Co392 O404 2.137 . S
Co392 O405 2.244 . S
O393 Co392 2.216 . S
O393 C400 1.247 . S
O394 Co392 2.091 . S
O394 C400 1.261 . S
C395 O404 1.247 . S
C395 O405 1.272 . S
O396 Co392 2.004 . S
O396 C401 1.259 . S
Co397 O398 2.061 . S
Co397 O403 2.052 . S
Co397 O405 2.135 . S
O398 Co397 2.061 . S
O398 C401 1.235 . S
C399 O402 1.238 . S
C399 O403 1.241 . S
C400 O393 1.247 . S
C400 O394 1.261 . S
C401 O396 1.259 . S
C401 O398 1.235 . S
O402 Co392 2.021 . S
O402 C399 1.238 . S
O403 Co397 2.052 . S
O403 C399 1.241 . S
O404 Co392 2.137 . S
O404 C395 1.247 . S
O405 Co392 2.244 . S
O405 C395 1.272 . S
O405 Co397 2.135 . S
Co406 O407 2.216 . S
Co406 O408 2.091 . S
Co406 O410 2.004 . S
Co406 O416 2.021 . S
Co406 O418 2.137 . S
Co406 O419 2.244 . S
O407 Co406 2.216 . S
O407 C414 1.247 . S
O408 Co406 2.091 . S
O408 C414 1.261 . S
C409 O418 1.247 . S
C409 O419 1.272 . S
O410 Co406 2.004 . S
O410 C415 1.259 . S
Co411 O412 2.061 . S
Co411 O417 2.052 . S
Co411 O419 2.135 . S
O412 Co411 2.061 . S
O412 C415 1.235 . S
C413 O416 1.238 . S
C413 O417 1.241 . S
C414 O407 1.247 . S
C414 O408 1.261 . S
C415 O410 1.259 . S
C415 O412 1.235 . S
O416 Co406 2.021 . S
O416 C413 1.238 . S
O417 Co411 2.052 . S
O417 C413 1.241 . S
O418 Co406 2.137 . S
O418 C409 1.247 . S
O419 Co406 2.244 . S
O419 C409 1.272 . S
O419 Co411 2.135 . S
Co420 O421 2.216 . S
Co420 O422 2.091 . S
Co420 O424 2.004 . S
Co420 O430 2.021 . S
Co420 O432 2.137 . S
Co420 O433 2.244 . S
O421 Co420 2.216 . S
O421 C428 1.247 . S
O422 Co420 2.091 . S
O422 C428 1.261 . S
C423 O432 1.247 . S
C423 O433 1.272 . S
O424 Co420 2.004 . S
O424 C429 1.259 . S
Co425 O426 2.061 . S
Co425 O431 2.052 . S
Co425 O433 2.135 . S
O426 Co425 2.061 . S
O426 C429 1.235 . S
C427 O430 1.238 . S
C427 O431 1.241 . S
C428 O421 1.247 . S
C428 O422 1.261 . S
C429 O424 1.259 . S
C429 O426 1.235 . S
O430 Co420 2.021 . S
O430 C427 1.238 . S
O431 Co425 2.052 . S
O431 C427 1.241 . S
O432 Co420 2.137 . S
O432 C423 1.247 . S
O433 Co420 2.244 . S
O433 C423 1.272 . S
O433 Co425 2.135 . S
Co434 O435 2.216 . S
Co434 O436 2.091 . S
Co434 O438 2.004 . S
Co434 O444 2.021 . S
Co434 O446 2.137 . S
Co434 O447 2.244 . S
O435 Co434 2.216 . S
O435 C442 1.247 . S
O436 Co434 2.091 . S
O436 C442 1.261 . S
C437 O446 1.247 . S
C437 O447 1.272 . S
O438 Co434 2.004 . S
O438 C443 1.259 . S
Co439 O440 2.061 . S
Co439 O445 2.052 . S
Co439 O447 2.135 . S
O440 Co439 2.061 . S
O440 C443 1.235 . S
C441 O444 1.238 . S
C441 O445 1.241 . S
C442 O435 1.247 . S
C442 O436 1.261 . S
C443 O438 1.259 . S
C443 O440 1.235 . S
O444 Co434 2.021 . S
O444 C441 1.238 . S
O445 Co439 2.052 . S
O445 C441 1.241 . S
O446 Co434 2.137 . S
O446 C437 1.247 . S
O447 Co434 2.244 . S
O447 C437 1.272 . S
O447 Co439 2.135 . S
Co448 O449 2.216 . S
Co448 O450 2.091 . S
Co448 O452 2.004 . S
Co448 O458 2.021 . S
Co448 O460 2.137 . S
Co448 O461 2.244 . S
O449 Co448 2.216 . S
O449 C456 1.247 . S
O450 Co448 2.091 . S
O450 C456 1.261 . S
C451 O460 1.247 . S
C451 O461 1.272 . S
O452 Co448 2.004 . S
O452 C457 1.259 . S
Co453 O454 2.061 . S
Co453 O459 2.052 . S
Co453 O461 2.135 . S
O454 Co453 2.061 . S
O454 C457 1.235 . S
C455 O458 1.238 . S
C455 O459 1.241 . S
C456 O449 1.247 . S
C456 O450 1.261 . S
C457 O452 1.259 . S
C457 O454 1.235 . S
O458 Co448 2.021 . S
O458 C455 1.238 . S
O459 Co453 2.052 . S
O459 C455 1.241 . S
O460 Co448 2.137 . S
O460 C451 1.247 . S
O461 Co448 2.244 . S
O461 C451 1.272 . S
O461 Co453 2.135 . S
Co462 O463 2.216 . S
Co462 O464 2.091 . S
Co462 O466 2.004 . S
Co462 O472 2.021 . S
Co462 O474 2.137 . S
Co462 O475 2.244 . S
O463 Co462 2.216 . S
O463 C470 1.247 . S
O464 Co462 2.091 . S
O464 C470 1.261 . S
C465 O474 1.247 . S
C465 O475 1.272 . S
O466 Co462 2.004 . S
O466 C471 1.259 . S
Co467 O468 2.061 . S
Co467 O473 2.052 . S
Co467 O475 2.135 . S
O468 Co467 2.061 . S
O468 C471 1.235 . S
C469 O472 1.238 . S
C469 O473 1.241 . S
C470 O463 1.247 . S
C470 O464 1.261 . S
C471 O466 1.259 . S
C471 O468 1.235 . S
O472 Co462 2.021 . S
O472 C469 1.238 . S
O473 Co467 2.052 . S
O473 C469 1.241 . S
O474 Co462 2.137 . S
O474 C465 1.247 . S
O475 Co462 2.244 . S
O475 C465 1.272 . S
O475 Co467 2.135 . S
Co476 O477 2.216 . S
Co476 O478 2.091 . S
Co476 O480 2.004 . S
Co476 O486 2.021 . S
Co476 O488 2.137 . S
Co476 O489 2.244 . S
O477 Co476 2.216 . S
O477 C484 1.247 . S
O478 Co476 2.091 . S
O478 C484 1.261 . S
C479 O488 1.247 . S
C479 O489 1.272 . S
O480 Co476 2.004 . S
O480 C485 1.259 . S
Co481 O482 2.061 . S
Co481 O487 2.052 . S
Co481 O489 2.135 . S
O482 Co481 2.061 . S
O482 C485 1.235 . S
C483 O486 1.238 . S
C483 O487 1.241 . S
C484 O477 1.247 . S
C484 O478 1.261 . S
C485 O480 1.259 . S
C485 O482 1.235 . S
O486 Co476 2.021 . S
O486 C483 1.238 . S
O487 Co481 2.052 . S
O487 C483 1.241 . S
O488 Co476 2.137 . S
O488 C479 1.247 . S
O489 Co476 2.244 . S
O489 C479 1.272 . S
O489 Co481 2.135 . S
Co490 O491 2.216 . S
Co490 O492 2.091 . S
Co490 O494 2.004 . S
Co490 O500 2.021 . S
Co490 O502 2.137 . S
Co490 O503 2.244 . S
O491 Co490 2.216 . S
O491 C498 1.247 . S
O492 Co490 2.091 . S
O492 C498 1.261 . S
C493 O502 1.247 . S
C493 O503 1.272 . S
O494 Co490 2.004 . S
O494 C499 1.259 . S
Co495 O496 2.061 . S
Co495 O501 2.052 . S
Co495 O503 2.135 . S
O496 Co495 2.061 . S
O496 C499 1.235 . S
C497 O500 1.238 . S
C497 O501 1.241 . S
C498 O491 1.247 . S
C498 O492 1.261 . S
C499 O494 1.259 . S
C499 O496 1.235 . S
O500 Co490 2.021 . S
O500 C497 1.238 . S
O501 Co495 2.052 . S
O501 C497 1.241 . S
O502 Co490 2.137 . S
O502 C493 1.247 . S
O503 Co490 2.244 . S
O503 C493 1.272 . S
O503 Co495 2.135 . S
Co504 O505 2.216 . S
Co504 O506 2.091 . S
Co504 O508 2.004 . S
Co504 O514 2.021 . S
Co504 O516 2.137 . S
Co504 O517 2.244 . S
O505 Co504 2.216 . S
O505 C512 1.247 . S
O506 Co504 2.091 . S
O506 C512 1.261 . S
C507 O516 1.247 . S
C507 O517 1.272 . S
O508 Co504 2.004 . S
O508 C513 1.259 . S
Co509 O510 2.061 . S
Co509 O515 2.052 . S
Co509 O517 2.135 . S
O510 Co509 2.061 . S
O510 C513 1.235 . S
C511 O514 1.238 . S
C511 O515 1.241 . S
C512 O505 1.247 . S
C512 O506 1.261 . S
C513 O508 1.259 . S
C513 O510 1.235 . S
O514 Co504 2.021 . S
O514 C511 1.238 . S
O515 Co509 2.052 . S
O515 C511 1.241 . S
O516 Co504 2.137 . S
O516 C507 1.247 . S
O517 Co504 2.244 . S
O517 C507 1.272 . S
O517 Co509 2.135 . S
Co518 O519 2.216 . S
Co518 O520 2.091 . S
Co518 O522 2.004 . S
Co518 O528 2.021 . S
Co518 O530 2.137 . S
Co518 O531 2.244 . S
O519 Co518 2.216 . S
O519 C526 1.247 . S
O520 Co518 2.091 . S
O520 C526 1.261 . S
C521 O530 1.247 . S
C521 O531 1.272 . S
O522 Co518 2.004 . S
O522 C527 1.259 . S
Co523 O524 2.061 . S
Co523 O529 2.052 . S
Co523 O531 2.135 . S
O524 Co523 2.061 . S
O524 C527 1.235 . S
C525 O528 1.238 . S
C525 O529 1.241 . S
C526 O519 1.247 . S
C526 O520 1.261 . S
C527 O522 1.259 . S
C527 O524 1.235 . S
O528 Co518 2.021 . S
O528 C525 1.238 . S
O529 Co523 2.052 . S
O529 C525 1.241 . S
O530 Co518 2.137 . S
O530 C521 1.247 . S
O531 Co518 2.244 . S
O531 C521 1.272 . S
O531 Co523 2.135 . S
Co532 O533 2.216 . S
Co532 O534 2.091 . S
Co532 O536 2.004 . S
Co532 O542 2.021 . S
Co532 O544 2.137 . S
Co532 O545 2.244 . S
O533 Co532 2.216 . S
O533 C540 1.247 . S
O534 Co532 2.091 . S
O534 C540 1.261 . S
C535 O544 1.247 . S
C535 O545 1.272 . S
O536 Co532 2.004 . S
O536 C541 1.259 . S
Co537 O538 2.061 . S
Co537 O543 2.052 . S
Co537 O545 2.135 . S
O538 Co537 2.061 . S
O538 C541 1.235 . S
C539 O542 1.238 . S
C539 O543 1.241 . S
C540 O533 1.247 . S
C540 O534 1.261 . S
C541 O536 1.259 . S
C541 O538 1.235 . S
O542 Co532 2.021 . S
O542 C539 1.238 . S
O543 Co537 2.052 . S
O543 C539 1.241 . S
O544 Co532 2.137 . S
O544 C535 1.247 . S
O545 Co532 2.244 . S
O545 C535 1.272 . S
O545 Co537 2.135 . S
Co546 O547 2.216 . S
Co546 O548 2.091 . S
Co546 O550 2.004 . S
Co546 O556 2.021 . S
Co546 O558 2.137 . S
Co546 O559 2.244 . S
O547 Co546 2.216 . S
O547 C554 1.247 . S
O548 Co546 2.091 . S
O548 C554 1.261 . S
C549 O558 1.247 . S
C549 O559 1.272 . S
O550 Co546 2.004 . S
O550 C555 1.259 . S
Co551 O552 2.061 . S
Co551 O557 2.052 . S
Co551 O559 2.135 . S
O552 Co551 2.061 . S
O552 C555 1.235 . S
C553 O556 1.238 . S
C553 O557 1.241 . S
C554 O547 1.247 . S
C554 O548 1.261 . S
C555 O550 1.259 . S
C555 O552 1.235 . S
O556 Co546 2.021 . S
O556 C553 1.238 . S
O557 Co551 2.052 . S
O557 C553 1.241 . S
O558 Co546 2.137 . S
O558 C549 1.247 . S
O559 Co546 2.244 . S
O559 C549 1.272 . S
O559 Co551 2.135 . S
Co560 O561 2.216 . S
Co560 O562 2.091 . S
Co560 O564 2.004 . S
Co560 O570 2.021 . S
Co560 O572 2.137 . S
Co560 O573 2.244 . S
O561 Co560 2.216 . S
O561 C568 1.247 . S
O562 Co560 2.091 . S
O562 C568 1.261 . S
C563 O572 1.247 . S
C563 O573 1.272 . S
O564 Co560 2.004 . S
O564 C569 1.259 . S
Co565 O566 2.061 . S
Co565 O571 2.052 . S
Co565 O573 2.135 . S
O566 Co565 2.061 . S
O566 C569 1.235 . S
C567 O570 1.238 . S
C567 O571 1.241 . S
C568 O561 1.247 . S
C568 O562 1.261 . S
C569 O564 1.259 . S
C569 O566 1.235 . S
O570 Co560 2.021 . S
O570 C567 1.238 . S
O571 Co565 2.052 . S
O571 C567 1.241 . S
O572 Co560 2.137 . S
O572 C563 1.247 . S
O573 Co560 2.244 . S
O573 C563 1.272 . S
O573 Co565 2.135 . S
Co574 O575 2.216 . S
Co574 O576 2.091 . S
Co574 O578 2.004 . S
Co574 O584 2.021 . S
Co574 O586 2.137 . S
Co574 O587 2.244 . S
O575 Co574 2.216 . S
O575 C582 1.247 . S
O576 Co574 2.091 . S
O576 C582 1.261 . S
C577 O586 1.247 . S
C577 O587 1.272 . S
O578 Co574 2.004 . S
O578 C583 1.259 . S
Co579 O580 2.061 . S
Co579 O585 2.052 . S
Co579 O587 2.135 . S
O580 Co579 2.061 . S
O580 C583 1.235 . S
C581 O584 1.238 . S
C581 O585 1.241 . S
C582 O575 1.247 . S
C582 O576 1.261 . S
C583 O578 1.259 . S
C583 O580 1.235 . S
O584 Co574 2.021 . S
O584 C581 1.238 . S
O585 Co579 2.052 . S
O585 C581 1.241 . S
O586 Co574 2.137 . S
O586 C577 1.247 . S
O587 Co574 2.244 . S
O587 C577 1.272 . S
O587 Co579 2.135 . S
Co588 O589 2.216 . S
Co588 O590 2.091 . S
Co588 O592 2.004 . S
Co588 O598 2.021 . S
Co588 O600 2.137 . S
Co588 O601 2.244 . S
O589 Co588 2.216 . S
O589 C596 1.247 . S
O590 Co588 2.091 . S
O590 C596 1.261 . S
C591 O600 1.247 . S
C591 O601 1.272 . S
O592 Co588 2.004 . S
O592 C597 1.259 . S
Co593 O594 2.061 . S
Co593 O599 2.052 . S
Co593 O601 2.135 . S
O594 Co593 2.061 . S
O594 C597 1.235 . S
C595 O598 1.238 . S
C595 O599 1.241 . S
C596 O589 1.247 . S
C596 O590 1.261 . S
C597 O592 1.259 . S
C597 O594 1.235 . S
O598 Co588 2.021 . S
O598 C595 1.238 . S
O599 Co593 2.052 . S
O599 C595 1.241 . S
O600 Co588 2.137 . S
O600 C591 1.247 . S
O601 Co588 2.244 . S
O601 C591 1.272 . S
O601 Co593 2.135 . S
Co602 O603 2.216 . S
Co602 O604 2.091 . S
Co602 O606 2.004 . S
Co602 O612 2.021 . S
Co602 O614 2.137 . S
Co602 O615 2.244 . S
O603 Co602 2.216 . S
O603 C610 1.247 . S
O604 Co602 2.091 . S
O604 C610 1.261 . S
C605 O614 1.247 . S
C605 O615 1.272 . S
O606 Co602 2.004 . S
O606 C611 1.259 . S
Co607 O608 2.061 . S
Co607 O613 2.052 . S
Co607 O615 2.135 . S
O608 Co607 2.061 . S
O608 C611 1.235 . S
C609 O612 1.238 . S
C609 O613 1.241 . S
C610 O603 1.247 . S
C610 O604 1.261 . S
C611 O606 1.259 . S
C611 O608 1.235 . S
O612 Co602 2.021 . S
O612 C609 1.238 . S
O613 Co607 2.052 . S
O613 C609 1.241 . S
O614 Co602 2.137 . S
O614 C605 1.247 . S
O615 Co602 2.244 . S
O615 C605 1.272 . S
O615 Co607 2.135 . S
Co616 O617 2.216 . S
Co616 O618 2.091 . S
Co616 O620 2.004 . S
Co616 O626 2.021 . S
Co616 O628 2.137 . S
Co616 O629 2.244 . S
O617 Co616 2.216 . S
O617 C624 1.247 . S
O618 Co616 2.091 . S
O618 C624 1.261 . S
C619 O628 1.247 . S
C619 O629 1.272 . S
O620 Co616 2.004 . S
O620 C625 1.259 . S
Co621 O622 2.061 . S
Co621 O627 2.052 . S
Co621 O629 2.135 . S
O622 Co621 2.061 . S
O622 C625 1.235 . S
C623 O626 1.238 . S
C623 O627 1.241 . S
C624 O617 1.247 . S
C624 O618 1.261 . S
C625 O620 1.259 . S
C625 O622 1.235 . S
O626 Co616 2.021 . S
O626 C623 1.238 . S
O627 Co621 2.052 . S
O627 C623 1.241 . S
O628 Co616 2.137 . S
O628 C619 1.247 . S
O629 Co616 2.244 . S
O629 C619 1.272 . S
O629 Co621 2.135 . S
Co630 O631 2.216 . S
Co630 O632 2.091 . S
Co630 O634 2.004 . S
Co630 O640 2.021 . S
Co630 O642 2.137 . S
Co630 O643 2.244 . S
O631 Co630 2.216 . S
O631 C638 1.247 . S
O632 Co630 2.091 . S
O632 C638 1.261 . S
C633 O642 1.247 . S
C633 O643 1.272 . S
O634 Co630 2.004 . S
O634 C639 1.259 . S
Co635 O636 2.061 . S
Co635 O641 2.052 . S
Co635 O643 2.135 . S
O636 Co635 2.061 . S
O636 C639 1.235 . S
C637 O640 1.238 . S
C637 O641 1.241 . S
C638 O631 1.247 . S
C638 O632 1.261 . S
C639 O634 1.259 . S
C639 O636 1.235 . S
O640 Co630 2.021 . S
O640 C637 1.238 . S
O641 Co635 2.052 . S
O641 C637 1.241 . S
O642 Co630 2.137 . S
O642 C633 1.247 . S
O643 Co630 2.244 . S
O643 C633 1.272 . S
O643 Co635 2.135 . S
Co644 O645 2.216 . S
Co644 O646 2.091 . S
Co644 O648 2.004 . S
Co644 O654 2.021 . S
Co644 O656 2.137 . S
Co644 O657 2.244 . S
O645 Co644 2.216 . S
O645 C652 1.247 . S
O646 Co644 2.091 . S
O646 C652 1.261 . S
C647 O656 1.247 . S
C647 O657 1.272 . S
O648 Co644 2.004 . S
O648 C653 1.259 . S
Co649 O650 2.061 . S
Co649 O655 2.052 . S
Co649 O657 2.135 . S
O650 Co649 2.061 . S
O650 C653 1.235 . S
C651 O654 1.238 . S
C651 O655 1.241 . S
C652 O645 1.247 . S
C652 O646 1.261 . S
C653 O648 1.259 . S
C653 O650 1.235 . S
O654 Co644 2.021 . S
O654 C651 1.238 . S
O655 Co649 2.052 . S
O655 C651 1.241 . S
O656 Co644 2.137 . S
O656 C647 1.247 . S
O657 Co644 2.244 . S
O657 C647 1.272 . S
O657 Co649 2.135 . S
Co658 O659 2.216 . S
Co658 O660 2.091 . S
Co658 O662 2.004 . S
Co658 O668 2.021 . S
Co658 O670 2.137 . S
Co658 O671 2.244 . S
O659 Co658 2.216 . S
O659 C666 1.247 . S
O660 Co658 2.091 . S
O660 C666 1.261 . S
C661 O670 1.247 . S
C661 O671 1.272 . S
O662 Co658 2.004 . S
O662 C667 1.259 . S
Co663 O664 2.061 . S
Co663 O669 2.052 . S
Co663 O671 2.135 . S
O664 Co663 2.061 . S
O664 C667 1.235 . S
C665 O668 1.238 . S
C665 O669 1.241 . S
C666 O659 1.247 . S
C666 O660 1.261 . S
C667 O662 1.259 . S
C667 O664 1.235 . S
O668 Co658 2.021 . S
O668 C665 1.238 . S
O669 Co663 2.052 . S
O669 C665 1.241 . S
O670 Co658 2.137 . S
O670 C661 1.247 . S
O671 Co658 2.244 . S
O671 C661 1.272 . S
O671 Co663 2.135 . S
H672 C680 0.950 . S
H673 C685 0.950 . S
H674 C682 0.950 . S
H675 C684 0.950 . S
H676 C686 0.950 . S
H677 C688 0.950 . S
H678 C690 0.950 . S
H679 C691 0.950 . S
C680 H672 0.950 . S
C680 C681 1.386 . S
C680 C682 1.391 . S
C681 C680 1.386 . S
C681 C685 1.393 . S
C682 H674 0.950 . S
C682 C680 1.391 . S
C682 C683 1.400 . S
C683 C682 1.400 . S
C683 C684 1.398 . S
C683 C689 1.491 . S
C684 H675 0.950 . S
C684 C683 1.398 . S
C684 C685 1.391 . S
C685 H673 0.950 . S
C685 C681 1.393 . S
C685 C684 1.391 . S
C686 H676 0.950 . S
C686 C687 1.386 . S
C686 C688 1.391 . S
C687 C686 1.386 . S
C687 C691 1.393 . S
C688 H677 0.950 . S
C688 C686 1.391 . S
C688 C689 1.400 . S
C689 C683 1.491 . S
C689 C688 1.400 . S
C689 C690 1.398 . S
C690 H678 0.950 . S
C690 C689 1.398 . S
C690 C691 1.391 . S
C691 H679 0.950 . S
C691 C687 1.393 . S
C691 C690 1.391 . S
H692 C700 0.950 . S
H693 C705 0.950 . S
H694 C702 0.950 . S
H695 C704 0.950 . S
H696 C706 0.950 . S
H697 C708 0.950 . S
H698 C710 0.950 . S
H699 C711 0.950 . S
C700 H692 0.950 . S
C700 C701 1.386 . S
C700 C702 1.391 . S
C701 C700 1.386 . S
C701 C705 1.393 . S
C702 H694 0.950 . S
C702 C700 1.391 . S
C702 C703 1.400 . S
C703 C702 1.400 . S
C703 C704 1.398 . S
C703 C709 1.491 . S
C704 H695 0.950 . S
C704 C703 1.398 . S
C704 C705 1.391 . S
C705 H693 0.950 . S
C705 C701 1.393 . S
C705 C704 1.391 . S
C706 H696 0.950 . S
C706 C707 1.386 . S
C706 C708 1.391 . S
C707 C706 1.386 . S
C707 C711 1.393 . S
C708 H697 0.950 . S
C708 C706 1.391 . S
C708 C709 1.400 . S
C709 C703 1.491 . S
C709 C708 1.400 . S
C709 C710 1.398 . S
C710 H698 0.950 . S
C710 C709 1.398 . S
C710 C711 1.391 . S
C711 H699 0.950 . S
C711 C707 1.393 . S
C711 C710 1.391 . S
H712 C720 0.950 . S
H713 C725 0.950 . S
H714 C722 0.950 . S
H715 C724 0.950 . S
H716 C726 0.950 . S
H717 C728 0.950 . S
H718 C730 0.950 . S
H719 C731 0.950 . S
C720 H712 0.950 . S
C720 C721 1.386 . S
C720 C722 1.391 . S
C721 C720 1.386 . S
C721 C725 1.393 . S
C722 H714 0.950 . S
C722 C720 1.391 . S
C722 C723 1.400 . S
C723 C722 1.400 . S
C723 C724 1.398 . S
C723 C729 1.491 . S
C724 H715 0.950 . S
C724 C723 1.398 . S
C724 C725 1.391 . S
C725 H713 0.950 . S
C725 C721 1.393 . S
C725 C724 1.391 . S
C726 H716 0.950 . S
C726 C727 1.386 . S
C726 C728 1.391 . S
C727 C726 1.386 . S
C727 C731 1.393 . S
C728 H717 0.950 . S
C728 C726 1.391 . S
C728 C729 1.400 . S
C729 C723 1.491 . S
C729 C728 1.400 . S
C729 C730 1.398 . S
C730 H718 0.950 . S
C730 C729 1.398 . S
C730 C731 1.391 . S
C731 H719 0.950 . S
C731 C727 1.393 . S
C731 C730 1.391 . S
H732 C740 0.950 . S
H733 C745 0.950 . S
H734 C742 0.950 . S
H735 C744 0.950 . S
H736 C746 0.950 . S
H737 C748 0.950 . S
H738 C750 0.950 . S
H739 C751 0.950 . S
C740 H732 0.950 . S
C740 C741 1.386 . S
C740 C742 1.391 . S
C741 C740 1.386 . S
C741 C745 1.393 . S
C742 H734 0.950 . S
C742 C740 1.391 . S
C742 C743 1.400 . S
C743 C742 1.400 . S
C743 C744 1.398 . S
C743 C749 1.491 . S
C744 H735 0.950 . S
C744 C743 1.398 . S
C744 C745 1.391 . S
C745 H733 0.950 . S
C745 C741 1.393 . S
C745 C744 1.391 . S
C746 H736 0.950 . S
C746 C747 1.386 . S
C746 C748 1.391 . S
C747 C746 1.386 . S
C747 C751 1.393 . S
C748 H737 0.950 . S
C748 C746 1.391 . S
C748 C749 1.400 . S
C749 C743 1.491 . S
C749 C748 1.400 . S
C749 C750 1.398 . S
C750 H738 0.950 . S
C750 C749 1.398 . S
C750 C751 1.391 . S
C751 H739 0.950 . S
C751 C747 1.393 . S
C751 C750 1.391 . S
H752 C760 0.950 . S
H753 C765 0.950 . S
H754 C762 0.950 . S
H755 C764 0.950 . S
H756 C766 0.950 . S
H757 C768 0.950 . S
H758 C770 0.950 . S
H759 C771 0.950 . S
C760 H752 0.950 . S
C760 C761 1.386 . S
C760 C762 1.391 . S
C761 C760 1.386 . S
C761 C765 1.393 . S
C762 H754 0.950 . S
C762 C760 1.391 . S
C762 C763 1.400 . S
C763 C762 1.400 . S
C763 C764 1.398 . S
C763 C769 1.491 . S
C764 H755 0.950 . S
C764 C763 1.398 . S
C764 C765 1.391 . S
C765 H753 0.950 . S
C765 C761 1.393 . S
C765 C764 1.391 . S
C766 H756 0.950 . S
C766 C767 1.386 . S
C766 C768 1.391 . S
C767 C766 1.386 . S
C767 C771 1.393 . S
C768 H757 0.950 . S
C768 C766 1.391 . S
C768 C769 1.400 . S
C769 C763 1.491 . S
C769 C768 1.400 . S
C769 C770 1.398 . S
C770 H758 0.950 . S
C770 C769 1.398 . S
C770 C771 1.391 . S
C771 H759 0.950 . S
C771 C767 1.393 . S
C771 C770 1.391 . S
H772 C780 0.950 . S
H773 C785 0.950 . S
H774 C782 0.950 . S
H775 C784 0.950 . S
H776 C786 0.950 . S
H777 C788 0.950 . S
H778 C790 0.950 . S
H779 C791 0.950 . S
C780 H772 0.950 . S
C780 C781 1.386 . S
C780 C782 1.391 . S
C781 C780 1.386 . S
C781 C785 1.393 . S
C782 H774 0.950 . S
C782 C780 1.391 . S
C782 C783 1.400 . S
C783 C782 1.400 . S
C783 C784 1.398 . S
C783 C789 1.491 . S
C784 H775 0.950 . S
C784 C783 1.398 . S
C784 C785 1.391 . S
C785 H773 0.950 . S
C785 C781 1.393 . S
C785 C784 1.391 . S
C786 H776 0.950 . S
C786 C787 1.386 . S
C786 C788 1.391 . S
C787 C786 1.386 . S
C787 C791 1.393 . S
C788 H777 0.950 . S
C788 C786 1.391 . S
C788 C789 1.400 . S
C789 C783 1.491 . S
C789 C788 1.400 . S
C789 C790 1.398 . S
C790 H778 0.950 . S
C790 C789 1.398 . S
C790 C791 1.391 . S
C791 H779 0.950 . S
C791 C787 1.393 . S
C791 C790 1.391 . S
H792 C800 0.950 . S
H793 C805 0.950 . S
H794 C802 0.950 . S
H795 C804 0.950 . S
H796 C806 0.950 . S
H797 C808 0.950 . S
H798 C810 0.950 . S
H799 C811 0.950 . S
C800 H792 0.950 . S
C800 C801 1.386 . S
C800 C802 1.391 . S
C801 C800 1.386 . S
C801 C805 1.393 . S
C802 H794 0.950 . S
C802 C800 1.391 . S
C802 C803 1.400 . S
C803 C802 1.400 . S
C803 C804 1.398 . S
C803 C809 1.491 . S
C804 H795 0.950 . S
C804 C803 1.398 . S
C804 C805 1.391 . S
C805 H793 0.950 . S
C805 C801 1.393 . S
C805 C804 1.391 . S
C806 H796 0.950 . S
C806 C807 1.386 . S
C806 C808 1.391 . S
C807 C806 1.386 . S
C807 C811 1.393 . S
C808 H797 0.950 . S
C808 C806 1.391 . S
C808 C809 1.400 . S
C809 C803 1.491 . S
C809 C808 1.400 . S
C809 C810 1.398 . S
C810 H798 0.950 . S
C810 C809 1.398 . S
C810 C811 1.391 . S
C811 H799 0.950 . S
C811 C807 1.393 . S
C811 C810 1.391 . S
H812 C820 0.950 . S
H813 C825 0.950 . S
H814 C822 0.950 . S
H815 C824 0.950 . S
H816 C826 0.950 . S
H817 C828 0.950 . S
H818 C830 0.950 . S
H819 C831 0.950 . S
C820 H812 0.950 . S
C820 C821 1.386 . S
C820 C822 1.391 . S
C821 C820 1.386 . S
C821 C825 1.393 . S
C822 H814 0.950 . S
C822 C820 1.391 . S
C822 C823 1.400 . S
C823 C822 1.400 . S
C823 C824 1.398 . S
C823 C829 1.491 . S
C824 H815 0.950 . S
C824 C823 1.398 . S
C824 C825 1.391 . S
C825 H813 0.950 . S
C825 C821 1.393 . S
C825 C824 1.391 . S
C826 H816 0.950 . S
C826 C827 1.386 . S
C826 C828 1.391 . S
C827 C826 1.386 . S
C827 C831 1.393 . S
C828 H817 0.950 . S
C828 C826 1.391 . S
C828 C829 1.400 . S
C829 C823 1.491 . S
C829 C828 1.400 . S
C829 C830 1.398 . S
C830 H818 0.950 . S
C830 C829 1.398 . S
C830 C831 1.391 . S
C831 H819 0.950 . S
C831 C827 1.393 . S
C831 C830 1.391 . S
H832 C840 0.950 . S
H833 C845 0.950 . S
H834 C842 0.950 . S
H835 C844 0.950 . S
H836 C846 0.950 . S
H837 C848 0.950 . S
H838 C850 0.950 . S
H839 C851 0.950 . S
C840 H832 0.950 . S
C840 C841 1.386 . S
C840 C842 1.391 . S
C841 C840 1.386 . S
C841 C845 1.393 . S
C842 H834 0.950 . S
C842 C840 1.391 . S
C842 C843 1.400 . S
C843 C842 1.400 . S
C843 C844 1.398 . S
C843 C849 1.491 . S
C844 H835 0.950 . S
C844 C843 1.398 . S
C844 C845 1.391 . S
C845 H833 0.950 . S
C845 C841 1.393 . S
C845 C844 1.391 . S
C846 H836 0.950 . S
C846 C847 1.386 . S
C846 C848 1.391 . S
C847 C846 1.386 . S
C847 C851 1.393 . S
C848 H837 0.950 . S
C848 C846 1.391 . S
C848 C849 1.400 . S
C849 C843 1.491 . S
C849 C848 1.400 . S
C849 C850 1.398 . S
C850 H838 0.950 . S
C850 C849 1.398 . S
C850 C851 1.391 . S
C851 H839 0.950 . S
C851 C847 1.393 . S
C851 C850 1.391 . S
H852 C860 0.950 . S
H853 C865 0.950 . S
H854 C862 0.950 . S
H855 C864 0.950 . S
H856 C866 0.950 . S
H857 C868 0.950 . S
H858 C870 0.950 . S
H859 C871 0.950 . S
C860 H852 0.950 . S
C860 C861 1.386 . S
C860 C862 1.391 . S
C861 C860 1.386 . S
C861 C865 1.393 . S
C862 H854 0.950 . S
C862 C860 1.391 . S
C862 C863 1.400 . S
C863 C862 1.400 . S
C863 C864 1.398 . S
C863 C869 1.491 . S
C864 H855 0.950 . S
C864 C863 1.398 . S
C864 C865 1.391 . S
C865 H853 0.950 . S
C865 C861 1.393 . S
C865 C864 1.391 . S
C866 H856 0.950 . S
C866 C867 1.386 . S
C866 C868 1.391 . S
C867 C866 1.386 . S
C867 C871 1.393 . S
C868 H857 0.950 . S
C868 C866 1.391 . S
C868 C869 1.400 . S
C869 C863 1.491 . S
C869 C868 1.400 . S
C869 C870 1.398 . S
C870 H858 0.950 . S
C870 C869 1.398 . S
C870 C871 1.391 . S
C871 H859 0.950 . S
C871 C867 1.393 . S
C871 C870 1.391 . S
H872 C880 0.950 . S
H873 C885 0.950 . S
H874 C882 0.950 . S
H875 C884 0.950 . S
H876 C886 0.950 . S
H877 C888 0.950 . S
H878 C890 0.950 . S
H879 C891 0.950 . S
C880 H872 0.950 . S
C880 C881 1.386 . S
C880 C882 1.391 . S
C881 C880 1.386 . S
C881 C885 1.393 . S
C882 H874 0.950 . S
C882 C880 1.391 . S
C882 C883 1.400 . S
C883 C882 1.400 . S
C883 C884 1.398 . S
C883 C889 1.491 . S
C884 H875 0.950 . S
C884 C883 1.398 . S
C884 C885 1.391 . S
C885 H873 0.950 . S
C885 C881 1.393 . S
C885 C884 1.391 . S
C886 H876 0.950 . S
C886 C887 1.386 . S
C886 C888 1.391 . S
C887 C886 1.386 . S
C887 C891 1.393 . S
C888 H877 0.950 . S
C888 C886 1.391 . S
C888 C889 1.400 . S
C889 C883 1.491 . S
C889 C888 1.400 . S
C889 C890 1.398 . S
C890 H878 0.950 . S
C890 C889 1.398 . S
C890 C891 1.391 . S
C891 H879 0.950 . S
C891 C887 1.393 . S
C891 C890 1.391 . S
H892 C900 0.950 . S
H893 C905 0.950 . S
H894 C902 0.950 . S
H895 C904 0.950 . S
H896 C906 0.950 . S
H897 C908 0.950 . S
H898 C910 0.950 . S
H899 C911 0.950 . S
C900 H892 0.950 . S
C900 C901 1.386 . S
C900 C902 1.391 . S
C901 C900 1.386 . S
C901 C905 1.393 . S
C902 H894 0.950 . S
C902 C900 1.391 . S
C902 C903 1.400 . S
C903 C902 1.400 . S
C903 C904 1.398 . S
C903 C909 1.491 . S
C904 H895 0.950 . S
C904 C903 1.398 . S
C904 C905 1.391 . S
C905 H893 0.950 . S
C905 C901 1.393 . S
C905 C904 1.391 . S
C906 H896 0.950 . S
C906 C907 1.386 . S
C906 C908 1.391 . S
C907 C906 1.386 . S
C907 C911 1.393 . S
C908 H897 0.950 . S
C908 C906 1.391 . S
C908 C909 1.400 . S
C909 C903 1.491 . S
C909 C908 1.400 . S
C909 C910 1.398 . S
C910 H898 0.950 . S
C910 C909 1.398 . S
C910 C911 1.391 . S
C911 H899 0.950 . S
C911 C907 1.393 . S
C911 C910 1.391 . S
H912 C920 0.950 . S
H913 C925 0.950 . S
H914 C922 0.950 . S
H915 C924 0.950 . S
H916 C926 0.950 . S
H917 C928 0.950 . S
H918 C930 0.950 . S
H919 C931 0.950 . S
C920 H912 0.950 . S
C920 C921 1.386 . S
C920 C922 1.391 . S
C921 C920 1.386 . S
C921 C925 1.393 . S
C922 H914 0.950 . S
C922 C920 1.391 . S
C922 C923 1.400 . S
C923 C922 1.400 . S
C923 C924 1.398 . S
C923 C929 1.491 . S
C924 H915 0.950 . S
C924 C923 1.398 . S
C924 C925 1.391 . S
C925 H913 0.950 . S
C925 C921 1.393 . S
C925 C924 1.391 . S
C926 H916 0.950 . S
C926 C927 1.386 . S
C926 C928 1.391 . S
C927 C926 1.386 . S
C927 C931 1.393 . S
C928 H917 0.950 . S
C928 C926 1.391 . S
C928 C929 1.400 . S
C929 C923 1.491 . S
C929 C928 1.400 . S
C929 C930 1.398 . S
C930 H918 0.950 . S
C930 C929 1.398 . S
C930 C931 1.391 . S
C931 H919 0.950 . S
C931 C927 1.393 . S
C931 C930 1.391 . S
H932 C940 0.950 . S
H933 C945 0.950 . S
H934 C942 0.950 . S
H935 C944 0.950 . S
H936 C946 0.950 . S
H937 C948 0.950 . S
H938 C950 0.950 . S
H939 C951 0.950 . S
C940 H932 0.950 . S
C940 C941 1.386 . S
C940 C942 1.391 . S
C941 C940 1.386 . S
C941 C945 1.393 . S
C942 H934 0.950 . S
C942 C940 1.391 . S
C942 C943 1.400 . S
C943 C942 1.400 . S
C943 C944 1.398 . S
C943 C949 1.491 . S
C944 H935 0.950 . S
C944 C943 1.398 . S
C944 C945 1.391 . S
C945 H933 0.950 . S
C945 C941 1.393 . S
C945 C944 1.391 . S
C946 H936 0.950 . S
C946 C947 1.386 . S
C946 C948 1.391 . S
C947 C946 1.386 . S
C947 C951 1.393 . S
C948 H937 0.950 . S
C948 C946 1.391 . S
C948 C949 1.400 . S
C949 C943 1.491 . S
C949 C948 1.400 . S
C949 C950 1.398 . S
C950 H938 0.950 . S
C950 C949 1.398 . S
C950 C951 1.391 . S
C951 H939 0.950 . S
C951 C947 1.393 . S
C951 C950 1.391 . S
H952 C960 0.950 . S
H953 C965 0.950 . S
H954 C962 0.950 . S
H955 C964 0.950 . S
H956 C966 0.950 . S
H957 C968 0.950 . S
H958 C970 0.950 . S
H959 C971 0.950 . S
C960 H952 0.950 . S
C960 C961 1.386 . S
C960 C962 1.391 . S
C961 C960 1.386 . S
C961 C965 1.393 . S
C962 H954 0.950 . S
C962 C960 1.391 . S
C962 C963 1.400 . S
C963 C962 1.400 . S
C963 C964 1.398 . S
C963 C969 1.491 . S
C964 H955 0.950 . S
C964 C963 1.398 . S
C964 C965 1.391 . S
C965 H953 0.950 . S
C965 C961 1.393 . S
C965 C964 1.391 . S
C966 H956 0.950 . S
C966 C967 1.386 . S
C966 C968 1.391 . S
C967 C966 1.386 . S
C967 C971 1.393 . S
C968 H957 0.950 . S
C968 C966 1.391 . S
C968 C969 1.400 . S
C969 C963 1.491 . S
C969 C968 1.400 . S
C969 C970 1.398 . S
C970 H958 0.950 . S
C970 C969 1.398 . S
C970 C971 1.391 . S
C971 H959 0.950 . S
C971 C967 1.393 . S
C971 C970 1.391 . S
H972 C980 0.950 . S
H973 C985 0.950 . S
H974 C982 0.950 . S
H975 C984 0.950 . S
H976 C986 0.950 . S
H977 C988 0.950 . S
H978 C990 0.950 . S
H979 C991 0.950 . S
C980 H972 0.950 . S
C980 C981 1.386 . S
C980 C982 1.391 . S
C981 C980 1.386 . S
C981 C985 1.393 . S
C982 H974 0.950 . S
C982 C980 1.391 . S
C982 C983 1.400 . S
C983 C982 1.400 . S
C983 C984 1.398 . S
C983 C989 1.491 . S
C984 H975 0.950 . S
C984 C983 1.398 . S
C984 C985 1.391 . S
C985 H973 0.950 . S
C985 C981 1.393 . S
C985 C984 1.391 . S
C986 H976 0.950 . S
C986 C987 1.386 . S
C986 C988 1.391 . S
C987 C986 1.386 . S
C987 C991 1.393 . S
C988 H977 0.950 . S
C988 C986 1.391 . S
C988 C989 1.400 . S
C989 C983 1.491 . S
C989 C988 1.400 . S
C989 C990 1.398 . S
C990 H978 0.950 . S
C990 C989 1.398 . S
C990 C991 1.391 . S
C991 H979 0.950 . S
C991 C987 1.393 . S
C991 C990 1.391 . S
H992 C1000 0.950 . S
H993 C1005 0.950 . S
H994 C1002 0.950 . S
H995 C1004 0.950 . S
H996 C1006 0.950 . S
H997 C1008 0.950 . S
H998 C1010 0.950 . S
H999 C1011 0.950 . S
C1000 H992 0.950 . S
C1000 C1001 1.386 . S
C1000 C1002 1.391 . S
C1001 C1000 1.386 . S
C1001 C1005 1.393 . S
C1002 H994 0.950 . S
C1002 C1000 1.391 . S
C1002 C1003 1.400 . S
C1003 C1002 1.400 . S
C1003 C1004 1.398 . S
C1003 C1009 1.491 . S
C1004 H995 0.950 . S
C1004 C1003 1.398 . S
C1004 C1005 1.391 . S
C1005 H993 0.950 . S
C1005 C1001 1.393 . S
C1005 C1004 1.391 . S
C1006 H996 0.950 . S
C1006 C1007 1.386 . S
C1006 C1008 1.391 . S
C1007 C1006 1.386 . S
C1007 C1011 1.393 . S
C1008 H997 0.950 . S
C1008 C1006 1.391 . S
C1008 C1009 1.400 . S
C1009 C1003 1.491 . S
C1009 C1008 1.400 . S
C1009 C1010 1.398 . S
C1010 H998 0.950 . S
C1010 C1009 1.398 . S
C1010 C1011 1.391 . S
C1011 H999 0.950 . S
C1011 C1007 1.393 . S
C1011 C1010 1.391 . S
H1012 C1020 0.950 . S
H1013 C1025 0.950 . S
H1014 C1022 0.950 . S
H1015 C1024 0.950 . S
H1016 C1026 0.950 . S
H1017 C1028 0.950 . S
H1018 C1030 0.950 . S
H1019 C1031 0.950 . S
C1020 H1012 0.950 . S
C1020 C1021 1.386 . S
C1020 C1022 1.391 . S
C1021 C1020 1.386 . S
C1021 C1025 1.393 . S
C1022 H1014 0.950 . S
C1022 C1020 1.391 . S
C1022 C1023 1.400 . S
C1023 C1022 1.400 . S
C1023 C1024 1.398 . S
C1023 C1029 1.491 . S
C1024 H1015 0.950 . S
C1024 C1023 1.398 . S
C1024 C1025 1.391 . S
C1025 H1013 0.950 . S
C1025 C1021 1.393 . S
C1025 C1024 1.391 . S
C1026 H1016 0.950 . S
C1026 C1027 1.386 . S
C1026 C1028 1.391 . S
C1027 C1026 1.386 . S
C1027 C1031 1.393 . S
C1028 H1017 0.950 . S
C1028 C1026 1.391 . S
C1028 C1029 1.400 . S
C1029 C1023 1.491 . S
C1029 C1028 1.400 . S
C1029 C1030 1.398 . S
C1030 H1018 0.950 . S
C1030 C1029 1.398 . S
C1030 C1031 1.391 . S
C1031 H1019 0.950 . S
C1031 C1027 1.393 . S
C1031 C1030 1.391 . S
H1032 C1040 0.950 . S
H1033 C1045 0.950 . S
H1034 C1042 0.950 . S
H1035 C1044 0.950 . S
H1036 C1046 0.950 . S
H1037 C1048 0.950 . S
H1038 C1050 0.950 . S
H1039 C1051 0.950 . S
C1040 H1032 0.950 . S
C1040 C1041 1.386 . S
C1040 C1042 1.391 . S
C1041 C1040 1.386 . S
C1041 C1045 1.393 . S
C1042 H1034 0.950 . S
C1042 C1040 1.391 . S
C1042 C1043 1.400 . S
C1043 C1042 1.400 . S
C1043 C1044 1.398 . S
C1043 C1049 1.491 . S
C1044 H1035 0.950 . S
C1044 C1043 1.398 . S
C1044 C1045 1.391 . S
C1045 H1033 0.950 . S
C1045 C1041 1.393 . S
C1045 C1044 1.391 . S
C1046 H1036 0.950 . S
C1046 C1047 1.386 . S
C1046 C1048 1.391 . S
C1047 C1046 1.386 . S
C1047 C1051 1.393 . S
C1048 H1037 0.950 . S
C1048 C1046 1.391 . S
C1048 C1049 1.400 . S
C1049 C1043 1.491 . S
C1049 C1048 1.400 . S
C1049 C1050 1.398 . S
C1050 H1038 0.950 . S
C1050 C1049 1.398 . S
C1050 C1051 1.391 . S
C1051 H1039 0.950 . S
C1051 C1047 1.393 . S
C1051 C1050 1.391 . S
H1052 C1060 0.950 . S
H1053 C1065 0.950 . S
H1054 C1062 0.950 . S
H1055 C1064 0.950 . S
H1056 C1066 0.950 . S
H1057 C1068 0.950 . S
H1058 C1070 0.950 . S
H1059 C1071 0.950 . S
C1060 H1052 0.950 . S
C1060 C1061 1.386 . S
C1060 C1062 1.391 . S
C1061 C1060 1.386 . S
C1061 C1065 1.393 . S
C1062 H1054 0.950 . S
C1062 C1060 1.391 . S
C1062 C1063 1.400 . S
C1063 C1062 1.400 . S
C1063 C1064 1.398 . S
C1063 C1069 1.491 . S
C1064 H1055 0.950 . S
C1064 C1063 1.398 . S
C1064 C1065 1.391 . S
C1065 H1053 0.950 . S
C1065 C1061 1.393 . S
C1065 C1064 1.391 . S
C1066 H1056 0.950 . S
C1066 C1067 1.386 . S
C1066 C1068 1.391 . S
C1067 C1066 1.386 . S
C1067 C1071 1.393 . S
C1068 H1057 0.950 . S
C1068 C1066 1.391 . S
C1068 C1069 1.400 . S
C1069 C1063 1.491 . S
C1069 C1068 1.400 . S
C1069 C1070 1.398 . S
C1070 H1058 0.950 . S
C1070 C1069 1.398 . S
C1070 C1071 1.391 . S
C1071 H1059 0.950 . S
C1071 C1067 1.393 . S
C1071 C1070 1.391 . S
H1072 C1080 0.950 . S
H1073 C1085 0.950 . S
H1074 C1082 0.950 . S
H1075 C1084 0.950 . S
H1076 C1086 0.950 . S
H1077 C1088 0.950 . S
H1078 C1090 0.950 . S
H1079 C1091 0.950 . S
C1080 H1072 0.950 . S
C1080 C1081 1.386 . S
C1080 C1082 1.391 . S
C1081 C1080 1.386 . S
C1081 C1085 1.393 . S
C1082 H1074 0.950 . S
C1082 C1080 1.391 . S
C1082 C1083 1.400 . S
C1083 C1082 1.400 . S
C1083 C1084 1.398 . S
C1083 C1089 1.491 . S
C1084 H1075 0.950 . S
C1084 C1083 1.398 . S
C1084 C1085 1.391 . S
C1085 H1073 0.950 . S
C1085 C1081 1.393 . S
C1085 C1084 1.391 . S
C1086 H1076 0.950 . S
C1086 C1087 1.386 . S
C1086 C1088 1.391 . S
C1087 C1086 1.386 . S
C1087 C1091 1.393 . S
C1088 H1077 0.950 . S
C1088 C1086 1.391 . S
C1088 C1089 1.400 . S
C1089 C1083 1.491 . S
C1089 C1088 1.400 . S
C1089 C1090 1.398 . S
C1090 H1078 0.950 . S
C1090 C1089 1.398 . S
C1090 C1091 1.391 . S
C1091 H1079 0.950 . S
C1091 C1087 1.393 . S
C1091 C1090 1.391 . S
H1092 C1100 0.950 . S
H1093 C1105 0.950 . S
H1094 C1102 0.950 . S
H1095 C1104 0.950 . S
H1096 C1106 0.950 . S
H1097 C1108 0.950 . S
H1098 C1110 0.950 . S
H1099 C1111 0.950 . S
C1100 H1092 0.950 . S
C1100 C1101 1.386 . S
C1100 C1102 1.391 . S
C1101 C1100 1.386 . S
C1101 C1105 1.393 . S
C1102 H1094 0.950 . S
C1102 C1100 1.391 . S
C1102 C1103 1.400 . S
C1103 C1102 1.400 . S
C1103 C1104 1.398 . S
C1103 C1109 1.491 . S
C1104 H1095 0.950 . S
C1104 C1103 1.398 . S
C1104 C1105 1.391 . S
C1105 H1093 0.950 . S
C1105 C1101 1.393 . S
C1105 C1104 1.391 . S
C1106 H1096 0.950 . S
C1106 C1107 1.386 . S
C1106 C1108 1.391 . S
C1107 C1106 1.386 . S
C1107 C1111 1.393 . S
C1108 H1097 0.950 . S
C1108 C1106 1.391 . S
C1108 C1109 1.400 . S
C1109 C1103 1.491 . S
C1109 C1108 1.400 . S
C1109 C1110 1.398 . S
C1110 H1098 0.950 . S
C1110 C1109 1.398 . S
C1110 C1111 1.391 . S
C1111 H1099 0.950 . S
C1111 C1107 1.393 . S
C1111 C1110 1.391 . S
H1112 C1120 0.950 . S
H1113 C1125 0.950 . S
H1114 C1122 0.950 . S
H1115 C1124 0.950 . S
H1116 C1126 0.950 . S
H1117 C1128 0.950 . S
H1118 C1130 0.950 . S
H1119 C1131 0.950 . S
C1120 H1112 0.950 . S
C1120 C1121 1.386 . S
C1120 C1122 1.391 . S
C1121 C1120 1.386 . S
C1121 C1125 1.393 . S
C1122 H1114 0.950 . S
C1122 C1120 1.391 . S
C1122 C1123 1.400 . S
C1123 C1122 1.400 . S
C1123 C1124 1.398 . S
C1123 C1129 1.491 . S
C1124 H1115 0.950 . S
C1124 C1123 1.398 . S
C1124 C1125 1.391 . S
C1125 H1113 0.950 . S
C1125 C1121 1.393 . S
C1125 C1124 1.391 . S
C1126 H1116 0.950 . S
C1126 C1127 1.386 . S
C1126 C1128 1.391 . S
C1127 C1126 1.386 . S
C1127 C1131 1.393 . S
C1128 H1117 0.950 . S
C1128 C1126 1.391 . S
C1128 C1129 1.400 . S
C1129 C1123 1.491 . S
C1129 C1128 1.400 . S
C1129 C1130 1.398 . S
C1130 H1118 0.950 . S
C1130 C1129 1.398 . S
C1130 C1131 1.391 . S
C1131 H1119 0.950 . S
C1131 C1127 1.393 . S
C1131 C1130 1.391 . S
H1132 C1140 0.950 . S
H1133 C1145 0.950 . S
H1134 C1142 0.950 . S
H1135 C1144 0.950 . S
H1136 C1146 0.950 . S
H1137 C1148 0.950 . S
H1138 C1150 0.950 . S
H1139 C1151 0.950 . S
C1140 H1132 0.950 . S
C1140 C1141 1.386 . S
C1140 C1142 1.391 . S
C1141 C1140 1.386 . S
C1141 C1145 1.393 . S
C1142 H1134 0.950 . S
C1142 C1140 1.391 . S
C1142 C1143 1.400 . S
C1143 C1142 1.400 . S
C1143 C1144 1.398 . S
C1143 C1149 1.491 . S
C1144 H1135 0.950 . S
C1144 C1143 1.398 . S
C1144 C1145 1.391 . S
C1145 H1133 0.950 . S
C1145 C1141 1.393 . S
C1145 C1144 1.391 . S
C1146 H1136 0.950 . S
C1146 C1147 1.386 . S
C1146 C1148 1.391 . S
C1147 C1146 1.386 . S
C1147 C1151 1.393 . S
C1148 H1137 0.950 . S
C1148 C1146 1.391 . S
C1148 C1149 1.400 . S
C1149 C1143 1.491 . S
C1149 C1148 1.400 . S
C1149 C1150 1.398 . S
C1150 H1138 0.950 . S
C1150 C1149 1.398 . S
C1150 C1151 1.391 . S
C1151 H1139 0.950 . S
C1151 C1147 1.393 . S
C1151 C1150 1.391 . S
H1152 C1160 0.950 . S
H1153 C1165 0.950 . S
H1154 C1162 0.950 . S
H1155 C1164 0.950 . S
H1156 C1166 0.950 . S
H1157 C1168 0.950 . S
H1158 C1170 0.950 . S
H1159 C1171 0.950 . S
C1160 H1152 0.950 . S
C1160 C1161 1.386 . S
C1160 C1162 1.391 . S
C1161 C1160 1.386 . S
C1161 C1165 1.393 . S
C1162 H1154 0.950 . S
C1162 C1160 1.391 . S
C1162 C1163 1.400 . S
C1163 C1162 1.400 . S
C1163 C1164 1.398 . S
C1163 C1169 1.491 1_655 S
C1164 H1155 0.950 . S
C1164 C1163 1.398 . S
C1164 C1165 1.391 . S
C1165 H1153 0.950 . S
C1165 C1161 1.393 . S
C1165 C1164 1.391 . S
C1166 H1156 0.950 . S
C1166 C1167 1.386 . S
C1166 C1168 1.391 . S
C1167 C1166 1.386 . S
C1167 C1171 1.393 . S
C1168 H1157 0.950 . S
C1168 C1166 1.391 . S
C1168 C1169 1.400 . S
C1169 C1163 1.491 1_455 S
C1169 C1168 1.400 . S
C1169 C1170 1.398 . S
C1170 H1158 0.950 . S
C1170 C1169 1.398 . S
C1170 C1171 1.391 . S
C1171 H1159 0.950 . S
C1171 C1167 1.393 . S
C1171 C1170 1.391 . S
H1172 C1180 0.950 . S
H1173 C1185 0.950 1_545 S
H1174 C1182 0.950 . S
H1175 C1184 0.950 . S
H1176 C1186 0.950 . S
H1177 C1188 0.950 . S
H1178 C1190 0.950 . S
H1179 C1191 0.950 1_565 S
C1180 H1172 0.950 . S
C1180 C1181 1.386 . S
C1180 C1182 1.391 . S
C1181 C1180 1.386 . S
C1181 C1185 1.393 . S
C1182 H1174 0.950 . S
C1182 C1180 1.391 . S
C1182 C1183 1.400 . S
C1183 C1182 1.400 . S
C1183 C1184 1.398 1_565 S
C1183 C1189 1.491 1_565 S
C1184 H1175 0.950 . S
C1184 C1183 1.398 1_545 S
C1184 C1185 1.391 1_545 S
C1185 H1173 0.950 1_565 S
C1185 C1181 1.393 . S
C1185 C1184 1.391 1_565 S
C1186 H1176 0.950 . S
C1186 C1187 1.386 . S
C1186 C1188 1.391 . S
C1187 C1186 1.386 . S
C1187 C1191 1.393 . S
C1188 H1177 0.950 . S
C1188 C1186 1.391 . S
C1188 C1189 1.400 . S
C1189 C1183 1.491 1_545 S
C1189 C1188 1.400 . S
C1189 C1190 1.398 1_545 S
C1190 H1178 0.950 . S
C1190 C1189 1.398 1_565 S
C1190 C1191 1.391 1_565 S
C1191 H1179 0.950 1_545 S
C1191 C1187 1.393 . S
C1191 C1190 1.391 1_545 S
H1192 C1200 0.950 . S
H1193 C1205 0.950 . S
H1194 C1202 0.950 . S
H1195 C1204 0.950 . S
H1196 C1206 0.950 . S
H1197 C1208 0.950 . S
H1198 C1210 0.950 . S
H1199 C1211 0.950 . S
C1200 H1192 0.950 . S
C1200 C1201 1.386 1_455 S
C1200 C1202 1.391 . S
C1201 C1200 1.386 1_655 S
C1201 C1205 1.393 . S
C1202 H1194 0.950 . S
C1202 C1200 1.391 . S
C1202 C1203 1.400 1_455 S
C1203 C1202 1.400 1_655 S
C1203 C1204 1.398 . S
C1203 C1209 1.491 1_655 S
C1204 H1195 0.950 . S
C1204 C1203 1.398 . S
C1204 C1205 1.391 . S
C1205 H1193 0.950 . S
C1205 C1201 1.393 . S
C1205 C1204 1.391 . S
C1206 H1196 0.950 . S
C1206 C1207 1.386 1_655 S
C1206 C1208 1.391 . S
C1207 C1206 1.386 1_455 S
C1207 C1211 1.393 . S
C1208 H1197 0.950 . S
C1208 C1206 1.391 . S
C1208 C1209 1.400 1_655 S
C1209 C1203 1.491 1_455 S
C1209 C1208 1.400 1_455 S
C1209 C1210 1.398 . S
C1210 H1198 0.950 . S
C1210 C1209 1.398 . S
C1210 C1211 1.391 . S
C1211 H1199 0.950 . S
C1211 C1207 1.393 . S
C1211 C1210 1.391 . S
H1212 C1220 0.950 . S
H1213 C1225 0.950 . S
H1214 C1222 0.950 . S
H1215 C1224 0.950 . S
H1216 C1226 0.950 . S
H1217 C1228 0.950 . S
H1218 C1230 0.950 . S
H1219 C1231 0.950 . S
C1220 H1212 0.950 . S
C1220 C1221 1.386 . S
C1220 C1222 1.391 . S
C1221 C1220 1.386 . S
C1221 C1225 1.393 1_545 S
C1222 H1214 0.950 . S
C1222 C1220 1.391 . S
C1222 C1223 1.400 . S
C1223 C1222 1.400 . S
C1223 C1224 1.398 1_545 S
C1223 C1229 1.491 1_545 S
C1224 H1215 0.950 . S
C1224 C1223 1.398 1_565 S
C1224 C1225 1.391 . S
C1225 H1213 0.950 . S
C1225 C1221 1.393 1_565 S
C1225 C1224 1.391 . S
C1226 H1216 0.950 . S
C1226 C1227 1.386 . S
C1226 C1228 1.391 . S
C1227 C1226 1.386 . S
C1227 C1231 1.393 1_565 S
C1228 H1217 0.950 . S
C1228 C1226 1.391 . S
C1228 C1229 1.400 . S
C1229 C1223 1.491 1_565 S
C1229 C1228 1.400 . S
C1229 C1230 1.398 1_565 S
C1230 H1218 0.950 . S
C1230 C1229 1.398 1_545 S
C1230 C1231 1.391 . S
C1231 H1219 0.950 . S
C1231 C1227 1.393 1_545 S
C1231 C1230 1.391 . S
H1232 C1240 0.950 . S
H1233 C1245 0.950 . S
H1234 C1242 0.950 . S
H1235 C1244 0.950 1_655 S
H1236 C1246 0.950 . S
H1237 C1248 0.950 . S
H1238 C1250 0.950 1_455 S
H1239 C1251 0.950 . S
C1240 H1232 0.950 . S
C1240 C1241 1.386 . S
C1240 C1242 1.391 . S
C1241 C1240 1.386 . S
C1241 C1245 1.393 . S
C1242 H1234 0.950 . S
C1242 C1240 1.391 . S
C1242 C1243 1.400 . S
C1243 C1242 1.400 . S
C1243 C1244 1.398 . S
C1243 C1249 1.491 1_455 S
C1244 H1235 0.950 1_455 S
C1244 C1243 1.398 . S
C1244 C1245 1.391 . S
C1245 H1233 0.950 . S
C1245 C1241 1.393 . S
C1245 C1244 1.391 . S
C1246 H1236 0.950 . S
C1246 C1247 1.386 . S
C1246 C1248 1.391 . S
C1247 C1246 1.386 . S
C1247 C1251 1.393 . S
C1248 H1237 0.950 . S
C1248 C1246 1.391 . S
C1248 C1249 1.400 . S
C1249 C1243 1.491 1_655 S
C1249 C1248 1.400 . S
C1249 C1250 1.398 . S
C1250 H1238 0.950 1_655 S
C1250 C1249 1.398 . S
C1250 C1251 1.391 . S
C1251 H1239 0.950 . S
C1251 C1247 1.393 . S
C1251 C1250 1.391 . S
H1252 C1260 0.950 . S
H1253 C1265 0.950 . S
H1254 C1262 0.950 . S
H1255 C1264 0.950 . S
H1256 C1266 0.950 . S
H1257 C1268 0.950 . S
H1258 C1270 0.950 . S
H1259 C1271 0.950 . S
C1260 H1252 0.950 . S
C1260 C1261 1.386 . S
C1260 C1262 1.391 . S
C1261 C1260 1.386 . S
C1261 C1265 1.393 1_565 S
C1262 H1254 0.950 . S
C1262 C1260 1.391 . S
C1262 C1263 1.400 . S
C1263 C1262 1.400 . S
C1263 C1264 1.398 1_565 S
C1263 C1269 1.491 1_565 S
C1264 H1255 0.950 . S
C1264 C1263 1.398 1_545 S
C1264 C1265 1.391 . S
C1265 H1253 0.950 . S
C1265 C1261 1.393 1_545 S
C1265 C1264 1.391 . S
C1266 H1256 0.950 . S
C1266 C1267 1.386 . S
C1266 C1268 1.391 . S
C1267 C1266 1.386 . S
C1267 C1271 1.393 1_545 S
C1268 H1257 0.950 . S
C1268 C1266 1.391 . S
C1268 C1269 1.400 . S
C1269 C1263 1.491 1_545 S
C1269 C1268 1.400 . S
C1269 C1270 1.398 1_545 S
C1270 H1258 0.950 . S
C1270 C1269 1.398 1_565 S
C1270 C1271 1.391 . S
C1271 H1259 0.950 . S
C1271 C1267 1.393 1_565 S
C1271 C1270 1.391 . S
H1272 C1280 0.964 . S
H1273 C1285 0.950 . S
H1274 C1282 0.950 . S
H1275 C1284 0.950 . S
H1276 C1286 0.964 . S
H1277 C1288 0.950 . S
H1278 C1290 0.950 . S
H1279 C1291 0.950 . S
C1280 H1272 0.964 . S
C1280 C1281 1.363 1_655 S
C1280 C1282 1.400 . S
C1281 C1280 1.363 1_455 S
C1281 C1285 1.393 . S
C1282 H1274 0.950 . S
C1282 C1280 1.400 . S
C1282 C1283 1.400 1_655 S
C1283 C1282 1.400 1_455 S
C1283 C1284 1.398 . S
C1283 C1289 1.491 1_455 S
C1284 H1275 0.950 . S
C1284 C1283 1.398 . S
C1284 C1285 1.391 . S
C1285 H1273 0.950 . S
C1285 C1281 1.393 . S
C1285 C1284 1.391 . S
C1286 H1276 0.964 . S
C1286 C1287 1.363 1_455 S
C1286 C1288 1.400 . S
C1287 C1286 1.363 1_655 S
C1287 C1291 1.393 . S
C1288 H1277 0.950 . S
C1288 C1286 1.400 . S
C1288 C1289 1.400 1_455 S
C1289 C1283 1.491 1_655 S
C1289 C1288 1.400 1_655 S
C1289 C1290 1.398 . S
C1290 H1278 0.950 . S
C1290 C1289 1.398 . S
C1290 C1291 1.391 . S
C1291 H1279 0.950 . S
C1291 C1287 1.393 . S
C1291 C1290 1.391 . S
H1292 C1300 0.950 . S
H1293 C1305 0.950 . S
H1294 C1302 0.950 . S
H1295 C1304 0.950 . S
H1296 C1306 0.950 . S
H1297 C1308 0.950 . S
H1298 C1310 0.950 . S
H1299 C1311 0.950 . S
C1300 H1292 0.950 . S
C1300 C1301 1.386 1_565 S
C1300 C1302 1.391 . S
C1301 C1300 1.386 1_545 S
C1301 C1305 1.393 . S
C1302 H1294 0.950 . S
C1302 C1300 1.391 . S
C1302 C1303 1.400 1_565 S
C1303 C1302 1.400 1_545 S
C1303 C1304 1.398 . S
C1303 C1309 1.491 1_545 S
C1304 H1295 0.950 . S
C1304 C1303 1.398 . S
C1304 C1305 1.391 . S
C1305 H1293 0.950 . S
C1305 C1301 1.393 . S
C1305 C1304 1.391 . S
C1306 H1296 0.950 . S
C1306 C1307 1.386 1_545 S
C1306 C1308 1.391 . S
C1307 C1306 1.386 1_565 S
C1307 C1311 1.393 . S
C1308 H1297 0.950 . S
C1308 C1306 1.391 . S
C1308 C1309 1.400 1_545 S
C1309 C1303 1.491 1_565 S
C1309 C1308 1.400 1_565 S
C1309 C1310 1.398 . S
C1310 H1298 0.950 . S
C1310 C1309 1.398 . S
C1310 C1311 1.391 . S
C1311 H1299 0.950 . S
C1311 C1307 1.393 . S
C1311 C1310 1.391 . S
H1312 C1320 0.950 . S
H1313 C1325 0.950 . S
H1314 C1322 0.950 . S
H1315 C1324 0.950 . S
H1316 C1326 0.950 . S
H1317 C1328 0.950 . S
H1318 C1330 0.950 . S
H1319 C1331 0.950 . S
C1320 H1312 0.950 . S
C1320 C1321 1.386 . S
C1320 C1322 1.391 . S
C1321 C1320 1.386 . S
C1321 C1325 1.393 1_556 S
C1322 H1314 0.950 . S
C1322 C1320 1.391 . S
C1322 C1323 1.400 . S
C1323 C1322 1.400 . S
C1323 C1324 1.398 1_556 S
C1323 C1329 1.491 1_556 S
C1324 H1315 0.950 . S
C1324 C1323 1.398 1_554 S
C1324 C1325 1.391 . S
C1325 H1313 0.950 . S
C1325 C1321 1.393 1_554 S
C1325 C1324 1.391 . S
C1326 H1316 0.950 . S
C1326 C1327 1.386 . S
C1326 C1328 1.391 . S
C1327 C1326 1.386 . S
C1327 C1331 1.393 1_554 S
C1328 H1317 0.950 . S
C1328 C1326 1.391 . S
C1328 C1329 1.400 . S
C1329 C1323 1.491 1_554 S
C1329 C1328 1.400 . S
C1329 C1330 1.398 1_554 S
C1330 H1318 0.950 . S
C1330 C1329 1.398 1_556 S
C1330 C1331 1.391 . S
C1331 H1319 0.950 . S
C1331 C1327 1.393 1_556 S
C1331 C1330 1.391 . S
H1332 C1340 0.950 . S
H1333 C1345 0.950 . S
H1334 C1342 0.950 1_556 S
H1335 C1344 0.950 . S
H1336 C1346 0.950 . S
H1337 C1348 0.950 1_554 S
H1338 C1350 0.950 . S
H1339 C1351 0.950 . S
C1340 H1332 0.950 . S
C1340 C1341 1.386 . S
C1340 C1342 1.391 . S
C1341 C1340 1.386 . S
C1341 C1345 1.393 . S
C1342 H1334 0.950 1_554 S
C1342 C1340 1.391 . S
C1342 C1343 1.400 . S
C1343 C1342 1.400 . S
C1343 C1344 1.398 . S
C1343 C1349 1.491 1_554 S
C1344 H1335 0.950 . S
C1344 C1343 1.398 . S
C1344 C1345 1.391 . S
C1345 H1333 0.950 . S
C1345 C1341 1.393 . S
C1345 C1344 1.391 . S
C1346 H1336 0.950 . S
C1346 C1347 1.386 . S
C1346 C1348 1.391 . S
C1347 C1346 1.386 . S
C1347 C1351 1.393 . S
C1348 H1337 0.950 1_556 S
C1348 C1346 1.391 . S
C1348 C1349 1.400 . S
C1349 C1343 1.491 1_556 S
C1349 C1348 1.400 . S
C1349 C1350 1.398 . S
C1350 H1338 0.950 . S
C1350 C1349 1.398 . S
C1350 C1351 1.391 . S
C1351 H1339 0.950 . S
C1351 C1347 1.393 . S
C1351 C1350 1.391 . S
H1352 C1360 0.950 . S
H1353 C1365 0.946 1_556 S
H1354 C1362 0.950 . S
H1355 C1364 0.950 . S
H1356 C1366 0.950 . S
H1357 C1368 0.950 . S
H1358 C1370 0.950 . S
H1359 C1371 0.946 1_554 S
C1360 H1352 0.950 . S
C1360 C1361 1.386 . S
C1360 C1362 1.391 . S
C1361 C1360 1.386 . S
C1361 C1365 1.393 . S
C1362 H1354 0.950 . S
C1362 C1360 1.391 . S
C1362 C1363 1.400 . S
C1363 C1362 1.400 . S
C1363 C1364 1.398 1_554 S
C1363 C1369 1.491 1_554 S
C1364 H1355 0.950 . S
C1364 C1363 1.398 1_556 S
C1364 C1365 1.391 1_556 S
C1365 H1353 0.946 1_554 S
C1365 C1361 1.393 . S
C1365 C1364 1.391 1_554 S
C1366 H1356 0.950 . S
C1366 C1367 1.386 . S
C1366 C1368 1.391 . S
C1367 C1366 1.386 . S
C1367 C1371 1.393 . S
C1368 H1357 0.950 . S
C1368 C1366 1.391 . S
C1368 C1369 1.400 . S
C1369 C1363 1.491 1_556 S
C1369 C1368 1.400 . S
C1369 C1370 1.398 1_556 S
C1370 H1358 0.950 . S
C1370 C1369 1.398 1_554 S
C1370 C1371 1.391 1_554 S
C1371 H1359 0.946 1_556 S
C1371 C1367 1.393 . S
C1371 C1370 1.391 1_556 S
H1372 C1380 0.950 . S
H1373 C1385 0.950 . S
H1374 C1382 0.950 . S
H1375 C1384 0.950 . S
H1376 C1386 0.950 . S
H1377 C1388 0.950 . S
H1378 C1390 0.950 . S
H1379 C1391 0.950 . S
C1380 H1372 0.950 . S
C1380 C1381 1.386 1_554 S
C1380 C1382 1.391 . S
C1381 C1380 1.386 1_556 S
C1381 C1385 1.393 . S
C1382 H1374 0.950 . S
C1382 C1380 1.391 . S
C1382 C1383 1.400 1_554 S
C1383 C1382 1.400 1_556 S
C1383 C1384 1.398 . S
C1383 C1389 1.491 1_556 S
C1384 H1375 0.950 . S
C1384 C1383 1.398 . S
C1384 C1385 1.391 . S
C1385 H1373 0.950 . S
C1385 C1381 1.393 . S
C1385 C1384 1.391 . S
C1386 H1376 0.950 . S
C1386 C1387 1.386 1_556 S
C1386 C1388 1.391 . S
C1387 C1386 1.386 1_554 S
C1387 C1391 1.393 . S
C1388 H1377 0.950 . S
C1388 C1386 1.391 . S
C1388 C1389 1.400 1_556 S
C1389 C1383 1.491 1_554 S
C1389 C1388 1.400 1_554 S
C1389 C1390 1.398 . S
C1390 H1378 0.950 . S
C1390 C1389 1.398 . S
C1390 C1391 1.391 . S
C1391 H1379 0.950 . S
C1391 C1387 1.393 . S
C1391 C1390 1.391 . S
H1392 C1400 0.950 . S
H1393 C1405 0.950 . S
H1394 C1402 0.950 . S
H1395 C1404 0.950 . S
H1396 C1406 0.950 . S
H1397 C1408 0.950 . S
H1398 C1410 0.950 . S
H1399 C1411 0.950 . S
C1400 H1392 0.950 . S
C1400 C1401 1.386 . S
C1400 C1402 1.391 . S
C1401 C1400 1.386 . S
C1401 C1405 1.393 . S
C1402 H1394 0.950 . S
C1402 C1400 1.391 . S
C1402 C1403 1.400 . S
C1403 C1402 1.400 . S
C1403 C1404 1.398 . S
C1403 C1409 1.491 . S
C1404 H1395 0.950 . S
C1404 C1403 1.398 . S
C1404 C1405 1.391 . S
C1405 H1393 0.950 . S
C1405 C1401 1.393 . S
C1405 C1404 1.391 . S
C1406 H1396 0.950 . S
C1406 C1407 1.386 . S
C1406 C1408 1.391 . S
C1407 C1406 1.386 . S
C1407 C1411 1.393 . S
C1408 H1397 0.950 . S
C1408 C1406 1.391 . S
C1408 C1409 1.400 . S
C1409 C1403 1.491 . S
C1409 C1408 1.400 . S
C1409 C1410 1.398 . S
C1410 H1398 0.950 . S
C1410 C1409 1.398 . S
C1410 C1411 1.391 . S
C1411 H1399 0.950 . S
C1411 C1407 1.393 . S
C1411 C1410 1.391 . S
H1412 C1420 0.950 . S
H1413 C1425 0.950 . S
H1414 C1422 0.950 . S
H1415 C1424 0.950 . S
H1416 C1426 0.950 . S
H1417 C1428 0.950 . S
H1418 C1430 0.950 . S
H1419 C1431 0.950 . S
C1420 H1412 0.950 . S
C1420 C1421 1.386 . S
C1420 C1422 1.391 . S
C1421 C1420 1.386 . S
C1421 C1425 1.393 . S
C1422 H1414 0.950 . S
C1422 C1420 1.391 . S
C1422 C1423 1.400 . S
C1423 C1422 1.400 . S
C1423 C1424 1.398 . S
C1423 C1429 1.491 . S
C1424 H1415 0.950 . S
C1424 C1423 1.398 . S
C1424 C1425 1.391 . S
C1425 H1413 0.950 . S
C1425 C1421 1.393 . S
C1425 C1424 1.391 . S
C1426 H1416 0.950 . S
C1426 C1427 1.386 . S
C1426 C1428 1.391 . S
C1427 C1426 1.386 . S
C1427 C1431 1.393 . S
C1428 H1417 0.950 . S
C1428 C1426 1.391 . S
C1428 C1429 1.400 . S
C1429 C1423 1.491 . S
C1429 C1428 1.400 . S
C1429 C1430 1.398 . S
C1430 H1418 0.950 . S
C1430 C1429 1.398 . S
C1430 C1431 1.391 . S
C1431 H1419 0.950 . S
C1431 C1427 1.393 . S
C1431 C1430 1.391 . S
H1432 C1440 0.950 . S
H1433 C1445 0.950 . S
H1434 C1442 0.950 . S
H1435 C1444 0.950 . S
H1436 C1446 0.950 . S
H1437 C1448 0.950 . S
H1438 C1450 0.950 . S
H1439 C1451 0.950 . S
C1440 H1432 0.950 . S
C1440 C1441 1.386 . S
C1440 C1442 1.391 . S
C1441 C1440 1.386 . S
C1441 C1445 1.393 . S
C1442 H1434 0.950 . S
C1442 C1440 1.391 . S
C1442 C1443 1.400 . S
C1443 C1442 1.400 . S
C1443 C1444 1.398 . S
C1443 C1449 1.491 . S
C1444 H1435 0.950 . S
C1444 C1443 1.398 . S
C1444 C1445 1.391 . S
C1445 H1433 0.950 . S
C1445 C1441 1.393 . S
C1445 C1444 1.391 . S
C1446 H1436 0.950 . S
C1446 C1447 1.386 . S
C1446 C1448 1.391 . S
C1447 C1446 1.386 . S
C1447 C1451 1.393 . S
C1448 H1437 0.950 . S
C1448 C1446 1.391 . S
C1448 C1449 1.400 . S
C1449 C1443 1.491 . S
C1449 C1448 1.400 . S
C1449 C1450 1.398 . S
C1450 H1438 0.950 . S
C1450 C1449 1.398 . S
C1450 C1451 1.391 . S
C1451 H1439 0.950 . S
C1451 C1447 1.393 . S
C1451 C1450 1.391 . S
H1452 C1460 0.950 . S
H1453 C1465 0.950 . S
H1454 C1462 0.950 . S
H1455 C1464 0.950 . S
H1456 C1466 0.950 . S
H1457 C1468 0.950 . S
H1458 C1470 0.950 . S
H1459 C1471 0.950 . S
C1460 H1452 0.950 . S
C1460 C1461 1.386 . S
C1460 C1462 1.391 . S
C1461 C1460 1.386 . S
C1461 C1465 1.393 . S
C1462 H1454 0.950 . S
C1462 C1460 1.391 . S
C1462 C1463 1.400 . S
C1463 C1462 1.400 . S
C1463 C1464 1.398 . S
C1463 C1469 1.491 . S
C1464 H1455 0.950 . S
C1464 C1463 1.398 . S
C1464 C1465 1.391 . S
C1465 H1453 0.950 . S
C1465 C1461 1.393 . S
C1465 C1464 1.391 . S
C1466 H1456 0.950 . S
C1466 C1467 1.386 . S
C1466 C1468 1.391 . S
C1467 C1466 1.386 . S
C1467 C1471 1.393 . S
C1468 H1457 0.950 . S
C1468 C1466 1.391 . S
C1468 C1469 1.400 . S
C1469 C1463 1.491 . S
C1469 C1468 1.400 . S
C1469 C1470 1.398 . S
C1470 H1458 0.950 . S
C1470 C1469 1.398 . S
C1470 C1471 1.391 . S
C1471 H1459 0.950 . S
C1471 C1467 1.393 . S
C1471 C1470 1.391 . S
H1472 C1480 0.950 . S
H1473 C1485 0.950 . S
H1474 C1482 0.950 . S
H1475 C1484 0.950 . S
H1476 C1486 0.950 . S
H1477 C1488 0.950 . S
H1478 C1490 0.950 . S
H1479 C1491 0.950 . S
C1480 H1472 0.950 . S
C1480 C1481 1.386 . S
C1480 C1482 1.391 . S
C1481 C1480 1.386 . S
C1481 C1485 1.393 . S
C1482 H1474 0.950 . S
C1482 C1480 1.391 . S
C1482 C1483 1.400 . S
C1483 C1482 1.400 . S
C1483 C1484 1.398 . S
C1483 C1489 1.491 . S
C1484 H1475 0.950 . S
C1484 C1483 1.398 . S
C1484 C1485 1.391 . S
C1485 H1473 0.950 . S
C1485 C1481 1.393 . S
C1485 C1484 1.391 . S
C1486 H1476 0.950 . S
C1486 C1487 1.386 . S
C1486 C1488 1.391 . S
C1487 C1486 1.386 . S
C1487 C1491 1.393 . S
C1488 H1477 0.950 . S
C1488 C1486 1.391 . S
C1488 C1489 1.400 . S
C1489 C1483 1.491 . S
C1489 C1488 1.400 . S
C1489 C1490 1.398 . S
C1490 H1478 0.950 . S
C1490 C1489 1.398 . S
C1490 C1491 1.391 . S
C1491 H1479 0.950 . S
C1491 C1487 1.393 . S
C1491 C1490 1.391 . S
H1492 C1500 0.950 . S
H1493 C1505 0.950 . S
H1494 C1502 0.950 . S
H1495 C1504 0.950 . S
H1496 C1506 0.950 . S
H1497 C1508 0.950 . S
H1498 C1510 0.950 . S
H1499 C1511 0.950 . S
C1500 H1492 0.950 . S
C1500 C1501 1.386 . S
C1500 C1502 1.391 . S
C1501 C1500 1.386 . S
C1501 C1505 1.393 . S
C1502 H1494 0.950 . S
C1502 C1500 1.391 . S
C1502 C1503 1.400 . S
C1503 C1502 1.400 . S
C1503 C1504 1.398 . S
C1503 C1509 1.491 . S
C1504 H1495 0.950 . S
C1504 C1503 1.398 . S
C1504 C1505 1.391 . S
C1505 H1493 0.950 . S
C1505 C1501 1.393 . S
C1505 C1504 1.391 . S
C1506 H1496 0.950 . S
C1506 C1507 1.386 . S
C1506 C1508 1.391 . S
C1507 C1506 1.386 . S
C1507 C1511 1.393 . S
C1508 H1497 0.950 . S
C1508 C1506 1.391 . S
C1508 C1509 1.400 . S
C1509 C1503 1.491 . S
C1509 C1508 1.400 . S
C1509 C1510 1.398 . S
C1510 H1498 0.950 . S
C1510 C1509 1.398 . S
C1510 C1511 1.391 . S
C1511 H1499 0.950 . S
C1511 C1507 1.393 . S
C1511 C1510 1.391 . S
H1512 C1520 0.950 . S
H1513 C1525 0.950 . S
H1514 C1522 0.950 . S
H1515 C1524 0.950 . S
H1516 C1526 0.950 . S
H1517 C1528 0.950 . S
H1518 C1530 0.950 . S
H1519 C1531 0.950 . S
C1520 H1512 0.950 . S
C1520 C1521 1.386 . S
C1520 C1522 1.391 . S
C1521 C1520 1.386 . S
C1521 C1525 1.393 . S
C1522 H1514 0.950 . S
C1522 C1520 1.391 . S
C1522 C1523 1.400 . S
C1523 C1522 1.400 . S
C1523 C1524 1.398 . S
C1523 C1529 1.491 . S
C1524 H1515 0.950 . S
C1524 C1523 1.398 . S
C1524 C1525 1.391 . S
C1525 H1513 0.950 . S
C1525 C1521 1.393 . S
C1525 C1524 1.391 . S
C1526 H1516 0.950 . S
C1526 C1527 1.386 . S
C1526 C1528 1.391 . S
C1527 C1526 1.386 . S
C1527 C1531 1.393 . S
C1528 H1517 0.950 . S
C1528 C1526 1.391 . S
C1528 C1529 1.400 . S
C1529 C1523 1.491 . S
C1529 C1528 1.400 . S
C1529 C1530 1.398 . S
C1530 H1518 0.950 . S
C1530 C1529 1.398 . S
C1530 C1531 1.391 . S
C1531 H1519 0.950 . S
C1531 C1527 1.393 . S
C1531 C1530 1.391 . S
H1532 C1540 0.950 . S
H1533 C1545 0.950 . S
H1534 C1542 0.950 . S
H1535 C1544 0.950 . S
H1536 C1546 0.950 . S
H1537 C1548 0.950 . S
H1538 C1550 0.950 . S
H1539 C1551 0.950 . S
C1540 H1532 0.950 . S
C1540 C1541 1.386 . S
C1540 C1542 1.391 . S
C1541 C1540 1.386 . S
C1541 C1545 1.393 . S
C1542 H1534 0.950 . S
C1542 C1540 1.391 . S
C1542 C1543 1.400 . S
C1543 C1542 1.400 . S
C1543 C1544 1.398 . S
C1543 C1549 1.491 . S
C1544 H1535 0.950 . S
C1544 C1543 1.398 . S
C1544 C1545 1.391 . S
C1545 H1533 0.950 . S
C1545 C1541 1.393 . S
C1545 C1544 1.391 . S
C1546 H1536 0.950 . S
C1546 C1547 1.386 . S
C1546 C1548 1.391 . S
C1547 C1546 1.386 . S
C1547 C1551 1.393 . S
C1548 H1537 0.950 . S
C1548 C1546 1.391 . S
C1548 C1549 1.400 . S
C1549 C1543 1.491 . S
C1549 C1548 1.400 . S
C1549 C1550 1.398 . S
C1550 H1538 0.950 . S
C1550 C1549 1.398 . S
C1550 C1551 1.391 . S
C1551 H1539 0.950 . S
C1551 C1547 1.393 . S
C1551 C1550 1.391 . S
H1552 C1560 0.950 . S
H1553 C1565 0.950 . S
H1554 C1562 0.950 . S
H1555 C1564 0.950 . S
H1556 C1566 0.950 . S
H1557 C1568 0.950 . S
H1558 C1570 0.950 . S
H1559 C1571 0.950 . S
C1560 H1552 0.950 . S
C1560 C1561 1.386 . S
C1560 C1562 1.391 . S
C1561 C1560 1.386 . S
C1561 C1565 1.393 . S
C1562 H1554 0.950 . S
C1562 C1560 1.391 . S
C1562 C1563 1.400 . S
C1563 C1562 1.400 . S
C1563 C1564 1.398 . S
C1563 C1569 1.491 . S
C1564 H1555 0.950 . S
C1564 C1563 1.398 . S
C1564 C1565 1.391 . S
C1565 H1553 0.950 . S
C1565 C1561 1.393 . S
C1565 C1564 1.391 . S
C1566 H1556 0.950 . S
C1566 C1567 1.386 . S
C1566 C1568 1.391 . S
C1567 C1566 1.386 . S
C1567 C1571 1.393 . S
C1568 H1557 0.950 . S
C1568 C1566 1.391 . S
C1568 C1569 1.400 . S
C1569 C1563 1.491 . S
C1569 C1568 1.400 . S
C1569 C1570 1.398 . S
C1570 H1558 0.950 . S
C1570 C1569 1.398 . S
C1570 C1571 1.391 . S
C1571 H1559 0.950 . S
C1571 C1567 1.393 . S
C1571 C1570 1.391 . S
H1572 C1580 0.950 . S
H1573 C1585 0.950 . S
H1574 C1582 0.950 . S
H1575 C1584 0.950 . S
H1576 C1586 0.950 . S
H1577 C1588 0.950 . S
H1578 C1590 0.950 . S
H1579 C1591 0.950 . S
C1580 H1572 0.950 . S
C1580 C1581 1.386 . S
C1580 C1582 1.391 . S
C1581 C1580 1.386 . S
C1581 C1585 1.393 . S
C1582 H1574 0.950 . S
C1582 C1580 1.391 . S
C1582 C1583 1.400 . S
C1583 C1582 1.400 . S
C1583 C1584 1.398 . S
C1583 C1589 1.491 . S
C1584 H1575 0.950 . S
C1584 C1583 1.398 . S
C1584 C1585 1.391 . S
C1585 H1573 0.950 . S
C1585 C1581 1.393 . S
C1585 C1584 1.391 . S
C1586 H1576 0.950 . S
C1586 C1587 1.386 . S
C1586 C1588 1.391 . S
C1587 C1586 1.386 . S
C1587 C1591 1.393 . S
C1588 H1577 0.950 . S
C1588 C1586 1.391 . S
C1588 C1589 1.400 . S
C1589 C1583 1.491 . S
C1589 C1588 1.400 . S
C1589 C1590 1.398 . S
C1590 H1578 0.950 . S
C1590 C1589 1.398 . S
C1590 C1591 1.391 . S
C1591 H1579 0.950 . S
C1591 C1587 1.393 . S
C1591 C1590 1.391 . S
H1592 C1600 0.950 . S
H1593 C1605 0.950 . S
H1594 C1602 0.950 . S
H1595 C1604 0.950 . S
H1596 C1606 0.950 . S
H1597 C1608 0.950 . S
H1598 C1610 0.950 . S
H1599 C1611 0.950 . S
C1600 H1592 0.950 . S
C1600 C1601 1.386 . S
C1600 C1602 1.391 . S
C1601 C1600 1.386 . S
C1601 C1605 1.393 . S
C1602 H1594 0.950 . S
C1602 C1600 1.391 . S
C1602 C1603 1.400 . S
C1603 C1602 1.400 . S
C1603 C1604 1.398 . S
C1603 C1609 1.491 . S
C1604 H1595 0.950 . S
C1604 C1603 1.398 . S
C1604 C1605 1.391 . S
C1605 H1593 0.950 . S
C1605 C1601 1.393 . S
C1605 C1604 1.391 . S
C1606 H1596 0.950 . S
C1606 C1607 1.386 . S
C1606 C1608 1.391 . S
C1607 C1606 1.386 . S
C1607 C1611 1.393 . S
C1608 H1597 0.950 . S
C1608 C1606 1.391 . S
C1608 C1609 1.400 . S
C1609 C1603 1.491 . S
C1609 C1608 1.400 . S
C1609 C1610 1.398 . S
C1610 H1598 0.950 . S
C1610 C1609 1.398 . S
C1610 C1611 1.391 . S
C1611 H1599 0.950 . S
C1611 C1607 1.393 . S
C1611 C1610 1.391 . S
H1612 C1620 0.950 . S
H1613 C1625 0.950 . S
H1614 C1622 0.950 . S
H1615 C1624 0.950 . S
H1616 C1626 0.950 . S
H1617 C1628 0.950 . S
H1618 C1630 0.950 . S
H1619 C1631 0.950 . S
C1620 H1612 0.950 . S
C1620 C1621 1.386 . S
C1620 C1622 1.391 . S
C1621 C1620 1.386 . S
C1621 C1625 1.393 . S
C1622 H1614 0.950 . S
C1622 C1620 1.391 . S
C1622 C1623 1.400 . S
C1623 C1622 1.400 . S
C1623 C1624 1.398 . S
C1623 C1629 1.491 . S
C1624 H1615 0.950 . S
C1624 C1623 1.398 . S
C1624 C1625 1.391 . S
C1625 H1613 0.950 . S
C1625 C1621 1.393 . S
C1625 C1624 1.391 . S
C1626 H1616 0.950 . S
C1626 C1627 1.386 . S
C1626 C1628 1.391 . S
C1627 C1626 1.386 . S
C1627 C1631 1.393 . S
C1628 H1617 0.950 . S
C1628 C1626 1.391 . S
C1628 C1629 1.400 . S
C1629 C1623 1.491 . S
C1629 C1628 1.400 . S
C1629 C1630 1.398 . S
C1630 H1618 0.950 . S
C1630 C1629 1.398 . S
C1630 C1631 1.391 . S
C1631 H1619 0.950 . S
C1631 C1627 1.393 . S
C1631 C1630 1.391 . S
H1632 C1640 0.950 . S
H1633 C1645 0.950 . S
H1634 C1642 0.950 . S
H1635 C1644 0.950 . S
H1636 C1646 0.950 . S
H1637 C1648 0.950 . S
H1638 C1650 0.950 . S
H1639 C1651 0.950 . S
C1640 H1632 0.950 . S
C1640 C1641 1.386 . S
C1640 C1642 1.391 . S
C1641 C1640 1.386 . S
C1641 C1645 1.393 . S
C1642 H1634 0.950 . S
C1642 C1640 1.391 . S
C1642 C1643 1.400 . S
C1643 C1642 1.400 . S
C1643 C1644 1.398 . S
C1643 C1649 1.491 . S
C1644 H1635 0.950 . S
C1644 C1643 1.398 . S
C1644 C1645 1.391 . S
C1645 H1633 0.950 . S
C1645 C1641 1.393 . S
C1645 C1644 1.391 . S
C1646 H1636 0.950 . S
C1646 C1647 1.386 . S
C1646 C1648 1.391 . S
C1647 C1646 1.386 . S
C1647 C1651 1.393 . S
C1648 H1637 0.950 . S
C1648 C1646 1.391 . S
C1648 C1649 1.400 . S
C1649 C1643 1.491 . S
C1649 C1648 1.400 . S
C1649 C1650 1.398 . S
C1650 H1638 0.950 . S
C1650 C1649 1.398 . S
C1650 C1651 1.391 . S
C1651 H1639 0.950 . S
C1651 C1647 1.393 . S
C1651 C1650 1.391 . S
H1652 C1660 0.950 . S
H1653 C1665 0.950 . S
H1654 C1662 0.950 . S
H1655 C1664 0.950 . S
H1656 C1666 0.950 . S
H1657 C1668 0.950 . S
H1658 C1670 0.950 . S
H1659 C1671 0.950 . S
C1660 H1652 0.950 . S
C1660 C1661 1.386 . S
C1660 C1662 1.391 . S
C1661 C1660 1.386 . S
C1661 C1665 1.393 . S
C1662 H1654 0.950 . S
C1662 C1660 1.391 . S
C1662 C1663 1.400 . S
C1663 C1662 1.400 . S
C1663 C1664 1.398 . S
C1663 C1669 1.491 . S
C1664 H1655 0.950 . S
C1664 C1663 1.398 . S
C1664 C1665 1.391 . S
C1665 H1653 0.950 . S
C1665 C1661 1.393 . S
C1665 C1664 1.391 . S
C1666 H1656 0.950 . S
C1666 C1667 1.386 . S
C1666 C1668 1.391 . S
C1667 C1666 1.386 . S
C1667 C1671 1.393 . S
C1668 H1657 0.950 . S
C1668 C1666 1.391 . S
C1668 C1669 1.400 . S
C1669 C1663 1.491 . S
C1669 C1668 1.400 . S
C1669 C1670 1.398 . S
C1670 H1658 0.950 . S
C1670 C1669 1.398 . S
C1670 C1671 1.391 . S
C1671 H1659 0.950 . S
C1671 C1667 1.393 . S
C1671 C1670 1.391 . S
H1672 C1680 0.950 . S
H1673 C1685 0.950 . S
H1674 C1682 0.950 . S
H1675 C1684 0.950 . S
H1676 C1686 0.950 . S
H1677 C1688 0.950 . S
H1678 C1690 0.950 . S
H1679 C1691 0.950 . S
C1680 H1672 0.950 . S
C1680 C1681 1.386 . S
C1680 C1682 1.391 . S
C1681 C1680 1.386 . S
C1681 C1685 1.393 . S
C1682 H1674 0.950 . S
C1682 C1680 1.391 . S
C1682 C1683 1.400 . S
C1683 C1682 1.400 . S
C1683 C1684 1.398 . S
C1683 C1689 1.491 . S
C1684 H1675 0.950 . S
C1684 C1683 1.398 . S
C1684 C1685 1.391 . S
C1685 H1673 0.950 . S
C1685 C1681 1.393 . S
C1685 C1684 1.391 . S
C1686 H1676 0.950 . S
C1686 C1687 1.386 . S
C1686 C1688 1.391 . S
C1687 C1686 1.386 . S
C1687 C1691 1.393 . S
C1688 H1677 0.950 . S
C1688 C1686 1.391 . S
C1688 C1689 1.400 . S
C1689 C1683 1.491 . S
C1689 C1688 1.400 . S
C1689 C1690 1.398 . S
C1690 H1678 0.950 . S
C1690 C1689 1.398 . S
C1690 C1691 1.391 . S
C1691 H1679 0.950 . S
C1691 C1687 1.393 . S
C1691 C1690 1.391 . S
H1692 C1700 0.950 . S
H1693 C1705 0.950 . S
H1694 C1702 0.950 . S
H1695 C1704 0.950 . S
H1696 C1706 0.950 . S
H1697 C1708 0.950 . S
H1698 C1710 0.950 . S
H1699 C1711 0.950 . S
C1700 H1692 0.950 . S
C1700 C1701 1.386 . S
C1700 C1702 1.391 . S
C1701 C1700 1.386 . S
C1701 C1705 1.393 . S
C1702 H1694 0.950 . S
C1702 C1700 1.391 . S
C1702 C1703 1.400 . S
C1703 C1702 1.400 . S
C1703 C1704 1.398 . S
C1703 C1709 1.491 . S
C1704 H1695 0.950 . S
C1704 C1703 1.398 . S
C1704 C1705 1.391 . S
C1705 H1693 0.950 . S
C1705 C1701 1.393 . S
C1705 C1704 1.391 . S
C1706 H1696 0.950 . S
C1706 C1707 1.386 . S
C1706 C1708 1.391 . S
C1707 C1706 1.386 . S
C1707 C1711 1.393 . S
C1708 H1697 0.950 . S
C1708 C1706 1.391 . S
C1708 C1709 1.400 . S
C1709 C1703 1.491 . S
C1709 C1708 1.400 . S
C1709 C1710 1.398 . S
C1710 H1698 0.950 . S
C1710 C1709 1.398 . S
C1710 C1711 1.391 . S
C1711 H1699 0.950 . S
C1711 C1707 1.393 . S
C1711 C1710 1.391 . S
H1712 C1720 0.950 . S
H1713 C1725 0.950 . S
H1714 C1722 0.950 . S
H1715 C1724 0.950 . S
H1716 C1726 0.950 . S
H1717 C1728 0.950 . S
H1718 C1730 0.950 . S
H1719 C1731 0.950 . S
C1720 H1712 0.950 . S
C1720 C1721 1.386 . S
C1720 C1722 1.391 . S
C1721 C1720 1.386 . S
C1721 C1725 1.393 . S
C1722 H1714 0.950 . S
C1722 C1720 1.391 . S
C1722 C1723 1.400 . S
C1723 C1722 1.400 . S
C1723 C1724 1.398 . S
C1723 C1729 1.491 . S
C1724 H1715 0.950 . S
C1724 C1723 1.398 . S
C1724 C1725 1.391 . S
C1725 H1713 0.950 . S
C1725 C1721 1.393 . S
C1725 C1724 1.391 . S
C1726 H1716 0.950 . S
C1726 C1727 1.386 . S
C1726 C1728 1.391 . S
C1727 C1726 1.386 . S
C1727 C1731 1.393 . S
C1728 H1717 0.950 . S
C1728 C1726 1.391 . S
C1728 C1729 1.400 . S
C1729 C1723 1.491 . S
C1729 C1728 1.400 . S
C1729 C1730 1.398 . S
C1730 H1718 0.950 . S
C1730 C1729 1.398 . S
C1730 C1731 1.391 . S
C1731 H1719 0.950 . S
C1731 C1727 1.393 . S
C1731 C1730 1.391 . S
H1732 C1740 0.950 . S
H1733 C1745 0.950 . S
H1734 C1742 0.950 . S
H1735 C1744 0.950 . S
H1736 C1746 0.950 . S
H1737 C1748 0.950 . S
H1738 C1750 0.950 . S
H1739 C1751 0.950 . S
C1740 H1732 0.950 . S
C1740 C1741 1.386 . S
C1740 C1742 1.391 . S
C1741 C1740 1.386 . S
C1741 C1745 1.393 . S
C1742 H1734 0.950 . S
C1742 C1740 1.391 . S
C1742 C1743 1.400 . S
C1743 C1742 1.400 . S
C1743 C1744 1.398 . S
C1743 C1749 1.491 . S
C1744 H1735 0.950 . S
C1744 C1743 1.398 . S
C1744 C1745 1.391 . S
C1745 H1733 0.950 . S
C1745 C1741 1.393 . S
C1745 C1744 1.391 . S
C1746 H1736 0.950 . S
C1746 C1747 1.386 . S
C1746 C1748 1.391 . S
C1747 C1746 1.386 . S
C1747 C1751 1.393 . S
C1748 H1737 0.950 . S
C1748 C1746 1.391 . S
C1748 C1749 1.400 . S
C1749 C1743 1.491 . S
C1749 C1748 1.400 . S
C1749 C1750 1.398 . S
C1750 H1738 0.950 . S
C1750 C1749 1.398 . S
C1750 C1751 1.391 . S
C1751 H1739 0.950 . S
C1751 C1747 1.393 . S
C1751 C1750 1.391 . S
H1752 C1760 0.950 . S
H1753 C1765 0.950 . S
H1754 C1762 0.950 . S
H1755 C1764 0.950 . S
H1756 C1766 0.950 . S
H1757 C1768 0.950 . S
H1758 C1770 0.950 . S
H1759 C1771 0.950 . S
C1760 H1752 0.950 . S
C1760 C1761 1.386 . S
C1760 C1762 1.391 . S
C1761 C1760 1.386 . S
C1761 C1765 1.393 . S
C1762 H1754 0.950 . S
C1762 C1760 1.391 . S
C1762 C1763 1.400 . S
C1763 C1762 1.400 . S
C1763 C1764 1.398 . S
C1763 C1769 1.491 . S
C1764 H1755 0.950 . S
C1764 C1763 1.398 . S
C1764 C1765 1.391 . S
C1765 H1753 0.950 . S
C1765 C1761 1.393 . S
C1765 C1764 1.391 . S
C1766 H1756 0.950 . S
C1766 C1767 1.386 . S
C1766 C1768 1.391 . S
C1767 C1766 1.386 . S
C1767 C1771 1.393 . S
C1768 H1757 0.950 . S
C1768 C1766 1.391 . S
C1768 C1769 1.400 . S
C1769 C1763 1.491 . S
C1769 C1768 1.400 . S
C1769 C1770 1.398 . S
C1770 H1758 0.950 . S
C1770 C1769 1.398 . S
C1770 C1771 1.391 . S
C1771 H1759 0.950 . S
C1771 C1767 1.393 . S
C1771 C1770 1.391 . S
H1772 C1780 0.950 . S
H1773 C1785 0.950 . S
H1774 C1782 0.950 . S
H1775 C1784 0.950 . S
H1776 C1786 0.950 . S
H1777 C1788 0.950 . S
H1778 C1790 0.950 . S
H1779 C1791 0.950 . S
C1780 H1772 0.950 . S
C1780 C1781 1.386 . S
C1780 C1782 1.391 . S
C1781 C1780 1.386 . S
C1781 C1785 1.393 . S
C1782 H1774 0.950 . S
C1782 C1780 1.391 . S
C1782 C1783 1.400 . S
C1783 C1782 1.400 . S
C1783 C1784 1.398 . S
C1783 C1789 1.491 . S
C1784 H1775 0.950 . S
C1784 C1783 1.398 . S
C1784 C1785 1.391 . S
C1785 H1773 0.950 . S
C1785 C1781 1.393 . S
C1785 C1784 1.391 . S
C1786 H1776 0.950 . S
C1786 C1787 1.386 . S
C1786 C1788 1.391 . S
C1787 C1786 1.386 . S
C1787 C1791 1.393 . S
C1788 H1777 0.950 . S
C1788 C1786 1.391 . S
C1788 C1789 1.400 . S
C1789 C1783 1.491 . S
C1789 C1788 1.400 . S
C1789 C1790 1.398 . S
C1790 H1778 0.950 . S
C1790 C1789 1.398 . S
C1790 C1791 1.391 . S
C1791 H1779 0.950 . S
C1791 C1787 1.393 . S
C1791 C1790 1.391 . S
H1792 C1800 0.950 . S
H1793 C1805 0.950 . S
H1794 C1802 0.950 . S
H1795 C1804 0.950 . S
H1796 C1806 0.950 . S
H1797 C1808 0.950 . S
H1798 C1810 0.950 . S
H1799 C1811 0.950 . S
C1800 H1792 0.950 . S
C1800 C1801 1.386 . S
C1800 C1802 1.391 . S
C1801 C1800 1.386 . S
C1801 C1805 1.393 . S
C1802 H1794 0.950 . S
C1802 C1800 1.391 . S
C1802 C1803 1.400 . S
C1803 C1802 1.400 . S
C1803 C1804 1.398 . S
C1803 C1809 1.491 . S
C1804 H1795 0.950 . S
C1804 C1803 1.398 . S
C1804 C1805 1.391 . S
C1805 H1793 0.950 . S
C1805 C1801 1.393 . S
C1805 C1804 1.391 . S
C1806 H1796 0.950 . S
C1806 C1807 1.386 . S
C1806 C1808 1.391 . S
C1807 C1806 1.386 . S
C1807 C1811 1.393 . S
C1808 H1797 0.950 . S
C1808 C1806 1.391 . S
C1808 C1809 1.400 . S
C1809 C1803 1.491 . S
C1809 C1808 1.400 . S
C1809 C1810 1.398 . S
C1810 H1798 0.950 . S
C1810 C1809 1.398 . S
C1810 C1811 1.391 . S
C1811 H1799 0.950 . S
C1811 C1807 1.393 . S
C1811 C1810 1.391 . S
H1812 C1820 0.950 . S
H1813 C1825 0.950 . S
H1814 C1822 0.950 . S
H1815 C1824 0.950 . S
H1816 C1826 0.950 . S
H1817 C1828 0.950 . S
H1818 C1830 0.950 . S
H1819 C1831 0.950 . S
C1820 H1812 0.950 . S
C1820 C1821 1.386 . S
C1820 C1822 1.391 . S
C1821 C1820 1.386 . S
C1821 C1825 1.393 . S
C1822 H1814 0.950 . S
C1822 C1820 1.391 . S
C1822 C1823 1.400 . S
C1823 C1822 1.400 . S
C1823 C1824 1.398 . S
C1823 C1829 1.491 . S
C1824 H1815 0.950 . S
C1824 C1823 1.398 . S
C1824 C1825 1.391 . S
C1825 H1813 0.950 . S
C1825 C1821 1.393 . S
C1825 C1824 1.391 . S
C1826 H1816 0.950 . S
C1826 C1827 1.386 . S
C1826 C1828 1.391 . S
C1827 C1826 1.386 . S
C1827 C1831 1.393 . S
C1828 H1817 0.950 . S
C1828 C1826 1.391 . S
C1828 C1829 1.400 . S
C1829 C1823 1.491 . S
C1829 C1828 1.400 . S
C1829 C1830 1.398 . S
C1830 H1818 0.950 . S
C1830 C1829 1.398 . S
C1830 C1831 1.391 . S
C1831 H1819 0.950 . S
C1831 C1827 1.393 . S
C1831 C1830 1.391 . S
H1832 C1840 0.950 . S
H1833 C1845 0.950 . S
H1834 C1842 0.950 . S
H1835 C1844 0.950 . S
H1836 C1846 0.950 . S
H1837 C1848 0.950 . S
H1838 C1850 0.950 . S
H1839 C1851 0.950 . S
C1840 H1832 0.950 . S
C1840 C1841 1.386 . S
C1840 C1842 1.391 . S
C1841 C1840 1.386 . S
C1841 C1845 1.393 . S
C1842 H1834 0.950 . S
C1842 C1840 1.391 . S
C1842 C1843 1.400 . S
C1843 C1842 1.400 . S
C1843 C1844 1.398 . S
C1843 C1849 1.491 . S
C1844 H1835 0.950 . S
C1844 C1843 1.398 . S
C1844 C1845 1.391 . S
C1845 H1833 0.950 . S
C1845 C1841 1.393 . S
C1845 C1844 1.391 . S
C1846 H1836 0.950 . S
C1846 C1847 1.386 . S
C1846 C1848 1.391 . S
C1847 C1846 1.386 . S
C1847 C1851 1.393 . S
C1848 H1837 0.950 . S
C1848 C1846 1.391 . S
C1848 C1849 1.400 . S
C1849 C1843 1.491 . S
C1849 C1848 1.400 . S
C1849 C1850 1.398 . S
C1850 H1838 0.950 . S
C1850 C1849 1.398 . S
C1850 C1851 1.391 . S
C1851 H1839 0.950 . S
C1851 C1847 1.393 . S
C1851 C1850 1.391 . S
H1852 C1860 0.950 . S
H1853 C1865 0.950 . S
H1854 C1862 0.950 . S
H1855 C1864 0.950 . S
H1856 C1866 0.950 . S
H1857 C1868 0.950 . S
H1858 C1870 0.950 . S
H1859 C1871 0.950 . S
C1860 H1852 0.950 . S
C1860 C1861 1.386 . S
C1860 C1862 1.391 . S
C1861 C1860 1.386 . S
C1861 C1865 1.393 . S
C1862 H1854 0.950 . S
C1862 C1860 1.391 . S
C1862 C1863 1.400 . S
C1863 C1862 1.400 . S
C1863 C1864 1.398 . S
C1863 C1869 1.491 . S
C1864 H1855 0.950 . S
C1864 C1863 1.398 . S
C1864 C1865 1.391 . S
C1865 H1853 0.950 . S
C1865 C1861 1.393 . S
C1865 C1864 1.391 . S
C1866 H1856 0.950 . S
C1866 C1867 1.386 . S
C1866 C1868 1.391 . S
C1867 C1866 1.386 . S
C1867 C1871 1.393 . S
C1868 H1857 0.950 . S
C1868 C1866 1.391 . S
C1868 C1869 1.400 . S
C1869 C1863 1.491 . S
C1869 C1868 1.400 . S
C1869 C1870 1.398 . S
C1870 H1858 0.950 . S
C1870 C1869 1.398 . S
C1870 C1871 1.391 . S
C1871 H1859 0.950 . S
C1871 C1867 1.393 . S
C1871 C1870 1.391 . S
H1872 C1880 0.950 . S
H1873 C1885 0.950 . S
H1874 C1882 0.950 . S
H1875 C1884 0.950 . S
H1876 C1886 0.950 . S
H1877 C1888 0.950 . S
H1878 C1890 0.950 . S
H1879 C1891 0.950 . S
C1880 H1872 0.950 . S
C1880 C1881 1.386 . S
C1880 C1882 1.391 . S
C1881 C1880 1.386 . S
C1881 C1885 1.393 . S
C1882 H1874 0.950 . S
C1882 C1880 1.391 . S
C1882 C1883 1.400 . S
C1883 C1882 1.400 . S
C1883 C1884 1.398 . S
C1883 C1889 1.491 . S
C1884 H1875 0.950 . S
C1884 C1883 1.398 . S
C1884 C1885 1.391 . S
C1885 H1873 0.950 . S
C1885 C1881 1.393 . S
C1885 C1884 1.391 . S
C1886 H1876 0.950 . S
C1886 C1887 1.386 . S
C1886 C1888 1.391 . S
C1887 C1886 1.386 . S
C1887 C1891 1.393 . S
C1888 H1877 0.950 . S
C1888 C1886 1.391 . S
C1888 C1889 1.400 . S
C1889 C1883 1.491 . S
C1889 C1888 1.400 . S
C1889 C1890 1.398 . S
C1890 H1878 0.950 . S
C1890 C1889 1.398 . S
C1890 C1891 1.391 . S
C1891 H1879 0.950 . S
C1891 C1887 1.393 . S
C1891 C1890 1.391 . S
H1892 C1900 0.950 . S
H1893 C1905 0.950 . S
H1894 C1902 0.950 . S
H1895 C1904 0.950 . S
H1896 C1906 0.950 . S
H1897 C1908 0.950 . S
H1898 C1910 0.950 . S
H1899 C1911 0.950 . S
C1900 H1892 0.950 . S
C1900 C1901 1.386 . S
C1900 C1902 1.391 . S
C1901 C1900 1.386 . S
C1901 C1905 1.393 . S
C1902 H1894 0.950 . S
C1902 C1900 1.391 . S
C1902 C1903 1.400 . S
C1903 C1902 1.400 . S
C1903 C1904 1.398 . S
C1903 C1909 1.491 . S
C1904 H1895 0.950 . S
C1904 C1903 1.398 . S
C1904 C1905 1.391 . S
C1905 H1893 0.950 . S
C1905 C1901 1.393 . S
C1905 C1904 1.391 . S
C1906 H1896 0.950 . S
C1906 C1907 1.386 . S
C1906 C1908 1.391 . S
C1907 C1906 1.386 . S
C1907 C1911 1.393 . S
C1908 H1897 0.950 . S
C1908 C1906 1.391 . S
C1908 C1909 1.400 . S
C1909 C1903 1.491 . S
C1909 C1908 1.400 . S
C1909 C1910 1.398 . S
C1910 H1898 0.950 . S
C1910 C1909 1.398 . S
C1910 C1911 1.391 . S
C1911 H1899 0.950 . S
C1911 C1907 1.393 . S
C1911 C1910 1.391 . S
H1912 C1920 0.950 . S
H1913 C1925 0.950 . S
H1914 C1922 0.950 . S
H1915 C1924 0.950 . S
H1916 C1926 0.950 . S
H1917 C1928 0.950 . S
H1918 C1930 0.950 . S
H1919 C1931 0.950 . S
C1920 H1912 0.950 . S
C1920 C1921 1.386 . S
C1920 C1922 1.391 . S
C1921 C1920 1.386 . S
C1921 C1925 1.393 . S
C1922 H1914 0.950 . S
C1922 C1920 1.391 . S
C1922 C1923 1.400 . S
C1923 C1922 1.400 . S
C1923 C1924 1.398 . S
C1923 C1929 1.491 . S
C1924 H1915 0.950 . S
C1924 C1923 1.398 . S
C1924 C1925 1.391 . S
C1925 H1913 0.950 . S
C1925 C1921 1.393 . S
C1925 C1924 1.391 . S
C1926 H1916 0.950 . S
C1926 C1927 1.386 . S
C1926 C1928 1.391 . S
C1927 C1926 1.386 . S
C1927 C1931 1.393 . S
C1928 H1917 0.950 . S
C1928 C1926 1.391 . S
C1928 C1929 1.400 . S
C1929 C1923 1.491 . S
C1929 C1928 1.400 . S
C1929 C1930 1.398 . S
C1930 H1918 0.950 . S
C1930 C1929 1.398 . S
C1930 C1931 1.391 . S
C1931 H1919 0.950 . S
C1931 C1927 1.393 . S
C1931 C1930 1.391 . S
H1932 C1940 0.950 . S
H1933 C1945 0.950 . S
H1934 C1942 0.950 . S
H1935 C1944 0.950 . S
H1936 C1946 0.950 . S
H1937 C1948 0.950 . S
H1938 C1950 0.950 . S
H1939 C1951 0.950 . S
C1940 H1932 0.950 . S
C1940 C1941 1.386 . S
C1940 C1942 1.391 . S
C1941 C1940 1.386 . S
C1941 C1945 1.393 . S
C1942 H1934 0.950 . S
C1942 C1940 1.391 . S
C1942 C1943 1.400 . S
C1943 C1942 1.400 . S
C1943 C1944 1.398 . S
C1943 C1949 1.491 . S
C1944 H1935 0.950 . S
C1944 C1943 1.398 . S
C1944 C1945 1.391 . S
C1945 H1933 0.950 . S
C1945 C1941 1.393 . S
C1945 C1944 1.391 . S
C1946 H1936 0.950 . S
C1946 C1947 1.386 . S
C1946 C1948 1.391 . S
C1947 C1946 1.386 . S
C1947 C1951 1.393 . S
C1948 H1937 0.950 . S
C1948 C1946 1.391 . S
C1948 C1949 1.400 . S
C1949 C1943 1.491 . S
C1949 C1948 1.400 . S
C1949 C1950 1.398 . S
C1950 H1938 0.950 . S
C1950 C1949 1.398 . S
C1950 C1951 1.391 . S
C1951 H1939 0.950 . S
C1951 C1947 1.393 . S
C1951 C1950 1.391 . S
H1952 C1960 0.950 . S
H1953 C1965 0.950 . S
H1954 C1962 0.950 . S
H1955 C1964 0.950 . S
H1956 C1966 0.950 . S
H1957 C1968 0.950 . S
H1958 C1970 0.950 . S
H1959 C1971 0.950 . S
C1960 H1952 0.950 . S
C1960 C1961 1.386 . S
C1960 C1962 1.391 . S
C1961 C1960 1.386 . S
C1961 C1965 1.393 . S
C1962 H1954 0.950 . S
C1962 C1960 1.391 . S
C1962 C1963 1.400 . S
C1963 C1962 1.400 . S
C1963 C1964 1.398 . S
C1963 C1969 1.491 . S
C1964 H1955 0.950 . S
C1964 C1963 1.398 . S
C1964 C1965 1.391 . S
C1965 H1953 0.950 . S
C1965 C1961 1.393 . S
C1965 C1964 1.391 . S
C1966 H1956 0.950 . S
C1966 C1967 1.386 . S
C1966 C1968 1.391 . S
C1967 C1966 1.386 . S
C1967 C1971 1.393 . S
C1968 H1957 0.950 . S
C1968 C1966 1.391 . S
C1968 C1969 1.400 . S
C1969 C1963 1.491 . S
C1969 C1968 1.400 . S
C1969 C1970 1.398 . S
C1970 H1958 0.950 . S
C1970 C1969 1.398 . S
C1970 C1971 1.391 . S
C1971 H1959 0.950 . S
C1971 C1967 1.393 . S
C1971 C1970 1.391 . S
H1972 C1980 0.950 . S
H1973 C1985 0.950 . S
H1974 C1982 0.950 . S
H1975 C1984 0.950 . S
H1976 C1986 0.950 . S
H1977 C1988 0.950 . S
H1978 C1990 0.950 . S
H1979 C1991 0.950 . S
C1980 H1972 0.950 . S
C1980 C1981 1.386 . S
C1980 C1982 1.391 . S
C1981 C1980 1.386 . S
C1981 C1985 1.393 . S
C1982 H1974 0.950 . S
C1982 C1980 1.391 . S
C1982 C1983 1.400 . S
C1983 C1982 1.400 . S
C1983 C1984 1.398 . S
C1983 C1989 1.491 . S
C1984 H1975 0.950 . S
C1984 C1983 1.398 . S
C1984 C1985 1.391 . S
C1985 H1973 0.950 . S
C1985 C1981 1.393 . S
C1985 C1984 1.391 . S
C1986 H1976 0.950 . S
C1986 C1987 1.386 . S
C1986 C1988 1.391 . S
C1987 C1986 1.386 . S
C1987 C1991 1.393 . S
C1988 H1977 0.950 . S
C1988 C1986 1.391 . S
C1988 C1989 1.400 . S
C1989 C1983 1.491 . S
C1989 C1988 1.400 . S
C1989 C1990 1.398 . S
C1990 H1978 0.950 . S
C1990 C1989 1.398 . S
C1990 C1991 1.391 . S
C1991 H1979 0.950 . S
C1991 C1987 1.393 . S
C1991 C1990 1.391 . S
H1992 C2000 0.950 . S
H1993 C2005 0.950 . S
H1994 C2002 0.950 . S
H1995 C2004 0.950 . S
H1996 C2006 0.950 . S
H1997 C2008 0.950 . S
H1998 C2010 0.950 . S
H1999 C2011 0.950 . S
C2000 H1992 0.950 . S
C2000 C2001 1.386 . S
C2000 C2002 1.391 . S
C2001 C2000 1.386 . S
C2001 C2005 1.393 . S
C2002 H1994 0.950 . S
C2002 C2000 1.391 . S
C2002 C2003 1.400 . S
C2003 C2002 1.400 . S
C2003 C2004 1.398 . S
C2003 C2009 1.491 . S
C2004 H1995 0.950 . S
C2004 C2003 1.398 . S
C2004 C2005 1.391 . S
C2005 H1993 0.950 . S
C2005 C2001 1.393 . S
C2005 C2004 1.391 . S
C2006 H1996 0.950 . S
C2006 C2007 1.386 . S
C2006 C2008 1.391 . S
C2007 C2006 1.386 . S
C2007 C2011 1.393 . S
C2008 H1997 0.950 . S
C2008 C2006 1.391 . S
C2008 C2009 1.400 . S
C2009 C2003 1.491 . S
C2009 C2008 1.400 . S
C2009 C2010 1.398 . S
C2010 H1998 0.950 . S
C2010 C2009 1.398 . S
C2010 C2011 1.391 . S
C2011 H1999 0.950 . S
C2011 C2007 1.393 . S
C2011 C2010 1.391 . S
H2012 C2020 0.950 . S
H2013 C2025 0.950 . S
H2014 C2022 0.950 . S
H2015 C2024 0.950 . S
H2016 C2026 0.950 . S
H2017 C2028 0.950 . S
H2018 C2030 0.950 . S
H2019 C2031 0.950 . S
C2020 H2012 0.950 . S
C2020 C2021 1.386 . S
C2020 C2022 1.391 . S
C2021 C2020 1.386 . S
C2021 C2025 1.393 . S
C2022 H2014 0.950 . S
C2022 C2020 1.391 . S
C2022 C2023 1.400 . S
C2023 C2022 1.400 . S
C2023 C2024 1.398 . S
C2023 C2029 1.491 . S
C2024 H2015 0.950 . S
C2024 C2023 1.398 . S
C2024 C2025 1.391 . S
C2025 H2013 0.950 . S
C2025 C2021 1.393 . S
C2025 C2024 1.391 . S
C2026 H2016 0.950 . S
C2026 C2027 1.386 . S
C2026 C2028 1.391 . S
C2027 C2026 1.386 . S
C2027 C2031 1.393 . S
C2028 H2017 0.950 . S
C2028 C2026 1.391 . S
C2028 C2029 1.400 . S
C2029 C2023 1.491 . S
C2029 C2028 1.400 . S
C2029 C2030 1.398 . S
C2030 H2018 0.950 . S
C2030 C2029 1.398 . S
C2030 C2031 1.391 . S
C2031 H2019 0.950 . S
C2031 C2027 1.393 . S
C2031 C2030 1.391 . S
H2032 C2040 0.950 . S
H2033 C2045 0.950 . S
H2034 C2042 0.950 . S
H2035 C2044 0.950 . S
H2036 C2046 0.950 . S
H2037 C2048 0.950 . S
H2038 C2050 0.950 . S
H2039 C2051 0.950 . S
C2040 H2032 0.950 . S
C2040 C2041 1.386 . S
C2040 C2042 1.391 . S
C2041 C2040 1.386 . S
C2041 C2045 1.393 . S
C2042 H2034 0.950 . S
C2042 C2040 1.391 . S
C2042 C2043 1.400 . S
C2043 C2042 1.400 . S
C2043 C2044 1.398 . S
C2043 C2049 1.491 . S
C2044 H2035 0.950 . S
C2044 C2043 1.398 . S
C2044 C2045 1.391 . S
C2045 H2033 0.950 . S
C2045 C2041 1.393 . S
C2045 C2044 1.391 . S
C2046 H2036 0.950 . S
C2046 C2047 1.386 . S
C2046 C2048 1.391 . S
C2047 C2046 1.386 . S
C2047 C2051 1.393 . S
C2048 H2037 0.950 . S
C2048 C2046 1.391 . S
C2048 C2049 1.400 . S
C2049 C2043 1.491 . S
C2049 C2048 1.400 . S
C2049 C2050 1.398 . S
C2050 H2038 0.950 . S
C2050 C2049 1.398 . S
C2050 C2051 1.391 . S
C2051 H2039 0.950 . S
C2051 C2047 1.393 . S
C2051 C2050 1.391 . S
H2052 C2060 0.950 . S
H2053 C2065 0.950 . S
H2054 C2062 0.950 . S
H2055 C2064 0.950 . S
H2056 C2066 0.950 . S
H2057 C2068 0.950 . S
H2058 C2070 0.950 . S
H2059 C2071 0.950 . S
C2060 H2052 0.950 . S
C2060 C2061 1.386 . S
C2060 C2062 1.391 . S
C2061 C2060 1.386 . S
C2061 C2065 1.393 . S
C2062 H2054 0.950 . S
C2062 C2060 1.391 . S
C2062 C2063 1.400 . S
C2063 C2062 1.400 . S
C2063 C2064 1.398 . S
C2063 C2069 1.491 . S
C2064 H2055 0.950 . S
C2064 C2063 1.398 . S
C2064 C2065 1.391 . S
C2065 H2053 0.950 . S
C2065 C2061 1.393 . S
C2065 C2064 1.391 . S
C2066 H2056 0.950 . S
C2066 C2067 1.386 . S
C2066 C2068 1.391 . S
C2067 C2066 1.386 . S
C2067 C2071 1.393 . S
C2068 H2057 0.950 . S
C2068 C2066 1.391 . S
C2068 C2069 1.400 . S
C2069 C2063 1.491 . S
C2069 C2068 1.400 . S
C2069 C2070 1.398 . S
C2070 H2058 0.950 . S
C2070 C2069 1.398 . S
C2070 C2071 1.391 . S
C2071 H2059 0.950 . S
C2071 C2067 1.393 . S
C2071 C2070 1.391 . S
H2072 C2080 0.950 . S
H2073 C2085 0.950 . S
H2074 C2082 0.950 . S
H2075 C2084 0.950 . S
H2076 C2086 0.950 . S
H2077 C2088 0.950 . S
H2078 C2090 0.950 . S
H2079 C2091 0.950 . S
C2080 H2072 0.950 . S
C2080 C2081 1.386 . S
C2080 C2082 1.391 . S
C2081 C2080 1.386 . S
C2081 C2085 1.393 . S
C2082 H2074 0.950 . S
C2082 C2080 1.391 . S
C2082 C2083 1.400 . S
C2083 C2082 1.400 . S
C2083 C2084 1.398 . S
C2083 C2089 1.491 . S
C2084 H2075 0.950 . S
C2084 C2083 1.398 . S
C2084 C2085 1.391 . S
C2085 H2073 0.950 . S
C2085 C2081 1.393 . S
C2085 C2084 1.391 . S
C2086 H2076 0.950 . S
C2086 C2087 1.386 . S
C2086 C2088 1.391 . S
C2087 C2086 1.386 . S
C2087 C2091 1.393 . S
C2088 H2077 0.950 . S
C2088 C2086 1.391 . S
C2088 C2089 1.400 . S
C2089 C2083 1.491 . S
C2089 C2088 1.400 . S
C2089 C2090 1.398 . S
C2090 H2078 0.950 . S
C2090 C2089 1.398 . S
C2090 C2091 1.391 . S
C2091 H2079 0.950 . S
C2091 C2087 1.393 . S
C2091 C2090 1.391 . S
H2092 C2100 0.950 . S
H2093 C2105 0.950 . S
H2094 C2102 0.950 . S
H2095 C2104 0.950 . S
H2096 C2106 0.950 . S
H2097 C2108 0.950 . S
H2098 C2110 0.950 . S
H2099 C2111 0.950 . S
C2100 H2092 0.950 . S
C2100 C2101 1.386 . S
C2100 C2102 1.391 . S
C2101 C2100 1.386 . S
C2101 C2105 1.393 . S
C2102 H2094 0.950 . S
C2102 C2100 1.391 . S
C2102 C2103 1.400 . S
C2103 C2102 1.400 . S
C2103 C2104 1.398 . S
C2103 C2109 1.491 . S
C2104 H2095 0.950 . S
C2104 C2103 1.398 . S
C2104 C2105 1.391 . S
C2105 H2093 0.950 . S
C2105 C2101 1.393 . S
C2105 C2104 1.391 . S
C2106 H2096 0.950 . S
C2106 C2107 1.386 . S
C2106 C2108 1.391 . S
C2107 C2106 1.386 . S
C2107 C2111 1.393 . S
C2108 H2097 0.950 . S
C2108 C2106 1.391 . S
C2108 C2109 1.400 . S
C2109 C2103 1.491 . S
C2109 C2108 1.400 . S
C2109 C2110 1.398 . S
C2110 H2098 0.950 . S
C2110 C2109 1.398 . S
C2110 C2111 1.391 . S
C2111 H2099 0.950 . S
C2111 C2107 1.393 . S
C2111 C2110 1.391 . S
H2112 C2120 0.950 . S
H2113 C2125 0.950 . S
H2114 C2122 0.950 . S
H2115 C2124 0.950 . S
H2116 C2126 0.950 . S
H2117 C2128 0.950 . S
H2118 C2130 0.950 . S
H2119 C2131 0.950 . S
C2120 H2112 0.950 . S
C2120 C2121 1.386 . S
C2120 C2122 1.391 . S
C2121 C2120 1.386 . S
C2121 C2125 1.393 . S
C2122 H2114 0.950 . S
C2122 C2120 1.391 . S
C2122 C2123 1.400 . S
C2123 C2122 1.400 . S
C2123 C2124 1.398 . S
C2123 C2129 1.491 . S
C2124 H2115 0.950 . S
C2124 C2123 1.398 . S
C2124 C2125 1.391 . S
C2125 H2113 0.950 . S
C2125 C2121 1.393 . S
C2125 C2124 1.391 . S
C2126 H2116 0.950 . S
C2126 C2127 1.386 . S
C2126 C2128 1.391 . S
C2127 C2126 1.386 . S
C2127 C2131 1.393 . S
C2128 H2117 0.950 . S
C2128 C2126 1.391 . S
C2128 C2129 1.400 . S
C2129 C2123 1.491 . S
C2129 C2128 1.400 . S
C2129 C2130 1.398 . S
C2130 H2118 0.950 . S
C2130 C2129 1.398 . S
C2130 C2131 1.391 . S
C2131 H2119 0.950 . S
C2131 C2127 1.393 . S
C2131 C2130 1.391 . S
H2132 C2140 0.950 . S
H2133 C2145 0.950 . S
H2134 C2142 0.950 . S
H2135 C2144 0.950 . S
H2136 C2146 0.950 . S
H2137 C2148 0.950 . S
H2138 C2150 0.950 . S
H2139 C2151 0.950 . S
C2140 H2132 0.950 . S
C2140 C2141 1.386 . S
C2140 C2142 1.391 . S
C2141 C2140 1.386 . S
C2141 C2145 1.393 . S
C2142 H2134 0.950 . S
C2142 C2140 1.391 . S
C2142 C2143 1.400 . S
C2143 C2142 1.400 . S
C2143 C2144 1.398 . S
C2143 C2149 1.491 . S
C2144 H2135 0.950 . S
C2144 C2143 1.398 . S
C2144 C2145 1.391 . S
C2145 H2133 0.950 . S
C2145 C2141 1.393 . S
C2145 C2144 1.391 . S
C2146 H2136 0.950 . S
C2146 C2147 1.386 . S
C2146 C2148 1.391 . S
C2147 C2146 1.386 . S
C2147 C2151 1.393 . S
C2148 H2137 0.950 . S
C2148 C2146 1.391 . S
C2148 C2149 1.400 . S
C2149 C2143 1.491 . S
C2149 C2148 1.400 . S
C2149 C2150 1.398 . S
C2150 H2138 0.950 . S
C2150 C2149 1.398 . S
C2150 C2151 1.391 . S
C2151 H2139 0.950 . S
C2151 C2147 1.393 . S
C2151 C2150 1.391 . S
H2152 C2160 0.950 . S
H2153 C2165 0.950 . S
H2154 C2162 0.950 . S
H2155 C2164 0.950 . S
H2156 C2166 0.950 . S
H2157 C2168 0.950 . S
H2158 C2170 0.950 . S
H2159 C2171 0.950 . S
C2160 H2152 0.950 . S
C2160 C2161 1.386 . S
C2160 C2162 1.391 . S
C2161 C2160 1.386 . S
C2161 C2165 1.393 . S
C2162 H2154 0.950 . S
C2162 C2160 1.391 . S
C2162 C2163 1.400 . S
C2163 C2162 1.400 . S
C2163 C2164 1.398 . S
C2163 C2169 1.491 . S
C2164 H2155 0.950 . S
C2164 C2163 1.398 . S
C2164 C2165 1.391 . S
C2165 H2153 0.950 . S
C2165 C2161 1.393 . S
C2165 C2164 1.391 . S
C2166 H2156 0.950 . S
C2166 C2167 1.386 . S
C2166 C2168 1.391 . S
C2167 C2166 1.386 . S
C2167 C2171 1.393 . S
C2168 H2157 0.950 . S
C2168 C2166 1.391 . S
C2168 C2169 1.400 . S
C2169 C2163 1.491 . S
C2169 C2168 1.400 . S
C2169 C2170 1.398 . S
C2170 H2158 0.950 . S
C2170 C2169 1.398 . S
C2170 C2171 1.391 . S
C2171 H2159 0.950 . S
C2171 C2167 1.393 . S
C2171 C2170 1.391 . S
H2172 C2180 0.950 . S
H2173 C2185 0.950 . S
H2174 C2182 0.950 . S
H2175 C2184 0.950 . S
H2176 C2186 0.950 . S
H2177 C2188 0.950 . S
H2178 C2190 0.950 . S
H2179 C2191 0.950 . S
C2180 H2172 0.950 . S
C2180 C2181 1.386 . S
C2180 C2182 1.391 . S
C2181 C2180 1.386 . S
C2181 C2185 1.393 . S
C2182 H2174 0.950 . S
C2182 C2180 1.391 . S
C2182 C2183 1.400 . S
C2183 C2182 1.400 . S
C2183 C2184 1.398 . S
C2183 C2189 1.491 . S
C2184 H2175 0.950 . S
C2184 C2183 1.398 . S
C2184 C2185 1.391 . S
C2185 H2173 0.950 . S
C2185 C2181 1.393 . S
C2185 C2184 1.391 . S
C2186 H2176 0.950 . S
C2186 C2187 1.386 . S
C2186 C2188 1.391 . S
C2187 C2186 1.386 . S
C2187 C2191 1.393 . S
C2188 H2177 0.950 . S
C2188 C2186 1.391 . S
C2188 C2189 1.400 . S
C2189 C2183 1.491 . S
C2189 C2188 1.400 . S
C2189 C2190 1.398 . S
C2190 H2178 0.950 . S
C2190 C2189 1.398 . S
C2190 C2191 1.391 . S
C2191 H2179 0.950 . S
C2191 C2187 1.393 . S
C2191 C2190 1.391 . S
H2192 C2200 0.950 . S
H2193 C2205 0.950 . S
H2194 C2202 0.950 . S
H2195 C2204 0.950 . S
H2196 C2206 0.950 . S
H2197 C2208 0.950 . S
H2198 C2210 0.950 . S
H2199 C2211 0.950 . S
C2200 H2192 0.950 . S
C2200 C2201 1.386 . S
C2200 C2202 1.391 . S
C2201 C2200 1.386 . S
C2201 C2205 1.393 . S
C2202 H2194 0.950 . S
C2202 C2200 1.391 . S
C2202 C2203 1.400 . S
C2203 C2202 1.400 . S
C2203 C2204 1.398 . S
C2203 C2209 1.491 . S
C2204 H2195 0.950 . S
C2204 C2203 1.398 . S
C2204 C2205 1.391 . S
C2205 H2193 0.950 . S
C2205 C2201 1.393 . S
C2205 C2204 1.391 . S
C2206 H2196 0.950 . S
C2206 C2207 1.386 . S
C2206 C2208 1.391 . S
C2207 C2206 1.386 . S
C2207 C2211 1.393 . S
C2208 H2197 0.950 . S
C2208 C2206 1.391 . S
C2208 C2209 1.400 . S
C2209 C2203 1.491 . S
C2209 C2208 1.400 . S
C2209 C2210 1.398 . S
C2210 H2198 0.950 . S
C2210 C2209 1.398 . S
C2210 C2211 1.391 . S
C2211 H2199 0.950 . S
C2211 C2207 1.393 . S
C2211 C2210 1.391 . S
H2212 C2220 0.950 . S
H2213 C2225 0.950 . S
H2214 C2222 0.950 . S
H2215 C2224 0.950 . S
H2216 C2226 0.950 . S
H2217 C2228 0.950 . S
H2218 C2230 0.950 . S
H2219 C2231 0.950 . S
C2220 H2212 0.950 . S
C2220 C2221 1.386 . S
C2220 C2222 1.391 . S
C2221 C2220 1.386 . S
C2221 C2225 1.393 . S
C2222 H2214 0.950 . S
C2222 C2220 1.391 . S
C2222 C2223 1.400 . S
C2223 C2222 1.400 . S
C2223 C2224 1.398 . S
C2223 C2229 1.491 . S
C2224 H2215 0.950 . S
C2224 C2223 1.398 . S
C2224 C2225 1.391 . S
C2225 H2213 0.950 . S
C2225 C2221 1.393 . S
C2225 C2224 1.391 . S
C2226 H2216 0.950 . S
C2226 C2227 1.386 . S
C2226 C2228 1.391 . S
C2227 C2226 1.386 . S
C2227 C2231 1.393 . S
C2228 H2217 0.950 . S
C2228 C2226 1.391 . S
C2228 C2229 1.400 . S
C2229 C2223 1.491 . S
C2229 C2228 1.400 . S
C2229 C2230 1.398 . S
C2230 H2218 0.950 . S
C2230 C2229 1.398 . S
C2230 C2231 1.391 . S
C2231 H2219 0.950 . S
C2231 C2227 1.393 . S
C2231 C2230 1.391 . S
H2232 C2240 0.950 . S
H2233 C2245 0.950 . S
H2234 C2242 0.950 . S
H2235 C2244 0.950 . S
H2236 C2246 0.950 . S
H2237 C2248 0.950 . S
H2238 C2250 0.950 . S
H2239 C2251 0.950 . S
C2240 H2232 0.950 . S
C2240 C2241 1.386 . S
C2240 C2242 1.391 . S
C2241 C2240 1.386 . S
C2241 C2245 1.393 . S
C2242 H2234 0.950 . S
C2242 C2240 1.391 . S
C2242 C2243 1.400 . S
C2243 C2242 1.400 . S
C2243 C2244 1.398 . S
C2243 C2249 1.491 . S
C2244 H2235 0.950 . S
C2244 C2243 1.398 . S
C2244 C2245 1.391 . S
C2245 H2233 0.950 . S
C2245 C2241 1.393 . S
C2245 C2244 1.391 . S
C2246 H2236 0.950 . S
C2246 C2247 1.386 . S
C2246 C2248 1.391 . S
C2247 C2246 1.386 . S
C2247 C2251 1.393 . S
C2248 H2237 0.950 . S
C2248 C2246 1.391 . S
C2248 C2249 1.400 . S
C2249 C2243 1.491 . S
C2249 C2248 1.400 . S
C2249 C2250 1.398 . S
C2250 H2238 0.950 . S
C2250 C2249 1.398 . S
C2250 C2251 1.391 . S
C2251 H2239 0.950 . S
C2251 C2247 1.393 . S
C2251 C2250 1.391 . S
H2252 C2260 0.950 . S
H2253 C2265 0.950 . S
H2254 C2262 0.950 . S
H2255 C2264 0.950 . S
H2256 C2266 0.950 . S
H2257 C2268 0.950 . S
H2258 C2270 0.950 . S
H2259 C2271 0.950 . S
C2260 H2252 0.950 . S
C2260 C2261 1.386 . S
C2260 C2262 1.391 . S
C2261 C2260 1.386 . S
C2261 C2265 1.393 . S
C2262 H2254 0.950 . S
C2262 C2260 1.391 . S
C2262 C2263 1.400 . S
C2263 C2262 1.400 . S
C2263 C2264 1.398 . S
C2263 C2269 1.491 . S
C2264 H2255 0.950 . S
C2264 C2263 1.398 . S
C2264 C2265 1.391 . S
C2265 H2253 0.950 . S
C2265 C2261 1.393 . S
C2265 C2264 1.391 . S
C2266 H2256 0.950 . S
C2266 C2267 1.386 . S
C2266 C2268 1.391 . S
C2267 C2266 1.386 . S
C2267 C2271 1.393 . S
C2268 H2257 0.950 . S
C2268 C2266 1.391 . S
C2268 C2269 1.400 . S
C2269 C2263 1.491 . S
C2269 C2268 1.400 . S
C2269 C2270 1.398 . S
C2270 H2258 0.950 . S
C2270 C2269 1.398 . S
C2270 C2271 1.391 . S
C2271 H2259 0.950 . S
C2271 C2267 1.393 . S
C2271 C2270 1.391 . S
H2272 C2280 0.950 . S
H2273 C2285 0.950 . S
H2274 C2282 0.950 . S
H2275 C2284 0.950 . S
H2276 C2286 0.950 . S
H2277 C2288 0.950 . S
H2278 C2290 0.950 . S
H2279 C2291 0.950 . S
C2280 H2272 0.950 . S
C2280 C2281 1.386 . S
C2280 C2282 1.391 . S
C2281 C2280 1.386 . S
C2281 C2285 1.393 . S
C2282 H2274 0.950 . S
C2282 C2280 1.391 . S
C2282 C2283 1.400 . S
C2283 C2282 1.400 . S
C2283 C2284 1.398 . S
C2283 C2289 1.491 . S
C2284 H2275 0.950 . S
C2284 C2283 1.398 . S
C2284 C2285 1.391 . S
C2285 H2273 0.950 . S
C2285 C2281 1.393 . S
C2285 C2284 1.391 . S
C2286 H2276 0.950 . S
C2286 C2287 1.386 . S
C2286 C2288 1.391 . S
C2287 C2286 1.386 . S
C2287 C2291 1.393 . S
C2288 H2277 0.950 . S
C2288 C2286 1.391 . S
C2288 C2289 1.400 . S
C2289 C2283 1.491 . S
C2289 C2288 1.400 . S
C2289 C2290 1.398 . S
C2290 H2278 0.950 . S
C2290 C2289 1.398 . S
C2290 C2291 1.391 . S
C2291 H2279 0.950 . S
C2291 C2287 1.393 . S
C2291 C2290 1.391 . S
H2292 C2300 0.950 . S
H2293 C2305 0.950 . S
H2294 C2302 0.950 . S
H2295 C2304 0.950 . S
H2296 C2306 0.950 . S
H2297 C2308 0.950 . S
H2298 C2310 0.950 . S
H2299 C2311 0.950 . S
C2300 H2292 0.950 . S
C2300 C2301 1.386 . S
C2300 C2302 1.391 . S
C2301 C2300 1.386 . S
C2301 C2305 1.393 . S
C2302 H2294 0.950 . S
C2302 C2300 1.391 . S
C2302 C2303 1.400 . S
C2303 C2302 1.400 . S
C2303 C2304 1.398 . S
C2303 C2309 1.491 . S
C2304 H2295 0.950 . S
C2304 C2303 1.398 . S
C2304 C2305 1.391 . S
C2305 H2293 0.950 . S
C2305 C2301 1.393 . S
C2305 C2304 1.391 . S
C2306 H2296 0.950 . S
C2306 C2307 1.386 . S
C2306 C2308 1.391 . S
C2307 C2306 1.386 . S
C2307 C2311 1.393 . S
C2308 H2297 0.950 . S
C2308 C2306 1.391 . S
C2308 C2309 1.400 . S
C2309 C2303 1.491 . S
C2309 C2308 1.400 . S
C2309 C2310 1.398 . S
C2310 H2298 0.950 . S
C2310 C2309 1.398 . S
C2310 C2311 1.391 . S
C2311 H2299 0.950 . S
C2311 C2307 1.393 . S
C2311 C2310 1.391 . S
H2312 C2320 0.950 . S
H2313 C2325 0.950 . S
H2314 C2322 0.950 . S
H2315 C2324 0.950 . S
H2316 C2326 0.950 . S
H2317 C2328 0.950 . S
H2318 C2330 0.950 . S
H2319 C2331 0.950 . S
C2320 H2312 0.950 . S
C2320 C2321 1.386 . S
C2320 C2322 1.391 . S
C2321 C2320 1.386 . S
C2321 C2325 1.393 . S
C2322 H2314 0.950 . S
C2322 C2320 1.391 . S
C2322 C2323 1.400 . S
C2323 C2322 1.400 . S
C2323 C2324 1.398 . S
C2323 C2329 1.491 . S
C2324 H2315 0.950 . S
C2324 C2323 1.398 . S
C2324 C2325 1.391 . S
C2325 H2313 0.950 . S
C2325 C2321 1.393 . S
C2325 C2324 1.391 . S
C2326 H2316 0.950 . S
C2326 C2327 1.386 . S
C2326 C2328 1.391 . S
C2327 C2326 1.386 . S
C2327 C2331 1.393 . S
C2328 H2317 0.950 . S
C2328 C2326 1.391 . S
C2328 C2329 1.400 . S
C2329 C2323 1.491 . S
C2329 C2328 1.400 . S
C2329 C2330 1.398 . S
C2330 H2318 0.950 . S
C2330 C2329 1.398 . S
C2330 C2331 1.391 . S
C2331 H2319 0.950 . S
C2331 C2327 1.393 . S
C2331 C2330 1.391 . S
H2332 C2340 0.950 . S
H2333 C2345 0.950 . S
H2334 C2342 0.950 . S
H2335 C2344 0.950 . S
H2336 C2346 0.950 . S
H2337 C2348 0.950 . S
H2338 C2350 0.950 . S
H2339 C2351 0.950 . S
C2340 H2332 0.950 . S
C2340 C2341 1.386 . S
C2340 C2342 1.391 . S
C2341 C2340 1.386 . S
C2341 C2345 1.393 . S
C2342 H2334 0.950 . S
C2342 C2340 1.391 . S
C2342 C2343 1.400 . S
C2343 C2342 1.400 . S
C2343 C2344 1.398 . S
C2343 C2349 1.491 . S
C2344 H2335 0.950 . S
C2344 C2343 1.398 . S
C2344 C2345 1.391 . S
C2345 H2333 0.950 . S
C2345 C2341 1.393 . S
C2345 C2344 1.391 . S
C2346 H2336 0.950 . S
C2346 C2347 1.386 . S
C2346 C2348 1.391 . S
C2347 C2346 1.386 . S
C2347 C2351 1.393 . S
C2348 H2337 0.950 . S
C2348 C2346 1.391 . S
C2348 C2349 1.400 . S
C2349 C2343 1.491 . S
C2349 C2348 1.400 . S
C2349 C2350 1.398 . S
C2350 H2338 0.950 . S
C2350 C2349 1.398 . S
C2350 C2351 1.391 . S
C2351 H2339 0.950 . S
C2351 C2347 1.393 . S
C2351 C2350 1.391 . S
H2352 C2360 0.950 . S
H2353 C2365 0.950 . S
H2354 C2362 0.950 . S
H2355 C2364 0.950 . S
H2356 C2366 0.950 . S
H2357 C2368 0.950 . S
H2358 C2370 0.950 . S
H2359 C2371 0.950 . S
C2360 H2352 0.950 . S
C2360 C2361 1.386 . S
C2360 C2362 1.391 . S
C2361 C2360 1.386 . S
C2361 C2365 1.393 . S
C2362 H2354 0.950 . S
C2362 C2360 1.391 . S
C2362 C2363 1.400 . S
C2363 C2362 1.400 . S
C2363 C2364 1.398 . S
C2363 C2369 1.491 . S
C2364 H2355 0.950 . S
C2364 C2363 1.398 . S
C2364 C2365 1.391 . S
C2365 H2353 0.950 . S
C2365 C2361 1.393 . S
C2365 C2364 1.391 . S
C2366 H2356 0.950 . S
C2366 C2367 1.386 . S
C2366 C2368 1.391 . S
C2367 C2366 1.386 . S
C2367 C2371 1.393 . S
C2368 H2357 0.950 . S
C2368 C2366 1.391 . S
C2368 C2369 1.400 . S
C2369 C2363 1.491 . S
C2369 C2368 1.400 . S
C2369 C2370 1.398 . S
C2370 H2358 0.950 . S
C2370 C2369 1.398 . S
C2370 C2371 1.391 . S
C2371 H2359 0.950 . S
C2371 C2367 1.393 . S
C2371 C2370 1.391 . S
H2372 C2380 0.950 . S
H2373 C2385 0.950 . S
H2374 C2382 0.950 . S
H2375 C2384 0.950 . S
H2376 C2386 0.950 . S
H2377 C2388 0.950 . S
H2378 C2390 0.950 . S
H2379 C2391 0.950 . S
C2380 H2372 0.950 . S
C2380 C2381 1.386 . S
C2380 C2382 1.391 . S
C2381 C2380 1.386 . S
C2381 C2385 1.393 . S
C2382 H2374 0.950 . S
C2382 C2380 1.391 . S
C2382 C2383 1.400 . S
C2383 C2382 1.400 . S
C2383 C2384 1.398 . S
C2383 C2389 1.491 . S
C2384 H2375 0.950 . S
C2384 C2383 1.398 . S
C2384 C2385 1.391 . S
C2385 H2373 0.950 . S
C2385 C2381 1.393 . S
C2385 C2384 1.391 . S
C2386 H2376 0.950 . S
C2386 C2387 1.386 . S
C2386 C2388 1.391 . S
C2387 C2386 1.386 . S
C2387 C2391 1.393 . S
C2388 H2377 0.950 . S
C2388 C2386 1.391 . S
C2388 C2389 1.400 . S
C2389 C2383 1.491 . S
C2389 C2388 1.400 . S
C2389 C2390 1.398 . S
C2390 H2378 0.950 . S
C2390 C2389 1.398 . S
C2390 C2391 1.391 . S
C2391 H2379 0.950 . S
C2391 C2387 1.393 . S
C2391 C2390 1.391 . S
H2392 C2400 0.950 . S
H2393 C2405 0.950 . S
H2394 C2402 0.950 . S
H2395 C2404 0.950 . S
H2396 C2406 0.950 . S
H2397 C2408 0.950 . S
H2398 C2410 0.950 . S
H2399 C2411 0.950 . S
C2400 H2392 0.950 . S
C2400 C2401 1.386 . S
C2400 C2402 1.391 . S
C2401 C2400 1.386 . S
C2401 C2405 1.393 . S
C2402 H2394 0.950 . S
C2402 C2400 1.391 . S
C2402 C2403 1.400 . S
C2403 C2402 1.400 . S
C2403 C2404 1.398 . S
C2403 C2409 1.491 . S
C2404 H2395 0.950 . S
C2404 C2403 1.398 . S
C2404 C2405 1.391 . S
C2405 H2393 0.950 . S
C2405 C2401 1.393 . S
C2405 C2404 1.391 . S
C2406 H2396 0.950 . S
C2406 C2407 1.386 . S
C2406 C2408 1.391 . S
C2407 C2406 1.386 . S
C2407 C2411 1.393 . S
C2408 H2397 0.950 . S
C2408 C2406 1.391 . S
C2408 C2409 1.400 . S
C2409 C2403 1.491 . S
C2409 C2408 1.400 . S
C2409 C2410 1.398 . S
C2410 H2398 0.950 . S
C2410 C2409 1.398 . S
C2410 C2411 1.391 . S
C2411 H2399 0.950 . S
C2411 C2407 1.393 . S
C2411 C2410 1.391 . S
H2412 C2420 0.950 . S
H2413 C2425 0.950 . S
H2414 C2422 0.950 . S
H2415 C2424 0.950 . S
H2416 C2426 0.950 . S
H2417 C2428 0.950 . S
H2418 C2430 0.950 . S
H2419 C2431 0.950 . S
C2420 H2412 0.950 . S
C2420 C2421 1.386 . S
C2420 C2422 1.391 . S
C2421 C2420 1.386 . S
C2421 C2425 1.393 . S
C2422 H2414 0.950 . S
C2422 C2420 1.391 . S
C2422 C2423 1.400 . S
C2423 C2422 1.400 . S
C2423 C2424 1.398 . S
C2423 C2429 1.491 . S
C2424 H2415 0.950 . S
C2424 C2423 1.398 . S
C2424 C2425 1.391 . S
C2425 H2413 0.950 . S
C2425 C2421 1.393 . S
C2425 C2424 1.391 . S
C2426 H2416 0.950 . S
C2426 C2427 1.386 . S
C2426 C2428 1.391 . S
C2427 C2426 1.386 . S
C2427 C2431 1.393 . S
C2428 H2417 0.950 . S
C2428 C2426 1.391 . S
C2428 C2429 1.400 . S
C2429 C2423 1.491 . S
C2429 C2428 1.400 . S
C2429 C2430 1.398 . S
C2430 H2418 0.950 . S
C2430 C2429 1.398 . S
C2430 C2431 1.391 . S
C2431 H2419 0.950 . S
C2431 C2427 1.393 . S
C2431 C2430 1.391 . S
H2432 C2440 0.950 . S
H2433 C2445 0.950 . S
H2434 C2442 0.950 . S
H2435 C2444 0.950 . S
H2436 C2446 0.950 . S
H2437 C2448 0.950 . S
H2438 C2450 0.950 . S
H2439 C2451 0.950 . S
C2440 H2432 0.950 . S
C2440 C2441 1.386 . S
C2440 C2442 1.391 . S
C2441 C2440 1.386 . S
C2441 C2445 1.393 . S
C2442 H2434 0.950 . S
C2442 C2440 1.391 . S
C2442 C2443 1.400 . S
C2443 C2442 1.400 . S
C2443 C2444 1.398 . S
C2443 C2449 1.491 . S
C2444 H2435 0.950 . S
C2444 C2443 1.398 . S
C2444 C2445 1.391 . S
C2445 H2433 0.950 . S
C2445 C2441 1.393 . S
C2445 C2444 1.391 . S
C2446 H2436 0.950 . S
C2446 C2447 1.386 . S
C2446 C2448 1.391 . S
C2447 C2446 1.386 . S
C2447 C2451 1.393 . S
C2448 H2437 0.950 . S
C2448 C2446 1.391 . S
C2448 C2449 1.400 . S
C2449 C2443 1.491 . S
C2449 C2448 1.400 . S
C2449 C2450 1.398 . S
C2450 H2438 0.950 . S
C2450 C2449 1.398 . S
C2450 C2451 1.391 . S
C2451 H2439 0.950 . S
C2451 C2447 1.393 . S
C2451 C2450 1.391 . S
H2452 C2460 0.950 . S
H2453 C2465 0.950 . S
H2454 C2462 0.950 . S
H2455 C2464 0.950 . S
H2456 C2466 0.950 . S
H2457 C2468 0.950 . S
H2458 C2470 0.950 . S
H2459 C2471 0.950 . S
C2460 H2452 0.950 . S
C2460 C2461 1.386 . S
C2460 C2462 1.391 . S
C2461 C2460 1.386 . S
C2461 C2465 1.393 . S
C2462 H2454 0.950 . S
C2462 C2460 1.391 . S
C2462 C2463 1.400 . S
C2463 C2462 1.400 . S
C2463 C2464 1.398 . S
C2463 C2469 1.491 . S
C2464 H2455 0.950 . S
C2464 C2463 1.398 . S
C2464 C2465 1.391 . S
C2465 H2453 0.950 . S
C2465 C2461 1.393 . S
C2465 C2464 1.391 . S
C2466 H2456 0.950 . S
C2466 C2467 1.386 . S
C2466 C2468 1.391 . S
C2467 C2466 1.386 . S
C2467 C2471 1.393 . S
C2468 H2457 0.950 . S
C2468 C2466 1.391 . S
C2468 C2469 1.400 . S
C2469 C2463 1.491 . S
C2469 C2468 1.400 . S
C2469 C2470 1.398 . S
C2470 H2458 0.950 . S
C2470 C2469 1.398 . S
C2470 C2471 1.391 . S
C2471 H2459 0.950 . S
C2471 C2467 1.393 . S
C2471 C2470 1.391 . S
H2472 C2480 0.950 . S
H2473 C2485 0.950 . S
H2474 C2482 0.950 . S
H2475 C2484 0.950 . S
H2476 C2486 0.950 . S
H2477 C2488 0.950 . S
H2478 C2490 0.950 . S
H2479 C2491 0.950 . S
C2480 H2472 0.950 . S
C2480 C2481 1.386 . S
C2480 C2482 1.391 . S
C2481 C2480 1.386 . S
C2481 C2485 1.393 . S
C2482 H2474 0.950 . S
C2482 C2480 1.391 . S
C2482 C2483 1.400 . S
C2483 C2482 1.400 . S
C2483 C2484 1.398 . S
C2483 C2489 1.491 . S
C2484 H2475 0.950 . S
C2484 C2483 1.398 . S
C2484 C2485 1.391 . S
C2485 H2473 0.950 . S
C2485 C2481 1.393 . S
C2485 C2484 1.391 . S
C2486 H2476 0.950 . S
C2486 C2487 1.386 . S
C2486 C2488 1.391 . S
C2487 C2486 1.386 . S
C2487 C2491 1.393 . S
C2488 H2477 0.950 . S
C2488 C2486 1.391 . S
C2488 C2489 1.400 . S
C2489 C2483 1.491 . S
C2489 C2488 1.400 . S
C2489 C2490 1.398 . S
C2490 H2478 0.950 . S
C2490 C2489 1.398 . S
C2490 C2491 1.391 . S
C2491 H2479 0.950 . S
C2491 C2487 1.393 . S
C2491 C2490 1.391 . S
H2492 C2500 0.950 . S
H2493 C2505 0.950 . S
H2494 C2502 0.950 . S
H2495 C2504 0.950 . S
H2496 C2506 0.950 . S
H2497 C2508 0.950 . S
H2498 C2510 0.950 . S
H2499 C2511 0.950 . S
C2500 H2492 0.950 . S
C2500 C2501 1.386 . S
C2500 C2502 1.391 . S
C2501 C2500 1.386 . S
C2501 C2505 1.393 . S
C2502 H2494 0.950 . S
C2502 C2500 1.391 . S
C2502 C2503 1.400 . S
C2503 C2502 1.400 . S
C2503 C2504 1.398 . S
C2503 C2509 1.491 . S
C2504 H2495 0.950 . S
C2504 C2503 1.398 . S
C2504 C2505 1.391 . S
C2505 H2493 0.950 . S
C2505 C2501 1.393 . S
C2505 C2504 1.391 . S
C2506 H2496 0.950 . S
C2506 C2507 1.386 . S
C2506 C2508 1.391 . S
C2507 C2506 1.386 . S
C2507 C2511 1.393 . S
C2508 H2497 0.950 . S
C2508 C2506 1.391 . S
C2508 C2509 1.400 . S
C2509 C2503 1.491 . S
C2509 C2508 1.400 . S
C2509 C2510 1.398 . S
C2510 H2498 0.950 . S
C2510 C2509 1.398 . S
C2510 C2511 1.391 . S
C2511 H2499 0.950 . S
C2511 C2507 1.393 . S
C2511 C2510 1.391 . S
H2512 C2520 0.950 . S
H2513 C2525 0.950 . S
H2514 C2522 0.950 . S
H2515 C2524 0.950 . S
H2516 C2526 0.950 . S
H2517 C2528 0.950 . S
H2518 C2530 0.950 . S
H2519 C2531 0.950 . S
C2520 H2512 0.950 . S
C2520 C2521 1.386 . S
C2520 C2522 1.391 . S
C2521 C2520 1.386 . S
C2521 C2525 1.393 . S
C2522 H2514 0.950 . S
C2522 C2520 1.391 . S
C2522 C2523 1.400 . S
C2523 C2522 1.400 . S
C2523 C2524 1.398 . S
C2523 C2529 1.491 . S
C2524 H2515 0.950 . S
C2524 C2523 1.398 . S
C2524 C2525 1.391 . S
C2525 H2513 0.950 . S
C2525 C2521 1.393 . S
C2525 C2524 1.391 . S
C2526 H2516 0.950 . S
C2526 C2527 1.386 . S
C2526 C2528 1.391 . S
C2527 C2526 1.386 . S
C2527 C2531 1.393 . S
C2528 H2517 0.950 . S
C2528 C2526 1.391 . S
C2528 C2529 1.400 . S
C2529 C2523 1.491 . S
C2529 C2528 1.400 . S
C2529 C2530 1.398 . S
C2530 H2518 0.950 . S
C2530 C2529 1.398 . S
C2530 C2531 1.391 . S
C2531 H2519 0.950 . S
C2531 C2527 1.393 . S
C2531 C2530 1.391 . S
H2532 C2540 0.950 . S
H2533 C2545 0.950 . S
H2534 C2542 0.950 . S
H2535 C2544 0.950 . S
H2536 C2546 0.950 . S
H2537 C2548 0.950 . S
H2538 C2550 0.950 . S
H2539 C2551 0.950 . S
C2540 H2532 0.950 . S
C2540 C2541 1.386 . S
C2540 C2542 1.391 . S
C2541 C2540 1.386 . S
C2541 C2545 1.393 . S
C2542 H2534 0.950 . S
C2542 C2540 1.391 . S
C2542 C2543 1.400 . S
C2543 C2542 1.400 . S
C2543 C2544 1.398 . S
C2543 C2549 1.491 . S
C2544 H2535 0.950 . S
C2544 C2543 1.398 . S
C2544 C2545 1.391 . S
C2545 H2533 0.950 . S
C2545 C2541 1.393 . S
C2545 C2544 1.391 . S
C2546 H2536 0.950 . S
C2546 C2547 1.386 . S
C2546 C2548 1.391 . S
C2547 C2546 1.386 . S
C2547 C2551 1.393 . S
C2548 H2537 0.950 . S
C2548 C2546 1.391 . S
C2548 C2549 1.400 . S
C2549 C2543 1.491 . S
C2549 C2548 1.400 . S
C2549 C2550 1.398 . S
C2550 H2538 0.950 . S
C2550 C2549 1.398 . S
C2550 C2551 1.391 . S
C2551 H2539 0.950 . S
C2551 C2547 1.393 . S
C2551 C2550 1.391 . S
H2552 C2560 0.950 . S
H2553 C2565 0.950 . S
H2554 C2562 0.950 . S
H2555 C2564 0.950 . S
H2556 C2566 0.950 . S
H2557 C2568 0.950 . S
H2558 C2570 0.950 . S
H2559 C2571 0.950 . S
C2560 H2552 0.950 . S
C2560 C2561 1.386 . S
C2560 C2562 1.391 . S
C2561 C2560 1.386 . S
C2561 C2565 1.393 . S
C2562 H2554 0.950 . S
C2562 C2560 1.391 . S
C2562 C2563 1.400 . S
C2563 C2562 1.400 . S
C2563 C2564 1.398 . S
C2563 C2569 1.491 . S
C2564 H2555 0.950 . S
C2564 C2563 1.398 . S
C2564 C2565 1.391 . S
C2565 H2553 0.950 . S
C2565 C2561 1.393 . S
C2565 C2564 1.391 . S
C2566 H2556 0.950 . S
C2566 C2567 1.386 . S
C2566 C2568 1.391 . S
C2567 C2566 1.386 . S
C2567 C2571 1.393 . S
C2568 H2557 0.950 . S
C2568 C2566 1.391 . S
C2568 C2569 1.400 . S
C2569 C2563 1.491 . S
C2569 C2568 1.400 . S
C2569 C2570 1.398 . S
C2570 H2558 0.950 . S
C2570 C2569 1.398 . S
C2570 C2571 1.391 . S
C2571 H2559 0.950 . S
C2571 C2567 1.393 . S
C2571 C2570 1.391 . S
H2572 C2580 0.950 . S
H2573 C2585 0.950 . S
H2574 C2582 0.950 . S
H2575 C2584 0.950 . S
H2576 C2586 0.950 . S
H2577 C2588 0.950 . S
H2578 C2590 0.950 . S
H2579 C2591 0.950 . S
C2580 H2572 0.950 . S
C2580 C2581 1.386 . S
C2580 C2582 1.391 . S
C2581 C2580 1.386 . S
C2581 C2585 1.393 . S
C2582 H2574 0.950 . S
C2582 C2580 1.391 . S
C2582 C2583 1.400 . S
C2583 C2582 1.400 . S
C2583 C2584 1.398 . S
C2583 C2589 1.491 . S
C2584 H2575 0.950 . S
C2584 C2583 1.398 . S
C2584 C2585 1.391 . S
C2585 H2573 0.950 . S
C2585 C2581 1.393 . S
C2585 C2584 1.391 . S
C2586 H2576 0.950 . S
C2586 C2587 1.386 . S
C2586 C2588 1.391 . S
C2587 C2586 1.386 . S
C2587 C2591 1.393 . S
C2588 H2577 0.950 . S
C2588 C2586 1.391 . S
C2588 C2589 1.400 . S
C2589 C2583 1.491 . S
C2589 C2588 1.400 . S
C2589 C2590 1.398 . S
C2590 H2578 0.950 . S
C2590 C2589 1.398 . S
C2590 C2591 1.391 . S
C2591 H2579 0.950 . S
C2591 C2587 1.393 . S
C2591 C2590 1.391 . S
C681 C442 1.379 . S
C687 C8 1.381 . S
C701 C22 1.381 . S
C707 C400 1.379 . S
C721 C36 1.380 . S
C727 C414 1.379 . S
C741 C428 1.381 . S
C747 C50 1.380 . S
C761 C358 1.379 . S
C767 C64 1.381 . S
C781 C78 1.379 . S
C787 C372 1.380 . S
C801 C386 1.380 . S
C807 C92 1.379 . S
C821 C106 1.380 . S
C827 C344 1.381 . S
C841 C120 1.379 . S
C847 C624 1.381 . S
C861 C582 1.381 . S
C867 C134 1.380 . S
C881 C596 1.381 . S
C887 C148 1.380 . S
C901 C162 1.379 . S
C907 C610 1.380 . S
C921 C176 1.379 . S
C927 C666 1.380 . S
C941 C190 1.380 . S
C947 C638 1.381 . S
C961 C204 1.379 . S
C967 C652 1.380 . S
C981 C568 1.380 . S
C987 C218 1.379 . S
C1001 C554 1.379 . S
C1007 C232 1.381 . S
C1021 C246 1.380 . S
C1027 C470 1.379 . S
C1041 C484 1.380 . S
C1047 C260 1.381 . S
C1061 C274 1.381 . S
C1067 C498 1.381 . S
C1081 C456 1.380 . S
C1087 C288 1.381 . S
C1101 C526 1.380 . S
C1107 C302 1.379 . S
C1121 C316 1.381 . S
C1127 C540 1.379 . S
C1141 C512 1.379 . S
C1147 C330 1.381 . S
C1161 C133 1.306 . S
C1167 C7 1.308 . S
C1181 C147 1.312 . S
C1187 C21 1.304 . S
C1201 C35 1.306 . S
C1207 C161 1.320 . S
C1221 C119 1.316 . S
C1227 C49 1.302 . S
C1241 C63 1.307 . S
C1247 C217 1.308 . S
C1261 C175 1.318 . S
C1267 C77 1.301 . S
C1281 C189 1.302 . S
C1287 C91 1.315 . S
C1301 C203 1.302 . S
C1307 C105 1.319 . S
C1321 C259 1.319 . S
C1327 C231 1.301 . S
C1341 C315 1.312 . S
C1347 C245 1.316 . S
C1361 C329 1.319 . S
C1367 C273 1.308 . S
C1381 C287 1.303 . S
C1387 C301 1.320 . S
C1401 C469 1.312 . S
C1407 C343 1.303 . S
C1421 C483 1.304 . S
C1427 C357 1.311 . S
C1441 C497 1.319 . S
C1447 C371 1.308 . S
C1461 C385 1.302 . S
C1467 C455 1.316 . S
C1481 C399 1.301 . S
C1487 C553 1.319 . S
C1501 C413 1.319 . S
C1507 C511 1.307 . S
C1521 C525 1.302 . S
C1527 C427 1.320 . S
C1541 C539 1.302 . S
C1547 C441 1.314 . S
C1561 C567 1.302 . S
C1567 C595 1.320 . S
C1581 C651 1.317 . S
C1587 C581 1.311 . S
C1601 C665 1.301 . S
C1607 C609 1.317 . S
C1621 C637 1.302 . S
C1627 C623 1.314 . S
C1641 C3 1.436 . S
C1647 C261 1.418 . S
C1661 C17 1.429 . S
C1667 C275 1.397 . S
C1681 C31 1.436 . S
C1687 C289 1.418 . S
C1701 C247 1.411 . S
C1707 C45 1.431 . S
C1721 C59 1.430 . S
C1727 C317 1.396 . S
C1741 C73 1.437 . S
C1747 C233 1.406 . S
C1761 C331 1.419 . S
C1767 C87 1.438 . S
C1781 C303 1.411 . S
C1787 C101 1.431 . S
C1801 C115 1.428 . S
C1807 C135 1.399 . S
C1821 C129 1.433 . S
C1827 C149 1.398 . S
C1841 C143 1.435 . S
C1847 C163 1.417 . S
C1861 C121 1.402 . S
C1867 C157 1.428 . S
C1881 C219 1.418 . S
C1887 C171 1.436 . S
C1901 C177 1.402 . S
C1907 C185 1.428 . S
C1921 C191 1.403 . S
C1927 C199 1.436 . S
C1941 C213 1.439 . S
C1947 C205 1.417 . S
C1961 C51 1.396 . S
C1967 C227 1.430 . S
C1981 C79 1.413 . S
C1987 C241 1.439 . S
C2001 C93 1.409 . S
C2007 C255 1.438 . S
C2021 C269 1.428 . S
C2027 C107 1.402 . S
C2041 C65 1.401 . S
C2047 C283 1.428 . S
C2061 C23 1.408 . S
C2067 C297 1.430 . S
C2081 C37 1.410 . S
C2087 C311 1.438 . S
C2101 C9 1.403 . S
C2107 C325 1.428 . S
C2121 C597 1.415 . S
C2127 C339 1.439 . S
C2141 C353 1.429 . S
C2147 C611 1.404 . S
C2161 C625 1.410 . S
C2167 C367 1.438 . S
C2181 C583 1.407 . S
C2187 C381 1.429 . S
C2201 C395 1.439 . S
C2207 C653 1.415 . S
C2221 C409 1.439 . S
C2227 C569 1.417 . S
C2241 C667 1.408 . S
C2247 C423 1.430 . S
C2261 C437 1.429 . S
C2267 C639 1.397 . S
C2281 C451 1.438 . S
C2287 C471 1.419 . S
C2301 C465 1.438 . S
C2307 C485 1.419 . S
C2321 C479 1.437 . S
C2327 C499 1.418 . S
C2341 C493 1.430 . S
C2347 C457 1.396 . S
C2361 C555 1.411 . S
C2367 C507 1.431 . S
C2381 C513 1.417 . S
C2387 C521 1.439 . S
C2401 C527 1.409 . S
C2407 C535 1.438 . S
C2421 C549 1.434 . S
C2427 C541 1.400 . S
C2441 C387 1.397 . S
C2447 C563 1.431 . S
C2461 C415 1.397 . S
C2467 C577 1.431 . S
C2481 C429 1.412 . S
C2487 C591 1.439 . S
C2501 C605 1.430 . S
C2507 C443 1.396 . S
C2521 C401 1.400 . S
C2527 C619 1.434 . S
C2541 C359 1.402 . S
C2547 C633 1.435 . S
C2561 C647 1.435 . S
C2567 C373 1.417 . S
C2581 C345 1.396 . S
C2587 C661 1.430 . S
