# Generated by pormake.
# Topology crr, (4)-cn, num edge types: 1
# Building blocks:
#     Node 0, Type 0, BuildingBlock: ESEHIV_clean_sbu_0, # of connection points: 4
#     Node 1, Type 0, BuildingBlock: ESEHIV_clean_sbu_0, # of connection points: 4
#     Node 2, Type 0, BuildingBlock: ESEHIV_clean_sbu_0, # of connection points: 4
#     Node 3, Type 0, BuildingBlock: ESEHIV_clean_sbu_0, # of connection points: 4
#     Node 4, Type 0, BuildingBlock: ESEHIV_clean_sbu_0, # of connection points: 4
#     Node 5, Type 0, BuildingBlock: ESEHIV_clean_sbu_0, # of connection points: 4
#     Node 6, Type 0, BuildingBlock: ESEHIV_clean_sbu_0, # of connection points: 4
#     Node 7, Type 0, BuildingBlock: ESEHIV_clean_sbu_0, # of connection points: 4
#     Node 8, Type 0, BuildingBlock: ESEHIV_clean_sbu_0, # of connection points: 4
#     Node 9, Type 0, BuildingBlock: ESEHIV_clean_sbu_0, # of connection points: 4
#     Node 10, Type 0, BuildingBlock: ESEHIV_clean_sbu_0, # of connection points: 4
#     Node 11, Type 0, BuildingBlock: ESEHIV_clean_sbu_0, # of connection points: 4
#     Edge 12, Type (0, 0), BuildingBlock: CIFDUS_clean_linker_0, # of connection points: 2
#     Edge 13, Type (0, 0), BuildingBlock: CIFDUS_clean_linker_0, # of connection points: 2
#     Edge 14, Type (0, 0), BuildingBlock: CIFDUS_clean_linker_0, # of connection points: 2
#     Edge 15, Type (0, 0), BuildingBlock: CIFDUS_clean_linker_0, # of connection points: 2
#     Edge 16, Type (0, 0), BuildingBlock: CIFDUS_clean_linker_0, # of connection points: 2
#     Edge 17, Type (0, 0), BuildingBlock: CIFDUS_clean_linker_0, # of connection points: 2
#     Edge 18, Type (0, 0), BuildingBlock: CIFDUS_clean_linker_0, # of connection points: 2
#     Edge 19, Type (0, 0), BuildingBlock: CIFDUS_clean_linker_0, # of connection points: 2
#     Edge 20, Type (0, 0), BuildingBlock: CIFDUS_clean_linker_0, # of connection points: 2
#     Edge 21, Type (0, 0), BuildingBlock: CIFDUS_clean_linker_0, # of connection points: 2
#     Edge 22, Type (0, 0), BuildingBlock: CIFDUS_clean_linker_0, # of connection points: 2
#     Edge 23, Type (0, 0), BuildingBlock: CIFDUS_clean_linker_0, # of connection points: 2
#     Edge 24, Type (0, 0), BuildingBlock: CIFDUS_clean_linker_0, # of connection points: 2
#     Edge 25, Type (0, 0), BuildingBlock: CIFDUS_clean_linker_0, # of connection points: 2
#     Edge 26, Type (0, 0), BuildingBlock: CIFDUS_clean_linker_0, # of connection points: 2
#     Edge 27, Type (0, 0), BuildingBlock: CIFDUS_clean_linker_0, # of connection points: 2
#     Edge 28, Type (0, 0), BuildingBlock: CIFDUS_clean_linker_0, # of connection points: 2
#     Edge 29, Type (0, 0), BuildingBlock: CIFDUS_clean_linker_0, # of connection points: 2
#     Edge 30, Type (0, 0), BuildingBlock: CIFDUS_clean_linker_0, # of connection points: 2
#     Edge 31, Type (0, 0), BuildingBlock: CIFDUS_clean_linker_0, # of connection points: 2
#     Edge 32, Type (0, 0), BuildingBlock: CIFDUS_clean_linker_0, # of connection points: 2
#     Edge 33, Type (0, 0), BuildingBlock: CIFDUS_clean_linker_0, # of connection points: 2
#     Edge 34, Type (0, 0), BuildingBlock: CIFDUS_clean_linker_0, # of connection points: 2
#     Edge 35, Type (0, 0), BuildingBlock: CIFDUS_clean_linker_0, # of connection points: 2
# Relax obj value: 0.032
# Max RMSD: 0.142
# Mean RMSD: 0.116
data_MOF--net-crr--node1-ESEHIV_clean_sbu_0--edge1-CIFDUS_clean_linker_0
_symmetry_space_group_name_H-M    P1
_symmetry_Int_Tables_number       1
_symmetry_cell_setting            triclinic
loop_
_symmetry_equiv_pos_as_xyz
'x, y, z'
_cell_length_a     37.220552
_cell_length_b     41.688796
_cell_length_c     37.488241
_cell_angle_alpha  91.637934
_cell_angle_beta   84.259139
_cell_angle_gamma 87.481592
loop_
_atom_site_label
_atom_site_type_symbol
_atom_site_fract_x
_atom_site_fract_y
_atom_site_fract_z
_atom_type_partial_charge
Cu0 Cu 0.12012 0.37913 0.38672 0.0
N1 N 0.07746 0.38769 0.36546 0.0
N2 N 0.0281 0.41494 0.35062 0.0
C3 C 0.05746 0.41561 0.36913 0.0
C4 C 0.02982 0.38528 0.33478 0.0
C5 C 0.06019 0.36853 0.34406 0.0
O6 O 0.1068 0.3903 0.43722 0.0
C7 C 0.19111 0.40271 0.36369 0.0
O8 O 0.2037 0.38805 0.39073 0.0
H9 H 0.06483 0.43624 0.38451 0.0
H10 H 0.0691 0.34418 0.33573 0.0
N11 N 0.13476 0.33519 0.38247 0.0
N12 N 0.17223 0.29118 0.37892 0.0
C13 C 0.16822 0.32263 0.37148 0.0
C14 C 0.11661 0.31059 0.39663 0.0
C15 C 0.13955 0.28349 0.39449 0.0
C16 C 0.12 0.37519 0.46223 0.0
O17 O 0.14909 0.35631 0.45442 0.0
H18 H 0.18985 0.33666 0.36003 0.0
H19 H 0.08925 0.3127 0.40956 0.0
O20 O 0.15722 0.4038 0.36085 0.0
H21 H 1.01046 0.3762 0.31778 0.0
H22 H 0.13286 0.26025 0.4047 0.0
Cu23 Cu 0.35874 0.8973 0.66036 0.0
N24 N 0.31117 0.88407 0.66468 0.0
N25 N 0.26861 0.84802 0.66285 0.0
C26 C 0.30414 0.85269 0.66292 0.0
C27 C 0.25237 0.87771 0.66478 0.0
C28 C 0.27875 0.9 0.66614 0.0
O29 O 0.38384 0.86369 0.68544 0.0
C30 C 0.35349 0.92841 0.5981 0.0
O31 O 0.32831 0.94268 0.62084 0.0
H32 H 0.32498 0.83358 0.66032 0.0
H33 H 0.27457 0.92585 0.66724 0.0
N34 N 0.36771 0.93548 0.68488 0.0
N35 N 0.403 0.97032 0.7092 0.0
C36 C 0.40106 0.94102 0.69368 0.0
C37 C 0.34746 0.96233 0.6953 0.0
C38 C 0.36937 0.98408 0.71012 0.0
C39 C 0.37344 0.86561 0.71908 0.0
O40 O 0.34964 0.88858 0.73109 0.0
H41 H 0.42388 0.92406 0.68762 0.0
H42 H 0.31913 0.96612 0.69173 0.0
O43 O 0.3723 0.90501 0.60926 0.0
H44 H 0.2236 0.88289 0.66501 0.0
H45 H 0.36131 1.00808 0.72054 0.0
Cu46 Cu 0.90911 0.64527 0.35092 0.0
N47 N 0.90936 0.6445 0.30099 0.0
N48 N 0.88639 0.64503 0.24804 0.0
C49 C 0.87932 0.64844 0.28401 0.0
C50 C 0.92252 0.63884 0.24227 0.0
C51 C 0.9366 0.63844 0.27501 0.0
O52 O 0.87259 0.67888 0.36862 0.0
C53 C 0.90693 0.5768 0.34714 0.0
O54 O 0.90036 0.58063 0.31374 0.0
H55 H 0.85278 0.65378 0.29799 0.0
H56 H 0.9645 0.63343 0.27956 0.0
N57 N 0.95206 0.65804 0.36756 0.0
N58 N 0.98941 0.66797 0.40939 0.0
C59 C 0.95756 0.65623 0.40234 0.0
C60 C 0.98158 0.67123 0.35156 0.0
C61 C 1.00477 0.67734 0.37737 0.0
C62 C 0.88058 0.7063 0.35641 0.0
O63 O 0.91061 0.708 0.33506 0.0
H64 H 0.93829 0.64626 0.42203 0.0
H65 H 0.98566 0.67659 0.32343 0.0
O66 O 0.90539 0.60142 0.36843 0.0
H67 H 0.93771 0.63426 0.21634 0.0
H68 H 0.03049 0.68846 0.37293 0.0
Cu69 Cu 0.66419 0.11098 0.6794 0.0
N70 N 0.71168 0.11047 0.69192 0.0
N71 N 0.76548 0.12968 0.70116 0.0
C72 C 0.73145 0.13674 0.69319 0.0
C73 C 0.76702 0.09752 0.70513 0.0
C74 C 0.73386 0.08574 0.69927 0.0
O75 O 0.64567 0.15531 0.68888 0.0
C76 C 0.66567 0.06432 0.62404 0.0
O77 O 0.66734 0.04543 0.65133 0.0
H78 H 0.72086 0.16063 0.68837 0.0
H79 H 0.72665 0.06089 0.69974 0.0
N80 N 0.63361 0.08505 0.7075 0.0
N81 N 0.58267 0.06091 0.72521 0.0
C82 C 0.59852 0.08212 0.70286 0.0
C83 C 0.64042 0.06512 0.73387 0.0
C84 C 0.609 0.05008 0.74479 0.0
C85 C 0.63926 0.16296 0.72219 0.0
O86 O 0.64437 0.14092 0.74574 0.0
H87 H 0.58529 0.09453 0.68245 0.0
H88 H 0.66642 0.06143 0.74403 0.0
O89 O 0.6646 0.09477 0.62978 0.0
H90 H 0.79061 0.08332 0.71101 0.0
H91 H 0.60588 0.03243 0.76536 0.0
Cu92 Cu 0.11434 0.64908 0.67435 0.0
N93 N 0.11606 0.66346 0.72167 0.0
N94 N 0.14159 0.67177 0.77245 0.0
C95 C 0.14318 0.65477 0.74114 0.0
C96 C 0.11212 0.69195 0.77263 0.0
C97 C 0.09661 0.68696 0.74112 0.0
O98 O 0.15298 0.67243 0.64885 0.0
C99 C 0.09106 0.59166 0.69572 0.0
O100 O 0.06902 0.6129 0.71425 0.0
H101 H 0.16429 0.63692 0.73184 0.0
H102 H 0.07403 0.70069 0.7323 0.0
N103 N 0.07121 0.66022 0.65475 0.0
N104 N 0.03384 0.66831 0.61226 0.0
C105 C 0.06757 0.65906 0.61935 0.0
C106 C 0.0386 0.67031 0.67084 0.0
C107 C 1.01553 0.67537 0.64473 0.0
C108 C 0.14408 0.70202 0.64506 0.0
O109 O 0.11074 0.71242 0.65528 0.0
H110 H 0.08933 0.65111 0.59932 0.0
H111 H 0.03192 0.67355 0.69947 0.0
O112 O 0.11679 0.60204 0.67462 0.0
H113 H 0.10343 0.7102 0.79318 0.0
H114 H 0.98751 0.68382 0.64944 0.0
Cu115 Cu 0.68172 0.92498 0.37928 0.0
N116 N 0.73119 0.91342 0.37299 0.0
N117 N 0.78073 0.88036 0.36788 0.0
C118 C 0.74435 0.88288 0.37431 0.0
C119 C 0.79074 0.91082 0.36248 0.0
C120 C 0.76014 0.93112 0.36557 0.0
O121 O 0.65876 0.89159 0.35283 0.0
C122 C 0.68352 0.95743 0.44246 0.0
O123 O 0.70643 0.97195 0.42014 0.0
H124 H 0.72718 0.8628 0.37875 0.0
H125 H 0.75908 0.95682 0.36226 0.0
N126 N 0.66759 0.96418 0.36045 0.0
N127 N 0.63145 1.00835 0.35892 0.0
C128 C 0.63785 0.98075 0.37545 0.0
C129 C 0.68061 0.98175 0.33287 0.0
C130 C 0.65806 1.00908 0.33171 0.0
C131 C 0.67325 0.88791 0.32048 0.0
O132 O 0.69917 0.90675 0.3094 0.0
H133 H 0.6208 0.97232 0.39803 0.0
H134 H 0.70458 0.97523 0.31495 0.0
O135 O 0.66886 0.93244 0.43101 0.0
H136 H 0.81816 0.91812 0.35656 0.0
H137 H 0.66118 0.02805 0.31268 0.0
Cu138 Cu 0.93248 0.36286 0.69366 0.0
N139 N 0.92754 0.31932 0.70395 0.0
N140 N 0.90055 0.27216 0.70589 0.0
C141 C 0.90708 0.29895 0.68715 0.0
C142 C 0.91862 0.27557 0.73519 0.0
C143 C 0.93503 0.30465 0.73399 0.0
O144 O 0.88823 0.38563 0.71547 0.0
C145 C 0.9745 0.35223 0.63028 0.0
O146 O 0.98801 0.33062 0.65067 0.0
H147 H 0.89541 0.30474 0.66272 0.0
H148 H 0.94899 0.31545 0.75492 0.0
N149 N 0.97086 0.38096 0.71453 0.0
N150 N 1.00804 0.4205 0.72344 0.0
C151 C 0.97417 0.41291 0.71774 0.0
C152 C 1.00384 0.36779 0.71873 0.0
C153 C 0.02693 0.39222 0.72409 0.0
C154 C 0.85662 0.37581 0.71277 0.0
O155 O 0.85227 0.35348 0.68838 0.0
H156 H 0.95293 0.43035 0.71288 0.0
H157 H 1.0113 0.34243 0.71547 0.0
O158 O 0.94555 0.36809 0.64246 0.0
H159 H 0.91773 0.2595 0.7574 0.0
H160 H 0.05556 0.38949 0.72686 0.0
Cu161 Cu 0.37048 0.10328 0.3564 0.0
N162 N 0.36034 0.10538 0.3085 0.0
N163 N 0.34934 0.13356 0.26025 0.0
C164 C 0.34031 0.1293 0.29561 0.0
C165 C 0.37497 0.11019 0.25021 0.0
C166 C 0.38179 0.09304 0.27996 0.0
O167 O 0.33926 0.13633 0.38349 0.0
C168 C 0.44098 0.1008 0.37967 0.0
O169 O 0.42449 0.09295 0.4106 0.0
H170 H 0.32184 0.14518 0.31257 0.0
H171 H 0.40388 0.07555 0.2815 0.0
N172 N 0.3628 0.06259 0.37532 0.0
N173 N 0.35797 0.02447 0.4164 0.0
C174 C 0.35385 0.05618 0.41008 0.0
C175 C 0.37279 0.03392 0.35905 0.0
C176 C 0.36978 1.01039 0.38426 0.0
C177 C 0.34114 0.16592 0.37615 0.0
O178 O 0.36849 0.17471 0.35425 0.0
H179 H 0.34679 0.07471 0.43072 0.0
H180 H 0.38334 0.03058 0.33118 0.0
O181 O 0.42209 0.10946 0.35486 0.0
H182 H 0.39069 0.10793 0.2243 0.0
H183 H 0.37652 0.98502 0.37941 0.0
Cu184 Cu 0.36382 0.3723 0.12075 0.0
N185 N 0.35035 0.32967 0.11521 0.0
N186 N 0.3418 0.27825 0.1282 0.0
C187 C 0.3513 0.30721 0.14034 0.0
C188 C 0.33449 0.28271 0.09411 0.0
C189 C 0.33965 0.3144 0.08623 0.0
O190 O 0.35315 0.3839 0.17205 0.0
C191 C 0.42097 0.36825 0.06706 0.0
O192 O 0.3944 0.35843 0.04962 0.0
H193 H 0.35987 0.31186 0.16668 0.0
H194 H 0.33634 0.32528 0.06087 0.0
N195 N 0.33642 0.40094 0.0956 0.0
N196 N 0.31618 0.4481 0.07655 0.0
C197 C 0.34056 0.43284 0.09526 0.0
C198 C 0.30838 0.39571 0.07646 0.0
C199 C 0.29594 0.42477 0.06452 0.0
C200 C 0.31989 0.39052 0.18274 0.0
O201 O 0.29608 0.38968 0.15919 0.0
H202 H 0.36123 0.44453 0.1085 0.0
H203 H 0.29713 0.37263 0.07222 0.0
O204 O 0.41435 0.37578 0.10044 0.0
H205 H 0.32606 0.26438 0.07611 0.0
H206 H 0.27325 0.42848 0.04894 0.0
Cu207 Cu 0.36207 0.67648 0.93108 0.0
N208 N 0.36287 0.72082 0.92538 0.0
N209 N 0.37003 0.76594 0.89482 0.0
C210 C 0.3739 0.73356 0.89373 0.0
C211 C 0.35609 0.77375 0.92887 0.0
C212 C 0.35169 0.7459 0.94762 0.0
O213 O 0.33823 0.66114 0.89006 0.0
C214 C 0.42124 0.66887 0.96815 0.0
O215 O 0.39833 0.68583 0.99089 0.0
H216 H 0.38417 0.71903 0.87025 0.0
H217 H 0.34034 0.74412 0.97512 0.0
N218 N 0.33329 0.66204 0.97081 0.0
N219 N 0.30891 0.62371 1.00454 0.0
C220 C 0.32518 0.631 0.97231 0.0
C221 C 0.32117 0.67522 1.00329 0.0
C222 C 0.30643 0.65139 0.02438 0.0
C223 C 0.30555 0.6725 0.8928 0.0
O224 O 0.29435 0.69162 0.92055 0.0
H225 H 0.33333 0.61354 0.95075 0.0
H226 H 0.32466 0.69977 1.01181 0.0
O227 O 0.41167 0.66144 0.93724 0.0
H228 H 0.34838 0.79778 0.93936 0.0
H229 H 0.29589 0.65392 0.05234 0.0
Cu230 Cu 0.66113 0.68685 0.09777 0.0
N231 N 0.68759 0.67888 0.05303 0.0
N232 N 0.70474 0.64858 1.00352 0.0
C233 C 0.68929 0.64932 0.03764 0.0
C234 C 0.71346 0.67922 0.99725 0.0
C235 C 0.70284 0.69794 0.02798 0.0
O236 O 0.61345 0.67048 0.09081 0.0
C237 C 0.72299 0.67129 0.12886 0.0
O238 O 0.73485 0.68973 0.10283 0.0
H239 H 0.67684 0.62919 0.0507 0.0
H240 H 0.70448 0.72369 0.03119 0.0
N241 N 0.65431 0.73013 0.11329 0.0
N242 N 0.6535 0.77155 0.15285 0.0
C243 C 0.67123 0.7442 0.13942 0.0
C244 C 0.62494 0.74951 0.11008 0.0
C245 C 0.62439 0.77508 0.13442 0.0
C246 C 0.60134 0.67818 0.06126 0.0
O247 O 0.61987 0.69741 0.04008 0.0
H248 H 0.69431 0.73328 0.1506 0.0
H249 H 0.60382 0.74419 0.09331 0.0
O250 O 0.68937 0.66557 0.13255 0.0
H251 H 0.72553 0.68774 0.97203 0.0
H252 H 0.60352 0.79407 0.13918 0.0
Cu253 Cu 0.65302 0.39387 0.88183 0.0
N254 N 0.67001 0.4354 0.87995 0.0
N255 N 0.68607 0.48366 0.89864 0.0
C256 C 0.66817 0.45703 0.90751 0.0
C257 C 0.6997 0.47853 0.86413 0.0
C258 C 0.69001 0.44864 0.85279 0.0
O259 O 0.60954 0.39303 0.91621 0.0
C260 C 0.72141 0.35695 0.88427 0.0
O261 O 0.74267 0.33907 0.90231 0.0
H262 H 0.65453 0.45298 0.93375 0.0
H263 H 0.69825 0.4369 0.827 0.0
N264 N 0.64304 0.37869 0.83644 0.0
N265 N 0.63619 0.34417 0.79107 0.0
C266 C 0.63992 0.34774 0.82641 0.0
C267 C 0.64043 0.39537 0.80648 0.0
C268 C 0.63652 0.3741 0.77838 0.0
C269 C 0.59696 0.36603 0.9247 0.0
O270 O 0.61343 0.33966 0.91006 0.0
H271 H 0.64247 0.328 0.84423 0.0
H272 H 0.64195 0.42112 0.80494 0.0
O273 O 0.69039 0.36639 0.89941 0.0
H274 H 0.71677 0.49458 0.84871 0.0
H275 H 0.6344 0.38014 0.75075 0.0
H276 H 0.18851 0.23797 0.41562 0.0
H277 H 0.23208 0.29971 0.33305 0.0
H278 H 0.2892 0.26838 0.3278 0.0
H279 H 0.32664 0.22283 0.34543 0.0
H280 H 0.28213 0.15854 0.42468 0.0
H281 H 0.22586 0.19175 0.43273 0.0
C282 C 0.21025 0.24448 0.39619 0.0
C283 C 0.20561 0.27146 0.37487 0.0
C284 C 0.24317 0.22604 0.39294 0.0
C285 C 0.23466 0.27952 0.35024 0.0
C286 C 0.26748 0.2615 0.34711 0.0
C287 C 0.30479 0.21614 0.3647 0.0
C288 C 0.30876 0.18814 0.38444 0.0
C289 C 0.27206 0.23474 0.36832 0.0
C290 C 0.27995 0.17995 0.40918 0.0
C291 C 0.24764 0.19885 0.41364 0.0
H292 H 0.21404 0.83424 0.62407 0.0
H293 H 0.28724 0.79304 0.69405 0.0
H294 H 0.25889 0.74128 0.69006 0.0
H295 H 0.20927 0.70921 0.67088 0.0
H296 H 0.13599 0.75125 0.60136 0.0
H297 H 0.1688 0.8007 0.59998 0.0
C298 C 0.22368 0.81388 0.6384 0.0
C299 C 0.25224 0.8175 0.65974 0.0
C300 C 0.20753 0.78416 0.6356 0.0
C301 C 0.26514 0.79078 0.67757 0.0
C302 C 0.24898 0.7612 0.67525 0.0
C303 C 0.20145 0.72878 0.65438 0.0
C304 C 0.17056 0.72654 0.6359 0.0
C305 C 0.2198 0.75768 0.65469 0.0
C306 C 0.15998 0.75239 0.61545 0.0
C307 C 0.17843 0.78081 0.61502 0.0
H308 H 0.76507 0.82189 0.39484 0.0
H309 H 0.84845 0.87215 0.33377 0.0
H310 H 0.88646 0.82314 0.3267 0.0
H311 H 0.89572 0.76605 0.33562 0.0
H312 H 0.81296 0.71389 0.39468 0.0
H313 H 0.77489 0.76367 0.40443 0.0
C314 C 0.79142 0.8222 0.37978 0.0
C315 C 0.80359 0.85111 0.36487 0.0
C316 C 0.81326 0.79353 0.3753 0.0
C317 C 0.83825 0.85075 0.346 0.0
C318 C 0.86005 0.82254 0.34168 0.0
C319 C 0.86937 0.76534 0.35073 0.0
C320 C 0.85722 0.73608 0.36428 0.0
C321 C 0.84775 0.79382 0.35596 0.0
C322 C 0.82303 0.73598 0.38393 0.0
C323 C 0.80126 0.76447 0.38943 0.0
H324 H 0.89781 0.21207 0.73179 0.0
H325 H 0.84336 0.27826 0.66624 0.0
H326 H 0.79767 0.2396 0.65819 0.0
H327 H 0.77179 0.18765 0.67085 0.0
H328 H 0.8242 0.12195 0.73833 0.0
H329 H 0.87177 0.15966 0.74438 0.0
C330 C 0.87595 0.21813 0.71581 0.0
C331 C 0.87448 0.24826 0.69961 0.0
C332 C 0.84913 0.19582 0.71164 0.0
C333 C 0.84595 0.25528 0.67862 0.0
C334 C 0.81943 0.2332 0.67421 0.0
C335 C 0.79335 0.18157 0.68718 0.0
C336 C 0.79404 0.15186 0.70424 0.0
C337 C 0.82055 0.20351 0.69082 0.0
C338 C 0.82291 0.14438 0.7246 0.0
C339 C 0.85012 0.16607 0.72824 0.0
H340 H 0.32686 0.27111 0.19928 0.0
H341 H 0.35603 0.21816 0.09939 0.0
H342 H 0.35831 0.16793 0.1313 0.0
H343 H 0.35502 0.13928 0.1881 0.0
H344 H 0.32674 0.19306 0.28783 0.0
H345 H 0.32053 0.2422 0.25561 0.0
C346 C 0.33379 0.24858 0.18453 0.0
C347 C 0.34152 0.24849 0.14702 0.0
C348 C 0.33506 0.21975 0.20307 0.0
C349 C 0.34975 0.21896 0.12822 0.0
C350 C 0.35122 0.1902 0.1465 0.0
C351 C 0.34741 0.1617 0.2028 0.0
C352 C 0.34161 0.16207 0.24056 0.0
C353 C 0.34434 0.19033 0.184 0.0
C354 C 0.33111 0.1915 0.25894 0.0
C355 C 0.32785 0.21993 0.24047 0.0
H356 H 0.23341 0.68188 0.90284 0.0
H357 H 0.31943 0.64891 0.82275 0.0
H358 H 0.2755 0.64445 0.77819 0.0
H359 H 0.21303 0.65363 0.7616 0.0
H360 H 0.12836 0.68708 0.84305 0.0
H361 H 0.17175 0.68814 0.88751 0.0
C362 C 0.24275 0.67358 0.87566 0.0
C363 C 0.27976 0.66602 0.86604 0.0
C364 C 0.2176 0.67152 0.85041 0.0
C365 C 0.29111 0.65485 0.83085 0.0
C366 C 0.26601 0.6525 0.80538 0.0
C367 C 0.20395 0.66071 0.78916 0.0
C368 C 0.16734 0.67053 0.79884 0.0
C369 C 0.22922 0.66127 0.81476 0.0
C370 C 0.15631 0.67997 0.83467 0.0
C371 C 0.1811 0.6804 0.86018 0.0
H372 H 0.60735 0.79772 0.20743 0.0
H373 H 0.7197 0.78845 0.16607 0.0
H374 H 0.73577 0.82216 0.21598 0.0
H375 H 0.71772 0.85601 0.2696 0.0
H376 H 0.60612 0.86426 0.31364 0.0
H377 H 0.58973 0.82873 0.26485 0.0
C378 C 0.63527 0.80325 0.20942 0.0
C379 C 0.66236 0.79103 0.18287 0.0
C380 C 0.64435 0.82219 0.23872 0.0
C381 C 0.69853 0.79768 0.18612 0.0
C382 C 0.70766 0.81693 0.21462 0.0
C383 C 0.6898 0.84982 0.26872 0.0
C384 C 0.66307 0.86291 0.29497 0.0
C385 C 0.6808 0.8295 0.24084 0.0
C386 C 0.62715 0.85434 0.29382 0.0
C387 C 0.6178 0.83428 0.26576 0.0
H388 H 0.76532 0.40385 0.86179 0.0
H389 H 0.71001 0.32286 0.82452 0.0
H390 H 0.74247 0.32577 0.76488 0.0
H391 H 0.79373 0.34539 0.72679 0.0
H392 H 0.8543 0.42253 0.76608 0.0
H393 H 0.81288 0.42732 0.82105 0.0
C394 C 0.7596 0.38765 0.84012 0.0
C395 C 0.73411 0.36411 0.84695 0.0
C396 C 0.78007 0.38834 0.80644 0.0
C397 C 0.72799 0.34228 0.81929 0.0
C398 C 0.74716 0.34354 0.78537 0.0
C399 C 0.79744 0.36381 0.74694 0.0
C400 C 0.8274 0.38336 0.74232 0.0
C401 C 0.77423 0.36569 0.77905 0.0
C402 C 0.83169 0.40698 0.76894 0.0
C403 C 0.80806 0.40966 0.8005 0.0
H404 H 0.38503 0.87805 0.78721 0.0
H405 H 0.38289 0.79992 0.70988 0.0
H406 H 0.38383 0.76123 0.75813 0.0
H407 H 0.37733 0.75076 0.82302 0.0
H408 H 0.37939 0.83001 0.89958 0.0
H409 H 0.38578 0.86719 0.85083 0.0
C410 C 0.38564 0.85246 0.78081 0.0
C411 C 0.38391 0.84178 0.74511 0.0
C412 C 0.38524 0.83068 0.80866 0.0
C413 C 0.38474 0.80866 0.73709 0.0
C414 C 0.38474 0.78663 0.76478 0.0
C415 C 0.37981 0.77602 0.82923 0.0
C416 C 0.37712 0.7874 0.8654 0.0
C417 C 0.38377 0.79748 0.80083 0.0
C418 C 0.38033 0.82044 0.87237 0.0
C419 C 0.38432 0.84179 0.8444 0.0
H420 H 0.7957 0.67077 0.11874 0.0
H421 H 0.70804 0.64817 0.19676 0.0
H422 H 0.75141 0.63684 0.24056 0.0
H423 H 0.81414 0.63624 0.25728 0.0
H424 H 0.90064 0.66062 0.17863 0.0
H425 H 0.85771 0.66806 0.13436 0.0
C426 C 0.78594 0.66318 0.14527 0.0
C427 C 0.74859 0.66054 0.15453 0.0
C428 C 0.81087 0.65714 0.17023 0.0
C429 C 0.73661 0.65031 0.18889 0.0
C430 C 0.76141 0.64403 0.21398 0.0
C431 C 0.82364 0.64334 0.23055 0.0
C432 C 0.86079 0.64805 0.22155 0.0
C433 C 0.79859 0.64791 0.20511 0.0
C434 C 0.87247 0.65656 0.18641 0.0
C435 C 0.84784 0.661 0.16104 0.0
H436 H 0.6577 0.21957 0.69113 0.0
H437 H 0.59965 0.18064 0.78426 0.0
H438 H 0.59158 0.23392 0.81304 0.0
H439 H 0.60554 0.29065 0.81429 0.0
H440 H 0.6649 0.3304 0.7227 0.0
H441 H 0.66768 0.27812 0.6907 0.0
C442 C 0.6426 0.22298 0.71734 0.0
C443 C 0.62939 0.19621 0.73559 0.0
C444 C 0.63869 0.2538 0.73424 0.0
C445 C 0.61025 0.20086 0.76975 0.0
C446 C 0.60571 0.23131 0.78632 0.0
C447 C 0.61897 0.28785 0.78728 0.0
C448 C 0.63521 0.31424 0.77102 0.0
C449 C 0.62066 0.25777 0.76927 0.0
C450 C 0.65199 0.31047 0.73573 0.0
C451 C 0.65374 0.28053 0.7175 0.0
H452 H 0.26158 0.42742 0.20864 0.0
H453 H 0.34723 0.36627 0.2426 0.0
H454 H 0.31682 0.36803 0.30396 0.0
H455 H 0.26159 0.3813 0.34559 0.0
H456 H 0.17594 0.44162 0.30967 0.0
H457 H 0.21087 0.44621 0.25167 0.0
C458 C 0.27396 0.41493 0.22963 0.0
C459 C 0.30641 0.3965 0.22106 0.0
C460 C 0.25613 0.41575 0.26448 0.0
C461 C 0.32233 0.38073 0.24856 0.0
C462 C 0.30477 0.38154 0.28357 0.0
C463 C 0.25098 0.39613 0.32541 0.0
C464 C 0.21593 0.41087 0.33198 0.0
C465 C 0.27104 0.39818 0.29159 0.0
C466 C 0.20261 0.42982 0.30534 0.0
C467 C 0.22254 0.43237 0.27206 0.0
H468 H 0.04537 0.33757 0.61217 0.0
H469 H 0.95338 0.38736 0.57397 0.0
H470 H 0.99114 0.40131 0.51957 0.0
H471 H 0.05001 0.39717 0.48194 0.0
H472 H 0.1413 0.34754 0.522 0.0
H473 H 0.10406 0.33624 0.57699 0.0
C474 C 0.03335 0.35136 0.59193 0.0
C475 C 0.99636 0.36094 0.5969 0.0
C476 C 0.05524 0.35959 0.56121 0.0
C477 C 0.98165 0.37942 0.57067 0.0
C478 C 1.00328 0.38746 0.53964 0.0
C479 C 0.06193 0.38434 0.50294 0.0
C480 C 0.09853 0.37313 0.49766 0.0
C481 C 0.04012 0.37748 0.53452 0.0
C482 C 0.11333 0.3564 0.52517 0.0
C483 C 0.09197 0.34977 0.55661 0.0
H484 H 0.39372 0.97106 0.43779 0.0
H485 H 0.31065 0.04387 0.47275 0.0
H486 H 0.30223 0.0201 0.53143 0.0
H487 H 0.31833 0.97954 0.57285 0.0
H488 H 0.40158 0.90627 0.5403 0.0
H489 H 0.40988 0.92919 0.48043 0.0
C490 C 0.37356 0.98153 0.45815 0.0
C491 C 0.35285 1.0094 0.45075 0.0
C492 C 0.36893 0.96769 0.49221 0.0
C493 C 0.32723 0.02281 0.47773 0.0
C494 C 0.32228 1.00911 0.51128 0.0
C495 C 0.33835 0.96832 0.5528 0.0
C496 C 0.35929 0.94107 0.56124 0.0
C497 C 0.34304 0.9817 0.51884 0.0
C498 C 0.38507 0.92719 0.53465 0.0
C499 C 0.38979 0.94034 0.50042 0.0
H500 H 0.07261 0.67278 0.54743 0.0
H501 H 0.96383 0.66651 0.59812 0.0
H502 H 0.94055 0.66748 0.53978 0.0
H503 H 0.95083 0.6689 0.47455 0.0
H504 H 0.05956 0.67216 0.42297 0.0
H505 H 0.08296 0.6738 0.48157 0.0
C506 C 0.04384 0.67132 0.54584 0.0
C507 C 0.02014 0.66948 0.57748 0.0
C508 C 0.03054 0.67142 0.51198 0.0
C509 C 0.98282 0.66831 0.57455 0.0
C510 C 0.96942 0.66866 0.54106 0.0
C511 C 0.97971 0.66957 0.47587 0.0
C512 C 1.00333 0.67007 0.44406 0.0
C513 C 0.99304 0.66999 0.50962 0.0
C514 C 0.04061 0.67193 0.44679 0.0
C515 C 0.05407 0.67267 0.48037 0.0
H516 H 0.65359 1.00229 0.60569 0.0
H517 H 0.67882 0.09345 0.55984 0.0
H518 H 0.68437 0.0683 0.4997 0.0
H519 H 0.68564 0.02012 0.46065 0.0
H520 H 0.65947 0.92887 0.50538 0.0
H521 H 0.65022 0.95448 0.56572 0.0
C522 C 0.66018 1.01672 0.58254 0.0
C523 C 0.66624 0.04973 0.58735 0.0
C524 C 0.66318 1.00208 0.54798 0.0
C525 C 0.67416 0.06809 0.55699 0.0
C526 C 0.67742 0.05367 0.52259 0.0
C527 C 0.6778 1.00576 0.48358 0.0
C528 C 0.67379 0.97249 0.47867 0.0
C529 C 0.67256 0.02064 0.51787 0.0
C530 C 0.66283 0.95444 0.5085 0.0
C531 C 0.65773 0.96909 0.54295 0.0
H532 H 0.48913 0.08087 0.42533 0.0
H533 H 0.48089 0.10093 0.31407 0.0
H534 H 0.54157 0.0769 0.29793 0.0
H535 H 0.59391 0.04379 0.31451 0.0
H536 H 0.60109 0.02363 0.42578 0.0
H537 H 0.54424 0.05407 0.44272 0.0
C538 C 0.5008 0.08054 0.39762 0.0
C539 C 0.48017 0.09235 0.37098 0.0
C540 C 0.5355 0.0662 0.38839 0.0
C541 C 0.49599 0.09192 0.33522 0.0
C542 C 0.5307 0.07798 0.32588 0.0
C543 C 0.58337 0.04671 0.34248 0.0
C544 C 0.60133 0.03091 0.36874 0.0
C545 C 0.55027 0.06409 0.35208 0.0
C546 C 0.58732 0.0349 0.40495 0.0
C547 C 0.55485 0.05239 0.4147 0.0
H548 H 0.03483 0.56695 0.73484 0.0
H549 H 0.12956 0.53837 0.66318 0.0
H550 H 0.11353 0.48189 0.66745 0.0
H551 H 0.07039 0.44093 0.68981 0.0
H552 H 0.97475 0.47189 0.75866 0.0
H553 H 0.99343 0.52731 0.7574 0.0
C554 C 0.05229 0.54851 0.72017 0.0
C555 C 0.08342 0.55703 0.69865 0.0
C556 C 0.0426 0.51647 0.72232 0.0
C557 C 0.10545 0.53256 0.67992 0.0
C558 C 0.09624 0.50027 0.68236 0.0
C559 C 0.05406 0.45986 0.70487 0.0
C560 C 0.02126 0.45245 0.72448 0.0
C561 C 0.06464 0.49196 0.70327 0.0
C562 C 0.99995 0.47715 0.74339 0.0
C563 C 1.01063 0.50876 0.74264 0.0
H564 H 0.55883 1.00275 0.74319 0.0
H565 H 0.52405 0.09546 0.70765 0.0
H566 H 0.46367 0.07635 0.70231 0.0
H567 H 0.4219 0.03187 0.70343 0.0
H568 H 0.45738 0.9391 0.73804 0.0
H569 H 0.51596 0.95967 0.7486 0.0
C570 C 0.53791 0.01895 0.7349 0.0
C571 C 0.54617 0.05041 0.72552 0.0
C572 C 0.50328 1.0077 0.73158 0.0
C573 C 0.51868 0.07095 0.71442 0.0
C574 C 0.48405 0.06008 0.71151 0.0
C575 C 0.44225 1.01642 0.71393 0.0
C576 C 0.43544 0.98397 0.71968 0.0
C577 C 0.4762 0.02831 0.71936 0.0
C578 C 0.4622 0.96406 0.73294 0.0
C579 C 0.49568 0.97581 0.73902 0.0
H580 H 0.91805 0.52157 0.30628 0.0
H581 H 0.93728 0.56278 0.40919 0.0
H582 H 0.97563 0.51559 0.42 0.0
H583 H 1.00745 0.4643 0.39815 0.0
H584 H 0.98899 0.4245 0.2944 0.0
H585 H 0.94667 0.46929 0.28619 0.0
C586 C 0.93013 0.52013 0.33137 0.0
C587 C 0.92473 0.54592 0.3568 0.0
C588 C 0.95274 0.4932 0.33712 0.0
C589 C 0.94073 0.54337 0.38913 0.0
C590 C 0.96296 0.51644 0.39522 0.0
C591 C 0.99422 0.46543 0.37373 0.0
C592 C 1.00173 0.44094 0.34686 0.0
C593 C 0.96987 0.49154 0.36903 0.0
C594 C 0.98368 0.44266 0.31569 0.0
C595 C 0.95952 0.46844 0.31087 0.0
H596 H 0.2906 0.47638 0.01985 0.0
H597 H 0.33424 0.49664 0.11996 0.0
H598 H 0.33247 0.55395 0.10814 0.0
H599 H 0.32243 0.59807 0.06719 0.0
H600 H 0.28062 0.57734 0.96644 0.0
H601 H 0.27692 0.52065 0.9809 0.0
C602 C 0.29919 0.49335 0.03934 0.0
C603 C 0.31284 0.48211 0.07057 0.0
C604 C 0.29833 0.52628 0.03225 0.0
C605 C 0.32426 0.50451 0.09536 0.0
C606 C 0.32304 0.53735 0.08874 0.0
C607 C 0.31176 0.5812 0.04888 0.0
C608 C 0.30173 0.59173 1.01585 0.0
C609 C 0.31066 0.54848 0.057 0.0
C610 C 0.28857 0.56961 0.99197 0.0
C611 C 0.28657 0.53725 1.00018 0.0
H612 H 0.4394 0.66028 0.03522 0.0
H613 H 0.48537 0.66175 0.92504 0.0
H614 H 0.54629 0.66097 0.94476 0.0
H615 H 0.58533 0.66719 0.9936 0.0
H616 H 0.53942 0.66577 0.10378 0.0
H617 H 0.47935 0.65874 0.08382 0.0
C618 C 0.46282 0.65988 1.01547 0.0
C619 C 0.45795 0.66153 0.9787 0.0
C620 C 0.49756 0.65971 0.02708 0.0
C621 C 0.48843 0.66048 0.9534 0.0
C622 C 0.5232 0.66029 0.96474 0.0
C623 C 0.56223 0.66482 1.01326 0.0
C624 C 0.56661 0.66747 0.05016 0.0
C625 C 0.52794 0.66103 1.00152 0.0
C626 C 0.53668 0.66382 0.07532 0.0
C627 C 0.50236 0.66004 0.06386 0.0
H628 H 0.69483 0.54514 0.87977 0.0
H629 H 0.69048 0.48311 0.9701 0.0
H630 H 0.69878 0.52869 1.01013 0.0
H631 H 0.70576 0.58605 0.01983 0.0
H632 H 0.70711 0.6493 0.93065 0.0
H633 H 0.70306 0.60322 0.88962 0.0
C634 C 0.696 0.54162 0.90816 0.0
C635 C 0.6917 0.51075 0.92193 0.0
C636 C 0.7006 0.56809 0.93118 0.0
C637 C 0.69301 0.50663 0.95887 0.0
C638 C 0.69804 0.53266 0.98175 0.0
C639 C 0.70492 0.58994 0.99148 0.0
C640 C 0.70629 0.62131 0.97857 0.0
C641 C 0.70149 0.56352 0.96826 0.0
C642 C 0.7063 0.62553 0.94147 0.0
C643 C 0.70364 0.59917 0.91798 0.0
H644 H 0.44828 0.33324 1.00843 0.0
H645 H 0.47456 0.40972 0.07966 0.0
H646 H 0.5309 0.41717 0.04115 0.0
H647 H 0.57208 0.40245 0.98556 0.0
H648 H 0.54572 0.32332 0.91773 0.0
H649 H 0.49 0.31666 0.9562 0.0
C650 C 0.46641 0.35147 1.01571 0.0
C651 C 0.45712 0.37099 0.0468 0.0
C652 C 0.49865 0.35534 0.99372 0.0
C653 C 0.48115 0.39423 0.05601 0.0
C654 C 0.51323 0.39863 0.03381 0.0
C655 C 0.55395 0.38392 0.97923 0.0
C656 C 0.56288 0.3636 0.94855 0.0
C657 C 0.52213 0.37953 1.00229 0.0
C658 C 0.5395 0.33929 0.94106 0.0
C659 C 0.50761 0.33542 0.96309 0.0
loop_
_geom_bond_atom_site_label_1
_geom_bond_atom_site_label_2
_geom_bond_distance
_geom_bond_site_symmetry_2
_ccdc_geom_bond_type
Cu0 N1 1.999 . S
Cu0 O6 1.974 . S
Cu0 N11 1.985 . S
Cu0 O20 1.959 . S
N1 Cu0 1.999 . S
N1 C3 1.263 . S
N1 C5 1.389 . S
N2 C3 1.358 . S
N2 C4 1.400 . S
C3 N1 1.263 . S
C3 N2 1.358 . S
C3 H9 0.930 . S
C4 N2 1.400 . S
C4 C5 1.351 . S
C4 H21 0.930 . S
C5 N1 1.389 . S
C5 C4 1.351 . S
C5 H10 0.930 . S
O6 Cu0 1.974 . S
O6 C16 1.282 . S
C7 O8 1.261 . S
C7 O20 1.251 . S
O8 C7 1.261 . S
H9 C3 0.930 . S
H10 C5 0.930 . S
N11 Cu0 1.985 . S
N11 C13 1.335 . S
N11 C14 1.390 . S
N12 C13 1.345 . S
N12 C15 1.336 . S
C13 N11 1.335 . S
C13 N12 1.345 . S
C13 H18 0.930 . S
C14 N11 1.390 . S
C14 C15 1.346 . S
C14 H19 0.930 . S
C15 N12 1.336 . S
C15 C14 1.346 . S
C15 H22 0.929 . S
C16 O6 1.282 . S
C16 O17 1.216 . S
O17 C16 1.216 . S
H18 C13 0.930 . S
H19 C14 0.930 . S
O20 Cu0 1.959 . S
O20 C7 1.251 . S
H21 C4 0.930 . S
H22 C15 0.929 . S
Cu23 N24 1.999 . S
Cu23 O29 1.974 . S
Cu23 N34 1.985 . S
Cu23 O43 1.959 . S
N24 Cu23 1.999 . S
N24 C26 1.263 . S
N24 C28 1.389 . S
N25 C26 1.358 . S
N25 C27 1.400 . S
C26 N24 1.263 . S
C26 N25 1.358 . S
C26 H32 0.930 . S
C27 N25 1.400 . S
C27 C28 1.351 . S
C27 H44 0.930 . S
C28 N24 1.389 . S
C28 C27 1.351 . S
C28 H33 0.930 . S
O29 Cu23 1.974 . S
O29 C39 1.282 . S
C30 O31 1.261 . S
C30 O43 1.251 . S
O31 C30 1.261 . S
H32 C26 0.930 . S
H33 C28 0.930 . S
N34 Cu23 1.985 . S
N34 C36 1.335 . S
N34 C37 1.390 . S
N35 C36 1.345 . S
N35 C38 1.336 . S
C36 N34 1.335 . S
C36 N35 1.345 . S
C36 H41 0.930 . S
C37 N34 1.390 . S
C37 C38 1.346 . S
C37 H42 0.930 . S
C38 N35 1.336 . S
C38 C37 1.346 . S
C38 H45 0.929 . S
C39 O29 1.282 . S
C39 O40 1.216 . S
O40 C39 1.216 . S
H41 C36 0.930 . S
H42 C37 0.930 . S
O43 Cu23 1.959 . S
O43 C30 1.251 . S
H44 C27 0.930 . S
H45 C38 0.929 . S
Cu46 N47 1.999 . S
Cu46 O52 1.974 . S
Cu46 N57 1.985 . S
Cu46 O66 1.959 . S
N47 Cu46 1.999 . S
N47 C49 1.263 . S
N47 C51 1.389 . S
N48 C49 1.358 . S
N48 C50 1.400 . S
C49 N47 1.263 . S
C49 N48 1.358 . S
C49 H55 0.930 . S
C50 N48 1.400 . S
C50 C51 1.351 . S
C50 H67 0.930 . S
C51 N47 1.389 . S
C51 C50 1.351 . S
C51 H56 0.930 . S
O52 Cu46 1.974 . S
O52 C62 1.282 . S
C53 O54 1.261 . S
C53 O66 1.251 . S
O54 C53 1.261 . S
H55 C49 0.930 . S
H56 C51 0.930 . S
N57 Cu46 1.985 . S
N57 C59 1.335 . S
N57 C60 1.390 . S
N58 C59 1.345 . S
N58 C61 1.336 . S
C59 N57 1.335 . S
C59 N58 1.345 . S
C59 H64 0.930 . S
C60 N57 1.390 . S
C60 C61 1.346 . S
C60 H65 0.930 . S
C61 N58 1.336 . S
C61 C60 1.346 . S
C61 H68 0.929 . S
C62 O52 1.282 . S
C62 O63 1.216 . S
O63 C62 1.216 . S
H64 C59 0.930 . S
H65 C60 0.930 . S
O66 Cu46 1.959 . S
O66 C53 1.251 . S
H67 C50 0.930 . S
H68 C61 0.929 . S
Cu69 N70 1.999 . S
Cu69 O75 1.974 . S
Cu69 N80 1.985 . S
Cu69 O89 1.959 . S
N70 Cu69 1.999 . S
N70 C72 1.263 . S
N70 C74 1.389 . S
N71 C72 1.358 . S
N71 C73 1.400 . S
C72 N70 1.263 . S
C72 N71 1.358 . S
C72 H78 0.930 . S
C73 N71 1.400 . S
C73 C74 1.351 . S
C73 H90 0.930 . S
C74 N70 1.389 . S
C74 C73 1.351 . S
C74 H79 0.930 . S
O75 Cu69 1.974 . S
O75 C85 1.282 . S
C76 O77 1.261 . S
C76 O89 1.251 . S
O77 C76 1.261 . S
H78 C72 0.930 . S
H79 C74 0.930 . S
N80 Cu69 1.985 . S
N80 C82 1.335 . S
N80 C83 1.390 . S
N81 C82 1.345 . S
N81 C84 1.336 . S
C82 N80 1.335 . S
C82 N81 1.345 . S
C82 H87 0.930 . S
C83 N80 1.390 . S
C83 C84 1.346 . S
C83 H88 0.930 . S
C84 N81 1.336 . S
C84 C83 1.346 . S
C84 H91 0.929 . S
C85 O75 1.282 . S
C85 O86 1.216 . S
O86 C85 1.216 . S
H87 C82 0.930 . S
H88 C83 0.930 . S
O89 Cu69 1.959 . S
O89 C76 1.251 . S
H90 C73 0.930 . S
H91 C84 0.929 . S
Cu92 N93 1.999 . S
Cu92 O98 1.974 . S
Cu92 N103 1.985 . S
Cu92 O112 1.959 . S
N93 Cu92 1.999 . S
N93 C95 1.263 . S
N93 C97 1.389 . S
N94 C95 1.358 . S
N94 C96 1.400 . S
C95 N93 1.263 . S
C95 N94 1.358 . S
C95 H101 0.930 . S
C96 N94 1.400 . S
C96 C97 1.351 . S
C96 H113 0.930 . S
C97 N93 1.389 . S
C97 C96 1.351 . S
C97 H102 0.930 . S
O98 Cu92 1.974 . S
O98 C108 1.282 . S
C99 O100 1.261 . S
C99 O112 1.251 . S
O100 C99 1.261 . S
H101 C95 0.930 . S
H102 C97 0.930 . S
N103 Cu92 1.985 . S
N103 C105 1.335 . S
N103 C106 1.390 . S
N104 C105 1.345 . S
N104 C107 1.336 . S
C105 N103 1.335 . S
C105 N104 1.345 . S
C105 H110 0.930 . S
C106 N103 1.390 . S
C106 C107 1.346 . S
C106 H111 0.930 . S
C107 N104 1.336 . S
C107 C106 1.346 . S
C107 H114 0.929 . S
C108 O98 1.282 . S
C108 O109 1.216 . S
O109 C108 1.216 . S
H110 C105 0.930 . S
H111 C106 0.930 . S
O112 Cu92 1.959 . S
O112 C99 1.251 . S
H113 C96 0.930 . S
H114 C107 0.929 . S
Cu115 N116 1.999 . S
Cu115 O121 1.974 . S
Cu115 N126 1.985 . S
Cu115 O135 1.959 . S
N116 Cu115 1.999 . S
N116 C118 1.263 . S
N116 C120 1.389 . S
N117 C118 1.358 . S
N117 C119 1.400 . S
C118 N116 1.263 . S
C118 N117 1.358 . S
C118 H124 0.930 . S
C119 N117 1.400 . S
C119 C120 1.351 . S
C119 H136 0.930 . S
C120 N116 1.389 . S
C120 C119 1.351 . S
C120 H125 0.930 . S
O121 Cu115 1.974 . S
O121 C131 1.282 . S
C122 O123 1.261 . S
C122 O135 1.251 . S
O123 C122 1.261 . S
H124 C118 0.930 . S
H125 C120 0.930 . S
N126 Cu115 1.985 . S
N126 C128 1.335 . S
N126 C129 1.390 . S
N127 C128 1.345 . S
N127 C130 1.336 . S
C128 N126 1.335 . S
C128 N127 1.345 . S
C128 H133 0.930 . S
C129 N126 1.390 . S
C129 C130 1.346 . S
C129 H134 0.930 . S
C130 N127 1.336 . S
C130 C129 1.346 . S
C130 H137 0.929 . S
C131 O121 1.282 . S
C131 O132 1.216 . S
O132 C131 1.216 . S
H133 C128 0.930 . S
H134 C129 0.930 . S
O135 Cu115 1.959 . S
O135 C122 1.251 . S
H136 C119 0.930 . S
H137 C130 0.929 . S
Cu138 N139 1.999 . S
Cu138 O144 1.974 . S
Cu138 N149 1.985 . S
Cu138 O158 1.959 . S
N139 Cu138 1.999 . S
N139 C141 1.263 . S
N139 C143 1.389 . S
N140 C141 1.358 . S
N140 C142 1.400 . S
C141 N139 1.263 . S
C141 N140 1.358 . S
C141 H147 0.930 . S
C142 N140 1.400 . S
C142 C143 1.351 . S
C142 H159 0.930 . S
C143 N139 1.389 . S
C143 C142 1.351 . S
C143 H148 0.930 . S
O144 Cu138 1.974 . S
O144 C154 1.282 . S
C145 O146 1.261 . S
C145 O158 1.251 . S
O146 C145 1.261 . S
H147 C141 0.930 . S
H148 C143 0.930 . S
N149 Cu138 1.985 . S
N149 C151 1.335 . S
N149 C152 1.390 . S
N150 C151 1.345 . S
N150 C153 1.336 . S
C151 N149 1.335 . S
C151 N150 1.345 . S
C151 H156 0.930 . S
C152 N149 1.390 . S
C152 C153 1.346 . S
C152 H157 0.930 . S
C153 N150 1.336 . S
C153 C152 1.346 . S
C153 H160 0.929 . S
C154 O144 1.282 . S
C154 O155 1.216 . S
O155 C154 1.216 . S
H156 C151 0.930 . S
H157 C152 0.930 . S
O158 Cu138 1.959 . S
O158 C145 1.251 . S
H159 C142 0.930 . S
H160 C153 0.929 . S
Cu161 N162 1.999 . S
Cu161 O167 1.974 . S
Cu161 N172 1.985 . S
Cu161 O181 1.959 . S
N162 Cu161 1.999 . S
N162 C164 1.263 . S
N162 C166 1.389 . S
N163 C164 1.358 . S
N163 C165 1.400 . S
C164 N162 1.263 . S
C164 N163 1.358 . S
C164 H170 0.930 . S
C165 N163 1.400 . S
C165 C166 1.351 . S
C165 H182 0.930 . S
C166 N162 1.389 . S
C166 C165 1.351 . S
C166 H171 0.930 . S
O167 Cu161 1.974 . S
O167 C177 1.282 . S
C168 O169 1.261 . S
C168 O181 1.251 . S
O169 C168 1.261 . S
H170 C164 0.930 . S
H171 C166 0.930 . S
N172 Cu161 1.985 . S
N172 C174 1.335 . S
N172 C175 1.390 . S
N173 C174 1.345 . S
N173 C176 1.336 . S
C174 N172 1.335 . S
C174 N173 1.345 . S
C174 H179 0.930 . S
C175 N172 1.390 . S
C175 C176 1.346 . S
C175 H180 0.930 . S
C176 N173 1.336 . S
C176 C175 1.346 . S
C176 H183 0.929 . S
C177 O167 1.282 . S
C177 O178 1.216 . S
O178 C177 1.216 . S
H179 C174 0.930 . S
H180 C175 0.930 . S
O181 Cu161 1.959 . S
O181 C168 1.251 . S
H182 C165 0.930 . S
H183 C176 0.929 . S
Cu184 N185 1.999 . S
Cu184 O190 1.974 . S
Cu184 N195 1.985 . S
Cu184 O204 1.959 . S
N185 Cu184 1.999 . S
N185 C187 1.263 . S
N185 C189 1.389 . S
N186 C187 1.358 . S
N186 C188 1.400 . S
C187 N185 1.263 . S
C187 N186 1.358 . S
C187 H193 0.930 . S
C188 N186 1.400 . S
C188 C189 1.351 . S
C188 H205 0.930 . S
C189 N185 1.389 . S
C189 C188 1.351 . S
C189 H194 0.930 . S
O190 Cu184 1.974 . S
O190 C200 1.282 . S
C191 O192 1.261 . S
C191 O204 1.251 . S
O192 C191 1.261 . S
H193 C187 0.930 . S
H194 C189 0.930 . S
N195 Cu184 1.985 . S
N195 C197 1.335 . S
N195 C198 1.390 . S
N196 C197 1.345 . S
N196 C199 1.336 . S
C197 N195 1.335 . S
C197 N196 1.345 . S
C197 H202 0.930 . S
C198 N195 1.390 . S
C198 C199 1.346 . S
C198 H203 0.930 . S
C199 N196 1.336 . S
C199 C198 1.346 . S
C199 H206 0.929 . S
C200 O190 1.282 . S
C200 O201 1.216 . S
O201 C200 1.216 . S
H202 C197 0.930 . S
H203 C198 0.930 . S
O204 Cu184 1.959 . S
O204 C191 1.251 . S
H205 C188 0.930 . S
H206 C199 0.929 . S
Cu207 N208 1.999 . S
Cu207 O213 1.974 . S
Cu207 N218 1.985 . S
Cu207 O227 1.959 . S
N208 Cu207 1.999 . S
N208 C210 1.263 . S
N208 C212 1.389 . S
N209 C210 1.358 . S
N209 C211 1.400 . S
C210 N208 1.263 . S
C210 N209 1.358 . S
C210 H216 0.930 . S
C211 N209 1.400 . S
C211 C212 1.351 . S
C211 H228 0.930 . S
C212 N208 1.389 . S
C212 C211 1.351 . S
C212 H217 0.930 . S
O213 Cu207 1.974 . S
O213 C223 1.282 . S
C214 O215 1.261 . S
C214 O227 1.251 . S
O215 C214 1.261 . S
H216 C210 0.930 . S
H217 C212 0.930 . S
N218 Cu207 1.985 . S
N218 C220 1.335 . S
N218 C221 1.390 . S
N219 C220 1.345 . S
N219 C222 1.336 . S
C220 N218 1.335 . S
C220 N219 1.345 . S
C220 H225 0.930 . S
C221 N218 1.390 . S
C221 C222 1.346 . S
C221 H226 0.930 . S
C222 N219 1.336 . S
C222 C221 1.346 . S
C222 H229 0.929 . S
C223 O213 1.282 . S
C223 O224 1.216 . S
O224 C223 1.216 . S
H225 C220 0.930 . S
H226 C221 0.930 . S
O227 Cu207 1.959 . S
O227 C214 1.251 . S
H228 C211 0.930 . S
H229 C222 0.929 . S
Cu230 N231 1.999 . S
Cu230 O236 1.974 . S
Cu230 N241 1.985 . S
Cu230 O250 1.959 . S
N231 Cu230 1.999 . S
N231 C233 1.263 . S
N231 C235 1.389 . S
N232 C233 1.358 . S
N232 C234 1.400 . S
C233 N231 1.263 . S
C233 N232 1.358 . S
C233 H239 0.930 . S
C234 N232 1.400 . S
C234 C235 1.351 . S
C234 H251 0.930 . S
C235 N231 1.389 . S
C235 C234 1.351 . S
C235 H240 0.930 . S
O236 Cu230 1.974 . S
O236 C246 1.282 . S
C237 O238 1.261 . S
C237 O250 1.251 . S
O238 C237 1.261 . S
H239 C233 0.930 . S
H240 C235 0.930 . S
N241 Cu230 1.985 . S
N241 C243 1.335 . S
N241 C244 1.390 . S
N242 C243 1.345 . S
N242 C245 1.336 . S
C243 N241 1.335 . S
C243 N242 1.345 . S
C243 H248 0.930 . S
C244 N241 1.390 . S
C244 C245 1.346 . S
C244 H249 0.930 . S
C245 N242 1.336 . S
C245 C244 1.346 . S
C245 H252 0.929 . S
C246 O236 1.282 . S
C246 O247 1.216 . S
O247 C246 1.216 . S
H248 C243 0.930 . S
H249 C244 0.930 . S
O250 Cu230 1.959 . S
O250 C237 1.251 . S
H251 C234 0.930 . S
H252 C245 0.929 . S
Cu253 N254 1.999 . S
Cu253 O259 1.974 . S
Cu253 N264 1.985 . S
Cu253 O273 1.959 . S
N254 Cu253 1.999 . S
N254 C256 1.263 . S
N254 C258 1.389 . S
N255 C256 1.358 . S
N255 C257 1.400 . S
C256 N254 1.263 . S
C256 N255 1.358 . S
C256 H262 0.930 . S
C257 N255 1.400 . S
C257 C258 1.351 . S
C257 H274 0.930 . S
C258 N254 1.389 . S
C258 C257 1.351 . S
C258 H263 0.930 . S
O259 Cu253 1.974 . S
O259 C269 1.282 . S
C260 O261 1.261 . S
C260 O273 1.251 . S
O261 C260 1.261 . S
H262 C256 0.930 . S
H263 C258 0.930 . S
N264 Cu253 1.985 . S
N264 C266 1.335 . S
N264 C267 1.390 . S
N265 C266 1.345 . S
N265 C268 1.336 . S
C266 N264 1.335 . S
C266 N265 1.345 . S
C266 H271 0.930 . S
C267 N264 1.390 . S
C267 C268 1.346 . S
C267 H272 0.930 . S
C268 N265 1.336 . S
C268 C267 1.346 . S
C268 H275 0.929 . S
C269 O259 1.282 . S
C269 O270 1.216 . S
O270 C269 1.216 . S
H271 C266 0.930 . S
H272 C267 0.930 . S
O273 Cu253 1.959 . S
O273 C260 1.251 . S
H274 C257 0.930 . S
H275 C268 0.929 . S
H276 C282 0.930 . S
H277 C285 0.930 . S
H278 C286 0.930 . S
H279 C287 0.930 . S
H280 C290 0.930 . S
H281 C291 0.930 . S
C282 H276 0.930 . S
C282 C283 1.355 . S
C282 C284 1.415 . S
C283 C282 1.355 . S
C283 C285 1.419 . S
C284 C282 1.415 . S
C284 C289 1.425 . S
C284 C291 1.409 . S
C285 H277 0.930 . S
C285 C283 1.419 . S
C285 C286 1.362 . S
C286 H278 0.930 . S
C286 C285 1.362 . S
C286 C289 1.409 . S
C287 H279 0.930 . S
C287 C288 1.355 . S
C287 C289 1.415 . S
C288 C287 1.355 . S
C288 C290 1.419 . S
C289 C284 1.425 . S
C289 C286 1.409 . S
C289 C287 1.415 . S
C290 H280 0.930 . S
C290 C288 1.419 . S
C290 C291 1.362 . S
C291 H281 0.930 . S
C291 C284 1.409 . S
C291 C290 1.362 . S
H292 C298 0.930 . S
H293 C301 0.930 . S
H294 C302 0.930 . S
H295 C303 0.930 . S
H296 C306 0.930 . S
H297 C307 0.930 . S
C298 H292 0.930 . S
C298 C299 1.355 . S
C298 C300 1.415 . S
C299 C298 1.355 . S
C299 C301 1.419 . S
C300 C298 1.415 . S
C300 C305 1.425 . S
C300 C307 1.409 . S
C301 H293 0.930 . S
C301 C299 1.419 . S
C301 C302 1.362 . S
C302 H294 0.930 . S
C302 C301 1.362 . S
C302 C305 1.409 . S
C303 H295 0.930 . S
C303 C304 1.355 . S
C303 C305 1.415 . S
C304 C303 1.355 . S
C304 C306 1.419 . S
C305 C300 1.425 . S
C305 C302 1.409 . S
C305 C303 1.415 . S
C306 H296 0.930 . S
C306 C304 1.419 . S
C306 C307 1.362 . S
C307 H297 0.930 . S
C307 C300 1.409 . S
C307 C306 1.362 . S
H308 C314 0.930 . S
H309 C317 0.930 . S
H310 C318 0.930 . S
H311 C319 0.930 . S
H312 C322 0.930 . S
H313 C323 0.930 . S
C314 H308 0.930 . S
C314 C315 1.355 . S
C314 C316 1.415 . S
C315 C314 1.355 . S
C315 C317 1.419 . S
C316 C314 1.415 . S
C316 C321 1.425 . S
C316 C323 1.409 . S
C317 H309 0.930 . S
C317 C315 1.419 . S
C317 C318 1.362 . S
C318 H310 0.930 . S
C318 C317 1.362 . S
C318 C321 1.409 . S
C319 H311 0.930 . S
C319 C320 1.355 . S
C319 C321 1.415 . S
C320 C319 1.355 . S
C320 C322 1.419 . S
C321 C316 1.425 . S
C321 C318 1.409 . S
C321 C319 1.415 . S
C322 H312 0.930 . S
C322 C320 1.419 . S
C322 C323 1.362 . S
C323 H313 0.930 . S
C323 C316 1.409 . S
C323 C322 1.362 . S
H324 C330 0.930 . S
H325 C333 0.930 . S
H326 C334 0.930 . S
H327 C335 0.930 . S
H328 C338 0.930 . S
H329 C339 0.930 . S
C330 H324 0.930 . S
C330 C331 1.355 . S
C330 C332 1.415 . S
C331 C330 1.355 . S
C331 C333 1.419 . S
C332 C330 1.415 . S
C332 C337 1.425 . S
C332 C339 1.409 . S
C333 H325 0.930 . S
C333 C331 1.419 . S
C333 C334 1.362 . S
C334 H326 0.930 . S
C334 C333 1.362 . S
C334 C337 1.409 . S
C335 H327 0.930 . S
C335 C336 1.355 . S
C335 C337 1.415 . S
C336 C335 1.355 . S
C336 C338 1.419 . S
C337 C332 1.425 . S
C337 C334 1.409 . S
C337 C335 1.415 . S
C338 H328 0.930 . S
C338 C336 1.419 . S
C338 C339 1.362 . S
C339 H329 0.930 . S
C339 C332 1.409 . S
C339 C338 1.362 . S
H340 C346 0.930 . S
H341 C349 0.930 . S
H342 C350 0.930 . S
H343 C351 0.930 . S
H344 C354 0.930 . S
H345 C355 0.930 . S
C346 H340 0.930 . S
C346 C347 1.355 . S
C346 C348 1.415 . S
C347 C346 1.355 . S
C347 C349 1.419 . S
C348 C346 1.415 . S
C348 C353 1.425 . S
C348 C355 1.409 . S
C349 H341 0.930 . S
C349 C347 1.419 . S
C349 C350 1.362 . S
C350 H342 0.930 . S
C350 C349 1.362 . S
C350 C353 1.409 . S
C351 H343 0.930 . S
C351 C352 1.355 . S
C351 C353 1.415 . S
C352 C351 1.355 . S
C352 C354 1.419 . S
C353 C348 1.425 . S
C353 C350 1.409 . S
C353 C351 1.415 . S
C354 H344 0.930 . S
C354 C352 1.419 . S
C354 C355 1.362 . S
C355 H345 0.930 . S
C355 C348 1.409 . S
C355 C354 1.362 . S
H356 C362 0.930 . S
H357 C365 0.930 . S
H358 C366 0.930 . S
H359 C367 0.930 . S
H360 C370 0.930 . S
H361 C371 0.930 . S
C362 H356 0.930 . S
C362 C363 1.355 . S
C362 C364 1.415 . S
C363 C362 1.355 . S
C363 C365 1.419 . S
C364 C362 1.415 . S
C364 C369 1.425 . S
C364 C371 1.409 . S
C365 H357 0.930 . S
C365 C363 1.419 . S
C365 C366 1.362 . S
C366 H358 0.930 . S
C366 C365 1.362 . S
C366 C369 1.409 . S
C367 H359 0.930 . S
C367 C368 1.355 . S
C367 C369 1.415 . S
C368 C367 1.355 . S
C368 C370 1.419 . S
C369 C364 1.425 . S
C369 C366 1.409 . S
C369 C367 1.415 . S
C370 H360 0.930 . S
C370 C368 1.419 . S
C370 C371 1.362 . S
C371 H361 0.930 . S
C371 C364 1.409 . S
C371 C370 1.362 . S
H372 C378 0.930 . S
H373 C381 0.930 . S
H374 C382 0.930 . S
H375 C383 0.930 . S
H376 C386 0.930 . S
H377 C387 0.930 . S
C378 H372 0.930 . S
C378 C379 1.355 . S
C378 C380 1.415 . S
C379 C378 1.355 . S
C379 C381 1.419 . S
C380 C378 1.415 . S
C380 C385 1.425 . S
C380 C387 1.409 . S
C381 H373 0.930 . S
C381 C379 1.419 . S
C381 C382 1.362 . S
C382 H374 0.930 . S
C382 C381 1.362 . S
C382 C385 1.409 . S
C383 H375 0.930 . S
C383 C384 1.355 . S
C383 C385 1.415 . S
C384 C383 1.355 . S
C384 C386 1.419 . S
C385 C380 1.425 . S
C385 C382 1.409 . S
C385 C383 1.415 . S
C386 H376 0.930 . S
C386 C384 1.419 . S
C386 C387 1.362 . S
C387 H377 0.930 . S
C387 C380 1.409 . S
C387 C386 1.362 . S
H388 C394 0.930 . S
H389 C397 0.930 . S
H390 C398 0.930 . S
H391 C399 0.930 . S
H392 C402 0.930 . S
H393 C403 0.930 . S
C394 H388 0.930 . S
C394 C395 1.355 . S
C394 C396 1.415 . S
C395 C394 1.355 . S
C395 C397 1.419 . S
C396 C394 1.415 . S
C396 C401 1.425 . S
C396 C403 1.409 . S
C397 H389 0.930 . S
C397 C395 1.419 . S
C397 C398 1.362 . S
C398 H390 0.930 . S
C398 C397 1.362 . S
C398 C401 1.409 . S
C399 H391 0.930 . S
C399 C400 1.355 . S
C399 C401 1.415 . S
C400 C399 1.355 . S
C400 C402 1.419 . S
C401 C396 1.425 . S
C401 C398 1.409 . S
C401 C399 1.415 . S
C402 H392 0.930 . S
C402 C400 1.419 . S
C402 C403 1.362 . S
C403 H393 0.930 . S
C403 C396 1.409 . S
C403 C402 1.362 . S
H404 C410 0.930 . S
H405 C413 0.930 . S
H406 C414 0.930 . S
H407 C415 0.930 . S
H408 C418 0.930 . S
H409 C419 0.930 . S
C410 H404 0.930 . S
C410 C411 1.355 . S
C410 C412 1.415 . S
C411 C410 1.355 . S
C411 C413 1.419 . S
C412 C410 1.415 . S
C412 C417 1.425 . S
C412 C419 1.409 . S
C413 H405 0.930 . S
C413 C411 1.419 . S
C413 C414 1.362 . S
C414 H406 0.930 . S
C414 C413 1.362 . S
C414 C417 1.409 . S
C415 H407 0.930 . S
C415 C416 1.355 . S
C415 C417 1.415 . S
C416 C415 1.355 . S
C416 C418 1.419 . S
C417 C412 1.425 . S
C417 C414 1.409 . S
C417 C415 1.415 . S
C418 H408 0.930 . S
C418 C416 1.419 . S
C418 C419 1.362 . S
C419 H409 0.930 . S
C419 C412 1.409 . S
C419 C418 1.362 . S
H420 C426 0.930 . S
H421 C429 0.930 . S
H422 C430 0.930 . S
H423 C431 0.930 . S
H424 C434 0.930 . S
H425 C435 0.930 . S
C426 H420 0.930 . S
C426 C427 1.355 . S
C426 C428 1.415 . S
C427 C426 1.355 . S
C427 C429 1.419 . S
C428 C426 1.415 . S
C428 C433 1.425 . S
C428 C435 1.409 . S
C429 H421 0.930 . S
C429 C427 1.419 . S
C429 C430 1.362 . S
C430 H422 0.930 . S
C430 C429 1.362 . S
C430 C433 1.409 . S
C431 H423 0.930 . S
C431 C432 1.355 . S
C431 C433 1.415 . S
C432 C431 1.355 . S
C432 C434 1.419 . S
C433 C428 1.425 . S
C433 C430 1.409 . S
C433 C431 1.415 . S
C434 H424 0.930 . S
C434 C432 1.419 . S
C434 C435 1.362 . S
C435 H425 0.930 . S
C435 C428 1.409 . S
C435 C434 1.362 . S
H436 C442 0.930 . S
H437 C445 0.930 . S
H438 C446 0.930 . S
H439 C447 0.930 . S
H440 C450 0.930 . S
H441 C451 0.930 . S
C442 H436 0.930 . S
C442 C443 1.355 . S
C442 C444 1.415 . S
C443 C442 1.355 . S
C443 C445 1.419 . S
C444 C442 1.415 . S
C444 C449 1.425 . S
C444 C451 1.409 . S
C445 H437 0.930 . S
C445 C443 1.419 . S
C445 C446 1.362 . S
C446 H438 0.930 . S
C446 C445 1.362 . S
C446 C449 1.409 . S
C447 H439 0.930 . S
C447 C448 1.355 . S
C447 C449 1.415 . S
C448 C447 1.355 . S
C448 C450 1.419 . S
C449 C444 1.425 . S
C449 C446 1.409 . S
C449 C447 1.415 . S
C450 H440 0.930 . S
C450 C448 1.419 . S
C450 C451 1.362 . S
C451 H441 0.930 . S
C451 C444 1.409 . S
C451 C450 1.362 . S
H452 C458 0.930 . S
H453 C461 0.930 . S
H454 C462 0.930 . S
H455 C463 0.930 . S
H456 C466 0.930 . S
H457 C467 0.930 . S
C458 H452 0.930 . S
C458 C459 1.355 . S
C458 C460 1.415 . S
C459 C458 1.355 . S
C459 C461 1.419 . S
C460 C458 1.415 . S
C460 C465 1.425 . S
C460 C467 1.409 . S
C461 H453 0.930 . S
C461 C459 1.419 . S
C461 C462 1.362 . S
C462 H454 0.930 . S
C462 C461 1.362 . S
C462 C465 1.409 . S
C463 H455 0.930 . S
C463 C464 1.355 . S
C463 C465 1.415 . S
C464 C463 1.355 . S
C464 C466 1.419 . S
C465 C460 1.425 . S
C465 C462 1.409 . S
C465 C463 1.415 . S
C466 H456 0.930 . S
C466 C464 1.419 . S
C466 C467 1.362 . S
C467 H457 0.930 . S
C467 C460 1.409 . S
C467 C466 1.362 . S
H468 C474 0.930 . S
H469 C477 0.930 . S
H470 C478 0.930 . S
H471 C479 0.930 . S
H472 C482 0.930 . S
H473 C483 0.930 . S
C474 H468 0.930 . S
C474 C475 1.355 . S
C474 C476 1.415 . S
C475 C474 1.355 . S
C475 C477 1.419 1_655 S
C476 C474 1.415 . S
C476 C481 1.425 1_655 S
C476 C483 1.409 . S
C477 H469 0.930 . S
C477 C475 1.419 1_455 S
C477 C478 1.362 . S
C478 H470 0.930 . S
C478 C477 1.362 . S
C478 C481 1.409 . S
C479 H471 0.930 . S
C479 C480 1.355 . S
C479 C481 1.415 . S
C480 C479 1.355 . S
C480 C482 1.419 1_455 S
C481 C476 1.425 1_455 S
C481 C478 1.409 . S
C481 C479 1.415 . S
C482 H472 0.930 . S
C482 C480 1.419 1_655 S
C482 C483 1.362 . S
C483 H473 0.930 . S
C483 C476 1.409 . S
C483 C482 1.362 . S
H484 C490 0.930 . S
H485 C493 0.930 . S
H486 C494 0.930 . S
H487 C495 0.930 1_545 S
H488 C498 0.930 . S
H489 C499 0.930 . S
C490 H484 0.930 . S
C490 C491 1.321 1_565 S
C490 C492 1.415 . S
C491 C490 1.321 1_545 S
C491 C493 1.449 . S
C492 C490 1.415 . S
C492 C497 1.425 . S
C492 C499 1.409 . S
C493 H485 0.930 . S
C493 C491 1.449 . S
C493 C494 1.362 . S
C494 H486 0.930 . S
C494 C493 1.362 . S
C494 C497 1.409 1_545 S
C495 H487 0.930 1_565 S
C495 C496 1.355 . S
C495 C497 1.415 . S
C496 C495 1.355 . S
C496 C498 1.419 . S
C497 C492 1.425 . S
C497 C494 1.409 1_565 S
C497 C495 1.415 . S
C498 H488 0.930 . S
C498 C496 1.419 . S
C498 C499 1.362 . S
C499 H489 0.930 . S
C499 C492 1.409 . S
C499 C498 1.362 . S
H500 C506 0.930 . S
H501 C509 0.930 . S
H502 C510 0.930 . S
H503 C511 0.930 . S
H504 C514 0.930 . S
H505 C515 0.930 . S
C506 H500 0.930 . S
C506 C507 1.355 . S
C506 C508 1.415 . S
C507 C506 1.355 . S
C507 C509 1.419 1_455 S
C508 C506 1.415 . S
C508 C513 1.425 1_455 S
C508 C515 1.409 . S
C509 H501 0.930 . S
C509 C507 1.419 1_655 S
C509 C510 1.362 . S
C510 H502 0.930 . S
C510 C509 1.362 . S
C510 C513 1.409 . S
C511 H503 0.930 . S
C511 C512 1.355 . S
C511 C513 1.415 . S
C512 C511 1.355 . S
C512 C514 1.419 1_655 S
C513 C508 1.425 1_655 S
C513 C510 1.409 . S
C513 C511 1.415 . S
C514 H504 0.930 . S
C514 C512 1.419 1_455 S
C514 C515 1.362 . S
C515 H505 0.930 . S
C515 C508 1.409 . S
C515 C514 1.362 . S
H516 C522 0.930 . S
H517 C525 0.930 . S
H518 C526 0.930 . S
H519 C527 0.930 . S
H520 C530 0.930 . S
H521 C531 0.930 . S
C522 H516 0.930 . S
C522 C523 1.355 . S
C522 C524 1.415 . S
C523 C522 1.355 . S
C523 C525 1.419 1_545 S
C524 C522 1.415 . S
C524 C529 1.425 1_545 S
C524 C531 1.409 . S
C525 H517 0.930 . S
C525 C523 1.419 1_565 S
C525 C526 1.362 . S
C526 H518 0.930 . S
C526 C525 1.362 . S
C526 C529 1.409 . S
C527 H519 0.930 . S
C527 C528 1.355 . S
C527 C529 1.415 . S
C528 C527 1.355 . S
C528 C530 1.419 1_565 S
C529 C524 1.425 1_565 S
C529 C526 1.409 . S
C529 C527 1.415 . S
C530 H520 0.930 . S
C530 C528 1.419 1_545 S
C530 C531 1.362 . S
C531 H521 0.930 . S
C531 C524 1.409 . S
C531 C530 1.362 . S
H532 C538 0.930 . S
H533 C541 0.930 . S
H534 C542 0.930 . S
H535 C543 0.930 . S
H536 C546 0.930 . S
H537 C547 0.930 . S
C538 H532 0.930 . S
C538 C539 1.355 . S
C538 C540 1.415 . S
C539 C538 1.355 . S
C539 C541 1.419 . S
C540 C538 1.415 . S
C540 C545 1.425 . S
C540 C547 1.409 . S
C541 H533 0.930 . S
C541 C539 1.419 . S
C541 C542 1.362 . S
C542 H534 0.930 . S
C542 C541 1.362 . S
C542 C545 1.409 . S
C543 H535 0.930 . S
C543 C544 1.355 . S
C543 C545 1.415 1_565 S
C544 C543 1.355 . S
C544 C546 1.419 . S
C545 C540 1.425 . S
C545 C542 1.409 . S
C545 C543 1.415 1_545 S
C546 H536 0.930 . S
C546 C544 1.419 . S
C546 C547 1.362 1_565 S
C547 H537 0.930 . S
C547 C540 1.409 . S
C547 C546 1.362 1_545 S
H548 C554 0.930 . S
H549 C557 0.930 . S
H550 C558 0.930 . S
H551 C559 0.930 . S
H552 C562 0.930 . S
H553 C563 0.930 . S
C554 H548 0.930 . S
C554 C555 1.355 1_655 S
C554 C556 1.415 . S
C555 C554 1.355 1_455 S
C555 C557 1.419 . S
C556 C554 1.415 . S
C556 C561 1.425 1_655 S
C556 C563 1.409 . S
C557 H549 0.930 . S
C557 C555 1.419 . S
C557 C558 1.362 . S
C558 H550 0.930 . S
C558 C557 1.362 . S
C558 C561 1.409 . S
C559 H551 0.930 . S
C559 C560 1.355 1_455 S
C559 C561 1.415 . S
C560 C559 1.355 1_655 S
C560 C562 1.419 . S
C561 C556 1.425 1_455 S
C561 C558 1.409 . S
C561 C559 1.415 . S
C562 H552 0.930 . S
C562 C560 1.419 . S
C562 C563 1.362 . S
C563 H553 0.930 . S
C563 C556 1.409 . S
C563 C562 1.362 . S
H564 C570 0.930 . S
H565 C573 0.930 . S
H566 C574 0.930 . S
H567 C575 0.930 . S
H568 C578 0.930 . S
H569 C579 0.930 . S
C570 H564 0.930 . S
C570 C571 1.355 1_565 S
C570 C572 1.415 . S
C571 C570 1.355 1_545 S
C571 C573 1.419 . S
C572 C570 1.415 . S
C572 C577 1.425 1_565 S
C572 C579 1.409 . S
C573 H565 0.930 . S
C573 C571 1.419 . S
C573 C574 1.362 . S
C574 H566 0.930 . S
C574 C573 1.362 . S
C574 C577 1.409 . S
C575 H567 0.930 . S
C575 C576 1.355 1_545 S
C575 C577 1.415 . S
C576 C575 1.355 1_565 S
C576 C578 1.419 . S
C577 C572 1.425 1_545 S
C577 C574 1.409 . S
C577 C575 1.415 . S
C578 H568 0.930 . S
C578 C576 1.419 . S
C578 C579 1.362 . S
C579 H569 0.930 . S
C579 C572 1.409 . S
C579 C578 1.362 . S
H580 C586 0.930 . S
H581 C589 0.930 . S
H582 C590 0.930 . S
H583 C591 0.930 . S
H584 C594 0.930 . S
H585 C595 0.930 . S
C586 H580 0.930 . S
C586 C587 1.355 . S
C586 C588 1.415 . S
C587 C586 1.355 . S
C587 C589 1.419 1_655 S
C588 C586 1.415 . S
C588 C593 1.425 1_655 S
C588 C595 1.409 . S
C589 H581 0.930 . S
C589 C587 1.419 1_455 S
C589 C590 1.362 . S
C590 H582 0.930 . S
C590 C589 1.362 . S
C590 C593 1.409 . S
C591 H583 0.930 . S
C591 C592 1.355 . S
C591 C593 1.415 . S
C592 C591 1.355 . S
C592 C594 1.419 1_455 S
C593 C588 1.425 1_455 S
C593 C590 1.409 . S
C593 C591 1.415 . S
C594 H584 0.930 . S
C594 C592 1.419 1_655 S
C594 C595 1.362 . S
C595 H585 0.930 . S
C595 C588 1.409 . S
C595 C594 1.362 . S
H596 C602 0.911 1_556 S
H597 C605 0.930 . S
H598 C606 0.930 . S
H599 C607 0.930 . S
H600 C610 0.930 . S
H601 C611 0.930 . S
C602 H596 0.911 1_554 S
C602 C603 1.377 . S
C602 C604 1.410 1_554 S
C603 C602 1.377 . S
C603 C605 1.419 . S
C604 C602 1.410 1_556 S
C604 C609 1.425 1_556 S
C604 C611 1.409 . S
C605 H597 0.930 . S
C605 C603 1.419 . S
C605 C606 1.362 . S
C606 H598 0.930 . S
C606 C605 1.362 . S
C606 C609 1.409 . S
C607 H599 0.930 . S
C607 C608 1.355 1_554 S
C607 C609 1.415 . S
C608 C607 1.355 1_556 S
C608 C610 1.419 . S
C609 C604 1.425 1_554 S
C609 C606 1.409 . S
C609 C607 1.415 . S
C610 H600 0.930 . S
C610 C608 1.419 . S
C610 C611 1.362 . S
C611 H601 0.930 . S
C611 C604 1.409 . S
C611 C610 1.362 . S
H612 C618 0.930 . S
H613 C621 0.930 . S
H614 C622 0.930 . S
H615 C623 0.930 . S
H616 C626 0.930 . S
H617 C627 0.930 . S
C618 H612 0.930 . S
C618 C619 1.355 . S
C618 C620 1.415 . S
C619 C618 1.355 . S
C619 C621 1.419 1_556 S
C620 C618 1.415 . S
C620 C625 1.425 1_556 S
C620 C627 1.409 . S
C621 H613 0.930 . S
C621 C619 1.419 1_554 S
C621 C622 1.362 . S
C622 H614 0.930 . S
C622 C621 1.362 . S
C622 C625 1.409 . S
C623 H615 0.930 . S
C623 C624 1.355 . S
C623 C625 1.415 . S
C624 C623 1.355 . S
C624 C626 1.419 1_554 S
C625 C620 1.425 1_554 S
C625 C622 1.409 . S
C625 C623 1.415 . S
C626 H616 0.930 . S
C626 C624 1.419 1_556 S
C626 C627 1.362 . S
C627 H617 0.930 . S
C627 C620 1.409 . S
C627 C626 1.362 . S
H628 C634 0.930 . S
H629 C637 0.930 . S
H630 C638 0.930 . S
H631 C639 0.930 . S
H632 C642 0.930 . S
H633 C643 0.930 . S
C634 H628 0.930 . S
C634 C635 1.355 . S
C634 C636 1.415 . S
C635 C634 1.355 . S
C635 C637 1.419 1_556 S
C636 C634 1.415 . S
C636 C641 1.425 1_556 S
C636 C643 1.409 . S
C637 H629 0.930 . S
C637 C635 1.419 1_554 S
C637 C638 1.362 . S
C638 H630 0.930 . S
C638 C637 1.362 . S
C638 C641 1.409 . S
C639 H631 0.930 . S
C639 C640 1.355 . S
C639 C641 1.415 . S
C640 C639 1.355 . S
C640 C642 1.419 1_554 S
C641 C636 1.425 1_554 S
C641 C638 1.409 . S
C641 C639 1.415 . S
C642 H632 0.930 . S
C642 C640 1.419 1_556 S
C642 C643 1.362 . S
C643 H633 0.930 . S
C643 C636 1.409 . S
C643 C642 1.362 . S
H644 C650 0.930 . S
H645 C653 0.930 1_556 S
H646 C654 0.930 . S
H647 C655 0.930 . S
H648 C658 0.930 . S
H649 C659 0.930 . S
C650 H644 0.930 . S
C650 C651 1.355 . S
C650 C652 1.415 . S
C651 C650 1.355 . S
C651 C653 1.418 . S
C652 C650 1.415 . S
C652 C657 1.425 1_554 S
C652 C659 1.409 . S
C653 H645 0.930 1_554 S
C653 C651 1.418 . S
C653 C654 1.363 1_554 S
C654 H646 0.930 . S
C654 C653 1.363 1_556 S
C654 C657 1.409 . S
C655 H647 0.930 . S
C655 C656 1.355 . S
C655 C657 1.415 . S
C656 C655 1.355 . S
C656 C658 1.419 . S
C657 C652 1.425 1_556 S
C657 C654 1.409 . S
C657 C655 1.415 . S
C658 H648 0.930 . S
C658 C656 1.419 . S
C658 C659 1.362 1_556 S
C659 H649 0.930 . S
C659 C652 1.409 . S
C659 C658 1.362 1_554 S
C283 N12 1.412 . S
C288 C177 1.481 . S
C299 N25 1.377 . S
C304 C108 1.411 . S
C315 N117 1.428 . S
C320 C62 1.444 . S
C331 N140 1.307 . S
C336 N71 1.327 . S
C347 N186 1.265 . S
C352 N163 1.306 . S
C363 C223 1.437 . S
C368 N94 1.425 . S
C379 N242 1.494 . S
C384 C131 1.484 . S
C395 C260 1.629 . S
C400 C154 1.660 . S
C411 C39 1.485 . S
C416 N209 1.462 . S
C427 C237 1.423 . S
C432 N48 1.436 . S
C443 C85 1.432 . S
C448 N265 1.408 . S
C459 C200 1.626 . S
C464 C7 1.626 . S
C475 C145 1.583 . S
C480 C16 1.567 . S
C491 N173 1.722 . S
C496 C30 1.797 . S
C507 N104 1.325 . S
C512 N58 1.362 . S
C523 C76 1.956 . S
C528 C122 1.953 . S
C539 C168 1.578 . S
C544 N127 1.558 . S
C555 C99 1.767 . S
C560 N150 1.679 . S
C571 N81 1.431 . S
C576 N35 1.415 . S
C587 C53 1.804 . S
C592 N2 1.747 . S
C603 N196 1.408 . S
C608 N219 1.375 . S
C619 C214 1.830 . S
C624 C246 1.835 . S
C635 N255 1.449 . S
C640 N232 1.453 . S
C651 C191 1.772 . S
C656 C269 1.771 . S
