# Generated by pormake.
# Topology uoe, (4)-cn, num edge types: 1
# Building blocks:
#     Node 0, Type 0, BuildingBlock: CEKHIL_clean_sbu_0, # of connection points: 4
#     Node 1, Type 0, BuildingBlock: CEKHIL_clean_sbu_0, # of connection points: 4
#     Node 2, Type 0, BuildingBlock: CEKHIL_clean_sbu_0, # of connection points: 4
#     Node 3, Type 0, BuildingBlock: CEKHIL_clean_sbu_0, # of connection points: 4
#     Node 4, Type 0, BuildingBlock: CEKHIL_clean_sbu_0, # of connection points: 4
#     Node 5, Type 0, BuildingBlock: CEKHIL_clean_sbu_0, # of connection points: 4
#     Node 6, Type 0, BuildingBlock: CEKHIL_clean_sbu_0, # of connection points: 4
#     Node 7, Type 0, BuildingBlock: CEKHIL_clean_sbu_0, # of connection points: 4
#     Node 8, Type 0, BuildingBlock: CEKHIL_clean_sbu_0, # of connection points: 4
#     Node 9, Type 0, BuildingBlock: CEKHIL_clean_sbu_0, # of connection points: 4
#     Node 10, Type 0, BuildingBlock: CEKHIL_clean_sbu_0, # of connection points: 4
#     Node 11, Type 0, BuildingBlock: CEKHIL_clean_sbu_0, # of connection points: 4
#     Node 12, Type 0, BuildingBlock: CEKHIL_clean_sbu_0, # of connection points: 4
#     Node 13, Type 0, BuildingBlock: CEKHIL_clean_sbu_0, # of connection points: 4
#     Node 14, Type 0, BuildingBlock: CEKHIL_clean_sbu_0, # of connection points: 4
#     Node 15, Type 0, BuildingBlock: CEKHIL_clean_sbu_0, # of connection points: 4
#     Node 16, Type 0, BuildingBlock: CEKHIL_clean_sbu_0, # of connection points: 4
#     Node 17, Type 0, BuildingBlock: CEKHIL_clean_sbu_0, # of connection points: 4
#     Node 18, Type 0, BuildingBlock: CEKHIL_clean_sbu_0, # of connection points: 4
#     Node 19, Type 0, BuildingBlock: CEKHIL_clean_sbu_0, # of connection points: 4
#     Node 20, Type 0, BuildingBlock: CEKHIL_clean_sbu_0, # of connection points: 4
#     Node 21, Type 0, BuildingBlock: CEKHIL_clean_sbu_0, # of connection points: 4
#     Node 22, Type 0, BuildingBlock: CEKHIL_clean_sbu_0, # of connection points: 4
#     Node 23, Type 0, BuildingBlock: CEKHIL_clean_sbu_0, # of connection points: 4
#     Node 24, Type 0, BuildingBlock: CEKHIL_clean_sbu_0, # of connection points: 4
#     Node 25, Type 0, BuildingBlock: CEKHIL_clean_sbu_0, # of connection points: 4
#     Node 26, Type 0, BuildingBlock: CEKHIL_clean_sbu_0, # of connection points: 4
#     Node 27, Type 0, BuildingBlock: CEKHIL_clean_sbu_0, # of connection points: 4
#     Node 28, Type 0, BuildingBlock: CEKHIL_clean_sbu_0, # of connection points: 4
#     Node 29, Type 0, BuildingBlock: CEKHIL_clean_sbu_0, # of connection points: 4
#     Node 30, Type 0, BuildingBlock: CEKHIL_clean_sbu_0, # of connection points: 4
#     Node 31, Type 0, BuildingBlock: CEKHIL_clean_sbu_0, # of connection points: 4
#     Edge 32, Type (0, 0), BuildingBlock: ZUJKAS_clean_linker_0, # of connection points: 2
#     Edge 33, Type (0, 0), BuildingBlock: ZUJKAS_clean_linker_0, # of connection points: 2
#     Edge 34, Type (0, 0), BuildingBlock: ZUJKAS_clean_linker_0, # of connection points: 2
#     Edge 35, Type (0, 0), BuildingBlock: ZUJKAS_clean_linker_0, # of connection points: 2
#     Edge 36, Type (0, 0), BuildingBlock: ZUJKAS_clean_linker_0, # of connection points: 2
#     Edge 37, Type (0, 0), BuildingBlock: ZUJKAS_clean_linker_0, # of connection points: 2
#     Edge 38, Type (0, 0), BuildingBlock: ZUJKAS_clean_linker_0, # of connection points: 2
#     Edge 39, Type (0, 0), BuildingBlock: ZUJKAS_clean_linker_0, # of connection points: 2
#     Edge 40, Type (0, 0), BuildingBlock: ZUJKAS_clean_linker_0, # of connection points: 2
#     Edge 41, Type (0, 0), BuildingBlock: ZUJKAS_clean_linker_0, # of connection points: 2
#     Edge 42, Type (0, 0), BuildingBlock: ZUJKAS_clean_linker_0, # of connection points: 2
#     Edge 43, Type (0, 0), BuildingBlock: ZUJKAS_clean_linker_0, # of connection points: 2
#     Edge 44, Type (0, 0), BuildingBlock: ZUJKAS_clean_linker_0, # of connection points: 2
#     Edge 45, Type (0, 0), BuildingBlock: ZUJKAS_clean_linker_0, # of connection points: 2
#     Edge 46, Type (0, 0), BuildingBlock: ZUJKAS_clean_linker_0, # of connection points: 2
#     Edge 47, Type (0, 0), BuildingBlock: ZUJKAS_clean_linker_0, # of connection points: 2
#     Edge 48, Type (0, 0), BuildingBlock: ZUJKAS_clean_linker_0, # of connection points: 2
#     Edge 49, Type (0, 0), BuildingBlock: ZUJKAS_clean_linker_0, # of connection points: 2
#     Edge 50, Type (0, 0), BuildingBlock: ZUJKAS_clean_linker_0, # of connection points: 2
#     Edge 51, Type (0, 0), BuildingBlock: ZUJKAS_clean_linker_0, # of connection points: 2
#     Edge 52, Type (0, 0), BuildingBlock: ZUJKAS_clean_linker_0, # of connection points: 2
#     Edge 53, Type (0, 0), BuildingBlock: ZUJKAS_clean_linker_0, # of connection points: 2
#     Edge 54, Type (0, 0), BuildingBlock: ZUJKAS_clean_linker_0, # of connection points: 2
#     Edge 55, Type (0, 0), BuildingBlock: ZUJKAS_clean_linker_0, # of connection points: 2
#     Edge 56, Type (0, 0), BuildingBlock: ZUJKAS_clean_linker_0, # of connection points: 2
#     Edge 57, Type (0, 0), BuildingBlock: ZUJKAS_clean_linker_0, # of connection points: 2
#     Edge 58, Type (0, 0), BuildingBlock: ZUJKAS_clean_linker_0, # of connection points: 2
#     Edge 59, Type (0, 0), BuildingBlock: ZUJKAS_clean_linker_0, # of connection points: 2
#     Edge 60, Type (0, 0), BuildingBlock: ZUJKAS_clean_linker_0, # of connection points: 2
#     Edge 61, Type (0, 0), BuildingBlock: ZUJKAS_clean_linker_0, # of connection points: 2
#     Edge 62, Type (0, 0), BuildingBlock: ZUJKAS_clean_linker_0, # of connection points: 2
#     Edge 63, Type (0, 0), BuildingBlock: ZUJKAS_clean_linker_0, # of connection points: 2
#     Edge 64, Type (0, 0), BuildingBlock: ZUJKAS_clean_linker_0, # of connection points: 2
#     Edge 65, Type (0, 0), BuildingBlock: ZUJKAS_clean_linker_0, # of connection points: 2
#     Edge 66, Type (0, 0), BuildingBlock: ZUJKAS_clean_linker_0, # of connection points: 2
#     Edge 67, Type (0, 0), BuildingBlock: ZUJKAS_clean_linker_0, # of connection points: 2
#     Edge 68, Type (0, 0), BuildingBlock: ZUJKAS_clean_linker_0, # of connection points: 2
#     Edge 69, Type (0, 0), BuildingBlock: ZUJKAS_clean_linker_0, # of connection points: 2
#     Edge 70, Type (0, 0), BuildingBlock: ZUJKAS_clean_linker_0, # of connection points: 2
#     Edge 71, Type (0, 0), BuildingBlock: ZUJKAS_clean_linker_0, # of connection points: 2
#     Edge 72, Type (0, 0), BuildingBlock: ZUJKAS_clean_linker_0, # of connection points: 2
#     Edge 73, Type (0, 0), BuildingBlock: ZUJKAS_clean_linker_0, # of connection points: 2
#     Edge 74, Type (0, 0), BuildingBlock: ZUJKAS_clean_linker_0, # of connection points: 2
#     Edge 75, Type (0, 0), BuildingBlock: ZUJKAS_clean_linker_0, # of connection points: 2
#     Edge 76, Type (0, 0), BuildingBlock: ZUJKAS_clean_linker_0, # of connection points: 2
#     Edge 77, Type (0, 0), BuildingBlock: ZUJKAS_clean_linker_0, # of connection points: 2
#     Edge 78, Type (0, 0), BuildingBlock: ZUJKAS_clean_linker_0, # of connection points: 2
#     Edge 79, Type (0, 0), BuildingBlock: ZUJKAS_clean_linker_0, # of connection points: 2
#     Edge 80, Type (0, 0), BuildingBlock: ZUJKAS_clean_linker_0, # of connection points: 2
#     Edge 81, Type (0, 0), BuildingBlock: ZUJKAS_clean_linker_0, # of connection points: 2
#     Edge 82, Type (0, 0), BuildingBlock: ZUJKAS_clean_linker_0, # of connection points: 2
#     Edge 83, Type (0, 0), BuildingBlock: ZUJKAS_clean_linker_0, # of connection points: 2
#     Edge 84, Type (0, 0), BuildingBlock: ZUJKAS_clean_linker_0, # of connection points: 2
#     Edge 85, Type (0, 0), BuildingBlock: ZUJKAS_clean_linker_0, # of connection points: 2
#     Edge 86, Type (0, 0), BuildingBlock: ZUJKAS_clean_linker_0, # of connection points: 2
#     Edge 87, Type (0, 0), BuildingBlock: ZUJKAS_clean_linker_0, # of connection points: 2
#     Edge 88, Type (0, 0), BuildingBlock: ZUJKAS_clean_linker_0, # of connection points: 2
#     Edge 89, Type (0, 0), BuildingBlock: ZUJKAS_clean_linker_0, # of connection points: 2
#     Edge 90, Type (0, 0), BuildingBlock: ZUJKAS_clean_linker_0, # of connection points: 2
#     Edge 91, Type (0, 0), BuildingBlock: ZUJKAS_clean_linker_0, # of connection points: 2
#     Edge 92, Type (0, 0), BuildingBlock: ZUJKAS_clean_linker_0, # of connection points: 2
#     Edge 93, Type (0, 0), BuildingBlock: ZUJKAS_clean_linker_0, # of connection points: 2
#     Edge 94, Type (0, 0), BuildingBlock: ZUJKAS_clean_linker_0, # of connection points: 2
#     Edge 95, Type (0, 0), BuildingBlock: ZUJKAS_clean_linker_0, # of connection points: 2
# Relax obj value: 0.181
# Max RMSD: 0.207
# Mean RMSD: 0.207
data_MOF--net-uoe--node1-CEKHIL_clean_sbu_0--edge1-ZUJKAS_clean_linker_0
_symmetry_space_group_name_H-M    P1
_symmetry_Int_Tables_number       1
_symmetry_cell_setting            triclinic
loop_
_symmetry_equiv_pos_as_xyz
'x, y, z'
_cell_length_a     97.157691
_cell_length_b     97.142987
_cell_length_c     34.463237
_cell_angle_alpha  89.92658
_cell_angle_beta   89.958551
_cell_angle_gamma 89.972143
loop_
_atom_site_label
_atom_site_type_symbol
_atom_site_fract_x
_atom_site_fract_y
_atom_site_fract_z
_atom_type_partial_charge
Co0 Co 0.09974 0.46485 0.03374 0.0
O1 O 0.11484 0.45229 0.03952 0.0
O2 O 0.09453 0.4498 0.06787 0.0
C3 C 0.10155 0.46759 0.96913 0.0
O4 O 0.08156 0.47548 0.03273 0.0
Co5 Co 0.105 0.49462 0.00309 0.0
O6 O 0.08465 0.49481 -0.00226 0.0
C7 C 0.1131 0.48724 0.08264 0.0
C8 C 0.10699 0.44521 0.06254 0.0
C9 C 0.07686 0.48625 0.01522 0.0
O10 O 0.10655 0.47576 0.07966 0.0
O11 O 0.11468 0.4956 0.05426 0.0
O12 O 0.09507 0.45692 0.98292 0.0
O13 O 0.10765 0.47516 -0.00558 0.0
Co14 Co 0.79092 0.84887 0.28489 0.0
O15 O 0.80382 0.86382 0.2841 0.0
O16 O 0.80718 0.84399 0.3145 0.0
C17 C 0.78551 0.84916 0.22142 0.0
O18 O 0.78014 0.83093 0.29007 0.0
Co19 Co 0.76022 0.85448 0.26469 0.0
O20 O 0.75934 0.83407 0.26267 0.0
C21 C 0.77086 0.86299 0.3407 0.0
C22 C 0.81167 0.85624 0.30583 0.0
C23 C 0.76853 0.82629 0.27751 0.0
O24 O 0.78217 0.85658 0.33346 0.0
O25 O 0.76121 0.86432 0.3157 0.0
O26 O 0.79667 0.84298 0.23297 0.0
O27 O 0.77911 0.85617 0.24759 0.0
Co28 Co 0.40872 0.54293 0.53034 0.0
O29 O 0.39326 0.55516 0.53367 0.0
O30 O 0.41325 0.55861 0.56283 0.0
C31 C 0.40774 0.53923 0.466 0.0
O32 O 0.42706 0.53261 0.53213 0.0
Co33 Co 0.40399 0.51264 0.50346 0.0
O34 O 0.42439 0.51243 0.50092 0.0
C35 C 0.39529 0.52111 0.58145 0.0
C36 C 0.40069 0.56274 0.55645 0.0
C37 C 0.43195 0.52141 0.51746 0.0
O38 O 0.40173 0.53259 0.57711 0.0
O39 O 0.39394 0.51228 0.55419 0.0
O40 O 0.41373 0.55028 0.47905 0.0
O41 O 0.40146 0.53191 0.49162 0.0
Co42 Co 0.71531 0.16004 0.78653 0.0
O43 O 0.70305 0.14457 0.78906 0.0
O44 O 0.69955 0.1644 0.81903 0.0
C45 C 0.71912 0.15945 0.72214 0.0
O46 O 0.72553 0.1784 0.78912 0.0
Co47 Co 0.7456 0.15565 0.76006 0.0
O48 O 0.74552 0.17606 0.75676 0.0
C49 C 0.73715 0.14666 0.838 0.0
C50 C 0.69545 0.15188 0.81215 0.0
C51 C 0.73652 0.18349 0.77373 0.0
O52 O 0.72549 0.15276 0.8333 0.0
O53 O 0.74619 0.14572 0.81108 0.0
O54 O 0.70813 0.16547 0.73553 0.0
O55 O 0.72642 0.15292 0.74738 0.0
Co56 Co 0.09786 0.53987 0.53474 0.0
O57 O 0.11415 0.55107 0.53421 0.0
O58 O 0.09395 0.55752 0.51077 0.0
C59 C 0.0996 0.53222 0.59619 0.0
O60 O 0.07867 0.53117 0.53168 0.0
Co61 Co 0.10039 0.50812 0.54617 0.0
O62 O 0.08024 0.50946 0.55418 0.0
C63 C 0.10893 0.52067 0.47244 0.0
C64 C 0.10689 0.56035 0.51642 0.0
C65 C 0.07314 0.5198 0.54323 0.0
O66 O 0.10333 0.53211 0.48269 0.0
O67 O 0.10981 0.5102 0.49489 0.0
O68 O 0.09437 0.54433 0.58946 0.0
O69 O 0.10485 0.5261 0.56653 0.0
Co70 Co 0.71478 0.84847 0.78973 0.0
O71 O 0.7017 0.86328 0.78864 0.0
O72 O 0.69917 0.84352 0.75746 0.0
C73 C 0.71887 0.84876 0.85391 0.0
O74 O 0.72591 0.83066 0.78592 0.0
Co75 Co 0.74494 0.8543 0.81475 0.0
O76 O 0.74592 0.83391 0.81744 0.0
C77 C 0.73588 0.8626 0.73689 0.0
C78 C 0.6944 0.85573 0.76545 0.0
C79 C 0.73723 0.82608 0.80067 0.0
O80 O 0.72434 0.85643 0.74278 0.0
O81 O 0.74518 0.86375 0.76297 0.0
O82 O 0.70811 0.84235 0.84059 0.0
O83 O 0.72571 0.85587 0.82884 0.0
Co84 Co 0.40746 0.46498 0.03694 0.0
O85 O 0.39177 0.45301 0.03662 0.0
O86 O 0.41232 0.44741 0.0138 0.0
C87 C 0.40517 0.47282 0.09796 0.0
O88 O 0.42612 0.4747 0.03404 0.0
Co89 Co 0.40294 0.49657 0.04715 0.0
O90 O 0.42313 0.49636 0.05584 0.0
C91 C 0.39544 0.48322 0.97376 0.0
C92 C 0.39951 0.444 0.01941 0.0
C93 C 0.43089 0.48641 0.04552 0.0
O94 O 0.40189 0.47227 0.98441 0.0
O95 O 0.3936 0.49357 -0.00388 0.0
O96 O 0.41104 0.46096 0.09192 0.0
O97 O 0.39962 0.47843 0.06797 0.0
Co98 Co 0.78939 0.15614 0.28995 0.0
O99 O 0.80216 0.14102 0.28994 0.0
O100 O 0.80548 0.16084 0.25951 0.0
C101 C 0.78417 0.15604 0.35353 0.0
O102 O 0.77881 0.17423 0.285 0.0
Co103 Co 0.75867 0.15112 0.31079 0.0
O104 O 0.75819 0.17152 0.31374 0.0
C105 C 0.76881 0.14274 0.2342 0.0
C106 C 0.80985 0.14848 0.2674 0.0
C107 C 0.7674 0.17911 0.29831 0.0
O108 O 0.78041 0.1485 0.24183 0.0
O109 O 0.75896 0.1419 0.25874 0.0
O110 O 0.79541 0.16197 0.34157 0.0
O111 O 0.77759 0.14905 0.32768 0.0
Co112 Co 0.90823 0.53877 0.02968 0.0
O113 O 0.89258 0.55088 0.03038 0.0
O114 O 0.9121 0.5552 -0.00047 0.0
C115 C 0.9084 0.53347 0.09322 0.0
O116 O 0.92673 0.52887 0.02385 0.0
Co117 Co 0.90451 0.5078 0.05082 0.0
O118 O 0.9249 0.50817 0.05286 0.0
C119 C 0.89424 0.51808 0.97623 0.0
C120 C 0.8996 0.559 0.0079 0.0
C121 C 0.93208 0.51764 0.03706 0.0
O122 O 0.90052 0.52956 0.98204 0.0
O123 O 0.89374 0.50839 0.00134 0.0
O124 O 0.91395 0.54494 0.08145 0.0
O125 O 0.90178 0.52665 0.0672 0.0
Co126 Co 0.21657 0.154 0.79212 0.0
O127 O 0.20348 0.13919 0.79078 0.0
O128 O 0.20084 0.15919 0.76071 0.0
C129 C 0.22105 0.15325 0.85603 0.0
O130 O 0.2276 0.17187 0.7887 0.0
Co131 Co 0.24696 0.14837 0.81641 0.0
O132 O 0.24753 0.16873 0.82078 0.0
C133 C 0.23759 0.1403 0.73865 0.0
C134 C 0.19608 0.14696 0.76832 0.0
C135 C 0.23877 0.17652 0.80408 0.0
O136 O 0.22598 0.14632 0.74471 0.0
O137 O 0.24702 0.13922 0.7644 0.0
O138 O 0.21012 0.15965 0.84366 0.0
O139 O 0.22776 0.14642 0.83019 0.0
Co140 Co 0.59885 0.46456 0.54233 0.0
O141 O 0.61432 0.45224 0.54245 0.0
O142 O 0.59415 0.44764 0.51555 0.0
C143 C 0.60021 0.47108 0.60481 0.0
O144 O 0.58036 0.4746 0.53829 0.0
Co145 Co 0.60324 0.49584 0.55842 0.0
O146 O 0.58297 0.49559 0.56494 0.0
C147 C 0.61128 0.4843 0.483 0.0
C148 C 0.60672 0.44378 0.52277 0.0
C149 C 0.5754 0.48601 0.55141 0.0
O150 O 0.60549 0.4728 0.49188 0.0
O151 O 0.61235 0.4944 0.50659 0.0
O152 O 0.59425 0.45949 0.59603 0.0
O153 O 0.60628 0.47727 0.57653 0.0
Co154 Co 0.2915 0.8454 0.28141 0.0
O155 O 0.30323 0.8613 0.28024 0.0
O156 O 0.30792 0.84155 0.25115 0.0
C157 C 0.28656 0.84597 0.34525 0.0
O158 O 0.28195 0.82664 0.2778 0.0
Co159 Co 0.2606 0.84878 0.30427 0.0
O160 O 0.26133 0.8284 0.30726 0.0
C161 C 0.27034 0.85892 0.22878 0.0
C162 C 0.31151 0.8542 0.25851 0.0
C163 C 0.27085 0.82124 0.2917 0.0
O164 O 0.28175 0.85235 0.23344 0.0
O165 O 0.26115 0.85981 0.25527 0.0
O166 O 0.29805 0.84045 0.33364 0.0
O167 O 0.27949 0.85206 0.31875 0.0
Co168 Co 0.9059 0.46774 0.53516 0.0
O169 O 0.89131 0.45439 0.53402 0.0
O170 O 0.91092 0.45176 0.56589 0.0
C171 C 0.90595 0.47302 0.47157 0.0
O172 O 0.92349 0.47909 0.54123 0.0
Co173 Co 0.89967 0.49826 0.51338 0.0
O174 O 0.92006 0.49964 0.51255 0.0
C175 C 0.88986 0.48723 0.58764 0.0
C176 C 0.89884 0.44692 0.55691 0.0
C177 C 0.92794 0.49075 0.52834 0.0
O178 O 0.89736 0.47645 0.58256 0.0
O179 O 0.88837 0.49657 0.56175 0.0
O180 O 0.91233 0.46201 0.48354 0.0
O181 O 0.89864 0.47923 0.49735 0.0
Co182 Co 0.29162 0.16178 0.29063 0.0
O183 O 0.30324 0.14577 0.29083 0.0
O184 O 0.30845 0.16557 0.31895 0.0
C185 C 0.28565 0.16121 0.22752 0.0
O186 O 0.28228 0.18062 0.29494 0.0
Co187 Co 0.26039 0.15846 0.27231 0.0
O188 O 0.26109 0.17882 0.26898 0.0
C189 C 0.27137 0.14831 0.34613 0.0
C190 C 0.31179 0.15283 0.31179 0.0
C191 C 0.27093 0.18601 0.28265 0.0
O192 O 0.2826 0.155 0.33995 0.0
O193 O 0.26178 0.14732 0.32089 0.0
O194 O 0.29742 0.16655 0.2375 0.0
O195 O 0.27899 0.15516 0.25496 0.0
Co196 Co 0.59848 0.54075 0.04059 0.0
O197 O 0.61366 0.55336 0.04223 0.0
O198 O 0.59374 0.55664 0.07207 0.0
C199 C 0.59938 0.53646 0.97651 0.0
O200 O 0.58029 0.53018 0.04369 0.0
Co201 Co 0.60335 0.5103 0.01509 0.0
O202 O 0.58296 0.51002 0.0124 0.0
C203 C 0.61268 0.51957 0.09191 0.0
C204 C 0.60612 0.56103 0.0645 0.0
C205 C 0.57539 0.519 0.02898 0.0
O206 O 0.60595 0.53092 0.08779 0.0
O207 O 0.61392 0.51065 0.06483 0.0
O208 O 0.59314 0.54748 0.98882 0.0
O209 O 0.60581 0.5295 0.00257 0.0
Co210 Co 0.21694 0.85185 0.7821 0.0
O211 O 0.20448 0.86723 0.78073 0.0
O212 O 0.20023 0.84739 0.81007 0.0
C213 C 0.22338 0.85214 0.71944 0.0
O214 O 0.22702 0.83352 0.78809 0.0
Co215 Co 0.24817 0.85637 0.7654 0.0
O216 O 0.24906 0.836 0.7687 0.0
C217 C 0.23646 0.86583 0.83904 0.0
C218 C 0.19625 0.85986 0.80199 0.0
C219 C 0.23906 0.82861 0.7805 0.0
O220 O 0.22526 0.85928 0.83146 0.0
O221 O 0.24639 0.86696 0.81486 0.0
O222 O 0.21179 0.84636 0.72925 0.0
O223 O 0.22955 0.85879 0.74663 0.0
Co224 Co 0.59833 0.96626 0.53723 0.0
O225 O 0.61346 0.95352 0.53665 0.0
O226 O 0.59375 0.95002 0.56742 0.0
C227 C 0.59865 0.97154 0.47364 0.0
O228 O 0.58022 0.97686 0.54244 0.0
Co229 Co 0.60327 0.99703 0.5153 0.0
O230 O 0.58286 0.99748 0.51348 0.0
C231 C 0.6133 0.98641 0.58992 0.0
C232 C 0.60605 0.94565 0.55878 0.0
C233 C 0.57531 0.98828 0.52912 0.0
O234 O 0.60623 0.97532 0.58502 0.0
O235 O 0.61447 0.99572 0.56383 0.0
O236 O 0.59253 0.96033 0.48516 0.0
O237 O 0.6054 0.97804 0.49995 0.0
Co238 Co 0.29135 0.34482 0.7965 0.0
O239 O 0.30321 0.36053 0.80123 0.0
O240 O 0.30688 0.34043 0.82971 0.0
C241 C 0.28821 0.3462 0.73191 0.0
O242 O 0.28159 0.32617 0.7968 0.0
Co243 Co 0.26121 0.3485 0.76701 0.0
O244 O 0.26196 0.32817 0.7626 0.0
C245 C 0.26869 0.3576 0.84563 0.0
C246 C 0.31084 0.35307 0.82391 0.0
C247 C 0.27096 0.32088 0.78005 0.0
O248 O 0.2804 0.35144 0.8427 0.0
O249 O 0.26015 0.35857 0.81751 0.0
O250 O 0.29925 0.34032 0.74547 0.0
O251 O 0.28046 0.35203 0.75732 0.0
Co252 Co 0.90747 0.04083 0.03297 0.0
O253 O 0.89203 0.05321 0.03204 0.0
O254 O 0.91179 0.05738 0.06185 0.0
C255 C 0.90726 0.03491 0.96993 0.0
O256 O 0.92585 0.03073 0.03837 0.0
Co257 Co 0.90308 0.00974 0.01451 0.0
O258 O 0.92347 0.00957 0.01262 0.0
C259 C 0.89384 0.02068 0.08927 0.0
C260 C 0.89934 0.06137 0.05358 0.0
C261 C 0.9309 0.01916 0.02667 0.0
O262 O 0.90002 0.03211 0.08188 0.0
O263 O 0.89295 0.01081 0.06489 0.0
O264 O 0.91296 0.04645 0.98043 0.0
O265 O 0.90062 0.02848 -0.00324 0.0
Co266 Co 0.21612 0.65465 0.28231 0.0
O267 O 0.20299 0.63993 0.28549 0.0
O268 O 0.20084 0.65995 0.31545 0.0
C269 C 0.21965 0.65403 0.21783 0.0
O270 O 0.22742 0.67238 0.28425 0.0
Co271 Co 0.24599 0.64832 0.25514 0.0
O272 O 0.24712 0.6687 0.25141 0.0
C273 C 0.2375 0.64044 0.33387 0.0
C274 C 0.19595 0.64769 0.30882 0.0
C275 C 0.23865 0.67673 0.26842 0.0
O276 O 0.2261 0.64696 0.32884 0.0
O277 O 0.24643 0.63886 0.3069 0.0
O278 O 0.20899 0.66049 0.2317 0.0
O279 O 0.22663 0.64695 0.24265 0.0
Co280 Co 0.59783 0.04109 0.03605 0.0
O281 O 0.61378 0.05278 0.0353 0.0
O282 O 0.59384 0.05793 0.00785 0.0
C283 C 0.5987 0.03522 0.09915 0.0
O284 O 0.579 0.03169 0.03229 0.0
Co285 Co 0.60105 0.00984 0.05506 0.0
O286 O 0.58077 0.01083 0.06041 0.0
C287 C 0.60995 0.02036 0.97914 0.0
C288 C 0.60657 0.06134 0.01471 0.0
C289 C 0.57359 0.02054 0.04588 0.0
O290 O 0.60441 0.03209 0.98666 0.0
O291 O 0.61054 0.01045 0.00358 0.0
O292 O 0.59322 0.04691 0.08905 0.0
O293 O 0.60466 0.02848 0.0717 0.0
Co294 Co 0.21759 0.35333 0.29861 0.0
O295 O 0.20454 0.36819 0.30054 0.0
O296 O 0.20069 0.34799 0.27289 0.0
C297 C 0.22482 0.35435 0.3605 0.0
O298 O 0.22842 0.33539 0.29269 0.0
Co299 Co 0.24878 0.35917 0.31175 0.0
O300 O 0.2497 0.33883 0.31654 0.0
C301 C 0.23601 0.36696 0.23779 0.0
C302 C 0.19631 0.36033 0.28089 0.0
C303 C 0.24027 0.33089 0.30392 0.0
O304 O 0.22493 0.36064 0.24781 0.0
O305 O 0.24636 0.36843 0.26034 0.0
O306 O 0.21336 0.34806 0.3523 0.0
O307 O 0.23035 0.36107 0.33225 0.0
Co308 Co 0.90759 0.96625 0.5329 0.0
O309 O 0.89265 0.95332 0.53236 0.0
O310 O 0.91254 0.95035 0.50197 0.0
C311 C 0.90707 0.97106 0.59669 0.0
O312 O 0.92557 0.97706 0.52872 0.0
Co313 Co 0.90231 0.9968 0.55632 0.0
O314 O 0.92271 0.99747 0.55853 0.0
C315 C 0.89276 0.98675 0.48066 0.0
C316 C 0.90027 0.94574 0.50998 0.0
C317 C 0.93036 0.98841 0.54263 0.0
O318 O 0.89975 0.97559 0.48538 0.0
O319 O 0.89147 0.99589 0.5071 0.0
O320 O 0.91333 0.95999 0.58473 0.0
O321 O 0.90028 0.97768 0.57063 0.0
Co322 Co 0.29103 0.65981 0.78536 0.0
O323 O 0.30282 0.64395 0.78455 0.0
O324 O 0.30768 0.66387 0.75648 0.0
C325 C 0.28555 0.65894 0.84876 0.0
O326 O 0.28153 0.67854 0.78134 0.0
Co327 Co 0.25998 0.65678 0.80533 0.0
O328 O 0.26145 0.67696 0.81369 0.0
C329 C 0.27004 0.64793 0.72866 0.0
C330 C 0.31121 0.65117 0.76343 0.0
C331 C 0.2709 0.68403 0.79747 0.0
O332 O 0.2819 0.65314 0.73638 0.0
O333 O 0.26011 0.6476 0.75312 0.0
O334 O 0.29704 0.66464 0.83789 0.0
O335 O 0.27864 0.6529 0.82177 0.0
Co336 Co 0.40704 0.04053 0.5379 0.0
O337 O 0.39169 0.05299 0.5374 0.0
O338 O 0.4116 0.05687 0.50816 0.0
C339 C 0.4066 0.03523 0.60143 0.0
O340 O 0.42531 0.03017 0.53366 0.0
Co341 Co 0.40219 0.00972 0.55838 0.0
O342 O 0.42257 0.00954 0.56248 0.0
C343 C 0.39379 0.02 0.48187 0.0
C344 C 0.3991 0.06095 0.51553 0.0
C345 C 0.43019 0.0188 0.54738 0.0
O346 O 0.39973 0.03153 0.48938 0.0
O347 O 0.39282 0.0102 0.50656 0.0
O348 O 0.41251 0.04653 0.58987 0.0
O349 O 0.39987 0.0286 0.57517 0.0
Co350 Co 0.71494 0.65913 0.28749 0.0
O351 O 0.70166 0.64451 0.28899 0.0
O352 O 0.69903 0.66402 0.25645 0.0
C353 C 0.71998 0.65935 0.35118 0.0
O354 O 0.72617 0.67677 0.28107 0.0
Co355 Co 0.74543 0.65323 0.31025 0.0
O356 O 0.74687 0.67361 0.30905 0.0
C357 C 0.73476 0.64306 0.23603 0.0
C358 C 0.69417 0.652 0.26603 0.0
C359 C 0.73787 0.68133 0.29314 0.0
O360 O 0.72388 0.65048 0.24049 0.0
O361 O 0.74396 0.64174 0.26231 0.0
O362 O 0.70901 0.66569 0.33882 0.0
O363 O 0.72635 0.65205 0.3257 0.0
Co364 Co 0.09878 0.96787 0.03562 0.0
O365 O 0.11361 0.95478 0.03718 0.0
O366 O 0.09432 0.95205 0.00383 0.0
C367 C 0.09798 0.97271 0.09933 0.0
O368 O 0.081 0.97889 0.02878 0.0
Co369 Co 0.10418 0.99839 0.05867 0.0
O370 O 0.08381 0.99956 0.05717 0.0
C371 C 0.1144 0.98822 0.98412 0.0
C372 C 0.10641 0.94735 0.01338 0.0
C373 C 0.07625 0.99053 0.04092 0.0
O374 O 0.10759 0.977 0.98922 0.0
O375 O 0.11521 0.99772 0.00969 0.0
O376 O 0.092 0.96164 0.08636 0.0
O377 O 0.10542 0.97929 0.07449 0.0
Co378 Co 0.79051 0.35078 0.79428 0.0
O379 O 0.8033 0.36587 0.79367 0.0
O380 O 0.80643 0.34612 0.76289 0.0
C381 C 0.78586 0.35094 0.85824 0.0
O382 O 0.77981 0.33273 0.7899 0.0
Co383 Co 0.76001 0.35591 0.81744 0.0
O384 O 0.7596 0.33551 0.82086 0.0
C385 C 0.76949 0.36434 0.74006 0.0
C386 C 0.81088 0.35845 0.77079 0.0
C387 C 0.76856 0.32788 0.80443 0.0
O388 O 0.78115 0.35852 0.74677 0.0
O389 O 0.7599 0.3652 0.76542 0.0
O390 O 0.79691 0.34485 0.84556 0.0
O391 O 0.77908 0.35792 0.83275 0.0
Co392 Co 0.40648 0.96613 0.03383 0.0
O393 O 0.39131 0.95351 0.03635 0.0
O394 O 0.41122 0.95044 0.06623 0.0
C395 C 0.40595 0.96996 0.96944 0.0
O396 O 0.42458 0.97683 0.03628 0.0
Co397 Co 0.40117 0.99632 0.00743 0.0
O398 O 0.42156 0.99668 0.00356 0.0
C399 C 0.39285 0.98771 0.0858 0.0
C400 C 0.39881 0.94602 0.05923 0.0
C401 C 0.42929 0.98793 0.02053 0.0
O402 O 0.39906 0.97614 0.0807 0.0
O403 O 0.39159 0.99676 0.05899 0.0
O404 O 0.41209 0.95905 0.98294 0.0
O405 O 0.39915 0.97706 -0.00545 0.0
Co406 Co 0.78803 0.6569 0.79013 0.0
O407 O 0.79993 0.64109 0.78944 0.0
O408 O 0.80488 0.66085 0.8181 0.0
C409 C 0.78189 0.65663 0.72723 0.0
O410 O 0.77845 0.67558 0.79538 0.0
Co411 Co 0.75677 0.65332 0.77255 0.0
O412 O 0.75727 0.67369 0.76944 0.0
C413 C 0.76788 0.64367 0.84688 0.0
C414 C 0.80844 0.64823 0.81033 0.0
C415 C 0.76705 0.68092 0.78333 0.0
O416 O 0.77932 0.6498 0.83943 0.0
O417 O 0.75794 0.64294 0.82263 0.0
O418 O 0.7936 0.66206 0.73732 0.0
O419 O 0.77536 0.65027 0.75441 0.0
Co420 Co 0.09882 0.0385 0.5402 0.0
O421 O 0.11386 0.05132 0.53831 0.0
O422 O 0.09425 0.05487 0.5696 0.0
C423 C 0.09864 0.03273 0.47706 0.0
O424 O 0.08083 0.02787 0.54679 0.0
Co425 Co 0.10398 0.00761 0.52079 0.0
O426 O 0.08356 0.00696 0.51974 0.0
C427 C 0.11421 0.01896 0.59408 0.0
C428 C 0.1065 0.05924 0.56044 0.0
C429 C 0.07598 0.01629 0.53463 0.0
O430 O 0.10699 0.02989 0.58833 0.0
O431 O 0.1154 0.00938 0.56883 0.0
O432 O 0.09267 0.04406 0.48823 0.0
O433 O 0.10571 0.02644 0.50325 0.0
Co434 Co 0.71529 0.34691 0.29091 0.0
O435 O 0.70231 0.36182 0.29216 0.0
O436 O 0.69955 0.34191 0.32259 0.0
C437 C 0.71967 0.34751 0.22679 0.0
O438 O 0.72618 0.32898 0.2945 0.0
Co439 Co 0.74563 0.3524 0.2667 0.0
O440 O 0.74645 0.33199 0.26408 0.0
C441 C 0.73618 0.361 0.34399 0.0
C442 C 0.69489 0.35419 0.31492 0.0
C443 C 0.73751 0.32426 0.28027 0.0
O444 O 0.72477 0.35458 0.33835 0.0
O445 O 0.74543 0.36228 0.31775 0.0
O446 O 0.70879 0.34114 0.23954 0.0
O447 O 0.72647 0.35437 0.25238 0.0
H448 H 0.94719 0.49746 0.07195 0.0
H449 H 0.97172 0.49294 0.06588 0.0
H450 H 0.97586 0.52752 0.98818 0.0
H451 H 0.95116 0.53233 -0.00543 0.0
H452 H 0.98633 0.48649 0.00017 0.0
H453 H 0.00634 0.53449 0.06713 0.0
H454 H 0.98855 0.52934 0.07119 0.0
H455 H 0.99478 0.53706 0.02713 0.0
C456 C 0.95326 0.50418 0.05359 0.0
C457 C 0.94715 0.51528 0.03369 0.0
C458 C 0.96732 0.50155 0.05018 0.0
C459 C 0.97566 0.50994 0.02687 0.0
C460 C 0.96966 0.52105 0.00691 0.0
H461 H 0.06311 0.50651 0.97603 0.0
H462 H 0.03859 0.51175 0.97753 0.0
C463 C 0.95553 0.52376 0.01046 0.0
C464 C 0.99053 0.50668 0.02304 0.0
H465 H 0.02277 0.5191 0.04107 0.0
C466 C 0.9943 0.49362 0.00911 0.0
C467 C 1.00092 0.51599 0.0347 0.0
C468 C 0.9975 0.52996 0.0512 0.0
C469 C 0.00817 0.48964 0.00639 0.0
C470 C 0.01854 0.49889 0.01848 0.0
C471 C 0.01479 0.51201 0.03194 0.0
C472 C 0.03338 0.49525 0.01704 0.0
C473 C 0.01159 0.47565 -0.00996 0.0
C474 C 0.03863 0.48421 0.03887 0.0
C475 C 0.05272 0.48113 0.03807 0.0
C476 C 0.06183 0.48912 0.01566 0.0
C477 C 0.05646 0.50014 -0.00621 0.0
C478 C 0.04242 0.50318 -0.00544 0.0
H479 H 1.0029 0.47134 0.97299 0.0
H480 H 0.02084 0.47613 0.97116 0.0
H481 H 0.01379 0.46845 0.01429 0.0
H482 H 0.03187 0.4781 0.057 0.0
H483 H 0.05648 0.47261 0.05539 0.0
H484 H 0.78593 0.80539 0.30004 0.0
H485 H 0.781 0.78065 0.30124 0.0
H486 H 0.73962 0.7886 0.26205 0.0
H487 H 0.74443 0.81319 0.2602 0.0
H488 H 0.76082 0.76626 0.34281 0.0
H489 H 0.75314 0.76002 0.18432 0.0
H490 H 0.76111 0.77509 0.20507 0.0
H491 H 0.74269 0.77328 0.20546 0.0
C492 C 0.77578 0.80188 0.29166 0.0
C493 C 0.76561 0.81131 0.27979 0.0
C494 C 0.77299 0.78774 0.29232 0.0
C495 C 0.76003 0.78278 0.28099 0.0
C496 C 0.74979 0.79217 0.26997 0.0
H497 H 0.72081 0.70234 0.26935 0.0
H498 H 0.72616 0.72699 0.26659 0.0
C499 C 0.75256 0.80626 0.26919 0.0
C500 C 0.75702 0.76782 0.28145 0.0
H501 H 0.74657 0.74111 0.22419 0.0
C502 C 0.7578 0.76073 0.31685 0.0
C503 C 0.75301 0.76066 0.24754 0.0
C504 C 0.75255 0.76761 0.20836 0.0
C505 C 0.7544 0.74671 0.31945 0.0
C506 C 0.75036 0.73955 0.28556 0.0
C507 C 0.74961 0.74664 0.25013 0.0
C508 C 0.74719 0.72463 0.28619 0.0
C509 C 0.75487 0.73976 0.35863 0.0
C510 C 0.75732 0.71513 0.29723 0.0
C511 C 0.75431 0.7011 0.29892 0.0
C512 C 0.74111 0.69621 0.28924 0.0
C513 C 0.73107 0.70573 0.27707 0.0
C514 C 0.7341 0.71982 0.27551 0.0
H515 H 0.75444 0.74735 0.38269 0.0
H516 H 0.74623 0.73239 0.36208 0.0
H517 H 0.76467 0.73396 0.36134 0.0
H518 H 0.76758 0.71858 0.30466 0.0
H519 H 0.76236 0.6941 0.30804 0.0
H520 H 0.4516 0.53512 0.56015 0.0
H521 H 0.47597 0.52906 0.56727 0.0
H522 H 0.47047 0.49487 0.48916 0.0
H523 H 0.44622 0.50067 0.48222 0.0
H524 H 0.48439 0.4877 0.55637 0.0
H525 H 0.50711 0.53439 0.48868 0.0
H526 H 0.49536 0.53774 0.52779 0.0
H527 H 0.48914 0.53004 0.48379 0.0
C528 C 0.4556 0.52638 0.54424 0.0
C529 C 0.4469 0.51839 0.52064 0.0
C530 C 0.46954 0.52296 0.54825 0.0
C531 C 0.47505 0.51157 0.52846 0.0
C532 C 0.46643 0.50368 0.50471 0.0
H533 H 0.5555 0.47161 0.51147 0.0
H534 H 0.53092 0.47718 0.50667 0.0
C535 C 0.45254 0.50705 0.50078 0.0
C536 C 0.48971 0.50757 0.53302 0.0
H537 H 0.5226 0.51863 0.51758 0.0
C538 C 0.49276 0.49444 0.54783 0.0
C539 C 0.50059 0.51638 0.52178 0.0
C540 C 0.49794 0.53038 0.5043 0.0
C541 C 0.50642 0.48995 0.55227 0.0
C542 C 0.5173 0.49875 0.54096 0.0
C543 C 0.51424 0.51189 0.52619 0.0
C544 C 0.53197 0.49477 0.54511 0.0
C545 C 0.50908 0.47596 0.56978 0.0
C546 C 0.54072 0.50284 0.56802 0.0
C547 C 0.55471 0.49977 0.57053 0.0
C548 C 0.56033 0.48855 0.55008 0.0
C549 C 0.55151 0.48028 0.5277 0.0
C550 C 0.53745 0.48342 0.52506 0.0
H551 H 0.49995 0.47201 0.58569 0.0
H552 H 0.51155 0.46857 0.54627 0.0
H553 H 0.51796 0.47629 0.59003 0.0
H554 H 0.53671 0.51161 0.58378 0.0
H555 H 0.56114 0.50631 0.58835 0.0
H556 H 0.72193 0.20312 0.81422 0.0
H557 H 0.72693 0.22783 0.81872 0.0
H558 H 0.7621 0.22253 0.74387 0.0
H559 H 0.75718 0.19803 0.73879 0.0
H560 H 0.75134 0.24034 0.8463 0.0
H561 H 0.74142 0.25449 0.69285 0.0
H562 H 0.73551 0.23851 0.71384 0.0
H563 H 0.75312 0.24032 0.69859 0.0
C564 C 0.73067 0.20723 0.79847 0.0
C565 C 0.73913 0.19854 0.77613 0.0
C566 C 0.73352 0.22134 0.80114 0.0
C567 C 0.74478 0.22703 0.78119 0.0
C568 C 0.75321 0.21841 0.75889 0.0
H569 H 0.78297 0.30798 0.76454 0.0
H570 H 0.77755 0.28337 0.75995 0.0
C571 C 0.75041 0.20435 0.75629 0.0
C572 C 0.7481 0.24189 0.78466 0.0
H573 H 0.75274 0.27127 0.73164 0.0
C574 C 0.75155 0.24714 0.82131 0.0
C575 C 0.74845 0.2507 0.75195 0.0
C576 C 0.74431 0.24578 0.71213 0.0
C577 C 0.75559 0.26092 0.826 0.0
C578 C 0.75599 0.26972 0.79326 0.0
C579 C 0.75251 0.26448 0.75664 0.0
C580 C 0.75951 0.28452 0.79665 0.0
C581 C 0.75969 0.26587 0.86583 0.0
C582 C 0.7511 0.29331 0.81848 0.0
C583 C 0.75413 0.30732 0.82111 0.0
C584 C 0.76564 0.3129 0.80179 0.0
C585 C 0.77407 0.30405 0.77987 0.0
C586 C 0.77097 0.28999 0.77716 0.0
H587 H 0.76234 0.25717 0.88542 0.0
H588 H 0.76864 0.27296 0.86416 0.0
H589 H 0.75095 0.27157 0.87897 0.0
H590 H 0.74206 0.28936 0.83317 0.0
H591 H 0.74739 0.31378 0.83828 0.0
H592 H 0.05812 0.49928 0.57676 0.0
H593 H 0.03334 0.49579 0.57467 0.0
H594 H 0.02859 0.53325 0.50878 0.0
H595 H 0.05361 0.53682 0.51033 0.0
H596 H 0.01184 0.51268 0.60119 0.0
H597 H 0.00909 0.50385 0.44193 0.0
H598 H 0.02513 0.50355 0.46832 0.0
H599 H 0.01709 0.51968 0.45675 0.0
C600 C 0.05188 0.50682 0.56169 0.0
C601 C 0.05792 0.51827 0.5433 0.0
C602 C 0.03767 0.50481 0.56069 0.0
C603 C 0.02914 0.51414 0.54112 0.0
C604 C 0.03503 0.52579 0.5235 0.0
H605 H 0.94127 0.51308 0.49806 0.0
H606 H 0.9656 0.51884 0.50257 0.0
C607 C 0.04931 0.52786 0.5246 0.0
C608 C 0.01413 0.51143 0.53915 0.0
H609 H 0.98814 0.50337 0.47652 0.0
C610 C 0.00663 0.51067 0.57394 0.0
C611 C 0.0074 0.50875 0.50357 0.0
C612 C 0.01507 0.50887 0.46547 0.0
C613 C 0.99255 0.5074 0.5741 0.0
C614 C 0.98586 0.50459 0.53856 0.0
C615 C 0.99332 0.50548 0.50374 0.0
C616 C 0.97104 0.50097 0.53671 0.0
C617 C 0.98491 0.50717 0.61221 0.0
C618 C 0.96601 0.48889 0.55415 0.0
C619 C 0.95201 0.48551 0.55163 0.0
C620 C 0.94281 0.49416 0.53158 0.0
C621 C 0.94798 0.5062 0.51399 0.0
C622 C 0.96192 0.50952 0.51643 0.0
H623 H 0.99064 0.51267 0.63536 0.0
H624 H 0.97457 0.51192 0.60915 0.0
H625 H 0.98349 0.49633 0.62163 0.0
H626 H 0.97293 0.48201 0.56937 0.0
H627 H 0.94843 0.47613 0.56534 0.0
H628 H 0.78427 0.70065 0.81425 0.0
H629 H 0.78026 0.72558 0.81728 0.0
H630 H 0.74109 0.72028 0.76056 0.0
H631 H 0.74498 0.69559 0.75698 0.0
H632 H 0.75705 0.74157 0.72908 0.0
H633 H 0.75293 0.74555 0.88967 0.0
H634 H 0.76831 0.73749 0.87159 0.0
H635 H 0.75194 0.72929 0.86448 0.0
C636 C 0.7748 0.70479 0.8025 0.0
C637 C 0.76493 0.69605 0.7856 0.0
C638 C 0.77249 0.71902 0.80442 0.0
C639 C 0.7603 0.72474 0.78956 0.0
C640 C 0.75055 0.71608 0.77233 0.0
H641 H 0.72197 0.8054 0.76707 0.0
H642 H 0.7277 0.78086 0.76371 0.0
C643 C 0.7528 0.70192 0.77044 0.0
C644 C 0.75758 0.73975 0.79133 0.0
H645 H 0.75137 0.76624 0.854 0.0
C646 C 0.75583 0.74699 0.75638 0.0
C647 C 0.75597 0.74676 0.82698 0.0
C648 C 0.75727 0.7394 0.86539 0.0
C649 C 0.75258 0.76108 0.75609 0.0
C650 C 0.75079 0.76805 0.79174 0.0
C651 C 0.75269 0.76085 0.8267 0.0
C652 C 0.7472 0.78289 0.79351 0.0
C653 C 0.75132 0.76841 0.71763 0.0
C654 C 0.75608 0.79211 0.81214 0.0
C655 C 0.75282 0.80608 0.81433 0.0
C656 C 0.74053 0.81118 0.79804 0.0
C657 C 0.73155 0.80187 0.77968 0.0
C658 C 0.73485 0.78785 0.77753 0.0
H659 H 0.75642 0.76259 0.69389 0.0
H660 H 0.74027 0.7695 0.71013 0.0
H661 H 0.7559 0.77887 0.71907 0.0
H662 H 0.76563 0.78849 0.82484 0.0
H663 H 0.75998 0.81287 0.82888 0.0
H664 H 0.56124 0.49805 -0.00552 0.0
H665 H 0.5368 0.49281 -0.00074 0.0
H666 H 0.53094 0.52778 0.0744 0.0
H667 H 0.55551 0.53329 0.06944 0.0
H668 H 0.52161 0.4866 0.06525 0.0
H669 H 0.50127 0.53324 -0.00861 0.0
H670 H 0.51918 0.52836 0.98905 0.0
H671 H 0.51247 0.53658 0.03174 0.0
C672 C 0.55481 0.5047 0.01202 0.0
C673 C 0.5604 0.51612 0.03161 0.0
C674 C 0.54081 0.50166 0.0147 0.0
C675 C 0.53202 0.50995 0.03689 0.0
C676 C 0.5375 0.52137 0.05657 0.0
H677 H 0.44455 0.50707 0.08251 0.0
H678 H 0.46912 0.51198 0.08179 0.0
C679 C 0.55156 0.52447 0.05382 0.0
C680 C 0.51721 0.50638 0.03978 0.0
H681 H 0.48492 0.51801 0.01855 0.0
C682 C 0.51357 0.49346 0.05503 0.0
C683 C 0.50676 0.51533 0.02636 0.0
C684 C 0.51007 0.52911 0.00839 0.0
C685 C 0.49975 0.48931 0.05766 0.0
C686 C 0.48931 0.49823 0.04404 0.0
C687 C 0.49295 0.51117 0.02893 0.0
C688 C 0.47449 0.49455 0.04586 0.0
C689 C 0.49646 0.47554 0.07574 0.0
C690 C 0.4693 0.48302 0.02604 0.0
C691 C 0.45517 0.4801 0.02653 0.0
C692 C 0.44598 0.48879 0.0464 0.0
C693 C 0.45129 0.50021 0.06656 0.0
C694 C 0.46536 0.50305 0.06625 0.0
H695 H 0.50512 0.47165 0.0937 0.0
H696 H 0.4871 0.47619 0.09416 0.0
H697 H 0.4945 0.46794 0.0524 0.0
H698 H 0.47613 0.47645 0.0095 0.0
H699 H 0.45142 0.47127 0.01058 0.0
H700 H 0.76043 0.3107 0.25444 0.0
H701 H 0.76525 0.2861 0.2572 0.0
H702 H 0.72638 0.2791 0.31426 0.0
H703 H 0.72132 0.30378 0.31134 0.0
H704 H 0.76716 0.26902 0.32258 0.0
H705 H 0.72569 0.25194 0.22275 0.0
H706 H 0.73102 0.26969 0.22637 0.0
H707 H 0.71999 0.26234 0.26274 0.0
C708 C 0.75285 0.30398 0.26756 0.0
C709 C 0.74044 0.30928 0.28259 0.0
C710 C 0.75565 0.2899 0.26912 0.0
C711 C 0.74612 0.28076 0.28548 0.0
C712 C 0.73378 0.28596 0.30088 0.0
H713 H 0.74464 0.19299 0.32373 0.0
H714 H 0.74008 0.21762 0.3204 0.0
C715 C 0.73094 0.30009 0.29938 0.0
C716 C 0.74927 0.26584 0.28688 0.0
H717 H 0.73838 0.23446 0.25466 0.0
C718 C 0.76091 0.26145 0.30764 0.0
C719 C 0.7411 0.25601 0.26727 0.0
C720 C 0.72881 0.26019 0.24321 0.0
C721 C 0.76445 0.24746 0.30994 0.0
C722 C 0.75627 0.23763 0.2904 0.0
C723 C 0.74465 0.24202 0.26956 0.0
C724 C 0.7593 0.22269 0.2922 0.0
C725 C 0.77673 0.24327 0.33403 0.0
C726 C 0.77162 0.21733 0.27709 0.0
C727 C 0.77431 0.20317 0.27894 0.0
C728 C 0.76468 0.19413 0.29576 0.0
C729 C 0.75231 0.1996 0.31054 0.0
C730 C 0.74965 0.2137 0.30867 0.0
H731 H 0.77993 0.25156 0.35429 0.0
H732 H 0.77447 0.23384 0.35109 0.0
H733 H 0.78553 0.24101 0.3145 0.0
H734 H 0.7791 0.22408 0.26364 0.0
H735 H 0.78391 0.19934 0.26715 0.0
H736 H 0.28482 0.3015 0.82351 0.0
H737 H 0.28016 0.27669 0.82697 0.0
H738 H 0.24727 0.2814 0.74409 0.0
H739 H 0.25186 0.30598 0.74009 0.0
H740 H 0.25498 0.26398 0.84895 0.0
H741 H 0.2699 0.24958 0.69901 0.0
H742 H 0.27504 0.26563 0.72105 0.0
H743 H 0.25802 0.26371 0.70137 0.0
C744 C 0.27668 0.29723 0.80575 0.0
C745 C 0.26872 0.30577 0.78155 0.0
C746 C 0.27402 0.28306 0.80783 0.0
C747 C 0.26349 0.27719 0.78539 0.0
C748 C 0.25561 0.28566 0.7611 0.0
H749 H 0.22552 0.19656 0.76164 0.0
H750 H 0.23125 0.22113 0.75813 0.0
C751 C 0.2582 0.29977 0.75911 0.0
C752 C 0.26022 0.26232 0.78843 0.0
H753 H 0.25729 0.23286 0.73504 0.0
C754 C 0.25561 0.25714 0.82417 0.0
C755 C 0.26095 0.25345 0.75595 0.0
C756 C 0.26636 0.25832 0.71725 0.0
C757 C 0.25141 0.24337 0.82808 0.0
C758 C 0.25204 0.23454 0.79553 0.0
C759 C 0.25673 0.2397 0.75986 0.0
C760 C 0.24832 0.21978 0.79825 0.0
C761 C 0.24603 0.23846 0.86679 0.0
C762 C 0.25609 0.21091 0.8217 0.0
C763 C 0.25289 0.19693 0.82368 0.0
C764 C 0.24186 0.19147 0.80214 0.0
C765 C 0.23405 0.20041 0.77869 0.0
C766 C 0.23732 0.21443 0.77659 0.0
H767 H 0.24298 0.24719 0.88576 0.0
H768 H 0.23702 0.23157 0.86293 0.0
H769 H 0.25422 0.23256 0.88186 0.0
H770 H 0.26475 0.21479 0.83817 0.0
H771 H 0.25912 0.19039 0.84212 0.0
H772 H 0.28565 0.80202 0.24995 0.0
H773 H 0.28078 0.77729 0.24406 0.0
H774 H 0.24646 0.78161 0.32244 0.0
H775 H 0.25106 0.80613 0.3282 0.0
H776 H 0.27915 0.75648 0.30191 0.0
H777 H 0.22903 0.76335 0.22755 0.0
H778 H 0.24144 0.77709 0.23202 0.0
H779 H 0.23036 0.77281 0.2721 0.0
C780 C 0.27708 0.7977 0.26595 0.0
C781 C 0.26864 0.80613 0.28912 0.0
C782 C 0.27431 0.78357 0.26253 0.0
C783 C 0.26306 0.77769 0.28213 0.0
C784 C 0.25496 0.786 0.30623 0.0
H785 H 0.22541 0.69729 0.30872 0.0
H786 H 0.23175 0.72168 0.31202 0.0
C787 C 0.25766 0.80004 0.30957 0.0
C788 C 0.25973 0.76287 0.27792 0.0
H789 H 0.23387 0.74091 0.25191 0.0
C790 C 0.26932 0.75305 0.29064 0.0
C791 C 0.24685 0.75843 0.26333 0.0
C792 C 0.23637 0.76846 0.24762 0.0
C793 C 0.26621 0.73892 0.29025 0.0
C794 C 0.25326 0.7345 0.27613 0.0
C795 C 0.24375 0.74432 0.26298 0.0
C796 C 0.24944 0.71973 0.27423 0.0
C797 C 0.27667 0.72888 0.30601 0.0
C798 C 0.25712 0.71061 0.25136 0.0
C799 C 0.25357 0.6967 0.24948 0.0
C800 C 0.24215 0.6916 0.2702 0.0
C801 C 0.23428 0.70083 0.29251 0.0
C802 C 0.23789 0.71478 0.29444 0.0
H803 H 0.2843 0.73404 0.32507 0.0
H804 H 0.27159 0.72052 0.32272 0.0
H805 H 0.28235 0.72414 0.28148 0.0
H806 H 0.26585 0.71426 0.23471 0.0
H807 H 0.25978 0.68997 0.23159 0.0
H808 H 0.25015 0.2009 0.25006 0.0
H809 H 0.24599 0.22553 0.25441 0.0
H810 H 0.28254 0.23032 0.32397 0.0
H811 H 0.28696 0.20548 0.31944 0.0
H812 H 0.24158 0.24063 0.32166 0.0
H813 H 0.28695 0.26008 0.23991 0.0
H814 H 0.28157 0.2423 0.23809 0.0
H815 H 0.29077 0.24866 0.27954 0.0
C816 C 0.25739 0.20713 0.26625 0.0
C817 C 0.26889 0.20115 0.28456 0.0
C818 C 0.25496 0.22125 0.26865 0.0
C819 C 0.26397 0.22977 0.28927 0.0
C820 C 0.27556 0.22394 0.30738 0.0
H821 H 0.26235 0.31744 0.33497 0.0
H822 H 0.26767 0.29296 0.33209 0.0
C823 C 0.27804 0.20974 0.3049 0.0
C824 C 0.2608 0.24466 0.29268 0.0
H825 H 0.27237 0.27672 0.26842 0.0
C826 C 0.24831 0.24854 0.31004 0.0
C827 C 0.2696 0.25493 0.27747 0.0
C828 C 0.28293 0.25134 0.2574 0.0
C829 C 0.2444 0.26241 0.31286 0.0
C830 C 0.25311 0.27269 0.29726 0.0
C831 C 0.26568 0.26882 0.28022 0.0
C832 C 0.24956 0.28753 0.29907 0.0
C833 C 0.23109 0.26595 0.33317 0.0
C834 C 0.2376 0.29266 0.28126 0.0
C835 C 0.23444 0.30672 0.28299 0.0
C836 C 0.2433 0.31592 0.30218 0.0
C837 C 0.2553 0.3107 0.31976 0.0
C838 C 0.25839 0.29669 0.31817 0.0
H839 H 0.22753 0.25742 0.35219 0.0
H840 H 0.23223 0.27539 0.35103 0.0
H841 H 0.22299 0.26787 0.31114 0.0
H842 H 0.23077 0.28582 0.26568 0.0
H843 H 0.22517 0.31039 0.26894 0.0
H844 H 0.27513 0.7014 0.7363 0.0
H845 H 0.26967 0.72601 0.73323 0.0
H846 H 0.25781 0.72518 0.85401 0.0
H847 H 0.26231 0.70044 0.85614 0.0
H848 H 0.23982 0.73865 0.81761 0.0
H849 H 0.29003 0.75865 0.7674 0.0
H850 H 0.28313 0.74646 0.7337 0.0
H851 H 0.28777 0.74099 0.78199 0.0
C852 C 0.27151 0.70657 0.76221 0.0
C853 C 0.26915 0.6991 0.79645 0.0
C854 C 0.26847 0.72065 0.76057 0.0
C855 C 0.26353 0.72761 0.79359 0.0
C856 C 0.26156 0.72012 0.82808 0.0
H857 H 0.26171 0.81657 0.81127 0.0
H858 H 0.26681 0.792 0.81622 0.0
C859 C 0.26419 0.706 0.82937 0.0
C860 C 0.25971 0.74246 0.79198 0.0
H861 H 0.27111 0.77423 0.76433 0.0
C862 C 0.24674 0.74644 0.8063 0.0
C863 C 0.26873 0.75272 0.7776 0.0
C864 C 0.28324 0.74951 0.76472 0.0
C865 C 0.2426 0.76029 0.80692 0.0
C866 C 0.25137 0.77046 0.79091 0.0
C867 C 0.2643 0.76648 0.77636 0.0
C868 C 0.24766 0.78535 0.79004 0.0
C869 C 0.22907 0.76384 0.82604 0.0
C870 C 0.23511 0.78991 0.77412 0.0
C871 C 0.232 0.80399 0.77251 0.0
C872 C 0.2416 0.81375 0.78546 0.0
C873 C 0.25415 0.80922 0.80108 0.0
C874 C 0.25708 0.79518 0.80375 0.0
H875 H 0.22603 0.75589 0.84764 0.0
H876 H 0.22956 0.77394 0.84097 0.0
H877 H 0.22088 0.76427 0.80366 0.0
H878 H 0.22784 0.78263 0.76213 0.0
H879 H 0.22235 0.80726 0.75972 0.0
H880 H 0.44417 0.99705 0.57863 0.0
H881 H 0.46874 0.99229 0.57573 0.0
H882 H 0.47509 0.02933 0.509 0.0
H883 H 0.45038 0.03434 0.51213 0.0
H884 H 0.48505 0.98815 0.51078 0.0
H885 H 0.50338 0.03293 0.59648 0.0
H886 H 0.48554 0.02772 0.59559 0.0
H887 H 0.49271 0.03725 0.55568 0.0
C888 C 0.45073 0.00426 0.56334 0.0
C889 C 0.44524 0.01611 0.54558 0.0
C890 C 0.46482 1.00149 0.56174 0.0
C891 C 0.47377 0.01051 0.54252 0.0
C892 C 0.46839 0.02234 0.52461 0.0
H893 H 0.56126 0.01021 0.49919 0.0
H894 H 0.53669 0.01494 0.50262 0.0
C895 C 0.45425 0.02516 0.52625 0.0
C896 C 0.48869 0.00725 0.54071 0.0
H897 H 0.52044 0.01893 0.56732 0.0
C898 C 0.4928 0.99486 0.52322 0.0
C899 C 0.49876 0.016 0.55706 0.0
C900 C 0.49492 0.02916 0.57758 0.0
C901 C 0.50674 0.99108 0.52103 0.0
C902 C 0.51681 0.99983 0.53738 0.0
C903 C 0.5127 0.01222 0.55489 0.0
C904 C 0.53174 0.99661 0.53541 0.0
C905 C 0.51057 0.97793 0.50041 0.0
C906 C 0.53718 0.98473 0.55299 0.0
C907 C 0.55132 0.98193 0.55103 0.0
C908 C 0.56028 0.99104 0.53172 0.0
C909 C 0.55474 1.00296 0.51443 0.0
C910 C 0.54066 0.00571 0.51633 0.0
H911 H 0.50212 0.97419 0.48148 0.0
H912 H 0.51995 0.97939 0.48242 0.0
H913 H 0.51277 0.96982 0.52225 0.0
H914 H 0.53051 0.97769 0.5685 0.0
H915 H 0.55522 0.97269 0.56479 0.0
H916 H 0.9514 0.0375 0.04611 0.0
H917 H 0.9763 0.03322 0.0469 0.0
H918 H 0.96928 0.99101 0.01398 0.0
H919 H 0.9446 0.99514 0.01259 0.0
H920 H 0.9915 0.01397 0.09044 0.0
H921 H 0.99701 0.00394 0.93282 0.0
H922 H 0.9819 0.01196 0.95334 0.0
H923 H 0.98405 0.99359 0.95578 0.0
C924 C 0.95516 0.02731 0.03905 0.0
C925 C 0.94596 0.01671 0.029 0.0
C926 C 0.96939 0.02489 0.03946 0.0
C927 C 0.97464 0.01187 0.02968 0.0
C928 C 0.96547 1.00122 0.02062 0.0
H929 H 0.05528 0.97308 0.01937 0.0
H930 H 0.03059 0.97834 0.01666 0.0
C931 C 0.95132 0.00361 0.02009 0.0
C932 C 0.98966 0.0092 0.02971 0.0
H933 H 0.01616 0.99803 0.97259 0.0
C934 C 0.99693 0.0106 0.06463 0.0
C935 C 0.99669 0.00473 -0.004 0.0
C936 C 0.98955 0.00358 0.95727 0.0
C937 C 0.01098 0.00732 0.06701 0.0
C938 C 0.018 1.00277 0.03335 0.0
C939 C 0.01075 1.00145 -0.00163 0.0
C940 C 0.03294 0.99965 0.03373 0.0
C941 C 0.01811 0.00843 0.10579 0.0
C942 C 0.04243 0.00995 0.04324 0.0
C943 C 0.05647 0.00699 0.04492 0.0
C944 C 0.06137 0.99366 0.03672 0.0
C945 C 0.05187 0.98344 0.02592 0.0
C946 C 0.03776 0.98642 0.02441 0.0
H947 H 0.01063 0.00833 0.13021 0.0
H948 H 0.02555 0.99988 0.10999 0.0
H949 H 0.02386 0.01829 0.10703 0.0
H950 H 0.03897 0.02031 0.04955 0.0
H951 H 0.06346 0.01519 0.05289 0.0
H952 H 0.5585 1.001 0.08347 0.0
H953 H 0.53395 0.99643 0.07816 0.0
H954 H 0.52954 0.03069 -0.00049 0.0
H955 H 0.55433 0.03534 0.00432 0.0
H956 H 0.51138 0.01357 0.09501 0.0
H957 H 0.51256 0.99787 0.93988 0.0
H958 H 0.52795 0.99923 0.96892 0.0
H959 H 0.51978 0.01448 0.95051 0.0
C960 C 0.55238 0.0076 0.06492 0.0
C961 C 0.55846 0.01847 0.04397 0.0
C962 C 0.53831 0.00497 0.06206 0.0
C963 C 0.52996 0.01307 0.03803 0.0
C964 C 0.53586 0.02416 0.01773 0.0
H965 H 0.44325 0.00818 0.98205 0.0
H966 H 0.46755 0.0141 0.98699 0.0
C967 C 0.55 0.02686 0.02071 0.0
C968 C 0.51513 0.00973 0.03441 0.0
H969 H 0.49085 0.99817 0.97067 0.0
C970 C 0.50687 0.01022 0.06783 0.0
C971 C 0.50931 0.0053 -0.00105 0.0
C972 C 0.51784 0.00405 0.96251 0.0
C973 C 0.4929 0.00653 0.06667 0.0
C974 C 0.48711 1.00199 0.03128 0.0
C975 C 0.49534 1.0016 -0.00221 0.0
C976 C 0.47241 0.998 0.02812 0.0
C977 C 0.4844 0.00775 0.10316 0.0
C978 C 0.46711 0.98678 0.04911 0.0
C979 C 0.45314 0.98332 0.04639 0.0
C980 C 0.44424 0.99104 0.02261 0.0
C981 C 0.44973 1.00207 0.001 0.0
C982 C 0.46365 0.00547 0.00366 0.0
H983 H 0.48947 0.01438 0.12516 0.0
H984 H 0.47406 0.01205 0.09666 0.0
H985 H 0.48298 0.99737 0.11603 0.0
H986 H 0.47377 0.98071 0.06761 0.0
H987 H 0.4493 0.97472 0.06325 0.0
H988 H 0.06205 0.99364 0.50894 0.0
H989 H 0.03737 0.9894 0.51062 0.0
H990 H 0.03096 0.02833 0.5678 0.0
H991 H 0.05576 0.03284 0.56577 0.0
H992 H 0.01982 0.9875 0.57363 0.0
H993 H 0.00443 0.03029 0.4757 0.0
H994 H 0.02206 0.02465 0.48046 0.0
H995 H 0.01445 0.03543 0.51699 0.0
C996 C 0.05545 1.00135 0.52195 0.0
C997 C 0.06095 0.01363 0.53713 0.0
C998 C 0.04131 0.99888 0.52286 0.0
C999 C 0.03231 0.00861 0.53883 0.0
C1000 C 0.03771 0.02079 0.55464 0.0
H1001 H 0.94411 0.01093 0.57 0.0
H1002 H 0.96878 0.01535 0.56881 0.0
C1003 C 0.0519 0.02331 0.55367 0.0
C1004 C 0.0173 0.00583 0.53915 0.0
H1005 H 0.98644 0.01756 0.50511 0.0
C1006 C 0.01252 0.99405 0.55859 0.0
C1007 C 0.00781 0.01437 0.51939 0.0
C1008 C 0.01241 0.02683 0.49664 0.0
C1009 C 0.99846 0.99069 0.55931 0.0
C1010 C 0.98898 0.99923 0.53954 0.0
C1011 C 0.99376 0.01102 0.52016 0.0
C1012 C 0.97399 0.99636 0.53961 0.0
C1013 C 0.99386 0.9782 0.58192 0.0
C1014 C 0.9687 0.98426 0.5231 0.0
C1015 C 0.95452 0.98165 0.52373 0.0
C1016 C 0.94539 0.99116 0.5407 0.0
C1017 C 0.95078 1.00336 0.55667 0.0
C1018 C 0.96491 0.00593 0.55603 0.0
H1019 H 1.00185 0.97469 0.60276 0.0
H1020 H 0.98423 0.98038 0.59818 0.0
H1021 H 0.99178 0.96964 0.56146 0.0
H1022 H 0.97552 0.97685 0.50963 0.0
H1023 H 0.95074 0.97219 0.51103 0.0
H1024 H 0.11586 0.48834 0.93644 0.0
H1025 H 0.11365 0.49768 0.87148 0.0
H1026 H 0.08341 0.4667 0.84374 0.0
H1027 H 0.08534 0.45736 0.91005 0.0
H1028 H 0.11864 0.48543 0.80235 0.0
H1029 H 0.06422 0.50291 0.81305 0.0
H1030 H 0.07411 0.49777 0.85496 0.0
H1031 H 0.06726 0.48497 0.82279 0.0
C1032 C 0.10871 0.48346 0.91667 0.0
C1033 C 0.1007 0.47216 0.92841 0.0
C1034 C 0.10748 0.48882 0.87947 0.0
C1035 C 0.09824 0.48302 0.85299 0.0
C1036 C 0.09042 0.47149 0.86408 0.0
H1037 H 0.10482 0.50527 0.61064 0.0
H1038 H 0.10317 0.49306 0.67193 0.0
C1039 C 0.09163 0.46609 0.90171 0.0
C1040 C 0.09718 0.4892 0.81386 0.0
H1041 H 0.0758 0.50733 0.75399 0.0
C1042 C 0.10924 0.49013 0.79163 0.0
C1043 C 0.08498 0.49555 0.80042 0.0
C1044 C 0.07191 0.4954 0.82407 0.0
C1045 C 0.10953 0.49743 0.75661 0.0
C1046 C 0.09727 0.50357 0.7427 0.0
C1047 C 0.08515 0.50255 0.7647 0.0
C1048 C 0.09693 0.5109 0.70506 0.0
C1049 C 0.1231 0.49888 0.73558 0.0
C1050 C 0.09334 0.52491 0.70296 0.0
C1051 C 0.094 0.53194 0.66746 0.0
C1052 C 0.09834 0.52504 0.63379 0.0
C1053 C 0.10156 0.51095 0.63602 0.0
C1054 C 0.10069 0.50393 0.67114 0.0
H1055 H 0.13197 0.49726 0.75541 0.0
H1056 H 0.12373 0.491 0.71237 0.0
H1057 H 0.12411 0.50921 0.72202 0.0
H1058 H 0.09034 0.53045 0.72888 0.0
H1059 H 0.09139 0.54277 0.66651 0.0
H1060 H 0.71476 0.82682 0.90281 0.0
H1061 H 0.72602 0.82282 0.9657 0.0
H1062 H 0.74603 0.86236 0.95672 0.0
H1063 H 0.7353 0.8661 0.89367 0.0
H1064 H 0.76397 0.84248 0.97546 0.0
H1065 H 0.71794 0.83896 0.07117 0.0
H1066 H 0.71849 0.82699 0.03152 0.0
H1067 H 0.71689 0.8451 0.02184 0.0
C1068 C 0.72141 0.83471 0.91468 0.0
C1069 C 0.72417 0.84678 0.89356 0.0
C1070 C 0.72782 0.83243 0.95058 0.0
C1071 C 0.73681 0.84234 0.96606 0.0
C1072 C 0.7392 0.85454 0.94529 0.0
H1073 H 0.76473 0.86365 0.18868 0.0
H1074 H 0.75359 0.85964 0.12638 0.0
C1075 C 0.73303 0.85669 0.90934 0.0
C1076 C 0.74424 0.84008 0.00315 0.0
H1077 H 0.7396 0.83715 0.10097 0.0
C1078 C 0.75866 0.84119 0.00293 0.0
C1079 C 0.73728 0.83833 0.03887 0.0
C1080 C 0.7218 0.83737 0.04114 0.0
C1081 C 0.76626 0.8414 0.03752 0.0
C1082 C 0.75927 0.84007 0.07332 0.0
C1083 C 0.74492 0.83818 0.07344 0.0
C1084 C 0.76633 0.8422 0.11098 0.0
C1085 C 0.78158 0.84386 0.03545 0.0
C1086 C 0.77729 0.83376 0.12301 0.0
C1087 C 0.78385 0.83618 0.15856 0.0
C1088 C 0.77939 0.84694 0.18275 0.0
C1089 C 0.7684 0.85529 0.17064 0.0
C1090 C 0.76197 0.85296 0.13512 0.0
H1091 H 0.78488 0.84744 0.00626 0.0
H1092 H 0.78481 0.85163 0.05722 0.0
H1093 H 0.78708 0.83411 0.04186 0.0
H1094 H 0.78066 0.82524 0.10516 0.0
H1095 H 0.79218 0.82948 0.16744 0.0
H1096 H 0.39541 0.4984 0.11271 0.0
H1097 H 0.39838 0.51212 0.17093 0.0
H1098 H 0.42069 0.47877 0.22477 0.0
H1099 H 0.41822 0.46504 0.16537 0.0
H1100 H 0.3886 0.50698 0.24009 0.0
H1101 H 0.44533 0.51125 0.24946 0.0
H1102 H 0.43664 0.50515 0.20648 0.0
H1103 H 0.43961 0.49372 0.24674 0.0
C1104 C 0.40108 0.49398 0.13672 0.0
C1105 C 0.40663 0.48064 0.13441 0.0
C1106 C 0.40277 0.50187 0.17001 0.0
C1107 C 0.40996 0.49659 0.20196 0.0
C1108 C 0.41542 0.4832 0.20004 0.0
H1109 H 0.39796 0.51533 0.43703 0.0
H1110 H 0.39956 0.50679 0.37114 0.0
C1111 C 0.41385 0.47529 0.16635 0.0
C1112 C 0.41067 0.50478 0.2381 0.0
H1113 H 0.4326 0.51735 0.30692 0.0
C1114 C 0.39825 0.50938 0.25436 0.0
C1115 C 0.42327 0.5082 0.2563 0.0
C1116 C 0.43698 0.50446 0.23863 0.0
C1117 C 0.39803 0.51676 0.28917 0.0
C1118 C 0.41053 0.51925 0.30888 0.0
C1119 C 0.42303 0.51528 0.29184 0.0
C1120 C 0.41051 0.52452 0.34904 0.0
C1121 C 0.38436 0.52159 0.30493 0.0
C1122 C 0.41657 0.53718 0.35873 0.0
C1123 C 0.41579 0.54211 0.39692 0.0
C1124 C 0.40896 0.53439 0.42561 0.0
C1125 C 0.40321 0.52161 0.41567 0.0
C1126 C 0.40406 0.5167 0.37793 0.0
H1127 H 0.37665 0.52285 0.2814 0.0
H1128 H 0.38033 0.51381 0.32561 0.0
H1129 H 0.38542 0.53154 0.32052 0.0
H1130 H 0.42166 0.54331 0.33672 0.0
H1131 H 0.42038 0.55196 0.40388 0.0
H1132 H 0.7355 0.14206 0.68247 0.0
H1133 H 0.74623 0.14572 0.61937 0.0
H1134 H 0.72563 0.18491 0.60902 0.0
H1135 H 0.71437 0.181 0.67215 0.0
H1136 H 0.72588 0.17131 0.54069 0.0
H1137 H 0.77838 0.17091 0.60122 0.0
H1138 H 0.76943 0.15553 0.61495 0.0
H1139 H 0.76326 0.17201 0.63154 0.0
C1140 C 0.73317 0.15141 0.66663 0.0
C1141 C 0.7242 0.16129 0.68219 0.0
C1142 C 0.73942 0.15356 0.63076 0.0
C1143 C 0.73712 0.1658 0.6101 0.0
C1144 C 0.72769 0.17547 0.62477 0.0
H1145 H 0.79199 0.17531 0.40744 0.0
H1146 H 0.78048 0.18059 0.46917 0.0
C1147 C 0.72122 0.17321 0.66063 0.0
C1148 C 0.74458 0.16819 0.5731 0.0
H1149 H 0.77655 0.16536 0.5327 0.0
C1150 C 0.73698 0.17026 0.539 0.0
C1151 C 0.75911 0.1673 0.5709 0.0
C1152 C 0.76801 0.16648 0.60672 0.0
C1153 C 0.74344 0.17033 0.50253 0.0
C1154 C 0.75779 0.16785 0.50014 0.0
C1155 C 0.76551 0.16692 0.53441 0.0
C1156 C 0.76473 0.165 0.46262 0.0
C1157 C 0.73479 0.17285 0.46688 0.0
C1158 C 0.75995 0.15425 0.43905 0.0
C1159 C 0.76645 0.15126 0.40399 0.0
C1160 C 0.77803 0.15879 0.39197 0.0
C1161 C 0.78309 0.16931 0.41603 0.0
C1162 C 0.7765 0.17238 0.45116 0.0
H1163 H 0.72575 0.17942 0.47377 0.0
H1164 H 0.74084 0.17789 0.44349 0.0
H1165 H 0.73086 0.16287 0.45589 0.0
H1166 H 0.7512 0.14809 0.44789 0.0
H1167 H 0.76237 0.14302 0.38624 0.0
H1168 H 0.90149 0.50793 0.11815 0.0
H1169 H 0.90381 0.49836 0.18296 0.0
H1170 H 0.92197 0.53628 0.22283 0.0
H1171 H 0.92002 0.54595 0.15695 0.0
H1172 H 0.93475 0.51116 0.25262 0.0
H1173 H 0.87802 0.5116 0.27006 0.0
H1174 H 0.88362 0.50297 0.22683 0.0
H1175 H 0.88669 0.52113 0.23229 0.0
C1176 C 0.90607 0.51427 0.14048 0.0
C1177 C 0.91043 0.52777 0.13253 0.0
C1178 C 0.90738 0.50876 0.17756 0.0
C1179 C 0.91284 0.51669 0.20772 0.0
C1180 C 0.91767 0.53003 0.19983 0.0
H1181 H 0.89589 0.49739 0.44611 0.0
H1182 H 0.89931 0.50829 0.38353 0.0
C1183 C 0.91649 0.53555 0.16235 0.0
C1184 C 0.91266 0.51113 0.24767 0.0
H1185 H 0.89067 0.49847 0.31599 0.0
C1186 C 0.92515 0.50848 0.26677 0.0
C1187 C 0.90009 0.5078 0.26608 0.0
C1188 C 0.88634 0.51114 0.24796 0.0
C1189 C 0.92536 0.50225 0.30364 0.0
C1190 C 0.91277 0.49838 0.32123 0.0
C1191 C 0.90033 0.50128 0.30227 0.0
C1192 C 0.91201 0.49198 0.36021 0.0
C1193 C 0.93898 0.50004 0.32364 0.0
C1194 C 0.91808 0.47913 0.36811 0.0
C1195 C 0.91624 0.47285 0.40443 0.0
C1196 C 0.90817 0.47928 0.433 0.0
C1197 C 0.90218 0.49213 0.42485 0.0
C1198 C 0.90413 0.49842 0.389 0.0
H1199 H 0.94721 0.50659 0.31091 0.0
H1200 H 0.93818 0.50231 0.35513 0.0
H1201 H 0.94212 0.48912 0.32032 0.0
H1202 H 0.92396 0.47383 0.34598 0.0
H1203 H 0.92097 0.46294 0.40993 0.0
H1204 H 0.24342 0.14055 0.88597 0.0
H1205 H 0.2542 0.14433 0.94868 0.0
H1206 H 0.223 0.1742 0.97763 0.0
H1207 H 0.21215 0.17065 0.91386 0.0
H1208 H 0.25141 0.18217 -0.00434 0.0
H1209 H 0.23763 0.13041 0.05159 0.0
H1210 H 0.24603 0.13005 0.00519 0.0
H1211 H 0.22937 0.13797 0.00981 0.0
C1212 C 0.23879 0.14792 0.90558 0.0
C1213 C 0.22688 0.15525 0.89511 0.0
C1214 C 0.24498 0.15005 0.94144 0.0
C1215 C 0.23933 0.15944 0.96779 0.0
C1216 C 0.22748 0.16689 0.95754 0.0
H1217 H 0.25889 0.15736 0.20879 0.0
H1218 H 0.2481 0.15917 0.14586 0.0
C1219 C 0.22125 0.16478 0.92136 0.0
C1220 C 0.24578 0.16107 0.00629 0.0
H1221 H 0.25446 0.14281 0.08705 0.0
C1222 C 0.25199 0.17365 0.01596 0.0
C1223 C 0.24646 0.14991 0.03253 0.0
C1224 C 0.23941 0.13636 0.0245 0.0
C1225 C 0.25906 0.1753 0.05125 0.0
C1226 C 0.26008 0.16398 0.07695 0.0
C1227 C 0.25377 0.15145 0.06718 0.0
C1228 C 0.26673 0.16491 0.1155 0.0
C1229 C 0.26518 0.18913 0.06098 0.0
C1230 C 0.28083 0.16786 0.11968 0.0
C1231 C 0.28708 0.16709 0.15634 0.0
C1232 C 0.27934 0.16308 0.18892 0.0
C1233 C 0.26522 0.16044 0.18447 0.0
C1234 C 0.25898 0.16146 0.14835 0.0
H1235 H 0.26079 0.19747 0.04267 0.0
H1236 H 0.26342 0.19171 0.09197 0.0
H1237 H 0.27645 0.1888 0.05587 0.0
H1238 H 0.28707 0.17029 0.09455 0.0
H1239 H 0.29799 0.16915 0.15896 0.0
H1240 H 0.58511 0.54728 0.91418 0.0
H1241 H 0.58328 0.53719 0.84878 0.0
H1242 H 0.60848 0.50298 0.8854 0.0
H1243 H 0.61072 0.51304 0.94925 0.0
H1244 H 0.61728 0.51404 0.81831 0.0
H1245 H 0.56103 0.50352 0.81276 0.0
H1246 H 0.56588 0.52101 0.82301 0.0
H1247 H 0.56985 0.50767 0.85734 0.0
C1248 C 0.59024 0.53763 0.90806 0.0
C1249 C 0.59804 0.53096 0.93683 0.0
C1250 C 0.58909 0.53182 0.87093 0.0
C1251 C 0.59562 0.51925 0.86249 0.0
C1252 C 0.60333 0.51266 0.89131 0.0
H1253 H 0.58864 0.46086 0.67191 0.0
H1254 H 0.58681 0.47274 0.73478 0.0
C1255 C 0.60458 0.51845 0.92791 0.0
C1256 C 0.59521 0.513 0.82339 0.0
H1257 H 0.57411 0.49759 0.75722 0.0
C1258 C 0.60783 0.5105 0.80488 0.0
C1259 C 0.58288 0.50819 0.80635 0.0
C1260 C 0.56912 0.5101 0.82591 0.0
C1261 C 0.60852 0.50314 0.77011 0.0
C1262 C 0.59619 0.49858 0.75251 0.0
C1263 C 0.58352 0.50114 0.7708 0.0
C1264 C 0.59637 0.49156 0.71449 0.0
C1265 C 0.62252 0.49998 0.75319 0.0
C1266 C 0.60211 0.49829 0.68241 0.0
C1267 C 0.60342 0.49149 0.64714 0.0
C1268 C 0.59868 0.47791 0.64279 0.0
C1269 C 0.59245 0.47129 0.67454 0.0
C1270 C 0.59133 0.47808 0.71028 0.0
H1271 H 0.6307 0.50038 0.77566 0.0
H1272 H 0.62272 0.48965 0.73946 0.0
H1273 H 0.62504 0.50778 0.73073 0.0
H1274 H 0.60578 0.50878 0.6848 0.0
H1275 H 0.60819 0.49695 0.6233 0.0
H1276 H 0.21406 0.83724 0.65681 0.0
H1277 H 0.22595 0.8339 0.59449 0.0
H1278 H 0.25999 0.85835 0.63558 0.0
H1279 H 0.24816 0.86203 0.69678 0.0
H1280 H 0.25122 0.86659 0.56559 0.0
H1281 H 0.25927 0.81001 0.56642 0.0
H1282 H 0.2417 0.81523 0.57351 0.0
H1283 H 0.25443 0.81952 0.60932 0.0
C1284 C 0.22409 0.84187 0.65243 0.0
C1285 C 0.23016 0.84991 0.68163 0.0
C1286 C 0.23093 0.83983 0.61706 0.0
C1287 C 0.24396 0.8457 0.61069 0.0
C1288 C 0.25 0.85365 0.63996 0.0
H1289 H 0.29934 0.8354 0.41024 0.0
H1290 H 0.2898 0.83439 0.47652 0.0
C1291 C 0.24318 0.85576 0.67496 0.0
C1292 C 0.251 0.84456 0.57273 0.0
H1293 H 0.26447 0.82181 0.50733 0.0
C1294 C 0.25419 0.85679 0.55302 0.0
C1295 C 0.25507 0.83178 0.5567 0.0
C1296 C 0.25258 0.81838 0.57769 0.0
C1297 C 0.26105 0.85661 0.51735 0.0
C1298 C 0.26453 0.84384 0.50037 0.0
C1299 C 0.2617 0.83157 0.52041 0.0
C1300 C 0.27013 0.84318 0.46054 0.0
C1301 C 0.26449 0.87015 0.49805 0.0
C1302 C 0.26211 0.84814 0.42986 0.0
C1303 C 0.26753 0.84891 0.3926 0.0
C1304 C 0.28103 0.84449 0.38496 0.0
C1305 C 0.28893 0.83895 0.41539 0.0
C1306 C 0.28349 0.83832 0.45309 0.0
H1307 H 0.26486 0.87871 0.51938 0.0
H1308 H 0.27454 0.86961 0.48278 0.0
H1309 H 0.25642 0.87264 0.47638 0.0
H1310 H 0.2517 0.85173 0.43494 0.0
H1311 H 0.2611 0.85313 0.36988 0.0
H1312 H 0.58717 0.04672 0.16454 0.0
H1313 H 0.5851 0.03596 0.22904 0.0
H1314 H 0.60361 0.99883 0.18454 0.0
H1315 H 0.60612 0.0095 0.12121 0.0
H1316 H 0.57211 0.01084 0.25454 0.0
H1317 H 0.62871 0.00968 0.27457 0.0
H1318 H 0.62053 0.01989 0.2374 0.0
H1319 H 0.62326 1.00175 0.23019 0.0
C1320 C 0.5908 0.03628 0.16868 0.0
C1321 C 0.59694 0.02901 0.13795 0.0
C1322 C 0.58954 0.03013 0.20535 0.0
C1323 C 0.59439 0.01668 0.21154 0.0
C1324 C 0.60004 0.00931 0.18051 0.0
H1325 H 0.58433 0.96124 0.4109 0.0
H1326 H 0.582 0.97206 0.34654 0.0
C1327 C 0.60143 0.01544 0.14425 0.0
C1328 C 0.59422 0.01037 0.25058 0.0
H1329 H 0.61548 0.99625 0.31843 0.0
C1330 C 0.58156 0.00772 0.26877 0.0
C1331 C 0.6066 0.00642 0.26905 0.0
C1332 C 0.62055 0.0097 0.25201 0.0
C1333 C 0.58098 1.001 0.30492 0.0
C1334 C 0.59336 0.99666 0.32268 0.0
C1335 C 0.60598 0.99943 0.3045 0.0
C1336 C 0.59376 0.99022 0.3616 0.0
C1337 C 0.5672 0.99885 0.32413 0.0
C1338 C 0.60129 0.99673 0.39092 0.0
C1339 C 0.60284 0.99052 0.42697 0.0
C1340 C 0.59681 0.97767 0.43479 0.0
C1341 C 0.58909 0.97115 0.40563 0.0
C1342 C 0.58764 0.97738 0.36909 0.0
H1343 H 0.55905 0.00535 0.31083 0.0
H1344 H 0.56412 0.98791 0.32098 0.0
H1345 H 0.56778 1.0012 0.35561 0.0
H1346 H 0.60614 0.00661 0.38574 0.0
H1347 H 0.60888 0.99584 0.44866 0.0
H1348 H 0.25049 0.36341 0.37771 0.0
H1349 H 0.26383 0.35919 0.43599 0.0
H1350 H 0.22981 0.3366 0.48541 0.0
H1351 H 0.21653 0.34022 0.42567 0.0
H1352 H 0.25886 0.36799 0.50498 0.0
H1353 H 0.26117 0.3111 0.51079 0.0
H1354 H 0.25534 0.32032 0.46834 0.0
H1355 H 0.2438 0.31732 0.50837 0.0
C1356 C 0.24584 0.3574 0.40069 0.0
C1357 C 0.23245 0.3521 0.397 0.0
C1358 C 0.25352 0.35498 0.43406 0.0
C1359 C 0.24795 0.34738 0.46486 0.0
C1360 C 0.23449 0.34216 0.46157 0.0
H1361 H 0.26478 0.35656 0.70153 0.0
H1362 H 0.25691 0.35567 0.63489 0.0
C1363 C 0.22684 0.3444 0.42769 0.0
C1364 C 0.25588 0.34603 0.50141 0.0
H1365 H 0.2671 0.3231 0.56972 0.0
C1366 C 0.26082 0.35813 0.51872 0.0
C1367 C 0.2587 0.33316 0.51907 0.0
C1368 C 0.2546 0.31973 0.50046 0.0
C1369 C 0.26794 0.35779 0.55394 0.0
C1370 C 0.26983 0.34506 0.57305 0.0
C1371 C 0.26551 0.33285 0.55506 0.0
C1372 C 0.27468 0.34459 0.61361 0.0
C1373 C 0.27313 0.37114 0.57086 0.0
C1374 C 0.28715 0.33826 0.62395 0.0
C1375 C 0.29172 0.33866 0.66257 0.0
C1376 C 0.28379 0.34535 0.69103 0.0
C1377 C 0.2712 0.35138 0.68039 0.0
C1378 C 0.26667 0.35092 0.64223 0.0
H1379 H 0.27479 0.37902 0.54794 0.0
H1380 H 0.26536 0.37524 0.59145 0.0
H1381 H 0.28293 0.36958 0.58685 0.0
H1382 H 0.29342 0.33325 0.60212 0.0
H1383 H 0.30142 0.33386 0.67006 0.0
H1384 H 0.9187 0.04642 0.90435 0.0
H1385 H 0.92111 0.03547 0.84025 0.0
H1386 H 0.90397 0.99791 0.88635 0.0
H1387 H 0.90103 0.00877 0.94912 0.0
H1388 H 0.93458 0.01069 0.81398 0.0
H1389 H 0.87786 0.00802 0.79808 0.0
H1390 H 0.88609 0.01844 0.83461 0.0
H1391 H 0.8839 1.00023 0.8421 0.0
C1392 C 0.91547 0.03583 0.90066 0.0
C1393 C 0.9095 0.02852 0.93161 0.0
C1394 C 0.91692 0.02958 0.86422 0.0
C1395 C 0.91251 0.01596 0.85857 0.0
C1396 C 0.90719 0.00851 0.88995 0.0
H1397 H 0.92219 0.96094 0.65826 0.0
H1398 H 0.92489 0.97168 0.72253 0.0
C1399 C 0.90554 0.01476 0.92591 0.0
C1400 C 0.91253 0.00961 0.81962 0.0
H1401 H 0.89104 0.99489 0.75353 0.0
C1402 C 0.92508 0.00731 0.8005 0.0
C1403 C 0.9001 0.00532 0.8021 0.0
C1404 C 0.88621 0.00824 0.82008 0.0
C1405 C 0.92551 1.0006 0.76435 0.0
C1406 C 0.91308 0.99592 0.74757 0.0
C1407 C 0.90057 0.99833 0.76671 0.0
C1408 C 0.91247 0.98954 0.70865 0.0
C1409 C 0.93915 0.99884 0.74406 0.0
C1410 C 0.90443 0.99589 0.68005 0.0
C1411 C 0.90267 0.98971 0.6441 0.0
C1412 C 0.909 0.97705 0.63562 0.0
C1413 C 0.91719 0.97069 0.66406 0.0
C1414 C 0.91886 0.97688 0.70053 0.0
H1415 H 0.94725 0.00553 0.75678 0.0
H1416 H 0.94255 0.98798 0.74686 0.0
H1417 H 0.9382 1.00124 0.71266 0.0
H1418 H 0.89937 0.00562 0.68574 0.0
H1419 H 0.89627 0.9949 0.62297 0.0
H1420 H 0.29154 0.67861 0.90345 0.0
H1421 H 0.28014 0.68182 0.96652 0.0
H1422 H 0.2552 0.64586 0.94517 0.0
H1423 H 0.26612 0.64296 0.88205 0.0
H1424 H 0.23986 0.66688 0.97108 0.0
H1425 H 0.28588 0.66037 0.06544 0.0
H1426 H 0.28692 0.67395 0.03016 0.0
H1427 H 0.2862 0.65634 0.01439 0.0
C1428 C 0.28372 0.67134 0.91255 0.0
C1429 C 0.27974 0.6605 0.88805 0.0
C1430 C 0.27723 0.67316 0.94855 0.0
C1431 C 0.26688 0.66401 0.96074 0.0
C1432 C 0.2631 0.6531 0.93635 0.0
H1433 H 0.23748 0.63788 0.17847 0.0
H1434 H 0.24817 0.64239 0.11569 0.0
C1435 C 0.26939 0.65141 0.90035 0.0
C1436 C 0.25973 0.6656 -0.00145 0.0
H1437 H 0.26463 0.66367 0.09644 0.0
C1438 C 0.24527 0.6663 -0.00143 0.0
C1439 C 0.26682 0.66488 0.03433 0.0
C1440 C 0.28229 0.66374 0.03632 0.0
C1441 C 0.23768 0.66553 0.03318 0.0
C1442 C 0.24476 0.6644 0.06887 0.0
C1443 C 0.25923 0.66448 0.06899 0.0
C1444 C 0.23752 0.66167 0.10602 0.0
C1445 C 0.22217 0.66514 0.03098 0.0
C1446 C 0.22777 0.6709 0.12124 0.0
C1447 C 0.22142 0.66819 0.15699 0.0
C1448 C 0.22495 0.65634 0.17824 0.0
C1449 C 0.23458 0.64709 0.16271 0.0
C1450 C 0.24074 0.6497 0.12693 0.0
H1451 H 0.21847 0.66316 0.001 0.0
H1452 H 0.21795 0.65705 0.05042 0.0
H1453 H 0.21797 0.67521 0.04045 0.0
H1454 H 0.2253 0.68033 0.10599 0.0
H1455 H 0.21417 0.67558 0.16862 0.0
H1456 H 0.42692 0.96361 0.91897 0.0
H1457 H 0.43183 0.9748 0.85641 0.0
H1458 H 0.39508 0.99938 0.86868 0.0
H1459 H 0.39041 0.98862 0.9312 0.0
H1460 H 0.418 0.97647 0.78901 0.0
H1461 H 0.42337 0.02874 0.8488 0.0
H1462 H 0.42311 0.01361 0.87926 0.0
H1463 H 0.40725 0.02149 0.86359 0.0
C1464 C 0.41988 0.97135 0.90808 0.0
C1465 C 0.40834 0.97534 0.92998 0.0
C1466 C 0.42272 0.97778 0.87251 0.0
C1467 C 0.41405 0.98824 0.85848 0.0
C1468 C 0.4022 0.99171 0.87959 0.0
H1469 H 0.39211 0.0147 0.63543 0.0
H1470 H 0.39664 1.00343 0.6973 0.0
C1471 C 0.39945 0.98545 0.91513 0.0
C1472 C 0.41696 0.99541 0.82133 0.0
H1473 H 0.4169 0.02747 0.78066 0.0
C1474 C 0.41803 0.98762 0.78723 0.0
C1475 C 0.41751 0.00996 0.81898 0.0
C1476 C 0.41792 0.01891 0.85472 0.0
C1477 C 0.41842 0.994 0.75068 0.0
C1478 C 0.41726 0.00852 0.74822 0.0
C1479 C 0.41741 0.01633 0.78242 0.0
C1480 C 0.41465 0.01563 0.7108 0.0
C1481 C 0.41985 0.98509 0.71507 0.0
C1482 C 0.42282 0.02678 0.69867 0.0
C1483 C 0.42003 0.03349 0.66352 0.0
C1484 C 0.40905 0.02912 0.64004 0.0
C1485 C 0.40072 0.0182 0.65274 0.0
C1486 C 0.40341 0.01163 0.6879 0.0
H1487 H 0.42575 0.97557 0.72168 0.0
H1488 H 0.40947 0.98193 0.70506 0.0
H1489 H 0.4251 0.99066 0.69109 0.0
H1490 H 0.43144 0.03016 0.71614 0.0
H1491 H 0.42664 0.04186 0.65433 0.0
H1492 H 0.70927 0.67386 0.41298 0.0
H1493 H 0.71941 0.67604 0.47817 0.0
H1494 H 0.75423 0.65173 0.44148 0.0
H1495 H 0.74413 0.64919 0.3776 0.0
H1496 H 0.74237 0.64218 0.50781 0.0
H1497 H 0.75282 0.69836 0.51767 0.0
H1498 H 0.73552 0.69359 0.50492 0.0
H1499 H 0.74938 0.68984 0.47215 0.0
C1500 C 0.71911 0.66906 0.41894 0.0
C1501 C 0.72587 0.66131 0.39025 0.0
C1502 C 0.72494 0.67042 0.45598 0.0
C1503 C 0.73764 0.66415 0.46446 0.0
C1504 C 0.74445 0.65667 0.43552 0.0
H1505 H 0.79333 0.6684 0.66214 0.0
H1506 H 0.78238 0.6712 0.59822 0.0
C1507 C 0.73862 0.65523 0.39895 0.0
C1508 C 0.74355 0.66427 0.50401 0.0
H1509 H 0.75778 0.6849 0.57343 0.0
C1510 C 0.74571 0.65153 0.52219 0.0
C1511 C 0.74806 0.67648 0.52235 0.0
C1512 C 0.74646 0.69036 0.50327 0.0
C1513 C 0.75235 0.6506 0.55808 0.0
C1514 C 0.75658 0.6628 0.57697 0.0
C1515 C 0.75445 0.67559 0.55889 0.0
C1516 C 0.76294 0.66231 0.61593 0.0
C1517 C 0.75503 0.6365 0.575 0.0
C1518 C 0.75554 0.65665 0.64696 0.0
C1519 C 0.76179 0.65482 0.68291 0.0
C1520 C 0.7755 0.65889 0.68889 0.0
C1521 C 0.78278 0.66509 0.65824 0.0
C1522 C 0.77652 0.66676 0.62189 0.0
H1523 H 0.75478 0.62837 0.55236 0.0
H1524 H 0.76518 0.6361 0.58977 0.0
H1525 H 0.74693 0.63408 0.59666 0.0
H1526 H 0.74496 0.65339 0.64314 0.0
H1527 H 0.75583 0.65013 0.70594 0.0
H1528 H 0.10716 0.00753 0.45342 0.0
H1529 H 0.10393 0.99679 0.39046 0.0
H1530 H 0.08181 0.03256 0.35032 0.0
H1531 H 0.08466 0.04337 0.4144 0.0
H1532 H 0.07036 0.00603 0.32616 0.0
H1533 H 0.12638 0.01077 0.29722 0.0
H1534 H 0.12237 1.00217 0.34194 0.0
H1535 H 0.11793 0.02002 0.33584 0.0
C1536 C 0.10151 0.01314 0.43144 0.0
C1537 C 0.09629 0.02638 0.43874 0.0
C1538 C 0.09968 0.00695 0.39543 0.0
C1539 C 0.09281 0.01396 0.36568 0.0
C1540 C 0.08717 0.02702 0.37302 0.0
H1541 H 0.10508 0.99803 0.12516 0.0
H1542 H 0.10178 0.00768 0.18932 0.0
C1543 C 0.08889 0.0332 0.40944 0.0
C1544 C 0.09244 0.00791 0.32638 0.0
H1545 H 0.11355 0.99715 0.25347 0.0
C1546 C 0.07976 0.00414 0.31002 0.0
C1547 C 0.10475 0.00552 0.30552 0.0
C1548 C 0.11862 0.00994 0.32081 0.0
C1549 C 0.0791 0.99794 0.27319 0.0
C1550 C 0.09146 0.99532 0.25277 0.0
C1551 C 0.10409 0.99909 0.26932 0.0
C1552 C 0.09173 0.98965 0.21293 0.0
C1553 C 0.06524 0.99449 0.25613 0.0
C1554 C 0.08697 0.97631 0.20462 0.0
C1555 C 0.08871 0.97075 0.16738 0.0
C1556 C 0.09542 0.97841 0.13835 0.0
C1557 C 0.09993 0.99181 0.1468 0.0
C1558 C 0.09803 0.99738 0.18354 0.0
H1559 H 0.05673 0.99977 0.27173 0.0
H1560 H 0.06481 0.9974 0.22498 0.0
H1561 H 0.06351 0.98323 0.25827 0.0
H1562 H 0.08231 0.97007 0.22712 0.0
H1563 H 0.08515 0.96039 0.16162 0.0
H1564 H 0.73751 0.36433 0.18996 0.0
H1565 H 0.74831 0.36104 0.12685 0.0
H1566 H 0.7258 0.32314 0.1117 0.0
H1567 H 0.71453 0.32668 0.17484 0.0
H1568 H 0.76499 0.34029 0.10474 0.0
H1569 H 0.71887 0.34229 0.0092 0.0
H1570 H 0.71825 0.34745 0.05944 0.0
H1571 H 0.71855 0.32951 0.04688 0.0
C1572 C 0.73472 0.35537 0.173 0.0
C1573 C 0.72514 0.34579 0.18715 0.0
C1574 C 0.74095 0.35347 0.137 0.0
C1575 C 0.73786 0.34187 0.11443 0.0
C1576 C 0.72818 0.33229 0.12829 0.0
H1577 H 0.79196 0.33011 0.90937 0.0
H1578 H 0.78063 0.32541 0.97177 0.0
C1579 C 0.72176 0.33431 0.16432 0.0
C1580 C 0.74515 0.33995 0.07695 0.0
H1581 H 0.74036 0.33987 0.97888 0.0
C1582 C 0.75962 0.34006 0.07716 0.0
C1583 C 0.73811 0.33961 0.04108 0.0
C1584 C 0.7226 0.3398 0.03886 0.0
C1585 C 0.76723 0.34063 0.04256 0.0
C1586 C 0.76017 0.34073 0.00669 0.0
C1587 C 0.74573 0.33983 0.00645 0.0
C1588 C 0.76735 0.34331 0.96934 0.0
C1589 C 0.78269 0.34194 0.04486 0.0
C1590 C 0.76356 0.3548 0.94708 0.0
C1591 C 0.76985 0.35737 0.91145 0.0
C1592 C 0.78016 0.34857 0.89737 0.0
C1593 C 0.78416 0.33716 0.91983 0.0
C1594 C 0.77771 0.33448 0.95545 0.0
H1595 H 0.78621 0.34458 0.07461 0.0
H1596 H 0.78748 0.33199 0.03665 0.0
H1597 H 0.78648 0.34996 0.02452 0.0
H1598 H 0.75566 0.3618 0.95726 0.0
H1599 H 0.76656 0.36624 0.89477 0.0
H1600 H 0.11476 0.49695 0.43376 0.0
H1601 H 0.12213 0.49443 0.36682 0.0
H1602 H 0.12312 0.5386 0.35368 0.0
H1603 H 0.11524 0.54124 0.42082 0.0
H1604 H 0.10896 0.52737 0.29806 0.0
H1605 H 0.15737 0.49822 0.30895 0.0
H1606 H 0.14433 0.4896 0.33648 0.0
H1607 H 0.14974 0.50666 0.35039 0.0
C1608 C 0.11674 0.50616 0.41691 0.0
C1609 C 0.11433 0.5193 0.43254 0.0
C1610 C 0.12114 0.50469 0.37868 0.0
C1611 C 0.12352 0.51632 0.35544 0.0
C1612 C 0.12148 0.52949 0.37124 0.0
H1613 H 0.12687 0.51094 0.1011 0.0
H1614 H 0.13278 0.51926 0.16579 0.0
C1615 C 0.1169 0.53098 0.40948 0.0
C1616 C 0.12619 0.51451 0.31346 0.0
H1617 H 0.14393 0.49436 0.24949 0.0
C1618 C 0.11687 0.52048 0.28729 0.0
C1619 C 0.13657 0.50558 0.29935 0.0
C1620 C 0.14765 0.4998 0.32535 0.0
C1621 C 0.1169 0.51684 0.248 0.0
C1622 C 0.12652 0.50702 0.23465 0.0
C1623 C 0.13646 0.50176 0.2601 0.0
C1624 C 0.12532 0.50113 0.19544 0.0
C1625 C 0.10607 0.52284 0.22149 0.0
C1626 C 0.11962 0.48798 0.19089 0.0
C1627 C 0.11614 0.48317 0.15401 0.0
C1628 C 0.11834 0.49147 0.12113 0.0
C1629 C 0.12487 0.50432 0.12578 0.0
C1630 C 0.12831 0.50911 0.16267 0.0
H1631 H 0.09855 0.52937 0.23735 0.0
H1632 H 0.11111 0.52925 0.19891 0.0
H1633 H 0.10039 0.51447 0.20653 0.0
H1634 H 0.11723 0.48171 0.21604 0.0
H1635 H 0.11127 0.47319 0.15151 0.0
H1636 H 0.7608 0.87065 0.70747 0.0
H1637 H 0.76637 0.87584 0.64003 0.0
H1638 H 0.72359 0.87149 0.60903 0.0
H1639 H 0.71794 0.86595 0.67635 0.0
H1640 H 0.73994 0.85528 0.56639 0.0
H1641 H 0.76166 0.90799 0.56668 0.0
H1642 H 0.7697 0.89689 0.60162 0.0
H1643 H 0.75177 0.90121 0.60679 0.0
C1644 C 0.75251 0.87108 0.68652 0.0
C1645 C 0.73894 0.86774 0.69729 0.0
C1646 C 0.75571 0.87417 0.64795 0.0
C1647 C 0.74538 0.8742 0.61952 0.0
C1648 C 0.73172 0.87156 0.63054 0.0
H1649 H 0.74811 0.87654 0.36811 0.0
H1650 H 0.74242 0.88152 0.43568 0.0
C1651 C 0.72852 0.86835 0.66903 0.0
C1652 C 0.74907 0.87507 0.57782 0.0
H1653 H 0.76638 0.89421 0.5102 0.0
C1654 C 0.74556 0.86389 0.55407 0.0
C1655 C 0.75648 0.88627 0.5618 0.0
C1656 C 0.76001 0.89883 0.58546 0.0
C1657 C 0.74951 0.86344 0.51503 0.0
C1658 C 0.75717 0.87445 0.49929 0.0
C1659 C 0.76056 0.88576 0.52264 0.0
C1660 C 0.76174 0.87404 0.45847 0.0
C1661 C 0.74571 0.85107 0.49084 0.0
C1662 C 0.77466 0.86855 0.44907 0.0
C1663 C 0.77795 0.8656 0.41046 0.0
C1664 C 0.76833 0.86806 0.38069 0.0
C1665 C 0.75573 0.87439 0.39021 0.0
C1666 C 0.75246 0.87733 0.42879 0.0
H1667 H 0.74036 0.84301 0.50808 0.0
H1668 H 0.73885 0.85432 0.46677 0.0
H1669 H 0.7551 0.84652 0.47771 0.0
H1670 H 0.78189 0.8659 0.47178 0.0
H1671 H 0.78779 0.86082 0.40423 0.0
H1672 H 0.38259 0.4972 0.60377 0.0
H1673 H 0.37768 0.48964 0.66989 0.0
H1674 H 0.39146 0.5288 0.71383 0.0
H1675 H 0.39652 0.5365 0.64788 0.0
H1676 H 0.40596 0.50468 0.74065 0.0
H1677 H 0.34915 0.4998 0.75683 0.0
H1678 H 0.35673 0.49298 0.7132 0.0
H1679 H 0.357 0.51119 0.72168 0.0
C1680 C 0.38432 0.50434 0.62735 0.0
C1681 C 0.39019 0.51738 0.62054 0.0
C1682 C 0.38139 0.50002 0.6651 0.0
C1683 C 0.38417 0.50869 0.69655 0.0
C1684 C 0.38921 0.522 0.68976 0.0
H1685 H 0.3799 0.50377 0.94192 0.0
H1686 H 0.37531 0.50775 0.87334 0.0
C1687 C 0.39215 0.52635 0.65206 0.0
C1688 C 0.38392 0.50321 0.73645 0.0
H1689 H 0.36289 0.49165 0.80886 0.0
C1690 C 0.39656 0.5018 0.75558 0.0
C1691 C 0.37161 0.49942 0.75547 0.0
C1692 C 0.3578 0.50097 0.73599 0.0
C1693 C 0.39725 0.49687 0.79364 0.0
C1694 C 0.38496 0.49308 0.81284 0.0
C1695 C 0.37228 0.49439 0.79368 0.0
C1696 C 0.3852 0.48904 0.85407 0.0
C1697 C 0.41109 0.49615 0.81346 0.0
C1698 C 0.39183 0.4769 0.86587 0.0
C1699 C 0.39459 0.4746 0.90514 0.0
C1700 C 0.39076 0.48445 0.93306 0.0
C1701 C 0.3832 0.49608 0.92118 0.0
C1702 C 0.38045 0.49834 0.88201 0.0
H1703 H 0.41922 0.5016 0.79676 0.0
H1704 H 0.41052 0.50072 0.84295 0.0
H1705 H 0.41421 0.48522 0.81659 0.0
H1706 H 0.39548 0.46957 0.84455 0.0
H1707 H 0.40028 0.46546 0.91332 0.0
H1708 H 0.78809 0.13483 0.18082 0.0
H1709 H 0.78425 0.12942 0.11234 0.0
H1710 H 0.74051 0.1345 0.12855 0.0
H1711 H 0.74421 0.13933 0.19727 0.0
H1712 H 0.74611 0.11396 0.07721 0.0
H1713 H 0.77618 0.16092 0.04014 0.0
H1714 H 0.78562 0.14812 0.06663 0.0
H1715 H 0.77136 0.1568 0.08928 0.0
C1716 C 0.77764 0.13461 0.16987 0.0
C1717 C 0.76646 0.13773 0.19425 0.0
C1718 C 0.77547 0.13155 0.13074 0.0
C1719 C 0.76213 0.13195 0.11512 0.0
C1720 C 0.7509 0.13422 0.13994 0.0
H1721 H 0.72054 0.14517 0.90229 0.0
H1722 H 0.72721 0.13851 0.96804 0.0
C1723 C 0.75304 0.13702 0.17921 0.0
C1724 C 0.75987 0.13129 0.07263 0.0
H1725 H 0.76658 0.14862 0.98849 0.0
C1726 C 0.75068 0.12146 0.05773 0.0
C1727 C 0.76581 0.14112 0.04724 0.0
C1728 C 0.77519 0.15241 0.06156 0.0
C1729 C 0.74706 0.12138 0.01826 0.0
C1730 C 0.75273 0.13143 -0.00671 0.0
C1731 C 0.7623 0.1409 0.00783 0.0
C1732 C 0.74814 0.13318 0.95269 0.0
C1733 C 0.7371 0.11069 0.00362 0.0
C1734 C 0.75769 0.13232 0.92229 0.0
C1735 C 0.75395 0.13617 0.8847 0.0
C1736 C 0.74062 0.14114 0.8769 0.0
C1737 C 0.73092 0.14146 0.90723 0.0
C1738 C 0.73466 0.13754 0.9448 0.0
H1739 H 0.73662 0.10163 0.02331 0.0
H1740 H 0.72666 0.11527 0.00195 0.0
H1741 H 0.74002 0.10715 0.9741 0.0
H1742 H 0.76818 0.12909 0.92792 0.0
H1743 H 0.76169 0.13572 0.86209 0.0
H1744 H 0.87293 0.5084 0.60948 0.0
H1745 H 0.86599 0.51447 0.67537 0.0
H1746 H 0.88548 0.47774 0.71907 0.0
H1747 H 0.89246 0.47146 0.65329 0.0
H1748 H 0.85816 0.48767 0.7575 0.0
H1749 H 0.90066 0.52601 0.74377 0.0
H1750 H 0.88761 0.52567 0.7068 0.0
H1751 H 0.8993 0.51147 0.71148 0.0
C1752 C 0.87553 0.50144 0.63292 0.0
C1753 C 0.88356 0.4896 0.6262 0.0
C1754 C 0.87146 0.5049 0.6705 0.0
C1755 C 0.87536 0.49661 0.70187 0.0
C1756 C 0.88238 0.48424 0.69504 0.0
H1757 H 0.88879 0.49348 0.94163 0.0
H1758 H 0.88047 0.48963 0.87593 0.0
C1759 C 0.88644 0.48073 0.65745 0.0
C1760 C 0.87426 0.50185 0.74186 0.0
H1761 H 0.89078 0.52316 0.80477 0.0
C1762 C 0.86511 0.49558 0.7679 0.0
C1763 C 0.88326 0.51226 0.755 0.0
C1764 C 0.89333 0.51926 0.72802 0.0
C1765 C 0.86508 0.49917 0.80738 0.0
C1766 C 0.87476 0.50893 0.82102 0.0
C1767 C 0.88337 0.51568 0.79439 0.0
C1768 C 0.87741 0.51124 0.86285 0.0
C1769 C 0.85479 0.49237 0.83399 0.0
C1770 C 0.87865 0.52469 0.87741 0.0
C1771 C 0.88383 0.52694 0.91465 0.0
C1772 C 0.88772 0.51576 0.93814 0.0
C1773 C 0.88582 0.5023 0.92427 0.0
C1774 C 0.88087 0.50007 0.88682 0.0
H1775 H 0.84514 0.4899 0.81821 0.0
H1776 H 0.85914 0.48252 0.84481 0.0
H1777 H 0.85225 0.49899 0.85923 0.0
H1778 H 0.87611 0.53347 0.85937 0.0
H1779 H 0.88504 0.53743 0.92477 0.0
H1780 H 0.26281 0.13747 0.70519 0.0
H1781 H 0.26779 0.133 0.63701 0.0
H1782 H 0.22452 0.12687 0.6149 0.0
H1783 H 0.21936 0.13204 0.68293 0.0
H1784 H 0.26402 0.11313 0.58381 0.0
H1785 H 0.23264 0.15917 0.54635 0.0
H1786 H 0.23668 0.15468 0.59575 0.0
H1787 H 0.22317 0.1458 0.57031 0.0
C1788 C 0.25435 0.13499 0.68595 0.0
C1789 C 0.24067 0.13539 0.69913 0.0
C1790 C 0.25723 0.13239 0.647 0.0
C1791 C 0.24649 0.12997 0.62071 0.0
C1792 C 0.23291 0.12914 0.63451 0.0
H1793 H 0.24898 0.13347 0.36953 0.0
H1794 H 0.24341 0.12588 0.43504 0.0
C1795 C 0.22999 0.13206 0.67334 0.0
C1796 C 0.24948 0.12981 0.5786 0.0
H1797 H 0.24327 0.14755 0.49495 0.0
C1798 C 0.25941 0.12057 0.56428 0.0
C1799 C 0.24356 0.13965 0.55327 0.0
C1800 C 0.23352 0.15047 0.56717 0.0
C1801 C 0.26368 0.12107 0.52535 0.0
C1802 C 0.25782 0.13099 0.50043 0.0
C1803 C 0.24765 0.13992 0.51436 0.0
C1804 C 0.2625 0.13298 0.46014 0.0
C1805 C 0.27449 0.11115 0.51111 0.0
C1806 C 0.27521 0.13928 0.45262 0.0
C1807 C 0.27842 0.1438 0.41516 0.0
C1808 C 0.2689 0.14212 0.38479 0.0
C1809 C 0.25651 0.13509 0.39223 0.0
C1810 C 0.25331 0.13064 0.42961 0.0
H1811 H 0.27614 0.10253 0.53181 0.0
H1812 H 0.27152 0.10686 0.48244 0.0
H1813 H 0.28437 0.11671 0.50736 0.0
H1814 H 0.28233 0.14135 0.47609 0.0
H1815 H 0.28809 0.14909 0.4104 0.0
H1816 H 0.61228 0.53505 0.15858 0.0
H1817 H 0.6187 0.52744 0.22382 0.0
H1818 H 0.63227 0.48848 0.17783 0.0
H1819 H 0.62604 0.49592 0.11264 0.0
H1820 H 0.60979 0.48844 0.2353 0.0
H1821 H 0.65603 0.51754 0.28255 0.0
H1822 H 0.64296 0.52737 0.25791 0.0
H1823 H 0.65215 0.51422 0.23208 0.0
C1824 C 0.61691 0.52498 0.16216 0.0
C1825 C 0.61842 0.51602 0.13042 0.0
C1826 C 0.62068 0.5207 0.19941 0.0
C1827 C 0.62601 0.50745 0.20539 0.0
C1828 C 0.62826 0.49879 0.1736 0.0
H1829 H 0.61845 0.46463 0.42963 0.0
H1830 H 0.62518 0.4684 0.36186 0.0
C1831 C 0.6246 0.50306 0.1364 0.0
C1832 C 0.62703 0.50187 0.24505 0.0
H1833 H 0.64296 0.5064 0.33211 0.0
C1834 C 0.61718 0.49214 0.25646 0.0
C1835 C 0.63668 0.5068 0.27217 0.0
C1836 C 0.64765 0.51699 0.26067 0.0
C1837 C 0.6161 0.48785 0.29513 0.0
C1838 C 0.62548 0.49313 0.32282 0.0
C1839 C 0.63581 0.50234 0.31084 0.0
C1840 C 0.62358 0.49062 0.36484 0.0
C1841 C 0.60434 0.47848 0.30626 0.0
C1842 C 0.62123 0.50186 0.38944 0.0
C1843 C 0.6177 0.49976 0.42815 0.0
C1844 C 0.61629 0.48635 0.44296 0.0
C1845 C 0.61923 0.47507 0.41879 0.0
C1846 C 0.62303 0.47721 0.3801 0.0
H1847 H 0.59641 0.47786 0.28311 0.0
H1848 H 0.60834 0.46793 0.31129 0.0
H1849 H 0.59929 0.48207 0.33333 0.0
H1850 H 0.6216 0.51229 0.3783 0.0
H1851 H 0.61553 0.50866 0.44602 0.0
H1852 H 0.21685 0.87099 0.89437 0.0
H1853 H 0.22078 0.87717 0.96229 0.0
H1854 H 0.26453 0.87864 0.94096 0.0
H1855 H 0.26068 0.87304 0.8732 0.0
H1856 H 0.23368 0.86078 0.00907 0.0
H1857 H 0.26124 0.91033 0.01313 0.0
H1858 H 0.2523 0.90448 0.9703 0.0
H1859 H 0.26965 0.89886 0.98007 0.0
C1860 C 0.22728 0.87296 0.90401 0.0
C1861 C 0.23847 0.87138 0.87852 0.0
C1862 C 0.2295 0.87655 0.94275 0.0
C1863 C 0.24295 0.87853 0.9567 0.0
C1864 C 0.25405 0.87759 0.93078 0.0
H1865 H 0.28529 0.85701 0.1613 0.0
H1866 H 0.27823 0.86473 0.09662 0.0
C1867 C 0.25182 0.87421 0.89201 0.0
C1868 C 0.24563 0.87914 -0.00103 0.0
H1869 H 0.26574 0.89467 0.06746 0.0
C1870 C 0.24041 0.86842 0.02198 0.0
C1871 C 0.25445 0.88908 0.01589 0.0
C1872 C 0.25959 0.9014 -0.00646 0.0
C1873 C 0.24439 0.86687 0.06072 0.0
C1874 C 0.25386 0.87628 0.07683 0.0
C1875 C 0.25862 0.88739 0.05463 0.0
C1876 C 0.25927 0.8741 0.11624 0.0
C1877 C 0.23895 0.85484 0.08385 0.0
C1878 C 0.25107 0.87717 0.14845 0.0
C1879 C 0.25499 0.87272 0.1853 0.0
C1880 C 0.26719 0.86508 0.1905 0.0
C1881 C 0.27579 0.86276 0.15832 0.0
C1882 C 0.27183 0.86723 0.1214 0.0
H1883 H 0.23233 0.84794 0.06619 0.0
H1884 H 0.24763 0.84872 0.09579 0.0
H1885 H 0.23281 0.85869 0.10874 0.0
H1886 H 0.24133 0.88245 0.14481 0.0
H1887 H 0.24819 0.87486 0.20946 0.0
H1888 H 0.62876 0.00865 0.61123 0.0
H1889 H 0.63557 0.0152 0.67666 0.0
H1890 H 0.61881 0.97728 0.72131 0.0
H1891 H 0.61187 0.97056 0.65585 0.0
H1892 H 0.61363 0.01764 0.73152 0.0
H1893 H 0.65521 0.98333 0.78448 0.0
H1894 H 0.65209 0.98646 0.73349 0.0
H1895 H 0.64138 0.97466 0.75996 0.0
C1896 C 0.62675 1.00152 0.63475 0.0
C1897 C 0.6195 0.98918 0.62836 0.0
C1898 C 0.63076 0.00528 0.6721 0.0
C1899 C 0.62775 0.9967 0.70364 0.0
C1900 C 0.6214 0.98393 0.69715 0.0
H1901 H 0.61213 0.99581 0.94195 0.0
H1902 H 0.61931 0.99177 0.87518 0.0
C1903 C 0.61733 0.98018 0.65975 0.0
C1904 C 0.62883 1.00211 0.74349 0.0
H1905 H 0.6421 0.99525 0.83293 0.0
C1906 C 0.62004 0.01296 0.75368 0.0
C1907 C 0.63719 0.99591 0.772 0.0
C1908 C 0.64711 0.98451 0.76199 0.0
C1909 C 0.61862 0.01717 0.79229 0.0
C1910 C 0.6266 0.01062 0.82132 0.0
C1911 C 0.636 1.00026 0.81068 0.0
C1912 C 0.62403 0.01313 0.86307 0.0
C1913 C 0.60786 0.02789 0.80177 0.0
C1914 C 0.62463 0.02645 0.87882 0.0
C1915 C 0.62015 0.02886 0.91677 0.0
C1916 C 0.61543 0.0179 0.93985 0.0
C1917 C 0.61568 0.00447 0.92479 0.0
C1918 C 0.61985 1.00213 0.88669 0.0
H1919 H 0.6006 0.02957 0.77731 0.0
H1920 H 0.6018 0.02485 0.82772 0.0
H1921 H 0.613 0.03785 0.80792 0.0
H1922 H 0.62821 0.03503 0.86147 0.0
H1923 H 0.62031 0.03927 0.92798 0.0
H1924 H 0.21547 0.37218 0.18522 0.0
H1925 H 0.21822 0.37704 0.11586 0.0
H1926 H 0.26237 0.37676 0.12952 0.0
H1927 H 0.25972 0.37255 0.19871 0.0
H1928 H 0.25468 0.39544 0.07609 0.0
H1929 H 0.22884 0.34525 0.048 0.0
H1930 H 0.21846 0.3578 0.0725 0.0
H1931 H 0.23338 0.35075 0.09619 0.0
C1932 C 0.22575 0.37337 0.17347 0.0
C1933 C 0.23739 0.37172 0.19726 0.0
C1934 C 0.2273 0.37611 0.13387 0.0
C1935 C 0.24051 0.37686 0.11739 0.0
C1936 C 0.25208 0.37615 0.14158 0.0
H1937 H 0.28423 0.36008 0.91179 0.0
H1938 H 0.27644 0.36789 0.97566 0.0
C1939 C 0.25054 0.37368 0.18117 0.0
C1940 C 0.24252 0.37689 0.07481 0.0
H1941 H 0.23816 0.35678 -0.00537 0.0
C1942 C 0.25092 0.38709 0.05814 0.0
C1943 C 0.23766 0.36592 0.05148 0.0
C1944 C 0.22919 0.35424 0.06789 0.0
C1945 C 0.25498 0.38633 0.01911 0.0
C1946 C 0.25049 0.37513 -0.00359 0.0
C1947 C 0.24155 0.36535 0.01239 0.0
C1948 C 0.25572 0.37262 0.95689 0.0
C1949 C 0.26427 0.39729 0.00255 0.0
C1950 C 0.24663 0.37276 0.92542 0.0
C1951 C 0.25101 0.3683 0.88901 0.0
C1952 C 0.26453 0.36341 0.88356 0.0
C1953 C 0.27374 0.36369 0.91501 0.0
C1954 C 0.26936 0.36827 0.95141 0.0
H1955 H 0.26434 0.40671 0.02081 0.0
H1956 H 0.27495 0.39325 0.00095 0.0
H1957 H 0.26102 0.4001 0.97268 0.0
H1958 H 0.23604 0.37596 0.92931 0.0
H1959 H 0.24363 0.36827 0.86548 0.0
H1960 H 0.87901 0.00999 0.4583 0.0
H1961 H 0.8725 0.01664 0.39265 0.0
H1962 H 0.8863 0.97733 0.34971 0.0
H1963 H 0.893 0.97051 0.41543 0.0
H1964 H 0.89545 0.01575 0.33517 0.0
H1965 H 0.84867 0.98698 0.29015 0.0
H1966 H 0.85238 0.99105 0.34028 0.0
H1967 H 0.86158 0.97747 0.31644 0.0
C1968 C 0.88043 1.0026 0.43515 0.0
C1969 C 0.88678 0.98979 0.44208 0.0
C1970 C 0.8766 0.00642 0.39768 0.0
C1971 C 0.87885 0.99744 0.36659 0.0
C1972 C 0.88432 0.98431 0.37359 0.0
H1973 H 0.88864 0.99611 0.12439 0.0
H1974 H 0.88235 0.99216 0.19189 0.0
C1975 C 0.88825 0.98048 0.41109 0.0
C1976 C 0.87788 1.00267 0.32654 0.0
H1977 H 0.86145 0.99812 0.24019 0.0
C1978 C 0.8879 0.0121 0.31441 0.0
C1979 C 0.86804 0.99776 0.2999 0.0
C1980 C 0.85696 0.98781 0.3122 0.0
C1981 C 0.88886 0.01622 0.2756 0.0
C1982 C 0.87919 0.01112 0.24847 0.0
C1983 C 0.86879 1.00209 0.26106 0.0
C1984 C 0.88076 0.01378 0.2064 0.0
C1985 C 0.90079 0.02528 0.26374 0.0
C1986 C 0.88146 0.02726 0.19175 0.0
C1987 C 0.8854 0.02957 0.15327 0.0
C1988 C 0.8883 0.01842 0.12865 0.0
C1989 C 0.88654 0.00493 0.14267 0.0
C1990 C 0.88288 1.00264 0.18124 0.0
H1991 H 0.90894 0.02561 0.28632 0.0
H1992 H 0.9055 0.02161 0.23627 0.0
H1993 H 0.89705 0.03595 0.25919 0.0
H1994 H 0.87947 0.03599 0.21043 0.0
H1995 H 0.88641 0.04007 0.14303 0.0
H1996 H 0.24536 0.64319 0.69313 0.0
H1997 H 0.24144 0.63608 0.62624 0.0
H1998 H 0.28527 0.63276 0.60815 0.0
H1999 H 0.2893 0.64033 0.67483 0.0
H2000 H 0.27392 0.64785 0.55405 0.0
H2001 H 0.24288 0.60054 0.56803 0.0
H2002 H 0.23535 0.61433 0.59525 0.0
H2003 H 0.2521 0.60788 0.60851 0.0
C2004 C 0.25417 0.64074 0.67514 0.0
C2005 C 0.26764 0.64242 0.68922 0.0
C2006 C 0.25191 0.63652 0.63696 0.0
C2007 C 0.26305 0.63362 0.61231 0.0
C2008 C 0.27651 0.63486 0.62671 0.0
H2009 H 0.26126 0.62785 0.35827 0.0
H2010 H 0.26818 0.62309 0.42512 0.0
C2011 C 0.27879 0.63925 0.66476 0.0
C2012 C 0.26066 0.63106 0.57043 0.0
H2013 H 0.24077 0.61285 0.50686 0.0
C2014 C 0.26691 0.63999 0.54368 0.0
C2015 C 0.25151 0.62079 0.55686 0.0
C2016 C 0.24521 0.61026 0.58371 0.0
C2017 C 0.26368 0.63948 0.50411 0.0
C2018 C 0.254 0.6297 0.49088 0.0
C2019 C 0.24815 0.62037 0.51723 0.0
C2020 C 0.24901 0.62999 0.45039 0.0
C2021 C 0.27011 0.64989 0.47703 0.0
C2022 C 0.23572 0.63484 0.44252 0.0
C2023 C 0.2317 0.6376 0.40439 0.0
C2024 C 0.24094 0.63553 0.37345 0.0
C2025 C 0.25393 0.62973 0.38136 0.0
C2026 C 0.25792 0.62698 0.41953 0.0
H2027 H 0.2758 0.65804 0.49291 0.0
H2028 H 0.27746 0.64459 0.45743 0.0
H2029 H 0.2621 0.65485 0.45877 0.0
H2030 H 0.2287 0.63719 0.46604 0.0
H2031 H 0.22157 0.64191 0.3994 0.0
H2032 H 0.38055 0.01165 0.10977 0.0
H2033 H 0.37503 0.01843 0.17622 0.0
H2034 H 0.38811 0.97864 0.21766 0.0
H2035 H 0.39363 0.97166 0.15133 0.0
H2036 H 0.36256 0.99134 0.25455 0.0
H2037 H 0.40915 0.0248 0.25006 0.0
H2038 H 0.39675 0.02671 0.21168 0.0
H2039 H 0.40648 0.01107 0.21564 0.0
C2040 C 0.38207 0.00423 0.13285 0.0
C2041 C 0.38777 0.99117 0.1252 0.0
C2042 C 0.37888 0.00814 0.1708 0.0
C2043 C 0.38131 0.99908 0.20171 0.0
C2044 C 0.38618 0.98577 0.19406 0.0
H2045 H 0.38819 0.99543 0.4468 0.0
H2046 H 0.3823 0.99154 0.379 0.0
C2047 C 0.3894 0.98184 0.15613 0.0
C2048 C 0.38027 0.00391 0.24222 0.0
H2049 H 0.39734 0.02331 0.30895 0.0
C2050 C 0.37005 0.99844 0.2665 0.0
C2051 C 0.39 0.01326 0.25745 0.0
C2052 C 0.40129 0.01929 0.23258 0.0
C2053 C 0.36948 1.00189 0.30606 0.0
C2054 C 0.37965 0.01071 0.32174 0.0
C2055 C 0.38954 0.01656 0.29698 0.0
C2056 C 0.38112 0.01317 0.36403 0.0
C2057 C 0.35802 0.99604 0.33056 0.0
C2058 C 0.38256 0.02663 0.37829 0.0
C2059 C 0.38627 0.02889 0.41693 0.0
C2060 C 0.38852 0.01771 0.44213 0.0
C2061 C 0.38645 0.00427 0.42824 0.0
C2062 C 0.38294 1.00202 0.38948 0.0
H2063 H 0.34869 0.99403 0.31279 0.0
H2064 H 0.36138 0.98606 0.34309 0.0
H2065 H 0.35521 1.00307 0.35467 0.0
H2066 H 0.38127 0.03539 0.35915 0.0
H2067 H 0.38766 0.03938 0.42683 0.0
H2068 H 0.75624 0.62628 0.21592 0.0
H2069 H 0.76298 0.61929 0.15064 0.0
H2070 H 0.72649 0.63832 0.10402 0.0
H2071 H 0.71956 0.64543 0.16924 0.0
H2072 H 0.73835 0.60951 0.06931 0.0
H2073 H 0.77322 0.65503 0.07939 0.0
H2074 H 0.77259 0.6429 0.11893 0.0
H2075 H 0.758 0.65366 0.1092 0.0
C2076 C 0.74946 0.62876 0.19197 0.0
C2077 C 0.73749 0.6367 0.19775 0.0
C2078 C 0.75332 0.62466 0.15474 0.0
C2079 C 0.74526 0.62838 0.12277 0.0
C2080 C 0.73279 0.63534 0.12858 0.0
H2081 H 0.7435 0.637 0.88126 0.0
H2082 H 0.73973 0.62976 0.94795 0.0
C2083 C 0.7289 0.63947 0.16583 0.0
C2084 C 0.75086 0.6271 0.08322 0.0
H2085 H 0.77143 0.64418 0.01932 0.0
C2086 C 0.74572 0.61694 0.05832 0.0
C2087 C 0.76063 0.63669 0.06943 0.0
C2088 C 0.76647 0.64775 0.09541 0.0
C2089 C 0.74979 0.61645 0.01922 0.0
C2090 C 0.75884 0.62667 0.00472 0.0
C2091 C 0.76449 0.63636 0.03035 0.0
C2092 C 0.76137 0.6287 0.9627 0.0
C2093 C 0.74424 0.6051 -0.00613 0.0
C2094 C 0.77481 0.6307 0.94869 0.0
C2095 C 0.777 0.63523 0.91068 0.0
C2096 C 0.76577 0.63774 0.88595 0.0
C2097 C 0.75238 0.6351 0.89949 0.0
C2098 C 0.7502 0.63078 0.93758 0.0
H2099 H 0.7424 0.59559 0.01107 0.0
H2100 H 0.73422 0.60835 0.98147 0.0
H2101 H 0.75139 0.60264 0.96969 0.0
H2102 H 0.78359 0.62924 0.96765 0.0
H2103 H 0.78745 0.63703 0.90096 0.0
H2104 H 0.12278 0.96905 0.93118 0.0
H2105 H 0.13079 0.97329 0.86493 0.0
H2106 H 0.12777 0.01709 0.88424 0.0
H2107 H 0.12042 0.01293 0.95074 0.0
H2108 H 0.11504 0.98429 0.81386 0.0
H2109 H 0.16162 0.01656 0.81984 0.0
H2110 H 0.15526 0.00741 0.86181 0.0
H2111 H 0.14833 0.02404 0.84904 0.0
C2112 C 0.12415 0.97958 0.92151 0.0
C2113 C 0.12086 0.99066 0.94597 0.0
C2114 C 0.12879 0.98199 0.88375 0.0
C2115 C 0.13004 0.99551 0.86963 0.0
C2116 C 0.12732 0.00658 0.89466 0.0
H2117 H 0.1119 0.03508 0.6591 0.0
H2118 H 0.11933 0.02922 0.72489 0.0
C2119 C 0.12294 0.00418 0.93262 0.0
C2120 C 0.13176 0.99804 0.82748 0.0
H2121 H 0.14754 0.01902 0.76132 0.0
C2122 C 0.12241 0.99161 0.80232 0.0
C2123 C 0.14133 0.00765 0.81232 0.0
C2124 C 0.15228 0.01418 0.83722 0.0
C2125 C 0.12181 0.99509 0.76299 0.0
C2126 C 0.13081 0.00525 0.74836 0.0
C2127 C 0.14059 0.0113 0.7729 0.0
C2128 C 0.12932 0.01024 0.70819 0.0
C2129 C 0.11107 0.98836 0.73765 0.0
C2130 C 0.13296 1.00171 0.67711 0.0
C2131 C 0.12864 0.00494 0.63959 0.0
C2132 C 0.12061 0.01676 0.63259 0.0
C2133 C 0.11793 0.02582 0.66349 0.0
C2134 C 0.12224 0.02256 0.70106 0.0
H2135 H 0.10387 0.9818 0.75456 0.0
H2136 H 0.10502 0.9963 0.72193 0.0
H2137 H 0.11624 0.9818 0.71566 0.0
H2138 H 0.13844 0.99217 0.68222 0.0
H2139 H 0.13109 0.99782 0.61641 0.0
H2140 H 0.78818 0.37053 0.68322 0.0
H2141 H 0.78339 0.37606 0.61533 0.0
H2142 H 0.73978 0.37439 0.63872 0.0
H2143 H 0.74448 0.36936 0.70671 0.0
H2144 H 0.77117 0.35892 0.56827 0.0
H2145 H 0.74082 0.407 0.56814 0.0
H2146 H 0.75038 0.4013 0.61012 0.0
H2147 H 0.73346 0.39453 0.6004 0.0
C2148 C 0.77757 0.37163 0.67406 0.0
C2149 C 0.76671 0.36942 0.70031 0.0
C2150 C 0.77485 0.37484 0.63528 0.0
C2151 C 0.76122 0.3758 0.62191 0.0
C2152 C 0.75038 0.3741 0.64843 0.0
H2153 H 0.71987 0.35983 0.40902 0.0
H2154 H 0.72633 0.3659 0.47543 0.0
C2155 C 0.75309 0.37109 0.68732 0.0
C2156 C 0.75834 0.37656 0.57967 0.0
H2157 H 0.73833 0.39246 0.5114 0.0
C2158 C 0.76421 0.36644 0.55576 0.0
C2159 C 0.7492 0.38634 0.5633 0.0
C2160 C 0.74323 0.39798 0.58682 0.0
C2161 C 0.76075 0.36544 0.51643 0.0
C2162 C 0.7512 0.37484 0.50049 0.0
C2163 C 0.7456 0.38523 0.52392 0.0
C2164 C 0.74653 0.37344 0.4599 0.0
C2165 C 0.76692 0.35399 0.49248 0.0
C2166 C 0.75562 0.37608 0.42922 0.0
C2167 C 0.75202 0.37259 0.39128 0.0
C2168 C 0.73924 0.36636 0.38337 0.0
C2169 C 0.72983 0.36449 0.41403 0.0
C2170 C 0.73347 0.36801 0.45199 0.0
H2171 H 0.77259 0.3464 0.51056 0.0
H2172 H 0.75875 0.34849 0.47614 0.0
H2173 H 0.77421 0.35842 0.47106 0.0
H2174 H 0.76573 0.38034 0.43485 0.0
H2175 H 0.75947 0.37431 0.36842 0.0
H2176 H 0.12911 0.42984 0.04231 0.0
H2177 H 0.14084 0.41245 0.08115 0.0
H2178 H 0.10992 0.41644 0.17031 0.0
H2179 H 0.09786 0.43372 0.1308 0.0
H2180 H 0.1518 0.41857 0.15073 0.0
H2181 H 0.11556 0.37472 0.16612 0.0
H2182 H 0.11344 0.38794 0.12971 0.0
H2183 H 0.10854 0.3912 0.17913 0.0
C2184 C 0.12462 0.42681 0.0698 0.0
C2185 C 0.1126 0.43318 0.0836 0.0
C2186 C 0.13134 0.41685 0.09199 0.0
C2187 C 0.12627 0.41309 0.12863 0.0
C2188 C 0.11391 0.41898 0.14184 0.0
H2189 H 0.1823 0.383 0.30507 0.0
H2190 H 0.16361 0.39482 0.27127 0.0
C2191 C 0.10705 0.42889 0.11931 0.0
C2192 C 0.13489 0.4043 0.15428 0.0
H2193 H 0.13589 0.37396 0.20469 0.0
C2194 C 0.1483 0.40881 0.16246 0.0
C2195 C 0.13035 0.39154 0.16943 0.0
C2196 C 0.11623 0.38596 0.16045 0.0
C2197 C 0.15733 0.40093 0.18507 0.0
C2198 C 0.15273 0.3883 0.20097 0.0
C2199 C 0.13933 0.38371 0.19281 0.0
C2200 C 0.16198 0.37975 0.22536 0.0
C2201 C 0.17185 0.40606 0.19095 0.0
C2202 C 0.16668 0.36692 0.21202 0.0
C2203 C 0.17728 0.36003 0.23164 0.0
C2204 C 0.18336 0.36593 0.2647 0.0
C2205 C 0.17793 0.37827 0.27944 0.0
C2206 C 0.16727 0.38506 0.26012 0.0
H2207 H 0.1747 0.41403 0.16924 0.0
H2208 H 0.17272 0.41074 0.22021 0.0
H2209 H 0.17937 0.39748 0.18901 0.0
H2210 H 0.1627 0.36263 0.18529 0.0
H2211 H 0.18126 0.35053 0.21958 0.0
H2212 H 0.90956 0.93209 0.44536 0.0
H2213 H 0.89741 0.91392 0.40957 0.0
H2214 H 0.866 0.91298 0.49798 0.0
H2215 H 0.87788 0.93121 0.53334 0.0
H2216 H 0.8866 0.8864 0.42864 0.0
H2217 H 0.84596 0.92505 0.39731 0.0
H2218 H 0.86268 0.92975 0.41583 0.0
H2219 H 0.84975 0.923 0.44798 0.0
C2220 C 0.90022 0.9278 0.45752 0.0
C2221 C 0.89456 0.93319 0.49186 0.0
C2222 C 0.8933 0.91743 0.43707 0.0
C2223 C 0.8807 0.9123 0.45085 0.0
C2224 C 0.8756 0.91697 0.48657 0.0
H2225 H 0.82564 0.84785 0.37086 0.0
H2226 H 0.84419 0.86032 0.40394 0.0
C2227 C 0.88241 0.92738 0.50674 0.0
C2228 C 0.87211 0.90316 0.42642 0.0
H2229 H 0.8411 0.90199 0.3803 0.0
C2230 C 0.87668 0.88978 0.41782 0.0
C2231 C 0.85928 0.9077 0.41188 0.0
C2232 C 0.85415 0.9222 0.41835 0.0
C2233 C 0.86853 0.8807 0.39578 0.0
C2234 C 0.85546 0.88511 0.3825 0.0
C2235 C 0.85108 0.89858 0.3906 0.0
C2236 C 0.84602 0.87615 0.35993 0.0
C2237 C 0.87403 0.86657 0.38649 0.0
C2238 C 0.84099 0.88079 0.32405 0.0
C2239 C 0.83031 0.87382 0.30553 0.0
C2240 C 0.82446 0.86201 0.32235 0.0
C2241 C 0.83003 0.85686 0.3571 0.0
C2242 C 0.84067 0.86396 0.37593 0.0
H2243 H 0.88542 0.86614 0.38926 0.0
H2244 H 0.86957 0.85901 0.40713 0.0
H2245 H 0.87113 0.86341 0.35663 0.0
H2246 H 0.84495 0.89016 0.31114 0.0
H2247 H 0.82628 0.878 0.27867 0.0
H2248 H 0.41297 0.58082 0.60741 0.0
H2249 H 0.40176 0.59957 0.64339 0.0
H2250 H 0.36325 0.59009 0.58721 0.0
H2251 H 0.37437 0.57185 0.55059 0.0
H2252 H 0.36692 0.61722 0.59134 0.0
H2253 H 0.37692 0.59359 0.73568 0.0
H2254 H 0.39198 0.59756 0.7076 0.0
H2255 H 0.38021 0.58458 0.69094 0.0
C2256 C 0.40216 0.58286 0.6025 0.0
C2257 C 0.39456 0.5748 0.57628 0.0
C2258 C 0.39573 0.5935 0.6233 0.0
C2259 C 0.38159 0.5961 0.61853 0.0
C2260 C 0.37416 0.58831 0.59147 0.0
H2261 H 0.31782 0.62402 0.76333 0.0
H2262 H 0.33657 0.61272 0.7291 0.0
C2263 C 0.38055 0.57782 0.57056 0.0
C2264 C 0.37416 0.60655 0.64215 0.0
H2265 H 0.36369 0.61376 0.73456 0.0
C2266 C 0.36633 0.61658 0.62272 0.0
C2267 C 0.37332 0.60564 0.68309 0.0
C2268 C 0.38095 0.59471 0.70566 0.0
C2269 C 0.35717 0.62523 0.64275 0.0
C2270 C 0.35615 0.62416 0.68364 0.0
C2271 C 0.36452 0.61461 0.70326 0.0
C2272 C 0.34533 0.63153 0.70611 0.0
C2273 C 0.34805 0.63477 0.61959 0.0
C2274 C 0.34408 0.64596 0.70527 0.0
C2275 C 0.33315 0.65249 0.72451 0.0
C2276 C 0.32346 0.6447 0.74551 0.0
C2277 C 0.3251 0.63035 0.74753 0.0
C2278 C 0.33586 0.62385 0.72797 0.0
H2279 H 0.34796 0.6321 0.58825 0.0
H2280 H 0.3373 0.63449 0.63052 0.0
H2281 H 0.35193 0.64547 0.62233 0.0
H2282 H 0.35144 0.65215 0.6894 0.0
H2283 H 0.3322 0.66357 0.72261 0.0
H2284 H 0.67714 0.16395 0.863 0.0
H2285 H 0.65836 0.15257 0.8985 0.0
H2286 H 0.66831 0.11419 0.84221 0.0
H2287 H 0.68658 0.12548 0.80605 0.0
H2288 H 0.64117 0.11774 0.84538 0.0
H2289 H 0.66385 0.12766 -0.00918 0.0
H2290 H 0.65994 0.14272 0.96268 0.0
H2291 H 0.67312 0.13107 0.94651 0.0
C2292 C 0.6752 0.15313 0.85797 0.0
C2293 C 0.68339 0.14562 0.8318 0.0
C2294 C 0.66454 0.14661 0.87851 0.0
C2295 C 0.66205 0.13245 0.87355 0.0
C2296 C 0.67 0.1251 0.84661 0.0
H2297 H 0.63368 0.06809 0.01581 0.0
H2298 H 0.64505 0.08706 0.98266 0.0
C2299 C 0.6805 0.1316 0.82595 0.0
C2300 C 0.6515 0.12494 0.8967 0.0
H2301 H 0.64382 0.11425 0.98868 0.0
C2302 C 0.64163 0.11709 0.87678 0.0
C2303 C 0.65217 0.12404 0.93767 0.0
C2304 C 0.66289 0.13171 0.96078 0.0
C2305 C 0.63292 0.10785 0.89634 0.0
C2306 C 0.63376 0.10675 0.93726 0.0
C2307 C 0.64314 0.11513 0.95736 0.0
C2308 C 0.62633 0.09583 0.95925 0.0
C2309 C 0.62355 0.09874 0.87268 0.0
C2310 C 0.61192 0.09451 0.95785 0.0
C2311 C 0.60535 0.08346 0.97649 0.0
C2312 C 0.61307 0.07371 -0.0026 0.0
C2313 C 0.6274 0.07541 1e-05 0.0
C2314 C 0.63394 0.0863 0.98108 0.0
H2315 H 0.62638 0.09875 0.84143 0.0
H2316 H 0.62386 0.08796 0.88341 0.0
H2317 H 0.61282 0.10255 0.87515 0.0
H2318 H 0.60577 0.10191 0.94198 0.0
H2319 H 0.59428 0.08247 0.97414 0.0
H2320 H 0.18449 0.62239 0.30003 0.0
H2321 H 0.16588 0.61214 0.33723 0.0
H2322 H 0.16074 0.65 0.40089 0.0
H2323 H 0.17982 0.66032 0.36411 0.0
H2324 H 0.16137 0.62859 0.44895 0.0
H2325 H 0.12503 0.61616 0.3316 0.0
H2326 H 0.14167 0.60929 0.32031 0.0
H2327 H 0.1394 0.62766 0.32437 0.0
C2328 C 0.1793 0.62866 0.3215 0.0
C2329 C 0.18362 0.64221 0.32896 0.0
C2330 C 0.16854 0.62279 0.3426 0.0
C2331 C 0.16165 0.63037 0.37133 0.0
C2332 C 0.16579 0.644 0.37857 0.0
H2333 H 0.09472 0.58224 0.47897 0.0
H2334 H 0.10635 0.60181 0.44784 0.0
C2335 C 0.17667 0.64989 0.35747 0.0
C2336 C 0.15099 0.6235 0.39562 0.0
H2337 H 0.12353 0.6017 0.38927 0.0
C2338 C 0.15291 0.62295 0.43597 0.0
C2339 C 0.13972 0.61639 0.37903 0.0
C2340 C 0.13625 0.61754 0.33649 0.0
C2341 C 0.14453 0.61468 0.45968 0.0
C2342 C 0.13419 0.60642 0.44245 0.0
C2343 C 0.1316 0.60779 0.40254 0.0
C2344 C 0.12688 0.5954 0.4644 0.0
C2345 C 0.14701 0.61474 0.50289 0.0
C2346 C 0.13449 0.58528 0.48403 0.0
C2347 C 0.12789 0.57425 0.50212 0.0
C2348 C 0.1135 0.57288 0.50041 0.0
C2349 C 0.10582 0.58305 0.48101 0.0
C2350 C 0.11245 0.59421 0.46315 0.0
H2351 H 0.15097 0.6249 0.51259 0.0
H2352 H 0.13748 0.61235 0.51936 0.0
H2353 H 0.15494 0.60692 0.51011 0.0
H2354 H 0.14563 0.58564 0.48433 0.0
H2355 H 0.13416 0.56653 0.51637 0.0
H2356 H 0.62836 0.93155 0.533 0.0
H2357 H 0.64053 0.91288 0.56565 0.0
H2358 H 0.60999 0.91284 0.65658 0.0
H2359 H 0.59752 0.93138 0.6233 0.0
H2360 H 0.65192 0.91601 0.6355 0.0
H2361 H 0.61588 0.87179 0.63996 0.0
H2362 H 0.61335 0.88639 0.60824 0.0
H2363 H 0.60869 0.88748 0.65865 0.0
C2364 C 0.62405 0.92737 0.55951 0.0
C2365 C 0.61201 0.93297 0.57567 0.0
C2366 C 0.63102 0.91668 0.57814 0.0
C2367 C 0.62617 0.91138 0.6135 0.0
C2368 C 0.6138 0.91655 0.62895 0.0
H2369 H 0.67953 0.87787 0.78881 0.0
H2370 H 0.66174 0.89008 0.75247 0.0
C2371 C 0.60671 0.92719 0.61 0.0
C2372 C 0.63497 0.90172 0.63601 0.0
H2373 H 0.63586 0.87019 0.68033 0.0
C2374 C 0.6484 0.90596 0.64502 0.0
C2375 C 0.63044 0.88856 0.64828 0.0
C2376 C 0.61635 0.8832 0.638 0.0
C2377 C 0.65736 0.89753 0.66627 0.0
C2378 C 0.65269 0.8846 0.67978 0.0
C2379 C 0.63936 0.88018 0.67026 0.0
C2380 C 0.66161 0.8758 0.70439 0.0
C2381 C 0.67182 0.90254 0.67387 0.0
C2382 C 0.66692 0.86331 0.6903 0.0
C2383 C 0.67706 0.8562 0.71129 0.0
C2384 C 0.68202 0.86154 0.74651 0.0
C2385 C 0.67602 0.87357 0.76157 0.0
C2386 C 0.66586 0.88057 0.74083 0.0
H2387 H 0.67484 0.91091 0.65358 0.0
H2388 H 0.67244 0.90665 0.70385 0.0
H2389 H 0.67936 0.894 0.67117 0.0
H2390 H 0.66375 0.85945 0.66222 0.0
H2391 H 0.68152 0.84697 0.69894 0.0
H2392 H 0.32918 0.34054 0.8737 0.0
H2393 H 0.34837 0.35145 0.90845 0.0
H2394 H 0.33861 0.39026 0.85403 0.0
H2395 H 0.31986 0.37945 0.81873 0.0
H2396 H 0.36602 0.3858 0.85524 0.0
H2397 H 0.34361 0.37641 0.00156 0.0
H2398 H 0.34693 0.36136 0.97278 0.0
H2399 H 0.33401 0.37347 0.95761 0.0
C2400 C 0.33123 0.35137 0.86898 0.0
C2401 C 0.32296 0.35914 0.84359 0.0
C2402 C 0.34213 0.35761 0.88903 0.0
C2403 C 0.34482 0.37174 0.88429 0.0
C2404 C 0.33677 0.37936 0.85819 0.0
H2405 H 0.37261 0.43657 0.02085 0.0
H2406 H 0.36182 0.41698 0.98955 0.0
C2407 C 0.32599 0.37315 0.83807 0.0
C2408 C 0.35565 0.37896 0.90696 0.0
H2409 H 0.36357 0.38984 -0.00157 0.0
C2410 C 0.36564 0.38655 0.88663 0.0
C2411 C 0.35509 0.37994 0.9479 0.0
C2412 C 0.3443 0.37247 0.97137 0.0
C2413 C 0.37451 0.39572 0.90576 0.0
C2414 C 0.37365 0.39704 0.94662 0.0
C2415 C 0.36424 0.3888 0.96716 0.0
C2416 C 0.38083 0.40826 0.9679 0.0
C2417 C 0.38401 0.40459 0.88171 0.0
C2418 C 0.39523 0.40981 0.96695 0.0
C2419 C 0.40148 0.42124 0.98457 0.0
C2420 C 0.39344 0.43114 0.0039 0.0
C2421 C 0.37914 0.42917 0.00622 0.0
C2422 C 0.37292 0.41791 0.98836 0.0
H2423 H 0.38145 0.40419 0.85032 0.0
H2424 H 0.38355 0.41548 0.89134 0.0
H2425 H 0.39475 0.4009 0.88527 0.0
H2426 H 0.40159 0.40234 0.95212 0.0
H2427 H 0.41254 0.42244 0.98246 0.0
H2428 H 0.82395 0.15827 0.20412 0.0
H2429 H 0.84152 0.14599 0.16636 0.0
H2430 H 0.84088 0.11283 0.2496 0.0
H2431 H 0.82322 0.12485 0.28695 0.0
H2432 H 0.86812 0.13445 0.18254 0.0
H2433 H 0.82929 0.09456 0.14713 0.0
H2434 H 0.82473 0.11091 0.16836 0.0
H2435 H 0.83144 0.09729 0.19828 0.0
C2436 C 0.82775 0.14848 0.21474 0.0
C2437 C 0.82209 0.14245 0.24827 0.0
C2438 C 0.83778 0.14148 0.19312 0.0
C2439 C 0.84229 0.12838 0.2048 0.0
C2440 C 0.83733 0.1228 0.23967 0.0
H2441 H 0.90745 0.07527 0.11879 0.0
H2442 H 0.89448 0.09311 0.15331 0.0
C2443 C 0.82727 0.12972 0.26106 0.0
C2444 C 0.85135 0.12003 0.17932 0.0
H2445 H 0.8524 0.0896 0.13013 0.0
C2446 C 0.8647 0.12467 0.17084 0.0
C2447 C 0.84675 0.10741 0.16348 0.0
C2448 C 0.83223 0.10229 0.1694 0.0
C2449 C 0.87373 0.11681 0.14777 0.0
C2450 C 0.86932 0.10389 0.13341 0.0
C2451 C 0.85584 0.09945 0.14128 0.0
C2452 C 0.87833 0.09464 0.11019 0.0
C2453 C 0.8878 0.1225 0.13861 0.0
C2454 C 0.87366 0.08958 0.07441 0.0
C2455 C 0.88091 0.07924 0.05508 0.0
C2456 C 0.89307 0.0738 0.07092 0.0
C2457 C 0.89818 0.07937 0.10568 0.0
C2458 C 0.8908 0.08962 0.12535 0.0
H2459 H 0.88802 0.13389 0.14128 0.0
H2460 H 0.89536 0.11821 0.1595 0.0
H2461 H 0.8911 0.11964 0.10884 0.0
H2462 H 0.86409 0.09327 0.06209 0.0
H2463 H 0.87673 0.07518 0.02829 0.0
H2464 H 0.91112 0.57806 0.95846 0.0
H2465 H 0.89935 0.59714 0.92539 0.0
H2466 H 0.86139 0.58603 0.98236 0.0
H2467 H 0.87307 0.56741 0.01611 0.0
H2468 H 0.87894 0.59614 0.87465 0.0
H2469 H 0.86095 0.62661 -0.00047 0.0
H2470 H 0.8737 0.61321 0.00449 0.0
H2471 H 0.8556 0.60907 0.00476 0.0
C2472 C 0.90033 0.57989 0.96449 0.0
C2473 C 0.89306 0.57129 -0.00982 0.0
C2474 C 0.8936 0.59076 0.9455 0.0
C2475 C 0.87952 0.59324 0.95196 0.0
C2476 C 0.87233 0.58467 0.97778 0.0
H2477 H 0.81629 0.62145 0.80429 0.0
H2478 H 0.83535 0.60999 0.8366 0.0
C2479 C 0.87903 0.57392 -0.0031 0.0
C2480 C 0.87196 0.60399 0.92972 0.0
H2481 H 0.84773 0.6292 0.94013 0.0
C2482 C 0.87232 0.60355 0.889 0.0
C2483 C 0.86354 0.61392 0.94821 0.0
C2484 C 0.86355 0.61583 -0.00835 0.0
C2485 C 0.86382 0.6121 0.86644 0.0
C2486 C 0.85441 0.62106 0.88509 0.0
C2487 C 0.85474 0.62218 0.92571 0.0
C2488 C 0.84339 0.62845 0.86342 0.0
C2489 C 0.86493 0.61128 0.82284 0.0
C2490 C 0.84125 0.64266 0.86839 0.0
C2491 C 0.83012 0.64926 0.8503 0.0
C2492 C 0.82093 0.64175 0.82698 0.0
C2493 C 0.82324 0.62759 0.82166 0.0
C2494 C 0.83425 0.62101 0.83993 0.0
H2495 H 0.8755 0.60835 0.81377 0.0
H2496 H 0.85781 0.60323 0.812 0.0
H2497 H 0.86222 0.62123 0.80886 0.0
H2498 H 0.84808 0.64861 0.88669 0.0
H2499 H 0.82857 0.66017 0.85517 0.0
H2500 H 0.12956 0.07268 0.5368 0.0
H2501 H 0.14194 0.0908 0.57126 0.0
H2502 H 0.10995 0.09212 0.65791 0.0
H2503 H 0.09732 0.07404 0.62312 0.0
H2504 H 0.12216 0.11901 0.6368 0.0
H2505 H 0.16059 0.07882 0.67454 0.0
H2506 H 0.15725 0.08051 0.62351 0.0
H2507 H 0.1438 0.07471 0.65543 0.0
C2508 C 0.12501 0.077 0.56278 0.0
C2509 C 0.11255 0.07182 0.57752 0.0
C2510 C 0.13211 0.08735 0.58243 0.0
C2511 C 0.12698 0.09261 0.61744 0.0
C2512 C 0.11409 0.08815 0.63094 0.0
H2513 H 0.18044 0.12564 0.7936 0.0
H2514 H 0.16195 0.11399 0.75886 0.0
C2515 C 0.10689 0.07783 0.61106 0.0
C2516 C 0.13578 0.10161 0.64169 0.0
H2517 H 0.1662 0.10172 0.69098 0.0
C2518 C 0.13177 0.11527 0.64885 0.0
C2519 C 0.1482 0.09661 0.65779 0.0
C2520 C 0.15269 0.08183 0.65281 0.0
C2521 C 0.14004 0.12414 0.67117 0.0
C2522 C 0.15269 0.11923 0.68623 0.0
C2523 C 0.15654 0.10552 0.67937 0.0
C2524 C 0.16216 0.12788 0.7097 0.0
C2525 C 0.13509 0.1386 0.67892 0.0
C2526 C 0.16818 0.13984 0.69421 0.0
C2527 C 0.17869 0.14666 0.71439 0.0
C2528 C 0.18348 0.14145 0.74999 0.0
C2529 C 0.17702 0.12985 0.76613 0.0
C2530 C 0.16644 0.12318 0.74629 0.0
H2531 H 0.12379 0.13953 0.67487 0.0
H2532 H 0.13773 0.14189 0.70884 0.0
H2533 H 0.14017 0.14575 0.65826 0.0
H2534 H 0.16527 0.14351 0.66569 0.0
H2535 H 0.18359 0.15551 0.7011 0.0
H2536 H 0.67972 0.3761 0.29116 0.0
H2537 H 0.66192 0.38826 0.32764 0.0
H2538 H 0.66462 0.35799 0.41895 0.0
H2539 H 0.68231 0.34553 0.38198 0.0
H2540 H 0.63701 0.36802 0.40408 0.0
H2541 H 0.67496 0.41014 0.42298 0.0
H2542 H 0.67191 0.40567 0.37322 0.0
H2543 H 0.67974 0.39333 0.40532 0.0
C2544 C 0.67635 0.37187 0.31867 0.0
C2545 C 0.68251 0.35996 0.33394 0.0
C2546 C 0.6662 0.37885 0.33951 0.0
C2547 C 0.66217 0.37419 0.37635 0.0
C2548 C 0.66763 0.36179 0.39062 0.0
H2549 H 0.62987 0.43068 0.5469 0.0
H2550 H 0.64207 0.41202 0.5144 0.0
C2551 C 0.67772 0.35468 0.36948 0.0
C2552 C 0.6533 0.383 0.4011 0.0
H2553 H 0.65212 0.41478 0.44295 0.0
C2554 C 0.6403 0.37822 0.41282 0.0
C2555 C 0.65772 0.39621 0.41299 0.0
C2556 C 0.67189 0.40162 0.40334 0.0
C2557 C 0.63146 0.38649 0.43536 0.0
C2558 C 0.63571 0.39991 0.44593 0.0
C2559 C 0.64882 0.40452 0.43472 0.0
C2560 C 0.62696 0.40948 0.46887 0.0
C2561 C 0.61778 0.38073 0.44811 0.0
C2562 C 0.61416 0.41403 0.45477 0.0
C2563 C 0.60705 0.42466 0.47368 0.0
C2564 C 0.61275 0.43103 0.50656 0.0
C2565 C 0.62524 0.42602 0.52151 0.0
C2566 C 0.63223 0.41535 0.50295 0.0
H2567 H 0.61772 0.36929 0.44722 0.0
H2568 H 0.61517 0.38412 0.47798 0.0
H2569 H 0.60963 0.3845 0.42822 0.0
H2570 H 0.61001 0.40988 0.4281 0.0
H2571 H 0.5975 0.42839 0.46131 0.0
H2572 H 0.41166 0.92734 0.10747 0.0
H2573 H 0.40107 0.90758 0.14069 0.0
H2574 H 0.362 0.9176 0.08833 0.0
H2575 H 0.3725 0.93684 0.05444 0.0
H2576 H 0.38127 0.90693 0.19336 0.0
H2577 H 0.36303 0.87732 0.06743 0.0
H2578 H 0.37518 0.89126 0.06253 0.0
H2579 H 0.35693 0.89467 0.06395 0.0
C2580 C 0.40087 0.92515 0.10259 0.0
C2581 C 0.39296 0.93359 0.07802 0.0
C2582 C 0.39482 0.91388 0.12162 0.0
C2583 C 0.38079 0.91086 0.11631 0.0
C2584 C 0.37293 0.91935 0.0919 0.0
H2585 H 0.31954 0.88085 0.26549 0.0
H2586 H 0.33845 0.89244 0.23291 0.0
C2587 C 0.37896 0.93048 0.07274 0.0
C2588 C 0.37392 0.89955 0.13818 0.0
H2589 H 0.35011 0.87399 0.1274 0.0
C2590 C 0.37469 0.89953 0.17887 0.0
C2591 C 0.36558 0.88961 0.11949 0.0
C2592 C 0.36527 0.88812 0.07593 0.0
C2593 C 0.36655 0.89058 0.2013 0.0
C2594 C 0.35709 0.8817 0.1826 0.0
C2595 C 0.35713 0.88097 0.14191 0.0
C2596 C 0.34619 0.87416 0.20438 0.0
C2597 C 0.36805 0.89094 0.24485 0.0
C2598 C 0.3439 0.86001 0.19848 0.0
C2599 C 0.33283 0.85334 0.21674 0.0
C2600 C 0.32386 0.86072 0.24112 0.0
C2601 C 0.32631 0.87481 0.24725 0.0
C2602 C 0.33725 0.88145 0.22886 0.0
H2603 H 0.37872 0.89375 0.25331 0.0
H2604 H 0.36107 0.8989 0.25689 0.0
H2605 H 0.36545 0.88086 0.25821 0.0
H2606 H 0.35056 0.85418 0.17937 0.0
H2607 H 0.33117 0.84249 0.21124 0.0
H2608 H 0.82434 0.38189 0.79101 0.0
H2609 H 0.84202 0.39404 0.75405 0.0
H2610 H 0.84258 0.3613 0.66972 0.0
H2611 H 0.82493 0.3489 0.70704 0.0
H2612 H 0.86959 0.37329 0.68811 0.0
H2613 H 0.82993 0.41224 0.6506 0.0
H2614 H 0.83183 0.40925 0.70175 0.0
H2615 H 0.82563 0.39567 0.67099 0.0
C2616 C 0.82838 0.37713 0.76496 0.0
C2617 C 0.82314 0.3645 0.75172 0.0
C2618 C 0.83847 0.38411 0.74384 0.0
C2619 C 0.84343 0.37869 0.70882 0.0
C2620 C 0.83885 0.36568 0.69665 0.0
H2621 H 0.87724 0.43173 0.5312 0.0
H2622 H 0.86517 0.41339 0.56566 0.0
C2623 C 0.82878 0.35861 0.71799 0.0
C2624 C 0.85242 0.38721 0.68357 0.0
H2625 H 0.85292 0.41755 0.63364 0.0
C2626 C 0.86597 0.38293 0.67595 0.0
C2627 C 0.84759 0.39968 0.6673 0.0
C2628 C 0.83292 0.40446 0.6727 0.0
C2629 C 0.87492 0.39102 0.6532 0.0
C2630 C 0.87021 0.40375 0.63816 0.0
C2631 C 0.85657 0.40783 0.64527 0.0
C2632 C 0.87904 0.41313 0.61476 0.0
C2633 C 0.88924 0.38578 0.64509 0.0
C2634 C 0.89114 0.41885 0.63029 0.0
C2635 C 0.89819 0.42927 0.61029 0.0
C2636 C 0.89311 0.43429 0.57479 0.0
C2637 C 0.88138 0.42812 0.55857 0.0
C2638 C 0.87446 0.41763 0.57827 0.0
H2639 H 0.88992 0.37444 0.64888 0.0
H2640 H 0.89255 0.38845 0.61517 0.0
H2641 H 0.89653 0.39061 0.66575 0.0
H2642 H 0.89474 0.41577 0.65874 0.0
H2643 H 0.90713 0.43393 0.62368 0.0
H2644 H 0.37244 0.06927 0.51932 0.0
H2645 H 0.36148 0.08803 0.48423 0.0
H2646 H 0.4007 0.09976 0.4356 0.0
H2647 H 0.41175 0.0805 0.46981 0.0
H2648 H 0.36423 0.11516 0.48507 0.0
H2649 H 0.3781 0.09549 0.33875 0.0
H2650 H 0.38081 0.08553 0.38224 0.0
H2651 H 0.39246 0.09922 0.36975 0.0
C2652 C 0.3788 0.07587 0.50137 0.0
C2653 C 0.39297 0.07333 0.49717 0.0
C2654 C 0.3725 0.08663 0.48131 0.0
C2655 C 0.38019 0.09521 0.45671 0.0
C2656 C 0.39447 0.09309 0.45365 0.0
H2657 H 0.33195 0.16443 0.35742 0.0
H2658 H 0.35067 0.15239 0.39125 0.0
C2659 C 0.4008 0.08216 0.47348 0.0
C2660 C 0.37294 0.10601 0.43379 0.0
H2661 H 0.36456 0.11546 0.34124 0.0
C2662 C 0.36441 0.11534 0.4536 0.0
C2663 C 0.3731 0.10616 0.3927 0.0
C2664 C 0.3815 0.09601 0.36949 0.0
C2665 C 0.35557 0.12434 0.43362 0.0
C2666 C 0.35559 0.12437 0.39252 0.0
C2667 C 0.3646 0.11549 0.37272 0.0
C2668 C 0.34523 0.13219 0.36957 0.0
C2669 C 0.34569 0.13309 0.45678 0.0
C2670 C 0.33635 0.125 0.34472 0.0
C2671 C 0.32587 0.13186 0.3249 0.0
C2672 C 0.32395 0.14611 0.32957 0.0
C2673 C 0.33313 0.15344 0.35337 0.0
C2674 C 0.34375 0.14655 0.37299 0.0
H2675 H 0.3449 0.12959 0.48742 0.0
H2676 H 0.34938 0.14389 0.45689 0.0
H2677 H 0.33525 0.1329 0.44375 0.0
H2678 H 0.33726 0.11394 0.3415 0.0
H2679 H 0.31901 0.12588 0.30682 0.0
H2680 H 0.59618 0.576 0.12623 0.0
H2681 H 0.60812 0.59461 0.16079 0.0
H2682 H 0.64121 0.59284 0.07746 0.0
H2683 H 0.62952 0.57427 0.04337 0.0
H2684 H 0.64968 0.5895 0.15337 0.0
H2685 H 0.61642 0.63575 0.13781 0.0
H2686 H 0.60793 0.62034 0.15421 0.0
H2687 H 0.61503 0.62099 0.10615 0.0
C2688 C 0.60585 0.57981 0.11486 0.0
C2689 C 0.61197 0.5736 0.08227 0.0
C2690 C 0.61263 0.59047 0.13453 0.0
C2691 C 0.62553 0.59515 0.12158 0.0
C2692 C 0.63127 0.58941 0.08794 0.0
H2693 H 0.68185 0.659 0.19724 0.0
H2694 H 0.6636 0.64614 0.16384 0.0
C2695 C 0.62457 0.57876 0.06852 0.0
C2696 C 0.63392 0.6048 0.14509 0.0
H2697 H 0.6357 0.63771 0.17986 0.0
C2698 C 0.6466 0.60004 0.15917 0.0
C2699 C 0.62994 0.61857 0.15233 0.0
C2700 C 0.61664 0.62432 0.13664 0.0
C2701 C 0.65545 0.60863 0.18013 0.0
C2702 C 0.65138 0.62232 0.1882 0.0
C2703 C 0.63872 0.62717 0.174 0.0
C2704 C 0.66042 0.63166 0.21077 0.0
C2705 C 0.66926 0.60302 0.19266 0.0
C2706 C 0.66421 0.62816 0.24879 0.0
C2707 C 0.67472 0.63532 0.26756 0.0
C2708 C 0.68143 0.64631 0.249 0.0
C2709 C 0.67683 0.65058 0.21223 0.0
C2710 C 0.66642 0.64325 0.19315 0.0
H2711 H 0.6722 0.59371 0.17587 0.0
H2712 H 0.67747 0.61087 0.18913 0.0
H2713 H 0.66875 0.60008 0.22376 0.0
H2714 H 0.65952 0.61942 0.2632 0.0
H2715 H 0.67795 0.63192 0.29609 0.0
H2716 H 0.18393 0.88405 0.78234 0.0
H2717 H 0.16601 0.89628 0.81815 0.0
H2718 H 0.1629 0.86241 0.89861 0.0
H2719 H 0.18074 0.84994 0.8624 0.0
H2720 H 0.13692 0.87509 0.87944 0.0
H2721 H 0.17655 0.91305 0.92382 0.0
H2722 H 0.1752 0.91087 0.87224 0.0
H2723 H 0.18087 0.89674 0.90198 0.0
C2724 C 0.17928 0.87908 0.80724 0.0
C2725 C 0.18385 0.86609 0.81977 0.0
C2726 C 0.16907 0.88611 0.82775 0.0
C2727 C 0.16334 0.88037 0.86147 0.0
C2728 C 0.16724 0.86704 0.87274 0.0
H2729 H 0.12802 0.93222 0.03955 0.0
H2730 H 0.14051 0.91422 0.00491 0.0
C2731 C 0.17743 0.85993 0.85201 0.0
C2732 C 0.15415 0.88879 0.88641 0.0
H2733 H 0.15341 0.91858 0.93867 0.0
C2734 C 0.1405 0.88457 0.89261 0.0
C2735 C 0.15894 0.90101 0.90413 0.0
C2736 C 0.17372 0.90565 0.9006 0.0
C2737 C 0.1314 0.89248 0.9153 0.0
C2738 C 0.13605 0.90501 0.93167 0.0
C2739 C 0.14979 0.90902 0.926 0.0
C2740 C 0.12703 0.91424 0.95492 0.0
C2741 C 0.11698 0.88725 0.92197 0.0
C2742 C 0.11504 0.92002 0.93889 0.0
C2743 C 0.10774 0.93023 0.959 0.0
C2744 C 0.11248 0.93498 -0.00488 0.0
C2745 C 0.12414 0.9288 0.01173 0.0
C2746 C 0.1313 0.91851 -0.00808 0.0
H2747 H 0.11633 0.87593 0.91776 0.0
H2748 H 0.11333 0.88977 0.95166 0.0
H2749 H 0.10993 0.89219 0.90079 0.0
H2750 H 0.1117 0.91715 0.91006 0.0
H2751 H 0.09887 0.93492 0.9453 0.0
loop_
_geom_bond_atom_site_label_1
_geom_bond_atom_site_label_2
_geom_bond_distance
_geom_bond_site_symmetry_2
_ccdc_geom_bond_type
Co0 O1 2.216 . S
Co0 O2 2.091 . S
Co0 O4 2.004 . S
Co0 O10 2.021 . S
Co0 O12 2.140 1_554 S
Co0 O13 2.244 . S
O1 Co0 2.216 . S
O1 C8 1.247 . S
O2 Co0 2.091 . S
O2 C8 1.261 . S
C3 O12 1.247 . S
C3 O13 1.272 1_556 S
O4 Co0 2.004 . S
O4 C9 1.259 . S
Co5 O6 2.061 . S
Co5 O11 2.052 . S
Co5 O13 2.135 . S
O6 Co5 2.061 . S
O6 C9 1.235 . S
C7 O10 1.238 . S
C7 O11 1.241 . S
C8 O1 1.247 . S
C8 O2 1.261 . S
C9 O4 1.259 . S
C9 O6 1.235 . S
O10 Co0 2.021 . S
O10 C7 1.238 . S
O11 Co5 2.052 . S
O11 C7 1.241 . S
O12 Co0 2.140 1_556 S
O12 C3 1.247 . S
O13 Co0 2.244 . S
O13 C3 1.272 1_554 S
O13 Co5 2.135 . S
Co14 O15 2.216 . S
Co14 O16 2.091 . S
Co14 O18 2.004 . S
Co14 O24 2.021 . S
Co14 O26 2.137 . S
Co14 O27 2.244 . S
O15 Co14 2.216 . S
O15 C22 1.247 . S
O16 Co14 2.091 . S
O16 C22 1.261 . S
C17 O26 1.247 . S
C17 O27 1.272 . S
O18 Co14 2.004 . S
O18 C23 1.259 . S
Co19 O20 2.061 . S
Co19 O25 2.052 . S
Co19 O27 2.135 . S
O20 Co19 2.061 . S
O20 C23 1.235 . S
C21 O24 1.238 . S
C21 O25 1.241 . S
C22 O15 1.247 . S
C22 O16 1.261 . S
C23 O18 1.259 . S
C23 O20 1.235 . S
O24 Co14 2.021 . S
O24 C21 1.238 . S
O25 Co19 2.052 . S
O25 C21 1.241 . S
O26 Co14 2.137 . S
O26 C17 1.247 . S
O27 Co14 2.244 . S
O27 C17 1.272 . S
O27 Co19 2.135 . S
Co28 O29 2.216 . S
Co28 O30 2.091 . S
Co28 O32 2.004 . S
Co28 O38 2.021 . S
Co28 O40 2.137 . S
Co28 O41 2.244 . S
O29 Co28 2.216 . S
O29 C36 1.247 . S
O30 Co28 2.091 . S
O30 C36 1.261 . S
C31 O40 1.247 . S
C31 O41 1.272 . S
O32 Co28 2.004 . S
O32 C37 1.259 . S
Co33 O34 2.061 . S
Co33 O39 2.052 . S
Co33 O41 2.135 . S
O34 Co33 2.061 . S
O34 C37 1.235 . S
C35 O38 1.238 . S
C35 O39 1.241 . S
C36 O29 1.247 . S
C36 O30 1.261 . S
C37 O32 1.259 . S
C37 O34 1.235 . S
O38 Co28 2.021 . S
O38 C35 1.238 . S
O39 Co33 2.052 . S
O39 C35 1.241 . S
O40 Co28 2.137 . S
O40 C31 1.247 . S
O41 Co28 2.244 . S
O41 C31 1.272 . S
O41 Co33 2.135 . S
Co42 O43 2.216 . S
Co42 O44 2.091 . S
Co42 O46 2.004 . S
Co42 O52 2.021 . S
Co42 O54 2.137 . S
Co42 O55 2.244 . S
O43 Co42 2.216 . S
O43 C50 1.247 . S
O44 Co42 2.091 . S
O44 C50 1.261 . S
C45 O54 1.247 . S
C45 O55 1.272 . S
O46 Co42 2.004 . S
O46 C51 1.259 . S
Co47 O48 2.061 . S
Co47 O53 2.052 . S
Co47 O55 2.135 . S
O48 Co47 2.061 . S
O48 C51 1.235 . S
C49 O52 1.238 . S
C49 O53 1.241 . S
C50 O43 1.247 . S
C50 O44 1.261 . S
C51 O46 1.259 . S
C51 O48 1.235 . S
O52 Co42 2.021 . S
O52 C49 1.238 . S
O53 Co47 2.052 . S
O53 C49 1.241 . S
O54 Co42 2.137 . S
O54 C45 1.247 . S
O55 Co42 2.244 . S
O55 C45 1.272 . S
O55 Co47 2.135 . S
Co56 O57 2.216 . S
Co56 O58 2.091 . S
Co56 O60 2.004 . S
Co56 O66 2.021 . S
Co56 O68 2.137 . S
Co56 O69 2.244 . S
O57 Co56 2.216 . S
O57 C64 1.247 . S
O58 Co56 2.091 . S
O58 C64 1.261 . S
C59 O68 1.247 . S
C59 O69 1.272 . S
O60 Co56 2.004 . S
O60 C65 1.259 . S
Co61 O62 2.061 . S
Co61 O67 2.052 . S
Co61 O69 2.135 . S
O62 Co61 2.061 . S
O62 C65 1.235 . S
C63 O66 1.238 . S
C63 O67 1.241 . S
C64 O57 1.247 . S
C64 O58 1.261 . S
C65 O60 1.259 . S
C65 O62 1.235 . S
O66 Co56 2.021 . S
O66 C63 1.238 . S
O67 Co61 2.052 . S
O67 C63 1.241 . S
O68 Co56 2.137 . S
O68 C59 1.247 . S
O69 Co56 2.244 . S
O69 C59 1.272 . S
O69 Co61 2.135 . S
Co70 O71 2.216 . S
Co70 O72 2.091 . S
Co70 O74 2.004 . S
Co70 O80 2.021 . S
Co70 O82 2.137 . S
Co70 O83 2.244 . S
O71 Co70 2.216 . S
O71 C78 1.247 . S
O72 Co70 2.091 . S
O72 C78 1.261 . S
C73 O82 1.247 . S
C73 O83 1.272 . S
O74 Co70 2.004 . S
O74 C79 1.259 . S
Co75 O76 2.061 . S
Co75 O81 2.052 . S
Co75 O83 2.135 . S
O76 Co75 2.061 . S
O76 C79 1.235 . S
C77 O80 1.238 . S
C77 O81 1.241 . S
C78 O71 1.247 . S
C78 O72 1.261 . S
C79 O74 1.259 . S
C79 O76 1.235 . S
O80 Co70 2.021 . S
O80 C77 1.238 . S
O81 Co75 2.052 . S
O81 C77 1.241 . S
O82 Co70 2.137 . S
O82 C73 1.247 . S
O83 Co70 2.244 . S
O83 C73 1.272 . S
O83 Co75 2.135 . S
Co84 O85 2.216 . S
Co84 O86 2.091 . S
Co84 O88 2.004 . S
Co84 O94 2.021 1_554 S
Co84 O96 2.137 . S
Co84 O97 2.244 . S
O85 Co84 2.216 . S
O85 C92 1.247 . S
O86 Co84 2.091 . S
O86 C92 1.261 . S
C87 O96 1.247 . S
C87 O97 1.272 . S
O88 Co84 2.004 . S
O88 C93 1.259 . S
Co89 O90 2.061 . S
Co89 O95 2.052 1_554 S
Co89 O97 2.135 . S
O90 Co89 2.061 . S
O90 C93 1.235 . S
C91 O94 1.238 . S
C91 O95 1.241 . S
C92 O85 1.247 . S
C92 O86 1.261 . S
C93 O88 1.259 . S
C93 O90 1.235 . S
O94 Co84 2.021 1_556 S
O94 C91 1.238 . S
O95 Co89 2.052 1_556 S
O95 C91 1.241 . S
O96 Co84 2.137 . S
O96 C87 1.247 . S
O97 Co84 2.244 . S
O97 C87 1.272 . S
O97 Co89 2.135 . S
Co98 O99 2.216 . S
Co98 O100 2.091 . S
Co98 O102 2.004 . S
Co98 O108 2.021 . S
Co98 O110 2.137 . S
Co98 O111 2.244 . S
O99 Co98 2.216 . S
O99 C106 1.247 . S
O100 Co98 2.091 . S
O100 C106 1.261 . S
C101 O110 1.247 . S
C101 O111 1.272 . S
O102 Co98 2.004 . S
O102 C107 1.259 . S
Co103 O104 2.061 . S
Co103 O109 2.052 . S
Co103 O111 2.135 . S
O104 Co103 2.061 . S
O104 C107 1.235 . S
C105 O108 1.238 . S
C105 O109 1.241 . S
C106 O99 1.247 . S
C106 O100 1.261 . S
C107 O102 1.259 . S
C107 O104 1.235 . S
O108 Co98 2.021 . S
O108 C105 1.238 . S
O109 Co103 2.052 . S
O109 C105 1.241 . S
O110 Co98 2.137 . S
O110 C101 1.247 . S
O111 Co98 2.244 . S
O111 C101 1.272 . S
O111 Co103 2.135 . S
Co112 O113 2.216 . S
Co112 O114 2.091 . S
Co112 O116 2.004 . S
Co112 O122 2.021 1_554 S
Co112 O124 2.137 . S
Co112 O125 2.244 . S
O113 Co112 2.216 . S
O113 C120 1.247 . S
O114 Co112 2.091 . S
O114 C120 1.261 . S
C115 O124 1.247 . S
C115 O125 1.272 . S
O116 Co112 2.004 . S
O116 C121 1.259 . S
Co117 O118 2.061 . S
Co117 O123 2.052 1_554 S
Co117 O125 2.135 . S
O118 Co117 2.061 . S
O118 C121 1.235 . S
C119 O122 1.238 . S
C119 O123 1.241 . S
C120 O113 1.247 . S
C120 O114 1.261 . S
C121 O116 1.259 . S
C121 O118 1.235 . S
O122 Co112 2.021 1_556 S
O122 C119 1.238 . S
O123 Co117 2.052 1_556 S
O123 C119 1.241 . S
O124 Co112 2.137 . S
O124 C115 1.247 . S
O125 Co112 2.244 . S
O125 C115 1.272 . S
O125 Co117 2.135 . S
Co126 O127 2.216 . S
Co126 O128 2.091 . S
Co126 O130 2.004 . S
Co126 O136 2.021 . S
Co126 O138 2.137 . S
Co126 O139 2.244 . S
O127 Co126 2.216 . S
O127 C134 1.247 . S
O128 Co126 2.091 . S
O128 C134 1.261 . S
C129 O138 1.247 . S
C129 O139 1.272 . S
O130 Co126 2.004 . S
O130 C135 1.259 . S
Co131 O132 2.061 . S
Co131 O137 2.052 . S
Co131 O139 2.135 . S
O132 Co131 2.061 . S
O132 C135 1.235 . S
C133 O136 1.238 . S
C133 O137 1.241 . S
C134 O127 1.247 . S
C134 O128 1.261 . S
C135 O130 1.259 . S
C135 O132 1.235 . S
O136 Co126 2.021 . S
O136 C133 1.238 . S
O137 Co131 2.052 . S
O137 C133 1.241 . S
O138 Co126 2.137 . S
O138 C129 1.247 . S
O139 Co126 2.244 . S
O139 C129 1.272 . S
O139 Co131 2.135 . S
Co140 O141 2.216 . S
Co140 O142 2.091 . S
Co140 O144 2.004 . S
Co140 O150 2.021 . S
Co140 O152 2.137 . S
Co140 O153 2.244 . S
O141 Co140 2.216 . S
O141 C148 1.247 . S
O142 Co140 2.091 . S
O142 C148 1.261 . S
C143 O152 1.247 . S
C143 O153 1.272 . S
O144 Co140 2.004 . S
O144 C149 1.259 . S
Co145 O146 2.061 . S
Co145 O151 2.052 . S
Co145 O153 2.135 . S
O146 Co145 2.061 . S
O146 C149 1.235 . S
C147 O150 1.238 . S
C147 O151 1.241 . S
C148 O141 1.247 . S
C148 O142 1.261 . S
C149 O144 1.259 . S
C149 O146 1.235 . S
O150 Co140 2.021 . S
O150 C147 1.238 . S
O151 Co145 2.052 . S
O151 C147 1.241 . S
O152 Co140 2.137 . S
O152 C143 1.247 . S
O153 Co140 2.244 . S
O153 C143 1.272 . S
O153 Co145 2.135 . S
Co154 O155 2.216 . S
Co154 O156 2.091 . S
Co154 O158 2.004 . S
Co154 O164 2.021 . S
Co154 O166 2.137 . S
Co154 O167 2.244 . S
O155 Co154 2.216 . S
O155 C162 1.247 . S
O156 Co154 2.091 . S
O156 C162 1.261 . S
C157 O166 1.247 . S
C157 O167 1.272 . S
O158 Co154 2.004 . S
O158 C163 1.259 . S
Co159 O160 2.061 . S
Co159 O165 2.052 . S
Co159 O167 2.135 . S
O160 Co159 2.061 . S
O160 C163 1.235 . S
C161 O164 1.238 . S
C161 O165 1.241 . S
C162 O155 1.247 . S
C162 O156 1.261 . S
C163 O158 1.259 . S
C163 O160 1.235 . S
O164 Co154 2.021 . S
O164 C161 1.238 . S
O165 Co159 2.052 . S
O165 C161 1.241 . S
O166 Co154 2.137 . S
O166 C157 1.247 . S
O167 Co154 2.244 . S
O167 C157 1.272 . S
O167 Co159 2.135 . S
Co168 O169 2.216 . S
Co168 O170 2.091 . S
Co168 O172 2.004 . S
Co168 O178 2.021 . S
Co168 O180 2.137 . S
Co168 O181 2.244 . S
O169 Co168 2.216 . S
O169 C176 1.247 . S
O170 Co168 2.091 . S
O170 C176 1.261 . S
C171 O180 1.247 . S
C171 O181 1.272 . S
O172 Co168 2.004 . S
O172 C177 1.259 . S
Co173 O174 2.061 . S
Co173 O179 2.052 . S
Co173 O181 2.135 . S
O174 Co173 2.061 . S
O174 C177 1.235 . S
C175 O178 1.238 . S
C175 O179 1.241 . S
C176 O169 1.247 . S
C176 O170 1.261 . S
C177 O172 1.259 . S
C177 O174 1.235 . S
O178 Co168 2.021 . S
O178 C175 1.238 . S
O179 Co173 2.052 . S
O179 C175 1.241 . S
O180 Co168 2.137 . S
O180 C171 1.247 . S
O181 Co168 2.244 . S
O181 C171 1.272 . S
O181 Co173 2.135 . S
Co182 O183 2.216 . S
Co182 O184 2.091 . S
Co182 O186 2.004 . S
Co182 O192 2.021 . S
Co182 O194 2.137 . S
Co182 O195 2.244 . S
O183 Co182 2.216 . S
O183 C190 1.247 . S
O184 Co182 2.091 . S
O184 C190 1.261 . S
C185 O194 1.247 . S
C185 O195 1.272 . S
O186 Co182 2.004 . S
O186 C191 1.259 . S
Co187 O188 2.061 . S
Co187 O193 2.052 . S
Co187 O195 2.135 . S
O188 Co187 2.061 . S
O188 C191 1.235 . S
C189 O192 1.238 . S
C189 O193 1.241 . S
C190 O183 1.247 . S
C190 O184 1.261 . S
C191 O186 1.259 . S
C191 O188 1.235 . S
O192 Co182 2.021 . S
O192 C189 1.238 . S
O193 Co187 2.052 . S
O193 C189 1.241 . S
O194 Co182 2.137 . S
O194 C185 1.247 . S
O195 Co182 2.244 . S
O195 C185 1.272 . S
O195 Co187 2.135 . S
Co196 O197 2.216 . S
Co196 O198 2.091 . S
Co196 O200 2.004 . S
Co196 O206 2.021 . S
Co196 O208 2.140 1_554 S
Co196 O209 2.244 . S
O197 Co196 2.216 . S
O197 C204 1.247 . S
O198 Co196 2.091 . S
O198 C204 1.261 . S
C199 O208 1.247 . S
C199 O209 1.272 1_556 S
O200 Co196 2.004 . S
O200 C205 1.259 . S
Co201 O202 2.061 . S
Co201 O207 2.052 . S
Co201 O209 2.135 . S
O202 Co201 2.061 . S
O202 C205 1.235 . S
C203 O206 1.238 . S
C203 O207 1.241 . S
C204 O197 1.247 . S
C204 O198 1.261 . S
C205 O200 1.259 . S
C205 O202 1.235 . S
O206 Co196 2.021 . S
O206 C203 1.238 . S
O207 Co201 2.052 . S
O207 C203 1.241 . S
O208 Co196 2.140 1_556 S
O208 C199 1.247 . S
O209 Co196 2.244 . S
O209 C199 1.272 1_554 S
O209 Co201 2.135 . S
Co210 O211 2.216 . S
Co210 O212 2.091 . S
Co210 O214 2.004 . S
Co210 O220 2.021 . S
Co210 O222 2.137 . S
Co210 O223 2.244 . S
O211 Co210 2.216 . S
O211 C218 1.247 . S
O212 Co210 2.091 . S
O212 C218 1.261 . S
C213 O222 1.247 . S
C213 O223 1.272 . S
O214 Co210 2.004 . S
O214 C219 1.259 . S
Co215 O216 2.061 . S
Co215 O221 2.052 . S
Co215 O223 2.135 . S
O216 Co215 2.061 . S
O216 C219 1.235 . S
C217 O220 1.238 . S
C217 O221 1.241 . S
C218 O211 1.247 . S
C218 O212 1.261 . S
C219 O214 1.259 . S
C219 O216 1.235 . S
O220 Co210 2.021 . S
O220 C217 1.238 . S
O221 Co215 2.052 . S
O221 C217 1.241 . S
O222 Co210 2.137 . S
O222 C213 1.247 . S
O223 Co210 2.244 . S
O223 C213 1.272 . S
O223 Co215 2.135 . S
Co224 O225 2.216 . S
Co224 O226 2.091 . S
Co224 O228 2.004 . S
Co224 O234 2.021 . S
Co224 O236 2.137 . S
Co224 O237 2.244 . S
O225 Co224 2.216 . S
O225 C232 1.247 . S
O226 Co224 2.091 . S
O226 C232 1.261 . S
C227 O236 1.247 . S
C227 O237 1.272 . S
O228 Co224 2.004 . S
O228 C233 1.259 . S
Co229 O230 2.061 1_545 S
Co229 O235 2.052 . S
Co229 O237 2.135 1_545 S
O230 Co229 2.061 1_565 S
O230 C233 1.235 . S
C231 O234 1.238 . S
C231 O235 1.241 1_565 S
C232 O225 1.247 . S
C232 O226 1.261 . S
C233 O228 1.259 . S
C233 O230 1.235 . S
O234 Co224 2.021 . S
O234 C231 1.238 . S
O235 Co229 2.052 . S
O235 C231 1.241 1_545 S
O236 Co224 2.137 . S
O236 C227 1.247 . S
O237 Co224 2.244 . S
O237 C227 1.272 . S
O237 Co229 2.135 1_565 S
Co238 O239 2.216 . S
Co238 O240 2.091 . S
Co238 O242 2.004 . S
Co238 O248 2.021 . S
Co238 O250 2.137 . S
Co238 O251 2.244 . S
O239 Co238 2.216 . S
O239 C246 1.247 . S
O240 Co238 2.091 . S
O240 C246 1.261 . S
C241 O250 1.247 . S
C241 O251 1.272 . S
O242 Co238 2.004 . S
O242 C247 1.259 . S
Co243 O244 2.061 . S
Co243 O249 2.052 . S
Co243 O251 2.135 . S
O244 Co243 2.061 . S
O244 C247 1.235 . S
C245 O248 1.238 . S
C245 O249 1.241 . S
C246 O239 1.247 . S
C246 O240 1.261 . S
C247 O242 1.259 . S
C247 O244 1.235 . S
O248 Co238 2.021 . S
O248 C245 1.238 . S
O249 Co243 2.052 . S
O249 C245 1.241 . S
O250 Co238 2.137 . S
O250 C241 1.247 . S
O251 Co238 2.244 . S
O251 C241 1.272 . S
O251 Co243 2.135 . S
Co252 O253 2.216 . S
Co252 O254 2.091 . S
Co252 O256 2.004 . S
Co252 O262 2.021 . S
Co252 O264 2.137 1_554 S
Co252 O265 2.244 . S
O253 Co252 2.216 . S
O253 C260 1.247 . S
O254 Co252 2.091 . S
O254 C260 1.261 . S
C255 O264 1.247 . S
C255 O265 1.272 1_556 S
O256 Co252 2.004 . S
O256 C261 1.259 . S
Co257 O258 2.061 1_565 S
Co257 O263 2.052 . S
Co257 O265 2.135 1_565 S
O258 Co257 2.061 1_545 S
O258 C261 1.235 . S
C259 O262 1.238 . S
C259 O263 1.241 1_545 S
C260 O253 1.247 . S
C260 O254 1.261 . S
C261 O256 1.259 . S
C261 O258 1.235 . S
O262 Co252 2.021 . S
O262 C259 1.238 . S
O263 Co257 2.052 . S
O263 C259 1.241 1_565 S
O264 Co252 2.137 1_556 S
O264 C255 1.247 . S
O265 Co252 2.244 . S
O265 C255 1.272 1_554 S
O265 Co257 2.135 1_545 S
Co266 O267 2.216 . S
Co266 O268 2.091 . S
Co266 O270 2.004 . S
Co266 O276 2.021 . S
Co266 O278 2.137 . S
Co266 O279 2.244 . S
O267 Co266 2.216 . S
O267 C274 1.247 . S
O268 Co266 2.091 . S
O268 C274 1.261 . S
C269 O278 1.247 . S
C269 O279 1.272 . S
O270 Co266 2.004 . S
O270 C275 1.259 . S
Co271 O272 2.061 . S
Co271 O277 2.052 . S
Co271 O279 2.135 . S
O272 Co271 2.061 . S
O272 C275 1.235 . S
C273 O276 1.238 . S
C273 O277 1.241 . S
C274 O267 1.247 . S
C274 O268 1.261 . S
C275 O270 1.259 . S
C275 O272 1.235 . S
O276 Co266 2.021 . S
O276 C273 1.238 . S
O277 Co271 2.052 . S
O277 C273 1.241 . S
O278 Co266 2.137 . S
O278 C269 1.247 . S
O279 Co266 2.244 . S
O279 C269 1.272 . S
O279 Co271 2.135 . S
Co280 O281 2.216 . S
Co280 O282 2.091 . S
Co280 O284 2.004 . S
Co280 O290 2.021 1_554 S
Co280 O292 2.137 . S
Co280 O293 2.244 . S
O281 Co280 2.216 . S
O281 C288 1.247 . S
O282 Co280 2.091 . S
O282 C288 1.261 . S
C283 O292 1.247 . S
C283 O293 1.272 . S
O284 Co280 2.004 . S
O284 C289 1.259 . S
Co285 O286 2.061 1_565 S
Co285 O291 2.052 1_554 S
Co285 O293 2.135 1_565 S
O286 Co285 2.061 1_545 S
O286 C289 1.235 . S
C287 O290 1.238 . S
C287 O291 1.241 1_545 S
C288 O281 1.247 . S
C288 O282 1.261 . S
C289 O284 1.259 . S
C289 O286 1.235 . S
O290 Co280 2.021 1_556 S
O290 C287 1.238 . S
O291 Co285 2.052 1_556 S
O291 C287 1.241 1_565 S
O292 Co280 2.137 . S
O292 C283 1.247 . S
O293 Co280 2.244 . S
O293 C283 1.272 . S
O293 Co285 2.135 1_545 S
Co294 O295 2.216 . S
Co294 O296 2.091 . S
Co294 O298 2.004 . S
Co294 O304 2.021 . S
Co294 O306 2.137 . S
Co294 O307 2.244 . S
O295 Co294 2.216 . S
O295 C302 1.247 . S
O296 Co294 2.091 . S
O296 C302 1.261 . S
C297 O306 1.247 . S
C297 O307 1.272 . S
O298 Co294 2.004 . S
O298 C303 1.259 . S
Co299 O300 2.061 . S
Co299 O305 2.052 . S
Co299 O307 2.135 . S
O300 Co299 2.061 . S
O300 C303 1.235 . S
C301 O304 1.238 . S
C301 O305 1.241 . S
C302 O295 1.247 . S
C302 O296 1.261 . S
C303 O298 1.259 . S
C303 O300 1.235 . S
O304 Co294 2.021 . S
O304 C301 1.238 . S
O305 Co299 2.052 . S
O305 C301 1.241 . S
O306 Co294 2.137 . S
O306 C297 1.247 . S
O307 Co294 2.244 . S
O307 C297 1.272 . S
O307 Co299 2.135 . S
Co308 O309 2.216 . S
Co308 O310 2.091 . S
Co308 O312 2.004 . S
Co308 O318 2.021 . S
Co308 O320 2.137 . S
Co308 O321 2.244 . S
O309 Co308 2.216 . S
O309 C316 1.247 . S
O310 Co308 2.091 . S
O310 C316 1.261 . S
C311 O320 1.247 . S
C311 O321 1.272 . S
O312 Co308 2.004 . S
O312 C317 1.259 . S
Co313 O314 2.061 1_545 S
Co313 O319 2.052 . S
Co313 O321 2.135 1_545 S
O314 Co313 2.061 1_565 S
O314 C317 1.235 . S
C315 O318 1.238 . S
C315 O319 1.241 1_565 S
C316 O309 1.247 . S
C316 O310 1.261 . S
C317 O312 1.259 . S
C317 O314 1.235 . S
O318 Co308 2.021 . S
O318 C315 1.238 . S
O319 Co313 2.052 . S
O319 C315 1.241 1_545 S
O320 Co308 2.137 . S
O320 C311 1.247 . S
O321 Co308 2.244 . S
O321 C311 1.272 . S
O321 Co313 2.135 1_565 S
Co322 O323 2.216 . S
Co322 O324 2.091 . S
Co322 O326 2.004 . S
Co322 O332 2.021 . S
Co322 O334 2.137 . S
Co322 O335 2.244 . S
O323 Co322 2.216 . S
O323 C330 1.247 . S
O324 Co322 2.091 . S
O324 C330 1.261 . S
C325 O334 1.247 . S
C325 O335 1.272 . S
O326 Co322 2.004 . S
O326 C331 1.259 . S
Co327 O328 2.061 . S
Co327 O333 2.052 . S
Co327 O335 2.135 . S
O328 Co327 2.061 . S
O328 C331 1.235 . S
C329 O332 1.238 . S
C329 O333 1.241 . S
C330 O323 1.247 . S
C330 O324 1.261 . S
C331 O326 1.259 . S
C331 O328 1.235 . S
O332 Co322 2.021 . S
O332 C329 1.238 . S
O333 Co327 2.052 . S
O333 C329 1.241 . S
O334 Co322 2.137 . S
O334 C325 1.247 . S
O335 Co322 2.244 . S
O335 C325 1.272 . S
O335 Co327 2.135 . S
Co336 O337 2.216 . S
Co336 O338 2.091 . S
Co336 O340 2.004 . S
Co336 O346 2.021 . S
Co336 O348 2.137 . S
Co336 O349 2.244 . S
O337 Co336 2.216 . S
O337 C344 1.247 . S
O338 Co336 2.091 . S
O338 C344 1.261 . S
C339 O348 1.247 . S
C339 O349 1.272 . S
O340 Co336 2.004 . S
O340 C345 1.259 . S
Co341 O342 2.061 1_565 S
Co341 O347 2.052 . S
Co341 O349 2.135 1_565 S
O342 Co341 2.061 1_545 S
O342 C345 1.235 . S
C343 O346 1.238 . S
C343 O347 1.241 1_545 S
C344 O337 1.247 . S
C344 O338 1.261 . S
C345 O340 1.259 . S
C345 O342 1.235 . S
O346 Co336 2.021 . S
O346 C343 1.238 . S
O347 Co341 2.052 . S
O347 C343 1.241 1_565 S
O348 Co336 2.137 . S
O348 C339 1.247 . S
O349 Co336 2.244 . S
O349 C339 1.272 . S
O349 Co341 2.135 1_545 S
Co350 O351 2.216 . S
Co350 O352 2.091 . S
Co350 O354 2.004 . S
Co350 O360 2.021 . S
Co350 O362 2.137 . S
Co350 O363 2.244 . S
O351 Co350 2.216 . S
O351 C358 1.247 . S
O352 Co350 2.091 . S
O352 C358 1.261 . S
C353 O362 1.247 . S
C353 O363 1.272 . S
O354 Co350 2.004 . S
O354 C359 1.259 . S
Co355 O356 2.061 . S
Co355 O361 2.052 . S
Co355 O363 2.135 . S
O356 Co355 2.061 . S
O356 C359 1.235 . S
C357 O360 1.238 . S
C357 O361 1.241 . S
C358 O351 1.247 . S
C358 O352 1.261 . S
C359 O354 1.259 . S
C359 O356 1.235 . S
O360 Co350 2.021 . S
O360 C357 1.238 . S
O361 Co355 2.052 . S
O361 C357 1.241 . S
O362 Co350 2.137 . S
O362 C353 1.247 . S
O363 Co350 2.244 . S
O363 C353 1.272 . S
O363 Co355 2.135 . S
Co364 O365 2.216 . S
Co364 O366 2.091 . S
Co364 O368 2.004 . S
Co364 O374 2.021 1_554 S
Co364 O376 2.137 . S
Co364 O377 2.244 . S
O365 Co364 2.216 . S
O365 C372 1.247 . S
O366 Co364 2.091 . S
O366 C372 1.261 . S
C367 O376 1.247 . S
C367 O377 1.272 . S
O368 Co364 2.004 . S
O368 C373 1.259 . S
Co369 O370 2.061 1_545 S
Co369 O375 2.052 1_554 S
Co369 O377 2.135 1_545 S
O370 Co369 2.061 1_565 S
O370 C373 1.235 . S
C371 O374 1.238 . S
C371 O375 1.241 1_565 S
C372 O365 1.247 . S
C372 O366 1.261 . S
C373 O368 1.259 . S
C373 O370 1.235 . S
O374 Co364 2.021 1_556 S
O374 C371 1.238 . S
O375 Co369 2.052 1_556 S
O375 C371 1.241 1_545 S
O376 Co364 2.137 . S
O376 C367 1.247 . S
O377 Co364 2.244 . S
O377 C367 1.272 . S
O377 Co369 2.135 1_565 S
Co378 O379 2.216 . S
Co378 O380 2.091 . S
Co378 O382 2.004 . S
Co378 O388 2.021 . S
Co378 O390 2.137 . S
Co378 O391 2.244 . S
O379 Co378 2.216 . S
O379 C386 1.247 . S
O380 Co378 2.091 . S
O380 C386 1.261 . S
C381 O390 1.247 . S
C381 O391 1.272 . S
O382 Co378 2.004 . S
O382 C387 1.259 . S
Co383 O384 2.061 . S
Co383 O389 2.052 . S
Co383 O391 2.135 . S
O384 Co383 2.061 . S
O384 C387 1.235 . S
C385 O388 1.238 . S
C385 O389 1.241 . S
C386 O379 1.247 . S
C386 O380 1.261 . S
C387 O382 1.259 . S
C387 O384 1.235 . S
O388 Co378 2.021 . S
O388 C385 1.238 . S
O389 Co383 2.052 . S
O389 C385 1.241 . S
O390 Co378 2.137 . S
O390 C381 1.247 . S
O391 Co378 2.244 . S
O391 C381 1.272 . S
O391 Co383 2.135 . S
Co392 O393 2.216 . S
Co392 O394 2.091 . S
Co392 O396 2.004 . S
Co392 O402 2.021 . S
Co392 O404 2.137 1_554 S
Co392 O405 2.244 . S
O393 Co392 2.216 . S
O393 C400 1.247 . S
O394 Co392 2.091 . S
O394 C400 1.261 . S
C395 O404 1.247 . S
C395 O405 1.272 1_556 S
O396 Co392 2.004 . S
O396 C401 1.259 . S
Co397 O398 2.061 1_545 S
Co397 O403 2.052 . S
Co397 O405 2.135 1_545 S
O398 Co397 2.061 1_565 S
O398 C401 1.235 . S
C399 O402 1.238 . S
C399 O403 1.241 1_565 S
C400 O393 1.247 . S
C400 O394 1.261 . S
C401 O396 1.259 . S
C401 O398 1.235 . S
O402 Co392 2.021 . S
O402 C399 1.238 . S
O403 Co397 2.052 . S
O403 C399 1.241 1_545 S
O404 Co392 2.137 1_556 S
O404 C395 1.247 . S
O405 Co392 2.244 . S
O405 C395 1.272 1_554 S
O405 Co397 2.135 1_565 S
Co406 O407 2.216 . S
Co406 O408 2.091 . S
Co406 O410 2.004 . S
Co406 O416 2.021 . S
Co406 O418 2.137 . S
Co406 O419 2.244 . S
O407 Co406 2.216 . S
O407 C414 1.247 . S
O408 Co406 2.091 . S
O408 C414 1.261 . S
C409 O418 1.247 . S
C409 O419 1.272 . S
O410 Co406 2.004 . S
O410 C415 1.259 . S
Co411 O412 2.061 . S
Co411 O417 2.052 . S
Co411 O419 2.135 . S
O412 Co411 2.061 . S
O412 C415 1.235 . S
C413 O416 1.238 . S
C413 O417 1.241 . S
C414 O407 1.247 . S
C414 O408 1.261 . S
C415 O410 1.259 . S
C415 O412 1.235 . S
O416 Co406 2.021 . S
O416 C413 1.238 . S
O417 Co411 2.052 . S
O417 C413 1.241 . S
O418 Co406 2.137 . S
O418 C409 1.247 . S
O419 Co406 2.244 . S
O419 C409 1.272 . S
O419 Co411 2.135 . S
Co420 O421 2.216 . S
Co420 O422 2.091 . S
Co420 O424 2.004 . S
Co420 O430 2.021 . S
Co420 O432 2.137 . S
Co420 O433 2.244 . S
O421 Co420 2.216 . S
O421 C428 1.247 . S
O422 Co420 2.091 . S
O422 C428 1.261 . S
C423 O432 1.247 . S
C423 O433 1.272 . S
O424 Co420 2.004 . S
O424 C429 1.259 . S
Co425 O426 2.061 1_565 S
Co425 O431 2.052 . S
Co425 O433 2.135 1_565 S
O426 Co425 2.061 1_545 S
O426 C429 1.235 . S
C427 O430 1.238 . S
C427 O431 1.241 1_545 S
C428 O421 1.247 . S
C428 O422 1.261 . S
C429 O424 1.259 . S
C429 O426 1.235 . S
O430 Co420 2.021 . S
O430 C427 1.238 . S
O431 Co425 2.052 . S
O431 C427 1.241 1_565 S
O432 Co420 2.137 . S
O432 C423 1.247 . S
O433 Co420 2.244 . S
O433 C423 1.272 . S
O433 Co425 2.135 1_545 S
Co434 O435 2.216 . S
Co434 O436 2.091 . S
Co434 O438 2.004 . S
Co434 O444 2.021 . S
Co434 O446 2.137 . S
Co434 O447 2.244 . S
O435 Co434 2.216 . S
O435 C442 1.247 . S
O436 Co434 2.091 . S
O436 C442 1.261 . S
C437 O446 1.247 . S
C437 O447 1.272 . S
O438 Co434 2.004 . S
O438 C443 1.259 . S
Co439 O440 2.061 . S
Co439 O445 2.052 . S
Co439 O447 2.135 . S
O440 Co439 2.061 . S
O440 C443 1.235 . S
C441 O444 1.238 . S
C441 O445 1.241 . S
C442 O435 1.247 . S
C442 O436 1.261 . S
C443 O438 1.259 . S
C443 O440 1.235 . S
O444 Co434 2.021 . S
O444 C441 1.238 . S
O445 Co439 2.052 . S
O445 C441 1.241 . S
O446 Co434 2.137 . S
O446 C437 1.247 . S
O447 Co434 2.244 . S
O447 C437 1.272 . S
O447 Co439 2.135 . S
H448 C456 0.929 . S
H449 C458 0.930 . S
H450 C460 0.930 1_556 S
H451 C463 0.929 1_556 S
H452 C466 0.930 . S
H453 C468 0.960 1_455 S
H454 C468 0.960 . S
H455 C468 0.960 . S
C456 H448 0.929 . S
C456 C457 1.377 . S
C456 C458 1.384 . S
C457 C456 1.377 . S
C457 C463 1.390 . S
C458 H449 0.930 . S
C458 C456 1.384 . S
C458 C459 1.372 . S
C459 C458 1.372 . S
C459 C460 1.400 . S
C459 C464 1.490 . S
C460 H450 0.930 1_554 S
C460 C459 1.400 . S
C460 C463 1.386 . S
H461 C477 0.930 1_556 S
H462 C478 0.931 1_556 S
C463 H451 0.929 1_554 S
C463 C457 1.390 . S
C463 C460 1.386 . S
C464 C459 1.490 . S
C464 C466 1.395 . S
C464 C467 1.403 . S
H465 C471 0.930 . S
C466 H452 0.930 . S
C466 C464 1.395 . S
C466 C469 1.403 1_655 S
C467 C464 1.403 . S
C467 C468 1.524 . S
C467 C471 1.400 1_655 S
C468 H453 0.960 1_655 S
C468 H454 0.960 . S
C468 H455 0.960 . S
C468 C467 1.524 . S
C469 C466 1.403 1_455 S
C469 C470 1.392 . S
C469 C473 1.495 . S
C470 C469 1.392 . S
C470 C471 1.385 . S
C470 C472 1.478 . S
C471 H465 0.930 . S
C471 C467 1.400 1_455 S
C471 C470 1.385 . S
C472 C470 1.478 . S
C472 C474 1.381 . S
C472 C478 1.383 . S
C473 C469 1.495 . S
C473 H479 0.959 1_455 S
C473 H480 0.961 . S
C473 H481 0.960 . S
C474 C472 1.381 . S
C474 C475 1.394 . S
C474 H482 0.930 . S
C475 C474 1.394 . S
C475 C476 1.383 . S
C475 H483 0.929 . S
C476 C475 1.383 . S
C476 C477 1.377 . S
C477 H461 0.930 1_554 S
C477 C476 1.377 . S
C477 C478 1.379 . S
C478 H462 0.931 1_554 S
C478 C472 1.383 . S
C478 C477 1.379 . S
H479 C473 0.959 1_655 S
H480 C473 0.961 . S
H481 C473 0.960 . S
H482 C474 0.930 . S
H483 C475 0.929 . S
H484 C492 0.929 . S
H485 C494 0.930 . S
H486 C496 0.930 . S
H487 C499 0.929 . S
H488 C502 0.930 . S
H489 C504 0.960 . S
H490 C504 0.960 . S
H491 C504 0.960 . S
C492 H484 0.929 . S
C492 C493 1.377 . S
C492 C494 1.384 . S
C493 C492 1.377 . S
C493 C499 1.390 . S
C494 H485 0.930 . S
C494 C492 1.384 . S
C494 C495 1.372 . S
C495 C494 1.372 . S
C495 C496 1.400 . S
C495 C500 1.490 . S
C496 H486 0.930 . S
C496 C495 1.400 . S
C496 C499 1.386 . S
H497 C513 0.930 . S
H498 C514 0.931 . S
C499 H487 0.929 . S
C499 C493 1.390 . S
C499 C496 1.386 . S
C500 C495 1.490 . S
C500 C502 1.395 . S
C500 C503 1.403 . S
H501 C507 0.930 . S
C502 H488 0.930 . S
C502 C500 1.395 . S
C502 C505 1.403 . S
C503 C500 1.403 . S
C503 C504 1.524 . S
C503 C507 1.400 . S
C504 H489 0.960 . S
C504 H490 0.960 . S
C504 H491 0.960 . S
C504 C503 1.524 . S
C505 C502 1.403 . S
C505 C506 1.392 . S
C505 C509 1.495 . S
C506 C505 1.392 . S
C506 C507 1.385 . S
C506 C508 1.478 . S
C507 H501 0.930 . S
C507 C503 1.400 . S
C507 C506 1.385 . S
C508 C506 1.478 . S
C508 C510 1.381 . S
C508 C514 1.383 . S
C509 C505 1.495 . S
C509 H515 0.959 . S
C509 H516 0.961 . S
C509 H517 0.960 . S
C510 C508 1.381 . S
C510 C511 1.394 . S
C510 H518 0.930 . S
C511 C510 1.394 . S
C511 C512 1.383 . S
C511 H519 0.929 . S
C512 C511 1.383 . S
C512 C513 1.377 . S
C513 H497 0.930 . S
C513 C512 1.377 . S
C513 C514 1.379 . S
C514 H498 0.931 . S
C514 C508 1.383 . S
C514 C513 1.379 . S
H515 C509 0.959 . S
H516 C509 0.961 . S
H517 C509 0.960 . S
H518 C510 0.930 . S
H519 C511 0.929 . S
H520 C528 0.929 . S
H521 C530 0.930 . S
H522 C532 0.930 . S
H523 C535 0.929 . S
H524 C538 0.930 . S
H525 C540 0.960 . S
H526 C540 0.960 . S
H527 C540 0.960 . S
C528 H520 0.929 . S
C528 C529 1.377 . S
C528 C530 1.384 . S
C529 C528 1.377 . S
C529 C535 1.390 . S
C530 H521 0.930 . S
C530 C528 1.384 . S
C530 C531 1.372 . S
C531 C530 1.372 . S
C531 C532 1.400 . S
C531 C536 1.490 . S
C532 H522 0.930 . S
C532 C531 1.400 . S
C532 C535 1.386 . S
H533 C549 0.930 . S
H534 C550 0.931 . S
C535 H523 0.929 . S
C535 C529 1.390 . S
C535 C532 1.386 . S
C536 C531 1.490 . S
C536 C538 1.395 . S
C536 C539 1.403 . S
H537 C543 0.930 . S
C538 H524 0.930 . S
C538 C536 1.395 . S
C538 C541 1.403 . S
C539 C536 1.403 . S
C539 C540 1.524 . S
C539 C543 1.400 . S
C540 H525 0.960 . S
C540 H526 0.960 . S
C540 H527 0.960 . S
C540 C539 1.524 . S
C541 C538 1.403 . S
C541 C542 1.392 . S
C541 C545 1.495 . S
C542 C541 1.392 . S
C542 C543 1.385 . S
C542 C544 1.478 . S
C543 H537 0.930 . S
C543 C539 1.400 . S
C543 C542 1.385 . S
C544 C542 1.478 . S
C544 C546 1.381 . S
C544 C550 1.383 . S
C545 C541 1.495 . S
C545 H551 0.959 . S
C545 H552 0.961 . S
C545 H553 0.960 . S
C546 C544 1.381 . S
C546 C547 1.394 . S
C546 H554 0.930 . S
C547 C546 1.394 . S
C547 C548 1.383 . S
C547 H555 0.929 . S
C548 C547 1.383 . S
C548 C549 1.377 . S
C549 H533 0.930 . S
C549 C548 1.377 . S
C549 C550 1.379 . S
C550 H534 0.931 . S
C550 C544 1.383 . S
C550 C549 1.379 . S
H551 C545 0.959 . S
H552 C545 0.961 . S
H553 C545 0.960 . S
H554 C546 0.930 . S
H555 C547 0.929 . S
H556 C564 0.929 . S
H557 C566 0.930 . S
H558 C568 0.930 . S
H559 C571 0.929 . S
H560 C574 0.930 . S
H561 C576 0.960 . S
H562 C576 0.960 . S
H563 C576 0.960 . S
C564 H556 0.929 . S
C564 C565 1.377 . S
C564 C566 1.384 . S
C565 C564 1.377 . S
C565 C571 1.390 . S
C566 H557 0.930 . S
C566 C564 1.384 . S
C566 C567 1.372 . S
C567 C566 1.372 . S
C567 C568 1.400 . S
C567 C572 1.490 . S
C568 H558 0.930 . S
C568 C567 1.400 . S
C568 C571 1.386 . S
H569 C585 0.930 . S
H570 C586 0.931 . S
C571 H559 0.929 . S
C571 C565 1.390 . S
C571 C568 1.386 . S
C572 C567 1.490 . S
C572 C574 1.395 . S
C572 C575 1.403 . S
H573 C579 0.930 . S
C574 H560 0.930 . S
C574 C572 1.395 . S
C574 C577 1.403 . S
C575 C572 1.403 . S
C575 C576 1.524 . S
C575 C579 1.400 . S
C576 H561 0.960 . S
C576 H562 0.960 . S
C576 H563 0.960 . S
C576 C575 1.524 . S
C577 C574 1.403 . S
C577 C578 1.392 . S
C577 C581 1.495 . S
C578 C577 1.392 . S
C578 C579 1.385 . S
C578 C580 1.478 . S
C579 H573 0.930 . S
C579 C575 1.400 . S
C579 C578 1.385 . S
C580 C578 1.478 . S
C580 C582 1.381 . S
C580 C586 1.383 . S
C581 C577 1.495 . S
C581 H587 0.959 . S
C581 H588 0.961 . S
C581 H589 0.960 . S
C582 C580 1.381 . S
C582 C583 1.394 . S
C582 H590 0.930 . S
C583 C582 1.394 . S
C583 C584 1.383 . S
C583 H591 0.929 . S
C584 C583 1.383 . S
C584 C585 1.377 . S
C585 H569 0.930 . S
C585 C584 1.377 . S
C585 C586 1.379 . S
C586 H570 0.931 . S
C586 C580 1.383 . S
C586 C585 1.379 . S
H587 C581 0.959 . S
H588 C581 0.961 . S
H589 C581 0.960 . S
H590 C582 0.930 . S
H591 C583 0.929 . S
H592 C600 0.929 . S
H593 C602 0.930 . S
H594 C604 0.930 . S
H595 C607 0.929 . S
H596 C610 0.930 . S
H597 C612 0.960 . S
H598 C612 0.960 . S
H599 C612 0.960 . S
C600 H592 0.929 . S
C600 C601 1.377 . S
C600 C602 1.384 . S
C601 C600 1.377 . S
C601 C607 1.390 . S
C602 H593 0.930 . S
C602 C600 1.384 . S
C602 C603 1.372 . S
C603 C602 1.372 . S
C603 C604 1.400 . S
C603 C608 1.490 . S
C604 H594 0.930 . S
C604 C603 1.400 . S
C604 C607 1.386 . S
H605 C621 0.930 . S
H606 C622 0.931 . S
C607 H595 0.929 . S
C607 C601 1.390 . S
C607 C604 1.386 . S
C608 C603 1.490 . S
C608 C610 1.395 . S
C608 C611 1.403 . S
H609 C615 0.930 . S
C610 H596 0.930 . S
C610 C608 1.395 . S
C610 C613 1.403 1_455 S
C611 C608 1.403 . S
C611 C612 1.524 . S
C611 C615 1.400 1_455 S
C612 H597 0.960 . S
C612 H598 0.960 . S
C612 H599 0.960 . S
C612 C611 1.524 . S
C613 C610 1.403 1_655 S
C613 C614 1.392 . S
C613 C617 1.495 . S
C614 C613 1.392 . S
C614 C615 1.385 . S
C614 C616 1.478 . S
C615 H609 0.930 . S
C615 C611 1.400 1_655 S
C615 C614 1.385 . S
C616 C614 1.478 . S
C616 C618 1.381 . S
C616 C622 1.383 . S
C617 C613 1.495 . S
C617 H623 0.959 . S
C617 H624 0.961 . S
C617 H625 0.960 . S
C618 C616 1.381 . S
C618 C619 1.394 . S
C618 H626 0.930 . S
C619 C618 1.394 . S
C619 C620 1.383 . S
C619 H627 0.929 . S
C620 C619 1.383 . S
C620 C621 1.377 . S
C621 H605 0.930 . S
C621 C620 1.377 . S
C621 C622 1.379 . S
C622 H606 0.931 . S
C622 C616 1.383 . S
C622 C621 1.379 . S
H623 C617 0.959 . S
H624 C617 0.961 . S
H625 C617 0.960 . S
H626 C618 0.930 . S
H627 C619 0.929 . S
H628 C636 0.929 . S
H629 C638 0.930 . S
H630 C640 0.930 . S
H631 C643 0.929 . S
H632 C646 0.930 . S
H633 C648 0.960 . S
H634 C648 0.960 . S
H635 C648 0.960 . S
C636 H628 0.929 . S
C636 C637 1.377 . S
C636 C638 1.384 . S
C637 C636 1.377 . S
C637 C643 1.390 . S
C638 H629 0.930 . S
C638 C636 1.384 . S
C638 C639 1.372 . S
C639 C638 1.372 . S
C639 C640 1.400 . S
C639 C644 1.490 . S
C640 H630 0.930 . S
C640 C639 1.400 . S
C640 C643 1.386 . S
H641 C657 0.930 . S
H642 C658 0.931 . S
C643 H631 0.929 . S
C643 C637 1.390 . S
C643 C640 1.386 . S
C644 C639 1.490 . S
C644 C646 1.395 . S
C644 C647 1.403 . S
H645 C651 0.930 . S
C646 H632 0.930 . S
C646 C644 1.395 . S
C646 C649 1.403 . S
C647 C644 1.403 . S
C647 C648 1.524 . S
C647 C651 1.400 . S
C648 H633 0.960 . S
C648 H634 0.960 . S
C648 H635 0.960 . S
C648 C647 1.524 . S
C649 C646 1.403 . S
C649 C650 1.392 . S
C649 C653 1.495 . S
C650 C649 1.392 . S
C650 C651 1.385 . S
C650 C652 1.478 . S
C651 H645 0.930 . S
C651 C647 1.400 . S
C651 C650 1.385 . S
C652 C650 1.478 . S
C652 C654 1.381 . S
C652 C658 1.383 . S
C653 C649 1.495 . S
C653 H659 0.959 . S
C653 H660 0.961 . S
C653 H661 0.960 . S
C654 C652 1.381 . S
C654 C655 1.394 . S
C654 H662 0.930 . S
C655 C654 1.394 . S
C655 C656 1.383 . S
C655 H663 0.929 . S
C656 C655 1.383 . S
C656 C657 1.377 . S
C657 H641 0.930 . S
C657 C656 1.377 . S
C657 C658 1.379 . S
C658 H642 0.931 . S
C658 C652 1.383 . S
C658 C657 1.379 . S
H659 C653 0.959 . S
H660 C653 0.961 . S
H661 C653 0.960 . S
H662 C654 0.930 . S
H663 C655 0.929 . S
H664 C672 0.929 . S
H665 C674 0.930 . S
H666 C676 0.930 . S
H667 C679 0.929 . S
H668 C682 0.930 . S
H669 C684 0.960 . S
H670 C684 0.960 1_556 S
H671 C684 0.960 . S
C672 H664 0.929 . S
C672 C673 1.377 . S
C672 C674 1.384 . S
C673 C672 1.377 . S
C673 C679 1.390 . S
C674 H665 0.930 . S
C674 C672 1.384 . S
C674 C675 1.372 . S
C675 C674 1.372 . S
C675 C676 1.400 . S
C675 C680 1.490 . S
C676 H666 0.930 . S
C676 C675 1.400 . S
C676 C679 1.386 . S
H677 C693 0.930 . S
H678 C694 0.931 . S
C679 H667 0.929 . S
C679 C673 1.390 . S
C679 C676 1.386 . S
C680 C675 1.490 . S
C680 C682 1.395 . S
C680 C683 1.403 . S
H681 C687 0.930 . S
C682 H668 0.930 . S
C682 C680 1.395 . S
C682 C685 1.403 . S
C683 C680 1.403 . S
C683 C684 1.524 . S
C683 C687 1.400 . S
C684 H669 0.960 . S
C684 H670 0.960 1_554 S
C684 H671 0.960 . S
C684 C683 1.524 . S
C685 C682 1.403 . S
C685 C686 1.392 . S
C685 C689 1.495 . S
C686 C685 1.392 . S
C686 C687 1.385 . S
C686 C688 1.478 . S
C687 H681 0.930 . S
C687 C683 1.400 . S
C687 C686 1.385 . S
C688 C686 1.478 . S
C688 C690 1.381 . S
C688 C694 1.383 . S
C689 C685 1.495 . S
C689 H695 0.959 . S
C689 H696 0.961 . S
C689 H697 0.960 . S
C690 C688 1.381 . S
C690 C691 1.394 . S
C690 H698 0.930 . S
C691 C690 1.394 . S
C691 C692 1.383 . S
C691 H699 0.927 1_554 S
C692 C691 1.383 . S
C692 C693 1.377 . S
C693 H677 0.930 . S
C693 C692 1.377 . S
C693 C694 1.379 . S
C694 H678 0.931 . S
C694 C688 1.383 . S
C694 C693 1.379 . S
H695 C689 0.959 . S
H696 C689 0.961 . S
H697 C689 0.960 . S
H698 C690 0.930 . S
H699 C691 0.927 1_556 S
H700 C708 0.929 . S
H701 C710 0.930 . S
H702 C712 0.930 . S
H703 C715 0.929 . S
H704 C718 0.930 . S
H705 C720 0.960 . S
H706 C720 0.960 . S
H707 C720 0.960 . S
C708 H700 0.929 . S
C708 C709 1.377 . S
C708 C710 1.384 . S
C709 C708 1.377 . S
C709 C715 1.390 . S
C710 H701 0.930 . S
C710 C708 1.384 . S
C710 C711 1.372 . S
C711 C710 1.372 . S
C711 C712 1.400 . S
C711 C716 1.490 . S
C712 H702 0.930 . S
C712 C711 1.400 . S
C712 C715 1.386 . S
H713 C729 0.930 . S
H714 C730 0.931 . S
C715 H703 0.929 . S
C715 C709 1.390 . S
C715 C712 1.386 . S
C716 C711 1.490 . S
C716 C718 1.395 . S
C716 C719 1.403 . S
H717 C723 0.930 . S
C718 H704 0.930 . S
C718 C716 1.395 . S
C718 C721 1.403 . S
C719 C716 1.403 . S
C719 C720 1.524 . S
C719 C723 1.400 . S
C720 H705 0.960 . S
C720 H706 0.960 . S
C720 H707 0.960 . S
C720 C719 1.524 . S
C721 C718 1.403 . S
C721 C722 1.392 . S
C721 C725 1.495 . S
C722 C721 1.392 . S
C722 C723 1.385 . S
C722 C724 1.478 . S
C723 H717 0.930 . S
C723 C719 1.400 . S
C723 C722 1.385 . S
C724 C722 1.478 . S
C724 C726 1.381 . S
C724 C730 1.383 . S
C725 C721 1.495 . S
C725 H731 0.959 . S
C725 H732 0.961 . S
C725 H733 0.960 . S
C726 C724 1.381 . S
C726 C727 1.394 . S
C726 H734 0.930 . S
C727 C726 1.394 . S
C727 C728 1.383 . S
C727 H735 0.929 . S
C728 C727 1.383 . S
C728 C729 1.377 . S
C729 H713 0.930 . S
C729 C728 1.377 . S
C729 C730 1.379 . S
C730 H714 0.931 . S
C730 C724 1.383 . S
C730 C729 1.379 . S
H731 C725 0.959 . S
H732 C725 0.961 . S
H733 C725 0.960 . S
H734 C726 0.930 . S
H735 C727 0.929 . S
H736 C744 0.929 . S
H737 C746 0.930 . S
H738 C748 0.930 . S
H739 C751 0.929 . S
H740 C754 0.930 . S
H741 C756 0.960 . S
H742 C756 0.960 . S
H743 C756 0.960 . S
C744 H736 0.929 . S
C744 C745 1.377 . S
C744 C746 1.384 . S
C745 C744 1.377 . S
C745 C751 1.390 . S
C746 H737 0.930 . S
C746 C744 1.384 . S
C746 C747 1.372 . S
C747 C746 1.372 . S
C747 C748 1.400 . S
C747 C752 1.490 . S
C748 H738 0.930 . S
C748 C747 1.400 . S
C748 C751 1.386 . S
H749 C765 0.930 . S
H750 C766 0.931 . S
C751 H739 0.929 . S
C751 C745 1.390 . S
C751 C748 1.386 . S
C752 C747 1.490 . S
C752 C754 1.395 . S
C752 C755 1.403 . S
H753 C759 0.930 . S
C754 H740 0.930 . S
C754 C752 1.395 . S
C754 C757 1.403 . S
C755 C752 1.403 . S
C755 C756 1.524 . S
C755 C759 1.400 . S
C756 H741 0.960 . S
C756 H742 0.960 . S
C756 H743 0.960 . S
C756 C755 1.524 . S
C757 C754 1.403 . S
C757 C758 1.392 . S
C757 C761 1.495 . S
C758 C757 1.392 . S
C758 C759 1.385 . S
C758 C760 1.478 . S
C759 H753 0.930 . S
C759 C755 1.400 . S
C759 C758 1.385 . S
C760 C758 1.478 . S
C760 C762 1.381 . S
C760 C766 1.383 . S
C761 C757 1.495 . S
C761 H767 0.959 . S
C761 H768 0.961 . S
C761 H769 0.960 . S
C762 C760 1.381 . S
C762 C763 1.394 . S
C762 H770 0.930 . S
C763 C762 1.394 . S
C763 C764 1.383 . S
C763 H771 0.929 . S
C764 C763 1.383 . S
C764 C765 1.377 . S
C765 H749 0.930 . S
C765 C764 1.377 . S
C765 C766 1.379 . S
C766 H750 0.931 . S
C766 C760 1.383 . S
C766 C765 1.379 . S
H767 C761 0.959 . S
H768 C761 0.961 . S
H769 C761 0.960 . S
H770 C762 0.930 . S
H771 C763 0.929 . S
H772 C780 0.929 . S
H773 C782 0.930 . S
H774 C784 0.930 . S
H775 C787 0.929 . S
H776 C790 0.930 . S
H777 C792 0.960 . S
H778 C792 0.960 . S
H779 C792 0.960 . S
C780 H772 0.929 . S
C780 C781 1.377 . S
C780 C782 1.384 . S
C781 C780 1.377 . S
C781 C787 1.390 . S
C782 H773 0.930 . S
C782 C780 1.384 . S
C782 C783 1.372 . S
C783 C782 1.372 . S
C783 C784 1.400 . S
C783 C788 1.490 . S
C784 H774 0.930 . S
C784 C783 1.400 . S
C784 C787 1.386 . S
H785 C801 0.930 . S
H786 C802 0.931 . S
C787 H775 0.929 . S
C787 C781 1.390 . S
C787 C784 1.386 . S
C788 C783 1.490 . S
C788 C790 1.395 . S
C788 C791 1.403 . S
H789 C795 0.930 . S
C790 H776 0.930 . S
C790 C788 1.395 . S
C790 C793 1.403 . S
C791 C788 1.403 . S
C791 C792 1.524 . S
C791 C795 1.400 . S
C792 H777 0.960 . S
C792 H778 0.960 . S
C792 H779 0.960 . S
C792 C791 1.524 . S
C793 C790 1.403 . S
C793 C794 1.392 . S
C793 C797 1.495 . S
C794 C793 1.392 . S
C794 C795 1.385 . S
C794 C796 1.478 . S
C795 H789 0.930 . S
C795 C791 1.400 . S
C795 C794 1.385 . S
C796 C794 1.478 . S
C796 C798 1.381 . S
C796 C802 1.383 . S
C797 C793 1.495 . S
C797 H803 0.959 . S
C797 H804 0.961 . S
C797 H805 0.960 . S
C798 C796 1.381 . S
C798 C799 1.394 . S
C798 H806 0.930 . S
C799 C798 1.394 . S
C799 C800 1.383 . S
C799 H807 0.929 . S
C800 C799 1.383 . S
C800 C801 1.377 . S
C801 H785 0.930 . S
C801 C800 1.377 . S
C801 C802 1.379 . S
C802 H786 0.931 . S
C802 C796 1.383 . S
C802 C801 1.379 . S
H803 C797 0.959 . S
H804 C797 0.961 . S
H805 C797 0.960 . S
H806 C798 0.930 . S
H807 C799 0.929 . S
H808 C816 0.929 . S
H809 C818 0.930 . S
H810 C820 0.930 . S
H811 C823 0.929 . S
H812 C826 0.930 . S
H813 C828 0.960 . S
H814 C828 0.960 . S
H815 C828 0.960 . S
C816 H808 0.929 . S
C816 C817 1.377 . S
C816 C818 1.384 . S
C817 C816 1.377 . S
C817 C823 1.390 . S
C818 H809 0.930 . S
C818 C816 1.384 . S
C818 C819 1.372 . S
C819 C818 1.372 . S
C819 C820 1.400 . S
C819 C824 1.490 . S
C820 H810 0.930 . S
C820 C819 1.400 . S
C820 C823 1.386 . S
H821 C837 0.930 . S
H822 C838 0.931 . S
C823 H811 0.929 . S
C823 C817 1.390 . S
C823 C820 1.386 . S
C824 C819 1.490 . S
C824 C826 1.395 . S
C824 C827 1.403 . S
H825 C831 0.930 . S
C826 H812 0.930 . S
C826 C824 1.395 . S
C826 C829 1.403 . S
C827 C824 1.403 . S
C827 C828 1.524 . S
C827 C831 1.400 . S
C828 H813 0.960 . S
C828 H814 0.960 . S
C828 H815 0.960 . S
C828 C827 1.524 . S
C829 C826 1.403 . S
C829 C830 1.392 . S
C829 C833 1.495 . S
C830 C829 1.392 . S
C830 C831 1.385 . S
C830 C832 1.478 . S
C831 H825 0.930 . S
C831 C827 1.400 . S
C831 C830 1.385 . S
C832 C830 1.478 . S
C832 C834 1.381 . S
C832 C838 1.383 . S
C833 C829 1.495 . S
C833 H839 0.959 . S
C833 H840 0.961 . S
C833 H841 0.960 . S
C834 C832 1.381 . S
C834 C835 1.394 . S
C834 H842 0.930 . S
C835 C834 1.394 . S
C835 C836 1.383 . S
C835 H843 0.929 . S
C836 C835 1.383 . S
C836 C837 1.377 . S
C837 H821 0.930 . S
C837 C836 1.377 . S
C837 C838 1.379 . S
C838 H822 0.931 . S
C838 C832 1.383 . S
C838 C837 1.379 . S
H839 C833 0.959 . S
H840 C833 0.961 . S
H841 C833 0.960 . S
H842 C834 0.930 . S
H843 C835 0.929 . S
H844 C852 0.929 . S
H845 C854 0.930 . S
H846 C856 0.930 . S
H847 C859 0.929 . S
H848 C862 0.930 . S
H849 C864 0.960 . S
H850 C864 0.960 . S
H851 C864 0.960 . S
C852 H844 0.929 . S
C852 C853 1.377 . S
C852 C854 1.384 . S
C853 C852 1.377 . S
C853 C859 1.390 . S
C854 H845 0.930 . S
C854 C852 1.384 . S
C854 C855 1.372 . S
C855 C854 1.372 . S
C855 C856 1.400 . S
C855 C860 1.490 . S
C856 H846 0.930 . S
C856 C855 1.400 . S
C856 C859 1.386 . S
H857 C873 0.930 . S
H858 C874 0.931 . S
C859 H847 0.929 . S
C859 C853 1.390 . S
C859 C856 1.386 . S
C860 C855 1.490 . S
C860 C862 1.395 . S
C860 C863 1.403 . S
H861 C867 0.930 . S
C862 H848 0.930 . S
C862 C860 1.395 . S
C862 C865 1.403 . S
C863 C860 1.403 . S
C863 C864 1.524 . S
C863 C867 1.400 . S
C864 H849 0.960 . S
C864 H850 0.960 . S
C864 H851 0.960 . S
C864 C863 1.524 . S
C865 C862 1.403 . S
C865 C866 1.392 . S
C865 C869 1.495 . S
C866 C865 1.392 . S
C866 C867 1.385 . S
C866 C868 1.478 . S
C867 H861 0.930 . S
C867 C863 1.400 . S
C867 C866 1.385 . S
C868 C866 1.478 . S
C868 C870 1.381 . S
C868 C874 1.383 . S
C869 C865 1.495 . S
C869 H875 0.959 . S
C869 H876 0.961 . S
C869 H877 0.960 . S
C870 C868 1.381 . S
C870 C871 1.394 . S
C870 H878 0.930 . S
C871 C870 1.394 . S
C871 C872 1.383 . S
C871 H879 0.929 . S
C872 C871 1.383 . S
C872 C873 1.377 . S
C873 H857 0.930 . S
C873 C872 1.377 . S
C873 C874 1.379 . S
C874 H858 0.931 . S
C874 C868 1.383 . S
C874 C873 1.379 . S
H875 C869 0.959 . S
H876 C869 0.961 . S
H877 C869 0.960 . S
H878 C870 0.930 . S
H879 C871 0.929 . S
H880 C888 0.886 1_565 S
H881 C890 0.932 1_565 S
H882 C892 0.930 . S
H883 C895 0.929 . S
H884 C898 0.930 . S
H885 C900 0.960 . S
H886 C900 0.960 . S
H887 C900 0.960 . S
C888 H880 0.886 1_545 S
C888 C889 1.377 . S
C888 C890 1.383 . S
C889 C888 1.377 . S
C889 C895 1.390 . S
C890 H881 0.932 1_545 S
C890 C888 1.383 . S
C890 C891 1.371 . S
C891 C890 1.371 . S
C891 C892 1.400 . S
C891 C896 1.490 . S
C892 H882 0.930 . S
C892 C891 1.400 . S
C892 C895 1.386 . S
H893 C909 0.974 . S
H894 C910 0.931 1_545 S
C895 H883 0.929 . S
C895 C889 1.390 . S
C895 C892 1.386 . S
C896 C891 1.490 . S
C896 C898 1.395 1_545 S
C896 C899 1.403 . S
H897 C903 0.930 . S
C898 H884 0.930 . S
C898 C896 1.395 1_565 S
C898 C901 1.403 . S
C899 C896 1.403 . S
C899 C900 1.524 . S
C899 C903 1.400 . S
C900 H885 0.960 . S
C900 H886 0.960 . S
C900 H887 0.960 . S
C900 C899 1.524 . S
C901 C898 1.403 . S
C901 C902 1.392 . S
C901 C905 1.495 . S
C902 C901 1.392 . S
C902 C903 1.385 1_565 S
C902 C904 1.478 . S
C903 H897 0.930 . S
C903 C899 1.400 . S
C903 C902 1.385 1_545 S
C904 C902 1.478 . S
C904 C906 1.381 . S
C904 C910 1.383 . S
C905 C901 1.495 . S
C905 H911 0.959 . S
C905 H912 0.961 . S
C905 H913 0.960 . S
C906 C904 1.381 . S
C906 C907 1.394 . S
C906 H914 0.930 . S
C907 C906 1.394 . S
C907 C908 1.383 . S
C907 H915 0.929 . S
C908 C907 1.383 . S
C908 C909 1.377 . S
C909 H893 0.974 . S
C909 C908 1.377 . S
C909 C910 1.379 . S
C910 H894 0.931 1_565 S
C910 C904 1.383 . S
C910 C909 1.379 . S
H911 C905 0.959 . S
H912 C905 0.961 . S
H913 C905 0.960 . S
H914 C906 0.930 . S
H915 C907 0.929 . S
H916 C924 0.929 . S
H917 C926 0.930 . S
H918 C928 0.880 1_565 S
H919 C931 0.929 1_565 S
H920 C934 0.930 . S
H921 C936 0.959 1_556 S
H922 C936 0.960 1_556 S
H923 C936 0.960 . S
C924 H916 0.929 . S
C924 C925 1.377 . S
C924 C926 1.384 . S
C925 C924 1.377 . S
C925 C931 1.390 . S
C926 H917 0.930 . S
C926 C924 1.384 . S
C926 C927 1.372 . S
C927 C926 1.372 . S
C927 C928 1.434 . S
C927 C932 1.490 . S
C928 H918 0.880 1_545 S
C928 C927 1.434 . S
C928 C931 1.402 . S
H929 C945 0.930 . S
H930 C946 0.931 . S
C931 H919 0.929 1_545 S
C931 C925 1.390 . S
C931 C928 1.402 . S
C932 C927 1.490 . S
C932 C934 1.395 . S
C932 C935 1.403 1_545 S
H933 C939 0.930 . S
C934 H920 0.930 . S
C934 C932 1.395 . S
C934 C937 1.403 1_655 S
C935 C932 1.403 1_565 S
C935 C936 1.524 . S
C935 C939 1.400 1_655 S
C936 H921 0.959 1_554 S
C936 H922 0.960 1_554 S
C936 H923 0.960 . S
C936 C935 1.524 . S
C937 C934 1.403 1_455 S
C937 C938 1.392 1_545 S
C937 C941 1.495 . S
C938 C937 1.392 1_565 S
C938 C939 1.385 . S
C938 C940 1.478 . S
C939 H933 0.930 . S
C939 C935 1.400 1_455 S
C939 C938 1.385 . S
C940 C938 1.478 . S
C940 C942 1.356 1_565 S
C940 C946 1.383 . S
C941 C937 1.495 . S
C941 H947 0.959 . S
C941 H948 0.961 . S
C941 H949 0.960 . S
C942 C940 1.356 1_545 S
C942 C943 1.377 1_545 S
C942 H950 0.975 . S
C943 C942 1.377 1_565 S
C943 C944 1.383 . S
C943 H951 0.917 1_565 S
C944 C943 1.383 . S
C944 C945 1.377 . S
C945 H929 0.930 . S
C945 C944 1.377 . S
C945 C946 1.379 . S
C946 H930 0.931 . S
C946 C940 1.383 . S
C946 C945 1.379 . S
H947 C941 0.959 . S
H948 C941 0.961 . S
H949 C941 0.960 . S
H950 C942 0.975 . S
H951 C943 0.917 1_545 S
H952 C960 0.929 . S
H953 C962 0.930 . S
H954 C964 0.930 1_556 S
H955 C967 0.929 1_556 S
H956 C970 0.930 . S
H957 C972 0.965 . S
H958 C972 0.960 . S
H959 C972 0.960 1_556 S
C960 H952 0.929 . S
C960 C961 1.377 . S
C960 C962 1.384 . S
C961 C960 1.377 . S
C961 C967 1.390 . S
C962 H953 0.930 . S
C962 C960 1.384 . S
C962 C963 1.372 . S
C963 C962 1.372 . S
C963 C964 1.400 . S
C963 C968 1.490 . S
C964 H954 0.930 1_554 S
C964 C963 1.400 . S
C964 C967 1.386 . S
H965 C981 0.909 1_556 S
H966 C982 0.931 1_556 S
C967 H955 0.929 1_554 S
C967 C961 1.390 . S
C967 C964 1.386 . S
C968 C963 1.490 . S
C968 C970 1.395 . S
C968 C971 1.403 1_545 S
H969 C975 0.930 . S
C970 H956 0.930 . S
C970 C968 1.395 . S
C970 C973 1.403 . S
C971 C968 1.403 1_565 S
C971 C972 1.524 . S
C971 C975 1.400 . S
C972 H957 0.965 . S
C972 H958 0.960 . S
C972 H959 0.960 1_554 S
C972 C971 1.524 . S
C973 C970 1.403 . S
C973 C974 1.392 1_545 S
C973 C977 1.495 . S
C974 C973 1.392 1_565 S
C974 C975 1.385 . S
C974 C976 1.478 . S
C975 H969 0.930 . S
C975 C971 1.400 . S
C975 C974 1.385 . S
C976 C974 1.478 . S
C976 C978 1.381 . S
C976 C982 1.383 . S
C977 C973 1.495 . S
C977 H983 0.959 . S
C977 H984 0.961 . S
C977 H985 0.960 . S
C978 C976 1.381 . S
C978 C979 1.394 . S
C978 H986 0.930 . S
C979 C978 1.394 . S
C979 C980 1.383 . S
C979 H987 0.929 . S
C980 C979 1.383 . S
C980 C981 1.377 . S
C981 H965 0.909 1_554 S
C981 C980 1.377 . S
C981 C982 1.379 . S
C982 H966 0.931 1_554 S
C982 C976 1.383 . S
C982 C981 1.379 . S
H983 C977 0.959 . S
H984 C977 0.961 . S
H985 C977 0.960 . S
H986 C978 0.930 . S
H987 C979 0.929 . S
H988 C996 0.929 1_565 S
H989 C998 0.978 . S
H990 C1000 0.930 . S
H991 C1003 0.929 . S
H992 C1006 0.930 . S
H993 C1008 0.921 1_655 S
H994 C1008 0.960 . S
H995 C1008 0.960 . S
C996 H988 0.929 1_545 S
C996 C997 1.377 . S
C996 C998 1.369 1_545 S
C997 C996 1.377 . S
C997 C1003 1.390 . S
C998 H989 0.978 . S
C998 C996 1.369 1_565 S
C998 C999 1.341 1_565 S
C999 C998 1.341 1_545 S
C999 C1000 1.400 . S
C999 C1004 1.490 . S
C1000 H990 0.930 . S
C1000 C999 1.400 . S
C1000 C1003 1.386 . S
H1001 C1017 0.896 1_545 S
H1002 C1018 0.931 1_545 S
C1003 H991 0.929 . S
C1003 C997 1.390 . S
C1003 C1000 1.386 . S
C1004 C999 1.490 . S
C1004 C1006 1.395 1_545 S
C1004 C1007 1.403 . S
H1005 C1011 0.930 . S
C1006 H992 0.930 . S
C1006 C1004 1.395 1_565 S
C1006 C1009 1.403 1_455 S
C1007 C1004 1.403 . S
C1007 C1008 1.524 . S
C1007 C1011 1.400 1_455 S
C1008 H993 0.921 1_455 S
C1008 H994 0.960 . S
C1008 H995 0.960 . S
C1008 C1007 1.524 . S
C1009 C1006 1.403 1_655 S
C1009 C1010 1.392 . S
C1009 C1013 1.495 . S
C1010 C1009 1.392 . S
C1010 C1011 1.385 1_565 S
C1010 C1012 1.478 . S
C1011 H1005 0.930 . S
C1011 C1007 1.400 1_655 S
C1011 C1010 1.385 1_545 S
C1012 C1010 1.478 . S
C1012 C1014 1.381 . S
C1012 C1018 1.383 . S
C1013 C1009 1.495 . S
C1013 H1019 0.959 1_655 S
C1013 H1020 0.961 . S
C1013 H1021 0.960 . S
C1014 C1012 1.381 . S
C1014 C1015 1.394 . S
C1014 H1022 0.930 . S
C1015 C1014 1.394 . S
C1015 C1016 1.383 . S
C1015 H1023 0.929 . S
C1016 C1015 1.383 . S
C1016 C1017 1.377 . S
C1017 H1001 0.896 1_565 S
C1017 C1016 1.377 . S
C1017 C1018 1.379 . S
C1018 H1002 0.931 1_565 S
C1018 C1012 1.383 . S
C1018 C1017 1.379 . S
H1019 C1013 0.959 1_455 S
H1020 C1013 0.961 . S
H1021 C1013 0.960 . S
H1022 C1014 0.930 . S
H1023 C1015 0.929 . S
H1024 C1032 0.929 . S
H1025 C1034 0.930 . S
H1026 C1036 0.930 . S
H1027 C1039 0.929 . S
H1028 C1042 0.930 . S
H1029 C1044 0.960 . S
H1030 C1044 0.960 . S
H1031 C1044 0.960 . S
C1032 H1024 0.929 . S
C1032 C1033 1.377 . S
C1032 C1034 1.384 . S
C1033 C1032 1.377 . S
C1033 C1039 1.390 . S
C1034 H1025 0.930 . S
C1034 C1032 1.384 . S
C1034 C1035 1.372 . S
C1035 C1034 1.372 . S
C1035 C1036 1.400 . S
C1035 C1040 1.490 . S
C1036 H1026 0.930 . S
C1036 C1035 1.400 . S
C1036 C1039 1.386 . S
H1037 C1053 0.930 . S
H1038 C1054 0.931 . S
C1039 H1027 0.929 . S
C1039 C1033 1.390 . S
C1039 C1036 1.386 . S
C1040 C1035 1.490 . S
C1040 C1042 1.395 . S
C1040 C1043 1.403 . S
H1041 C1047 0.930 . S
C1042 H1028 0.930 . S
C1042 C1040 1.395 . S
C1042 C1045 1.403 . S
C1043 C1040 1.403 . S
C1043 C1044 1.524 . S
C1043 C1047 1.400 . S
C1044 H1029 0.960 . S
C1044 H1030 0.960 . S
C1044 H1031 0.960 . S
C1044 C1043 1.524 . S
C1045 C1042 1.403 . S
C1045 C1046 1.392 . S
C1045 C1049 1.495 . S
C1046 C1045 1.392 . S
C1046 C1047 1.385 . S
C1046 C1048 1.478 . S
C1047 H1041 0.930 . S
C1047 C1043 1.400 . S
C1047 C1046 1.385 . S
C1048 C1046 1.478 . S
C1048 C1050 1.381 . S
C1048 C1054 1.383 . S
C1049 C1045 1.495 . S
C1049 H1055 0.959 . S
C1049 H1056 0.961 . S
C1049 H1057 0.960 . S
C1050 C1048 1.381 . S
C1050 C1051 1.394 . S
C1050 H1058 0.930 . S
C1051 C1050 1.394 . S
C1051 C1052 1.383 . S
C1051 H1059 0.929 . S
C1052 C1051 1.383 . S
C1052 C1053 1.377 . S
C1053 H1037 0.930 . S
C1053 C1052 1.377 . S
C1053 C1054 1.379 . S
C1054 H1038 0.931 . S
C1054 C1048 1.383 . S
C1054 C1053 1.379 . S
H1055 C1049 0.959 . S
H1056 C1049 0.961 . S
H1057 C1049 0.960 . S
H1058 C1050 0.930 . S
H1059 C1051 0.929 . S
H1060 C1068 0.929 . S
H1061 C1070 0.930 . S
H1062 C1072 0.930 . S
H1063 C1075 0.929 . S
H1064 C1078 0.919 1_556 S
H1065 C1080 0.960 . S
H1066 C1080 0.960 . S
H1067 C1080 0.960 . S
C1068 H1060 0.929 . S
C1068 C1069 1.377 . S
C1068 C1070 1.384 . S
C1069 C1068 1.377 . S
C1069 C1075 1.390 . S
C1070 H1061 0.930 . S
C1070 C1068 1.384 . S
C1070 C1071 1.372 . S
C1071 C1070 1.372 . S
C1071 C1072 1.400 . S
C1071 C1076 1.490 1_556 S
C1072 H1062 0.930 . S
C1072 C1071 1.400 . S
C1072 C1075 1.386 . S
H1073 C1089 0.930 . S
H1074 C1090 0.931 . S
C1075 H1063 0.929 . S
C1075 C1069 1.390 . S
C1075 C1072 1.386 . S
C1076 C1071 1.490 1_554 S
C1076 C1078 1.395 . S
C1076 C1079 1.403 . S
H1077 C1083 0.930 . S
C1078 H1064 0.919 1_554 S
C1078 C1076 1.395 . S
C1078 C1081 1.403 . S
C1079 C1076 1.403 . S
C1079 C1080 1.524 . S
C1079 C1083 1.400 . S
C1080 H1065 0.960 . S
C1080 H1066 0.960 . S
C1080 H1067 0.960 . S
C1080 C1079 1.524 . S
C1081 C1078 1.403 . S
C1081 C1082 1.392 . S
C1081 C1085 1.495 . S
C1082 C1081 1.392 . S
C1082 C1083 1.385 . S
C1082 C1084 1.478 . S
C1083 H1077 0.930 . S
C1083 C1079 1.400 . S
C1083 C1082 1.385 . S
C1084 C1082 1.478 . S
C1084 C1086 1.381 . S
C1084 C1090 1.383 . S
C1085 C1081 1.495 . S
C1085 H1091 0.959 . S
C1085 H1092 0.961 . S
C1085 H1093 0.960 . S
C1086 C1084 1.381 . S
C1086 C1087 1.394 . S
C1086 H1094 0.930 . S
C1087 C1086 1.394 . S
C1087 C1088 1.383 . S
C1087 H1095 0.929 . S
C1088 C1087 1.383 . S
C1088 C1089 1.377 . S
C1089 H1073 0.930 . S
C1089 C1088 1.377 . S
C1089 C1090 1.379 . S
C1090 H1074 0.931 . S
C1090 C1084 1.383 . S
C1090 C1089 1.379 . S
H1091 C1085 0.959 . S
H1092 C1085 0.961 . S
H1093 C1085 0.960 . S
H1094 C1086 0.930 . S
H1095 C1087 0.929 . S
H1096 C1104 0.929 . S
H1097 C1106 0.930 . S
H1098 C1108 0.930 . S
H1099 C1111 0.929 . S
H1100 C1114 0.930 . S
H1101 C1116 0.960 . S
H1102 C1116 0.960 . S
H1103 C1116 0.960 . S
C1104 H1096 0.929 . S
C1104 C1105 1.377 . S
C1104 C1106 1.384 . S
C1105 C1104 1.377 . S
C1105 C1111 1.390 . S
C1106 H1097 0.930 . S
C1106 C1104 1.384 . S
C1106 C1107 1.372 . S
C1107 C1106 1.372 . S
C1107 C1108 1.400 . S
C1107 C1112 1.490 . S
C1108 H1098 0.930 . S
C1108 C1107 1.400 . S
C1108 C1111 1.386 . S
H1109 C1125 0.930 . S
H1110 C1126 0.931 . S
C1111 H1099 0.929 . S
C1111 C1105 1.390 . S
C1111 C1108 1.386 . S
C1112 C1107 1.490 . S
C1112 C1114 1.395 . S
C1112 C1115 1.403 . S
H1113 C1119 0.930 . S
C1114 H1100 0.930 . S
C1114 C1112 1.395 . S
C1114 C1117 1.403 . S
C1115 C1112 1.403 . S
C1115 C1116 1.524 . S
C1115 C1119 1.400 . S
C1116 H1101 0.960 . S
C1116 H1102 0.960 . S
C1116 H1103 0.960 . S
C1116 C1115 1.524 . S
C1117 C1114 1.403 . S
C1117 C1118 1.392 . S
C1117 C1121 1.495 . S
C1118 C1117 1.392 . S
C1118 C1119 1.385 . S
C1118 C1120 1.478 . S
C1119 H1113 0.930 . S
C1119 C1115 1.400 . S
C1119 C1118 1.385 . S
C1120 C1118 1.478 . S
C1120 C1122 1.381 . S
C1120 C1126 1.383 . S
C1121 C1117 1.495 . S
C1121 H1127 0.959 . S
C1121 H1128 0.961 . S
C1121 H1129 0.960 . S
C1122 C1120 1.381 . S
C1122 C1123 1.394 . S
C1122 H1130 0.930 . S
C1123 C1122 1.394 . S
C1123 C1124 1.383 . S
C1123 H1131 0.929 . S
C1124 C1123 1.383 . S
C1124 C1125 1.377 . S
C1125 H1109 0.930 . S
C1125 C1124 1.377 . S
C1125 C1126 1.379 . S
C1126 H1110 0.931 . S
C1126 C1120 1.383 . S
C1126 C1125 1.379 . S
H1127 C1121 0.959 . S
H1128 C1121 0.961 . S
H1129 C1121 0.960 . S
H1130 C1122 0.930 . S
H1131 C1123 0.929 . S
H1132 C1140 0.929 . S
H1133 C1142 0.930 . S
H1134 C1144 0.930 . S
H1135 C1147 0.929 . S
H1136 C1150 0.930 . S
H1137 C1152 0.960 . S
H1138 C1152 0.960 . S
H1139 C1152 0.960 . S
C1140 H1132 0.929 . S
C1140 C1141 1.377 . S
C1140 C1142 1.384 . S
C1141 C1140 1.377 . S
C1141 C1147 1.390 . S
C1142 H1133 0.930 . S
C1142 C1140 1.384 . S
C1142 C1143 1.372 . S
C1143 C1142 1.372 . S
C1143 C1144 1.400 . S
C1143 C1148 1.490 . S
C1144 H1134 0.930 . S
C1144 C1143 1.400 . S
C1144 C1147 1.386 . S
H1145 C1161 0.930 . S
H1146 C1162 0.931 . S
C1147 H1135 0.929 . S
C1147 C1141 1.390 . S
C1147 C1144 1.386 . S
C1148 C1143 1.490 . S
C1148 C1150 1.395 . S
C1148 C1151 1.403 . S
H1149 C1155 0.930 . S
C1150 H1136 0.930 . S
C1150 C1148 1.395 . S
C1150 C1153 1.403 . S
C1151 C1148 1.403 . S
C1151 C1152 1.524 . S
C1151 C1155 1.400 . S
C1152 H1137 0.960 . S
C1152 H1138 0.960 . S
C1152 H1139 0.960 . S
C1152 C1151 1.524 . S
C1153 C1150 1.403 . S
C1153 C1154 1.392 . S
C1153 C1157 1.495 . S
C1154 C1153 1.392 . S
C1154 C1155 1.385 . S
C1154 C1156 1.478 . S
C1155 H1149 0.930 . S
C1155 C1151 1.400 . S
C1155 C1154 1.385 . S
C1156 C1154 1.478 . S
C1156 C1158 1.381 . S
C1156 C1162 1.383 . S
C1157 C1153 1.495 . S
C1157 H1163 0.959 . S
C1157 H1164 0.961 . S
C1157 H1165 0.960 . S
C1158 C1156 1.381 . S
C1158 C1159 1.394 . S
C1158 H1166 0.930 . S
C1159 C1158 1.394 . S
C1159 C1160 1.383 . S
C1159 H1167 0.929 . S
C1160 C1159 1.383 . S
C1160 C1161 1.377 . S
C1161 H1145 0.930 . S
C1161 C1160 1.377 . S
C1161 C1162 1.379 . S
C1162 H1146 0.931 . S
C1162 C1156 1.383 . S
C1162 C1161 1.379 . S
H1163 C1157 0.959 . S
H1164 C1157 0.961 . S
H1165 C1157 0.960 . S
H1166 C1158 0.930 . S
H1167 C1159 0.929 . S
H1168 C1176 0.929 . S
H1169 C1178 0.930 . S
H1170 C1180 0.930 . S
H1171 C1183 0.929 . S
H1172 C1186 0.930 . S
H1173 C1188 0.960 . S
H1174 C1188 0.960 . S
H1175 C1188 0.960 . S
C1176 H1168 0.929 . S
C1176 C1177 1.377 . S
C1176 C1178 1.384 . S
C1177 C1176 1.377 . S
C1177 C1183 1.390 . S
C1178 H1169 0.930 . S
C1178 C1176 1.384 . S
C1178 C1179 1.372 . S
C1179 C1178 1.372 . S
C1179 C1180 1.400 . S
C1179 C1184 1.490 . S
C1180 H1170 0.930 . S
C1180 C1179 1.400 . S
C1180 C1183 1.386 . S
H1181 C1197 0.930 . S
H1182 C1198 0.931 . S
C1183 H1171 0.929 . S
C1183 C1177 1.390 . S
C1183 C1180 1.386 . S
C1184 C1179 1.490 . S
C1184 C1186 1.395 . S
C1184 C1187 1.403 . S
H1185 C1191 0.930 . S
C1186 H1172 0.930 . S
C1186 C1184 1.395 . S
C1186 C1189 1.403 . S
C1187 C1184 1.403 . S
C1187 C1188 1.524 . S
C1187 C1191 1.400 . S
C1188 H1173 0.960 . S
C1188 H1174 0.960 . S
C1188 H1175 0.960 . S
C1188 C1187 1.524 . S
C1189 C1186 1.403 . S
C1189 C1190 1.392 . S
C1189 C1193 1.495 . S
C1190 C1189 1.392 . S
C1190 C1191 1.385 . S
C1190 C1192 1.478 . S
C1191 H1185 0.930 . S
C1191 C1187 1.400 . S
C1191 C1190 1.385 . S
C1192 C1190 1.478 . S
C1192 C1194 1.381 . S
C1192 C1198 1.383 . S
C1193 C1189 1.495 . S
C1193 H1199 0.959 . S
C1193 H1200 0.961 . S
C1193 H1201 0.960 . S
C1194 C1192 1.381 . S
C1194 C1195 1.394 . S
C1194 H1202 0.930 . S
C1195 C1194 1.394 . S
C1195 C1196 1.383 . S
C1195 H1203 0.929 . S
C1196 C1195 1.383 . S
C1196 C1197 1.377 . S
C1197 H1181 0.930 . S
C1197 C1196 1.377 . S
C1197 C1198 1.379 . S
C1198 H1182 0.931 . S
C1198 C1192 1.383 . S
C1198 C1197 1.379 . S
H1199 C1193 0.959 . S
H1200 C1193 0.961 . S
H1201 C1193 0.960 . S
H1202 C1194 0.930 . S
H1203 C1195 0.929 . S
H1204 C1212 0.929 . S
H1205 C1214 0.930 . S
H1206 C1216 0.930 . S
H1207 C1219 0.929 . S
H1208 C1222 0.930 . S
H1209 C1224 0.960 . S
H1210 C1224 0.960 . S
H1211 C1224 0.960 . S
C1212 H1204 0.929 . S
C1212 C1213 1.377 . S
C1212 C1214 1.384 . S
C1213 C1212 1.377 . S
C1213 C1219 1.390 . S
C1214 H1205 0.930 . S
C1214 C1212 1.384 . S
C1214 C1215 1.372 . S
C1215 C1214 1.372 . S
C1215 C1216 1.400 . S
C1215 C1220 1.490 1_556 S
C1216 H1206 0.930 . S
C1216 C1215 1.400 . S
C1216 C1219 1.386 . S
H1217 C1233 0.930 . S
H1218 C1234 0.931 . S
C1219 H1207 0.929 . S
C1219 C1213 1.390 . S
C1219 C1216 1.386 . S
C1220 C1215 1.490 1_554 S
C1220 C1222 1.395 . S
C1220 C1223 1.403 . S
H1221 C1227 0.930 . S
C1222 H1208 0.930 . S
C1222 C1220 1.395 . S
C1222 C1225 1.403 . S
C1223 C1220 1.403 . S
C1223 C1224 1.524 . S
C1223 C1227 1.400 . S
C1224 H1209 0.960 . S
C1224 H1210 0.960 . S
C1224 H1211 0.960 . S
C1224 C1223 1.524 . S
C1225 C1222 1.403 . S
C1225 C1226 1.392 . S
C1225 C1229 1.495 . S
C1226 C1225 1.392 . S
C1226 C1227 1.385 . S
C1226 C1228 1.478 . S
C1227 H1221 0.930 . S
C1227 C1223 1.400 . S
C1227 C1226 1.385 . S
C1228 C1226 1.478 . S
C1228 C1230 1.381 . S
C1228 C1234 1.383 . S
C1229 C1225 1.495 . S
C1229 H1235 0.959 . S
C1229 H1236 0.961 . S
C1229 H1237 0.960 . S
C1230 C1228 1.381 . S
C1230 C1231 1.394 . S
C1230 H1238 0.930 . S
C1231 C1230 1.394 . S
C1231 C1232 1.383 . S
C1231 H1239 0.929 . S
C1232 C1231 1.383 . S
C1232 C1233 1.377 . S
C1233 H1217 0.930 . S
C1233 C1232 1.377 . S
C1233 C1234 1.379 . S
C1234 H1218 0.931 . S
C1234 C1228 1.383 . S
C1234 C1233 1.379 . S
H1235 C1229 0.959 . S
H1236 C1229 0.961 . S
H1237 C1229 0.960 . S
H1238 C1230 0.930 . S
H1239 C1231 0.929 . S
H1240 C1248 0.929 . S
H1241 C1250 0.930 . S
H1242 C1252 0.930 . S
H1243 C1255 0.929 . S
H1244 C1258 0.930 . S
H1245 C1260 0.960 . S
H1246 C1260 0.960 . S
H1247 C1260 0.960 . S
C1248 H1240 0.929 . S
C1248 C1249 1.377 . S
C1248 C1250 1.384 . S
C1249 C1248 1.377 . S
C1249 C1255 1.390 . S
C1250 H1241 0.930 . S
C1250 C1248 1.384 . S
C1250 C1251 1.372 . S
C1251 C1250 1.372 . S
C1251 C1252 1.400 . S
C1251 C1256 1.490 . S
C1252 H1242 0.930 . S
C1252 C1251 1.400 . S
C1252 C1255 1.386 . S
H1253 C1269 0.930 . S
H1254 C1270 0.931 . S
C1255 H1243 0.929 . S
C1255 C1249 1.390 . S
C1255 C1252 1.386 . S
C1256 C1251 1.490 . S
C1256 C1258 1.395 . S
C1256 C1259 1.403 . S
H1257 C1263 0.930 . S
C1258 H1244 0.930 . S
C1258 C1256 1.395 . S
C1258 C1261 1.403 . S
C1259 C1256 1.403 . S
C1259 C1260 1.524 . S
C1259 C1263 1.400 . S
C1260 H1245 0.960 . S
C1260 H1246 0.960 . S
C1260 H1247 0.960 . S
C1260 C1259 1.524 . S
C1261 C1258 1.403 . S
C1261 C1262 1.392 . S
C1261 C1265 1.495 . S
C1262 C1261 1.392 . S
C1262 C1263 1.385 . S
C1262 C1264 1.478 . S
C1263 H1257 0.930 . S
C1263 C1259 1.400 . S
C1263 C1262 1.385 . S
C1264 C1262 1.478 . S
C1264 C1266 1.381 . S
C1264 C1270 1.383 . S
C1265 C1261 1.495 . S
C1265 H1271 0.959 . S
C1265 H1272 0.961 . S
C1265 H1273 0.960 . S
C1266 C1264 1.381 . S
C1266 C1267 1.394 . S
C1266 H1274 0.930 . S
C1267 C1266 1.394 . S
C1267 C1268 1.383 . S
C1267 H1275 0.929 . S
C1268 C1267 1.383 . S
C1268 C1269 1.377 . S
C1269 H1253 0.930 . S
C1269 C1268 1.377 . S
C1269 C1270 1.379 . S
C1270 H1254 0.931 . S
C1270 C1264 1.383 . S
C1270 C1269 1.379 . S
H1271 C1265 0.959 . S
H1272 C1265 0.961 . S
H1273 C1265 0.960 . S
H1274 C1266 0.930 . S
H1275 C1267 0.929 . S
H1276 C1284 0.929 . S
H1277 C1286 0.930 . S
H1278 C1288 0.930 . S
H1279 C1291 0.929 . S
H1280 C1294 0.930 . S
H1281 C1296 0.960 . S
H1282 C1296 0.960 . S
H1283 C1296 0.960 . S
C1284 H1276 0.929 . S
C1284 C1285 1.377 . S
C1284 C1286 1.384 . S
C1285 C1284 1.377 . S
C1285 C1291 1.390 . S
C1286 H1277 0.930 . S
C1286 C1284 1.384 . S
C1286 C1287 1.372 . S
C1287 C1286 1.372 . S
C1287 C1288 1.400 . S
C1287 C1292 1.490 . S
C1288 H1278 0.930 . S
C1288 C1287 1.400 . S
C1288 C1291 1.386 . S
H1289 C1305 0.930 . S
H1290 C1306 0.931 . S
C1291 H1279 0.929 . S
C1291 C1285 1.390 . S
C1291 C1288 1.386 . S
C1292 C1287 1.490 . S
C1292 C1294 1.395 . S
C1292 C1295 1.403 . S
H1293 C1299 0.930 . S
C1294 H1280 0.930 . S
C1294 C1292 1.395 . S
C1294 C1297 1.403 . S
C1295 C1292 1.403 . S
C1295 C1296 1.524 . S
C1295 C1299 1.400 . S
C1296 H1281 0.960 . S
C1296 H1282 0.960 . S
C1296 H1283 0.960 . S
C1296 C1295 1.524 . S
C1297 C1294 1.403 . S
C1297 C1298 1.392 . S
C1297 C1301 1.495 . S
C1298 C1297 1.392 . S
C1298 C1299 1.385 . S
C1298 C1300 1.478 . S
C1299 H1293 0.930 . S
C1299 C1295 1.400 . S
C1299 C1298 1.385 . S
C1300 C1298 1.478 . S
C1300 C1302 1.381 . S
C1300 C1306 1.383 . S
C1301 C1297 1.495 . S
C1301 H1307 0.959 . S
C1301 H1308 0.961 . S
C1301 H1309 0.960 . S
C1302 C1300 1.381 . S
C1302 C1303 1.394 . S
C1302 H1310 0.930 . S
C1303 C1302 1.394 . S
C1303 C1304 1.383 . S
C1303 H1311 0.929 . S
C1304 C1303 1.383 . S
C1304 C1305 1.377 . S
C1305 H1289 0.930 . S
C1305 C1304 1.377 . S
C1305 C1306 1.379 . S
C1306 H1290 0.931 . S
C1306 C1300 1.383 . S
C1306 C1305 1.379 . S
H1307 C1301 0.959 . S
H1308 C1301 0.961 . S
H1309 C1301 0.960 . S
H1310 C1302 0.930 . S
H1311 C1303 0.929 . S
H1312 C1320 0.929 . S
H1313 C1322 0.930 . S
H1314 C1324 0.930 . S
H1315 C1327 0.929 . S
H1316 C1330 0.930 . S
H1317 C1332 0.960 . S
H1318 C1332 0.960 . S
H1319 C1332 0.960 . S
C1320 H1312 0.929 . S
C1320 C1321 1.377 . S
C1320 C1322 1.384 . S
C1321 C1320 1.377 . S
C1321 C1327 1.390 1_545 S
C1322 H1313 0.930 . S
C1322 C1320 1.384 . S
C1322 C1323 1.372 . S
C1323 C1322 1.372 . S
C1323 C1324 1.400 1_545 S
C1323 C1328 1.490 . S
C1324 H1314 0.930 . S
C1324 C1323 1.400 1_565 S
C1324 C1327 1.386 . S
H1325 C1341 0.930 . S
H1326 C1342 0.931 . S
C1327 H1315 0.929 . S
C1327 C1321 1.390 1_565 S
C1327 C1324 1.386 . S
C1328 C1323 1.490 . S
C1328 C1330 1.395 . S
C1328 C1331 1.403 1_545 S
H1329 C1335 0.930 . S
C1330 H1316 0.930 . S
C1330 C1328 1.395 . S
C1330 C1333 1.403 . S
C1331 C1328 1.403 1_565 S
C1331 C1332 1.524 . S
C1331 C1335 1.400 . S
C1332 H1317 0.960 . S
C1332 H1318 0.960 . S
C1332 H1319 0.960 . S
C1332 C1331 1.524 . S
C1333 C1330 1.403 . S
C1333 C1334 1.366 1_545 S
C1333 C1337 1.495 . S
C1334 C1333 1.366 1_565 S
C1334 C1335 1.405 . S
C1334 C1336 1.487 . S
C1335 H1329 0.930 . S
C1335 C1331 1.400 . S
C1335 C1334 1.405 . S
C1336 C1334 1.487 . S
C1336 C1338 1.381 1_565 S
C1336 C1342 1.383 . S
C1337 C1333 1.495 . S
C1337 H1343 0.959 . S
C1337 H1344 0.961 . S
C1337 H1345 0.960 . S
C1338 C1336 1.381 1_545 S
C1338 C1339 1.394 . S
C1338 H1346 0.930 . S
C1339 C1338 1.394 . S
C1339 C1340 1.383 1_545 S
C1339 H1347 0.929 . S
C1340 C1339 1.383 1_565 S
C1340 C1341 1.377 . S
C1341 H1325 0.930 . S
C1341 C1340 1.377 . S
C1341 C1342 1.379 . S
C1342 H1326 0.931 . S
C1342 C1336 1.383 . S
C1342 C1341 1.379 . S
H1343 C1337 0.959 . S
H1344 C1337 0.961 . S
H1345 C1337 0.960 . S
H1346 C1338 0.930 . S
H1347 C1339 0.929 . S
H1348 C1356 0.929 . S
H1349 C1358 0.930 . S
H1350 C1360 0.930 . S
H1351 C1363 0.929 . S
H1352 C1366 0.930 . S
H1353 C1368 0.960 . S
H1354 C1368 0.960 . S
H1355 C1368 0.960 . S
C1356 H1348 0.929 . S
C1356 C1357 1.377 . S
C1356 C1358 1.384 . S
C1357 C1356 1.377 . S
C1357 C1363 1.390 . S
C1358 H1349 0.930 . S
C1358 C1356 1.384 . S
C1358 C1359 1.372 . S
C1359 C1358 1.372 . S
C1359 C1360 1.400 . S
C1359 C1364 1.490 . S
C1360 H1350 0.930 . S
C1360 C1359 1.400 . S
C1360 C1363 1.386 . S
H1361 C1377 0.930 . S
H1362 C1378 0.931 . S
C1363 H1351 0.929 . S
C1363 C1357 1.390 . S
C1363 C1360 1.386 . S
C1364 C1359 1.490 . S
C1364 C1366 1.395 . S
C1364 C1367 1.403 . S
H1365 C1371 0.930 . S
C1366 H1352 0.930 . S
C1366 C1364 1.395 . S
C1366 C1369 1.403 . S
C1367 C1364 1.403 . S
C1367 C1368 1.524 . S
C1367 C1371 1.400 . S
C1368 H1353 0.960 . S
C1368 H1354 0.960 . S
C1368 H1355 0.960 . S
C1368 C1367 1.524 . S
C1369 C1366 1.403 . S
C1369 C1370 1.392 . S
C1369 C1373 1.495 . S
C1370 C1369 1.392 . S
C1370 C1371 1.385 . S
C1370 C1372 1.478 . S
C1371 H1365 0.930 . S
C1371 C1367 1.400 . S
C1371 C1370 1.385 . S
C1372 C1370 1.478 . S
C1372 C1374 1.381 . S
C1372 C1378 1.383 . S
C1373 C1369 1.495 . S
C1373 H1379 0.959 . S
C1373 H1380 0.961 . S
C1373 H1381 0.960 . S
C1374 C1372 1.381 . S
C1374 C1375 1.394 . S
C1374 H1382 0.930 . S
C1375 C1374 1.394 . S
C1375 C1376 1.383 . S
C1375 H1383 0.929 . S
C1376 C1375 1.383 . S
C1376 C1377 1.377 . S
C1377 H1361 0.930 . S
C1377 C1376 1.377 . S
C1377 C1378 1.379 . S
C1378 H1362 0.931 . S
C1378 C1372 1.383 . S
C1378 C1377 1.379 . S
H1379 C1373 0.959 . S
H1380 C1373 0.961 . S
H1381 C1373 0.960 . S
H1382 C1374 0.930 . S
H1383 C1375 0.929 . S
H1384 C1392 0.929 . S
H1385 C1394 0.930 . S
H1386 C1396 0.930 . S
H1387 C1399 0.929 . S
H1388 C1402 0.930 . S
H1389 C1404 0.960 . S
H1390 C1404 0.960 . S
H1391 C1404 0.960 . S
C1392 H1384 0.929 . S
C1392 C1393 1.377 . S
C1392 C1394 1.384 . S
C1393 C1392 1.377 . S
C1393 C1399 1.390 1_545 S
C1394 H1385 0.930 . S
C1394 C1392 1.384 . S
C1394 C1395 1.372 . S
C1395 C1394 1.372 . S
C1395 C1396 1.400 1_545 S
C1395 C1400 1.490 . S
C1396 H1386 0.930 . S
C1396 C1395 1.400 1_565 S
C1396 C1399 1.386 . S
H1397 C1413 0.930 . S
H1398 C1414 0.931 . S
C1399 H1387 0.929 . S
C1399 C1393 1.390 1_565 S
C1399 C1396 1.386 . S
C1400 C1395 1.490 . S
C1400 C1402 1.395 . S
C1400 C1403 1.403 1_545 S
H1401 C1407 0.930 . S
C1402 H1388 0.930 . S
C1402 C1400 1.395 . S
C1402 C1405 1.403 . S
C1403 C1400 1.403 1_565 S
C1403 C1404 1.524 . S
C1403 C1407 1.400 . S
C1404 H1389 0.960 . S
C1404 H1390 0.960 . S
C1404 H1391 0.960 . S
C1404 C1403 1.524 . S
C1405 C1402 1.403 . S
C1405 C1406 1.369 1_545 S
C1405 C1409 1.495 . S
C1406 C1405 1.369 1_565 S
C1406 C1407 1.403 . S
C1406 C1408 1.485 . S
C1407 H1401 0.930 . S
C1407 C1403 1.400 . S
C1407 C1406 1.403 . S
C1408 C1406 1.485 . S
C1408 C1410 1.381 1_565 S
C1408 C1414 1.383 . S
C1409 C1405 1.495 . S
C1409 H1415 0.959 . S
C1409 H1416 0.961 . S
C1409 H1417 0.960 . S
C1410 C1408 1.381 1_545 S
C1410 C1411 1.394 . S
C1410 H1418 0.930 . S
C1411 C1410 1.394 . S
C1411 C1412 1.383 1_545 S
C1411 H1419 0.929 . S
C1412 C1411 1.383 1_565 S
C1412 C1413 1.377 . S
C1413 H1397 0.930 . S
C1413 C1412 1.377 . S
C1413 C1414 1.379 . S
C1414 H1398 0.931 . S
C1414 C1408 1.383 . S
C1414 C1413 1.379 . S
H1415 C1409 0.959 . S
H1416 C1409 0.961 . S
H1417 C1409 0.960 . S
H1418 C1410 0.930 . S
H1419 C1411 0.929 . S
H1420 C1428 0.929 . S
H1421 C1430 0.930 . S
H1422 C1432 0.930 . S
H1423 C1435 0.929 . S
H1424 C1438 0.918 1_556 S
H1425 C1440 0.960 . S
H1426 C1440 0.960 . S
H1427 C1440 0.960 . S
C1428 H1420 0.929 . S
C1428 C1429 1.377 . S
C1428 C1430 1.384 . S
C1429 C1428 1.377 . S
C1429 C1435 1.390 . S
C1430 H1421 0.930 . S
C1430 C1428 1.384 . S
C1430 C1431 1.372 . S
C1431 C1430 1.372 . S
C1431 C1432 1.400 . S
C1431 C1436 1.490 1_556 S
C1432 H1422 0.930 . S
C1432 C1431 1.400 . S
C1432 C1435 1.386 . S
H1433 C1449 0.930 . S
H1434 C1450 0.931 . S
C1435 H1423 0.929 . S
C1435 C1429 1.390 . S
C1435 C1432 1.386 . S
C1436 C1431 1.490 1_554 S
C1436 C1438 1.395 . S
C1436 C1439 1.403 . S
H1437 C1443 0.930 . S
C1438 H1424 0.918 1_554 S
C1438 C1436 1.395 . S
C1438 C1441 1.403 . S
C1439 C1436 1.403 . S
C1439 C1440 1.524 . S
C1439 C1443 1.400 . S
C1440 H1425 0.960 . S
C1440 H1426 0.960 . S
C1440 H1427 0.960 . S
C1440 C1439 1.524 . S
C1441 C1438 1.403 . S
C1441 C1442 1.392 . S
C1441 C1445 1.495 . S
C1442 C1441 1.392 . S
C1442 C1443 1.385 . S
C1442 C1444 1.478 . S
C1443 H1437 0.930 . S
C1443 C1439 1.400 . S
C1443 C1442 1.385 . S
C1444 C1442 1.478 . S
C1444 C1446 1.381 . S
C1444 C1450 1.383 . S
C1445 C1441 1.495 . S
C1445 H1451 0.959 . S
C1445 H1452 0.961 . S
C1445 H1453 0.960 . S
C1446 C1444 1.381 . S
C1446 C1447 1.394 . S
C1446 H1454 0.930 . S
C1447 C1446 1.394 . S
C1447 C1448 1.383 . S
C1447 H1455 0.929 . S
C1448 C1447 1.383 . S
C1448 C1449 1.377 . S
C1449 H1433 0.930 . S
C1449 C1448 1.377 . S
C1449 C1450 1.379 . S
C1450 H1434 0.931 . S
C1450 C1444 1.383 . S
C1450 C1449 1.379 . S
H1451 C1445 0.959 . S
H1452 C1445 0.961 . S
H1453 C1445 0.960 . S
H1454 C1446 0.930 . S
H1455 C1447 0.929 . S
H1456 C1464 0.929 . S
H1457 C1466 0.930 . S
H1458 C1468 0.930 . S
H1459 C1471 0.929 . S
H1460 C1474 0.930 . S
H1461 C1476 0.960 . S
H1462 C1476 0.960 . S
H1463 C1476 0.960 . S
C1464 H1456 0.929 . S
C1464 C1465 1.377 . S
C1464 C1466 1.384 . S
C1465 C1464 1.377 . S
C1465 C1471 1.390 . S
C1466 H1457 0.930 . S
C1466 C1464 1.384 . S
C1466 C1467 1.372 . S
C1467 C1466 1.372 . S
C1467 C1468 1.400 . S
C1467 C1472 1.490 . S
C1468 H1458 0.930 . S
C1468 C1467 1.400 . S
C1468 C1471 1.386 . S
H1469 C1485 0.930 . S
H1470 C1486 0.952 . S
C1471 H1459 0.929 . S
C1471 C1465 1.390 . S
C1471 C1468 1.386 . S
C1472 C1467 1.490 . S
C1472 C1474 1.395 . S
C1472 C1475 1.403 1_565 S
H1473 C1479 0.930 . S
C1474 H1460 0.930 . S
C1474 C1472 1.395 . S
C1474 C1477 1.403 . S
C1475 C1472 1.403 1_545 S
C1475 C1476 1.524 . S
C1475 C1479 1.400 . S
C1476 H1461 0.960 . S
C1476 H1462 0.960 . S
C1476 H1463 0.960 . S
C1476 C1475 1.524 . S
C1477 C1474 1.403 . S
C1477 C1478 1.376 1_565 S
C1477 C1481 1.495 . S
C1478 C1477 1.376 1_545 S
C1478 C1479 1.399 . S
C1478 C1480 1.481 . S
C1479 H1473 0.930 . S
C1479 C1475 1.400 . S
C1479 C1478 1.399 . S
C1480 C1478 1.481 . S
C1480 C1482 1.381 . S
C1480 C1486 1.383 . S
C1481 C1477 1.495 . S
C1481 H1487 0.959 . S
C1481 H1488 0.961 . S
C1481 H1489 0.960 . S
C1482 C1480 1.381 . S
C1482 C1483 1.394 . S
C1482 H1490 0.930 . S
C1483 C1482 1.394 . S
C1483 C1484 1.383 . S
C1483 H1491 0.929 . S
C1484 C1483 1.383 . S
C1484 C1485 1.377 . S
C1485 H1469 0.930 . S
C1485 C1484 1.377 . S
C1485 C1486 1.379 . S
C1486 H1470 0.952 . S
C1486 C1480 1.383 . S
C1486 C1485 1.379 . S
H1487 C1481 0.959 . S
H1488 C1481 0.961 . S
H1489 C1481 0.960 . S
H1490 C1482 0.930 . S
H1491 C1483 0.929 . S
H1492 C1500 0.929 . S
H1493 C1502 0.930 . S
H1494 C1504 0.930 . S
H1495 C1507 0.929 . S
H1496 C1510 0.930 . S
H1497 C1512 0.960 . S
H1498 C1512 0.960 . S
H1499 C1512 0.960 . S
C1500 H1492 0.929 . S
C1500 C1501 1.377 . S
C1500 C1502 1.384 . S
C1501 C1500 1.377 . S
C1501 C1507 1.390 . S
C1502 H1493 0.930 . S
C1502 C1500 1.384 . S
C1502 C1503 1.372 . S
C1503 C1502 1.372 . S
C1503 C1504 1.400 . S
C1503 C1508 1.490 . S
C1504 H1494 0.930 . S
C1504 C1503 1.400 . S
C1504 C1507 1.386 . S
H1505 C1521 0.930 . S
H1506 C1522 0.931 . S
C1507 H1495 0.929 . S
C1507 C1501 1.390 . S
C1507 C1504 1.386 . S
C1508 C1503 1.490 . S
C1508 C1510 1.395 . S
C1508 C1511 1.403 . S
H1509 C1515 0.930 . S
C1510 H1496 0.930 . S
C1510 C1508 1.395 . S
C1510 C1513 1.403 . S
C1511 C1508 1.403 . S
C1511 C1512 1.524 . S
C1511 C1515 1.400 . S
C1512 H1497 0.960 . S
C1512 H1498 0.960 . S
C1512 H1499 0.960 . S
C1512 C1511 1.524 . S
C1513 C1510 1.403 . S
C1513 C1514 1.392 . S
C1513 C1517 1.495 . S
C1514 C1513 1.392 . S
C1514 C1515 1.385 . S
C1514 C1516 1.478 . S
C1515 H1509 0.930 . S
C1515 C1511 1.400 . S
C1515 C1514 1.385 . S
C1516 C1514 1.478 . S
C1516 C1518 1.381 . S
C1516 C1522 1.383 . S
C1517 C1513 1.495 . S
C1517 H1523 0.959 . S
C1517 H1524 0.961 . S
C1517 H1525 0.960 . S
C1518 C1516 1.381 . S
C1518 C1519 1.394 . S
C1518 H1526 0.930 . S
C1519 C1518 1.394 . S
C1519 C1520 1.383 . S
C1519 H1527 0.929 . S
C1520 C1519 1.383 . S
C1520 C1521 1.377 . S
C1521 H1505 0.930 . S
C1521 C1520 1.377 . S
C1521 C1522 1.379 . S
C1522 H1506 0.931 . S
C1522 C1516 1.383 . S
C1522 C1521 1.379 . S
H1523 C1517 0.959 . S
H1524 C1517 0.961 . S
H1525 C1517 0.960 . S
H1526 C1518 0.930 . S
H1527 C1519 0.929 . S
H1528 C1536 0.929 . S
H1529 C1538 0.930 . S
H1530 C1540 0.930 . S
H1531 C1543 0.929 . S
H1532 C1546 0.930 . S
H1533 C1548 0.960 . S
H1534 C1548 0.960 . S
H1535 C1548 0.960 . S
C1536 H1528 0.929 . S
C1536 C1537 1.377 1_565 S
C1536 C1538 1.384 . S
C1537 C1536 1.377 1_545 S
C1537 C1543 1.390 . S
C1538 H1529 0.930 . S
C1538 C1536 1.384 . S
C1538 C1539 1.372 1_565 S
C1539 C1538 1.372 1_545 S
C1539 C1540 1.400 . S
C1539 C1544 1.490 . S
C1540 H1530 0.930 . S
C1540 C1539 1.400 . S
C1540 C1543 1.386 . S
H1541 C1557 0.930 . S
H1542 C1558 0.931 . S
C1543 H1531 0.929 . S
C1543 C1537 1.390 . S
C1543 C1540 1.386 . S
C1544 C1539 1.490 . S
C1544 C1546 1.395 1_545 S
C1544 C1547 1.403 . S
H1545 C1551 0.930 . S
C1546 H1532 0.930 . S
C1546 C1544 1.395 1_565 S
C1546 C1549 1.403 . S
C1547 C1544 1.403 . S
C1547 C1548 1.524 . S
C1547 C1551 1.400 . S
C1548 H1533 0.960 . S
C1548 H1534 0.960 . S
C1548 H1535 0.960 . S
C1548 C1547 1.524 . S
C1549 C1546 1.403 . S
C1549 C1550 1.392 . S
C1549 C1553 1.495 . S
C1550 C1549 1.392 . S
C1550 C1551 1.385 1_565 S
C1550 C1552 1.478 . S
C1551 H1545 0.930 . S
C1551 C1547 1.400 . S
C1551 C1550 1.385 1_545 S
C1552 C1550 1.478 . S
C1552 C1554 1.381 . S
C1552 C1558 1.383 1_565 S
C1553 C1549 1.495 . S
C1553 H1559 0.959 . S
C1553 H1560 0.961 . S
C1553 H1561 0.960 . S
C1554 C1552 1.381 . S
C1554 C1555 1.394 . S
C1554 H1562 0.930 . S
C1555 C1554 1.394 . S
C1555 C1556 1.383 . S
C1555 H1563 0.929 . S
C1556 C1555 1.383 . S
C1556 C1557 1.377 1_565 S
C1557 H1541 0.930 . S
C1557 C1556 1.377 1_545 S
C1557 C1558 1.379 . S
C1558 H1542 0.931 . S
C1558 C1552 1.383 1_545 S
C1558 C1557 1.379 . S
H1559 C1553 0.959 . S
H1560 C1553 0.961 . S
H1561 C1553 0.960 . S
H1562 C1554 0.930 . S
H1563 C1555 0.929 . S
H1564 C1572 0.929 . S
H1565 C1574 0.930 . S
H1566 C1576 0.930 . S
H1567 C1579 0.929 . S
H1568 C1582 0.930 . S
H1569 C1584 0.960 . S
H1570 C1584 0.960 . S
H1571 C1584 0.960 . S
C1572 H1564 0.929 . S
C1572 C1573 1.377 . S
C1572 C1574 1.384 . S
C1573 C1572 1.377 . S
C1573 C1579 1.390 . S
C1574 H1565 0.930 . S
C1574 C1572 1.384 . S
C1574 C1575 1.372 . S
C1575 C1574 1.372 . S
C1575 C1576 1.400 . S
C1575 C1580 1.490 . S
C1576 H1566 0.930 . S
C1576 C1575 1.400 . S
C1576 C1579 1.386 . S
H1577 C1593 0.930 . S
H1578 C1594 0.931 . S
C1579 H1567 0.929 . S
C1579 C1573 1.390 . S
C1579 C1576 1.386 . S
C1580 C1575 1.490 . S
C1580 C1582 1.395 . S
C1580 C1583 1.403 . S
H1581 C1587 0.930 . S
C1582 H1568 0.930 . S
C1582 C1580 1.395 . S
C1582 C1585 1.403 . S
C1583 C1580 1.403 . S
C1583 C1584 1.524 . S
C1583 C1587 1.400 . S
C1584 H1569 0.960 . S
C1584 H1570 0.960 . S
C1584 H1571 0.960 . S
C1584 C1583 1.524 . S
C1585 C1582 1.403 . S
C1585 C1586 1.392 . S
C1585 C1589 1.495 . S
C1586 C1585 1.392 . S
C1586 C1587 1.385 . S
C1586 C1588 1.478 1_554 S
C1587 H1581 0.930 . S
C1587 C1583 1.400 . S
C1587 C1586 1.385 . S
C1588 C1586 1.478 1_556 S
C1588 C1590 1.381 . S
C1588 C1594 1.383 . S
C1589 C1585 1.495 . S
C1589 H1595 0.959 . S
C1589 H1596 0.961 . S
C1589 H1597 0.960 . S
C1590 C1588 1.381 . S
C1590 C1591 1.394 . S
C1590 H1598 0.930 . S
C1591 C1590 1.394 . S
C1591 C1592 1.383 . S
C1591 H1599 0.929 . S
C1592 C1591 1.383 . S
C1592 C1593 1.377 . S
C1593 H1577 0.930 . S
C1593 C1592 1.377 . S
C1593 C1594 1.379 . S
C1594 H1578 0.931 . S
C1594 C1588 1.383 . S
C1594 C1593 1.379 . S
H1595 C1589 0.959 . S
H1596 C1589 0.961 . S
H1597 C1589 0.960 . S
H1598 C1590 0.930 . S
H1599 C1591 0.929 . S
H1600 C1608 0.929 . S
H1601 C1610 0.930 . S
H1602 C1612 0.930 . S
H1603 C1615 0.929 . S
H1604 C1618 0.930 . S
H1605 C1620 0.960 . S
H1606 C1620 0.960 . S
H1607 C1620 0.960 . S
C1608 H1600 0.929 . S
C1608 C1609 1.377 . S
C1608 C1610 1.384 . S
C1609 C1608 1.377 . S
C1609 C1615 1.390 . S
C1610 H1601 0.930 . S
C1610 C1608 1.384 . S
C1610 C1611 1.372 . S
C1611 C1610 1.372 . S
C1611 C1612 1.400 . S
C1611 C1616 1.490 . S
C1612 H1602 0.930 . S
C1612 C1611 1.400 . S
C1612 C1615 1.386 . S
H1613 C1629 0.930 . S
H1614 C1630 0.931 . S
C1615 H1603 0.929 . S
C1615 C1609 1.390 . S
C1615 C1612 1.386 . S
C1616 C1611 1.490 . S
C1616 C1618 1.395 . S
C1616 C1619 1.403 . S
H1617 C1623 0.930 . S
C1618 H1604 0.930 . S
C1618 C1616 1.395 . S
C1618 C1621 1.403 . S
C1619 C1616 1.403 . S
C1619 C1620 1.524 . S
C1619 C1623 1.400 . S
C1620 H1605 0.960 . S
C1620 H1606 0.960 . S
C1620 H1607 0.960 . S
C1620 C1619 1.524 . S
C1621 C1618 1.403 . S
C1621 C1622 1.392 . S
C1621 C1625 1.495 . S
C1622 C1621 1.392 . S
C1622 C1623 1.385 . S
C1622 C1624 1.478 . S
C1623 H1617 0.930 . S
C1623 C1619 1.400 . S
C1623 C1622 1.385 . S
C1624 C1622 1.478 . S
C1624 C1626 1.381 . S
C1624 C1630 1.383 . S
C1625 C1621 1.495 . S
C1625 H1631 0.959 . S
C1625 H1632 0.961 . S
C1625 H1633 0.960 . S
C1626 C1624 1.381 . S
C1626 C1627 1.394 . S
C1626 H1634 0.930 . S
C1627 C1626 1.394 . S
C1627 C1628 1.383 . S
C1627 H1635 0.929 . S
C1628 C1627 1.383 . S
C1628 C1629 1.377 . S
C1629 H1613 0.930 . S
C1629 C1628 1.377 . S
C1629 C1630 1.379 . S
C1630 H1614 0.931 . S
C1630 C1624 1.383 . S
C1630 C1629 1.379 . S
H1631 C1625 0.959 . S
H1632 C1625 0.961 . S
H1633 C1625 0.960 . S
H1634 C1626 0.930 . S
H1635 C1627 0.929 . S
H1636 C1644 0.929 . S
H1637 C1646 0.930 . S
H1638 C1648 0.930 . S
H1639 C1651 0.929 . S
H1640 C1654 0.930 . S
H1641 C1656 0.960 . S
H1642 C1656 0.960 . S
H1643 C1656 0.960 . S
C1644 H1636 0.929 . S
C1644 C1645 1.377 . S
C1644 C1646 1.384 . S
C1645 C1644 1.377 . S
C1645 C1651 1.390 . S
C1646 H1637 0.930 . S
C1646 C1644 1.384 . S
C1646 C1647 1.372 . S
C1647 C1646 1.372 . S
C1647 C1648 1.400 . S
C1647 C1652 1.490 . S
C1648 H1638 0.930 . S
C1648 C1647 1.400 . S
C1648 C1651 1.386 . S
H1649 C1665 0.930 . S
H1650 C1666 0.931 . S
C1651 H1639 0.929 . S
C1651 C1645 1.390 . S
C1651 C1648 1.386 . S
C1652 C1647 1.490 . S
C1652 C1654 1.395 . S
C1652 C1655 1.403 . S
H1653 C1659 0.930 . S
C1654 H1640 0.930 . S
C1654 C1652 1.395 . S
C1654 C1657 1.403 . S
C1655 C1652 1.403 . S
C1655 C1656 1.524 . S
C1655 C1659 1.400 . S
C1656 H1641 0.960 . S
C1656 H1642 0.960 . S
C1656 H1643 0.960 . S
C1656 C1655 1.524 . S
C1657 C1654 1.403 . S
C1657 C1658 1.392 . S
C1657 C1661 1.495 . S
C1658 C1657 1.392 . S
C1658 C1659 1.385 . S
C1658 C1660 1.478 . S
C1659 H1653 0.930 . S
C1659 C1655 1.400 . S
C1659 C1658 1.385 . S
C1660 C1658 1.478 . S
C1660 C1662 1.381 . S
C1660 C1666 1.383 . S
C1661 C1657 1.495 . S
C1661 H1667 0.959 . S
C1661 H1668 0.961 . S
C1661 H1669 0.960 . S
C1662 C1660 1.381 . S
C1662 C1663 1.394 . S
C1662 H1670 0.930 . S
C1663 C1662 1.394 . S
C1663 C1664 1.383 . S
C1663 H1671 0.929 . S
C1664 C1663 1.383 . S
C1664 C1665 1.377 . S
C1665 H1649 0.930 . S
C1665 C1664 1.377 . S
C1665 C1666 1.379 . S
C1666 H1650 0.931 . S
C1666 C1660 1.383 . S
C1666 C1665 1.379 . S
H1667 C1661 0.959 . S
H1668 C1661 0.961 . S
H1669 C1661 0.960 . S
H1670 C1662 0.930 . S
H1671 C1663 0.929 . S
H1672 C1680 0.929 . S
H1673 C1682 0.930 . S
H1674 C1684 0.930 . S
H1675 C1687 0.929 . S
H1676 C1690 0.930 . S
H1677 C1692 0.960 . S
H1678 C1692 0.960 . S
H1679 C1692 0.960 . S
C1680 H1672 0.929 . S
C1680 C1681 1.377 . S
C1680 C1682 1.384 . S
C1681 C1680 1.377 . S
C1681 C1687 1.390 . S
C1682 H1673 0.930 . S
C1682 C1680 1.384 . S
C1682 C1683 1.372 . S
C1683 C1682 1.372 . S
C1683 C1684 1.400 . S
C1683 C1688 1.490 . S
C1684 H1674 0.930 . S
C1684 C1683 1.400 . S
C1684 C1687 1.386 . S
H1685 C1701 0.930 . S
H1686 C1702 0.931 . S
C1687 H1675 0.929 . S
C1687 C1681 1.390 . S
C1687 C1684 1.386 . S
C1688 C1683 1.490 . S
C1688 C1690 1.395 . S
C1688 C1691 1.403 . S
H1689 C1695 0.930 . S
C1690 H1676 0.930 . S
C1690 C1688 1.395 . S
C1690 C1693 1.403 . S
C1691 C1688 1.403 . S
C1691 C1692 1.524 . S
C1691 C1695 1.400 . S
C1692 H1677 0.960 . S
C1692 H1678 0.960 . S
C1692 H1679 0.960 . S
C1692 C1691 1.524 . S
C1693 C1690 1.403 . S
C1693 C1694 1.392 . S
C1693 C1697 1.495 . S
C1694 C1693 1.392 . S
C1694 C1695 1.385 . S
C1694 C1696 1.478 . S
C1695 H1689 0.930 . S
C1695 C1691 1.400 . S
C1695 C1694 1.385 . S
C1696 C1694 1.478 . S
C1696 C1698 1.381 . S
C1696 C1702 1.383 . S
C1697 C1693 1.495 . S
C1697 H1703 0.959 . S
C1697 H1704 0.961 . S
C1697 H1705 0.960 . S
C1698 C1696 1.381 . S
C1698 C1699 1.394 . S
C1698 H1706 0.930 . S
C1699 C1698 1.394 . S
C1699 C1700 1.383 . S
C1699 H1707 0.929 . S
C1700 C1699 1.383 . S
C1700 C1701 1.377 . S
C1701 H1685 0.930 . S
C1701 C1700 1.377 . S
C1701 C1702 1.379 . S
C1702 H1686 0.931 . S
C1702 C1696 1.383 . S
C1702 C1701 1.379 . S
H1703 C1697 0.959 . S
H1704 C1697 0.961 . S
H1705 C1697 0.960 . S
H1706 C1698 0.930 . S
H1707 C1699 0.929 . S
H1708 C1716 0.929 . S
H1709 C1718 0.930 . S
H1710 C1720 0.930 . S
H1711 C1723 0.929 . S
H1712 C1726 0.930 . S
H1713 C1728 0.960 . S
H1714 C1728 0.960 . S
H1715 C1728 0.960 . S
C1716 H1708 0.929 . S
C1716 C1717 1.377 . S
C1716 C1718 1.384 . S
C1717 C1716 1.377 . S
C1717 C1723 1.390 . S
C1718 H1709 0.930 . S
C1718 C1716 1.384 . S
C1718 C1719 1.372 . S
C1719 C1718 1.372 . S
C1719 C1720 1.400 . S
C1719 C1724 1.490 . S
C1720 H1710 0.930 . S
C1720 C1719 1.400 . S
C1720 C1723 1.386 . S
H1721 C1737 0.930 . S
H1722 C1738 0.931 . S
C1723 H1711 0.929 . S
C1723 C1717 1.390 . S
C1723 C1720 1.386 . S
C1724 C1719 1.490 . S
C1724 C1726 1.395 . S
C1724 C1727 1.403 . S
H1725 C1731 0.930 . S
C1726 H1712 0.930 . S
C1726 C1724 1.395 . S
C1726 C1729 1.403 . S
C1727 C1724 1.403 . S
C1727 C1728 1.524 . S
C1727 C1731 1.400 . S
C1728 H1713 0.960 . S
C1728 H1714 0.960 . S
C1728 H1715 0.960 . S
C1728 C1727 1.524 . S
C1729 C1726 1.403 . S
C1729 C1730 1.392 . S
C1729 C1733 1.495 . S
C1730 C1729 1.392 . S
C1730 C1731 1.385 . S
C1730 C1732 1.478 1_554 S
C1731 H1725 0.930 . S
C1731 C1727 1.400 . S
C1731 C1730 1.385 . S
C1732 C1730 1.478 1_556 S
C1732 C1734 1.381 . S
C1732 C1738 1.383 . S
C1733 C1729 1.495 . S
C1733 H1739 0.959 . S
C1733 H1740 0.961 . S
C1733 H1741 0.948 1_554 S
C1734 C1732 1.381 . S
C1734 C1735 1.394 . S
C1734 H1742 0.930 . S
C1735 C1734 1.394 . S
C1735 C1736 1.383 . S
C1735 H1743 0.929 . S
C1736 C1735 1.383 . S
C1736 C1737 1.377 . S
C1737 H1721 0.930 . S
C1737 C1736 1.377 . S
C1737 C1738 1.379 . S
C1738 H1722 0.931 . S
C1738 C1732 1.383 . S
C1738 C1737 1.379 . S
H1739 C1733 0.959 . S
H1740 C1733 0.961 . S
H1741 C1733 0.948 1_556 S
H1742 C1734 0.930 . S
H1743 C1735 0.929 . S
H1744 C1752 0.929 . S
H1745 C1754 0.930 . S
H1746 C1756 0.930 . S
H1747 C1759 0.929 . S
H1748 C1762 0.930 . S
H1749 C1764 0.960 . S
H1750 C1764 0.960 . S
H1751 C1764 0.960 . S
C1752 H1744 0.929 . S
C1752 C1753 1.377 . S
C1752 C1754 1.384 . S
C1753 C1752 1.377 . S
C1753 C1759 1.390 . S
C1754 H1745 0.930 . S
C1754 C1752 1.384 . S
C1754 C1755 1.372 . S
C1755 C1754 1.372 . S
C1755 C1756 1.400 . S
C1755 C1760 1.490 . S
C1756 H1746 0.930 . S
C1756 C1755 1.400 . S
C1756 C1759 1.386 . S
H1757 C1773 0.930 . S
H1758 C1774 0.931 . S
C1759 H1747 0.929 . S
C1759 C1753 1.390 . S
C1759 C1756 1.386 . S
C1760 C1755 1.490 . S
C1760 C1762 1.395 . S
C1760 C1763 1.403 . S
H1761 C1767 0.930 . S
C1762 H1748 0.930 . S
C1762 C1760 1.395 . S
C1762 C1765 1.403 . S
C1763 C1760 1.403 . S
C1763 C1764 1.524 . S
C1763 C1767 1.400 . S
C1764 H1749 0.960 . S
C1764 H1750 0.960 . S
C1764 H1751 0.960 . S
C1764 C1763 1.524 . S
C1765 C1762 1.403 . S
C1765 C1766 1.392 . S
C1765 C1769 1.495 . S
C1766 C1765 1.392 . S
C1766 C1767 1.385 . S
C1766 C1768 1.478 . S
C1767 H1761 0.930 . S
C1767 C1763 1.400 . S
C1767 C1766 1.385 . S
C1768 C1766 1.478 . S
C1768 C1770 1.381 . S
C1768 C1774 1.383 . S
C1769 C1765 1.495 . S
C1769 H1775 0.959 . S
C1769 H1776 0.961 . S
C1769 H1777 0.960 . S
C1770 C1768 1.381 . S
C1770 C1771 1.394 . S
C1770 H1778 0.930 . S
C1771 C1770 1.394 . S
C1771 C1772 1.383 . S
C1771 H1779 0.929 . S
C1772 C1771 1.383 . S
C1772 C1773 1.377 . S
C1773 H1757 0.930 . S
C1773 C1772 1.377 . S
C1773 C1774 1.379 . S
C1774 H1758 0.931 . S
C1774 C1768 1.383 . S
C1774 C1773 1.379 . S
H1775 C1769 0.959 . S
H1776 C1769 0.961 . S
H1777 C1769 0.960 . S
H1778 C1770 0.930 . S
H1779 C1771 0.929 . S
H1780 C1788 0.929 . S
H1781 C1790 0.930 . S
H1782 C1792 0.930 . S
H1783 C1795 0.929 . S
H1784 C1798 0.930 . S
H1785 C1800 0.960 . S
H1786 C1800 0.960 . S
H1787 C1800 0.960 . S
C1788 H1780 0.929 . S
C1788 C1789 1.377 . S
C1788 C1790 1.384 . S
C1789 C1788 1.377 . S
C1789 C1795 1.390 . S
C1790 H1781 0.930 . S
C1790 C1788 1.384 . S
C1790 C1791 1.372 . S
C1791 C1790 1.372 . S
C1791 C1792 1.400 . S
C1791 C1796 1.490 . S
C1792 H1782 0.930 . S
C1792 C1791 1.400 . S
C1792 C1795 1.386 . S
H1793 C1809 0.930 . S
H1794 C1810 0.931 . S
C1795 H1783 0.929 . S
C1795 C1789 1.390 . S
C1795 C1792 1.386 . S
C1796 C1791 1.490 . S
C1796 C1798 1.395 . S
C1796 C1799 1.403 . S
H1797 C1803 0.930 . S
C1798 H1784 0.930 . S
C1798 C1796 1.395 . S
C1798 C1801 1.403 . S
C1799 C1796 1.403 . S
C1799 C1800 1.524 . S
C1799 C1803 1.400 . S
C1800 H1785 0.960 . S
C1800 H1786 0.960 . S
C1800 H1787 0.960 . S
C1800 C1799 1.524 . S
C1801 C1798 1.403 . S
C1801 C1802 1.392 . S
C1801 C1805 1.495 . S
C1802 C1801 1.392 . S
C1802 C1803 1.385 . S
C1802 C1804 1.478 . S
C1803 H1797 0.930 . S
C1803 C1799 1.400 . S
C1803 C1802 1.385 . S
C1804 C1802 1.478 . S
C1804 C1806 1.381 . S
C1804 C1810 1.383 . S
C1805 C1801 1.495 . S
C1805 H1811 0.959 . S
C1805 H1812 0.961 . S
C1805 H1813 0.960 . S
C1806 C1804 1.381 . S
C1806 C1807 1.394 . S
C1806 H1814 0.930 . S
C1807 C1806 1.394 . S
C1807 C1808 1.383 . S
C1807 H1815 0.929 . S
C1808 C1807 1.383 . S
C1808 C1809 1.377 . S
C1809 H1793 0.930 . S
C1809 C1808 1.377 . S
C1809 C1810 1.379 . S
C1810 H1794 0.931 . S
C1810 C1804 1.383 . S
C1810 C1809 1.379 . S
H1811 C1805 0.959 . S
H1812 C1805 0.961 . S
H1813 C1805 0.960 . S
H1814 C1806 0.930 . S
H1815 C1807 0.929 . S
H1816 C1824 0.929 . S
H1817 C1826 0.930 . S
H1818 C1828 0.930 . S
H1819 C1831 0.929 . S
H1820 C1834 0.930 . S
H1821 C1836 0.960 . S
H1822 C1836 0.960 . S
H1823 C1836 0.960 . S
C1824 H1816 0.929 . S
C1824 C1825 1.377 . S
C1824 C1826 1.384 . S
C1825 C1824 1.377 . S
C1825 C1831 1.390 . S
C1826 H1817 0.930 . S
C1826 C1824 1.384 . S
C1826 C1827 1.372 . S
C1827 C1826 1.372 . S
C1827 C1828 1.400 . S
C1827 C1832 1.490 . S
C1828 H1818 0.930 . S
C1828 C1827 1.400 . S
C1828 C1831 1.386 . S
H1829 C1845 0.930 . S
H1830 C1846 0.931 . S
C1831 H1819 0.929 . S
C1831 C1825 1.390 . S
C1831 C1828 1.386 . S
C1832 C1827 1.490 . S
C1832 C1834 1.395 . S
C1832 C1835 1.403 . S
H1833 C1839 0.930 . S
C1834 H1820 0.930 . S
C1834 C1832 1.395 . S
C1834 C1837 1.403 . S
C1835 C1832 1.403 . S
C1835 C1836 1.524 . S
C1835 C1839 1.400 . S
C1836 H1821 0.960 . S
C1836 H1822 0.960 . S
C1836 H1823 0.960 . S
C1836 C1835 1.524 . S
C1837 C1834 1.403 . S
C1837 C1838 1.392 . S
C1837 C1841 1.495 . S
C1838 C1837 1.392 . S
C1838 C1839 1.385 . S
C1838 C1840 1.478 . S
C1839 H1833 0.930 . S
C1839 C1835 1.400 . S
C1839 C1838 1.385 . S
C1840 C1838 1.478 . S
C1840 C1842 1.381 . S
C1840 C1846 1.383 . S
C1841 C1837 1.495 . S
C1841 H1847 0.959 . S
C1841 H1848 0.961 . S
C1841 H1849 0.960 . S
C1842 C1840 1.381 . S
C1842 C1843 1.394 . S
C1842 H1850 0.930 . S
C1843 C1842 1.394 . S
C1843 C1844 1.383 . S
C1843 H1851 0.929 . S
C1844 C1843 1.383 . S
C1844 C1845 1.377 . S
C1845 H1829 0.930 . S
C1845 C1844 1.377 . S
C1845 C1846 1.379 . S
C1846 H1830 0.931 . S
C1846 C1840 1.383 . S
C1846 C1845 1.379 . S
H1847 C1841 0.959 . S
H1848 C1841 0.961 . S
H1849 C1841 0.960 . S
H1850 C1842 0.930 . S
H1851 C1843 0.929 . S
H1852 C1860 0.929 . S
H1853 C1862 0.930 . S
H1854 C1864 0.930 . S
H1855 C1867 0.929 . S
H1856 C1870 0.930 . S
H1857 C1872 0.960 . S
H1858 C1872 0.960 1_556 S
H1859 C1872 0.960 1_556 S
C1860 H1852 0.929 . S
C1860 C1861 1.377 . S
C1860 C1862 1.384 . S
C1861 C1860 1.377 . S
C1861 C1867 1.390 . S
C1862 H1853 0.930 . S
C1862 C1860 1.384 . S
C1862 C1863 1.372 . S
C1863 C1862 1.372 . S
C1863 C1864 1.400 . S
C1863 C1868 1.490 1_556 S
C1864 H1854 0.930 . S
C1864 C1863 1.400 . S
C1864 C1867 1.386 . S
H1865 C1881 0.930 . S
H1866 C1882 0.931 . S
C1867 H1855 0.929 . S
C1867 C1861 1.390 . S
C1867 C1864 1.386 . S
C1868 C1863 1.490 1_554 S
C1868 C1870 1.395 . S
C1868 C1871 1.403 . S
H1869 C1875 0.930 . S
C1870 H1856 0.930 . S
C1870 C1868 1.395 . S
C1870 C1873 1.403 . S
C1871 C1868 1.403 . S
C1871 C1872 1.524 . S
C1871 C1875 1.400 . S
C1872 H1857 0.960 . S
C1872 H1858 0.960 1_554 S
C1872 H1859 0.960 1_554 S
C1872 C1871 1.524 . S
C1873 C1870 1.403 . S
C1873 C1874 1.392 . S
C1873 C1877 1.495 . S
C1874 C1873 1.392 . S
C1874 C1875 1.385 . S
C1874 C1876 1.478 . S
C1875 H1869 0.930 . S
C1875 C1871 1.400 . S
C1875 C1874 1.385 . S
C1876 C1874 1.478 . S
C1876 C1878 1.381 . S
C1876 C1882 1.383 . S
C1877 C1873 1.495 . S
C1877 H1883 0.959 . S
C1877 H1884 0.961 . S
C1877 H1885 0.960 . S
C1878 C1876 1.381 . S
C1878 C1879 1.394 . S
C1878 H1886 0.930 . S
C1879 C1878 1.394 . S
C1879 C1880 1.383 . S
C1879 H1887 0.929 . S
C1880 C1879 1.383 . S
C1880 C1881 1.377 . S
C1881 H1865 0.930 . S
C1881 C1880 1.377 . S
C1881 C1882 1.379 . S
C1882 H1866 0.931 . S
C1882 C1876 1.383 . S
C1882 C1881 1.379 . S
H1883 C1877 0.959 . S
H1884 C1877 0.961 . S
H1885 C1877 0.960 . S
H1886 C1878 0.930 . S
H1887 C1879 0.929 . S
H1888 C1896 0.941 . S
H1889 C1898 0.930 . S
H1890 C1900 0.930 . S
H1891 C1903 0.929 . S
H1892 C1906 0.930 . S
H1893 C1908 0.960 . S
H1894 C1908 0.960 . S
H1895 C1908 0.960 . S
C1896 H1888 0.941 . S
C1896 C1897 1.363 1_545 S
C1896 C1898 1.388 . S
C1897 C1896 1.363 1_565 S
C1897 C1903 1.390 . S
C1898 H1889 0.930 . S
C1898 C1896 1.388 . S
C1898 C1899 1.372 1_545 S
C1899 C1898 1.372 1_565 S
C1899 C1900 1.400 . S
C1899 C1904 1.498 . S
C1900 H1890 0.930 . S
C1900 C1899 1.400 . S
C1900 C1903 1.386 . S
H1901 C1917 0.912 1_565 S
H1902 C1918 0.931 1_565 S
C1903 H1891 0.929 . S
C1903 C1897 1.390 . S
C1903 C1900 1.386 . S
C1904 C1899 1.498 . S
C1904 C1906 1.344 1_565 S
C1904 C1907 1.446 . S
H1905 C1911 0.930 . S
C1906 H1892 0.930 . S
C1906 C1904 1.344 1_545 S
C1906 C1909 1.403 . S
C1907 C1904 1.446 . S
C1907 C1908 1.524 . S
C1907 C1911 1.400 . S
C1908 H1893 0.960 . S
C1908 H1894 0.960 . S
C1908 H1895 0.960 . S
C1908 C1907 1.524 . S
C1909 C1906 1.403 . S
C1909 C1910 1.392 . S
C1909 C1913 1.495 . S
C1910 C1909 1.392 . S
C1910 C1911 1.385 1_545 S
C1910 C1912 1.478 . S
C1911 H1905 0.930 . S
C1911 C1907 1.400 . S
C1911 C1910 1.385 1_565 S
C1912 C1910 1.478 . S
C1912 C1914 1.381 . S
C1912 C1918 1.383 . S
C1913 C1909 1.495 . S
C1913 H1919 0.959 . S
C1913 H1920 0.961 . S
C1913 H1921 0.960 . S
C1914 C1912 1.381 . S
C1914 C1915 1.394 . S
C1914 H1922 0.930 . S
C1915 C1914 1.394 . S
C1915 C1916 1.383 . S
C1915 H1923 0.929 . S
C1916 C1915 1.383 . S
C1916 C1917 1.377 . S
C1917 H1901 0.912 1_545 S
C1917 C1916 1.377 . S
C1917 C1918 1.379 . S
C1918 H1902 0.931 1_545 S
C1918 C1912 1.383 . S
C1918 C1917 1.379 . S
H1919 C1913 0.959 . S
H1920 C1913 0.961 . S
H1921 C1913 0.960 . S
H1922 C1914 0.930 . S
H1923 C1915 0.929 . S
H1924 C1932 0.929 . S
H1925 C1934 0.930 . S
H1926 C1936 0.930 . S
H1927 C1939 0.929 . S
H1928 C1942 0.930 . S
H1929 C1944 0.960 . S
H1930 C1944 0.960 . S
H1931 C1944 0.960 . S
C1932 H1924 0.929 . S
C1932 C1933 1.377 . S
C1932 C1934 1.384 . S
C1933 C1932 1.377 . S
C1933 C1939 1.390 . S
C1934 H1925 0.930 . S
C1934 C1932 1.384 . S
C1934 C1935 1.372 . S
C1935 C1934 1.372 . S
C1935 C1936 1.400 . S
C1935 C1940 1.490 . S
C1936 H1926 0.930 . S
C1936 C1935 1.400 . S
C1936 C1939 1.386 . S
H1937 C1953 0.930 . S
H1938 C1954 0.931 . S
C1939 H1927 0.929 . S
C1939 C1933 1.390 . S
C1939 C1936 1.386 . S
C1940 C1935 1.490 . S
C1940 C1942 1.395 . S
C1940 C1943 1.403 . S
H1941 C1947 0.930 . S
C1942 H1928 0.930 . S
C1942 C1940 1.395 . S
C1942 C1945 1.403 . S
C1943 C1940 1.403 . S
C1943 C1944 1.524 . S
C1943 C1947 1.400 . S
C1944 H1929 0.960 . S
C1944 H1930 0.960 . S
C1944 H1931 0.960 . S
C1944 C1943 1.524 . S
C1945 C1942 1.403 . S
C1945 C1946 1.392 . S
C1945 C1949 1.495 . S
C1946 C1945 1.392 . S
C1946 C1947 1.385 . S
C1946 C1948 1.478 1_554 S
C1947 H1941 0.930 . S
C1947 C1943 1.400 . S
C1947 C1946 1.385 . S
C1948 C1946 1.478 1_556 S
C1948 C1950 1.381 . S
C1948 C1954 1.383 . S
C1949 C1945 1.495 . S
C1949 H1955 0.959 . S
C1949 H1956 0.961 1_554 S
C1949 H1957 0.960 1_554 S
C1950 C1948 1.381 . S
C1950 C1951 1.394 . S
C1950 H1958 0.930 . S
C1951 C1950 1.394 . S
C1951 C1952 1.383 . S
C1951 H1959 0.929 . S
C1952 C1951 1.383 . S
C1952 C1953 1.377 . S
C1953 H1937 0.930 . S
C1953 C1952 1.377 . S
C1953 C1954 1.379 . S
C1954 H1938 0.931 . S
C1954 C1948 1.383 . S
C1954 C1953 1.379 . S
H1955 C1949 0.959 . S
H1956 C1949 0.961 1_556 S
H1957 C1949 0.960 1_556 S
H1958 C1950 0.930 . S
H1959 C1951 0.929 . S
H1960 C1968 0.929 . S
H1961 C1970 0.930 . S
H1962 C1972 0.930 . S
H1963 C1975 0.929 . S
H1964 C1978 0.930 . S
H1965 C1980 0.960 . S
H1966 C1980 0.960 . S
H1967 C1980 0.960 . S
C1968 H1960 0.929 . S
C1968 C1969 1.377 1_545 S
C1968 C1970 1.384 . S
C1969 C1968 1.377 1_565 S
C1969 C1975 1.390 . S
C1970 H1961 0.930 . S
C1970 C1968 1.384 . S
C1970 C1971 1.372 1_545 S
C1971 C1970 1.372 1_565 S
C1971 C1972 1.400 . S
C1971 C1976 1.493 . S
C1972 H1962 0.930 . S
C1972 C1971 1.400 . S
C1972 C1975 1.386 . S
H1973 C1989 0.930 . S
H1974 C1990 0.931 . S
C1975 H1963 0.929 . S
C1975 C1969 1.390 . S
C1975 C1972 1.386 . S
C1976 C1971 1.493 . S
C1976 C1978 1.379 1_565 S
C1976 C1979 1.415 . S
H1977 C1983 0.930 . S
C1978 H1964 0.930 . S
C1978 C1976 1.379 1_545 S
C1978 C1981 1.403 . S
C1979 C1976 1.415 . S
C1979 C1980 1.524 . S
C1979 C1983 1.400 . S
C1980 H1965 0.960 . S
C1980 H1966 0.960 . S
C1980 H1967 0.960 . S
C1980 C1979 1.524 . S
C1981 C1978 1.403 . S
C1981 C1982 1.392 . S
C1981 C1985 1.495 . S
C1982 C1981 1.392 . S
C1982 C1983 1.385 1_545 S
C1982 C1984 1.478 . S
C1983 H1977 0.930 . S
C1983 C1979 1.400 . S
C1983 C1982 1.385 1_565 S
C1984 C1982 1.478 . S
C1984 C1986 1.381 . S
C1984 C1990 1.383 1_545 S
C1985 C1981 1.495 . S
C1985 H1991 0.959 . S
C1985 H1992 0.961 . S
C1985 H1993 0.960 . S
C1986 C1984 1.381 . S
C1986 C1987 1.394 . S
C1986 H1994 0.930 . S
C1987 C1986 1.394 . S
C1987 C1988 1.383 . S
C1987 H1995 0.929 . S
C1988 C1987 1.383 . S
C1988 C1989 1.377 1_545 S
C1989 H1973 0.930 . S
C1989 C1988 1.377 1_565 S
C1989 C1990 1.379 . S
C1990 H1974 0.931 . S
C1990 C1984 1.383 1_565 S
C1990 C1989 1.379 . S
H1991 C1985 0.959 . S
H1992 C1985 0.961 . S
H1993 C1985 0.960 . S
H1994 C1986 0.930 . S
H1995 C1987 0.929 . S
H1996 C2004 0.929 . S
H1997 C2006 0.930 . S
H1998 C2008 0.930 . S
H1999 C2011 0.929 . S
H2000 C2014 0.930 . S
H2001 C2016 0.960 . S
H2002 C2016 0.960 . S
H2003 C2016 0.960 . S
C2004 H1996 0.929 . S
C2004 C2005 1.377 . S
C2004 C2006 1.384 . S
C2005 C2004 1.377 . S
C2005 C2011 1.390 . S
C2006 H1997 0.930 . S
C2006 C2004 1.384 . S
C2006 C2007 1.372 . S
C2007 C2006 1.372 . S
C2007 C2008 1.400 . S
C2007 C2012 1.490 . S
C2008 H1998 0.930 . S
C2008 C2007 1.400 . S
C2008 C2011 1.386 . S
H2009 C2025 0.930 . S
H2010 C2026 0.931 . S
C2011 H1999 0.929 . S
C2011 C2005 1.390 . S
C2011 C2008 1.386 . S
C2012 C2007 1.490 . S
C2012 C2014 1.395 . S
C2012 C2015 1.403 . S
H2013 C2019 0.930 . S
C2014 H2000 0.930 . S
C2014 C2012 1.395 . S
C2014 C2017 1.403 . S
C2015 C2012 1.403 . S
C2015 C2016 1.524 . S
C2015 C2019 1.400 . S
C2016 H2001 0.960 . S
C2016 H2002 0.960 . S
C2016 H2003 0.960 . S
C2016 C2015 1.524 . S
C2017 C2014 1.403 . S
C2017 C2018 1.392 . S
C2017 C2021 1.495 . S
C2018 C2017 1.392 . S
C2018 C2019 1.385 . S
C2018 C2020 1.478 . S
C2019 H2013 0.930 . S
C2019 C2015 1.400 . S
C2019 C2018 1.385 . S
C2020 C2018 1.478 . S
C2020 C2022 1.381 . S
C2020 C2026 1.383 . S
C2021 C2017 1.495 . S
C2021 H2027 0.959 . S
C2021 H2028 0.961 . S
C2021 H2029 0.960 . S
C2022 C2020 1.381 . S
C2022 C2023 1.394 . S
C2022 H2030 0.930 . S
C2023 C2022 1.394 . S
C2023 C2024 1.383 . S
C2023 H2031 0.929 . S
C2024 C2023 1.383 . S
C2024 C2025 1.377 . S
C2025 H2009 0.930 . S
C2025 C2024 1.377 . S
C2025 C2026 1.379 . S
C2026 H2010 0.931 . S
C2026 C2020 1.383 . S
C2026 C2025 1.379 . S
H2027 C2021 0.959 . S
H2028 C2021 0.961 . S
H2029 C2021 0.960 . S
H2030 C2022 0.930 . S
H2031 C2023 0.929 . S
H2032 C2040 0.918 1_545 S
H2033 C2042 0.931 . S
H2034 C2044 0.930 . S
H2035 C2047 0.929 . S
H2036 C2050 0.930 . S
H2037 C2052 0.960 . S
H2038 C2052 0.960 . S
H2039 C2052 0.960 . S
C2040 H2032 0.918 1_565 S
C2040 C2041 1.377 . S
C2040 C2042 1.384 1_565 S
C2041 C2040 1.377 . S
C2041 C2047 1.390 . S
C2042 H2033 0.931 . S
C2042 C2040 1.384 1_545 S
C2042 C2043 1.371 1_545 S
C2043 C2042 1.371 1_565 S
C2043 C2044 1.400 . S
C2043 C2048 1.490 . S
C2044 H2034 0.930 . S
C2044 C2043 1.400 . S
C2044 C2047 1.386 . S
H2045 C2061 0.952 . S
H2046 C2062 0.931 . S
C2047 H2035 0.929 . S
C2047 C2041 1.390 . S
C2047 C2044 1.386 . S
C2048 C2043 1.490 . S
C2048 C2050 1.395 . S
C2048 C2051 1.403 1_565 S
H2049 C2055 0.930 . S
C2050 H2036 0.930 . S
C2050 C2048 1.395 . S
C2050 C2053 1.403 . S
C2051 C2048 1.403 1_545 S
C2051 C2052 1.524 . S
C2051 C2055 1.400 . S
C2052 H2037 0.960 . S
C2052 H2038 0.960 . S
C2052 H2039 0.960 . S
C2052 C2051 1.524 . S
C2053 C2050 1.403 . S
C2053 C2054 1.400 . S
C2053 C2057 1.495 . S
C2054 C2053 1.400 . S
C2054 C2055 1.378 1_565 S
C2054 C2056 1.473 1_565 S
C2055 H2049 0.930 . S
C2055 C2051 1.400 . S
C2055 C2054 1.378 1_545 S
C2056 C2054 1.473 1_545 S
C2056 C2058 1.415 . S
C2056 C2062 1.364 1_545 S
C2057 C2053 1.495 . S
C2057 H2063 0.959 . S
C2057 H2064 0.961 . S
C2057 H2065 0.960 . S
C2058 C2056 1.415 . S
C2058 C2059 1.394 . S
C2058 H2066 0.930 . S
C2059 C2058 1.394 . S
C2059 C2060 1.383 . S
C2059 H2067 0.929 . S
C2060 C2059 1.383 . S
C2060 C2061 1.349 1_545 S
C2061 H2045 0.952 . S
C2061 C2060 1.349 1_565 S
C2061 C2062 1.392 . S
C2062 H2046 0.931 . S
C2062 C2056 1.364 1_565 S
C2062 C2061 1.392 . S
H2063 C2057 0.959 . S
H2064 C2057 0.961 . S
H2065 C2057 0.960 . S
H2066 C2058 0.930 . S
H2067 C2059 0.929 . S
H2068 C2076 0.929 . S
H2069 C2078 0.930 . S
H2070 C2080 0.930 . S
H2071 C2083 0.929 . S
H2072 C2086 0.930 . S
H2073 C2088 0.960 . S
H2074 C2088 0.960 . S
H2075 C2088 0.960 . S
C2076 H2068 0.929 . S
C2076 C2077 1.377 . S
C2076 C2078 1.384 . S
C2077 C2076 1.377 . S
C2077 C2083 1.390 . S
C2078 H2069 0.930 . S
C2078 C2076 1.384 . S
C2078 C2079 1.372 . S
C2079 C2078 1.372 . S
C2079 C2080 1.400 . S
C2079 C2084 1.490 . S
C2080 H2070 0.930 . S
C2080 C2079 1.400 . S
C2080 C2083 1.386 . S
H2081 C2097 0.930 . S
H2082 C2098 0.931 . S
C2083 H2071 0.929 . S
C2083 C2077 1.390 . S
C2083 C2080 1.386 . S
C2084 C2079 1.490 . S
C2084 C2086 1.395 . S
C2084 C2087 1.403 . S
H2085 C2091 0.930 . S
C2086 H2072 0.930 . S
C2086 C2084 1.395 . S
C2086 C2089 1.403 . S
C2087 C2084 1.403 . S
C2087 C2088 1.524 . S
C2087 C2091 1.400 . S
C2088 H2073 0.960 . S
C2088 H2074 0.960 . S
C2088 H2075 0.960 . S
C2088 C2087 1.524 . S
C2089 C2086 1.403 . S
C2089 C2090 1.392 . S
C2089 C2093 1.495 . S
C2090 C2089 1.392 . S
C2090 C2091 1.385 . S
C2090 C2092 1.478 1_554 S
C2091 H2085 0.930 . S
C2091 C2087 1.400 . S
C2091 C2090 1.385 . S
C2092 C2090 1.478 1_556 S
C2092 C2094 1.381 . S
C2092 C2098 1.383 . S
C2093 C2089 1.495 . S
C2093 H2099 0.959 . S
C2093 H2100 0.961 1_554 S
C2093 H2101 0.960 1_554 S
C2094 C2092 1.381 . S
C2094 C2095 1.394 . S
C2094 H2102 0.930 . S
C2095 C2094 1.394 . S
C2095 C2096 1.383 . S
C2095 H2103 0.929 . S
C2096 C2095 1.383 . S
C2096 C2097 1.377 . S
C2097 H2081 0.930 . S
C2097 C2096 1.377 . S
C2097 C2098 1.379 . S
C2098 H2082 0.931 . S
C2098 C2092 1.383 . S
C2098 C2097 1.379 . S
H2099 C2093 0.959 . S
H2100 C2093 0.961 1_556 S
H2101 C2093 0.960 1_556 S
H2102 C2094 0.930 . S
H2103 C2095 0.929 . S
H2104 C2112 0.929 . S
H2105 C2114 0.930 . S
H2106 C2116 0.930 . S
H2107 C2119 0.929 . S
H2108 C2122 0.930 . S
H2109 C2124 0.960 . S
H2110 C2124 0.960 . S
H2111 C2124 0.960 . S
C2112 H2104 0.929 . S
C2112 C2113 1.377 . S
C2112 C2114 1.384 . S
C2113 C2112 1.377 . S
C2113 C2119 1.390 1_565 S
C2114 H2105 0.930 . S
C2114 C2112 1.384 . S
C2114 C2115 1.372 . S
C2115 C2114 1.372 . S
C2115 C2116 1.400 1_565 S
C2115 C2120 1.490 . S
C2116 H2106 0.930 . S
C2116 C2115 1.400 1_545 S
C2116 C2119 1.386 . S
H2117 C2133 0.930 . S
H2118 C2134 0.931 . S
C2119 H2107 0.929 . S
C2119 C2113 1.390 1_545 S
C2119 C2116 1.386 . S
C2120 C2115 1.490 . S
C2120 C2122 1.395 . S
C2120 C2123 1.403 1_565 S
H2121 C2127 0.930 . S
C2122 H2108 0.930 . S
C2122 C2120 1.395 . S
C2122 C2125 1.403 . S
C2123 C2120 1.403 1_545 S
C2123 C2124 1.524 . S
C2123 C2127 1.400 . S
C2124 H2109 0.960 . S
C2124 H2110 0.960 . S
C2124 H2111 0.960 . S
C2124 C2123 1.524 . S
C2125 C2122 1.403 . S
C2125 C2126 1.392 . S
C2125 C2129 1.495 . S
C2126 C2125 1.392 . S
C2126 C2127 1.385 1_565 S
C2126 C2128 1.478 1_565 S
C2127 H2121 0.930 . S
C2127 C2123 1.400 . S
C2127 C2126 1.385 1_545 S
C2128 C2126 1.478 1_545 S
C2128 C2130 1.382 1_545 S
C2128 C2134 1.381 . S
C2129 C2125 1.495 . S
C2129 H2135 0.959 . S
C2129 H2136 0.961 . S
C2129 H2137 0.960 . S
C2130 C2128 1.382 1_565 S
C2130 C2131 1.394 . S
C2130 H2138 0.930 . S
C2131 C2130 1.394 . S
C2131 C2132 1.383 1_565 S
C2131 H2139 0.929 . S
C2132 C2131 1.383 1_545 S
C2132 C2133 1.377 . S
C2133 H2117 0.930 . S
C2133 C2132 1.377 . S
C2133 C2134 1.379 . S
C2134 H2118 0.931 . S
C2134 C2128 1.381 . S
C2134 C2133 1.379 . S
H2135 C2129 0.959 . S
H2136 C2129 0.961 . S
H2137 C2129 0.960 . S
H2138 C2130 0.930 . S
H2139 C2131 0.929 . S
H2140 C2148 0.929 . S
H2141 C2150 0.930 . S
H2142 C2152 0.930 . S
H2143 C2155 0.929 . S
H2144 C2158 0.930 . S
H2145 C2160 0.960 . S
H2146 C2160 0.960 . S
H2147 C2160 0.960 . S
C2148 H2140 0.929 . S
C2148 C2149 1.377 . S
C2148 C2150 1.384 . S
C2149 C2148 1.377 . S
C2149 C2155 1.390 . S
C2150 H2141 0.930 . S
C2150 C2148 1.384 . S
C2150 C2151 1.372 . S
C2151 C2150 1.372 . S
C2151 C2152 1.400 . S
C2151 C2156 1.490 . S
C2152 H2142 0.930 . S
C2152 C2151 1.400 . S
C2152 C2155 1.386 . S
H2153 C2169 0.930 . S
H2154 C2170 0.931 . S
C2155 H2143 0.929 . S
C2155 C2149 1.390 . S
C2155 C2152 1.386 . S
C2156 C2151 1.490 . S
C2156 C2158 1.395 . S
C2156 C2159 1.403 . S
H2157 C2163 0.930 . S
C2158 H2144 0.930 . S
C2158 C2156 1.395 . S
C2158 C2161 1.403 . S
C2159 C2156 1.403 . S
C2159 C2160 1.524 . S
C2159 C2163 1.400 . S
C2160 H2145 0.960 . S
C2160 H2146 0.960 . S
C2160 H2147 0.960 . S
C2160 C2159 1.524 . S
C2161 C2158 1.403 . S
C2161 C2162 1.392 . S
C2161 C2165 1.495 . S
C2162 C2161 1.392 . S
C2162 C2163 1.385 . S
C2162 C2164 1.478 . S
C2163 H2157 0.930 . S
C2163 C2159 1.400 . S
C2163 C2162 1.385 . S
C2164 C2162 1.478 . S
C2164 C2166 1.381 . S
C2164 C2170 1.383 . S
C2165 C2161 1.495 . S
C2165 H2171 0.959 . S
C2165 H2172 0.961 . S
C2165 H2173 0.960 . S
C2166 C2164 1.381 . S
C2166 C2167 1.394 . S
C2166 H2174 0.930 . S
C2167 C2166 1.394 . S
C2167 C2168 1.383 . S
C2167 H2175 0.929 . S
C2168 C2167 1.383 . S
C2168 C2169 1.377 . S
C2169 H2153 0.930 . S
C2169 C2168 1.377 . S
C2169 C2170 1.379 . S
C2170 H2154 0.931 . S
C2170 C2164 1.383 . S
C2170 C2169 1.379 . S
H2171 C2165 0.959 . S
H2172 C2165 0.961 . S
H2173 C2165 0.960 . S
H2174 C2166 0.930 . S
H2175 C2167 0.929 . S
H2176 C2184 0.929 . S
H2177 C2186 0.930 . S
H2178 C2188 0.930 . S
H2179 C2191 0.929 . S
H2180 C2194 0.930 . S
H2181 C2196 0.960 . S
H2182 C2196 0.960 . S
H2183 C2196 0.960 . S
C2184 H2176 0.929 . S
C2184 C2185 1.377 . S
C2184 C2186 1.384 . S
C2185 C2184 1.377 . S
C2185 C2191 1.390 . S
C2186 H2177 0.930 . S
C2186 C2184 1.384 . S
C2186 C2187 1.372 . S
C2187 C2186 1.372 . S
C2187 C2188 1.400 . S
C2187 C2192 1.490 . S
C2188 H2178 0.930 . S
C2188 C2187 1.400 . S
C2188 C2191 1.386 . S
H2189 C2205 0.930 . S
H2190 C2206 0.931 . S
C2191 H2179 0.929 . S
C2191 C2185 1.390 . S
C2191 C2188 1.386 . S
C2192 C2187 1.490 . S
C2192 C2194 1.395 . S
C2192 C2195 1.403 . S
H2193 C2199 0.930 . S
C2194 H2180 0.930 . S
C2194 C2192 1.395 . S
C2194 C2197 1.403 . S
C2195 C2192 1.403 . S
C2195 C2196 1.524 . S
C2195 C2199 1.400 . S
C2196 H2181 0.960 . S
C2196 H2182 0.960 . S
C2196 H2183 0.960 . S
C2196 C2195 1.524 . S
C2197 C2194 1.403 . S
C2197 C2198 1.392 . S
C2197 C2201 1.495 . S
C2198 C2197 1.392 . S
C2198 C2199 1.385 . S
C2198 C2200 1.478 . S
C2199 H2193 0.930 . S
C2199 C2195 1.400 . S
C2199 C2198 1.385 . S
C2200 C2198 1.478 . S
C2200 C2202 1.381 . S
C2200 C2206 1.383 . S
C2201 C2197 1.495 . S
C2201 H2207 0.959 . S
C2201 H2208 0.961 . S
C2201 H2209 0.960 . S
C2202 C2200 1.381 . S
C2202 C2203 1.394 . S
C2202 H2210 0.930 . S
C2203 C2202 1.394 . S
C2203 C2204 1.383 . S
C2203 H2211 0.929 . S
C2204 C2203 1.383 . S
C2204 C2205 1.377 . S
C2205 H2189 0.930 . S
C2205 C2204 1.377 . S
C2205 C2206 1.379 . S
C2206 H2190 0.931 . S
C2206 C2200 1.383 . S
C2206 C2205 1.379 . S
H2207 C2201 0.959 . S
H2208 C2201 0.961 . S
H2209 C2201 0.960 . S
H2210 C2202 0.930 . S
H2211 C2203 0.929 . S
H2212 C2220 0.929 . S
H2213 C2222 0.930 . S
H2214 C2224 0.930 . S
H2215 C2227 0.929 . S
H2216 C2230 0.930 . S
H2217 C2232 0.960 . S
H2218 C2232 0.960 . S
H2219 C2232 0.960 . S
C2220 H2212 0.929 . S
C2220 C2221 1.377 . S
C2220 C2222 1.384 . S
C2221 C2220 1.377 . S
C2221 C2227 1.390 . S
C2222 H2213 0.930 . S
C2222 C2220 1.384 . S
C2222 C2223 1.372 . S
C2223 C2222 1.372 . S
C2223 C2224 1.400 . S
C2223 C2228 1.490 . S
C2224 H2214 0.930 . S
C2224 C2223 1.400 . S
C2224 C2227 1.386 . S
H2225 C2241 0.930 . S
H2226 C2242 0.931 . S
C2227 H2215 0.929 . S
C2227 C2221 1.390 . S
C2227 C2224 1.386 . S
C2228 C2223 1.490 . S
C2228 C2230 1.395 . S
C2228 C2231 1.403 . S
H2229 C2235 0.930 . S
C2230 H2216 0.930 . S
C2230 C2228 1.395 . S
C2230 C2233 1.403 . S
C2231 C2228 1.403 . S
C2231 C2232 1.524 . S
C2231 C2235 1.400 . S
C2232 H2217 0.960 . S
C2232 H2218 0.960 . S
C2232 H2219 0.960 . S
C2232 C2231 1.524 . S
C2233 C2230 1.403 . S
C2233 C2234 1.392 . S
C2233 C2237 1.495 . S
C2234 C2233 1.392 . S
C2234 C2235 1.385 . S
C2234 C2236 1.478 . S
C2235 H2229 0.930 . S
C2235 C2231 1.400 . S
C2235 C2234 1.385 . S
C2236 C2234 1.478 . S
C2236 C2238 1.381 . S
C2236 C2242 1.383 . S
C2237 C2233 1.495 . S
C2237 H2243 0.959 . S
C2237 H2244 0.961 . S
C2237 H2245 0.960 . S
C2238 C2236 1.381 . S
C2238 C2239 1.394 . S
C2238 H2246 0.930 . S
C2239 C2238 1.394 . S
C2239 C2240 1.383 . S
C2239 H2247 0.929 . S
C2240 C2239 1.383 . S
C2240 C2241 1.377 . S
C2241 H2225 0.930 . S
C2241 C2240 1.377 . S
C2241 C2242 1.379 . S
C2242 H2226 0.931 . S
C2242 C2236 1.383 . S
C2242 C2241 1.379 . S
H2243 C2237 0.959 . S
H2244 C2237 0.961 . S
H2245 C2237 0.960 . S
H2246 C2238 0.930 . S
H2247 C2239 0.929 . S
H2248 C2256 0.929 . S
H2249 C2258 0.930 . S
H2250 C2260 0.930 . S
H2251 C2263 0.929 . S
H2252 C2266 0.930 . S
H2253 C2268 0.960 . S
H2254 C2268 0.960 . S
H2255 C2268 0.960 . S
C2256 H2248 0.929 . S
C2256 C2257 1.377 . S
C2256 C2258 1.384 . S
C2257 C2256 1.377 . S
C2257 C2263 1.390 . S
C2258 H2249 0.930 . S
C2258 C2256 1.384 . S
C2258 C2259 1.372 . S
C2259 C2258 1.372 . S
C2259 C2260 1.400 . S
C2259 C2264 1.490 . S
C2260 H2250 0.930 . S
C2260 C2259 1.400 . S
C2260 C2263 1.386 . S
H2261 C2277 0.930 . S
H2262 C2278 0.931 . S
C2263 H2251 0.929 . S
C2263 C2257 1.390 . S
C2263 C2260 1.386 . S
C2264 C2259 1.490 . S
C2264 C2266 1.395 . S
C2264 C2267 1.403 . S
H2265 C2271 0.930 . S
C2266 H2252 0.930 . S
C2266 C2264 1.395 . S
C2266 C2269 1.403 . S
C2267 C2264 1.403 . S
C2267 C2268 1.524 . S
C2267 C2271 1.400 . S
C2268 H2253 0.960 . S
C2268 H2254 0.960 . S
C2268 H2255 0.960 . S
C2268 C2267 1.524 . S
C2269 C2266 1.403 . S
C2269 C2270 1.392 . S
C2269 C2273 1.495 . S
C2270 C2269 1.392 . S
C2270 C2271 1.385 . S
C2270 C2272 1.478 . S
C2271 H2265 0.930 . S
C2271 C2267 1.400 . S
C2271 C2270 1.385 . S
C2272 C2270 1.478 . S
C2272 C2274 1.381 . S
C2272 C2278 1.383 . S
C2273 C2269 1.495 . S
C2273 H2279 0.959 . S
C2273 H2280 0.961 . S
C2273 H2281 0.960 . S
C2274 C2272 1.381 . S
C2274 C2275 1.394 . S
C2274 H2282 0.930 . S
C2275 C2274 1.394 . S
C2275 C2276 1.383 . S
C2275 H2283 0.929 . S
C2276 C2275 1.383 . S
C2276 C2277 1.377 . S
C2277 H2261 0.930 . S
C2277 C2276 1.377 . S
C2277 C2278 1.379 . S
C2278 H2262 0.931 . S
C2278 C2272 1.383 . S
C2278 C2277 1.379 . S
H2279 C2273 0.959 . S
H2280 C2273 0.961 . S
H2281 C2273 0.960 . S
H2282 C2274 0.930 . S
H2283 C2275 0.929 . S
H2284 C2292 0.929 . S
H2285 C2294 0.930 . S
H2286 C2296 0.930 . S
H2287 C2299 0.929 . S
H2288 C2302 0.930 . S
H2289 C2304 0.960 . S
H2290 C2304 0.960 . S
H2291 C2304 0.960 . S
C2292 H2284 0.929 . S
C2292 C2293 1.377 . S
C2292 C2294 1.384 . S
C2293 C2292 1.377 . S
C2293 C2299 1.390 . S
C2294 H2285 0.930 . S
C2294 C2292 1.384 . S
C2294 C2295 1.372 . S
C2295 C2294 1.372 . S
C2295 C2296 1.400 . S
C2295 C2300 1.490 . S
C2296 H2286 0.930 . S
C2296 C2295 1.400 . S
C2296 C2299 1.386 . S
H2297 C2313 0.930 . S
H2298 C2314 0.931 . S
C2299 H2287 0.929 . S
C2299 C2293 1.390 . S
C2299 C2296 1.386 . S
C2300 C2295 1.490 . S
C2300 C2302 1.395 . S
C2300 C2303 1.403 . S
H2301 C2307 0.930 . S
C2302 H2288 0.930 . S
C2302 C2300 1.395 . S
C2302 C2305 1.403 . S
C2303 C2300 1.403 . S
C2303 C2304 1.524 . S
C2303 C2307 1.400 . S
C2304 H2289 0.960 . S
C2304 H2290 0.960 . S
C2304 H2291 0.960 . S
C2304 C2303 1.524 . S
C2305 C2302 1.403 . S
C2305 C2306 1.392 . S
C2305 C2309 1.495 . S
C2306 C2305 1.392 . S
C2306 C2307 1.385 . S
C2306 C2308 1.478 . S
C2307 H2301 0.930 . S
C2307 C2303 1.400 . S
C2307 C2306 1.385 . S
C2308 C2306 1.478 . S
C2308 C2310 1.381 . S
C2308 C2314 1.383 . S
C2309 C2305 1.495 . S
C2309 H2315 0.959 . S
C2309 H2316 0.961 . S
C2309 H2317 0.960 . S
C2310 C2308 1.381 . S
C2310 C2311 1.394 . S
C2310 H2318 0.930 . S
C2311 C2310 1.394 . S
C2311 C2312 1.385 . S
C2311 H2319 0.929 1_556 S
C2312 C2311 1.385 . S
C2312 C2313 1.383 . S
C2313 H2297 0.930 . S
C2313 C2312 1.383 . S
C2313 C2314 1.379 . S
C2314 H2298 0.931 . S
C2314 C2308 1.383 . S
C2314 C2313 1.379 . S
H2315 C2309 0.959 . S
H2316 C2309 0.961 . S
H2317 C2309 0.960 . S
H2318 C2310 0.930 . S
H2319 C2311 0.929 1_554 S
H2320 C2328 0.929 . S
H2321 C2330 0.930 . S
H2322 C2332 0.930 . S
H2323 C2335 0.929 . S
H2324 C2338 0.930 . S
H2325 C2340 0.960 . S
H2326 C2340 0.960 . S
H2327 C2340 0.960 . S
C2328 H2320 0.929 . S
C2328 C2329 1.377 . S
C2328 C2330 1.384 . S
C2329 C2328 1.377 . S
C2329 C2335 1.390 . S
C2330 H2321 0.930 . S
C2330 C2328 1.384 . S
C2330 C2331 1.372 . S
C2331 C2330 1.372 . S
C2331 C2332 1.400 . S
C2331 C2336 1.490 . S
C2332 H2322 0.930 . S
C2332 C2331 1.400 . S
C2332 C2335 1.386 . S
H2333 C2349 0.930 . S
H2334 C2350 0.931 . S
C2335 H2323 0.929 . S
C2335 C2329 1.390 . S
C2335 C2332 1.386 . S
C2336 C2331 1.490 . S
C2336 C2338 1.395 . S
C2336 C2339 1.403 . S
H2337 C2343 0.930 . S
C2338 H2324 0.930 . S
C2338 C2336 1.395 . S
C2338 C2341 1.403 . S
C2339 C2336 1.403 . S
C2339 C2340 1.524 . S
C2339 C2343 1.400 . S
C2340 H2325 0.960 . S
C2340 H2326 0.960 . S
C2340 H2327 0.960 . S
C2340 C2339 1.524 . S
C2341 C2338 1.403 . S
C2341 C2342 1.392 . S
C2341 C2345 1.495 . S
C2342 C2341 1.392 . S
C2342 C2343 1.385 . S
C2342 C2344 1.478 . S
C2343 H2337 0.930 . S
C2343 C2339 1.400 . S
C2343 C2342 1.385 . S
C2344 C2342 1.478 . S
C2344 C2346 1.381 . S
C2344 C2350 1.383 . S
C2345 C2341 1.495 . S
C2345 H2351 0.959 . S
C2345 H2352 0.961 . S
C2345 H2353 0.960 . S
C2346 C2344 1.381 . S
C2346 C2347 1.394 . S
C2346 H2354 0.930 . S
C2347 C2346 1.394 . S
C2347 C2348 1.383 . S
C2347 H2355 0.929 . S
C2348 C2347 1.383 . S
C2348 C2349 1.377 . S
C2349 H2333 0.930 . S
C2349 C2348 1.377 . S
C2349 C2350 1.379 . S
C2350 H2334 0.931 . S
C2350 C2344 1.383 . S
C2350 C2349 1.379 . S
H2351 C2345 0.959 . S
H2352 C2345 0.961 . S
H2353 C2345 0.960 . S
H2354 C2346 0.930 . S
H2355 C2347 0.929 . S
H2356 C2364 0.929 . S
H2357 C2366 0.930 . S
H2358 C2368 0.930 . S
H2359 C2371 0.929 . S
H2360 C2374 0.930 . S
H2361 C2376 0.960 . S
H2362 C2376 0.960 . S
H2363 C2376 0.960 . S
C2364 H2356 0.929 . S
C2364 C2365 1.377 . S
C2364 C2366 1.384 . S
C2365 C2364 1.377 . S
C2365 C2371 1.390 . S
C2366 H2357 0.930 . S
C2366 C2364 1.384 . S
C2366 C2367 1.372 . S
C2367 C2366 1.372 . S
C2367 C2368 1.400 . S
C2367 C2372 1.490 . S
C2368 H2358 0.930 . S
C2368 C2367 1.400 . S
C2368 C2371 1.386 . S
H2369 C2385 0.930 . S
H2370 C2386 0.931 . S
C2371 H2359 0.929 . S
C2371 C2365 1.390 . S
C2371 C2368 1.386 . S
C2372 C2367 1.490 . S
C2372 C2374 1.395 . S
C2372 C2375 1.403 . S
H2373 C2379 0.930 . S
C2374 H2360 0.930 . S
C2374 C2372 1.395 . S
C2374 C2377 1.403 . S
C2375 C2372 1.403 . S
C2375 C2376 1.524 . S
C2375 C2379 1.400 . S
C2376 H2361 0.960 . S
C2376 H2362 0.960 . S
C2376 H2363 0.960 . S
C2376 C2375 1.524 . S
C2377 C2374 1.403 . S
C2377 C2378 1.392 . S
C2377 C2381 1.495 . S
C2378 C2377 1.392 . S
C2378 C2379 1.385 . S
C2378 C2380 1.478 . S
C2379 H2373 0.930 . S
C2379 C2375 1.400 . S
C2379 C2378 1.385 . S
C2380 C2378 1.478 . S
C2380 C2382 1.381 . S
C2380 C2386 1.383 . S
C2381 C2377 1.495 . S
C2381 H2387 0.959 . S
C2381 H2388 0.961 . S
C2381 H2389 0.960 . S
C2382 C2380 1.381 . S
C2382 C2383 1.394 . S
C2382 H2390 0.930 . S
C2383 C2382 1.394 . S
C2383 C2384 1.383 . S
C2383 H2391 0.929 . S
C2384 C2383 1.383 . S
C2384 C2385 1.377 . S
C2385 H2369 0.930 . S
C2385 C2384 1.377 . S
C2385 C2386 1.379 . S
C2386 H2370 0.931 . S
C2386 C2380 1.383 . S
C2386 C2385 1.379 . S
H2387 C2381 0.959 . S
H2388 C2381 0.961 . S
H2389 C2381 0.960 . S
H2390 C2382 0.930 . S
H2391 C2383 0.929 . S
H2392 C2400 0.929 . S
H2393 C2402 0.930 . S
H2394 C2404 0.930 . S
H2395 C2407 0.929 . S
H2396 C2410 0.930 . S
H2397 C2412 0.960 . S
H2398 C2412 0.960 . S
H2399 C2412 0.960 . S
C2400 H2392 0.929 . S
C2400 C2401 1.377 . S
C2400 C2402 1.384 . S
C2401 C2400 1.377 . S
C2401 C2407 1.390 . S
C2402 H2393 0.930 . S
C2402 C2400 1.384 . S
C2402 C2403 1.372 . S
C2403 C2402 1.372 . S
C2403 C2404 1.400 . S
C2403 C2408 1.490 . S
C2404 H2394 0.930 . S
C2404 C2403 1.400 . S
C2404 C2407 1.386 . S
H2405 C2421 0.930 . S
H2406 C2422 0.931 . S
C2407 H2395 0.929 . S
C2407 C2401 1.390 . S
C2407 C2404 1.386 . S
C2408 C2403 1.490 . S
C2408 C2410 1.395 . S
C2408 C2411 1.403 . S
H2409 C2415 0.930 . S
C2410 H2396 0.930 . S
C2410 C2408 1.395 . S
C2410 C2413 1.403 . S
C2411 C2408 1.403 . S
C2411 C2412 1.524 . S
C2411 C2415 1.400 . S
C2412 H2397 0.960 . S
C2412 H2398 0.960 . S
C2412 H2399 0.960 . S
C2412 C2411 1.524 . S
C2413 C2410 1.403 . S
C2413 C2414 1.392 . S
C2413 C2417 1.495 . S
C2414 C2413 1.392 . S
C2414 C2415 1.385 . S
C2414 C2416 1.478 . S
C2415 H2409 0.930 . S
C2415 C2411 1.400 . S
C2415 C2414 1.385 . S
C2416 C2414 1.478 . S
C2416 C2418 1.381 . S
C2416 C2422 1.383 . S
C2417 C2413 1.495 . S
C2417 H2423 0.959 . S
C2417 H2424 0.961 . S
C2417 H2425 0.960 . S
C2418 C2416 1.381 . S
C2418 C2419 1.394 1_556 S
C2418 H2426 0.931 . S
C2419 C2418 1.394 1_554 S
C2419 C2420 1.388 . S
C2419 H2427 0.929 . S
C2420 C2419 1.388 . S
C2420 C2421 1.364 1_554 S
C2421 H2405 0.930 . S
C2421 C2420 1.364 1_556 S
C2421 C2422 1.379 . S
C2422 H2406 0.931 . S
C2422 C2416 1.383 . S
C2422 C2421 1.379 . S
H2423 C2417 0.959 . S
H2424 C2417 0.961 . S
H2425 C2417 0.960 . S
H2426 C2418 0.931 . S
H2427 C2419 0.929 . S
H2428 C2436 0.929 . S
H2429 C2438 0.930 . S
H2430 C2440 0.930 . S
H2431 C2443 0.929 . S
H2432 C2446 0.930 . S
H2433 C2448 0.960 . S
H2434 C2448 0.960 . S
H2435 C2448 0.960 . S
C2436 H2428 0.929 . S
C2436 C2437 1.377 . S
C2436 C2438 1.384 . S
C2437 C2436 1.377 . S
C2437 C2443 1.390 . S
C2438 H2429 0.930 . S
C2438 C2436 1.384 . S
C2438 C2439 1.372 . S
C2439 C2438 1.372 . S
C2439 C2440 1.400 . S
C2439 C2444 1.490 . S
C2440 H2430 0.930 . S
C2440 C2439 1.400 . S
C2440 C2443 1.386 . S
H2441 C2457 0.930 . S
H2442 C2458 0.931 . S
C2443 H2431 0.929 . S
C2443 C2437 1.390 . S
C2443 C2440 1.386 . S
C2444 C2439 1.490 . S
C2444 C2446 1.395 . S
C2444 C2447 1.403 . S
H2445 C2451 0.930 . S
C2446 H2432 0.930 . S
C2446 C2444 1.395 . S
C2446 C2449 1.403 . S
C2447 C2444 1.403 . S
C2447 C2448 1.524 . S
C2447 C2451 1.400 . S
C2448 H2433 0.960 . S
C2448 H2434 0.960 . S
C2448 H2435 0.960 . S
C2448 C2447 1.524 . S
C2449 C2446 1.403 . S
C2449 C2450 1.392 . S
C2449 C2453 1.495 . S
C2450 C2449 1.392 . S
C2450 C2451 1.385 . S
C2450 C2452 1.478 . S
C2451 H2445 0.930 . S
C2451 C2447 1.400 . S
C2451 C2450 1.385 . S
C2452 C2450 1.478 . S
C2452 C2454 1.381 . S
C2452 C2458 1.383 . S
C2453 C2449 1.495 . S
C2453 H2459 0.959 . S
C2453 H2460 0.961 . S
C2453 H2461 0.960 . S
C2454 C2452 1.381 . S
C2454 C2455 1.394 . S
C2454 H2462 0.930 . S
C2455 C2454 1.394 . S
C2455 C2456 1.383 . S
C2455 H2463 0.929 . S
C2456 C2455 1.383 . S
C2456 C2457 1.377 . S
C2457 H2441 0.930 . S
C2457 C2456 1.377 . S
C2457 C2458 1.379 . S
C2458 H2442 0.931 . S
C2458 C2452 1.383 . S
C2458 C2457 1.379 . S
H2459 C2453 0.959 . S
H2460 C2453 0.961 . S
H2461 C2453 0.960 . S
H2462 C2454 0.930 . S
H2463 C2455 0.929 . S
H2464 C2472 0.929 . S
H2465 C2474 0.930 . S
H2466 C2476 0.930 1_554 S
H2467 C2479 0.929 . S
H2468 C2482 0.930 . S
H2469 C2484 0.960 . S
H2470 C2484 0.960 . S
H2471 C2484 0.960 1_554 S
C2472 H2464 0.929 . S
C2472 C2473 1.377 1_556 S
C2472 C2474 1.384 . S
C2473 C2472 1.377 1_554 S
C2473 C2479 1.390 . S
C2474 H2465 0.930 . S
C2474 C2472 1.384 . S
C2474 C2475 1.372 . S
C2475 C2474 1.372 . S
C2475 C2476 1.400 . S
C2475 C2480 1.490 . S
C2476 H2466 0.930 1_556 S
C2476 C2475 1.400 . S
C2476 C2479 1.386 1_556 S
H2477 C2493 0.930 . S
H2478 C2494 0.931 . S
C2479 H2467 0.929 . S
C2479 C2473 1.390 . S
C2479 C2476 1.386 1_554 S
C2480 C2475 1.490 . S
C2480 C2482 1.395 . S
C2480 C2483 1.403 . S
H2481 C2487 0.930 . S
C2482 H2468 0.930 . S
C2482 C2480 1.395 . S
C2482 C2485 1.403 . S
C2483 C2480 1.403 . S
C2483 C2484 1.524 . S
C2483 C2487 1.400 . S
C2484 H2469 0.960 . S
C2484 H2470 0.960 . S
C2484 H2471 0.960 1_556 S
C2484 C2483 1.524 . S
C2485 C2482 1.403 . S
C2485 C2486 1.392 . S
C2485 C2489 1.495 . S
C2486 C2485 1.392 . S
C2486 C2487 1.385 . S
C2486 C2488 1.478 . S
C2487 H2481 0.930 . S
C2487 C2483 1.400 . S
C2487 C2486 1.385 . S
C2488 C2486 1.478 . S
C2488 C2490 1.381 . S
C2488 C2494 1.383 . S
C2489 C2485 1.495 . S
C2489 H2495 0.959 . S
C2489 H2496 0.961 . S
C2489 H2497 0.960 . S
C2490 C2488 1.381 . S
C2490 C2491 1.394 . S
C2490 H2498 0.930 . S
C2491 C2490 1.394 . S
C2491 C2492 1.383 . S
C2491 H2499 0.929 . S
C2492 C2491 1.383 . S
C2492 C2493 1.377 . S
C2493 H2477 0.930 . S
C2493 C2492 1.377 . S
C2493 C2494 1.379 . S
C2494 H2478 0.931 . S
C2494 C2488 1.383 . S
C2494 C2493 1.379 . S
H2495 C2489 0.959 . S
H2496 C2489 0.961 . S
H2497 C2489 0.960 . S
H2498 C2490 0.930 . S
H2499 C2491 0.929 . S
H2500 C2508 0.929 . S
H2501 C2510 0.930 . S
H2502 C2512 0.930 . S
H2503 C2515 0.929 . S
H2504 C2518 0.930 . S
H2505 C2520 0.960 . S
H2506 C2520 0.960 . S
H2507 C2520 0.960 . S
C2508 H2500 0.929 . S
C2508 C2509 1.377 . S
C2508 C2510 1.384 . S
C2509 C2508 1.377 . S
C2509 C2515 1.390 . S
C2510 H2501 0.930 . S
C2510 C2508 1.384 . S
C2510 C2511 1.372 . S
C2511 C2510 1.372 . S
C2511 C2512 1.400 . S
C2511 C2516 1.490 . S
C2512 H2502 0.930 . S
C2512 C2511 1.400 . S
C2512 C2515 1.386 . S
H2513 C2529 0.930 . S
H2514 C2530 0.931 . S
C2515 H2503 0.929 . S
C2515 C2509 1.390 . S
C2515 C2512 1.386 . S
C2516 C2511 1.490 . S
C2516 C2518 1.395 . S
C2516 C2519 1.403 . S
H2517 C2523 0.930 . S
C2518 H2504 0.930 . S
C2518 C2516 1.395 . S
C2518 C2521 1.403 . S
C2519 C2516 1.403 . S
C2519 C2520 1.524 . S
C2519 C2523 1.400 . S
C2520 H2505 0.960 . S
C2520 H2506 0.960 . S
C2520 H2507 0.960 . S
C2520 C2519 1.524 . S
C2521 C2518 1.403 . S
C2521 C2522 1.392 . S
C2521 C2525 1.495 . S
C2522 C2521 1.392 . S
C2522 C2523 1.385 . S
C2522 C2524 1.478 . S
C2523 H2517 0.930 . S
C2523 C2519 1.400 . S
C2523 C2522 1.385 . S
C2524 C2522 1.478 . S
C2524 C2526 1.381 . S
C2524 C2530 1.383 . S
C2525 C2521 1.495 . S
C2525 H2531 0.959 . S
C2525 H2532 0.961 . S
C2525 H2533 0.960 . S
C2526 C2524 1.381 . S
C2526 C2527 1.394 . S
C2526 H2534 0.930 . S
C2527 C2526 1.394 . S
C2527 C2528 1.383 . S
C2527 H2535 0.929 . S
C2528 C2527 1.383 . S
C2528 C2529 1.377 . S
C2529 H2513 0.930 . S
C2529 C2528 1.377 . S
C2529 C2530 1.379 . S
C2530 H2514 0.931 . S
C2530 C2524 1.383 . S
C2530 C2529 1.379 . S
H2531 C2525 0.959 . S
H2532 C2525 0.961 . S
H2533 C2525 0.960 . S
H2534 C2526 0.930 . S
H2535 C2527 0.929 . S
H2536 C2544 0.929 . S
H2537 C2546 0.930 . S
H2538 C2548 0.930 . S
H2539 C2551 0.929 . S
H2540 C2554 0.930 . S
H2541 C2556 0.960 . S
H2542 C2556 0.960 . S
H2543 C2556 0.960 . S
C2544 H2536 0.929 . S
C2544 C2545 1.377 . S
C2544 C2546 1.384 . S
C2545 C2544 1.377 . S
C2545 C2551 1.390 . S
C2546 H2537 0.930 . S
C2546 C2544 1.384 . S
C2546 C2547 1.372 . S
C2547 C2546 1.372 . S
C2547 C2548 1.400 . S
C2547 C2552 1.490 . S
C2548 H2538 0.930 . S
C2548 C2547 1.400 . S
C2548 C2551 1.386 . S
H2549 C2565 0.930 . S
H2550 C2566 0.931 . S
C2551 H2539 0.929 . S
C2551 C2545 1.390 . S
C2551 C2548 1.386 . S
C2552 C2547 1.490 . S
C2552 C2554 1.395 . S
C2552 C2555 1.403 . S
H2553 C2559 0.930 . S
C2554 H2540 0.930 . S
C2554 C2552 1.395 . S
C2554 C2557 1.403 . S
C2555 C2552 1.403 . S
C2555 C2556 1.524 . S
C2555 C2559 1.400 . S
C2556 H2541 0.960 . S
C2556 H2542 0.960 . S
C2556 H2543 0.960 . S
C2556 C2555 1.524 . S
C2557 C2554 1.403 . S
C2557 C2558 1.392 . S
C2557 C2561 1.495 . S
C2558 C2557 1.392 . S
C2558 C2559 1.385 . S
C2558 C2560 1.478 . S
C2559 H2553 0.930 . S
C2559 C2555 1.400 . S
C2559 C2558 1.385 . S
C2560 C2558 1.478 . S
C2560 C2562 1.381 . S
C2560 C2566 1.383 . S
C2561 C2557 1.495 . S
C2561 H2567 0.959 . S
C2561 H2568 0.961 . S
C2561 H2569 0.960 . S
C2562 C2560 1.381 . S
C2562 C2563 1.394 . S
C2562 H2570 0.930 . S
C2563 C2562 1.394 . S
C2563 C2564 1.383 . S
C2563 H2571 0.929 . S
C2564 C2563 1.383 . S
C2564 C2565 1.377 . S
C2565 H2549 0.930 . S
C2565 C2564 1.377 . S
C2565 C2566 1.379 . S
C2566 H2550 0.931 . S
C2566 C2560 1.383 . S
C2566 C2565 1.379 . S
H2567 C2561 0.959 . S
H2568 C2561 0.961 . S
H2569 C2561 0.960 . S
H2570 C2562 0.930 . S
H2571 C2563 0.929 . S
H2572 C2580 0.929 . S
H2573 C2582 0.930 . S
H2574 C2584 0.930 . S
H2575 C2587 0.929 . S
H2576 C2590 0.930 . S
H2577 C2592 0.960 . S
H2578 C2592 0.960 . S
H2579 C2592 0.960 . S
C2580 H2572 0.929 . S
C2580 C2581 1.377 . S
C2580 C2582 1.384 . S
C2581 C2580 1.377 . S
C2581 C2587 1.390 . S
C2582 H2573 0.930 . S
C2582 C2580 1.384 . S
C2582 C2583 1.372 . S
C2583 C2582 1.372 . S
C2583 C2584 1.400 . S
C2583 C2588 1.490 . S
C2584 H2574 0.930 . S
C2584 C2583 1.400 . S
C2584 C2587 1.386 . S
H2585 C2601 0.930 . S
H2586 C2602 0.931 . S
C2587 H2575 0.929 . S
C2587 C2581 1.390 . S
C2587 C2584 1.386 . S
C2588 C2583 1.490 . S
C2588 C2590 1.395 . S
C2588 C2591 1.403 . S
H2589 C2595 0.930 . S
C2590 H2576 0.930 . S
C2590 C2588 1.395 . S
C2590 C2593 1.403 . S
C2591 C2588 1.403 . S
C2591 C2592 1.524 . S
C2591 C2595 1.400 . S
C2592 H2577 0.960 . S
C2592 H2578 0.960 . S
C2592 H2579 0.960 . S
C2592 C2591 1.524 . S
C2593 C2590 1.403 . S
C2593 C2594 1.392 . S
C2593 C2597 1.495 . S
C2594 C2593 1.392 . S
C2594 C2595 1.385 . S
C2594 C2596 1.478 . S
C2595 H2589 0.930 . S
C2595 C2591 1.400 . S
C2595 C2594 1.385 . S
C2596 C2594 1.478 . S
C2596 C2598 1.381 . S
C2596 C2602 1.383 . S
C2597 C2593 1.495 . S
C2597 H2603 0.959 . S
C2597 H2604 0.961 . S
C2597 H2605 0.960 . S
C2598 C2596 1.381 . S
C2598 C2599 1.394 . S
C2598 H2606 0.930 . S
C2599 C2598 1.394 . S
C2599 C2600 1.383 . S
C2599 H2607 0.929 . S
C2600 C2599 1.383 . S
C2600 C2601 1.377 . S
C2601 H2585 0.930 . S
C2601 C2600 1.377 . S
C2601 C2602 1.379 . S
C2602 H2586 0.931 . S
C2602 C2596 1.383 . S
C2602 C2601 1.379 . S
H2603 C2597 0.959 . S
H2604 C2597 0.961 . S
H2605 C2597 0.960 . S
H2606 C2598 0.930 . S
H2607 C2599 0.929 . S
H2608 C2616 0.929 . S
H2609 C2618 0.930 . S
H2610 C2620 0.930 . S
H2611 C2623 0.929 . S
H2612 C2626 0.930 . S
H2613 C2628 0.960 . S
H2614 C2628 0.960 . S
H2615 C2628 0.960 . S
C2616 H2608 0.929 . S
C2616 C2617 1.377 . S
C2616 C2618 1.384 . S
C2617 C2616 1.377 . S
C2617 C2623 1.390 . S
C2618 H2609 0.930 . S
C2618 C2616 1.384 . S
C2618 C2619 1.372 . S
C2619 C2618 1.372 . S
C2619 C2620 1.400 . S
C2619 C2624 1.490 . S
C2620 H2610 0.930 . S
C2620 C2619 1.400 . S
C2620 C2623 1.386 . S
H2621 C2637 0.930 . S
H2622 C2638 0.931 . S
C2623 H2611 0.929 . S
C2623 C2617 1.390 . S
C2623 C2620 1.386 . S
C2624 C2619 1.490 . S
C2624 C2626 1.395 . S
C2624 C2627 1.403 . S
H2625 C2631 0.930 . S
C2626 H2612 0.930 . S
C2626 C2624 1.395 . S
C2626 C2629 1.403 . S
C2627 C2624 1.403 . S
C2627 C2628 1.524 . S
C2627 C2631 1.400 . S
C2628 H2613 0.960 . S
C2628 H2614 0.960 . S
C2628 H2615 0.960 . S
C2628 C2627 1.524 . S
C2629 C2626 1.403 . S
C2629 C2630 1.392 . S
C2629 C2633 1.495 . S
C2630 C2629 1.392 . S
C2630 C2631 1.385 . S
C2630 C2632 1.478 . S
C2631 H2625 0.930 . S
C2631 C2627 1.400 . S
C2631 C2630 1.385 . S
C2632 C2630 1.478 . S
C2632 C2634 1.381 . S
C2632 C2638 1.383 . S
C2633 C2629 1.495 . S
C2633 H2639 0.959 . S
C2633 H2640 0.961 . S
C2633 H2641 0.960 . S
C2634 C2632 1.381 . S
C2634 C2635 1.394 . S
C2634 H2642 0.930 . S
C2635 C2634 1.394 . S
C2635 C2636 1.383 . S
C2635 H2643 0.929 . S
C2636 C2635 1.383 . S
C2636 C2637 1.377 . S
C2637 H2621 0.930 . S
C2637 C2636 1.377 . S
C2637 C2638 1.379 . S
C2638 H2622 0.931 . S
C2638 C2632 1.383 . S
C2638 C2637 1.379 . S
H2639 C2633 0.959 . S
H2640 C2633 0.961 . S
H2641 C2633 0.960 . S
H2642 C2634 0.930 . S
H2643 C2635 0.929 . S
H2644 C2652 0.929 . S
H2645 C2654 0.930 . S
H2646 C2656 0.930 . S
H2647 C2659 0.929 . S
H2648 C2662 0.930 . S
H2649 C2664 0.960 . S
H2650 C2664 0.960 . S
H2651 C2664 0.960 . S
C2652 H2644 0.929 . S
C2652 C2653 1.377 . S
C2652 C2654 1.384 . S
C2653 C2652 1.377 . S
C2653 C2659 1.390 . S
C2654 H2645 0.930 . S
C2654 C2652 1.384 . S
C2654 C2655 1.372 . S
C2655 C2654 1.372 . S
C2655 C2656 1.400 . S
C2655 C2660 1.490 . S
C2656 H2646 0.930 . S
C2656 C2655 1.400 . S
C2656 C2659 1.386 . S
H2657 C2673 0.930 . S
H2658 C2674 0.931 . S
C2659 H2647 0.929 . S
C2659 C2653 1.390 . S
C2659 C2656 1.386 . S
C2660 C2655 1.490 . S
C2660 C2662 1.395 . S
C2660 C2663 1.403 . S
H2661 C2667 0.930 . S
C2662 H2648 0.930 . S
C2662 C2660 1.395 . S
C2662 C2665 1.403 . S
C2663 C2660 1.403 . S
C2663 C2664 1.524 . S
C2663 C2667 1.400 . S
C2664 H2649 0.960 . S
C2664 H2650 0.960 . S
C2664 H2651 0.960 . S
C2664 C2663 1.524 . S
C2665 C2662 1.403 . S
C2665 C2666 1.392 . S
C2665 C2669 1.495 . S
C2666 C2665 1.392 . S
C2666 C2667 1.385 . S
C2666 C2668 1.478 . S
C2667 H2661 0.930 . S
C2667 C2663 1.400 . S
C2667 C2666 1.385 . S
C2668 C2666 1.478 . S
C2668 C2670 1.381 . S
C2668 C2674 1.383 . S
C2669 C2665 1.495 . S
C2669 H2675 0.959 . S
C2669 H2676 0.961 . S
C2669 H2677 0.960 . S
C2670 C2668 1.381 . S
C2670 C2671 1.394 . S
C2670 H2678 0.930 . S
C2671 C2670 1.394 . S
C2671 C2672 1.383 . S
C2671 H2679 0.929 . S
C2672 C2671 1.383 . S
C2672 C2673 1.377 . S
C2673 H2657 0.930 . S
C2673 C2672 1.377 . S
C2673 C2674 1.379 . S
C2674 H2658 0.931 . S
C2674 C2668 1.383 . S
C2674 C2673 1.379 . S
H2675 C2669 0.959 . S
H2676 C2669 0.961 . S
H2677 C2669 0.960 . S
H2678 C2670 0.930 . S
H2679 C2671 0.929 . S
H2680 C2688 0.929 . S
H2681 C2690 0.930 . S
H2682 C2692 0.930 . S
H2683 C2695 0.929 . S
H2684 C2698 0.930 . S
H2685 C2700 0.960 . S
H2686 C2700 0.960 . S
H2687 C2700 0.960 . S
C2688 H2680 0.929 . S
C2688 C2689 1.377 . S
C2688 C2690 1.384 . S
C2689 C2688 1.377 . S
C2689 C2695 1.390 . S
C2690 H2681 0.930 . S
C2690 C2688 1.384 . S
C2690 C2691 1.372 . S
C2691 C2690 1.372 . S
C2691 C2692 1.400 . S
C2691 C2696 1.490 . S
C2692 H2682 0.930 . S
C2692 C2691 1.400 . S
C2692 C2695 1.386 . S
H2693 C2709 0.930 . S
H2694 C2710 0.931 . S
C2695 H2683 0.929 . S
C2695 C2689 1.390 . S
C2695 C2692 1.386 . S
C2696 C2691 1.490 . S
C2696 C2698 1.395 . S
C2696 C2699 1.403 . S
H2697 C2703 0.930 . S
C2698 H2684 0.930 . S
C2698 C2696 1.395 . S
C2698 C2701 1.403 . S
C2699 C2696 1.403 . S
C2699 C2700 1.524 . S
C2699 C2703 1.400 . S
C2700 H2685 0.960 . S
C2700 H2686 0.960 . S
C2700 H2687 0.960 . S
C2700 C2699 1.524 . S
C2701 C2698 1.403 . S
C2701 C2702 1.392 . S
C2701 C2705 1.495 . S
C2702 C2701 1.392 . S
C2702 C2703 1.385 . S
C2702 C2704 1.478 . S
C2703 H2697 0.930 . S
C2703 C2699 1.400 . S
C2703 C2702 1.385 . S
C2704 C2702 1.478 . S
C2704 C2706 1.381 . S
C2704 C2710 1.383 . S
C2705 C2701 1.495 . S
C2705 H2711 0.959 . S
C2705 H2712 0.961 . S
C2705 H2713 0.960 . S
C2706 C2704 1.381 . S
C2706 C2707 1.394 . S
C2706 H2714 0.930 . S
C2707 C2706 1.394 . S
C2707 C2708 1.383 . S
C2707 H2715 0.929 . S
C2708 C2707 1.383 . S
C2708 C2709 1.377 . S
C2709 H2693 0.930 . S
C2709 C2708 1.377 . S
C2709 C2710 1.379 . S
C2710 H2694 0.931 . S
C2710 C2704 1.383 . S
C2710 C2709 1.379 . S
H2711 C2705 0.959 . S
H2712 C2705 0.961 . S
H2713 C2705 0.960 . S
H2714 C2706 0.930 . S
H2715 C2707 0.929 . S
H2716 C2724 0.929 . S
H2717 C2726 0.930 . S
H2718 C2728 0.930 . S
H2719 C2731 0.929 . S
H2720 C2734 0.930 . S
H2721 C2736 0.960 . S
H2722 C2736 0.960 . S
H2723 C2736 0.960 . S
C2724 H2716 0.929 . S
C2724 C2725 1.377 . S
C2724 C2726 1.384 . S
C2725 C2724 1.377 . S
C2725 C2731 1.390 . S
C2726 H2717 0.930 . S
C2726 C2724 1.384 . S
C2726 C2727 1.372 . S
C2727 C2726 1.372 . S
C2727 C2728 1.400 . S
C2727 C2732 1.490 . S
C2728 H2718 0.930 . S
C2728 C2727 1.400 . S
C2728 C2731 1.386 . S
H2729 C2745 0.930 . S
H2730 C2746 0.931 1_554 S
C2731 H2719 0.929 . S
C2731 C2725 1.390 . S
C2731 C2728 1.386 . S
C2732 C2727 1.490 . S
C2732 C2734 1.395 . S
C2732 C2735 1.403 . S
H2733 C2739 0.930 . S
C2734 H2720 0.930 . S
C2734 C2732 1.395 . S
C2734 C2737 1.403 . S
C2735 C2732 1.403 . S
C2735 C2736 1.524 . S
C2735 C2739 1.400 . S
C2736 H2721 0.960 . S
C2736 H2722 0.960 . S
C2736 H2723 0.960 . S
C2736 C2735 1.524 . S
C2737 C2734 1.403 . S
C2737 C2738 1.392 . S
C2737 C2741 1.495 . S
C2738 C2737 1.392 . S
C2738 C2739 1.385 . S
C2738 C2740 1.478 . S
C2739 H2733 0.930 . S
C2739 C2735 1.400 . S
C2739 C2738 1.385 . S
C2740 C2738 1.478 . S
C2740 C2742 1.381 . S
C2740 C2746 1.383 . S
C2741 C2737 1.495 . S
C2741 H2747 0.959 . S
C2741 H2748 0.961 . S
C2741 H2749 0.960 . S
C2742 C2740 1.381 . S
C2742 C2743 1.394 . S
C2742 H2750 0.930 . S
C2743 C2742 1.394 . S
C2743 C2744 1.371 1_556 S
C2743 H2751 0.929 . S
C2744 C2743 1.371 1_554 S
C2744 C2745 1.382 . S
C2745 H2729 0.930 . S
C2745 C2744 1.382 . S
C2745 C2746 1.379 1_554 S
C2746 H2730 0.931 1_556 S
C2746 C2740 1.383 . S
C2746 C2745 1.379 1_556 S
H2747 C2741 0.959 . S
H2748 C2741 0.961 . S
H2749 C2741 0.960 . S
H2750 C2742 0.930 . S
H2751 C2743 0.929 . S
C457 C121 1.359 . S
C476 C9 1.379 . S
C493 C23 1.355 . S
C512 C359 1.328 . S
C529 C37 1.359 . S
C548 C149 1.380 . S
C565 C51 1.361 . S
C584 C387 1.358 . S
C601 C65 1.350 . S
C620 C177 1.337 . S
C637 C415 1.361 . S
C656 C79 1.362 . S
C673 C205 1.355 . S
C692 C93 1.375 . S
C709 C443 1.352 . S
C728 C107 1.360 . S
C745 C247 1.360 . S
C764 C135 1.376 . S
C781 C163 1.352 . S
C800 C275 1.326 . S
C817 C191 1.357 . S
C836 C303 1.378 . S
C853 C331 1.357 . S
C872 C219 1.379 . S
C889 C345 1.354 . S
C908 C233 1.373 . S
C925 C261 1.356 . S
C944 C373 1.330 . S
C961 C289 1.351 . S
C980 C401 1.330 . S
C997 C429 1.353 . S
C1016 C317 1.370 . S
C1033 C3 1.262 . S
C1052 C59 1.276 . S
C1069 C73 1.256 . S
C1088 C17 1.247 . S
C1105 C87 1.262 . S
C1124 C31 1.276 . S
C1141 C45 1.262 . S
C1160 C101 1.258 . S
C1177 C115 1.264 . S
C1196 C171 1.241 . S
C1213 C129 1.263 . S
C1232 C185 1.236 . S
C1249 C199 1.255 . S
C1268 C143 1.276 . S
C1285 C213 1.256 . S
C1304 C157 1.278 . S
C1321 C283 1.261 . S
C1340 C227 1.252 . S
C1357 C297 1.260 . S
C1376 C241 1.272 . S
C1393 C255 1.261 . S
C1412 C311 1.252 . S
C1429 C325 1.255 . S
C1448 C269 1.244 . S
C1465 C395 1.260 . S
C1484 C339 1.264 . S
C1501 C353 1.255 . S
C1520 C409 1.276 . S
C1537 C423 1.264 . S
C1556 C367 1.238 . S
C1573 C437 1.259 . S
C1592 C381 1.249 . S
C1609 C63 0.213 . S
C1628 C7 0.219 . S
C1645 C77 0.228 . S
C1664 C21 0.149 . S
C1681 C35 0.231 . S
C1700 C91 0.137 . S
C1717 C105 0.233 . S
C1736 C49 0.256 . S
C1753 C175 0.235 . S
C1772 C119 0.299 . S
C1789 C133 0.201 . S
C1808 C189 0.242 . S
C1825 C203 0.213 . S
C1844 C147 0.150 . S
C1861 C217 0.240 . S
C1880 C161 0.179 . S
C1897 C231 0.239 . S
C1916 C287 0.221 . S
C1933 C301 0.217 . S
C1952 C245 0.309 . S
C1969 C315 0.242 . S
C1988 C259 0.152 . S
C2005 C329 0.214 . S
C2024 C273 0.214 . S
C2041 C399 0.233 . S
C2060 C343 0.304 . S
C2077 C357 0.225 . S
C2096 C413 0.318 . S
C2113 C371 0.242 . S
C2132 C427 0.240 . S
C2149 C385 0.242 . S
C2168 C441 0.241 . S
C2185 C8 1.456 . S
C2204 C302 1.443 . S
C2221 C316 1.452 . S
C2240 C22 1.460 . S
C2257 C36 1.450 . S
C2276 C330 1.445 . S
C2293 C50 1.451 . S
C2312 C288 1.432 1_556 S
C2329 C274 1.457 . S
C2348 C64 1.455 . S
C2365 C232 1.456 . S
C2384 C78 1.444 . S
C2401 C246 1.450 . S
C2420 C92 1.452 . S
C2437 C106 1.450 . S
C2456 C260 1.455 . S
C2473 C120 1.453 . S
C2492 C414 1.461 . S
C2509 C428 1.456 . S
C2528 C134 1.449 . S
C2545 C442 1.456 . S
C2564 C148 1.454 . S
C2581 C400 1.456 . S
C2600 C162 1.464 . S
C2617 C386 1.455 . S
C2636 C176 1.447 . S
C2653 C344 1.450 . S
C2672 C190 1.437 . S
C2689 C204 1.453 . S
C2708 C358 1.459 . S
C2725 C218 1.454 . S
C2744 C372 1.449 . S
