# Generated by pormake.
# Topology rob, (6)-cn, num edge types: 1
# Building blocks:
#     Node 0, Type 0, BuildingBlock: CUWYAW_clean_sbu_0, # of connection points: 6
#     Node 1, Type 0, BuildingBlock: CUWYAW_clean_sbu_0, # of connection points: 6
#     Node 2, Type 0, BuildingBlock: CUWYAW_clean_sbu_0, # of connection points: 6
#     Node 3, Type 0, BuildingBlock: CUWYAW_clean_sbu_0, # of connection points: 6
#     Edge 4, Type (0, 0), BuildingBlock: UVAHIK_clean_linker_0, # of connection points: 2
#     Edge 5, Type (0, 0), BuildingBlock: UVAHIK_clean_linker_0, # of connection points: 2
#     Edge 6, Type (0, 0), BuildingBlock: UVAHIK_clean_linker_0, # of connection points: 2
#     Edge 7, Type (0, 0), BuildingBlock: UVAHIK_clean_linker_0, # of connection points: 2
#     Edge 8, Type (0, 0), BuildingBlock: UVAHIK_clean_linker_0, # of connection points: 2
#     Edge 9, Type (0, 0), BuildingBlock: UVAHIK_clean_linker_0, # of connection points: 2
#     Edge 10, Type (0, 0), BuildingBlock: UVAHIK_clean_linker_0, # of connection points: 2
#     Edge 11, Type (0, 0), BuildingBlock: UVAHIK_clean_linker_0, # of connection points: 2
#     Edge 12, Type (0, 0), BuildingBlock: UVAHIK_clean_linker_0, # of connection points: 2
#     Edge 13, Type (0, 0), BuildingBlock: UVAHIK_clean_linker_0, # of connection points: 2
#     Edge 14, Type (0, 0), BuildingBlock: UVAHIK_clean_linker_0, # of connection points: 2
#     Edge 15, Type (0, 0), BuildingBlock: UVAHIK_clean_linker_0, # of connection points: 2
# Relax obj value: 0.035
# Max RMSD: 0.131
# Mean RMSD: 0.131
data_MOF--net-rob--node1-CUWYAW_clean_sbu_0--edge1-UVAHIK_clean_linker_0
_symmetry_space_group_name_H-M    P1
_symmetry_Int_Tables_number       1
_symmetry_cell_setting            triclinic
loop_
_symmetry_equiv_pos_as_xyz
'x, y, z'
_cell_length_a     19.680978
_cell_length_b     32.067809
_cell_length_c     44.939838
_cell_angle_alpha  95.435363
_cell_angle_beta   90.019443
_cell_angle_gamma 89.959968
loop_
_atom_site_label
_atom_site_type_symbol
_atom_site_fract_x
_atom_site_fract_y
_atom_site_fract_z
_atom_type_partial_charge
C0 C 0.43141 0.24397 0.97343 0.0
Eu1 Eu 0.31799 0.24862 1.00346 0.0
C2 C 0.4508 0.24419 0.94176 0.0
C3 C 0.5006 0.21625 0.9297 0.0
C4 C 0.51831 0.21518 0.8995 0.0
C5 C 0.48633 0.24198 0.88076 0.0
C6 C 0.43643 0.27001 0.89297 0.0
C7 C 0.41896 0.27117 0.92319 0.0
C8 C 0.23201 0.18456 0.01051 0.0
C9 C 0.19379 0.27358 0.95941 0.0
C10 C 0.06681 0.2779 0.05958 0.0
Eu11 Eu 0.18004 0.27426 0.02946 0.0
C12 C 0.04879 0.28037 0.09143 0.0
C13 C 0.09582 0.29482 0.11353 0.0
C14 C 0.07866 0.29588 0.14379 0.0
C15 C 0.01423 0.28235 0.15249 0.0
C16 C 0.96756 0.26767 0.13015 0.0
C17 C 0.98473 0.26674 0.09992 0.0
C18 C 0.2663 0.33836 0.0226 0.0
C19 C 0.30397 0.24933 0.0737 0.0
O20 O 0.40711 0.27898 0.98665 0.0
O21 O 0.39793 0.21104 0.98035 0.0
O22 O 0.29698 0.18266 0.01522 0.0
O23 O 0.21617 0.21901 1.00108 0.0
O24 O 0.26018 0.27148 0.964 0.0
O25 O 0.14982 0.26961 0.98113 0.0
O26 O 0.09485 0.24273 0.0487 0.0
O27 O 0.09664 0.31082 0.0504 0.0
O28 O 0.20125 0.3405 0.01815 0.0
O29 O 0.28179 0.3038 0.03192 0.0
O30 O 0.23777 0.25268 0.06921 0.0
O31 O 0.34817 0.25197 0.05185 0.0
H32 H 0.5255 0.19504 0.94361 0.0
H33 H 0.55634 0.19288 0.89073 0.0
H34 H 0.41142 0.29143 0.87926 0.0
H35 H 0.38061 0.29317 0.93203 0.0
H36 H 0.14581 0.30522 0.10738 0.0
H37 H 0.11563 0.30771 0.16034 0.0
H38 H 0.91802 0.25625 0.13599 0.0
H39 H 0.94814 0.25502 0.08315 0.0
C40 C 0.93036 0.73982 0.9739 0.0
Eu41 Eu 0.81758 0.74726 1.00431 0.0
C42 C 0.94959 0.74076 0.94227 0.0
C43 C 0.99761 0.7121 0.92956 0.0
C44 C 0.01545 0.71194 0.89943 0.0
C45 C 0.9854 0.74043 0.88139 0.0
C46 C 0.93708 0.76908 0.89422 0.0
C47 C 0.91948 0.7693 0.92438 0.0
C48 C 0.72965 0.68492 0.01331 0.0
C49 C 0.69441 0.7731 0.96001 0.0
C50 C 0.56788 0.78368 0.06048 0.0
Eu51 Eu 0.68085 0.77593 0.03022 0.0
C52 C 0.54849 0.78317 0.09212 0.0
C53 C 0.49966 0.81155 0.10448 0.0
C54 C 0.48203 0.81232 0.13467 0.0
C55 C 0.51318 0.78476 0.15311 0.0
C56 C 0.56215 0.75631 0.1406 0.0
C57 C 0.57948 0.75545 0.11038 0.0
C58 C 0.76901 0.83816 0.02107 0.0
C59 C 0.80409 0.75026 0.07453 0.0
O60 O 0.90943 0.77513 0.98793 0.0
O61 O 0.89388 0.70776 0.98022 0.0
O62 O 0.79463 0.68247 0.01788 0.0
O63 O 0.71473 0.71899 1.00306 0.0
O64 O 0.7606 0.76955 0.96453 0.0
O65 O 0.65021 0.77122 0.98193 0.0
O66 O 0.58896 0.74821 0.04672 0.0
O67 O 0.60443 0.81563 0.05402 0.0
O68 O 0.70404 0.84068 0.01649 0.0
O69 O 0.78357 0.80416 0.03147 0.0
O70 O 0.73786 0.75364 0.07 0.0
O71 O 0.84828 0.75218 0.05261 0.0
H72 H 0.02112 0.68966 0.94293 0.0
H73 H 0.05218 0.68912 0.89016 0.0
H74 H 0.91357 0.79176 0.88107 0.0
H75 H 0.88243 0.79185 0.9337 0.0
H76 H 0.47545 0.83334 0.0908 0.0
H77 H 0.44473 0.83494 0.14368 0.0
H78 H 0.58649 0.73434 0.15408 0.0
H79 H 0.61705 0.73309 0.10129 0.0
C80 C 0.43343 0.78058 0.56018 0.0
Eu81 Eu 0.32008 0.77526 0.53009 0.0
C82 C 0.4525 0.78032 0.5919 0.0
C83 C 0.50078 0.809 0.60432 0.0
C84 C 0.51794 0.8101 0.63459 0.0
C85 C 0.48689 0.78258 0.65305 0.0
C86 C 0.43854 0.75379 0.64048 0.0
C87 C 0.42168 0.75259 0.61019 0.0
C88 C 0.23327 0.83882 0.52261 0.0
C89 C 0.1967 0.75057 0.57462 0.0
C90 C 0.0688 0.74439 0.47433 0.0
Eu91 Eu 0.18205 0.74873 0.50449 0.0
C92 C 0.05067 0.74226 0.44247 0.0
C93 C 0.09728 0.72751 0.42028 0.0
C94 C 0.07996 0.72673 0.39003 0.0
C95 C 0.01577 0.74087 0.38143 0.0
C96 C 0.96956 0.7559 0.40387 0.0
C97 C 0.98689 0.75653 0.43408 0.0
C98 C 0.26904 0.68511 0.51185 0.0
C99 C 0.30538 0.77365 0.45991 0.0
O100 O 0.40995 0.74547 0.5468 0.0
O101 O 0.39933 0.81332 0.55327 0.0
O102 O 0.29818 0.8409 0.51782 0.0
O103 O 0.21794 0.80449 0.53234 0.0
O104 O 0.26295 0.75298 0.56982 0.0
O105 O 0.15226 0.75372 0.55292 0.0
O106 O 0.09579 0.7797 0.48552 0.0
O107 O 0.09962 0.71161 0.48326 0.0
O108 O 0.20404 0.68286 0.51639 0.0
O109 O 0.28413 0.71951 0.50218 0.0
O110 O 0.23928 0.77005 0.46453 0.0
O111 O 0.34988 0.7715 0.48171 0.0
H112 H 0.52488 0.8308 0.59063 0.0
H113 H 0.55478 0.83298 0.64364 0.0
H114 H 0.4143 0.73183 0.65398 0.0
H115 H 0.3845 0.72999 0.60109 0.0
H116 H 0.1471 0.71664 0.42634 0.0
H117 H 0.1166 0.71461 0.37343 0.0
H118 H 0.92025 0.76782 0.39812 0.0
H119 H 0.95061 0.76851 0.45091 0.0
C120 C 0.93199 0.27831 0.55972 0.0
Eu121 Eu 0.81893 0.27435 0.52943 0.0
C122 C 0.9496 0.28166 0.59165 0.0
C123 C 0.90257 0.29724 0.61342 0.0
C124 C 0.91919 0.29906 0.64378 0.0
C125 C 0.98308 0.28514 0.65294 0.0
C126 C 0.02977 0.26935 0.63094 0.0
C127 C 0.01314 0.26767 0.6006 0.0
C128 C 0.73239 0.33819 0.52224 0.0
C129 C 0.69509 0.24975 0.57385 0.0
C130 C 0.56788 0.24223 0.47337 0.0
Eu131 Eu 0.68106 0.24797 0.5036 0.0
C132 C 0.54857 0.24257 0.44168 0.0
C133 C 0.49961 0.21425 0.4294 0.0
C134 C 0.48199 0.2133 0.39919 0.0
C135 C 0.51325 0.24063 0.38064 0.0
C136 C 0.56235 0.26903 0.39306 0.0
C137 C 0.57968 0.27006 0.4233 0.0
C138 C 0.7681 0.18446 0.51123 0.0
C139 C 0.80469 0.27287 0.45939 0.0
O140 O 0.90362 0.24304 0.54931 0.0
O141 O 0.9027 0.31102 0.54992 0.0
O142 O 0.79747 0.3404 0.51792 0.0
O143 O 0.71679 0.30368 0.53164 0.0
O144 O 0.76122 0.25342 0.56936 0.0
O145 O 0.6508 0.25174 0.55195 0.0
O146 O 0.59088 0.2774 0.48684 0.0
O147 O 0.60252 0.20963 0.48014 0.0
O148 O 0.7032 0.18236 0.51605 0.0
O149 O 0.78311 0.21875 0.50139 0.0
O150 O 0.73837 0.27098 0.46415 0.0
O151 O 0.84893 0.26896 0.48104 0.0
H152 H 0.85295 0.3079 0.60693 0.0
H153 H 0.88222 0.31177 0.66003 0.0
H154 H 0.07888 0.25761 0.63714 0.0
H155 H 0.04973 0.25508 0.5841 0.0
H156 H 0.47527 0.19263 0.44316 0.0
H157 H 0.44461 0.1907 0.39026 0.0
H158 H 0.58678 0.29084 0.37951 0.0
H159 H 0.61736 0.29238 0.43231 0.0
C160 C 0.70307 0.6124 0.02589 0.0
C161 C 0.68134 0.65013 0.01551 0.0
C162 C 0.65787 0.57893 0.02702 0.0
C163 C 0.49598 0.53708 0.99474 0.0
H164 H 0.49961 0.46871 0.06141 0.0
C165 C 0.29189 0.41146 0.01103 0.0
C166 C 0.31408 0.37356 0.02099 0.0
C167 C 0.33675 0.44515 0.01017 0.0
C168 C 0.49845 0.48719 0.04245 0.0
H169 H 0.59525 0.68275 0.99852 0.0
H170 H 0.51603 0.62462 1.00088 0.0
H171 H 0.57715 0.52789 0.06085 0.0
H172 H 0.40054 0.34093 0.03765 0.0
H173 H 0.47913 0.39951 0.03584 0.0
H174 H 0.41727 0.49638 0.97635 0.0
C175 C 0.56819 0.62056 0.00775 0.0
C176 C 0.54291 0.52116 0.04214 0.0
C177 C 0.61341 0.65399 1.00661 0.0
C178 C 0.38205 0.36982 0.02987 0.0
C179 C 0.42691 0.40349 0.02905 0.0
C180 C 0.45151 0.50313 0.99506 0.0
C181 C 0.58995 0.5825 0.01779 0.0
C182 C 0.54226 0.54653 0.01828 0.0
C183 C 0.40475 0.44165 0.01931 0.0
C184 C 0.45221 0.47774 0.01891 0.0
H185 H 0.75522 0.60855 0.03285 0.0
H186 H 0.67657 0.54995 0.03456 0.0
H187 H 0.49486 0.55552 0.97576 0.0
H188 H 0.2397 0.4152 1.00409 0.0
H189 H 0.31779 0.47421 1.00286 0.0
C190 C 0.29519 0.61226 0.52386 0.0
C191 C 0.31713 0.65006 0.51371 0.0
C192 C 0.34026 0.57868 0.52494 0.0
C193 C 0.50268 0.53673 0.49317 0.0
H194 H 0.49796 0.46844 0.55987 0.0
C195 C 0.70674 0.41119 0.51036 0.0
C196 C 0.68451 0.37334 0.52035 0.0
C197 C 0.6618 0.44483 0.50925 0.0
C198 C 0.49943 0.48689 0.5409 0.0
H199 H 0.40341 0.68264 0.49693 0.0
H200 H 0.48243 0.6243 0.4992 0.0
H201 H 0.42038 0.52761 0.55898 0.0
H202 H 0.59786 0.34075 0.53679 0.0
H203 H 0.51913 0.39924 0.53454 0.0
H204 H 0.58178 0.49601 0.4751 0.0
C205 C 0.43021 0.62028 0.50595 0.0
C206 C 0.45494 0.52085 0.5404 0.0
C207 C 0.3851 0.65383 0.50487 0.0
C208 C 0.6164 0.36959 0.529 0.0
C209 C 0.57145 0.40322 0.52792 0.0
C210 C 0.5472 0.50277 0.49367 0.0
C211 C 0.40829 0.5822 0.51588 0.0
C212 C 0.45598 0.5462 0.51653 0.0
C213 C 0.59365 0.44134 0.51816 0.0
C214 C 0.54611 0.47741 0.51754 0.0
H215 H 0.24299 0.60848 0.53076 0.0
H216 H 0.32143 0.54969 0.53237 0.0
H217 H 0.50413 0.55515 0.47419 0.0
H218 H 0.75903 0.41494 0.5036 0.0
H219 H 0.6808 0.47386 0.50194 0.0
C220 C 0.11637 0.15291 1.00348 0.0
C221 C 0.18443 0.1493 0.01228 0.0
C222 C 0.07169 0.11918 1.00441 0.0
C223 C 0.04757 0.01976 0.03866 0.0
H224 H 0.92204 0.99444 0.9729 0.0
C225 C 0.88533 0.86899 0.02777 0.0
C226 C 0.81747 0.87284 0.01877 0.0
C227 C 0.93067 0.90233 0.02651 0.0
C228 C 0.95625 1.00133 0.9916 0.0
H229 H 0.25912 0.10785 0.02918 0.0
H230 H 0.18129 0.04875 0.03062 0.0
H231 H 0.99948 0.05364 0.97214 0.0
H232 H 0.74382 0.91429 1.00115 0.0
H233 H 0.82264 0.97275 0.99923 0.0
H234 H 0.00423 0.96754 0.05817 0.0
C235 C 0.16217 0.07774 0.02327 0.0
C236 C 0.00065 0.0353 0.99117 0.0
C237 C 0.20686 0.11149 0.0223 0.0
C238 C 0.79592 0.91046 0.00819 0.0
C239 C 0.84122 0.94384 1.00693 0.0
C240 C 0.00313 0.98581 0.0391 0.0
C241 C 0.0941 0.0811 0.0142 0.0
C242 C 0.04682 0.04496 0.0147 0.0
C243 C 0.90909 0.94028 0.01623 0.0
C244 C 0.95687 0.97618 0.01559 0.0
H245 H 0.09768 0.18174 0.99569 0.0
H246 H 0.0194 0.12304 0.99767 0.0
H247 H 0.08179 0.02667 0.05735 0.0
H248 H 0.90333 0.84031 0.03604 0.0
H249 H 0.98278 0.89829 0.03344 0.0
C250 C 0.8843 0.15342 0.50448 0.0
C251 C 0.8163 0.14954 0.51326 0.0
C252 C 0.92957 0.11998 0.50568 0.0
C253 C 0.95494 0.02093 0.54042 0.0
H254 H 0.08148 0.99585 0.47503 0.0
C255 C 0.11723 0.87007 0.52945 0.0
C256 C 0.18523 0.87385 0.52064 0.0
C257 C 0.0721 0.90358 0.5283 0.0
C258 C 0.04699 1.0027 0.49363 0.0
H259 H 0.74232 0.10792 0.53038 0.0
H260 H 0.82109 0.04932 0.53222 0.0
H261 H 0.00345 0.05478 0.47397 0.0
H262 H 0.25937 0.9154 0.50356 0.0
H263 H 0.18081 0.97414 0.5018 0.0
H264 H 0.99847 0.96884 0.56008 0.0
C265 C 0.83977 0.07831 0.52472 0.0
C266 C 0.00226 0.03651 0.49304 0.0
C267 C 0.79452 0.11177 0.52351 0.0
C268 C 0.20716 0.91162 0.51044 0.0
C269 C 0.16203 0.94516 0.50928 0.0
C270 C 0.99967 0.98711 0.54102 0.0
C271 C 0.9078 0.08193 0.51568 0.0
C272 C 0.95566 0.04606 0.51642 0.0
C273 C 0.094 0.94162 0.51833 0.0
C274 C 0.04625 0.97756 0.51763 0.0
H275 H 0.9025 0.18223 0.49651 0.0
H276 H 0.98179 0.12407 0.49895 0.0
H277 H 0.92045 0.02776 0.55902 0.0
H278 H 0.09892 0.84127 0.5374 0.0
H279 H 0.01986 0.89956 0.53504 0.0
C280 C 0.42614 0.23532 0.33959 0.0
C281 C 0.49444 0.23961 0.34851 0.0
C282 C 0.40825 0.23439 0.30943 0.0
C283 C 0.47033 0.26382 0.23658 0.0
H284 H 0.32777 0.18878 0.20497 0.0
C285 C 0.39845 0.24535 0.11099 0.0
C286 C 0.32857 0.24473 0.10441 0.0
C287 C 0.42111 0.24273 0.14028 0.0
C288 C 0.36732 0.21014 0.21351 0.0
H289 H 0.59765 0.2457 0.33259 0.0
H290 H 0.56646 0.24393 0.27992 0.0
H291 H 0.36298 0.18805 0.25692 0.0
H292 H 0.22779 0.24029 0.12353 0.0
H293 H 0.26729 0.23598 0.17442 0.0
H294 H 0.47442 0.28596 0.19312 0.0
C295 C 0.52657 0.24193 0.29632 0.0
C296 C 0.38747 0.20978 0.24331 0.0
C297 C 0.54446 0.24294 0.32651 0.0
C298 C 0.282 0.24084 0.12772 0.0
C299 C 0.30465 0.2381 0.15693 0.0
C300 C 0.45027 0.2641 0.20673 0.0
C301 C 0.45821 0.23763 0.2874 0.0
C302 C 0.43877 0.23689 0.25532 0.0
C303 C 0.37445 0.23923 0.16361 0.0
C304 C 0.39809 0.23754 0.19492 0.0
H305 H 0.38624 0.23337 0.35599 0.0
H306 H 0.355 0.23185 0.30346 0.0
H307 H 0.50939 0.28549 0.24517 0.0
H308 H 0.43573 0.24828 0.09359 0.0
H309 H 0.47525 0.24324 0.14464 0.0
C310 C 0.54443 0.78213 0.20719 0.0
C311 C 0.49437 0.78558 0.18521 0.0
C312 C 0.52655 0.78288 0.23736 0.0
C313 C 0.38721 0.81427 0.29043 0.0
H314 H 0.475 0.73781 0.34023 0.0
C315 C 0.28273 0.78194 0.40591 0.0
C316 C 0.32958 0.77826 0.42916 0.0
C317 C 0.3051 0.78488 0.37669 0.0
C318 C 0.45061 0.75973 0.32673 0.0
H319 H 0.38616 0.7918 0.17771 0.0
H320 H 0.35492 0.79282 0.23021 0.0
H321 H 0.50979 0.73881 0.28822 0.0
H322 H 0.43689 0.77521 0.43987 0.0
H323 H 0.47588 0.78055 0.3888 0.0
H324 H 0.32743 0.83477 0.32885 0.0
C325 C 0.40818 0.79039 0.22424 0.0
C326 C 0.47057 0.76033 0.2969 0.0
C327 C 0.42606 0.78975 0.19411 0.0
C328 C 0.3994 0.77798 0.42251 0.0
C329 C 0.42178 0.78078 0.39321 0.0
C330 C 0.36715 0.81357 0.32021 0.0
C331 C 0.45817 0.78701 0.24626 0.0
C332 C 0.43874 0.78739 0.27831 0.0
C333 C 0.37485 0.78413 0.36995 0.0
C334 C 0.39824 0.78608 0.33865 0.0
H335 H 0.59762 0.77945 0.20111 0.0
H336 H 0.56645 0.78079 0.25375 0.0
H337 H 0.36251 0.83608 0.27694 0.0
H338 H 0.22856 0.78224 0.41016 0.0
H339 H 0.26758 0.78689 0.35924 0.0
C340 C 0.71606 0.78148 0.90594 0.0
C341 C 0.66966 0.77773 0.92932 0.0
C342 C 0.69323 0.78453 0.8768 0.0
C343 C 0.54755 0.75923 0.82708 0.0
H344 H 0.63487 0.83573 0.77724 0.0
C345 C 0.45479 0.78026 0.70706 0.0
C346 C 0.50515 0.78378 0.68524 0.0
C347 C 0.47218 0.78138 0.73732 0.0
C348 C 0.61037 0.81388 0.79075 0.0
H349 H 0.56253 0.77461 0.9403 0.0
H350 H 0.52268 0.78003 0.88934 0.0
H351 H 0.66981 0.83472 0.8292 0.0
H352 H 0.61338 0.7905 0.67811 0.0
H353 H 0.64376 0.79215 0.73074 0.0
H354 H 0.4888 0.73792 0.78851 0.0
C355 C 0.57685 0.78031 0.89362 0.0
C356 C 0.63034 0.81337 0.82055 0.0
C357 C 0.59972 0.77744 0.92286 0.0
C358 C 0.57324 0.78839 0.69438 0.0
C359 C 0.59064 0.7894 0.72459 0.0
C360 C 0.52769 0.75964 0.79721 0.0
C361 C 0.62339 0.78378 0.87024 0.0
C362 C 0.59962 0.78578 0.839 0.0
C363 C 0.54035 0.78595 0.74646 0.0
C364 C 0.55932 0.7867 0.77859 0.0
H365 H 0.77022 0.78169 0.91 0.0
H366 H 0.73047 0.78661 0.85926 0.0
H367 H 0.52342 0.73724 0.84059 0.0
H368 H 0.40174 0.77725 0.7008 0.0
H369 H 0.43205 0.77921 0.75358 0.0
C370 C 0.71736 0.24218 0.62797 0.0
C371 C 0.67064 0.24535 0.60459 0.0
C372 C 0.69481 0.23951 0.65719 0.0
C373 C 0.54862 0.26453 0.70678 0.0
H374 H 0.63788 0.18967 0.75735 0.0
C375 C 0.45506 0.24341 0.82658 0.0
C376 C 0.50519 0.24081 0.84864 0.0
C377 C 0.47297 0.24229 0.79639 0.0
C378 C 0.61284 0.21106 0.74363 0.0
H379 H 0.5634 0.24775 0.59366 0.0
H380 H 0.52407 0.24284 0.64474 0.0
H381 H 0.67301 0.19031 0.70539 0.0
H382 H 0.61355 0.23574 0.85627 0.0
H383 H 0.64481 0.23402 0.80374 0.0
H384 H 0.48903 0.28569 0.74512 0.0
C385 C 0.57821 0.24282 0.64042 0.0
C386 C 0.63293 0.21138 0.71383 0.0
C387 C 0.60077 0.24537 0.61112 0.0
C388 C 0.5736 0.23712 0.83981 0.0
C389 C 0.5915 0.23609 0.80966 0.0
C390 C 0.52862 0.2643 0.73663 0.0
C391 C 0.625 0.24 0.66381 0.0
C392 C 0.60145 0.23835 0.69511 0.0
C393 C 0.54144 0.23862 0.78756 0.0
C394 C 0.56088 0.2378 0.75549 0.0
H395 H 0.77157 0.24212 0.62382 0.0
H396 H 0.73223 0.23793 0.67473 0.0
H397 H 0.52392 0.28607 0.69307 0.0
H398 H 0.40181 0.24569 0.8326 0.0
H399 H 0.43304 0.24374 0.77993 0.0
C400 C 0.89805 0.75131 0.11251 0.0
C401 C 0.82883 0.74625 0.10531 0.0
C402 C 0.92042 0.74983 0.14197 0.0
C403 C 0.85626 0.76097 0.22 0.0
H404 H 0.02791 0.70948 0.23802 0.0
C405 C 0.93035 0.72965 0.33981 0.0
C406 C 0.99687 0.74007 0.34925 0.0
C407 C 0.9118 0.72998 0.30983 0.0
C408 C 0.98013 0.7243 0.2333 0.0
H409 H 0.72932 0.73423 0.12335 0.0
H410 H 0.76821 0.73079 0.17432 0.0
H411 H 0.99184 0.71015 0.18604 0.0
H412 H 0.09613 0.75886 0.33426 0.0
H413 H 0.06379 0.75881 0.28178 0.0
H414 H 0.84419 0.77467 0.26723 0.0
C415 C 0.80517 0.73699 0.15745 0.0
C416 C 0.95947 0.72476 0.20351 0.0
C417 C 0.78283 0.73872 0.12809 0.0
C418 C 0.0447 0.75014 0.32777 0.0
C419 C 0.02618 0.7502 0.29769 0.0
C420 C 0.87669 0.76026 0.24971 0.0
C421 C 0.87412 0.74303 0.16488 0.0
C422 C 0.89706 0.74292 0.19649 0.0
C423 C 0.95934 0.74047 0.28845 0.0
C424 C 0.93867 0.74176 0.25673 0.0
H425 H 0.93486 0.75734 0.09552 0.0
H426 H 0.97378 0.75504 0.14689 0.0
H427 H 0.80865 0.7761 0.21547 0.0
H428 H 0.89255 0.72086 0.35556 0.0
H429 H 0.86021 0.72162 0.30332 0.0
C430 C 0.78345 0.28603 0.40613 0.0
C431 C 0.82929 0.2771 0.42865 0.0
C432 C 0.80556 0.2879 0.37677 0.0
C433 C 0.95969 0.29819 0.33043 0.0
H434 H 0.8421 0.25064 0.26676 0.0
C435 C 0.0432 0.27262 0.20604 0.0
C436 C 0.99557 0.28337 0.18467 0.0
C437 C 0.02485 0.27269 0.23614 0.0
C438 C 0.87524 0.2644 0.28427 0.0
H439 H 0.93484 0.26375 0.43798 0.0
H440 H 0.97334 0.26638 0.3866 0.0
H441 H 0.8069 0.24924 0.31856 0.0
H442 H 0.89186 0.30396 0.17855 0.0
H443 H 0.8598 0.3035 0.23083 0.0
H444 H 0.02838 0.31283 0.29588 0.0
C445 C 0.92031 0.27252 0.39174 0.0
C446 C 0.85502 0.2637 0.31399 0.0
C447 C 0.89817 0.27085 0.42121 0.0
C448 C 0.92946 0.29465 0.19423 0.0
C449 C 0.91107 0.29448 0.22423 0.0
C450 C 0.98011 0.29867 0.30062 0.0
C451 C 0.87411 0.28066 0.36909 0.0
C452 C 0.8967 0.28087 0.33747 0.0
C453 C 0.95839 0.28326 0.2455 0.0
C454 C 0.93784 0.28205 0.27722 0.0
H455 H 0.73023 0.29147 0.41108 0.0
H456 H 0.76876 0.29513 0.36009 0.0
H457 H 0.99273 0.31211 0.3479 0.0
H458 H 0.0943 0.26325 0.19945 0.0
H459 H 0.06226 0.2635 0.25196 0.0
C460 C 0.95251 0.27749 0.70662 0.0
C461 C 0.00103 0.2869 0.68526 0.0
C462 C 0.96992 0.27852 0.73687 0.0
C463 C 0.10086 0.31924 0.79189 0.0
H464 H 0.03167 0.23268 0.83841 0.0
C465 C 0.21391 0.28672 0.90598 0.0
C466 C 0.16849 0.27852 0.92885 0.0
C467 C 0.19056 0.29002 0.87693 0.0
C468 C 0.05077 0.25736 0.82582 0.0
H469 H 0.10568 0.30564 0.67927 0.0
H470 H 0.13652 0.30606 0.73168 0.0
H471 H 0.9964 0.23403 0.7865 0.0
H472 H 0.06254 0.26769 0.93905 0.0
H473 H 0.02186 0.27339 0.88825 0.0
H474 H 0.15637 0.34196 0.83111 0.0
C475 C 0.08467 0.29849 0.72518 0.0
C476 C 0.03047 0.25821 0.79605 0.0
C477 C 0.06721 0.29764 0.69499 0.0
C478 C 0.09898 0.27404 0.922 0.0
C479 C 0.07567 0.27706 0.89286 0.0
C480 C 0.12147 0.31822 0.82158 0.0
C481 C 0.03633 0.28887 0.74653 0.0
C482 C 0.05566 0.28897 0.77862 0.0
C483 C 0.12125 0.28496 0.86998 0.0
C484 C 0.09705 0.2871 0.83882 0.0
H485 H 0.90123 0.26867 0.69994 0.0
H486 H 0.93114 0.27138 0.75271 0.0
H487 H 0.12025 0.3439 0.77937 0.0
H488 H 0.2677 0.29038 0.9104 0.0
H489 H 0.22709 0.29567 0.85974 0.0
C490 C 0.10272 0.74902 0.61242 0.0
C491 C 0.17237 0.74667 0.60547 0.0
C492 C 0.08054 0.74755 0.64191 0.0
C493 C 0.14231 0.76515 0.71993 0.0
H494 H 0.98015 0.7042 0.73864 0.0
C495 C 0.07339 0.73586 0.84074 0.0
C496 C 0.00498 0.74057 0.84942 0.0
C497 C 0.09213 0.73643 0.8108 0.0
C498 C 0.02515 0.72174 0.73374 0.0
H499 H 0.27302 0.73978 0.6241 0.0
H500 H 0.23452 0.73658 0.67514 0.0
H501 H 0.0158 0.70491 0.68663 0.0
H502 H 0.90246 0.74892 0.83326 0.0
H503 H 0.93538 0.75043 0.78096 0.0
H504 H 0.15191 0.78185 0.76696 0.0
C505 C 0.19699 0.74042 0.65797 0.0
C506 C 0.04557 0.72216 0.70393 0.0
C507 C 0.21909 0.74197 0.62858 0.0
C508 C 0.95569 0.74562 0.82737 0.0
C509 C 0.97444 0.74605 0.79736 0.0
C510 C 0.12201 0.76466 0.74967 0.0
C511 C 0.12752 0.74365 0.66509 0.0
C512 C 0.10467 0.74367 0.69668 0.0
C513 C 0.04295 0.74164 0.78875 0.0
C514 C 0.06342 0.74276 0.75697 0.0
H515 H 0.0653 0.75277 0.5952 0.0
H516 H 0.02671 0.75049 0.64663 0.0
H517 H 0.18727 0.78279 0.71514 0.0
H518 H 0.11272 0.73232 0.85718 0.0
H519 H 0.14525 0.73246 0.80489 0.0
loop_
_geom_bond_atom_site_label_1
_geom_bond_atom_site_label_2
_geom_bond_distance
_geom_bond_site_symmetry_2
_ccdc_geom_bond_type
C0 Eu1 2.835 . S
C0 C2 1.500 . S
C0 O20 1.257 . S
C0 O21 1.260 . S
Eu1 C0 2.835 . S
Eu1 O20 2.473 . S
Eu1 O21 2.480 . S
Eu1 O22 2.430 . S
Eu1 O23 2.670 1_556 S
Eu1 O24 2.394 . S
Eu1 O29 2.352 1_556 S
Eu1 O31 2.374 1_556 S
C2 C0 1.500 . S
C2 C3 1.377 . S
C2 C7 1.377 . S
C3 C2 1.377 . S
C3 C4 1.395 . S
C3 H32 0.931 . S
C4 C3 1.395 . S
C4 C5 1.383 . S
C4 H33 0.931 . S
C5 C4 1.383 . S
C5 C6 1.394 . S
C6 C5 1.394 . S
C6 C7 1.378 . S
C6 H34 0.931 . S
C7 C2 1.377 . S
C7 C6 1.378 . S
C7 H35 0.931 . S
C8 O22 1.259 1_554 S
C8 O23 1.270 . S
C9 O24 1.251 . S
C9 O25 1.251 . S
C10 Eu11 2.835 . S
C10 C12 1.500 . S
C10 O26 1.257 . S
C10 O27 1.260 . S
Eu11 C10 2.835 . S
Eu11 O23 2.355 . S
Eu11 O25 2.374 1_554 S
Eu11 O26 2.473 . S
Eu11 O27 2.480 . S
Eu11 O28 2.430 . S
Eu11 O29 2.679 . S
Eu11 O30 2.394 . S
C12 C10 1.500 . S
C12 C13 1.377 . S
C12 C17 1.377 . S
C13 C12 1.377 . S
C13 C14 1.395 . S
C13 H36 0.931 . S
C14 C13 1.395 . S
C14 C15 1.383 . S
C14 H37 0.931 . S
C15 C14 1.383 . S
C15 C16 1.394 . S
C16 C15 1.394 . S
C16 C17 1.378 . S
C16 H38 0.931 . S
C17 C12 1.377 . S
C17 C16 1.378 . S
C17 H39 0.931 . S
C18 O28 1.259 . S
C18 O29 1.276 . S
C19 O30 1.251 . S
C19 O31 1.251 . S
O20 C0 1.257 . S
O20 Eu1 2.473 . S
O21 C0 1.260 . S
O21 Eu1 2.480 . S
O22 Eu1 2.430 . S
O22 C8 1.259 1_556 S
O23 Eu1 2.670 1_554 S
O23 C8 1.270 . S
O23 Eu11 2.355 . S
O24 Eu1 2.394 . S
O24 C9 1.251 . S
O25 C9 1.251 . S
O25 Eu11 2.374 1_556 S
O26 C10 1.257 . S
O26 Eu11 2.473 . S
O27 C10 1.260 . S
O27 Eu11 2.480 . S
O28 Eu11 2.430 . S
O28 C18 1.259 . S
O29 Eu1 2.352 1_554 S
O29 Eu11 2.679 . S
O29 C18 1.276 . S
O30 Eu11 2.394 . S
O30 C19 1.251 . S
O31 Eu1 2.374 1_554 S
O31 C19 1.251 . S
H32 C3 0.931 . S
H33 C4 0.931 . S
H34 C6 0.931 . S
H35 C7 0.931 . S
H36 C13 0.931 . S
H37 C14 0.931 . S
H38 C16 0.931 . S
H39 C17 0.931 . S
C40 Eu41 2.835 . S
C40 C42 1.500 . S
C40 O60 1.257 . S
C40 O61 1.260 . S
Eu41 C40 2.835 . S
Eu41 O60 2.473 . S
Eu41 O61 2.480 . S
Eu41 O62 2.430 . S
Eu41 O63 2.670 1_556 S
Eu41 O64 2.394 . S
Eu41 O69 2.352 1_556 S
Eu41 O71 2.374 1_556 S
C42 C40 1.500 . S
C42 C43 1.377 . S
C42 C47 1.377 . S
C43 C42 1.377 . S
C43 C44 1.395 . S
C43 H72 0.931 . S
C44 C43 1.395 . S
C44 C45 1.383 . S
C44 H73 0.931 . S
C45 C44 1.383 . S
C45 C46 1.394 . S
C46 C45 1.394 . S
C46 C47 1.378 . S
C46 H74 0.931 . S
C47 C42 1.377 . S
C47 C46 1.378 . S
C47 H75 0.931 . S
C48 O62 1.259 1_554 S
C48 O63 1.270 . S
C49 O64 1.251 . S
C49 O65 1.251 . S
C50 Eu51 2.835 . S
C50 C52 1.500 . S
C50 O66 1.257 . S
C50 O67 1.260 . S
Eu51 C50 2.835 . S
Eu51 O63 2.355 . S
Eu51 O65 2.374 1_554 S
Eu51 O66 2.473 . S
Eu51 O67 2.480 . S
Eu51 O68 2.430 . S
Eu51 O69 2.679 . S
Eu51 O70 2.394 . S
C52 C50 1.500 . S
C52 C53 1.377 . S
C52 C57 1.377 . S
C53 C52 1.377 . S
C53 C54 1.395 . S
C53 H76 0.931 . S
C54 C53 1.395 . S
C54 C55 1.383 . S
C54 H77 0.931 . S
C55 C54 1.383 . S
C55 C56 1.394 . S
C56 C55 1.394 . S
C56 C57 1.378 . S
C56 H78 0.931 . S
C57 C52 1.377 . S
C57 C56 1.378 . S
C57 H79 0.931 . S
C58 O68 1.259 . S
C58 O69 1.276 . S
C59 O70 1.251 . S
C59 O71 1.251 . S
O60 C40 1.257 . S
O60 Eu41 2.473 . S
O61 C40 1.260 . S
O61 Eu41 2.480 . S
O62 Eu41 2.430 . S
O62 C48 1.259 1_556 S
O63 Eu41 2.670 1_554 S
O63 C48 1.270 . S
O63 Eu51 2.355 . S
O64 Eu41 2.394 . S
O64 C49 1.251 . S
O65 C49 1.251 . S
O65 Eu51 2.374 1_556 S
O66 C50 1.257 . S
O66 Eu51 2.473 . S
O67 C50 1.260 . S
O67 Eu51 2.480 . S
O68 Eu51 2.430 . S
O68 C58 1.259 . S
O69 Eu41 2.352 1_554 S
O69 Eu51 2.679 . S
O69 C58 1.276 . S
O70 Eu51 2.394 . S
O70 C59 1.251 . S
O71 Eu41 2.374 1_554 S
O71 C59 1.251 . S
H72 C43 0.931 . S
H73 C44 0.931 . S
H74 C46 0.931 . S
H75 C47 0.931 . S
H76 C53 0.931 . S
H77 C54 0.931 . S
H78 C56 0.931 . S
H79 C57 0.931 . S
C80 Eu81 2.835 . S
C80 C82 1.500 . S
C80 O100 1.257 . S
C80 O101 1.260 . S
Eu81 C80 2.835 . S
Eu81 O100 2.473 . S
Eu81 O101 2.480 . S
Eu81 O102 2.430 . S
Eu81 O103 2.670 . S
Eu81 O104 2.394 . S
Eu81 O109 2.355 . S
Eu81 O111 2.374 . S
C82 C80 1.500 . S
C82 C83 1.377 . S
C82 C87 1.377 . S
C83 C82 1.377 . S
C83 C84 1.395 . S
C83 H112 0.931 . S
C84 C83 1.395 . S
C84 C85 1.383 . S
C84 H113 0.931 . S
C85 C84 1.383 . S
C85 C86 1.394 . S
C86 C85 1.394 . S
C86 C87 1.378 . S
C86 H114 0.931 . S
C87 C82 1.377 . S
C87 C86 1.378 . S
C87 H115 0.931 . S
C88 O102 1.259 . S
C88 O103 1.270 . S
C89 O104 1.251 . S
C89 O105 1.251 . S
C90 Eu91 2.835 . S
C90 C92 1.500 . S
C90 O106 1.257 . S
C90 O107 1.260 . S
Eu91 C90 2.835 . S
Eu91 O103 2.355 . S
Eu91 O105 2.374 . S
Eu91 O106 2.473 . S
Eu91 O107 2.480 . S
Eu91 O108 2.430 . S
Eu91 O109 2.670 . S
Eu91 O110 2.394 . S
C92 C90 1.500 . S
C92 C93 1.377 . S
C92 C97 1.377 . S
C93 C92 1.377 . S
C93 C94 1.395 . S
C93 H116 0.931 . S
C94 C93 1.395 . S
C94 C95 1.383 . S
C94 H117 0.931 . S
C95 C94 1.383 . S
C95 C96 1.394 . S
C96 C95 1.394 . S
C96 C97 1.378 . S
C96 H118 0.931 . S
C97 C92 1.377 . S
C97 C96 1.378 . S
C97 H119 0.931 . S
C98 O108 1.259 . S
C98 O109 1.270 . S
C99 O110 1.251 . S
C99 O111 1.251 . S
O100 C80 1.257 . S
O100 Eu81 2.473 . S
O101 C80 1.260 . S
O101 Eu81 2.480 . S
O102 Eu81 2.430 . S
O102 C88 1.259 . S
O103 Eu81 2.670 . S
O103 C88 1.270 . S
O103 Eu91 2.355 . S
O104 Eu81 2.394 . S
O104 C89 1.251 . S
O105 C89 1.251 . S
O105 Eu91 2.374 . S
O106 C90 1.257 . S
O106 Eu91 2.473 . S
O107 C90 1.260 . S
O107 Eu91 2.480 . S
O108 Eu91 2.430 . S
O108 C98 1.259 . S
O109 Eu81 2.355 . S
O109 Eu91 2.670 . S
O109 C98 1.270 . S
O110 Eu91 2.394 . S
O110 C99 1.251 . S
O111 Eu81 2.374 . S
O111 C99 1.251 . S
H112 C83 0.931 . S
H113 C84 0.931 . S
H114 C86 0.931 . S
H115 C87 0.931 . S
H116 C93 0.931 . S
H117 C94 0.931 . S
H118 C96 0.931 . S
H119 C97 0.931 . S
C120 Eu121 2.835 . S
C120 C122 1.500 . S
C120 O140 1.257 . S
C120 O141 1.260 . S
Eu121 C120 2.835 . S
Eu121 O140 2.473 . S
Eu121 O141 2.480 . S
Eu121 O142 2.430 . S
Eu121 O143 2.670 . S
Eu121 O144 2.394 . S
Eu121 O149 2.355 . S
Eu121 O151 2.374 . S
C122 C120 1.500 . S
C122 C123 1.377 . S
C122 C127 1.377 . S
C123 C122 1.377 . S
C123 C124 1.395 . S
C123 H152 0.931 . S
C124 C123 1.395 . S
C124 C125 1.383 . S
C124 H153 0.931 . S
C125 C124 1.383 . S
C125 C126 1.394 . S
C126 C125 1.394 . S
C126 C127 1.378 . S
C126 H154 0.931 . S
C127 C122 1.377 . S
C127 C126 1.378 . S
C127 H155 0.931 . S
C128 O142 1.259 . S
C128 O143 1.270 . S
C129 O144 1.251 . S
C129 O145 1.251 . S
C130 Eu131 2.835 . S
C130 C132 1.500 . S
C130 O146 1.257 . S
C130 O147 1.260 . S
Eu131 C130 2.835 . S
Eu131 O143 2.355 . S
Eu131 O145 2.374 . S
Eu131 O146 2.473 . S
Eu131 O147 2.480 . S
Eu131 O148 2.430 . S
Eu131 O149 2.670 . S
Eu131 O150 2.394 . S
C132 C130 1.500 . S
C132 C133 1.377 . S
C132 C137 1.377 . S
C133 C132 1.377 . S
C133 C134 1.395 . S
C133 H156 0.931 . S
C134 C133 1.395 . S
C134 C135 1.383 . S
C134 H157 0.931 . S
C135 C134 1.383 . S
C135 C136 1.394 . S
C136 C135 1.394 . S
C136 C137 1.378 . S
C136 H158 0.931 . S
C137 C132 1.377 . S
C137 C136 1.378 . S
C137 H159 0.931 . S
C138 O148 1.259 . S
C138 O149 1.270 . S
C139 O150 1.251 . S
C139 O151 1.251 . S
O140 C120 1.257 . S
O140 Eu121 2.473 . S
O141 C120 1.260 . S
O141 Eu121 2.480 . S
O142 Eu121 2.430 . S
O142 C128 1.259 . S
O143 Eu121 2.670 . S
O143 C128 1.270 . S
O143 Eu131 2.355 . S
O144 Eu121 2.394 . S
O144 C129 1.251 . S
O145 C129 1.251 . S
O145 Eu131 2.374 . S
O146 C130 1.257 . S
O146 Eu131 2.473 . S
O147 C130 1.260 . S
O147 Eu131 2.480 . S
O148 Eu131 2.430 . S
O148 C138 1.259 . S
O149 Eu121 2.355 . S
O149 Eu131 2.670 . S
O149 C138 1.270 . S
O150 Eu131 2.394 . S
O150 C139 1.251 . S
O151 Eu121 2.374 . S
O151 C139 1.251 . S
H152 C123 0.931 . S
H153 C124 0.931 . S
H154 C126 0.931 . S
H155 C127 0.931 . S
H156 C133 0.931 . S
H157 C134 0.931 . S
H158 C136 0.931 . S
H159 C137 0.931 . S
C160 C161 1.349 1_556 S
C160 C162 1.327 . S
C160 H185 0.950 . S
C161 C160 1.349 1_554 S
C161 C177 1.349 . S
C162 C160 1.327 . S
C162 C181 1.429 1_556 S
C162 H186 0.950 . S
C163 C180 1.574 . S
C163 C182 1.368 . S
C163 H187 0.949 . S
H164 C168 0.949 . S
C165 C166 1.349 . S
C165 C167 1.327 . S
C165 H188 0.950 . S
C166 C165 1.349 . S
C166 C178 1.349 1_554 S
C167 C165 1.327 . S
C167 C183 1.429 . S
C167 H189 0.950 . S
C168 H164 0.949 . S
C168 C176 1.574 . S
C168 C184 1.368 1_556 S
H169 C177 0.950 . S
H170 C175 0.950 . S
H171 C176 0.949 . S
H172 C178 0.950 . S
H173 C179 0.950 . S
H174 C180 0.949 . S
C175 H170 0.950 . S
C175 C177 1.327 . S
C175 C181 1.429 . S
C176 C168 1.574 . S
C176 H171 0.949 . S
C176 C182 1.368 1_556 S
C177 C161 1.349 . S
C177 H169 0.950 . S
C177 C175 1.327 . S
C178 C166 1.349 1_556 S
C178 H172 0.950 . S
C178 C179 1.327 . S
C179 H173 0.950 . S
C179 C178 1.327 . S
C179 C183 1.429 1_556 S
C180 C163 1.574 . S
C180 H174 0.949 . S
C180 C184 1.368 . S
C181 C162 1.429 1_554 S
C181 C175 1.429 . S
C181 C182 1.523 . S
C182 C163 1.368 . S
C182 C176 1.368 1_554 S
C182 C181 1.523 . S
C183 C167 1.429 . S
C183 C179 1.429 1_554 S
C183 C184 1.523 . S
C184 C168 1.368 1_554 S
C184 C180 1.368 . S
C184 C183 1.523 . S
H185 C160 0.950 . S
H186 C162 0.950 . S
H187 C163 0.949 . S
H188 C165 0.950 . S
H189 C167 0.950 . S
C190 C191 1.349 . S
C190 C192 1.327 . S
C190 H215 0.950 . S
C191 C190 1.349 . S
C191 C207 1.349 . S
C192 C190 1.327 . S
C192 C211 1.429 . S
C192 H216 0.950 . S
C193 C210 1.574 . S
C193 C212 1.368 . S
C193 H217 0.949 . S
H194 C198 0.949 . S
C195 C196 1.349 . S
C195 C197 1.327 . S
C195 H218 0.950 . S
C196 C195 1.349 . S
C196 C208 1.349 . S
C197 C195 1.327 . S
C197 C213 1.429 . S
C197 H219 0.950 . S
C198 H194 0.949 . S
C198 C206 1.574 . S
C198 C214 1.368 . S
H199 C207 0.950 . S
H200 C205 0.950 . S
H201 C206 0.949 . S
H202 C208 0.950 . S
H203 C209 0.950 . S
H204 C210 0.949 . S
C205 H200 0.950 . S
C205 C207 1.327 . S
C205 C211 1.429 . S
C206 C198 1.574 . S
C206 H201 0.949 . S
C206 C212 1.368 . S
C207 C191 1.349 . S
C207 H199 0.950 . S
C207 C205 1.327 . S
C208 C196 1.349 . S
C208 H202 0.950 . S
C208 C209 1.327 . S
C209 H203 0.950 . S
C209 C208 1.327 . S
C209 C213 1.429 . S
C210 C193 1.574 . S
C210 H204 0.949 . S
C210 C214 1.368 . S
C211 C192 1.429 . S
C211 C205 1.429 . S
C211 C212 1.523 . S
C212 C193 1.368 . S
C212 C206 1.368 . S
C212 C211 1.523 . S
C213 C197 1.429 . S
C213 C209 1.429 . S
C213 C214 1.523 . S
C214 C198 1.368 . S
C214 C210 1.368 . S
C214 C213 1.523 . S
H215 C190 0.950 . S
H216 C192 0.950 . S
H217 C193 0.949 . S
H218 C195 0.950 . S
H219 C197 0.950 . S
C220 C221 1.349 . S
C220 C222 1.327 . S
C220 H245 0.950 . S
C221 C220 1.349 . S
C221 C237 1.349 1_554 S
C222 C220 1.327 . S
C222 C241 1.429 . S
C222 H246 0.950 . S
C223 C240 1.574 1_545 S
C223 C242 1.368 1_556 S
C223 H247 0.949 . S
H224 C228 0.949 . S
C225 C226 1.349 1_556 S
C225 C227 1.327 . S
C225 H248 0.950 . S
C226 C225 1.349 1_554 S
C226 C238 1.349 . S
C227 C225 1.327 . S
C227 C243 1.429 1_556 S
C227 H249 0.950 . S
C228 H224 0.949 . S
C228 C236 1.574 1_565 S
C228 C244 1.368 . S
H229 C237 0.950 . S
H230 C235 0.950 . S
H231 C236 0.949 . S
H232 C238 0.950 . S
H233 C239 0.950 . S
H234 C240 0.949 . S
C235 H230 0.950 . S
C235 C237 1.327 . S
C235 C241 1.429 1_556 S
C236 C228 1.574 1_545 S
C236 H231 0.949 . S
C236 C242 1.368 1_655 S
C237 C221 1.349 1_556 S
C237 H229 0.950 . S
C237 C235 1.327 . S
C238 C226 1.349 . S
C238 H232 0.950 . S
C238 C239 1.327 . S
C239 H233 0.950 . S
C239 C238 1.327 . S
C239 C243 1.429 . S
C240 C223 1.574 1_565 S
C240 H234 0.949 . S
C240 C244 1.368 1_456 S
C241 C222 1.429 . S
C241 C235 1.429 1_554 S
C241 C242 1.523 . S
C242 C223 1.368 1_554 S
C242 C236 1.368 1_455 S
C242 C241 1.523 . S
C243 C227 1.429 1_554 S
C243 C239 1.429 . S
C243 C244 1.523 . S
C244 C228 1.368 . S
C244 C240 1.368 1_654 S
C244 C243 1.523 . S
H245 C220 0.950 . S
H246 C222 0.950 . S
H247 C223 0.949 . S
H248 C225 0.950 . S
H249 C227 0.950 . S
C250 C251 1.349 . S
C250 C252 1.327 . S
C250 H275 0.950 . S
C251 C250 1.349 . S
C251 C267 1.349 . S
C252 C250 1.327 . S
C252 C271 1.429 . S
C252 H276 0.950 . S
C253 C270 1.574 1_545 S
C253 C272 1.368 . S
C253 H277 0.949 . S
H254 C258 0.949 . S
C255 C256 1.349 . S
C255 C257 1.327 . S
C255 H278 0.950 . S
C256 C255 1.349 . S
C256 C268 1.349 . S
C257 C255 1.327 . S
C257 C273 1.429 . S
C257 H279 0.950 . S
C258 H254 0.949 . S
C258 C266 1.574 1_565 S
C258 C274 1.368 . S
H259 C267 0.950 . S
H260 C265 0.950 . S
H261 C266 0.949 . S
H262 C268 0.950 . S
H263 C269 0.950 . S
H264 C270 0.949 . S
C265 H260 0.950 . S
C265 C267 1.327 . S
C265 C271 1.429 . S
C266 C258 1.574 1_545 S
C266 H261 0.949 . S
C266 C272 1.368 1_455 S
C267 C251 1.349 . S
C267 H259 0.950 . S
C267 C265 1.327 . S
C268 C256 1.349 . S
C268 H262 0.950 . S
C268 C269 1.327 . S
C269 H263 0.950 . S
C269 C268 1.327 . S
C269 C273 1.429 . S
C270 C253 1.574 1_565 S
C270 H264 0.949 . S
C270 C274 1.368 1_655 S
C271 C252 1.429 . S
C271 C265 1.429 . S
C271 C272 1.523 . S
C272 C253 1.368 . S
C272 C266 1.368 1_655 S
C272 C271 1.523 . S
C273 C257 1.429 . S
C273 C269 1.429 . S
C273 C274 1.523 . S
C274 C258 1.368 . S
C274 C270 1.368 1_455 S
C274 C273 1.523 . S
H275 C250 0.950 . S
H276 C252 0.950 . S
H277 C253 0.949 . S
H278 C255 0.950 . S
H279 C257 0.950 . S
C280 C281 1.349 . S
C280 C282 1.327 . S
C280 H305 0.950 . S
C281 C280 1.349 . S
C281 C297 1.349 . S
C282 C280 1.327 . S
C282 C301 1.429 . S
C282 H306 0.950 . S
C283 C300 1.574 . S
C283 C302 1.368 . S
C283 H307 0.949 . S
H284 C288 0.949 . S
C285 C286 1.349 . S
C285 C287 1.327 . S
C285 H308 0.950 . S
C286 C285 1.349 . S
C286 C298 1.349 . S
C287 C285 1.327 . S
C287 C303 1.429 . S
C287 H309 0.950 . S
C288 H284 0.949 . S
C288 C296 1.574 . S
C288 C304 1.368 . S
H289 C297 0.950 . S
H290 C295 0.950 . S
H291 C296 0.949 . S
H292 C298 0.950 . S
H293 C299 0.950 . S
H294 C300 0.949 . S
C295 H290 0.950 . S
C295 C297 1.327 . S
C295 C301 1.429 . S
C296 C288 1.574 . S
C296 H291 0.949 . S
C296 C302 1.368 . S
C297 C281 1.349 . S
C297 H289 0.950 . S
C297 C295 1.327 . S
C298 C286 1.349 . S
C298 H292 0.950 . S
C298 C299 1.327 . S
C299 H293 0.950 . S
C299 C298 1.327 . S
C299 C303 1.429 . S
C300 C283 1.574 . S
C300 H294 0.949 . S
C300 C304 1.368 . S
C301 C282 1.429 . S
C301 C295 1.429 . S
C301 C302 1.523 . S
C302 C283 1.368 . S
C302 C296 1.368 . S
C302 C301 1.523 . S
C303 C287 1.429 . S
C303 C299 1.429 . S
C303 C304 1.523 . S
C304 C288 1.368 . S
C304 C300 1.368 . S
C304 C303 1.523 . S
H305 C280 0.950 . S
H306 C282 0.950 . S
H307 C283 0.949 . S
H308 C285 0.950 . S
H309 C287 0.950 . S
C310 C311 1.349 . S
C310 C312 1.327 . S
C310 H335 0.950 . S
C311 C310 1.349 . S
C311 C327 1.349 . S
C312 C310 1.327 . S
C312 C331 1.429 . S
C312 H336 0.950 . S
C313 C330 1.574 . S
C313 C332 1.368 . S
C313 H337 0.949 . S
H314 C318 0.949 . S
C315 C316 1.349 . S
C315 C317 1.327 . S
C315 H338 0.950 . S
C316 C315 1.349 . S
C316 C328 1.349 . S
C317 C315 1.327 . S
C317 C333 1.429 . S
C317 H339 0.950 . S
C318 H314 0.949 . S
C318 C326 1.574 . S
C318 C334 1.368 . S
H319 C327 0.950 . S
H320 C325 0.950 . S
H321 C326 0.949 . S
H322 C328 0.950 . S
H323 C329 0.950 . S
H324 C330 0.949 . S
C325 H320 0.950 . S
C325 C327 1.327 . S
C325 C331 1.429 . S
C326 C318 1.574 . S
C326 H321 0.949 . S
C326 C332 1.368 . S
C327 C311 1.349 . S
C327 H319 0.950 . S
C327 C325 1.327 . S
C328 C316 1.349 . S
C328 H322 0.950 . S
C328 C329 1.327 . S
C329 H323 0.950 . S
C329 C328 1.327 . S
C329 C333 1.429 . S
C330 C313 1.574 . S
C330 H324 0.949 . S
C330 C334 1.368 . S
C331 C312 1.429 . S
C331 C325 1.429 . S
C331 C332 1.523 . S
C332 C313 1.368 . S
C332 C326 1.368 . S
C332 C331 1.523 . S
C333 C317 1.429 . S
C333 C329 1.429 . S
C333 C334 1.523 . S
C334 C318 1.368 . S
C334 C330 1.368 . S
C334 C333 1.523 . S
H335 C310 0.950 . S
H336 C312 0.950 . S
H337 C313 0.949 . S
H338 C315 0.950 . S
H339 C317 0.950 . S
C340 C341 1.349 . S
C340 C342 1.327 . S
C340 H365 0.950 . S
C341 C340 1.349 . S
C341 C357 1.349 . S
C342 C340 1.327 . S
C342 C361 1.429 . S
C342 H366 0.950 . S
C343 C360 1.574 . S
C343 C362 1.368 . S
C343 H367 0.949 . S
H344 C348 0.949 . S
C345 C346 1.349 . S
C345 C347 1.327 . S
C345 H368 0.950 . S
C346 C345 1.349 . S
C346 C358 1.349 . S
C347 C345 1.327 . S
C347 C363 1.429 . S
C347 H369 0.950 . S
C348 H344 0.949 . S
C348 C356 1.574 . S
C348 C364 1.368 . S
H349 C357 0.950 . S
H350 C355 0.950 . S
H351 C356 0.949 . S
H352 C358 0.950 . S
H353 C359 0.950 . S
H354 C360 0.949 . S
C355 H350 0.950 . S
C355 C357 1.327 . S
C355 C361 1.429 . S
C356 C348 1.574 . S
C356 H351 0.949 . S
C356 C362 1.368 . S
C357 C341 1.349 . S
C357 H349 0.950 . S
C357 C355 1.327 . S
C358 C346 1.349 . S
C358 H352 0.950 . S
C358 C359 1.327 . S
C359 H353 0.950 . S
C359 C358 1.327 . S
C359 C363 1.429 . S
C360 C343 1.574 . S
C360 H354 0.949 . S
C360 C364 1.368 . S
C361 C342 1.429 . S
C361 C355 1.429 . S
C361 C362 1.523 . S
C362 C343 1.368 . S
C362 C356 1.368 . S
C362 C361 1.523 . S
C363 C347 1.429 . S
C363 C359 1.429 . S
C363 C364 1.523 . S
C364 C348 1.368 . S
C364 C360 1.368 . S
C364 C363 1.523 . S
H365 C340 0.950 . S
H366 C342 0.950 . S
H367 C343 0.949 . S
H368 C345 0.950 . S
H369 C347 0.950 . S
C370 C371 1.349 . S
C370 C372 1.327 . S
C370 H395 0.950 . S
C371 C370 1.349 . S
C371 C387 1.349 . S
C372 C370 1.327 . S
C372 C391 1.429 . S
C372 H396 0.950 . S
C373 C390 1.574 . S
C373 C392 1.368 . S
C373 H397 0.949 . S
H374 C378 0.949 . S
C375 C376 1.349 . S
C375 C377 1.327 . S
C375 H398 0.950 . S
C376 C375 1.349 . S
C376 C388 1.349 . S
C377 C375 1.327 . S
C377 C393 1.429 . S
C377 H399 0.950 . S
C378 H374 0.949 . S
C378 C386 1.574 . S
C378 C394 1.368 . S
H379 C387 0.950 . S
H380 C385 0.950 . S
H381 C386 0.949 . S
H382 C388 0.950 . S
H383 C389 0.950 . S
H384 C390 0.949 . S
C385 H380 0.950 . S
C385 C387 1.327 . S
C385 C391 1.429 . S
C386 C378 1.574 . S
C386 H381 0.949 . S
C386 C392 1.368 . S
C387 C371 1.349 . S
C387 H379 0.950 . S
C387 C385 1.327 . S
C388 C376 1.349 . S
C388 H382 0.950 . S
C388 C389 1.327 . S
C389 H383 0.950 . S
C389 C388 1.327 . S
C389 C393 1.429 . S
C390 C373 1.574 . S
C390 H384 0.949 . S
C390 C394 1.368 . S
C391 C372 1.429 . S
C391 C385 1.429 . S
C391 C392 1.523 . S
C392 C373 1.368 . S
C392 C386 1.368 . S
C392 C391 1.523 . S
C393 C377 1.429 . S
C393 C389 1.429 . S
C393 C394 1.523 . S
C394 C378 1.368 . S
C394 C390 1.368 . S
C394 C393 1.523 . S
H395 C370 0.950 . S
H396 C372 0.950 . S
H397 C373 0.949 . S
H398 C375 0.950 . S
H399 C377 0.950 . S
C400 C401 1.349 . S
C400 C402 1.327 . S
C400 H425 0.950 . S
C401 C400 1.349 . S
C401 C417 1.349 . S
C402 C400 1.327 . S
C402 C421 1.429 . S
C402 H426 0.950 . S
C403 C420 1.574 . S
C403 C422 1.368 . S
C403 H427 0.949 . S
H404 C408 0.949 1_455 S
C405 C406 1.349 1_655 S
C405 C407 1.327 . S
C405 H428 0.950 . S
C406 C405 1.349 1_455 S
C406 C418 1.349 . S
C407 C405 1.327 . S
C407 C423 1.429 . S
C407 H429 0.950 . S
C408 H404 0.949 1_655 S
C408 C416 1.574 . S
C408 C424 1.368 . S
H409 C417 0.950 . S
H410 C415 0.950 . S
H411 C416 0.949 . S
H412 C418 0.950 . S
H413 C419 0.950 . S
H414 C420 0.949 . S
C415 H410 0.950 . S
C415 C417 1.327 . S
C415 C421 1.429 . S
C416 C408 1.574 . S
C416 H411 0.949 . S
C416 C422 1.368 . S
C417 C401 1.349 . S
C417 H409 0.950 . S
C417 C415 1.327 . S
C418 C406 1.349 . S
C418 H412 0.950 . S
C418 C419 1.327 . S
C419 H413 0.950 . S
C419 C418 1.327 . S
C419 C423 1.429 1_455 S
C420 C403 1.574 . S
C420 H414 0.949 . S
C420 C424 1.368 . S
C421 C402 1.429 . S
C421 C415 1.429 . S
C421 C422 1.523 . S
C422 C403 1.368 . S
C422 C416 1.368 . S
C422 C421 1.523 . S
C423 C407 1.429 . S
C423 C419 1.429 1_655 S
C423 C424 1.523 . S
C424 C408 1.368 . S
C424 C420 1.368 . S
C424 C423 1.523 . S
H425 C400 0.950 . S
H426 C402 0.950 . S
H427 C403 0.949 . S
H428 C405 0.950 . S
H429 C407 0.950 . S
C430 C431 1.349 . S
C430 C432 1.327 . S
C430 H455 0.950 . S
C431 C430 1.349 . S
C431 C447 1.349 . S
C432 C430 1.327 . S
C432 C451 1.429 . S
C432 H456 0.950 . S
C433 C450 1.574 . S
C433 C452 1.368 . S
C433 H457 0.949 . S
H434 C438 0.949 . S
C435 C436 1.349 . S
C435 C437 1.327 . S
C435 H458 0.950 . S
C436 C435 1.349 . S
C436 C448 1.349 1_455 S
C437 C435 1.327 . S
C437 C453 1.429 1_455 S
C437 H459 0.950 . S
C438 H434 0.949 . S
C438 C446 1.574 . S
C438 C454 1.368 . S
H439 C447 0.950 . S
H440 C445 0.950 . S
H441 C446 0.949 . S
H442 C448 0.950 . S
H443 C449 0.950 . S
H444 C450 0.949 1_455 S
C445 H440 0.950 . S
C445 C447 1.327 . S
C445 C451 1.429 . S
C446 C438 1.574 . S
C446 H441 0.949 . S
C446 C452 1.368 . S
C447 C431 1.349 . S
C447 H439 0.950 . S
C447 C445 1.327 . S
C448 C436 1.349 1_655 S
C448 H442 0.950 . S
C448 C449 1.327 . S
C449 H443 0.950 . S
C449 C448 1.327 . S
C449 C453 1.429 . S
C450 C433 1.574 . S
C450 H444 0.949 1_655 S
C450 C454 1.368 . S
C451 C432 1.429 . S
C451 C445 1.429 . S
C451 C452 1.523 . S
C452 C433 1.368 . S
C452 C446 1.368 . S
C452 C451 1.523 . S
C453 C437 1.429 1_655 S
C453 C449 1.429 . S
C453 C454 1.523 . S
C454 C438 1.368 . S
C454 C450 1.368 . S
C454 C453 1.523 . S
H455 C430 0.950 . S
H456 C432 0.950 . S
H457 C433 0.949 . S
H458 C435 0.950 . S
H459 C437 0.950 . S
C460 C461 1.349 . S
C460 C462 1.327 . S
C460 H485 0.950 . S
C461 C460 1.349 . S
C461 C477 1.349 1_655 S
C462 C460 1.327 . S
C462 C481 1.429 1_655 S
C462 H486 0.950 . S
C463 C480 1.574 . S
C463 C482 1.368 . S
C463 H487 0.949 . S
H464 C468 0.949 . S
C465 C466 1.349 . S
C465 C467 1.327 . S
C465 H488 0.950 . S
C466 C465 1.349 . S
C466 C478 1.349 . S
C467 C465 1.327 . S
C467 C483 1.429 . S
C467 H489 0.950 . S
C468 H464 0.949 . S
C468 C476 1.574 . S
C468 C484 1.368 . S
H469 C477 0.950 . S
H470 C475 0.950 . S
H471 C476 0.949 1_655 S
H472 C478 0.950 . S
H473 C479 0.950 . S
H474 C480 0.949 . S
C475 H470 0.950 . S
C475 C477 1.327 . S
C475 C481 1.429 . S
C476 C468 1.574 . S
C476 H471 0.949 1_455 S
C476 C482 1.368 . S
C477 C461 1.349 1_455 S
C477 H469 0.950 . S
C477 C475 1.327 . S
C478 C466 1.349 . S
C478 H472 0.950 . S
C478 C479 1.327 . S
C479 H473 0.950 . S
C479 C478 1.327 . S
C479 C483 1.429 . S
C480 C463 1.574 . S
C480 H474 0.949 . S
C480 C484 1.368 . S
C481 C462 1.429 1_455 S
C481 C475 1.429 . S
C481 C482 1.523 . S
C482 C463 1.368 . S
C482 C476 1.368 . S
C482 C481 1.523 . S
C483 C467 1.429 . S
C483 C479 1.429 . S
C483 C484 1.523 . S
C484 C468 1.368 . S
C484 C480 1.368 . S
C484 C483 1.523 . S
H485 C460 0.950 . S
H486 C462 0.950 . S
H487 C463 0.949 . S
H488 C465 0.950 . S
H489 C467 0.950 . S
C490 C491 1.349 . S
C490 C492 1.327 . S
C490 H515 0.950 . S
C491 C490 1.349 . S
C491 C507 1.349 . S
C492 C490 1.327 . S
C492 C511 1.429 . S
C492 H516 0.950 . S
C493 C510 1.574 . S
C493 C512 1.368 . S
C493 H517 0.949 . S
H494 C498 0.949 1_655 S
C495 C496 1.349 1_455 S
C495 C497 1.327 . S
C495 H518 0.950 . S
C496 C495 1.349 1_655 S
C496 C508 1.349 . S
C497 C495 1.327 . S
C497 C513 1.429 . S
C497 H519 0.950 . S
C498 H494 0.949 1_455 S
C498 C506 1.574 . S
C498 C514 1.368 . S
H499 C507 0.950 . S
H500 C505 0.950 . S
H501 C506 0.949 . S
H502 C508 0.950 . S
H503 C509 0.950 . S
H504 C510 0.949 . S
C505 H500 0.950 . S
C505 C507 1.327 . S
C505 C511 1.429 . S
C506 C498 1.574 . S
C506 H501 0.949 . S
C506 C512 1.368 . S
C507 C491 1.349 . S
C507 H499 0.950 . S
C507 C505 1.327 . S
C508 C496 1.349 . S
C508 H502 0.950 . S
C508 C509 1.327 . S
C509 H503 0.950 . S
C509 C508 1.327 . S
C509 C513 1.429 1_655 S
C510 C493 1.574 . S
C510 H504 0.949 . S
C510 C514 1.368 . S
C511 C492 1.429 . S
C511 C505 1.429 . S
C511 C512 1.523 . S
C512 C493 1.368 . S
C512 C506 1.368 . S
C512 C511 1.523 . S
C513 C497 1.429 . S
C513 C509 1.429 1_455 S
C513 C514 1.523 . S
C514 C498 1.368 . S
C514 C510 1.368 . S
C514 C513 1.523 . S
H515 C490 0.950 . S
H516 C492 0.950 . S
H517 C493 0.949 . S
H518 C495 0.950 . S
H519 C497 0.950 . S
C161 C48 1.499 . S
C166 C18 1.499 . S
C191 C98 1.499 . S
C196 C128 1.499 . S
C221 C8 1.499 . S
C226 C58 1.499 . S
C251 C138 1.499 . S
C256 C88 1.499 . S
C281 C135 1.203 . S
C286 C19 1.201 . S
C311 C55 1.203 . S
C316 C99 1.201 . S
C341 C49 1.201 . S
C346 C85 1.203 . S
C371 C129 1.201 . S
C376 C5 1.203 . S
C401 C59 1.201 . S
C406 C95 1.203 . S
C431 C139 1.201 . S
C436 C15 1.203 . S
C461 C125 1.203 . S
C466 C9 1.201 . S
C491 C89 1.201 . S
C496 C45 1.203 . S
