# Generated by pormake.
# Topology lhb, (8)-cn, num edge types: 1
# Building blocks:
#     Node 0, Type 0, BuildingBlock: EBIMEJ_clean_sbu_0, # of connection points: 8
#     Node 1, Type 0, BuildingBlock: EBIMEJ_clean_sbu_0, # of connection points: 8
#     Node 2, Type 0, BuildingBlock: EBIMEJ_clean_sbu_0, # of connection points: 8
#     Node 3, Type 0, BuildingBlock: EBIMEJ_clean_sbu_0, # of connection points: 8
#     Node 4, Type 0, BuildingBlock: EBIMEJ_clean_sbu_0, # of connection points: 8
#     Node 5, Type 0, BuildingBlock: EBIMEJ_clean_sbu_0, # of connection points: 8
#     Node 6, Type 0, BuildingBlock: EBIMEJ_clean_sbu_0, # of connection points: 8
#     Node 7, Type 0, BuildingBlock: EBIMEJ_clean_sbu_0, # of connection points: 8
#     Edge 8, Type (0, 0), BuildingBlock: XIVTED_clean_linker_0, # of connection points: 2
#     Edge 9, Type (0, 0), BuildingBlock: XIVTED_clean_linker_0, # of connection points: 2
#     Edge 10, Type (0, 0), BuildingBlock: XIVTED_clean_linker_0, # of connection points: 2
#     Edge 11, Type (0, 0), BuildingBlock: XIVTED_clean_linker_0, # of connection points: 2
#     Edge 12, Type (0, 0), BuildingBlock: XIVTED_clean_linker_0, # of connection points: 2
#     Edge 13, Type (0, 0), BuildingBlock: XIVTED_clean_linker_0, # of connection points: 2
#     Edge 14, Type (0, 0), BuildingBlock: XIVTED_clean_linker_0, # of connection points: 2
#     Edge 15, Type (0, 0), BuildingBlock: XIVTED_clean_linker_0, # of connection points: 2
#     Edge 16, Type (0, 0), BuildingBlock: XIVTED_clean_linker_0, # of connection points: 2
#     Edge 17, Type (0, 0), BuildingBlock: XIVTED_clean_linker_0, # of connection points: 2
#     Edge 18, Type (0, 0), BuildingBlock: XIVTED_clean_linker_0, # of connection points: 2
#     Edge 19, Type (0, 0), BuildingBlock: XIVTED_clean_linker_0, # of connection points: 2
#     Edge 20, Type (0, 0), BuildingBlock: XIVTED_clean_linker_0, # of connection points: 2
#     Edge 21, Type (0, 0), BuildingBlock: XIVTED_clean_linker_0, # of connection points: 2
#     Edge 22, Type (0, 0), BuildingBlock: XIVTED_clean_linker_0, # of connection points: 2
#     Edge 23, Type (0, 0), BuildingBlock: XIVTED_clean_linker_0, # of connection points: 2
#     Edge 24, Type (0, 0), BuildingBlock: XIVTED_clean_linker_0, # of connection points: 2
#     Edge 25, Type (0, 0), BuildingBlock: XIVTED_clean_linker_0, # of connection points: 2
#     Edge 26, Type (0, 0), BuildingBlock: XIVTED_clean_linker_0, # of connection points: 2
#     Edge 27, Type (0, 0), BuildingBlock: XIVTED_clean_linker_0, # of connection points: 2
#     Edge 28, Type (0, 0), BuildingBlock: XIVTED_clean_linker_0, # of connection points: 2
#     Edge 29, Type (0, 0), BuildingBlock: XIVTED_clean_linker_0, # of connection points: 2
#     Edge 30, Type (0, 0), BuildingBlock: XIVTED_clean_linker_0, # of connection points: 2
#     Edge 31, Type (0, 0), BuildingBlock: XIVTED_clean_linker_0, # of connection points: 2
#     Edge 32, Type (0, 0), BuildingBlock: XIVTED_clean_linker_0, # of connection points: 2
#     Edge 33, Type (0, 0), BuildingBlock: XIVTED_clean_linker_0, # of connection points: 2
#     Edge 34, Type (0, 0), BuildingBlock: XIVTED_clean_linker_0, # of connection points: 2
#     Edge 35, Type (0, 0), BuildingBlock: XIVTED_clean_linker_0, # of connection points: 2
#     Edge 36, Type (0, 0), BuildingBlock: XIVTED_clean_linker_0, # of connection points: 2
#     Edge 37, Type (0, 0), BuildingBlock: XIVTED_clean_linker_0, # of connection points: 2
#     Edge 38, Type (0, 0), BuildingBlock: XIVTED_clean_linker_0, # of connection points: 2
#     Edge 39, Type (0, 0), BuildingBlock: XIVTED_clean_linker_0, # of connection points: 2
# Relax obj value: 0.072
# Max RMSD: 0.174
# Mean RMSD: 0.174
data_MOF--net-lhb--node1-EBIMEJ_clean_sbu_0--edge1-XIVTED_clean_linker_0
_symmetry_space_group_name_H-M    P1
_symmetry_Int_Tables_number       1
_symmetry_cell_setting            triclinic
loop_
_symmetry_equiv_pos_as_xyz
'x, y, z'
_cell_length_a     31.407677
_cell_length_b     15.819544
_cell_length_c     67.580407
_cell_angle_alpha  81.702409
_cell_angle_beta   90.055421
_cell_angle_gamma 90.076376
loop_
_atom_site_label
_atom_site_type_symbol
_atom_site_fract_x
_atom_site_fract_y
_atom_site_fract_z
_atom_type_partial_charge
Co0 Co 0.98994 0.92636 0.98622 0.0
Co1 Co 0.07141 -0.0108 1.01137 0.0
Co2 Co 0.9899 0.93307 0.03298 0.0
H3 H 0.99698 0.95023 1.0097 0.0
O4 O 0.00983 -0.00235 1.00583 0.0
H5 H 0.06247 -0.01632 0.03488 0.0
O6 O 0.05113 0.93521 0.03932 0.0
Co7 Co 0.06464 0.01905 0.05765 0.0
O8 O 0.12523 0.0459 0.04747 0.0
O9 O 0.13255 -0.01031 1.01892 0.0
O10 O 0.02495 0.95061 0.07817 0.0
O11 O 0.9749 0.88858 0.06113 0.0
O12 O 0.97803 0.91647 0.95669 0.0
O13 O 0.94364 0.00227 0.97084 0.0
O14 O 0.02927 0.10744 0.04093 0.0
O15 O 0.06866 0.11378 1.01363 0.0
C16 C 0.91329 0.88334 1.01214 0.0
C17 C 0.075 -0.01947 0.96727 0.0
C18 C 0.08889 0.07419 0.08895 0.0
C19 C 0.01809 0.78073 1.01439 0.0
C20 C 0.14793 0.02701 0.03297 0.0
C21 C 0.99168 0.90403 0.0775 0.0
C22 C 0.94944 0.97236 0.95482 0.0
C23 C 0.04442 0.14937 0.02509 0.0
O24 O 0.9351 0.87103 0.99692 0.0
O25 O 0.92832 0.92344 0.02577 0.0
O26 O 0.08825 0.01698 0.98204 0.0
O27 O 0.04087 0.93652 0.96796 0.0
O28 O 0.05181 0.04883 0.08607 0.0
O29 O 0.11214 0.06787 0.07414 0.0
O30 O 0.02362 0.82314 0.99718 0.0
O31 O 0.99974 0.81253 0.02845 0.0
Co32 Co 0.21767 0.28053 0.3065 0.0
Co33 Co 0.29013 0.18758 0.28254 0.0
Co34 Co 0.20893 0.24493 0.26077 0.0
H35 H 0.21841 0.24185 0.28415 0.0
O36 O 0.2291 0.19315 0.28889 0.0
H37 H 0.28301 0.20372 0.25933 0.0
O38 O 0.27052 0.25126 0.25522 0.0
Co39 Co 0.2897 0.17796 0.23605 0.0
O40 O 0.34381 0.11994 0.24685 0.0
O41 O 0.35154 0.17444 0.27538 0.0
O42 O 0.23858 0.18604 0.21794 0.0
O43 O 0.19201 0.26997 0.23139 0.0
O44 O 0.21624 0.37193 0.3258 0.0
O45 O 0.18314 0.25856 0.33283 0.0
O46 O 0.25429 0.0776 0.24725 0.0
O47 O 0.27876 0.06711 0.27842 0.0
C48 C 0.13336 0.28642 0.28259 0.0
C49 C 0.2917 0.17045 0.32673 0.0
C50 C 0.3313 0.22529 0.20517 0.0
C51 C 0.23832 0.40551 0.27314 0.0
C52 C 0.36593 0.13242 0.26198 0.0
C53 C 0.20484 0.23117 0.21695 0.0
C54 C 0.19251 0.32873 0.33838 0.0
C55 C 0.25972 0.03552 0.2645 0.0
O56 O 0.15684 0.30648 0.29673 0.0
O57 O 0.14791 0.24832 0.26849 0.0
O58 O 0.30481 0.14427 0.31076 0.0
O59 O 0.26093 0.22341 0.32691 0.0
O60 O 0.30784 0.16038 0.2077 0.0
O61 O 0.33142 0.26331 0.22025 0.0
O62 O 0.25403 0.36406 0.2889 0.0
O63 O 0.21272 0.36986 0.26227 0.0
Co64 Co 0.71475 0.77104 0.30777 0.0
Co65 Co 0.78765 0.68039 0.28318 0.0
Co66 Co 0.70689 0.74052 0.26146 0.0
H67 H 0.71597 0.73533 0.28501 0.0
O68 O 0.72657 0.68623 0.28945 0.0
H69 H 0.7813 0.70001 0.25987 0.0
O70 O 0.76868 0.74775 0.25612 0.0
Co71 Co 0.78917 0.67849 0.23622 0.0
O72 O 0.84231 0.61688 0.24717 0.0
O73 O 0.84921 0.66686 0.27628 0.0
O74 O 0.73719 0.68468 0.21853 0.0
O75 O 0.69022 0.76748 0.23206 0.0
O76 O 0.66907 0.82948 0.32344 0.0
O77 O 0.72622 0.79212 0.33699 0.0
O78 O 0.75494 0.57444 0.24615 0.0
O79 O 0.77532 0.5616 0.27805 0.0
C80 C 0.63088 0.77945 0.28322 0.0
C81 C 0.78736 0.65401 0.32753 0.0
C82 C 0.83231 0.73257 0.20593 0.0
C83 C 0.73475 0.90011 0.27514 0.0
C84 C 0.8638 0.62598 0.26273 0.0
C85 C 0.70295 0.72847 0.21762 0.0
C86 C 0.6909 0.82668 0.3391 0.0
C87 C 0.758 0.5315 0.26346 0.0
O88 O 0.65395 0.79731 0.29775 0.0
O89 O 0.64577 0.74276 0.26897 0.0
O90 O 0.80164 0.63286 0.31121 0.0
O91 O 0.75613 0.70585 0.32812 0.0
O92 O 0.84486 0.67725 0.21988 0.0
O93 O 0.7956 0.75803 0.20929 0.0
O94 O 0.75067 0.85705 0.29065 0.0
O95 O 0.71021 0.86509 0.26367 0.0
Co96 Co 0.98965 0.42374 0.48654 0.0
Co97 Co 0.07075 0.49248 0.51069 0.0
Co98 Co 0.99097 0.43212 0.53306 0.0
H99 H 0.9969 0.44959 0.50978 0.0
O100 O 0.0089 0.49769 0.50565 0.0
H101 H 0.06228 0.48936 0.53421 0.0
O102 O 0.05208 0.44019 0.53894 0.0
Co103 Co 0.06385 0.52674 0.55674 0.0
O104 O 0.12413 0.55372 0.54631 0.0
O105 O 0.13198 0.49635 0.51789 0.0
O106 O 0.02176 0.46676 0.57736 0.0
O107 O 0.97784 0.38696 0.5613 0.0
O108 O 0.9786 0.41971 0.45667 0.0
O109 O 0.94159 0.49746 0.47192 0.0
O110 O 0.02696 0.60893 0.53911 0.0
O111 O 0.06741 0.61772 0.51223 0.0
C112 C 0.91441 0.37567 0.51302 0.0
C113 C 0.0769 0.46178 0.46898 0.0
C114 C 0.0884 0.57432 0.58887 0.0
C115 C 0.02275 0.28243 0.51447 0.0
C116 C 0.14701 0.53441 0.53191 0.0
C117 C 0.99138 0.41268 0.57727 0.0
C118 C 0.94851 0.47216 0.45544 0.0
C119 C 0.04317 0.65272 0.52379 0.0
O120 O 0.93553 0.36579 0.49743 0.0
O121 O 0.92945 0.41665 0.52648 0.0
O122 O 0.08634 0.51487 0.48113 0.0
O123 O 0.04423 0.41346 0.47152 0.0
O124 O 0.07676 0.62408 0.57365 0.0
O125 O 0.08625 0.49802 0.58577 0.0
O126 O 0.02638 0.32473 0.49715 0.0
O127 O 1.00367 0.31237 0.52861 0.0
Co128 Co 0.2162 0.77658 0.80743 0.0
Co129 Co 0.28855 0.68316 0.78312 0.0
Co130 Co 0.20771 0.74135 0.76148 0.0
H131 H 0.21707 0.73855 0.78495 0.0
O132 O 0.22765 0.68969 0.78961 0.0
H133 H 0.28143 0.6995 0.75986 0.0
O134 O 0.26924 0.74742 0.75583 0.0
Co135 Co 0.28741 0.67292 0.7366 0.0
O136 O 0.3424 0.61706 0.74708 0.0
O137 O 0.34977 0.66953 0.7759 0.0
O138 O 0.2324 0.66379 0.72163 0.0
O139 O 0.1911 0.76447 0.73208 0.0
O140 O 0.16921 0.83002 0.82337 0.0
O141 O 0.22823 0.8036 0.83616 0.0
O142 O 0.25128 0.57389 0.7479 0.0
O143 O 0.27638 0.56292 0.77895 0.0
C144 C 0.13197 0.7822 0.78319 0.0
C145 C 0.28948 0.66225 0.82741 0.0
C146 C 0.32741 0.71982 0.70508 0.0
C147 C 0.23578 0.90247 0.77414 0.0
C148 C 0.36432 0.62849 0.76236 0.0
C149 C 0.20007 0.71302 0.71951 0.0
C150 C 0.19178 0.83281 0.8386 0.0
C151 C 0.25646 0.53199 0.76518 0.0
O152 O 0.15521 0.80156 0.79751 0.0
O153 O 0.1467 0.74446 0.76908 0.0
O154 O 0.30314 0.63876 0.81124 0.0
O155 O 0.25848 0.71475 0.82786 0.0
O156 O 0.30156 0.65877 0.7075 0.0
O157 O 0.33077 0.75445 0.72061 0.0
O158 O 0.25215 0.86037 0.78967 0.0
O159 O 0.21107 0.86638 0.76296 0.0
Co160 Co 0.71706 0.27735 0.80665 0.0
Co161 Co 0.78997 0.18528 0.78257 0.0
Co162 Co 0.70926 0.2445 0.76071 0.0
H163 H 0.71832 0.23997 0.78415 0.0
O164 O 0.72887 0.19098 0.78876 0.0
H165 H 0.7832 0.2025 0.75929 0.0
O166 O 0.77091 0.25036 0.75532 0.0
Co167 Co 0.78991 0.17798 0.73587 0.0
O168 O 0.84412 0.12027 0.74673 0.0
O169 O 0.85143 0.1726 0.77557 0.0
O170 O 0.7391 0.18844 0.71749 0.0
O171 O 0.69271 0.27144 0.73135 0.0
O172 O 0.71268 0.36957 0.82569 0.0
O173 O 0.68512 0.25088 0.83363 0.0
O174 O 0.75401 0.07797 0.74685 0.0
O175 O 0.77885 0.06524 0.77798 0.0
C176 C 0.63352 0.2871 0.78212 0.0
C177 C 0.79031 0.1644 0.82685 0.0
C178 C 0.83113 0.22297 0.70473 0.0
C179 C 0.73915 0.40382 0.77361 0.0
C180 C 0.86602 0.13167 0.76202 0.0
C181 C 0.70542 0.23363 0.71673 0.0
C182 C 0.69168 0.32293 0.83882 0.0
C183 C 0.75981 0.03459 0.76392 0.0
O184 O 0.65678 0.30665 0.7964 0.0
O185 O 0.6482 0.24809 0.76822 0.0
O186 O 0.80414 0.14027 0.81077 0.0
O187 O 0.7594 0.21703 0.82711 0.0
O188 O 0.80239 0.16726 0.70648 0.0
O189 O 0.83671 0.25322 0.72073 0.0
O190 O 0.7538 0.36226 0.7896 0.0
O191 O 0.71357 0.3691 0.76255 0.0
Co192 Co 0.48894 0.9283 0.4863 0.0
Co193 Co 0.57341 -0.01606 0.51213 0.0
Co194 Co 0.49205 0.92721 0.53367 0.0
H195 H 0.49836 0.94641 0.51022 0.0
O196 O 0.51179 -0.00663 0.50661 0.0
H197 H 0.56408 -0.02043 0.53556 0.0
O198 O 0.55316 0.93079 0.54008 0.0
Co199 Co 0.56512 0.01752 0.55799 0.0
O200 O 0.62615 0.0422 0.54813 0.0
O201 O 0.6344 -0.01581 0.51986 0.0
O202 O 0.52088 0.96073 0.57812 0.0
O203 O 0.47744 0.88125 0.56175 0.0
O204 O 0.48138 0.92893 0.45607 0.0
O205 O 0.44526 0.01039 0.47077 0.0
O206 O 0.52921 0.10352 0.54069 0.0
O207 O 0.57108 0.10857 0.51422 0.0
C208 C 0.41353 0.88286 0.51275 0.0
C209 C 0.57602 -0.02286 0.46796 0.0
C210 C 0.59039 0.07034 0.58946 0.0
C211 C 0.50542 0.7688 0.51356 0.0
C212 C 0.64935 0.02211 0.53391 0.0
C213 C 0.49006 0.90759 0.57779 0.0
C214 C 0.45297 -0.01482 0.45434 0.0
C215 C 0.54469 0.14377 0.52474 0.0
O216 O 0.43363 0.87516 0.49678 0.0
O217 O 0.43021 0.91786 0.52684 0.0
O218 O 0.59039 0.01115 0.48287 0.0
O219 O 0.54073 0.93696 0.46844 0.0
O220 O 0.603 0.09902 0.57215 0.0
O221 O 0.56386 0.01139 0.58887 0.0
O222 O 0.50136 0.80614 0.49578 0.0
O223 O 0.50246 0.80675 0.52892 0.0
Co224 Co 0.49019 0.42469 0.98643 0.0
Co225 Co 0.5705 0.49377 1.01095 0.0
Co226 Co 0.49023 0.43365 0.0329 0.0
H227 H 0.49678 0.45079 1.00967 0.0
O228 O 0.50882 0.49886 1.00558 0.0
H229 H 0.56141 0.49086 0.03443 0.0
O230 O 0.55118 0.44168 0.03914 0.0
Co231 Co 0.5621 0.52889 0.05691 0.0
O232 O 0.62285 0.55528 0.04685 0.0
O233 O 0.63155 0.49829 1.01842 0.0
O234 O 0.51972 0.46852 0.07738 0.0
O235 O 0.4764 0.38854 0.06105 0.0
O236 O 0.4751 0.41298 0.95732 0.0
O237 O 0.4466 0.50744 0.97107 0.0
O238 O 0.52522 0.61011 0.03899 0.0
O239 O 0.56665 0.61886 1.01241 0.0
C240 C 0.41411 0.37777 1.0124 0.0
C241 C 0.57759 0.46312 0.9692 0.0
C242 C 0.58629 0.58256 0.08843 0.0
C243 C 0.52234 0.2836 1.01457 0.0
C244 C 0.64615 0.53636 0.03253 0.0
C245 C 0.48946 0.41421 0.0771 0.0
C246 C 0.44939 0.47416 0.95533 0.0
C247 C 0.54151 0.6536 0.02363 0.0
O248 O 0.43566 0.36732 0.99697 0.0
O249 O 0.42888 0.41862 0.02595 0.0
O250 O 0.58667 0.51611 0.98143 0.0
O251 O 0.54508 0.41429 0.97163 0.0
O252 O 0.5481 0.57172 0.0839 0.0
O253 O 0.61064 0.56284 0.07509 0.0
O254 O 0.52682 0.32595 0.9973 0.0
O255 O 0.50282 0.31381 0.02854 0.0
H256 H 0.16742 0.13671 0.09662 0.0
H257 H 0.11956 0.19861 0.21055 0.0
H258 H 0.04403 0.08531 0.1236 0.0
H259 H 0.2377 0.26404 0.17975 0.0
H260 H 0.0885 0.16639 0.17887 0.0
H261 H 0.19179 0.18889 0.12698 0.0
C262 C 0.14536 0.13665 0.10893 0.0
C263 C 0.10358 0.10664 0.10748 0.0
C264 C 0.12094 0.18955 0.17898 0.0
C265 C 0.13136 0.16686 0.14262 0.0
C266 C 0.13843 0.20917 0.19701 0.0
C267 C 0.18112 0.23514 0.19776 0.0
C268 C 0.14645 0.1957 0.16166 0.0
C269 C 0.20454 0.24497 0.17985 0.0
C270 C 0.15926 0.16675 0.12632 0.0
C271 C 0.0765 0.10804 0.12403 0.0
N272 N 0.18712 0.22473 0.16272 0.0
N273 N 0.09085 0.1373 0.14091 0.0
H274 H 0.02546 0.8799 0.1154 0.0
H275 H 0.80276 0.82017 0.17078 0.0
H276 H 0.90804 0.85731 0.08331 0.0
H277 H 0.91682 0.70726 0.19861 0.0
H278 H 0.84201 0.85708 0.13943 0.0
H279 H 0.98736 0.83735 0.14697 0.0
C280 C 0.99177 0.86542 0.11497 0.0
C281 C 0.96999 0.87173 0.09663 0.0
C282 C 0.8584 0.82421 0.15241 0.0
C283 C 0.92618 0.82515 0.13271 0.0
C284 C 0.83607 0.80333 0.17032 0.0
C285 C 0.85645 0.75984 0.18728 0.0
C286 C 0.90174 0.80346 0.15156 0.0
C287 C 0.89986 0.74035 0.18584 0.0
C288 C 0.97013 0.84114 0.13298 0.0
C289 C 0.92625 0.85257 0.09703 0.0
N290 N 0.92118 0.76282 0.16832 0.0
N291 N 0.90572 0.83113 0.11478 0.0
H292 H 0.09421 0.30991 0.45753 0.0
H293 H 0.2092 0.4789 0.35354 0.0
H294 H 0.12095 0.57815 0.44089 0.0
H295 H 0.14521 0.23649 0.36769 0.0
H296 H 0.18701 0.51592 0.38627 0.0
H297 H 0.12481 0.28096 0.42634 0.0
C298 C 0.10725 0.36298 0.4474 0.0
C299 C 0.10463 0.44686 0.4519 0.0
C300 C 0.17784 0.45482 0.38214 0.0
C301 C 0.13975 0.41365 0.41547 0.0
C302 C 0.19044 0.43358 0.36348 0.0
C303 C 0.17902 0.35434 0.35782 0.0
C304 C 0.15406 0.39595 0.39531 0.0
C305 C 0.15484 0.29815 0.37133 0.0
C306 C 0.12453 0.34626 0.42943 0.0
C307 C 0.12242 0.51254 0.43812 0.0
N308 N 0.1434 0.31989 0.38934 0.0
N309 N 0.13894 0.49467 0.42038 0.0
H310 H 0.85825 0.5512 0.33292 0.0
H311 H 0.87936 0.57877 0.45015 0.0
H312 H 0.76784 0.68262 0.36572 0.0
H313 H 0.96189 0.42667 0.41849 0.0
H314 H 0.839 0.62056 0.41921 0.0
H315 H 0.89703 0.50653 0.364 0.0
C316 C 0.84628 0.57027 0.34664 0.0
C317 C 0.80957 0.62109 0.34657 0.0
C318 C 0.86589 0.57792 0.41903 0.0
C319 C 0.85432 0.57045 0.38233 0.0
C320 C 0.88897 0.55423 0.43668 0.0
C321 C 0.92397 0.4991 0.43688 0.0
C322 C 0.87797 0.54644 0.40143 0.0
C323 C 0.93506 0.46921 0.41901 0.0
C324 C 0.86859 0.54485 0.36441 0.0
C325 C 0.79594 0.64387 0.36491 0.0
N326 N 0.9122 0.49329 0.40203 0.0
N327 N 0.81836 0.61871 0.38198 0.0
H328 H 0.09583 0.73718 0.59887 0.0
H329 H 0.16881 0.56379 0.71137 0.0
H330 H 0.10909 0.47162 0.62352 0.0
H331 H 0.17001 0.83209 0.68822 0.0
H332 H 0.13831 0.53308 0.68009 0.0
H333 H 0.1162 0.7768 0.63157 0.0
C334 C 0.10302 0.68723 0.61113 0.0
C335 C 0.10091 0.60082 0.60838 0.0
C336 C 0.14446 0.59901 0.6818 0.0
C337 C 0.12384 0.64574 0.64589 0.0
C338 C 0.16151 0.61672 0.69981 0.0
C339 C 0.17156 0.70077 0.70255 0.0
C340 C 0.13757 0.66564 0.66601 0.0
C341 C 0.16209 0.76656 0.68688 0.0
C342 C 0.11456 0.70994 0.6298 0.0
C343 C 0.11041 0.53896 0.62484 0.0
N344 N 0.14599 0.74755 0.66917 0.0
N345 N 0.12139 0.56258 0.64275 0.0
H346 H 0.81951 0.16892 0.66857 0.0
H347 H 0.00786 0.45653 0.61444 0.0
H348 H 0.89706 0.33738 0.69835 0.0
H349 H 0.92512 0.29841 0.58409 0.0
H350 H 0.96952 0.41009 0.64551 0.0
H351 H 0.85934 0.21268 0.63773 0.0
C352 C 0.84502 0.21508 0.66861 0.0
C353 C 0.8551 0.24946 0.68604 0.0
C354 C 0.95985 0.38535 0.63207 0.0
C355 C 0.9009 0.29994 0.65077 0.0
C356 C 0.98182 0.41166 0.61428 0.0
C357 C 0.96982 0.38138 0.59651 0.0
C358 C 0.92558 0.32813 0.6322 0.0
C359 C 0.93565 0.32351 0.59735 0.0
C360 C 0.86774 0.24011 0.65099 0.0
C361 C 0.88831 0.30926 0.68524 0.0
N362 N 0.91477 0.29894 0.61486 0.0
N363 N 0.91006 0.33257 0.66789 0.0
H364 H 0.11452 0.90271 0.8456 0.0
H365 H 0.15986 0.94514 0.96103 0.0
H366 H 0.23518 0.83581 0.87401 0.0
H367 H 0.04292 0.01875 0.92993 0.0
H368 H 0.19103 0.91557 0.92921 0.0
H369 H 0.08996 0.95281 0.8762 0.0
C370 C 0.13594 0.89873 0.85827 0.0
C371 C 0.17699 0.86481 0.85717 0.0
C372 C 0.15885 0.93994 0.92929 0.0
C373 C 0.14898 0.92244 0.89257 0.0
C374 C 0.14131 0.95804 0.94741 0.0
C375 C 0.0989 -0.01441 0.94811 0.0
C376 C 0.13373 0.94932 0.91179 0.0
C377 C 0.07585 -0.00163 0.93008 0.0
C378 C 0.12193 0.92757 0.8758 0.0
C379 C 0.20327 0.8614 0.87416 0.0
N380 N 0.09334 -0.02033 0.91282 0.0
N381 N 0.18881 0.88943 0.89115 0.0
H382 H 0.77308 0.20534 0.86419 0.0
H383 H 0.96207 0.92021 0.9185 0.0
H384 H 0.85763 0.0525 0.83352 0.0
H385 H 0.88329 0.08596 0.94828 0.0
H386 H 0.92277 0.96465 0.88748 0.0
H387 H 0.81127 0.15848 0.8953 0.0
C388 C 0.79952 0.16156 0.86396 0.0
C389 C 0.81203 0.13289 0.84609 0.0
C390 C 0.914 -0.00866 0.90078 0.0
C391 C 0.85612 0.07907 0.88186 0.0
C392 C 0.93642 0.96591 0.91851 0.0
C393 C 0.92585 -0.00067 0.936 0.0
C394 C 0.88062 0.05055 0.90051 0.0
C395 C 0.89245 0.05859 0.93513 0.0
C396 C 0.82141 0.135 0.88178 0.0
C397 C 0.84669 0.07634 0.84686 0.0
N398 N 0.871 0.08223 0.9177 0.0
N399 N 0.86747 0.05144 0.86441 0.0
H400 H 0.73345 0.29096 0.67934 0.0
H401 H 0.56038 0.02407 0.62764 0.0
H402 H 0.6246 0.1747 0.71107 0.0
H403 H 0.65202 0.18974 0.59408 0.0
H404 H 0.58301 0.07802 0.65821 0.0
H405 H 0.70304 0.2584 0.64795 0.0
C406 C 0.70228 0.26133 0.67956 0.0
C407 C 0.68098 0.23768 0.6978 0.0
C408 C 0.598 0.1031 0.64416 0.0
C409 C 0.64678 0.19582 0.66188 0.0
C410 C 0.58516 0.07207 0.62666 0.0
C411 C 0.60417 0.10254 0.60817 0.0
C412 C 0.63055 0.16461 0.64332 0.0
C413 C 0.63635 0.16448 0.60794 0.0
C414 C 0.68516 0.2417 0.66165 0.0
C415 C 0.64148 0.19634 0.6973 0.0
N416 N 0.64864 0.19298 0.6252 0.0
N417 N 0.62593 0.17572 0.6797 0.0
H418 H 0.49687 0.96941 0.61358 0.0
H419 H 0.32223 0.65255 0.67011 0.0
H420 H 0.42967 0.78033 0.58546 0.0
H421 H 0.38659 0.84789 0.69721 0.0
H422 H 0.36189 0.69671 0.63917 0.0
H423 H 0.45793 0.92366 0.64441 0.0
C424 C 0.47432 0.91755 0.6139 0.0
C425 C 0.46712 0.87812 0.59684 0.0
C426 C 0.36738 0.72999 0.65186 0.0
C427 C 0.42156 0.82596 0.63229 0.0
C428 C 0.34474 0.70479 0.66954 0.0
C429 C 0.35115 0.74659 0.68627 0.0
C430 C 0.39678 0.7975 0.65087 0.0
C431 C 0.38067 0.81389 0.68468 0.0
C432 C 0.45179 0.8918 0.63155 0.0
C433 C 0.43656 0.81248 0.59819 0.0
N434 N 0.40238 0.83718 0.66731 0.0
N435 N 0.415 0.78848 0.61558 0.0
H436 H 0.61998 0.58159 0.94106 0.0
H437 H 0.65003 0.22405 0.86907 0.0
H438 H 0.59659 0.31208 0.95763 0.0
H439 H 0.70249 0.47672 0.85333 0.0
H440 H 0.6286 0.26116 0.90135 0.0
H441 H 0.65129 0.55067 0.9092 0.0
C442 C 0.62232 0.51608 0.93826 0.0
C443 C 0.60542 0.44945 0.95204 0.0
C444 C 0.64496 0.30882 0.89095 0.0
C445 C 0.63992 0.41389 0.91558 0.0
C446 C 0.65708 0.28755 0.87241 0.0
C447 C 0.67813 0.34718 0.8584 0.0
C448 C 0.65358 0.39086 0.89576 0.0
C449 C 0.68627 0.42871 0.86367 0.0
C450 C 0.63975 0.49847 0.92 0.0
C451 C 0.60884 0.36576 0.94745 0.0
N452 N 0.67388 0.44833 0.88189 0.0
N453 N 0.62512 0.35076 0.92971 0.0
H454 H 0.39022 0.60232 0.94842 0.0
H455 H 0.35324 0.54233 0.83382 0.0
H456 H 0.45365 0.41037 0.91994 0.0
H457 H 0.27737 0.71003 0.86457 0.0
H458 H 0.39186 0.49643 0.8649 0.0
H459 H 0.35046 0.6469 0.91744 0.0
C460 C 0.39573 0.56955 0.93564 0.0
C461 C 0.4252 0.50247 0.93675 0.0
C462 C 0.36664 0.54307 0.86486 0.0
C463 C 0.37988 0.55299 0.90126 0.0
C464 C 0.34449 0.56934 0.84709 0.0
C465 C 0.3118 0.63029 0.84647 0.0
C466 C 0.35637 0.57823 0.88219 0.0
C467 C 0.30213 0.66288 0.86423 0.0
C468 C 0.373 0.59488 0.91798 0.0
C469 C 0.43119 0.46233 0.91974 0.0
N470 N 0.32439 0.63675 0.88129 0.0
N471 N 0.40879 0.48824 0.90272 0.0
H472 H 0.66755 0.61897 0.09881 0.0
H473 H 0.61647 0.70536 0.21057 0.0
H474 H 0.53879 0.61476 0.12096 0.0
H475 H 0.73689 0.75355 0.18064 0.0
H476 H 0.58508 0.67569 0.17864 0.0
H477 H 0.69214 0.66727 0.12953 0.0
C478 C 0.64436 0.62848 0.11013 0.0
C479 C 0.60102 0.61293 0.1072 0.0
C480 C 0.6182 0.69444 0.17905 0.0
C481 C 0.62908 0.66865 0.14283 0.0
C482 C 0.63594 0.71247 0.19721 0.0
C483 C 0.67942 0.73272 0.1983 0.0
C484 C 0.64427 0.69623 0.16199 0.0
C485 C 0.70332 0.73868 0.18058 0.0
C486 C 0.6584 0.65641 0.12774 0.0
C487 C 0.57252 0.6262 0.12255 0.0
N488 N 0.68569 0.71988 0.16339 0.0
N489 N 0.58702 0.65287 0.13973 0.0
H490 H 0.38537 0.36191 0.19718 0.0
H491 H 0.42882 0.28802 0.08413 0.0
H492 H 0.33164 0.15306 0.17085 0.0
H493 H 0.49899 0.46914 0.11362 0.0
H494 H 0.39062 0.24187 0.11529 0.0
H495 H 0.42465 0.40709 0.16613 0.0
C496 C 0.38194 0.32549 0.18487 0.0
C497 C 0.35536 0.2535 0.18659 0.0
C498 C 0.41451 0.29148 0.11495 0.0
C499 C 0.40008 0.30474 0.15104 0.0
C500 C 0.43639 0.31792 0.09714 0.0
C501 C 0.46737 0.38255 0.09617 0.0
C502 C 0.42331 0.33026 0.13195 0.0
C503 C 0.47559 0.41888 0.1136 0.0
C504 C 0.40439 0.35119 0.16717 0.0
C505 C 0.35189 0.20883 0.17017 0.0
N506 N 0.4536 0.3925 0.13071 0.0
N507 N 0.37393 0.23522 0.15308 0.0
H508 H 0.65983 0.93326 0.46201 0.0
H509 H 0.61602 0.90682 0.34561 0.0
H510 H 0.54526 0.02053 0.43045 0.0
H511 H 0.73294 0.81953 0.37514 0.0
H512 H 0.5922 0.95707 0.37633 0.0
H513 H 0.69062 0.90272 0.43021 0.0
C514 C 0.64176 0.94878 0.44831 0.0
C515 C 0.60008 -0.01955 0.44888 0.0
C516 C 0.62318 0.92727 0.37615 0.0
C517 C 0.63446 0.9433 0.41254 0.0
C518 C 0.63677 0.89837 0.35855 0.0
C519 C 0.67654 0.85868 0.35773 0.0
C520 C 0.64938 0.91645 0.39326 0.0
C521 C 0.70201 0.84966 0.37507 0.0
C522 C 0.65906 0.93017 0.43019 0.0
C523 C 0.5776 -0.0033 0.43072 0.0
N524 N 0.68799 0.87793 0.3921 0.0
N525 N 0.59485 -0.02247 0.41345 0.0
H526 H 0.46863 0.94037 0.41755 0.0
H527 H 0.2748 0.21276 0.36397 0.0
H528 H 0.38589 0.09674 0.448 0.0
H529 H 0.36054 0.06248 0.33325 0.0
H530 H 0.31434 0.16979 0.39489 0.0
H531 H 0.4293 -0.01553 0.38656 0.0
C532 C 0.44221 -0.01577 0.41769 0.0
C533 C 0.43042 0.01481 0.43538 0.0
C534 C 0.32446 0.14606 0.3814 0.0
C535 C 0.38503 0.06537 0.39993 0.0
C536 C 0.3018 0.17039 0.36369 0.0
C537 C 0.31422 0.1412 0.34587 0.0
C538 C 0.35989 0.09202 0.38139 0.0
C539 C 0.34961 0.08656 0.34656 0.0
C540 C 0.41972 0.00934 0.39999 0.0
C541 C 0.39601 0.07165 0.43469 0.0
N542 N 0.37116 0.06389 0.36399 0.0
N543 N 0.37445 0.09491 0.41727 0.0
H544 H 0.99878 0.66193 0.04661 0.0
H545 H 0.08201 0.26625 0.99648 0.0
H546 H 0.05928 0.69039 0.98859 0.0
H547 H 0.99687 0.24512 0.04718 0.0
H548 H 0.0799 0.42176 0.99456 0.0
H549 H 1.0064 0.50772 0.049 0.0
C550 C 0.01409 0.63587 0.03446 0.0
C551 C 0.02791 0.68897 1.01726 0.0
C552 C 0.06154 0.38283 1.00601 0.0
C553 C 0.03625 0.51271 1.01982 0.0
C554 C 0.06251 0.29425 1.00705 0.0
C555 C 0.03965 0.24273 0.02204 0.0
C556 C 0.03771 0.41961 1.02011 0.0
C557 C 0.01512 0.28229 0.03541 0.0
C558 C 0.01815 0.54779 0.03578 0.0
C559 C 0.04772 0.65165 1.00203 0.0
N560 N 0.01499 0.3684 0.03419 0.0
N561 N 0.05106 0.56552 1.00361 0.0
H562 H 0.19711 0.52185 0.24578 0.0
H563 H 0.28255 0.91574 0.29588 0.0
H564 H 0.28945 0.50134 0.29371 0.0
H565 H 0.21565 0.94637 0.23936 0.0
H566 H 0.27671 0.76152 0.29755 0.0
H567 H 0.19802 0.67706 0.24444 0.0
C568 C 0.21799 0.54999 0.25582 0.0
C569 C 0.24306 0.49875 0.26996 0.0
C570 C 0.26313 0.80206 0.28483 0.0
C571 C 0.2436 0.6751 0.26874 0.0
C572 C 0.26609 0.8901 0.28396 0.0
C573 C 0.25005 0.94381 0.26733 0.0
C574 C 0.24386 0.76774 0.26902 0.0
C575 C 0.22892 0.90709 0.25235 0.0
C576 C 0.21824 0.63836 0.25514 0.0
C577 C 0.26938 0.53838 0.28266 0.0
N578 N 0.2267 0.821 0.25347 0.0
N579 N 0.26872 0.62429 0.28184 0.0
H580 H 0.77612 -0.00485 0.29968 0.0
H581 H 0.71932 0.44335 0.23635 0.0
H582 H 0.70072 0.01796 0.24563 0.0
H583 H 0.77062 0.41225 0.29635 0.0
H584 H 0.71099 0.28866 0.23919 0.0
H585 H 0.77578 0.14933 0.2978 0.0
C586 C 0.75979 0.03263 0.28728 0.0
C587 C 0.73847 -0.00639 0.27275 0.0
C588 C 0.72366 0.31594 0.25178 0.0
C589 C 0.73762 0.17052 0.27065 0.0
C590 C 0.72838 0.40415 0.2502 0.0
C591 C 0.74641 0.44056 0.26602 0.0
C592 C 0.73738 0.26421 0.26921 0.0
C593 C 0.75707 0.38692 0.28368 0.0
C594 C 0.75928 0.12076 0.28633 0.0
C595 C 0.71769 0.04554 0.2571 0.0
N596 N 0.75286 0.30125 0.2847 0.0
N597 N 0.71781 0.1317 0.25645 0.0
H598 H 1.00605 0.74595 0.54988 0.0
H599 H 0.06488 0.19636 0.48811 0.0
H600 H 0.07719 0.77234 0.4946 0.0
H601 H 0.00928 0.16255 0.54722 0.0
H602 H 0.07409 0.04216 0.49083 0.0
H603 H 0.00893 0.89932 0.54917 0.0
C604 C 0.02193 0.7841 0.53743 0.0
C605 C 0.04116 0.74626 0.52217 0.0
C606 C 0.06032 0.06864 0.50328 0.0
C607 C 0.04487 0.92249 0.52141 0.0
C608 C 0.0551 0.15665 0.50177 0.0
C609 C 0.03543 0.19212 0.51731 0.0
C610 C 0.04552 0.01609 0.52037 0.0
C611 C 0.02401 0.13787 0.53475 0.0
C612 C 0.0239 0.8718 0.53716 0.0
C613 C 0.06168 0.79902 0.50658 0.0
N614 N 0.02872 0.05231 0.53569 0.0
N615 N 0.06288 0.88483 0.50657 0.0
H616 H 0.19677 0.01827 0.74581 0.0
H617 H 0.27183 0.41435 0.79813 0.0
H618 H 0.27947 -0.00035 0.79744 0.0
H619 H 0.21491 0.44249 0.73926 0.0
H620 H 0.26344 0.26021 0.8006 0.0
H621 H 0.19494 0.17333 0.7449 0.0
C622 C 0.2149 0.04677 0.75679 0.0
C623 C 0.23839 -0.00392 0.77169 0.0
C624 C 0.25258 0.30025 0.7872 0.0
C625 C 0.2357 0.17224 0.77095 0.0
C626 C 0.25709 0.38826 0.78582 0.0
C627 C 0.24486 0.4411 0.7683 0.0
C628 C 0.23573 0.26512 0.77095 0.0
C629 C 0.22545 0.40388 0.75293 0.0
C630 C 0.21357 0.13503 0.75635 0.0
C631 C 0.26099 0.03619 0.78565 0.0
N632 N 0.2219 0.3178 0.75452 0.0
N633 N 0.25893 0.12193 0.78498 0.0
H634 H 0.79542 0.49621 0.79244 0.0
H635 H 0.71292 0.94799 0.73925 0.0
H636 H 0.69711 0.52248 0.74719 0.0
H637 H 0.78788 0.91168 0.79348 0.0
H638 H 0.70906 0.79321 0.74043 0.0
H639 H 0.79818 0.65082 0.79038 0.0
C640 C 0.77466 0.5346 0.78194 0.0
C641 C 0.74566 0.49659 0.77012 0.0
C642 C 0.72601 0.81929 0.75214 0.0
C643 C 0.74826 0.67325 0.76791 0.0
C644 C 0.72809 0.90746 0.75154 0.0
C645 C 0.75103 0.94259 0.76622 0.0
C646 C 0.74732 0.7664 0.76742 0.0
C647 C 0.76989 0.88734 0.78185 0.0
C648 C 0.77604 0.62279 0.78088 0.0
C649 C 0.71986 0.54932 0.7566 0.0
N650 N 0.76796 0.80182 0.78191 0.0
N651 N 0.72155 0.63534 0.75596 0.0
H652 H 0.44921 0.65831 0.5017 0.0
H653 H 0.60424 0.2657 0.51389 0.0
H654 H 0.57069 0.67213 0.53083 0.0
H655 H 0.47068 0.2292 0.52743 0.0
H656 H 0.59425 0.42076 0.51173 0.0
H657 H 0.45805 0.50323 0.50351 0.0
C658 C 0.47758 0.62806 0.50859 0.0
C659 C 0.50928 0.67642 0.51626 0.0
C660 C 0.56722 0.37846 0.51501 0.0
C661 C 0.52 0.50214 0.51779 0.0
C662 C 0.57272 0.29072 0.516 0.0
C663 C 0.53808 0.23578 0.52075 0.0
C664 C 0.52669 0.4105 0.51831 0.0
C665 C 0.49799 0.27028 0.52373 0.0
C666 C 0.48256 0.54036 0.50959 0.0
C667 C 0.5456 0.63582 0.52496 0.0
N668 N 0.49323 0.35606 0.52232 0.0
N669 N 0.55034 0.55037 0.52528 0.0
H670 H 0.4965 0.74716 0.04716 0.0
H671 H 0.56648 0.19748 0.98889 0.0
H672 H 0.58028 0.77273 0.99592 0.0
H673 H 0.50444 0.1628 0.04657 0.0
H674 H 0.57385 0.04295 0.99122 0.0
H675 H 0.49826 0.90081 0.04638 0.0
C676 C 0.51498 0.78518 0.03559 0.0
C677 C 0.53828 0.74706 0.02155 0.0
C678 C 0.55907 0.06933 1.00344 0.0
C679 C 0.54076 0.92327 0.02075 0.0
C680 C 0.55492 0.15747 1.00216 0.0
C681 C 0.53406 0.19285 1.0174 0.0
C682 C 0.54197 0.01663 1.01999 0.0
C683 C 0.52024 0.13822 0.03436 0.0
C684 C 0.51628 0.87296 0.03529 0.0
C685 C 0.56172 0.79961 1.00697 0.0
N686 N 0.52395 0.05259 0.03507 0.0
N687 N 0.56237 0.88541 1.00694 0.0
H688 H 0.36638 0.34652 0.04683 0.0
H689 H 0.19926 0.04732 0.99971 0.0
H690 H 0.36852 0.30207 0.98527 0.0
H691 H 0.19512 0.09446 0.06106 0.0
H692 H 0.26377 0.13418 0.99471 0.0
H693 H 0.30386 0.25365 0.0525 0.0
C694 C 0.35339 0.31835 0.03443 0.0
C695 C 0.37284 0.33221 1.01554 0.0
C696 C 0.24894 0.12487 1.00932 0.0
C697 C 0.3018 0.22439 0.02204 0.0
C698 C 0.21231 0.07438 1.01225 0.0
C699 C 0.19143 0.06379 0.03081 0.0
C700 C 0.26488 0.16511 0.02504 0.0
C701 C 0.2098 0.1013 0.04644 0.0
C702 C 0.31793 0.26461 0.03773 0.0
C703 C 0.35478 0.29308 1.00011 0.0
N704 N 0.24521 0.15075 0.04315 0.0
N705 N 0.32047 0.24083 1.00372 0.0
H706 H 0.86535 0.82076 0.98384 0.0
H707 H 0.69327 0.59739 0.06153 0.0
H708 H 0.86644 0.84466 0.04668 0.0
H709 H 0.69709 0.56464 0.99922 0.0
H710 H 0.75731 0.68516 0.05669 0.0
H711 H 0.80264 0.72969 0.98923 0.0
C712 C 0.85213 0.8076 0.99878 0.0
C713 C 0.87136 0.84028 1.01486 0.0
C714 C 0.7444 0.65816 0.04411 0.0
C715 C 0.79965 0.73449 0.02118 0.0
C716 C 0.70791 0.60747 0.04688 0.0
C717 C 0.68952 0.57369 0.03073 0.0
C718 C 0.76266 0.67579 0.02502 0.0
C719 C 0.71015 0.58886 1.01214 0.0
C720 C 0.81641 0.75504 1.00185 0.0
C721 C 0.85259 0.8213 0.03383 0.0
N722 N 0.74535 0.63946 1.00976 0.0
N723 N 0.81791 0.76917 0.03649 0.0
H724 H 0.08762 0.35018 0.31155 0.0
H725 H 0.90945 0.55563 0.23487 0.0
H726 H 0.07996 0.30704 0.24999 0.0
H727 H 0.91188 0.59014 0.2971 0.0
H728 H 0.97214 0.4653 0.24032 0.0
H729 H 0.02221 0.43375 0.30702 0.0
C730 C 0.07184 0.35706 0.29715 0.0
C731 C 0.08956 0.32169 0.28109 0.0
C732 C 0.95913 0.49271 0.2528 0.0
C733 C 0.01485 0.41895 0.27574 0.0
C734 C 0.92335 0.54489 0.24969 0.0
C735 C 0.90518 0.58072 0.26557 0.0
C736 C 0.97715 0.47573 0.27196 0.0
C737 C 0.92488 0.56441 0.28439 0.0
C738 C 0.03458 0.40534 0.29456 0.0
C739 C 0.06753 0.33274 0.26282 0.0
N740 N 0.95972 0.5128 0.28708 0.0
N741 N 0.03159 0.38109 0.2606 0.0
H742 H 0.36786 0.84504 0.54766 0.0
H743 H 0.19822 0.55756 0.49865 0.0
H744 H 0.36482 0.81831 0.48496 0.0
H745 H 0.19386 0.59928 0.56038 0.0
H746 H 0.26263 0.64488 0.49406 0.0
H747 H 0.30502 0.75289 0.55297 0.0
C748 C 0.35363 0.82106 0.53496 0.0
C749 C 0.37177 0.83942 0.51584 0.0
C750 C 0.24779 0.63427 0.50866 0.0
C751 C 0.30049 0.73236 0.5219 0.0
C752 C 0.21126 0.58348 0.51135 0.0
C753 C 0.19041 0.57127 0.5299 0.0
C754 C 0.26366 0.67299 0.52463 0.0
C755 C 0.20867 0.60736 0.54577 0.0
C756 C 0.318 0.76771 0.53803 0.0
C757 C 0.35214 0.80563 0.49999 0.0
N758 N 0.24402 0.65703 0.54273 0.0
N759 N 0.31779 0.75348 0.50339 0.0
H760 H 0.86767 0.34281 0.54776 0.0
H761 H 0.70206 0.03899 0.50115 0.0
H762 H 0.86842 0.2998 0.48608 0.0
H763 H 0.69519 0.09262 0.56195 0.0
H764 H 0.76647 0.12606 0.49623 0.0
H765 H 0.80562 0.24862 0.55369 0.0
C766 C 0.85447 0.3147 0.53539 0.0
C767 C 0.87339 0.32937 0.51639 0.0
C768 C 0.75109 0.11811 0.51071 0.0
C769 C 0.80295 0.22006 0.52318 0.0
C770 C 0.71452 0.06748 0.51361 0.0
C771 C 0.6929 0.05867 0.53196 0.0
C772 C 0.76626 0.16025 0.52628 0.0
C773 C 0.71053 0.09799 0.54748 0.0
C774 C 0.81929 0.26023 0.53884 0.0
C775 C 0.8551 0.29023 0.50101 0.0
N776 N 0.74592 0.14753 0.54424 0.0
N777 N 0.82111 0.23727 0.50476 0.0
H778 H 0.91337 0.06654 0.73395 0.0
H779 H 0.08432 0.84202 0.81215 0.0
H780 H 0.91237 0.09185 0.79671 0.0
H781 H 0.08131 0.81041 0.74976 0.0
H782 H 0.02032 0.92965 0.80715 0.0
H783 H 0.97551 -0.02576 0.73956 0.0
C784 C 0.92648 0.05339 0.74891 0.0
C785 C 0.90748 0.08699 0.7649 0.0
C786 C 0.0334 0.90292 0.79459 0.0
C787 C 0.97855 -0.02022 0.77149 0.0
C788 C 0.06987 0.85233 0.79745 0.0
C789 C 0.08851 0.81898 0.78132 0.0
C790 C 0.01539 0.92084 0.77544 0.0
C791 C 0.06808 0.83431 0.76266 0.0
C792 C 0.96188 0.00013 0.75212 0.0
C793 C 0.92608 0.06788 0.78392 0.0
N794 N 0.0329 0.88481 0.7602 0.0
N795 N 0.96045 0.01512 0.7867 0.0
H796 H 0.57979 0.3005 0.74966 0.0
H797 H 0.41405 0.60299 0.79627 0.0
H798 H 0.58868 0.3608 0.80987 0.0
H799 H 0.40869 0.54962 0.73541 0.0
H800 H 0.47746 0.51288 0.8018 0.0
H801 H 0.51448 0.38478 0.74489 0.0
C802 C 0.56766 0.33004 0.76201 0.0
C803 C 0.59001 0.32374 0.78016 0.0
C804 C 0.46249 0.52129 0.78721 0.0
C805 C 0.5156 0.42194 0.77464 0.0
C806 C 0.42648 0.57342 0.78399 0.0
C807 C 0.4059 0.58407 0.76534 0.0
C808 C 0.47802 0.47941 0.7717 0.0
C809 C 0.42332 0.5432 0.75006 0.0
C810 C 0.53054 0.37897 0.7592 0.0
C811 C 0.57276 0.3642 0.79556 0.0
N812 N 0.45818 0.49257 0.75361 0.0
N813 N 0.53682 0.41197 0.7924 0.0
H814 H 0.58341 0.83988 0.31217 0.0
H815 H 0.41326 0.06731 0.23392 0.0
H816 H 0.58045 0.80919 0.24972 0.0
H817 H 0.41235 0.0926 0.29668 0.0
H818 H 0.47524 -0.02543 0.23953 0.0
H819 H 0.51983 0.92878 0.30715 0.0
C820 C 0.56905 0.85063 0.29745 0.0
C821 C 0.58758 0.81711 0.28131 0.0
C822 C 0.46168 0.00056 0.25209 0.0
C823 C 0.51495 0.92048 0.27541 0.0
C824 C 0.42637 0.05407 0.24888 0.0
C825 C 0.40741 0.08776 0.26487 0.0
C826 C 0.47831 -0.02002 0.27146 0.0
C827 C 0.42602 0.06855 0.28389 0.0
C828 C 0.53282 0.90197 0.29458 0.0
C829 C 0.56729 0.83315 0.26263 0.0
N830 N 0.46029 0.01548 0.28667 0.0
N831 N 0.53235 0.88433 0.26016 0.0
loop_
_geom_bond_atom_site_label_1
_geom_bond_atom_site_label_2
_geom_bond_distance
_geom_bond_site_symmetry_2
_ccdc_geom_bond_type
Co0 H3 2.400 1_565 S
Co0 O4 2.009 1_565 S
Co0 O12 2.115 . S
Co0 O13 2.315 1_565 S
Co0 O24 2.053 . S
Co0 O27 2.094 1_655 S
Co0 O30 2.131 . S
Co1 O4 2.126 1_455 S
Co1 H5 2.388 1_546 S
Co1 O6 2.053 1_546 S
Co1 O9 2.047 . S
Co1 O15 2.113 . S
Co1 O26 2.063 . S
Co2 H3 2.388 1_564 S
Co2 O4 2.053 1_564 S
Co2 O6 2.126 1_655 S
Co2 O11 2.063 . S
Co2 O25 2.047 . S
Co2 O31 2.113 . S
H3 Co0 2.400 1_545 S
H3 Co2 2.388 1_546 S
H3 O4 0.760 . S
O4 Co0 2.009 1_545 S
O4 Co1 2.126 1_655 S
O4 Co2 2.053 1_546 S
O4 H3 0.760 . S
H5 Co1 2.388 1_564 S
H5 O6 0.760 . S
H5 Co7 2.400 1_565 S
O6 Co1 2.053 1_564 S
O6 Co2 2.126 1_455 S
O6 H5 0.760 . S
O6 Co7 2.009 1_565 S
Co7 H5 2.400 1_545 S
Co7 O6 2.009 1_545 S
Co7 O8 2.053 . S
Co7 O10 2.094 1_455 S
Co7 O14 2.122 . S
Co7 O28 2.115 . S
Co7 O29 2.315 1_545 S
O8 Co7 2.053 . S
O8 C20 1.259 . S
O9 Co1 2.047 . S
O9 C20 1.257 1_556 S
O10 Co7 2.094 1_655 S
O10 C21 1.253 1_545 S
O11 Co2 2.063 . S
O11 C21 1.268 . S
O12 Co0 2.115 . S
O12 C22 1.281 . S
O13 Co0 2.315 1_545 S
O13 C22 1.252 1_545 S
O14 Co7 2.122 . S
O14 C23 1.272 . S
O15 Co1 2.113 . S
O15 C23 1.245 1_556 S
C16 O24 1.259 . S
C16 O25 1.257 1_556 S
C17 O26 1.268 . S
C17 O27 1.253 1_545 S
C18 O28 1.281 . S
C18 O29 1.252 1_545 S
C19 O30 1.317 . S
C19 O31 1.210 1_556 S
C20 O8 1.259 . S
C20 O9 1.257 1_554 S
C21 O10 1.253 1_565 S
C21 O11 1.268 . S
C22 O12 1.281 . S
C22 O13 1.252 1_565 S
C23 O14 1.272 . S
C23 O15 1.245 1_554 S
O24 Co0 2.053 . S
O24 C16 1.259 . S
O25 Co2 2.047 . S
O25 C16 1.257 1_554 S
O26 Co1 2.063 . S
O26 C17 1.268 . S
O27 Co0 2.094 1_455 S
O27 C17 1.253 1_565 S
O28 Co7 2.115 . S
O28 C18 1.281 . S
O29 Co7 2.315 1_565 S
O29 C18 1.252 1_565 S
O30 Co0 2.131 . S
O30 C19 1.317 . S
O31 Co2 2.113 . S
O31 C19 1.210 1_554 S
Co32 H35 2.400 . S
Co32 O36 2.009 . S
Co32 O44 2.115 . S
Co32 O45 2.315 . S
Co32 O56 2.053 . S
Co32 O59 2.094 . S
Co32 O62 2.122 . S
Co33 O36 2.126 . S
Co33 H37 2.388 . S
Co33 O38 2.053 . S
Co33 O41 2.047 . S
Co33 O47 2.113 . S
Co33 O58 2.063 . S
Co34 H35 2.388 . S
Co34 O36 2.053 . S
Co34 O38 2.126 . S
Co34 O43 2.063 . S
Co34 O57 2.047 . S
Co34 O63 2.113 . S
H35 Co32 2.400 . S
H35 Co34 2.388 . S
H35 O36 0.760 . S
O36 Co32 2.009 . S
O36 Co33 2.126 . S
O36 Co34 2.053 . S
O36 H35 0.760 . S
H37 Co33 2.388 . S
H37 O38 0.760 . S
H37 Co39 2.400 . S
O38 Co33 2.053 . S
O38 Co34 2.126 . S
O38 H37 0.760 . S
O38 Co39 2.009 . S
Co39 H37 2.400 . S
Co39 O38 2.009 . S
Co39 O40 2.053 . S
Co39 O42 2.094 . S
Co39 O46 2.122 . S
Co39 O60 2.115 . S
Co39 O61 2.315 . S
O40 Co39 2.053 . S
O40 C52 1.259 . S
O41 Co33 2.047 . S
O41 C52 1.257 . S
O42 Co39 2.094 . S
O42 C53 1.253 . S
O43 Co34 2.063 . S
O43 C53 1.268 . S
O44 Co32 2.115 . S
O44 C54 1.281 . S
O45 Co32 2.315 . S
O45 C54 1.252 . S
O46 Co39 2.122 . S
O46 C55 1.272 . S
O47 Co33 2.113 . S
O47 C55 1.245 . S
C48 O56 1.259 . S
C48 O57 1.257 . S
C49 O58 1.268 . S
C49 O59 1.253 . S
C50 O60 1.281 . S
C50 O61 1.252 . S
C51 O62 1.272 . S
C51 O63 1.245 . S
C52 O40 1.259 . S
C52 O41 1.257 . S
C53 O42 1.253 . S
C53 O43 1.268 . S
C54 O44 1.281 . S
C54 O45 1.252 . S
C55 O46 1.272 . S
C55 O47 1.245 . S
O56 Co32 2.053 . S
O56 C48 1.259 . S
O57 Co34 2.047 . S
O57 C48 1.257 . S
O58 Co33 2.063 . S
O58 C49 1.268 . S
O59 Co32 2.094 . S
O59 C49 1.253 . S
O60 Co39 2.115 . S
O60 C50 1.281 . S
O61 Co39 2.315 . S
O61 C50 1.252 . S
O62 Co32 2.122 . S
O62 C51 1.272 . S
O63 Co34 2.113 . S
O63 C51 1.245 . S
Co64 H67 2.400 . S
Co64 O68 2.009 . S
Co64 O76 2.115 . S
Co64 O77 2.315 . S
Co64 O88 2.053 . S
Co64 O91 2.094 . S
Co64 O94 2.122 . S
Co65 O68 2.126 . S
Co65 H69 2.388 . S
Co65 O70 2.053 . S
Co65 O73 2.047 . S
Co65 O79 2.113 . S
Co65 O90 2.063 . S
Co66 H67 2.388 . S
Co66 O68 2.053 . S
Co66 O70 2.126 . S
Co66 O75 2.063 . S
Co66 O89 2.047 . S
Co66 O95 2.113 . S
H67 Co64 2.400 . S
H67 Co66 2.388 . S
H67 O68 0.760 . S
O68 Co64 2.009 . S
O68 Co65 2.126 . S
O68 Co66 2.053 . S
O68 H67 0.760 . S
H69 Co65 2.388 . S
H69 O70 0.760 . S
H69 Co71 2.400 . S
O70 Co65 2.053 . S
O70 Co66 2.126 . S
O70 H69 0.760 . S
O70 Co71 2.009 . S
Co71 H69 2.400 . S
Co71 O70 2.009 . S
Co71 O72 2.053 . S
Co71 O74 2.094 . S
Co71 O78 2.122 . S
Co71 O92 2.115 . S
Co71 O93 2.315 . S
O72 Co71 2.053 . S
O72 C84 1.259 . S
O73 Co65 2.047 . S
O73 C84 1.257 . S
O74 Co71 2.094 . S
O74 C85 1.253 . S
O75 Co66 2.063 . S
O75 C85 1.268 . S
O76 Co64 2.115 . S
O76 C86 1.281 . S
O77 Co64 2.315 . S
O77 C86 1.252 . S
O78 Co71 2.122 . S
O78 C87 1.272 . S
O79 Co65 2.113 . S
O79 C87 1.245 . S
C80 O88 1.259 . S
C80 O89 1.257 . S
C81 O90 1.268 . S
C81 O91 1.253 . S
C82 O92 1.281 . S
C82 O93 1.252 . S
C83 O94 1.272 . S
C83 O95 1.245 . S
C84 O72 1.259 . S
C84 O73 1.257 . S
C85 O74 1.253 . S
C85 O75 1.268 . S
C86 O76 1.281 . S
C86 O77 1.252 . S
C87 O78 1.272 . S
C87 O79 1.245 . S
O88 Co64 2.053 . S
O88 C80 1.259 . S
O89 Co66 2.047 . S
O89 C80 1.257 . S
O90 Co65 2.063 . S
O90 C81 1.268 . S
O91 Co64 2.094 . S
O91 C81 1.253 . S
O92 Co71 2.115 . S
O92 C82 1.281 . S
O93 Co71 2.315 . S
O93 C82 1.252 . S
O94 Co64 2.122 . S
O94 C83 1.272 . S
O95 Co66 2.113 . S
O95 C83 1.245 . S
Co96 H99 2.400 . S
Co96 O100 2.009 . S
Co96 O108 2.115 . S
Co96 O109 2.315 . S
Co96 O120 2.053 . S
Co96 O123 2.094 1_655 S
Co96 O126 2.131 . S
Co97 O100 2.126 1_455 S
Co97 H101 2.388 . S
Co97 O102 2.053 . S
Co97 O105 2.047 . S
Co97 O111 2.113 . S
Co97 O122 2.063 . S
Co98 H99 2.388 . S
Co98 O100 2.053 . S
Co98 O102 2.126 1_655 S
Co98 O107 2.063 . S
Co98 O121 2.047 . S
Co98 O127 2.113 . S
H99 Co96 2.400 . S
H99 Co98 2.388 . S
H99 O100 0.760 . S
O100 Co96 2.009 . S
O100 Co97 2.126 1_655 S
O100 Co98 2.053 . S
O100 H99 0.760 . S
H101 Co97 2.388 . S
H101 O102 0.760 . S
H101 Co103 2.400 . S
O102 Co97 2.053 . S
O102 Co98 2.126 1_455 S
O102 H101 0.760 . S
O102 Co103 2.009 . S
Co103 H101 2.400 . S
Co103 O102 2.009 . S
Co103 O104 2.053 . S
Co103 O106 2.094 1_455 S
Co103 O110 2.122 . S
Co103 O124 2.115 . S
Co103 O125 2.315 . S
O104 Co103 2.053 . S
O104 C116 1.259 . S
O105 Co97 2.047 . S
O105 C116 1.257 . S
O106 Co103 2.094 1_655 S
O106 C117 1.253 . S
O107 Co98 2.063 . S
O107 C117 1.268 . S
O108 Co96 2.115 . S
O108 C118 1.281 . S
O109 Co96 2.315 . S
O109 C118 1.252 . S
O110 Co103 2.122 . S
O110 C119 1.272 . S
O111 Co97 2.113 . S
O111 C119 1.245 . S
C112 O120 1.259 . S
C112 O121 1.257 . S
C113 O122 1.268 . S
C113 O123 1.253 . S
C114 O124 1.281 . S
C114 O125 1.252 . S
C115 O126 1.273 . S
C115 O127 1.245 . S
C116 O104 1.259 . S
C116 O105 1.257 . S
C117 O106 1.253 . S
C117 O107 1.268 . S
C118 O108 1.281 . S
C118 O109 1.252 . S
C119 O110 1.272 . S
C119 O111 1.245 . S
O120 Co96 2.053 . S
O120 C112 1.259 . S
O121 Co98 2.047 . S
O121 C112 1.257 . S
O122 Co97 2.063 . S
O122 C113 1.268 . S
O123 Co96 2.094 1_455 S
O123 C113 1.253 . S
O124 Co103 2.115 . S
O124 C114 1.281 . S
O125 Co103 2.315 . S
O125 C114 1.252 . S
O126 Co96 2.131 . S
O126 C115 1.273 . S
O127 Co98 2.113 . S
O127 C115 1.245 . S
Co128 H131 2.400 . S
Co128 O132 2.009 . S
Co128 O140 2.115 . S
Co128 O141 2.315 . S
Co128 O152 2.053 . S
Co128 O155 2.094 . S
Co128 O158 2.122 . S
Co129 O132 2.126 . S
Co129 H133 2.388 . S
Co129 O134 2.053 . S
Co129 O137 2.047 . S
Co129 O143 2.113 . S
Co129 O154 2.063 . S
Co130 H131 2.388 . S
Co130 O132 2.053 . S
Co130 O134 2.126 . S
Co130 O139 2.063 . S
Co130 O153 2.047 . S
Co130 O159 2.113 . S
H131 Co128 2.400 . S
H131 Co130 2.388 . S
H131 O132 0.760 . S
O132 Co128 2.009 . S
O132 Co129 2.126 . S
O132 Co130 2.053 . S
O132 H131 0.760 . S
H133 Co129 2.388 . S
H133 O134 0.760 . S
H133 Co135 2.400 . S
O134 Co129 2.053 . S
O134 Co130 2.126 . S
O134 H133 0.760 . S
O134 Co135 2.009 . S
Co135 H133 2.400 . S
Co135 O134 2.009 . S
Co135 O136 2.053 . S
Co135 O138 2.094 . S
Co135 O142 2.122 . S
Co135 O156 2.115 . S
Co135 O157 2.315 . S
O136 Co135 2.053 . S
O136 C148 1.259 . S
O137 Co129 2.047 . S
O137 C148 1.257 . S
O138 Co135 2.094 . S
O138 C149 1.253 . S
O139 Co130 2.063 . S
O139 C149 1.268 . S
O140 Co128 2.115 . S
O140 C150 1.281 . S
O141 Co128 2.315 . S
O141 C150 1.252 . S
O142 Co135 2.122 . S
O142 C151 1.272 . S
O143 Co129 2.113 . S
O143 C151 1.245 . S
C144 O152 1.259 . S
C144 O153 1.257 . S
C145 O154 1.268 . S
C145 O155 1.253 . S
C146 O156 1.281 . S
C146 O157 1.252 . S
C147 O158 1.272 . S
C147 O159 1.245 . S
C148 O136 1.259 . S
C148 O137 1.257 . S
C149 O138 1.253 . S
C149 O139 1.268 . S
C150 O140 1.281 . S
C150 O141 1.252 . S
C151 O142 1.272 . S
C151 O143 1.245 . S
O152 Co128 2.053 . S
O152 C144 1.259 . S
O153 Co130 2.047 . S
O153 C144 1.257 . S
O154 Co129 2.063 . S
O154 C145 1.268 . S
O155 Co128 2.094 . S
O155 C145 1.253 . S
O156 Co135 2.115 . S
O156 C146 1.281 . S
O157 Co135 2.315 . S
O157 C146 1.252 . S
O158 Co128 2.122 . S
O158 C147 1.272 . S
O159 Co130 2.113 . S
O159 C147 1.245 . S
Co160 H163 2.400 . S
Co160 O164 2.009 . S
Co160 O172 2.115 . S
Co160 O173 2.315 . S
Co160 O184 2.053 . S
Co160 O187 2.094 . S
Co160 O190 2.122 . S
Co161 O164 2.126 . S
Co161 H165 2.388 . S
Co161 O166 2.053 . S
Co161 O169 2.047 . S
Co161 O175 2.113 . S
Co161 O186 2.063 . S
Co162 H163 2.388 . S
Co162 O164 2.053 . S
Co162 O166 2.126 . S
Co162 O171 2.063 . S
Co162 O185 2.047 . S
Co162 O191 2.113 . S
H163 Co160 2.400 . S
H163 Co162 2.388 . S
H163 O164 0.760 . S
O164 Co160 2.009 . S
O164 Co161 2.126 . S
O164 Co162 2.053 . S
O164 H163 0.760 . S
H165 Co161 2.388 . S
H165 O166 0.760 . S
H165 Co167 2.400 . S
O166 Co161 2.053 . S
O166 Co162 2.126 . S
O166 H165 0.760 . S
O166 Co167 2.009 . S
Co167 H165 2.400 . S
Co167 O166 2.009 . S
Co167 O168 2.053 . S
Co167 O170 2.094 . S
Co167 O174 2.122 . S
Co167 O188 2.115 . S
Co167 O189 2.315 . S
O168 Co167 2.053 . S
O168 C180 1.259 . S
O169 Co161 2.047 . S
O169 C180 1.257 . S
O170 Co167 2.094 . S
O170 C181 1.253 . S
O171 Co162 2.063 . S
O171 C181 1.268 . S
O172 Co160 2.115 . S
O172 C182 1.281 . S
O173 Co160 2.315 . S
O173 C182 1.252 . S
O174 Co167 2.122 . S
O174 C183 1.272 . S
O175 Co161 2.113 . S
O175 C183 1.245 . S
C176 O184 1.259 . S
C176 O185 1.257 . S
C177 O186 1.268 . S
C177 O187 1.253 . S
C178 O188 1.281 . S
C178 O189 1.252 . S
C179 O190 1.272 . S
C179 O191 1.245 . S
C180 O168 1.259 . S
C180 O169 1.257 . S
C181 O170 1.253 . S
C181 O171 1.268 . S
C182 O172 1.281 . S
C182 O173 1.252 . S
C183 O174 1.272 . S
C183 O175 1.245 . S
O184 Co160 2.053 . S
O184 C176 1.259 . S
O185 Co162 2.047 . S
O185 C176 1.257 . S
O186 Co161 2.063 . S
O186 C177 1.268 . S
O187 Co160 2.094 . S
O187 C177 1.253 . S
O188 Co167 2.115 . S
O188 C178 1.281 . S
O189 Co167 2.315 . S
O189 C178 1.252 . S
O190 Co160 2.122 . S
O190 C179 1.272 . S
O191 Co162 2.113 . S
O191 C179 1.245 . S
Co192 H195 2.400 1_565 S
Co192 O196 2.009 1_565 S
Co192 O204 2.115 . S
Co192 O205 2.315 1_565 S
Co192 O216 2.053 . S
Co192 O219 2.094 . S
Co192 O222 2.122 . S
Co193 O196 2.126 . S
Co193 H197 2.388 1_545 S
Co193 O198 2.053 1_545 S
Co193 O201 2.047 . S
Co193 O207 2.113 . S
Co193 O218 2.063 . S
Co194 H195 2.388 1_565 S
Co194 O196 2.053 1_565 S
Co194 O198 2.126 . S
Co194 O203 2.063 . S
Co194 O217 2.047 . S
Co194 O223 2.113 . S
H195 Co192 2.400 1_545 S
H195 Co194 2.388 1_545 S
H195 O196 0.760 . S
O196 Co192 2.009 1_545 S
O196 Co193 2.126 . S
O196 Co194 2.053 1_545 S
O196 H195 0.760 . S
H197 Co193 2.388 1_565 S
H197 O198 0.760 . S
H197 Co199 2.400 1_565 S
O198 Co193 2.053 1_565 S
O198 Co194 2.126 . S
O198 H197 0.760 . S
O198 Co199 2.009 1_565 S
Co199 H197 2.400 1_545 S
Co199 O198 2.009 1_545 S
Co199 O200 2.053 . S
Co199 O202 2.094 . S
Co199 O206 2.122 . S
Co199 O220 2.115 . S
Co199 O221 2.315 1_545 S
O200 Co199 2.053 . S
O200 C212 1.259 . S
O201 Co193 2.047 . S
O201 C212 1.257 . S
O202 Co199 2.094 . S
O202 C213 1.253 1_545 S
O203 Co194 2.063 . S
O203 C213 1.268 . S
O204 Co192 2.115 . S
O204 C214 1.281 . S
O205 Co192 2.315 1_545 S
O205 C214 1.252 1_545 S
O206 Co199 2.122 . S
O206 C215 1.272 . S
O207 Co193 2.113 . S
O207 C215 1.245 . S
C208 O216 1.259 . S
C208 O217 1.257 . S
C209 O218 1.268 . S
C209 O219 1.253 1_545 S
C210 O220 1.281 . S
C210 O221 1.252 1_545 S
C211 O222 1.272 . S
C211 O223 1.245 . S
C212 O200 1.259 . S
C212 O201 1.257 . S
C213 O202 1.253 1_565 S
C213 O203 1.268 . S
C214 O204 1.281 . S
C214 O205 1.252 1_565 S
C215 O206 1.272 . S
C215 O207 1.245 . S
O216 Co192 2.053 . S
O216 C208 1.259 . S
O217 Co194 2.047 . S
O217 C208 1.257 . S
O218 Co193 2.063 . S
O218 C209 1.268 . S
O219 Co192 2.094 . S
O219 C209 1.253 1_565 S
O220 Co199 2.115 . S
O220 C210 1.281 . S
O221 Co199 2.315 1_565 S
O221 C210 1.252 1_565 S
O222 Co192 2.122 . S
O222 C211 1.272 . S
O223 Co194 2.113 . S
O223 C211 1.245 . S
Co224 H227 2.400 . S
Co224 O228 2.009 . S
Co224 O236 2.115 . S
Co224 O237 2.315 . S
Co224 O248 2.053 . S
Co224 O251 2.094 . S
Co224 O254 2.122 . S
Co225 O228 2.126 . S
Co225 H229 2.388 1_556 S
Co225 O230 2.053 1_556 S
Co225 O233 2.047 . S
Co225 O239 2.113 . S
Co225 O250 2.063 . S
Co226 H227 2.388 1_554 S
Co226 O228 2.053 1_554 S
Co226 O230 2.126 . S
Co226 O235 2.063 . S
Co226 O249 2.047 . S
Co226 O255 2.113 . S
H227 Co224 2.400 . S
H227 Co226 2.388 1_556 S
H227 O228 0.760 . S
O228 Co224 2.009 . S
O228 Co225 2.126 . S
O228 Co226 2.053 1_556 S
O228 H227 0.760 . S
H229 Co225 2.388 1_554 S
H229 O230 0.760 . S
H229 Co231 2.400 . S
O230 Co225 2.053 1_554 S
O230 Co226 2.126 . S
O230 H229 0.760 . S
O230 Co231 2.009 . S
Co231 H229 2.400 . S
Co231 O230 2.009 . S
Co231 O232 2.053 . S
Co231 O234 2.094 . S
Co231 O238 2.122 . S
Co231 O252 2.115 . S
Co231 O253 2.315 . S
O232 Co231 2.053 . S
O232 C244 1.259 . S
O233 Co225 2.047 . S
O233 C244 1.257 1_556 S
O234 Co231 2.094 . S
O234 C245 1.253 . S
O235 Co226 2.063 . S
O235 C245 1.268 . S
O236 Co224 2.115 . S
O236 C246 1.281 . S
O237 Co224 2.315 . S
O237 C246 1.252 . S
O238 Co231 2.122 . S
O238 C247 1.272 . S
O239 Co225 2.113 . S
O239 C247 1.245 1_556 S
C240 O248 1.259 . S
C240 O249 1.257 1_556 S
C241 O250 1.268 . S
C241 O251 1.253 . S
C242 O252 1.281 . S
C242 O253 1.252 . S
C243 O254 1.316 . S
C243 O255 1.210 1_556 S
C244 O232 1.259 . S
C244 O233 1.257 1_554 S
C245 O234 1.253 . S
C245 O235 1.268 . S
C246 O236 1.281 . S
C246 O237 1.252 . S
C247 O238 1.272 . S
C247 O239 1.245 1_554 S
O248 Co224 2.053 . S
O248 C240 1.259 . S
O249 Co226 2.047 . S
O249 C240 1.257 1_554 S
O250 Co225 2.063 . S
O250 C241 1.268 . S
O251 Co224 2.094 . S
O251 C241 1.253 . S
O252 Co231 2.115 . S
O252 C242 1.281 . S
O253 Co231 2.315 . S
O253 C242 1.252 . S
O254 Co224 2.122 . S
O254 C243 1.316 . S
O255 Co226 2.113 . S
O255 C243 1.210 1_554 S
H256 C262 0.930 . S
H257 C266 0.930 . S
H258 C271 0.929 . S
H259 C269 0.929 . S
H260 C264 0.929 . S
H261 C270 0.929 . S
C262 H256 0.930 . S
C262 C263 1.367 . S
C262 C270 1.378 . S
C263 C262 1.367 . S
C263 C271 1.433 . S
C264 H260 0.929 . S
C264 C266 1.378 . S
C264 C268 1.350 . S
C265 C268 1.463 . S
C265 C270 1.350 . S
C265 N273 1.427 . S
C266 H257 0.930 . S
C266 C264 1.378 . S
C266 C267 1.367 . S
C267 C266 1.367 . S
C267 C269 1.433 . S
C268 C264 1.350 . S
C268 C265 1.463 . S
C268 N272 1.427 . S
C269 H259 0.929 . S
C269 C267 1.433 . S
C269 N272 1.384 . S
C270 H261 0.929 . S
C270 C262 1.378 . S
C270 C265 1.350 . S
C271 H258 0.929 . S
C271 C263 1.433 . S
C271 N273 1.384 . S
N272 C268 1.427 . S
N272 C269 1.384 . S
N273 C265 1.427 . S
N273 C271 1.384 . S
H274 C280 0.930 . S
H275 C284 0.930 . S
H276 C289 0.929 1_545 S
H277 C287 0.929 . S
H278 C282 0.929 . S
H279 C288 0.929 . S
C280 H274 0.930 . S
C280 C281 1.367 . S
C280 C288 1.378 . S
C281 C280 1.367 . S
C281 C289 1.433 . S
C282 H278 0.929 . S
C282 C284 1.378 . S
C282 C286 1.350 . S
C283 C286 1.463 . S
C283 C288 1.350 . S
C283 N291 1.427 . S
C284 H275 0.930 . S
C284 C282 1.378 . S
C284 C285 1.367 . S
C285 C284 1.367 . S
C285 C287 1.433 . S
C286 C282 1.350 . S
C286 C283 1.463 . S
C286 N290 1.427 . S
C287 H277 0.929 . S
C287 C285 1.433 . S
C287 N290 1.384 . S
C288 H279 0.929 . S
C288 C280 1.378 . S
C288 C283 1.350 . S
C289 H276 0.929 1_565 S
C289 C281 1.433 . S
C289 N291 1.384 . S
N290 C286 1.427 . S
N290 C287 1.384 . S
N291 C283 1.427 . S
N291 C289 1.384 . S
H292 C298 0.930 . S
H293 C302 0.930 . S
H294 C307 0.929 . S
H295 C305 0.929 . S
H296 C300 0.929 . S
H297 C306 0.929 . S
C298 H292 0.930 . S
C298 C299 1.367 . S
C298 C306 1.378 . S
C299 C298 1.367 . S
C299 C307 1.433 . S
C300 H296 0.929 . S
C300 C302 1.378 . S
C300 C304 1.350 . S
C301 C304 1.463 . S
C301 C306 1.350 . S
C301 N309 1.427 . S
C302 H293 0.930 . S
C302 C300 1.378 . S
C302 C303 1.367 . S
C303 C302 1.367 . S
C303 C305 1.433 . S
C304 C300 1.350 . S
C304 C301 1.463 . S
C304 N308 1.427 . S
C305 H295 0.929 . S
C305 C303 1.433 . S
C305 N308 1.384 . S
C306 H297 0.929 . S
C306 C298 1.378 . S
C306 C301 1.350 . S
C307 H294 0.929 . S
C307 C299 1.433 . S
C307 N309 1.384 . S
N308 C304 1.427 . S
N308 C305 1.384 . S
N309 C301 1.427 . S
N309 C307 1.384 . S
H310 C316 0.930 . S
H311 C320 0.930 . S
H312 C325 0.929 . S
H313 C323 0.929 . S
H314 C318 0.929 . S
H315 C324 0.929 . S
C316 H310 0.930 . S
C316 C317 1.367 . S
C316 C324 1.378 . S
C317 C316 1.367 . S
C317 C325 1.433 . S
C318 H314 0.929 . S
C318 C320 1.378 . S
C318 C322 1.350 . S
C319 C322 1.463 . S
C319 C324 1.350 . S
C319 N327 1.427 . S
C320 H311 0.930 . S
C320 C318 1.378 . S
C320 C321 1.367 . S
C321 C320 1.367 . S
C321 C323 1.433 . S
C322 C318 1.350 . S
C322 C319 1.463 . S
C322 N326 1.427 . S
C323 H313 0.929 . S
C323 C321 1.433 . S
C323 N326 1.384 . S
C324 H315 0.929 . S
C324 C316 1.378 . S
C324 C319 1.350 . S
C325 H312 0.929 . S
C325 C317 1.433 . S
C325 N327 1.384 . S
N326 C322 1.427 . S
N326 C323 1.384 . S
N327 C319 1.427 . S
N327 C325 1.384 . S
H328 C334 0.930 . S
H329 C338 0.930 . S
H330 C343 0.929 . S
H331 C341 0.929 . S
H332 C336 0.929 . S
H333 C342 0.929 . S
C334 H328 0.930 . S
C334 C335 1.367 . S
C334 C342 1.378 . S
C335 C334 1.367 . S
C335 C343 1.433 . S
C336 H332 0.929 . S
C336 C338 1.378 . S
C336 C340 1.350 . S
C337 C340 1.463 . S
C337 C342 1.350 . S
C337 N345 1.427 . S
C338 H329 0.930 . S
C338 C336 1.378 . S
C338 C339 1.367 . S
C339 C338 1.367 . S
C339 C341 1.433 . S
C340 C336 1.350 . S
C340 C337 1.463 . S
C340 N344 1.427 . S
C341 H331 0.929 . S
C341 C339 1.433 . S
C341 N344 1.384 . S
C342 H333 0.929 . S
C342 C334 1.378 . S
C342 C337 1.350 . S
C343 H330 0.929 . S
C343 C335 1.433 . S
C343 N345 1.384 . S
N344 C340 1.427 . S
N344 C341 1.384 . S
N345 C337 1.427 . S
N345 C343 1.384 . S
H346 C352 0.930 . S
H347 C356 0.930 . S
H348 C361 0.929 . S
H349 C359 0.929 . S
H350 C354 0.929 . S
H351 C360 0.929 . S
C352 H346 0.930 . S
C352 C353 1.367 . S
C352 C360 1.378 . S
C353 C352 1.367 . S
C353 C361 1.433 . S
C354 H350 0.929 . S
C354 C356 1.378 . S
C354 C358 1.350 . S
C355 C358 1.463 . S
C355 C360 1.350 . S
C355 N363 1.427 . S
C356 H347 0.930 . S
C356 C354 1.378 . S
C356 C357 1.367 . S
C357 C356 1.367 . S
C357 C359 1.433 . S
C358 C354 1.350 . S
C358 C355 1.463 . S
C358 N362 1.427 . S
C359 H349 0.929 . S
C359 C357 1.433 . S
C359 N362 1.384 . S
C360 H351 0.929 . S
C360 C352 1.378 . S
C360 C355 1.350 . S
C361 H348 0.929 . S
C361 C353 1.433 . S
C361 N363 1.384 . S
N362 C358 1.427 . S
N362 C359 1.384 . S
N363 C355 1.427 . S
N363 C361 1.384 . S
H364 C370 0.930 . S
H365 C374 0.930 . S
H366 C379 0.929 . S
H367 C377 0.929 . S
H368 C372 0.929 . S
H369 C378 0.929 . S
C370 H364 0.930 . S
C370 C371 1.367 . S
C370 C378 1.378 . S
C371 C370 1.367 . S
C371 C379 1.433 . S
C372 H368 0.929 . S
C372 C374 1.378 . S
C372 C376 1.350 . S
C373 C376 1.463 . S
C373 C378 1.350 . S
C373 N381 1.427 . S
C374 H365 0.930 . S
C374 C372 1.378 . S
C374 C375 1.374 . S
C375 C374 1.374 . S
C375 C377 1.432 1_565 S
C376 C372 1.350 . S
C376 C373 1.463 . S
C376 N380 1.427 . S
C377 H367 0.929 . S
C377 C375 1.432 1_545 S
C377 N380 1.384 1_545 S
C378 H369 0.929 . S
C378 C370 1.378 . S
C378 C373 1.350 . S
C379 H366 0.929 . S
C379 C371 1.433 . S
C379 N381 1.384 . S
N380 C376 1.427 . S
N380 C377 1.384 1_565 S
N381 C373 1.427 . S
N381 C379 1.384 . S
H382 C388 0.930 . S
H383 C392 0.930 . S
H384 C397 0.929 . S
H385 C395 0.929 . S
H386 C390 0.929 . S
H387 C396 0.929 . S
C388 H382 0.930 . S
C388 C389 1.367 . S
C388 C396 1.378 . S
C389 C388 1.367 . S
C389 C397 1.433 . S
C390 H386 0.929 . S
C390 C392 1.378 . S
C390 C394 1.350 1_565 S
C391 C394 1.463 . S
C391 C396 1.350 . S
C391 N399 1.427 . S
C392 H383 0.930 . S
C392 C390 1.378 . S
C392 C393 1.367 . S
C393 C392 1.367 . S
C393 C395 1.433 1_565 S
C394 C390 1.350 1_545 S
C394 C391 1.463 . S
C394 N398 1.427 . S
C395 H385 0.929 . S
C395 C393 1.433 1_545 S
C395 N398 1.384 . S
C396 H387 0.929 . S
C396 C388 1.378 . S
C396 C391 1.350 . S
C397 H384 0.929 . S
C397 C389 1.433 . S
C397 N399 1.384 . S
N398 C394 1.427 . S
N398 C395 1.384 . S
N399 C391 1.427 . S
N399 C397 1.384 . S
H400 C406 0.930 . S
H401 C410 0.930 . S
H402 C415 0.929 . S
H403 C413 0.929 . S
H404 C408 0.929 . S
H405 C414 0.929 . S
C406 H400 0.930 . S
C406 C407 1.367 . S
C406 C414 1.378 . S
C407 C406 1.367 . S
C407 C415 1.433 . S
C408 H404 0.929 . S
C408 C410 1.378 . S
C408 C412 1.350 . S
C409 C412 1.463 . S
C409 C414 1.350 . S
C409 N417 1.427 . S
C410 H401 0.930 . S
C410 C408 1.378 . S
C410 C411 1.367 . S
C411 C410 1.367 . S
C411 C413 1.433 . S
C412 C408 1.350 . S
C412 C409 1.463 . S
C412 N416 1.427 . S
C413 H403 0.929 . S
C413 C411 1.433 . S
C413 N416 1.384 . S
C414 H405 0.929 . S
C414 C406 1.378 . S
C414 C409 1.350 . S
C415 H402 0.929 . S
C415 C407 1.433 . S
C415 N417 1.384 . S
N416 C412 1.427 . S
N416 C413 1.384 . S
N417 C409 1.427 . S
N417 C415 1.384 . S
H418 C424 0.930 1_545 S
H419 C428 0.930 . S
H420 C433 0.929 . S
H421 C431 0.929 . S
H422 C426 0.929 . S
H423 C432 0.929 . S
C424 H418 0.930 1_565 S
C424 C425 1.367 . S
C424 C432 1.378 . S
C425 C424 1.367 . S
C425 C433 1.433 . S
C426 H422 0.929 . S
C426 C428 1.378 . S
C426 C430 1.350 . S
C427 C430 1.463 . S
C427 C432 1.350 . S
C427 N435 1.427 . S
C428 H419 0.930 . S
C428 C426 1.378 . S
C428 C429 1.367 . S
C429 C428 1.367 . S
C429 C431 1.433 . S
C430 C426 1.350 . S
C430 C427 1.463 . S
C430 N434 1.427 . S
C431 H421 0.929 . S
C431 C429 1.433 . S
C431 N434 1.384 . S
C432 H423 0.929 . S
C432 C424 1.378 . S
C432 C427 1.350 . S
C433 H420 0.929 . S
C433 C425 1.433 . S
C433 N435 1.384 . S
N434 C430 1.427 . S
N434 C431 1.384 . S
N435 C427 1.427 . S
N435 C433 1.384 . S
H436 C442 0.930 . S
H437 C446 0.930 . S
H438 C451 0.929 . S
H439 C449 0.929 . S
H440 C444 0.929 . S
H441 C450 0.929 . S
C442 H436 0.930 . S
C442 C443 1.367 . S
C442 C450 1.378 . S
C443 C442 1.367 . S
C443 C451 1.433 . S
C444 H440 0.929 . S
C444 C446 1.378 . S
C444 C448 1.350 . S
C445 C448 1.463 . S
C445 C450 1.350 . S
C445 N453 1.427 . S
C446 H437 0.930 . S
C446 C444 1.378 . S
C446 C447 1.367 . S
C447 C446 1.367 . S
C447 C449 1.433 . S
C448 C444 1.350 . S
C448 C445 1.463 . S
C448 N452 1.427 . S
C449 H439 0.929 . S
C449 C447 1.433 . S
C449 N452 1.384 . S
C450 H441 0.929 . S
C450 C442 1.378 . S
C450 C445 1.350 . S
C451 H438 0.929 . S
C451 C443 1.433 . S
C451 N453 1.384 . S
N452 C448 1.427 . S
N452 C449 1.384 . S
N453 C445 1.427 . S
N453 C451 1.384 . S
H454 C460 0.930 . S
H455 C464 0.930 . S
H456 C469 0.929 . S
H457 C467 0.929 . S
H458 C462 0.929 . S
H459 C468 0.929 . S
C460 H454 0.930 . S
C460 C461 1.367 . S
C460 C468 1.378 . S
C461 C460 1.367 . S
C461 C469 1.433 . S
C462 H458 0.929 . S
C462 C464 1.378 . S
C462 C466 1.350 . S
C463 C466 1.463 . S
C463 C468 1.350 . S
C463 N471 1.427 . S
C464 H455 0.930 . S
C464 C462 1.378 . S
C464 C465 1.367 . S
C465 C464 1.367 . S
C465 C467 1.433 . S
C466 C462 1.350 . S
C466 C463 1.463 . S
C466 N470 1.427 . S
C467 H457 0.929 . S
C467 C465 1.433 . S
C467 N470 1.384 . S
C468 H459 0.929 . S
C468 C460 1.378 . S
C468 C463 1.350 . S
C469 H456 0.929 . S
C469 C461 1.433 . S
C469 N471 1.384 . S
N470 C466 1.427 . S
N470 C467 1.384 . S
N471 C463 1.427 . S
N471 C469 1.384 . S
H472 C478 0.930 . S
H473 C482 0.930 . S
H474 C487 0.929 . S
H475 C485 0.929 . S
H476 C480 0.929 . S
H477 C486 0.929 . S
C478 H472 0.930 . S
C478 C479 1.367 . S
C478 C486 1.378 . S
C479 C478 1.367 . S
C479 C487 1.433 . S
C480 H476 0.929 . S
C480 C482 1.378 . S
C480 C484 1.350 . S
C481 C484 1.463 . S
C481 C486 1.350 . S
C481 N489 1.427 . S
C482 H473 0.930 . S
C482 C480 1.378 . S
C482 C483 1.367 . S
C483 C482 1.367 . S
C483 C485 1.433 . S
C484 C480 1.350 . S
C484 C481 1.463 . S
C484 N488 1.427 . S
C485 H475 0.929 . S
C485 C483 1.433 . S
C485 N488 1.384 . S
C486 H477 0.929 . S
C486 C478 1.378 . S
C486 C481 1.350 . S
C487 H474 0.929 . S
C487 C479 1.433 . S
C487 N489 1.384 . S
N488 C484 1.427 . S
N488 C485 1.384 . S
N489 C481 1.427 . S
N489 C487 1.384 . S
H490 C496 0.930 . S
H491 C500 0.930 . S
H492 C505 0.929 . S
H493 C503 0.929 . S
H494 C498 0.929 . S
H495 C504 0.929 . S
C496 H490 0.930 . S
C496 C497 1.367 . S
C496 C504 1.378 . S
C497 C496 1.367 . S
C497 C505 1.433 . S
C498 H494 0.929 . S
C498 C500 1.378 . S
C498 C502 1.350 . S
C499 C502 1.463 . S
C499 C504 1.350 . S
C499 N507 1.427 . S
C500 H491 0.930 . S
C500 C498 1.378 . S
C500 C501 1.367 . S
C501 C500 1.367 . S
C501 C503 1.433 . S
C502 C498 1.350 . S
C502 C499 1.463 . S
C502 N506 1.427 . S
C503 H493 0.929 . S
C503 C501 1.433 . S
C503 N506 1.384 . S
C504 H495 0.929 . S
C504 C496 1.378 . S
C504 C499 1.350 . S
C505 H492 0.929 . S
C505 C497 1.433 . S
C505 N507 1.384 . S
N506 C502 1.427 . S
N506 C503 1.384 . S
N507 C499 1.427 . S
N507 C505 1.384 . S
H508 C514 0.930 . S
H509 C518 0.930 . S
H510 C523 0.929 . S
H511 C521 0.929 . S
H512 C516 0.929 . S
H513 C522 0.929 . S
C514 H508 0.930 . S
C514 C515 1.367 . S
C514 C522 1.378 . S
C515 C514 1.367 . S
C515 C523 1.433 1_565 S
C516 H512 0.929 . S
C516 C518 1.378 . S
C516 C520 1.350 . S
C517 C520 1.463 . S
C517 C522 1.350 . S
C517 N525 1.427 1_565 S
C518 H509 0.930 . S
C518 C516 1.378 . S
C518 C519 1.367 . S
C519 C518 1.367 . S
C519 C521 1.433 . S
C520 C516 1.350 . S
C520 C517 1.463 . S
C520 N524 1.427 . S
C521 H511 0.929 . S
C521 C519 1.433 . S
C521 N524 1.384 . S
C522 H513 0.929 . S
C522 C514 1.378 . S
C522 C517 1.350 . S
C523 H510 0.929 . S
C523 C515 1.433 1_545 S
C523 N525 1.384 . S
N524 C520 1.427 . S
N524 C521 1.384 . S
N525 C517 1.427 1_545 S
N525 C523 1.384 . S
H526 C532 0.930 . S
H527 C536 0.930 . S
H528 C541 0.929 . S
H529 C539 0.929 . S
H530 C534 0.929 . S
H531 C540 0.929 . S
C532 H526 0.930 . S
C532 C533 1.367 . S
C532 C540 1.378 . S
C533 C532 1.367 . S
C533 C541 1.433 1_565 S
C534 H530 0.929 . S
C534 C536 1.378 . S
C534 C538 1.350 . S
C535 C538 1.463 . S
C535 C540 1.350 1_545 S
C535 N543 1.427 . S
C536 H527 0.930 . S
C536 C534 1.378 . S
C536 C537 1.367 . S
C537 C536 1.367 . S
C537 C539 1.433 . S
C538 C534 1.350 . S
C538 C535 1.463 . S
C538 N542 1.427 . S
C539 H529 0.929 . S
C539 C537 1.433 . S
C539 N542 1.384 . S
C540 H531 0.929 . S
C540 C532 1.378 . S
C540 C535 1.350 1_565 S
C541 H528 0.929 . S
C541 C533 1.433 1_545 S
C541 N543 1.384 . S
N542 C538 1.427 . S
N542 C539 1.384 . S
N543 C535 1.427 . S
N543 C541 1.384 . S
H544 C550 0.930 . S
H545 C554 0.930 . S
H546 C559 0.929 . S
H547 C557 0.929 1_655 S
H548 C552 0.929 . S
H549 C558 0.929 . S
C550 H544 0.930 . S
C550 C551 1.367 1_655 S
C550 C558 1.378 . S
C551 C550 1.367 1_455 S
C551 C559 1.433 1_554 S
C552 H548 0.929 . S
C552 C554 1.378 . S
C552 C556 1.337 1_556 S
C553 C556 1.466 . S
C553 C558 1.350 1_455 S
C553 N561 1.427 1_554 S
C554 H545 0.930 . S
C554 C552 1.378 . S
C554 C555 1.367 . S
C555 C554 1.367 . S
C555 C557 1.433 1_556 S
C556 C552 1.337 1_554 S
C556 C553 1.466 . S
C556 N560 1.437 1_455 S
C557 H547 0.929 1_455 S
C557 C555 1.433 1_554 S
C557 N560 1.384 1_455 S
C558 H549 0.929 . S
C558 C550 1.378 . S
C558 C553 1.350 1_655 S
C559 H546 0.929 . S
C559 C551 1.433 1_556 S
C559 N561 1.384 . S
N560 C556 1.437 1_655 S
N560 C557 1.384 1_655 S
N561 C553 1.427 1_556 S
N561 C559 1.384 . S
H562 C568 0.930 . S
H563 C572 0.930 . S
H564 C577 0.929 . S
H565 C575 0.929 . S
H566 C570 0.929 . S
H567 C576 0.929 . S
C568 H562 0.930 . S
C568 C569 1.367 . S
C568 C576 1.378 . S
C569 C568 1.367 . S
C569 C577 1.433 . S
C570 H566 0.929 . S
C570 C572 1.378 . S
C570 C574 1.350 . S
C571 C574 1.463 . S
C571 C576 1.350 . S
C571 N579 1.427 . S
C572 H563 0.930 . S
C572 C570 1.378 . S
C572 C573 1.367 . S
C573 C572 1.367 . S
C573 C575 1.433 . S
C574 C570 1.350 . S
C574 C571 1.463 . S
C574 N578 1.427 . S
C575 H565 0.929 . S
C575 C573 1.433 . S
C575 N578 1.384 . S
C576 H567 0.929 . S
C576 C568 1.378 . S
C576 C571 1.350 . S
C577 H564 0.929 . S
C577 C569 1.433 . S
C577 N579 1.384 . S
N578 C574 1.427 . S
N578 C575 1.384 . S
N579 C571 1.427 . S
N579 C577 1.384 . S
H580 C586 0.930 . S
H581 C590 0.930 . S
H582 C595 0.929 . S
H583 C593 0.929 . S
H584 C588 0.929 . S
H585 C594 0.929 . S
C586 H580 0.930 . S
C586 C587 1.367 . S
C586 C594 1.378 . S
C587 C586 1.367 . S
C587 C595 1.433 . S
C588 H584 0.929 . S
C588 C590 1.378 . S
C588 C592 1.350 . S
C589 C592 1.463 . S
C589 C594 1.350 . S
C589 N597 1.427 . S
C590 H581 0.930 . S
C590 C588 1.378 . S
C590 C591 1.367 . S
C591 C590 1.367 . S
C591 C593 1.433 . S
C592 C588 1.350 . S
C592 C589 1.463 . S
C592 N596 1.427 . S
C593 H583 0.929 . S
C593 C591 1.433 . S
C593 N596 1.384 . S
C594 H585 0.929 . S
C594 C586 1.378 . S
C594 C589 1.350 . S
C595 H582 0.929 . S
C595 C587 1.433 . S
C595 N597 1.384 . S
N596 C592 1.427 . S
N596 C593 1.384 . S
N597 C589 1.427 . S
N597 C595 1.384 . S
H598 C604 0.930 . S
H599 C608 0.930 . S
H600 C613 0.929 1_655 S
H601 C611 0.929 . S
H602 C606 0.929 . S
H603 C612 0.929 . S
C604 H598 0.930 . S
C604 C605 1.367 . S
C604 C612 1.378 . S
C605 C604 1.367 . S
C605 C613 1.433 . S
C606 H602 0.929 . S
C606 C608 1.378 . S
C606 C610 1.350 1_655 S
C607 C610 1.463 1_565 S
C607 C612 1.350 . S
C607 N615 1.424 1_455 S
C608 H599 0.930 . S
C608 C606 1.378 . S
C608 C609 1.367 1_655 S
C609 C608 1.367 1_455 S
C609 C611 1.433 . S
C610 C606 1.350 1_455 S
C610 C607 1.463 1_545 S
C610 N614 1.427 . S
C611 H601 0.929 . S
C611 C609 1.433 . S
C611 N614 1.384 . S
C612 H603 0.929 . S
C612 C604 1.378 . S
C612 C607 1.350 . S
C613 H600 0.929 1_455 S
C613 C605 1.433 . S
C613 N615 1.383 1_455 S
N614 C610 1.427 . S
N614 C611 1.384 . S
N615 C607 1.424 1_655 S
N615 C613 1.383 1_655 S
H616 C622 0.930 . S
H617 C626 0.930 . S
H618 C631 0.929 . S
H619 C629 0.929 . S
H620 C624 0.929 . S
H621 C630 0.929 . S
C622 H616 0.930 . S
C622 C623 1.367 . S
C622 C630 1.378 . S
C623 C622 1.367 . S
C623 C631 1.433 . S
C624 H620 0.929 . S
C624 C626 1.378 . S
C624 C628 1.350 . S
C625 C628 1.463 . S
C625 C630 1.350 . S
C625 N633 1.427 . S
C626 H617 0.930 . S
C626 C624 1.378 . S
C626 C627 1.367 . S
C627 C626 1.367 . S
C627 C629 1.433 . S
C628 C624 1.350 . S
C628 C625 1.463 . S
C628 N632 1.427 . S
C629 H619 0.929 . S
C629 C627 1.433 . S
C629 N632 1.384 . S
C630 H621 0.929 . S
C630 C622 1.378 . S
C630 C625 1.350 . S
C631 H618 0.929 . S
C631 C623 1.433 . S
C631 N633 1.384 . S
N632 C628 1.427 . S
N632 C629 1.384 . S
N633 C625 1.427 . S
N633 C631 1.384 . S
H634 C640 0.930 . S
H635 C644 0.930 . S
H636 C649 0.929 . S
H637 C647 0.929 . S
H638 C642 0.929 . S
H639 C648 0.929 . S
C640 H634 0.930 . S
C640 C641 1.367 . S
C640 C648 1.378 . S
C641 C640 1.367 . S
C641 C649 1.433 . S
C642 H638 0.929 . S
C642 C644 1.378 . S
C642 C646 1.350 . S
C643 C646 1.463 . S
C643 C648 1.350 . S
C643 N651 1.427 . S
C644 H635 0.930 . S
C644 C642 1.378 . S
C644 C645 1.367 . S
C645 C644 1.367 . S
C645 C647 1.433 . S
C646 C642 1.350 . S
C646 C643 1.463 . S
C646 N650 1.427 . S
C647 H637 0.929 . S
C647 C645 1.433 . S
C647 N650 1.384 . S
C648 H639 0.929 . S
C648 C640 1.378 . S
C648 C643 1.350 . S
C649 H636 0.929 . S
C649 C641 1.433 . S
C649 N651 1.384 . S
N650 C646 1.427 . S
N650 C647 1.384 . S
N651 C643 1.427 . S
N651 C649 1.384 . S
H652 C658 0.930 . S
H653 C662 0.930 . S
H654 C667 0.929 . S
H655 C665 0.929 . S
H656 C660 0.929 . S
H657 C666 0.929 . S
C658 H652 0.930 . S
C658 C659 1.367 . S
C658 C666 1.378 . S
C659 C658 1.367 . S
C659 C667 1.433 . S
C660 H656 0.929 . S
C660 C662 1.378 . S
C660 C664 1.350 . S
C661 C664 1.463 . S
C661 C666 1.350 . S
C661 N669 1.427 . S
C662 H653 0.930 . S
C662 C660 1.378 . S
C662 C663 1.367 . S
C663 C662 1.367 . S
C663 C665 1.433 . S
C664 C660 1.350 . S
C664 C661 1.463 . S
C664 N668 1.427 . S
C665 H655 0.929 . S
C665 C663 1.433 . S
C665 N668 1.384 . S
C666 H657 0.929 . S
C666 C658 1.378 . S
C666 C661 1.350 . S
C667 H654 0.929 . S
C667 C659 1.433 . S
C667 N669 1.384 . S
N668 C664 1.427 . S
N668 C665 1.384 . S
N669 C661 1.427 . S
N669 C667 1.384 . S
H670 C676 0.930 . S
H671 C680 0.930 . S
H672 C685 0.929 . S
H673 C683 0.929 . S
H674 C678 0.929 . S
H675 C684 0.929 . S
C676 H670 0.930 . S
C676 C677 1.352 1_554 S
C676 C684 1.378 . S
C677 C676 1.352 1_556 S
C677 C685 1.445 . S
C678 H674 0.929 . S
C678 C680 1.378 . S
C678 C682 1.350 1_556 S
C679 C682 1.463 1_565 S
C679 C684 1.350 . S
C679 N687 1.427 1_554 S
C680 H671 0.930 . S
C680 C678 1.378 . S
C680 C681 1.367 1_556 S
C681 C680 1.367 1_554 S
C681 C683 1.433 . S
C682 C678 1.350 1_554 S
C682 C679 1.463 1_545 S
C682 N686 1.427 . S
C683 H673 0.929 . S
C683 C681 1.433 . S
C683 N686 1.384 . S
C684 H675 0.929 . S
C684 C676 1.378 . S
C684 C679 1.350 . S
C685 H672 0.929 . S
C685 C677 1.445 . S
C685 N687 1.384 . S
N686 C682 1.427 . S
N686 C683 1.384 . S
N687 C679 1.427 1_556 S
N687 C685 1.384 . S
H688 C694 0.930 . S
H689 C698 0.930 . S
H690 C703 0.929 . S
H691 C701 0.929 . S
H692 C696 0.929 . S
H693 C702 0.929 . S
C694 H688 0.930 . S
C694 C695 1.367 1_554 S
C694 C702 1.378 . S
C695 C694 1.367 1_556 S
C695 C703 1.433 . S
C696 H692 0.929 . S
C696 C698 1.378 . S
C696 C700 1.350 1_556 S
C697 C700 1.462 . S
C697 C702 1.387 . S
C697 N705 1.390 1_554 S
C698 H689 0.930 . S
C698 C696 1.378 . S
C698 C699 1.367 1_556 S
C699 C698 1.367 1_554 S
C699 C701 1.433 . S
C700 C696 1.350 1_554 S
C700 C697 1.462 . S
C700 N704 1.427 . S
C701 H691 0.929 . S
C701 C699 1.433 . S
C701 N704 1.384 . S
C702 H693 0.929 . S
C702 C694 1.378 . S
C702 C697 1.387 . S
C703 H690 0.929 . S
C703 C695 1.433 . S
C703 N705 1.384 . S
N704 C700 1.427 . S
N704 C701 1.384 . S
N705 C697 1.390 1_556 S
N705 C703 1.384 . S
H706 C712 0.930 . S
H707 C716 0.930 . S
H708 C721 0.929 . S
H709 C719 0.929 . S
H710 C714 0.929 . S
H711 C720 0.929 . S
C712 H706 0.930 . S
C712 C713 1.367 . S
C712 C720 1.378 . S
C713 C712 1.367 . S
C713 C721 1.433 1_556 S
C714 H710 0.929 . S
C714 C716 1.378 . S
C714 C718 1.350 . S
C715 C718 1.462 1_556 S
C715 C720 1.358 . S
C715 N723 1.419 1_556 S
C716 H707 0.930 . S
C716 C714 1.378 . S
C716 C717 1.367 . S
C717 C716 1.367 . S
C717 C719 1.433 1_554 S
C718 C714 1.350 . S
C718 C715 1.462 1_554 S
C718 N722 1.427 1_554 S
C719 H709 0.929 . S
C719 C717 1.433 1_556 S
C719 N722 1.384 . S
C720 H711 0.929 . S
C720 C712 1.378 . S
C720 C715 1.358 . S
C721 H708 0.929 . S
C721 C713 1.433 1_554 S
C721 N723 1.384 . S
N722 C718 1.427 1_556 S
N722 C719 1.384 . S
N723 C715 1.419 1_554 S
N723 C721 1.384 . S
H724 C730 0.930 . S
H725 C734 0.930 . S
H726 C739 0.929 . S
H727 C737 0.929 . S
H728 C732 0.929 . S
H729 C738 0.929 . S
C730 H724 0.930 . S
C730 C731 1.367 . S
C730 C738 1.378 . S
C731 C730 1.367 . S
C731 C739 1.433 . S
C732 H728 0.929 . S
C732 C734 1.378 . S
C732 C736 1.350 . S
C733 C736 1.463 1_455 S
C733 C738 1.350 . S
C733 N741 1.427 . S
C734 H725 0.930 . S
C734 C732 1.378 . S
C734 C735 1.367 . S
C735 C734 1.367 . S
C735 C737 1.433 . S
C736 C732 1.350 . S
C736 C733 1.463 1_655 S
C736 N740 1.427 . S
C737 H727 0.929 . S
C737 C735 1.433 . S
C737 N740 1.384 . S
C738 H729 0.929 . S
C738 C730 1.378 . S
C738 C733 1.350 . S
C739 H726 0.929 . S
C739 C731 1.433 . S
C739 N741 1.384 . S
N740 C736 1.427 . S
N740 C737 1.384 . S
N741 C733 1.427 . S
N741 C739 1.384 . S
H742 C748 0.930 . S
H743 C752 0.930 . S
H744 C757 0.929 . S
H745 C755 0.929 . S
H746 C750 0.929 . S
H747 C756 0.929 . S
C748 H742 0.930 . S
C748 C749 1.367 . S
C748 C756 1.378 . S
C749 C748 1.367 . S
C749 C757 1.433 . S
C750 H746 0.929 . S
C750 C752 1.378 . S
C750 C754 1.350 . S
C751 C754 1.463 . S
C751 C756 1.350 . S
C751 N759 1.427 . S
C752 H743 0.930 . S
C752 C750 1.378 . S
C752 C753 1.367 . S
C753 C752 1.367 . S
C753 C755 1.433 . S
C754 C750 1.350 . S
C754 C751 1.463 . S
C754 N758 1.427 . S
C755 H745 0.929 . S
C755 C753 1.433 . S
C755 N758 1.384 . S
C756 H747 0.929 . S
C756 C748 1.378 . S
C756 C751 1.350 . S
C757 H744 0.929 . S
C757 C749 1.433 . S
C757 N759 1.384 . S
N758 C754 1.427 . S
N758 C755 1.384 . S
N759 C751 1.427 . S
N759 C757 1.384 . S
H760 C766 0.930 . S
H761 C770 0.930 . S
H762 C775 0.929 . S
H763 C773 0.929 . S
H764 C768 0.929 . S
H765 C774 0.929 . S
C766 H760 0.930 . S
C766 C767 1.367 . S
C766 C774 1.378 . S
C767 C766 1.367 . S
C767 C775 1.433 . S
C768 H764 0.929 . S
C768 C770 1.378 . S
C768 C772 1.350 . S
C769 C772 1.463 . S
C769 C774 1.350 . S
C769 N777 1.427 . S
C770 H761 0.930 . S
C770 C768 1.378 . S
C770 C771 1.367 . S
C771 C770 1.367 . S
C771 C773 1.433 . S
C772 C768 1.350 . S
C772 C769 1.463 . S
C772 N776 1.427 . S
C773 H763 0.929 . S
C773 C771 1.433 . S
C773 N776 1.384 . S
C774 H765 0.929 . S
C774 C766 1.378 . S
C774 C769 1.350 . S
C775 H762 0.929 . S
C775 C767 1.433 . S
C775 N777 1.384 . S
N776 C772 1.427 . S
N776 C773 1.384 . S
N777 C769 1.427 . S
N777 C775 1.384 . S
H778 C784 0.930 . S
H779 C788 0.930 . S
H780 C793 0.929 . S
H781 C791 0.929 . S
H782 C786 0.929 . S
H783 C792 0.929 . S
C784 H778 0.930 . S
C784 C785 1.367 . S
C784 C792 1.378 . S
C785 C784 1.367 . S
C785 C793 1.433 . S
C786 H782 0.929 . S
C786 C788 1.378 . S
C786 C790 1.350 . S
C787 C790 1.463 1_645 S
C787 C792 1.350 . S
C787 N795 1.427 . S
C788 H779 0.930 . S
C788 C786 1.378 . S
C788 C789 1.367 . S
C789 C788 1.367 . S
C789 C791 1.433 . S
C790 C786 1.350 . S
C790 C787 1.463 1_465 S
C790 N794 1.427 . S
C791 H781 0.929 . S
C791 C789 1.433 . S
C791 N794 1.384 . S
C792 H783 0.929 . S
C792 C784 1.378 . S
C792 C787 1.350 . S
C793 H780 0.929 . S
C793 C785 1.433 . S
C793 N795 1.384 . S
N794 C790 1.427 . S
N794 C791 1.384 . S
N795 C787 1.427 . S
N795 C793 1.384 . S
H796 C802 0.930 . S
H797 C806 0.930 . S
H798 C811 0.929 . S
H799 C809 0.929 . S
H800 C804 0.929 . S
H801 C810 0.929 . S
C802 H796 0.930 . S
C802 C803 1.367 . S
C802 C810 1.378 . S
C803 C802 1.367 . S
C803 C811 1.433 . S
C804 H800 0.929 . S
C804 C806 1.378 . S
C804 C808 1.350 . S
C805 C808 1.463 . S
C805 C810 1.350 . S
C805 N813 1.427 . S
C806 H797 0.930 . S
C806 C804 1.378 . S
C806 C807 1.367 . S
C807 C806 1.367 . S
C807 C809 1.433 . S
C808 C804 1.350 . S
C808 C805 1.463 . S
C808 N812 1.427 . S
C809 H799 0.929 . S
C809 C807 1.433 . S
C809 N812 1.384 . S
C810 H801 0.929 . S
C810 C802 1.378 . S
C810 C805 1.350 . S
C811 H798 0.929 . S
C811 C803 1.433 . S
C811 N813 1.384 . S
N812 C808 1.427 . S
N812 C809 1.384 . S
N813 C805 1.427 . S
N813 C811 1.384 . S
H814 C820 0.930 . S
H815 C824 0.930 . S
H816 C829 0.929 . S
H817 C827 0.929 . S
H818 C822 0.929 . S
H819 C828 0.929 . S
C820 H814 0.930 . S
C820 C821 1.367 . S
C820 C828 1.378 . S
C821 C820 1.367 . S
C821 C829 1.433 . S
C822 H818 0.929 . S
C822 C824 1.378 . S
C822 C826 1.350 . S
C823 C826 1.463 1_565 S
C823 C828 1.350 . S
C823 N831 1.427 . S
C824 H815 0.930 . S
C824 C822 1.378 . S
C824 C825 1.367 . S
C825 C824 1.367 . S
C825 C827 1.433 . S
C826 C822 1.350 . S
C826 C823 1.463 1_545 S
C826 N830 1.427 . S
C827 H817 0.929 . S
C827 C825 1.433 . S
C827 N830 1.384 . S
C828 H819 0.929 . S
C828 C820 1.378 . S
C828 C823 1.350 . S
C829 H816 0.929 . S
C829 C821 1.433 . S
C829 N831 1.384 . S
N830 C826 1.427 . S
N830 C827 1.384 . S
N831 C823 1.427 . S
N831 C829 1.384 . S
C263 C18 2.163 . S
C267 C53 2.136 . S
C281 C21 1.838 . S
C285 C82 1.799 . S
C299 C113 2.133 . S
C303 C54 2.164 . S
C317 C81 1.836 . S
C321 C118 1.794 . S
C335 C114 2.162 . S
C339 C149 2.132 . S
C353 C178 1.802 . S
C357 C117 1.840 . S
C371 C150 2.162 . S
C375 C17 2.131 1_565 S
C389 C177 1.841 . S
C393 C22 1.803 . S
C407 C181 2.141 . S
C411 C210 2.171 . S
C425 C213 1.840 . S
C429 C146 1.802 . S
C443 C241 2.143 . S
C447 C182 2.170 . S
C461 C246 1.796 . S
C465 C145 1.836 . S
C479 C242 2.165 . S
C483 C85 2.138 . S
C497 C50 1.797 . S
C501 C245 1.837 . S
C515 C209 2.133 1_565 S
C519 C86 2.162 . S
C533 C214 1.803 . S
C537 C49 1.841 . S
C551 C19 0.957 1_454 S
C555 C23 0.963 1_556 S
C569 C51 0.957 . S
C573 C55 0.957 1_565 S
C587 C83 0.947 1_545 S
C591 C87 0.947 . S
C605 C119 0.946 . S
C609 C115 0.946 1_455 S
C623 C147 0.963 1_545 S
C627 C151 0.963 . S
C641 C179 0.956 . S
C645 C183 0.956 1_565 S
C659 C211 0.948 . S
C663 C215 0.948 . S
C677 C247 0.946 1_556 S
C681 C243 0.944 1_554 S
C695 C240 1.372 . S
C699 C20 1.372 . S
C713 C16 1.370 . S
C717 C244 1.370 . S
C731 C48 1.370 . S
C735 C84 1.370 . S
C749 C208 1.370 . S
C753 C116 1.370 . S
C767 C112 1.372 . S
C771 C212 1.372 . S
C785 C180 1.370 . S
C789 C144 1.370 . S
C803 C176 1.372 . S
C807 C148 1.372 . S
C821 C80 1.371 . S
C825 C52 1.371 . S
