# Generated by pormake.
# Topology wga, (5)-cn, num edge types: 1
# Building blocks:
#     Node 0, Type 0, BuildingBlock: XOMCOT_clean_sbu_1, # of connection points: 5
#     Node 1, Type 0, BuildingBlock: XOMCOT_clean_sbu_1, # of connection points: 5
#     Node 2, Type 0, BuildingBlock: XOMCOT_clean_sbu_1, # of connection points: 5
#     Node 3, Type 0, BuildingBlock: XOMCOT_clean_sbu_1, # of connection points: 5
#     Node 4, Type 0, BuildingBlock: XOMCOT_clean_sbu_1, # of connection points: 5
#     Node 5, Type 0, BuildingBlock: XOMCOT_clean_sbu_1, # of connection points: 5
#     Node 6, Type 0, BuildingBlock: XOMCOT_clean_sbu_1, # of connection points: 5
#     Node 7, Type 0, BuildingBlock: XOMCOT_clean_sbu_1, # of connection points: 5
#     Node 8, Type 0, BuildingBlock: XOMCOT_clean_sbu_1, # of connection points: 5
#     Node 9, Type 0, BuildingBlock: XOMCOT_clean_sbu_1, # of connection points: 5
#     Node 10, Type 0, BuildingBlock: XOMCOT_clean_sbu_1, # of connection points: 5
#     Node 11, Type 0, BuildingBlock: XOMCOT_clean_sbu_1, # of connection points: 5
#     Node 12, Type 0, BuildingBlock: XOMCOT_clean_sbu_1, # of connection points: 5
#     Node 13, Type 0, BuildingBlock: XOMCOT_clean_sbu_1, # of connection points: 5
#     Node 14, Type 0, BuildingBlock: XOMCOT_clean_sbu_1, # of connection points: 5
#     Node 15, Type 0, BuildingBlock: XOMCOT_clean_sbu_1, # of connection points: 5
#     Node 16, Type 0, BuildingBlock: XOMCOT_clean_sbu_1, # of connection points: 5
#     Node 17, Type 0, BuildingBlock: XOMCOT_clean_sbu_1, # of connection points: 5
#     Node 18, Type 0, BuildingBlock: XOMCOT_clean_sbu_1, # of connection points: 5
#     Node 19, Type 0, BuildingBlock: XOMCOT_clean_sbu_1, # of connection points: 5
#     Node 20, Type 0, BuildingBlock: XOMCOT_clean_sbu_1, # of connection points: 5
#     Node 21, Type 0, BuildingBlock: XOMCOT_clean_sbu_1, # of connection points: 5
#     Node 22, Type 0, BuildingBlock: XOMCOT_clean_sbu_1, # of connection points: 5
#     Node 23, Type 0, BuildingBlock: XOMCOT_clean_sbu_1, # of connection points: 5
#     Node 24, Type 0, BuildingBlock: XOMCOT_clean_sbu_1, # of connection points: 5
#     Node 25, Type 0, BuildingBlock: XOMCOT_clean_sbu_1, # of connection points: 5
#     Node 26, Type 0, BuildingBlock: XOMCOT_clean_sbu_1, # of connection points: 5
#     Node 27, Type 0, BuildingBlock: XOMCOT_clean_sbu_1, # of connection points: 5
#     Node 28, Type 0, BuildingBlock: XOMCOT_clean_sbu_1, # of connection points: 5
#     Node 29, Type 0, BuildingBlock: XOMCOT_clean_sbu_1, # of connection points: 5
#     Node 30, Type 0, BuildingBlock: XOMCOT_clean_sbu_1, # of connection points: 5
#     Node 31, Type 0, BuildingBlock: XOMCOT_clean_sbu_1, # of connection points: 5
#     Edge 32, Type (0, 0), BuildingBlock: XUDNAN_clean_linker_2, # of connection points: 2
#     Edge 33, Type (0, 0), BuildingBlock: XUDNAN_clean_linker_2, # of connection points: 2
#     Edge 34, Type (0, 0), BuildingBlock: XUDNAN_clean_linker_2, # of connection points: 2
#     Edge 35, Type (0, 0), BuildingBlock: XUDNAN_clean_linker_2, # of connection points: 2
#     Edge 36, Type (0, 0), BuildingBlock: XUDNAN_clean_linker_2, # of connection points: 2
#     Edge 37, Type (0, 0), BuildingBlock: XUDNAN_clean_linker_2, # of connection points: 2
#     Edge 38, Type (0, 0), BuildingBlock: XUDNAN_clean_linker_2, # of connection points: 2
#     Edge 39, Type (0, 0), BuildingBlock: XUDNAN_clean_linker_2, # of connection points: 2
#     Edge 40, Type (0, 0), BuildingBlock: XUDNAN_clean_linker_2, # of connection points: 2
#     Edge 41, Type (0, 0), BuildingBlock: XUDNAN_clean_linker_2, # of connection points: 2
#     Edge 42, Type (0, 0), BuildingBlock: XUDNAN_clean_linker_2, # of connection points: 2
#     Edge 43, Type (0, 0), BuildingBlock: XUDNAN_clean_linker_2, # of connection points: 2
#     Edge 44, Type (0, 0), BuildingBlock: XUDNAN_clean_linker_2, # of connection points: 2
#     Edge 45, Type (0, 0), BuildingBlock: XUDNAN_clean_linker_2, # of connection points: 2
#     Edge 46, Type (0, 0), BuildingBlock: XUDNAN_clean_linker_2, # of connection points: 2
#     Edge 47, Type (0, 0), BuildingBlock: XUDNAN_clean_linker_2, # of connection points: 2
#     Edge 48, Type (0, 0), BuildingBlock: XUDNAN_clean_linker_2, # of connection points: 2
#     Edge 49, Type (0, 0), BuildingBlock: XUDNAN_clean_linker_2, # of connection points: 2
#     Edge 50, Type (0, 0), BuildingBlock: XUDNAN_clean_linker_2, # of connection points: 2
#     Edge 51, Type (0, 0), BuildingBlock: XUDNAN_clean_linker_2, # of connection points: 2
#     Edge 52, Type (0, 0), BuildingBlock: XUDNAN_clean_linker_2, # of connection points: 2
#     Edge 53, Type (0, 0), BuildingBlock: XUDNAN_clean_linker_2, # of connection points: 2
#     Edge 54, Type (0, 0), BuildingBlock: XUDNAN_clean_linker_2, # of connection points: 2
#     Edge 55, Type (0, 0), BuildingBlock: XUDNAN_clean_linker_2, # of connection points: 2
#     Edge 56, Type (0, 0), BuildingBlock: XUDNAN_clean_linker_2, # of connection points: 2
#     Edge 57, Type (0, 0), BuildingBlock: XUDNAN_clean_linker_2, # of connection points: 2
#     Edge 58, Type (0, 0), BuildingBlock: XUDNAN_clean_linker_2, # of connection points: 2
#     Edge 59, Type (0, 0), BuildingBlock: XUDNAN_clean_linker_2, # of connection points: 2
#     Edge 60, Type (0, 0), BuildingBlock: XUDNAN_clean_linker_2, # of connection points: 2
#     Edge 61, Type (0, 0), BuildingBlock: XUDNAN_clean_linker_2, # of connection points: 2
#     Edge 62, Type (0, 0), BuildingBlock: XUDNAN_clean_linker_2, # of connection points: 2
#     Edge 63, Type (0, 0), BuildingBlock: XUDNAN_clean_linker_2, # of connection points: 2
#     Edge 64, Type (0, 0), BuildingBlock: XUDNAN_clean_linker_2, # of connection points: 2
#     Edge 65, Type (0, 0), BuildingBlock: XUDNAN_clean_linker_2, # of connection points: 2
#     Edge 66, Type (0, 0), BuildingBlock: XUDNAN_clean_linker_2, # of connection points: 2
#     Edge 67, Type (0, 0), BuildingBlock: XUDNAN_clean_linker_2, # of connection points: 2
#     Edge 68, Type (0, 0), BuildingBlock: XUDNAN_clean_linker_2, # of connection points: 2
#     Edge 69, Type (0, 0), BuildingBlock: XUDNAN_clean_linker_2, # of connection points: 2
#     Edge 70, Type (0, 0), BuildingBlock: XUDNAN_clean_linker_2, # of connection points: 2
#     Edge 71, Type (0, 0), BuildingBlock: XUDNAN_clean_linker_2, # of connection points: 2
#     Edge 72, Type (0, 0), BuildingBlock: XUDNAN_clean_linker_2, # of connection points: 2
#     Edge 73, Type (0, 0), BuildingBlock: XUDNAN_clean_linker_2, # of connection points: 2
#     Edge 74, Type (0, 0), BuildingBlock: XUDNAN_clean_linker_2, # of connection points: 2
#     Edge 75, Type (0, 0), BuildingBlock: XUDNAN_clean_linker_2, # of connection points: 2
#     Edge 76, Type (0, 0), BuildingBlock: XUDNAN_clean_linker_2, # of connection points: 2
#     Edge 77, Type (0, 0), BuildingBlock: XUDNAN_clean_linker_2, # of connection points: 2
#     Edge 78, Type (0, 0), BuildingBlock: XUDNAN_clean_linker_2, # of connection points: 2
#     Edge 79, Type (0, 0), BuildingBlock: XUDNAN_clean_linker_2, # of connection points: 2
#     Edge 80, Type (0, 0), BuildingBlock: XUDNAN_clean_linker_2, # of connection points: 2
#     Edge 81, Type (0, 0), BuildingBlock: XUDNAN_clean_linker_2, # of connection points: 2
#     Edge 82, Type (0, 0), BuildingBlock: XUDNAN_clean_linker_2, # of connection points: 2
#     Edge 83, Type (0, 0), BuildingBlock: XUDNAN_clean_linker_2, # of connection points: 2
#     Edge 84, Type (0, 0), BuildingBlock: XUDNAN_clean_linker_2, # of connection points: 2
#     Edge 85, Type (0, 0), BuildingBlock: XUDNAN_clean_linker_2, # of connection points: 2
#     Edge 86, Type (0, 0), BuildingBlock: XUDNAN_clean_linker_2, # of connection points: 2
#     Edge 87, Type (0, 0), BuildingBlock: XUDNAN_clean_linker_2, # of connection points: 2
#     Edge 88, Type (0, 0), BuildingBlock: XUDNAN_clean_linker_2, # of connection points: 2
#     Edge 89, Type (0, 0), BuildingBlock: XUDNAN_clean_linker_2, # of connection points: 2
#     Edge 90, Type (0, 0), BuildingBlock: XUDNAN_clean_linker_2, # of connection points: 2
#     Edge 91, Type (0, 0), BuildingBlock: XUDNAN_clean_linker_2, # of connection points: 2
#     Edge 92, Type (0, 0), BuildingBlock: XUDNAN_clean_linker_2, # of connection points: 2
#     Edge 93, Type (0, 0), BuildingBlock: XUDNAN_clean_linker_2, # of connection points: 2
#     Edge 94, Type (0, 0), BuildingBlock: XUDNAN_clean_linker_2, # of connection points: 2
#     Edge 95, Type (0, 0), BuildingBlock: XUDNAN_clean_linker_2, # of connection points: 2
#     Edge 96, Type (0, 0), BuildingBlock: XUDNAN_clean_linker_2, # of connection points: 2
#     Edge 97, Type (0, 0), BuildingBlock: XUDNAN_clean_linker_2, # of connection points: 2
#     Edge 98, Type (0, 0), BuildingBlock: XUDNAN_clean_linker_2, # of connection points: 2
#     Edge 99, Type (0, 0), BuildingBlock: XUDNAN_clean_linker_2, # of connection points: 2
#     Edge 100, Type (0, 0), BuildingBlock: XUDNAN_clean_linker_2, # of connection points: 2
#     Edge 101, Type (0, 0), BuildingBlock: XUDNAN_clean_linker_2, # of connection points: 2
#     Edge 102, Type (0, 0), BuildingBlock: XUDNAN_clean_linker_2, # of connection points: 2
#     Edge 103, Type (0, 0), BuildingBlock: XUDNAN_clean_linker_2, # of connection points: 2
#     Edge 104, Type (0, 0), BuildingBlock: XUDNAN_clean_linker_2, # of connection points: 2
#     Edge 105, Type (0, 0), BuildingBlock: XUDNAN_clean_linker_2, # of connection points: 2
#     Edge 106, Type (0, 0), BuildingBlock: XUDNAN_clean_linker_2, # of connection points: 2
#     Edge 107, Type (0, 0), BuildingBlock: XUDNAN_clean_linker_2, # of connection points: 2
#     Edge 108, Type (0, 0), BuildingBlock: XUDNAN_clean_linker_2, # of connection points: 2
#     Edge 109, Type (0, 0), BuildingBlock: XUDNAN_clean_linker_2, # of connection points: 2
#     Edge 110, Type (0, 0), BuildingBlock: XUDNAN_clean_linker_2, # of connection points: 2
#     Edge 111, Type (0, 0), BuildingBlock: XUDNAN_clean_linker_2, # of connection points: 2
# Relax obj value: 0.098
# Max RMSD: 0.109
# Mean RMSD: 0.109
data_MOF--net-wga--node1-XOMCOT_clean_sbu_1--edge1-XUDNAN_clean_linker_2
_symmetry_space_group_name_H-M    P1
_symmetry_Int_Tables_number       1
_symmetry_cell_setting            triclinic
loop_
_symmetry_equiv_pos_as_xyz
'x, y, z'
_cell_length_a     109.05301
_cell_length_b     109.04482
_cell_length_c     17.663098
_cell_angle_alpha  90.045923
_cell_angle_beta   89.957477
_cell_angle_gamma 89.982045
loop_
_atom_site_label
_atom_site_type_symbol
_atom_site_fract_x
_atom_site_fract_y
_atom_site_fract_z
_atom_type_partial_charge
C0 C 0.07762 0.58068 1.00893 0.0
C1 C 0.07806 0.58319 0.93278 0.0
N2 N 0.08473 0.57442 0.89835 0.0
N3 N 0.08408 0.57042 0.02344 0.0
C4 C 0.08828 0.56674 0.95459 0.0
H5 H 0.07284 0.586 0.05143 0.0
Co6 Co 0.08547 0.56427 0.12265 0.0
C7 C 0.09987 0.54129 0.10419 0.0
O8 O 0.10637 0.54342 0.1654 0.0
N9 N 0.08652 0.55847 0.22369 0.0
C10 C 0.08373 0.54752 0.3286 0.0
C11 C 0.08296 0.54747 0.25073 0.0
C12 C 0.08927 0.56507 0.28649 0.0
N13 N 0.08767 0.55864 0.35173 0.0
O14 O 0.10189 0.5707 0.12877 0.0
H15 H 0.07957 0.54002 0.21618 0.0
H16 H 0.09201 0.57457 0.28399 0.0
O17 O 0.09163 0.54885 0.08312 0.0
C18 C 0.1023 0.58216 0.14277 0.0
O19 O 0.09191 0.58801 0.15395 0.0
N20 N 0.06923 0.55873 0.11702 0.0
C21 C 0.04425 0.55312 0.11107 0.0
C22 C 0.05268 0.54703 0.06401 0.0
C23 C 0.06514 0.55003 0.06744 0.0
C24 C 0.06121 0.56478 0.16284 0.0
C25 C 0.0487 0.56208 0.16116 0.0
H26 H 0.07141 0.54556 0.02889 0.0
H27 H 0.06456 0.57184 0.2006 0.0
H28 H 0.09399 0.55877 0.94586 0.0
H29 H 0.07367 0.59084 0.9046 0.0
H30 H 0.08108 0.54 0.36498 0.0
H31 H 0.04964 0.54024 0.02338 0.0
H32 H 0.04258 0.56695 0.19897 0.0
C33 C 0.66664 0.82692 0.27399 0.0
C34 C 0.66531 0.82756 0.19682 0.0
N35 N 0.67372 0.83545 0.17007 0.0
N36 N 0.67597 0.83422 0.29593 0.0
C37 C 0.68006 0.83942 0.23102 0.0
H38 H 0.66132 0.82123 0.31189 0.0
Co39 Co 0.68103 0.83455 0.39698 0.0
C40 C 0.70294 0.84965 0.34842 0.0
O41 O 0.69679 0.85964 0.33172 0.0
N42 N 0.68595 0.83456 0.4989 0.0
C43 C 0.69641 0.82981 0.603 0.0
C44 C 0.69608 0.82888 0.52559 0.0
C45 C 0.68033 0.83904 0.56153 0.0
N46 N 0.68654 0.83623 0.62536 0.0
O47 O 0.67521 0.85113 0.40608 0.0
H48 H 0.70266 0.82399 0.49118 0.0
H49 H 0.67166 0.84387 0.56094 0.0
O50 O 0.69737 0.84005 0.37112 0.0
C51 C 0.66365 0.85147 0.41669 0.0
O52 O 0.65776 0.84101 0.42337 0.0
N53 N 0.68584 0.81806 0.38768 0.0
C54 C 0.69007 0.79289 0.37039 0.0
C55 C 0.69774 0.80158 0.33544 0.0
C56 C 0.69535 0.8141 0.34369 0.0
C57 C 0.6784 0.80983 0.42318 0.0
C58 C 0.68032 0.79722 0.41516 0.0
H59 H 0.70104 0.82053 0.31333 0.0
H60 H 0.67073 0.81312 0.45634 0.0
H61 H 0.68778 0.84558 0.22745 0.0
H62 H 0.65875 0.82255 0.16273 0.0
H63 H 0.70328 0.82595 0.64027 0.0
H64 H 0.70549 0.79879 0.30122 0.0
H65 H 0.67396 0.79098 0.44202 0.0
C66 C 0.41703 0.417 0.49941 0.0
C67 C 0.41633 0.41474 0.42312 0.0
N68 N 0.41217 0.42491 0.38861 0.0
N69 N 0.41313 0.42849 0.51402 0.0
C70 C 0.41043 0.43321 0.44476 0.0
H71 H 0.42027 0.41064 0.54175 0.0
Co72 Co 0.41264 0.43444 0.61407 0.0
C73 C 0.39538 0.45325 0.55566 0.0
O74 O 0.38692 0.44493 0.54298 0.0
N75 N 0.41239 0.44014 0.7149 0.0
C76 C 0.41302 0.45202 0.81742 0.0
C77 C 0.41368 0.45179 0.73948 0.0
C78 C 0.41111 0.43347 0.77905 0.0
N79 N 0.41136 0.44047 0.84253 0.0
O80 O 0.3965 0.4275 0.62705 0.0
H81 H 0.41505 0.45965 0.70319 0.0
H82 H 0.4102 0.42362 0.77926 0.0
O83 O 0.40582 0.45005 0.58142 0.0
C84 C 0.39631 0.41627 0.64695 0.0
O85 O 0.4068 0.41074 0.65997 0.0
N86 N 0.42865 0.44014 0.60267 0.0
C87 C 0.4537 0.44423 0.57995 0.0
C88 C 0.4449 0.45258 0.55264 0.0
C89 C 0.43239 0.4503 0.56389 0.0
C90 C 0.437 0.43211 0.63118 0.0
C91 C 0.44954 0.43394 0.62028 0.0
H92 H 0.4258 0.45654 0.53957 0.0
H93 H 0.43384 0.42398 0.66032 0.0
H94 H 0.4071 0.44242 0.43534 0.0
H95 H 0.41876 0.40626 0.39491 0.0
H96 H 0.41354 0.46014 0.85254 0.0
H97 H 0.44761 0.46072 0.52192 0.0
H98 H 0.45584 0.42705 0.64101 0.0
C99 C 0.83249 0.16646 0.76092 0.0
C100 C 0.83382 0.16495 0.6843 0.0
N101 N 0.82383 0.15909 0.65771 0.0
N102 N 0.82172 0.16161 0.78316 0.0
C103 C 0.81663 0.15709 0.71899 0.0
H104 H 0.83893 0.17097 0.79824 0.0
Co105 Co 0.81666 0.16237 0.88376 0.0
C106 C 0.78919 0.15958 0.87861 0.0
O107 O 0.78781 0.16731 0.93473 0.0
N108 N 0.81205 0.16341 0.98906 0.0
C109 C 0.8067 0.17145 0.10083 0.0
C110 C 0.80701 0.17327 0.02445 0.0
C111 C 0.81477 0.1557 0.0473 0.0
N112 N 0.81159 0.16045 0.11535 0.0
O113 O 0.8215 0.1455 0.89598 0.0
H114 H 0.80377 0.18153 0.99746 0.0
H115 H 0.8196 0.1471 0.04095 0.0
O116 O 0.79995 0.1571 0.85391 0.0
C117 C 0.83302 0.14483 0.90797 0.0
O118 O 0.83911 0.15511 0.91737 0.0
N119 N 0.81332 0.17912 0.87006 0.0
C120 C 0.81054 0.20445 0.87727 0.0
C121 C 0.80213 0.19729 0.83641 0.0
C122 C 0.80377 0.18453 0.83269 0.0
C123 C 0.82226 0.18611 0.90217 0.0
C124 C 0.82096 0.19878 0.90759 0.0
H125 H 0.79723 0.17906 0.80168 0.0
H126 H 0.83007 0.1817 0.92829 0.0
H127 H 0.80773 0.15274 0.71674 0.0
H128 H 0.84156 0.16795 0.6507 0.0
H129 H 0.80351 0.17792 0.14307 0.0
H130 H 0.79413 0.20143 0.81062 0.0
H131 H 0.82782 0.20404 0.93771 0.0
C132 C 0.0953 0.41898 0.09376 0.0
C133 C 0.09676 0.41961 0.17057 0.0
N134 N 0.09391 0.43104 0.19326 0.0
N135 N 0.0916 0.42997 0.06733 0.0
C136 C 0.09085 0.43722 0.12959 0.0
H137 H 0.09617 0.41077 0.06009 0.0
Co138 Co 0.08651 0.43173 0.96735 0.0
C139 C 0.08917 0.458 0.92437 0.0
O140 O 0.08008 0.45683 0.87622 0.0
N141 N 0.08128 0.43264 0.86491 0.0
C142 C 0.07027 0.42995 0.76004 0.0
C143 C 0.07027 0.42908 0.83739 0.0
C144 C 0.0879 0.43546 0.80204 0.0
N145 N 0.08133 0.43398 0.73776 0.0
O146 O 0.10246 0.42621 0.93398 0.0
H147 H 0.06268 0.42568 0.87023 0.0
H148 H 0.0974 0.43832 0.80331 0.0
O149 O 0.09231 0.44893 0.96629 0.0
C150 C 0.1025 0.41501 0.91304 0.0
O151 O 0.09195 0.40921 0.90978 0.0
N152 N 0.07069 0.43605 1.00269 0.0
C153 C 0.04602 0.4386 0.04258 0.0
C154 C 0.05373 0.44888 0.03841 0.0
C155 C 0.0661 0.4474 0.01937 0.0
C156 C 0.06364 0.4259 1.01424 0.0
C157 C 0.05123 0.42696 0.0327 0.0
H158 H 0.0718 0.45544 0.01842 0.0
H159 H 0.06755 0.41691 1.00475 0.0
H160 H 0.08731 0.44649 0.12905 0.0
H161 H 0.09914 0.41208 0.20764 0.0
H162 H 0.06272 0.42767 0.72281 0.0
H163 H 0.05017 0.45804 0.04751 0.0
H164 H 0.04573 0.41873 0.03791 0.0
C165 C 0.82924 0.82762 0.32008 0.0
C166 C 0.83033 0.82852 0.39763 0.0
N167 N 0.82097 0.83538 0.42433 0.0
N168 N 0.81926 0.83388 0.29726 0.0
C169 C 0.81445 0.83855 0.36195 0.0
H170 H 0.83523 0.82253 0.28267 0.0
Co171 Co 0.81349 0.83448 0.1968 0.0
C172 C 0.79043 0.8488 0.21739 0.0
O173 O 0.79338 0.85674 0.16453 0.0
N174 N 0.80773 0.83493 0.0959 0.0
C175 C 0.79531 0.83312 0.99651 0.0
C176 C 0.79634 0.83166 0.07351 0.0
C177 C 0.81357 0.83803 0.03076 0.0
N178 N 0.80614 0.83705 0.96968 0.0
O179 O 0.81925 0.85108 0.18858 0.0
H180 H 0.78919 0.82842 0.11091 0.0
H181 H 0.823 0.84109 0.02814 0.0
O182 O 0.79766 0.83997 0.23309 0.0
C183 C 0.83074 0.85143 0.17569 0.0
O184 O 0.8366 0.84099 0.16688 0.0
N185 N 0.80875 0.81802 0.2044 0.0
C186 C 0.80493 0.79277 0.21812 0.0
C187 C 0.79807 0.80115 0.26139 0.0
C188 C 0.80019 0.81373 0.2542 0.0
C189 C 0.81539 0.81009 0.16115 0.0
C190 C 0.8136 0.79743 0.16682 0.0
H191 H 0.7952 0.81994 0.29047 0.0
H192 H 0.82236 0.81361 0.12338 0.0
H193 H 0.80612 0.84391 0.36345 0.0
H194 H 0.83749 0.82439 0.43143 0.0
H195 H 0.78723 0.83138 0.96256 0.0
H196 H 0.79122 0.79802 0.30137 0.0
H197 H 0.81929 0.79136 0.13329 0.0
C198 C 0.41708 0.57904 0.5674 0.0
C199 C 0.41606 0.57993 0.64489 0.0
N200 N 0.41126 0.56939 0.67153 0.0
N201 N 0.4129 0.56802 0.54456 0.0
C202 C 0.40944 0.56233 0.60929 0.0
H203 H 0.4208 0.58596 0.5301 0.0
Co204 Co 0.41305 0.56255 0.44379 0.0
C205 C 0.39603 0.54179 0.45031 0.0
O206 O 0.38915 0.54759 0.40095 0.0
N207 N 0.41339 0.55702 0.34227 0.0
C208 C 0.415 0.54418 0.24469 0.0
C209 C 0.4164 0.54548 0.32138 0.0
C210 C 0.41043 0.56268 0.27626 0.0
N211 N 0.41127 0.55498 0.21628 0.0
O212 O 0.39701 0.56961 0.42959 0.0
H213 H 0.4191 0.53826 0.35976 0.0
H214 H 0.40731 0.57207 0.27237 0.0
O215 O 0.4059 0.54681 0.47413 0.0
C216 C 0.39702 0.58099 0.41353 0.0
O217 O 0.40762 0.58651 0.40371 0.0
N218 N 0.42909 0.55688 0.45774 0.0
C219 C 0.45413 0.55237 0.47958 0.0
C220 C 0.4453 0.5433 0.49543 0.0
C221 C 0.43281 0.5458 0.48523 0.0
C222 C 0.43745 0.56572 0.44105 0.0
C223 C 0.44996 0.56374 0.45229 0.0
H224 H 0.42623 0.5388 0.4994 0.0
H225 H 0.43432 0.57452 0.42047 0.0
H226 H 0.40593 0.55306 0.61101 0.0
H227 H 0.41864 0.58779 0.67871 0.0
H228 H 0.41642 0.53588 0.21217 0.0
H229 H 0.44795 0.5343 0.51543 0.0
H230 H 0.45621 0.57122 0.44109 0.0
C231 C 0.66974 0.16953 0.7784 0.0
C232 C 0.66863 0.16867 0.85586 0.0
N233 N 0.67778 0.16154 0.88235 0.0
N234 N 0.67953 0.16298 0.75548 0.0
C235 C 0.68424 0.15819 0.81999 0.0
H236 H 0.66384 0.1747 0.74101 0.0
Co237 Co 0.68487 0.16191 0.65467 0.0
C238 C 0.70694 0.14642 0.66885 0.0
O239 O 0.70252 0.13873 0.61846 0.0
N240 N 0.69021 0.16106 0.55317 0.0
C241 C 0.70241 0.16246 0.45239 0.0
C242 C 0.70159 0.16412 0.52927 0.0
C243 C 0.68417 0.15785 0.48902 0.0
N244 N 0.69147 0.15859 0.42718 0.0
O245 O 0.67839 0.14552 0.64906 0.0
H246 H 0.70888 0.16736 0.5656 0.0
H247 H 0.67469 0.15492 0.48766 0.0
O248 O 0.70069 0.1558 0.68827 0.0
C249 C 0.66681 0.14541 0.63958 0.0
O250 O 0.66115 0.15594 0.63018 0.0
N251 N 0.69022 0.1782 0.66001 0.0
C252 C 0.69475 0.20341 0.66963 0.0
C253 C 0.70232 0.19491 0.70724 0.0
C254 C 0.69982 0.18236 0.70246 0.0
C255 C 0.68291 0.18623 0.62202 0.0
C256 C 0.685 0.19885 0.626 0.0
H257 H 0.70544 0.17608 0.73438 0.0
H258 H 0.67519 0.18279 0.58999 0.0
H259 H 0.69239 0.15255 0.82131 0.0
H260 H 0.66154 0.17293 0.88973 0.0
H261 H 0.71041 0.16404 0.41739 0.0
H262 H 0.71004 0.19792 0.74096 0.0
H263 H 0.67873 0.20497 0.5972 0.0
C264 C 0.90774 0.41658 0.05928 0.0
C265 C 0.90522 0.41651 0.13538 0.0
N266 N 0.90738 0.42779 0.16309 0.0
N267 N 0.91127 0.42791 0.03797 0.0
C268 C 0.91113 0.43457 0.10307 0.0
H269 H 0.90713 0.40875 0.02196 0.0
Co270 Co 0.91552 0.43157 0.93728 0.0
C271 C 0.9103 0.45827 0.91392 0.0
O272 O 0.9178 0.4588 0.85586 0.0
N273 N 0.91994 0.43465 0.8337 0.0
C274 C 0.93067 0.43612 0.72638 0.0
C275 C 0.93135 0.43487 0.80366 0.0
C276 C 0.91249 0.43578 0.7723 0.0
N277 N 0.91878 0.43664 0.70611 0.0
O278 O 0.89956 0.42597 0.90552 0.0
H279 H 0.93978 0.43386 0.8348 0.0
H280 H 0.9026 0.43587 0.77608 0.0
O281 O 0.90893 0.44819 0.95006 0.0
C282 C 0.89931 0.41514 0.87841 0.0
O283 O 0.90978 0.40936 0.86879 0.0
N284 N 0.93131 0.43598 0.97084 0.0
C285 C 0.95581 0.43867 1.01476 0.0
C286 C 0.94789 0.44883 1.01238 0.0
C287 C 0.93563 0.44728 0.99103 0.0
C288 C 0.93869 0.42594 0.97652 0.0
C289 C 0.95096 0.42707 0.99777 0.0
H290 H 0.92979 0.45522 0.99128 0.0
H291 H 0.93504 0.41699 0.96254 0.0
H292 H 0.91362 0.44417 0.10634 0.0
H293 H 0.90222 0.4087 0.16834 0.0
H294 H 0.9384 0.43607 0.68803 0.0
H295 H 0.95117 0.45796 0.02547 0.0
H296 H 0.9566 0.4189 1.00077 0.0
C297 C 0.33084 0.17306 0.7855 0.0
C298 C 0.33114 0.17509 0.86217 0.0
N299 N 0.32174 0.169 0.89405 0.0
N300 N 0.3212 0.16584 0.76852 0.0
C301 C 0.31585 0.16338 0.83621 0.0
H302 H 0.3371 0.17686 0.74424 0.0
Co303 Co 0.31714 0.16193 0.66851 0.0
C304 C 0.29019 0.15906 0.66712 0.0
O305 O 0.28983 0.16507 0.60269 0.0
N306 N 0.31339 0.15776 0.56602 0.0
C307 C 0.30714 0.14685 0.46605 0.0
C308 C 0.30834 0.14702 0.54373 0.0
C309 C 0.31541 0.1638 0.50004 0.0
N310 N 0.31156 0.15747 0.43855 0.0
O311 O 0.3228 0.14541 0.68432 0.0
H312 H 0.30557 0.13977 0.5818 0.0
H313 H 0.31989 0.17255 0.49593 0.0
O314 O 0.30049 0.15725 0.69996 0.0
C315 C 0.3344 0.14462 0.67652 0.0
O316 O 0.34056 0.15464 0.66048 0.0
N317 N 0.31276 0.17855 0.65355 0.0
C318 C 0.30987 0.20363 0.62635 0.0
C319 C 0.30139 0.19726 0.67139 0.0
C320 C 0.30313 0.18472 0.68557 0.0
C321 C 0.32169 0.18494 0.61684 0.0
C322 C 0.32028 0.19736 0.60066 0.0
H323 H 0.29686 0.18013 0.72333 0.0
H324 H 0.32998 0.18027 0.59922 0.0
H325 H 0.30759 0.15799 0.84282 0.0
H326 H 0.33768 0.18075 0.8923 0.0
H327 H 0.30316 0.13954 0.43274 0.0
H328 H 0.29347 0.20189 0.69491 0.0
H329 H 0.32737 0.20206 0.56899 0.0
C330 C 0.59199 0.57781 0.56545 0.0
C331 C 0.59332 0.57752 0.6426 0.0
N332 N 0.59102 0.56604 0.66669 0.0
N333 N 0.58892 0.56656 0.5403 0.0
C334 C 0.58841 0.55952 0.60345 0.0
H335 H 0.59272 0.58589 0.53035 0.0
Co336 Co 0.58457 0.56349 0.4399 0.0
C337 C 0.60038 0.5411 0.42788 0.0
O338 O 0.60895 0.54648 0.38765 0.0
N339 N 0.57995 0.56096 0.33843 0.0
C340 C 0.56896 0.56399 0.23413 0.0
C341 C 0.56923 0.56529 0.31116 0.0
C342 C 0.58613 0.55712 0.27601 0.0
N343 N 0.57959 0.55892 0.21181 0.0
O344 O 0.60026 0.56968 0.40776 0.0
H345 H 0.56226 0.56981 0.34453 0.0
H346 H 0.59553 0.55398 0.27665 0.0
O347 O 0.59091 0.54705 0.44892 0.0
C348 C 0.60021 0.58066 0.38307 0.0
O349 O 0.58962 0.5863 0.37626 0.0
N350 N 0.56899 0.55818 0.47193 0.0
C351 C 0.5444 0.55328 0.50221 0.0
C352 C 0.55229 0.54386 0.4789 0.0
C353 C 0.56457 0.54654 0.46294 0.0
C354 C 0.56155 0.56731 0.49801 0.0
C355 C 0.54917 0.56508 0.5127 0.0
H356 H 0.5703 0.53935 0.44017 0.0
H357 H 0.56513 0.57651 0.50362 0.0
H358 H 0.58552 0.55003 0.60357 0.0
H359 H 0.59552 0.58526 0.67855 0.0
H360 H 0.5617 0.56706 0.19681 0.0
H361 H 0.54885 0.53467 0.46947 0.0
H362 H 0.5433 0.57257 0.53053 0.0
C363 C 0.16687 0.8274 0.25241 0.0
C364 C 0.16467 0.82816 0.32888 0.0
N365 N 0.17426 0.83381 0.36177 0.0
N366 N 0.17772 0.83271 0.2364 0.0
C367 C 0.18211 0.83645 0.3046 0.0
H368 H 0.16089 0.82329 0.21076 0.0
Co369 Co 0.18359 0.8339 0.13675 0.0
C370 C 0.20514 0.84985 0.15527 0.0
O371 O 0.20082 0.85741 0.10391 0.0
N372 N 0.18926 0.83482 0.03565 0.0
C373 C 0.20093 0.83341 0.9326 0.0
C374 C 0.20069 0.83249 1.01032 0.0
C375 C 0.18267 0.83693 0.97194 0.0
N376 N 0.18956 0.83619 0.90793 0.0
O377 O 0.17682 0.85019 0.12982 0.0
H378 H 0.20837 0.83006 0.046 0.0
H379 H 0.17292 0.83861 0.97261 0.0
O380 O 0.19904 0.84033 0.17339 0.0
C381 C 0.16545 0.85041 0.11309 0.0
O382 O 0.15992 0.83993 0.09952 0.0
N383 N 0.1893 0.81775 0.14313 0.0
C384 C 0.19434 0.79268 0.15495 0.0
C385 C 0.20163 0.80139 0.19265 0.0
C386 C 0.19888 0.81388 0.18671 0.0
C387 C 0.18227 0.8095 0.10491 0.0
C388 C 0.18461 0.79693 0.10995 0.0
H389 H 0.20429 0.82032 0.21884 0.0
H390 H 0.17455 0.81271 0.07195 0.0
H391 H 0.1907 0.84126 0.3122 0.0
H392 H 0.15664 0.82479 0.35828 0.0
H393 H 0.20894 0.83207 0.89739 0.0
H394 H 0.20931 0.79861 0.22741 0.0
H395 H 0.17857 0.79061 0.08095 0.0
C396 C 0.91955 0.57957 1.00777 0.0
C397 C 0.91882 0.58182 0.93137 0.0
N398 N 0.91291 0.57239 0.8984 0.0
N399 N 0.91398 0.56885 0.02364 0.0
C400 C 0.9101 0.56458 0.95546 0.0
H401 H 0.9238 0.58545 0.04953 0.0
Co402 Co 0.9126 0.56303 0.12325 0.0
C403 C 0.89676 0.54149 0.10377 0.0
O404 O 0.889 0.54607 0.15318 0.0
N405 N 0.91144 0.5574 0.2244 0.0
C406 C 0.91273 0.54576 0.32753 0.0
C407 C 0.9137 0.54596 0.24985 0.0
C408 C 0.90931 0.56402 0.28803 0.0
N409 N 0.90999 0.55716 0.35212 0.0
O410 O 0.89627 0.56967 0.12863 0.0
H411 H 0.91618 0.53827 0.21432 0.0
H412 H 0.90769 0.57379 0.28718 0.0
O413 O 0.90642 0.54746 0.08648 0.0
C414 C 0.89589 0.58106 0.14443 0.0
O415 O 0.90627 0.58677 0.15808 0.0
N416 N 0.9288 0.55741 0.1184 0.0
C417 C 0.95385 0.5521 0.11242 0.0
C418 C 0.94549 0.5458 0.066 0.0
C419 C 0.93298 0.54865 0.06947 0.0
C420 C 0.93675 0.56361 0.16389 0.0
C421 C 0.94928 0.56105 0.16223 0.0
H422 H 0.92676 0.54407 0.03127 0.0
H423 H 0.93332 0.57071 0.20111 0.0
H424 H 0.90506 0.55612 0.94785 0.0
H425 H 0.92237 0.58978 0.90206 0.0
H426 H 0.91406 0.53777 0.36276 0.0
H427 H 0.94861 0.539 0.02568 0.0
H428 H 0.95534 0.56606 0.19966 0.0
C429 C 0.16959 0.1498 0.69548 0.0
C430 C 0.17031 0.14868 0.6183 0.0
N431 N 0.18105 0.15346 0.59514 0.0
N432 N 0.17985 0.15525 0.72167 0.0
C433 C 0.18674 0.15732 0.65898 0.0
H434 H 0.16175 0.14739 0.72968 0.0
Co435 Co 0.18153 0.16051 0.82223 0.0
C436 C 0.20531 0.14746 0.84163 0.0
O437 O 0.20016 0.13829 0.87778 0.0
N438 N 0.18274 0.16587 0.9234 0.0
C439 C 0.17739 0.1764 0.0261 0.0
C440 C 0.17629 0.1756 0.94895 0.0
C441 C 0.18768 0.16084 0.98667 0.0
N442 N 0.1845 0.1671 0.04999 0.0
O443 O 0.17688 0.14434 0.85659 0.0
H444 H 0.17063 0.18143 0.91396 0.0
H445 H 0.19278 0.15235 0.98722 0.0
O446 O 0.19883 0.15646 0.81865 0.0
C447 C 0.16586 0.14416 0.88095 0.0
O448 O 0.15977 0.15457 0.88261 0.0
N449 N 0.18487 0.1765 0.78893 0.0
C450 C 0.18438 0.20187 0.76938 0.0
C451 C 0.1947 0.19614 0.80121 0.0
C452 C 0.19476 0.18335 0.81065 0.0
C453 C 0.17523 0.18185 0.75279 0.0
C454 C 0.17487 0.19447 0.7416 0.0
H455 H 0.20225 0.17913 0.84109 0.0
H456 H 0.16734 0.17639 0.73746 0.0
H457 H 0.19534 0.16229 0.65957 0.0
H458 H 0.16325 0.14504 0.58156 0.0
H459 H 0.17293 0.18307 0.06229 0.0
H460 H 0.20219 0.20153 0.82385 0.0
H461 H 0.16681 0.19849 0.71574 0.0
C462 C 0.58661 0.41481 0.48794 0.0
C463 C 0.58813 0.41429 0.41091 0.0
N464 N 0.59019 0.42573 0.38543 0.0
N465 N 0.58768 0.42652 0.51133 0.0
C466 C 0.5899 0.43302 0.44744 0.0
H467 H 0.58434 0.40717 0.52433 0.0
Co468 Co 0.58436 0.43095 0.61087 0.0
C469 C 0.58975 0.45775 0.62562 0.0
O470 O 0.58268 0.45858 0.68554 0.0
N471 N 0.5807 0.43485 0.71453 0.0
C472 C 0.57032 0.43835 0.82152 0.0
C473 C 0.56951 0.43738 0.74447 0.0
C474 C 0.5882 0.43457 0.7761 0.0
N475 N 0.58204 0.43657 0.84143 0.0
O476 O 0.60039 0.42515 0.63902 0.0
H477 H 0.56108 0.43852 0.71361 0.0
H478 H 0.59789 0.43252 0.77389 0.0
O479 O 0.59112 0.44741 0.59225 0.0
C480 C 0.60056 0.41404 0.66144 0.0
O481 O 0.59003 0.40834 0.67018 0.0
N482 N 0.56848 0.43552 0.58012 0.0
C483 C 0.54372 0.43947 0.54881 0.0
C484 C 0.55245 0.44857 0.53326 0.0
C485 C 0.56484 0.44638 0.5487 0.0
C486 C 0.56026 0.42621 0.5891 0.0
C487 C 0.5478 0.42805 0.57524 0.0
H488 H 0.57136 0.45346 0.53531 0.0
H489 H 0.56337 0.41748 0.61095 0.0
H490 H 0.59061 0.44292 0.44565 0.0
H491 H 0.58747 0.40616 0.37591 0.0
H492 H 0.56283 0.44008 0.86035 0.0
H493 H 0.5497 0.45742 0.51126 0.0
H494 H 0.5414 0.42066 0.58593 0.0
C495 C 0.32807 0.82518 0.26564 0.0
C496 C 0.32858 0.82314 0.18898 0.0
N497 N 0.319 0.82884 0.15648 0.0
N498 N 0.31812 0.83201 0.28198 0.0
C499 C 0.31279 0.83424 0.21395 0.0
H500 H 0.33441 0.82164 0.30733 0.0
Co501 Co 0.31375 0.83575 0.38177 0.0
C502 C 0.2868 0.83927 0.37884 0.0
O503 O 0.28583 0.83315 0.44266 0.0
N504 N 0.30971 0.83973 0.48411 0.0
C505 C 0.30334 0.85042 0.5847 0.0
C506 C 0.30447 0.85035 0.50697 0.0
C507 C 0.31192 0.83367 0.54978 0.0
N508 N 0.30801 0.83987 0.61173 0.0
O509 O 0.31969 0.85219 0.36795 0.0
H510 H 0.30162 0.85762 0.46929 0.0
H511 H 0.31666 0.82505 0.55324 0.0
O512 O 0.29735 0.84079 0.34847 0.0
C513 C 0.33112 0.85285 0.38233 0.0
O514 O 0.3368 0.84281 0.40392 0.0
N515 N 0.30911 0.81918 0.39482 0.0
C516 C 0.30619 0.79401 0.41865 0.0
C517 C 0.2977 0.80056 0.37477 0.0
C518 C 0.29944 0.81316 0.36237 0.0
C519 C 0.318 0.81266 0.43086 0.0
C520 C 0.31659 0.80018 0.44525 0.0
H521 H 0.29316 0.81789 0.32539 0.0
H522 H 0.3263 0.81724 0.44893 0.0
H523 H 0.30432 0.83927 0.20679 0.0
H524 H 0.33539 0.81773 0.15931 0.0
H525 H 0.29929 0.85766 0.61839 0.0
H526 H 0.28977 0.79602 0.35067 0.0
H527 H 0.3237 0.79537 0.47609 0.0
C528 C 0.59277 0.08208 0.46527 0.0
C529 C 0.59413 0.08191 0.38809 0.0
N530 N 0.59162 0.07052 0.36322 0.0
N531 N 0.5894 0.07085 0.48944 0.0
C532 C 0.5888 0.06394 0.42574 0.0
H533 H 0.59361 0.09008 0.50103 0.0
Co534 Co 0.58473 0.06774 0.58935 0.0
C535 C 0.59071 0.04073 0.61378 0.0
O536 O 0.5862 0.04013 0.68255 0.0
N537 N 0.57989 0.06539 0.69113 0.0
C538 C 0.56871 0.06788 0.79563 0.0
C539 C 0.56876 0.06867 0.71821 0.0
C540 C 0.58656 0.06292 0.7542 0.0
N541 N 0.57989 0.06425 0.81826 0.0
O542 O 0.60086 0.07266 0.62187 0.0
H543 H 0.56124 0.07207 0.68442 0.0
H544 H 0.59624 0.06073 0.75344 0.0
O545 O 0.59033 0.05081 0.57681 0.0
C546 C 0.60145 0.08364 0.64645 0.0
O547 O 0.59115 0.08976 0.65489 0.0
N548 N 0.56879 0.06377 0.5555 0.0
C549 C 0.54433 0.06127 0.51065 0.0
C550 C 0.55066 0.05139 0.54316 0.0
C551 C 0.56292 0.05281 0.56514 0.0
C552 C 0.56276 0.07346 0.52403 0.0
C553 C 0.55059 0.07239 0.50068 0.0
H554 H 0.56743 0.04523 0.59221 0.0
H555 H 0.56735 0.08221 0.51875 0.0
H556 H 0.58564 0.05453 0.42465 0.0
H557 H 0.59644 0.08966 0.35256 0.0
H558 H 0.56114 0.07017 0.83277 0.0
H559 H 0.54616 0.04266 0.55207 0.0
H560 H 0.546 0.08035 0.47737 0.0
C561 C 0.16718 0.34302 0.69975 0.0
C562 C 0.16752 0.34445 0.6227 0.0
N563 N 0.17873 0.34116 0.59806 0.0
N564 N 0.17813 0.33885 0.72418 0.0
C565 C 0.18504 0.33783 0.66067 0.0
H566 H 0.15922 0.3444 0.73511 0.0
Co567 Co 0.18092 0.33409 0.82437 0.0
C568 C 0.20826 0.33859 0.84803 0.0
O569 O 0.20887 0.33362 0.91556 0.0
N570 N 0.18297 0.32923 0.92623 0.0
C571 C 0.17947 0.31848 0.03112 0.0
C572 C 0.1786 0.31853 0.95378 0.0
C573 C 0.18617 0.33569 0.98891 0.0
N574 N 0.18423 0.32926 0.05324 0.0
O575 O 0.17654 0.35041 0.85681 0.0
H576 H 0.17438 0.31139 0.92034 0.0
H577 H 0.18925 0.34513 0.98771 0.0
O578 O 0.19807 0.33891 0.81227 0.0
C579 C 0.16548 0.35081 0.88026 0.0
O580 O 0.15948 0.3404 0.88649 0.0
N581 N 0.18413 0.31791 0.79147 0.0
C582 C 0.18344 0.2925 0.77082 0.0
C583 C 0.19412 0.29825 0.79755 0.0
C584 C 0.19429 0.31103 0.8074 0.0
C585 C 0.17405 0.31254 0.76023 0.0
C586 C 0.17359 0.29992 0.7484 0.0
H587 H 0.2022 0.31513 0.8336 0.0
H588 H 0.16594 0.31796 0.74925 0.0
H589 H 0.19422 0.33405 0.65977 0.0
H590 H 0.15998 0.34734 0.5871 0.0
H591 H 0.17643 0.31123 0.06858 0.0
H592 H 0.20193 0.29289 0.8159 0.0
H593 H 0.16524 0.29594 0.72598 0.0
C594 C 0.91324 0.91596 0.99743 0.0
C595 C 0.9125 0.91514 0.91955 0.0
N596 N 0.90938 0.92623 0.89209 0.0
N597 N 0.91056 0.9275 0.01948 0.0
C598 C 0.90842 0.93354 0.95376 0.0
H599 H 0.91561 0.90857 0.0355 0.0
Co600 Co 0.91032 0.93328 0.12043 0.0
C601 C 0.89321 0.95245 0.06425 0.0
O602 O 0.88446 0.94431 0.05545 0.0
N603 N 0.9102 0.93919 0.22114 0.0
C604 C 0.91149 0.95248 0.31643 0.0
C605 C 0.91269 0.95094 0.23975 0.0
C606 C 0.90774 0.93367 0.28843 0.0
N607 N 0.90839 0.94165 0.34717 0.0
O608 O 0.89415 0.92663 0.13367 0.0
H609 H 0.9152 0.95804 0.19993 0.0
H610 H 0.90522 0.92413 0.29427 0.0
O611 O 0.90376 0.94909 0.0877 0.0
C612 C 0.894 0.91543 0.15404 0.0
O613 O 0.90451 0.90997 0.16768 0.0
N614 N 0.92645 0.93868 0.10936 0.0
C615 C 0.95156 0.94341 0.09939 0.0
C616 C 0.94308 0.95042 0.0578 0.0
C617 C 0.93051 0.94788 0.06339 0.0
C618 C 0.9345 0.9318 0.14998 0.0
C619 C 0.94706 0.93406 0.14641 0.0
H620 H 0.92412 0.95315 0.02983 0.0
H621 H 0.9311 0.92445 0.18535 0.0
H622 H 0.90648 0.94323 0.95053 0.0
H623 H 0.91393 0.90695 0.88605 0.0
H624 H 0.91276 0.96096 0.34746 0.0
H625 H 0.94612 0.95761 0.01995 0.0
H626 H 0.95317 0.92854 0.18061 0.0
C627 C 0.33388 0.66861 0.28815 0.0
C628 C 0.3353 0.67092 0.21224 0.0
N629 N 0.32434 0.66962 0.17829 0.0
N630 N 0.32207 0.66584 0.30285 0.0
C631 C 0.31642 0.66664 0.23439 0.0
H632 H 0.34101 0.66913 0.33046 0.0
Co633 Co 0.31695 0.6629 0.40313 0.0
C634 C 0.29681 0.6495 0.32569 0.0
O635 O 0.30447 0.64262 0.28704 0.0
N636 N 0.31221 0.66008 0.50461 0.0
C637 C 0.30328 0.65259 0.60807 0.0
C638 C 0.30392 0.6519 0.5303 0.0
C639 C 0.31665 0.66544 0.56817 0.0
N640 N 0.31131 0.66114 0.63235 0.0
O641 O 0.32303 0.64637 0.3967 0.0
H642 H 0.29874 0.64568 0.49503 0.0
H643 H 0.32389 0.6722 0.5672 0.0
O644 O 0.30081 0.65774 0.37052 0.0
C645 C 0.33393 0.64531 0.42184 0.0
O646 O 0.33923 0.65504 0.45113 0.0
N647 N 0.31193 0.67928 0.41069 0.0
C648 C 0.30782 0.70432 0.43016 0.0
C649 C 0.29863 0.69678 0.39992 0.0
C650 C 0.30084 0.68418 0.39097 0.0
C651 C 0.32108 0.6866 0.43714 0.0
C652 C 0.31917 0.69911 0.44839 0.0
H653 H 0.29362 0.6785 0.36828 0.0
H654 H 0.32991 0.68263 0.45037 0.0
H655 H 0.30667 0.6655 0.22575 0.0
H656 H 0.34377 0.67335 0.18399 0.0
H657 H 0.29728 0.64718 0.64353 0.0
H658 H 0.28976 0.70053 0.38495 0.0
H659 H 0.32654 0.70468 0.47088 0.0
C660 C 0.56986 0.92238 0.50373 0.0
C661 C 0.56914 0.92022 0.57991 0.0
N662 N 0.57829 0.92632 0.61465 0.0
N663 N 0.57931 0.92998 0.48934 0.0
C664 C 0.58433 0.93227 0.55835 0.0
H665 H 0.56408 0.91826 0.46106 0.0
Co666 Co 0.58399 0.9336 0.38941 0.0
C667 C 0.58813 0.96016 0.38304 0.0
O668 O 0.58222 0.96017 0.31822 0.0
N669 N 0.58904 0.93658 0.28691 0.0
C670 C 0.60077 0.94205 0.18838 0.0
C671 C 0.59952 0.94234 0.26603 0.0
C672 C 0.58449 0.93231 0.22035 0.0
N673 N 0.59131 0.93568 0.15979 0.0
O674 O 0.60003 0.92709 0.40911 0.0
H675 H 0.60604 0.94631 0.30509 0.0
H676 H 0.57659 0.92646 0.21535 0.0
O677 O 0.58943 0.95015 0.42015 0.0
C678 C 0.60037 0.91547 0.40251 0.0
O679 O 0.59016 0.90969 0.38552 0.0
N680 N 0.56773 0.93915 0.37055 0.0
C681 C 0.54279 0.94402 0.34889 0.0
C682 C 0.5498 0.95133 0.39766 0.0
C683 C 0.56224 0.94865 0.40851 0.0
C684 C 0.56072 0.93142 0.32811 0.0
C685 C 0.54837 0.93389 0.31448 0.0
H686 H 0.56727 0.95394 0.44975 0.0
H687 H 0.56452 0.92286 0.30838 0.0
H688 H 0.59258 0.93762 0.56662 0.0
H689 H 0.56251 0.91434 0.60749 0.0
H690 H 0.60835 0.94569 0.15583 0.0
H691 H 0.54568 0.95897 0.42755 0.0
H692 H 0.54308 0.92762 0.27985 0.0
C693 C 0.32804 0.32282 0.75413 0.0
C694 C 0.32775 0.32075 0.83071 0.0
N695 N 0.31862 0.32749 0.86057 0.0
N696 N 0.319 0.33069 0.7353 0.0
C697 C 0.31346 0.33352 0.80178 0.0
H698 H 0.33433 0.31869 0.71423 0.0
Co699 Co 0.31598 0.33505 0.63494 0.0
C700 C 0.28942 0.3393 0.62037 0.0
O701 O 0.28987 0.33406 0.55346 0.0
N702 N 0.31339 0.33971 0.5318 0.0
C703 C 0.30875 0.35139 0.43194 0.0
C704 C 0.30996 0.35107 0.50948 0.0
C705 C 0.31436 0.33338 0.46585 0.0
N706 N 0.31146 0.34021 0.40445 0.0
O707 O 0.32194 0.3513 0.65537 0.0
H708 H 0.30812 0.35864 0.54745 0.0
H709 H 0.31715 0.32395 0.46189 0.0
O710 O 0.29912 0.34009 0.66092 0.0
C711 C 0.33357 0.35193 0.65016 0.0
O712 O 0.33968 0.34185 0.6345 0.0
N713 N 0.31122 0.31866 0.61638 0.0
C714 C 0.30831 0.29338 0.59705 0.0
C715 C 0.29953 0.30023 0.63696 0.0
C716 C 0.30124 0.31287 0.64686 0.0
C717 C 0.3202 0.31193 0.58241 0.0
C718 C 0.3188 0.29939 0.57023 0.0
H719 H 0.29476 0.31781 0.68156 0.0
H720 H 0.32861 0.31639 0.56493 0.0
H721 H 0.30562 0.33955 0.80683 0.0
H722 H 0.33374 0.3147 0.86222 0.0
H723 H 0.30577 0.35918 0.39881 0.0
H724 H 0.29149 0.29585 0.66069 0.0
H725 H 0.32603 0.29435 0.54186 0.0
C726 C 0.90419 0.07556 0.09611 0.0
C727 C 0.90282 0.07506 0.17298 0.0
N728 N 0.90512 0.06351 0.19581 0.0
N729 N 0.90721 0.06437 0.06973 0.0
C730 C 0.9077 0.05713 0.13197 0.0
H731 H 0.9035 0.08375 0.062 0.0
Co732 Co 0.91118 0.06198 0.96858 0.0
C733 C 0.89364 0.04109 0.95623 0.0
O734 O 0.8849 0.04821 0.93024 0.0
N735 N 0.91538 0.06024 0.86683 0.0
C736 C 0.92617 0.06407 0.76305 0.0
C737 C 0.92572 0.06544 0.83988 0.0
C738 C 0.90957 0.05583 0.80475 0.0
N739 N 0.91599 0.05813 0.74067 0.0
O740 O 0.89569 0.06925 0.94041 0.0
H741 H 0.93232 0.07038 0.87382 0.0
H742 H 0.90053 0.05175 0.80582 0.0
O743 O 0.90413 0.04559 0.97221 0.0
C744 C 0.89576 0.08023 0.91589 0.0
O745 O 0.90638 0.0857 0.90629 0.0
N746 N 0.92664 0.05567 0.99574 0.0
C747 C 0.95173 0.0505 0.99689 0.0
C748 C 0.94323 0.04175 0.97144 0.0
C749 C 0.93073 0.04452 0.97092 0.0
C750 C 0.93462 0.06386 0.02695 0.0
C751 C 0.94723 0.06145 0.02826 0.0
H752 H 0.92453 0.03813 0.94412 0.0
H753 H 0.93132 0.07277 0.04476 0.0
H754 H 0.91055 0.04762 0.13095 0.0
H755 H 0.90067 0.08272 0.20972 0.0
H756 H 0.93325 0.06759 0.72595 0.0
H757 H 0.94628 0.03311 0.94762 0.0
H758 H 0.95342 0.06853 0.04792 0.0
C759 C 0.17225 0.67235 0.25995 0.0
C760 C 0.17175 0.67454 0.33642 0.0
N761 N 0.1807 0.66803 0.37001 0.0
N762 N 0.18159 0.66463 0.24478 0.0
C763 C 0.18651 0.662 0.31339 0.0
H764 H 0.1664 0.67644 0.21749 0.0
Co765 Co 0.1859 0.6608 0.14504 0.0
C766 C 0.2124 0.65436 0.14612 0.0
O767 O 0.21362 0.65943 0.0791 0.0
N768 N 0.18963 0.65682 0.04265 0.0
C769 C 0.19428 0.64559 0.94094 0.0
C770 C 0.19325 0.64562 0.01856 0.0
C771 C 0.18826 0.66333 0.97779 0.0
N772 N 0.19112 0.65677 0.91499 0.0
O773 O 0.17861 0.64487 0.15663 0.0
H774 H 0.19503 0.6379 0.05533 0.0
H775 H 0.18483 0.67258 0.97588 0.0
O776 O 0.20189 0.65432 0.17877 0.0
C777 C 0.16714 0.64473 0.14315 0.0
O778 O 0.16178 0.65506 0.12399 0.0
N779 N 0.19214 0.67695 0.13531 0.0
C780 C 0.19644 0.70227 0.14515 0.0
C781 C 0.20451 0.69384 0.17839 0.0
C782 C 0.20206 0.68128 0.17439 0.0
C783 C 0.18419 0.68504 0.1026 0.0
C784 C 0.18626 0.69769 0.10565 0.0
H785 H 0.20771 0.67529 0.20789 0.0
H786 H 0.17574 0.68169 0.07813 0.0
H787 H 0.19442 0.65619 0.3216 0.0
H788 H 0.16542 0.68062 0.36518 0.0
H789 H 0.19716 0.63789 0.90661 0.0
H790 H 0.2124 0.69692 0.21038 0.0
H791 H 0.17952 0.70384 0.08142 0.0
C792 C 0.42101 0.91947 0.49785 0.0
C793 C 0.42025 0.91831 0.57541 0.0
N794 N 0.41237 0.92684 0.60202 0.0
N795 N 0.41369 0.92871 0.47511 0.0
C796 C 0.40851 0.93298 0.53969 0.0
H797 H 0.42658 0.91396 0.46027 0.0
Co798 Co 0.41182 0.93397 0.37458 0.0
C799 C 0.39703 0.95621 0.3955 0.0
O800 O 0.38877 0.9517 0.34902 0.0
N801 N 0.41008 0.93929 0.2731 0.0
C802 C 0.41103 0.95126 0.1711 0.0
C803 C 0.41279 0.95068 0.24797 0.0
C804 C 0.40696 0.93299 0.20961 0.0
N805 N 0.40742 0.94015 0.14706 0.0
O806 O 0.39524 0.92795 0.37514 0.0
H807 H 0.41608 0.95809 0.28319 0.0
H808 H 0.40448 0.92339 0.20906 0.0
O809 O 0.40664 0.95002 0.41068 0.0
C810 C 0.39486 0.91642 0.36328 0.0
O811 O 0.40526 0.91064 0.35124 0.0
N812 N 0.42826 0.93881 0.37247 0.0
C813 C 0.45315 0.94379 0.35375 0.0
C814 C 0.44613 0.95047 0.40629 0.0
C815 C 0.43359 0.94784 0.41477 0.0
C816 C 0.43507 0.93191 0.32391 0.0
C817 C 0.44748 0.93432 0.31309 0.0
H818 H 0.42823 0.95303 0.45509 0.0
H819 H 0.43076 0.92456 0.2926 0.0
H820 H 0.40215 0.94058 0.54098 0.0
H821 H 0.42505 0.91158 0.60924 0.0
H822 H 0.41248 0.95917 0.13519 0.0
H823 H 0.45022 0.95778 0.43924 0.0
H824 H 0.45262 0.92876 0.27333 0.0
C825 C 0.82825 0.66965 0.29253 0.0
C826 C 0.82934 0.669 0.36997 0.0
N827 N 0.82158 0.66034 0.39529 0.0
N828 N 0.81969 0.66158 0.26902 0.0
C829 C 0.81587 0.6559 0.3331 0.0
H830 H 0.83304 0.67597 0.25576 0.0
Co831 Co 0.81402 0.66096 0.16887 0.0
C832 C 0.79098 0.64671 0.18065 0.0
O833 O 0.7939 0.63989 0.122 0.0
N834 N 0.80844 0.66063 0.06778 0.0
C835 C 0.79743 0.6649 0.96501 0.0
C836 C 0.79788 0.66568 0.04262 0.0
C837 C 0.81419 0.65669 1.00414 0.0
N838 N 0.80766 0.65922 0.94093 0.0
O839 O 0.82017 0.64451 0.15968 0.0
H840 H 0.79106 0.66996 0.07842 0.0
H841 H 0.82317 0.65249 1.00369 0.0
O842 O 0.79831 0.65502 0.20365 0.0
C843 C 0.83175 0.64436 0.14967 0.0
O844 O 0.83749 0.65491 0.14362 0.0
N845 N 0.80882 0.67733 0.17825 0.0
C846 C 0.80476 0.7024 0.19969 0.0
C847 C 0.79792 0.69364 0.23986 0.0
C848 C 0.80016 0.68115 0.22888 0.0
C849 C 0.81536 0.68565 0.1373 0.0
C850 C 0.81345 0.69823 0.14688 0.0
H851 H 0.79524 0.67464 0.26342 0.0
H852 H 0.82242 0.68248 0.09886 0.0
H853 H 0.80866 0.64908 0.33472 0.0
H854 H 0.8352 0.6746 0.40529 0.0
H855 H 0.79017 0.6683 0.92884 0.0
H856 H 0.79104 0.6964 0.28073 0.0
H857 H 0.81912 0.70461 0.11552 0.0
C858 C 0.07533 0.08151 0.06956 0.0
C859 C 0.07619 0.08266 0.14704 0.0
N860 N 0.08363 0.07376 0.17348 0.0
N861 N 0.08217 0.07191 0.04665 0.0
C862 C 0.08719 0.06742 0.11112 0.0
H863 H 0.06993 0.0872 0.03218 0.0
Co864 Co 0.08324 0.06632 0.94597 0.0
C865 C 0.0965 0.0428 0.97103 0.0
O866 O 0.10594 0.04636 0.93043 0.0
N867 N 0.0843 0.06075 0.84469 0.0
C868 C 0.08281 0.04875 0.74299 0.0
C869 C 0.08115 0.04944 0.82001 0.0
C870 C 0.08763 0.06686 0.78097 0.0
N871 N 0.08682 0.05969 0.71857 0.0
O872 O 0.10017 0.07132 0.94286 0.0
H873 H 0.07766 0.04217 0.8556 0.0
H874 H 0.09057 0.07634 0.78026 0.0
O875 O 0.08746 0.05006 0.98134 0.0
C876 C 0.1012 0.08288 0.93443 0.0
O877 O 0.09114 0.08942 0.92742 0.0
N878 N 0.06645 0.06222 0.94832 0.0
C879 C 0.04133 0.05729 0.94675 0.0
C880 C 0.0488 0.05264 1.00451 0.0
C881 C 0.06138 0.05517 1.00413 0.0
C882 C 0.05921 0.06725 0.89363 0.0
C883 C 0.04666 0.06472 0.89098 0.0
H884 H 0.06701 0.05164 0.04939 0.0
H885 H 0.0632 0.07322 0.85142 0.0
H886 H 0.09307 0.05944 0.11246 0.0
H887 H 0.07167 0.08958 0.18107 0.0
H888 H 0.08106 0.04086 0.70731 0.0
H889 H 0.04498 0.04694 0.04888 0.0
H890 H 0.04114 0.06866 0.8462 0.0
C891 C 0.67206 0.32265 0.77706 0.0
C892 C 0.67244 0.32041 0.85342 0.0
N893 N 0.68138 0.32735 0.88359 0.0
N894 N 0.68084 0.33083 0.75872 0.0
C895 C 0.68633 0.33367 0.82524 0.0
H896 H 0.66594 0.31835 0.73682 0.0
Co897 Co 0.68374 0.33505 0.6582 0.0
C898 C 0.70978 0.34204 0.64421 0.0
O899 O 0.70995 0.33673 0.57747 0.0
N900 N 0.68606 0.33946 0.55501 0.0
C901 C 0.68959 0.3512 0.45393 0.0
C902 C 0.68847 0.35101 0.5314 0.0
C903 C 0.68556 0.33286 0.48997 0.0
N904 N 0.68778 0.33975 0.42765 0.0
O905 O 0.67625 0.35078 0.67564 0.0
H906 H 0.68965 0.35882 0.56842 0.0
H907 H 0.68352 0.32321 0.48769 0.0
O908 O 0.69998 0.34189 0.68439 0.0
C909 C 0.66459 0.35092 0.671 0.0
O910 O 0.65886 0.34057 0.65696 0.0
N911 N 0.69024 0.31908 0.64349 0.0
C912 C 0.69503 0.29385 0.65213 0.0
C913 C 0.70326 0.30243 0.68245 0.0
C914 C 0.70058 0.31493 0.67906 0.0
C915 C 0.6822 0.31086 0.61294 0.0
C916 C 0.68451 0.29824 0.61544 0.0
H917 H 0.70641 0.32104 0.71064 0.0
H918 H 0.67354 0.31408 0.59069 0.0
H919 H 0.69403 0.33986 0.83057 0.0
H920 H 0.66666 0.31411 0.88453 0.0
H921 H 0.69185 0.35914 0.42004 0.0
H922 H 0.71144 0.29948 0.71207 0.0
H923 H 0.6777 0.29197 0.59329 0.0
C924 C 0.40437 0.0798 0.46425 0.0
C925 C 0.40196 0.07959 0.38801 0.0
N926 N 0.40566 0.06873 0.36011 0.0
N927 N 0.40937 0.06902 0.48543 0.0
C928 C 0.41021 0.06247 0.42012 0.0
H929 H 0.40265 0.08745 0.50166 0.0
Co930 Co 0.41403 0.06558 0.58609 0.0
C931 C 0.40859 0.0386 0.6081 0.0
O932 O 0.41432 0.03793 0.67327 0.0
N933 N 0.41876 0.06273 0.68878 0.0
C934 C 0.42968 0.06336 0.79544 0.0
C935 C 0.43007 0.06451 0.71797 0.0
C936 C 0.41162 0.06073 0.7507 0.0
N937 N 0.41805 0.06102 0.81654 0.0
O938 O 0.39792 0.07061 0.61963 0.0
H939 H 0.43808 0.06715 0.68583 0.0
H940 H 0.40183 0.05932 0.74741 0.0
O941 O 0.40819 0.04874 0.57183 0.0
C942 C 0.39765 0.08136 0.64809 0.0
O943 O 0.40809 0.08722 0.65642 0.0
N944 N 0.42996 0.06171 0.55184 0.0
C945 C 0.45451 0.05997 0.50746 0.0
C946 C 0.44822 0.04965 0.53471 0.0
C947 C 0.4359 0.05069 0.55618 0.0
C948 C 0.43595 0.07179 0.5251 0.0
C949 C 0.44816 0.07111 0.50195 0.0
H950 H 0.43141 0.0427 0.57839 0.0
H951 H 0.43124 0.08052 0.52331 0.0
H952 H 0.41397 0.05329 0.41672 0.0
H953 H 0.39796 0.08695 0.35511 0.0
H954 H 0.43732 0.06487 0.83336 0.0
H955 H 0.45282 0.04089 0.53981 0.0
H956 H 0.45271 0.07934 0.48233 0.0
C957 C 0.66535 0.66794 0.24911 0.0
C958 C 0.66406 0.67026 0.1732 0.0
N959 N 0.67471 0.66757 0.13851 0.0
N960 N 0.67678 0.66381 0.26309 0.0
C961 C 0.68232 0.66369 0.19415 0.0
H962 H 0.65846 0.66949 0.29203 0.0
Co963 Co 0.6817 0.66088 0.36336 0.0
C964 C 0.70289 0.64712 0.29282 0.0
O965 O 0.69629 0.63917 0.25464 0.0
N966 N 0.68626 0.65806 0.46478 0.0
C967 C 0.69479 0.6501 0.56806 0.0
C968 C 0.69414 0.64947 0.49039 0.0
C969 C 0.68209 0.66364 0.52831 0.0
N970 N 0.68719 0.65903 0.59235 0.0
O971 O 0.67537 0.64448 0.3571 0.0
H972 H 0.69905 0.64302 0.45511 0.0
H973 H 0.67522 0.67078 0.52747 0.0
O974 O 0.69772 0.65542 0.33229 0.0
C975 C 0.66425 0.64374 0.3788 0.0
O976 O 0.65891 0.65367 0.40509 0.0
N977 N 0.6871 0.67721 0.36987 0.0
C978 C 0.69134 0.70247 0.36552 0.0
C979 C 0.70052 0.69416 0.34385 0.0
C980 C 0.69824 0.68155 0.34648 0.0
C981 C 0.67819 0.68515 0.39296 0.0
C982 C 0.68014 0.69781 0.39191 0.0
H983 H 0.70536 0.67546 0.32706 0.0
H984 H 0.66933 0.68162 0.40971 0.0
H985 H 0.69183 0.66135 0.18492 0.0
H986 H 0.65592 0.67375 0.14553 0.0
H987 H 0.70052 0.6444 0.60354 0.0
H988 H 0.70932 0.69739 0.32353 0.0
H989 H 0.67275 0.70391 0.4082 0.0
C990 C 0.07388 0.91702 0.9758 0.0
C991 C 0.07449 0.91575 0.89853 0.0
N992 N 0.08346 0.92309 0.87266 0.0
N993 N 0.08228 0.92531 0.99866 0.0
C994 C 0.08814 0.92874 0.93442 0.0
H995 H 0.06749 0.91243 1.01308 0.0
Co996 Co 0.08354 0.93038 0.09959 0.0
C997 C 0.09743 0.95334 0.05194 0.0
O998 O 0.1084 0.94847 0.04596 0.0
N999 N 0.08463 0.93537 0.20125 0.0
C1000 C 0.08135 0.94623 0.30604 0.0
C1001 C 0.08023 0.94607 0.2287 0.0
C1002 C 0.08854 0.9292 0.26331 0.0
N1003 N 0.08661 0.93566 0.32764 0.0
O1004 O 0.10028 0.92482 0.10205 0.0
H1005 H 0.07595 0.95313 0.19498 0.0
H1006 H 0.09222 0.91999 0.26187 0.0
O1007 O 0.08828 0.94672 0.07008 0.0
C1008 C 0.10082 0.9132 0.10938 0.0
O1009 O 0.09047 0.90712 0.11621 0.0
N1010 N 0.06691 0.9351 0.09732 0.0
C1011 C 0.0419 0.94067 0.09551 0.0
C1012 C 0.05006 0.94659 0.04615 0.0
C1013 C 0.06251 0.94358 0.04734 0.0
C1014 C 0.05912 0.92908 0.14483 0.0
C1015 C 0.04657 0.93176 0.14507 0.0
H1016 H 0.06854 0.94792 1.00689 0.0
H1017 H 0.06267 0.92215 0.18272 0.0
H1018 H 0.09538 0.9355 0.93239 0.0
H1019 H 0.06873 0.90993 0.86379 0.0
H1020 H 0.07832 0.95344 0.34387 0.0
H1021 H 0.04681 0.95329 1.00561 0.0
H1022 H 0.04061 0.92696 0.18412 0.0
C1023 C 0.83081 0.32442 0.75571 0.0
C1024 C 0.8311 0.32234 0.67909 0.0
N1025 N 0.82184 0.32861 0.64701 0.0
N1026 N 0.82131 0.33186 0.77244 0.0
C1027 C 0.81604 0.33439 0.70467 0.0
H1028 H 0.83695 0.32048 0.79716 0.0
Co1029 Co 0.81724 0.33575 0.87247 0.0
C1030 C 0.79045 0.34012 0.87306 0.0
O1031 O 0.78961 0.33424 0.9378 0.0
N1032 N 0.81353 0.33988 0.97506 0.0
C1033 C 0.80784 0.35099 0.07548 0.0
C1034 C 0.80904 0.35084 0.99784 0.0
C1035 C 0.81521 0.33366 0.04075 0.0
N1036 N 0.8117 0.34012 0.10257 0.0
O1037 O 0.82361 0.35201 0.85804 0.0
H1038 H 0.8067 0.35829 0.96013 0.0
H1039 H 0.81923 0.32467 0.04433 0.0
O1040 O 0.8009 0.34124 0.84071 0.0
C1041 C 0.8352 0.35246 0.86644 0.0
O1042 O 0.84105 0.34228 0.88311 0.0
N1043 N 0.81207 0.31935 0.88541 0.0
C1044 C 0.80851 0.2941 0.90022 0.0
C1045 C 0.80036 0.30119 0.85728 0.0
C1046 C 0.8024 0.31383 0.84967 0.0
C1047 C 0.82058 0.31235 0.92165 0.0
C1048 C 0.81881 0.2998 0.93178 0.0
H1049 H 0.79645 0.31897 0.81275 0.0
H1050 H 0.82893 0.31655 0.94211 0.0
H1051 H 0.80788 0.33991 0.69786 0.0
H1052 H 0.83752 0.3165 0.64915 0.0
H1053 H 0.80427 0.35849 0.10905 0.0
H1054 H 0.79254 0.29701 0.82972 0.0
H1055 H 0.82562 0.29455 0.96243 0.0
H1056 H 0.08467 0.55424 0.80575 0.0
H1057 H 0.09051 0.59353 0.80884 0.0
H1058 H 0.09301 0.59352 0.66995 0.0
H1059 H 0.10609 0.54723 0.64836 0.0
H1060 H 0.09621 0.53568 0.6083 0.0
H1061 H 0.09599 0.53855 0.70881 0.0
H1062 H 0.07258 0.5424 0.70264 0.0
H1063 H 0.07275 0.53962 0.60214 0.0
H1064 H 0.06668 0.55383 0.6386 0.0
H1065 H 0.09359 0.58959 0.53042 0.0
H1066 H 0.09224 0.58214 0.39986 0.0
H1067 H 0.08592 0.54517 0.48389 0.0
C1068 C 0.08675 0.56276 0.7771 0.0
C1069 C 0.08747 0.5739 0.81821 0.0
C1070 C 0.08991 0.58492 0.77852 0.0
C1071 C 0.09137 0.58499 0.69961 0.0
C1072 C 0.09034 0.57395 0.66045 0.0
C1073 C 0.08812 0.56301 0.69764 0.0
C1074 C 0.08675 0.55258 0.64098 0.0
C1075 C 0.09686 0.54294 0.6523 0.0
C1076 C 0.07393 0.54677 0.64643 0.0
C1077 C 0.0884 0.55941 0.56648 0.0
C1078 C 0.09053 0.57171 0.57927 0.0
C1079 C 0.09201 0.57994 0.5197 0.0
C1080 C 0.09123 0.57556 0.44504 0.0
C1081 C 0.08894 0.56297 0.42953 0.0
C1082 C 0.08762 0.55484 0.49208 0.0
H1083 H 0.68391 0.81961 0.73641 0.0
H1084 H 0.68204 0.85842 0.68778 0.0
H1085 H 0.67883 0.86279 0.82473 0.0
H1086 H 0.66002 0.81978 0.88185 0.0
H1087 H 0.66757 0.80818 0.9376 0.0
H1088 H 0.66951 0.80841 0.83634 0.0
H1089 H 0.69309 0.80924 0.85401 0.0
H1090 H 0.69122 0.80918 0.95529 0.0
H1091 H 0.69974 0.82133 0.91032 0.0
H1092 H 0.67773 0.86268 0.9699 0.0
H1093 H 0.67564 0.85798 0.10716 0.0
H1094 H 0.67656 0.81916 0.05685 0.0
C1095 C 0.68267 0.829 0.75489 0.0
C1096 C 0.68321 0.83872 0.70247 0.0
C1097 C 0.68153 0.85091 0.72769 0.0
C1098 C 0.6798 0.85344 0.80512 0.0
C1099 C 0.67955 0.84362 0.8559 0.0
C1100 C 0.68066 0.83162 0.83136 0.0
C1101 C 0.67978 0.82267 0.89651 0.0
C1102 C 0.66855 0.81427 0.88753 0.0
C1103 C 0.69167 0.81517 0.90447 0.0
C1104 C 0.67819 0.83147 0.96194 0.0
C1105 C 0.67825 0.84354 0.93782 0.0
C1106 C 0.67749 0.85326 0.98913 0.0
C1107 C 0.6764 0.85055 0.06674 0.0
C1108 C 0.67585 0.83825 0.09172 0.0
C1109 C 0.67681 0.82864 0.03863 0.0
H1110 H 0.41856 0.45251 0.97181 0.0
H1111 H 0.40063 0.41938 0.89178 0.0
H1112 H 0.39817 0.41245 0.02338 0.0
H1113 H 0.43497 0.43872 0.12436 0.0
H1114 H 0.43301 0.45146 0.18829 0.0
H1115 H 0.43321 0.45404 0.0876 0.0
H1116 H 0.41206 0.46474 0.09644 0.0
H1117 H 0.41178 0.46216 0.19721 0.0
H1118 H 0.39934 0.45674 0.13899 0.0
H1119 H 0.39823 0.40862 0.1627 0.0
H1120 H 0.40095 0.40813 0.30142 0.0
H1121 H 0.41804 0.44397 0.29462 0.0
C1122 C 0.41399 0.44386 0.98168 0.0
C1123 C 0.40986 0.43649 0.92041 0.0
C1124 C 0.40409 0.42514 0.93679 0.0
C1125 C 0.40254 0.42115 1.01172 0.0
C1126 C 0.40672 0.42861 0.07034 0.0
C1127 C 0.41231 0.43974 0.05641 0.0
C1128 C 0.41619 0.44586 0.1301 0.0
C1129 C 0.43017 0.44762 0.13272 0.0
C1130 C 0.40943 0.4581 0.14133 0.0
C1131 C 0.41199 0.43637 0.18753 0.0
C1132 C 0.40655 0.42651 0.15148 0.0
C1133 C 0.40239 0.41633 0.19153 0.0
C1134 C 0.40399 0.41611 0.27024 0.0
C1135 C 0.40963 0.42602 0.3087 0.0
C1136 C 0.41351 0.43637 0.26677 0.0
H1137 H 0.82523 0.17224 0.21771 0.0
H1138 H 0.8037 0.13949 0.18195 0.0
H1139 H 0.80514 0.13464 0.3195 0.0
H1140 H 0.84552 0.15975 0.36778 0.0
H1141 H 0.84574 0.1742 0.41737 0.0
H1142 H 0.84414 0.17391 0.31587 0.0
H1143 H 0.8242 0.18673 0.32735 0.0
H1144 H 0.8256 0.18688 0.42877 0.0
H1145 H 0.81179 0.18113 0.38536 0.0
H1146 H 0.80693 0.13521 0.46545 0.0
H1147 H 0.81068 0.13987 0.60119 0.0
H1148 H 0.83113 0.17226 0.53622 0.0
C1149 C 0.82117 0.16385 0.23879 0.0
C1150 C 0.81449 0.15613 0.18994 0.0
C1151 C 0.80904 0.14534 0.21884 0.0
C1152 C 0.80975 0.14261 0.29674 0.0
C1153 C 0.81606 0.15071 0.34417 0.0
C1154 C 0.82187 0.161 0.31564 0.0
C1155 C 0.82754 0.16865 0.37776 0.0
C1156 C 0.84157 0.16915 0.36918 0.0
C1157 C 0.82194 0.18161 0.3799 0.0
C1158 C 0.82383 0.16126 0.44628 0.0
C1159 C 0.8172 0.15094 0.42635 0.0
C1160 C 0.81228 0.14316 0.48134 0.0
C1161 C 0.81435 0.14592 0.55825 0.0
C1162 C 0.82133 0.15634 0.57929 0.0
C1163 C 0.82603 0.16407 0.52213 0.0
H1164 H 0.07584 0.4194 0.61968 0.0
H1165 H 0.0953 0.45252 0.68131 0.0
H1166 H 0.10009 0.45626 0.54543 0.0
H1167 H 0.09657 0.40991 0.47243 0.0
H1168 H 0.08448 0.40374 0.41425 0.0
H1169 H 0.0828 0.40402 0.51561 0.0
H1170 H 0.06243 0.41608 0.50113 0.0
H1171 H 0.06414 0.41597 0.39973 0.0
H1172 H 0.06234 0.43032 0.44929 0.0
H1173 H 0.10177 0.45651 0.39866 0.0
H1174 H 0.10233 0.45184 0.26047 0.0
H1175 H 0.08221 0.4183 0.30115 0.0
C1176 C 0.08112 0.42744 0.60452 0.0
C1177 C 0.08515 0.43573 0.66049 0.0
C1178 C 0.09221 0.44604 0.63893 0.0
C1179 C 0.09487 0.44827 0.56202 0.0
C1180 C 0.0905 0.43999 0.50789 0.0
C1181 C 0.08394 0.42968 0.52876 0.0
C1182 C 0.08054 0.42194 0.46109 0.0
C1183 C 0.08646 0.40915 0.46616 0.0
C1184 C 0.06653 0.42103 0.45233 0.0
C1185 C 0.08615 0.42947 0.39839 0.0
C1186 C 0.09176 0.43994 0.42575 0.0
C1187 C 0.09745 0.44829 0.37696 0.0
C1188 C 0.09767 0.44565 0.29876 0.0
C1189 C 0.09238 0.4347 0.27088 0.0
C1190 C 0.08641 0.42669 0.32139 0.0
H1191 H 0.82185 0.82547 0.87386 0.0
H1192 H 0.79528 0.85481 0.8892 0.0
H1193 H 0.79715 0.85848 0.75118 0.0
H1194 H 0.84117 0.83896 0.72204 0.0
H1195 H 0.84359 0.82437 0.6763 0.0
H1196 H 0.84125 0.82506 0.77724 0.0
H1197 H 0.82318 0.80978 0.76506 0.0
H1198 H 0.82541 0.80911 0.66416 0.0
H1199 H 0.81065 0.81331 0.70219 0.0
H1200 H 0.80092 0.85807 0.61056 0.0
H1201 H 0.80613 0.85363 0.47772 0.0
H1202 H 0.82954 0.8237 0.55158 0.0
C1203 C 0.81675 0.83288 0.84806 0.0
C1204 C 0.80863 0.84009 0.89188 0.0
C1205 C 0.80169 0.8494 0.85631 0.0
C1206 C 0.80268 0.8515 0.77813 0.0
C1207 C 0.81058 0.84411 0.73593 0.0
C1208 C 0.81751 0.83498 0.76954 0.0
C1209 C 0.82458 0.82776 0.71024 0.0
C1210 C 0.83847 0.82912 0.72217 0.0
C1211 C 0.82072 0.81419 0.71045 0.0
C1212 C 0.82045 0.83416 0.63823 0.0
C1213 C 0.81246 0.84363 0.65444 0.0
C1214 C 0.8072 0.85069 0.59724 0.0
C1215 C 0.81016 0.84802 0.52155 0.0
C1216 C 0.81826 0.83827 0.50295 0.0
C1217 C 0.82347 0.83132 0.56286 0.0
H1218 H 0.42141 0.57975 0.79832 0.0
H1219 H 0.39552 0.55195 0.72437 0.0
H1220 H 0.39167 0.54638 0.85737 0.0
H1221 H 0.4343 0.5629 0.94944 0.0
H1222 H 0.43588 0.57588 1.0119 0.0
H1223 H 0.43622 0.57808 0.91094 0.0
H1224 H 0.41843 0.59373 0.92165 0.0
H1225 H 0.418 0.59154 0.02275 0.0
H1226 H 0.40433 0.58925 0.9672 0.0
H1227 H 0.39148 0.54293 0.99759 0.0
H1228 H 0.39522 0.54174 0.13554 0.0
H1229 H 0.42043 0.57227 0.12077 0.0
C1230 C 0.41478 0.57262 0.80973 0.0
C1231 C 0.40879 0.5663 0.74994 0.0
C1232 C 0.40037 0.55686 0.76836 0.0
C1233 C 0.39803 0.55368 0.84404 0.0
C1234 C 0.40409 0.56008 0.9012 0.0
C1235 C 0.41228 0.56937 0.88508 0.0
C1236 C 0.41791 0.5745 0.95716 0.0
C1237 C 0.4319 0.57273 0.95735 0.0
C1238 C 0.41446 0.58806 0.9678 0.0
C1239 C 0.41175 0.5665 1.01634 0.0
C1240 C 0.40378 0.55828 0.98261 0.0
C1241 C 0.39756 0.54944 0.02464 0.0
C1242 C 0.39971 0.54883 0.10279 0.0
C1243 C 0.40792 0.55704 0.13851 0.0
C1244 C 0.41386 0.56613 0.0949 0.0
H1245 H 0.66973 0.17357 1.00937 0.0
H1246 H 0.69152 0.14244 0.93519 0.0
H1247 H 0.69609 0.13746 0.06824 0.0
H1248 H 0.68884 0.18255 0.16102 0.0
H1249 H 0.67642 0.18685 0.22304 0.0
H1250 H 0.67445 0.18767 0.12202 0.0
H1251 H 0.65537 0.17361 0.13183 0.0
H1252 H 0.65733 0.1727 0.23299 0.0
H1253 H 0.65672 0.15887 0.17719 0.0
H1254 H 0.69934 0.13654 0.20934 0.0
H1255 H 0.70115 0.14003 0.34763 0.0
H1256 H 0.67656 0.17101 0.33143 0.0
C1257 C 0.6753 0.16557 0.02065 0.0
C1258 C 0.68024 0.15842 0.96077 0.0
C1259 C 0.68771 0.14819 0.97919 0.0
C1260 C 0.69028 0.14521 0.05493 0.0
C1261 C 0.68526 0.15246 0.11217 0.0
C1262 C 0.67791 0.16242 0.09597 0.0
C1263 C 0.67402 0.169 0.16797 0.0
C1264 C 0.67872 0.1823 0.16852 0.0
C1265 C 0.66003 0.16851 0.17807 0.0
C1266 C 0.68047 0.16128 0.22723 0.0
C1267 C 0.68688 0.15175 0.19373 0.0
C1268 C 0.69419 0.14383 0.23619 0.0
C1269 C 0.69514 0.14582 0.3145 0.0
C1270 C 0.68874 0.15555 0.3498 0.0
C1271 C 0.68119 0.16327 0.30577 0.0
H1272 H 0.92406 0.43893 0.25516 0.0
H1273 H 0.88746 0.42367 0.24857 0.0
H1274 H 0.88561 0.42624 0.38721 0.0
H1275 H 0.93316 0.42386 0.41936 0.0
H1276 H 0.94221 0.4362 0.45799 0.0
H1277 H 0.94003 0.43505 0.35728 0.0
H1278 H 0.9313 0.45712 0.35396 0.0
H1279 H 0.93356 0.4584 0.45476 0.0
H1280 H 0.91861 0.46112 0.41466 0.0
H1281 H 0.88854 0.42828 0.52751 0.0
H1282 H 0.89598 0.42965 0.65881 0.0
H1283 H 0.93083 0.44366 0.57669 0.0
C1284 C 0.91553 0.43657 0.28292 0.0
C1285 C 0.9058 0.4313 0.24126 0.0
C1286 C 0.89493 0.42785 0.27962 0.0
C1287 C 0.89381 0.42927 0.35826 0.0
C1288 C 0.90368 0.43414 0.39829 0.0
C1289 C 0.91432 0.43781 0.36202 0.0
C1290 C 0.92394 0.44174 0.41936 0.0
C1291 C 0.93551 0.43373 0.41311 0.0
C1292 C 0.92703 0.45541 0.41013 0.0
C1293 C 0.91715 0.43939 0.49319 0.0
C1294 C 0.90544 0.43516 0.47969 0.0
C1295 C 0.89764 0.43178 0.5388 0.0
C1296 C 0.90196 0.43264 0.6136 0.0
C1297 C 0.91402 0.43679 0.62927 0.0
C1298 C 0.92159 0.44037 0.56759 0.0
H1299 H 0.31661 0.14987 0.98825 0.0
H1300 H 0.31983 0.18941 0.97809 0.0
H1301 H 0.31631 0.19074 0.11607 0.0
H1302 H 0.29316 0.14857 0.1405 0.0
H1303 H 0.30002 0.13536 0.18486 0.0
H1304 H 0.30146 0.13755 0.0841 0.0
H1305 H 0.3251 0.13622 0.09582 0.0
H1306 H 0.32374 0.1341 0.19656 0.0
H1307 H 0.33298 0.14643 0.15969 0.0
H1308 H 0.31368 0.18784 0.25482 0.0
H1309 H 0.31227 0.18096 0.38701 0.0
H1310 H 0.31168 0.14306 0.31111 0.0
C1311 C 0.31626 0.15878 1.01522 0.0
C1312 C 0.31835 0.16958 0.97279 0.0
C1313 C 0.31819 0.18108 1.00987 0.0
C1314 C 0.31618 0.18192 0.08804 0.0
C1315 C 0.31442 0.17113 0.12876 0.0
C1316 C 0.31443 0.15976 0.0939 0.0
C1317 C 0.31315 0.14959 0.15218 0.0
C1318 C 0.30124 0.14234 0.13965 0.0
C1319 C 0.32441 0.14109 0.15097 0.0
C1320 C 0.3126 0.15702 0.22497 0.0
C1321 C 0.31324 0.16942 0.20982 0.0
C1322 C 0.31317 0.17815 0.26744 0.0
C1323 C 0.31248 0.17411 0.34267 0.0
C1324 C 0.31197 0.16143 0.36028 0.0
C1325 C 0.31194 0.15281 0.30006 0.0
H1326 H 0.58253 0.5795 0.7837 0.0
H1327 H 0.59757 0.54393 0.72623 0.0
H1328 H 0.59724 0.53813 0.8625 0.0
H1329 H 0.59875 0.58407 0.95691 0.0
H1330 H 0.58596 0.59133 1.00365 0.0
H1331 H 0.58757 0.59246 0.90243 0.0
H1332 H 0.56577 0.58339 0.88461 0.0
H1333 H 0.56406 0.58233 0.98575 0.0
H1334 H 0.56202 0.56889 0.9277 0.0
H1335 H 0.59583 0.5369 1.00947 0.0
H1336 H 0.59125 0.5395 0.14683 0.0
H1337 H 0.57664 0.57566 0.10165 0.0
C1338 C 0.58584 0.57051 0.79973 0.0
C1339 C 0.59024 0.56221 0.7447 0.0
C1340 C 0.59418 0.55041 0.76772 0.0
C1341 C 0.59409 0.5471 0.84492 0.0
C1342 C 0.58989 0.55565 0.89799 0.0
C1343 C 0.58568 0.56705 0.87577 0.0
C1344 C 0.5812 0.57452 0.94233 0.0
C1345 C 0.58883 0.58629 0.95187 0.0
C1346 C 0.56745 0.57745 0.93462 0.0
C1347 C 0.58355 0.5656 1.00603 0.0
C1348 C 0.5887 0.5548 0.9801 0.0
C1349 C 0.59175 0.54532 0.03 0.0
C1350 C 0.58921 0.54687 0.10779 0.0
C1351 C 0.58353 0.55773 0.1343 0.0
C1352 C 0.58086 0.56721 0.08263 0.0
H1353 H 0.20202 0.82977 0.77795 0.0
H1354 H 0.16801 0.84613 0.85776 0.0
H1355 H 0.16105 0.84818 0.72613 0.0
H1356 H 0.2053 0.84922 0.61055 0.0
H1357 H 0.21143 0.83702 0.55293 0.0
H1358 H 0.21399 0.83703 0.65373 0.0
H1359 H 0.2045 0.81532 0.6633 0.0
H1360 H 0.20194 0.81524 0.56262 0.0
H1361 H 0.18931 0.81266 0.62657 0.0
H1362 H 0.15714 0.84745 0.58627 0.0
H1363 H 0.15678 0.84423 0.44769 0.0
H1364 H 0.19363 0.82951 0.45589 0.0
C1365 C 0.19317 0.83394 0.76842 0.0
C1366 C 0.1856 0.83771 0.82981 0.0
C1367 C 0.174 0.84296 0.81305 0.0
C1368 C 0.16997 0.84427 0.73796 0.0
C1369 C 0.17764 0.84042 0.67942 0.0
C1370 C 0.18903 0.83543 0.69361 0.0
C1371 C 0.19538 0.8318 0.62013 0.0
C1372 C 0.20723 0.83921 0.60868 0.0
C1373 C 0.19793 0.81793 0.61807 0.0
C1374 C 0.18569 0.83539 0.56247 0.0
C1375 C 0.17553 0.84034 0.59816 0.0
C1376 C 0.1651 0.84373 0.55775 0.0
C1377 C 0.16497 0.84187 0.47916 0.0
C1378 C 0.17521 0.83678 0.44119 0.0
C1379 C 0.18579 0.83367 0.48339 0.0
H1380 H 0.91667 0.55293 0.80394 0.0
H1381 H 0.90292 0.59014 0.81294 0.0
H1382 H 0.89963 0.58988 0.67441 0.0
H1383 H 0.93357 0.55683 0.63397 0.0
H1384 H 0.93056 0.54171 0.59703 0.0
H1385 H 0.9306 0.54427 0.69774 0.0
H1386 H 0.90864 0.5354 0.7075 0.0
H1387 H 0.90855 0.53275 0.60676 0.0
H1388 H 0.8966 0.5418 0.64989 0.0
H1389 H 0.89873 0.58598 0.53436 0.0
H1390 H 0.90059 0.57896 0.40262 0.0
H1391 H 0.9161 0.54455 0.48206 0.0
C1392 C 0.91271 0.56087 0.77662 0.0
C1393 C 0.90989 0.57152 0.81902 0.0
C1394 C 0.90505 0.5819 0.78131 0.0
C1395 C 0.90315 0.58182 0.70276 0.0
C1396 C 0.90624 0.57131 0.66214 0.0
C1397 C 0.91093 0.56101 0.6976 0.0
C1398 C 0.91427 0.55124 0.63969 0.0
C1399 C 0.92807 0.54835 0.64228 0.0
C1400 C 0.90655 0.53961 0.65169 0.0
C1401 C 0.91081 0.5577 0.56642 0.0
C1402 C 0.9061 0.56921 0.58083 0.0
C1403 C 0.90242 0.57697 0.52239 0.0
C1404 C 0.9036 0.5729 0.44723 0.0
C1405 C 0.90857 0.56117 0.43029 0.0
C1406 C 0.91216 0.55351 0.4916 0.0
H1407 H 0.16619 0.16071 0.48181 0.0
H1408 H 0.20373 0.15081 0.53268 0.0
H1409 H 0.20904 0.15273 0.396 0.0
H1410 H 0.16349 0.14492 0.30678 0.0
H1411 H 0.15432 0.15668 0.26284 0.0
H1412 H 0.15377 0.1546 0.36388 0.0
H1413 H 0.15966 0.17741 0.38391 0.0
H1414 H 0.16012 0.17959 0.28292 0.0
H1415 H 0.17332 0.18336 0.3397 0.0
H1416 H 0.20951 0.15465 0.24917 0.0
H1417 H 0.20572 0.15872 0.11245 0.0
H1418 H 0.16805 0.1681 0.16388 0.0
C1419 C 0.17554 0.15893 0.46417 0.0
C1420 C 0.18454 0.15547 0.51738 0.0
C1421 C 0.19672 0.15347 0.49253 0.0
C1422 C 0.19977 0.15447 0.4151 0.0
C1423 C 0.19055 0.15767 0.36375 0.0
C1424 C 0.17872 0.16005 0.38791 0.0
C1425 C 0.17046 0.16362 0.32285 0.0
C1426 C 0.15989 0.1544 0.31356 0.0
C1427 C 0.16561 0.17677 0.33296 0.0
C1428 C 0.17941 0.16279 0.25771 0.0
C1429 C 0.19094 0.15923 0.28172 0.0
C1430 C 0.20054 0.15755 0.23019 0.0
C1431 C 0.19831 0.1598 0.15274 0.0
C1432 C 0.18665 0.16385 0.12799 0.0
C1433 C 0.17712 0.16522 0.1814 0.0
H1434 H 0.57217 0.42288 0.95182 0.0
H1435 H 0.60143 0.44848 0.90367 0.0
H1436 H 0.60699 0.44882 0.04048 0.0
H1437 H 0.56256 0.43544 0.12531 0.0
H1438 H 0.5595 0.42087 0.16955 0.0
H1439 H 0.55834 0.42238 0.06835 0.0
H1440 H 0.57389 0.40463 0.05012 0.0
H1441 H 0.57498 0.40294 0.15132 0.0
H1442 H 0.58864 0.40543 0.09588 0.0
H1443 H 0.60783 0.44747 0.18677 0.0
H1444 H 0.60568 0.44251 0.3237 0.0
H1445 H 0.57651 0.41702 0.27047 0.0
C1446 C 0.57985 0.42843 0.97022 0.0
C1447 C 0.58639 0.43568 0.91799 0.0
C1448 C 0.59641 0.44281 0.9433 0.0
C1449 C 0.59954 0.4431 0.02072 0.0
C1450 C 0.59267 0.43603 0.07132 0.0
C1451 C 0.58318 0.42865 0.04648 0.0
C1452 C 0.57721 0.42181 0.11112 0.0
C1453 C 0.5636 0.42534 0.11902 0.0
C1454 C 0.57878 0.40788 0.10153 0.0
C1455 C 0.58467 0.4266 0.17679 0.0
C1456 C 0.59348 0.43489 0.15334 0.0
C1457 C 0.60107 0.44086 0.20537 0.0
C1458 C 0.59975 0.43807 0.28287 0.0
C1459 C 0.59104 0.42929 0.30712 0.0
C1460 C 0.58339 0.4236 0.2532 0.0
H1461 H 0.31297 0.84769 0.06212 0.0
H1462 H 0.31824 0.80837 0.07215 0.0
H1463 H 0.31481 0.80687 0.93418 0.0
H1464 H 0.2895 0.84782 0.91052 0.0
H1465 H 0.29565 0.86136 0.86597 0.0
H1466 H 0.29726 0.85924 0.96668 0.0
H1467 H 0.32079 0.86175 0.95421 0.0
H1468 H 0.31926 0.86381 0.85353 0.0
H1469 H 0.32915 0.85196 0.89003 0.0
H1470 H 0.31188 0.80964 0.79537 0.0
H1471 H 0.30995 0.81644 0.66331 0.0
H1472 H 0.30757 0.85426 0.73942 0.0
C1473 C 0.3131 0.83878 0.03512 0.0
C1474 C 0.31574 0.8281 0.07755 0.0
C1475 C 0.3162 0.81661 0.0404 0.0
C1476 C 0.31423 0.81568 0.96221 0.0
C1477 C 0.31191 0.82636 0.92152 0.0
C1478 C 0.31134 0.83771 0.95642 0.0
C1479 C 0.30951 0.84781 0.89819 0.0
C1480 C 0.29725 0.85445 0.91112 0.0
C1481 C 0.32032 0.85686 0.89906 0.0
C1482 C 0.30929 0.84036 0.82538 0.0
C1483 C 0.31058 0.82801 0.84047 0.0
C1484 C 0.31087 0.81929 0.7828 0.0
C1485 C 0.30988 0.82329 0.70761 0.0
C1486 C 0.30872 0.83593 0.69001 0.0
C1487 C 0.30834 0.84454 0.75033 0.0
H1488 H 0.57516 0.08019 0.93098 0.0
H1489 H 0.59338 0.0459 0.88018 0.0
H1490 H 0.59824 0.04323 1.01691 0.0
H1491 H 0.59661 0.09019 0.07527 0.0
H1492 H 0.5848 0.09733 0.13161 0.0
H1493 H 0.58308 0.09631 0.03042 0.0
H1494 H 0.56223 0.08526 0.0486 0.0
H1495 H 0.56395 0.08612 0.14982 0.0
H1496 H 0.56155 0.07148 0.10481 0.0
H1497 H 0.5996 0.04395 0.16313 0.0
H1498 H 0.59975 0.04927 0.30025 0.0
H1499 H 0.58153 0.08357 0.2499 0.0
C1500 C 0.58023 0.07215 0.94876 0.0
C1501 C 0.58386 0.0632 0.89566 0.0
C1502 C 0.59061 0.05287 0.9204 0.0
C1503 C 0.59331 0.05127 0.99779 0.0
C1504 C 0.58935 0.06019 0.04913 0.0
C1505 C 0.58315 0.07055 0.02507 0.0
C1506 C 0.58009 0.07897 0.09038 0.0
C1507 C 0.58653 0.09143 0.08137 0.0
C1508 C 0.56613 0.08054 0.09888 0.0
C1509 C 0.5854 0.07173 0.15544 0.0
C1510 C 0.59059 0.06085 0.13115 0.0
C1511 C 0.59568 0.05252 0.18241 0.0
C1512 C 0.59566 0.05554 0.26002 0.0
C1513 C 0.59077 0.06687 0.28507 0.0
C1514 C 0.5855 0.07494 0.23195 0.0
H1515 H 0.16778 0.32628 0.16514 0.0
H1516 H 0.20376 0.34094 0.11561 0.0
H1517 H 0.20678 0.34552 0.25251 0.0
H1518 H 0.15984 0.34854 0.31024 0.0
H1519 H 0.15155 0.33742 0.36574 0.0
H1520 H 0.15245 0.33574 0.26447 0.0
H1521 H 0.16137 0.31387 0.28157 0.0
H1522 H 0.16064 0.31554 0.38287 0.0
H1523 H 0.17499 0.31176 0.33789 0.0
H1524 H 0.20607 0.34689 0.399 0.0
H1525 H 0.2007 0.34735 0.53605 0.0
H1526 H 0.16488 0.33253 0.4838 0.0
C1527 C 0.17626 0.33053 0.1832 0.0
C1528 C 0.18558 0.33321 0.13047 0.0
C1529 C 0.19651 0.3389 0.15557 0.0
C1530 C 0.1983 0.34144 0.23305 0.0
C1531 C 0.18898 0.33839 0.28405 0.0
C1532 C 0.17809 0.33326 0.25956 0.0
C1533 C 0.16937 0.33096 0.3245 0.0
C1534 C 0.15761 0.33862 0.3157 0.0
C1535 C 0.16643 0.31722 0.33213 0.0
C1536 C 0.17707 0.33545 0.38991 0.0
C1537 C 0.18841 0.3396 0.36612 0.0
C1538 C 0.19716 0.34379 0.41788 0.0
C1539 C 0.19409 0.34395 0.49544 0.0
C1540 C 0.18235 0.34011 0.51995 0.0
C1541 C 0.17384 0.33571 0.46633 0.0
H1542 H 0.91715 0.92368 0.44047 0.0
H1543 H 0.89368 0.9557 0.43258 0.0
H1544 H 0.89059 0.95448 0.57088 0.0
H1545 H 0.90058 0.90746 0.59502 0.0
H1546 H 0.9145 0.90191 0.63794 0.0
H1547 H 0.91387 0.90446 0.53719 0.0
H1548 H 0.93273 0.9188 0.54673 0.0
H1549 H 0.93335 0.91638 0.64748 0.0
H1550 H 0.93226 0.93173 0.61038 0.0
H1551 H 0.8911 0.95082 0.70972 0.0
H1552 H 0.89485 0.94474 0.84171 0.0
H1553 H 0.91858 0.91531 0.76391 0.0
C1554 C 0.91111 0.93019 0.46798 0.0
C1555 C 0.90552 0.93972 0.42599 0.0
C1556 C 0.89798 0.94832 0.46391 0.0
C1557 C 0.89617 0.94769 0.54233 0.0
C1558 C 0.90203 0.93842 0.58258 0.0
C1559 C 0.90932 0.92977 0.54699 0.0
C1560 C 0.91513 0.92124 0.6049 0.0
C1561 C 0.91076 0.90798 0.59305 0.0
C1562 C 0.9292 0.9221 0.60219 0.0
C1563 C 0.91009 0.92657 0.67825 0.0
C1564 C 0.9025 0.93642 0.66372 0.0
C1565 C 0.897 0.94309 0.72185 0.0
C1566 C 0.89929 0.93961 0.79694 0.0
C1567 C 0.90708 0.92957 0.81394 0.0
C1568 C 0.91248 0.92294 0.75325 0.0
H1569 H 0.30425 0.64935 0.76331 0.0
H1570 H 0.32363 0.68153 0.68079 0.0
H1571 H 0.32795 0.68763 0.81196 0.0
H1572 H 0.29033 0.66443 0.92778 0.0
H1573 H 0.29186 0.65111 0.98735 0.0
H1574 H 0.28993 0.6493 0.88661 0.0
H1575 H 0.30987 0.63643 0.88029 0.0
H1576 H 0.31184 0.63818 0.98091 0.0
H1577 H 0.32392 0.64276 0.91725 0.0
H1578 H 0.33124 0.68978 0.95176 0.0
H1579 H 0.33308 0.68782 0.09068 0.0
H1580 H 0.31074 0.655 0.08509 0.0
C1581 C 0.30927 0.65777 0.77216 0.0
C1582 C 0.31363 0.66487 0.71017 0.0
C1583 C 0.32031 0.67575 0.72601 0.0
C1584 C 0.32274 0.67938 0.80082 0.0
C1585 C 0.31835 0.67216 0.85999 0.0
C1586 C 0.31169 0.66162 0.84668 0.0
C1587 C 0.30826 0.65537 0.92076 0.0
C1588 C 0.29426 0.65504 0.93122 0.0
C1589 C 0.3138 0.64242 0.92503 0.0
C1590 C 0.31422 0.66395 0.97771 0.0
C1591 C 0.31996 0.67358 0.94119 0.0
C1592 C 0.32666 0.68236 0.98094 0.0
C1593 C 0.32767 0.68117 0.05976 0.0
C1594 C 0.32197 0.67134 0.09858 0.0
C1595 C 0.31497 0.66274 0.05697 0.0
H1596 H 0.59521 0.94948 0.033 0.0
H1597 H 0.58337 0.91365 0.11006 0.0
H1598 H 0.58018 0.9072 0.97761 0.0
H1599 H 0.57317 0.95198 0.88259 0.0
H1600 H 0.58336 0.9597 0.81793 0.0
H1601 H 0.58546 0.96137 0.91854 0.0
H1602 H 0.60788 0.95385 0.90533 0.0
H1603 H 0.60581 0.95211 0.80465 0.0
H1604 H 0.61093 0.93929 0.86074 0.0
H1605 H 0.57812 0.90454 0.8392 0.0
H1606 H 0.57555 0.90618 0.7015 0.0
H1607 H 0.58778 0.94402 0.70892 0.0
C1608 C 0.59206 0.94026 0.02161 0.0
C1609 C 0.58954 0.93204 0.08188 0.0
C1610 C 0.58524 0.92011 0.06498 0.0
C1611 C 0.5835 0.91634 0.98987 0.0
C1612 C 0.586 0.92463 0.93189 0.0
C1613 C 0.59008 0.93638 0.94652 0.0
C1614 C 0.5914 0.94363 0.87321 0.0
C1615 C 0.58283 0.95483 0.87308 0.0
C1616 C 0.6048 0.94744 0.86023 0.0
C1617 C 0.58735 0.93411 0.81533 0.0
C1618 C 0.58443 0.9232 0.85091 0.0
C1619 C 0.58031 0.91305 0.81074 0.0
C1620 C 0.57881 0.91411 0.73239 0.0
C1621 C 0.5813 0.92527 0.6942 0.0
C1622 C 0.58588 0.93535 0.73631 0.0
H1623 H 0.31326 0.35442 0.27713 0.0
H1624 H 0.30847 0.31685 0.35314 0.0
H1625 H 0.30828 0.30986 0.2208 0.0
H1626 H 0.29343 0.35181 0.10944 0.0
H1627 H 0.30308 0.36154 0.05242 0.0
H1628 H 0.30232 0.36379 0.15344 0.0
H1629 H 0.32592 0.36153 0.16245 0.0
H1630 H 0.32676 0.35932 0.06159 0.0
H1631 H 0.33318 0.348 0.12447 0.0
H1632 H 0.31004 0.30665 0.08157 0.0
H1633 H 0.31362 0.30752 0.94336 0.0
H1634 H 0.31618 0.34709 0.95458 0.0
C1635 C 0.31199 0.34475 0.26612 0.0
C1636 C 0.31098 0.3362 0.32631 0.0
C1637 C 0.3095 0.32359 0.30876 0.0
C1638 C 0.30926 0.31953 0.23347 0.0
C1639 C 0.31036 0.32816 0.17584 0.0
C1640 C 0.31165 0.34052 0.19105 0.0
C1641 C 0.31309 0.34781 0.11831 0.0
C1642 C 0.30234 0.35677 0.1078 0.0
C1643 C 0.32547 0.35456 0.11663 0.0
C1644 C 0.31267 0.33758 0.06001 0.0
C1645 C 0.31103 0.32633 0.09468 0.0
C1646 C 0.31113 0.31541 0.05369 0.0
C1647 C 0.31316 0.31598 0.97545 0.0
C1648 C 0.31496 0.32736 0.93875 0.0
C1649 C 0.3145 0.33832 0.98135 0.0
H1650 H 0.91914 0.07431 0.62794 0.0
H1651 H 0.90459 0.0383 0.6782 0.0
H1652 H 0.90027 0.03511 0.54097 0.0
H1653 H 0.89765 0.08214 0.48144 0.0
H1654 H 0.90901 0.09027 0.4269 0.0
H1655 H 0.91039 0.08944 0.5283 0.0
H1656 H 0.93222 0.08026 0.51371 0.0
H1657 H 0.93086 0.08094 0.41227 0.0
H1658 H 0.93435 0.06657 0.45786 0.0
H1659 H 0.89878 0.03595 0.39334 0.0
H1660 H 0.89844 0.04149 0.25647 0.0
H1661 H 0.91415 0.07687 0.31082 0.0
C1662 C 0.91504 0.06574 0.61016 0.0
C1663 C 0.9123 0.05648 0.66314 0.0
C1664 C 0.90671 0.04549 0.6381 0.0
C1665 C 0.90432 0.0436 0.56043 0.0
C1666 C 0.90748 0.05287 0.50926 0.0
C1667 C 0.91258 0.06377 0.53382 0.0
C1668 C 0.91517 0.07241 0.46917 0.0
C1669 C 0.9076 0.08426 0.47693 0.0
C1670 C 0.92897 0.0752 0.46291 0.0
C1671 C 0.9108 0.0647 0.40369 0.0
C1672 C 0.90644 0.05342 0.42705 0.0
C1673 C 0.90211 0.0448 0.37485 0.0
C1674 C 0.90201 0.04796 0.29737 0.0
C1675 C 0.90612 0.05965 0.27348 0.0
C1676 C 0.91072 0.06796 0.32757 0.0
H1677 H 0.18522 0.64895 0.46548 0.0
H1678 H 0.18293 0.68854 0.4533 0.0
H1679 H 0.18648 0.68997 0.59123 0.0
H1680 H 0.16877 0.64617 0.63788 0.0
H1681 H 0.17774 0.63364 0.6747 0.0
H1682 H 0.17631 0.6357 0.57397 0.0
H1683 H 0.19996 0.63637 0.56098 0.0
H1684 H 0.20146 0.63426 0.66174 0.0
H1685 H 0.20861 0.64723 0.61644 0.0
H1686 H 0.18933 0.68714 0.73058 0.0
H1687 H 0.19091 0.68031 0.86282 0.0
H1688 H 0.19019 0.64237 0.78742 0.0
C1689 C 0.18574 0.65788 0.492 0.0
C1690 C 0.18392 0.66866 0.44902 0.0
C1691 C 0.18433 0.68021 0.48553 0.0
C1692 C 0.18637 0.6811 0.56367 0.0
C1693 C 0.18788 0.67033 0.60492 0.0
C1694 C 0.18758 0.65893 0.57058 0.0
C1695 C 0.18866 0.64879 0.62915 0.0
C1696 C 0.17719 0.64059 0.62889 0.0
C1697 C 0.20037 0.64122 0.6163 0.0
C1698 C 0.18949 0.65629 0.70152 0.0
C1699 C 0.18915 0.66869 0.68604 0.0
C1700 C 0.1896 0.67744 0.74345 0.0
C1701 C 0.19039 0.67344 0.81879 0.0
C1702 C 0.19059 0.66076 0.83671 0.0
C1703 C 0.19019 0.65212 0.77656 0.0
H1704 H 0.42141 0.92658 0.05168 0.0
H1705 H 0.38801 0.9478 0.06711 0.0
H1706 H 0.38491 0.94567 0.9286 0.0
H1707 H 0.43185 0.93992 0.88296 0.0
H1708 H 0.43847 0.92616 0.84377 0.0
H1709 H 0.43723 0.92793 0.94481 0.0
H1710 H 0.42504 0.9076 0.95364 0.0
H1711 H 0.42635 0.9057 0.85257 0.0
H1712 H 0.41145 0.90559 0.89691 0.0
H1713 H 0.38637 0.94262 0.78732 0.0
H1714 H 0.39196 0.93861 0.6544 0.0
H1715 H 0.42501 0.92001 0.72942 0.0
C1716 C 0.41325 0.93038 0.02579 0.0
C1717 C 0.40472 0.93705 0.0697 0.0
C1718 C 0.39443 0.94241 0.03412 0.0
C1719 C 0.39265 0.94128 0.95567 0.0
C1720 C 0.40134 0.93485 0.91336 0.0
C1721 C 0.41142 0.92943 0.94716 0.0
C1722 C 0.41984 0.92381 0.888 0.0
C1723 C 0.4326 0.92982 0.89003 0.0
C1724 C 0.42072 0.90985 0.89841 0.0
C1725 C 0.41301 0.92706 0.81579 0.0
C1726 C 0.40233 0.93336 0.83173 0.0
C1727 C 0.39469 0.93763 0.77424 0.0
C1728 C 0.39801 0.93539 0.69857 0.0
C1729 C 0.40895 0.92897 0.68041 0.0
C1730 C 0.41649 0.92476 0.74052 0.0
H1731 H 0.80703 0.67556 0.82623 0.0
H1732 H 0.81555 0.63782 0.8802 0.0
H1733 H 0.81941 0.63356 0.74385 0.0
H1734 H 0.79194 0.67054 0.65002 0.0
H1735 H 0.79843 0.68383 0.60445 0.0
H1736 H 0.79624 0.68374 0.70552 0.0
H1737 H 0.81926 0.68865 0.72558 0.0
H1738 H 0.82149 0.68888 0.62456 0.0
H1739 H 0.8307 0.67892 0.68277 0.0
H1740 H 0.82089 0.63338 0.59848 0.0
H1741 H 0.82294 0.63798 0.46103 0.0
H1742 H 0.81522 0.67621 0.50564 0.0
C1743 C 0.80976 0.66642 0.80907 0.0
C1744 C 0.81094 0.65697 0.86314 0.0
C1745 C 0.81466 0.64515 0.83929 0.0
C1746 C 0.81678 0.64267 0.76209 0.0
C1747 C 0.81536 0.65218 0.70983 0.0
C1748 C 0.81219 0.66389 0.73274 0.0
C1749 C 0.81177 0.67266 0.66629 0.0
C1750 C 0.79882 0.678 0.65599 0.0
C1751 C 0.82138 0.68288 0.67535 0.0
C1752 C 0.81507 0.66406 0.60205 0.0
C1753 C 0.81691 0.65223 0.62787 0.0
C1754 C 0.8196 0.64264 0.57798 0.0
C1755 C 0.82067 0.64528 0.50018 0.0
C1756 C 0.81929 0.65742 0.47347 0.0
C1757 C 0.81639 0.66687 0.52512 0.0
H1758 H 0.07316 0.07328 0.62192 0.0
H1759 H 0.10631 0.05176 0.63991 0.0
H1760 H 0.10981 0.05392 0.50171 0.0
H1761 H 0.06311 0.06016 0.45073 0.0
H1762 H 0.05672 0.07404 0.41195 0.0
H1763 H 0.05761 0.07207 0.51296 0.0
H1764 H 0.0699 0.0923 0.52491 0.0
H1765 H 0.06896 0.09439 0.42388 0.0
H1766 H 0.0837 0.09431 0.47001 0.0
H1767 H 0.1088 0.05719 0.36008 0.0
H1768 H 0.10368 0.06156 0.22673 0.0
H1769 H 0.07066 0.08042 0.29985 0.0
C1770 C 0.08133 0.0694 0.59665 0.0
C1771 C 0.08968 0.06264 0.6412 0.0
C1772 C 0.10002 0.05719 0.60643 0.0
C1773 C 0.10202 0.05834 0.52815 0.0
C1774 C 0.09351 0.06489 0.48521 0.0
C1775 C 0.08339 0.07037 0.51824 0.0
C1776 C 0.07522 0.07617 0.45858 0.0
C1777 C 0.06241 0.07025 0.45858 0.0
C1778 C 0.0744 0.09012 0.47004 0.0
C1779 C 0.08226 0.073 0.38696 0.0
C1780 C 0.09281 0.06654 0.40356 0.0
C1781 C 0.10059 0.0623 0.34653 0.0
C1782 C 0.09754 0.06476 0.27067 0.0
C1783 C 0.08676 0.07137 0.25196 0.0
C1784 C 0.07907 0.07553 0.31155 0.0
H1785 H 0.6832 0.34683 0.97845 0.0
H1786 H 0.68698 0.30739 0.96518 0.0
H1787 H 0.69045 0.30642 0.10351 0.0
H1788 H 0.70561 0.35203 0.13417 0.0
H1789 H 0.69628 0.36372 0.17775 0.0
H1790 H 0.69575 0.36148 0.07669 0.0
H1791 H 0.6722 0.35855 0.0842 0.0
H1792 H 0.67267 0.36068 0.1852 0.0
H1793 H 0.66597 0.34697 0.14602 0.0
H1794 H 0.69196 0.30954 0.24348 0.0
H1795 H 0.69143 0.31644 0.37608 0.0
H1796 H 0.68545 0.35387 0.3003 0.0
C1797 C 0.68514 0.33809 1.0048 0.0
C1798 C 0.68504 0.32719 0.96167 0.0
C1799 C 0.68716 0.31581 0.99775 0.0
C1800 C 0.68914 0.31519 0.07603 0.0
C1801 C 0.68886 0.32605 0.11759 0.0
C1802 C 0.68694 0.3373 0.08339 0.0
C1803 C 0.68607 0.34743 0.14209 0.0
C1804 C 0.69655 0.35671 0.13207 0.0
C1805 C 0.67348 0.35378 0.13918 0.0
C1806 C 0.6876 0.34008 0.21442 0.0
C1807 C 0.68933 0.32779 0.19889 0.0
C1808 C 0.69065 0.31916 0.25638 0.0
C1809 C 0.69022 0.32317 0.33182 0.0
C1810 C 0.68834 0.33572 0.34956 0.0
C1811 C 0.68706 0.34424 0.28944 0.0
H1812 H 0.42384 0.06029 0.26774 0.0
H1813 H 0.38535 0.06984 0.27487 0.0
H1814 H 0.38388 0.06696 0.13626 0.0
H1815 H 0.43047 0.07651 0.10251 0.0
H1816 H 0.44129 0.06566 0.06411 0.0
H1817 H 0.439 0.06659 0.16486 0.0
H1818 H 0.43379 0.04344 0.16936 0.0
H1819 H 0.43618 0.0424 0.06855 0.0
H1820 H 0.42184 0.03746 0.10922 0.0
H1821 H 0.38702 0.06517 0.99596 0.0
H1822 H 0.39449 0.06466 0.86445 0.0
H1823 H 0.43113 0.0563 0.94595 0.0
C1824 C 0.41505 0.06134 0.24009 0.0
C1825 C 0.40463 0.06506 0.28189 0.0
C1826 C 0.39336 0.06683 0.2437 0.0
C1827 C 0.39246 0.06522 0.16509 0.0
C1828 C 0.40294 0.06189 0.12493 0.0
C1829 C 0.41403 0.0599 0.16102 0.0
C1830 C 0.42411 0.05742 0.10354 0.0
C1831 C 0.43432 0.06712 0.10911 0.0
C1832 C 0.42928 0.04441 0.11325 0.0
C1833 C 0.41702 0.05862 0.02981 0.0
C1834 C 0.4048 0.06105 0.04352 0.0
C1835 C 0.39655 0.06309 0.98452 0.0
C1836 C 0.40089 0.06272 0.9096 0.0
C1837 C 0.41344 0.06041 0.89368 0.0
C1838 C 0.42151 0.05817 0.95528 0.0
H1839 H 0.6865 0.65169 0.0438 0.0
H1840 H 0.66805 0.68684 0.05265 0.0
H1841 H 0.67005 0.68888 0.91387 0.0
H1842 H 0.70784 0.65915 0.88764 0.0
H1843 H 0.7066 0.64414 0.84554 0.0
H1844 H 0.70478 0.64598 0.94634 0.0
H1845 H 0.68355 0.6354 0.93898 0.0
H1846 H 0.68527 0.6336 0.8382 0.0
H1847 H 0.67204 0.64142 0.8759 0.0
H1848 H 0.67305 0.68666 0.77361 0.0
H1849 H 0.6769 0.68043 0.64176 0.0
H1850 H 0.69257 0.64617 0.72195 0.0
C1851 C 0.68316 0.65992 1.01641 0.0
C1852 C 0.6772 0.66917 0.05886 0.0
C1853 C 0.67264 0.67967 0.02103 0.0
C1854 C 0.67375 0.68091 0.9423 0.0
C1855 C 0.6794 0.67152 0.9017 0.0
C1856 C 0.68405 0.66122 0.9373 0.0
C1857 C 0.68903 0.65217 0.87955 0.0
C1858 C 0.70288 0.65025 0.89043 0.0
C1859 C 0.68205 0.63992 0.88341 0.0
C1860 C 0.68633 0.65894 0.80621 0.0
C1861 C 0.68086 0.67012 0.82039 0.0
C1862 C 0.67735 0.67792 0.76181 0.0
C1863 C 0.67949 0.67423 0.68672 0.0
C1864 C 0.68503 0.66276 0.67022 0.0
C1865 C 0.68847 0.65506 0.73153 0.0
H1866 H 0.06957 0.93425 0.43724 0.0
H1867 H 0.10819 0.92919 0.39155 0.0
H1868 H 0.11196 0.9256 0.52879 0.0
H1869 H 0.07221 0.94993 0.61086 0.0
H1870 H 0.0593 0.9425 0.6551 0.0
H1871 H 0.05973 0.94426 0.5538 0.0
H1872 H 0.05698 0.92081 0.53655 0.0
H1873 H 0.05636 0.919 0.63783 0.0
H1874 H 0.06741 0.91045 0.58318 0.0
H1875 H 0.11142 0.92455 0.67437 0.0
H1876 H 0.10625 0.92301 0.8113 0.0
H1877 H 0.06778 0.92722 0.75773 0.0
C1878 C 0.07877 0.9322 0.45638 0.0
C1879 C 0.08862 0.93195 0.40465 0.0
C1880 C 0.10057 0.92927 0.43084 0.0
C1881 C 0.10276 0.92732 0.50848 0.0
C1882 C 0.09285 0.92788 0.55857 0.0
C1883 C 0.08104 0.92998 0.53308 0.0
C1884 C 0.07191 0.92992 0.59761 0.0
C1885 C 0.06541 0.94239 0.60473 0.0
C1886 C 0.06262 0.91942 0.58823 0.0
C1887 C 0.0804 0.92765 0.66382 0.0
C1888 C 0.09247 0.92666 0.64063 0.0
C1889 C 0.10198 0.92514 0.69283 0.0
C1890 C 0.099 0.92436 0.77031 0.0
C1891 C 0.08664 0.9249 0.7944 0.0
C1892 C 0.07728 0.92663 0.74036 0.0
H1893 H 0.81709 0.34776 0.5525 0.0
H1894 H 0.81952 0.30818 0.56344 0.0
H1895 H 0.81591 0.30684 0.42555 0.0
H1896 H 0.79364 0.3495 0.40089 0.0
H1897 H 0.80076 0.36253 0.35614 0.0
H1898 H 0.80219 0.36036 0.4569 0.0
H1899 H 0.82585 0.36116 0.44459 0.0
H1900 H 0.82449 0.36327 0.34386 0.0
H1901 H 0.83349 0.35075 0.38069 0.0
H1902 H 0.81322 0.30974 0.28663 0.0
H1903 H 0.81188 0.31661 0.1544 0.0
H1904 H 0.81223 0.35454 0.22998 0.0
C1905 C 0.81655 0.33885 0.52573 0.0
C1906 C 0.81844 0.32804 0.56832 0.0
C1907 C 0.81804 0.31652 0.5315 0.0
C1908 C 0.81598 0.31568 0.45339 0.0
C1909 C 0.81442 0.32649 0.41249 0.0
C1910 C 0.81468 0.33786 0.44713 0.0
C1911 C 0.8136 0.34804 0.38874 0.0
C1912 C 0.80185 0.35555 0.40144 0.0
C1913 C 0.82504 0.35629 0.38954 0.0
C1914 C 0.81286 0.34059 0.31612 0.0
C1915 C 0.81323 0.32818 0.33142 0.0
C1916 C 0.81292 0.31944 0.2739 0.0
C1917 C 0.81227 0.32347 0.19862 0.0
C1918 C 0.81205 0.33615 0.18086 0.0
C1919 C 0.81226 0.34479 0.24102 0.0
H1920 H 0.14228 0.64299 0.14692 0.0
H1921 H 0.17524 0.62072 0.14931 0.0
H1922 H 0.1624 0.6019 0.15072 0.0
H1923 H 0.1245 0.62393 0.27247 0.0
H1924 H 0.11039 0.62676 0.22235 0.0
H1925 H 0.1223 0.63819 0.22272 0.0
H1926 H 0.12234 0.63829 0.07589 0.0
H1927 H 0.11047 0.62683 0.07507 0.0
H1928 H 0.12466 0.62411 0.02535 0.0
H1929 H 0.14531 0.58538 0.14604 0.0
H1930 H 0.12606 0.57321 0.14249 0.0
H1931 H 0.10497 0.60694 0.14679 0.0
C1932 C 0.14685 0.63417 0.14794 0.0
C1933 C 0.15977 0.63332 0.14772 0.0
C1934 C 0.16534 0.62158 0.14964 0.0
C1935 C 0.15812 0.61086 0.15024 0.0
C1936 C 0.14536 0.61206 0.14965 0.0
C1937 C 0.13983 0.62347 0.14921 0.0
C1938 C 0.12601 0.62245 0.14889 0.0
C1939 C 0.12048 0.62817 0.2209 0.0
C1940 C 0.12056 0.62826 0.07702 0.0
C1941 C 0.12454 0.60868 0.14849 0.0
C1942 C 0.13575 0.60276 0.14867 0.0
C1943 C 0.13651 0.58997 0.14644 0.0
C1944 C 0.12554 0.58312 0.14427 0.0
C1945 C 0.114 0.5891 0.14481 0.0
C1946 C 0.11361 0.60204 0.147 0.0
H1947 H 0.60246 0.89078 0.41856 0.0
H1948 H 0.62427 0.92397 0.40572 0.0
H1949 H 0.64326 0.91142 0.41202 0.0
H1950 H 0.62211 0.87444 0.54962 0.0
H1951 H 0.61931 0.85986 0.50466 0.0
H1952 H 0.60773 0.87163 0.50241 0.0
H1953 H 0.60718 0.87032 0.35583 0.0
H1954 H 0.61878 0.8586 0.3576 0.0
H1955 H 0.62117 0.87234 0.30289 0.0
H1956 H 0.66001 0.89448 0.4122 0.0
H1957 H 0.67238 0.87533 0.41132 0.0
H1958 H 0.63891 0.85398 0.42656 0.0
C1959 C 0.61121 0.89547 0.41757 0.0
C1960 C 0.61188 0.90836 0.41146 0.0
C1961 C 0.62354 0.9141 0.41068 0.0
C1962 C 0.63437 0.90703 0.41405 0.0
C1963 C 0.63334 0.89428 0.41895 0.0
C1964 C 0.62201 0.88862 0.42139 0.0
C1965 C 0.62319 0.87483 0.42558 0.0
C1966 C 0.61777 0.86991 0.5 0.0
C1967 C 0.61723 0.86867 0.35635 0.0
C1968 C 0.63697 0.87352 0.42403 0.0
C1969 C 0.64276 0.88478 0.42024 0.0
C1970 C 0.65553 0.88564 0.41583 0.0
C1971 C 0.66249 0.87473 0.41528 0.0
C1972 C 0.65664 0.86314 0.41924 0.0
C1973 C 0.64372 0.86265 0.42402 0.0
H1974 H 0.35795 0.35471 0.6755 0.0
H1975 H 0.32461 0.3756 0.64025 0.0
H1976 H 0.33678 0.39487 0.64105 0.0
H1977 H 0.37296 0.37665 0.80081 0.0
H1978 H 0.3879 0.37343 0.76187 0.0
H1979 H 0.37633 0.36165 0.76314 0.0
H1980 H 0.37879 0.35883 0.61811 0.0
H1981 H 0.3903 0.37064 0.61631 0.0
H1982 H 0.37696 0.3719 0.55663 0.0
H1983 H 0.35344 0.41182 0.63571 0.0
H1984 H 0.37239 0.42444 0.63117 0.0
H1985 H 0.3941 0.39181 0.67309 0.0
C1986 C 0.35314 0.36333 0.66874 0.0
C1987 C 0.34033 0.36366 0.6577 0.0
C1988 C 0.33442 0.37515 0.64926 0.0
C1989 C 0.34127 0.38612 0.64942 0.0
C1990 C 0.35397 0.38542 0.659 0.0
C1991 C 0.35978 0.37428 0.66939 0.0
C1992 C 0.3735 0.37578 0.67673 0.0
C1993 C 0.37793 0.37163 0.75532 0.0
C1994 C 0.38028 0.36888 0.61315 0.0
C1995 C 0.37462 0.38949 0.66746 0.0
C1996 C 0.36331 0.39499 0.65735 0.0
C1997 C 0.3623 0.40759 0.64446 0.0
C1998 C 0.3731 0.41469 0.64184 0.0
C1999 C 0.38474 0.40915 0.65219 0.0
C2000 C 0.38538 0.3964 0.66563 0.0
H2001 H 0.89368 0.10478 0.89045 0.0
H2002 H 0.8718 0.07212 0.92771 0.0
H2003 H 0.85291 0.08481 0.92496 0.0
H2004 H 0.87671 0.12411 1.01045 0.0
H2005 H 0.8785 0.1375 0.95172 0.0
H2006 H 0.88998 0.12566 0.95034 0.0
H2007 H 0.88751 0.1235 0.80492 0.0
H2008 H 0.87606 0.1354 0.80577 0.0
H2009 H 0.87253 0.12062 0.76562 0.0
H2010 H 0.83625 0.10183 0.92135 0.0
H2011 H 0.82405 0.12112 0.92103 0.0
H2012 H 0.85757 0.14198 0.89173 0.0
C2013 C 0.88493 0.10021 0.89695 0.0
C2014 C 0.88424 0.08742 0.90871 0.0
C2015 C 0.87257 0.0819 0.91813 0.0
C2016 C 0.86179 0.08904 0.91668 0.0
C2017 C 0.86285 0.10169 0.90608 0.0
C2018 C 0.87417 0.10717 0.89644 0.0
C2019 C 0.87307 0.12094 0.8898 0.0
C2020 C 0.87997 0.12743 0.95443 0.0
C2021 C 0.87756 0.12537 0.81189 0.0
C2022 C 0.85936 0.12244 0.89784 0.0
C2023 C 0.85352 0.11129 0.90641 0.0
C2024 C 0.84078 0.11059 0.91468 0.0
C2025 C 0.83392 0.12157 0.91443 0.0
C2026 C 0.83985 0.13306 0.907 0.0
C2027 C 0.85273 0.13338 0.89834 0.0
H2028 H 0.14084 0.35345 0.8923 0.0
H2029 H 0.17447 0.37463 0.88345 0.0
H2030 H 0.16221 0.39386 0.88996 0.0
H2031 H 0.12346 0.37297 0.77293 0.0
H2032 H 0.10937 0.37055 0.82423 0.0
H2033 H 0.12093 0.35876 0.82264 0.0
H2034 H 0.12141 0.35856 0.96947 0.0
H2035 H 0.10979 0.37028 0.97153 0.0
H2036 H 0.12413 0.37267 0.02004 0.0
H2037 H 0.14544 0.41094 0.89913 0.0
H2038 H 0.12646 0.42354 0.90673 0.0
H2039 H 0.10466 0.39029 0.9015 0.0
C2040 C 0.14572 0.3621 0.89252 0.0
C2041 C 0.15864 0.36252 0.88817 0.0
C2042 C 0.16457 0.37408 0.88729 0.0
C2043 C 0.15767 0.38504 0.89083 0.0
C2044 C 0.14488 0.38423 0.89433 0.0
C2045 C 0.13904 0.37299 0.89483 0.0
C2046 C 0.12526 0.37435 0.8964 0.0
C2047 C 0.11942 0.36883 0.82479 0.0
C2048 C 0.11983 0.36863 0.96866 0.0
C2049 C 0.12415 0.38814 0.89724 0.0
C2050 C 0.1355 0.39378 0.89648 0.0
C2051 C 0.13654 0.40656 0.89923 0.0
C2052 C 0.12572 0.41365 0.90341 0.0
C2053 C 0.11405 0.40793 0.90402 0.0
C2054 C 0.11338 0.39502 0.90024 0.0
H2055 H 0.89185 0.89078 0.17242 0.0
H2056 H 0.87006 0.92376 0.14467 0.0
H2057 H 0.85108 0.9112 0.14998 0.0
H2058 H 0.87363 0.87165 0.05539 0.0
H2059 H 0.87586 0.85823 0.11329 0.0
H2060 H 0.88743 0.86998 0.11052 0.0
H2061 H 0.88634 0.87206 0.25666 0.0
H2062 H 0.87477 0.8603 0.25991 0.0
H2063 H 0.87179 0.87511 0.30136 0.0
H2064 H 0.83432 0.89434 0.15882 0.0
H2065 H 0.82195 0.87521 0.16485 0.0
H2066 H 0.85546 0.85396 0.18211 0.0
C2067 C 0.88311 0.89544 0.16801 0.0
C2068 C 0.88245 0.90828 0.15863 0.0
C2069 C 0.87079 0.91394 0.15214 0.0
C2070 C 0.85997 0.90687 0.15518 0.0
C2071 C 0.86099 0.89418 0.16424 0.0
C2072 C 0.87232 0.88857 0.17022 0.0
C2073 C 0.87116 0.87482 0.17718 0.0
C2074 C 0.87739 0.86829 0.11009 0.0
C2075 C 0.87632 0.87032 0.25331 0.0
C2076 C 0.85739 0.87347 0.17408 0.0
C2077 C 0.85159 0.88468 0.16721 0.0
C2078 C 0.83881 0.88553 0.164 0.0
C2079 C 0.83186 0.87463 0.16755 0.0
C2080 C 0.83773 0.86308 0.17344 0.0
C2081 C 0.85066 0.86261 0.17693 0.0
H2082 H 0.35865 0.6428 0.42777 0.0
H2083 H 0.32523 0.62171 0.40085 0.0
H2084 H 0.33758 0.60256 0.3947 0.0
H2085 H 0.37694 0.62505 0.29828 0.0
H2086 H 0.3907 0.62675 0.35385 0.0
H2087 H 0.37909 0.63849 0.35622 0.0
H2088 H 0.37784 0.63656 0.50236 0.0
H2089 H 0.38941 0.6248 0.50044 0.0
H2090 H 0.37479 0.6218 0.54422 0.0
H2091 H 0.3542 0.5855 0.39803 0.0
H2092 H 0.3731 0.57276 0.40177 0.0
H2093 H 0.39503 0.60581 0.42005 0.0
C2094 C 0.35388 0.63417 0.4207 0.0
C2095 C 0.34097 0.63373 0.41548 0.0
C2096 C 0.33513 0.62225 0.40509 0.0
C2097 C 0.34207 0.61134 0.4017 0.0
C2098 C 0.35483 0.61213 0.40771 0.0
C2099 C 0.36063 0.62332 0.41614 0.0
C2100 C 0.3744 0.62191 0.41999 0.0
C2101 C 0.38065 0.62843 0.3531 0.0
C2102 C 0.3794 0.62654 0.49629 0.0
C2103 C 0.37553 0.60815 0.41332 0.0
C2104 C 0.3642 0.60258 0.40672 0.0
C2105 C 0.36311 0.58982 0.40245 0.0
C2106 C 0.37387 0.58265 0.40477 0.0
C2107 C 0.38555 0.58829 0.41048 0.0
C2108 C 0.38628 0.60119 0.41461 0.0
H2109 H 0.60472 0.10801 0.67264 0.0
H2110 H 0.625 0.07438 0.6329 0.0
H2111 H 0.64443 0.08625 0.63268 0.0
H2112 H 0.62182 0.12628 0.54893 0.0
H2113 H 0.62087 0.13988 0.60675 0.0
H2114 H 0.60893 0.12853 0.61141 0.0
H2115 H 0.61205 0.1266 0.75644 0.0
H2116 H 0.62396 0.13802 0.75237 0.0
H2117 H 0.62709 0.1232 0.79312 0.0
H2118 H 0.66177 0.10257 0.63208 0.0
H2119 H 0.67471 0.12134 0.62767 0.0
H2120 H 0.64224 0.14366 0.66167 0.0
C2121 C 0.61323 0.10303 0.66519 0.0
C2122 C 0.61332 0.09022 0.65345 0.0
C2123 C 0.6247 0.08418 0.64262 0.0
C2124 C 0.63578 0.09086 0.64234 0.0
C2125 C 0.6353 0.10356 0.65265 0.0
C2126 C 0.62426 0.10953 0.66388 0.0
C2127 C 0.62594 0.12326 0.66909 0.0
C2128 C 0.61898 0.12987 0.60524 0.0
C2129 C 0.62203 0.12805 0.74742 0.0
C2130 C 0.63965 0.12418 0.65833 0.0
C2131 C 0.64499 0.11277 0.64975 0.0
C2132 C 0.65763 0.11153 0.63882 0.0
C2133 C 0.66491 0.12222 0.63638 0.0
C2134 C 0.65948 0.13396 0.64372 0.0
C2135 C 0.6467 0.13484 0.65514 0.0
H2136 H 0.8596 0.35468 0.8399 0.0
H2137 H 0.82678 0.3763 0.87731 0.0
H2138 H 0.83936 0.3953 0.87579 0.0
H2139 H 0.87915 0.37134 0.9572 0.0
H2140 H 0.89238 0.36982 0.89665 0.0
H2141 H 0.88059 0.3583 0.89498 0.0
H2142 H 0.87803 0.36134 0.75024 0.0
H2143 H 0.88985 0.37288 0.75144 0.0
H2144 H 0.87493 0.37644 0.71353 0.0
H2145 H 0.85636 0.4118 0.88214 0.0
H2146 H 0.87558 0.42391 0.89029 0.0
H2147 H 0.89661 0.39097 0.84365 0.0
C2148 C 0.855 0.36342 0.84697 0.0
C2149 C 0.84222 0.36403 0.85895 0.0
C2150 C 0.83656 0.37564 0.86765 0.0
C2151 C 0.84365 0.38646 0.86699 0.0
C2152 C 0.85632 0.38548 0.85636 0.0
C2153 C 0.86187 0.37421 0.84556 0.0
C2154 C 0.87561 0.37542 0.83751 0.0
C2155 C 0.88232 0.3683 0.90033 0.0
C2156 C 0.87985 0.37128 0.75847 0.0
C2157 C 0.87705 0.38911 0.84738 0.0
C2158 C 0.86586 0.39483 0.85801 0.0
C2159 C 0.86513 0.4074 0.87273 0.0
C2160 C 0.87609 0.41421 0.87731 0.0
C2161 C 0.88761 0.40843 0.86705 0.0
C2162 C 0.88798 0.39575 0.85083 0.0
H2163 H 0.39503 0.10502 0.69414 0.0
H2164 H 0.37383 0.07294 0.63132 0.0
H2165 H 0.3547 0.08514 0.64338 0.0
H2166 H 0.37309 0.11832 0.82836 0.0
H2167 H 0.37658 0.13373 0.79841 0.0
H2168 H 0.3882 0.12201 0.79369 0.0
H2169 H 0.39133 0.12657 0.65091 0.0
H2170 H 0.37972 0.13825 0.65509 0.0
H2171 H 0.37835 0.12588 0.58786 0.0
H2172 H 0.33784 0.10183 0.65444 0.0
H2173 H 0.32556 0.12104 0.65752 0.0
H2174 H 0.35853 0.14167 0.7081 0.0
C2175 C 0.38638 0.10042 0.68425 0.0
C2176 C 0.38595 0.08797 0.66226 0.0
C2177 C 0.37439 0.08244 0.6488 0.0
C2178 C 0.36348 0.08931 0.65557 0.0
C2179 C 0.36429 0.10168 0.67589 0.0
C2180 C 0.37551 0.10712 0.69006 0.0
C2181 C 0.3742 0.1207 0.7052 0.0
C2182 C 0.37826 0.12387 0.78624 0.0
C2183 C 0.38132 0.12829 0.64624 0.0
C2184 C 0.36051 0.12219 0.69585 0.0
C2185 C 0.35485 0.11114 0.68013 0.0
C2186 C 0.34221 0.11049 0.66725 0.0
C2187 C 0.3353 0.12143 0.6693 0.0
C2188 C 0.3411 0.13284 0.6829 0.0
C2189 C 0.35382 0.1331 0.69739 0.0
H2190 H 0.60252 0.6054 0.37056 0.0
H2191 H 0.62399 0.57193 0.37625 0.0
H2192 H 0.64309 0.58427 0.36854 0.0
H2193 H 0.62202 0.62282 0.24326 0.0
H2194 H 0.61954 0.63694 0.29416 0.0
H2195 H 0.60781 0.62532 0.29313 0.0
H2196 H 0.60765 0.62512 0.43994 0.0
H2197 H 0.61941 0.63669 0.44145 0.0
H2198 H 0.62176 0.62238 0.49036 0.0
H2199 H 0.66001 0.60093 0.36326 0.0
H2200 H 0.67266 0.61987 0.36839 0.0
H2201 H 0.63948 0.64178 0.37345 0.0
C2202 C 0.61121 0.60059 0.36889 0.0
C2203 C 0.61175 0.58768 0.37316 0.0
C2204 C 0.62335 0.58182 0.3725 0.0
C2205 C 0.63424 0.58876 0.36806 0.0
C2206 C 0.63334 0.60153 0.36491 0.0
C2207 C 0.62207 0.60735 0.36562 0.0
C2208 C 0.62342 0.62113 0.36674 0.0
C2209 C 0.61787 0.62689 0.29505 0.0
C2210 C 0.61773 0.62665 0.43892 0.0
C2211 C 0.63722 0.62226 0.36719 0.0
C2212 C 0.64286 0.61091 0.36508 0.0
C2213 C 0.65564 0.60983 0.36499 0.0
C2214 C 0.66276 0.62062 0.3678 0.0
C2215 C 0.65705 0.63228 0.37195 0.0
C2216 C 0.64413 0.63301 0.37109 0.0
H2217 H 0.14079 0.85253 0.09567 0.0
H2218 H 0.17362 0.87436 0.12818 0.0
H2219 H 0.16089 0.89328 0.1277 0.0
H2220 H 0.12499 0.87325 0.97156 0.0
H2221 H 0.1102 0.86988 1.01211 0.0
H2222 H 0.12206 0.8584 1.01255 0.0
H2223 H 0.11998 0.85636 0.15829 0.0
H2224 H 0.10812 0.86784 0.15832 0.0
H2225 H 0.12151 0.86983 0.21685 0.0
H2226 H 0.1438 0.90997 0.12383 0.0
H2227 H 0.12453 0.92217 0.12165 0.0
H2228 H 0.10366 0.88859 0.09512 0.0
C2229 C 0.14539 0.86127 0.10222 0.0
C2230 C 0.15823 0.86195 0.11159 0.0
C2231 C 0.16379 0.87361 0.12071 0.0
C2232 C 0.15663 0.88439 0.12042 0.0
C2233 C 0.14394 0.88333 0.11126 0.0
C2234 C 0.13843 0.872 0.10256 0.0
C2235 C 0.12467 0.87309 0.09579 0.0
C2236 C 0.12023 0.86838 0.0184 0.0
C2237 C 0.11819 0.86639 0.16122 0.0
C2238 C 0.12319 0.88681 0.1023 0.0
C2239 C 0.13434 0.89267 0.11066 0.0
C2240 C 0.13505 0.90543 0.11741 0.0
C2241 C 0.12407 0.91229 0.11602 0.0
C2242 C 0.11258 0.90634 0.10866 0.0
C2243 C 0.11226 0.89345 0.10141 0.0
H2244 H 0.89339 0.6058 0.15461 0.0
H2245 H 0.87209 0.57238 0.1342 0.0
H2246 H 0.85294 0.58474 0.13419 0.0
H2247 H 0.87301 0.62196 0.27801 0.0
H2248 H 0.87585 0.63656 0.23354 0.0
H2249 H 0.88757 0.62494 0.23323 0.0
H2250 H 0.88879 0.62617 0.08678 0.0
H2251 H 0.87706 0.63778 0.08661 0.0
H2252 H 0.87506 0.62401 0.03152 0.0
H2253 H 0.83595 0.60145 0.13804 0.0
H2254 H 0.82332 0.62043 0.14105 0.0
H2255 H 0.85653 0.64219 0.15511 0.0
C2256 C 0.88472 0.601 0.15047 0.0
C2257 C 0.88424 0.5881 0.1448 0.0
C2258 C 0.87267 0.58226 0.13874 0.0
C2259 C 0.86176 0.58921 0.13877 0.0
C2260 C 0.86261 0.60197 0.14441 0.0
C2261 C 0.87386 0.60776 0.14983 0.0
C2262 C 0.87251 0.62152 0.15382 0.0
C2263 C 0.87753 0.62654 0.22913 0.0
C2264 C 0.87872 0.62773 0.08561 0.0
C2265 C 0.85873 0.62268 0.14991 0.0
C2266 C 0.85309 0.61136 0.1449 0.0
C2267 C 0.84032 0.61034 0.14168 0.0
C2268 C 0.83321 0.62115 0.14348 0.0
C2269 C 0.83892 0.6328 0.14786 0.0
C2270 C 0.85184 0.63346 0.1511 0.0
H2271 H 0.14286 0.1421 0.93787 0.0
H2272 H 0.17354 0.12013 0.85999 0.0
H2273 H 0.16091 0.10132 0.87527 0.0
H2274 H 0.13041 0.1202 0.07519 0.0
H2275 H 0.11484 0.12431 0.05232 0.0
H2276 H 0.12689 0.13553 0.04397 0.0
H2277 H 0.12083 0.13927 0.90391 0.0
H2278 H 0.10885 0.12803 0.91161 0.0
H2279 H 0.12039 0.12649 0.83915 0.0
H2280 H 0.1437 0.08494 0.89093 0.0
H2281 H 0.12415 0.07331 0.90193 0.0
H2282 H 0.10535 0.10686 0.9644 0.0
C2283 C 0.14707 0.13334 0.92518 0.0
C2284 C 0.15922 0.1326 0.89794 0.0
C2285 C 0.16428 0.12092 0.88155 0.0
C2286 C 0.15715 0.11019 0.88999 0.0
C2287 C 0.14504 0.11133 0.91516 0.0
C2288 C 0.14012 0.12267 0.93278 0.0
C2289 C 0.12671 0.12178 0.95348 0.0
C2290 C 0.12459 0.12568 0.03615 0.0
C2291 C 0.11873 0.12934 0.89876 0.0
C2292 C 0.12467 0.1082 0.94318 0.0
C2293 C 0.13532 0.1022 0.92219 0.0
C2294 C 0.13537 0.08958 0.90783 0.0
C2295 C 0.12424 0.08304 0.91427 0.0
C2296 C 0.11324 0.08919 0.93364 0.0
C2297 C 0.11359 0.10188 0.94908 0.0
H2298 H 0.60302 0.3896 0.68887 0.0
H2299 H 0.62437 0.42266 0.65324 0.0
H2300 H 0.6435 0.41036 0.66036 0.0
H2301 H 0.62403 0.37432 0.8185 0.0
H2302 H 0.62098 0.35942 0.77846 0.0
H2303 H 0.60927 0.37107 0.77726 0.0
H2304 H 0.60736 0.36875 0.63164 0.0
H2305 H 0.61907 0.35713 0.63233 0.0
H2306 H 0.62082 0.3705 0.57332 0.0
H2307 H 0.66038 0.39378 0.66574 0.0
H2308 H 0.67295 0.3748 0.66403 0.0
H2309 H 0.63995 0.35308 0.69214 0.0
C2310 C 0.6117 0.39434 0.68373 0.0
C2311 C 0.61219 0.40713 0.67105 0.0
C2312 C 0.62377 0.41288 0.66345 0.0
C2313 C 0.63468 0.40597 0.66748 0.0
C2314 C 0.63383 0.39332 0.67901 0.0
C2315 C 0.62259 0.38761 0.68697 0.0
C2316 C 0.62395 0.37386 0.69431 0.0
C2317 C 0.61928 0.36941 0.77174 0.0
C2318 C 0.61742 0.36717 0.62901 0.0
C2319 C 0.63772 0.37263 0.68823 0.0
C2320 C 0.64333 0.38392 0.6803 0.0
C2321 C 0.65604 0.38491 0.67229 0.0
C2322 C 0.66312 0.37409 0.67153 0.0
C2323 C 0.65744 0.36245 0.67784 0.0
C2324 C 0.64459 0.36182 0.68704 0.0
H2325 H 0.39251 0.89164 0.3648 0.0
H2326 H 0.37096 0.92508 0.36572 0.0
H2327 H 0.35187 0.91261 0.367 0.0
H2328 H 0.37294 0.87389 0.24473 0.0
H2329 H 0.37557 0.85989 0.2964 0.0
H2330 H 0.38724 0.87155 0.29377 0.0
H2331 H 0.38763 0.87214 0.44054 0.0
H2332 H 0.37599 0.86046 0.44364 0.0
H2333 H 0.37358 0.87484 0.49177 0.0
H2334 H 0.33497 0.89575 0.3669 0.0
H2335 H 0.32248 0.87669 0.3728 0.0
H2336 H 0.35587 0.85508 0.37543 0.0
C2337 C 0.3838 0.89641 0.36491 0.0
C2338 C 0.38324 0.90935 0.36471 0.0
C2339 C 0.37161 0.91517 0.36576 0.0
C2340 C 0.36074 0.90815 0.3663 0.0
C2341 C 0.36167 0.89536 0.36625 0.0
C2342 C 0.37297 0.88961 0.36606 0.0
C2343 C 0.37172 0.87582 0.36819 0.0
C2344 C 0.37719 0.86995 0.2965 0.0
C2345 C 0.37757 0.87051 0.44033 0.0
C2346 C 0.35793 0.87461 0.36976 0.0
C2347 C 0.3522 0.88592 0.36801 0.0
C2348 C 0.33941 0.88688 0.36849 0.0
C2349 C 0.33239 0.87602 0.37161 0.0
C2350 C 0.33819 0.8644 0.37498 0.0
C2351 C 0.35112 0.8638 0.37352 0.0
H2352 H 0.09699 0.46872 0.05746 0.0
H2353 H 0.09216 0.47537 0.81729 0.0
H2354 H 0.09708 0.4972 0.83616 0.0
H2355 H 0.08241 0.49493 0.11776 0.0
H2356 H 0.0923 0.49824 0.19692 0.0
H2357 H 0.09065 0.48271 0.16397 0.0
H2358 H 0.11415 0.48102 0.14595 0.0
H2359 H 0.11591 0.49654 0.17957 0.0
H2360 H 0.12205 0.49219 0.08864 0.0
H2361 H 0.09894 0.51843 0.88191 0.0
H2362 H 0.09888 0.53797 0.95197 0.0
H2363 H 0.10317 0.51825 0.16328 0.0
C2364 C 0.09745 0.47471 1.00868 0.0
C2365 C 0.09433 0.47038 0.93575 0.0
C2366 C 0.09458 0.47853 0.87349 0.0
C2367 C 0.0974 0.49093 0.88362 0.0
C2368 C 0.09999 0.49507 0.95642 0.0
C2369 C 0.10019 0.48722 0.01796 0.0
C2370 C 0.10206 0.49434 0.09103 0.0
C2371 C 0.09121 0.49244 0.14559 0.0
C2372 C 0.11427 0.49081 0.1285 0.0
C2373 C 0.10243 0.50739 0.06101 0.0
C2374 C 0.1013 0.50754 0.98308 0.0
C2375 C 0.10014 0.51845 0.94272 0.0
C2376 C 0.10006 0.52951 0.98298 0.0
C2377 C 0.10124 0.52962 0.06267 0.0
C2378 C 0.10263 0.51842 0.10206 0.0
H2379 H 0.71821 0.86206 0.24955 0.0
H2380 H 0.71826 0.83648 0.43755 0.0
H2381 H 0.74072 0.835 0.43032 0.0
H2382 H 0.74128 0.84657 0.14407 0.0
H2383 H 0.74842 0.86027 0.10774 0.0
H2384 H 0.73237 0.86036 0.13179 0.0
H2385 H 0.73596 0.87878 0.22183 0.0
H2386 H 0.75204 0.87872 0.19811 0.0
H2387 H 0.74731 0.87759 0.29565 0.0
H2388 H 0.76282 0.83544 0.40084 0.0
H2389 H 0.78346 0.8368 0.34553 0.0
H2390 H 0.7697 0.86148 0.17238 0.0
C2391 C 0.72301 0.85632 0.28983 0.0
C2392 C 0.71649 0.84942 0.34446 0.0
C2393 C 0.72304 0.8418 0.39516 0.0
C2394 C 0.73582 0.84095 0.39182 0.0
C2395 C 0.74198 0.84773 0.33701 0.0
C2396 C 0.73584 0.85521 0.28649 0.0
C2397 C 0.74472 0.86075 0.22965 0.0
C2398 C 0.7415 0.85675 0.14852 0.0
C2399 C 0.74502 0.87479 0.23676 0.0
C2400 C 0.75672 0.85507 0.25579 0.0
C2401 C 0.75488 0.84772 0.31842 0.0
C2402 C 0.7644 0.84119 0.35189 0.0
C2403 C 0.7761 0.84198 0.31975 0.0
C2404 C 0.77822 0.84919 0.25431 0.0
C2405 C 0.76841 0.85598 0.22275 0.0
H2406 H 0.41048 0.52487 0.52512 0.0
H2407 H 0.37494 0.52936 0.41796 0.0
H2408 H 0.37061 0.50742 0.43797 0.0
H2409 H 0.41728 0.49614 0.44313 0.0
H2410 H 0.42481 0.48997 0.52553 0.0
H2411 H 0.42476 0.50627 0.50931 0.0
H2412 H 0.41506 0.50984 0.64142 0.0
H2413 H 0.41516 0.49354 0.65833 0.0
H2414 H 0.40103 0.50205 0.666 0.0
H2415 H 0.37057 0.48479 0.46246 0.0
H2416 H 0.37471 0.46306 0.49182 0.0
H2417 H 0.41044 0.47312 0.5808 0.0
C2418 C 0.40172 0.5213 0.50673 0.0
C2419 C 0.39307 0.52889 0.46984 0.0
C2420 C 0.38174 0.52377 0.44632 0.0
C2421 C 0.37918 0.5113 0.45745 0.0
C2422 C 0.38803 0.50403 0.4922 0.0
C2423 C 0.39906 0.50883 0.51684 0.0
C2424 C 0.40722 0.49889 0.54941 0.0
C2425 C 0.41923 0.49775 0.50413 0.0
C2426 C 0.40976 0.50122 0.63381 0.0
C2427 C 0.39911 0.48773 0.53827 0.0
C2428 C 0.38806 0.49092 0.50563 0.0
C2429 C 0.37916 0.48218 0.48848 0.0
C2430 C 0.38161 0.46985 0.50528 0.0
C2431 C 0.3929 0.46634 0.53858 0.0
C2432 C 0.40172 0.47546 0.55531 0.0
H2433 H 0.76551 0.16635 0.90562 0.0
H2434 H 0.78753 0.14234 0.7641 0.0
H2435 H 0.76864 0.13525 0.69936 0.0
H2436 H 0.73923 0.14634 0.92613 0.0
H2437 H 0.72842 0.15883 0.92189 0.0
H2438 H 0.74357 0.16137 0.95929 0.0
H2439 H 0.74699 0.17887 0.86224 0.0
H2440 H 0.73186 0.17639 0.82461 0.0
H2441 H 0.74499 0.17579 0.76271 0.0
H2442 H 0.74701 0.13132 0.64805 0.0
H2443 H 0.72514 0.1317 0.61089 0.0
H2444 H 0.71784 0.15862 0.78628 0.0
C2445 C 0.76643 0.1595 0.86155 0.0
C2446 C 0.77804 0.15485 0.84023 0.0
C2447 C 0.77875 0.14602 0.78155 0.0
C2448 C 0.76806 0.14192 0.74465 0.0
C2449 C 0.75676 0.14677 0.76709 0.0
C2450 C 0.75593 0.1554 0.82413 0.0
C2451 C 0.74285 0.15965 0.83576 0.0
C2452 C 0.73825 0.15635 0.9155 0.0
C2453 C 0.7416 0.17349 0.82039 0.0
C2454 C 0.7364 0.15217 0.77582 0.0
C2455 C 0.74451 0.14469 0.73714 0.0
C2456 C 0.7406 0.13712 0.67824 0.0
C2457 C 0.72814 0.13736 0.6577 0.0
C2458 C 0.71977 0.14521 0.69551 0.0
C2459 C 0.724 0.15255 0.75598 0.0
H2460 H 0.91691 0.48174 0.87757 0.0
H2461 H 0.8923 0.46091 0.02163 0.0
H2462 H 0.88471 0.48026 0.0781 0.0
H2463 H 0.92566 0.50298 1.01619 0.0
H2464 H 0.92668 0.51584 0.95245 0.0
H2465 H 0.92913 0.50053 0.91751 0.0
H2466 H 0.91207 0.50372 0.81725 0.0
H2467 H 0.90959 0.51907 0.85186 0.0
H2468 H 0.89698 0.50842 0.84729 0.0
H2469 H 0.88063 0.50191 0.12336 0.0
H2470 H 0.88132 0.52381 0.15928 0.0
H2471 H 0.90918 0.53019 0.98818 0.0
C2472 C 0.90975 0.48122 0.91994 0.0
C2473 C 0.90509 0.4698 0.94462 0.0
C2474 C 0.89594 0.46956 1.00151 0.0
C2475 C 0.89155 0.4805 0.03372 0.0
C2476 C 0.89645 0.4916 1.00863 0.0
C2477 C 0.90539 0.49202 0.95318 0.0
C2478 C 0.90986 0.50501 0.94029 0.0
C2479 C 0.92364 0.50615 0.95767 0.0
C2480 C 0.90695 0.5093 0.85937 0.0
C2481 C 0.90219 0.51182 0.99803 0.0
C2482 C 0.89438 0.50397 0.03612 0.0
C2483 C 0.88666 0.50814 0.09356 0.0
C2484 C 0.8871 0.52061 0.11344 0.0
C2485 C 0.89532 0.52872 0.07665 0.0
C2486 C 0.9028 0.52424 1.01744 0.0
H2487 H 0.21796 0.1611 0.73751 0.0
H2488 H 0.22289 0.13361 0.91238 0.0
H2489 H 0.24524 0.13362 0.88809 0.0
H2490 H 0.24025 0.14867 0.6089 0.0
H2491 H 0.24533 0.16348 0.57633 0.0
H2492 H 0.22983 0.16151 0.60936 0.0
H2493 H 0.23297 0.17902 0.70673 0.0
H2494 H 0.24848 0.18105 0.67398 0.0
H2495 H 0.24553 0.17816 0.77279 0.0
H2496 H 0.26729 0.13712 0.84615 0.0
H2497 H 0.28689 0.14294 0.78499 0.0
H2498 H 0.26713 0.1673 0.63394 0.0
C2499 C 0.22374 0.15511 0.77097 0.0
C2500 C 0.21869 0.1474 0.82714 0.0
C2501 C 0.22656 0.13959 0.869 0.0
C2502 C 0.23926 0.13956 0.85574 0.0
C2503 C 0.24394 0.14728 0.79986 0.0
C2504 C 0.23639 0.15483 0.75776 0.0
C2505 C 0.24362 0.16201 0.69957 0.0
C2506 C 0.23951 0.15871 0.61877 0.0
C2507 C 0.24259 0.17588 0.71418 0.0
C2508 C 0.25644 0.15736 0.71564 0.0
C2509 C 0.25648 0.14894 0.77406 0.0
C2510 C 0.26734 0.14364 0.79999 0.0
C2511 C 0.27843 0.14701 0.76503 0.0
C2512 C 0.27854 0.15548 0.7043 0.0
C2513 C 0.26736 0.16068 0.6796 0.0
H2514 H 0.58248 0.48112 0.65745 0.0
H2515 H 0.60675 0.46027 0.51101 0.0
H2516 H 0.61304 0.47954 0.44742 0.0
H2517 H 0.57183 0.50126 0.51613 0.0
H2518 H 0.57078 0.51436 0.57814 0.0
H2519 H 0.56908 0.49913 0.61591 0.0
H2520 H 0.58664 0.50329 0.71144 0.0
H2521 H 0.58837 0.51856 0.67413 0.0
H2522 H 0.60136 0.50835 0.67702 0.0
H2523 H 0.61628 0.50143 0.39847 0.0
H2524 H 0.61527 0.52347 0.36454 0.0
H2525 H 0.58797 0.52918 0.53989 0.0
C2526 C 0.58928 0.48057 0.61286 0.0
C2527 C 0.59424 0.46919 0.58982 0.0
C2528 C 0.6029 0.4689 0.52999 0.0
C2529 C 0.60653 0.4798 0.49364 0.0
C2530 C 0.60134 0.49086 0.51745 0.0
C2531 C 0.59285 0.49127 0.57553 0.0
C2532 C 0.58802 0.50413 0.58777 0.0
C2533 C 0.57411 0.50475 0.57362 0.0
C2534 C 0.5913 0.50885 0.6673 0.0
C2535 C 0.59506 0.51092 0.52727 0.0
C2536 C 0.60282 0.5032 0.48774 0.0
C2537 C 0.61023 0.50754 0.42915 0.0
C2538 C 0.60962 0.52006 0.41035 0.0
C2539 C 0.60151 0.52803 0.44935 0.0
C2540 C 0.59422 0.52333 0.50868 0.0
H2541 H 0.26315 0.83209 0.40625 0.0
H2542 H 0.28504 0.85556 0.26095 0.0
H2543 H 0.26624 0.86199 0.1934 0.0
H2544 H 0.24319 0.82154 0.26206 0.0
H2545 H 0.22982 0.821 0.32197 0.0
H2546 H 0.24483 0.81901 0.36241 0.0
H2547 H 0.24066 0.83692 0.45555 0.0
H2548 H 0.22563 0.83897 0.41526 0.0
H2549 H 0.23618 0.85168 0.41892 0.0
H2550 H 0.24499 0.86549 0.13993 0.0
H2551 H 0.22334 0.86461 0.09889 0.0
H2552 H 0.21561 0.83831 0.27697 0.0
C2553 C 0.264 0.83871 0.36088 0.0
C2554 C 0.27556 0.84342 0.33931 0.0
C2555 C 0.27627 0.85187 0.27861 0.0
C2556 C 0.26564 0.85561 0.24012 0.0
C2557 C 0.25438 0.85075 0.26273 0.0
C2558 C 0.25351 0.84242 0.32141 0.0
C2559 C 0.24045 0.83799 0.33169 0.0
C2560 C 0.23952 0.82406 0.31874 0.0
C2561 C 0.23544 0.84161 0.41 0.0
C2562 C 0.23411 0.84506 0.26924 0.0
C2563 C 0.24226 0.85248 0.23066 0.0
C2564 C 0.23853 0.85973 0.16988 0.0
C2565 C 0.2262 0.8592 0.14714 0.0
C2566 C 0.21778 0.85137 0.18454 0.0
C2567 C 0.22182 0.84435 0.247 0.0
H2568 H 0.58653 0.96919 0.52789 0.0
H2569 H 0.59932 0.97787 0.3019 0.0
H2570 H 0.60418 -0.00104 0.34278 0.0
H2571 H 0.57094 0.99627 0.55434 0.0
H2572 H 0.57426 0.99805 0.6537 0.0
H2573 H 0.5741 0.98301 0.61201 0.0
H2574 H 0.59624 0.97917 0.65921 0.0
H2575 H 0.59646 0.99422 0.70158 0.0
H2576 H 0.60821 0.98988 0.63486 0.0
H2577 H 0.60504 0.01957 0.40169 0.0
H2578 H 0.60152 0.03855 0.47443 0.0
H2579 H 0.58755 0.01698 0.66223 0.0
C2580 C 0.59079 0.97544 0.48815 0.0
C2581 C 0.59278 0.97193 0.4122 0.0
C2582 C 0.59788 0.98042 0.36055 0.0
C2583 C 0.6007 0.99239 0.38331 0.0
C2584 C 0.59829 0.99575 0.45791 0.0
C2585 C 0.59348 0.98754 0.50978 0.0
C2586 C 0.59035 0.99394 0.5836 0.0
C2587 C 0.5766 0.99275 0.60193 0.0
C2588 C 0.59829 0.98901 0.64866 0.0
C2589 C 0.59376 0.00706 0.56405 0.0
C2590 C 0.59852 0.00784 0.49173 0.0
C2591 C 0.60152 0.01907 0.45889 0.0
C2592 C 0.59943 0.02981 0.50057 0.0
C2593 C 0.59428 0.02928 0.57414 0.0
C2594 C 0.59165 0.01771 0.60659 0.0
H2595 H 0.23206 0.33537 0.89583 0.0
H2596 H 0.21037 0.34986 0.71015 0.0
H2597 H 0.22931 0.35399 0.63847 0.0
H2598 H 0.25861 0.3567 0.87362 0.0
H2599 H 0.26957 0.34489 0.8964 0.0
H2600 H 0.25444 0.34452 0.93758 0.0
H2601 H 0.25125 0.32254 0.88542 0.0
H2602 H 0.26633 0.32285 0.84413 0.0
H2603 H 0.25317 0.31971 0.78552 0.0
H2604 H 0.25003 0.354 0.58038 0.0
H2605 H 0.27138 0.35019 0.54018 0.0
H2606 H 0.28009 0.33641 0.76388 0.0
C2607 C 0.2313 0.33968 0.84085 0.0
C2608 C 0.21969 0.3423 0.80873 0.0
C2609 C 0.21912 0.34775 0.73605 0.0
C2610 C 0.22984 0.35019 0.69497 0.0
C2611 C 0.2411 0.34725 0.72753 0.0
C2612 C 0.24193 0.3422 0.79905 0.0
C2613 C 0.25512 0.33902 0.81841 0.0
C2614 C 0.2597 0.34675 0.88549 0.0
C2615 C 0.25654 0.32521 0.83426 0.0
C2616 C 0.26151 0.34267 0.74553 0.0
C2617 C 0.25323 0.3475 0.69423 0.0
C2618 C 0.25665 0.35049 0.62055 0.0
C2619 C 0.26877 0.34828 0.59819 0.0
C2620 C 0.27736 0.34322 0.64937 0.0
C2621 C 0.27376 0.34063 0.72448 0.0
H2622 H 0.90911 0.972 0.0766 0.0
H2623 H 0.87234 0.9623 1.00362 0.0
H2624 H 0.86856 0.98382 0.96779 0.0
H2625 H 0.90127 0.00138 0.15627 0.0
H2626 H 0.91521 0.00871 0.12538 0.0
H2627 H 0.9151 0.9925 0.14489 0.0
H2628 H 0.92337 0.98813 1.00999 0.0
H2629 H 0.92349 0.00433 0.99005 0.0
H2630 H 0.91519 0.994 0.9291 0.0
H2631 H 0.86868 0.00635 0.94001 0.0
H2632 H 0.87268 0.02842 0.9225 0.0
H2633 H 0.90934 0.02362 1.01399 0.0
C2634 C 0.90026 0.97439 0.05304 0.0
C2635 C 0.89102 0.96542 0.04297 0.0
C2636 C 0.87957 0.96897 1.01201 0.0
C2637 C 0.87733 0.98118 0.99139 0.0
C2638 C 0.88662 0.98977 1.0021 0.0
C2639 C 0.89785 0.98655 0.03222 0.0
C2640 C 0.90624 0.99761 0.03815 0.0
C2641 C 0.90965 0.0002 0.12111 0.0
C2642 C 0.91775 0.99591 0.98887 0.0
C2643 C 0.89795 0.00753 1.00661 0.0
C2644 C 0.88668 0.0028 0.98614 0.0
C2645 C 0.87748 0.01017 0.9558 0.0
C2646 C 0.87985 0.02271 0.94611 0.0
C2647 C 0.89133 0.02779 0.96669 0.0
C2648 C 0.90048 0.02004 0.99738 0.0
H2649 H 0.28451 0.64544 0.19288 0.0
H2650 H 0.27906 0.65163 0.433 0.0
H2651 H 0.25662 0.65089 0.41472 0.0
H2652 H 0.261 0.6654 0.13611 0.0
H2653 H 0.2563 0.65647 0.05525 0.0
H2654 H 0.27185 0.65556 0.08864 0.0
H2655 H 0.26978 0.63201 0.10187 0.0
H2656 H 0.25417 0.63284 0.06868 0.0
H2657 H 0.25753 0.62571 0.15834 0.0
H2658 H 0.23483 0.65047 0.36984 0.0
H2659 H 0.2154 0.65294 0.30005 0.0
H2660 H 0.23494 0.64867 0.08761 0.0
C2661 C 0.27856 0.64632 0.2417 0.0
C2662 C 0.28346 0.64831 0.31462 0.0
C2663 C 0.27545 0.64993 0.37689 0.0
C2664 C 0.2627 0.64948 0.36708 0.0
C2665 C 0.25811 0.64761 0.29438 0.0
C2666 C 0.26579 0.64622 0.23255 0.0
C2667 C 0.25852 0.64579 0.15946 0.0
C2668 C 0.26213 0.65644 0.1068 0.0
C2669 C 0.26009 0.63334 0.11977 0.0
C2670 C 0.2456 0.64734 0.18983 0.0
C2671 C 0.24555 0.64809 0.2679 0.0
C2672 C 0.23474 0.64984 0.3087 0.0
C2673 C 0.22372 0.65117 0.26856 0.0
C2674 C 0.22362 0.65098 0.18842 0.0
C2675 C 0.23471 0.64882 0.1489 0.0
H2676 H 0.41587 0.01506 0.63769 0.0
H2677 H 0.39171 0.03643 0.49404 0.0
H2678 H 0.38508 0.01741 0.42935 0.0
H2679 H 0.42603 0.99498 0.49308 0.0
H2680 H 0.42698 0.98169 0.55343 0.0
H2681 H 0.42895 0.99678 0.59292 0.0
H2682 H 0.41149 0.99257 0.68904 0.0
H2683 H 0.40947 0.97744 0.64986 0.0
H2684 H 0.39665 0.98784 0.655 0.0
H2685 H 0.38141 0.99603 0.37896 0.0
H2686 H 0.38212 0.97428 0.33998 0.0
H2687 H 0.40959 0.96712 0.51211 0.0
C2688 C 0.40903 0.01573 0.59349 0.0
C2689 C 0.40416 0.02721 0.57154 0.0
C2690 C 0.39548 0.02772 0.51207 0.0
C2691 C 0.39164 0.01697 0.47519 0.0
C2692 C 0.39668 0.0058 0.49792 0.0
C2693 C 0.40526 0.00513 0.55531 0.0
C2694 C 0.40991 0.99213 0.56543 0.0
C2695 C 0.42379 0.99136 0.55029 0.0
C2696 C 0.40668 0.98721 0.64453 0.0
C2697 C 0.40267 0.98559 0.50445 0.0
C2698 C 0.39496 0.9936 0.46687 0.0
C2699 C 0.3874 0.98968 0.40805 0.0
C2700 C 0.38785 0.9773 0.38647 0.0
C2701 C 0.39592 0.96901 0.42287 0.0
C2702 C 0.40334 0.97324 0.48303 0.0
H2703 H 0.71823 0.63671 0.18552 0.0
H2704 H 0.71826 0.65666 0.39841 0.0
H2705 H 0.74079 0.65701 0.39733 0.0
H2706 H 0.74613 0.61842 0.22128 0.0
H2707 H 0.75145 0.61964 0.12493 0.0
H2708 H 0.73524 0.61987 0.14503 0.0
H2709 H 0.7332 0.64061 0.07465 0.0
H2710 H 0.74937 0.64042 0.05427 0.0
H2711 H 0.74269 0.65334 0.10285 0.0
H2712 H 0.76304 0.65647 0.37092 0.0
H2713 H 0.78392 0.65564 0.31794 0.0
H2714 H 0.77005 0.63631 0.12074 0.0
C2715 C 0.72301 0.64096 0.23243 0.0
C2716 C 0.71647 0.6466 0.29225 0.0
C2717 C 0.72304 0.65229 0.35191 0.0
C2718 C 0.73586 0.65249 0.35207 0.0
C2719 C 0.74204 0.647 0.29206 0.0
C2720 C 0.73589 0.64136 0.23315 0.0
C2721 C 0.74484 0.63691 0.17319 0.0
C2722 C 0.74438 0.62287 0.16569 0.0
C2723 C 0.74238 0.6432 0.09673 0.0
C2724 C 0.75692 0.64111 0.20726 0.0
C2725 C 0.75505 0.6468 0.27621 0.0
C2726 C 0.76465 0.65195 0.31727 0.0
C2727 C 0.77648 0.65146 0.28657 0.0
C2728 C 0.77864 0.64589 0.21531 0.0
C2729 C 0.76873 0.64047 0.17583 0.0
H2730 H 0.11357 0.97111 0.99852 0.0
H2731 H 0.07678 0.96611 0.0881 0.0
H2732 H 0.07338 0.98826 0.0836 0.0
H2733 H 0.12031 -0.0002 0.09345 0.0
H2734 H 0.12809 0.00654 1.01362 0.0
H2735 H 0.12812 0.99014 0.02601 0.0
H2736 H 0.11899 0.98733 0.89177 0.0
H2737 H 0.11902 0.00371 0.87879 0.0
H2738 H 0.105 0.99517 0.86717 0.0
H2739 H 0.07374 0.01068 0.07302 0.0
H2740 H 0.07703 0.03236 0.04329 0.0
H2741 H 0.11309 0.02371 0.95289 0.0
C2742 C 0.10483 0.97469 1.0173 0.0
C2743 C 0.09552 0.96678 0.04474 0.0
C2744 C 0.08413 0.97187 0.06766 0.0
C2745 C 0.08209 0.9845 0.06548 0.0
C2746 C 0.09143 0.99203 0.0392 0.0
C2747 C 0.10251 0.98738 1.01434 0.0
C2748 C 0.1107 0.99764 0.98524 0.0
C2749 C 0.1225 -0.00142 0.03241 0.0
C2750 C 0.1136 0.99586 0.90072 0.0
C2751 C 0.10245 0.00869 0.99799 0.0
C2752 C 0.09145 0.00517 0.03003 0.0
C2753 C 0.08229 0.01357 0.04758 0.0
C2754 C 0.08428 0.02593 0.03051 0.0
C2755 C 0.0953 0.02983 0.99539 0.0
C2756 C 0.10457 0.02106 0.9798 0.0
H2757 H 0.71883 0.33865 0.78747 0.0
H2758 H 0.72751 0.35424 0.56833 0.0
H2759 H 0.74879 0.35796 0.61 0.0
H2760 H 0.74033 0.35819 0.90399 0.0
H2761 H 0.74434 0.34541 0.96373 0.0
H2762 H 0.72924 0.34631 0.92256 0.0
H2763 H 0.73226 0.32478 0.86351 0.0
H2764 H 0.74738 0.32385 0.9036 0.0
H2765 H 0.74529 0.322 0.80301 0.0
H2766 H 0.76961 0.35729 0.66769 0.0
H2767 H 0.78853 0.35235 0.73789 0.0
H2768 H 0.76665 0.33657 0.91869 0.0
C2769 C 0.7251 0.34333 0.74968 0.0
C2770 C 0.72153 0.3464 0.67529 0.0
C2771 C 0.73008 0.35199 0.62592 0.0
C2772 C 0.74217 0.35415 0.64911 0.0
C2773 C 0.74559 0.35059 0.7218 0.0
C2774 C 0.7373 0.34536 0.77164 0.0
C2775 C 0.74369 0.341 0.84291 0.0
C2776 C 0.73913 0.34816 0.91242 0.0
C2777 C 0.74206 0.32708 0.85383 0.0
C2778 C 0.75688 0.34422 0.82417 0.0
C2779 C 0.75774 0.34992 0.75458 0.0
C2780 C 0.76904 0.35302 0.72286 0.0
C2781 C 0.77975 0.35013 0.76302 0.0
C2782 C 0.77911 0.3441 0.8339 0.0
C2783 C 0.76748 0.3413 0.86506 0.0
H2784 H 0.02502 0.56939 0.11715 0.0
H2785 H 0.03319 0.53058 0.09598 0.0
H2786 H 0.011 0.52604 0.09081 0.0
H2787 H -0.00103 0.56613 0.23854 0.0
H2788 H 0.99056 0.57853 0.19556 0.0
H2789 H 0.00707 0.5787 0.19511 0.0
H2790 H 0.00702 0.58083 0.04896 0.0
H2791 H 0.99051 0.58068 0.04896 0.0
H2792 H -0.00113 0.56972 0.99251 0.0
H2793 H 0.98771 0.52577 0.09112 0.0
H2794 H 0.96542 0.5298 0.09691 0.0
H2795 H 0.97271 0.56879 0.11759 0.0
C2796 C 0.02217 0.55992 0.11196 0.0
C2797 C 0.03089 0.55034 0.10712 0.0
C2798 C 0.02671 0.5381 0.09898 0.0
C2799 C 0.01412 0.53542 0.09636 0.0
C2800 C 0.00579 0.54509 0.10171 0.0
C2801 C 0.00966 0.55709 0.10919 0.0
C2802 C -0.00111 0.56582 0.11434 0.0
C2803 C -0.00113 0.5727 0.19042 0.0
C2804 C -0.00118 0.57479 0.04718 0.0
C2805 C 0.98833 0.55684 0.10944 0.0
C2806 C 0.99248 0.54493 0.10186 0.0
C2807 C 0.98437 0.53507 0.09673 0.0
C2808 C 0.97172 0.53746 0.09969 0.0
C2809 C 0.96727 0.54961 0.10791 0.0
C2810 C 0.97577 0.55938 0.11241 0.0
H2811 H 0.68567 0.72107 0.46526 0.0
H2812 H 0.70072 0.71414 0.2418 0.0
H2813 H 0.70262 0.73643 0.22041 0.0
H2814 H 0.66787 0.7472 0.41631 0.0
H2815 H 0.67087 0.75541 0.50294 0.0
H2816 H 0.67113 0.7389 0.50223 0.0
H2817 H 0.6932 0.73908 0.55644 0.0
H2818 H 0.69299 0.7556 0.55767 0.0
H2819 H 0.70501 0.74758 0.50797 0.0
H2820 H 0.70148 0.75936 0.21953 0.0
H2821 H 0.69855 0.78142 0.24154 0.0
H2822 H 0.6855 0.77366 0.46921 0.0
C2823 C 0.68942 0.72426 0.41203 0.0
C2824 C 0.69309 0.71588 0.35526 0.0
C2825 C 0.69801 0.7204 0.28645 0.0
C2826 C 0.69906 0.73304 0.27362 0.0
C2827 C 0.69528 0.74106 0.33044 0.0
C2828 C 0.69068 0.73687 0.3986 0.0
C2829 C 0.68723 0.74747 0.45003 0.0
C2830 C 0.67346 0.74723 0.46896 0.0
C2831 C 0.69508 0.74743 0.5223 0.0
C2832 C 0.69041 0.75825 0.39955 0.0
C2833 C 0.695 0.75434 0.33082 0.0
C2834 C 0.6981 0.76256 0.27368 0.0
C2835 C 0.69649 0.77513 0.28714 0.0
C2836 C 0.69194 0.77945 0.35764 0.0
C2837 C 0.68892 0.77079 0.41448 0.0
H2838 H 0.47335 0.43802 0.67058 0.0
H2839 H 0.46448 0.45383 0.45162 0.0
H2840 H 0.48653 0.45529 0.42208 0.0
H2841 H 0.50122 0.45513 0.70587 0.0
H2842 H 0.50897 0.44221 0.74782 0.0
H2843 H 0.49253 0.44346 0.75435 0.0
H2844 H 0.49026 0.42195 0.69338 0.0
H2845 H 0.50668 0.42065 0.68641 0.0
H2846 H 0.49733 0.41894 0.60295 0.0
H2847 H 0.50976 0.45428 0.41441 0.0
H2848 H 0.53203 0.45041 0.42879 0.0
H2849 H 0.52537 0.43415 0.64902 0.0
C2850 C 0.47597 0.44178 0.61624 0.0
C2851 C 0.46705 0.44585 0.56373 0.0
C2852 C 0.47104 0.45087 0.49376 0.0
C2853 C 0.48358 0.45165 0.47609 0.0
C2854 C 0.49206 0.44734 0.52867 0.0
C2855 C 0.48841 0.44248 0.59728 0.0
C2856 C 0.49927 0.43792 0.64255 0.0
C2857 C 0.50057 0.44511 0.71705 0.0
C2858 C 0.49833 0.42404 0.65715 0.0
C2859 C 0.50962 0.44085 0.5884 0.0
C2860 C 0.50532 0.4464 0.52331 0.0
C2861 C 0.51322 0.44995 0.46521 0.0
C2862 C 0.52584 0.44775 0.47388 0.0
C2863 C 0.5304 0.44192 0.53974 0.0
C2864 C 0.52213 0.43848 0.59759 0.0
H2865 H 0.80446 0.27632 0.79206 0.0
H2866 H 0.80876 0.28183 0.03377 0.0
H2867 H 0.80773 0.25946 0.05399 0.0
H2868 H 0.78369 0.24922 0.8039 0.0
H2869 H 0.79082 0.24173 0.72418 0.0
H2870 H 0.79038 0.25825 0.729 0.0
H2871 H 0.81399 0.25898 0.71422 0.0
H2872 H 0.81452 0.2425 0.70967 0.0
H2873 H 0.82348 0.25055 0.77956 0.0
H2874 H 0.80823 0.23685 0.04789 0.0
H2875 H 0.8103 0.21494 1.01594 0.0
H2876 H 0.80577 0.22346 0.77778 0.0
C2877 C 0.80486 0.27279 0.84928 0.0
C2878 C 0.8066 0.28076 0.91157 0.0
C2879 C 0.80742 0.27584 0.98549 0.0
C2880 C 0.80679 0.26317 0.99749 0.0
C2881 C 0.80534 0.25552 0.93496 0.0
C2882 C 0.80435 0.26009 0.86226 0.0
C2883 C 0.8038 0.24974 0.80471 0.0
C2884 C 0.79143 0.24974 0.76299 0.0
C2885 C 0.81459 0.25049 0.74876 0.0
C2886 C 0.80496 0.23868 0.85639 0.0
C2887 C 0.8057 0.24228 0.93132 0.0
C2888 C 0.80751 0.23389 0.98957 0.0
C2889 C 0.80874 0.22149 0.97086 0.0
C2890 C 0.80818 0.21755 0.89454 0.0
C2891 C 0.80605 0.22623 0.83663 0.0
H2892 H 0.97543 0.42681 0.95012 0.0
H2893 H 0.96626 0.45396 0.12095 0.0
H2894 H 0.9883 0.45674 0.14858 0.0
H2895 H 0.00056 0.41284 0.0527 0.0
H2896 H 0.00957 0.41031 0.96852 0.0
H2897 H 0.99308 0.41045 0.96291 0.0
H2898 H 0.99409 0.42743 0.86048 0.0
H2899 H 0.01058 0.42735 0.8658 0.0
H2900 H 0.00225 0.44144 0.88034 0.0
H2901 H 0.01156 0.45682 0.15532 0.0
H2902 H 0.03398 0.45402 0.14129 0.0
H2903 H 0.02763 0.42654 0.96797 0.0
C2904 C 0.97801 0.43322 0.99418 0.0
C2905 C 0.96906 0.44016 0.03336 0.0
C2906 C 0.97291 0.44864 0.08944 0.0
C2907 C 0.98542 0.45022 0.1059 0.0
C2908 C 0.99397 0.44324 0.06602 0.0
C2909 C 0.99041 0.43488 1.01147 0.0
C2910 C 0.00139 0.42862 0.97589 0.0
C2911 C 0.00113 0.41473 0.99093 0.0
C2912 C 0.00212 0.43138 0.89059 0.0
C2913 C 0.0117 0.43478 0.01874 0.0
C2914 C 0.00727 0.4432 0.07046 0.0
C2915 C 0.01513 0.45022 0.1152 0.0
C2916 C 0.02784 0.4486 0.10662 0.0
C2917 C 0.03257 0.44001 0.05391 0.0
C2918 C 0.02432 0.43301 1.00979 0.0
H2919 H 0.80566 0.77441 0.1103 0.0
H2920 H 0.80135 0.78052 0.3519 0.0
H2921 H 0.79979 0.75823 0.37206 0.0
H2922 H 0.7851 0.74826 0.09583 0.0
H2923 H 0.79459 0.74036 0.02796 0.0
H2924 H 0.79464 0.75687 0.03163 0.0
H2925 H 0.81822 0.75673 0.04974 0.0
H2926 H 0.81824 0.74023 0.04623 0.0
H2927 H 0.82479 0.74805 0.12651 0.0
H2928 H 0.79975 0.73529 0.36734 0.0
H2929 H 0.80123 0.71325 0.33811 0.0
H2930 H 0.80556 0.72185 0.09949 0.0
C2931 C 0.80438 0.77108 0.16748 0.0
C2932 C 0.80353 0.7793 0.22941 0.0
C2933 C 0.80178 0.7745 0.30324 0.0
C2934 C 0.80096 0.76182 0.3154 0.0
C2935 C 0.80191 0.75401 0.25325 0.0
C2936 C 0.80357 0.75844 0.18072 0.0
C2937 C 0.80468 0.74803 0.1241 0.0
C2938 C 0.79412 0.74841 0.06648 0.0
C2939 C 0.81723 0.74828 0.08432 0.0
C2940 C 0.80354 0.73707 0.17635 0.0
C2941 C 0.80189 0.74073 0.25053 0.0
C2942 C 0.8009 0.7323 0.30934 0.0
C2943 C 0.80167 0.71977 0.29199 0.0
C2944 C 0.8034 0.71574 0.21634 0.0
C2945 C 0.80429 0.72458 0.15791 0.0
H2946 H 0.47386 0.56235 0.40238 0.0
H2947 H 0.46511 0.53754 0.58731 0.0
H2948 H 0.48716 0.53434 0.6097 0.0
H2949 H 0.50095 0.54732 0.33493 0.0
H2950 H 0.509 0.56144 0.3166 0.0
H2951 H 0.49252 0.561 0.31105 0.0
H2952 H 0.4911 0.57873 0.40849 0.0
H2953 H 0.50757 0.57924 0.4143 0.0
H2954 H 0.49857 0.57717 0.49897 0.0
H2955 H 0.51051 0.53386 0.61192 0.0
H2956 H 0.53292 0.53734 0.59859 0.0
H2957 H 0.52601 0.56405 0.4223 0.0
C2958 C 0.47645 0.55632 0.44825 0.0
C2959 C 0.46754 0.55016 0.49258 0.0
C2960 C 0.4716 0.54218 0.55095 0.0
C2961 C 0.48417 0.54037 0.5647 0.0
C2962 C 0.49263 0.54671 0.52042 0.0
C2963 C 0.48891 0.55462 0.46387 0.0
C2964 C 0.49977 0.56084 0.42672 0.0
C2965 C 0.50061 0.55744 0.34233 0.0
C2966 C 0.49922 0.57482 0.43782 0.0
C2967 C 0.5102 0.55522 0.47132 0.0
C2968 C 0.50593 0.54696 0.52445 0.0
C2969 C 0.51393 0.54039 0.57089 0.0
C2970 C 0.52661 0.54239 0.563 0.0
C2971 C 0.53108 0.55104 0.51015 0.0
C2972 C 0.52276 0.5575 0.46386 0.0
H2973 H 0.6911 0.22183 0.5641 0.0
H2974 H 0.70227 0.21573 0.7972 0.0
H2975 H 0.70462 0.23798 0.81488 0.0
H2976 H 0.71085 0.24793 0.52622 0.0
H2977 H 0.69948 0.25587 0.47076 0.0
H2978 H 0.6995 0.23936 0.47421 0.0
H2979 H 0.6769 0.23954 0.51955 0.0
H2980 H 0.67681 0.25605 0.51628 0.0
H2981 H 0.6728 0.24823 0.6027 0.0
H2982 H 0.70488 0.26088 0.80985 0.0
H2983 H 0.70273 0.28292 0.78307 0.0
H2984 H 0.69086 0.27447 0.55429 0.0
C2985 C 0.69403 0.22513 0.61897 0.0
C2986 C 0.69661 0.2169 0.67899 0.0
C2987 C 0.70052 0.22172 0.7496 0.0
C2988 C 0.70179 0.2344 0.76049 0.0
C2989 C 0.69908 0.2422 0.70042 0.0
C2990 C 0.69527 0.23778 0.63108 0.0
C2991 C 0.69248 0.24821 0.57685 0.0
C2992 C 0.70109 0.24782 0.50793 0.0
C2993 C 0.67895 0.24799 0.55244 0.0
C2994 C 0.69521 0.25918 0.62692 0.0
C2995 C 0.69909 0.25548 0.69776 0.0
C2996 C 0.70196 0.26389 0.75435 0.0
C2997 C 0.70079 0.27642 0.73832 0.0
C2998 C 0.69677 0.28048 0.66621 0.0
C2999 C 0.69396 0.27168 0.6099 0.0
H3000 H 0.3026 0.27565 0.70228 0.0
H3001 H 0.31121 0.28091 0.46475 0.0
H3002 H 0.3108 0.2585 0.445 0.0
H3003 H 0.32146 0.24994 0.72876 0.0
H3004 H 0.31128 0.24201 0.79251 0.0
H3005 H 0.31086 0.25848 0.78682 0.0
H3006 H 0.28765 0.25772 0.75615 0.0
H3007 H 0.28798 0.24122 0.762 0.0
H3008 H 0.28235 0.24859 0.67758 0.0
H3009 H 0.31116 0.23575 0.45251 0.0
H3010 H 0.31236 0.21386 0.48683 0.0
H3011 H 0.30364 0.22295 0.71992 0.0
C3012 C 0.3041 0.27206 0.64583 0.0
C3013 C 0.30687 0.27999 0.58483 0.0
C3014 C 0.3091 0.27498 0.51215 0.0
C3015 C 0.30882 0.26228 0.50035 0.0
C3016 C 0.30631 0.25469 0.56182 0.0
C3017 C 0.30395 0.25936 0.63314 0.0
C3018 C 0.30235 0.2491 0.69041 0.0
C3019 C 0.31206 0.24994 0.75332 0.0
C3020 C 0.2893 0.24916 0.72347 0.0
C3021 C 0.30443 0.23797 0.64037 0.0
C3022 C 0.30659 0.24144 0.5663 0.0
C3023 C 0.30937 0.23291 0.51014 0.0
C3024 C 0.31009 0.22051 0.53026 0.0
C3025 C 0.30808 0.21672 0.60593 0.0
C3026 C 0.30503 0.22557 0.66142 0.0
H3027 H 0.19253 0.72133 0.04487 0.0
H3028 H 0.20328 0.71364 0.27673 0.0
H3029 H 0.20492 0.73578 0.30193 0.0
H3030 H 0.21212 0.74813 0.01843 0.0
H3031 H 0.20087 0.75629 0.96326 0.0
H3032 H 0.20121 0.73978 0.96174 0.0
H3033 H 0.17839 0.73919 1.00264 0.0
H3034 H 0.17799 0.7557 1.00445 0.0
H3035 H 0.17372 0.74711 0.08754 0.0
H3036 H 0.20424 0.75868 0.30485 0.0
H3037 H 0.20151 0.78084 0.28483 0.0
H3038 H 0.19158 0.77395 0.05038 0.0
C3039 C 0.19528 0.7243 0.10083 0.0
C3040 C 0.19792 0.71568 0.15848 0.0
C3041 C 0.20149 0.72 0.23099 0.0
C3042 C 0.20237 0.73258 0.24611 0.0
C3043 C 0.19966 0.7408 0.18822 0.0
C3044 C 0.19623 0.73686 0.11695 0.0
C3045 C 0.19351 0.74766 0.06552 0.0
C3046 C 0.20246 0.74798 0.99826 0.0
C3047 C 0.18011 0.7474 0.03847 0.0
C3048 C 0.19578 0.75825 0.11942 0.0
C3049 C 0.19936 0.75408 0.1898 0.0
C3050 C 0.2016 0.76208 0.24967 0.0
C3051 C 0.20011 0.77469 0.23747 0.0
C3052 C 0.19644 0.77926 0.16577 0.0
C3053 C 0.19433 0.77084 0.10602 0.0
H3054 H 0.20009 0.27396 0.735 0.0
H3055 H 0.16319 0.28031 0.81954 0.0
H3056 H 0.15982 0.25812 0.82764 0.0
H3057 H 0.19293 0.24728 0.6223 0.0
H3058 H 0.20688 0.2392 0.64475 0.0
H3059 H 0.20666 0.25572 0.64494 0.0
H3060 H 0.21464 0.25586 0.78298 0.0
H3061 H 0.21489 0.23934 0.7832 0.0
H3062 H 0.20637 0.24751 0.85477 0.0
H3063 H 0.16002 0.23568 0.82674 0.0
H3064 H 0.16388 0.21355 0.81762 0.0
H3065 H 0.20073 0.22071 0.73544 0.0
C3066 C 0.19132 0.27066 0.75535 0.0
C3067 C 0.18182 0.27895 0.77516 0.0
C3068 C 0.1705 0.27422 0.80184 0.0
C3069 C 0.16851 0.2616 0.80738 0.0
C3070 C 0.17795 0.25372 0.78665 0.0
C3071 C 0.18915 0.25797 0.76139 0.0
C3072 C 0.19766 0.24731 0.74293 0.0
C3073 C 0.20124 0.24739 0.65872 0.0
C3074 C 0.20906 0.24752 0.79403 0.0
C3075 C 0.18942 0.23647 0.76153 0.0
C3076 C 0.1781 0.24048 0.78665 0.0
C3077 C 0.16882 0.23239 0.80685 0.0
C3078 C 0.17108 0.21983 0.80089 0.0
C3079 C 0.18254 0.21537 0.77466 0.0
C3080 C 0.19189 0.22384 0.75551 0.0
H3081 H 0.30095 0.72222 0.32893 0.0
H3082 H 0.3104 0.71614 0.56426 0.0
H3083 H 0.30887 0.73839 0.58892 0.0
H3084 H 0.3187 0.74876 0.30667 0.0
H3085 H 0.30815 0.75665 0.24504 0.0
H3086 H 0.30834 0.74015 0.24748 0.0
H3087 H 0.28516 0.73993 0.27945 0.0
H3088 H 0.28489 0.75646 0.27693 0.0
H3089 H 0.27964 0.74845 0.36009 0.0
H3090 H 0.30815 0.7611 0.5863 0.0
H3091 H 0.30875 0.78317 0.55625 0.0
H3092 H 0.30018 0.77505 0.32167 0.0
C3093 C 0.30238 0.7256 0.38591 0.0
C3094 C 0.30567 0.71751 0.44504 0.0
C3095 C 0.30782 0.72222 0.51849 0.0
C3096 C 0.30693 0.73482 0.53301 0.0
C3097 C 0.30391 0.74261 0.47337 0.0
C3098 C 0.30166 0.73822 0.40123 0.0
C3099 C 0.29962 0.74872 0.34615 0.0
C3100 C 0.30928 0.74856 0.28261 0.0
C3101 C 0.28655 0.74836 0.31375 0.0
C3102 C 0.30136 0.75965 0.3983 0.0
C3103 C 0.30368 0.75587 0.47158 0.0
C3104 C 0.30623 0.76418 0.52932 0.0
C3105 C 0.30661 0.77669 0.51163 0.0
C3106 C 0.3045 0.78081 0.43673 0.0
C3107 C 0.30163 0.77217 0.37964 0.0
H3108 H 0.5257 0.05079 0.5933 0.0
H3109 H 0.53308 0.06987 0.38268 0.0
H3110 H 0.51092 0.07007 0.35398 0.0
H3111 H 0.49984 0.03195 0.52235 0.0
H3112 H 0.49149 0.03327 0.61007 0.0
H3113 H 0.50801 0.03355 0.6105 0.0
H3114 H 0.5076 0.05437 0.68124 0.0
H3115 H 0.4911 0.05418 0.68081 0.0
H3116 H 0.49922 0.06705 0.64105 0.0
H3117 H 0.48794 0.06989 0.3536 0.0
H3118 H 0.46572 0.06911 0.38105 0.0
H3119 H 0.47318 0.04989 0.59088 0.0
C3120 C 0.52268 0.05472 0.54023 0.0
C3121 C 0.53113 0.06029 0.4901 0.0
C3122 C 0.52677 0.06563 0.42214 0.0
C3123 C 0.51421 0.06572 0.40514 0.0
C3124 C 0.5061 0.06038 0.45645 0.0
C3125 C 0.51016 0.05491 0.52243 0.0
C3126 C 0.49947 0.05051 0.57021 0.0
C3127 C 0.49972 0.03649 0.57876 0.0
C3128 C 0.49935 0.05691 0.6479 0.0
C3129 C 0.48878 0.0546 0.52161 0.0
C3130 C 0.49281 0.0602 0.45597 0.0
C3131 C 0.48467 0.06538 0.40431 0.0
C3132 C 0.47208 0.06495 0.4205 0.0
C3133 C 0.46774 0.05937 0.48775 0.0
C3134 C 0.47622 0.05398 0.53828 0.0
H3135 H 0.02244 0.9247 0.101 0.0
H3136 H 0.03128 0.96342 0.08667 0.0
H3137 H 0.00917 0.96842 0.08289 0.0
H3138 H 0.9965 0.92552 0.97516 0.0
H3139 H 0.98781 0.91445 0.02864 0.0
H3140 H 0.00431 0.91397 0.02985 0.0
H3141 H 0.00412 0.91534 0.17636 0.0
H3142 H 0.98762 0.91581 0.1756 0.0
H3143 H 0.99614 0.92783 0.2218 0.0
H3144 H 0.98594 0.96916 0.08329 0.0
H3145 H 0.96358 0.96556 0.08805 0.0
H3146 H 0.97012 0.92631 0.09852 0.0
C3147 C 0.01973 0.93424 0.09767 0.0
C3148 C 0.0286 0.94367 0.09423 0.0
C3149 C 0.02465 0.95603 0.08867 0.0
C3150 C 0.01212 0.95896 0.08677 0.0
C3151 C 0.00362 0.94943 0.09008 0.0
C3152 C 0.00727 0.93732 0.09526 0.0
C3153 C 0.99633 0.92879 0.09774 0.0
C3154 C 0.99623 0.92017 0.02873 0.0
C3155 C 0.99604 0.92152 0.17232 0.0
C3156 C 0.98595 0.93799 0.09395 0.0
C3157 C 0.99032 0.94985 0.08944 0.0
C3158 C 0.98242 0.95989 0.0864 0.0
C3159 C 0.96971 0.95775 0.08864 0.0
C3160 C 0.96502 0.94565 0.09382 0.0
C3161 C 0.97334 0.93569 0.09573 0.0
H3162 H 0.52452 0.94681 0.45498 0.0
H3163 H 0.53131 0.94625 0.21314 0.0
H3164 H 0.5091 0.94846 0.18913 0.0
H3165 H 0.49822 0.92848 0.44931 0.0
H3166 H 0.49007 0.93642 0.52343 0.0
H3167 H 0.50657 0.9365 0.52223 0.0
H3168 H 0.50654 0.96025 0.52362 0.0
H3169 H 0.49001 0.96025 0.52494 0.0
H3170 H 0.49812 0.96849 0.45204 0.0
H3171 H 0.48635 0.94886 0.19064 0.0
H3172 H 0.46425 0.94677 0.21713 0.0
H3173 H 0.47174 0.94664 0.45828 0.0
C3174 C 0.52131 0.94748 0.39712 0.0
C3175 C 0.52959 0.94651 0.33574 0.0
C3176 C 0.52509 0.94704 0.26074 0.0
C3177 C 0.51251 0.94834 0.24664 0.0
C3178 C 0.50454 0.94906 0.30821 0.0
C3179 C 0.50873 0.94865 0.38202 0.0
C3180 C 0.49809 0.94851 0.4376 0.0
C3181 C 0.49825 0.93678 0.48596 0.0
C3182 C 0.4982 0.96006 0.4875 0.0
C3183 C 0.4873 0.94861 0.3834 0.0
C3184 C 0.49127 0.9491 0.3091 0.0
C3185 C 0.48312 0.94861 0.24855 0.0
C3186 C 0.47059 0.94737 0.26415 0.0
C3187 C 0.46629 0.94656 0.33968 0.0
C3188 C 0.47476 0.94744 0.40007 0.0
H3189 H 0.024 0.06025 0.05861 0.0
H3190 H 0.02878 0.04788 0.82708 0.0
H3191 H 0.00659 0.04342 0.81869 0.0
H3192 H -3e-05 0.03841 0.11263 0.0
H3193 H 0.99161 0.0495 0.16807 0.0
H3194 H 0.00801 0.05082 0.15827 0.0
H3195 H 0.00548 0.07295 0.10735 0.0
H3196 H 0.98909 0.0717 0.11704 0.0
H3197 H 0.99571 0.07566 0.02677 0.0
H3198 H 0.98401 0.04091 0.83358 0.0
H3199 H 0.96213 0.04177 0.86713 0.0
H3200 H 0.97153 0.05633 0.08849 0.0
C3201 C 0.02036 0.05644 1.00664 0.0
C3202 C 0.02807 0.05432 0.94354 0.0
C3203 C 0.02299 0.04957 0.87589 0.0
C3204 C 0.01044 0.04696 0.87078 0.0
C3205 C 0.00305 0.04923 0.93368 0.0
C3206 C 0.00778 0.05394 1.00019 0.0
C3207 C 0.99766 0.05627 0.05756 0.0
C3208 C -0.00058 0.04827 0.12832 0.0
C3209 C 0.99695 0.06996 0.07837 0.0
C3210 C 0.98651 0.05225 1.01256 0.0
C3211 C 0.98988 0.04807 0.94167 0.0
C3212 C 0.98126 0.04407 0.88915 0.0
C3213 C 0.96883 0.04451 0.90908 0.0
C3214 C 0.96506 0.04898 0.98086 0.0
C3215 C 0.97409 0.05283 0.03333 0.0
loop_
_geom_bond_atom_site_label_1
_geom_bond_atom_site_label_2
_geom_bond_distance
_geom_bond_site_symmetry_2
_ccdc_geom_bond_type
C0 C1 1.351 . S
C0 N3 1.368 . S
C0 H5 0.931 . S
C1 C0 1.351 . S
C1 N2 1.373 . S
C1 H29 0.930 . S
N2 C1 1.373 . S
N2 C4 1.340 . S
N3 C0 1.368 . S
N3 C4 1.321 . S
N3 Co6 2.135 1_556 S
C4 N2 1.340 . S
C4 N3 1.321 . S
C4 H28 0.930 . S
H5 C0 0.931 . S
Co6 N3 2.135 1_554 S
Co6 N9 2.121 . S
Co6 O14 2.055 . S
Co6 O17 2.039 . S
Co6 N20 2.140 . S
C7 O8 1.227 . S
C7 O17 1.265 . S
O8 C7 1.227 . S
N9 Co6 2.121 . S
N9 C11 1.375 . S
N9 C12 1.313 . S
C10 C11 1.338 . S
C10 N13 1.377 . S
C10 H30 0.930 . S
C11 N9 1.375 . S
C11 C10 1.338 . S
C11 H15 0.931 . S
C12 N9 1.313 . S
C12 N13 1.344 . S
C12 H16 0.930 . S
N13 C10 1.377 . S
N13 C12 1.344 . S
O14 Co6 2.055 . S
O14 C18 1.253 . S
H15 C11 0.931 . S
H16 C12 0.930 . S
O17 Co6 2.039 . S
O17 C7 1.265 . S
C18 O14 1.253 . S
C18 O19 1.227 . S
O19 C18 1.227 . S
N20 Co6 2.140 . S
N20 C23 1.346 1_554 S
N20 C24 1.345 . S
C21 C22 1.387 1_554 S
C21 C25 1.391 . S
C22 C21 1.387 1_556 S
C22 C23 1.369 . S
C22 H31 0.929 . S
C23 N20 1.346 1_556 S
C23 C22 1.369 . S
C23 H26 0.928 . S
C24 N20 1.345 . S
C24 C25 1.371 . S
C24 H27 0.931 . S
C25 C21 1.391 . S
C25 C24 1.371 . S
C25 H32 0.930 . S
H26 C23 0.928 . S
H27 C24 0.931 . S
H28 C4 0.930 . S
H29 C1 0.930 . S
H30 C10 0.930 . S
H31 C22 0.929 . S
H32 C25 0.930 . S
C33 C34 1.351 . S
C33 N36 1.368 . S
C33 H38 0.931 . S
C34 C33 1.351 . S
C34 N35 1.373 . S
C34 H62 0.930 . S
N35 C34 1.373 . S
N35 C37 1.340 . S
N36 C33 1.368 . S
N36 C37 1.321 . S
N36 Co39 2.135 . S
C37 N35 1.340 . S
C37 N36 1.321 . S
C37 H61 0.930 . S
H38 C33 0.931 . S
Co39 N36 2.135 . S
Co39 N42 2.121 . S
Co39 O47 2.055 . S
Co39 O50 2.039 . S
Co39 N53 2.140 . S
C40 O41 1.227 . S
C40 O50 1.265 . S
O41 C40 1.227 . S
N42 Co39 2.121 . S
N42 C44 1.375 . S
N42 C45 1.313 . S
C43 C44 1.338 . S
C43 N46 1.377 . S
C43 H63 0.930 . S
C44 N42 1.375 . S
C44 C43 1.338 . S
C44 H48 0.931 . S
C45 N42 1.313 . S
C45 N46 1.344 . S
C45 H49 0.930 . S
N46 C43 1.377 . S
N46 C45 1.344 . S
O47 Co39 2.055 . S
O47 C51 1.253 . S
H48 C44 0.931 . S
H49 C45 0.930 . S
O50 Co39 2.039 . S
O50 C40 1.265 . S
C51 O47 1.253 . S
C51 O52 1.227 . S
O52 C51 1.227 . S
N53 Co39 2.140 . S
N53 C56 1.346 . S
N53 C57 1.345 . S
C54 C55 1.387 . S
C54 C58 1.391 . S
C55 C54 1.387 . S
C55 C56 1.369 . S
C55 H64 0.929 . S
C56 N53 1.346 . S
C56 C55 1.369 . S
C56 H59 0.928 . S
C57 N53 1.345 . S
C57 C58 1.371 . S
C57 H60 0.931 . S
C58 C54 1.391 . S
C58 C57 1.371 . S
C58 H65 0.930 . S
H59 C56 0.928 . S
H60 C57 0.931 . S
H61 C37 0.930 . S
H62 C34 0.930 . S
H63 C43 0.930 . S
H64 C55 0.929 . S
H65 C58 0.930 . S
C66 C67 1.351 . S
C66 N69 1.368 . S
C66 H71 0.931 . S
C67 C66 1.351 . S
C67 N68 1.373 . S
C67 H95 0.930 . S
N68 C67 1.373 . S
N68 C70 1.340 . S
N69 C66 1.368 . S
N69 C70 1.321 . S
N69 Co72 2.135 . S
C70 N68 1.340 . S
C70 N69 1.321 . S
C70 H94 0.930 . S
H71 C66 0.931 . S
Co72 N69 2.135 . S
Co72 N75 2.121 . S
Co72 O80 2.055 . S
Co72 O83 2.039 . S
Co72 N86 2.140 . S
C73 O74 1.227 . S
C73 O83 1.265 . S
O74 C73 1.227 . S
N75 Co72 2.121 . S
N75 C77 1.375 . S
N75 C78 1.313 . S
C76 C77 1.338 . S
C76 N79 1.377 . S
C76 H96 0.930 . S
C77 N75 1.375 . S
C77 C76 1.338 . S
C77 H81 0.931 . S
C78 N75 1.313 . S
C78 N79 1.344 . S
C78 H82 0.930 . S
N79 C76 1.377 . S
N79 C78 1.344 . S
O80 Co72 2.055 . S
O80 C84 1.253 . S
H81 C77 0.931 . S
H82 C78 0.930 . S
O83 Co72 2.039 . S
O83 C73 1.265 . S
C84 O80 1.253 . S
C84 O85 1.227 . S
O85 C84 1.227 . S
N86 Co72 2.140 . S
N86 C89 1.346 . S
N86 C90 1.345 . S
C87 C88 1.387 . S
C87 C91 1.391 . S
C88 C87 1.387 . S
C88 C89 1.369 . S
C88 H97 0.929 . S
C89 N86 1.346 . S
C89 C88 1.369 . S
C89 H92 0.928 . S
C90 N86 1.345 . S
C90 C91 1.371 . S
C90 H93 0.931 . S
C91 C87 1.391 . S
C91 C90 1.371 . S
C91 H98 0.930 . S
H92 C89 0.928 . S
H93 C90 0.931 . S
H94 C70 0.930 . S
H95 C67 0.930 . S
H96 C76 0.930 . S
H97 C88 0.929 . S
H98 C91 0.930 . S
C99 C100 1.351 . S
C99 N102 1.368 . S
C99 H104 0.931 . S
C100 C99 1.351 . S
C100 N101 1.373 . S
C100 H128 0.930 . S
N101 C100 1.373 . S
N101 C103 1.340 . S
N102 C99 1.368 . S
N102 C103 1.321 . S
N102 Co105 2.135 . S
C103 N101 1.340 . S
C103 N102 1.321 . S
C103 H127 0.930 . S
H104 C99 0.931 . S
Co105 N102 2.135 . S
Co105 N108 2.121 . S
Co105 O113 2.055 . S
Co105 O116 2.039 . S
Co105 N119 2.140 . S
C106 O107 1.227 . S
C106 O116 1.265 . S
O107 C106 1.227 . S
N108 Co105 2.121 . S
N108 C110 1.375 . S
N108 C111 1.313 . S
C109 C110 1.338 1_554 S
C109 N112 1.377 . S
C109 H129 0.930 . S
C110 N108 1.375 . S
C110 C109 1.338 1_556 S
C110 H114 0.931 . S
C111 N108 1.313 . S
C111 N112 1.344 1_556 S
C111 H115 0.930 . S
N112 C109 1.377 . S
N112 C111 1.344 1_554 S
O113 Co105 2.055 . S
O113 C117 1.253 . S
H114 C110 0.931 . S
H115 C111 0.930 . S
O116 Co105 2.039 . S
O116 C106 1.265 . S
C117 O113 1.253 . S
C117 O118 1.227 . S
O118 C117 1.227 . S
N119 Co105 2.140 . S
N119 C122 1.346 . S
N119 C123 1.345 . S
C120 C121 1.387 . S
C120 C124 1.391 . S
C121 C120 1.387 . S
C121 C122 1.369 . S
C121 H130 0.929 . S
C122 N119 1.346 . S
C122 C121 1.369 . S
C122 H125 0.928 . S
C123 N119 1.345 . S
C123 C124 1.371 . S
C123 H126 0.931 . S
C124 C120 1.391 . S
C124 C123 1.371 . S
C124 H131 0.930 . S
H125 C122 0.928 . S
H126 C123 0.931 . S
H127 C103 0.930 . S
H128 C100 0.930 . S
H129 C109 0.930 . S
H130 C121 0.929 . S
H131 C124 0.930 . S
C132 C133 1.351 . S
C132 N135 1.368 . S
C132 H137 0.931 . S
C133 C132 1.351 . S
C133 N134 1.373 . S
C133 H161 0.930 . S
N134 C133 1.373 . S
N134 C136 1.340 . S
N135 C132 1.368 . S
N135 C136 1.321 . S
N135 Co138 2.135 1_554 S
C136 N134 1.340 . S
C136 N135 1.321 . S
C136 H160 0.930 . S
H137 C132 0.931 . S
Co138 N135 2.135 1_556 S
Co138 N141 2.121 . S
Co138 O146 2.055 . S
Co138 O149 2.039 . S
Co138 N152 2.140 . S
C139 O140 1.227 . S
C139 O149 1.265 . S
O140 C139 1.227 . S
N141 Co138 2.121 . S
N141 C143 1.375 . S
N141 C144 1.313 . S
C142 C143 1.338 . S
C142 N145 1.377 . S
C142 H162 0.930 . S
C143 N141 1.375 . S
C143 C142 1.338 . S
C143 H147 0.931 . S
C144 N141 1.313 . S
C144 N145 1.344 . S
C144 H148 0.930 . S
N145 C142 1.377 . S
N145 C144 1.344 . S
O146 Co138 2.055 . S
O146 C150 1.253 . S
H147 C143 0.931 . S
H148 C144 0.930 . S
O149 Co138 2.039 . S
O149 C139 1.265 . S
C150 O146 1.253 . S
C150 O151 1.227 . S
O151 C150 1.227 . S
N152 Co138 2.140 . S
N152 C155 1.346 1_556 S
N152 C156 1.345 . S
C153 C154 1.387 1_556 S
C153 C157 1.391 . S
C154 C153 1.387 1_554 S
C154 C155 1.369 . S
C154 H163 0.929 . S
C155 N152 1.346 1_554 S
C155 C154 1.369 . S
C155 H158 0.928 . S
C156 N152 1.345 . S
C156 C157 1.371 . S
C156 H159 0.931 . S
C157 C153 1.391 . S
C157 C156 1.371 . S
C157 H164 0.930 . S
H158 C155 0.928 . S
H159 C156 0.931 . S
H160 C136 0.930 . S
H161 C133 0.930 . S
H162 C142 0.930 . S
H163 C154 0.929 . S
H164 C157 0.930 . S
C165 C166 1.351 . S
C165 N168 1.368 . S
C165 H170 0.931 . S
C166 C165 1.351 . S
C166 N167 1.373 . S
C166 H194 0.930 . S
N167 C166 1.373 . S
N167 C169 1.340 . S
N168 C165 1.368 . S
N168 C169 1.321 . S
N168 Co171 2.135 . S
C169 N167 1.340 . S
C169 N168 1.321 . S
C169 H193 0.930 . S
H170 C165 0.931 . S
Co171 N168 2.135 . S
Co171 N174 2.121 . S
Co171 O179 2.055 . S
Co171 O182 2.039 . S
Co171 N185 2.140 . S
C172 O173 1.227 . S
C172 O182 1.265 . S
O173 C172 1.227 . S
N174 Co171 2.121 . S
N174 C176 1.375 . S
N174 C177 1.313 . S
C175 C176 1.338 1_556 S
C175 N178 1.377 . S
C175 H195 0.930 . S
C176 N174 1.375 . S
C176 C175 1.338 1_554 S
C176 H180 0.931 . S
C177 N174 1.313 . S
C177 N178 1.344 1_554 S
C177 H181 0.930 . S
N178 C175 1.377 . S
N178 C177 1.344 1_556 S
O179 Co171 2.055 . S
O179 C183 1.253 . S
H180 C176 0.931 . S
H181 C177 0.930 . S
O182 Co171 2.039 . S
O182 C172 1.265 . S
C183 O179 1.253 . S
C183 O184 1.227 . S
O184 C183 1.227 . S
N185 Co171 2.140 . S
N185 C188 1.346 . S
N185 C189 1.345 . S
C186 C187 1.387 . S
C186 C190 1.391 . S
C187 C186 1.387 . S
C187 C188 1.369 . S
C187 H196 0.929 . S
C188 N185 1.346 . S
C188 C187 1.369 . S
C188 H191 0.928 . S
C189 N185 1.345 . S
C189 C190 1.371 . S
C189 H192 0.931 . S
C190 C186 1.391 . S
C190 C189 1.371 . S
C190 H197 0.930 . S
H191 C188 0.928 . S
H192 C189 0.931 . S
H193 C169 0.930 . S
H194 C166 0.930 . S
H195 C175 0.930 . S
H196 C187 0.929 . S
H197 C190 0.930 . S
C198 C199 1.351 . S
C198 N201 1.368 . S
C198 H203 0.931 . S
C199 C198 1.351 . S
C199 N200 1.373 . S
C199 H227 0.930 . S
N200 C199 1.373 . S
N200 C202 1.340 . S
N201 C198 1.368 . S
N201 C202 1.321 . S
N201 Co204 2.135 . S
C202 N200 1.340 . S
C202 N201 1.321 . S
C202 H226 0.930 . S
H203 C198 0.931 . S
Co204 N201 2.135 . S
Co204 N207 2.121 . S
Co204 O212 2.055 . S
Co204 O215 2.039 . S
Co204 N218 2.140 . S
C205 O206 1.227 . S
C205 O215 1.265 . S
O206 C205 1.227 . S
N207 Co204 2.121 . S
N207 C209 1.375 . S
N207 C210 1.313 . S
C208 C209 1.338 . S
C208 N211 1.377 . S
C208 H228 0.930 . S
C209 N207 1.375 . S
C209 C208 1.338 . S
C209 H213 0.931 . S
C210 N207 1.313 . S
C210 N211 1.344 . S
C210 H214 0.930 . S
N211 C208 1.377 . S
N211 C210 1.344 . S
O212 Co204 2.055 . S
O212 C216 1.253 . S
H213 C209 0.931 . S
H214 C210 0.930 . S
O215 Co204 2.039 . S
O215 C205 1.265 . S
C216 O212 1.253 . S
C216 O217 1.227 . S
O217 C216 1.227 . S
N218 Co204 2.140 . S
N218 C221 1.346 . S
N218 C222 1.345 . S
C219 C220 1.387 . S
C219 C223 1.391 . S
C220 C219 1.387 . S
C220 C221 1.369 . S
C220 H229 0.929 . S
C221 N218 1.346 . S
C221 C220 1.369 . S
C221 H224 0.928 . S
C222 N218 1.345 . S
C222 C223 1.371 . S
C222 H225 0.931 . S
C223 C219 1.391 . S
C223 C222 1.371 . S
C223 H230 0.930 . S
H224 C221 0.928 . S
H225 C222 0.931 . S
H226 C202 0.930 . S
H227 C199 0.930 . S
H228 C208 0.930 . S
H229 C220 0.929 . S
H230 C223 0.930 . S
C231 C232 1.351 . S
C231 N234 1.368 . S
C231 H236 0.931 . S
C232 C231 1.351 . S
C232 N233 1.373 . S
C232 H260 0.930 . S
N233 C232 1.373 . S
N233 C235 1.340 . S
N234 C231 1.368 . S
N234 C235 1.321 . S
N234 Co237 2.135 . S
C235 N233 1.340 . S
C235 N234 1.321 . S
C235 H259 0.930 . S
H236 C231 0.931 . S
Co237 N234 2.135 . S
Co237 N240 2.121 . S
Co237 O245 2.055 . S
Co237 O248 2.039 . S
Co237 N251 2.140 . S
C238 O239 1.227 . S
C238 O248 1.265 . S
O239 C238 1.227 . S
N240 Co237 2.121 . S
N240 C242 1.375 . S
N240 C243 1.313 . S
C241 C242 1.338 . S
C241 N244 1.377 . S
C241 H261 0.930 . S
C242 N240 1.375 . S
C242 C241 1.338 . S
C242 H246 0.931 . S
C243 N240 1.313 . S
C243 N244 1.344 . S
C243 H247 0.930 . S
N244 C241 1.377 . S
N244 C243 1.344 . S
O245 Co237 2.055 . S
O245 C249 1.253 . S
H246 C242 0.931 . S
H247 C243 0.930 . S
O248 Co237 2.039 . S
O248 C238 1.265 . S
C249 O245 1.253 . S
C249 O250 1.227 . S
O250 C249 1.227 . S
N251 Co237 2.140 . S
N251 C254 1.346 . S
N251 C255 1.345 . S
C252 C253 1.387 . S
C252 C256 1.391 . S
C253 C252 1.387 . S
C253 C254 1.369 . S
C253 H262 0.929 . S
C254 N251 1.346 . S
C254 C253 1.369 . S
C254 H257 0.928 . S
C255 N251 1.345 . S
C255 C256 1.371 . S
C255 H258 0.931 . S
C256 C252 1.391 . S
C256 C255 1.371 . S
C256 H263 0.930 . S
H257 C254 0.928 . S
H258 C255 0.931 . S
H259 C235 0.930 . S
H260 C232 0.930 . S
H261 C241 0.930 . S
H262 C253 0.929 . S
H263 C256 0.930 . S
C264 C265 1.351 . S
C264 N267 1.368 . S
C264 H269 0.931 . S
C265 C264 1.351 . S
C265 N266 1.373 . S
C265 H293 0.930 . S
N266 C265 1.373 . S
N266 C268 1.340 . S
N267 C264 1.368 . S
N267 C268 1.321 . S
N267 Co270 2.135 1_554 S
C268 N266 1.340 . S
C268 N267 1.321 . S
C268 H292 0.930 . S
H269 C264 0.931 . S
Co270 N267 2.135 1_556 S
Co270 N273 2.121 . S
Co270 O278 2.055 . S
Co270 O281 2.039 . S
Co270 N284 2.140 . S
C271 O272 1.227 . S
C271 O281 1.265 . S
O272 C271 1.227 . S
N273 Co270 2.121 . S
N273 C275 1.375 . S
N273 C276 1.313 . S
C274 C275 1.338 . S
C274 N277 1.377 . S
C274 H294 0.930 . S
C275 N273 1.375 . S
C275 C274 1.338 . S
C275 H279 0.931 . S
C276 N273 1.313 . S
C276 N277 1.344 . S
C276 H280 0.930 . S
N277 C274 1.377 . S
N277 C276 1.344 . S
O278 Co270 2.055 . S
O278 C282 1.253 . S
H279 C275 0.931 . S
H280 C276 0.930 . S
O281 Co270 2.039 . S
O281 C271 1.265 . S
C282 O278 1.253 . S
C282 O283 1.227 . S
O283 C282 1.227 . S
N284 Co270 2.140 . S
N284 C287 1.346 1_556 S
N284 C288 1.345 . S
C285 C286 1.387 1_556 S
C285 C289 1.391 . S
C286 C285 1.387 1_554 S
C286 C287 1.369 . S
C286 H295 0.929 . S
C287 N284 1.346 1_554 S
C287 C286 1.369 . S
C287 H290 0.928 . S
C288 N284 1.345 . S
C288 C289 1.371 . S
C288 H291 0.931 . S
C289 C285 1.391 . S
C289 C288 1.371 . S
C289 H296 0.930 . S
H290 C287 0.928 . S
H291 C288 0.931 . S
H292 C268 0.930 . S
H293 C265 0.930 . S
H294 C274 0.930 . S
H295 C286 0.929 . S
H296 C289 0.930 . S
C297 C298 1.351 . S
C297 N300 1.368 . S
C297 H302 0.931 . S
C298 C297 1.351 . S
C298 N299 1.373 . S
C298 H326 0.930 . S
N299 C298 1.373 . S
N299 C301 1.340 . S
N300 C297 1.368 . S
N300 C301 1.321 . S
N300 Co303 2.135 . S
C301 N299 1.340 . S
C301 N300 1.321 . S
C301 H325 0.930 . S
H302 C297 0.931 . S
Co303 N300 2.135 . S
Co303 N306 2.121 . S
Co303 O311 2.055 . S
Co303 O314 2.039 . S
Co303 N317 2.140 . S
C304 O305 1.227 . S
C304 O314 1.265 . S
O305 C304 1.227 . S
N306 Co303 2.121 . S
N306 C308 1.375 . S
N306 C309 1.313 . S
C307 C308 1.338 . S
C307 N310 1.377 . S
C307 H327 0.930 . S
C308 N306 1.375 . S
C308 C307 1.338 . S
C308 H312 0.931 . S
C309 N306 1.313 . S
C309 N310 1.344 . S
C309 H313 0.930 . S
N310 C307 1.377 . S
N310 C309 1.344 . S
O311 Co303 2.055 . S
O311 C315 1.253 . S
H312 C308 0.931 . S
H313 C309 0.930 . S
O314 Co303 2.039 . S
O314 C304 1.265 . S
C315 O311 1.253 . S
C315 O316 1.227 . S
O316 C315 1.227 . S
N317 Co303 2.140 . S
N317 C320 1.346 . S
N317 C321 1.345 . S
C318 C319 1.387 . S
C318 C322 1.391 . S
C319 C318 1.387 . S
C319 C320 1.369 . S
C319 H328 0.929 . S
C320 N317 1.346 . S
C320 C319 1.369 . S
C320 H323 0.928 . S
C321 N317 1.345 . S
C321 C322 1.371 . S
C321 H324 0.931 . S
C322 C318 1.391 . S
C322 C321 1.371 . S
C322 H329 0.930 . S
H323 C320 0.928 . S
H324 C321 0.931 . S
H325 C301 0.930 . S
H326 C298 0.930 . S
H327 C307 0.930 . S
H328 C319 0.929 . S
H329 C322 0.930 . S
C330 C331 1.351 . S
C330 N333 1.368 . S
C330 H335 0.931 . S
C331 C330 1.351 . S
C331 N332 1.373 . S
C331 H359 0.930 . S
N332 C331 1.373 . S
N332 C334 1.340 . S
N333 C330 1.368 . S
N333 C334 1.321 . S
N333 Co336 2.135 . S
C334 N332 1.340 . S
C334 N333 1.321 . S
C334 H358 0.930 . S
H335 C330 0.931 . S
Co336 N333 2.135 . S
Co336 N339 2.121 . S
Co336 O344 2.055 . S
Co336 O347 2.039 . S
Co336 N350 2.140 . S
C337 O338 1.227 . S
C337 O347 1.265 . S
O338 C337 1.227 . S
N339 Co336 2.121 . S
N339 C341 1.375 . S
N339 C342 1.313 . S
C340 C341 1.338 . S
C340 N343 1.377 . S
C340 H360 0.930 . S
C341 N339 1.375 . S
C341 C340 1.338 . S
C341 H345 0.931 . S
C342 N339 1.313 . S
C342 N343 1.344 . S
C342 H346 0.930 . S
N343 C340 1.377 . S
N343 C342 1.344 . S
O344 Co336 2.055 . S
O344 C348 1.253 . S
H345 C341 0.931 . S
H346 C342 0.930 . S
O347 Co336 2.039 . S
O347 C337 1.265 . S
C348 O344 1.253 . S
C348 O349 1.227 . S
O349 C348 1.227 . S
N350 Co336 2.140 . S
N350 C353 1.346 . S
N350 C354 1.345 . S
C351 C352 1.387 . S
C351 C355 1.391 . S
C352 C351 1.387 . S
C352 C353 1.369 . S
C352 H361 0.929 . S
C353 N350 1.346 . S
C353 C352 1.369 . S
C353 H356 0.928 . S
C354 N350 1.345 . S
C354 C355 1.371 . S
C354 H357 0.931 . S
C355 C351 1.391 . S
C355 C354 1.371 . S
C355 H362 0.930 . S
H356 C353 0.928 . S
H357 C354 0.931 . S
H358 C334 0.930 . S
H359 C331 0.930 . S
H360 C340 0.930 . S
H361 C352 0.929 . S
H362 C355 0.930 . S
C363 C364 1.351 . S
C363 N366 1.368 . S
C363 H368 0.931 . S
C364 C363 1.351 . S
C364 N365 1.373 . S
C364 H392 0.930 . S
N365 C364 1.373 . S
N365 C367 1.340 . S
N366 C363 1.368 . S
N366 C367 1.321 . S
N366 Co369 2.135 . S
C367 N365 1.340 . S
C367 N366 1.321 . S
C367 H391 0.930 . S
H368 C363 0.931 . S
Co369 N366 2.135 . S
Co369 N372 2.121 . S
Co369 O377 2.055 . S
Co369 O380 2.039 . S
Co369 N383 2.140 . S
C370 O371 1.227 . S
C370 O380 1.265 . S
O371 C370 1.227 . S
N372 Co369 2.121 . S
N372 C374 1.375 . S
N372 C375 1.313 . S
C373 C374 1.338 1_556 S
C373 N376 1.377 . S
C373 H393 0.930 . S
C374 N372 1.375 . S
C374 C373 1.338 1_554 S
C374 H378 0.931 . S
C375 N372 1.313 . S
C375 N376 1.344 1_554 S
C375 H379 0.930 . S
N376 C373 1.377 . S
N376 C375 1.344 1_556 S
O377 Co369 2.055 . S
O377 C381 1.253 . S
H378 C374 0.931 . S
H379 C375 0.930 . S
O380 Co369 2.039 . S
O380 C370 1.265 . S
C381 O377 1.253 . S
C381 O382 1.227 . S
O382 C381 1.227 . S
N383 Co369 2.140 . S
N383 C386 1.346 . S
N383 C387 1.345 . S
C384 C385 1.387 . S
C384 C388 1.391 . S
C385 C384 1.387 . S
C385 C386 1.369 . S
C385 H394 0.929 . S
C386 N383 1.346 . S
C386 C385 1.369 . S
C386 H389 0.928 . S
C387 N383 1.345 . S
C387 C388 1.371 . S
C387 H390 0.931 . S
C388 C384 1.391 . S
C388 C387 1.371 . S
C388 H395 0.930 . S
H389 C386 0.928 . S
H390 C387 0.931 . S
H391 C367 0.930 . S
H392 C364 0.930 . S
H393 C373 0.930 . S
H394 C385 0.929 . S
H395 C388 0.930 . S
C396 C397 1.351 . S
C396 N399 1.368 . S
C396 H401 0.931 . S
C397 C396 1.351 . S
C397 N398 1.373 . S
C397 H425 0.930 . S
N398 C397 1.373 . S
N398 C400 1.340 . S
N399 C396 1.368 . S
N399 C400 1.321 . S
N399 Co402 2.135 1_556 S
C400 N398 1.340 . S
C400 N399 1.321 . S
C400 H424 0.930 . S
H401 C396 0.931 . S
Co402 N399 2.135 1_554 S
Co402 N405 2.121 . S
Co402 O410 2.055 . S
Co402 O413 2.039 . S
Co402 N416 2.140 . S
C403 O404 1.227 . S
C403 O413 1.265 . S
O404 C403 1.227 . S
N405 Co402 2.121 . S
N405 C407 1.375 . S
N405 C408 1.313 . S
C406 C407 1.338 . S
C406 N409 1.377 . S
C406 H426 0.930 . S
C407 N405 1.375 . S
C407 C406 1.338 . S
C407 H411 0.931 . S
C408 N405 1.313 . S
C408 N409 1.344 . S
C408 H412 0.930 . S
N409 C406 1.377 . S
N409 C408 1.344 . S
O410 Co402 2.055 . S
O410 C414 1.253 . S
H411 C407 0.931 . S
H412 C408 0.930 . S
O413 Co402 2.039 . S
O413 C403 1.265 . S
C414 O410 1.253 . S
C414 O415 1.227 . S
O415 C414 1.227 . S
N416 Co402 2.140 . S
N416 C419 1.346 1_554 S
N416 C420 1.345 . S
C417 C418 1.387 1_554 S
C417 C421 1.391 . S
C418 C417 1.387 1_556 S
C418 C419 1.369 . S
C418 H427 0.929 . S
C419 N416 1.346 1_556 S
C419 C418 1.369 . S
C419 H422 0.928 . S
C420 N416 1.345 . S
C420 C421 1.371 . S
C420 H423 0.931 . S
C421 C417 1.391 . S
C421 C420 1.371 . S
C421 H428 0.930 . S
H422 C419 0.928 . S
H423 C420 0.931 . S
H424 C400 0.930 . S
H425 C397 0.930 . S
H426 C406 0.930 . S
H427 C418 0.929 . S
H428 C421 0.930 . S
C429 C430 1.351 . S
C429 N432 1.368 . S
C429 H434 0.931 . S
C430 C429 1.351 . S
C430 N431 1.373 . S
C430 H458 0.930 . S
N431 C430 1.373 . S
N431 C433 1.340 . S
N432 C429 1.368 . S
N432 C433 1.321 . S
N432 Co435 2.135 . S
C433 N431 1.340 . S
C433 N432 1.321 . S
C433 H457 0.930 . S
H434 C429 0.931 . S
Co435 N432 2.135 . S
Co435 N438 2.121 . S
Co435 O443 2.055 . S
Co435 O446 2.039 . S
Co435 N449 2.140 . S
C436 O437 1.227 . S
C436 O446 1.265 . S
O437 C436 1.227 . S
N438 Co435 2.121 . S
N438 C440 1.375 . S
N438 C441 1.313 . S
C439 C440 1.338 1_554 S
C439 N442 1.377 . S
C439 H459 0.930 . S
C440 N438 1.375 . S
C440 C439 1.338 1_556 S
C440 H444 0.931 . S
C441 N438 1.313 . S
C441 N442 1.344 1_556 S
C441 H445 0.930 . S
N442 C439 1.377 . S
N442 C441 1.344 1_554 S
O443 Co435 2.055 . S
O443 C447 1.253 . S
H444 C440 0.931 . S
H445 C441 0.930 . S
O446 Co435 2.039 . S
O446 C436 1.265 . S
C447 O443 1.253 . S
C447 O448 1.227 . S
O448 C447 1.227 . S
N449 Co435 2.140 . S
N449 C452 1.346 . S
N449 C453 1.345 . S
C450 C451 1.387 . S
C450 C454 1.391 . S
C451 C450 1.387 . S
C451 C452 1.369 . S
C451 H460 0.929 . S
C452 N449 1.346 . S
C452 C451 1.369 . S
C452 H455 0.928 . S
C453 N449 1.345 . S
C453 C454 1.371 . S
C453 H456 0.931 . S
C454 C450 1.391 . S
C454 C453 1.371 . S
C454 H461 0.930 . S
H455 C452 0.928 . S
H456 C453 0.931 . S
H457 C433 0.930 . S
H458 C430 0.930 . S
H459 C439 0.930 . S
H460 C451 0.929 . S
H461 C454 0.930 . S
C462 C463 1.351 . S
C462 N465 1.368 . S
C462 H467 0.931 . S
C463 C462 1.351 . S
C463 N464 1.373 . S
C463 H491 0.930 . S
N464 C463 1.373 . S
N464 C466 1.340 . S
N465 C462 1.368 . S
N465 C466 1.321 . S
N465 Co468 2.135 . S
C466 N464 1.340 . S
C466 N465 1.321 . S
C466 H490 0.930 . S
H467 C462 0.931 . S
Co468 N465 2.135 . S
Co468 N471 2.121 . S
Co468 O476 2.055 . S
Co468 O479 2.039 . S
Co468 N482 2.140 . S
C469 O470 1.227 . S
C469 O479 1.265 . S
O470 C469 1.227 . S
N471 Co468 2.121 . S
N471 C473 1.375 . S
N471 C474 1.313 . S
C472 C473 1.338 . S
C472 N475 1.377 . S
C472 H492 0.930 . S
C473 N471 1.375 . S
C473 C472 1.338 . S
C473 H477 0.931 . S
C474 N471 1.313 . S
C474 N475 1.344 . S
C474 H478 0.930 . S
N475 C472 1.377 . S
N475 C474 1.344 . S
O476 Co468 2.055 . S
O476 C480 1.253 . S
H477 C473 0.931 . S
H478 C474 0.930 . S
O479 Co468 2.039 . S
O479 C469 1.265 . S
C480 O476 1.253 . S
C480 O481 1.227 . S
O481 C480 1.227 . S
N482 Co468 2.140 . S
N482 C485 1.346 . S
N482 C486 1.345 . S
C483 C484 1.387 . S
C483 C487 1.391 . S
C484 C483 1.387 . S
C484 C485 1.369 . S
C484 H493 0.929 . S
C485 N482 1.346 . S
C485 C484 1.369 . S
C485 H488 0.928 . S
C486 N482 1.345 . S
C486 C487 1.371 . S
C486 H489 0.931 . S
C487 C483 1.391 . S
C487 C486 1.371 . S
C487 H494 0.930 . S
H488 C485 0.928 . S
H489 C486 0.931 . S
H490 C466 0.930 . S
H491 C463 0.930 . S
H492 C472 0.930 . S
H493 C484 0.929 . S
H494 C487 0.930 . S
C495 C496 1.351 . S
C495 N498 1.368 . S
C495 H500 0.931 . S
C496 C495 1.351 . S
C496 N497 1.373 . S
C496 H524 0.930 . S
N497 C496 1.373 . S
N497 C499 1.340 . S
N498 C495 1.368 . S
N498 C499 1.321 . S
N498 Co501 2.135 . S
C499 N497 1.340 . S
C499 N498 1.321 . S
C499 H523 0.930 . S
H500 C495 0.931 . S
Co501 N498 2.135 . S
Co501 N504 2.121 . S
Co501 O509 2.055 . S
Co501 O512 2.039 . S
Co501 N515 2.140 . S
C502 O503 1.227 . S
C502 O512 1.265 . S
O503 C502 1.227 . S
N504 Co501 2.121 . S
N504 C506 1.375 . S
N504 C507 1.313 . S
C505 C506 1.338 . S
C505 N508 1.377 . S
C505 H525 0.930 . S
C506 N504 1.375 . S
C506 C505 1.338 . S
C506 H510 0.931 . S
C507 N504 1.313 . S
C507 N508 1.344 . S
C507 H511 0.930 . S
N508 C505 1.377 . S
N508 C507 1.344 . S
O509 Co501 2.055 . S
O509 C513 1.253 . S
H510 C506 0.931 . S
H511 C507 0.930 . S
O512 Co501 2.039 . S
O512 C502 1.265 . S
C513 O509 1.253 . S
C513 O514 1.227 . S
O514 C513 1.227 . S
N515 Co501 2.140 . S
N515 C518 1.346 . S
N515 C519 1.345 . S
C516 C517 1.387 . S
C516 C520 1.391 . S
C517 C516 1.387 . S
C517 C518 1.369 . S
C517 H526 0.929 . S
C518 N515 1.346 . S
C518 C517 1.369 . S
C518 H521 0.928 . S
C519 N515 1.345 . S
C519 C520 1.371 . S
C519 H522 0.931 . S
C520 C516 1.391 . S
C520 C519 1.371 . S
C520 H527 0.930 . S
H521 C518 0.928 . S
H522 C519 0.931 . S
H523 C499 0.930 . S
H524 C496 0.930 . S
H525 C505 0.930 . S
H526 C517 0.929 . S
H527 C520 0.930 . S
C528 C529 1.351 . S
C528 N531 1.368 . S
C528 H533 0.931 . S
C529 C528 1.351 . S
C529 N530 1.373 . S
C529 H557 0.930 . S
N530 C529 1.373 . S
N530 C532 1.340 . S
N531 C528 1.368 . S
N531 C532 1.321 . S
N531 Co534 2.135 . S
C532 N530 1.340 . S
C532 N531 1.321 . S
C532 H556 0.930 . S
H533 C528 0.931 . S
Co534 N531 2.135 . S
Co534 N537 2.121 . S
Co534 O542 2.055 . S
Co534 O545 2.039 . S
Co534 N548 2.140 . S
C535 O536 1.227 . S
C535 O545 1.265 . S
O536 C535 1.227 . S
N537 Co534 2.121 . S
N537 C539 1.375 . S
N537 C540 1.313 . S
C538 C539 1.338 . S
C538 N541 1.377 . S
C538 H558 0.930 . S
C539 N537 1.375 . S
C539 C538 1.338 . S
C539 H543 0.931 . S
C540 N537 1.313 . S
C540 N541 1.344 . S
C540 H544 0.930 . S
N541 C538 1.377 . S
N541 C540 1.344 . S
O542 Co534 2.055 . S
O542 C546 1.253 . S
H543 C539 0.931 . S
H544 C540 0.930 . S
O545 Co534 2.039 . S
O545 C535 1.265 . S
C546 O542 1.253 . S
C546 O547 1.227 . S
O547 C546 1.227 . S
N548 Co534 2.140 . S
N548 C551 1.346 . S
N548 C552 1.345 . S
C549 C550 1.387 . S
C549 C553 1.391 . S
C550 C549 1.387 . S
C550 C551 1.369 . S
C550 H559 0.929 . S
C551 N548 1.346 . S
C551 C550 1.369 . S
C551 H554 0.928 . S
C552 N548 1.345 . S
C552 C553 1.371 . S
C552 H555 0.931 . S
C553 C549 1.391 . S
C553 C552 1.371 . S
C553 H560 0.930 . S
H554 C551 0.928 . S
H555 C552 0.931 . S
H556 C532 0.930 . S
H557 C529 0.930 . S
H558 C538 0.930 . S
H559 C550 0.929 . S
H560 C553 0.930 . S
C561 C562 1.351 . S
C561 N564 1.368 . S
C561 H566 0.931 . S
C562 C561 1.351 . S
C562 N563 1.373 . S
C562 H590 0.930 . S
N563 C562 1.373 . S
N563 C565 1.340 . S
N564 C561 1.368 . S
N564 C565 1.321 . S
N564 Co567 2.135 . S
C565 N563 1.340 . S
C565 N564 1.321 . S
C565 H589 0.930 . S
H566 C561 0.931 . S
Co567 N564 2.135 . S
Co567 N570 2.121 . S
Co567 O575 2.055 . S
Co567 O578 2.039 . S
Co567 N581 2.140 . S
C568 O569 1.227 . S
C568 O578 1.265 . S
O569 C568 1.227 . S
N570 Co567 2.121 . S
N570 C572 1.375 . S
N570 C573 1.313 . S
C571 C572 1.338 1_554 S
C571 N574 1.377 . S
C571 H591 0.930 . S
C572 N570 1.375 . S
C572 C571 1.338 1_556 S
C572 H576 0.931 . S
C573 N570 1.313 . S
C573 N574 1.344 1_556 S
C573 H577 0.930 . S
N574 C571 1.377 . S
N574 C573 1.344 1_554 S
O575 Co567 2.055 . S
O575 C579 1.253 . S
H576 C572 0.931 . S
H577 C573 0.930 . S
O578 Co567 2.039 . S
O578 C568 1.265 . S
C579 O575 1.253 . S
C579 O580 1.227 . S
O580 C579 1.227 . S
N581 Co567 2.140 . S
N581 C584 1.346 . S
N581 C585 1.345 . S
C582 C583 1.387 . S
C582 C586 1.391 . S
C583 C582 1.387 . S
C583 C584 1.369 . S
C583 H592 0.929 . S
C584 N581 1.346 . S
C584 C583 1.369 . S
C584 H587 0.928 . S
C585 N581 1.345 . S
C585 C586 1.371 . S
C585 H588 0.931 . S
C586 C582 1.391 . S
C586 C585 1.371 . S
C586 H593 0.930 . S
H587 C584 0.928 . S
H588 C585 0.931 . S
H589 C565 0.930 . S
H590 C562 0.930 . S
H591 C571 0.930 . S
H592 C583 0.929 . S
H593 C586 0.930 . S
C594 C595 1.351 . S
C594 N597 1.368 . S
C594 H599 0.931 . S
C595 C594 1.351 . S
C595 N596 1.373 . S
C595 H623 0.930 . S
N596 C595 1.373 . S
N596 C598 1.340 . S
N597 C594 1.368 . S
N597 C598 1.321 . S
N597 Co600 2.135 1_556 S
C598 N596 1.340 . S
C598 N597 1.321 . S
C598 H622 0.930 . S
H599 C594 0.931 . S
Co600 N597 2.135 1_554 S
Co600 N603 2.121 . S
Co600 O608 2.055 . S
Co600 O611 2.039 . S
Co600 N614 2.140 . S
C601 O602 1.227 . S
C601 O611 1.265 . S
O602 C601 1.227 . S
N603 Co600 2.121 . S
N603 C605 1.375 . S
N603 C606 1.313 . S
C604 C605 1.338 . S
C604 N607 1.377 . S
C604 H624 0.930 . S
C605 N603 1.375 . S
C605 C604 1.338 . S
C605 H609 0.931 . S
C606 N603 1.313 . S
C606 N607 1.344 . S
C606 H610 0.930 . S
N607 C604 1.377 . S
N607 C606 1.344 . S
O608 Co600 2.055 . S
O608 C612 1.253 . S
H609 C605 0.931 . S
H610 C606 0.930 . S
O611 Co600 2.039 . S
O611 C601 1.265 . S
C612 O608 1.253 . S
C612 O613 1.227 . S
O613 C612 1.227 . S
N614 Co600 2.140 . S
N614 C617 1.346 1_554 S
N614 C618 1.345 . S
C615 C616 1.387 1_554 S
C615 C619 1.391 . S
C616 C615 1.387 1_556 S
C616 C617 1.369 . S
C616 H625 0.929 . S
C617 N614 1.346 1_556 S
C617 C616 1.369 . S
C617 H620 0.928 . S
C618 N614 1.345 . S
C618 C619 1.371 . S
C618 H621 0.931 . S
C619 C615 1.391 . S
C619 C618 1.371 . S
C619 H626 0.930 . S
H620 C617 0.928 . S
H621 C618 0.931 . S
H622 C598 0.930 . S
H623 C595 0.930 . S
H624 C604 0.930 . S
H625 C616 0.929 . S
H626 C619 0.930 . S
C627 C628 1.351 . S
C627 N630 1.368 . S
C627 H632 0.931 . S
C628 C627 1.351 . S
C628 N629 1.373 . S
C628 H656 0.930 . S
N629 C628 1.373 . S
N629 C631 1.340 . S
N630 C627 1.368 . S
N630 C631 1.321 . S
N630 Co633 2.135 . S
C631 N629 1.340 . S
C631 N630 1.321 . S
C631 H655 0.930 . S
H632 C627 0.931 . S
Co633 N630 2.135 . S
Co633 N636 2.121 . S
Co633 O641 2.055 . S
Co633 O644 2.039 . S
Co633 N647 2.140 . S
C634 O635 1.227 . S
C634 O644 1.265 . S
O635 C634 1.227 . S
N636 Co633 2.121 . S
N636 C638 1.375 . S
N636 C639 1.313 . S
C637 C638 1.338 . S
C637 N640 1.377 . S
C637 H657 0.930 . S
C638 N636 1.375 . S
C638 C637 1.338 . S
C638 H642 0.931 . S
C639 N636 1.313 . S
C639 N640 1.344 . S
C639 H643 0.930 . S
N640 C637 1.377 . S
N640 C639 1.344 . S
O641 Co633 2.055 . S
O641 C645 1.253 . S
H642 C638 0.931 . S
H643 C639 0.930 . S
O644 Co633 2.039 . S
O644 C634 1.265 . S
C645 O641 1.253 . S
C645 O646 1.227 . S
O646 C645 1.227 . S
N647 Co633 2.140 . S
N647 C650 1.346 . S
N647 C651 1.345 . S
C648 C649 1.387 . S
C648 C652 1.391 . S
C649 C648 1.387 . S
C649 C650 1.369 . S
C649 H658 0.929 . S
C650 N647 1.346 . S
C650 C649 1.369 . S
C650 H653 0.928 . S
C651 N647 1.345 . S
C651 C652 1.371 . S
C651 H654 0.931 . S
C652 C648 1.391 . S
C652 C651 1.371 . S
C652 H659 0.930 . S
H653 C650 0.928 . S
H654 C651 0.931 . S
H655 C631 0.930 . S
H656 C628 0.930 . S
H657 C637 0.930 . S
H658 C649 0.929 . S
H659 C652 0.930 . S
C660 C661 1.351 . S
C660 N663 1.368 . S
C660 H665 0.931 . S
C661 C660 1.351 . S
C661 N662 1.373 . S
C661 H689 0.930 . S
N662 C661 1.373 . S
N662 C664 1.340 . S
N663 C660 1.368 . S
N663 C664 1.321 . S
N663 Co666 2.135 . S
C664 N662 1.340 . S
C664 N663 1.321 . S
C664 H688 0.930 . S
H665 C660 0.931 . S
Co666 N663 2.135 . S
Co666 N669 2.121 . S
Co666 O674 2.055 . S
Co666 O677 2.039 . S
Co666 N680 2.140 . S
C667 O668 1.227 . S
C667 O677 1.265 . S
O668 C667 1.227 . S
N669 Co666 2.121 . S
N669 C671 1.375 . S
N669 C672 1.313 . S
C670 C671 1.338 . S
C670 N673 1.377 . S
C670 H690 0.930 . S
C671 N669 1.375 . S
C671 C670 1.338 . S
C671 H675 0.931 . S
C672 N669 1.313 . S
C672 N673 1.344 . S
C672 H676 0.930 . S
N673 C670 1.377 . S
N673 C672 1.344 . S
O674 Co666 2.055 . S
O674 C678 1.253 . S
H675 C671 0.931 . S
H676 C672 0.930 . S
O677 Co666 2.039 . S
O677 C667 1.265 . S
C678 O674 1.253 . S
C678 O679 1.227 . S
O679 C678 1.227 . S
N680 Co666 2.140 . S
N680 C683 1.346 . S
N680 C684 1.345 . S
C681 C682 1.387 . S
C681 C685 1.391 . S
C682 C681 1.387 . S
C682 C683 1.369 . S
C682 H691 0.929 . S
C683 N680 1.346 . S
C683 C682 1.369 . S
C683 H686 0.928 . S
C684 N680 1.345 . S
C684 C685 1.371 . S
C684 H687 0.931 . S
C685 C681 1.391 . S
C685 C684 1.371 . S
C685 H692 0.930 . S
H686 C683 0.928 . S
H687 C684 0.931 . S
H688 C664 0.930 . S
H689 C661 0.930 . S
H690 C670 0.930 . S
H691 C682 0.929 . S
H692 C685 0.930 . S
C693 C694 1.351 . S
C693 N696 1.368 . S
C693 H698 0.931 . S
C694 C693 1.351 . S
C694 N695 1.373 . S
C694 H722 0.930 . S
N695 C694 1.373 . S
N695 C697 1.340 . S
N696 C693 1.368 . S
N696 C697 1.321 . S
N696 Co699 2.135 . S
C697 N695 1.340 . S
C697 N696 1.321 . S
C697 H721 0.930 . S
H698 C693 0.931 . S
Co699 N696 2.135 . S
Co699 N702 2.121 . S
Co699 O707 2.055 . S
Co699 O710 2.039 . S
Co699 N713 2.140 . S
C700 O701 1.227 . S
C700 O710 1.265 . S
O701 C700 1.227 . S
N702 Co699 2.121 . S
N702 C704 1.375 . S
N702 C705 1.313 . S
C703 C704 1.338 . S
C703 N706 1.377 . S
C703 H723 0.930 . S
C704 N702 1.375 . S
C704 C703 1.338 . S
C704 H708 0.931 . S
C705 N702 1.313 . S
C705 N706 1.344 . S
C705 H709 0.930 . S
N706 C703 1.377 . S
N706 C705 1.344 . S
O707 Co699 2.055 . S
O707 C711 1.253 . S
H708 C704 0.931 . S
H709 C705 0.930 . S
O710 Co699 2.039 . S
O710 C700 1.265 . S
C711 O707 1.253 . S
C711 O712 1.227 . S
O712 C711 1.227 . S
N713 Co699 2.140 . S
N713 C716 1.346 . S
N713 C717 1.345 . S
C714 C715 1.387 . S
C714 C718 1.391 . S
C715 C714 1.387 . S
C715 C716 1.369 . S
C715 H724 0.929 . S
C716 N713 1.346 . S
C716 C715 1.369 . S
C716 H719 0.928 . S
C717 N713 1.345 . S
C717 C718 1.371 . S
C717 H720 0.931 . S
C718 C714 1.391 . S
C718 C717 1.371 . S
C718 H725 0.930 . S
H719 C716 0.928 . S
H720 C717 0.931 . S
H721 C697 0.930 . S
H722 C694 0.930 . S
H723 C703 0.930 . S
H724 C715 0.929 . S
H725 C718 0.930 . S
C726 C727 1.351 . S
C726 N729 1.368 . S
C726 H731 0.931 . S
C727 C726 1.351 . S
C727 N728 1.373 . S
C727 H755 0.930 . S
N728 C727 1.373 . S
N728 C730 1.340 . S
N729 C726 1.368 . S
N729 C730 1.321 . S
N729 Co732 2.135 1_554 S
C730 N728 1.340 . S
C730 N729 1.321 . S
C730 H754 0.930 . S
H731 C726 0.931 . S
Co732 N729 2.135 1_556 S
Co732 N735 2.121 . S
Co732 O740 2.055 . S
Co732 O743 2.039 . S
Co732 N746 2.140 . S
C733 O734 1.227 . S
C733 O743 1.265 . S
O734 C733 1.227 . S
N735 Co732 2.121 . S
N735 C737 1.375 . S
N735 C738 1.313 . S
C736 C737 1.338 . S
C736 N739 1.377 . S
C736 H756 0.930 . S
C737 N735 1.375 . S
C737 C736 1.338 . S
C737 H741 0.931 . S
C738 N735 1.313 . S
C738 N739 1.344 . S
C738 H742 0.930 . S
N739 C736 1.377 . S
N739 C738 1.344 . S
O740 Co732 2.055 . S
O740 C744 1.253 . S
H741 C737 0.931 . S
H742 C738 0.930 . S
O743 Co732 2.039 . S
O743 C733 1.265 . S
C744 O740 1.253 . S
C744 O745 1.227 . S
O745 C744 1.227 . S
N746 Co732 2.140 . S
N746 C749 1.346 1_556 S
N746 C750 1.345 . S
C747 C748 1.387 1_556 S
C747 C751 1.391 . S
C748 C747 1.387 1_554 S
C748 C749 1.369 . S
C748 H757 0.929 . S
C749 N746 1.346 1_554 S
C749 C748 1.369 . S
C749 H752 0.928 . S
C750 N746 1.345 . S
C750 C751 1.371 . S
C750 H753 0.931 . S
C751 C747 1.391 . S
C751 C750 1.371 . S
C751 H758 0.930 . S
H752 C749 0.928 . S
H753 C750 0.931 . S
H754 C730 0.930 . S
H755 C727 0.930 . S
H756 C736 0.930 . S
H757 C748 0.929 . S
H758 C751 0.930 . S
C759 C760 1.351 . S
C759 N762 1.368 . S
C759 H764 0.931 . S
C760 C759 1.351 . S
C760 N761 1.373 . S
C760 H788 0.930 . S
N761 C760 1.373 . S
N761 C763 1.340 . S
N762 C759 1.368 . S
N762 C763 1.321 . S
N762 Co765 2.135 . S
C763 N761 1.340 . S
C763 N762 1.321 . S
C763 H787 0.930 . S
H764 C759 0.931 . S
Co765 N762 2.135 . S
Co765 N768 2.121 . S
Co765 O773 2.055 . S
Co765 O776 2.039 . S
Co765 N779 2.140 . S
C766 O767 1.227 . S
C766 O776 1.265 . S
O767 C766 1.227 . S
N768 Co765 2.121 . S
N768 C770 1.375 . S
N768 C771 1.313 . S
C769 C770 1.338 1_556 S
C769 N772 1.377 . S
C769 H789 0.930 . S
C770 N768 1.375 . S
C770 C769 1.338 1_554 S
C770 H774 0.931 . S
C771 N768 1.313 . S
C771 N772 1.344 1_554 S
C771 H775 0.930 . S
N772 C769 1.377 . S
N772 C771 1.344 1_556 S
O773 Co765 2.055 . S
O773 C777 1.253 . S
H774 C770 0.931 . S
H775 C771 0.930 . S
O776 Co765 2.039 . S
O776 C766 1.265 . S
C777 O773 1.253 . S
C777 O778 1.227 . S
O778 C777 1.227 . S
N779 Co765 2.140 . S
N779 C782 1.346 . S
N779 C783 1.345 . S
C780 C781 1.387 . S
C780 C784 1.391 . S
C781 C780 1.387 . S
C781 C782 1.369 . S
C781 H790 0.929 . S
C782 N779 1.346 . S
C782 C781 1.369 . S
C782 H785 0.928 . S
C783 N779 1.345 . S
C783 C784 1.371 . S
C783 H786 0.931 . S
C784 C780 1.391 . S
C784 C783 1.371 . S
C784 H791 0.930 . S
H785 C782 0.928 . S
H786 C783 0.931 . S
H787 C763 0.930 . S
H788 C760 0.930 . S
H789 C769 0.930 . S
H790 C781 0.929 . S
H791 C784 0.930 . S
C792 C793 1.351 . S
C792 N795 1.368 . S
C792 H797 0.931 . S
C793 C792 1.351 . S
C793 N794 1.373 . S
C793 H821 0.930 . S
N794 C793 1.373 . S
N794 C796 1.340 . S
N795 C792 1.368 . S
N795 C796 1.321 . S
N795 Co798 2.135 . S
C796 N794 1.340 . S
C796 N795 1.321 . S
C796 H820 0.930 . S
H797 C792 0.931 . S
Co798 N795 2.135 . S
Co798 N801 2.121 . S
Co798 O806 2.055 . S
Co798 O809 2.039 . S
Co798 N812 2.140 . S
C799 O800 1.227 . S
C799 O809 1.265 . S
O800 C799 1.227 . S
N801 Co798 2.121 . S
N801 C803 1.375 . S
N801 C804 1.313 . S
C802 C803 1.338 . S
C802 N805 1.377 . S
C802 H822 0.930 . S
C803 N801 1.375 . S
C803 C802 1.338 . S
C803 H807 0.931 . S
C804 N801 1.313 . S
C804 N805 1.344 . S
C804 H808 0.930 . S
N805 C802 1.377 . S
N805 C804 1.344 . S
O806 Co798 2.055 . S
O806 C810 1.253 . S
H807 C803 0.931 . S
H808 C804 0.930 . S
O809 Co798 2.039 . S
O809 C799 1.265 . S
C810 O806 1.253 . S
C810 O811 1.227 . S
O811 C810 1.227 . S
N812 Co798 2.140 . S
N812 C815 1.346 . S
N812 C816 1.345 . S
C813 C814 1.387 . S
C813 C817 1.391 . S
C814 C813 1.387 . S
C814 C815 1.369 . S
C814 H823 0.929 . S
C815 N812 1.346 . S
C815 C814 1.369 . S
C815 H818 0.928 . S
C816 N812 1.345 . S
C816 C817 1.371 . S
C816 H819 0.931 . S
C817 C813 1.391 . S
C817 C816 1.371 . S
C817 H824 0.930 . S
H818 C815 0.928 . S
H819 C816 0.931 . S
H820 C796 0.930 . S
H821 C793 0.930 . S
H822 C802 0.930 . S
H823 C814 0.929 . S
H824 C817 0.930 . S
C825 C826 1.351 . S
C825 N828 1.368 . S
C825 H830 0.931 . S
C826 C825 1.351 . S
C826 N827 1.373 . S
C826 H854 0.930 . S
N827 C826 1.373 . S
N827 C829 1.340 . S
N828 C825 1.368 . S
N828 C829 1.321 . S
N828 Co831 2.135 . S
C829 N827 1.340 . S
C829 N828 1.321 . S
C829 H853 0.930 . S
H830 C825 0.931 . S
Co831 N828 2.135 . S
Co831 N834 2.121 . S
Co831 O839 2.055 . S
Co831 O842 2.039 . S
Co831 N845 2.140 . S
C832 O833 1.227 . S
C832 O842 1.265 . S
O833 C832 1.227 . S
N834 Co831 2.121 . S
N834 C836 1.375 . S
N834 C837 1.313 . S
C835 C836 1.338 1_556 S
C835 N838 1.377 . S
C835 H855 0.930 . S
C836 N834 1.375 . S
C836 C835 1.338 1_554 S
C836 H840 0.931 . S
C837 N834 1.313 . S
C837 N838 1.344 1_554 S
C837 H841 0.930 . S
N838 C835 1.377 . S
N838 C837 1.344 1_556 S
O839 Co831 2.055 . S
O839 C843 1.253 . S
H840 C836 0.931 . S
H841 C837 0.930 . S
O842 Co831 2.039 . S
O842 C832 1.265 . S
C843 O839 1.253 . S
C843 O844 1.227 . S
O844 C843 1.227 . S
N845 Co831 2.140 . S
N845 C848 1.346 . S
N845 C849 1.345 . S
C846 C847 1.387 . S
C846 C850 1.391 . S
C847 C846 1.387 . S
C847 C848 1.369 . S
C847 H856 0.929 . S
C848 N845 1.346 . S
C848 C847 1.369 . S
C848 H851 0.928 . S
C849 N845 1.345 . S
C849 C850 1.371 . S
C849 H852 0.931 . S
C850 C846 1.391 . S
C850 C849 1.371 . S
C850 H857 0.930 . S
H851 C848 0.928 . S
H852 C849 0.931 . S
H853 C829 0.930 . S
H854 C826 0.930 . S
H855 C835 0.930 . S
H856 C847 0.929 . S
H857 C850 0.930 . S
C858 C859 1.351 . S
C858 N861 1.368 . S
C858 H863 0.931 . S
C859 C858 1.351 . S
C859 N860 1.373 . S
C859 H887 0.930 . S
N860 C859 1.373 . S
N860 C862 1.340 . S
N861 C858 1.368 . S
N861 C862 1.321 . S
N861 Co864 2.135 1_554 S
C862 N860 1.340 . S
C862 N861 1.321 . S
C862 H886 0.930 . S
H863 C858 0.931 . S
Co864 N861 2.135 1_556 S
Co864 N867 2.121 . S
Co864 O872 2.055 . S
Co864 O875 2.039 . S
Co864 N878 2.140 . S
C865 O866 1.227 . S
C865 O875 1.265 . S
O866 C865 1.227 . S
N867 Co864 2.121 . S
N867 C869 1.375 . S
N867 C870 1.313 . S
C868 C869 1.338 . S
C868 N871 1.377 . S
C868 H888 0.930 . S
C869 N867 1.375 . S
C869 C868 1.338 . S
C869 H873 0.931 . S
C870 N867 1.313 . S
C870 N871 1.344 . S
C870 H874 0.930 . S
N871 C868 1.377 . S
N871 C870 1.344 . S
O872 Co864 2.055 . S
O872 C876 1.253 . S
H873 C869 0.931 . S
H874 C870 0.930 . S
O875 Co864 2.039 . S
O875 C865 1.265 . S
C876 O872 1.253 . S
C876 O877 1.227 . S
O877 C876 1.227 . S
N878 Co864 2.140 . S
N878 C881 1.346 1_556 S
N878 C882 1.345 . S
C879 C880 1.387 1_556 S
C879 C883 1.391 . S
C880 C879 1.387 1_554 S
C880 C881 1.369 . S
C880 H889 0.929 . S
C881 N878 1.346 1_554 S
C881 C880 1.369 . S
C881 H884 0.928 . S
C882 N878 1.345 . S
C882 C883 1.371 . S
C882 H885 0.931 . S
C883 C879 1.391 . S
C883 C882 1.371 . S
C883 H890 0.930 . S
H884 C881 0.928 . S
H885 C882 0.931 . S
H886 C862 0.930 . S
H887 C859 0.930 . S
H888 C868 0.930 . S
H889 C880 0.929 . S
H890 C883 0.930 . S
C891 C892 1.351 . S
C891 N894 1.368 . S
C891 H896 0.931 . S
C892 C891 1.351 . S
C892 N893 1.373 . S
C892 H920 0.930 . S
N893 C892 1.373 . S
N893 C895 1.340 . S
N894 C891 1.368 . S
N894 C895 1.321 . S
N894 Co897 2.135 . S
C895 N893 1.340 . S
C895 N894 1.321 . S
C895 H919 0.930 . S
H896 C891 0.931 . S
Co897 N894 2.135 . S
Co897 N900 2.121 . S
Co897 O905 2.055 . S
Co897 O908 2.039 . S
Co897 N911 2.140 . S
C898 O899 1.227 . S
C898 O908 1.265 . S
O899 C898 1.227 . S
N900 Co897 2.121 . S
N900 C902 1.375 . S
N900 C903 1.313 . S
C901 C902 1.338 . S
C901 N904 1.377 . S
C901 H921 0.930 . S
C902 N900 1.375 . S
C902 C901 1.338 . S
C902 H906 0.931 . S
C903 N900 1.313 . S
C903 N904 1.344 . S
C903 H907 0.930 . S
N904 C901 1.377 . S
N904 C903 1.344 . S
O905 Co897 2.055 . S
O905 C909 1.253 . S
H906 C902 0.931 . S
H907 C903 0.930 . S
O908 Co897 2.039 . S
O908 C898 1.265 . S
C909 O905 1.253 . S
C909 O910 1.227 . S
O910 C909 1.227 . S
N911 Co897 2.140 . S
N911 C914 1.346 . S
N911 C915 1.345 . S
C912 C913 1.387 . S
C912 C916 1.391 . S
C913 C912 1.387 . S
C913 C914 1.369 . S
C913 H922 0.929 . S
C914 N911 1.346 . S
C914 C913 1.369 . S
C914 H917 0.928 . S
C915 N911 1.345 . S
C915 C916 1.371 . S
C915 H918 0.931 . S
C916 C912 1.391 . S
C916 C915 1.371 . S
C916 H923 0.930 . S
H917 C914 0.928 . S
H918 C915 0.931 . S
H919 C895 0.930 . S
H920 C892 0.930 . S
H921 C901 0.930 . S
H922 C913 0.929 . S
H923 C916 0.930 . S
C924 C925 1.351 . S
C924 N927 1.368 . S
C924 H929 0.931 . S
C925 C924 1.351 . S
C925 N926 1.373 . S
C925 H953 0.930 . S
N926 C925 1.373 . S
N926 C928 1.340 . S
N927 C924 1.368 . S
N927 C928 1.321 . S
N927 Co930 2.135 . S
C928 N926 1.340 . S
C928 N927 1.321 . S
C928 H952 0.930 . S
H929 C924 0.931 . S
Co930 N927 2.135 . S
Co930 N933 2.121 . S
Co930 O938 2.055 . S
Co930 O941 2.039 . S
Co930 N944 2.140 . S
C931 O932 1.227 . S
C931 O941 1.265 . S
O932 C931 1.227 . S
N933 Co930 2.121 . S
N933 C935 1.375 . S
N933 C936 1.313 . S
C934 C935 1.338 . S
C934 N937 1.377 . S
C934 H954 0.930 . S
C935 N933 1.375 . S
C935 C934 1.338 . S
C935 H939 0.931 . S
C936 N933 1.313 . S
C936 N937 1.344 . S
C936 H940 0.930 . S
N937 C934 1.377 . S
N937 C936 1.344 . S
O938 Co930 2.055 . S
O938 C942 1.253 . S
H939 C935 0.931 . S
H940 C936 0.930 . S
O941 Co930 2.039 . S
O941 C931 1.265 . S
C942 O938 1.253 . S
C942 O943 1.227 . S
O943 C942 1.227 . S
N944 Co930 2.140 . S
N944 C947 1.346 . S
N944 C948 1.345 . S
C945 C946 1.387 . S
C945 C949 1.391 . S
C946 C945 1.387 . S
C946 C947 1.369 . S
C946 H955 0.929 . S
C947 N944 1.346 . S
C947 C946 1.369 . S
C947 H950 0.928 . S
C948 N944 1.345 . S
C948 C949 1.371 . S
C948 H951 0.931 . S
C949 C945 1.391 . S
C949 C948 1.371 . S
C949 H956 0.930 . S
H950 C947 0.928 . S
H951 C948 0.931 . S
H952 C928 0.930 . S
H953 C925 0.930 . S
H954 C934 0.930 . S
H955 C946 0.929 . S
H956 C949 0.930 . S
C957 C958 1.351 . S
C957 N960 1.368 . S
C957 H962 0.931 . S
C958 C957 1.351 . S
C958 N959 1.373 . S
C958 H986 0.930 . S
N959 C958 1.373 . S
N959 C961 1.340 . S
N960 C957 1.368 . S
N960 C961 1.321 . S
N960 Co963 2.135 . S
C961 N959 1.340 . S
C961 N960 1.321 . S
C961 H985 0.930 . S
H962 C957 0.931 . S
Co963 N960 2.135 . S
Co963 N966 2.121 . S
Co963 O971 2.055 . S
Co963 O974 2.039 . S
Co963 N977 2.140 . S
C964 O965 1.227 . S
C964 O974 1.265 . S
O965 C964 1.227 . S
N966 Co963 2.121 . S
N966 C968 1.375 . S
N966 C969 1.313 . S
C967 C968 1.338 . S
C967 N970 1.377 . S
C967 H987 0.930 . S
C968 N966 1.375 . S
C968 C967 1.338 . S
C968 H972 0.931 . S
C969 N966 1.313 . S
C969 N970 1.344 . S
C969 H973 0.930 . S
N970 C967 1.377 . S
N970 C969 1.344 . S
O971 Co963 2.055 . S
O971 C975 1.253 . S
H972 C968 0.931 . S
H973 C969 0.930 . S
O974 Co963 2.039 . S
O974 C964 1.265 . S
C975 O971 1.253 . S
C975 O976 1.227 . S
O976 C975 1.227 . S
N977 Co963 2.140 . S
N977 C980 1.346 . S
N977 C981 1.345 . S
C978 C979 1.387 . S
C978 C982 1.391 . S
C979 C978 1.387 . S
C979 C980 1.369 . S
C979 H988 0.929 . S
C980 N977 1.346 . S
C980 C979 1.369 . S
C980 H983 0.928 . S
C981 N977 1.345 . S
C981 C982 1.371 . S
C981 H984 0.931 . S
C982 C978 1.391 . S
C982 C981 1.371 . S
C982 H989 0.930 . S
H983 C980 0.928 . S
H984 C981 0.931 . S
H985 C961 0.930 . S
H986 C958 0.930 . S
H987 C967 0.930 . S
H988 C979 0.929 . S
H989 C982 0.930 . S
C990 C991 1.351 . S
C990 N993 1.368 . S
C990 H995 0.931 . S
C991 C990 1.351 . S
C991 N992 1.373 . S
C991 H1019 0.930 . S
N992 C991 1.373 . S
N992 C994 1.340 . S
N993 C990 1.368 . S
N993 C994 1.321 . S
N993 Co996 2.135 1_556 S
C994 N992 1.340 . S
C994 N993 1.321 . S
C994 H1018 0.930 . S
H995 C990 0.931 . S
Co996 N993 2.135 1_554 S
Co996 N999 2.121 . S
Co996 O1004 2.055 . S
Co996 O1007 2.039 . S
Co996 N1010 2.140 . S
C997 O998 1.227 . S
C997 O1007 1.265 . S
O998 C997 1.227 . S
N999 Co996 2.121 . S
N999 C1001 1.375 . S
N999 C1002 1.313 . S
C1000 C1001 1.338 . S
C1000 N1003 1.377 . S
C1000 H1020 0.930 . S
C1001 N999 1.375 . S
C1001 C1000 1.338 . S
C1001 H1005 0.931 . S
C1002 N999 1.313 . S
C1002 N1003 1.344 . S
C1002 H1006 0.930 . S
N1003 C1000 1.377 . S
N1003 C1002 1.344 . S
O1004 Co996 2.055 . S
O1004 C1008 1.253 . S
H1005 C1001 0.931 . S
H1006 C1002 0.930 . S
O1007 Co996 2.039 . S
O1007 C997 1.265 . S
C1008 O1004 1.253 . S
C1008 O1009 1.227 . S
O1009 C1008 1.227 . S
N1010 Co996 2.140 . S
N1010 C1013 1.346 1_554 S
N1010 C1014 1.345 . S
C1011 C1012 1.387 1_554 S
C1011 C1015 1.391 . S
C1012 C1011 1.387 1_556 S
C1012 C1013 1.369 . S
C1012 H1021 0.929 . S
C1013 N1010 1.346 1_556 S
C1013 C1012 1.369 . S
C1013 H1016 0.928 . S
C1014 N1010 1.345 . S
C1014 C1015 1.371 . S
C1014 H1017 0.931 . S
C1015 C1011 1.391 . S
C1015 C1014 1.371 . S
C1015 H1022 0.930 . S
H1016 C1013 0.928 . S
H1017 C1014 0.931 . S
H1018 C994 0.930 . S
H1019 C991 0.930 . S
H1020 C1000 0.930 . S
H1021 C1012 0.929 . S
H1022 C1015 0.930 . S
C1023 C1024 1.351 . S
C1023 N1026 1.368 . S
C1023 H1028 0.931 . S
C1024 C1023 1.351 . S
C1024 N1025 1.373 . S
C1024 H1052 0.930 . S
N1025 C1024 1.373 . S
N1025 C1027 1.340 . S
N1026 C1023 1.368 . S
N1026 C1027 1.321 . S
N1026 Co1029 2.135 . S
C1027 N1025 1.340 . S
C1027 N1026 1.321 . S
C1027 H1051 0.930 . S
H1028 C1023 0.931 . S
Co1029 N1026 2.135 . S
Co1029 N1032 2.121 . S
Co1029 O1037 2.055 . S
Co1029 O1040 2.039 . S
Co1029 N1043 2.140 . S
C1030 O1031 1.227 . S
C1030 O1040 1.265 . S
O1031 C1030 1.227 . S
N1032 Co1029 2.121 . S
N1032 C1034 1.375 . S
N1032 C1035 1.313 . S
C1033 C1034 1.338 1_554 S
C1033 N1036 1.377 . S
C1033 H1053 0.930 . S
C1034 N1032 1.375 . S
C1034 C1033 1.338 1_556 S
C1034 H1038 0.931 . S
C1035 N1032 1.313 . S
C1035 N1036 1.344 1_556 S
C1035 H1039 0.930 . S
N1036 C1033 1.377 . S
N1036 C1035 1.344 1_554 S
O1037 Co1029 2.055 . S
O1037 C1041 1.253 . S
H1038 C1034 0.931 . S
H1039 C1035 0.930 . S
O1040 Co1029 2.039 . S
O1040 C1030 1.265 . S
C1041 O1037 1.253 . S
C1041 O1042 1.227 . S
O1042 C1041 1.227 . S
N1043 Co1029 2.140 . S
N1043 C1046 1.346 . S
N1043 C1047 1.345 . S
C1044 C1045 1.387 . S
C1044 C1048 1.391 . S
C1045 C1044 1.387 . S
C1045 C1046 1.369 . S
C1045 H1054 0.929 . S
C1046 N1043 1.346 . S
C1046 C1045 1.369 . S
C1046 H1049 0.928 . S
C1047 N1043 1.345 . S
C1047 C1048 1.371 . S
C1047 H1050 0.931 . S
C1048 C1044 1.391 . S
C1048 C1047 1.371 . S
C1048 H1055 0.930 . S
H1049 C1046 0.928 . S
H1050 C1047 0.931 . S
H1051 C1027 0.930 . S
H1052 C1024 0.930 . S
H1053 C1033 0.930 . S
H1054 C1045 0.929 . S
H1055 C1048 0.930 . S
H1056 C1068 0.930 . S
H1057 C1070 0.930 . S
H1058 C1071 0.930 . S
H1059 C1075 0.959 . S
H1060 C1075 0.959 . S
H1061 C1075 0.961 . S
H1062 C1076 0.960 . S
H1063 C1076 0.961 . S
H1064 C1076 0.959 . S
H1065 C1079 0.929 . S
H1066 C1080 0.931 . S
H1067 C1082 0.930 . S
C1068 H1056 0.930 . S
C1068 C1069 1.399 . S
C1068 C1073 1.399 . S
C1069 C1068 1.399 . S
C1069 C1070 1.376 . S
C1070 H1057 0.930 . S
C1070 C1069 1.376 . S
C1070 C1071 1.388 . S
C1071 H1058 0.930 . S
C1071 C1070 1.388 . S
C1071 C1072 1.390 . S
C1072 C1071 1.390 . S
C1072 C1073 1.394 . S
C1072 C1078 1.465 . S
C1073 C1068 1.399 . S
C1073 C1072 1.394 . S
C1073 C1074 1.516 . S
C1074 C1073 1.516 . S
C1074 C1075 1.502 . S
C1074 C1076 1.561 . S
C1074 C1077 1.526 . S
C1075 H1059 0.959 . S
C1075 H1060 0.959 . S
C1075 H1061 0.961 . S
C1075 C1074 1.502 . S
C1076 H1062 0.960 . S
C1076 H1063 0.961 . S
C1076 H1064 0.959 . S
C1076 C1074 1.561 . S
C1077 C1074 1.526 . S
C1077 C1078 1.396 . S
C1077 C1082 1.390 . S
C1078 C1072 1.465 . S
C1078 C1077 1.396 . S
C1078 C1079 1.399 . S
C1079 H1065 0.929 . S
C1079 C1078 1.399 . S
C1079 C1080 1.385 . S
C1080 H1066 0.931 . S
C1080 C1079 1.385 . S
C1080 C1081 1.389 . S
C1081 C1080 1.389 . S
C1081 C1082 1.387 . S
C1082 H1067 0.930 . S
C1082 C1077 1.390 . S
C1082 C1081 1.387 . S
H1083 C1095 0.930 . S
H1084 C1097 0.930 . S
H1085 C1098 0.930 . S
H1086 C1102 0.959 . S
H1087 C1102 0.959 . S
H1088 C1102 0.961 . S
H1089 C1103 0.960 . S
H1090 C1103 0.961 . S
H1091 C1103 0.959 . S
H1092 C1106 0.929 . S
H1093 C1107 0.931 1_554 S
H1094 C1109 0.930 . S
C1095 H1083 0.930 . S
C1095 C1096 1.399 . S
C1095 C1100 1.399 . S
C1096 C1095 1.399 . S
C1096 C1097 1.376 . S
C1097 H1084 0.930 . S
C1097 C1096 1.376 . S
C1097 C1098 1.388 . S
C1098 H1085 0.930 . S
C1098 C1097 1.388 . S
C1098 C1099 1.390 . S
C1099 C1098 1.390 . S
C1099 C1100 1.394 . S
C1099 C1105 1.465 . S
C1100 C1095 1.399 . S
C1100 C1099 1.394 . S
C1100 C1101 1.516 . S
C1101 C1100 1.516 . S
C1101 C1102 1.502 . S
C1101 C1103 1.561 . S
C1101 C1104 1.526 . S
C1102 H1086 0.959 . S
C1102 H1087 0.959 . S
C1102 H1088 0.961 . S
C1102 C1101 1.502 . S
C1103 H1089 0.960 . S
C1103 H1090 0.961 . S
C1103 H1091 0.959 . S
C1103 C1101 1.561 . S
C1104 C1101 1.526 . S
C1104 C1105 1.396 . S
C1104 C1109 1.390 . S
C1105 C1099 1.465 . S
C1105 C1104 1.396 . S
C1105 C1106 1.399 . S
C1106 H1092 0.929 . S
C1106 C1105 1.399 . S
C1106 C1107 1.385 . S
C1107 H1093 0.931 1_556 S
C1107 C1106 1.385 . S
C1107 C1108 1.389 . S
C1108 C1107 1.389 . S
C1108 C1109 1.387 . S
C1109 H1094 0.930 . S
C1109 C1104 1.390 . S
C1109 C1108 1.387 . S
H1110 C1122 0.930 . S
H1111 C1124 0.930 . S
H1112 C1125 0.930 . S
H1113 C1129 0.959 . S
H1114 C1129 0.959 . S
H1115 C1129 0.961 . S
H1116 C1130 0.960 . S
H1117 C1130 0.961 . S
H1118 C1130 0.959 . S
H1119 C1133 0.929 . S
H1120 C1134 0.931 . S
H1121 C1136 0.930 . S
C1122 H1110 0.930 . S
C1122 C1123 1.399 . S
C1122 C1127 1.399 . S
C1123 C1122 1.399 . S
C1123 C1124 1.376 . S
C1124 H1111 0.930 . S
C1124 C1123 1.376 . S
C1124 C1125 1.388 . S
C1125 H1112 0.930 . S
C1125 C1124 1.388 . S
C1125 C1126 1.390 1_556 S
C1126 C1125 1.390 1_554 S
C1126 C1127 1.394 1_554 S
C1126 C1132 1.465 . S
C1127 C1122 1.399 . S
C1127 C1126 1.394 1_556 S
C1127 C1128 1.516 1_556 S
C1128 C1127 1.516 1_554 S
C1128 C1129 1.502 . S
C1128 C1130 1.561 . S
C1128 C1131 1.526 . S
C1129 H1113 0.959 . S
C1129 H1114 0.959 . S
C1129 H1115 0.961 . S
C1129 C1128 1.502 . S
C1130 H1116 0.960 . S
C1130 H1117 0.961 . S
C1130 H1118 0.959 . S
C1130 C1128 1.561 . S
C1131 C1128 1.526 . S
C1131 C1132 1.396 . S
C1131 C1136 1.390 . S
C1132 C1126 1.465 . S
C1132 C1131 1.396 . S
C1132 C1133 1.399 . S
C1133 H1119 0.929 . S
C1133 C1132 1.399 . S
C1133 C1134 1.385 . S
C1134 H1120 0.931 . S
C1134 C1133 1.385 . S
C1134 C1135 1.389 . S
C1135 C1134 1.389 . S
C1135 C1136 1.387 . S
C1136 H1121 0.930 . S
C1136 C1131 1.390 . S
C1136 C1135 1.387 . S
H1137 C1149 0.930 . S
H1138 C1151 0.930 . S
H1139 C1152 0.930 . S
H1140 C1156 0.959 . S
H1141 C1156 0.959 . S
H1142 C1156 0.961 . S
H1143 C1157 0.960 . S
H1144 C1157 0.961 . S
H1145 C1157 0.959 . S
H1146 C1160 0.929 . S
H1147 C1161 0.931 . S
H1148 C1163 0.930 . S
C1149 H1137 0.930 . S
C1149 C1150 1.399 . S
C1149 C1154 1.399 . S
C1150 C1149 1.399 . S
C1150 C1151 1.376 . S
C1151 H1138 0.930 . S
C1151 C1150 1.376 . S
C1151 C1152 1.388 . S
C1152 H1139 0.930 . S
C1152 C1151 1.388 . S
C1152 C1153 1.390 . S
C1153 C1152 1.390 . S
C1153 C1154 1.394 . S
C1153 C1159 1.465 . S
C1154 C1149 1.399 . S
C1154 C1153 1.394 . S
C1154 C1155 1.516 . S
C1155 C1154 1.516 . S
C1155 C1156 1.502 . S
C1155 C1157 1.561 . S
C1155 C1158 1.526 . S
C1156 H1140 0.959 . S
C1156 H1141 0.959 . S
C1156 H1142 0.961 . S
C1156 C1155 1.502 . S
C1157 H1143 0.960 . S
C1157 H1144 0.961 . S
C1157 H1145 0.959 . S
C1157 C1155 1.561 . S
C1158 C1155 1.526 . S
C1158 C1159 1.396 . S
C1158 C1163 1.390 . S
C1159 C1153 1.465 . S
C1159 C1158 1.396 . S
C1159 C1160 1.399 . S
C1160 H1146 0.929 . S
C1160 C1159 1.399 . S
C1160 C1161 1.385 . S
C1161 H1147 0.931 . S
C1161 C1160 1.385 . S
C1161 C1162 1.389 . S
C1162 C1161 1.389 . S
C1162 C1163 1.387 . S
C1163 H1148 0.930 . S
C1163 C1158 1.390 . S
C1163 C1162 1.387 . S
H1164 C1176 0.930 . S
H1165 C1178 0.930 . S
H1166 C1179 0.930 . S
H1167 C1183 0.959 . S
H1168 C1183 0.959 . S
H1169 C1183 0.961 . S
H1170 C1184 0.960 . S
H1171 C1184 0.961 . S
H1172 C1184 0.959 . S
H1173 C1187 0.929 . S
H1174 C1188 0.931 . S
H1175 C1190 0.930 . S
C1176 H1164 0.930 . S
C1176 C1177 1.399 . S
C1176 C1181 1.399 . S
C1177 C1176 1.399 . S
C1177 C1178 1.376 . S
C1178 H1165 0.930 . S
C1178 C1177 1.376 . S
C1178 C1179 1.388 . S
C1179 H1166 0.930 . S
C1179 C1178 1.388 . S
C1179 C1180 1.390 . S
C1180 C1179 1.390 . S
C1180 C1181 1.394 . S
C1180 C1186 1.465 . S
C1181 C1176 1.399 . S
C1181 C1180 1.394 . S
C1181 C1182 1.516 . S
C1182 C1181 1.516 . S
C1182 C1183 1.502 . S
C1182 C1184 1.561 . S
C1182 C1185 1.526 . S
C1183 H1167 0.959 . S
C1183 H1168 0.959 . S
C1183 H1169 0.961 . S
C1183 C1182 1.502 . S
C1184 H1170 0.960 . S
C1184 H1171 0.961 . S
C1184 H1172 0.959 . S
C1184 C1182 1.561 . S
C1185 C1182 1.526 . S
C1185 C1186 1.396 . S
C1185 C1190 1.390 . S
C1186 C1180 1.465 . S
C1186 C1185 1.396 . S
C1186 C1187 1.399 . S
C1187 H1173 0.929 . S
C1187 C1186 1.399 . S
C1187 C1188 1.385 . S
C1188 H1174 0.931 . S
C1188 C1187 1.385 . S
C1188 C1189 1.389 . S
C1189 C1188 1.389 . S
C1189 C1190 1.387 . S
C1190 H1175 0.930 . S
C1190 C1185 1.390 . S
C1190 C1189 1.387 . S
H1191 C1203 0.930 . S
H1192 C1205 0.930 . S
H1193 C1206 0.930 . S
H1194 C1210 0.959 . S
H1195 C1210 0.959 . S
H1196 C1210 0.961 . S
H1197 C1211 0.960 . S
H1198 C1211 0.961 . S
H1199 C1211 0.959 . S
H1200 C1214 0.929 . S
H1201 C1215 0.931 . S
H1202 C1217 0.930 . S
C1203 H1191 0.930 . S
C1203 C1204 1.399 . S
C1203 C1208 1.399 . S
C1204 C1203 1.399 . S
C1204 C1205 1.376 . S
C1205 H1192 0.930 . S
C1205 C1204 1.376 . S
C1205 C1206 1.388 . S
C1206 H1193 0.930 . S
C1206 C1205 1.388 . S
C1206 C1207 1.390 . S
C1207 C1206 1.390 . S
C1207 C1208 1.394 . S
C1207 C1213 1.465 . S
C1208 C1203 1.399 . S
C1208 C1207 1.394 . S
C1208 C1209 1.516 . S
C1209 C1208 1.516 . S
C1209 C1210 1.502 . S
C1209 C1211 1.561 . S
C1209 C1212 1.526 . S
C1210 H1194 0.959 . S
C1210 H1195 0.959 . S
C1210 H1196 0.961 . S
C1210 C1209 1.502 . S
C1211 H1197 0.960 . S
C1211 H1198 0.961 . S
C1211 H1199 0.959 . S
C1211 C1209 1.561 . S
C1212 C1209 1.526 . S
C1212 C1213 1.396 . S
C1212 C1217 1.390 . S
C1213 C1207 1.465 . S
C1213 C1212 1.396 . S
C1213 C1214 1.399 . S
C1214 H1200 0.929 . S
C1214 C1213 1.399 . S
C1214 C1215 1.385 . S
C1215 H1201 0.931 . S
C1215 C1214 1.385 . S
C1215 C1216 1.389 . S
C1216 C1215 1.389 . S
C1216 C1217 1.387 . S
C1217 H1202 0.930 . S
C1217 C1212 1.390 . S
C1217 C1216 1.387 . S
H1218 C1230 0.930 . S
H1219 C1232 0.930 . S
H1220 C1233 0.930 . S
H1221 C1237 0.959 . S
H1222 C1237 0.959 . S
H1223 C1237 0.961 . S
H1224 C1238 0.960 . S
H1225 C1238 0.961 . S
H1226 C1238 0.959 . S
H1227 C1241 0.929 . S
H1228 C1242 0.931 . S
H1229 C1244 0.930 . S
C1230 H1218 0.930 . S
C1230 C1231 1.399 . S
C1230 C1235 1.399 . S
C1231 C1230 1.399 . S
C1231 C1232 1.376 . S
C1232 H1219 0.930 . S
C1232 C1231 1.376 . S
C1232 C1233 1.388 . S
C1233 H1220 0.930 . S
C1233 C1232 1.388 . S
C1233 C1234 1.390 . S
C1234 C1233 1.390 . S
C1234 C1235 1.394 . S
C1234 C1240 1.465 . S
C1235 C1230 1.399 . S
C1235 C1234 1.394 . S
C1235 C1236 1.516 . S
C1236 C1235 1.516 . S
C1236 C1237 1.502 . S
C1236 C1238 1.561 . S
C1236 C1239 1.526 1_556 S
C1237 H1221 0.959 . S
C1237 H1222 0.959 . S
C1237 H1223 0.961 . S
C1237 C1236 1.502 . S
C1238 H1224 0.960 . S
C1238 H1225 0.961 . S
C1238 H1226 0.959 . S
C1238 C1236 1.561 . S
C1239 C1236 1.526 1_554 S
C1239 C1240 1.396 1_554 S
C1239 C1244 1.390 . S
C1240 C1234 1.465 . S
C1240 C1239 1.396 1_556 S
C1240 C1241 1.399 1_556 S
C1241 H1227 0.929 . S
C1241 C1240 1.399 1_554 S
C1241 C1242 1.385 . S
C1242 H1228 0.931 . S
C1242 C1241 1.385 . S
C1242 C1243 1.389 . S
C1243 C1242 1.389 . S
C1243 C1244 1.387 . S
C1244 H1229 0.930 . S
C1244 C1239 1.390 . S
C1244 C1243 1.387 . S
H1245 C1257 0.930 . S
H1246 C1259 0.930 1_556 S
H1247 C1260 0.930 . S
H1248 C1264 0.959 . S
H1249 C1264 0.959 . S
H1250 C1264 0.961 . S
H1251 C1265 0.960 . S
H1252 C1265 0.961 . S
H1253 C1265 0.959 . S
H1254 C1268 0.929 . S
H1255 C1269 0.931 . S
H1256 C1271 0.930 . S
C1257 H1245 0.930 . S
C1257 C1258 1.399 . S
C1257 C1262 1.399 . S
C1258 C1257 1.399 . S
C1258 C1259 1.376 . S
C1259 H1246 0.930 1_554 S
C1259 C1258 1.376 . S
C1259 C1260 1.388 . S
C1260 H1247 0.930 . S
C1260 C1259 1.388 . S
C1260 C1261 1.390 . S
C1261 C1260 1.390 . S
C1261 C1262 1.394 . S
C1261 C1267 1.465 . S
C1262 C1257 1.399 . S
C1262 C1261 1.394 . S
C1262 C1263 1.516 . S
C1263 C1262 1.516 . S
C1263 C1264 1.502 . S
C1263 C1265 1.561 . S
C1263 C1266 1.526 . S
C1264 H1248 0.959 . S
C1264 H1249 0.959 . S
C1264 H1250 0.961 . S
C1264 C1263 1.502 . S
C1265 H1251 0.960 . S
C1265 H1252 0.961 . S
C1265 H1253 0.959 . S
C1265 C1263 1.561 . S
C1266 C1263 1.526 . S
C1266 C1267 1.396 . S
C1266 C1271 1.390 . S
C1267 C1261 1.465 . S
C1267 C1266 1.396 . S
C1267 C1268 1.399 . S
C1268 H1254 0.929 . S
C1268 C1267 1.399 . S
C1268 C1269 1.385 . S
C1269 H1255 0.931 . S
C1269 C1268 1.385 . S
C1269 C1270 1.389 . S
C1270 C1269 1.389 . S
C1270 C1271 1.387 . S
C1271 H1256 0.930 . S
C1271 C1266 1.390 . S
C1271 C1270 1.387 . S
H1272 C1284 0.930 . S
H1273 C1286 0.930 . S
H1274 C1287 0.930 . S
H1275 C1291 0.959 . S
H1276 C1291 0.959 . S
H1277 C1291 0.961 . S
H1278 C1292 0.960 . S
H1279 C1292 0.961 . S
H1280 C1292 0.959 . S
H1281 C1295 0.929 . S
H1282 C1296 0.931 . S
H1283 C1298 0.930 . S
C1284 H1272 0.930 . S
C1284 C1285 1.399 . S
C1284 C1289 1.399 . S
C1285 C1284 1.399 . S
C1285 C1286 1.376 . S
C1286 H1273 0.930 . S
C1286 C1285 1.376 . S
C1286 C1287 1.388 . S
C1287 H1274 0.930 . S
C1287 C1286 1.388 . S
C1287 C1288 1.390 . S
C1288 C1287 1.390 . S
C1288 C1289 1.394 . S
C1288 C1294 1.465 . S
C1289 C1284 1.399 . S
C1289 C1288 1.394 . S
C1289 C1290 1.516 . S
C1290 C1289 1.516 . S
C1290 C1291 1.502 . S
C1290 C1292 1.561 . S
C1290 C1293 1.526 . S
C1291 H1275 0.959 . S
C1291 H1276 0.959 . S
C1291 H1277 0.961 . S
C1291 C1290 1.502 . S
C1292 H1278 0.960 . S
C1292 H1279 0.961 . S
C1292 H1280 0.959 . S
C1292 C1290 1.561 . S
C1293 C1290 1.526 . S
C1293 C1294 1.396 . S
C1293 C1298 1.390 . S
C1294 C1288 1.465 . S
C1294 C1293 1.396 . S
C1294 C1295 1.399 . S
C1295 H1281 0.929 . S
C1295 C1294 1.399 . S
C1295 C1296 1.385 . S
C1296 H1282 0.931 . S
C1296 C1295 1.385 . S
C1296 C1297 1.389 . S
C1297 C1296 1.389 . S
C1297 C1298 1.387 . S
C1298 H1283 0.930 . S
C1298 C1293 1.390 . S
C1298 C1297 1.387 . S
H1299 C1311 0.930 . S
H1300 C1313 0.930 . S
H1301 C1314 0.930 . S
H1302 C1318 0.959 . S
H1303 C1318 0.959 . S
H1304 C1318 0.961 . S
H1305 C1319 0.960 . S
H1306 C1319 0.961 . S
H1307 C1319 0.959 . S
H1308 C1322 0.929 . S
H1309 C1323 0.931 . S
H1310 C1325 0.930 . S
C1311 H1299 0.930 . S
C1311 C1312 1.399 . S
C1311 C1316 1.399 . S
C1312 C1311 1.399 . S
C1312 C1313 1.376 . S
C1313 H1300 0.930 . S
C1313 C1312 1.376 . S
C1313 C1314 1.388 . S
C1314 H1301 0.930 . S
C1314 C1313 1.388 . S
C1314 C1315 1.390 . S
C1315 C1314 1.390 . S
C1315 C1316 1.394 . S
C1315 C1321 1.465 . S
C1316 C1311 1.399 . S
C1316 C1315 1.394 . S
C1316 C1317 1.516 . S
C1317 C1316 1.516 . S
C1317 C1318 1.502 . S
C1317 C1319 1.561 . S
C1317 C1320 1.526 . S
C1318 H1302 0.959 . S
C1318 H1303 0.959 . S
C1318 H1304 0.961 . S
C1318 C1317 1.502 . S
C1319 H1305 0.960 . S
C1319 H1306 0.961 . S
C1319 H1307 0.959 . S
C1319 C1317 1.561 . S
C1320 C1317 1.526 . S
C1320 C1321 1.396 . S
C1320 C1325 1.390 . S
C1321 C1315 1.465 . S
C1321 C1320 1.396 . S
C1321 C1322 1.399 . S
C1322 H1308 0.929 . S
C1322 C1321 1.399 . S
C1322 C1323 1.385 . S
C1323 H1309 0.931 . S
C1323 C1322 1.385 . S
C1323 C1324 1.389 . S
C1324 C1323 1.389 . S
C1324 C1325 1.387 . S
C1325 H1310 0.930 . S
C1325 C1320 1.390 . S
C1325 C1324 1.387 . S
H1326 C1338 0.930 . S
H1327 C1340 0.930 . S
H1328 C1341 0.930 . S
H1329 C1345 0.959 . S
H1330 C1345 0.959 . S
H1331 C1345 0.961 . S
H1332 C1346 0.960 . S
H1333 C1346 0.961 . S
H1334 C1346 0.959 . S
H1335 C1349 0.929 . S
H1336 C1350 0.931 . S
H1337 C1352 0.930 . S
C1338 H1326 0.930 . S
C1338 C1339 1.399 . S
C1338 C1343 1.399 . S
C1339 C1338 1.399 . S
C1339 C1340 1.376 . S
C1340 H1327 0.930 . S
C1340 C1339 1.376 . S
C1340 C1341 1.388 . S
C1341 H1328 0.930 . S
C1341 C1340 1.388 . S
C1341 C1342 1.390 . S
C1342 C1341 1.390 . S
C1342 C1343 1.394 . S
C1342 C1348 1.465 . S
C1343 C1338 1.399 . S
C1343 C1342 1.394 . S
C1343 C1344 1.516 . S
C1344 C1343 1.516 . S
C1344 C1345 1.502 . S
C1344 C1346 1.561 . S
C1344 C1347 1.526 1_556 S
C1345 H1329 0.959 . S
C1345 H1330 0.959 . S
C1345 H1331 0.961 . S
C1345 C1344 1.502 . S
C1346 H1332 0.960 . S
C1346 H1333 0.961 . S
C1346 H1334 0.959 . S
C1346 C1344 1.561 . S
C1347 C1344 1.526 1_554 S
C1347 C1348 1.396 1_554 S
C1347 C1352 1.390 . S
C1348 C1342 1.465 . S
C1348 C1347 1.396 1_556 S
C1348 C1349 1.399 1_556 S
C1349 H1335 0.929 . S
C1349 C1348 1.399 1_554 S
C1349 C1350 1.385 . S
C1350 H1336 0.931 . S
C1350 C1349 1.385 . S
C1350 C1351 1.389 . S
C1351 C1350 1.389 . S
C1351 C1352 1.387 . S
C1352 H1337 0.930 . S
C1352 C1347 1.390 . S
C1352 C1351 1.387 . S
H1353 C1365 0.930 . S
H1354 C1367 0.930 . S
H1355 C1368 0.930 . S
H1356 C1372 0.959 . S
H1357 C1372 0.959 . S
H1358 C1372 0.961 . S
H1359 C1373 0.960 . S
H1360 C1373 0.961 . S
H1361 C1373 0.959 . S
H1362 C1376 0.929 . S
H1363 C1377 0.931 . S
H1364 C1379 0.930 . S
C1365 H1353 0.930 . S
C1365 C1366 1.399 . S
C1365 C1370 1.399 . S
C1366 C1365 1.399 . S
C1366 C1367 1.376 . S
C1367 H1354 0.930 . S
C1367 C1366 1.376 . S
C1367 C1368 1.388 . S
C1368 H1355 0.930 . S
C1368 C1367 1.388 . S
C1368 C1369 1.390 . S
C1369 C1368 1.390 . S
C1369 C1370 1.394 . S
C1369 C1375 1.465 . S
C1370 C1365 1.399 . S
C1370 C1369 1.394 . S
C1370 C1371 1.516 . S
C1371 C1370 1.516 . S
C1371 C1372 1.502 . S
C1371 C1373 1.561 . S
C1371 C1374 1.526 . S
C1372 H1356 0.959 . S
C1372 H1357 0.959 . S
C1372 H1358 0.961 . S
C1372 C1371 1.502 . S
C1373 H1359 0.960 . S
C1373 H1360 0.961 . S
C1373 H1361 0.959 . S
C1373 C1371 1.561 . S
C1374 C1371 1.526 . S
C1374 C1375 1.396 . S
C1374 C1379 1.390 . S
C1375 C1369 1.465 . S
C1375 C1374 1.396 . S
C1375 C1376 1.399 . S
C1376 H1362 0.929 . S
C1376 C1375 1.399 . S
C1376 C1377 1.385 . S
C1377 H1363 0.931 . S
C1377 C1376 1.385 . S
C1377 C1378 1.389 . S
C1378 C1377 1.389 . S
C1378 C1379 1.387 . S
C1379 H1364 0.930 . S
C1379 C1374 1.390 . S
C1379 C1378 1.387 . S
H1380 C1392 0.930 . S
H1381 C1394 0.930 . S
H1382 C1395 0.930 . S
H1383 C1399 0.959 . S
H1384 C1399 0.959 . S
H1385 C1399 0.961 . S
H1386 C1400 0.960 . S
H1387 C1400 0.961 . S
H1388 C1400 0.959 . S
H1389 C1403 0.929 . S
H1390 C1404 0.931 . S
H1391 C1406 0.930 . S
C1392 H1380 0.930 . S
C1392 C1393 1.399 . S
C1392 C1397 1.399 . S
C1393 C1392 1.399 . S
C1393 C1394 1.376 . S
C1394 H1381 0.930 . S
C1394 C1393 1.376 . S
C1394 C1395 1.388 . S
C1395 H1382 0.930 . S
C1395 C1394 1.388 . S
C1395 C1396 1.390 . S
C1396 C1395 1.390 . S
C1396 C1397 1.394 . S
C1396 C1402 1.465 . S
C1397 C1392 1.399 . S
C1397 C1396 1.394 . S
C1397 C1398 1.516 . S
C1398 C1397 1.516 . S
C1398 C1399 1.502 . S
C1398 C1400 1.561 . S
C1398 C1401 1.526 . S
C1399 H1383 0.959 . S
C1399 H1384 0.959 . S
C1399 H1385 0.961 . S
C1399 C1398 1.502 . S
C1400 H1386 0.960 . S
C1400 H1387 0.961 . S
C1400 H1388 0.959 . S
C1400 C1398 1.561 . S
C1401 C1398 1.526 . S
C1401 C1402 1.396 . S
C1401 C1406 1.390 . S
C1402 C1396 1.465 . S
C1402 C1401 1.396 . S
C1402 C1403 1.399 . S
C1403 H1389 0.929 . S
C1403 C1402 1.399 . S
C1403 C1404 1.385 . S
C1404 H1390 0.931 . S
C1404 C1403 1.385 . S
C1404 C1405 1.389 . S
C1405 C1404 1.389 . S
C1405 C1406 1.387 . S
C1406 H1391 0.930 . S
C1406 C1401 1.390 . S
C1406 C1405 1.387 . S
H1407 C1419 0.930 . S
H1408 C1421 0.930 . S
H1409 C1422 0.930 . S
H1410 C1426 0.959 . S
H1411 C1426 0.959 . S
H1412 C1426 0.961 . S
H1413 C1427 0.960 . S
H1414 C1427 0.961 . S
H1415 C1427 0.959 . S
H1416 C1430 0.929 . S
H1417 C1431 0.931 . S
H1418 C1433 0.930 . S
C1419 H1407 0.930 . S
C1419 C1420 1.399 . S
C1419 C1424 1.399 . S
C1420 C1419 1.399 . S
C1420 C1421 1.376 . S
C1421 H1408 0.930 . S
C1421 C1420 1.376 . S
C1421 C1422 1.388 . S
C1422 H1409 0.930 . S
C1422 C1421 1.388 . S
C1422 C1423 1.390 . S
C1423 C1422 1.390 . S
C1423 C1424 1.394 . S
C1423 C1429 1.465 . S
C1424 C1419 1.399 . S
C1424 C1423 1.394 . S
C1424 C1425 1.516 . S
C1425 C1424 1.516 . S
C1425 C1426 1.502 . S
C1425 C1427 1.561 . S
C1425 C1428 1.526 . S
C1426 H1410 0.959 . S
C1426 H1411 0.959 . S
C1426 H1412 0.961 . S
C1426 C1425 1.502 . S
C1427 H1413 0.960 . S
C1427 H1414 0.961 . S
C1427 H1415 0.959 . S
C1427 C1425 1.561 . S
C1428 C1425 1.526 . S
C1428 C1429 1.396 . S
C1428 C1433 1.390 . S
C1429 C1423 1.465 . S
C1429 C1428 1.396 . S
C1429 C1430 1.399 . S
C1430 H1416 0.929 . S
C1430 C1429 1.399 . S
C1430 C1431 1.385 . S
C1431 H1417 0.931 . S
C1431 C1430 1.385 . S
C1431 C1432 1.389 . S
C1432 C1431 1.389 . S
C1432 C1433 1.387 . S
C1433 H1418 0.930 . S
C1433 C1428 1.390 . S
C1433 C1432 1.387 . S
H1434 C1446 0.930 . S
H1435 C1448 0.930 . S
H1436 C1449 0.930 . S
H1437 C1453 0.959 . S
H1438 C1453 0.959 . S
H1439 C1453 0.961 . S
H1440 C1454 0.960 . S
H1441 C1454 0.961 . S
H1442 C1454 0.959 . S
H1443 C1457 0.929 . S
H1444 C1458 0.931 . S
H1445 C1460 0.930 . S
C1446 H1434 0.930 . S
C1446 C1447 1.399 . S
C1446 C1451 1.399 . S
C1447 C1446 1.399 . S
C1447 C1448 1.376 . S
C1448 H1435 0.930 . S
C1448 C1447 1.376 . S
C1448 C1449 1.388 . S
C1449 H1436 0.930 . S
C1449 C1448 1.388 . S
C1449 C1450 1.390 1_556 S
C1450 C1449 1.390 1_554 S
C1450 C1451 1.394 1_554 S
C1450 C1456 1.465 . S
C1451 C1446 1.399 . S
C1451 C1450 1.394 1_556 S
C1451 C1452 1.516 1_556 S
C1452 C1451 1.516 1_554 S
C1452 C1453 1.502 . S
C1452 C1454 1.561 . S
C1452 C1455 1.526 . S
C1453 H1437 0.959 . S
C1453 H1438 0.959 . S
C1453 H1439 0.961 . S
C1453 C1452 1.502 . S
C1454 H1440 0.960 . S
C1454 H1441 0.961 . S
C1454 H1442 0.959 . S
C1454 C1452 1.561 . S
C1455 C1452 1.526 . S
C1455 C1456 1.396 . S
C1455 C1460 1.390 . S
C1456 C1450 1.465 . S
C1456 C1455 1.396 . S
C1456 C1457 1.399 . S
C1457 H1443 0.929 . S
C1457 C1456 1.399 . S
C1457 C1458 1.385 . S
C1458 H1444 0.931 . S
C1458 C1457 1.385 . S
C1458 C1459 1.389 . S
C1459 C1458 1.389 . S
C1459 C1460 1.387 . S
C1460 H1445 0.930 . S
C1460 C1455 1.390 . S
C1460 C1459 1.387 . S
H1461 C1473 0.930 . S
H1462 C1475 0.930 . S
H1463 C1476 0.930 . S
H1464 C1480 0.959 . S
H1465 C1480 0.959 . S
H1466 C1480 0.961 . S
H1467 C1481 0.960 . S
H1468 C1481 0.961 . S
H1469 C1481 0.959 . S
H1470 C1484 0.929 . S
H1471 C1485 0.931 . S
H1472 C1487 0.930 . S
C1473 H1461 0.930 . S
C1473 C1474 1.399 . S
C1473 C1478 1.399 . S
C1474 C1473 1.399 . S
C1474 C1475 1.376 . S
C1475 H1462 0.930 . S
C1475 C1474 1.376 . S
C1475 C1476 1.388 . S
C1476 H1463 0.930 . S
C1476 C1475 1.388 . S
C1476 C1477 1.390 . S
C1477 C1476 1.390 . S
C1477 C1478 1.394 . S
C1477 C1483 1.465 . S
C1478 C1473 1.399 . S
C1478 C1477 1.394 . S
C1478 C1479 1.516 . S
C1479 C1478 1.516 . S
C1479 C1480 1.502 . S
C1479 C1481 1.561 . S
C1479 C1482 1.526 . S
C1480 H1464 0.959 . S
C1480 H1465 0.959 . S
C1480 H1466 0.961 . S
C1480 C1479 1.502 . S
C1481 H1467 0.960 . S
C1481 H1468 0.961 . S
C1481 H1469 0.959 . S
C1481 C1479 1.561 . S
C1482 C1479 1.526 . S
C1482 C1483 1.396 . S
C1482 C1487 1.390 . S
C1483 C1477 1.465 . S
C1483 C1482 1.396 . S
C1483 C1484 1.399 . S
C1484 H1470 0.929 . S
C1484 C1483 1.399 . S
C1484 C1485 1.385 . S
C1485 H1471 0.931 . S
C1485 C1484 1.385 . S
C1485 C1486 1.389 . S
C1486 C1485 1.389 . S
C1486 C1487 1.387 . S
C1487 H1472 0.930 . S
C1487 C1482 1.390 . S
C1487 C1486 1.387 . S
H1488 C1500 0.930 . S
H1489 C1502 0.930 . S
H1490 C1503 0.930 . S
H1491 C1507 0.959 . S
H1492 C1507 0.959 . S
H1493 C1507 0.961 . S
H1494 C1508 0.960 . S
H1495 C1508 0.961 . S
H1496 C1508 0.959 . S
H1497 C1511 0.929 . S
H1498 C1512 0.931 . S
H1499 C1514 0.930 . S
C1500 H1488 0.930 . S
C1500 C1501 1.399 . S
C1500 C1505 1.399 . S
C1501 C1500 1.399 . S
C1501 C1502 1.376 . S
C1502 H1489 0.930 . S
C1502 C1501 1.376 . S
C1502 C1503 1.388 . S
C1503 H1490 0.930 . S
C1503 C1502 1.388 . S
C1503 C1504 1.390 1_556 S
C1504 C1503 1.390 1_554 S
C1504 C1505 1.394 1_554 S
C1504 C1510 1.465 . S
C1505 C1500 1.399 . S
C1505 C1504 1.394 1_556 S
C1505 C1506 1.516 1_556 S
C1506 C1505 1.516 1_554 S
C1506 C1507 1.502 . S
C1506 C1508 1.561 . S
C1506 C1509 1.526 . S
C1507 H1491 0.959 . S
C1507 H1492 0.959 . S
C1507 H1493 0.961 . S
C1507 C1506 1.502 . S
C1508 H1494 0.960 . S
C1508 H1495 0.961 . S
C1508 H1496 0.959 . S
C1508 C1506 1.561 . S
C1509 C1506 1.526 . S
C1509 C1510 1.396 . S
C1509 C1514 1.390 . S
C1510 C1504 1.465 . S
C1510 C1509 1.396 . S
C1510 C1511 1.399 . S
C1511 H1497 0.929 . S
C1511 C1510 1.399 . S
C1511 C1512 1.385 . S
C1512 H1498 0.931 . S
C1512 C1511 1.385 . S
C1512 C1513 1.389 . S
C1513 C1512 1.389 . S
C1513 C1514 1.387 . S
C1514 H1499 0.930 . S
C1514 C1509 1.390 . S
C1514 C1513 1.387 . S
H1515 C1527 0.930 . S
H1516 C1529 0.930 . S
H1517 C1530 0.930 . S
H1518 C1534 0.959 . S
H1519 C1534 0.959 . S
H1520 C1534 0.961 . S
H1521 C1535 0.960 . S
H1522 C1535 0.961 . S
H1523 C1535 0.959 . S
H1524 C1538 0.929 . S
H1525 C1539 0.931 . S
H1526 C1541 0.930 . S
C1527 H1515 0.930 . S
C1527 C1528 1.399 . S
C1527 C1532 1.399 . S
C1528 C1527 1.399 . S
C1528 C1529 1.376 . S
C1529 H1516 0.930 . S
C1529 C1528 1.376 . S
C1529 C1530 1.388 . S
C1530 H1517 0.930 . S
C1530 C1529 1.388 . S
C1530 C1531 1.390 . S
C1531 C1530 1.390 . S
C1531 C1532 1.394 . S
C1531 C1537 1.465 . S
C1532 C1527 1.399 . S
C1532 C1531 1.394 . S
C1532 C1533 1.516 . S
C1533 C1532 1.516 . S
C1533 C1534 1.502 . S
C1533 C1535 1.561 . S
C1533 C1536 1.526 . S
C1534 H1518 0.959 . S
C1534 H1519 0.959 . S
C1534 H1520 0.961 . S
C1534 C1533 1.502 . S
C1535 H1521 0.960 . S
C1535 H1522 0.961 . S
C1535 H1523 0.959 . S
C1535 C1533 1.561 . S
C1536 C1533 1.526 . S
C1536 C1537 1.396 . S
C1536 C1541 1.390 . S
C1537 C1531 1.465 . S
C1537 C1536 1.396 . S
C1537 C1538 1.399 . S
C1538 H1524 0.929 . S
C1538 C1537 1.399 . S
C1538 C1539 1.385 . S
C1539 H1525 0.931 . S
C1539 C1538 1.385 . S
C1539 C1540 1.389 . S
C1540 C1539 1.389 . S
C1540 C1541 1.387 . S
C1541 H1526 0.930 . S
C1541 C1536 1.390 . S
C1541 C1540 1.387 . S
H1542 C1554 0.930 . S
H1543 C1556 0.930 . S
H1544 C1557 0.930 . S
H1545 C1561 0.959 . S
H1546 C1561 0.959 . S
H1547 C1561 0.961 . S
H1548 C1562 0.960 . S
H1549 C1562 0.961 . S
H1550 C1562 0.959 . S
H1551 C1565 0.929 . S
H1552 C1566 0.931 . S
H1553 C1568 0.930 . S
C1554 H1542 0.930 . S
C1554 C1555 1.399 . S
C1554 C1559 1.399 . S
C1555 C1554 1.399 . S
C1555 C1556 1.376 . S
C1556 H1543 0.930 . S
C1556 C1555 1.376 . S
C1556 C1557 1.388 . S
C1557 H1544 0.930 . S
C1557 C1556 1.388 . S
C1557 C1558 1.390 . S
C1558 C1557 1.390 . S
C1558 C1559 1.394 . S
C1558 C1564 1.465 . S
C1559 C1554 1.399 . S
C1559 C1558 1.394 . S
C1559 C1560 1.516 . S
C1560 C1559 1.516 . S
C1560 C1561 1.502 . S
C1560 C1562 1.561 . S
C1560 C1563 1.526 . S
C1561 H1545 0.959 . S
C1561 H1546 0.959 . S
C1561 H1547 0.961 . S
C1561 C1560 1.502 . S
C1562 H1548 0.960 . S
C1562 H1549 0.961 . S
C1562 H1550 0.959 . S
C1562 C1560 1.561 . S
C1563 C1560 1.526 . S
C1563 C1564 1.396 . S
C1563 C1568 1.390 . S
C1564 C1558 1.465 . S
C1564 C1563 1.396 . S
C1564 C1565 1.399 . S
C1565 H1551 0.929 . S
C1565 C1564 1.399 . S
C1565 C1566 1.385 . S
C1566 H1552 0.931 . S
C1566 C1565 1.385 . S
C1566 C1567 1.389 . S
C1567 C1566 1.389 . S
C1567 C1568 1.387 . S
C1568 H1553 0.930 . S
C1568 C1563 1.390 . S
C1568 C1567 1.387 . S
H1569 C1581 0.930 . S
H1570 C1583 0.930 . S
H1571 C1584 0.930 . S
H1572 C1588 0.959 . S
H1573 C1588 0.959 . S
H1574 C1588 0.961 . S
H1575 C1589 0.960 . S
H1576 C1589 0.961 . S
H1577 C1589 0.959 . S
H1578 C1592 0.929 . S
H1579 C1593 0.931 . S
H1580 C1595 0.930 . S
C1581 H1569 0.930 . S
C1581 C1582 1.399 . S
C1581 C1586 1.399 . S
C1582 C1581 1.399 . S
C1582 C1583 1.376 . S
C1583 H1570 0.930 . S
C1583 C1582 1.376 . S
C1583 C1584 1.388 . S
C1584 H1571 0.930 . S
C1584 C1583 1.388 . S
C1584 C1585 1.390 . S
C1585 C1584 1.390 . S
C1585 C1586 1.394 . S
C1585 C1591 1.465 . S
C1586 C1581 1.399 . S
C1586 C1585 1.394 . S
C1586 C1587 1.516 . S
C1587 C1586 1.516 . S
C1587 C1588 1.502 . S
C1587 C1589 1.561 . S
C1587 C1590 1.526 . S
C1588 H1572 0.959 . S
C1588 H1573 0.959 . S
C1588 H1574 0.961 . S
C1588 C1587 1.502 . S
C1589 H1575 0.960 . S
C1589 H1576 0.961 . S
C1589 H1577 0.959 . S
C1589 C1587 1.561 . S
C1590 C1587 1.526 . S
C1590 C1591 1.396 . S
C1590 C1595 1.390 . S
C1591 C1585 1.465 . S
C1591 C1590 1.396 . S
C1591 C1592 1.399 . S
C1592 H1578 0.929 . S
C1592 C1591 1.399 . S
C1592 C1593 1.385 . S
C1593 H1579 0.931 . S
C1593 C1592 1.385 . S
C1593 C1594 1.389 . S
C1594 C1593 1.389 . S
C1594 C1595 1.387 . S
C1595 H1580 0.930 . S
C1595 C1590 1.390 . S
C1595 C1594 1.387 . S
H1596 C1608 0.930 . S
H1597 C1610 0.930 . S
H1598 C1611 0.930 . S
H1599 C1615 0.959 . S
H1600 C1615 0.959 . S
H1601 C1615 0.961 . S
H1602 C1616 0.960 . S
H1603 C1616 0.961 . S
H1604 C1616 0.959 . S
H1605 C1619 0.929 . S
H1606 C1620 0.931 . S
H1607 C1622 0.930 . S
C1608 H1596 0.930 . S
C1608 C1609 1.399 . S
C1608 C1613 1.399 . S
C1609 C1608 1.399 . S
C1609 C1610 1.376 . S
C1610 H1597 0.930 . S
C1610 C1609 1.376 . S
C1610 C1611 1.388 . S
C1611 H1598 0.930 . S
C1611 C1610 1.388 . S
C1611 C1612 1.390 1_554 S
C1612 C1611 1.390 1_556 S
C1612 C1613 1.394 1_556 S
C1612 C1618 1.465 . S
C1613 C1608 1.399 . S
C1613 C1612 1.394 1_554 S
C1613 C1614 1.516 1_554 S
C1614 C1613 1.516 1_556 S
C1614 C1615 1.502 . S
C1614 C1616 1.561 . S
C1614 C1617 1.526 . S
C1615 H1599 0.959 . S
C1615 H1600 0.959 . S
C1615 H1601 0.961 . S
C1615 C1614 1.502 . S
C1616 H1602 0.960 . S
C1616 H1603 0.961 . S
C1616 H1604 0.959 . S
C1616 C1614 1.561 . S
C1617 C1614 1.526 . S
C1617 C1618 1.396 . S
C1617 C1622 1.390 . S
C1618 C1612 1.465 . S
C1618 C1617 1.396 . S
C1618 C1619 1.399 . S
C1619 H1605 0.929 . S
C1619 C1618 1.399 . S
C1619 C1620 1.385 . S
C1620 H1606 0.931 . S
C1620 C1619 1.385 . S
C1620 C1621 1.389 . S
C1621 C1620 1.389 . S
C1621 C1622 1.387 . S
C1622 H1607 0.930 . S
C1622 C1617 1.390 . S
C1622 C1621 1.387 . S
H1623 C1635 0.930 . S
H1624 C1637 0.930 . S
H1625 C1638 0.930 . S
H1626 C1642 0.959 . S
H1627 C1642 0.959 . S
H1628 C1642 0.961 . S
H1629 C1643 0.960 . S
H1630 C1643 0.961 . S
H1631 C1643 0.959 . S
H1632 C1646 0.929 . S
H1633 C1647 0.931 . S
H1634 C1649 0.930 . S
C1635 H1623 0.930 . S
C1635 C1636 1.399 . S
C1635 C1640 1.399 . S
C1636 C1635 1.399 . S
C1636 C1637 1.376 . S
C1637 H1624 0.930 . S
C1637 C1636 1.376 . S
C1637 C1638 1.388 . S
C1638 H1625 0.930 . S
C1638 C1637 1.388 . S
C1638 C1639 1.390 . S
C1639 C1638 1.390 . S
C1639 C1640 1.394 . S
C1639 C1645 1.465 . S
C1640 C1635 1.399 . S
C1640 C1639 1.394 . S
C1640 C1641 1.516 . S
C1641 C1640 1.516 . S
C1641 C1642 1.502 . S
C1641 C1643 1.561 . S
C1641 C1644 1.526 . S
C1642 H1626 0.959 . S
C1642 H1627 0.959 . S
C1642 H1628 0.961 . S
C1642 C1641 1.502 . S
C1643 H1629 0.960 . S
C1643 H1630 0.961 . S
C1643 H1631 0.959 . S
C1643 C1641 1.561 . S
C1644 C1641 1.526 . S
C1644 C1645 1.396 . S
C1644 C1649 1.390 . S
C1645 C1639 1.465 . S
C1645 C1644 1.396 . S
C1645 C1646 1.399 . S
C1646 H1632 0.929 . S
C1646 C1645 1.399 . S
C1646 C1647 1.385 . S
C1647 H1633 0.931 . S
C1647 C1646 1.385 . S
C1647 C1648 1.389 . S
C1648 C1647 1.389 . S
C1648 C1649 1.387 . S
C1649 H1634 0.930 . S
C1649 C1644 1.390 . S
C1649 C1648 1.387 . S
H1650 C1662 0.930 . S
H1651 C1664 0.930 . S
H1652 C1665 0.930 . S
H1653 C1669 0.959 . S
H1654 C1669 0.959 . S
H1655 C1669 0.961 . S
H1656 C1670 0.960 . S
H1657 C1670 0.961 . S
H1658 C1670 0.959 . S
H1659 C1673 0.929 . S
H1660 C1674 0.931 . S
H1661 C1676 0.930 . S
C1662 H1650 0.930 . S
C1662 C1663 1.399 . S
C1662 C1667 1.399 . S
C1663 C1662 1.399 . S
C1663 C1664 1.376 . S
C1664 H1651 0.930 . S
C1664 C1663 1.376 . S
C1664 C1665 1.388 . S
C1665 H1652 0.930 . S
C1665 C1664 1.388 . S
C1665 C1666 1.390 . S
C1666 C1665 1.390 . S
C1666 C1667 1.394 . S
C1666 C1672 1.465 . S
C1667 C1662 1.399 . S
C1667 C1666 1.394 . S
C1667 C1668 1.516 . S
C1668 C1667 1.516 . S
C1668 C1669 1.502 . S
C1668 C1670 1.561 . S
C1668 C1671 1.526 . S
C1669 H1653 0.959 . S
C1669 H1654 0.959 . S
C1669 H1655 0.961 . S
C1669 C1668 1.502 . S
C1670 H1656 0.960 . S
C1670 H1657 0.961 . S
C1670 H1658 0.959 . S
C1670 C1668 1.561 . S
C1671 C1668 1.526 . S
C1671 C1672 1.396 . S
C1671 C1676 1.390 . S
C1672 C1666 1.465 . S
C1672 C1671 1.396 . S
C1672 C1673 1.399 . S
C1673 H1659 0.929 . S
C1673 C1672 1.399 . S
C1673 C1674 1.385 . S
C1674 H1660 0.931 . S
C1674 C1673 1.385 . S
C1674 C1675 1.389 . S
C1675 C1674 1.389 . S
C1675 C1676 1.387 . S
C1676 H1661 0.930 . S
C1676 C1671 1.390 . S
C1676 C1675 1.387 . S
H1677 C1689 0.930 . S
H1678 C1691 0.930 . S
H1679 C1692 0.930 . S
H1680 C1696 0.959 . S
H1681 C1696 0.959 . S
H1682 C1696 0.961 . S
H1683 C1697 0.960 . S
H1684 C1697 0.961 . S
H1685 C1697 0.959 . S
H1686 C1700 0.929 . S
H1687 C1701 0.931 . S
H1688 C1703 0.930 . S
C1689 H1677 0.930 . S
C1689 C1690 1.399 . S
C1689 C1694 1.399 . S
C1690 C1689 1.399 . S
C1690 C1691 1.376 . S
C1691 H1678 0.930 . S
C1691 C1690 1.376 . S
C1691 C1692 1.388 . S
C1692 H1679 0.930 . S
C1692 C1691 1.388 . S
C1692 C1693 1.390 . S
C1693 C1692 1.390 . S
C1693 C1694 1.394 . S
C1693 C1699 1.465 . S
C1694 C1689 1.399 . S
C1694 C1693 1.394 . S
C1694 C1695 1.516 . S
C1695 C1694 1.516 . S
C1695 C1696 1.502 . S
C1695 C1697 1.561 . S
C1695 C1698 1.526 . S
C1696 H1680 0.959 . S
C1696 H1681 0.959 . S
C1696 H1682 0.961 . S
C1696 C1695 1.502 . S
C1697 H1683 0.960 . S
C1697 H1684 0.961 . S
C1697 H1685 0.959 . S
C1697 C1695 1.561 . S
C1698 C1695 1.526 . S
C1698 C1699 1.396 . S
C1698 C1703 1.390 . S
C1699 C1693 1.465 . S
C1699 C1698 1.396 . S
C1699 C1700 1.399 . S
C1700 H1686 0.929 . S
C1700 C1699 1.399 . S
C1700 C1701 1.385 . S
C1701 H1687 0.931 . S
C1701 C1700 1.385 . S
C1701 C1702 1.389 . S
C1702 C1701 1.389 . S
C1702 C1703 1.387 . S
C1703 H1688 0.930 . S
C1703 C1698 1.390 . S
C1703 C1702 1.387 . S
H1704 C1716 0.930 . S
H1705 C1718 0.930 . S
H1706 C1719 0.930 . S
H1707 C1723 0.959 . S
H1708 C1723 0.959 . S
H1709 C1723 0.961 . S
H1710 C1724 0.960 . S
H1711 C1724 0.961 . S
H1712 C1724 0.959 . S
H1713 C1727 0.929 . S
H1714 C1728 0.931 . S
H1715 C1730 0.930 . S
C1716 H1704 0.930 . S
C1716 C1717 1.399 . S
C1716 C1721 1.399 . S
C1717 C1716 1.399 . S
C1717 C1718 1.376 . S
C1718 H1705 0.930 . S
C1718 C1717 1.376 . S
C1718 C1719 1.388 . S
C1719 H1706 0.930 . S
C1719 C1718 1.388 . S
C1719 C1720 1.390 1_554 S
C1720 C1719 1.390 1_556 S
C1720 C1721 1.394 1_556 S
C1720 C1726 1.465 . S
C1721 C1716 1.399 . S
C1721 C1720 1.394 1_554 S
C1721 C1722 1.516 1_554 S
C1722 C1721 1.516 1_556 S
C1722 C1723 1.502 . S
C1722 C1724 1.561 . S
C1722 C1725 1.526 . S
C1723 H1707 0.959 . S
C1723 H1708 0.959 . S
C1723 H1709 0.961 . S
C1723 C1722 1.502 . S
C1724 H1710 0.960 . S
C1724 H1711 0.961 . S
C1724 H1712 0.959 . S
C1724 C1722 1.561 . S
C1725 C1722 1.526 . S
C1725 C1726 1.396 . S
C1725 C1730 1.390 . S
C1726 C1720 1.465 . S
C1726 C1725 1.396 . S
C1726 C1727 1.399 . S
C1727 H1713 0.929 . S
C1727 C1726 1.399 . S
C1727 C1728 1.385 . S
C1728 H1714 0.931 . S
C1728 C1727 1.385 . S
C1728 C1729 1.389 . S
C1729 C1728 1.389 . S
C1729 C1730 1.387 . S
C1730 H1715 0.930 . S
C1730 C1725 1.390 . S
C1730 C1729 1.387 . S
H1731 C1743 0.930 . S
H1732 C1745 0.930 . S
H1733 C1746 0.930 . S
H1734 C1750 0.959 . S
H1735 C1750 0.959 . S
H1736 C1750 0.961 . S
H1737 C1751 0.960 . S
H1738 C1751 0.961 . S
H1739 C1751 0.959 . S
H1740 C1754 0.929 . S
H1741 C1755 0.931 . S
H1742 C1757 0.930 . S
C1743 H1731 0.930 . S
C1743 C1744 1.399 . S
C1743 C1748 1.399 . S
C1744 C1743 1.399 . S
C1744 C1745 1.376 . S
C1745 H1732 0.930 . S
C1745 C1744 1.376 . S
C1745 C1746 1.388 . S
C1746 H1733 0.930 . S
C1746 C1745 1.388 . S
C1746 C1747 1.390 . S
C1747 C1746 1.390 . S
C1747 C1748 1.394 . S
C1747 C1753 1.465 . S
C1748 C1743 1.399 . S
C1748 C1747 1.394 . S
C1748 C1749 1.516 . S
C1749 C1748 1.516 . S
C1749 C1750 1.502 . S
C1749 C1751 1.561 . S
C1749 C1752 1.526 . S
C1750 H1734 0.959 . S
C1750 H1735 0.959 . S
C1750 H1736 0.961 . S
C1750 C1749 1.502 . S
C1751 H1737 0.960 . S
C1751 H1738 0.961 . S
C1751 H1739 0.959 . S
C1751 C1749 1.561 . S
C1752 C1749 1.526 . S
C1752 C1753 1.396 . S
C1752 C1757 1.390 . S
C1753 C1747 1.465 . S
C1753 C1752 1.396 . S
C1753 C1754 1.399 . S
C1754 H1740 0.929 . S
C1754 C1753 1.399 . S
C1754 C1755 1.385 . S
C1755 H1741 0.931 . S
C1755 C1754 1.385 . S
C1755 C1756 1.389 . S
C1756 C1755 1.389 . S
C1756 C1757 1.387 . S
C1757 H1742 0.930 . S
C1757 C1752 1.390 . S
C1757 C1756 1.387 . S
H1758 C1770 0.930 . S
H1759 C1772 0.930 . S
H1760 C1773 0.930 . S
H1761 C1777 0.959 . S
H1762 C1777 0.959 . S
H1763 C1777 0.961 . S
H1764 C1778 0.960 . S
H1765 C1778 0.961 . S
H1766 C1778 0.959 . S
H1767 C1781 0.929 . S
H1768 C1782 0.931 . S
H1769 C1784 0.930 . S
C1770 H1758 0.930 . S
C1770 C1771 1.399 . S
C1770 C1775 1.399 . S
C1771 C1770 1.399 . S
C1771 C1772 1.376 . S
C1772 H1759 0.930 . S
C1772 C1771 1.376 . S
C1772 C1773 1.388 . S
C1773 H1760 0.930 . S
C1773 C1772 1.388 . S
C1773 C1774 1.390 . S
C1774 C1773 1.390 . S
C1774 C1775 1.394 . S
C1774 C1780 1.465 . S
C1775 C1770 1.399 . S
C1775 C1774 1.394 . S
C1775 C1776 1.516 . S
C1776 C1775 1.516 . S
C1776 C1777 1.502 . S
C1776 C1778 1.561 . S
C1776 C1779 1.526 . S
C1777 H1761 0.959 . S
C1777 H1762 0.959 . S
C1777 H1763 0.961 . S
C1777 C1776 1.502 . S
C1778 H1764 0.960 . S
C1778 H1765 0.961 . S
C1778 H1766 0.959 . S
C1778 C1776 1.561 . S
C1779 C1776 1.526 . S
C1779 C1780 1.396 . S
C1779 C1784 1.390 . S
C1780 C1774 1.465 . S
C1780 C1779 1.396 . S
C1780 C1781 1.399 . S
C1781 H1767 0.929 . S
C1781 C1780 1.399 . S
C1781 C1782 1.385 . S
C1782 H1768 0.931 . S
C1782 C1781 1.385 . S
C1782 C1783 1.389 . S
C1783 C1782 1.389 . S
C1783 C1784 1.387 . S
C1784 H1769 0.930 . S
C1784 C1779 1.390 . S
C1784 C1783 1.387 . S
H1785 C1797 0.930 . S
H1786 C1799 0.930 . S
H1787 C1800 0.930 . S
H1788 C1804 0.959 . S
H1789 C1804 0.959 . S
H1790 C1804 0.961 . S
H1791 C1805 0.960 . S
H1792 C1805 0.961 . S
H1793 C1805 0.959 . S
H1794 C1808 0.929 . S
H1795 C1809 0.931 . S
H1796 C1811 0.930 . S
C1797 H1785 0.930 . S
C1797 C1798 1.399 . S
C1797 C1802 1.399 . S
C1798 C1797 1.399 . S
C1798 C1799 1.376 . S
C1799 H1786 0.930 . S
C1799 C1798 1.376 . S
C1799 C1800 1.388 . S
C1800 H1787 0.930 . S
C1800 C1799 1.388 . S
C1800 C1801 1.390 . S
C1801 C1800 1.390 . S
C1801 C1802 1.394 . S
C1801 C1807 1.465 . S
C1802 C1797 1.399 . S
C1802 C1801 1.394 . S
C1802 C1803 1.516 . S
C1803 C1802 1.516 . S
C1803 C1804 1.502 . S
C1803 C1805 1.561 . S
C1803 C1806 1.526 . S
C1804 H1788 0.959 . S
C1804 H1789 0.959 . S
C1804 H1790 0.961 . S
C1804 C1803 1.502 . S
C1805 H1791 0.960 . S
C1805 H1792 0.961 . S
C1805 H1793 0.959 . S
C1805 C1803 1.561 . S
C1806 C1803 1.526 . S
C1806 C1807 1.396 . S
C1806 C1811 1.390 . S
C1807 C1801 1.465 . S
C1807 C1806 1.396 . S
C1807 C1808 1.399 . S
C1808 H1794 0.929 . S
C1808 C1807 1.399 . S
C1808 C1809 1.385 . S
C1809 H1795 0.931 . S
C1809 C1808 1.385 . S
C1809 C1810 1.389 . S
C1810 C1809 1.389 . S
C1810 C1811 1.387 . S
C1811 H1796 0.930 . S
C1811 C1806 1.390 . S
C1811 C1810 1.387 . S
H1812 C1824 0.930 . S
H1813 C1826 0.930 . S
H1814 C1827 0.930 . S
H1815 C1831 0.959 . S
H1816 C1831 0.959 . S
H1817 C1831 0.961 . S
H1818 C1832 0.960 . S
H1819 C1832 0.961 . S
H1820 C1832 0.959 . S
H1821 C1835 0.929 . S
H1822 C1836 0.931 . S
H1823 C1838 0.930 . S
C1824 H1812 0.930 . S
C1824 C1825 1.399 . S
C1824 C1829 1.399 . S
C1825 C1824 1.399 . S
C1825 C1826 1.376 . S
C1826 H1813 0.930 . S
C1826 C1825 1.376 . S
C1826 C1827 1.388 . S
C1827 H1814 0.930 . S
C1827 C1826 1.388 . S
C1827 C1828 1.390 . S
C1828 C1827 1.390 . S
C1828 C1829 1.394 . S
C1828 C1834 1.465 . S
C1829 C1824 1.399 . S
C1829 C1828 1.394 . S
C1829 C1830 1.516 . S
C1830 C1829 1.516 . S
C1830 C1831 1.502 . S
C1830 C1832 1.561 . S
C1830 C1833 1.526 1_554 S
C1831 H1815 0.959 . S
C1831 H1816 0.959 . S
C1831 H1817 0.961 . S
C1831 C1830 1.502 . S
C1832 H1818 0.960 . S
C1832 H1819 0.961 . S
C1832 H1820 0.959 . S
C1832 C1830 1.561 . S
C1833 C1830 1.526 1_556 S
C1833 C1834 1.396 1_556 S
C1833 C1838 1.390 . S
C1834 C1828 1.465 . S
C1834 C1833 1.396 1_554 S
C1834 C1835 1.399 1_554 S
C1835 H1821 0.929 . S
C1835 C1834 1.399 1_556 S
C1835 C1836 1.385 . S
C1836 H1822 0.931 . S
C1836 C1835 1.385 . S
C1836 C1837 1.389 . S
C1837 C1836 1.389 . S
C1837 C1838 1.387 . S
C1838 H1823 0.930 . S
C1838 C1833 1.390 . S
C1838 C1837 1.387 . S
H1839 C1851 0.930 . S
H1840 C1853 0.930 . S
H1841 C1854 0.930 . S
H1842 C1858 0.959 . S
H1843 C1858 0.959 . S
H1844 C1858 0.961 . S
H1845 C1859 0.960 . S
H1846 C1859 0.961 . S
H1847 C1859 0.959 . S
H1848 C1862 0.929 . S
H1849 C1863 0.931 . S
H1850 C1865 0.930 . S
C1851 H1839 0.930 . S
C1851 C1852 1.399 . S
C1851 C1856 1.399 . S
C1852 C1851 1.399 . S
C1852 C1853 1.376 . S
C1853 H1840 0.930 . S
C1853 C1852 1.376 . S
C1853 C1854 1.388 . S
C1854 H1841 0.930 . S
C1854 C1853 1.388 . S
C1854 C1855 1.390 . S
C1855 C1854 1.390 . S
C1855 C1856 1.394 . S
C1855 C1861 1.465 . S
C1856 C1851 1.399 . S
C1856 C1855 1.394 . S
C1856 C1857 1.516 . S
C1857 C1856 1.516 . S
C1857 C1858 1.502 . S
C1857 C1859 1.561 . S
C1857 C1860 1.526 . S
C1858 H1842 0.959 . S
C1858 H1843 0.959 . S
C1858 H1844 0.961 . S
C1858 C1857 1.502 . S
C1859 H1845 0.960 . S
C1859 H1846 0.961 . S
C1859 H1847 0.959 . S
C1859 C1857 1.561 . S
C1860 C1857 1.526 . S
C1860 C1861 1.396 . S
C1860 C1865 1.390 . S
C1861 C1855 1.465 . S
C1861 C1860 1.396 . S
C1861 C1862 1.399 . S
C1862 H1848 0.929 . S
C1862 C1861 1.399 . S
C1862 C1863 1.385 . S
C1863 H1849 0.931 . S
C1863 C1862 1.385 . S
C1863 C1864 1.389 . S
C1864 C1863 1.389 . S
C1864 C1865 1.387 . S
C1865 H1850 0.930 . S
C1865 C1860 1.390 . S
C1865 C1864 1.387 . S
H1866 C1878 0.930 . S
H1867 C1880 0.930 . S
H1868 C1881 0.930 . S
H1869 C1885 0.959 . S
H1870 C1885 0.959 . S
H1871 C1885 0.961 . S
H1872 C1886 0.960 . S
H1873 C1886 0.961 . S
H1874 C1886 0.959 . S
H1875 C1889 0.929 . S
H1876 C1890 0.931 . S
H1877 C1892 0.930 . S
C1878 H1866 0.930 . S
C1878 C1879 1.399 . S
C1878 C1883 1.399 . S
C1879 C1878 1.399 . S
C1879 C1880 1.376 . S
C1880 H1867 0.930 . S
C1880 C1879 1.376 . S
C1880 C1881 1.388 . S
C1881 H1868 0.930 . S
C1881 C1880 1.388 . S
C1881 C1882 1.390 . S
C1882 C1881 1.390 . S
C1882 C1883 1.394 . S
C1882 C1888 1.465 . S
C1883 C1878 1.399 . S
C1883 C1882 1.394 . S
C1883 C1884 1.516 . S
C1884 C1883 1.516 . S
C1884 C1885 1.502 . S
C1884 C1886 1.561 . S
C1884 C1887 1.526 . S
C1885 H1869 0.959 . S
C1885 H1870 0.959 . S
C1885 H1871 0.961 . S
C1885 C1884 1.502 . S
C1886 H1872 0.960 . S
C1886 H1873 0.961 . S
C1886 H1874 0.959 . S
C1886 C1884 1.561 . S
C1887 C1884 1.526 . S
C1887 C1888 1.396 . S
C1887 C1892 1.390 . S
C1888 C1882 1.465 . S
C1888 C1887 1.396 . S
C1888 C1889 1.399 . S
C1889 H1875 0.929 . S
C1889 C1888 1.399 . S
C1889 C1890 1.385 . S
C1890 H1876 0.931 . S
C1890 C1889 1.385 . S
C1890 C1891 1.389 . S
C1891 C1890 1.389 . S
C1891 C1892 1.387 . S
C1892 H1877 0.930 . S
C1892 C1887 1.390 . S
C1892 C1891 1.387 . S
H1893 C1905 0.930 . S
H1894 C1907 0.930 . S
H1895 C1908 0.930 . S
H1896 C1912 0.959 . S
H1897 C1912 0.959 . S
H1898 C1912 0.961 . S
H1899 C1913 0.960 . S
H1900 C1913 0.961 . S
H1901 C1913 0.959 . S
H1902 C1916 0.929 . S
H1903 C1917 0.931 . S
H1904 C1919 0.930 . S
C1905 H1893 0.930 . S
C1905 C1906 1.399 . S
C1905 C1910 1.399 . S
C1906 C1905 1.399 . S
C1906 C1907 1.376 . S
C1907 H1894 0.930 . S
C1907 C1906 1.376 . S
C1907 C1908 1.388 . S
C1908 H1895 0.930 . S
C1908 C1907 1.388 . S
C1908 C1909 1.390 . S
C1909 C1908 1.390 . S
C1909 C1910 1.394 . S
C1909 C1915 1.465 . S
C1910 C1905 1.399 . S
C1910 C1909 1.394 . S
C1910 C1911 1.516 . S
C1911 C1910 1.516 . S
C1911 C1912 1.502 . S
C1911 C1913 1.561 . S
C1911 C1914 1.526 . S
C1912 H1896 0.959 . S
C1912 H1897 0.959 . S
C1912 H1898 0.961 . S
C1912 C1911 1.502 . S
C1913 H1899 0.960 . S
C1913 H1900 0.961 . S
C1913 H1901 0.959 . S
C1913 C1911 1.561 . S
C1914 C1911 1.526 . S
C1914 C1915 1.396 . S
C1914 C1919 1.390 . S
C1915 C1909 1.465 . S
C1915 C1914 1.396 . S
C1915 C1916 1.399 . S
C1916 H1902 0.929 . S
C1916 C1915 1.399 . S
C1916 C1917 1.385 . S
C1917 H1903 0.931 . S
C1917 C1916 1.385 . S
C1917 C1918 1.389 . S
C1918 C1917 1.389 . S
C1918 C1919 1.387 . S
C1919 H1904 0.930 . S
C1919 C1914 1.390 . S
C1919 C1918 1.387 . S
H1920 C1932 0.930 . S
H1921 C1934 0.930 . S
H1922 C1935 0.930 . S
H1923 C1939 0.959 1_554 S
H1924 C1939 0.959 . S
H1925 C1939 0.961 . S
H1926 C1940 0.960 . S
H1927 C1940 0.961 . S
H1928 C1940 0.959 1_554 S
H1929 C1943 0.929 . S
H1930 C1944 0.931 . S
H1931 C1946 0.930 1_556 S
C1932 H1920 0.930 . S
C1932 C1933 1.399 . S
C1932 C1937 1.399 . S
C1933 C1932 1.399 . S
C1933 C1934 1.376 . S
C1934 H1921 0.930 . S
C1934 C1933 1.376 . S
C1934 C1935 1.388 . S
C1935 H1922 0.930 . S
C1935 C1934 1.388 . S
C1935 C1936 1.390 . S
C1936 C1935 1.390 . S
C1936 C1937 1.394 . S
C1936 C1942 1.465 . S
C1937 C1932 1.399 . S
C1937 C1936 1.394 . S
C1937 C1938 1.516 . S
C1938 C1937 1.516 . S
C1938 C1939 1.502 1_554 S
C1938 C1940 1.561 1_554 S
C1938 C1941 1.526 . S
C1939 H1923 0.959 1_556 S
C1939 H1924 0.959 . S
C1939 H1925 0.961 . S
C1939 C1938 1.502 1_556 S
C1940 H1926 0.960 . S
C1940 H1927 0.961 . S
C1940 H1928 0.959 1_556 S
C1940 C1938 1.561 1_556 S
C1941 C1938 1.526 . S
C1941 C1942 1.396 . S
C1941 C1946 1.390 . S
C1942 C1936 1.465 . S
C1942 C1941 1.396 . S
C1942 C1943 1.399 . S
C1943 H1929 0.929 . S
C1943 C1942 1.399 . S
C1943 C1944 1.385 . S
C1944 H1930 0.931 . S
C1944 C1943 1.385 . S
C1944 C1945 1.389 . S
C1945 C1944 1.389 . S
C1945 C1946 1.387 . S
C1946 H1931 0.930 1_554 S
C1946 C1941 1.390 . S
C1946 C1945 1.387 . S
H1947 C1959 0.930 . S
H1948 C1961 0.930 . S
H1949 C1962 0.930 . S
H1950 C1966 0.959 . S
H1951 C1966 0.959 . S
H1952 C1966 0.961 . S
H1953 C1967 0.960 . S
H1954 C1967 0.961 . S
H1955 C1967 0.959 . S
H1956 C1970 0.929 . S
H1957 C1971 0.931 . S
H1958 C1973 0.930 . S
C1959 H1947 0.930 . S
C1959 C1960 1.399 . S
C1959 C1964 1.399 . S
C1960 C1959 1.399 . S
C1960 C1961 1.376 . S
C1961 H1948 0.930 . S
C1961 C1960 1.376 . S
C1961 C1962 1.388 . S
C1962 H1949 0.930 . S
C1962 C1961 1.388 . S
C1962 C1963 1.390 . S
C1963 C1962 1.390 . S
C1963 C1964 1.394 . S
C1963 C1969 1.465 . S
C1964 C1959 1.399 . S
C1964 C1963 1.394 . S
C1964 C1965 1.516 . S
C1965 C1964 1.516 . S
C1965 C1966 1.502 . S
C1965 C1967 1.561 . S
C1965 C1968 1.526 . S
C1966 H1950 0.959 . S
C1966 H1951 0.959 . S
C1966 H1952 0.961 . S
C1966 C1965 1.502 . S
C1967 H1953 0.960 . S
C1967 H1954 0.961 . S
C1967 H1955 0.959 . S
C1967 C1965 1.561 . S
C1968 C1965 1.526 . S
C1968 C1969 1.396 . S
C1968 C1973 1.390 . S
C1969 C1963 1.465 . S
C1969 C1968 1.396 . S
C1969 C1970 1.399 . S
C1970 H1956 0.929 . S
C1970 C1969 1.399 . S
C1970 C1971 1.385 . S
C1971 H1957 0.931 . S
C1971 C1970 1.385 . S
C1971 C1972 1.389 . S
C1972 C1971 1.389 . S
C1972 C1973 1.387 . S
C1973 H1958 0.930 . S
C1973 C1968 1.390 . S
C1973 C1972 1.387 . S
H1974 C1986 0.930 . S
H1975 C1988 0.930 . S
H1976 C1989 0.930 . S
H1977 C1993 0.959 . S
H1978 C1993 0.959 . S
H1979 C1993 0.961 . S
H1980 C1994 0.960 . S
H1981 C1994 0.961 . S
H1982 C1994 0.959 . S
H1983 C1997 0.929 . S
H1984 C1998 0.931 . S
H1985 C2000 0.930 . S
C1986 H1974 0.930 . S
C1986 C1987 1.399 . S
C1986 C1991 1.399 . S
C1987 C1986 1.399 . S
C1987 C1988 1.376 . S
C1988 H1975 0.930 . S
C1988 C1987 1.376 . S
C1988 C1989 1.388 . S
C1989 H1976 0.930 . S
C1989 C1988 1.388 . S
C1989 C1990 1.390 . S
C1990 C1989 1.390 . S
C1990 C1991 1.394 . S
C1990 C1996 1.465 . S
C1991 C1986 1.399 . S
C1991 C1990 1.394 . S
C1991 C1992 1.516 . S
C1992 C1991 1.516 . S
C1992 C1993 1.502 . S
C1992 C1994 1.561 . S
C1992 C1995 1.526 . S
C1993 H1977 0.959 . S
C1993 H1978 0.959 . S
C1993 H1979 0.961 . S
C1993 C1992 1.502 . S
C1994 H1980 0.960 . S
C1994 H1981 0.961 . S
C1994 H1982 0.959 . S
C1994 C1992 1.561 . S
C1995 C1992 1.526 . S
C1995 C1996 1.396 . S
C1995 C2000 1.390 . S
C1996 C1990 1.465 . S
C1996 C1995 1.396 . S
C1996 C1997 1.399 . S
C1997 H1983 0.929 . S
C1997 C1996 1.399 . S
C1997 C1998 1.385 . S
C1998 H1984 0.931 . S
C1998 C1997 1.385 . S
C1998 C1999 1.389 . S
C1999 C1998 1.389 . S
C1999 C2000 1.387 . S
C2000 H1985 0.930 . S
C2000 C1995 1.390 . S
C2000 C1999 1.387 . S
H2001 C2013 0.930 . S
H2002 C2015 0.930 1_554 S
H2003 C2016 0.930 1_554 S
H2004 C2020 0.959 . S
H2005 C2020 0.959 . S
H2006 C2020 0.961 . S
H2007 C2021 0.960 . S
H2008 C2021 0.961 . S
H2009 C2021 0.959 . S
H2010 C2024 0.929 . S
H2011 C2025 0.931 . S
H2012 C2027 0.930 . S
C2013 H2001 0.930 . S
C2013 C2014 1.399 . S
C2013 C2018 1.399 . S
C2014 C2013 1.399 . S
C2014 C2015 1.376 . S
C2015 H2002 0.930 1_556 S
C2015 C2014 1.376 . S
C2015 C2016 1.388 . S
C2016 H2003 0.930 1_556 S
C2016 C2015 1.388 . S
C2016 C2017 1.390 . S
C2017 C2016 1.390 . S
C2017 C2018 1.394 . S
C2017 C2023 1.465 . S
C2018 C2013 1.399 . S
C2018 C2017 1.394 . S
C2018 C2019 1.516 . S
C2019 C2018 1.516 . S
C2019 C2020 1.502 . S
C2019 C2021 1.561 . S
C2019 C2022 1.526 . S
C2020 H2004 0.959 . S
C2020 H2005 0.959 . S
C2020 H2006 0.961 . S
C2020 C2019 1.502 . S
C2021 H2007 0.960 . S
C2021 H2008 0.961 . S
C2021 H2009 0.959 . S
C2021 C2019 1.561 . S
C2022 C2019 1.526 . S
C2022 C2023 1.396 . S
C2022 C2027 1.390 . S
C2023 C2017 1.465 . S
C2023 C2022 1.396 . S
C2023 C2024 1.399 . S
C2024 H2010 0.929 . S
C2024 C2023 1.399 . S
C2024 C2025 1.385 . S
C2025 H2011 0.931 . S
C2025 C2024 1.385 . S
C2025 C2026 1.389 . S
C2026 C2025 1.389 . S
C2026 C2027 1.387 . S
C2027 H2012 0.930 . S
C2027 C2022 1.390 . S
C2027 C2026 1.387 . S
H2028 C2040 0.930 . S
H2029 C2042 0.930 . S
H2030 C2043 0.928 1_554 S
H2031 C2047 0.959 . S
H2032 C2047 0.959 . S
H2033 C2047 0.961 . S
H2034 C2048 0.960 . S
H2035 C2048 0.961 . S
H2036 C2048 0.959 . S
H2037 C2051 0.929 1_554 S
H2038 C2052 0.931 1_554 S
H2039 C2054 0.930 . S
C2040 H2028 0.930 . S
C2040 C2041 1.399 . S
C2040 C2045 1.399 . S
C2041 C2040 1.399 . S
C2041 C2042 1.376 . S
C2042 H2029 0.930 . S
C2042 C2041 1.376 . S
C2042 C2043 1.388 . S
C2043 H2030 0.928 1_556 S
C2043 C2042 1.388 . S
C2043 C2044 1.390 . S
C2044 C2043 1.390 . S
C2044 C2045 1.394 . S
C2044 C2050 1.465 . S
C2045 C2040 1.399 . S
C2045 C2044 1.394 . S
C2045 C2046 1.516 . S
C2046 C2045 1.516 . S
C2046 C2047 1.502 . S
C2046 C2048 1.561 . S
C2046 C2049 1.526 . S
C2047 H2031 0.959 . S
C2047 H2032 0.959 . S
C2047 H2033 0.961 . S
C2047 C2046 1.502 . S
C2048 H2034 0.960 . S
C2048 H2035 0.961 . S
C2048 H2036 0.959 . S
C2048 C2046 1.561 . S
C2049 C2046 1.526 . S
C2049 C2050 1.396 . S
C2049 C2054 1.390 . S
C2050 C2044 1.465 . S
C2050 C2049 1.396 . S
C2050 C2051 1.399 . S
C2051 H2037 0.929 1_556 S
C2051 C2050 1.399 . S
C2051 C2052 1.385 . S
C2052 H2038 0.931 1_556 S
C2052 C2051 1.385 . S
C2052 C2053 1.389 . S
C2053 C2052 1.389 . S
C2053 C2054 1.387 . S
C2054 H2039 0.930 . S
C2054 C2049 1.390 . S
C2054 C2053 1.387 . S
H2055 C2067 0.930 . S
H2056 C2069 0.930 1_556 S
H2057 C2070 0.930 1_556 S
H2058 C2074 0.959 . S
H2059 C2074 0.959 . S
H2060 C2074 0.961 . S
H2061 C2075 0.960 . S
H2062 C2075 0.961 . S
H2063 C2075 0.959 . S
H2064 C2078 0.929 1_556 S
H2065 C2079 0.931 . S
H2066 C2081 0.930 . S
C2067 H2055 0.930 . S
C2067 C2068 1.399 . S
C2067 C2072 1.399 . S
C2068 C2067 1.399 . S
C2068 C2069 1.376 . S
C2069 H2056 0.930 1_554 S
C2069 C2068 1.376 . S
C2069 C2070 1.388 . S
C2070 H2057 0.930 1_554 S
C2070 C2069 1.388 . S
C2070 C2071 1.390 . S
C2071 C2070 1.390 . S
C2071 C2072 1.394 . S
C2071 C2077 1.465 . S
C2072 C2067 1.399 . S
C2072 C2071 1.394 . S
C2072 C2073 1.516 . S
C2073 C2072 1.516 . S
C2073 C2074 1.502 . S
C2073 C2075 1.561 . S
C2073 C2076 1.526 . S
C2074 H2058 0.959 . S
C2074 H2059 0.959 . S
C2074 H2060 0.961 . S
C2074 C2073 1.502 . S
C2075 H2061 0.960 . S
C2075 H2062 0.961 . S
C2075 H2063 0.959 . S
C2075 C2073 1.561 . S
C2076 C2073 1.526 . S
C2076 C2077 1.396 . S
C2076 C2081 1.390 . S
C2077 C2071 1.465 . S
C2077 C2076 1.396 . S
C2077 C2078 1.399 . S
C2078 H2064 0.929 1_554 S
C2078 C2077 1.399 . S
C2078 C2079 1.385 . S
C2079 H2065 0.931 . S
C2079 C2078 1.385 . S
C2079 C2080 1.389 . S
C2080 C2079 1.389 . S
C2080 C2081 1.387 . S
C2081 H2066 0.930 . S
C2081 C2076 1.390 . S
C2081 C2080 1.387 . S
H2082 C2094 0.930 . S
H2083 C2096 0.930 . S
H2084 C2097 0.930 . S
H2085 C2101 0.959 . S
H2086 C2101 0.959 . S
H2087 C2101 0.961 . S
H2088 C2102 0.960 . S
H2089 C2102 0.961 . S
H2090 C2102 0.959 . S
H2091 C2105 0.929 . S
H2092 C2106 0.931 . S
H2093 C2108 0.930 . S
C2094 H2082 0.930 . S
C2094 C2095 1.399 . S
C2094 C2099 1.399 . S
C2095 C2094 1.399 . S
C2095 C2096 1.376 . S
C2096 H2083 0.930 . S
C2096 C2095 1.376 . S
C2096 C2097 1.388 . S
C2097 H2084 0.930 . S
C2097 C2096 1.388 . S
C2097 C2098 1.390 . S
C2098 C2097 1.390 . S
C2098 C2099 1.394 . S
C2098 C2104 1.465 . S
C2099 C2094 1.399 . S
C2099 C2098 1.394 . S
C2099 C2100 1.516 . S
C2100 C2099 1.516 . S
C2100 C2101 1.502 . S
C2100 C2102 1.561 . S
C2100 C2103 1.526 . S
C2101 H2085 0.959 . S
C2101 H2086 0.959 . S
C2101 H2087 0.961 . S
C2101 C2100 1.502 . S
C2102 H2088 0.960 . S
C2102 H2089 0.961 . S
C2102 H2090 0.959 . S
C2102 C2100 1.561 . S
C2103 C2100 1.526 . S
C2103 C2104 1.396 . S
C2103 C2108 1.390 . S
C2104 C2098 1.465 . S
C2104 C2103 1.396 . S
C2104 C2105 1.399 . S
C2105 H2091 0.929 . S
C2105 C2104 1.399 . S
C2105 C2106 1.385 . S
C2106 H2092 0.931 . S
C2106 C2105 1.385 . S
C2106 C2107 1.389 . S
C2107 C2106 1.389 . S
C2107 C2108 1.387 . S
C2108 H2093 0.930 . S
C2108 C2103 1.390 . S
C2108 C2107 1.387 . S
H2109 C2121 0.930 . S
H2110 C2123 0.930 . S
H2111 C2124 0.930 . S
H2112 C2128 0.959 . S
H2113 C2128 0.959 . S
H2114 C2128 0.961 . S
H2115 C2129 0.960 . S
H2116 C2129 0.961 . S
H2117 C2129 0.959 . S
H2118 C2132 0.929 . S
H2119 C2133 0.931 . S
H2120 C2135 0.930 . S
C2121 H2109 0.930 . S
C2121 C2122 1.399 . S
C2121 C2126 1.399 . S
C2122 C2121 1.399 . S
C2122 C2123 1.376 . S
C2123 H2110 0.930 . S
C2123 C2122 1.376 . S
C2123 C2124 1.388 . S
C2124 H2111 0.930 . S
C2124 C2123 1.388 . S
C2124 C2125 1.390 . S
C2125 C2124 1.390 . S
C2125 C2126 1.394 . S
C2125 C2131 1.465 . S
C2126 C2121 1.399 . S
C2126 C2125 1.394 . S
C2126 C2127 1.516 . S
C2127 C2126 1.516 . S
C2127 C2128 1.502 . S
C2127 C2129 1.561 . S
C2127 C2130 1.526 . S
C2128 H2112 0.959 . S
C2128 H2113 0.959 . S
C2128 H2114 0.961 . S
C2128 C2127 1.502 . S
C2129 H2115 0.960 . S
C2129 H2116 0.961 . S
C2129 H2117 0.959 . S
C2129 C2127 1.561 . S
C2130 C2127 1.526 . S
C2130 C2131 1.396 . S
C2130 C2135 1.390 . S
C2131 C2125 1.465 . S
C2131 C2130 1.396 . S
C2131 C2132 1.399 . S
C2132 H2118 0.929 . S
C2132 C2131 1.399 . S
C2132 C2133 1.385 . S
C2133 H2119 0.931 . S
C2133 C2132 1.385 . S
C2133 C2134 1.389 . S
C2134 C2133 1.389 . S
C2134 C2135 1.387 . S
C2135 H2120 0.930 . S
C2135 C2130 1.390 . S
C2135 C2134 1.387 . S
H2136 C2148 0.930 . S
H2137 C2150 0.930 . S
H2138 C2151 0.930 . S
H2139 C2155 0.959 1_556 S
H2140 C2155 0.959 . S
H2141 C2155 0.961 . S
H2142 C2156 0.960 . S
H2143 C2156 0.961 . S
H2144 C2156 0.959 1_556 S
H2145 C2159 0.929 . S
H2146 C2160 0.931 . S
H2147 C2162 0.915 1_554 S
C2148 H2136 0.930 . S
C2148 C2149 1.399 . S
C2148 C2153 1.399 . S
C2149 C2148 1.399 . S
C2149 C2150 1.376 . S
C2150 H2137 0.930 . S
C2150 C2149 1.376 . S
C2150 C2151 1.388 . S
C2151 H2138 0.930 . S
C2151 C2150 1.388 . S
C2151 C2152 1.390 . S
C2152 C2151 1.390 . S
C2152 C2153 1.394 . S
C2152 C2158 1.465 . S
C2153 C2148 1.399 . S
C2153 C2152 1.394 . S
C2153 C2154 1.516 . S
C2154 C2153 1.516 . S
C2154 C2155 1.502 1_556 S
C2154 C2156 1.561 1_556 S
C2154 C2157 1.526 . S
C2155 H2139 0.959 1_554 S
C2155 H2140 0.959 . S
C2155 H2141 0.961 . S
C2155 C2154 1.502 1_554 S
C2156 H2142 0.960 . S
C2156 H2143 0.961 . S
C2156 H2144 0.959 1_554 S
C2156 C2154 1.561 1_554 S
C2157 C2154 1.526 . S
C2157 C2158 1.396 . S
C2157 C2162 1.390 . S
C2158 C2152 1.465 . S
C2158 C2157 1.396 . S
C2158 C2159 1.399 . S
C2159 H2145 0.929 . S
C2159 C2158 1.399 . S
C2159 C2160 1.385 . S
C2160 H2146 0.931 . S
C2160 C2159 1.385 . S
C2160 C2161 1.389 . S
C2161 C2160 1.389 . S
C2161 C2162 1.387 . S
C2162 H2147 0.915 1_556 S
C2162 C2157 1.390 . S
C2162 C2161 1.387 . S
H2163 C2175 0.930 . S
H2164 C2177 0.930 . S
H2165 C2178 0.930 . S
H2166 C2182 0.959 . S
H2167 C2182 0.959 . S
H2168 C2182 0.961 . S
H2169 C2183 0.960 . S
H2170 C2183 0.961 . S
H2171 C2183 0.959 . S
H2172 C2186 0.929 . S
H2173 C2187 0.931 . S
H2174 C2189 0.930 . S
C2175 H2163 0.930 . S
C2175 C2176 1.399 . S
C2175 C2180 1.399 . S
C2176 C2175 1.399 . S
C2176 C2177 1.376 . S
C2177 H2164 0.930 . S
C2177 C2176 1.376 . S
C2177 C2178 1.388 . S
C2178 H2165 0.930 . S
C2178 C2177 1.388 . S
C2178 C2179 1.390 . S
C2179 C2178 1.390 . S
C2179 C2180 1.394 . S
C2179 C2185 1.465 . S
C2180 C2175 1.399 . S
C2180 C2179 1.394 . S
C2180 C2181 1.516 . S
C2181 C2180 1.516 . S
C2181 C2182 1.502 . S
C2181 C2183 1.561 . S
C2181 C2184 1.526 . S
C2182 H2166 0.959 . S
C2182 H2167 0.959 . S
C2182 H2168 0.961 . S
C2182 C2181 1.502 . S
C2183 H2169 0.960 . S
C2183 H2170 0.961 . S
C2183 H2171 0.959 . S
C2183 C2181 1.561 . S
C2184 C2181 1.526 . S
C2184 C2185 1.396 . S
C2184 C2189 1.390 . S
C2185 C2179 1.465 . S
C2185 C2184 1.396 . S
C2185 C2186 1.399 . S
C2186 H2172 0.929 . S
C2186 C2185 1.399 . S
C2186 C2187 1.385 . S
C2187 H2173 0.931 . S
C2187 C2186 1.385 . S
C2187 C2188 1.389 . S
C2188 C2187 1.389 . S
C2188 C2189 1.387 . S
C2189 H2174 0.930 . S
C2189 C2184 1.390 . S
C2189 C2188 1.387 . S
H2190 C2202 0.930 . S
H2191 C2204 0.930 . S
H2192 C2205 0.930 . S
H2193 C2209 0.959 . S
H2194 C2209 0.959 . S
H2195 C2209 0.961 . S
H2196 C2210 0.960 . S
H2197 C2210 0.961 . S
H2198 C2210 0.959 . S
H2199 C2213 0.929 . S
H2200 C2214 0.931 . S
H2201 C2216 0.930 . S
C2202 H2190 0.930 . S
C2202 C2203 1.399 . S
C2202 C2207 1.399 . S
C2203 C2202 1.399 . S
C2203 C2204 1.376 . S
C2204 H2191 0.930 . S
C2204 C2203 1.376 . S
C2204 C2205 1.388 . S
C2205 H2192 0.930 . S
C2205 C2204 1.388 . S
C2205 C2206 1.390 . S
C2206 C2205 1.390 . S
C2206 C2207 1.394 . S
C2206 C2212 1.465 . S
C2207 C2202 1.399 . S
C2207 C2206 1.394 . S
C2207 C2208 1.516 . S
C2208 C2207 1.516 . S
C2208 C2209 1.502 . S
C2208 C2210 1.561 . S
C2208 C2211 1.526 . S
C2209 H2193 0.959 . S
C2209 H2194 0.959 . S
C2209 H2195 0.961 . S
C2209 C2208 1.502 . S
C2210 H2196 0.960 . S
C2210 H2197 0.961 . S
C2210 H2198 0.959 . S
C2210 C2208 1.561 . S
C2211 C2208 1.526 . S
C2211 C2212 1.396 . S
C2211 C2216 1.390 . S
C2212 C2206 1.465 . S
C2212 C2211 1.396 . S
C2212 C2213 1.399 . S
C2213 H2199 0.929 . S
C2213 C2212 1.399 . S
C2213 C2214 1.385 . S
C2214 H2200 0.931 . S
C2214 C2213 1.385 . S
C2214 C2215 1.389 . S
C2215 C2214 1.389 . S
C2215 C2216 1.387 . S
C2216 H2201 0.930 . S
C2216 C2211 1.390 . S
C2216 C2215 1.387 . S
H2217 C2229 0.930 . S
H2218 C2231 0.930 . S
H2219 C2232 0.930 . S
H2220 C2236 0.959 1_554 S
H2221 C2236 0.959 . S
H2222 C2236 0.961 . S
H2223 C2237 0.960 . S
H2224 C2237 0.961 . S
H2225 C2237 0.959 1_554 S
H2226 C2240 0.929 . S
H2227 C2241 0.931 . S
H2228 C2243 0.931 1_556 S
C2229 H2217 0.930 . S
C2229 C2230 1.399 . S
C2229 C2234 1.399 . S
C2230 C2229 1.399 . S
C2230 C2231 1.376 . S
C2231 H2218 0.930 . S
C2231 C2230 1.376 . S
C2231 C2232 1.388 . S
C2232 H2219 0.930 . S
C2232 C2231 1.388 . S
C2232 C2233 1.390 . S
C2233 C2232 1.390 . S
C2233 C2234 1.394 . S
C2233 C2239 1.465 . S
C2234 C2229 1.399 . S
C2234 C2233 1.394 . S
C2234 C2235 1.516 . S
C2235 C2234 1.516 . S
C2235 C2236 1.502 1_554 S
C2235 C2237 1.561 1_554 S
C2235 C2238 1.526 . S
C2236 H2220 0.959 1_556 S
C2236 H2221 0.959 . S
C2236 H2222 0.961 . S
C2236 C2235 1.502 1_556 S
C2237 H2223 0.960 . S
C2237 H2224 0.961 . S
C2237 H2225 0.959 1_556 S
C2237 C2235 1.561 1_556 S
C2238 C2235 1.526 . S
C2238 C2239 1.396 . S
C2238 C2243 1.390 . S
C2239 C2233 1.465 . S
C2239 C2238 1.396 . S
C2239 C2240 1.399 . S
C2240 H2226 0.929 . S
C2240 C2239 1.399 . S
C2240 C2241 1.385 . S
C2241 H2227 0.931 . S
C2241 C2240 1.385 . S
C2241 C2242 1.389 . S
C2242 C2241 1.389 . S
C2242 C2243 1.387 . S
C2243 H2228 0.931 1_554 S
C2243 C2238 1.390 . S
C2243 C2242 1.387 . S
H2244 C2256 0.930 . S
H2245 C2258 0.930 1_556 S
H2246 C2259 0.930 1_556 S
H2247 C2263 0.959 . S
H2248 C2263 0.959 . S
H2249 C2263 0.961 . S
H2250 C2264 0.960 . S
H2251 C2264 0.961 . S
H2252 C2264 0.959 . S
H2253 C2267 0.929 1_556 S
H2254 C2268 0.931 . S
H2255 C2270 0.930 . S
C2256 H2244 0.930 . S
C2256 C2257 1.399 . S
C2256 C2261 1.399 . S
C2257 C2256 1.399 . S
C2257 C2258 1.376 . S
C2258 H2245 0.930 1_554 S
C2258 C2257 1.376 . S
C2258 C2259 1.388 . S
C2259 H2246 0.930 1_554 S
C2259 C2258 1.388 . S
C2259 C2260 1.390 . S
C2260 C2259 1.390 . S
C2260 C2261 1.394 . S
C2260 C2266 1.465 . S
C2261 C2256 1.399 . S
C2261 C2260 1.394 . S
C2261 C2262 1.516 . S
C2262 C2261 1.516 . S
C2262 C2263 1.502 . S
C2262 C2264 1.561 . S
C2262 C2265 1.526 . S
C2263 H2247 0.959 . S
C2263 H2248 0.959 . S
C2263 H2249 0.961 . S
C2263 C2262 1.502 . S
C2264 H2250 0.960 . S
C2264 H2251 0.961 . S
C2264 H2252 0.959 . S
C2264 C2262 1.561 . S
C2265 C2262 1.526 . S
C2265 C2266 1.396 . S
C2265 C2270 1.390 . S
C2266 C2260 1.465 . S
C2266 C2265 1.396 . S
C2266 C2267 1.399 . S
C2267 H2253 0.929 1_554 S
C2267 C2266 1.399 . S
C2267 C2268 1.385 . S
C2268 H2254 0.931 . S
C2268 C2267 1.385 . S
C2268 C2269 1.389 . S
C2269 C2268 1.389 . S
C2269 C2270 1.387 . S
C2270 H2255 0.930 . S
C2270 C2265 1.390 . S
C2270 C2269 1.387 . S
H2271 C2283 0.930 . S
H2272 C2285 0.930 . S
H2273 C2286 0.930 . S
H2274 C2290 0.959 . S
H2275 C2290 0.959 . S
H2276 C2290 0.961 . S
H2277 C2291 0.960 . S
H2278 C2291 0.961 . S
H2279 C2291 0.959 . S
H2280 C2294 0.929 . S
H2281 C2295 0.931 . S
H2282 C2297 0.930 . S
C2283 H2271 0.930 . S
C2283 C2284 1.399 . S
C2283 C2288 1.399 . S
C2284 C2283 1.399 . S
C2284 C2285 1.376 . S
C2285 H2272 0.930 . S
C2285 C2284 1.376 . S
C2285 C2286 1.388 . S
C2286 H2273 0.930 . S
C2286 C2285 1.388 . S
C2286 C2287 1.390 . S
C2287 C2286 1.390 . S
C2287 C2288 1.394 . S
C2287 C2293 1.465 . S
C2288 C2283 1.399 . S
C2288 C2287 1.394 . S
C2288 C2289 1.516 . S
C2289 C2288 1.516 . S
C2289 C2290 1.502 1_556 S
C2289 C2291 1.561 . S
C2289 C2292 1.526 . S
C2290 H2274 0.959 . S
C2290 H2275 0.959 . S
C2290 H2276 0.961 . S
C2290 C2289 1.502 1_554 S
C2291 H2277 0.960 . S
C2291 H2278 0.961 . S
C2291 H2279 0.959 . S
C2291 C2289 1.561 . S
C2292 C2289 1.526 . S
C2292 C2293 1.396 . S
C2292 C2297 1.390 . S
C2293 C2287 1.465 . S
C2293 C2292 1.396 . S
C2293 C2294 1.399 . S
C2294 H2280 0.929 . S
C2294 C2293 1.399 . S
C2294 C2295 1.385 . S
C2295 H2281 0.931 . S
C2295 C2294 1.385 . S
C2295 C2296 1.389 . S
C2296 C2295 1.389 . S
C2296 C2297 1.387 . S
C2297 H2282 0.930 . S
C2297 C2292 1.390 . S
C2297 C2296 1.387 . S
H2298 C2310 0.930 . S
H2299 C2312 0.930 . S
H2300 C2313 0.930 . S
H2301 C2317 0.959 . S
H2302 C2317 0.959 . S
H2303 C2317 0.961 . S
H2304 C2318 0.960 . S
H2305 C2318 0.961 . S
H2306 C2318 0.959 . S
H2307 C2321 0.929 . S
H2308 C2322 0.931 . S
H2309 C2324 0.930 . S
C2310 H2298 0.930 . S
C2310 C2311 1.399 . S
C2310 C2315 1.399 . S
C2311 C2310 1.399 . S
C2311 C2312 1.376 . S
C2312 H2299 0.930 . S
C2312 C2311 1.376 . S
C2312 C2313 1.388 . S
C2313 H2300 0.930 . S
C2313 C2312 1.388 . S
C2313 C2314 1.390 . S
C2314 C2313 1.390 . S
C2314 C2315 1.394 . S
C2314 C2320 1.465 . S
C2315 C2310 1.399 . S
C2315 C2314 1.394 . S
C2315 C2316 1.516 . S
C2316 C2315 1.516 . S
C2316 C2317 1.502 . S
C2316 C2318 1.561 . S
C2316 C2319 1.526 . S
C2317 H2301 0.959 . S
C2317 H2302 0.959 . S
C2317 H2303 0.961 . S
C2317 C2316 1.502 . S
C2318 H2304 0.960 . S
C2318 H2305 0.961 . S
C2318 H2306 0.959 . S
C2318 C2316 1.561 . S
C2319 C2316 1.526 . S
C2319 C2320 1.396 . S
C2319 C2324 1.390 . S
C2320 C2314 1.465 . S
C2320 C2319 1.396 . S
C2320 C2321 1.399 . S
C2321 H2307 0.929 . S
C2321 C2320 1.399 . S
C2321 C2322 1.385 . S
C2322 H2308 0.931 . S
C2322 C2321 1.385 . S
C2322 C2323 1.389 . S
C2323 C2322 1.389 . S
C2323 C2324 1.387 . S
C2324 H2309 0.930 . S
C2324 C2319 1.390 . S
C2324 C2323 1.387 . S
H2325 C2337 0.930 . S
H2326 C2339 0.930 . S
H2327 C2340 0.930 . S
H2328 C2344 0.959 . S
H2329 C2344 0.959 . S
H2330 C2344 0.961 . S
H2331 C2345 0.960 . S
H2332 C2345 0.961 . S
H2333 C2345 0.959 . S
H2334 C2348 0.929 . S
H2335 C2349 0.931 . S
H2336 C2351 0.930 . S
C2337 H2325 0.930 . S
C2337 C2338 1.399 . S
C2337 C2342 1.399 . S
C2338 C2337 1.399 . S
C2338 C2339 1.376 . S
C2339 H2326 0.930 . S
C2339 C2338 1.376 . S
C2339 C2340 1.388 . S
C2340 H2327 0.930 . S
C2340 C2339 1.388 . S
C2340 C2341 1.390 . S
C2341 C2340 1.390 . S
C2341 C2342 1.394 . S
C2341 C2347 1.465 . S
C2342 C2337 1.399 . S
C2342 C2341 1.394 . S
C2342 C2343 1.516 . S
C2343 C2342 1.516 . S
C2343 C2344 1.502 . S
C2343 C2345 1.561 . S
C2343 C2346 1.526 . S
C2344 H2328 0.959 . S
C2344 H2329 0.959 . S
C2344 H2330 0.961 . S
C2344 C2343 1.502 . S
C2345 H2331 0.960 . S
C2345 H2332 0.961 . S
C2345 H2333 0.959 . S
C2345 C2343 1.561 . S
C2346 C2343 1.526 . S
C2346 C2347 1.396 . S
C2346 C2351 1.390 . S
C2347 C2341 1.465 . S
C2347 C2346 1.396 . S
C2347 C2348 1.399 . S
C2348 H2334 0.929 . S
C2348 C2347 1.399 . S
C2348 C2349 1.385 . S
C2349 H2335 0.931 . S
C2349 C2348 1.385 . S
C2349 C2350 1.389 . S
C2350 C2349 1.389 . S
C2350 C2351 1.387 . S
C2351 H2336 0.930 . S
C2351 C2346 1.390 . S
C2351 C2350 1.387 . S
H2352 C2364 0.930 . S
H2353 C2366 0.930 . S
H2354 C2367 0.930 . S
H2355 C2371 0.959 1_554 S
H2356 C2371 0.959 . S
H2357 C2371 0.961 . S
H2358 C2372 0.960 . S
H2359 C2372 0.961 . S
H2360 C2372 0.959 . S
H2361 C2375 0.929 . S
H2362 C2376 0.931 . S
H2363 C2378 0.930 . S
C2364 H2352 0.930 . S
C2364 C2365 1.399 . S
C2364 C2369 1.399 . S
C2365 C2364 1.399 . S
C2365 C2366 1.376 1_556 S
C2366 H2353 0.930 . S
C2366 C2365 1.376 1_554 S
C2366 C2367 1.388 . S
C2367 H2354 0.930 . S
C2367 C2366 1.388 . S
C2367 C2368 1.390 . S
C2368 C2367 1.390 . S
C2368 C2369 1.394 1_554 S
C2368 C2374 1.465 . S
C2369 C2364 1.399 . S
C2369 C2368 1.394 1_556 S
C2369 C2370 1.516 . S
C2370 C2369 1.516 . S
C2370 C2371 1.502 . S
C2370 C2372 1.561 . S
C2370 C2373 1.526 . S
C2371 H2355 0.959 1_556 S
C2371 H2356 0.959 . S
C2371 H2357 0.961 . S
C2371 C2370 1.502 . S
C2372 H2358 0.960 . S
C2372 H2359 0.961 . S
C2372 H2360 0.959 . S
C2372 C2370 1.561 . S
C2373 C2370 1.526 . S
C2373 C2374 1.396 1_556 S
C2373 C2378 1.390 . S
C2374 C2368 1.465 . S
C2374 C2373 1.396 1_554 S
C2374 C2375 1.399 . S
C2375 H2361 0.929 . S
C2375 C2374 1.399 . S
C2375 C2376 1.385 . S
C2376 H2362 0.931 . S
C2376 C2375 1.385 . S
C2376 C2377 1.389 . S
C2377 C2376 1.389 . S
C2377 C2378 1.387 1_554 S
C2378 H2363 0.930 . S
C2378 C2373 1.390 . S
C2378 C2377 1.387 1_556 S
H2379 C2391 0.930 . S
H2380 C2393 0.930 . S
H2381 C2394 0.930 . S
H2382 C2398 0.959 . S
H2383 C2398 0.959 . S
H2384 C2398 0.961 . S
H2385 C2399 0.960 . S
H2386 C2399 0.961 . S
H2387 C2399 0.959 . S
H2388 C2402 0.929 . S
H2389 C2403 0.931 . S
H2390 C2405 0.930 . S
C2391 H2379 0.930 . S
C2391 C2392 1.399 . S
C2391 C2396 1.399 . S
C2392 C2391 1.399 . S
C2392 C2393 1.376 . S
C2393 H2380 0.930 . S
C2393 C2392 1.376 . S
C2393 C2394 1.388 . S
C2394 H2381 0.930 . S
C2394 C2393 1.388 . S
C2394 C2395 1.390 . S
C2395 C2394 1.390 . S
C2395 C2396 1.394 . S
C2395 C2401 1.465 . S
C2396 C2391 1.399 . S
C2396 C2395 1.394 . S
C2396 C2397 1.516 . S
C2397 C2396 1.516 . S
C2397 C2398 1.502 . S
C2397 C2399 1.561 . S
C2397 C2400 1.526 . S
C2398 H2382 0.959 . S
C2398 H2383 0.959 . S
C2398 H2384 0.961 . S
C2398 C2397 1.502 . S
C2399 H2385 0.960 . S
C2399 H2386 0.961 . S
C2399 H2387 0.959 . S
C2399 C2397 1.561 . S
C2400 C2397 1.526 . S
C2400 C2401 1.396 . S
C2400 C2405 1.390 . S
C2401 C2395 1.465 . S
C2401 C2400 1.396 . S
C2401 C2402 1.399 . S
C2402 H2388 0.929 . S
C2402 C2401 1.399 . S
C2402 C2403 1.385 . S
C2403 H2389 0.931 . S
C2403 C2402 1.385 . S
C2403 C2404 1.389 . S
C2404 C2403 1.389 . S
C2404 C2405 1.387 . S
C2405 H2390 0.930 . S
C2405 C2400 1.390 . S
C2405 C2404 1.387 . S
H2406 C2418 0.930 . S
H2407 C2420 0.930 . S
H2408 C2421 0.930 . S
H2409 C2425 0.959 . S
H2410 C2425 0.959 . S
H2411 C2425 0.961 . S
H2412 C2426 0.960 . S
H2413 C2426 0.961 . S
H2414 C2426 0.959 . S
H2415 C2429 0.929 . S
H2416 C2430 0.931 . S
H2417 C2432 0.930 . S
C2418 H2406 0.930 . S
C2418 C2419 1.399 . S
C2418 C2423 1.399 . S
C2419 C2418 1.399 . S
C2419 C2420 1.376 . S
C2420 H2407 0.930 . S
C2420 C2419 1.376 . S
C2420 C2421 1.388 . S
C2421 H2408 0.930 . S
C2421 C2420 1.388 . S
C2421 C2422 1.390 . S
C2422 C2421 1.390 . S
C2422 C2423 1.394 . S
C2422 C2428 1.465 . S
C2423 C2418 1.399 . S
C2423 C2422 1.394 . S
C2423 C2424 1.516 . S
C2424 C2423 1.516 . S
C2424 C2425 1.502 . S
C2424 C2426 1.561 . S
C2424 C2427 1.526 . S
C2425 H2409 0.959 . S
C2425 H2410 0.959 . S
C2425 H2411 0.961 . S
C2425 C2424 1.502 . S
C2426 H2412 0.960 . S
C2426 H2413 0.961 . S
C2426 H2414 0.959 . S
C2426 C2424 1.561 . S
C2427 C2424 1.526 . S
C2427 C2428 1.396 . S
C2427 C2432 1.390 . S
C2428 C2422 1.465 . S
C2428 C2427 1.396 . S
C2428 C2429 1.399 . S
C2429 H2415 0.929 . S
C2429 C2428 1.399 . S
C2429 C2430 1.385 . S
C2430 H2416 0.931 . S
C2430 C2429 1.385 . S
C2430 C2431 1.389 . S
C2431 C2430 1.389 . S
C2431 C2432 1.387 . S
C2432 H2417 0.930 . S
C2432 C2427 1.390 . S
C2432 C2431 1.387 . S
H2433 C2445 0.930 . S
H2434 C2447 0.930 . S
H2435 C2448 0.930 . S
H2436 C2452 0.959 . S
H2437 C2452 0.959 . S
H2438 C2452 0.961 . S
H2439 C2453 0.960 . S
H2440 C2453 0.961 . S
H2441 C2453 0.959 . S
H2442 C2456 0.929 . S
H2443 C2457 0.931 . S
H2444 C2459 0.930 . S
C2445 H2433 0.930 . S
C2445 C2446 1.399 . S
C2445 C2450 1.399 . S
C2446 C2445 1.399 . S
C2446 C2447 1.376 . S
C2447 H2434 0.930 . S
C2447 C2446 1.376 . S
C2447 C2448 1.388 . S
C2448 H2435 0.930 . S
C2448 C2447 1.388 . S
C2448 C2449 1.390 . S
C2449 C2448 1.390 . S
C2449 C2450 1.394 . S
C2449 C2455 1.465 . S
C2450 C2445 1.399 . S
C2450 C2449 1.394 . S
C2450 C2451 1.516 . S
C2451 C2450 1.516 . S
C2451 C2452 1.502 . S
C2451 C2453 1.561 . S
C2451 C2454 1.526 . S
C2452 H2436 0.959 . S
C2452 H2437 0.959 . S
C2452 H2438 0.961 . S
C2452 C2451 1.502 . S
C2453 H2439 0.960 . S
C2453 H2440 0.961 . S
C2453 H2441 0.959 . S
C2453 C2451 1.561 . S
C2454 C2451 1.526 . S
C2454 C2455 1.396 . S
C2454 C2459 1.390 . S
C2455 C2449 1.465 . S
C2455 C2454 1.396 . S
C2455 C2456 1.399 . S
C2456 H2442 0.929 . S
C2456 C2455 1.399 . S
C2456 C2457 1.385 . S
C2457 H2443 0.931 . S
C2457 C2456 1.385 . S
C2457 C2458 1.389 . S
C2458 C2457 1.389 . S
C2458 C2459 1.387 . S
C2459 H2444 0.930 . S
C2459 C2454 1.390 . S
C2459 C2458 1.387 . S
H2460 C2472 0.930 . S
H2461 C2474 0.930 . S
H2462 C2475 0.930 . S
H2463 C2479 0.959 . S
H2464 C2479 0.959 . S
H2465 C2479 0.961 . S
H2466 C2480 0.960 . S
H2467 C2480 0.961 . S
H2468 C2480 0.959 . S
H2469 C2483 0.929 . S
H2470 C2484 0.931 . S
H2471 C2486 0.930 . S
C2472 H2460 0.930 . S
C2472 C2473 1.399 . S
C2472 C2477 1.399 . S
C2473 C2472 1.399 . S
C2473 C2474 1.376 1_556 S
C2474 H2461 0.930 . S
C2474 C2473 1.376 1_554 S
C2474 C2475 1.388 . S
C2475 H2462 0.930 . S
C2475 C2474 1.388 . S
C2475 C2476 1.390 . S
C2476 C2475 1.390 . S
C2476 C2477 1.394 1_554 S
C2476 C2482 1.465 . S
C2477 C2472 1.399 . S
C2477 C2476 1.394 1_556 S
C2477 C2478 1.516 . S
C2478 C2477 1.516 . S
C2478 C2479 1.502 . S
C2478 C2480 1.561 . S
C2478 C2481 1.526 . S
C2479 H2463 0.959 . S
C2479 H2464 0.959 . S
C2479 H2465 0.961 . S
C2479 C2478 1.502 . S
C2480 H2466 0.960 . S
C2480 H2467 0.961 . S
C2480 H2468 0.959 . S
C2480 C2478 1.561 . S
C2481 C2478 1.526 . S
C2481 C2482 1.396 1_556 S
C2481 C2486 1.390 . S
C2482 C2476 1.465 . S
C2482 C2481 1.396 1_554 S
C2482 C2483 1.399 . S
C2483 H2469 0.929 . S
C2483 C2482 1.399 . S
C2483 C2484 1.385 . S
C2484 H2470 0.931 . S
C2484 C2483 1.385 . S
C2484 C2485 1.389 . S
C2485 C2484 1.389 . S
C2485 C2486 1.387 1_554 S
C2486 H2471 0.930 . S
C2486 C2481 1.390 . S
C2486 C2485 1.387 1_556 S
H2487 C2499 0.930 . S
H2488 C2501 0.930 . S
H2489 C2502 0.930 . S
H2490 C2506 0.959 . S
H2491 C2506 0.959 . S
H2492 C2506 0.961 . S
H2493 C2507 0.960 . S
H2494 C2507 0.961 . S
H2495 C2507 0.959 . S
H2496 C2510 0.929 . S
H2497 C2511 0.931 . S
H2498 C2513 0.930 . S
C2499 H2487 0.930 . S
C2499 C2500 1.399 . S
C2499 C2504 1.399 . S
C2500 C2499 1.399 . S
C2500 C2501 1.376 . S
C2501 H2488 0.930 . S
C2501 C2500 1.376 . S
C2501 C2502 1.388 . S
C2502 H2489 0.930 . S
C2502 C2501 1.388 . S
C2502 C2503 1.390 . S
C2503 C2502 1.390 . S
C2503 C2504 1.394 . S
C2503 C2509 1.465 . S
C2504 C2499 1.399 . S
C2504 C2503 1.394 . S
C2504 C2505 1.516 . S
C2505 C2504 1.516 . S
C2505 C2506 1.502 . S
C2505 C2507 1.561 . S
C2505 C2508 1.526 . S
C2506 H2490 0.959 . S
C2506 H2491 0.959 . S
C2506 H2492 0.961 . S
C2506 C2505 1.502 . S
C2507 H2493 0.960 . S
C2507 H2494 0.961 . S
C2507 H2495 0.959 . S
C2507 C2505 1.561 . S
C2508 C2505 1.526 . S
C2508 C2509 1.396 . S
C2508 C2513 1.390 . S
C2509 C2503 1.465 . S
C2509 C2508 1.396 . S
C2509 C2510 1.399 . S
C2510 H2496 0.929 . S
C2510 C2509 1.399 . S
C2510 C2511 1.385 . S
C2511 H2497 0.931 . S
C2511 C2510 1.385 . S
C2511 C2512 1.389 . S
C2512 C2511 1.389 . S
C2512 C2513 1.387 . S
C2513 H2498 0.930 . S
C2513 C2508 1.390 . S
C2513 C2512 1.387 . S
H2514 C2526 0.930 . S
H2515 C2528 0.930 . S
H2516 C2529 0.930 . S
H2517 C2533 0.959 . S
H2518 C2533 0.959 . S
H2519 C2533 0.961 . S
H2520 C2534 0.960 . S
H2521 C2534 0.961 . S
H2522 C2534 0.959 . S
H2523 C2537 0.929 . S
H2524 C2538 0.931 . S
H2525 C2540 0.930 . S
C2526 H2514 0.930 . S
C2526 C2527 1.399 . S
C2526 C2531 1.399 . S
C2527 C2526 1.399 . S
C2527 C2528 1.376 . S
C2528 H2515 0.930 . S
C2528 C2527 1.376 . S
C2528 C2529 1.388 . S
C2529 H2516 0.930 . S
C2529 C2528 1.388 . S
C2529 C2530 1.390 . S
C2530 C2529 1.390 . S
C2530 C2531 1.394 . S
C2530 C2536 1.465 . S
C2531 C2526 1.399 . S
C2531 C2530 1.394 . S
C2531 C2532 1.516 . S
C2532 C2531 1.516 . S
C2532 C2533 1.502 . S
C2532 C2534 1.561 . S
C2532 C2535 1.526 . S
C2533 H2517 0.959 . S
C2533 H2518 0.959 . S
C2533 H2519 0.961 . S
C2533 C2532 1.502 . S
C2534 H2520 0.960 . S
C2534 H2521 0.961 . S
C2534 H2522 0.959 . S
C2534 C2532 1.561 . S
C2535 C2532 1.526 . S
C2535 C2536 1.396 . S
C2535 C2540 1.390 . S
C2536 C2530 1.465 . S
C2536 C2535 1.396 . S
C2536 C2537 1.399 . S
C2537 H2523 0.929 . S
C2537 C2536 1.399 . S
C2537 C2538 1.385 . S
C2538 H2524 0.931 . S
C2538 C2537 1.385 . S
C2538 C2539 1.389 . S
C2539 C2538 1.389 . S
C2539 C2540 1.387 . S
C2540 H2525 0.930 . S
C2540 C2535 1.390 . S
C2540 C2539 1.387 . S
H2541 C2553 0.930 . S
H2542 C2555 0.930 . S
H2543 C2556 0.930 . S
H2544 C2560 0.959 . S
H2545 C2560 0.959 . S
H2546 C2560 0.961 . S
H2547 C2561 0.960 . S
H2548 C2561 0.961 . S
H2549 C2561 0.959 . S
H2550 C2564 0.929 . S
H2551 C2565 0.931 . S
H2552 C2567 0.930 . S
C2553 H2541 0.930 . S
C2553 C2554 1.399 . S
C2553 C2558 1.399 . S
C2554 C2553 1.399 . S
C2554 C2555 1.376 . S
C2555 H2542 0.930 . S
C2555 C2554 1.376 . S
C2555 C2556 1.388 . S
C2556 H2543 0.930 . S
C2556 C2555 1.388 . S
C2556 C2557 1.390 . S
C2557 C2556 1.390 . S
C2557 C2558 1.394 . S
C2557 C2563 1.465 . S
C2558 C2553 1.399 . S
C2558 C2557 1.394 . S
C2558 C2559 1.516 . S
C2559 C2558 1.516 . S
C2559 C2560 1.502 . S
C2559 C2561 1.561 . S
C2559 C2562 1.526 . S
C2560 H2544 0.959 . S
C2560 H2545 0.959 . S
C2560 H2546 0.961 . S
C2560 C2559 1.502 . S
C2561 H2547 0.960 . S
C2561 H2548 0.961 . S
C2561 H2549 0.959 . S
C2561 C2559 1.561 . S
C2562 C2559 1.526 . S
C2562 C2563 1.396 . S
C2562 C2567 1.390 . S
C2563 C2557 1.465 . S
C2563 C2562 1.396 . S
C2563 C2564 1.399 . S
C2564 H2550 0.929 . S
C2564 C2563 1.399 . S
C2564 C2565 1.385 . S
C2565 H2551 0.931 . S
C2565 C2564 1.385 . S
C2565 C2566 1.389 . S
C2566 C2565 1.389 . S
C2566 C2567 1.387 . S
C2567 H2552 0.930 . S
C2567 C2562 1.390 . S
C2567 C2566 1.387 . S
H2568 C2580 0.930 . S
H2569 C2582 0.930 . S
H2570 C2583 0.930 . S
H2571 C2587 0.971 . S
H2572 C2587 0.959 1_545 S
H2573 C2587 0.961 . S
H2574 C2588 0.960 . S
H2575 C2588 0.961 1_545 S
H2576 C2588 0.959 . S
H2577 C2591 0.929 . S
H2578 C2592 0.931 . S
H2579 C2594 0.930 . S
C2580 H2568 0.930 . S
C2580 C2581 1.399 . S
C2580 C2585 1.399 . S
C2581 C2580 1.399 . S
C2581 C2582 1.376 . S
C2582 H2569 0.930 . S
C2582 C2581 1.376 . S
C2582 C2583 1.388 . S
C2583 H2570 0.930 . S
C2583 C2582 1.388 . S
C2583 C2584 1.390 . S
C2584 C2583 1.390 . S
C2584 C2585 1.394 . S
C2584 C2590 1.465 1_565 S
C2585 C2580 1.399 . S
C2585 C2584 1.394 . S
C2585 C2586 1.516 . S
C2586 C2585 1.516 . S
C2586 C2587 1.502 . S
C2586 C2588 1.561 . S
C2586 C2589 1.526 1_565 S
C2587 H2571 0.971 . S
C2587 H2572 0.959 1_565 S
C2587 H2573 0.961 . S
C2587 C2586 1.502 . S
C2588 H2574 0.960 . S
C2588 H2575 0.961 1_565 S
C2588 H2576 0.959 . S
C2588 C2586 1.561 . S
C2589 C2586 1.526 1_545 S
C2589 C2590 1.396 . S
C2589 C2594 1.390 . S
C2590 C2584 1.465 1_545 S
C2590 C2589 1.396 . S
C2590 C2591 1.399 . S
C2591 H2577 0.929 . S
C2591 C2590 1.399 . S
C2591 C2592 1.385 . S
C2592 H2578 0.931 . S
C2592 C2591 1.385 . S
C2592 C2593 1.389 . S
C2593 C2592 1.389 . S
C2593 C2594 1.387 . S
C2594 H2579 0.930 . S
C2594 C2589 1.390 . S
C2594 C2593 1.387 . S
H2595 C2607 0.930 . S
H2596 C2609 0.930 . S
H2597 C2610 0.930 . S
H2598 C2614 0.959 . S
H2599 C2614 0.959 . S
H2600 C2614 0.961 . S
H2601 C2615 0.960 . S
H2602 C2615 0.961 . S
H2603 C2615 0.959 . S
H2604 C2618 0.929 . S
H2605 C2619 0.931 . S
H2606 C2621 0.930 . S
C2607 H2595 0.930 . S
C2607 C2608 1.399 . S
C2607 C2612 1.399 . S
C2608 C2607 1.399 . S
C2608 C2609 1.376 . S
C2609 H2596 0.930 . S
C2609 C2608 1.376 . S
C2609 C2610 1.388 . S
C2610 H2597 0.930 . S
C2610 C2609 1.388 . S
C2610 C2611 1.390 . S
C2611 C2610 1.390 . S
C2611 C2612 1.394 . S
C2611 C2617 1.465 . S
C2612 C2607 1.399 . S
C2612 C2611 1.394 . S
C2612 C2613 1.516 . S
C2613 C2612 1.516 . S
C2613 C2614 1.502 . S
C2613 C2615 1.561 . S
C2613 C2616 1.526 . S
C2614 H2598 0.959 . S
C2614 H2599 0.959 . S
C2614 H2600 0.961 . S
C2614 C2613 1.502 . S
C2615 H2601 0.960 . S
C2615 H2602 0.961 . S
C2615 H2603 0.959 . S
C2615 C2613 1.561 . S
C2616 C2613 1.526 . S
C2616 C2617 1.396 . S
C2616 C2621 1.390 . S
C2617 C2611 1.465 . S
C2617 C2616 1.396 . S
C2617 C2618 1.399 . S
C2618 H2604 0.929 . S
C2618 C2617 1.399 . S
C2618 C2619 1.385 . S
C2619 H2605 0.931 . S
C2619 C2618 1.385 . S
C2619 C2620 1.389 . S
C2620 C2619 1.389 . S
C2620 C2621 1.387 . S
C2621 H2606 0.930 . S
C2621 C2616 1.390 . S
C2621 C2620 1.387 . S
H2622 C2634 0.930 . S
H2623 C2636 0.930 . S
H2624 C2637 0.930 . S
H2625 C2641 0.959 . S
H2626 C2641 0.959 . S
H2627 C2641 0.961 1_565 S
H2628 C2642 0.960 1_565 S
H2629 C2642 0.961 . S
H2630 C2642 0.959 . S
H2631 C2645 0.929 . S
H2632 C2646 0.931 . S
H2633 C2648 0.930 . S
C2634 H2622 0.930 . S
C2634 C2635 1.399 . S
C2634 C2639 1.399 . S
C2635 C2634 1.399 . S
C2635 C2636 1.376 1_554 S
C2636 H2623 0.930 . S
C2636 C2635 1.376 1_556 S
C2636 C2637 1.388 . S
C2637 H2624 0.930 . S
C2637 C2636 1.388 . S
C2637 C2638 1.390 . S
C2638 C2637 1.390 . S
C2638 C2639 1.394 1_556 S
C2638 C2644 1.465 1_565 S
C2639 C2634 1.399 . S
C2639 C2638 1.394 1_554 S
C2639 C2640 1.516 1_565 S
C2640 C2639 1.516 1_545 S
C2640 C2641 1.502 . S
C2640 C2642 1.561 . S
C2640 C2643 1.526 . S
C2641 H2625 0.959 . S
C2641 H2626 0.959 . S
C2641 H2627 0.961 1_545 S
C2641 C2640 1.502 . S
C2642 H2628 0.960 1_545 S
C2642 H2629 0.961 . S
C2642 H2630 0.959 . S
C2642 C2640 1.561 . S
C2643 C2640 1.526 . S
C2643 C2644 1.396 1_554 S
C2643 C2648 1.390 . S
C2644 C2638 1.465 1_545 S
C2644 C2643 1.396 1_556 S
C2644 C2645 1.399 . S
C2645 H2631 0.929 . S
C2645 C2644 1.399 . S
C2645 C2646 1.385 . S
C2646 H2632 0.931 . S
C2646 C2645 1.385 . S
C2646 C2647 1.389 . S
C2647 C2646 1.389 . S
C2647 C2648 1.387 1_556 S
C2648 H2633 0.930 . S
C2648 C2643 1.390 . S
C2648 C2647 1.387 1_554 S
H2649 C2661 0.930 . S
H2650 C2663 0.930 . S
H2651 C2664 0.930 . S
H2652 C2668 0.959 . S
H2653 C2668 0.959 . S
H2654 C2668 0.961 . S
H2655 C2669 0.960 . S
H2656 C2669 0.961 . S
H2657 C2669 0.959 . S
H2658 C2672 0.929 . S
H2659 C2673 0.931 . S
H2660 C2675 0.930 . S
C2661 H2649 0.930 . S
C2661 C2662 1.399 . S
C2661 C2666 1.399 . S
C2662 C2661 1.399 . S
C2662 C2663 1.376 . S
C2663 H2650 0.930 . S
C2663 C2662 1.376 . S
C2663 C2664 1.388 . S
C2664 H2651 0.930 . S
C2664 C2663 1.388 . S
C2664 C2665 1.390 . S
C2665 C2664 1.390 . S
C2665 C2666 1.394 . S
C2665 C2671 1.465 . S
C2666 C2661 1.399 . S
C2666 C2665 1.394 . S
C2666 C2667 1.516 . S
C2667 C2666 1.516 . S
C2667 C2668 1.502 . S
C2667 C2669 1.561 . S
C2667 C2670 1.526 . S
C2668 H2652 0.959 . S
C2668 H2653 0.959 . S
C2668 H2654 0.961 . S
C2668 C2667 1.502 . S
C2669 H2655 0.960 . S
C2669 H2656 0.961 . S
C2669 H2657 0.959 . S
C2669 C2667 1.561 . S
C2670 C2667 1.526 . S
C2670 C2671 1.396 . S
C2670 C2675 1.390 . S
C2671 C2665 1.465 . S
C2671 C2670 1.396 . S
C2671 C2672 1.399 . S
C2672 H2658 0.929 . S
C2672 C2671 1.399 . S
C2672 C2673 1.385 . S
C2673 H2659 0.931 . S
C2673 C2672 1.385 . S
C2673 C2674 1.389 . S
C2674 C2673 1.389 . S
C2674 C2675 1.387 . S
C2675 H2660 0.930 . S
C2675 C2670 1.390 . S
C2675 C2674 1.387 . S
H2676 C2688 0.930 . S
H2677 C2690 0.930 . S
H2678 C2691 0.930 . S
H2679 C2695 0.959 . S
H2680 C2695 0.959 . S
H2681 C2695 0.961 1_545 S
H2682 C2696 0.960 1_545 S
H2683 C2696 0.961 . S
H2684 C2696 0.959 . S
H2685 C2699 0.929 . S
H2686 C2700 0.931 . S
H2687 C2702 0.930 . S
C2688 H2676 0.930 . S
C2688 C2689 1.399 . S
C2688 C2693 1.399 . S
C2689 C2688 1.399 . S
C2689 C2690 1.376 . S
C2690 H2677 0.930 . S
C2690 C2689 1.376 . S
C2690 C2691 1.388 . S
C2691 H2678 0.930 . S
C2691 C2690 1.388 . S
C2691 C2692 1.390 . S
C2692 C2691 1.390 . S
C2692 C2693 1.394 . S
C2692 C2698 1.465 1_545 S
C2693 C2688 1.399 . S
C2693 C2692 1.394 . S
C2693 C2694 1.516 1_545 S
C2694 C2693 1.516 1_565 S
C2694 C2695 1.502 . S
C2694 C2696 1.561 . S
C2694 C2697 1.526 . S
C2695 H2679 0.959 . S
C2695 H2680 0.959 . S
C2695 H2681 0.961 1_565 S
C2695 C2694 1.502 . S
C2696 H2682 0.960 1_565 S
C2696 H2683 0.961 . S
C2696 H2684 0.959 . S
C2696 C2694 1.561 . S
C2697 C2694 1.526 . S
C2697 C2698 1.396 . S
C2697 C2702 1.390 . S
C2698 C2692 1.465 1_565 S
C2698 C2697 1.396 . S
C2698 C2699 1.399 . S
C2699 H2685 0.929 . S
C2699 C2698 1.399 . S
C2699 C2700 1.385 . S
C2700 H2686 0.931 . S
C2700 C2699 1.385 . S
C2700 C2701 1.389 . S
C2701 C2700 1.389 . S
C2701 C2702 1.387 . S
C2702 H2687 0.930 . S
C2702 C2697 1.390 . S
C2702 C2701 1.387 . S
H2703 C2715 0.930 . S
H2704 C2717 0.930 . S
H2705 C2718 0.930 . S
H2706 C2722 0.959 . S
H2707 C2722 0.959 . S
H2708 C2722 0.961 . S
H2709 C2723 0.960 . S
H2710 C2723 0.961 . S
H2711 C2723 0.959 . S
H2712 C2726 0.929 . S
H2713 C2727 0.931 . S
H2714 C2729 0.930 . S
C2715 H2703 0.930 . S
C2715 C2716 1.399 . S
C2715 C2720 1.399 . S
C2716 C2715 1.399 . S
C2716 C2717 1.376 . S
C2717 H2704 0.930 . S
C2717 C2716 1.376 . S
C2717 C2718 1.388 . S
C2718 H2705 0.930 . S
C2718 C2717 1.388 . S
C2718 C2719 1.390 . S
C2719 C2718 1.390 . S
C2719 C2720 1.394 . S
C2719 C2725 1.465 . S
C2720 C2715 1.399 . S
C2720 C2719 1.394 . S
C2720 C2721 1.516 . S
C2721 C2720 1.516 . S
C2721 C2722 1.502 . S
C2721 C2723 1.561 . S
C2721 C2724 1.526 . S
C2722 H2706 0.959 . S
C2722 H2707 0.959 . S
C2722 H2708 0.961 . S
C2722 C2721 1.502 . S
C2723 H2709 0.960 . S
C2723 H2710 0.961 . S
C2723 H2711 0.959 . S
C2723 C2721 1.561 . S
C2724 C2721 1.526 . S
C2724 C2725 1.396 . S
C2724 C2729 1.390 . S
C2725 C2719 1.465 . S
C2725 C2724 1.396 . S
C2725 C2726 1.399 . S
C2726 H2712 0.929 . S
C2726 C2725 1.399 . S
C2726 C2727 1.385 . S
C2727 H2713 0.931 . S
C2727 C2726 1.385 . S
C2727 C2728 1.389 . S
C2728 C2727 1.389 . S
C2728 C2729 1.387 . S
C2729 H2714 0.930 . S
C2729 C2724 1.390 . S
C2729 C2728 1.387 . S
H2730 C2742 0.930 . S
H2731 C2744 0.930 . S
H2732 C2745 0.930 . S
H2733 C2749 0.957 1_545 S
H2734 C2749 0.959 1_545 S
H2735 C2749 0.961 . S
H2736 C2750 0.960 . S
H2737 C2750 0.961 1_545 S
H2738 C2750 0.959 . S
H2739 C2753 0.929 . S
H2740 C2754 0.931 . S
H2741 C2756 0.930 . S
C2742 H2730 0.930 . S
C2742 C2743 1.399 1_556 S
C2742 C2747 1.399 . S
C2743 C2742 1.399 1_554 S
C2743 C2744 1.376 . S
C2744 H2731 0.930 . S
C2744 C2743 1.376 . S
C2744 C2745 1.388 . S
C2745 H2732 0.930 . S
C2745 C2744 1.388 . S
C2745 C2746 1.390 . S
C2746 C2745 1.390 . S
C2746 C2747 1.394 1_554 S
C2746 C2752 1.465 1_565 S
C2747 C2742 1.399 . S
C2747 C2746 1.394 1_556 S
C2747 C2748 1.516 . S
C2748 C2747 1.516 . S
C2748 C2749 1.502 . S
C2748 C2750 1.561 . S
C2748 C2751 1.526 1_565 S
C2749 H2733 0.957 1_565 S
C2749 H2734 0.959 1_565 S
C2749 H2735 0.961 . S
C2749 C2748 1.502 . S
C2750 H2736 0.960 . S
C2750 H2737 0.961 1_565 S
C2750 H2738 0.959 . S
C2750 C2748 1.561 . S
C2751 C2748 1.526 1_545 S
C2751 C2752 1.396 1_556 S
C2751 C2756 1.390 . S
C2752 C2746 1.465 1_545 S
C2752 C2751 1.396 1_554 S
C2752 C2753 1.399 . S
C2753 H2739 0.929 . S
C2753 C2752 1.399 . S
C2753 C2754 1.385 . S
C2754 H2740 0.931 . S
C2754 C2753 1.385 . S
C2754 C2755 1.389 1_554 S
C2755 C2754 1.389 1_556 S
C2755 C2756 1.387 . S
C2756 H2741 0.930 . S
C2756 C2751 1.390 . S
C2756 C2755 1.387 . S
H2757 C2769 0.930 . S
H2758 C2771 0.930 . S
H2759 C2772 0.930 . S
H2760 C2776 0.959 . S
H2761 C2776 0.959 . S
H2762 C2776 0.961 . S
H2763 C2777 0.960 . S
H2764 C2777 0.961 . S
H2765 C2777 0.959 . S
H2766 C2780 0.929 . S
H2767 C2781 0.931 . S
H2768 C2783 0.930 . S
C2769 H2757 0.930 . S
C2769 C2770 1.399 . S
C2769 C2774 1.399 . S
C2770 C2769 1.399 . S
C2770 C2771 1.376 . S
C2771 H2758 0.930 . S
C2771 C2770 1.376 . S
C2771 C2772 1.388 . S
C2772 H2759 0.930 . S
C2772 C2771 1.388 . S
C2772 C2773 1.390 . S
C2773 C2772 1.390 . S
C2773 C2774 1.394 . S
C2773 C2779 1.465 . S
C2774 C2769 1.399 . S
C2774 C2773 1.394 . S
C2774 C2775 1.516 . S
C2775 C2774 1.516 . S
C2775 C2776 1.502 . S
C2775 C2777 1.561 . S
C2775 C2778 1.526 . S
C2776 H2760 0.959 . S
C2776 H2761 0.959 . S
C2776 H2762 0.961 . S
C2776 C2775 1.502 . S
C2777 H2763 0.960 . S
C2777 H2764 0.961 . S
C2777 H2765 0.959 . S
C2777 C2775 1.561 . S
C2778 C2775 1.526 . S
C2778 C2779 1.396 . S
C2778 C2783 1.390 . S
C2779 C2773 1.465 . S
C2779 C2778 1.396 . S
C2779 C2780 1.399 . S
C2780 H2766 0.929 . S
C2780 C2779 1.399 . S
C2780 C2781 1.385 . S
C2781 H2767 0.931 . S
C2781 C2780 1.385 . S
C2781 C2782 1.389 . S
C2782 C2781 1.389 . S
C2782 C2783 1.387 . S
C2783 H2768 0.930 . S
C2783 C2778 1.390 . S
C2783 C2782 1.387 . S
H2784 C2796 0.930 . S
H2785 C2798 0.930 1_556 S
H2786 C2799 0.930 . S
H2787 C2803 0.961 . S
H2788 C2803 0.975 . S
H2789 C2803 0.944 1_455 S
H2790 C2804 0.962 1_455 S
H2791 C2804 0.959 . S
H2792 C2804 0.955 1_556 S
H2793 C2807 0.929 . S
H2794 C2808 0.931 1_556 S
H2795 C2810 0.930 . S
C2796 H2784 0.930 . S
C2796 C2797 1.399 . S
C2796 C2801 1.399 . S
C2797 C2796 1.399 . S
C2797 C2798 1.376 . S
C2798 H2785 0.930 1_554 S
C2798 C2797 1.376 . S
C2798 C2799 1.388 1_554 S
C2799 H2786 0.930 . S
C2799 C2798 1.388 1_556 S
C2799 C2800 1.390 1_556 S
C2800 C2799 1.390 1_554 S
C2800 C2801 1.394 . S
C2800 C2806 1.465 1_455 S
C2801 C2796 1.399 . S
C2801 C2800 1.394 . S
C2801 C2802 1.521 1_455 S
C2802 C2801 1.521 1_655 S
C2802 C2803 1.502 . S
C2802 C2804 1.561 . S
C2802 C2805 1.521 . S
C2803 H2787 0.961 . S
C2803 H2788 0.975 . S
C2803 H2789 0.944 1_655 S
C2803 C2802 1.502 . S
C2804 H2790 0.962 1_655 S
C2804 H2791 0.959 . S
C2804 H2792 0.955 1_554 S
C2804 C2802 1.561 . S
C2805 C2802 1.521 . S
C2805 C2806 1.396 . S
C2805 C2810 1.390 . S
C2806 C2800 1.465 1_655 S
C2806 C2805 1.396 . S
C2806 C2807 1.399 1_554 S
C2807 H2793 0.929 . S
C2807 C2806 1.399 1_556 S
C2807 C2808 1.385 1_556 S
C2808 H2794 0.931 1_554 S
C2808 C2807 1.385 1_554 S
C2808 C2809 1.389 . S
C2809 C2808 1.389 . S
C2809 C2810 1.387 . S
C2810 H2795 0.930 . S
C2810 C2805 1.390 . S
C2810 C2809 1.387 . S
H2811 C2823 0.930 . S
H2812 C2825 0.930 . S
H2813 C2826 0.930 . S
H2814 C2830 0.959 . S
H2815 C2830 0.959 . S
H2816 C2830 0.961 . S
H2817 C2831 0.960 . S
H2818 C2831 0.961 . S
H2819 C2831 0.959 . S
H2820 C2834 0.929 . S
H2821 C2835 0.931 . S
H2822 C2837 0.930 . S
C2823 H2811 0.930 . S
C2823 C2824 1.399 . S
C2823 C2828 1.399 . S
C2824 C2823 1.399 . S
C2824 C2825 1.376 . S
C2825 H2812 0.930 . S
C2825 C2824 1.376 . S
C2825 C2826 1.388 . S
C2826 H2813 0.930 . S
C2826 C2825 1.388 . S
C2826 C2827 1.390 . S
C2827 C2826 1.390 . S
C2827 C2828 1.394 . S
C2827 C2833 1.465 . S
C2828 C2823 1.399 . S
C2828 C2827 1.394 . S
C2828 C2829 1.516 . S
C2829 C2828 1.516 . S
C2829 C2830 1.502 . S
C2829 C2831 1.561 . S
C2829 C2832 1.526 . S
C2830 H2814 0.959 . S
C2830 H2815 0.959 . S
C2830 H2816 0.961 . S
C2830 C2829 1.502 . S
C2831 H2817 0.960 . S
C2831 H2818 0.961 . S
C2831 H2819 0.959 . S
C2831 C2829 1.561 . S
C2832 C2829 1.526 . S
C2832 C2833 1.396 . S
C2832 C2837 1.390 . S
C2833 C2827 1.465 . S
C2833 C2832 1.396 . S
C2833 C2834 1.399 . S
C2834 H2820 0.929 . S
C2834 C2833 1.399 . S
C2834 C2835 1.385 . S
C2835 H2821 0.931 . S
C2835 C2834 1.385 . S
C2835 C2836 1.389 . S
C2836 C2835 1.389 . S
C2836 C2837 1.387 . S
C2837 H2822 0.930 . S
C2837 C2832 1.390 . S
C2837 C2836 1.387 . S
H2838 C2850 0.930 . S
H2839 C2852 0.930 . S
H2840 C2853 0.930 . S
H2841 C2857 0.959 . S
H2842 C2857 0.959 . S
H2843 C2857 0.961 . S
H2844 C2858 0.960 . S
H2845 C2858 0.961 . S
H2846 C2858 0.959 . S
H2847 C2861 0.929 . S
H2848 C2862 0.931 . S
H2849 C2864 0.930 . S
C2850 H2838 0.930 . S
C2850 C2851 1.399 . S
C2850 C2855 1.399 . S
C2851 C2850 1.399 . S
C2851 C2852 1.376 . S
C2852 H2839 0.930 . S
C2852 C2851 1.376 . S
C2852 C2853 1.388 . S
C2853 H2840 0.930 . S
C2853 C2852 1.388 . S
C2853 C2854 1.390 . S
C2854 C2853 1.390 . S
C2854 C2855 1.394 . S
C2854 C2860 1.465 . S
C2855 C2850 1.399 . S
C2855 C2854 1.394 . S
C2855 C2856 1.516 . S
C2856 C2855 1.516 . S
C2856 C2857 1.502 . S
C2856 C2858 1.561 . S
C2856 C2859 1.526 . S
C2857 H2841 0.959 . S
C2857 H2842 0.959 . S
C2857 H2843 0.961 . S
C2857 C2856 1.502 . S
C2858 H2844 0.960 . S
C2858 H2845 0.961 . S
C2858 H2846 0.959 . S
C2858 C2856 1.561 . S
C2859 C2856 1.526 . S
C2859 C2860 1.396 . S
C2859 C2864 1.390 . S
C2860 C2854 1.465 . S
C2860 C2859 1.396 . S
C2860 C2861 1.399 . S
C2861 H2847 0.929 . S
C2861 C2860 1.399 . S
C2861 C2862 1.385 . S
C2862 H2848 0.931 . S
C2862 C2861 1.385 . S
C2862 C2863 1.389 . S
C2863 C2862 1.389 . S
C2863 C2864 1.387 . S
C2864 H2849 0.930 . S
C2864 C2859 1.390 . S
C2864 C2863 1.387 . S
H2865 C2877 0.930 . S
H2866 C2879 0.930 . S
H2867 C2880 0.930 . S
H2868 C2884 0.959 . S
H2869 C2884 0.959 . S
H2870 C2884 0.961 . S
H2871 C2885 0.960 . S
H2872 C2885 0.961 . S
H2873 C2885 0.959 . S
H2874 C2888 0.929 . S
H2875 C2889 0.931 . S
H2876 C2891 0.930 . S
C2877 H2865 0.930 . S
C2877 C2878 1.399 . S
C2877 C2882 1.399 . S
C2878 C2877 1.399 . S
C2878 C2879 1.376 . S
C2879 H2866 0.930 . S
C2879 C2878 1.376 . S
C2879 C2880 1.388 . S
C2880 H2867 0.930 . S
C2880 C2879 1.388 . S
C2880 C2881 1.390 . S
C2881 C2880 1.390 . S
C2881 C2882 1.394 . S
C2881 C2887 1.465 . S
C2882 C2877 1.399 . S
C2882 C2881 1.394 . S
C2882 C2883 1.516 . S
C2883 C2882 1.516 . S
C2883 C2884 1.502 . S
C2883 C2885 1.561 . S
C2883 C2886 1.526 . S
C2884 H2868 0.959 . S
C2884 H2869 0.959 . S
C2884 H2870 0.961 . S
C2884 C2883 1.502 . S
C2885 H2871 0.960 . S
C2885 H2872 0.961 . S
C2885 H2873 0.959 . S
C2885 C2883 1.561 . S
C2886 C2883 1.526 . S
C2886 C2887 1.396 . S
C2886 C2891 1.390 . S
C2887 C2881 1.465 . S
C2887 C2886 1.396 . S
C2887 C2888 1.399 . S
C2888 H2874 0.929 . S
C2888 C2887 1.399 . S
C2888 C2889 1.385 . S
C2889 H2875 0.931 . S
C2889 C2888 1.385 . S
C2889 C2890 1.389 . S
C2890 C2889 1.389 . S
C2890 C2891 1.387 . S
C2891 H2876 0.930 . S
C2891 C2886 1.390 . S
C2891 C2890 1.387 . S
H2892 C2904 0.930 . S
H2893 C2906 0.930 . S
H2894 C2907 0.930 . S
H2895 C2911 0.961 . S
H2896 C2911 0.975 . S
H2897 C2911 0.944 1_655 S
H2898 C2912 0.962 1_655 S
H2899 C2912 0.959 . S
H2900 C2912 0.955 . S
H2901 C2915 0.929 . S
H2902 C2916 0.931 . S
H2903 C2918 0.930 . S
C2904 H2892 0.930 . S
C2904 C2905 1.399 . S
C2904 C2909 1.399 . S
C2905 C2904 1.399 . S
C2905 C2906 1.376 1_556 S
C2906 H2893 0.930 . S
C2906 C2905 1.376 1_554 S
C2906 C2907 1.388 . S
C2907 H2894 0.930 . S
C2907 C2906 1.388 . S
C2907 C2908 1.390 1_554 S
C2908 C2907 1.390 1_556 S
C2908 C2909 1.394 . S
C2908 C2914 1.465 1_655 S
C2909 C2904 1.399 . S
C2909 C2908 1.394 . S
C2909 C2910 1.521 1_655 S
C2910 C2909 1.521 1_455 S
C2910 C2911 1.502 . S
C2910 C2912 1.561 . S
C2910 C2913 1.521 . S
C2911 H2895 0.961 . S
C2911 H2896 0.975 . S
C2911 H2897 0.944 1_455 S
C2911 C2910 1.502 . S
C2912 H2898 0.962 1_455 S
C2912 H2899 0.959 . S
C2912 H2900 0.955 . S
C2912 C2910 1.561 . S
C2913 C2910 1.521 . S
C2913 C2914 1.396 . S
C2913 C2918 1.390 . S
C2914 C2908 1.465 1_455 S
C2914 C2913 1.396 . S
C2914 C2915 1.399 1_556 S
C2915 H2901 0.929 . S
C2915 C2914 1.399 1_554 S
C2915 C2916 1.385 . S
C2916 H2902 0.931 . S
C2916 C2915 1.385 . S
C2916 C2917 1.389 1_554 S
C2917 C2916 1.389 1_556 S
C2917 C2918 1.387 . S
C2918 H2903 0.930 . S
C2918 C2913 1.390 . S
C2918 C2917 1.387 . S
H2919 C2931 0.930 . S
H2920 C2933 0.930 . S
H2921 C2934 0.930 . S
H2922 C2938 0.959 . S
H2923 C2938 0.959 . S
H2924 C2938 0.961 . S
H2925 C2939 0.960 . S
H2926 C2939 0.961 . S
H2927 C2939 0.959 . S
H2928 C2942 0.929 . S
H2929 C2943 0.931 . S
H2930 C2945 0.930 . S
C2931 H2919 0.930 . S
C2931 C2932 1.399 . S
C2931 C2936 1.399 . S
C2932 C2931 1.399 . S
C2932 C2933 1.376 . S
C2933 H2920 0.930 . S
C2933 C2932 1.376 . S
C2933 C2934 1.388 . S
C2934 H2921 0.930 . S
C2934 C2933 1.388 . S
C2934 C2935 1.390 . S
C2935 C2934 1.390 . S
C2935 C2936 1.394 . S
C2935 C2941 1.465 . S
C2936 C2931 1.399 . S
C2936 C2935 1.394 . S
C2936 C2937 1.516 . S
C2937 C2936 1.516 . S
C2937 C2938 1.502 . S
C2937 C2939 1.561 . S
C2937 C2940 1.526 . S
C2938 H2922 0.959 . S
C2938 H2923 0.959 . S
C2938 H2924 0.961 . S
C2938 C2937 1.502 . S
C2939 H2925 0.960 . S
C2939 H2926 0.961 . S
C2939 H2927 0.959 . S
C2939 C2937 1.561 . S
C2940 C2937 1.526 . S
C2940 C2941 1.396 . S
C2940 C2945 1.390 . S
C2941 C2935 1.465 . S
C2941 C2940 1.396 . S
C2941 C2942 1.399 . S
C2942 H2928 0.929 . S
C2942 C2941 1.399 . S
C2942 C2943 1.385 . S
C2943 H2929 0.931 . S
C2943 C2942 1.385 . S
C2943 C2944 1.389 . S
C2944 C2943 1.389 . S
C2944 C2945 1.387 . S
C2945 H2930 0.930 . S
C2945 C2940 1.390 . S
C2945 C2944 1.387 . S
H2946 C2958 0.930 . S
H2947 C2960 0.930 . S
H2948 C2961 0.930 . S
H2949 C2965 0.959 . S
H2950 C2965 0.959 . S
H2951 C2965 0.961 . S
H2952 C2966 0.960 . S
H2953 C2966 0.961 . S
H2954 C2966 0.959 . S
H2955 C2969 0.929 . S
H2956 C2970 0.931 . S
H2957 C2972 0.930 . S
C2958 H2946 0.930 . S
C2958 C2959 1.399 . S
C2958 C2963 1.399 . S
C2959 C2958 1.399 . S
C2959 C2960 1.376 . S
C2960 H2947 0.930 . S
C2960 C2959 1.376 . S
C2960 C2961 1.388 . S
C2961 H2948 0.930 . S
C2961 C2960 1.388 . S
C2961 C2962 1.390 . S
C2962 C2961 1.390 . S
C2962 C2963 1.394 . S
C2962 C2968 1.465 . S
C2963 C2958 1.399 . S
C2963 C2962 1.394 . S
C2963 C2964 1.516 . S
C2964 C2963 1.516 . S
C2964 C2965 1.502 . S
C2964 C2966 1.561 . S
C2964 C2967 1.526 . S
C2965 H2949 0.959 . S
C2965 H2950 0.959 . S
C2965 H2951 0.961 . S
C2965 C2964 1.502 . S
C2966 H2952 0.960 . S
C2966 H2953 0.961 . S
C2966 H2954 0.959 . S
C2966 C2964 1.561 . S
C2967 C2964 1.526 . S
C2967 C2968 1.396 . S
C2967 C2972 1.390 . S
C2968 C2962 1.465 . S
C2968 C2967 1.396 . S
C2968 C2969 1.399 . S
C2969 H2955 0.929 . S
C2969 C2968 1.399 . S
C2969 C2970 1.385 . S
C2970 H2956 0.931 . S
C2970 C2969 1.385 . S
C2970 C2971 1.389 . S
C2971 C2970 1.389 . S
C2971 C2972 1.387 . S
C2972 H2957 0.930 . S
C2972 C2967 1.390 . S
C2972 C2971 1.387 . S
H2973 C2985 0.930 . S
H2974 C2987 0.930 . S
H2975 C2988 0.930 . S
H2976 C2992 0.959 . S
H2977 C2992 0.959 . S
H2978 C2992 0.961 . S
H2979 C2993 0.960 . S
H2980 C2993 0.961 . S
H2981 C2993 0.959 . S
H2982 C2996 0.929 . S
H2983 C2997 0.931 . S
H2984 C2999 0.930 . S
C2985 H2973 0.930 . S
C2985 C2986 1.399 . S
C2985 C2990 1.399 . S
C2986 C2985 1.399 . S
C2986 C2987 1.376 . S
C2987 H2974 0.930 . S
C2987 C2986 1.376 . S
C2987 C2988 1.388 . S
C2988 H2975 0.930 . S
C2988 C2987 1.388 . S
C2988 C2989 1.390 . S
C2989 C2988 1.390 . S
C2989 C2990 1.394 . S
C2989 C2995 1.465 . S
C2990 C2985 1.399 . S
C2990 C2989 1.394 . S
C2990 C2991 1.516 . S
C2991 C2990 1.516 . S
C2991 C2992 1.502 . S
C2991 C2993 1.561 . S
C2991 C2994 1.526 . S
C2992 H2976 0.959 . S
C2992 H2977 0.959 . S
C2992 H2978 0.961 . S
C2992 C2991 1.502 . S
C2993 H2979 0.960 . S
C2993 H2980 0.961 . S
C2993 H2981 0.959 . S
C2993 C2991 1.561 . S
C2994 C2991 1.526 . S
C2994 C2995 1.396 . S
C2994 C2999 1.390 . S
C2995 C2989 1.465 . S
C2995 C2994 1.396 . S
C2995 C2996 1.399 . S
C2996 H2982 0.929 . S
C2996 C2995 1.399 . S
C2996 C2997 1.385 . S
C2997 H2983 0.931 . S
C2997 C2996 1.385 . S
C2997 C2998 1.389 . S
C2998 C2997 1.389 . S
C2998 C2999 1.387 . S
C2999 H2984 0.930 . S
C2999 C2994 1.390 . S
C2999 C2998 1.387 . S
H3000 C3012 0.930 . S
H3001 C3014 0.930 . S
H3002 C3015 0.930 . S
H3003 C3019 0.959 . S
H3004 C3019 0.959 . S
H3005 C3019 0.961 . S
H3006 C3020 0.960 . S
H3007 C3020 0.961 . S
H3008 C3020 0.959 . S
H3009 C3023 0.929 . S
H3010 C3024 0.931 . S
H3011 C3026 0.930 . S
C3012 H3000 0.930 . S
C3012 C3013 1.399 . S
C3012 C3017 1.399 . S
C3013 C3012 1.399 . S
C3013 C3014 1.376 . S
C3014 H3001 0.930 . S
C3014 C3013 1.376 . S
C3014 C3015 1.388 . S
C3015 H3002 0.930 . S
C3015 C3014 1.388 . S
C3015 C3016 1.390 . S
C3016 C3015 1.390 . S
C3016 C3017 1.394 . S
C3016 C3022 1.465 . S
C3017 C3012 1.399 . S
C3017 C3016 1.394 . S
C3017 C3018 1.516 . S
C3018 C3017 1.516 . S
C3018 C3019 1.502 . S
C3018 C3020 1.561 . S
C3018 C3021 1.526 . S
C3019 H3003 0.959 . S
C3019 H3004 0.959 . S
C3019 H3005 0.961 . S
C3019 C3018 1.502 . S
C3020 H3006 0.960 . S
C3020 H3007 0.961 . S
C3020 H3008 0.959 . S
C3020 C3018 1.561 . S
C3021 C3018 1.526 . S
C3021 C3022 1.396 . S
C3021 C3026 1.390 . S
C3022 C3016 1.465 . S
C3022 C3021 1.396 . S
C3022 C3023 1.399 . S
C3023 H3009 0.929 . S
C3023 C3022 1.399 . S
C3023 C3024 1.385 . S
C3024 H3010 0.931 . S
C3024 C3023 1.385 . S
C3024 C3025 1.389 . S
C3025 C3024 1.389 . S
C3025 C3026 1.387 . S
C3026 H3011 0.930 . S
C3026 C3021 1.390 . S
C3026 C3025 1.387 . S
H3027 C3039 0.930 . S
H3028 C3041 0.930 . S
H3029 C3042 0.930 . S
H3030 C3046 0.959 . S
H3031 C3046 0.959 . S
H3032 C3046 0.961 . S
H3033 C3047 0.960 . S
H3034 C3047 0.961 . S
H3035 C3047 0.959 . S
H3036 C3050 0.929 . S
H3037 C3051 0.931 . S
H3038 C3053 0.930 . S
C3039 H3027 0.930 . S
C3039 C3040 1.399 . S
C3039 C3044 1.399 . S
C3040 C3039 1.399 . S
C3040 C3041 1.376 . S
C3041 H3028 0.930 . S
C3041 C3040 1.376 . S
C3041 C3042 1.388 . S
C3042 H3029 0.930 . S
C3042 C3041 1.388 . S
C3042 C3043 1.390 . S
C3043 C3042 1.390 . S
C3043 C3044 1.394 . S
C3043 C3049 1.465 . S
C3044 C3039 1.399 . S
C3044 C3043 1.394 . S
C3044 C3045 1.516 . S
C3045 C3044 1.516 . S
C3045 C3046 1.502 . S
C3045 C3047 1.561 . S
C3045 C3048 1.526 . S
C3046 H3030 0.959 . S
C3046 H3031 0.959 . S
C3046 H3032 0.961 . S
C3046 C3045 1.502 . S
C3047 H3033 0.960 . S
C3047 H3034 0.961 . S
C3047 H3035 0.959 . S
C3047 C3045 1.561 . S
C3048 C3045 1.526 . S
C3048 C3049 1.396 . S
C3048 C3053 1.390 . S
C3049 C3043 1.465 . S
C3049 C3048 1.396 . S
C3049 C3050 1.399 . S
C3050 H3036 0.929 . S
C3050 C3049 1.399 . S
C3050 C3051 1.385 . S
C3051 H3037 0.931 . S
C3051 C3050 1.385 . S
C3051 C3052 1.389 . S
C3052 C3051 1.389 . S
C3052 C3053 1.387 . S
C3053 H3038 0.930 . S
C3053 C3048 1.390 . S
C3053 C3052 1.387 . S
H3054 C3066 0.930 . S
H3055 C3068 0.930 . S
H3056 C3069 0.930 . S
H3057 C3073 0.959 . S
H3058 C3073 0.959 . S
H3059 C3073 0.961 . S
H3060 C3074 0.960 . S
H3061 C3074 0.961 . S
H3062 C3074 0.959 . S
H3063 C3077 0.929 . S
H3064 C3078 0.931 . S
H3065 C3080 0.930 . S
C3066 H3054 0.930 . S
C3066 C3067 1.399 . S
C3066 C3071 1.399 . S
C3067 C3066 1.399 . S
C3067 C3068 1.376 . S
C3068 H3055 0.930 . S
C3068 C3067 1.376 . S
C3068 C3069 1.388 . S
C3069 H3056 0.930 . S
C3069 C3068 1.388 . S
C3069 C3070 1.390 . S
C3070 C3069 1.390 . S
C3070 C3071 1.394 . S
C3070 C3076 1.465 . S
C3071 C3066 1.399 . S
C3071 C3070 1.394 . S
C3071 C3072 1.516 . S
C3072 C3071 1.516 . S
C3072 C3073 1.502 . S
C3072 C3074 1.561 . S
C3072 C3075 1.526 . S
C3073 H3057 0.959 . S
C3073 H3058 0.959 . S
C3073 H3059 0.961 . S
C3073 C3072 1.502 . S
C3074 H3060 0.960 . S
C3074 H3061 0.961 . S
C3074 H3062 0.959 . S
C3074 C3072 1.561 . S
C3075 C3072 1.526 . S
C3075 C3076 1.396 . S
C3075 C3080 1.390 . S
C3076 C3070 1.465 . S
C3076 C3075 1.396 . S
C3076 C3077 1.399 . S
C3077 H3063 0.929 . S
C3077 C3076 1.399 . S
C3077 C3078 1.385 . S
C3078 H3064 0.931 . S
C3078 C3077 1.385 . S
C3078 C3079 1.389 . S
C3079 C3078 1.389 . S
C3079 C3080 1.387 . S
C3080 H3065 0.930 . S
C3080 C3075 1.390 . S
C3080 C3079 1.387 . S
H3081 C3093 0.930 . S
H3082 C3095 0.930 . S
H3083 C3096 0.930 . S
H3084 C3100 0.959 . S
H3085 C3100 0.959 . S
H3086 C3100 0.961 . S
H3087 C3101 0.960 . S
H3088 C3101 0.961 . S
H3089 C3101 0.959 . S
H3090 C3104 0.929 . S
H3091 C3105 0.931 . S
H3092 C3107 0.930 . S
C3093 H3081 0.930 . S
C3093 C3094 1.399 . S
C3093 C3098 1.399 . S
C3094 C3093 1.399 . S
C3094 C3095 1.376 . S
C3095 H3082 0.930 . S
C3095 C3094 1.376 . S
C3095 C3096 1.388 . S
C3096 H3083 0.930 . S
C3096 C3095 1.388 . S
C3096 C3097 1.390 . S
C3097 C3096 1.390 . S
C3097 C3098 1.394 . S
C3097 C3103 1.465 . S
C3098 C3093 1.399 . S
C3098 C3097 1.394 . S
C3098 C3099 1.516 . S
C3099 C3098 1.516 . S
C3099 C3100 1.502 . S
C3099 C3101 1.561 . S
C3099 C3102 1.526 . S
C3100 H3084 0.959 . S
C3100 H3085 0.959 . S
C3100 H3086 0.961 . S
C3100 C3099 1.502 . S
C3101 H3087 0.960 . S
C3101 H3088 0.961 . S
C3101 H3089 0.959 . S
C3101 C3099 1.561 . S
C3102 C3099 1.526 . S
C3102 C3103 1.396 . S
C3102 C3107 1.390 . S
C3103 C3097 1.465 . S
C3103 C3102 1.396 . S
C3103 C3104 1.399 . S
C3104 H3090 0.929 . S
C3104 C3103 1.399 . S
C3104 C3105 1.385 . S
C3105 H3091 0.931 . S
C3105 C3104 1.385 . S
C3105 C3106 1.389 . S
C3106 C3105 1.389 . S
C3106 C3107 1.387 . S
C3107 H3092 0.930 . S
C3107 C3102 1.390 . S
C3107 C3106 1.387 . S
H3108 C3120 0.930 . S
H3109 C3122 0.930 . S
H3110 C3123 0.930 . S
H3111 C3127 0.959 . S
H3112 C3127 0.959 . S
H3113 C3127 0.961 . S
H3114 C3128 0.960 . S
H3115 C3128 0.961 . S
H3116 C3128 0.959 . S
H3117 C3131 0.929 . S
H3118 C3132 0.931 . S
H3119 C3134 0.930 . S
C3120 H3108 0.930 . S
C3120 C3121 1.399 . S
C3120 C3125 1.399 . S
C3121 C3120 1.399 . S
C3121 C3122 1.376 . S
C3122 H3109 0.930 . S
C3122 C3121 1.376 . S
C3122 C3123 1.388 . S
C3123 H3110 0.930 . S
C3123 C3122 1.388 . S
C3123 C3124 1.390 . S
C3124 C3123 1.390 . S
C3124 C3125 1.394 . S
C3124 C3130 1.465 . S
C3125 C3120 1.399 . S
C3125 C3124 1.394 . S
C3125 C3126 1.516 . S
C3126 C3125 1.516 . S
C3126 C3127 1.502 . S
C3126 C3128 1.561 . S
C3126 C3129 1.526 . S
C3127 H3111 0.959 . S
C3127 H3112 0.959 . S
C3127 H3113 0.961 . S
C3127 C3126 1.502 . S
C3128 H3114 0.960 . S
C3128 H3115 0.961 . S
C3128 H3116 0.959 . S
C3128 C3126 1.561 . S
C3129 C3126 1.526 . S
C3129 C3130 1.396 . S
C3129 C3134 1.390 . S
C3130 C3124 1.465 . S
C3130 C3129 1.396 . S
C3130 C3131 1.399 . S
C3131 H3117 0.929 . S
C3131 C3130 1.399 . S
C3131 C3132 1.385 . S
C3132 H3118 0.931 . S
C3132 C3131 1.385 . S
C3132 C3133 1.389 . S
C3133 C3132 1.389 . S
C3133 C3134 1.387 . S
C3134 H3119 0.930 . S
C3134 C3129 1.390 . S
C3134 C3133 1.387 . S
H3135 C3147 0.930 . S
H3136 C3149 0.930 . S
H3137 C3150 0.930 . S
H3138 C3154 0.956 1_556 S
H3139 C3154 0.975 . S
H3140 C3154 0.944 1_455 S
H3141 C3155 0.962 1_455 S
H3142 C3155 0.959 . S
H3143 C3155 0.955 . S
H3144 C3158 0.929 . S
H3145 C3159 0.931 . S
H3146 C3161 0.930 . S
C3147 H3135 0.930 . S
C3147 C3148 1.399 . S
C3147 C3152 1.399 . S
C3148 C3147 1.399 . S
C3148 C3149 1.376 . S
C3149 H3136 0.930 . S
C3149 C3148 1.376 . S
C3149 C3150 1.388 . S
C3150 H3137 0.930 . S
C3150 C3149 1.388 . S
C3150 C3151 1.390 . S
C3151 C3150 1.390 . S
C3151 C3152 1.394 . S
C3151 C3157 1.465 1_455 S
C3152 C3147 1.399 . S
C3152 C3151 1.394 . S
C3152 C3153 1.521 1_455 S
C3153 C3152 1.521 1_655 S
C3153 C3154 1.506 . S
C3153 C3155 1.561 . S
C3153 C3156 1.521 . S
C3154 H3138 0.956 1_554 S
C3154 H3139 0.975 . S
C3154 H3140 0.944 1_655 S
C3154 C3153 1.506 . S
C3155 H3141 0.962 1_655 S
C3155 H3142 0.959 . S
C3155 H3143 0.955 . S
C3155 C3153 1.561 . S
C3156 C3153 1.521 . S
C3156 C3157 1.396 . S
C3156 C3161 1.390 . S
C3157 C3151 1.465 1_655 S
C3157 C3156 1.396 . S
C3157 C3158 1.399 . S
C3158 H3144 0.929 . S
C3158 C3157 1.399 . S
C3158 C3159 1.385 . S
C3159 H3145 0.931 . S
C3159 C3158 1.385 . S
C3159 C3160 1.389 . S
C3160 C3159 1.389 . S
C3160 C3161 1.387 . S
C3161 H3146 0.930 . S
C3161 C3156 1.390 . S
C3161 C3160 1.387 . S
H3162 C3174 0.930 . S
H3163 C3176 0.930 . S
H3164 C3177 0.930 . S
H3165 C3181 0.959 . S
H3166 C3181 0.959 . S
H3167 C3181 0.961 . S
H3168 C3182 0.960 . S
H3169 C3182 0.961 . S
H3170 C3182 0.959 . S
H3171 C3185 0.929 . S
H3172 C3186 0.931 . S
H3173 C3188 0.930 . S
C3174 H3162 0.930 . S
C3174 C3175 1.399 . S
C3174 C3179 1.399 . S
C3175 C3174 1.399 . S
C3175 C3176 1.376 . S
C3176 H3163 0.930 . S
C3176 C3175 1.376 . S
C3176 C3177 1.388 . S
C3177 H3164 0.930 . S
C3177 C3176 1.388 . S
C3177 C3178 1.390 . S
C3178 C3177 1.390 . S
C3178 C3179 1.394 . S
C3178 C3184 1.465 . S
C3179 C3174 1.399 . S
C3179 C3178 1.394 . S
C3179 C3180 1.516 . S
C3180 C3179 1.516 . S
C3180 C3181 1.502 . S
C3180 C3182 1.561 . S
C3180 C3183 1.526 . S
C3181 H3165 0.959 . S
C3181 H3166 0.959 . S
C3181 H3167 0.961 . S
C3181 C3180 1.502 . S
C3182 H3168 0.960 . S
C3182 H3169 0.961 . S
C3182 H3170 0.959 . S
C3182 C3180 1.561 . S
C3183 C3180 1.526 . S
C3183 C3184 1.396 . S
C3183 C3188 1.390 . S
C3184 C3178 1.465 . S
C3184 C3183 1.396 . S
C3184 C3185 1.399 . S
C3185 H3171 0.929 . S
C3185 C3184 1.399 . S
C3185 C3186 1.385 . S
C3186 H3172 0.931 . S
C3186 C3185 1.385 . S
C3186 C3187 1.389 . S
C3187 C3186 1.389 . S
C3187 C3188 1.387 . S
C3188 H3173 0.930 . S
C3188 C3183 1.390 . S
C3188 C3187 1.387 . S
H3189 C3201 0.930 . S
H3190 C3203 0.930 . S
H3191 C3204 0.930 . S
H3192 C3208 0.961 . S
H3193 C3208 0.975 . S
H3194 C3208 0.944 1_455 S
H3195 C3209 0.962 1_455 S
H3196 C3209 0.959 . S
H3197 C3209 0.955 . S
H3198 C3212 0.929 . S
H3199 C3213 0.931 . S
H3200 C3215 0.933 . S
C3201 H3189 0.930 . S
C3201 C3202 1.399 1_554 S
C3201 C3206 1.399 1_554 S
C3202 C3201 1.399 1_556 S
C3202 C3203 1.376 . S
C3203 H3190 0.930 . S
C3203 C3202 1.376 . S
C3203 C3204 1.388 . S
C3204 H3191 0.930 . S
C3204 C3203 1.388 . S
C3204 C3205 1.390 . S
C3205 C3204 1.390 . S
C3205 C3206 1.394 . S
C3205 C3211 1.465 1_455 S
C3206 C3201 1.399 1_556 S
C3206 C3205 1.394 . S
C3206 C3207 1.521 1_456 S
C3207 C3206 1.521 1_654 S
C3207 C3208 1.502 . S
C3207 C3209 1.561 . S
C3207 C3210 1.521 1_554 S
C3208 H3192 0.961 . S
C3208 H3193 0.975 . S
C3208 H3194 0.944 1_655 S
C3208 C3207 1.502 . S
C3209 H3195 0.962 1_655 S
C3209 H3196 0.959 . S
C3209 H3197 0.955 . S
C3209 C3207 1.561 . S
C3210 C3207 1.521 1_556 S
C3210 C3211 1.396 . S
C3210 C3215 1.389 1_556 S
C3211 C3205 1.465 1_655 S
C3211 C3210 1.396 . S
C3211 C3212 1.399 . S
C3212 H3198 0.929 . S
C3212 C3211 1.399 . S
C3212 C3213 1.385 . S
C3213 H3199 0.931 . S
C3213 C3212 1.385 . S
C3213 C3214 1.389 . S
C3214 C3213 1.389 . S
C3214 C3215 1.384 1_556 S
C3215 H3200 0.933 . S
C3215 C3210 1.389 1_554 S
C3215 C3214 1.384 1_554 S
C1069 N2 1.443 . S
C1081 N13 1.474 . S
C1096 N46 1.451 . S
C1108 N35 1.448 1_556 S
C1123 N79 1.485 . S
C1135 N68 1.421 . S
C1150 N112 1.444 . S
C1162 N101 1.455 . S
C1177 N145 1.426 . S
C1189 N134 1.485 . S
C1204 N178 1.439 . S
C1216 N167 1.461 . S
C1231 N200 1.473 . S
C1243 N211 1.430 . S
C1258 N233 1.421 1_554 S
C1270 N244 1.481 . S
C1285 N266 1.421 . S
C1297 N277 1.487 . S
C1312 N299 1.441 1_554 S
C1324 N310 1.458 . S
C1339 N332 1.484 . S
C1351 N343 1.424 . S
C1366 N376 1.486 . S
C1378 N365 1.426 . S
C1393 N398 1.421 . S
C1405 N409 1.487 . S
C1420 N431 1.465 . S
C1432 N442 1.454 . S
C1447 N475 1.444 . S
C1459 N464 1.474 . S
C1474 N497 1.442 1_556 S
C1486 N508 1.457 . S
C1501 N541 1.426 . S
C1513 N530 1.485 . S
C1528 N574 1.440 . S
C1540 N563 1.460 . S
C1555 N607 1.423 . S
C1567 N596 1.483 . S
C1582 N640 1.470 . S
C1594 N629 1.449 1_556 S
C1609 N673 1.487 . S
C1621 N662 1.421 . S
C1636 N706 1.468 . S
C1648 N695 1.451 1_554 S
C1663 N739 1.424 . S
C1675 N728 1.485 . S
C1690 N761 1.473 . S
C1702 N772 1.445 . S
C1717 N805 1.445 . S
C1729 N794 1.473 . S
C1744 N838 1.487 . S
C1756 N827 1.424 . S
C1771 N871 1.448 . S
C1783 N860 1.471 . S
C1798 N893 1.444 1_554 S
C1810 N904 1.455 . S
C1825 N926 1.423 . S
C1837 N937 1.487 . S
C1852 N959 1.439 1_556 S
C1864 N970 1.460 . S
C1879 N1003 1.449 . S
C1891 N992 1.469 . S
C1906 N1025 1.443 . S
C1918 N1036 1.456 . S
C1933 C777 1.080 . S
C1945 C18 1.064 . S
C1960 C678 1.066 . S
C1972 C51 1.076 . S
C1987 C711 1.069 . S
C1999 C84 1.072 . S
C2014 C744 1.079 . S
C2026 C117 1.064 . S
C2041 C579 1.065 . S
C2053 C150 1.082 . S
C2068 C612 1.080 . S
C2080 C183 1.064 . S
C2095 C645 1.078 . S
C2107 C216 1.065 . S
C2122 C546 1.073 . S
C2134 C249 1.069 . S
C2149 C1041 1.081 . S
C2161 C282 1.065 . S
C2176 C942 1.069 . S
C2188 C315 1.078 . S
C2203 C348 1.075 . S
C2215 C975 1.070 . S
C2230 C381 1.081 . S
C2242 C1008 1.065 . S
C2257 C414 1.082 . S
C2269 C843 1.064 . S
C2284 C447 1.082 . S
C2296 C876 1.064 . S
C2311 C480 1.068 . S
C2323 C909 1.078 . S
C2338 C810 1.082 . S
C2350 C513 1.064 . S
C2365 C139 1.386 . S
C2377 C7 1.390 . S
C2392 C40 1.404 . S
C2404 C172 1.386 . S
C2419 C205 1.434 . S
C2431 C73 1.415 . S
C2446 C106 1.431 . S
C2458 C238 1.434 . S
C2473 C271 1.419 . S
C2485 C403 1.428 . S
C2500 C436 1.433 . S
C2512 C304 1.426 . S
C2527 C469 1.431 . S
C2539 C337 1.435 . S
C2554 C502 1.435 . S
C2566 C370 1.430 . S
C2581 C667 1.433 . S
C2593 C535 1.411 . S
C2608 C568 1.425 . S
C2620 C700 1.436 . S
C2635 C601 1.393 . S
C2647 C733 1.418 . S
C2662 C634 1.398 . S
C2674 C766 1.385 . S
C2689 C931 1.428 . S
C2701 C799 1.434 . S
C2716 C964 1.385 . S
C2728 C832 1.386 . S
C2743 C997 1.394 . S
C2755 C865 1.388 . S
C2770 C898 1.434 . S
C2782 C1030 1.427 . S
C2797 C21 1.444 . S
C2809 C417 1.441 . S
C2824 C978 1.444 . S
C2836 C54 1.449 . S
C2851 C87 1.455 . S
C2863 C483 1.450 . S
C2878 C1044 1.464 . S
C2890 C120 1.460 . S
C2905 C285 1.441 . S
C2917 C153 1.446 . S
C2932 C186 1.465 . S
C2944 C846 1.461 . S
C2959 C219 1.467 . S
C2971 C351 1.464 . S
C2986 C252 1.469 . S
C2998 C912 1.467 . S
C3013 C714 1.441 . S
C3025 C318 1.445 . S
C3040 C780 1.468 . S
C3052 C384 1.465 . S
C3067 C582 1.438 . S
C3079 C450 1.442 . S
C3094 C648 1.440 . S
C3106 C516 1.445 . S
C3121 C549 1.460 . S
C3133 C945 1.464 . S
C3148 C1011 1.438 . S
C3160 C615 1.437 . S
C3175 C681 1.442 . S
C3187 C813 1.446 . S
C3202 C879 1.464 . S
C3214 C747 1.460 . S
