# Generated by pormake.
# Topology afw, (4)-cn, num edge types: 1
# Building blocks:
#     Node 0, Type 0, BuildingBlock: QUQFOY_clean_sbu_1, # of connection points: 4
#     Node 1, Type 0, BuildingBlock: QUQFOY_clean_sbu_1, # of connection points: 4
#     Node 2, Type 0, BuildingBlock: QUQFOY_clean_sbu_1, # of connection points: 4
#     Node 3, Type 0, BuildingBlock: QUQFOY_clean_sbu_1, # of connection points: 4
#     Node 4, Type 0, BuildingBlock: QUQFOY_clean_sbu_1, # of connection points: 4
#     Node 5, Type 0, BuildingBlock: QUQFOY_clean_sbu_1, # of connection points: 4
#     Node 6, Type 0, BuildingBlock: QUQFOY_clean_sbu_1, # of connection points: 4
#     Node 7, Type 0, BuildingBlock: QUQFOY_clean_sbu_1, # of connection points: 4
#     Node 8, Type 0, BuildingBlock: QUQFOY_clean_sbu_1, # of connection points: 4
#     Edge 9, Type (0, 0), BuildingBlock: CIFDUS_clean_linker_0, # of connection points: 2
#     Edge 10, Type (0, 0), BuildingBlock: CIFDUS_clean_linker_0, # of connection points: 2
#     Edge 11, Type (0, 0), BuildingBlock: CIFDUS_clean_linker_0, # of connection points: 2
#     Edge 12, Type (0, 0), BuildingBlock: CIFDUS_clean_linker_0, # of connection points: 2
#     Edge 13, Type (0, 0), BuildingBlock: CIFDUS_clean_linker_0, # of connection points: 2
#     Edge 14, Type (0, 0), BuildingBlock: CIFDUS_clean_linker_0, # of connection points: 2
#     Edge 15, Type (0, 0), BuildingBlock: CIFDUS_clean_linker_0, # of connection points: 2
#     Edge 16, Type (0, 0), BuildingBlock: CIFDUS_clean_linker_0, # of connection points: 2
#     Edge 17, Type (0, 0), BuildingBlock: CIFDUS_clean_linker_0, # of connection points: 2
#     Edge 18, Type (0, 0), BuildingBlock: CIFDUS_clean_linker_0, # of connection points: 2
#     Edge 19, Type (0, 0), BuildingBlock: CIFDUS_clean_linker_0, # of connection points: 2
#     Edge 20, Type (0, 0), BuildingBlock: CIFDUS_clean_linker_0, # of connection points: 2
#     Edge 21, Type (0, 0), BuildingBlock: CIFDUS_clean_linker_0, # of connection points: 2
#     Edge 22, Type (0, 0), BuildingBlock: CIFDUS_clean_linker_0, # of connection points: 2
#     Edge 23, Type (0, 0), BuildingBlock: CIFDUS_clean_linker_0, # of connection points: 2
#     Edge 24, Type (0, 0), BuildingBlock: CIFDUS_clean_linker_0, # of connection points: 2
#     Edge 25, Type (0, 0), BuildingBlock: CIFDUS_clean_linker_0, # of connection points: 2
#     Edge 26, Type (0, 0), BuildingBlock: CIFDUS_clean_linker_0, # of connection points: 2
# Relax obj value: 0.122
# Max RMSD: 0.153
# Mean RMSD: 0.153
data_MOF--net-afw--node1-QUQFOY_clean_sbu_1--edge1-CIFDUS_clean_linker_0
_symmetry_space_group_name_H-M    P1
_symmetry_Int_Tables_number       1
_symmetry_cell_setting            triclinic
loop_
_symmetry_equiv_pos_as_xyz
'x, y, z'
_cell_length_a     37.694653
_cell_length_b     37.885715
_cell_length_c     32.814146
_cell_angle_alpha  89.887348
_cell_angle_beta   90.29712
_cell_angle_gamma 120.2943
loop_
_atom_site_label
_atom_site_type_symbol
_atom_site_fract_x
_atom_site_fract_y
_atom_site_fract_z
_atom_type_partial_charge
O0 O 0.06391 0.2036 0.99313 0.0
Cd1 Cd 0.01211 0.2085 0.9861 0.0
Cd2 Cd 0.01392 0.20575 0.06949 0.0
O3 O 0.06949 0.20888 0.06004 0.0
O4 O 0.01248 0.22105 0.92705 0.0
O5 O 0.01862 0.26403 0.9757 0.0
C6 C 0.01769 0.25615 0.9373 0.0
C7 C 0.00794 0.24613 0.11958 0.0
C8 C 0.08295 0.20522 0.0258 0.0
C9 C 0.94328 0.13479 0.02628 0.0
O10 O 0.96231 0.14932 0.05969 0.0
O11 O 0.95664 0.15506 0.99345 0.0
O12 O 0.01301 0.21591 0.12892 0.0
O13 O 0.00743 0.25432 0.0814 0.0
O14 O 0.881 0.82946 0.06847 0.0
Cd15 Cd 0.82434 0.82273 0.08117 0.0
Cd16 Cd 0.8201 0.82648 1.00013 0.0
O17 O 0.87419 0.82506 1.00163 0.0
O18 O 0.81101 0.80151 0.13802 0.0
O19 O 0.77498 0.76625 0.08423 0.0
C20 C 0.7811 0.7682 0.12316 0.0
C21 C 0.76543 0.78303 0.95775 0.0
C22 C 0.89517 0.82893 0.03354 0.0
C23 C 0.82507 0.89646 0.04803 0.0
O24 O 0.82577 0.88241 1.01307 0.0
O25 O 0.82179 0.87589 0.0799 0.0
O26 O 0.79874 0.81302 0.94312 0.0
O27 O 0.76363 0.77686 0.99663 0.0
O28 O 0.14882 0.96896 1.02052 0.0
Cd29 Cd 0.20498 0.02061 1.00975 0.0
Cd30 Cd 0.20995 0.01972 0.09166 0.0
O31 O 0.15648 0.9638 0.08649 0.0
O32 O 0.21414 0.01903 0.95019 0.0
O33 O 0.25393 0.01464 0.99727 0.0
C34 C 0.24492 0.01448 0.95919 0.0
C35 C 0.2645 0.02837 0.13282 0.0
C36 C 0.13522 0.95015 0.05406 0.0
C37 C 0.20389 0.0889 0.05374 0.0
O38 O 0.20309 0.07023 0.08626 0.0
O39 O 0.20754 0.07566 1.01937 0.0
O40 O 0.23053 0.02236 0.14829 0.0
O41 O 0.26703 0.02795 0.09356 0.0
O42 O 0.62745 0.48213 0.40406 0.0
Cd43 Cd 0.67868 0.53746 0.41859 0.0
Cd44 Cd 0.68596 0.5433 0.33684 0.0
O45 O 0.6299 0.48971 0.33734 0.0
O46 O 0.67249 0.545 0.47767 0.0
O47 O 0.67248 0.58634 0.43001 0.0
C48 C 0.66943 0.57633 0.46804 0.0
C49 C 0.69691 0.59806 0.29559 0.0
C50 C 0.61246 0.46863 0.36889 0.0
C51 C 0.75131 0.53672 0.3831 0.0
O52 O 0.73638 0.53708 0.34838 0.0
O53 O 0.7342 0.53923 0.41537 0.0
O54 O 0.69318 0.56502 0.2803 0.0
O55 O 0.69324 0.59964 0.33459 0.0
O56 O 0.54293 0.16353 0.42358 0.0
Cd57 Cd 0.48588 0.15773 0.43127 0.0
Cd58 Cd 0.48787 0.15863 0.34924 0.0
O59 O 0.54108 0.15629 0.35685 0.0
O60 O 0.47454 0.1454 0.49043 0.0
O61 O 0.43675 0.10196 0.44204 0.0
C62 C 0.44431 0.11007 0.4804 0.0
C63 C 0.43421 0.11312 0.30714 0.0
C64 C 0.5595 0.1613 0.39078 0.0
C65 C 0.48997 0.23036 0.39026 0.0
O66 O 0.49392 0.21546 0.35707 0.0
O67 O 0.48342 0.21053 0.42335 0.0
O68 O 0.46826 0.14174 0.29218 0.0
O69 O 0.43121 0.10937 0.34635 0.0
O70 O 0.86551 0.39859 0.39094 0.0
Cd71 Cd 0.87055 0.34728 0.39915 0.0
Cd72 Cd 0.87177 0.34801 0.317 0.0
O73 O 0.87497 0.40361 0.3245 0.0
O74 O 0.88993 0.35009 0.45633 0.0
O75 O 0.92687 0.35406 0.40244 0.0
C76 C 0.92384 0.35512 0.4416 0.0
C77 C 0.91267 0.34148 0.26768 0.0
C78 C 0.86923 0.41731 0.35763 0.0
C79 C 0.79799 0.27849 0.35832 0.0
O80 O 0.81452 0.29699 0.3253 0.0
O81 O 0.8167 0.29199 0.39209 0.0
O82 O 0.88249 0.34665 0.25779 0.0
O83 O 0.92051 0.34103 0.30598 0.0
O84 O 0.39421 0.86772 0.68839 0.0
Cd85 Cd 0.34234 0.87187 0.6784 0.0
Cd86 Cd 0.34386 0.87584 0.76187 0.0
O87 O 0.39938 0.87825 0.75474 0.0
O88 O 0.34343 0.8832 0.61894 0.0
O89 O 0.34846 0.92685 0.66641 0.0
C90 C 0.34823 0.91838 0.62824 0.0
C91 C 0.33834 0.91761 0.81083 0.0
C92 C 0.41304 0.87195 0.72189 0.0
C93 C 0.27346 0.80144 0.72185 0.0
O94 O 0.29221 0.81892 0.75461 0.0
O95 O 0.28701 0.81878 0.68765 0.0
O96 O 0.34336 0.88757 0.82095 0.0
O97 O 0.33744 0.92482 0.77245 0.0
O98 O 0.20955 0.49882 0.72794 0.0
Cd99 Cd 0.15348 0.49421 0.73894 0.0
Cd100 Cd 0.14781 0.488 0.65712 0.0
O101 O 0.20128 0.48575 0.66206 0.0
O102 O 0.14422 0.48312 0.7985 0.0
O103 O 0.10439 0.43912 0.75132 0.0
C104 C 0.11336 0.44778 0.78942 0.0
C105 C 0.09321 0.44176 0.61615 0.0
C106 C 0.22284 0.49353 0.69431 0.0
C107 C 0.15433 0.56351 0.69464 0.0
O108 O 0.15474 0.54544 0.6622 0.0
O109 O 0.151 0.54676 0.72912 0.0
O110 O 0.12712 0.4699 0.60056 0.0
O111 O 0.09074 0.43889 0.65541 0.0
O112 O 0.47624 0.62982 0.67623 0.0
Cd113 Cd 0.53194 0.68065 0.66197 0.0
Cd114 Cd 0.5384 0.68814 0.74376 0.0
O115 O 0.48447 0.63233 0.74292 0.0
O116 O 0.53961 0.67451 0.60291 0.0
O117 O 0.58107 0.67449 0.65082 0.0
C118 C 0.57114 0.67154 0.61271 0.0
C119 C 0.59366 0.6991 0.78503 0.0
C120 C 0.46295 0.61497 0.71138 0.0
C121 C 0.53175 0.75319 0.69781 0.0
O122 O 0.53218 0.73837 0.73248 0.0
O123 O 0.53404 0.73602 0.66549 0.0
O124 O 0.56049 0.69533 0.80034 0.0
O125 O 0.59507 0.69543 0.746 0.0
H126 H 0.1923 0.12836 0.9901 0.0
H127 H 0.19253 0.1238 0.1216 0.0
H128 H 0.16075 0.16603 0.12454 0.0
H129 H 0.12261 0.19406 0.0898 0.0
H130 H 0.1195 0.19569 0.95826 0.0
H131 H 0.16326 0.16552 0.95547 0.0
C132 C 0.18628 0.13732 1.01946 0.0
C133 C 0.19404 0.12214 0.05553 0.0
C134 C 0.16696 0.16074 0.02096 0.0
C135 C 0.1864 0.13452 0.09329 0.0
C136 C 0.16804 0.15859 0.09503 0.0
C137 C 0.13223 0.18871 0.06049 0.0
C138 C 0.11701 0.19637 0.02432 0.0
C139 C 0.15654 0.17031 0.05905 0.0
C140 C 0.13022 0.18959 0.98664 0.0
C141 C 0.15517 0.17216 0.98497 0.0
H142 H 0.83318 0.94875 0.98694 0.0
H143 H 0.83947 0.94118 0.11786 0.0
H144 H 0.87126 0.01522 0.12311 0.0
H145 H 0.90749 0.08231 0.08982 0.0
H146 H 0.90312 0.08984 0.95871 0.0
H147 H 0.85979 0.01575 0.95448 0.0
C148 C 0.84069 0.96316 1.01672 0.0
C149 C 0.83474 0.93942 0.05185 0.0
C150 C 0.8598 0.00589 1.01951 0.0
C151 C 0.84409 0.95863 0.09022 0.0
C152 C 0.86251 1.00108 0.09328 0.0
C153 C 0.89639 0.06788 0.06034 0.0
C154 C 0.90938 0.09164 0.0246 0.0
C155 C 0.87214 0.0251 0.058 0.0
C156 C 0.89409 0.07238 0.98674 0.0
C157 C 0.86941 0.0299 0.98424 0.0
H158 H 0.9488 0.8396 0.09479 0.0
H159 H 0.93966 0.84251 0.96372 0.0
H160 H 0.01412 0.87507 0.95824 0.0
H161 H 0.08184 0.91257 0.99112 0.0
H162 H 0.09101 0.91164 0.1223 0.0
H163 H 0.01664 0.86786 0.12708 0.0
C164 C 0.96296 0.84656 0.06494 0.0
C165 C 0.93861 0.83936 0.0298 0.0
C166 C 0.00594 0.8661 0.062 0.0
C167 C 0.95755 0.84806 0.99136 0.0
C168 C 1.00024 0.86691 0.98817 0.0
C169 C 0.06772 0.90215 1.02075 0.0
C170 C 0.09201 0.91615 0.05632 0.0
C171 C 0.02479 0.87765 0.02337 0.0
C172 C 0.07314 0.90175 0.09439 0.0
C173 C 0.0305 0.87684 0.0972 0.0
H174 H 0.85457 0.45354 0.42186 0.0
H175 H 0.86339 0.45716 0.29059 0.0
H176 H 0.83318 0.50081 0.28743 0.0
H177 H 0.79394 0.52795 0.32099 0.0
H178 H 0.78311 0.52237 0.45211 0.0
H179 H 0.82505 0.49023 0.45616 0.0
C180 C 0.8507 0.46454 0.39258 0.0
C181 C 0.86041 0.45127 0.35649 0.0
C182 C 0.83248 0.48897 0.39087 0.0
C183 C 0.85576 0.46642 0.31888 0.0
C184 C 0.83828 0.49128 0.31699 0.0
C185 C 0.80144 0.52052 0.35055 0.0
C186 C 0.78457 0.52677 0.38609 0.0
C187 C 0.82487 0.5012 0.35266 0.0
C188 C 0.79521 0.5175 0.42416 0.0
C189 C 0.81907 0.49889 0.42653 0.0
H190 H 0.50828 0.28282 0.32638 0.0
H191 H 0.49367 0.27511 0.45713 0.0
H192 H 0.52483 0.34911 0.4612 0.0
H193 H 0.56642 0.41617 0.42912 0.0
H194 H 0.58303 0.42406 0.29865 0.0
H195 H 0.54024 0.34996 0.29306 0.0
C196 C 0.51108 0.29718 0.35571 0.0
C197 C 0.49947 0.27341 0.39146 0.0
C198 C 0.52984 0.33994 0.35799 0.0
C199 C 0.50279 0.29259 0.42911 0.0
C200 C 0.52081 0.33502 0.43153 0.0
C201 C 0.56 0.40182 0.39933 0.0
C202 C 0.57871 0.42566 0.3645 0.0
C203 C 0.53608 0.35908 0.39639 0.0
C204 C 0.56944 0.40653 0.32608 0.0
C205 C 0.54512 0.36404 0.32285 0.0
H206 H 0.60901 0.17148 0.32615 0.0
H207 H 0.6079 0.17352 0.4577 0.0
H208 H 0.68239 0.20446 0.4593 0.0
H209 H 0.74819 0.24097 0.42337 0.0
H210 H 0.74933 0.24145 0.29179 0.0
H211 H 0.67469 0.19895 0.29037 0.0
C212 C 0.62489 0.17781 0.35522 0.0
C213 C 0.60284 0.17089 0.3917 0.0
C214 C 0.66794 0.19657 0.35598 0.0
C215 C 0.62404 0.17899 0.42908 0.0
C216 C 0.66675 0.19687 0.43006 0.0
C217 C 0.73226 0.23103 0.39436 0.0
C218 C 0.7544 0.24513 0.35777 0.0
C219 C 0.68914 0.20738 0.39369 0.0
C220 C 0.73312 0.23157 0.32048 0.0
C221 C 0.69033 0.20734 0.31959 0.0
H222 H 0.45011 0.85756 0.65823 0.0
H223 H 0.45207 0.86542 0.78957 0.0
H224 H 0.49536 0.83474 0.79332 0.0
H225 H 0.52249 0.79537 0.76003 0.0
H226 H 0.51854 0.7856 0.62878 0.0
H227 H 0.48691 0.82791 0.62441 0.0
C228 C 0.46069 0.85338 0.68767 0.0
C229 C 0.44702 0.86296 0.72357 0.0
C230 C 0.48488 0.83488 0.6897 0.0
C231 C 0.46165 0.85792 0.76141 0.0
C232 C 0.48628 0.84014 0.76363 0.0
C233 C 0.51554 0.80318 0.73039 0.0
C234 C 0.52207 0.7865 0.69487 0.0
C235 C 0.49652 0.82686 0.72808 0.0
C236 C 0.51342 0.79753 0.65671 0.0
C237 C 0.49511 0.82161 0.65415 0.0
H238 H 0.23482 0.75028 0.6578 0.0
H239 H 0.2366 0.75501 0.78932 0.0
H240 H 0.19348 0.68084 0.79227 0.0
H241 H 0.16526 0.61457 0.75794 0.0
H242 H 0.16618 0.60982 0.62649 0.0
H243 H 0.19754 0.68391 0.62323 0.0
C244 C 0.22504 0.73524 0.68713 0.0
C245 C 0.2397 0.75823 0.72327 0.0
C246 C 0.20108 0.69241 0.68868 0.0
C247 C 0.2263 0.73813 0.76097 0.0
C248 C 0.20172 0.69561 0.76273 0.0
C249 C 0.17146 0.62958 0.72851 0.0
C250 C 0.16412 0.60663 0.69257 0.0
C251 C 0.19047 0.67237 0.72683 0.0
C252 C 0.17198 0.62668 0.65472 0.0
C253 C 0.19009 0.66915 0.65279 0.0
H254 H 0.27714 0.51043 0.75665 0.0
H255 H 0.26611 0.49861 0.62567 0.0
H256 H 0.34043 0.52983 0.6199 0.0
H257 H 0.40867 0.57059 0.65111 0.0
H258 H 0.41968 0.5843 0.78195 0.0
H259 H 0.34537 0.54164 0.78859 0.0
C260 C 0.29085 0.51387 0.72686 0.0
C261 C 0.26604 0.50297 0.69161 0.0
C262 C 0.33375 0.53266 0.72365 0.0
C263 C 0.28438 0.50709 0.65333 0.0
C264 C 0.32699 0.52518 0.64996 0.0
C265 C 0.39495 0.56358 0.68117 0.0
C266 C 0.41975 0.58143 0.71589 0.0
C267 C 0.35205 0.53969 0.68477 0.0
C268 C 0.40141 0.57141 0.75462 0.0
C269 C 0.35881 0.54715 0.75847 0.0
H270 H 0.05251 0.33841 0.94713 0.0
H271 H 1.00097 0.24317 0.85616 0.0
H272 H 0.02208 0.29428 0.8023 0.0
H273 H 0.06129 0.366 0.78057 0.0
H274 H 0.11646 0.46127 0.87128 0.0
H275 H 0.08756 0.41039 0.92551 0.0
C276 C 0.04528 0.32887 0.91557 0.0
C277 C 0.02543 0.28708 0.90567 0.0
C278 C 0.0585 0.35849 0.88459 0.0
C279 C 0.01649 0.27518 0.8646 0.0
C280 C 0.0286 0.30439 0.83373 0.0
C281 C 0.06642 0.37566 0.8122 0.0
C282 C 0.09121 0.41733 0.82183 0.0
C283 C 0.05057 0.34615 0.84329 0.0
C284 C 0.09772 0.42934 0.863 0.0
C285 C 0.08125 0.40025 0.89408 0.0
H286 H 0.7646 0.77728 0.87518 0.0
H287 H 0.68544 0.73438 0.98024 0.0
H288 H 0.62506 0.70192 0.93575 0.0
H289 H 0.59471 0.69114 0.86717 0.0
H290 H 0.67378 0.73259 0.76203 0.0
H291 H 0.73426 0.75982 0.80638 0.0
C292 C 0.73415 0.76042 0.88833 0.0
C293 C 0.72949 0.75866 0.93095 0.0
C294 C 0.69957 0.74176 0.86257 0.0
C295 C 0.68988 0.73627 0.94754 0.0
C296 C 0.65532 0.71785 0.92212 0.0
C297 C 0.62518 0.70572 0.85395 0.0
C298 C 0.62978 0.71028 0.8114 0.0
C299 C 0.65978 0.72123 0.87962 0.0
C300 C 0.6694 0.72875 0.79468 0.0
C301 C 0.70401 0.74451 0.82004 0.0
H302 H 0.30449 0.96585 0.80122 0.0
H303 H 0.3549 0.92061 0.89195 0.0
H304 H 0.33449 0.95083 0.94595 0.0
H305 H 0.29617 0.98397 0.96786 0.0
H306 H 0.24208 0.0256 0.87741 0.0
H307 H 0.27038 0.0034 0.82303 0.0
C308 C 0.31162 0.96323 0.83276 0.0
C309 C 0.33094 0.94081 0.84256 0.0
C310 C 0.29881 0.97978 0.86382 0.0
C311 C 0.33976 0.93747 0.8836 0.0
C312 C 0.32806 0.9547 0.91454 0.0
C313 C 0.29116 0.9888 0.93626 0.0
C314 C 0.26684 0.00617 0.92673 0.0
C315 C 0.30662 0.97499 0.90509 0.0
C316 C 0.26047 0.01204 0.8856 0.0
C317 C 0.27659 0.9993 0.85444 0.0
H318 H 0.43442 0.10645 0.22464 0.0
H319 H 0.35409 0.06336 0.32886 0.0
H320 H 0.2943 0.02999 0.28375 0.0
H321 H 0.2647 0.01911 0.21489 0.0
H322 H 0.34491 0.06182 0.11059 0.0
H323 H 0.40489 0.08885 0.15557 0.0
C324 C 0.40386 0.08931 0.23751 0.0
C325 C 0.39872 0.08785 0.28007 0.0
C326 C 0.36959 0.07035 0.21138 0.0
C327 C 0.35894 0.06511 0.29624 0.0
C328 C 0.3247 0.04616 0.27045 0.0
C329 C 0.29529 0.03387 0.20195 0.0
C330 C 0.30033 0.0389 0.15946 0.0
C331 C 0.32963 0.0495 0.22799 0.0
C332 C 0.34015 0.05764 0.14317 0.0
C333 C 0.37449 0.07329 0.1689 0.0
H334 H 0.97657 0.2965 0.11055 0.0
H335 H 0.02058 0.245 0.20129 0.0
H336 H 0.99903 0.27403 0.2555 0.0
H337 H 0.96147 0.30817 0.27721 0.0
H338 H 0.91391 0.35611 0.18631 0.0
H339 H 0.94335 0.33481 0.1323 0.0
C340 C 0.98205 0.29221 0.14217 0.0
C341 C 0.9999 0.26842 0.15184 0.0
C342 C 0.96862 0.30812 0.17326 0.0
C343 C 0.00662 0.26297 0.193 0.0
C344 C 0.99426 0.27951 0.22406 0.0
C345 C 0.95816 0.31455 0.24562 0.0
C346 C 0.93533 0.33345 0.2358 0.0
C347 C 0.97428 0.30126 0.21458 0.0
C348 C 0.9311 0.34132 0.19469 0.0
C349 C 0.94789 0.32911 0.16374 0.0
H350 H 0.68915 0.5987 0.21338 0.0
H351 H 0.73011 0.67782 0.31865 0.0
H352 H 0.75737 0.73779 0.27434 0.0
H353 H 0.77503 0.76768 0.20563 0.0
H354 H 0.73272 0.68847 0.10043 0.0
H355 H 0.70014 0.62856 0.1448 0.0
C356 C 0.70363 0.62907 0.22664 0.0
C357 C 0.70806 0.63385 0.26921 0.0
C358 C 0.71918 0.66336 0.201 0.0
C359 C 0.72638 0.67332 0.28597 0.0
C360 C 0.74216 0.70764 0.26065 0.0
C361 C 0.75829 0.73731 0.19242 0.0
C362 C 0.75672 0.73249 0.14981 0.0
C363 C 0.73958 0.70302 0.21811 0.0
C364 C 0.73446 0.69301 0.13312 0.0
C365 C 0.71598 0.65873 0.15848 0.0
H366 H 0.09313 0.43152 0.53427 0.0
H367 H 0.01276 0.39488 0.63838 0.0
H368 H 0.95284 0.36137 0.59336 0.0
H369 H 0.92343 0.34879 0.52419 0.0
H370 H 0.00393 0.38514 0.42016 0.0
H371 H 0.06362 0.41203 0.46543 0.0
C372 C 0.06251 0.41575 0.54716 0.0
C373 C 0.05741 0.41615 0.58959 0.0
C374 C 0.02822 0.39672 0.52109 0.0
C375 C 0.01756 0.39513 0.60584 0.0
C376 C 0.98326 0.37613 0.58009 0.0
C377 C 0.95401 0.36211 0.51141 0.0
C378 C 0.95923 0.36542 0.46884 0.0
C379 C 0.98823 0.37769 0.53763 0.0
C380 C 0.99902 0.38231 0.45279 0.0
C381 C 0.03321 0.39788 0.47867 0.0
H382 H 0.63593 0.62463 0.45733 0.0
H383 H 0.68122 0.5761 0.54989 0.0
H384 H 0.65861 0.60519 0.60312 0.0
H385 H 0.62047 0.6391 0.6235 0.0
H386 H 0.57083 0.68325 0.5309 0.0
H387 H 0.60085 0.6616 0.47772 0.0
C388 C 0.64142 0.621 0.48913 0.0
C389 C 0.6601 0.59817 0.49965 0.0
C390 C 0.62725 0.6368 0.51965 0.0
C391 C 0.66668 0.59338 0.54101 0.0
C392 C 0.65373 0.60997 0.57149 0.0
C393 C 0.61679 0.64453 0.5917 0.0
C394 C 0.59337 0.66262 0.58115 0.0
C395 C 0.63315 0.63094 0.5612 0.0
C396 C 0.58854 0.66915 0.53981 0.0
C397 C 0.60566 0.65675 0.50935 0.0
H398 H 0.37932 1.00019 0.6373 0.0
H399 H 0.33612 0.90496 0.54647 0.0
H400 H 0.35794 0.95587 0.4923 0.0
H401 H 0.39556 0.02781 0.4707 0.0
H402 H 0.44236 0.12306 0.5617 0.0
H403 H 0.41256 0.07195 0.61561 0.0
C404 C 0.37406 0.99054 0.60567 0.0
C405 C 0.35636 0.94888 0.59597 0.0
C406 C 0.38765 0.02008 0.5746 0.0
C407 C 0.34995 0.93689 0.55479 0.0
C408 C 0.36247 0.96599 0.52375 0.0
C409 C 0.39862 0.03736 0.50228 0.0
C410 C 0.42135 0.07915 0.51216 0.0
C411 C 0.38231 0.00774 0.53327 0.0
C412 C 0.42525 0.09105 0.55327 0.0
C413 C 0.40826 0.06184 0.58416 0.0
loop_
_geom_bond_atom_site_label_1
_geom_bond_atom_site_label_2
_geom_bond_distance
_geom_bond_site_symmetry_2
_ccdc_geom_bond_type
O0 Cd1 2.225 1_455 S
O0 C8 1.315 1_556 S
Cd1 O0 2.225 1_655 S
Cd1 O4 2.298 1_655 S
Cd1 O5 2.439 1_655 S
Cd1 O11 2.239 1_556 S
Cd2 O3 2.240 . S
Cd2 O10 2.223 1_455 S
Cd2 O12 2.297 1_455 S
Cd2 O13 2.439 1_455 S
O3 Cd2 2.240 . S
O3 C8 1.279 . S
O4 Cd1 2.298 1_455 S
O4 C6 1.247 . S
O5 Cd1 2.439 1_455 S
O5 C6 1.208 . S
C6 O4 1.247 . S
C6 O5 1.208 . S
C7 O12 1.247 . S
C7 O13 1.208 . S
C8 O0 1.315 1_554 S
C8 O3 1.279 . S
C9 O10 1.315 . S
C9 O11 1.279 . S
O10 Cd2 2.223 1_655 S
O10 C9 1.315 . S
O11 Cd1 2.239 1_554 S
O11 C9 1.279 . S
O12 Cd2 2.297 1_655 S
O12 C7 1.247 . S
O13 Cd2 2.439 1_655 S
O13 C7 1.208 . S
O14 Cd15 2.223 . S
O14 C22 1.315 . S
Cd15 O14 2.223 . S
Cd15 O18 2.297 . S
Cd15 O19 2.439 . S
Cd15 O25 2.240 . S
Cd16 O17 2.240 1_556 S
Cd16 O24 2.223 . S
Cd16 O26 2.297 . S
Cd16 O27 2.439 . S
O17 Cd16 2.240 1_554 S
O17 C22 1.279 . S
O18 Cd15 2.297 . S
O18 C20 1.247 . S
O19 Cd15 2.439 . S
O19 C20 1.208 . S
C20 O18 1.247 . S
C20 O19 1.208 . S
C21 O26 1.247 . S
C21 O27 1.208 . S
C22 O14 1.315 . S
C22 O17 1.279 . S
C23 O24 1.315 1_554 S
C23 O25 1.279 . S
O24 Cd16 2.223 . S
O24 C23 1.315 1_556 S
O25 Cd15 2.240 . S
O25 C23 1.279 . S
O26 Cd16 2.297 . S
O26 C21 1.247 . S
O27 Cd16 2.439 . S
O27 C21 1.208 . S
O28 Cd29 2.223 1_565 S
O28 C36 1.315 1_556 S
Cd29 O28 2.223 1_545 S
Cd29 O32 2.297 1_545 S
Cd29 O33 2.439 1_545 S
Cd29 O39 2.240 1_556 S
Cd30 O31 2.240 1_545 S
Cd30 O38 2.223 . S
Cd30 O40 2.297 . S
Cd30 O41 2.439 . S
O31 Cd30 2.240 1_565 S
O31 C36 1.279 . S
O32 Cd29 2.297 1_565 S
O32 C34 1.247 . S
O33 Cd29 2.439 1_565 S
O33 C34 1.208 . S
C34 O32 1.247 . S
C34 O33 1.208 . S
C35 O40 1.247 . S
C35 O41 1.208 . S
C36 O28 1.315 1_554 S
C36 O31 1.279 . S
C37 O38 1.315 . S
C37 O39 1.279 . S
O38 Cd30 2.223 . S
O38 C37 1.315 . S
O39 Cd29 2.240 1_554 S
O39 C37 1.279 . S
O40 Cd30 2.297 . S
O40 C35 1.247 . S
O41 Cd30 2.439 . S
O41 C35 1.208 . S
O42 Cd43 2.223 . S
O42 C50 1.315 . S
Cd43 O42 2.223 . S
Cd43 O46 2.297 . S
Cd43 O47 2.439 . S
Cd43 O53 2.240 . S
Cd44 O45 2.240 . S
Cd44 O52 2.223 . S
Cd44 O54 2.297 . S
Cd44 O55 2.439 . S
O45 Cd44 2.240 . S
O45 C50 1.279 . S
O46 Cd43 2.297 . S
O46 C48 1.247 . S
O47 Cd43 2.439 . S
O47 C48 1.208 . S
C48 O46 1.247 . S
C48 O47 1.208 . S
C49 O54 1.247 . S
C49 O55 1.208 . S
C50 O42 1.315 . S
C50 O45 1.279 . S
C51 O52 1.315 . S
C51 O53 1.279 . S
O52 Cd44 2.223 . S
O52 C51 1.315 . S
O53 Cd43 2.240 . S
O53 C51 1.279 . S
O54 Cd44 2.297 . S
O54 C49 1.247 . S
O55 Cd44 2.439 . S
O55 C49 1.208 . S
O56 Cd57 2.223 . S
O56 C64 1.315 . S
Cd57 O56 2.223 . S
Cd57 O60 2.297 . S
Cd57 O61 2.439 . S
Cd57 O67 2.240 . S
Cd58 O59 2.240 . S
Cd58 O66 2.223 . S
Cd58 O68 2.297 . S
Cd58 O69 2.439 . S
O59 Cd58 2.240 . S
O59 C64 1.279 . S
O60 Cd57 2.297 . S
O60 C62 1.247 . S
O61 Cd57 2.439 . S
O61 C62 1.208 . S
C62 O60 1.247 . S
C62 O61 1.208 . S
C63 O68 1.247 . S
C63 O69 1.208 . S
C64 O56 1.315 . S
C64 O59 1.279 . S
C65 O66 1.315 . S
C65 O67 1.279 . S
O66 Cd58 2.223 . S
O66 C65 1.315 . S
O67 Cd57 2.240 . S
O67 C65 1.279 . S
O68 Cd58 2.297 . S
O68 C63 1.247 . S
O69 Cd58 2.439 . S
O69 C63 1.208 . S
O70 Cd71 2.223 . S
O70 C78 1.315 . S
Cd71 O70 2.223 . S
Cd71 O74 2.297 . S
Cd71 O75 2.439 . S
Cd71 O81 2.240 . S
Cd72 O73 2.240 . S
Cd72 O80 2.223 . S
Cd72 O82 2.297 . S
Cd72 O83 2.439 . S
O73 Cd72 2.240 . S
O73 C78 1.279 . S
O74 Cd71 2.297 . S
O74 C76 1.247 . S
O75 Cd71 2.439 . S
O75 C76 1.208 . S
C76 O74 1.247 . S
C76 O75 1.208 . S
C77 O82 1.247 . S
C77 O83 1.208 . S
C78 O70 1.315 . S
C78 O73 1.279 . S
C79 O80 1.315 . S
C79 O81 1.279 . S
O80 Cd72 2.223 . S
O80 C79 1.315 . S
O81 Cd71 2.240 . S
O81 C79 1.279 . S
O82 Cd72 2.297 . S
O82 C77 1.247 . S
O83 Cd72 2.439 . S
O83 C77 1.208 . S
O84 Cd85 2.223 . S
O84 C92 1.315 . S
Cd85 O84 2.223 . S
Cd85 O88 2.297 . S
Cd85 O89 2.439 . S
Cd85 O95 2.240 . S
Cd86 O87 2.240 . S
Cd86 O94 2.223 . S
Cd86 O96 2.297 . S
Cd86 O97 2.439 . S
O87 Cd86 2.240 . S
O87 C92 1.279 . S
O88 Cd85 2.297 . S
O88 C90 1.247 . S
O89 Cd85 2.439 . S
O89 C90 1.208 . S
C90 O88 1.247 . S
C90 O89 1.208 . S
C91 O96 1.247 . S
C91 O97 1.208 . S
C92 O84 1.315 . S
C92 O87 1.279 . S
C93 O94 1.315 . S
C93 O95 1.279 . S
O94 Cd86 2.223 . S
O94 C93 1.315 . S
O95 Cd85 2.240 . S
O95 C93 1.279 . S
O96 Cd86 2.297 . S
O96 C91 1.247 . S
O97 Cd86 2.439 . S
O97 C91 1.208 . S
O98 Cd99 2.223 . S
O98 C106 1.315 . S
Cd99 O98 2.223 . S
Cd99 O102 2.297 . S
Cd99 O103 2.439 . S
Cd99 O109 2.240 . S
Cd100 O101 2.240 . S
Cd100 O108 2.223 . S
Cd100 O110 2.297 . S
Cd100 O111 2.439 . S
O101 Cd100 2.240 . S
O101 C106 1.279 . S
O102 Cd99 2.297 . S
O102 C104 1.247 . S
O103 Cd99 2.439 . S
O103 C104 1.208 . S
C104 O102 1.247 . S
C104 O103 1.208 . S
C105 O110 1.247 . S
C105 O111 1.208 . S
C106 O98 1.315 . S
C106 O101 1.279 . S
C107 O108 1.315 . S
C107 O109 1.279 . S
O108 Cd100 2.223 . S
O108 C107 1.315 . S
O109 Cd99 2.240 . S
O109 C107 1.279 . S
O110 Cd100 2.297 . S
O110 C105 1.247 . S
O111 Cd100 2.439 . S
O111 C105 1.208 . S
O112 Cd113 2.223 . S
O112 C120 1.315 . S
Cd113 O112 2.223 . S
Cd113 O116 2.297 . S
Cd113 O117 2.439 . S
Cd113 O123 2.240 . S
Cd114 O115 2.240 . S
Cd114 O122 2.223 . S
Cd114 O124 2.297 . S
Cd114 O125 2.439 . S
O115 Cd114 2.240 . S
O115 C120 1.279 . S
O116 Cd113 2.297 . S
O116 C118 1.247 . S
O117 Cd113 2.439 . S
O117 C118 1.208 . S
C118 O116 1.247 . S
C118 O117 1.208 . S
C119 O124 1.247 . S
C119 O125 1.208 . S
C120 O112 1.315 . S
C120 O115 1.279 . S
C121 O122 1.315 . S
C121 O123 1.279 . S
O122 Cd114 2.223 . S
O122 C121 1.315 . S
O123 Cd113 2.240 . S
O123 C121 1.279 . S
O124 Cd114 2.297 . S
O124 C119 1.247 . S
O125 Cd114 2.439 . S
O125 C119 1.208 . S
H126 C132 0.930 1_556 S
H127 C135 0.930 . S
H128 C136 0.930 . S
H129 C137 0.930 . S
H130 C140 0.930 . S
H131 C141 0.930 . S
C132 H126 0.930 1_554 S
C132 C133 1.355 . S
C132 C134 1.415 . S
C133 C132 1.355 . S
C133 C135 1.419 . S
C134 C132 1.415 . S
C134 C139 1.425 . S
C134 C141 1.409 1_554 S
C135 H127 0.930 . S
C135 C133 1.419 . S
C135 C136 1.362 . S
C136 H128 0.930 . S
C136 C135 1.362 . S
C136 C139 1.409 . S
C137 H129 0.930 . S
C137 C138 1.355 . S
C137 C139 1.415 . S
C138 C137 1.355 . S
C138 C140 1.419 1_554 S
C139 C134 1.425 . S
C139 C136 1.409 . S
C139 C137 1.415 . S
C140 H130 0.930 . S
C140 C138 1.419 1_556 S
C140 C141 1.362 . S
C141 H131 0.930 . S
C141 C134 1.409 1_556 S
C141 C140 1.362 . S
H142 C148 0.930 . S
H143 C151 0.930 . S
H144 C152 0.930 . S
H145 C153 0.930 . S
H146 C156 0.930 . S
H147 C157 0.930 . S
C148 H142 0.930 . S
C148 C149 1.355 1_556 S
C148 C150 1.408 1_566 S
C149 C148 1.355 1_554 S
C149 C151 1.419 . S
C150 C148 1.408 1_544 S
C150 C155 1.448 . S
C150 C157 1.394 1_554 S
C151 H143 0.930 . S
C151 C149 1.419 . S
C151 C152 1.362 . S
C152 H144 0.930 . S
C152 C151 1.362 . S
C152 C155 1.409 1_565 S
C153 H145 0.930 . S
C153 C154 1.355 . S
C153 C155 1.415 . S
C154 C153 1.355 . S
C154 C156 1.419 1_554 S
C155 C150 1.448 . S
C155 C152 1.409 1_545 S
C155 C153 1.415 . S
C156 H146 0.930 . S
C156 C154 1.419 1_556 S
C156 C157 1.362 . S
C157 H147 0.930 . S
C157 C150 1.394 1_556 S
C157 C156 1.362 . S
H158 C164 0.930 . S
H159 C167 0.930 . S
H160 C168 0.930 1_556 S
H161 C169 0.930 1_556 S
H162 C172 0.930 . S
H163 C173 0.930 . S
C164 H158 0.930 . S
C164 C165 1.355 . S
C164 C166 1.415 1_655 S
C165 C164 1.355 . S
C165 C167 1.419 . S
C166 C164 1.415 1_455 S
C166 C171 1.425 . S
C166 C173 1.409 . S
C167 H159 0.930 . S
C167 C165 1.419 . S
C167 C168 1.362 . S
C168 H160 0.930 1_554 S
C168 C167 1.362 . S
C168 C171 1.409 1_655 S
C169 H161 0.930 1_554 S
C169 C170 1.355 . S
C169 C171 1.415 . S
C170 C169 1.355 . S
C170 C172 1.419 . S
C171 C166 1.425 . S
C171 C168 1.409 1_455 S
C171 C169 1.415 . S
C172 H162 0.930 . S
C172 C170 1.419 . S
C172 C173 1.362 . S
C173 H163 0.930 . S
C173 C166 1.409 . S
C173 C172 1.362 . S
H174 C180 0.930 . S
H175 C183 0.930 . S
H176 C184 0.930 . S
H177 C185 0.930 . S
H178 C188 0.930 . S
H179 C189 0.930 . S
C180 H174 0.930 . S
C180 C181 1.355 . S
C180 C182 1.415 . S
C181 C180 1.355 . S
C181 C183 1.419 . S
C182 C180 1.415 . S
C182 C187 1.425 . S
C182 C189 1.409 . S
C183 H175 0.930 . S
C183 C181 1.419 . S
C183 C184 1.362 . S
C184 H176 0.930 . S
C184 C183 1.362 . S
C184 C187 1.409 . S
C185 H177 0.930 . S
C185 C186 1.355 . S
C185 C187 1.415 . S
C186 C185 1.355 . S
C186 C188 1.419 . S
C187 C182 1.425 . S
C187 C184 1.409 . S
C187 C185 1.415 . S
C188 H178 0.930 . S
C188 C186 1.419 . S
C188 C189 1.362 . S
C189 H179 0.930 . S
C189 C182 1.409 . S
C189 C188 1.362 . S
H190 C196 0.930 . S
H191 C199 0.930 . S
H192 C200 0.930 . S
H193 C201 0.930 . S
H194 C204 0.930 . S
H195 C205 0.930 . S
C196 H190 0.930 . S
C196 C197 1.355 . S
C196 C198 1.415 . S
C197 C196 1.355 . S
C197 C199 1.419 . S
C198 C196 1.415 . S
C198 C203 1.425 . S
C198 C205 1.409 . S
C199 H191 0.930 . S
C199 C197 1.419 . S
C199 C200 1.362 . S
C200 H192 0.930 . S
C200 C199 1.362 . S
C200 C203 1.409 . S
C201 H193 0.930 . S
C201 C202 1.355 . S
C201 C203 1.415 . S
C202 C201 1.355 . S
C202 C204 1.419 . S
C203 C198 1.425 . S
C203 C200 1.409 . S
C203 C201 1.415 . S
C204 H194 0.930 . S
C204 C202 1.419 . S
C204 C205 1.362 . S
C205 H195 0.930 . S
C205 C198 1.409 . S
C205 C204 1.362 . S
H206 C212 0.930 . S
H207 C215 0.930 . S
H208 C216 0.930 . S
H209 C217 0.930 . S
H210 C220 0.930 . S
H211 C221 0.930 . S
C212 H206 0.930 . S
C212 C213 1.355 . S
C212 C214 1.415 . S
C213 C212 1.355 . S
C213 C215 1.419 . S
C214 C212 1.415 . S
C214 C219 1.425 . S
C214 C221 1.409 . S
C215 H207 0.930 . S
C215 C213 1.419 . S
C215 C216 1.362 . S
C216 H208 0.930 . S
C216 C215 1.362 . S
C216 C219 1.409 . S
C217 H209 0.930 . S
C217 C218 1.355 . S
C217 C219 1.415 . S
C218 C217 1.355 . S
C218 C220 1.419 . S
C219 C214 1.425 . S
C219 C216 1.409 . S
C219 C217 1.415 . S
C220 H210 0.930 . S
C220 C218 1.419 . S
C220 C221 1.362 . S
C221 H211 0.930 . S
C221 C214 1.409 . S
C221 C220 1.362 . S
H222 C228 0.930 . S
H223 C231 0.930 . S
H224 C232 0.930 . S
H225 C233 0.930 . S
H226 C236 0.930 . S
H227 C237 0.930 . S
C228 H222 0.930 . S
C228 C229 1.355 . S
C228 C230 1.415 . S
C229 C228 1.355 . S
C229 C231 1.419 . S
C230 C228 1.415 . S
C230 C235 1.425 . S
C230 C237 1.409 . S
C231 H223 0.930 . S
C231 C229 1.419 . S
C231 C232 1.362 . S
C232 H224 0.930 . S
C232 C231 1.362 . S
C232 C235 1.409 . S
C233 H225 0.930 . S
C233 C234 1.355 . S
C233 C235 1.415 . S
C234 C233 1.355 . S
C234 C236 1.419 . S
C235 C230 1.425 . S
C235 C232 1.409 . S
C235 C233 1.415 . S
C236 H226 0.930 . S
C236 C234 1.419 . S
C236 C237 1.362 . S
C237 H227 0.930 . S
C237 C230 1.409 . S
C237 C236 1.362 . S
H238 C244 0.930 . S
H239 C247 0.930 . S
H240 C248 0.930 . S
H241 C249 0.930 . S
H242 C252 0.930 . S
H243 C253 0.930 . S
C244 H238 0.930 . S
C244 C245 1.355 . S
C244 C246 1.415 . S
C245 C244 1.355 . S
C245 C247 1.419 . S
C246 C244 1.415 . S
C246 C251 1.425 . S
C246 C253 1.409 . S
C247 H239 0.930 . S
C247 C245 1.419 . S
C247 C248 1.362 . S
C248 H240 0.930 . S
C248 C247 1.362 . S
C248 C251 1.409 . S
C249 H241 0.930 . S
C249 C250 1.355 . S
C249 C251 1.415 . S
C250 C249 1.355 . S
C250 C252 1.419 . S
C251 C246 1.425 . S
C251 C248 1.409 . S
C251 C249 1.415 . S
C252 H242 0.930 . S
C252 C250 1.419 . S
C252 C253 1.362 . S
C253 H243 0.930 . S
C253 C246 1.409 . S
C253 C252 1.362 . S
H254 C260 0.930 . S
H255 C263 0.930 . S
H256 C264 0.930 . S
H257 C265 0.930 . S
H258 C268 0.930 . S
H259 C269 0.930 . S
C260 H254 0.930 . S
C260 C261 1.355 . S
C260 C262 1.415 . S
C261 C260 1.355 . S
C261 C263 1.419 . S
C262 C260 1.415 . S
C262 C267 1.425 . S
C262 C269 1.409 . S
C263 H255 0.930 . S
C263 C261 1.419 . S
C263 C264 1.362 . S
C264 H256 0.930 . S
C264 C263 1.362 . S
C264 C267 1.409 . S
C265 H257 0.930 . S
C265 C266 1.355 . S
C265 C267 1.415 . S
C266 C265 1.355 . S
C266 C268 1.419 . S
C267 C262 1.425 . S
C267 C264 1.409 . S
C267 C265 1.415 . S
C268 H258 0.930 . S
C268 C266 1.419 . S
C268 C269 1.362 . S
C269 H259 0.930 . S
C269 C262 1.409 . S
C269 C268 1.362 . S
H270 C276 0.930 . S
H271 C279 0.930 . S
H272 C280 0.930 . S
H273 C281 0.930 . S
H274 C284 0.930 . S
H275 C285 0.930 . S
C276 H270 0.930 . S
C276 C277 1.355 . S
C276 C278 1.415 . S
C277 C276 1.355 . S
C277 C279 1.419 . S
C278 C276 1.415 . S
C278 C283 1.425 . S
C278 C285 1.409 . S
C279 H271 0.930 . S
C279 C277 1.419 . S
C279 C280 1.362 . S
C280 H272 0.930 . S
C280 C279 1.362 . S
C280 C283 1.409 . S
C281 H273 0.930 . S
C281 C282 1.355 . S
C281 C283 1.415 . S
C282 C281 1.355 . S
C282 C284 1.419 . S
C283 C278 1.425 . S
C283 C280 1.409 . S
C283 C281 1.415 . S
C284 H274 0.930 . S
C284 C282 1.419 . S
C284 C285 1.362 . S
C285 H275 0.930 . S
C285 C278 1.409 . S
C285 C284 1.362 . S
H286 C292 0.930 . S
H287 C295 0.930 . S
H288 C296 0.930 . S
H289 C297 0.930 . S
H290 C300 0.930 . S
H291 C301 0.930 . S
C292 H286 0.930 . S
C292 C293 1.355 . S
C292 C294 1.415 . S
C293 C292 1.355 . S
C293 C295 1.419 . S
C294 C292 1.415 . S
C294 C299 1.425 . S
C294 C301 1.409 . S
C295 H287 0.930 . S
C295 C293 1.419 . S
C295 C296 1.362 . S
C296 H288 0.930 . S
C296 C295 1.362 . S
C296 C299 1.409 . S
C297 H289 0.930 . S
C297 C298 1.355 . S
C297 C299 1.415 . S
C298 C297 1.355 . S
C298 C300 1.419 . S
C299 C294 1.425 . S
C299 C296 1.409 . S
C299 C297 1.415 . S
C300 H290 0.930 . S
C300 C298 1.419 . S
C300 C301 1.362 . S
C301 H291 0.930 . S
C301 C294 1.409 . S
C301 C300 1.362 . S
H302 C308 0.930 . S
H303 C311 0.930 . S
H304 C312 0.930 . S
H305 C313 0.930 . S
H306 C316 0.930 1_545 S
H307 C317 0.930 1_545 S
C308 H302 0.930 . S
C308 C309 1.355 . S
C308 C310 1.415 . S
C309 C308 1.355 . S
C309 C311 1.419 . S
C310 C308 1.415 . S
C310 C315 1.425 . S
C310 C317 1.409 . S
C311 H303 0.930 . S
C311 C309 1.419 . S
C311 C312 1.362 . S
C312 H304 0.930 . S
C312 C311 1.362 . S
C312 C315 1.409 . S
C313 H305 0.930 . S
C313 C314 1.355 . S
C313 C315 1.415 . S
C314 C313 1.355 . S
C314 C316 1.419 . S
C315 C310 1.425 . S
C315 C312 1.409 . S
C315 C313 1.415 . S
C316 H306 0.930 1_565 S
C316 C314 1.419 . S
C316 C317 1.362 . S
C317 H307 0.930 1_565 S
C317 C310 1.409 . S
C317 C316 1.362 . S
H318 C324 0.930 . S
H319 C327 0.930 . S
H320 C328 0.930 . S
H321 C329 0.930 . S
H322 C332 0.930 . S
H323 C333 0.930 . S
C324 H318 0.930 . S
C324 C325 1.355 . S
C324 C326 1.415 . S
C325 C324 1.355 . S
C325 C327 1.419 . S
C326 C324 1.415 . S
C326 C331 1.425 . S
C326 C333 1.409 . S
C327 H319 0.930 . S
C327 C325 1.419 . S
C327 C328 1.362 . S
C328 H320 0.930 . S
C328 C327 1.362 . S
C328 C331 1.409 . S
C329 H321 0.930 . S
C329 C330 1.355 . S
C329 C331 1.415 . S
C330 C329 1.355 . S
C330 C332 1.419 . S
C331 C326 1.425 . S
C331 C328 1.409 . S
C331 C329 1.415 . S
C332 H322 0.930 . S
C332 C330 1.419 . S
C332 C333 1.362 . S
C333 H323 0.930 . S
C333 C326 1.409 . S
C333 C332 1.362 . S
H334 C340 0.930 . S
H335 C343 0.930 . S
H336 C344 0.930 . S
H337 C345 0.930 . S
H338 C348 0.930 . S
H339 C349 0.930 . S
C340 H334 0.930 . S
C340 C341 1.355 . S
C340 C342 1.415 . S
C341 C340 1.355 . S
C341 C343 1.419 . S
C342 C340 1.415 . S
C342 C347 1.425 . S
C342 C349 1.409 . S
C343 H335 0.930 . S
C343 C341 1.419 . S
C343 C344 1.362 . S
C344 H336 0.930 . S
C344 C343 1.362 . S
C344 C347 1.409 . S
C345 H337 0.930 . S
C345 C346 1.355 . S
C345 C347 1.415 . S
C346 C345 1.355 . S
C346 C348 1.419 . S
C347 C342 1.425 . S
C347 C344 1.409 . S
C347 C345 1.415 . S
C348 H338 0.930 . S
C348 C346 1.419 . S
C348 C349 1.362 . S
C349 H339 0.930 . S
C349 C342 1.409 . S
C349 C348 1.362 . S
H350 C356 0.930 . S
H351 C359 0.930 . S
H352 C360 0.930 . S
H353 C361 0.930 . S
H354 C364 0.930 . S
H355 C365 0.930 . S
C356 H350 0.930 . S
C356 C357 1.355 . S
C356 C358 1.415 . S
C357 C356 1.355 . S
C357 C359 1.419 . S
C358 C356 1.415 . S
C358 C363 1.425 . S
C358 C365 1.409 . S
C359 H351 0.930 . S
C359 C357 1.419 . S
C359 C360 1.362 . S
C360 H352 0.930 . S
C360 C359 1.362 . S
C360 C363 1.409 . S
C361 H353 0.930 . S
C361 C362 1.355 . S
C361 C363 1.415 . S
C362 C361 1.355 . S
C362 C364 1.419 . S
C363 C358 1.425 . S
C363 C360 1.409 . S
C363 C361 1.415 . S
C364 H354 0.930 . S
C364 C362 1.419 . S
C364 C365 1.362 . S
C365 H355 0.930 . S
C365 C358 1.409 . S
C365 C364 1.362 . S
H366 C372 0.930 . S
H367 C375 0.930 . S
H368 C376 0.930 . S
H369 C377 0.930 . S
H370 C380 0.930 . S
H371 C381 0.930 . S
C372 H366 0.930 . S
C372 C373 1.355 . S
C372 C374 1.415 . S
C373 C372 1.355 . S
C373 C375 1.419 . S
C374 C372 1.415 . S
C374 C379 1.425 1_455 S
C374 C381 1.409 . S
C375 H367 0.930 . S
C375 C373 1.419 . S
C375 C376 1.362 1_455 S
C376 H368 0.930 . S
C376 C375 1.362 1_655 S
C376 C379 1.409 . S
C377 H369 0.930 . S
C377 C378 1.355 . S
C377 C379 1.415 . S
C378 C377 1.355 . S
C378 C380 1.419 1_655 S
C379 C374 1.425 1_655 S
C379 C376 1.409 . S
C379 C377 1.415 . S
C380 H370 0.930 . S
C380 C378 1.419 1_455 S
C380 C381 1.362 . S
C381 H371 0.930 . S
C381 C374 1.409 . S
C381 C380 1.362 . S
H382 C388 0.930 . S
H383 C391 0.930 . S
H384 C392 0.930 . S
H385 C393 0.930 . S
H386 C396 0.930 . S
H387 C397 0.930 . S
C388 H382 0.930 . S
C388 C389 1.355 . S
C388 C390 1.415 . S
C389 C388 1.355 . S
C389 C391 1.419 . S
C390 C388 1.415 . S
C390 C395 1.425 . S
C390 C397 1.409 . S
C391 H383 0.930 . S
C391 C389 1.419 . S
C391 C392 1.362 . S
C392 H384 0.930 . S
C392 C391 1.362 . S
C392 C395 1.409 . S
C393 H385 0.930 . S
C393 C394 1.355 . S
C393 C395 1.415 . S
C394 C393 1.355 . S
C394 C396 1.419 . S
C395 C390 1.425 . S
C395 C392 1.409 . S
C395 C393 1.415 . S
C396 H386 0.930 . S
C396 C394 1.419 . S
C396 C397 1.362 . S
C397 H387 0.930 . S
C397 C390 1.409 . S
C397 C396 1.362 . S
H398 C404 0.930 . S
H399 C407 0.930 . S
H400 C408 0.930 . S
H401 C409 0.930 . S
H402 C412 0.930 . S
H403 C413 0.930 . S
C404 H398 0.930 . S
C404 C405 1.355 1_545 S
C404 C406 1.415 . S
C405 C404 1.355 1_565 S
C405 C407 1.419 . S
C406 C404 1.415 . S
C406 C411 1.425 . S
C406 C413 1.409 . S
C407 H399 0.930 . S
C407 C405 1.419 . S
C407 C408 1.362 . S
C408 H400 0.930 . S
C408 C407 1.362 . S
C408 C411 1.409 1_565 S
C409 H401 0.930 . S
C409 C410 1.355 . S
C409 C411 1.415 . S
C410 C409 1.355 . S
C410 C412 1.419 . S
C411 C406 1.425 . S
C411 C408 1.409 1_545 S
C411 C409 1.415 . S
C412 H402 0.930 . S
C412 C410 1.419 . S
C412 C413 1.362 . S
C413 H403 0.930 . S
C413 C406 1.409 . S
C413 C412 1.362 . S
C133 C37 1.288 . S
C138 C8 1.251 . S
C149 C23 1.272 . S
C154 C9 1.296 . S
C165 C22 1.255 . S
C170 C36 1.293 . S
C181 C78 1.286 . S
C186 C51 1.289 . S
C197 C65 1.255 . S
C202 C50 1.293 . S
C213 C64 1.249 . S
C218 C79 1.280 . S
C229 C92 1.296 . S
C234 C121 1.261 . S
C245 C93 1.254 . S
C250 C107 1.264 . S
C261 C106 1.296 . S
C266 C120 1.274 . S
C277 C6 1.457 . S
C282 C104 1.461 . S
C293 C21 1.500 . S
C298 C119 1.498 . S
C309 C91 1.454 . S
C314 C34 1.451 . S
C325 C63 1.482 . S
C330 C35 1.477 . S
C341 C7 1.440 . S
C346 C77 1.441 . S
C357 C49 1.495 . S
C362 C20 1.492 . S
C373 C105 1.499 . S
C378 C76 1.496 . S
C389 C48 1.442 . S
C394 C118 1.445 . S
C405 C90 1.443 . S
C410 C62 1.445 . S
