# Generated by pormake.
# Topology wgs, (5)-cn, num edge types: 1
# Building blocks:
#     Node 0, Type 0, BuildingBlock: BEQFEK_clean_sbu_0, # of connection points: 5
#     Node 1, Type 0, BuildingBlock: BEQFEK_clean_sbu_0, # of connection points: 5
#     Node 2, Type 0, BuildingBlock: BEQFEK_clean_sbu_0, # of connection points: 5
#     Node 3, Type 0, BuildingBlock: BEQFEK_clean_sbu_0, # of connection points: 5
#     Node 4, Type 0, BuildingBlock: BEQFEK_clean_sbu_0, # of connection points: 5
#     Node 5, Type 0, BuildingBlock: BEQFEK_clean_sbu_0, # of connection points: 5
#     Node 6, Type 0, BuildingBlock: BEQFEK_clean_sbu_0, # of connection points: 5
#     Node 7, Type 0, BuildingBlock: BEQFEK_clean_sbu_0, # of connection points: 5
#     Node 8, Type 0, BuildingBlock: BEQFEK_clean_sbu_0, # of connection points: 5
#     Node 9, Type 0, BuildingBlock: BEQFEK_clean_sbu_0, # of connection points: 5
#     Node 10, Type 0, BuildingBlock: BEQFEK_clean_sbu_0, # of connection points: 5
#     Node 11, Type 0, BuildingBlock: BEQFEK_clean_sbu_0, # of connection points: 5
#     Node 12, Type 0, BuildingBlock: BEQFEK_clean_sbu_0, # of connection points: 5
#     Node 13, Type 0, BuildingBlock: BEQFEK_clean_sbu_0, # of connection points: 5
#     Node 14, Type 0, BuildingBlock: BEQFEK_clean_sbu_0, # of connection points: 5
#     Node 15, Type 0, BuildingBlock: BEQFEK_clean_sbu_0, # of connection points: 5
#     Node 16, Type 0, BuildingBlock: BEQFEK_clean_sbu_0, # of connection points: 5
#     Node 17, Type 0, BuildingBlock: BEQFEK_clean_sbu_0, # of connection points: 5
#     Node 18, Type 0, BuildingBlock: BEQFEK_clean_sbu_0, # of connection points: 5
#     Node 19, Type 0, BuildingBlock: BEQFEK_clean_sbu_0, # of connection points: 5
#     Node 20, Type 0, BuildingBlock: BEQFEK_clean_sbu_0, # of connection points: 5
#     Node 21, Type 0, BuildingBlock: BEQFEK_clean_sbu_0, # of connection points: 5
#     Node 22, Type 0, BuildingBlock: BEQFEK_clean_sbu_0, # of connection points: 5
#     Node 23, Type 0, BuildingBlock: BEQFEK_clean_sbu_0, # of connection points: 5
#     Node 24, Type 0, BuildingBlock: BEQFEK_clean_sbu_0, # of connection points: 5
#     Node 25, Type 0, BuildingBlock: BEQFEK_clean_sbu_0, # of connection points: 5
#     Node 26, Type 0, BuildingBlock: BEQFEK_clean_sbu_0, # of connection points: 5
#     Node 27, Type 0, BuildingBlock: BEQFEK_clean_sbu_0, # of connection points: 5
#     Node 28, Type 0, BuildingBlock: BEQFEK_clean_sbu_0, # of connection points: 5
#     Node 29, Type 0, BuildingBlock: BEQFEK_clean_sbu_0, # of connection points: 5
#     Node 30, Type 0, BuildingBlock: BEQFEK_clean_sbu_0, # of connection points: 5
#     Node 31, Type 0, BuildingBlock: BEQFEK_clean_sbu_0, # of connection points: 5
#     Edge 32, Type (0, 0), BuildingBlock: UVAHIK_clean_linker_0, # of connection points: 2
#     Edge 33, Type (0, 0), BuildingBlock: UVAHIK_clean_linker_0, # of connection points: 2
#     Edge 34, Type (0, 0), BuildingBlock: UVAHIK_clean_linker_0, # of connection points: 2
#     Edge 35, Type (0, 0), BuildingBlock: UVAHIK_clean_linker_0, # of connection points: 2
#     Edge 36, Type (0, 0), BuildingBlock: UVAHIK_clean_linker_0, # of connection points: 2
#     Edge 37, Type (0, 0), BuildingBlock: UVAHIK_clean_linker_0, # of connection points: 2
#     Edge 38, Type (0, 0), BuildingBlock: UVAHIK_clean_linker_0, # of connection points: 2
#     Edge 39, Type (0, 0), BuildingBlock: UVAHIK_clean_linker_0, # of connection points: 2
#     Edge 40, Type (0, 0), BuildingBlock: UVAHIK_clean_linker_0, # of connection points: 2
#     Edge 41, Type (0, 0), BuildingBlock: UVAHIK_clean_linker_0, # of connection points: 2
#     Edge 42, Type (0, 0), BuildingBlock: UVAHIK_clean_linker_0, # of connection points: 2
#     Edge 43, Type (0, 0), BuildingBlock: UVAHIK_clean_linker_0, # of connection points: 2
#     Edge 44, Type (0, 0), BuildingBlock: UVAHIK_clean_linker_0, # of connection points: 2
#     Edge 45, Type (0, 0), BuildingBlock: UVAHIK_clean_linker_0, # of connection points: 2
#     Edge 46, Type (0, 0), BuildingBlock: UVAHIK_clean_linker_0, # of connection points: 2
#     Edge 47, Type (0, 0), BuildingBlock: UVAHIK_clean_linker_0, # of connection points: 2
#     Edge 48, Type (0, 0), BuildingBlock: UVAHIK_clean_linker_0, # of connection points: 2
#     Edge 49, Type (0, 0), BuildingBlock: UVAHIK_clean_linker_0, # of connection points: 2
#     Edge 50, Type (0, 0), BuildingBlock: UVAHIK_clean_linker_0, # of connection points: 2
#     Edge 51, Type (0, 0), BuildingBlock: UVAHIK_clean_linker_0, # of connection points: 2
#     Edge 52, Type (0, 0), BuildingBlock: UVAHIK_clean_linker_0, # of connection points: 2
#     Edge 53, Type (0, 0), BuildingBlock: UVAHIK_clean_linker_0, # of connection points: 2
#     Edge 54, Type (0, 0), BuildingBlock: UVAHIK_clean_linker_0, # of connection points: 2
#     Edge 55, Type (0, 0), BuildingBlock: UVAHIK_clean_linker_0, # of connection points: 2
#     Edge 56, Type (0, 0), BuildingBlock: UVAHIK_clean_linker_0, # of connection points: 2
#     Edge 57, Type (0, 0), BuildingBlock: UVAHIK_clean_linker_0, # of connection points: 2
#     Edge 58, Type (0, 0), BuildingBlock: UVAHIK_clean_linker_0, # of connection points: 2
#     Edge 59, Type (0, 0), BuildingBlock: UVAHIK_clean_linker_0, # of connection points: 2
#     Edge 60, Type (0, 0), BuildingBlock: UVAHIK_clean_linker_0, # of connection points: 2
#     Edge 61, Type (0, 0), BuildingBlock: UVAHIK_clean_linker_0, # of connection points: 2
#     Edge 62, Type (0, 0), BuildingBlock: UVAHIK_clean_linker_0, # of connection points: 2
#     Edge 63, Type (0, 0), BuildingBlock: UVAHIK_clean_linker_0, # of connection points: 2
#     Edge 64, Type (0, 0), BuildingBlock: UVAHIK_clean_linker_0, # of connection points: 2
#     Edge 65, Type (0, 0), BuildingBlock: UVAHIK_clean_linker_0, # of connection points: 2
#     Edge 66, Type (0, 0), BuildingBlock: UVAHIK_clean_linker_0, # of connection points: 2
#     Edge 67, Type (0, 0), BuildingBlock: UVAHIK_clean_linker_0, # of connection points: 2
#     Edge 68, Type (0, 0), BuildingBlock: UVAHIK_clean_linker_0, # of connection points: 2
#     Edge 69, Type (0, 0), BuildingBlock: UVAHIK_clean_linker_0, # of connection points: 2
#     Edge 70, Type (0, 0), BuildingBlock: UVAHIK_clean_linker_0, # of connection points: 2
#     Edge 71, Type (0, 0), BuildingBlock: UVAHIK_clean_linker_0, # of connection points: 2
#     Edge 72, Type (0, 0), BuildingBlock: UVAHIK_clean_linker_0, # of connection points: 2
#     Edge 73, Type (0, 0), BuildingBlock: UVAHIK_clean_linker_0, # of connection points: 2
#     Edge 74, Type (0, 0), BuildingBlock: UVAHIK_clean_linker_0, # of connection points: 2
#     Edge 75, Type (0, 0), BuildingBlock: UVAHIK_clean_linker_0, # of connection points: 2
#     Edge 76, Type (0, 0), BuildingBlock: UVAHIK_clean_linker_0, # of connection points: 2
#     Edge 77, Type (0, 0), BuildingBlock: UVAHIK_clean_linker_0, # of connection points: 2
#     Edge 78, Type (0, 0), BuildingBlock: UVAHIK_clean_linker_0, # of connection points: 2
#     Edge 79, Type (0, 0), BuildingBlock: UVAHIK_clean_linker_0, # of connection points: 2
#     Edge 80, Type (0, 0), BuildingBlock: UVAHIK_clean_linker_0, # of connection points: 2
#     Edge 81, Type (0, 0), BuildingBlock: UVAHIK_clean_linker_0, # of connection points: 2
#     Edge 82, Type (0, 0), BuildingBlock: UVAHIK_clean_linker_0, # of connection points: 2
#     Edge 83, Type (0, 0), BuildingBlock: UVAHIK_clean_linker_0, # of connection points: 2
#     Edge 84, Type (0, 0), BuildingBlock: UVAHIK_clean_linker_0, # of connection points: 2
#     Edge 85, Type (0, 0), BuildingBlock: UVAHIK_clean_linker_0, # of connection points: 2
#     Edge 86, Type (0, 0), BuildingBlock: UVAHIK_clean_linker_0, # of connection points: 2
#     Edge 87, Type (0, 0), BuildingBlock: UVAHIK_clean_linker_0, # of connection points: 2
#     Edge 88, Type (0, 0), BuildingBlock: UVAHIK_clean_linker_0, # of connection points: 2
#     Edge 89, Type (0, 0), BuildingBlock: UVAHIK_clean_linker_0, # of connection points: 2
#     Edge 90, Type (0, 0), BuildingBlock: UVAHIK_clean_linker_0, # of connection points: 2
#     Edge 91, Type (0, 0), BuildingBlock: UVAHIK_clean_linker_0, # of connection points: 2
#     Edge 92, Type (0, 0), BuildingBlock: UVAHIK_clean_linker_0, # of connection points: 2
#     Edge 93, Type (0, 0), BuildingBlock: UVAHIK_clean_linker_0, # of connection points: 2
#     Edge 94, Type (0, 0), BuildingBlock: UVAHIK_clean_linker_0, # of connection points: 2
#     Edge 95, Type (0, 0), BuildingBlock: UVAHIK_clean_linker_0, # of connection points: 2
#     Edge 96, Type (0, 0), BuildingBlock: UVAHIK_clean_linker_0, # of connection points: 2
#     Edge 97, Type (0, 0), BuildingBlock: UVAHIK_clean_linker_0, # of connection points: 2
#     Edge 98, Type (0, 0), BuildingBlock: UVAHIK_clean_linker_0, # of connection points: 2
#     Edge 99, Type (0, 0), BuildingBlock: UVAHIK_clean_linker_0, # of connection points: 2
#     Edge 100, Type (0, 0), BuildingBlock: UVAHIK_clean_linker_0, # of connection points: 2
#     Edge 101, Type (0, 0), BuildingBlock: UVAHIK_clean_linker_0, # of connection points: 2
#     Edge 102, Type (0, 0), BuildingBlock: UVAHIK_clean_linker_0, # of connection points: 2
#     Edge 103, Type (0, 0), BuildingBlock: UVAHIK_clean_linker_0, # of connection points: 2
#     Edge 104, Type (0, 0), BuildingBlock: UVAHIK_clean_linker_0, # of connection points: 2
#     Edge 105, Type (0, 0), BuildingBlock: UVAHIK_clean_linker_0, # of connection points: 2
#     Edge 106, Type (0, 0), BuildingBlock: UVAHIK_clean_linker_0, # of connection points: 2
#     Edge 107, Type (0, 0), BuildingBlock: UVAHIK_clean_linker_0, # of connection points: 2
#     Edge 108, Type (0, 0), BuildingBlock: UVAHIK_clean_linker_0, # of connection points: 2
#     Edge 109, Type (0, 0), BuildingBlock: UVAHIK_clean_linker_0, # of connection points: 2
#     Edge 110, Type (0, 0), BuildingBlock: UVAHIK_clean_linker_0, # of connection points: 2
#     Edge 111, Type (0, 0), BuildingBlock: UVAHIK_clean_linker_0, # of connection points: 2
# Relax obj value: 0.119
# Max RMSD: 0.165
# Mean RMSD: 0.165
data_MOF--net-wgs--node1-BEQFEK_clean_sbu_0--edge1-UVAHIK_clean_linker_0
_symmetry_space_group_name_H-M    P1
_symmetry_Int_Tables_number       1
_symmetry_cell_setting            triclinic
loop_
_symmetry_equiv_pos_as_xyz
'x, y, z'
_cell_length_a     36.539393
_cell_length_b     36.539754
_cell_length_c     189.56297
_cell_angle_alpha  89.992032
_cell_angle_beta   90.012836
_cell_angle_gamma 89.991483
loop_
_atom_site_label
_atom_site_type_symbol
_atom_site_fract_x
_atom_site_fract_y
_atom_site_fract_z
_atom_type_partial_charge
Co0 Co 0.33172 0.05668 0.32167 0.0
Co1 Co 0.33216 0.0532 0.30516 0.0
C2 C 0.38778 0.09688 0.31294 0.0
O3 O 0.37421 0.08716 0.31885 0.0
O4 O 0.37446 0.08555 0.30711 0.0
C5 C 0.35778 0.05171 0.3361 0.0
O6 O 0.39083 0.05029 0.33339 0.0
C7 C 0.35391 0.04077 0.29028 0.0
C8 C 0.30098 0.02257 0.28585 0.0
C9 C 0.33742 0.02813 0.28414 0.0
N10 N 0.32829 0.04222 0.29538 0.0
N11 N 0.29669 0.03177 0.29265 0.0
C12 C 0.39373 0.04788 0.2915 0.0
H13 H 0.39968 0.077 0.29029 0.0
H14 H 0.40093 0.0427 0.2971 0.0
H15 H 0.41083 0.03041 0.28803 0.0
C16 C 0.33472 0.97602 0.31998 0.0
N17 N 0.33345 0.01023 0.31734 0.0
N18 N 0.33557 0.00881 0.31042 0.0
C19 C 0.33947 0.9736 0.30844 0.0
C20 C 0.33872 0.95151 0.31442 0.0
C21 C 0.33017 0.96718 0.32764 0.0
H22 H 0.31035 0.98634 0.33008 0.0
H23 H 0.3569 0.97046 0.33034 0.0
H24 H 0.32033 0.93874 0.3284 0.0
O25 O 0.28719 0.08347 0.31911 0.0
O26 O 0.28701 0.08143 0.30744 0.0
H27 H 0.32118 0.963 0.29792 0.0
H28 H 0.35807 0.93355 0.30078 0.0
C29 C 0.3469 0.96173 0.30101 0.0
H30 H 0.36711 0.9804 0.29858 0.0
H31 H 0.27237 0.02993 0.29552 0.0
O32 O 0.33022 0.05325 0.33204 0.0
C33 C 0.27275 0.09183 0.31323 0.0
Co34 Co 0.1985 0.09246 0.57205 0.0
Co35 Co 0.20658 0.0784 0.55583 0.0
C36 C 0.16161 0.14061 0.5615 0.0
O37 O 0.16987 0.1324 0.56783 0.0
O38 O 0.17383 0.12212 0.5563 0.0
C39 C 0.17368 0.11318 0.58565 0.0
O40 O 0.14631 0.12678 0.582 0.0
C41 C 0.22539 0.09362 0.54106 0.0
C42 C 0.23333 0.03773 0.53688 0.0
C43 C 0.23455 0.07437 0.53501 0.0
N44 N 0.2191 0.0694 0.54626 0.0
N45 N 0.22362 0.03605 0.54371 0.0
C46 C 0.22498 0.1342 0.54208 0.0
H47 H 0.23147 0.14107 0.54765 0.0
H48 H 0.24487 0.14771 0.53851 0.0
H49 H 0.19718 0.14471 0.54088 0.0
C50 C 0.27891 0.09663 0.5711 0.0
N51 N 0.24581 0.09147 0.56816 0.0
N52 N 0.24966 0.08498 0.56138 0.0
C53 C 0.28565 0.0851 0.5598 0.0
C54 C 0.30542 0.0927 0.5659 0.0
C55 C 0.28455 0.10701 0.57866 0.0
H56 H 0.264 0.12782 0.58022 0.0
H57 H 0.31237 0.11818 0.57958 0.0
H58 H 0.28045 0.0825 0.58202 0.0
O59 O 0.17193 0.04622 0.57044 0.0
O60 O 0.17799 0.03542 0.559 0.0
H61 H 0.28665 0.05102 0.55062 0.0
H62 H 0.33052 0.06988 0.55288 0.0
C63 C 0.30075 0.07561 0.55269 0.0
H64 H 0.29565 0.09863 0.549 0.0
H65 H 0.22056 0.01216 0.54667 0.0
O66 O 0.20017 0.0982 0.58241 0.0
C67 C 0.1656 0.02657 0.56504 0.0
Co68 Co 0.17474 0.94719 0.82124 0.0
Co69 Co 0.18333 0.94755 0.8048 0.0
C70 C 0.12526 0.90306 0.81212 0.0
O71 O 0.13514 0.91415 0.8182 0.0
O72 O 0.14127 0.91412 0.80654 0.0
C73 C 0.14569 0.94759 0.83549 0.0
O74 O 0.11353 0.94184 0.83259 0.0
C75 C 0.16337 0.9599 0.78988 0.0
C76 C 0.21726 0.95276 0.78477 0.0
C77 C 0.18062 0.9591 0.78335 0.0
N78 N 0.18879 0.95418 0.7949 0.0
N79 N 0.22094 0.95027 0.7918 0.0
C80 C 0.12326 0.96348 0.79131 0.0
H81 H 0.10746 0.94622 0.78757 0.0
H82 H 0.11676 0.95577 0.79682 0.0
H83 H 0.11483 0.99234 0.79051 0.0
C84 C 0.1657 0.02676 0.81871 0.0
N85 N 0.17202 0.99247 0.81643 0.0
N86 N 0.1773 0.993 0.80957 0.0
C87 C 0.17569 0.02791 0.80729 0.0
C88 C 0.16791 0.05055 0.813 0.0
C89 C 0.15546 0.03584 0.82616 0.0
H90 H 0.13646 0.01479 0.82822 0.0
H91 H 0.14208 0.06301 0.82653 0.0
H92 H 0.18045 0.03563 0.82948 0.0
O93 O 0.22176 0.92188 0.81955 0.0
O94 O 0.22781 0.92157 0.80795 0.0
H95 H 0.19316 0.06845 0.79967 0.0
H96 H 0.15938 0.0362 0.79658 0.0
C97 C 0.1842 0.03947 0.79989 0.0
H98 H 0.20623 0.02208 0.79768 0.0
H99 H 0.24531 0.945 0.79449 0.0
O100 O 0.17347 0.95265 0.83159 0.0
C101 C 0.23943 0.91296 0.81404 0.0
Co102 Co 0.30533 0.92309 0.07195 0.0
Co103 Co 0.30393 0.93064 0.05552 0.0
C104 C 0.34645 0.87115 0.0627 0.0
O105 O 0.33658 0.88221 0.06879 0.0
O106 O 0.3354 0.88698 0.05709 0.0
C107 C 0.30257 0.89423 0.0863 0.0
O108 O 0.30542 0.86141 0.08353 0.0
C109 C 0.29216 0.91296 0.04049 0.0
C110 C 0.29739 0.96805 0.03577 0.0
C111 C 0.29258 0.9315 0.03412 0.0
N112 N 0.29667 0.9376 0.04569 0.0
N113 N 0.29934 0.97047 0.04283 0.0
C114 C 0.29102 0.87249 0.04161 0.0
H115 H 0.31833 0.8608 0.04039 0.0
H116 H 0.284 0.8661 0.04718 0.0
H117 H 0.2708 0.85967 0.03802 0.0
C118 C 0.22531 0.91657 0.06968 0.0
N119 N 0.25958 0.92187 0.06729 0.0
N120 N 0.25874 0.92633 0.06041 0.0
C121 C 0.22371 0.92498 0.0582 0.0
C122 C 0.20127 0.91845 0.064 0.0
C123 C 0.21648 0.90717 0.07717 0.0
H124 H 0.21976 0.93193 0.0805 0.0
H125 H 0.23594 0.88617 0.07909 0.0
H126 H 0.18828 0.89637 0.07774 0.0
O127 O 0.33193 0.96932 0.07023 0.0
O128 O 0.33193 0.97389 0.0586 0.0
H129 H 0.22832 0.95465 0.04848 0.0
H130 H 0.18264 0.93926 0.05042 0.0
C131 C 0.21204 0.93193 0.05075 0.0
H132 H 0.21708 0.907 0.04755 0.0
H133 H 0.3036 0.99447 0.04569 0.0
O134 O 0.30039 0.92205 0.08231 0.0
C135 C 0.34115 0.986 0.06462 0.0
Co136 Co 0.32319 0.94343 0.17529 0.0
Co137 Co 0.32553 0.94855 0.19176 0.0
C138 C 0.381 0.90522 0.1839 0.0
O139 O 0.36656 0.91412 0.17802 0.0
O140 O 0.36812 0.91687 0.18973 0.0
C141 C 0.34665 0.95418 0.16076 0.0
O142 O 0.37727 0.96746 0.16333 0.0
C143 C 0.35037 0.96024 0.20641 0.0
C144 C 0.29744 0.96963 0.21176 0.0
C145 C 0.33469 0.96677 0.21295 0.0
N146 N 0.32346 0.95941 0.20156 0.0
N147 N 0.29196 0.96527 0.2048 0.0
C148 C 0.38959 0.95187 0.20482 0.0
H149 H 0.39306 0.92174 0.20454 0.0
H150 H 0.39722 0.96347 0.19961 0.0
H151 H 0.40808 0.9626 0.20897 0.0
C152 C 0.32372 0.02459 0.17674 0.0
N153 N 0.32425 0.99049 0.17944 0.0
N154 N 0.32731 0.99248 0.18635 0.0
C155 C 0.33021 0.02789 0.18825 0.0
C156 C 0.32777 0.04956 0.18223 0.0
C157 C 0.31657 0.03301 0.16914 0.0
H158 H 0.29915 0.01147 0.16676 0.0
H159 H 0.34298 0.03394 0.16626 0.0
H160 H 0.30279 0.0599 0.16855 0.0
O161 O 0.27949 0.91617 0.17814 0.0
O162 O 0.28058 0.91931 0.18979 0.0
H163 H 0.3124 0.03807 0.19881 0.0
H164 H 0.34785 0.06893 0.19579 0.0
C165 C 0.33779 0.04032 0.19563 0.0
H166 H 0.35886 0.02248 0.19803 0.0
H167 H 0.26662 0.96558 0.20226 0.0
O168 O 0.32121 0.94441 0.16491 0.0
C169 C 0.26584 0.90815 0.1841 0.0
Co170 Co 0.29925 0.07125 0.42469 0.0
Co171 Co 0.29702 0.0637 0.44116 0.0
C172 C 0.34304 0.12068 0.43398 0.0
O173 O 0.33258 0.11032 0.42789 0.0
O174 O 0.33102 0.10544 0.43957 0.0
C175 C 0.30316 0.10078 0.41057 0.0
O176 O 0.31397 0.13107 0.41366 0.0
C177 C 0.28417 0.08291 0.45613 0.0
C178 C 0.28947 0.02839 0.46107 0.0
C179 C 0.28424 0.06508 0.4626 0.0
N180 N 0.28929 0.05778 0.45103 0.0
N181 N 0.29203 0.02525 0.45403 0.0
C182 C 0.28189 0.12323 0.45483 0.0
H183 H 0.28966 0.12997 0.44934 0.0
H184 H 0.25335 0.13252 0.45569 0.0
H185 H 0.29978 0.13811 0.4586 0.0
C186 C 0.21955 0.08047 0.42685 0.0
N187 N 0.25356 0.07455 0.42932 0.0
N188 N 0.25219 0.06998 0.4362 0.0
C189 C 0.217 0.07174 0.43831 0.0
C190 C 0.19505 0.07874 0.43246 0.0
C191 C 0.21134 0.08962 0.41932 0.0
H192 H 0.23233 0.10877 0.41727 0.0
H193 H 0.18397 0.10242 0.41874 0.0
H194 H 0.21249 0.06425 0.41611 0.0
O195 O 0.32383 0.02386 0.42645 0.0
O196 O 0.32309 0.01918 0.43809 0.0
H197 H 0.17537 0.05594 0.44586 0.0
H198 H 0.20844 0.08896 0.44895 0.0
C199 C 0.2046 0.06406 0.44569 0.0
H200 H 0.22119 0.04168 0.448 0.0
H201 H 0.29669 0.00097 0.45128 0.0
O202 O 0.29408 0.07343 0.41431 0.0
C203 C 0.33216 0.0068 0.43207 0.0
Co204 Co 0.15542 0.04975 0.67429 0.0
Co205 Co 0.16993 0.04383 0.69053 0.0
C206 C 0.10753 0.08798 0.68468 0.0
O207 O 0.11551 0.07889 0.67838 0.0
O208 O 0.12624 0.07647 0.68991 0.0
C209 C 0.1341 0.07289 0.66064 0.0
O210 O 0.1205 0.10049 0.66422 0.0
C211 C 0.15431 0.02619 0.70531 0.0
C212 C 0.21006 0.01946 0.70965 0.0
C213 C 0.17332 0.01765 0.71142 0.0
N214 N 0.17876 0.03266 0.70016 0.0
N215 N 0.21201 0.02892 0.7028 0.0
C216 C 0.11381 0.02562 0.70418 0.0
H217 H 0.10254 0.05314 0.70537 0.0
H218 H 0.10745 0.01901 0.6986 0.0
H219 H 0.10055 0.00538 0.70772 0.0
C220 C 0.15008 0.96947 0.67573 0.0
N221 N 0.15626 0.00293 0.67843 0.0
N222 N 0.16316 4e-05 0.68522 0.0
C223 C 0.16247 0.96435 0.68703 0.0
C224 C 0.15383 0.94375 0.68108 0.0
C225 C 0.13851 0.96287 0.66826 0.0
H226 H 0.11854 0.98409 0.66662 0.0
H227 H 0.12592 0.93546 0.6676 0.0
H228 H 0.16279 0.96504 0.66477 0.0
O229 O 0.20168 0.07672 0.67577 0.0
O230 O 0.21286 0.07187 0.68721 0.0
H231 H 0.19646 0.96505 0.69623 0.0
H232 H 0.17875 0.92056 0.69409 0.0
C233 C 0.17226 0.95019 0.6942 0.0
H234 H 0.14902 0.95493 0.69785 0.0
H235 H 0.23604 0.03219 0.69989 0.0
O236 O 0.14944 0.0468 0.66394 0.0
C237 C 0.22148 0.08365 0.68112 0.0
Co238 Co 0.19283 0.91431 0.92382 0.0
Co239 Co 0.20474 0.92061 0.94013 0.0
C240 C 0.15686 0.86282 0.9342 0.0
O241 O 0.16362 0.87424 0.92798 0.0
O242 O 0.17142 0.87779 0.93959 0.0
C243 C 0.19872 0.88409 0.90953 0.0
O244 O 0.2144 0.85503 0.91227 0.0
C245 C 0.22319 0.90642 0.95511 0.0
C246 C 0.24524 0.96058 0.95811 0.0
C247 C 0.23891 0.92563 0.96065 0.0
N248 N 0.22069 0.92907 0.94953 0.0
N249 N 0.23351 0.96146 0.9514 0.0
C250 C 0.21344 0.86669 0.9549 0.0
H251 H 0.1838 0.86365 0.95603 0.0
H252 H 0.21881 0.85539 0.94957 0.0
H253 H 0.22917 0.85101 0.9589 0.0
C254 C 0.27439 0.91263 0.92402 0.0
N255 N 0.24145 0.91373 0.92722 0.0
N256 N 0.24627 0.91482 0.9341 0.0
C257 C 0.28244 0.91353 0.93549 0.0
C258 C 0.30138 0.91222 0.92916 0.0
C259 C 0.28012 0.91547 0.91622 0.0
H260 H 0.25786 0.93169 0.91378 0.0
H261 H 0.28013 0.8876 0.91391 0.0
H262 H 0.30685 0.92845 0.91501 0.0
O263 O 0.16836 0.96055 0.92611 0.0
O264 O 0.17555 0.9648 0.93767 0.0
H265 H 0.29745 0.94056 0.94505 0.0
H266 H 0.32774 0.90375 0.9426 0.0
C267 C 0.29874 0.91275 0.94273 0.0
H268 H 0.28302 0.89373 0.94612 0.0
H269 H 0.23502 0.98396 0.94802 0.0
O270 O 0.18935 0.91057 0.91347 0.0
C271 C 0.16287 0.97721 0.93189 0.0
Co272 Co 0.65747 0.94394 0.67603 0.0
Co273 Co 0.67024 0.94343 0.69237 0.0
C274 C 0.6095 0.9005 0.68563 0.0
O275 O 0.61789 0.91201 0.67951 0.0
O276 O 0.62725 0.91071 0.69107 0.0
C277 C 0.64121 0.92288 0.6622 0.0
O278 O 0.63229 0.89279 0.66558 0.0
C279 C 0.654 0.95623 0.70741 0.0
C280 C 0.70861 0.94754 0.71213 0.0
C281 C 0.67248 0.95507 0.7138 0.0
N282 N 0.67822 0.94963 0.70221 0.0
N283 N 0.71082 0.94474 0.70508 0.0
C284 C 0.61376 0.961 0.70625 0.0
H285 H 0.59814 0.94461 0.71016 0.0
H286 H 0.60591 0.95303 0.70083 0.0
H287 H 0.60641 0.99019 0.70699 0.0
C288 C 0.65077 0.02356 0.67875 0.0
N289 N 0.65708 0.98905 0.68092 0.0
N290 N 0.66397 0.98915 0.68773 0.0
C291 C 0.66361 0.02397 0.69007 0.0
C292 C 0.65475 0.04702 0.68448 0.0
C293 C 0.63895 0.03319 0.67142 0.0
H294 H 0.62072 0.01154 0.66931 0.0
H295 H 0.62431 0.05978 0.6713 0.0
H296 H 0.66343 0.03486 0.66797 0.0
O297 O 0.70431 0.91712 0.67719 0.0
O298 O 0.71315 0.91674 0.68874 0.0
H299 H 0.68448 0.06373 0.69752 0.0
H300 H 0.65055 0.03259 0.70094 0.0
C301 C 0.67452 0.03507 0.69738 0.0
H302 H 0.69656 0.01695 0.69936 0.0
H303 H 0.73447 0.93867 0.70222 0.0
O304 O 0.65206 0.95045 0.66571 0.0
C305 C 0.72304 0.90775 0.68255 0.0
Co306 Co 0.79813 0.91238 0.42447 0.0
Co307 Co 0.79233 0.92158 0.44087 0.0
C308 C 0.83667 0.86178 0.43481 0.0
O309 O 0.82794 0.87226 0.42861 0.0
O310 O 0.82441 0.87799 0.44028 0.0
C311 C 0.82101 0.89134 0.41072 0.0
O312 O 0.84887 0.87752 0.41419 0.0
C313 C 0.77923 0.91344 0.45626 0.0
C314 C 0.75819 0.96884 0.45864 0.0
C315 C 0.76558 0.93518 0.46168 0.0
N316 N 0.77959 0.93351 0.45031 0.0
N317 N 0.76727 0.96661 0.45179 0.0
C318 C 0.78886 0.87369 0.45657 0.0
H319 H 0.81841 0.87091 0.45781 0.0
H320 H 0.78372 0.86055 0.45138 0.0
H321 H 0.77282 0.8595 0.46072 0.0
C322 C 0.71742 0.91029 0.42581 0.0
N323 N 0.75122 0.91345 0.42858 0.0
N324 N 0.74887 0.91497 0.43549 0.0
C325 C 0.71347 0.9116 0.43737 0.0
C326 C 0.69221 0.90885 0.4313 0.0
C327 C 0.70968 0.9104 0.41806 0.0
H328 H 0.72874 0.9293 0.41533 0.0
H329 H 0.7141 0.88245 0.41593 0.0
H330 H 0.68115 0.91899 0.41694 0.0
O331 O 0.82491 0.95825 0.42599 0.0
O332 O 0.82169 0.96419 0.43759 0.0
H333 H 0.6995 0.93525 0.44733 0.0
H334 H 0.67336 0.89484 0.44515 0.0
C335 C 0.70076 0.9078 0.44484 0.0
H336 H 0.72036 0.89071 0.44784 0.0
H337 H 0.76446 0.9875 0.44808 0.0
O338 O 0.79511 0.90637 0.41412 0.0
C339 C 0.83287 0.97541 0.43161 0.0
Co340 Co 0.81168 0.04356 0.17556 0.0
Co341 Co 0.81699 0.04203 0.192 0.0
C342 C 0.86894 0.08633 0.18358 0.0
O343 O 0.85365 0.07637 0.17784 0.0
O344 O 0.85797 0.07442 0.18952 0.0
C345 C 0.83565 0.03564 0.16111 0.0
O346 O 0.86839 0.0303 0.16379 0.0
C347 C 0.84421 0.03442 0.20655 0.0
C348 C 0.79234 0.0256 0.21232 0.0
C349 C 0.82972 0.0294 0.21323 0.0
N350 N 0.81651 0.03353 0.20188 0.0
N351 N 0.78566 0.02802 0.20536 0.0
C352 C 0.88299 0.04308 0.20466 0.0
H353 H 0.88641 0.07324 0.20456 0.0
H354 H 0.88946 0.0323 0.19933 0.0
H355 H 0.90243 0.0317 0.20857 0.0
C356 C 0.81756 0.96283 0.17766 0.0
N357 N 0.81624 0.9975 0.18007 0.0
N358 N 0.81979 0.9972 0.18698 0.0
C359 C 0.82452 0.96248 0.18917 0.0
C360 C 0.82294 0.93937 0.18335 0.0
C361 C 0.81166 0.95248 0.17011 0.0
H362 H 0.79187 0.9715 0.16761 0.0
H363 H 0.83805 0.95458 0.16724 0.0
H364 H 0.80127 0.92406 0.16964 0.0
O365 O 0.7664 0.06873 0.17837 0.0
O366 O 0.77121 0.06933 0.19 0.0
H367 H 0.80808 0.955 0.1999 0.0
H368 H 0.84362 0.92378 0.19706 0.0
C369 C 0.83311 0.95216 0.19664 0.0
H370 H 0.85422 0.97089 0.19876 0.0
H371 H 0.75993 0.02666 0.20298 0.0
O372 O 0.80852 0.03978 0.16522 0.0
C373 C 0.75425 0.078 0.18438 0.0
Co374 Co 0.70066 0.09084 0.92464 0.0
Co375 Co 0.702 0.06773 0.94052 0.0
C376 C 0.66177 0.13472 0.9356 0.0
O377 O 0.67172 0.12942 0.92924 0.0
O378 O 0.6716 0.11314 0.94054 0.0
C379 C 0.68121 0.11859 0.9112 0.0
O380 O 0.65338 0.13179 0.91477 0.0
C381 C 0.71981 0.07381 0.95555 0.0
C382 C 0.71923 0.0157 0.9588 0.0
C383 C 0.72575 0.05079 0.96127 0.0
N384 N 0.71049 0.05312 0.94998 0.0
N385 N 0.70982 0.01848 0.95196 0.0
C386 C 0.72578 0.11426 0.95517 0.0
H387 H 0.70063 0.12846 0.95698 0.0
H388 H 0.73136 0.12272 0.94965 0.0
H389 H 0.74884 0.12258 0.95863 0.0
C390 C 0.78053 0.09338 0.92689 0.0
N391 N 0.74633 0.08626 0.92913 0.0
N392 N 0.74735 0.0752 0.93573 0.0
C393 C 0.78258 0.0738 0.93784 0.0
C394 C 0.80479 0.08574 0.93234 0.0
C395 C 0.78914 0.10976 0.91985 0.0
H396 H 0.76799 0.13027 0.91843 0.0
H397 H 0.81639 0.12314 0.91983 0.0
H398 H 0.78872 0.08786 0.91579 0.0
O399 O 0.67214 0.04492 0.92492 0.0
O400 O 0.67276 0.02826 0.93614 0.0
H401 H 0.82382 0.04978 0.94461 0.0
H402 H 0.79248 0.08079 0.94887 0.0
C403 C 0.79494 0.05907 0.94482 0.0
H404 H 0.77762 0.03558 0.94638 0.0
H405 H 0.70377 0.99666 0.94861 0.0
O406 O 0.70624 0.1014 0.91447 0.0
C407 C 0.66271 0.02299 0.9298 0.0
Co408 Co 0.65946 0.05547 0.82265 0.0
Co409 Co 0.67282 0.04966 0.80639 0.0
C410 C 0.61165 0.09484 0.8124 0.0
O411 O 0.61984 0.08538 0.81866 0.0
O412 O 0.62973 0.08302 0.80711 0.0
C413 C 0.64104 0.08032 0.83626 0.0
O414 O 0.62971 0.10869 0.8326 0.0
C415 C 0.656 0.03144 0.79171 0.0
C416 C 0.71138 0.02511 0.78718 0.0
C417 C 0.67449 0.02271 0.78555 0.0
N418 N 0.68088 0.03853 0.79675 0.0
N419 N 0.71391 0.03508 0.79399 0.0
C420 C 0.61563 0.03031 0.793 0.0
H421 H 0.60372 0.0574 0.79168 0.0
H422 H 0.60996 0.02449 0.79864 0.0
H423 H 0.60242 0.00927 0.78963 0.0
C424 C 0.65315 0.97516 0.82119 0.0
N425 N 0.65942 0.00865 0.81849 0.0
N426 N 0.66593 0.00586 0.81169 0.0
C427 C 0.66496 0.9702 0.80987 0.0
C428 C 0.65644 0.94953 0.81581 0.0
C429 C 0.64214 0.96844 0.82868 0.0
H430 H 0.62274 0.98997 0.83042 0.0
H431 H 0.6291 0.94123 0.82933 0.0
H432 H 0.66677 0.96998 0.83209 0.0
O433 O 0.70592 0.08204 0.82108 0.0
O434 O 0.71621 0.07722 0.80961 0.0
H435 H 0.68163 0.92656 0.80281 0.0
H436 H 0.65118 0.96033 0.79907 0.0
C437 C 0.67466 0.95608 0.80269 0.0
H438 H 0.69855 0.97124 0.8006 0.0
H439 H 0.73818 0.03877 0.79681 0.0
O440 O 0.65401 0.05279 0.83301 0.0
C441 C 0.72535 0.08893 0.81567 0.0
Co442 Co 0.70255 0.91335 0.57359 0.0
Co443 Co 0.70534 0.93185 0.55744 0.0
C444 C 0.6637 0.86702 0.563 0.0
O445 O 0.67356 0.87371 0.56932 0.0
O446 O 0.67397 0.88721 0.55788 0.0
C447 C 0.683 0.88817 0.58722 0.0
O448 O 0.65582 0.87329 0.58371 0.0
C449 C 0.72006 0.92406 0.54215 0.0
C450 C 0.71316 0.98149 0.53873 0.0
C451 C 0.71994 0.94653 0.53624 0.0
N452 N 0.71349 0.94495 0.54786 0.0
N453 N 0.7098 0.97926 0.54577 0.0
C454 C 0.72374 0.8833 0.54231 0.0
H455 H 0.71698 0.87234 0.5476 0.0
H456 H 0.75237 0.87565 0.54105 0.0
H457 H 0.70571 0.87081 0.53826 0.0
C458 C 0.78268 0.91024 0.57152 0.0
N459 N 0.74861 0.9165 0.56912 0.0
N460 N 0.7501 0.92504 0.56238 0.0
C461 C 0.78539 0.92545 0.56032 0.0
C462 C 0.80727 0.91573 0.56603 0.0
C463 C 0.7909 0.8967 0.57881 0.0
H464 H 0.7701 0.87622 0.58041 0.0
H465 H 0.81845 0.88407 0.57912 0.0
H466 H 0.78942 0.91999 0.58255 0.0
O467 O 0.67384 0.95908 0.57279 0.0
O468 O 0.6768 0.97271 0.56144 0.0
H469 H 0.78128 0.96041 0.55126 0.0
H470 H 0.82711 0.9452 0.55315 0.0
C471 C 0.7979 0.93698 0.55313 0.0
H472 H 0.79417 0.9139 0.5494 0.0
H473 H 0.70402 0.00107 0.54914 0.0
O474 O 0.70765 0.90542 0.58387 0.0
C475 C 0.66565 0.97976 0.56764 0.0
Co476 Co 0.84145 0.95685 0.32195 0.0
Co477 Co 0.83693 0.95859 0.30545 0.0
C478 C 0.8955 0.91687 0.31258 0.0
O479 O 0.88337 0.92658 0.3186 0.0
O480 O 0.88041 0.92775 0.3069 0.0
C481 C 0.85558 0.93315 0.33568 0.0
O482 O 0.86476 0.90369 0.33213 0.0
C483 C 0.85539 0.96959 0.29048 0.0
C484 C 0.80128 0.98456 0.28612 0.0
C485 C 0.83778 0.98025 0.28433 0.0
N486 N 0.83037 0.96796 0.29567 0.0
N487 N 0.79805 0.97647 0.29301 0.0
C488 C 0.89565 0.96476 0.2916 0.0
H489 H 0.9029 0.93564 0.2907 0.0
H490 H 0.90316 0.972 0.2971 0.0
H491 H 0.91156 0.98196 0.28788 0.0
C492 C 0.84186 0.03754 0.31985 0.0
N493 N 0.84096 0.00292 0.31741 0.0
N494 N 0.84074 0.00349 0.31047 0.0
C495 C 0.84249 0.03849 0.30826 0.0
C496 C 0.84284 0.06135 0.31412 0.0
C497 C 0.83993 0.04733 0.3275 0.0
H498 H 0.82154 0.02804 0.3303 0.0
H499 H 0.86765 0.0449 0.32985 0.0
H500 H 0.82984 0.07569 0.32826 0.0
O501 O 0.79599 0.92945 0.32012 0.0
O502 O 0.79375 0.92954 0.30843 0.0
H503 H 0.82005 0.04615 0.29795 0.0
H504 H 0.85576 0.07841 0.30017 0.0
C505 C 0.8466 0.04962 0.3007 0.0
H506 H 0.8672 0.03197 0.29812 0.0
H507 H 0.77395 0.97774 0.29596 0.0
O508 O 0.84509 0.96139 0.33233 0.0
C509 C 0.78068 0.91994 0.31438 0.0
Co510 Co 0.80751 0.08527 0.07277 0.0
Co511 Co 0.80097 0.08019 0.05637 0.0
C512 C 0.84433 0.13933 0.06289 0.0
O513 O 0.83644 0.12707 0.06901 0.0
O514 O 0.83201 0.12419 0.05731 0.0
C515 C 0.79651 0.11337 0.08721 0.0
O516 O 0.78161 0.14304 0.08455 0.0
C517 C 0.79396 0.08897 0.04087 0.0
C518 C 0.77109 0.03468 0.03817 0.0
C519 C 0.78326 0.06715 0.03524 0.0
N520 N 0.78833 0.07001 0.04685 0.0
N521 N 0.7744 0.03778 0.0452 0.0
C522 C 0.81245 0.12544 0.04059 0.0
H523 H 0.84108 0.12236 0.04245 0.0
H524 H 0.79843 0.14462 0.04424 0.0
H525 H 0.81267 0.13693 0.03518 0.0
C526 C 0.72602 0.08579 0.07151 0.0
N527 N 0.76004 0.08439 0.06877 0.0
N528 N 0.75778 0.08501 0.06185 0.0
C529 C 0.72246 0.08858 0.05996 0.0
C530 C 0.70096 0.08879 0.06601 0.0
C531 C 0.71767 0.08174 0.0792 0.0
H532 H 0.73924 0.06535 0.08184 0.0
H533 H 0.71662 0.10922 0.08168 0.0
H534 H 0.69078 0.06823 0.07999 0.0
O535 O 0.83446 0.04016 0.07075 0.0
O536 O 0.83076 0.03701 0.05913 0.0
H537 H 0.70697 0.06836 0.04981 0.0
H538 H 0.6835 0.10972 0.05238 0.0
C539 C 0.71008 0.09505 0.05253 0.0
H540 H 0.73072 0.11153 0.04965 0.0
H541 H 0.76808 0.0175 0.04887 0.0
O542 O 0.80723 0.0879 0.08315 0.0
C543 C 0.84214 0.02433 0.06498 0.0
Co544 Co 0.83311 0.55482 0.82219 0.0
Co545 Co 0.82231 0.55218 0.80583 0.0
C546 C 0.88371 0.59469 0.81271 0.0
O547 O 0.87443 0.58461 0.81889 0.0
O548 O 0.86599 0.58417 0.80728 0.0
C549 C 0.86163 0.55781 0.83645 0.0
O550 O 0.89284 0.56737 0.83355 0.0
C551 C 0.84177 0.53541 0.7911 0.0
C552 C 0.78917 0.54632 0.78574 0.0
C553 C 0.82523 0.53653 0.78452 0.0
N554 N 0.81655 0.54421 0.79598 0.0
N555 N 0.78512 0.55035 0.79274 0.0
C556 C 0.88136 0.52897 0.79269 0.0
H557 H 0.89864 0.54599 0.78916 0.0
H558 H 0.88756 0.53519 0.79828 0.0
H559 H 0.88817 0.49987 0.79168 0.0
C560 C 0.83754 0.47475 0.8202 0.0
N561 N 0.8328 0.50881 0.81767 0.0
N562 N 0.82685 0.50725 0.81083 0.0
C563 C 0.8265 0.47186 0.80882 0.0
C564 C 0.83359 0.45002 0.81468 0.0
C565 C 0.84795 0.46661 0.82767 0.0
H566 H 0.86814 0.48708 0.82954 0.0
H567 H 0.85996 0.43887 0.82821 0.0
H568 H 0.82327 0.46869 0.83106 0.0
O569 O 0.78777 0.58282 0.82042 0.0
O570 O 0.77871 0.57999 0.8089 0.0
H571 H 0.80619 0.43081 0.80159 0.0
H572 H 0.84178 0.46005 0.79818 0.0
C573 C 0.81693 0.45921 0.80153 0.0
H574 H 0.79599 0.47747 0.79919 0.0
H575 H 0.76109 0.55827 0.7953 0.0
O576 O 0.83452 0.5499 0.83255 0.0
C577 C 0.76907 0.5909 0.81499 0.0
Co578 Co 0.69643 0.57894 0.0732 0.0
Co579 Co 0.70296 0.57542 0.05677 0.0
C580 C 0.65735 0.63235 0.06358 0.0
O581 O 0.66584 0.62004 0.06967 0.0
O582 O 0.67021 0.61811 0.05796 0.0
C583 C 0.69165 0.60721 0.08753 0.0
O584 O 0.68291 0.63881 0.08468 0.0
C585 C 0.71697 0.59044 0.04162 0.0
C586 C 0.74154 0.53748 0.03854 0.0
C587 C 0.73301 0.57199 0.03602 0.0
N588 N 0.71649 0.56778 0.04722 0.0
N589 N 0.73074 0.53608 0.0453 0.0
C590 C 0.70547 0.6297 0.04187 0.0
H591 H 0.67557 0.63138 0.04089 0.0
H592 H 0.71104 0.64134 0.04717 0.0
H593 H 0.71988 0.64602 0.03779 0.0
C594 C 0.77722 0.58299 0.07204 0.0
N595 N 0.74356 0.5802 0.06919 0.0
N596 N 0.74619 0.58096 0.06228 0.0
C597 C 0.78159 0.58562 0.0605 0.0
C598 C 0.8026 0.58664 0.06662 0.0
C599 C 0.78469 0.58042 0.07979 0.0
H600 H 0.76609 0.56009 0.08224 0.0
H601 H 0.77938 0.60743 0.08226 0.0
H602 H 0.81341 0.57226 0.08085 0.0
O603 O 0.67062 0.53338 0.07099 0.0
O604 O 0.67426 0.53103 0.05935 0.0
H605 H 0.7966 0.56614 0.05027 0.0
H606 H 0.82164 0.60619 0.05306 0.0
C607 C 0.79453 0.59253 0.05312 0.0
H608 H 0.77472 0.61031 0.05034 0.0
H609 H 0.73411 0.51384 0.04869 0.0
O610 O 0.69897 0.58013 0.08358 0.0
C611 C 0.66311 0.51782 0.06518 0.0
Co612 Co 0.6802 0.45273 0.32145 0.0
Co613 Co 0.67198 0.45956 0.30511 0.0
C614 C 0.62159 0.41241 0.31326 0.0
O615 O 0.63791 0.42075 0.31899 0.0
O616 O 0.63142 0.4261 0.30738 0.0
C617 C 0.65825 0.45763 0.33603 0.0
O618 O 0.6256 0.46548 0.33355 0.0
C619 C 0.64258 0.47355 0.29086 0.0
C620 C 0.69266 0.49182 0.28535 0.0
C621 C 0.65549 0.48607 0.2844 0.0
N622 N 0.6709 0.47222 0.29539 0.0
N623 N 0.70074 0.48292 0.29205 0.0
C624 C 0.60375 0.46614 0.29292 0.0
H625 H 0.59749 0.43686 0.29195 0.0
H626 H 0.59968 0.47177 0.29862 0.0
H627 H 0.58459 0.48319 0.28978 0.0
C628 C 0.67546 0.5339 0.32042 0.0
N629 N 0.67517 0.5001 0.31758 0.0
N630 N 0.67 0.50273 0.31073 0.0
C631 C 0.66556 0.53825 0.30903 0.0
C632 C 0.6693 0.55933 0.31509 0.0
C633 C 0.68423 0.54158 0.32799 0.0
H634 H 0.70376 0.52091 0.33003 0.0
H635 H 0.6587 0.53993 0.33115 0.0
H636 H 0.69622 0.56927 0.32864 0.0
O637 O 0.72501 0.42903 0.31808 0.0
O638 O 0.71823 0.43155 0.30648 0.0
H639 H 0.67997 0.5504 0.29835 0.0
H640 H 0.64469 0.5798 0.30191 0.0
C641 C 0.65551 0.55145 0.3018 0.0
H642 H 0.63416 0.53346 0.29955 0.0
H643 H 0.72655 0.48469 0.29438 0.0
O644 O 0.68468 0.45302 0.33178 0.0
C645 C 0.73619 0.42155 0.3119 0.0
Co646 Co 0.81211 0.42517 0.57227 0.0
Co647 Co 0.80007 0.42846 0.55595 0.0
C648 C 0.84752 0.37149 0.56212 0.0
O649 O 0.84116 0.38411 0.56828 0.0
O650 O 0.83273 0.38549 0.55666 0.0
C651 C 0.80656 0.39594 0.58659 0.0
O652 O 0.79318 0.36592 0.58378 0.0
C653 C 0.78054 0.41373 0.54101 0.0
C654 C 0.75826 0.4679 0.53806 0.0
C655 C 0.76426 0.43291 0.53551 0.0
N656 N 0.78362 0.43646 0.54656 0.0
N657 N 0.77061 0.46883 0.54473 0.0
C658 C 0.79001 0.37392 0.54123 0.0
H659 H 0.81894 0.3704 0.53958 0.0
H660 H 0.78706 0.36318 0.54667 0.0
H661 H 0.77229 0.35803 0.53759 0.0
C662 C 0.7305 0.42352 0.57208 0.0
N663 N 0.76346 0.42461 0.56889 0.0
N664 N 0.75875 0.42355 0.56201 0.0
C665 C 0.72275 0.42024 0.56062 0.0
C666 C 0.70352 0.42056 0.56694 0.0
C667 C 0.72491 0.42792 0.57986 0.0
H668 H 0.74697 0.44502 0.58215 0.0
H669 H 0.72556 0.40059 0.5824 0.0
H670 H 0.69803 0.44079 0.58099 0.0
O671 O 0.83719 0.47069 0.56975 0.0
O672 O 0.83015 0.47248 0.55817 0.0
H673 H 0.70578 0.4403 0.55054 0.0
H674 H 0.67965 0.40157 0.55364 0.0
C675 C 0.70736 0.41388 0.5534 0.0
H676 H 0.72545 0.3951 0.55043 0.0
H677 H 0.7694 0.49134 0.54811 0.0
O678 O 0.81488 0.4228 0.58265 0.0
C679 C 0.84307 0.48593 0.56384 0.0
Co680 Co 0.81879 0.43911 0.67576 0.0
Co681 Co 0.81871 0.44815 0.69217 0.0
C682 C 0.87379 0.4011 0.68515 0.0
O683 O 0.86043 0.40886 0.67911 0.0
O684 O 0.86066 0.41482 0.69078 0.0
C685 C 0.84651 0.44531 0.66148 0.0
O686 O 0.87739 0.45587 0.66439 0.0
C687 C 0.84043 0.46264 0.70693 0.0
C688 C 0.78876 0.485 0.7112 0.0
C689 C 0.82464 0.47701 0.71299 0.0
N690 N 0.81494 0.46229 0.70181 0.0
N691 N 0.78409 0.47539 0.70442 0.0
C692 C 0.87967 0.4525 0.70582 0.0
H693 H 0.88294 0.42266 0.7067 0.0
H694 H 0.88802 0.45876 0.70032 0.0
H695 H 0.89776 0.46738 0.70954 0.0
C696 C 0.82176 0.52044 0.67648 0.0
N697 N 0.82078 0.48703 0.67949 0.0
N698 N 0.82299 0.4906 0.68638 0.0
C699 C 0.82693 0.52633 0.68796 0.0
C700 C 0.82588 0.54659 0.68175 0.0
C701 C 0.81614 0.52718 0.66876 0.0
H702 H 0.79802 0.50588 0.66649 0.0
H703 H 0.84297 0.526 0.66604 0.0
H704 H 0.8038 0.5545 0.66783 0.0
O705 O 0.77364 0.41408 0.67852 0.0
O706 O 0.77339 0.4195 0.69015 0.0
H707 H 0.80844 0.54148 0.69826 0.0
H708 H 0.84675 0.56816 0.69511 0.0
C709 C 0.83442 0.54043 0.69524 0.0
H710 H 0.85359 0.52181 0.69799 0.0
H711 H 0.76 0.4784 0.70152 0.0
O712 O 0.81907 0.43832 0.66536 0.0
C713 C 0.75906 0.4076 0.68447 0.0
Co714 Co 0.80425 0.58058 0.92511 0.0
Co715 Co 0.80095 0.56787 0.94139 0.0
C716 C 0.84358 0.63011 0.93499 0.0
O717 O 0.83397 0.62136 0.92875 0.0
O718 O 0.83267 0.61194 0.94033 0.0
C719 C 0.80822 0.61087 0.91097 0.0
O720 O 0.81909 0.64136 0.91398 0.0
C721 C 0.78692 0.58375 0.95635 0.0
C722 C 0.79282 0.52853 0.96099 0.0
C723 C 0.787 0.5649 0.96269 0.0
N724 N 0.79255 0.5595 0.95113 0.0
N725 N 0.79561 0.52653 0.95393 0.0
C726 C 0.7852 0.62425 0.9553 0.0
H727 H 0.7782 0.6308 0.94974 0.0
H728 H 0.76472 0.63663 0.9589 0.0
H729 H 0.81232 0.63627 0.95656 0.0
C730 C 0.72405 0.5855 0.92706 0.0
N731 N 0.75801 0.57972 0.92956 0.0
N732 N 0.75629 0.57332 0.93638 0.0
C733 C 0.72095 0.57391 0.93842 0.0
C734 C 0.69926 0.58193 0.93258 0.0
C735 C 0.71616 0.59692 0.91963 0.0
H736 H 0.73686 0.61715 0.91788 0.0
H737 H 0.68854 0.60924 0.91911 0.0
H738 H 0.71814 0.57266 0.91613 0.0
O739 O 0.83234 0.53497 0.92661 0.0
O740 O 0.82913 0.52509 0.9381 0.0
H741 H 0.67898 0.55717 0.94582 0.0
H742 H 0.71233 0.5893 0.94916 0.0
C743 C 0.70829 0.56503 0.94573 0.0
H744 H 0.72465 0.54211 0.9479 0.0
H745 H 0.8008 0.50279 0.95104 0.0
O746 O 0.79942 0.58365 0.91477 0.0
C747 C 0.84032 0.51593 0.93201 0.0
Co748 Co 0.66687 0.54407 0.17612 0.0
Co749 Co 0.66145 0.54112 0.19257 0.0
C750 C 0.6101 0.58681 0.18433 0.0
O751 O 0.6254 0.57707 0.17858 0.0
O752 O 0.62073 0.57431 0.19026 0.0
C753 C 0.64175 0.54172 0.16173 0.0
O754 O 0.60883 0.54351 0.1645 0.0
C755 C 0.63509 0.53051 0.20715 0.0
C756 C 0.68622 0.51272 0.21236 0.0
C757 C 0.64934 0.51898 0.21357 0.0
N758 N 0.66237 0.53075 0.20239 0.0
N759 N 0.69286 0.52041 0.20555 0.0
C760 C 0.59587 0.53789 0.20537 0.0
H761 H 0.58998 0.56732 0.20626 0.0
H762 H 0.59052 0.53157 0.19974 0.0
H763 H 0.57734 0.52138 0.20874 0.0
C764 C 0.66048 0.4635 0.17789 0.0
N765 N 0.66193 0.49783 0.18047 0.0
N766 N 0.65814 0.49677 0.18736 0.0
C767 C 0.65308 0.46179 0.18938 0.0
C768 C 0.65476 0.4394 0.18346 0.0
C769 C 0.66661 0.45414 0.17029 0.0
H770 H 0.68755 0.47259 0.168 0.0
H771 H 0.64067 0.45812 0.16735 0.0
H772 H 0.6757 0.42535 0.16966 0.0
O773 O 0.71244 0.5685 0.17898 0.0
O774 O 0.70742 0.56839 0.19062 0.0
H775 H 0.66913 0.45189 0.20006 0.0
H776 H 0.63283 0.42227 0.19699 0.0
C777 C 0.64408 0.45042 0.19677 0.0
H778 H 0.6234 0.46928 0.19899 0.0
H779 H 0.71809 0.51792 0.20302 0.0
O780 O 0.66944 0.54025 0.16577 0.0
C781 C 0.72452 0.57733 0.18503 0.0
Co782 Co 0.69229 0.41166 0.42416 0.0
Co783 Co 0.69655 0.41842 0.44055 0.0
C784 C 0.65453 0.35821 0.43388 0.0
O785 O 0.6634 0.36966 0.42775 0.0
O786 O 0.66572 0.37428 0.43944 0.0
C787 C 0.70417 0.38276 0.40984 0.0
O788 O 0.71785 0.35277 0.4126 0.0
C789 C 0.70581 0.40508 0.45584 0.0
C790 C 0.71685 0.46147 0.45951 0.0
C791 C 0.71197 0.42592 0.46182 0.0
N792 N 0.70702 0.42747 0.45021 0.0
N793 N 0.71399 0.46102 0.45244 0.0
C794 C 0.69593 0.36543 0.45549 0.0
H795 H 0.6657 0.3629 0.45523 0.0
H796 H 0.70756 0.35295 0.45065 0.0
H797 H 0.70579 0.3505 0.46022 0.0
C798 C 0.77343 0.41222 0.42578 0.0
N799 N 0.73916 0.41341 0.42839 0.0
N800 N 0.74072 0.41399 0.43532 0.0
C801 C 0.77595 0.41172 0.43736 0.0
C802 C 0.79801 0.41079 0.43137 0.0
C803 C 0.78239 0.41505 0.41809 0.0
H804 H 0.76122 0.43133 0.41532 0.0
H805 H 0.78317 0.38721 0.41577 0.0
H806 H 0.80949 0.42813 0.41729 0.0
O807 O 0.66442 0.45642 0.42599 0.0
O808 O 0.66694 0.46153 0.43759 0.0
H809 H 0.78691 0.43466 0.44751 0.0
H810 H 0.81583 0.39616 0.44528 0.0
C811 C 0.78778 0.40756 0.44488 0.0
H812 H 0.76875 0.38894 0.44767 0.0
H813 H 0.71578 0.48379 0.44914 0.0
O814 O 0.69393 0.40879 0.41381 0.0
C815 C 0.656 0.4731 0.43163 0.0
Co816 Co 0.15212 0.44663 0.17502 0.0
Co817 Co 0.1582 0.44523 0.1915 0.0
C818 C 0.09957 0.40381 0.18382 0.0
O819 O 0.11081 0.41523 0.17786 0.0
O820 O 0.11512 0.41357 0.18953 0.0
C821 C 0.1475 0.42304 0.16131 0.0
O822 O 0.14506 0.39232 0.16488 0.0
C823 C 0.13798 0.45754 0.20643 0.0
C824 C 0.19123 0.44748 0.21161 0.0
C825 C 0.15491 0.45566 0.21298 0.0
N826 N 0.16328 0.45069 0.20144 0.0
N827 N 0.19504 0.44496 0.20458 0.0
C828 C 0.09818 0.4633 0.20494 0.0
H829 H 0.08129 0.4475 0.20874 0.0
H830 H 0.09138 0.45525 0.19946 0.0
H831 H 0.09148 0.49271 0.20558 0.0
C832 C 0.14648 0.52635 0.17776 0.0
N833 N 0.15066 0.49159 0.17997 0.0
N834 N 0.15477 0.49127 0.18686 0.0
C835 C 0.15468 0.526 0.18925 0.0
C836 C 0.14896 0.54951 0.18357 0.0
C837 C 0.13833 0.5366 0.17028 0.0
H838 H 0.12042 0.51565 0.16783 0.0
H839 H 0.1247 0.56369 0.16996 0.0
H840 H 0.16432 0.53754 0.16725 0.0
O841 O 0.19817 0.41925 0.17677 0.0
O842 O 0.20176 0.41791 0.18841 0.0
H843 H 0.17393 0.56481 0.19704 0.0
H844 H 0.13791 0.53453 0.19992 0.0
C845 C 0.16319 0.53648 0.19671 0.0
H846 H 0.18391 0.51763 0.19894 0.0
H847 H 0.21924 0.43861 0.20193 0.0
O848 O 0.15005 0.45299 0.16468 0.0
C849 C 0.21429 0.40925 0.18239 0.0
Co850 Co 0.30676 0.412 0.92546 0.0
Co851 Co 0.3019 0.42474 0.9418 0.0
C852 C 0.34884 0.36536 0.93543 0.0
O853 O 0.33896 0.37327 0.92917 0.0
O854 O 0.33639 0.38281 0.94074 0.0
C855 C 0.31658 0.38376 0.91128 0.0
O856 O 0.33357 0.35625 0.91431 0.0
C857 C 0.28627 0.40814 0.95676 0.0
C858 C 0.2912 0.46335 0.96143 0.0
C859 C 0.28532 0.42695 0.96312 0.0
N860 N 0.29258 0.43244 0.95156 0.0
N861 N 0.29511 0.46538 0.95439 0.0
C862 C 0.28385 0.36766 0.95568 0.0
H863 H 0.2925 0.36004 0.95027 0.0
H864 H 0.25509 0.35874 0.9564 0.0
H865 H 0.30094 0.3532 0.95964 0.0
C866 C 0.22676 0.40414 0.92724 0.0
N867 N 0.26039 0.41049 0.92986 0.0
N868 N 0.25791 0.41705 0.93666 0.0
C869 C 0.22238 0.41606 0.93857 0.0
C870 C 0.20138 0.40756 0.93266 0.0
C871 C 0.21966 0.39323 0.91975 0.0
H872 H 0.2411 0.37386 0.91796 0.0
H873 H 0.19245 0.38013 0.91915 0.0
H874 H 0.22098 0.4179 0.91635 0.0
O875 O 0.33212 0.45907 0.92703 0.0
O876 O 0.32797 0.46896 0.93852 0.0
H877 H 0.17959 0.43422 0.94566 0.0
H878 H 0.21178 0.40187 0.9493 0.0
C879 C 0.20876 0.42588 0.94577 0.0
H880 H 0.22515 0.44873 0.94796 0.0
H881 H 0.30051 0.48919 0.95154 0.0
O882 O 0.30234 0.4086 0.91508 0.0
C883 C 0.33893 0.47856 0.93243 0.0
Co884 Co 0.32717 0.54855 0.67397 0.0
Co885 Co 0.31383 0.54412 0.69023 0.0
C886 C 0.37617 0.58735 0.68402 0.0
O887 O 0.36765 0.57818 0.67775 0.0
O888 O 0.35785 0.57602 0.68932 0.0
C889 C 0.35758 0.55392 0.65984 0.0
O890 O 0.38831 0.56391 0.66288 0.0
C891 C 0.32892 0.53042 0.70524 0.0
C892 C 0.27304 0.53372 0.70967 0.0
C893 C 0.30946 0.52962 0.71151 0.0
N894 N 0.30496 0.53492 0.69993 0.0
N895 N 0.2716 0.53637 0.7026 0.0
C896 C 0.36955 0.53077 0.70435 0.0
H897 H 0.37983 0.55891 0.70531 0.0
H898 H 0.37702 0.52251 0.6989 0.0
H899 H 0.38278 0.51222 0.70821 0.0
C900 C 0.33227 0.46826 0.67572 0.0
N901 N 0.32632 0.50204 0.6783 0.0
N902 N 0.31975 0.49986 0.68511 0.0
C903 C 0.32048 0.46442 0.68707 0.0
C904 C 0.32871 0.44313 0.68119 0.0
C905 C 0.34369 0.46086 0.66828 0.0
H906 H 0.36383 0.48175 0.66657 0.0
H907 H 0.35611 0.43331 0.66771 0.0
H908 H 0.31941 0.46293 0.66478 0.0
O909 O 0.2814 0.57617 0.67548 0.0
O910 O 0.271 0.57236 0.68694 0.0
H911 H 0.30452 0.42179 0.6944 0.0
H912 H 0.33547 0.45603 0.69784 0.0
C913 C 0.31156 0.4513 0.69435 0.0
H914 H 0.28804 0.46696 0.69647 0.0
H915 H 0.24795 0.54049 0.69963 0.0
O916 O 0.33038 0.54483 0.66362 0.0
C917 C 0.26205 0.58377 0.68085 0.0
Co918 Co 0.192 0.58101 0.42417 0.0
Co919 Co 0.19765 0.57199 0.44053 0.0
C920 C 0.15268 0.63157 0.43405 0.0
O921 O 0.16104 0.62104 0.42784 0.0
O922 O 0.16546 0.61556 0.4395 0.0
C923 C 0.18665 0.6106 0.40996 0.0
O924 O 0.17606 0.64128 0.41294 0.0
C925 C 0.21721 0.58804 0.45528 0.0
C926 C 0.22403 0.53191 0.45945 0.0
C927 C 0.22724 0.56849 0.46123 0.0
N928 N 0.20877 0.56397 0.45017 0.0
N929 N 0.21232 0.53052 0.45274 0.0
C930 C 0.21861 0.62858 0.45426 0.0
H931 H 0.19238 0.64064 0.45608 0.0
H932 H 0.22231 0.6353 0.4486 0.0
H933 H 0.24111 0.64072 0.45743 0.0
C934 C 0.27233 0.58849 0.42565 0.0
N935 N 0.23881 0.58248 0.42837 0.0
N936 N 0.24155 0.57729 0.43521 0.0
C937 C 0.27717 0.57879 0.43705 0.0
C938 C 0.29789 0.58637 0.43107 0.0
C939 C 0.2791 0.59838 0.4181 0.0
H940 H 0.25846 0.6187 0.41636 0.0
H941 H 0.30682 0.61006 0.41733 0.0
H942 H 0.27599 0.57357 0.41478 0.0
O943 O 0.16636 0.53421 0.42597 0.0
O944 O 0.1691 0.52891 0.43758 0.0
H945 H 0.32083 0.56367 0.44424 0.0
H946 H 0.28685 0.59457 0.44775 0.0
C947 C 0.29127 0.57048 0.4443 0.0
H948 H 0.27631 0.54685 0.44653 0.0
H949 H 0.20803 0.50671 0.44982 0.0
O950 O 0.19551 0.58352 0.41379 0.0
C951 C 0.15852 0.51714 0.43161 0.0
Co952 Co 0.17564 0.55592 0.32089 0.0
Co953 Co 0.18059 0.55357 0.30442 0.0
C954 C 0.12403 0.59868 0.31187 0.0
O955 O 0.13561 0.58851 0.31789 0.0
O956 O 0.1385 0.58682 0.30619 0.0
C957 C 0.14709 0.55807 0.33508 0.0
O958 O 0.11574 0.56591 0.33204 0.0
C959 C 0.15673 0.53802 0.28997 0.0
C960 C 0.20973 0.53258 0.28445 0.0
C961 C 0.17223 0.53017 0.28347 0.0
N962 N 0.18388 0.54459 0.29458 0.0
N963 N 0.21546 0.54176 0.29123 0.0
C964 C 0.11715 0.53633 0.29195 0.0
H965 H 0.10436 0.56333 0.29089 0.0
H966 H 0.11418 0.53013 0.29765 0.0
H967 H 0.10266 0.51533 0.28877 0.0
C968 C 0.16607 0.47605 0.31884 0.0
N969 N 0.17199 0.51005 0.31636 0.0
N970 N 0.17571 0.50871 0.30946 0.0
C971 C 0.17343 0.47354 0.30735 0.0
C972 C 0.16681 0.45161 0.31322 0.0
C973 C 0.15758 0.46784 0.3264 0.0
H974 H 0.1383 0.48862 0.32848 0.0
H975 H 0.14518 0.44034 0.32704 0.0
H976 H 0.18316 0.46942 0.32954 0.0
O977 O 0.22237 0.58113 0.31876 0.0
O978 O 0.22532 0.58039 0.3071 0.0
H979 H 0.18782 0.43156 0.29976 0.0
H980 H 0.15541 0.46541 0.29674 0.0
C981 C 0.18037 0.46096 0.29995 0.0
H982 H 0.20312 0.47688 0.29762 0.0
H983 H 0.24097 0.54511 0.29362 0.0
O984 O 0.17491 0.55127 0.33128 0.0
C985 C 0.23843 0.58972 0.31305 0.0
Co986 Co 0.1972 0.42817 0.07229 0.0
Co987 Co 0.19941 0.43751 0.05588 0.0
C988 C 0.15387 0.37938 0.06275 0.0
O989 O 0.1641 0.38938 0.06887 0.0
O990 O 0.16591 0.39513 0.05721 0.0
C991 C 0.19367 0.39638 0.08619 0.0
O992 O 0.18247 0.36686 0.08288 0.0
C993 C 0.21433 0.41818 0.04115 0.0
C994 C 0.21985 0.47284 0.03626 0.0
C995 C 0.22189 0.43572 0.03482 0.0
N996 N 0.20827 0.44383 0.04609 0.0
N997 N 0.21119 0.47642 0.04312 0.0
C998 C 0.21574 0.37802 0.04265 0.0
H999 H 0.22213 0.37317 0.0483 0.0
H1000 H 0.23649 0.36441 0.03927 0.0
H1001 H 0.18858 0.36584 0.04149 0.0
C1002 C 0.27682 0.41831 0.07012 0.0
N1003 N 0.24292 0.42532 0.06769 0.0
N1004 N 0.2443 0.4308 0.06084 0.0
C1005 C 0.27945 0.4286 0.05871 0.0
C1006 C 0.30128 0.42022 0.06451 0.0
C1007 C 0.28488 0.40761 0.07758 0.0
H1008 H 0.26377 0.38814 0.07946 0.0
H1009 H 0.31216 0.39458 0.07809 0.0
H1010 H 0.28373 0.43232 0.08097 0.0
O1011 O 0.17249 0.47569 0.07069 0.0
O1012 O 0.17292 0.4816 0.05907 0.0
H1013 H 0.27655 0.46055 0.04924 0.0
H1014 H 0.32164 0.44396 0.05124 0.0
C1015 C 0.29211 0.43702 0.05137 0.0
H1016 H 0.28719 0.41291 0.04795 0.0
H1017 H 0.20815 0.50111 0.04582 0.0
O1018 O 0.20259 0.42449 0.08265 0.0
C1019 C 0.16388 0.49327 0.06514 0.0
Co1020 Co 0.32629 0.44563 0.82234 0.0
Co1021 Co 0.32234 0.4548 0.80594 0.0
C1022 C 0.38034 0.40941 0.81244 0.0
O1023 O 0.368 0.41662 0.81859 0.0
O1024 O 0.36562 0.42274 0.80691 0.0
C1025 C 0.35606 0.44559 0.83661 0.0
O1026 O 0.38858 0.44776 0.83369 0.0
C1027 C 0.33686 0.47025 0.79082 0.0
C1028 C 0.28393 0.49533 0.78786 0.0
C1029 C 0.31823 0.48659 0.78527 0.0
N1030 N 0.31449 0.46972 0.79646 0.0
N1031 N 0.28283 0.48437 0.79462 0.0
C1032 C 0.37599 0.45826 0.79098 0.0
H1033 H 0.37724 0.4283 0.79005 0.0
H1034 H 0.38809 0.46396 0.79623 0.0
H1035 H 0.3922 0.47231 0.78683 0.0
C1036 C 0.32931 0.52682 0.82163 0.0
N1037 N 0.32674 0.49351 0.81862 0.0
N1038 N 0.32728 0.49711 0.81172 0.0
C1039 C 0.33158 0.53275 0.81011 0.0
C1040 C 0.33251 0.55294 0.81632 0.0
C1041 C 0.32728 0.53331 0.82941 0.0
H1042 H 0.30812 0.51354 0.83187 0.0
H1043 H 0.3548 0.52907 0.83175 0.0
H1044 H 0.31801 0.56156 0.8306 0.0
O1045 O 0.28113 0.4195 0.81994 0.0
O1046 O 0.27845 0.42505 0.80834 0.0
H1047 H 0.31207 0.5493 0.79996 0.0
H1048 H 0.35224 0.57375 0.80287 0.0
C1049 C 0.33848 0.5467 0.8028 0.0
H1050 H 0.35616 0.52723 0.7999 0.0
H1051 H 0.26076 0.48768 0.79805 0.0
O1052 O 0.32771 0.44549 0.83274 0.0
C1053 C 0.26552 0.41276 0.8141 0.0
Co1054 Co 0.30665 0.58618 0.57137 0.0
Co1055 Co 0.30873 0.57259 0.5551 0.0
C1056 C 0.35122 0.63357 0.56191 0.0
O1057 O 0.33964 0.62529 0.56805 0.0
O1058 O 0.34095 0.61586 0.55647 0.0
C1059 C 0.30847 0.6167 0.5855 0.0
O1060 O 0.32261 0.64611 0.58259 0.0
C1061 C 0.29852 0.58706 0.53992 0.0
C1062 C 0.30975 0.53214 0.53554 0.0
C1063 C 0.30205 0.56791 0.53365 0.0
N1064 N 0.3041 0.56356 0.54528 0.0
N1065 N 0.31041 0.53075 0.54262 0.0
C1066 C 0.29295 0.62734 0.54081 0.0
H1067 H 0.31313 0.64253 0.53756 0.0
H1068 H 0.29554 0.63536 0.54643 0.0
H1069 H 0.26521 0.6349 0.53894 0.0
C1070 C 0.22746 0.59294 0.56835 0.0
N1071 N 0.2621 0.58656 0.56629 0.0
N1072 N 0.26251 0.5792 0.5595 0.0
C1073 C 0.22787 0.57949 0.55705 0.0
C1074 C 0.2044 0.58853 0.56257 0.0
C1075 C 0.21734 0.60532 0.57562 0.0
H1076 H 0.23839 0.62448 0.57765 0.0
H1077 H 0.19034 0.6192 0.57568 0.0
H1078 H 0.21644 0.58123 0.57918 0.0
O1079 O 0.33318 0.53921 0.57043 0.0
O1080 O 0.33506 0.52984 0.55892 0.0
H1081 H 0.23566 0.5467 0.54778 0.0
H1082 H 0.18872 0.55901 0.54945 0.0
C1083 C 0.21743 0.56877 0.5497 0.0
H1084 H 0.22046 0.5928 0.54617 0.0
H1085 H 0.31624 0.50758 0.54563 0.0
O1086 O 0.29846 0.59021 0.58162 0.0
C1087 C 0.34316 0.52017 0.56516 0.0
C1088 C 0.36192 0.893 0.31978 0.0
C1089 C 0.34037 0.91102 0.31471 0.0
C1090 C 0.36285 0.85472 0.32004 0.0
C1091 C 0.35267 0.77276 0.30964 0.0
H1092 H 0.30437 0.72706 0.32556 0.0
C1093 C 0.27742 0.63695 0.30723 0.0
C1094 C 0.26878 0.61653 0.31328 0.0
C1095 C 0.29862 0.66859 0.30775 0.0
C1096 C 0.31903 0.7389 0.32115 0.0
H1097 H 0.30262 0.90321 0.30602 0.0
H1098 H 0.30569 0.83647 0.30627 0.0
H1099 H 0.31808 0.79218 0.3259 0.0
H1100 H 0.27939 0.6107 0.32448 0.0
H1101 H 0.3179 0.66497 0.32534 0.0
H1102 H 0.35362 0.71988 0.30483 0.0
C1103 C 0.32177 0.85199 0.31003 0.0
C1104 C 0.32663 0.77635 0.32135 0.0
C1105 C 0.32012 0.89011 0.30987 0.0
C1106 C 0.28508 0.6262 0.31973 0.0
C1107 C 0.30688 0.65756 0.32024 0.0
C1108 C 0.34585 0.73514 0.30949 0.0
C1109 C 0.34297 0.83403 0.31513 0.0
C1110 C 0.34216 0.79373 0.31549 0.0
C1111 C 0.3123 0.68025 0.31432 0.0
C1112 C 0.32738 0.71798 0.31511 0.0
H1113 H 0.37813 0.90846 0.32352 0.0
H1114 H 0.37921 0.84126 0.32404 0.0
H1115 H 0.36496 0.78574 0.30508 0.0
H1116 H 0.26542 0.63028 0.30216 0.0
H1117 H 0.30178 0.68521 0.30307 0.0
C1118 C 0.36261 0.07469 0.57223 0.0
C1119 C 0.34561 0.09426 0.56676 0.0
C1120 C 0.40068 0.0744 0.57284 0.0
C1121 C 0.48166 0.07963 0.56193 0.0
H1122 H 0.53312 0.08271 0.57981 0.0
C1123 C 0.63066 0.03398 0.56318 0.0
C1124 C 0.63808 0.00897 0.56863 0.0
C1125 C 0.59945 0.05605 0.56344 0.0
C1126 C 0.5192 0.08173 0.57478 0.0
H1127 H 0.35468 0.1301 0.55784 0.0
H1128 H 0.42157 0.12876 0.55877 0.0
H1129 H 0.46825 0.09874 0.57933 0.0
H1130 H 0.62027 0.98979 0.5789 0.0
H1131 H 0.56553 0.02714 0.57926 0.0
H1132 H 0.53146 0.06038 0.55741 0.0
C1133 C 0.4054 0.11372 0.56258 0.0
C1134 C 0.4821 0.09102 0.57451 0.0
C1135 C 0.36726 0.11434 0.56203 0.0
C1136 C 0.61534 0.0087 0.57461 0.0
C1137 C 0.5839 0.03038 0.57482 0.0
C1138 C 0.51857 0.06993 0.56221 0.0
C1139 C 0.42248 0.09339 0.56795 0.0
C1140 C 0.46278 0.08913 0.56811 0.0
C1141 C 0.57473 0.0532 0.56911 0.0
C1142 C 0.53759 0.06985 0.56867 0.0
H1143 H 0.34652 0.05867 0.5759 0.0
H1144 H 0.41311 0.05802 0.57695 0.0
H1145 H 0.46737 0.07755 0.55694 0.0
H1146 H 0.64796 0.03523 0.55855 0.0
H1147 H 0.59381 0.07407 0.55904 0.0
C1148 C 0.18113 0.11181 0.81831 0.0
C1149 C 0.16417 0.09092 0.81302 0.0
C1150 C 0.17878 0.14992 0.81822 0.0
C1151 C 0.17685 0.22508 0.80638 0.0
H1152 H 0.15077 0.28304 0.82275 0.0
C1153 C 0.21895 0.37538 0.80753 0.0
C1154 C 0.2357 0.38531 0.81393 0.0
C1155 C 0.19716 0.34395 0.80713 0.0
C1156 C 0.15828 0.26734 0.81813 0.0
H1157 H 0.13068 0.09344 0.80359 0.0
H1158 H 0.12835 0.16052 0.80322 0.0
H1159 H 0.13887 0.21728 0.82272 0.0
H1160 H 0.23983 0.37191 0.82506 0.0
H1161 H 0.20347 0.31697 0.82433 0.0
H1162 H 0.19925 0.27391 0.80199 0.0
C1163 C 0.14287 0.14714 0.80749 0.0
C1164 C 0.15119 0.22976 0.81811 0.0
C1165 C 0.14451 0.10891 0.80767 0.0
C1166 C 0.2276 0.365 0.82003 0.0
C1167 C 0.20633 0.3334 0.81961 0.0
C1168 C 0.18468 0.26249 0.80645 0.0
C1169 C 0.16008 0.1679 0.81275 0.0
C1170 C 0.1614 0.20822 0.81231 0.0
C1171 C 0.19208 0.32156 0.8131 0.0
C1172 C 0.17667 0.28392 0.81244 0.0
H1173 H 0.19705 0.09875 0.82242 0.0
H1174 H 0.1928 0.16544 0.82227 0.0
H1175 H 0.18516 0.20889 0.80186 0.0
H1176 H 0.2242 0.39075 0.80275 0.0
H1177 H 0.18577 0.33631 0.80207 0.0
C1178 C 0.14237 0.89438 0.05903 0.0
C1179 C 0.1609 0.91528 0.06413 0.0
C1180 C 0.10412 0.89322 0.05894 0.0
C1181 C 0.02223 0.906 0.06961 0.0
H1182 H 0.97837 0.95114 0.05316 0.0
C1183 C 0.88974 0.98713 0.07112 0.0
C1184 C 0.86915 0.99416 0.06501 0.0
C1185 C 0.92064 0.96482 0.07083 0.0
C1186 C 0.98967 0.93738 0.05772 0.0
H1187 H 0.15413 0.95082 0.07318 0.0
H1188 H 0.08736 0.94751 0.07321 0.0
H1189 H 0.04293 0.93519 0.05301 0.0
H1190 H 0.86242 0.97992 0.05398 0.0
H1191 H 0.91562 0.9397 0.05353 0.0
H1192 H 0.9693 0.90836 0.07438 0.0
C1193 C 0.10246 0.93214 0.06929 0.0
C1194 C 0.02682 0.92847 0.05763 0.0
C1195 C 0.14058 0.93399 0.06927 0.0
C1196 C 0.87808 0.97552 0.05876 0.0
C1197 C 0.90877 0.95267 0.05849 0.0
C1198 C 0.98488 0.91417 0.06965 0.0
C1199 C 0.08392 0.91218 0.06407 0.0
C1200 C 0.04364 0.91413 0.06368 0.0
C1201 C 0.93145 0.94843 0.06444 0.0
C1202 C 0.96847 0.9316 0.06383 0.0
H1203 H 0.15745 0.87925 0.05507 0.0
H1204 H 0.09029 0.87773 0.05486 0.0
H1205 H 0.03469 0.89456 0.07431 0.0
H1206 H 0.8836 0.0009 0.07604 0.0
H1207 H 0.93738 0.96269 0.07552 0.0
C1208 C 0.25896 0.37159 0.17542 0.0
C1209 C 0.24443 0.38224 0.18197 0.0
C1210 C 0.28131 0.34062 0.1749 0.0
C1211 C 0.32632 0.26695 0.18579 0.0
H1212 H 0.2965 0.2053 0.17015 0.0
C1213 C 0.30782 0.11077 0.18669 0.0
C1214 C 0.32782 0.09005 0.18179 0.0
C1215 C 0.3076 0.14889 0.18631 0.0
C1216 C 0.30557 0.22245 0.17448 0.0
H1217 H 0.24463 0.37054 0.1932 0.0
H1218 H 0.28193 0.31627 0.19229 0.0
H1219 H 0.27992 0.2698 0.17015 0.0
H1220 H 0.36331 0.09297 0.17264 0.0
H1221 H 0.36104 0.15997 0.17173 0.0
H1222 H 0.34899 0.21823 0.19036 0.0
C1223 C 0.27696 0.33187 0.18753 0.0
C1224 C 0.29634 0.25955 0.17448 0.0
C1225 C 0.25517 0.36307 0.18805 0.0
C1226 C 0.34731 0.10824 0.17644 0.0
C1227 C 0.34634 0.14644 0.17595 0.0
C1228 C 0.33479 0.22967 0.18585 0.0
C1229 C 0.28914 0.31933 0.18091 0.0
C1230 C 0.3055 0.28208 0.18025 0.0
C1231 C 0.32661 0.16696 0.18091 0.0
C1232 C 0.3236 0.20704 0.18028 0.0
H1233 H 0.25161 0.38608 0.17064 0.0
H1234 H 0.29105 0.33246 0.16974 0.0
H1235 H 0.33476 0.28353 0.19023 0.0
H1236 H 0.2918 0.09751 0.19076 0.0
H1237 H 0.29166 0.16427 0.19011 0.0
C1238 C 0.13543 0.10182 0.43729 0.0
C1239 C 0.15464 0.08159 0.43219 0.0
C1240 C 0.09716 0.10257 0.43726 0.0
C1241 C 0.0162 0.08838 0.42622 0.0
H1242 H 0.97079 0.04739 0.44291 0.0
C1243 C 0.88148 0.00988 0.42517 0.0
C1244 C 0.86047 0.00504 0.43131 0.0
C1245 C 0.91311 0.03123 0.42531 0.0
C1246 C 0.98256 0.05994 0.43827 0.0
H1247 H 0.14897 0.04676 0.423 0.0
H1248 H 0.08222 0.04924 0.42278 0.0
H1249 H 0.0355 0.06268 0.44309 0.0
H1250 H 0.85391 0.0222 0.44219 0.0
H1251 H 0.90836 0.06075 0.44235 0.0
H1252 H 0.96354 0.08545 0.42134 0.0
C1253 C 0.09678 0.06449 0.4268 0.0
C1254 C 0.0198 0.06849 0.43837 0.0
C1255 C 0.13494 0.06312 0.42692 0.0
C1256 C 0.86982 0.02494 0.43739 0.0
C1257 C 0.90125 0.04679 0.4375 0.0
C1258 C 0.97877 0.0805 0.42614 0.0
C1259 C 0.07754 0.08378 0.43202 0.0
C1260 C 0.03718 0.08147 0.43227 0.0
C1261 C 0.92427 0.04879 0.43156 0.0
C1262 C 0.96176 0.0647 0.43207 0.0
H1263 H 0.15 0.11675 0.44135 0.0
H1264 H 0.08285 0.11762 0.44134 0.0
H1265 H 0.02901 0.0988 0.42147 0.0
H1266 H 0.87508 0.99506 0.42038 0.0
H1267 H 0.93007 0.03168 0.42063 0.0
C1268 C 0.16822 0.8846 0.67507 0.0
C1269 C 0.15053 0.9035 0.68054 0.0
C1270 C 0.16721 0.84643 0.67481 0.0
C1271 C 0.16404 0.76885 0.68649 0.0
H1272 H 0.15289 0.71259 0.66928 0.0
C1273 C 0.20998 0.61975 0.68597 0.0
C1274 C 0.23223 0.61098 0.68017 0.0
C1275 C 0.18754 0.65074 0.68581 0.0
C1276 C 0.15616 0.72785 0.67414 0.0
H1277 H 0.11647 0.89766 0.68982 0.0
H1278 H 0.11581 0.83062 0.68952 0.0
H1279 H 0.13787 0.77774 0.66932 0.0
H1280 H 0.24588 0.62604 0.66941 0.0
H1281 H 0.2081 0.68035 0.6692 0.0
H1282 H 0.18487 0.72019 0.69121 0.0
C1283 C 0.1303 0.84541 0.68543 0.0
C1284 C 0.14739 0.7651 0.67416 0.0
C1285 C 0.13087 0.88364 0.68562 0.0
C1286 C 0.22924 0.63205 0.67399 0.0
C1287 C 0.20724 0.66325 0.67386 0.0
C1288 C 0.17334 0.73181 0.68645 0.0
C1289 C 0.14886 0.82646 0.68007 0.0
C1290 C 0.15223 0.78611 0.68028 0.0
C1291 C 0.18728 0.67388 0.67987 0.0
C1292 C 0.17061 0.71105 0.68022 0.0
H1293 H 0.1839 0.89926 0.67113 0.0
H1294 H 0.18221 0.83247 0.67068 0.0
H1295 H 0.16834 0.78452 0.69127 0.0
H1296 H 0.21124 0.60375 0.69078 0.0
H1297 H 0.17175 0.65749 0.69046 0.0
C1298 C 0.61835 0.97488 0.93376 0.0
C1299 C 0.63501 0.99451 0.92824 0.0
C1300 C 0.58636 0.95488 0.93254 0.0
C1301 C 0.50709 0.9641 0.92133 0.0
H1302 H 0.47224 0.87785 0.93119 0.0
C1303 C 0.36014 0.8888 0.92408 0.0
C1304 C 0.34128 0.91485 0.92813 0.0
C1305 C 0.39807 0.89165 0.92317 0.0
C1306 C 0.48185 0.90164 0.92833 0.0
H1307 H 0.63356 0.00493 0.91697 0.0
H1308 H 0.57787 0.96996 0.91487 0.0
H1309 H 0.53805 0.89185 0.93105 0.0
H1310 H 0.34648 0.96442 0.9343 0.0
H1311 H 0.41264 0.96994 0.93256 0.0
H1312 H 0.45079 0.97507 0.91898 0.0
C1313 C 0.58916 0.97066 0.92015 0.0
C1314 C 0.51931 0.90973 0.92827 0.0
C1315 C 0.62113 0.99063 0.92136 0.0
C1316 C 0.36061 0.94391 0.9312 0.0
C1317 C 0.39824 0.9471 0.9302 0.0
C1318 C 0.46977 0.95628 0.92147 0.0
C1319 C 0.57049 0.95411 0.92579 0.0
C1320 C 0.53218 0.94152 0.92489 0.0
C1321 C 0.41721 0.92102 0.92618 0.0
C1322 C 0.45685 0.9255 0.9251 0.0
H1323 H 0.62846 0.97701 0.93912 0.0
H1324 H 0.57256 0.94249 0.937 0.0
H1325 H 0.516 0.98908 0.91878 0.0
H1326 H 0.34558 0.8662 0.92167 0.0
H1327 H 0.41234 0.87137 0.92004 0.0
C1328 C 0.71401 0.36965 0.69132 0.0
C1329 C 0.72873 0.38072 0.68481 0.0
C1330 C 0.69181 0.33849 0.69174 0.0
C1331 C 0.64796 0.26494 0.68063 0.0
H1332 H 0.67856 0.2027 0.69612 0.0
C1333 C 0.66683 0.1087 0.67921 0.0
C1334 C 0.65132 0.08744 0.6846 0.0
C1335 C 0.66533 0.14685 0.67951 0.0
C1336 C 0.66924 0.21995 0.69183 0.0
H1337 H 0.72869 0.36978 0.67355 0.0
H1338 H 0.69169 0.31534 0.6743 0.0
H1339 H 0.69401 0.26738 0.6963 0.0
H1340 H 0.62082 0.08938 0.69441 0.0
H1341 H 0.62004 0.15636 0.69513 0.0
H1342 H 0.62606 0.21624 0.67592 0.0
C1343 C 0.69647 0.33062 0.6791 0.0
C1344 C 0.67785 0.25719 0.69194 0.0
C1345 C 0.71813 0.36194 0.67867 0.0
C1346 C 0.63364 0.1051 0.69024 0.0
C1347 C 0.63287 0.1433 0.69063 0.0
C1348 C 0.6401 0.22752 0.68046 0.0
C1349 C 0.68428 0.31753 0.68568 0.0
C1350 C 0.66842 0.28 0.68623 0.0
C1351 C 0.64891 0.16444 0.68529 0.0
C1352 C 0.65157 0.20462 0.68596 0.0
H1353 H 0.72121 0.38381 0.69615 0.0
H1354 H 0.68204 0.3299 0.69687 0.0
H1355 H 0.63932 0.28172 0.67623 0.0
H1356 H 0.68117 0.09591 0.67486 0.0
H1357 H 0.67838 0.16265 0.67538 0.0
C1358 C 0.62988 0.92832 0.43518 0.0
C1359 C 0.65182 0.90617 0.43086 0.0
C1360 C 0.59184 0.92593 0.43486 0.0
C1361 C 0.51817 0.919 0.42372 0.0
H1362 H 0.45986 0.88753 0.4397 0.0
C1363 C 0.36834 0.96095 0.42512 0.0
C1364 C 0.35839 0.97598 0.43167 0.0
C1365 C 0.39936 0.93872 0.42454 0.0
C1366 C 0.47564 0.89648 0.43518 0.0
H1367 H 0.65117 0.86403 0.4228 0.0
H1368 H 0.58406 0.86147 0.42195 0.0
H1369 H 0.52584 0.87652 0.43964 0.0
H1370 H 0.37108 0.97646 0.44286 0.0
H1371 H 0.42546 0.93934 0.44183 0.0
H1372 H 0.46933 0.94222 0.41952 0.0
C1373 C 0.59669 0.87999 0.42569 0.0
C1374 C 0.5133 0.88981 0.43514 0.0
C1375 C 0.6349 0.88177 0.42613 0.0
C1376 C 0.37804 0.96552 0.43772 0.0
C1377 C 0.40933 0.94387 0.43712 0.0
C1378 C 0.48068 0.92638 0.42382 0.0
C1379 C 0.57503 0.90193 0.43009 0.0
C1380 C 0.53487 0.90198 0.4295 0.0
C1381 C 0.42141 0.93158 0.43048 0.0
C1382 C 0.4591 0.91643 0.42968 0.0
H1383 H 0.64212 0.9479 0.43876 0.0
H1384 H 0.57547 0.94351 0.43821 0.0
H1385 H 0.53455 0.92887 0.41935 0.0
H1386 H 0.3534 0.96801 0.42038 0.0
H1387 H 0.4071 0.9288 0.41937 0.0
C1388 C 0.84581 0.87991 0.17836 0.0
C1389 C 0.82462 0.89889 0.18335 0.0
C1390 C 0.84717 0.84162 0.17844 0.0
C1391 C 0.83448 0.76194 0.18984 0.0
H1392 H 0.79734 0.71178 0.17332 0.0
C1393 C 0.75874 0.62598 0.1915 0.0
C1394 C 0.75487 0.60404 0.18546 0.0
C1395 C 0.78003 0.65767 0.19128 0.0
C1396 C 0.80888 0.72491 0.17793 0.0
H1397 H 0.78768 0.89283 0.19222 0.0
H1398 H 0.79118 0.82619 0.19253 0.0
H1399 H 0.81033 0.77694 0.17272 0.0
H1400 H 0.77402 0.59549 0.17476 0.0
H1401 H 0.81248 0.64994 0.17448 0.0
H1402 H 0.83269 0.71026 0.19511 0.0
C1403 C 0.80691 0.84088 0.1886 0.0
C1404 C 0.8161 0.7624 0.17757 0.0
C1405 C 0.80494 0.87896 0.18842 0.0
C1406 C 0.77597 0.6122 0.17947 0.0
C1407 C 0.79777 0.64363 0.17929 0.0
C1408 C 0.82792 0.72431 0.19017 0.0
C1409 C 0.82794 0.82187 0.18361 0.0
C1410 C 0.82754 0.78143 0.1836 0.0
C1411 C 0.79844 0.66784 0.18506 0.0
C1412 C 0.81348 0.70558 0.18431 0.0
H1413 H 0.86148 0.89465 0.17443 0.0
H1414 H 0.86341 0.82744 0.17452 0.0
H1415 H 0.84375 0.77609 0.19453 0.0
H1416 H 0.74293 0.62046 0.19621 0.0
H1417 H 0.77955 0.67553 0.19584 0.0
C1418 C 0.12696 0.02517 0.93838 0.0
C1419 C 0.13658 0.00806 0.932 0.0
C1420 C 0.09639 0.04817 0.93871 0.0
C1421 C 0.02219 0.09055 0.92762 0.0
H1422 H 0.96135 0.0634 0.94354 0.0
C1423 C 0.86571 0.07625 0.92662 0.0
C1424 C 0.84511 0.08941 0.93232 0.0
C1425 C 0.90389 0.07773 0.92678 0.0
C1426 C 0.97818 0.07186 0.93913 0.0
H1427 H 0.12379 0.00465 0.92083 0.0
H1428 H 0.07031 0.04331 0.92145 0.0
H1429 H 0.02577 0.04719 0.94356 0.0
H1430 H 0.84802 0.116 0.94253 0.0
H1431 H 0.91501 0.11721 0.94294 0.0
H1432 H 0.97339 0.11265 0.92299 0.0
C1433 C 0.08632 0.03964 0.9262 0.0
C1434 C 0.01528 0.06277 0.93914 0.0
C1435 C 0.11702 0.01707 0.92586 0.0
C1436 C 0.86333 0.10501 0.93812 0.0
C1437 C 0.90154 0.10597 0.93834 0.0
C1438 C 0.98491 0.09909 0.92756 0.0
C1439 C 0.07463 0.05421 0.93269 0.0
C1440 C 0.03754 0.07086 0.93328 0.0
C1441 C 0.92214 0.09197 0.9327 0.0
C1442 C 0.96241 0.08883 0.93322 0.0
H1443 H 0.14177 0.01925 0.9432 0.0
H1444 H 0.0888 0.05974 0.94376 0.0
H1445 H 0.03862 0.09802 0.92309 0.0
H1446 H 0.85237 0.06369 0.92213 0.0
H1447 H 0.91917 0.06623 0.92241 0.0
C1448 C 0.71744 0.62733 0.80979 0.0
C1449 C 0.73908 0.61795 0.81564 0.0
C1450 C 0.69461 0.65803 0.81002 0.0
C1451 C 0.66089 0.73296 0.82199 0.0
H1452 H 0.67304 0.79211 0.80517 0.0
C1453 C 0.6709 0.89006 0.82172 0.0
C1454 C 0.65305 0.90926 0.81631 0.0
C1455 C 0.67026 0.85184 0.82185 0.0
C1456 C 0.66876 0.77573 0.80986 0.0
H1457 H 0.75132 0.63167 0.82653 0.0
H1458 H 0.71295 0.6855 0.82686 0.0
H1459 H 0.6908 0.72813 0.80496 0.0
H1460 H 0.6189 0.90388 0.80702 0.0
H1461 H 0.61895 0.83682 0.8071 0.0
H1462 H 0.64144 0.78186 0.82701 0.0
C1463 C 0.71281 0.66908 0.82211 0.0
C1464 C 0.67876 0.73888 0.80974 0.0
C1465 C 0.73517 0.63815 0.82191 0.0
C1466 C 0.63343 0.88964 0.81118 0.0
C1467 C 0.63327 0.8514 0.81125 0.0
C1468 C 0.65146 0.77003 0.82214 0.0
C1469 C 0.69334 0.68029 0.81608 0.0
C1470 C 0.67604 0.71723 0.81587 0.0
C1471 C 0.65214 0.83217 0.81653 0.0
C1472 C 0.65626 0.79194 0.81613 0.0
H1473 H 0.71942 0.61201 0.80491 0.0
H1474 H 0.67923 0.66522 0.80534 0.0
H1475 H 0.65757 0.71699 0.82676 0.0
H1476 H 0.68654 0.90451 0.82569 0.0
H1477 H 0.68546 0.83766 0.82593 0.0
C1478 C 0.12993 0.9748 0.55971 0.0
C1479 C 0.1389 0.99624 0.56562 0.0
C1480 C 0.09932 0.95183 0.55984 0.0
C1481 C 0.02415 0.91699 0.57158 0.0
H1482 H 0.96486 0.93284 0.55489 0.0
C1483 C 0.8675 0.9287 0.57175 0.0
C1484 C 0.84761 0.91258 0.56623 0.0
C1485 C 0.90569 0.92766 0.57174 0.0
C1486 C 0.98126 0.92749 0.55954 0.0
H1487 H 0.12473 0.0077 0.57652 0.0
H1488 H 0.07116 0.96892 0.57668 0.0
H1489 H 0.02912 0.94964 0.55474 0.0
H1490 H 0.85175 0.88131 0.55656 0.0
H1491 H 0.91879 0.88061 0.55641 0.0
H1492 H 0.97513 0.8973 0.57651 0.0
C1493 C 0.08777 0.96921 0.57196 0.0
C1494 C 0.01826 0.93695 0.55945 0.0
C1495 C 0.11852 0.9918 0.57185 0.0
C1496 C 0.86653 0.89451 0.56081 0.0
C1497 C 0.90477 0.8939 0.56074 0.0
C1498 C 0.98698 0.908 0.57169 0.0
C1499 C 0.07687 0.95012 0.56586 0.0
C1500 C 0.03992 0.93299 0.56555 0.0
C1501 C 0.92469 0.91084 0.56617 0.0
C1502 C 0.96499 0.91422 0.56574 0.0
H1503 H 0.14538 0.97717 0.55485 0.0
H1504 H 0.0923 0.93678 0.55511 0.0
H1505 H 0.04016 0.91277 0.57632 0.0
H1506 H 0.85358 0.94316 0.57595 0.0
H1507 H 0.92038 0.94145 0.57593 0.0
C1508 C 0.81901 0.1206 0.30951 0.0
C1509 C 0.84246 0.10185 0.31413 0.0
C1510 C 0.81973 0.15867 0.30913 0.0
C1511 C 0.83332 0.23937 0.31923 0.0
H1512 H 0.84125 0.28779 0.30108 0.0
C1513 C 0.79035 0.3885 0.31684 0.0
C1514 C 0.76665 0.39524 0.31114 0.0
C1515 C 0.81259 0.35739 0.31689 0.0
C1516 C 0.83891 0.27479 0.30619 0.0
H1517 H 0.88439 0.10813 0.32212 0.0
H1518 H 0.88421 0.17541 0.32173 0.0
H1519 H 0.85348 0.22227 0.302 0.0
H1520 H 0.7502 0.37659 0.30076 0.0
H1521 H 0.78764 0.32194 0.30095 0.0
H1522 H 0.81575 0.29066 0.32337 0.0
C1523 C 0.86603 0.16029 0.31828 0.0
C1524 C 0.84616 0.23735 0.30672 0.0
C1525 C 0.86588 0.12198 0.31855 0.0
C1526 C 0.76815 0.37218 0.30523 0.0
C1527 C 0.78987 0.34074 0.30534 0.0
C1528 C 0.82539 0.27666 0.3187 0.0
C1529 C 0.84329 0.17883 0.31349 0.0
C1530 C 0.84233 0.21919 0.3132 0.0
C1531 C 0.81106 0.33202 0.31132 0.0
C1532 C 0.82685 0.29463 0.31212 0.0
H1533 H 0.80007 0.10579 0.30617 0.0
H1534 H 0.80135 0.17244 0.30551 0.0
H1535 H 0.82998 0.22582 0.32428 0.0
H1536 H 0.79017 0.40614 0.32143 0.0
H1537 H 0.82943 0.35224 0.32149 0.0
C1538 C 0.63911 0.07066 0.06163 0.0
C1539 C 0.66051 0.0906 0.06643 0.0
C1540 C 0.60103 0.07246 0.0619 0.0
C1541 C 0.5266 0.07579 0.07336 0.0
H1542 H 0.46879 0.10524 0.05716 0.0
C1543 C 0.3773 0.03164 0.07162 0.0
C1544 C 0.3679 0.0163 0.06507 0.0
C1545 C 0.40816 0.05403 0.07226 0.0
C1546 C 0.48443 0.09682 0.06174 0.0
H1547 H 0.65877 0.12812 0.07529 0.0
H1548 H 0.59168 0.12936 0.07603 0.0
H1549 H 0.5345 0.11746 0.05736 0.0
H1550 H 0.38155 0.01515 0.05393 0.0
H1551 H 0.4357 0.05254 0.05505 0.0
H1552 H 0.47789 0.05194 0.07749 0.0
C1553 C 0.60475 0.11312 0.07196 0.0
C1554 C 0.52194 0.10416 0.06186 0.0
C1555 C 0.64299 0.11204 0.07158 0.0
C1556 C 0.38808 0.02636 0.05907 0.0
C1557 C 0.4192 0.04818 0.05972 0.0
C1558 C 0.48926 0.0677 0.07318 0.0
C1559 C 0.5836 0.09352 0.06708 0.0
C1560 C 0.54339 0.09269 0.06758 0.0
C1561 C 0.43058 0.06104 0.06637 0.0
C1562 C 0.46792 0.07688 0.06724 0.0
H1563 H 0.65175 0.05318 0.05771 0.0
H1564 H 0.58512 0.05657 0.05817 0.0
H1565 H 0.54283 0.06649 0.0778 0.0
H1566 H 0.36194 0.02486 0.07633 0.0
H1567 H 0.41541 0.06433 0.07743 0.0
C1568 C 0.85419 0.38952 0.80986 0.0
C1569 C 0.83523 0.40958 0.81502 0.0
C1570 C 0.85426 0.35126 0.81004 0.0
C1571 C 0.83855 0.27167 0.82153 0.0
H1572 H 0.80057 0.2247 0.80473 0.0
C1573 C 0.75844 0.13769 0.82235 0.0
C1574 C 0.75531 0.11604 0.81625 0.0
C1575 C 0.78013 0.16912 0.82233 0.0
C1576 C 0.81225 0.23693 0.80942 0.0
H1577 H 0.80177 0.4055 0.82442 0.0
H1578 H 0.80272 0.33876 0.82484 0.0
H1579 H 0.81614 0.28929 0.80441 0.0
H1580 H 0.77591 0.10801 0.80563 0.0
H1581 H 0.81484 0.16216 0.80569 0.0
H1582 H 0.83418 0.21954 0.82659 0.0
C1583 C 0.81769 0.35259 0.82069 0.0
C1584 C 0.82098 0.27411 0.80923 0.0
C1585 C 0.81714 0.39075 0.82045 0.0
C1586 C 0.77727 0.12443 0.81038 0.0
C1587 C 0.79937 0.15567 0.81039 0.0
C1588 C 0.83035 0.23432 0.8217 0.0
C1589 C 0.83586 0.33247 0.81544 0.0
C1590 C 0.83295 0.29207 0.81535 0.0
C1591 C 0.79963 0.1794 0.81624 0.0
C1592 C 0.81572 0.21677 0.81572 0.0
H1593 H 0.8688 0.40341 0.80568 0.0
H1594 H 0.86853 0.33633 0.80593 0.0
H1595 H 0.84825 0.28486 0.82629 0.0
H1596 H 0.74203 0.132 0.82698 0.0
H1597 H 0.77931 0.18666 0.82693 0.0
C1598 C 0.11721 0.53447 0.05972 0.0
C1599 C 0.13733 0.52375 0.06569 0.0
C1600 C 0.08565 0.55562 0.06045 0.0
C1601 C 0.01475 0.57105 0.07395 0.0
H1602 H 0.96816 0.62158 0.05837 0.0
C1603 C 0.85961 0.61246 0.07216 0.0
C1604 C 0.84296 0.58956 0.06713 0.0
C1605 C 0.89781 0.61465 0.07261 0.0
C1606 C 0.98109 0.60808 0.06281 0.0
H1607 H 0.14279 0.53077 0.077 0.0
H1608 H 0.0886 0.56912 0.07824 0.0
H1609 H 0.03425 0.61147 0.05816 0.0
H1610 H 0.85315 0.55079 0.0587 0.0
H1611 H 0.91969 0.556 0.05927 0.0
H1612 H 0.96115 0.56749 0.07852 0.0
C1613 C 0.09621 0.55978 0.07303 0.0
C1614 C 0.01882 0.60193 0.06267 0.0
C1615 C 0.12751 0.53805 0.07231 0.0
C1616 C 0.86515 0.56925 0.06253 0.0
C1617 C 0.90315 0.57212 0.06286 0.0
C1618 C 0.97716 0.57794 0.07415 0.0
C1619 C 0.07375 0.56715 0.06716 0.0
C1620 C 0.0359 0.58174 0.06808 0.0
C1621 C 0.91973 0.59467 0.06791 0.0
C1622 C 0.95993 0.59516 0.06845 0.0
H1623 H 0.12403 0.52409 0.05453 0.0
H1624 H 0.0692 0.56035 0.05579 0.0
H1625 H 0.02653 0.55503 0.07819 0.0
H1626 H 0.84315 0.62878 0.07572 0.0
H1627 H 0.91024 0.63203 0.07657 0.0
C1628 C 0.74238 0.87205 0.30856 0.0
C1629 C 0.75084 0.89258 0.31461 0.0
C1630 C 0.72077 0.84069 0.30907 0.0
C1631 C 0.69819 0.77075 0.32239 0.0
H1632 H 0.64957 0.72635 0.30635 0.0
C1633 C 0.65124 0.61808 0.32106 0.0
C1634 C 0.66962 0.59978 0.31558 0.0
C1635 C 0.65192 0.65635 0.32145 0.0
C1636 C 0.66265 0.73863 0.3109 0.0
H1637 H 0.73991 0.89862 0.3258 0.0
H1638 H 0.70093 0.84468 0.32664 0.0
H1639 H 0.6636 0.79166 0.30615 0.0
H1640 H 0.70381 0.60703 0.30634 0.0
H1641 H 0.70355 0.6737 0.30684 0.0
H1642 H 0.69739 0.71732 0.32707 0.0
C1643 C 0.71222 0.85193 0.32154 0.0
C1644 C 0.67097 0.77593 0.31078 0.0
C1645 C 0.73434 0.88306 0.32105 0.0
C1646 C 0.68858 0.62038 0.31051 0.0
C1647 C 0.68853 0.65848 0.3108 0.0
C1648 C 0.68919 0.7336 0.32256 0.0
C1649 C 0.70658 0.82937 0.31563 0.0
C1650 C 0.69034 0.79216 0.31639 0.0
C1651 C 0.6703 0.67677 0.31628 0.0
C1652 C 0.67269 0.71702 0.3167 0.0
H1653 H 0.75458 0.87861 0.30351 0.0
H1654 H 0.71747 0.82404 0.30439 0.0
H1655 H 0.71347 0.78193 0.32678 0.0
H1656 H 0.6362 0.60284 0.32501 0.0
H1657 H 0.63789 0.67 0.32574 0.0
C1658 C 0.37992 0.47923 0.57308 0.0
C1659 C 0.36987 0.49019 0.56624 0.0
C1660 C 0.41114 0.45779 0.57415 0.0
C1661 C 0.48709 0.409 0.5646 0.0
H1662 H 0.54687 0.45234 0.57931 0.0
C1663 C 0.64097 0.44118 0.56347 0.0
C1664 C 0.66329 0.41988 0.56788 0.0
C1665 C 0.60301 0.43992 0.56412 0.0
C1666 C 0.53024 0.43942 0.57528 0.0
H1667 H 0.38266 0.48415 0.55512 0.0
H1668 H 0.4373 0.44815 0.55697 0.0
H1669 H 0.48156 0.46551 0.57891 0.0
H1670 H 0.66346 0.38102 0.57653 0.0
H1671 H 0.59647 0.38025 0.57788 0.0
H1672 H 0.53702 0.38584 0.56064 0.0
C1673 C 0.4211 0.45544 0.56154 0.0
C1674 C 0.49273 0.44673 0.57505 0.0
C1675 C 0.38969 0.47642 0.56047 0.0
C1676 C 0.64688 0.39791 0.57309 0.0
C1677 C 0.60874 0.39718 0.57383 0.0
C1678 C 0.52472 0.40224 0.56477 0.0
C1679 C 0.4332 0.44725 0.56842 0.0
C1680 C 0.47087 0.43273 0.56955 0.0
C1681 C 0.58668 0.41793 0.56929 0.0
C1682 C 0.54659 0.41829 0.57 0.0
H1683 H 0.3649 0.48891 0.57764 0.0
H1684 H 0.41901 0.45113 0.57951 0.0
H1685 H 0.47106 0.39706 0.56038 0.0
H1686 H 0.65287 0.45901 0.55953 0.0
H1687 H 0.58632 0.45656 0.56064 0.0
C1688 C 0.76437 0.86969 0.67494 0.0
C1689 C 0.75292 0.88071 0.68169 0.0
C1690 C 0.78591 0.83833 0.67409 0.0
C1691 C 0.83398 0.76384 0.68425 0.0
H1692 H 0.7945 0.70235 0.6694 0.0
C1693 C 0.80675 0.60897 0.68569 0.0
C1694 C 0.82681 0.58696 0.68101 0.0
C1695 C 0.80768 0.64699 0.6851 0.0
C1696 C 0.8063 0.71945 0.67348 0.0
H1697 H 0.75803 0.86939 0.69289 0.0
H1698 H 0.79402 0.81452 0.69143 0.0
H1699 H 0.78018 0.76742 0.66953 0.0
H1700 H 0.86342 0.58751 0.672 0.0
H1701 H 0.86329 0.65448 0.67074 0.0
H1702 H 0.85711 0.71458 0.68852 0.0
C1703 C 0.78716 0.83006 0.68675 0.0
C1704 C 0.79834 0.75685 0.67355 0.0
C1705 C 0.76616 0.86163 0.6876 0.0
C1706 C 0.8474 0.60379 0.67564 0.0
C1707 C 0.84764 0.64195 0.67495 0.0
C1708 C 0.84125 0.7263 0.68425 0.0
C1709 C 0.79601 0.81706 0.67997 0.0
C1710 C 0.81099 0.77936 0.67908 0.0
C1711 C 0.82798 0.66371 0.67972 0.0
C1712 C 0.82661 0.70378 0.67897 0.0
H1713 H 0.75507 0.8841 0.67027 0.0
H1714 H 0.79309 0.82982 0.6688 0.0
H1715 H 0.84501 0.78035 0.68849 0.0
H1716 H 0.78992 0.5968 0.68976 0.0
H1717 H 0.79183 0.66339 0.68876 0.0
C1718 C 0.63974 0.60488 0.93745 0.0
C1719 C 0.65891 0.58517 0.93227 0.0
C1720 C 0.6015 0.60611 0.93736 0.0
C1721 C 0.52052 0.59228 0.92615 0.0
H1722 H 0.47467 0.55414 0.94305 0.0
C1723 C 0.38628 0.51291 0.92562 0.0
C1724 C 0.36541 0.50907 0.9318 0.0
C1725 C 0.41753 0.53483 0.92557 0.0
C1726 C 0.48657 0.5659 0.93833 0.0
H1727 H 0.65332 0.55196 0.92287 0.0
H1728 H 0.58658 0.55492 0.92259 0.0
H1729 H 0.53943 0.56891 0.94317 0.0
H1730 H 0.3584 0.52883 0.94251 0.0
H1731 H 0.4122 0.56824 0.94233 0.0
H1732 H 0.46788 0.5888 0.92126 0.0
C1733 C 0.6011 0.56949 0.92671 0.0
C1734 C 0.52386 0.57417 0.93841 0.0
C1735 C 0.63925 0.56777 0.92687 0.0
C1736 C 0.37424 0.53072 0.93769 0.0
C1737 C 0.40529 0.55309 0.93761 0.0
C1738 C 0.48305 0.58458 0.9261 0.0
C1739 C 0.58185 0.5882 0.93201 0.0
C1740 C 0.54142 0.58611 0.93225 0.0
C1741 C 0.4284 0.5539 0.93167 0.0
C1742 C 0.46588 0.56985 0.93211 0.0
H1743 H 0.65432 0.61906 0.94161 0.0
H1744 H 0.58725 0.62079 0.9415 0.0
H1745 H 0.53342 0.60196 0.92135 0.0
H1746 H 0.3802 0.4968 0.92097 0.0
H1747 H 0.43455 0.53444 0.9209 0.0
C1748 C 0.70325 0.11304 0.17869 0.0
C1749 C 0.72385 0.10468 0.18475 0.0
C1750 C 0.68121 0.14431 0.17851 0.0
C1751 C 0.64918 0.22389 0.18947 0.0
H1752 H 0.66828 0.27806 0.17226 0.0
C1753 C 0.67258 0.37845 0.18829 0.0
C1754 C 0.65304 0.39894 0.18328 0.0
C1755 C 0.67053 0.34037 0.18832 0.0
C1756 C 0.66207 0.26307 0.17705 0.0
H1757 H 0.73466 0.12058 0.19557 0.0
H1758 H 0.69762 0.17537 0.19519 0.0
H1759 H 0.6816 0.21291 0.17272 0.0
H1760 H 0.61636 0.39573 0.17432 0.0
H1761 H 0.61436 0.32849 0.17414 0.0
H1762 H 0.63263 0.27522 0.19393 0.0
C1763 C 0.69772 0.15777 0.19059 0.0
C1764 C 0.66949 0.2256 0.17732 0.0
C1765 C 0.71927 0.12626 0.19081 0.0
C1766 C 0.63193 0.38054 0.1782 0.0
C1767 C 0.63051 0.34224 0.17813 0.0
C1768 C 0.64242 0.2615 0.18923 0.0
C1769 C 0.67976 0.16814 0.18433 0.0
C1770 C 0.6644 0.20575 0.18362 0.0
C1771 C 0.64958 0.32194 0.18323 0.0
C1772 C 0.64992 0.28153 0.18309 0.0
H1773 H 0.70574 0.09661 0.17396 0.0
H1774 H 0.66689 0.15079 0.17366 0.0
H1775 H 0.64401 0.2094 0.19436 0.0
H1776 H 0.68976 0.39188 0.19216 0.0
H1777 H 0.68613 0.32524 0.19221 0.0
C1778 C 0.12108 0.47151 0.42486 0.0
C1779 C 0.13163 0.48691 0.43134 0.0
C1780 C 0.09002 0.44926 0.42443 0.0
C1781 C 0.01514 0.40718 0.43545 0.0
H1782 H 0.95486 0.43576 0.41953 0.0
C1783 C 0.8594 0.43137 0.43564 0.0
C1784 C 0.83851 0.40959 0.43106 0.0
C1785 C 0.89753 0.43048 0.43537 0.0
C1786 C 0.97162 0.42702 0.42394 0.0
H1787 H 0.11977 0.48837 0.44255 0.0
H1788 H 0.06525 0.45132 0.44179 0.0
H1789 H 0.01967 0.45093 0.41955 0.0
H1790 H 0.84117 0.36966 0.42261 0.0
H1791 H 0.90825 0.36991 0.42185 0.0
H1792 H 0.96568 0.38642 0.44007 0.0
C1793 C 0.081 0.45546 0.43702 0.0
C1794 C 0.00889 0.43543 0.42395 0.0
C1795 C 0.11236 0.47708 0.43746 0.0
C1796 C 0.85656 0.38711 0.42614 0.0
C1797 C 0.8948 0.38692 0.42575 0.0
C1798 C 0.97767 0.39956 0.4355 0.0
C1799 C 0.06848 0.44251 0.43045 0.0
C1800 C 0.03097 0.42675 0.42982 0.0
C1801 C 0.91545 0.40849 0.43039 0.0
C1802 C 0.95558 0.41031 0.42982 0.0
H1803 H 0.13572 0.47813 0.42006 0.0
H1804 H 0.08194 0.43885 0.41932 0.0
H1805 H 0.03132 0.39914 0.43998 0.0
H1806 H 0.84627 0.44958 0.43937 0.0
H1807 H 0.91307 0.4478 0.43891 0.0
C1808 C 0.22072 0.86979 0.19086 0.0
C1809 C 0.23582 0.88094 0.18438 0.0
C1810 C 0.19797 0.83901 0.19119 0.0
C1811 C 0.15241 0.76747 0.17987 0.0
H1812 H 0.179 0.70361 0.19538 0.0
C1813 C 0.16609 0.61055 0.17856 0.0
C1814 C 0.14746 0.59004 0.18369 0.0
C1815 C 0.16637 0.64872 0.17888 0.0
C1816 C 0.17083 0.72137 0.19108 0.0
H1817 H 0.23637 0.87023 0.17312 0.0
H1818 H 0.19846 0.81638 0.17373 0.0
H1819 H 0.19724 0.76761 0.19567 0.0
H1820 H 0.11343 0.59341 0.19304 0.0
H1821 H 0.11581 0.66036 0.19382 0.0
H1822 H 0.12888 0.71984 0.17504 0.0
C1823 C 0.20324 0.83142 0.17856 0.0
C1824 C 0.18103 0.7582 0.19125 0.0
C1825 C 0.22543 0.86238 0.17821 0.0
C1826 C 0.12858 0.60851 0.18908 0.0
C1827 C 0.12962 0.6467 0.18951 0.0
C1828 C 0.14298 0.73043 0.17963 0.0
C1829 C 0.19027 0.81846 0.18508 0.0
C1830 C 0.17302 0.78153 0.18554 0.0
C1831 C 0.14868 0.66702 0.18442 0.0
C1832 C 0.15298 0.70698 0.18515 0.0
H1833 H 0.2278 0.88378 0.19571 0.0
H1834 H 0.1877 0.83049 0.19629 0.0
H1835 H 0.1448 0.78471 0.17546 0.0
H1836 H 0.18144 0.59712 0.17442 0.0
H1837 H 0.1817 0.66392 0.17496 0.0
C1838 C 0.87649 0.46414 0.93718 0.0
C1839 C 0.86778 0.48632 0.93136 0.0
C1840 C 0.90772 0.44203 0.93708 0.0
C1841 C 0.9856 0.41116 0.92558 0.0
H1842 H 0.04138 0.42375 0.94281 0.0
C1843 C 0.14228 0.42272 0.9267 0.0
C1844 C 0.16104 0.40497 0.93218 0.0
C1845 C 0.10411 0.42206 0.92643 0.0
C1846 C 0.02597 0.41934 0.938 0.0
H1847 H 0.88327 0.50018 0.92064 0.0
H1848 H 0.93798 0.4629 0.92053 0.0
H1849 H 0.977 0.44009 0.94262 0.0
H1850 H 0.15482 0.3715 0.94153 0.0
H1851 H 0.08776 0.37146 0.94121 0.0
H1852 H 0.03574 0.39285 0.92087 0.0
C1853 C 0.92064 0.46188 0.92516 0.0
C1854 C 0.9889 0.42853 0.93789 0.0
C1855 C 0.8892 0.48356 0.92523 0.0
C1856 C 0.14095 0.38587 0.93731 0.0
C1857 C 0.1027 0.38566 0.93711 0.0
C1858 C 0.02286 0.40246 0.92567 0.0
C1859 C 0.93116 0.44201 0.93119 0.0
C1860 C 0.96845 0.42563 0.93161 0.0
C1861 C 0.08394 0.40405 0.93169 0.0
C1862 C 0.04357 0.40744 0.93184 0.0
H1863 H 0.86024 0.46523 0.94196 0.0
H1864 H 0.91439 0.4263 0.94175 0.0
H1865 H 0.97058 0.40777 0.9207 0.0
H1866 H 0.15705 0.43812 0.92273 0.0
H1867 H 0.09032 0.43699 0.92226 0.0
C1868 C 0.25463 0.13176 0.67428 0.0
C1869 C 0.25157 0.11055 0.68044 0.0
C1870 C 0.27686 0.16279 0.67417 0.0
C1871 C 0.3109 0.23089 0.68681 0.0
H1872 H 0.3461 0.2772 0.66971 0.0
C1873 C 0.35175 0.38335 0.68591 0.0
C1874 C 0.33194 0.40283 0.68079 0.0
C1875 C 0.35267 0.34511 0.68577 0.0
C1876 C 0.33667 0.26445 0.67453 0.0
H1877 H 0.27273 0.10286 0.69103 0.0
H1878 H 0.31257 0.15635 0.69074 0.0
H1879 H 0.33151 0.21196 0.66964 0.0
H1880 H 0.29841 0.39786 0.67141 0.0
H1881 H 0.30075 0.33111 0.67106 0.0
H1882 H 0.31548 0.2836 0.69165 0.0
C1883 C 0.29667 0.14981 0.68609 0.0
C1884 C 0.32816 0.22716 0.6745 0.0
C1885 C 0.27403 0.11897 0.68624 0.0
C1886 C 0.31426 0.38352 0.67537 0.0
C1887 C 0.31564 0.34536 0.67517 0.0
C1888 C 0.31994 0.268 0.68687 0.0
C1889 C 0.29698 0.17311 0.68018 0.0
C1890 C 0.31372 0.21023 0.68057 0.0
C1891 C 0.33433 0.32578 0.68043 0.0
C1892 C 0.33158 0.28539 0.68066 0.0
H1893 H 0.23787 0.12601 0.6697 0.0
H1894 H 0.27604 0.18003 0.66953 0.0
H1895 H 0.29942 0.21915 0.69157 0.0
H1896 H 0.36614 0.39768 0.69007 0.0
H1897 H 0.36737 0.33061 0.68987 0.0
C1898 C 0.60913 0.50903 0.42501 0.0
C1899 C 0.62878 0.50307 0.43128 0.0
C1900 C 0.57833 0.53154 0.42497 0.0
C1901 C 0.50771 0.56304 0.43745 0.0
H1902 H 0.46632 0.60399 0.42033 0.0
C1903 C 0.35745 0.61054 0.43565 0.0
C1904 C 0.33815 0.59004 0.4306 0.0
C1905 C 0.39569 0.61073 0.43568 0.0
C1906 C 0.47774 0.59301 0.42517 0.0
H1907 H 0.6338 0.51918 0.44225 0.0
H1908 H 0.58083 0.55981 0.44211 0.0
H1909 H 0.53115 0.5878 0.42068 0.0
H1910 H 0.34353 0.55506 0.42144 0.0
H1911 H 0.41041 0.5565 0.42132 0.0
H1912 H 0.45407 0.56819 0.44188 0.0
C1913 C 0.58833 0.54585 0.43728 0.0
C1914 C 0.51477 0.58348 0.42537 0.0
C1915 C 0.6189 0.52278 0.43735 0.0
C1916 C 0.3577 0.57142 0.42534 0.0
C1917 C 0.39591 0.57222 0.42528 0.0
C1918 C 0.47092 0.5733 0.43728 0.0
C1919 C 0.56667 0.54923 0.43117 0.0
C1920 C 0.52989 0.56688 0.43142 0.0
C1921 C 0.41521 0.59115 0.43054 0.0
C1922 C 0.45534 0.58707 0.43106 0.0
H1923 H 0.61599 0.49441 0.42022 0.0
H1924 H 0.56239 0.53294 0.42016 0.0
H1925 H 0.51794 0.54993 0.44217 0.0
H1926 H 0.34295 0.62567 0.4397 0.0
H1927 H 0.41003 0.6256 0.43978 0.0
C1928 C 0.23368 0.13792 0.31936 0.0
C1929 C 0.24255 0.11888 0.31315 0.0
C1930 C 0.2117 0.16907 0.31911 0.0
C1931 C 0.18788 0.24149 0.30634 0.0
H1932 H 0.14135 0.28298 0.3229 0.0
C1933 C 0.14186 0.39301 0.3083 0.0
C1934 C 0.1629 0.41127 0.31341 0.0
C1935 C 0.14097 0.35478 0.30809 0.0
C1936 C 0.15385 0.27151 0.31821 0.0
H1937 H 0.23182 0.1152 0.30192 0.0
H1938 H 0.19198 0.16871 0.30152 0.0
H1939 H 0.1553 0.21763 0.32258 0.0
H1940 H 0.19846 0.40394 0.32246 0.0
H1941 H 0.19546 0.33711 0.32229 0.0
H1942 H 0.18627 0.29567 0.30202 0.0
C1943 C 0.20337 0.16052 0.30656 0.0
C1944 C 0.16216 0.23419 0.31803 0.0
C1945 C 0.22596 0.1296 0.30679 0.0
C1946 C 0.18157 0.39064 0.31852 0.0
C1947 C 0.17995 0.35247 0.31842 0.0
C1948 C 0.17875 0.2786 0.30646 0.0
C1949 C 0.1974 0.18171 0.31266 0.0
C1950 C 0.18084 0.21898 0.31222 0.0
C1951 C 0.16025 0.33427 0.31312 0.0
C1952 C 0.16299 0.29411 0.3125 0.0
H1953 H 0.24579 0.1304 0.32437 0.0
H1954 H 0.20824 0.18455 0.32393 0.0
H1955 H 0.20264 0.23122 0.3018 0.0
H1956 H 0.12669 0.4083 0.30437 0.0
H1957 H 0.12563 0.34121 0.30396 0.0
C1958 C 0.616 0.47998 0.07131 0.0
C1959 C 0.63587 0.48779 0.06515 0.0
C1960 C 0.58443 0.45861 0.07103 0.0
C1961 C 0.51282 0.43575 0.05806 0.0
H1962 H 0.46835 0.39139 0.07455 0.0
C1963 C 0.35963 0.3955 0.05942 0.0
C1964 C 0.34156 0.41568 0.06469 0.0
C1965 C 0.39785 0.39367 0.05929 0.0
C1966 C 0.48062 0.40332 0.06988 0.0
H1967 H 0.64059 0.47561 0.05399 0.0
H1968 H 0.58629 0.43691 0.05354 0.0
H1969 H 0.53407 0.40355 0.07446 0.0
H1970 H 0.34917 0.44891 0.07404 0.0
H1971 H 0.41589 0.44439 0.07399 0.0
H1972 H 0.45909 0.43553 0.05353 0.0
C1973 C 0.5942 0.44866 0.05855 0.0
C1974 C 0.51818 0.41056 0.06983 0.0
C1975 C 0.62557 0.4706 0.05882 0.0
C1976 C 0.36232 0.43269 0.06999 0.0
C1977 C 0.40044 0.43017 0.06995 0.0
C1978 C 0.47545 0.42775 0.05806 0.0
C1979 C 0.57218 0.44392 0.06458 0.0
C1980 C 0.53451 0.42841 0.06404 0.0
C1981 C 0.41853 0.4112 0.06454 0.0
C1982 C 0.45885 0.4128 0.06407 0.0
H1983 H 0.62319 0.49256 0.0763 0.0
H1984 H 0.56833 0.45602 0.07579 0.0
H1985 H 0.524 0.44991 0.05353 0.0
H1986 H 0.34423 0.3816 0.05534 0.0
H1987 H 0.41129 0.37889 0.05507 0.0
C1988 C 0.35823 0.60964 0.82201 0.0
C1989 C 0.33506 0.59324 0.817 0.0
C1990 C 0.36066 0.64784 0.82247 0.0
C1991 C 0.3551 0.73069 0.81259 0.0
H1992 H 0.30141 0.7778 0.82769 0.0
C1993 C 0.28086 0.86587 0.80883 0.0
C1994 C 0.27008 0.8867 0.8147 0.0
C1995 C 0.30226 0.83458 0.80972 0.0
C1996 C 0.31762 0.76554 0.82354 0.0
H1997 H 0.29575 0.60379 0.80867 0.0
H1998 H 0.30129 0.67027 0.80928 0.0
H1999 H 0.31353 0.71238 0.82828 0.0
H2000 H 0.27722 0.89378 0.82598 0.0
H2001 H 0.3159 0.84001 0.82749 0.0
H2002 H 0.35878 0.78337 0.80774 0.0
C2003 C 0.3175 0.65358 0.81283 0.0
C2004 C 0.32434 0.72795 0.82388 0.0
C2005 C 0.31444 0.61563 0.81248 0.0
C2006 C 0.28455 0.87791 0.82136 0.0
C2007 C 0.30648 0.84687 0.82223 0.0
C2008 C 0.34906 0.76842 0.8123 0.0
C2009 C 0.34058 0.66993 0.81782 0.0
C2010 C 0.34174 0.71012 0.81827 0.0
C2011 C 0.31393 0.82368 0.81648 0.0
C2012 C 0.32861 0.78605 0.8176 0.0
H2013 H 0.37473 0.59301 0.82551 0.0
H2014 H 0.37842 0.66011 0.82639 0.0
H2015 H 0.36869 0.71728 0.80822 0.0
H2016 H 0.27033 0.87191 0.80362 0.0
H2017 H 0.30707 0.81751 0.80514 0.0
C2018 C 0.89043 0.52542 0.56951 0.0
C2019 C 0.87025 0.51596 0.56347 0.0
C2020 C 0.92183 0.54689 0.56895 0.0
C2021 C 0.99281 0.56654 0.55571 0.0
H2022 H 0.03685 0.61676 0.57161 0.0
C2023 C 0.14597 0.60876 0.55678 0.0
C2024 C 0.16394 0.59129 0.56241 0.0
C2025 C 0.10772 0.60964 0.55649 0.0
C2026 C 0.02471 0.60317 0.5671 0.0
H2027 H 0.86486 0.52522 0.55221 0.0
H2028 H 0.919 0.56393 0.55128 0.0
H2029 H 0.97128 0.60394 0.57168 0.0
H2030 H 0.15601 0.56141 0.57217 0.0
H2031 H 0.08932 0.56435 0.57181 0.0
H2032 H 0.04658 0.56565 0.5512 0.0
C2033 C 0.91137 0.5535 0.55642 0.0
C2034 C 0.98723 0.59558 0.56715 0.0
C2035 C 0.8801 0.53155 0.55696 0.0
C2036 C 0.14298 0.57569 0.56784 0.0
C2037 C 0.10485 0.57729 0.56763 0.0
C2038 C 0.03013 0.57482 0.55561 0.0
C2039 C 0.93362 0.55997 0.56235 0.0
C2040 C 0.97109 0.57567 0.5616 0.0
C2041 C 0.0869 0.59386 0.56191 0.0
C2042 C 0.0466 0.59188 0.56143 0.0
H2043 H 0.88357 0.51413 0.57463 0.0
H2044 H 0.93817 0.55087 0.57365 0.0
H2045 H 0.98171 0.55081 0.55137 0.0
H2046 H 0.16147 0.62153 0.55258 0.0
H2047 H 0.09439 0.62252 0.55203 0.0
C2048 C 0.58392 0.36569 0.31967 0.0
C2049 C 0.59337 0.38332 0.31333 0.0
C2050 C 0.56107 0.33504 0.31961 0.0
C2051 C 0.53228 0.26023 0.30792 0.0
H2052 H 0.45793 0.24356 0.32215 0.0
C2053 C 0.42761 0.14165 0.30649 0.0
C2054 C 0.41686 0.1251 0.31286 0.0
C2055 C 0.45087 0.172 0.30653 0.0
C2056 C 0.47896 0.24755 0.31819 0.0
H2057 H 0.58465 0.38359 0.302 0.0
H2058 H 0.54453 0.33035 0.30193 0.0
H2059 H 0.49264 0.30051 0.32224 0.0
H2060 H 0.42407 0.12607 0.32423 0.0
H2061 H 0.46513 0.1785 0.32426 0.0
H2062 H 0.51871 0.20722 0.30389 0.0
C2063 C 0.55536 0.33989 0.30692 0.0
C2064 C 0.49872 0.28026 0.31824 0.0
C2065 C 0.57812 0.37059 0.30697 0.0
C2066 C 0.4315 0.13835 0.31923 0.0
C2067 C 0.45481 0.16861 0.31926 0.0
C2068 C 0.51257 0.22747 0.30789 0.0
C2069 C 0.54721 0.32133 0.31322 0.0
C2070 C 0.52558 0.28697 0.3131 0.0
C2071 C 0.464 0.18637 0.31292 0.0
C2072 C 0.48569 0.22074 0.31303 0.0
H2073 H 0.59514 0.37476 0.32466 0.0
H2074 H 0.55543 0.32124 0.32455 0.0
H2075 H 0.55326 0.26434 0.30396 0.0
H2076 H 0.41686 0.13217 0.30149 0.0
H2077 H 0.45728 0.18514 0.30156 0.0
C2078 C 0.11776 0.17475 0.55367 0.0
C2079 C 0.13432 0.16991 0.5603 0.0
C2080 C 0.08826 0.19888 0.55287 0.0
C2081 C 0.03898 0.27471 0.56189 0.0
H2082 H 0.95389 0.23773 0.55193 0.0
C2083 C 0.89653 0.33169 0.56718 0.0
C2084 C 0.87633 0.34331 0.56127 0.0
C2085 C 0.92778 0.31027 0.56633 0.0
C2086 C 0.97759 0.24851 0.55466 0.0
H2087 H 0.13412 0.18811 0.57121 0.0
H2088 H 0.08292 0.22951 0.56985 0.0
H2089 H 0.01148 0.20354 0.55152 0.0
H2090 H 0.87176 0.33926 0.54988 0.0
H2091 H 0.92636 0.30116 0.54844 0.0
H2092 H 0.00478 0.3189 0.56524 0.0
C2093 C 0.09268 0.21504 0.56523 0.0
C2094 C 0.01061 0.22911 0.5544 0.0
C2095 C 0.12199 0.19102 0.56602 0.0
C2096 C 0.88678 0.33093 0.55453 0.0
C2097 C 0.91801 0.30914 0.5537 0.0
C2098 C 0.00601 0.29382 0.5622 0.0
C2099 C 0.07496 0.21875 0.55869 0.0
C2100 C 0.04144 0.24161 0.55815 0.0
C2101 C 0.9394 0.29968 0.55958 0.0
C2102 C 0.9748 0.2805 0.55873 0.0
H2103 H 0.12665 0.15894 0.54915 0.0
H2104 H 0.07548 0.20151 0.54774 0.0
H2105 H 0.0624 0.28554 0.5647 0.0
H2106 H 0.8892 0.34041 0.57245 0.0
H2107 H 0.94343 0.30269 0.57096 0.0
C2108 C 0.92264 0.63619 0.80528 0.0
C2109 C 0.91352 0.62182 0.81193 0.0
C2110 C 0.94771 0.66497 0.80469 0.0
C2111 C 0.01918 0.71559 0.81466 0.0
H2112 H 0.99245 0.79638 0.80241 0.0
C2113 C 0.0837 0.85728 0.81776 0.0
C2114 C 0.09728 0.87388 0.81161 0.0
C2115 C 0.06126 0.82649 0.81734 0.0
C2116 C 0.00041 0.77387 0.8058 0.0
H2117 H 0.92479 0.62549 0.82316 0.0
H2118 H 0.96783 0.67566 0.82215 0.0
H2119 H 0.95559 0.74057 0.80239 0.0
H2120 H 0.0962 0.8723 0.80016 0.0
H2121 H 0.05657 0.81854 0.79944 0.0
H2122 H 0.06339 0.74925 0.81821 0.0
C2123 C 0.95604 0.66456 0.81736 0.0
C2124 C 0.97946 0.74184 0.80577 0.0
C2125 C 0.93113 0.63583 0.81795 0.0
C2126 C 0.08633 0.86009 0.805 0.0
C2127 C 0.0636 0.82936 0.80458 0.0
C2128 C 0.0399 0.74764 0.81473 0.0
C2129 C 0.96417 0.67992 0.81075 0.0
C2130 C 0.98831 0.71254 0.81028 0.0
C2131 C 0.05166 0.81175 0.81075 0.0
C2132 C 0.03041 0.77729 0.81038 0.0
H2133 H 0.90972 0.62591 0.80053 0.0
H2134 H 0.95383 0.67582 0.79951 0.0
H2135 H 0.02721 0.69328 0.81809 0.0
H2136 H 0.09137 0.86725 0.82294 0.0
H2137 H 0.05184 0.81385 0.82218 0.0
C2138 C 0.38908 0.83158 0.05565 0.0
C2139 C 0.3741 0.84164 0.0622 0.0
C2140 C 0.41849 0.80714 0.05531 0.0
C2141 C 0.47003 0.73854 0.06579 0.0
H2142 H 0.55102 0.76535 0.05361 0.0
C2143 C 0.61168 0.67422 0.06918 0.0
C2144 C 0.62873 0.66092 0.06305 0.0
C2145 C 0.58102 0.69682 0.06871 0.0
C2146 C 0.52848 0.75736 0.05698 0.0
H2147 H 0.37726 0.83255 0.07351 0.0
H2148 H 0.42849 0.79043 0.07291 0.0
H2149 H 0.49457 0.80119 0.05332 0.0
H2150 H 0.62812 0.66278 0.0516 0.0
H2151 H 0.57452 0.7025 0.0508 0.0
H2152 H 0.50413 0.69516 0.06955 0.0
C2153 C 0.41744 0.80112 0.06802 0.0
C2154 C 0.4961 0.77774 0.0568 0.0
C2155 C 0.3881 0.82547 0.06837 0.0
C2156 C 0.6156 0.67244 0.05643 0.0
C2157 C 0.58493 0.69523 0.05597 0.0
C2158 C 0.5024 0.71833 0.066 0.0
C2159 C 0.43344 0.79219 0.0615 0.0
C2160 C 0.46666 0.76881 0.06126 0.0
C2161 C 0.56676 0.70679 0.06211 0.0
C2162 C 0.53213 0.7278 0.06167 0.0
H2163 H 0.37885 0.84339 0.05079 0.0
H2164 H 0.42984 0.80033 0.05019 0.0
H2165 H 0.44765 0.73051 0.0692 0.0
H2166 H 0.62118 0.66617 0.07437 0.0
H2167 H 0.56802 0.70597 0.07354 0.0
C2168 C 0.56814 0.63048 0.19052 0.0
C2169 C 0.58231 0.61628 0.18419 0.0
C2170 C 0.54607 0.66168 0.19046 0.0
C2171 C 0.48953 0.72069 0.17901 0.0
H2172 H 0.51303 0.79555 0.1928 0.0
C2173 C 0.42425 0.86335 0.17759 0.0
C2174 C 0.41036 0.87731 0.18396 0.0
C2175 C 0.44749 0.83302 0.17759 0.0
C2176 C 0.50595 0.77481 0.18895 0.0
H2177 H 0.58279 0.6227 0.1728 0.0
H2178 H 0.5443 0.6771 0.17272 0.0
H2179 H 0.5463 0.73768 0.19292 0.0
H2180 H 0.41173 0.87153 0.19536 0.0
H2181 H 0.45203 0.81852 0.19534 0.0
H2182 H 0.44905 0.75767 0.17507 0.0
C2183 C 0.55025 0.66407 0.17773 0.0
C2184 C 0.52491 0.74162 0.18903 0.0
C2185 C 0.57239 0.63291 0.17778 0.0
C2186 C 0.42191 0.86152 0.19035 0.0
C2187 C 0.4451 0.83113 0.19035 0.0
C2188 C 0.47053 0.75384 0.17894 0.0
C2189 C 0.53757 0.67927 0.18408 0.0
C2190 C 0.51686 0.71418 0.18407 0.0
C2191 C 0.45734 0.81595 0.18396 0.0
C2192 C 0.47852 0.78128 0.18391 0.0
H2193 H 0.57504 0.61826 0.19555 0.0
H2194 H 0.53611 0.67237 0.19544 0.0
H2195 H 0.48244 0.69992 0.17517 0.0
H2196 H 0.41619 0.87503 0.17257 0.0
H2197 H 0.45712 0.82246 0.17258 0.0
C2198 C 0.61392 0.31738 0.4411 0.0
C2199 C 0.62765 0.32805 0.43448 0.0
C2200 C 0.58495 0.2925 0.44157 0.0
C2201 C 0.53201 0.22427 0.43123 0.0
H2202 H 0.45301 0.25011 0.44397 0.0
C2203 C 0.38913 0.16196 0.42835 0.0
C2204 C 0.37268 0.14818 0.43451 0.0
C2205 C 0.42033 0.18383 0.42876 0.0
C2206 C 0.475 0.24237 0.44044 0.0
H2207 H 0.6228 0.31951 0.42318 0.0
H2208 H 0.57229 0.27665 0.424 0.0
H2209 H 0.50947 0.28588 0.44404 0.0
H2210 H 0.37505 0.1483 0.44595 0.0
H2211 H 0.42958 0.18684 0.44665 0.0
H2212 H 0.49723 0.1813 0.42753 0.0
C2213 C 0.58401 0.28719 0.42884 0.0
C2214 C 0.50741 0.26271 0.4405 0.0
C2215 C 0.61293 0.31197 0.42837 0.0
C2216 C 0.38709 0.15837 0.4411 0.0
C2217 C 0.41829 0.18046 0.44151 0.0
C2218 C 0.49959 0.20411 0.43115 0.0
C2219 C 0.56916 0.27773 0.43543 0.0
C2220 C 0.5361 0.25418 0.43583 0.0
C2221 C 0.43571 0.19261 0.43534 0.0
C2222 C 0.47057 0.21326 0.43568 0.0
H2223 H 0.62472 0.3291 0.44591 0.0
H2224 H 0.57453 0.28528 0.44673 0.0
H2225 H 0.55381 0.21654 0.42766 0.0
H2226 H 0.37868 0.15491 0.42318 0.0
H2227 H 0.43277 0.19345 0.42392 0.0
C2228 C 0.07303 0.13194 0.69241 0.0
C2229 C 0.07823 0.11535 0.68579 0.0
C2230 C 0.04884 0.1614 0.69315 0.0
C2231 C 0.9733 0.21051 0.68403 0.0
H2232 H 0.00933 0.29523 0.69423 0.0
C2233 C 0.91247 0.35257 0.67959 0.0
C2234 C 0.90205 0.37216 0.68565 0.0
C2235 C 0.9344 0.32148 0.68016 0.0
C2236 C 0.99881 0.27165 0.69142 0.0
H2237 H 0.06063 0.11549 0.67485 0.0
H2238 H 0.01911 0.16669 0.67611 0.0
H2239 H 0.04412 0.23806 0.69449 0.0
H2240 H 0.90856 0.37574 0.69702 0.0
H2241 H 0.94735 0.32147 0.69798 0.0
H2242 H 0.92861 0.24437 0.6808 0.0
C2243 C 0.03336 0.15696 0.68076 0.0
C2244 C 0.01856 0.23886 0.6916 0.0
C2245 C 0.05743 0.12764 0.68002 0.0
C2246 C 0.91594 0.3612 0.69225 0.0
C2247 C 0.93817 0.33016 0.69281 0.0
C2248 C 0.95378 0.24327 0.68381 0.0
C2249 C 0.02929 0.17468 0.68729 0.0
C2250 C 0.00634 0.20812 0.6878 0.0
C2251 C 0.94665 0.30942 0.68679 0.0
C2252 C 0.96667 0.27434 0.68739 0.0
H2253 H 0.08856 0.12306 0.69697 0.0
H2254 H 0.0459 0.17416 0.69827 0.0
H2255 H 0.96272 0.18715 0.68117 0.0
H2256 H 0.90251 0.36032 0.67442 0.0
H2257 H 0.94117 0.30638 0.67542 0.0
C2258 C 0.88446 0.67849 0.93002 0.0
C2259 C 0.87089 0.65965 0.93593 0.0
C2260 C 0.91363 0.70281 0.9307 0.0
C2261 C 0.99297 0.72168 0.94206 0.0
H2262 H 0.00108 0.80733 0.93009 0.0
C2263 C 0.1157 0.82476 0.94191 0.0
C2264 C 0.12798 0.83481 0.93514 0.0
C2265 C 0.08442 0.80299 0.9427 0.0
C2266 C 0.99921 0.78341 0.93345 0.0
H2267 H 0.8762 0.65308 0.94727 0.0
H2268 H 0.92695 0.69615 0.94846 0.0
H2269 H 0.94375 0.77342 0.93045 0.0
H2270 H 0.11838 0.82774 0.92391 0.0
H2271 H 0.06411 0.7901 0.92531 0.0
H2272 H 0.04874 0.732 0.94503 0.0
C2273 C 0.91536 0.69148 0.94328 0.0
C2274 C 0.96641 0.76397 0.93366 0.0
C2275 C 0.88609 0.66703 0.9426 0.0
C2276 C 0.10958 0.8209 0.9292 0.0
C2277 C 0.0783 0.79951 0.92999 0.0
C2278 C 0.02579 0.74141 0.9419 0.0
C2279 C 0.9299 0.7091 0.93731 0.0
C2280 C 0.96316 0.73234 0.93783 0.0
C2281 C 0.06483 0.79122 0.93674 0.0
C2282 C 0.02944 0.77189 0.93745 0.0
H2283 H 0.87347 0.67353 0.9248 0.0
H2284 H 0.92439 0.71551 0.92597 0.0
H2285 H 0.9915 0.69724 0.94528 0.0
H2286 H 0.1293 0.83491 0.94659 0.0
H2287 H 0.07461 0.7968 0.94795 0.0
C2288 C 0.57268 0.85642 0.69293 0.0
C2289 C 0.58169 0.87124 0.68629 0.0
C2290 C 0.55083 0.82507 0.6934 0.0
C2291 C 0.52907 0.74358 0.6832 0.0
H2292 H 0.4448 0.73248 0.69544 0.0
C2293 C 0.42378 0.6296 0.67921 0.0
C2294 C 0.40567 0.61457 0.68508 0.0
C2295 C 0.44814 0.65862 0.68004 0.0
C2296 C 0.46872 0.73485 0.6921 0.0
H2297 H 0.57292 0.86593 0.675 0.0
H2298 H 0.53514 0.81137 0.67587 0.0
H2299 H 0.47979 0.78954 0.69564 0.0
H2300 H 0.40048 0.6171 0.69647 0.0
H2301 H 0.44372 0.66749 0.69793 0.0
H2302 H 0.51843 0.68913 0.67966 0.0
C2303 C 0.54535 0.82375 0.68068 0.0
C2304 C 0.48856 0.76759 0.69219 0.0
C2305 C 0.5668 0.85518 0.68019 0.0
C2306 C 0.41383 0.62816 0.69184 0.0
C2307 C 0.43839 0.65722 0.69267 0.0
C2308 C 0.50955 0.71081 0.68316 0.0
C2309 C 0.53796 0.80787 0.68726 0.0
C2310 C 0.51837 0.7725 0.68762 0.0
C2311 C 0.45526 0.67324 0.68676 0.0
C2312 C 0.4786 0.70634 0.68748 0.0
H2313 H 0.58358 0.86821 0.69773 0.0
H2314 H 0.54537 0.81335 0.69855 0.0
H2315 H 0.55247 0.74642 0.67974 0.0
H2316 H 0.41818 0.61989 0.67392 0.0
H2317 H 0.46021 0.67055 0.67536 0.0
C2318 C 0.88056 0.82518 0.4422 0.0
C2319 C 0.86535 0.83339 0.43557 0.0
C2320 C 0.91191 0.80328 0.44271 0.0
C2321 C 0.99247 0.78025 0.4323 0.0
H2322 H 0.00652 0.69945 0.44527 0.0
C2323 C 0.10846 0.67641 0.4289 0.0
C2324 C 0.12469 0.66056 0.43489 0.0
C2325 C 0.07879 0.70013 0.42958 0.0
C2326 C 0.0033 0.7224 0.44171 0.0
H2327 H 0.8696 0.82268 0.42432 0.0
H2328 H 0.92402 0.78478 0.42524 0.0
H2329 H 0.94886 0.7335 0.44539 0.0
H2330 H 0.12352 0.65872 0.44633 0.0
H2331 H 0.07195 0.7008 0.44752 0.0
H2332 H 0.04666 0.76958 0.42861 0.0
C2333 C 0.91211 0.79579 0.43002 0.0
C2334 C 0.97022 0.74171 0.44176 0.0
C2335 C 0.88078 0.81736 0.42951 0.0
C2336 C 0.11156 0.67032 0.44161 0.0
C2337 C 0.08182 0.6942 0.44229 0.0
C2338 C 0.02555 0.76125 0.43228 0.0
C2339 C 0.92862 0.78946 0.4366 0.0
C2340 C 0.96425 0.77027 0.43694 0.0
C2341 C 0.06468 0.70883 0.43628 0.0
C2342 C 0.0311 0.73157 0.43688 0.0
H2343 H 0.86931 0.83697 0.44698 0.0
H2344 H 0.92407 0.79866 0.44785 0.0
H2345 H 0.98888 0.80274 0.42864 0.0
H2346 H 0.11778 0.66953 0.42364 0.0
H2347 H 0.06602 0.71047 0.42483 0.0
C2348 C 0.06189 0.3575 0.19034 0.0
C2349 C 0.07077 0.37535 0.184 0.0
C2350 C 0.03896 0.32688 0.19031 0.0
C2351 C 0.00928 0.25301 0.17844 0.0
H2352 H 0.93774 0.23331 0.19305 0.0
C2353 C 0.90575 0.13345 0.17709 0.0
C2354 C 0.8972 0.11535 0.18342 0.0
C2355 C 0.92837 0.16429 0.17712 0.0
C2356 C 0.95797 0.23821 0.18898 0.0
H2357 H 0.06061 0.37638 0.17271 0.0
H2358 H 0.02025 0.32344 0.1727 0.0
H2359 H 0.97167 0.29076 0.19322 0.0
H2360 H 0.90753 0.11426 0.1947 0.0
H2361 H 0.94731 0.16763 0.19473 0.0
H2362 H 0.99558 0.20046 0.17421 0.0
C2363 C 0.03171 0.33258 0.17766 0.0
C2364 C 0.97731 0.27117 0.18907 0.0
C2365 C 0.05462 0.36313 0.17769 0.0
C2366 C 0.91327 0.12767 0.18973 0.0
C2367 C 0.93586 0.15846 0.18976 0.0
C2368 C 0.98994 0.22006 0.17836 0.0
C2369 C 0.02439 0.31355 0.18395 0.0
C2370 C 0.00316 0.27895 0.1838 0.0
C2371 C 0.94294 0.17763 0.18348 0.0
C2372 C 0.96409 0.21228 0.18363 0.0
H2373 H 0.07384 0.36618 0.19529 0.0
H2374 H 0.03396 0.31273 0.19524 0.0
H2375 H 0.02953 0.25789 0.17438 0.0
H2376 H 0.89385 0.12473 0.17213 0.0
H2377 H 0.93319 0.17855 0.1722 0.0
C2378 C 0.3991 0.32636 0.93063 0.0
C2379 C 0.37871 0.33852 0.93646 0.0
C2380 C 0.43078 0.30573 0.9316 0.0
C2381 C 0.48022 0.24476 0.94325 0.0
H2382 H 0.56577 0.28268 0.93358 0.0
C2383 C 0.61851 0.16782 0.94371 0.0
C2384 C 0.63527 0.16442 0.93706 0.0
C2385 C 0.58973 0.19259 0.94472 0.0
C2386 C 0.54215 0.2716 0.93629 0.0
H2387 H 0.37441 0.33655 0.94788 0.0
H2388 H 0.42968 0.2995 0.94954 0.0
H2389 H 0.50833 0.31645 0.93309 0.0
H2390 H 0.63621 0.18584 0.92637 0.0
H2391 H 0.58612 0.22813 0.92808 0.0
H2392 H 0.51348 0.19895 0.94616 0.0
C2393 C 0.42116 0.30657 0.94424 0.0
C2394 C 0.50933 0.29099 0.93602 0.0
C2395 C 0.3896 0.32773 0.94328 0.0
C2396 C 0.62391 0.18759 0.93156 0.0
C2397 C 0.59524 0.21215 0.93256 0.0
C2398 C 0.51303 0.22503 0.94344 0.0
C2399 C 0.44253 0.29636 0.93841 0.0
C2400 C 0.47788 0.27732 0.93935 0.0
C2401 C 0.57726 0.21447 0.9391 0.0
C2402 C 0.54413 0.2378 0.93981 0.0
H2403 H 0.39154 0.33404 0.92531 0.0
H2404 H 0.44655 0.29763 0.92702 0.0
H2405 H 0.45627 0.23375 0.94586 0.0
H2406 H 0.6267 0.15048 0.94807 0.0
H2407 H 0.57679 0.19409 0.94985 0.0
C2408 C 0.57803 0.13999 0.80476 0.0
C2409 C 0.58377 0.12379 0.8114 0.0
C2410 C 0.55651 0.17155 0.80413 0.0
C2411 C 0.53035 0.25072 0.81465 0.0
H2412 H 0.45313 0.26653 0.80096 0.0
C2413 C 0.42447 0.36498 0.81775 0.0
C2414 C 0.41001 0.38207 0.81172 0.0
C2415 C 0.44881 0.3358 0.81711 0.0
C2416 C 0.47511 0.26284 0.80473 0.0
H2417 H 0.56911 0.12652 0.8225 0.0
H2418 H 0.53191 0.18128 0.82138 0.0
H2419 H 0.48747 0.20903 0.80085 0.0
H2420 H 0.41137 0.38304 0.80027 0.0
H2421 H 0.45452 0.33235 0.79916 0.0
H2422 H 0.51837 0.30423 0.81855 0.0
C2423 C 0.54453 0.16998 0.81669 0.0
C2424 C 0.49458 0.22985 0.80468 0.0
C2425 C 0.5657 0.13845 0.81731 0.0
C2426 C 0.42184 0.37037 0.80503 0.0
C2427 C 0.44634 0.34114 0.80439 0.0
C2428 C 0.51121 0.28371 0.81467 0.0
C2429 C 0.54065 0.18746 0.81014 0.0
C2430 C 0.52176 0.22321 0.80975 0.0
C2431 C 0.45953 0.32307 0.81042 0.0
C2432 C 0.48276 0.28985 0.80982 0.0
H2433 H 0.59145 0.12932 0.8001 0.0
H2434 H 0.55376 0.18448 0.79901 0.0
H2435 H 0.55178 0.24658 0.81852 0.0
H2436 H 0.41598 0.37321 0.82299 0.0
H2437 H 0.45803 0.32227 0.82187 0.0
C2438 C 0.39342 0.672 0.55453 0.0
C2439 C 0.38056 0.66124 0.56122 0.0
C2440 C 0.4247 0.69385 0.55392 0.0
C2441 C 0.50945 0.71224 0.56328 0.0
H2442 H 0.51638 0.80107 0.55218 0.0
C2443 C 0.62395 0.81649 0.56747 0.0
C2444 C 0.6368 0.83741 0.56176 0.0
C2445 C 0.59504 0.79208 0.56658 0.0
C2446 C 0.51517 0.7759 0.55518 0.0
H2447 H 0.38943 0.66665 0.5725 0.0
H2448 H 0.44396 0.70441 0.57141 0.0
H2449 H 0.45934 0.76603 0.5522 0.0
H2450 H 0.6306 0.8475 0.55054 0.0
H2451 H 0.58037 0.80412 0.54897 0.0
H2452 H 0.56503 0.72163 0.56625 0.0
C2453 C 0.43 0.69567 0.56665 0.0
C2454 C 0.48244 0.75603 0.55522 0.0
C2455 C 0.39859 0.67426 0.56727 0.0
C2456 C 0.62123 0.83194 0.55506 0.0
C2457 C 0.59226 0.80731 0.55416 0.0
C2458 C 0.54221 0.73177 0.56317 0.0
C2459 C 0.44382 0.70491 0.55998 0.0
C2460 C 0.47907 0.72456 0.55942 0.0
C2461 C 0.57834 0.78767 0.55995 0.0
C2462 C 0.5452 0.76436 0.55927 0.0
H2463 H 0.38006 0.66255 0.54976 0.0
H2464 H 0.43483 0.70076 0.54872 0.0
H2465 H 0.50774 0.68758 0.56644 0.0
H2466 H 0.63528 0.8199 0.5727 0.0
H2467 H 0.58479 0.77784 0.57118 0.0
C2468 C 0.08655 0.64402 0.30502 0.0
C2469 C 0.09623 0.62809 0.31152 0.0
C2470 C 0.06478 0.67548 0.30483 0.0
C2471 C 0.04172 0.75459 0.31586 0.0
H2472 H 0.96333 0.77051 0.30243 0.0
C2473 C 0.9384 0.87276 0.31838 0.0
C2474 C 0.92487 0.88906 0.31219 0.0
C2475 C 0.96187 0.84269 0.31801 0.0
C2476 C 0.98556 0.76673 0.30614 0.0
H2477 H 0.08858 0.63138 0.32287 0.0
H2478 H 0.05045 0.68588 0.32249 0.0
H2479 H 0.99677 0.71266 0.30232 0.0
H2480 H 0.92724 0.88789 0.30074 0.0
H2481 H 0.96874 0.83577 0.30011 0.0
H2482 H 0.03066 0.80852 0.31969 0.0
C2483 C 0.06035 0.67451 0.31757 0.0
C2484 C 0.00457 0.73353 0.30609 0.0
C2485 C 0.08198 0.64309 0.31777 0.0
C2486 C 0.93693 0.87583 0.30562 0.0
C2487 C 0.96048 0.84577 0.30525 0.0
C2488 C 0.02286 0.78778 0.31589 0.0
C2489 C 0.05235 0.69159 0.31112 0.0
C2490 C 0.03254 0.72698 0.31101 0.0
C2491 C 0.97248 0.82832 0.31144 0.0
C2492 C 0.9943 0.7941 0.31108 0.0
H2493 H 0.097 0.63312 0.30011 0.0
H2494 H 0.05903 0.68807 0.29977 0.0
H2495 H 0.06371 0.75061 0.31962 0.0
H2496 H 0.92971 0.88221 0.32353 0.0
H2497 H 0.97038 0.82973 0.32288 0.0
C2498 C 0.10967 0.34233 0.05552 0.0
C2499 C 0.12448 0.35166 0.06213 0.0
C2500 C 0.07862 0.32003 0.05508 0.0
C2501 C 0.99833 0.29433 0.06555 0.0
H2502 H 0.98798 0.21397 0.05235 0.0
C2503 C 0.88667 0.18493 0.06838 0.0
C2504 C 0.87119 0.16951 0.06228 0.0
C2505 C 0.91535 0.20997 0.06787 0.0
C2506 C 0.99017 0.23675 0.05598 0.0
H2507 H 0.11939 0.34313 0.07344 0.0
H2508 H 0.0656 0.30428 0.07263 0.0
H2509 H 0.04409 0.25036 0.05236 0.0
H2510 H 0.8726 0.16983 0.05083 0.0
H2511 H 0.92244 0.21404 0.04995 0.0
H2512 H 0.94463 0.28089 0.06919 0.0
C2513 C 0.07758 0.31473 0.06781 0.0
C2514 C 0.02237 0.25745 0.056 0.0
C2515 C 0.10861 0.33679 0.06825 0.0
C2516 C 0.884 0.18101 0.05564 0.0
C2517 C 0.91276 0.20614 0.05513 0.0
C2518 C 0.96613 0.27383 0.0655 0.0
C2519 C 0.06175 0.30683 0.06123 0.0
C2520 C 0.027 0.286 0.06088 0.0
C2521 C 0.92921 0.22035 0.06125 0.0
C2522 C 0.96191 0.24438 0.06081 0.0
H2523 H 0.12126 0.35324 0.0507 0.0
H2524 H 0.06698 0.31432 0.04994 0.0
H2525 H 0.00083 0.31673 0.06926 0.0
H2526 H 0.87752 0.17675 0.07358 0.0
H2527 H 0.92762 0.22004 0.0727 0.0
C2528 C 0.38197 0.05169 0.34851 0.0
C2529 C 0.35232 0.05453 0.34381 0.0
C2530 C 0.37665 0.05646 0.35576 0.0
C2531 C 0.3148 0.10076 0.36837 0.0
H2532 H 0.35628 0.03353 0.38203 0.0
C2533 C 0.31484 0.12689 0.39854 0.0
C2534 C 0.30533 0.09693 0.40281 0.0
C2535 C 0.31991 0.12229 0.39128 0.0
C2536 C 0.34444 0.05244 0.37826 0.0
H2537 H 0.29374 0.06395 0.34307 0.0
H2538 H 0.28466 0.07237 0.35567 0.0
H2539 H 0.3672 0.02368 0.36944 0.0
H2540 H 0.29274 0.03884 0.40279 0.0
H2541 H 0.30172 0.03093 0.39015 0.0
H2542 H 0.29192 0.12944 0.37718 0.0
C2543 C 0.312 0.06674 0.35375 0.0
C2544 C 0.35097 0.04699 0.37108 0.0
C2545 C 0.31722 0.06166 0.34653 0.0
C2546 C 0.30014 0.0625 0.39965 0.0
C2547 C 0.30554 0.05786 0.39242 0.0
C2548 C 0.30859 0.10643 0.37555 0.0
C2549 C 0.34167 0.06451 0.35843 0.0
C2550 C 0.33594 0.07092 0.36606 0.0
C2551 C 0.31589 0.08759 0.38818 0.0
C2552 C 0.3231 0.08215 0.38057 0.0
H2553 H 0.40933 0.0462 0.34658 0.0
H2554 H 0.40002 0.05471 0.35926 0.0
H2555 H 0.30317 0.11982 0.36461 0.0
H2556 H 0.31902 0.15376 0.40081 0.0
H2557 H 0.328 0.14566 0.38813 0.0
C2558 C 0.19564 0.08921 0.59727 0.0
C2559 C 0.17173 0.1118 0.59343 0.0
C2560 C 0.19156 0.08521 0.60455 0.0
C2561 C 0.12266 0.09691 0.61872 0.0
H2562 H 0.2067 0.08471 0.63099 0.0
C2563 C 0.11506 0.10101 0.64919 0.0
C2564 C 0.13503 0.0742 0.65285 0.0
C2565 C 0.11838 0.10437 0.64188 0.0
C2566 C 0.18299 0.08773 0.62761 0.0
H2567 H 0.12583 0.14919 0.59425 0.0
H2568 H 0.11946 0.1432 0.60698 0.0
H2569 H 0.21604 0.09528 0.61842 0.0
H2570 H 0.17341 0.02924 0.65171 0.0
H2571 H 0.17942 0.03542 0.63894 0.0
H2572 H 0.08973 0.09016 0.62798 0.0
C2573 C 0.14066 0.12764 0.60435 0.0
C2574 C 0.1883 0.09375 0.62041 0.0
C2575 C 0.1445 0.13133 0.59705 0.0
C2576 C 0.15767 0.0502 0.64904 0.0
C2577 C 0.16132 0.05386 0.64174 0.0
C2578 C 0.11739 0.09129 0.62593 0.0
C2579 C 0.16373 0.10404 0.60817 0.0
C2580 C 0.1582 0.09835 0.61587 0.0
C2581 C 0.14203 0.08125 0.63811 0.0
C2582 C 0.1475 0.08656 0.63044 0.0
H2583 H 0.21681 0.07366 0.59462 0.0
H2584 H 0.20956 0.06647 0.6073 0.0
H2585 H 0.09881 0.09958 0.61537 0.0
H2586 H 0.09733 0.11985 0.65198 0.0
H2587 H 0.10334 0.12584 0.6392 0.0
C2588 C 0.12099 0.94565 0.84782 0.0
C2589 C 0.1508 0.94359 0.84318 0.0
C2590 C 0.12593 0.93935 0.85504 0.0
C2591 C 0.1989 0.9304 0.86881 0.0
H2592 H 0.12151 0.88207 0.87925 0.0
C2593 C 0.21601 0.87052 0.89702 0.0
C2594 C 0.19215 0.88691 0.90189 0.0
C2595 C 0.21084 0.87589 0.88977 0.0
C2596 C 0.14331 0.89549 0.87637 0.0
H2597 H 0.20914 0.93321 0.84242 0.0
H2598 H 0.21748 0.92069 0.85486 0.0
H2599 H 0.11278 0.89573 0.86676 0.0
H2600 H 0.14355 0.92045 0.90306 0.0
H2601 H 0.13387 0.92865 0.89041 0.0
H2602 H 0.22972 0.92885 0.87843 0.0
C2603 C 0.19046 0.92843 0.85305 0.0
C2604 C 0.13824 0.90373 0.86924 0.0
C2605 C 0.18565 0.93545 0.84588 0.0
C2606 C 0.16242 0.90765 0.89941 0.0
C2607 C 0.15677 0.91223 0.89219 0.0
C2608 C 0.20421 0.92143 0.87589 0.0
C2609 C 0.16068 0.93012 0.85774 0.0
C2610 C 0.1659 0.92152 0.86536 0.0
C2611 C 0.18121 0.89686 0.88733 0.0
C2612 C 0.17638 0.90413 0.87973 0.0
H2613 H 0.09385 0.95206 0.84588 0.0
H2614 H 0.10246 0.9417 0.8585 0.0
H2615 H 0.22056 0.94479 0.86607 0.0
H2616 H 0.23922 0.8546 0.89881 0.0
H2617 H 0.22998 0.8638 0.88608 0.0
C2618 C 0.31684 0.93356 0.09667 0.0
C2619 C 0.3052 0.89961 0.094 0.0
C2620 C 0.32135 0.93863 0.10391 0.0
C2621 C 0.28929 0.91131 0.12091 0.0
H2622 H 0.3845 0.9408 0.12796 0.0
C2623 C 0.31763 0.92162 0.15067 0.0
C2624 C 0.34209 0.94842 0.15311 0.0
C2625 C 0.31343 0.91521 0.14347 0.0
C2626 C 0.35755 0.93323 0.12609 0.0
H2627 H 0.28834 0.84462 0.09679 0.0
H2628 H 0.29503 0.85407 0.10956 0.0
H2629 H 0.37588 0.9304 0.11536 0.0
H2630 H 0.38097 0.98997 0.14994 0.0
H2631 H 0.3724 0.98019 0.13731 0.0
H2632 H 0.27018 0.91571 0.13151 0.0
C2633 C 0.30114 0.8764 0.10599 0.0
C2634 C 0.35279 0.92695 0.11888 0.0
C2635 C 0.2974 0.87102 0.09872 0.0
C2636 C 0.36209 0.96899 0.1482 0.0
C2637 C 0.35731 0.96313 0.14096 0.0
C2638 C 0.29379 0.91833 0.1281 0.0
C2639 C 0.31357 0.91013 0.10862 0.0
C2640 C 0.31869 0.91582 0.11625 0.0
C2641 C 0.33299 0.93602 0.1385 0.0
C2642 C 0.32805 0.92923 0.1308 0.0
H2643 H 0.32328 0.95606 0.09316 0.0
H2644 H 0.33075 0.96492 0.10584 0.0
H2645 H 0.26263 0.90318 0.11896 0.0
H2646 H 0.30217 0.90498 0.15435 0.0
H2647 H 0.29518 0.8935 0.14183 0.0
C2648 C 0.6625 0.94952 0.65074 0.0
C2649 C 0.64224 0.92298 0.65442 0.0
C2650 C 0.66661 0.94707 0.64342 0.0
C2651 C 0.62663 0.90693 0.62745 0.0
H2652 H 0.72539 0.91128 0.62001 0.0
C2653 C 0.65698 0.86738 0.59873 0.0
C2654 C 0.68211 0.8891 0.59501 0.0
C2655 C 0.65322 0.8711 0.60603 0.0
C2656 C 0.69759 0.91047 0.62197 0.0
H2657 H 0.60911 0.87405 0.65331 0.0
H2658 H 0.61582 0.87019 0.64053 0.0
H2659 H 0.7149 0.92141 0.63257 0.0
H2660 H 0.72384 0.93098 0.59604 0.0
H2661 H 0.71669 0.93814 0.60873 0.0
H2662 H 0.60906 0.89662 0.61689 0.0
C2663 C 0.62868 0.8927 0.64331 0.0
C2664 C 0.69162 0.91628 0.62917 0.0
C2665 C 0.62498 0.89485 0.65062 0.0
C2666 C 0.7043 0.91374 0.59876 0.0
C2667 C 0.70027 0.91776 0.60605 0.0
C2668 C 0.63252 0.90152 0.62025 0.0
C2669 C 0.65006 0.91839 0.63965 0.0
C2670 C 0.65612 0.91429 0.63198 0.0
C2671 C 0.67423 0.89692 0.60976 0.0
C2672 C 0.66811 0.90291 0.61743 0.0
H2673 H 0.67616 0.97149 0.65353 0.0
H2674 H 0.68295 0.96742 0.64071 0.0
H2675 H 0.59894 0.90563 0.62948 0.0
H2676 H 0.63971 0.8479 0.596 0.0
H2677 H 0.63355 0.85395 0.60873 0.0
C2678 C 0.83411 0.95775 0.3473 0.0
C2679 C 0.85464 0.93205 0.34346 0.0
C2680 C 0.83064 0.95444 0.35462 0.0
C2681 C 0.87345 0.91452 0.37029 0.0
H2682 H 0.77552 0.91495 0.37818 0.0
C2683 C 0.84789 0.87309 0.39912 0.0
C2684 C 0.82189 0.89325 0.40294 0.0
C2685 C 0.85096 0.87737 0.39182 0.0
C2686 C 0.8031 0.91527 0.37609 0.0
H2687 H 0.88874 0.88362 0.34428 0.0
H2688 H 0.88321 0.87833 0.35706 0.0
H2689 H 0.78412 0.926 0.36559 0.0
H2690 H 0.77812 0.93315 0.4021 0.0
H2691 H 0.78413 0.94142 0.38942 0.0
H2692 H 0.89269 0.90456 0.38076 0.0
C2693 C 0.86963 0.90081 0.35441 0.0
C2694 C 0.80797 0.92157 0.36888 0.0
C2695 C 0.87265 0.90378 0.3471 0.0
C2696 C 0.79835 0.91707 0.39929 0.0
C2697 C 0.80171 0.92171 0.39201 0.0
C2698 C 0.86865 0.90868 0.37751 0.0
C2699 C 0.84814 0.92576 0.35822 0.0
C2700 C 0.84316 0.92099 0.36591 0.0
C2701 C 0.8284 0.90228 0.38819 0.0
C2702 C 0.83339 0.90868 0.3805 0.0
H2703 H 0.81986 0.97977 0.34464 0.0
H2704 H 0.81415 0.97419 0.35746 0.0
H2705 H 0.9009 0.91429 0.36814 0.0
H2706 H 0.86621 0.85427 0.40177 0.0
H2707 H 0.87122 0.86128 0.38903 0.0
C2708 C 0.77803 0.12685 0.09969 0.0
C2709 C 0.80103 0.10878 0.09488 0.0
C2710 C 0.78147 0.1203 0.10694 0.0
C2711 C 0.84586 0.08993 0.12044 0.0
H2712 H 0.76062 0.05632 0.13075 0.0
C2713 C 0.85864 0.03262 0.14866 0.0
C2714 C 0.83067 0.04125 0.15345 0.0
C2715 C 0.85455 0.04054 0.14148 0.0
C2716 C 0.78463 0.06622 0.128 0.0
H2717 H 0.84634 0.07072 0.09387 0.0
H2718 H 0.85281 0.06009 0.1065 0.0
H2719 H 0.75453 0.07423 0.11841 0.0
H2720 H 0.77632 0.06469 0.15447 0.0
H2721 H 0.76973 0.07955 0.14208 0.0
H2722 H 0.87597 0.08285 0.13001 0.0
C2723 C 0.83198 0.07896 0.10467 0.0
C2724 C 0.78105 0.07642 0.12093 0.0
C2725 C 0.8281 0.08491 0.09745 0.0
C2726 C 0.79833 0.0574 0.15091 0.0
C2727 C 0.79446 0.06578 0.14378 0.0
C2728 C 0.84937 0.0803 0.12754 0.0
C2729 C 0.80847 0.09624 0.10947 0.0
C2730 C 0.8117 0.08805 0.11708 0.0
C2731 C 0.8226 0.05773 0.13897 0.0
C2732 C 0.81885 0.06801 0.1314 0.0
H2733 H 0.75687 0.14526 0.09784 0.0
H2734 H 0.7631 0.134 0.11056 0.0
H2735 H 0.86986 0.09905 0.11758 0.0
H2736 H 0.88378 0.01997 0.15046 0.0
H2737 H 0.8765 0.03321 0.13792 0.0
C2738 C 0.624 0.11044 0.84762 0.0
C2739 C 0.64232 0.08222 0.84403 0.0
C2740 C 0.62775 0.11428 0.85492 0.0
C2741 C 0.69166 0.09555 0.8692 0.0
H2742 H 0.60833 0.112 0.88145 0.0
C2743 C 0.70389 0.09594 0.89955 0.0
C2744 C 0.68064 0.11908 0.90341 0.0
C2745 C 0.70018 0.0929 0.89224 0.0
C2746 C 0.63198 0.10809 0.87809 0.0
H2747 H 0.67821 0.03534 0.84528 0.0
H2748 H 0.68502 0.04237 0.85804 0.0
H2749 H 0.59862 0.10241 0.86886 0.0
H2750 H 0.63667 0.15872 0.90262 0.0
H2751 H 0.63103 0.15441 0.88984 0.0
H2752 H 0.72518 0.10195 0.87836 0.0
C2753 C 0.66786 0.0615 0.85519 0.0
C2754 C 0.62634 0.10235 0.87089 0.0
C2755 C 0.66374 0.05736 0.8479 0.0
C2756 C 0.65477 0.1404 0.89979 0.0
C2757 C 0.65134 0.13767 0.89247 0.0
C2758 C 0.69737 0.1017 0.87638 0.0
C2759 C 0.65022 0.09024 0.85874 0.0
C2760 C 0.65611 0.09588 0.86639 0.0
C2761 C 0.67342 0.11325 0.88862 0.0
C2762 C 0.66759 0.10793 0.88093 0.0
H2763 H 0.60723 0.12996 0.84479 0.0
H2764 H 0.61398 0.13676 0.85753 0.0
H2765 H 0.71513 0.09116 0.86581 0.0
H2766 H 0.72401 0.07902 0.90219 0.0
H2767 H 0.71742 0.07353 0.88947 0.0
C2768 C 0.82109 0.55801 0.84705 0.0
C2769 C 0.85648 0.56001 0.84417 0.0
C2770 C 0.81544 0.56311 0.85425 0.0
C2771 C 0.8112 0.55713 0.87006 0.0
H2772 H 0.86959 0.62912 0.88 0.0
C2773 C 0.80579 0.57157 0.90021 0.0
C2774 C 0.80991 0.60647 0.90322 0.0
C2775 C 0.81042 0.5664 0.89299 0.0
C2776 C 0.85269 0.60927 0.87729 0.0
H2777 H 0.91389 0.56777 0.84665 0.0
H2778 H 0.9042 0.57543 0.8593 0.0
H2779 H 0.88025 0.61851 0.8675 0.0
H2780 H 0.82089 0.66359 0.90097 0.0
H2781 H 0.82779 0.65479 0.88827 0.0
H2782 H 0.78261 0.54894 0.87975 0.0
C2783 C 0.88065 0.57093 0.85594 0.0
C2784 C 0.85926 0.6027 0.87013 0.0
C2785 C 0.88627 0.56623 0.8487 0.0
C2786 C 0.81771 0.63633 0.89881 0.0
C2787 C 0.82197 0.63121 0.89154 0.0
C2788 C 0.80436 0.56399 0.87717 0.0
C2789 C 0.84509 0.56988 0.85879 0.0
C2790 C 0.83865 0.57647 0.86643 0.0
C2791 C 0.81883 0.59607 0.88856 0.0
C2792 C 0.82515 0.58999 0.88089 0.0
H2793 H 0.79747 0.55352 0.8437 0.0
H2794 H 0.78762 0.56271 0.85622 0.0
H2795 H 0.79507 0.5364 0.86741 0.0
H2796 H 0.8 0.54789 0.90347 0.0
H2797 H 0.8084 0.53886 0.89091 0.0
C2798 C 0.68041 0.6306 0.09979 0.0
C2799 C 0.68994 0.60176 0.09525 0.0
C2800 C 0.67648 0.62438 0.10703 0.0
C2801 C 0.6995 0.55772 0.12114 0.0
H2802 H 0.61838 0.60343 0.13094 0.0
C2803 C 0.68269 0.54824 0.15126 0.0
C2804 C 0.64715 0.54522 0.15404 0.0
C2805 C 0.68808 0.55455 0.14408 0.0
C2806 C 0.64093 0.59013 0.12827 0.0
H2807 H 0.7035 0.54394 0.09476 0.0
H2808 H 0.696 0.53306 0.10729 0.0
H2809 H 0.62825 0.61645 0.11848 0.0
H2810 H 0.58939 0.54533 0.15141 0.0
H2811 H 0.59883 0.55546 0.13881 0.0
H2812 H 0.71148 0.53043 0.13084 0.0
C2813 C 0.69211 0.5606 0.10532 0.0
C2814 C 0.64694 0.59806 0.12115 0.0
C2815 C 0.69619 0.56683 0.09811 0.0
C2816 C 0.6171 0.54767 0.14944 0.0
C2817 C 0.62252 0.55379 0.14223 0.0
C2818 C 0.69336 0.54962 0.12823 0.0
C2819 C 0.68193 0.58919 0.10987 0.0
C2820 C 0.67626 0.58189 0.1175 0.0
C2821 C 0.65808 0.55771 0.13948 0.0
C2822 C 0.66403 0.56574 0.13189 0.0
H2823 H 0.67553 0.65785 0.09775 0.0
H2824 H 0.66915 0.64713 0.11041 0.0
H2825 H 0.72259 0.54508 0.11851 0.0
H2826 H 0.70648 0.54664 0.15466 0.0
H2827 H 0.71581 0.55792 0.14218 0.0
C2828 C 0.67335 0.41142 0.39954 0.0
C2829 C 0.6995 0.38667 0.40215 0.0
C2830 C 0.66892 0.4163 0.3923 0.0
C2831 C 0.7174 0.41353 0.37581 0.0
H2832 H 0.62076 0.4106 0.36735 0.0
C2833 C 0.69561 0.43241 0.34592 0.0
C2834 C 0.6639 0.45066 0.34363 0.0
C2835 C 0.70023 0.42346 0.35301 0.0
C2836 C 0.64787 0.4121 0.36964 0.0
H2837 H 0.74151 0.34758 0.39927 0.0
H2838 H 0.73433 0.35695 0.3865 0.0
H2839 H 0.62827 0.39542 0.37979 0.0
H2840 H 0.61265 0.47481 0.347 0.0
H2841 H 0.62132 0.4605 0.35946 0.0
H2842 H 0.737 0.43165 0.36578 0.0
C2843 C 0.71711 0.37217 0.39011 0.0
C2844 C 0.65216 0.40305 0.37674 0.0
C2845 C 0.7211 0.36673 0.39738 0.0
C2846 C 0.63727 0.46055 0.34861 0.0
C2847 C 0.64214 0.45204 0.35574 0.0
C2848 C 0.71308 0.42312 0.36872 0.0
C2849 C 0.69092 0.39699 0.38753 0.0
C2850 C 0.68691 0.40386 0.37989 0.0
C2851 C 0.67351 0.433 0.35802 0.0
C2852 C 0.67821 0.42268 0.36555 0.0
H2853 H 0.65617 0.42705 0.40309 0.0
H2854 H 0.64878 0.43581 0.39044 0.0
H2855 H 0.74441 0.41483 0.37816 0.0
H2856 H 0.71654 0.42411 0.3422 0.0
H2857 H 0.72443 0.40828 0.35453 0.0
C2858 C 0.86951 0.45566 0.64917 0.0
C2859 C 0.84361 0.44024 0.65377 0.0
C2860 C 0.86642 0.4505 0.64188 0.0
C2861 C 0.82898 0.38838 0.62864 0.0
H2862 H 0.83092 0.47231 0.61614 0.0
C2863 C 0.79301 0.37647 0.59901 0.0
C2864 C 0.81195 0.39917 0.59428 0.0
C2865 C 0.79745 0.38088 0.60629 0.0
C2866 C 0.83094 0.44844 0.61953 0.0
H2867 H 0.79445 0.40699 0.65435 0.0
H2868 H 0.78955 0.39755 0.64166 0.0
H2869 H 0.83904 0.48112 0.62878 0.0
H2870 H 0.85131 0.44339 0.59344 0.0
H2871 H 0.86017 0.4501 0.60606 0.0
H2872 H 0.82174 0.35548 0.61942 0.0
C2873 C 0.81207 0.41372 0.64369 0.0
C2874 C 0.83547 0.4536 0.62677 0.0
C2875 C 0.81478 0.41936 0.65095 0.0
C2876 C 0.83597 0.42576 0.59696 0.0
C2877 C 0.84086 0.42977 0.60421 0.0
C2878 C 0.825 0.38312 0.62138 0.0
C2879 C 0.83778 0.4293 0.63909 0.0
C2880 C 0.83433 0.42365 0.63139 0.0
C2881 C 0.82136 0.40772 0.60899 0.0
C2882 C 0.82578 0.41311 0.61673 0.0
H2883 H 0.89196 0.47192 0.6512 0.0
H2884 H 0.88666 0.46268 0.63843 0.0
H2885 H 0.8283 0.3648 0.6321 0.0
H2886 H 0.77416 0.35588 0.59708 0.0
H2887 H 0.78159 0.36372 0.6098 0.0
C2888 C 0.14428 0.38892 0.14993 0.0
C2889 C 0.14978 0.42207 0.15353 0.0
C2890 C 0.1486 0.38704 0.14263 0.0
C2891 C 0.19558 0.43195 0.12793 0.0
H2892 H 0.12743 0.37667 0.11642 0.0
C2893 C 0.20097 0.43118 0.09747 0.0
C2894 C 0.19268 0.39826 0.09398 0.0
C2895 C 0.19686 0.43408 0.10477 0.0
C2896 C 0.147 0.39178 0.11957 0.0
H2897 H 0.16347 0.47948 0.15229 0.0
H2898 H 0.17102 0.47615 0.13948 0.0
H2899 H 0.11635 0.38295 0.12904 0.0
H2900 H 0.175 0.34211 0.09546 0.0
H2901 H 0.16849 0.34698 0.10822 0.0
H2902 H 0.22644 0.4405 0.11848 0.0
C2903 C 0.16362 0.45158 0.14234 0.0
C2904 C 0.14055 0.39551 0.1268 0.0
C2905 C 0.15906 0.45353 0.14966 0.0
C2906 C 0.18139 0.36792 0.09798 0.0
C2907 C 0.17739 0.3708 0.10529 0.0
C2908 C 0.20212 0.42811 0.12071 0.0
C2909 C 0.15868 0.41823 0.13876 0.0
C2910 C 0.16482 0.41554 0.13105 0.0
C2911 C 0.18451 0.40409 0.10875 0.0
C2912 C 0.17795 0.40788 0.11645 0.0
H2913 H 0.13709 0.36418 0.15276 0.0
H2914 H 0.14497 0.36088 0.14003 0.0
H2915 H 0.21504 0.4471 0.1311 0.0
H2916 H 0.20972 0.4551 0.09455 0.0
H2917 H 0.20226 0.46021 0.10726 0.0
C2918 C 0.38233 0.44302 0.84885 0.0
C2919 C 0.35199 0.44082 0.84432 0.0
C2920 C 0.37817 0.43707 0.85611 0.0
C2921 C 0.30742 0.43358 0.87018 0.0
H2922 H 0.38202 0.38007 0.88043 0.0
C2923 C 0.30503 0.42091 0.90044 0.0
C2924 C 0.31737 0.38819 0.90353 0.0
C2925 C 0.30854 0.42668 0.89319 0.0
C2926 C 0.36071 0.39467 0.87763 0.0
H2927 H 0.29349 0.43059 0.84385 0.0
H2928 H 0.28648 0.41942 0.85638 0.0
H2929 H 0.39 0.39175 0.86787 0.0
H2930 H 0.34196 0.33533 0.90139 0.0
H2931 H 0.34713 0.34496 0.88869 0.0
H2932 H 0.2775 0.43542 0.87985 0.0
C2933 C 0.31336 0.42655 0.8544 0.0
C2934 C 0.36557 0.4019 0.87045 0.0
C2935 C 0.31745 0.43277 0.84719 0.0
C2936 C 0.33234 0.3609 0.89918 0.0
C2937 C 0.33559 0.36657 0.89191 0.0
C2938 C 0.30242 0.42611 0.87734 0.0
C2939 C 0.34363 0.42857 0.85896 0.0
C2940 C 0.33898 0.42146 0.86663 0.0
C2941 C 0.32414 0.39973 0.88884 0.0
C2942 C 0.32904 0.40666 0.88116 0.0
H2943 H 0.40928 0.44928 0.84681 0.0
H2944 H 0.40199 0.43936 0.85948 0.0
H2945 H 0.28656 0.44913 0.86744 0.0
H2946 H 0.29351 0.4426 0.90364 0.0
H2947 H 0.29991 0.45276 0.89105 0.0
C2948 C 0.31785 0.64106 0.59775 0.0
C2949 C 0.30885 0.61191 0.59324 0.0
C2950 C 0.32147 0.63525 0.60501 0.0
C2951 C 0.30095 0.56738 0.61916 0.0
H2952 H 0.37856 0.61829 0.62906 0.0
C2953 C 0.38276 0.5639 0.64767 0.0
C2954 C 0.35276 0.55742 0.65213 0.0
C2955 C 0.37739 0.56977 0.64045 0.0
C2956 C 0.35708 0.60345 0.62636 0.0
H2957 H 0.296 0.55393 0.59284 0.0
H2958 H 0.30341 0.54363 0.60537 0.0
H2959 H 0.36832 0.63059 0.61661 0.0
H2960 H 0.29363 0.55188 0.65251 0.0
H2961 H 0.28423 0.56324 0.64006 0.0
H2962 H 0.29085 0.53887 0.62879 0.0
C2963 C 0.3068 0.5712 0.60338 0.0
C2964 C 0.35074 0.61103 0.61924 0.0
C2965 C 0.30272 0.57709 0.59616 0.0
C2966 C 0.31742 0.55646 0.64922 0.0
C2967 C 0.31202 0.56281 0.64205 0.0
C2968 C 0.30762 0.55942 0.62624 0.0
C2969 C 0.31656 0.60009 0.6079 0.0
C2970 C 0.32257 0.59308 0.61554 0.0
C2971 C 0.34187 0.56972 0.63756 0.0
C2972 C 0.33567 0.57744 0.62995 0.0
H2973 H 0.32257 0.66824 0.59566 0.0
H2974 H 0.32832 0.6583 0.60835 0.0
H2975 H 0.27868 0.55335 0.61654 0.0
H2976 H 0.41033 0.56467 0.64977 0.0
H2977 H 0.4011 0.57434 0.63714 0.0
C2978 C 0.17799 0.63599 0.39777 0.0
C2979 C 0.1856 0.60618 0.40221 0.0
C2980 C 0.17501 0.63096 0.39047 0.0
C2981 C 0.14748 0.60875 0.37598 0.0
H2982 H 0.20914 0.538 0.36644 0.0
C2983 C 0.1204 0.56538 0.34718 0.0
C2984 C 0.15109 0.5604 0.34282 0.0
C2985 C 0.12468 0.57012 0.35445 0.0
C2986 C 0.19189 0.55812 0.36899 0.0
H2987 H 0.19637 0.54775 0.40247 0.0
H2988 H 0.19028 0.53887 0.38986 0.0
H2989 H 0.21861 0.55019 0.3789 0.0
H2990 H 0.21034 0.55612 0.34269 0.0
H2991 H 0.21785 0.56525 0.35529 0.0
H2992 H 0.12168 0.61766 0.366 0.0
C2993 C 0.18739 0.56631 0.39194 0.0
C2994 C 0.19702 0.56478 0.37617 0.0
C2995 C 0.19068 0.57139 0.3992 0.0
C2996 C 0.18607 0.55965 0.3459 0.0
C2997 C 0.19038 0.56474 0.35314 0.0
C2998 C 0.14258 0.60234 0.36877 0.0
C2999 C 0.17933 0.59596 0.38748 0.0
C3000 C 0.17476 0.59002 0.37977 0.0
C3001 C 0.15978 0.57029 0.35751 0.0
C3002 C 0.16465 0.57684 0.3652 0.0
H3003 H 0.17409 0.66317 0.39992 0.0
H3004 H 0.16938 0.65452 0.38718 0.0
H3005 H 0.12952 0.62803 0.37859 0.0
H3006 H 0.09307 0.56591 0.34496 0.0
H3007 H 0.10046 0.57364 0.35767 0.0
C3008 C 0.33859 0.94645 0.22539 0.0
C3009 C 0.35219 0.9684 0.21993 0.0
C3010 C 0.35166 0.95061 0.23225 0.0
C3011 C 0.38561 0.02095 0.24388 0.0
H3012 H 0.39546 0.93954 0.25686 0.0
C3013 C 0.37999 0.04195 0.27406 0.0
C3014 C 0.35403 0.01899 0.27727 0.0
C3015 C 0.39233 0.03458 0.26721 0.0
C3016 C 0.39307 0.96259 0.2533 0.0
H3017 H 0.39002 0.01183 0.21726 0.0
H3018 H 0.41281 0.01954 0.22936 0.0
H3019 H 0.3948 0.9281 0.24418 0.0
H3020 H 0.3216 0.96982 0.27597 0.0
H3021 H 0.34282 0.95705 0.26409 0.0
H3022 H 0.38154 0.05522 0.253 0.0
C3023 C 0.39248 0.9987 0.2283 0.0
C3024 C 0.39274 0.95604 0.24605 0.0
C3025 C 0.37969 0.99413 0.22139 0.0
C3026 C 0.34162 0.98798 0.27362 0.0
C3027 C 0.35412 0.98046 0.26684 0.0
C3028 C 0.38581 0.02751 0.25114 0.0
C3029 C 0.37817 0.97728 0.23381 0.0
C3030 C 0.38739 0.98497 0.24128 0.0
C3031 C 0.3791 0.00398 0.26349 0.0
C3032 C 0.38786 0.99819 0.25593 0.0
H3033 H 0.31714 0.92666 0.22438 0.0
H3034 H 0.33962 0.93416 0.2364 0.0
H3035 H 0.38125 0.04377 0.24033 0.0
H3036 H 0.38956 0.06637 0.27672 0.0
H3037 H 0.41156 0.05322 0.26476 0.0
C3038 C 0.22416 0.11677 0.52478 0.0
C3039 C 0.24415 0.0883 0.52794 0.0
C3040 C 0.23106 0.12679 0.51778 0.0
C3041 C 0.29843 0.1172 0.50328 0.0
H3042 H 0.21345 0.11321 0.49105 0.0
C3043 C 0.30553 0.06542 0.47503 0.0
C3044 C 0.28304 0.08058 0.46979 0.0
C3045 C 0.30311 0.07742 0.48199 0.0
C3046 C 0.23744 0.11535 0.49438 0.0
H3047 H 0.28757 0.04878 0.52639 0.0
H3048 H 0.29981 0.0663 0.51423 0.0
H3049 H 0.20517 0.11501 0.50381 0.0
H3050 H 0.24018 0.12017 0.46773 0.0
H3051 H 0.23599 0.14142 0.47995 0.0
H3052 H 0.33074 0.11589 0.49388 0.0
C3053 C 0.27905 0.08115 0.51714 0.0
C3054 C 0.23268 0.11636 0.5017 0.0
C3055 C 0.27185 0.07088 0.52408 0.0
C3056 C 0.25843 0.10855 0.47162 0.0
C3057 C 0.25576 0.12043 0.47863 0.0
C3058 C 0.30318 0.1163 0.49598 0.0
C3059 C 0.25832 0.10874 0.51386 0.0
C3060 C 0.26317 0.11577 0.50622 0.0
C3061 C 0.27787 0.10469 0.4839 0.0
C3062 C 0.27277 0.11379 0.49147 0.0
H3063 H 0.20216 0.13016 0.5276 0.0
H3064 H 0.21462 0.14808 0.51537 0.0
H3065 H 0.32241 0.11739 0.50665 0.0
H3066 H 0.32473 0.04379 0.47377 0.0
H3067 H 0.32005 0.0642 0.48593 0.0
C3068 C 0.17879 0.93864 0.77088 0.0
C3069 C 0.16459 0.96114 0.77621 0.0
C3070 C 0.1665 0.94201 0.76395 0.0
C3071 C 0.12997 0.0102 0.75189 0.0
H3072 H 0.12679 0.92694 0.73921 0.0
C3073 C 0.13014 0.02706 0.72155 0.0
C3074 C 0.15898 0.00749 0.71842 0.0
C3075 C 0.11948 0.01941 0.72849 0.0
C3076 C 0.12723 0.95044 0.7427 0.0
H3077 H 0.12638 0.00497 0.77848 0.0
H3078 H 0.10455 0.01072 0.76632 0.0
H3079 H 0.12759 0.91688 0.75194 0.0
H3080 H 0.1985 0.96404 0.71994 0.0
H3081 H 0.17977 0.95042 0.73199 0.0
H3082 H 0.1312 0.04368 0.74262 0.0
C3083 C 0.12503 0.99024 0.76754 0.0
C3084 C 0.12777 0.94471 0.74997 0.0
C3085 C 0.13723 0.98667 0.77451 0.0
C3086 C 0.17614 0.97945 0.72224 0.0
C3087 C 0.16519 0.97147 0.72911 0.0
C3088 C 0.12924 0.01594 0.7446 0.0
C3089 C 0.1399 0.9682 0.76217 0.0
C3090 C 0.13081 0.97447 0.75464 0.0
C3091 C 0.1372 0.99176 0.73235 0.0
C3092 C 0.12947 0.98605 0.73994 0.0
H3093 H 0.19995 0.91875 0.77204 0.0
H3094 H 0.17909 0.92508 0.75994 0.0
H3095 H 0.13252 0.0337 0.75534 0.0
H3096 H 0.1169 0.04925 0.71875 0.0
H3097 H 0.09793 0.03554 0.73088 0.0
C3098 C 0.26223 0.89703 0.02432 0.0
C3099 C 0.2923 0.91683 0.0269 0.0
C3100 C 0.25934 0.88945 0.01709 0.0
C3101 C 0.28952 0.93076 0.00053 0.0
H3102 H 0.24966 0.8442 0.99153 0.0
C3103 C 0.28216 0.92415 0.97071 0.0
C3104 C 0.24872 0.91304 0.96779 0.0
C3105 C 0.28991 0.91745 0.97778 0.0
C3106 C 0.26068 0.86857 0.99399 0.0
H3107 H 0.34398 0.942 0.02418 0.0
H3108 H 0.33964 0.9279 0.01164 0.0
H3109 H 0.2592 0.84479 0.00436 0.0
H3110 H 0.19761 0.88501 0.96985 0.0
H3111 H 0.21081 0.8739 0.98235 0.0
H3112 H 0.29039 0.95503 0.99032 0.0
C3113 C 0.31783 0.91897 0.01511 0.0
C3114 C 0.26614 0.86889 0.00131 0.0
C3115 C 0.32046 0.92687 0.02227 0.0
C3116 C 0.22378 0.89348 0.97198 0.0
C3117 C 0.23136 0.88713 0.97912 0.0
C3118 C 0.28408 0.93045 0.99327 0.0
C3119 C 0.28656 0.90156 0.01239 0.0
C3120 C 0.28091 0.89998 0.00464 0.0
C3121 C 0.26404 0.90016 0.98214 0.0
C3122 C 0.26989 0.89933 0.98989 0.0
H3123 H 0.23997 0.88952 0.0278 0.0
H3124 H 0.23484 0.87617 0.01515 0.0
H3125 H 0.29985 0.95557 0.00294 0.0
H3126 H 0.30198 0.93895 0.96755 0.0
H3127 H 0.31572 0.92703 0.9799 0.0
C3128 C 0.63006 0.03033 0.77558 0.0
C3129 C 0.65953 0.01154 0.77866 0.0
C3130 C 0.61869 0.02168 0.76873 0.0
C3131 C 0.6256 0.95118 0.7548 0.0
H3132 H 0.62894 0.03301 0.7418 0.0
C3133 C 0.67283 0.93606 0.72638 0.0
C3134 C 0.65793 0.95814 0.72105 0.0
C3135 C 0.66174 0.94024 0.73336 0.0
C3136 C 0.62692 0.00989 0.74535 0.0
H3137 H 0.69943 0.9684 0.77718 0.0
H3138 H 0.67947 0.95303 0.76528 0.0
H3139 H 0.62895 0.04443 0.75446 0.0
H3140 H 0.61983 0.00221 0.71887 0.0
H3141 H 0.59993 0.0092 0.7311 0.0
H3142 H 0.62505 0.91656 0.74571 0.0
C3143 C 0.66496 0.97425 0.76813 0.0
C3144 C 0.62696 0.01646 0.75261 0.0
C3145 C 0.67661 0.98324 0.77491 0.0
C3146 C 0.63114 0.98414 0.72282 0.0
C3147 C 0.62007 0.98845 0.72984 0.0
C3148 C 0.62534 0.94462 0.74755 0.0
C3149 C 0.63634 0.99379 0.76492 0.0
C3150 C 0.62787 0.98711 0.75739 0.0
C3151 C 0.63561 0.9668 0.7352 0.0
C3152 C 0.62764 0.97385 0.74275 0.0
H3153 H 0.61685 0.05269 0.77833 0.0
H3154 H 0.59666 0.03723 0.76635 0.0
H3155 H 0.6257 0.9281 0.75839 0.0
H3156 H 0.69359 0.91585 0.72517 0.0
H3157 H 0.67484 0.9236 0.73736 0.0
C3158 C 0.78323 0.90506 0.47313 0.0
C3159 C 0.75857 0.92618 0.46915 0.0
C3160 C 0.77844 0.90131 0.48043 0.0
C3161 C 0.73939 0.95325 0.49499 0.0
H3162 H 0.74775 0.86451 0.5061 0.0
C3163 C 0.69898 0.95377 0.52389 0.0
C3164 C 0.72251 0.93665 0.52872 0.0
C3165 C 0.70298 0.94791 0.51668 0.0
C3166 C 0.74572 0.88952 0.50306 0.0
H3167 H 0.70867 0.95817 0.46957 0.0
H3168 H 0.70025 0.9515 0.48223 0.0
H3169 H 0.75562 0.86183 0.49324 0.0
H3170 H 0.76849 0.89963 0.52981 0.0
H3171 H 0.7758 0.88953 0.51711 0.0
H3172 H 0.72998 0.98121 0.50469 0.0
C3173 C 0.7235 0.93827 0.47976 0.0
C3174 C 0.75016 0.88796 0.49572 0.0
C3175 C 0.72829 0.94203 0.47252 0.0
C3176 C 0.74953 0.91261 0.52621 0.0
C3177 C 0.75377 0.90694 0.51894 0.0
C3178 C 0.73514 0.95484 0.50227 0.0
C3179 C 0.74908 0.91884 0.48383 0.0
C3180 C 0.74635 0.91978 0.49162 0.0
C3181 C 0.73103 0.92526 0.5141 0.0
C3182 C 0.73754 0.92296 0.50639 0.0
H3183 H 0.80719 0.8931 0.47069 0.0
H3184 H 0.79866 0.88636 0.48345 0.0
H3185 H 0.73729 0.97839 0.49199 0.0
H3186 H 0.67768 0.97215 0.5257 0.0
H3187 H 0.68444 0.96174 0.5131 0.0
C3188 C 0.88056 0.96624 0.27432 0.0
C3189 C 0.85361 0.98867 0.27736 0.0
C3190 C 0.89298 0.97312 0.26747 0.0
C3191 C 0.89204 0.04296 0.2532 0.0
H3192 H 0.88255 0.95958 0.24069 0.0
C3193 C 0.83534 0.05293 0.22543 0.0
C3194 C 0.84846 0.02991 0.22009 0.0
C3195 C 0.84964 0.05069 0.23222 0.0
C3196 C 0.88634 0.98304 0.2441 0.0
H3197 H 0.81927 0.03627 0.27576 0.0
H3198 H 0.8406 0.04815 0.26383 0.0
H3199 H 0.88318 0.95003 0.2534 0.0
H3200 H 0.88676 0.98666 0.21756 0.0
H3201 H 0.91183 0.98242 0.22955 0.0
H3202 H 0.89284 0.07614 0.24389 0.0
C3203 C 0.85264 0.02561 0.26673 0.0
C3204 C 0.8867 0.97756 0.2514 0.0
C3205 C 0.84006 0.01857 0.27353 0.0
C3206 C 0.8768 0.00519 0.22158 0.0
C3207 C 0.8909 0.0026 0.22843 0.0
C3208 C 0.89163 0.04843 0.24592 0.0
C3209 C 0.87879 0.00266 0.26357 0.0
C3210 C 0.88776 0.00763 0.25601 0.0
C3211 C 0.87696 0.02492 0.23384 0.0
C3212 C 0.88701 0.01866 0.24131 0.0
H3213 H 0.89098 0.94262 0.27713 0.0
H3214 H 0.91307 0.95492 0.26515 0.0
H3215 H 0.89365 0.06657 0.25664 0.0
H3216 H 0.81328 0.072 0.22438 0.0
H3217 H 0.83783 0.06778 0.2363 0.0
C3218 C 0.7252 0.09065 0.97209 0.0
C3219 C 0.73824 0.05971 0.96848 0.0
C3220 C 0.73455 0.09634 0.97917 0.0
C3221 C 0.76032 0.04261 0.99466 0.0
H3222 H 0.78552 0.13555 0.00327 0.0
C3223 C 0.80306 0.04714 0.02339 0.0
C3224 C 0.7865 0.07383 0.02762 0.0
C3225 C 0.80151 0.04975 0.01607 0.0
C3226 C 0.77829 0.10949 0.00093 0.0
H3227 H 0.77247 0.01146 0.96929 0.0
H3228 H 0.78901 0.02149 0.98157 0.0
H3229 H 0.77445 0.13229 0.9905 0.0
H3230 H 0.75626 0.12475 0.02763 0.0
H3231 H 0.75282 0.12914 0.01472 0.0
H3232 H 0.76338 0.01971 0.00498 0.0
C3233 C 0.77115 0.04107 0.979 0.0
C3234 C 0.77197 0.10764 0.99364 0.0
C3235 C 0.76174 0.03535 0.97197 0.0
C3236 C 0.76965 0.10413 0.02444 0.0
C3237 C 0.7677 0.10658 0.01707 0.0
C3238 C 0.76651 0.04446 0.00189 0.0
C3239 C 0.75693 0.07107 0.98274 0.0
C3240 C 0.76331 0.07402 0.99044 0.0
C3241 C 0.78264 0.07874 0.01282 0.0
C3242 C 0.77597 0.07777 0.00511 0.0
H3243 H 0.70645 0.10949 0.96958 0.0
H3244 H 0.72292 0.11951 0.98194 0.0
H3245 H 0.7527 0.0165 0.99238 0.0
H3246 H 0.81637 0.02363 0.02575 0.0
H3247 H 0.81405 0.02833 0.01295 0.0
C3248 C 0.83195 0.55607 0.77205 0.0
C3249 C 0.84177 0.53189 0.77748 0.0
C3250 C 0.84445 0.55046 0.7652 0.0
C3251 C 0.86911 0.47668 0.75341 0.0
H3252 H 0.88976 0.55714 0.74066 0.0
C3253 C 0.86448 0.45842 0.72317 0.0
C3254 C 0.84135 0.48415 0.71994 0.0
C3255 C 0.87681 0.46401 0.73008 0.0
C3256 C 0.88434 0.53432 0.74416 0.0
H3257 H 0.87236 0.48282 0.78002 0.0
H3258 H 0.89428 0.47282 0.76795 0.0
H3259 H 0.8899 0.56767 0.75338 0.0
H3260 H 0.81387 0.53622 0.72125 0.0
H3261 H 0.83525 0.54603 0.73325 0.0
H3262 H 0.86154 0.44381 0.74418 0.0
C3263 C 0.87727 0.49642 0.76905 0.0
C3264 C 0.88443 0.54034 0.75143 0.0
C3265 C 0.86503 0.50232 0.77596 0.0
C3266 C 0.83175 0.51601 0.72362 0.0
C3267 C 0.84431 0.52177 0.73047 0.0
C3268 C 0.86902 0.47066 0.74612 0.0
C3269 C 0.86669 0.52022 0.76359 0.0
C3270 C 0.87521 0.51197 0.75611 0.0
C3271 C 0.86642 0.49555 0.73383 0.0
C3272 C 0.87502 0.49982 0.74143 0.0
H3273 H 0.81399 0.57904 0.77309 0.0
H3274 H 0.83524 0.56892 0.76109 0.0
H3275 H 0.8617 0.45433 0.75687 0.0
H3276 H 0.87174 0.4333 0.72049 0.0
H3277 H 0.89376 0.44333 0.73255 0.0
C3278 C 0.75535 0.59852 0.97242 0.0
C3279 C 0.78598 0.5794 0.96991 0.0
C3280 C 0.75216 0.60646 0.97962 0.0
C3281 C 0.78369 0.56746 0.99632 0.0
H3282 H 0.74056 0.65328 0.00503 0.0
C3283 C 0.77644 0.57632 0.02605 0.0
C3284 C 0.74224 0.58528 0.02891 0.0
C3285 C 0.78393 0.58329 0.01898 0.0
C3286 C 0.75253 0.62915 0.00264 0.0
H3287 H 0.83831 0.55581 0.9727 0.0
H3288 H 0.83348 0.57062 0.98519 0.0
H3289 H 0.75025 0.65193 0.9922 0.0
H3290 H 0.68956 0.6101 0.02679 0.0
H3291 H 0.70238 0.62167 0.01428 0.0
H3292 H 0.78548 0.5442 0.00661 0.0
C3293 C 0.81143 0.57868 0.9817 0.0
C3294 C 0.75806 0.62837 0.99532 0.0
C3295 C 0.81434 0.57036 0.97456 0.0
C3296 C 0.71626 0.60324 0.02469 0.0
C3297 C 0.72362 0.60986 0.01755 0.0
C3298 C 0.77825 0.56824 0.00357 0.0
C3299 C 0.77968 0.59545 0.98437 0.0
C3300 C 0.77398 0.59754 0.9921 0.0
C3301 C 0.7571 0.59871 0.01458 0.0
C3302 C 0.76289 0.59912 0.00684 0.0
H3303 H 0.73298 0.6053 0.96891 0.0
H3304 H 0.7273 0.61922 0.98153 0.0
H3305 H 0.79491 0.54281 0.99399 0.0
H3306 H 0.79705 0.56284 0.02923 0.0
H3307 H 0.8103 0.5752 0.01688 0.0
C3308 C 0.6031 0.53642 0.22281 0.0
C3309 C 0.63068 0.5128 0.22038 0.0
C3310 C 0.58902 0.5325 0.22964 0.0
C3311 C 0.59062 0.47082 0.24541 0.0
H3312 H 0.59285 0.56197 0.25584 0.0
C3313 C 0.60719 0.46984 0.27547 0.0
C3314 C 0.63549 0.49301 0.27776 0.0
C3315 C 0.59189 0.47428 0.26876 0.0
C3316 C 0.59184 0.53626 0.25301 0.0
H3317 H 0.66413 0.46581 0.22304 0.0
H3318 H 0.64048 0.45947 0.23491 0.0
H3319 H 0.59302 0.56331 0.24303 0.0
H3320 H 0.66894 0.53975 0.27496 0.0
H3321 H 0.64323 0.54692 0.26326 0.0
H3322 H 0.59296 0.44371 0.25537 0.0
C3323 C 0.62892 0.48053 0.23157 0.0
C3324 C 0.59145 0.53702 0.24564 0.0
C3325 C 0.64289 0.48444 0.22478 0.0
C3326 C 0.64717 0.52147 0.27334 0.0
C3327 C 0.63202 0.52586 0.26665 0.0
C3328 C 0.59142 0.47005 0.25277 0.0
C3329 C 0.60241 0.50499 0.23415 0.0
C3330 C 0.5928 0.50426 0.24177 0.0
C3331 C 0.60481 0.5018 0.2642 0.0
C3332 C 0.594 0.50277 0.25664 0.0
H3333 H 0.59366 0.559 0.2196 0.0
H3334 H 0.56855 0.55173 0.23146 0.0
H3335 H 0.5907 0.44509 0.24257 0.0
H3336 H 0.59812 0.44715 0.2787 0.0
H3337 H 0.57088 0.45536 0.26704 0.0
C3338 C 0.6852 0.43228 0.47373 0.0
C3339 C 0.71025 0.41491 0.46926 0.0
C3340 C 0.68673 0.42662 0.48099 0.0
C3341 C 0.72933 0.37148 0.49532 0.0
H3342 H 0.71876 0.46272 0.50557 0.0
C3343 C 0.77661 0.39806 0.52433 0.0
C3344 C 0.75351 0.42033 0.52842 0.0
C3345 C 0.76828 0.39111 0.51724 0.0
C3346 C 0.72128 0.43687 0.50281 0.0
H3347 H 0.75578 0.3772 0.46871 0.0
H3348 H 0.75942 0.368 0.48151 0.0
H3349 H 0.70946 0.46193 0.49293 0.0
H3350 H 0.70264 0.45079 0.52848 0.0
H3351 H 0.68795 0.43843 0.51619 0.0
H3352 H 0.74235 0.34692 0.50531 0.0
C3353 C 0.73795 0.38526 0.47941 0.0
C3354 C 0.71583 0.43637 0.49555 0.0
C3355 C 0.73597 0.39052 0.4721 0.0
C3356 C 0.7211 0.43385 0.52542 0.0
C3357 C 0.71273 0.42682 0.51839 0.0
C3358 C 0.73503 0.37205 0.50263 0.0
C3359 C 0.71404 0.40421 0.48394 0.0
C3360 C 0.71947 0.40368 0.49171 0.0
C3361 C 0.73681 0.40646 0.51416 0.0
C3362 C 0.73075 0.40477 0.50644 0.0
H3363 H 0.66503 0.45107 0.47161 0.0
H3364 H 0.66729 0.44088 0.48431 0.0
H3365 H 0.7323 0.34586 0.49251 0.0
H3366 H 0.80207 0.38778 0.52648 0.0
H3367 H 0.78744 0.37554 0.51408 0.0
C3368 C 0.15225 0.43659 0.22553 0.0
C3369 C 0.13901 0.45913 0.22011 0.0
C3370 C 0.14089 0.44177 0.23247 0.0
C3371 C 0.11066 0.51479 0.24412 0.0
H3372 H 0.10788 0.43497 0.2576 0.0
C3373 C 0.12388 0.5382 0.27421 0.0
C3374 C 0.1541 0.51889 0.27688 0.0
C3375 C 0.10948 0.52935 0.26758 0.0
C3376 C 0.10809 0.45755 0.25389 0.0
H3377 H 0.10312 0.50469 0.2177 0.0
H3378 H 0.08282 0.51361 0.22987 0.0
H3379 H 0.10367 0.4218 0.245 0.0
H3380 H 0.19208 0.47454 0.27494 0.0
H3381 H 0.16666 0.45866 0.26345 0.0
H3382 H 0.11669 0.55034 0.25303 0.0
C3383 C 0.1019 0.49173 0.22872 0.0
C3384 C 0.10582 0.45004 0.24669 0.0
C3385 C 0.1132 0.48637 0.22173 0.0
C3386 C 0.16877 0.48981 0.27298 0.0
C3387 C 0.15401 0.48054 0.26644 0.0
C3388 C 0.11263 0.52231 0.25134 0.0
C3389 C 0.11615 0.46986 0.23418 0.0
C3390 C 0.10896 0.47842 0.24171 0.0
C3391 C 0.12469 0.50062 0.26361 0.0
C3392 C 0.11313 0.49359 0.25626 0.0
H3393 H 0.17219 0.41539 0.22443 0.0
H3394 H 0.15301 0.42486 0.23654 0.0
H3395 H 0.11335 0.53728 0.24043 0.0
H3396 H 0.11244 0.56106 0.2771 0.0
H3397 H 0.087 0.54535 0.26549 0.0
C3398 C 0.25729 0.38515 0.97219 0.0
C3399 C 0.28258 0.41255 0.97038 0.0
C3400 C 0.25314 0.37439 0.97924 0.0
C3401 C 0.29708 0.38116 0.99691 0.0
H3402 H 0.19759 0.38554 0.00397 0.0
C3403 C 0.26022 0.43627 0.02402 0.0
C3404 C 0.23229 0.41977 0.02797 0.0
C3405 C 0.26859 0.42362 0.01728 0.0
C3406 C 0.22547 0.38331 0.00208 0.0
H3407 H 0.32393 0.44945 0.97444 0.0
H3408 H 0.31665 0.43102 0.98667 0.0
H3409 H 0.20845 0.38408 0.99127 0.0
H3410 H 0.19113 0.37708 0.02801 0.0
H3411 H 0.20546 0.35516 0.01609 0.0
H3412 H 0.3141 0.38274 0.00771 0.0
C3413 C 0.30034 0.41735 0.98269 0.0
C3414 C 0.23171 0.38245 0.9948 0.0
C3415 C 0.30424 0.42824 0.97569 0.0
C3416 C 0.2132 0.38988 0.02511 0.0
C3417 C 0.22121 0.37752 0.01829 0.0
C3418 C 0.29084 0.3822 0.00417 0.0
C3419 C 0.2744 0.3907 0.98457 0.0
C3420 C 0.26764 0.383 0.99215 0.0
C3421 C 0.2488 0.39454 0.01429 0.0
C3422 C 0.25504 0.38485 0.00681 0.0
H3423 H 0.23966 0.37315 0.96824 0.0
H3424 H 0.23286 0.35386 0.98054 0.0
H3425 H 0.32505 0.38079 0.99501 0.0
H3426 H 0.27529 0.45938 0.02612 0.0
H3427 H 0.28958 0.43768 0.01429 0.0
C3428 C 0.34351 0.50035 0.72147 0.0
C3429 C 0.32333 0.52988 0.71878 0.0
C3430 C 0.3512 0.49835 0.7287 0.0
C3431 C 0.31089 0.53092 0.74524 0.0
H3432 H 0.39809 0.49175 0.75414 0.0
C3433 C 0.32095 0.52857 0.77503 0.0
C3434 C 0.33085 0.49503 0.77807 0.0
C3435 C 0.32735 0.53514 0.7679 0.0
C3436 C 0.37358 0.50263 0.75171 0.0
H3437 H 0.29746 0.58151 0.72129 0.0
H3438 H 0.31185 0.57882 0.73382 0.0
H3439 H 0.39631 0.4995 0.74127 0.0
H3440 H 0.35657 0.44254 0.77617 0.0
H3441 H 0.36733 0.4538 0.76358 0.0
H3442 H 0.28777 0.53363 0.75554 0.0
C3443 C 0.32091 0.55666 0.73046 0.0
C3444 C 0.37254 0.50703 0.74436 0.0
C3445 C 0.31284 0.55836 0.72329 0.0
C3446 C 0.34908 0.4688 0.77395 0.0
C3447 C 0.35522 0.47525 0.76676 0.0
C3448 C 0.31196 0.52664 0.75253 0.0
C3449 C 0.33889 0.52598 0.7333 0.0
C3450 C 0.34119 0.52149 0.74107 0.0
C3451 C 0.34322 0.50803 0.76363 0.0
C3452 C 0.34332 0.5127 0.75586 0.0
H3453 H 0.35145 0.47791 0.71806 0.0
H3454 H 0.36491 0.47428 0.73073 0.0
H3455 H 0.28587 0.54102 0.74287 0.0
H3456 H 0.3072 0.54937 0.77812 0.0
H3457 H 0.31855 0.56098 0.76567 0.0
C3458 C 0.27476 0.56737 0.47051 0.0
C3459 C 0.24192 0.58202 0.46796 0.0
C3460 C 0.2863 0.57502 0.47734 0.0
C3461 C 0.26826 0.63009 0.49351 0.0
H3462 H 0.30072 0.54067 0.50258 0.0
C3463 C 0.27216 0.60324 0.52387 0.0
C3464 C 0.30117 0.58153 0.52634 0.0
C3465 C 0.2688 0.61073 0.51665 0.0
C3466 C 0.29232 0.56609 0.50012 0.0
H3467 H 0.1962 0.61762 0.47029 0.0
H3468 H 0.21559 0.62998 0.48246 0.0
H3469 H 0.28808 0.54054 0.49008 0.0
H3470 H 0.35071 0.55287 0.52338 0.0
H3471 H 0.34532 0.56645 0.51085 0.0
H3472 H 0.27145 0.65503 0.50376 0.0
C3473 C 0.23292 0.61329 0.47912 0.0
C3474 C 0.28513 0.56606 0.49292 0.0
C3475 C 0.22173 0.60617 0.47219 0.0
C3476 C 0.32789 0.56937 0.52158 0.0
C3477 C 0.32476 0.57709 0.51442 0.0
C3478 C 0.27534 0.63005 0.50078 0.0
C3479 C 0.26466 0.59663 0.48185 0.0
C3480 C 0.27322 0.59803 0.4895 0.0
C3481 C 0.29444 0.59658 0.51184 0.0
C3482 C 0.28765 0.59801 0.50414 0.0
H3483 H 0.29095 0.54904 0.46727 0.0
H3484 H 0.31146 0.56265 0.47921 0.0
H3485 H 0.2591 0.65516 0.49102 0.0
H3486 H 0.25088 0.6124 0.52742 0.0
H3487 H 0.24501 0.62559 0.5148 0.0
loop_
_geom_bond_atom_site_label_1
_geom_bond_atom_site_label_2
_geom_bond_distance
_geom_bond_site_symmetry_2
_ccdc_geom_bond_type
Co0 O3 1.970 . S
Co0 N17 1.989 . S
Co0 O25 1.967 . S
Co0 O32 1.920 . S
Co1 O4 1.966 . S
Co1 N10 2.022 . S
Co1 N18 1.993 . S
Co1 O26 1.941 . S
C2 O3 1.258 . S
C2 O4 1.263 . S
O3 Co0 1.970 . S
O3 C2 1.258 . S
O4 Co1 1.966 . S
O4 C2 1.263 . S
C5 O6 1.235 . S
C5 O32 1.289 . S
O6 C5 1.235 . S
C7 C9 1.400 . S
C7 N10 1.351 . S
C7 C12 1.501 . S
C8 C9 1.387 . S
C8 N11 1.341 . S
C9 C7 1.400 . S
C9 C8 1.387 . S
N10 Co1 2.022 . S
N10 C7 1.351 . S
N10 N11 1.365 . S
N11 C8 1.341 . S
N11 N10 1.365 . S
N11 H31 0.862 . S
C12 C7 1.501 . S
C12 H13 0.961 . S
C12 H14 0.961 . S
C12 H15 0.960 . S
H13 C12 0.961 . S
H14 C12 0.961 . S
H15 C12 0.960 . S
C16 N17 1.342 . S
C16 C20 1.401 1_545 S
C16 C21 1.499 1_545 S
N17 Co0 1.989 . S
N17 C16 1.342 . S
N17 N18 1.388 . S
N18 Co1 1.993 . S
N18 N17 1.388 . S
N18 C19 1.330 1_545 S
C19 N18 1.330 1_565 S
C19 C20 1.405 . S
C19 C29 1.516 . S
C20 C16 1.401 1_565 S
C20 C19 1.405 . S
C21 C16 1.499 1_565 S
C21 H22 0.959 1_565 S
C21 H23 0.960 . S
C21 H24 0.961 . S
H22 C21 0.959 1_545 S
H23 C21 0.960 . S
H24 C21 0.961 . S
O25 Co0 1.967 . S
O25 C33 1.258 . S
O26 Co1 1.941 . S
O26 C33 1.266 . S
H27 C29 0.959 . S
H28 C29 0.961 . S
C29 C19 1.516 . S
C29 H27 0.959 . S
C29 H28 0.961 . S
C29 H30 0.960 1_565 S
H30 C29 0.960 1_545 S
H31 N11 0.862 . S
O32 Co0 1.920 . S
O32 C5 1.289 . S
C33 O25 1.258 . S
C33 O26 1.266 . S
Co34 O37 1.970 . S
Co34 N51 1.989 . S
Co34 O59 1.967 . S
Co34 O66 1.920 . S
Co35 O38 1.966 . S
Co35 N44 2.022 . S
Co35 N52 1.993 . S
Co35 O60 1.941 . S
C36 O37 1.258 . S
C36 O38 1.263 . S
O37 Co34 1.970 . S
O37 C36 1.258 . S
O38 Co35 1.966 . S
O38 C36 1.263 . S
C39 O40 1.235 . S
C39 O66 1.289 . S
O40 C39 1.235 . S
C41 C43 1.400 . S
C41 N44 1.351 . S
C41 C46 1.501 . S
C42 C43 1.387 . S
C42 N45 1.341 . S
C43 C41 1.400 . S
C43 C42 1.387 . S
N44 Co35 2.022 . S
N44 C41 1.351 . S
N44 N45 1.365 . S
N45 C42 1.341 . S
N45 N44 1.365 . S
N45 H65 0.862 . S
C46 C41 1.501 . S
C46 H47 0.961 . S
C46 H48 0.961 . S
C46 H49 0.960 . S
H47 C46 0.961 . S
H48 C46 0.961 . S
H49 C46 0.960 . S
C50 N51 1.342 . S
C50 C54 1.401 . S
C50 C55 1.499 . S
N51 Co34 1.989 . S
N51 C50 1.342 . S
N51 N52 1.388 . S
N52 Co35 1.993 . S
N52 N51 1.388 . S
N52 C53 1.346 . S
C53 N52 1.346 . S
C53 C54 1.396 . S
C53 C63 1.510 . S
C54 C50 1.401 . S
C54 C53 1.396 . S
C55 C50 1.499 . S
C55 H56 0.959 . S
C55 H57 0.960 . S
C55 H58 0.961 . S
H56 C55 0.959 . S
H57 C55 0.960 . S
H58 C55 0.961 . S
O59 Co34 1.967 . S
O59 C67 1.258 . S
O60 Co35 1.941 . S
O60 C67 1.266 . S
H61 C63 0.959 . S
H62 C63 0.961 . S
C63 C53 1.510 . S
C63 H61 0.959 . S
C63 H62 0.961 . S
C63 H64 0.960 . S
H64 C63 0.960 . S
H65 N45 0.862 . S
O66 Co34 1.920 . S
O66 C39 1.289 . S
C67 O59 1.258 . S
C67 O60 1.266 . S
Co68 O71 1.970 . S
Co68 N85 1.989 . S
Co68 O93 1.967 . S
Co68 O100 1.920 . S
Co69 O72 1.966 . S
Co69 N78 2.022 . S
Co69 N86 1.993 . S
Co69 O94 1.941 . S
C70 O71 1.258 . S
C70 O72 1.263 . S
O71 Co68 1.970 . S
O71 C70 1.258 . S
O72 Co69 1.966 . S
O72 C70 1.263 . S
C73 O74 1.235 . S
C73 O100 1.289 . S
O74 C73 1.235 . S
C75 C77 1.400 . S
C75 N78 1.351 . S
C75 C80 1.501 . S
C76 C77 1.387 . S
C76 N79 1.341 . S
C77 C75 1.400 . S
C77 C76 1.387 . S
N78 Co69 2.022 . S
N78 C75 1.351 . S
N78 N79 1.365 . S
N79 C76 1.341 . S
N79 N78 1.365 . S
N79 H99 0.862 . S
C80 C75 1.501 . S
C80 H81 0.961 . S
C80 H82 0.961 . S
C80 H83 0.960 . S
H81 C80 0.961 . S
H82 C80 0.961 . S
H83 C80 0.960 . S
C84 N85 1.342 . S
C84 C88 1.401 1_565 S
C84 C89 1.499 1_565 S
N85 Co68 1.989 . S
N85 C84 1.342 . S
N85 N86 1.388 . S
N86 Co69 1.993 . S
N86 N85 1.388 . S
N86 C87 1.330 1_565 S
C87 N86 1.330 1_545 S
C87 C88 1.405 . S
C87 C97 1.516 . S
C88 C84 1.401 1_545 S
C88 C87 1.405 . S
C89 C84 1.499 1_545 S
C89 H90 0.959 1_545 S
C89 H91 0.960 . S
C89 H92 0.961 . S
H90 C89 0.959 1_565 S
H91 C89 0.960 . S
H92 C89 0.961 . S
O93 Co68 1.967 . S
O93 C101 1.258 . S
O94 Co69 1.941 . S
O94 C101 1.266 . S
H95 C97 0.959 . S
H96 C97 0.961 . S
C97 C87 1.516 . S
C97 H95 0.959 . S
C97 H96 0.961 . S
C97 H98 0.960 1_545 S
H98 C97 0.960 1_565 S
H99 N79 0.862 . S
O100 Co68 1.920 . S
O100 C73 1.289 . S
C101 O93 1.258 . S
C101 O94 1.266 . S
Co102 O105 1.970 . S
Co102 N119 1.989 . S
Co102 O127 1.967 . S
Co102 O134 1.920 . S
Co103 O106 1.966 . S
Co103 N112 2.022 . S
Co103 N120 1.993 . S
Co103 O128 1.941 . S
C104 O105 1.258 . S
C104 O106 1.263 . S
O105 Co102 1.970 . S
O105 C104 1.258 . S
O106 Co103 1.966 . S
O106 C104 1.263 . S
C107 O108 1.235 . S
C107 O134 1.289 . S
O108 C107 1.235 . S
C109 C111 1.400 . S
C109 N112 1.351 . S
C109 C114 1.501 . S
C110 C111 1.387 . S
C110 N113 1.341 . S
C111 C109 1.400 . S
C111 C110 1.387 . S
N112 Co103 2.022 . S
N112 C109 1.351 . S
N112 N113 1.365 . S
N113 C110 1.341 . S
N113 N112 1.365 . S
N113 H133 0.862 . S
C114 C109 1.501 . S
C114 H115 0.961 . S
C114 H116 0.961 . S
C114 H117 0.960 . S
H115 C114 0.961 . S
H116 C114 0.961 . S
H117 C114 0.960 . S
C118 N119 1.342 . S
C118 C122 1.401 . S
C118 C123 1.499 . S
N119 Co102 1.989 . S
N119 C118 1.342 . S
N119 N120 1.388 . S
N120 Co103 1.993 . S
N120 N119 1.388 . S
N120 C121 1.346 . S
C121 N120 1.346 . S
C121 C122 1.396 . S
C121 C131 1.510 . S
C122 C118 1.401 . S
C122 C121 1.396 . S
C123 C118 1.499 . S
C123 H124 0.959 . S
C123 H125 0.960 . S
C123 H126 0.961 . S
H124 C123 0.959 . S
H125 C123 0.960 . S
H126 C123 0.961 . S
O127 Co102 1.967 . S
O127 C135 1.258 . S
O128 Co103 1.941 . S
O128 C135 1.266 . S
H129 C131 0.959 . S
H130 C131 0.961 . S
C131 C121 1.510 . S
C131 H129 0.959 . S
C131 H130 0.961 . S
C131 H132 0.960 . S
H132 C131 0.960 . S
H133 N113 0.862 . S
O134 Co102 1.920 . S
O134 C107 1.289 . S
C135 O127 1.258 . S
C135 O128 1.266 . S
Co136 O139 1.970 . S
Co136 N153 1.989 . S
Co136 O161 1.967 . S
Co136 O168 1.920 . S
Co137 O140 1.966 . S
Co137 N146 2.022 . S
Co137 N154 1.993 . S
Co137 O162 1.941 . S
C138 O139 1.258 . S
C138 O140 1.263 . S
O139 Co136 1.970 . S
O139 C138 1.258 . S
O140 Co137 1.966 . S
O140 C138 1.263 . S
C141 O142 1.235 . S
C141 O168 1.289 . S
O142 C141 1.235 . S
C143 C145 1.400 . S
C143 N146 1.351 . S
C143 C148 1.501 . S
C144 C145 1.387 . S
C144 N147 1.341 . S
C145 C143 1.400 . S
C145 C144 1.387 . S
N146 Co137 2.022 . S
N146 C143 1.351 . S
N146 N147 1.365 . S
N147 C144 1.341 . S
N147 N146 1.365 . S
N147 H167 0.862 . S
C148 C143 1.501 . S
C148 H149 0.961 . S
C148 H150 0.961 . S
C148 H151 0.960 . S
H149 C148 0.961 . S
H150 C148 0.961 . S
H151 C148 0.960 . S
C152 N153 1.342 . S
C152 C156 1.401 1_565 S
C152 C157 1.499 1_565 S
N153 Co136 1.989 . S
N153 C152 1.342 . S
N153 N154 1.388 . S
N154 Co137 1.993 . S
N154 N153 1.388 . S
N154 C155 1.330 1_565 S
C155 N154 1.330 1_545 S
C155 C156 1.405 . S
C155 C165 1.516 . S
C156 C152 1.401 1_545 S
C156 C155 1.405 . S
C157 C152 1.499 1_545 S
C157 H158 0.959 1_545 S
C157 H159 0.960 . S
C157 H160 0.961 . S
H158 C157 0.959 1_565 S
H159 C157 0.960 . S
H160 C157 0.961 . S
O161 Co136 1.967 . S
O161 C169 1.258 . S
O162 Co137 1.941 . S
O162 C169 1.266 . S
H163 C165 0.959 . S
H164 C165 0.961 . S
C165 C155 1.516 . S
C165 H163 0.959 . S
C165 H164 0.961 . S
C165 H166 0.960 1_545 S
H166 C165 0.960 1_565 S
H167 N147 0.862 . S
O168 Co136 1.920 . S
O168 C141 1.289 . S
C169 O161 1.258 . S
C169 O162 1.266 . S
Co170 O173 1.970 . S
Co170 N187 1.989 . S
Co170 O195 1.967 . S
Co170 O202 1.920 . S
Co171 O174 1.966 . S
Co171 N180 2.022 . S
Co171 N188 1.993 . S
Co171 O196 1.941 . S
C172 O173 1.258 . S
C172 O174 1.263 . S
O173 Co170 1.970 . S
O173 C172 1.258 . S
O174 Co171 1.966 . S
O174 C172 1.263 . S
C175 O176 1.235 . S
C175 O202 1.289 . S
O176 C175 1.235 . S
C177 C179 1.400 . S
C177 N180 1.351 . S
C177 C182 1.501 . S
C178 C179 1.387 . S
C178 N181 1.341 . S
C179 C177 1.400 . S
C179 C178 1.387 . S
N180 Co171 2.022 . S
N180 C177 1.351 . S
N180 N181 1.365 . S
N181 C178 1.341 . S
N181 N180 1.365 . S
N181 H201 0.862 . S
C182 C177 1.501 . S
C182 H183 0.961 . S
C182 H184 0.961 . S
C182 H185 0.960 . S
H183 C182 0.961 . S
H184 C182 0.961 . S
H185 C182 0.960 . S
C186 N187 1.342 . S
C186 C190 1.401 . S
C186 C191 1.499 . S
N187 Co170 1.989 . S
N187 C186 1.342 . S
N187 N188 1.388 . S
N188 Co171 1.993 . S
N188 N187 1.388 . S
N188 C189 1.346 . S
C189 N188 1.346 . S
C189 C190 1.396 . S
C189 C199 1.510 . S
C190 C186 1.401 . S
C190 C189 1.396 . S
C191 C186 1.499 . S
C191 H192 0.959 . S
C191 H193 0.960 . S
C191 H194 0.961 . S
H192 C191 0.959 . S
H193 C191 0.960 . S
H194 C191 0.961 . S
O195 Co170 1.967 . S
O195 C203 1.258 . S
O196 Co171 1.941 . S
O196 C203 1.266 . S
H197 C199 0.959 . S
H198 C199 0.961 . S
C199 C189 1.510 . S
C199 H197 0.959 . S
C199 H198 0.961 . S
C199 H200 0.960 . S
H200 C199 0.960 . S
H201 N181 0.862 . S
O202 Co170 1.920 . S
O202 C175 1.289 . S
C203 O195 1.258 . S
C203 O196 1.266 . S
Co204 O207 1.970 . S
Co204 N221 1.989 . S
Co204 O229 1.967 . S
Co204 O236 1.920 . S
Co205 O208 1.966 . S
Co205 N214 2.022 . S
Co205 N222 1.993 . S
Co205 O230 1.941 . S
C206 O207 1.258 . S
C206 O208 1.263 . S
O207 Co204 1.970 . S
O207 C206 1.258 . S
O208 Co205 1.966 . S
O208 C206 1.263 . S
C209 O210 1.235 . S
C209 O236 1.289 . S
O210 C209 1.235 . S
C211 C213 1.400 . S
C211 N214 1.351 . S
C211 C216 1.501 . S
C212 C213 1.387 . S
C212 N215 1.341 . S
C213 C211 1.400 . S
C213 C212 1.387 . S
N214 Co205 2.022 . S
N214 C211 1.351 . S
N214 N215 1.365 . S
N215 C212 1.341 . S
N215 N214 1.365 . S
N215 H235 0.862 . S
C216 C211 1.501 . S
C216 H217 0.961 . S
C216 H218 0.961 . S
C216 H219 0.960 . S
H217 C216 0.961 . S
H218 C216 0.961 . S
H219 C216 0.960 . S
C220 N221 1.342 . S
C220 C224 1.401 1_545 S
C220 C225 1.499 1_545 S
N221 Co204 1.989 . S
N221 C220 1.342 . S
N221 N222 1.388 . S
N222 Co205 1.993 . S
N222 N221 1.388 . S
N222 C223 1.330 1_545 S
C223 N222 1.330 1_565 S
C223 C224 1.405 . S
C223 C233 1.516 . S
C224 C220 1.401 1_565 S
C224 C223 1.405 . S
C225 C220 1.499 1_565 S
C225 H226 0.959 1_565 S
C225 H227 0.960 . S
C225 H228 0.961 . S
H226 C225 0.959 1_545 S
H227 C225 0.960 . S
H228 C225 0.961 . S
O229 Co204 1.967 . S
O229 C237 1.258 . S
O230 Co205 1.941 . S
O230 C237 1.266 . S
H231 C233 0.959 . S
H232 C233 0.961 . S
C233 C223 1.516 . S
C233 H231 0.959 . S
C233 H232 0.961 . S
C233 H234 0.960 1_565 S
H234 C233 0.960 1_545 S
H235 N215 0.862 . S
O236 Co204 1.920 . S
O236 C209 1.289 . S
C237 O229 1.258 . S
C237 O230 1.266 . S
Co238 O241 1.970 . S
Co238 N255 1.989 . S
Co238 O263 1.967 . S
Co238 O270 1.920 . S
Co239 O242 1.966 . S
Co239 N248 2.022 . S
Co239 N256 1.993 . S
Co239 O264 1.941 . S
C240 O241 1.258 . S
C240 O242 1.263 . S
O241 Co238 1.970 . S
O241 C240 1.258 . S
O242 Co239 1.966 . S
O242 C240 1.263 . S
C243 O244 1.235 . S
C243 O270 1.289 . S
O244 C243 1.235 . S
C245 C247 1.400 . S
C245 N248 1.351 . S
C245 C250 1.501 . S
C246 C247 1.387 . S
C246 N249 1.341 . S
C247 C245 1.400 . S
C247 C246 1.387 . S
N248 Co239 2.022 . S
N248 C245 1.351 . S
N248 N249 1.365 . S
N249 C246 1.341 . S
N249 N248 1.365 . S
N249 H269 0.862 . S
C250 C245 1.501 . S
C250 H251 0.961 . S
C250 H252 0.961 . S
C250 H253 0.960 . S
H251 C250 0.961 . S
H252 C250 0.961 . S
H253 C250 0.960 . S
C254 N255 1.342 . S
C254 C258 1.401 . S
C254 C259 1.499 . S
N255 Co238 1.989 . S
N255 C254 1.342 . S
N255 N256 1.388 . S
N256 Co239 1.993 . S
N256 N255 1.388 . S
N256 C257 1.346 . S
C257 N256 1.346 . S
C257 C258 1.396 . S
C257 C267 1.510 . S
C258 C254 1.401 . S
C258 C257 1.396 . S
C259 C254 1.499 . S
C259 H260 0.959 . S
C259 H261 0.960 . S
C259 H262 0.961 . S
H260 C259 0.959 . S
H261 C259 0.960 . S
H262 C259 0.961 . S
O263 Co238 1.967 . S
O263 C271 1.258 . S
O264 Co239 1.941 . S
O264 C271 1.266 . S
H265 C267 0.959 . S
H266 C267 0.961 . S
C267 C257 1.510 . S
C267 H265 0.959 . S
C267 H266 0.961 . S
C267 H268 0.960 . S
H268 C267 0.960 . S
H269 N249 0.862 . S
O270 Co238 1.920 . S
O270 C243 1.289 . S
C271 O263 1.258 . S
C271 O264 1.266 . S
Co272 O275 1.970 . S
Co272 N289 1.989 . S
Co272 O297 1.967 . S
Co272 O304 1.920 . S
Co273 O276 1.966 . S
Co273 N282 2.022 . S
Co273 N290 1.993 . S
Co273 O298 1.941 . S
C274 O275 1.258 . S
C274 O276 1.263 . S
O275 Co272 1.970 . S
O275 C274 1.258 . S
O276 Co273 1.966 . S
O276 C274 1.263 . S
C277 O278 1.235 . S
C277 O304 1.289 . S
O278 C277 1.235 . S
C279 C281 1.400 . S
C279 N282 1.351 . S
C279 C284 1.501 . S
C280 C281 1.387 . S
C280 N283 1.341 . S
C281 C279 1.400 . S
C281 C280 1.387 . S
N282 Co273 2.022 . S
N282 C279 1.351 . S
N282 N283 1.365 . S
N283 C280 1.341 . S
N283 N282 1.365 . S
N283 H303 0.862 . S
C284 C279 1.501 . S
C284 H285 0.961 . S
C284 H286 0.961 . S
C284 H287 0.960 . S
H285 C284 0.961 . S
H286 C284 0.961 . S
H287 C284 0.960 . S
C288 N289 1.342 . S
C288 C292 1.401 1_565 S
C288 C293 1.499 1_565 S
N289 Co272 1.989 . S
N289 C288 1.342 . S
N289 N290 1.388 . S
N290 Co273 1.993 . S
N290 N289 1.388 . S
N290 C291 1.330 1_565 S
C291 N290 1.330 1_545 S
C291 C292 1.405 . S
C291 C301 1.516 . S
C292 C288 1.401 1_545 S
C292 C291 1.405 . S
C293 C288 1.499 1_545 S
C293 H294 0.959 1_545 S
C293 H295 0.960 . S
C293 H296 0.961 . S
H294 C293 0.959 1_565 S
H295 C293 0.960 . S
H296 C293 0.961 . S
O297 Co272 1.967 . S
O297 C305 1.258 . S
O298 Co273 1.941 . S
O298 C305 1.266 . S
H299 C301 0.959 . S
H300 C301 0.961 . S
C301 C291 1.516 . S
C301 H299 0.959 . S
C301 H300 0.961 . S
C301 H302 0.960 1_545 S
H302 C301 0.960 1_565 S
H303 N283 0.862 . S
O304 Co272 1.920 . S
O304 C277 1.289 . S
C305 O297 1.258 . S
C305 O298 1.266 . S
Co306 O309 1.970 . S
Co306 N323 1.989 . S
Co306 O331 1.967 . S
Co306 O338 1.920 . S
Co307 O310 1.966 . S
Co307 N316 2.022 . S
Co307 N324 1.993 . S
Co307 O332 1.941 . S
C308 O309 1.258 . S
C308 O310 1.263 . S
O309 Co306 1.970 . S
O309 C308 1.258 . S
O310 Co307 1.966 . S
O310 C308 1.263 . S
C311 O312 1.235 . S
C311 O338 1.289 . S
O312 C311 1.235 . S
C313 C315 1.400 . S
C313 N316 1.351 . S
C313 C318 1.501 . S
C314 C315 1.387 . S
C314 N317 1.341 . S
C315 C313 1.400 . S
C315 C314 1.387 . S
N316 Co307 2.022 . S
N316 C313 1.351 . S
N316 N317 1.365 . S
N317 C314 1.341 . S
N317 N316 1.365 . S
N317 H337 0.862 . S
C318 C313 1.501 . S
C318 H319 0.961 . S
C318 H320 0.961 . S
C318 H321 0.960 . S
H319 C318 0.961 . S
H320 C318 0.961 . S
H321 C318 0.960 . S
C322 N323 1.342 . S
C322 C326 1.401 . S
C322 C327 1.499 . S
N323 Co306 1.989 . S
N323 C322 1.342 . S
N323 N324 1.388 . S
N324 Co307 1.993 . S
N324 N323 1.388 . S
N324 C325 1.346 . S
C325 N324 1.346 . S
C325 C326 1.396 . S
C325 C335 1.510 . S
C326 C322 1.401 . S
C326 C325 1.396 . S
C327 C322 1.499 . S
C327 H328 0.959 . S
C327 H329 0.960 . S
C327 H330 0.961 . S
H328 C327 0.959 . S
H329 C327 0.960 . S
H330 C327 0.961 . S
O331 Co306 1.967 . S
O331 C339 1.258 . S
O332 Co307 1.941 . S
O332 C339 1.266 . S
H333 C335 0.959 . S
H334 C335 0.961 . S
C335 C325 1.510 . S
C335 H333 0.959 . S
C335 H334 0.961 . S
C335 H336 0.960 . S
H336 C335 0.960 . S
H337 N317 0.862 . S
O338 Co306 1.920 . S
O338 C311 1.289 . S
C339 O331 1.258 . S
C339 O332 1.266 . S
Co340 O343 1.970 . S
Co340 N357 1.989 . S
Co340 O365 1.967 . S
Co340 O372 1.920 . S
Co341 O344 1.966 . S
Co341 N350 2.022 . S
Co341 N358 1.993 . S
Co341 O366 1.941 . S
C342 O343 1.258 . S
C342 O344 1.263 . S
O343 Co340 1.970 . S
O343 C342 1.258 . S
O344 Co341 1.966 . S
O344 C342 1.263 . S
C345 O346 1.235 . S
C345 O372 1.289 . S
O346 C345 1.235 . S
C347 C349 1.400 . S
C347 N350 1.351 . S
C347 C352 1.501 . S
C348 C349 1.387 . S
C348 N351 1.341 . S
C349 C347 1.400 . S
C349 C348 1.387 . S
N350 Co341 2.022 . S
N350 C347 1.351 . S
N350 N351 1.365 . S
N351 C348 1.341 . S
N351 N350 1.365 . S
N351 H371 0.862 . S
C352 C347 1.501 . S
C352 H353 0.961 . S
C352 H354 0.961 . S
C352 H355 0.960 . S
H353 C352 0.961 . S
H354 C352 0.961 . S
H355 C352 0.960 . S
C356 N357 1.342 . S
C356 C360 1.401 1_545 S
C356 C361 1.499 1_545 S
N357 Co340 1.989 . S
N357 C356 1.342 . S
N357 N358 1.388 . S
N358 Co341 1.993 . S
N358 N357 1.388 . S
N358 C359 1.330 1_545 S
C359 N358 1.330 1_565 S
C359 C360 1.405 . S
C359 C369 1.516 . S
C360 C356 1.401 1_565 S
C360 C359 1.405 . S
C361 C356 1.499 1_565 S
C361 H362 0.959 1_565 S
C361 H363 0.960 . S
C361 H364 0.961 . S
H362 C361 0.959 1_545 S
H363 C361 0.960 . S
H364 C361 0.961 . S
O365 Co340 1.967 . S
O365 C373 1.258 . S
O366 Co341 1.941 . S
O366 C373 1.266 . S
H367 C369 0.959 . S
H368 C369 0.961 . S
C369 C359 1.516 . S
C369 H367 0.959 . S
C369 H368 0.961 . S
C369 H370 0.960 1_565 S
H370 C369 0.960 1_545 S
H371 N351 0.862 . S
O372 Co340 1.920 . S
O372 C345 1.289 . S
C373 O365 1.258 . S
C373 O366 1.266 . S
Co374 O377 1.970 . S
Co374 N391 1.989 . S
Co374 O399 1.967 . S
Co374 O406 1.920 . S
Co375 O378 1.966 . S
Co375 N384 2.022 . S
Co375 N392 1.993 . S
Co375 O400 1.941 . S
C376 O377 1.258 . S
C376 O378 1.263 . S
O377 Co374 1.970 . S
O377 C376 1.258 . S
O378 Co375 1.966 . S
O378 C376 1.263 . S
C379 O380 1.235 . S
C379 O406 1.289 . S
O380 C379 1.235 . S
C381 C383 1.400 . S
C381 N384 1.351 . S
C381 C386 1.501 . S
C382 C383 1.387 . S
C382 N385 1.341 . S
C383 C381 1.400 . S
C383 C382 1.387 . S
N384 Co375 2.022 . S
N384 C381 1.351 . S
N384 N385 1.365 . S
N385 C382 1.341 . S
N385 N384 1.365 . S
N385 H405 0.862 . S
C386 C381 1.501 . S
C386 H387 0.961 . S
C386 H388 0.961 . S
C386 H389 0.960 . S
H387 C386 0.961 . S
H388 C386 0.961 . S
H389 C386 0.960 . S
C390 N391 1.342 . S
C390 C394 1.401 . S
C390 C395 1.499 . S
N391 Co374 1.989 . S
N391 C390 1.342 . S
N391 N392 1.388 . S
N392 Co375 1.993 . S
N392 N391 1.388 . S
N392 C393 1.346 . S
C393 N392 1.346 . S
C393 C394 1.396 . S
C393 C403 1.510 . S
C394 C390 1.401 . S
C394 C393 1.396 . S
C395 C390 1.499 . S
C395 H396 0.959 . S
C395 H397 0.960 . S
C395 H398 0.961 . S
H396 C395 0.959 . S
H397 C395 0.960 . S
H398 C395 0.961 . S
O399 Co374 1.967 . S
O399 C407 1.258 . S
O400 Co375 1.941 . S
O400 C407 1.266 . S
H401 C403 0.959 . S
H402 C403 0.961 . S
C403 C393 1.510 . S
C403 H401 0.959 . S
C403 H402 0.961 . S
C403 H404 0.960 . S
H404 C403 0.960 . S
H405 N385 0.862 . S
O406 Co374 1.920 . S
O406 C379 1.289 . S
C407 O399 1.258 . S
C407 O400 1.266 . S
Co408 O411 1.970 . S
Co408 N425 1.989 . S
Co408 O433 1.967 . S
Co408 O440 1.920 . S
Co409 O412 1.966 . S
Co409 N418 2.022 . S
Co409 N426 1.993 . S
Co409 O434 1.941 . S
C410 O411 1.258 . S
C410 O412 1.263 . S
O411 Co408 1.970 . S
O411 C410 1.258 . S
O412 Co409 1.966 . S
O412 C410 1.263 . S
C413 O414 1.235 . S
C413 O440 1.289 . S
O414 C413 1.235 . S
C415 C417 1.400 . S
C415 N418 1.351 . S
C415 C420 1.501 . S
C416 C417 1.387 . S
C416 N419 1.341 . S
C417 C415 1.400 . S
C417 C416 1.387 . S
N418 Co409 2.022 . S
N418 C415 1.351 . S
N418 N419 1.365 . S
N419 C416 1.341 . S
N419 N418 1.365 . S
N419 H439 0.862 . S
C420 C415 1.501 . S
C420 H421 0.961 . S
C420 H422 0.961 . S
C420 H423 0.960 . S
H421 C420 0.961 . S
H422 C420 0.961 . S
H423 C420 0.960 . S
C424 N425 1.342 . S
C424 C428 1.401 1_545 S
C424 C429 1.499 1_545 S
N425 Co408 1.989 . S
N425 C424 1.342 . S
N425 N426 1.388 . S
N426 Co409 1.993 . S
N426 N425 1.388 . S
N426 C427 1.330 1_545 S
C427 N426 1.330 1_565 S
C427 C428 1.405 . S
C427 C437 1.516 . S
C428 C424 1.401 1_565 S
C428 C427 1.405 . S
C429 C424 1.499 1_565 S
C429 H430 0.959 1_565 S
C429 H431 0.960 . S
C429 H432 0.961 . S
H430 C429 0.959 1_545 S
H431 C429 0.960 . S
H432 C429 0.961 . S
O433 Co408 1.967 . S
O433 C441 1.258 . S
O434 Co409 1.941 . S
O434 C441 1.266 . S
H435 C437 0.959 . S
H436 C437 0.961 . S
C437 C427 1.516 . S
C437 H435 0.959 . S
C437 H436 0.961 . S
C437 H438 0.960 1_565 S
H438 C437 0.960 1_545 S
H439 N419 0.862 . S
O440 Co408 1.920 . S
O440 C413 1.289 . S
C441 O433 1.258 . S
C441 O434 1.266 . S
Co442 O445 1.970 . S
Co442 N459 1.989 . S
Co442 O467 1.967 . S
Co442 O474 1.920 . S
Co443 O446 1.966 . S
Co443 N452 2.022 . S
Co443 N460 1.993 . S
Co443 O468 1.941 . S
C444 O445 1.258 . S
C444 O446 1.263 . S
O445 Co442 1.970 . S
O445 C444 1.258 . S
O446 Co443 1.966 . S
O446 C444 1.263 . S
C447 O448 1.235 . S
C447 O474 1.289 . S
O448 C447 1.235 . S
C449 C451 1.400 . S
C449 N452 1.351 . S
C449 C454 1.501 . S
C450 C451 1.387 . S
C450 N453 1.341 . S
C451 C449 1.400 . S
C451 C450 1.387 . S
N452 Co443 2.022 . S
N452 C449 1.351 . S
N452 N453 1.365 . S
N453 C450 1.341 . S
N453 N452 1.365 . S
N453 H473 0.862 . S
C454 C449 1.501 . S
C454 H455 0.961 . S
C454 H456 0.961 . S
C454 H457 0.960 . S
H455 C454 0.961 . S
H456 C454 0.961 . S
H457 C454 0.960 . S
C458 N459 1.342 . S
C458 C462 1.401 . S
C458 C463 1.499 . S
N459 Co442 1.989 . S
N459 C458 1.342 . S
N459 N460 1.388 . S
N460 Co443 1.993 . S
N460 N459 1.388 . S
N460 C461 1.346 . S
C461 N460 1.346 . S
C461 C462 1.396 . S
C461 C471 1.510 . S
C462 C458 1.401 . S
C462 C461 1.396 . S
C463 C458 1.499 . S
C463 H464 0.959 . S
C463 H465 0.960 . S
C463 H466 0.961 . S
H464 C463 0.959 . S
H465 C463 0.960 . S
H466 C463 0.961 . S
O467 Co442 1.967 . S
O467 C475 1.258 . S
O468 Co443 1.941 . S
O468 C475 1.266 . S
H469 C471 0.959 . S
H470 C471 0.961 . S
C471 C461 1.510 . S
C471 H469 0.959 . S
C471 H470 0.961 . S
C471 H472 0.960 . S
H472 C471 0.960 . S
H473 N453 0.862 . S
O474 Co442 1.920 . S
O474 C447 1.289 . S
C475 O467 1.258 . S
C475 O468 1.266 . S
Co476 O479 1.970 . S
Co476 N493 1.989 . S
Co476 O501 1.967 . S
Co476 O508 1.920 . S
Co477 O480 1.966 . S
Co477 N486 2.022 . S
Co477 N494 1.993 . S
Co477 O502 1.941 . S
C478 O479 1.258 . S
C478 O480 1.263 . S
O479 Co476 1.970 . S
O479 C478 1.258 . S
O480 Co477 1.966 . S
O480 C478 1.263 . S
C481 O482 1.235 . S
C481 O508 1.289 . S
O482 C481 1.235 . S
C483 C485 1.400 . S
C483 N486 1.351 . S
C483 C488 1.501 . S
C484 C485 1.387 . S
C484 N487 1.341 . S
C485 C483 1.400 . S
C485 C484 1.387 . S
N486 Co477 2.022 . S
N486 C483 1.351 . S
N486 N487 1.365 . S
N487 C484 1.341 . S
N487 N486 1.365 . S
N487 H507 0.862 . S
C488 C483 1.501 . S
C488 H489 0.961 . S
C488 H490 0.961 . S
C488 H491 0.960 . S
H489 C488 0.961 . S
H490 C488 0.961 . S
H491 C488 0.960 . S
C492 N493 1.342 . S
C492 C496 1.401 1_565 S
C492 C497 1.499 1_565 S
N493 Co476 1.989 . S
N493 C492 1.342 . S
N493 N494 1.388 . S
N494 Co477 1.993 . S
N494 N493 1.388 . S
N494 C495 1.330 1_565 S
C495 N494 1.330 1_545 S
C495 C496 1.405 . S
C495 C505 1.516 . S
C496 C492 1.401 1_545 S
C496 C495 1.405 . S
C497 C492 1.499 1_545 S
C497 H498 0.959 1_545 S
C497 H499 0.960 . S
C497 H500 0.961 . S
H498 C497 0.959 1_565 S
H499 C497 0.960 . S
H500 C497 0.961 . S
O501 Co476 1.967 . S
O501 C509 1.258 . S
O502 Co477 1.941 . S
O502 C509 1.266 . S
H503 C505 0.959 . S
H504 C505 0.961 . S
C505 C495 1.516 . S
C505 H503 0.959 . S
C505 H504 0.961 . S
C505 H506 0.960 1_545 S
H506 C505 0.960 1_565 S
H507 N487 0.862 . S
O508 Co476 1.920 . S
O508 C481 1.289 . S
C509 O501 1.258 . S
C509 O502 1.266 . S
Co510 O513 1.970 . S
Co510 N527 1.989 . S
Co510 O535 1.967 . S
Co510 O542 1.920 . S
Co511 O514 1.966 . S
Co511 N520 2.022 . S
Co511 N528 1.993 . S
Co511 O536 1.941 . S
C512 O513 1.258 . S
C512 O514 1.263 . S
O513 Co510 1.970 . S
O513 C512 1.258 . S
O514 Co511 1.966 . S
O514 C512 1.263 . S
C515 O516 1.235 . S
C515 O542 1.289 . S
O516 C515 1.235 . S
C517 C519 1.400 . S
C517 N520 1.351 . S
C517 C522 1.501 . S
C518 C519 1.387 . S
C518 N521 1.341 . S
C519 C517 1.400 . S
C519 C518 1.387 . S
N520 Co511 2.022 . S
N520 C517 1.351 . S
N520 N521 1.365 . S
N521 C518 1.341 . S
N521 N520 1.365 . S
N521 H541 0.862 . S
C522 C517 1.501 . S
C522 H523 0.961 . S
C522 H524 0.961 . S
C522 H525 0.960 . S
H523 C522 0.961 . S
H524 C522 0.961 . S
H525 C522 0.960 . S
C526 N527 1.342 . S
C526 C530 1.401 . S
C526 C531 1.499 . S
N527 Co510 1.989 . S
N527 C526 1.342 . S
N527 N528 1.388 . S
N528 Co511 1.993 . S
N528 N527 1.388 . S
N528 C529 1.346 . S
C529 N528 1.346 . S
C529 C530 1.396 . S
C529 C539 1.510 . S
C530 C526 1.401 . S
C530 C529 1.396 . S
C531 C526 1.499 . S
C531 H532 0.959 . S
C531 H533 0.960 . S
C531 H534 0.961 . S
H532 C531 0.959 . S
H533 C531 0.960 . S
H534 C531 0.961 . S
O535 Co510 1.967 . S
O535 C543 1.258 . S
O536 Co511 1.941 . S
O536 C543 1.266 . S
H537 C539 0.959 . S
H538 C539 0.961 . S
C539 C529 1.510 . S
C539 H537 0.959 . S
C539 H538 0.961 . S
C539 H540 0.960 . S
H540 C539 0.960 . S
H541 N521 0.862 . S
O542 Co510 1.920 . S
O542 C515 1.289 . S
C543 O535 1.258 . S
C543 O536 1.266 . S
Co544 O547 1.970 . S
Co544 N561 1.989 . S
Co544 O569 1.967 . S
Co544 O576 1.920 . S
Co545 O548 1.966 . S
Co545 N554 2.022 . S
Co545 N562 1.993 . S
Co545 O570 1.941 . S
C546 O547 1.258 . S
C546 O548 1.263 . S
O547 Co544 1.970 . S
O547 C546 1.258 . S
O548 Co545 1.966 . S
O548 C546 1.263 . S
C549 O550 1.235 . S
C549 O576 1.289 . S
O550 C549 1.235 . S
C551 C553 1.400 . S
C551 N554 1.351 . S
C551 C556 1.501 . S
C552 C553 1.387 . S
C552 N555 1.341 . S
C553 C551 1.400 . S
C553 C552 1.387 . S
N554 Co545 2.022 . S
N554 C551 1.351 . S
N554 N555 1.365 . S
N555 C552 1.341 . S
N555 N554 1.365 . S
N555 H575 0.862 . S
C556 C551 1.501 . S
C556 H557 0.961 . S
C556 H558 0.961 . S
C556 H559 0.960 . S
H557 C556 0.961 . S
H558 C556 0.961 . S
H559 C556 0.960 . S
C560 N561 1.342 . S
C560 C564 1.401 . S
C560 C565 1.499 . S
N561 Co544 1.989 . S
N561 C560 1.342 . S
N561 N562 1.388 . S
N562 Co545 1.993 . S
N562 N561 1.388 . S
N562 C563 1.346 . S
C563 N562 1.346 . S
C563 C564 1.396 . S
C563 C573 1.510 . S
C564 C560 1.401 . S
C564 C563 1.396 . S
C565 C560 1.499 . S
C565 H566 0.959 . S
C565 H567 0.960 . S
C565 H568 0.961 . S
H566 C565 0.959 . S
H567 C565 0.960 . S
H568 C565 0.961 . S
O569 Co544 1.967 . S
O569 C577 1.258 . S
O570 Co545 1.941 . S
O570 C577 1.266 . S
H571 C573 0.959 . S
H572 C573 0.961 . S
C573 C563 1.510 . S
C573 H571 0.959 . S
C573 H572 0.961 . S
C573 H574 0.960 . S
H574 C573 0.960 . S
H575 N555 0.862 . S
O576 Co544 1.920 . S
O576 C549 1.289 . S
C577 O569 1.258 . S
C577 O570 1.266 . S
Co578 O581 1.970 . S
Co578 N595 1.989 . S
Co578 O603 1.967 . S
Co578 O610 1.920 . S
Co579 O582 1.966 . S
Co579 N588 2.022 . S
Co579 N596 1.993 . S
Co579 O604 1.941 . S
C580 O581 1.258 . S
C580 O582 1.263 . S
O581 Co578 1.970 . S
O581 C580 1.258 . S
O582 Co579 1.966 . S
O582 C580 1.263 . S
C583 O584 1.235 . S
C583 O610 1.289 . S
O584 C583 1.235 . S
C585 C587 1.400 . S
C585 N588 1.351 . S
C585 C590 1.501 . S
C586 C587 1.387 . S
C586 N589 1.341 . S
C587 C585 1.400 . S
C587 C586 1.387 . S
N588 Co579 2.022 . S
N588 C585 1.351 . S
N588 N589 1.365 . S
N589 C586 1.341 . S
N589 N588 1.365 . S
N589 H609 0.862 . S
C590 C585 1.501 . S
C590 H591 0.961 . S
C590 H592 0.961 . S
C590 H593 0.960 . S
H591 C590 0.961 . S
H592 C590 0.961 . S
H593 C590 0.960 . S
C594 N595 1.342 . S
C594 C598 1.401 . S
C594 C599 1.499 . S
N595 Co578 1.989 . S
N595 C594 1.342 . S
N595 N596 1.388 . S
N596 Co579 1.993 . S
N596 N595 1.388 . S
N596 C597 1.346 . S
C597 N596 1.346 . S
C597 C598 1.396 . S
C597 C607 1.510 . S
C598 C594 1.401 . S
C598 C597 1.396 . S
C599 C594 1.499 . S
C599 H600 0.959 . S
C599 H601 0.960 . S
C599 H602 0.961 . S
H600 C599 0.959 . S
H601 C599 0.960 . S
H602 C599 0.961 . S
O603 Co578 1.967 . S
O603 C611 1.258 . S
O604 Co579 1.941 . S
O604 C611 1.266 . S
H605 C607 0.959 . S
H606 C607 0.961 . S
C607 C597 1.510 . S
C607 H605 0.959 . S
C607 H606 0.961 . S
C607 H608 0.960 . S
H608 C607 0.960 . S
H609 N589 0.862 . S
O610 Co578 1.920 . S
O610 C583 1.289 . S
C611 O603 1.258 . S
C611 O604 1.266 . S
Co612 O615 1.970 . S
Co612 N629 1.989 . S
Co612 O637 1.967 . S
Co612 O644 1.920 . S
Co613 O616 1.966 . S
Co613 N622 2.022 . S
Co613 N630 1.993 . S
Co613 O638 1.941 . S
C614 O615 1.258 . S
C614 O616 1.263 . S
O615 Co612 1.970 . S
O615 C614 1.258 . S
O616 Co613 1.966 . S
O616 C614 1.263 . S
C617 O618 1.235 . S
C617 O644 1.289 . S
O618 C617 1.235 . S
C619 C621 1.400 . S
C619 N622 1.351 . S
C619 C624 1.501 . S
C620 C621 1.387 . S
C620 N623 1.341 . S
C621 C619 1.400 . S
C621 C620 1.387 . S
N622 Co613 2.022 . S
N622 C619 1.351 . S
N622 N623 1.365 . S
N623 C620 1.341 . S
N623 N622 1.365 . S
N623 H643 0.862 . S
C624 C619 1.501 . S
C624 H625 0.961 . S
C624 H626 0.961 . S
C624 H627 0.960 . S
H625 C624 0.961 . S
H626 C624 0.961 . S
H627 C624 0.960 . S
C628 N629 1.342 . S
C628 C632 1.401 . S
C628 C633 1.499 . S
N629 Co612 1.989 . S
N629 C628 1.342 . S
N629 N630 1.388 . S
N630 Co613 1.993 . S
N630 N629 1.388 . S
N630 C631 1.346 . S
C631 N630 1.346 . S
C631 C632 1.396 . S
C631 C641 1.510 . S
C632 C628 1.401 . S
C632 C631 1.396 . S
C633 C628 1.499 . S
C633 H634 0.959 . S
C633 H635 0.960 . S
C633 H636 0.961 . S
H634 C633 0.959 . S
H635 C633 0.960 . S
H636 C633 0.961 . S
O637 Co612 1.967 . S
O637 C645 1.258 . S
O638 Co613 1.941 . S
O638 C645 1.266 . S
H639 C641 0.959 . S
H640 C641 0.961 . S
C641 C631 1.510 . S
C641 H639 0.959 . S
C641 H640 0.961 . S
C641 H642 0.960 . S
H642 C641 0.960 . S
H643 N623 0.862 . S
O644 Co612 1.920 . S
O644 C617 1.289 . S
C645 O637 1.258 . S
C645 O638 1.266 . S
Co646 O649 1.970 . S
Co646 N663 1.989 . S
Co646 O671 1.967 . S
Co646 O678 1.920 . S
Co647 O650 1.966 . S
Co647 N656 2.022 . S
Co647 N664 1.993 . S
Co647 O672 1.941 . S
C648 O649 1.258 . S
C648 O650 1.263 . S
O649 Co646 1.970 . S
O649 C648 1.258 . S
O650 Co647 1.966 . S
O650 C648 1.263 . S
C651 O652 1.235 . S
C651 O678 1.289 . S
O652 C651 1.235 . S
C653 C655 1.400 . S
C653 N656 1.351 . S
C653 C658 1.501 . S
C654 C655 1.387 . S
C654 N657 1.341 . S
C655 C653 1.400 . S
C655 C654 1.387 . S
N656 Co647 2.022 . S
N656 C653 1.351 . S
N656 N657 1.365 . S
N657 C654 1.341 . S
N657 N656 1.365 . S
N657 H677 0.862 . S
C658 C653 1.501 . S
C658 H659 0.961 . S
C658 H660 0.961 . S
C658 H661 0.960 . S
H659 C658 0.961 . S
H660 C658 0.961 . S
H661 C658 0.960 . S
C662 N663 1.342 . S
C662 C666 1.401 . S
C662 C667 1.499 . S
N663 Co646 1.989 . S
N663 C662 1.342 . S
N663 N664 1.388 . S
N664 Co647 1.993 . S
N664 N663 1.388 . S
N664 C665 1.346 . S
C665 N664 1.346 . S
C665 C666 1.396 . S
C665 C675 1.510 . S
C666 C662 1.401 . S
C666 C665 1.396 . S
C667 C662 1.499 . S
C667 H668 0.959 . S
C667 H669 0.960 . S
C667 H670 0.961 . S
H668 C667 0.959 . S
H669 C667 0.960 . S
H670 C667 0.961 . S
O671 Co646 1.967 . S
O671 C679 1.258 . S
O672 Co647 1.941 . S
O672 C679 1.266 . S
H673 C675 0.959 . S
H674 C675 0.961 . S
C675 C665 1.510 . S
C675 H673 0.959 . S
C675 H674 0.961 . S
C675 H676 0.960 . S
H676 C675 0.960 . S
H677 N657 0.862 . S
O678 Co646 1.920 . S
O678 C651 1.289 . S
C679 O671 1.258 . S
C679 O672 1.266 . S
Co680 O683 1.970 . S
Co680 N697 1.989 . S
Co680 O705 1.967 . S
Co680 O712 1.920 . S
Co681 O684 1.966 . S
Co681 N690 2.022 . S
Co681 N698 1.993 . S
Co681 O706 1.941 . S
C682 O683 1.258 . S
C682 O684 1.263 . S
O683 Co680 1.970 . S
O683 C682 1.258 . S
O684 Co681 1.966 . S
O684 C682 1.263 . S
C685 O686 1.235 . S
C685 O712 1.289 . S
O686 C685 1.235 . S
C687 C689 1.400 . S
C687 N690 1.351 . S
C687 C692 1.501 . S
C688 C689 1.387 . S
C688 N691 1.341 . S
C689 C687 1.400 . S
C689 C688 1.387 . S
N690 Co681 2.022 . S
N690 C687 1.351 . S
N690 N691 1.365 . S
N691 C688 1.341 . S
N691 N690 1.365 . S
N691 H711 0.862 . S
C692 C687 1.501 . S
C692 H693 0.961 . S
C692 H694 0.961 . S
C692 H695 0.960 . S
H693 C692 0.961 . S
H694 C692 0.961 . S
H695 C692 0.960 . S
C696 N697 1.342 . S
C696 C700 1.401 . S
C696 C701 1.499 . S
N697 Co680 1.989 . S
N697 C696 1.342 . S
N697 N698 1.388 . S
N698 Co681 1.993 . S
N698 N697 1.388 . S
N698 C699 1.346 . S
C699 N698 1.346 . S
C699 C700 1.396 . S
C699 C709 1.510 . S
C700 C696 1.401 . S
C700 C699 1.396 . S
C701 C696 1.499 . S
C701 H702 0.959 . S
C701 H703 0.960 . S
C701 H704 0.961 . S
H702 C701 0.959 . S
H703 C701 0.960 . S
H704 C701 0.961 . S
O705 Co680 1.967 . S
O705 C713 1.258 . S
O706 Co681 1.941 . S
O706 C713 1.266 . S
H707 C709 0.959 . S
H708 C709 0.961 . S
C709 C699 1.510 . S
C709 H707 0.959 . S
C709 H708 0.961 . S
C709 H710 0.960 . S
H710 C709 0.960 . S
H711 N691 0.862 . S
O712 Co680 1.920 . S
O712 C685 1.289 . S
C713 O705 1.258 . S
C713 O706 1.266 . S
Co714 O717 1.970 . S
Co714 N731 1.989 . S
Co714 O739 1.967 . S
Co714 O746 1.920 . S
Co715 O718 1.966 . S
Co715 N724 2.022 . S
Co715 N732 1.993 . S
Co715 O740 1.941 . S
C716 O717 1.258 . S
C716 O718 1.263 . S
O717 Co714 1.970 . S
O717 C716 1.258 . S
O718 Co715 1.966 . S
O718 C716 1.263 . S
C719 O720 1.235 . S
C719 O746 1.289 . S
O720 C719 1.235 . S
C721 C723 1.400 . S
C721 N724 1.351 . S
C721 C726 1.501 . S
C722 C723 1.387 . S
C722 N725 1.341 . S
C723 C721 1.400 . S
C723 C722 1.387 . S
N724 Co715 2.022 . S
N724 C721 1.351 . S
N724 N725 1.365 . S
N725 C722 1.341 . S
N725 N724 1.365 . S
N725 H745 0.862 . S
C726 C721 1.501 . S
C726 H727 0.961 . S
C726 H728 0.961 . S
C726 H729 0.960 . S
H727 C726 0.961 . S
H728 C726 0.961 . S
H729 C726 0.960 . S
C730 N731 1.342 . S
C730 C734 1.401 . S
C730 C735 1.499 . S
N731 Co714 1.989 . S
N731 C730 1.342 . S
N731 N732 1.388 . S
N732 Co715 1.993 . S
N732 N731 1.388 . S
N732 C733 1.346 . S
C733 N732 1.346 . S
C733 C734 1.396 . S
C733 C743 1.510 . S
C734 C730 1.401 . S
C734 C733 1.396 . S
C735 C730 1.499 . S
C735 H736 0.959 . S
C735 H737 0.960 . S
C735 H738 0.961 . S
H736 C735 0.959 . S
H737 C735 0.960 . S
H738 C735 0.961 . S
O739 Co714 1.967 . S
O739 C747 1.258 . S
O740 Co715 1.941 . S
O740 C747 1.266 . S
H741 C743 0.959 . S
H742 C743 0.961 . S
C743 C733 1.510 . S
C743 H741 0.959 . S
C743 H742 0.961 . S
C743 H744 0.960 . S
H744 C743 0.960 . S
H745 N725 0.862 . S
O746 Co714 1.920 . S
O746 C719 1.289 . S
C747 O739 1.258 . S
C747 O740 1.266 . S
Co748 O751 1.970 . S
Co748 N765 1.989 . S
Co748 O773 1.967 . S
Co748 O780 1.920 . S
Co749 O752 1.966 . S
Co749 N758 2.022 . S
Co749 N766 1.993 . S
Co749 O774 1.941 . S
C750 O751 1.258 . S
C750 O752 1.263 . S
O751 Co748 1.970 . S
O751 C750 1.258 . S
O752 Co749 1.966 . S
O752 C750 1.263 . S
C753 O754 1.235 . S
C753 O780 1.289 . S
O754 C753 1.235 . S
C755 C757 1.400 . S
C755 N758 1.351 . S
C755 C760 1.501 . S
C756 C757 1.387 . S
C756 N759 1.341 . S
C757 C755 1.400 . S
C757 C756 1.387 . S
N758 Co749 2.022 . S
N758 C755 1.351 . S
N758 N759 1.365 . S
N759 C756 1.341 . S
N759 N758 1.365 . S
N759 H779 0.862 . S
C760 C755 1.501 . S
C760 H761 0.961 . S
C760 H762 0.961 . S
C760 H763 0.960 . S
H761 C760 0.961 . S
H762 C760 0.961 . S
H763 C760 0.960 . S
C764 N765 1.342 . S
C764 C768 1.401 . S
C764 C769 1.499 . S
N765 Co748 1.989 . S
N765 C764 1.342 . S
N765 N766 1.388 . S
N766 Co749 1.993 . S
N766 N765 1.388 . S
N766 C767 1.346 . S
C767 N766 1.346 . S
C767 C768 1.396 . S
C767 C777 1.510 . S
C768 C764 1.401 . S
C768 C767 1.396 . S
C769 C764 1.499 . S
C769 H770 0.959 . S
C769 H771 0.960 . S
C769 H772 0.961 . S
H770 C769 0.959 . S
H771 C769 0.960 . S
H772 C769 0.961 . S
O773 Co748 1.967 . S
O773 C781 1.258 . S
O774 Co749 1.941 . S
O774 C781 1.266 . S
H775 C777 0.959 . S
H776 C777 0.961 . S
C777 C767 1.510 . S
C777 H775 0.959 . S
C777 H776 0.961 . S
C777 H778 0.960 . S
H778 C777 0.960 . S
H779 N759 0.862 . S
O780 Co748 1.920 . S
O780 C753 1.289 . S
C781 O773 1.258 . S
C781 O774 1.266 . S
Co782 O785 1.970 . S
Co782 N799 1.989 . S
Co782 O807 1.967 . S
Co782 O814 1.920 . S
Co783 O786 1.966 . S
Co783 N792 2.022 . S
Co783 N800 1.993 . S
Co783 O808 1.941 . S
C784 O785 1.258 . S
C784 O786 1.263 . S
O785 Co782 1.970 . S
O785 C784 1.258 . S
O786 Co783 1.966 . S
O786 C784 1.263 . S
C787 O788 1.235 . S
C787 O814 1.289 . S
O788 C787 1.235 . S
C789 C791 1.400 . S
C789 N792 1.351 . S
C789 C794 1.501 . S
C790 C791 1.387 . S
C790 N793 1.341 . S
C791 C789 1.400 . S
C791 C790 1.387 . S
N792 Co783 2.022 . S
N792 C789 1.351 . S
N792 N793 1.365 . S
N793 C790 1.341 . S
N793 N792 1.365 . S
N793 H813 0.862 . S
C794 C789 1.501 . S
C794 H795 0.961 . S
C794 H796 0.961 . S
C794 H797 0.960 . S
H795 C794 0.961 . S
H796 C794 0.961 . S
H797 C794 0.960 . S
C798 N799 1.342 . S
C798 C802 1.401 . S
C798 C803 1.499 . S
N799 Co782 1.989 . S
N799 C798 1.342 . S
N799 N800 1.388 . S
N800 Co783 1.993 . S
N800 N799 1.388 . S
N800 C801 1.346 . S
C801 N800 1.346 . S
C801 C802 1.396 . S
C801 C811 1.510 . S
C802 C798 1.401 . S
C802 C801 1.396 . S
C803 C798 1.499 . S
C803 H804 0.959 . S
C803 H805 0.960 . S
C803 H806 0.961 . S
H804 C803 0.959 . S
H805 C803 0.960 . S
H806 C803 0.961 . S
O807 Co782 1.967 . S
O807 C815 1.258 . S
O808 Co783 1.941 . S
O808 C815 1.266 . S
H809 C811 0.959 . S
H810 C811 0.961 . S
C811 C801 1.510 . S
C811 H809 0.959 . S
C811 H810 0.961 . S
C811 H812 0.960 . S
H812 C811 0.960 . S
H813 N793 0.862 . S
O814 Co782 1.920 . S
O814 C787 1.289 . S
C815 O807 1.258 . S
C815 O808 1.266 . S
Co816 O819 1.970 . S
Co816 N833 1.989 . S
Co816 O841 1.967 . S
Co816 O848 1.920 . S
Co817 O820 1.966 . S
Co817 N826 2.022 . S
Co817 N834 1.993 . S
Co817 O842 1.941 . S
C818 O819 1.258 . S
C818 O820 1.263 . S
O819 Co816 1.970 . S
O819 C818 1.258 . S
O820 Co817 1.966 . S
O820 C818 1.263 . S
C821 O822 1.235 . S
C821 O848 1.289 . S
O822 C821 1.235 . S
C823 C825 1.400 . S
C823 N826 1.351 . S
C823 C828 1.501 . S
C824 C825 1.387 . S
C824 N827 1.341 . S
C825 C823 1.400 . S
C825 C824 1.387 . S
N826 Co817 2.022 . S
N826 C823 1.351 . S
N826 N827 1.365 . S
N827 C824 1.341 . S
N827 N826 1.365 . S
N827 H847 0.862 . S
C828 C823 1.501 . S
C828 H829 0.961 . S
C828 H830 0.961 . S
C828 H831 0.960 . S
H829 C828 0.961 . S
H830 C828 0.961 . S
H831 C828 0.960 . S
C832 N833 1.342 . S
C832 C836 1.401 . S
C832 C837 1.499 . S
N833 Co816 1.989 . S
N833 C832 1.342 . S
N833 N834 1.388 . S
N834 Co817 1.993 . S
N834 N833 1.388 . S
N834 C835 1.346 . S
C835 N834 1.346 . S
C835 C836 1.396 . S
C835 C845 1.510 . S
C836 C832 1.401 . S
C836 C835 1.396 . S
C837 C832 1.499 . S
C837 H838 0.959 . S
C837 H839 0.960 . S
C837 H840 0.961 . S
H838 C837 0.959 . S
H839 C837 0.960 . S
H840 C837 0.961 . S
O841 Co816 1.967 . S
O841 C849 1.258 . S
O842 Co817 1.941 . S
O842 C849 1.266 . S
H843 C845 0.959 . S
H844 C845 0.961 . S
C845 C835 1.510 . S
C845 H843 0.959 . S
C845 H844 0.961 . S
C845 H846 0.960 . S
H846 C845 0.960 . S
H847 N827 0.862 . S
O848 Co816 1.920 . S
O848 C821 1.289 . S
C849 O841 1.258 . S
C849 O842 1.266 . S
Co850 O853 1.970 . S
Co850 N867 1.989 . S
Co850 O875 1.967 . S
Co850 O882 1.920 . S
Co851 O854 1.966 . S
Co851 N860 2.022 . S
Co851 N868 1.993 . S
Co851 O876 1.941 . S
C852 O853 1.258 . S
C852 O854 1.263 . S
O853 Co850 1.970 . S
O853 C852 1.258 . S
O854 Co851 1.966 . S
O854 C852 1.263 . S
C855 O856 1.235 . S
C855 O882 1.289 . S
O856 C855 1.235 . S
C857 C859 1.400 . S
C857 N860 1.351 . S
C857 C862 1.501 . S
C858 C859 1.387 . S
C858 N861 1.341 . S
C859 C857 1.400 . S
C859 C858 1.387 . S
N860 Co851 2.022 . S
N860 C857 1.351 . S
N860 N861 1.365 . S
N861 C858 1.341 . S
N861 N860 1.365 . S
N861 H881 0.862 . S
C862 C857 1.501 . S
C862 H863 0.961 . S
C862 H864 0.961 . S
C862 H865 0.960 . S
H863 C862 0.961 . S
H864 C862 0.961 . S
H865 C862 0.960 . S
C866 N867 1.342 . S
C866 C870 1.401 . S
C866 C871 1.499 . S
N867 Co850 1.989 . S
N867 C866 1.342 . S
N867 N868 1.388 . S
N868 Co851 1.993 . S
N868 N867 1.388 . S
N868 C869 1.346 . S
C869 N868 1.346 . S
C869 C870 1.396 . S
C869 C879 1.510 . S
C870 C866 1.401 . S
C870 C869 1.396 . S
C871 C866 1.499 . S
C871 H872 0.959 . S
C871 H873 0.960 . S
C871 H874 0.961 . S
H872 C871 0.959 . S
H873 C871 0.960 . S
H874 C871 0.961 . S
O875 Co850 1.967 . S
O875 C883 1.258 . S
O876 Co851 1.941 . S
O876 C883 1.266 . S
H877 C879 0.959 . S
H878 C879 0.961 . S
C879 C869 1.510 . S
C879 H877 0.959 . S
C879 H878 0.961 . S
C879 H880 0.960 . S
H880 C879 0.960 . S
H881 N861 0.862 . S
O882 Co850 1.920 . S
O882 C855 1.289 . S
C883 O875 1.258 . S
C883 O876 1.266 . S
Co884 O887 1.970 . S
Co884 N901 1.989 . S
Co884 O909 1.967 . S
Co884 O916 1.920 . S
Co885 O888 1.966 . S
Co885 N894 2.022 . S
Co885 N902 1.993 . S
Co885 O910 1.941 . S
C886 O887 1.258 . S
C886 O888 1.263 . S
O887 Co884 1.970 . S
O887 C886 1.258 . S
O888 Co885 1.966 . S
O888 C886 1.263 . S
C889 O890 1.235 . S
C889 O916 1.289 . S
O890 C889 1.235 . S
C891 C893 1.400 . S
C891 N894 1.351 . S
C891 C896 1.501 . S
C892 C893 1.387 . S
C892 N895 1.341 . S
C893 C891 1.400 . S
C893 C892 1.387 . S
N894 Co885 2.022 . S
N894 C891 1.351 . S
N894 N895 1.365 . S
N895 C892 1.341 . S
N895 N894 1.365 . S
N895 H915 0.862 . S
C896 C891 1.501 . S
C896 H897 0.961 . S
C896 H898 0.961 . S
C896 H899 0.960 . S
H897 C896 0.961 . S
H898 C896 0.961 . S
H899 C896 0.960 . S
C900 N901 1.342 . S
C900 C904 1.401 . S
C900 C905 1.499 . S
N901 Co884 1.989 . S
N901 C900 1.342 . S
N901 N902 1.388 . S
N902 Co885 1.993 . S
N902 N901 1.388 . S
N902 C903 1.346 . S
C903 N902 1.346 . S
C903 C904 1.396 . S
C903 C913 1.510 . S
C904 C900 1.401 . S
C904 C903 1.396 . S
C905 C900 1.499 . S
C905 H906 0.959 . S
C905 H907 0.960 . S
C905 H908 0.961 . S
H906 C905 0.959 . S
H907 C905 0.960 . S
H908 C905 0.961 . S
O909 Co884 1.967 . S
O909 C917 1.258 . S
O910 Co885 1.941 . S
O910 C917 1.266 . S
H911 C913 0.959 . S
H912 C913 0.961 . S
C913 C903 1.510 . S
C913 H911 0.959 . S
C913 H912 0.961 . S
C913 H914 0.960 . S
H914 C913 0.960 . S
H915 N895 0.862 . S
O916 Co884 1.920 . S
O916 C889 1.289 . S
C917 O909 1.258 . S
C917 O910 1.266 . S
Co918 O921 1.970 . S
Co918 N935 1.989 . S
Co918 O943 1.967 . S
Co918 O950 1.920 . S
Co919 O922 1.966 . S
Co919 N928 2.022 . S
Co919 N936 1.993 . S
Co919 O944 1.941 . S
C920 O921 1.258 . S
C920 O922 1.263 . S
O921 Co918 1.970 . S
O921 C920 1.258 . S
O922 Co919 1.966 . S
O922 C920 1.263 . S
C923 O924 1.235 . S
C923 O950 1.289 . S
O924 C923 1.235 . S
C925 C927 1.400 . S
C925 N928 1.351 . S
C925 C930 1.501 . S
C926 C927 1.387 . S
C926 N929 1.341 . S
C927 C925 1.400 . S
C927 C926 1.387 . S
N928 Co919 2.022 . S
N928 C925 1.351 . S
N928 N929 1.365 . S
N929 C926 1.341 . S
N929 N928 1.365 . S
N929 H949 0.862 . S
C930 C925 1.501 . S
C930 H931 0.961 . S
C930 H932 0.961 . S
C930 H933 0.960 . S
H931 C930 0.961 . S
H932 C930 0.961 . S
H933 C930 0.960 . S
C934 N935 1.342 . S
C934 C938 1.401 . S
C934 C939 1.499 . S
N935 Co918 1.989 . S
N935 C934 1.342 . S
N935 N936 1.388 . S
N936 Co919 1.993 . S
N936 N935 1.388 . S
N936 C937 1.346 . S
C937 N936 1.346 . S
C937 C938 1.396 . S
C937 C947 1.510 . S
C938 C934 1.401 . S
C938 C937 1.396 . S
C939 C934 1.499 . S
C939 H940 0.959 . S
C939 H941 0.960 . S
C939 H942 0.961 . S
H940 C939 0.959 . S
H941 C939 0.960 . S
H942 C939 0.961 . S
O943 Co918 1.967 . S
O943 C951 1.258 . S
O944 Co919 1.941 . S
O944 C951 1.266 . S
H945 C947 0.959 . S
H946 C947 0.961 . S
C947 C937 1.510 . S
C947 H945 0.959 . S
C947 H946 0.961 . S
C947 H948 0.960 . S
H948 C947 0.960 . S
H949 N929 0.862 . S
O950 Co918 1.920 . S
O950 C923 1.289 . S
C951 O943 1.258 . S
C951 O944 1.266 . S
Co952 O955 1.970 . S
Co952 N969 1.989 . S
Co952 O977 1.967 . S
Co952 O984 1.920 . S
Co953 O956 1.966 . S
Co953 N962 2.022 . S
Co953 N970 1.993 . S
Co953 O978 1.941 . S
C954 O955 1.258 . S
C954 O956 1.263 . S
O955 Co952 1.970 . S
O955 C954 1.258 . S
O956 Co953 1.966 . S
O956 C954 1.263 . S
C957 O958 1.235 . S
C957 O984 1.289 . S
O958 C957 1.235 . S
C959 C961 1.400 . S
C959 N962 1.351 . S
C959 C964 1.501 . S
C960 C961 1.387 . S
C960 N963 1.341 . S
C961 C959 1.400 . S
C961 C960 1.387 . S
N962 Co953 2.022 . S
N962 C959 1.351 . S
N962 N963 1.365 . S
N963 C960 1.341 . S
N963 N962 1.365 . S
N963 H983 0.862 . S
C964 C959 1.501 . S
C964 H965 0.961 . S
C964 H966 0.961 . S
C964 H967 0.960 . S
H965 C964 0.961 . S
H966 C964 0.961 . S
H967 C964 0.960 . S
C968 N969 1.342 . S
C968 C972 1.401 . S
C968 C973 1.499 . S
N969 Co952 1.989 . S
N969 C968 1.342 . S
N969 N970 1.388 . S
N970 Co953 1.993 . S
N970 N969 1.388 . S
N970 C971 1.346 . S
C971 N970 1.346 . S
C971 C972 1.396 . S
C971 C981 1.510 . S
C972 C968 1.401 . S
C972 C971 1.396 . S
C973 C968 1.499 . S
C973 H974 0.959 . S
C973 H975 0.960 . S
C973 H976 0.961 . S
H974 C973 0.959 . S
H975 C973 0.960 . S
H976 C973 0.961 . S
O977 Co952 1.967 . S
O977 C985 1.258 . S
O978 Co953 1.941 . S
O978 C985 1.266 . S
H979 C981 0.959 . S
H980 C981 0.961 . S
C981 C971 1.510 . S
C981 H979 0.959 . S
C981 H980 0.961 . S
C981 H982 0.960 . S
H982 C981 0.960 . S
H983 N963 0.862 . S
O984 Co952 1.920 . S
O984 C957 1.289 . S
C985 O977 1.258 . S
C985 O978 1.266 . S
Co986 O989 1.970 . S
Co986 N1003 1.989 . S
Co986 O1011 1.967 . S
Co986 O1018 1.920 . S
Co987 O990 1.966 . S
Co987 N996 2.022 . S
Co987 N1004 1.993 . S
Co987 O1012 1.941 . S
C988 O989 1.258 . S
C988 O990 1.263 . S
O989 Co986 1.970 . S
O989 C988 1.258 . S
O990 Co987 1.966 . S
O990 C988 1.263 . S
C991 O992 1.235 . S
C991 O1018 1.289 . S
O992 C991 1.235 . S
C993 C995 1.400 . S
C993 N996 1.351 . S
C993 C998 1.501 . S
C994 C995 1.387 . S
C994 N997 1.341 . S
C995 C993 1.400 . S
C995 C994 1.387 . S
N996 Co987 2.022 . S
N996 C993 1.351 . S
N996 N997 1.365 . S
N997 C994 1.341 . S
N997 N996 1.365 . S
N997 H1017 0.862 . S
C998 C993 1.501 . S
C998 H999 0.961 . S
C998 H1000 0.961 . S
C998 H1001 0.960 . S
H999 C998 0.961 . S
H1000 C998 0.961 . S
H1001 C998 0.960 . S
C1002 N1003 1.342 . S
C1002 C1006 1.401 . S
C1002 C1007 1.499 . S
N1003 Co986 1.989 . S
N1003 C1002 1.342 . S
N1003 N1004 1.388 . S
N1004 Co987 1.993 . S
N1004 N1003 1.388 . S
N1004 C1005 1.346 . S
C1005 N1004 1.346 . S
C1005 C1006 1.396 . S
C1005 C1015 1.510 . S
C1006 C1002 1.401 . S
C1006 C1005 1.396 . S
C1007 C1002 1.499 . S
C1007 H1008 0.959 . S
C1007 H1009 0.960 . S
C1007 H1010 0.961 . S
H1008 C1007 0.959 . S
H1009 C1007 0.960 . S
H1010 C1007 0.961 . S
O1011 Co986 1.967 . S
O1011 C1019 1.258 . S
O1012 Co987 1.941 . S
O1012 C1019 1.266 . S
H1013 C1015 0.959 . S
H1014 C1015 0.961 . S
C1015 C1005 1.510 . S
C1015 H1013 0.959 . S
C1015 H1014 0.961 . S
C1015 H1016 0.960 . S
H1016 C1015 0.960 . S
H1017 N997 0.862 . S
O1018 Co986 1.920 . S
O1018 C991 1.289 . S
C1019 O1011 1.258 . S
C1019 O1012 1.266 . S
Co1020 O1023 1.970 . S
Co1020 N1037 1.989 . S
Co1020 O1045 1.967 . S
Co1020 O1052 1.920 . S
Co1021 O1024 1.966 . S
Co1021 N1030 2.022 . S
Co1021 N1038 1.993 . S
Co1021 O1046 1.941 . S
C1022 O1023 1.258 . S
C1022 O1024 1.263 . S
O1023 Co1020 1.970 . S
O1023 C1022 1.258 . S
O1024 Co1021 1.966 . S
O1024 C1022 1.263 . S
C1025 O1026 1.235 . S
C1025 O1052 1.289 . S
O1026 C1025 1.235 . S
C1027 C1029 1.400 . S
C1027 N1030 1.351 . S
C1027 C1032 1.501 . S
C1028 C1029 1.387 . S
C1028 N1031 1.341 . S
C1029 C1027 1.400 . S
C1029 C1028 1.387 . S
N1030 Co1021 2.022 . S
N1030 C1027 1.351 . S
N1030 N1031 1.365 . S
N1031 C1028 1.341 . S
N1031 N1030 1.365 . S
N1031 H1051 0.862 . S
C1032 C1027 1.501 . S
C1032 H1033 0.961 . S
C1032 H1034 0.961 . S
C1032 H1035 0.960 . S
H1033 C1032 0.961 . S
H1034 C1032 0.961 . S
H1035 C1032 0.960 . S
C1036 N1037 1.342 . S
C1036 C1040 1.401 . S
C1036 C1041 1.499 . S
N1037 Co1020 1.989 . S
N1037 C1036 1.342 . S
N1037 N1038 1.388 . S
N1038 Co1021 1.993 . S
N1038 N1037 1.388 . S
N1038 C1039 1.346 . S
C1039 N1038 1.346 . S
C1039 C1040 1.396 . S
C1039 C1049 1.510 . S
C1040 C1036 1.401 . S
C1040 C1039 1.396 . S
C1041 C1036 1.499 . S
C1041 H1042 0.959 . S
C1041 H1043 0.960 . S
C1041 H1044 0.961 . S
H1042 C1041 0.959 . S
H1043 C1041 0.960 . S
H1044 C1041 0.961 . S
O1045 Co1020 1.967 . S
O1045 C1053 1.258 . S
O1046 Co1021 1.941 . S
O1046 C1053 1.266 . S
H1047 C1049 0.959 . S
H1048 C1049 0.961 . S
C1049 C1039 1.510 . S
C1049 H1047 0.959 . S
C1049 H1048 0.961 . S
C1049 H1050 0.960 . S
H1050 C1049 0.960 . S
H1051 N1031 0.862 . S
O1052 Co1020 1.920 . S
O1052 C1025 1.289 . S
C1053 O1045 1.258 . S
C1053 O1046 1.266 . S
Co1054 O1057 1.970 . S
Co1054 N1071 1.989 . S
Co1054 O1079 1.967 . S
Co1054 O1086 1.920 . S
Co1055 O1058 1.966 . S
Co1055 N1064 2.022 . S
Co1055 N1072 1.993 . S
Co1055 O1080 1.941 . S
C1056 O1057 1.258 . S
C1056 O1058 1.263 . S
O1057 Co1054 1.970 . S
O1057 C1056 1.258 . S
O1058 Co1055 1.966 . S
O1058 C1056 1.263 . S
C1059 O1060 1.235 . S
C1059 O1086 1.289 . S
O1060 C1059 1.235 . S
C1061 C1063 1.400 . S
C1061 N1064 1.351 . S
C1061 C1066 1.501 . S
C1062 C1063 1.387 . S
C1062 N1065 1.341 . S
C1063 C1061 1.400 . S
C1063 C1062 1.387 . S
N1064 Co1055 2.022 . S
N1064 C1061 1.351 . S
N1064 N1065 1.365 . S
N1065 C1062 1.341 . S
N1065 N1064 1.365 . S
N1065 H1085 0.862 . S
C1066 C1061 1.501 . S
C1066 H1067 0.961 . S
C1066 H1068 0.961 . S
C1066 H1069 0.960 . S
H1067 C1066 0.961 . S
H1068 C1066 0.961 . S
H1069 C1066 0.960 . S
C1070 N1071 1.342 . S
C1070 C1074 1.401 . S
C1070 C1075 1.499 . S
N1071 Co1054 1.989 . S
N1071 C1070 1.342 . S
N1071 N1072 1.388 . S
N1072 Co1055 1.993 . S
N1072 N1071 1.388 . S
N1072 C1073 1.346 . S
C1073 N1072 1.346 . S
C1073 C1074 1.396 . S
C1073 C1083 1.510 . S
C1074 C1070 1.401 . S
C1074 C1073 1.396 . S
C1075 C1070 1.499 . S
C1075 H1076 0.959 . S
C1075 H1077 0.960 . S
C1075 H1078 0.961 . S
H1076 C1075 0.959 . S
H1077 C1075 0.960 . S
H1078 C1075 0.961 . S
O1079 Co1054 1.967 . S
O1079 C1087 1.258 . S
O1080 Co1055 1.941 . S
O1080 C1087 1.266 . S
H1081 C1083 0.959 . S
H1082 C1083 0.961 . S
C1083 C1073 1.510 . S
C1083 H1081 0.959 . S
C1083 H1082 0.961 . S
C1083 H1084 0.960 . S
H1084 C1083 0.960 . S
H1085 N1065 0.862 . S
O1086 Co1054 1.920 . S
O1086 C1059 1.289 . S
C1087 O1079 1.258 . S
C1087 O1080 1.266 . S
C1088 C1089 1.349 . S
C1088 C1090 1.327 . S
C1088 H1113 0.950 . S
C1089 C1088 1.349 . S
C1089 C1105 1.349 . S
C1090 C1088 1.327 . S
C1090 C1109 1.429 . S
C1090 H1114 0.950 . S
C1091 C1108 1.574 . S
C1091 C1110 1.368 . S
C1091 H1115 0.949 . S
H1092 C1096 0.949 . S
C1093 C1094 1.349 . S
C1093 C1095 1.327 . S
C1093 H1116 0.950 . S
C1094 C1093 1.349 . S
C1094 C1106 1.349 . S
C1095 C1093 1.327 . S
C1095 C1111 1.429 . S
C1095 H1117 0.950 . S
C1096 H1092 0.949 . S
C1096 C1104 1.574 . S
C1096 C1112 1.368 . S
H1097 C1105 0.950 . S
H1098 C1103 0.950 . S
H1099 C1104 0.949 . S
H1100 C1106 0.950 . S
H1101 C1107 0.950 . S
H1102 C1108 0.949 . S
C1103 H1098 0.950 . S
C1103 C1105 1.327 . S
C1103 C1109 1.429 . S
C1104 C1096 1.574 . S
C1104 H1099 0.949 . S
C1104 C1110 1.368 . S
C1105 C1089 1.349 . S
C1105 H1097 0.950 . S
C1105 C1103 1.327 . S
C1106 C1094 1.349 . S
C1106 H1100 0.950 . S
C1106 C1107 1.327 . S
C1107 H1101 0.950 . S
C1107 C1106 1.327 . S
C1107 C1111 1.429 . S
C1108 C1091 1.574 . S
C1108 H1102 0.949 . S
C1108 C1112 1.368 . S
C1109 C1090 1.429 . S
C1109 C1103 1.429 . S
C1109 C1110 1.523 . S
C1110 C1091 1.368 . S
C1110 C1104 1.368 . S
C1110 C1109 1.523 . S
C1111 C1095 1.429 . S
C1111 C1107 1.429 . S
C1111 C1112 1.523 . S
C1112 C1096 1.368 . S
C1112 C1108 1.368 . S
C1112 C1111 1.523 . S
H1113 C1088 0.950 . S
H1114 C1090 0.950 . S
H1115 C1091 0.949 . S
H1116 C1093 0.950 . S
H1117 C1095 0.950 . S
C1118 C1119 1.349 . S
C1118 C1120 1.327 . S
C1118 H1143 0.950 . S
C1119 C1118 1.349 . S
C1119 C1135 1.349 . S
C1120 C1118 1.327 . S
C1120 C1139 1.429 . S
C1120 H1144 0.949 1_545 S
C1121 C1138 1.574 . S
C1121 C1140 1.368 . S
C1121 H1145 0.949 . S
H1122 C1126 0.949 . S
C1123 C1124 1.349 . S
C1123 C1125 1.327 . S
C1123 H1146 0.950 . S
C1124 C1123 1.349 . S
C1124 C1136 1.349 . S
C1125 C1123 1.327 . S
C1125 C1141 1.429 . S
C1125 H1147 0.950 1_565 S
C1126 H1122 0.949 . S
C1126 C1134 1.574 . S
C1126 C1142 1.368 . S
H1127 C1135 0.950 . S
H1128 C1133 0.950 . S
H1129 C1134 0.949 . S
H1130 C1136 0.950 . S
H1131 C1137 0.950 . S
H1132 C1138 0.949 . S
C1133 H1128 0.950 . S
C1133 C1135 1.327 . S
C1133 C1139 1.429 . S
C1134 C1126 1.574 . S
C1134 H1129 0.949 . S
C1134 C1140 1.368 1_565 S
C1135 C1119 1.349 . S
C1135 H1127 0.950 . S
C1135 C1133 1.327 . S
C1136 C1124 1.349 . S
C1136 H1130 0.950 . S
C1136 C1137 1.327 . S
C1137 H1131 0.950 . S
C1137 C1136 1.327 . S
C1137 C1141 1.429 . S
C1138 C1121 1.574 . S
C1138 H1132 0.949 . S
C1138 C1142 1.368 1_545 S
C1139 C1120 1.429 . S
C1139 C1133 1.429 . S
C1139 C1140 1.523 . S
C1140 C1121 1.368 . S
C1140 C1134 1.368 1_545 S
C1140 C1139 1.523 . S
C1141 C1125 1.429 . S
C1141 C1137 1.429 . S
C1141 C1142 1.523 . S
C1142 C1126 1.368 . S
C1142 C1138 1.368 1_565 S
C1142 C1141 1.523 . S
H1143 C1118 0.950 . S
H1144 C1120 0.949 1_565 S
H1145 C1121 0.949 . S
H1146 C1123 0.950 . S
H1147 C1125 0.950 1_545 S
C1148 C1149 1.349 . S
C1148 C1150 1.327 . S
C1148 H1173 0.950 . S
C1149 C1148 1.349 . S
C1149 C1165 1.349 . S
C1150 C1148 1.327 . S
C1150 C1169 1.429 . S
C1150 H1174 0.950 . S
C1151 C1168 1.574 . S
C1151 C1170 1.368 . S
C1151 H1175 0.949 . S
H1152 C1156 0.949 . S
C1153 C1154 1.349 . S
C1153 C1155 1.327 . S
C1153 H1176 0.950 . S
C1154 C1153 1.349 . S
C1154 C1166 1.349 . S
C1155 C1153 1.327 . S
C1155 C1171 1.429 . S
C1155 H1177 0.950 . S
C1156 H1152 0.949 . S
C1156 C1164 1.574 . S
C1156 C1172 1.368 . S
H1157 C1165 0.950 . S
H1158 C1163 0.950 . S
H1159 C1164 0.949 . S
H1160 C1166 0.950 . S
H1161 C1167 0.950 . S
H1162 C1168 0.949 . S
C1163 H1158 0.950 . S
C1163 C1165 1.327 . S
C1163 C1169 1.429 . S
C1164 C1156 1.574 . S
C1164 H1159 0.949 . S
C1164 C1170 1.368 . S
C1165 C1149 1.349 . S
C1165 H1157 0.950 . S
C1165 C1163 1.327 . S
C1166 C1154 1.349 . S
C1166 H1160 0.950 . S
C1166 C1167 1.327 . S
C1167 H1161 0.950 . S
C1167 C1166 1.327 . S
C1167 C1171 1.429 . S
C1168 C1151 1.574 . S
C1168 H1162 0.949 . S
C1168 C1172 1.368 . S
C1169 C1150 1.429 . S
C1169 C1163 1.429 . S
C1169 C1170 1.523 . S
C1170 C1151 1.368 . S
C1170 C1164 1.368 . S
C1170 C1169 1.523 . S
C1171 C1155 1.429 . S
C1171 C1167 1.429 . S
C1171 C1172 1.523 . S
C1172 C1156 1.368 . S
C1172 C1168 1.368 . S
C1172 C1171 1.523 . S
H1173 C1148 0.950 . S
H1174 C1150 0.950 . S
H1175 C1151 0.949 . S
H1176 C1153 0.950 . S
H1177 C1155 0.950 . S
C1178 C1179 1.349 . S
C1178 C1180 1.327 . S
C1178 H1203 0.950 . S
C1179 C1178 1.349 . S
C1179 C1195 1.349 . S
C1180 C1178 1.327 . S
C1180 C1199 1.429 . S
C1180 H1204 0.950 . S
C1181 C1198 1.574 . S
C1181 C1200 1.368 1_545 S
C1181 H1205 0.949 . S
H1182 C1186 0.949 . S
C1183 C1184 1.349 . S
C1183 C1185 1.327 . S
C1183 H1206 0.950 . S
C1184 C1183 1.349 . S
C1184 C1196 1.349 . S
C1185 C1183 1.327 . S
C1185 C1201 1.429 . S
C1185 H1207 0.950 . S
C1186 H1182 0.949 . S
C1186 C1194 1.574 . S
C1186 C1202 1.368 1_565 S
H1187 C1195 0.950 . S
H1188 C1193 0.970 . S
H1189 C1194 0.949 . S
H1190 C1196 0.950 . S
H1191 C1197 0.950 1_565 S
H1192 C1198 0.949 . S
C1193 H1188 0.970 . S
C1193 C1195 1.327 . S
C1193 C1199 1.429 . S
C1194 C1186 1.574 . S
C1194 H1189 0.949 . S
C1194 C1200 1.368 . S
C1195 C1179 1.349 . S
C1195 H1187 0.950 . S
C1195 C1193 1.327 . S
C1196 C1184 1.349 . S
C1196 H1190 0.950 . S
C1196 C1197 1.327 . S
C1197 H1191 0.950 1_545 S
C1197 C1196 1.327 . S
C1197 C1201 1.429 . S
C1198 C1181 1.574 . S
C1198 H1192 0.949 . S
C1198 C1202 1.368 . S
C1199 C1180 1.429 . S
C1199 C1193 1.429 . S
C1199 C1200 1.523 . S
C1200 C1181 1.368 1_565 S
C1200 C1194 1.368 . S
C1200 C1199 1.523 . S
C1201 C1185 1.429 . S
C1201 C1197 1.429 . S
C1201 C1202 1.523 1_655 S
C1202 C1186 1.368 1_545 S
C1202 C1198 1.368 . S
C1202 C1201 1.523 1_455 S
H1203 C1178 0.950 . S
H1204 C1180 0.950 . S
H1205 C1181 0.949 . S
H1206 C1183 0.950 . S
H1207 C1185 0.950 . S
C1208 C1209 1.349 . S
C1208 C1210 1.327 . S
C1208 H1233 0.950 . S
C1209 C1208 1.349 . S
C1209 C1225 1.349 . S
C1210 C1208 1.327 . S
C1210 C1229 1.429 . S
C1210 H1234 0.950 . S
C1211 C1228 1.574 . S
C1211 C1230 1.368 . S
C1211 H1235 0.949 . S
H1212 C1216 0.949 . S
C1213 C1214 1.349 . S
C1213 C1215 1.327 . S
C1213 H1236 0.950 . S
C1214 C1213 1.349 . S
C1214 C1226 1.349 . S
C1215 C1213 1.327 . S
C1215 C1231 1.429 . S
C1215 H1237 0.950 . S
C1216 H1212 0.949 . S
C1216 C1224 1.574 . S
C1216 C1232 1.368 . S
H1217 C1225 0.950 . S
H1218 C1223 0.950 . S
H1219 C1224 0.949 . S
H1220 C1226 0.950 . S
H1221 C1227 0.950 . S
H1222 C1228 0.949 . S
C1223 H1218 0.950 . S
C1223 C1225 1.327 . S
C1223 C1229 1.429 . S
C1224 C1216 1.574 . S
C1224 H1219 0.949 . S
C1224 C1230 1.368 . S
C1225 C1209 1.349 . S
C1225 H1217 0.950 . S
C1225 C1223 1.327 . S
C1226 C1214 1.349 . S
C1226 H1220 0.950 . S
C1226 C1227 1.327 . S
C1227 H1221 0.950 . S
C1227 C1226 1.327 . S
C1227 C1231 1.429 . S
C1228 C1211 1.574 . S
C1228 H1222 0.949 . S
C1228 C1232 1.368 . S
C1229 C1210 1.429 . S
C1229 C1223 1.429 . S
C1229 C1230 1.523 . S
C1230 C1211 1.368 . S
C1230 C1224 1.368 . S
C1230 C1229 1.523 . S
C1231 C1215 1.429 . S
C1231 C1227 1.429 . S
C1231 C1232 1.523 . S
C1232 C1216 1.368 . S
C1232 C1228 1.368 . S
C1232 C1231 1.523 . S
H1233 C1208 0.950 . S
H1234 C1210 0.950 . S
H1235 C1211 0.949 . S
H1236 C1213 0.950 . S
H1237 C1215 0.950 . S
C1238 C1239 1.349 . S
C1238 C1240 1.327 . S
C1238 H1263 0.950 . S
C1239 C1238 1.349 . S
C1239 C1255 1.349 . S
C1240 C1238 1.327 . S
C1240 C1259 1.429 . S
C1240 H1264 0.950 . S
C1241 C1258 1.574 . S
C1241 C1260 1.368 1_565 S
C1241 H1265 0.949 . S
H1242 C1246 0.949 . S
C1243 C1244 1.349 . S
C1243 C1245 1.327 . S
C1243 H1266 0.950 . S
C1244 C1243 1.349 . S
C1244 C1256 1.349 . S
C1245 C1243 1.327 . S
C1245 C1261 1.429 . S
C1245 H1267 0.950 . S
C1246 H1242 0.949 . S
C1246 C1254 1.574 . S
C1246 C1262 1.368 1_545 S
H1247 C1255 0.950 . S
H1248 C1253 0.950 . S
H1249 C1254 0.949 . S
H1250 C1256 0.950 . S
H1251 C1257 0.950 1_545 S
H1252 C1258 0.949 . S
C1253 H1248 0.950 . S
C1253 C1255 1.327 . S
C1253 C1259 1.429 . S
C1254 C1246 1.574 . S
C1254 H1249 0.949 . S
C1254 C1260 1.368 . S
C1255 C1239 1.349 . S
C1255 H1247 0.950 . S
C1255 C1253 1.327 . S
C1256 C1244 1.349 . S
C1256 H1250 0.950 . S
C1256 C1257 1.327 . S
C1257 H1251 0.950 1_565 S
C1257 C1256 1.327 . S
C1257 C1261 1.429 . S
C1258 C1241 1.574 . S
C1258 H1252 0.949 . S
C1258 C1262 1.368 . S
C1259 C1240 1.429 . S
C1259 C1253 1.429 . S
C1259 C1260 1.523 . S
C1260 C1241 1.368 1_545 S
C1260 C1254 1.368 . S
C1260 C1259 1.523 . S
C1261 C1245 1.429 . S
C1261 C1257 1.429 . S
C1261 C1262 1.523 1_655 S
C1262 C1246 1.368 1_565 S
C1262 C1258 1.368 . S
C1262 C1261 1.523 1_455 S
H1263 C1238 0.950 . S
H1264 C1240 0.950 . S
H1265 C1241 0.949 . S
H1266 C1243 0.950 . S
H1267 C1245 0.950 . S
C1268 C1269 1.349 . S
C1268 C1270 1.327 . S
C1268 H1293 0.950 . S
C1269 C1268 1.349 . S
C1269 C1285 1.349 . S
C1270 C1268 1.327 . S
C1270 C1289 1.429 . S
C1270 H1294 0.950 . S
C1271 C1288 1.574 . S
C1271 C1290 1.368 . S
C1271 H1295 0.949 . S
H1272 C1276 0.949 . S
C1273 C1274 1.349 . S
C1273 C1275 1.327 . S
C1273 H1296 0.950 . S
C1274 C1273 1.349 . S
C1274 C1286 1.349 . S
C1275 C1273 1.327 . S
C1275 C1291 1.429 . S
C1275 H1297 0.950 . S
C1276 H1272 0.949 . S
C1276 C1284 1.574 . S
C1276 C1292 1.368 . S
H1277 C1285 0.950 . S
H1278 C1283 0.950 . S
H1279 C1284 0.949 . S
H1280 C1286 0.950 . S
H1281 C1287 0.950 . S
H1282 C1288 0.949 . S
C1283 H1278 0.950 . S
C1283 C1285 1.327 . S
C1283 C1289 1.429 . S
C1284 C1276 1.574 . S
C1284 H1279 0.949 . S
C1284 C1290 1.368 . S
C1285 C1269 1.349 . S
C1285 H1277 0.950 . S
C1285 C1283 1.327 . S
C1286 C1274 1.349 . S
C1286 H1280 0.950 . S
C1286 C1287 1.327 . S
C1287 H1281 0.950 . S
C1287 C1286 1.327 . S
C1287 C1291 1.429 . S
C1288 C1271 1.574 . S
C1288 H1282 0.949 . S
C1288 C1292 1.368 . S
C1289 C1270 1.429 . S
C1289 C1283 1.429 . S
C1289 C1290 1.523 . S
C1290 C1271 1.368 . S
C1290 C1284 1.368 . S
C1290 C1289 1.523 . S
C1291 C1275 1.429 . S
C1291 C1287 1.429 . S
C1291 C1292 1.523 . S
C1292 C1276 1.368 . S
C1292 C1288 1.368 . S
C1292 C1291 1.523 . S
H1293 C1268 0.950 . S
H1294 C1270 0.950 . S
H1295 C1271 0.949 . S
H1296 C1273 0.950 . S
H1297 C1275 0.950 . S
C1298 C1299 1.349 . S
C1298 C1300 1.327 . S
C1298 H1323 0.950 . S
C1299 C1298 1.349 . S
C1299 C1315 1.349 . S
C1300 C1298 1.327 . S
C1300 C1319 1.429 . S
C1300 H1324 0.950 . S
C1301 C1318 1.574 . S
C1301 C1320 1.368 1_565 S
C1301 H1325 0.949 . S
H1302 C1306 0.949 . S
C1303 C1304 1.349 . S
C1303 C1305 1.327 . S
C1303 H1326 0.950 . S
C1304 C1303 1.349 . S
C1304 C1316 1.349 . S
C1305 C1303 1.327 . S
C1305 C1321 1.429 . S
C1305 H1327 0.950 . S
C1306 H1302 0.949 . S
C1306 C1314 1.574 . S
C1306 C1322 1.368 1_545 S
H1307 C1315 0.950 . S
H1308 C1313 0.950 1_565 S
H1309 C1314 0.949 . S
H1310 C1316 0.950 . S
H1311 C1317 0.950 . S
H1312 C1318 0.949 . S
C1313 H1308 0.950 1_545 S
C1313 C1315 1.327 . S
C1313 C1319 1.429 . S
C1314 C1306 1.574 . S
C1314 H1309 0.949 . S
C1314 C1320 1.368 . S
C1315 C1299 1.349 . S
C1315 H1307 0.950 . S
C1315 C1313 1.327 . S
C1316 C1304 1.349 . S
C1316 H1310 0.950 . S
C1316 C1317 1.327 . S
C1317 H1311 0.950 . S
C1317 C1316 1.327 . S
C1317 C1321 1.429 . S
C1318 C1301 1.574 . S
C1318 H1312 0.949 . S
C1318 C1322 1.368 . S
C1319 C1300 1.429 . S
C1319 C1313 1.429 . S
C1319 C1320 1.523 . S
C1320 C1301 1.368 1_545 S
C1320 C1314 1.368 . S
C1320 C1319 1.523 . S
C1321 C1305 1.429 . S
C1321 C1317 1.429 . S
C1321 C1322 1.523 . S
C1322 C1306 1.368 1_565 S
C1322 C1318 1.368 . S
C1322 C1321 1.523 . S
H1323 C1298 0.950 . S
H1324 C1300 0.950 . S
H1325 C1301 0.949 . S
H1326 C1303 0.950 . S
H1327 C1305 0.950 . S
C1328 C1329 1.349 . S
C1328 C1330 1.327 . S
C1328 H1353 0.950 . S
C1329 C1328 1.349 . S
C1329 C1345 1.349 . S
C1330 C1328 1.327 . S
C1330 C1349 1.429 . S
C1330 H1354 0.950 . S
C1331 C1348 1.574 . S
C1331 C1350 1.368 . S
C1331 H1355 0.949 . S
H1332 C1336 0.949 . S
C1333 C1334 1.349 . S
C1333 C1335 1.327 . S
C1333 H1356 0.950 . S
C1334 C1333 1.349 . S
C1334 C1346 1.349 . S
C1335 C1333 1.327 . S
C1335 C1351 1.429 . S
C1335 H1357 0.950 . S
C1336 H1332 0.949 . S
C1336 C1344 1.574 . S
C1336 C1352 1.368 . S
H1337 C1345 0.950 . S
H1338 C1343 0.950 . S
H1339 C1344 0.949 . S
H1340 C1346 0.950 . S
H1341 C1347 0.950 . S
H1342 C1348 0.949 . S
C1343 H1338 0.950 . S
C1343 C1345 1.327 . S
C1343 C1349 1.429 . S
C1344 C1336 1.574 . S
C1344 H1339 0.949 . S
C1344 C1350 1.368 . S
C1345 C1329 1.349 . S
C1345 H1337 0.950 . S
C1345 C1343 1.327 . S
C1346 C1334 1.349 . S
C1346 H1340 0.950 . S
C1346 C1347 1.327 . S
C1347 H1341 0.950 . S
C1347 C1346 1.327 . S
C1347 C1351 1.429 . S
C1348 C1331 1.574 . S
C1348 H1342 0.949 . S
C1348 C1352 1.368 . S
C1349 C1330 1.429 . S
C1349 C1343 1.429 . S
C1349 C1350 1.523 . S
C1350 C1331 1.368 . S
C1350 C1344 1.368 . S
C1350 C1349 1.523 . S
C1351 C1335 1.429 . S
C1351 C1347 1.429 . S
C1351 C1352 1.523 . S
C1352 C1336 1.368 . S
C1352 C1348 1.368 . S
C1352 C1351 1.523 . S
H1353 C1328 0.950 . S
H1354 C1330 0.950 . S
H1355 C1331 0.949 . S
H1356 C1333 0.950 . S
H1357 C1335 0.950 . S
C1358 C1359 1.349 . S
C1358 C1360 1.327 . S
C1358 H1383 0.950 . S
C1359 C1358 1.349 . S
C1359 C1375 1.349 . S
C1360 C1358 1.327 . S
C1360 C1379 1.429 . S
C1360 H1384 0.950 . S
C1361 C1378 1.574 . S
C1361 C1380 1.368 . S
C1361 H1385 0.949 . S
H1362 C1366 0.949 . S
C1363 C1364 1.349 . S
C1363 C1365 1.327 . S
C1363 H1386 0.950 . S
C1364 C1363 1.349 . S
C1364 C1376 1.349 . S
C1365 C1363 1.327 . S
C1365 C1381 1.429 . S
C1365 H1387 0.950 1_545 S
C1366 H1362 0.949 . S
C1366 C1374 1.574 . S
C1366 C1382 1.368 . S
H1367 C1375 0.950 . S
H1368 C1373 0.950 . S
H1369 C1374 0.949 . S
H1370 C1376 0.950 . S
H1371 C1377 0.950 . S
H1372 C1378 0.949 . S
C1373 H1368 0.950 . S
C1373 C1375 1.327 . S
C1373 C1379 1.429 . S
C1374 C1366 1.574 . S
C1374 H1369 0.949 . S
C1374 C1380 1.368 1_545 S
C1375 C1359 1.349 . S
C1375 H1367 0.950 . S
C1375 C1373 1.327 . S
C1376 C1364 1.349 . S
C1376 H1370 0.950 . S
C1376 C1377 1.327 . S
C1377 H1371 0.950 . S
C1377 C1376 1.327 . S
C1377 C1381 1.429 . S
C1378 C1361 1.574 . S
C1378 H1372 0.949 . S
C1378 C1382 1.368 1_565 S
C1379 C1360 1.429 . S
C1379 C1373 1.429 . S
C1379 C1380 1.523 . S
C1380 C1361 1.368 . S
C1380 C1374 1.368 1_565 S
C1380 C1379 1.523 . S
C1381 C1365 1.429 . S
C1381 C1377 1.429 . S
C1381 C1382 1.523 . S
C1382 C1366 1.368 . S
C1382 C1378 1.368 1_545 S
C1382 C1381 1.523 . S
H1383 C1358 0.950 . S
H1384 C1360 0.950 . S
H1385 C1361 0.949 . S
H1386 C1363 0.950 . S
H1387 C1365 0.950 1_565 S
C1388 C1389 1.349 . S
C1388 C1390 1.327 . S
C1388 H1413 0.950 . S
C1389 C1388 1.349 . S
C1389 C1405 1.349 . S
C1390 C1388 1.327 . S
C1390 C1409 1.429 . S
C1390 H1414 0.950 . S
C1391 C1408 1.574 . S
C1391 C1410 1.368 . S
C1391 H1415 0.949 . S
H1392 C1396 0.949 . S
C1393 C1394 1.349 . S
C1393 C1395 1.327 . S
C1393 H1416 0.950 . S
C1394 C1393 1.349 . S
C1394 C1406 1.349 . S
C1395 C1393 1.327 . S
C1395 C1411 1.429 . S
C1395 H1417 0.950 . S
C1396 H1392 0.949 . S
C1396 C1404 1.574 . S
C1396 C1412 1.368 . S
H1397 C1405 0.950 . S
H1398 C1403 0.950 . S
H1399 C1404 0.949 . S
H1400 C1406 0.950 . S
H1401 C1407 0.950 . S
H1402 C1408 0.949 . S
C1403 H1398 0.950 . S
C1403 C1405 1.327 . S
C1403 C1409 1.429 . S
C1404 C1396 1.574 . S
C1404 H1399 0.949 . S
C1404 C1410 1.368 . S
C1405 C1389 1.349 . S
C1405 H1397 0.950 . S
C1405 C1403 1.327 . S
C1406 C1394 1.349 . S
C1406 H1400 0.950 . S
C1406 C1407 1.327 . S
C1407 H1401 0.950 . S
C1407 C1406 1.327 . S
C1407 C1411 1.429 . S
C1408 C1391 1.574 . S
C1408 H1402 0.949 . S
C1408 C1412 1.368 . S
C1409 C1390 1.429 . S
C1409 C1403 1.429 . S
C1409 C1410 1.523 . S
C1410 C1391 1.368 . S
C1410 C1404 1.368 . S
C1410 C1409 1.523 . S
C1411 C1395 1.429 . S
C1411 C1407 1.429 . S
C1411 C1412 1.523 . S
C1412 C1396 1.368 . S
C1412 C1408 1.368 . S
C1412 C1411 1.523 . S
H1413 C1388 0.950 . S
H1414 C1390 0.950 . S
H1415 C1391 0.949 . S
H1416 C1393 0.950 . S
H1417 C1395 0.950 . S
C1418 C1419 1.349 . S
C1418 C1420 1.327 . S
C1418 H1443 0.950 . S
C1419 C1418 1.349 . S
C1419 C1435 1.349 . S
C1420 C1418 1.327 . S
C1420 C1439 1.429 . S
C1420 H1444 0.950 1_565 S
C1421 C1438 1.574 . S
C1421 C1440 1.368 . S
C1421 H1445 0.949 . S
H1422 C1426 0.949 . S
C1423 C1424 1.349 . S
C1423 C1425 1.327 . S
C1423 H1446 0.950 . S
C1424 C1423 1.349 . S
C1424 C1436 1.349 . S
C1425 C1423 1.327 . S
C1425 C1441 1.429 . S
C1425 H1447 0.950 . S
C1426 H1422 0.949 . S
C1426 C1434 1.574 . S
C1426 C1442 1.368 . S
H1427 C1435 0.950 . S
H1428 C1433 0.950 . S
H1429 C1434 0.949 . S
H1430 C1436 0.950 . S
H1431 C1437 0.950 . S
H1432 C1438 0.949 . S
C1433 H1428 0.950 . S
C1433 C1435 1.327 . S
C1433 C1439 1.429 . S
C1434 C1426 1.574 . S
C1434 H1429 0.949 . S
C1434 C1440 1.368 1_545 S
C1435 C1419 1.349 . S
C1435 H1427 0.950 . S
C1435 C1433 1.327 . S
C1436 C1424 1.349 . S
C1436 H1430 0.950 . S
C1436 C1437 1.327 . S
C1437 H1431 0.950 . S
C1437 C1436 1.327 . S
C1437 C1441 1.429 . S
C1438 C1421 1.574 . S
C1438 H1432 0.949 . S
C1438 C1442 1.368 1_565 S
C1439 C1420 1.429 . S
C1439 C1433 1.429 . S
C1439 C1440 1.523 1_455 S
C1440 C1421 1.368 . S
C1440 C1434 1.368 1_565 S
C1440 C1439 1.523 1_655 S
C1441 C1425 1.429 . S
C1441 C1437 1.429 . S
C1441 C1442 1.523 . S
C1442 C1426 1.368 . S
C1442 C1438 1.368 1_545 S
C1442 C1441 1.523 . S
H1443 C1418 0.950 . S
H1444 C1420 0.950 1_545 S
H1445 C1421 0.949 . S
H1446 C1423 0.950 . S
H1447 C1425 0.950 . S
C1448 C1449 1.349 . S
C1448 C1450 1.327 . S
C1448 H1473 0.950 . S
C1449 C1448 1.349 . S
C1449 C1465 1.349 . S
C1450 C1448 1.327 . S
C1450 C1469 1.429 . S
C1450 H1474 0.950 . S
C1451 C1468 1.574 . S
C1451 C1470 1.368 . S
C1451 H1475 0.949 . S
H1452 C1456 0.949 . S
C1453 C1454 1.349 . S
C1453 C1455 1.327 . S
C1453 H1476 0.950 . S
C1454 C1453 1.349 . S
C1454 C1466 1.349 . S
C1455 C1453 1.327 . S
C1455 C1471 1.429 . S
C1455 H1477 0.950 . S
C1456 H1452 0.949 . S
C1456 C1464 1.574 . S
C1456 C1472 1.368 . S
H1457 C1465 0.950 . S
H1458 C1463 0.950 . S
H1459 C1464 0.949 . S
H1460 C1466 0.950 . S
H1461 C1467 0.950 . S
H1462 C1468 0.949 . S
C1463 H1458 0.950 . S
C1463 C1465 1.327 . S
C1463 C1469 1.429 . S
C1464 C1456 1.574 . S
C1464 H1459 0.949 . S
C1464 C1470 1.368 . S
C1465 C1449 1.349 . S
C1465 H1457 0.950 . S
C1465 C1463 1.327 . S
C1466 C1454 1.349 . S
C1466 H1460 0.950 . S
C1466 C1467 1.327 . S
C1467 H1461 0.950 . S
C1467 C1466 1.327 . S
C1467 C1471 1.429 . S
C1468 C1451 1.574 . S
C1468 H1462 0.949 . S
C1468 C1472 1.368 . S
C1469 C1450 1.429 . S
C1469 C1463 1.429 . S
C1469 C1470 1.523 . S
C1470 C1451 1.368 . S
C1470 C1464 1.368 . S
C1470 C1469 1.523 . S
C1471 C1455 1.429 . S
C1471 C1467 1.429 . S
C1471 C1472 1.523 . S
C1472 C1456 1.368 . S
C1472 C1468 1.368 . S
C1472 C1471 1.523 . S
H1473 C1448 0.950 . S
H1474 C1450 0.950 . S
H1475 C1451 0.949 . S
H1476 C1453 0.950 . S
H1477 C1455 0.950 . S
C1478 C1479 1.349 . S
C1478 C1480 1.327 . S
C1478 H1503 0.950 . S
C1479 C1478 1.349 . S
C1479 C1495 1.349 . S
C1480 C1478 1.327 . S
C1480 C1499 1.429 . S
C1480 H1504 0.950 1_545 S
C1481 C1498 1.574 . S
C1481 C1500 1.368 . S
C1481 H1505 0.949 . S
H1482 C1486 0.949 . S
C1483 C1484 1.349 . S
C1483 C1485 1.327 . S
C1483 H1506 0.950 . S
C1484 C1483 1.349 . S
C1484 C1496 1.349 . S
C1485 C1483 1.327 . S
C1485 C1501 1.429 . S
C1485 H1507 0.954 . S
C1486 H1482 0.949 . S
C1486 C1494 1.574 . S
C1486 C1502 1.368 . S
H1487 C1495 0.950 . S
H1488 C1493 0.950 . S
H1489 C1494 0.949 . S
H1490 C1496 0.950 . S
H1491 C1497 0.950 . S
H1492 C1498 0.949 . S
C1493 H1488 0.950 . S
C1493 C1495 1.327 . S
C1493 C1499 1.429 . S
C1494 C1486 1.574 . S
C1494 H1489 0.949 . S
C1494 C1500 1.368 1_565 S
C1495 C1479 1.349 . S
C1495 H1487 0.950 . S
C1495 C1493 1.327 . S
C1496 C1484 1.349 . S
C1496 H1490 0.950 . S
C1496 C1497 1.327 . S
C1497 H1491 0.950 . S
C1497 C1496 1.327 . S
C1497 C1501 1.429 . S
C1498 C1481 1.574 . S
C1498 H1492 0.949 . S
C1498 C1502 1.368 1_545 S
C1499 C1480 1.429 . S
C1499 C1493 1.429 . S
C1499 C1500 1.523 1_455 S
C1500 C1481 1.368 . S
C1500 C1494 1.368 1_545 S
C1500 C1499 1.523 1_655 S
C1501 C1485 1.429 . S
C1501 C1497 1.429 . S
C1501 C1502 1.523 . S
C1502 C1486 1.368 . S
C1502 C1498 1.368 1_565 S
C1502 C1501 1.523 . S
H1503 C1478 0.950 . S
H1504 C1480 0.950 1_565 S
H1505 C1481 0.949 . S
H1506 C1483 0.950 . S
H1507 C1485 0.954 . S
C1508 C1509 1.349 . S
C1508 C1510 1.327 . S
C1508 H1533 0.950 . S
C1509 C1508 1.349 . S
C1509 C1525 1.349 . S
C1510 C1508 1.327 . S
C1510 C1529 1.429 . S
C1510 H1534 0.950 . S
C1511 C1528 1.574 . S
C1511 C1530 1.368 . S
C1511 H1535 0.949 . S
H1512 C1516 0.949 . S
C1513 C1514 1.349 . S
C1513 C1515 1.327 . S
C1513 H1536 0.950 . S
C1514 C1513 1.349 . S
C1514 C1526 1.349 . S
C1515 C1513 1.327 . S
C1515 C1531 1.429 . S
C1515 H1537 0.950 . S
C1516 H1512 0.949 . S
C1516 C1524 1.574 . S
C1516 C1532 1.368 . S
H1517 C1525 0.950 . S
H1518 C1523 0.950 . S
H1519 C1524 0.949 . S
H1520 C1526 0.950 . S
H1521 C1527 0.950 . S
H1522 C1528 0.949 . S
C1523 H1518 0.950 . S
C1523 C1525 1.327 . S
C1523 C1529 1.429 . S
C1524 C1516 1.574 . S
C1524 H1519 0.949 . S
C1524 C1530 1.368 . S
C1525 C1509 1.349 . S
C1525 H1517 0.950 . S
C1525 C1523 1.327 . S
C1526 C1514 1.349 . S
C1526 H1520 0.950 . S
C1526 C1527 1.327 . S
C1527 H1521 0.950 . S
C1527 C1526 1.327 . S
C1527 C1531 1.429 . S
C1528 C1511 1.574 . S
C1528 H1522 0.949 . S
C1528 C1532 1.368 . S
C1529 C1510 1.429 . S
C1529 C1523 1.429 . S
C1529 C1530 1.523 . S
C1530 C1511 1.368 . S
C1530 C1524 1.368 . S
C1530 C1529 1.523 . S
C1531 C1515 1.429 . S
C1531 C1527 1.429 . S
C1531 C1532 1.523 . S
C1532 C1516 1.368 . S
C1532 C1528 1.368 . S
C1532 C1531 1.523 . S
H1533 C1508 0.950 . S
H1534 C1510 0.950 . S
H1535 C1511 0.949 . S
H1536 C1513 0.950 . S
H1537 C1515 0.950 . S
C1538 C1539 1.349 . S
C1538 C1540 1.327 . S
C1538 H1563 0.950 . S
C1539 C1538 1.349 . S
C1539 C1555 1.349 . S
C1540 C1538 1.327 . S
C1540 C1559 1.429 . S
C1540 H1564 0.950 . S
C1541 C1558 1.574 . S
C1541 C1560 1.368 . S
C1541 H1565 0.949 . S
H1542 C1546 0.949 . S
C1543 C1544 1.349 . S
C1543 C1545 1.327 . S
C1543 H1566 0.950 . S
C1544 C1543 1.349 . S
C1544 C1556 1.349 . S
C1545 C1543 1.327 . S
C1545 C1561 1.429 . S
C1545 H1567 0.950 1_565 S
C1546 H1542 0.949 . S
C1546 C1554 1.574 . S
C1546 C1562 1.368 . S
H1547 C1555 0.950 . S
H1548 C1553 0.950 . S
H1549 C1554 0.949 . S
H1550 C1556 0.950 . S
H1551 C1557 0.950 . S
H1552 C1558 0.949 . S
C1553 H1548 0.950 . S
C1553 C1555 1.327 . S
C1553 C1559 1.429 . S
C1554 C1546 1.574 . S
C1554 H1549 0.949 . S
C1554 C1560 1.368 1_565 S
C1555 C1539 1.349 . S
C1555 H1547 0.950 . S
C1555 C1553 1.327 . S
C1556 C1544 1.349 . S
C1556 H1550 0.950 . S
C1556 C1557 1.327 . S
C1557 H1551 0.950 . S
C1557 C1556 1.327 . S
C1557 C1561 1.429 . S
C1558 C1541 1.574 . S
C1558 H1552 0.949 . S
C1558 C1562 1.368 1_545 S
C1559 C1540 1.429 . S
C1559 C1553 1.429 . S
C1559 C1560 1.523 . S
C1560 C1541 1.368 . S
C1560 C1554 1.368 1_545 S
C1560 C1559 1.523 . S
C1561 C1545 1.429 . S
C1561 C1557 1.429 . S
C1561 C1562 1.523 . S
C1562 C1546 1.368 . S
C1562 C1558 1.368 1_565 S
C1562 C1561 1.523 . S
H1563 C1538 0.950 . S
H1564 C1540 0.950 . S
H1565 C1541 0.949 . S
H1566 C1543 0.950 . S
H1567 C1545 0.950 1_545 S
C1568 C1569 1.349 . S
C1568 C1570 1.327 . S
C1568 H1593 0.950 . S
C1569 C1568 1.349 . S
C1569 C1585 1.349 . S
C1570 C1568 1.327 . S
C1570 C1589 1.429 . S
C1570 H1594 0.950 . S
C1571 C1588 1.574 . S
C1571 C1590 1.368 . S
C1571 H1595 0.949 . S
H1572 C1576 0.949 . S
C1573 C1574 1.349 . S
C1573 C1575 1.327 . S
C1573 H1596 0.950 . S
C1574 C1573 1.349 . S
C1574 C1586 1.349 . S
C1575 C1573 1.327 . S
C1575 C1591 1.429 . S
C1575 H1597 0.950 . S
C1576 H1572 0.949 . S
C1576 C1584 1.574 . S
C1576 C1592 1.368 . S
H1577 C1585 0.950 . S
H1578 C1583 0.950 . S
H1579 C1584 0.949 . S
H1580 C1586 0.950 . S
H1581 C1587 0.950 . S
H1582 C1588 0.949 . S
C1583 H1578 0.950 . S
C1583 C1585 1.327 . S
C1583 C1589 1.429 . S
C1584 C1576 1.574 . S
C1584 H1579 0.949 . S
C1584 C1590 1.368 . S
C1585 C1569 1.349 . S
C1585 H1577 0.950 . S
C1585 C1583 1.327 . S
C1586 C1574 1.349 . S
C1586 H1580 0.950 . S
C1586 C1587 1.327 . S
C1587 H1581 0.950 . S
C1587 C1586 1.327 . S
C1587 C1591 1.429 . S
C1588 C1571 1.574 . S
C1588 H1582 0.949 . S
C1588 C1592 1.368 . S
C1589 C1570 1.429 . S
C1589 C1583 1.429 . S
C1589 C1590 1.523 . S
C1590 C1571 1.368 . S
C1590 C1584 1.368 . S
C1590 C1589 1.523 . S
C1591 C1575 1.429 . S
C1591 C1587 1.429 . S
C1591 C1592 1.523 . S
C1592 C1576 1.368 . S
C1592 C1588 1.368 . S
C1592 C1591 1.523 . S
H1593 C1568 0.950 . S
H1594 C1570 0.950 . S
H1595 C1571 0.949 . S
H1596 C1573 0.950 . S
H1597 C1575 0.950 . S
C1598 C1599 1.349 . S
C1598 C1600 1.327 . S
C1598 H1623 0.950 . S
C1599 C1598 1.349 . S
C1599 C1615 1.349 . S
C1600 C1598 1.327 . S
C1600 C1619 1.429 . S
C1600 H1624 0.950 . S
C1601 C1618 1.574 . S
C1601 C1620 1.368 . S
C1601 H1625 0.949 . S
H1602 C1606 0.949 . S
C1603 C1604 1.349 . S
C1603 C1605 1.327 . S
C1603 H1626 0.950 . S
C1604 C1603 1.349 . S
C1604 C1616 1.349 . S
C1605 C1603 1.327 . S
C1605 C1621 1.429 . S
C1605 H1627 0.950 . S
C1606 H1602 0.949 . S
C1606 C1614 1.574 . S
C1606 C1622 1.368 . S
H1607 C1615 0.950 . S
H1608 C1613 0.950 . S
H1609 C1614 0.949 . S
H1610 C1616 0.950 . S
H1611 C1617 0.950 . S
H1612 C1618 0.949 . S
C1613 H1608 0.950 . S
C1613 C1615 1.327 . S
C1613 C1619 1.429 . S
C1614 C1606 1.574 . S
C1614 H1609 0.949 . S
C1614 C1620 1.368 . S
C1615 C1599 1.349 . S
C1615 H1607 0.950 . S
C1615 C1613 1.327 . S
C1616 C1604 1.349 . S
C1616 H1610 0.950 . S
C1616 C1617 1.327 . S
C1617 H1611 0.950 . S
C1617 C1616 1.327 . S
C1617 C1621 1.429 . S
C1618 C1601 1.574 . S
C1618 H1612 0.949 . S
C1618 C1622 1.368 . S
C1619 C1600 1.429 . S
C1619 C1613 1.429 . S
C1619 C1620 1.523 1_455 S
C1620 C1601 1.368 . S
C1620 C1614 1.368 . S
C1620 C1619 1.523 1_655 S
C1621 C1605 1.429 . S
C1621 C1617 1.429 . S
C1621 C1622 1.523 . S
C1622 C1606 1.368 . S
C1622 C1618 1.368 . S
C1622 C1621 1.523 . S
H1623 C1598 0.950 . S
H1624 C1600 0.950 . S
H1625 C1601 0.949 . S
H1626 C1603 0.950 . S
H1627 C1605 0.950 . S
C1628 C1629 1.349 . S
C1628 C1630 1.327 . S
C1628 H1653 0.950 . S
C1629 C1628 1.349 . S
C1629 C1645 1.349 . S
C1630 C1628 1.327 . S
C1630 C1649 1.429 . S
C1630 H1654 0.950 . S
C1631 C1648 1.574 . S
C1631 C1650 1.368 . S
C1631 H1655 0.949 . S
H1632 C1636 0.949 . S
C1633 C1634 1.349 . S
C1633 C1635 1.327 . S
C1633 H1656 0.950 . S
C1634 C1633 1.349 . S
C1634 C1646 1.349 . S
C1635 C1633 1.327 . S
C1635 C1651 1.429 . S
C1635 H1657 0.950 . S
C1636 H1632 0.949 . S
C1636 C1644 1.574 . S
C1636 C1652 1.368 . S
H1637 C1645 0.950 . S
H1638 C1643 0.950 . S
H1639 C1644 0.949 . S
H1640 C1646 0.950 . S
H1641 C1647 0.950 . S
H1642 C1648 0.949 . S
C1643 H1638 0.950 . S
C1643 C1645 1.327 . S
C1643 C1649 1.429 . S
C1644 C1636 1.574 . S
C1644 H1639 0.949 . S
C1644 C1650 1.368 . S
C1645 C1629 1.349 . S
C1645 H1637 0.950 . S
C1645 C1643 1.327 . S
C1646 C1634 1.349 . S
C1646 H1640 0.950 . S
C1646 C1647 1.327 . S
C1647 H1641 0.950 . S
C1647 C1646 1.327 . S
C1647 C1651 1.429 . S
C1648 C1631 1.574 . S
C1648 H1642 0.949 . S
C1648 C1652 1.368 . S
C1649 C1630 1.429 . S
C1649 C1643 1.429 . S
C1649 C1650 1.523 . S
C1650 C1631 1.368 . S
C1650 C1644 1.368 . S
C1650 C1649 1.523 . S
C1651 C1635 1.429 . S
C1651 C1647 1.429 . S
C1651 C1652 1.523 . S
C1652 C1636 1.368 . S
C1652 C1648 1.368 . S
C1652 C1651 1.523 . S
H1653 C1628 0.950 . S
H1654 C1630 0.950 . S
H1655 C1631 0.949 . S
H1656 C1633 0.950 . S
H1657 C1635 0.950 . S
C1658 C1659 1.349 . S
C1658 C1660 1.327 . S
C1658 H1683 0.950 . S
C1659 C1658 1.349 . S
C1659 C1675 1.349 . S
C1660 C1658 1.327 . S
C1660 C1679 1.429 . S
C1660 H1684 0.950 . S
C1661 C1678 1.574 . S
C1661 C1680 1.368 . S
C1661 H1685 0.949 . S
H1662 C1666 0.949 . S
C1663 C1664 1.349 . S
C1663 C1665 1.327 . S
C1663 H1686 0.950 . S
C1664 C1663 1.349 . S
C1664 C1676 1.349 . S
C1665 C1663 1.327 . S
C1665 C1681 1.429 . S
C1665 H1687 0.950 . S
C1666 H1662 0.949 . S
C1666 C1674 1.574 . S
C1666 C1682 1.368 . S
H1667 C1675 0.950 . S
H1668 C1673 0.950 . S
H1669 C1674 0.949 . S
H1670 C1676 0.950 . S
H1671 C1677 0.950 . S
H1672 C1678 0.949 . S
C1673 H1668 0.950 . S
C1673 C1675 1.327 . S
C1673 C1679 1.429 . S
C1674 C1666 1.574 . S
C1674 H1669 0.949 . S
C1674 C1680 1.368 . S
C1675 C1659 1.349 . S
C1675 H1667 0.950 . S
C1675 C1673 1.327 . S
C1676 C1664 1.349 . S
C1676 H1670 0.950 . S
C1676 C1677 1.327 . S
C1677 H1671 0.950 . S
C1677 C1676 1.327 . S
C1677 C1681 1.429 . S
C1678 C1661 1.574 . S
C1678 H1672 0.949 . S
C1678 C1682 1.368 . S
C1679 C1660 1.429 . S
C1679 C1673 1.429 . S
C1679 C1680 1.523 . S
C1680 C1661 1.368 . S
C1680 C1674 1.368 . S
C1680 C1679 1.523 . S
C1681 C1665 1.429 . S
C1681 C1677 1.429 . S
C1681 C1682 1.523 . S
C1682 C1666 1.368 . S
C1682 C1678 1.368 . S
C1682 C1681 1.523 . S
H1683 C1658 0.950 . S
H1684 C1660 0.950 . S
H1685 C1661 0.949 . S
H1686 C1663 0.950 . S
H1687 C1665 0.950 . S
C1688 C1689 1.349 . S
C1688 C1690 1.327 . S
C1688 H1713 0.950 . S
C1689 C1688 1.349 . S
C1689 C1705 1.349 . S
C1690 C1688 1.327 . S
C1690 C1709 1.429 . S
C1690 H1714 0.950 . S
C1691 C1708 1.574 . S
C1691 C1710 1.368 . S
C1691 H1715 0.949 . S
H1692 C1696 0.949 . S
C1693 C1694 1.349 . S
C1693 C1695 1.327 . S
C1693 H1716 0.950 . S
C1694 C1693 1.349 . S
C1694 C1706 1.349 . S
C1695 C1693 1.327 . S
C1695 C1711 1.429 . S
C1695 H1717 0.950 . S
C1696 H1692 0.949 . S
C1696 C1704 1.574 . S
C1696 C1712 1.368 . S
H1697 C1705 0.950 . S
H1698 C1703 0.950 . S
H1699 C1704 0.949 . S
H1700 C1706 0.950 . S
H1701 C1707 0.950 . S
H1702 C1708 0.949 . S
C1703 H1698 0.950 . S
C1703 C1705 1.327 . S
C1703 C1709 1.429 . S
C1704 C1696 1.574 . S
C1704 H1699 0.949 . S
C1704 C1710 1.368 . S
C1705 C1689 1.349 . S
C1705 H1697 0.950 . S
C1705 C1703 1.327 . S
C1706 C1694 1.349 . S
C1706 H1700 0.950 . S
C1706 C1707 1.327 . S
C1707 H1701 0.950 . S
C1707 C1706 1.327 . S
C1707 C1711 1.429 . S
C1708 C1691 1.574 . S
C1708 H1702 0.949 . S
C1708 C1712 1.368 . S
C1709 C1690 1.429 . S
C1709 C1703 1.429 . S
C1709 C1710 1.523 . S
C1710 C1691 1.368 . S
C1710 C1704 1.368 . S
C1710 C1709 1.523 . S
C1711 C1695 1.429 . S
C1711 C1707 1.429 . S
C1711 C1712 1.523 . S
C1712 C1696 1.368 . S
C1712 C1708 1.368 . S
C1712 C1711 1.523 . S
H1713 C1688 0.950 . S
H1714 C1690 0.950 . S
H1715 C1691 0.949 . S
H1716 C1693 0.950 . S
H1717 C1695 0.950 . S
C1718 C1719 1.349 . S
C1718 C1720 1.327 . S
C1718 H1743 0.950 . S
C1719 C1718 1.349 . S
C1719 C1735 1.349 . S
C1720 C1718 1.327 . S
C1720 C1739 1.429 . S
C1720 H1744 0.950 . S
C1721 C1738 1.574 . S
C1721 C1740 1.368 . S
C1721 H1745 0.949 . S
H1722 C1726 0.949 . S
C1723 C1724 1.349 . S
C1723 C1725 1.327 . S
C1723 H1746 0.950 . S
C1724 C1723 1.349 . S
C1724 C1736 1.349 . S
C1725 C1723 1.327 . S
C1725 C1741 1.429 . S
C1725 H1747 0.950 . S
C1726 H1722 0.949 . S
C1726 C1734 1.574 . S
C1726 C1742 1.368 . S
H1727 C1735 0.950 . S
H1728 C1733 0.950 . S
H1729 C1734 0.949 . S
H1730 C1736 0.950 . S
H1731 C1737 0.950 . S
H1732 C1738 0.949 . S
C1733 H1728 0.950 . S
C1733 C1735 1.327 . S
C1733 C1739 1.429 . S
C1734 C1726 1.574 . S
C1734 H1729 0.949 . S
C1734 C1740 1.368 . S
C1735 C1719 1.349 . S
C1735 H1727 0.950 . S
C1735 C1733 1.327 . S
C1736 C1724 1.349 . S
C1736 H1730 0.950 . S
C1736 C1737 1.327 . S
C1737 H1731 0.950 . S
C1737 C1736 1.327 . S
C1737 C1741 1.429 . S
C1738 C1721 1.574 . S
C1738 H1732 0.949 . S
C1738 C1742 1.368 . S
C1739 C1720 1.429 . S
C1739 C1733 1.429 . S
C1739 C1740 1.523 . S
C1740 C1721 1.368 . S
C1740 C1734 1.368 . S
C1740 C1739 1.523 . S
C1741 C1725 1.429 . S
C1741 C1737 1.429 . S
C1741 C1742 1.523 . S
C1742 C1726 1.368 . S
C1742 C1738 1.368 . S
C1742 C1741 1.523 . S
H1743 C1718 0.950 . S
H1744 C1720 0.950 . S
H1745 C1721 0.949 . S
H1746 C1723 0.950 . S
H1747 C1725 0.950 . S
C1748 C1749 1.349 . S
C1748 C1750 1.327 . S
C1748 H1773 0.950 . S
C1749 C1748 1.349 . S
C1749 C1765 1.349 . S
C1750 C1748 1.327 . S
C1750 C1769 1.429 . S
C1750 H1774 0.950 . S
C1751 C1768 1.574 . S
C1751 C1770 1.368 . S
C1751 H1775 0.949 . S
H1752 C1756 0.949 . S
C1753 C1754 1.349 . S
C1753 C1755 1.327 . S
C1753 H1776 0.950 . S
C1754 C1753 1.349 . S
C1754 C1766 1.349 . S
C1755 C1753 1.327 . S
C1755 C1771 1.429 . S
C1755 H1777 0.950 . S
C1756 H1752 0.949 . S
C1756 C1764 1.574 . S
C1756 C1772 1.368 . S
H1757 C1765 0.950 . S
H1758 C1763 0.950 . S
H1759 C1764 0.949 . S
H1760 C1766 0.950 . S
H1761 C1767 0.950 . S
H1762 C1768 0.949 . S
C1763 H1758 0.950 . S
C1763 C1765 1.327 . S
C1763 C1769 1.429 . S
C1764 C1756 1.574 . S
C1764 H1759 0.949 . S
C1764 C1770 1.368 . S
C1765 C1749 1.349 . S
C1765 H1757 0.950 . S
C1765 C1763 1.327 . S
C1766 C1754 1.349 . S
C1766 H1760 0.950 . S
C1766 C1767 1.327 . S
C1767 H1761 0.950 . S
C1767 C1766 1.327 . S
C1767 C1771 1.429 . S
C1768 C1751 1.574 . S
C1768 H1762 0.949 . S
C1768 C1772 1.368 . S
C1769 C1750 1.429 . S
C1769 C1763 1.429 . S
C1769 C1770 1.523 . S
C1770 C1751 1.368 . S
C1770 C1764 1.368 . S
C1770 C1769 1.523 . S
C1771 C1755 1.429 . S
C1771 C1767 1.429 . S
C1771 C1772 1.523 . S
C1772 C1756 1.368 . S
C1772 C1768 1.368 . S
C1772 C1771 1.523 . S
H1773 C1748 0.950 . S
H1774 C1750 0.950 . S
H1775 C1751 0.949 . S
H1776 C1753 0.950 . S
H1777 C1755 0.950 . S
C1778 C1779 1.349 . S
C1778 C1780 1.327 . S
C1778 H1803 0.950 . S
C1779 C1778 1.349 . S
C1779 C1795 1.349 . S
C1780 C1778 1.327 . S
C1780 C1799 1.429 . S
C1780 H1804 0.950 . S
C1781 C1798 1.574 . S
C1781 C1800 1.368 . S
C1781 H1805 0.949 . S
H1782 C1786 0.949 . S
C1783 C1784 1.349 . S
C1783 C1785 1.327 . S
C1783 H1806 0.950 . S
C1784 C1783 1.349 . S
C1784 C1796 1.349 . S
C1785 C1783 1.327 . S
C1785 C1801 1.429 . S
C1785 H1807 0.950 . S
C1786 H1782 0.949 . S
C1786 C1794 1.574 . S
C1786 C1802 1.368 . S
H1787 C1795 0.950 . S
H1788 C1793 0.950 . S
H1789 C1794 0.949 . S
H1790 C1796 0.950 . S
H1791 C1797 0.950 . S
H1792 C1798 0.949 . S
C1793 H1788 0.950 . S
C1793 C1795 1.327 . S
C1793 C1799 1.429 . S
C1794 C1786 1.574 . S
C1794 H1789 0.949 . S
C1794 C1800 1.368 . S
C1795 C1779 1.349 . S
C1795 H1787 0.950 . S
C1795 C1793 1.327 . S
C1796 C1784 1.349 . S
C1796 H1790 0.950 . S
C1796 C1797 1.327 . S
C1797 H1791 0.950 . S
C1797 C1796 1.327 . S
C1797 C1801 1.429 . S
C1798 C1781 1.574 . S
C1798 H1792 0.949 . S
C1798 C1802 1.368 . S
C1799 C1780 1.429 . S
C1799 C1793 1.429 . S
C1799 C1800 1.523 1_455 S
C1800 C1781 1.368 . S
C1800 C1794 1.368 . S
C1800 C1799 1.523 1_655 S
C1801 C1785 1.429 . S
C1801 C1797 1.429 . S
C1801 C1802 1.523 . S
C1802 C1786 1.368 . S
C1802 C1798 1.368 . S
C1802 C1801 1.523 . S
H1803 C1778 0.950 . S
H1804 C1780 0.950 . S
H1805 C1781 0.949 . S
H1806 C1783 0.950 . S
H1807 C1785 0.950 . S
C1808 C1809 1.349 . S
C1808 C1810 1.327 . S
C1808 H1833 0.950 . S
C1809 C1808 1.349 . S
C1809 C1825 1.349 . S
C1810 C1808 1.327 . S
C1810 C1829 1.429 . S
C1810 H1834 0.950 . S
C1811 C1828 1.574 . S
C1811 C1830 1.368 . S
C1811 H1835 0.949 . S
H1812 C1816 0.949 . S
C1813 C1814 1.349 . S
C1813 C1815 1.327 . S
C1813 H1836 0.950 . S
C1814 C1813 1.349 . S
C1814 C1826 1.349 . S
C1815 C1813 1.327 . S
C1815 C1831 1.429 . S
C1815 H1837 0.950 . S
C1816 H1812 0.949 . S
C1816 C1824 1.574 . S
C1816 C1832 1.368 . S
H1817 C1825 0.950 . S
H1818 C1823 0.950 . S
H1819 C1824 0.949 . S
H1820 C1826 0.950 . S
H1821 C1827 0.950 . S
H1822 C1828 0.949 . S
C1823 H1818 0.950 . S
C1823 C1825 1.327 . S
C1823 C1829 1.429 . S
C1824 C1816 1.574 . S
C1824 H1819 0.949 . S
C1824 C1830 1.368 . S
C1825 C1809 1.349 . S
C1825 H1817 0.950 . S
C1825 C1823 1.327 . S
C1826 C1814 1.349 . S
C1826 H1820 0.950 . S
C1826 C1827 1.327 . S
C1827 H1821 0.950 . S
C1827 C1826 1.327 . S
C1827 C1831 1.429 . S
C1828 C1811 1.574 . S
C1828 H1822 0.949 . S
C1828 C1832 1.368 . S
C1829 C1810 1.429 . S
C1829 C1823 1.429 . S
C1829 C1830 1.523 . S
C1830 C1811 1.368 . S
C1830 C1824 1.368 . S
C1830 C1829 1.523 . S
C1831 C1815 1.429 . S
C1831 C1827 1.429 . S
C1831 C1832 1.523 . S
C1832 C1816 1.368 . S
C1832 C1828 1.368 . S
C1832 C1831 1.523 . S
H1833 C1808 0.950 . S
H1834 C1810 0.950 . S
H1835 C1811 0.949 . S
H1836 C1813 0.950 . S
H1837 C1815 0.950 . S
C1838 C1839 1.349 . S
C1838 C1840 1.327 . S
C1838 H1863 0.950 . S
C1839 C1838 1.349 . S
C1839 C1855 1.349 . S
C1840 C1838 1.327 . S
C1840 C1859 1.429 . S
C1840 H1864 0.950 . S
C1841 C1858 1.574 . S
C1841 C1860 1.368 . S
C1841 H1865 0.949 . S
H1842 C1846 0.949 . S
C1843 C1844 1.349 . S
C1843 C1845 1.327 . S
C1843 H1866 0.950 . S
C1844 C1843 1.349 . S
C1844 C1856 1.349 . S
C1845 C1843 1.327 . S
C1845 C1861 1.429 . S
C1845 H1867 0.950 . S
C1846 H1842 0.949 . S
C1846 C1854 1.574 . S
C1846 C1862 1.368 . S
H1847 C1855 0.950 . S
H1848 C1853 0.950 . S
H1849 C1854 0.949 . S
H1850 C1856 0.950 . S
H1851 C1857 0.950 . S
H1852 C1858 0.949 . S
C1853 H1848 0.950 . S
C1853 C1855 1.327 . S
C1853 C1859 1.429 . S
C1854 C1846 1.574 . S
C1854 H1849 0.949 . S
C1854 C1860 1.368 . S
C1855 C1839 1.349 . S
C1855 H1847 0.950 . S
C1855 C1853 1.327 . S
C1856 C1844 1.349 . S
C1856 H1850 0.950 . S
C1856 C1857 1.327 . S
C1857 H1851 0.950 . S
C1857 C1856 1.327 . S
C1857 C1861 1.429 . S
C1858 C1841 1.574 . S
C1858 H1852 0.949 . S
C1858 C1862 1.368 . S
C1859 C1840 1.429 . S
C1859 C1853 1.429 . S
C1859 C1860 1.523 1_655 S
C1860 C1841 1.368 . S
C1860 C1854 1.368 . S
C1860 C1859 1.523 1_455 S
C1861 C1845 1.429 . S
C1861 C1857 1.429 . S
C1861 C1862 1.523 . S
C1862 C1846 1.368 . S
C1862 C1858 1.368 . S
C1862 C1861 1.523 . S
H1863 C1838 0.950 . S
H1864 C1840 0.950 . S
H1865 C1841 0.949 . S
H1866 C1843 0.950 . S
H1867 C1845 0.950 . S
C1868 C1869 1.349 . S
C1868 C1870 1.327 . S
C1868 H1893 0.950 . S
C1869 C1868 1.349 . S
C1869 C1885 1.349 . S
C1870 C1868 1.327 . S
C1870 C1889 1.429 . S
C1870 H1894 0.950 . S
C1871 C1888 1.574 . S
C1871 C1890 1.368 . S
C1871 H1895 0.949 . S
H1872 C1876 0.949 . S
C1873 C1874 1.349 . S
C1873 C1875 1.327 . S
C1873 H1896 0.950 . S
C1874 C1873 1.349 . S
C1874 C1886 1.349 . S
C1875 C1873 1.327 . S
C1875 C1891 1.429 . S
C1875 H1897 0.950 . S
C1876 H1872 0.949 . S
C1876 C1884 1.574 . S
C1876 C1892 1.368 . S
H1877 C1885 0.950 . S
H1878 C1883 0.950 . S
H1879 C1884 0.949 . S
H1880 C1886 0.950 . S
H1881 C1887 0.950 . S
H1882 C1888 0.949 . S
C1883 H1878 0.950 . S
C1883 C1885 1.327 . S
C1883 C1889 1.429 . S
C1884 C1876 1.574 . S
C1884 H1879 0.949 . S
C1884 C1890 1.368 . S
C1885 C1869 1.349 . S
C1885 H1877 0.950 . S
C1885 C1883 1.327 . S
C1886 C1874 1.349 . S
C1886 H1880 0.950 . S
C1886 C1887 1.327 . S
C1887 H1881 0.950 . S
C1887 C1886 1.327 . S
C1887 C1891 1.429 . S
C1888 C1871 1.574 . S
C1888 H1882 0.949 . S
C1888 C1892 1.368 . S
C1889 C1870 1.429 . S
C1889 C1883 1.429 . S
C1889 C1890 1.523 . S
C1890 C1871 1.368 . S
C1890 C1884 1.368 . S
C1890 C1889 1.523 . S
C1891 C1875 1.429 . S
C1891 C1887 1.429 . S
C1891 C1892 1.523 . S
C1892 C1876 1.368 . S
C1892 C1888 1.368 . S
C1892 C1891 1.523 . S
H1893 C1868 0.950 . S
H1894 C1870 0.950 . S
H1895 C1871 0.949 . S
H1896 C1873 0.950 . S
H1897 C1875 0.950 . S
C1898 C1899 1.349 . S
C1898 C1900 1.327 . S
C1898 H1923 0.950 . S
C1899 C1898 1.349 . S
C1899 C1915 1.349 . S
C1900 C1898 1.327 . S
C1900 C1919 1.429 . S
C1900 H1924 0.950 . S
C1901 C1918 1.574 . S
C1901 C1920 1.368 . S
C1901 H1925 0.949 . S
H1902 C1906 0.949 . S
C1903 C1904 1.349 . S
C1903 C1905 1.327 . S
C1903 H1926 0.950 . S
C1904 C1903 1.349 . S
C1904 C1916 1.349 . S
C1905 C1903 1.327 . S
C1905 C1921 1.429 . S
C1905 H1927 0.950 . S
C1906 H1902 0.949 . S
C1906 C1914 1.574 . S
C1906 C1922 1.368 . S
H1907 C1915 0.950 . S
H1908 C1913 0.950 . S
H1909 C1914 0.949 . S
H1910 C1916 0.950 . S
H1911 C1917 0.950 . S
H1912 C1918 0.949 . S
C1913 H1908 0.950 . S
C1913 C1915 1.327 . S
C1913 C1919 1.429 . S
C1914 C1906 1.574 . S
C1914 H1909 0.949 . S
C1914 C1920 1.368 . S
C1915 C1899 1.349 . S
C1915 H1907 0.950 . S
C1915 C1913 1.327 . S
C1916 C1904 1.349 . S
C1916 H1910 0.950 . S
C1916 C1917 1.327 . S
C1917 H1911 0.950 . S
C1917 C1916 1.327 . S
C1917 C1921 1.429 . S
C1918 C1901 1.574 . S
C1918 H1912 0.949 . S
C1918 C1922 1.368 . S
C1919 C1900 1.429 . S
C1919 C1913 1.429 . S
C1919 C1920 1.523 . S
C1920 C1901 1.368 . S
C1920 C1914 1.368 . S
C1920 C1919 1.523 . S
C1921 C1905 1.429 . S
C1921 C1917 1.429 . S
C1921 C1922 1.523 . S
C1922 C1906 1.368 . S
C1922 C1918 1.368 . S
C1922 C1921 1.523 . S
H1923 C1898 0.950 . S
H1924 C1900 0.950 . S
H1925 C1901 0.949 . S
H1926 C1903 0.950 . S
H1927 C1905 0.950 . S
C1928 C1929 1.349 . S
C1928 C1930 1.327 . S
C1928 H1953 0.950 . S
C1929 C1928 1.349 . S
C1929 C1945 1.349 . S
C1930 C1928 1.327 . S
C1930 C1949 1.429 . S
C1930 H1954 0.950 . S
C1931 C1948 1.574 . S
C1931 C1950 1.368 . S
C1931 H1955 0.949 . S
H1932 C1936 0.949 . S
C1933 C1934 1.349 . S
C1933 C1935 1.327 . S
C1933 H1956 0.950 . S
C1934 C1933 1.349 . S
C1934 C1946 1.349 . S
C1935 C1933 1.327 . S
C1935 C1951 1.429 . S
C1935 H1957 0.950 . S
C1936 H1932 0.949 . S
C1936 C1944 1.574 . S
C1936 C1952 1.368 . S
H1937 C1945 0.950 . S
H1938 C1943 0.950 . S
H1939 C1944 0.949 . S
H1940 C1946 0.950 . S
H1941 C1947 0.950 . S
H1942 C1948 0.949 . S
C1943 H1938 0.950 . S
C1943 C1945 1.327 . S
C1943 C1949 1.429 . S
C1944 C1936 1.574 . S
C1944 H1939 0.949 . S
C1944 C1950 1.368 . S
C1945 C1929 1.349 . S
C1945 H1937 0.950 . S
C1945 C1943 1.327 . S
C1946 C1934 1.349 . S
C1946 H1940 0.950 . S
C1946 C1947 1.327 . S
C1947 H1941 0.950 . S
C1947 C1946 1.327 . S
C1947 C1951 1.429 . S
C1948 C1931 1.574 . S
C1948 H1942 0.949 . S
C1948 C1952 1.368 . S
C1949 C1930 1.429 . S
C1949 C1943 1.429 . S
C1949 C1950 1.523 . S
C1950 C1931 1.368 . S
C1950 C1944 1.368 . S
C1950 C1949 1.523 . S
C1951 C1935 1.429 . S
C1951 C1947 1.429 . S
C1951 C1952 1.523 . S
C1952 C1936 1.368 . S
C1952 C1948 1.368 . S
C1952 C1951 1.523 . S
H1953 C1928 0.950 . S
H1954 C1930 0.950 . S
H1955 C1931 0.949 . S
H1956 C1933 0.950 . S
H1957 C1935 0.950 . S
C1958 C1959 1.349 . S
C1958 C1960 1.327 . S
C1958 H1983 0.950 . S
C1959 C1958 1.349 . S
C1959 C1975 1.349 . S
C1960 C1958 1.327 . S
C1960 C1979 1.429 . S
C1960 H1984 0.950 . S
C1961 C1978 1.574 . S
C1961 C1980 1.368 . S
C1961 H1985 0.949 . S
H1962 C1966 0.949 . S
C1963 C1964 1.349 . S
C1963 C1965 1.327 . S
C1963 H1986 0.950 . S
C1964 C1963 1.349 . S
C1964 C1976 1.349 . S
C1965 C1963 1.327 . S
C1965 C1981 1.429 . S
C1965 H1987 0.950 . S
C1966 H1962 0.949 . S
C1966 C1974 1.574 . S
C1966 C1982 1.368 . S
H1967 C1975 0.950 . S
H1968 C1973 0.950 . S
H1969 C1974 0.949 . S
H1970 C1976 0.950 . S
H1971 C1977 0.950 . S
H1972 C1978 0.949 . S
C1973 H1968 0.950 . S
C1973 C1975 1.327 . S
C1973 C1979 1.429 . S
C1974 C1966 1.574 . S
C1974 H1969 0.949 . S
C1974 C1980 1.368 . S
C1975 C1959 1.349 . S
C1975 H1967 0.950 . S
C1975 C1973 1.327 . S
C1976 C1964 1.349 . S
C1976 H1970 0.950 . S
C1976 C1977 1.327 . S
C1977 H1971 0.950 . S
C1977 C1976 1.327 . S
C1977 C1981 1.429 . S
C1978 C1961 1.574 . S
C1978 H1972 0.949 . S
C1978 C1982 1.368 . S
C1979 C1960 1.429 . S
C1979 C1973 1.429 . S
C1979 C1980 1.523 . S
C1980 C1961 1.368 . S
C1980 C1974 1.368 . S
C1980 C1979 1.523 . S
C1981 C1965 1.429 . S
C1981 C1977 1.429 . S
C1981 C1982 1.523 . S
C1982 C1966 1.368 . S
C1982 C1978 1.368 . S
C1982 C1981 1.523 . S
H1983 C1958 0.950 . S
H1984 C1960 0.950 . S
H1985 C1961 0.949 . S
H1986 C1963 0.950 . S
H1987 C1965 0.950 . S
C1988 C1989 1.349 . S
C1988 C1990 1.327 . S
C1988 H2013 0.950 . S
C1989 C1988 1.349 . S
C1989 C2005 1.349 . S
C1990 C1988 1.327 . S
C1990 C2009 1.429 . S
C1990 H2014 0.950 . S
C1991 C2008 1.574 . S
C1991 C2010 1.368 . S
C1991 H2015 0.949 . S
H1992 C1996 0.949 . S
C1993 C1994 1.349 . S
C1993 C1995 1.327 . S
C1993 H2016 0.950 . S
C1994 C1993 1.349 . S
C1994 C2006 1.349 . S
C1995 C1993 1.327 . S
C1995 C2011 1.429 . S
C1995 H2017 0.950 . S
C1996 H1992 0.949 . S
C1996 C2004 1.574 . S
C1996 C2012 1.368 . S
H1997 C2005 0.950 . S
H1998 C2003 0.950 . S
H1999 C2004 0.949 . S
H2000 C2006 0.950 . S
H2001 C2007 0.950 . S
H2002 C2008 0.949 . S
C2003 H1998 0.950 . S
C2003 C2005 1.327 . S
C2003 C2009 1.429 . S
C2004 C1996 1.574 . S
C2004 H1999 0.949 . S
C2004 C2010 1.368 . S
C2005 C1989 1.349 . S
C2005 H1997 0.950 . S
C2005 C2003 1.327 . S
C2006 C1994 1.349 . S
C2006 H2000 0.950 . S
C2006 C2007 1.327 . S
C2007 H2001 0.950 . S
C2007 C2006 1.327 . S
C2007 C2011 1.429 . S
C2008 C1991 1.574 . S
C2008 H2002 0.949 . S
C2008 C2012 1.368 . S
C2009 C1990 1.429 . S
C2009 C2003 1.429 . S
C2009 C2010 1.523 . S
C2010 C1991 1.368 . S
C2010 C2004 1.368 . S
C2010 C2009 1.523 . S
C2011 C1995 1.429 . S
C2011 C2007 1.429 . S
C2011 C2012 1.523 . S
C2012 C1996 1.368 . S
C2012 C2008 1.368 . S
C2012 C2011 1.523 . S
H2013 C1988 0.950 . S
H2014 C1990 0.950 . S
H2015 C1991 0.949 . S
H2016 C1993 0.950 . S
H2017 C1995 0.950 . S
C2018 C2019 1.349 . S
C2018 C2020 1.327 . S
C2018 H2043 0.950 . S
C2019 C2018 1.349 . S
C2019 C2035 1.349 . S
C2020 C2018 1.327 . S
C2020 C2039 1.429 . S
C2020 H2044 0.950 . S
C2021 C2038 1.574 . S
C2021 C2040 1.368 . S
C2021 H2045 0.949 . S
H2022 C2026 0.949 . S
C2023 C2024 1.349 . S
C2023 C2025 1.327 . S
C2023 H2046 0.950 . S
C2024 C2023 1.349 . S
C2024 C2036 1.349 . S
C2025 C2023 1.327 . S
C2025 C2041 1.429 . S
C2025 H2047 0.950 . S
C2026 H2022 0.949 . S
C2026 C2034 1.574 . S
C2026 C2042 1.368 . S
H2027 C2035 0.950 . S
H2028 C2033 0.950 . S
H2029 C2034 0.949 . S
H2030 C2036 0.950 . S
H2031 C2037 0.950 . S
H2032 C2038 0.949 . S
C2033 H2028 0.950 . S
C2033 C2035 1.327 . S
C2033 C2039 1.429 . S
C2034 C2026 1.574 . S
C2034 H2029 0.949 . S
C2034 C2040 1.368 . S
C2035 C2019 1.349 . S
C2035 H2027 0.950 . S
C2035 C2033 1.327 . S
C2036 C2024 1.349 . S
C2036 H2030 0.950 . S
C2036 C2037 1.327 . S
C2037 H2031 0.950 . S
C2037 C2036 1.327 . S
C2037 C2041 1.429 . S
C2038 C2021 1.574 . S
C2038 H2032 0.949 . S
C2038 C2042 1.368 . S
C2039 C2020 1.429 . S
C2039 C2033 1.429 . S
C2039 C2040 1.523 1_655 S
C2040 C2021 1.368 . S
C2040 C2034 1.368 . S
C2040 C2039 1.523 1_455 S
C2041 C2025 1.429 . S
C2041 C2037 1.429 . S
C2041 C2042 1.523 . S
C2042 C2026 1.368 . S
C2042 C2038 1.368 . S
C2042 C2041 1.523 . S
H2043 C2018 0.950 . S
H2044 C2020 0.950 . S
H2045 C2021 0.949 . S
H2046 C2023 0.950 . S
H2047 C2025 0.950 . S
C2048 C2049 1.349 . S
C2048 C2050 1.327 . S
C2048 H2073 0.950 . S
C2049 C2048 1.349 . S
C2049 C2065 1.349 . S
C2050 C2048 1.327 . S
C2050 C2069 1.429 . S
C2050 H2074 0.950 . S
C2051 C2068 1.574 . S
C2051 C2070 1.368 . S
C2051 H2075 0.949 . S
H2052 C2056 0.949 . S
C2053 C2054 1.349 . S
C2053 C2055 1.327 . S
C2053 H2076 0.950 . S
C2054 C2053 1.349 . S
C2054 C2066 1.349 . S
C2055 C2053 1.327 . S
C2055 C2071 1.429 . S
C2055 H2077 0.950 . S
C2056 H2052 0.949 . S
C2056 C2064 1.574 . S
C2056 C2072 1.368 . S
H2057 C2065 0.950 . S
H2058 C2063 0.950 . S
H2059 C2064 0.949 . S
H2060 C2066 0.950 . S
H2061 C2067 0.950 . S
H2062 C2068 0.949 . S
C2063 H2058 0.950 . S
C2063 C2065 1.327 . S
C2063 C2069 1.429 . S
C2064 C2056 1.574 . S
C2064 H2059 0.949 . S
C2064 C2070 1.368 . S
C2065 C2049 1.349 . S
C2065 H2057 0.950 . S
C2065 C2063 1.327 . S
C2066 C2054 1.349 . S
C2066 H2060 0.950 . S
C2066 C2067 1.327 . S
C2067 H2061 0.950 . S
C2067 C2066 1.327 . S
C2067 C2071 1.429 . S
C2068 C2051 1.574 . S
C2068 H2062 0.949 . S
C2068 C2072 1.368 . S
C2069 C2050 1.429 . S
C2069 C2063 1.429 . S
C2069 C2070 1.523 . S
C2070 C2051 1.368 . S
C2070 C2064 1.368 . S
C2070 C2069 1.523 . S
C2071 C2055 1.429 . S
C2071 C2067 1.429 . S
C2071 C2072 1.523 . S
C2072 C2056 1.368 . S
C2072 C2068 1.368 . S
C2072 C2071 1.523 . S
H2073 C2048 0.950 . S
H2074 C2050 0.950 . S
H2075 C2051 0.949 . S
H2076 C2053 0.950 . S
H2077 C2055 0.950 . S
C2078 C2079 1.349 . S
C2078 C2080 1.327 . S
C2078 H2103 0.950 . S
C2079 C2078 1.349 . S
C2079 C2095 1.349 . S
C2080 C2078 1.327 . S
C2080 C2099 1.429 . S
C2080 H2104 0.950 . S
C2081 C2098 1.574 1_455 S
C2081 C2100 1.368 . S
C2081 H2105 0.949 . S
H2082 C2086 0.949 . S
C2083 C2084 1.349 . S
C2083 C2085 1.327 . S
C2083 H2106 0.950 . S
C2084 C2083 1.349 . S
C2084 C2096 1.349 . S
C2085 C2083 1.327 . S
C2085 C2101 1.429 . S
C2085 H2107 0.950 . S
C2086 H2082 0.949 . S
C2086 C2094 1.574 1_655 S
C2086 C2102 1.368 . S
H2087 C2095 0.950 . S
H2088 C2093 0.950 . S
H2089 C2094 0.949 . S
H2090 C2096 0.950 . S
H2091 C2097 0.950 . S
H2092 C2098 0.949 . S
C2093 H2088 0.950 . S
C2093 C2095 1.327 . S
C2093 C2099 1.429 . S
C2094 C2086 1.574 1_455 S
C2094 H2089 0.949 . S
C2094 C2100 1.368 . S
C2095 C2079 1.349 . S
C2095 H2087 0.950 . S
C2095 C2093 1.327 . S
C2096 C2084 1.349 . S
C2096 H2090 0.950 . S
C2096 C2097 1.327 . S
C2097 H2091 0.950 . S
C2097 C2096 1.327 . S
C2097 C2101 1.429 . S
C2098 C2081 1.574 1_655 S
C2098 H2092 0.949 . S
C2098 C2102 1.368 . S
C2099 C2080 1.429 . S
C2099 C2093 1.429 . S
C2099 C2100 1.523 . S
C2100 C2081 1.368 . S
C2100 C2094 1.368 . S
C2100 C2099 1.523 . S
C2101 C2085 1.429 . S
C2101 C2097 1.429 . S
C2101 C2102 1.523 . S
C2102 C2086 1.368 . S
C2102 C2098 1.368 . S
C2102 C2101 1.523 . S
H2103 C2078 0.950 . S
H2104 C2080 0.950 . S
H2105 C2081 0.949 . S
H2106 C2083 0.950 . S
H2107 C2085 0.950 . S
C2108 C2109 1.349 . S
C2108 C2110 1.327 . S
C2108 H2133 0.950 . S
C2109 C2108 1.349 . S
C2109 C2125 1.349 . S
C2110 C2108 1.327 . S
C2110 C2129 1.429 . S
C2110 H2134 0.950 . S
C2111 C2128 1.574 . S
C2111 C2130 1.368 1_455 S
C2111 H2135 0.949 . S
H2112 C2116 0.949 . S
C2113 C2114 1.349 . S
C2113 C2115 1.327 . S
C2113 H2136 0.950 . S
C2114 C2113 1.349 . S
C2114 C2126 1.349 . S
C2115 C2113 1.327 . S
C2115 C2131 1.429 . S
C2115 H2137 0.950 . S
C2116 H2112 0.949 . S
C2116 C2124 1.574 . S
C2116 C2132 1.368 1_655 S
H2117 C2125 0.950 . S
H2118 C2123 0.950 . S
H2119 C2124 0.949 . S
H2120 C2126 0.950 . S
H2121 C2127 0.950 . S
H2122 C2128 0.949 . S
C2123 H2118 0.950 . S
C2123 C2125 1.327 . S
C2123 C2129 1.429 . S
C2124 C2116 1.574 . S
C2124 H2119 0.949 . S
C2124 C2130 1.368 . S
C2125 C2109 1.349 . S
C2125 H2117 0.950 . S
C2125 C2123 1.327 . S
C2126 C2114 1.349 . S
C2126 H2120 0.950 . S
C2126 C2127 1.327 . S
C2127 H2121 0.950 . S
C2127 C2126 1.327 . S
C2127 C2131 1.429 . S
C2128 C2111 1.574 . S
C2128 H2122 0.949 . S
C2128 C2132 1.368 . S
C2129 C2110 1.429 . S
C2129 C2123 1.429 . S
C2129 C2130 1.523 . S
C2130 C2111 1.368 1_655 S
C2130 C2124 1.368 . S
C2130 C2129 1.523 . S
C2131 C2115 1.429 . S
C2131 C2127 1.429 . S
C2131 C2132 1.523 . S
C2132 C2116 1.368 1_455 S
C2132 C2128 1.368 . S
C2132 C2131 1.523 . S
H2133 C2108 0.950 . S
H2134 C2110 0.950 . S
H2135 C2111 0.949 . S
H2136 C2113 0.950 . S
H2137 C2115 0.950 . S
C2138 C2139 1.349 . S
C2138 C2140 1.327 . S
C2138 H2163 0.950 . S
C2139 C2138 1.349 . S
C2139 C2155 1.349 . S
C2140 C2138 1.327 . S
C2140 C2159 1.429 . S
C2140 H2164 0.950 . S
C2141 C2158 1.574 . S
C2141 C2160 1.368 . S
C2141 H2165 0.949 . S
H2142 C2146 0.949 . S
C2143 C2144 1.349 . S
C2143 C2145 1.327 . S
C2143 H2166 0.950 . S
C2144 C2143 1.349 . S
C2144 C2156 1.349 . S
C2145 C2143 1.327 . S
C2145 C2161 1.429 . S
C2145 H2167 0.950 . S
C2146 H2142 0.949 . S
C2146 C2154 1.574 . S
C2146 C2162 1.368 . S
H2147 C2155 0.950 . S
H2148 C2153 0.950 . S
H2149 C2154 0.949 . S
H2150 C2156 0.950 . S
H2151 C2157 0.950 . S
H2152 C2158 0.949 . S
C2153 H2148 0.950 . S
C2153 C2155 1.327 . S
C2153 C2159 1.429 . S
C2154 C2146 1.574 . S
C2154 H2149 0.949 . S
C2154 C2160 1.368 . S
C2155 C2139 1.349 . S
C2155 H2147 0.950 . S
C2155 C2153 1.327 . S
C2156 C2144 1.349 . S
C2156 H2150 0.950 . S
C2156 C2157 1.327 . S
C2157 H2151 0.950 . S
C2157 C2156 1.327 . S
C2157 C2161 1.429 . S
C2158 C2141 1.574 . S
C2158 H2152 0.949 . S
C2158 C2162 1.368 . S
C2159 C2140 1.429 . S
C2159 C2153 1.429 . S
C2159 C2160 1.523 . S
C2160 C2141 1.368 . S
C2160 C2154 1.368 . S
C2160 C2159 1.523 . S
C2161 C2145 1.429 . S
C2161 C2157 1.429 . S
C2161 C2162 1.523 . S
C2162 C2146 1.368 . S
C2162 C2158 1.368 . S
C2162 C2161 1.523 . S
H2163 C2138 0.950 . S
H2164 C2140 0.950 . S
H2165 C2141 0.949 . S
H2166 C2143 0.950 . S
H2167 C2145 0.950 . S
C2168 C2169 1.349 . S
C2168 C2170 1.327 . S
C2168 H2193 0.950 . S
C2169 C2168 1.349 . S
C2169 C2185 1.349 . S
C2170 C2168 1.327 . S
C2170 C2189 1.429 . S
C2170 H2194 0.950 . S
C2171 C2188 1.574 . S
C2171 C2190 1.368 . S
C2171 H2195 0.949 . S
H2172 C2176 0.949 . S
C2173 C2174 1.349 . S
C2173 C2175 1.327 . S
C2173 H2196 0.950 . S
C2174 C2173 1.349 . S
C2174 C2186 1.349 . S
C2175 C2173 1.327 . S
C2175 C2191 1.429 . S
C2175 H2197 0.950 . S
C2176 H2172 0.949 . S
C2176 C2184 1.574 . S
C2176 C2192 1.368 . S
H2177 C2185 0.950 . S
H2178 C2183 0.950 . S
H2179 C2184 0.949 . S
H2180 C2186 0.950 . S
H2181 C2187 0.950 . S
H2182 C2188 0.949 . S
C2183 H2178 0.950 . S
C2183 C2185 1.327 . S
C2183 C2189 1.429 . S
C2184 C2176 1.574 . S
C2184 H2179 0.949 . S
C2184 C2190 1.368 . S
C2185 C2169 1.349 . S
C2185 H2177 0.950 . S
C2185 C2183 1.327 . S
C2186 C2174 1.349 . S
C2186 H2180 0.950 . S
C2186 C2187 1.327 . S
C2187 H2181 0.950 . S
C2187 C2186 1.327 . S
C2187 C2191 1.429 . S
C2188 C2171 1.574 . S
C2188 H2182 0.949 . S
C2188 C2192 1.368 . S
C2189 C2170 1.429 . S
C2189 C2183 1.429 . S
C2189 C2190 1.523 . S
C2190 C2171 1.368 . S
C2190 C2184 1.368 . S
C2190 C2189 1.523 . S
C2191 C2175 1.429 . S
C2191 C2187 1.429 . S
C2191 C2192 1.523 . S
C2192 C2176 1.368 . S
C2192 C2188 1.368 . S
C2192 C2191 1.523 . S
H2193 C2168 0.950 . S
H2194 C2170 0.950 . S
H2195 C2171 0.949 . S
H2196 C2173 0.950 . S
H2197 C2175 0.950 . S
C2198 C2199 1.349 . S
C2198 C2200 1.327 . S
C2198 H2223 0.950 . S
C2199 C2198 1.349 . S
C2199 C2215 1.349 . S
C2200 C2198 1.327 . S
C2200 C2219 1.429 . S
C2200 H2224 0.950 . S
C2201 C2218 1.574 . S
C2201 C2220 1.368 . S
C2201 H2225 0.949 . S
H2202 C2206 0.949 . S
C2203 C2204 1.349 . S
C2203 C2205 1.327 . S
C2203 H2226 0.950 . S
C2204 C2203 1.349 . S
C2204 C2216 1.349 . S
C2205 C2203 1.327 . S
C2205 C2221 1.429 . S
C2205 H2227 0.950 . S
C2206 H2202 0.949 . S
C2206 C2214 1.574 . S
C2206 C2222 1.368 . S
H2207 C2215 0.950 . S
H2208 C2213 0.950 . S
H2209 C2214 0.949 . S
H2210 C2216 0.950 . S
H2211 C2217 0.950 . S
H2212 C2218 0.949 . S
C2213 H2208 0.950 . S
C2213 C2215 1.327 . S
C2213 C2219 1.429 . S
C2214 C2206 1.574 . S
C2214 H2209 0.949 . S
C2214 C2220 1.368 . S
C2215 C2199 1.349 . S
C2215 H2207 0.950 . S
C2215 C2213 1.327 . S
C2216 C2204 1.349 . S
C2216 H2210 0.950 . S
C2216 C2217 1.327 . S
C2217 H2211 0.950 . S
C2217 C2216 1.327 . S
C2217 C2221 1.429 . S
C2218 C2201 1.574 . S
C2218 H2212 0.949 . S
C2218 C2222 1.368 . S
C2219 C2200 1.429 . S
C2219 C2213 1.429 . S
C2219 C2220 1.523 . S
C2220 C2201 1.368 . S
C2220 C2214 1.368 . S
C2220 C2219 1.523 . S
C2221 C2205 1.429 . S
C2221 C2217 1.429 . S
C2221 C2222 1.523 . S
C2222 C2206 1.368 . S
C2222 C2218 1.368 . S
C2222 C2221 1.523 . S
H2223 C2198 0.950 . S
H2224 C2200 0.950 . S
H2225 C2201 0.949 . S
H2226 C2203 0.950 . S
H2227 C2205 0.950 . S
C2228 C2229 1.349 . S
C2228 C2230 1.327 . S
C2228 H2253 0.950 . S
C2229 C2228 1.349 . S
C2229 C2245 1.349 . S
C2230 C2228 1.327 . S
C2230 C2249 1.429 . S
C2230 H2254 0.950 . S
C2231 C2248 1.574 . S
C2231 C2250 1.368 1_655 S
C2231 H2255 0.949 . S
H2232 C2236 0.949 . S
C2233 C2234 1.349 . S
C2233 C2235 1.327 . S
C2233 H2256 0.950 . S
C2234 C2233 1.349 . S
C2234 C2246 1.349 . S
C2235 C2233 1.327 . S
C2235 C2251 1.429 . S
C2235 H2257 0.950 . S
C2236 H2232 0.949 . S
C2236 C2244 1.574 . S
C2236 C2252 1.368 1_455 S
H2237 C2245 0.950 . S
H2238 C2243 0.950 . S
H2239 C2244 0.949 . S
H2240 C2246 0.950 . S
H2241 C2247 0.950 . S
H2242 C2248 0.949 . S
C2243 H2238 0.950 . S
C2243 C2245 1.327 . S
C2243 C2249 1.429 . S
C2244 C2236 1.574 . S
C2244 H2239 0.949 . S
C2244 C2250 1.368 . S
C2245 C2229 1.349 . S
C2245 H2237 0.950 . S
C2245 C2243 1.327 . S
C2246 C2234 1.349 . S
C2246 H2240 0.950 . S
C2246 C2247 1.327 . S
C2247 H2241 0.950 . S
C2247 C2246 1.327 . S
C2247 C2251 1.429 . S
C2248 C2231 1.574 . S
C2248 H2242 0.949 . S
C2248 C2252 1.368 . S
C2249 C2230 1.429 . S
C2249 C2243 1.429 . S
C2249 C2250 1.523 . S
C2250 C2231 1.368 1_455 S
C2250 C2244 1.368 . S
C2250 C2249 1.523 . S
C2251 C2235 1.429 . S
C2251 C2247 1.429 . S
C2251 C2252 1.523 . S
C2252 C2236 1.368 1_655 S
C2252 C2248 1.368 . S
C2252 C2251 1.523 . S
H2253 C2228 0.950 . S
H2254 C2230 0.950 . S
H2255 C2231 0.949 . S
H2256 C2233 0.950 . S
H2257 C2235 0.950 . S
C2258 C2259 1.349 . S
C2258 C2260 1.327 . S
C2258 H2283 0.950 . S
C2259 C2258 1.349 . S
C2259 C2275 1.349 . S
C2260 C2258 1.327 . S
C2260 C2279 1.429 . S
C2260 H2284 0.950 . S
C2261 C2278 1.574 1_655 S
C2261 C2280 1.368 . S
C2261 H2285 0.949 . S
H2262 C2266 0.949 . S
C2263 C2264 1.349 . S
C2263 C2265 1.327 . S
C2263 H2286 0.950 . S
C2264 C2263 1.349 . S
C2264 C2276 1.349 . S
C2265 C2263 1.327 . S
C2265 C2281 1.429 . S
C2265 H2287 0.950 . S
C2266 H2262 0.949 . S
C2266 C2274 1.574 1_455 S
C2266 C2282 1.368 . S
H2267 C2275 0.950 . S
H2268 C2273 0.950 . S
H2269 C2274 0.949 . S
H2270 C2276 0.950 . S
H2271 C2277 0.950 . S
H2272 C2278 0.949 . S
C2273 H2268 0.950 . S
C2273 C2275 1.327 . S
C2273 C2279 1.429 . S
C2274 C2266 1.574 1_655 S
C2274 H2269 0.949 . S
C2274 C2280 1.368 . S
C2275 C2259 1.349 . S
C2275 H2267 0.950 . S
C2275 C2273 1.327 . S
C2276 C2264 1.349 . S
C2276 H2270 0.950 . S
C2276 C2277 1.327 . S
C2277 H2271 0.950 . S
C2277 C2276 1.327 . S
C2277 C2281 1.429 . S
C2278 C2261 1.574 1_455 S
C2278 H2272 0.949 . S
C2278 C2282 1.368 . S
C2279 C2260 1.429 . S
C2279 C2273 1.429 . S
C2279 C2280 1.523 . S
C2280 C2261 1.368 . S
C2280 C2274 1.368 . S
C2280 C2279 1.523 . S
C2281 C2265 1.429 . S
C2281 C2277 1.429 . S
C2281 C2282 1.523 . S
C2282 C2266 1.368 . S
C2282 C2278 1.368 . S
C2282 C2281 1.523 . S
H2283 C2258 0.950 . S
H2284 C2260 0.950 . S
H2285 C2261 0.949 . S
H2286 C2263 0.950 . S
H2287 C2265 0.950 . S
C2288 C2289 1.349 . S
C2288 C2290 1.327 . S
C2288 H2313 0.950 . S
C2289 C2288 1.349 . S
C2289 C2305 1.349 . S
C2290 C2288 1.327 . S
C2290 C2309 1.429 . S
C2290 H2314 0.950 . S
C2291 C2308 1.574 . S
C2291 C2310 1.368 . S
C2291 H2315 0.949 . S
H2292 C2296 0.949 . S
C2293 C2294 1.349 . S
C2293 C2295 1.327 . S
C2293 H2316 0.950 . S
C2294 C2293 1.349 . S
C2294 C2306 1.349 . S
C2295 C2293 1.327 . S
C2295 C2311 1.429 . S
C2295 H2317 0.950 . S
C2296 H2292 0.949 . S
C2296 C2304 1.574 . S
C2296 C2312 1.368 . S
H2297 C2305 0.950 . S
H2298 C2303 0.950 . S
H2299 C2304 0.949 . S
H2300 C2306 0.950 . S
H2301 C2307 0.950 . S
H2302 C2308 0.949 . S
C2303 H2298 0.950 . S
C2303 C2305 1.327 . S
C2303 C2309 1.429 . S
C2304 C2296 1.574 . S
C2304 H2299 0.949 . S
C2304 C2310 1.368 . S
C2305 C2289 1.349 . S
C2305 H2297 0.950 . S
C2305 C2303 1.327 . S
C2306 C2294 1.349 . S
C2306 H2300 0.950 . S
C2306 C2307 1.327 . S
C2307 H2301 0.950 . S
C2307 C2306 1.327 . S
C2307 C2311 1.429 . S
C2308 C2291 1.574 . S
C2308 H2302 0.949 . S
C2308 C2312 1.368 . S
C2309 C2290 1.429 . S
C2309 C2303 1.429 . S
C2309 C2310 1.523 . S
C2310 C2291 1.368 . S
C2310 C2304 1.368 . S
C2310 C2309 1.523 . S
C2311 C2295 1.429 . S
C2311 C2307 1.429 . S
C2311 C2312 1.523 . S
C2312 C2296 1.368 . S
C2312 C2308 1.368 . S
C2312 C2311 1.523 . S
H2313 C2288 0.950 . S
H2314 C2290 0.950 . S
H2315 C2291 0.949 . S
H2316 C2293 0.950 . S
H2317 C2295 0.950 . S
C2318 C2319 1.349 . S
C2318 C2320 1.327 . S
C2318 H2343 0.950 . S
C2319 C2318 1.349 . S
C2319 C2335 1.349 . S
C2320 C2318 1.327 . S
C2320 C2339 1.429 . S
C2320 H2344 0.950 . S
C2321 C2338 1.574 1_655 S
C2321 C2340 1.368 . S
C2321 H2345 0.949 . S
H2322 C2326 0.949 . S
C2323 C2324 1.349 . S
C2323 C2325 1.327 . S
C2323 H2346 0.950 . S
C2324 C2323 1.349 . S
C2324 C2336 1.349 . S
C2325 C2323 1.327 . S
C2325 C2341 1.429 . S
C2325 H2347 0.950 . S
C2326 H2322 0.949 . S
C2326 C2334 1.574 1_455 S
C2326 C2342 1.368 . S
H2327 C2335 0.950 . S
H2328 C2333 0.950 . S
H2329 C2334 0.949 . S
H2330 C2336 0.950 . S
H2331 C2337 0.950 . S
H2332 C2338 0.949 . S
C2333 H2328 0.950 . S
C2333 C2335 1.327 . S
C2333 C2339 1.429 . S
C2334 C2326 1.574 1_655 S
C2334 H2329 0.949 . S
C2334 C2340 1.368 . S
C2335 C2319 1.349 . S
C2335 H2327 0.950 . S
C2335 C2333 1.327 . S
C2336 C2324 1.349 . S
C2336 H2330 0.950 . S
C2336 C2337 1.327 . S
C2337 H2331 0.950 . S
C2337 C2336 1.327 . S
C2337 C2341 1.429 . S
C2338 C2321 1.574 1_455 S
C2338 H2332 0.949 . S
C2338 C2342 1.368 . S
C2339 C2320 1.429 . S
C2339 C2333 1.429 . S
C2339 C2340 1.523 . S
C2340 C2321 1.368 . S
C2340 C2334 1.368 . S
C2340 C2339 1.523 . S
C2341 C2325 1.429 . S
C2341 C2337 1.429 . S
C2341 C2342 1.523 . S
C2342 C2326 1.368 . S
C2342 C2338 1.368 . S
C2342 C2341 1.523 . S
H2343 C2318 0.950 . S
H2344 C2320 0.950 . S
H2345 C2321 0.949 . S
H2346 C2323 0.950 . S
H2347 C2325 0.950 . S
C2348 C2349 1.349 . S
C2348 C2350 1.327 . S
C2348 H2373 0.950 . S
C2349 C2348 1.349 . S
C2349 C2365 1.349 . S
C2350 C2348 1.327 . S
C2350 C2369 1.429 . S
C2350 H2374 0.950 . S
C2351 C2368 1.574 . S
C2351 C2370 1.368 . S
C2351 H2375 0.949 . S
H2352 C2356 0.949 . S
C2353 C2354 1.349 . S
C2353 C2355 1.327 . S
C2353 H2376 0.950 . S
C2354 C2353 1.349 . S
C2354 C2366 1.349 . S
C2355 C2353 1.327 . S
C2355 C2371 1.429 . S
C2355 H2377 0.950 . S
C2356 H2352 0.949 . S
C2356 C2364 1.574 . S
C2356 C2372 1.368 . S
H2357 C2365 0.950 . S
H2358 C2363 0.950 . S
H2359 C2364 0.949 . S
H2360 C2366 0.950 . S
H2361 C2367 0.950 . S
H2362 C2368 0.949 . S
C2363 H2358 0.950 . S
C2363 C2365 1.327 . S
C2363 C2369 1.429 . S
C2364 C2356 1.574 . S
C2364 H2359 0.949 . S
C2364 C2370 1.368 1_655 S
C2365 C2349 1.349 . S
C2365 H2357 0.950 . S
C2365 C2363 1.327 . S
C2366 C2354 1.349 . S
C2366 H2360 0.950 . S
C2366 C2367 1.327 . S
C2367 H2361 0.950 . S
C2367 C2366 1.327 . S
C2367 C2371 1.429 . S
C2368 C2351 1.574 . S
C2368 H2362 0.949 . S
C2368 C2372 1.368 1_455 S
C2369 C2350 1.429 . S
C2369 C2363 1.429 . S
C2369 C2370 1.523 . S
C2370 C2351 1.368 . S
C2370 C2364 1.368 1_455 S
C2370 C2369 1.523 . S
C2371 C2355 1.429 . S
C2371 C2367 1.429 . S
C2371 C2372 1.523 . S
C2372 C2356 1.368 . S
C2372 C2368 1.368 1_655 S
C2372 C2371 1.523 . S
H2373 C2348 0.950 . S
H2374 C2350 0.950 . S
H2375 C2351 0.949 . S
H2376 C2353 0.950 . S
H2377 C2355 0.950 . S
C2378 C2379 1.349 . S
C2378 C2380 1.327 . S
C2378 H2403 0.950 . S
C2379 C2378 1.349 . S
C2379 C2395 1.349 . S
C2380 C2378 1.327 . S
C2380 C2399 1.429 . S
C2380 H2404 0.950 . S
C2381 C2398 1.574 . S
C2381 C2400 1.368 . S
C2381 H2405 0.949 . S
H2382 C2386 0.949 . S
C2383 C2384 1.349 . S
C2383 C2385 1.327 . S
C2383 H2406 0.950 . S
C2384 C2383 1.349 . S
C2384 C2396 1.349 . S
C2385 C2383 1.327 . S
C2385 C2401 1.429 . S
C2385 H2407 0.950 . S
C2386 H2382 0.949 . S
C2386 C2394 1.574 . S
C2386 C2402 1.368 . S
H2387 C2395 0.950 . S
H2388 C2393 0.950 . S
H2389 C2394 0.949 . S
H2390 C2396 0.950 . S
H2391 C2397 0.950 . S
H2392 C2398 0.949 . S
C2393 H2388 0.950 . S
C2393 C2395 1.327 . S
C2393 C2399 1.429 . S
C2394 C2386 1.574 . S
C2394 H2389 0.949 . S
C2394 C2400 1.368 . S
C2395 C2379 1.349 . S
C2395 H2387 0.950 . S
C2395 C2393 1.327 . S
C2396 C2384 1.349 . S
C2396 H2390 0.950 . S
C2396 C2397 1.327 . S
C2397 H2391 0.950 . S
C2397 C2396 1.327 . S
C2397 C2401 1.429 . S
C2398 C2381 1.574 . S
C2398 H2392 0.949 . S
C2398 C2402 1.368 . S
C2399 C2380 1.429 . S
C2399 C2393 1.429 . S
C2399 C2400 1.523 . S
C2400 C2381 1.368 . S
C2400 C2394 1.368 . S
C2400 C2399 1.523 . S
C2401 C2385 1.429 . S
C2401 C2397 1.429 . S
C2401 C2402 1.523 . S
C2402 C2386 1.368 . S
C2402 C2398 1.368 . S
C2402 C2401 1.523 . S
H2403 C2378 0.950 . S
H2404 C2380 0.950 . S
H2405 C2381 0.949 . S
H2406 C2383 0.950 . S
H2407 C2385 0.950 . S
C2408 C2409 1.349 . S
C2408 C2410 1.327 . S
C2408 H2433 0.950 . S
C2409 C2408 1.349 . S
C2409 C2425 1.349 . S
C2410 C2408 1.327 . S
C2410 C2429 1.429 . S
C2410 H2434 0.950 . S
C2411 C2428 1.574 . S
C2411 C2430 1.368 . S
C2411 H2435 0.949 . S
H2412 C2416 0.949 . S
C2413 C2414 1.349 . S
C2413 C2415 1.327 . S
C2413 H2436 0.950 . S
C2414 C2413 1.349 . S
C2414 C2426 1.349 . S
C2415 C2413 1.327 . S
C2415 C2431 1.429 . S
C2415 H2437 0.950 . S
C2416 H2412 0.949 . S
C2416 C2424 1.574 . S
C2416 C2432 1.368 . S
H2417 C2425 0.950 . S
H2418 C2423 0.950 . S
H2419 C2424 0.949 . S
H2420 C2426 0.950 . S
H2421 C2427 0.950 . S
H2422 C2428 0.949 . S
C2423 H2418 0.950 . S
C2423 C2425 1.327 . S
C2423 C2429 1.429 . S
C2424 C2416 1.574 . S
C2424 H2419 0.949 . S
C2424 C2430 1.368 . S
C2425 C2409 1.349 . S
C2425 H2417 0.950 . S
C2425 C2423 1.327 . S
C2426 C2414 1.349 . S
C2426 H2420 0.950 . S
C2426 C2427 1.327 . S
C2427 H2421 0.950 . S
C2427 C2426 1.327 . S
C2427 C2431 1.429 . S
C2428 C2411 1.574 . S
C2428 H2422 0.949 . S
C2428 C2432 1.368 . S
C2429 C2410 1.429 . S
C2429 C2423 1.429 . S
C2429 C2430 1.523 . S
C2430 C2411 1.368 . S
C2430 C2424 1.368 . S
C2430 C2429 1.523 . S
C2431 C2415 1.429 . S
C2431 C2427 1.429 . S
C2431 C2432 1.523 . S
C2432 C2416 1.368 . S
C2432 C2428 1.368 . S
C2432 C2431 1.523 . S
H2433 C2408 0.950 . S
H2434 C2410 0.950 . S
H2435 C2411 0.949 . S
H2436 C2413 0.950 . S
H2437 C2415 0.950 . S
C2438 C2439 1.349 . S
C2438 C2440 1.327 . S
C2438 H2463 0.950 . S
C2439 C2438 1.349 . S
C2439 C2455 1.349 . S
C2440 C2438 1.327 . S
C2440 C2459 1.429 . S
C2440 H2464 0.950 . S
C2441 C2458 1.574 . S
C2441 C2460 1.368 . S
C2441 H2465 0.949 . S
H2442 C2446 0.949 . S
C2443 C2444 1.349 . S
C2443 C2445 1.327 . S
C2443 H2466 0.950 . S
C2444 C2443 1.349 . S
C2444 C2456 1.349 . S
C2445 C2443 1.327 . S
C2445 C2461 1.429 . S
C2445 H2467 0.950 . S
C2446 H2442 0.949 . S
C2446 C2454 1.574 . S
C2446 C2462 1.368 . S
H2447 C2455 0.950 . S
H2448 C2453 0.950 . S
H2449 C2454 0.949 . S
H2450 C2456 0.950 . S
H2451 C2457 0.950 . S
H2452 C2458 0.949 . S
C2453 H2448 0.950 . S
C2453 C2455 1.327 . S
C2453 C2459 1.429 . S
C2454 C2446 1.574 . S
C2454 H2449 0.949 . S
C2454 C2460 1.368 . S
C2455 C2439 1.349 . S
C2455 H2447 0.950 . S
C2455 C2453 1.327 . S
C2456 C2444 1.349 . S
C2456 H2450 0.950 . S
C2456 C2457 1.327 . S
C2457 H2451 0.950 . S
C2457 C2456 1.327 . S
C2457 C2461 1.429 . S
C2458 C2441 1.574 . S
C2458 H2452 0.949 . S
C2458 C2462 1.368 . S
C2459 C2440 1.429 . S
C2459 C2453 1.429 . S
C2459 C2460 1.523 . S
C2460 C2441 1.368 . S
C2460 C2454 1.368 . S
C2460 C2459 1.523 . S
C2461 C2445 1.429 . S
C2461 C2457 1.429 . S
C2461 C2462 1.523 . S
C2462 C2446 1.368 . S
C2462 C2458 1.368 . S
C2462 C2461 1.523 . S
H2463 C2438 0.950 . S
H2464 C2440 0.950 . S
H2465 C2441 0.949 . S
H2466 C2443 0.950 . S
H2467 C2445 0.950 . S
C2468 C2469 1.349 . S
C2468 C2470 1.327 . S
C2468 H2493 0.950 . S
C2469 C2468 1.349 . S
C2469 C2485 1.349 . S
C2470 C2468 1.327 . S
C2470 C2489 1.429 . S
C2470 H2494 0.950 . S
C2471 C2488 1.574 . S
C2471 C2490 1.368 . S
C2471 H2495 0.949 . S
H2472 C2476 0.949 . S
C2473 C2474 1.349 . S
C2473 C2475 1.327 . S
C2473 H2496 0.950 . S
C2474 C2473 1.349 . S
C2474 C2486 1.349 . S
C2475 C2473 1.327 . S
C2475 C2491 1.429 . S
C2475 H2497 0.950 . S
C2476 H2472 0.949 . S
C2476 C2484 1.574 . S
C2476 C2492 1.368 . S
H2477 C2485 0.950 . S
H2478 C2483 0.950 . S
H2479 C2484 0.949 . S
H2480 C2486 0.950 . S
H2481 C2487 0.950 . S
H2482 C2488 0.949 . S
C2483 H2478 0.950 . S
C2483 C2485 1.327 . S
C2483 C2489 1.429 . S
C2484 C2476 1.574 . S
C2484 H2479 0.949 . S
C2484 C2490 1.368 1_655 S
C2485 C2469 1.349 . S
C2485 H2477 0.950 . S
C2485 C2483 1.327 . S
C2486 C2474 1.349 . S
C2486 H2480 0.950 . S
C2486 C2487 1.327 . S
C2487 H2481 0.950 . S
C2487 C2486 1.327 . S
C2487 C2491 1.429 . S
C2488 C2471 1.574 . S
C2488 H2482 0.949 . S
C2488 C2492 1.368 1_455 S
C2489 C2470 1.429 . S
C2489 C2483 1.429 . S
C2489 C2490 1.523 . S
C2490 C2471 1.368 . S
C2490 C2484 1.368 1_455 S
C2490 C2489 1.523 . S
C2491 C2475 1.429 . S
C2491 C2487 1.429 . S
C2491 C2492 1.523 . S
C2492 C2476 1.368 . S
C2492 C2488 1.368 1_655 S
C2492 C2491 1.523 . S
H2493 C2468 0.950 . S
H2494 C2470 0.950 . S
H2495 C2471 0.949 . S
H2496 C2473 0.950 . S
H2497 C2475 0.950 . S
C2498 C2499 1.349 . S
C2498 C2500 1.327 . S
C2498 H2523 0.950 . S
C2499 C2498 1.349 . S
C2499 C2515 1.349 . S
C2500 C2498 1.327 . S
C2500 C2519 1.429 . S
C2500 H2524 0.950 . S
C2501 C2518 1.574 1_455 S
C2501 C2520 1.368 . S
C2501 H2525 0.949 . S
H2502 C2506 0.949 . S
C2503 C2504 1.349 . S
C2503 C2505 1.327 . S
C2503 H2526 0.950 . S
C2504 C2503 1.349 . S
C2504 C2516 1.349 . S
C2505 C2503 1.327 . S
C2505 C2521 1.429 . S
C2505 H2527 0.950 . S
C2506 H2502 0.949 . S
C2506 C2514 1.574 1_655 S
C2506 C2522 1.368 . S
H2507 C2515 0.950 . S
H2508 C2513 0.950 . S
H2509 C2514 0.949 . S
H2510 C2516 0.950 . S
H2511 C2517 0.950 . S
H2512 C2518 0.949 . S
C2513 H2508 0.950 . S
C2513 C2515 1.327 . S
C2513 C2519 1.429 . S
C2514 C2506 1.574 1_455 S
C2514 H2509 0.949 . S
C2514 C2520 1.368 . S
C2515 C2499 1.349 . S
C2515 H2507 0.950 . S
C2515 C2513 1.327 . S
C2516 C2504 1.349 . S
C2516 H2510 0.950 . S
C2516 C2517 1.327 . S
C2517 H2511 0.950 . S
C2517 C2516 1.327 . S
C2517 C2521 1.429 . S
C2518 C2501 1.574 1_655 S
C2518 H2512 0.949 . S
C2518 C2522 1.368 . S
C2519 C2500 1.429 . S
C2519 C2513 1.429 . S
C2519 C2520 1.523 . S
C2520 C2501 1.368 . S
C2520 C2514 1.368 . S
C2520 C2519 1.523 . S
C2521 C2505 1.429 . S
C2521 C2517 1.429 . S
C2521 C2522 1.523 . S
C2522 C2506 1.368 . S
C2522 C2518 1.368 . S
C2522 C2521 1.523 . S
H2523 C2498 0.950 . S
H2524 C2500 0.950 . S
H2525 C2501 0.949 . S
H2526 C2503 0.950 . S
H2527 C2505 0.950 . S
C2528 C2529 1.349 . S
C2528 C2530 1.327 . S
C2528 H2553 0.950 . S
C2529 C2528 1.349 . S
C2529 C2545 1.349 . S
C2530 C2528 1.327 . S
C2530 C2549 1.429 . S
C2530 H2554 0.950 . S
C2531 C2548 1.574 . S
C2531 C2550 1.368 . S
C2531 H2555 0.949 . S
H2532 C2536 0.949 . S
C2533 C2534 1.349 . S
C2533 C2535 1.327 . S
C2533 H2556 0.950 . S
C2534 C2533 1.349 . S
C2534 C2546 1.349 . S
C2535 C2533 1.327 . S
C2535 C2551 1.429 . S
C2535 H2557 0.950 . S
C2536 H2532 0.949 . S
C2536 C2544 1.574 . S
C2536 C2552 1.368 . S
H2537 C2545 0.950 . S
H2538 C2543 0.950 . S
H2539 C2544 0.949 . S
H2540 C2546 0.950 . S
H2541 C2547 0.950 . S
H2542 C2548 0.949 . S
C2543 H2538 0.950 . S
C2543 C2545 1.327 . S
C2543 C2549 1.429 . S
C2544 C2536 1.574 . S
C2544 H2539 0.949 . S
C2544 C2550 1.368 . S
C2545 C2529 1.349 . S
C2545 H2537 0.950 . S
C2545 C2543 1.327 . S
C2546 C2534 1.349 . S
C2546 H2540 0.950 . S
C2546 C2547 1.327 . S
C2547 H2541 0.950 . S
C2547 C2546 1.327 . S
C2547 C2551 1.429 . S
C2548 C2531 1.574 . S
C2548 H2542 0.949 . S
C2548 C2552 1.368 . S
C2549 C2530 1.429 . S
C2549 C2543 1.429 . S
C2549 C2550 1.523 . S
C2550 C2531 1.368 . S
C2550 C2544 1.368 . S
C2550 C2549 1.523 . S
C2551 C2535 1.429 . S
C2551 C2547 1.429 . S
C2551 C2552 1.523 . S
C2552 C2536 1.368 . S
C2552 C2548 1.368 . S
C2552 C2551 1.523 . S
H2553 C2528 0.950 . S
H2554 C2530 0.950 . S
H2555 C2531 0.949 . S
H2556 C2533 0.950 . S
H2557 C2535 0.950 . S
C2558 C2559 1.349 . S
C2558 C2560 1.327 . S
C2558 H2583 0.950 . S
C2559 C2558 1.349 . S
C2559 C2575 1.349 . S
C2560 C2558 1.327 . S
C2560 C2579 1.429 . S
C2560 H2584 0.950 . S
C2561 C2578 1.574 . S
C2561 C2580 1.368 . S
C2561 H2585 0.949 . S
H2562 C2566 0.949 . S
C2563 C2564 1.349 . S
C2563 C2565 1.327 . S
C2563 H2586 0.950 . S
C2564 C2563 1.349 . S
C2564 C2576 1.349 . S
C2565 C2563 1.327 . S
C2565 C2581 1.429 . S
C2565 H2587 0.950 . S
C2566 H2562 0.949 . S
C2566 C2574 1.574 . S
C2566 C2582 1.368 . S
H2567 C2575 0.950 . S
H2568 C2573 0.950 . S
H2569 C2574 0.949 . S
H2570 C2576 0.950 . S
H2571 C2577 0.950 . S
H2572 C2578 0.949 . S
C2573 H2568 0.950 . S
C2573 C2575 1.327 . S
C2573 C2579 1.429 . S
C2574 C2566 1.574 . S
C2574 H2569 0.949 . S
C2574 C2580 1.368 . S
C2575 C2559 1.349 . S
C2575 H2567 0.950 . S
C2575 C2573 1.327 . S
C2576 C2564 1.349 . S
C2576 H2570 0.950 . S
C2576 C2577 1.327 . S
C2577 H2571 0.950 . S
C2577 C2576 1.327 . S
C2577 C2581 1.429 . S
C2578 C2561 1.574 . S
C2578 H2572 0.949 . S
C2578 C2582 1.368 . S
C2579 C2560 1.429 . S
C2579 C2573 1.429 . S
C2579 C2580 1.523 . S
C2580 C2561 1.368 . S
C2580 C2574 1.368 . S
C2580 C2579 1.523 . S
C2581 C2565 1.429 . S
C2581 C2577 1.429 . S
C2581 C2582 1.523 . S
C2582 C2566 1.368 . S
C2582 C2578 1.368 . S
C2582 C2581 1.523 . S
H2583 C2558 0.950 . S
H2584 C2560 0.950 . S
H2585 C2561 0.949 . S
H2586 C2563 0.950 . S
H2587 C2565 0.950 . S
C2588 C2589 1.349 . S
C2588 C2590 1.327 . S
C2588 H2613 0.950 . S
C2589 C2588 1.349 . S
C2589 C2605 1.349 . S
C2590 C2588 1.327 . S
C2590 C2609 1.429 . S
C2590 H2614 0.950 . S
C2591 C2608 1.574 . S
C2591 C2610 1.368 . S
C2591 H2615 0.949 . S
H2592 C2596 0.949 . S
C2593 C2594 1.349 . S
C2593 C2595 1.327 . S
C2593 H2616 0.950 . S
C2594 C2593 1.349 . S
C2594 C2606 1.349 . S
C2595 C2593 1.327 . S
C2595 C2611 1.429 . S
C2595 H2617 0.950 . S
C2596 H2592 0.949 . S
C2596 C2604 1.574 . S
C2596 C2612 1.368 . S
H2597 C2605 0.950 . S
H2598 C2603 0.950 . S
H2599 C2604 0.949 . S
H2600 C2606 0.950 . S
H2601 C2607 0.950 . S
H2602 C2608 0.949 . S
C2603 H2598 0.950 . S
C2603 C2605 1.327 . S
C2603 C2609 1.429 . S
C2604 C2596 1.574 . S
C2604 H2599 0.949 . S
C2604 C2610 1.368 . S
C2605 C2589 1.349 . S
C2605 H2597 0.950 . S
C2605 C2603 1.327 . S
C2606 C2594 1.349 . S
C2606 H2600 0.950 . S
C2606 C2607 1.327 . S
C2607 H2601 0.950 . S
C2607 C2606 1.327 . S
C2607 C2611 1.429 . S
C2608 C2591 1.574 . S
C2608 H2602 0.949 . S
C2608 C2612 1.368 . S
C2609 C2590 1.429 . S
C2609 C2603 1.429 . S
C2609 C2610 1.523 . S
C2610 C2591 1.368 . S
C2610 C2604 1.368 . S
C2610 C2609 1.523 . S
C2611 C2595 1.429 . S
C2611 C2607 1.429 . S
C2611 C2612 1.523 . S
C2612 C2596 1.368 . S
C2612 C2608 1.368 . S
C2612 C2611 1.523 . S
H2613 C2588 0.950 . S
H2614 C2590 0.950 . S
H2615 C2591 0.949 . S
H2616 C2593 0.950 . S
H2617 C2595 0.950 . S
C2618 C2619 1.349 . S
C2618 C2620 1.327 . S
C2618 H2643 0.950 . S
C2619 C2618 1.349 . S
C2619 C2635 1.349 . S
C2620 C2618 1.327 . S
C2620 C2639 1.429 . S
C2620 H2644 0.950 . S
C2621 C2638 1.574 . S
C2621 C2640 1.368 . S
C2621 H2645 0.949 . S
H2622 C2626 0.949 . S
C2623 C2624 1.349 . S
C2623 C2625 1.327 . S
C2623 H2646 0.950 . S
C2624 C2623 1.349 . S
C2624 C2636 1.349 . S
C2625 C2623 1.327 . S
C2625 C2641 1.429 . S
C2625 H2647 0.950 . S
C2626 H2622 0.949 . S
C2626 C2634 1.574 . S
C2626 C2642 1.368 . S
H2627 C2635 0.950 . S
H2628 C2633 0.950 . S
H2629 C2634 0.949 . S
H2630 C2636 0.950 . S
H2631 C2637 0.950 . S
H2632 C2638 0.949 . S
C2633 H2628 0.950 . S
C2633 C2635 1.327 . S
C2633 C2639 1.429 . S
C2634 C2626 1.574 . S
C2634 H2629 0.949 . S
C2634 C2640 1.368 . S
C2635 C2619 1.349 . S
C2635 H2627 0.950 . S
C2635 C2633 1.327 . S
C2636 C2624 1.349 . S
C2636 H2630 0.950 . S
C2636 C2637 1.327 . S
C2637 H2631 0.950 . S
C2637 C2636 1.327 . S
C2637 C2641 1.429 . S
C2638 C2621 1.574 . S
C2638 H2632 0.949 . S
C2638 C2642 1.368 . S
C2639 C2620 1.429 . S
C2639 C2633 1.429 . S
C2639 C2640 1.523 . S
C2640 C2621 1.368 . S
C2640 C2634 1.368 . S
C2640 C2639 1.523 . S
C2641 C2625 1.429 . S
C2641 C2637 1.429 . S
C2641 C2642 1.523 . S
C2642 C2626 1.368 . S
C2642 C2638 1.368 . S
C2642 C2641 1.523 . S
H2643 C2618 0.950 . S
H2644 C2620 0.950 . S
H2645 C2621 0.949 . S
H2646 C2623 0.950 . S
H2647 C2625 0.950 . S
C2648 C2649 1.349 . S
C2648 C2650 1.327 . S
C2648 H2673 0.950 . S
C2649 C2648 1.349 . S
C2649 C2665 1.349 . S
C2650 C2648 1.327 . S
C2650 C2669 1.429 . S
C2650 H2674 0.950 . S
C2651 C2668 1.574 . S
C2651 C2670 1.368 . S
C2651 H2675 0.949 . S
H2652 C2656 0.949 . S
C2653 C2654 1.349 . S
C2653 C2655 1.327 . S
C2653 H2676 0.950 . S
C2654 C2653 1.349 . S
C2654 C2666 1.349 . S
C2655 C2653 1.327 . S
C2655 C2671 1.429 . S
C2655 H2677 0.950 . S
C2656 H2652 0.949 . S
C2656 C2664 1.574 . S
C2656 C2672 1.368 . S
H2657 C2665 0.950 . S
H2658 C2663 0.950 . S
H2659 C2664 0.949 . S
H2660 C2666 0.950 . S
H2661 C2667 0.950 . S
H2662 C2668 0.949 . S
C2663 H2658 0.950 . S
C2663 C2665 1.327 . S
C2663 C2669 1.429 . S
C2664 C2656 1.574 . S
C2664 H2659 0.949 . S
C2664 C2670 1.368 . S
C2665 C2649 1.349 . S
C2665 H2657 0.950 . S
C2665 C2663 1.327 . S
C2666 C2654 1.349 . S
C2666 H2660 0.950 . S
C2666 C2667 1.327 . S
C2667 H2661 0.950 . S
C2667 C2666 1.327 . S
C2667 C2671 1.429 . S
C2668 C2651 1.574 . S
C2668 H2662 0.949 . S
C2668 C2672 1.368 . S
C2669 C2650 1.429 . S
C2669 C2663 1.429 . S
C2669 C2670 1.523 . S
C2670 C2651 1.368 . S
C2670 C2664 1.368 . S
C2670 C2669 1.523 . S
C2671 C2655 1.429 . S
C2671 C2667 1.429 . S
C2671 C2672 1.523 . S
C2672 C2656 1.368 . S
C2672 C2668 1.368 . S
C2672 C2671 1.523 . S
H2673 C2648 0.950 . S
H2674 C2650 0.950 . S
H2675 C2651 0.949 . S
H2676 C2653 0.950 . S
H2677 C2655 0.950 . S
C2678 C2679 1.349 . S
C2678 C2680 1.327 . S
C2678 H2703 0.950 . S
C2679 C2678 1.349 . S
C2679 C2695 1.349 . S
C2680 C2678 1.327 . S
C2680 C2699 1.429 . S
C2680 H2704 0.950 . S
C2681 C2698 1.574 . S
C2681 C2700 1.368 . S
C2681 H2705 0.949 . S
H2682 C2686 0.949 . S
C2683 C2684 1.349 . S
C2683 C2685 1.327 . S
C2683 H2706 0.950 . S
C2684 C2683 1.349 . S
C2684 C2696 1.349 . S
C2685 C2683 1.327 . S
C2685 C2701 1.429 . S
C2685 H2707 0.950 . S
C2686 H2682 0.949 . S
C2686 C2694 1.574 . S
C2686 C2702 1.368 . S
H2687 C2695 0.950 . S
H2688 C2693 0.950 . S
H2689 C2694 0.949 . S
H2690 C2696 0.950 . S
H2691 C2697 0.950 . S
H2692 C2698 0.949 . S
C2693 H2688 0.950 . S
C2693 C2695 1.327 . S
C2693 C2699 1.429 . S
C2694 C2686 1.574 . S
C2694 H2689 0.949 . S
C2694 C2700 1.368 . S
C2695 C2679 1.349 . S
C2695 H2687 0.950 . S
C2695 C2693 1.327 . S
C2696 C2684 1.349 . S
C2696 H2690 0.950 . S
C2696 C2697 1.327 . S
C2697 H2691 0.950 . S
C2697 C2696 1.327 . S
C2697 C2701 1.429 . S
C2698 C2681 1.574 . S
C2698 H2692 0.949 . S
C2698 C2702 1.368 . S
C2699 C2680 1.429 . S
C2699 C2693 1.429 . S
C2699 C2700 1.523 . S
C2700 C2681 1.368 . S
C2700 C2694 1.368 . S
C2700 C2699 1.523 . S
C2701 C2685 1.429 . S
C2701 C2697 1.429 . S
C2701 C2702 1.523 . S
C2702 C2686 1.368 . S
C2702 C2698 1.368 . S
C2702 C2701 1.523 . S
H2703 C2678 0.950 . S
H2704 C2680 0.950 . S
H2705 C2681 0.949 . S
H2706 C2683 0.950 . S
H2707 C2685 0.950 . S
C2708 C2709 1.349 . S
C2708 C2710 1.327 . S
C2708 H2733 0.950 . S
C2709 C2708 1.349 . S
C2709 C2725 1.349 . S
C2710 C2708 1.327 . S
C2710 C2729 1.429 . S
C2710 H2734 0.950 . S
C2711 C2728 1.574 . S
C2711 C2730 1.368 . S
C2711 H2735 0.949 . S
H2712 C2716 0.949 . S
C2713 C2714 1.349 . S
C2713 C2715 1.327 . S
C2713 H2736 0.950 . S
C2714 C2713 1.349 . S
C2714 C2726 1.349 . S
C2715 C2713 1.327 . S
C2715 C2731 1.429 . S
C2715 H2737 0.950 . S
C2716 H2712 0.949 . S
C2716 C2724 1.574 . S
C2716 C2732 1.368 . S
H2717 C2725 0.950 . S
H2718 C2723 0.950 . S
H2719 C2724 0.949 . S
H2720 C2726 0.950 . S
H2721 C2727 0.950 . S
H2722 C2728 0.949 . S
C2723 H2718 0.950 . S
C2723 C2725 1.327 . S
C2723 C2729 1.429 . S
C2724 C2716 1.574 . S
C2724 H2719 0.949 . S
C2724 C2730 1.368 . S
C2725 C2709 1.349 . S
C2725 H2717 0.950 . S
C2725 C2723 1.327 . S
C2726 C2714 1.349 . S
C2726 H2720 0.950 . S
C2726 C2727 1.327 . S
C2727 H2721 0.950 . S
C2727 C2726 1.327 . S
C2727 C2731 1.429 . S
C2728 C2711 1.574 . S
C2728 H2722 0.949 . S
C2728 C2732 1.368 . S
C2729 C2710 1.429 . S
C2729 C2723 1.429 . S
C2729 C2730 1.523 . S
C2730 C2711 1.368 . S
C2730 C2724 1.368 . S
C2730 C2729 1.523 . S
C2731 C2715 1.429 . S
C2731 C2727 1.429 . S
C2731 C2732 1.523 . S
C2732 C2716 1.368 . S
C2732 C2728 1.368 . S
C2732 C2731 1.523 . S
H2733 C2708 0.950 . S
H2734 C2710 0.950 . S
H2735 C2711 0.949 . S
H2736 C2713 0.950 . S
H2737 C2715 0.950 . S
C2738 C2739 1.349 . S
C2738 C2740 1.327 . S
C2738 H2763 0.950 . S
C2739 C2738 1.349 . S
C2739 C2755 1.349 . S
C2740 C2738 1.327 . S
C2740 C2759 1.429 . S
C2740 H2764 0.950 . S
C2741 C2758 1.574 . S
C2741 C2760 1.368 . S
C2741 H2765 0.949 . S
H2742 C2746 0.949 . S
C2743 C2744 1.349 . S
C2743 C2745 1.327 . S
C2743 H2766 0.950 . S
C2744 C2743 1.349 . S
C2744 C2756 1.349 . S
C2745 C2743 1.327 . S
C2745 C2761 1.429 . S
C2745 H2767 0.950 . S
C2746 H2742 0.949 . S
C2746 C2754 1.574 . S
C2746 C2762 1.368 . S
H2747 C2755 0.950 . S
H2748 C2753 0.950 . S
H2749 C2754 0.949 . S
H2750 C2756 0.950 . S
H2751 C2757 0.950 . S
H2752 C2758 0.949 . S
C2753 H2748 0.950 . S
C2753 C2755 1.327 . S
C2753 C2759 1.429 . S
C2754 C2746 1.574 . S
C2754 H2749 0.949 . S
C2754 C2760 1.368 . S
C2755 C2739 1.349 . S
C2755 H2747 0.950 . S
C2755 C2753 1.327 . S
C2756 C2744 1.349 . S
C2756 H2750 0.950 . S
C2756 C2757 1.327 . S
C2757 H2751 0.950 . S
C2757 C2756 1.327 . S
C2757 C2761 1.429 . S
C2758 C2741 1.574 . S
C2758 H2752 0.949 . S
C2758 C2762 1.368 . S
C2759 C2740 1.429 . S
C2759 C2753 1.429 . S
C2759 C2760 1.523 . S
C2760 C2741 1.368 . S
C2760 C2754 1.368 . S
C2760 C2759 1.523 . S
C2761 C2745 1.429 . S
C2761 C2757 1.429 . S
C2761 C2762 1.523 . S
C2762 C2746 1.368 . S
C2762 C2758 1.368 . S
C2762 C2761 1.523 . S
H2763 C2738 0.950 . S
H2764 C2740 0.950 . S
H2765 C2741 0.949 . S
H2766 C2743 0.950 . S
H2767 C2745 0.950 . S
C2768 C2769 1.349 . S
C2768 C2770 1.327 . S
C2768 H2793 0.950 . S
C2769 C2768 1.349 . S
C2769 C2785 1.349 . S
C2770 C2768 1.327 . S
C2770 C2789 1.429 . S
C2770 H2794 0.950 . S
C2771 C2788 1.574 . S
C2771 C2790 1.368 . S
C2771 H2795 0.949 . S
H2772 C2776 0.949 . S
C2773 C2774 1.349 . S
C2773 C2775 1.327 . S
C2773 H2796 0.950 . S
C2774 C2773 1.349 . S
C2774 C2786 1.349 . S
C2775 C2773 1.327 . S
C2775 C2791 1.429 . S
C2775 H2797 0.950 . S
C2776 H2772 0.949 . S
C2776 C2784 1.574 . S
C2776 C2792 1.368 . S
H2777 C2785 0.950 . S
H2778 C2783 0.950 . S
H2779 C2784 0.949 . S
H2780 C2786 0.950 . S
H2781 C2787 0.950 . S
H2782 C2788 0.949 . S
C2783 H2778 0.950 . S
C2783 C2785 1.327 . S
C2783 C2789 1.429 . S
C2784 C2776 1.574 . S
C2784 H2779 0.949 . S
C2784 C2790 1.368 . S
C2785 C2769 1.349 . S
C2785 H2777 0.950 . S
C2785 C2783 1.327 . S
C2786 C2774 1.349 . S
C2786 H2780 0.950 . S
C2786 C2787 1.327 . S
C2787 H2781 0.950 . S
C2787 C2786 1.327 . S
C2787 C2791 1.429 . S
C2788 C2771 1.574 . S
C2788 H2782 0.949 . S
C2788 C2792 1.368 . S
C2789 C2770 1.429 . S
C2789 C2783 1.429 . S
C2789 C2790 1.523 . S
C2790 C2771 1.368 . S
C2790 C2784 1.368 . S
C2790 C2789 1.523 . S
C2791 C2775 1.429 . S
C2791 C2787 1.429 . S
C2791 C2792 1.523 . S
C2792 C2776 1.368 . S
C2792 C2788 1.368 . S
C2792 C2791 1.523 . S
H2793 C2768 0.950 . S
H2794 C2770 0.950 . S
H2795 C2771 0.949 . S
H2796 C2773 0.950 . S
H2797 C2775 0.950 . S
C2798 C2799 1.349 . S
C2798 C2800 1.327 . S
C2798 H2823 0.950 . S
C2799 C2798 1.349 . S
C2799 C2815 1.349 . S
C2800 C2798 1.327 . S
C2800 C2819 1.429 . S
C2800 H2824 0.950 . S
C2801 C2818 1.574 . S
C2801 C2820 1.368 . S
C2801 H2825 0.949 . S
H2802 C2806 0.949 . S
C2803 C2804 1.349 . S
C2803 C2805 1.327 . S
C2803 H2826 0.950 . S
C2804 C2803 1.349 . S
C2804 C2816 1.349 . S
C2805 C2803 1.327 . S
C2805 C2821 1.429 . S
C2805 H2827 0.950 . S
C2806 H2802 0.949 . S
C2806 C2814 1.574 . S
C2806 C2822 1.368 . S
H2807 C2815 0.950 . S
H2808 C2813 0.950 . S
H2809 C2814 0.949 . S
H2810 C2816 0.950 . S
H2811 C2817 0.950 . S
H2812 C2818 0.949 . S
C2813 H2808 0.950 . S
C2813 C2815 1.327 . S
C2813 C2819 1.429 . S
C2814 C2806 1.574 . S
C2814 H2809 0.949 . S
C2814 C2820 1.368 . S
C2815 C2799 1.349 . S
C2815 H2807 0.950 . S
C2815 C2813 1.327 . S
C2816 C2804 1.349 . S
C2816 H2810 0.950 . S
C2816 C2817 1.327 . S
C2817 H2811 0.950 . S
C2817 C2816 1.327 . S
C2817 C2821 1.429 . S
C2818 C2801 1.574 . S
C2818 H2812 0.949 . S
C2818 C2822 1.368 . S
C2819 C2800 1.429 . S
C2819 C2813 1.429 . S
C2819 C2820 1.523 . S
C2820 C2801 1.368 . S
C2820 C2814 1.368 . S
C2820 C2819 1.523 . S
C2821 C2805 1.429 . S
C2821 C2817 1.429 . S
C2821 C2822 1.523 . S
C2822 C2806 1.368 . S
C2822 C2818 1.368 . S
C2822 C2821 1.523 . S
H2823 C2798 0.950 . S
H2824 C2800 0.950 . S
H2825 C2801 0.949 . S
H2826 C2803 0.950 . S
H2827 C2805 0.950 . S
C2828 C2829 1.349 . S
C2828 C2830 1.327 . S
C2828 H2853 0.950 . S
C2829 C2828 1.349 . S
C2829 C2845 1.349 . S
C2830 C2828 1.327 . S
C2830 C2849 1.429 . S
C2830 H2854 0.950 . S
C2831 C2848 1.574 . S
C2831 C2850 1.368 . S
C2831 H2855 0.949 . S
H2832 C2836 0.949 . S
C2833 C2834 1.349 . S
C2833 C2835 1.327 . S
C2833 H2856 0.950 . S
C2834 C2833 1.349 . S
C2834 C2846 1.349 . S
C2835 C2833 1.327 . S
C2835 C2851 1.429 . S
C2835 H2857 0.950 . S
C2836 H2832 0.949 . S
C2836 C2844 1.574 . S
C2836 C2852 1.368 . S
H2837 C2845 0.950 . S
H2838 C2843 0.950 . S
H2839 C2844 0.949 . S
H2840 C2846 0.950 . S
H2841 C2847 0.950 . S
H2842 C2848 0.949 . S
C2843 H2838 0.950 . S
C2843 C2845 1.327 . S
C2843 C2849 1.429 . S
C2844 C2836 1.574 . S
C2844 H2839 0.949 . S
C2844 C2850 1.368 . S
C2845 C2829 1.349 . S
C2845 H2837 0.950 . S
C2845 C2843 1.327 . S
C2846 C2834 1.349 . S
C2846 H2840 0.950 . S
C2846 C2847 1.327 . S
C2847 H2841 0.950 . S
C2847 C2846 1.327 . S
C2847 C2851 1.429 . S
C2848 C2831 1.574 . S
C2848 H2842 0.949 . S
C2848 C2852 1.368 . S
C2849 C2830 1.429 . S
C2849 C2843 1.429 . S
C2849 C2850 1.523 . S
C2850 C2831 1.368 . S
C2850 C2844 1.368 . S
C2850 C2849 1.523 . S
C2851 C2835 1.429 . S
C2851 C2847 1.429 . S
C2851 C2852 1.523 . S
C2852 C2836 1.368 . S
C2852 C2848 1.368 . S
C2852 C2851 1.523 . S
H2853 C2828 0.950 . S
H2854 C2830 0.950 . S
H2855 C2831 0.949 . S
H2856 C2833 0.950 . S
H2857 C2835 0.950 . S
C2858 C2859 1.349 . S
C2858 C2860 1.327 . S
C2858 H2883 0.950 . S
C2859 C2858 1.349 . S
C2859 C2875 1.349 . S
C2860 C2858 1.327 . S
C2860 C2879 1.429 . S
C2860 H2884 0.950 . S
C2861 C2878 1.574 . S
C2861 C2880 1.368 . S
C2861 H2885 0.949 . S
H2862 C2866 0.949 . S
C2863 C2864 1.349 . S
C2863 C2865 1.327 . S
C2863 H2886 0.950 . S
C2864 C2863 1.349 . S
C2864 C2876 1.349 . S
C2865 C2863 1.327 . S
C2865 C2881 1.429 . S
C2865 H2887 0.950 . S
C2866 H2862 0.949 . S
C2866 C2874 1.574 . S
C2866 C2882 1.368 . S
H2867 C2875 0.950 . S
H2868 C2873 0.950 . S
H2869 C2874 0.949 . S
H2870 C2876 0.950 . S
H2871 C2877 0.950 . S
H2872 C2878 0.949 . S
C2873 H2868 0.950 . S
C2873 C2875 1.327 . S
C2873 C2879 1.429 . S
C2874 C2866 1.574 . S
C2874 H2869 0.949 . S
C2874 C2880 1.368 . S
C2875 C2859 1.349 . S
C2875 H2867 0.950 . S
C2875 C2873 1.327 . S
C2876 C2864 1.349 . S
C2876 H2870 0.950 . S
C2876 C2877 1.327 . S
C2877 H2871 0.950 . S
C2877 C2876 1.327 . S
C2877 C2881 1.429 . S
C2878 C2861 1.574 . S
C2878 H2872 0.949 . S
C2878 C2882 1.368 . S
C2879 C2860 1.429 . S
C2879 C2873 1.429 . S
C2879 C2880 1.523 . S
C2880 C2861 1.368 . S
C2880 C2874 1.368 . S
C2880 C2879 1.523 . S
C2881 C2865 1.429 . S
C2881 C2877 1.429 . S
C2881 C2882 1.523 . S
C2882 C2866 1.368 . S
C2882 C2878 1.368 . S
C2882 C2881 1.523 . S
H2883 C2858 0.950 . S
H2884 C2860 0.950 . S
H2885 C2861 0.949 . S
H2886 C2863 0.950 . S
H2887 C2865 0.950 . S
C2888 C2889 1.349 . S
C2888 C2890 1.327 . S
C2888 H2913 0.950 . S
C2889 C2888 1.349 . S
C2889 C2905 1.349 . S
C2890 C2888 1.327 . S
C2890 C2909 1.429 . S
C2890 H2914 0.950 . S
C2891 C2908 1.574 . S
C2891 C2910 1.368 . S
C2891 H2915 0.949 . S
H2892 C2896 0.949 . S
C2893 C2894 1.349 . S
C2893 C2895 1.327 . S
C2893 H2916 0.950 . S
C2894 C2893 1.349 . S
C2894 C2906 1.349 . S
C2895 C2893 1.327 . S
C2895 C2911 1.429 . S
C2895 H2917 0.950 . S
C2896 H2892 0.949 . S
C2896 C2904 1.574 . S
C2896 C2912 1.368 . S
H2897 C2905 0.950 . S
H2898 C2903 0.950 . S
H2899 C2904 0.949 . S
H2900 C2906 0.950 . S
H2901 C2907 0.950 . S
H2902 C2908 0.949 . S
C2903 H2898 0.950 . S
C2903 C2905 1.327 . S
C2903 C2909 1.429 . S
C2904 C2896 1.574 . S
C2904 H2899 0.949 . S
C2904 C2910 1.368 . S
C2905 C2889 1.349 . S
C2905 H2897 0.950 . S
C2905 C2903 1.327 . S
C2906 C2894 1.349 . S
C2906 H2900 0.950 . S
C2906 C2907 1.327 . S
C2907 H2901 0.950 . S
C2907 C2906 1.327 . S
C2907 C2911 1.429 . S
C2908 C2891 1.574 . S
C2908 H2902 0.949 . S
C2908 C2912 1.368 . S
C2909 C2890 1.429 . S
C2909 C2903 1.429 . S
C2909 C2910 1.523 . S
C2910 C2891 1.368 . S
C2910 C2904 1.368 . S
C2910 C2909 1.523 . S
C2911 C2895 1.429 . S
C2911 C2907 1.429 . S
C2911 C2912 1.523 . S
C2912 C2896 1.368 . S
C2912 C2908 1.368 . S
C2912 C2911 1.523 . S
H2913 C2888 0.950 . S
H2914 C2890 0.950 . S
H2915 C2891 0.949 . S
H2916 C2893 0.950 . S
H2917 C2895 0.950 . S
C2918 C2919 1.349 . S
C2918 C2920 1.327 . S
C2918 H2943 0.950 . S
C2919 C2918 1.349 . S
C2919 C2935 1.349 . S
C2920 C2918 1.327 . S
C2920 C2939 1.429 . S
C2920 H2944 0.950 . S
C2921 C2938 1.574 . S
C2921 C2940 1.368 . S
C2921 H2945 0.949 . S
H2922 C2926 0.949 . S
C2923 C2924 1.349 . S
C2923 C2925 1.327 . S
C2923 H2946 0.950 . S
C2924 C2923 1.349 . S
C2924 C2936 1.349 . S
C2925 C2923 1.327 . S
C2925 C2941 1.429 . S
C2925 H2947 0.950 . S
C2926 H2922 0.949 . S
C2926 C2934 1.574 . S
C2926 C2942 1.368 . S
H2927 C2935 0.950 . S
H2928 C2933 0.950 . S
H2929 C2934 0.949 . S
H2930 C2936 0.950 . S
H2931 C2937 0.950 . S
H2932 C2938 0.949 . S
C2933 H2928 0.950 . S
C2933 C2935 1.327 . S
C2933 C2939 1.429 . S
C2934 C2926 1.574 . S
C2934 H2929 0.949 . S
C2934 C2940 1.368 . S
C2935 C2919 1.349 . S
C2935 H2927 0.950 . S
C2935 C2933 1.327 . S
C2936 C2924 1.349 . S
C2936 H2930 0.950 . S
C2936 C2937 1.327 . S
C2937 H2931 0.950 . S
C2937 C2936 1.327 . S
C2937 C2941 1.429 . S
C2938 C2921 1.574 . S
C2938 H2932 0.949 . S
C2938 C2942 1.368 . S
C2939 C2920 1.429 . S
C2939 C2933 1.429 . S
C2939 C2940 1.523 . S
C2940 C2921 1.368 . S
C2940 C2934 1.368 . S
C2940 C2939 1.523 . S
C2941 C2925 1.429 . S
C2941 C2937 1.429 . S
C2941 C2942 1.523 . S
C2942 C2926 1.368 . S
C2942 C2938 1.368 . S
C2942 C2941 1.523 . S
H2943 C2918 0.950 . S
H2944 C2920 0.950 . S
H2945 C2921 0.949 . S
H2946 C2923 0.950 . S
H2947 C2925 0.950 . S
C2948 C2949 1.349 . S
C2948 C2950 1.327 . S
C2948 H2973 0.950 . S
C2949 C2948 1.349 . S
C2949 C2965 1.349 . S
C2950 C2948 1.327 . S
C2950 C2969 1.429 . S
C2950 H2974 0.950 . S
C2951 C2968 1.574 . S
C2951 C2970 1.368 . S
C2951 H2975 0.949 . S
H2952 C2956 0.949 . S
C2953 C2954 1.349 . S
C2953 C2955 1.327 . S
C2953 H2976 0.950 . S
C2954 C2953 1.349 . S
C2954 C2966 1.349 . S
C2955 C2953 1.327 . S
C2955 C2971 1.429 . S
C2955 H2977 0.950 . S
C2956 H2952 0.949 . S
C2956 C2964 1.574 . S
C2956 C2972 1.368 . S
H2957 C2965 0.950 . S
H2958 C2963 0.950 . S
H2959 C2964 0.949 . S
H2960 C2966 0.950 . S
H2961 C2967 0.950 . S
H2962 C2968 0.949 . S
C2963 H2958 0.950 . S
C2963 C2965 1.327 . S
C2963 C2969 1.429 . S
C2964 C2956 1.574 . S
C2964 H2959 0.949 . S
C2964 C2970 1.368 . S
C2965 C2949 1.349 . S
C2965 H2957 0.950 . S
C2965 C2963 1.327 . S
C2966 C2954 1.349 . S
C2966 H2960 0.950 . S
C2966 C2967 1.327 . S
C2967 H2961 0.950 . S
C2967 C2966 1.327 . S
C2967 C2971 1.429 . S
C2968 C2951 1.574 . S
C2968 H2962 0.949 . S
C2968 C2972 1.368 . S
C2969 C2950 1.429 . S
C2969 C2963 1.429 . S
C2969 C2970 1.523 . S
C2970 C2951 1.368 . S
C2970 C2964 1.368 . S
C2970 C2969 1.523 . S
C2971 C2955 1.429 . S
C2971 C2967 1.429 . S
C2971 C2972 1.523 . S
C2972 C2956 1.368 . S
C2972 C2968 1.368 . S
C2972 C2971 1.523 . S
H2973 C2948 0.950 . S
H2974 C2950 0.950 . S
H2975 C2951 0.949 . S
H2976 C2953 0.950 . S
H2977 C2955 0.950 . S
C2978 C2979 1.349 . S
C2978 C2980 1.327 . S
C2978 H3003 0.950 . S
C2979 C2978 1.349 . S
C2979 C2995 1.349 . S
C2980 C2978 1.327 . S
C2980 C2999 1.429 . S
C2980 H3004 0.950 . S
C2981 C2998 1.574 . S
C2981 C3000 1.368 . S
C2981 H3005 0.949 . S
H2982 C2986 0.949 . S
C2983 C2984 1.349 . S
C2983 C2985 1.327 . S
C2983 H3006 0.950 . S
C2984 C2983 1.349 . S
C2984 C2996 1.349 . S
C2985 C2983 1.327 . S
C2985 C3001 1.429 . S
C2985 H3007 0.950 . S
C2986 H2982 0.949 . S
C2986 C2994 1.574 . S
C2986 C3002 1.368 . S
H2987 C2995 0.950 . S
H2988 C2993 0.950 . S
H2989 C2994 0.949 . S
H2990 C2996 0.950 . S
H2991 C2997 0.950 . S
H2992 C2998 0.949 . S
C2993 H2988 0.950 . S
C2993 C2995 1.327 . S
C2993 C2999 1.429 . S
C2994 C2986 1.574 . S
C2994 H2989 0.949 . S
C2994 C3000 1.368 . S
C2995 C2979 1.349 . S
C2995 H2987 0.950 . S
C2995 C2993 1.327 . S
C2996 C2984 1.349 . S
C2996 H2990 0.950 . S
C2996 C2997 1.327 . S
C2997 H2991 0.950 . S
C2997 C2996 1.327 . S
C2997 C3001 1.429 . S
C2998 C2981 1.574 . S
C2998 H2992 0.949 . S
C2998 C3002 1.368 . S
C2999 C2980 1.429 . S
C2999 C2993 1.429 . S
C2999 C3000 1.523 . S
C3000 C2981 1.368 . S
C3000 C2994 1.368 . S
C3000 C2999 1.523 . S
C3001 C2985 1.429 . S
C3001 C2997 1.429 . S
C3001 C3002 1.523 . S
C3002 C2986 1.368 . S
C3002 C2998 1.368 . S
C3002 C3001 1.523 . S
H3003 C2978 0.950 . S
H3004 C2980 0.950 . S
H3005 C2981 0.949 . S
H3006 C2983 0.950 . S
H3007 C2985 0.950 . S
C3008 C3009 1.349 . S
C3008 C3010 1.327 . S
C3008 H3033 0.950 . S
C3009 C3008 1.349 . S
C3009 C3025 1.349 . S
C3010 C3008 1.327 . S
C3010 C3029 1.429 . S
C3010 H3034 0.950 . S
C3011 C3028 1.574 . S
C3011 C3030 1.368 1_545 S
C3011 H3035 0.949 . S
H3012 C3016 0.949 . S
C3013 C3014 1.349 . S
C3013 C3015 1.327 . S
C3013 H3036 0.950 . S
C3014 C3013 1.349 . S
C3014 C3026 1.349 . S
C3015 C3013 1.327 . S
C3015 C3031 1.429 . S
C3015 H3037 0.950 . S
C3016 H3012 0.949 . S
C3016 C3024 1.574 . S
C3016 C3032 1.368 1_565 S
H3017 C3025 0.950 1_545 S
H3018 C3023 0.950 . S
H3019 C3024 0.949 . S
H3020 C3026 0.950 1_565 S
H3021 C3027 0.950 . S
H3022 C3028 0.949 . S
C3023 H3018 0.950 . S
C3023 C3025 1.327 1_545 S
C3023 C3029 1.429 1_545 S
C3024 C3016 1.574 . S
C3024 H3019 0.949 . S
C3024 C3030 1.368 . S
C3025 C3009 1.349 . S
C3025 H3017 0.950 1_565 S
C3025 C3023 1.327 1_565 S
C3026 C3014 1.349 . S
C3026 H3020 0.950 1_545 S
C3026 C3027 1.327 1_545 S
C3027 H3021 0.950 . S
C3027 C3026 1.327 1_565 S
C3027 C3031 1.429 1_565 S
C3028 C3011 1.574 . S
C3028 H3022 0.949 . S
C3028 C3032 1.368 . S
C3029 C3010 1.429 . S
C3029 C3023 1.429 1_565 S
C3029 C3030 1.523 . S
C3030 C3011 1.368 1_565 S
C3030 C3024 1.368 . S
C3030 C3029 1.523 . S
C3031 C3015 1.429 . S
C3031 C3027 1.429 1_545 S
C3031 C3032 1.523 . S
C3032 C3016 1.368 1_545 S
C3032 C3028 1.368 . S
C3032 C3031 1.523 . S
H3033 C3008 0.950 . S
H3034 C3010 0.950 . S
H3035 C3011 0.949 . S
H3036 C3013 0.950 . S
H3037 C3015 0.950 . S
C3038 C3039 1.349 . S
C3038 C3040 1.327 . S
C3038 H3063 0.950 . S
C3039 C3038 1.349 . S
C3039 C3055 1.349 . S
C3040 C3038 1.327 . S
C3040 C3059 1.429 . S
C3040 H3064 0.950 . S
C3041 C3058 1.574 . S
C3041 C3060 1.368 . S
C3041 H3065 0.949 . S
H3042 C3046 0.949 . S
C3043 C3044 1.349 . S
C3043 C3045 1.327 . S
C3043 H3066 0.950 . S
C3044 C3043 1.349 . S
C3044 C3056 1.349 . S
C3045 C3043 1.327 . S
C3045 C3061 1.429 . S
C3045 H3067 0.950 . S
C3046 H3042 0.949 . S
C3046 C3054 1.574 . S
C3046 C3062 1.368 . S
H3047 C3055 0.950 . S
H3048 C3053 0.950 . S
H3049 C3054 0.949 . S
H3050 C3056 0.950 . S
H3051 C3057 0.950 . S
H3052 C3058 0.949 . S
C3053 H3048 0.950 . S
C3053 C3055 1.327 . S
C3053 C3059 1.429 . S
C3054 C3046 1.574 . S
C3054 H3049 0.949 . S
C3054 C3060 1.368 . S
C3055 C3039 1.349 . S
C3055 H3047 0.950 . S
C3055 C3053 1.327 . S
C3056 C3044 1.349 . S
C3056 H3050 0.950 . S
C3056 C3057 1.327 . S
C3057 H3051 0.950 . S
C3057 C3056 1.327 . S
C3057 C3061 1.429 . S
C3058 C3041 1.574 . S
C3058 H3052 0.949 . S
C3058 C3062 1.368 . S
C3059 C3040 1.429 . S
C3059 C3053 1.429 . S
C3059 C3060 1.523 . S
C3060 C3041 1.368 . S
C3060 C3054 1.368 . S
C3060 C3059 1.523 . S
C3061 C3045 1.429 . S
C3061 C3057 1.429 . S
C3061 C3062 1.523 . S
C3062 C3046 1.368 . S
C3062 C3058 1.368 . S
C3062 C3061 1.523 . S
H3063 C3038 0.950 . S
H3064 C3040 0.950 . S
H3065 C3041 0.949 . S
H3066 C3043 0.950 . S
H3067 C3045 0.950 . S
C3068 C3069 1.349 . S
C3068 C3070 1.327 . S
C3068 H3093 0.950 . S
C3069 C3068 1.349 . S
C3069 C3085 1.349 . S
C3070 C3068 1.327 . S
C3070 C3089 1.429 . S
C3070 H3094 0.950 . S
C3071 C3088 1.574 . S
C3071 C3090 1.368 1_545 S
C3071 H3095 0.949 . S
H3072 C3076 0.949 . S
C3073 C3074 1.349 . S
C3073 C3075 1.327 . S
C3073 H3096 0.950 . S
C3074 C3073 1.349 . S
C3074 C3086 1.349 . S
C3075 C3073 1.327 . S
C3075 C3091 1.429 . S
C3075 H3097 0.950 . S
C3076 H3072 0.949 . S
C3076 C3084 1.574 . S
C3076 C3092 1.368 1_565 S
H3077 C3085 0.950 1_545 S
H3078 C3083 0.950 . S
H3079 C3084 0.949 . S
H3080 C3086 0.950 1_565 S
H3081 C3087 0.950 . S
H3082 C3088 0.949 . S
C3083 H3078 0.950 . S
C3083 C3085 1.327 1_545 S
C3083 C3089 1.429 1_545 S
C3084 C3076 1.574 . S
C3084 H3079 0.949 . S
C3084 C3090 1.368 . S
C3085 C3069 1.349 . S
C3085 H3077 0.950 1_565 S
C3085 C3083 1.327 1_565 S
C3086 C3074 1.349 . S
C3086 H3080 0.950 1_545 S
C3086 C3087 1.327 1_545 S
C3087 H3081 0.950 . S
C3087 C3086 1.327 1_565 S
C3087 C3091 1.429 1_565 S
C3088 C3071 1.574 . S
C3088 H3082 0.949 . S
C3088 C3092 1.368 . S
C3089 C3070 1.429 . S
C3089 C3083 1.429 1_565 S
C3089 C3090 1.523 . S
C3090 C3071 1.368 1_565 S
C3090 C3084 1.368 . S
C3090 C3089 1.523 . S
C3091 C3075 1.429 . S
C3091 C3087 1.429 1_545 S
C3091 C3092 1.523 . S
C3092 C3076 1.368 1_545 S
C3092 C3088 1.368 . S
C3092 C3091 1.523 . S
H3093 C3068 0.950 . S
H3094 C3070 0.950 . S
H3095 C3071 0.949 . S
H3096 C3073 0.950 . S
H3097 C3075 0.950 . S
C3098 C3099 1.349 . S
C3098 C3100 1.327 . S
C3098 H3123 0.950 . S
C3099 C3098 1.349 . S
C3099 C3115 1.349 . S
C3100 C3098 1.327 . S
C3100 C3119 1.429 . S
C3100 H3124 0.950 . S
C3101 C3118 1.574 1_554 S
C3101 C3120 1.368 . S
C3101 H3125 0.949 . S
H3102 C3106 0.949 . S
C3103 C3104 1.349 . S
C3103 C3105 1.327 . S
C3103 H3126 0.950 . S
C3104 C3103 1.349 . S
C3104 C3116 1.349 . S
C3105 C3103 1.327 . S
C3105 C3121 1.429 . S
C3105 H3127 0.950 . S
C3106 H3102 0.949 . S
C3106 C3114 1.574 1_556 S
C3106 C3122 1.368 . S
H3107 C3115 0.950 . S
H3108 C3113 0.950 . S
H3109 C3114 0.949 . S
H3110 C3116 0.950 . S
H3111 C3117 0.950 . S
H3112 C3118 0.949 . S
C3113 H3108 0.950 . S
C3113 C3115 1.327 . S
C3113 C3119 1.429 . S
C3114 C3106 1.574 1_554 S
C3114 H3109 0.949 . S
C3114 C3120 1.368 . S
C3115 C3099 1.349 . S
C3115 H3107 0.950 . S
C3115 C3113 1.327 . S
C3116 C3104 1.349 . S
C3116 H3110 0.950 . S
C3116 C3117 1.327 . S
C3117 H3111 0.950 . S
C3117 C3116 1.327 . S
C3117 C3121 1.429 . S
C3118 C3101 1.574 1_556 S
C3118 H3112 0.949 . S
C3118 C3122 1.368 . S
C3119 C3100 1.429 . S
C3119 C3113 1.429 . S
C3119 C3120 1.523 . S
C3120 C3101 1.368 . S
C3120 C3114 1.368 . S
C3120 C3119 1.523 . S
C3121 C3105 1.429 . S
C3121 C3117 1.429 . S
C3121 C3122 1.523 . S
C3122 C3106 1.368 . S
C3122 C3118 1.368 . S
C3122 C3121 1.523 . S
H3123 C3098 0.950 . S
H3124 C3100 0.950 . S
H3125 C3101 0.949 . S
H3126 C3103 0.950 . S
H3127 C3105 0.950 . S
C3128 C3129 1.349 . S
C3128 C3130 1.327 . S
C3128 H3153 0.950 . S
C3129 C3128 1.349 . S
C3129 C3145 1.351 1_545 S
C3130 C3128 1.327 . S
C3130 C3149 1.429 . S
C3130 H3154 0.950 . S
C3131 C3148 1.574 . S
C3131 C3150 1.368 1_565 S
C3131 H3155 0.949 . S
H3132 C3136 0.949 . S
C3133 C3134 1.349 . S
C3133 C3135 1.327 . S
C3133 H3156 0.950 . S
C3134 C3133 1.349 . S
C3134 C3146 1.351 1_565 S
C3135 C3133 1.327 . S
C3135 C3151 1.429 . S
C3135 H3157 0.950 . S
C3136 H3132 0.949 . S
C3136 C3144 1.574 . S
C3136 C3152 1.368 1_545 S
H3137 C3145 0.948 . S
H3138 C3143 0.950 . S
H3139 C3144 0.949 . S
H3140 C3146 0.948 . S
H3141 C3147 0.950 . S
H3142 C3148 0.949 . S
C3143 H3138 0.950 . S
C3143 C3145 1.327 . S
C3143 C3149 1.429 1_565 S
C3144 C3136 1.574 . S
C3144 H3139 0.949 . S
C3144 C3150 1.368 . S
C3145 C3129 1.351 1_565 S
C3145 H3137 0.948 . S
C3145 C3143 1.327 . S
C3146 C3134 1.351 1_545 S
C3146 H3140 0.948 . S
C3146 C3147 1.327 . S
C3147 H3141 0.950 . S
C3147 C3146 1.327 . S
C3147 C3151 1.429 1_545 S
C3148 C3131 1.574 . S
C3148 H3142 0.949 . S
C3148 C3152 1.368 . S
C3149 C3130 1.429 . S
C3149 C3143 1.429 1_545 S
C3149 C3150 1.523 . S
C3150 C3131 1.368 1_545 S
C3150 C3144 1.368 . S
C3150 C3149 1.523 . S
C3151 C3135 1.429 . S
C3151 C3147 1.429 1_565 S
C3151 C3152 1.523 . S
C3152 C3136 1.368 1_565 S
C3152 C3148 1.368 . S
C3152 C3151 1.523 . S
H3153 C3128 0.950 . S
H3154 C3130 0.950 . S
H3155 C3131 0.949 . S
H3156 C3133 0.950 . S
H3157 C3135 0.950 . S
C3158 C3159 1.349 . S
C3158 C3160 1.327 . S
C3158 H3183 0.950 . S
C3159 C3158 1.349 . S
C3159 C3175 1.349 . S
C3160 C3158 1.327 . S
C3160 C3179 1.429 . S
C3160 H3184 0.950 . S
C3161 C3178 1.574 . S
C3161 C3180 1.368 . S
C3161 H3185 0.949 . S
H3162 C3166 0.949 . S
C3163 C3164 1.349 . S
C3163 C3165 1.327 . S
C3163 H3186 0.950 . S
C3164 C3163 1.349 . S
C3164 C3176 1.349 . S
C3165 C3163 1.327 . S
C3165 C3181 1.429 . S
C3165 H3187 0.950 . S
C3166 H3162 0.949 . S
C3166 C3174 1.574 . S
C3166 C3182 1.368 . S
H3167 C3175 0.950 . S
H3168 C3173 0.950 . S
H3169 C3174 0.949 . S
H3170 C3176 0.950 . S
H3171 C3177 0.950 . S
H3172 C3178 0.949 . S
C3173 H3168 0.950 . S
C3173 C3175 1.327 . S
C3173 C3179 1.429 . S
C3174 C3166 1.574 . S
C3174 H3169 0.949 . S
C3174 C3180 1.368 . S
C3175 C3159 1.349 . S
C3175 H3167 0.950 . S
C3175 C3173 1.327 . S
C3176 C3164 1.349 . S
C3176 H3170 0.950 . S
C3176 C3177 1.327 . S
C3177 H3171 0.950 . S
C3177 C3176 1.327 . S
C3177 C3181 1.429 . S
C3178 C3161 1.574 . S
C3178 H3172 0.949 . S
C3178 C3182 1.368 . S
C3179 C3160 1.429 . S
C3179 C3173 1.429 . S
C3179 C3180 1.523 . S
C3180 C3161 1.368 . S
C3180 C3174 1.368 . S
C3180 C3179 1.523 . S
C3181 C3165 1.429 . S
C3181 C3177 1.429 . S
C3181 C3182 1.523 . S
C3182 C3166 1.368 . S
C3182 C3178 1.368 . S
C3182 C3181 1.523 . S
H3183 C3158 0.950 . S
H3184 C3160 0.950 . S
H3185 C3161 0.949 . S
H3186 C3163 0.950 . S
H3187 C3165 0.950 . S
C3188 C3189 1.349 . S
C3188 C3190 1.327 . S
C3188 H3213 0.950 . S
C3189 C3188 1.349 . S
C3189 C3205 1.328 1_565 S
C3190 C3188 1.327 . S
C3190 C3209 1.429 . S
C3190 H3214 0.950 . S
C3191 C3208 1.574 . S
C3191 C3210 1.368 1_545 S
C3191 H3215 0.949 . S
H3192 C3196 0.949 . S
C3193 C3194 1.349 . S
C3193 C3195 1.327 . S
C3193 H3216 0.950 . S
C3194 C3193 1.349 . S
C3194 C3206 1.328 1_545 S
C3195 C3193 1.327 . S
C3195 C3211 1.429 . S
C3195 H3217 0.950 . S
C3196 H3192 0.949 . S
C3196 C3204 1.574 . S
C3196 C3212 1.368 1_565 S
H3197 C3205 0.966 . S
H3198 C3203 0.950 . S
H3199 C3204 0.949 . S
H3200 C3206 0.966 . S
H3201 C3207 0.950 . S
H3202 C3208 0.949 . S
C3203 H3198 0.950 . S
C3203 C3205 1.333 . S
C3203 C3209 1.429 1_545 S
C3204 C3196 1.574 . S
C3204 H3199 0.949 . S
C3204 C3210 1.368 . S
C3205 C3189 1.328 1_545 S
C3205 H3197 0.966 . S
C3205 C3203 1.333 . S
C3206 C3194 1.328 1_565 S
C3206 H3200 0.966 . S
C3206 C3207 1.333 . S
C3207 H3201 0.950 . S
C3207 C3206 1.333 . S
C3207 C3211 1.429 1_565 S
C3208 C3191 1.574 . S
C3208 H3202 0.949 . S
C3208 C3212 1.368 . S
C3209 C3190 1.429 . S
C3209 C3203 1.429 1_565 S
C3209 C3210 1.523 . S
C3210 C3191 1.368 1_565 S
C3210 C3204 1.368 . S
C3210 C3209 1.523 . S
C3211 C3195 1.429 . S
C3211 C3207 1.429 1_545 S
C3211 C3212 1.523 . S
C3212 C3196 1.368 1_545 S
C3212 C3208 1.368 . S
C3212 C3211 1.523 . S
H3213 C3188 0.950 . S
H3214 C3190 0.950 . S
H3215 C3191 0.949 . S
H3216 C3193 0.950 . S
H3217 C3195 0.950 . S
C3218 C3219 1.349 . S
C3218 C3220 1.327 . S
C3218 H3243 0.950 . S
C3219 C3218 1.349 . S
C3219 C3235 1.349 . S
C3220 C3218 1.327 . S
C3220 C3239 1.429 . S
C3220 H3244 0.950 . S
C3221 C3238 1.574 1_556 S
C3221 C3240 1.368 . S
C3221 H3245 0.949 . S
H3222 C3226 0.949 . S
C3223 C3224 1.349 . S
C3223 C3225 1.327 . S
C3223 H3246 0.950 . S
C3224 C3223 1.349 . S
C3224 C3236 1.349 . S
C3225 C3223 1.327 . S
C3225 C3241 1.429 . S
C3225 H3247 0.950 . S
C3226 H3222 0.949 . S
C3226 C3234 1.574 1_554 S
C3226 C3242 1.368 . S
H3227 C3235 0.950 . S
H3228 C3233 0.950 . S
H3229 C3234 0.949 . S
H3230 C3236 0.950 . S
H3231 C3237 0.950 . S
H3232 C3238 0.949 . S
C3233 H3228 0.950 . S
C3233 C3235 1.327 . S
C3233 C3239 1.429 . S
C3234 C3226 1.574 1_556 S
C3234 H3229 0.949 . S
C3234 C3240 1.368 . S
C3235 C3219 1.349 . S
C3235 H3227 0.950 . S
C3235 C3233 1.327 . S
C3236 C3224 1.349 . S
C3236 H3230 0.950 . S
C3236 C3237 1.327 . S
C3237 H3231 0.950 . S
C3237 C3236 1.327 . S
C3237 C3241 1.429 . S
C3238 C3221 1.574 1_554 S
C3238 H3232 0.949 . S
C3238 C3242 1.368 . S
C3239 C3220 1.429 . S
C3239 C3233 1.429 . S
C3239 C3240 1.523 . S
C3240 C3221 1.368 . S
C3240 C3234 1.368 . S
C3240 C3239 1.523 . S
C3241 C3225 1.429 . S
C3241 C3237 1.429 . S
C3241 C3242 1.523 . S
C3242 C3226 1.368 . S
C3242 C3238 1.368 . S
C3242 C3241 1.523 . S
H3243 C3218 0.950 . S
H3244 C3220 0.950 . S
H3245 C3221 0.949 . S
H3246 C3223 0.950 . S
H3247 C3225 0.950 . S
C3248 C3249 1.349 . S
C3248 C3250 1.327 . S
C3248 H3273 0.950 . S
C3249 C3248 1.349 . S
C3249 C3265 1.349 . S
C3250 C3248 1.327 . S
C3250 C3269 1.429 . S
C3250 H3274 0.950 . S
C3251 C3268 1.574 . S
C3251 C3270 1.368 . S
C3251 H3275 0.949 . S
H3252 C3256 0.949 . S
C3253 C3254 1.349 . S
C3253 C3255 1.327 . S
C3253 H3276 0.950 . S
C3254 C3253 1.349 . S
C3254 C3266 1.349 . S
C3255 C3253 1.327 . S
C3255 C3271 1.429 . S
C3255 H3277 0.950 . S
C3256 H3252 0.949 . S
C3256 C3264 1.574 . S
C3256 C3272 1.368 . S
H3257 C3265 0.950 . S
H3258 C3263 0.950 . S
H3259 C3264 0.949 . S
H3260 C3266 0.950 . S
H3261 C3267 0.950 . S
H3262 C3268 0.949 . S
C3263 H3258 0.950 . S
C3263 C3265 1.327 . S
C3263 C3269 1.429 . S
C3264 C3256 1.574 . S
C3264 H3259 0.949 . S
C3264 C3270 1.368 . S
C3265 C3249 1.349 . S
C3265 H3257 0.950 . S
C3265 C3263 1.327 . S
C3266 C3254 1.349 . S
C3266 H3260 0.950 . S
C3266 C3267 1.327 . S
C3267 H3261 0.950 . S
C3267 C3266 1.327 . S
C3267 C3271 1.429 . S
C3268 C3251 1.574 . S
C3268 H3262 0.949 . S
C3268 C3272 1.368 . S
C3269 C3250 1.429 . S
C3269 C3263 1.429 . S
C3269 C3270 1.523 . S
C3270 C3251 1.368 . S
C3270 C3264 1.368 . S
C3270 C3269 1.523 . S
C3271 C3255 1.429 . S
C3271 C3267 1.429 . S
C3271 C3272 1.523 . S
C3272 C3256 1.368 . S
C3272 C3268 1.368 . S
C3272 C3271 1.523 . S
H3273 C3248 0.950 . S
H3274 C3250 0.950 . S
H3275 C3251 0.949 . S
H3276 C3253 0.950 . S
H3277 C3255 0.950 . S
C3278 C3279 1.349 . S
C3278 C3280 1.327 . S
C3278 H3303 0.950 . S
C3279 C3278 1.349 . S
C3279 C3295 1.349 . S
C3280 C3278 1.327 . S
C3280 C3299 1.429 . S
C3280 H3304 0.950 . S
C3281 C3298 1.574 1_556 S
C3281 C3300 1.368 . S
C3281 H3305 0.949 . S
H3282 C3286 0.949 . S
C3283 C3284 1.349 . S
C3283 C3285 1.327 . S
C3283 H3306 0.950 . S
C3284 C3283 1.349 . S
C3284 C3296 1.349 . S
C3285 C3283 1.327 . S
C3285 C3301 1.429 . S
C3285 H3307 0.950 . S
C3286 H3282 0.949 . S
C3286 C3294 1.574 1_554 S
C3286 C3302 1.368 . S
H3287 C3295 0.950 . S
H3288 C3293 0.950 . S
H3289 C3294 0.949 . S
H3290 C3296 0.950 . S
H3291 C3297 0.950 . S
H3292 C3298 0.949 . S
C3293 H3288 0.950 . S
C3293 C3295 1.327 . S
C3293 C3299 1.429 . S
C3294 C3286 1.574 1_556 S
C3294 H3289 0.949 . S
C3294 C3300 1.368 . S
C3295 C3279 1.349 . S
C3295 H3287 0.950 . S
C3295 C3293 1.327 . S
C3296 C3284 1.349 . S
C3296 H3290 0.950 . S
C3296 C3297 1.327 . S
C3297 H3291 0.950 . S
C3297 C3296 1.327 . S
C3297 C3301 1.429 . S
C3298 C3281 1.574 1_554 S
C3298 H3292 0.949 . S
C3298 C3302 1.368 . S
C3299 C3280 1.429 . S
C3299 C3293 1.429 . S
C3299 C3300 1.523 . S
C3300 C3281 1.368 . S
C3300 C3294 1.368 . S
C3300 C3299 1.523 . S
C3301 C3285 1.429 . S
C3301 C3297 1.429 . S
C3301 C3302 1.523 . S
C3302 C3286 1.368 . S
C3302 C3298 1.368 . S
C3302 C3301 1.523 . S
H3303 C3278 0.950 . S
H3304 C3280 0.950 . S
H3305 C3281 0.949 . S
H3306 C3283 0.950 . S
H3307 C3285 0.950 . S
C3308 C3309 1.349 . S
C3308 C3310 1.327 . S
C3308 H3333 0.950 . S
C3309 C3308 1.349 . S
C3309 C3325 1.349 . S
C3310 C3308 1.327 . S
C3310 C3329 1.429 . S
C3310 H3334 0.950 . S
C3311 C3328 1.574 . S
C3311 C3330 1.368 . S
C3311 H3335 0.949 . S
H3312 C3316 0.949 . S
C3313 C3314 1.349 . S
C3313 C3315 1.327 . S
C3313 H3336 0.950 . S
C3314 C3313 1.349 . S
C3314 C3326 1.349 . S
C3315 C3313 1.327 . S
C3315 C3331 1.429 . S
C3315 H3337 0.950 . S
C3316 H3312 0.949 . S
C3316 C3324 1.574 . S
C3316 C3332 1.368 . S
H3317 C3325 0.950 . S
H3318 C3323 0.950 . S
H3319 C3324 0.949 . S
H3320 C3326 0.950 . S
H3321 C3327 0.950 . S
H3322 C3328 0.949 . S
C3323 H3318 0.950 . S
C3323 C3325 1.327 . S
C3323 C3329 1.429 . S
C3324 C3316 1.574 . S
C3324 H3319 0.949 . S
C3324 C3330 1.368 . S
C3325 C3309 1.349 . S
C3325 H3317 0.950 . S
C3325 C3323 1.327 . S
C3326 C3314 1.349 . S
C3326 H3320 0.950 . S
C3326 C3327 1.327 . S
C3327 H3321 0.950 . S
C3327 C3326 1.327 . S
C3327 C3331 1.429 . S
C3328 C3311 1.574 . S
C3328 H3322 0.949 . S
C3328 C3332 1.368 . S
C3329 C3310 1.429 . S
C3329 C3323 1.429 . S
C3329 C3330 1.523 . S
C3330 C3311 1.368 . S
C3330 C3324 1.368 . S
C3330 C3329 1.523 . S
C3331 C3315 1.429 . S
C3331 C3327 1.429 . S
C3331 C3332 1.523 . S
C3332 C3316 1.368 . S
C3332 C3328 1.368 . S
C3332 C3331 1.523 . S
H3333 C3308 0.950 . S
H3334 C3310 0.950 . S
H3335 C3311 0.949 . S
H3336 C3313 0.950 . S
H3337 C3315 0.950 . S
C3338 C3339 1.349 . S
C3338 C3340 1.327 . S
C3338 H3363 0.950 . S
C3339 C3338 1.349 . S
C3339 C3355 1.349 . S
C3340 C3338 1.327 . S
C3340 C3359 1.429 . S
C3340 H3364 0.950 . S
C3341 C3358 1.574 . S
C3341 C3360 1.368 . S
C3341 H3365 0.949 . S
H3342 C3346 0.949 . S
C3343 C3344 1.349 . S
C3343 C3345 1.327 . S
C3343 H3366 0.950 . S
C3344 C3343 1.349 . S
C3344 C3356 1.349 . S
C3345 C3343 1.327 . S
C3345 C3361 1.429 . S
C3345 H3367 0.950 . S
C3346 H3342 0.949 . S
C3346 C3354 1.574 . S
C3346 C3362 1.368 . S
H3347 C3355 0.950 . S
H3348 C3353 0.950 . S
H3349 C3354 0.949 . S
H3350 C3356 0.950 . S
H3351 C3357 0.950 . S
H3352 C3358 0.949 . S
C3353 H3348 0.950 . S
C3353 C3355 1.327 . S
C3353 C3359 1.429 . S
C3354 C3346 1.574 . S
C3354 H3349 0.949 . S
C3354 C3360 1.368 . S
C3355 C3339 1.349 . S
C3355 H3347 0.950 . S
C3355 C3353 1.327 . S
C3356 C3344 1.349 . S
C3356 H3350 0.950 . S
C3356 C3357 1.327 . S
C3357 H3351 0.950 . S
C3357 C3356 1.327 . S
C3357 C3361 1.429 . S
C3358 C3341 1.574 . S
C3358 H3352 0.949 . S
C3358 C3362 1.368 . S
C3359 C3340 1.429 . S
C3359 C3353 1.429 . S
C3359 C3360 1.523 . S
C3360 C3341 1.368 . S
C3360 C3354 1.368 . S
C3360 C3359 1.523 . S
C3361 C3345 1.429 . S
C3361 C3357 1.429 . S
C3361 C3362 1.523 . S
C3362 C3346 1.368 . S
C3362 C3358 1.368 . S
C3362 C3361 1.523 . S
H3363 C3338 0.950 . S
H3364 C3340 0.950 . S
H3365 C3341 0.949 . S
H3366 C3343 0.950 . S
H3367 C3345 0.950 . S
C3368 C3369 1.349 . S
C3368 C3370 1.327 . S
C3368 H3393 0.950 . S
C3369 C3368 1.349 . S
C3369 C3385 1.349 . S
C3370 C3368 1.327 . S
C3370 C3389 1.429 . S
C3370 H3394 0.950 . S
C3371 C3388 1.574 . S
C3371 C3390 1.368 . S
C3371 H3395 0.949 . S
H3372 C3376 0.949 . S
C3373 C3374 1.349 . S
C3373 C3375 1.327 . S
C3373 H3396 0.950 . S
C3374 C3373 1.349 . S
C3374 C3386 1.349 . S
C3375 C3373 1.327 . S
C3375 C3391 1.429 . S
C3375 H3397 0.950 . S
C3376 H3372 0.949 . S
C3376 C3384 1.574 . S
C3376 C3392 1.368 . S
H3377 C3385 0.950 . S
H3378 C3383 0.950 . S
H3379 C3384 0.949 . S
H3380 C3386 0.950 . S
H3381 C3387 0.950 . S
H3382 C3388 0.949 . S
C3383 H3378 0.950 . S
C3383 C3385 1.327 . S
C3383 C3389 1.429 . S
C3384 C3376 1.574 . S
C3384 H3379 0.949 . S
C3384 C3390 1.368 . S
C3385 C3369 1.349 . S
C3385 H3377 0.950 . S
C3385 C3383 1.327 . S
C3386 C3374 1.349 . S
C3386 H3380 0.950 . S
C3386 C3387 1.327 . S
C3387 H3381 0.950 . S
C3387 C3386 1.327 . S
C3387 C3391 1.429 . S
C3388 C3371 1.574 . S
C3388 H3382 0.949 . S
C3388 C3392 1.368 . S
C3389 C3370 1.429 . S
C3389 C3383 1.429 . S
C3389 C3390 1.523 . S
C3390 C3371 1.368 . S
C3390 C3384 1.368 . S
C3390 C3389 1.523 . S
C3391 C3375 1.429 . S
C3391 C3387 1.429 . S
C3391 C3392 1.523 . S
C3392 C3376 1.368 . S
C3392 C3388 1.368 . S
C3392 C3391 1.523 . S
H3393 C3368 0.950 . S
H3394 C3370 0.950 . S
H3395 C3371 0.949 . S
H3396 C3373 0.950 . S
H3397 C3375 0.950 . S
C3398 C3399 1.349 . S
C3398 C3400 1.327 . S
C3398 H3423 0.950 . S
C3399 C3398 1.349 . S
C3399 C3415 1.349 . S
C3400 C3398 1.327 . S
C3400 C3419 1.429 . S
C3400 H3424 0.950 . S
C3401 C3418 1.574 1_556 S
C3401 C3420 1.368 . S
C3401 H3425 0.949 . S
H3402 C3406 0.949 . S
C3403 C3404 1.349 . S
C3403 C3405 1.327 . S
C3403 H3426 0.950 . S
C3404 C3403 1.349 . S
C3404 C3416 1.349 . S
C3405 C3403 1.327 . S
C3405 C3421 1.429 . S
C3405 H3427 0.950 . S
C3406 H3402 0.949 . S
C3406 C3414 1.574 1_554 S
C3406 C3422 1.368 . S
H3407 C3415 0.950 . S
H3408 C3413 0.950 . S
H3409 C3414 0.949 . S
H3410 C3416 0.950 . S
H3411 C3417 0.950 . S
H3412 C3418 0.949 . S
C3413 H3408 0.950 . S
C3413 C3415 1.327 . S
C3413 C3419 1.429 . S
C3414 C3406 1.574 1_556 S
C3414 H3409 0.949 . S
C3414 C3420 1.368 . S
C3415 C3399 1.349 . S
C3415 H3407 0.950 . S
C3415 C3413 1.327 . S
C3416 C3404 1.349 . S
C3416 H3410 0.950 . S
C3416 C3417 1.327 . S
C3417 H3411 0.950 . S
C3417 C3416 1.327 . S
C3417 C3421 1.429 . S
C3418 C3401 1.574 1_554 S
C3418 H3412 0.949 . S
C3418 C3422 1.368 . S
C3419 C3400 1.429 . S
C3419 C3413 1.429 . S
C3419 C3420 1.523 . S
C3420 C3401 1.368 . S
C3420 C3414 1.368 . S
C3420 C3419 1.523 . S
C3421 C3405 1.429 . S
C3421 C3417 1.429 . S
C3421 C3422 1.523 . S
C3422 C3406 1.368 . S
C3422 C3418 1.368 . S
C3422 C3421 1.523 . S
H3423 C3398 0.950 . S
H3424 C3400 0.950 . S
H3425 C3401 0.949 . S
H3426 C3403 0.950 . S
H3427 C3405 0.950 . S
C3428 C3429 1.349 . S
C3428 C3430 1.327 . S
C3428 H3453 0.950 . S
C3429 C3428 1.349 . S
C3429 C3445 1.349 . S
C3430 C3428 1.327 . S
C3430 C3449 1.429 . S
C3430 H3454 0.950 . S
C3431 C3448 1.574 . S
C3431 C3450 1.368 . S
C3431 H3455 0.949 . S
H3432 C3436 0.949 . S
C3433 C3434 1.349 . S
C3433 C3435 1.327 . S
C3433 H3456 0.950 . S
C3434 C3433 1.349 . S
C3434 C3446 1.349 . S
C3435 C3433 1.327 . S
C3435 C3451 1.429 . S
C3435 H3457 0.950 . S
C3436 H3432 0.949 . S
C3436 C3444 1.574 . S
C3436 C3452 1.368 . S
H3437 C3445 0.950 . S
H3438 C3443 0.950 . S
H3439 C3444 0.949 . S
H3440 C3446 0.950 . S
H3441 C3447 0.950 . S
H3442 C3448 0.949 . S
C3443 H3438 0.950 . S
C3443 C3445 1.327 . S
C3443 C3449 1.429 . S
C3444 C3436 1.574 . S
C3444 H3439 0.949 . S
C3444 C3450 1.368 . S
C3445 C3429 1.349 . S
C3445 H3437 0.950 . S
C3445 C3443 1.327 . S
C3446 C3434 1.349 . S
C3446 H3440 0.950 . S
C3446 C3447 1.327 . S
C3447 H3441 0.950 . S
C3447 C3446 1.327 . S
C3447 C3451 1.429 . S
C3448 C3431 1.574 . S
C3448 H3442 0.949 . S
C3448 C3452 1.368 . S
C3449 C3430 1.429 . S
C3449 C3443 1.429 . S
C3449 C3450 1.523 . S
C3450 C3431 1.368 . S
C3450 C3444 1.368 . S
C3450 C3449 1.523 . S
C3451 C3435 1.429 . S
C3451 C3447 1.429 . S
C3451 C3452 1.523 . S
C3452 C3436 1.368 . S
C3452 C3448 1.368 . S
C3452 C3451 1.523 . S
H3453 C3428 0.950 . S
H3454 C3430 0.950 . S
H3455 C3431 0.949 . S
H3456 C3433 0.950 . S
H3457 C3435 0.950 . S
C3458 C3459 1.349 . S
C3458 C3460 1.327 . S
C3458 H3483 0.950 . S
C3459 C3458 1.349 . S
C3459 C3475 1.349 . S
C3460 C3458 1.327 . S
C3460 C3479 1.429 . S
C3460 H3484 0.950 . S
C3461 C3478 1.574 . S
C3461 C3480 1.368 . S
C3461 H3485 0.949 . S
H3462 C3466 0.949 . S
C3463 C3464 1.349 . S
C3463 C3465 1.327 . S
C3463 H3486 0.950 . S
C3464 C3463 1.349 . S
C3464 C3476 1.349 . S
C3465 C3463 1.327 . S
C3465 C3481 1.429 . S
C3465 H3487 0.950 . S
C3466 H3462 0.949 . S
C3466 C3474 1.574 . S
C3466 C3482 1.368 . S
H3467 C3475 0.950 . S
H3468 C3473 0.950 . S
H3469 C3474 0.949 . S
H3470 C3476 0.950 . S
H3471 C3477 0.950 . S
H3472 C3478 0.949 . S
C3473 H3468 0.950 . S
C3473 C3475 1.327 . S
C3473 C3479 1.429 . S
C3474 C3466 1.574 . S
C3474 H3469 0.949 . S
C3474 C3480 1.368 . S
C3475 C3459 1.349 . S
C3475 H3467 0.950 . S
C3475 C3473 1.327 . S
C3476 C3464 1.349 . S
C3476 H3470 0.950 . S
C3476 C3477 1.327 . S
C3477 H3471 0.950 . S
C3477 C3476 1.327 . S
C3477 C3481 1.429 . S
C3478 C3461 1.574 . S
C3478 H3472 0.949 . S
C3478 C3482 1.368 . S
C3479 C3460 1.429 . S
C3479 C3473 1.429 . S
C3479 C3480 1.523 . S
C3480 C3461 1.368 . S
C3480 C3474 1.368 . S
C3480 C3479 1.523 . S
C3481 C3465 1.429 . S
C3481 C3477 1.429 . S
C3481 C3482 1.523 . S
C3482 C3466 1.368 . S
C3482 C3478 1.368 . S
C3482 C3481 1.523 . S
H3483 C3458 0.950 . S
H3484 C3460 0.950 . S
H3485 C3461 0.949 . S
H3486 C3463 0.950 . S
H3487 C3465 0.950 . S
C1089 C20 1.207 . S
C1094 C985 1.191 . S
C1119 C54 1.207 . S
C1124 C475 1.191 . S
C1149 C88 1.207 . S
C1154 C1053 1.191 . S
C1179 C122 1.207 . S
C1184 C543 1.191 . S
C1209 C849 1.191 . S
C1214 C156 1.207 . S
C1239 C190 1.207 . S
C1244 C339 1.191 . S
C1269 C224 1.207 . S
C1274 C917 1.191 . S
C1299 C407 1.191 . S
C1304 C258 1.207 . S
C1329 C713 1.191 . S
C1334 C292 1.207 . S
C1359 C326 1.207 . S
C1364 C203 1.191 . S
C1389 C360 1.207 . S
C1394 C781 1.191 . S
C1419 C271 1.191 . S
C1424 C394 1.207 . S
C1449 C577 1.191 . S
C1454 C428 1.207 . S
C1479 C67 1.191 . S
C1484 C462 1.207 . S
C1509 C496 1.207 . S
C1514 C645 1.191 . S
C1539 C530 1.207 . S
C1544 C135 1.191 . S
C1569 C564 1.207 . S
C1574 C441 1.191 . S
C1599 C1019 1.191 . S
C1604 C598 1.207 . S
C1629 C509 1.191 . S
C1634 C632 1.207 . S
C1659 C1087 1.191 . S
C1664 C666 1.207 . S
C1689 C305 1.191 . S
C1694 C700 1.207 . S
C1719 C734 1.207 . S
C1724 C883 1.191 . S
C1749 C373 1.191 . S
C1754 C768 1.207 . S
C1779 C951 1.191 . S
C1784 C802 1.207 . S
C1809 C169 1.191 . S
C1814 C836 1.207 . S
C1839 C747 1.191 . S
C1844 C870 1.207 . S
C1869 C237 1.191 . S
C1874 C904 1.207 . S
C1899 C815 1.191 . S
C1904 C938 1.207 . S
C1929 C33 1.191 . S
C1934 C972 1.207 . S
C1959 C611 1.191 . S
C1964 C1006 1.207 . S
C1989 C1040 1.207 . S
C1994 C101 1.191 . S
C2019 C679 1.191 . S
C2024 C1074 1.207 . S
C2049 C614 0.553 . S
C2054 C2 0.553 . S
C2079 C36 0.553 . S
C2084 C648 0.553 . S
C2109 C546 0.553 . S
C2114 C70 0.553 . S
C2139 C104 0.553 . S
C2144 C580 0.553 . S
C2169 C750 0.553 . S
C2174 C138 0.553 . S
C2199 C784 0.553 . S
C2204 C172 0.553 . S
C2229 C206 0.553 . S
C2234 C682 0.553 . S
C2259 C716 0.553 . S
C2264 C240 0.553 . S
C2289 C274 0.553 . S
C2294 C886 0.553 . S
C2319 C308 0.553 . S
C2324 C920 0.553 . S
C2349 C818 0.553 . S
C2354 C342 0.553 . S
C2379 C852 0.553 . S
C2384 C376 0.553 . S
C2409 C410 0.553 . S
C2414 C1022 0.553 . S
C2439 C1056 0.553 . S
C2444 C444 0.553 . S
C2469 C954 0.553 . S
C2474 C478 0.553 . S
C2499 C988 0.553 . S
C2504 C512 0.553 . S
C2529 C5 1.527 . S
C2534 C175 1.527 . S
C2559 C39 1.527 . S
C2564 C209 1.527 . S
C2589 C73 1.527 . S
C2594 C243 1.527 . S
C2619 C107 1.527 . S
C2624 C141 1.527 . S
C2649 C277 1.527 . S
C2654 C447 1.527 . S
C2679 C481 1.527 . S
C2684 C311 1.527 . S
C2709 C515 1.527 . S
C2714 C345 1.527 . S
C2739 C413 1.527 . S
C2744 C379 1.527 . S
C2769 C549 1.527 . S
C2774 C719 1.527 . S
C2799 C583 1.527 . S
C2804 C753 1.527 . S
C2829 C787 1.527 . S
C2834 C617 1.527 . S
C2859 C685 1.527 . S
C2864 C651 1.527 . S
C2889 C821 1.527 . S
C2894 C991 1.527 . S
C2919 C1025 1.527 . S
C2924 C855 1.527 . S
C2949 C1059 1.527 . S
C2954 C889 1.527 . S
C2979 C923 1.527 . S
C2984 C957 1.527 . S
C3009 C145 1.435 . S
C3014 C9 1.435 . S
C3039 C43 1.435 . S
C3044 C179 1.435 . S
C3069 C77 1.435 . S
C3074 C213 1.435 . S
C3099 C111 1.435 . S
C3104 C247 1.435 . S
C3129 C417 1.435 . S
C3134 C281 1.435 . S
C3159 C315 1.435 . S
C3164 C451 1.435 . S
C3189 C485 1.435 . S
C3194 C349 1.435 . S
C3219 C383 1.435 . S
C3224 C519 1.435 . S
C3249 C553 1.435 . S
C3254 C689 1.435 . S
C3279 C723 1.435 . S
C3284 C587 1.435 . S
C3309 C757 1.435 . S
C3314 C621 1.435 . S
C3339 C791 1.435 . S
C3344 C655 1.435 . S
C3369 C825 1.435 . S
C3374 C961 1.435 . S
C3399 C859 1.435 . S
C3404 C995 1.435 . S
C3429 C893 1.435 . S
C3434 C1029 1.435 . S
C3459 C927 1.435 . S
C3464 C1063 1.435 . S
