# Generated by pormake.
# Topology lcy, (6)-cn, num edge types: 1
# Building blocks:
#     Node 0, Type 0, BuildingBlock: LEVNOQ01_clean_sbu_1, # of connection points: 6
#     Node 1, Type 0, BuildingBlock: LEVNOQ01_clean_sbu_1, # of connection points: 6
#     Node 2, Type 0, BuildingBlock: LEVNOQ01_clean_sbu_1, # of connection points: 6
#     Node 3, Type 0, BuildingBlock: LEVNOQ01_clean_sbu_1, # of connection points: 6
#     Edge 4, Type (0, 0), BuildingBlock: KIFKEQ_clean_linker_1, # of connection points: 2
#     Edge 5, Type (0, 0), BuildingBlock: KIFKEQ_clean_linker_1, # of connection points: 2
#     Edge 6, Type (0, 0), BuildingBlock: KIFKEQ_clean_linker_1, # of connection points: 2
#     Edge 7, Type (0, 0), BuildingBlock: KIFKEQ_clean_linker_1, # of connection points: 2
#     Edge 8, Type (0, 0), BuildingBlock: KIFKEQ_clean_linker_1, # of connection points: 2
#     Edge 9, Type (0, 0), BuildingBlock: KIFKEQ_clean_linker_1, # of connection points: 2
#     Edge 10, Type (0, 0), BuildingBlock: KIFKEQ_clean_linker_1, # of connection points: 2
#     Edge 11, Type (0, 0), BuildingBlock: KIFKEQ_clean_linker_1, # of connection points: 2
#     Edge 12, Type (0, 0), BuildingBlock: KIFKEQ_clean_linker_1, # of connection points: 2
#     Edge 13, Type (0, 0), BuildingBlock: KIFKEQ_clean_linker_1, # of connection points: 2
#     Edge 14, Type (0, 0), BuildingBlock: KIFKEQ_clean_linker_1, # of connection points: 2
#     Edge 15, Type (0, 0), BuildingBlock: KIFKEQ_clean_linker_1, # of connection points: 2
# Relax obj value: 0.335
# Max RMSD: 0.279
# Mean RMSD: 0.277
data_MOF--net-lcy--node1-LEVNOQ01_clean_sbu_1--edge1-KIFKEQ_clean_linker_1
_symmetry_space_group_name_H-M    P1
_symmetry_Int_Tables_number       1
_symmetry_cell_setting            triclinic
loop_
_symmetry_equiv_pos_as_xyz
'x, y, z'
_cell_length_a     26.756318
_cell_length_b     24.261659
_cell_length_c     26.877163
_cell_angle_alpha  90.075067
_cell_angle_beta   89.798278
_cell_angle_gamma 90.396429
loop_
_atom_site_label
_atom_site_type_symbol
_atom_site_fract_x
_atom_site_fract_y
_atom_site_fract_z
_atom_type_partial_charge
O0 O 0.43861 0.30439 0.47124 0.0
Mg1 Mg 0.40583 0.37599 0.44313 0.0
O2 O 0.41814 0.28247 0.39537 0.0
Mg3 Mg 0.35614 0.33907 0.36179 0.0
O4 O 0.32929 0.38595 0.43687 0.0
O5 O 0.37725 0.41668 0.50028 0.0
O6 O 0.29991 0.39386 0.31451 0.0
O7 O 0.29317 0.27931 0.38477 0.0
Mg8 Mg 0.30892 0.26864 0.26508 0.0
O9 O 0.37589 0.28428 0.29649 0.0
O10 O 0.28506 0.34671 0.24423 0.0
O11 O 0.26337 0.23065 0.32114 0.0
O12 O 0.37023 0.23049 0.23082 0.0
C13 C 0.44414 0.4382 0.35895 0.0
C14 C 0.44296 0.27259 0.43455 0.0
C15 C 0.33403 0.41031 0.48014 0.0
C16 C 0.282 0.39021 0.27026 0.0
C17 C 0.2625 0.24404 0.36694 0.0
C18 C 0.39743 0.25116 0.2657 0.0
O19 O 0.4504 0.43241 0.40513 0.0
O20 O 0.414 0.40644 0.33573 0.0
O21 O 0.8768 0.97555 0.52043 0.0
Mg22 Mg 0.93089 0.01871 0.56226 0.0
O23 O 0.82417 0.04261 0.53741 0.0
Mg24 Mg 0.84951 0.10028 0.60095 0.0
O25 O 0.90679 0.0379 0.63235 0.0
O26 O 0.96982 -0.01977 0.61686 0.0
O27 O 0.87548 0.16618 0.66124 0.0
O28 O 0.79816 0.05239 0.65626 0.0
Mg29 Mg 0.76072 0.16086 0.63825 0.0
O30 O 0.78563 0.15357 0.56684 0.0
O31 O 0.80567 0.20666 0.68487 0.0
O32 O 0.72472 0.09079 0.6667 0.0
O33 O 0.7223 0.20809 0.59046 0.0
C34 C 0.94699 0.13388 0.52589 0.0
C35 C 0.83573 -0.00032 0.51282 0.0
C36 C 0.93966 0.0029 0.64824 0.0
C37 C 0.85263 0.20276 0.68688 0.0
C38 C 0.75429 0.05146 0.67476 0.0
C39 C 0.74877 0.18599 0.55561 0.0
O40 O 0.96447 0.08564 0.52734 0.0
O41 O 0.90655 0.14678 0.54842 0.0
O42 O 0.21653 0.71796 0.83129 0.0
Mg43 Mg 0.17184 0.68787 0.77151 0.0
O44 O 0.18122 0.67014 0.893 0.0
Mg45 Mg 0.11354 0.6186 0.86442 0.0
O46 O 0.10333 0.67694 0.80071 0.0
O47 O 0.11446 0.73419 0.73851 0.0
O48 O 0.05114 0.56049 0.83125 0.0
O49 O 0.05493 0.6804 0.89963 0.0
Mg50 Mg 0.0545 0.57881 0.94121 0.0
O51 O 0.13057 0.56529 0.93783 0.0
O52 O 0.00723 0.53299 0.89585 0.0
O53 O 0.02719 0.65187 0.97177 0.0
O54 O 0.0778 0.52917 -0.00497 0.0
C55 C 0.1873 0.56321 0.77364 0.0
C56 C 0.21492 0.70316 0.8767 0.0
C57 C 0.08506 0.71386 0.77186 0.0
C58 C 0.01574 0.53152 0.84971 0.0
C59 C 0.02853 0.68835 0.93853 0.0
C60 C 0.12252 0.53664 0.97833 0.0
O61 O 0.18977 0.60798 0.74934 0.0
O62 O 0.16658 0.55972 0.81684 0.0
O63 O 0.74207 0.83441 0.18153 0.0
Mg64 Mg 0.71028 0.76359 0.14742 0.0
O65 O 0.68555 0.89551 0.15686 0.0
Mg66 Mg 0.62935 0.85333 0.10375 0.0
O67 O 0.68801 0.79053 0.08035 0.0
O68 O 0.74436 0.72492 0.08743 0.0
O69 O 0.56981 0.80662 0.05409 0.0
O70 O 0.66041 0.90232 0.03623 0.0
Mg71 Mg 0.5489 0.9348 0.05972 0.0
O72 O 0.57705 0.92392 0.1291 0.0
O73 O 0.50883 0.86546 0.03723 0.0
O74 O 0.60497 0.96372 0.01108 0.0
O75 O 0.51793 -0.01455 0.11183 0.0
C76 C 0.60707 0.75431 0.19083 0.0
C77 C 0.7244 0.88298 0.18173 0.0
C78 C 0.72202 0.76038 0.05978 0.0
C79 C 0.52679 0.81742 0.0361 0.0
C80 C 0.64728 0.94091 0.00698 0.0
C81 C 0.54786 0.96346 0.14353 0.0
O82 O 0.6487 0.7307 0.18456 0.0
O83 O 0.59583 0.79893 0.16827 0.0
H84 H 0.13637 0.43433 0.01374 0.0
H85 H 0.19528 0.59995 0.02083 0.0
H86 H 0.1777 0.41226 0.09177 0.0
H87 H 0.23684 0.57802 0.09975 0.0
H88 H 0.3316 0.47199 0.22245 0.0
H89 H 0.30081 0.51315 0.14522 0.0
H90 H 0.15337 0.44895 0.17723 0.0
H91 H 0.18434 0.40768 0.2537 0.0
C92 C 0.16004 0.46528 0.031 0.0
C93 C 0.16313 0.51857 0.01108 0.0
C94 C 0.18285 0.45309 0.07618 0.0
C95 C 0.20895 0.49407 0.10269 0.0
C96 C 0.21647 0.54587 0.08034 0.0
C97 C 0.19348 0.55812 0.03478 0.0
C98 C 0.29196 0.4698 0.21444 0.0
C99 C 0.26012 0.43733 0.24432 0.0
C100 C 0.27456 0.49248 0.16978 0.0
C101 C 0.22515 0.48264 0.15451 0.0
C102 C 0.192 0.45603 0.18754 0.0
C103 C 0.20936 0.43355 0.23199 0.0
H104 H 0.81836 0.88919 0.21883 0.0
H105 H 0.67131 0.95995 0.23326 0.0
H106 H 0.84015 0.9243 0.3009 0.0
H107 H 0.69306 -0.00532 0.31592 0.0
H108 H 0.83029 0.90057 0.46563 0.0
H109 H 0.80253 0.88472 0.38044 0.0
H110 H 0.75289 0.05335 0.37082 0.0
H111 H 0.78099 0.06934 0.45602 0.0
C112 C 0.79132 0.91386 0.23887 0.0
C113 C 0.74292 0.92094 0.22025 0.0
C114 C 0.80354 0.93336 0.28599 0.0
C115 C 0.76749 0.96007 0.31527 0.0
C116 C 0.72119 0.97341 0.29423 0.0
C117 C 0.70897 0.954 0.24676 0.0
C118 C 0.81234 0.9338 0.44576 0.0
C119 C 0.8076 -0.01397 0.46746 0.0
C120 C 0.79701 0.92501 0.39692 0.0
C121 C 0.777 0.96838 0.36881 0.0
C122 C 0.76851 0.01942 0.39167 0.0
C123 C 0.78392 0.02824 0.44067 0.0
H124 H 0.28269 0.53997 0.75088 0.0
H125 H 0.13121 0.48386 0.72909 0.0
H126 H 0.30746 0.49618 0.67301 0.0
H127 H 0.15602 0.43964 0.65061 0.0
H128 H 0.26514 0.34414 0.52548 0.0
H129 H 0.22426 0.36744 0.60483 0.0
H130 H 0.27179 0.53658 0.58732 0.0
H131 H 0.31212 0.51338 0.50863 0.0
C132 C 0.25536 0.5153 0.73097 0.0
C133 C 0.20522 0.51469 0.74633 0.0
C134 C 0.26925 0.49126 0.68584 0.0
C135 C 0.23327 0.46596 0.65525 0.0
C136 C 0.18435 0.45922 0.67342 0.0
C137 C 0.17037 0.48364 0.71876 0.0
C138 C 0.26414 0.38684 0.53726 0.0
C139 C 0.29118 0.4272 0.51074 0.0
C140 C 0.24155 0.39993 0.58304 0.0
C141 C 0.24629 0.45338 0.60272 0.0
C142 C 0.26853 0.49477 0.57339 0.0
C143 C 0.29074 0.48179 0.52789 0.0
H144 H 0.65069 0.03642 0.95495 0.0
H145 H 0.70644 0.8698 0.95526 0.0
H146 H 0.67989 0.04776 0.86951 0.0
H147 H 0.73726 0.882 0.86995 0.0
H148 H 0.81945 -0.00086 0.73549 0.0
H149 H 0.80031 0.96126 0.81748 0.0
H150 H 0.64305 -0.0159 0.7902 0.0
H151 H 0.66195 0.02037 0.70749 0.0
C152 C 0.67057 0.00286 0.9373 0.0
C153 C 0.67667 0.95238 0.9618 0.0
C154 C 0.68683 0.00916 0.88843 0.0
C155 C 0.70962 0.96523 0.86334 0.0
C156 C 0.71946 0.91618 0.8888 0.0
C157 C 0.70268 0.90965 0.93779 0.0
C158 C 0.78073 -0.00713 0.74567 0.0
C159 C 0.74219 0.01271 0.71519 0.0
C160 C 0.76988 0.97185 0.79285 0.0
C161 C 0.72043 0.97105 0.80999 0.0
C162 C 0.68156 -0.01487 0.77757 0.0
C163 C 0.69235 0.00568 0.73036 0.0
H164 H 0.0104 0.20368 0.57141 0.0
H165 H 0.95947 0.14978 0.42738 0.0
H166 H 0.0896 0.23332 0.53504 0.0
H167 H 0.03748 0.18197 0.38992 0.0
H168 H 0.19954 0.15615 0.35339 0.0
H169 H 0.11778 0.14235 0.39159 0.0
H170 H 0.14136 0.28693 0.48307 0.0
H171 H 0.22394 0.29895 0.44661 0.0
C172 C 0.01507 0.20153 0.53137 0.0
C173 C 0.97893 0.17512 0.50198 0.0
C174 C 0.06075 0.21781 0.5105 0.0
C175 C 0.07066 0.20829 0.45975 0.0
C176 C 0.03181 0.18807 0.42946 0.0
C177 C -0.01347 0.17105 0.45052 0.0
C178 C 0.18763 0.18421 0.38241 0.0
C179 C 0.21822 0.22852 0.39693 0.0
C180 C 0.14036 0.17703 0.40371 0.0
C181 C 0.12219 0.21459 0.43937 0.0
C182 C 0.15393 0.25726 0.4557 0.0
C183 C 0.20154 0.2639 0.43498 0.0
H184 H 0.00109 0.71368 0.71644 0.0
H185 H 0.06794 0.78403 0.84771 0.0
H186 H 0.94372 0.79069 0.71178 0.0
H187 H 0.01033 0.86165 0.84357 0.0
H188 H 0.8667 0.93542 0.68109 0.0
H189 H 0.88115 0.85886 0.73794 0.0
H190 H 0.02375 0.93069 0.77762 0.0
H191 H 0.00854 0.00707 0.72148 0.0
C192 C 0.00129 0.74401 0.74608 0.0
C193 C 0.03844 0.74291 0.78256 0.0
C194 C 0.96842 0.78838 0.74354 0.0
C195 C 0.97304 0.83302 0.77685 0.0
C196 C 0.00621 0.82827 0.81707 0.0
C197 C 0.03887 0.78358 0.81974 0.0
C198 C 0.89935 0.93677 0.70482 0.0
C199 C 0.93627 0.97738 0.69754 0.0
C200 C 0.90801 0.89245 0.73683 0.0
C201 C 0.95406 0.88793 0.76149 0.0
C202 C -0.01227 0.93278 0.7595 0.0
C203 C 0.97906 0.97691 0.72738 0.0
H204 H 0.27845 0.79041 0.8669 0.0
H205 H 0.25117 0.64522 0.95605 0.0
H206 H 0.35934 0.80267 0.90645 0.0
H207 H 0.33297 0.65707 -0.00464 0.0
H208 H 0.51671 0.79059 0.93936 0.0
H209 H 0.43957 0.75479 0.90299 0.0
H210 H 0.38239 0.71957 0.05016 0.0
H211 H 0.46036 0.7542 0.08611 0.0
C212 C 0.28951 0.76149 0.89544 0.0
C213 C 0.25845 0.71685 0.90825 0.0
C214 C 0.33621 0.76797 0.91758 0.0
C215 C 0.35327 0.72975 0.95285 0.0
C216 C 0.32106 0.68687 0.96796 0.0
C217 C 0.27401 0.68047 0.94583 0.0
C218 C 0.48876 0.77222 0.96359 0.0
C219 C 0.49442 0.77444 0.01532 0.0
C220 C 0.44417 0.75283 0.94297 0.0
C221 C 0.40428 0.73614 0.97387 0.0
C222 C 0.41228 0.73241 0.0254 0.0
C223 C 0.45711 0.75163 0.04599 0.0
H224 H 0.41858 0.18357 0.34228 0.0
H225 H 0.48049 0.25337 0.20815 0.0
H226 H 0.4784 0.10814 0.33769 0.0
H227 H 0.5398 0.17812 0.20281 0.0
H228 H 0.62082 0.0334 0.1733 0.0
H229 H 0.60501 0.1121 0.22796 0.0
H230 H 0.46526 0.03718 0.27354 0.0
H231 H 0.48129 0.95951 0.21893 0.0
C232 C 0.44709 0.18463 0.31357 0.0
C233 C 0.44545 0.22455 0.27585 0.0
C234 C 0.48098 0.14102 0.31056 0.0
C235 C 0.51327 0.13636 0.26937 0.0
C236 C 0.51583 0.18038 0.2353 0.0
C237 C 0.48184 0.22378 0.23827 0.0
C238 C 0.58841 0.03226 0.1976 0.0
C239 C 0.55225 -0.00949 0.19217 0.0
C240 C 0.57902 0.07767 0.22844 0.0
C241 C 0.53336 0.08165 0.2543 0.0
C242 C 0.50093 0.03566 0.25443 0.0
C243 C 0.51012 -0.00927 0.22324 0.0
H244 H 0.71066 0.09774 0.50906 0.0
H245 H 0.72984 0.27367 0.49653 0.0
H246 H 0.63518 0.10252 0.45861 0.0
H247 H 0.65509 0.27841 0.44502 0.0
H248 H 0.47694 0.20042 0.50402 0.0
H249 H 0.56206 0.16456 0.50897 0.0
H250 H 0.59681 0.23659 0.36621 0.0
H251 H 0.51138 0.27121 0.36066 0.0
C252 C 0.70109 0.13675 0.49208 0.0
C253 C 0.72619 0.18531 0.50614 0.0
C254 C 0.65745 0.13953 0.46384 0.0
C255 C 0.63927 0.19083 0.44854 0.0
C256 C 0.66868 0.23829 0.45608 0.0
C257 C 0.71172 0.23561 0.4852 0.0
C258 C 0.50205 0.20612 0.47271 0.0
C259 C 0.48751 0.23761 0.43168 0.0
C260 C 0.55062 0.18558 0.47538 0.0
C261 C 0.58565 0.1976 0.43769 0.0
C262 C 0.57022 0.22618 0.39526 0.0
C263 C 0.52133 0.24565 0.3921 0.0
H264 H 0.04169 0.48788 0.75848 0.0
H265 H 0.93071 0.47784 0.87533 0.0
H266 H 0.00469 0.40607 0.71886 0.0
H267 H 0.89601 0.39589 0.83805 0.0
H268 H 0.81053 0.28531 0.73958 0.0
H269 H 0.84905 0.36729 0.77126 0.0
H270 H -0.0054 0.30604 0.72929 0.0
H271 H 0.95471 0.22357 0.69317 0.0
C272 C 0.00904 0.46881 0.77522 0.0
C273 C -0.01095 0.48941 0.81996 0.0
C274 C -0.01157 0.42142 0.75308 0.0
C275 C 0.94752 0.39407 0.77535 0.0
C276 C 0.92695 0.41605 0.81922 0.0
C277 C 0.94702 0.46323 0.84083 0.0
C278 C 0.85087 0.28846 0.73713 0.0
C279 C 0.87948 0.24735 0.71374 0.0
C280 C 0.8731 0.33589 0.75572 0.0
C281 C 0.92505 0.34339 0.75331 0.0
C282 C 0.95433 0.30181 0.7312 0.0
C283 C 0.93166 0.25419 0.7113 0.0
H284 H 0.96421 0.7099 0.86371 0.0
H285 H -0.0008 0.75425 0.01508 0.0
H286 H 0.88173 0.75136 0.87266 0.0
H287 H 0.91693 0.79589 0.02416 0.0
H288 H 0.76961 0.85681 0.04397 0.0
H289 H 0.84781 0.86333 -0.00295 0.0
H290 H 0.81679 0.70497 0.93019 0.0
H291 H 0.73945 0.69824 0.97786 0.0
C292 C 0.95539 0.73141 0.89794 0.0
C293 C -0.01168 0.72961 0.93856 0.0
C294 C 0.90792 0.75463 0.90318 0.0
C295 C 0.89273 0.7767 0.94911 0.0
C296 C 0.9277 0.77991 -0.01194 0.0
C297 C 0.97485 0.75599 0.983 0.0
C298 C 0.77795 0.82516 0.01674 0.0
C299 C 0.7485 0.77705 0.01428 0.0
C300 C 0.82305 0.82861 -0.00967 0.0
C301 C 0.83886 0.78424 0.9607 0.0
C302 C 0.80559 0.74 0.95253 0.0
C303 C 0.76096 0.7362 0.97955 0.0
H304 H 0.51185 0.72206 0.16861 0.0
H305 H 0.62402 0.7186 0.28334 0.0
H306 H 0.46536 0.64842 0.2115 0.0
H307 H 0.57932 0.64503 0.32527 0.0
H308 H 0.48282 0.5277 0.40551 0.0
H309 H 0.50952 0.61407 0.36953 0.0
H310 H 0.47953 0.55019 0.22232 0.0
H311 H 0.44956 0.46359 0.25905 0.0
C312 C 0.52534 0.70703 0.20402 0.0
C313 C 0.57112 0.72583 0.22308 0.0
C314 C 0.49942 0.66424 0.22803 0.0
C315 C 0.51901 0.64014 0.27138 0.0
C316 C 0.56272 0.66267 0.29229 0.0
C317 C 0.58842 0.70501 0.26839 0.0
C318 C 0.48217 0.53156 0.36536 0.0
C319 C 0.46497 0.48817 0.33502 0.0
C320 C 0.49737 0.58144 0.34474 0.0
C321 C 0.49704 0.58912 0.29302 0.0
C322 C 0.47959 0.54592 0.26241 0.0
C323 C 0.46329 0.49598 0.28329 0.0
loop_
_geom_bond_atom_site_label_1
_geom_bond_atom_site_label_2
_geom_bond_distance
_geom_bond_site_symmetry_2
_ccdc_geom_bond_type
O0 Mg1 1.990 . S
O0 C14 1.253 . S
Mg1 O0 1.990 . S
Mg1 O4 2.180 . S
Mg1 O5 2.117 . S
Mg1 O19 2.030 . S
O2 Mg3 2.072 . S
O2 C14 1.260 . S
Mg3 O2 2.072 . S
Mg3 O4 2.099 . S
Mg3 O6 2.079 . S
Mg3 O7 2.072 . S
Mg3 O9 2.099 . S
Mg3 O20 2.079 . S
O4 Mg1 2.180 . S
O4 Mg3 2.099 . S
O4 C15 1.279 . S
O5 Mg1 2.117 . S
O5 C15 1.250 . S
O6 Mg3 2.079 . S
O6 C16 1.264 . S
O7 Mg3 2.072 . S
O7 C17 1.260 . S
Mg8 O9 2.180 . S
Mg8 O10 2.030 . S
Mg8 O11 1.990 . S
Mg8 O12 2.117 . S
O9 Mg3 2.099 . S
O9 Mg8 2.180 . S
O9 C18 1.279 . S
O10 Mg8 2.030 . S
O10 C16 1.248 . S
O11 Mg8 1.990 . S
O11 C17 1.253 . S
O12 Mg8 2.117 . S
O12 C18 1.250 . S
C13 O19 1.248 . S
C13 O20 1.264 . S
C14 O0 1.253 . S
C14 O2 1.260 . S
C15 O4 1.279 . S
C15 O5 1.250 . S
C16 O6 1.264 . S
C16 O10 1.248 . S
C17 O7 1.260 . S
C17 O11 1.253 . S
C18 O9 1.279 . S
C18 O12 1.250 . S
O19 Mg1 2.030 . S
O19 C13 1.248 . S
O20 Mg3 2.079 . S
O20 C13 1.264 . S
O21 Mg22 1.990 . S
O21 C35 1.253 . S
Mg22 O21 1.990 . S
Mg22 O25 2.180 . S
Mg22 O26 2.117 1_545 S
Mg22 O40 2.030 . S
O23 Mg24 2.072 . S
O23 C35 1.260 . S
Mg24 O23 2.072 . S
Mg24 O25 2.099 . S
Mg24 O27 2.079 . S
Mg24 O28 2.072 . S
Mg24 O30 2.099 . S
Mg24 O41 2.079 . S
O25 Mg22 2.180 . S
O25 Mg24 2.099 . S
O25 C36 1.279 . S
O26 Mg22 2.117 1_565 S
O26 C36 1.250 1_565 S
O27 Mg24 2.079 . S
O27 C37 1.264 . S
O28 Mg24 2.072 . S
O28 C38 1.260 . S
Mg29 O30 2.180 . S
Mg29 O31 2.030 . S
Mg29 O32 1.990 . S
Mg29 O33 2.117 . S
O30 Mg24 2.099 . S
O30 Mg29 2.180 . S
O30 C39 1.279 . S
O31 Mg29 2.030 . S
O31 C37 1.248 . S
O32 Mg29 1.990 . S
O32 C38 1.253 . S
O33 Mg29 2.117 . S
O33 C39 1.250 . S
C34 O40 1.248 . S
C34 O41 1.264 . S
C35 O21 1.253 . S
C35 O23 1.260 . S
C36 O25 1.279 . S
C36 O26 1.250 1_545 S
C37 O27 1.264 . S
C37 O31 1.248 . S
C38 O28 1.260 . S
C38 O32 1.253 . S
C39 O30 1.279 . S
C39 O33 1.250 . S
O40 Mg22 2.030 . S
O40 C34 1.248 . S
O41 Mg24 2.079 . S
O41 C34 1.264 . S
O42 Mg43 1.990 . S
O42 C56 1.253 . S
Mg43 O42 1.990 . S
Mg43 O46 2.180 . S
Mg43 O47 2.117 . S
Mg43 O61 2.030 . S
O44 Mg45 2.072 . S
O44 C56 1.260 . S
Mg45 O44 2.072 . S
Mg45 O46 2.099 . S
Mg45 O48 2.079 . S
Mg45 O49 2.072 . S
Mg45 O51 2.099 . S
Mg45 O62 2.079 . S
O46 Mg43 2.180 . S
O46 Mg45 2.099 . S
O46 C57 1.279 . S
O47 Mg43 2.117 . S
O47 C57 1.250 . S
O48 Mg45 2.079 . S
O48 C58 1.264 . S
O49 Mg45 2.072 . S
O49 C59 1.260 . S
Mg50 O51 2.180 . S
Mg50 O52 2.030 . S
Mg50 O53 1.990 . S
Mg50 O54 2.117 1_556 S
O51 Mg45 2.099 . S
O51 Mg50 2.180 . S
O51 C60 1.279 . S
O52 Mg50 2.030 . S
O52 C58 1.248 . S
O53 Mg50 1.990 . S
O53 C59 1.253 . S
O54 Mg50 2.117 1_554 S
O54 C60 1.250 1_554 S
C55 O61 1.248 . S
C55 O62 1.264 . S
C56 O42 1.253 . S
C56 O44 1.260 . S
C57 O46 1.279 . S
C57 O47 1.250 . S
C58 O48 1.264 . S
C58 O52 1.248 . S
C59 O49 1.260 . S
C59 O53 1.253 . S
C60 O51 1.279 . S
C60 O54 1.250 1_556 S
O61 Mg43 2.030 . S
O61 C55 1.248 . S
O62 Mg45 2.079 . S
O62 C55 1.264 . S
O63 Mg64 1.990 . S
O63 C77 1.253 . S
Mg64 O63 1.990 . S
Mg64 O67 2.180 . S
Mg64 O68 2.117 . S
Mg64 O82 2.030 . S
O65 Mg66 2.072 . S
O65 C77 1.260 . S
Mg66 O65 2.072 . S
Mg66 O67 2.099 . S
Mg66 O69 2.079 . S
Mg66 O70 2.072 . S
Mg66 O72 2.099 . S
Mg66 O83 2.079 . S
O67 Mg64 2.180 . S
O67 Mg66 2.099 . S
O67 C78 1.279 . S
O68 Mg64 2.117 . S
O68 C78 1.250 . S
O69 Mg66 2.079 . S
O69 C79 1.264 . S
O70 Mg66 2.072 . S
O70 C80 1.260 . S
Mg71 O72 2.180 . S
Mg71 O73 2.030 . S
Mg71 O74 1.990 . S
Mg71 O75 2.117 1_565 S
O72 Mg66 2.099 . S
O72 Mg71 2.180 . S
O72 C81 1.279 . S
O73 Mg71 2.030 . S
O73 C79 1.248 . S
O74 Mg71 1.990 . S
O74 C80 1.253 . S
O75 Mg71 2.117 1_545 S
O75 C81 1.250 1_545 S
C76 O82 1.248 . S
C76 O83 1.264 . S
C77 O63 1.253 . S
C77 O65 1.260 . S
C78 O67 1.279 . S
C78 O68 1.250 . S
C79 O69 1.264 . S
C79 O73 1.248 . S
C80 O70 1.260 . S
C80 O74 1.253 . S
C81 O72 1.279 . S
C81 O75 1.250 1_565 S
O82 Mg64 2.030 . S
O82 C76 1.248 . S
O83 Mg66 2.079 . S
O83 C76 1.264 . S
H84 C92 0.950 . S
H85 C97 0.950 . S
H86 C94 0.950 . S
H87 C96 0.950 . S
H88 C98 0.950 . S
H89 C100 0.950 . S
H90 C102 0.950 . S
H91 C103 0.950 . S
C92 H84 0.950 . S
C92 C93 1.386 . S
C92 C94 1.391 . S
C93 C92 1.386 . S
C93 C97 1.393 . S
C94 H86 0.950 . S
C94 C92 1.391 . S
C94 C95 1.400 . S
C95 C94 1.400 . S
C95 C96 1.398 . S
C95 C101 1.491 . S
C96 H87 0.950 . S
C96 C95 1.398 . S
C96 C97 1.391 . S
C97 H85 0.950 . S
C97 C93 1.393 . S
C97 C96 1.391 . S
C98 H88 0.950 . S
C98 C99 1.386 . S
C98 C100 1.391 . S
C99 C98 1.386 . S
C99 C103 1.393 . S
C100 H89 0.950 . S
C100 C98 1.391 . S
C100 C101 1.400 . S
C101 C95 1.491 . S
C101 C100 1.400 . S
C101 C102 1.398 . S
C102 H90 0.950 . S
C102 C101 1.398 . S
C102 C103 1.391 . S
C103 H91 0.950 . S
C103 C99 1.393 . S
C103 C102 1.391 . S
H104 C112 0.950 . S
H105 C117 0.950 . S
H106 C114 0.950 1_545 S
H107 C116 0.950 . S
H108 C118 0.950 . S
H109 C120 0.950 . S
H110 C122 0.950 . S
H111 C123 0.950 . S
C112 H104 0.950 . S
C112 C113 1.386 . S
C112 C114 1.391 . S
C113 C112 1.386 . S
C113 C117 1.393 . S
C114 H106 0.950 1_565 S
C114 C112 1.391 . S
C114 C115 1.400 . S
C115 C114 1.400 . S
C115 C116 1.398 . S
C115 C121 1.491 . S
C116 H107 0.950 . S
C116 C115 1.398 . S
C116 C117 1.391 . S
C117 H105 0.950 . S
C117 C113 1.393 . S
C117 C116 1.391 . S
C118 H108 0.950 . S
C118 C119 1.386 1_565 S
C118 C120 1.391 . S
C119 C118 1.386 1_545 S
C119 C123 1.393 . S
C120 H109 0.950 . S
C120 C118 1.391 . S
C120 C121 1.400 . S
C121 C115 1.491 . S
C121 C120 1.400 . S
C121 C122 1.398 1_565 S
C122 H110 0.950 . S
C122 C121 1.398 1_545 S
C122 C123 1.391 . S
C123 H111 0.950 . S
C123 C119 1.393 . S
C123 C122 1.391 . S
H124 C132 0.950 . S
H125 C137 0.950 . S
H126 C134 0.950 . S
H127 C136 0.950 . S
H128 C138 0.950 . S
H129 C140 0.950 . S
H130 C142 0.950 . S
H131 C143 0.950 . S
C132 H124 0.950 . S
C132 C133 1.386 . S
C132 C134 1.391 . S
C133 C132 1.386 . S
C133 C137 1.393 . S
C134 H126 0.950 . S
C134 C132 1.391 . S
C134 C135 1.400 . S
C135 C134 1.400 . S
C135 C136 1.398 . S
C135 C141 1.491 . S
C136 H127 0.950 . S
C136 C135 1.398 . S
C136 C137 1.391 . S
C137 H125 0.950 . S
C137 C133 1.393 . S
C137 C136 1.391 . S
C138 H128 0.950 . S
C138 C139 1.386 . S
C138 C140 1.391 . S
C139 C138 1.386 . S
C139 C143 1.393 . S
C140 H129 0.950 . S
C140 C138 1.391 . S
C140 C141 1.400 . S
C141 C135 1.491 . S
C141 C140 1.400 . S
C141 C142 1.398 . S
C142 H130 0.950 . S
C142 C141 1.398 . S
C142 C143 1.391 . S
C143 H131 0.950 . S
C143 C139 1.393 . S
C143 C142 1.391 . S
H144 C152 0.947 1_545 S
H145 C157 0.950 . S
H146 C154 0.950 . S
H147 C156 0.950 . S
H148 C158 0.950 . S
H149 C160 0.950 . S
H150 C162 0.950 . S
H151 C163 0.950 . S
C152 H144 0.947 1_565 S
C152 C153 1.386 . S
C152 C154 1.391 1_565 S
C153 C152 1.386 . S
C153 C157 1.393 . S
C154 H146 0.950 . S
C154 C152 1.391 1_545 S
C154 C155 1.400 . S
C155 C154 1.400 . S
C155 C156 1.398 1_545 S
C155 C161 1.491 . S
C156 H147 0.950 . S
C156 C155 1.398 1_565 S
C156 C157 1.391 . S
C157 H145 0.950 . S
C157 C153 1.393 . S
C157 C156 1.391 . S
C158 H148 0.950 . S
C158 C159 1.386 . S
C158 C160 1.391 . S
C159 C158 1.386 . S
C159 C163 1.393 . S
C160 H149 0.950 . S
C160 C158 1.391 . S
C160 C161 1.400 . S
C161 C155 1.491 . S
C161 C160 1.400 . S
C161 C162 1.398 . S
C162 H150 0.950 . S
C162 C161 1.398 . S
C162 C163 1.391 . S
C163 H151 0.950 . S
C163 C159 1.393 . S
C163 C162 1.391 . S
H164 C172 0.950 . S
H165 C177 0.950 . S
H166 C174 0.950 . S
H167 C176 0.950 . S
H168 C178 0.950 . S
H169 C180 0.950 . S
H170 C182 0.950 . S
H171 C183 0.950 . S
C172 H164 0.950 . S
C172 C173 1.386 . S
C172 C174 1.391 1_655 S
C173 C172 1.386 . S
C173 C177 1.393 1_655 S
C174 H166 0.950 . S
C174 C172 1.391 1_455 S
C174 C175 1.400 . S
C175 C174 1.400 . S
C175 C176 1.398 . S
C175 C181 1.491 . S
C176 H167 0.950 . S
C176 C175 1.398 . S
C176 C177 1.391 . S
C177 H165 0.950 . S
C177 C173 1.393 1_455 S
C177 C176 1.391 . S
C178 H168 0.950 . S
C178 C179 1.386 . S
C178 C180 1.391 . S
C179 C178 1.386 . S
C179 C183 1.393 . S
C180 H169 0.950 . S
C180 C178 1.391 . S
C180 C181 1.400 . S
C181 C175 1.491 . S
C181 C180 1.400 . S
C181 C182 1.398 . S
C182 H170 0.950 . S
C182 C181 1.398 . S
C182 C183 1.391 . S
C183 H171 0.950 . S
C183 C179 1.393 . S
C183 C182 1.391 . S
H184 C192 0.950 . S
H185 C197 0.950 1_655 S
H186 C194 0.950 . S
H187 C196 0.950 . S
H188 C198 0.948 1_545 S
H189 C200 0.950 . S
H190 C202 0.950 . S
H191 C203 0.950 . S
C192 H184 0.950 . S
C192 C193 1.386 . S
C192 C194 1.391 . S
C193 C192 1.386 . S
C193 C197 1.393 . S
C194 H186 0.950 . S
C194 C192 1.391 . S
C194 C195 1.400 . S
C195 C194 1.400 . S
C195 C196 1.398 1_455 S
C195 C201 1.491 1_455 S
C196 H187 0.950 . S
C196 C195 1.398 1_655 S
C196 C197 1.391 1_655 S
C197 H185 0.950 1_455 S
C197 C193 1.393 . S
C197 C196 1.391 1_455 S
C198 H188 0.948 1_565 S
C198 C199 1.386 1_565 S
C198 C200 1.391 . S
C199 C198 1.386 1_545 S
C199 C203 1.393 1_545 S
C200 H189 0.950 . S
C200 C198 1.391 . S
C200 C201 1.400 . S
C201 C195 1.491 1_655 S
C201 C200 1.400 . S
C201 C202 1.398 1_655 S
C202 H190 0.950 . S
C202 C201 1.398 1_455 S
C202 C203 1.391 1_455 S
C203 H191 0.950 . S
C203 C199 1.393 1_565 S
C203 C202 1.391 1_655 S
H204 C212 0.950 . S
H205 C217 0.950 . S
H206 C214 0.950 1_554 S
H207 C216 0.950 . S
H208 C218 0.950 . S
H209 C220 0.950 . S
H210 C222 0.950 . S
H211 C223 0.950 . S
C212 H204 0.950 . S
C212 C213 1.386 . S
C212 C214 1.391 . S
C213 C212 1.386 . S
C213 C217 1.393 . S
C214 H206 0.950 1_556 S
C214 C212 1.391 . S
C214 C215 1.400 . S
C215 C214 1.400 . S
C215 C216 1.398 . S
C215 C221 1.491 . S
C216 H207 0.950 . S
C216 C215 1.398 . S
C216 C217 1.391 . S
C217 H205 0.950 . S
C217 C213 1.393 . S
C217 C216 1.391 . S
C218 H208 0.950 . S
C218 C219 1.386 . S
C218 C220 1.391 . S
C219 C218 1.386 . S
C219 C223 1.393 1_556 S
C220 H209 0.950 . S
C220 C218 1.391 . S
C220 C221 1.400 . S
C221 C215 1.491 . S
C221 C220 1.400 . S
C221 C222 1.398 1_556 S
C222 H210 0.950 . S
C222 C221 1.398 1_554 S
C222 C223 1.391 . S
C223 H211 0.950 . S
C223 C219 1.393 1_554 S
C223 C222 1.391 . S
H224 C232 0.950 . S
H225 C237 0.950 . S
H226 C234 0.950 . S
H227 C236 0.950 . S
H228 C238 0.950 . S
H229 C240 0.950 . S
H230 C242 0.950 . S
H231 C243 0.950 1_565 S
C232 H224 0.950 . S
C232 C233 1.386 . S
C232 C234 1.391 . S
C233 C232 1.386 . S
C233 C237 1.393 . S
C234 H226 0.950 . S
C234 C232 1.391 . S
C234 C235 1.400 . S
C235 C234 1.400 . S
C235 C236 1.398 . S
C235 C241 1.491 . S
C236 H227 0.950 . S
C236 C235 1.398 . S
C236 C237 1.391 . S
C237 H225 0.950 . S
C237 C233 1.393 . S
C237 C236 1.391 . S
C238 H228 0.950 . S
C238 C239 1.385 . S
C238 C240 1.391 . S
C239 C238 1.385 . S
C239 C243 1.393 . S
C240 H229 0.950 . S
C240 C238 1.391 . S
C240 C241 1.400 . S
C241 C235 1.491 . S
C241 C240 1.400 . S
C241 C242 1.398 . S
C242 H230 0.950 . S
C242 C241 1.398 . S
C242 C243 1.391 . S
C243 H231 0.950 1_545 S
C243 C239 1.393 . S
C243 C242 1.391 . S
H244 C252 0.950 . S
H245 C257 0.950 . S
H246 C254 0.950 . S
H247 C256 0.950 . S
H248 C258 0.950 . S
H249 C260 0.950 . S
H250 C262 0.950 . S
H251 C263 0.950 . S
C252 H244 0.950 . S
C252 C253 1.386 . S
C252 C254 1.391 . S
C253 C252 1.386 . S
C253 C257 1.393 . S
C254 H246 0.950 . S
C254 C252 1.391 . S
C254 C255 1.400 . S
C255 C254 1.400 . S
C255 C256 1.398 . S
C255 C261 1.491 . S
C256 H247 0.950 . S
C256 C255 1.398 . S
C256 C257 1.391 . S
C257 H245 0.950 . S
C257 C253 1.393 . S
C257 C256 1.391 . S
C258 H248 0.950 . S
C258 C259 1.386 . S
C258 C260 1.391 . S
C259 C258 1.386 . S
C259 C263 1.393 . S
C260 H249 0.950 . S
C260 C258 1.391 . S
C260 C261 1.400 . S
C261 C255 1.491 . S
C261 C260 1.400 . S
C261 C262 1.398 . S
C262 H250 0.950 . S
C262 C261 1.398 . S
C262 C263 1.391 . S
C263 H251 0.950 . S
C263 C259 1.393 . S
C263 C262 1.391 . S
H264 C272 0.950 . S
H265 C277 0.950 . S
H266 C274 0.950 . S
H267 C276 0.950 . S
H268 C278 0.950 . S
H269 C280 0.950 . S
H270 C282 0.933 1_455 S
H271 C283 0.950 . S
C272 H264 0.950 . S
C272 C273 1.386 1_455 S
C272 C274 1.391 . S
C273 C272 1.386 1_655 S
C273 C277 1.393 . S
C274 H266 0.950 . S
C274 C272 1.391 . S
C274 C275 1.400 1_455 S
C275 C274 1.400 1_655 S
C275 C276 1.398 . S
C275 C281 1.491 . S
C276 H267 0.950 . S
C276 C275 1.398 . S
C276 C277 1.391 . S
C277 H265 0.950 . S
C277 C273 1.393 . S
C277 C276 1.391 . S
C278 H268 0.950 . S
C278 C279 1.386 . S
C278 C280 1.391 . S
C279 C278 1.386 . S
C279 C283 1.393 . S
C280 H269 0.950 . S
C280 C278 1.391 . S
C280 C281 1.400 . S
C281 C275 1.491 . S
C281 C280 1.400 . S
C281 C282 1.398 . S
C282 H270 0.933 1_655 S
C282 C281 1.398 . S
C282 C283 1.391 . S
C283 H271 0.950 . S
C283 C279 1.393 . S
C283 C282 1.391 . S
H284 C292 0.950 . S
H285 C297 0.950 1_455 S
H286 C294 0.950 . S
H287 C296 0.950 . S
H288 C298 0.950 . S
H289 C300 0.950 . S
H290 C302 0.950 . S
H291 C303 0.950 1_556 S
C292 H284 0.950 . S
C292 C293 1.386 . S
C292 C294 1.391 . S
C293 C292 1.386 . S
C293 C297 1.393 1_556 S
C294 H286 0.950 . S
C294 C292 1.391 . S
C294 C295 1.395 1_556 S
C295 C294 1.395 1_554 S
C295 C296 1.402 . S
C295 C301 1.492 . S
C296 H287 0.950 . S
C296 C295 1.402 . S
C296 C297 1.391 . S
C297 H285 0.950 1_655 S
C297 C293 1.393 1_554 S
C297 C296 1.391 . S
C298 H288 0.950 . S
C298 C299 1.386 . S
C298 C300 1.391 . S
C299 C298 1.386 . S
C299 C303 1.393 . S
C300 H289 0.950 . S
C300 C298 1.391 . S
C300 C301 1.400 . S
C301 C295 1.492 . S
C301 C300 1.400 . S
C301 C302 1.398 1_554 S
C302 H290 0.950 . S
C302 C301 1.398 1_556 S
C302 C303 1.391 1_556 S
C303 H291 0.950 1_554 S
C303 C299 1.393 . S
C303 C302 1.391 1_554 S
H304 C312 0.950 . S
H305 C317 0.950 . S
H306 C314 0.950 . S
H307 C316 0.950 . S
H308 C318 0.950 . S
H309 C320 0.950 . S
H310 C322 0.950 . S
H311 C323 0.950 . S
C312 H304 0.950 . S
C312 C313 1.386 . S
C312 C314 1.391 . S
C313 C312 1.386 . S
C313 C317 1.393 . S
C314 H306 0.950 . S
C314 C312 1.391 . S
C314 C315 1.400 . S
C315 C314 1.400 . S
C315 C316 1.398 . S
C315 C321 1.491 . S
C316 H307 0.950 . S
C316 C315 1.398 . S
C316 C317 1.391 . S
C317 H305 0.950 . S
C317 C313 1.393 . S
C317 C316 1.391 . S
C318 H308 0.950 . S
C318 C319 1.386 . S
C318 C320 1.391 . S
C319 C318 1.386 . S
C319 C323 1.393 . S
C320 H309 0.950 . S
C320 C318 1.391 . S
C320 C321 1.400 . S
C321 C315 1.491 . S
C321 C320 1.400 . S
C321 C322 1.398 . S
C322 H310 0.950 . S
C322 C321 1.398 . S
C322 C323 1.391 . S
C323 H311 0.950 . S
C323 C319 1.393 . S
C323 C322 1.391 . S
C93 C60 1.452 1_554 S
C99 C16 1.600 . S
C113 C77 1.299 . S
C119 C35 1.270 . S
C133 C55 1.600 . S
C139 C15 1.454 . S
C153 C80 1.283 1_556 S
C159 C38 1.299 . S
C173 C34 1.634 . S
C179 C17 1.733 . S
C193 C57 1.240 . S
C199 C36 1.222 . S
C213 C56 1.749 . S
C219 C79 1.637 1_556 S
C233 C18 1.191 . S
C239 C81 1.219 1_545 S
C253 C39 1.058 . S
C259 C14 1.226 . S
C273 C58 0.930 1_655 S
C279 C37 0.937 . S
C293 C59 1.225 1_655 S
C299 C78 1.077 . S
C313 C76 0.919 . S
C319 C13 0.928 . S
