# Generated by pormake.
# Topology qtz-x, (6)-cn, num edge types: 1
# Building blocks:
#     Node 0, Type 0, BuildingBlock: MIFKUJ_clean_sbu_0, # of connection points: 6
#     Node 1, Type 0, BuildingBlock: MIFKUJ_clean_sbu_0, # of connection points: 6
#     Node 2, Type 0, BuildingBlock: MIFKUJ_clean_sbu_0, # of connection points: 6
#     Edge 3, Type (0, 0), BuildingBlock: FUNLAD_clean_linker_1, # of connection points: 2
#     Edge 4, Type (0, 0), BuildingBlock: FUNLAD_clean_linker_1, # of connection points: 2
#     Edge 5, Type (0, 0), BuildingBlock: FUNLAD_clean_linker_1, # of connection points: 2
#     Edge 6, Type (0, 0), BuildingBlock: FUNLAD_clean_linker_1, # of connection points: 2
#     Edge 7, Type (0, 0), BuildingBlock: FUNLAD_clean_linker_1, # of connection points: 2
#     Edge 8, Type (0, 0), BuildingBlock: FUNLAD_clean_linker_1, # of connection points: 2
#     Edge 9, Type (0, 0), BuildingBlock: FUNLAD_clean_linker_1, # of connection points: 2
#     Edge 10, Type (0, 0), BuildingBlock: FUNLAD_clean_linker_1, # of connection points: 2
#     Edge 11, Type (0, 0), BuildingBlock: FUNLAD_clean_linker_1, # of connection points: 2
# Relax obj value: 0.171
# Max RMSD: 0.239
# Mean RMSD: 0.238
data_MOF--net-qtz-x--node1-MIFKUJ_clean_sbu_0--edge1-FUNLAD_clean_linker_1
_symmetry_space_group_name_H-M    P1
_symmetry_Int_Tables_number       1
_symmetry_cell_setting            triclinic
loop_
_symmetry_equiv_pos_as_xyz
'x, y, z'
_cell_length_a     15.091652
_cell_length_b     14.993639
_cell_length_c     47.165469
_cell_angle_alpha  94.728284
_cell_angle_beta   89.531744
_cell_angle_gamma 121.05096
loop_
_atom_site_label
_atom_site_type_symbol
_atom_site_fract_x
_atom_site_fract_y
_atom_site_fract_z
_atom_type_partial_charge
Zn0 Zn 0.08798 0.48611 0.20709 0.0
Zn1 Zn 0.94578 0.37953 0.14897 0.0
C2 C 0.93536 0.46376 0.24629 0.0
O3 O -0.01041 0.56619 0.24672 0.0
C4 C 0.09968 0.40178 0.1102 0.0
O5 O 0.0607 0.30356 0.11489 0.0
O6 O 0.19471 0.567 0.23899 0.0
O7 O 0.11881 0.38242 0.18721 0.0
O8 O 0.95843 0.27548 0.17034 0.0
C9 C 0.21876 0.51817 0.25513 0.0
O10 O 0.18331 0.41829 0.24868 0.0
O11 O 0.95792 0.40945 0.22899 0.0
C12 C 0.81195 0.3567 0.10454 0.0
O13 O 0.85735 0.45719 0.11253 0.0
O14 O 0.83212 0.30012 0.11859 0.0
O15 O 0.91841 0.48318 0.17086 0.0
O16 O 0.08219 0.58993 0.18424 0.0
O17 O 0.06879 0.4559 0.12435 0.0
C18 C 0.04476 0.29086 0.17944 0.0
C19 C -0.00544 0.57511 0.17684 0.0
Zn20 Zn 0.45432 0.98518 0.54308 0.0
Zn21 Zn 0.50616 0.11762 0.48669 0.0
C22 C 0.58938 0.14749 0.58534 0.0
O23 O 0.64436 0.10317 0.58056 0.0
C24 C 0.36726 0.95637 0.44584 0.0
O25 O 0.32337 0.01258 0.44859 0.0
O26 O 0.40408 0.87363 0.57073 0.0
O27 O 0.32851 0.95938 0.52079 0.0
O28 O 0.39335 0.12039 0.50914 0.0
C29 C 0.31432 0.83698 0.5807 0.0
O30 O 0.25154 0.86434 0.57085 0.0
O31 O 0.5074 0.11567 0.57015 0.0
C32 C 0.60544 0.21476 0.43792 0.0
O33 O 0.62906 0.14187 0.43839 0.0
O34 O 0.55288 0.22458 0.45782 0.0
O35 O 0.63557 0.14597 0.50719 0.0
O36 O 0.57333 0.98907 0.52199 0.0
O37 O 0.44551 0.9812 0.46184 0.0
C38 C 0.31667 0.03443 0.51564 0.0
C39 C 0.64858 0.07316 0.51393 0.0
Zn40 Zn 0.46823 0.44748 0.87007 0.0
Zn41 Zn 0.39062 0.51168 0.81689 0.0
C42 C 0.4295 0.55228 0.91682 0.0
O43 O 0.52736 0.58478 0.92226 0.0
C44 C 0.4002 0.38414 0.7723 0.0
O45 O 0.30036 0.34631 0.77402 0.0
O46 O 0.52226 0.39221 0.89886 0.0
O47 O 0.37314 0.3264 0.84283 0.0
O48 O 0.27415 0.39059 0.83473 0.0
C49 C 0.45804 0.33482 0.91655 0.0
O50 O 0.361 0.30933 0.91403 0.0
O51 O 0.38597 0.49666 0.89366 0.0
C52 C 0.40417 0.64796 0.77768 0.0
O53 O 0.50008 0.69478 0.78776 0.0
O54 O 0.33503 0.56647 0.78849 0.0
O55 O 0.49167 0.63472 0.84328 0.0
O56 O 0.58766 0.56971 0.85409 0.0
O57 O 0.46233 0.45735 0.79056 0.0
C58 C 0.28427 0.31325 0.83851 0.0
C59 C 0.57884 0.64745 0.85 0.0
H60 H 0.90467 0.64851 0.16794 0.0
C61 C -0.01941 0.6642 0.17462 0.0
H62 H 0.13412 0.78057 0.18792 0.0
H63 H 0.97779 0.04974 0.12087 0.0
H64 H -0.01087 0.95638 0.0778 0.0
H65 H 0.02616 0.81493 0.08033 0.0
H66 H 0.05199 0.76605 0.12593 0.0
C67 C 0.05847 0.76316 0.18041 0.0
C68 C 0.04125 0.85121 0.17865 0.0
C69 C 0.02708 0.87898 0.15177 0.0
C70 C 0.00669 0.96098 0.15032 0.0
C71 C -0.00683 0.98772 0.12322 0.0
C72 C -0.00032 0.93492 0.09832 0.0
C73 C 0.02045 0.85524 0.09974 0.0
C74 C 0.03449 0.82755 0.12608 0.0
H75 H 0.13474 0.21823 0.18909 0.0
C76 C 0.05988 0.20226 0.18127 0.0
H77 H 0.90979 0.08593 0.1653 0.0
H78 H 0.0668 0.8177 0.23342 0.0
H79 H 0.05391 0.90978 0.27654 0.0
H80 H 0.01437 0.0495 0.27408 0.0
H81 H -0.01184 0.09832 0.22855 0.0
C82 C -0.01587 0.10334 0.17396 0.0
C83 C 0.00198 0.01559 0.17572 0.0
C84 C 0.01568 0.9874 0.20261 0.0
C85 C 0.03662 0.90578 0.20404 0.0
C86 C 0.05053 0.87914 0.23111 0.0
C87 C 0.04317 0.93122 0.25604 0.0
C88 C 0.02106 0.00996 0.25465 0.0
C89 C 0.00695 0.03775 0.22833 0.0
H90 H 0.15045 0.94649 0.5241 0.0
C91 C 0.21222 0.01912 0.5168 0.0
H92 H 0.25186 0.16421 0.50217 0.0
H93 H 0.73736 0.87042 0.48238 0.0
H94 H 0.77011 0.76421 0.4473 0.0
H95 H 0.94737 0.79998 0.44038 0.0
H96 H 0.09273 0.94167 0.46861 0.0
C97 C 0.19075 0.09021 0.50892 0.0
C98 C 0.08474 0.07297 0.5113 0.0
C99 C 0.0008 0.9908 0.49421 0.0
C100 C 0.89887 0.97146 0.4978 0.0
C101 C 0.81639 0.88864 0.48056 0.0
C102 C 0.83409 0.82717 0.46028 0.0
C103 C 0.93385 0.84719 0.45641 0.0
C104 C 0.01656 0.92829 0.47298 0.0
H105 H 0.81419 0.16056 0.50472 0.0
C106 C 0.75306 0.08857 0.51249 0.0
H107 H 0.71483 0.94451 0.5276 0.0
H108 H 0.22907 0.2395 0.54658 0.0
H109 H 0.19638 0.34654 0.58132 0.0
H110 H 0.01915 0.31017 0.58845 0.0
H111 H 0.87358 0.16755 0.56053 0.0
C112 C 0.77532 0.0182 0.52051 0.0
C113 C 0.88145 0.03587 0.51794 0.0
C114 C 0.96544 0.11825 0.53496 0.0
C115 C 0.06739 0.13769 0.53134 0.0
C116 C 0.14998 0.22102 0.54843 0.0
C117 C 0.13234 0.28294 0.56856 0.0
C118 C 0.03256 0.26264 0.57251 0.0
C119 C 0.94974 0.181 0.55612 0.0
H120 H 0.65807 0.81697 0.8476 0.0
C121 C 0.66984 0.75296 0.85117 0.0
H122 H 0.78033 0.70857 0.85698 0.0
H123 H 0.0893 0.0971 0.7888 0.0
H124 H 0.04402 0.95307 0.75292 0.0
H125 H 0.9115 0.77236 0.76164 0.0
H126 H 0.82365 0.73479 0.80629 0.0
C127 C 0.76602 0.77164 0.85466 0.0
C128 C 0.85462 0.8773 0.85126 0.0
C129 C 0.90652 0.89699 0.8253 0.0
C130 C -0.01634 0.00057 0.82046 0.0
C131 C 0.0319 0.01926 0.79391 0.0
C132 C 0.0061 0.93742 0.77303 0.0
C133 C 0.93142 0.83572 0.77793 0.0
C134 C 0.88162 0.81529 0.80367 0.0
H135 H 0.20716 0.1444 0.84171 0.0
C136 C 0.19393 0.20817 0.8392 0.0
H137 H 0.08193 0.25238 0.83699 0.0
H138 H 0.77372 0.86319 0.90403 0.0
H139 H 0.82076 0.00686 0.94029 0.0
H140 H 0.95501 0.1873 0.9319 0.0
H141 H 0.04313 0.22513 0.88729 0.0
C142 C 0.09719 0.18938 0.83816 0.0
C143 C 0.01 0.08321 0.84191 0.0
C144 C 0.95864 0.06335 0.86796 0.0
C145 C 0.881 0.95982 0.87272 0.0
C146 C 0.83216 0.94099 0.89916 0.0
C147 C 0.85882 0.02259 0.9202 0.0
C148 C 0.93451 0.12416 0.91549 0.0
C149 C -0.01562 0.14477 0.88976 0.0
H150 H 0.28523 0.53428 0.93426 0.0
C151 C 0.36518 0.55943 0.9396 0.0
H152 H 0.47794 0.60452 0.97261 0.0
H153 H 0.28162 0.71044 0.07641 0.0
H154 H 0.42005 0.88437 0.0674 0.0
H155 H 0.5162 0.91386 0.0232 0.0
H156 H 0.47555 0.76926 0.98789 0.0
C157 C 0.39814 0.57945 0.9671 0.0
C158 C 0.3283 0.56359 0.9912 0.0
C159 C 0.35134 0.64914 1.01136 0.0
C160 C 0.29461 0.6325 0.03663 0.0
C161 C 0.32158 0.71888 0.05676 0.0
C162 C 0.40081 0.81913 0.05184 0.0
C163 C 0.45507 0.8357 0.02697 0.0
C164 C 0.43116 0.75201 1.00693 0.0
H165 H 0.20692 0.40219 0.07841 0.0
C166 C 0.16613 0.44146 0.08575 0.0
H167 H 0.1211 0.54822 0.0762 0.0
H168 H 0.26673 0.37795 0.95854 0.0
H169 H 0.11584 0.2097 0.96487 0.0
H170 H 0.00223 0.18748 1.00495 0.0
H171 H 0.04247 0.3333 0.03966 0.0
C172 C 0.16359 0.51007 0.06958 0.0
C173 C 0.2138 0.53055 0.0415 0.0
C174 C 0.18401 0.44695 0.02001 0.0
C175 C 0.24432 0.46206 0.99555 0.0
C176 C 0.21998 0.3737 0.9764 0.0
C177 C 0.1338 0.27587 0.97993 0.0
C178 C 0.07027 0.2632 1.00259 0.0
C179 C 0.09483 0.34734 0.02249 0.0
H180 H 0.61767 0.34252 0.41433 0.0
C181 C 0.63611 0.28132 0.414 0.0
H182 H 0.69891 0.20177 0.39075 0.0
H183 H 0.65514 0.31099 0.26906 0.0
H184 H 0.49649 0.14182 0.26872 0.0
H185 H 0.43389 0.05603 0.31312 0.0
H186 H 0.52927 0.13939 0.35813 0.0
C187 C 0.68413 0.26561 0.39171 0.0
C188 C 0.71124 0.3265 0.36639 0.0
C189 C 0.65509 0.27699 0.34025 0.0
C190 C 0.69218 0.32565 0.3146 0.0
C191 C 0.63262 0.27562 0.28897 0.0
C192 C 0.54081 0.17908 0.28854 0.0
C193 C 0.50542 0.1309 0.31354 0.0
C194 C 0.56126 0.17919 0.33918 0.0
H195 H 0.8405 0.3331 0.27218 0.0
C196 C 0.86391 0.41339 0.26921 0.0
H197 H 0.86099 0.54716 0.28516 0.0
H198 H 0.8282 0.44968 0.41356 0.0
H199 H -0.02107 0.62442 0.41456 0.0
H200 H 0.04576 0.70808 0.37013 0.0
H201 H 0.96183 0.61846 0.32455 0.0
C202 C 0.83654 0.46661 0.28804 0.0
C203 C 0.78677 0.42304 0.31509 0.0
C204 C 0.83741 0.47724 0.34167 0.0
C205 C 0.79947 0.42875 0.36736 0.0
C206 C 0.85284 0.48321 0.39348 0.0
C207 C 0.93959 0.58362 0.39437 0.0
C208 C 0.97712 0.63081 0.36935 0.0
C209 C 0.92779 0.57823 0.34325 0.0
H210 H 0.44422 0.75725 0.74497 0.0
C211 C 0.38308 0.68309 0.7517 0.0
H212 H 0.24114 0.54468 0.73966 0.0
H213 H 0.32674 0.91045 0.65097 0.0
H214 H 0.29226 -0.00241 0.69119 0.0
H215 H 0.25769 0.92686 0.73807 0.0
H216 H 0.25771 0.76803 0.7449 0.0
C217 C 0.29984 0.62199 0.7342 0.0
C218 C 0.29731 0.65173 0.70496 0.0
C219 C 0.2933 0.7423 0.701 0.0
C220 C 0.30982 0.78099 0.67371 0.0
C221 C 0.31069 0.8748 0.67083 0.0
C222 C 0.29155 0.92618 0.69384 0.0
C223 C 0.27265 0.88669 0.72027 0.0
C224 C 0.27359 0.79596 0.72395 0.0
H225 H 0.20584 0.74403 0.61274 0.0
C226 C 0.28466 0.7764 0.6058 0.0
H227 H 0.4335 0.80392 0.61571 0.0
H228 H 0.29878 0.46948 0.70463 0.0
H229 H 0.32012 0.37447 0.66368 0.0
H230 H 0.34506 0.43936 0.61617 0.0
H231 H 0.34794 0.59959 0.60923 0.0
C232 C 0.35425 0.77184 0.62221 0.0
C233 C 0.32716 0.72688 0.65021 0.0
C234 C 0.32421 0.63249 0.65383 0.0
C235 C 0.30907 0.59469 0.68122 0.0
C236 C 0.30865 0.50124 0.68429 0.0
C237 C 0.32062 0.44572 0.66093 0.0
C238 C 0.33462 0.48227 0.63417 0.0
C239 C 0.33677 0.57462 0.63053 0.0
H240 H 0.44546 0.29887 0.96106 0.0
C241 C 0.49393 0.31404 0.94276 0.0
H242 H 0.63391 0.3359 0.92708 0.0
H243 H 0.88755 0.52237 0.04401 0.0
H244 H -0.00909 0.65371 1.01208 0.0
H245 H 0.92912 0.63753 0.9626 0.0
H246 H 0.7651 0.48923 0.94463 0.0
C247 C 0.58578 0.32074 0.94542 0.0
C248 C 0.62917 0.3232 0.97405 0.0
C249 C 0.72499 0.41193 0.98427 0.0
C250 C 0.75893 0.4233 0.01309 0.0
C251 C 0.8563 0.51124 0.02257 0.0
C252 C 0.91685 0.58712 1.00443 0.0
C253 C 0.88218 0.57785 0.97657 0.0
C254 C 0.7875 0.49177 0.96651 0.0
H255 H 0.74308 0.24165 0.06683 0.0
C256 C 0.7542 0.3148 0.07688 0.0
H257 H 0.73951 0.4453 0.0729 0.0
H258 H 0.45966 0.12982 0.95917 0.0
H259 H 0.3554 -0.00203 0.9912 0.0
H260 H 0.40199 0.02804 0.04255 0.0
H261 H 0.55507 0.1876 0.062 0.0
C262 C 0.72576 0.37108 0.06284 0.0
C263 C 0.69555 0.34809 0.03193 0.0
C264 C 0.60278 0.25643 0.02134 0.0
C265 C 0.57182 0.24225 0.99208 0.0
C266 C 0.48317 0.14683 0.98152 0.0
C267 C 0.42327 0.07028 0.99961 0.0
C268 C 0.44983 0.08696 0.0285 0.0
C269 C 0.53837 0.17882 0.03937 0.0
H270 H 0.29388 0.52427 0.29579 0.0
C271 C 0.27116 0.56728 0.28318 0.0
H272 H 0.25586 0.69953 0.28266 0.0
H273 H 0.24281 0.65817 0.42072 0.0
H274 H 0.08379 0.4909 0.40999 0.0
H275 H 0.02513 0.41869 0.36025 0.0
H276 H 0.12593 0.51133 0.32106 0.0
C277 C 0.27856 0.65572 0.29492 0.0
C278 C 0.3145 0.69568 0.32509 0.0
C279 C 0.2514 0.64224 0.34767 0.0
C280 C 0.2824 0.68614 0.37631 0.0
C281 C 0.22084 0.62949 0.39857 0.0
C282 C 0.12994 0.53322 0.39271 0.0
C283 C 0.09717 0.49233 0.36471 0.0
C284 C 0.15627 0.54628 0.34237 0.0
H285 H 0.26585 0.85759 0.40907 0.0
C286 C 0.33539 0.87733 0.4213 0.0
H287 H 0.46875 0.86539 0.42229 0.0
H288 H 0.45753 0.81223 0.28716 0.0
H289 H 0.61991 0.97564 0.29826 0.0
H290 H 0.67142 0.05368 0.34784 0.0
H291 H 0.56062 0.96993 0.38658 0.0
C292 C 0.39586 0.84138 0.41125 0.0
C293 C 0.37362 0.78522 0.38224 0.0
C294 C 0.4395 0.83562 0.35986 0.0
C295 C 0.40969 0.79085 0.33125 0.0
C296 C 0.4763 0.84318 0.30925 0.0
C297 C 0.56984 0.93676 0.31533 0.0
C298 C 0.59887 0.98067 0.34326 0.0
C299 C 0.5344 0.93166 0.36531 0.0
H300 H 0.37908 0.27518 0.73542 0.0
C301 C 0.43657 0.34671 0.74768 0.0
H302 H 0.58839 0.47803 0.74847 0.0
H303 H 0.5408 0.09423 0.65242 0.0
H304 H 0.54175 0.00781 0.69339 0.0
H305 H 0.54898 0.08556 0.7421 0.0
H306 H 0.55631 0.25148 0.75001 0.0
C307 C 0.53185 0.40267 0.7377 0.0
C308 C 0.5542 0.36939 0.70922 0.0
C309 C 0.55362 0.27443 0.70487 0.0
C310 C 0.55265 0.23137 0.67677 0.0
C311 C 0.54603 0.13327 0.67317 0.0
C312 C 0.54581 0.0822 0.69657 0.0
C313 C 0.54947 0.12575 0.724 0.0
C314 C 0.55294 0.22053 0.72823 0.0
H315 H 0.68589 0.24647 0.62306 0.0
C316 C 0.61304 0.21862 0.61144 0.0
H317 H 0.46751 0.20706 0.61236 0.0
H318 H 0.57042 0.56025 0.71042 0.0
H319 H 0.58669 0.65601 0.66974 0.0
H320 H 0.58961 0.58379 0.62105 0.0
H321 H 0.57552 0.41473 0.61271 0.0
C322 C 0.54123 0.23521 0.6235 0.0
C323 C 0.55583 0.28557 0.65305 0.0
C324 C 0.56501 0.38467 0.65761 0.0
C325 C 0.56448 0.42683 0.68573 0.0
C326 C 0.57159 0.52504 0.68957 0.0
C327 C 0.58122 0.58098 0.66641 0.0
C328 C 0.58267 0.54021 0.63898 0.0
C329 C 0.57409 0.44299 0.63448 0.0
loop_
_geom_bond_atom_site_label_1
_geom_bond_atom_site_label_2
_geom_bond_distance
_geom_bond_site_symmetry_2
_ccdc_geom_bond_type
Zn0 O6 1.969 . S
Zn0 O7 1.965 . S
Zn0 O11 2.024 1_455 S
Zn0 O16 1.969 . S
Zn1 O8 1.969 . S
Zn1 O14 1.969 1_455 S
Zn1 O15 1.965 1_455 S
Zn1 O17 2.024 . S
C2 O3 1.229 . S
C2 O11 1.058 . S
O3 C2 1.229 . S
C4 O5 1.229 . S
C4 O17 1.058 . S
O5 C4 1.229 . S
O6 Zn0 1.969 . S
O6 C9 1.267 . S
O7 Zn0 1.965 . S
O7 C18 1.260 . S
O8 Zn1 1.969 . S
O8 C18 1.258 . S
C9 O6 1.267 . S
C9 O10 1.228 . S
O10 C9 1.228 . S
O11 Zn0 2.024 1_655 S
O11 C2 1.058 . S
C12 O13 1.228 . S
C12 O14 1.267 . S
O13 C12 1.228 . S
O14 Zn1 1.969 1_655 S
O14 C12 1.267 . S
O15 Zn1 1.965 1_655 S
O15 C19 1.260 1_655 S
O16 Zn0 1.969 . S
O16 C19 1.258 . S
O17 Zn1 2.024 . S
O17 C4 1.058 . S
C18 O7 1.260 . S
C18 O8 1.258 . S
C19 O15 1.260 1_455 S
C19 O16 1.258 . S
Zn20 O26 1.969 1_545 S
Zn20 O27 1.965 1_545 S
Zn20 O31 2.024 . S
Zn20 O36 1.969 . S
Zn21 O28 1.969 . S
Zn21 O34 1.969 . S
Zn21 O35 1.965 . S
Zn21 O37 2.024 1_545 S
C22 O23 1.229 . S
C22 O31 1.058 . S
O23 C22 1.229 . S
C24 O25 1.229 . S
C24 O37 1.058 . S
O25 C24 1.229 . S
O26 Zn20 1.969 1_565 S
O26 C29 1.267 . S
O27 Zn20 1.965 1_565 S
O27 C38 1.260 . S
O28 Zn21 1.969 . S
O28 C38 1.258 1_545 S
C29 O26 1.267 . S
C29 O30 1.228 . S
O30 C29 1.228 . S
O31 Zn20 2.024 . S
O31 C22 1.058 . S
C32 O33 1.228 . S
C32 O34 1.267 . S
O33 C32 1.228 . S
O34 Zn21 1.969 . S
O34 C32 1.267 . S
O35 Zn21 1.965 . S
O35 C39 1.260 . S
O36 Zn20 1.969 . S
O36 C39 1.258 . S
O37 Zn21 2.024 1_565 S
O37 C24 1.058 . S
C38 O27 1.260 . S
C38 O28 1.258 1_565 S
C39 O35 1.260 . S
C39 O36 1.258 . S
Zn40 O46 1.969 . S
Zn40 O47 1.965 . S
Zn40 O51 2.024 . S
Zn40 O56 1.969 . S
Zn41 O48 1.969 . S
Zn41 O54 1.969 . S
Zn41 O55 1.965 . S
Zn41 O57 2.024 . S
C42 O43 1.229 . S
C42 O51 1.058 . S
O43 C42 1.229 . S
C44 O45 1.229 . S
C44 O57 1.058 . S
O45 C44 1.229 . S
O46 Zn40 1.969 . S
O46 C49 1.267 . S
O47 Zn40 1.965 . S
O47 C58 1.260 . S
O48 Zn41 1.969 . S
O48 C58 1.258 . S
C49 O46 1.267 . S
C49 O50 1.228 . S
O50 C49 1.228 . S
O51 Zn40 2.024 . S
O51 C42 1.058 . S
C52 O53 1.228 . S
C52 O54 1.267 . S
O53 C52 1.228 . S
O54 Zn41 1.969 . S
O54 C52 1.267 . S
O55 Zn41 1.965 . S
O55 C59 1.260 . S
O56 Zn40 1.969 . S
O56 C59 1.258 . S
O57 Zn41 2.024 . S
O57 C44 1.058 . S
C58 O47 1.260 . S
C58 O48 1.258 . S
C59 O55 1.260 . S
C59 O56 1.258 . S
H60 C61 0.945 1_655 S
C61 H60 0.945 1_455 S
C61 C67 1.266 . S
H62 C67 0.950 . S
H63 C71 0.949 1_655 S
H64 C72 0.950 . S
H65 C73 0.951 . S
H66 C74 0.951 . S
C67 C61 1.266 . S
C67 H62 0.950 . S
C67 C68 1.478 . S
C68 C67 1.478 . S
C68 C69 1.397 . S
C68 C85 1.394 . S
C69 C68 1.397 . S
C69 C70 1.438 1_565 S
C69 C74 1.429 . S
C70 C69 1.438 1_545 S
C70 C71 1.428 . S
C70 C83 1.394 . S
C71 H63 0.949 1_455 S
C71 C70 1.428 . S
C71 C72 1.345 . S
C72 H64 0.950 . S
C72 C71 1.345 . S
C72 C73 1.424 1_545 S
C73 H65 0.951 . S
C73 C72 1.424 1_565 S
C73 C74 1.347 . S
C74 H66 0.951 . S
C74 C69 1.429 . S
C74 C73 1.347 . S
H75 C76 0.951 . S
C76 H75 0.951 . S
C76 C82 1.265 1_455 S
H77 C82 0.950 . S
H78 C86 0.949 . S
H79 C87 0.950 . S
H80 C88 0.952 . S
H81 C89 0.951 . S
C82 C76 1.265 1_655 S
C82 H77 0.950 . S
C82 C83 1.478 1_655 S
C83 C70 1.394 . S
C83 C82 1.478 1_455 S
C83 C84 1.397 . S
C84 C83 1.397 . S
C84 C85 1.438 1_545 S
C84 C89 1.429 1_455 S
C85 C68 1.394 . S
C85 C84 1.438 1_565 S
C85 C86 1.428 . S
C86 H78 0.949 . S
C86 C85 1.428 . S
C86 C87 1.345 . S
C87 H79 0.950 . S
C87 C86 1.345 . S
C87 C88 1.422 1_465 S
C88 H80 0.952 . S
C88 C87 1.422 1_645 S
C88 C89 1.348 . S
C89 H81 0.951 . S
C89 C84 1.429 1_655 S
C89 C88 1.348 . S
H90 C91 0.951 1_565 S
C91 H90 0.951 1_545 S
C91 C97 1.265 . S
H92 C97 0.950 . S
H93 C101 0.949 . S
H94 C102 0.950 . S
H95 C103 0.951 . S
H96 C104 0.951 . S
C97 C91 1.265 . S
C97 H92 0.950 . S
C97 C98 1.478 . S
C98 C97 1.478 . S
C98 C99 1.397 1_545 S
C98 C115 1.394 . S
C99 C98 1.397 1_565 S
C99 C100 1.438 1_455 S
C99 C104 1.429 . S
C100 C99 1.438 1_655 S
C100 C101 1.428 . S
C100 C113 1.394 1_565 S
C101 H93 0.949 . S
C101 C100 1.428 . S
C101 C102 1.345 . S
C102 H94 0.950 . S
C102 C101 1.345 . S
C102 C103 1.424 . S
C103 H95 0.951 . S
C103 C102 1.424 . S
C103 C104 1.347 1_655 S
C104 H96 0.951 . S
C104 C99 1.429 . S
C104 C103 1.347 1_455 S
H105 C106 0.951 . S
C106 H105 0.951 . S
C106 C112 1.265 . S
H107 C112 0.950 1_565 S
H108 C116 0.949 . S
H109 C117 0.950 . S
H110 C118 0.951 . S
H111 C119 0.951 1_655 S
C112 C106 1.265 . S
C112 H107 0.950 1_545 S
C112 C113 1.478 . S
C113 C100 1.394 1_545 S
C113 C112 1.478 . S
C113 C114 1.397 1_655 S
C114 C113 1.397 1_455 S
C114 C115 1.438 . S
C114 C119 1.429 . S
C115 C98 1.394 . S
C115 C114 1.438 . S
C115 C116 1.428 . S
C116 H108 0.949 . S
C116 C115 1.428 . S
C116 C117 1.345 . S
C117 H109 0.950 . S
C117 C116 1.345 . S
C117 C118 1.424 . S
C118 H110 0.951 . S
C118 C117 1.424 . S
C118 C119 1.347 . S
C119 H111 0.951 1_455 S
C119 C114 1.429 . S
C119 C118 1.347 . S
H120 C121 0.951 . S
C121 H120 0.951 . S
C121 C127 1.265 . S
H122 C127 0.950 . S
H123 C131 0.949 . S
H124 C132 0.950 . S
H125 C133 0.951 . S
H126 C134 0.951 . S
C127 C121 1.265 . S
C127 H122 0.950 . S
C127 C128 1.478 . S
C128 C127 1.478 . S
C128 C129 1.397 . S
C128 C145 1.394 . S
C129 C128 1.397 . S
C129 C130 1.438 1_665 S
C129 C134 1.429 . S
C130 C129 1.438 1_445 S
C130 C131 1.428 . S
C130 C143 1.394 . S
C131 H123 0.949 . S
C131 C130 1.428 . S
C131 C132 1.345 . S
C132 H124 0.950 . S
C132 C131 1.345 . S
C132 C133 1.424 1_445 S
C133 H125 0.951 . S
C133 C132 1.424 1_665 S
C133 C134 1.347 . S
C134 H126 0.951 . S
C134 C129 1.429 . S
C134 C133 1.347 . S
H135 C136 0.951 . S
C136 H135 0.951 . S
C136 C142 1.265 . S
H137 C142 0.950 . S
H138 C146 0.949 . S
H139 C147 0.950 1_565 S
H140 C148 0.951 . S
H141 C149 0.948 1_455 S
C142 C136 1.265 . S
C142 H137 0.950 . S
C142 C143 1.478 . S
C143 C130 1.394 . S
C143 C142 1.478 . S
C143 C144 1.397 1_455 S
C144 C143 1.397 1_655 S
C144 C145 1.438 1_545 S
C144 C149 1.428 . S
C145 C128 1.394 . S
C145 C144 1.438 1_565 S
C145 C146 1.428 . S
C146 H138 0.949 . S
C146 C145 1.428 . S
C146 C147 1.345 1_565 S
C147 H139 0.950 1_545 S
C147 C146 1.345 1_545 S
C147 C148 1.424 . S
C148 H140 0.951 . S
C148 C147 1.424 . S
C148 C149 1.351 . S
C149 H141 0.948 1_655 S
C149 C144 1.428 . S
C149 C148 1.351 . S
H150 C151 0.951 . S
C151 H150 0.951 . S
C151 C157 1.265 . S
H152 C157 0.950 . S
H153 C161 0.949 . S
H154 C162 0.950 . S
H155 C163 0.951 . S
H156 C164 0.951 . S
C157 C151 1.265 . S
C157 H152 0.950 . S
C157 C158 1.478 . S
C158 C157 1.478 . S
C158 C159 1.397 . S
C158 C175 1.394 . S
C159 C158 1.397 . S
C159 C160 1.438 1_556 S
C159 C164 1.429 . S
C160 C159 1.438 1_554 S
C160 C161 1.428 . S
C160 C173 1.394 . S
C161 H153 0.949 . S
C161 C160 1.428 . S
C161 C162 1.345 . S
C162 H154 0.950 . S
C162 C161 1.345 . S
C162 C163 1.424 . S
C163 H155 0.951 . S
C163 C162 1.424 . S
C163 C164 1.347 1_554 S
C164 H156 0.951 . S
C164 C159 1.429 . S
C164 C163 1.347 1_556 S
H165 C166 0.951 . S
C166 H165 0.951 . S
C166 C172 1.265 . S
H167 C172 0.950 . S
H168 C176 0.949 . S
H169 C177 0.950 . S
H170 C178 0.951 1_655 S
H171 C179 0.951 . S
C172 C166 1.265 . S
C172 H167 0.950 . S
C172 C173 1.478 . S
C173 C160 1.394 . S
C173 C172 1.478 . S
C173 C174 1.397 . S
C174 C173 1.397 . S
C174 C175 1.438 1_554 S
C174 C179 1.429 . S
C175 C158 1.394 . S
C175 C174 1.438 1_556 S
C175 C176 1.428 . S
C176 H168 0.949 . S
C176 C175 1.428 . S
C176 C177 1.345 . S
C177 H169 0.950 . S
C177 C176 1.345 . S
C177 C178 1.424 . S
C178 H170 0.951 1_455 S
C178 C177 1.424 . S
C178 C179 1.347 1_556 S
C179 H171 0.951 . S
C179 C174 1.429 . S
C179 C178 1.347 1_554 S
H180 C181 0.951 . S
C181 H180 0.951 . S
C181 C187 1.265 . S
H182 C187 0.950 . S
H183 C191 0.949 . S
H184 C192 0.950 . S
H185 C193 0.951 1_565 S
H186 C194 0.951 . S
C187 C181 1.265 . S
C187 H182 0.950 . S
C187 C188 1.478 . S
C188 C187 1.478 . S
C188 C189 1.397 . S
C188 C205 1.394 . S
C189 C188 1.397 . S
C189 C190 1.438 . S
C189 C194 1.429 . S
C190 C189 1.438 . S
C190 C191 1.428 . S
C190 C203 1.394 . S
C191 H183 0.949 . S
C191 C190 1.428 . S
C191 C192 1.345 . S
C192 H184 0.950 . S
C192 C191 1.345 . S
C192 C193 1.424 . S
C193 H185 0.951 1_545 S
C193 C192 1.424 . S
C193 C194 1.347 . S
C194 H186 0.951 . S
C194 C189 1.429 . S
C194 C193 1.347 . S
H195 C196 0.951 . S
C196 H195 0.951 . S
C196 C202 1.265 . S
H197 C202 0.950 . S
H198 C206 0.949 . S
H199 C207 0.950 . S
H200 C208 0.951 . S
H201 C209 0.951 . S
C202 C196 1.265 . S
C202 H197 0.950 . S
C202 C203 1.478 . S
C203 C190 1.394 . S
C203 C202 1.478 . S
C203 C204 1.397 . S
C204 C203 1.397 . S
C204 C205 1.438 . S
C204 C209 1.429 . S
C205 C188 1.394 . S
C205 C204 1.438 . S
C205 C206 1.428 . S
C206 H198 0.949 . S
C206 C205 1.428 . S
C206 C207 1.345 . S
C207 H199 0.950 . S
C207 C206 1.345 . S
C207 C208 1.424 . S
C208 H200 0.951 . S
C208 C207 1.424 . S
C208 C209 1.347 . S
C209 H201 0.951 . S
C209 C204 1.429 . S
C209 C208 1.347 . S
H210 C211 0.951 . S
C211 H210 0.951 . S
C211 C217 1.265 . S
H212 C217 0.950 . S
H213 C221 0.949 . S
H214 C222 0.950 . S
H215 C223 0.951 1_545 S
H216 C224 0.951 . S
C217 C211 1.265 . S
C217 H212 0.950 . S
C217 C218 1.478 . S
C218 C217 1.478 . S
C218 C219 1.397 . S
C218 C235 1.394 . S
C219 C218 1.397 . S
C219 C220 1.438 . S
C219 C224 1.429 . S
C220 C219 1.438 . S
C220 C221 1.428 . S
C220 C233 1.394 . S
C221 H213 0.949 . S
C221 C220 1.428 . S
C221 C222 1.345 1_565 S
C222 H214 0.950 . S
C222 C221 1.345 1_545 S
C222 C223 1.424 1_545 S
C223 H215 0.951 1_565 S
C223 C222 1.424 1_565 S
C223 C224 1.347 . S
C224 H216 0.951 . S
C224 C219 1.429 . S
C224 C223 1.347 . S
H225 C226 0.951 . S
C226 H225 0.951 . S
C226 C232 1.265 . S
H227 C232 0.950 . S
H228 C236 0.949 . S
H229 C237 0.950 . S
H230 C238 0.951 . S
H231 C239 0.951 . S
C232 C226 1.265 . S
C232 H227 0.950 . S
C232 C233 1.478 . S
C233 C220 1.394 . S
C233 C232 1.478 . S
C233 C234 1.397 . S
C234 C233 1.397 . S
C234 C235 1.438 . S
C234 C239 1.429 . S
C235 C218 1.394 . S
C235 C234 1.438 . S
C235 C236 1.428 . S
C236 H228 0.949 . S
C236 C235 1.428 . S
C236 C237 1.345 . S
C237 H229 0.950 . S
C237 C236 1.345 . S
C237 C238 1.424 . S
C238 H230 0.951 . S
C238 C237 1.424 . S
C238 C239 1.347 . S
C239 H231 0.951 . S
C239 C234 1.429 . S
C239 C238 1.347 . S
H240 C241 0.951 . S
C241 H240 0.951 . S
C241 C247 1.265 . S
H242 C247 0.950 . S
H243 C251 0.949 . S
H244 C252 0.950 . S
H245 C253 0.951 . S
H246 C254 0.951 . S
C247 C241 1.265 . S
C247 H242 0.950 . S
C247 C248 1.478 . S
C248 C247 1.478 . S
C248 C249 1.397 . S
C248 C265 1.394 . S
C249 C248 1.397 . S
C249 C250 1.438 1_556 S
C249 C254 1.429 . S
C250 C249 1.438 1_554 S
C250 C251 1.428 . S
C250 C263 1.394 . S
C251 H243 0.949 . S
C251 C250 1.428 . S
C251 C252 1.345 . S
C252 H244 0.950 . S
C252 C251 1.345 . S
C252 C253 1.424 1_554 S
C253 H245 0.951 . S
C253 C252 1.424 1_556 S
C253 C254 1.347 . S
C254 H246 0.951 . S
C254 C249 1.429 . S
C254 C253 1.347 . S
H255 C256 0.951 . S
C256 H255 0.951 . S
C256 C262 1.265 . S
H257 C262 0.950 . S
H258 C266 0.949 . S
H259 C267 0.950 . S
H260 C268 0.951 . S
H261 C269 0.951 . S
C262 C256 1.265 . S
C262 H257 0.950 . S
C262 C263 1.478 . S
C263 C250 1.394 . S
C263 C262 1.478 . S
C263 C264 1.397 . S
C264 C263 1.397 . S
C264 C265 1.438 1_554 S
C264 C269 1.429 . S
C265 C248 1.394 . S
C265 C264 1.438 1_556 S
C265 C266 1.428 . S
C266 H258 0.949 . S
C266 C265 1.428 . S
C266 C267 1.345 . S
C267 H259 0.950 . S
C267 C266 1.345 . S
C267 C268 1.424 1_556 S
C268 H260 0.951 . S
C268 C267 1.424 1_554 S
C268 C269 1.347 . S
C269 H261 0.951 . S
C269 C264 1.429 . S
C269 C268 1.347 . S
H270 C271 0.951 . S
C271 H270 0.951 . S
C271 C277 1.265 . S
H272 C277 0.950 . S
H273 C281 0.949 . S
H274 C282 0.950 . S
H275 C283 0.946 1_655 S
H276 C284 0.951 . S
C277 C271 1.265 . S
C277 H272 0.950 . S
C277 C278 1.478 . S
C278 C277 1.478 . S
C278 C279 1.397 . S
C278 C295 1.394 . S
C279 C278 1.397 . S
C279 C280 1.438 . S
C279 C284 1.429 . S
C280 C279 1.438 . S
C280 C281 1.428 . S
C280 C293 1.394 . S
C281 H273 0.949 . S
C281 C280 1.428 . S
C281 C282 1.345 . S
C282 H274 0.950 . S
C282 C281 1.345 . S
C282 C283 1.424 . S
C283 H275 0.946 1_455 S
C283 C282 1.424 . S
C283 C284 1.347 . S
C284 H276 0.951 . S
C284 C279 1.429 . S
C284 C283 1.347 . S
H285 C286 0.951 . S
C286 H285 0.951 . S
C286 C292 1.265 . S
H287 C292 0.950 . S
H288 C296 0.949 . S
H289 C297 0.950 . S
H290 C298 0.951 . S
H291 C299 0.951 . S
C292 C286 1.265 . S
C292 H287 0.950 . S
C292 C293 1.478 . S
C293 C280 1.394 . S
C293 C292 1.478 . S
C293 C294 1.397 . S
C294 C293 1.397 . S
C294 C295 1.438 . S
C294 C299 1.429 . S
C295 C278 1.394 . S
C295 C294 1.438 . S
C295 C296 1.428 . S
C296 H288 0.949 . S
C296 C295 1.428 . S
C296 C297 1.345 . S
C297 H289 0.950 . S
C297 C296 1.345 . S
C297 C298 1.424 . S
C298 H290 0.951 . S
C298 C297 1.424 . S
C298 C299 1.347 . S
C299 H291 0.951 . S
C299 C294 1.429 . S
C299 C298 1.347 . S
H300 C301 0.951 . S
C301 H300 0.951 . S
C301 C307 1.265 . S
H302 C307 0.950 . S
H303 C311 0.949 . S
H304 C312 0.950 . S
H305 C313 0.951 . S
H306 C314 0.951 . S
C307 C301 1.265 . S
C307 H302 0.950 . S
C307 C308 1.478 . S
C308 C307 1.478 . S
C308 C309 1.397 . S
C308 C325 1.394 . S
C309 C308 1.397 . S
C309 C310 1.438 . S
C309 C314 1.429 . S
C310 C309 1.438 . S
C310 C311 1.428 . S
C310 C323 1.394 . S
C311 H303 0.949 . S
C311 C310 1.428 . S
C311 C312 1.345 . S
C312 H304 0.950 . S
C312 C311 1.345 . S
C312 C313 1.424 . S
C313 H305 0.951 . S
C313 C312 1.424 . S
C313 C314 1.347 . S
C314 H306 0.951 . S
C314 C309 1.429 . S
C314 C313 1.347 . S
H315 C316 0.951 . S
C316 H315 0.951 . S
C316 C322 1.265 . S
H317 C322 0.950 . S
H318 C326 0.949 . S
H319 C327 0.950 . S
H320 C328 0.951 . S
H321 C329 0.951 . S
C322 C316 1.265 . S
C322 H317 0.950 . S
C322 C323 1.478 . S
C323 C310 1.394 . S
C323 C322 1.478 . S
C323 C324 1.397 . S
C324 C323 1.397 . S
C324 C325 1.438 . S
C324 C329 1.429 . S
C325 C308 1.394 . S
C325 C324 1.438 . S
C325 C326 1.428 . S
C326 H318 0.949 . S
C326 C325 1.428 . S
C326 C327 1.345 . S
C327 H319 0.950 . S
C327 C326 1.345 . S
C327 C328 1.424 . S
C328 H320 0.951 . S
C328 C327 1.424 . S
C328 C329 1.347 . S
C329 H321 0.951 . S
C329 C324 1.429 . S
C329 C328 1.347 . S
C61 C19 1.464 . S
C76 C18 1.461 . S
C91 C38 1.493 1_545 S
C106 C39 1.493 . S
C121 C59 1.465 . S
C136 C58 1.465 . S
C151 C42 1.184 . S
C166 C4 1.201 . S
C181 C32 1.306 . S
C196 C2 1.160 . S
C211 C52 0.997 . S
C226 C29 1.046 . S
C241 C49 1.018 . S
C256 C12 1.037 . S
C271 C9 1.062 . S
C286 C24 0.933 . S
C301 C44 1.093 . S
C316 C22 1.166 . S
