# Generated by pormake.
# Topology fnq, (5)-cn, num edge types: 1
# Building blocks:
#     Node 0, Type 0, BuildingBlock: BEQFEK_clean_sbu_0, # of connection points: 5
#     Node 1, Type 0, BuildingBlock: BEQFEK_clean_sbu_0, # of connection points: 5
#     Node 2, Type 0, BuildingBlock: BEQFEK_clean_sbu_0, # of connection points: 5
#     Node 3, Type 0, BuildingBlock: BEQFEK_clean_sbu_0, # of connection points: 5
#     Node 4, Type 0, BuildingBlock: BEQFEK_clean_sbu_0, # of connection points: 5
#     Node 5, Type 0, BuildingBlock: BEQFEK_clean_sbu_0, # of connection points: 5
#     Node 6, Type 0, BuildingBlock: BEQFEK_clean_sbu_0, # of connection points: 5
#     Node 7, Type 0, BuildingBlock: BEQFEK_clean_sbu_0, # of connection points: 5
#     Node 8, Type 0, BuildingBlock: BEQFEK_clean_sbu_0, # of connection points: 5
#     Node 9, Type 0, BuildingBlock: BEQFEK_clean_sbu_0, # of connection points: 5
#     Node 10, Type 0, BuildingBlock: BEQFEK_clean_sbu_0, # of connection points: 5
#     Node 11, Type 0, BuildingBlock: BEQFEK_clean_sbu_0, # of connection points: 5
#     Node 12, Type 0, BuildingBlock: BEQFEK_clean_sbu_0, # of connection points: 5
#     Node 13, Type 0, BuildingBlock: BEQFEK_clean_sbu_0, # of connection points: 5
#     Node 14, Type 0, BuildingBlock: BEQFEK_clean_sbu_0, # of connection points: 5
#     Node 15, Type 0, BuildingBlock: BEQFEK_clean_sbu_0, # of connection points: 5
#     Node 16, Type 0, BuildingBlock: BEQFEK_clean_sbu_0, # of connection points: 5
#     Node 17, Type 0, BuildingBlock: BEQFEK_clean_sbu_0, # of connection points: 5
#     Edge 18, Type (0, 0), None
#     Edge 19, Type (0, 0), None
#     Edge 20, Type (0, 0), None
#     Edge 21, Type (0, 0), None
#     Edge 22, Type (0, 0), None
#     Edge 23, Type (0, 0), None
#     Edge 24, Type (0, 0), None
#     Edge 25, Type (0, 0), None
#     Edge 26, Type (0, 0), None
#     Edge 27, Type (0, 0), None
#     Edge 28, Type (0, 0), None
#     Edge 29, Type (0, 0), None
#     Edge 30, Type (0, 0), None
#     Edge 31, Type (0, 0), None
#     Edge 32, Type (0, 0), None
#     Edge 33, Type (0, 0), None
#     Edge 34, Type (0, 0), None
#     Edge 35, Type (0, 0), None
#     Edge 36, Type (0, 0), None
#     Edge 37, Type (0, 0), None
#     Edge 38, Type (0, 0), None
#     Edge 39, Type (0, 0), None
#     Edge 40, Type (0, 0), None
#     Edge 41, Type (0, 0), None
#     Edge 42, Type (0, 0), None
#     Edge 43, Type (0, 0), None
#     Edge 44, Type (0, 0), None
#     Edge 45, Type (0, 0), None
#     Edge 46, Type (0, 0), None
#     Edge 47, Type (0, 0), None
#     Edge 48, Type (0, 0), None
#     Edge 49, Type (0, 0), None
#     Edge 50, Type (0, 0), None
#     Edge 51, Type (0, 0), None
#     Edge 52, Type (0, 0), None
#     Edge 53, Type (0, 0), None
#     Edge 54, Type (0, 0), None
#     Edge 55, Type (0, 0), None
#     Edge 56, Type (0, 0), None
#     Edge 57, Type (0, 0), None
#     Edge 58, Type (0, 0), None
#     Edge 59, Type (0, 0), None
#     Edge 60, Type (0, 0), None
#     Edge 61, Type (0, 0), None
#     Edge 62, Type (0, 0), None
# Relax obj value: 0.702
# Max RMSD: 0.234
# Mean RMSD: 0.208
data_MOF--net-fnq--node1-BEQFEK_clean_sbu_0--edge1-none
_symmetry_space_group_name_H-M    P1
_symmetry_Int_Tables_number       1
_symmetry_cell_setting            triclinic
loop_
_symmetry_equiv_pos_as_xyz
'x, y, z'
_cell_length_a     25.822715
_cell_length_b     25.82283
_cell_length_c     17.8489
_cell_angle_alpha  90.236711
_cell_angle_beta   89.762938
_cell_angle_gamma 119.62588
loop_
_atom_site_label
_atom_site_type_symbol
_atom_site_fract_x
_atom_site_fract_y
_atom_site_fract_z
_atom_type_partial_charge
Co0 Co 0.28395 0.46902 0.1829 0.0
Co1 Co 0.25848 0.35319 0.19633 0.0
C2 C 0.39056 0.45948 0.1927 0.0
O3 O 0.36864 0.48761 0.15949 0.0
O4 O 0.35366 0.40658 0.21411 0.0
C5 C 0.32379 0.58442 0.22782 0.0
O6 O 0.35554 0.57491 0.27744 0.0
C7 C 0.27413 0.28491 0.10844 0.0
C8 C 0.20463 0.19108 0.12876 0.0
C9 C 0.24727 0.22893 0.07797 0.0
N10 N 0.24876 0.28107 0.17395 0.0
N11 N 0.20706 0.22553 0.18727 0.0
C12 C 0.31228 0.34396 0.06947 0.0
H13 H 0.30137 0.3784 0.08606 0.0
H14 H 0.30858 0.34026 1.00762 0.0
H15 H 0.35922 0.36237 0.0869 0.0
C16 C 0.15957 0.40987 0.0898 0.0
N17 N 0.20937 0.41409 0.12368 0.0
N18 N 0.20555 0.36219 0.1192 0.0
C19 C 0.15827 0.32621 0.07383 0.0
C20 C 0.12232 0.35218 0.0566 0.0
C21 C 0.14678 0.45961 0.094 0.0
H22 H 0.18091 0.49616 0.12857 0.0
H23 H 0.14858 0.47708 1.03708 0.0
H24 H 0.10235 0.44374 0.11977 0.0
O25 O 0.27323 0.44919 0.29335 0.0
O26 O 0.22754 0.35069 0.29503 0.0
H27 H 0.14274 0.23693 0.06261 0.0
H28 H 0.12925 0.26669 0.97769 0.0
C29 C 0.15768 0.27725 1.02799 0.0
H30 H 0.2027 0.29186 1.0059 0.0
H31 H 0.17692 0.21238 0.23181 0.0
O32 O 0.29972 0.54824 0.17379 0.0
C33 C 0.24797 0.40009 0.32912 0.0
Co34 Co 0.67541 0.83945 0.18153 0.0
Co35 Co 0.79076 0.93256 0.18812 0.0
C36 C 0.68272 0.95517 0.18707 0.0
O37 O 0.65276 0.90285 0.16021 0.0
O38 O 0.73729 0.97366 0.20259 0.0
C39 C 0.55037 0.74144 0.15117 0.0
O40 O 0.5343 0.7593 0.0913 0.0
C41 C 0.8614 1.01639 0.10215 0.0
C42 C 0.95455 1.03925 0.12672 0.0
C43 C 0.91826 1.04543 0.07465 0.0
N44 N 0.86325 0.99365 0.16733 0.0
N45 N 0.91833 1.00665 0.18322 0.0
C46 C 0.80363 0.99715 0.06063 0.0
H47 H 0.76873 0.95182 0.07511 0.0
H48 H 0.80923 0.99831 0.99897 0.0
H49 H 0.78488 1.02575 0.07791 0.0
C50 C 0.73749 0.77568 0.09395 0.0
N51 N 0.73149 0.82183 0.12281 0.0
N52 N 0.7817 0.87054 0.11323 0.0
C53 C 0.81855 0.85833 0.07042 0.0
C54 C 0.79433 0.7962 0.05905 0.0
C55 C 0.69106 0.71289 0.10535 0.0
H56 H 0.65775 0.70987 0.14682 0.0
H57 H 0.66772 0.69524 0.0516 0.0
H58 H 0.71156 0.68652 0.12511 0.0
O59 O 0.69449 0.84967 0.28989 0.0
O60 O 0.79264 0.90488 0.28641 0.0
H61 H 0.9078 0.93091 0.0592 0.0
H62 H 0.87922 0.88534 0.97574 0.0
C63 C 0.86794 0.90496 1.0241 0.0
H64 H 0.85378 0.93524 1.0 0.0
H65 H 0.93011 0.9889 0.22818 0.0
O66 O 0.60165 0.77157 0.17878 0.0
C67 C 0.74451 0.87535 0.32266 0.0
Co68 Co 0.30593 0.87212 0.20429 0.0
Co69 Co 0.21315 0.89279 0.20431 0.0
C70 C 0.19328 0.76136 0.20774 0.0
O71 O 0.24597 0.78558 0.18223 0.0
O72 O 0.17262 0.79647 0.22185 0.0
C73 C 0.38814 0.84404 0.26216 0.0
O74 O 0.35393 0.82382 0.32172 0.0
C75 C 0.13161 0.87633 0.11111 0.0
C76 C 0.10428 0.94446 0.13035 0.0
C77 C 0.1017 0.90223 0.07997 0.0
N78 N 0.15158 0.90193 0.17662 0.0
N79 N 0.136 0.94285 0.1893 0.0
C80 C 0.15341 0.83786 0.07377 0.0
H81 H 0.19902 0.85014 0.0904 0.0
H82 H 0.15267 0.83992 1.01178 0.0
H83 H 0.12604 0.79129 0.093 0.0
C84 C 0.37164 0.99306 0.10441 0.0
N85 N 0.32601 0.94371 0.13868 0.0
N86 N 0.2773 0.94583 0.12931 0.0
C87 C 0.28896 0.99214 0.08177 0.0
C88 C 0.35106 1.02886 0.06728 0.0
C89 C 0.43417 1.00615 0.10935 0.0
H90 H 0.43699 0.97199 0.1434 0.0
H91 H 0.45049 1.00469 0.05251 0.0
H92 H 0.46194 1.05057 0.13521 0.0
O93 O 0.29372 0.88758 0.31127 0.0
O94 O 0.23594 0.92772 0.30326 0.0
H95 H 0.21451 1.00625 0.06634 0.0
H96 H 0.26041 1.02038 0.98332 0.0
C97 C 0.24159 0.9919 1.03343 0.0
H98 H 0.21271 0.94673 1.01115 0.0
H99 H 0.15111 0.97267 0.23424 0.0
O100 O 0.37043 0.85934 0.20461 0.0
C101 C 0.26753 0.91298 0.34185 0.0
Co102 Co 0.49952 0.25338 0.89803 0.0
Co103 Co 0.3837 0.22792 0.88462 0.0
C104 C 0.49 0.36 0.88825 0.0
O105 O 0.51813 0.33808 0.92145 0.0
O106 O 0.4371 0.3231 0.86684 0.0
C107 C 0.61492 0.29324 0.85311 0.0
O108 O 0.60542 0.32499 0.80349 0.0
C109 C 0.31546 0.24357 0.97258 0.0
C110 C 0.22161 0.17411 0.95226 0.0
C111 C 0.25949 0.21669 1.00309 0.0
N112 N 0.31159 0.21823 0.90704 0.0
N113 N 0.25604 0.17656 0.89372 0.0
C114 C 0.37452 0.28171 1.01153 0.0
H115 H 0.40895 0.27079 0.99491 0.0
H116 H 0.37083 0.27801 0.07338 0.0
H117 H 0.39293 0.32865 0.99409 0.0
C118 C 0.44039 0.12901 0.99113 0.0
N119 N 0.4446 0.1788 0.95725 0.0
N120 N 0.39269 0.17497 0.96173 0.0
C121 C 0.35672 0.1277 1.00711 0.0
C122 C 0.38269 0.09175 1.02432 0.0
C123 C 0.49013 0.11622 0.98692 0.0
H124 H 0.52669 0.15036 0.95237 0.0
H125 H 0.5076 0.11802 0.04384 0.0
H126 H 0.47427 0.0718 0.96114 0.0
O127 O 0.47968 0.24266 0.78758 0.0
O128 O 0.38118 0.19699 0.78591 0.0
H129 H 0.26745 0.11218 1.01836 0.0
H130 H 0.29721 0.09867 0.10326 0.0
C131 C 0.30777 0.12711 0.05297 0.0
H132 H 0.32241 0.17212 0.07508 0.0
H133 H 0.24286 0.14645 0.84915 0.0
O134 O 0.57874 0.26914 0.90712 0.0
C135 C 0.43058 0.21741 0.75182 0.0
Co136 Co 0.90264 0.27539 0.87672 0.0
Co137 Co 0.92333 0.18261 0.87667 0.0
C138 C 0.7919 0.16273 0.87326 0.0
O139 O 0.81611 0.21542 0.89879 0.0
O140 O 0.82701 0.14209 0.85913 0.0
C141 C 0.87453 0.35757 0.81887 0.0
O142 O 0.85428 0.32334 0.75933 0.0
C143 C 0.90689 0.1011 0.9699 0.0
C144 C 0.975 0.07376 0.95066 0.0
C145 C 0.93281 0.07121 1.00106 0.0
N146 N 0.93247 0.12104 0.90437 0.0
N147 N 0.97337 0.10545 0.89168 0.0
C148 C 0.86842 0.12291 1.00723 0.0
H149 H 0.8807 0.16852 0.99059 0.0
H150 H 0.87048 0.12218 0.06922 0.0
H151 H 0.82185 0.09554 0.988 0.0
C152 C 1.02361 0.34111 0.97654 0.0
N153 N 0.97425 0.29547 0.94229 0.0
N154 N 0.97638 0.24677 0.95166 0.0
C155 C 1.02271 0.25844 0.99918 0.0
C156 C 1.05943 0.32054 1.01364 0.0
C157 C 1.03671 0.40364 0.97157 0.0
H158 H 1.00256 0.40646 0.93751 0.0
H159 H 1.03524 0.41997 1.02841 0.0
H160 H 1.08113 0.43141 0.94573 0.0
O161 O 0.91808 0.26317 0.76974 0.0
O162 O 0.95824 0.2054 0.77772 0.0
H163 H 1.03682 0.184 1.01465 0.0
H164 H 1.05095 0.22991 0.09764 0.0
C165 C 1.02247 0.21108 0.04754 0.0
H166 H 0.9773 0.18221 0.06983 0.0
H167 H 1.00318 0.12053 0.84673 0.0
O168 O 0.88985 0.33987 0.87641 0.0
C169 C 0.94348 0.23699 0.73914 0.0
Co170 Co 0.86998 0.64486 0.89938 0.0
Co171 Co 0.96311 0.76021 0.89283 0.0
C172 C 0.9857 0.65216 0.89386 0.0
O173 O 0.93337 0.62221 0.92069 0.0
O174 O 1.00421 0.70674 0.87837 0.0
C175 C 0.77198 0.51979 0.92966 0.0
O176 O 0.78986 0.50365 0.98944 0.0
C177 C 1.04689 0.83083 0.97886 0.0
C178 C 1.0698 0.92399 0.95428 0.0
C179 C 1.07589 0.88769 1.00639 0.0
N180 N 1.0242 0.83269 0.91365 0.0
N181 N 1.03722 0.88778 0.89775 0.0
C182 C 1.02765 0.77305 1.02037 0.0
H183 H 0.98233 0.73816 1.00587 0.0
H184 H 1.0288 0.77865 0.08203 0.0
H185 H 1.05626 0.75431 1.00308 0.0
C186 C 0.80621 0.70696 0.98694 0.0
N187 N 0.85236 0.70095 0.95811 0.0
N188 N 0.90108 0.75115 0.96771 0.0
C189 C 0.88886 0.78801 1.01051 0.0
C190 C 0.82673 0.76381 1.02182 0.0
C191 C 0.74342 0.66054 0.97551 0.0
H192 H 0.74041 0.62723 0.93403 0.0
H193 H 0.72576 0.63718 1.02926 0.0
H194 H 0.71705 0.68105 0.95574 0.0
O195 O 0.88019 0.66396 0.79104 0.0
O196 O 0.93545 0.76211 0.79454 0.0
H197 H 0.96145 0.87724 1.02182 0.0
H198 H 0.91583 0.84863 0.10523 0.0
C199 C 0.93548 0.83736 0.05689 0.0
H200 H 0.96572 0.82318 0.081 0.0
H201 H 1.01953 0.89957 0.85276 0.0
O202 O 0.8021 0.5711 0.90213 0.0
C203 C 0.90589 0.714 0.75828 0.0
Co204 Co 0.93364 0.80655 0.55344 0.0
Co205 Co 0.92091 0.68969 0.5366 0.0
C206 C 1.048 0.80578 0.54407 0.0
O207 O 1.02208 0.83599 0.52993 0.0
O208 O 1.0152 0.74905 0.54942 0.0
C209 C 0.95815 0.92737 0.58031 0.0
O210 O 0.96007 0.97188 0.61834 0.0
C211 C 0.94007 0.62295 0.44374 0.0
C212 C 0.87104 0.52895 0.46572 0.0
C213 C 0.91367 0.56639 0.41487 0.0
N214 N 0.91371 0.61979 0.50806 0.0
N215 N 0.87273 0.56419 0.52264 0.0
C216 C 0.97927 0.68162 0.40508 0.0
H217 H 0.96541 0.71473 0.41871 0.0
H218 H 0.97869 0.67724 0.34325 0.0
H219 H 1.02546 0.70074 0.42612 0.0
C220 C 0.81356 0.74134 0.44235 0.0
N221 N 0.86462 0.74987 0.47847 0.0
N222 N 0.86848 0.70219 0.46425 0.0
C223 C 0.82452 0.6665 0.41422 0.0
C224 C 0.78371 0.68697 0.40101 0.0
C225 C 0.79178 0.78357 0.44779 0.0
H226 H 0.81863 0.81737 0.48859 0.0
H227 H 0.79838 0.80497 0.39258 0.0
H228 H 0.74439 0.7606 0.46535 0.0
O229 O 0.92771 0.7681 0.64854 0.0
O230 O 0.88661 0.67156 0.63667 0.0
H231 H 0.81599 0.58062 0.39557 0.0
H232 H 0.80037 0.61168 0.31406 0.0
C233 C 0.82884 0.62205 0.36433 0.0
H234 H 0.87449 0.64067 0.34248 0.0
H235 H 0.8428 0.5513 0.5674 0.0
O236 O 0.93599 0.87654 0.60945 0.0
C237 C 0.9055 0.71722 0.67739 0.0
Co238 Co 0.35773 0.1829 0.52803 0.0
Co239 Co 0.47086 0.27419 0.53456 0.0
C240 C 0.3604 0.29594 0.53164 0.0
O241 O 0.33216 0.24383 0.50404 0.0
O242 O 0.4148 0.31467 0.54969 0.0
C243 C 0.23449 0.09399 0.49838 0.0
O244 O 0.22676 0.11827 0.43805 0.0
C245 C 0.53589 0.35539 0.44198 0.0
C246 C 0.63058 0.38114 0.46054 0.0
C247 C 0.59133 0.38386 0.41003 0.0
N248 N 0.5414 0.33612 0.5081 0.0
N249 N 0.59748 0.35091 0.52041 0.0
C250 C 0.47604 0.33295 0.40436 0.0
H251 H 0.4426 0.2882 0.4229 0.0
H252 H 0.47884 0.33123 0.34251 0.0
H253 H 0.45708 0.36149 0.421 0.0
C254 C 0.41292 0.11643 0.43194 0.0
N255 N 0.40992 0.16269 0.46602 0.0
N256 N 0.46131 0.21048 0.45897 0.0
C257 C 0.49584 0.19804 0.41167 0.0
C258 C 0.46917 0.13609 0.3956 0.0
C259 C 0.36381 1.05412 0.43906 0.0
H260 H 0.32965 1.05154 0.47881 0.0
H261 H 0.34207 1.03852 0.384 0.0
H262 H 0.38149 1.02543 0.45944 0.0
O263 O 0.38124 0.19427 0.63567 0.0
O264 O 0.47904 0.24999 0.63477 0.0
H265 H 0.58509 0.27061 0.39963 0.0
H266 H 0.55495 0.22648 0.31514 0.0
C267 C 0.54465 0.24516 0.36524 0.0
H268 H 0.52987 0.27532 0.34271 0.0
H269 H 0.61194 0.33571 0.56543 0.0
O270 O 0.28401 0.11663 0.53136 0.0
C271 C 0.43078 0.2187 0.66999 0.0
Co272 Co 0.98242 0.19755 0.5166 0.0
Co273 Co 0.88573 0.21462 0.52147 0.0
C274 C 0.86901 0.0853 0.52186 0.0
O275 O 0.9219 0.11057 0.49687 0.0
O276 O 0.84686 0.11908 0.53561 0.0
C277 C 1.06345 0.16541 0.56248 0.0
O278 O 1.02455 0.13479 0.61493 0.0
C279 C 0.80096 0.20023 0.43487 0.0
C280 C 0.77726 0.27015 0.4609 0.0
C281 C 0.77217 0.22867 0.40763 0.0
N282 N 0.82285 0.22391 0.50075 0.0
N283 N 0.80922 0.26564 0.51755 0.0
C284 C 0.8209 0.16202 0.393 0.0
H285 H 0.86644 0.17272 0.40799 0.0
H286 H 0.81983 0.16648 0.33139 0.0
H287 H 0.79248 0.11487 0.40968 0.0
C288 C 1.04183 0.32224 0.42497 0.0
N289 N 0.9974 0.26975 0.45479 0.0
N290 N 0.94722 0.26906 0.44541 0.0
C291 C 0.95722 0.31714 0.40212 0.0
C292 C 1.01894 0.35671 0.38987 0.0
C293 C 0.10551 0.34113 0.43566 0.0
H294 H 0.1103 0.31283 0.47807 0.0
H295 H 0.12356 0.33482 0.38228 0.0
H296 H 0.13041 0.38837 0.45375 0.0
O297 O 0.97345 0.21122 0.62582 0.0
O298 O 0.91186 0.24737 0.62035 0.0
H299 H 0.88255 0.33116 0.39017 0.0
H300 H 0.92814 0.3479 0.30689 0.0
C301 C 0.90944 0.31765 0.35556 0.0
H302 H 0.88054 0.27292 0.33188 0.0
H303 H 0.82634 0.29452 0.56326 0.0
O304 O 1.048 0.18533 0.50713 0.0
C305 C 0.94544 0.23437 0.65758 0.0
Co306 Co 0.16458 0.58227 0.2268 0.0
Co307 Co 1.05087 0.56239 0.22265 0.0
C308 C 0.16041 0.69368 0.22531 0.0
O309 O 0.18998 0.66965 0.24912 0.0
O310 O 0.10538 0.65839 0.21055 0.0
C311 C 0.28925 0.6114 0.25141 0.0
O312 O 0.30298 0.64682 0.30983 0.0
C313 C 0.98329 0.57778 0.31381 0.0
C314 C 0.88899 0.51149 0.28973 0.0
C315 C 0.92688 0.55253 0.34191 0.0
N316 N 0.97985 0.55313 0.24792 0.0
N317 N 0.92404 0.51334 0.23234 0.0
C318 C 1.04147 0.61414 0.35514 0.0
H319 H 1.0752 0.60181 0.33941 0.0
H320 H 1.03572 0.6097 0.4168 0.0
H321 H 1.06139 0.66155 0.33907 0.0
C322 C 0.10564 0.45778 0.31569 0.0
N323 N 0.11028 0.50916 0.28663 0.0
N324 N 1.05936 0.50687 0.29556 0.0
C325 C 1.02337 0.45804 0.33871 0.0
C326 C 1.0491 0.42101 0.35111 0.0
C327 C 0.15278 0.44202 0.30291 0.0
H328 H 0.18404 0.47067 0.25886 0.0
H329 H 0.17814 0.45032 0.35553 0.0
H330 H 0.13278 0.39472 0.28564 0.0
O331 O 0.14226 0.57144 0.11937 0.0
O332 O 1.04457 0.5319 0.12186 0.0
H333 H 0.93294 0.43984 0.34509 0.0
H334 H 0.96004 0.42296 0.43032 0.0
C335 C 0.97183 0.45382 0.38232 0.0
H336 H 0.9842 0.49767 0.40694 0.0
H337 H 0.91079 0.4844 0.18651 0.0
O338 O 0.23782 0.58657 0.22333 0.0
C339 C 0.09247 0.54773 0.08594 0.0
Co340 Co 0.56309 0.60738 0.22448 0.0
Co341 Co 0.58955 0.51713 0.21449 0.0
C342 C 0.45691 0.49271 0.21494 0.0
O343 O 0.4783 0.5431 0.24687 0.0
O344 O 0.49416 0.47598 0.19551 0.0
C345 C 0.52093 0.68039 0.17548 0.0
O346 O 0.48958 0.63767 0.1274 0.0
C347 C 0.57425 0.43425 0.30335 0.0
C348 C 0.64538 0.41108 0.28407 0.0
C349 C 0.60221 0.40628 0.33446 0.0
N350 N 0.5996 0.45516 0.23789 0.0
N351 N 0.64213 0.44186 0.22508 0.0
C352 C 0.53552 0.45532 0.34174 0.0
H353 H 0.54528 0.49982 0.32367 0.0
H354 H 0.54004 0.45701 0.40354 0.0
H355 H 0.48852 0.42607 0.32517 0.0
C356 C 0.68402 0.67306 0.32092 0.0
N357 N 0.63562 0.62681 0.2866 0.0
N358 N 0.64106 0.57965 0.29186 0.0
C359 C 0.68833 0.59232 0.33813 0.0
C360 C 0.72192 0.65403 0.35607 0.0
C361 C 0.69582 0.73497 0.31266 0.0
H362 H 0.66456 0.73664 0.27182 0.0
H363 H 0.68787 0.75064 0.36687 0.0
H364 H 0.74205 0.7639 0.29265 0.0
O365 O 0.57698 0.59722 0.11558 0.0
O366 O 0.62276 0.54408 0.1165 0.0
H367 H 0.70908 0.52171 0.34458 0.0
H368 H 0.72112 0.56308 0.43132 0.0
C369 C 0.69246 0.54498 0.38126 0.0
H370 H 0.64812 0.51305 0.4034 0.0
H371 H 0.67236 0.45864 0.18066 0.0
O372 O 0.54813 0.67148 0.22867 0.0
C373 C 0.60362 0.57365 0.08131 0.0
Co374 Co 0.54045 0.98786 0.21743 0.0
Co375 Co 0.63205 0.10072 0.21092 0.0
C376 C 0.65098 0.98988 0.20854 0.0
O377 O 0.6011 0.96324 0.24177 0.0
O378 O 0.6697 1.04395 0.18972 0.0
C379 C 0.45178 0.87717 0.26989 0.0
O380 O 0.47654 0.8903 0.33647 0.0
C381 C 0.71698 0.16392 0.30107 0.0
C382 C 0.744 0.25918 0.28525 0.0
C383 C 0.7475 0.21901 0.3334 0.0
N384 N 0.6956 0.17038 0.23698 0.0
N385 N 0.71123 0.22687 0.22629 0.0
C386 C 0.69502 0.10381 0.33761 0.0
H387 H 0.64915 0.07138 0.32146 0.0
H388 H 0.69596 0.10642 0.39962 0.0
H389 H 0.72228 0.0842 0.31777 0.0
C390 C 0.47656 1.04693 0.31491 0.0
N391 N 0.52126 1.04117 0.2805 0.0
N392 N 0.57055 0.09114 0.28866 0.0
C393 C 0.56057 0.12707 0.33634 0.0
C394 C 0.49897 0.10341 0.35193 0.0
C395 C 0.41315 1.00035 0.30783 0.0
H396 H 0.40848 0.9656 0.26782 0.0
H397 H 0.39669 0.97879 0.36285 0.0
H398 H 0.38652 1.02045 0.28773 0.0
O399 O 0.55255 1.01093 0.10985 0.0
O400 O 0.60596 0.10905 0.11276 0.0
H401 H 0.63601 0.21429 0.35114 0.0
H402 H 0.59122 0.18395 0.43486 0.0
C403 C 0.60902 0.17339 0.38407 0.0
H404 H 0.63778 0.15621 0.40485 0.0
H405 H 0.69508 0.24223 0.1833 0.0
O406 O 0.4762 0.91208 0.21555 0.0
C407 C 0.57676 0.06084 0.07652 0.0
Co408 Co 0.61282 0.13405 0.85414 0.0
Co409 Co 0.59292 1.02034 0.85832 0.0
C410 C 0.72422 0.12987 0.85567 0.0
O411 O 0.7002 0.15944 0.83183 0.0
O412 O 0.68892 0.07484 0.87044 0.0
C413 C 0.64195 0.25873 0.82951 0.0
O414 O 0.67736 0.27247 0.77109 0.0
C415 C 0.60833 0.95273 0.76722 0.0
C416 C 0.542 0.85845 0.79129 0.0
C417 C 0.58309 0.89631 0.73914 0.0
N418 N 0.58364 0.9493 0.83308 0.0
N419 N 0.54383 0.89351 0.84866 0.0
C420 C 0.64469 1.01091 0.72588 0.0
H421 H 0.63236 1.04464 0.74159 0.0
H422 H 0.64025 1.00515 0.66421 0.0
H423 H 0.6921 1.03082 0.74194 0.0
C424 C 0.48834 0.07512 0.76524 0.0
N425 N 0.53972 0.07976 0.79431 0.0
N426 N 0.53742 1.02884 0.78539 0.0
C427 C 0.48859 0.99285 0.74224 0.0
C428 C 0.45158 1.01859 0.7298 0.0
C429 C 0.47258 0.12226 0.77802 0.0
H430 H 0.50123 0.15352 0.82207 0.0
H431 H 0.48088 0.14763 0.7254 0.0
H432 H 0.42528 0.10226 0.7953 0.0
O433 O 0.60199 0.11174 0.96157 0.0
O434 O 0.56242 1.01405 0.95909 0.0
H435 H 0.47036 0.9024 0.73592 0.0
H436 H 0.45351 0.92949 0.65065 0.0
C437 C 0.48436 0.94128 0.69867 0.0
H438 H 0.52821 0.95364 0.67406 0.0
H439 H 0.51487 0.88027 0.89446 0.0
O440 O 0.61714 0.20729 0.85759 0.0
C441 C 0.57827 0.06195 0.99501 0.0
Co442 Co 1.01838 0.50989 0.86351 0.0
Co443 Co 0.13124 0.60148 0.87002 0.0
C444 C 1.02041 0.62042 0.8724 0.0
O445 O 0.99376 0.57054 0.83916 0.0
O446 O 1.07448 0.63913 0.89122 0.0
C447 C 0.90766 0.42121 0.8111 0.0
O448 O 0.92076 0.44595 0.74451 0.0
C449 C 0.19447 0.68644 0.77992 0.0
C450 C 0.28972 0.71344 0.79573 0.0
C451 C 0.24957 0.71701 0.74762 0.0
N452 N 0.20091 0.66501 0.84397 0.0
N453 N 0.2574 0.68062 0.85466 0.0
C454 C 0.13437 0.6645 0.74335 0.0
H455 H 0.10194 0.61863 0.75947 0.0
H456 H 0.13699 0.66547 0.68135 0.0
H457 H 0.11476 0.69175 0.76321 0.0
C458 C 1.07744 0.44599 0.76601 0.0
N459 N 1.07168 0.49069 0.80043 0.0
N460 N 0.12165 0.53999 0.79227 0.0
C461 C 0.15758 0.53 0.74458 0.0
C462 C 0.13391 0.46841 0.72896 0.0
C463 C 1.03086 0.38259 0.77308 0.0
H464 H 0.9961 0.37792 0.81308 0.0
H465 H 1.00932 0.36613 0.71805 0.0
H466 H 1.05095 0.35596 0.79319 0.0
O467 O 1.04144 0.52201 0.9711 0.0
O468 O 0.13957 0.57538 0.96818 0.0
H469 H 0.24481 0.60544 0.72985 0.0
H470 H 0.21449 0.56069 0.64609 0.0
C471 C 0.20392 0.57847 0.69689 0.0
H472 H 0.18676 0.60725 0.67612 0.0
H473 H 0.27274 0.66443 0.89762 0.0
O474 O 0.9426 0.44564 0.86541 0.0
C475 C 0.09136 0.5462 1.00442 0.0
Co476 Co 0.63792 0.53252 0.85642 0.0
Co477 Co 0.54768 0.559 0.86646 0.0
C478 C 0.52323 0.42635 0.866 0.0
O479 O 0.57362 0.44772 0.83404 0.0
O480 O 0.50652 0.4636 0.88545 0.0
C481 C 0.71093 0.49035 0.90534 0.0
O482 O 0.66821 0.45897 0.9534 0.0
C483 C 0.46473 0.54366 0.77769 0.0
C484 C 0.44162 0.61483 0.79696 0.0
C485 C 0.43672 0.57158 0.74662 0.0
N486 N 0.48571 0.56906 0.84312 0.0
N487 N 0.47245 0.61161 0.85591 0.0
C488 C 0.48578 0.50493 0.73928 0.0
H489 H 0.53029 0.51469 0.75733 0.0
H490 H 0.48747 0.50946 0.67748 0.0
H491 H 0.45654 0.45793 0.75584 0.0
C492 C 0.70358 0.65344 0.75996 0.0
N493 N 0.65733 0.60504 0.7943 0.0
N494 N 0.61017 0.61048 0.78905 0.0
C495 C 0.62282 0.65774 0.74278 0.0
C496 C 0.68453 0.69133 0.72481 0.0
C497 C 0.76548 0.66524 0.7682 0.0
H498 H 0.76716 0.63397 0.80902 0.0
H499 H 0.78115 0.6573 0.71398 0.0
H500 H 0.79441 0.71147 0.78823 0.0
O501 O 0.62778 0.5464 0.96533 0.0
O502 O 0.57466 0.59221 0.96443 0.0
H503 H 0.55222 0.67851 0.7364 0.0
H504 H 0.59354 0.69051 0.64962 0.0
C505 C 0.57547 0.66187 0.6997 0.0
H506 H 0.5435 0.61752 0.6776 0.0
H507 H 0.48929 0.64188 0.90028 0.0
O508 O 0.70202 0.51756 0.85217 0.0
C509 C 0.60423 0.57306 0.9996 0.0
Co510 Co 0.83706 0.9031 0.5275 0.0
Co511 Co 0.7202 0.89038 0.54435 0.0
C512 C 0.83629 1.01746 0.53689 0.0
O513 O 0.8665 0.99154 0.55103 0.0
O514 O 0.77956 0.98466 0.53155 0.0
C515 C 0.95789 0.92767 0.50061 0.0
O516 O 1.00241 0.92956 0.46266 0.0
C517 C 0.65349 0.90951 0.63728 0.0
C518 C 0.55947 0.84051 0.61529 0.0
C519 C 0.59693 0.88309 0.66618 0.0
N520 N 0.6503 0.88319 0.57292 0.0
N521 N 0.59469 0.84222 0.55834 0.0
C522 C 0.71216 0.94869 0.67593 0.0
H523 H 0.74526 0.93483 0.66227 0.0
H524 H 0.70779 0.94811 0.73776 0.0
H525 H 0.73129 0.99489 0.65489 0.0
C526 C 0.77185 0.783 0.63856 0.0
N527 N 0.78037 0.83407 0.60246 0.0
N528 N 0.73269 0.83791 0.61668 0.0
C529 C 0.69698 0.79393 0.66668 0.0
C530 C 0.71746 0.75312 0.67986 0.0
C531 C 0.8141 0.76125 0.63312 0.0
H532 H 0.84791 0.78813 0.59235 0.0
H533 H 0.83548 0.76784 0.68835 0.0
H534 H 0.79115 0.71387 0.61554 0.0
O535 O 0.7986 0.89716 0.43242 0.0
O536 O 0.70206 0.85609 0.44426 0.0
H537 H 0.61111 0.7854 0.68537 0.0
H538 H 0.64219 0.76977 0.76687 0.0
C539 C 0.65254 0.79824 0.7166 0.0
H540 H 0.67118 0.84389 0.73846 0.0
H541 H 0.58179 0.81233 0.51354 0.0
O542 O 0.90705 0.90544 0.47149 0.0
C543 C 0.74772 0.87497 0.40355 0.0
Co544 Co 0.22809 0.95193 0.5644 0.0
Co545 Co 0.24515 0.85521 0.55953 0.0
C546 C 0.11584 0.83849 0.55911 0.0
O547 O 0.14111 0.89139 0.5841 0.0
O548 O 0.14962 0.81634 0.54539 0.0
C549 C 0.19582 1.0329 0.51865 0.0
O550 O 0.16523 0.99406 0.46613 0.0
C551 C 0.23079 0.77046 0.64616 0.0
C552 C 0.30068 0.74674 0.62009 0.0
C553 C 0.25925 0.74171 0.6734 0.0
N554 N 0.25443 0.79233 0.58025 0.0
N555 N 0.29615 0.77868 0.56343 0.0
C556 C 0.19257 0.79039 0.68802 0.0
H557 H 0.20327 0.83593 0.67304 0.0
H558 H 0.19702 0.78932 0.74964 0.0
H559 H 0.14542 0.76198 0.67133 0.0
C560 C 0.35279 1.01131 0.65599 0.0
N561 N 0.30029 0.96688 0.62619 0.0
N562 N 0.29959 0.9167 0.63558 0.0
C563 C 0.34769 0.9267 0.67884 0.0
C564 C 0.38727 0.98842 0.69106 0.0
C565 C 0.37168 0.07499 0.64528 0.0
H566 H 0.34339 0.07977 0.60287 0.0
H567 H 0.36537 0.09304 0.69866 0.0
H568 H 0.41893 0.09988 0.6272 0.0
O569 O 0.24177 0.94297 0.45517 0.0
O570 O 0.27789 0.88135 0.46065 0.0
H571 H 0.3617 0.85204 0.69085 0.0
H572 H 0.37844 0.89765 0.7741 0.0
C573 C 0.34819 0.87893 0.72544 0.0
H574 H 0.30347 0.85005 0.74913 0.0
H575 H 0.32501 0.79576 0.5177 0.0
O576 O 0.21584 1.01749 0.57393 0.0
C577 C 0.2649 0.91494 0.42341 0.0
Co578 Co 0.21346 0.32719 0.55288 0.0
Co579 Co 0.30474 0.44033 0.54639 0.0
C580 C 0.32648 0.32985 0.54927 0.0
O581 O 0.27438 0.30163 0.57689 0.0
O582 O 0.34522 0.38426 0.53123 0.0
C583 C 0.12456 0.20402 0.58266 0.0
O584 O 0.1487 0.19645 0.64324 0.0
C585 C 0.38588 0.50531 0.63904 0.0
C586 C 0.41168 0.60002 0.6205 0.0
C587 C 0.41432 0.56074 0.67104 0.0
N588 N 0.36668 0.51085 0.5729 0.0
N589 N 0.3815 0.56694 0.56059 0.0
C590 C 0.36343 0.44545 0.67663 0.0
H591 H 0.31869 0.41201 0.65806 0.0
H592 H 0.36169 0.44822 0.73848 0.0
H593 H 0.39198 0.42649 0.65999 0.0
C594 C 0.14695 0.38236 0.64897 0.0
N595 N 0.19321 0.37936 0.6149 0.0
N596 N 0.241 0.43075 0.62196 0.0
C597 C 0.22855 0.46528 0.66925 0.0
C598 C 0.16659 0.43861 0.68529 0.0
C599 C 1.08464 0.33323 0.64186 0.0
H600 H 1.08208 0.29906 0.60214 0.0
H601 H 1.06905 0.31151 0.69694 0.0
H602 H 1.05594 0.3509 0.62146 0.0
O603 O 0.22483 0.35074 0.44525 0.0
O604 O 0.28057 0.44853 0.44618 0.0
H605 H 0.30113 0.55451 0.68136 0.0
H606 H 0.25696 0.52435 0.76582 0.0
C607 C 0.27565 0.51406 0.71573 0.0
H608 H 0.30579 0.49926 0.73828 0.0
H609 H 0.36635 0.58142 0.51555 0.0
O610 O 0.14723 0.25346 0.54949 0.0
C611 C 0.24926 0.40028 0.41094 0.0
loop_
_geom_bond_atom_site_label_1
_geom_bond_atom_site_label_2
_geom_bond_distance
_geom_bond_site_symmetry_2
_ccdc_geom_bond_type
Co0 O3 1.970 . S
Co0 N17 1.989 . S
Co0 O25 1.967 . S
Co0 O32 1.920 . S
Co1 O4 1.966 . S
Co1 N10 2.022 . S
Co1 N18 1.993 . S
Co1 O26 1.941 . S
C2 O3 1.258 . S
C2 O4 1.263 . S
O3 Co0 1.970 . S
O3 C2 1.258 . S
O4 Co1 1.966 . S
O4 C2 1.263 . S
C5 O6 1.235 . S
C5 O32 1.289 . S
O6 C5 1.235 . S
C7 C9 1.400 . S
C7 N10 1.351 . S
C7 C12 1.501 . S
C8 C9 1.387 . S
C8 N11 1.341 . S
C9 C7 1.400 . S
C9 C8 1.387 . S
N10 Co1 2.022 . S
N10 C7 1.351 . S
N10 N11 1.365 . S
N11 C8 1.341 . S
N11 N10 1.365 . S
N11 H31 0.862 . S
C12 C7 1.501 . S
C12 H13 0.961 . S
C12 H14 0.961 1_554 S
C12 H15 0.960 . S
H13 C12 0.961 . S
H14 C12 0.961 1_556 S
H15 C12 0.960 . S
C16 N17 1.342 . S
C16 C20 1.401 . S
C16 C21 1.499 . S
N17 Co0 1.989 . S
N17 C16 1.342 . S
N17 N18 1.388 . S
N18 Co1 1.993 . S
N18 N17 1.388 . S
N18 C19 1.346 . S
C19 N18 1.346 . S
C19 C20 1.396 . S
C19 C29 1.510 1_554 S
C20 C16 1.401 . S
C20 C19 1.396 . S
C21 C16 1.499 . S
C21 H22 0.959 . S
C21 H23 0.960 . S
C21 H24 0.961 . S
H22 C21 0.959 . S
H23 C21 0.960 . S
H24 C21 0.961 . S
O25 Co0 1.967 . S
O25 C33 1.258 . S
O26 Co1 1.941 . S
O26 C33 1.266 . S
H27 C29 0.959 1_554 S
H28 C29 0.961 . S
C29 C19 1.510 1_556 S
C29 H27 0.959 1_556 S
C29 H28 0.961 . S
C29 H30 0.960 1_556 S
H30 C29 0.960 1_554 S
H31 N11 0.862 . S
O32 Co0 1.920 . S
O32 C5 1.289 . S
C33 O25 1.258 . S
C33 O26 1.266 . S
Co34 O37 1.970 . S
Co34 N51 1.989 . S
Co34 O59 1.967 . S
Co34 O66 1.920 . S
Co35 O38 1.966 . S
Co35 N44 2.022 . S
Co35 N52 1.993 . S
Co35 O60 1.941 . S
C36 O37 1.258 . S
C36 O38 1.263 . S
O37 Co34 1.970 . S
O37 C36 1.258 . S
O38 Co35 1.966 . S
O38 C36 1.263 . S
C39 O40 1.235 . S
C39 O66 1.289 . S
O40 C39 1.235 . S
C41 C43 1.400 1_565 S
C41 N44 1.351 . S
C41 C46 1.501 . S
C42 C43 1.387 . S
C42 N45 1.341 1_545 S
C43 C41 1.400 1_545 S
C43 C42 1.387 . S
N44 Co35 2.022 . S
N44 C41 1.351 . S
N44 N45 1.365 . S
N45 C42 1.341 1_565 S
N45 N44 1.365 . S
N45 H65 0.862 . S
C46 C41 1.501 . S
C46 H47 0.961 . S
C46 H48 0.961 1_554 S
C46 H49 0.960 1_565 S
H47 C46 0.961 . S
H48 C46 0.961 1_556 S
H49 C46 0.960 1_545 S
C50 N51 1.342 . S
C50 C54 1.401 . S
C50 C55 1.499 . S
N51 Co34 1.989 . S
N51 C50 1.342 . S
N51 N52 1.388 . S
N52 Co35 1.993 . S
N52 N51 1.388 . S
N52 C53 1.346 . S
C53 N52 1.346 . S
C53 C54 1.396 . S
C53 C63 1.510 1_554 S
C54 C50 1.401 . S
C54 C53 1.396 . S
C55 C50 1.499 . S
C55 H56 0.959 . S
C55 H57 0.960 . S
C55 H58 0.961 . S
H56 C55 0.959 . S
H57 C55 0.960 . S
H58 C55 0.961 . S
O59 Co34 1.967 . S
O59 C67 1.258 . S
O60 Co35 1.941 . S
O60 C67 1.266 . S
H61 C63 0.959 1_554 S
H62 C63 0.961 . S
C63 C53 1.510 1_556 S
C63 H61 0.959 1_556 S
C63 H62 0.961 . S
C63 H64 0.960 1_556 S
H64 C63 0.960 1_554 S
H65 N45 0.862 . S
O66 Co34 1.920 . S
O66 C39 1.289 . S
C67 O59 1.258 . S
C67 O60 1.266 . S
Co68 O71 1.970 . S
Co68 N85 1.989 . S
Co68 O93 1.967 . S
Co68 O100 1.920 . S
Co69 O72 1.966 . S
Co69 N78 2.022 . S
Co69 N86 1.993 . S
Co69 O94 1.941 . S
C70 O71 1.258 . S
C70 O72 1.263 . S
O71 Co68 1.970 . S
O71 C70 1.258 . S
O72 Co69 1.966 . S
O72 C70 1.263 . S
C73 O74 1.235 . S
C73 O100 1.289 . S
O74 C73 1.235 . S
C75 C77 1.400 1_455 S
C75 N78 1.351 . S
C75 C80 1.501 . S
C76 C77 1.387 . S
C76 N79 1.341 1_655 S
C77 C75 1.400 1_655 S
C77 C76 1.387 . S
N78 Co69 2.022 . S
N78 C75 1.351 . S
N78 N79 1.365 . S
N79 C76 1.341 1_455 S
N79 N78 1.365 . S
N79 H99 0.862 . S
C80 C75 1.501 . S
C80 H81 0.961 . S
C80 H82 0.961 1_554 S
C80 H83 0.960 1_455 S
H81 C80 0.961 . S
H82 C80 0.961 1_556 S
H83 C80 0.960 1_655 S
C84 N85 1.342 . S
C84 C88 1.401 . S
C84 C89 1.499 . S
N85 Co68 1.989 . S
N85 C84 1.342 . S
N85 N86 1.388 . S
N86 Co69 1.993 . S
N86 N85 1.388 . S
N86 C87 1.346 . S
C87 N86 1.346 . S
C87 C88 1.396 . S
C87 C97 1.510 1_554 S
C88 C84 1.401 . S
C88 C87 1.396 . S
C89 C84 1.499 . S
C89 H90 0.959 . S
C89 H91 0.960 . S
C89 H92 0.961 . S
H90 C89 0.959 . S
H91 C89 0.960 . S
H92 C89 0.961 . S
O93 Co68 1.967 . S
O93 C101 1.258 . S
O94 Co69 1.941 . S
O94 C101 1.266 . S
H95 C97 0.959 1_554 S
H96 C97 0.961 . S
C97 C87 1.510 1_556 S
C97 H95 0.959 1_556 S
C97 H96 0.961 . S
C97 H98 0.960 1_556 S
H98 C97 0.960 1_554 S
H99 N79 0.862 . S
O100 Co68 1.920 . S
O100 C73 1.289 . S
C101 O93 1.258 . S
C101 O94 1.266 . S
Co102 O105 1.970 . S
Co102 N119 1.989 . S
Co102 O127 1.967 . S
Co102 O134 1.920 . S
Co103 O106 1.966 . S
Co103 N112 2.022 . S
Co103 N120 1.993 . S
Co103 O128 1.941 . S
C104 O105 1.258 . S
C104 O106 1.263 . S
O105 Co102 1.970 . S
O105 C104 1.258 . S
O106 Co103 1.966 . S
O106 C104 1.263 . S
C107 O108 1.235 . S
C107 O134 1.289 . S
O108 C107 1.235 . S
C109 C111 1.400 . S
C109 N112 1.351 . S
C109 C114 1.501 . S
C110 C111 1.387 . S
C110 N113 1.341 . S
C111 C109 1.400 . S
C111 C110 1.387 . S
N112 Co103 2.022 . S
N112 C109 1.351 . S
N112 N113 1.365 . S
N113 C110 1.341 . S
N113 N112 1.365 . S
N113 H133 0.862 . S
C114 C109 1.501 . S
C114 H115 0.961 . S
C114 H116 0.961 1_556 S
C114 H117 0.960 . S
H115 C114 0.961 . S
H116 C114 0.961 1_554 S
H117 C114 0.960 . S
C118 N119 1.342 . S
C118 C122 1.401 . S
C118 C123 1.499 . S
N119 Co102 1.989 . S
N119 C118 1.342 . S
N119 N120 1.388 . S
N120 Co103 1.993 . S
N120 N119 1.388 . S
N120 C121 1.346 . S
C121 N120 1.346 . S
C121 C122 1.396 . S
C121 C131 1.510 1_556 S
C122 C118 1.401 . S
C122 C121 1.396 . S
C123 C118 1.499 . S
C123 H124 0.959 . S
C123 H125 0.960 . S
C123 H126 0.961 . S
H124 C123 0.959 . S
H125 C123 0.960 . S
H126 C123 0.961 . S
O127 Co102 1.967 . S
O127 C135 1.258 . S
O128 Co103 1.941 . S
O128 C135 1.266 . S
H129 C131 0.959 1_556 S
H130 C131 0.961 . S
C131 C121 1.510 1_554 S
C131 H129 0.959 1_554 S
C131 H130 0.961 . S
C131 H132 0.960 1_554 S
H132 C131 0.960 1_556 S
H133 N113 0.862 . S
O134 Co102 1.920 . S
O134 C107 1.289 . S
C135 O127 1.258 . S
C135 O128 1.266 . S
Co136 O139 1.970 . S
Co136 N153 1.989 . S
Co136 O161 1.967 . S
Co136 O168 1.920 . S
Co137 O140 1.966 . S
Co137 N146 2.022 . S
Co137 N154 1.993 . S
Co137 O162 1.941 . S
C138 O139 1.258 . S
C138 O140 1.263 . S
O139 Co136 1.970 . S
O139 C138 1.258 . S
O140 Co137 1.966 . S
O140 C138 1.263 . S
C141 O142 1.235 . S
C141 O168 1.289 . S
O142 C141 1.235 . S
C143 C145 1.400 1_545 S
C143 N146 1.351 . S
C143 C148 1.501 . S
C144 C145 1.387 . S
C144 N147 1.341 1_565 S
C145 C143 1.400 1_565 S
C145 C144 1.387 . S
N146 Co137 2.022 . S
N146 C143 1.351 . S
N146 N147 1.365 . S
N147 C144 1.341 1_545 S
N147 N146 1.365 . S
N147 H167 0.862 . S
C148 C143 1.501 . S
C148 H149 0.961 . S
C148 H150 0.961 1_556 S
C148 H151 0.960 1_545 S
H149 C148 0.961 . S
H150 C148 0.961 1_554 S
H151 C148 0.960 1_565 S
C152 N153 1.342 . S
C152 C156 1.401 . S
C152 C157 1.499 . S
N153 Co136 1.989 . S
N153 C152 1.342 . S
N153 N154 1.388 . S
N154 Co137 1.993 . S
N154 N153 1.388 . S
N154 C155 1.346 . S
C155 N154 1.346 . S
C155 C156 1.396 . S
C155 C165 1.510 1_556 S
C156 C152 1.401 . S
C156 C155 1.396 . S
C157 C152 1.499 . S
C157 H158 0.959 . S
C157 H159 0.960 . S
C157 H160 0.961 . S
H158 C157 0.959 . S
H159 C157 0.960 . S
H160 C157 0.961 . S
O161 Co136 1.967 . S
O161 C169 1.258 . S
O162 Co137 1.941 . S
O162 C169 1.266 . S
H163 C165 0.959 1_556 S
H164 C165 0.961 . S
C165 C155 1.510 1_554 S
C165 H163 0.959 1_554 S
C165 H164 0.961 . S
C165 H166 0.960 1_554 S
H166 C165 0.960 1_556 S
H167 N147 0.862 . S
O168 Co136 1.920 . S
O168 C141 1.289 . S
C169 O161 1.258 . S
C169 O162 1.266 . S
Co170 O173 1.970 . S
Co170 N187 1.989 . S
Co170 O195 1.967 . S
Co170 O202 1.920 . S
Co171 O174 1.966 . S
Co171 N180 2.022 . S
Co171 N188 1.993 . S
Co171 O196 1.941 . S
C172 O173 1.258 . S
C172 O174 1.263 . S
O173 Co170 1.970 . S
O173 C172 1.258 . S
O174 Co171 1.966 . S
O174 C172 1.263 . S
C175 O176 1.235 . S
C175 O202 1.289 . S
O176 C175 1.235 . S
C177 C179 1.400 1_655 S
C177 N180 1.351 . S
C177 C182 1.501 . S
C178 C179 1.387 . S
C178 N181 1.341 1_455 S
C179 C177 1.400 1_455 S
C179 C178 1.387 . S
N180 Co171 2.022 . S
N180 C177 1.351 . S
N180 N181 1.365 . S
N181 C178 1.341 1_655 S
N181 N180 1.365 . S
N181 H201 0.862 . S
C182 C177 1.501 . S
C182 H183 0.961 . S
C182 H184 0.961 1_556 S
C182 H185 0.960 1_655 S
H183 C182 0.961 . S
H184 C182 0.961 1_554 S
H185 C182 0.960 1_455 S
C186 N187 1.342 . S
C186 C190 1.401 . S
C186 C191 1.499 . S
N187 Co170 1.989 . S
N187 C186 1.342 . S
N187 N188 1.388 . S
N188 Co171 1.993 . S
N188 N187 1.388 . S
N188 C189 1.346 . S
C189 N188 1.346 . S
C189 C190 1.396 . S
C189 C199 1.510 1_556 S
C190 C186 1.401 . S
C190 C189 1.396 . S
C191 C186 1.499 . S
C191 H192 0.959 . S
C191 H193 0.960 . S
C191 H194 0.961 . S
H192 C191 0.959 . S
H193 C191 0.960 . S
H194 C191 0.961 . S
O195 Co170 1.967 . S
O195 C203 1.258 . S
O196 Co171 1.941 . S
O196 C203 1.266 . S
H197 C199 0.959 1_556 S
H198 C199 0.961 . S
C199 C189 1.510 1_554 S
C199 H197 0.959 1_554 S
C199 H198 0.961 . S
C199 H200 0.960 1_554 S
H200 C199 0.960 1_556 S
H201 N181 0.862 . S
O202 Co170 1.920 . S
O202 C175 1.289 . S
C203 O195 1.258 . S
C203 O196 1.266 . S
Co204 O207 1.970 . S
Co204 N221 1.989 . S
Co204 O229 1.967 . S
Co204 O236 1.920 . S
Co205 O208 1.966 . S
Co205 N214 2.022 . S
Co205 N222 1.993 . S
Co205 O230 1.941 . S
C206 O207 1.258 . S
C206 O208 1.263 . S
O207 Co204 1.970 . S
O207 C206 1.258 . S
O208 Co205 1.966 . S
O208 C206 1.263 . S
C209 O210 1.235 . S
C209 O236 1.289 . S
O210 C209 1.235 . S
C211 C213 1.400 . S
C211 N214 1.351 . S
C211 C216 1.501 . S
C212 C213 1.387 . S
C212 N215 1.341 . S
C213 C211 1.400 . S
C213 C212 1.387 . S
N214 Co205 2.022 . S
N214 C211 1.351 . S
N214 N215 1.365 . S
N215 C212 1.341 . S
N215 N214 1.365 . S
N215 H235 0.862 . S
C216 C211 1.501 . S
C216 H217 0.961 . S
C216 H218 0.961 . S
C216 H219 0.960 . S
H217 C216 0.961 . S
H218 C216 0.961 . S
H219 C216 0.960 . S
C220 N221 1.342 . S
C220 C224 1.401 . S
C220 C225 1.499 . S
N221 Co204 1.989 . S
N221 C220 1.342 . S
N221 N222 1.388 . S
N222 Co205 1.993 . S
N222 N221 1.388 . S
N222 C223 1.346 . S
C223 N222 1.346 . S
C223 C224 1.396 . S
C223 C233 1.510 . S
C224 C220 1.401 . S
C224 C223 1.396 . S
C225 C220 1.499 . S
C225 H226 0.959 . S
C225 H227 0.960 . S
C225 H228 0.961 . S
H226 C225 0.959 . S
H227 C225 0.960 . S
H228 C225 0.961 . S
O229 Co204 1.967 . S
O229 C237 1.258 . S
O230 Co205 1.941 . S
O230 C237 1.266 . S
H231 C233 0.959 . S
H232 C233 0.961 . S
C233 C223 1.510 . S
C233 H231 0.959 . S
C233 H232 0.961 . S
C233 H234 0.960 . S
H234 C233 0.960 . S
H235 N215 0.862 . S
O236 Co204 1.920 . S
O236 C209 1.289 . S
C237 O229 1.258 . S
C237 O230 1.266 . S
Co238 O241 1.970 . S
Co238 N255 1.989 . S
Co238 O263 1.967 . S
Co238 O270 1.920 . S
Co239 O242 1.966 . S
Co239 N248 2.022 . S
Co239 N256 1.993 . S
Co239 O264 1.941 . S
C240 O241 1.258 . S
C240 O242 1.263 . S
O241 Co238 1.970 . S
O241 C240 1.258 . S
O242 Co239 1.966 . S
O242 C240 1.263 . S
C243 O244 1.235 . S
C243 O270 1.289 1_565 S
O244 C243 1.235 . S
C245 C247 1.400 . S
C245 N248 1.351 . S
C245 C250 1.501 . S
C246 C247 1.387 . S
C246 N249 1.341 . S
C247 C245 1.400 . S
C247 C246 1.387 . S
N248 Co239 2.022 . S
N248 C245 1.351 . S
N248 N249 1.365 . S
N249 C246 1.341 . S
N249 N248 1.365 . S
N249 H269 0.862 . S
C250 C245 1.501 . S
C250 H251 0.961 . S
C250 H252 0.961 . S
C250 H253 0.960 . S
H251 C250 0.961 . S
H252 C250 0.961 . S
H253 C250 0.960 . S
C254 N255 1.342 . S
C254 C258 1.401 . S
C254 C259 1.499 . S
N255 Co238 1.989 . S
N255 C254 1.342 . S
N255 N256 1.388 . S
N256 Co239 1.993 . S
N256 N255 1.388 . S
N256 C257 1.346 . S
C257 N256 1.346 . S
C257 C258 1.396 . S
C257 C267 1.510 . S
C258 C254 1.401 . S
C258 C257 1.396 . S
C259 C254 1.499 . S
C259 H260 0.959 . S
C259 H261 0.960 1_545 S
C259 H262 0.961 . S
H260 C259 0.959 . S
H261 C259 0.960 1_565 S
H262 C259 0.961 . S
O263 Co238 1.967 . S
O263 C271 1.258 . S
O264 Co239 1.941 . S
O264 C271 1.266 . S
H265 C267 0.959 . S
H266 C267 0.961 . S
C267 C257 1.510 . S
C267 H265 0.959 . S
C267 H266 0.961 . S
C267 H268 0.960 . S
H268 C267 0.960 . S
H269 N249 0.862 . S
O270 Co238 1.920 . S
O270 C243 1.289 1_545 S
C271 O263 1.258 . S
C271 O264 1.266 . S
Co272 O275 1.970 . S
Co272 N289 1.989 . S
Co272 O297 1.967 . S
Co272 O304 1.920 . S
Co273 O276 1.966 . S
Co273 N282 2.022 . S
Co273 N290 1.993 . S
Co273 O298 1.941 . S
C274 O275 1.258 . S
C274 O276 1.263 . S
O275 Co272 1.970 . S
O275 C274 1.258 . S
O276 Co273 1.966 . S
O276 C274 1.263 . S
C277 O278 1.235 . S
C277 O304 1.289 1_455 S
O278 C277 1.235 . S
C279 C281 1.400 . S
C279 N282 1.351 . S
C279 C284 1.501 . S
C280 C281 1.387 . S
C280 N283 1.341 . S
C281 C279 1.400 . S
C281 C280 1.387 . S
N282 Co273 2.022 . S
N282 C279 1.351 . S
N282 N283 1.365 . S
N283 C280 1.341 . S
N283 N282 1.365 . S
N283 H303 0.862 . S
C284 C279 1.501 . S
C284 H285 0.961 . S
C284 H286 0.961 . S
C284 H287 0.960 . S
H285 C284 0.961 . S
H286 C284 0.961 . S
H287 C284 0.960 . S
C288 N289 1.342 . S
C288 C292 1.401 . S
C288 C293 1.499 . S
N289 Co272 1.989 . S
N289 C288 1.342 . S
N289 N290 1.388 . S
N290 Co273 1.993 . S
N290 N289 1.388 . S
N290 C291 1.346 . S
C291 N290 1.346 . S
C291 C292 1.396 . S
C291 C301 1.510 . S
C292 C288 1.401 . S
C292 C291 1.396 . S
C293 C288 1.499 . S
C293 H294 0.959 . S
C293 H295 0.960 1_655 S
C293 H296 0.961 . S
H294 C293 0.959 . S
H295 C293 0.960 1_455 S
H296 C293 0.961 . S
O297 Co272 1.967 . S
O297 C305 1.258 . S
O298 Co273 1.941 . S
O298 C305 1.266 . S
H299 C301 0.959 . S
H300 C301 0.961 . S
C301 C291 1.510 . S
C301 H299 0.959 . S
C301 H300 0.961 . S
C301 H302 0.960 . S
H302 C301 0.960 . S
H303 N283 0.862 . S
O304 Co272 1.920 . S
O304 C277 1.289 1_655 S
C305 O297 1.258 . S
C305 O298 1.266 . S
Co306 O309 1.970 . S
Co306 N323 1.989 1_455 S
Co306 O331 1.967 . S
Co306 O338 1.920 . S
Co307 O310 1.966 1_655 S
Co307 N316 2.022 . S
Co307 N324 1.993 . S
Co307 O332 1.941 . S
C308 O309 1.258 . S
C308 O310 1.263 . S
O309 Co306 1.970 . S
O309 C308 1.258 . S
O310 Co307 1.966 1_455 S
O310 C308 1.263 . S
C311 O312 1.235 . S
C311 O338 1.289 . S
O312 C311 1.235 . S
C313 C315 1.400 . S
C313 N316 1.351 . S
C313 C318 1.501 . S
C314 C315 1.387 . S
C314 N317 1.341 . S
C315 C313 1.400 . S
C315 C314 1.387 . S
N316 Co307 2.022 . S
N316 C313 1.351 . S
N316 N317 1.365 . S
N317 C314 1.341 . S
N317 N316 1.365 . S
N317 H337 0.862 . S
C318 C313 1.501 . S
C318 H319 0.961 . S
C318 H320 0.961 . S
C318 H321 0.960 . S
H319 C318 0.961 . S
H320 C318 0.961 . S
H321 C318 0.960 . S
C322 N323 1.342 . S
C322 C326 1.401 . S
C322 C327 1.499 1_655 S
N323 Co306 1.989 1_655 S
N323 C322 1.342 . S
N323 N324 1.388 . S
N324 Co307 1.993 . S
N324 N323 1.388 . S
N324 C325 1.346 . S
C325 N324 1.346 . S
C325 C326 1.396 . S
C325 C335 1.510 . S
C326 C322 1.401 . S
C326 C325 1.396 . S
C327 C322 1.499 1_455 S
C327 H328 0.959 . S
C327 H329 0.960 . S
C327 H330 0.961 1_455 S
H328 C327 0.959 . S
H329 C327 0.960 . S
H330 C327 0.961 1_655 S
O331 Co306 1.967 . S
O331 C339 1.258 1_455 S
O332 Co307 1.941 . S
O332 C339 1.266 . S
H333 C335 0.959 . S
H334 C335 0.961 . S
C335 C325 1.510 . S
C335 H333 0.959 . S
C335 H334 0.961 . S
C335 H336 0.960 . S
H336 C335 0.960 . S
H337 N317 0.862 . S
O338 Co306 1.920 . S
O338 C311 1.289 . S
C339 O331 1.258 1_655 S
C339 O332 1.266 . S
Co340 O343 1.970 . S
Co340 N357 1.989 . S
Co340 O365 1.967 . S
Co340 O372 1.920 . S
Co341 O344 1.966 . S
Co341 N350 2.022 . S
Co341 N358 1.993 . S
Co341 O366 1.941 . S
C342 O343 1.258 . S
C342 O344 1.263 . S
O343 Co340 1.970 . S
O343 C342 1.258 . S
O344 Co341 1.966 . S
O344 C342 1.263 . S
C345 O346 1.235 . S
C345 O372 1.289 . S
O346 C345 1.235 . S
C347 C349 1.400 . S
C347 N350 1.351 . S
C347 C352 1.501 . S
C348 C349 1.387 . S
C348 N351 1.341 . S
C349 C347 1.400 . S
C349 C348 1.387 . S
N350 Co341 2.022 . S
N350 C347 1.351 . S
N350 N351 1.365 . S
N351 C348 1.341 . S
N351 N350 1.365 . S
N351 H371 0.862 . S
C352 C347 1.501 . S
C352 H353 0.961 . S
C352 H354 0.961 . S
C352 H355 0.960 . S
H353 C352 0.961 . S
H354 C352 0.961 . S
H355 C352 0.960 . S
C356 N357 1.342 . S
C356 C360 1.401 . S
C356 C361 1.499 . S
N357 Co340 1.989 . S
N357 C356 1.342 . S
N357 N358 1.388 . S
N358 Co341 1.993 . S
N358 N357 1.388 . S
N358 C359 1.346 . S
C359 N358 1.346 . S
C359 C360 1.396 . S
C359 C369 1.510 . S
C360 C356 1.401 . S
C360 C359 1.396 . S
C361 C356 1.499 . S
C361 H362 0.959 . S
C361 H363 0.960 . S
C361 H364 0.961 . S
H362 C361 0.959 . S
H363 C361 0.960 . S
H364 C361 0.961 . S
O365 Co340 1.967 . S
O365 C373 1.258 . S
O366 Co341 1.941 . S
O366 C373 1.266 . S
H367 C369 0.959 . S
H368 C369 0.961 . S
C369 C359 1.510 . S
C369 H367 0.959 . S
C369 H368 0.961 . S
C369 H370 0.960 . S
H370 C369 0.960 . S
H371 N351 0.862 . S
O372 Co340 1.920 . S
O372 C345 1.289 . S
C373 O365 1.258 . S
C373 O366 1.266 . S
Co374 O377 1.970 . S
Co374 N391 1.989 1_565 S
Co374 O399 1.967 . S
Co374 O406 1.920 . S
Co375 O378 1.966 1_545 S
Co375 N384 2.022 . S
Co375 N392 1.993 . S
Co375 O400 1.941 . S
C376 O377 1.258 . S
C376 O378 1.263 . S
O377 Co374 1.970 . S
O377 C376 1.258 . S
O378 Co375 1.966 1_565 S
O378 C376 1.263 . S
C379 O380 1.235 . S
C379 O406 1.289 . S
O380 C379 1.235 . S
C381 C383 1.400 . S
C381 N384 1.351 . S
C381 C386 1.501 . S
C382 C383 1.387 . S
C382 N385 1.341 . S
C383 C381 1.400 . S
C383 C382 1.387 . S
N384 Co375 2.022 . S
N384 C381 1.351 . S
N384 N385 1.365 . S
N385 C382 1.341 . S
N385 N384 1.365 . S
N385 H405 0.862 . S
C386 C381 1.501 . S
C386 H387 0.961 . S
C386 H388 0.961 . S
C386 H389 0.960 . S
H387 C386 0.961 . S
H388 C386 0.961 . S
H389 C386 0.960 . S
C390 N391 1.342 . S
C390 C394 1.401 . S
C390 C395 1.499 1_545 S
N391 Co374 1.989 1_545 S
N391 C390 1.342 . S
N391 N392 1.388 . S
N392 Co375 1.993 . S
N392 N391 1.388 . S
N392 C393 1.346 . S
C393 N392 1.346 . S
C393 C394 1.396 . S
C393 C403 1.510 . S
C394 C390 1.401 . S
C394 C393 1.396 . S
C395 C390 1.499 1_565 S
C395 H396 0.959 . S
C395 H397 0.960 . S
C395 H398 0.961 1_565 S
H396 C395 0.959 . S
H397 C395 0.960 . S
H398 C395 0.961 1_545 S
O399 Co374 1.967 . S
O399 C407 1.258 1_565 S
O400 Co375 1.941 . S
O400 C407 1.266 . S
H401 C403 0.959 . S
H402 C403 0.961 . S
C403 C393 1.510 . S
C403 H401 0.959 . S
C403 H402 0.961 . S
C403 H404 0.960 . S
H404 C403 0.960 . S
H405 N385 0.862 . S
O406 Co374 1.920 . S
O406 C379 1.289 . S
C407 O399 1.258 1_545 S
C407 O400 1.266 . S
Co408 O411 1.970 . S
Co408 N425 1.989 1_545 S
Co408 O433 1.967 . S
Co408 O440 1.920 . S
Co409 O412 1.966 1_565 S
Co409 N418 2.022 . S
Co409 N426 1.993 . S
Co409 O434 1.941 . S
C410 O411 1.258 . S
C410 O412 1.263 . S
O411 Co408 1.970 . S
O411 C410 1.258 . S
O412 Co409 1.966 1_545 S
O412 C410 1.263 . S
C413 O414 1.235 . S
C413 O440 1.289 . S
O414 C413 1.235 . S
C415 C417 1.400 . S
C415 N418 1.351 . S
C415 C420 1.501 . S
C416 C417 1.387 . S
C416 N419 1.341 . S
C417 C415 1.400 . S
C417 C416 1.387 . S
N418 Co409 2.022 . S
N418 C415 1.351 . S
N418 N419 1.365 . S
N419 C416 1.341 . S
N419 N418 1.365 . S
N419 H439 0.862 . S
C420 C415 1.501 . S
C420 H421 0.961 . S
C420 H422 0.961 . S
C420 H423 0.960 . S
H421 C420 0.961 . S
H422 C420 0.961 . S
H423 C420 0.960 . S
C424 N425 1.342 . S
C424 C428 1.401 . S
C424 C429 1.499 1_565 S
N425 Co408 1.989 1_565 S
N425 C424 1.342 . S
N425 N426 1.388 . S
N426 Co409 1.993 . S
N426 N425 1.388 . S
N426 C427 1.346 . S
C427 N426 1.346 . S
C427 C428 1.396 . S
C427 C437 1.510 . S
C428 C424 1.401 . S
C428 C427 1.396 . S
C429 C424 1.499 1_545 S
C429 H430 0.959 . S
C429 H431 0.960 . S
C429 H432 0.961 1_545 S
H430 C429 0.959 . S
H431 C429 0.960 . S
H432 C429 0.961 1_565 S
O433 Co408 1.967 . S
O433 C441 1.258 1_545 S
O434 Co409 1.941 . S
O434 C441 1.266 . S
H435 C437 0.959 . S
H436 C437 0.961 . S
C437 C427 1.510 . S
C437 H435 0.959 . S
C437 H436 0.961 . S
C437 H438 0.960 . S
H438 C437 0.960 . S
H439 N419 0.862 . S
O440 Co408 1.920 . S
O440 C413 1.289 . S
C441 O433 1.258 1_565 S
C441 O434 1.266 . S
Co442 O445 1.970 . S
Co442 N459 1.989 1_655 S
Co442 O467 1.967 . S
Co442 O474 1.920 . S
Co443 O446 1.966 1_455 S
Co443 N452 2.022 . S
Co443 N460 1.993 . S
Co443 O468 1.941 . S
C444 O445 1.258 . S
C444 O446 1.263 . S
O445 Co442 1.970 . S
O445 C444 1.258 . S
O446 Co443 1.966 1_655 S
O446 C444 1.263 . S
C447 O448 1.235 . S
C447 O474 1.289 . S
O448 C447 1.235 . S
C449 C451 1.400 . S
C449 N452 1.351 . S
C449 C454 1.501 . S
C450 C451 1.387 . S
C450 N453 1.341 . S
C451 C449 1.400 . S
C451 C450 1.387 . S
N452 Co443 2.022 . S
N452 C449 1.351 . S
N452 N453 1.365 . S
N453 C450 1.341 . S
N453 N452 1.365 . S
N453 H473 0.862 . S
C454 C449 1.501 . S
C454 H455 0.961 . S
C454 H456 0.961 . S
C454 H457 0.960 . S
H455 C454 0.961 . S
H456 C454 0.961 . S
H457 C454 0.960 . S
C458 N459 1.342 . S
C458 C462 1.401 . S
C458 C463 1.499 1_455 S
N459 Co442 1.989 1_455 S
N459 C458 1.342 . S
N459 N460 1.388 . S
N460 Co443 1.993 . S
N460 N459 1.388 . S
N460 C461 1.346 . S
C461 N460 1.346 . S
C461 C462 1.396 . S
C461 C471 1.510 . S
C462 C458 1.401 . S
C462 C461 1.396 . S
C463 C458 1.499 1_655 S
C463 H464 0.959 . S
C463 H465 0.960 . S
C463 H466 0.961 1_655 S
H464 C463 0.959 . S
H465 C463 0.960 . S
H466 C463 0.961 1_455 S
O467 Co442 1.967 . S
O467 C475 1.258 1_655 S
O468 Co443 1.941 . S
O468 C475 1.266 . S
H469 C471 0.959 . S
H470 C471 0.961 . S
C471 C461 1.510 . S
C471 H469 0.959 . S
C471 H470 0.961 . S
C471 H472 0.960 . S
H472 C471 0.960 . S
H473 N453 0.862 . S
O474 Co442 1.920 . S
O474 C447 1.289 . S
C475 O467 1.258 1_455 S
C475 O468 1.266 . S
Co476 O479 1.970 . S
Co476 N493 1.989 . S
Co476 O501 1.967 . S
Co476 O508 1.920 . S
Co477 O480 1.966 . S
Co477 N486 2.022 . S
Co477 N494 1.993 . S
Co477 O502 1.941 . S
C478 O479 1.258 . S
C478 O480 1.263 . S
O479 Co476 1.970 . S
O479 C478 1.258 . S
O480 Co477 1.966 . S
O480 C478 1.263 . S
C481 O482 1.235 . S
C481 O508 1.289 . S
O482 C481 1.235 . S
C483 C485 1.400 . S
C483 N486 1.351 . S
C483 C488 1.501 . S
C484 C485 1.387 . S
C484 N487 1.341 . S
C485 C483 1.400 . S
C485 C484 1.387 . S
N486 Co477 2.022 . S
N486 C483 1.351 . S
N486 N487 1.365 . S
N487 C484 1.341 . S
N487 N486 1.365 . S
N487 H507 0.862 . S
C488 C483 1.501 . S
C488 H489 0.961 . S
C488 H490 0.961 . S
C488 H491 0.960 . S
H489 C488 0.961 . S
H490 C488 0.961 . S
H491 C488 0.960 . S
C492 N493 1.342 . S
C492 C496 1.401 . S
C492 C497 1.499 . S
N493 Co476 1.989 . S
N493 C492 1.342 . S
N493 N494 1.388 . S
N494 Co477 1.993 . S
N494 N493 1.388 . S
N494 C495 1.346 . S
C495 N494 1.346 . S
C495 C496 1.396 . S
C495 C505 1.510 . S
C496 C492 1.401 . S
C496 C495 1.396 . S
C497 C492 1.499 . S
C497 H498 0.959 . S
C497 H499 0.960 . S
C497 H500 0.961 . S
H498 C497 0.959 . S
H499 C497 0.960 . S
H500 C497 0.961 . S
O501 Co476 1.967 . S
O501 C509 1.258 . S
O502 Co477 1.941 . S
O502 C509 1.266 . S
H503 C505 0.959 . S
H504 C505 0.961 . S
C505 C495 1.510 . S
C505 H503 0.959 . S
C505 H504 0.961 . S
C505 H506 0.960 . S
H506 C505 0.960 . S
H507 N487 0.862 . S
O508 Co476 1.920 . S
O508 C481 1.289 . S
C509 O501 1.258 . S
C509 O502 1.266 . S
Co510 O513 1.970 . S
Co510 N527 1.989 . S
Co510 O535 1.967 . S
Co510 O542 1.920 . S
Co511 O514 1.966 . S
Co511 N520 2.022 . S
Co511 N528 1.993 . S
Co511 O536 1.941 . S
C512 O513 1.258 . S
C512 O514 1.263 . S
O513 Co510 1.970 . S
O513 C512 1.258 . S
O514 Co511 1.966 . S
O514 C512 1.263 . S
C515 O516 1.235 . S
C515 O542 1.289 . S
O516 C515 1.235 . S
C517 C519 1.400 . S
C517 N520 1.351 . S
C517 C522 1.501 . S
C518 C519 1.387 . S
C518 N521 1.341 . S
C519 C517 1.400 . S
C519 C518 1.387 . S
N520 Co511 2.022 . S
N520 C517 1.351 . S
N520 N521 1.365 . S
N521 C518 1.341 . S
N521 N520 1.365 . S
N521 H541 0.862 . S
C522 C517 1.501 . S
C522 H523 0.961 . S
C522 H524 0.961 . S
C522 H525 0.960 . S
H523 C522 0.961 . S
H524 C522 0.961 . S
H525 C522 0.960 . S
C526 N527 1.342 . S
C526 C530 1.401 . S
C526 C531 1.499 . S
N527 Co510 1.989 . S
N527 C526 1.342 . S
N527 N528 1.388 . S
N528 Co511 1.993 . S
N528 N527 1.388 . S
N528 C529 1.346 . S
C529 N528 1.346 . S
C529 C530 1.396 . S
C529 C539 1.510 . S
C530 C526 1.401 . S
C530 C529 1.396 . S
C531 C526 1.499 . S
C531 H532 0.959 . S
C531 H533 0.960 . S
C531 H534 0.961 . S
H532 C531 0.959 . S
H533 C531 0.960 . S
H534 C531 0.961 . S
O535 Co510 1.967 . S
O535 C543 1.258 . S
O536 Co511 1.941 . S
O536 C543 1.266 . S
H537 C539 0.959 . S
H538 C539 0.961 . S
C539 C529 1.510 . S
C539 H537 0.959 . S
C539 H538 0.961 . S
C539 H540 0.960 . S
H540 C539 0.960 . S
H541 N521 0.862 . S
O542 Co510 1.920 . S
O542 C515 1.289 . S
C543 O535 1.258 . S
C543 O536 1.266 . S
Co544 O547 1.970 . S
Co544 N561 1.989 . S
Co544 O569 1.967 . S
Co544 O576 1.920 . S
Co545 O548 1.966 . S
Co545 N554 2.022 . S
Co545 N562 1.993 . S
Co545 O570 1.941 . S
C546 O547 1.258 . S
C546 O548 1.263 . S
O547 Co544 1.970 . S
O547 C546 1.258 . S
O548 Co545 1.966 . S
O548 C546 1.263 . S
C549 O550 1.235 . S
C549 O576 1.289 1_545 S
O550 C549 1.235 . S
C551 C553 1.400 . S
C551 N554 1.351 . S
C551 C556 1.501 . S
C552 C553 1.387 . S
C552 N555 1.341 . S
C553 C551 1.400 . S
C553 C552 1.387 . S
N554 Co545 2.022 . S
N554 C551 1.351 . S
N554 N555 1.365 . S
N555 C552 1.341 . S
N555 N554 1.365 . S
N555 H575 0.862 . S
C556 C551 1.501 . S
C556 H557 0.961 . S
C556 H558 0.961 . S
C556 H559 0.960 . S
H557 C556 0.961 . S
H558 C556 0.961 . S
H559 C556 0.960 . S
C560 N561 1.342 . S
C560 C564 1.401 . S
C560 C565 1.499 . S
N561 Co544 1.989 . S
N561 C560 1.342 . S
N561 N562 1.388 . S
N562 Co545 1.993 . S
N562 N561 1.388 . S
N562 C563 1.346 . S
C563 N562 1.346 . S
C563 C564 1.396 . S
C563 C573 1.510 . S
C564 C560 1.401 . S
C564 C563 1.396 . S
C565 C560 1.499 . S
C565 H566 0.959 . S
C565 H567 0.960 1_565 S
C565 H568 0.961 . S
H566 C565 0.959 . S
H567 C565 0.960 1_545 S
H568 C565 0.961 . S
O569 Co544 1.967 . S
O569 C577 1.258 . S
O570 Co545 1.941 . S
O570 C577 1.266 . S
H571 C573 0.959 . S
H572 C573 0.961 . S
C573 C563 1.510 . S
C573 H571 0.959 . S
C573 H572 0.961 . S
C573 H574 0.960 . S
H574 C573 0.960 . S
H575 N555 0.862 . S
O576 Co544 1.920 . S
O576 C549 1.289 1_565 S
C577 O569 1.258 . S
C577 O570 1.266 . S
Co578 O581 1.970 . S
Co578 N595 1.989 . S
Co578 O603 1.967 . S
Co578 O610 1.920 . S
Co579 O582 1.966 . S
Co579 N588 2.022 . S
Co579 N596 1.993 . S
Co579 O604 1.941 . S
C580 O581 1.258 . S
C580 O582 1.263 . S
O581 Co578 1.970 . S
O581 C580 1.258 . S
O582 Co579 1.966 . S
O582 C580 1.263 . S
C583 O584 1.235 . S
C583 O610 1.289 1_655 S
O584 C583 1.235 . S
C585 C587 1.400 . S
C585 N588 1.351 . S
C585 C590 1.501 . S
C586 C587 1.387 . S
C586 N589 1.341 . S
C587 C585 1.400 . S
C587 C586 1.387 . S
N588 Co579 2.022 . S
N588 C585 1.351 . S
N588 N589 1.365 . S
N589 C586 1.341 . S
N589 N588 1.365 . S
N589 H609 0.862 . S
C590 C585 1.501 . S
C590 H591 0.961 . S
C590 H592 0.961 . S
C590 H593 0.960 . S
H591 C590 0.961 . S
H592 C590 0.961 . S
H593 C590 0.960 . S
C594 N595 1.342 . S
C594 C598 1.401 . S
C594 C599 1.499 . S
N595 Co578 1.989 . S
N595 C594 1.342 . S
N595 N596 1.388 . S
N596 Co579 1.993 . S
N596 N595 1.388 . S
N596 C597 1.346 . S
C597 N596 1.346 . S
C597 C598 1.396 . S
C597 C607 1.510 . S
C598 C594 1.401 . S
C598 C597 1.396 . S
C599 C594 1.499 . S
C599 H600 0.959 . S
C599 H601 0.960 1_455 S
C599 H602 0.961 . S
H600 C599 0.959 . S
H601 C599 0.960 1_655 S
H602 C599 0.961 . S
O603 Co578 1.967 . S
O603 C611 1.258 . S
O604 Co579 1.941 . S
O604 C611 1.266 . S
H605 C607 0.959 . S
H606 C607 0.961 . S
C607 C597 1.510 . S
C607 H605 0.959 . S
C607 H606 0.961 . S
C607 H608 0.960 . S
H608 C607 0.960 . S
H609 N589 0.862 . S
O610 Co578 1.920 . S
O610 C583 1.289 1_455 S
C611 O603 1.258 . S
C611 O604 1.266 . S
C111 C9 1.119 1_556 S
C43 C145 1.255 1_544 S
C77 C179 1.255 1_654 S
C190 C54 3.394 1_556 S
C122 C88 3.241 1_546 S
C156 C20 3.241 1_656 S
C315 C213 1.446 . S
C349 C247 1.121 . S
C281 C383 1.631 . S
C394 C258 3.118 . S
C326 C292 3.099 . S
C224 C360 3.297 . S
C519 C417 1.446 . S
C451 C553 1.631 . S
C485 C587 1.121 . S
C462 C598 3.118 . S
C530 C496 3.297 . S
C564 C428 3.099 . S
C611 C33 2.114 . S
C543 C67 2.115 . S
C101 C577 2.012 . S
C135 C271 2.114 . S
C305 C169 2.012 . S
C237 C203 2.115 . S
C339 C475 2.207 1_654 S
C509 C373 2.205 1_556 S
C441 C407 2.207 1_566 S
C2 C342 3.198 . S
C376 C36 3.430 . S
C308 C70 3.452 . S
C104 C478 3.198 . S
C410 C138 3.452 . S
C172 C444 3.430 . S
C481 C175 0.924 . S
C107 C413 0.813 . S
C447 C141 0.868 . S
C39 C345 0.924 . S
C73 C379 0.868 . S
C311 C5 0.813 . S
C546 C206 3.253 1_455 S
C240 C580 3.109 . S
C512 C274 3.253 1_565 S
C549 C243 0.811 1_545 S
C583 C277 0.811 1_655 S
C515 C209 1.027 . S
