# Generated by pormake.
# Topology sma, (6)-cn, num edge types: 1
# Building blocks:
#     Node 0, Type 0, BuildingBlock: BETFEN_clean_sbu_0, # of connection points: 6
#     Node 1, Type 0, BuildingBlock: BETFEN_clean_sbu_0, # of connection points: 6
#     Node 2, Type 0, BuildingBlock: BETFEN_clean_sbu_0, # of connection points: 6
#     Edge 3, Type (0, 0), BuildingBlock: FUNLAD_clean_linker_1, # of connection points: 2
#     Edge 4, Type (0, 0), BuildingBlock: FUNLAD_clean_linker_1, # of connection points: 2
#     Edge 5, Type (0, 0), BuildingBlock: FUNLAD_clean_linker_1, # of connection points: 2
#     Edge 6, Type (0, 0), BuildingBlock: FUNLAD_clean_linker_1, # of connection points: 2
#     Edge 7, Type (0, 0), BuildingBlock: FUNLAD_clean_linker_1, # of connection points: 2
#     Edge 8, Type (0, 0), BuildingBlock: FUNLAD_clean_linker_1, # of connection points: 2
#     Edge 9, Type (0, 0), BuildingBlock: FUNLAD_clean_linker_1, # of connection points: 2
#     Edge 10, Type (0, 0), BuildingBlock: FUNLAD_clean_linker_1, # of connection points: 2
#     Edge 11, Type (0, 0), BuildingBlock: FUNLAD_clean_linker_1, # of connection points: 2
# Relax obj value: 0.129
# Max RMSD: 0.254
# Mean RMSD: 0.202
data_MOF--net-sma--node1-BETFEN_clean_sbu_0--edge1-FUNLAD_clean_linker_1
_symmetry_space_group_name_H-M    P1
_symmetry_Int_Tables_number       1
_symmetry_cell_setting            triclinic
loop_
_symmetry_equiv_pos_as_xyz
'x, y, z'
_cell_length_a     32.757985
_cell_length_b     43.148513
_cell_length_c     14.167206
_cell_angle_alpha  90.028217
_cell_angle_beta   95.818899
_cell_angle_gamma 99.070256
loop_
_atom_site_label
_atom_site_type_symbol
_atom_site_fract_x
_atom_site_fract_y
_atom_site_fract_z
_atom_type_partial_charge
Pr0 Pr 0.0674 0.48944 0.04277 0.0
Pr1 Pr 0.08729 0.56366 0.0528 0.0
C2 C 1.05305 0.42823 0.08795 0.0
C3 C 1.01832 0.40647 0.12301 0.0
C4 C 1.01322 0.37435 0.10064 0.0
C5 C 0.98053 0.35339 0.13284 0.0
C6 C 0.95214 0.36413 0.18865 0.0
C7 C 0.95697 0.39645 0.20968 0.0
C8 C 0.9898 0.4174 0.17762 0.0
C9 C 1.05198 0.51988 0.87466 0.0
C10 C 0.98786 0.52807 0.04172 0.0
C11 C 0.10294 0.62685 0.05696 0.0
C12 C 0.13646 0.65117 0.10281 0.0
C13 C 0.13351 0.66313 0.19378 0.0
C14 C 0.16451 0.68634 0.23664 0.0
C15 C 0.19938 0.69837 0.19008 0.0
C16 C 0.2026 0.68623 0.09914 0.0
C17 C 0.1715 0.66295 0.05617 0.0
C18 C 0.10123 0.5314 0.21922 0.0
C19 C 0.16453 0.52569 0.00689 0.0
O20 O 0.07256 0.45029 0.14728 0.0
O21 O 1.04708 0.43807 0.00089 0.0
O22 O 0.08264 0.52754 0.93491 0.0
O23 O 1.03012 0.49314 0.8939 0.0
O24 O 1.01303 0.55366 0.01844 0.0
O25 O 1.00266 0.50246 0.07051 0.0
O26 O 0.11217 0.60996 -0.01241 0.0
O27 O 0.07856 0.61046 0.1129 0.0
O28 O 0.07029 0.52559 0.1592 0.0
O29 O 0.12623 0.55612 0.19745 0.0
O30 O 0.14148 0.4989 0.02997 0.0
O31 O 0.14927 0.55235 0.00103 0.0
H32 H 1.03445 0.36544 0.05758 0.0
H33 H 0.97715 0.32894 0.1119 0.0
H34 H 0.9354 0.40552 0.25143 0.0
H35 H 0.99281 0.44215 0.19524 0.0
H36 H 0.107 0.65476 0.23193 0.0
H37 H 0.16092 0.69521 0.3064 0.0
H38 H 0.22838 0.69499 0.05949 0.0
H39 H 0.17474 0.65441 -0.01416 0.0
Pr40 Pr 0.6238 0.04377 0.52479 0.0
Pr41 Pr 0.52909 1.01645 0.56383 0.0
C42 C 0.69323 0.0697 0.449 0.0
C43 C 0.71634 0.10174 0.43454 0.0
C44 C 0.7521 0.11334 0.4954 0.0
C45 C 0.77528 0.14278 0.48086 0.0
C46 C 0.76357 0.16158 0.40503 0.0
C47 C 0.72739 0.15018 0.34445 0.0
C48 C 0.70411 0.12064 0.35912 0.0
C49 C 0.61143 0.03062 0.70927 0.0
C50 C 0.5646 0.09271 0.60639 0.0
C51 C 0.45413 0.98624 0.59549 0.0
C52 C 0.43442 0.95428 0.5604 0.0
C53 C 0.39812 0.95051 0.49678 0.0
C54 C 0.38233 0.92136 0.45279 0.0
C55 C 0.40243 0.89511 0.47167 0.0
C56 C 0.43868 0.89888 0.53548 0.0
C57 C 0.45437 0.928 0.57964 0.0
C58 C 0.54416 0.03125 0.37944 0.0
C59 C 0.59241 0.9647 0.53043 0.0
O60 O 0.65756 0.06092 0.39773 0.0
O61 O 0.69329 0.05988 0.53653 0.0
O62 O 0.59344 1.01492 0.63848 0.0
O63 O 0.64023 0.05316 0.68776 0.0
O64 O 0.53686 0.06821 0.62659 0.0
O65 O 0.59699 0.08974 0.55955 0.0
O66 O 0.48631 0.98819 0.65979 0.0
O67 O 0.45909 1.00751 0.52994 0.0
O68 O 0.55987 0.04694 0.45173 0.0
O69 O 0.51917 1.00635 0.39965 0.0
O70 O 0.61993 0.98782 0.49965 0.0
O71 O 0.55816 0.97048 0.56395 0.0
H72 H 0.76263 0.09941 0.55385 0.0
H73 H 0.80299 0.15068 0.52855 0.0
H74 H 0.71743 0.16338 0.28395 0.0
H75 H 0.6769 0.11245 0.31031 0.0
H76 H 0.38266 0.97045 0.47861 0.0
H77 H 0.35519 0.91989 0.40172 0.0
H78 H 0.45513 0.87925 0.55083 0.0
H79 H 0.48277 0.93006 0.62701 0.0
Pr80 Pr 0.57083 0.49496 0.86154 0.0
Pr81 Pr 0.57548 0.57044 0.86798 0.0
C82 C 0.57334 0.43494 0.80997 0.0
C83 C 0.57475 0.40172 0.78123 0.0
C84 C 0.56678 0.37686 0.84457 0.0
C85 C 0.56826 0.34566 0.81745 0.0
C86 C 0.578 0.33838 0.72594 0.0
C87 C 0.58612 0.36341 0.66313 0.0
C88 C 0.58437 0.3945 0.69006 0.0
C89 C 0.56702 0.52141 0.03522 0.0
C90 C 0.66429 0.5413 0.90663 0.0
C91 C 0.57735 0.63375 0.88285 0.0
C92 C 0.57125 0.66477 0.83978 0.0
C93 C 0.59017 0.67629 0.75882 0.0
C94 C 0.58872 0.7073 0.72793 0.0
C95 C 0.56844 0.72786 0.77746 0.0
C96 C 0.54873 0.71584 0.85673 0.0
C97 C 0.55017 0.68496 0.88736 0.0
C98 C 0.5759 0.54163 0.69437 0.0
C99 C 0.48283 0.5228 0.88555 0.0
O100 O 0.57196 0.45755 0.74833 0.0
O101 O 0.57342 0.44374 0.89856 0.0
O102 O 0.59063 0.53358 -0.02397 0.0
O103 O 0.54801 0.49332 0.01097 0.0
O104 O 0.64395 0.5643 0.92793 0.0
O105 O 0.64403 0.51405 0.87016 0.0
O106 O 0.54549 0.6133 0.90307 0.0
O107 O 0.60814 0.62052 0.85917 0.0
O108 O 0.55313 0.53138 0.75635 0.0
O109 O 0.59733 0.56878 0.71682 0.0
O110 O 0.4995 0.49826 0.86017 0.0
O111 O 0.50504 0.55151 0.89811 0.0
H112 H 0.55924 0.38149 0.91539 0.0
H113 H 0.56205 0.3276 0.86917 0.0
H114 H 0.59388 0.35892 0.59237 0.0
H115 H 0.5909 0.41297 0.6394 0.0
H116 H 0.60695 0.66156 0.72039 0.0
H117 H 0.6041 0.715 0.66614 0.0
H118 H 0.53273 0.73067 0.89689 0.0
H119 H 0.53573 0.67716 0.95053 0.0
H120 H 0.21625 0.54526 0.92557 0.0
C121 C 0.20744 0.52708 -0.02395 0.0
H122 H 0.22939 0.49251 0.06352 0.0
H123 H 0.38202 0.47448 0.83476 0.0
H124 H 0.34077 0.42291 0.82491 0.0
H125 H 0.27234 0.41324 0.88663 0.0
H126 H 0.24445 0.45539 0.95723 0.0
C127 C 0.23725 0.51059 0.01216 0.0
C128 C 0.28157 0.51633 -0.01675 0.0
C129 C 0.29879 0.49137 0.94478 0.0
C130 C 0.33969 0.49667 0.91323 0.0
C131 C 0.35326 0.47159 0.86707 0.0
C132 C 0.32939 0.44184 0.85906 0.0
C133 C 0.29078 0.43642 0.89347 0.0
C134 C 0.27525 0.46086 0.93442 0.0
H135 H 0.43258 0.49527 0.95755 0.0
C136 C 0.43954 0.5161 0.91542 0.0
H137 H 0.41633 0.55403 0.84919 0.0
H138 H 0.26308 0.56877 0.06788 0.0
H139 H 0.30527 0.61997 0.08384 0.0
H140 H 0.37541 0.62917 0.03078 0.0
H141 H 0.40383 0.58721 0.96163 0.0
C142 C 0.4089 0.5334 0.89191 0.0
C143 C 0.36529 0.52674 0.9251 0.0
C144 C 0.34835 0.55153 0.966 0.0
C145 C 0.30709 0.54634 -0.00461 0.0
C146 C 0.29281 0.57149 0.03964 0.0
C147 C 0.31705 0.60104 0.05074 0.0
C148 C 0.35656 0.6062 0.02099 0.0
C149 C 0.37236 0.58181 -0.01961 0.0
H150 H 0.82282 0.19486 0.42582 0.0
C151 C 0.79172 0.19155 0.38839 0.0
H152 H 0.7515 0.21209 0.28906 0.0
H153 H 0.90569 0.33095 0.40582 0.0
H154 H 0.87751 0.33114 0.55766 0.0
H155 H 0.81982 0.29043 0.59458 0.0
H156 H 0.7901 0.24905 0.48002 0.0
C157 C 0.782 0.21415 0.32832 0.0
C158 C 0.81431 0.24076 0.30413 0.0
C159 C 0.83089 0.2652 0.37091 0.0
C160 C 0.86355 0.28925 0.34849 0.0
C161 C 0.88033 0.3126 0.41801 0.0
C162 C 0.86453 0.31292 0.50566 0.0
C163 C 0.83208 0.28996 0.52654 0.0
C164 C 0.8154 0.26628 0.46033 0.0
H165 H 0.88857 0.35221 0.23445 0.0
C166 C 0.91621 0.34248 0.22165 0.0
H167 H 0.9441 0.30151 0.22588 0.0
H168 H 0.78784 0.1988 0.1573 0.0
H169 H 0.81279 0.20047 0.00187 0.0
H170 H 0.86769 0.24286 0.96134 0.0
H171 H 0.8982 0.28377 0.07628 0.0
C172 C 0.91663 0.31164 0.2368 0.0
C173 C 0.87908 0.28918 0.25841 0.0
C174 C 0.86093 0.26563 0.19011 0.0
C175 C 0.82872 0.24144 0.21296 0.0
C176 C 0.81199 0.21794 0.1436 0.0
C177 C 0.82606 0.21857 0.05402 0.0
C178 C 0.85702 0.24241 0.03126 0.0
C179 C 0.87438 0.26568 0.09813 0.0
H180 H 0.6272 0.92499 0.50601 0.0
C181 C 0.6013 0.9316 0.53912 0.0
H182 H 0.5537 0.91759 0.62798 0.0
H183 H 0.54182 0.77179 0.52286 0.0
H184 H 0.50602 0.78572 0.37438 0.0
H185 H 0.50614 0.84116 0.33204 0.0
H186 H 0.54242 0.88315 0.43741 0.0
C187 C 0.57838 0.91032 0.59185 0.0
C188 C 0.58491 0.87689 0.60996 0.0
C189 C 0.56485 0.85233 0.54682 0.0
C190 C 0.56479 0.82012 0.57161 0.0
C191 C 0.54336 0.79648 0.50745 0.0
C192 C 0.5225 0.80416 0.42214 0.0
C193 C 0.52253 0.83538 0.3983 0.0
C194 C 0.54346 0.85926 0.45947 0.0
H195 H 0.54966 0.77492 0.79394 0.0
C196 C 0.56729 0.76187 0.75158 0.0
H197 H 0.60397 0.7657 0.63602 0.0
H198 H 0.62334 0.9173 0.75109 0.0
H199 H 0.65553 0.90367 0.904 0.0
H200 H 0.65718 0.84836 0.9455 0.0
H201 H 0.62634 0.80624 0.83509 0.0
C202 C 0.58696 0.7778 0.68204 0.0
C203 C 0.58462 0.81199 0.66022 0.0
C204 C 0.60413 0.83665 0.72419 0.0
C205 C 0.60387 0.86886 0.69944 0.0
C206 C 0.62267 0.89264 0.76606 0.0
C207 C 0.64138 0.88515 0.85395 0.0
C208 C 0.64229 0.85399 0.87732 0.0
C209 C 0.62425 0.82998 0.81331 0.0
H210 H 0.72469 0.56871 0.96475 0.0
C211 C 0.71069 0.5465 0.93045 0.0
H212 H 0.72292 0.50397 0.87445 0.0
H213 H 0.91172 0.54902 0.81322 0.0
H214 H 0.87936 0.54878 0.65179 0.0
H215 H 0.80311 0.54157 0.61784 0.0
H216 H 0.75856 0.53436 0.74529 0.0
C217 C 0.73609 0.5258 0.91187 0.0
C218 C 0.78301 0.53263 0.93466 0.0
C219 C 0.80916 0.53728 0.86004 0.0
C220 C 0.85353 0.54202 0.87995 0.0
C221 C 0.87814 0.54594 0.80289 0.0
C222 C 0.85996 0.54573 0.70963 0.0
C223 C 0.81701 0.54161 0.69051 0.0
C224 C 0.79179 0.53742 0.76441 0.0
H225 H 0.92383 0.50399 0.05326 0.0
C226 C 0.94138 0.52594 0.03201 0.0
H227 H 0.93658 0.56948 0.9684 0.0
H228 H 0.74359 0.52235 0.09503 0.0
H229 H 0.77577 0.5231 0.25692 0.0
H230 H 0.85198 0.5336 0.292 0.0
H231 H 0.89667 0.54324 0.16549 0.0
C232 C 0.91968 0.54799 -0.00577 0.0
C233 C 0.87251 0.54225 0.97493 0.0
C234 C 0.84633 0.53771 0.04982 0.0
C235 C 0.80188 0.53258 0.02966 0.0
C236 C 0.77715 0.52706 0.10609 0.0
C237 C 0.79524 0.52732 0.19944 0.0
C238 C 0.83818 0.53318 0.21917 0.0
C239 C 0.86353 0.53846 0.14569 0.0
H240 H 0.40966 0.84783 0.41966 0.0
C241 C 0.38742 0.8639 0.42388 0.0
H242 H 0.3245 0.86955 0.39373 0.0
H243 H 0.26289 0.77295 0.06636 0.0
H244 H 0.26967 0.82139 -0.02133 0.0
H245 H 0.30601 0.87097 0.0545 0.0
H246 H 0.33545 0.87248 0.21906 0.0
C247 C 0.3475 0.85418 0.38967 0.0
C248 C 0.33275 0.82312 0.34046 0.0
C249 C 0.31634 0.82243 0.24366 0.0
C250 C 0.29604 0.7937 0.19928 0.0
C251 C 0.27903 0.79399 0.10333 0.0
C252 C 0.28268 0.82165 0.05209 0.0
C253 C 0.30307 0.84958 0.09485 0.0
C254 C 0.31968 0.85013 0.18947 0.0
H255 H 0.22071 0.73591 0.29869 0.0
C256 C 0.22983 0.72473 0.23699 0.0
H257 H 0.27778 0.7263 0.14604 0.0
H258 H 0.36201 0.81519 0.52619 0.0
H259 H 0.36086 0.76596 0.60832 0.0
H260 H 0.32917 0.71592 0.52803 0.0
H261 H 0.29798 0.71496 0.36483 0.0
C262 C 0.26696 0.73629 0.20727 0.0
C263 C 0.29236 0.76554 0.25137 0.0
C264 C 0.31153 0.76574 0.34582 0.0
C265 C 0.33117 0.79458 0.39102 0.0
C266 C 0.34802 0.79406 0.48698 0.0
C267 C 0.34734 0.76591 0.53534 0.0
C268 C 0.3294 0.73774 0.49022 0.0
C269 C 0.31147 0.73753 0.39674 0.0
H270 H 0.59173 0.30309 0.62369 0.0
C271 C 0.58069 0.30555 0.69274 0.0
H272 H 0.55979 0.28006 0.8112 0.0
H273 H 0.52801 0.16341 0.49294 0.0
H274 H 0.47968 0.19261 0.4047 0.0
H275 H 0.47325 0.2462 0.45493 0.0
H276 H 0.51536 0.27116 0.59295 0.0
C277 C 0.57016 0.2789 0.74128 0.0
C278 C 0.5749 0.24673 0.70602 0.0
C279 C 0.54906 0.23194 0.62659 0.0
C280 C 0.55196 0.20049 0.59886 0.0
C281 C 0.52664 0.18689 0.51784 0.0
C282 C 0.49878 0.2034 0.46651 0.0
C283 C 0.49522 0.23361 0.49473 0.0
C284 C 0.51978 0.24774 0.57398 0.0
H285 H 0.53141 0.12694 0.67241 0.0
C286 C 0.55849 0.1248 0.63596 0.0
H287 H 0.61294 0.14913 0.58538 0.0
H288 H 0.6309 0.26788 0.85723 0.0
H289 H 0.67964 0.2387 0.944 0.0
H290 H 0.68283 0.18396 0.89919 0.0
H291 H 0.63756 0.15807 0.7667 0.0
C292 C 0.58517 0.15106 0.61943 0.0
C293 C 0.57999 0.18338 0.65139 0.0
C294 C 0.60602 0.19823 0.73003 0.0
C295 C 0.6036 0.22977 0.75703 0.0
C296 C 0.6308 0.2439 0.83471 0.0
C297 C 0.65906 0.22746 0.88494 0.0
C298 C 0.66093 0.19665 0.85958 0.0
C299 C 0.63482 0.1821 0.7832 0.0
H300 H 0.07647 0.5527 0.77161 0.0
C301 C 1.05044 0.53444 0.78244 0.0
H302 H 1.00077 0.50198 0.71813 0.0
H303 H 0.11234 0.59226 0.41207 0.0
H304 H 0.0786 0.63481 0.46012 0.0
H305 H 1.0281 0.62671 0.57925 0.0
H306 H 1.0111 0.57557 0.65066 0.0
C307 C 1.02609 0.52081 0.70796 0.0
C308 C 1.04452 0.52309 0.61707 0.0
C309 C 1.05333 0.55273 0.57445 0.0
C310 C 0.08208 0.55723 0.50559 0.0
C311 C 0.09065 0.58726 0.46471 0.0
C312 C 0.0715 0.61201 0.49177 0.0
C313 C 1.04313 0.60747 0.55893 0.0
C314 C 1.03389 0.57816 0.59978 0.0
H315 H 0.07375 0.50031 0.32301 0.0
C316 C 0.09987 0.51866 0.31371 0.0
H317 H 0.14607 0.55342 0.38043 0.0
H318 H 1.03172 0.46228 0.68007 0.0
H319 H 0.06641 0.41994 0.6346 0.0
H320 H 0.11856 0.42839 0.51927 0.0
H321 H 0.13587 0.47951 0.44835 0.0
C322 C 0.12122 0.53411 0.38927 0.0
C323 C 0.10094 0.53169 0.47793 0.0
C324 C 0.09223 0.50209 0.52093 0.0
C325 C 0.06305 0.4975 0.58872 0.0
C326 C 1.05408 0.46739 0.62894 0.0
C327 C 0.07374 0.44276 0.60329 0.0
C328 C 0.103 0.4475 0.53823 0.0
C329 C 0.11238 0.47681 0.49755 0.0
H330 H 0.58605 0.05352 0.28047 0.0
C331 C 0.55612 0.03895 0.28575 0.0
H332 H 0.50215 1.01306 0.21279 0.0
H333 H 0.626 0.09643 0.91786 0.0
H334 H 0.60446 0.14257 -0.01754 0.0
H335 H 0.55696 0.1378 0.10819 0.0
H336 H 0.53087 0.08663 0.16982 0.0
C337 C 0.5321 0.02763 0.20795 0.0
C338 C 0.55039 0.03011 0.11723 0.0
C339 C 0.56457 0.0601 0.08114 0.0
C340 C 0.59121 0.06278 0.00806 0.0
C341 C 0.60539 0.09297 0.97327 0.0
C342 C 0.5933 0.1197 0.00978 0.0
C343 C 0.56665 0.11701 0.08067 0.0
C344 C 0.55221 0.0876 0.11597 0.0
H345 H 0.56762 1.0115 0.8074 0.0
C346 C 0.59808 0.02538 0.80257 0.0
H347 H 0.65153 0.05193 0.87613 0.0
H348 H 0.52424 0.96885 0.16417 0.0
H349 H 0.54481 0.92264 0.09768 0.0
H350 H 0.59375 0.92746 -0.02493 0.0
H351 H 0.62198 0.97869 0.91787 0.0
C352 C 0.62133 0.03763 0.88018 0.0
C353 C 0.60227 0.03535 0.96982 0.0
C354 C 0.58787 1.00535 0.00552 0.0
C355 C 0.5608 1.00266 0.07765 0.0
C356 C 0.54548 0.97237 0.11009 0.0
C357 C 0.55699 0.94559 0.07244 0.0
C358 C 0.58445 0.9483 0.00329 0.0
C359 C 0.60008 0.97778 0.97047 0.0
H360 H 0.61307 0.52566 0.59335 0.0
C361 C 0.58126 0.52419 0.61118 0.0
H362 H 0.51836 0.52074 0.5579 0.0
H363 H 0.60563 0.6034 0.24087 0.0
H364 H 0.57809 0.64297 0.32825 0.0
H365 H 0.54183 0.62855 0.47031 0.0
H366 H 0.53275 0.5749 0.52553 0.0
C367 C 0.54982 0.5188 0.54305 0.0
C368 C 0.56144 0.52501 0.44698 0.0
C369 C 0.56496 0.55641 0.41486 0.0
C370 C 0.58535 0.56478 0.33329 0.0
C371 C 0.58963 0.59616 0.30241 0.0
C372 C 0.57424 0.61894 0.35203 0.0
C373 C 0.55391 0.61083 0.43211 0.0
C374 C 0.54909 0.57995 0.46332 0.0
H375 H 0.53771 0.52825 0.16159 0.0
C376 C 0.56635 0.53449 0.12827 0.0
H377 H 0.63161 0.54847 0.15113 0.0
H378 H 0.55939 0.46313 0.4913 0.0
H379 H 0.59028 0.42482 0.40737 0.0
H380 H 0.62764 0.44016 0.26738 0.0
H381 H 0.63405 0.49387 0.21045 0.0
C382 C 0.60192 0.54526 0.18084 0.0
C383 C 0.60059 0.54165 0.28313 0.0
C384 C 0.59962 0.51093 0.31869 0.0
C385 C 0.57891 0.5023 0.39959 0.0
C386 C 0.57574 0.47093 0.43075 0.0
C387 C 0.59309 0.44877 0.383 0.0
C388 C 0.61404 0.45738 0.30408 0.0
C389 C 0.61734 0.48811 0.27189 0.0
loop_
_geom_bond_atom_site_label_1
_geom_bond_atom_site_label_2
_geom_bond_distance
_geom_bond_site_symmetry_2
_ccdc_geom_bond_type
Pr0 C2 2.880 1_455 S
Pr0 O20 2.562 1_455 S
Pr0 O21 2.490 1_455 S
Pr0 O22 2.695 . S
Pr0 O23 2.512 1_554 S
Pr0 O25 2.437 1_455 S
Pr0 O28 2.436 . S
Pr0 O30 2.438 . S
Pr1 C11 2.880 . S
Pr1 O22 2.436 . S
Pr1 O24 2.438 1_455 S
Pr1 O26 2.562 . S
Pr1 O27 2.490 . S
Pr1 O28 2.695 . S
Pr1 O29 2.512 . S
Pr1 O31 2.437 . S
C2 Pr0 2.880 1_655 S
C2 C3 1.491 . S
C2 O20 1.254 . S
C2 O21 1.225 . S
C3 C2 1.491 . S
C3 C4 1.392 . S
C3 C8 1.356 . S
C4 C3 1.392 . S
C4 C5 1.368 . S
C4 H32 0.929 . S
C5 C4 1.368 . S
C5 C6 1.386 . S
C5 H33 0.929 . S
C6 C5 1.386 . S
C6 C7 1.373 . S
C7 C6 1.373 . S
C7 C8 1.409 . S
C7 H34 0.931 . S
C8 C3 1.356 . S
C8 C7 1.409 . S
C8 H35 0.930 . S
C9 O22 1.270 1_556 S
C9 O23 1.248 . S
C10 O24 1.267 . S
C10 O25 1.278 . S
C11 Pr1 2.880 . S
C11 C12 1.491 . S
C11 O26 1.254 . S
C11 O27 1.225 . S
C12 C11 1.491 . S
C12 C13 1.392 . S
C12 C17 1.356 . S
C13 C12 1.392 . S
C13 C14 1.368 . S
C13 H36 0.929 . S
C14 C13 1.368 . S
C14 C15 1.386 . S
C14 H37 0.929 . S
C15 C14 1.386 . S
C15 C16 1.373 . S
C16 C15 1.373 . S
C16 C17 1.409 . S
C16 H38 0.931 1_554 S
C17 C12 1.356 . S
C17 C16 1.409 . S
C17 H39 0.930 1_554 S
C18 O28 1.270 . S
C18 O29 1.248 . S
C19 O30 1.267 . S
C19 O31 1.278 . S
O20 Pr0 2.562 1_655 S
O20 C2 1.254 . S
O21 Pr0 2.490 1_655 S
O21 C2 1.225 . S
O22 Pr0 2.695 . S
O22 Pr1 2.436 . S
O22 C9 1.270 1_554 S
O23 Pr0 2.512 1_556 S
O23 C9 1.248 . S
O24 Pr1 2.438 1_655 S
O24 C10 1.267 . S
O25 Pr0 2.437 1_655 S
O25 C10 1.278 . S
O26 Pr1 2.562 . S
O26 C11 1.254 . S
O27 Pr1 2.490 . S
O27 C11 1.225 . S
O28 Pr0 2.436 . S
O28 Pr1 2.695 . S
O28 C18 1.270 . S
O29 Pr1 2.512 . S
O29 C18 1.248 . S
O30 Pr0 2.438 . S
O30 C19 1.267 . S
O31 Pr1 2.437 . S
O31 C19 1.278 . S
H32 C4 0.929 . S
H33 C5 0.929 . S
H34 C7 0.931 . S
H35 C8 0.930 . S
H36 C13 0.929 . S
H37 C14 0.929 . S
H38 C16 0.931 1_556 S
H39 C17 0.930 1_556 S
Pr40 C42 2.880 . S
Pr40 O60 2.562 . S
Pr40 O61 2.490 . S
Pr40 O62 2.695 . S
Pr40 O63 2.512 . S
Pr40 O65 2.437 . S
Pr40 O68 2.436 . S
Pr40 O70 2.438 1_545 S
Pr41 C51 2.860 1_545 S
Pr41 O62 2.435 . S
Pr41 O64 2.463 . S
Pr41 O66 2.543 1_545 S
Pr41 O67 2.474 1_545 S
Pr41 O68 2.701 . S
Pr41 O69 2.512 . S
Pr41 O71 2.416 1_545 S
C42 Pr40 2.880 . S
C42 C43 1.491 . S
C42 O60 1.254 . S
C42 O61 1.225 . S
C43 C42 1.491 . S
C43 C44 1.392 . S
C43 C48 1.356 . S
C44 C43 1.392 . S
C44 C45 1.368 . S
C44 H72 0.929 . S
C45 C44 1.368 . S
C45 C46 1.386 . S
C45 H73 0.929 . S
C46 C45 1.386 . S
C46 C47 1.373 . S
C47 C46 1.373 . S
C47 C48 1.409 . S
C47 H74 0.931 . S
C48 C43 1.356 . S
C48 C47 1.409 . S
C48 H75 0.930 . S
C49 O62 1.270 . S
C49 O63 1.248 . S
C50 O64 1.267 . S
C50 O65 1.278 . S
C51 Pr41 2.860 1_565 S
C51 C52 1.491 . S
C51 O66 1.254 . S
C51 O67 1.225 . S
C52 C51 1.491 . S
C52 C53 1.392 . S
C52 C57 1.356 . S
C53 C52 1.392 . S
C53 C54 1.368 . S
C53 H76 0.929 . S
C54 C53 1.368 . S
C54 C55 1.386 . S
C54 H77 0.929 . S
C55 C54 1.386 . S
C55 C56 1.373 . S
C56 C55 1.373 . S
C56 C57 1.409 . S
C56 H78 0.931 . S
C57 C52 1.356 . S
C57 C56 1.409 . S
C57 H79 0.930 . S
C58 O68 1.270 . S
C58 O69 1.257 . S
C59 O70 1.267 . S
C59 O71 1.278 . S
O60 Pr40 2.562 . S
O60 C42 1.254 . S
O61 Pr40 2.490 . S
O61 C42 1.225 . S
O62 Pr40 2.695 . S
O62 Pr41 2.435 . S
O62 C49 1.270 . S
O63 Pr40 2.512 . S
O63 C49 1.248 . S
O64 Pr41 2.463 . S
O64 C50 1.267 . S
O65 Pr40 2.437 . S
O65 C50 1.278 . S
O66 Pr41 2.543 1_565 S
O66 C51 1.254 . S
O67 Pr41 2.474 1_565 S
O67 C51 1.225 . S
O68 Pr40 2.436 . S
O68 Pr41 2.701 . S
O68 C58 1.270 . S
O69 Pr41 2.512 . S
O69 C58 1.257 . S
O70 Pr40 2.438 1_565 S
O70 C59 1.267 . S
O71 Pr41 2.416 1_565 S
O71 C59 1.278 . S
H72 C44 0.929 . S
H73 C45 0.929 . S
H74 C47 0.931 . S
H75 C48 0.930 . S
H76 C53 0.929 . S
H77 C54 0.929 . S
H78 C56 0.931 . S
H79 C57 0.930 . S
Pr80 C82 2.880 . S
Pr80 O100 2.562 . S
Pr80 O101 2.490 . S
Pr80 O102 2.695 . S
Pr80 O103 2.512 1_556 S
Pr80 O105 2.437 . S
Pr80 O108 2.436 . S
Pr80 O110 2.438 . S
Pr81 C91 2.880 . S
Pr81 O102 2.436 . S
Pr81 O104 2.438 . S
Pr81 O106 2.562 . S
Pr81 O107 2.490 . S
Pr81 O108 2.695 . S
Pr81 O109 2.512 . S
Pr81 O111 2.437 . S
C82 Pr80 2.880 . S
C82 C83 1.491 . S
C82 O100 1.254 . S
C82 O101 1.225 . S
C83 C82 1.491 . S
C83 C84 1.392 . S
C83 C88 1.356 . S
C84 C83 1.392 . S
C84 C85 1.368 . S
C84 H112 0.929 . S
C85 C84 1.368 . S
C85 C86 1.386 . S
C85 H113 0.929 . S
C86 C85 1.386 . S
C86 C87 1.373 . S
C87 C86 1.373 . S
C87 C88 1.409 . S
C87 H114 0.931 . S
C88 C83 1.356 . S
C88 C87 1.409 . S
C88 H115 0.930 . S
C89 O102 1.270 1_554 S
C89 O103 1.248 . S
C90 O104 1.267 . S
C90 O105 1.278 . S
C91 Pr81 2.880 . S
C91 C92 1.491 . S
C91 O106 1.254 . S
C91 O107 1.225 . S
C92 C91 1.491 . S
C92 C93 1.392 . S
C92 C97 1.356 . S
C93 C92 1.392 . S
C93 C94 1.368 . S
C93 H116 0.929 . S
C94 C93 1.368 . S
C94 C95 1.386 . S
C94 H117 0.929 . S
C95 C94 1.386 . S
C95 C96 1.373 . S
C96 C95 1.373 . S
C96 C97 1.409 . S
C96 H118 0.931 1_556 S
C97 C92 1.356 . S
C97 C96 1.409 . S
C97 H119 0.930 . S
C98 O108 1.270 . S
C98 O109 1.248 . S
C99 O110 1.267 . S
C99 O111 1.278 . S
O100 Pr80 2.562 . S
O100 C82 1.254 . S
O101 Pr80 2.490 . S
O101 C82 1.225 . S
O102 Pr80 2.695 . S
O102 Pr81 2.436 . S
O102 C89 1.270 1_556 S
O103 Pr80 2.512 1_554 S
O103 C89 1.248 . S
O104 Pr81 2.438 . S
O104 C90 1.267 . S
O105 Pr80 2.437 . S
O105 C90 1.278 . S
O106 Pr81 2.562 . S
O106 C91 1.254 . S
O107 Pr81 2.490 . S
O107 C91 1.225 . S
O108 Pr80 2.436 . S
O108 Pr81 2.695 . S
O108 C98 1.270 . S
O109 Pr81 2.512 . S
O109 C98 1.248 . S
O110 Pr80 2.438 . S
O110 C99 1.267 . S
O111 Pr81 2.437 . S
O111 C99 1.278 . S
H112 C84 0.929 . S
H113 C85 0.929 . S
H114 C87 0.931 . S
H115 C88 0.930 . S
H116 C93 0.929 . S
H117 C94 0.929 . S
H118 C96 0.931 1_554 S
H119 C97 0.930 . S
H120 C121 0.951 . S
C121 H120 0.951 . S
C121 C127 1.265 . S
H122 C127 0.950 . S
H123 C131 0.949 . S
H124 C132 0.950 . S
H125 C133 0.951 . S
H126 C134 0.951 . S
C127 C121 1.265 . S
C127 H122 0.950 . S
C127 C128 1.478 . S
C128 C127 1.478 . S
C128 C129 1.397 1_554 S
C128 C145 1.394 . S
C129 C128 1.397 1_556 S
C129 C130 1.438 . S
C129 C134 1.429 1_556 S
C130 C129 1.438 . S
C130 C131 1.428 . S
C130 C143 1.394 . S
C131 H123 0.949 . S
C131 C130 1.428 . S
C131 C132 1.345 . S
C132 H124 0.950 . S
C132 C131 1.345 . S
C132 C133 1.424 . S
C133 H125 0.951 . S
C133 C132 1.424 . S
C133 C134 1.347 1_556 S
C134 H126 0.951 . S
C134 C129 1.429 1_554 S
C134 C133 1.347 1_554 S
H135 C136 0.951 . S
C136 H135 0.951 . S
C136 C142 1.265 . S
H137 C142 0.950 . S
H138 C146 0.949 . S
H139 C147 0.950 . S
H140 C148 0.951 . S
H141 C149 0.951 . S
C142 C136 1.265 . S
C142 H137 0.950 . S
C142 C143 1.478 . S
C143 C130 1.394 . S
C143 C142 1.478 . S
C143 C144 1.397 . S
C144 C143 1.397 . S
C144 C145 1.438 1_556 S
C144 C149 1.429 . S
C145 C128 1.394 . S
C145 C144 1.438 1_554 S
C145 C146 1.428 . S
C146 H138 0.949 . S
C146 C145 1.428 . S
C146 C147 1.345 . S
C147 H139 0.950 . S
C147 C146 1.345 . S
C147 C148 1.424 . S
C148 H140 0.951 . S
C148 C147 1.424 . S
C148 C149 1.347 1_554 S
C149 H141 0.951 . S
C149 C144 1.429 . S
C149 C148 1.347 1_556 S
H150 C151 0.951 . S
C151 H150 0.951 . S
C151 C157 1.265 . S
H152 C157 0.950 . S
H153 C161 0.949 . S
H154 C162 0.950 . S
H155 C163 0.951 . S
H156 C164 0.951 . S
C157 C151 1.265 . S
C157 H152 0.950 . S
C157 C158 1.478 . S
C158 C157 1.478 . S
C158 C159 1.397 . S
C158 C175 1.394 . S
C159 C158 1.397 . S
C159 C160 1.438 . S
C159 C164 1.429 . S
C160 C159 1.438 . S
C160 C161 1.428 . S
C160 C173 1.394 . S
C161 H153 0.949 . S
C161 C160 1.428 . S
C161 C162 1.345 . S
C162 H154 0.950 . S
C162 C161 1.345 . S
C162 C163 1.424 . S
C163 H155 0.951 . S
C163 C162 1.424 . S
C163 C164 1.347 . S
C164 H156 0.951 . S
C164 C159 1.429 . S
C164 C163 1.347 . S
H165 C166 0.951 . S
C166 H165 0.951 . S
C166 C172 1.265 . S
H167 C172 0.950 . S
H168 C176 0.949 . S
H169 C177 0.950 . S
H170 C178 0.951 . S
H171 C179 0.951 . S
C172 C166 1.265 . S
C172 H167 0.950 . S
C172 C173 1.478 . S
C173 C160 1.394 . S
C173 C172 1.478 . S
C173 C174 1.397 . S
C174 C173 1.397 . S
C174 C175 1.438 . S
C174 C179 1.429 . S
C175 C158 1.394 . S
C175 C174 1.438 . S
C175 C176 1.428 . S
C176 H168 0.949 . S
C176 C175 1.428 . S
C176 C177 1.345 . S
C177 H169 0.950 . S
C177 C176 1.345 . S
C177 C178 1.424 . S
C178 H170 0.951 . S
C178 C177 1.424 . S
C178 C179 1.347 . S
C179 H171 0.951 . S
C179 C174 1.429 . S
C179 C178 1.347 . S
H180 C181 0.951 . S
C181 H180 0.951 . S
C181 C187 1.265 . S
H182 C187 0.950 . S
H183 C191 0.949 . S
H184 C192 0.950 . S
H185 C193 0.951 . S
H186 C194 0.951 . S
C187 C181 1.265 . S
C187 H182 0.950 . S
C187 C188 1.478 . S
C188 C187 1.478 . S
C188 C189 1.397 . S
C188 C205 1.394 . S
C189 C188 1.397 . S
C189 C190 1.438 . S
C189 C194 1.429 . S
C190 C189 1.438 . S
C190 C191 1.428 . S
C190 C203 1.394 . S
C191 H183 0.949 . S
C191 C190 1.428 . S
C191 C192 1.345 . S
C192 H184 0.950 . S
C192 C191 1.345 . S
C192 C193 1.424 . S
C193 H185 0.951 . S
C193 C192 1.424 . S
C193 C194 1.347 . S
C194 H186 0.951 . S
C194 C189 1.429 . S
C194 C193 1.347 . S
H195 C196 0.951 . S
C196 H195 0.951 . S
C196 C202 1.265 . S
H197 C202 0.950 . S
H198 C206 0.949 . S
H199 C207 0.950 . S
H200 C208 0.951 1_554 S
H201 C209 0.951 . S
C202 C196 1.265 . S
C202 H197 0.950 . S
C202 C203 1.478 . S
C203 C190 1.394 . S
C203 C202 1.478 . S
C203 C204 1.397 . S
C204 C203 1.397 . S
C204 C205 1.438 . S
C204 C209 1.429 . S
C205 C188 1.394 . S
C205 C204 1.438 . S
C205 C206 1.428 . S
C206 H198 0.949 . S
C206 C205 1.428 . S
C206 C207 1.345 . S
C207 H199 0.950 . S
C207 C206 1.345 . S
C207 C208 1.424 . S
C208 H200 0.951 1_556 S
C208 C207 1.424 . S
C208 C209 1.347 . S
C209 H201 0.951 . S
C209 C204 1.429 . S
C209 C208 1.347 . S
H210 C211 0.951 . S
C211 H210 0.951 . S
C211 C217 1.265 . S
H212 C217 0.950 . S
H213 C221 0.949 . S
H214 C222 0.950 . S
H215 C223 0.951 . S
H216 C224 0.951 . S
C217 C211 1.265 . S
C217 H212 0.950 . S
C217 C218 1.478 . S
C218 C217 1.478 . S
C218 C219 1.397 . S
C218 C235 1.394 1_556 S
C219 C218 1.397 . S
C219 C220 1.438 . S
C219 C224 1.429 . S
C220 C219 1.438 . S
C220 C221 1.428 . S
C220 C233 1.394 1_556 S
C221 H213 0.949 . S
C221 C220 1.428 . S
C221 C222 1.345 . S
C222 H214 0.950 . S
C222 C221 1.345 . S
C222 C223 1.424 . S
C223 H215 0.951 . S
C223 C222 1.424 . S
C223 C224 1.347 . S
C224 H216 0.951 . S
C224 C219 1.429 . S
C224 C223 1.347 . S
H225 C226 0.951 . S
C226 H225 0.951 . S
C226 C232 1.265 . S
H227 C232 0.950 . S
H228 C236 0.949 . S
H229 C237 0.950 . S
H230 C238 0.951 . S
H231 C239 0.951 . S
C232 C226 1.265 . S
C232 H227 0.950 . S
C232 C233 1.478 . S
C233 C220 1.394 1_554 S
C233 C232 1.478 . S
C233 C234 1.397 . S
C234 C233 1.397 . S
C234 C235 1.438 . S
C234 C239 1.429 . S
C235 C218 1.394 1_554 S
C235 C234 1.438 . S
C235 C236 1.428 . S
C236 H228 0.949 . S
C236 C235 1.428 . S
C236 C237 1.345 . S
C237 H229 0.950 . S
C237 C236 1.345 . S
C237 C238 1.424 . S
C238 H230 0.951 . S
C238 C237 1.424 . S
C238 C239 1.347 . S
C239 H231 0.951 . S
C239 C234 1.429 . S
C239 C238 1.347 . S
H240 C241 0.951 . S
C241 H240 0.951 . S
C241 C247 1.265 . S
H242 C247 0.950 . S
H243 C251 0.949 . S
H244 C252 0.950 . S
H245 C253 0.951 . S
H246 C254 0.951 . S
C247 C241 1.265 . S
C247 H242 0.950 . S
C247 C248 1.478 . S
C248 C247 1.478 . S
C248 C249 1.397 . S
C248 C265 1.394 . S
C249 C248 1.397 . S
C249 C250 1.438 . S
C249 C254 1.429 . S
C250 C249 1.438 . S
C250 C251 1.428 . S
C250 C263 1.394 . S
C251 H243 0.949 . S
C251 C250 1.428 . S
C251 C252 1.345 . S
C252 H244 0.950 . S
C252 C251 1.345 . S
C252 C253 1.424 . S
C253 H245 0.951 . S
C253 C252 1.424 . S
C253 C254 1.347 . S
C254 H246 0.951 . S
C254 C249 1.429 . S
C254 C253 1.347 . S
H255 C256 0.951 . S
C256 H255 0.951 . S
C256 C262 1.265 . S
H257 C262 0.950 . S
H258 C266 0.949 . S
H259 C267 0.950 . S
H260 C268 0.951 . S
H261 C269 0.951 . S
C262 C256 1.265 . S
C262 H257 0.950 . S
C262 C263 1.478 . S
C263 C250 1.394 . S
C263 C262 1.478 . S
C263 C264 1.397 . S
C264 C263 1.397 . S
C264 C265 1.438 . S
C264 C269 1.429 . S
C265 C248 1.394 . S
C265 C264 1.438 . S
C265 C266 1.428 . S
C266 H258 0.949 . S
C266 C265 1.428 . S
C266 C267 1.345 . S
C267 H259 0.950 . S
C267 C266 1.345 . S
C267 C268 1.424 . S
C268 H260 0.951 . S
C268 C267 1.424 . S
C268 C269 1.347 . S
C269 H261 0.951 . S
C269 C264 1.429 . S
C269 C268 1.347 . S
H270 C271 0.951 . S
C271 H270 0.951 . S
C271 C277 1.265 . S
H272 C277 0.950 . S
H273 C281 0.949 . S
H274 C282 0.950 . S
H275 C283 0.951 . S
H276 C284 0.951 . S
C277 C271 1.265 . S
C277 H272 0.950 . S
C277 C278 1.478 . S
C278 C277 1.478 . S
C278 C279 1.397 . S
C278 C295 1.394 . S
C279 C278 1.397 . S
C279 C280 1.438 . S
C279 C284 1.429 . S
C280 C279 1.438 . S
C280 C281 1.428 . S
C280 C293 1.394 . S
C281 H273 0.949 . S
C281 C280 1.428 . S
C281 C282 1.345 . S
C282 H274 0.950 . S
C282 C281 1.345 . S
C282 C283 1.424 . S
C283 H275 0.951 . S
C283 C282 1.424 . S
C283 C284 1.347 . S
C284 H276 0.951 . S
C284 C279 1.429 . S
C284 C283 1.347 . S
H285 C286 0.951 . S
C286 H285 0.951 . S
C286 C292 1.265 . S
H287 C292 0.950 . S
H288 C296 0.949 . S
H289 C297 0.950 . S
H290 C298 0.951 . S
H291 C299 0.951 . S
C292 C286 1.265 . S
C292 H287 0.950 . S
C292 C293 1.478 . S
C293 C280 1.394 . S
C293 C292 1.478 . S
C293 C294 1.397 . S
C294 C293 1.397 . S
C294 C295 1.438 . S
C294 C299 1.429 . S
C295 C278 1.394 . S
C295 C294 1.438 . S
C295 C296 1.428 . S
C296 H288 0.949 . S
C296 C295 1.428 . S
C296 C297 1.345 . S
C297 H289 0.950 . S
C297 C296 1.345 . S
C297 C298 1.424 . S
C298 H290 0.951 . S
C298 C297 1.424 . S
C298 C299 1.347 . S
C299 H291 0.951 . S
C299 C294 1.429 . S
C299 C298 1.347 . S
H300 C301 0.951 . S
C301 H300 0.951 . S
C301 C307 1.265 . S
H302 C307 0.950 1_655 S
H303 C311 0.949 . S
H304 C312 0.950 . S
H305 C313 0.951 . S
H306 C314 0.951 . S
C307 C301 1.265 . S
C307 H302 0.950 1_455 S
C307 C308 1.478 . S
C308 C307 1.478 . S
C308 C309 1.397 . S
C308 C325 1.394 . S
C309 C308 1.397 . S
C309 C310 1.438 . S
C309 C314 1.429 . S
C310 C309 1.438 . S
C310 C311 1.428 . S
C310 C323 1.394 . S
C311 H303 0.949 . S
C311 C310 1.428 . S
C311 C312 1.345 . S
C312 H304 0.950 . S
C312 C311 1.345 . S
C312 C313 1.424 . S
C313 H305 0.951 . S
C313 C312 1.424 . S
C313 C314 1.347 . S
C314 H306 0.951 . S
C314 C309 1.429 . S
C314 C313 1.347 . S
H315 C316 0.951 1_655 S
C316 H315 0.951 1_455 S
C316 C322 1.265 . S
H317 C322 0.950 . S
H318 C326 0.949 . S
H319 C327 0.950 . S
H320 C328 0.951 . S
H321 C329 0.951 . S
C322 C316 1.265 . S
C322 H317 0.950 . S
C322 C323 1.478 . S
C323 C310 1.394 . S
C323 C322 1.478 . S
C323 C324 1.397 . S
C324 C323 1.397 . S
C324 C325 1.438 . S
C324 C329 1.429 . S
C325 C308 1.394 . S
C325 C324 1.438 . S
C325 C326 1.428 . S
C326 H318 0.949 . S
C326 C325 1.428 . S
C326 C327 1.345 . S
C327 H319 0.950 . S
C327 C326 1.345 . S
C327 C328 1.424 . S
C328 H320 0.951 . S
C328 C327 1.424 . S
C328 C329 1.347 . S
C329 H321 0.951 . S
C329 C324 1.429 . S
C329 C328 1.347 . S
H330 C331 0.951 . S
C331 H330 0.951 . S
C331 C337 1.265 . S
H332 C337 0.950 . S
H333 C341 0.949 . S
H334 C342 0.950 . S
H335 C343 0.951 . S
H336 C344 0.951 . S
C337 C331 1.265 . S
C337 H332 0.950 . S
C337 C338 1.478 . S
C338 C337 1.478 . S
C338 C339 1.397 . S
C338 C355 1.394 1_545 S
C339 C338 1.397 . S
C339 C340 1.438 1_554 S
C339 C344 1.429 . S
C340 C339 1.438 1_556 S
C340 C341 1.428 . S
C340 C353 1.394 . S
C341 H333 0.949 . S
C341 C340 1.428 . S
C341 C342 1.345 . S
C342 H334 0.950 . S
C342 C341 1.345 . S
C342 C343 1.424 1_556 S
C343 H335 0.951 . S
C343 C342 1.424 1_554 S
C343 C344 1.347 . S
C344 H336 0.951 . S
C344 C339 1.429 . S
C344 C343 1.347 . S
H345 C346 0.951 . S
C346 H345 0.951 . S
C346 C352 1.265 . S
H347 C352 0.948 1_565 S
H348 C356 0.949 . S
H349 C357 0.950 . S
H350 C358 0.951 1_556 S
H351 C359 0.951 . S
C352 C346 1.265 . S
C352 H347 0.948 1_545 S
C352 C353 1.478 . S
C353 C340 1.394 . S
C353 C352 1.478 . S
C353 C354 1.397 1_545 S
C354 C353 1.397 1_565 S
C354 C355 1.438 1_556 S
C354 C359 1.429 . S
C355 C338 1.394 1_565 S
C355 C354 1.438 1_554 S
C355 C356 1.428 . S
C356 H348 0.949 . S
C356 C355 1.428 . S
C356 C357 1.345 . S
C357 H349 0.950 . S
C357 C356 1.345 . S
C357 C358 1.424 . S
C358 H350 0.951 1_554 S
C358 C357 1.424 . S
C358 C359 1.347 1_554 S
C359 H351 0.951 . S
C359 C354 1.429 . S
C359 C358 1.347 1_556 S
H360 C361 0.951 . S
C361 H360 0.951 . S
C361 C367 1.265 . S
H362 C367 0.950 . S
H363 C371 0.949 . S
H364 C372 0.950 . S
H365 C373 0.951 . S
H366 C374 0.951 . S
C367 C361 1.265 . S
C367 H362 0.950 . S
C367 C368 1.478 . S
C368 C367 1.478 . S
C368 C369 1.397 . S
C368 C385 1.394 . S
C369 C368 1.397 . S
C369 C370 1.438 . S
C369 C374 1.429 . S
C370 C369 1.438 . S
C370 C371 1.428 . S
C370 C383 1.394 . S
C371 H363 0.949 . S
C371 C370 1.428 . S
C371 C372 1.345 . S
C372 H364 0.950 . S
C372 C371 1.345 . S
C372 C373 1.424 . S
C373 H365 0.951 . S
C373 C372 1.424 . S
C373 C374 1.347 . S
C374 H366 0.951 . S
C374 C369 1.429 . S
C374 C373 1.347 . S
H375 C376 0.951 . S
C376 H375 0.951 . S
C376 C382 1.265 . S
H377 C382 0.950 . S
H378 C386 0.949 . S
H379 C387 0.950 . S
H380 C388 0.951 . S
H381 C389 0.951 . S
C382 C376 1.265 . S
C382 H377 0.950 . S
C382 C383 1.478 . S
C383 C370 1.394 . S
C383 C382 1.478 . S
C383 C384 1.397 . S
C384 C383 1.397 . S
C384 C385 1.438 . S
C384 C389 1.429 . S
C385 C368 1.394 . S
C385 C384 1.438 . S
C385 C386 1.428 . S
C386 H378 0.949 . S
C386 C385 1.428 . S
C386 C387 1.345 . S
C387 H379 0.950 . S
C387 C386 1.345 . S
C387 C388 1.424 . S
C388 H380 0.951 . S
C388 C387 1.424 . S
C388 C389 1.347 . S
C389 H381 0.951 . S
C389 C384 1.429 . S
C389 C388 1.347 . S
C121 C19 2.987 . S
C136 C99 2.932 . S
C151 C46 1.555 . S
C166 C6 1.558 . S
C181 C59 2.551 . S
C196 C95 2.444 . S
C211 C90 2.620 . S
C226 C10 2.675 . S
C241 C55 1.488 . S
C256 C15 1.479 . S
C271 C86 2.211 . S
C286 C50 2.171 . S
C301 C9 0.507 . S
C316 C18 0.507 . S
C331 C58 0.623 . S
C346 C49 0.623 . S
C361 C98 0.544 . S
C376 C89 0.544 . S
